# Generated by pormake.
# Topology ana-e, (6)-cn, num edge types: 1
# Building blocks:
#     Node 0, Type 0, BuildingBlock: BETDEL_clean_sbu_0, # of connection points: 6
#     Node 1, Type 0, BuildingBlock: BETDEL_clean_sbu_0, # of connection points: 6
#     Node 2, Type 0, BuildingBlock: BETDEL_clean_sbu_0, # of connection points: 6
#     Node 3, Type 0, BuildingBlock: BETDEL_clean_sbu_0, # of connection points: 6
#     Node 4, Type 0, BuildingBlock: BETDEL_clean_sbu_0, # of connection points: 6
#     Node 5, Type 0, BuildingBlock: BETDEL_clean_sbu_0, # of connection points: 6
#     Node 6, Type 0, BuildingBlock: BETDEL_clean_sbu_0, # of connection points: 6
#     Node 7, Type 0, BuildingBlock: BETDEL_clean_sbu_0, # of connection points: 6
#     Node 8, Type 0, BuildingBlock: BETDEL_clean_sbu_0, # of connection points: 6
#     Node 9, Type 0, BuildingBlock: BETDEL_clean_sbu_0, # of connection points: 6
#     Node 10, Type 0, BuildingBlock: BETDEL_clean_sbu_0, # of connection points: 6
#     Node 11, Type 0, BuildingBlock: BETDEL_clean_sbu_0, # of connection points: 6
#     Node 12, Type 0, BuildingBlock: BETDEL_clean_sbu_0, # of connection points: 6
#     Node 13, Type 0, BuildingBlock: BETDEL_clean_sbu_0, # of connection points: 6
#     Node 14, Type 0, BuildingBlock: BETDEL_clean_sbu_0, # of connection points: 6
#     Node 15, Type 0, BuildingBlock: BETDEL_clean_sbu_0, # of connection points: 6
#     Node 16, Type 0, BuildingBlock: BETDEL_clean_sbu_0, # of connection points: 6
#     Node 17, Type 0, BuildingBlock: BETDEL_clean_sbu_0, # of connection points: 6
#     Node 18, Type 0, BuildingBlock: BETDEL_clean_sbu_0, # of connection points: 6
#     Node 19, Type 0, BuildingBlock: BETDEL_clean_sbu_0, # of connection points: 6
#     Node 20, Type 0, BuildingBlock: BETDEL_clean_sbu_0, # of connection points: 6
#     Node 21, Type 0, BuildingBlock: BETDEL_clean_sbu_0, # of connection points: 6
#     Node 22, Type 0, BuildingBlock: BETDEL_clean_sbu_0, # of connection points: 6
#     Node 23, Type 0, BuildingBlock: BETDEL_clean_sbu_0, # of connection points: 6
#     Node 24, Type 0, BuildingBlock: BETDEL_clean_sbu_0, # of connection points: 6
#     Node 25, Type 0, BuildingBlock: BETDEL_clean_sbu_0, # of connection points: 6
#     Node 26, Type 0, BuildingBlock: BETDEL_clean_sbu_0, # of connection points: 6
#     Node 27, Type 0, BuildingBlock: BETDEL_clean_sbu_0, # of connection points: 6
#     Node 28, Type 0, BuildingBlock: BETDEL_clean_sbu_0, # of connection points: 6
#     Node 29, Type 0, BuildingBlock: BETDEL_clean_sbu_0, # of connection points: 6
#     Node 30, Type 0, BuildingBlock: BETDEL_clean_sbu_0, # of connection points: 6
#     Node 31, Type 0, BuildingBlock: BETDEL_clean_sbu_0, # of connection points: 6
#     Node 32, Type 0, BuildingBlock: BETDEL_clean_sbu_0, # of connection points: 6
#     Node 33, Type 0, BuildingBlock: BETDEL_clean_sbu_0, # of connection points: 6
#     Node 34, Type 0, BuildingBlock: BETDEL_clean_sbu_0, # of connection points: 6
#     Node 35, Type 0, BuildingBlock: BETDEL_clean_sbu_0, # of connection points: 6
#     Node 36, Type 0, BuildingBlock: BETDEL_clean_sbu_0, # of connection points: 6
#     Node 37, Type 0, BuildingBlock: BETDEL_clean_sbu_0, # of connection points: 6
#     Node 38, Type 0, BuildingBlock: BETDEL_clean_sbu_0, # of connection points: 6
#     Node 39, Type 0, BuildingBlock: BETDEL_clean_sbu_0, # of connection points: 6
#     Node 40, Type 0, BuildingBlock: BETDEL_clean_sbu_0, # of connection points: 6
#     Node 41, Type 0, BuildingBlock: BETDEL_clean_sbu_0, # of connection points: 6
#     Node 42, Type 0, BuildingBlock: BETDEL_clean_sbu_0, # of connection points: 6
#     Node 43, Type 0, BuildingBlock: BETDEL_clean_sbu_0, # of connection points: 6
#     Node 44, Type 0, BuildingBlock: BETDEL_clean_sbu_0, # of connection points: 6
#     Node 45, Type 0, BuildingBlock: BETDEL_clean_sbu_0, # of connection points: 6
#     Node 46, Type 0, BuildingBlock: BETDEL_clean_sbu_0, # of connection points: 6
#     Node 47, Type 0, BuildingBlock: BETDEL_clean_sbu_0, # of connection points: 6
#     Node 48, Type 0, BuildingBlock: BETDEL_clean_sbu_0, # of connection points: 6
#     Node 49, Type 0, BuildingBlock: BETDEL_clean_sbu_0, # of connection points: 6
#     Node 50, Type 0, BuildingBlock: BETDEL_clean_sbu_0, # of connection points: 6
#     Node 51, Type 0, BuildingBlock: BETDEL_clean_sbu_0, # of connection points: 6
#     Node 52, Type 0, BuildingBlock: BETDEL_clean_sbu_0, # of connection points: 6
#     Node 53, Type 0, BuildingBlock: BETDEL_clean_sbu_0, # of connection points: 6
#     Node 54, Type 0, BuildingBlock: BETDEL_clean_sbu_0, # of connection points: 6
#     Node 55, Type 0, BuildingBlock: BETDEL_clean_sbu_0, # of connection points: 6
#     Node 56, Type 0, BuildingBlock: BETDEL_clean_sbu_0, # of connection points: 6
#     Node 57, Type 0, BuildingBlock: BETDEL_clean_sbu_0, # of connection points: 6
#     Node 58, Type 0, BuildingBlock: BETDEL_clean_sbu_0, # of connection points: 6
#     Node 59, Type 0, BuildingBlock: BETDEL_clean_sbu_0, # of connection points: 6
#     Node 60, Type 0, BuildingBlock: BETDEL_clean_sbu_0, # of connection points: 6
#     Node 61, Type 0, BuildingBlock: BETDEL_clean_sbu_0, # of connection points: 6
#     Node 62, Type 0, BuildingBlock: BETDEL_clean_sbu_0, # of connection points: 6
#     Node 63, Type 0, BuildingBlock: BETDEL_clean_sbu_0, # of connection points: 6
#     Node 64, Type 0, BuildingBlock: BETDEL_clean_sbu_0, # of connection points: 6
#     Node 65, Type 0, BuildingBlock: BETDEL_clean_sbu_0, # of connection points: 6
#     Node 66, Type 0, BuildingBlock: BETDEL_clean_sbu_0, # of connection points: 6
#     Node 67, Type 0, BuildingBlock: BETDEL_clean_sbu_0, # of connection points: 6
#     Node 68, Type 0, BuildingBlock: BETDEL_clean_sbu_0, # of connection points: 6
#     Node 69, Type 0, BuildingBlock: BETDEL_clean_sbu_0, # of connection points: 6
#     Node 70, Type 0, BuildingBlock: BETDEL_clean_sbu_0, # of connection points: 6
#     Node 71, Type 0, BuildingBlock: BETDEL_clean_sbu_0, # of connection points: 6
#     Node 72, Type 0, BuildingBlock: BETDEL_clean_sbu_0, # of connection points: 6
#     Node 73, Type 0, BuildingBlock: BETDEL_clean_sbu_0, # of connection points: 6
#     Node 74, Type 0, BuildingBlock: BETDEL_clean_sbu_0, # of connection points: 6
#     Node 75, Type 0, BuildingBlock: BETDEL_clean_sbu_0, # of connection points: 6
#     Node 76, Type 0, BuildingBlock: BETDEL_clean_sbu_0, # of connection points: 6
#     Node 77, Type 0, BuildingBlock: BETDEL_clean_sbu_0, # of connection points: 6
#     Node 78, Type 0, BuildingBlock: BETDEL_clean_sbu_0, # of connection points: 6
#     Node 79, Type 0, BuildingBlock: BETDEL_clean_sbu_0, # of connection points: 6
#     Node 80, Type 0, BuildingBlock: BETDEL_clean_sbu_0, # of connection points: 6
#     Node 81, Type 0, BuildingBlock: BETDEL_clean_sbu_0, # of connection points: 6
#     Node 82, Type 0, BuildingBlock: BETDEL_clean_sbu_0, # of connection points: 6
#     Node 83, Type 0, BuildingBlock: BETDEL_clean_sbu_0, # of connection points: 6
#     Node 84, Type 0, BuildingBlock: BETDEL_clean_sbu_0, # of connection points: 6
#     Node 85, Type 0, BuildingBlock: BETDEL_clean_sbu_0, # of connection points: 6
#     Node 86, Type 0, BuildingBlock: BETDEL_clean_sbu_0, # of connection points: 6
#     Node 87, Type 0, BuildingBlock: BETDEL_clean_sbu_0, # of connection points: 6
#     Node 88, Type 0, BuildingBlock: BETDEL_clean_sbu_0, # of connection points: 6
#     Node 89, Type 0, BuildingBlock: BETDEL_clean_sbu_0, # of connection points: 6
#     Node 90, Type 0, BuildingBlock: BETDEL_clean_sbu_0, # of connection points: 6
#     Node 91, Type 0, BuildingBlock: BETDEL_clean_sbu_0, # of connection points: 6
#     Node 92, Type 0, BuildingBlock: BETDEL_clean_sbu_0, # of connection points: 6
#     Node 93, Type 0, BuildingBlock: BETDEL_clean_sbu_0, # of connection points: 6
#     Node 94, Type 0, BuildingBlock: BETDEL_clean_sbu_0, # of connection points: 6
#     Node 95, Type 0, BuildingBlock: BETDEL_clean_sbu_0, # of connection points: 6
#     Edge 96, Type (0, 0), BuildingBlock: AJUNOK_clean_linker_0, # of connection points: 2
#     Edge 97, Type (0, 0), BuildingBlock: AJUNOK_clean_linker_0, # of connection points: 2
#     Edge 98, Type (0, 0), BuildingBlock: AJUNOK_clean_linker_0, # of connection points: 2
#     Edge 99, Type (0, 0), BuildingBlock: AJUNOK_clean_linker_0, # of connection points: 2
#     Edge 100, Type (0, 0), BuildingBlock: AJUNOK_clean_linker_0, # of connection points: 2
#     Edge 101, Type (0, 0), BuildingBlock: AJUNOK_clean_linker_0, # of connection points: 2
#     Edge 102, Type (0, 0), BuildingBlock: AJUNOK_clean_linker_0, # of connection points: 2
#     Edge 103, Type (0, 0), BuildingBlock: AJUNOK_clean_linker_0, # of connection points: 2
#     Edge 104, Type (0, 0), BuildingBlock: AJUNOK_clean_linker_0, # of connection points: 2
#     Edge 105, Type (0, 0), BuildingBlock: AJUNOK_clean_linker_0, # of connection points: 2
#     Edge 106, Type (0, 0), BuildingBlock: AJUNOK_clean_linker_0, # of connection points: 2
#     Edge 107, Type (0, 0), BuildingBlock: AJUNOK_clean_linker_0, # of connection points: 2
#     Edge 108, Type (0, 0), BuildingBlock: AJUNOK_clean_linker_0, # of connection points: 2
#     Edge 109, Type (0, 0), BuildingBlock: AJUNOK_clean_linker_0, # of connection points: 2
#     Edge 110, Type (0, 0), BuildingBlock: AJUNOK_clean_linker_0, # of connection points: 2
#     Edge 111, Type (0, 0), BuildingBlock: AJUNOK_clean_linker_0, # of connection points: 2
#     Edge 112, Type (0, 0), BuildingBlock: AJUNOK_clean_linker_0, # of connection points: 2
#     Edge 113, Type (0, 0), BuildingBlock: AJUNOK_clean_linker_0, # of connection points: 2
#     Edge 114, Type (0, 0), BuildingBlock: AJUNOK_clean_linker_0, # of connection points: 2
#     Edge 115, Type (0, 0), BuildingBlock: AJUNOK_clean_linker_0, # of connection points: 2
#     Edge 116, Type (0, 0), BuildingBlock: AJUNOK_clean_linker_0, # of connection points: 2
#     Edge 117, Type (0, 0), BuildingBlock: AJUNOK_clean_linker_0, # of connection points: 2
#     Edge 118, Type (0, 0), BuildingBlock: AJUNOK_clean_linker_0, # of connection points: 2
#     Edge 119, Type (0, 0), BuildingBlock: AJUNOK_clean_linker_0, # of connection points: 2
#     Edge 120, Type (0, 0), BuildingBlock: AJUNOK_clean_linker_0, # of connection points: 2
#     Edge 121, Type (0, 0), BuildingBlock: AJUNOK_clean_linker_0, # of connection points: 2
#     Edge 122, Type (0, 0), BuildingBlock: AJUNOK_clean_linker_0, # of connection points: 2
#     Edge 123, Type (0, 0), BuildingBlock: AJUNOK_clean_linker_0, # of connection points: 2
#     Edge 124, Type (0, 0), BuildingBlock: AJUNOK_clean_linker_0, # of connection points: 2
#     Edge 125, Type (0, 0), BuildingBlock: AJUNOK_clean_linker_0, # of connection points: 2
#     Edge 126, Type (0, 0), BuildingBlock: AJUNOK_clean_linker_0, # of connection points: 2
#     Edge 127, Type (0, 0), BuildingBlock: AJUNOK_clean_linker_0, # of connection points: 2
#     Edge 128, Type (0, 0), BuildingBlock: AJUNOK_clean_linker_0, # of connection points: 2
#     Edge 129, Type (0, 0), BuildingBlock: AJUNOK_clean_linker_0, # of connection points: 2
#     Edge 130, Type (0, 0), BuildingBlock: AJUNOK_clean_linker_0, # of connection points: 2
#     Edge 131, Type (0, 0), BuildingBlock: AJUNOK_clean_linker_0, # of connection points: 2
#     Edge 132, Type (0, 0), BuildingBlock: AJUNOK_clean_linker_0, # of connection points: 2
#     Edge 133, Type (0, 0), BuildingBlock: AJUNOK_clean_linker_0, # of connection points: 2
#     Edge 134, Type (0, 0), BuildingBlock: AJUNOK_clean_linker_0, # of connection points: 2
#     Edge 135, Type (0, 0), BuildingBlock: AJUNOK_clean_linker_0, # of connection points: 2
#     Edge 136, Type (0, 0), BuildingBlock: AJUNOK_clean_linker_0, # of connection points: 2
#     Edge 137, Type (0, 0), BuildingBlock: AJUNOK_clean_linker_0, # of connection points: 2
#     Edge 138, Type (0, 0), BuildingBlock: AJUNOK_clean_linker_0, # of connection points: 2
#     Edge 139, Type (0, 0), BuildingBlock: AJUNOK_clean_linker_0, # of connection points: 2
#     Edge 140, Type (0, 0), BuildingBlock: AJUNOK_clean_linker_0, # of connection points: 2
#     Edge 141, Type (0, 0), BuildingBlock: AJUNOK_clean_linker_0, # of connection points: 2
#     Edge 142, Type (0, 0), BuildingBlock: AJUNOK_clean_linker_0, # of connection points: 2
#     Edge 143, Type (0, 0), BuildingBlock: AJUNOK_clean_linker_0, # of connection points: 2
#     Edge 144, Type (0, 0), BuildingBlock: AJUNOK_clean_linker_0, # of connection points: 2
#     Edge 145, Type (0, 0), BuildingBlock: AJUNOK_clean_linker_0, # of connection points: 2
#     Edge 146, Type (0, 0), BuildingBlock: AJUNOK_clean_linker_0, # of connection points: 2
#     Edge 147, Type (0, 0), BuildingBlock: AJUNOK_clean_linker_0, # of connection points: 2
#     Edge 148, Type (0, 0), BuildingBlock: AJUNOK_clean_linker_0, # of connection points: 2
#     Edge 149, Type (0, 0), BuildingBlock: AJUNOK_clean_linker_0, # of connection points: 2
#     Edge 150, Type (0, 0), BuildingBlock: AJUNOK_clean_linker_0, # of connection points: 2
#     Edge 151, Type (0, 0), BuildingBlock: AJUNOK_clean_linker_0, # of connection points: 2
#     Edge 152, Type (0, 0), BuildingBlock: AJUNOK_clean_linker_0, # of connection points: 2
#     Edge 153, Type (0, 0), BuildingBlock: AJUNOK_clean_linker_0, # of connection points: 2
#     Edge 154, Type (0, 0), BuildingBlock: AJUNOK_clean_linker_0, # of connection points: 2
#     Edge 155, Type (0, 0), BuildingBlock: AJUNOK_clean_linker_0, # of connection points: 2
#     Edge 156, Type (0, 0), BuildingBlock: AJUNOK_clean_linker_0, # of connection points: 2
#     Edge 157, Type (0, 0), BuildingBlock: AJUNOK_clean_linker_0, # of connection points: 2
#     Edge 158, Type (0, 0), BuildingBlock: AJUNOK_clean_linker_0, # of connection points: 2
#     Edge 159, Type (0, 0), BuildingBlock: AJUNOK_clean_linker_0, # of connection points: 2
#     Edge 160, Type (0, 0), BuildingBlock: AJUNOK_clean_linker_0, # of connection points: 2
#     Edge 161, Type (0, 0), BuildingBlock: AJUNOK_clean_linker_0, # of connection points: 2
#     Edge 162, Type (0, 0), BuildingBlock: AJUNOK_clean_linker_0, # of connection points: 2
#     Edge 163, Type (0, 0), BuildingBlock: AJUNOK_clean_linker_0, # of connection points: 2
#     Edge 164, Type (0, 0), BuildingBlock: AJUNOK_clean_linker_0, # of connection points: 2
#     Edge 165, Type (0, 0), BuildingBlock: AJUNOK_clean_linker_0, # of connection points: 2
#     Edge 166, Type (0, 0), BuildingBlock: AJUNOK_clean_linker_0, # of connection points: 2
#     Edge 167, Type (0, 0), BuildingBlock: AJUNOK_clean_linker_0, # of connection points: 2
#     Edge 168, Type (0, 0), BuildingBlock: AJUNOK_clean_linker_0, # of connection points: 2
#     Edge 169, Type (0, 0), BuildingBlock: AJUNOK_clean_linker_0, # of connection points: 2
#     Edge 170, Type (0, 0), BuildingBlock: AJUNOK_clean_linker_0, # of connection points: 2
#     Edge 171, Type (0, 0), BuildingBlock: AJUNOK_clean_linker_0, # of connection points: 2
#     Edge 172, Type (0, 0), BuildingBlock: AJUNOK_clean_linker_0, # of connection points: 2
#     Edge 173, Type (0, 0), BuildingBlock: AJUNOK_clean_linker_0, # of connection points: 2
#     Edge 174, Type (0, 0), BuildingBlock: AJUNOK_clean_linker_0, # of connection points: 2
#     Edge 175, Type (0, 0), BuildingBlock: AJUNOK_clean_linker_0, # of connection points: 2
#     Edge 176, Type (0, 0), BuildingBlock: AJUNOK_clean_linker_0, # of connection points: 2
#     Edge 177, Type (0, 0), BuildingBlock: AJUNOK_clean_linker_0, # of connection points: 2
#     Edge 178, Type (0, 0), BuildingBlock: AJUNOK_clean_linker_0, # of connection points: 2
#     Edge 179, Type (0, 0), BuildingBlock: AJUNOK_clean_linker_0, # of connection points: 2
#     Edge 180, Type (0, 0), BuildingBlock: AJUNOK_clean_linker_0, # of connection points: 2
#     Edge 181, Type (0, 0), BuildingBlock: AJUNOK_clean_linker_0, # of connection points: 2
#     Edge 182, Type (0, 0), BuildingBlock: AJUNOK_clean_linker_0, # of connection points: 2
#     Edge 183, Type (0, 0), BuildingBlock: AJUNOK_clean_linker_0, # of connection points: 2
#     Edge 184, Type (0, 0), BuildingBlock: AJUNOK_clean_linker_0, # of connection points: 2
#     Edge 185, Type (0, 0), BuildingBlock: AJUNOK_clean_linker_0, # of connection points: 2
#     Edge 186, Type (0, 0), BuildingBlock: AJUNOK_clean_linker_0, # of connection points: 2
#     Edge 187, Type (0, 0), BuildingBlock: AJUNOK_clean_linker_0, # of connection points: 2
#     Edge 188, Type (0, 0), BuildingBlock: AJUNOK_clean_linker_0, # of connection points: 2
#     Edge 189, Type (0, 0), BuildingBlock: AJUNOK_clean_linker_0, # of connection points: 2
#     Edge 190, Type (0, 0), BuildingBlock: AJUNOK_clean_linker_0, # of connection points: 2
#     Edge 191, Type (0, 0), BuildingBlock: AJUNOK_clean_linker_0, # of connection points: 2
#     Edge 192, Type (0, 0), BuildingBlock: AJUNOK_clean_linker_0, # of connection points: 2
#     Edge 193, Type (0, 0), BuildingBlock: AJUNOK_clean_linker_0, # of connection points: 2
#     Edge 194, Type (0, 0), BuildingBlock: AJUNOK_clean_linker_0, # of connection points: 2
#     Edge 195, Type (0, 0), BuildingBlock: AJUNOK_clean_linker_0, # of connection points: 2
#     Edge 196, Type (0, 0), BuildingBlock: AJUNOK_clean_linker_0, # of connection points: 2
#     Edge 197, Type (0, 0), BuildingBlock: AJUNOK_clean_linker_0, # of connection points: 2
#     Edge 198, Type (0, 0), BuildingBlock: AJUNOK_clean_linker_0, # of connection points: 2
#     Edge 199, Type (0, 0), BuildingBlock: AJUNOK_clean_linker_0, # of connection points: 2
#     Edge 200, Type (0, 0), BuildingBlock: AJUNOK_clean_linker_0, # of connection points: 2
#     Edge 201, Type (0, 0), BuildingBlock: AJUNOK_clean_linker_0, # of connection points: 2
#     Edge 202, Type (0, 0), BuildingBlock: AJUNOK_clean_linker_0, # of connection points: 2
#     Edge 203, Type (0, 0), BuildingBlock: AJUNOK_clean_linker_0, # of connection points: 2
#     Edge 204, Type (0, 0), BuildingBlock: AJUNOK_clean_linker_0, # of connection points: 2
#     Edge 205, Type (0, 0), BuildingBlock: AJUNOK_clean_linker_0, # of connection points: 2
#     Edge 206, Type (0, 0), BuildingBlock: AJUNOK_clean_linker_0, # of connection points: 2
#     Edge 207, Type (0, 0), BuildingBlock: AJUNOK_clean_linker_0, # of connection points: 2
#     Edge 208, Type (0, 0), BuildingBlock: AJUNOK_clean_linker_0, # of connection points: 2
#     Edge 209, Type (0, 0), BuildingBlock: AJUNOK_clean_linker_0, # of connection points: 2
#     Edge 210, Type (0, 0), BuildingBlock: AJUNOK_clean_linker_0, # of connection points: 2
#     Edge 211, Type (0, 0), BuildingBlock: AJUNOK_clean_linker_0, # of connection points: 2
#     Edge 212, Type (0, 0), BuildingBlock: AJUNOK_clean_linker_0, # of connection points: 2
#     Edge 213, Type (0, 0), BuildingBlock: AJUNOK_clean_linker_0, # of connection points: 2
#     Edge 214, Type (0, 0), BuildingBlock: AJUNOK_clean_linker_0, # of connection points: 2
#     Edge 215, Type (0, 0), BuildingBlock: AJUNOK_clean_linker_0, # of connection points: 2
#     Edge 216, Type (0, 0), BuildingBlock: AJUNOK_clean_linker_0, # of connection points: 2
#     Edge 217, Type (0, 0), BuildingBlock: AJUNOK_clean_linker_0, # of connection points: 2
#     Edge 218, Type (0, 0), BuildingBlock: AJUNOK_clean_linker_0, # of connection points: 2
#     Edge 219, Type (0, 0), BuildingBlock: AJUNOK_clean_linker_0, # of connection points: 2
#     Edge 220, Type (0, 0), BuildingBlock: AJUNOK_clean_linker_0, # of connection points: 2
#     Edge 221, Type (0, 0), BuildingBlock: AJUNOK_clean_linker_0, # of connection points: 2
#     Edge 222, Type (0, 0), BuildingBlock: AJUNOK_clean_linker_0, # of connection points: 2
#     Edge 223, Type (0, 0), BuildingBlock: AJUNOK_clean_linker_0, # of connection points: 2
#     Edge 224, Type (0, 0), BuildingBlock: AJUNOK_clean_linker_0, # of connection points: 2
#     Edge 225, Type (0, 0), BuildingBlock: AJUNOK_clean_linker_0, # of connection points: 2
#     Edge 226, Type (0, 0), BuildingBlock: AJUNOK_clean_linker_0, # of connection points: 2
#     Edge 227, Type (0, 0), BuildingBlock: AJUNOK_clean_linker_0, # of connection points: 2
#     Edge 228, Type (0, 0), BuildingBlock: AJUNOK_clean_linker_0, # of connection points: 2
#     Edge 229, Type (0, 0), BuildingBlock: AJUNOK_clean_linker_0, # of connection points: 2
#     Edge 230, Type (0, 0), BuildingBlock: AJUNOK_clean_linker_0, # of connection points: 2
#     Edge 231, Type (0, 0), BuildingBlock: AJUNOK_clean_linker_0, # of connection points: 2
#     Edge 232, Type (0, 0), BuildingBlock: AJUNOK_clean_linker_0, # of connection points: 2
#     Edge 233, Type (0, 0), BuildingBlock: AJUNOK_clean_linker_0, # of connection points: 2
#     Edge 234, Type (0, 0), BuildingBlock: AJUNOK_clean_linker_0, # of connection points: 2
#     Edge 235, Type (0, 0), BuildingBlock: AJUNOK_clean_linker_0, # of connection points: 2
#     Edge 236, Type (0, 0), BuildingBlock: AJUNOK_clean_linker_0, # of connection points: 2
#     Edge 237, Type (0, 0), BuildingBlock: AJUNOK_clean_linker_0, # of connection points: 2
#     Edge 238, Type (0, 0), BuildingBlock: AJUNOK_clean_linker_0, # of connection points: 2
#     Edge 239, Type (0, 0), BuildingBlock: AJUNOK_clean_linker_0, # of connection points: 2
#     Edge 240, Type (0, 0), BuildingBlock: AJUNOK_clean_linker_0, # of connection points: 2
#     Edge 241, Type (0, 0), BuildingBlock: AJUNOK_clean_linker_0, # of connection points: 2
#     Edge 242, Type (0, 0), BuildingBlock: AJUNOK_clean_linker_0, # of connection points: 2
#     Edge 243, Type (0, 0), BuildingBlock: AJUNOK_clean_linker_0, # of connection points: 2
#     Edge 244, Type (0, 0), BuildingBlock: AJUNOK_clean_linker_0, # of connection points: 2
#     Edge 245, Type (0, 0), BuildingBlock: AJUNOK_clean_linker_0, # of connection points: 2
#     Edge 246, Type (0, 0), BuildingBlock: AJUNOK_clean_linker_0, # of connection points: 2
#     Edge 247, Type (0, 0), BuildingBlock: AJUNOK_clean_linker_0, # of connection points: 2
#     Edge 248, Type (0, 0), BuildingBlock: AJUNOK_clean_linker_0, # of connection points: 2
#     Edge 249, Type (0, 0), BuildingBlock: AJUNOK_clean_linker_0, # of connection points: 2
#     Edge 250, Type (0, 0), BuildingBlock: AJUNOK_clean_linker_0, # of connection points: 2
#     Edge 251, Type (0, 0), BuildingBlock: AJUNOK_clean_linker_0, # of connection points: 2
#     Edge 252, Type (0, 0), BuildingBlock: AJUNOK_clean_linker_0, # of connection points: 2
#     Edge 253, Type (0, 0), BuildingBlock: AJUNOK_clean_linker_0, # of connection points: 2
#     Edge 254, Type (0, 0), BuildingBlock: AJUNOK_clean_linker_0, # of connection points: 2
#     Edge 255, Type (0, 0), BuildingBlock: AJUNOK_clean_linker_0, # of connection points: 2
#     Edge 256, Type (0, 0), BuildingBlock: AJUNOK_clean_linker_0, # of connection points: 2
#     Edge 257, Type (0, 0), BuildingBlock: AJUNOK_clean_linker_0, # of connection points: 2
#     Edge 258, Type (0, 0), BuildingBlock: AJUNOK_clean_linker_0, # of connection points: 2
#     Edge 259, Type (0, 0), BuildingBlock: AJUNOK_clean_linker_0, # of connection points: 2
#     Edge 260, Type (0, 0), BuildingBlock: AJUNOK_clean_linker_0, # of connection points: 2
#     Edge 261, Type (0, 0), BuildingBlock: AJUNOK_clean_linker_0, # of connection points: 2
#     Edge 262, Type (0, 0), BuildingBlock: AJUNOK_clean_linker_0, # of connection points: 2
#     Edge 263, Type (0, 0), BuildingBlock: AJUNOK_clean_linker_0, # of connection points: 2
#     Edge 264, Type (0, 0), BuildingBlock: AJUNOK_clean_linker_0, # of connection points: 2
#     Edge 265, Type (0, 0), BuildingBlock: AJUNOK_clean_linker_0, # of connection points: 2
#     Edge 266, Type (0, 0), BuildingBlock: AJUNOK_clean_linker_0, # of connection points: 2
#     Edge 267, Type (0, 0), BuildingBlock: AJUNOK_clean_linker_0, # of connection points: 2
#     Edge 268, Type (0, 0), BuildingBlock: AJUNOK_clean_linker_0, # of connection points: 2
#     Edge 269, Type (0, 0), BuildingBlock: AJUNOK_clean_linker_0, # of connection points: 2
#     Edge 270, Type (0, 0), BuildingBlock: AJUNOK_clean_linker_0, # of connection points: 2
#     Edge 271, Type (0, 0), BuildingBlock: AJUNOK_clean_linker_0, # of connection points: 2
#     Edge 272, Type (0, 0), BuildingBlock: AJUNOK_clean_linker_0, # of connection points: 2
#     Edge 273, Type (0, 0), BuildingBlock: AJUNOK_clean_linker_0, # of connection points: 2
#     Edge 274, Type (0, 0), BuildingBlock: AJUNOK_clean_linker_0, # of connection points: 2
#     Edge 275, Type (0, 0), BuildingBlock: AJUNOK_clean_linker_0, # of connection points: 2
#     Edge 276, Type (0, 0), BuildingBlock: AJUNOK_clean_linker_0, # of connection points: 2
#     Edge 277, Type (0, 0), BuildingBlock: AJUNOK_clean_linker_0, # of connection points: 2
#     Edge 278, Type (0, 0), BuildingBlock: AJUNOK_clean_linker_0, # of connection points: 2
#     Edge 279, Type (0, 0), BuildingBlock: AJUNOK_clean_linker_0, # of connection points: 2
#     Edge 280, Type (0, 0), BuildingBlock: AJUNOK_clean_linker_0, # of connection points: 2
#     Edge 281, Type (0, 0), BuildingBlock: AJUNOK_clean_linker_0, # of connection points: 2
#     Edge 282, Type (0, 0), BuildingBlock: AJUNOK_clean_linker_0, # of connection points: 2
#     Edge 283, Type (0, 0), BuildingBlock: AJUNOK_clean_linker_0, # of connection points: 2
#     Edge 284, Type (0, 0), BuildingBlock: AJUNOK_clean_linker_0, # of connection points: 2
#     Edge 285, Type (0, 0), BuildingBlock: AJUNOK_clean_linker_0, # of connection points: 2
#     Edge 286, Type (0, 0), BuildingBlock: AJUNOK_clean_linker_0, # of connection points: 2
#     Edge 287, Type (0, 0), BuildingBlock: AJUNOK_clean_linker_0, # of connection points: 2
#     Edge 288, Type (0, 0), BuildingBlock: AJUNOK_clean_linker_0, # of connection points: 2
#     Edge 289, Type (0, 0), BuildingBlock: AJUNOK_clean_linker_0, # of connection points: 2
#     Edge 290, Type (0, 0), BuildingBlock: AJUNOK_clean_linker_0, # of connection points: 2
#     Edge 291, Type (0, 0), BuildingBlock: AJUNOK_clean_linker_0, # of connection points: 2
#     Edge 292, Type (0, 0), BuildingBlock: AJUNOK_clean_linker_0, # of connection points: 2
#     Edge 293, Type (0, 0), BuildingBlock: AJUNOK_clean_linker_0, # of connection points: 2
#     Edge 294, Type (0, 0), BuildingBlock: AJUNOK_clean_linker_0, # of connection points: 2
#     Edge 295, Type (0, 0), BuildingBlock: AJUNOK_clean_linker_0, # of connection points: 2
#     Edge 296, Type (0, 0), BuildingBlock: AJUNOK_clean_linker_0, # of connection points: 2
#     Edge 297, Type (0, 0), BuildingBlock: AJUNOK_clean_linker_0, # of connection points: 2
#     Edge 298, Type (0, 0), BuildingBlock: AJUNOK_clean_linker_0, # of connection points: 2
#     Edge 299, Type (0, 0), BuildingBlock: AJUNOK_clean_linker_0, # of connection points: 2
#     Edge 300, Type (0, 0), BuildingBlock: AJUNOK_clean_linker_0, # of connection points: 2
#     Edge 301, Type (0, 0), BuildingBlock: AJUNOK_clean_linker_0, # of connection points: 2
#     Edge 302, Type (0, 0), BuildingBlock: AJUNOK_clean_linker_0, # of connection points: 2
#     Edge 303, Type (0, 0), BuildingBlock: AJUNOK_clean_linker_0, # of connection points: 2
#     Edge 304, Type (0, 0), BuildingBlock: AJUNOK_clean_linker_0, # of connection points: 2
#     Edge 305, Type (0, 0), BuildingBlock: AJUNOK_clean_linker_0, # of connection points: 2
#     Edge 306, Type (0, 0), BuildingBlock: AJUNOK_clean_linker_0, # of connection points: 2
#     Edge 307, Type (0, 0), BuildingBlock: AJUNOK_clean_linker_0, # of connection points: 2
#     Edge 308, Type (0, 0), BuildingBlock: AJUNOK_clean_linker_0, # of connection points: 2
#     Edge 309, Type (0, 0), BuildingBlock: AJUNOK_clean_linker_0, # of connection points: 2
#     Edge 310, Type (0, 0), BuildingBlock: AJUNOK_clean_linker_0, # of connection points: 2
#     Edge 311, Type (0, 0), BuildingBlock: AJUNOK_clean_linker_0, # of connection points: 2
#     Edge 312, Type (0, 0), BuildingBlock: AJUNOK_clean_linker_0, # of connection points: 2
#     Edge 313, Type (0, 0), BuildingBlock: AJUNOK_clean_linker_0, # of connection points: 2
#     Edge 314, Type (0, 0), BuildingBlock: AJUNOK_clean_linker_0, # of connection points: 2
#     Edge 315, Type (0, 0), BuildingBlock: AJUNOK_clean_linker_0, # of connection points: 2
#     Edge 316, Type (0, 0), BuildingBlock: AJUNOK_clean_linker_0, # of connection points: 2
#     Edge 317, Type (0, 0), BuildingBlock: AJUNOK_clean_linker_0, # of connection points: 2
#     Edge 318, Type (0, 0), BuildingBlock: AJUNOK_clean_linker_0, # of connection points: 2
#     Edge 319, Type (0, 0), BuildingBlock: AJUNOK_clean_linker_0, # of connection points: 2
#     Edge 320, Type (0, 0), BuildingBlock: AJUNOK_clean_linker_0, # of connection points: 2
#     Edge 321, Type (0, 0), BuildingBlock: AJUNOK_clean_linker_0, # of connection points: 2
#     Edge 322, Type (0, 0), BuildingBlock: AJUNOK_clean_linker_0, # of connection points: 2
#     Edge 323, Type (0, 0), BuildingBlock: AJUNOK_clean_linker_0, # of connection points: 2
#     Edge 324, Type (0, 0), BuildingBlock: AJUNOK_clean_linker_0, # of connection points: 2
#     Edge 325, Type (0, 0), BuildingBlock: AJUNOK_clean_linker_0, # of connection points: 2
#     Edge 326, Type (0, 0), BuildingBlock: AJUNOK_clean_linker_0, # of connection points: 2
#     Edge 327, Type (0, 0), BuildingBlock: AJUNOK_clean_linker_0, # of connection points: 2
#     Edge 328, Type (0, 0), BuildingBlock: AJUNOK_clean_linker_0, # of connection points: 2
#     Edge 329, Type (0, 0), BuildingBlock: AJUNOK_clean_linker_0, # of connection points: 2
#     Edge 330, Type (0, 0), BuildingBlock: AJUNOK_clean_linker_0, # of connection points: 2
#     Edge 331, Type (0, 0), BuildingBlock: AJUNOK_clean_linker_0, # of connection points: 2
#     Edge 332, Type (0, 0), BuildingBlock: AJUNOK_clean_linker_0, # of connection points: 2
#     Edge 333, Type (0, 0), BuildingBlock: AJUNOK_clean_linker_0, # of connection points: 2
#     Edge 334, Type (0, 0), BuildingBlock: AJUNOK_clean_linker_0, # of connection points: 2
#     Edge 335, Type (0, 0), BuildingBlock: AJUNOK_clean_linker_0, # of connection points: 2
#     Edge 336, Type (0, 0), BuildingBlock: AJUNOK_clean_linker_0, # of connection points: 2
#     Edge 337, Type (0, 0), BuildingBlock: AJUNOK_clean_linker_0, # of connection points: 2
#     Edge 338, Type (0, 0), BuildingBlock: AJUNOK_clean_linker_0, # of connection points: 2
#     Edge 339, Type (0, 0), BuildingBlock: AJUNOK_clean_linker_0, # of connection points: 2
#     Edge 340, Type (0, 0), BuildingBlock: AJUNOK_clean_linker_0, # of connection points: 2
#     Edge 341, Type (0, 0), BuildingBlock: AJUNOK_clean_linker_0, # of connection points: 2
#     Edge 342, Type (0, 0), BuildingBlock: AJUNOK_clean_linker_0, # of connection points: 2
#     Edge 343, Type (0, 0), BuildingBlock: AJUNOK_clean_linker_0, # of connection points: 2
#     Edge 344, Type (0, 0), BuildingBlock: AJUNOK_clean_linker_0, # of connection points: 2
#     Edge 345, Type (0, 0), BuildingBlock: AJUNOK_clean_linker_0, # of connection points: 2
#     Edge 346, Type (0, 0), BuildingBlock: AJUNOK_clean_linker_0, # of connection points: 2
#     Edge 347, Type (0, 0), BuildingBlock: AJUNOK_clean_linker_0, # of connection points: 2
#     Edge 348, Type (0, 0), BuildingBlock: AJUNOK_clean_linker_0, # of connection points: 2
#     Edge 349, Type (0, 0), BuildingBlock: AJUNOK_clean_linker_0, # of connection points: 2
#     Edge 350, Type (0, 0), BuildingBlock: AJUNOK_clean_linker_0, # of connection points: 2
#     Edge 351, Type (0, 0), BuildingBlock: AJUNOK_clean_linker_0, # of connection points: 2
#     Edge 352, Type (0, 0), BuildingBlock: AJUNOK_clean_linker_0, # of connection points: 2
#     Edge 353, Type (0, 0), BuildingBlock: AJUNOK_clean_linker_0, # of connection points: 2
#     Edge 354, Type (0, 0), BuildingBlock: AJUNOK_clean_linker_0, # of connection points: 2
#     Edge 355, Type (0, 0), BuildingBlock: AJUNOK_clean_linker_0, # of connection points: 2
#     Edge 356, Type (0, 0), BuildingBlock: AJUNOK_clean_linker_0, # of connection points: 2
#     Edge 357, Type (0, 0), BuildingBlock: AJUNOK_clean_linker_0, # of connection points: 2
#     Edge 358, Type (0, 0), BuildingBlock: AJUNOK_clean_linker_0, # of connection points: 2
#     Edge 359, Type (0, 0), BuildingBlock: AJUNOK_clean_linker_0, # of connection points: 2
#     Edge 360, Type (0, 0), BuildingBlock: AJUNOK_clean_linker_0, # of connection points: 2
#     Edge 361, Type (0, 0), BuildingBlock: AJUNOK_clean_linker_0, # of connection points: 2
#     Edge 362, Type (0, 0), BuildingBlock: AJUNOK_clean_linker_0, # of connection points: 2
#     Edge 363, Type (0, 0), BuildingBlock: AJUNOK_clean_linker_0, # of connection points: 2
#     Edge 364, Type (0, 0), BuildingBlock: AJUNOK_clean_linker_0, # of connection points: 2
#     Edge 365, Type (0, 0), BuildingBlock: AJUNOK_clean_linker_0, # of connection points: 2
#     Edge 366, Type (0, 0), BuildingBlock: AJUNOK_clean_linker_0, # of connection points: 2
#     Edge 367, Type (0, 0), BuildingBlock: AJUNOK_clean_linker_0, # of connection points: 2
#     Edge 368, Type (0, 0), BuildingBlock: AJUNOK_clean_linker_0, # of connection points: 2
#     Edge 369, Type (0, 0), BuildingBlock: AJUNOK_clean_linker_0, # of connection points: 2
#     Edge 370, Type (0, 0), BuildingBlock: AJUNOK_clean_linker_0, # of connection points: 2
#     Edge 371, Type (0, 0), BuildingBlock: AJUNOK_clean_linker_0, # of connection points: 2
#     Edge 372, Type (0, 0), BuildingBlock: AJUNOK_clean_linker_0, # of connection points: 2
#     Edge 373, Type (0, 0), BuildingBlock: AJUNOK_clean_linker_0, # of connection points: 2
#     Edge 374, Type (0, 0), BuildingBlock: AJUNOK_clean_linker_0, # of connection points: 2
#     Edge 375, Type (0, 0), BuildingBlock: AJUNOK_clean_linker_0, # of connection points: 2
#     Edge 376, Type (0, 0), BuildingBlock: AJUNOK_clean_linker_0, # of connection points: 2
#     Edge 377, Type (0, 0), BuildingBlock: AJUNOK_clean_linker_0, # of connection points: 2
#     Edge 378, Type (0, 0), BuildingBlock: AJUNOK_clean_linker_0, # of connection points: 2
#     Edge 379, Type (0, 0), BuildingBlock: AJUNOK_clean_linker_0, # of connection points: 2
#     Edge 380, Type (0, 0), BuildingBlock: AJUNOK_clean_linker_0, # of connection points: 2
#     Edge 381, Type (0, 0), BuildingBlock: AJUNOK_clean_linker_0, # of connection points: 2
#     Edge 382, Type (0, 0), BuildingBlock: AJUNOK_clean_linker_0, # of connection points: 2
#     Edge 383, Type (0, 0), BuildingBlock: AJUNOK_clean_linker_0, # of connection points: 2
# Relax obj value: 0.398
# Max RMSD: 0.273
# Mean RMSD: 0.253
data_MOF--net-ana-e--node1-BETDEL_clean_sbu_0--edge1-AJUNOK_clean_linker_0
_symmetry_space_group_name_H-M    P1
_symmetry_Int_Tables_number       1
_symmetry_cell_setting            triclinic
loop_
_symmetry_equiv_pos_as_xyz
'x, y, z'
_cell_length_a     58.195253
_cell_length_b     59.13232
_cell_length_c     60.526927
_cell_angle_alpha  90.125927
_cell_angle_beta   90.900271
_cell_angle_gamma 89.259731
loop_
_atom_site_label
_atom_site_type_symbol
_atom_site_fract_x
_atom_site_fract_y
_atom_site_fract_z
_atom_type_partial_charge
Dy0 Dy 0.02272 0.09491 0.3655 0.0
C1 C 0.93951 0.13369 0.39933 0.0
C2 C 0.06498 0.08856 0.34752 0.0
Dy3 Dy 0.9822 0.11937 0.38803 0.0
O4 O 0.05418 0.07335 0.35876 0.0
O5 O 0.05266 0.10692 0.34627 0.0
O6 O 0.00181 0.0636 0.36115 0.0
O7 O 0.99608 0.08527 0.38828 0.0
C8 C 0.98877 0.06826 0.37795 0.0
C9 C 0.01612 0.14548 0.37475 0.0
O10 O 0.00153 0.10986 0.41855 0.0
O11 O 0.03605 0.10332 0.40056 0.0
O12 O 0.95863 0.14176 0.40713 0.0
O13 O 0.94401 0.11662 0.38653 0.0
O14 O 0.00393 0.15041 0.3919 0.0
O15 O 0.00825 0.12853 0.36505 0.0
O16 O 0.00044 0.10136 0.33483 0.0
O17 O 0.96899 0.11702 0.35291 0.0
C18 C 0.02418 0.10745 0.41897 0.0
C19 C 0.97921 0.11011 0.3346 0.0
Dy20 Dy 0.16859 0.79214 0.61546 0.0
C21 C 0.11215 0.71409 0.63605 0.0
C22 C 0.17788 0.83504 0.60191 0.0
Dy23 Dy 0.13769 0.75178 0.63064 0.0
O24 O 0.18998 0.82386 0.61669 0.0
O25 O 0.16132 0.82255 0.59455 0.0
O26 O 0.1993 0.76895 0.61244 0.0
O27 O 0.17324 0.76171 0.63491 0.0
C28 C 0.19111 0.75399 0.62602 0.0
C29 C 0.11687 0.79041 0.61919 0.0
O30 O 0.14519 0.76671 0.66358 0.0
O31 O 0.15636 0.80167 0.64967 0.0
O32 O 0.10799 0.7299 0.62171 0.0
O33 O 0.1306 0.71872 0.64757 0.0
O34 O 0.10935 0.77775 0.63491 0.0
O35 O 0.13382 0.78137 0.61027 0.0
O36 O 0.16185 0.77477 0.58328 0.0
O37 O 0.15173 0.74006 0.59826 0.0
C38 C 0.15009 0.78837 0.66624 0.0
C39 C 0.15723 0.75298 0.5813 0.0
Dy40 Dy 0.4892 0.87989 0.83457 0.0
C41 C 0.47285 0.8722 0.92492 0.0
C42 C 0.50527 0.88456 0.79263 0.0
Dy43 Dy 0.48188 0.88203 0.88223 0.0
O44 O 0.49367 0.86761 0.79986 0.0
O45 O 0.50633 0.89996 0.80804 0.0
O46 O 0.47936 0.84364 0.83315 0.0
O47 O 0.46305 0.86552 0.85546 0.0
C48 C 0.46459 0.84529 0.84896 0.0
C49 C 0.51269 0.91322 0.86887 0.0
O50 O 0.50831 0.8541 0.88223 0.0
O51 O 0.51977 0.8598 0.8465 0.0
O52 O 0.47727 0.89225 0.91756 0.0
O53 O 0.4735 0.85759 0.90897 0.0
O54 O 0.49703 0.91691 0.88353 0.0
O55 O 0.51042 0.89325 0.86186 0.0
O56 O 0.45577 0.90099 0.83443 0.0
O57 O 0.44799 0.89724 0.87159 0.0
C58 C 0.52237 0.84963 0.86583 0.0
C59 C 0.44163 0.90376 0.85147 0.0
Dy60 Dy 0.36234 0.22537 0.11043 0.0
C61 C 0.41576 0.30032 0.13816 0.0
C62 C 0.34363 0.18395 0.10097 0.0
Dy63 Dy 0.39285 0.26127 0.12986 0.0
O64 O 0.33566 0.19842 0.11517 0.0
O65 O 0.36147 0.19242 0.09156 0.0
O66 O 0.33518 0.25157 0.10115 0.0
O67 O 0.3561 0.25655 0.12903 0.0
C68 C 0.34114 0.26569 0.1167 0.0
C69 C 0.41335 0.22099 0.12795 0.0
O70 O 0.37551 0.25076 0.16057 0.0
O71 O 0.3673 0.21544 0.14639 0.0
O72 O 0.41839 0.2817 0.14925 0.0
O73 O 0.39972 0.29782 0.12327 0.0
O74 O 0.41823 0.2362 0.14263 0.0
O75 O 0.39981 0.2289 0.1132 0.0
O76 O 0.37434 0.23959 0.07794 0.0
O77 O 0.39538 0.26866 0.09368 0.0
C78 C 0.37023 0.22928 0.16349 0.0
C79 C 0.38742 0.25774 0.07613 0.0
Dy80 Dy 0.02062 0.8857 0.13524 0.0
C81 C 0.94027 0.84892 0.09022 0.0
C82 C 0.06211 0.89965 0.15126 0.0
Dy83 Dy 0.97944 0.86008 0.11204 0.0
O84 O 0.05226 0.88086 0.15664 0.0
O85 O 0.04925 0.91073 0.13715 0.0
O86 O 0.99677 0.91521 0.14153 0.0
O87 O 0.99153 0.89458 0.11374 0.0
C88 C 0.9833 0.91075 0.12474 0.0
C89 C 0.01105 0.83014 0.12746 0.0
O90 O 0.99957 0.86942 0.08251 0.0
O91 O 0.03355 0.88035 0.10032 0.0
O92 O 0.9609 0.8438 0.08388 0.0
O93 O 0.94123 0.86062 0.10844 0.0
O94 O 0.99198 0.82415 0.11791 0.0
O95 O 0.01109 0.85132 0.12876 0.0
O96 O 0.00026 0.87463 0.165 0.0
O97 O 0.96604 0.86627 0.14615 0.0
C98 C 0.02147 0.87516 0.08214 0.0
C99 C 0.978 0.86949 0.16473 0.0
Dy100 Dy 0.38289 0.7659 0.40729 0.0
C101 C 0.37615 0.7801 0.31574 0.0
C102 C 0.38278 0.74724 0.44897 0.0
Dy103 Dy 0.38192 0.76938 0.35901 0.0
O104 O 0.40063 0.75479 0.43893 0.0
O105 O 0.36466 0.75091 0.43653 0.0
O106 O 0.40372 0.79758 0.41168 0.0
O107 O 0.40804 0.77773 0.38333 0.0
C108 C 0.41307 0.7963 0.39233 0.0
C109 C 0.35755 0.73421 0.37246 0.0
O110 O 0.4127 0.74624 0.36161 0.0
O111 O 0.40262 0.73509 0.39655 0.0
O112 O 0.36038 0.78163 0.33054 0.0
O113 O 0.39535 0.77292 0.3246 0.0
O114 O 0.36929 0.73492 0.35463 0.0
O115 O 0.3575 0.75348 0.38222 0.0
O116 O 0.36073 0.79755 0.40577 0.0
O117 O 0.36923 0.80417 0.36923 0.0
C118 C 0.41522 0.73247 0.37873 0.0
C119 C 0.36038 0.81103 0.3882 0.0
Dy120 Dy 0.48484 0.1179 0.66871 0.0
C121 C 0.45247 0.11959 0.57998 0.0
C122 C 0.50724 0.11674 0.70846 0.0
Dy123 Dy 0.47063 0.11818 0.62128 0.0
O124 O 0.49749 0.13441 0.69967 0.0
O125 O 0.50494 0.09937 0.69536 0.0
O126 O 0.45367 0.13605 0.68007 0.0
O127 O 0.46621 0.14242 0.64809 0.0
C128 C 0.44971 0.14582 0.66122 0.0
C129 C 0.50703 0.09166 0.62901 0.0
O130 O 0.49454 0.14693 0.61985 0.0
O131 O 0.51321 0.13793 0.65269 0.0
O132 O 0.451 0.10244 0.59318 0.0
O133 O 0.4635 0.1359 0.58947 0.0
O134 O 0.50297 0.10225 0.61077 0.0
O135 O 0.49011 0.09333 0.64194 0.0
O136 O 0.45257 0.09653 0.67107 0.0
O137 O 0.43878 0.10526 0.63591 0.0
C138 C 0.51217 0.14896 0.6336 0.0
C139 C 0.43584 0.09658 0.65571 0.0
Dy140 Dy 0.15906 0.22083 0.89982 0.0
C141 C 0.13 0.30845 0.86818 0.0
C142 C 0.16807 0.17765 0.91406 0.0
Dy143 Dy 0.1393 0.26473 0.87853 0.0
O144 O 0.18308 0.19113 0.90576 0.0
O145 O 0.14828 0.18792 0.91486 0.0
O146 O 0.1928 0.23921 0.90309 0.0
O147 O 0.17058 0.24515 0.87628 0.0
C148 C 0.18914 0.25087 0.8851 0.0
C149 C 0.10789 0.23592 0.89186 0.0
O150 O 0.13981 0.24447 0.84762 0.0
O151 O 0.14754 0.20977 0.8648 0.0
O152 O 0.12545 0.2987 0.88666 0.0
O153 O 0.13985 0.29402 0.85499 0.0
O154 O 0.10406 0.25038 0.87608 0.0
O155 O 0.12692 0.2396 0.90109 0.0
O156 O 0.15178 0.24279 0.9302 0.0
O157 O 0.15478 0.2761 0.91072 0.0
C158 C 0.14186 0.22215 0.84691 0.0
C159 C 0.15244 0.26537 0.92968 0.0
Dy160 Dy 0.34287 0.0434 0.11227 0.0
C161 C 0.38879 0.96144 0.14211 0.0
C162 C 0.33013 0.08721 0.10282 0.0
Dy163 Dy 0.36895 0.0021 0.13243 0.0
O164 O 0.32615 0.07683 0.12128 0.0
O165 O 0.33992 0.07316 0.08929 0.0
O166 O 0.33746 0.02312 0.08104 0.0
O167 O 0.36726 0.01836 0.10056 0.0
C168 C 0.35636 0.01134 0.0839 0.0
C169 C 0.35632 0.03413 0.16112 0.0
O170 O 0.39858 0.02179 0.12132 0.0
O171 O 0.37903 0.05598 0.12166 0.0
O172 O 0.39358 0.98048 0.15165 0.0
O173 O 0.37302 0.9647 0.12697 0.0
O174 O 0.37371 0.0206 0.16452 0.0
O175 O 0.34525 0.02772 0.14436 0.0
O176 O 0.31203 0.02087 0.11922 0.0
O177 O 0.33355 0.9882 0.1275 0.0
C178 C 0.39869 0.04407 0.12205 0.0
C179 C 0.31358 0.99867 0.1236 0.0
Dy180 Dy 0.20539 0.09724 0.34142 0.0
C181 C 0.28339 0.12642 0.39197 0.0
C182 C 0.16168 0.08579 0.32928 0.0
Dy183 Dy 0.24322 0.11497 0.37228 0.0
O184 O 0.17339 0.10193 0.32047 0.0
O185 O 0.17448 0.07518 0.3437 0.0
O186 O 0.22938 0.09748 0.31229 0.0
O187 O 0.23333 0.12068 0.33826 0.0
C188 C 0.24228 0.11322 0.32097 0.0
C189 C 0.20523 0.10291 0.39254 0.0
O190 O 0.22712 0.14768 0.3637 0.0
O191 O 0.1925 0.13164 0.35344 0.0
O192 O 0.26334 0.1344 0.39714 0.0
O193 O 0.28152 0.1127 0.37528 0.0
O194 O 0.21957 0.11731 0.40084 0.0
O195 O 0.21384 0.09305 0.37616 0.0
O196 O 0.2254 0.06444 0.34622 0.0
O197 O 0.25521 0.07929 0.3677 0.0
C198 C 0.20483 0.1493 0.36002 0.0
C199 C 0.2451 0.0622 0.35753 0.0
Dy200 Dy 0.1549 0.97442 0.60529 0.0
C201 C 0.11667 0.05192 0.6517 0.0
C202 C 0.1714 0.93213 0.59556 0.0
Dy203 Dy 0.12906 0.01165 0.63308 0.0
O204 O 0.15718 0.94376 0.58307 0.0
O205 O 0.17706 0.94402 0.61276 0.0
O206 O 0.16072 0.99926 0.5777 0.0
O207 O 0.13237 0.00312 0.59843 0.0
C208 C 0.14359 0.0124 0.5835 0.0
C209 C 0.1394 0.97312 0.65367 0.0
O210 O 0.09948 0.99648 0.61527 0.0
O211 O 0.11849 0.96216 0.60973 0.0
O212 O 0.10715 0.03262 0.65576 0.0
O213 O 0.1323 0.0492 0.6368 0.0
O214 O 0.12182 0.98557 0.65914 0.0
O215 O 0.15113 0.98305 0.63968 0.0
O216 O 0.18594 0.99242 0.6183 0.0
O217 O 0.16597 0.02165 0.63595 0.0
C218 C 0.09925 0.97455 0.61088 0.0
C219 C 0.18534 0.01138 0.63004 0.0
Dy220 Dy 0.29575 0.89322 0.86192 0.0
C221 C 0.2152 0.86661 0.91062 0.0
C222 C 0.34123 0.90284 0.8525 0.0
Dy223 Dy 0.25476 0.87633 0.88901 0.0
O224 O 0.32719 0.89153 0.83974 0.0
O225 O 0.33009 0.90925 0.86992 0.0
O226 O 0.27213 0.90256 0.83307 0.0
O227 O 0.26324 0.87627 0.85419 0.0
C228 C 0.25596 0.88855 0.8385 0.0
C229 C 0.29492 0.87704 0.91069 0.0
O230 O 0.26451 0.84471 0.87191 0.0
O231 O 0.30218 0.85542 0.86647 0.0
O232 O 0.23567 0.8597 0.91624 0.0
O233 O 0.21617 0.87863 0.8927 0.0
O234 O 0.2791 0.86239 0.91419 0.0
O235 O 0.28785 0.89201 0.89719 0.0
O236 O 0.27932 0.92704 0.87009 0.0
O237 O 0.24767 0.91336 0.88889 0.0
C238 C 0.28636 0.83952 0.86864 0.0
C239 C 0.25968 0.93011 0.88075 0.0
Dy240 Dy 0.34978 0.95572 0.38569 0.0
C241 C 0.37633 0.04037 0.34621 0.0
C242 C 0.3433 0.90953 0.39128 0.0
Dy243 Dy 0.36903 0.9973 0.36005 0.0
O244 O 0.35233 0.92312 0.40599 0.0
O245 O 0.33652 0.92167 0.37447 0.0
O246 O 0.34529 0.97741 0.41628 0.0
O247 O 0.37116 0.98516 0.39386 0.0
C248 C 0.36077 0.99218 0.41079 0.0
C249 C 0.35919 0.96127 0.33539 0.0
O250 O 0.40256 0.98135 0.36971 0.0
O251 O 0.38591 0.94666 0.37605 0.0
O252 O 0.38722 0.02255 0.33907 0.0
O253 O 0.36194 0.03465 0.36129 0.0
O254 O 0.37445 0.97594 0.32983 0.0
O255 O 0.3484 0.96816 0.35199 0.0
O256 O 0.31577 0.97345 0.37859 0.0
O257 O 0.33144 0.00564 0.36249 0.0
C258 C 0.40417 0.95912 0.37204 0.0
C259 C 0.3137 0.99395 0.36954 0.0
Dy260 Dy 0.29093 0.11046 0.65381 0.0
C261 C 0.20085 0.12392 0.61151 0.0
C262 C 0.33732 0.10212 0.66015 0.0
Dy263 Dy 0.24398 0.11983 0.62983 0.0
O264 O 0.32219 0.10218 0.6758 0.0
O265 O 0.32708 0.10702 0.64157 0.0
O266 O 0.27317 0.11311 0.68693 0.0
O267 O 0.26074 0.1316 0.65981 0.0
C268 C 0.25679 0.12644 0.67946 0.0
C269 C 0.2781 0.10642 0.6035 0.0
O270 O 0.25794 0.15417 0.62753 0.0
O271 O 0.29538 0.14541 0.63949 0.0
O272 O 0.21181 0.14003 0.62158 0.0
O273 O 0.21312 0.10545 0.61262 0.0
O274 O 0.26131 0.11964 0.59751 0.0
O275 O 0.27485 0.09926 0.6228 0.0
O276 O 0.27475 0.07622 0.65152 0.0
O277 O 0.23771 0.09077 0.65208 0.0
C278 C 0.27972 0.15944 0.6306 0.0
C279 C 0.25233 0.07358 0.65395 0.0
Dy280 Dy 0.15731 0.03855 0.90396 0.0
C281 C 0.12074 0.96513 0.85052 0.0
C282 C 0.17072 0.08046 0.91764 0.0
Dy283 Dy 0.13623 0.00196 0.87331 0.0
O284 O 0.15528 0.06831 0.92718 0.0
O285 O 0.17934 0.06925 0.9012 0.0
O286 O 0.15932 0.01411 0.93241 0.0
O287 O 0.13363 0.01082 0.90784 0.0
C288 C 0.14289 0.00153 0.92441 0.0
C289 C 0.14936 0.03963 0.85343 0.0
O290 O 0.10455 0.01808 0.88594 0.0
O291 O 0.12209 0.05219 0.89349 0.0
O292 O 0.11445 0.98594 0.84716 0.0
O293 O 0.13523 0.96452 0.8671 0.0
O294 O 0.13251 0.02749 0.84618 0.0
O295 O 0.15942 0.02999 0.86932 0.0
O296 O 0.1896 0.01815 0.89785 0.0
O297 O 0.17246 0.98892 0.87764 0.0
C298 C 0.10343 0.04021 0.88886 0.0
C299 C 0.19064 0.9985 0.88712 0.0
Dy300 Dy 0.20157 0.89899 0.14728 0.0
C301 C 0.27424 0.86294 0.09542 0.0
C302 C 0.15911 0.91285 0.16078 0.0
Dy303 Dy 0.2366 0.87495 0.11804 0.0
O304 O 0.16934 0.9199 0.14323 0.0
O305 O 0.17284 0.89927 0.17168 0.0
O306 O 0.22706 0.90104 0.17537 0.0
O307 O 0.2284 0.87387 0.15276 0.0
C308 C 0.23852 0.88319 0.16882 0.0
C309 C 0.19804 0.88843 0.09784 0.0
O310 O 0.21751 0.84367 0.12585 0.0
O311 O 0.18641 0.86422 0.13917 0.0
O312 O 0.25867 0.87725 0.08865 0.0
O313 O 0.269 0.8545 0.11448 0.0
O314 O 0.20936 0.87037 0.09209 0.0
O315 O 0.20886 0.89916 0.11253 0.0
O316 O 0.22342 0.92948 0.13907 0.0
O317 O 0.25399 0.90741 0.12721 0.0
C318 C 0.19593 0.8447 0.13247 0.0
C319 C 0.24493 0.92749 0.13192 0.0
Dy320 Dy 0.11544 0.3639 0.03746 0.0
C321 C 0.14001 0.40458 0.9539 0.0
C322 C 0.11004 0.34699 0.07901 0.0
Dy323 Dy 0.1315 0.39016 0.99579 0.0
O324 O 0.09473 0.35879 0.06808 0.0
O325 O 0.12822 0.34423 0.06709 0.0
O326 O 0.08258 0.35574 0.01979 0.0
O327 O 0.09945 0.38627 0.01315 0.0
C328 C 0.08304 0.37374 0.00748 0.0
C329 C 0.16399 0.37771 0.02512 0.0
O330 O 0.12135 0.41969 0.01649 0.0
O331 O 0.12343 0.39984 0.04968 0.0
O332 O 0.15029 0.4116 0.97177 0.0
O333 O 0.12396 0.39064 0.95927 0.0
O334 O 0.16557 0.39578 0.01317 0.0
O335 O 0.14661 0.3671 0.01927 0.0
O336 O 0.12531 0.33379 0.01589 0.0
O337 O 0.12863 0.35427 0.98321 0.0
C338 C 0.12323 0.41928 0.03837 0.0
C339 C 0.12805 0.33473 0.99404 0.0
Dy340 Dy 0.6152 0.16869 0.98764 0.0
C341 C 0.63091 0.0768 0.9581 0.0
C342 C 0.61231 0.21013 0.00705 0.0
Dy343 Dy 0.62112 0.11812 0.9754 0.0
O344 O 0.62913 0.20277 0.99521 0.0
O345 O 0.59633 0.19491 0.00765 0.0
O346 O 0.63797 0.17801 0.96006 0.0
O347 O 0.6433 0.14719 0.97716 0.0
C348 C 0.64941 0.15908 0.96112 0.0
C349 C 0.58619 0.12719 0.00138 0.0
O350 O 0.6422 0.11789 0.00629 0.0
O351 O 0.63049 0.15332 0.01887 0.0
O352 O 0.64611 0.09047 0.96632 0.0
O353 O 0.61056 0.086 0.95875 0.0
O354 O 0.59692 0.10785 0.00131 0.0
O355 O 0.59269 0.13976 0.98602 0.0
O356 O 0.5941 0.1686 0.95644 0.0
O357 O 0.60944 0.13432 0.94381 0.0
C358 C 0.64138 0.13362 0.02182 0.0
C359 C 0.59739 0.15329 0.94066 0.0
Dy360 Dy 0.1286 0.34306 0.21526 0.0
C361 C 0.17152 0.3871 0.2898 0.0
C362 C 0.11371 0.33357 0.17324 0.0
Dy363 Dy 0.15428 0.36732 0.25261 0.0
O364 O 0.10505 0.34893 0.18609 0.0
O365 O 0.13007 0.32271 0.18373 0.0
O366 O 0.11747 0.3151 0.2373 0.0
O367 O 0.14855 0.33188 0.24422 0.0
C368 C 0.13419 0.31805 0.25156 0.0
C369 C 0.14664 0.39143 0.21566 0.0
O370 O 0.18267 0.34713 0.23896 0.0
O371 O 0.16545 0.34773 0.20458 0.0
O372 O 0.17844 0.39073 0.2699 0.0
O373 O 0.15572 0.37176 0.28937 0.0
O374 O 0.16476 0.39387 0.22805 0.0
O375 O 0.13327 0.37792 0.22448 0.0
O376 O 0.09832 0.35932 0.23221 0.0
O377 O 0.11806 0.37141 0.26369 0.0
C378 C 0.18428 0.34672 0.21731 0.0
C379 C 0.09877 0.36886 0.25214 0.0
Dy380 Dy 0.90041 0.85299 0.4623 0.0
C381 C 0.864 0.89122 0.54428 0.0
C382 C 0.90199 0.84208 0.4174 0.0
Dy383 Dy 0.87724 0.8755 0.50398 0.0
O384 O 0.91988 0.84617 0.43008 0.0
O385 O 0.88389 0.84289 0.42968 0.0
O386 O 0.9337 0.84858 0.4824 0.0
O387 O 0.91086 0.87495 0.48965 0.0
C388 C 0.9287 0.86478 0.4964 0.0
C389 C 0.84866 0.86544 0.47041 0.0
O390 O 0.89124 0.90588 0.48797 0.0
O391 O 0.89307 0.88973 0.45311 0.0
O392 O 0.85933 0.90086 0.5255 0.0
O393 O 0.87615 0.87298 0.54099 0.0
O394 O 0.84451 0.88122 0.4847 0.0
O395 O 0.8662 0.8542 0.47644 0.0
O396 O 0.89405 0.82145 0.48289 0.0
O397 O 0.88476 0.84031 0.51576 0.0
C398 C 0.89129 0.90778 0.46623 0.0
C399 C 0.88954 0.82159 0.50453 0.0
Dy400 Dy 0.88492 0.13261 0.21737 0.0
C401 C 0.84388 0.10458 0.29907 0.0
C402 C 0.90202 0.13929 0.176 0.0
Dy403 Dy 0.85861 0.11417 0.25764 0.0
O404 O 0.90546 0.12126 0.18792 0.0
O405 O 0.88956 0.15373 0.1869 0.0
O406 O 0.89093 0.16508 0.23579 0.0
O407 O 0.86099 0.14651 0.24131 0.0
C408 C 0.87253 0.16323 0.2476 0.0
C409 C 0.87082 0.08329 0.22762 0.0
O410 O 0.82856 0.12504 0.23693 0.0
O411 O 0.8489 0.12449 0.20418 0.0
O412 O 0.83549 0.0963 0.28082 0.0
O413 O 0.85925 0.11943 0.29429 0.0
O414 O 0.85347 0.0809 0.24054 0.0
O415 O 0.88205 0.10029 0.23353 0.0
O416 O 0.91553 0.12507 0.24016 0.0
O417 O 0.8943 0.11795 0.27171 0.0
C418 C 0.8291 0.12409 0.21505 0.0
C419 C 0.91414 0.12089 0.26175 0.0
Dy420 Dy 0.41421 0.63283 0.54092 0.0
C421 C 0.37354 0.60117 0.45667 0.0
C422 C 0.41977 0.64322 0.5847 0.0
Dy423 Dy 0.38603 0.61762 0.49671 0.0
O424 O 0.4065 0.65417 0.57074 0.0
O425 O 0.43099 0.62727 0.57434 0.0
O426 O 0.44967 0.63267 0.52386 0.0
O427 O 0.41995 0.62426 0.50756 0.0
C428 C 0.44087 0.62683 0.5047 0.0
C429 C 0.36123 0.63248 0.53071 0.0
O430 O 0.39648 0.58437 0.51072 0.0
O431 O 0.40517 0.59601 0.54662 0.0
O432 O 0.36369 0.59637 0.47519 0.0
O433 O 0.39063 0.6147 0.46032 0.0
O434 O 0.35387 0.63323 0.51028 0.0
O435 O 0.37987 0.6215 0.53173 0.0
O436 O 0.40283 0.66658 0.52577 0.0
O437 O 0.38808 0.6545 0.49132 0.0
C438 C 0.39955 0.58001 0.53196 0.0
C439 C 0.39388 0.67052 0.5056 0.0
Dy440 Dy 0.11695 0.65335 0.30552 0.0
C441 C 0.13389 0.61423 0.21808 0.0
C442 C 0.10336 0.66184 0.34764 0.0
Dy443 Dy 0.13066 0.63063 0.26028 0.0
O444 O 0.09705 0.64478 0.33561 0.0
O445 O 0.11771 0.67415 0.33682 0.0
O446 O 0.11369 0.68708 0.28886 0.0
O447 O 0.13694 0.66256 0.27718 0.0
C448 C 0.12816 0.68174 0.27343 0.0
C449 C 0.11867 0.60266 0.29243 0.0
O450 O 0.1651 0.63227 0.27622 0.0
O451 O 0.15244 0.63881 0.3123 0.0
O452 O 0.15112 0.62209 0.22964 0.0
O453 O 0.1153 0.61619 0.22944 0.0
O454 O 0.13196 0.59656 0.27649 0.0
O455 O 0.1103 0.62182 0.28864 0.0
O456 O 0.08308 0.64979 0.2878 0.0
O457 O 0.09822 0.6497 0.25256 0.0
C458 C 0.16873 0.6335 0.29786 0.0
C459 C 0.08061 0.65113 0.26605 0.0
Dy460 Dy 0.38456 0.34448 0.77649 0.0
C461 C 0.34041 0.39551 0.70461 0.0
C462 C 0.39975 0.33778 0.81986 0.0
Dy463 Dy 0.3592 0.37416 0.74042 0.0
O464 O 0.38664 0.32399 0.80855 0.0
O465 O 0.40561 0.35409 0.80681 0.0
O466 O 0.38966 0.31557 0.75225 0.0
O467 O 0.36189 0.33841 0.74799 0.0
C468 C 0.37332 0.32281 0.73878 0.0
C469 C 0.37027 0.39438 0.77847 0.0
O470 O 0.32901 0.35818 0.75503 0.0
O471 O 0.34775 0.35038 0.78824 0.0
O472 O 0.33942 0.40259 0.72486 0.0
O473 O 0.35173 0.37643 0.70387 0.0
O474 O 0.3521 0.39985 0.76694 0.0
O475 O 0.38212 0.37995 0.76835 0.0
O476 O 0.41525 0.35339 0.75535 0.0
O477 O 0.39532 0.37451 0.7283 0.0
C478 C 0.32851 0.35408 0.77643 0.0
C479 C 0.41452 0.36527 0.73653 0.0
Dy480 Dy 0.01999 0.87927 0.60907 0.0
C481 C 0.93662 0.91131 0.64953 0.0
C482 C 0.06202 0.86533 0.59472 0.0
Dy483 Dy 0.9791 0.90292 0.63251 0.0
O484 O 0.04266 0.85555 0.5903 0.0
O485 O 0.05795 0.88355 0.60598 0.0
O486 O 0.99858 0.84799 0.60546 0.0
O487 O 0.99444 0.86968 0.63248 0.0
C488 C 0.98677 0.85254 0.62296 0.0
C489 C 0.0121 0.93058 0.6199 0.0
O490 O 0.00197 0.89618 0.66287 0.0
O491 O 0.03334 0.88097 0.64419 0.0
O492 O 0.9472 0.92459 0.63605 0.0
O493 O 0.9494 0.89366 0.65378 0.0
O494 O 0.99914 0.93485 0.63678 0.0
O495 O 0.00535 0.91324 0.60964 0.0
O496 O 0.99934 0.88825 0.57928 0.0
O497 O 0.96512 0.89208 0.59825 0.0
C498 C 0.02338 0.8877 0.66274 0.0
C499 C 0.97662 0.88853 0.57953 0.0
Dy500 Dy 0.86652 0.24949 0.3631 0.0
C501 C 0.83091 0.16487 0.38906 0.0
C502 C 0.89395 0.28595 0.3589 0.0
Dy503 Dy 0.83623 0.20971 0.37974 0.0
O504 O 0.8965 0.27002 0.37336 0.0
O505 O 0.87588 0.28223 0.34647 0.0
O506 O 0.89443 0.22327 0.3585 0.0
O507 O 0.87107 0.22042 0.38425 0.0
C508 C 0.8877 0.21121 0.37497 0.0
C509 C 0.81267 0.24682 0.36769 0.0
O510 O 0.84905 0.22644 0.41108 0.0
O511 O 0.85211 0.26154 0.39497 0.0
O512 O 0.81744 0.18099 0.39642 0.0
O513 O 0.84624 0.17345 0.37642 0.0
O514 O 0.80469 0.23202 0.38156 0.0
O515 O 0.83086 0.23928 0.35921 0.0
O516 O 0.85993 0.23406 0.33044 0.0
O517 O 0.84347 0.20104 0.34388 0.0
C518 C 0.8524 0.2486 0.41275 0.0
C519 C 0.8526 0.21313 0.3277 0.0
Dy520 Dy 0.5206 0.11829 0.11833 0.0
C521 C 0.4955 0.11525 0.21038 0.0
C522 C 0.53309 0.1275 0.07689 0.0
Dy523 Dy 0.51157 0.11996 0.16845 0.0
O524 O 0.53183 0.10733 0.08517 0.0
O525 O 0.52851 0.14295 0.09153 0.0
O526 O 0.49607 0.09121 0.10771 0.0
O527 O 0.49787 0.1009 0.14073 0.0
C528 C 0.48724 0.0886 0.12699 0.0
C529 C 0.53451 0.15522 0.15251 0.0
O530 O 0.54632 0.10118 0.16867 0.0
O531 O 0.55299 0.10128 0.1307 0.0
O532 O 0.50724 0.13215 0.20322 0.0
O533 O 0.49414 0.10001 0.19485 0.0
O534 O 0.51964 0.15688 0.16826 0.0
O535 O 0.53647 0.13484 0.14676 0.0
O536 O 0.49367 0.14537 0.11979 0.0
O537 O 0.47953 0.13583 0.154 0.0
C538 C 0.55979 0.09688 0.15133 0.0
C539 C 0.47773 0.14691 0.13503 0.0
Dy540 Dy 0.60999 0.73793 0.86951 0.0
C541 C 0.65806 0.8157 0.90007 0.0
C542 C 0.59087 0.69729 0.85999 0.0
Dy543 Dy 0.64012 0.77435 0.8896 0.0
O544 O 0.58462 0.71643 0.85119 0.0
O545 O 0.60821 0.7004 0.87334 0.0
O546 O 0.58305 0.76226 0.85869 0.0
O547 O 0.60278 0.76941 0.88757 0.0
C548 C 0.58831 0.77719 0.87356 0.0
C549 C 0.66155 0.7348 0.88122 0.0
O550 O 0.63055 0.75791 0.92169 0.0
O551 O 0.6085 0.7295 0.90578 0.0
O552 O 0.66686 0.80136 0.8862 0.0
O553 O 0.63978 0.80715 0.90863 0.0
O554 O 0.66778 0.74814 0.89732 0.0
O555 O 0.64626 0.74435 0.86967 0.0
O556 O 0.62531 0.75082 0.83851 0.0
O557 O 0.63479 0.78531 0.85412 0.0
C558 C 0.61778 0.73955 0.92331 0.0
C559 C 0.63136 0.77223 0.83654 0.0
Dy560 Dy 0.01672 0.13653 0.88776 0.0
C561 C 0.93767 0.0997 0.84611 0.0
C562 C 0.05576 0.15562 0.90442 0.0
Dy563 Dy 0.97941 0.11272 0.86283 0.0
O564 O 0.03523 0.15859 0.91187 0.0
O565 O 0.05488 0.14063 0.88873 0.0
O566 O 0.99252 0.16388 0.89782 0.0
O567 O 0.98781 0.14844 0.86678 0.0
C568 C 0.97944 0.1622 0.88051 0.0
C569 C 0.01711 0.08742 0.87075 0.0
O570 O 0.99893 0.1247 0.83307 0.0
O571 O 0.03005 0.13817 0.85327 0.0
O572 O 0.95101 0.0874 0.85876 0.0
O573 O 0.94728 0.119 0.84251 0.0
O574 O 0.00411 0.08498 0.85325 0.0
O575 O 0.00812 0.10139 0.88382 0.0
O576 O 0.00163 0.11886 0.91601 0.0
O577 O 0.96642 0.11586 0.89819 0.0
C578 C 0.01977 0.13362 0.83411 0.0
C579 C 0.97921 0.11611 0.91664 0.0
Dy580 Dy 0.61933 0.22633 0.63943 0.0
C581 C 0.62121 0.25601 0.55125 0.0
C582 C 0.61786 0.21087 0.68132 0.0
Dy583 Dy 0.61958 0.23454 0.59131 0.0
O584 O 0.63653 0.21358 0.67027 0.0
O585 O 0.59996 0.21641 0.66943 0.0
O586 O 0.63513 0.25865 0.64803 0.0
O587 O 0.64472 0.24311 0.61791 0.0
C588 C 0.64611 0.26105 0.62982 0.0
C589 C 0.58745 0.20499 0.60403 0.0
O590 O 0.64091 0.2024 0.59056 0.0
O591 O 0.63266 0.19289 0.62662 0.0
O592 O 0.60315 0.24698 0.55963 0.0
O593 O 0.63876 0.25231 0.56439 0.0
O594 O 0.59757 0.20385 0.58504 0.0
O595 O 0.59347 0.22272 0.61391 0.0
O596 O 0.59172 0.25302 0.63873 0.0
O597 O 0.6017 0.26562 0.6042 0.0
C598 C 0.64119 0.18762 0.60708 0.0
C599 C 0.59027 0.26827 0.62278 0.0
Dy600 Dy 0.52837 0.88626 0.37695 0.0
C601 C 0.49242 0.88483 0.28844 0.0
C602 C 0.54728 0.88312 0.41813 0.0
Dy603 Dy 0.51406 0.88617 0.32863 0.0
O604 O 0.54499 0.90186 0.40709 0.0
O605 O 0.53957 0.86638 0.40653 0.0
O606 O 0.49542 0.90199 0.38688 0.0
O607 O 0.50869 0.91035 0.35569 0.0
C608 C 0.49164 0.91232 0.36838 0.0
C609 C 0.54931 0.85899 0.33747 0.0
O610 O 0.5454 0.90848 0.32636 0.0
O611 O 0.55954 0.90047 0.3617 0.0
O612 O 0.50286 0.86802 0.29805 0.0
O613 O 0.49355 0.90277 0.30098 0.0
O614 O 0.54623 0.86876 0.31848 0.0
O615 O 0.53232 0.86239 0.34986 0.0
O616 O 0.50459 0.85729 0.37819 0.0
O617 O 0.48649 0.86522 0.34475 0.0
C618 C 0.56202 0.90916 0.34179 0.0
C619 C 0.48758 0.85418 0.36388 0.0
Dy620 Dy 0.86164 0.74169 0.11757 0.0
C621 C 0.82049 0.82177 0.08168 0.0
C622 C 0.88235 0.70182 0.12602 0.0
Dy623 Dy 0.83033 0.77991 0.09863 0.0
O624 O 0.88683 0.71475 0.10944 0.0
O625 O 0.86703 0.71108 0.13867 0.0
O626 O 0.89169 0.76519 0.11679 0.0
O627 O 0.86474 0.76831 0.09355 0.0
C628 C 0.88258 0.77723 0.10097 0.0
C629 C 0.80846 0.74546 0.11599 0.0
O630 O 0.83489 0.75668 0.06841 0.0
O631 O 0.84505 0.72483 0.08866 0.0
O632 O 0.83787 0.80905 0.07656 0.0
O633 O 0.80781 0.81127 0.09584 0.0
O634 O 0.79967 0.75719 0.09951 0.0
O635 O 0.82694 0.75394 0.12275 0.0
O636 O 0.85991 0.76032 0.14902 0.0
O637 O 0.84182 0.79225 0.13371 0.0
C638 C 0.83952 0.7345 0.06968 0.0
C639 C 0.85244 0.78144 0.15067 0.0
Dy640 Dy 0.63193 0.99813 0.87375 0.0
C641 C 0.67121 0.9124 0.89993 0.0
C642 C 0.61823 0.04149 0.86626 0.0
Dy643 Dy 0.65889 0.95649 0.89168 0.0
O644 O 0.61016 0.02386 0.85605 0.0
O645 O 0.63283 0.03507 0.88144 0.0
O646 O 0.62495 0.98011 0.84173 0.0
O647 O 0.65485 0.97279 0.86002 0.0
C648 C 0.6427 0.96673 0.84382 0.0
C649 C 0.64784 0.98813 0.92127 0.0
O650 O 0.68974 0.9785 0.88354 0.0
O651 O 0.66791 0.01112 0.87639 0.0
O652 O 0.66177 0.9262 0.9139 0.0
O653 O 0.67504 0.92313 0.88163 0.0
O654 O 0.66667 0.97605 0.92281 0.0
O655 O 0.63565 0.98141 0.9053 0.0
O656 O 0.60195 0.97891 0.88514 0.0
O657 O 0.62207 0.94496 0.88348 0.0
C658 C 0.68803 0.00069 0.87925 0.0
C659 C 0.60219 0.95658 0.88382 0.0
Dy660 Dy 0.75389 0.8847 0.62622 0.0
C661 C 0.8388 0.91531 0.66321 0.0
C662 C 0.71288 0.87239 0.60847 0.0
Dy663 Dy 0.79436 0.90422 0.65341 0.0
O664 O 0.73272 0.86412 0.60306 0.0
O665 O 0.71546 0.8867 0.62462 0.0
O666 O 0.77592 0.88031 0.59663 0.0
O667 O 0.78276 0.90636 0.61925 0.0
C668 C 0.79006 0.89599 0.60257 0.0
C669 C 0.75868 0.89029 0.67702 0.0
O670 O 0.77402 0.9367 0.64841 0.0
O671 O 0.74221 0.92063 0.63068 0.0
O672 O 0.8261 0.92449 0.64777 0.0
O673 O 0.82674 0.90081 0.67406 0.0
O674 O 0.7723 0.90632 0.68389 0.0
O675 O 0.76644 0.88148 0.65978 0.0
O676 O 0.77049 0.8526 0.63658 0.0
O677 O 0.80597 0.86916 0.64234 0.0
C678 C 0.75317 0.93823 0.6391 0.0
C679 C 0.79308 0.8511 0.63843 0.0
Dy680 Dy 0.86992 0.988 0.37106 0.0
C681 C 0.831 0.06908 0.40986 0.0
C682 C 0.88175 0.94775 0.35211 0.0
Dy683 Dy 0.8462 0.02617 0.39944 0.0
O684 O 0.88964 0.96734 0.34649 0.0
O685 O 0.86825 0.95016 0.36888 0.0
O686 O 0.87686 0.01359 0.34457 0.0
O687 O 0.84829 0.01722 0.36496 0.0
C688 C 0.85984 0.02658 0.35043 0.0
C689 C 0.85818 0.98859 0.42154 0.0
O690 O 0.8144 0.00851 0.38731 0.0
O691 O 0.83292 0.97852 0.36943 0.0
O692 O 0.8224 0.05607 0.39468 0.0
O693 O 0.84775 0.05814 0.41976 0.0
O694 O 0.84171 0.00222 0.428 0.0
O695 O 0.86854 0.99727 0.40571 0.0
O696 O 0.90064 0.00295 0.38662 0.0
O697 O 0.88263 0.03773 0.39295 0.0
C698 C 0.81409 0.98946 0.37565 0.0
C699 C 0.90148 0.02497 0.39042 0.0
Dy700 Dy 0.74896 0.12162 0.11418 0.0
C701 C 0.66 0.09647 0.1483 0.0
C702 C 0.79249 0.12677 0.09879 0.0
Dy703 Dy 0.70566 0.10474 0.13881 0.0
O704 O 0.77519 0.14023 0.09443 0.0
O705 O 0.78607 0.11098 0.11213 0.0
O706 O 0.72761 0.13619 0.08693 0.0
O707 O 0.71561 0.10772 0.10403 0.0
C708 C 0.71034 0.12302 0.09015 0.0
C709 C 0.74479 0.10748 0.16354 0.0
O710 O 0.72067 0.07078 0.12909 0.0
O711 O 0.7536 0.08431 0.11232 0.0
O712 O 0.67443 0.10728 0.16103 0.0
O713 O 0.67077 0.08993 0.13069 0.0
O714 O 0.72811 0.09377 0.16814 0.0
O715 O 0.73823 0.12027 0.14811 0.0
O716 O 0.73886 0.1527 0.13209 0.0
O717 O 0.70056 0.14264 0.13476 0.0
C718 C 0.74053 0.06761 0.11888 0.0
C719 C 0.71688 0.15819 0.13418 0.0
Dy720 Dy 0.62836 0.00554 0.63998 0.0
C721 C 0.65598 0.08955 0.60335 0.0
C722 C 0.61776 0.96597 0.66015 0.0
Dy723 Dy 0.64781 0.04437 0.61229 0.0
O724 O 0.61361 0.98604 0.66784 0.0
O725 O 0.62732 0.96747 0.64096 0.0
O726 O 0.62112 0.03027 0.66719 0.0
O727 O 0.64951 0.03498 0.64683 0.0
C728 C 0.63772 0.04354 0.66204 0.0
C729 C 0.63813 0.00657 0.58894 0.0
O730 O 0.68152 0.02627 0.62001 0.0
O731 O 0.66544 0.99537 0.63784 0.0
O732 O 0.6453 0.07555 0.59017 0.0
O733 O 0.66334 0.07831 0.62053 0.0
O734 O 0.65364 0.02122 0.58333 0.0
O735 O 0.62672 0.0144 0.60501 0.0
O736 O 0.59495 0.02017 0.62878 0.0
O737 O 0.61139 0.05452 0.62068 0.0
C738 C 0.68333 0.00623 0.63 0.0
C739 C 0.59315 0.04214 0.62513 0.0
Dy740 Dy 0.74738 0.8775 0.37388 0.0
C741 C 0.66046 0.90675 0.33574 0.0
C742 C 0.78762 0.86603 0.39505 0.0
Dy743 Dy 0.70527 0.89302 0.34351 0.0
O744 O 0.78539 0.8813 0.3797 0.0
O745 O 0.76792 0.85677 0.39842 0.0
O746 O 0.72425 0.87785 0.40348 0.0
O747 O 0.71718 0.899 0.37685 0.0
C748 C 0.70925 0.89128 0.39426 0.0
C749 C 0.74323 0.87965 0.32219 0.0
O750 O 0.72377 0.92606 0.34753 0.0
O751 O 0.75806 0.91163 0.36313 0.0
O752 O 0.67222 0.89351 0.32267 0.0
O753 O 0.67346 0.91251 0.35234 0.0
O754 O 0.72801 0.89376 0.31363 0.0
O755 O 0.73587 0.87176 0.34 0.0
O756 O 0.73364 0.84479 0.36358 0.0
O757 O 0.69653 0.85792 0.35597 0.0
C758 C 0.74531 0.92833 0.35478 0.0
C759 C 0.71139 0.84152 0.36156 0.0
Dy760 Dy 0.86215 0.99537 0.12507 0.0
C761 C 0.82681 0.91851 0.07857 0.0
C762 C 0.87557 0.03325 0.14702 0.0
Dy763 Dy 0.84216 0.95968 0.09239 0.0
O764 O 0.88275 0.01287 0.15131 0.0
O765 O 0.86137 0.03294 0.13024 0.0
O766 O 0.86254 0.97033 0.15272 0.0
O767 O 0.83815 0.96786 0.12693 0.0
C768 C 0.84687 0.95805 0.14339 0.0
C769 C 0.8594 0.99659 0.07373 0.0
O770 O 0.80992 0.98047 0.09709 0.0
O771 O 0.82619 0.0086 0.11934 0.0
O772 O 0.84222 0.93033 0.06854 0.0
O773 O 0.81941 0.92962 0.09559 0.0
O774 O 0.84313 0.98472 0.06434 0.0
O775 O 0.86685 0.9867 0.09074 0.0
O776 O 0.8944 0.97784 0.1155 0.0
O777 O 0.87675 0.94494 0.10339 0.0
C778 C 0.80848 0.99961 0.10857 0.0
C779 C 0.89525 0.95612 0.11027 0.0
Dy780 Dy 0.76268 0.12504 0.88297 0.0
C781 C 0.84003 0.08918 0.83816 0.0
C782 C 0.72524 0.13647 0.90601 0.0
Dy783 Dy 0.79768 0.10257 0.85251 0.0
O784 O 0.74129 0.1227 0.9128 0.0
O785 O 0.72982 0.14459 0.88667 0.0
O786 O 0.78995 0.12728 0.90916 0.0
O787 O 0.7897 0.0999 0.88688 0.0
C788 C 0.80058 0.10922 0.90238 0.0
C789 C 0.76075 0.12023 0.83216 0.0
O790 O 0.77614 0.07156 0.86005 0.0
O791 O 0.74533 0.09299 0.87239 0.0
O792 O 0.82612 0.103 0.82776 0.0
O793 O 0.83006 0.08167 0.85567 0.0
O794 O 0.77158 0.10235 0.82473 0.0
O795 O 0.77129 0.12837 0.84855 0.0
O796 O 0.7823 0.15647 0.87758 0.0
O797 O 0.81332 0.13656 0.86325 0.0
C798 C 0.75465 0.0731 0.86737 0.0
C799 C 0.80398 0.15566 0.87129 0.0
Dy800 Dy 0.86476 0.60804 0.00194 0.0
C801 C 0.89047 0.65623 0.92348 0.0
C802 C 0.85263 0.58886 0.04076 0.0
Dy803 Dy 0.8843 0.63721 0.96409 0.0
O804 O 0.844 0.58403 0.02145 0.0
O805 O 0.86864 0.6038 0.03868 0.0
O806 O 0.83434 0.60011 0.97988 0.0
O807 O 0.851 0.63097 0.97741 0.0
C808 C 0.83584 0.61884 0.96893 0.0
C809 C 0.91398 0.62638 0.9964 0.0
O810 O 0.87084 0.66574 0.98626 0.0
O811 O 0.86203 0.6431 0.01633 0.0
O812 O 0.87181 0.65761 0.93488 0.0
O813 O 0.90599 0.64477 0.93453 0.0
O814 O 0.91541 0.64508 0.98515 0.0
O815 O 0.89841 0.61409 0.98853 0.0
O816 O 0.88096 0.5806 0.98247 0.0
O817 O 0.88 0.60112 0.94983 0.0
C818 C 0.86339 0.66331 0.00692 0.0
C819 C 0.88079 0.58133 0.96063 0.0
Dy820 Dy 0.3828 0.88218 0.02723 0.0
C821 C 0.38242 0.79055 0.99516 0.0
C822 C 0.37478 0.92338 0.0457 0.0
Dy823 Dy 0.38548 0.83184 0.01487 0.0
O824 O 0.39484 0.91375 0.044 0.0
O825 O 0.35897 0.91034 0.03757 0.0
O826 O 0.4062 0.89198 0.00051 0.0
O827 O 0.40992 0.8595 0.01487 0.0
C828 C 0.41604 0.87222 0.99935 0.0
C829 C 0.35311 0.84296 0.04313 0.0
O830 O 0.40682 0.8301 0.04598 0.0
O831 O 0.3951 0.86572 0.05851 0.0
O832 O 0.36557 0.80215 0.0033 0.0
O833 O 0.40161 0.80141 0.99817 0.0
O834 O 0.36386 0.82365 0.04367 0.0
O835 O 0.35887 0.85447 0.02668 0.0
O836 O 0.36056 0.88362 0.99711 0.0
O837 O 0.37207 0.84865 0.98366 0.0
C838 C 0.40552 0.84588 0.06163 0.0
C839 C 0.36129 0.86842 0.98111 0.0
Dy840 Dy 0.85569 0.6333 0.74626 0.0
C841 C 0.88751 0.66933 0.82915 0.0
C842 C 0.84602 0.61509 0.7059 0.0
Dy843 Dy 0.87573 0.6591 0.78639 0.0
O844 O 0.83442 0.61172 0.72369 0.0
O845 O 0.86223 0.62944 0.71003 0.0
O846 O 0.84714 0.6038 0.76805 0.0
O847 O 0.87516 0.62415 0.77579 0.0
C848 C 0.86291 0.60851 0.78261 0.0
C849 C 0.86935 0.68422 0.74994 0.0
O850 O 0.9088 0.64593 0.77209 0.0
O851 O 0.89311 0.63304 0.73884 0.0
O852 O 0.89859 0.65551 0.81639 0.0
O853 O 0.87021 0.67822 0.81826 0.0
O854 O 0.88473 0.68882 0.76513 0.0
O855 O 0.85663 0.66858 0.75642 0.0
O856 O 0.82382 0.6479 0.75964 0.0
O857 O 0.83937 0.64947 0.79496 0.0
C858 C 0.91091 0.63688 0.75212 0.0
C859 C 0.82138 0.64772 0.78126 0.0
Dy860 Dy 0.12407 0.12411 0.49631 0.0
C861 C 0.09131 0.15739 0.58104 0.0
C862 C 0.13954 0.10531 0.45812 0.0
Dy863 Dy 0.09774 0.14583 0.5369 0.0
O864 O 0.14576 0.09929 0.4779 0.0
O865 O 0.12466 0.12188 0.45908 0.0
O866 O 0.15748 0.12298 0.51515 0.0
O867 O 0.13231 0.1461 0.52413 0.0
C868 C 0.15106 0.13709 0.53031 0.0
C869 C 0.07145 0.13091 0.50248 0.0
O870 O 0.10251 0.1771 0.51562 0.0
O871 O 0.11525 0.15861 0.48357 0.0
O872 O 0.07961 0.14248 0.56981 0.0
O873 O 0.1054 0.16703 0.56759 0.0
O874 O 0.06488 0.14708 0.51591 0.0
O875 O 0.08994 0.12235 0.50984 0.0
O876 O 0.11433 0.09328 0.51446 0.0
O877 O 0.11049 0.11145 0.54823 0.0
C878 C 0.10839 0.17701 0.49431 0.0
C879 C 0.11383 0.0929 0.53626 0.0
Dy880 Dy 0.14437 0.88178 0.74142 0.0
C881 C 0.10001 0.85348 0.82152 0.0
C882 C 0.16081 0.89352 0.70101 0.0
Dy883 Dy 0.11714 0.86189 0.78033 0.0
O884 O 0.16659 0.90255 0.71979 0.0
O885 O 0.14774 0.87645 0.70491 0.0
O886 O 0.14906 0.91465 0.75858 0.0
O887 O 0.12033 0.89512 0.76559 0.0
C888 C 0.13172 0.91216 0.77145 0.0
C889 C 0.13071 0.8318 0.74979 0.0
O890 O 0.08682 0.8699 0.75721 0.0
O891 O 0.10858 0.88046 0.727 0.0
O892 O 0.11651 0.84218 0.81218 0.0
O893 O 0.09238 0.86895 0.80799 0.0
O894 O 0.11206 0.82954 0.7611 0.0
O895 O 0.14169 0.84874 0.75654 0.0
O896 O 0.17402 0.87252 0.76347 0.0
O897 O 0.15197 0.87165 0.79514 0.0
C898 C 0.08859 0.87601 0.73609 0.0
C899 C 0.17227 0.87284 0.78529 0.0
Dy900 Dy 0.60952 0.38973 0.50193 0.0
C901 C 0.582 0.35935 0.4155 0.0
C902 C 0.6201 0.4018 0.54425 0.0
Dy903 Dy 0.5881 0.36879 0.45965 0.0
O904 O 0.62794 0.41129 0.52665 0.0
O905 O 0.60581 0.3861 0.5385 0.0
O906 O 0.64143 0.39891 0.48387 0.0
O907 O 0.62258 0.3705 0.474 0.0
C908 C 0.63886 0.38322 0.46906 0.0
C909 C 0.55928 0.37558 0.49356 0.0
O910 O 0.59869 0.33635 0.47658 0.0
O911 O 0.61071 0.35272 0.50992 0.0
O912 O 0.59666 0.34931 0.42871 0.0
O913 O 0.56977 0.37375 0.42677 0.0
O914 O 0.55638 0.35968 0.47882 0.0
O915 O 0.57537 0.38811 0.48771 0.0
O916 O 0.59599 0.42068 0.48596 0.0
O917 O 0.59789 0.4046 0.45124 0.0
C918 C 0.60664 0.33483 0.49725 0.0
C919 C 0.59788 0.42261 0.46438 0.0
Dy920 Dy 0.86446 0.37454 0.73436 0.0
C921 C 0.90186 0.33903 0.65316 0.0
C922 C 0.85297 0.39394 0.77374 0.0
Dy923 Dy 0.88487 0.34785 0.69382 0.0
O924 O 0.84483 0.39988 0.7545 0.0
O925 O 0.86688 0.37669 0.77151 0.0
O926 O 0.85641 0.40342 0.71106 0.0
O927 O 0.8847 0.38208 0.70582 0.0
C928 C 0.87296 0.39792 0.69794 0.0
C929 C 0.87847 0.3236 0.72981 0.0
O930 O 0.91762 0.35746 0.71122 0.0
O931 O 0.90163 0.37255 0.74337 0.0
O932 O 0.90481 0.3575 0.66436 0.0
O933 O 0.88889 0.32522 0.664 0.0
O934 O 0.89392 0.31824 0.71529 0.0
O935 O 0.86588 0.33965 0.72302 0.0
O936 O 0.8334 0.35883 0.72045 0.0
O937 O 0.84747 0.35586 0.6848 0.0
C938 C 0.91941 0.3664 0.73128 0.0
C939 C 0.8301 0.35802 0.69883 0.0
Dy940 Dy 0.64087 0.62834 0.26287 0.0
C941 C 0.60336 0.6582 0.17828 0.0
C942 C 0.65763 0.61511 0.30313 0.0
Dy943 Dy 0.61703 0.65294 0.22226 0.0
O944 O 0.6659 0.60898 0.28424 0.0
O945 O 0.64014 0.6286 0.29993 0.0
O946 O 0.64374 0.59622 0.24313 0.0
O947 O 0.6172 0.61929 0.23632 0.0
C948 C 0.62695 0.60155 0.22974 0.0
C949 C 0.63022 0.67894 0.25703 0.0
O950 O 0.58555 0.64722 0.24325 0.0
O951 O 0.60564 0.63618 0.27542 0.0
O952 O 0.59733 0.64204 0.19146 0.0
O953 O 0.61596 0.67234 0.18963 0.0
O954 O 0.61313 0.68439 0.24365 0.0
O955 O 0.64053 0.66193 0.2493 0.0
O956 O 0.67173 0.63966 0.24541 0.0
O957 O 0.65297 0.64252 0.21144 0.0
C958 C 0.58637 0.64202 0.26474 0.0
C959 C 0.67211 0.64011 0.22361 0.0
Dy960 Dy 0.52234 0.59212 0.86715 0.0
C961 C 0.4372 0.62554 0.90068 0.0
C962 C 0.56537 0.58264 0.85197 0.0
Dy963 Dy 0.48096 0.61461 0.8895 0.0
O964 O 0.55353 0.56943 0.86442 0.0
O965 O 0.55355 0.6009 0.8476 0.0
O966 O 0.5021 0.56015 0.86354 0.0
O967 O 0.4969 0.58155 0.89077 0.0
C968 C 0.48989 0.56413 0.88103 0.0
C969 C 0.51284 0.64288 0.87534 0.0
O970 O 0.50092 0.60645 0.91999 0.0
O971 O 0.53548 0.60319 0.90157 0.0
O972 O 0.44307 0.60916 0.8876 0.0
O973 O 0.4556 0.63497 0.90867 0.0
O974 O 0.50015 0.6473 0.89227 0.0
O975 O 0.50624 0.62516 0.86598 0.0
O976 O 0.50003 0.59802 0.83623 0.0
O977 O 0.46704 0.60808 0.85523 0.0
C978 C 0.52365 0.60637 0.92016 0.0
C979 C 0.47762 0.60313 0.83656 0.0
Dy980 Dy 0.66765 0.2914 0.11684 0.0
C981 C 0.6085 0.21976 0.14908 0.0
C982 C 0.68006 0.3329 0.10173 0.0
Dy983 Dy 0.63503 0.25535 0.13781 0.0
O984 O 0.69045 0.32205 0.11782 0.0
O985 O 0.66366 0.32066 0.09366 0.0
O986 O 0.69506 0.26558 0.11025 0.0
O987 O 0.67202 0.26083 0.13645 0.0
C988 C 0.68741 0.25153 0.12496 0.0
C989 C 0.61729 0.29583 0.1276 0.0
O990 O 0.65269 0.268 0.16771 0.0
O991 O 0.66047 0.30286 0.15202 0.0
O992 O 0.60532 0.24051 0.15542 0.0
O993 O 0.62705 0.21818 0.13741 0.0
O994 O 0.60979 0.28419 0.14404 0.0
O995 O 0.63173 0.28462 0.1173 0.0
O996 O 0.65318 0.27544 0.08596 0.0
O997 O 0.63481 0.24506 0.10238 0.0
C998 C 0.65673 0.28988 0.16957 0.0
C999 C 0.64125 0.25645 0.08475 0.0
Dy1000 Dy 0.99374 0.38549 0.3385 0.0
C1001 C 0.95902 0.3576 0.42016 0.0
C1002 C 0.01784 0.39245 0.30076 0.0
Dy1003 Dy 0.98135 0.374 0.38491 0.0
O1004 O 0.00533 0.37509 0.30489 0.0
O1005 O 0.01616 0.40691 0.31696 0.0
O1006 O 0.9636 0.36577 0.32578 0.0
O1007 O 0.98161 0.35528 0.35441 0.0
C1008 C 0.9644 0.35159 0.34212 0.0
C1009 C 0.0134 0.40564 0.3844 0.0
O1010 O 0.00809 0.34761 0.38054 0.0
O1011 O 0.02496 0.36596 0.35156 0.0
O1012 O 0.98092 0.36118 0.41967 0.0
O1013 O 0.94941 0.36328 0.40151 0.0
O1014 O 0.00888 0.39313 0.40125 0.0
O1015 O 0.99722 0.40423 0.3699 0.0
O1016 O 0.95925 0.40444 0.33922 0.0
O1017 O 0.94952 0.39272 0.37445 0.0
C1018 C 0.02582 0.35082 0.36772 0.0
C1019 C 0.94411 0.4027 0.35554 0.0
Dy1020 Dy 0.85889 0.72535 0.61073 0.0
C1021 C 0.90575 0.80353 0.63989 0.0
C1022 C 0.84092 0.68382 0.60076 0.0
Dy1023 Dy 0.8874 0.76232 0.63143 0.0
O1024 O 0.83166 0.69877 0.61371 0.0
O1025 O 0.85967 0.6919 0.59269 0.0
O1026 O 0.8312 0.7514 0.60194 0.0
O1027 O 0.85143 0.75523 0.63041 0.0
C1028 C 0.83645 0.76462 0.61845 0.0
C1029 C 0.91009 0.72348 0.62947 0.0
O1030 O 0.87141 0.74939 0.66203 0.0
O1031 O 0.86362 0.71451 0.64637 0.0
O1032 O 0.91077 0.7851 0.65063 0.0
O1033 O 0.88981 0.79948 0.62526 0.0
O1034 O 0.91432 0.73908 0.64397 0.0
O1035 O 0.89626 0.73057 0.61445 0.0
O1036 O 0.86977 0.74118 0.57863 0.0
O1037 O 0.89007 0.77029 0.59523 0.0
C1038 C 0.86622 0.72775 0.66396 0.0
C1039 C 0.88212 0.75986 0.57735 0.0
Dy1040 Dy 0.5207 0.3881 0.63467 0.0
C1041 C 0.44113 0.34474 0.60118 0.0
C1042 C 0.5625 0.40196 0.65005 0.0
Dy1043 Dy 0.48214 0.36255 0.61367 0.0
O1044 O 0.54932 0.41331 0.63644 0.0
O1045 O 0.55285 0.38306 0.65511 0.0
O1046 O 0.49667 0.41725 0.64204 0.0
O1047 O 0.49159 0.3976 0.61354 0.0
C1048 C 0.48324 0.41315 0.62517 0.0
C1049 C 0.51944 0.33711 0.62112 0.0
O1050 O 0.4968 0.37668 0.58313 0.0
O1051 O 0.53257 0.38211 0.5993 0.0
O1052 O 0.4608 0.33975 0.59263 0.0
O1053 O 0.44391 0.36061 0.61576 0.0
O1054 O 0.5051 0.33382 0.60496 0.0
O1055 O 0.51203 0.3522 0.6341 0.0
O1056 O 0.50171 0.38039 0.66598 0.0
O1057 O 0.47012 0.36405 0.64877 0.0
C1058 C 0.51915 0.37971 0.58142 0.0
C1059 C 0.48104 0.37121 0.66672 0.0
Dy1060 Dy 0.88226 0.2669 0.91176 0.0
C1061 C 0.88079 0.29064 0.81903 0.0
C1062 C 0.87759 0.24511 0.95122 0.0
Dy1063 Dy 0.88203 0.27445 0.86044 0.0
O1064 O 0.89596 0.25503 0.94461 0.0
O1065 O 0.86119 0.24812 0.93658 0.0
O1066 O 0.91374 0.28851 0.91973 0.0
O1067 O 0.90239 0.28387 0.88791 0.0
C1068 C 0.91762 0.29347 0.89919 0.0
C1069 C 0.85754 0.23869 0.87263 0.0
O1070 O 0.91194 0.25035 0.86376 0.0
O1071 O 0.90085 0.23697 0.89793 0.0
O1072 O 0.86294 0.28848 0.83142 0.0
O1073 O 0.89947 0.2838 0.82922 0.0
O1074 O 0.86708 0.24099 0.85363 0.0
O1075 O 0.85888 0.25719 0.88368 0.0
O1076 O 0.8627 0.3 0.91163 0.0
O1077 O 0.86824 0.30754 0.87419 0.0
C1078 C 0.91314 0.23507 0.8798 0.0
C1079 C 0.86152 0.31383 0.89427 0.0
Dy1080 Dy 0.98555 0.61537 0.17034 0.0
C1081 C 0.95977 0.60597 0.07891 0.0
C1082 C 0.00646 0.62762 0.20875 0.0
Dy1083 Dy 0.97349 0.60536 0.122 0.0
O1084 O 0.99618 0.64115 0.19494 0.0
O1085 O 0.00493 0.60669 0.20191 0.0
O1086 O 0.95203 0.6331 0.17579 0.0
O1087 O 0.96712 0.63314 0.14445 0.0
C1088 C 0.94945 0.63827 0.15509 0.0
C1089 C 0.00353 0.57473 0.14005 0.0
O1090 O 0.99713 0.63434 0.117 0.0
O1091 O 0.01169 0.63667 0.1528 0.0
O1092 O 0.98031 0.61077 0.08594 0.0
O1093 O 0.94689 0.6006 0.09532 0.0
O1094 O 0.98751 0.56999 0.12571 0.0
O1095 O 0.00189 0.59558 0.14405 0.0
O1096 O 0.95645 0.59039 0.17434 0.0
O1097 O 0.94165 0.59478 0.13875 0.0
C1098 C 0.01189 0.64274 0.13167 0.0
C1099 C 0.93941 0.58823 0.15945 0.0
Dy1100 Dy 0.65808 0.72031 0.3998 0.0
C1101 C 0.62467 0.79914 0.35297 0.0
C1102 C 0.66603 0.67868 0.4184 0.0
Dy1103 Dy 0.63631 0.75905 0.37188 0.0
O1104 O 0.68095 0.69016 0.40743 0.0
O1105 O 0.647 0.69029 0.41963 0.0
O1106 O 0.6903 0.74087 0.40286 0.0
O1107 O 0.66948 0.74268 0.3744 0.0
C1108 C 0.68664 0.75093 0.38393 0.0
C1109 C 0.60723 0.72912 0.3885 0.0
O1110 O 0.64824 0.73783 0.34437 0.0
O1111 O 0.64846 0.70511 0.36537 0.0
O1112 O 0.61768 0.77948 0.34637 0.0
O1113 O 0.63851 0.79668 0.3698 0.0
O1114 O 0.60325 0.73967 0.37005 0.0
O1115 O 0.62496 0.73672 0.39743 0.0
O1116 O 0.65048 0.7459 0.42761 0.0
O1117 O 0.64276 0.77632 0.40426 0.0
C1118 C 0.64729 0.71563 0.34572 0.0
C1119 C 0.64584 0.76796 0.42442 0.0
Dy1120 Dy 0.84062 0.5435 0.60774 0.0
C1121 C 0.88653 0.46054 0.63123 0.0
C1122 C 0.82696 0.58719 0.59964 0.0
Dy1123 Dy 0.86985 0.50326 0.62571 0.0
O1124 O 0.82251 0.57591 0.61748 0.0
O1125 O 0.83768 0.57407 0.58587 0.0
O1126 O 0.83293 0.52289 0.57734 0.0
O1127 O 0.86473 0.51939 0.59404 0.0
C1128 C 0.85235 0.51171 0.57864 0.0
C1129 C 0.85744 0.5342 0.65553 0.0
O1130 O 0.8988 0.52442 0.61547 0.0
O1131 O 0.87637 0.55696 0.61663 0.0
O1132 O 0.89291 0.47809 0.64263 0.0
O1133 O 0.87159 0.46674 0.61625 0.0
O1134 O 0.87619 0.52214 0.65755 0.0
O1135 O 0.8458 0.52739 0.63934 0.0
O1136 O 0.81089 0.52075 0.61679 0.0
O1137 O 0.834 0.48937 0.62566 0.0
C1138 C 0.89693 0.54665 0.61692 0.0
C1139 C 0.81344 0.49906 0.62272 0.0
Dy1140 Dy 0.70705 0.59525 0.84752 0.0
C1141 C 0.78879 0.6322 0.88824 0.0
C1142 C 0.66333 0.58081 0.83962 0.0
Dy1143 Dy 0.74737 0.61773 0.87335 0.0
O1144 O 0.67405 0.59531 0.82751 0.0
O1145 O 0.67692 0.57365 0.85536 0.0
O1146 O 0.72873 0.59333 0.81669 0.0
O1147 O 0.73369 0.61896 0.84017 0.0
C1148 C 0.74157 0.6102 0.82301 0.0
C1149 C 0.71191 0.60613 0.89778 0.0
O1150 O 0.72872 0.64853 0.86233 0.0
O1151 O 0.6939 0.63029 0.85738 0.0
O1152 O 0.76898 0.63936 0.8951 0.0
O1153 O 0.78577 0.61783 0.8722 0.0
O1154 O 0.72566 0.6224 0.90318 0.0
O1155 O 0.71953 0.59551 0.88139 0.0
O1156 O 0.7288 0.56383 0.85396 0.0
O1157 O 0.75978 0.5817 0.87139 0.0
C1158 C 0.70606 0.64899 0.86071 0.0
C1159 C 0.74948 0.56334 0.86374 0.0
Dy1160 Dy 0.65507 0.47169 0.09991 0.0
C1161 C 0.62085 0.54905 0.1506 0.0
C1162 C 0.67265 0.42947 0.09191 0.0
Dy1163 Dy 0.63238 0.50973 0.12972 0.0
O1164 O 0.67875 0.44277 0.10789 0.0
O1165 O 0.65707 0.43955 0.07957 0.0
O1166 O 0.65904 0.49587 0.07152 0.0
O1167 O 0.63294 0.50098 0.09477 0.0
C1168 C 0.64298 0.50964 0.07868 0.0
C1169 C 0.6441 0.47078 0.1493 0.0
O1170 O 0.60153 0.49555 0.11372 0.0
O1171 O 0.6184 0.46048 0.10623 0.0
O1172 O 0.63729 0.54665 0.13649 0.0
O1173 O 0.61008 0.53006 0.15261 0.0
O1174 O 0.62881 0.48443 0.1575 0.0
O1175 O 0.6541 0.48057 0.13415 0.0
O1176 O 0.68695 0.48938 0.11225 0.0
O1177 O 0.66869 0.52071 0.12804 0.0
C1178 C 0.59997 0.47365 0.10961 0.0
C1179 C 0.68742 0.50908 0.12284 0.0
Dy1180 Dy 0.7976 0.39557 0.36513 0.0
C1181 C 0.71118 0.37352 0.40627 0.0
C1182 C 0.84367 0.4045 0.35713 0.0
Dy1183 Dy 0.75458 0.37849 0.39072 0.0
O1184 O 0.82903 0.39621 0.34279 0.0
O1185 O 0.83286 0.40814 0.37547 0.0
O1186 O 0.77448 0.40559 0.33591 0.0
O1187 O 0.7651 0.37936 0.35671 0.0
C1188 C 0.75813 0.39165 0.34104 0.0
C1189 C 0.79345 0.37822 0.414 0.0
O1190 O 0.76496 0.34659 0.37418 0.0
O1191 O 0.80265 0.35738 0.36754 0.0
O1192 O 0.72849 0.36014 0.41084 0.0
O1193 O 0.71751 0.38919 0.39276 0.0
O1194 O 0.77643 0.36501 0.41807 0.0
O1195 O 0.78768 0.39307 0.39988 0.0
O1196 O 0.78193 0.42952 0.37432 0.0
O1197 O 0.74966 0.41586 0.39221 0.0
C1198 C 0.78661 0.3416 0.36954 0.0
C1199 C 0.76227 0.43262 0.38497 0.0
Dy1200 Dy 0.8567 0.45789 0.88949 0.0
C1201 C 0.88039 0.54244 0.84929 0.0
C1202 C 0.84926 0.41234 0.897 0.0
Dy1203 Dy 0.87382 0.49951 0.86367 0.0
O1204 O 0.84273 0.42374 0.87963 0.0
O1205 O 0.85902 0.42622 0.91095 0.0
O1206 O 0.85096 0.4797 0.91966 0.0
O1207 O 0.87687 0.48808 0.89755 0.0
C1208 C 0.86592 0.49493 0.91418 0.0
C1209 C 0.86454 0.46302 0.83923 0.0
O1210 O 0.90772 0.48558 0.87454 0.0
O1211 O 0.89335 0.44966 0.87954 0.0
O1212 O 0.89106 0.5246 0.84192 0.0
O1213 O 0.8666 0.53679 0.8649 0.0
O1214 O 0.87933 0.47803 0.83345 0.0
O1215 O 0.8536 0.46984 0.85573 0.0
O1216 O 0.8221 0.47498 0.88329 0.0
O1217 O 0.83652 0.50795 0.86775 0.0
C1218 C 0.91084 0.46347 0.87631 0.0
C1219 C 0.81929 0.49574 0.87499 0.0
Dy1220 Dy 0.79493 0.60334 0.15733 0.0
C1221 C 0.70894 0.61854 0.10631 0.0
C1222 C 0.84063 0.59223 0.16537 0.0
Dy1223 Dy 0.75005 0.61464 0.12876 0.0
O1224 O 0.82765 0.60391 0.17872 0.0
O1225 O 0.82847 0.58672 0.14808 0.0
O1226 O 0.77394 0.60331 0.18852 0.0
O1227 O 0.76358 0.62332 0.16139 0.0
C1228 C 0.75784 0.61659 0.1802 0.0
C1229 C 0.78779 0.6029 0.1068 0.0
O1230 O 0.76364 0.64888 0.132 0.0
O1231 O 0.80088 0.63855 0.14365 0.0
O1232 O 0.71939 0.63516 0.11614 0.0
O1233 O 0.72062 0.59999 0.10965 0.0
O1234 O 0.77154 0.61537 0.0983 0.0
O1235 O 0.78152 0.59505 0.12484 0.0
O1236 O 0.7778 0.56952 0.15397 0.0
O1237 O 0.74098 0.58441 0.14833 0.0
C1238 C 0.78545 0.65357 0.13588 0.0
C1239 C 0.75517 0.56719 0.15231 0.0
Dy1240 Dy 0.65752 0.53906 0.40924 0.0
C1241 C 0.62813 0.4644 0.35407 0.0
C1242 C 0.66833 0.58143 0.42414 0.0
Dy1243 Dy 0.64035 0.50257 0.37591 0.0
O1244 O 0.65273 0.56857 0.4325 0.0
O1245 O 0.67866 0.57059 0.4084 0.0
O1246 O 0.65577 0.51404 0.43739 0.0
O1247 O 0.63364 0.51126 0.40988 0.0
C1248 C 0.64037 0.50166 0.4273 0.0
C1249 C 0.65496 0.54043 0.35787 0.0
O1250 O 0.60715 0.51865 0.38438 0.0
O1251 O 0.6232 0.55245 0.39588 0.0
O1252 O 0.61986 0.48446 0.3501 0.0
O1253 O 0.64304 0.46515 0.37024 0.0
O1254 O 0.64 0.52757 0.3482 0.0
O1255 O 0.66314 0.53107 0.37484 0.0
O1256 O 0.6909 0.51945 0.40539 0.0
O1257 O 0.67624 0.49033 0.38329 0.0
C1258 C 0.60541 0.54053 0.38845 0.0
C1259 C 0.69334 0.50011 0.39427 0.0
Dy1260 Dy 0.70226 0.39841 0.64406 0.0
C1261 C 0.77693 0.36449 0.59269 0.0
C1262 C 0.65978 0.4121 0.6574 0.0
Dy1263 Dy 0.73895 0.377 0.61451 0.0
O1264 O 0.66981 0.41881 0.63961 0.0
O1265 O 0.67353 0.39863 0.66842 0.0
O1266 O 0.72734 0.40091 0.67245 0.0
O1267 O 0.73037 0.3746 0.64905 0.0
C1268 C 0.73984 0.38394 0.66546 0.0
C1269 C 0.7 0.38957 0.59442 0.0
O1270 O 0.72083 0.34486 0.6213 0.0
O1271 O 0.68877 0.36319 0.63564 0.0
O1272 O 0.76222 0.37972 0.58598 0.0
O1273 O 0.77083 0.35581 0.61134 0.0
O1274 O 0.71205 0.37218 0.58815 0.0
O1275 O 0.71025 0.40014 0.60954 0.0
O1276 O 0.72295 0.42977 0.63733 0.0
O1277 O 0.755 0.41001 0.62473 0.0
C1278 C 0.69936 0.34452 0.62819 0.0
C1279 C 0.74472 0.4291 0.63093 0.0
Dy1280 Dy 0.61736 0.86596 0.53672 0.0
C1281 C 0.64182 0.91237 0.45627 0.0
C1282 C 0.61291 0.84641 0.57725 0.0
Dy1283 Dy 0.63295 0.89495 0.49691 0.0
O1284 O 0.59681 0.85755 0.5667 0.0
O1285 O 0.6314 0.8458 0.56552 0.0
O1286 O 0.58503 0.85737 0.51843 0.0
O1287 O 0.60076 0.88866 0.51308 0.0
C1288 C 0.58506 0.87568 0.50654 0.0
C1289 C 0.6653 0.8836 0.52679 0.0
O1290 O 0.61954 0.92272 0.51813 0.0
O1291 O 0.62258 0.90192 0.55062 0.0
O1292 O 0.65164 0.91838 0.47474 0.0
O1293 O 0.62602 0.89773 0.46041 0.0
O1294 O 0.66595 0.90207 0.51534 0.0
O1295 O 0.64905 0.87173 0.51998 0.0
O1296 O 0.6272 0.83716 0.51318 0.0
O1297 O 0.6319 0.85994 0.48228 0.0
C1298 C 0.62113 0.92176 0.54 0.0
C1299 C 0.63072 0.83963 0.49153 0.0
Dy1300 Dy 0.12095 0.66368 0.48785 0.0
C1301 C 0.11456 0.57225 0.46078 0.0
C1302 C 0.12934 0.70651 0.50299 0.0
Dy1303 Dy 0.11158 0.61641 0.47316 0.0
O1304 O 0.14236 0.69476 0.49008 0.0
O1305 O 0.11078 0.69515 0.5064 0.0
O1306 O 0.15818 0.6555 0.48466 0.0
O1307 O 0.13488 0.64194 0.462 0.0
C1308 C 0.15577 0.64322 0.46711 0.0
C1309 C 0.07618 0.63583 0.4939 0.0
O1310 O 0.13515 0.61062 0.50247 0.0
O1311 O 0.13028 0.64542 0.51914 0.0
O1312 O 0.12942 0.58259 0.47319 0.0
O1313 O 0.09815 0.5861 0.45487 0.0
O1314 O 0.07405 0.6205 0.47873 0.0
O1315 O 0.09715 0.63802 0.49877 0.0
O1316 O 0.10001 0.67079 0.45682 0.0
O1317 O 0.10576 0.63508 0.4418 0.0
C1318 C 0.13822 0.62438 0.5195 0.0
C1319 C 0.09828 0.65625 0.44012 0.0
Dy1320 Dy 0.62459 0.84083 0.71402 0.0
C1321 C 0.65118 0.88403 0.79552 0.0
C1322 C 0.61463 0.83005 0.671 0.0
Dy1323 Dy 0.64259 0.86644 0.75466 0.0
O1324 O 0.60194 0.84248 0.68372 0.0
O1325 O 0.63254 0.82277 0.68209 0.0
O1326 O 0.61597 0.81053 0.73463 0.0
O1327 O 0.64335 0.83129 0.74425 0.0
C1328 C 0.63089 0.8152 0.75017 0.0
C1329 C 0.63558 0.89215 0.71874 0.0
O1330 O 0.67562 0.85453 0.74102 0.0
O1331 O 0.6604 0.85196 0.70564 0.0
O1332 O 0.63526 0.86953 0.79081 0.0
O1333 O 0.66322 0.88766 0.77808 0.0
O1334 O 0.64989 0.89724 0.73451 0.0
O1335 O 0.62368 0.87582 0.72473 0.0
O1336 O 0.59067 0.85287 0.72736 0.0
O1337 O 0.60487 0.86594 0.76111 0.0
C1338 C 0.67819 0.85453 0.71939 0.0
C1339 C 0.58759 0.86152 0.74737 0.0
Dy1340 Dy 0.4041 0.35101 0.96229 0.0
C1341 C 0.36573 0.37829 0.04723 0.0
C1342 C 0.40909 0.34178 0.91736 0.0
Dy1343 Dy 0.38081 0.36898 0.00583 0.0
O1344 O 0.39573 0.33118 0.93082 0.0
O1345 O 0.42065 0.35656 0.92887 0.0
O1346 O 0.43844 0.348 0.98102 0.0
O1347 O 0.41402 0.37199 0.99064 0.0
C1348 C 0.43296 0.36299 0.99606 0.0
C1349 C 0.35145 0.36051 0.97233 0.0
O1350 O 0.38634 0.4018 0.98944 0.0
O1351 O 0.39067 0.38628 0.95432 0.0
O1352 O 0.37461 0.39308 0.03411 0.0
O1353 O 0.36574 0.3586 0.03776 0.0
O1354 O 0.3468 0.37374 0.98879 0.0
O1355 O 0.37001 0.34998 0.97657 0.0
O1356 O 0.39972 0.31836 0.9817 0.0
O1357 O 0.39657 0.33606 0.01599 0.0
C1358 C 0.38647 0.40372 0.96768 0.0
C1359 C 0.39892 0.31768 0.00374 0.0
Dy1360 Dy 0.3837 0.63254 0.71944 0.0
C1361 C 0.33609 0.59276 0.79249 0.0
C1362 C 0.40272 0.64128 0.6791 0.0
Dy1363 Dy 0.35423 0.60961 0.75482 0.0
O1364 O 0.40634 0.62313 0.69076 0.0
O1365 O 0.38936 0.65501 0.68993 0.0
O1366 O 0.3886 0.66294 0.74093 0.0
O1367 O 0.35817 0.64407 0.7432 0.0
C1368 C 0.36968 0.65989 0.75174 0.0
C1369 C 0.36882 0.58314 0.72188 0.0
O1370 O 0.32554 0.62328 0.73426 0.0
O1371 O 0.34825 0.62643 0.70324 0.0
O1372 O 0.33174 0.58564 0.77259 0.0
O1373 O 0.34927 0.61028 0.79152 0.0
O1374 O 0.34968 0.57999 0.73198 0.0
O1375 O 0.37972 0.59863 0.73129 0.0
O1376 O 0.41266 0.62266 0.7439 0.0
O1377 O 0.38859 0.61085 0.7718 0.0
C1378 C 0.32764 0.62492 0.71259 0.0
C1379 C 0.40942 0.61518 0.76448 0.0
Dy1380 Dy 0.91087 0.1292 0.03841 0.0
C1381 C 0.87734 0.09616 0.95482 0.0
C1382 C 0.91809 0.1405 0.08182 0.0
Dy1383 Dy 0.88758 0.1085 0.99703 0.0
O1384 O 0.90343 0.15024 0.06843 0.0
O1385 O 0.92966 0.12512 0.07115 0.0
O1386 O 0.94226 0.13703 0.01822 0.0
O1387 O 0.92213 0.10904 0.01035 0.0
C1388 C 0.9385 0.12086 0.00395 0.0
C1389 C 0.85947 0.11598 0.03076 0.0
O1390 O 0.9006 0.07743 0.01322 0.0
O1391 O 0.90066 0.09383 0.04789 0.0
O1392 O 0.89123 0.11225 0.96047 0.0
O1393 O 0.86926 0.0868 0.9724 0.0
O1394 O 0.85583 0.1004 0.016 0.0
O1395 O 0.87595 0.12813 0.02516 0.0
O1396 O 0.90047 0.16161 0.02154 0.0
O1397 O 0.88685 0.14545 0.98874 0.0
C1398 C 0.89967 0.07575 0.03489 0.0
C1399 C 0.89186 0.16331 0.00114 0.0
Dy1400 Dy 0.6148 0.15304 0.80568 0.0
C1401 C 0.649 0.11666 0.72247 0.0
C1402 C 0.59908 0.15912 0.84739 0.0
Dy1403 Dy 0.63813 0.13125 0.76389 0.0
O1404 O 0.60953 0.17452 0.8361 0.0
O1405 O 0.59756 0.14063 0.8359 0.0
O1406 O 0.60251 0.18258 0.78559 0.0
O1407 O 0.63308 0.16506 0.77735 0.0
C1408 C 0.61875 0.17994 0.7712 0.0
C1409 C 0.63187 0.1047 0.79867 0.0
O1410 O 0.66795 0.14818 0.77893 0.0
O1411 O 0.65284 0.14803 0.81433 0.0
O1412 O 0.65859 0.1095 0.74073 0.0
O1413 O 0.63433 0.13275 0.72692 0.0
O1414 O 0.64885 0.10157 0.78533 0.0
O1415 O 0.61869 0.11985 0.7916 0.0
O1416 O 0.58317 0.14085 0.78768 0.0
O1417 O 0.60091 0.12989 0.75489 0.0
C1418 C 0.67061 0.14846 0.80065 0.0
C1419 C 0.58243 0.13318 0.76702 0.0
Dy1420 Dy 0.88287 0.84216 0.27629 0.0
C1421 C 0.83779 0.88648 0.20162 0.0
C1422 C 0.89762 0.83405 0.31976 0.0
Dy1423 Dy 0.85608 0.86928 0.23969 0.0
O1424 O 0.88213 0.8227 0.30874 0.0
O1425 O 0.90579 0.84914 0.30648 0.0
O1426 O 0.88762 0.81271 0.25243 0.0
O1427 O 0.85896 0.83417 0.24918 0.0
C1428 C 0.86992 0.8184 0.23987 0.0
C1429 C 0.86829 0.89265 0.27579 0.0
O1430 O 0.82676 0.85347 0.2558 0.0
O1431 O 0.84663 0.8498 0.28896 0.0
O1432 O 0.83209 0.89266 0.22139 0.0
O1433 O 0.85347 0.87069 0.20273 0.0
O1434 O 0.85024 0.89763 0.26388 0.0
O1435 O 0.87985 0.87733 0.2666 0.0
O1436 O 0.91319 0.85171 0.25469 0.0
O1437 O 0.89136 0.86772 0.22586 0.0
C1438 C 0.82694 0.85172 0.27749 0.0
C1439 C 0.91136 0.86122 0.23465 0.0
Dy1440 Dy 0.52611 0.38224 0.10995 0.0
C1441 C 0.43855 0.40269 0.14574 0.0
C1442 C 0.57097 0.37389 0.10046 0.0
Dy1443 Dy 0.48258 0.40018 0.13171 0.0
O1444 O 0.55345 0.36361 0.09172 0.0
O1445 O 0.56349 0.39029 0.1127 0.0
O1446 O 0.51055 0.34759 0.10823 0.0
O1447 O 0.50262 0.36942 0.13409 0.0
C1448 C 0.49795 0.35078 0.12544 0.0
C1449 C 0.51126 0.43172 0.11743 0.0
O1450 O 0.50435 0.39436 0.16279 0.0
O1451 O 0.53874 0.39208 0.14409 0.0
O1452 O 0.44924 0.38446 0.13959 0.0
O1453 O 0.45215 0.41991 0.14464 0.0
O1454 O 0.49811 0.43456 0.13444 0.0
O1455 O 0.50655 0.41339 0.10792 0.0
O1456 O 0.50546 0.38684 0.0789 0.0
O1457 O 0.47054 0.38979 0.09685 0.0
C1458 C 0.52725 0.39379 0.16279 0.0
C1459 C 0.48267 0.38623 0.07856 0.0
Dy1460 Dy 0.36748 0.74189 0.86573 0.0
C1461 C 0.32203 0.66366 0.89932 0.0
C1462 C 0.39314 0.77832 0.85516 0.0
Dy1463 Dy 0.33427 0.70543 0.88496 0.0
O1464 O 0.39692 0.75772 0.84861 0.0
O1465 O 0.37456 0.77928 0.86682 0.0
O1466 O 0.39331 0.7136 0.85994 0.0
O1467 O 0.37029 0.71226 0.88591 0.0
C1468 C 0.38529 0.7015 0.87583 0.0
C1469 C 0.31484 0.74553 0.87673 0.0
O1470 O 0.34602 0.72159 0.9167 0.0
O1471 O 0.36734 0.75092 0.90161 0.0
O1472 O 0.33908 0.67536 0.90693 0.0
O1473 O 0.31096 0.67517 0.88407 0.0
O1474 O 0.30662 0.73124 0.89094 0.0
O1475 O 0.33058 0.73628 0.86567 0.0
O1476 O 0.35132 0.72911 0.83495 0.0
O1477 O 0.34219 0.69428 0.84991 0.0
C1478 C 0.35886 0.73991 0.91866 0.0
C1479 C 0.34685 0.70734 0.83268 0.0
Dy1480 Dy 0.01784 0.6234 0.61632 0.0
C1481 C 0.99128 0.61409 0.70424 0.0
C1482 C 0.02956 0.63159 0.57432 0.0
Dy1483 Dy 0.01108 0.61754 0.66379 0.0
O1484 O 0.02369 0.61195 0.58171 0.0
O1485 O 0.02989 0.64648 0.59004 0.0
O1486 O 0.98291 0.61181 0.60806 0.0
O1487 O 0.00028 0.59662 0.63534 0.0
C1488 C 0.98129 0.59812 0.62452 0.0
C1489 C 0.04397 0.64685 0.65521 0.0
O1490 O 0.04346 0.5957 0.66119 0.0
O1491 O 0.05125 0.60667 0.62543 0.0
O1492 O 0.00174 0.63162 0.69681 0.0
O1493 O 0.99258 0.5978 0.68977 0.0
O1494 O 0.04424 0.63406 0.67262 0.0
O1495 O 0.02522 0.64491 0.64458 0.0
O1496 O 0.99395 0.65229 0.61981 0.0
O1497 O 0.98078 0.63987 0.65327 0.0
C1498 C 0.0576 0.59666 0.64408 0.0
C1499 C 0.97869 0.65298 0.63556 0.0
Dy1500 Dy 0.11246 0.23834 0.36824 0.0
C1501 C 0.15421 0.31762 0.40263 0.0
C1502 C 0.09501 0.19719 0.35801 0.0
Dy1503 Dy 0.14112 0.2751 0.39067 0.0
O1504 O 0.08822 0.21624 0.34933 0.0
O1505 O 0.11211 0.2007 0.37153 0.0
O1506 O 0.08566 0.26258 0.35689 0.0
O1507 O 0.10418 0.26911 0.38663 0.0
C1508 C 0.0903 0.27724 0.37223 0.0
C1509 C 0.16323 0.23612 0.3816 0.0
O1510 O 0.12945 0.25845 0.42193 0.0
O1511 O 0.10974 0.22943 0.4043 0.0
O1512 O 0.16839 0.30147 0.39704 0.0
O1513 O 0.13338 0.3101 0.40247 0.0
O1514 O 0.16865 0.24868 0.39862 0.0
O1515 O 0.14828 0.24604 0.37 0.0
O1516 O 0.12825 0.2524 0.3381 0.0
O1517 O 0.13951 0.28602 0.35478 0.0
C1518 C 0.11743 0.23952 0.42252 0.0
C1519 C 0.13532 0.27356 0.33687 0.0
Dy1520 Dy 0.52098 0.63296 0.38869 0.0
C1521 C 0.43837 0.59941 0.35017 0.0
C1522 C 0.56342 0.64606 0.40269 0.0
Dy1523 Dy 0.48107 0.61264 0.36443 0.0
O1524 O 0.54421 0.6511 0.41221 0.0
O1525 O 0.55929 0.63228 0.38643 0.0
O1526 O 0.50082 0.66241 0.40016 0.0
O1527 O 0.4918 0.64785 0.36953 0.0
C1528 C 0.48589 0.66213 0.38412 0.0
C1529 C 0.51733 0.58483 0.37165 0.0
O1530 O 0.49986 0.62444 0.33423 0.0
O1531 O 0.53254 0.6354 0.35364 0.0
O1532 O 0.45173 0.58815 0.36365 0.0
O1533 O 0.44844 0.6179 0.34435 0.0
O1534 O 0.50451 0.58379 0.35391 0.0
O1535 O 0.50907 0.59907 0.38471 0.0
O1536 O 0.5048 0.61597 0.41703 0.0
O1537 O 0.46934 0.61826 0.39973 0.0
C1538 C 0.52123 0.63213 0.33478 0.0
C1539 C 0.48218 0.6164 0.41806 0.0
Dy1540 Dy 0.11788 0.72529 0.14144 0.0
C1541 C 0.11861 0.75629 0.05132 0.0
C1542 C 0.12106 0.71108 0.1835 0.0
Dy1543 Dy 0.11539 0.73501 0.0912 0.0
O1544 O 0.13805 0.71102 0.16984 0.0
O1545 O 0.10211 0.71813 0.17401 0.0
O1546 O 0.1307 0.75945 0.14873 0.0
O1547 O 0.13986 0.74459 0.1184 0.0
C1548 C 0.1404 0.7627 0.13001 0.0
C1549 C 0.0817 0.70618 0.10258 0.0
O1550 O 0.13521 0.70184 0.08971 0.0
O1551 O 0.132 0.69281 0.12709 0.0
O1552 O 0.09995 0.74869 0.05978 0.0
O1553 O 0.13595 0.75182 0.06457 0.0
O1554 O 0.08497 0.71266 0.08238 0.0
O1555 O 0.09674 0.71544 0.11444 0.0
O1556 O 0.08551 0.74578 0.13923 0.0
O1557 O 0.09572 0.76372 0.10692 0.0
C1558 C 0.13772 0.68739 0.10653 0.0
C1559 C 0.08294 0.76245 0.12481 0.0
Dy1560 Dy 0.03001 0.38882 0.87755 0.0
C1561 C 0.99411 0.38108 0.78986 0.0
C1562 C 0.0429 0.38402 0.92062 0.0
Dy1563 Dy 0.01607 0.38227 0.8295 0.0
O1564 O 0.03649 0.36769 0.90775 0.0
O1565 O 0.04236 0.403 0.90996 0.0
O1566 O 0.01641 0.4246 0.87608 0.0
O1567 O 0.00062 0.39993 0.8573 0.0
C1568 C 1e-05 0.42066 0.86191 0.0
C1569 C 0.05359 0.35901 0.83987 0.0
O1570 O 0.04593 0.40722 0.82736 0.0
O1571 O 0.06191 0.39968 0.86193 0.0
O1572 O 0.00273 0.36361 0.80012 0.0
O1573 O 0.99735 0.39944 0.80142 0.0
O1574 O 0.04856 0.36506 0.81977 0.0
O1575 O 0.03695 0.36307 0.85255 0.0
O1576 O 0.00084 0.36558 0.88283 0.0
O1577 O 0.99124 0.35834 0.84608 0.0
C1578 C 0.06344 0.40819 0.84194 0.0
C1579 C 0.98846 0.35486 0.86765 0.0
Dy1580 Dy 0.35733 0.2368 0.62628 0.0
C1581 C 0.3341 0.32148 0.58259 0.0
C1582 C 0.36702 0.19565 0.64439 0.0
Dy1583 Dy 0.34053 0.27862 0.59913 0.0
O1584 O 0.37066 0.21502 0.65379 0.0
O1585 O 0.35637 0.19898 0.62568 0.0
O1586 O 0.39276 0.25082 0.62951 0.0
O1587 O 0.37215 0.25925 0.60235 0.0
C1588 C 0.39046 0.26376 0.6124 0.0
C1589 C 0.30844 0.25018 0.61321 0.0
O1590 O 0.34664 0.25342 0.57089 0.0
O1591 O 0.34836 0.22151 0.59342 0.0
O1592 O 0.31969 0.31076 0.5948 0.0
O1593 O 0.3518 0.30846 0.5789 0.0
O1594 O 0.30651 0.26097 0.5945 0.0
O1595 O 0.32609 0.25656 0.62333 0.0
O1596 O 0.34703 0.25937 0.65384 0.0
O1597 O 0.35205 0.29191 0.63342 0.0
C1598 C 0.34734 0.23092 0.57354 0.0
C1599 C 0.35081 0.28135 0.65292 0.0
Dy1600 Dy 0.13257 0.49474 0.36813 0.0
C1601 C 0.17389 0.41347 0.40547 0.0
C1602 C 0.1092 0.53048 0.35055 0.0
Dy1603 Dy 0.15564 0.4555 0.39576 0.0
O1604 O 0.11122 0.51068 0.34143 0.0
O1605 O 0.11993 0.53066 0.36954 0.0
O1606 O 0.15284 0.48221 0.33898 0.0
O1607 O 0.14157 0.45971 0.36308 0.0
C1608 C 0.15341 0.4615 0.34612 0.0
C1609 C 0.13514 0.48757 0.41937 0.0
O1610 O 0.18676 0.47778 0.38825 0.0
O1611 O 0.16726 0.50952 0.37371 0.0
O1612 O 0.16266 0.42651 0.41897 0.0
O1613 O 0.17643 0.42447 0.3871 0.0
O1614 O 0.13957 0.46754 0.42736 0.0
O1615 O 0.14541 0.49005 0.40149 0.0
O1616 O 0.10091 0.47638 0.37811 0.0
O1617 O 0.11956 0.44303 0.38858 0.0
C1618 C 0.18644 0.49899 0.38031 0.0
C1619 C 0.10044 0.4548 0.38381 0.0
Dy1620 Dy 0.25066 0.38192 0.12231 0.0
C1621 C 0.33999 0.41074 0.14935 0.0
C1622 C 0.20834 0.36952 0.10822 0.0
Dy1623 Dy 0.2943 0.40354 0.14836 0.0
O1624 O 0.21254 0.38668 0.12104 0.0
O1625 O 0.2273 0.35849 0.10452 0.0
O1626 O 0.27068 0.37815 0.09138 0.0
O1627 O 0.27989 0.40255 0.11485 0.0
C1628 C 0.28615 0.39262 0.09746 0.0
C1629 C 0.26351 0.38349 0.17481 0.0
O1630 O 0.2737 0.43561 0.14127 0.0
O1631 O 0.24112 0.41879 0.12481 0.0
O1632 O 0.32627 0.41774 0.16492 0.0
O1633 O 0.32846 0.40127 0.13354 0.0
O1634 O 0.28138 0.39396 0.18299 0.0
O1635 O 0.26432 0.38534 0.15445 0.0
O1636 O 0.26885 0.35056 0.13389 0.0
O1637 O 0.30432 0.36721 0.14117 0.0
C1638 C 0.25272 0.43676 0.1319 0.0
C1639 C 0.29142 0.34918 0.13727 0.0
Dy1640 Dy 0.37055 0.4853 0.87488 0.0
C1641 C 0.32899 0.56699 0.90838 0.0
C1642 C 0.38302 0.4446 0.85737 0.0
Dy1643 Dy 0.34633 0.52442 0.90197 0.0
O1644 O 0.39193 0.46392 0.85232 0.0
O1645 O 0.36811 0.44756 0.87292 0.0
O1646 O 0.37643 0.50941 0.84665 0.0
O1647 O 0.3493 0.51447 0.86804 0.0
C1648 C 0.3606 0.52346 0.85319 0.0
C1649 C 0.35653 0.48677 0.92454 0.0
O1650 O 0.31488 0.50671 0.88883 0.0
O1651 O 0.33367 0.4756 0.87306 0.0
O1652 O 0.32441 0.55393 0.89175 0.0
O1653 O 0.34289 0.55651 0.92219 0.0
O1654 O 0.33994 0.50062 0.93031 0.0
O1655 O 0.36787 0.49527 0.90922 0.0
O1656 O 0.40095 0.50044 0.89074 0.0
O1657 O 0.38327 0.53544 0.89709 0.0
C1658 C 0.31476 0.4872 0.87789 0.0
C1659 C 0.40196 0.52242 0.89457 0.0
Dy1660 Dy 0.24842 0.62008 0.60896 0.0
C1661 C 0.15792 0.59483 0.64377 0.0
C1662 C 0.28978 0.63354 0.59396 0.0
Dy1663 Dy 0.20361 0.6048 0.63677 0.0
O1664 O 0.27022 0.64359 0.5898 0.0
O1665 O 0.28681 0.61619 0.60678 0.0
O1666 O 0.23129 0.61649 0.57503 0.0
O1667 O 0.21391 0.60947 0.60331 0.0
C1668 C 0.21159 0.61061 0.58276 0.0
C1669 C 0.24348 0.61006 0.6599 0.0
O1670 O 0.21976 0.57113 0.62662 0.0
O1671 O 0.25581 0.58385 0.61525 0.0
O1672 O 0.16939 0.59067 0.62591 0.0
O1673 O 0.17167 0.60431 0.65825 0.0
O1674 O 0.22679 0.59708 0.66637 0.0
O1675 O 0.23672 0.62095 0.64306 0.0
O1676 O 0.23521 0.65303 0.62087 0.0
O1677 O 0.19839 0.64272 0.63205 0.0
C1678 C 0.24129 0.56758 0.61987 0.0
C1679 C 0.21384 0.65814 0.6264 0.0
Dy1680 Dy 0.13156 0.50125 0.135 0.0
C1681 C 0.15283 0.58929 0.10128 0.0
C1682 C 0.12705 0.45808 0.14963 0.0
Dy1683 Dy 0.14747 0.54341 0.1088 0.0
O1684 O 0.11538 0.47541 0.15675 0.0
O1685 O 0.14068 0.46432 0.13411 0.0
O1686 O 0.12391 0.52245 0.16469 0.0
O1687 O 0.14972 0.53234 0.14305 0.0
C1688 C 0.13788 0.53838 0.15938 0.0
C1689 C 0.13962 0.50566 0.08447 0.0
O1690 O 0.18248 0.52734 0.1147 0.0
O1691 O 0.16917 0.49445 0.13131 0.0
O1692 O 0.14255 0.57522 0.08788 0.0
O1693 O 0.16112 0.5779 0.118 0.0
O1694 O 0.15394 0.5214 0.07869 0.0
O1695 O 0.12859 0.51244 0.10106 0.0
O1696 O 0.09721 0.51369 0.1236 0.0
O1697 O 0.11049 0.54993 0.11791 0.0
C1698 C 0.1859 0.50693 0.12353 0.0
C1699 C 0.09339 0.53565 0.12107 0.0
Dy1700 Dy 0.25177 0.38049 0.87409 0.0
C1701 C 0.16173 0.40386 0.83756 0.0
C1702 C 0.29278 0.37567 0.89639 0.0
Dy1703 Dy 0.20732 0.39203 0.84524 0.0
O1704 O 0.27955 0.39353 0.89656 0.0
O1705 O 0.2838 0.36044 0.88351 0.0
O1706 O 0.22884 0.37766 0.90354 0.0
O1707 O 0.22022 0.40006 0.87799 0.0
C1708 C 0.2135 0.39161 0.89567 0.0
C1709 C 0.24455 0.37896 0.82245 0.0
O1710 O 0.22454 0.42578 0.84848 0.0
O1711 O 0.26126 0.41105 0.85525 0.0
O1712 O 0.17457 0.39255 0.82376 0.0
O1713 O 0.17392 0.40836 0.85509 0.0
O1714 O 0.22844 0.39226 0.81419 0.0
O1715 O 0.23869 0.37205 0.84119 0.0
O1716 O 0.23845 0.34623 0.87081 0.0
O1717 O 0.20147 0.3565 0.85825 0.0
C1718 C 0.24713 0.4281 0.85056 0.0
C1719 C 0.21673 0.34158 0.86655 0.0
Dy1720 Dy 0.36405 0.49982 0.61995 0.0
C1721 C 0.33339 0.41918 0.57574 0.0
C1722 C 0.37773 0.53897 0.63955 0.0
Dy1723 Dy 0.34425 0.4621 0.58936 0.0
O1724 O 0.36208 0.53755 0.62406 0.0
O1725 O 0.38619 0.51902 0.64369 0.0
O1726 O 0.36534 0.47691 0.64922 0.0
O1727 O 0.3412 0.47135 0.62391 0.0
C1728 C 0.35059 0.46294 0.64084 0.0
C1729 C 0.36003 0.4988 0.56887 0.0
O1730 O 0.3112 0.48148 0.5955 0.0
O1731 O 0.32771 0.51179 0.6146 0.0
O1732 O 0.32241 0.43094 0.59044 0.0
O1733 O 0.34956 0.43146 0.5676 0.0
O1734 O 0.34385 0.48622 0.56032 0.0
O1735 O 0.36806 0.48968 0.58601 0.0
O1736 O 0.3964 0.48264 0.61042 0.0
O1737 O 0.37866 0.44878 0.60195 0.0
C1738 C 0.30969 0.50138 0.60578 0.0
C1739 C 0.39725 0.46055 0.60722 0.0
Dy1740 Dy 0.2592 0.62447 0.37953 0.0
C1741 C 0.34052 0.58668 0.34238 0.0
C1742 C 0.22091 0.64223 0.39757 0.0
Dy1743 Dy 0.29701 0.59945 0.354 0.0
O1744 O 0.24171 0.64831 0.40215 0.0
O1745 O 0.22089 0.62685 0.3822 0.0
O1746 O 0.282 0.62772 0.40928 0.0
O1747 O 0.28617 0.60023 0.3879 0.0
C1748 C 0.29477 0.61054 0.40407 0.0
C1749 C 0.26106 0.61418 0.32985 0.0
O1750 O 0.2752 0.56885 0.36216 0.0
O1751 O 0.24446 0.58959 0.37648 0.0
O1752 O 0.32666 0.59938 0.33063 0.0
O1753 O 0.3299 0.57977 0.3598 0.0
O1754 O 0.27274 0.59594 0.32485 0.0
O1755 O 0.27051 0.62421 0.34581 0.0
O1756 O 0.27826 0.65463 0.36838 0.0
O1757 O 0.31167 0.6339 0.3637 0.0
C1758 C 0.25403 0.57004 0.37047 0.0
C1759 C 0.30085 0.65367 0.36676 0.0
Dy1760 Dy 0.36306 0.10304 0.50328 0.0
C1761 C 0.38271 0.1528 0.42331 0.0
C1762 C 0.35107 0.08478 0.54316 0.0
Dy1763 Dy 0.37798 0.13265 0.46352 0.0
O1764 O 0.34624 0.07666 0.52373 0.0
O1765 O 0.36498 0.10153 0.54039 0.0
O1766 O 0.33042 0.09525 0.4844 0.0
O1767 O 0.3465 0.12603 0.48028 0.0
C1768 C 0.33055 0.11394 0.47335 0.0
C1769 C 0.41044 0.12427 0.49365 0.0
O1770 O 0.36672 0.16093 0.48697 0.0
O1771 O 0.36282 0.13816 0.51803 0.0
O1772 O 0.39908 0.14272 0.43446 0.0
O1773 O 0.36368 0.15189 0.43419 0.0
O1774 O 0.40983 0.14246 0.48162 0.0
O1775 O 0.39522 0.11061 0.48736 0.0
O1776 O 0.37729 0.07561 0.48208 0.0
O1777 O 0.37435 0.09658 0.44963 0.0
C1778 C 0.36274 0.15844 0.50853 0.0
C1779 C 0.37627 0.07675 0.46021 0.0
Dy1780 Dy 0.88245 0.38053 0.52938 0.0
C1781 C 0.89291 0.29186 0.48897 0.0
C1782 C 0.87166 0.4207 0.5487 0.0
Dy1783 Dy 0.88883 0.32998 0.51403 0.0
O1784 O 0.89232 0.41387 0.54402 0.0
O1785 O 0.85688 0.40524 0.5434 0.0
O1786 O 0.90647 0.39182 0.50369 0.0
O1787 O 0.91041 0.35939 0.5174 0.0
C1788 C 0.91712 0.37243 0.50249 0.0
C1789 C 0.85358 0.33877 0.53972 0.0
O1790 O 0.91047 0.32856 0.54472 0.0
O1791 O 0.89523 0.36217 0.55947 0.0
O1792 O 0.87974 0.29424 0.5059 0.0
O1793 O 0.90525 0.30994 0.48686 0.0
O1794 O 0.86413 0.3193 0.53987 0.0
O1795 O 0.86098 0.3513 0.5248 0.0
O1796 O 0.86107 0.38225 0.49859 0.0
O1797 O 0.87191 0.34706 0.48456 0.0
C1798 C 0.90735 0.34304 0.56126 0.0
C1799 C 0.86135 0.36703 0.48251 0.0
Dy1800 Dy 0.35826 0.13658 0.24716 0.0
C1801 C 0.38533 0.17337 0.33048 0.0
C1802 C 0.34875 0.1183 0.20675 0.0
Dy1803 Dy 0.37686 0.16237 0.28724 0.0
O1804 O 0.33749 0.11458 0.22464 0.0
O1805 O 0.36457 0.13311 0.21083 0.0
O1806 O 0.34798 0.10761 0.26868 0.0
O1807 O 0.37642 0.12702 0.27753 0.0
C1808 C 0.36329 0.11177 0.28385 0.0
C1809 C 0.37239 0.18744 0.25054 0.0
O1810 O 0.4105 0.14873 0.27487 0.0
O1811 O 0.3962 0.13457 0.24156 0.0
O1812 O 0.39872 0.16127 0.31811 0.0
O1813 O 0.3677 0.18035 0.31885 0.0
O1814 O 0.38706 0.19191 0.26637 0.0
O1815 O 0.35908 0.17206 0.25655 0.0
O1816 O 0.32563 0.15082 0.25948 0.0
O1817 O 0.34038 0.15315 0.29498 0.0
C1818 C 0.41351 0.13908 0.2553 0.0
C1819 C 0.32267 0.15155 0.28102 0.0
Dy1820 Dy 0.62405 0.62269 0.99384 0.0
C1821 C 0.59544 0.65422 0.08082 0.0
C1822 C 0.63505 0.60822 0.95244 0.0
Dy1823 Dy 0.60082 0.64417 0.0362 0.0
O1824 O 0.62343 0.62651 0.95695 0.0
O1825 O 0.6402 0.5977 0.97068 0.0
O1826 O 0.65808 0.6178 0.01076 0.0
O1827 O 0.6353 0.64225 0.02259 0.0
C1828 C 0.65341 0.63107 0.02722 0.0
C1829 C 0.57255 0.6323 0.00203 0.0
O1830 O 0.60616 0.67612 0.01619 0.0
O1831 O 0.61739 0.65842 0.98329 0.0
O1832 O 0.61034 0.66325 0.06775 0.0
O1833 O 0.58263 0.64069 0.06905 0.0
O1834 O 0.5673 0.64822 0.01622 0.0
O1835 O 0.59065 0.62255 0.00858 0.0
O1836 O 0.6126 0.59163 0.01081 0.0
O1837 O 0.61149 0.60858 0.0454 0.0
C1838 C 0.61171 0.67665 0.99484 0.0
C1839 C 0.61271 0.59033 0.03263 0.0
Dy1840 Dy 0.64981 0.38627 0.24359 0.0
C1841 C 0.59957 0.36066 0.32119 0.0
C1842 C 0.67026 0.39942 0.20563 0.0
Dy1843 Dy 0.61954 0.36664 0.28079 0.0
O1844 O 0.67573 0.40607 0.22543 0.0
O1845 O 0.65457 0.38405 0.20692 0.0
O1846 O 0.65412 0.41821 0.26312 0.0
O1847 O 0.62439 0.39937 0.26614 0.0
C1848 C 0.63523 0.41582 0.27383 0.0
C1849 C 0.6338 0.33707 0.25038 0.0
O1850 O 0.5911 0.37582 0.25577 0.0
O1851 O 0.61524 0.38495 0.22677 0.0
O1852 O 0.59688 0.37833 0.30864 0.0
O1853 O 0.61269 0.34596 0.3113 0.0
O1854 O 0.61463 0.33487 0.261 0.0
O1855 O 0.64511 0.35332 0.25817 0.0
O1856 O 0.67776 0.37399 0.26586 0.0
O1857 O 0.65463 0.37394 0.29679 0.0
C1858 C 0.59439 0.38186 0.23476 0.0
C1859 C 0.67532 0.37444 0.28754 0.0
Dy1860 Dy 0.11179 0.88879 0.00431 0.0
C1861 C 0.08385 0.85669 0.91591 0.0
C1862 C 0.11911 0.90211 0.04674 0.0
Dy1863 Dy 0.08879 0.86908 0.95926 0.0
O1864 O 0.12758 0.9118 0.02944 0.0
O1865 O 0.10554 0.88595 0.04042 0.0
O1866 O 0.14899 0.88375 0.99386 0.0
O1867 O 0.12196 0.87505 0.97341 0.0
C1868 C 0.1434 0.87568 0.97452 0.0
C1869 C 0.06103 0.87624 0.99404 0.0
O1870 O 0.10125 0.83717 0.97614 0.0
O1871 O 0.10859 0.85209 0.01145 0.0
O1872 O 0.09749 0.84703 0.93034 0.0
O1873 O 0.07204 0.87276 0.92548 0.0
O1874 O 0.05672 0.86133 0.97862 0.0
O1875 O 0.07805 0.88768 0.98853 0.0
O1876 O 0.10413 0.92048 0.98643 0.0
O1877 O 0.10003 0.90462 0.9512 0.0
C1878 C 0.10686 0.83493 0.99744 0.0
C1879 C 0.10429 0.92202 0.96464 0.0
Dy1880 Dy 0.36367 0.86906 0.23833 0.0
C1881 C 0.40049 0.83798 0.1548 0.0
C1882 C 0.34894 0.8853 0.27792 0.0
Dy1883 Dy 0.38135 0.84418 0.19532 0.0
O1884 O 0.36248 0.86784 0.27533 0.0
O1885 O 0.34251 0.89295 0.25865 0.0
O1886 O 0.37817 0.90128 0.22532 0.0
O1887 O 0.36614 0.8765 0.20336 0.0
C1888 C 0.37671 0.89473 0.20489 0.0
C1889 C 0.37173 0.81759 0.22921 0.0
O1890 O 0.4145 0.85656 0.2114 0.0
O1891 O 0.40075 0.86834 0.24576 0.0
O1892 O 0.38594 0.82431 0.16374 0.0
O1893 O 0.40458 0.85468 0.16817 0.0
O1894 O 0.37273 0.80983 0.2091 0.0
O1895 O 0.37977 0.83709 0.23007 0.0
O1896 O 0.3316 0.85444 0.22437 0.0
O1897 O 0.34374 0.85152 0.18803 0.0
C1898 C 0.41752 0.86516 0.23161 0.0
C1899 C 0.32715 0.85299 0.20293 0.0
Dy1900 Dy 0.1394 0.13348 0.76211 0.0
C1901 C 0.10104 0.1633 0.67831 0.0
C1902 C 0.154 0.11799 0.80239 0.0
Dy1903 Dy 0.11541 0.15897 0.72222 0.0
O1904 O 0.16347 0.11308 0.78369 0.0
O1905 O 0.1368 0.13178 0.79899 0.0
O1906 O 0.14315 0.10229 0.74111 0.0
O1907 O 0.11592 0.12491 0.73529 0.0
C1908 C 0.12611 0.10771 0.72807 0.0
C1909 C 0.12792 0.18446 0.75766 0.0
O1910 O 0.08388 0.15231 0.74283 0.0
O1911 O 0.10406 0.14042 0.77459 0.0
O1912 O 0.09609 0.14695 0.69168 0.0
O1913 O 0.113 0.17819 0.68943 0.0
O1914 O 0.11088 0.18999 0.7442 0.0
O1915 O 0.13852 0.16767 0.74972 0.0
O1916 O 0.17041 0.14565 0.74549 0.0
O1917 O 0.15191 0.15018 0.71149 0.0
C1918 C 0.08472 0.14628 0.7641 0.0
C1919 C 0.17098 0.14739 0.72376 0.0
C1920 C 0.06276 0.17438 0.34369 0.0
C1921 C 0.07918 0.17841 0.36045 0.0
C1922 C 0.0427 0.16255 0.34821 0.0
C1923 C 0.03827 0.15533 0.36976 0.0
H1924 H 0.06477 0.1816 0.32741 0.0
H1925 H 0.02997 0.16032 0.33515 0.0
S1926 S 0.07731 0.15857 0.41851 0.0
N1927 N 0.09124 0.17122 0.39856 0.0
N1928 N 0.05269 0.15057 0.4073 0.0
C1929 C 0.05517 0.15789 0.38624 0.0
C1930 C 0.07599 0.16897 0.38146 0.0
C1931 C 0.08703 0.84683 0.62199 0.0
C1932 C 0.08214 0.85127 0.59957 0.0
C1933 C 0.09886 0.82718 0.6283 0.0
C1934 C 0.10699 0.81208 0.61233 0.0
H1935 H 0.07966 0.85735 0.63483 0.0
H1936 H 0.10081 0.82333 0.64572 0.0
S1937 S 0.10175 0.81799 0.55153 0.0
N1938 N 0.08782 0.84023 0.56144 0.0
N1939 N 0.1119 0.80399 0.57326 0.0
C1940 C 0.10428 0.8175 0.58985 0.0
C1941 C 0.09139 0.83705 0.58345 0.0
C1942 C 0.44784 0.80784 0.84035 0.0
C1943 C 0.44608 0.82867 0.85144 0.0
C1944 C 0.43019 0.79209 0.8411 0.0
C1945 C 0.41007 0.79649 0.853 0.0
H1946 H 0.46298 0.80362 0.83092 0.0
H1947 H 0.43252 0.77617 0.83247 0.0
S1948 S 0.39678 0.84858 0.88487 0.0
N1949 N 0.4225 0.85298 0.8747 0.0
N1950 N 0.38922 0.82324 0.87607 0.0
C1951 C 0.40793 0.8173 0.8641 0.0
C1952 C 0.426 0.8334 0.86339 0.0
C1953 C 0.43051 0.18892 0.14836 0.0
C1954 C 0.42545 0.19903 0.12785 0.0
C1955 C 0.44638 0.17108 0.15025 0.0
C1956 C 0.45818 0.16294 0.1317 0.0
H1957 H 0.42289 0.19558 0.16331 0.0
H1958 H 0.45035 0.16458 0.16661 0.0
S1959 S 0.44875 0.1819 0.07373 0.0
N1960 N 0.43144 0.1983 0.08829 0.0
N1961 N 0.46172 0.16479 0.09166 0.0
C1962 C 0.4521 0.17193 0.11079 0.0
C1963 C 0.43556 0.18997 0.10889 0.0
C1964 C 0.05211 0.81942 0.12257 0.0
C1965 C 0.03055 0.8145 0.13132 0.0
C1966 C 0.06917 0.80253 0.1209 0.0
C1967 C 0.06548 0.7804 0.12859 0.0
H1968 H 0.05526 0.83594 0.1156 0.0
H1969 H 0.08513 0.80671 0.113 0.0
S1970 S 0.01241 0.7597 0.15445 0.0
N1971 N 0.00661 0.78644 0.1485 0.0
N1972 N 0.03906 0.75499 0.14646 0.0
C1973 C 0.04444 0.77573 0.13857 0.0
C1974 C 0.02686 0.79273 0.13965 0.0
C1975 C 0.46472 0.835 0.39304 0.0
C1976 C 0.46852 0.83913 0.37044 0.0
C1977 C 0.44648 0.82156 0.39999 0.0
C1978 C 0.4316 0.81124 0.38463 0.0
H1979 H 0.47572 0.8425 0.40558 0.0
H1980 H 0.44428 0.81891 0.41753 0.0
S1981 S 0.4332 0.81731 0.32369 0.0
N1982 N 0.4551 0.83239 0.33278 0.0
N1983 N 0.42123 0.80674 0.34591 0.0
C1984 C 0.43505 0.81529 0.36205 0.0
C1985 C 0.45337 0.82933 0.35494 0.0
C1986 C 0.41159 0.16022 0.6729 0.0
C1987 C 0.42729 0.15633 0.65579 0.0
C1988 C 0.39043 0.17097 0.66879 0.0
C1989 C 0.38408 0.17757 0.64733 0.0
H1990 H 0.41607 0.15588 0.68982 0.0
H1991 H 0.3796 0.17531 0.68261 0.0
S1992 S 0.41818 0.1699 0.59656 0.0
N1993 N 0.43457 0.15922 0.61657 0.0
N1994 N 0.3943 0.17838 0.60852 0.0
C1995 C 0.39888 0.17239 0.62984 0.0
C1996 C 0.42071 0.16211 0.63417 0.0
C1997 C 0.09838 0.20209 0.91421 0.0
C1998 C 0.09384 0.2161 0.89583 0.0
C1999 C 0.08648 0.18187 0.91697 0.0
C2000 C 0.06961 0.17558 0.90153 0.0
H2001 H 0.11114 0.20683 0.92652 0.0
H2002 H 0.09033 0.1713 0.93119 0.0
S2003 S 0.04831 0.20836 0.85307 0.0
N2004 N 0.06962 0.22338 0.86341 0.0
N2005 N 0.04665 0.18595 0.86914 0.0
C2006 C 0.06399 0.19007 0.88389 0.0
C2007 C 0.07621 0.21032 0.88093 0.0
C2008 C 0.33339 0.06806 0.17202 0.0
C2009 C 0.35482 0.05706 0.17033 0.0
C2010 C 0.33155 0.0893 0.18221 0.0
C2011 C 0.35119 0.10039 0.19022 0.0
H2012 H 0.31787 0.05973 0.16642 0.0
H2013 H 0.31462 0.09658 0.18482 0.0
S2014 S 0.41144 0.07937 0.1882 0.0
N2015 N 0.39613 0.05913 0.17661 0.0
N2016 N 0.3928 0.09947 0.19469 0.0
C2017 C 0.37285 0.0902 0.18724 0.0
C2018 C 0.37464 0.06832 0.17762 0.0
C2019 C 0.17238 0.08529 0.44116 0.0
C2020 C 0.15208 0.09821 0.43833 0.0
C2021 C 0.18878 0.08427 0.42458 0.0
C2022 C 0.18506 0.09565 0.40456 0.0
H2023 H 0.17674 0.07777 0.45702 0.0
H2024 H 0.20532 0.07638 0.42825 0.0
S2025 S 0.13211 0.12644 0.38677 0.0
N2026 N 0.12719 0.11885 0.41252 0.0
N2027 N 0.15797 0.11641 0.38107 0.0
C2028 C 0.16357 0.10593 0.40038 0.0
C2029 C 0.14695 0.10728 0.41739 0.0
C2030 C 0.17342 0.92311 0.67541 0.0
C2031 C 0.15606 0.90864 0.68237 0.0
C2032 C 0.16784 0.94357 0.66489 0.0
C2033 C 0.14478 0.95044 0.66199 0.0
H2034 H 0.19125 0.91939 0.67955 0.0
H2035 H 0.18162 0.95476 0.66045 0.0
S2036 S 0.0931 0.91758 0.67522 0.0
N2037 N 0.11497 0.90126 0.68299 0.0
N2038 N 0.10462 0.94068 0.66517 0.0
C2039 C 0.12735 0.9356 0.66769 0.0
C2040 C 0.133 0.91432 0.6773 0.0
C2041 C 0.34283 0.8542 0.94635 0.0
C2042 C 0.34801 0.87258 0.9603 0.0
C2043 C 0.32695 0.85648 0.9289 0.0
C2044 C 0.31603 0.87731 0.92434 0.0
H2045 H 0.34991 0.8375 0.94972 0.0
H2046 H 0.32219 0.84149 0.91963 0.0
S2047 S 0.32616 0.93153 0.95328 0.0
N2048 N 0.34286 0.91308 0.96655 0.0
N2049 N 0.31316 0.9172 0.93334 0.0
C2050 C 0.32249 0.8963 0.93672 0.0
C2051 C 0.33845 0.89396 0.95483 0.0
C2052 C 0.33419 0.93193 0.31807 0.0
C2053 C 0.35619 0.93932 0.32439 0.0
C2054 C 0.33157 0.91311 0.30406 0.0
C2055 C 0.35081 0.90061 0.29699 0.0
H2056 H 0.31909 0.94164 0.32268 0.0
H2057 H 0.31455 0.9089 0.29796 0.0
S2058 S 0.4119 0.912 0.31083 0.0
N2059 N 0.39735 0.93229 0.32341 0.0
N2060 N 0.3924 0.89605 0.29858 0.0
C2061 C 0.37273 0.90687 0.30469 0.0
C2062 C 0.37543 0.92651 0.31804 0.0
C2063 C 0.31513 0.08556 0.59513 0.0
C2064 C 0.29599 0.09868 0.58806 0.0
C2065 C 0.33325 0.08056 0.58064 0.0
C2066 C 0.33207 0.08777 0.55857 0.0
H2067 H 0.31629 0.07945 0.61193 0.0
H2068 H 0.34817 0.07121 0.5867 0.0
S2069 S 0.28455 0.11996 0.53113 0.0
N2070 N 0.27642 0.11711 0.55694 0.0
N2071 N 0.3098 0.10713 0.52991 0.0
C2072 C 0.31248 0.09971 0.55109 0.0
C2073 C 0.2945 0.1052 0.56575 0.0
C2074 C 0.13562 0.09768 0.83261 0.0
C2075 C 0.1559 0.10306 0.82161 0.0
C2076 C 0.13411 0.07755 0.84444 0.0
C2077 C 0.15311 0.06283 0.84638 0.0
H2078 H 0.12007 0.10769 0.83007 0.0
H2079 H 0.11759 0.07279 0.85087 0.0
S2080 S 0.21145 0.07189 0.82508 0.0
N2081 N 0.19627 0.09396 0.81616 0.0
N2082 N 0.19369 0.05653 0.8397 0.0
C2083 C 0.17427 0.06944 0.83802 0.0
C2084 C 0.17563 0.0896 0.82532 0.0
C2085 C 0.16737 0.91525 0.08512 0.0
C2086 C 0.1743 0.89317 0.09077 0.0
C2087 C 0.14686 0.91901 0.07315 0.0
C2088 C 0.13254 0.90086 0.06739 0.0
H2089 H 0.17886 0.92927 0.08797 0.0
H2090 H 0.14337 0.93572 0.06651 0.0
S2091 S 0.14069 0.84076 0.08328 0.0
N2092 N 0.16399 0.85355 0.09248 0.0
N2093 N 0.12438 0.86094 0.07235 0.0
C2094 C 0.13764 0.87937 0.07614 0.0
C2095 C 0.15901 0.87537 0.0871 0.0
C2096 C 0.17696 0.39435 0.06056 0.0
C2097 C 0.17376 0.37522 0.04722 0.0
C2098 C 0.18504 0.39205 0.08225 0.0
C2099 C 0.19083 0.3706 0.09084 0.0
H2100 H 0.1734 0.41116 0.05417 0.0
H2101 H 0.18867 0.40731 0.09157 0.0
S2102 S 0.18328 0.31534 0.06303 0.0
N2103 N 0.17473 0.33422 0.04447 0.0
N2104 N 0.19094 0.32994 0.0852 0.0
C2105 C 0.18639 0.35134 0.07807 0.0
C2106 C 0.1778 0.35366 0.05613 0.0
C2107 C 0.70184 0.1304 0.93889 0.0
C2108 C 0.7049 0.14173 0.9188 0.0
C2109 C 0.68334 0.13574 0.95227 0.0
C2110 C 0.66754 0.15269 0.946 0.0
H2111 H 0.71398 0.11753 0.94452 0.0
H2112 H 0.68179 0.12698 0.96788 0.0
S2113 S 0.66652 0.18541 0.8938 0.0
N2114 N 0.68971 0.16914 0.8923 0.0
N2115 N 0.65483 0.1795 0.91776 0.0
C2116 C 0.66986 0.16354 0.92557 0.0
C2117 C 0.68862 0.15795 0.91183 0.0
C2118 C 0.15332 0.42965 0.16655 0.0
C2119 C 0.13069 0.4375 0.16273 0.0
C2120 C 0.1583 0.41408 0.18338 0.0
C2121 C 0.14071 0.40546 0.19639 0.0
H2122 H 0.16748 0.43677 0.15759 0.0
H2123 H 0.17606 0.40928 0.18666 0.0
S2124 S 0.07835 0.41825 0.19067 0.0
N2125 N 0.09042 0.43419 0.17183 0.0
N2126 N 0.09958 0.40398 0.20283 0.0
C2127 C 0.11782 0.41176 0.19149 0.0
C2128 C 0.11285 0.42809 0.17478 0.0
C2129 C 0.8267 0.84435 0.44121 0.0
C2130 C 0.83691 0.86442 0.44867 0.0
C2131 C 0.81152 0.84456 0.42286 0.0
C2132 C 0.80692 0.86464 0.41104 0.0
H2133 H 0.82923 0.82881 0.45042 0.0
H2134 H 0.80269 0.82915 0.4184 0.0
S2135 S 0.83097 0.92109 0.42289 0.0
N2136 N 0.84193 0.90458 0.44242 0.0
N2137 N 0.81507 0.90455 0.4071 0.0
C2138 C 0.8184 0.88434 0.41741 0.0
C2139 C 0.83297 0.88434 0.43651 0.0
C2140 C 0.89349 0.06797 0.19623 0.0
C2141 C 0.87209 0.07287 0.20565 0.0
C2142 C 0.89478 0.05632 0.17606 0.0
C2143 C 0.8747 0.05037 0.16439 0.0
H2144 H 0.90925 0.0721 0.20503 0.0
H2145 H 0.91147 0.05122 0.16996 0.0
S2146 S 0.81462 0.06114 0.18116 0.0
N2147 N 0.83049 0.07151 0.20151 0.0
N2148 N 0.83297 0.05133 0.16288 0.0
C2149 C 0.85329 0.05657 0.17295 0.0
C2150 C 0.85195 0.06739 0.19384 0.0
C2151 C 0.32619 0.65002 0.54619 0.0
C2152 C 0.34616 0.63684 0.5496 0.0
C2153 C 0.3088 0.65055 0.56184 0.0
C2154 C 0.31067 0.63762 0.58126 0.0
H2155 H 0.32339 0.659 0.53077 0.0
H2156 H 0.29311 0.65983 0.55786 0.0
S2157 S 0.36152 0.60407 0.60009 0.0
N2158 N 0.36849 0.61355 0.57546 0.0
N2159 N 0.33543 0.61416 0.60473 0.0
C2160 C 0.33146 0.62614 0.58589 0.0
C2161 C 0.34936 0.62585 0.57005 0.0
C2162 C 0.11448 0.58976 0.33084 0.0
C2163 C 0.10952 0.58691 0.3083 0.0
C2164 C 0.11139 0.5719 0.34556 0.0
C2165 C 0.10342 0.55089 0.33788 0.0
H2166 H 0.12266 0.60503 0.33676 0.0
H2167 H 0.11743 0.57388 0.36247 0.0
S2168 S 0.08268 0.53755 0.28117 0.0
N2169 N 0.09246 0.56359 0.27957 0.0
N2170 N 0.08625 0.52996 0.30726 0.0
C2171 C 0.0956 0.54905 0.31589 0.0
C2172 C 0.09893 0.56712 0.30097 0.0
C2173 C 0.40009 0.42298 0.82635 0.0
C2174 C 0.38211 0.42585 0.8414 0.0
C2175 C 0.3967 0.41105 0.80654 0.0
C2176 C 0.37502 0.40241 0.801 0.0
H2177 H 0.41636 0.43129 0.82921 0.0
H2178 H 0.41054 0.41014 0.79479 0.0
S2179 S 0.32355 0.40209 0.83627 0.0
N2180 N 0.34298 0.41596 0.85089 0.0
N2181 N 0.33627 0.39493 0.81304 0.0
C2182 C 0.3575 0.40362 0.81661 0.0
C2183 C 0.36119 0.41494 0.83709 0.0
C2184 C 0.94928 0.83741 0.61076 0.0
C2185 C 0.96459 0.84279 0.62801 0.0
C2186 C 0.92844 0.82704 0.61518 0.0
C2187 C 0.92281 0.82108 0.63691 0.0
H2188 H 0.95361 0.84083 0.59375 0.0
H2189 H 0.91762 0.82205 0.60133 0.0
S2190 S 0.95617 0.83388 0.68785 0.0
N2191 N 0.97183 0.84393 0.66764 0.0
N2192 N 0.9331 0.82299 0.67588 0.0
C2193 C 0.93739 0.82755 0.65435 0.0
C2194 C 0.95828 0.83876 0.6499 0.0
C2195 C 0.90598 0.1748 0.36547 0.0
C2196 C 0.89742 0.18945 0.3816 0.0
C2197 C 0.91739 0.15488 0.37156 0.0
C2198 C 0.92081 0.14933 0.39398 0.0
H2199 H 0.90436 0.17908 0.34812 0.0
H2200 H 0.92498 0.14461 0.35869 0.0
S2201 S 0.89957 0.1812 0.44229 0.0
N2202 N 0.89093 0.19628 0.4207 0.0
N2203 N 0.91343 0.159 0.43218 0.0
C2204 C 0.91114 0.16316 0.41019 0.0
C2205 C 0.89907 0.18325 0.40397 0.0
C2206 C 0.55184 0.19245 0.1614 0.0
C2207 C 0.55338 0.17153 0.15044 0.0
C2208 C 0.57017 0.20752 0.16152 0.0
C2209 C 0.59076 0.20227 0.15068 0.0
H2210 H 0.53639 0.1972 0.17012 0.0
H2211 H 0.56802 0.22356 0.16997 0.0
S2212 S 0.60374 0.14959 0.11963 0.0
N2213 N 0.57727 0.14629 0.1284 0.0
N2214 N 0.6118 0.17463 0.1288 0.0
C2215 C 0.59266 0.18137 0.13972 0.0
C2216 C 0.57391 0.16603 0.13949 0.0
C2217 C 0.54404 0.82099 0.88901 0.0
C2218 C 0.54195 0.83361 0.86928 0.0
C2219 C 0.5609 0.8039 0.89151 0.0
C2220 C 0.57616 0.79902 0.87439 0.0
H2221 H 0.53193 0.82354 0.90221 0.0
H2222 H 0.56093 0.79346 0.90619 0.0
S2223 S 0.58044 0.82897 0.82093 0.0
N2224 N 0.55868 0.84146 0.8334 0.0
N2225 N 0.58986 0.80927 0.8382 0.0
C2226 C 0.57532 0.81243 0.85533 0.0
C2227 C 0.55833 0.82977 0.85273 0.0
C2228 C 0.94496 0.21306 0.86135 0.0
C2229 C 0.92808 0.2146 0.87777 0.0
C2230 C 0.96068 0.19478 0.86091 0.0
C2231 C 0.95983 0.17754 0.87679 0.0
H2232 H 0.94672 0.22652 0.84941 0.0
H2233 H 0.97437 0.19486 0.84899 0.0
S2234 S 0.91732 0.17146 0.92113 0.0
N2235 N 0.91016 0.19543 0.90875 0.0
N2236 N 0.93994 0.16173 0.90786 0.0
C2237 C 0.94234 0.17809 0.89232 0.0
C2238 C 0.92636 0.19645 0.89283 0.0
C2239 C 0.55974 0.19251 0.63288 0.0
C2240 C 0.56882 0.18995 0.61153 0.0
C2241 C 0.54187 0.17878 0.6403 0.0
C2242 C 0.5319 0.16251 0.62634 0.0
H2243 H 0.56633 0.20537 0.64391 0.0
H2244 H 0.53536 0.18138 0.6568 0.0
S2245 S 0.54972 0.14838 0.5693 0.0
N2246 N 0.56703 0.16897 0.57698 0.0
N2247 N 0.53276 0.14406 0.59046 0.0
C2248 C 0.54083 0.15969 0.60503 0.0
C2249 C 0.55944 0.17319 0.59772 0.0
C2250 C 0.60721 0.83068 0.33182 0.0
C2251 C 0.60904 0.81826 0.35137 0.0
C2252 C 0.58805 0.84464 0.32791 0.0
C2253 C 0.57003 0.84589 0.34317 0.0
H2254 H 0.62004 0.82879 0.31914 0.0
H2255 H 0.5869 0.85366 0.31237 0.0
S2256 S 0.56708 0.81562 0.39654 0.0
N2257 N 0.59216 0.80811 0.38633 0.0
N2258 N 0.55535 0.83322 0.37834 0.0
C2259 C 0.57208 0.83382 0.36299 0.0
C2260 C 0.59187 0.82024 0.36725 0.0
C2261 C 0.91101 0.79573 0.07774 0.0
C2262 C 0.89253 0.79771 0.09215 0.0
C2263 C 0.9247 0.81439 0.07352 0.0
C2264 C 0.92048 0.83514 0.08423 0.0
H2265 H 0.916 0.77935 0.07117 0.0
H2266 H 0.94025 0.81167 0.06421 0.0
S2267 S 0.87025 0.85024 0.11817 0.0
N2268 N 0.86779 0.82289 0.11323 0.0
N2269 N 0.8935 0.85808 0.10508 0.0
C2270 C 0.89997 0.83811 0.09571 0.0
C2271 C 0.8861 0.81914 0.10007 0.0
C2272 C 0.66601 0.93378 0.83117 0.0
C2273 C 0.6444 0.94427 0.83359 0.0
C2274 C 0.66811 0.9129 0.82036 0.0
C2275 C 0.64858 0.90163 0.81237 0.0
H2276 H 0.68146 0.94223 0.83678 0.0
H2277 H 0.68513 0.90604 0.81731 0.0
S2278 S 0.58795 0.92126 0.81617 0.0
N2279 N 0.60305 0.94148 0.82807 0.0
N2280 N 0.60687 0.90178 0.80871 0.0
C2281 C 0.62676 0.91127 0.81601 0.0
C2282 C 0.6247 0.93281 0.82633 0.0
C2283 C 0.8267 0.87812 0.59189 0.0
C2284 C 0.81303 0.89779 0.59334 0.0
C2285 C 0.84552 0.87715 0.57788 0.0
C2286 C 0.85059 0.89554 0.56424 0.0
H2287 H 0.82188 0.86286 0.60041 0.0
H2288 H 0.85456 0.86113 0.57609 0.0
S2289 S 0.82202 0.95193 0.5645 0.0
N2290 N 0.8076 0.93699 0.58257 0.0
N2291 N 0.84249 0.93493 0.55522 0.0
C2292 C 0.83834 0.91597 0.56706 0.0
C2293 C 0.81955 0.91713 0.58187 0.0
C2294 C 0.8732 0.06298 0.33574 0.0
C2295 C 0.85495 0.04917 0.34168 0.0
C2296 C 0.86905 0.08327 0.32454 0.0
C2297 C 0.84655 0.0899 0.31835 0.0
H2298 H 0.89082 0.05765 0.33901 0.0
H2299 H 0.88371 0.09262 0.31885 0.0
S2300 S 0.79285 0.06085 0.33255 0.0
N2301 N 0.81354 0.04466 0.34321 0.0
N2302 N 0.8058 0.08236 0.32088 0.0
C2303 C 0.8281 0.07709 0.32569 0.0
C2304 C 0.8323 0.05674 0.33769 0.0
C2305 C 0.66493 0.149 0.053 0.0
C2306 C 0.65539 0.13016 0.04224 0.0
C2307 C 0.68172 0.1463 0.06962 0.0
C2308 C 0.68923 0.1247 0.07648 0.0
H2309 H 0.66054 0.166 0.04762 0.0
H2310 H 0.68965 0.1613 0.07651 0.0
S2311 S 0.66715 0.06992 0.05616 0.0
N2312 N 0.65289 0.08907 0.04135 0.0
N2313 N 0.6842 0.08417 0.0731 0.0
C2314 C 0.67851 0.10572 0.06728 0.0
C2315 C 0.66167 0.10842 0.04998 0.0
C2316 C 0.66644 0.08792 0.69736 0.0
C2317 C 0.64791 0.10249 0.70239 0.0
C2318 C 0.66362 0.06978 0.68257 0.0
C2319 C 0.642 0.0653 0.67303 0.0
H2320 H 0.68281 0.08975 0.7059 0.0
H2321 H 0.67792 0.0582 0.67997 0.0
S2322 S 0.58874 0.09967 0.67883 0.0
N2323 N 0.60792 0.11262 0.69459 0.0
N2324 N 0.60243 0.07784 0.66788 0.0
C2325 C 0.6238 0.08052 0.6768 0.0
C2326 C 0.62682 0.09938 0.69119 0.0
C2327 C 0.69232 0.91891 0.42013 0.0
C2328 C 0.68931 0.90079 0.40549 0.0
C2329 C 0.67495 0.92506 0.43475 0.0
C2330 C 0.65428 0.91299 0.4353 0.0
H2331 H 0.70875 0.9273 0.42135 0.0
H2332 H 0.67869 0.93781 0.44714 0.0
S2333 S 0.63646 0.86762 0.39643 0.0
N2334 N 0.66309 0.87344 0.38951 0.0
N2335 N 0.6302 0.885 0.41695 0.0
C2336 C 0.65007 0.89674 0.41875 0.0
C2337 C 0.66783 0.89045 0.40393 0.0
C2338 C 0.85193 0.91739 0.1503 0.0
C2339 C 0.83868 0.93714 0.1528 0.0
C2340 C 0.84923 0.89916 0.16461 0.0
C2341 C 0.83364 0.90064 0.1821 0.0
H2342 H 0.86572 0.91674 0.13848 0.0
H2343 H 0.86112 0.88497 0.16341 0.0
S2344 S 0.792 0.9473 0.19244 0.0
N2345 N 0.80711 0.956 0.17127 0.0
N2346 N 0.80211 0.92181 0.19863 0.0
C2347 C 0.81848 0.9193 0.18301 0.0
C2348 C 0.8211 0.93771 0.16826 0.0
C2349 C 0.86039 0.11694 0.92362 0.0
C2350 C 0.86458 0.09598 0.93388 0.0
C2351 C 0.84 0.12074 0.91177 0.0
C2352 C 0.82404 0.10337 0.90897 0.0
H2353 H 0.87119 0.13133 0.92725 0.0
H2354 H 0.83593 0.13777 0.90628 0.0
S2355 S 0.8307 0.04386 0.92671 0.0
N2356 N 0.85377 0.05655 0.93673 0.0
N2357 N 0.8159 0.06345 0.91296 0.0
C2358 C 0.8299 0.08146 0.91587 0.0
C2359 C 0.8503 0.07775 0.92863 0.0
C2360 C 0.8209 0.6445 0.93982 0.0
C2361 C 0.82697 0.62249 0.94652 0.0
C2362 C 0.81116 0.6484 0.91891 0.0
C2363 C 0.80788 0.63046 0.90402 0.0
H2364 H 0.82252 0.65856 0.95123 0.0
H2365 H 0.80448 0.66514 0.91506 0.0
S2366 S 0.82541 0.57053 0.91223 0.0
N2367 N 0.83155 0.58305 0.93595 0.0
N2368 N 0.81484 0.59062 0.896 0.0
C2369 C 0.81637 0.60886 0.90966 0.0
C2370 C 0.82531 0.60473 0.93124 0.0
C2371 C 0.3185 0.86576 0.05122 0.0
C2372 C 0.3343 0.84889 0.05771 0.0
C2373 C 0.29914 0.87023 0.06378 0.0
C2374 C 0.29517 0.85813 0.08327 0.0
H2375 H 0.32071 0.8751 0.03603 0.0
H2376 H 0.28709 0.88311 0.05799 0.0
S2377 S 0.33304 0.8142 0.10864 0.0
N2378 N 0.34594 0.82125 0.0856 0.0
N2379 N 0.30944 0.82997 0.10951 0.0
C2380 C 0.31139 0.84194 0.0905 0.0
C2381 C 0.33105 0.83724 0.07759 0.0
C2382 C 0.85493 0.57122 0.832 0.0
C2383 C 0.87738 0.56303 0.83614 0.0
C2384 C 0.85043 0.58658 0.8149 0.0
C2385 C 0.86834 0.59473 0.80206 0.0
H2386 H 0.84053 0.56444 0.84087 0.0
H2387 H 0.83278 0.59161 0.81129 0.0
S2388 S 0.93035 0.58082 0.80833 0.0
N2389 N 0.91781 0.56537 0.82729 0.0
N2390 N 0.90951 0.59541 0.79588 0.0
C2391 C 0.89105 0.58814 0.80723 0.0
C2392 C 0.89554 0.57193 0.82415 0.0
C2393 C 0.16592 0.11256 0.56043 0.0
C2394 C 0.1591 0.1343 0.5534 0.0
C2395 C 0.17708 0.10913 0.58072 0.0
C2396 C 0.18263 0.12744 0.59452 0.0
H2397 H 0.16358 0.09809 0.5497 0.0
H2398 H 0.18299 0.09215 0.58474 0.0
S2399 S 0.16602 0.18749 0.585 0.0
N2400 N 0.15629 0.17414 0.56279 0.0
N2401 N 0.17812 0.16791 0.60097 0.0
C2402 C 0.17437 0.14913 0.58854 0.0
C2403 C 0.16248 0.15253 0.56789 0.0
C2404 C 0.10978 0.92189 0.80563 0.0
C2405 C 0.12837 0.92572 0.79157 0.0
C2406 C 0.10747 0.93406 0.82546 0.0
C2407 C 0.12368 0.95037 0.83146 0.0
H2408 H 0.09679 0.9098 0.80109 0.0
H2409 H 0.09285 0.93101 0.83586 0.0
S2410 S 0.1734 0.96907 0.79911 0.0
N2411 N 0.162 0.94849 0.78433 0.0
N2412 N 0.15749 0.97129 0.82134 0.0
C2413 C 0.14183 0.95484 0.81728 0.0
C2414 C 0.14419 0.94257 0.79731 0.0
C2415 C 0.67999 0.39597 0.42352 0.0
C2416 C 0.68995 0.37467 0.41913 0.0
C2417 C 0.66284 0.39844 0.43931 0.0
C2418 C 0.65458 0.37961 0.45064 0.0
H2419 H 0.68647 0.41104 0.41574 0.0
H2420 H 0.65637 0.41527 0.44307 0.0
S2421 S 0.67303 0.31994 0.44329 0.0
N2422 N 0.68929 0.33425 0.42625 0.0
N2423 N 0.65609 0.33882 0.45523 0.0
C2424 C 0.66317 0.35804 0.4453 0.0
C2425 C 0.68116 0.35559 0.42968 0.0
C2426 C 0.86413 0.42883 0.64458 0.0
C2427 C 0.88589 0.43839 0.64166 0.0
C2428 C 0.8602 0.41464 0.66248 0.0
C2429 C 0.87809 0.40911 0.67727 0.0
H2430 H 0.84946 0.43436 0.63463 0.0
H2431 H 0.84292 0.40887 0.66541 0.0
S2432 S 0.93916 0.42516 0.67342 0.0
N2433 N 0.92616 0.4385 0.65267 0.0
N2434 N 0.91903 0.41053 0.68571 0.0
C2435 C 0.9005 0.41595 0.67274 0.0
C2436 C 0.90437 0.43093 0.65492 0.0
C2437 C 0.64194 0.57514 0.17521 0.0
C2438 C 0.62073 0.56672 0.16769 0.0
C2439 C 0.64363 0.58709 0.19509 0.0
C2440 C 0.62406 0.59169 0.20765 0.0
H2441 H 0.65764 0.57103 0.16658 0.0
H2442 H 0.66047 0.59218 0.201 0.0
S2443 S 0.56415 0.57633 0.19352 0.0
N2444 N 0.57952 0.5654 0.17328 0.0
N2445 N 0.58257 0.58921 0.2102 0.0
C2446 C 0.6025 0.58511 0.19943 0.0
C2447 C 0.60086 0.57225 0.1795 0.0
C2448 C 0.53924 0.66135 0.84933 0.0
C2449 C 0.53457 0.65392 0.87078 0.0
C2450 C 0.55885 0.67411 0.84527 0.0
C2451 C 0.57476 0.6787 0.86235 0.0
H2452 H 0.527 0.65847 0.83597 0.0
H2453 H 0.56104 0.6813 0.829 0.0
S2454 S 0.57205 0.65945 0.92051 0.0
N2455 N 0.54803 0.65052 0.90879 0.0
N2456 N 0.58602 0.67234 0.90077 0.0
C2457 C 0.5713 0.6694 0.88334 0.0
C2458 C 0.5508 0.65759 0.8877 0.0
C2459 C 0.59981 0.34489 0.09183 0.0
C2460 C 0.59084 0.36017 0.10727 0.0
C2461 C 0.60965 0.32442 0.09878 0.0
C2462 C 0.61041 0.31868 0.12129 0.0
H2463 H 0.59706 0.3477 0.07429 0.0
H2464 H 0.61501 0.31231 0.08635 0.0
S2465 S 0.59437 0.35499 0.16843 0.0
N2466 N 0.58729 0.36998 0.14629 0.0
N2467 N 0.60556 0.33109 0.15911 0.0
C2468 C 0.60397 0.33476 0.13698 0.0
C2469 C 0.59437 0.35579 0.12999 0.0
C2470 C 0.90906 0.31867 0.33774 0.0
C2471 C 0.91102 0.30376 0.35571 0.0
C2472 C 0.92647 0.33416 0.33343 0.0
C2473 C 0.94635 0.33516 0.34693 0.0
H2474 H 0.89424 0.31808 0.3267 0.0
H2475 H 0.92443 0.34525 0.31931 0.0
S2476 S 0.95931 0.30015 0.3965 0.0
N2477 N 0.93395 0.29152 0.38762 0.0
N2478 N 0.9668 0.32008 0.37912 0.0
C2479 C 0.94831 0.32053 0.36512 0.0
C2480 C 0.93056 0.30499 0.36964 0.0
C2481 C 0.94774 0.67681 0.65199 0.0
C2482 C 0.95878 0.6686 0.63312 0.0
C2483 C 0.93063 0.69355 0.65026 0.0
C2484 C 0.92366 0.70237 0.6296 0.0
H2485 H 0.95311 0.67113 0.6683 0.0
H2486 H 0.92347 0.70037 0.66534 0.0
S2487 S 0.94433 0.68385 0.57493 0.0
N2488 N 0.95953 0.66853 0.59283 0.0
N2489 N 0.92708 0.7 0.58979 0.0
C2490 C 0.93312 0.69306 0.61048 0.0
C2491 C 0.95084 0.67619 0.61221 0.0
C2492 C 0.55246 0.31749 0.60484 0.0
C2493 C 0.54024 0.32304 0.62391 0.0
C2494 C 0.56934 0.30056 0.6051 0.0
C2495 C 0.57441 0.28806 0.62439 0.0
H2496 H 0.54829 0.32576 0.58928 0.0
H2497 H 0.57766 0.29661 0.58965 0.0
S2498 S 0.5486 0.29777 0.67939 0.0
N2499 N 0.53539 0.31636 0.66309 0.0
N2500 N 0.56707 0.28393 0.6637 0.0
C2501 C 0.56313 0.29431 0.64398 0.0
C2502 C 0.54606 0.31198 0.64373 0.0
C2503 C 0.93608 0.31606 0.86896 0.0
C2504 C 0.9359 0.30866 0.89107 0.0
C2505 C 0.95318 0.33074 0.86134 0.0
C2506 C 0.97077 0.33864 0.87556 0.0
H2507 H 0.92275 0.3107 0.8575 0.0
H2508 H 0.95238 0.33615 0.84426 0.0
S2509 S 0.97868 0.32304 0.93482 0.0
N2510 N 0.95526 0.30965 0.92685 0.0
N2511 N 0.98726 0.33682 0.91283 0.0
C2512 C 0.97088 0.33096 0.89767 0.0
C2513 C 0.95351 0.31612 0.90534 0.0
C2514 C 0.89533 0.67308 0.15303 0.0
C2515 C 0.89577 0.68166 0.13148 0.0
C2516 C 0.91221 0.65777 0.16024 0.0
C2517 C 0.9298 0.65079 0.14605 0.0
H2518 H 0.88293 0.67935 0.1648 0.0
H2519 H 0.91221 0.65245 0.17735 0.0
S2520 S 0.93516 0.66471 0.08669 0.0
N2521 N 0.91249 0.67929 0.09493 0.0
N2522 N 0.94458 0.65071 0.10865 0.0
C2523 C 0.92897 0.65749 0.12385 0.0
C2524 C 0.91174 0.67293 0.11649 0.0
C2525 C 0.58843 0.66925 0.38004 0.0
C2526 C 0.58114 0.66322 0.40126 0.0
C2527 C 0.59673 0.69082 0.37598 0.0
C2528 C 0.59897 0.70654 0.3932 0.0
H2529 H 0.58564 0.65814 0.36601 0.0
H2530 H 0.60093 0.69536 0.3592 0.0
S2531 S 0.58633 0.69764 0.45222 0.0
N2532 N 0.57887 0.67377 0.43998 0.0
N2533 N 0.59636 0.71396 0.43255 0.0
C2534 C 0.59404 0.7 0.41481 0.0
C2535 C 0.58481 0.67829 0.41884 0.0
C2536 C 0.86953 0.59065 0.68189 0.0
C2537 C 0.84759 0.59784 0.68858 0.0
C2538 C 0.87259 0.56994 0.67109 0.0
C2539 C 0.85373 0.55621 0.66609 0.0
H2540 H 0.88466 0.60019 0.68645 0.0
H2541 H 0.88986 0.56449 0.66698 0.0
S2542 S 0.79256 0.5689 0.67745 0.0
N2543 N 0.80661 0.5906 0.68801 0.0
N2544 N 0.81225 0.55208 0.66653 0.0
C2545 C 0.83155 0.56401 0.67112 0.0
C2546 C 0.8285 0.58481 0.68266 0.0
C2547 C 0.67602 0.62492 0.90935 0.0
C2548 C 0.68851 0.60476 0.90612 0.0
C2549 C 0.65615 0.62524 0.92194 0.0
C2550 C 0.64884 0.60554 0.93251 0.0
H2551 H 0.68241 0.64082 0.90329 0.0
H2552 H 0.64808 0.64146 0.92538 0.0
S2553 S 0.67327 0.54781 0.92575 0.0
N2554 N 0.69018 0.56407 0.91113 0.0
N2555 N 0.65339 0.56479 0.93618 0.0
C2556 C 0.65985 0.58489 0.92759 0.0
C2557 C 0.67969 0.58448 0.91406 0.0
C2558 C 0.66927 0.45556 0.17885 0.0
C2559 C 0.65439 0.4516 0.16094 0.0
C2560 C 0.67777 0.43757 0.19155 0.0
C2561 C 0.671 0.41523 0.187 0.0
H2562 H 0.67352 0.4727 0.18364 0.0
H2563 H 0.68776 0.4415 0.20629 0.0
S2564 S 0.63759 0.39609 0.13799 0.0
N2565 N 0.63722 0.42397 0.13621 0.0
N2566 N 0.65272 0.38987 0.16055 0.0
C2567 C 0.6585 0.41096 0.16743 0.0
C2568 C 0.65009 0.42933 0.15434 0.0
C2569 C 0.83996 0.35278 0.44954 0.0
C2570 C 0.84756 0.37132 0.46215 0.0
C2571 C 0.82366 0.35564 0.43257 0.0
C2572 C 0.81476 0.37714 0.42721 0.0
H2573 H 0.84545 0.3357 0.45364 0.0
H2574 H 0.81704 0.34072 0.42433 0.0
S2575 S 0.83178 0.43158 0.45241 0.0
N2576 N 0.847 0.41234 0.46622 0.0
N2577 N 0.81646 0.41756 0.43383 0.0
C2578 C 0.82365 0.39606 0.43819 0.0
C2579 C 0.84003 0.39317 0.45583 0.0
C2580 C 0.86989 0.40721 0.80947 0.0
C2581 C 0.85222 0.40878 0.79339 0.0
C2582 C 0.87309 0.42445 0.82514 0.0
C2583 C 0.85841 0.44344 0.82554 0.0
H2584 H 0.88231 0.39341 0.80903 0.0
H2585 H 0.88769 0.42337 0.83641 0.0
S2586 S 0.80801 0.45441 0.78893 0.0
N2587 N 0.81872 0.43006 0.78009 0.0
N2588 N 0.82455 0.46211 0.81 0.0
C2589 C 0.83973 0.44447 0.81069 0.0
C2590 C 0.83664 0.42714 0.79451 0.0
C2591 C 0.84498 0.59923 0.0797 0.0
C2592 C 0.83987 0.58558 0.06123 0.0
C2593 C 0.82846 0.60335 0.09583 0.0
C2594 C 0.80664 0.59373 0.09392 0.0
H2595 H 0.8609 0.60852 0.08062 0.0
H2596 H 0.83211 0.61549 0.10883 0.0
S2597 S 0.78634 0.55351 0.05126 0.0
N2598 N 0.81279 0.55959 0.04404 0.0
N2599 N 0.78162 0.56792 0.07419 0.0
C2600 C 0.80219 0.57827 0.07694 0.0
C2601 C 0.81899 0.57387 0.06067 0.0
C2602 C 0.64244 0.59843 0.33701 0.0
C2603 C 0.66131 0.60178 0.32327 0.0
C2604 C 0.64138 0.57916 0.3502 0.0
C2605 C 0.65958 0.56338 0.35071 0.0
H2606 H 0.62724 0.60915 0.3356 0.0
H2607 H 0.62547 0.57567 0.3585 0.0
S2608 S 0.71498 0.56743 0.32208 0.0
N2609 N 0.70011 0.58995 0.31378 0.0
N2610 N 0.69842 0.55409 0.3396 0.0
C2611 C 0.67979 0.56817 0.33955 0.0
C2612 C 0.68065 0.58747 0.32561 0.0
C2613 C 0.64838 0.41912 0.56967 0.0
C2614 C 0.63409 0.40079 0.56451 0.0
C2615 C 0.66909 0.41573 0.58136 0.0
C2616 C 0.6762 0.39382 0.5874 0.0
H2617 H 0.64465 0.4357 0.5628 0.0
H2618 H 0.68051 0.42988 0.58377 0.0
S2619 S 0.64253 0.34123 0.5821 0.0
N2620 N 0.62612 0.36099 0.57052 0.0
N2621 N 0.66598 0.35428 0.59055 0.0
C2622 C 0.66096 0.37587 0.5844 0.0
C2623 C 0.63945 0.37951 0.57357 0.0
C2624 C 0.69014 0.85615 0.57795 0.0
C2625 C 0.69502 0.87481 0.5915 0.0
C2626 C 0.68018 0.85919 0.557 0.0
C2627 C 0.67543 0.88099 0.54888 0.0
H2628 H 0.69531 0.83925 0.58305 0.0
H2629 H 0.677 0.84447 0.54675 0.0
S2630 S 0.68391 0.93528 0.57851 0.0
N2631 N 0.69293 0.91568 0.5961 0.0
N2632 N 0.67528 0.92144 0.55622 0.0
C2633 C 0.67946 0.89973 0.56257 0.0
C2634 C 0.68884 0.8966 0.58416 0.0
C2635 C 0.184 0.63044 0.41313 0.0
C2636 C 0.20241 0.64553 0.41325 0.0
C2637 C 0.16937 0.62936 0.43111 0.0
C2638 C 0.17282 0.64323 0.4497 0.0
H2639 H 0.18148 0.6187 0.39956 0.0
H2640 H 0.15536 0.61745 0.43056 0.0
S2641 S 0.21703 0.68748 0.45672 0.0
N2642 N 0.22212 0.67609 0.43234 0.0
N2643 N 0.19481 0.67382 0.46641 0.0
C2644 C 0.19065 0.65902 0.44962 0.0
C2645 C 0.20532 0.66033 0.4312 0.0
C2646 C 0.63316 0.90749 0.68069 0.0
C2647 C 0.6272 0.90905 0.70299 0.0
C2648 C 0.62838 0.92548 0.66622 0.0
C2649 C 0.61755 0.9454 0.67378 0.0
H2650 H 0.64254 0.89282 0.6747 0.0
H2651 H 0.63438 0.92428 0.64939 0.0
S2652 S 0.59598 0.95594 0.73035 0.0
N2653 N 0.60815 0.9306 0.73164 0.0
N2654 N 0.59885 0.96442 0.70456 0.0
C2655 C 0.61006 0.94629 0.69576 0.0
C2656 C 0.61505 0.92807 0.71041 0.0
C2657 C 0.31726 0.38952 0.92715 0.0
C2658 C 0.31181 0.3719 0.9125 0.0
C2659 C 0.33108 0.38564 0.94581 0.0
C2660 C 0.34046 0.36409 0.95044 0.0
H2661 H 0.30972 0.40624 0.92495 0.0
H2662 H 0.33368 0.39955 0.95719 0.0
S2663 S 0.33412 0.31289 0.91568 0.0
N2664 N 0.31873 0.33251 0.90255 0.0
N2665 N 0.3452 0.32535 0.93781 0.0
C2666 C 0.33675 0.34668 0.93506 0.0
C2667 C 0.32232 0.35057 0.916 0.0
C2668 C 0.35623 0.56508 0.66337 0.0
C2669 C 0.37762 0.5565 0.65664 0.0
C2670 C 0.35367 0.57429 0.68446 0.0
C2671 C 0.37257 0.57596 0.69905 0.0
H2672 H 0.34094 0.56266 0.65323 0.0
H2673 H 0.33662 0.57932 0.68966 0.0
S2674 S 0.43286 0.55987 0.68758 0.0
N2675 N 0.41843 0.55257 0.66499 0.0
N2676 N 0.41379 0.57126 0.70438 0.0
C2677 C 0.39444 0.56969 0.69165 0.0
C2678 C 0.39694 0.55966 0.6704 0.0
C2679 C 0.83589 0.10057 0.06081 0.0
C2680 C 0.84529 0.11945 0.05041 0.0
C2681 C 0.82021 0.10322 0.07795 0.0
C2682 C 0.81287 0.12485 0.08476 0.0
H2683 H 0.84027 0.08363 0.05529 0.0
H2684 H 0.81268 0.0882 0.08489 0.0
S2685 S 0.83402 0.17961 0.0642 0.0
N2686 N 0.84796 0.16042 0.04951 0.0
N2687 N 0.8174 0.16542 0.08103 0.0
C2688 C 0.82292 0.14385 0.0752 0.0
C2689 C 0.83947 0.14114 0.05819 0.0
C2690 C 0.6056 0.08466 0.82322 0.0
C2691 C 0.62785 0.09218 0.81887 0.0
C2692 C 0.60179 0.06992 0.84075 0.0
C2693 C 0.62002 0.06303 0.85471 0.0
H2694 H 0.59141 0.08886 0.81209 0.0
H2695 H 0.58495 0.06256 0.84236 0.0
S2696 S 0.68038 0.08249 0.85286 0.0
N2697 N 0.66751 0.09467 0.83141 0.0
N2698 N 0.66032 0.06781 0.86519 0.0
C2699 C 0.64178 0.07271 0.85203 0.0
C2700 C 0.64576 0.08705 0.83373 0.0
C2701 C 0.89477 0.91214 0.3021 0.0
C2702 C 0.87329 0.90248 0.29763 0.0
C2703 C 0.89823 0.92547 0.32106 0.0
C2704 C 0.88059 0.92871 0.33643 0.0
H2705 H 0.90836 0.91081 0.29012 0.0
H2706 H 0.91432 0.93431 0.32308 0.0
S2707 S 0.82245 0.90371 0.33378 0.0
N2708 N 0.83493 0.89521 0.31084 0.0
N2709 N 0.84185 0.91883 0.34717 0.0
C2710 C 0.85983 0.9172 0.33313 0.0
C2711 C 0.85604 0.90446 0.31346 0.0
C2712 C 0.46227 0.33313 0.11127 0.0
C2713 C 0.47641 0.33905 0.12929 0.0
C2714 C 0.44141 0.3223 0.11456 0.0
C2715 C 0.43444 0.31647 0.13593 0.0
H2716 H 0.46735 0.33688 0.09453 0.0
H2717 H 0.43128 0.31741 0.1002 0.0
S2718 S 0.46478 0.32963 0.18851 0.0
N2719 N 0.4814 0.34 0.16919 0.0
N2720 N 0.44264 0.3183 0.17534 0.0
C2721 C 0.44813 0.32285 0.15409 0.0
C2722 C 0.46905 0.3345 0.15077 0.0
C2723 C 0.41073 0.64302 0.87384 0.0
C2724 C 0.41683 0.63939 0.89618 0.0
C2725 C 0.39977 0.66308 0.86725 0.0
C2726 C 0.3939 0.67946 0.88295 0.0
H2727 H 0.4167 0.63156 0.86109 0.0
H2728 H 0.39677 0.66621 0.8498 0.0
S2729 S 0.4019 0.67579 0.9437 0.0
N2730 N 0.41363 0.65222 0.93409 0.0
N2731 N 0.39165 0.68951 0.92187 0.0
C2732 C 0.39735 0.6748 0.90551 0.0
C2733 C 0.4091 0.6547 0.91213 0.0
C2734 C 0.05934 0.67775 0.63198 0.0
C2735 C 0.06232 0.6628 0.6498 0.0
C2736 C 0.07605 0.69374 0.62718 0.0
C2737 C 0.09632 0.69535 0.64005 0.0
H2738 H 0.04377 0.67746 0.62194 0.0
H2739 H 0.07274 0.70529 0.6136 0.0
S2740 S 0.11322 0.65899 0.68748 0.0
N2741 N 0.0877 0.64976 0.67965 0.0
N2742 N 0.11912 0.67984 0.67049 0.0
C2743 C 0.09994 0.67997 0.65738 0.0
C2744 C 0.0829 0.66369 0.66232 0.0
C2745 C 0.07314 0.30991 0.3525 0.0
C2746 C 0.0785 0.29936 0.37279 0.0
C2747 C 0.0573 0.32787 0.3512 0.0
C2748 C 0.0459 0.3355 0.37011 0.0
H2749 H 0.08039 0.30345 0.33731 0.0
H2750 H 0.05279 0.3347 0.33508 0.0
S2751 S 0.05663 0.31592 0.42762 0.0
N2752 N 0.07356 0.29966 0.41251 0.0
N2753 N 0.04325 0.33323 0.41014 0.0
C2754 C 0.05246 0.32627 0.39075 0.0
C2755 C 0.06897 0.30824 0.39209 0.0
C2756 C 0.45622 0.68462 0.36206 0.0
C2757 C 0.46738 0.67948 0.38228 0.0
C2758 C 0.43959 0.70217 0.36064 0.0
C2759 C 0.43341 0.71474 0.37948 0.0
H2760 H 0.46057 0.67527 0.34726 0.0
H2761 H 0.43128 0.70568 0.34485 0.0
S2762 S 0.45776 0.708 0.43623 0.0
N2763 N 0.47106 0.68855 0.42144 0.0
N2764 N 0.44009 0.72104 0.41878 0.0
C2765 C 0.44444 0.70961 0.39972 0.0
C2766 C 0.46134 0.69209 0.40112 0.0
C2767 C 0.04474 0.66938 0.13926 0.0
C2768 C 0.02951 0.65906 0.124 0.0
C2769 C 0.06161 0.68456 0.1323 0.0
C2770 C 0.06398 0.69003 0.10986 0.0
H2771 H 0.04366 0.66575 0.1567 0.0
H2772 H 0.07288 0.6921 0.14465 0.0
S2773 S 0.02921 0.66743 0.06309 0.0
N2774 N 0.01851 0.65537 0.08514 0.0
N2775 N 0.05004 0.68372 0.07236 0.0
C2776 C 0.04904 0.67981 0.09443 0.0
C2777 C 0.03189 0.66441 0.10146 0.0
C2778 C 0.10224 0.33863 0.87633 0.0
C2779 C 0.11696 0.32839 0.86094 0.0
C2780 C 0.08196 0.34932 0.86933 0.0
C2781 C 0.07632 0.35066 0.84679 0.0
H2782 H 0.10505 0.33623 0.89393 0.0
H2783 H 0.07016 0.35548 0.88165 0.0
S2784 S 0.11296 0.33289 0.80005 0.0
N2785 N 0.12743 0.32476 0.8224 0.0
N2786 N 0.08931 0.34532 0.80902 0.0
C2787 C 0.09259 0.34351 0.83123 0.0
C2788 C 0.11317 0.33245 0.83841 0.0
C2789 C 0.40205 0.29626 0.58944 0.0
C2790 C 0.40267 0.28497 0.60985 0.0
C2791 C 0.41335 0.3168 0.58683 0.0
C2792 C 0.42501 0.32666 0.60474 0.0
H2793 H 0.39334 0.28885 0.57528 0.0
H2794 H 0.4136 0.32463 0.57066 0.0
S2795 S 0.43293 0.30312 0.66116 0.0
N2796 N 0.41663 0.28469 0.64798 0.0
N2797 N 0.43761 0.32336 0.64313 0.0
C2798 C 0.42559 0.31562 0.62525 0.0
C2799 C 0.41451 0.29465 0.6278 0.0
C2800 C 0.15969 0.40161 0.32615 0.0
C2801 C 0.17348 0.40397 0.30752 0.0
C2802 C 0.1543 0.42028 0.33926 0.0
C2803 C 0.16268 0.44184 0.33428 0.0
H2804 H 0.15139 0.38571 0.32957 0.0
H2805 H 0.14224 0.41806 0.35247 0.0
S2806 S 0.20378 0.45582 0.29048 0.0
N2807 N 0.19868 0.42861 0.28698 0.0
N2808 N 0.18842 0.46385 0.3119 0.0
C2809 C 0.17842 0.44397 0.31718 0.0
C2810 C 0.18401 0.4249 0.3038 0.0
C2811 C 0.33965 0.36541 0.07599 0.0
C2812 C 0.35065 0.38356 0.06586 0.0
C2813 C 0.31932 0.36884 0.08742 0.0
C2814 C 0.30981 0.39059 0.08983 0.0
H2815 H 0.34553 0.34816 0.07337 0.0
H2816 H 0.3103 0.35418 0.09326 0.0
S2817 S 0.33464 0.44425 0.07081 0.0
N2818 N 0.35253 0.42446 0.06182 0.0
N2819 N 0.31448 0.43089 0.08438 0.0
C2820 C 0.32203 0.40919 0.08222 0.0
C2821 C 0.3426 0.40568 0.07006 0.0
C2822 C 0.33728 0.53736 0.82164 0.0
C2823 C 0.35139 0.5421 0.83995 0.0
C2824 C 0.32963 0.55471 0.80765 0.0
C2825 C 0.33625 0.57723 0.81142 0.0
H2826 H 0.33288 0.52005 0.81765 0.0
H2827 H 0.32006 0.55014 0.79284 0.0
S2828 S 0.36905 0.59851 0.86005 0.0
N2829 N 0.36862 0.5708 0.86342 0.0
N2830 N 0.35456 0.60367 0.83687 0.0
C2831 C 0.34843 0.58236 0.831 0.0
C2832 C 0.35609 0.56464 0.84532 0.0
C2833 C 0.1911 0.60018 0.54816 0.0
C2834 C 0.19021 0.60983 0.56936 0.0
C2835 C 0.17318 0.60352 0.53273 0.0
C2836 C 0.15403 0.61728 0.53769 0.0
H2837 H 0.20627 0.59081 0.54312 0.0
H2838 H 0.17518 0.59656 0.51629 0.0
S2839 S 0.14257 0.64488 0.59158 0.0
N2840 N 0.16777 0.63213 0.5952 0.0
N2841 N 0.13437 0.63913 0.56593 0.0
C2842 C 0.15236 0.62609 0.55923 0.0
C2843 C 0.1704 0.62217 0.57515 0.0
C2844 C 0.15769 0.57126 0.17748 0.0
C2845 C 0.13741 0.56097 0.16981 0.0
C2846 C 0.15672 0.59008 0.19181 0.0
C2847 C 0.13545 0.5993 0.19845 0.0
H2848 H 0.17426 0.56372 0.17378 0.0
H2849 H 0.17261 0.5964 0.19888 0.0
S2850 S 0.07774 0.58118 0.17899 0.0
N2851 N 0.09578 0.56304 0.16755 0.0
N2852 N 0.09392 0.59893 0.19318 0.0
C2853 C 0.11527 0.59055 0.18886 0.0
C2854 C 0.11625 0.57118 0.1749 0.0
C2855 C 0.18507 0.41771 0.91272 0.0
C2856 C 0.19102 0.39586 0.90554 0.0
C2857 C 0.16633 0.42115 0.92669 0.0
C2858 C 0.15265 0.40295 0.93312 0.0
H2859 H 0.19607 0.43184 0.90911 0.0
H2860 H 0.16362 0.43776 0.93386 0.0
S2861 S 0.15898 0.34317 0.91513 0.0
N2862 N 0.18058 0.35632 0.90362 0.0
N2863 N 0.1445 0.36288 0.92862 0.0
C2864 C 0.15694 0.38151 0.92383 0.0
C2865 C 0.17649 0.3779 0.91039 0.0
C2866 C 0.33167 0.44974 0.67424 0.0
C2867 C 0.3411 0.44458 0.65367 0.0
C2868 C 0.32876 0.43284 0.68994 0.0
C2869 C 0.33575 0.41042 0.68565 0.0
H2870 H 0.32811 0.46716 0.6788 0.0
H2871 H 0.32299 0.43782 0.7062 0.0
S2872 S 0.35711 0.38787 0.63248 0.0
N2873 N 0.35409 0.41537 0.62837 0.0
N2874 N 0.3487 0.38334 0.65803 0.0
C2875 C 0.34274 0.40469 0.66422 0.0
C2876 C 0.34553 0.42195 0.64815 0.0
C2877 C 0.34729 0.5833 0.42963 0.0
C2878 C 0.35971 0.60234 0.4365 0.0
C2879 C 0.32698 0.58587 0.41711 0.0
C2880 C 0.31828 0.60756 0.41228 0.0
H2881 H 0.35226 0.56661 0.43548 0.0
H2882 H 0.31702 0.57104 0.41303 0.0
S2883 S 0.34568 0.66248 0.42493 0.0
N2884 N 0.36352 0.6432 0.43524 0.0
N2885 N 0.32439 0.64815 0.4136 0.0
C2886 C 0.33143 0.62654 0.41772 0.0
C2887 C 0.35256 0.62386 0.42933 0.0
C2888 C 0.30468 0.1424 0.42341 0.0
C2889 C 0.30116 0.12419 0.40894 0.0
C2890 C 0.31447 0.13886 0.44432 0.0
C2891 C 0.32036 0.11695 0.45143 0.0
H2892 H 0.29857 0.15922 0.41904 0.0
H2893 H 0.31667 0.15321 0.4553 0.0
S2894 S 0.31634 0.06395 0.4189 0.0
N2895 N 0.30622 0.08385 0.40219 0.0
N2896 N 0.32345 0.07704 0.44209 0.0
C2897 C 0.31783 0.09874 0.43679 0.0
C2898 C 0.30867 0.10246 0.41523 0.0
C2899 C 0.82018 0.36306 0.54764 0.0
C2900 C 0.83482 0.3452 0.5541 0.0
C2901 C 0.80161 0.36932 0.56053 0.0
C2902 C 0.79723 0.35797 0.58033 0.0
H2903 H 0.82278 0.37201 0.53229 0.0
H2904 H 0.79051 0.38301 0.55479 0.0
S2905 S 0.83184 0.31132 0.60536 0.0
N2906 N 0.84475 0.31699 0.58195 0.0
N2907 N 0.80966 0.32897 0.60656 0.0
C2908 C 0.81214 0.34049 0.58736 0.0
C2909 C 0.83103 0.334 0.57408 0.0
C2910 C 0.34982 0.08928 0.31534 0.0
C2911 C 0.36811 0.09669 0.30253 0.0
C2912 C 0.35324 0.07232 0.33118 0.0
C2913 C 0.37488 0.06177 0.33403 0.0
H2914 H 0.33264 0.09612 0.3126 0.0
H2915 H 0.33848 0.06634 0.34004 0.0
S2916 S 0.42861 0.07662 0.3058 0.0
N2917 N 0.40896 0.09394 0.29505 0.0
N2918 N 0.41515 0.06107 0.32407 0.0
C2919 C 0.39352 0.06984 0.3221 0.0
C2920 C 0.39019 0.08762 0.30648 0.0
C2921 C 0.66731 0.64536 0.06443 0.0
C2922 C 0.66403 0.62748 0.04939 0.0
C2923 C 0.68079 0.64222 0.08381 0.0
C2924 C 0.69083 0.62098 0.08893 0.0
H2925 H 0.66062 0.66209 0.06057 0.0
H2926 H 0.6842 0.6567 0.0943 0.0
S2927 S 0.68484 0.56817 0.0563 0.0
N2928 N 0.67053 0.58749 0.04185 0.0
N2929 N 0.69439 0.5814 0.07851 0.0
C2930 C 0.68601 0.60268 0.07488 0.0
C2931 C 0.67302 0.60598 0.05501 0.0
C2932 C 0.64908 0.43766 0.33065 0.0
C2933 C 0.62789 0.44679 0.33722 0.0
C2934 C 0.65117 0.42724 0.3101 0.0
C2935 C 0.63198 0.42486 0.296 0.0
H2936 H 0.66453 0.44039 0.34049 0.0
H2937 H 0.66807 0.42167 0.30495 0.0
S2938 S 0.57218 0.44289 0.30718 0.0
N2939 N 0.58707 0.45122 0.32915 0.0
N2940 N 0.59079 0.43007 0.29086 0.0
C2941 C 0.61034 0.43203 0.30324 0.0
C2942 C 0.60833 0.44337 0.32387 0.0
C2943 C 0.19922 0.85968 0.94769 0.0
C2944 C 0.19532 0.86537 0.92538 0.0
C2945 C 0.18188 0.86223 0.96326 0.0
C2946 C 0.15984 0.86997 0.95702 0.0
H2947 H 0.21615 0.85438 0.95347 0.0
H2948 H 0.18596 0.85871 0.98046 0.0
S2949 S 0.14011 0.88496 0.90027 0.0
N2950 N 0.16742 0.87767 0.89749 0.0
N2951 N 0.13452 0.88182 0.92676 0.0
C2952 C 0.15522 0.87431 0.93454 0.0
C2953 C 0.17308 0.87216 0.91869 0.0
C2954 C 0.37771 0.92197 0.14912 0.0
C2955 C 0.39306 0.93973 0.1531 0.0
C2956 C 0.37384 0.90588 0.1655 0.0
C2957 C 0.3852 0.90738 0.18609 0.0
H2958 H 0.36679 0.92192 0.13446 0.0
H2959 H 0.3604 0.89362 0.1628 0.0
S2960 S 0.43265 0.94578 0.20123 0.0
N2961 N 0.42402 0.95417 0.17641 0.0
N2962 N 0.41632 0.92414 0.20742 0.0
C2963 C 0.40304 0.92283 0.18881 0.0
C2964 C 0.40723 0.93894 0.17207 0.0
C2965 C 0.14085 0.09296 0.69273 0.0
C2966 C 0.12205 0.09737 0.70637 0.0
C2967 C 0.13826 0.08013 0.67346 0.0
C2968 C 0.11695 0.07063 0.66771 0.0
H2969 H 0.15783 0.0988 0.6974 0.0
H2970 H 0.15347 0.07612 0.66404 0.0
S2971 S 0.062 0.07954 0.69672 0.0
N2972 N 0.081 0.09371 0.71166 0.0
N2973 N 0.07634 0.06825 0.67597 0.0
C2974 C 0.09775 0.07607 0.68051 0.0
C2975 C 0.10026 0.08982 0.69977 0.0
C2976 C 0.96334 0.09701 0.2974 0.0
C2977 C 0.96636 0.11422 0.31331 0.0
C2978 C 0.94772 0.09982 0.27937 0.0
C2979 C 0.93496 0.12007 0.27639 0.0
H2980 H 0.97196 0.08082 0.29964 0.0
H2981 H 0.94464 0.08561 0.26844 0.0
S2982 S 0.93865 0.17115 0.31172 0.0
N2983 N 0.95669 0.15292 0.32356 0.0
N2984 N 0.9277 0.158 0.28997 0.0
C2985 C 0.93888 0.13773 0.29145 0.0
C2986 C 0.95451 0.13487 0.30977 0.0
C2987 C 0.13248 0.74243 0.52453 0.0
C2988 C 0.13964 0.72009 0.52064 0.0
C2989 C 0.14015 0.75397 0.54349 0.0
C2990 C 0.15451 0.74311 0.55924 0.0
H2991 H 0.12035 0.75069 0.51332 0.0
H2992 H 0.13353 0.77086 0.54658 0.0
S2993 S 0.17874 0.68505 0.5559 0.0
N2994 N 0.16293 0.68798 0.53316 0.0
N2995 N 0.17642 0.70936 0.56919 0.0
C2996 C 0.1624 0.7211 0.55503 0.0
C2997 C 0.15513 0.70962 0.53559 0.0
C2998 C 0.54193 0.89612 0.77586 0.0
C2999 C 0.52293 0.88172 0.77549 0.0
C3000 C 0.56243 0.88984 0.76559 0.0
C3001 C 0.56456 0.86913 0.75427 0.0
H3002 H 0.54167 0.91151 0.7856 0.0
H3003 H 0.57707 0.90088 0.76732 0.0
S3004 S 0.51867 0.82726 0.7451 0.0
N3005 N 0.50658 0.84714 0.76042 0.0
N3006 N 0.54521 0.83562 0.7408 0.0
C3007 C 0.54507 0.85564 0.75184 0.0
C3008 C 0.52418 0.8619 0.76252 0.0
C3009 C 0.37662 0.26889 0.03683 0.0
C3010 C 0.39315 0.26746 0.05408 0.0
C3011 C 0.37985 0.28317 0.01842 0.0
C3012 C 0.39984 0.29622 0.01647 0.0
H3013 H 0.3603 0.2605 0.03846 0.0
H3014 H 0.36574 0.28558 0.00674 0.0
S3015 S 0.44978 0.29585 0.05518 0.0
N3016 N 0.4315 0.27824 0.06637 0.0
N3017 N 0.43725 0.30488 0.03212 0.0
C3018 C 0.41723 0.2933 0.03256 0.0
C3019 C 0.41398 0.27897 0.05124 0.0
C3020 C 0.96589 0.85141 0.20073 0.0
C3021 C 0.9647 0.86956 0.18561 0.0
C3022 C 0.94971 0.84942 0.21793 0.0
C3023 C 0.9318 0.8655 0.22048 0.0
H3024 H 0.97853 0.83804 0.19849 0.0
H3025 H 0.95036 0.83452 0.2283 0.0
S3026 S 0.92291 0.91732 0.18646 0.0
N3027 N 0.9453 0.9045 0.17535 0.0
N3028 N 0.91557 0.90131 0.20745 0.0
C3029 C 0.93155 0.88438 0.2062 0.0
C3030 C 0.94775 0.88623 0.18881 0.0
C3031 C 0.40568 0.72615 0.47798 0.0
C3032 C 0.38414 0.73148 0.46811 0.0
C3033 C 0.40848 0.70762 0.49242 0.0
C3034 C 0.38983 0.69382 0.49747 0.0
H3035 H 0.42081 0.73542 0.47339 0.0
H3036 H 0.42564 0.70299 0.49814 0.0
S3037 S 0.32951 0.70181 0.47812 0.0
N3038 N 0.3435 0.72255 0.46628 0.0
N3039 N 0.34886 0.68775 0.49309 0.0
C3040 C 0.36798 0.69994 0.48902 0.0
C3041 C 0.36509 0.71879 0.47446 0.0
C3042 C 0.56022 0.10712 0.74325 0.0
C3043 C 0.56056 0.12657 0.7567 0.0
C3044 C 0.54164 0.10278 0.72904 0.0
C3045 C 0.52305 0.11803 0.72756 0.0
H3046 H 0.57499 0.09578 0.74283 0.0
H3047 H 0.54274 0.0884 0.71796 0.0
S3048 S 0.51425 0.16963 0.76155 0.0
N3049 N 0.53964 0.15965 0.76967 0.0
N3050 N 0.50471 0.15186 0.74251 0.0
C3051 C 0.52233 0.13656 0.74219 0.0
C3052 C 0.54113 0.14076 0.75694 0.0
C3053 C 0.12112 0.31282 0.95947 0.0
C3054 C 0.13171 0.31386 0.98045 0.0
C3055 C 0.12719 0.29615 0.94405 0.0
C3056 C 0.14444 0.27976 0.94855 0.0
H3057 H 0.10848 0.32556 0.95458 0.0
H3058 H 0.11863 0.29657 0.92807 0.0
S3059 S 0.17679 0.2741 0.00153 0.0
N3060 N 0.15957 0.29616 0.00552 0.0
N3061 N 0.17122 0.26489 0.9762 0.0
C3062 C 0.15445 0.27977 0.96987 0.0
C3063 C 0.14806 0.29681 0.98585 0.0
C3064 C 0.27453 0.98571 0.13756 0.0
C3065 C 0.29309 0.98349 0.12288 0.0
C3066 C 0.25822 0.96814 0.13998 0.0
C3067 C 0.26001 0.94767 0.12795 0.0
H3068 H 0.2733 0.00051 0.14806 0.0
H3069 H 0.24482 0.97019 0.15206 0.0
S3070 S 0.30407 0.9348 0.08556 0.0
N3071 N 0.31108 0.95996 0.09513 0.0
N3072 N 0.28086 0.92772 0.09907 0.0
C3073 C 0.27783 0.94606 0.11238 0.0
C3074 C 0.29421 0.96369 0.11005 0.0
C3075 C 0.28455 0.01281 0.34507 0.0
C3076 C 0.29101 0.00521 0.36639 0.0
C3077 C 0.26755 0.02971 0.34192 0.0
C3078 C 0.25677 0.0399 0.36005 0.0
H3079 H 0.29389 0.00678 0.33082 0.0
H3080 H 0.26434 0.03619 0.32541 0.0
S3081 S 0.26619 0.025 0.41904 0.0
N3082 N 0.28401 0.00804 0.40567 0.0
N3083 N 0.2525 0.04011 0.39991 0.0
C3084 C 0.26204 0.03146 0.3813 0.0
C3085 C 0.27904 0.01401 0.38446 0.0
C3086 C 0.2062 0.03204 0.65948 0.0
C3087 C 0.20671 0.02139 0.63867 0.0
C3088 C 0.22352 0.04676 0.66616 0.0
C3089 C 0.24198 0.05122 0.65231 0.0
H3090 H 0.19142 0.03033 0.67 0.0
H3091 H 0.22124 0.05646 0.68121 0.0
S3092 S 0.25326 0.02484 0.5979 0.0
N3093 N 0.22867 0.01387 0.6056 0.0
N3094 N 0.26145 0.04177 0.61823 0.0
C3095 C 0.24412 0.03869 0.63266 0.0
C3096 C 0.22635 0.02368 0.62577 0.0
C3097 C 0.24114 0.9607 0.9028 0.0
C3098 C 0.24851 0.95264 0.88211 0.0
C3099 C 0.22379 0.97741 0.9044 0.0
C3100 C 0.2128 0.9861 0.88535 0.0
H3101 H 0.24768 0.95287 0.91783 0.0
H3102 H 0.21763 0.9821 0.9206 0.0
S3103 S 0.22712 0.97205 0.8274 0.0
N3104 N 0.24486 0.95604 0.84232 0.0
N3105 N 0.21177 0.98684 0.84523 0.0
C3106 C 0.22099 0.9792 0.86462 0.0
C3107 C 0.23901 0.96264 0.86302 0.0
C3108 C 0.60333 0.22616 0.0436 0.0
C3109 C 0.61581 0.22753 0.02406 0.0
C3110 C 0.61137 0.23643 0.06294 0.0
C3111 C 0.63202 0.24864 0.06333 0.0
H3112 H 0.58832 0.21555 0.0445 0.0
H3113 H 0.60175 0.23398 0.07791 0.0
S3114 S 0.66841 0.26097 0.01532 0.0
N3115 N 0.64785 0.24473 0.00526 0.0
N3116 N 0.66286 0.26433 0.04181 0.0
C3117 C 0.64333 0.25214 0.04338 0.0
C3118 C 0.63519 0.24153 0.02365 0.0
C3119 C 0.05604 0.36825 0.25663 0.0
C3120 C 0.07733 0.37798 0.26185 0.0
C3121 C 0.03618 0.37459 0.26809 0.0
C3122 C 0.03684 0.39112 0.28488 0.0
H3123 H 0.05493 0.35475 0.24455 0.0
H3124 H 0.02045 0.36555 0.26462 0.0
S3125 S 0.08764 0.42429 0.30237 0.0
N3126 N 0.09736 0.40695 0.28314 0.0
N3127 N 0.06001 0.41882 0.30445 0.0
C3128 C 0.0576 0.40232 0.28894 0.0
C3129 C 0.07787 0.39571 0.27751 0.0
C3130 C 0.87158 0.7868 0.5205 0.0
C3131 C 0.89091 0.80069 0.5182 0.0
C3132 C 0.86957 0.77198 0.53872 0.0
C3133 C 0.88662 0.77089 0.55555 0.0
H3134 H 0.85717 0.78861 0.50906 0.0
H3135 H 0.85379 0.76269 0.54049 0.0
S3136 S 0.94157 0.80228 0.55601 0.0
N3137 N 0.92809 0.81103 0.53334 0.0
N3138 N 0.9245 0.78359 0.56731 0.0
C3139 C 0.90664 0.78368 0.55255 0.0
C3140 C 0.90871 0.79848 0.53401 0.0
C3141 C 0.04605 0.62837 0.25887 0.0
C3142 C 0.05792 0.64866 0.25578 0.0
C3143 C 0.02854 0.62185 0.24408 0.0
C3144 C 0.02212 0.63577 0.22622 0.0
H3145 H 0.05162 0.61661 0.27165 0.0
H3146 H 0.02065 0.60551 0.24611 0.0
S3147 S 0.0472 0.69126 0.21207 0.0
N3148 N 0.06169 0.68285 0.23429 0.0
N3149 N 0.02811 0.67141 0.20708 0.0
C3150 C 0.03287 0.65684 0.22394 0.0
C3151 C 0.051 0.66309 0.23862 0.0
C3152 C 0.46469 0.35038 0.69912 0.0
C3153 C 0.46818 0.37081 0.68775 0.0
C3154 C 0.44877 0.34903 0.71649 0.0
C3155 C 0.43536 0.36796 0.7227 0.0
H3156 H 0.47358 0.33512 0.6939 0.0
H3157 H 0.44578 0.33274 0.72398 0.0
S3158 S 0.43815 0.42532 0.69804 0.0
N3159 N 0.45736 0.41034 0.68429 0.0
N3160 N 0.42727 0.40787 0.71628 0.0
C3161 C 0.43929 0.38858 0.7118 0.0
C3162 C 0.45568 0.38999 0.69448 0.0
C3163 C 0.0528 0.8654 0.68447 0.0
C3164 C 0.03684 0.88356 0.68377 0.0
C3165 C 0.06805 0.86215 0.70243 0.0
C3166 C 0.06823 0.87683 0.72073 0.0
H3167 H 0.05403 0.8538 0.67064 0.0
H3168 H 0.08046 0.84841 0.70153 0.0
S3169 S 0.02964 0.92661 0.72791 0.0
N3170 N 0.02161 0.91601 0.70373 0.0
N3171 N 0.05062 0.91001 0.7374 0.0
C3172 C 0.05181 0.89455 0.72084 0.0
C3173 C 0.03603 0.89784 0.70245 0.0
C3174 C 0.87897 0.27593 0.43052 0.0
C3175 C 0.8635 0.25796 0.43283 0.0
C3176 C 0.89037 0.28524 0.44875 0.0
C3177 C 0.88638 0.27735 0.47016 0.0
H3178 H 0.88229 0.28311 0.41446 0.0
H3179 H 0.90128 0.29967 0.44609 0.0
S3180 S 0.8494 0.22927 0.48515 0.0
N3181 N 0.84652 0.23121 0.45802 0.0
N3182 N 0.86728 0.24947 0.49269 0.0
C3183 C 0.87184 0.25872 0.47273 0.0
C3184 C 0.86054 0.24886 0.45398 0.0
C3185 C 0.43848 0.11023 0.23759 0.0
C3186 C 0.43651 0.131 0.24881 0.0
C3187 C 0.45894 0.10376 0.22737 0.0
C3188 C 0.47805 0.11803 0.22772 0.0
H3189 H 0.42372 0.09935 0.23581 0.0
H3190 H 0.45907 0.08838 0.2176 0.0
S3191 S 0.48289 0.17228 0.25834 0.0
N3192 N 0.45623 0.16422 0.26251 0.0
N3193 N 0.4948 0.15232 0.24299 0.0
C3194 C 0.47702 0.13777 0.24079 0.0
C3195 C 0.45617 0.14423 0.25141 0.0
C3196 C 0.63219 0.70852 0.97694 0.0
C3197 C 0.6113 0.69805 0.98203 0.0
C3198 C 0.63377 0.72368 0.95904 0.0
C3199 C 0.61465 0.72841 0.94517 0.0
H3200 H 0.64776 0.70375 0.9859 0.0
H3201 H 0.65047 0.73027 0.955 0.0
S3202 S 0.55554 0.70721 0.95283 0.0
N3203 N 0.57075 0.69507 0.97292 0.0
N3204 N 0.57371 0.72299 0.93913 0.0
C3205 C 0.59342 0.71905 0.95091 0.0
C3206 C 0.59176 0.704 0.96933 0.0
C3207 C 0.05062 0.15511 0.81547 0.0
C3208 C 0.03281 0.13924 0.81371 0.0
C3209 C 0.06579 0.15887 0.7982 0.0
C3210 C 0.06409 0.14689 0.7782 0.0
H3211 H 0.05369 0.16405 0.83077 0.0
H3212 H 0.07996 0.1703 0.80107 0.0
S3213 S 0.02004 0.10428 0.7641 0.0
N3214 N 0.01359 0.11232 0.78947 0.0
N3215 N 0.04263 0.11914 0.75701 0.0
C3216 C 0.04572 0.13183 0.77552 0.0
C3217 C 0.02997 0.12807 0.79324 0.0
C3218 C 0.59966 0.2762 0.52094 0.0
C3219 C 0.62007 0.2733 0.53355 0.0
C3220 C 0.59598 0.29545 0.50768 0.0
C3221 C 0.61245 0.31254 0.50691 0.0
H3222 H 0.58593 0.2641 0.52222 0.0
H3223 H 0.57957 0.29766 0.4992 0.0
S3224 S 0.66984 0.3119 0.53446 0.0
N3225 N 0.65791 0.28814 0.54243 0.0
N3226 N 0.65074 0.32443 0.51798 0.0
C3227 C 0.63347 0.30918 0.51828 0.0
C3228 C 0.63738 0.28948 0.53145 0.0
C3229 C 0.44168 0.89338 0.25032 0.0
C3230 C 0.4402 0.87226 0.23963 0.0
C3231 C 0.46006 0.89833 0.26457 0.0
C3232 C 0.47733 0.88213 0.26886 0.0
H3233 H 0.42759 0.90549 0.24903 0.0
H3234 H 0.45963 0.91413 0.27367 0.0
S3235 S 0.48308 0.82568 0.24234 0.0
N3236 N 0.45877 0.83623 0.23205 0.0
N3237 N 0.49353 0.84531 0.25902 0.0
C3238 C 0.47718 0.86179 0.25664 0.0
C3239 C 0.4585 0.85688 0.24193 0.0
C3240 C 0.85635 0.72292 0.03274 0.0
C3241 C 0.84068 0.71918 0.04992 0.0
C3242 C 0.86296 0.70528 0.01802 0.0
C3243 C 0.85438 0.68315 0.02014 0.0
H3244 H 0.86476 0.7391 0.03159 0.0
H3245 H 0.87581 0.7087 0.00576 0.0
S3246 S 0.8107 0.66543 0.06074 0.0
N3247 N 0.81537 0.69222 0.06673 0.0
N3248 N 0.82724 0.65957 0.03954 0.0
C3249 C 0.83759 0.67979 0.03641 0.0
C3250 C 0.83093 0.69761 0.05114 0.0
C3251 C 0.74186 0.03209 0.86006 0.0
C3252 C 0.74023 0.0526 0.87205 0.0
C3253 C 0.72613 0.01417 0.8634 0.0
C3254 C 0.70839 0.01604 0.87903 0.0
H3255 H 0.75462 0.03027 0.84733 0.0
H3256 H 0.72708 0.99936 0.85288 0.0
S3257 S 0.69812 0.06491 0.91633 0.0
N3258 N 0.72045 0.07233 0.90173 0.0
N3259 N 0.69131 0.03946 0.90741 0.0
C3260 C 0.70751 0.03591 0.89179 0.0
C3261 C 0.72328 0.0539 0.8885 0.0
C3262 C 0.71753 0.9861 0.61446 0.0
C3263 C 0.70584 0.99451 0.63294 0.0
C3264 C 0.73452 0.96903 0.61679 0.0
C3265 C 0.74075 0.9602 0.6377 0.0
H3266 H 0.71215 0.99126 0.59799 0.0
H3267 H 0.74181 0.96167 0.60202 0.0
S3268 S 0.71625 0.97756 0.69127 0.0
N3269 N 0.70241 0.99347 0.67287 0.0
N3270 N 0.7347 0.96196 0.67718 0.0
C3271 C 0.73029 0.96957 0.65636 0.0
C3272 C 0.71274 0.9866 0.65399 0.0
C3273 C 0.75619 0.96185 0.37641 0.0
C3274 C 0.75596 0.95053 0.35591 0.0
C3275 C 0.77405 0.97659 0.38218 0.0
C3276 C 0.79221 0.98003 0.36763 0.0
H3277 H 0.74387 0.95748 0.38889 0.0
H3278 H 0.7748 0.98348 0.39877 0.0
S3279 S 0.79712 0.95745 0.31062 0.0
N3280 N 0.77349 0.94604 0.32013 0.0
N3281 N 0.80696 0.97387 0.33066 0.0
C3282 C 0.79075 0.97069 0.34625 0.0
C3283 C 0.77259 0.95585 0.34044 0.0
C3284 C 0.75875 0.03884 0.0947 0.0
C3285 C 0.75065 0.04483 0.11579 0.0
C3286 C 0.77608 0.0223 0.09209 0.0
C3287 C 0.78618 0.0116 0.11056 0.0
H3288 H 0.75299 0.04834 0.08031 0.0
H3289 H 0.78298 0.01937 0.07579 0.0
S3290 S 0.76946 0.01932 0.16897 0.0
N3291 N 0.7525 0.03708 0.15511 0.0
N3292 N 0.78541 0.0064 0.15032 0.0
C3293 C 0.77707 0.01619 0.13151 0.0
C3294 C 0.75914 0.03268 0.1341 0.0
C3295 C 0.3557 0.76467 0.97572 0.0
C3296 C 0.37843 0.77203 0.97932 0.0
C3297 C 0.34959 0.75259 0.95666 0.0
C3298 C 0.36602 0.7477 0.94066 0.0
H3299 H 0.34218 0.76968 0.98688 0.0
H3300 H 0.33168 0.7486 0.95367 0.0
S3301 S 0.42863 0.75808 0.94476 0.0
N3302 N 0.41806 0.76967 0.96736 0.0
N3303 N 0.40647 0.74731 0.9312 0.0
C3304 C 0.38916 0.7528 0.94513 0.0
C3305 C 0.39543 0.76484 0.96466 0.0
C3306 C 0.97288 0.63581 0.73462 0.0
C3307 C 0.97382 0.61602 0.72158 0.0
C3308 C 0.95294 0.64185 0.7461 0.0
C3309 C 0.93334 0.62837 0.74461 0.0
H3310 H 0.98703 0.64754 0.73468 0.0
H3311 H 0.95229 0.65791 0.75474 0.0
S3312 S 0.92838 0.5729 0.71623 0.0
N3313 N 0.95457 0.58141 0.71065 0.0
N3314 N 0.9171 0.5928 0.73203 0.0
C3315 C 0.93484 0.60752 0.73342 0.0
C3316 C 0.95515 0.60127 0.72198 0.0
C3317 C 0.09364 0.21368 0.44539 0.0
C3318 C 0.11275 0.22801 0.44398 0.0
C3319 C 0.09098 0.19892 0.46331 0.0
C3320 C 0.10722 0.19786 0.48072 0.0
H3321 H 0.08117 0.21296 0.43193 0.0
H3322 H 0.07689 0.18711 0.46281 0.0
S3323 S 0.15947 0.23272 0.48612 0.0
N3324 N 0.14743 0.24118 0.4626 0.0
N3325 N 0.14244 0.2132 0.49612 0.0
C3326 C 0.12561 0.21303 0.48032 0.0
C3327 C 0.12833 0.22821 0.46205 0.0
C3328 C 0.95751 0.35407 0.74572 0.0
C3329 C 0.94197 0.3716 0.74058 0.0
C3330 C 0.97582 0.35783 0.76048 0.0
C3331 C 0.97897 0.37921 0.77034 0.0
H3332 H 0.95441 0.33704 0.73982 0.0
H3333 H 0.98656 0.34354 0.76534 0.0
S3334 S 0.94507 0.4314 0.75859 0.0
N3335 N 0.93242 0.41156 0.74369 0.0
N3336 N 0.96702 0.41877 0.77131 0.0
C3337 C 0.96487 0.39734 0.76345 0.0
C3338 C 0.94621 0.39346 0.74858 0.0
C3339 C 0.55136 0.65374 0.31526 0.0
C3340 C 0.53387 0.63747 0.31413 0.0
C3341 C 0.5669 0.65651 0.29804 0.0
C3342 C 0.56564 0.64331 0.27873 0.0
H3343 H 0.55385 0.66376 0.3301 0.0
H3344 H 0.58092 0.66819 0.30045 0.0
S3345 S 0.52231 0.59945 0.2665 0.0
N3346 N 0.5154 0.6089 0.29129 0.0
N3347 N 0.54478 0.61418 0.25884 0.0
C3348 C 0.54743 0.62799 0.27662 0.0
C3349 C 0.53148 0.6251 0.29431 0.0
C3350 C 0.42366 0.59941 0.80079 0.0
C3351 C 0.42888 0.61058 0.78086 0.0
C3352 C 0.43997 0.59616 0.81781 0.0
C3353 C 0.46271 0.60358 0.81605 0.0
H3354 H 0.40648 0.59339 0.80376 0.0
H3355 H 0.43443 0.58815 0.83288 0.0
S3356 S 0.48646 0.63257 0.76724 0.0
N3357 N 0.45931 0.6282 0.76015 0.0
N3358 N 0.49012 0.62187 0.7923 0.0
C3359 C 0.46876 0.61388 0.79596 0.0
C3360 C 0.45188 0.61741 0.77841 0.0
C3361 C 0.86772 0.18814 0.9767 0.0
C3362 C 0.88639 0.18582 0.99166 0.0
C3363 C 0.86362 0.20833 0.96515 0.0
C3364 C 0.8783 0.22683 0.96783 0.0
H3365 H 0.85656 0.17397 0.97333 0.0
H3366 H 0.84978 0.20885 0.95296 0.0
S3367 S 0.92826 0.23024 0.00647 0.0
N3368 N 0.91846 0.20442 0.00994 0.0
N3369 N 0.91113 0.24227 0.98778 0.0
C3370 C 0.89623 0.22522 0.98365 0.0
C3371 C 0.90018 0.20473 0.9957 0.0
C3372 C 0.63019 0.82358 0.45325 0.0
C3373 C 0.63366 0.81974 0.47602 0.0
C3374 C 0.63429 0.8068 0.43739 0.0
C3375 C 0.64206 0.78476 0.44304 0.0
H3376 H 0.62427 0.83996 0.44733 0.0
H3377 H 0.63119 0.81151 0.42031 0.0
S3378 S 0.65324 0.76508 0.50052 0.0
N3379 N 0.64496 0.79175 0.50364 0.0
N3380 N 0.65246 0.75991 0.47365 0.0
C3381 C 0.64518 0.7803 0.46584 0.0
C3382 C 0.641 0.79773 0.48227 0.0
C3383 C 0.77351 0.48406 0.61359 0.0
C3384 C 0.79329 0.48434 0.62737 0.0
C3385 C 0.75676 0.467 0.61568 0.0
C3386 C 0.75917 0.44975 0.63169 0.0
H3387 H 0.77165 0.49622 0.60031 0.0
H3388 H 0.74253 0.46658 0.60394 0.0
S3389 S 0.80597 0.44454 0.67358 0.0
N3390 N 0.81276 0.46702 0.65906 0.0
N3391 N 0.78178 0.4352 0.66251 0.0
C3392 C 0.77813 0.45065 0.64621 0.0
C3393 C 0.795 0.46788 0.64421 0.0
C3394 C 0.77027 0.52912 0.84917 0.0
C3395 C 0.76207 0.54161 0.86726 0.0
C3396 C 0.78733 0.5122 0.8521 0.0
C3397 C 0.79637 0.50682 0.87323 0.0
H3398 H 0.76489 0.53371 0.83254 0.0
H3399 H 0.79469 0.5044 0.83757 0.0
S3400 S 0.77882 0.53297 0.92608 0.0
N3401 N 0.76302 0.54629 0.90715 0.0
N3402 N 0.79459 0.51423 0.91257 0.0
C3403 C 0.78705 0.51802 0.89152 0.0
C3404 C 0.77002 0.53548 0.88855 0.0
C3405 C 0.72544 0.54059 0.16242 0.0
C3406 C 0.7448 0.54491 0.14974 0.0
C3407 C 0.70782 0.52707 0.15413 0.0
C3408 C 0.70891 0.51752 0.13282 0.0
H3409 H 0.72271 0.54973 0.17772 0.0
H3410 H 0.6924 0.52557 0.16381 0.0
S3411 S 0.75818 0.51988 0.09517 0.0
N3412 N 0.76592 0.5357 0.11651 0.0
N3413 N 0.7325 0.51004 0.10088 0.0
C3414 C 0.7294 0.51929 0.12118 0.0
C3415 C 0.7475 0.53308 0.12971 0.0
C3416 C 0.72643 0.47845 0.41116 0.0
C3417 C 0.7161 0.48875 0.39257 0.0
C3418 C 0.74381 0.46187 0.40874 0.0
C3419 C 0.75176 0.45538 0.38771 0.0
H3420 H 0.71963 0.48167 0.42745 0.0
H3421 H 0.74976 0.45274 0.42329 0.0
S3422 S 0.73182 0.47913 0.33412 0.0
N3423 N 0.71626 0.49268 0.35265 0.0
N3424 N 0.74917 0.46195 0.34823 0.0
C3425 C 0.74295 0.46704 0.36923 0.0
C3426 C 0.72502 0.48359 0.37164 0.0
C3427 C 0.56229 0.40502 0.18415 0.0
C3428 C 0.54131 0.39351 0.18372 0.0
C3429 C 0.57848 0.40189 0.20133 0.0
C3430 C 0.57475 0.38687 0.219 0.0
H3431 H 0.56668 0.41598 0.17056 0.0
H3432 H 0.59455 0.41085 0.20025 0.0
S3433 S 0.52192 0.35341 0.22646 0.0
N3434 N 0.51701 0.36729 0.20315 0.0
N3435 N 0.54759 0.36124 0.23547 0.0
C3436 C 0.5533 0.37607 0.21944 0.0
C3437 C 0.53659 0.3794 0.20182 0.0
C3438 C 0.13154 0.8098 0.02072 0.0
C3439 C 0.11216 0.81241 0.00671 0.0
C3440 C 0.1348 0.79033 0.03361 0.0
C3441 C 0.11846 0.77307 0.03329 0.0
H3442 H 0.14373 0.82341 0.02254 0.0
H3443 H 0.14924 0.78966 0.04512 0.0
S3444 S 0.06595 0.77083 0.9978 0.0
N3445 N 0.07759 0.79534 0.99171 0.0
N3446 N 0.08327 0.75888 0.01639 0.0
C3447 C 0.09978 0.77483 0.01828 0.0
C3448 C 0.09673 0.7945 0.00484 0.0
C3449 C 0.36123 0.21799 0.53545 0.0
C3450 C 0.34785 0.21455 0.55442 0.0
C3451 C 0.36535 0.20025 0.51999 0.0
C3452 C 0.35643 0.17835 0.52303 0.0
H3453 H 0.36954 0.23407 0.53312 0.0
H3454 H 0.37645 0.20343 0.50618 0.0
S3455 S 0.31779 0.16154 0.56841 0.0
N3456 N 0.32385 0.18814 0.57385 0.0
N3457 N 0.33156 0.15535 0.54553 0.0
C3458 C 0.34201 0.17528 0.54129 0.0
C3459 C 0.33775 0.19318 0.55673 0.0
C3460 C 0.20733 0.53273 0.39404 0.0
C3461 C 0.20741 0.51331 0.38063 0.0
C3462 C 0.22322 0.55014 0.39118 0.0
C3463 C 0.24001 0.54924 0.37457 0.0
H3464 H 0.19407 0.53503 0.40625 0.0
H3465 H 0.22174 0.5649 0.40173 0.0
S3466 S 0.24798 0.50164 0.33522 0.0
N3467 N 0.22607 0.4938 0.35035 0.0
N3468 N 0.25614 0.52647 0.34499 0.0
C3469 C 0.24099 0.5294 0.36161 0.0
C3470 C 0.22463 0.51153 0.36456 0.0
C3471 C 0.22087 0.49193 0.1432 0.0
C3472 C 0.20862 0.4955 0.12319 0.0
C3473 C 0.23714 0.47413 0.14547 0.0
C3474 C 0.24114 0.45898 0.12797 0.0
H3475 H 0.21651 0.5018 0.15768 0.0
H3476 H 0.24503 0.47105 0.16153 0.0
S3477 S 0.21451 0.46187 0.07188 0.0
N3478 N 0.20279 0.48335 0.0853 0.0
N3479 N 0.2328 0.44981 0.08952 0.0
C3480 C 0.23005 0.46331 0.10752 0.0
C3481 C 0.21392 0.48159 0.10515 0.0
C3482 C 0.25586 0.46165 0.873 0.0
C3483 C 0.25744 0.45043 0.85251 0.0
C3484 C 0.27364 0.47566 0.88067 0.0
C3485 C 0.29333 0.47861 0.86796 0.0
H3486 H 0.24223 0.45748 0.88424 0.0
H3487 H 0.27298 0.4823 0.89735 0.0
S3488 S 0.30299 0.45698 0.81121 0.0
N3489 N 0.27821 0.44608 0.81838 0.0
N3490 N 0.31134 0.47276 0.83233 0.0
C3491 C 0.2936 0.46976 0.84635 0.0
C3492 C 0.27564 0.45557 0.83869 0.0
C3493 C 0.26426 0.53569 0.63492 0.0
C3494 C 0.25099 0.54457 0.61735 0.0
C3495 C 0.28203 0.51995 0.63109 0.0
C3496 C 0.28709 0.51241 0.60958 0.0
H3497 H 0.26246 0.54263 0.6514 0.0
H3498 H 0.29299 0.51488 0.6449 0.0
S3499 S 0.25596 0.52897 0.55824 0.0
N3500 N 0.24297 0.54352 0.57789 0.0
N3501 N 0.27611 0.51352 0.57079 0.0
C3502 C 0.27267 0.51962 0.59214 0.0
C3503 C 0.25469 0.53585 0.59602 0.0
C3504 C 0.02796 0.12955 0.45437 0.0
C3505 C 0.03642 0.11231 0.44038 0.0
C3506 C 0.03934 0.13541 0.47426 0.0
C3507 C 0.05948 0.12401 0.48139 0.0
H3508 H 0.01262 0.13905 0.44964 0.0
H3509 H 0.03228 0.14908 0.4841 0.0
S3510 S 0.08763 0.07615 0.4518 0.0
N3511 N 0.06581 0.08344 0.43545 0.0
N3512 N 0.08649 0.09342 0.47327 0.0
C3513 C 0.06777 0.10628 0.46782 0.0
C3514 C 0.05647 0.10073 0.44725 0.0
C3515 C 0.12932 0.83005 0.70887 0.0
C3516 C 0.13538 0.8198 0.72899 0.0
C3517 C 0.13494 0.82009 0.68871 0.0
C3518 C 0.14584 0.79882 0.68793 0.0
H3519 H 0.12004 0.84585 0.7086 0.0
H3520 H 0.13017 0.82889 0.67362 0.0
S3521 S 0.16383 0.7639 0.73614 0.0
N3522 N 0.15236 0.78695 0.74716 0.0
N3523 N 0.16172 0.76719 0.70906 0.0
C3524 C 0.15122 0.78781 0.70797 0.0
C3525 C 0.14617 0.79848 0.72858 0.0
C3526 C 0.45177 0.88392 0.98189 0.0
C3527 C 0.43468 0.86759 0.98411 0.0
C3528 C 0.46576 0.88409 0.96338 0.0
C3529 C 0.46291 0.86798 0.94655 0.0
H3530 H 0.45326 0.89756 0.9938 0.0
H3531 H 0.47776 0.89779 0.96153 0.0
S3532 S 0.42101 0.82135 0.945 0.0
N3533 N 0.41627 0.8345 0.96861 0.0
N3534 N 0.44269 0.83455 0.93373 0.0
C3535 C 0.44705 0.85055 0.94936 0.0
C3536 C 0.4328 0.85044 0.96824 0.0
C3537 C 0.35694 0.19074 0.21178 0.0
C3538 C 0.37099 0.19922 0.22894 0.0
C3539 C 0.35649 0.20075 0.19074 0.0
C3540 C 0.36963 0.21997 0.18623 0.0
H3541 H 0.34653 0.17599 0.21447 0.0
H3542 H 0.34582 0.19332 0.17789 0.0
S3543 S 0.40882 0.24912 0.22569 0.0
N3544 N 0.39818 0.22813 0.24008 0.0
N3545 N 0.39692 0.24724 0.20083 0.0
C3546 C 0.3833 0.22896 0.20343 0.0
C3547 C 0.38408 0.21852 0.2247 0.0
C3548 C 0.0284 0.85803 0.04497 0.0
C3549 C 0.03246 0.87567 0.06017 0.0
C3550 C 0.0375 0.85843 0.02358 0.0
C3551 C 0.05067 0.8767 0.01639 0.0
H3552 H 0.01823 0.84366 0.04973 0.0
H3553 H 0.0343 0.84423 0.01268 0.0
S3554 S 0.0639 0.92838 0.04896 0.0
N3555 N 0.04944 0.91246 0.06615 0.0
N3556 N 0.06564 0.91382 0.02569 0.0
C3557 C 0.05422 0.8948 0.03122 0.0
C3558 C 0.0454 0.89411 0.05318 0.0
C3559 C 0.38847 0.79002 0.25557 0.0
C3560 C 0.36987 0.8039 0.24902 0.0
C3561 C 0.39005 0.78166 0.27716 0.0
C3562 C 0.373 0.78691 0.29262 0.0
H3563 H 0.40251 0.78681 0.2444 0.0
H3564 H 0.40507 0.77172 0.28197 0.0
S3565 S 0.32028 0.8216 0.28274 0.0
N3566 N 0.33376 0.82178 0.25895 0.0
N3567 N 0.33637 0.80582 0.29948 0.0
C3568 C 0.35376 0.79985 0.28582 0.0
C3569 C 0.35232 0.80848 0.26396 0.0
C3570 C 0.43031 0.10238 0.54913 0.0
C3571 C 0.44295 0.12062 0.55755 0.0
C3572 C 0.42041 0.10338 0.528 0.0
C3573 C 0.42286 0.12264 0.51477 0.0
H3574 H 0.42777 0.0874 0.55902 0.0
H3575 H 0.41039 0.08917 0.52219 0.0
S3576 S 0.45521 0.17449 0.52901 0.0
N3577 N 0.45813 0.15813 0.55094 0.0
N3578 N 0.43946 0.16003 0.51117 0.0
C3579 C 0.43596 0.14076 0.5228 0.0
C3580 C 0.44601 0.13975 0.54428 0.0
C3581 C 0.11656 0.20992 0.78943 0.0
C3582 C 0.13178 0.19368 0.78058 0.0
C3583 C 0.11971 0.2186 0.811 0.0
C3584 C 0.13793 0.2111 0.82492 0.0
H3585 H 0.10211 0.2161 0.77958 0.0
H3586 H 0.10771 0.23134 0.81686 0.0
S3587 S 0.18335 0.16972 0.80965 0.0
N3588 N 0.16658 0.17132 0.78742 0.0
N3589 N 0.17173 0.18688 0.82804 0.0
C3590 C 0.15314 0.19475 0.81642 0.0
C3591 C 0.15028 0.18628 0.79428 0.0
C3592 C 0.44507 0.08788 0.13519 0.0
C3593 C 0.46554 0.07625 0.1299 0.0
C3594 C 0.42342 0.07768 0.13219 0.0
C3595 C 0.4215 0.05535 0.12416 0.0
H3596 H 0.44567 0.10533 0.1406 0.0
H3597 H 0.4081 0.08735 0.13619 0.0
S3598 S 0.47032 0.01809 0.1075 0.0
N3599 N 0.48259 0.04169 0.11581 0.0
N3600 N 0.44248 0.02221 0.11078 0.0
C3601 C 0.44205 0.04358 0.11912 0.0
C3602 C 0.46388 0.05409 0.12186 0.0
C3603 C 0.19107 0.20444 0.3891 0.0
C3604 C 0.17348 0.21388 0.37581 0.0
C3605 C 0.2011 0.18349 0.38375 0.0
C3606 C 0.19354 0.17104 0.36521 0.0
H3607 H 0.19727 0.21333 0.40363 0.0
H3608 H 0.21474 0.17687 0.39437 0.0
S3609 S 0.14849 0.18832 0.32471 0.0
N3610 N 0.14963 0.20939 0.3426 0.0
N3611 N 0.16767 0.16948 0.33352 0.0
C3612 C 0.17583 0.18005 0.35194 0.0
C3613 C 0.16604 0.20165 0.35698 0.0
C3614 C 0.07571 0.94105 0.61891 0.0
C3615 C 0.07694 0.96309 0.61049 0.0
C3616 C 0.05452 0.93101 0.62244 0.0
C3617 C 0.03395 0.94181 0.61608 0.0
H3618 H 0.09115 0.9319 0.62389 0.0
H3619 H 0.05427 0.91507 0.63099 0.0
S3620 S 0.02758 0.99916 0.59225 0.0
N3621 N 0.05561 0.9956 0.59587 0.0
N3622 N 0.01572 0.97555 0.6008 0.0
C3623 C 0.03479 0.96357 0.60707 0.0
C3624 C 0.05635 0.97437 0.60442 0.0
C3625 C 0.31796 0.78379 0.85942 0.0
C3626 C 0.30703 0.76925 0.87425 0.0
C3627 C 0.31137 0.80666 0.85762 0.0
C3628 C 0.29324 0.81549 0.87018 0.0
H3629 H 0.33181 0.77752 0.84925 0.0
H3630 H 0.32033 0.81739 0.84621 0.0
S3631 S 0.25949 0.78462 0.91178 0.0
N3632 N 0.2776 0.76551 0.90203 0.0
N3633 N 0.26491 0.80816 0.89836 0.0
C3634 C 0.28213 0.80107 0.88496 0.0
C3635 C 0.28907 0.778 0.88704 0.0
C3636 C 0.44688 0.95906 0.36486 0.0
C3637 C 0.42651 0.9471 0.36879 0.0
C3638 C 0.46813 0.94764 0.36253 0.0
C3639 C 0.46956 0.92395 0.36391 0.0
H3640 H 0.44658 0.97736 0.36424 0.0
H3641 H 0.48363 0.95742 0.36096 0.0
S3642 S 0.42141 0.88442 0.37159 0.0
N3643 N 0.40934 0.90977 0.37206 0.0
N3644 N 0.44898 0.88892 0.36795 0.0
C3645 C 0.4493 0.91185 0.36674 0.0
C3646 C 0.42783 0.92324 0.36912 0.0
C3647 C 0.30018 0.19423 0.64086 0.0
C3648 C 0.28614 0.18267 0.6258 0.0
C3649 C 0.30593 0.21666 0.63714 0.0
C3650 C 0.29846 0.22808 0.61788 0.0
H3651 H 0.30659 0.18597 0.65573 0.0
H3652 H 0.31697 0.22484 0.64921 0.0
S3653 S 0.26088 0.20505 0.57353 0.0
N3654 N 0.26398 0.18412 0.59141 0.0
N3655 N 0.27579 0.2263 0.58385 0.0
C3656 C 0.28399 0.21683 0.60287 0.0
C3657 C 0.27765 0.19405 0.60695 0.0
C3658 C 0.07457 0.0708 0.89699 0.0
C3659 C 0.08125 0.05186 0.88449 0.0
C3660 C 0.05355 0.08199 0.89268 0.0
C3661 C 0.03886 0.07501 0.8753 0.0
H3662 H 0.08551 0.07682 0.91035 0.0
H3663 H 0.0489 0.09634 0.90289 0.0
S3664 S 0.04927 0.02717 0.83687 0.0
N3665 N 0.0719 0.02699 0.85366 0.0
N3666 N 0.03282 0.04839 0.84519 0.0
C3667 C 0.04558 0.05635 0.86245 0.0
C3668 C 0.06669 0.04469 0.86713 0.0
C3669 C 0.18994 0.80356 0.12125 0.0
C3670 C 0.18133 0.82388 0.13069 0.0
C3671 C 0.1763 0.78394 0.11925 0.0
C3672 C 0.15349 0.78392 0.12658 0.0
H3673 H 0.2075 0.80263 0.11562 0.0
H3674 H 0.18398 0.76851 0.11293 0.0
S3675 S 0.12173 0.83282 0.15052 0.0
N3676 N 0.14764 0.84261 0.14602 0.0
N3677 N 0.12248 0.80621 0.14232 0.0
C3678 C 0.14448 0.80426 0.13523 0.0
C3679 C 0.15822 0.82407 0.13732 0.0
C3680 C 0.11748 0.44617 0.0707 0.0
C3681 C 0.12749 0.44122 0.05018 0.0
C3682 C 0.12126 0.46706 0.08154 0.0
C3683 C 0.13575 0.48363 0.07265 0.0
H3684 H 0.10629 0.434 0.07825 0.0
H3685 H 0.11276 0.47022 0.09705 0.0
S3686 S 0.16773 0.47812 0.02028 0.0
N3687 N 0.15336 0.45431 0.02194 0.0
N3688 N 0.16098 0.49289 0.04249 0.0
C3689 C 0.14634 0.47855 0.05246 0.0
C3690 C 0.1421 0.45757 0.04122 0.0
C3691 C 0.62262 0.02123 0.92872 0.0
C3692 C 0.64354 0.0097 0.93273 0.0
C3693 C 0.61873 0.04291 0.93713 0.0
C3694 C 0.6356 0.05383 0.9499 0.0
H3695 H 0.6093 0.0137 0.91851 0.0
H3696 H 0.60252 0.05133 0.93324 0.0
S3697 S 0.6922 0.02991 0.96744 0.0
N3698 N 0.6806 0.00997 0.95187 0.0
N3699 N 0.67323 0.05092 0.96782 0.0
C3700 C 0.65623 0.04218 0.95488 0.0
C3701 C 0.66017 0.01998 0.94634 0.0
C3702 C 0.22744 0.36161 0.17409 0.0
C3703 C 0.24516 0.37175 0.18654 0.0
C3704 C 0.20858 0.35196 0.1843 0.0
C3705 C 0.20673 0.35193 0.2074 0.0
H3706 H 0.22774 0.36171 0.15623 0.0
H3707 H 0.19489 0.34536 0.1739 0.0
S3708 S 0.25015 0.37395 0.24754 0.0
N3709 N 0.2609 0.37946 0.22307 0.0
N3710 N 0.22556 0.36113 0.24259 0.0
C3711 C 0.22518 0.36068 0.22013 0.0
C3712 C 0.24435 0.37069 0.20961 0.0
C3713 C 0.89226 0.93518 0.4349 0.0
C3714 C 0.88532 0.92998 0.45639 0.0
C3715 C 0.88374 0.95451 0.42401 0.0
C3716 C 0.86738 0.96889 0.43392 0.0
H3717 H 0.90403 0.92403 0.42629 0.0
H3718 H 0.88961 0.95787 0.40747 0.0
S3719 S 0.8438 0.96298 0.49011 0.0
N3720 N 0.86165 0.94125 0.48751 0.0
N3721 N 0.84511 0.97705 0.46665 0.0
C3722 C 0.86062 0.96415 0.45554 0.0
C3723 C 0.86975 0.94484 0.46688 0.0
C3724 C 0.80425 0.12847 0.18077 0.0
C3725 C 0.80713 0.12043 0.20251 0.0
C3726 C 0.784 0.1243 0.16844 0.0
C3727 C 0.76611 0.11123 0.17702 0.0
H3728 H 0.81765 0.13826 0.17327 0.0
H3729 H 0.78244 0.13129 0.15197 0.0
S3730 S 0.76561 0.0851 0.23264 0.0
N3731 N 0.79036 0.0984 0.23195 0.0
N3732 N 0.75295 0.08981 0.20845 0.0
C3733 C 0.76893 0.10276 0.19857 0.0
C3734 C 0.78922 0.10757 0.21139 0.0
C3735 C 0.39625 0.55115 0.56201 0.0
C3736 C 0.39148 0.5578 0.54012 0.0
C3737 C 0.38615 0.5319 0.571 0.0
C3738 C 0.37051 0.51878 0.55862 0.0
H3739 H 0.40756 0.56109 0.57246 0.0
H3740 H 0.39035 0.52751 0.58796 0.0
S3741 S 0.35234 0.52836 0.50045 0.0
N3742 N 0.37031 0.54903 0.50602 0.0
N3743 N 0.35113 0.5133 0.52331 0.0
C3744 C 0.36578 0.52495 0.53668 0.0
C3745 C 0.37634 0.54431 0.52733 0.0
C3746 C 0.20472 0.61039 0.298 0.0
C3747 C 0.19218 0.62901 0.30611 0.0
C3748 C 0.22719 0.60582 0.30555 0.0
C3749 C 0.23795 0.62004 0.32109 0.0
H3750 H 0.19696 0.59904 0.28603 0.0
H3751 H 0.23607 0.59098 0.29932 0.0
S3752 S 0.21305 0.6725 0.34537 0.0
N3753 N 0.19228 0.66241 0.32944 0.0
N3754 N 0.23487 0.6546 0.34293 0.0
C3755 C 0.22578 0.63923 0.32866 0.0
C3756 C 0.20275 0.64351 0.32138 0.0
C3757 C 0.29035 0.37378 0.77862 0.0
C3758 C 0.30638 0.35819 0.78778 0.0
C3759 C 0.27044 0.38027 0.7899 0.0
C3760 C 0.26553 0.37126 0.81071 0.0
H3761 H 0.29356 0.38174 0.76288 0.0
H3762 H 0.25898 0.3927 0.78234 0.0
S3763 S 0.30088 0.32837 0.84114 0.0
N3764 N 0.3155 0.33323 0.81852 0.0
N3765 N 0.27763 0.34464 0.83936 0.0
C3766 C 0.28099 0.35505 0.81974 0.0
C3767 C 0.30151 0.34873 0.80839 0.0
C3768 C 0.93187 0.88663 0.53227 0.0
C3769 C 0.94105 0.87027 0.51765 0.0
C3770 C 0.94304 0.89223 0.55242 0.0
C3771 C 0.9642 0.88214 0.55857 0.0
H3772 H 0.91587 0.89526 0.52814 0.0
H3773 H 0.93528 0.9049 0.56301 0.0
S3774 S 0.99492 0.83728 0.52703 0.0
N3775 N 0.97204 0.84327 0.51155 0.0
N3776 N 0.99324 0.85401 0.54884 0.0
C3777 C 0.97339 0.86555 0.54423 0.0
C3778 C 0.96182 0.85959 0.52396 0.0
C3779 C 0.84289 0.18392 0.29925 0.0
C3780 C 0.85667 0.20201 0.3062 0.0
C3781 C 0.84778 0.1719 0.27988 0.0
C3782 C 0.86689 0.17725 0.26701 0.0
H3783 H 0.82833 0.17887 0.30894 0.0
H3784 H 0.83676 0.15799 0.27523 0.0
S3785 S 0.90861 0.22289 0.27814 0.0
N3786 N 0.89029 0.22471 0.29862 0.0
N3787 N 0.89954 0.20189 0.26241 0.0
C3788 C 0.88066 0.19543 0.27361 0.0
C3789 C 0.87554 0.20786 0.29317 0.0
C3790 C 0.56948 0.14946 0.03172 0.0
C3791 C 0.56736 0.132 0.01613 0.0
C3792 C 0.55625 0.14942 0.05081 0.0
C3793 C 0.54105 0.13167 0.05464 0.0
H3794 H 0.58298 0.16173 0.03037 0.0
H3795 H 0.55962 0.16194 0.06352 0.0
S3796 S 0.5264 0.08471 0.01662 0.0
N3797 N 0.54671 0.09872 0.00395 0.0
N3798 N 0.52191 0.09844 0.03998 0.0
C3799 C 0.53714 0.11555 0.03807 0.0
C3800 C 0.5504 0.11573 0.01869 0.0
C3801 C 0.61824 0.77488 0.79708 0.0
C3802 C 0.63291 0.78229 0.81423 0.0
C3803 C 0.61793 0.78546 0.77634 0.0
C3804 C 0.63257 0.80358 0.77184 0.0
H3805 H 0.60633 0.76129 0.79991 0.0
H3806 H 0.60589 0.77957 0.76384 0.0
S3807 S 0.67573 0.82799 0.81059 0.0
N3808 N 0.66318 0.80816 0.82509 0.0
N3809 N 0.6633 0.82742 0.78589 0.0
C3810 C 0.64795 0.81058 0.78861 0.0
C3811 C 0.64792 0.80011 0.80986 0.0
C3812 C 0.97371 0.13437 0.95331 0.0
C3813 C 0.96835 0.11669 0.93857 0.0
C3814 C 0.96416 0.13549 0.97446 0.0
C3815 C 0.94923 0.11871 0.98186 0.0
H3816 H 0.98516 0.14767 0.94832 0.0
H3817 H 0.96842 0.1497 0.98502 0.0
S3818 S 0.93159 0.06768 0.95016 0.0
N3819 N 0.94794 0.08166 0.93294 0.0
N3820 N 0.93091 0.08289 0.97309 0.0
C3821 C 0.9443 0.10055 0.96743 0.0
C3822 C 0.95357 0.09978 0.94566 0.0
C3823 C 0.63828 0.18943 0.73669 0.0
C3824 C 0.61796 0.18904 0.74882 0.0
C3825 C 0.63802 0.19661 0.71478 0.0
C3826 C 0.61738 0.20332 0.70428 0.0
H3827 H 0.6545 0.18408 0.74415 0.0
H3828 H 0.6541 0.19671 0.70599 0.0
S3829 S 0.55933 0.20439 0.72872 0.0
N3830 N 0.57659 0.19547 0.74888 0.0
N3831 N 0.57602 0.20875 0.70736 0.0
C3832 C 0.59687 0.20287 0.71618 0.0
C3833 C 0.59719 0.1958 0.73861 0.0
C3834 C 0.57381 0.89831 0.47347 0.0
C3835 C 0.57397 0.87751 0.48467 0.0
C3836 C 0.56507 0.90006 0.45186 0.0
C3837 C 0.5563 0.88105 0.44083 0.0
H3838 H 0.58076 0.91326 0.48134 0.0
H3839 H 0.56538 0.91635 0.44371 0.0
S3840 S 0.55288 0.82271 0.46298 0.0
N3841 N 0.56463 0.83754 0.48322 0.0
N3842 N 0.54805 0.84085 0.44271 0.0
C3843 C 0.55616 0.86021 0.45195 0.0
C3844 C 0.565 0.85844 0.47391 0.0
C3845 C 0.87657 0.7865 0.18514 0.0
C3846 C 0.85681 0.79274 0.17258 0.0
C3847 C 0.88062 0.79486 0.20667 0.0
C3848 C 0.86496 0.80967 0.21693 0.0
H3849 H 0.88914 0.7749 0.17828 0.0
H3850 H 0.89616 0.78954 0.21537 0.0
S3851 S 0.80994 0.83061 0.19178 0.0
N3852 N 0.8213 0.81463 0.17225 0.0
N3853 N 0.8283 0.82966 0.21287 0.0
C3854 C 0.84503 0.81601 0.20461 0.0
C3855 C 0.84114 0.8078 0.18245 0.0
C3856 C 0.53734 0.9469 0.87757 0.0
C3857 C 0.53579 0.92401 0.87141 0.0
C3858 C 0.55873 0.9571 0.88181 0.0
C3859 C 0.57966 0.94479 0.88055 0.0
H3860 H 0.52183 0.95706 0.87916 0.0
H3861 H 0.55877 0.97487 0.88617 0.0
S3862 S 0.58524 0.88387 0.8662 0.0
N3863 N 0.55734 0.88918 0.86465 0.0
N3864 N 0.59718 0.90802 0.87331 0.0
C3865 C 0.57833 0.92174 0.87478 0.0
C3866 C 0.55657 0.91148 0.87 0.0
C3867 C 0.79571 0.8153 0.61676 0.0
C3868 C 0.80415 0.82905 0.63401 0.0
C3869 C 0.80636 0.79455 0.61162 0.0
C3870 C 0.82548 0.78664 0.6239 0.0
H3871 H 0.78103 0.82083 0.60685 0.0
H3872 H 0.7995 0.78464 0.59803 0.0
S3873 S 0.85325 0.81597 0.67159 0.0
N3874 N 0.83241 0.83338 0.66349 0.0
N3875 N 0.85172 0.79394 0.65485 0.0
C3876 C 0.83373 0.80012 0.64153 0.0
C3877 C 0.82327 0.82148 0.64631 0.0
C3878 C 0.9388 0.02859 0.37187 0.0
C3879 C 0.92394 0.03576 0.38865 0.0
C3880 C 0.95991 0.03902 0.36881 0.0
C3881 C 0.9671 0.0567 0.38269 0.0
H3882 H 0.9338 0.01521 0.36058 0.0
H3883 H 0.97052 0.03334 0.35528 0.0
S3884 S 0.9353 0.08005 0.43053 0.0
N3885 N 0.91802 0.06081 0.41989 0.0
N3886 N 0.95845 0.07968 0.41506 0.0
C3887 C 0.95276 0.06343 0.40013 0.0
C3888 C 0.93093 0.05318 0.40284 0.0
C3889 C 0.68466 0.21352 0.14257 0.0
C3890 C 0.69586 0.22815 0.12804 0.0
C3891 C 0.69157 0.19081 0.1447 0.0
C3892 C 0.71035 0.18227 0.13287 0.0
H3893 H 0.67026 0.21956 0.15213 0.0
H3894 H 0.68224 0.17992 0.15568 0.0
S3895 S 0.74558 0.21364 0.09286 0.0
N3896 N 0.72659 0.23243 0.10166 0.0
N3897 N 0.73999 0.19003 0.1061 0.0
C3898 C 0.72198 0.19684 0.11865 0.0
C3899 C 0.71466 0.21975 0.11615 0.0
C3900 C 0.54849 0.08908 0.62319 0.0
C3901 C 0.52892 0.07934 0.63232 0.0
C3902 C 0.56891 0.07681 0.62096 0.0
C3903 C 0.57075 0.05411 0.6277 0.0
H3904 H 0.54781 0.10627 0.61701 0.0
H3905 H 0.58325 0.08524 0.61347 0.0
S3906 S 0.52471 0.02122 0.65423 0.0
N3907 N 0.51263 0.04618 0.64923 0.0
N3908 N 0.55136 0.02276 0.64535 0.0
C3909 C 0.55149 0.04434 0.63772 0.0
C3910 C 0.53052 0.05706 0.64005 0.0
C3911 C 0.69231 0.80543 0.35252 0.0
C3912 C 0.70362 0.81921 0.36785 0.0
C3913 C 0.68793 0.78288 0.35765 0.0
C3914 C 0.69438 0.77367 0.37836 0.0
H3915 H 0.68741 0.8119 0.33637 0.0
H3916 H 0.67911 0.77268 0.34538 0.0
S3917 S 0.72405 0.80361 0.42418 0.0
N3918 N 0.72123 0.82264 0.40437 0.0
N3919 N 0.71239 0.78031 0.41426 0.0
C3920 C 0.70566 0.78744 0.39381 0.0
C3921 C 0.71033 0.81028 0.38849 0.0
C3922 C 0.93173 0.94974 0.13134 0.0
C3923 C 0.91748 0.94414 0.11322 0.0
C3924 C 0.95303 0.93893 0.13476 0.0
C3925 C 0.96103 0.92229 0.12006 0.0
H3926 H 0.92623 0.96237 0.1432 0.0
H3927 H 0.96321 0.94358 0.14916 0.0
S3928 S 0.93128 0.90346 0.06862 0.0
N3929 N 0.91322 0.92184 0.07974 0.0
N3930 N 0.95382 0.90219 0.08554 0.0
C3931 C 0.94725 0.91706 0.10143 0.0
C3932 C 0.92529 0.92776 0.09821 0.0
C3933 C 0.82193 0.21716 0.88355 0.0
C3934 C 0.84518 0.21732 0.87758 0.0
C3935 C 0.80886 0.19714 0.8819 0.0
C3936 C 0.81848 0.17646 0.87419 0.0
H3937 H 0.81343 0.23282 0.88821 0.0
H3938 H 0.79084 0.19811 0.88605 0.0
S3939 S 0.8795 0.16766 0.85865 0.0
N3940 N 0.87761 0.19475 0.86503 0.0
N3941 N 0.85359 0.1575 0.86246 0.0
C3942 C 0.84208 0.17632 0.86935 0.0
C3943 C 0.85521 0.1966 0.87092 0.0
C3944 C 0.88812 0.55438 0.92844 0.0
C3945 C 0.87746 0.55932 0.94865 0.0
C3946 C 0.88467 0.53343 0.91755 0.0
C3947 C 0.86986 0.5169 0.92605 0.0
H3948 H 0.89944 0.5666 0.92117 0.0
H3949 H 0.89358 0.53023 0.90226 0.0
S3950 S 0.83614 0.52248 0.97737 0.0
N3951 N 0.85066 0.5462 0.97613 0.0
N3952 N 0.84365 0.5077 0.95542 0.0
C3953 C 0.8587 0.52197 0.94592 0.0
C3954 C 0.86263 0.54291 0.95725 0.0
C3955 C 0.34942 0.95718 0.05117 0.0
C3956 C 0.37068 0.94613 0.0548 0.0
C3957 C 0.34517 0.97882 0.05984 0.0
C3958 C 0.36194 0.98989 0.07265 0.0
H3959 H 0.33592 0.94903 0.04168 0.0
H3960 H 0.3284 0.98657 0.05707 0.0
S3961 S 0.42093 0.96867 0.08571 0.0
N3962 N 0.40901 0.94819 0.07115 0.0
N3963 N 0.40111 0.98878 0.08732 0.0
C3964 C 0.38351 0.97926 0.07578 0.0
C3965 C 0.38785 0.95734 0.06691 0.0
C3966 C 0.77387 0.63721 0.82157 0.0
C3967 C 0.76108 0.62 0.81119 0.0
C3968 C 0.79289 0.64673 0.81144 0.0
C3969 C 0.79946 0.63987 0.79025 0.0
H3970 H 0.76945 0.64319 0.83789 0.0
H3971 H 0.80269 0.65935 0.82037 0.0
S3972 S 0.77138 0.59579 0.75568 0.0
N3973 N 0.75615 0.59664 0.77847 0.0
N3974 N 0.79157 0.61492 0.759 0.0
C3975 C 0.78643 0.62311 0.77936 0.0
C3976 C 0.76732 0.61306 0.78993 0.0
C3977 C 0.13767 0.05781 0.53959 0.0
C3978 C 0.11984 0.07167 0.54766 0.0
C3979 C 0.14549 0.03878 0.55142 0.0
C3980 C 0.13531 0.03268 0.57139 0.0
H3981 H 0.14622 0.06216 0.52443 0.0
H3982 H 0.15958 0.02882 0.54485 0.0
S3983 S 0.08651 0.06247 0.59835 0.0
N3984 N 0.09166 0.07773 0.57622 0.0
N3985 N 0.10528 0.04131 0.59786 0.0
C3986 C 0.11685 0.04602 0.57916 0.0
C3987 C 0.10938 0.0657 0.56743 0.0
C3988 C 0.23044 0.89538 0.80497 0.0
C3989 C 0.23442 0.88427 0.82528 0.0
C3990 C 0.21056 0.89126 0.79201 0.0
C3991 C 0.1935 0.87628 0.79903 0.0
H3992 H 0.24287 0.90726 0.79891 0.0
H3993 H 0.20834 0.90023 0.77652 0.0
S3994 S 0.19544 0.84263 0.85065 0.0
N3995 N 0.21964 0.85693 0.85128 0.0
N3996 N 0.18194 0.85029 0.82761 0.0
C3997 C 0.19709 0.86527 0.81936 0.0
C3998 C 0.21761 0.86896 0.83227 0.0
C3999 C 0.62155 0.45724 0.46811 0.0
C4000 C 0.6061 0.44415 0.45547 0.0
C4001 C 0.63272 0.47575 0.45887 0.0
C4002 C 0.62855 0.48202 0.4368 0.0
H4003 H 0.62583 0.45259 0.48499 0.0
H4004 H 0.6448 0.4851 0.46905 0.0
S4005 S 0.58832 0.45404 0.39729 0.0
N4006 N 0.5866 0.43907 0.42017 0.0
N4007 N 0.60685 0.47424 0.40291 0.0
C4008 C 0.61252 0.46946 0.42425 0.0
C4009 C 0.60148 0.45042 0.43356 0.0
C4010 C 0.77467 0.35881 0.66519 0.0
C4011 C 0.76238 0.37693 0.67476 0.0
C4012 C 0.79684 0.35279 0.6727 0.0
C4013 C 0.80695 0.36416 0.69062 0.0
H4014 H 0.7671 0.34915 0.65182 0.0
H4015 H 0.8059 0.33896 0.66473 0.0
S4016 S 0.78165 0.41215 0.72211 0.0
N4017 N 0.76187 0.40587 0.70332 0.0
N4018 N 0.80308 0.39418 0.71798 0.0
C4019 C 0.7946 0.38193 0.70071 0.0
C4020 C 0.77235 0.38835 0.69273 0.0
C4021 C 0.73108 0.61477 0.21218 0.0
C4022 C 0.73625 0.6235 0.19129 0.0
C4023 C 0.71055 0.62074 0.22274 0.0
C4024 C 0.69426 0.63543 0.21268 0.0
H4025 H 0.74287 0.60309 0.22038 0.0
H4026 H 0.70716 0.6133 0.23868 0.0
S4027 S 0.70015 0.66423 0.15885 0.0
N4028 N 0.72391 0.64886 0.16163 0.0
N4029 N 0.68507 0.65929 0.18115 0.0
C4030 C 0.6993 0.64448 0.19196 0.0
C4031 C 0.72037 0.63874 0.18137 0.0
C4032 C 0.56893 0.60965 0.96675 0.0
C4033 C 0.5597 0.62604 0.98129 0.0
C4034 C 0.55739 0.60335 0.94703 0.0
C4035 C 0.53577 0.61268 0.94129 0.0
H4036 H 0.58534 0.60163 0.97058 0.0
H4037 H 0.56535 0.5909 0.93635 0.0
S4038 S 0.50454 0.65714 0.97288 0.0
N4039 N 0.52805 0.65218 0.98781 0.0
N4040 N 0.50607 0.63999 0.95137 0.0
C4041 C 0.52638 0.62913 0.95565 0.0
C4042 C 0.53837 0.63589 0.97544 0.0
C4043 C 0.65938 0.33045 0.21812 0.0
C4044 C 0.64038 0.32393 0.23066 0.0
C4045 C 0.66489 0.31925 0.19839 0.0
C4046 C 0.65207 0.30068 0.19103 0.0
H4047 H 0.66981 0.34458 0.22334 0.0
H4048 H 0.67922 0.32515 0.18885 0.0
S4049 S 0.6009 0.27676 0.21799 0.0
N4050 N 0.60881 0.29778 0.23428 0.0
N4051 N 0.61953 0.27628 0.19772 0.0
C4052 C 0.63339 0.29367 0.20372 0.0
C4053 C 0.62748 0.30538 0.22345 0.0
C4054 C 0.92522 0.3672 0.44169 0.0
C4055 C 0.9463 0.35561 0.4405 0.0
C4056 C 0.91568 0.37208 0.46202 0.0
C4057 C 0.92631 0.36451 0.48165 0.0
H4058 H 0.91703 0.37437 0.42704 0.0
H4059 H 0.90036 0.38265 0.46234 0.0
S4060 S 0.97947 0.32993 0.48694 0.0
N4061 N 0.97642 0.33458 0.46012 0.0
N4062 N 0.95724 0.34246 0.49873 0.0
C4063 C 0.94612 0.35093 0.48061 0.0
C4064 C 0.95642 0.3467 0.45983 0.0
C4065 C 0.88048 0.72489 0.70298 0.0
C4066 C 0.86525 0.71761 0.68623 0.0
C4067 C 0.88147 0.71414 0.72362 0.0
C4068 C 0.86698 0.69599 0.72842 0.0
H4069 H 0.8923 0.73849 0.69987 0.0
H4070 H 0.89392 0.71993 0.7358 0.0
S4071 S 0.82243 0.67207 0.69089 0.0
N4072 N 0.83457 0.69194 0.67611 0.0
N4073 N 0.83571 0.67238 0.7152 0.0
C4074 C 0.85101 0.68918 0.7121 0.0
C4075 C 0.85035 0.69981 0.69092 0.0
C4076 C 0.54548 0.39447 0.55231 0.0
C4077 C 0.5292 0.37867 0.55904 0.0
C4078 C 0.55447 0.3938 0.53084 0.0
C4079 C 0.54819 0.3768 0.51557 0.0
H4080 H 0.55099 0.40769 0.56356 0.0
H4081 H 0.56664 0.4066 0.52626 0.0
S4082 S 0.50666 0.33098 0.52551 0.0
N4083 N 0.50712 0.34556 0.54881 0.0
N4084 N 0.52471 0.3437 0.50898 0.0
C4085 C 0.53201 0.36084 0.52222 0.0
C4086 C 0.52242 0.36188 0.54383 0.0
C4087 C 0.89839 0.2953 0.78241 0.0
C4088 C 0.87981 0.29923 0.79645 0.0
C4089 C 0.89759 0.30288 0.76059 0.0
C4090 C 0.87831 0.31484 0.75235 0.0
H4091 H 0.91356 0.28616 0.78823 0.0
H4092 H 0.91231 0.29964 0.75024 0.0
S4093 S 0.82547 0.32994 0.7828 0.0
N4094 N 0.84176 0.31604 0.8009 0.0
N4095 N 0.84031 0.3304 0.7598 0.0
C4096 C 0.85967 0.31898 0.76628 0.0
C4097 C 0.86041 0.31113 0.78842 0.0
C4098 C 0.92192 0.60117 0.02836 0.0
C4099 C 0.92786 0.62032 0.01607 0.0
C4100 C 0.93296 0.59618 0.04845 0.0
C4101 C 0.95095 0.60961 0.0564 0.0
H4102 H 0.90815 0.5903 0.02282 0.0
H4103 H 0.92711 0.58194 0.05799 0.0
S4104 S 0.97472 0.66018 0.0294 0.0
N4105 N 0.95373 0.65204 0.01264 0.0
N4106 N 0.97542 0.64185 0.04996 0.0
C4107 C 0.95813 0.62792 0.04363 0.0
C4108 C 0.94634 0.63348 0.0235 0.0
C4109 C 0.65261 0.67977 0.29328 0.0
C4110 C 0.63379 0.68755 0.28015 0.0
C4111 C 0.65635 0.68761 0.31514 0.0
C4112 C 0.64146 0.70367 0.32466 0.0
H4113 H 0.66481 0.66775 0.2865 0.0
H4114 H 0.67145 0.68179 0.32426 0.0
S4115 S 0.58889 0.72836 0.2982 0.0
N4116 N 0.59951 0.71138 0.27911 0.0
N4117 N 0.60662 0.72625 0.31967 0.0
C4118 C 0.62232 0.7111 0.31193 0.0
C4119 C 0.61847 0.70306 0.28984 0.0
C4120 C 0.93976 0.54907 0.62454 0.0
C4121 C 0.91828 0.56008 0.62081 0.0
C4122 C 0.96021 0.56133 0.62779 0.0
C4123 C 0.95994 0.58506 0.62739 0.0
H4124 H 0.94095 0.53078 0.6245 0.0
H4125 H 0.9764 0.55218 0.62938 0.0
S4126 S 0.90847 0.6223 0.62034 0.0
N4127 N 0.89826 0.59643 0.61867 0.0
N4128 N 0.93644 0.61915 0.62437 0.0
C4129 C 0.93857 0.59624 0.62465 0.0
C4130 C 0.91783 0.58387 0.62149 0.0
C4131 C 0.70252 0.68443 0.88261 0.0
C4132 C 0.69428 0.67067 0.86528 0.0
C4133 C 0.69168 0.70502 0.8878 0.0
C4134 C 0.67253 0.71286 0.87552 0.0
H4135 H 0.71726 0.67904 0.89252 0.0
H4136 H 0.69845 0.71491 0.90146 0.0
S4137 S 0.64516 0.68354 0.82766 0.0
N4138 N 0.66611 0.66621 0.83574 0.0
N4139 N 0.64643 0.70553 0.84449 0.0
C4140 C 0.66441 0.69938 0.85783 0.0
C4141 C 0.67508 0.6781 0.85299 0.0
C4142 C 0.57028 0.44626 0.09652 0.0
C4143 C 0.57699 0.46372 0.11086 0.0
C4144 C 0.54837 0.4368 0.09795 0.0
C4145 C 0.53286 0.44398 0.11425 0.0
H4146 H 0.58195 0.43997 0.08409 0.0
H4147 H 0.54382 0.4233 0.08663 0.0
S4148 S 0.54243 0.48925 0.15577 0.0
N4149 N 0.5664 0.48812 0.1416 0.0
N4150 N 0.5256 0.46994 0.14464 0.0
C4151 C 0.53931 0.46166 0.12845 0.0
C4152 C 0.56136 0.47155 0.12673 0.0
C4153 C 0.78355 0.30211 0.38275 0.0
C4154 C 0.79294 0.31749 0.3678 0.0
C4155 C 0.78952 0.27912 0.38215 0.0
C4156 C 0.8049 0.27066 0.3664 0.0
H4157 H 0.77192 0.30797 0.39541 0.0
H4158 H 0.78244 0.26803 0.39446 0.0
S4159 S 0.83142 0.30353 0.32149 0.0
N4160 N 0.81676 0.32256 0.33571 0.0
N4161 N 0.82742 0.27909 0.33396 0.0
C4162 C 0.81358 0.28572 0.35069 0.0
C4163 C 0.80778 0.30924 0.35157 0.0
C4164 C 0.93579 0.43109 0.86461 0.0
C4165 C 0.93398 0.4535 0.87232 0.0
C4166 C 0.95715 0.42117 0.85997 0.0
C4167 C 0.97774 0.43303 0.86334 0.0
H4168 H 0.92057 0.42103 0.86206 0.0
H4169 H 0.95749 0.40373 0.85445 0.0
S4170 S 0.98261 0.49233 0.88275 0.0
N4171 N 0.95469 0.4876 0.88236 0.0
N4172 N 0.99499 0.4686 0.87432 0.0
C4173 C 0.97624 0.45556 0.87071 0.0
C4174 C 0.95436 0.46586 0.87506 0.0
C4175 C 0.78261 0.68762 0.11249 0.0
C4176 C 0.79214 0.67678 0.13123 0.0
C4177 C 0.78721 0.71025 0.10807 0.0
C4178 C 0.80138 0.72272 0.12233 0.0
H4179 H 0.77169 0.67845 0.101 0.0
H4180 H 0.78014 0.71779 0.0931 0.0
S4181 S 0.82738 0.70307 0.17543 0.0
N4182 N 0.81452 0.68055 0.16515 0.0
N4183 N 0.8227 0.72351 0.15728 0.0
C4184 C 0.81016 0.71237 0.14167 0.0
C4185 C 0.80575 0.6892 0.14598 0.0
C4186 C 0.57495 0.56896 0.39776 0.0
C4187 C 0.58313 0.55183 0.38378 0.0
C4188 C 0.55341 0.57919 0.39386 0.0
C4189 C 0.53964 0.57315 0.37545 0.0
H4190 H 0.58502 0.57416 0.41206 0.0
H4191 H 0.54759 0.59204 0.40533 0.0
S4192 S 0.55402 0.53001 0.3332 0.0
N4193 N 0.57618 0.52952 0.35057 0.0
N4194 N 0.53605 0.54935 0.34285 0.0
C4195 C 0.54785 0.55633 0.36113 0.0
C4196 C 0.56954 0.54554 0.36537 0.0
C4197 C 0.66581 0.32115 0.63905 0.0
C4198 C 0.68613 0.32291 0.627 0.0
C4199 C 0.65287 0.30136 0.63871 0.0
C4200 C 0.65939 0.28216 0.62628 0.0
H4201 H 0.65989 0.33509 0.64922 0.0
H4202 H 0.63762 0.30105 0.64876 0.0
S4203 S 0.70965 0.27853 0.58962 0.0
N4204 N 0.71122 0.30411 0.60057 0.0
N4205 N 0.68665 0.26678 0.60015 0.0
C4206 C 0.67905 0.28385 0.61328 0.0
C4207 C 0.69249 0.30418 0.61367 0.0
C4208 C 0.61923 0.96803 0.58501 0.0
C4209 C 0.63299 0.98525 0.57623 0.0
C4210 C 0.61546 0.94745 0.57351 0.0
C4211 C 0.62449 0.94362 0.55231 0.0
H4212 H 0.61151 0.97034 0.601 0.0
H4213 H 0.60519 0.93457 0.58115 0.0
S4214 S 0.66141 0.98327 0.52171 0.0
N4215 N 0.65578 0.99668 0.54498 0.0
N4216 N 0.64786 0.959 0.52315 0.0
C4217 C 0.63781 0.96095 0.5432 0.0
C4218 C 0.64224 0.98145 0.55516 0.0
C4219 C 0.11074 0.52175 0.423 0.0
C4220 C 0.1271 0.50685 0.43233 0.0
C4221 C 0.10575 0.5425 0.43307 0.0
C4222 C 0.11739 0.54906 0.45251 0.0
H4223 H 0.10222 0.51759 0.40751 0.0
H4224 H 0.09359 0.55391 0.42498 0.0
S4225 S 0.16047 0.51505 0.48422 0.0
N4226 N 0.15372 0.49906 0.46273 0.0
N4227 N 0.14475 0.53837 0.48159 0.0
C4228 C 0.13301 0.53379 0.46255 0.0
C4229 C 0.13776 0.51252 0.45246 0.0
C4230 C 0.72516 0.86466 0.67825 0.0
C4231 C 0.73894 0.88094 0.68888 0.0
C4232 C 0.70606 0.85553 0.6886 0.0
C4233 C 0.70022 0.86196 0.71016 0.0
H4234 H 0.72889 0.85917 0.66159 0.0
H4235 H 0.69558 0.84356 0.6795 0.0
S4236 S 0.73087 0.90384 0.7453 0.0
N4237 N 0.74554 0.90306 0.72217 0.0
N4238 N 0.70983 0.88563 0.7419 0.0
C4239 C 0.71416 0.87786 0.72121 0.0
C4240 C 0.73345 0.88745 0.71048 0.0
C4241 C 0.38094 0.45196 0.9269 0.0
C4242 C 0.36379 0.46588 0.93617 0.0
C4243 C 0.38837 0.43199 0.9373 0.0
C4244 C 0.37946 0.42556 0.95772 0.0
H4245 H 0.38867 0.45644 0.91139 0.0
H4246 H 0.40129 0.42158 0.92934 0.0
S4247 S 0.33439 0.45617 0.98914 0.0
N4248 N 0.33798 0.47176 0.96689 0.0
N4249 N 0.35253 0.43461 0.98693 0.0
C4250 C 0.36259 0.43952 0.96742 0.0
C4251 C 0.35459 0.45958 0.95652 0.0
C4252 C 0.28944 0.60684 0.70557 0.0
C4253 C 0.30649 0.62187 0.69862 0.0
C4254 C 0.26946 0.60293 0.6928 0.0
C4255 C 0.26532 0.61421 0.67265 0.0
H4256 H 0.29171 0.59764 0.72093 0.0
H4257 H 0.25707 0.59105 0.6989 0.0
S4258 S 0.30399 0.65628 0.64754 0.0
N4259 N 0.31782 0.64824 0.67029 0.0
N4260 N 0.27978 0.64198 0.64688 0.0
C4261 C 0.28209 0.62959 0.66565 0.0
C4262 C 0.30278 0.63311 0.67843 0.0
C4263 C 0.8754 0.04156 0.03252 0.0
C4264 C 0.89182 0.05433 0.04426 0.0
C4265 C 0.86492 0.02293 0.0422 0.0
C4266 C 0.87078 0.0162 0.0638 0.0
H4267 H 0.86989 0.04653 0.01603 0.0
H4268 H 0.85202 0.01387 0.03273 0.0
S4269 S 0.91409 0.04315 0.10083 0.0
N4270 N 0.91401 0.05867 0.0782 0.0
N4271 N 0.89515 0.02306 0.09618 0.0
C4272 C 0.8878 0.02839 0.07541 0.0
C4273 C 0.89809 0.04763 0.0657 0.0
C4274 C 0.7039 0.1223 0.80137 0.0
C4275 C 0.69365 0.14243 0.80905 0.0
C4276 C 0.72572 0.11539 0.8088 0.0
C4277 C 0.73827 0.12863 0.82385 0.0
H4278 H 0.69479 0.11155 0.78977 0.0
H4279 H 0.73266 0.09946 0.80286 0.0
S4280 S 0.72017 0.18439 0.84656 0.0
N4281 N 0.69793 0.17624 0.83135 0.0
N4282 N 0.73975 0.16403 0.8445 0.0
C4283 C 0.72855 0.14931 0.831 0.0
C4284 C 0.70599 0.15603 0.82382 0.0
C4285 C 0.79009 0.87348 0.27961 0.0
C4286 C 0.8052 0.85714 0.28891 0.0
C4287 C 0.77026 0.88071 0.29057 0.0
C4288 C 0.76453 0.87172 0.31118 0.0
H4289 H 0.79394 0.88129 0.26394 0.0
H4290 H 0.7594 0.89353 0.28282 0.0
S4291 S 0.79738 0.82717 0.34183 0.0
N4292 N 0.81261 0.83149 0.31946 0.0
N4293 N 0.77517 0.84475 0.34004 0.0
C4294 C 0.77928 0.85505 0.32051 0.0
C4295 C 0.79965 0.84785 0.3094 0.0
C4296 C 0.43652 0.38339 0.03265 0.0
C4297 C 0.44616 0.36856 0.01687 0.0
C4298 C 0.44824 0.38894 0.0525 0.0
C4299 C 0.47046 0.38038 0.05728 0.0
H4300 H 0.41967 0.39078 0.0297 0.0
H4301 H 0.43992 0.40027 0.06405 0.0
S4302 S 0.50315 0.34008 0.02208 0.0
N4303 N 0.47902 0.34475 0.008 0.0
N4304 N 0.50127 0.35553 0.04476 0.0
C4305 C 0.48029 0.36548 0.04167 0.0
C4306 C 0.46814 0.3595 0.02166 0.0
C4307 C 0.34453 0.66599 0.78454 0.0
C4308 C 0.36277 0.67316 0.77134 0.0
C4309 C 0.33905 0.67733 0.80423 0.0
C4310 C 0.35112 0.69667 0.81097 0.0
H4311 H 0.33475 0.65123 0.7799 0.0
H4312 H 0.3254 0.67085 0.8143 0.0
S4313 S 0.3997 0.72286 0.78171 0.0
N4314 N 0.3925 0.70105 0.76615 0.0
N4315 N 0.38186 0.72272 0.80262 0.0
C4316 C 0.36886 0.70444 0.79747 0.0
C4317 C 0.37475 0.69261 0.77777 0.0
C4318 C 0.03366 0.61889 0.53574 0.0
C4319 C 0.0368 0.63576 0.5518 0.0
C4320 C 0.04442 0.62036 0.5154 0.0
C4321 C 0.05885 0.63857 0.51086 0.0
H4322 H 0.02399 0.60384 0.53937 0.0
H4323 H 0.04309 0.60616 0.50413 0.0
S4324 S 0.06846 0.68926 0.54559 0.0
N4325 N 0.05195 0.67296 0.56052 0.0
N4326 N 0.07247 0.67545 0.52219 0.0
C4327 C 0.06002 0.65662 0.5258 0.0
C4328 C 0.0489 0.65528 0.54642 0.0
C4329 C 0.12016 0.27878 0.29862 0.0
C4330 C 0.13678 0.28404 0.31485 0.0
C4331 C 0.11975 0.2897 0.27812 0.0
C4332 C 0.13622 0.30595 0.27289 0.0
H4333 H 0.10686 0.26668 0.30203 0.0
H4334 H 0.1062 0.28553 0.26639 0.0
S4335 S 0.18482 0.324 0.30898 0.0
N4336 N 0.17078 0.30571 0.32412 0.0
N4337 N 0.17077 0.32543 0.28508 0.0
C4338 C 0.15356 0.31066 0.28866 0.0
C4339 C 0.15362 0.29993 0.30979 0.0
C4340 C 0.47241 0.61223 0.48022 0.0
C4341 C 0.45236 0.62537 0.483 0.0
C4342 C 0.48188 0.60903 0.4591 0.0
C4343 C 0.47139 0.6186 0.44005 0.0
H4344 H 0.48054 0.60401 0.49434 0.0
H4345 H 0.49736 0.59881 0.45764 0.0
S4346 S 0.42088 0.65749 0.43914 0.0
N4347 N 0.42441 0.65048 0.46535 0.0
N4348 N 0.44111 0.64349 0.42585 0.0
C4349 C 0.45174 0.63226 0.44282 0.0
C4350 C 0.44252 0.6359 0.46425 0.0
C4351 C 0.14046 0.6895 0.21333 0.0
C4352 C 0.12343 0.70515 0.20677 0.0
C4353 C 0.14264 0.68292 0.23536 0.0
C4354 C 0.128 0.692 0.25146 0.0
H4355 H 0.15171 0.68178 0.20128 0.0
H4356 H 0.15541 0.67011 0.23967 0.0
S4357 S 0.08305 0.73627 0.2429 0.0
N4358 N 0.0933 0.73138 0.21803 0.0
N4359 N 0.09756 0.7192 0.25976 0.0
C4360 C 0.11182 0.70872 0.24528 0.0
C4361 C 0.10942 0.7152 0.22276 0.0
C4362 C 0.07024 0.39733 0.97581 0.0
C4363 C 0.07051 0.37625 0.98644 0.0
C4364 C 0.06059 0.39982 0.95468 0.0
C4365 C 0.05111 0.38126 0.94347 0.0
H4366 H 0.07797 0.41192 0.98367 0.0
H4367 H 0.06114 0.41628 0.94687 0.0
S4368 S 0.04707 0.32256 0.96439 0.0
N4369 N 0.05996 0.3366 0.98457 0.0
N4370 N 0.04192 0.34126 0.94466 0.0
C4371 C 0.05075 0.36019 0.95411 0.0
C4372 C 0.06042 0.35769 0.97572 0.0
C4373 C 0.35477 0.29293 0.71517 0.0
C4374 C 0.36752 0.31288 0.7167 0.0
C4375 C 0.3489 0.28337 0.69451 0.0
C4376 C 0.35533 0.29344 0.67438 0.0
H4377 H 0.34934 0.28457 0.73008 0.0
H4378 H 0.33933 0.26778 0.69438 0.0
S4379 S 0.3896 0.34566 0.66949 0.0
N4380 N 0.38715 0.34195 0.69636 0.0
N4381 N 0.37541 0.32473 0.65768 0.0
C4382 C 0.36788 0.31361 0.67576 0.0
C4383 C 0.37417 0.3231 0.69684 0.0
C4384 C 0.06031 0.44771 0.36836 0.0
C4385 C 0.07798 0.44289 0.38404 0.0
C4386 C 0.03943 0.43561 0.36803 0.0
C4387 C 0.03539 0.41852 0.38361 0.0
H4388 H 0.06279 0.46064 0.35601 0.0
H4389 H 0.02641 0.43976 0.35567 0.0
S4390 S 0.07608 0.39993 0.42844 0.0
N4391 N 0.08969 0.42027 0.41567 0.0
N4392 N 0.05128 0.39753 0.41516 0.0
C4393 C 0.05305 0.41373 0.39936 0.0
C4394 C 0.07409 0.4259 0.39957 0.0
C4395 C 0.29491 0.31192 0.11771 0.0
C4396 C 0.30325 0.32707 0.13386 0.0
C4397 C 0.30734 0.29223 0.11207 0.0
C4398 C 0.32838 0.28674 0.12262 0.0
H4399 H 0.27905 0.31568 0.10878 0.0
H4400 H 0.30039 0.28127 0.09932 0.0
S4401 S 0.35701 0.32011 0.16701 0.0
N4402 N 0.33352 0.33485 0.16079 0.0
N4403 N 0.35653 0.29773 0.15066 0.0
C4404 C 0.3366 0.30149 0.13919 0.0
C4405 C 0.32414 0.32167 0.14468 0.0
C4406 C 0.43878 0.52583 0.87515 0.0
C4407 C 0.42458 0.53284 0.89252 0.0
C4408 C 0.46011 0.53576 0.87186 0.0
C4409 C 0.46817 0.55278 0.88607 0.0
H4410 H 0.43309 0.51297 0.86359 0.0
H4411 H 0.47016 0.53027 0.85787 0.0
S4412 S 0.43839 0.57533 0.93549 0.0
N4413 N 0.42027 0.55691 0.92471 0.0
N4414 N 0.46105 0.57488 0.91938 0.0
C4415 C 0.4545 0.55928 0.90411 0.0
C4416 C 0.43246 0.54954 0.90708 0.0
C4417 C 0.19209 0.69171 0.64115 0.0
C4418 C 0.20758 0.68243 0.62596 0.0
C4419 C 0.18741 0.71506 0.64148 0.0
C4420 C 0.19774 0.7298 0.62642 0.0
H4421 H 0.18394 0.68098 0.65313 0.0
H4422 H 0.17562 0.72164 0.65365 0.0
S4423 S 0.2382 0.71356 0.58224 0.0
N4424 N 0.2324 0.6896 0.59477 0.0
N4425 N 0.22347 0.73328 0.59542 0.0
C4426 C 0.21301 0.72066 0.61099 0.0
C4427 C 0.21788 0.697 0.61071 0.0
C4428 C 0.03125 0.54181 0.13964 0.0
C4429 C 0.02654 0.56484 0.1359 0.0
C4430 C 0.05268 0.53217 0.13417 0.0
C4431 C 0.06995 0.5452 0.1244 0.0
H4432 H 0.01836 0.53123 0.14696 0.0
H4433 H 0.05583 0.51451 0.13798 0.0
S4434 S 0.06495 0.60588 0.10887 0.0
N4435 N 0.04022 0.60002 0.12032 0.0
N4436 N 0.08 0.58209 0.10983 0.0
C4437 C 0.065 0.56809 0.11985 0.0
C4438 C 0.04344 0.57787 0.12565 0.0
C4439 C 0.19259 0.28337 0.86001 0.0
C4440 C 0.19882 0.27302 0.88023 0.0
C4441 C 0.19772 0.30594 0.85588 0.0
C4442 C 0.20976 0.31861 0.87163 0.0
H4443 H 0.18311 0.27411 0.84746 0.0
H4444 H 0.19256 0.31339 0.84019 0.0
S4445 S 0.23016 0.29959 0.927 0.0
N4446 N 0.21754 0.27721 0.91614 0.0
N4447 N 0.22801 0.3196 0.90806 0.0
C4448 C 0.21662 0.3084 0.89169 0.0
C4449 C 0.21105 0.28551 0.89605 0.0
C4450 C 0.45479 0.44402 0.63267 0.0
C4451 C 0.46154 0.42531 0.61988 0.0
C4452 C 0.43412 0.45563 0.62813 0.0
C4453 C 0.41928 0.44859 0.61095 0.0
H4454 H 0.46553 0.44976 0.6463 0.0
H4455 H 0.42949 0.46991 0.63847 0.0
S4456 S 0.42923 0.40109 0.57217 0.0
N4457 N 0.4521 0.4009 0.58864 0.0
N4458 N 0.41278 0.42213 0.58087 0.0
C4459 C 0.42575 0.42993 0.59806 0.0
C4460 C 0.44704 0.41845 0.60231 0.0
C4461 C 0.33862 0.67378 0.36702 0.0
C4462 C 0.31471 0.67473 0.37004 0.0
C4463 C 0.35231 0.69293 0.36995 0.0
C4464 C 0.34293 0.71411 0.37606 0.0
H4465 H 0.34695 0.65816 0.36197 0.0
H4466 H 0.37048 0.69133 0.36648 0.0
S4467 S 0.28165 0.72584 0.38766 0.0
N4468 N 0.28239 0.69871 0.38102 0.0
N4469 N 0.30837 0.73475 0.38604 0.0
C4470 C 0.31927 0.7153 0.38007 0.0
C4471 C 0.30513 0.69566 0.3771 0.0
C4472 C 0.35531 0.01797 0.44363 0.0
C4473 C 0.36612 0.0135 0.42338 0.0
C4474 C 0.35944 0.03802 0.45564 0.0
C4475 C 0.37392 0.055 0.44762 0.0
H4476 H 0.34346 0.00587 0.4503 0.0
H4477 H 0.35048 0.0406 0.47101 0.0
S4478 S 0.40801 0.05119 0.39653 0.0
N4479 N 0.39387 0.02714 0.39703 0.0
N4480 N 0.39997 0.06549 0.41864 0.0
C4481 C 0.38502 0.05075 0.42755 0.0
C4482 C 0.38156 0.02989 0.41572 0.0
C4483 C 0.88372 0.45914 0.56014 0.0
C4484 C 0.86592 0.4437 0.55642 0.0
C4485 C 0.87899 0.48139 0.56662 0.0
C4486 C 0.85628 0.48905 0.56937 0.0
H4487 H 0.90151 0.45402 0.55812 0.0
H4488 H 0.89324 0.49263 0.56975 0.0
S4489 S 0.8035 0.45513 0.56255 0.0
N4490 N 0.82467 0.43741 0.5565 0.0
N4491 N 0.81577 0.47946 0.56851 0.0
C4492 C 0.83825 0.47388 0.56563 0.0
C4493 C 0.84309 0.45109 0.55925 0.0
C4494 C 0.28697 0.12862 0.2786 0.0
C4495 C 0.30038 0.14471 0.28997 0.0
C4496 C 0.26812 0.11848 0.28866 0.0
C4497 C 0.2619 0.1243 0.31029 0.0
H4498 H 0.2917 0.12299 0.26223 0.0
H4499 H 0.25859 0.1058 0.27955 0.0
S4500 S 0.29055 0.16687 0.34635 0.0
N4501 N 0.30556 0.16676 0.32346 0.0
N4502 N 0.27001 0.14827 0.34222 0.0
C4503 C 0.27469 0.14105 0.32144 0.0
C4504 C 0.29396 0.15112 0.3113 0.0
C4505 C 0.63978 0.53313 0.04447 0.0
C4506 C 0.63361 0.52937 0.06649 0.0
C4507 C 0.6315 0.55217 0.03292 0.0
C4508 C 0.61727 0.56831 0.04325 0.0
H4509 H 0.65139 0.52154 0.03621 0.0
H4510 H 0.63742 0.55492 0.01627 0.0
S4511 S 0.59334 0.56454 0.09945 0.0
N4512 N 0.60996 0.54186 0.09712 0.0
N4513 N 0.59536 0.57809 0.07578 0.0
C4514 C 0.61003 0.56412 0.06482 0.0
C4515 C 0.618 0.54453 0.07636 0.0
C4516 C 0.71326 0.3932 0.29424 0.0
C4517 C 0.6962 0.37831 0.3015 0.0
C4518 C 0.73293 0.39782 0.30727 0.0
C4519 C 0.73665 0.38732 0.32787 0.0
H4520 H 0.71121 0.40169 0.27848 0.0
H4521 H 0.74544 0.4095 0.301 0.0
S4522 S 0.69752 0.34624 0.35396 0.0
N4523 N 0.68429 0.35315 0.33057 0.0
N4524 N 0.7216 0.3607 0.3545 0.0
C4525 C 0.71978 0.37217 0.33514 0.0
C4526 C 0.69948 0.36798 0.32214 0.0
C4527 C 0.10628 0.95006 0.93392 0.0
C4528 C 0.1133 0.94299 0.95512 0.0
C4529 C 0.11597 0.96909 0.92416 0.0
C4530 C 0.13335 0.98141 0.93508 0.0
H4531 H 0.09321 0.94085 0.92483 0.0
H4532 H 0.1099 0.97406 0.90785 0.0
S4533 S 0.15911 0.96874 0.99011 0.0
N4534 N 0.13947 0.94916 0.98633 0.0
N4535 N 0.15781 0.98469 0.96777 0.0
C4536 C 0.14083 0.97428 0.95608 0.0
C4537 C 0.13075 0.95513 0.96617 0.0
C4538 C 0.27172 0.85595 0.16934 0.0
C4539 C 0.26032 0.87474 0.17871 0.0
C4540 C 0.29332 0.84864 0.17732 0.0
C4541 C 0.30374 0.85934 0.1955 0.0
H4542 H 0.26405 0.84697 0.15556 0.0
H4543 H 0.30189 0.83456 0.16926 0.0
S4544 S 0.2807 0.90877 0.22646 0.0
N4545 N 0.26096 0.90365 0.20729 0.0
N4546 N 0.30105 0.88948 0.22286 0.0
C4547 C 0.29217 0.87768 0.20548 0.0
C4548 C 0.27053 0.88545 0.19699 0.0
C4549 C 0.20955 0.12836 0.72216 0.0
C4550 C 0.19336 0.14369 0.71289 0.0
C4551 C 0.23023 0.12315 0.7115 0.0
C4552 C 0.23563 0.13329 0.6913 0.0
H4553 H 0.20591 0.11974 0.73747 0.0
H4554 H 0.24184 0.11076 0.71893 0.0
S4555 S 0.20033 0.17676 0.66161 0.0
N4556 N 0.1848 0.17005 0.68316 0.0
N4557 N 0.22399 0.16111 0.66357 0.0
C4558 C 0.22001 0.1494 0.68237 0.0
C4559 C 0.19878 0.15436 0.69302 0.0
C4560 C 0.10225 0.06737 0.34476 0.0
C4561 C 0.08869 0.08644 0.33933 0.0
C4562 C 0.12572 0.06653 0.33985 0.0
C4563 C 0.13636 0.08464 0.32916 0.0
H4564 H 0.09497 0.05345 0.35379 0.0
H4565 H 0.13582 0.05207 0.34544 0.0
S4566 S 0.10791 0.13766 0.30983 0.0
N4567 N 0.08721 0.12323 0.32137 0.0
N4568 N 0.13121 0.12155 0.31203 0.0
C4569 C 0.12267 0.10319 0.32243 0.0
C4570 C 0.09884 0.10414 0.32759 0.0
C4571 C 0.19133 0.8971 0.60911 0.0
C4572 C 0.17626 0.90758 0.59369 0.0
C4573 C 0.193 0.87346 0.61073 0.0
C4574 C 0.17952 0.85948 0.59711 0.0
H4575 H 0.20112 0.90723 0.62075 0.0
H4576 H 0.20396 0.86617 0.62355 0.0
S4577 S 0.13907 0.87842 0.55261 0.0
N4578 N 0.14904 0.9021 0.56336 0.0
N4579 N 0.15202 0.85775 0.56645 0.0
C4580 C 0.16543 0.86972 0.58074 0.0
C4581 C 0.16385 0.89377 0.579 0.0
C4582 C 0.4037 0.91878 0.86486 0.0
C4583 C 0.41632 0.90802 0.84804 0.0
C4584 C 0.3795 0.91788 0.86547 0.0
C4585 C 0.36664 0.90589 0.84946 0.0
H4586 H 0.4127 0.92712 0.87832 0.0
H4587 H 0.37089 0.92591 0.8792 0.0
S4588 S 0.3911 0.87465 0.80184 0.0
N4589 N 0.41382 0.88517 0.81471 0.0
N4590 N 0.36855 0.88339 0.8159 0.0
C4591 C 0.37892 0.89568 0.8321 0.0
C4592 C 0.40364 0.89678 0.83138 0.0
C4593 C 0.32146 0.12624 0.11697 0.0
C4594 C 0.32959 0.11216 0.09993 0.0
C4595 C 0.32475 0.14976 0.11649 0.0
C4596 C 0.33659 0.15999 0.09912 0.0
H4597 H 0.31342 0.11896 0.13128 0.0
H4598 H 0.3191 0.15978 0.13044 0.0
S4599 S 0.35909 0.1311 0.04937 0.0
N4600 N 0.34809 0.11058 0.06417 0.0
N4601 N 0.3547 0.15457 0.06361 0.0
C4602 C 0.34368 0.1463 0.08144 0.0
C4603 C 0.34005 0.12244 0.08175 0.0
C4604 C 0.12054 0.92634 0.14802 0.0
C4605 C 0.13387 0.91333 0.16297 0.0
C4606 C 0.09692 0.92276 0.14537 0.0
C4607 C 0.08584 0.90589 0.15742 0.0
H4608 H 0.12863 0.93843 0.1373 0.0
H4609 H 0.08759 0.93237 0.13284 0.0
S4610 S 0.11225 0.86968 0.20111 0.0
N4611 N 0.13371 0.88487 0.19195 0.0
N4612 N 0.08931 0.87794 0.18671 0.0
C4613 C 0.09858 0.89398 0.17362 0.0
C4614 C 0.12261 0.89779 0.1765 0.0
C4615 C 0.35239 0.87183 0.41016 0.0
C4616 C 0.34474 0.88402 0.39133 0.0
C4617 C 0.35609 0.84806 0.40952 0.0
C4618 C 0.3527 0.83544 0.38991 0.0
H4619 H 0.35609 0.88079 0.4254 0.0
H4620 H 0.36269 0.8397 0.42425 0.0
S4621 S 0.33188 0.85888 0.33621 0.0
N4622 N 0.333 0.88112 0.35271 0.0
N4623 N 0.34032 0.83711 0.35144 0.0
C4624 C 0.34451 0.84739 0.37118 0.0
C4625 C 0.34044 0.87141 0.37191 0.0
C4626 C 0.39719 0.08445 0.64298 0.0
C4627 C 0.41146 0.09131 0.66073 0.0
C4628 C 0.37325 0.08714 0.64354 0.0
C4629 C 0.36228 0.09639 0.66206 0.0
H4630 H 0.40472 0.07851 0.62772 0.0
H4631 H 0.3633 0.08275 0.6289 0.0
S4632 S 0.39112 0.11444 0.71411 0.0
N4633 N 0.41249 0.106 0.69827 0.0
N4634 N 0.36724 0.11038 0.69956 0.0
C4635 C 0.376 0.10151 0.68073 0.0
C4636 C 0.40063 0.09904 0.68005 0.0
C4637 C 0.15491 0.14126 0.92989 0.0
C4638 C 0.17165 0.15327 0.91842 0.0
C4639 C 0.1558 0.11758 0.93117 0.0
C4640 C 0.17324 0.10511 0.92066 0.0
H4641 H 0.14048 0.15013 0.93718 0.0
H4642 H 0.14192 0.10899 0.93924 0.0
S4643 S 0.2223 0.12861 0.89024 0.0
N4644 N 0.20725 0.15106 0.89797 0.0
N4645 N 0.2086 0.10654 0.89991 0.0
C4646 C 0.19078 0.11697 0.91021 0.0
C4647 C 0.19007 0.1411 0.9092 0.0
C4648 C 0.12619 0.32747 0.11244 0.0
C4649 C 0.10846 0.34047 0.10249 0.0
C4650 C 0.12683 0.32376 0.13533 0.0
C4651 C 0.10992 0.33317 0.14906 0.0
H4652 H 0.14016 0.32085 0.10261 0.0
H4653 H 0.1414 0.3146 0.14242 0.0
S4654 S 0.05871 0.36662 0.13094 0.0
N4655 N 0.07256 0.36112 0.10791 0.0
N4656 N 0.07402 0.35447 0.15092 0.0
C4657 C 0.09145 0.34511 0.13918 0.0
C4658 C 0.09066 0.34869 0.11587 0.0
C4659 C 0.58503 0.14102 0.8813 0.0
C4660 C 0.59301 0.16057 0.8709 0.0
C4661 C 0.58392 0.13975 0.90427 0.0
C4662 C 0.5905 0.15806 0.91766 0.0
H4663 H 0.58115 0.12596 0.87178 0.0
H4664 H 0.57955 0.12372 0.91167 0.0
S4665 S 0.60806 0.2146 0.89839 0.0
N4666 N 0.60427 0.1998 0.87546 0.0
N4667 N 0.60193 0.19743 0.91892 0.0
C4668 C 0.59603 0.17855 0.90745 0.0
C4669 C 0.59742 0.17978 0.88394 0.0
C4670 C 0.92098 0.83421 0.38005 0.0
C4671 C 0.90127 0.83964 0.39248 0.0
C4672 C 0.91994 0.83224 0.3566 0.0
C4673 C 0.89911 0.83542 0.34461 0.0
H4674 H 0.93732 0.83143 0.38848 0.0
H4675 H 0.93551 0.82808 0.34782 0.0
S4676 S 0.84367 0.85358 0.36854 0.0
N4677 N 0.86091 0.85052 0.39025 0.0
N4678 N 0.8591 0.84666 0.34687 0.0
C4679 C 0.8796 0.84148 0.35678 0.0
C4680 C 0.88063 0.84359 0.38044 0.0
C4681 C 0.92666 0.12543 0.11972 0.0
C4682 C 0.91728 0.14265 0.10619 0.0
C4683 C 0.92236 0.12491 0.1425 0.0
C4684 C 0.90873 0.14171 0.15259 0.0
H4685 H 0.93642 0.11163 0.11252 0.0
H4686 H 0.92913 0.11083 0.15211 0.0
S4687 S 0.88183 0.19151 0.12474 0.0
N4688 N 0.89493 0.17764 0.10476 0.0
N4689 N 0.88715 0.17687 0.14749 0.0
C4690 C 0.90028 0.15965 0.13943 0.0
C4691 C 0.90448 0.16007 0.11625 0.0
C4692 C 0.42359 0.62757 0.64558 0.0
C4693 C 0.4095 0.64401 0.65567 0.0
C4694 C 0.42793 0.62818 0.62279 0.0
C4695 C 0.41818 0.64513 0.60915 0.0
H4696 H 0.43075 0.61368 0.65522 0.0
H4697 H 0.4382 0.61468 0.61568 0.0
S4698 S 0.38092 0.69275 0.62755 0.0
N4699 N 0.38668 0.67835 0.65036 0.0
N4700 N 0.39458 0.67933 0.60763 0.0
C4701 C 0.40473 0.66211 0.61916 0.0
C4702 C 0.40045 0.66159 0.64238 0.0
C4703 C 0.10952 0.68007 0.38454 0.0
C4704 C 0.0972 0.66494 0.371 0.0
C4705 C 0.1074 0.67956 0.40762 0.0
C4706 C 0.09288 0.66394 0.41763 0.0
H4707 H 0.12214 0.69112 0.37746 0.0
H4708 H 0.11887 0.68975 0.41766 0.0
S4709 S 0.0538 0.62391 0.38937 0.0
N4710 N 0.06741 0.63645 0.36914 0.0
N4711 N 0.06376 0.63538 0.41243 0.0
C4712 C 0.07877 0.65049 0.40416 0.0
C4713 C 0.08087 0.65099 0.3808 0.0
C4714 C 0.39339 0.32171 0.85835 0.0
C4715 C 0.40409 0.33754 0.84456 0.0
C4716 C 0.39553 0.32281 0.88171 0.0
C4717 C 0.40859 0.33969 0.89245 0.0
H4718 H 0.38276 0.30868 0.85107 0.0
H4719 H 0.3865 0.31052 0.89145 0.0
S4720 S 0.44001 0.38534 0.86418 0.0
N4721 N 0.4283 0.37071 0.84375 0.0
N4722 N 0.4324 0.3726 0.88713 0.0
C4723 C 0.41965 0.35537 0.87884 0.0
C4724 C 0.41738 0.35434 0.85512 0.0
C4725 C 0.87513 0.93292 0.65101 0.0
C4726 C 0.86417 0.91654 0.6638 0.0
C4727 C 0.89888 0.93182 0.64746 0.0
C4728 C 0.91247 0.91417 0.65641 0.0
H4729 H 0.86514 0.94614 0.64285 0.0
H4730 H 0.90641 0.94429 0.63678 0.0
S4731 S 0.89243 0.86802 0.69253 0.0
N4732 N 0.86899 0.88301 0.6867 0.0
N4733 N 0.91355 0.88082 0.67988 0.0
C4734 C 0.90194 0.89836 0.6702 0.0
C4735 C 0.87779 0.89959 0.67396 0.0
C4736 C 0.81277 0.13116 0.40727 0.0
C4737 C 0.83077 0.14054 0.39512 0.0
C4738 C 0.81287 0.10794 0.4127 0.0
C4739 C 0.83132 0.09374 0.40671 0.0
H4740 H 0.79839 0.14169 0.41226 0.0
H4741 H 0.79845 0.10107 0.42145 0.0
S4742 S 0.88216 0.10945 0.37454 0.0
N4743 N 0.86715 0.13319 0.37681 0.0
N4744 N 0.86752 0.09024 0.38781 0.0
C4745 C 0.84937 0.10291 0.39484 0.0
C4746 C 0.84908 0.12616 0.38886 0.0
C4747 C 0.5972 0.08102 0.13754 0.0
C4748 C 0.58509 0.09237 0.15436 0.0
C4749 C 0.62136 0.08165 0.13636 0.0
C4750 C 0.63468 0.09382 0.15184 0.0
H4751 H 0.58782 0.07244 0.12446 0.0
H4752 H 0.62957 0.07322 0.12261 0.0
S4753 S 0.61176 0.12621 0.19946 0.0
N4754 N 0.58862 0.11578 0.18724 0.0
N4755 N 0.63386 0.11692 0.18506 0.0
C4756 C 0.62295 0.10449 0.16929 0.0
C4757 C 0.59827 0.10375 0.17056 0.0
C4758 C 0.68012 0.87369 0.88521 0.0
C4759 C 0.67169 0.88743 0.90235 0.0
C4760 C 0.67694 0.85016 0.88529 0.0
C4761 C 0.66489 0.83963 0.90234 0.0
H4762 H 0.68836 0.88124 0.87114 0.0
H4763 H 0.68284 0.84038 0.87128 0.0
S4764 S 0.64135 0.86761 0.95211 0.0
N4765 N 0.65253 0.8884 0.93782 0.0
N4766 N 0.6461 0.84439 0.9376 0.0
C4767 C 0.6574 0.85299 0.92009 0.0
C4768 C 0.66094 0.87685 0.9202 0.0
C4769 C 0.87869 0.07391 0.84884 0.0
C4770 C 0.86523 0.08849 0.83545 0.0
C4771 C 0.90252 0.07667 0.85101 0.0
C4772 C 0.91365 0.09429 0.8401 0.0
H4773 H 0.87061 0.06108 0.85872 0.0
H4774 H 0.91201 0.06578 0.86238 0.0
S4775 S 0.8867 0.1353 0.80097 0.0
N4776 N 0.86518 0.11969 0.80931 0.0
N4777 N 0.90988 0.12509 0.8137 0.0
C4778 C 0.90067 0.10799 0.82548 0.0
C4779 C 0.87646 0.105 0.82305 0.0
C4780 C 0.66246 0.1278 0.62046 0.0
C4781 C 0.65537 0.11493 0.60198 0.0
C4782 C 0.65896 0.15141 0.62137 0.0
C4783 C 0.64864 0.16348 0.60369 0.0
H4784 H 0.66985 0.11945 0.63486 0.0
H4785 H 0.66377 0.16023 0.63643 0.0
S4786 S 0.62762 0.13817 0.55109 0.0
N4787 N 0.63795 0.11634 0.56525 0.0
N4788 N 0.63187 0.16066 0.5668 0.0
C4789 C 0.64238 0.15101 0.5847 0.0
C4790 C 0.6456 0.12682 0.58389 0.0
C4791 C 0.62121 0.90299 0.31742 0.0
C4792 C 0.63527 0.9119 0.33442 0.0
C4793 C 0.59698 0.9047 0.31829 0.0
C4794 C 0.58601 0.91514 0.33631 0.0
H4795 H 0.62888 0.89357 0.30399 0.0
H4796 H 0.58684 0.89613 0.30576 0.0
S4797 S 0.61487 0.94336 0.38376 0.0
N4798 N 0.63618 0.9336 0.36865 0.0
N4799 N 0.59109 0.93626 0.37038 0.0
C4800 C 0.59993 0.92549 0.35249 0.0
C4801 C 0.62442 0.92396 0.35155 0.0
C4802 C 0.80482 0.88374 0.08675 0.0
C4803 C 0.82237 0.89424 0.07493 0.0
C4804 C 0.80316 0.86012 0.08752 0.0
C4805 C 0.8191 0.8462 0.07659 0.0
H4806 H 0.79297 0.89381 0.09644 0.0
H4807 H 0.79016 0.85276 0.09779 0.0
S4808 S 0.86712 0.86536 0.04183 0.0
N4809 N 0.85495 0.88897 0.05074 0.0
N4810 N 0.85192 0.84462 0.05215 0.0
C4811 C 0.83581 0.85651 0.06353 0.0
C4812 C 0.83743 0.88056 0.0627 0.0
C4813 C 0.87271 0.67782 0.8668 0.0
C4814 C 0.89072 0.67008 0.85343 0.0
C4815 C 0.87333 0.67432 0.88973 0.0
C4816 C 0.89209 0.66316 0.90009 0.0
H4817 H 0.85742 0.68545 0.85941 0.0
H4818 H 0.85855 0.67952 0.89924 0.0
S4819 S 0.94484 0.64217 0.87272 0.0
N4820 N 0.92873 0.6526 0.85239 0.0
N4821 N 0.93003 0.64628 0.89546 0.0
C4822 C 0.91089 0.65674 0.88709 0.0
C4823 C 0.91017 0.66014 0.86374 0.0
C4824 C 0.40292 0.82092 0.0945 0.0
C4825 C 0.41171 0.84048 0.08473 0.0
C4826 C 0.40076 0.81942 0.11755 0.0
C4827 C 0.40763 0.8373 0.13146 0.0
H4828 H 0.39565 0.80769 0.08425 0.0
H4829 H 0.39228 0.80486 0.12435 0.0
S4830 S 0.43535 0.8904 0.11394 0.0
N4831 N 0.42991 0.87673 0.09066 0.0
N4832 N 0.42644 0.87378 0.13386 0.0
C4833 C 0.41861 0.85587 0.12194 0.0
C4834 C 0.42053 0.85748 0.09856 0.0
C4835 C 0.10441 0.17736 0.61625 0.0
C4836 C 0.09168 0.16002 0.60587 0.0
C4837 C 0.1067 0.17888 0.63956 0.0
C4838 C 0.09658 0.16296 0.65366 0.0
H4839 H 0.11306 0.1897 0.60625 0.0
H4840 H 0.11703 0.19229 0.64656 0.0
S4841 S 0.06176 0.11398 0.63507 0.0
N4842 N 0.06879 0.12659 0.61187 0.0
N4843 N 0.07328 0.12919 0.65518 0.0
C4844 C 0.08363 0.14568 0.64347 0.0
C4845 C 0.08114 0.14427 0.6198 0.0
C4846 C 0.07731 0.86673 0.85408 0.0
C4847 C 0.09368 0.8517 0.84512 0.0
C4848 C 0.07326 0.86744 0.87693 0.0
C4849 C 0.08543 0.85314 0.89166 0.0
H4850 H 0.06815 0.87865 0.84348 0.0
H4851 H 0.06118 0.8799 0.88315 0.0
S4852 S 0.1292 0.8098 0.87645 0.0
N4853 N 0.12131 0.82142 0.85271 0.0
N4854 N 0.11373 0.82269 0.89545 0.0
C4855 C 0.10112 0.83736 0.88278 0.0
C4856 C 0.10524 0.83666 0.85957 0.0
C4857 C 0.60044 0.34136 0.35804 0.0
C4858 C 0.59204 0.35904 0.34451 0.0
C4859 C 0.59615 0.34102 0.38084 0.0
C4860 C 0.58303 0.35819 0.39098 0.0
H4861 H 0.61121 0.32812 0.35117 0.0
H4862 H 0.60379 0.32755 0.39071 0.0
S4863 S 0.55593 0.40762 0.36268 0.0
N4864 N 0.56913 0.39368 0.34279 0.0
N4865 N 0.56081 0.39288 0.38546 0.0
C4866 C 0.57365 0.37543 0.37746 0.0
C4867 C 0.57823 0.37591 0.35428 0.0
C4868 C 0.90323 0.31887 0.59403 0.0
C4869 C 0.91433 0.33691 0.58377 0.0
C4870 C 0.90078 0.3185 0.61705 0.0
C4871 C 0.90951 0.3361 0.63025 0.0
H4872 H 0.89427 0.30638 0.58413 0.0
H4873 H 0.89041 0.30543 0.62427 0.0
S4874 S 0.94407 0.38445 0.61127 0.0
N4875 N 0.93698 0.37073 0.58843 0.0
N4876 N 0.93305 0.36987 0.63168 0.0
C4877 C 0.92301 0.35268 0.62029 0.0
C4878 C 0.92529 0.3531 0.59697 0.0
C4879 C 0.60912 0.67267 0.11658 0.0
C4880 C 0.59553 0.65633 0.10569 0.0
C4881 C 0.61091 0.67374 0.13994 0.0
C4882 C 0.59942 0.65834 0.15357 0.0
H4883 H 0.61879 0.68457 0.10697 0.0
H4884 H 0.62192 0.68639 0.14735 0.0
S4885 S 0.56179 0.61205 0.13354 0.0
N4886 N 0.57024 0.62443 0.11068 0.0
N4887 N 0.57387 0.62617 0.15412 0.0
C4888 C 0.58561 0.64205 0.14287 0.0
C4889 C 0.5836 0.64112 0.11914 0.0
C4890 C 0.60007 0.59369 0.83106 0.0
C4891 C 0.58975 0.57913 0.84623 0.0
C4892 C 0.62386 0.59293 0.82767 0.0
C4893 C 0.63816 0.5778 0.83957 0.0
H4894 H 0.58983 0.60634 0.82233 0.0
H4895 H 0.6312 0.60518 0.81662 0.0
S4896 S 0.6194 0.53493 0.87992 0.0
N4897 N 0.59543 0.54802 0.87204 0.0
N4898 N 0.64014 0.54686 0.86595 0.0
C4899 C 0.62791 0.56235 0.85391 0.0
C4900 C 0.60367 0.56296 0.85718 0.0
C4901 C 0.66844 0.3669 0.0798 0.0
C4902 C 0.68239 0.35719 0.0966 0.0
C4903 C 0.66658 0.39043 0.07728 0.0
C4904 C 0.67857 0.40507 0.0915 0.0
H4905 H 0.65794 0.35629 0.06922 0.0
H4906 H 0.65469 0.39715 0.06493 0.0
S4907 S 0.71903 0.38816 0.13678 0.0
N4908 N 0.70971 0.364 0.12654 0.0
N4909 N 0.70635 0.40818 0.12184 0.0
C4910 C 0.69372 0.39555 0.10744 0.0
C4911 C 0.6956 0.3716 0.10999 0.0
C4912 C 0.90676 0.4162 0.37141 0.0
C4913 C 0.91902 0.40874 0.35274 0.0
C4914 C 0.88256 0.4157 0.37214 0.0
C4915 C 0.86919 0.40748 0.35432 0.0
H4916 H 0.91607 0.42139 0.38618 0.0
H4917 H 0.87434 0.42094 0.38728 0.0
S4918 S 0.89235 0.38693 0.30096 0.0
N4919 N 0.91553 0.39384 0.31546 0.0
N4920 N 0.87017 0.39277 0.31681 0.0
C4921 C 0.88105 0.40095 0.33509 0.0
C4922 C 0.90584 0.40165 0.3343 0.0
C4923 C 0.84341 0.64615 0.58219 0.0
C4924 C 0.83373 0.65994 0.59863 0.0
C4925 C 0.83966 0.62276 0.58171 0.0
C4926 C 0.82641 0.61219 0.5979 0.0
H4927 H 0.85463 0.65335 0.57002 0.0
H4928 H 0.84827 0.61276 0.56924 0.0
S4929 S 0.7959 0.64089 0.6436 0.0
N4930 N 0.80894 0.66154 0.63063 0.0
N4931 N 0.80243 0.61749 0.63002 0.0
C4932 C 0.81577 0.6259 0.61383 0.0
C4933 C 0.8193 0.64981 0.61413 0.0
C4934 C 0.62144 0.42715 0.64581 0.0
C4935 C 0.63469 0.41345 0.66022 0.0
C4936 C 0.59763 0.42444 0.64376 0.0
C4937 C 0.58638 0.40778 0.65589 0.0
H4938 H 0.62967 0.43908 0.63501 0.0
H4939 H 0.58828 0.43446 0.63156 0.0
S4940 S 0.61272 0.36998 0.69831 0.0
N4941 N 0.63442 0.38461 0.68882 0.0
N4942 N 0.58968 0.37931 0.68472 0.0
C4943 C 0.59911 0.39526 0.67165 0.0
C4944 C 0.62332 0.39819 0.67391 0.0
C4945 C 0.84588 0.35055 0.87887 0.0
C4946 C 0.85481 0.33829 0.89711 0.0
C4947 C 0.84307 0.37424 0.87952 0.0
C4948 C 0.84937 0.38698 0.89832 0.0
H4949 H 0.84164 0.34184 0.86361 0.0
H4950 H 0.83678 0.38272 0.86473 0.0
S4951 S 0.87278 0.3633 0.95091 0.0
N4952 N 0.86907 0.34087 0.93499 0.0
N4953 N 0.86412 0.38531 0.93606 0.0
C4954 C 0.85757 0.37494 0.91698 0.0
C4955 C 0.86018 0.35068 0.91642 0.0
C4956 C 0.87683 0.57462 0.15117 0.0
C4957 C 0.86591 0.58758 0.16759 0.0
C4958 C 0.90088 0.57267 0.15032 0.0
C4959 C 0.91528 0.58347 0.1659 0.0
H4960 H 0.86678 0.56683 0.13808 0.0
H4961 H 0.90833 0.5639 0.13636 0.0
S4962 S 0.89539 0.61724 0.21387 0.0
N4963 N 0.87137 0.6097 0.20111 0.0
N4964 N 0.9166 0.60593 0.19956 0.0
C4965 C 0.90459 0.595 0.18346 0.0
C4966 C 0.87993 0.59713 0.18426 0.0
C4967 C 0.68771 0.61807 0.41731 0.0
C4968 C 0.66988 0.60621 0.42736 0.0
C4969 C 0.68714 0.64176 0.41587 0.0
C4970 C 0.66856 0.65443 0.42419 0.0
H4971 H 0.70168 0.60895 0.40953 0.0
H4972 H 0.70071 0.65005 0.40705 0.0
S4973 S 0.61878 0.63169 0.45414 0.0
N4974 N 0.63416 0.60907 0.44755 0.0
N4975 N 0.63295 0.65353 0.44461 0.0
C4976 C 0.65136 0.6429 0.43551 0.0
C4977 C 0.65206 0.61878 0.43717 0.0
C4978 C 0.63146 0.82469 0.63367 0.0
C4979 C 0.61225 0.82976 0.64668 0.0
C4980 C 0.63115 0.82909 0.61089 0.0
C4981 C 0.61157 0.83855 0.60036 0.0
H4982 H 0.64729 0.81854 0.6413 0.0
H4983 H 0.64671 0.826 0.6017 0.0
S4984 S 0.55583 0.85199 0.62659 0.0
N4985 N 0.57242 0.84263 0.64706 0.0
N4986 N 0.57175 0.85069 0.60427 0.0
C4987 C 0.59175 0.84221 0.61292 0.0
C4988 C 0.59211 0.83785 0.6361 0.0
C4989 C 0.4032 0.42292 0.15902 0.0
C4990 C 0.41362 0.40393 0.14905 0.0
C4991 C 0.37912 0.42489 0.16017 0.0
C4992 C 0.36506 0.40817 0.15084 0.0
H4993 H 0.41367 0.43645 0.1656 0.0
H4994 H 0.37152 0.43988 0.16751 0.0
S4995 S 0.384 0.35497 0.12343 0.0
N4996 N 0.40799 0.36783 0.13048 0.0
N4997 N 0.36316 0.37169 0.13219 0.0
C4998 C 0.37538 0.3889 0.14136 0.0
C4999 C 0.39961 0.38672 0.14058 0.0
C5000 C 0.33434 0.60588 0.92365 0.0
C5001 C 0.32318 0.5914 0.90865 0.0
C5002 C 0.33258 0.62943 0.92132 0.0
C5003 C 0.31947 0.63932 0.90403 0.0
H5004 H 0.34553 0.59902 0.93651 0.0
H5005 H 0.34248 0.63994 0.93254 0.0
S5006 S 0.28523 0.6088 0.86161 0.0
N5007 N 0.29717 0.58862 0.87688 0.0
N5008 N 0.29385 0.63285 0.87266 0.0
C5009 C 0.30705 0.62507 0.8898 0.0
C5010 C 0.30893 0.60109 0.89208 0.0
C5011 C 0.09523 0.58714 0.6265 0.0
C5012 C 0.08275 0.59066 0.64606 0.0
C5013 C 0.11938 0.58757 0.62629 0.0
C5014 C 0.13245 0.59175 0.6456 0.0
H5015 H 0.0862 0.58511 0.61084 0.0
H5016 H 0.1278 0.58564 0.61055 0.0
S5017 S 0.10883 0.59866 0.70188 0.0
N5018 N 0.08578 0.59593 0.68584 0.0
N5019 N 0.13117 0.597 0.68539 0.0
C5020 C 0.12042 0.59388 0.66557 0.0
C5021 C 0.09565 0.59318 0.66583 0.0
C5022 C 0.18628 0.37286 0.41182 0.0
C5023 C 0.16964 0.38897 0.40511 0.0
C5024 C 0.1814 0.34954 0.41108 0.0
C5025 C 0.15966 0.34191 0.40393 0.0
H5026 H 0.20305 0.37828 0.41758 0.0
H5027 H 0.19455 0.33748 0.41627 0.0
S5028 S 0.11129 0.37751 0.38259 0.0
N5029 N 0.13138 0.39565 0.38981 0.0
N5030 N 0.12214 0.35233 0.38859 0.0
C5031 C 0.14316 0.35798 0.39691 0.0
C5032 C 0.14819 0.38141 0.39746 0.0
C5033 C 0.40313 0.57722 0.35766 0.0
C5034 C 0.41419 0.59366 0.34501 0.0
C5035 C 0.37937 0.57387 0.35556 0.0
C5036 C 0.36587 0.5866 0.34052 0.0
H5037 H 0.41265 0.56769 0.37011 0.0
H5038 H 0.37138 0.562 0.36657 0.0
S5039 S 0.38712 0.62974 0.30159 0.0
N5040 N 0.41028 0.62137 0.31558 0.0
N5041 N 0.36573 0.61481 0.3113 0.0
C5042 C 0.37702 0.60193 0.32666 0.0
C5043 C 0.40117 0.60556 0.32902 0.0
C5044 C 0.15995 0.62748 0.11833 0.0
C5045 C 0.15169 0.61469 0.10026 0.0
C5046 C 0.15647 0.65108 0.11956 0.0
C5047 C 0.14489 0.66322 0.10262 0.0
H5048 H 0.1684 0.61908 0.13218 0.0
H5049 H 0.16235 0.65982 0.1343 0.0
S5050 S 0.12038 0.63806 0.05132 0.0
N5051 N 0.13178 0.61621 0.0647 0.0
N5052 N 0.12558 0.66048 0.06685 0.0
C5053 C 0.13734 0.65081 0.08401 0.0
C5054 C 0.14064 0.62663 0.08288 0.0
C5055 C 0.09845 0.40192 0.81876 0.0
C5056 C 0.08727 0.41407 0.83564 0.0
C5057 C 0.1227 0.39956 0.81857 0.0
C5058 C 0.13661 0.40939 0.83521 0.0
H5059 H 0.08836 0.39251 0.80679 0.0
H5060 H 0.13045 0.38885 0.80612 0.0
S5061 S 0.11584 0.44569 0.88113 0.0
N5062 N 0.09219 0.43805 0.86786 0.0
N5063 N 0.13726 0.43403 0.86744 0.0
C5064 C 0.12564 0.42318 0.85098 0.0
C5065 C 0.10115 0.4255 0.85114 0.0
C5066 C 0.31441 0.35912 0.58613 0.0
C5067 C 0.33238 0.34596 0.57728 0.0
C5068 C 0.31414 0.38279 0.58433 0.0
C5069 C 0.33174 0.39424 0.57348 0.0
H5070 H 0.30094 0.35119 0.5954 0.0
H5071 H 0.30054 0.39223 0.59235 0.0
S5072 S 0.3816 0.36746 0.54568 0.0
N5073 N 0.3674 0.34601 0.55594 0.0
N5074 N 0.36683 0.39044 0.5524 0.0
C5075 C 0.34913 0.3812 0.56347 0.0
C5076 C 0.34947 0.35708 0.56543 0.0
C5077 C 0.36532 0.17048 0.38942 0.0
C5078 C 0.3848 0.16164 0.40061 0.0
C5079 C 0.3661 0.17607 0.36693 0.0
C5080 C 0.38635 0.17283 0.35486 0.0
H5081 H 0.34908 0.17217 0.39782 0.0
H5082 H 0.35037 0.18164 0.35869 0.0
S5083 S 0.44275 0.15286 0.37708 0.0
N5084 N 0.42549 0.15207 0.39845 0.0
N5085 N 0.42684 0.16231 0.35616 0.0
C5086 C 0.40628 0.16537 0.36617 0.0
C5087 C 0.40554 0.15982 0.38907 0.0
loop_
_geom_bond_atom_site_label_1
_geom_bond_atom_site_label_2
_geom_bond_distance
_geom_bond_site_symmetry_2
_ccdc_geom_bond_type
Dy0 O4 2.398 . S
Dy0 O5 2.491 . S
Dy0 O6 2.404 . S
Dy0 O7 2.664 1_455 S
Dy0 O11 2.326 . S
Dy0 O15 2.310 . S
Dy0 O16 2.351 1_455 S
C1 O12 1.185 . S
C1 O13 1.355 . S
C2 O4 1.185 . S
C2 O5 1.355 . S
Dy3 O7 2.310 . S
Dy3 O10 2.351 1_655 S
Dy3 O12 2.398 . S
Dy3 O13 2.491 . S
Dy3 O14 2.403 1_655 S
Dy3 O15 2.664 1_655 S
Dy3 O17 2.326 . S
O4 Dy0 2.398 . S
O4 C2 1.185 . S
O5 Dy0 2.491 . S
O5 C2 1.355 . S
O6 Dy0 2.404 . S
O6 C8 1.253 1_455 S
O7 Dy0 2.664 1_655 S
O7 Dy3 2.310 . S
O7 C8 1.268 . S
C8 O6 1.253 1_655 S
C8 O7 1.268 . S
C9 O14 1.254 . S
C9 O15 1.268 . S
O10 Dy3 2.351 1_455 S
O10 C18 1.249 . S
O11 Dy0 2.326 . S
O11 C18 1.267 . S
O12 C1 1.185 . S
O12 Dy3 2.398 . S
O13 C1 1.355 . S
O13 Dy3 2.491 . S
O14 Dy3 2.403 1_455 S
O14 C9 1.254 . S
O15 Dy0 2.310 . S
O15 Dy3 2.664 1_455 S
O15 C9 1.268 . S
O16 Dy0 2.351 1_655 S
O16 C19 1.249 . S
O17 Dy3 2.326 . S
O17 C19 1.267 . S
C18 O10 1.249 . S
C18 O11 1.267 . S
C19 O16 1.249 . S
C19 O17 1.267 . S
Dy20 O24 2.398 . S
Dy20 O25 2.491 . S
Dy20 O26 2.403 . S
Dy20 O27 2.664 . S
Dy20 O31 2.326 . S
Dy20 O35 2.310 . S
Dy20 O36 2.351 . S
C21 O32 1.185 . S
C21 O33 1.355 . S
C22 O24 1.185 . S
C22 O25 1.355 . S
Dy23 O27 2.310 . S
Dy23 O30 2.351 . S
Dy23 O32 2.398 . S
Dy23 O33 2.491 . S
Dy23 O34 2.403 . S
Dy23 O35 2.664 . S
Dy23 O37 2.326 . S
O24 Dy20 2.398 . S
O24 C22 1.185 . S
O25 Dy20 2.491 . S
O25 C22 1.355 . S
O26 Dy20 2.403 . S
O26 C28 1.254 . S
O27 Dy20 2.664 . S
O27 Dy23 2.310 . S
O27 C28 1.268 . S
C28 O26 1.254 . S
C28 O27 1.268 . S
C29 O34 1.254 . S
C29 O35 1.268 . S
O30 Dy23 2.351 . S
O30 C38 1.249 . S
O31 Dy20 2.326 . S
O31 C38 1.267 . S
O32 C21 1.185 . S
O32 Dy23 2.398 . S
O33 C21 1.355 . S
O33 Dy23 2.491 . S
O34 Dy23 2.403 . S
O34 C29 1.254 . S
O35 Dy20 2.310 . S
O35 Dy23 2.664 . S
O35 C29 1.268 . S
O36 Dy20 2.351 . S
O36 C39 1.249 . S
O37 Dy23 2.326 . S
O37 C39 1.267 . S
C38 O30 1.249 . S
C38 O31 1.267 . S
C39 O36 1.249 . S
C39 O37 1.267 . S
Dy40 O44 2.398 . S
Dy40 O45 2.491 . S
Dy40 O46 2.403 . S
Dy40 O47 2.664 . S
Dy40 O51 2.326 . S
Dy40 O55 2.310 . S
Dy40 O56 2.351 . S
C41 O52 1.185 . S
C41 O53 1.355 . S
C42 O44 1.185 . S
C42 O45 1.355 . S
Dy43 O47 2.310 . S
Dy43 O50 2.351 . S
Dy43 O52 2.398 . S
Dy43 O53 2.491 . S
Dy43 O54 2.403 . S
Dy43 O55 2.664 . S
Dy43 O57 2.326 . S
O44 Dy40 2.398 . S
O44 C42 1.185 . S
O45 Dy40 2.491 . S
O45 C42 1.355 . S
O46 Dy40 2.403 . S
O46 C48 1.254 . S
O47 Dy40 2.664 . S
O47 Dy43 2.310 . S
O47 C48 1.268 . S
C48 O46 1.254 . S
C48 O47 1.268 . S
C49 O54 1.254 . S
C49 O55 1.268 . S
O50 Dy43 2.351 . S
O50 C58 1.249 . S
O51 Dy40 2.326 . S
O51 C58 1.267 . S
O52 C41 1.185 . S
O52 Dy43 2.398 . S
O53 C41 1.355 . S
O53 Dy43 2.491 . S
O54 Dy43 2.403 . S
O54 C49 1.254 . S
O55 Dy40 2.310 . S
O55 Dy43 2.664 . S
O55 C49 1.268 . S
O56 Dy40 2.351 . S
O56 C59 1.249 . S
O57 Dy43 2.326 . S
O57 C59 1.267 . S
C58 O50 1.249 . S
C58 O51 1.267 . S
C59 O56 1.249 . S
C59 O57 1.267 . S
Dy60 O64 2.398 . S
Dy60 O65 2.491 . S
Dy60 O66 2.403 . S
Dy60 O67 2.664 . S
Dy60 O71 2.326 . S
Dy60 O75 2.310 . S
Dy60 O76 2.351 . S
C61 O72 1.185 . S
C61 O73 1.355 . S
C62 O64 1.185 . S
C62 O65 1.355 . S
Dy63 O67 2.310 . S
Dy63 O70 2.351 . S
Dy63 O72 2.398 . S
Dy63 O73 2.491 . S
Dy63 O74 2.403 . S
Dy63 O75 2.664 . S
Dy63 O77 2.326 . S
O64 Dy60 2.398 . S
O64 C62 1.185 . S
O65 Dy60 2.491 . S
O65 C62 1.355 . S
O66 Dy60 2.403 . S
O66 C68 1.254 . S
O67 Dy60 2.664 . S
O67 Dy63 2.310 . S
O67 C68 1.268 . S
C68 O66 1.254 . S
C68 O67 1.268 . S
C69 O74 1.254 . S
C69 O75 1.268 . S
O70 Dy63 2.351 . S
O70 C78 1.249 . S
O71 Dy60 2.326 . S
O71 C78 1.267 . S
O72 C61 1.185 . S
O72 Dy63 2.398 . S
O73 C61 1.355 . S
O73 Dy63 2.491 . S
O74 Dy63 2.403 . S
O74 C69 1.254 . S
O75 Dy60 2.310 . S
O75 Dy63 2.664 . S
O75 C69 1.268 . S
O76 Dy60 2.351 . S
O76 C79 1.249 . S
O77 Dy63 2.326 . S
O77 C79 1.267 . S
C78 O70 1.249 . S
C78 O71 1.267 . S
C79 O76 1.249 . S
C79 O77 1.267 . S
Dy80 O84 2.398 . S
Dy80 O85 2.491 . S
Dy80 O86 2.403 1_455 S
Dy80 O87 2.664 1_455 S
Dy80 O91 2.326 . S
Dy80 O95 2.310 . S
Dy80 O96 2.351 1_455 S
C81 O92 1.185 . S
C81 O93 1.355 . S
C82 O84 1.185 . S
C82 O85 1.355 . S
Dy83 O87 2.310 . S
Dy83 O90 2.351 1_655 S
Dy83 O92 2.398 . S
Dy83 O93 2.491 . S
Dy83 O94 2.403 1_655 S
Dy83 O95 2.664 1_655 S
Dy83 O97 2.326 . S
O84 Dy80 2.398 . S
O84 C82 1.185 . S
O85 Dy80 2.491 . S
O85 C82 1.355 . S
O86 Dy80 2.403 1_655 S
O86 C88 1.255 . S
O87 Dy80 2.664 1_655 S
O87 Dy83 2.310 . S
O87 C88 1.268 . S
C88 O86 1.255 . S
C88 O87 1.268 . S
C89 O94 1.254 . S
C89 O95 1.268 . S
O90 Dy83 2.351 1_455 S
O90 C98 1.249 . S
O91 Dy80 2.326 . S
O91 C98 1.267 . S
O92 C81 1.185 . S
O92 Dy83 2.398 . S
O93 C81 1.355 . S
O93 Dy83 2.491 . S
O94 Dy83 2.403 1_455 S
O94 C89 1.254 . S
O95 Dy80 2.310 . S
O95 Dy83 2.664 1_455 S
O95 C89 1.268 . S
O96 Dy80 2.351 1_655 S
O96 C99 1.249 . S
O97 Dy83 2.326 . S
O97 C99 1.267 . S
C98 O90 1.249 . S
C98 O91 1.267 . S
C99 O96 1.249 . S
C99 O97 1.267 . S
Dy100 O104 2.398 . S
Dy100 O105 2.491 . S
Dy100 O106 2.403 . S
Dy100 O107 2.664 . S
Dy100 O111 2.326 . S
Dy100 O115 2.310 . S
Dy100 O116 2.351 . S
C101 O112 1.185 . S
C101 O113 1.355 . S
C102 O104 1.185 . S
C102 O105 1.355 . S
Dy103 O107 2.310 . S
Dy103 O110 2.351 . S
Dy103 O112 2.398 . S
Dy103 O113 2.491 . S
Dy103 O114 2.403 . S
Dy103 O115 2.664 . S
Dy103 O117 2.326 . S
O104 Dy100 2.398 . S
O104 C102 1.185 . S
O105 Dy100 2.491 . S
O105 C102 1.355 . S
O106 Dy100 2.403 . S
O106 C108 1.254 . S
O107 Dy100 2.664 . S
O107 Dy103 2.310 . S
O107 C108 1.268 . S
C108 O106 1.254 . S
C108 O107 1.268 . S
C109 O114 1.254 . S
C109 O115 1.268 . S
O110 Dy103 2.351 . S
O110 C118 1.249 . S
O111 Dy100 2.326 . S
O111 C118 1.267 . S
O112 C101 1.185 . S
O112 Dy103 2.398 . S
O113 C101 1.355 . S
O113 Dy103 2.491 . S
O114 Dy103 2.403 . S
O114 C109 1.254 . S
O115 Dy100 2.310 . S
O115 Dy103 2.664 . S
O115 C109 1.268 . S
O116 Dy100 2.351 . S
O116 C119 1.249 . S
O117 Dy103 2.326 . S
O117 C119 1.267 . S
C118 O110 1.249 . S
C118 O111 1.267 . S
C119 O116 1.249 . S
C119 O117 1.267 . S
Dy120 O124 2.398 . S
Dy120 O125 2.491 . S
Dy120 O126 2.403 . S
Dy120 O127 2.664 . S
Dy120 O131 2.326 . S
Dy120 O135 2.310 . S
Dy120 O136 2.351 . S
C121 O132 1.185 . S
C121 O133 1.355 . S
C122 O124 1.185 . S
C122 O125 1.355 . S
Dy123 O127 2.310 . S
Dy123 O130 2.351 . S
Dy123 O132 2.398 . S
Dy123 O133 2.491 . S
Dy123 O134 2.403 . S
Dy123 O135 2.664 . S
Dy123 O137 2.326 . S
O124 Dy120 2.398 . S
O124 C122 1.185 . S
O125 Dy120 2.491 . S
O125 C122 1.355 . S
O126 Dy120 2.403 . S
O126 C128 1.254 . S
O127 Dy120 2.664 . S
O127 Dy123 2.310 . S
O127 C128 1.268 . S
C128 O126 1.254 . S
C128 O127 1.268 . S
C129 O134 1.254 . S
C129 O135 1.268 . S
O130 Dy123 2.351 . S
O130 C138 1.249 . S
O131 Dy120 2.326 . S
O131 C138 1.267 . S
O132 C121 1.185 . S
O132 Dy123 2.398 . S
O133 C121 1.355 . S
O133 Dy123 2.491 . S
O134 Dy123 2.403 . S
O134 C129 1.254 . S
O135 Dy120 2.310 . S
O135 Dy123 2.664 . S
O135 C129 1.268 . S
O136 Dy120 2.351 . S
O136 C139 1.249 . S
O137 Dy123 2.326 . S
O137 C139 1.267 . S
C138 O130 1.249 . S
C138 O131 1.267 . S
C139 O136 1.249 . S
C139 O137 1.267 . S
Dy140 O144 2.398 . S
Dy140 O145 2.491 . S
Dy140 O146 2.403 . S
Dy140 O147 2.664 . S
Dy140 O151 2.326 . S
Dy140 O155 2.310 . S
Dy140 O156 2.351 . S
C141 O152 1.185 . S
C141 O153 1.355 . S
C142 O144 1.185 . S
C142 O145 1.355 . S
Dy143 O147 2.310 . S
Dy143 O150 2.351 . S
Dy143 O152 2.398 . S
Dy143 O153 2.491 . S
Dy143 O154 2.403 . S
Dy143 O155 2.664 . S
Dy143 O157 2.326 . S
O144 Dy140 2.398 . S
O144 C142 1.185 . S
O145 Dy140 2.491 . S
O145 C142 1.355 . S
O146 Dy140 2.403 . S
O146 C148 1.254 . S
O147 Dy140 2.664 . S
O147 Dy143 2.310 . S
O147 C148 1.268 . S
C148 O146 1.254 . S
C148 O147 1.268 . S
C149 O154 1.254 . S
C149 O155 1.268 . S
O150 Dy143 2.351 . S
O150 C158 1.249 . S
O151 Dy140 2.326 . S
O151 C158 1.267 . S
O152 C141 1.185 . S
O152 Dy143 2.398 . S
O153 C141 1.355 . S
O153 Dy143 2.491 . S
O154 Dy143 2.403 . S
O154 C149 1.254 . S
O155 Dy140 2.310 . S
O155 Dy143 2.664 . S
O155 C149 1.268 . S
O156 Dy140 2.351 . S
O156 C159 1.249 . S
O157 Dy143 2.326 . S
O157 C159 1.267 . S
C158 O150 1.249 . S
C158 O151 1.267 . S
C159 O156 1.249 . S
C159 O157 1.267 . S
Dy160 O164 2.398 . S
Dy160 O165 2.491 . S
Dy160 O166 2.403 . S
Dy160 O167 2.664 . S
Dy160 O171 2.326 . S
Dy160 O175 2.310 . S
Dy160 O176 2.351 . S
C161 O172 1.185 . S
C161 O173 1.355 . S
C162 O164 1.185 . S
C162 O165 1.355 . S
Dy163 O167 2.310 . S
Dy163 O170 2.351 . S
Dy163 O172 2.398 1_545 S
Dy163 O173 2.491 1_545 S
Dy163 O174 2.403 . S
Dy163 O175 2.664 . S
Dy163 O177 2.326 1_545 S
O164 Dy160 2.398 . S
O164 C162 1.185 . S
O165 Dy160 2.491 . S
O165 C162 1.355 . S
O166 Dy160 2.403 . S
O166 C168 1.254 . S
O167 Dy160 2.664 . S
O167 Dy163 2.310 . S
O167 C168 1.268 . S
C168 O166 1.254 . S
C168 O167 1.268 . S
C169 O174 1.254 . S
C169 O175 1.268 . S
O170 Dy163 2.351 . S
O170 C178 1.249 . S
O171 Dy160 2.326 . S
O171 C178 1.267 . S
O172 C161 1.185 . S
O172 Dy163 2.398 1_565 S
O173 C161 1.355 . S
O173 Dy163 2.491 1_565 S
O174 Dy163 2.403 . S
O174 C169 1.254 . S
O175 Dy160 2.310 . S
O175 Dy163 2.664 . S
O175 C169 1.268 . S
O176 Dy160 2.351 . S
O176 C179 1.249 . S
O177 Dy163 2.326 1_565 S
O177 C179 1.267 1_565 S
C178 O170 1.249 . S
C178 O171 1.267 . S
C179 O176 1.249 . S
C179 O177 1.267 1_545 S
Dy180 O184 2.398 . S
Dy180 O185 2.491 . S
Dy180 O186 2.403 . S
Dy180 O187 2.664 . S
Dy180 O191 2.326 . S
Dy180 O195 2.310 . S
Dy180 O196 2.351 . S
C181 O192 1.185 . S
C181 O193 1.355 . S
C182 O184 1.185 . S
C182 O185 1.355 . S
Dy183 O187 2.310 . S
Dy183 O190 2.351 . S
Dy183 O192 2.398 . S
Dy183 O193 2.491 . S
Dy183 O194 2.403 . S
Dy183 O195 2.664 . S
Dy183 O197 2.326 . S
O184 Dy180 2.398 . S
O184 C182 1.185 . S
O185 Dy180 2.491 . S
O185 C182 1.355 . S
O186 Dy180 2.403 . S
O186 C188 1.254 . S
O187 Dy180 2.664 . S
O187 Dy183 2.310 . S
O187 C188 1.268 . S
C188 O186 1.254 . S
C188 O187 1.268 . S
C189 O194 1.254 . S
C189 O195 1.268 . S
O190 Dy183 2.351 . S
O190 C198 1.249 . S
O191 Dy180 2.326 . S
O191 C198 1.267 . S
O192 C181 1.185 . S
O192 Dy183 2.398 . S
O193 C181 1.355 . S
O193 Dy183 2.491 . S
O194 Dy183 2.403 . S
O194 C189 1.254 . S
O195 Dy180 2.310 . S
O195 Dy183 2.664 . S
O195 C189 1.268 . S
O196 Dy180 2.351 . S
O196 C199 1.249 . S
O197 Dy183 2.326 . S
O197 C199 1.267 . S
C198 O190 1.249 . S
C198 O191 1.267 . S
C199 O196 1.249 . S
C199 O197 1.267 . S
Dy200 O204 2.398 . S
Dy200 O205 2.491 . S
Dy200 O206 2.403 . S
Dy200 O207 2.664 1_565 S
Dy200 O211 2.326 . S
Dy200 O215 2.310 . S
Dy200 O216 2.379 . S
C201 O212 1.185 . S
C201 O213 1.355 . S
C202 O204 1.185 . S
C202 O205 1.355 . S
Dy203 O207 2.310 . S
Dy203 O210 2.351 1_545 S
Dy203 O212 2.398 . S
Dy203 O213 2.491 . S
Dy203 O214 2.403 1_545 S
Dy203 O215 2.664 1_545 S
Dy203 O217 2.326 . S
O204 Dy200 2.398 . S
O204 C202 1.185 . S
O205 Dy200 2.491 . S
O205 C202 1.355 . S
O206 Dy200 2.403 . S
O206 C208 1.254 1_565 S
O207 Dy200 2.664 1_545 S
O207 Dy203 2.310 . S
O207 C208 1.268 . S
C208 O206 1.254 1_545 S
C208 O207 1.268 . S
C209 O214 1.254 . S
C209 O215 1.268 . S
O210 Dy203 2.351 1_565 S
O210 C218 1.249 . S
O211 Dy200 2.326 . S
O211 C218 1.267 . S
O212 C201 1.185 . S
O212 Dy203 2.398 . S
O213 C201 1.355 . S
O213 Dy203 2.491 . S
O214 Dy203 2.403 1_565 S
O214 C209 1.254 . S
O215 Dy200 2.310 . S
O215 Dy203 2.664 1_565 S
O215 C209 1.268 . S
O216 Dy200 2.379 . S
O216 C219 1.220 1_565 S
O217 Dy203 2.326 . S
O217 C219 1.267 . S
C218 O210 1.249 . S
C218 O211 1.267 . S
C219 O216 1.220 1_545 S
C219 O217 1.267 . S
Dy220 O224 2.398 . S
Dy220 O225 2.491 . S
Dy220 O226 2.403 . S
Dy220 O227 2.664 . S
Dy220 O231 2.326 . S
Dy220 O235 2.310 . S
Dy220 O236 2.351 . S
C221 O232 1.185 . S
C221 O233 1.355 . S
C222 O224 1.185 . S
C222 O225 1.355 . S
Dy223 O227 2.310 . S
Dy223 O230 2.351 . S
Dy223 O232 2.398 . S
Dy223 O233 2.491 . S
Dy223 O234 2.403 . S
Dy223 O235 2.664 . S
Dy223 O237 2.326 . S
O224 Dy220 2.398 . S
O224 C222 1.185 . S
O225 Dy220 2.491 . S
O225 C222 1.355 . S
O226 Dy220 2.403 . S
O226 C228 1.254 . S
O227 Dy220 2.664 . S
O227 Dy223 2.310 . S
O227 C228 1.268 . S
C228 O226 1.254 . S
C228 O227 1.268 . S
C229 O234 1.254 . S
C229 O235 1.268 . S
O230 Dy223 2.351 . S
O230 C238 1.249 . S
O231 Dy220 2.326 . S
O231 C238 1.267 . S
O232 C221 1.185 . S
O232 Dy223 2.398 . S
O233 C221 1.355 . S
O233 Dy223 2.491 . S
O234 Dy223 2.403 . S
O234 C229 1.254 . S
O235 Dy220 2.310 . S
O235 Dy223 2.664 . S
O235 C229 1.268 . S
O236 Dy220 2.351 . S
O236 C239 1.249 . S
O237 Dy223 2.326 . S
O237 C239 1.267 . S
C238 O230 1.249 . S
C238 O231 1.267 . S
C239 O236 1.249 . S
C239 O237 1.267 . S
Dy240 O244 2.398 . S
Dy240 O245 2.491 . S
Dy240 O246 2.403 . S
Dy240 O247 2.664 . S
Dy240 O251 2.326 . S
Dy240 O255 2.310 . S
Dy240 O256 2.351 . S
C241 O252 1.185 . S
C241 O253 1.355 . S
C242 O244 1.185 . S
C242 O245 1.355 . S
Dy243 O247 2.306 1_545 S
Dy243 O250 2.331 1_545 S
Dy243 O252 2.419 . S
Dy243 O253 2.520 . S
Dy243 O254 2.386 1_545 S
Dy243 O255 2.637 1_545 S
Dy243 O257 2.328 . S
O244 Dy240 2.398 . S
O244 C242 1.185 . S
O245 Dy240 2.491 . S
O245 C242 1.355 . S
O246 Dy240 2.403 . S
O246 C248 1.254 . S
O247 Dy240 2.664 . S
O247 Dy243 2.306 1_565 S
O247 C248 1.268 . S
C248 O246 1.254 . S
C248 O247 1.268 . S
C249 O254 1.254 . S
C249 O255 1.268 . S
O250 Dy243 2.331 1_565 S
O250 C258 1.249 . S
O251 Dy240 2.326 . S
O251 C258 1.267 . S
O252 C241 1.185 . S
O252 Dy243 2.419 . S
O253 C241 1.355 . S
O253 Dy243 2.520 . S
O254 Dy243 2.386 1_565 S
O254 C249 1.254 . S
O255 Dy240 2.310 . S
O255 Dy243 2.637 1_565 S
O255 C249 1.268 . S
O256 Dy240 2.351 . S
O256 C259 1.252 . S
O257 Dy243 2.328 . S
O257 C259 1.267 1_545 S
C258 O250 1.249 . S
C258 O251 1.267 . S
C259 O256 1.252 . S
C259 O257 1.267 1_565 S
Dy260 O264 2.398 . S
Dy260 O265 2.491 . S
Dy260 O266 2.403 . S
Dy260 O267 2.664 . S
Dy260 O271 2.326 . S
Dy260 O275 2.310 . S
Dy260 O276 2.351 . S
C261 O272 1.185 . S
C261 O273 1.355 . S
C262 O264 1.185 . S
C262 O265 1.355 . S
Dy263 O267 2.310 . S
Dy263 O270 2.351 . S
Dy263 O272 2.398 . S
Dy263 O273 2.491 . S
Dy263 O274 2.403 . S
Dy263 O275 2.664 . S
Dy263 O277 2.326 . S
O264 Dy260 2.398 . S
O264 C262 1.185 . S
O265 Dy260 2.491 . S
O265 C262 1.355 . S
O266 Dy260 2.403 . S
O266 C268 1.254 . S
O267 Dy260 2.664 . S
O267 Dy263 2.310 . S
O267 C268 1.268 . S
C268 O266 1.254 . S
C268 O267 1.268 . S
C269 O274 1.254 . S
C269 O275 1.268 . S
O270 Dy263 2.351 . S
O270 C278 1.249 . S
O271 Dy260 2.326 . S
O271 C278 1.267 . S
O272 C261 1.185 . S
O272 Dy263 2.398 . S
O273 C261 1.355 . S
O273 Dy263 2.491 . S
O274 Dy263 2.403 . S
O274 C269 1.254 . S
O275 Dy260 2.310 . S
O275 Dy263 2.664 . S
O275 C269 1.268 . S
O276 Dy260 2.351 . S
O276 C279 1.249 . S
O277 Dy263 2.326 . S
O277 C279 1.267 . S
C278 O270 1.249 . S
C278 O271 1.267 . S
C279 O276 1.249 . S
C279 O277 1.267 . S
Dy280 O284 2.398 . S
Dy280 O285 2.491 . S
Dy280 O286 2.403 . S
Dy280 O287 2.645 1_545 S
Dy280 O291 2.326 . S
Dy280 O295 2.310 . S
Dy280 O296 2.351 . S
C281 O292 1.185 . S
C281 O293 1.355 . S
C282 O284 1.185 . S
C282 O285 1.355 . S
Dy283 O287 2.311 . S
Dy283 O290 2.351 1_565 S
Dy283 O292 2.398 . S
Dy283 O293 2.491 . S
Dy283 O294 2.403 1_565 S
Dy283 O295 2.664 1_565 S
Dy283 O297 2.326 . S
O284 Dy280 2.398 . S
O284 C282 1.185 . S
O285 Dy280 2.491 . S
O285 C282 1.355 . S
O286 Dy280 2.403 . S
O286 C288 1.216 1_545 S
O287 Dy280 2.645 1_565 S
O287 Dy283 2.311 . S
O287 C288 1.267 . S
C288 O286 1.216 1_565 S
C288 O287 1.267 . S
C289 O294 1.254 . S
C289 O295 1.268 . S
O290 Dy283 2.351 1_545 S
O290 C298 1.249 . S
O291 Dy280 2.326 . S
O291 C298 1.267 . S
O292 C281 1.185 . S
O292 Dy283 2.398 . S
O293 C281 1.355 . S
O293 Dy283 2.491 . S
O294 Dy283 2.403 1_545 S
O294 C289 1.254 . S
O295 Dy280 2.310 . S
O295 Dy283 2.664 1_545 S
O295 C289 1.268 . S
O296 Dy280 2.351 . S
O296 C299 1.249 1_545 S
O297 Dy283 2.326 . S
O297 C299 1.267 . S
C298 O290 1.249 . S
C298 O291 1.267 . S
C299 O296 1.249 1_565 S
C299 O297 1.267 . S
Dy300 O304 2.398 . S
Dy300 O305 2.491 . S
Dy300 O306 2.403 . S
Dy300 O307 2.664 . S
Dy300 O311 2.326 . S
Dy300 O315 2.310 . S
Dy300 O316 2.351 . S
C301 O312 1.185 . S
C301 O313 1.355 . S
C302 O304 1.185 . S
C302 O305 1.355 . S
Dy303 O307 2.310 . S
Dy303 O310 2.351 . S
Dy303 O312 2.398 . S
Dy303 O313 2.491 . S
Dy303 O314 2.403 . S
Dy303 O315 2.664 . S
Dy303 O317 2.326 . S
O304 Dy300 2.398 . S
O304 C302 1.185 . S
O305 Dy300 2.491 . S
O305 C302 1.355 . S
O306 Dy300 2.403 . S
O306 C308 1.254 . S
O307 Dy300 2.664 . S
O307 Dy303 2.310 . S
O307 C308 1.268 . S
C308 O306 1.254 . S
C308 O307 1.268 . S
C309 O314 1.254 . S
C309 O315 1.268 . S
O310 Dy303 2.351 . S
O310 C318 1.249 . S
O311 Dy300 2.326 . S
O311 C318 1.267 . S
O312 C301 1.185 . S
O312 Dy303 2.398 . S
O313 C301 1.355 . S
O313 Dy303 2.491 . S
O314 Dy303 2.403 . S
O314 C309 1.254 . S
O315 Dy300 2.310 . S
O315 Dy303 2.664 . S
O315 C309 1.268 . S
O316 Dy300 2.351 . S
O316 C319 1.249 . S
O317 Dy303 2.326 . S
O317 C319 1.267 . S
C318 O310 1.249 . S
C318 O311 1.267 . S
C319 O316 1.249 . S
C319 O317 1.267 . S
Dy320 O324 2.398 . S
Dy320 O325 2.491 . S
Dy320 O326 2.403 . S
Dy320 O327 2.668 1_554 S
Dy320 O331 2.326 . S
Dy320 O335 2.310 . S
Dy320 O336 2.351 . S
C321 O332 1.185 . S
C321 O333 1.355 . S
C322 O324 1.185 . S
C322 O325 1.355 . S
Dy323 O327 2.309 . S
Dy323 O330 2.351 1_556 S
Dy323 O332 2.398 . S
Dy323 O333 2.491 . S
Dy323 O334 2.403 1_556 S
Dy323 O335 2.664 1_556 S
Dy323 O337 2.326 . S
O324 Dy320 2.398 . S
O324 C322 1.185 . S
O325 Dy320 2.491 . S
O325 C322 1.355 . S
O326 Dy320 2.403 . S
O326 C328 1.252 1_554 S
O327 Dy320 2.668 1_556 S
O327 Dy323 2.309 . S
O327 C328 1.268 . S
C328 O326 1.252 1_556 S
C328 O327 1.268 . S
C329 O334 1.254 . S
C329 O335 1.268 . S
O330 Dy323 2.351 1_554 S
O330 C338 1.249 . S
O331 Dy320 2.326 . S
O331 C338 1.267 . S
O332 C321 1.185 . S
O332 Dy323 2.398 . S
O333 C321 1.355 . S
O333 Dy323 2.491 . S
O334 Dy323 2.403 1_554 S
O334 C329 1.254 . S
O335 Dy320 2.310 . S
O335 Dy323 2.664 1_554 S
O335 C329 1.268 . S
O336 Dy320 2.351 . S
O336 C339 1.249 1_554 S
O337 Dy323 2.326 . S
O337 C339 1.267 . S
C338 O330 1.249 . S
C338 O331 1.267 . S
C339 O336 1.249 1_556 S
C339 O337 1.267 . S
Dy340 O344 2.398 1_556 S
Dy340 O345 2.491 1_556 S
Dy340 O346 2.403 . S
Dy340 O347 2.664 . S
Dy340 O351 2.326 1_556 S
Dy340 O355 2.310 . S
Dy340 O356 2.351 . S
C341 O352 1.185 . S
C341 O353 1.355 . S
C342 O344 1.185 . S
C342 O345 1.355 . S
Dy343 O347 2.310 . S
Dy343 O350 2.351 1_556 S
Dy343 O352 2.398 . S
Dy343 O353 2.491 . S
Dy343 O354 2.403 . S
Dy343 O355 2.664 . S
Dy343 O357 2.326 . S
O344 Dy340 2.398 1_554 S
O344 C342 1.185 . S
O345 Dy340 2.491 1_554 S
O345 C342 1.355 . S
O346 Dy340 2.403 . S
O346 C348 1.254 . S
O347 Dy340 2.664 . S
O347 Dy343 2.310 . S
O347 C348 1.268 . S
C348 O346 1.254 . S
C348 O347 1.268 . S
C349 O354 1.254 1_554 S
C349 O355 1.268 1_554 S
O350 Dy343 2.351 1_554 S
O350 C358 1.249 . S
O351 Dy340 2.326 1_554 S
O351 C358 1.267 . S
O352 C341 1.185 . S
O352 Dy343 2.398 . S
O353 C341 1.355 . S
O353 Dy343 2.491 . S
O354 Dy343 2.403 . S
O354 C349 1.254 1_556 S
O355 Dy340 2.310 . S
O355 Dy343 2.664 . S
O355 C349 1.268 1_556 S
O356 Dy340 2.351 . S
O356 C359 1.249 . S
O357 Dy343 2.326 . S
O357 C359 1.267 . S
C358 O350 1.249 . S
C358 O351 1.267 . S
C359 O356 1.249 . S
C359 O357 1.267 . S
Dy360 O364 2.398 . S
Dy360 O365 2.491 . S
Dy360 O366 2.403 . S
Dy360 O367 2.664 . S
Dy360 O371 2.326 . S
Dy360 O375 2.310 . S
Dy360 O376 2.351 . S
C361 O372 1.185 . S
C361 O373 1.355 . S
C362 O364 1.185 . S
C362 O365 1.355 . S
Dy363 O367 2.310 . S
Dy363 O370 2.351 . S
Dy363 O372 2.398 . S
Dy363 O373 2.491 . S
Dy363 O374 2.403 . S
Dy363 O375 2.664 . S
Dy363 O377 2.326 . S
O364 Dy360 2.398 . S
O364 C362 1.185 . S
O365 Dy360 2.491 . S
O365 C362 1.355 . S
O366 Dy360 2.403 . S
O366 C368 1.254 . S
O367 Dy360 2.664 . S
O367 Dy363 2.310 . S
O367 C368 1.268 . S
C368 O366 1.254 . S
C368 O367 1.268 . S
C369 O374 1.254 . S
C369 O375 1.268 . S
O370 Dy363 2.351 . S
O370 C378 1.249 . S
O371 Dy360 2.326 . S
O371 C378 1.267 . S
O372 C361 1.185 . S
O372 Dy363 2.398 . S
O373 C361 1.355 . S
O373 Dy363 2.491 . S
O374 Dy363 2.403 . S
O374 C369 1.254 . S
O375 Dy360 2.310 . S
O375 Dy363 2.664 . S
O375 C369 1.268 . S
O376 Dy360 2.351 . S
O376 C379 1.249 . S
O377 Dy363 2.326 . S
O377 C379 1.267 . S
C378 O370 1.249 . S
C378 O371 1.267 . S
C379 O376 1.249 . S
C379 O377 1.267 . S
Dy380 O384 2.398 . S
Dy380 O385 2.491 . S
Dy380 O386 2.403 . S
Dy380 O387 2.664 . S
Dy380 O391 2.326 . S
Dy380 O395 2.310 . S
Dy380 O396 2.351 . S
C381 O392 1.185 . S
C381 O393 1.355 . S
C382 O384 1.185 . S
C382 O385 1.355 . S
Dy383 O387 2.310 . S
Dy383 O390 2.351 . S
Dy383 O392 2.398 . S
Dy383 O393 2.491 . S
Dy383 O394 2.403 . S
Dy383 O395 2.664 . S
Dy383 O397 2.326 . S
O384 Dy380 2.398 . S
O384 C382 1.185 . S
O385 Dy380 2.491 . S
O385 C382 1.355 . S
O386 Dy380 2.403 . S
O386 C388 1.254 . S
O387 Dy380 2.664 . S
O387 Dy383 2.310 . S
O387 C388 1.268 . S
C388 O386 1.254 . S
C388 O387 1.268 . S
C389 O394 1.254 . S
C389 O395 1.268 . S
O390 Dy383 2.351 . S
O390 C398 1.249 . S
O391 Dy380 2.326 . S
O391 C398 1.267 . S
O392 C381 1.185 . S
O392 Dy383 2.398 . S
O393 C381 1.355 . S
O393 Dy383 2.491 . S
O394 Dy383 2.403 . S
O394 C389 1.254 . S
O395 Dy380 2.310 . S
O395 Dy383 2.664 . S
O395 C389 1.268 . S
O396 Dy380 2.351 . S
O396 C399 1.249 . S
O397 Dy383 2.326 . S
O397 C399 1.267 . S
C398 O390 1.249 . S
C398 O391 1.267 . S
C399 O396 1.249 . S
C399 O397 1.267 . S
Dy400 O404 2.398 . S
Dy400 O405 2.491 . S
Dy400 O406 2.403 . S
Dy400 O407 2.664 . S
Dy400 O411 2.326 . S
Dy400 O415 2.310 . S
Dy400 O416 2.351 . S
C401 O412 1.185 . S
C401 O413 1.355 . S
C402 O404 1.185 . S
C402 O405 1.355 . S
Dy403 O407 2.310 . S
Dy403 O410 2.351 . S
Dy403 O412 2.398 . S
Dy403 O413 2.491 . S
Dy403 O414 2.403 . S
Dy403 O415 2.664 . S
Dy403 O417 2.326 . S
O404 Dy400 2.398 . S
O404 C402 1.185 . S
O405 Dy400 2.491 . S
O405 C402 1.355 . S
O406 Dy400 2.403 . S
O406 C408 1.254 . S
O407 Dy400 2.664 . S
O407 Dy403 2.310 . S
O407 C408 1.268 . S
C408 O406 1.254 . S
C408 O407 1.268 . S
C409 O414 1.254 . S
C409 O415 1.268 . S
O410 Dy403 2.351 . S
O410 C418 1.249 . S
O411 Dy400 2.326 . S
O411 C418 1.267 . S
O412 C401 1.185 . S
O412 Dy403 2.398 . S
O413 C401 1.355 . S
O413 Dy403 2.491 . S
O414 Dy403 2.403 . S
O414 C409 1.254 . S
O415 Dy400 2.310 . S
O415 Dy403 2.664 . S
O415 C409 1.268 . S
O416 Dy400 2.351 . S
O416 C419 1.249 . S
O417 Dy403 2.326 . S
O417 C419 1.267 . S
C418 O410 1.249 . S
C418 O411 1.267 . S
C419 O416 1.249 . S
C419 O417 1.267 . S
Dy420 O424 2.398 . S
Dy420 O425 2.491 . S
Dy420 O426 2.403 . S
Dy420 O427 2.664 . S
Dy420 O431 2.326 . S
Dy420 O435 2.310 . S
Dy420 O436 2.351 . S
C421 O432 1.185 . S
C421 O433 1.355 . S
C422 O424 1.185 . S
C422 O425 1.355 . S
Dy423 O427 2.310 . S
Dy423 O430 2.351 . S
Dy423 O432 2.398 . S
Dy423 O433 2.491 . S
Dy423 O434 2.403 . S
Dy423 O435 2.664 . S
Dy423 O437 2.326 . S
O424 Dy420 2.398 . S
O424 C422 1.185 . S
O425 Dy420 2.491 . S
O425 C422 1.355 . S
O426 Dy420 2.403 . S
O426 C428 1.254 . S
O427 Dy420 2.664 . S
O427 Dy423 2.310 . S
O427 C428 1.268 . S
C428 O426 1.254 . S
C428 O427 1.268 . S
C429 O434 1.254 . S
C429 O435 1.268 . S
O430 Dy423 2.351 . S
O430 C438 1.249 . S
O431 Dy420 2.326 . S
O431 C438 1.267 . S
O432 C421 1.185 . S
O432 Dy423 2.398 . S
O433 C421 1.355 . S
O433 Dy423 2.491 . S
O434 Dy423 2.403 . S
O434 C429 1.254 . S
O435 Dy420 2.310 . S
O435 Dy423 2.664 . S
O435 C429 1.268 . S
O436 Dy420 2.351 . S
O436 C439 1.249 . S
O437 Dy423 2.326 . S
O437 C439 1.267 . S
C438 O430 1.249 . S
C438 O431 1.267 . S
C439 O436 1.249 . S
C439 O437 1.267 . S
Dy440 O444 2.398 . S
Dy440 O445 2.491 . S
Dy440 O446 2.403 . S
Dy440 O447 2.664 . S
Dy440 O451 2.326 . S
Dy440 O455 2.310 . S
Dy440 O456 2.351 . S
C441 O452 1.185 . S
C441 O453 1.355 . S
C442 O444 1.185 . S
C442 O445 1.355 . S
Dy443 O447 2.310 . S
Dy443 O450 2.351 . S
Dy443 O452 2.398 . S
Dy443 O453 2.491 . S
Dy443 O454 2.403 . S
Dy443 O455 2.664 . S
Dy443 O457 2.326 . S
O444 Dy440 2.398 . S
O444 C442 1.185 . S
O445 Dy440 2.491 . S
O445 C442 1.355 . S
O446 Dy440 2.403 . S
O446 C448 1.254 . S
O447 Dy440 2.664 . S
O447 Dy443 2.310 . S
O447 C448 1.268 . S
C448 O446 1.254 . S
C448 O447 1.268 . S
C449 O454 1.254 . S
C449 O455 1.268 . S
O450 Dy443 2.351 . S
O450 C458 1.249 . S
O451 Dy440 2.326 . S
O451 C458 1.267 . S
O452 C441 1.185 . S
O452 Dy443 2.398 . S
O453 C441 1.355 . S
O453 Dy443 2.491 . S
O454 Dy443 2.403 . S
O454 C449 1.254 . S
O455 Dy440 2.310 . S
O455 Dy443 2.664 . S
O455 C449 1.268 . S
O456 Dy440 2.351 . S
O456 C459 1.249 . S
O457 Dy443 2.326 . S
O457 C459 1.267 . S
C458 O450 1.249 . S
C458 O451 1.267 . S
C459 O456 1.249 . S
C459 O457 1.267 . S
Dy460 O464 2.398 . S
Dy460 O465 2.491 . S
Dy460 O466 2.403 . S
Dy460 O467 2.664 . S
Dy460 O471 2.326 . S
Dy460 O475 2.310 . S
Dy460 O476 2.351 . S
C461 O472 1.185 . S
C461 O473 1.355 . S
C462 O464 1.185 . S
C462 O465 1.355 . S
Dy463 O467 2.310 . S
Dy463 O470 2.351 . S
Dy463 O472 2.398 . S
Dy463 O473 2.491 . S
Dy463 O474 2.403 . S
Dy463 O475 2.664 . S
Dy463 O477 2.326 . S
O464 Dy460 2.398 . S
O464 C462 1.185 . S
O465 Dy460 2.491 . S
O465 C462 1.355 . S
O466 Dy460 2.403 . S
O466 C468 1.254 . S
O467 Dy460 2.664 . S
O467 Dy463 2.310 . S
O467 C468 1.268 . S
C468 O466 1.254 . S
C468 O467 1.268 . S
C469 O474 1.254 . S
C469 O475 1.268 . S
O470 Dy463 2.351 . S
O470 C478 1.249 . S
O471 Dy460 2.326 . S
O471 C478 1.267 . S
O472 C461 1.185 . S
O472 Dy463 2.398 . S
O473 C461 1.355 . S
O473 Dy463 2.491 . S
O474 Dy463 2.403 . S
O474 C469 1.254 . S
O475 Dy460 2.310 . S
O475 Dy463 2.664 . S
O475 C469 1.268 . S
O476 Dy460 2.351 . S
O476 C479 1.249 . S
O477 Dy463 2.326 . S
O477 C479 1.267 . S
C478 O470 1.249 . S
C478 O471 1.267 . S
C479 O476 1.249 . S
C479 O477 1.267 . S
Dy480 O484 2.398 . S
Dy480 O485 2.491 . S
Dy480 O486 2.403 1_455 S
Dy480 O487 2.664 1_455 S
Dy480 O491 2.326 . S
Dy480 O495 2.310 . S
Dy480 O496 2.351 1_455 S
C481 O492 1.185 . S
C481 O493 1.355 . S
C482 O484 1.185 . S
C482 O485 1.355 . S
Dy483 O487 2.310 . S
Dy483 O490 2.351 1_655 S
Dy483 O492 2.398 . S
Dy483 O493 2.491 . S
Dy483 O494 2.404 . S
Dy483 O495 2.664 1_655 S
Dy483 O497 2.326 . S
O484 Dy480 2.398 . S
O484 C482 1.185 . S
O485 Dy480 2.491 . S
O485 C482 1.355 . S
O486 Dy480 2.403 1_655 S
O486 C488 1.254 . S
O487 Dy480 2.664 1_655 S
O487 Dy483 2.310 . S
O487 C488 1.268 . S
C488 O486 1.254 . S
C488 O487 1.268 . S
C489 O494 1.253 1_455 S
C489 O495 1.268 . S
O490 Dy483 2.351 1_455 S
O490 C498 1.249 . S
O491 Dy480 2.326 . S
O491 C498 1.267 . S
O492 C481 1.185 . S
O492 Dy483 2.398 . S
O493 C481 1.355 . S
O493 Dy483 2.491 . S
O494 Dy483 2.404 . S
O494 C489 1.253 1_655 S
O495 Dy480 2.310 . S
O495 Dy483 2.664 1_455 S
O495 C489 1.268 . S
O496 Dy480 2.351 1_655 S
O496 C499 1.249 . S
O497 Dy483 2.326 . S
O497 C499 1.267 . S
C498 O490 1.249 . S
C498 O491 1.267 . S
C499 O496 1.249 . S
C499 O497 1.267 . S
Dy500 O504 2.398 . S
Dy500 O505 2.491 . S
Dy500 O506 2.403 . S
Dy500 O507 2.664 . S
Dy500 O511 2.326 . S
Dy500 O515 2.310 . S
Dy500 O516 2.351 . S
C501 O512 1.185 . S
C501 O513 1.355 . S
C502 O504 1.185 . S
C502 O505 1.355 . S
Dy503 O507 2.310 . S
Dy503 O510 2.351 . S
Dy503 O512 2.398 . S
Dy503 O513 2.491 . S
Dy503 O514 2.403 . S
Dy503 O515 2.664 . S
Dy503 O517 2.326 . S
O504 Dy500 2.398 . S
O504 C502 1.185 . S
O505 Dy500 2.491 . S
O505 C502 1.355 . S
O506 Dy500 2.403 . S
O506 C508 1.254 . S
O507 Dy500 2.664 . S
O507 Dy503 2.310 . S
O507 C508 1.268 . S
C508 O506 1.254 . S
C508 O507 1.268 . S
C509 O514 1.254 . S
C509 O515 1.268 . S
O510 Dy503 2.351 . S
O510 C518 1.249 . S
O511 Dy500 2.326 . S
O511 C518 1.267 . S
O512 C501 1.185 . S
O512 Dy503 2.398 . S
O513 C501 1.355 . S
O513 Dy503 2.491 . S
O514 Dy503 2.403 . S
O514 C509 1.254 . S
O515 Dy500 2.310 . S
O515 Dy503 2.664 . S
O515 C509 1.268 . S
O516 Dy500 2.351 . S
O516 C519 1.249 . S
O517 Dy503 2.326 . S
O517 C519 1.267 . S
C518 O510 1.249 . S
C518 O511 1.267 . S
C519 O516 1.249 . S
C519 O517 1.267 . S
Dy520 O524 2.398 . S
Dy520 O525 2.491 . S
Dy520 O526 2.403 . S
Dy520 O527 2.664 . S
Dy520 O531 2.326 . S
Dy520 O535 2.310 . S
Dy520 O536 2.351 . S
C521 O532 1.185 . S
C521 O533 1.355 . S
C522 O524 1.185 . S
C522 O525 1.355 . S
Dy523 O527 2.310 . S
Dy523 O530 2.351 . S
Dy523 O532 2.398 . S
Dy523 O533 2.491 . S
Dy523 O534 2.403 . S
Dy523 O535 2.664 . S
Dy523 O537 2.326 . S
O524 Dy520 2.398 . S
O524 C522 1.185 . S
O525 Dy520 2.491 . S
O525 C522 1.355 . S
O526 Dy520 2.403 . S
O526 C528 1.254 . S
O527 Dy520 2.664 . S
O527 Dy523 2.310 . S
O527 C528 1.268 . S
C528 O526 1.254 . S
C528 O527 1.268 . S
C529 O534 1.254 . S
C529 O535 1.268 . S
O530 Dy523 2.351 . S
O530 C538 1.249 . S
O531 Dy520 2.326 . S
O531 C538 1.267 . S
O532 C521 1.185 . S
O532 Dy523 2.398 . S
O533 C521 1.355 . S
O533 Dy523 2.491 . S
O534 Dy523 2.403 . S
O534 C529 1.254 . S
O535 Dy520 2.310 . S
O535 Dy523 2.664 . S
O535 C529 1.268 . S
O536 Dy520 2.351 . S
O536 C539 1.249 . S
O537 Dy523 2.326 . S
O537 C539 1.267 . S
C538 O530 1.249 . S
C538 O531 1.267 . S
C539 O536 1.249 . S
C539 O537 1.267 . S
Dy540 O544 2.398 . S
Dy540 O545 2.491 . S
Dy540 O546 2.403 . S
Dy540 O547 2.664 . S
Dy540 O551 2.326 . S
Dy540 O555 2.310 . S
Dy540 O556 2.351 . S
C541 O552 1.185 . S
C541 O553 1.355 . S
C542 O544 1.185 . S
C542 O545 1.355 . S
Dy543 O547 2.310 . S
Dy543 O550 2.351 . S
Dy543 O552 2.398 . S
Dy543 O553 2.491 . S
Dy543 O554 2.403 . S
Dy543 O555 2.664 . S
Dy543 O557 2.326 . S
O544 Dy540 2.398 . S
O544 C542 1.185 . S
O545 Dy540 2.491 . S
O545 C542 1.355 . S
O546 Dy540 2.403 . S
O546 C548 1.254 . S
O547 Dy540 2.664 . S
O547 Dy543 2.310 . S
O547 C548 1.268 . S
C548 O546 1.254 . S
C548 O547 1.268 . S
C549 O554 1.254 . S
C549 O555 1.268 . S
O550 Dy543 2.351 . S
O550 C558 1.249 . S
O551 Dy540 2.326 . S
O551 C558 1.267 . S
O552 C541 1.185 . S
O552 Dy543 2.398 . S
O553 C541 1.355 . S
O553 Dy543 2.491 . S
O554 Dy543 2.403 . S
O554 C549 1.254 . S
O555 Dy540 2.310 . S
O555 Dy543 2.664 . S
O555 C549 1.268 . S
O556 Dy540 2.351 . S
O556 C559 1.249 . S
O557 Dy543 2.326 . S
O557 C559 1.267 . S
C558 O550 1.249 . S
C558 O551 1.267 . S
C559 O556 1.249 . S
C559 O557 1.267 . S
Dy560 O564 2.398 . S
Dy560 O565 2.491 . S
Dy560 O566 2.403 1_455 S
Dy560 O567 2.664 1_455 S
Dy560 O571 2.326 . S
Dy560 O575 2.310 . S
Dy560 O576 2.351 1_455 S
C561 O572 1.185 . S
C561 O573 1.355 . S
C562 O564 1.185 . S
C562 O565 1.355 . S
Dy563 O567 2.310 . S
Dy563 O570 2.351 1_655 S
Dy563 O572 2.398 . S
Dy563 O573 2.491 . S
Dy563 O574 2.403 1_655 S
Dy563 O575 2.664 1_655 S
Dy563 O577 2.326 . S
O564 Dy560 2.398 . S
O564 C562 1.185 . S
O565 Dy560 2.491 . S
O565 C562 1.355 . S
O566 Dy560 2.403 1_655 S
O566 C568 1.254 . S
O567 Dy560 2.664 1_655 S
O567 Dy563 2.310 . S
O567 C568 1.268 . S
C568 O566 1.254 . S
C568 O567 1.268 . S
C569 O574 1.255 . S
C569 O575 1.268 . S
O570 Dy563 2.351 1_455 S
O570 C578 1.249 . S
O571 Dy560 2.326 . S
O571 C578 1.267 . S
O572 C561 1.185 . S
O572 Dy563 2.398 . S
O573 C561 1.355 . S
O573 Dy563 2.491 . S
O574 Dy563 2.403 1_455 S
O574 C569 1.255 . S
O575 Dy560 2.310 . S
O575 Dy563 2.664 1_455 S
O575 C569 1.268 . S
O576 Dy560 2.351 1_655 S
O576 C579 1.249 . S
O577 Dy563 2.326 . S
O577 C579 1.267 . S
C578 O570 1.249 . S
C578 O571 1.267 . S
C579 O576 1.249 . S
C579 O577 1.267 . S
Dy580 O584 2.398 . S
Dy580 O585 2.491 . S
Dy580 O586 2.403 . S
Dy580 O587 2.664 . S
Dy580 O591 2.326 . S
Dy580 O595 2.310 . S
Dy580 O596 2.351 . S
C581 O592 1.185 . S
C581 O593 1.355 . S
C582 O584 1.185 . S
C582 O585 1.355 . S
Dy583 O587 2.310 . S
Dy583 O590 2.351 . S
Dy583 O592 2.398 . S
Dy583 O593 2.491 . S
Dy583 O594 2.403 . S
Dy583 O595 2.664 . S
Dy583 O597 2.326 . S
O584 Dy580 2.398 . S
O584 C582 1.185 . S
O585 Dy580 2.491 . S
O585 C582 1.355 . S
O586 Dy580 2.403 . S
O586 C588 1.254 . S
O587 Dy580 2.664 . S
O587 Dy583 2.310 . S
O587 C588 1.268 . S
C588 O586 1.254 . S
C588 O587 1.268 . S
C589 O594 1.254 . S
C589 O595 1.268 . S
O590 Dy583 2.351 . S
O590 C598 1.249 . S
O591 Dy580 2.326 . S
O591 C598 1.267 . S
O592 C581 1.185 . S
O592 Dy583 2.398 . S
O593 C581 1.355 . S
O593 Dy583 2.491 . S
O594 Dy583 2.403 . S
O594 C589 1.254 . S
O595 Dy580 2.310 . S
O595 Dy583 2.664 . S
O595 C589 1.268 . S
O596 Dy580 2.351 . S
O596 C599 1.249 . S
O597 Dy583 2.326 . S
O597 C599 1.267 . S
C598 O590 1.249 . S
C598 O591 1.267 . S
C599 O596 1.249 . S
C599 O597 1.267 . S
Dy600 O604 2.398 . S
Dy600 O605 2.491 . S
Dy600 O606 2.403 . S
Dy600 O607 2.664 . S
Dy600 O611 2.326 . S
Dy600 O615 2.310 . S
Dy600 O616 2.351 . S
C601 O612 1.185 . S
C601 O613 1.355 . S
C602 O604 1.185 . S
C602 O605 1.355 . S
Dy603 O607 2.310 . S
Dy603 O610 2.351 . S
Dy603 O612 2.398 . S
Dy603 O613 2.491 . S
Dy603 O614 2.403 . S
Dy603 O615 2.664 . S
Dy603 O617 2.326 . S
O604 Dy600 2.398 . S
O604 C602 1.185 . S
O605 Dy600 2.491 . S
O605 C602 1.355 . S
O606 Dy600 2.403 . S
O606 C608 1.254 . S
O607 Dy600 2.664 . S
O607 Dy603 2.310 . S
O607 C608 1.268 . S
C608 O606 1.254 . S
C608 O607 1.268 . S
C609 O614 1.254 . S
C609 O615 1.268 . S
O610 Dy603 2.351 . S
O610 C618 1.249 . S
O611 Dy600 2.326 . S
O611 C618 1.267 . S
O612 C601 1.185 . S
O612 Dy603 2.398 . S
O613 C601 1.355 . S
O613 Dy603 2.491 . S
O614 Dy603 2.403 . S
O614 C609 1.254 . S
O615 Dy600 2.310 . S
O615 Dy603 2.664 . S
O615 C609 1.268 . S
O616 Dy600 2.351 . S
O616 C619 1.249 . S
O617 Dy603 2.326 . S
O617 C619 1.267 . S
C618 O610 1.249 . S
C618 O611 1.267 . S
C619 O616 1.249 . S
C619 O617 1.267 . S
Dy620 O624 2.398 . S
Dy620 O625 2.491 . S
Dy620 O626 2.403 . S
Dy620 O627 2.664 . S
Dy620 O631 2.326 . S
Dy620 O635 2.310 . S
Dy620 O636 2.351 . S
C621 O632 1.185 . S
C621 O633 1.355 . S
C622 O624 1.185 . S
C622 O625 1.355 . S
Dy623 O627 2.310 . S
Dy623 O630 2.351 . S
Dy623 O632 2.398 . S
Dy623 O633 2.491 . S
Dy623 O634 2.403 . S
Dy623 O635 2.664 . S
Dy623 O637 2.326 . S
O624 Dy620 2.398 . S
O624 C622 1.185 . S
O625 Dy620 2.491 . S
O625 C622 1.355 . S
O626 Dy620 2.403 . S
O626 C628 1.254 . S
O627 Dy620 2.664 . S
O627 Dy623 2.310 . S
O627 C628 1.268 . S
C628 O626 1.254 . S
C628 O627 1.268 . S
C629 O634 1.254 . S
C629 O635 1.268 . S
O630 Dy623 2.351 . S
O630 C638 1.249 . S
O631 Dy620 2.326 . S
O631 C638 1.267 . S
O632 C621 1.185 . S
O632 Dy623 2.398 . S
O633 C621 1.355 . S
O633 Dy623 2.491 . S
O634 Dy623 2.403 . S
O634 C629 1.254 . S
O635 Dy620 2.310 . S
O635 Dy623 2.664 . S
O635 C629 1.268 . S
O636 Dy620 2.351 . S
O636 C639 1.249 . S
O637 Dy623 2.326 . S
O637 C639 1.267 . S
C638 O630 1.249 . S
C638 O631 1.267 . S
C639 O636 1.249 . S
C639 O637 1.267 . S
Dy640 O644 2.398 1_565 S
Dy640 O645 2.491 1_565 S
Dy640 O646 2.403 . S
Dy640 O647 2.664 . S
Dy640 O651 2.326 1_565 S
Dy640 O655 2.310 . S
Dy640 O656 2.351 . S
C641 O652 1.185 . S
C641 O653 1.355 . S
C642 O644 1.185 . S
C642 O645 1.355 . S
Dy643 O647 2.310 . S
Dy643 O650 2.351 . S
Dy643 O652 2.398 . S
Dy643 O653 2.491 . S
Dy643 O654 2.403 . S
Dy643 O655 2.664 . S
Dy643 O657 2.326 . S
O644 Dy640 2.398 1_545 S
O644 C642 1.185 . S
O645 Dy640 2.491 1_545 S
O645 C642 1.355 . S
O646 Dy640 2.403 . S
O646 C648 1.254 . S
O647 Dy640 2.664 . S
O647 Dy643 2.310 . S
O647 C648 1.268 . S
C648 O646 1.254 . S
C648 O647 1.268 . S
C649 O654 1.254 . S
C649 O655 1.268 . S
O650 Dy643 2.351 . S
O650 C658 1.249 . S
O651 Dy640 2.326 1_545 S
O651 C658 1.267 1_545 S
O652 C641 1.185 . S
O652 Dy643 2.398 . S
O653 C641 1.355 . S
O653 Dy643 2.491 . S
O654 Dy643 2.403 . S
O654 C649 1.254 . S
O655 Dy640 2.310 . S
O655 Dy643 2.664 . S
O655 C649 1.268 . S
O656 Dy640 2.351 . S
O656 C659 1.249 . S
O657 Dy643 2.326 . S
O657 C659 1.267 . S
C658 O650 1.249 . S
C658 O651 1.267 1_565 S
C659 O656 1.249 . S
C659 O657 1.267 . S
Dy660 O664 2.398 . S
Dy660 O665 2.491 . S
Dy660 O666 2.403 . S
Dy660 O667 2.664 . S
Dy660 O671 2.326 . S
Dy660 O675 2.310 . S
Dy660 O676 2.351 . S
C661 O672 1.185 . S
C661 O673 1.355 . S
C662 O664 1.185 . S
C662 O665 1.355 . S
Dy663 O667 2.310 . S
Dy663 O670 2.351 . S
Dy663 O672 2.398 . S
Dy663 O673 2.491 . S
Dy663 O674 2.403 . S
Dy663 O675 2.664 . S
Dy663 O677 2.326 . S
O664 Dy660 2.398 . S
O664 C662 1.185 . S
O665 Dy660 2.491 . S
O665 C662 1.355 . S
O666 Dy660 2.403 . S
O666 C668 1.254 . S
O667 Dy660 2.664 . S
O667 Dy663 2.310 . S
O667 C668 1.268 . S
C668 O666 1.254 . S
C668 O667 1.268 . S
C669 O674 1.254 . S
C669 O675 1.268 . S
O670 Dy663 2.351 . S
O670 C678 1.249 . S
O671 Dy660 2.326 . S
O671 C678 1.267 . S
O672 C661 1.185 . S
O672 Dy663 2.398 . S
O673 C661 1.355 . S
O673 Dy663 2.491 . S
O674 Dy663 2.403 . S
O674 C669 1.254 . S
O675 Dy660 2.310 . S
O675 Dy663 2.664 . S
O675 C669 1.268 . S
O676 Dy660 2.351 . S
O676 C679 1.249 . S
O677 Dy663 2.326 . S
O677 C679 1.267 . S
C678 O670 1.249 . S
C678 O671 1.267 . S
C679 O676 1.249 . S
C679 O677 1.267 . S
Dy680 O684 2.398 . S
Dy680 O685 2.491 . S
Dy680 O686 2.403 1_565 S
Dy680 O687 2.664 1_565 S
Dy680 O691 2.326 . S
Dy680 O695 2.310 . S
Dy680 O696 2.351 1_565 S
C681 O692 1.185 . S
C681 O693 1.355 . S
C682 O684 1.185 . S
C682 O685 1.355 . S
Dy683 O687 2.310 . S
Dy683 O690 2.379 . S
Dy683 O692 2.398 . S
Dy683 O693 2.491 . S
Dy683 O694 2.403 . S
Dy683 O695 2.664 1_545 S
Dy683 O697 2.326 . S
O684 Dy680 2.398 . S
O684 C682 1.185 . S
O685 Dy680 2.491 . S
O685 C682 1.355 . S
O686 Dy680 2.403 1_545 S
O686 C688 1.254 . S
O687 Dy680 2.664 1_545 S
O687 Dy683 2.310 . S
O687 C688 1.268 . S
C688 O686 1.254 . S
C688 O687 1.268 . S
C689 O694 1.254 1_565 S
C689 O695 1.268 . S
O690 Dy683 2.379 . S
O690 C698 1.220 1_545 S
O691 Dy680 2.326 . S
O691 C698 1.267 . S
O692 C681 1.185 . S
O692 Dy683 2.398 . S
O693 C681 1.355 . S
O693 Dy683 2.491 . S
O694 Dy683 2.403 . S
O694 C689 1.254 1_545 S
O695 Dy680 2.310 . S
O695 Dy683 2.664 1_565 S
O695 C689 1.268 . S
O696 Dy680 2.351 1_545 S
O696 C699 1.249 . S
O697 Dy683 2.326 . S
O697 C699 1.267 . S
C698 O690 1.220 1_565 S
C698 O691 1.267 . S
C699 O696 1.249 . S
C699 O697 1.267 . S
Dy700 O704 2.398 . S
Dy700 O705 2.491 . S
Dy700 O706 2.403 . S
Dy700 O707 2.664 . S
Dy700 O711 2.326 . S
Dy700 O715 2.310 . S
Dy700 O716 2.351 . S
C701 O712 1.185 . S
C701 O713 1.355 . S
C702 O704 1.185 . S
C702 O705 1.355 . S
Dy703 O707 2.310 . S
Dy703 O710 2.351 . S
Dy703 O712 2.398 . S
Dy703 O713 2.491 . S
Dy703 O714 2.403 . S
Dy703 O715 2.664 . S
Dy703 O717 2.326 . S
O704 Dy700 2.398 . S
O704 C702 1.185 . S
O705 Dy700 2.491 . S
O705 C702 1.355 . S
O706 Dy700 2.403 . S
O706 C708 1.254 . S
O707 Dy700 2.664 . S
O707 Dy703 2.310 . S
O707 C708 1.268 . S
C708 O706 1.254 . S
C708 O707 1.268 . S
C709 O714 1.254 . S
C709 O715 1.268 . S
O710 Dy703 2.351 . S
O710 C718 1.249 . S
O711 Dy700 2.326 . S
O711 C718 1.267 . S
O712 C701 1.185 . S
O712 Dy703 2.398 . S
O713 C701 1.355 . S
O713 Dy703 2.491 . S
O714 Dy703 2.403 . S
O714 C709 1.254 . S
O715 Dy700 2.310 . S
O715 Dy703 2.664 . S
O715 C709 1.268 . S
O716 Dy700 2.351 . S
O716 C719 1.249 . S
O717 Dy703 2.326 . S
O717 C719 1.267 . S
C718 O710 1.249 . S
C718 O711 1.267 . S
C719 O716 1.249 . S
C719 O717 1.267 . S
Dy720 O724 2.419 . S
Dy720 O725 2.520 . S
Dy720 O726 2.386 1_565 S
Dy720 O727 2.637 1_565 S
Dy720 O731 2.328 . S
Dy720 O735 2.306 1_565 S
Dy720 O736 2.331 1_565 S
C721 O732 1.185 . S
C721 O733 1.355 . S
C722 O724 1.185 . S
C722 O725 1.355 . S
Dy723 O727 2.310 . S
Dy723 O730 2.351 . S
Dy723 O732 2.398 . S
Dy723 O733 2.491 . S
Dy723 O734 2.403 . S
Dy723 O735 2.664 . S
Dy723 O737 2.326 . S
O724 Dy720 2.419 . S
O724 C722 1.185 . S
O725 Dy720 2.520 . S
O725 C722 1.355 . S
O726 Dy720 2.386 1_545 S
O726 C728 1.254 . S
O727 Dy720 2.637 1_545 S
O727 Dy723 2.310 . S
O727 C728 1.268 . S
C728 O726 1.254 . S
C728 O727 1.268 . S
C729 O734 1.254 . S
C729 O735 1.268 . S
O730 Dy723 2.351 . S
O730 C738 1.252 . S
O731 Dy720 2.328 . S
O731 C738 1.267 1_565 S
O732 C721 1.185 . S
O732 Dy723 2.398 . S
O733 C721 1.355 . S
O733 Dy723 2.491 . S
O734 Dy723 2.403 . S
O734 C729 1.254 . S
O735 Dy720 2.306 1_545 S
O735 Dy723 2.664 . S
O735 C729 1.268 . S
O736 Dy720 2.331 1_545 S
O736 C739 1.249 . S
O737 Dy723 2.326 . S
O737 C739 1.267 . S
C738 O730 1.252 . S
C738 O731 1.267 1_545 S
C739 O736 1.249 . S
C739 O737 1.267 . S
Dy740 O744 2.398 . S
Dy740 O745 2.491 . S
Dy740 O746 2.403 . S
Dy740 O747 2.664 . S
Dy740 O751 2.326 . S
Dy740 O755 2.310 . S
Dy740 O756 2.351 . S
C741 O752 1.185 . S
C741 O753 1.355 . S
C742 O744 1.185 . S
C742 O745 1.355 . S
Dy743 O747 2.310 . S
Dy743 O750 2.351 . S
Dy743 O752 2.398 . S
Dy743 O753 2.491 . S
Dy743 O754 2.403 . S
Dy743 O755 2.664 . S
Dy743 O757 2.326 . S
O744 Dy740 2.398 . S
O744 C742 1.185 . S
O745 Dy740 2.491 . S
O745 C742 1.355 . S
O746 Dy740 2.403 . S
O746 C748 1.254 . S
O747 Dy740 2.664 . S
O747 Dy743 2.310 . S
O747 C748 1.268 . S
C748 O746 1.254 . S
C748 O747 1.268 . S
C749 O754 1.254 . S
C749 O755 1.268 . S
O750 Dy743 2.351 . S
O750 C758 1.249 . S
O751 Dy740 2.326 . S
O751 C758 1.267 . S
O752 C741 1.185 . S
O752 Dy743 2.398 . S
O753 C741 1.355 . S
O753 Dy743 2.491 . S
O754 Dy743 2.403 . S
O754 C749 1.254 . S
O755 Dy740 2.310 . S
O755 Dy743 2.664 . S
O755 C749 1.268 . S
O756 Dy740 2.351 . S
O756 C759 1.249 . S
O757 Dy743 2.326 . S
O757 C759 1.267 . S
C758 O750 1.249 . S
C758 O751 1.267 . S
C759 O756 1.249 . S
C759 O757 1.267 . S
Dy760 O764 2.398 . S
Dy760 O765 2.491 . S
Dy760 O766 2.403 1_545 S
Dy760 O767 2.664 1_545 S
Dy760 O771 2.326 . S
Dy760 O775 2.311 . S
Dy760 O776 2.351 1_545 S
C761 O772 1.185 . S
C761 O773 1.355 . S
C762 O764 1.185 . S
C762 O765 1.355 . S
Dy763 O767 2.310 . S
Dy763 O770 2.351 . S
Dy763 O772 2.398 . S
Dy763 O773 2.491 . S
Dy763 O774 2.403 . S
Dy763 O775 2.645 1_565 S
Dy763 O777 2.326 . S
O764 Dy760 2.398 . S
O764 C762 1.185 . S
O765 Dy760 2.491 . S
O765 C762 1.355 . S
O766 Dy760 2.403 1_565 S
O766 C768 1.254 . S
O767 Dy760 2.664 1_565 S
O767 Dy763 2.310 . S
O767 C768 1.268 . S
C768 O766 1.254 . S
C768 O767 1.268 . S
C769 O774 1.216 1_545 S
C769 O775 1.267 . S
O770 Dy763 2.351 . S
O770 C778 1.249 1_565 S
O771 Dy760 2.326 . S
O771 C778 1.267 . S
O772 C761 1.185 . S
O772 Dy763 2.398 . S
O773 C761 1.355 . S
O773 Dy763 2.491 . S
O774 Dy763 2.403 . S
O774 C769 1.216 1_565 S
O775 Dy760 2.311 . S
O775 Dy763 2.645 1_545 S
O775 C769 1.267 . S
O776 Dy760 2.351 1_565 S
O776 C779 1.249 . S
O777 Dy763 2.326 . S
O777 C779 1.267 . S
C778 O770 1.249 1_545 S
C778 O771 1.267 . S
C779 O776 1.249 . S
C779 O777 1.267 . S
Dy780 O784 2.398 . S
Dy780 O785 2.491 . S
Dy780 O786 2.403 . S
Dy780 O787 2.664 . S
Dy780 O791 2.326 . S
Dy780 O795 2.310 . S
Dy780 O796 2.351 . S
C781 O792 1.185 . S
C781 O793 1.355 . S
C782 O784 1.185 . S
C782 O785 1.355 . S
Dy783 O787 2.310 . S
Dy783 O790 2.351 . S
Dy783 O792 2.398 . S
Dy783 O793 2.491 . S
Dy783 O794 2.403 . S
Dy783 O795 2.664 . S
Dy783 O797 2.326 . S
O784 Dy780 2.398 . S
O784 C782 1.185 . S
O785 Dy780 2.491 . S
O785 C782 1.355 . S
O786 Dy780 2.403 . S
O786 C788 1.254 . S
O787 Dy780 2.664 . S
O787 Dy783 2.310 . S
O787 C788 1.268 . S
C788 O786 1.254 . S
C788 O787 1.268 . S
C789 O794 1.254 . S
C789 O795 1.268 . S
O790 Dy783 2.351 . S
O790 C798 1.249 . S
O791 Dy780 2.326 . S
O791 C798 1.267 . S
O792 C781 1.185 . S
O792 Dy783 2.398 . S
O793 C781 1.355 . S
O793 Dy783 2.491 . S
O794 Dy783 2.403 . S
O794 C789 1.254 . S
O795 Dy780 2.310 . S
O795 Dy783 2.664 . S
O795 C789 1.268 . S
O796 Dy780 2.351 . S
O796 C799 1.249 . S
O797 Dy783 2.326 . S
O797 C799 1.267 . S
C798 O790 1.249 . S
C798 O791 1.267 . S
C799 O796 1.249 . S
C799 O797 1.267 . S
Dy800 O804 2.398 . S
Dy800 O805 2.491 . S
Dy800 O806 2.403 1_554 S
Dy800 O807 2.664 1_554 S
Dy800 O811 2.326 . S
Dy800 O815 2.309 . S
Dy800 O816 2.351 1_554 S
C801 O812 1.185 . S
C801 O813 1.355 . S
C802 O804 1.185 . S
C802 O805 1.355 . S
Dy803 O807 2.310 . S
Dy803 O810 2.351 . S
Dy803 O812 2.398 . S
Dy803 O813 2.491 . S
Dy803 O814 2.403 . S
Dy803 O815 2.668 1_556 S
Dy803 O817 2.326 . S
O804 Dy800 2.398 . S
O804 C802 1.185 . S
O805 Dy800 2.491 . S
O805 C802 1.355 . S
O806 Dy800 2.403 1_556 S
O806 C808 1.254 . S
O807 Dy800 2.664 1_556 S
O807 Dy803 2.310 . S
O807 C808 1.268 . S
C808 O806 1.254 . S
C808 O807 1.268 . S
C809 O814 1.252 1_554 S
C809 O815 1.268 . S
O810 Dy803 2.351 . S
O810 C818 1.249 1_556 S
O811 Dy800 2.326 . S
O811 C818 1.267 . S
O812 C801 1.185 . S
O812 Dy803 2.398 . S
O813 C801 1.355 . S
O813 Dy803 2.491 . S
O814 Dy803 2.403 . S
O814 C809 1.252 1_556 S
O815 Dy800 2.309 . S
O815 Dy803 2.668 1_554 S
O815 C809 1.268 . S
O816 Dy800 2.351 1_556 S
O816 C819 1.249 . S
O817 Dy803 2.326 . S
O817 C819 1.267 . S
C818 O810 1.249 1_554 S
C818 O811 1.267 . S
C819 O816 1.249 . S
C819 O817 1.267 . S
Dy820 O824 2.398 . S
Dy820 O825 2.491 . S
Dy820 O826 2.403 . S
Dy820 O827 2.664 . S
Dy820 O831 2.326 . S
Dy820 O835 2.310 . S
Dy820 O836 2.351 1_554 S
C821 O832 1.185 . S
C821 O833 1.355 . S
C822 O824 1.185 . S
C822 O825 1.355 . S
Dy823 O827 2.310 . S
Dy823 O830 2.351 . S
Dy823 O832 2.398 1_554 S
Dy823 O833 2.491 1_554 S
Dy823 O834 2.403 . S
Dy823 O835 2.664 . S
Dy823 O837 2.326 1_554 S
O824 Dy820 2.398 . S
O824 C822 1.185 . S
O825 Dy820 2.491 . S
O825 C822 1.355 . S
O826 Dy820 2.403 . S
O826 C828 1.254 1_554 S
O827 Dy820 2.664 . S
O827 Dy823 2.310 . S
O827 C828 1.268 1_554 S
C828 O826 1.254 1_556 S
C828 O827 1.268 1_556 S
C829 O834 1.254 . S
C829 O835 1.268 . S
O830 Dy823 2.351 . S
O830 C838 1.249 . S
O831 Dy820 2.326 . S
O831 C838 1.267 . S
O832 C821 1.185 . S
O832 Dy823 2.398 1_556 S
O833 C821 1.355 . S
O833 Dy823 2.491 1_556 S
O834 Dy823 2.403 . S
O834 C829 1.254 . S
O835 Dy820 2.310 . S
O835 Dy823 2.664 . S
O835 C829 1.268 . S
O836 Dy820 2.351 1_556 S
O836 C839 1.249 . S
O837 Dy823 2.326 1_556 S
O837 C839 1.267 . S
C838 O830 1.249 . S
C838 O831 1.267 . S
C839 O836 1.249 . S
C839 O837 1.267 . S
Dy840 O844 2.398 . S
Dy840 O845 2.491 . S
Dy840 O846 2.403 . S
Dy840 O847 2.664 . S
Dy840 O851 2.326 . S
Dy840 O855 2.310 . S
Dy840 O856 2.351 . S
C841 O852 1.185 . S
C841 O853 1.355 . S
C842 O844 1.185 . S
C842 O845 1.355 . S
Dy843 O847 2.310 . S
Dy843 O850 2.351 . S
Dy843 O852 2.398 . S
Dy843 O853 2.491 . S
Dy843 O854 2.403 . S
Dy843 O855 2.664 . S
Dy843 O857 2.326 . S
O844 Dy840 2.398 . S
O844 C842 1.185 . S
O845 Dy840 2.491 . S
O845 C842 1.355 . S
O846 Dy840 2.403 . S
O846 C848 1.254 . S
O847 Dy840 2.664 . S
O847 Dy843 2.310 . S
O847 C848 1.268 . S
C848 O846 1.254 . S
C848 O847 1.268 . S
C849 O854 1.254 . S
C849 O855 1.268 . S
O850 Dy843 2.351 . S
O850 C858 1.249 . S
O851 Dy840 2.326 . S
O851 C858 1.267 . S
O852 C841 1.185 . S
O852 Dy843 2.398 . S
O853 C841 1.355 . S
O853 Dy843 2.491 . S
O854 Dy843 2.403 . S
O854 C849 1.254 . S
O855 Dy840 2.310 . S
O855 Dy843 2.664 . S
O855 C849 1.268 . S
O856 Dy840 2.351 . S
O856 C859 1.249 . S
O857 Dy843 2.326 . S
O857 C859 1.267 . S
C858 O850 1.249 . S
C858 O851 1.267 . S
C859 O856 1.249 . S
C859 O857 1.267 . S
Dy860 O864 2.398 . S
Dy860 O865 2.491 . S
Dy860 O866 2.403 . S
Dy860 O867 2.664 . S
Dy860 O871 2.326 . S
Dy860 O875 2.310 . S
Dy860 O876 2.351 . S
C861 O872 1.185 . S
C861 O873 1.355 . S
C862 O864 1.185 . S
C862 O865 1.355 . S
Dy863 O867 2.310 . S
Dy863 O870 2.351 . S
Dy863 O872 2.398 . S
Dy863 O873 2.491 . S
Dy863 O874 2.403 . S
Dy863 O875 2.664 . S
Dy863 O877 2.326 . S
O864 Dy860 2.398 . S
O864 C862 1.185 . S
O865 Dy860 2.491 . S
O865 C862 1.355 . S
O866 Dy860 2.403 . S
O866 C868 1.254 . S
O867 Dy860 2.664 . S
O867 Dy863 2.310 . S
O867 C868 1.268 . S
C868 O866 1.254 . S
C868 O867 1.268 . S
C869 O874 1.254 . S
C869 O875 1.268 . S
O870 Dy863 2.351 . S
O870 C878 1.249 . S
O871 Dy860 2.326 . S
O871 C878 1.267 . S
O872 C861 1.185 . S
O872 Dy863 2.398 . S
O873 C861 1.355 . S
O873 Dy863 2.491 . S
O874 Dy863 2.403 . S
O874 C869 1.254 . S
O875 Dy860 2.310 . S
O875 Dy863 2.664 . S
O875 C869 1.268 . S
O876 Dy860 2.351 . S
O876 C879 1.249 . S
O877 Dy863 2.326 . S
O877 C879 1.267 . S
C878 O870 1.249 . S
C878 O871 1.267 . S
C879 O876 1.249 . S
C879 O877 1.267 . S
Dy880 O884 2.398 . S
Dy880 O885 2.491 . S
Dy880 O886 2.403 . S
Dy880 O887 2.664 . S
Dy880 O891 2.326 . S
Dy880 O895 2.310 . S
Dy880 O896 2.351 . S
C881 O892 1.185 . S
C881 O893 1.355 . S
C882 O884 1.185 . S
C882 O885 1.355 . S
Dy883 O887 2.310 . S
Dy883 O890 2.351 . S
Dy883 O892 2.398 . S
Dy883 O893 2.491 . S
Dy883 O894 2.403 . S
Dy883 O895 2.664 . S
Dy883 O897 2.326 . S
O884 Dy880 2.398 . S
O884 C882 1.185 . S
O885 Dy880 2.491 . S
O885 C882 1.355 . S
O886 Dy880 2.403 . S
O886 C888 1.254 . S
O887 Dy880 2.664 . S
O887 Dy883 2.310 . S
O887 C888 1.268 . S
C888 O886 1.254 . S
C888 O887 1.268 . S
C889 O894 1.254 . S
C889 O895 1.268 . S
O890 Dy883 2.351 . S
O890 C898 1.249 . S
O891 Dy880 2.326 . S
O891 C898 1.267 . S
O892 C881 1.185 . S
O892 Dy883 2.398 . S
O893 C881 1.355 . S
O893 Dy883 2.491 . S
O894 Dy883 2.403 . S
O894 C889 1.254 . S
O895 Dy880 2.310 . S
O895 Dy883 2.664 . S
O895 C889 1.268 . S
O896 Dy880 2.351 . S
O896 C899 1.249 . S
O897 Dy883 2.326 . S
O897 C899 1.267 . S
C898 O890 1.249 . S
C898 O891 1.267 . S
C899 O896 1.249 . S
C899 O897 1.267 . S
Dy900 O904 2.398 . S
Dy900 O905 2.491 . S
Dy900 O906 2.403 . S
Dy900 O907 2.664 . S
Dy900 O911 2.326 . S
Dy900 O915 2.310 . S
Dy900 O916 2.351 . S
C901 O912 1.185 . S
C901 O913 1.355 . S
C902 O904 1.185 . S
C902 O905 1.355 . S
Dy903 O907 2.310 . S
Dy903 O910 2.351 . S
Dy903 O912 2.398 . S
Dy903 O913 2.491 . S
Dy903 O914 2.403 . S
Dy903 O915 2.664 . S
Dy903 O917 2.326 . S
O904 Dy900 2.398 . S
O904 C902 1.185 . S
O905 Dy900 2.491 . S
O905 C902 1.355 . S
O906 Dy900 2.403 . S
O906 C908 1.254 . S
O907 Dy900 2.664 . S
O907 Dy903 2.310 . S
O907 C908 1.268 . S
C908 O906 1.254 . S
C908 O907 1.268 . S
C909 O914 1.254 . S
C909 O915 1.268 . S
O910 Dy903 2.351 . S
O910 C918 1.249 . S
O911 Dy900 2.326 . S
O911 C918 1.267 . S
O912 C901 1.185 . S
O912 Dy903 2.398 . S
O913 C901 1.355 . S
O913 Dy903 2.491 . S
O914 Dy903 2.403 . S
O914 C909 1.254 . S
O915 Dy900 2.310 . S
O915 Dy903 2.664 . S
O915 C909 1.268 . S
O916 Dy900 2.351 . S
O916 C919 1.249 . S
O917 Dy903 2.326 . S
O917 C919 1.267 . S
C918 O910 1.249 . S
C918 O911 1.267 . S
C919 O916 1.249 . S
C919 O917 1.267 . S
Dy920 O924 2.398 . S
Dy920 O925 2.491 . S
Dy920 O926 2.403 . S
Dy920 O927 2.664 . S
Dy920 O931 2.326 . S
Dy920 O935 2.310 . S
Dy920 O936 2.351 . S
C921 O932 1.185 . S
C921 O933 1.355 . S
C922 O924 1.185 . S
C922 O925 1.355 . S
Dy923 O927 2.310 . S
Dy923 O930 2.351 . S
Dy923 O932 2.398 . S
Dy923 O933 2.491 . S
Dy923 O934 2.403 . S
Dy923 O935 2.664 . S
Dy923 O937 2.326 . S
O924 Dy920 2.398 . S
O924 C922 1.185 . S
O925 Dy920 2.491 . S
O925 C922 1.355 . S
O926 Dy920 2.403 . S
O926 C928 1.254 . S
O927 Dy920 2.664 . S
O927 Dy923 2.310 . S
O927 C928 1.268 . S
C928 O926 1.254 . S
C928 O927 1.268 . S
C929 O934 1.254 . S
C929 O935 1.268 . S
O930 Dy923 2.351 . S
O930 C938 1.249 . S
O931 Dy920 2.326 . S
O931 C938 1.267 . S
O932 C921 1.185 . S
O932 Dy923 2.398 . S
O933 C921 1.355 . S
O933 Dy923 2.491 . S
O934 Dy923 2.403 . S
O934 C929 1.254 . S
O935 Dy920 2.310 . S
O935 Dy923 2.664 . S
O935 C929 1.268 . S
O936 Dy920 2.351 . S
O936 C939 1.249 . S
O937 Dy923 2.326 . S
O937 C939 1.267 . S
C938 O930 1.249 . S
C938 O931 1.267 . S
C939 O936 1.249 . S
C939 O937 1.267 . S
Dy940 O944 2.398 . S
Dy940 O945 2.491 . S
Dy940 O946 2.403 . S
Dy940 O947 2.664 . S
Dy940 O951 2.326 . S
Dy940 O955 2.310 . S
Dy940 O956 2.351 . S
C941 O952 1.185 . S
C941 O953 1.355 . S
C942 O944 1.185 . S
C942 O945 1.355 . S
Dy943 O947 2.310 . S
Dy943 O950 2.351 . S
Dy943 O952 2.398 . S
Dy943 O953 2.491 . S
Dy943 O954 2.403 . S
Dy943 O955 2.664 . S
Dy943 O957 2.326 . S
O944 Dy940 2.398 . S
O944 C942 1.185 . S
O945 Dy940 2.491 . S
O945 C942 1.355 . S
O946 Dy940 2.403 . S
O946 C948 1.254 . S
O947 Dy940 2.664 . S
O947 Dy943 2.310 . S
O947 C948 1.268 . S
C948 O946 1.254 . S
C948 O947 1.268 . S
C949 O954 1.254 . S
C949 O955 1.268 . S
O950 Dy943 2.351 . S
O950 C958 1.249 . S
O951 Dy940 2.326 . S
O951 C958 1.267 . S
O952 C941 1.185 . S
O952 Dy943 2.398 . S
O953 C941 1.355 . S
O953 Dy943 2.491 . S
O954 Dy943 2.403 . S
O954 C949 1.254 . S
O955 Dy940 2.310 . S
O955 Dy943 2.664 . S
O955 C949 1.268 . S
O956 Dy940 2.351 . S
O956 C959 1.249 . S
O957 Dy943 2.326 . S
O957 C959 1.267 . S
C958 O950 1.249 . S
C958 O951 1.267 . S
C959 O956 1.249 . S
C959 O957 1.267 . S
Dy960 O964 2.398 . S
Dy960 O965 2.491 . S
Dy960 O966 2.403 . S
Dy960 O967 2.664 . S
Dy960 O971 2.326 . S
Dy960 O975 2.310 . S
Dy960 O976 2.351 . S
C961 O972 1.185 . S
C961 O973 1.355 . S
C962 O964 1.185 . S
C962 O965 1.355 . S
Dy963 O967 2.310 . S
Dy963 O970 2.351 . S
Dy963 O972 2.398 . S
Dy963 O973 2.491 . S
Dy963 O974 2.403 . S
Dy963 O975 2.664 . S
Dy963 O977 2.326 . S
O964 Dy960 2.398 . S
O964 C962 1.185 . S
O965 Dy960 2.491 . S
O965 C962 1.355 . S
O966 Dy960 2.403 . S
O966 C968 1.254 . S
O967 Dy960 2.664 . S
O967 Dy963 2.310 . S
O967 C968 1.268 . S
C968 O966 1.254 . S
C968 O967 1.268 . S
C969 O974 1.254 . S
C969 O975 1.268 . S
O970 Dy963 2.351 . S
O970 C978 1.249 . S
O971 Dy960 2.326 . S
O971 C978 1.267 . S
O972 C961 1.185 . S
O972 Dy963 2.398 . S
O973 C961 1.355 . S
O973 Dy963 2.491 . S
O974 Dy963 2.403 . S
O974 C969 1.254 . S
O975 Dy960 2.310 . S
O975 Dy963 2.664 . S
O975 C969 1.268 . S
O976 Dy960 2.351 . S
O976 C979 1.249 . S
O977 Dy963 2.326 . S
O977 C979 1.267 . S
C978 O970 1.249 . S
C978 O971 1.267 . S
C979 O976 1.249 . S
C979 O977 1.267 . S
Dy980 O984 2.398 . S
Dy980 O985 2.491 . S
Dy980 O986 2.403 . S
Dy980 O987 2.664 . S
Dy980 O991 2.326 . S
Dy980 O995 2.310 . S
Dy980 O996 2.351 . S
C981 O992 1.185 . S
C981 O993 1.355 . S
C982 O984 1.185 . S
C982 O985 1.355 . S
Dy983 O987 2.310 . S
Dy983 O990 2.351 . S
Dy983 O992 2.398 . S
Dy983 O993 2.491 . S
Dy983 O994 2.403 . S
Dy983 O995 2.664 . S
Dy983 O997 2.326 . S
O984 Dy980 2.398 . S
O984 C982 1.185 . S
O985 Dy980 2.491 . S
O985 C982 1.355 . S
O986 Dy980 2.403 . S
O986 C988 1.254 . S
O987 Dy980 2.664 . S
O987 Dy983 2.310 . S
O987 C988 1.268 . S
C988 O986 1.254 . S
C988 O987 1.268 . S
C989 O994 1.254 . S
C989 O995 1.268 . S
O990 Dy983 2.351 . S
O990 C998 1.249 . S
O991 Dy980 2.326 . S
O991 C998 1.267 . S
O992 C981 1.185 . S
O992 Dy983 2.398 . S
O993 C981 1.355 . S
O993 Dy983 2.491 . S
O994 Dy983 2.403 . S
O994 C989 1.254 . S
O995 Dy980 2.310 . S
O995 Dy983 2.664 . S
O995 C989 1.268 . S
O996 Dy980 2.351 . S
O996 C999 1.249 . S
O997 Dy983 2.326 . S
O997 C999 1.267 . S
C998 O990 1.249 . S
C998 O991 1.267 . S
C999 O996 1.249 . S
C999 O997 1.267 . S
Dy1000 O1004 2.398 1_655 S
Dy1000 O1005 2.491 1_655 S
Dy1000 O1006 2.403 . S
Dy1000 O1007 2.664 . S
Dy1000 O1011 2.326 1_655 S
Dy1000 O1015 2.310 1_655 S
Dy1000 O1016 2.351 . S
C1001 O1012 1.185 . S
C1001 O1013 1.355 . S
C1002 O1004 1.185 . S
C1002 O1005 1.355 . S
Dy1003 O1007 2.310 . S
Dy1003 O1010 2.351 1_655 S
Dy1003 O1012 2.398 . S
Dy1003 O1013 2.491 . S
Dy1003 O1014 2.403 1_655 S
Dy1003 O1015 2.664 1_655 S
Dy1003 O1017 2.326 . S
O1004 Dy1000 2.398 1_455 S
O1004 C1002 1.185 . S
O1005 Dy1000 2.491 1_455 S
O1005 C1002 1.355 . S
O1006 Dy1000 2.403 . S
O1006 C1008 1.254 . S
O1007 Dy1000 2.664 . S
O1007 Dy1003 2.310 . S
O1007 C1008 1.268 . S
C1008 O1006 1.254 . S
C1008 O1007 1.268 . S
C1009 O1014 1.254 . S
C1009 O1015 1.268 . S
O1010 Dy1003 2.351 1_455 S
O1010 C1018 1.249 . S
O1011 Dy1000 2.326 1_455 S
O1011 C1018 1.267 . S
O1012 C1001 1.185 . S
O1012 Dy1003 2.398 . S
O1013 C1001 1.355 . S
O1013 Dy1003 2.491 . S
O1014 Dy1003 2.403 1_455 S
O1014 C1009 1.254 . S
O1015 Dy1000 2.310 1_455 S
O1015 Dy1003 2.664 1_455 S
O1015 C1009 1.268 . S
O1016 Dy1000 2.351 . S
O1016 C1019 1.249 . S
O1017 Dy1003 2.326 . S
O1017 C1019 1.267 . S
C1018 O1010 1.249 . S
C1018 O1011 1.267 . S
C1019 O1016 1.249 . S
C1019 O1017 1.267 . S
Dy1020 O1024 2.398 . S
Dy1020 O1025 2.491 . S
Dy1020 O1026 2.403 . S
Dy1020 O1027 2.664 . S
Dy1020 O1031 2.326 . S
Dy1020 O1035 2.310 . S
Dy1020 O1036 2.351 . S
C1021 O1032 1.185 . S
C1021 O1033 1.355 . S
C1022 O1024 1.185 . S
C1022 O1025 1.355 . S
Dy1023 O1027 2.310 . S
Dy1023 O1030 2.351 . S
Dy1023 O1032 2.398 . S
Dy1023 O1033 2.491 . S
Dy1023 O1034 2.403 . S
Dy1023 O1035 2.664 . S
Dy1023 O1037 2.326 . S
O1024 Dy1020 2.398 . S
O1024 C1022 1.185 . S
O1025 Dy1020 2.491 . S
O1025 C1022 1.355 . S
O1026 Dy1020 2.403 . S
O1026 C1028 1.254 . S
O1027 Dy1020 2.664 . S
O1027 Dy1023 2.310 . S
O1027 C1028 1.268 . S
C1028 O1026 1.254 . S
C1028 O1027 1.268 . S
C1029 O1034 1.254 . S
C1029 O1035 1.268 . S
O1030 Dy1023 2.351 . S
O1030 C1038 1.249 . S
O1031 Dy1020 2.326 . S
O1031 C1038 1.267 . S
O1032 C1021 1.185 . S
O1032 Dy1023 2.398 . S
O1033 C1021 1.355 . S
O1033 Dy1023 2.491 . S
O1034 Dy1023 2.403 . S
O1034 C1029 1.254 . S
O1035 Dy1020 2.310 . S
O1035 Dy1023 2.664 . S
O1035 C1029 1.268 . S
O1036 Dy1020 2.351 . S
O1036 C1039 1.249 . S
O1037 Dy1023 2.326 . S
O1037 C1039 1.267 . S
C1038 O1030 1.249 . S
C1038 O1031 1.267 . S
C1039 O1036 1.249 . S
C1039 O1037 1.267 . S
Dy1040 O1044 2.398 . S
Dy1040 O1045 2.491 . S
Dy1040 O1046 2.403 . S
Dy1040 O1047 2.664 . S
Dy1040 O1051 2.326 . S
Dy1040 O1055 2.310 . S
Dy1040 O1056 2.351 . S
C1041 O1052 1.185 . S
C1041 O1053 1.355 . S
C1042 O1044 1.185 . S
C1042 O1045 1.355 . S
Dy1043 O1047 2.310 . S
Dy1043 O1050 2.351 . S
Dy1043 O1052 2.398 . S
Dy1043 O1053 2.491 . S
Dy1043 O1054 2.403 . S
Dy1043 O1055 2.664 . S
Dy1043 O1057 2.326 . S
O1044 Dy1040 2.398 . S
O1044 C1042 1.185 . S
O1045 Dy1040 2.491 . S
O1045 C1042 1.355 . S
O1046 Dy1040 2.403 . S
O1046 C1048 1.254 . S
O1047 Dy1040 2.664 . S
O1047 Dy1043 2.310 . S
O1047 C1048 1.268 . S
C1048 O1046 1.254 . S
C1048 O1047 1.268 . S
C1049 O1054 1.254 . S
C1049 O1055 1.268 . S
O1050 Dy1043 2.351 . S
O1050 C1058 1.249 . S
O1051 Dy1040 2.326 . S
O1051 C1058 1.267 . S
O1052 C1041 1.185 . S
O1052 Dy1043 2.398 . S
O1053 C1041 1.355 . S
O1053 Dy1043 2.491 . S
O1054 Dy1043 2.403 . S
O1054 C1049 1.254 . S
O1055 Dy1040 2.310 . S
O1055 Dy1043 2.664 . S
O1055 C1049 1.268 . S
O1056 Dy1040 2.351 . S
O1056 C1059 1.249 . S
O1057 Dy1043 2.326 . S
O1057 C1059 1.267 . S
C1058 O1050 1.249 . S
C1058 O1051 1.267 . S
C1059 O1056 1.249 . S
C1059 O1057 1.267 . S
Dy1060 O1064 2.398 . S
Dy1060 O1065 2.491 . S
Dy1060 O1066 2.403 . S
Dy1060 O1067 2.664 . S
Dy1060 O1071 2.326 . S
Dy1060 O1075 2.310 . S
Dy1060 O1076 2.351 . S
C1061 O1072 1.185 . S
C1061 O1073 1.355 . S
C1062 O1064 1.185 . S
C1062 O1065 1.355 . S
Dy1063 O1067 2.310 . S
Dy1063 O1070 2.351 . S
Dy1063 O1072 2.398 . S
Dy1063 O1073 2.491 . S
Dy1063 O1074 2.403 . S
Dy1063 O1075 2.664 . S
Dy1063 O1077 2.326 . S
O1064 Dy1060 2.398 . S
O1064 C1062 1.185 . S
O1065 Dy1060 2.491 . S
O1065 C1062 1.355 . S
O1066 Dy1060 2.403 . S
O1066 C1068 1.254 . S
O1067 Dy1060 2.664 . S
O1067 Dy1063 2.310 . S
O1067 C1068 1.268 . S
C1068 O1066 1.254 . S
C1068 O1067 1.268 . S
C1069 O1074 1.254 . S
C1069 O1075 1.268 . S
O1070 Dy1063 2.351 . S
O1070 C1078 1.249 . S
O1071 Dy1060 2.326 . S
O1071 C1078 1.267 . S
O1072 C1061 1.185 . S
O1072 Dy1063 2.398 . S
O1073 C1061 1.355 . S
O1073 Dy1063 2.491 . S
O1074 Dy1063 2.403 . S
O1074 C1069 1.254 . S
O1075 Dy1060 2.310 . S
O1075 Dy1063 2.664 . S
O1075 C1069 1.268 . S
O1076 Dy1060 2.351 . S
O1076 C1079 1.249 . S
O1077 Dy1063 2.326 . S
O1077 C1079 1.267 . S
C1078 O1070 1.249 . S
C1078 O1071 1.267 . S
C1079 O1076 1.249 . S
C1079 O1077 1.267 . S
Dy1080 O1084 2.398 1_655 S
Dy1080 O1085 2.491 1_655 S
Dy1080 O1086 2.403 . S
Dy1080 O1087 2.664 . S
Dy1080 O1091 2.326 1_655 S
Dy1080 O1095 2.310 1_655 S
Dy1080 O1096 2.351 . S
C1081 O1092 1.185 . S
C1081 O1093 1.355 . S
C1082 O1084 1.185 . S
C1082 O1085 1.355 . S
Dy1083 O1087 2.310 . S
Dy1083 O1090 2.351 1_655 S
Dy1083 O1092 2.398 . S
Dy1083 O1093 2.491 . S
Dy1083 O1094 2.403 1_655 S
Dy1083 O1095 2.664 1_655 S
Dy1083 O1097 2.326 . S
O1084 Dy1080 2.398 1_455 S
O1084 C1082 1.185 . S
O1085 Dy1080 2.491 1_455 S
O1085 C1082 1.355 . S
O1086 Dy1080 2.403 . S
O1086 C1088 1.254 . S
O1087 Dy1080 2.664 . S
O1087 Dy1083 2.310 . S
O1087 C1088 1.268 . S
C1088 O1086 1.254 . S
C1088 O1087 1.268 . S
C1089 O1094 1.254 . S
C1089 O1095 1.268 . S
O1090 Dy1083 2.351 1_455 S
O1090 C1098 1.249 . S
O1091 Dy1080 2.326 1_455 S
O1091 C1098 1.267 . S
O1092 C1081 1.185 . S
O1092 Dy1083 2.398 . S
O1093 C1081 1.355 . S
O1093 Dy1083 2.491 . S
O1094 Dy1083 2.403 1_455 S
O1094 C1089 1.254 . S
O1095 Dy1080 2.310 1_455 S
O1095 Dy1083 2.664 1_455 S
O1095 C1089 1.268 . S
O1096 Dy1080 2.351 . S
O1096 C1099 1.249 . S
O1097 Dy1083 2.326 . S
O1097 C1099 1.267 . S
C1098 O1090 1.249 . S
C1098 O1091 1.267 . S
C1099 O1096 1.249 . S
C1099 O1097 1.267 . S
Dy1100 O1104 2.398 . S
Dy1100 O1105 2.491 . S
Dy1100 O1106 2.403 . S
Dy1100 O1107 2.664 . S
Dy1100 O1111 2.326 . S
Dy1100 O1115 2.310 . S
Dy1100 O1116 2.351 . S
C1101 O1112 1.185 . S
C1101 O1113 1.355 . S
C1102 O1104 1.185 . S
C1102 O1105 1.355 . S
Dy1103 O1107 2.310 . S
Dy1103 O1110 2.351 . S
Dy1103 O1112 2.398 . S
Dy1103 O1113 2.491 . S
Dy1103 O1114 2.403 . S
Dy1103 O1115 2.664 . S
Dy1103 O1117 2.326 . S
O1104 Dy1100 2.398 . S
O1104 C1102 1.185 . S
O1105 Dy1100 2.491 . S
O1105 C1102 1.355 . S
O1106 Dy1100 2.403 . S
O1106 C1108 1.254 . S
O1107 Dy1100 2.664 . S
O1107 Dy1103 2.310 . S
O1107 C1108 1.268 . S
C1108 O1106 1.254 . S
C1108 O1107 1.268 . S
C1109 O1114 1.254 . S
C1109 O1115 1.268 . S
O1110 Dy1103 2.351 . S
O1110 C1118 1.249 . S
O1111 Dy1100 2.326 . S
O1111 C1118 1.267 . S
O1112 C1101 1.185 . S
O1112 Dy1103 2.398 . S
O1113 C1101 1.355 . S
O1113 Dy1103 2.491 . S
O1114 Dy1103 2.403 . S
O1114 C1109 1.254 . S
O1115 Dy1100 2.310 . S
O1115 Dy1103 2.664 . S
O1115 C1109 1.268 . S
O1116 Dy1100 2.351 . S
O1116 C1119 1.249 . S
O1117 Dy1103 2.326 . S
O1117 C1119 1.267 . S
C1118 O1110 1.249 . S
C1118 O1111 1.267 . S
C1119 O1116 1.249 . S
C1119 O1117 1.267 . S
Dy1120 O1124 2.398 . S
Dy1120 O1125 2.491 . S
Dy1120 O1126 2.403 . S
Dy1120 O1127 2.664 . S
Dy1120 O1131 2.326 . S
Dy1120 O1135 2.310 . S
Dy1120 O1136 2.351 . S
C1121 O1132 1.185 . S
C1121 O1133 1.355 . S
C1122 O1124 1.185 . S
C1122 O1125 1.355 . S
Dy1123 O1127 2.310 . S
Dy1123 O1130 2.351 . S
Dy1123 O1132 2.398 . S
Dy1123 O1133 2.491 . S
Dy1123 O1134 2.403 . S
Dy1123 O1135 2.664 . S
Dy1123 O1137 2.326 . S
O1124 Dy1120 2.398 . S
O1124 C1122 1.185 . S
O1125 Dy1120 2.491 . S
O1125 C1122 1.355 . S
O1126 Dy1120 2.403 . S
O1126 C1128 1.254 . S
O1127 Dy1120 2.664 . S
O1127 Dy1123 2.310 . S
O1127 C1128 1.268 . S
C1128 O1126 1.254 . S
C1128 O1127 1.268 . S
C1129 O1134 1.254 . S
C1129 O1135 1.268 . S
O1130 Dy1123 2.351 . S
O1130 C1138 1.249 . S
O1131 Dy1120 2.326 . S
O1131 C1138 1.267 . S
O1132 C1121 1.185 . S
O1132 Dy1123 2.398 . S
O1133 C1121 1.355 . S
O1133 Dy1123 2.491 . S
O1134 Dy1123 2.403 . S
O1134 C1129 1.254 . S
O1135 Dy1120 2.310 . S
O1135 Dy1123 2.664 . S
O1135 C1129 1.268 . S
O1136 Dy1120 2.351 . S
O1136 C1139 1.249 . S
O1137 Dy1123 2.326 . S
O1137 C1139 1.267 . S
C1138 O1130 1.249 . S
C1138 O1131 1.267 . S
C1139 O1136 1.249 . S
C1139 O1137 1.267 . S
Dy1140 O1144 2.398 . S
Dy1140 O1145 2.491 . S
Dy1140 O1146 2.403 . S
Dy1140 O1147 2.664 . S
Dy1140 O1151 2.326 . S
Dy1140 O1155 2.310 . S
Dy1140 O1156 2.351 . S
C1141 O1152 1.185 . S
C1141 O1153 1.355 . S
C1142 O1144 1.185 . S
C1142 O1145 1.355 . S
Dy1143 O1147 2.310 . S
Dy1143 O1150 2.351 . S
Dy1143 O1152 2.398 . S
Dy1143 O1153 2.491 . S
Dy1143 O1154 2.403 . S
Dy1143 O1155 2.664 . S
Dy1143 O1157 2.326 . S
O1144 Dy1140 2.398 . S
O1144 C1142 1.185 . S
O1145 Dy1140 2.491 . S
O1145 C1142 1.355 . S
O1146 Dy1140 2.403 . S
O1146 C1148 1.254 . S
O1147 Dy1140 2.664 . S
O1147 Dy1143 2.310 . S
O1147 C1148 1.268 . S
C1148 O1146 1.254 . S
C1148 O1147 1.268 . S
C1149 O1154 1.254 . S
C1149 O1155 1.268 . S
O1150 Dy1143 2.351 . S
O1150 C1158 1.249 . S
O1151 Dy1140 2.326 . S
O1151 C1158 1.267 . S
O1152 C1141 1.185 . S
O1152 Dy1143 2.398 . S
O1153 C1141 1.355 . S
O1153 Dy1143 2.491 . S
O1154 Dy1143 2.403 . S
O1154 C1149 1.254 . S
O1155 Dy1140 2.310 . S
O1155 Dy1143 2.664 . S
O1155 C1149 1.268 . S
O1156 Dy1140 2.351 . S
O1156 C1159 1.249 . S
O1157 Dy1143 2.326 . S
O1157 C1159 1.267 . S
C1158 O1150 1.249 . S
C1158 O1151 1.267 . S
C1159 O1156 1.249 . S
C1159 O1157 1.267 . S
Dy1160 O1164 2.398 . S
Dy1160 O1165 2.491 . S
Dy1160 O1166 2.403 . S
Dy1160 O1167 2.664 . S
Dy1160 O1171 2.326 . S
Dy1160 O1175 2.310 . S
Dy1160 O1176 2.351 . S
C1161 O1172 1.185 . S
C1161 O1173 1.355 . S
C1162 O1164 1.185 . S
C1162 O1165 1.355 . S
Dy1163 O1167 2.310 . S
Dy1163 O1170 2.351 . S
Dy1163 O1172 2.398 . S
Dy1163 O1173 2.491 . S
Dy1163 O1174 2.403 . S
Dy1163 O1175 2.664 . S
Dy1163 O1177 2.326 . S
O1164 Dy1160 2.398 . S
O1164 C1162 1.185 . S
O1165 Dy1160 2.491 . S
O1165 C1162 1.355 . S
O1166 Dy1160 2.403 . S
O1166 C1168 1.254 . S
O1167 Dy1160 2.664 . S
O1167 Dy1163 2.310 . S
O1167 C1168 1.268 . S
C1168 O1166 1.254 . S
C1168 O1167 1.268 . S
C1169 O1174 1.254 . S
C1169 O1175 1.268 . S
O1170 Dy1163 2.351 . S
O1170 C1178 1.249 . S
O1171 Dy1160 2.326 . S
O1171 C1178 1.267 . S
O1172 C1161 1.185 . S
O1172 Dy1163 2.398 . S
O1173 C1161 1.355 . S
O1173 Dy1163 2.491 . S
O1174 Dy1163 2.403 . S
O1174 C1169 1.254 . S
O1175 Dy1160 2.310 . S
O1175 Dy1163 2.664 . S
O1175 C1169 1.268 . S
O1176 Dy1160 2.351 . S
O1176 C1179 1.249 . S
O1177 Dy1163 2.326 . S
O1177 C1179 1.267 . S
C1178 O1170 1.249 . S
C1178 O1171 1.267 . S
C1179 O1176 1.249 . S
C1179 O1177 1.267 . S
Dy1180 O1184 2.398 . S
Dy1180 O1185 2.491 . S
Dy1180 O1186 2.403 . S
Dy1180 O1187 2.664 . S
Dy1180 O1191 2.326 . S
Dy1180 O1195 2.310 . S
Dy1180 O1196 2.351 . S
C1181 O1192 1.185 . S
C1181 O1193 1.355 . S
C1182 O1184 1.185 . S
C1182 O1185 1.355 . S
Dy1183 O1187 2.310 . S
Dy1183 O1190 2.351 . S
Dy1183 O1192 2.398 . S
Dy1183 O1193 2.491 . S
Dy1183 O1194 2.403 . S
Dy1183 O1195 2.664 . S
Dy1183 O1197 2.326 . S
O1184 Dy1180 2.398 . S
O1184 C1182 1.185 . S
O1185 Dy1180 2.491 . S
O1185 C1182 1.355 . S
O1186 Dy1180 2.403 . S
O1186 C1188 1.254 . S
O1187 Dy1180 2.664 . S
O1187 Dy1183 2.310 . S
O1187 C1188 1.268 . S
C1188 O1186 1.254 . S
C1188 O1187 1.268 . S
C1189 O1194 1.254 . S
C1189 O1195 1.268 . S
O1190 Dy1183 2.351 . S
O1190 C1198 1.249 . S
O1191 Dy1180 2.326 . S
O1191 C1198 1.267 . S
O1192 C1181 1.185 . S
O1192 Dy1183 2.398 . S
O1193 C1181 1.355 . S
O1193 Dy1183 2.491 . S
O1194 Dy1183 2.403 . S
O1194 C1189 1.254 . S
O1195 Dy1180 2.310 . S
O1195 Dy1183 2.664 . S
O1195 C1189 1.268 . S
O1196 Dy1180 2.351 . S
O1196 C1199 1.249 . S
O1197 Dy1183 2.326 . S
O1197 C1199 1.267 . S
C1198 O1190 1.249 . S
C1198 O1191 1.267 . S
C1199 O1196 1.249 . S
C1199 O1197 1.267 . S
Dy1200 O1204 2.398 . S
Dy1200 O1205 2.491 . S
Dy1200 O1206 2.403 . S
Dy1200 O1207 2.664 . S
Dy1200 O1211 2.326 . S
Dy1200 O1215 2.310 . S
Dy1200 O1216 2.351 . S
C1201 O1212 1.185 . S
C1201 O1213 1.355 . S
C1202 O1204 1.185 . S
C1202 O1205 1.355 . S
Dy1203 O1207 2.310 . S
Dy1203 O1210 2.351 . S
Dy1203 O1212 2.398 . S
Dy1203 O1213 2.491 . S
Dy1203 O1214 2.403 . S
Dy1203 O1215 2.664 . S
Dy1203 O1217 2.326 . S
O1204 Dy1200 2.398 . S
O1204 C1202 1.185 . S
O1205 Dy1200 2.491 . S
O1205 C1202 1.355 . S
O1206 Dy1200 2.403 . S
O1206 C1208 1.254 . S
O1207 Dy1200 2.664 . S
O1207 Dy1203 2.310 . S
O1207 C1208 1.268 . S
C1208 O1206 1.254 . S
C1208 O1207 1.268 . S
C1209 O1214 1.254 . S
C1209 O1215 1.268 . S
O1210 Dy1203 2.351 . S
O1210 C1218 1.249 . S
O1211 Dy1200 2.326 . S
O1211 C1218 1.267 . S
O1212 C1201 1.185 . S
O1212 Dy1203 2.398 . S
O1213 C1201 1.355 . S
O1213 Dy1203 2.491 . S
O1214 Dy1203 2.403 . S
O1214 C1209 1.254 . S
O1215 Dy1200 2.310 . S
O1215 Dy1203 2.664 . S
O1215 C1209 1.268 . S
O1216 Dy1200 2.351 . S
O1216 C1219 1.249 . S
O1217 Dy1203 2.326 . S
O1217 C1219 1.267 . S
C1218 O1210 1.249 . S
C1218 O1211 1.267 . S
C1219 O1216 1.249 . S
C1219 O1217 1.267 . S
Dy1220 O1224 2.398 . S
Dy1220 O1225 2.491 . S
Dy1220 O1226 2.403 . S
Dy1220 O1227 2.664 . S
Dy1220 O1231 2.326 . S
Dy1220 O1235 2.310 . S
Dy1220 O1236 2.351 . S
C1221 O1232 1.185 . S
C1221 O1233 1.355 . S
C1222 O1224 1.185 . S
C1222 O1225 1.355 . S
Dy1223 O1227 2.310 . S
Dy1223 O1230 2.351 . S
Dy1223 O1232 2.398 . S
Dy1223 O1233 2.491 . S
Dy1223 O1234 2.403 . S
Dy1223 O1235 2.664 . S
Dy1223 O1237 2.326 . S
O1224 Dy1220 2.398 . S
O1224 C1222 1.185 . S
O1225 Dy1220 2.491 . S
O1225 C1222 1.355 . S
O1226 Dy1220 2.403 . S
O1226 C1228 1.254 . S
O1227 Dy1220 2.664 . S
O1227 Dy1223 2.310 . S
O1227 C1228 1.268 . S
C1228 O1226 1.254 . S
C1228 O1227 1.268 . S
C1229 O1234 1.254 . S
C1229 O1235 1.268 . S
O1230 Dy1223 2.351 . S
O1230 C1238 1.249 . S
O1231 Dy1220 2.326 . S
O1231 C1238 1.267 . S
O1232 C1221 1.185 . S
O1232 Dy1223 2.398 . S
O1233 C1221 1.355 . S
O1233 Dy1223 2.491 . S
O1234 Dy1223 2.403 . S
O1234 C1229 1.254 . S
O1235 Dy1220 2.310 . S
O1235 Dy1223 2.664 . S
O1235 C1229 1.268 . S
O1236 Dy1220 2.351 . S
O1236 C1239 1.249 . S
O1237 Dy1223 2.326 . S
O1237 C1239 1.267 . S
C1238 O1230 1.249 . S
C1238 O1231 1.267 . S
C1239 O1236 1.249 . S
C1239 O1237 1.267 . S
Dy1240 O1244 2.398 . S
Dy1240 O1245 2.491 . S
Dy1240 O1246 2.403 . S
Dy1240 O1247 2.664 . S
Dy1240 O1251 2.326 . S
Dy1240 O1255 2.310 . S
Dy1240 O1256 2.351 . S
C1241 O1252 1.185 . S
C1241 O1253 1.355 . S
C1242 O1244 1.185 . S
C1242 O1245 1.355 . S
Dy1243 O1247 2.310 . S
Dy1243 O1250 2.351 . S
Dy1243 O1252 2.398 . S
Dy1243 O1253 2.491 . S
Dy1243 O1254 2.403 . S
Dy1243 O1255 2.664 . S
Dy1243 O1257 2.326 . S
O1244 Dy1240 2.398 . S
O1244 C1242 1.185 . S
O1245 Dy1240 2.491 . S
O1245 C1242 1.355 . S
O1246 Dy1240 2.403 . S
O1246 C1248 1.254 . S
O1247 Dy1240 2.664 . S
O1247 Dy1243 2.310 . S
O1247 C1248 1.268 . S
C1248 O1246 1.254 . S
C1248 O1247 1.268 . S
C1249 O1254 1.254 . S
C1249 O1255 1.268 . S
O1250 Dy1243 2.351 . S
O1250 C1258 1.249 . S
O1251 Dy1240 2.326 . S
O1251 C1258 1.267 . S
O1252 C1241 1.185 . S
O1252 Dy1243 2.398 . S
O1253 C1241 1.355 . S
O1253 Dy1243 2.491 . S
O1254 Dy1243 2.403 . S
O1254 C1249 1.254 . S
O1255 Dy1240 2.310 . S
O1255 Dy1243 2.664 . S
O1255 C1249 1.268 . S
O1256 Dy1240 2.351 . S
O1256 C1259 1.249 . S
O1257 Dy1243 2.326 . S
O1257 C1259 1.267 . S
C1258 O1250 1.249 . S
C1258 O1251 1.267 . S
C1259 O1256 1.249 . S
C1259 O1257 1.267 . S
Dy1260 O1264 2.398 . S
Dy1260 O1265 2.491 . S
Dy1260 O1266 2.403 . S
Dy1260 O1267 2.664 . S
Dy1260 O1271 2.326 . S
Dy1260 O1275 2.310 . S
Dy1260 O1276 2.351 . S
C1261 O1272 1.185 . S
C1261 O1273 1.355 . S
C1262 O1264 1.185 . S
C1262 O1265 1.355 . S
Dy1263 O1267 2.310 . S
Dy1263 O1270 2.351 . S
Dy1263 O1272 2.398 . S
Dy1263 O1273 2.491 . S
Dy1263 O1274 2.403 . S
Dy1263 O1275 2.664 . S
Dy1263 O1277 2.326 . S
O1264 Dy1260 2.398 . S
O1264 C1262 1.185 . S
O1265 Dy1260 2.491 . S
O1265 C1262 1.355 . S
O1266 Dy1260 2.403 . S
O1266 C1268 1.254 . S
O1267 Dy1260 2.664 . S
O1267 Dy1263 2.310 . S
O1267 C1268 1.268 . S
C1268 O1266 1.254 . S
C1268 O1267 1.268 . S
C1269 O1274 1.254 . S
C1269 O1275 1.268 . S
O1270 Dy1263 2.351 . S
O1270 C1278 1.249 . S
O1271 Dy1260 2.326 . S
O1271 C1278 1.267 . S
O1272 C1261 1.185 . S
O1272 Dy1263 2.398 . S
O1273 C1261 1.355 . S
O1273 Dy1263 2.491 . S
O1274 Dy1263 2.403 . S
O1274 C1269 1.254 . S
O1275 Dy1260 2.310 . S
O1275 Dy1263 2.664 . S
O1275 C1269 1.268 . S
O1276 Dy1260 2.351 . S
O1276 C1279 1.249 . S
O1277 Dy1263 2.326 . S
O1277 C1279 1.267 . S
C1278 O1270 1.249 . S
C1278 O1271 1.267 . S
C1279 O1276 1.249 . S
C1279 O1277 1.267 . S
Dy1280 O1284 2.398 . S
Dy1280 O1285 2.491 . S
Dy1280 O1286 2.403 . S
Dy1280 O1287 2.664 . S
Dy1280 O1291 2.326 . S
Dy1280 O1295 2.310 . S
Dy1280 O1296 2.351 . S
C1281 O1292 1.185 . S
C1281 O1293 1.355 . S
C1282 O1284 1.185 . S
C1282 O1285 1.355 . S
Dy1283 O1287 2.310 . S
Dy1283 O1290 2.351 . S
Dy1283 O1292 2.398 . S
Dy1283 O1293 2.491 . S
Dy1283 O1294 2.403 . S
Dy1283 O1295 2.664 . S
Dy1283 O1297 2.326 . S
O1284 Dy1280 2.398 . S
O1284 C1282 1.185 . S
O1285 Dy1280 2.491 . S
O1285 C1282 1.355 . S
O1286 Dy1280 2.403 . S
O1286 C1288 1.254 . S
O1287 Dy1280 2.664 . S
O1287 Dy1283 2.310 . S
O1287 C1288 1.268 . S
C1288 O1286 1.254 . S
C1288 O1287 1.268 . S
C1289 O1294 1.254 . S
C1289 O1295 1.268 . S
O1290 Dy1283 2.351 . S
O1290 C1298 1.249 . S
O1291 Dy1280 2.326 . S
O1291 C1298 1.267 . S
O1292 C1281 1.185 . S
O1292 Dy1283 2.398 . S
O1293 C1281 1.355 . S
O1293 Dy1283 2.491 . S
O1294 Dy1283 2.403 . S
O1294 C1289 1.254 . S
O1295 Dy1280 2.310 . S
O1295 Dy1283 2.664 . S
O1295 C1289 1.268 . S
O1296 Dy1280 2.351 . S
O1296 C1299 1.249 . S
O1297 Dy1283 2.326 . S
O1297 C1299 1.267 . S
C1298 O1290 1.249 . S
C1298 O1291 1.267 . S
C1299 O1296 1.249 . S
C1299 O1297 1.267 . S
Dy1300 O1304 2.398 . S
Dy1300 O1305 2.491 . S
Dy1300 O1306 2.403 . S
Dy1300 O1307 2.664 . S
Dy1300 O1311 2.326 . S
Dy1300 O1315 2.310 . S
Dy1300 O1316 2.351 . S
C1301 O1312 1.185 . S
C1301 O1313 1.355 . S
C1302 O1304 1.185 . S
C1302 O1305 1.355 . S
Dy1303 O1307 2.310 . S
Dy1303 O1310 2.351 . S
Dy1303 O1312 2.398 . S
Dy1303 O1313 2.491 . S
Dy1303 O1314 2.403 . S
Dy1303 O1315 2.664 . S
Dy1303 O1317 2.326 . S
O1304 Dy1300 2.398 . S
O1304 C1302 1.185 . S
O1305 Dy1300 2.491 . S
O1305 C1302 1.355 . S
O1306 Dy1300 2.403 . S
O1306 C1308 1.254 . S
O1307 Dy1300 2.664 . S
O1307 Dy1303 2.310 . S
O1307 C1308 1.268 . S
C1308 O1306 1.254 . S
C1308 O1307 1.268 . S
C1309 O1314 1.254 . S
C1309 O1315 1.268 . S
O1310 Dy1303 2.351 . S
O1310 C1318 1.249 . S
O1311 Dy1300 2.326 . S
O1311 C1318 1.267 . S
O1312 C1301 1.185 . S
O1312 Dy1303 2.398 . S
O1313 C1301 1.355 . S
O1313 Dy1303 2.491 . S
O1314 Dy1303 2.403 . S
O1314 C1309 1.254 . S
O1315 Dy1300 2.310 . S
O1315 Dy1303 2.664 . S
O1315 C1309 1.268 . S
O1316 Dy1300 2.351 . S
O1316 C1319 1.249 . S
O1317 Dy1303 2.326 . S
O1317 C1319 1.267 . S
C1318 O1310 1.249 . S
C1318 O1311 1.267 . S
C1319 O1316 1.249 . S
C1319 O1317 1.267 . S
Dy1320 O1324 2.398 . S
Dy1320 O1325 2.491 . S
Dy1320 O1326 2.403 . S
Dy1320 O1327 2.664 . S
Dy1320 O1331 2.326 . S
Dy1320 O1335 2.310 . S
Dy1320 O1336 2.351 . S
C1321 O1332 1.185 . S
C1321 O1333 1.355 . S
C1322 O1324 1.185 . S
C1322 O1325 1.355 . S
Dy1323 O1327 2.310 . S
Dy1323 O1330 2.351 . S
Dy1323 O1332 2.398 . S
Dy1323 O1333 2.491 . S
Dy1323 O1334 2.403 . S
Dy1323 O1335 2.664 . S
Dy1323 O1337 2.326 . S
O1324 Dy1320 2.398 . S
O1324 C1322 1.185 . S
O1325 Dy1320 2.491 . S
O1325 C1322 1.355 . S
O1326 Dy1320 2.403 . S
O1326 C1328 1.254 . S
O1327 Dy1320 2.664 . S
O1327 Dy1323 2.310 . S
O1327 C1328 1.268 . S
C1328 O1326 1.254 . S
C1328 O1327 1.268 . S
C1329 O1334 1.254 . S
C1329 O1335 1.268 . S
O1330 Dy1323 2.351 . S
O1330 C1338 1.249 . S
O1331 Dy1320 2.326 . S
O1331 C1338 1.267 . S
O1332 C1321 1.185 . S
O1332 Dy1323 2.398 . S
O1333 C1321 1.355 . S
O1333 Dy1323 2.491 . S
O1334 Dy1323 2.403 . S
O1334 C1329 1.254 . S
O1335 Dy1320 2.310 . S
O1335 Dy1323 2.664 . S
O1335 C1329 1.268 . S
O1336 Dy1320 2.351 . S
O1336 C1339 1.249 . S
O1337 Dy1323 2.326 . S
O1337 C1339 1.267 . S
C1338 O1330 1.249 . S
C1338 O1331 1.267 . S
C1339 O1336 1.249 . S
C1339 O1337 1.267 . S
Dy1340 O1344 2.398 . S
Dy1340 O1345 2.491 . S
Dy1340 O1346 2.403 . S
Dy1340 O1347 2.664 1_556 S
Dy1340 O1351 2.326 . S
Dy1340 O1355 2.310 . S
Dy1340 O1356 2.351 . S
C1341 O1352 1.185 . S
C1341 O1353 1.355 . S
C1342 O1344 1.185 . S
C1342 O1345 1.355 . S
Dy1343 O1347 2.310 . S
Dy1343 O1350 2.351 1_554 S
Dy1343 O1352 2.398 . S
Dy1343 O1353 2.491 . S
Dy1343 O1354 2.403 1_554 S
Dy1343 O1355 2.664 1_554 S
Dy1343 O1357 2.326 . S
O1344 Dy1340 2.398 . S
O1344 C1342 1.185 . S
O1345 Dy1340 2.491 . S
O1345 C1342 1.355 . S
O1346 Dy1340 2.403 . S
O1346 C1348 1.254 1_556 S
O1347 Dy1340 2.664 1_554 S
O1347 Dy1343 2.310 . S
O1347 C1348 1.268 . S
C1348 O1346 1.254 1_554 S
C1348 O1347 1.268 . S
C1349 O1354 1.254 . S
C1349 O1355 1.268 . S
O1350 Dy1343 2.351 1_556 S
O1350 C1358 1.249 . S
O1351 Dy1340 2.326 . S
O1351 C1358 1.267 . S
O1352 C1341 1.185 . S
O1352 Dy1343 2.398 . S
O1353 C1341 1.355 . S
O1353 Dy1343 2.491 . S
O1354 Dy1343 2.403 1_556 S
O1354 C1349 1.254 . S
O1355 Dy1340 2.310 . S
O1355 Dy1343 2.664 1_556 S
O1355 C1349 1.268 . S
O1356 Dy1340 2.351 . S
O1356 C1359 1.249 1_556 S
O1357 Dy1343 2.326 . S
O1357 C1359 1.267 . S
C1358 O1350 1.249 . S
C1358 O1351 1.267 . S
C1359 O1356 1.249 1_554 S
C1359 O1357 1.267 . S
Dy1360 O1364 2.398 . S
Dy1360 O1365 2.491 . S
Dy1360 O1366 2.403 . S
Dy1360 O1367 2.664 . S
Dy1360 O1371 2.326 . S
Dy1360 O1375 2.310 . S
Dy1360 O1376 2.351 . S
C1361 O1372 1.185 . S
C1361 O1373 1.355 . S
C1362 O1364 1.185 . S
C1362 O1365 1.355 . S
Dy1363 O1367 2.310 . S
Dy1363 O1370 2.351 . S
Dy1363 O1372 2.398 . S
Dy1363 O1373 2.491 . S
Dy1363 O1374 2.403 . S
Dy1363 O1375 2.664 . S
Dy1363 O1377 2.326 . S
O1364 Dy1360 2.398 . S
O1364 C1362 1.185 . S
O1365 Dy1360 2.491 . S
O1365 C1362 1.355 . S
O1366 Dy1360 2.403 . S
O1366 C1368 1.254 . S
O1367 Dy1360 2.664 . S
O1367 Dy1363 2.310 . S
O1367 C1368 1.268 . S
C1368 O1366 1.254 . S
C1368 O1367 1.268 . S
C1369 O1374 1.254 . S
C1369 O1375 1.268 . S
O1370 Dy1363 2.351 . S
O1370 C1378 1.249 . S
O1371 Dy1360 2.326 . S
O1371 C1378 1.267 . S
O1372 C1361 1.185 . S
O1372 Dy1363 2.398 . S
O1373 C1361 1.355 . S
O1373 Dy1363 2.491 . S
O1374 Dy1363 2.403 . S
O1374 C1369 1.254 . S
O1375 Dy1360 2.310 . S
O1375 Dy1363 2.664 . S
O1375 C1369 1.268 . S
O1376 Dy1360 2.351 . S
O1376 C1379 1.249 . S
O1377 Dy1363 2.326 . S
O1377 C1379 1.267 . S
C1378 O1370 1.249 . S
C1378 O1371 1.267 . S
C1379 O1376 1.249 . S
C1379 O1377 1.267 . S
Dy1380 O1384 2.398 . S
Dy1380 O1385 2.491 . S
Dy1380 O1386 2.403 . S
Dy1380 O1387 2.653 1_554 S
Dy1380 O1391 2.326 . S
Dy1380 O1395 2.310 . S
Dy1380 O1396 2.351 . S
C1381 O1392 1.185 . S
C1381 O1393 1.355 . S
C1382 O1384 1.185 . S
C1382 O1385 1.355 . S
Dy1383 O1387 2.311 . S
Dy1383 O1390 2.351 1_556 S
Dy1383 O1392 2.398 . S
Dy1383 O1393 2.491 . S
Dy1383 O1394 2.403 1_556 S
Dy1383 O1395 2.664 1_556 S
Dy1383 O1397 2.326 . S
O1384 Dy1380 2.398 . S
O1384 C1382 1.185 . S
O1385 Dy1380 2.491 . S
O1385 C1382 1.355 . S
O1386 Dy1380 2.403 . S
O1386 C1388 1.286 . S
O1387 Dy1380 2.653 1_556 S
O1387 Dy1383 2.311 . S
O1387 C1388 1.267 1_556 S
C1388 O1386 1.286 . S
C1388 O1387 1.267 1_554 S
C1389 O1394 1.254 . S
C1389 O1395 1.268 . S
O1390 Dy1383 2.351 1_554 S
O1390 C1398 1.249 . S
O1391 Dy1380 2.326 . S
O1391 C1398 1.267 . S
O1392 C1381 1.185 . S
O1392 Dy1383 2.398 . S
O1393 C1381 1.355 . S
O1393 Dy1383 2.491 . S
O1394 Dy1383 2.403 1_554 S
O1394 C1389 1.254 . S
O1395 Dy1380 2.310 . S
O1395 Dy1383 2.664 1_554 S
O1395 C1389 1.268 . S
O1396 Dy1380 2.351 . S
O1396 C1399 1.249 1_554 S
O1397 Dy1383 2.326 . S
O1397 C1399 1.267 . S
C1398 O1390 1.249 . S
C1398 O1391 1.267 . S
C1399 O1396 1.249 1_556 S
C1399 O1397 1.267 . S
Dy1400 O1404 2.398 . S
Dy1400 O1405 2.491 . S
Dy1400 O1406 2.403 . S
Dy1400 O1407 2.664 . S
Dy1400 O1411 2.326 . S
Dy1400 O1415 2.310 . S
Dy1400 O1416 2.351 . S
C1401 O1412 1.185 . S
C1401 O1413 1.355 . S
C1402 O1404 1.185 . S
C1402 O1405 1.355 . S
Dy1403 O1407 2.310 . S
Dy1403 O1410 2.351 . S
Dy1403 O1412 2.398 . S
Dy1403 O1413 2.491 . S
Dy1403 O1414 2.403 . S
Dy1403 O1415 2.664 . S
Dy1403 O1417 2.326 . S
O1404 Dy1400 2.398 . S
O1404 C1402 1.185 . S
O1405 Dy1400 2.491 . S
O1405 C1402 1.355 . S
O1406 Dy1400 2.403 . S
O1406 C1408 1.254 . S
O1407 Dy1400 2.664 . S
O1407 Dy1403 2.310 . S
O1407 C1408 1.268 . S
C1408 O1406 1.254 . S
C1408 O1407 1.268 . S
C1409 O1414 1.254 . S
C1409 O1415 1.268 . S
O1410 Dy1403 2.351 . S
O1410 C1418 1.249 . S
O1411 Dy1400 2.326 . S
O1411 C1418 1.267 . S
O1412 C1401 1.185 . S
O1412 Dy1403 2.398 . S
O1413 C1401 1.355 . S
O1413 Dy1403 2.491 . S
O1414 Dy1403 2.403 . S
O1414 C1409 1.254 . S
O1415 Dy1400 2.310 . S
O1415 Dy1403 2.664 . S
O1415 C1409 1.268 . S
O1416 Dy1400 2.351 . S
O1416 C1419 1.249 . S
O1417 Dy1403 2.326 . S
O1417 C1419 1.267 . S
C1418 O1410 1.249 . S
C1418 O1411 1.267 . S
C1419 O1416 1.249 . S
C1419 O1417 1.267 . S
Dy1420 O1424 2.398 . S
Dy1420 O1425 2.491 . S
Dy1420 O1426 2.403 . S
Dy1420 O1427 2.664 . S
Dy1420 O1431 2.326 . S
Dy1420 O1435 2.310 . S
Dy1420 O1436 2.351 . S
C1421 O1432 1.185 . S
C1421 O1433 1.355 . S
C1422 O1424 1.185 . S
C1422 O1425 1.355 . S
Dy1423 O1427 2.310 . S
Dy1423 O1430 2.351 . S
Dy1423 O1432 2.398 . S
Dy1423 O1433 2.491 . S
Dy1423 O1434 2.403 . S
Dy1423 O1435 2.664 . S
Dy1423 O1437 2.326 . S
O1424 Dy1420 2.398 . S
O1424 C1422 1.185 . S
O1425 Dy1420 2.491 . S
O1425 C1422 1.355 . S
O1426 Dy1420 2.403 . S
O1426 C1428 1.254 . S
O1427 Dy1420 2.664 . S
O1427 Dy1423 2.310 . S
O1427 C1428 1.268 . S
C1428 O1426 1.254 . S
C1428 O1427 1.268 . S
C1429 O1434 1.254 . S
C1429 O1435 1.268 . S
O1430 Dy1423 2.351 . S
O1430 C1438 1.249 . S
O1431 Dy1420 2.326 . S
O1431 C1438 1.267 . S
O1432 C1421 1.185 . S
O1432 Dy1423 2.398 . S
O1433 C1421 1.355 . S
O1433 Dy1423 2.491 . S
O1434 Dy1423 2.403 . S
O1434 C1429 1.254 . S
O1435 Dy1420 2.310 . S
O1435 Dy1423 2.664 . S
O1435 C1429 1.268 . S
O1436 Dy1420 2.351 . S
O1436 C1439 1.249 . S
O1437 Dy1423 2.326 . S
O1437 C1439 1.267 . S
C1438 O1430 1.249 . S
C1438 O1431 1.267 . S
C1439 O1436 1.249 . S
C1439 O1437 1.267 . S
Dy1440 O1444 2.398 . S
Dy1440 O1445 2.491 . S
Dy1440 O1446 2.403 . S
Dy1440 O1447 2.664 . S
Dy1440 O1451 2.326 . S
Dy1440 O1455 2.310 . S
Dy1440 O1456 2.351 . S
C1441 O1452 1.185 . S
C1441 O1453 1.355 . S
C1442 O1444 1.185 . S
C1442 O1445 1.355 . S
Dy1443 O1447 2.310 . S
Dy1443 O1450 2.351 . S
Dy1443 O1452 2.398 . S
Dy1443 O1453 2.491 . S
Dy1443 O1454 2.403 . S
Dy1443 O1455 2.664 . S
Dy1443 O1457 2.326 . S
O1444 Dy1440 2.398 . S
O1444 C1442 1.185 . S
O1445 Dy1440 2.491 . S
O1445 C1442 1.355 . S
O1446 Dy1440 2.403 . S
O1446 C1448 1.254 . S
O1447 Dy1440 2.664 . S
O1447 Dy1443 2.310 . S
O1447 C1448 1.268 . S
C1448 O1446 1.254 . S
C1448 O1447 1.268 . S
C1449 O1454 1.254 . S
C1449 O1455 1.268 . S
O1450 Dy1443 2.351 . S
O1450 C1458 1.249 . S
O1451 Dy1440 2.326 . S
O1451 C1458 1.267 . S
O1452 C1441 1.185 . S
O1452 Dy1443 2.398 . S
O1453 C1441 1.355 . S
O1453 Dy1443 2.491 . S
O1454 Dy1443 2.403 . S
O1454 C1449 1.254 . S
O1455 Dy1440 2.310 . S
O1455 Dy1443 2.664 . S
O1455 C1449 1.268 . S
O1456 Dy1440 2.351 . S
O1456 C1459 1.249 . S
O1457 Dy1443 2.326 . S
O1457 C1459 1.267 . S
C1458 O1450 1.249 . S
C1458 O1451 1.267 . S
C1459 O1456 1.249 . S
C1459 O1457 1.267 . S
Dy1460 O1464 2.398 . S
Dy1460 O1465 2.491 . S
Dy1460 O1466 2.403 . S
Dy1460 O1467 2.664 . S
Dy1460 O1471 2.326 . S
Dy1460 O1475 2.310 . S
Dy1460 O1476 2.351 . S
C1461 O1472 1.185 . S
C1461 O1473 1.355 . S
C1462 O1464 1.185 . S
C1462 O1465 1.355 . S
Dy1463 O1467 2.310 . S
Dy1463 O1470 2.351 . S
Dy1463 O1472 2.398 . S
Dy1463 O1473 2.491 . S
Dy1463 O1474 2.403 . S
Dy1463 O1475 2.664 . S
Dy1463 O1477 2.326 . S
O1464 Dy1460 2.398 . S
O1464 C1462 1.185 . S
O1465 Dy1460 2.491 . S
O1465 C1462 1.355 . S
O1466 Dy1460 2.403 . S
O1466 C1468 1.254 . S
O1467 Dy1460 2.664 . S
O1467 Dy1463 2.310 . S
O1467 C1468 1.268 . S
C1468 O1466 1.254 . S
C1468 O1467 1.268 . S
C1469 O1474 1.254 . S
C1469 O1475 1.268 . S
O1470 Dy1463 2.351 . S
O1470 C1478 1.249 . S
O1471 Dy1460 2.326 . S
O1471 C1478 1.267 . S
O1472 C1461 1.185 . S
O1472 Dy1463 2.398 . S
O1473 C1461 1.355 . S
O1473 Dy1463 2.491 . S
O1474 Dy1463 2.403 . S
O1474 C1469 1.254 . S
O1475 Dy1460 2.310 . S
O1475 Dy1463 2.664 . S
O1475 C1469 1.268 . S
O1476 Dy1460 2.351 . S
O1476 C1479 1.249 . S
O1477 Dy1463 2.326 . S
O1477 C1479 1.267 . S
C1478 O1470 1.249 . S
C1478 O1471 1.267 . S
C1479 O1476 1.249 . S
C1479 O1477 1.267 . S
Dy1480 O1484 2.398 . S
Dy1480 O1485 2.491 . S
Dy1480 O1486 2.403 1_455 S
Dy1480 O1487 2.664 1_455 S
Dy1480 O1491 2.326 . S
Dy1480 O1495 2.310 . S
Dy1480 O1496 2.351 1_455 S
C1481 O1492 1.185 . S
C1481 O1493 1.355 . S
C1482 O1484 1.185 . S
C1482 O1485 1.355 . S
Dy1483 O1487 2.310 1_455 S
Dy1483 O1490 2.351 . S
Dy1483 O1492 2.398 1_455 S
Dy1483 O1493 2.491 1_455 S
Dy1483 O1494 2.403 . S
Dy1483 O1495 2.664 . S
Dy1483 O1497 2.326 1_455 S
O1484 Dy1480 2.398 . S
O1484 C1482 1.185 . S
O1485 Dy1480 2.491 . S
O1485 C1482 1.355 . S
O1486 Dy1480 2.403 1_655 S
O1486 C1488 1.254 . S
O1487 Dy1480 2.664 1_655 S
O1487 Dy1483 2.310 1_655 S
O1487 C1488 1.268 . S
C1488 O1486 1.254 . S
C1488 O1487 1.268 . S
C1489 O1494 1.254 . S
C1489 O1495 1.268 . S
O1490 Dy1483 2.351 . S
O1490 C1498 1.249 . S
O1491 Dy1480 2.326 . S
O1491 C1498 1.267 . S
O1492 C1481 1.185 . S
O1492 Dy1483 2.398 1_655 S
O1493 C1481 1.355 . S
O1493 Dy1483 2.491 1_655 S
O1494 Dy1483 2.403 . S
O1494 C1489 1.254 . S
O1495 Dy1480 2.310 . S
O1495 Dy1483 2.664 . S
O1495 C1489 1.268 . S
O1496 Dy1480 2.351 1_655 S
O1496 C1499 1.249 . S
O1497 Dy1483 2.326 1_655 S
O1497 C1499 1.267 . S
C1498 O1490 1.249 . S
C1498 O1491 1.267 . S
C1499 O1496 1.249 . S
C1499 O1497 1.267 . S
Dy1500 O1504 2.398 . S
Dy1500 O1505 2.491 . S
Dy1500 O1506 2.403 . S
Dy1500 O1507 2.664 . S
Dy1500 O1511 2.326 . S
Dy1500 O1515 2.310 . S
Dy1500 O1516 2.351 . S
C1501 O1512 1.185 . S
C1501 O1513 1.355 . S
C1502 O1504 1.185 . S
C1502 O1505 1.355 . S
Dy1503 O1507 2.310 . S
Dy1503 O1510 2.351 . S
Dy1503 O1512 2.398 . S
Dy1503 O1513 2.491 . S
Dy1503 O1514 2.403 . S
Dy1503 O1515 2.664 . S
Dy1503 O1517 2.326 . S
O1504 Dy1500 2.398 . S
O1504 C1502 1.185 . S
O1505 Dy1500 2.491 . S
O1505 C1502 1.355 . S
O1506 Dy1500 2.403 . S
O1506 C1508 1.254 . S
O1507 Dy1500 2.664 . S
O1507 Dy1503 2.310 . S
O1507 C1508 1.268 . S
C1508 O1506 1.254 . S
C1508 O1507 1.268 . S
C1509 O1514 1.254 . S
C1509 O1515 1.268 . S
O1510 Dy1503 2.351 . S
O1510 C1518 1.249 . S
O1511 Dy1500 2.326 . S
O1511 C1518 1.267 . S
O1512 C1501 1.185 . S
O1512 Dy1503 2.398 . S
O1513 C1501 1.355 . S
O1513 Dy1503 2.491 . S
O1514 Dy1503 2.403 . S
O1514 C1509 1.254 . S
O1515 Dy1500 2.310 . S
O1515 Dy1503 2.664 . S
O1515 C1509 1.268 . S
O1516 Dy1500 2.351 . S
O1516 C1519 1.249 . S
O1517 Dy1503 2.326 . S
O1517 C1519 1.267 . S
C1518 O1510 1.249 . S
C1518 O1511 1.267 . S
C1519 O1516 1.249 . S
C1519 O1517 1.267 . S
Dy1520 O1524 2.398 . S
Dy1520 O1525 2.491 . S
Dy1520 O1526 2.403 . S
Dy1520 O1527 2.664 . S
Dy1520 O1531 2.326 . S
Dy1520 O1535 2.310 . S
Dy1520 O1536 2.351 . S
C1521 O1532 1.185 . S
C1521 O1533 1.355 . S
C1522 O1524 1.185 . S
C1522 O1525 1.355 . S
Dy1523 O1527 2.310 . S
Dy1523 O1530 2.351 . S
Dy1523 O1532 2.398 . S
Dy1523 O1533 2.491 . S
Dy1523 O1534 2.403 . S
Dy1523 O1535 2.664 . S
Dy1523 O1537 2.326 . S
O1524 Dy1520 2.398 . S
O1524 C1522 1.185 . S
O1525 Dy1520 2.491 . S
O1525 C1522 1.355 . S
O1526 Dy1520 2.403 . S
O1526 C1528 1.254 . S
O1527 Dy1520 2.664 . S
O1527 Dy1523 2.310 . S
O1527 C1528 1.268 . S
C1528 O1526 1.254 . S
C1528 O1527 1.268 . S
C1529 O1534 1.254 . S
C1529 O1535 1.268 . S
O1530 Dy1523 2.351 . S
O1530 C1538 1.249 . S
O1531 Dy1520 2.326 . S
O1531 C1538 1.267 . S
O1532 C1521 1.185 . S
O1532 Dy1523 2.398 . S
O1533 C1521 1.355 . S
O1533 Dy1523 2.491 . S
O1534 Dy1523 2.403 . S
O1534 C1529 1.254 . S
O1535 Dy1520 2.310 . S
O1535 Dy1523 2.664 . S
O1535 C1529 1.268 . S
O1536 Dy1520 2.351 . S
O1536 C1539 1.249 . S
O1537 Dy1523 2.326 . S
O1537 C1539 1.267 . S
C1538 O1530 1.249 . S
C1538 O1531 1.267 . S
C1539 O1536 1.249 . S
C1539 O1537 1.267 . S
Dy1540 O1544 2.398 . S
Dy1540 O1545 2.491 . S
Dy1540 O1546 2.403 . S
Dy1540 O1547 2.664 . S
Dy1540 O1551 2.326 . S
Dy1540 O1555 2.310 . S
Dy1540 O1556 2.351 . S
C1541 O1552 1.185 . S
C1541 O1553 1.355 . S
C1542 O1544 1.185 . S
C1542 O1545 1.355 . S
Dy1543 O1547 2.310 . S
Dy1543 O1550 2.351 . S
Dy1543 O1552 2.398 . S
Dy1543 O1553 2.491 . S
Dy1543 O1554 2.403 . S
Dy1543 O1555 2.664 . S
Dy1543 O1557 2.326 . S
O1544 Dy1540 2.398 . S
O1544 C1542 1.185 . S
O1545 Dy1540 2.491 . S
O1545 C1542 1.355 . S
O1546 Dy1540 2.403 . S
O1546 C1548 1.254 . S
O1547 Dy1540 2.664 . S
O1547 Dy1543 2.310 . S
O1547 C1548 1.268 . S
C1548 O1546 1.254 . S
C1548 O1547 1.268 . S
C1549 O1554 1.254 . S
C1549 O1555 1.268 . S
O1550 Dy1543 2.351 . S
O1550 C1558 1.249 . S
O1551 Dy1540 2.326 . S
O1551 C1558 1.267 . S
O1552 C1541 1.185 . S
O1552 Dy1543 2.398 . S
O1553 C1541 1.355 . S
O1553 Dy1543 2.491 . S
O1554 Dy1543 2.403 . S
O1554 C1549 1.254 . S
O1555 Dy1540 2.310 . S
O1555 Dy1543 2.664 . S
O1555 C1549 1.268 . S
O1556 Dy1540 2.351 . S
O1556 C1559 1.249 . S
O1557 Dy1543 2.326 . S
O1557 C1559 1.267 . S
C1558 O1550 1.249 . S
C1558 O1551 1.267 . S
C1559 O1556 1.249 . S
C1559 O1557 1.267 . S
Dy1560 O1564 2.398 . S
Dy1560 O1565 2.491 . S
Dy1560 O1566 2.403 1_455 S
Dy1560 O1567 2.664 1_455 S
Dy1560 O1571 2.326 . S
Dy1560 O1575 2.310 . S
Dy1560 O1576 2.351 1_455 S
C1561 O1572 1.185 . S
C1561 O1573 1.355 . S
C1562 O1564 1.185 . S
C1562 O1565 1.355 . S
Dy1563 O1567 2.310 1_455 S
Dy1563 O1570 2.351 . S
Dy1563 O1572 2.398 1_455 S
Dy1563 O1573 2.491 1_455 S
Dy1563 O1574 2.403 . S
Dy1563 O1575 2.664 . S
Dy1563 O1577 2.326 1_455 S
O1564 Dy1560 2.398 . S
O1564 C1562 1.185 . S
O1565 Dy1560 2.491 . S
O1565 C1562 1.355 . S
O1566 Dy1560 2.403 1_655 S
O1566 C1568 1.254 . S
O1567 Dy1560 2.664 1_655 S
O1567 Dy1563 2.310 1_655 S
O1567 C1568 1.268 . S
C1568 O1566 1.254 . S
C1568 O1567 1.268 . S
C1569 O1574 1.254 . S
C1569 O1575 1.268 . S
O1570 Dy1563 2.351 . S
O1570 C1578 1.249 . S
O1571 Dy1560 2.326 . S
O1571 C1578 1.267 . S
O1572 C1561 1.185 . S
O1572 Dy1563 2.398 1_655 S
O1573 C1561 1.355 . S
O1573 Dy1563 2.491 1_655 S
O1574 Dy1563 2.403 . S
O1574 C1569 1.254 . S
O1575 Dy1560 2.310 . S
O1575 Dy1563 2.664 . S
O1575 C1569 1.268 . S
O1576 Dy1560 2.351 1_655 S
O1576 C1579 1.249 . S
O1577 Dy1563 2.326 1_655 S
O1577 C1579 1.267 . S
C1578 O1570 1.249 . S
C1578 O1571 1.267 . S
C1579 O1576 1.249 . S
C1579 O1577 1.267 . S
Dy1580 O1584 2.398 . S
Dy1580 O1585 2.491 . S
Dy1580 O1586 2.403 . S
Dy1580 O1587 2.664 . S
Dy1580 O1591 2.326 . S
Dy1580 O1595 2.310 . S
Dy1580 O1596 2.351 . S
C1581 O1592 1.185 . S
C1581 O1593 1.355 . S
C1582 O1584 1.185 . S
C1582 O1585 1.355 . S
Dy1583 O1587 2.310 . S
Dy1583 O1590 2.351 . S
Dy1583 O1592 2.398 . S
Dy1583 O1593 2.491 . S
Dy1583 O1594 2.403 . S
Dy1583 O1595 2.664 . S
Dy1583 O1597 2.326 . S
O1584 Dy1580 2.398 . S
O1584 C1582 1.185 . S
O1585 Dy1580 2.491 . S
O1585 C1582 1.355 . S
O1586 Dy1580 2.403 . S
O1586 C1588 1.254 . S
O1587 Dy1580 2.664 . S
O1587 Dy1583 2.310 . S
O1587 C1588 1.268 . S
C1588 O1586 1.254 . S
C1588 O1587 1.268 . S
C1589 O1594 1.254 . S
C1589 O1595 1.268 . S
O1590 Dy1583 2.351 . S
O1590 C1598 1.249 . S
O1591 Dy1580 2.326 . S
O1591 C1598 1.267 . S
O1592 C1581 1.185 . S
O1592 Dy1583 2.398 . S
O1593 C1581 1.355 . S
O1593 Dy1583 2.491 . S
O1594 Dy1583 2.403 . S
O1594 C1589 1.254 . S
O1595 Dy1580 2.310 . S
O1595 Dy1583 2.664 . S
O1595 C1589 1.268 . S
O1596 Dy1580 2.351 . S
O1596 C1599 1.249 . S
O1597 Dy1583 2.326 . S
O1597 C1599 1.267 . S
C1598 O1590 1.249 . S
C1598 O1591 1.267 . S
C1599 O1596 1.249 . S
C1599 O1597 1.267 . S
Dy1600 O1604 2.398 . S
Dy1600 O1605 2.491 . S
Dy1600 O1606 2.403 . S
Dy1600 O1607 2.664 . S
Dy1600 O1611 2.326 . S
Dy1600 O1615 2.310 . S
Dy1600 O1616 2.351 . S
C1601 O1612 1.185 . S
C1601 O1613 1.355 . S
C1602 O1604 1.185 . S
C1602 O1605 1.355 . S
Dy1603 O1607 2.310 . S
Dy1603 O1610 2.351 . S
Dy1603 O1612 2.398 . S
Dy1603 O1613 2.491 . S
Dy1603 O1614 2.403 . S
Dy1603 O1615 2.664 . S
Dy1603 O1617 2.326 . S
O1604 Dy1600 2.398 . S
O1604 C1602 1.185 . S
O1605 Dy1600 2.491 . S
O1605 C1602 1.355 . S
O1606 Dy1600 2.403 . S
O1606 C1608 1.254 . S
O1607 Dy1600 2.664 . S
O1607 Dy1603 2.310 . S
O1607 C1608 1.268 . S
C1608 O1606 1.254 . S
C1608 O1607 1.268 . S
C1609 O1614 1.254 . S
C1609 O1615 1.268 . S
O1610 Dy1603 2.351 . S
O1610 C1618 1.249 . S
O1611 Dy1600 2.326 . S
O1611 C1618 1.267 . S
O1612 C1601 1.185 . S
O1612 Dy1603 2.398 . S
O1613 C1601 1.355 . S
O1613 Dy1603 2.491 . S
O1614 Dy1603 2.403 . S
O1614 C1609 1.254 . S
O1615 Dy1600 2.310 . S
O1615 Dy1603 2.664 . S
O1615 C1609 1.268 . S
O1616 Dy1600 2.351 . S
O1616 C1619 1.249 . S
O1617 Dy1603 2.326 . S
O1617 C1619 1.267 . S
C1618 O1610 1.249 . S
C1618 O1611 1.267 . S
C1619 O1616 1.249 . S
C1619 O1617 1.267 . S
Dy1620 O1624 2.398 . S
Dy1620 O1625 2.491 . S
Dy1620 O1626 2.403 . S
Dy1620 O1627 2.664 . S
Dy1620 O1631 2.326 . S
Dy1620 O1635 2.310 . S
Dy1620 O1636 2.351 . S
C1621 O1632 1.185 . S
C1621 O1633 1.355 . S
C1622 O1624 1.185 . S
C1622 O1625 1.355 . S
Dy1623 O1627 2.310 . S
Dy1623 O1630 2.351 . S
Dy1623 O1632 2.398 . S
Dy1623 O1633 2.491 . S
Dy1623 O1634 2.403 . S
Dy1623 O1635 2.664 . S
Dy1623 O1637 2.326 . S
O1624 Dy1620 2.398 . S
O1624 C1622 1.185 . S
O1625 Dy1620 2.491 . S
O1625 C1622 1.355 . S
O1626 Dy1620 2.403 . S
O1626 C1628 1.254 . S
O1627 Dy1620 2.664 . S
O1627 Dy1623 2.310 . S
O1627 C1628 1.268 . S
C1628 O1626 1.254 . S
C1628 O1627 1.268 . S
C1629 O1634 1.254 . S
C1629 O1635 1.268 . S
O1630 Dy1623 2.351 . S
O1630 C1638 1.249 . S
O1631 Dy1620 2.326 . S
O1631 C1638 1.267 . S
O1632 C1621 1.185 . S
O1632 Dy1623 2.398 . S
O1633 C1621 1.355 . S
O1633 Dy1623 2.491 . S
O1634 Dy1623 2.403 . S
O1634 C1629 1.254 . S
O1635 Dy1620 2.310 . S
O1635 Dy1623 2.664 . S
O1635 C1629 1.268 . S
O1636 Dy1620 2.351 . S
O1636 C1639 1.249 . S
O1637 Dy1623 2.326 . S
O1637 C1639 1.267 . S
C1638 O1630 1.249 . S
C1638 O1631 1.267 . S
C1639 O1636 1.249 . S
C1639 O1637 1.267 . S
Dy1640 O1644 2.398 . S
Dy1640 O1645 2.491 . S
Dy1640 O1646 2.403 . S
Dy1640 O1647 2.664 . S
Dy1640 O1651 2.326 . S
Dy1640 O1655 2.310 . S
Dy1640 O1656 2.351 . S
C1641 O1652 1.185 . S
C1641 O1653 1.355 . S
C1642 O1644 1.185 . S
C1642 O1645 1.355 . S
Dy1643 O1647 2.310 . S
Dy1643 O1650 2.351 . S
Dy1643 O1652 2.398 . S
Dy1643 O1653 2.491 . S
Dy1643 O1654 2.403 . S
Dy1643 O1655 2.664 . S
Dy1643 O1657 2.326 . S
O1644 Dy1640 2.398 . S
O1644 C1642 1.185 . S
O1645 Dy1640 2.491 . S
O1645 C1642 1.355 . S
O1646 Dy1640 2.403 . S
O1646 C1648 1.254 . S
O1647 Dy1640 2.664 . S
O1647 Dy1643 2.310 . S
O1647 C1648 1.268 . S
C1648 O1646 1.254 . S
C1648 O1647 1.268 . S
C1649 O1654 1.254 . S
C1649 O1655 1.268 . S
O1650 Dy1643 2.351 . S
O1650 C1658 1.249 . S
O1651 Dy1640 2.326 . S
O1651 C1658 1.267 . S
O1652 C1641 1.185 . S
O1652 Dy1643 2.398 . S
O1653 C1641 1.355 . S
O1653 Dy1643 2.491 . S
O1654 Dy1643 2.403 . S
O1654 C1649 1.254 . S
O1655 Dy1640 2.310 . S
O1655 Dy1643 2.664 . S
O1655 C1649 1.268 . S
O1656 Dy1640 2.351 . S
O1656 C1659 1.249 . S
O1657 Dy1643 2.326 . S
O1657 C1659 1.267 . S
C1658 O1650 1.249 . S
C1658 O1651 1.267 . S
C1659 O1656 1.249 . S
C1659 O1657 1.267 . S
Dy1660 O1664 2.398 . S
Dy1660 O1665 2.491 . S
Dy1660 O1666 2.403 . S
Dy1660 O1667 2.664 . S
Dy1660 O1671 2.326 . S
Dy1660 O1675 2.310 . S
Dy1660 O1676 2.351 . S
C1661 O1672 1.185 . S
C1661 O1673 1.355 . S
C1662 O1664 1.185 . S
C1662 O1665 1.355 . S
Dy1663 O1667 2.310 . S
Dy1663 O1670 2.351 . S
Dy1663 O1672 2.398 . S
Dy1663 O1673 2.491 . S
Dy1663 O1674 2.403 . S
Dy1663 O1675 2.664 . S
Dy1663 O1677 2.326 . S
O1664 Dy1660 2.398 . S
O1664 C1662 1.185 . S
O1665 Dy1660 2.491 . S
O1665 C1662 1.355 . S
O1666 Dy1660 2.403 . S
O1666 C1668 1.254 . S
O1667 Dy1660 2.664 . S
O1667 Dy1663 2.310 . S
O1667 C1668 1.268 . S
C1668 O1666 1.254 . S
C1668 O1667 1.268 . S
C1669 O1674 1.254 . S
C1669 O1675 1.268 . S
O1670 Dy1663 2.351 . S
O1670 C1678 1.249 . S
O1671 Dy1660 2.326 . S
O1671 C1678 1.267 . S
O1672 C1661 1.185 . S
O1672 Dy1663 2.398 . S
O1673 C1661 1.355 . S
O1673 Dy1663 2.491 . S
O1674 Dy1663 2.403 . S
O1674 C1669 1.254 . S
O1675 Dy1660 2.310 . S
O1675 Dy1663 2.664 . S
O1675 C1669 1.268 . S
O1676 Dy1660 2.351 . S
O1676 C1679 1.249 . S
O1677 Dy1663 2.326 . S
O1677 C1679 1.267 . S
C1678 O1670 1.249 . S
C1678 O1671 1.267 . S
C1679 O1676 1.249 . S
C1679 O1677 1.267 . S
Dy1680 O1684 2.398 . S
Dy1680 O1685 2.491 . S
Dy1680 O1686 2.403 . S
Dy1680 O1687 2.664 . S
Dy1680 O1691 2.326 . S
Dy1680 O1695 2.310 . S
Dy1680 O1696 2.351 . S
C1681 O1692 1.185 . S
C1681 O1693 1.355 . S
C1682 O1684 1.185 . S
C1682 O1685 1.355 . S
Dy1683 O1687 2.310 . S
Dy1683 O1690 2.351 . S
Dy1683 O1692 2.398 . S
Dy1683 O1693 2.491 . S
Dy1683 O1694 2.403 . S
Dy1683 O1695 2.664 . S
Dy1683 O1697 2.326 . S
O1684 Dy1680 2.398 . S
O1684 C1682 1.185 . S
O1685 Dy1680 2.491 . S
O1685 C1682 1.355 . S
O1686 Dy1680 2.403 . S
O1686 C1688 1.254 . S
O1687 Dy1680 2.664 . S
O1687 Dy1683 2.310 . S
O1687 C1688 1.268 . S
C1688 O1686 1.254 . S
C1688 O1687 1.268 . S
C1689 O1694 1.254 . S
C1689 O1695 1.268 . S
O1690 Dy1683 2.351 . S
O1690 C1698 1.249 . S
O1691 Dy1680 2.326 . S
O1691 C1698 1.267 . S
O1692 C1681 1.185 . S
O1692 Dy1683 2.398 . S
O1693 C1681 1.355 . S
O1693 Dy1683 2.491 . S
O1694 Dy1683 2.403 . S
O1694 C1689 1.254 . S
O1695 Dy1680 2.310 . S
O1695 Dy1683 2.664 . S
O1695 C1689 1.268 . S
O1696 Dy1680 2.351 . S
O1696 C1699 1.249 . S
O1697 Dy1683 2.326 . S
O1697 C1699 1.267 . S
C1698 O1690 1.249 . S
C1698 O1691 1.267 . S
C1699 O1696 1.249 . S
C1699 O1697 1.267 . S
Dy1700 O1704 2.398 . S
Dy1700 O1705 2.491 . S
Dy1700 O1706 2.403 . S
Dy1700 O1707 2.664 . S
Dy1700 O1711 2.326 . S
Dy1700 O1715 2.310 . S
Dy1700 O1716 2.351 . S
C1701 O1712 1.185 . S
C1701 O1713 1.355 . S
C1702 O1704 1.185 . S
C1702 O1705 1.355 . S
Dy1703 O1707 2.310 . S
Dy1703 O1710 2.351 . S
Dy1703 O1712 2.398 . S
Dy1703 O1713 2.491 . S
Dy1703 O1714 2.403 . S
Dy1703 O1715 2.664 . S
Dy1703 O1717 2.326 . S
O1704 Dy1700 2.398 . S
O1704 C1702 1.185 . S
O1705 Dy1700 2.491 . S
O1705 C1702 1.355 . S
O1706 Dy1700 2.403 . S
O1706 C1708 1.254 . S
O1707 Dy1700 2.664 . S
O1707 Dy1703 2.310 . S
O1707 C1708 1.268 . S
C1708 O1706 1.254 . S
C1708 O1707 1.268 . S
C1709 O1714 1.254 . S
C1709 O1715 1.268 . S
O1710 Dy1703 2.351 . S
O1710 C1718 1.249 . S
O1711 Dy1700 2.326 . S
O1711 C1718 1.267 . S
O1712 C1701 1.185 . S
O1712 Dy1703 2.398 . S
O1713 C1701 1.355 . S
O1713 Dy1703 2.491 . S
O1714 Dy1703 2.403 . S
O1714 C1709 1.254 . S
O1715 Dy1700 2.310 . S
O1715 Dy1703 2.664 . S
O1715 C1709 1.268 . S
O1716 Dy1700 2.351 . S
O1716 C1719 1.249 . S
O1717 Dy1703 2.326 . S
O1717 C1719 1.267 . S
C1718 O1710 1.249 . S
C1718 O1711 1.267 . S
C1719 O1716 1.249 . S
C1719 O1717 1.267 . S
Dy1720 O1724 2.398 . S
Dy1720 O1725 2.491 . S
Dy1720 O1726 2.403 . S
Dy1720 O1727 2.664 . S
Dy1720 O1731 2.326 . S
Dy1720 O1735 2.310 . S
Dy1720 O1736 2.351 . S
C1721 O1732 1.185 . S
C1721 O1733 1.355 . S
C1722 O1724 1.185 . S
C1722 O1725 1.355 . S
Dy1723 O1727 2.310 . S
Dy1723 O1730 2.351 . S
Dy1723 O1732 2.398 . S
Dy1723 O1733 2.491 . S
Dy1723 O1734 2.403 . S
Dy1723 O1735 2.664 . S
Dy1723 O1737 2.326 . S
O1724 Dy1720 2.398 . S
O1724 C1722 1.185 . S
O1725 Dy1720 2.491 . S
O1725 C1722 1.355 . S
O1726 Dy1720 2.403 . S
O1726 C1728 1.254 . S
O1727 Dy1720 2.664 . S
O1727 Dy1723 2.310 . S
O1727 C1728 1.268 . S
C1728 O1726 1.254 . S
C1728 O1727 1.268 . S
C1729 O1734 1.254 . S
C1729 O1735 1.268 . S
O1730 Dy1723 2.351 . S
O1730 C1738 1.249 . S
O1731 Dy1720 2.326 . S
O1731 C1738 1.267 . S
O1732 C1721 1.185 . S
O1732 Dy1723 2.398 . S
O1733 C1721 1.355 . S
O1733 Dy1723 2.491 . S
O1734 Dy1723 2.403 . S
O1734 C1729 1.254 . S
O1735 Dy1720 2.310 . S
O1735 Dy1723 2.664 . S
O1735 C1729 1.268 . S
O1736 Dy1720 2.351 . S
O1736 C1739 1.249 . S
O1737 Dy1723 2.326 . S
O1737 C1739 1.267 . S
C1738 O1730 1.249 . S
C1738 O1731 1.267 . S
C1739 O1736 1.249 . S
C1739 O1737 1.267 . S
Dy1740 O1744 2.398 . S
Dy1740 O1745 2.491 . S
Dy1740 O1746 2.403 . S
Dy1740 O1747 2.664 . S
Dy1740 O1751 2.326 . S
Dy1740 O1755 2.310 . S
Dy1740 O1756 2.351 . S
C1741 O1752 1.185 . S
C1741 O1753 1.355 . S
C1742 O1744 1.185 . S
C1742 O1745 1.355 . S
Dy1743 O1747 2.310 . S
Dy1743 O1750 2.351 . S
Dy1743 O1752 2.398 . S
Dy1743 O1753 2.491 . S
Dy1743 O1754 2.403 . S
Dy1743 O1755 2.664 . S
Dy1743 O1757 2.326 . S
O1744 Dy1740 2.398 . S
O1744 C1742 1.185 . S
O1745 Dy1740 2.491 . S
O1745 C1742 1.355 . S
O1746 Dy1740 2.403 . S
O1746 C1748 1.254 . S
O1747 Dy1740 2.664 . S
O1747 Dy1743 2.310 . S
O1747 C1748 1.268 . S
C1748 O1746 1.254 . S
C1748 O1747 1.268 . S
C1749 O1754 1.254 . S
C1749 O1755 1.268 . S
O1750 Dy1743 2.351 . S
O1750 C1758 1.249 . S
O1751 Dy1740 2.326 . S
O1751 C1758 1.267 . S
O1752 C1741 1.185 . S
O1752 Dy1743 2.398 . S
O1753 C1741 1.355 . S
O1753 Dy1743 2.491 . S
O1754 Dy1743 2.403 . S
O1754 C1749 1.254 . S
O1755 Dy1740 2.310 . S
O1755 Dy1743 2.664 . S
O1755 C1749 1.268 . S
O1756 Dy1740 2.351 . S
O1756 C1759 1.249 . S
O1757 Dy1743 2.326 . S
O1757 C1759 1.267 . S
C1758 O1750 1.249 . S
C1758 O1751 1.267 . S
C1759 O1756 1.249 . S
C1759 O1757 1.267 . S
Dy1760 O1764 2.398 . S
Dy1760 O1765 2.491 . S
Dy1760 O1766 2.403 . S
Dy1760 O1767 2.664 . S
Dy1760 O1771 2.326 . S
Dy1760 O1775 2.310 . S
Dy1760 O1776 2.351 . S
C1761 O1772 1.185 . S
C1761 O1773 1.355 . S
C1762 O1764 1.185 . S
C1762 O1765 1.355 . S
Dy1763 O1767 2.310 . S
Dy1763 O1770 2.351 . S
Dy1763 O1772 2.398 . S
Dy1763 O1773 2.491 . S
Dy1763 O1774 2.403 . S
Dy1763 O1775 2.664 . S
Dy1763 O1777 2.326 . S
O1764 Dy1760 2.398 . S
O1764 C1762 1.185 . S
O1765 Dy1760 2.491 . S
O1765 C1762 1.355 . S
O1766 Dy1760 2.403 . S
O1766 C1768 1.254 . S
O1767 Dy1760 2.664 . S
O1767 Dy1763 2.310 . S
O1767 C1768 1.268 . S
C1768 O1766 1.254 . S
C1768 O1767 1.268 . S
C1769 O1774 1.254 . S
C1769 O1775 1.268 . S
O1770 Dy1763 2.351 . S
O1770 C1778 1.249 . S
O1771 Dy1760 2.326 . S
O1771 C1778 1.267 . S
O1772 C1761 1.185 . S
O1772 Dy1763 2.398 . S
O1773 C1761 1.355 . S
O1773 Dy1763 2.491 . S
O1774 Dy1763 2.403 . S
O1774 C1769 1.254 . S
O1775 Dy1760 2.310 . S
O1775 Dy1763 2.664 . S
O1775 C1769 1.268 . S
O1776 Dy1760 2.351 . S
O1776 C1779 1.249 . S
O1777 Dy1763 2.326 . S
O1777 C1779 1.267 . S
C1778 O1770 1.249 . S
C1778 O1771 1.267 . S
C1779 O1776 1.249 . S
C1779 O1777 1.267 . S
Dy1780 O1784 2.398 . S
Dy1780 O1785 2.491 . S
Dy1780 O1786 2.403 . S
Dy1780 O1787 2.664 . S
Dy1780 O1791 2.326 . S
Dy1780 O1795 2.310 . S
Dy1780 O1796 2.351 . S
C1781 O1792 1.185 . S
C1781 O1793 1.355 . S
C1782 O1784 1.185 . S
C1782 O1785 1.355 . S
Dy1783 O1787 2.310 . S
Dy1783 O1790 2.351 . S
Dy1783 O1792 2.398 . S
Dy1783 O1793 2.491 . S
Dy1783 O1794 2.403 . S
Dy1783 O1795 2.664 . S
Dy1783 O1797 2.326 . S
O1784 Dy1780 2.398 . S
O1784 C1782 1.185 . S
O1785 Dy1780 2.491 . S
O1785 C1782 1.355 . S
O1786 Dy1780 2.403 . S
O1786 C1788 1.254 . S
O1787 Dy1780 2.664 . S
O1787 Dy1783 2.310 . S
O1787 C1788 1.268 . S
C1788 O1786 1.254 . S
C1788 O1787 1.268 . S
C1789 O1794 1.254 . S
C1789 O1795 1.268 . S
O1790 Dy1783 2.351 . S
O1790 C1798 1.249 . S
O1791 Dy1780 2.326 . S
O1791 C1798 1.267 . S
O1792 C1781 1.185 . S
O1792 Dy1783 2.398 . S
O1793 C1781 1.355 . S
O1793 Dy1783 2.491 . S
O1794 Dy1783 2.403 . S
O1794 C1789 1.254 . S
O1795 Dy1780 2.310 . S
O1795 Dy1783 2.664 . S
O1795 C1789 1.268 . S
O1796 Dy1780 2.351 . S
O1796 C1799 1.249 . S
O1797 Dy1783 2.326 . S
O1797 C1799 1.267 . S
C1798 O1790 1.249 . S
C1798 O1791 1.267 . S
C1799 O1796 1.249 . S
C1799 O1797 1.267 . S
Dy1800 O1804 2.398 . S
Dy1800 O1805 2.491 . S
Dy1800 O1806 2.403 . S
Dy1800 O1807 2.664 . S
Dy1800 O1811 2.326 . S
Dy1800 O1815 2.310 . S
Dy1800 O1816 2.351 . S
C1801 O1812 1.185 . S
C1801 O1813 1.355 . S
C1802 O1804 1.185 . S
C1802 O1805 1.355 . S
Dy1803 O1807 2.310 . S
Dy1803 O1810 2.351 . S
Dy1803 O1812 2.398 . S
Dy1803 O1813 2.491 . S
Dy1803 O1814 2.403 . S
Dy1803 O1815 2.664 . S
Dy1803 O1817 2.326 . S
O1804 Dy1800 2.398 . S
O1804 C1802 1.185 . S
O1805 Dy1800 2.491 . S
O1805 C1802 1.355 . S
O1806 Dy1800 2.403 . S
O1806 C1808 1.254 . S
O1807 Dy1800 2.664 . S
O1807 Dy1803 2.310 . S
O1807 C1808 1.268 . S
C1808 O1806 1.254 . S
C1808 O1807 1.268 . S
C1809 O1814 1.254 . S
C1809 O1815 1.268 . S
O1810 Dy1803 2.351 . S
O1810 C1818 1.249 . S
O1811 Dy1800 2.326 . S
O1811 C1818 1.267 . S
O1812 C1801 1.185 . S
O1812 Dy1803 2.398 . S
O1813 C1801 1.355 . S
O1813 Dy1803 2.491 . S
O1814 Dy1803 2.403 . S
O1814 C1809 1.254 . S
O1815 Dy1800 2.310 . S
O1815 Dy1803 2.664 . S
O1815 C1809 1.268 . S
O1816 Dy1800 2.351 . S
O1816 C1819 1.249 . S
O1817 Dy1803 2.326 . S
O1817 C1819 1.267 . S
C1818 O1810 1.249 . S
C1818 O1811 1.267 . S
C1819 O1816 1.249 . S
C1819 O1817 1.267 . S
Dy1820 O1824 2.398 . S
Dy1820 O1825 2.491 . S
Dy1820 O1826 2.403 1_556 S
Dy1820 O1827 2.664 1_556 S
Dy1820 O1831 2.326 . S
Dy1820 O1835 2.310 . S
Dy1820 O1836 2.351 1_556 S
C1821 O1832 1.185 . S
C1821 O1833 1.355 . S
C1822 O1824 1.185 . S
C1822 O1825 1.355 . S
Dy1823 O1827 2.310 . S
Dy1823 O1830 2.351 . S
Dy1823 O1832 2.398 . S
Dy1823 O1833 2.491 . S
Dy1823 O1834 2.403 . S
Dy1823 O1835 2.664 1_554 S
Dy1823 O1837 2.326 . S
O1824 Dy1820 2.398 . S
O1824 C1822 1.185 . S
O1825 Dy1820 2.491 . S
O1825 C1822 1.355 . S
O1826 Dy1820 2.403 1_554 S
O1826 C1828 1.254 . S
O1827 Dy1820 2.664 1_554 S
O1827 Dy1823 2.310 . S
O1827 C1828 1.268 . S
C1828 O1826 1.254 . S
C1828 O1827 1.268 . S
C1829 O1834 1.254 1_556 S
C1829 O1835 1.268 . S
O1830 Dy1823 2.351 . S
O1830 C1838 1.249 1_554 S
O1831 Dy1820 2.326 . S
O1831 C1838 1.267 . S
O1832 C1821 1.185 . S
O1832 Dy1823 2.398 . S
O1833 C1821 1.355 . S
O1833 Dy1823 2.491 . S
O1834 Dy1823 2.403 . S
O1834 C1829 1.254 1_554 S
O1835 Dy1820 2.310 . S
O1835 Dy1823 2.664 1_556 S
O1835 C1829 1.268 . S
O1836 Dy1820 2.351 1_554 S
O1836 C1839 1.249 . S
O1837 Dy1823 2.326 . S
O1837 C1839 1.267 . S
C1838 O1830 1.249 1_556 S
C1838 O1831 1.267 . S
C1839 O1836 1.249 . S
C1839 O1837 1.267 . S
Dy1840 O1844 2.398 . S
Dy1840 O1845 2.491 . S
Dy1840 O1846 2.403 . S
Dy1840 O1847 2.664 . S
Dy1840 O1851 2.326 . S
Dy1840 O1855 2.310 . S
Dy1840 O1856 2.351 . S
C1841 O1852 1.185 . S
C1841 O1853 1.355 . S
C1842 O1844 1.185 . S
C1842 O1845 1.355 . S
Dy1843 O1847 2.310 . S
Dy1843 O1850 2.351 . S
Dy1843 O1852 2.398 . S
Dy1843 O1853 2.491 . S
Dy1843 O1854 2.403 . S
Dy1843 O1855 2.664 . S
Dy1843 O1857 2.326 . S
O1844 Dy1840 2.398 . S
O1844 C1842 1.185 . S
O1845 Dy1840 2.491 . S
O1845 C1842 1.355 . S
O1846 Dy1840 2.403 . S
O1846 C1848 1.254 . S
O1847 Dy1840 2.664 . S
O1847 Dy1843 2.310 . S
O1847 C1848 1.268 . S
C1848 O1846 1.254 . S
C1848 O1847 1.268 . S
C1849 O1854 1.254 . S
C1849 O1855 1.268 . S
O1850 Dy1843 2.351 . S
O1850 C1858 1.249 . S
O1851 Dy1840 2.326 . S
O1851 C1858 1.267 . S
O1852 C1841 1.185 . S
O1852 Dy1843 2.398 . S
O1853 C1841 1.355 . S
O1853 Dy1843 2.491 . S
O1854 Dy1843 2.403 . S
O1854 C1849 1.254 . S
O1855 Dy1840 2.310 . S
O1855 Dy1843 2.664 . S
O1855 C1849 1.268 . S
O1856 Dy1840 2.351 . S
O1856 C1859 1.249 . S
O1857 Dy1843 2.326 . S
O1857 C1859 1.267 . S
C1858 O1850 1.249 . S
C1858 O1851 1.267 . S
C1859 O1856 1.249 . S
C1859 O1857 1.267 . S
Dy1860 O1864 2.398 . S
Dy1860 O1865 2.491 . S
Dy1860 O1866 2.403 1_554 S
Dy1860 O1867 2.664 1_554 S
Dy1860 O1871 2.326 . S
Dy1860 O1875 2.311 . S
Dy1860 O1876 2.351 1_554 S
C1861 O1872 1.185 . S
C1861 O1873 1.355 . S
C1862 O1864 1.185 . S
C1862 O1865 1.355 . S
Dy1863 O1867 2.310 . S
Dy1863 O1870 2.351 . S
Dy1863 O1872 2.398 . S
Dy1863 O1873 2.491 . S
Dy1863 O1874 2.403 . S
Dy1863 O1875 2.653 1_556 S
Dy1863 O1877 2.326 . S
O1864 Dy1860 2.398 . S
O1864 C1862 1.185 . S
O1865 Dy1860 2.491 . S
O1865 C1862 1.355 . S
O1866 Dy1860 2.403 1_556 S
O1866 C1868 1.254 . S
O1867 Dy1860 2.664 1_556 S
O1867 Dy1863 2.310 . S
O1867 C1868 1.268 . S
C1868 O1866 1.254 . S
C1868 O1867 1.268 . S
C1869 O1874 1.286 . S
C1869 O1875 1.267 1_556 S
O1870 Dy1863 2.351 . S
O1870 C1878 1.249 1_556 S
O1871 Dy1860 2.326 . S
O1871 C1878 1.267 . S
O1872 C1861 1.185 . S
O1872 Dy1863 2.398 . S
O1873 C1861 1.355 . S
O1873 Dy1863 2.491 . S
O1874 Dy1863 2.403 . S
O1874 C1869 1.286 . S
O1875 Dy1860 2.311 . S
O1875 Dy1863 2.653 1_554 S
O1875 C1869 1.267 1_554 S
O1876 Dy1860 2.351 1_556 S
O1876 C1879 1.249 . S
O1877 Dy1863 2.326 . S
O1877 C1879 1.267 . S
C1878 O1870 1.249 1_554 S
C1878 O1871 1.267 . S
C1879 O1876 1.249 . S
C1879 O1877 1.267 . S
Dy1880 O1884 2.398 . S
Dy1880 O1885 2.491 . S
Dy1880 O1886 2.403 . S
Dy1880 O1887 2.664 . S
Dy1880 O1891 2.326 . S
Dy1880 O1895 2.310 . S
Dy1880 O1896 2.351 . S
C1881 O1892 1.185 . S
C1881 O1893 1.355 . S
C1882 O1884 1.185 . S
C1882 O1885 1.355 . S
Dy1883 O1887 2.310 . S
Dy1883 O1890 2.351 . S
Dy1883 O1892 2.398 . S
Dy1883 O1893 2.491 . S
Dy1883 O1894 2.403 . S
Dy1883 O1895 2.664 . S
Dy1883 O1897 2.326 . S
O1884 Dy1880 2.398 . S
O1884 C1882 1.185 . S
O1885 Dy1880 2.491 . S
O1885 C1882 1.355 . S
O1886 Dy1880 2.403 . S
O1886 C1888 1.254 . S
O1887 Dy1880 2.664 . S
O1887 Dy1883 2.310 . S
O1887 C1888 1.268 . S
C1888 O1886 1.254 . S
C1888 O1887 1.268 . S
C1889 O1894 1.254 . S
C1889 O1895 1.268 . S
O1890 Dy1883 2.351 . S
O1890 C1898 1.249 . S
O1891 Dy1880 2.326 . S
O1891 C1898 1.267 . S
O1892 C1881 1.185 . S
O1892 Dy1883 2.398 . S
O1893 C1881 1.355 . S
O1893 Dy1883 2.491 . S
O1894 Dy1883 2.403 . S
O1894 C1889 1.254 . S
O1895 Dy1880 2.310 . S
O1895 Dy1883 2.664 . S
O1895 C1889 1.268 . S
O1896 Dy1880 2.351 . S
O1896 C1899 1.249 . S
O1897 Dy1883 2.326 . S
O1897 C1899 1.267 . S
C1898 O1890 1.249 . S
C1898 O1891 1.267 . S
C1899 O1896 1.249 . S
C1899 O1897 1.267 . S
Dy1900 O1904 2.398 . S
Dy1900 O1905 2.491 . S
Dy1900 O1906 2.403 . S
Dy1900 O1907 2.664 . S
Dy1900 O1911 2.326 . S
Dy1900 O1915 2.310 . S
Dy1900 O1916 2.351 . S
C1901 O1912 1.185 . S
C1901 O1913 1.355 . S
C1902 O1904 1.185 . S
C1902 O1905 1.355 . S
Dy1903 O1907 2.310 . S
Dy1903 O1910 2.351 . S
Dy1903 O1912 2.398 . S
Dy1903 O1913 2.491 . S
Dy1903 O1914 2.403 . S
Dy1903 O1915 2.664 . S
Dy1903 O1917 2.326 . S
O1904 Dy1900 2.398 . S
O1904 C1902 1.185 . S
O1905 Dy1900 2.491 . S
O1905 C1902 1.355 . S
O1906 Dy1900 2.403 . S
O1906 C1908 1.254 . S
O1907 Dy1900 2.664 . S
O1907 Dy1903 2.310 . S
O1907 C1908 1.268 . S
C1908 O1906 1.254 . S
C1908 O1907 1.268 . S
C1909 O1914 1.254 . S
C1909 O1915 1.268 . S
O1910 Dy1903 2.351 . S
O1910 C1918 1.249 . S
O1911 Dy1900 2.326 . S
O1911 C1918 1.267 . S
O1912 C1901 1.185 . S
O1912 Dy1903 2.398 . S
O1913 C1901 1.355 . S
O1913 Dy1903 2.491 . S
O1914 Dy1903 2.403 . S
O1914 C1909 1.254 . S
O1915 Dy1900 2.310 . S
O1915 Dy1903 2.664 . S
O1915 C1909 1.268 . S
O1916 Dy1900 2.351 . S
O1916 C1919 1.249 . S
O1917 Dy1903 2.326 . S
O1917 C1919 1.267 . S
C1918 O1910 1.249 . S
C1918 O1911 1.267 . S
C1919 O1916 1.249 . S
C1919 O1917 1.267 . S
C1920 C1921 1.369 . S
C1920 C1922 1.419 . S
C1920 H1924 0.930 . S
C1921 C1920 1.369 . S
C1921 C1930 1.429 . S
C1922 C1920 1.419 . S
C1922 C1923 1.363 . S
C1922 H1925 0.929 . S
C1923 C1922 1.363 . S
C1923 C1929 1.428 . S
H1924 C1920 0.930 . S
H1925 C1922 0.929 . S
S1926 N1927 1.613 . S
S1926 N1928 1.610 . S
N1927 S1926 1.613 . S
N1927 C1930 1.350 . S
N1928 S1926 1.610 . S
N1928 C1929 1.351 . S
C1929 C1923 1.428 . S
C1929 N1928 1.351 . S
C1929 C1930 1.434 . S
C1930 C1921 1.429 . S
C1930 N1927 1.350 . S
C1930 C1929 1.434 . S
C1931 C1932 1.369 . S
C1931 C1933 1.419 . S
C1931 H1935 0.930 . S
C1932 C1931 1.369 . S
C1932 C1941 1.429 . S
C1933 C1931 1.419 . S
C1933 C1934 1.363 . S
C1933 H1936 0.929 . S
C1934 C1933 1.363 . S
C1934 C1940 1.428 . S
H1935 C1931 0.930 . S
H1936 C1933 0.929 . S
S1937 N1938 1.613 . S
S1937 N1939 1.610 . S
N1938 S1937 1.613 . S
N1938 C1941 1.350 . S
N1939 S1937 1.610 . S
N1939 C1940 1.351 . S
C1940 C1934 1.428 . S
C1940 N1939 1.351 . S
C1940 C1941 1.434 . S
C1941 C1932 1.429 . S
C1941 N1938 1.350 . S
C1941 C1940 1.434 . S
C1942 C1943 1.369 . S
C1942 C1944 1.419 . S
C1942 H1946 0.930 . S
C1943 C1942 1.369 . S
C1943 C1952 1.429 . S
C1944 C1942 1.419 . S
C1944 C1945 1.363 . S
C1944 H1947 0.929 . S
C1945 C1944 1.363 . S
C1945 C1951 1.428 . S
H1946 C1942 0.930 . S
H1947 C1944 0.929 . S
S1948 N1949 1.613 . S
S1948 N1950 1.610 . S
N1949 S1948 1.613 . S
N1949 C1952 1.350 . S
N1950 S1948 1.610 . S
N1950 C1951 1.351 . S
C1951 C1945 1.428 . S
C1951 N1950 1.351 . S
C1951 C1952 1.434 . S
C1952 C1943 1.429 . S
C1952 N1949 1.350 . S
C1952 C1951 1.434 . S
C1953 C1954 1.369 . S
C1953 C1955 1.419 . S
C1953 H1957 0.930 . S
C1954 C1953 1.369 . S
C1954 C1963 1.429 . S
C1955 C1953 1.419 . S
C1955 C1956 1.363 . S
C1955 H1958 0.929 . S
C1956 C1955 1.363 . S
C1956 C1962 1.428 . S
H1957 C1953 0.930 . S
H1958 C1955 0.929 . S
S1959 N1960 1.613 . S
S1959 N1961 1.610 . S
N1960 S1959 1.613 . S
N1960 C1963 1.350 . S
N1961 S1959 1.610 . S
N1961 C1962 1.351 . S
C1962 C1956 1.428 . S
C1962 N1961 1.351 . S
C1962 C1963 1.434 . S
C1963 C1954 1.429 . S
C1963 N1960 1.350 . S
C1963 C1962 1.434 . S
C1964 C1965 1.369 . S
C1964 C1966 1.419 . S
C1964 H1968 0.930 . S
C1965 C1964 1.369 . S
C1965 C1974 1.429 . S
C1966 C1964 1.419 . S
C1966 C1967 1.363 . S
C1966 H1969 0.929 . S
C1967 C1966 1.363 . S
C1967 C1973 1.428 . S
H1968 C1964 0.930 . S
H1969 C1966 0.929 . S
S1970 N1971 1.613 . S
S1970 N1972 1.610 . S
N1971 S1970 1.613 . S
N1971 C1974 1.350 . S
N1972 S1970 1.610 . S
N1972 C1973 1.351 . S
C1973 C1967 1.428 . S
C1973 N1972 1.351 . S
C1973 C1974 1.434 . S
C1974 C1965 1.429 . S
C1974 N1971 1.350 . S
C1974 C1973 1.434 . S
C1975 C1976 1.369 . S
C1975 C1977 1.419 . S
C1975 H1979 0.930 . S
C1976 C1975 1.369 . S
C1976 C1985 1.429 . S
C1977 C1975 1.419 . S
C1977 C1978 1.363 . S
C1977 H1980 0.929 . S
C1978 C1977 1.363 . S
C1978 C1984 1.428 . S
H1979 C1975 0.930 . S
H1980 C1977 0.929 . S
S1981 N1982 1.613 . S
S1981 N1983 1.610 . S
N1982 S1981 1.613 . S
N1982 C1985 1.350 . S
N1983 S1981 1.610 . S
N1983 C1984 1.351 . S
C1984 C1978 1.428 . S
C1984 N1983 1.351 . S
C1984 C1985 1.434 . S
C1985 C1976 1.429 . S
C1985 N1982 1.350 . S
C1985 C1984 1.434 . S
C1986 C1987 1.369 . S
C1986 C1988 1.419 . S
C1986 H1990 0.930 . S
C1987 C1986 1.369 . S
C1987 C1996 1.429 . S
C1988 C1986 1.419 . S
C1988 C1989 1.363 . S
C1988 H1991 0.929 . S
C1989 C1988 1.363 . S
C1989 C1995 1.428 . S
H1990 C1986 0.930 . S
H1991 C1988 0.929 . S
S1992 N1993 1.613 . S
S1992 N1994 1.610 . S
N1993 S1992 1.613 . S
N1993 C1996 1.350 . S
N1994 S1992 1.610 . S
N1994 C1995 1.351 . S
C1995 C1989 1.428 . S
C1995 N1994 1.351 . S
C1995 C1996 1.434 . S
C1996 C1987 1.429 . S
C1996 N1993 1.350 . S
C1996 C1995 1.434 . S
C1997 C1998 1.369 . S
C1997 C1999 1.419 . S
C1997 H2001 0.930 . S
C1998 C1997 1.369 . S
C1998 C2007 1.429 . S
C1999 C1997 1.419 . S
C1999 C2000 1.363 . S
C1999 H2002 0.929 . S
C2000 C1999 1.363 . S
C2000 C2006 1.428 . S
H2001 C1997 0.930 . S
H2002 C1999 0.929 . S
S2003 N2004 1.613 . S
S2003 N2005 1.610 . S
N2004 S2003 1.613 . S
N2004 C2007 1.350 . S
N2005 S2003 1.610 . S
N2005 C2006 1.351 . S
C2006 C2000 1.428 . S
C2006 N2005 1.351 . S
C2006 C2007 1.434 . S
C2007 C1998 1.429 . S
C2007 N2004 1.350 . S
C2007 C2006 1.434 . S
C2008 C2009 1.369 . S
C2008 C2010 1.419 . S
C2008 H2012 0.930 . S
C2009 C2008 1.369 . S
C2009 C2018 1.429 . S
C2010 C2008 1.419 . S
C2010 C2011 1.363 . S
C2010 H2013 0.929 . S
C2011 C2010 1.363 . S
C2011 C2017 1.428 . S
H2012 C2008 0.930 . S
H2013 C2010 0.929 . S
S2014 N2015 1.613 . S
S2014 N2016 1.610 . S
N2015 S2014 1.613 . S
N2015 C2018 1.350 . S
N2016 S2014 1.610 . S
N2016 C2017 1.351 . S
C2017 C2011 1.428 . S
C2017 N2016 1.351 . S
C2017 C2018 1.434 . S
C2018 C2009 1.429 . S
C2018 N2015 1.350 . S
C2018 C2017 1.434 . S
C2019 C2020 1.369 . S
C2019 C2021 1.419 . S
C2019 H2023 0.930 . S
C2020 C2019 1.369 . S
C2020 C2029 1.429 . S
C2021 C2019 1.419 . S
C2021 C2022 1.363 . S
C2021 H2024 0.929 . S
C2022 C2021 1.363 . S
C2022 C2028 1.428 . S
H2023 C2019 0.930 . S
H2024 C2021 0.929 . S
S2025 N2026 1.613 . S
S2025 N2027 1.610 . S
N2026 S2025 1.613 . S
N2026 C2029 1.350 . S
N2027 S2025 1.610 . S
N2027 C2028 1.351 . S
C2028 C2022 1.428 . S
C2028 N2027 1.351 . S
C2028 C2029 1.434 . S
C2029 C2020 1.429 . S
C2029 N2026 1.350 . S
C2029 C2028 1.434 . S
C2030 C2031 1.369 . S
C2030 C2032 1.419 . S
C2030 H2034 0.930 . S
C2031 C2030 1.369 . S
C2031 C2040 1.429 . S
C2032 C2030 1.419 . S
C2032 C2033 1.363 . S
C2032 H2035 0.929 . S
C2033 C2032 1.363 . S
C2033 C2039 1.428 . S
H2034 C2030 0.930 . S
H2035 C2032 0.929 . S
S2036 N2037 1.613 . S
S2036 N2038 1.610 . S
N2037 S2036 1.613 . S
N2037 C2040 1.350 . S
N2038 S2036 1.610 . S
N2038 C2039 1.351 . S
C2039 C2033 1.428 . S
C2039 N2038 1.351 . S
C2039 C2040 1.434 . S
C2040 C2031 1.429 . S
C2040 N2037 1.350 . S
C2040 C2039 1.434 . S
C2041 C2042 1.369 . S
C2041 C2043 1.419 . S
C2041 H2045 0.930 . S
C2042 C2041 1.369 . S
C2042 C2051 1.429 . S
C2043 C2041 1.419 . S
C2043 C2044 1.363 . S
C2043 H2046 0.929 . S
C2044 C2043 1.363 . S
C2044 C2050 1.428 . S
H2045 C2041 0.930 . S
H2046 C2043 0.929 . S
S2047 N2048 1.613 . S
S2047 N2049 1.610 . S
N2048 S2047 1.613 . S
N2048 C2051 1.350 . S
N2049 S2047 1.610 . S
N2049 C2050 1.351 . S
C2050 C2044 1.428 . S
C2050 N2049 1.351 . S
C2050 C2051 1.434 . S
C2051 C2042 1.429 . S
C2051 N2048 1.350 . S
C2051 C2050 1.434 . S
C2052 C2053 1.369 . S
C2052 C2054 1.419 . S
C2052 H2056 0.930 . S
C2053 C2052 1.369 . S
C2053 C2062 1.429 . S
C2054 C2052 1.419 . S
C2054 C2055 1.363 . S
C2054 H2057 0.929 . S
C2055 C2054 1.363 . S
C2055 C2061 1.428 . S
H2056 C2052 0.930 . S
H2057 C2054 0.929 . S
S2058 N2059 1.613 . S
S2058 N2060 1.610 . S
N2059 S2058 1.613 . S
N2059 C2062 1.350 . S
N2060 S2058 1.610 . S
N2060 C2061 1.351 . S
C2061 C2055 1.428 . S
C2061 N2060 1.351 . S
C2061 C2062 1.434 . S
C2062 C2053 1.429 . S
C2062 N2059 1.350 . S
C2062 C2061 1.434 . S
C2063 C2064 1.369 . S
C2063 C2065 1.419 . S
C2063 H2067 0.930 . S
C2064 C2063 1.369 . S
C2064 C2073 1.429 . S
C2065 C2063 1.419 . S
C2065 C2066 1.363 . S
C2065 H2068 0.929 . S
C2066 C2065 1.363 . S
C2066 C2072 1.428 . S
H2067 C2063 0.930 . S
H2068 C2065 0.929 . S
S2069 N2070 1.613 . S
S2069 N2071 1.610 . S
N2070 S2069 1.613 . S
N2070 C2073 1.350 . S
N2071 S2069 1.610 . S
N2071 C2072 1.351 . S
C2072 C2066 1.428 . S
C2072 N2071 1.351 . S
C2072 C2073 1.434 . S
C2073 C2064 1.429 . S
C2073 N2070 1.350 . S
C2073 C2072 1.434 . S
C2074 C2075 1.369 . S
C2074 C2076 1.419 . S
C2074 H2078 0.930 . S
C2075 C2074 1.369 . S
C2075 C2084 1.429 . S
C2076 C2074 1.419 . S
C2076 C2077 1.363 . S
C2076 H2079 0.929 . S
C2077 C2076 1.363 . S
C2077 C2083 1.428 . S
H2078 C2074 0.930 . S
H2079 C2076 0.929 . S
S2080 N2081 1.613 . S
S2080 N2082 1.610 . S
N2081 S2080 1.613 . S
N2081 C2084 1.350 . S
N2082 S2080 1.610 . S
N2082 C2083 1.351 . S
C2083 C2077 1.428 . S
C2083 N2082 1.351 . S
C2083 C2084 1.434 . S
C2084 C2075 1.429 . S
C2084 N2081 1.350 . S
C2084 C2083 1.434 . S
C2085 C2086 1.369 . S
C2085 C2087 1.419 . S
C2085 H2089 0.930 . S
C2086 C2085 1.369 . S
C2086 C2095 1.429 . S
C2087 C2085 1.419 . S
C2087 C2088 1.363 . S
C2087 H2090 0.929 . S
C2088 C2087 1.363 . S
C2088 C2094 1.428 . S
H2089 C2085 0.930 . S
H2090 C2087 0.929 . S
S2091 N2092 1.613 . S
S2091 N2093 1.610 . S
N2092 S2091 1.613 . S
N2092 C2095 1.350 . S
N2093 S2091 1.610 . S
N2093 C2094 1.351 . S
C2094 C2088 1.428 . S
C2094 N2093 1.351 . S
C2094 C2095 1.434 . S
C2095 C2086 1.429 . S
C2095 N2092 1.350 . S
C2095 C2094 1.434 . S
C2096 C2097 1.369 . S
C2096 C2098 1.419 . S
C2096 H2100 0.930 . S
C2097 C2096 1.369 . S
C2097 C2106 1.429 . S
C2098 C2096 1.419 . S
C2098 C2099 1.363 . S
C2098 H2101 0.929 . S
C2099 C2098 1.363 . S
C2099 C2105 1.428 . S
H2100 C2096 0.930 . S
H2101 C2098 0.929 . S
S2102 N2103 1.613 . S
S2102 N2104 1.610 . S
N2103 S2102 1.613 . S
N2103 C2106 1.350 . S
N2104 S2102 1.610 . S
N2104 C2105 1.351 . S
C2105 C2099 1.428 . S
C2105 N2104 1.351 . S
C2105 C2106 1.434 . S
C2106 C2097 1.429 . S
C2106 N2103 1.350 . S
C2106 C2105 1.434 . S
C2107 C2108 1.369 . S
C2107 C2109 1.419 . S
C2107 H2111 0.930 . S
C2108 C2107 1.369 . S
C2108 C2117 1.429 . S
C2109 C2107 1.419 . S
C2109 C2110 1.363 . S
C2109 H2112 0.929 . S
C2110 C2109 1.363 . S
C2110 C2116 1.428 . S
H2111 C2107 0.930 . S
H2112 C2109 0.929 . S
S2113 N2114 1.613 . S
S2113 N2115 1.610 . S
N2114 S2113 1.613 . S
N2114 C2117 1.350 . S
N2115 S2113 1.610 . S
N2115 C2116 1.351 . S
C2116 C2110 1.428 . S
C2116 N2115 1.351 . S
C2116 C2117 1.434 . S
C2117 C2108 1.429 . S
C2117 N2114 1.350 . S
C2117 C2116 1.434 . S
C2118 C2119 1.369 . S
C2118 C2120 1.419 . S
C2118 H2122 0.930 . S
C2119 C2118 1.369 . S
C2119 C2128 1.429 . S
C2120 C2118 1.419 . S
C2120 C2121 1.363 . S
C2120 H2123 0.929 . S
C2121 C2120 1.363 . S
C2121 C2127 1.428 . S
H2122 C2118 0.930 . S
H2123 C2120 0.929 . S
S2124 N2125 1.613 . S
S2124 N2126 1.610 . S
N2125 S2124 1.613 . S
N2125 C2128 1.350 . S
N2126 S2124 1.610 . S
N2126 C2127 1.351 . S
C2127 C2121 1.428 . S
C2127 N2126 1.351 . S
C2127 C2128 1.434 . S
C2128 C2119 1.429 . S
C2128 N2125 1.350 . S
C2128 C2127 1.434 . S
C2129 C2130 1.369 . S
C2129 C2131 1.419 . S
C2129 H2133 0.930 . S
C2130 C2129 1.369 . S
C2130 C2139 1.429 . S
C2131 C2129 1.419 . S
C2131 C2132 1.363 . S
C2131 H2134 0.929 . S
C2132 C2131 1.363 . S
C2132 C2138 1.428 . S
H2133 C2129 0.930 . S
H2134 C2131 0.929 . S
S2135 N2136 1.613 . S
S2135 N2137 1.610 . S
N2136 S2135 1.613 . S
N2136 C2139 1.350 . S
N2137 S2135 1.610 . S
N2137 C2138 1.351 . S
C2138 C2132 1.428 . S
C2138 N2137 1.351 . S
C2138 C2139 1.434 . S
C2139 C2130 1.429 . S
C2139 N2136 1.350 . S
C2139 C2138 1.434 . S
C2140 C2141 1.369 . S
C2140 C2142 1.419 . S
C2140 H2144 0.930 . S
C2141 C2140 1.369 . S
C2141 C2150 1.429 . S
C2142 C2140 1.419 . S
C2142 C2143 1.363 . S
C2142 H2145 0.929 . S
C2143 C2142 1.363 . S
C2143 C2149 1.428 . S
H2144 C2140 0.930 . S
H2145 C2142 0.929 . S
S2146 N2147 1.613 . S
S2146 N2148 1.610 . S
N2147 S2146 1.613 . S
N2147 C2150 1.350 . S
N2148 S2146 1.610 . S
N2148 C2149 1.351 . S
C2149 C2143 1.428 . S
C2149 N2148 1.351 . S
C2149 C2150 1.434 . S
C2150 C2141 1.429 . S
C2150 N2147 1.350 . S
C2150 C2149 1.434 . S
C2151 C2152 1.369 . S
C2151 C2153 1.419 . S
C2151 H2155 0.930 . S
C2152 C2151 1.369 . S
C2152 C2161 1.429 . S
C2153 C2151 1.419 . S
C2153 C2154 1.363 . S
C2153 H2156 0.929 . S
C2154 C2153 1.363 . S
C2154 C2160 1.428 . S
H2155 C2151 0.930 . S
H2156 C2153 0.929 . S
S2157 N2158 1.613 . S
S2157 N2159 1.610 . S
N2158 S2157 1.613 . S
N2158 C2161 1.350 . S
N2159 S2157 1.610 . S
N2159 C2160 1.351 . S
C2160 C2154 1.428 . S
C2160 N2159 1.351 . S
C2160 C2161 1.434 . S
C2161 C2152 1.429 . S
C2161 N2158 1.350 . S
C2161 C2160 1.434 . S
C2162 C2163 1.369 . S
C2162 C2164 1.419 . S
C2162 H2166 0.930 . S
C2163 C2162 1.369 . S
C2163 C2172 1.429 . S
C2164 C2162 1.419 . S
C2164 C2165 1.363 . S
C2164 H2167 0.929 . S
C2165 C2164 1.363 . S
C2165 C2171 1.428 . S
H2166 C2162 0.930 . S
H2167 C2164 0.929 . S
S2168 N2169 1.613 . S
S2168 N2170 1.610 . S
N2169 S2168 1.613 . S
N2169 C2172 1.350 . S
N2170 S2168 1.610 . S
N2170 C2171 1.351 . S
C2171 C2165 1.428 . S
C2171 N2170 1.351 . S
C2171 C2172 1.434 . S
C2172 C2163 1.429 . S
C2172 N2169 1.350 . S
C2172 C2171 1.434 . S
C2173 C2174 1.369 . S
C2173 C2175 1.419 . S
C2173 H2177 0.930 . S
C2174 C2173 1.369 . S
C2174 C2183 1.429 . S
C2175 C2173 1.419 . S
C2175 C2176 1.363 . S
C2175 H2178 0.929 . S
C2176 C2175 1.363 . S
C2176 C2182 1.428 . S
H2177 C2173 0.930 . S
H2178 C2175 0.929 . S
S2179 N2180 1.613 . S
S2179 N2181 1.610 . S
N2180 S2179 1.613 . S
N2180 C2183 1.350 . S
N2181 S2179 1.610 . S
N2181 C2182 1.351 . S
C2182 C2176 1.428 . S
C2182 N2181 1.351 . S
C2182 C2183 1.434 . S
C2183 C2174 1.429 . S
C2183 N2180 1.350 . S
C2183 C2182 1.434 . S
C2184 C2185 1.369 . S
C2184 C2186 1.419 . S
C2184 H2188 0.930 . S
C2185 C2184 1.369 . S
C2185 C2194 1.429 . S
C2186 C2184 1.419 . S
C2186 C2187 1.363 . S
C2186 H2189 0.929 . S
C2187 C2186 1.363 . S
C2187 C2193 1.428 . S
H2188 C2184 0.930 . S
H2189 C2186 0.929 . S
S2190 N2191 1.613 . S
S2190 N2192 1.610 . S
N2191 S2190 1.613 . S
N2191 C2194 1.350 . S
N2192 S2190 1.610 . S
N2192 C2193 1.351 . S
C2193 C2187 1.428 . S
C2193 N2192 1.351 . S
C2193 C2194 1.434 . S
C2194 C2185 1.429 . S
C2194 N2191 1.350 . S
C2194 C2193 1.434 . S
C2195 C2196 1.369 . S
C2195 C2197 1.419 . S
C2195 H2199 0.930 . S
C2196 C2195 1.369 . S
C2196 C2205 1.429 . S
C2197 C2195 1.419 . S
C2197 C2198 1.363 . S
C2197 H2200 0.929 . S
C2198 C2197 1.363 . S
C2198 C2204 1.428 . S
H2199 C2195 0.930 . S
H2200 C2197 0.929 . S
S2201 N2202 1.613 . S
S2201 N2203 1.610 . S
N2202 S2201 1.613 . S
N2202 C2205 1.350 . S
N2203 S2201 1.610 . S
N2203 C2204 1.351 . S
C2204 C2198 1.428 . S
C2204 N2203 1.351 . S
C2204 C2205 1.434 . S
C2205 C2196 1.429 . S
C2205 N2202 1.350 . S
C2205 C2204 1.434 . S
C2206 C2207 1.369 . S
C2206 C2208 1.419 . S
C2206 H2210 0.930 . S
C2207 C2206 1.369 . S
C2207 C2216 1.429 . S
C2208 C2206 1.419 . S
C2208 C2209 1.363 . S
C2208 H2211 0.929 . S
C2209 C2208 1.363 . S
C2209 C2215 1.428 . S
H2210 C2206 0.930 . S
H2211 C2208 0.929 . S
S2212 N2213 1.613 . S
S2212 N2214 1.610 . S
N2213 S2212 1.613 . S
N2213 C2216 1.350 . S
N2214 S2212 1.610 . S
N2214 C2215 1.351 . S
C2215 C2209 1.428 . S
C2215 N2214 1.351 . S
C2215 C2216 1.434 . S
C2216 C2207 1.429 . S
C2216 N2213 1.350 . S
C2216 C2215 1.434 . S
C2217 C2218 1.369 . S
C2217 C2219 1.419 . S
C2217 H2221 0.930 . S
C2218 C2217 1.369 . S
C2218 C2227 1.429 . S
C2219 C2217 1.419 . S
C2219 C2220 1.363 . S
C2219 H2222 0.929 . S
C2220 C2219 1.363 . S
C2220 C2226 1.428 . S
H2221 C2217 0.930 . S
H2222 C2219 0.929 . S
S2223 N2224 1.613 . S
S2223 N2225 1.610 . S
N2224 S2223 1.613 . S
N2224 C2227 1.350 . S
N2225 S2223 1.610 . S
N2225 C2226 1.351 . S
C2226 C2220 1.428 . S
C2226 N2225 1.351 . S
C2226 C2227 1.434 . S
C2227 C2218 1.429 . S
C2227 N2224 1.350 . S
C2227 C2226 1.434 . S
C2228 C2229 1.369 . S
C2228 C2230 1.419 . S
C2228 H2232 0.930 . S
C2229 C2228 1.369 . S
C2229 C2238 1.429 . S
C2230 C2228 1.419 . S
C2230 C2231 1.363 . S
C2230 H2233 0.929 . S
C2231 C2230 1.363 . S
C2231 C2237 1.428 . S
H2232 C2228 0.930 . S
H2233 C2230 0.929 . S
S2234 N2235 1.613 . S
S2234 N2236 1.610 . S
N2235 S2234 1.613 . S
N2235 C2238 1.350 . S
N2236 S2234 1.610 . S
N2236 C2237 1.351 . S
C2237 C2231 1.428 . S
C2237 N2236 1.351 . S
C2237 C2238 1.434 . S
C2238 C2229 1.429 . S
C2238 N2235 1.350 . S
C2238 C2237 1.434 . S
C2239 C2240 1.369 . S
C2239 C2241 1.419 . S
C2239 H2243 0.930 . S
C2240 C2239 1.369 . S
C2240 C2249 1.429 . S
C2241 C2239 1.419 . S
C2241 C2242 1.363 . S
C2241 H2244 0.929 . S
C2242 C2241 1.363 . S
C2242 C2248 1.428 . S
H2243 C2239 0.930 . S
H2244 C2241 0.929 . S
S2245 N2246 1.613 . S
S2245 N2247 1.610 . S
N2246 S2245 1.613 . S
N2246 C2249 1.350 . S
N2247 S2245 1.610 . S
N2247 C2248 1.351 . S
C2248 C2242 1.428 . S
C2248 N2247 1.351 . S
C2248 C2249 1.434 . S
C2249 C2240 1.429 . S
C2249 N2246 1.350 . S
C2249 C2248 1.434 . S
C2250 C2251 1.369 . S
C2250 C2252 1.419 . S
C2250 H2254 0.930 . S
C2251 C2250 1.369 . S
C2251 C2260 1.429 . S
C2252 C2250 1.419 . S
C2252 C2253 1.363 . S
C2252 H2255 0.929 . S
C2253 C2252 1.363 . S
C2253 C2259 1.428 . S
H2254 C2250 0.930 . S
H2255 C2252 0.929 . S
S2256 N2257 1.613 . S
S2256 N2258 1.610 . S
N2257 S2256 1.613 . S
N2257 C2260 1.350 . S
N2258 S2256 1.610 . S
N2258 C2259 1.351 . S
C2259 C2253 1.428 . S
C2259 N2258 1.351 . S
C2259 C2260 1.434 . S
C2260 C2251 1.429 . S
C2260 N2257 1.350 . S
C2260 C2259 1.434 . S
C2261 C2262 1.369 . S
C2261 C2263 1.419 . S
C2261 H2265 0.930 . S
C2262 C2261 1.369 . S
C2262 C2271 1.429 . S
C2263 C2261 1.419 . S
C2263 C2264 1.363 . S
C2263 H2266 0.929 . S
C2264 C2263 1.363 . S
C2264 C2270 1.428 . S
H2265 C2261 0.930 . S
H2266 C2263 0.929 . S
S2267 N2268 1.613 . S
S2267 N2269 1.610 . S
N2268 S2267 1.613 . S
N2268 C2271 1.350 . S
N2269 S2267 1.610 . S
N2269 C2270 1.351 . S
C2270 C2264 1.428 . S
C2270 N2269 1.351 . S
C2270 C2271 1.434 . S
C2271 C2262 1.429 . S
C2271 N2268 1.350 . S
C2271 C2270 1.434 . S
C2272 C2273 1.369 . S
C2272 C2274 1.419 . S
C2272 H2276 0.930 . S
C2273 C2272 1.369 . S
C2273 C2282 1.429 . S
C2274 C2272 1.419 . S
C2274 C2275 1.363 . S
C2274 H2277 0.929 . S
C2275 C2274 1.363 . S
C2275 C2281 1.428 . S
H2276 C2272 0.930 . S
H2277 C2274 0.929 . S
S2278 N2279 1.613 . S
S2278 N2280 1.610 . S
N2279 S2278 1.613 . S
N2279 C2282 1.350 . S
N2280 S2278 1.610 . S
N2280 C2281 1.351 . S
C2281 C2275 1.428 . S
C2281 N2280 1.351 . S
C2281 C2282 1.434 . S
C2282 C2273 1.429 . S
C2282 N2279 1.350 . S
C2282 C2281 1.434 . S
C2283 C2284 1.369 . S
C2283 C2285 1.419 . S
C2283 H2287 0.930 . S
C2284 C2283 1.369 . S
C2284 C2293 1.429 . S
C2285 C2283 1.419 . S
C2285 C2286 1.363 . S
C2285 H2288 0.929 . S
C2286 C2285 1.363 . S
C2286 C2292 1.428 . S
H2287 C2283 0.930 . S
H2288 C2285 0.929 . S
S2289 N2290 1.613 . S
S2289 N2291 1.610 . S
N2290 S2289 1.613 . S
N2290 C2293 1.350 . S
N2291 S2289 1.610 . S
N2291 C2292 1.351 . S
C2292 C2286 1.428 . S
C2292 N2291 1.351 . S
C2292 C2293 1.434 . S
C2293 C2284 1.429 . S
C2293 N2290 1.350 . S
C2293 C2292 1.434 . S
C2294 C2295 1.369 . S
C2294 C2296 1.419 . S
C2294 H2298 0.930 . S
C2295 C2294 1.369 . S
C2295 C2304 1.429 . S
C2296 C2294 1.419 . S
C2296 C2297 1.363 . S
C2296 H2299 0.929 . S
C2297 C2296 1.363 . S
C2297 C2303 1.428 . S
H2298 C2294 0.930 . S
H2299 C2296 0.929 . S
S2300 N2301 1.613 . S
S2300 N2302 1.610 . S
N2301 S2300 1.613 . S
N2301 C2304 1.350 . S
N2302 S2300 1.610 . S
N2302 C2303 1.351 . S
C2303 C2297 1.428 . S
C2303 N2302 1.351 . S
C2303 C2304 1.434 . S
C2304 C2295 1.429 . S
C2304 N2301 1.350 . S
C2304 C2303 1.434 . S
C2305 C2306 1.369 . S
C2305 C2307 1.419 . S
C2305 H2309 0.930 . S
C2306 C2305 1.369 . S
C2306 C2315 1.429 . S
C2307 C2305 1.419 . S
C2307 C2308 1.363 . S
C2307 H2310 0.929 . S
C2308 C2307 1.363 . S
C2308 C2314 1.428 . S
H2309 C2305 0.930 . S
H2310 C2307 0.929 . S
S2311 N2312 1.613 . S
S2311 N2313 1.610 . S
N2312 S2311 1.613 . S
N2312 C2315 1.350 . S
N2313 S2311 1.610 . S
N2313 C2314 1.351 . S
C2314 C2308 1.428 . S
C2314 N2313 1.351 . S
C2314 C2315 1.434 . S
C2315 C2306 1.429 . S
C2315 N2312 1.350 . S
C2315 C2314 1.434 . S
C2316 C2317 1.369 . S
C2316 C2318 1.419 . S
C2316 H2320 0.930 . S
C2317 C2316 1.369 . S
C2317 C2326 1.429 . S
C2318 C2316 1.419 . S
C2318 C2319 1.363 . S
C2318 H2321 0.929 . S
C2319 C2318 1.363 . S
C2319 C2325 1.428 . S
H2320 C2316 0.930 . S
H2321 C2318 0.929 . S
S2322 N2323 1.613 . S
S2322 N2324 1.610 . S
N2323 S2322 1.613 . S
N2323 C2326 1.350 . S
N2324 S2322 1.610 . S
N2324 C2325 1.351 . S
C2325 C2319 1.428 . S
C2325 N2324 1.351 . S
C2325 C2326 1.434 . S
C2326 C2317 1.429 . S
C2326 N2323 1.350 . S
C2326 C2325 1.434 . S
C2327 C2328 1.369 . S
C2327 C2329 1.419 . S
C2327 H2331 0.930 . S
C2328 C2327 1.369 . S
C2328 C2337 1.429 . S
C2329 C2327 1.419 . S
C2329 C2330 1.363 . S
C2329 H2332 0.929 . S
C2330 C2329 1.363 . S
C2330 C2336 1.428 . S
H2331 C2327 0.930 . S
H2332 C2329 0.929 . S
S2333 N2334 1.613 . S
S2333 N2335 1.610 . S
N2334 S2333 1.613 . S
N2334 C2337 1.350 . S
N2335 S2333 1.610 . S
N2335 C2336 1.351 . S
C2336 C2330 1.428 . S
C2336 N2335 1.351 . S
C2336 C2337 1.434 . S
C2337 C2328 1.429 . S
C2337 N2334 1.350 . S
C2337 C2336 1.434 . S
C2338 C2339 1.369 . S
C2338 C2340 1.419 . S
C2338 H2342 0.930 . S
C2339 C2338 1.369 . S
C2339 C2348 1.429 . S
C2340 C2338 1.419 . S
C2340 C2341 1.363 . S
C2340 H2343 0.929 . S
C2341 C2340 1.363 . S
C2341 C2347 1.428 . S
H2342 C2338 0.930 . S
H2343 C2340 0.929 . S
S2344 N2345 1.613 . S
S2344 N2346 1.610 . S
N2345 S2344 1.613 . S
N2345 C2348 1.350 . S
N2346 S2344 1.610 . S
N2346 C2347 1.351 . S
C2347 C2341 1.428 . S
C2347 N2346 1.351 . S
C2347 C2348 1.434 . S
C2348 C2339 1.429 . S
C2348 N2345 1.350 . S
C2348 C2347 1.434 . S
C2349 C2350 1.369 . S
C2349 C2351 1.419 . S
C2349 H2353 0.930 . S
C2350 C2349 1.369 . S
C2350 C2359 1.429 . S
C2351 C2349 1.419 . S
C2351 C2352 1.363 . S
C2351 H2354 0.929 . S
C2352 C2351 1.363 . S
C2352 C2358 1.428 . S
H2353 C2349 0.930 . S
H2354 C2351 0.929 . S
S2355 N2356 1.613 . S
S2355 N2357 1.610 . S
N2356 S2355 1.613 . S
N2356 C2359 1.350 . S
N2357 S2355 1.610 . S
N2357 C2358 1.351 . S
C2358 C2352 1.428 . S
C2358 N2357 1.351 . S
C2358 C2359 1.434 . S
C2359 C2350 1.429 . S
C2359 N2356 1.350 . S
C2359 C2358 1.434 . S
C2360 C2361 1.369 . S
C2360 C2362 1.419 . S
C2360 H2364 0.930 . S
C2361 C2360 1.369 . S
C2361 C2370 1.429 . S
C2362 C2360 1.419 . S
C2362 C2363 1.363 . S
C2362 H2365 0.929 . S
C2363 C2362 1.363 . S
C2363 C2369 1.428 . S
H2364 C2360 0.930 . S
H2365 C2362 0.929 . S
S2366 N2367 1.613 . S
S2366 N2368 1.610 . S
N2367 S2366 1.613 . S
N2367 C2370 1.350 . S
N2368 S2366 1.610 . S
N2368 C2369 1.351 . S
C2369 C2363 1.428 . S
C2369 N2368 1.351 . S
C2369 C2370 1.434 . S
C2370 C2361 1.429 . S
C2370 N2367 1.350 . S
C2370 C2369 1.434 . S
C2371 C2372 1.369 . S
C2371 C2373 1.419 . S
C2371 H2375 0.930 . S
C2372 C2371 1.369 . S
C2372 C2381 1.429 . S
C2373 C2371 1.419 . S
C2373 C2374 1.363 . S
C2373 H2376 0.929 . S
C2374 C2373 1.363 . S
C2374 C2380 1.428 . S
H2375 C2371 0.930 . S
H2376 C2373 0.929 . S
S2377 N2378 1.613 . S
S2377 N2379 1.610 . S
N2378 S2377 1.613 . S
N2378 C2381 1.350 . S
N2379 S2377 1.610 . S
N2379 C2380 1.351 . S
C2380 C2374 1.428 . S
C2380 N2379 1.351 . S
C2380 C2381 1.434 . S
C2381 C2372 1.429 . S
C2381 N2378 1.350 . S
C2381 C2380 1.434 . S
C2382 C2383 1.369 . S
C2382 C2384 1.419 . S
C2382 H2386 0.930 . S
C2383 C2382 1.369 . S
C2383 C2392 1.429 . S
C2384 C2382 1.419 . S
C2384 C2385 1.363 . S
C2384 H2387 0.929 . S
C2385 C2384 1.363 . S
C2385 C2391 1.428 . S
H2386 C2382 0.930 . S
H2387 C2384 0.929 . S
S2388 N2389 1.613 . S
S2388 N2390 1.610 . S
N2389 S2388 1.613 . S
N2389 C2392 1.350 . S
N2390 S2388 1.610 . S
N2390 C2391 1.351 . S
C2391 C2385 1.428 . S
C2391 N2390 1.351 . S
C2391 C2392 1.434 . S
C2392 C2383 1.429 . S
C2392 N2389 1.350 . S
C2392 C2391 1.434 . S
C2393 C2394 1.369 . S
C2393 C2395 1.419 . S
C2393 H2397 0.930 . S
C2394 C2393 1.369 . S
C2394 C2403 1.429 . S
C2395 C2393 1.419 . S
C2395 C2396 1.363 . S
C2395 H2398 0.929 . S
C2396 C2395 1.363 . S
C2396 C2402 1.428 . S
H2397 C2393 0.930 . S
H2398 C2395 0.929 . S
S2399 N2400 1.613 . S
S2399 N2401 1.610 . S
N2400 S2399 1.613 . S
N2400 C2403 1.350 . S
N2401 S2399 1.610 . S
N2401 C2402 1.351 . S
C2402 C2396 1.428 . S
C2402 N2401 1.351 . S
C2402 C2403 1.434 . S
C2403 C2394 1.429 . S
C2403 N2400 1.350 . S
C2403 C2402 1.434 . S
C2404 C2405 1.369 . S
C2404 C2406 1.419 . S
C2404 H2408 0.930 . S
C2405 C2404 1.369 . S
C2405 C2414 1.429 . S
C2406 C2404 1.419 . S
C2406 C2407 1.363 . S
C2406 H2409 0.929 . S
C2407 C2406 1.363 . S
C2407 C2413 1.428 . S
H2408 C2404 0.930 . S
H2409 C2406 0.929 . S
S2410 N2411 1.613 . S
S2410 N2412 1.610 . S
N2411 S2410 1.613 . S
N2411 C2414 1.350 . S
N2412 S2410 1.610 . S
N2412 C2413 1.351 . S
C2413 C2407 1.428 . S
C2413 N2412 1.351 . S
C2413 C2414 1.434 . S
C2414 C2405 1.429 . S
C2414 N2411 1.350 . S
C2414 C2413 1.434 . S
C2415 C2416 1.369 . S
C2415 C2417 1.419 . S
C2415 H2419 0.930 . S
C2416 C2415 1.369 . S
C2416 C2425 1.429 . S
C2417 C2415 1.419 . S
C2417 C2418 1.363 . S
C2417 H2420 0.929 . S
C2418 C2417 1.363 . S
C2418 C2424 1.428 . S
H2419 C2415 0.930 . S
H2420 C2417 0.929 . S
S2421 N2422 1.613 . S
S2421 N2423 1.610 . S
N2422 S2421 1.613 . S
N2422 C2425 1.350 . S
N2423 S2421 1.610 . S
N2423 C2424 1.351 . S
C2424 C2418 1.428 . S
C2424 N2423 1.351 . S
C2424 C2425 1.434 . S
C2425 C2416 1.429 . S
C2425 N2422 1.350 . S
C2425 C2424 1.434 . S
C2426 C2427 1.369 . S
C2426 C2428 1.419 . S
C2426 H2430 0.930 . S
C2427 C2426 1.369 . S
C2427 C2436 1.429 . S
C2428 C2426 1.419 . S
C2428 C2429 1.363 . S
C2428 H2431 0.929 . S
C2429 C2428 1.363 . S
C2429 C2435 1.428 . S
H2430 C2426 0.930 . S
H2431 C2428 0.929 . S
S2432 N2433 1.613 . S
S2432 N2434 1.610 . S
N2433 S2432 1.613 . S
N2433 C2436 1.350 . S
N2434 S2432 1.610 . S
N2434 C2435 1.351 . S
C2435 C2429 1.428 . S
C2435 N2434 1.351 . S
C2435 C2436 1.434 . S
C2436 C2427 1.429 . S
C2436 N2433 1.350 . S
C2436 C2435 1.434 . S
C2437 C2438 1.369 . S
C2437 C2439 1.419 . S
C2437 H2441 0.930 . S
C2438 C2437 1.369 . S
C2438 C2447 1.429 . S
C2439 C2437 1.419 . S
C2439 C2440 1.363 . S
C2439 H2442 0.929 . S
C2440 C2439 1.363 . S
C2440 C2446 1.428 . S
H2441 C2437 0.930 . S
H2442 C2439 0.929 . S
S2443 N2444 1.613 . S
S2443 N2445 1.610 . S
N2444 S2443 1.613 . S
N2444 C2447 1.350 . S
N2445 S2443 1.610 . S
N2445 C2446 1.351 . S
C2446 C2440 1.428 . S
C2446 N2445 1.351 . S
C2446 C2447 1.434 . S
C2447 C2438 1.429 . S
C2447 N2444 1.350 . S
C2447 C2446 1.434 . S
C2448 C2449 1.369 . S
C2448 C2450 1.419 . S
C2448 H2452 0.930 . S
C2449 C2448 1.369 . S
C2449 C2458 1.429 . S
C2450 C2448 1.419 . S
C2450 C2451 1.363 . S
C2450 H2453 0.929 . S
C2451 C2450 1.363 . S
C2451 C2457 1.428 . S
H2452 C2448 0.930 . S
H2453 C2450 0.929 . S
S2454 N2455 1.613 . S
S2454 N2456 1.610 . S
N2455 S2454 1.613 . S
N2455 C2458 1.350 . S
N2456 S2454 1.610 . S
N2456 C2457 1.351 . S
C2457 C2451 1.428 . S
C2457 N2456 1.351 . S
C2457 C2458 1.434 . S
C2458 C2449 1.429 . S
C2458 N2455 1.350 . S
C2458 C2457 1.434 . S
C2459 C2460 1.369 . S
C2459 C2461 1.419 . S
C2459 H2463 0.930 . S
C2460 C2459 1.369 . S
C2460 C2469 1.429 . S
C2461 C2459 1.419 . S
C2461 C2462 1.363 . S
C2461 H2464 0.929 . S
C2462 C2461 1.363 . S
C2462 C2468 1.428 . S
H2463 C2459 0.930 . S
H2464 C2461 0.929 . S
S2465 N2466 1.613 . S
S2465 N2467 1.610 . S
N2466 S2465 1.613 . S
N2466 C2469 1.350 . S
N2467 S2465 1.610 . S
N2467 C2468 1.351 . S
C2468 C2462 1.428 . S
C2468 N2467 1.351 . S
C2468 C2469 1.434 . S
C2469 C2460 1.429 . S
C2469 N2466 1.350 . S
C2469 C2468 1.434 . S
C2470 C2471 1.369 . S
C2470 C2472 1.419 . S
C2470 H2474 0.930 . S
C2471 C2470 1.369 . S
C2471 C2480 1.429 . S
C2472 C2470 1.419 . S
C2472 C2473 1.363 . S
C2472 H2475 0.929 . S
C2473 C2472 1.363 . S
C2473 C2479 1.428 . S
H2474 C2470 0.930 . S
H2475 C2472 0.929 . S
S2476 N2477 1.613 . S
S2476 N2478 1.610 . S
N2477 S2476 1.613 . S
N2477 C2480 1.350 . S
N2478 S2476 1.610 . S
N2478 C2479 1.351 . S
C2479 C2473 1.428 . S
C2479 N2478 1.351 . S
C2479 C2480 1.434 . S
C2480 C2471 1.429 . S
C2480 N2477 1.350 . S
C2480 C2479 1.434 . S
C2481 C2482 1.369 . S
C2481 C2483 1.419 . S
C2481 H2485 0.930 . S
C2482 C2481 1.369 . S
C2482 C2491 1.429 . S
C2483 C2481 1.419 . S
C2483 C2484 1.363 . S
C2483 H2486 0.929 . S
C2484 C2483 1.363 . S
C2484 C2490 1.428 . S
H2485 C2481 0.930 . S
H2486 C2483 0.929 . S
S2487 N2488 1.613 . S
S2487 N2489 1.610 . S
N2488 S2487 1.613 . S
N2488 C2491 1.350 . S
N2489 S2487 1.610 . S
N2489 C2490 1.351 . S
C2490 C2484 1.428 . S
C2490 N2489 1.351 . S
C2490 C2491 1.434 . S
C2491 C2482 1.429 . S
C2491 N2488 1.350 . S
C2491 C2490 1.434 . S
C2492 C2493 1.369 . S
C2492 C2494 1.419 . S
C2492 H2496 0.930 . S
C2493 C2492 1.369 . S
C2493 C2502 1.429 . S
C2494 C2492 1.419 . S
C2494 C2495 1.363 . S
C2494 H2497 0.929 . S
C2495 C2494 1.363 . S
C2495 C2501 1.428 . S
H2496 C2492 0.930 . S
H2497 C2494 0.929 . S
S2498 N2499 1.613 . S
S2498 N2500 1.610 . S
N2499 S2498 1.613 . S
N2499 C2502 1.350 . S
N2500 S2498 1.610 . S
N2500 C2501 1.351 . S
C2501 C2495 1.428 . S
C2501 N2500 1.351 . S
C2501 C2502 1.434 . S
C2502 C2493 1.429 . S
C2502 N2499 1.350 . S
C2502 C2501 1.434 . S
C2503 C2504 1.369 . S
C2503 C2505 1.419 . S
C2503 H2507 0.930 . S
C2504 C2503 1.369 . S
C2504 C2513 1.429 . S
C2505 C2503 1.419 . S
C2505 C2506 1.363 . S
C2505 H2508 0.929 . S
C2506 C2505 1.363 . S
C2506 C2512 1.428 . S
H2507 C2503 0.930 . S
H2508 C2505 0.929 . S
S2509 N2510 1.613 . S
S2509 N2511 1.610 . S
N2510 S2509 1.613 . S
N2510 C2513 1.350 . S
N2511 S2509 1.610 . S
N2511 C2512 1.351 . S
C2512 C2506 1.428 . S
C2512 N2511 1.351 . S
C2512 C2513 1.434 . S
C2513 C2504 1.429 . S
C2513 N2510 1.350 . S
C2513 C2512 1.434 . S
C2514 C2515 1.369 . S
C2514 C2516 1.419 . S
C2514 H2518 0.930 . S
C2515 C2514 1.369 . S
C2515 C2524 1.429 . S
C2516 C2514 1.419 . S
C2516 C2517 1.363 . S
C2516 H2519 0.929 . S
C2517 C2516 1.363 . S
C2517 C2523 1.428 . S
H2518 C2514 0.930 . S
H2519 C2516 0.929 . S
S2520 N2521 1.613 . S
S2520 N2522 1.610 . S
N2521 S2520 1.613 . S
N2521 C2524 1.350 . S
N2522 S2520 1.610 . S
N2522 C2523 1.351 . S
C2523 C2517 1.428 . S
C2523 N2522 1.351 . S
C2523 C2524 1.434 . S
C2524 C2515 1.429 . S
C2524 N2521 1.350 . S
C2524 C2523 1.434 . S
C2525 C2526 1.369 . S
C2525 C2527 1.419 . S
C2525 H2529 0.930 . S
C2526 C2525 1.369 . S
C2526 C2535 1.429 . S
C2527 C2525 1.419 . S
C2527 C2528 1.363 . S
C2527 H2530 0.929 . S
C2528 C2527 1.363 . S
C2528 C2534 1.428 . S
H2529 C2525 0.930 . S
H2530 C2527 0.929 . S
S2531 N2532 1.613 . S
S2531 N2533 1.610 . S
N2532 S2531 1.613 . S
N2532 C2535 1.350 . S
N2533 S2531 1.610 . S
N2533 C2534 1.351 . S
C2534 C2528 1.428 . S
C2534 N2533 1.351 . S
C2534 C2535 1.434 . S
C2535 C2526 1.429 . S
C2535 N2532 1.350 . S
C2535 C2534 1.434 . S
C2536 C2537 1.369 . S
C2536 C2538 1.419 . S
C2536 H2540 0.930 . S
C2537 C2536 1.369 . S
C2537 C2546 1.429 . S
C2538 C2536 1.419 . S
C2538 C2539 1.363 . S
C2538 H2541 0.929 . S
C2539 C2538 1.363 . S
C2539 C2545 1.428 . S
H2540 C2536 0.930 . S
H2541 C2538 0.929 . S
S2542 N2543 1.613 . S
S2542 N2544 1.610 . S
N2543 S2542 1.613 . S
N2543 C2546 1.350 . S
N2544 S2542 1.610 . S
N2544 C2545 1.351 . S
C2545 C2539 1.428 . S
C2545 N2544 1.351 . S
C2545 C2546 1.434 . S
C2546 C2537 1.429 . S
C2546 N2543 1.350 . S
C2546 C2545 1.434 . S
C2547 C2548 1.369 . S
C2547 C2549 1.419 . S
C2547 H2551 0.930 . S
C2548 C2547 1.369 . S
C2548 C2557 1.429 . S
C2549 C2547 1.419 . S
C2549 C2550 1.363 . S
C2549 H2552 0.929 . S
C2550 C2549 1.363 . S
C2550 C2556 1.428 . S
H2551 C2547 0.930 . S
H2552 C2549 0.929 . S
S2553 N2554 1.613 . S
S2553 N2555 1.610 . S
N2554 S2553 1.613 . S
N2554 C2557 1.350 . S
N2555 S2553 1.610 . S
N2555 C2556 1.351 . S
C2556 C2550 1.428 . S
C2556 N2555 1.351 . S
C2556 C2557 1.434 . S
C2557 C2548 1.429 . S
C2557 N2554 1.350 . S
C2557 C2556 1.434 . S
C2558 C2559 1.369 . S
C2558 C2560 1.419 . S
C2558 H2562 0.930 . S
C2559 C2558 1.369 . S
C2559 C2568 1.429 . S
C2560 C2558 1.419 . S
C2560 C2561 1.363 . S
C2560 H2563 0.929 . S
C2561 C2560 1.363 . S
C2561 C2567 1.428 . S
H2562 C2558 0.930 . S
H2563 C2560 0.929 . S
S2564 N2565 1.613 . S
S2564 N2566 1.610 . S
N2565 S2564 1.613 . S
N2565 C2568 1.350 . S
N2566 S2564 1.610 . S
N2566 C2567 1.351 . S
C2567 C2561 1.428 . S
C2567 N2566 1.351 . S
C2567 C2568 1.434 . S
C2568 C2559 1.429 . S
C2568 N2565 1.350 . S
C2568 C2567 1.434 . S
C2569 C2570 1.369 . S
C2569 C2571 1.419 . S
C2569 H2573 0.930 . S
C2570 C2569 1.369 . S
C2570 C2579 1.429 . S
C2571 C2569 1.419 . S
C2571 C2572 1.363 . S
C2571 H2574 0.929 . S
C2572 C2571 1.363 . S
C2572 C2578 1.428 . S
H2573 C2569 0.930 . S
H2574 C2571 0.929 . S
S2575 N2576 1.613 . S
S2575 N2577 1.610 . S
N2576 S2575 1.613 . S
N2576 C2579 1.350 . S
N2577 S2575 1.610 . S
N2577 C2578 1.351 . S
C2578 C2572 1.428 . S
C2578 N2577 1.351 . S
C2578 C2579 1.434 . S
C2579 C2570 1.429 . S
C2579 N2576 1.350 . S
C2579 C2578 1.434 . S
C2580 C2581 1.369 . S
C2580 C2582 1.419 . S
C2580 H2584 0.930 . S
C2581 C2580 1.369 . S
C2581 C2590 1.429 . S
C2582 C2580 1.419 . S
C2582 C2583 1.363 . S
C2582 H2585 0.929 . S
C2583 C2582 1.363 . S
C2583 C2589 1.428 . S
H2584 C2580 0.930 . S
H2585 C2582 0.929 . S
S2586 N2587 1.613 . S
S2586 N2588 1.610 . S
N2587 S2586 1.613 . S
N2587 C2590 1.350 . S
N2588 S2586 1.610 . S
N2588 C2589 1.351 . S
C2589 C2583 1.428 . S
C2589 N2588 1.351 . S
C2589 C2590 1.434 . S
C2590 C2581 1.429 . S
C2590 N2587 1.350 . S
C2590 C2589 1.434 . S
C2591 C2592 1.369 . S
C2591 C2593 1.419 . S
C2591 H2595 0.930 . S
C2592 C2591 1.369 . S
C2592 C2601 1.429 . S
C2593 C2591 1.419 . S
C2593 C2594 1.363 . S
C2593 H2596 0.929 . S
C2594 C2593 1.363 . S
C2594 C2600 1.428 . S
H2595 C2591 0.930 . S
H2596 C2593 0.929 . S
S2597 N2598 1.613 . S
S2597 N2599 1.610 . S
N2598 S2597 1.613 . S
N2598 C2601 1.350 . S
N2599 S2597 1.610 . S
N2599 C2600 1.351 . S
C2600 C2594 1.428 . S
C2600 N2599 1.351 . S
C2600 C2601 1.434 . S
C2601 C2592 1.429 . S
C2601 N2598 1.350 . S
C2601 C2600 1.434 . S
C2602 C2603 1.369 . S
C2602 C2604 1.419 . S
C2602 H2606 0.930 . S
C2603 C2602 1.369 . S
C2603 C2612 1.429 . S
C2604 C2602 1.419 . S
C2604 C2605 1.363 . S
C2604 H2607 0.929 . S
C2605 C2604 1.363 . S
C2605 C2611 1.428 . S
H2606 C2602 0.930 . S
H2607 C2604 0.929 . S
S2608 N2609 1.613 . S
S2608 N2610 1.610 . S
N2609 S2608 1.613 . S
N2609 C2612 1.350 . S
N2610 S2608 1.610 . S
N2610 C2611 1.351 . S
C2611 C2605 1.428 . S
C2611 N2610 1.351 . S
C2611 C2612 1.434 . S
C2612 C2603 1.429 . S
C2612 N2609 1.350 . S
C2612 C2611 1.434 . S
C2613 C2614 1.369 . S
C2613 C2615 1.419 . S
C2613 H2617 0.930 . S
C2614 C2613 1.369 . S
C2614 C2623 1.429 . S
C2615 C2613 1.419 . S
C2615 C2616 1.363 . S
C2615 H2618 0.929 . S
C2616 C2615 1.363 . S
C2616 C2622 1.428 . S
H2617 C2613 0.930 . S
H2618 C2615 0.929 . S
S2619 N2620 1.613 . S
S2619 N2621 1.610 . S
N2620 S2619 1.613 . S
N2620 C2623 1.350 . S
N2621 S2619 1.610 . S
N2621 C2622 1.351 . S
C2622 C2616 1.428 . S
C2622 N2621 1.351 . S
C2622 C2623 1.434 . S
C2623 C2614 1.429 . S
C2623 N2620 1.350 . S
C2623 C2622 1.434 . S
C2624 C2625 1.369 . S
C2624 C2626 1.419 . S
C2624 H2628 0.930 . S
C2625 C2624 1.369 . S
C2625 C2634 1.429 . S
C2626 C2624 1.419 . S
C2626 C2627 1.363 . S
C2626 H2629 0.929 . S
C2627 C2626 1.363 . S
C2627 C2633 1.428 . S
H2628 C2624 0.930 . S
H2629 C2626 0.929 . S
S2630 N2631 1.613 . S
S2630 N2632 1.610 . S
N2631 S2630 1.613 . S
N2631 C2634 1.350 . S
N2632 S2630 1.610 . S
N2632 C2633 1.351 . S
C2633 C2627 1.428 . S
C2633 N2632 1.351 . S
C2633 C2634 1.434 . S
C2634 C2625 1.429 . S
C2634 N2631 1.350 . S
C2634 C2633 1.434 . S
C2635 C2636 1.369 . S
C2635 C2637 1.419 . S
C2635 H2639 0.930 . S
C2636 C2635 1.369 . S
C2636 C2645 1.429 . S
C2637 C2635 1.419 . S
C2637 C2638 1.363 . S
C2637 H2640 0.929 . S
C2638 C2637 1.363 . S
C2638 C2644 1.428 . S
H2639 C2635 0.930 . S
H2640 C2637 0.929 . S
S2641 N2642 1.613 . S
S2641 N2643 1.610 . S
N2642 S2641 1.613 . S
N2642 C2645 1.350 . S
N2643 S2641 1.610 . S
N2643 C2644 1.351 . S
C2644 C2638 1.428 . S
C2644 N2643 1.351 . S
C2644 C2645 1.434 . S
C2645 C2636 1.429 . S
C2645 N2642 1.350 . S
C2645 C2644 1.434 . S
C2646 C2647 1.369 . S
C2646 C2648 1.419 . S
C2646 H2650 0.930 . S
C2647 C2646 1.369 . S
C2647 C2656 1.429 . S
C2648 C2646 1.419 . S
C2648 C2649 1.363 . S
C2648 H2651 0.929 . S
C2649 C2648 1.363 . S
C2649 C2655 1.428 . S
H2650 C2646 0.930 . S
H2651 C2648 0.929 . S
S2652 N2653 1.613 . S
S2652 N2654 1.610 . S
N2653 S2652 1.613 . S
N2653 C2656 1.350 . S
N2654 S2652 1.610 . S
N2654 C2655 1.351 . S
C2655 C2649 1.428 . S
C2655 N2654 1.351 . S
C2655 C2656 1.434 . S
C2656 C2647 1.429 . S
C2656 N2653 1.350 . S
C2656 C2655 1.434 . S
C2657 C2658 1.369 . S
C2657 C2659 1.419 . S
C2657 H2661 0.930 . S
C2658 C2657 1.369 . S
C2658 C2667 1.429 . S
C2659 C2657 1.419 . S
C2659 C2660 1.363 . S
C2659 H2662 0.929 . S
C2660 C2659 1.363 . S
C2660 C2666 1.428 . S
H2661 C2657 0.930 . S
H2662 C2659 0.929 . S
S2663 N2664 1.613 . S
S2663 N2665 1.610 . S
N2664 S2663 1.613 . S
N2664 C2667 1.350 . S
N2665 S2663 1.610 . S
N2665 C2666 1.351 . S
C2666 C2660 1.428 . S
C2666 N2665 1.351 . S
C2666 C2667 1.434 . S
C2667 C2658 1.429 . S
C2667 N2664 1.350 . S
C2667 C2666 1.434 . S
C2668 C2669 1.369 . S
C2668 C2670 1.419 . S
C2668 H2672 0.930 . S
C2669 C2668 1.369 . S
C2669 C2678 1.429 . S
C2670 C2668 1.419 . S
C2670 C2671 1.363 . S
C2670 H2673 0.929 . S
C2671 C2670 1.363 . S
C2671 C2677 1.428 . S
H2672 C2668 0.930 . S
H2673 C2670 0.929 . S
S2674 N2675 1.613 . S
S2674 N2676 1.610 . S
N2675 S2674 1.613 . S
N2675 C2678 1.350 . S
N2676 S2674 1.610 . S
N2676 C2677 1.351 . S
C2677 C2671 1.428 . S
C2677 N2676 1.351 . S
C2677 C2678 1.434 . S
C2678 C2669 1.429 . S
C2678 N2675 1.350 . S
C2678 C2677 1.434 . S
C2679 C2680 1.369 . S
C2679 C2681 1.419 . S
C2679 H2683 0.930 . S
C2680 C2679 1.369 . S
C2680 C2689 1.429 . S
C2681 C2679 1.419 . S
C2681 C2682 1.363 . S
C2681 H2684 0.929 . S
C2682 C2681 1.363 . S
C2682 C2688 1.428 . S
H2683 C2679 0.930 . S
H2684 C2681 0.929 . S
S2685 N2686 1.613 . S
S2685 N2687 1.610 . S
N2686 S2685 1.613 . S
N2686 C2689 1.350 . S
N2687 S2685 1.610 . S
N2687 C2688 1.351 . S
C2688 C2682 1.428 . S
C2688 N2687 1.351 . S
C2688 C2689 1.434 . S
C2689 C2680 1.429 . S
C2689 N2686 1.350 . S
C2689 C2688 1.434 . S
C2690 C2691 1.369 . S
C2690 C2692 1.419 . S
C2690 H2694 0.930 . S
C2691 C2690 1.369 . S
C2691 C2700 1.429 . S
C2692 C2690 1.419 . S
C2692 C2693 1.363 . S
C2692 H2695 0.929 . S
C2693 C2692 1.363 . S
C2693 C2699 1.428 . S
H2694 C2690 0.930 . S
H2695 C2692 0.929 . S
S2696 N2697 1.613 . S
S2696 N2698 1.610 . S
N2697 S2696 1.613 . S
N2697 C2700 1.350 . S
N2698 S2696 1.610 . S
N2698 C2699 1.351 . S
C2699 C2693 1.428 . S
C2699 N2698 1.351 . S
C2699 C2700 1.434 . S
C2700 C2691 1.429 . S
C2700 N2697 1.350 . S
C2700 C2699 1.434 . S
C2701 C2702 1.369 . S
C2701 C2703 1.419 . S
C2701 H2705 0.930 . S
C2702 C2701 1.369 . S
C2702 C2711 1.429 . S
C2703 C2701 1.419 . S
C2703 C2704 1.363 . S
C2703 H2706 0.929 . S
C2704 C2703 1.363 . S
C2704 C2710 1.428 . S
H2705 C2701 0.930 . S
H2706 C2703 0.929 . S
S2707 N2708 1.613 . S
S2707 N2709 1.610 . S
N2708 S2707 1.613 . S
N2708 C2711 1.350 . S
N2709 S2707 1.610 . S
N2709 C2710 1.351 . S
C2710 C2704 1.428 . S
C2710 N2709 1.351 . S
C2710 C2711 1.434 . S
C2711 C2702 1.429 . S
C2711 N2708 1.350 . S
C2711 C2710 1.434 . S
C2712 C2713 1.369 . S
C2712 C2714 1.419 . S
C2712 H2716 0.930 . S
C2713 C2712 1.369 . S
C2713 C2722 1.429 . S
C2714 C2712 1.419 . S
C2714 C2715 1.363 . S
C2714 H2717 0.929 . S
C2715 C2714 1.363 . S
C2715 C2721 1.428 . S
H2716 C2712 0.930 . S
H2717 C2714 0.929 . S
S2718 N2719 1.613 . S
S2718 N2720 1.610 . S
N2719 S2718 1.613 . S
N2719 C2722 1.350 . S
N2720 S2718 1.610 . S
N2720 C2721 1.351 . S
C2721 C2715 1.428 . S
C2721 N2720 1.351 . S
C2721 C2722 1.434 . S
C2722 C2713 1.429 . S
C2722 N2719 1.350 . S
C2722 C2721 1.434 . S
C2723 C2724 1.369 . S
C2723 C2725 1.419 . S
C2723 H2727 0.930 . S
C2724 C2723 1.369 . S
C2724 C2733 1.429 . S
C2725 C2723 1.419 . S
C2725 C2726 1.363 . S
C2725 H2728 0.929 . S
C2726 C2725 1.363 . S
C2726 C2732 1.428 . S
H2727 C2723 0.930 . S
H2728 C2725 0.929 . S
S2729 N2730 1.613 . S
S2729 N2731 1.610 . S
N2730 S2729 1.613 . S
N2730 C2733 1.350 . S
N2731 S2729 1.610 . S
N2731 C2732 1.351 . S
C2732 C2726 1.428 . S
C2732 N2731 1.351 . S
C2732 C2733 1.434 . S
C2733 C2724 1.429 . S
C2733 N2730 1.350 . S
C2733 C2732 1.434 . S
C2734 C2735 1.369 . S
C2734 C2736 1.419 . S
C2734 H2738 0.930 . S
C2735 C2734 1.369 . S
C2735 C2744 1.429 . S
C2736 C2734 1.419 . S
C2736 C2737 1.363 . S
C2736 H2739 0.929 . S
C2737 C2736 1.363 . S
C2737 C2743 1.428 . S
H2738 C2734 0.930 . S
H2739 C2736 0.929 . S
S2740 N2741 1.613 . S
S2740 N2742 1.610 . S
N2741 S2740 1.613 . S
N2741 C2744 1.350 . S
N2742 S2740 1.610 . S
N2742 C2743 1.351 . S
C2743 C2737 1.428 . S
C2743 N2742 1.351 . S
C2743 C2744 1.434 . S
C2744 C2735 1.429 . S
C2744 N2741 1.350 . S
C2744 C2743 1.434 . S
C2745 C2746 1.369 . S
C2745 C2747 1.419 . S
C2745 H2749 0.930 . S
C2746 C2745 1.369 . S
C2746 C2755 1.429 . S
C2747 C2745 1.419 . S
C2747 C2748 1.363 . S
C2747 H2750 0.929 . S
C2748 C2747 1.363 . S
C2748 C2754 1.428 . S
H2749 C2745 0.930 . S
H2750 C2747 0.929 . S
S2751 N2752 1.613 . S
S2751 N2753 1.610 . S
N2752 S2751 1.613 . S
N2752 C2755 1.350 . S
N2753 S2751 1.610 . S
N2753 C2754 1.351 . S
C2754 C2748 1.428 . S
C2754 N2753 1.351 . S
C2754 C2755 1.434 . S
C2755 C2746 1.429 . S
C2755 N2752 1.350 . S
C2755 C2754 1.434 . S
C2756 C2757 1.369 . S
C2756 C2758 1.419 . S
C2756 H2760 0.930 . S
C2757 C2756 1.369 . S
C2757 C2766 1.429 . S
C2758 C2756 1.419 . S
C2758 C2759 1.363 . S
C2758 H2761 0.929 . S
C2759 C2758 1.363 . S
C2759 C2765 1.428 . S
H2760 C2756 0.930 . S
H2761 C2758 0.929 . S
S2762 N2763 1.613 . S
S2762 N2764 1.610 . S
N2763 S2762 1.613 . S
N2763 C2766 1.350 . S
N2764 S2762 1.610 . S
N2764 C2765 1.351 . S
C2765 C2759 1.428 . S
C2765 N2764 1.351 . S
C2765 C2766 1.434 . S
C2766 C2757 1.429 . S
C2766 N2763 1.350 . S
C2766 C2765 1.434 . S
C2767 C2768 1.369 . S
C2767 C2769 1.419 . S
C2767 H2771 0.930 . S
C2768 C2767 1.369 . S
C2768 C2777 1.429 . S
C2769 C2767 1.419 . S
C2769 C2770 1.363 . S
C2769 H2772 0.929 . S
C2770 C2769 1.363 . S
C2770 C2776 1.428 . S
H2771 C2767 0.930 . S
H2772 C2769 0.929 . S
S2773 N2774 1.613 . S
S2773 N2775 1.610 . S
N2774 S2773 1.613 . S
N2774 C2777 1.350 . S
N2775 S2773 1.610 . S
N2775 C2776 1.351 . S
C2776 C2770 1.428 . S
C2776 N2775 1.351 . S
C2776 C2777 1.434 . S
C2777 C2768 1.429 . S
C2777 N2774 1.350 . S
C2777 C2776 1.434 . S
C2778 C2779 1.369 . S
C2778 C2780 1.419 . S
C2778 H2782 0.930 . S
C2779 C2778 1.369 . S
C2779 C2788 1.429 . S
C2780 C2778 1.419 . S
C2780 C2781 1.363 . S
C2780 H2783 0.929 . S
C2781 C2780 1.363 . S
C2781 C2787 1.428 . S
H2782 C2778 0.930 . S
H2783 C2780 0.929 . S
S2784 N2785 1.613 . S
S2784 N2786 1.610 . S
N2785 S2784 1.613 . S
N2785 C2788 1.350 . S
N2786 S2784 1.610 . S
N2786 C2787 1.351 . S
C2787 C2781 1.428 . S
C2787 N2786 1.351 . S
C2787 C2788 1.434 . S
C2788 C2779 1.429 . S
C2788 N2785 1.350 . S
C2788 C2787 1.434 . S
C2789 C2790 1.369 . S
C2789 C2791 1.419 . S
C2789 H2793 0.930 . S
C2790 C2789 1.369 . S
C2790 C2799 1.429 . S
C2791 C2789 1.419 . S
C2791 C2792 1.363 . S
C2791 H2794 0.929 . S
C2792 C2791 1.363 . S
C2792 C2798 1.428 . S
H2793 C2789 0.930 . S
H2794 C2791 0.929 . S
S2795 N2796 1.613 . S
S2795 N2797 1.610 . S
N2796 S2795 1.613 . S
N2796 C2799 1.350 . S
N2797 S2795 1.610 . S
N2797 C2798 1.351 . S
C2798 C2792 1.428 . S
C2798 N2797 1.351 . S
C2798 C2799 1.434 . S
C2799 C2790 1.429 . S
C2799 N2796 1.350 . S
C2799 C2798 1.434 . S
C2800 C2801 1.369 . S
C2800 C2802 1.419 . S
C2800 H2804 0.930 . S
C2801 C2800 1.369 . S
C2801 C2810 1.429 . S
C2802 C2800 1.419 . S
C2802 C2803 1.363 . S
C2802 H2805 0.929 . S
C2803 C2802 1.363 . S
C2803 C2809 1.428 . S
H2804 C2800 0.930 . S
H2805 C2802 0.929 . S
S2806 N2807 1.613 . S
S2806 N2808 1.610 . S
N2807 S2806 1.613 . S
N2807 C2810 1.350 . S
N2808 S2806 1.610 . S
N2808 C2809 1.351 . S
C2809 C2803 1.428 . S
C2809 N2808 1.351 . S
C2809 C2810 1.434 . S
C2810 C2801 1.429 . S
C2810 N2807 1.350 . S
C2810 C2809 1.434 . S
C2811 C2812 1.369 . S
C2811 C2813 1.419 . S
C2811 H2815 0.930 . S
C2812 C2811 1.369 . S
C2812 C2821 1.429 . S
C2813 C2811 1.419 . S
C2813 C2814 1.363 . S
C2813 H2816 0.929 . S
C2814 C2813 1.363 . S
C2814 C2820 1.428 . S
H2815 C2811 0.930 . S
H2816 C2813 0.929 . S
S2817 N2818 1.613 . S
S2817 N2819 1.610 . S
N2818 S2817 1.613 . S
N2818 C2821 1.350 . S
N2819 S2817 1.610 . S
N2819 C2820 1.351 . S
C2820 C2814 1.428 . S
C2820 N2819 1.351 . S
C2820 C2821 1.434 . S
C2821 C2812 1.429 . S
C2821 N2818 1.350 . S
C2821 C2820 1.434 . S
C2822 C2823 1.369 . S
C2822 C2824 1.419 . S
C2822 H2826 0.930 . S
C2823 C2822 1.369 . S
C2823 C2832 1.429 . S
C2824 C2822 1.419 . S
C2824 C2825 1.363 . S
C2824 H2827 0.929 . S
C2825 C2824 1.363 . S
C2825 C2831 1.428 . S
H2826 C2822 0.930 . S
H2827 C2824 0.929 . S
S2828 N2829 1.613 . S
S2828 N2830 1.610 . S
N2829 S2828 1.613 . S
N2829 C2832 1.350 . S
N2830 S2828 1.610 . S
N2830 C2831 1.351 . S
C2831 C2825 1.428 . S
C2831 N2830 1.351 . S
C2831 C2832 1.434 . S
C2832 C2823 1.429 . S
C2832 N2829 1.350 . S
C2832 C2831 1.434 . S
C2833 C2834 1.369 . S
C2833 C2835 1.419 . S
C2833 H2837 0.930 . S
C2834 C2833 1.369 . S
C2834 C2843 1.429 . S
C2835 C2833 1.419 . S
C2835 C2836 1.363 . S
C2835 H2838 0.929 . S
C2836 C2835 1.363 . S
C2836 C2842 1.428 . S
H2837 C2833 0.930 . S
H2838 C2835 0.929 . S
S2839 N2840 1.613 . S
S2839 N2841 1.610 . S
N2840 S2839 1.613 . S
N2840 C2843 1.350 . S
N2841 S2839 1.610 . S
N2841 C2842 1.351 . S
C2842 C2836 1.428 . S
C2842 N2841 1.351 . S
C2842 C2843 1.434 . S
C2843 C2834 1.429 . S
C2843 N2840 1.350 . S
C2843 C2842 1.434 . S
C2844 C2845 1.369 . S
C2844 C2846 1.419 . S
C2844 H2848 0.930 . S
C2845 C2844 1.369 . S
C2845 C2854 1.429 . S
C2846 C2844 1.419 . S
C2846 C2847 1.363 . S
C2846 H2849 0.929 . S
C2847 C2846 1.363 . S
C2847 C2853 1.428 . S
H2848 C2844 0.930 . S
H2849 C2846 0.929 . S
S2850 N2851 1.613 . S
S2850 N2852 1.610 . S
N2851 S2850 1.613 . S
N2851 C2854 1.350 . S
N2852 S2850 1.610 . S
N2852 C2853 1.351 . S
C2853 C2847 1.428 . S
C2853 N2852 1.351 . S
C2853 C2854 1.434 . S
C2854 C2845 1.429 . S
C2854 N2851 1.350 . S
C2854 C2853 1.434 . S
C2855 C2856 1.369 . S
C2855 C2857 1.419 . S
C2855 H2859 0.930 . S
C2856 C2855 1.369 . S
C2856 C2865 1.429 . S
C2857 C2855 1.419 . S
C2857 C2858 1.363 . S
C2857 H2860 0.929 . S
C2858 C2857 1.363 . S
C2858 C2864 1.428 . S
H2859 C2855 0.930 . S
H2860 C2857 0.929 . S
S2861 N2862 1.613 . S
S2861 N2863 1.610 . S
N2862 S2861 1.613 . S
N2862 C2865 1.350 . S
N2863 S2861 1.610 . S
N2863 C2864 1.351 . S
C2864 C2858 1.428 . S
C2864 N2863 1.351 . S
C2864 C2865 1.434 . S
C2865 C2856 1.429 . S
C2865 N2862 1.350 . S
C2865 C2864 1.434 . S
C2866 C2867 1.369 . S
C2866 C2868 1.419 . S
C2866 H2870 0.930 . S
C2867 C2866 1.369 . S
C2867 C2876 1.429 . S
C2868 C2866 1.419 . S
C2868 C2869 1.363 . S
C2868 H2871 0.929 . S
C2869 C2868 1.363 . S
C2869 C2875 1.428 . S
H2870 C2866 0.930 . S
H2871 C2868 0.929 . S
S2872 N2873 1.613 . S
S2872 N2874 1.610 . S
N2873 S2872 1.613 . S
N2873 C2876 1.350 . S
N2874 S2872 1.610 . S
N2874 C2875 1.351 . S
C2875 C2869 1.428 . S
C2875 N2874 1.351 . S
C2875 C2876 1.434 . S
C2876 C2867 1.429 . S
C2876 N2873 1.350 . S
C2876 C2875 1.434 . S
C2877 C2878 1.369 . S
C2877 C2879 1.419 . S
C2877 H2881 0.930 . S
C2878 C2877 1.369 . S
C2878 C2887 1.429 . S
C2879 C2877 1.419 . S
C2879 C2880 1.363 . S
C2879 H2882 0.929 . S
C2880 C2879 1.363 . S
C2880 C2886 1.428 . S
H2881 C2877 0.930 . S
H2882 C2879 0.929 . S
S2883 N2884 1.613 . S
S2883 N2885 1.610 . S
N2884 S2883 1.613 . S
N2884 C2887 1.350 . S
N2885 S2883 1.610 . S
N2885 C2886 1.351 . S
C2886 C2880 1.428 . S
C2886 N2885 1.351 . S
C2886 C2887 1.434 . S
C2887 C2878 1.429 . S
C2887 N2884 1.350 . S
C2887 C2886 1.434 . S
C2888 C2889 1.369 . S
C2888 C2890 1.419 . S
C2888 H2892 0.930 . S
C2889 C2888 1.369 . S
C2889 C2898 1.429 . S
C2890 C2888 1.419 . S
C2890 C2891 1.363 . S
C2890 H2893 0.929 . S
C2891 C2890 1.363 . S
C2891 C2897 1.428 . S
H2892 C2888 0.930 . S
H2893 C2890 0.929 . S
S2894 N2895 1.613 . S
S2894 N2896 1.610 . S
N2895 S2894 1.613 . S
N2895 C2898 1.350 . S
N2896 S2894 1.610 . S
N2896 C2897 1.351 . S
C2897 C2891 1.428 . S
C2897 N2896 1.351 . S
C2897 C2898 1.434 . S
C2898 C2889 1.429 . S
C2898 N2895 1.350 . S
C2898 C2897 1.434 . S
C2899 C2900 1.369 . S
C2899 C2901 1.419 . S
C2899 H2903 0.930 . S
C2900 C2899 1.369 . S
C2900 C2909 1.429 . S
C2901 C2899 1.419 . S
C2901 C2902 1.363 . S
C2901 H2904 0.929 . S
C2902 C2901 1.363 . S
C2902 C2908 1.428 . S
H2903 C2899 0.930 . S
H2904 C2901 0.929 . S
S2905 N2906 1.613 . S
S2905 N2907 1.610 . S
N2906 S2905 1.613 . S
N2906 C2909 1.350 . S
N2907 S2905 1.610 . S
N2907 C2908 1.351 . S
C2908 C2902 1.428 . S
C2908 N2907 1.351 . S
C2908 C2909 1.434 . S
C2909 C2900 1.429 . S
C2909 N2906 1.350 . S
C2909 C2908 1.434 . S
C2910 C2911 1.369 . S
C2910 C2912 1.419 . S
C2910 H2914 0.930 . S
C2911 C2910 1.369 . S
C2911 C2920 1.429 . S
C2912 C2910 1.419 . S
C2912 C2913 1.363 . S
C2912 H2915 0.929 . S
C2913 C2912 1.363 . S
C2913 C2919 1.428 . S
H2914 C2910 0.930 . S
H2915 C2912 0.929 . S
S2916 N2917 1.613 . S
S2916 N2918 1.610 . S
N2917 S2916 1.613 . S
N2917 C2920 1.350 . S
N2918 S2916 1.610 . S
N2918 C2919 1.351 . S
C2919 C2913 1.428 . S
C2919 N2918 1.351 . S
C2919 C2920 1.434 . S
C2920 C2911 1.429 . S
C2920 N2917 1.350 . S
C2920 C2919 1.434 . S
C2921 C2922 1.369 . S
C2921 C2923 1.419 . S
C2921 H2925 0.930 . S
C2922 C2921 1.369 . S
C2922 C2931 1.429 . S
C2923 C2921 1.419 . S
C2923 C2924 1.363 . S
C2923 H2926 0.929 . S
C2924 C2923 1.363 . S
C2924 C2930 1.428 . S
H2925 C2921 0.930 . S
H2926 C2923 0.929 . S
S2927 N2928 1.613 . S
S2927 N2929 1.610 . S
N2928 S2927 1.613 . S
N2928 C2931 1.350 . S
N2929 S2927 1.610 . S
N2929 C2930 1.351 . S
C2930 C2924 1.428 . S
C2930 N2929 1.351 . S
C2930 C2931 1.434 . S
C2931 C2922 1.429 . S
C2931 N2928 1.350 . S
C2931 C2930 1.434 . S
C2932 C2933 1.369 . S
C2932 C2934 1.419 . S
C2932 H2936 0.930 . S
C2933 C2932 1.369 . S
C2933 C2942 1.429 . S
C2934 C2932 1.419 . S
C2934 C2935 1.363 . S
C2934 H2937 0.929 . S
C2935 C2934 1.363 . S
C2935 C2941 1.428 . S
H2936 C2932 0.930 . S
H2937 C2934 0.929 . S
S2938 N2939 1.613 . S
S2938 N2940 1.610 . S
N2939 S2938 1.613 . S
N2939 C2942 1.350 . S
N2940 S2938 1.610 . S
N2940 C2941 1.351 . S
C2941 C2935 1.428 . S
C2941 N2940 1.351 . S
C2941 C2942 1.434 . S
C2942 C2933 1.429 . S
C2942 N2939 1.350 . S
C2942 C2941 1.434 . S
C2943 C2944 1.369 . S
C2943 C2945 1.419 . S
C2943 H2947 0.930 . S
C2944 C2943 1.369 . S
C2944 C2953 1.429 . S
C2945 C2943 1.419 . S
C2945 C2946 1.363 . S
C2945 H2948 0.929 . S
C2946 C2945 1.363 . S
C2946 C2952 1.428 . S
H2947 C2943 0.930 . S
H2948 C2945 0.929 . S
S2949 N2950 1.613 . S
S2949 N2951 1.610 . S
N2950 S2949 1.613 . S
N2950 C2953 1.350 . S
N2951 S2949 1.610 . S
N2951 C2952 1.351 . S
C2952 C2946 1.428 . S
C2952 N2951 1.351 . S
C2952 C2953 1.434 . S
C2953 C2944 1.429 . S
C2953 N2950 1.350 . S
C2953 C2952 1.434 . S
C2954 C2955 1.369 . S
C2954 C2956 1.419 . S
C2954 H2958 0.930 . S
C2955 C2954 1.369 . S
C2955 C2964 1.429 . S
C2956 C2954 1.419 . S
C2956 C2957 1.363 . S
C2956 H2959 0.929 . S
C2957 C2956 1.363 . S
C2957 C2963 1.428 . S
H2958 C2954 0.930 . S
H2959 C2956 0.929 . S
S2960 N2961 1.613 . S
S2960 N2962 1.610 . S
N2961 S2960 1.613 . S
N2961 C2964 1.350 . S
N2962 S2960 1.610 . S
N2962 C2963 1.351 . S
C2963 C2957 1.428 . S
C2963 N2962 1.351 . S
C2963 C2964 1.434 . S
C2964 C2955 1.429 . S
C2964 N2961 1.350 . S
C2964 C2963 1.434 . S
C2965 C2966 1.369 . S
C2965 C2967 1.419 . S
C2965 H2969 0.930 . S
C2966 C2965 1.369 . S
C2966 C2975 1.429 . S
C2967 C2965 1.419 . S
C2967 C2968 1.363 . S
C2967 H2970 0.929 . S
C2968 C2967 1.363 . S
C2968 C2974 1.428 . S
H2969 C2965 0.930 . S
H2970 C2967 0.929 . S
S2971 N2972 1.613 . S
S2971 N2973 1.610 . S
N2972 S2971 1.613 . S
N2972 C2975 1.350 . S
N2973 S2971 1.610 . S
N2973 C2974 1.351 . S
C2974 C2968 1.428 . S
C2974 N2973 1.351 . S
C2974 C2975 1.434 . S
C2975 C2966 1.429 . S
C2975 N2972 1.350 . S
C2975 C2974 1.434 . S
C2976 C2977 1.369 . S
C2976 C2978 1.419 . S
C2976 H2980 0.930 . S
C2977 C2976 1.369 . S
C2977 C2986 1.429 . S
C2978 C2976 1.419 . S
C2978 C2979 1.363 . S
C2978 H2981 0.929 . S
C2979 C2978 1.363 . S
C2979 C2985 1.428 . S
H2980 C2976 0.930 . S
H2981 C2978 0.929 . S
S2982 N2983 1.613 . S
S2982 N2984 1.610 . S
N2983 S2982 1.613 . S
N2983 C2986 1.350 . S
N2984 S2982 1.610 . S
N2984 C2985 1.351 . S
C2985 C2979 1.428 . S
C2985 N2984 1.351 . S
C2985 C2986 1.434 . S
C2986 C2977 1.429 . S
C2986 N2983 1.350 . S
C2986 C2985 1.434 . S
C2987 C2988 1.369 . S
C2987 C2989 1.419 . S
C2987 H2991 0.930 . S
C2988 C2987 1.369 . S
C2988 C2997 1.429 . S
C2989 C2987 1.419 . S
C2989 C2990 1.363 . S
C2989 H2992 0.929 . S
C2990 C2989 1.363 . S
C2990 C2996 1.428 . S
H2991 C2987 0.930 . S
H2992 C2989 0.929 . S
S2993 N2994 1.613 . S
S2993 N2995 1.610 . S
N2994 S2993 1.613 . S
N2994 C2997 1.350 . S
N2995 S2993 1.610 . S
N2995 C2996 1.351 . S
C2996 C2990 1.428 . S
C2996 N2995 1.351 . S
C2996 C2997 1.434 . S
C2997 C2988 1.429 . S
C2997 N2994 1.350 . S
C2997 C2996 1.434 . S
C2998 C2999 1.369 . S
C2998 C3000 1.419 . S
C2998 H3002 0.930 . S
C2999 C2998 1.369 . S
C2999 C3008 1.429 . S
C3000 C2998 1.419 . S
C3000 C3001 1.363 . S
C3000 H3003 0.929 . S
C3001 C3000 1.363 . S
C3001 C3007 1.428 . S
H3002 C2998 0.930 . S
H3003 C3000 0.929 . S
S3004 N3005 1.613 . S
S3004 N3006 1.610 . S
N3005 S3004 1.613 . S
N3005 C3008 1.350 . S
N3006 S3004 1.610 . S
N3006 C3007 1.351 . S
C3007 C3001 1.428 . S
C3007 N3006 1.351 . S
C3007 C3008 1.434 . S
C3008 C2999 1.429 . S
C3008 N3005 1.350 . S
C3008 C3007 1.434 . S
C3009 C3010 1.369 . S
C3009 C3011 1.419 . S
C3009 H3013 0.930 . S
C3010 C3009 1.369 . S
C3010 C3019 1.429 . S
C3011 C3009 1.419 . S
C3011 C3012 1.363 . S
C3011 H3014 0.929 . S
C3012 C3011 1.363 . S
C3012 C3018 1.428 . S
H3013 C3009 0.930 . S
H3014 C3011 0.929 . S
S3015 N3016 1.613 . S
S3015 N3017 1.610 . S
N3016 S3015 1.613 . S
N3016 C3019 1.350 . S
N3017 S3015 1.610 . S
N3017 C3018 1.351 . S
C3018 C3012 1.428 . S
C3018 N3017 1.351 . S
C3018 C3019 1.434 . S
C3019 C3010 1.429 . S
C3019 N3016 1.350 . S
C3019 C3018 1.434 . S
C3020 C3021 1.369 . S
C3020 C3022 1.419 . S
C3020 H3024 0.930 . S
C3021 C3020 1.369 . S
C3021 C3030 1.429 . S
C3022 C3020 1.419 . S
C3022 C3023 1.363 . S
C3022 H3025 0.929 . S
C3023 C3022 1.363 . S
C3023 C3029 1.428 . S
H3024 C3020 0.930 . S
H3025 C3022 0.929 . S
S3026 N3027 1.613 . S
S3026 N3028 1.610 . S
N3027 S3026 1.613 . S
N3027 C3030 1.350 . S
N3028 S3026 1.610 . S
N3028 C3029 1.351 . S
C3029 C3023 1.428 . S
C3029 N3028 1.351 . S
C3029 C3030 1.434 . S
C3030 C3021 1.429 . S
C3030 N3027 1.350 . S
C3030 C3029 1.434 . S
C3031 C3032 1.369 . S
C3031 C3033 1.419 . S
C3031 H3035 0.930 . S
C3032 C3031 1.369 . S
C3032 C3041 1.429 . S
C3033 C3031 1.419 . S
C3033 C3034 1.363 . S
C3033 H3036 0.929 . S
C3034 C3033 1.363 . S
C3034 C3040 1.428 . S
H3035 C3031 0.930 . S
H3036 C3033 0.929 . S
S3037 N3038 1.613 . S
S3037 N3039 1.610 . S
N3038 S3037 1.613 . S
N3038 C3041 1.350 . S
N3039 S3037 1.610 . S
N3039 C3040 1.351 . S
C3040 C3034 1.428 . S
C3040 N3039 1.351 . S
C3040 C3041 1.434 . S
C3041 C3032 1.429 . S
C3041 N3038 1.350 . S
C3041 C3040 1.434 . S
C3042 C3043 1.369 . S
C3042 C3044 1.419 . S
C3042 H3046 0.930 . S
C3043 C3042 1.369 . S
C3043 C3052 1.429 . S
C3044 C3042 1.419 . S
C3044 C3045 1.363 . S
C3044 H3047 0.929 . S
C3045 C3044 1.363 . S
C3045 C3051 1.428 . S
H3046 C3042 0.930 . S
H3047 C3044 0.929 . S
S3048 N3049 1.613 . S
S3048 N3050 1.610 . S
N3049 S3048 1.613 . S
N3049 C3052 1.350 . S
N3050 S3048 1.610 . S
N3050 C3051 1.351 . S
C3051 C3045 1.428 . S
C3051 N3050 1.351 . S
C3051 C3052 1.434 . S
C3052 C3043 1.429 . S
C3052 N3049 1.350 . S
C3052 C3051 1.434 . S
C3053 C3054 1.369 . S
C3053 C3055 1.419 . S
C3053 H3057 0.930 . S
C3054 C3053 1.369 . S
C3054 C3063 1.429 . S
C3055 C3053 1.419 . S
C3055 C3056 1.363 . S
C3055 H3058 0.929 . S
C3056 C3055 1.363 . S
C3056 C3062 1.428 . S
H3057 C3053 0.930 . S
H3058 C3055 0.929 . S
S3059 N3060 1.613 . S
S3059 N3061 1.610 . S
N3060 S3059 1.613 . S
N3060 C3063 1.350 . S
N3061 S3059 1.610 . S
N3061 C3062 1.351 . S
C3062 C3056 1.428 . S
C3062 N3061 1.351 . S
C3062 C3063 1.434 . S
C3063 C3054 1.429 . S
C3063 N3060 1.350 . S
C3063 C3062 1.434 . S
C3064 C3065 1.369 . S
C3064 C3066 1.419 . S
C3064 H3068 0.930 . S
C3065 C3064 1.369 . S
C3065 C3074 1.429 . S
C3066 C3064 1.419 . S
C3066 C3067 1.363 . S
C3066 H3069 0.929 . S
C3067 C3066 1.363 . S
C3067 C3073 1.428 . S
H3068 C3064 0.930 . S
H3069 C3066 0.929 . S
S3070 N3071 1.613 . S
S3070 N3072 1.610 . S
N3071 S3070 1.613 . S
N3071 C3074 1.350 . S
N3072 S3070 1.610 . S
N3072 C3073 1.351 . S
C3073 C3067 1.428 . S
C3073 N3072 1.351 . S
C3073 C3074 1.434 . S
C3074 C3065 1.429 . S
C3074 N3071 1.350 . S
C3074 C3073 1.434 . S
C3075 C3076 1.369 . S
C3075 C3077 1.419 . S
C3075 H3079 0.930 . S
C3076 C3075 1.369 . S
C3076 C3085 1.429 . S
C3077 C3075 1.419 . S
C3077 C3078 1.363 . S
C3077 H3080 0.929 . S
C3078 C3077 1.363 . S
C3078 C3084 1.428 . S
H3079 C3075 0.930 . S
H3080 C3077 0.929 . S
S3081 N3082 1.613 . S
S3081 N3083 1.610 . S
N3082 S3081 1.613 . S
N3082 C3085 1.350 . S
N3083 S3081 1.610 . S
N3083 C3084 1.351 . S
C3084 C3078 1.428 . S
C3084 N3083 1.351 . S
C3084 C3085 1.434 . S
C3085 C3076 1.429 . S
C3085 N3082 1.350 . S
C3085 C3084 1.434 . S
C3086 C3087 1.369 . S
C3086 C3088 1.419 . S
C3086 H3090 0.930 . S
C3087 C3086 1.369 . S
C3087 C3096 1.429 . S
C3088 C3086 1.419 . S
C3088 C3089 1.363 . S
C3088 H3091 0.929 . S
C3089 C3088 1.363 . S
C3089 C3095 1.428 . S
H3090 C3086 0.930 . S
H3091 C3088 0.929 . S
S3092 N3093 1.613 . S
S3092 N3094 1.610 . S
N3093 S3092 1.613 . S
N3093 C3096 1.350 . S
N3094 S3092 1.610 . S
N3094 C3095 1.351 . S
C3095 C3089 1.428 . S
C3095 N3094 1.351 . S
C3095 C3096 1.434 . S
C3096 C3087 1.429 . S
C3096 N3093 1.350 . S
C3096 C3095 1.434 . S
C3097 C3098 1.369 . S
C3097 C3099 1.419 . S
C3097 H3101 0.930 . S
C3098 C3097 1.369 . S
C3098 C3107 1.429 . S
C3099 C3097 1.419 . S
C3099 C3100 1.363 . S
C3099 H3102 0.929 . S
C3100 C3099 1.363 . S
C3100 C3106 1.428 . S
H3101 C3097 0.930 . S
H3102 C3099 0.929 . S
S3103 N3104 1.613 . S
S3103 N3105 1.610 . S
N3104 S3103 1.613 . S
N3104 C3107 1.350 . S
N3105 S3103 1.610 . S
N3105 C3106 1.351 . S
C3106 C3100 1.428 . S
C3106 N3105 1.351 . S
C3106 C3107 1.434 . S
C3107 C3098 1.429 . S
C3107 N3104 1.350 . S
C3107 C3106 1.434 . S
C3108 C3109 1.369 . S
C3108 C3110 1.419 . S
C3108 H3112 0.930 . S
C3109 C3108 1.369 . S
C3109 C3118 1.429 . S
C3110 C3108 1.419 . S
C3110 C3111 1.363 . S
C3110 H3113 0.929 . S
C3111 C3110 1.363 . S
C3111 C3117 1.428 . S
H3112 C3108 0.930 . S
H3113 C3110 0.929 . S
S3114 N3115 1.613 . S
S3114 N3116 1.610 . S
N3115 S3114 1.613 . S
N3115 C3118 1.350 . S
N3116 S3114 1.610 . S
N3116 C3117 1.351 . S
C3117 C3111 1.428 . S
C3117 N3116 1.351 . S
C3117 C3118 1.434 . S
C3118 C3109 1.429 . S
C3118 N3115 1.350 . S
C3118 C3117 1.434 . S
C3119 C3120 1.369 . S
C3119 C3121 1.419 . S
C3119 H3123 0.930 . S
C3120 C3119 1.369 . S
C3120 C3129 1.429 . S
C3121 C3119 1.419 . S
C3121 C3122 1.363 . S
C3121 H3124 0.929 . S
C3122 C3121 1.363 . S
C3122 C3128 1.428 . S
H3123 C3119 0.930 . S
H3124 C3121 0.929 . S
S3125 N3126 1.613 . S
S3125 N3127 1.610 . S
N3126 S3125 1.613 . S
N3126 C3129 1.350 . S
N3127 S3125 1.610 . S
N3127 C3128 1.351 . S
C3128 C3122 1.428 . S
C3128 N3127 1.351 . S
C3128 C3129 1.434 . S
C3129 C3120 1.429 . S
C3129 N3126 1.350 . S
C3129 C3128 1.434 . S
C3130 C3131 1.369 . S
C3130 C3132 1.419 . S
C3130 H3134 0.930 . S
C3131 C3130 1.369 . S
C3131 C3140 1.429 . S
C3132 C3130 1.419 . S
C3132 C3133 1.363 . S
C3132 H3135 0.929 . S
C3133 C3132 1.363 . S
C3133 C3139 1.428 . S
H3134 C3130 0.930 . S
H3135 C3132 0.929 . S
S3136 N3137 1.613 . S
S3136 N3138 1.610 . S
N3137 S3136 1.613 . S
N3137 C3140 1.350 . S
N3138 S3136 1.610 . S
N3138 C3139 1.351 . S
C3139 C3133 1.428 . S
C3139 N3138 1.351 . S
C3139 C3140 1.434 . S
C3140 C3131 1.429 . S
C3140 N3137 1.350 . S
C3140 C3139 1.434 . S
C3141 C3142 1.369 . S
C3141 C3143 1.419 . S
C3141 H3145 0.930 . S
C3142 C3141 1.369 . S
C3142 C3151 1.429 . S
C3143 C3141 1.419 . S
C3143 C3144 1.363 . S
C3143 H3146 0.929 . S
C3144 C3143 1.363 . S
C3144 C3150 1.428 . S
H3145 C3141 0.930 . S
H3146 C3143 0.929 . S
S3147 N3148 1.613 . S
S3147 N3149 1.610 . S
N3148 S3147 1.613 . S
N3148 C3151 1.350 . S
N3149 S3147 1.610 . S
N3149 C3150 1.351 . S
C3150 C3144 1.428 . S
C3150 N3149 1.351 . S
C3150 C3151 1.434 . S
C3151 C3142 1.429 . S
C3151 N3148 1.350 . S
C3151 C3150 1.434 . S
C3152 C3153 1.369 . S
C3152 C3154 1.419 . S
C3152 H3156 0.930 . S
C3153 C3152 1.369 . S
C3153 C3162 1.429 . S
C3154 C3152 1.419 . S
C3154 C3155 1.363 . S
C3154 H3157 0.929 . S
C3155 C3154 1.363 . S
C3155 C3161 1.428 . S
H3156 C3152 0.930 . S
H3157 C3154 0.929 . S
S3158 N3159 1.613 . S
S3158 N3160 1.610 . S
N3159 S3158 1.613 . S
N3159 C3162 1.350 . S
N3160 S3158 1.610 . S
N3160 C3161 1.351 . S
C3161 C3155 1.428 . S
C3161 N3160 1.351 . S
C3161 C3162 1.434 . S
C3162 C3153 1.429 . S
C3162 N3159 1.350 . S
C3162 C3161 1.434 . S
C3163 C3164 1.369 . S
C3163 C3165 1.419 . S
C3163 H3167 0.930 . S
C3164 C3163 1.369 . S
C3164 C3173 1.429 . S
C3165 C3163 1.419 . S
C3165 C3166 1.363 . S
C3165 H3168 0.929 . S
C3166 C3165 1.363 . S
C3166 C3172 1.428 . S
H3167 C3163 0.930 . S
H3168 C3165 0.929 . S
S3169 N3170 1.613 . S
S3169 N3171 1.610 . S
N3170 S3169 1.613 . S
N3170 C3173 1.350 . S
N3171 S3169 1.610 . S
N3171 C3172 1.351 . S
C3172 C3166 1.428 . S
C3172 N3171 1.351 . S
C3172 C3173 1.434 . S
C3173 C3164 1.429 . S
C3173 N3170 1.350 . S
C3173 C3172 1.434 . S
C3174 C3175 1.369 . S
C3174 C3176 1.419 . S
C3174 H3178 0.930 . S
C3175 C3174 1.369 . S
C3175 C3184 1.429 . S
C3176 C3174 1.419 . S
C3176 C3177 1.363 . S
C3176 H3179 0.929 . S
C3177 C3176 1.363 . S
C3177 C3183 1.428 . S
H3178 C3174 0.930 . S
H3179 C3176 0.929 . S
S3180 N3181 1.613 . S
S3180 N3182 1.610 . S
N3181 S3180 1.613 . S
N3181 C3184 1.350 . S
N3182 S3180 1.610 . S
N3182 C3183 1.351 . S
C3183 C3177 1.428 . S
C3183 N3182 1.351 . S
C3183 C3184 1.434 . S
C3184 C3175 1.429 . S
C3184 N3181 1.350 . S
C3184 C3183 1.434 . S
C3185 C3186 1.369 . S
C3185 C3187 1.419 . S
C3185 H3189 0.930 . S
C3186 C3185 1.369 . S
C3186 C3195 1.429 . S
C3187 C3185 1.419 . S
C3187 C3188 1.363 . S
C3187 H3190 0.929 . S
C3188 C3187 1.363 . S
C3188 C3194 1.428 . S
H3189 C3185 0.930 . S
H3190 C3187 0.929 . S
S3191 N3192 1.613 . S
S3191 N3193 1.610 . S
N3192 S3191 1.613 . S
N3192 C3195 1.350 . S
N3193 S3191 1.610 . S
N3193 C3194 1.351 . S
C3194 C3188 1.428 . S
C3194 N3193 1.351 . S
C3194 C3195 1.434 . S
C3195 C3186 1.429 . S
C3195 N3192 1.350 . S
C3195 C3194 1.434 . S
C3196 C3197 1.369 . S
C3196 C3198 1.419 . S
C3196 H3200 0.930 . S
C3197 C3196 1.369 . S
C3197 C3206 1.429 . S
C3198 C3196 1.419 . S
C3198 C3199 1.363 . S
C3198 H3201 0.929 . S
C3199 C3198 1.363 . S
C3199 C3205 1.428 . S
H3200 C3196 0.930 . S
H3201 C3198 0.929 . S
S3202 N3203 1.613 . S
S3202 N3204 1.610 . S
N3203 S3202 1.613 . S
N3203 C3206 1.350 . S
N3204 S3202 1.610 . S
N3204 C3205 1.351 . S
C3205 C3199 1.428 . S
C3205 N3204 1.351 . S
C3205 C3206 1.434 . S
C3206 C3197 1.429 . S
C3206 N3203 1.350 . S
C3206 C3205 1.434 . S
C3207 C3208 1.369 . S
C3207 C3209 1.419 . S
C3207 H3211 0.930 . S
C3208 C3207 1.369 . S
C3208 C3217 1.429 . S
C3209 C3207 1.419 . S
C3209 C3210 1.363 . S
C3209 H3212 0.929 . S
C3210 C3209 1.363 . S
C3210 C3216 1.428 . S
H3211 C3207 0.930 . S
H3212 C3209 0.929 . S
S3213 N3214 1.613 . S
S3213 N3215 1.610 . S
N3214 S3213 1.613 . S
N3214 C3217 1.350 . S
N3215 S3213 1.610 . S
N3215 C3216 1.351 . S
C3216 C3210 1.428 . S
C3216 N3215 1.351 . S
C3216 C3217 1.434 . S
C3217 C3208 1.429 . S
C3217 N3214 1.350 . S
C3217 C3216 1.434 . S
C3218 C3219 1.369 . S
C3218 C3220 1.419 . S
C3218 H3222 0.930 . S
C3219 C3218 1.369 . S
C3219 C3228 1.429 . S
C3220 C3218 1.419 . S
C3220 C3221 1.363 . S
C3220 H3223 0.929 . S
C3221 C3220 1.363 . S
C3221 C3227 1.428 . S
H3222 C3218 0.930 . S
H3223 C3220 0.929 . S
S3224 N3225 1.613 . S
S3224 N3226 1.610 . S
N3225 S3224 1.613 . S
N3225 C3228 1.350 . S
N3226 S3224 1.610 . S
N3226 C3227 1.351 . S
C3227 C3221 1.428 . S
C3227 N3226 1.351 . S
C3227 C3228 1.434 . S
C3228 C3219 1.429 . S
C3228 N3225 1.350 . S
C3228 C3227 1.434 . S
C3229 C3230 1.369 . S
C3229 C3231 1.419 . S
C3229 H3233 0.930 . S
C3230 C3229 1.369 . S
C3230 C3239 1.429 . S
C3231 C3229 1.419 . S
C3231 C3232 1.363 . S
C3231 H3234 0.929 . S
C3232 C3231 1.363 . S
C3232 C3238 1.428 . S
H3233 C3229 0.930 . S
H3234 C3231 0.929 . S
S3235 N3236 1.613 . S
S3235 N3237 1.610 . S
N3236 S3235 1.613 . S
N3236 C3239 1.350 . S
N3237 S3235 1.610 . S
N3237 C3238 1.351 . S
C3238 C3232 1.428 . S
C3238 N3237 1.351 . S
C3238 C3239 1.434 . S
C3239 C3230 1.429 . S
C3239 N3236 1.350 . S
C3239 C3238 1.434 . S
C3240 C3241 1.369 . S
C3240 C3242 1.419 . S
C3240 H3244 0.930 . S
C3241 C3240 1.369 . S
C3241 C3250 1.429 . S
C3242 C3240 1.419 . S
C3242 C3243 1.363 . S
C3242 H3245 0.929 . S
C3243 C3242 1.363 . S
C3243 C3249 1.428 . S
H3244 C3240 0.930 . S
H3245 C3242 0.929 . S
S3246 N3247 1.613 . S
S3246 N3248 1.610 . S
N3247 S3246 1.613 . S
N3247 C3250 1.350 . S
N3248 S3246 1.610 . S
N3248 C3249 1.351 . S
C3249 C3243 1.428 . S
C3249 N3248 1.351 . S
C3249 C3250 1.434 . S
C3250 C3241 1.429 . S
C3250 N3247 1.350 . S
C3250 C3249 1.434 . S
C3251 C3252 1.369 . S
C3251 C3253 1.419 . S
C3251 H3255 0.930 . S
C3252 C3251 1.369 . S
C3252 C3261 1.429 . S
C3253 C3251 1.419 . S
C3253 C3254 1.363 . S
C3253 H3256 0.929 . S
C3254 C3253 1.363 . S
C3254 C3260 1.428 . S
H3255 C3251 0.930 . S
H3256 C3253 0.929 . S
S3257 N3258 1.613 . S
S3257 N3259 1.610 . S
N3258 S3257 1.613 . S
N3258 C3261 1.350 . S
N3259 S3257 1.610 . S
N3259 C3260 1.351 . S
C3260 C3254 1.428 . S
C3260 N3259 1.351 . S
C3260 C3261 1.434 . S
C3261 C3252 1.429 . S
C3261 N3258 1.350 . S
C3261 C3260 1.434 . S
C3262 C3263 1.369 . S
C3262 C3264 1.419 . S
C3262 H3266 0.930 . S
C3263 C3262 1.369 . S
C3263 C3272 1.429 . S
C3264 C3262 1.419 . S
C3264 C3265 1.363 . S
C3264 H3267 0.929 . S
C3265 C3264 1.363 . S
C3265 C3271 1.428 . S
H3266 C3262 0.930 . S
H3267 C3264 0.929 . S
S3268 N3269 1.613 . S
S3268 N3270 1.610 . S
N3269 S3268 1.613 . S
N3269 C3272 1.350 . S
N3270 S3268 1.610 . S
N3270 C3271 1.351 . S
C3271 C3265 1.428 . S
C3271 N3270 1.351 . S
C3271 C3272 1.434 . S
C3272 C3263 1.429 . S
C3272 N3269 1.350 . S
C3272 C3271 1.434 . S
C3273 C3274 1.369 . S
C3273 C3275 1.419 . S
C3273 H3277 0.930 . S
C3274 C3273 1.369 . S
C3274 C3283 1.429 . S
C3275 C3273 1.419 . S
C3275 C3276 1.363 . S
C3275 H3278 0.929 . S
C3276 C3275 1.363 . S
C3276 C3282 1.428 . S
H3277 C3273 0.930 . S
H3278 C3275 0.929 . S
S3279 N3280 1.613 . S
S3279 N3281 1.610 . S
N3280 S3279 1.613 . S
N3280 C3283 1.350 . S
N3281 S3279 1.610 . S
N3281 C3282 1.351 . S
C3282 C3276 1.428 . S
C3282 N3281 1.351 . S
C3282 C3283 1.434 . S
C3283 C3274 1.429 . S
C3283 N3280 1.350 . S
C3283 C3282 1.434 . S
C3284 C3285 1.369 . S
C3284 C3286 1.419 . S
C3284 H3288 0.930 . S
C3285 C3284 1.369 . S
C3285 C3294 1.429 . S
C3286 C3284 1.419 . S
C3286 C3287 1.363 . S
C3286 H3289 0.929 . S
C3287 C3286 1.363 . S
C3287 C3293 1.428 . S
H3288 C3284 0.930 . S
H3289 C3286 0.929 . S
S3290 N3291 1.613 . S
S3290 N3292 1.610 . S
N3291 S3290 1.613 . S
N3291 C3294 1.350 . S
N3292 S3290 1.610 . S
N3292 C3293 1.351 . S
C3293 C3287 1.428 . S
C3293 N3292 1.351 . S
C3293 C3294 1.434 . S
C3294 C3285 1.429 . S
C3294 N3291 1.350 . S
C3294 C3293 1.434 . S
C3295 C3296 1.369 . S
C3295 C3297 1.419 . S
C3295 H3299 0.930 . S
C3296 C3295 1.369 . S
C3296 C3305 1.429 . S
C3297 C3295 1.419 . S
C3297 C3298 1.363 . S
C3297 H3300 0.929 . S
C3298 C3297 1.363 . S
C3298 C3304 1.428 . S
H3299 C3295 0.930 . S
H3300 C3297 0.929 . S
S3301 N3302 1.613 . S
S3301 N3303 1.610 . S
N3302 S3301 1.613 . S
N3302 C3305 1.350 . S
N3303 S3301 1.610 . S
N3303 C3304 1.351 . S
C3304 C3298 1.428 . S
C3304 N3303 1.351 . S
C3304 C3305 1.434 . S
C3305 C3296 1.429 . S
C3305 N3302 1.350 . S
C3305 C3304 1.434 . S
C3306 C3307 1.369 . S
C3306 C3308 1.419 . S
C3306 H3310 0.930 . S
C3307 C3306 1.369 . S
C3307 C3316 1.429 . S
C3308 C3306 1.419 . S
C3308 C3309 1.363 . S
C3308 H3311 0.929 . S
C3309 C3308 1.363 . S
C3309 C3315 1.428 . S
H3310 C3306 0.930 . S
H3311 C3308 0.929 . S
S3312 N3313 1.613 . S
S3312 N3314 1.610 . S
N3313 S3312 1.613 . S
N3313 C3316 1.350 . S
N3314 S3312 1.610 . S
N3314 C3315 1.351 . S
C3315 C3309 1.428 . S
C3315 N3314 1.351 . S
C3315 C3316 1.434 . S
C3316 C3307 1.429 . S
C3316 N3313 1.350 . S
C3316 C3315 1.434 . S
C3317 C3318 1.369 . S
C3317 C3319 1.419 . S
C3317 H3321 0.930 . S
C3318 C3317 1.369 . S
C3318 C3327 1.429 . S
C3319 C3317 1.419 . S
C3319 C3320 1.363 . S
C3319 H3322 0.929 . S
C3320 C3319 1.363 . S
C3320 C3326 1.428 . S
H3321 C3317 0.930 . S
H3322 C3319 0.929 . S
S3323 N3324 1.613 . S
S3323 N3325 1.610 . S
N3324 S3323 1.613 . S
N3324 C3327 1.350 . S
N3325 S3323 1.610 . S
N3325 C3326 1.351 . S
C3326 C3320 1.428 . S
C3326 N3325 1.351 . S
C3326 C3327 1.434 . S
C3327 C3318 1.429 . S
C3327 N3324 1.350 . S
C3327 C3326 1.434 . S
C3328 C3329 1.369 . S
C3328 C3330 1.419 . S
C3328 H3332 0.930 . S
C3329 C3328 1.369 . S
C3329 C3338 1.429 . S
C3330 C3328 1.419 . S
C3330 C3331 1.363 . S
C3330 H3333 0.929 . S
C3331 C3330 1.363 . S
C3331 C3337 1.428 . S
H3332 C3328 0.930 . S
H3333 C3330 0.929 . S
S3334 N3335 1.613 . S
S3334 N3336 1.610 . S
N3335 S3334 1.613 . S
N3335 C3338 1.350 . S
N3336 S3334 1.610 . S
N3336 C3337 1.351 . S
C3337 C3331 1.428 . S
C3337 N3336 1.351 . S
C3337 C3338 1.434 . S
C3338 C3329 1.429 . S
C3338 N3335 1.350 . S
C3338 C3337 1.434 . S
C3339 C3340 1.369 . S
C3339 C3341 1.419 . S
C3339 H3343 0.930 . S
C3340 C3339 1.369 . S
C3340 C3349 1.429 . S
C3341 C3339 1.419 . S
C3341 C3342 1.363 . S
C3341 H3344 0.929 . S
C3342 C3341 1.363 . S
C3342 C3348 1.428 . S
H3343 C3339 0.930 . S
H3344 C3341 0.929 . S
S3345 N3346 1.613 . S
S3345 N3347 1.610 . S
N3346 S3345 1.613 . S
N3346 C3349 1.350 . S
N3347 S3345 1.610 . S
N3347 C3348 1.351 . S
C3348 C3342 1.428 . S
C3348 N3347 1.351 . S
C3348 C3349 1.434 . S
C3349 C3340 1.429 . S
C3349 N3346 1.350 . S
C3349 C3348 1.434 . S
C3350 C3351 1.369 . S
C3350 C3352 1.419 . S
C3350 H3354 0.930 . S
C3351 C3350 1.369 . S
C3351 C3360 1.429 . S
C3352 C3350 1.419 . S
C3352 C3353 1.363 . S
C3352 H3355 0.929 . S
C3353 C3352 1.363 . S
C3353 C3359 1.428 . S
H3354 C3350 0.930 . S
H3355 C3352 0.929 . S
S3356 N3357 1.613 . S
S3356 N3358 1.610 . S
N3357 S3356 1.613 . S
N3357 C3360 1.350 . S
N3358 S3356 1.610 . S
N3358 C3359 1.351 . S
C3359 C3353 1.428 . S
C3359 N3358 1.351 . S
C3359 C3360 1.434 . S
C3360 C3351 1.429 . S
C3360 N3357 1.350 . S
C3360 C3359 1.434 . S
C3361 C3362 1.369 . S
C3361 C3363 1.419 . S
C3361 H3365 0.930 . S
C3362 C3361 1.369 . S
C3362 C3371 1.429 . S
C3363 C3361 1.419 . S
C3363 C3364 1.363 . S
C3363 H3366 0.929 . S
C3364 C3363 1.363 . S
C3364 C3370 1.428 . S
H3365 C3361 0.930 . S
H3366 C3363 0.929 . S
S3367 N3368 1.613 . S
S3367 N3369 1.610 1_554 S
N3368 S3367 1.613 . S
N3368 C3371 1.350 1_554 S
N3369 S3367 1.610 1_556 S
N3369 C3370 1.351 . S
C3370 C3364 1.428 . S
C3370 N3369 1.351 . S
C3370 C3371 1.434 . S
C3371 C3362 1.429 . S
C3371 N3368 1.350 1_556 S
C3371 C3370 1.434 . S
C3372 C3373 1.369 . S
C3372 C3374 1.419 . S
C3372 H3376 0.930 . S
C3373 C3372 1.369 . S
C3373 C3382 1.429 . S
C3374 C3372 1.419 . S
C3374 C3375 1.363 . S
C3374 H3377 0.929 . S
C3375 C3374 1.363 . S
C3375 C3381 1.428 . S
H3376 C3372 0.930 . S
H3377 C3374 0.929 . S
S3378 N3379 1.613 . S
S3378 N3380 1.610 . S
N3379 S3378 1.613 . S
N3379 C3382 1.350 . S
N3380 S3378 1.610 . S
N3380 C3381 1.351 . S
C3381 C3375 1.428 . S
C3381 N3380 1.351 . S
C3381 C3382 1.434 . S
C3382 C3373 1.429 . S
C3382 N3379 1.350 . S
C3382 C3381 1.434 . S
C3383 C3384 1.369 . S
C3383 C3385 1.419 . S
C3383 H3387 0.930 . S
C3384 C3383 1.369 . S
C3384 C3393 1.429 . S
C3385 C3383 1.419 . S
C3385 C3386 1.363 . S
C3385 H3388 0.929 . S
C3386 C3385 1.363 . S
C3386 C3392 1.428 . S
H3387 C3383 0.930 . S
H3388 C3385 0.929 . S
S3389 N3390 1.613 . S
S3389 N3391 1.610 . S
N3390 S3389 1.613 . S
N3390 C3393 1.350 . S
N3391 S3389 1.610 . S
N3391 C3392 1.351 . S
C3392 C3386 1.428 . S
C3392 N3391 1.351 . S
C3392 C3393 1.434 . S
C3393 C3384 1.429 . S
C3393 N3390 1.350 . S
C3393 C3392 1.434 . S
C3394 C3395 1.369 . S
C3394 C3396 1.419 . S
C3394 H3398 0.930 . S
C3395 C3394 1.369 . S
C3395 C3404 1.429 . S
C3396 C3394 1.419 . S
C3396 C3397 1.363 . S
C3396 H3399 0.929 . S
C3397 C3396 1.363 . S
C3397 C3403 1.428 . S
H3398 C3394 0.930 . S
H3399 C3396 0.929 . S
S3400 N3401 1.613 . S
S3400 N3402 1.610 . S
N3401 S3400 1.613 . S
N3401 C3404 1.350 . S
N3402 S3400 1.610 . S
N3402 C3403 1.351 . S
C3403 C3397 1.428 . S
C3403 N3402 1.351 . S
C3403 C3404 1.434 . S
C3404 C3395 1.429 . S
C3404 N3401 1.350 . S
C3404 C3403 1.434 . S
C3405 C3406 1.369 . S
C3405 C3407 1.419 . S
C3405 H3409 0.930 . S
C3406 C3405 1.369 . S
C3406 C3415 1.429 . S
C3407 C3405 1.419 . S
C3407 C3408 1.363 . S
C3407 H3410 0.929 . S
C3408 C3407 1.363 . S
C3408 C3414 1.428 . S
H3409 C3405 0.930 . S
H3410 C3407 0.929 . S
S3411 N3412 1.613 . S
S3411 N3413 1.610 . S
N3412 S3411 1.613 . S
N3412 C3415 1.350 . S
N3413 S3411 1.610 . S
N3413 C3414 1.351 . S
C3414 C3408 1.428 . S
C3414 N3413 1.351 . S
C3414 C3415 1.434 . S
C3415 C3406 1.429 . S
C3415 N3412 1.350 . S
C3415 C3414 1.434 . S
C3416 C3417 1.369 . S
C3416 C3418 1.419 . S
C3416 H3420 0.930 . S
C3417 C3416 1.369 . S
C3417 C3426 1.429 . S
C3418 C3416 1.419 . S
C3418 C3419 1.363 . S
C3418 H3421 0.929 . S
C3419 C3418 1.363 . S
C3419 C3425 1.428 . S
H3420 C3416 0.930 . S
H3421 C3418 0.929 . S
S3422 N3423 1.613 . S
S3422 N3424 1.610 . S
N3423 S3422 1.613 . S
N3423 C3426 1.350 . S
N3424 S3422 1.610 . S
N3424 C3425 1.351 . S
C3425 C3419 1.428 . S
C3425 N3424 1.351 . S
C3425 C3426 1.434 . S
C3426 C3417 1.429 . S
C3426 N3423 1.350 . S
C3426 C3425 1.434 . S
C3427 C3428 1.369 . S
C3427 C3429 1.419 . S
C3427 H3431 0.930 . S
C3428 C3427 1.369 . S
C3428 C3437 1.429 . S
C3429 C3427 1.419 . S
C3429 C3430 1.363 . S
C3429 H3432 0.929 . S
C3430 C3429 1.363 . S
C3430 C3436 1.428 . S
H3431 C3427 0.930 . S
H3432 C3429 0.929 . S
S3433 N3434 1.613 . S
S3433 N3435 1.610 . S
N3434 S3433 1.613 . S
N3434 C3437 1.350 . S
N3435 S3433 1.610 . S
N3435 C3436 1.351 . S
C3436 C3430 1.428 . S
C3436 N3435 1.351 . S
C3436 C3437 1.434 . S
C3437 C3428 1.429 . S
C3437 N3434 1.350 . S
C3437 C3436 1.434 . S
C3438 C3439 1.369 . S
C3438 C3440 1.419 . S
C3438 H3442 0.930 . S
C3439 C3438 1.369 . S
C3439 C3448 1.429 . S
C3440 C3438 1.419 . S
C3440 C3441 1.363 . S
C3440 H3443 0.929 . S
C3441 C3440 1.363 . S
C3441 C3447 1.428 . S
H3442 C3438 0.930 . S
H3443 C3440 0.929 . S
S3444 N3445 1.613 . S
S3444 N3446 1.610 1_556 S
N3445 S3444 1.613 . S
N3445 C3448 1.350 1_556 S
N3446 S3444 1.610 1_554 S
N3446 C3447 1.351 . S
C3447 C3441 1.428 . S
C3447 N3446 1.351 . S
C3447 C3448 1.434 . S
C3448 C3439 1.429 . S
C3448 N3445 1.350 1_554 S
C3448 C3447 1.434 . S
C3449 C3450 1.369 . S
C3449 C3451 1.419 . S
C3449 H3453 0.930 . S
C3450 C3449 1.369 . S
C3450 C3459 1.429 . S
C3451 C3449 1.419 . S
C3451 C3452 1.363 . S
C3451 H3454 0.929 . S
C3452 C3451 1.363 . S
C3452 C3458 1.428 . S
H3453 C3449 0.930 . S
H3454 C3451 0.929 . S
S3455 N3456 1.613 . S
S3455 N3457 1.610 . S
N3456 S3455 1.613 . S
N3456 C3459 1.350 . S
N3457 S3455 1.610 . S
N3457 C3458 1.351 . S
C3458 C3452 1.428 . S
C3458 N3457 1.351 . S
C3458 C3459 1.434 . S
C3459 C3450 1.429 . S
C3459 N3456 1.350 . S
C3459 C3458 1.434 . S
C3460 C3461 1.369 . S
C3460 C3462 1.419 . S
C3460 H3464 0.930 . S
C3461 C3460 1.369 . S
C3461 C3470 1.429 . S
C3462 C3460 1.419 . S
C3462 C3463 1.363 . S
C3462 H3465 0.929 . S
C3463 C3462 1.363 . S
C3463 C3469 1.428 . S
H3464 C3460 0.930 . S
H3465 C3462 0.929 . S
S3466 N3467 1.613 . S
S3466 N3468 1.610 . S
N3467 S3466 1.613 . S
N3467 C3470 1.350 . S
N3468 S3466 1.610 . S
N3468 C3469 1.351 . S
C3469 C3463 1.428 . S
C3469 N3468 1.351 . S
C3469 C3470 1.434 . S
C3470 C3461 1.429 . S
C3470 N3467 1.350 . S
C3470 C3469 1.434 . S
C3471 C3472 1.369 . S
C3471 C3473 1.419 . S
C3471 H3475 0.930 . S
C3472 C3471 1.369 . S
C3472 C3481 1.429 . S
C3473 C3471 1.419 . S
C3473 C3474 1.363 . S
C3473 H3476 0.929 . S
C3474 C3473 1.363 . S
C3474 C3480 1.428 . S
H3475 C3471 0.930 . S
H3476 C3473 0.929 . S
S3477 N3478 1.613 . S
S3477 N3479 1.610 . S
N3478 S3477 1.613 . S
N3478 C3481 1.350 . S
N3479 S3477 1.610 . S
N3479 C3480 1.351 . S
C3480 C3474 1.428 . S
C3480 N3479 1.351 . S
C3480 C3481 1.434 . S
C3481 C3472 1.429 . S
C3481 N3478 1.350 . S
C3481 C3480 1.434 . S
C3482 C3483 1.369 . S
C3482 C3484 1.419 . S
C3482 H3486 0.930 . S
C3483 C3482 1.369 . S
C3483 C3492 1.429 . S
C3484 C3482 1.419 . S
C3484 C3485 1.363 . S
C3484 H3487 0.929 . S
C3485 C3484 1.363 . S
C3485 C3491 1.428 . S
H3486 C3482 0.930 . S
H3487 C3484 0.929 . S
S3488 N3489 1.613 . S
S3488 N3490 1.610 . S
N3489 S3488 1.613 . S
N3489 C3492 1.350 . S
N3490 S3488 1.610 . S
N3490 C3491 1.351 . S
C3491 C3485 1.428 . S
C3491 N3490 1.351 . S
C3491 C3492 1.434 . S
C3492 C3483 1.429 . S
C3492 N3489 1.350 . S
C3492 C3491 1.434 . S
C3493 C3494 1.369 . S
C3493 C3495 1.419 . S
C3493 H3497 0.930 . S
C3494 C3493 1.369 . S
C3494 C3503 1.429 . S
C3495 C3493 1.419 . S
C3495 C3496 1.363 . S
C3495 H3498 0.929 . S
C3496 C3495 1.363 . S
C3496 C3502 1.428 . S
H3497 C3493 0.930 . S
H3498 C3495 0.929 . S
S3499 N3500 1.613 . S
S3499 N3501 1.610 . S
N3500 S3499 1.613 . S
N3500 C3503 1.350 . S
N3501 S3499 1.610 . S
N3501 C3502 1.351 . S
C3502 C3496 1.428 . S
C3502 N3501 1.351 . S
C3502 C3503 1.434 . S
C3503 C3494 1.429 . S
C3503 N3500 1.350 . S
C3503 C3502 1.434 . S
C3504 C3505 1.369 . S
C3504 C3506 1.419 . S
C3504 H3508 0.930 . S
C3505 C3504 1.369 . S
C3505 C3514 1.429 . S
C3506 C3504 1.419 . S
C3506 C3507 1.363 . S
C3506 H3509 0.929 . S
C3507 C3506 1.363 . S
C3507 C3513 1.428 . S
H3508 C3504 0.930 . S
H3509 C3506 0.929 . S
S3510 N3511 1.613 . S
S3510 N3512 1.610 . S
N3511 S3510 1.613 . S
N3511 C3514 1.350 . S
N3512 S3510 1.610 . S
N3512 C3513 1.351 . S
C3513 C3507 1.428 . S
C3513 N3512 1.351 . S
C3513 C3514 1.434 . S
C3514 C3505 1.429 . S
C3514 N3511 1.350 . S
C3514 C3513 1.434 . S
C3515 C3516 1.369 . S
C3515 C3517 1.419 . S
C3515 H3519 0.930 . S
C3516 C3515 1.369 . S
C3516 C3525 1.429 . S
C3517 C3515 1.419 . S
C3517 C3518 1.363 . S
C3517 H3520 0.929 . S
C3518 C3517 1.363 . S
C3518 C3524 1.428 . S
H3519 C3515 0.930 . S
H3520 C3517 0.929 . S
S3521 N3522 1.613 . S
S3521 N3523 1.610 . S
N3522 S3521 1.613 . S
N3522 C3525 1.350 . S
N3523 S3521 1.610 . S
N3523 C3524 1.351 . S
C3524 C3518 1.428 . S
C3524 N3523 1.351 . S
C3524 C3525 1.434 . S
C3525 C3516 1.429 . S
C3525 N3522 1.350 . S
C3525 C3524 1.434 . S
C3526 C3527 1.369 . S
C3526 C3528 1.419 . S
C3526 H3530 0.930 . S
C3527 C3526 1.369 . S
C3527 C3536 1.429 . S
C3528 C3526 1.419 . S
C3528 C3529 1.363 . S
C3528 H3531 0.929 . S
C3529 C3528 1.363 . S
C3529 C3535 1.428 . S
H3530 C3526 0.930 . S
H3531 C3528 0.929 . S
S3532 N3533 1.613 . S
S3532 N3534 1.610 . S
N3533 S3532 1.613 . S
N3533 C3536 1.350 . S
N3534 S3532 1.610 . S
N3534 C3535 1.351 . S
C3535 C3529 1.428 . S
C3535 N3534 1.351 . S
C3535 C3536 1.434 . S
C3536 C3527 1.429 . S
C3536 N3533 1.350 . S
C3536 C3535 1.434 . S
C3537 C3538 1.369 . S
C3537 C3539 1.419 . S
C3537 H3541 0.930 . S
C3538 C3537 1.369 . S
C3538 C3547 1.429 . S
C3539 C3537 1.419 . S
C3539 C3540 1.363 . S
C3539 H3542 0.929 . S
C3540 C3539 1.363 . S
C3540 C3546 1.428 . S
H3541 C3537 0.930 . S
H3542 C3539 0.929 . S
S3543 N3544 1.613 . S
S3543 N3545 1.610 . S
N3544 S3543 1.613 . S
N3544 C3547 1.350 . S
N3545 S3543 1.610 . S
N3545 C3546 1.351 . S
C3546 C3540 1.428 . S
C3546 N3545 1.351 . S
C3546 C3547 1.434 . S
C3547 C3538 1.429 . S
C3547 N3544 1.350 . S
C3547 C3546 1.434 . S
C3548 C3549 1.369 . S
C3548 C3550 1.419 . S
C3548 H3552 0.930 . S
C3549 C3548 1.369 . S
C3549 C3558 1.429 . S
C3550 C3548 1.419 . S
C3550 C3551 1.363 . S
C3550 H3553 0.929 . S
C3551 C3550 1.363 . S
C3551 C3557 1.428 . S
H3552 C3548 0.930 . S
H3553 C3550 0.929 . S
S3554 N3555 1.613 . S
S3554 N3556 1.610 . S
N3555 S3554 1.613 . S
N3555 C3558 1.350 . S
N3556 S3554 1.610 . S
N3556 C3557 1.351 . S
C3557 C3551 1.428 . S
C3557 N3556 1.351 . S
C3557 C3558 1.434 . S
C3558 C3549 1.429 . S
C3558 N3555 1.350 . S
C3558 C3557 1.434 . S
C3559 C3560 1.369 . S
C3559 C3561 1.419 . S
C3559 H3563 0.930 . S
C3560 C3559 1.369 . S
C3560 C3569 1.429 . S
C3561 C3559 1.419 . S
C3561 C3562 1.363 . S
C3561 H3564 0.929 . S
C3562 C3561 1.363 . S
C3562 C3568 1.428 . S
H3563 C3559 0.930 . S
H3564 C3561 0.929 . S
S3565 N3566 1.613 . S
S3565 N3567 1.610 . S
N3566 S3565 1.613 . S
N3566 C3569 1.350 . S
N3567 S3565 1.610 . S
N3567 C3568 1.351 . S
C3568 C3562 1.428 . S
C3568 N3567 1.351 . S
C3568 C3569 1.434 . S
C3569 C3560 1.429 . S
C3569 N3566 1.350 . S
C3569 C3568 1.434 . S
C3570 C3571 1.369 . S
C3570 C3572 1.419 . S
C3570 H3574 0.930 . S
C3571 C3570 1.369 . S
C3571 C3580 1.429 . S
C3572 C3570 1.419 . S
C3572 C3573 1.363 . S
C3572 H3575 0.929 . S
C3573 C3572 1.363 . S
C3573 C3579 1.428 . S
H3574 C3570 0.930 . S
H3575 C3572 0.929 . S
S3576 N3577 1.613 . S
S3576 N3578 1.610 . S
N3577 S3576 1.613 . S
N3577 C3580 1.350 . S
N3578 S3576 1.610 . S
N3578 C3579 1.351 . S
C3579 C3573 1.428 . S
C3579 N3578 1.351 . S
C3579 C3580 1.434 . S
C3580 C3571 1.429 . S
C3580 N3577 1.350 . S
C3580 C3579 1.434 . S
C3581 C3582 1.369 . S
C3581 C3583 1.419 . S
C3581 H3585 0.930 . S
C3582 C3581 1.369 . S
C3582 C3591 1.429 . S
C3583 C3581 1.419 . S
C3583 C3584 1.363 . S
C3583 H3586 0.929 . S
C3584 C3583 1.363 . S
C3584 C3590 1.428 . S
H3585 C3581 0.930 . S
H3586 C3583 0.929 . S
S3587 N3588 1.613 . S
S3587 N3589 1.610 . S
N3588 S3587 1.613 . S
N3588 C3591 1.350 . S
N3589 S3587 1.610 . S
N3589 C3590 1.351 . S
C3590 C3584 1.428 . S
C3590 N3589 1.351 . S
C3590 C3591 1.434 . S
C3591 C3582 1.429 . S
C3591 N3588 1.350 . S
C3591 C3590 1.434 . S
C3592 C3593 1.369 . S
C3592 C3594 1.419 . S
C3592 H3596 0.930 . S
C3593 C3592 1.369 . S
C3593 C3602 1.429 . S
C3594 C3592 1.419 . S
C3594 C3595 1.363 . S
C3594 H3597 0.929 . S
C3595 C3594 1.363 . S
C3595 C3601 1.428 . S
H3596 C3592 0.930 . S
H3597 C3594 0.929 . S
S3598 N3599 1.613 . S
S3598 N3600 1.610 . S
N3599 S3598 1.613 . S
N3599 C3602 1.350 . S
N3600 S3598 1.610 . S
N3600 C3601 1.351 . S
C3601 C3595 1.428 . S
C3601 N3600 1.351 . S
C3601 C3602 1.434 . S
C3602 C3593 1.429 . S
C3602 N3599 1.350 . S
C3602 C3601 1.434 . S
C3603 C3604 1.369 . S
C3603 C3605 1.419 . S
C3603 H3607 0.930 . S
C3604 C3603 1.369 . S
C3604 C3613 1.429 . S
C3605 C3603 1.419 . S
C3605 C3606 1.363 . S
C3605 H3608 0.929 . S
C3606 C3605 1.363 . S
C3606 C3612 1.428 . S
H3607 C3603 0.930 . S
H3608 C3605 0.929 . S
S3609 N3610 1.613 . S
S3609 N3611 1.610 . S
N3610 S3609 1.613 . S
N3610 C3613 1.350 . S
N3611 S3609 1.610 . S
N3611 C3612 1.351 . S
C3612 C3606 1.428 . S
C3612 N3611 1.351 . S
C3612 C3613 1.434 . S
C3613 C3604 1.429 . S
C3613 N3610 1.350 . S
C3613 C3612 1.434 . S
C3614 C3615 1.369 . S
C3614 C3616 1.419 . S
C3614 H3618 0.930 . S
C3615 C3614 1.369 . S
C3615 C3624 1.429 . S
C3616 C3614 1.419 . S
C3616 C3617 1.363 . S
C3616 H3619 0.929 . S
C3617 C3616 1.363 . S
C3617 C3623 1.428 . S
H3618 C3614 0.930 . S
H3619 C3616 0.929 . S
S3620 N3621 1.613 1_545 S
S3620 N3622 1.610 1_545 S
N3621 S3620 1.613 1_565 S
N3621 C3624 1.350 . S
N3622 S3620 1.610 1_565 S
N3622 C3623 1.351 . S
C3623 C3617 1.428 . S
C3623 N3622 1.351 . S
C3623 C3624 1.434 . S
C3624 C3615 1.429 . S
C3624 N3621 1.350 . S
C3624 C3623 1.434 . S
C3625 C3626 1.369 . S
C3625 C3627 1.419 . S
C3625 H3629 0.930 . S
C3626 C3625 1.369 . S
C3626 C3635 1.429 . S
C3627 C3625 1.419 . S
C3627 C3628 1.363 . S
C3627 H3630 0.929 . S
C3628 C3627 1.363 . S
C3628 C3634 1.428 . S
H3629 C3625 0.930 . S
H3630 C3627 0.929 . S
S3631 N3632 1.613 . S
S3631 N3633 1.610 . S
N3632 S3631 1.613 . S
N3632 C3635 1.350 . S
N3633 S3631 1.610 . S
N3633 C3634 1.351 . S
C3634 C3628 1.428 . S
C3634 N3633 1.351 . S
C3634 C3635 1.434 . S
C3635 C3626 1.429 . S
C3635 N3632 1.350 . S
C3635 C3634 1.434 . S
C3636 C3637 1.369 . S
C3636 C3638 1.419 . S
C3636 H3640 0.930 . S
C3637 C3636 1.369 . S
C3637 C3646 1.429 . S
C3638 C3636 1.419 . S
C3638 C3639 1.363 . S
C3638 H3641 0.929 . S
C3639 C3638 1.363 . S
C3639 C3645 1.428 . S
H3640 C3636 0.930 . S
H3641 C3638 0.929 . S
S3642 N3643 1.613 . S
S3642 N3644 1.610 . S
N3643 S3642 1.613 . S
N3643 C3646 1.350 . S
N3644 S3642 1.610 . S
N3644 C3645 1.351 . S
C3645 C3639 1.428 . S
C3645 N3644 1.351 . S
C3645 C3646 1.434 . S
C3646 C3637 1.429 . S
C3646 N3643 1.350 . S
C3646 C3645 1.434 . S
C3647 C3648 1.369 . S
C3647 C3649 1.419 . S
C3647 H3651 0.930 . S
C3648 C3647 1.369 . S
C3648 C3657 1.429 . S
C3649 C3647 1.419 . S
C3649 C3650 1.363 . S
C3649 H3652 0.929 . S
C3650 C3649 1.363 . S
C3650 C3656 1.428 . S
H3651 C3647 0.930 . S
H3652 C3649 0.929 . S
S3653 N3654 1.613 . S
S3653 N3655 1.610 . S
N3654 S3653 1.613 . S
N3654 C3657 1.350 . S
N3655 S3653 1.610 . S
N3655 C3656 1.351 . S
C3656 C3650 1.428 . S
C3656 N3655 1.351 . S
C3656 C3657 1.434 . S
C3657 C3648 1.429 . S
C3657 N3654 1.350 . S
C3657 C3656 1.434 . S
C3658 C3659 1.369 . S
C3658 C3660 1.419 . S
C3658 H3662 0.930 . S
C3659 C3658 1.369 . S
C3659 C3668 1.429 . S
C3660 C3658 1.419 . S
C3660 C3661 1.363 . S
C3660 H3663 0.929 . S
C3661 C3660 1.363 . S
C3661 C3667 1.428 . S
H3662 C3658 0.930 . S
H3663 C3660 0.929 . S
S3664 N3665 1.613 . S
S3664 N3666 1.610 . S
N3665 S3664 1.613 . S
N3665 C3668 1.350 . S
N3666 S3664 1.610 . S
N3666 C3667 1.351 . S
C3667 C3661 1.428 . S
C3667 N3666 1.351 . S
C3667 C3668 1.434 . S
C3668 C3659 1.429 . S
C3668 N3665 1.350 . S
C3668 C3667 1.434 . S
C3669 C3670 1.369 . S
C3669 C3671 1.419 . S
C3669 H3673 0.930 . S
C3670 C3669 1.369 . S
C3670 C3679 1.429 . S
C3671 C3669 1.419 . S
C3671 C3672 1.363 . S
C3671 H3674 0.929 . S
C3672 C3671 1.363 . S
C3672 C3678 1.428 . S
H3673 C3669 0.930 . S
H3674 C3671 0.929 . S
S3675 N3676 1.613 . S
S3675 N3677 1.610 . S
N3676 S3675 1.613 . S
N3676 C3679 1.350 . S
N3677 S3675 1.610 . S
N3677 C3678 1.351 . S
C3678 C3672 1.428 . S
C3678 N3677 1.351 . S
C3678 C3679 1.434 . S
C3679 C3670 1.429 . S
C3679 N3676 1.350 . S
C3679 C3678 1.434 . S
C3680 C3681 1.369 . S
C3680 C3682 1.419 . S
C3680 H3684 0.930 . S
C3681 C3680 1.369 . S
C3681 C3690 1.429 . S
C3682 C3680 1.419 . S
C3682 C3683 1.363 . S
C3682 H3685 0.929 . S
C3683 C3682 1.363 . S
C3683 C3689 1.428 . S
H3684 C3680 0.930 . S
H3685 C3682 0.929 . S
S3686 N3687 1.613 . S
S3686 N3688 1.610 . S
N3687 S3686 1.613 . S
N3687 C3690 1.350 . S
N3688 S3686 1.610 . S
N3688 C3689 1.351 . S
C3689 C3683 1.428 . S
C3689 N3688 1.351 . S
C3689 C3690 1.434 . S
C3690 C3681 1.429 . S
C3690 N3687 1.350 . S
C3690 C3689 1.434 . S
C3691 C3692 1.369 . S
C3691 C3693 1.419 . S
C3691 H3695 0.930 1_545 S
C3692 C3691 1.369 . S
C3692 C3701 1.429 . S
C3693 C3691 1.419 . S
C3693 C3694 1.363 . S
C3693 H3696 0.929 . S
C3694 C3693 1.363 . S
C3694 C3700 1.428 . S
H3695 C3691 0.930 1_565 S
H3696 C3693 0.929 . S
S3697 N3698 1.613 . S
S3697 N3699 1.610 . S
N3698 S3697 1.613 . S
N3698 C3701 1.350 . S
N3699 S3697 1.610 . S
N3699 C3700 1.351 . S
C3700 C3694 1.428 . S
C3700 N3699 1.351 . S
C3700 C3701 1.434 . S
C3701 C3692 1.429 . S
C3701 N3698 1.350 . S
C3701 C3700 1.434 . S
C3702 C3703 1.369 . S
C3702 C3704 1.419 . S
C3702 H3706 0.930 . S
C3703 C3702 1.369 . S
C3703 C3712 1.429 . S
C3704 C3702 1.419 . S
C3704 C3705 1.363 . S
C3704 H3707 0.929 . S
C3705 C3704 1.363 . S
C3705 C3711 1.428 . S
H3706 C3702 0.930 . S
H3707 C3704 0.929 . S
S3708 N3709 1.613 . S
S3708 N3710 1.610 . S
N3709 S3708 1.613 . S
N3709 C3712 1.350 . S
N3710 S3708 1.610 . S
N3710 C3711 1.351 . S
C3711 C3705 1.428 . S
C3711 N3710 1.351 . S
C3711 C3712 1.434 . S
C3712 C3703 1.429 . S
C3712 N3709 1.350 . S
C3712 C3711 1.434 . S
C3713 C3714 1.369 . S
C3713 C3715 1.419 . S
C3713 H3717 0.930 . S
C3714 C3713 1.369 . S
C3714 C3723 1.429 . S
C3715 C3713 1.419 . S
C3715 C3716 1.363 . S
C3715 H3718 0.929 . S
C3716 C3715 1.363 . S
C3716 C3722 1.428 . S
H3717 C3713 0.930 . S
H3718 C3715 0.929 . S
S3719 N3720 1.613 . S
S3719 N3721 1.610 . S
N3720 S3719 1.613 . S
N3720 C3723 1.350 . S
N3721 S3719 1.610 . S
N3721 C3722 1.351 . S
C3722 C3716 1.428 . S
C3722 N3721 1.351 . S
C3722 C3723 1.434 . S
C3723 C3714 1.429 . S
C3723 N3720 1.350 . S
C3723 C3722 1.434 . S
C3724 C3725 1.369 . S
C3724 C3726 1.419 . S
C3724 H3728 0.930 . S
C3725 C3724 1.369 . S
C3725 C3734 1.429 . S
C3726 C3724 1.419 . S
C3726 C3727 1.363 . S
C3726 H3729 0.929 . S
C3727 C3726 1.363 . S
C3727 C3733 1.428 . S
H3728 C3724 0.930 . S
H3729 C3726 0.929 . S
S3730 N3731 1.613 . S
S3730 N3732 1.610 . S
N3731 S3730 1.613 . S
N3731 C3734 1.350 . S
N3732 S3730 1.610 . S
N3732 C3733 1.351 . S
C3733 C3727 1.428 . S
C3733 N3732 1.351 . S
C3733 C3734 1.434 . S
C3734 C3725 1.429 . S
C3734 N3731 1.350 . S
C3734 C3733 1.434 . S
C3735 C3736 1.369 . S
C3735 C3737 1.419 . S
C3735 H3739 0.930 . S
C3736 C3735 1.369 . S
C3736 C3745 1.429 . S
C3737 C3735 1.419 . S
C3737 C3738 1.363 . S
C3737 H3740 0.929 . S
C3738 C3737 1.363 . S
C3738 C3744 1.428 . S
H3739 C3735 0.930 . S
H3740 C3737 0.929 . S
S3741 N3742 1.613 . S
S3741 N3743 1.610 . S
N3742 S3741 1.613 . S
N3742 C3745 1.350 . S
N3743 S3741 1.610 . S
N3743 C3744 1.351 . S
C3744 C3738 1.428 . S
C3744 N3743 1.351 . S
C3744 C3745 1.434 . S
C3745 C3736 1.429 . S
C3745 N3742 1.350 . S
C3745 C3744 1.434 . S
C3746 C3747 1.369 . S
C3746 C3748 1.419 . S
C3746 H3750 0.930 . S
C3747 C3746 1.369 . S
C3747 C3756 1.429 . S
C3748 C3746 1.419 . S
C3748 C3749 1.363 . S
C3748 H3751 0.929 . S
C3749 C3748 1.363 . S
C3749 C3755 1.428 . S
H3750 C3746 0.930 . S
H3751 C3748 0.929 . S
S3752 N3753 1.613 . S
S3752 N3754 1.610 . S
N3753 S3752 1.613 . S
N3753 C3756 1.350 . S
N3754 S3752 1.610 . S
N3754 C3755 1.351 . S
C3755 C3749 1.428 . S
C3755 N3754 1.351 . S
C3755 C3756 1.434 . S
C3756 C3747 1.429 . S
C3756 N3753 1.350 . S
C3756 C3755 1.434 . S
C3757 C3758 1.369 . S
C3757 C3759 1.419 . S
C3757 H3761 0.930 . S
C3758 C3757 1.369 . S
C3758 C3767 1.429 . S
C3759 C3757 1.419 . S
C3759 C3760 1.363 . S
C3759 H3762 0.929 . S
C3760 C3759 1.363 . S
C3760 C3766 1.428 . S
H3761 C3757 0.930 . S
H3762 C3759 0.929 . S
S3763 N3764 1.613 . S
S3763 N3765 1.610 . S
N3764 S3763 1.613 . S
N3764 C3767 1.350 . S
N3765 S3763 1.610 . S
N3765 C3766 1.351 . S
C3766 C3760 1.428 . S
C3766 N3765 1.351 . S
C3766 C3767 1.434 . S
C3767 C3758 1.429 . S
C3767 N3764 1.350 . S
C3767 C3766 1.434 . S
C3768 C3769 1.369 . S
C3768 C3770 1.419 . S
C3768 H3772 0.930 . S
C3769 C3768 1.369 . S
C3769 C3778 1.429 . S
C3770 C3768 1.419 . S
C3770 C3771 1.363 . S
C3770 H3773 0.929 . S
C3771 C3770 1.363 . S
C3771 C3777 1.428 . S
H3772 C3768 0.930 . S
H3773 C3770 0.929 . S
S3774 N3775 1.613 . S
S3774 N3776 1.610 . S
N3775 S3774 1.613 . S
N3775 C3778 1.350 . S
N3776 S3774 1.610 . S
N3776 C3777 1.351 . S
C3777 C3771 1.428 . S
C3777 N3776 1.351 . S
C3777 C3778 1.434 . S
C3778 C3769 1.429 . S
C3778 N3775 1.350 . S
C3778 C3777 1.434 . S
C3779 C3780 1.369 . S
C3779 C3781 1.419 . S
C3779 H3783 0.930 . S
C3780 C3779 1.369 . S
C3780 C3789 1.429 . S
C3781 C3779 1.419 . S
C3781 C3782 1.363 . S
C3781 H3784 0.929 . S
C3782 C3781 1.363 . S
C3782 C3788 1.428 . S
H3783 C3779 0.930 . S
H3784 C3781 0.929 . S
S3785 N3786 1.613 . S
S3785 N3787 1.610 . S
N3786 S3785 1.613 . S
N3786 C3789 1.350 . S
N3787 S3785 1.610 . S
N3787 C3788 1.351 . S
C3788 C3782 1.428 . S
C3788 N3787 1.351 . S
C3788 C3789 1.434 . S
C3789 C3780 1.429 . S
C3789 N3786 1.350 . S
C3789 C3788 1.434 . S
C3790 C3791 1.369 . S
C3790 C3792 1.419 . S
C3790 H3794 0.930 . S
C3791 C3790 1.369 . S
C3791 C3800 1.429 . S
C3792 C3790 1.419 . S
C3792 C3793 1.363 . S
C3792 H3795 0.929 . S
C3793 C3792 1.363 . S
C3793 C3799 1.428 . S
H3794 C3790 0.930 . S
H3795 C3792 0.929 . S
S3796 N3797 1.613 1_554 S
S3796 N3798 1.610 . S
N3797 S3796 1.613 1_556 S
N3797 C3800 1.350 1_556 S
N3798 S3796 1.610 . S
N3798 C3799 1.351 . S
C3799 C3793 1.428 . S
C3799 N3798 1.351 . S
C3799 C3800 1.434 . S
C3800 C3791 1.429 . S
C3800 N3797 1.350 1_554 S
C3800 C3799 1.434 . S
C3801 C3802 1.369 . S
C3801 C3803 1.419 . S
C3801 H3805 0.930 . S
C3802 C3801 1.369 . S
C3802 C3811 1.429 . S
C3803 C3801 1.419 . S
C3803 C3804 1.363 . S
C3803 H3806 0.929 . S
C3804 C3803 1.363 . S
C3804 C3810 1.428 . S
H3805 C3801 0.930 . S
H3806 C3803 0.929 . S
S3807 N3808 1.613 . S
S3807 N3809 1.610 . S
N3808 S3807 1.613 . S
N3808 C3811 1.350 . S
N3809 S3807 1.610 . S
N3809 C3810 1.351 . S
C3810 C3804 1.428 . S
C3810 N3809 1.351 . S
C3810 C3811 1.434 . S
C3811 C3802 1.429 . S
C3811 N3808 1.350 . S
C3811 C3810 1.434 . S
C3812 C3813 1.369 . S
C3812 C3814 1.419 . S
C3812 H3816 0.930 . S
C3813 C3812 1.369 . S
C3813 C3822 1.429 . S
C3814 C3812 1.419 . S
C3814 C3815 1.363 . S
C3814 H3817 0.929 . S
C3815 C3814 1.363 . S
C3815 C3821 1.428 . S
H3816 C3812 0.930 . S
H3817 C3814 0.929 . S
S3818 N3819 1.613 . S
S3818 N3820 1.610 . S
N3819 S3818 1.613 . S
N3819 C3822 1.350 . S
N3820 S3818 1.610 . S
N3820 C3821 1.351 . S
C3821 C3815 1.428 . S
C3821 N3820 1.351 . S
C3821 C3822 1.434 . S
C3822 C3813 1.429 . S
C3822 N3819 1.350 . S
C3822 C3821 1.434 . S
C3823 C3824 1.369 . S
C3823 C3825 1.419 . S
C3823 H3827 0.930 . S
C3824 C3823 1.369 . S
C3824 C3833 1.429 . S
C3825 C3823 1.419 . S
C3825 C3826 1.363 . S
C3825 H3828 0.929 . S
C3826 C3825 1.363 . S
C3826 C3832 1.428 . S
H3827 C3823 0.930 . S
H3828 C3825 0.929 . S
S3829 N3830 1.613 . S
S3829 N3831 1.610 . S
N3830 S3829 1.613 . S
N3830 C3833 1.350 . S
N3831 S3829 1.610 . S
N3831 C3832 1.351 . S
C3832 C3826 1.428 . S
C3832 N3831 1.351 . S
C3832 C3833 1.434 . S
C3833 C3824 1.429 . S
C3833 N3830 1.350 . S
C3833 C3832 1.434 . S
C3834 C3835 1.369 . S
C3834 C3836 1.419 . S
C3834 H3838 0.930 . S
C3835 C3834 1.369 . S
C3835 C3844 1.429 . S
C3836 C3834 1.419 . S
C3836 C3837 1.363 . S
C3836 H3839 0.929 . S
C3837 C3836 1.363 . S
C3837 C3843 1.428 . S
H3838 C3834 0.930 . S
H3839 C3836 0.929 . S
S3840 N3841 1.613 . S
S3840 N3842 1.610 . S
N3841 S3840 1.613 . S
N3841 C3844 1.350 . S
N3842 S3840 1.610 . S
N3842 C3843 1.351 . S
C3843 C3837 1.428 . S
C3843 N3842 1.351 . S
C3843 C3844 1.434 . S
C3844 C3835 1.429 . S
C3844 N3841 1.350 . S
C3844 C3843 1.434 . S
C3845 C3846 1.369 . S
C3845 C3847 1.419 . S
C3845 H3849 0.930 . S
C3846 C3845 1.369 . S
C3846 C3855 1.429 . S
C3847 C3845 1.419 . S
C3847 C3848 1.363 . S
C3847 H3850 0.929 . S
C3848 C3847 1.363 . S
C3848 C3854 1.428 . S
H3849 C3845 0.930 . S
H3850 C3847 0.929 . S
S3851 N3852 1.613 . S
S3851 N3853 1.610 . S
N3852 S3851 1.613 . S
N3852 C3855 1.350 . S
N3853 S3851 1.610 . S
N3853 C3854 1.351 . S
C3854 C3848 1.428 . S
C3854 N3853 1.351 . S
C3854 C3855 1.434 . S
C3855 C3846 1.429 . S
C3855 N3852 1.350 . S
C3855 C3854 1.434 . S
C3856 C3857 1.369 . S
C3856 C3858 1.419 . S
C3856 H3860 0.930 . S
C3857 C3856 1.369 . S
C3857 C3866 1.429 . S
C3858 C3856 1.419 . S
C3858 C3859 1.363 . S
C3858 H3861 0.929 . S
C3859 C3858 1.363 . S
C3859 C3865 1.428 . S
H3860 C3856 0.930 . S
H3861 C3858 0.929 . S
S3862 N3863 1.613 . S
S3862 N3864 1.610 . S
N3863 S3862 1.613 . S
N3863 C3866 1.350 . S
N3864 S3862 1.610 . S
N3864 C3865 1.351 . S
C3865 C3859 1.428 . S
C3865 N3864 1.351 . S
C3865 C3866 1.434 . S
C3866 C3857 1.429 . S
C3866 N3863 1.350 . S
C3866 C3865 1.434 . S
C3867 C3868 1.369 . S
C3867 C3869 1.419 . S
C3867 H3871 0.930 . S
C3868 C3867 1.369 . S
C3868 C3877 1.429 . S
C3869 C3867 1.419 . S
C3869 C3870 1.363 . S
C3869 H3872 0.929 . S
C3870 C3869 1.363 . S
C3870 C3876 1.428 . S
H3871 C3867 0.930 . S
H3872 C3869 0.929 . S
S3873 N3874 1.613 . S
S3873 N3875 1.610 . S
N3874 S3873 1.613 . S
N3874 C3877 1.350 . S
N3875 S3873 1.610 . S
N3875 C3876 1.351 . S
C3876 C3870 1.428 . S
C3876 N3875 1.351 . S
C3876 C3877 1.434 . S
C3877 C3868 1.429 . S
C3877 N3874 1.350 . S
C3877 C3876 1.434 . S
C3878 C3879 1.369 . S
C3878 C3880 1.419 . S
C3878 H3882 0.930 . S
C3879 C3878 1.369 . S
C3879 C3888 1.429 . S
C3880 C3878 1.419 . S
C3880 C3881 1.363 . S
C3880 H3883 0.929 . S
C3881 C3880 1.363 . S
C3881 C3887 1.428 . S
H3882 C3878 0.930 . S
H3883 C3880 0.929 . S
S3884 N3885 1.613 . S
S3884 N3886 1.610 . S
N3885 S3884 1.613 . S
N3885 C3888 1.350 . S
N3886 S3884 1.610 . S
N3886 C3887 1.351 . S
C3887 C3881 1.428 . S
C3887 N3886 1.351 . S
C3887 C3888 1.434 . S
C3888 C3879 1.429 . S
C3888 N3885 1.350 . S
C3888 C3887 1.434 . S
C3889 C3890 1.369 . S
C3889 C3891 1.419 . S
C3889 H3893 0.930 . S
C3890 C3889 1.369 . S
C3890 C3899 1.429 . S
C3891 C3889 1.419 . S
C3891 C3892 1.363 . S
C3891 H3894 0.929 . S
C3892 C3891 1.363 . S
C3892 C3898 1.428 . S
H3893 C3889 0.930 . S
H3894 C3891 0.929 . S
S3895 N3896 1.613 . S
S3895 N3897 1.610 . S
N3896 S3895 1.613 . S
N3896 C3899 1.350 . S
N3897 S3895 1.610 . S
N3897 C3898 1.351 . S
C3898 C3892 1.428 . S
C3898 N3897 1.351 . S
C3898 C3899 1.434 . S
C3899 C3890 1.429 . S
C3899 N3896 1.350 . S
C3899 C3898 1.434 . S
C3900 C3901 1.369 . S
C3900 C3902 1.419 . S
C3900 H3904 0.930 . S
C3901 C3900 1.369 . S
C3901 C3910 1.429 . S
C3902 C3900 1.419 . S
C3902 C3903 1.363 . S
C3902 H3905 0.929 . S
C3903 C3902 1.363 . S
C3903 C3909 1.428 . S
H3904 C3900 0.930 . S
H3905 C3902 0.929 . S
S3906 N3907 1.613 . S
S3906 N3908 1.610 . S
N3907 S3906 1.613 . S
N3907 C3910 1.350 . S
N3908 S3906 1.610 . S
N3908 C3909 1.351 . S
C3909 C3903 1.428 . S
C3909 N3908 1.351 . S
C3909 C3910 1.434 . S
C3910 C3901 1.429 . S
C3910 N3907 1.350 . S
C3910 C3909 1.434 . S
C3911 C3912 1.369 . S
C3911 C3913 1.419 . S
C3911 H3915 0.930 . S
C3912 C3911 1.369 . S
C3912 C3921 1.429 . S
C3913 C3911 1.419 . S
C3913 C3914 1.363 . S
C3913 H3916 0.929 . S
C3914 C3913 1.363 . S
C3914 C3920 1.428 . S
H3915 C3911 0.930 . S
H3916 C3913 0.929 . S
S3917 N3918 1.613 . S
S3917 N3919 1.610 . S
N3918 S3917 1.613 . S
N3918 C3921 1.350 . S
N3919 S3917 1.610 . S
N3919 C3920 1.351 . S
C3920 C3914 1.428 . S
C3920 N3919 1.351 . S
C3920 C3921 1.434 . S
C3921 C3912 1.429 . S
C3921 N3918 1.350 . S
C3921 C3920 1.434 . S
C3922 C3923 1.369 . S
C3922 C3924 1.419 . S
C3922 H3926 0.930 . S
C3923 C3922 1.369 . S
C3923 C3932 1.429 . S
C3924 C3922 1.419 . S
C3924 C3925 1.363 . S
C3924 H3927 0.929 . S
C3925 C3924 1.363 . S
C3925 C3931 1.428 . S
H3926 C3922 0.930 . S
H3927 C3924 0.929 . S
S3928 N3929 1.613 . S
S3928 N3930 1.610 . S
N3929 S3928 1.613 . S
N3929 C3932 1.350 . S
N3930 S3928 1.610 . S
N3930 C3931 1.351 . S
C3931 C3925 1.428 . S
C3931 N3930 1.351 . S
C3931 C3932 1.434 . S
C3932 C3923 1.429 . S
C3932 N3929 1.350 . S
C3932 C3931 1.434 . S
C3933 C3934 1.369 . S
C3933 C3935 1.419 . S
C3933 H3937 0.930 . S
C3934 C3933 1.369 . S
C3934 C3943 1.429 . S
C3935 C3933 1.419 . S
C3935 C3936 1.363 . S
C3935 H3938 0.929 . S
C3936 C3935 1.363 . S
C3936 C3942 1.428 . S
H3937 C3933 0.930 . S
H3938 C3935 0.929 . S
S3939 N3940 1.613 . S
S3939 N3941 1.610 . S
N3940 S3939 1.613 . S
N3940 C3943 1.350 . S
N3941 S3939 1.610 . S
N3941 C3942 1.351 . S
C3942 C3936 1.428 . S
C3942 N3941 1.351 . S
C3942 C3943 1.434 . S
C3943 C3934 1.429 . S
C3943 N3940 1.350 . S
C3943 C3942 1.434 . S
C3944 C3945 1.369 . S
C3944 C3946 1.419 . S
C3944 H3948 0.930 . S
C3945 C3944 1.369 . S
C3945 C3954 1.429 . S
C3946 C3944 1.419 . S
C3946 C3947 1.363 . S
C3946 H3949 0.929 . S
C3947 C3946 1.363 . S
C3947 C3953 1.428 . S
H3948 C3944 0.930 . S
H3949 C3946 0.929 . S
S3950 N3951 1.613 . S
S3950 N3952 1.610 . S
N3951 S3950 1.613 . S
N3951 C3954 1.350 . S
N3952 S3950 1.610 . S
N3952 C3953 1.351 . S
C3953 C3947 1.428 . S
C3953 N3952 1.351 . S
C3953 C3954 1.434 . S
C3954 C3945 1.429 . S
C3954 N3951 1.350 . S
C3954 C3953 1.434 . S
C3955 C3956 1.369 . S
C3955 C3957 1.419 . S
C3955 H3959 0.930 . S
C3956 C3955 1.369 . S
C3956 C3965 1.429 . S
C3957 C3955 1.419 . S
C3957 C3958 1.363 . S
C3957 H3960 0.929 . S
C3958 C3957 1.363 . S
C3958 C3964 1.428 . S
H3959 C3955 0.930 . S
H3960 C3957 0.929 . S
S3961 N3962 1.613 . S
S3961 N3963 1.610 . S
N3962 S3961 1.613 . S
N3962 C3965 1.350 . S
N3963 S3961 1.610 . S
N3963 C3964 1.351 . S
C3964 C3958 1.428 . S
C3964 N3963 1.351 . S
C3964 C3965 1.434 . S
C3965 C3956 1.429 . S
C3965 N3962 1.350 . S
C3965 C3964 1.434 . S
C3966 C3967 1.369 . S
C3966 C3968 1.419 . S
C3966 H3970 0.930 . S
C3967 C3966 1.369 . S
C3967 C3976 1.429 . S
C3968 C3966 1.419 . S
C3968 C3969 1.363 . S
C3968 H3971 0.929 . S
C3969 C3968 1.363 . S
C3969 C3975 1.428 . S
H3970 C3966 0.930 . S
H3971 C3968 0.929 . S
S3972 N3973 1.613 . S
S3972 N3974 1.610 . S
N3973 S3972 1.613 . S
N3973 C3976 1.350 . S
N3974 S3972 1.610 . S
N3974 C3975 1.351 . S
C3975 C3969 1.428 . S
C3975 N3974 1.351 . S
C3975 C3976 1.434 . S
C3976 C3967 1.429 . S
C3976 N3973 1.350 . S
C3976 C3975 1.434 . S
C3977 C3978 1.369 . S
C3977 C3979 1.419 . S
C3977 H3981 0.930 . S
C3978 C3977 1.369 . S
C3978 C3987 1.429 . S
C3979 C3977 1.419 . S
C3979 C3980 1.363 . S
C3979 H3982 0.929 . S
C3980 C3979 1.363 . S
C3980 C3986 1.428 . S
H3981 C3977 0.930 . S
H3982 C3979 0.929 . S
S3983 N3984 1.613 . S
S3983 N3985 1.610 . S
N3984 S3983 1.613 . S
N3984 C3987 1.350 . S
N3985 S3983 1.610 . S
N3985 C3986 1.351 . S
C3986 C3980 1.428 . S
C3986 N3985 1.351 . S
C3986 C3987 1.434 . S
C3987 C3978 1.429 . S
C3987 N3984 1.350 . S
C3987 C3986 1.434 . S
C3988 C3989 1.369 . S
C3988 C3990 1.419 . S
C3988 H3992 0.930 . S
C3989 C3988 1.369 . S
C3989 C3998 1.429 . S
C3990 C3988 1.419 . S
C3990 C3991 1.363 . S
C3990 H3993 0.929 . S
C3991 C3990 1.363 . S
C3991 C3997 1.428 . S
H3992 C3988 0.930 . S
H3993 C3990 0.929 . S
S3994 N3995 1.613 . S
S3994 N3996 1.610 . S
N3995 S3994 1.613 . S
N3995 C3998 1.350 . S
N3996 S3994 1.610 . S
N3996 C3997 1.351 . S
C3997 C3991 1.428 . S
C3997 N3996 1.351 . S
C3997 C3998 1.434 . S
C3998 C3989 1.429 . S
C3998 N3995 1.350 . S
C3998 C3997 1.434 . S
C3999 C4000 1.369 . S
C3999 C4001 1.419 . S
C3999 H4003 0.930 . S
C4000 C3999 1.369 . S
C4000 C4009 1.429 . S
C4001 C3999 1.419 . S
C4001 C4002 1.363 . S
C4001 H4004 0.929 . S
C4002 C4001 1.363 . S
C4002 C4008 1.428 . S
H4003 C3999 0.930 . S
H4004 C4001 0.929 . S
S4005 N4006 1.613 . S
S4005 N4007 1.610 . S
N4006 S4005 1.613 . S
N4006 C4009 1.350 . S
N4007 S4005 1.610 . S
N4007 C4008 1.351 . S
C4008 C4002 1.428 . S
C4008 N4007 1.351 . S
C4008 C4009 1.434 . S
C4009 C4000 1.429 . S
C4009 N4006 1.350 . S
C4009 C4008 1.434 . S
C4010 C4011 1.369 . S
C4010 C4012 1.419 . S
C4010 H4014 0.930 . S
C4011 C4010 1.369 . S
C4011 C4020 1.429 . S
C4012 C4010 1.419 . S
C4012 C4013 1.363 . S
C4012 H4015 0.929 . S
C4013 C4012 1.363 . S
C4013 C4019 1.428 . S
H4014 C4010 0.930 . S
H4015 C4012 0.929 . S
S4016 N4017 1.613 . S
S4016 N4018 1.610 . S
N4017 S4016 1.613 . S
N4017 C4020 1.350 . S
N4018 S4016 1.610 . S
N4018 C4019 1.351 . S
C4019 C4013 1.428 . S
C4019 N4018 1.351 . S
C4019 C4020 1.434 . S
C4020 C4011 1.429 . S
C4020 N4017 1.350 . S
C4020 C4019 1.434 . S
C4021 C4022 1.369 . S
C4021 C4023 1.419 . S
C4021 H4025 0.930 . S
C4022 C4021 1.369 . S
C4022 C4031 1.429 . S
C4023 C4021 1.419 . S
C4023 C4024 1.363 . S
C4023 H4026 0.929 . S
C4024 C4023 1.363 . S
C4024 C4030 1.428 . S
H4025 C4021 0.930 . S
H4026 C4023 0.929 . S
S4027 N4028 1.613 . S
S4027 N4029 1.610 . S
N4028 S4027 1.613 . S
N4028 C4031 1.350 . S
N4029 S4027 1.610 . S
N4029 C4030 1.351 . S
C4030 C4024 1.428 . S
C4030 N4029 1.351 . S
C4030 C4031 1.434 . S
C4031 C4022 1.429 . S
C4031 N4028 1.350 . S
C4031 C4030 1.434 . S
C4032 C4033 1.369 . S
C4032 C4034 1.419 . S
C4032 H4036 0.930 . S
C4033 C4032 1.369 . S
C4033 C4042 1.429 . S
C4034 C4032 1.419 . S
C4034 C4035 1.363 . S
C4034 H4037 0.929 . S
C4035 C4034 1.363 . S
C4035 C4041 1.428 . S
H4036 C4032 0.930 . S
H4037 C4034 0.929 . S
S4038 N4039 1.613 . S
S4038 N4040 1.610 . S
N4039 S4038 1.613 . S
N4039 C4042 1.350 . S
N4040 S4038 1.610 . S
N4040 C4041 1.351 . S
C4041 C4035 1.428 . S
C4041 N4040 1.351 . S
C4041 C4042 1.434 . S
C4042 C4033 1.429 . S
C4042 N4039 1.350 . S
C4042 C4041 1.434 . S
C4043 C4044 1.369 . S
C4043 C4045 1.419 . S
C4043 H4047 0.930 . S
C4044 C4043 1.369 . S
C4044 C4053 1.429 . S
C4045 C4043 1.419 . S
C4045 C4046 1.363 . S
C4045 H4048 0.929 . S
C4046 C4045 1.363 . S
C4046 C4052 1.428 . S
H4047 C4043 0.930 . S
H4048 C4045 0.929 . S
S4049 N4050 1.613 . S
S4049 N4051 1.610 . S
N4050 S4049 1.613 . S
N4050 C4053 1.350 . S
N4051 S4049 1.610 . S
N4051 C4052 1.351 . S
C4052 C4046 1.428 . S
C4052 N4051 1.351 . S
C4052 C4053 1.434 . S
C4053 C4044 1.429 . S
C4053 N4050 1.350 . S
C4053 C4052 1.434 . S
C4054 C4055 1.369 . S
C4054 C4056 1.419 . S
C4054 H4058 0.930 . S
C4055 C4054 1.369 . S
C4055 C4064 1.429 . S
C4056 C4054 1.419 . S
C4056 C4057 1.363 . S
C4056 H4059 0.929 . S
C4057 C4056 1.363 . S
C4057 C4063 1.428 . S
H4058 C4054 0.930 . S
H4059 C4056 0.929 . S
S4060 N4061 1.613 . S
S4060 N4062 1.610 . S
N4061 S4060 1.613 . S
N4061 C4064 1.350 . S
N4062 S4060 1.610 . S
N4062 C4063 1.351 . S
C4063 C4057 1.428 . S
C4063 N4062 1.351 . S
C4063 C4064 1.434 . S
C4064 C4055 1.429 . S
C4064 N4061 1.350 . S
C4064 C4063 1.434 . S
C4065 C4066 1.369 . S
C4065 C4067 1.419 . S
C4065 H4069 0.930 . S
C4066 C4065 1.369 . S
C4066 C4075 1.429 . S
C4067 C4065 1.419 . S
C4067 C4068 1.363 . S
C4067 H4070 0.929 . S
C4068 C4067 1.363 . S
C4068 C4074 1.428 . S
H4069 C4065 0.930 . S
H4070 C4067 0.929 . S
S4071 N4072 1.613 . S
S4071 N4073 1.610 . S
N4072 S4071 1.613 . S
N4072 C4075 1.350 . S
N4073 S4071 1.610 . S
N4073 C4074 1.351 . S
C4074 C4068 1.428 . S
C4074 N4073 1.351 . S
C4074 C4075 1.434 . S
C4075 C4066 1.429 . S
C4075 N4072 1.350 . S
C4075 C4074 1.434 . S
C4076 C4077 1.369 . S
C4076 C4078 1.419 . S
C4076 H4080 0.930 . S
C4077 C4076 1.369 . S
C4077 C4086 1.429 . S
C4078 C4076 1.419 . S
C4078 C4079 1.363 . S
C4078 H4081 0.929 . S
C4079 C4078 1.363 . S
C4079 C4085 1.428 . S
H4080 C4076 0.930 . S
H4081 C4078 0.929 . S
S4082 N4083 1.613 . S
S4082 N4084 1.610 . S
N4083 S4082 1.613 . S
N4083 C4086 1.350 . S
N4084 S4082 1.610 . S
N4084 C4085 1.351 . S
C4085 C4079 1.428 . S
C4085 N4084 1.351 . S
C4085 C4086 1.434 . S
C4086 C4077 1.429 . S
C4086 N4083 1.350 . S
C4086 C4085 1.434 . S
C4087 C4088 1.369 . S
C4087 C4089 1.419 . S
C4087 H4091 0.930 . S
C4088 C4087 1.369 . S
C4088 C4097 1.429 . S
C4089 C4087 1.419 . S
C4089 C4090 1.363 . S
C4089 H4092 0.929 . S
C4090 C4089 1.363 . S
C4090 C4096 1.428 . S
H4091 C4087 0.930 . S
H4092 C4089 0.929 . S
S4093 N4094 1.613 . S
S4093 N4095 1.610 . S
N4094 S4093 1.613 . S
N4094 C4097 1.350 . S
N4095 S4093 1.610 . S
N4095 C4096 1.351 . S
C4096 C4090 1.428 . S
C4096 N4095 1.351 . S
C4096 C4097 1.434 . S
C4097 C4088 1.429 . S
C4097 N4094 1.350 . S
C4097 C4096 1.434 . S
C4098 C4099 1.369 . S
C4098 C4100 1.419 . S
C4098 H4102 0.930 . S
C4099 C4098 1.369 . S
C4099 C4108 1.429 . S
C4100 C4098 1.419 . S
C4100 C4101 1.363 . S
C4100 H4103 0.929 . S
C4101 C4100 1.363 . S
C4101 C4107 1.428 . S
H4102 C4098 0.930 . S
H4103 C4100 0.929 . S
S4104 N4105 1.613 . S
S4104 N4106 1.610 . S
N4105 S4104 1.613 . S
N4105 C4108 1.350 . S
N4106 S4104 1.610 . S
N4106 C4107 1.351 . S
C4107 C4101 1.428 . S
C4107 N4106 1.351 . S
C4107 C4108 1.434 . S
C4108 C4099 1.429 . S
C4108 N4105 1.350 . S
C4108 C4107 1.434 . S
C4109 C4110 1.369 . S
C4109 C4111 1.419 . S
C4109 H4113 0.930 . S
C4110 C4109 1.369 . S
C4110 C4119 1.429 . S
C4111 C4109 1.419 . S
C4111 C4112 1.363 . S
C4111 H4114 0.929 . S
C4112 C4111 1.363 . S
C4112 C4118 1.428 . S
H4113 C4109 0.930 . S
H4114 C4111 0.929 . S
S4115 N4116 1.613 . S
S4115 N4117 1.610 . S
N4116 S4115 1.613 . S
N4116 C4119 1.350 . S
N4117 S4115 1.610 . S
N4117 C4118 1.351 . S
C4118 C4112 1.428 . S
C4118 N4117 1.351 . S
C4118 C4119 1.434 . S
C4119 C4110 1.429 . S
C4119 N4116 1.350 . S
C4119 C4118 1.434 . S
C4120 C4121 1.369 . S
C4120 C4122 1.419 . S
C4120 H4124 0.930 . S
C4121 C4120 1.369 . S
C4121 C4130 1.429 . S
C4122 C4120 1.419 . S
C4122 C4123 1.363 . S
C4122 H4125 0.929 . S
C4123 C4122 1.363 . S
C4123 C4129 1.428 . S
H4124 C4120 0.930 . S
H4125 C4122 0.929 . S
S4126 N4127 1.613 . S
S4126 N4128 1.610 . S
N4127 S4126 1.613 . S
N4127 C4130 1.350 . S
N4128 S4126 1.610 . S
N4128 C4129 1.351 . S
C4129 C4123 1.428 . S
C4129 N4128 1.351 . S
C4129 C4130 1.434 . S
C4130 C4121 1.429 . S
C4130 N4127 1.350 . S
C4130 C4129 1.434 . S
C4131 C4132 1.369 . S
C4131 C4133 1.419 . S
C4131 H4135 0.930 . S
C4132 C4131 1.369 . S
C4132 C4141 1.429 . S
C4133 C4131 1.419 . S
C4133 C4134 1.363 . S
C4133 H4136 0.929 . S
C4134 C4133 1.363 . S
C4134 C4140 1.428 . S
H4135 C4131 0.930 . S
H4136 C4133 0.929 . S
S4137 N4138 1.613 . S
S4137 N4139 1.610 . S
N4138 S4137 1.613 . S
N4138 C4141 1.350 . S
N4139 S4137 1.610 . S
N4139 C4140 1.351 . S
C4140 C4134 1.428 . S
C4140 N4139 1.351 . S
C4140 C4141 1.434 . S
C4141 C4132 1.429 . S
C4141 N4138 1.350 . S
C4141 C4140 1.434 . S
C4142 C4143 1.369 . S
C4142 C4144 1.419 . S
C4142 H4146 0.930 . S
C4143 C4142 1.369 . S
C4143 C4152 1.429 . S
C4144 C4142 1.419 . S
C4144 C4145 1.363 . S
C4144 H4147 0.929 . S
C4145 C4144 1.363 . S
C4145 C4151 1.428 . S
H4146 C4142 0.930 . S
H4147 C4144 0.929 . S
S4148 N4149 1.613 . S
S4148 N4150 1.610 . S
N4149 S4148 1.613 . S
N4149 C4152 1.350 . S
N4150 S4148 1.610 . S
N4150 C4151 1.351 . S
C4151 C4145 1.428 . S
C4151 N4150 1.351 . S
C4151 C4152 1.434 . S
C4152 C4143 1.429 . S
C4152 N4149 1.350 . S
C4152 C4151 1.434 . S
C4153 C4154 1.369 . S
C4153 C4155 1.419 . S
C4153 H4157 0.930 . S
C4154 C4153 1.369 . S
C4154 C4163 1.429 . S
C4155 C4153 1.419 . S
C4155 C4156 1.363 . S
C4155 H4158 0.929 . S
C4156 C4155 1.363 . S
C4156 C4162 1.428 . S
H4157 C4153 0.930 . S
H4158 C4155 0.929 . S
S4159 N4160 1.613 . S
S4159 N4161 1.610 . S
N4160 S4159 1.613 . S
N4160 C4163 1.350 . S
N4161 S4159 1.610 . S
N4161 C4162 1.351 . S
C4162 C4156 1.428 . S
C4162 N4161 1.351 . S
C4162 C4163 1.434 . S
C4163 C4154 1.429 . S
C4163 N4160 1.350 . S
C4163 C4162 1.434 . S
C4164 C4165 1.369 . S
C4164 C4166 1.419 . S
C4164 H4168 0.930 . S
C4165 C4164 1.369 . S
C4165 C4174 1.429 . S
C4166 C4164 1.419 . S
C4166 C4167 1.363 . S
C4166 H4169 0.929 . S
C4167 C4166 1.363 . S
C4167 C4173 1.428 . S
H4168 C4164 0.930 . S
H4169 C4166 0.929 . S
S4170 N4171 1.613 . S
S4170 N4172 1.610 . S
N4171 S4170 1.613 . S
N4171 C4174 1.350 . S
N4172 S4170 1.610 . S
N4172 C4173 1.351 . S
C4173 C4167 1.428 . S
C4173 N4172 1.351 . S
C4173 C4174 1.434 . S
C4174 C4165 1.429 . S
C4174 N4171 1.350 . S
C4174 C4173 1.434 . S
C4175 C4176 1.369 . S
C4175 C4177 1.419 . S
C4175 H4179 0.930 . S
C4176 C4175 1.369 . S
C4176 C4185 1.429 . S
C4177 C4175 1.419 . S
C4177 C4178 1.363 . S
C4177 H4180 0.929 . S
C4178 C4177 1.363 . S
C4178 C4184 1.428 . S
H4179 C4175 0.930 . S
H4180 C4177 0.929 . S
S4181 N4182 1.613 . S
S4181 N4183 1.610 . S
N4182 S4181 1.613 . S
N4182 C4185 1.350 . S
N4183 S4181 1.610 . S
N4183 C4184 1.351 . S
C4184 C4178 1.428 . S
C4184 N4183 1.351 . S
C4184 C4185 1.434 . S
C4185 C4176 1.429 . S
C4185 N4182 1.350 . S
C4185 C4184 1.434 . S
C4186 C4187 1.369 . S
C4186 C4188 1.419 . S
C4186 H4190 0.930 . S
C4187 C4186 1.369 . S
C4187 C4196 1.429 . S
C4188 C4186 1.419 . S
C4188 C4189 1.363 . S
C4188 H4191 0.929 . S
C4189 C4188 1.363 . S
C4189 C4195 1.428 . S
H4190 C4186 0.930 . S
H4191 C4188 0.929 . S
S4192 N4193 1.613 . S
S4192 N4194 1.610 . S
N4193 S4192 1.613 . S
N4193 C4196 1.350 . S
N4194 S4192 1.610 . S
N4194 C4195 1.351 . S
C4195 C4189 1.428 . S
C4195 N4194 1.351 . S
C4195 C4196 1.434 . S
C4196 C4187 1.429 . S
C4196 N4193 1.350 . S
C4196 C4195 1.434 . S
C4197 C4198 1.369 . S
C4197 C4199 1.419 . S
C4197 H4201 0.930 . S
C4198 C4197 1.369 . S
C4198 C4207 1.429 . S
C4199 C4197 1.419 . S
C4199 C4200 1.363 . S
C4199 H4202 0.929 . S
C4200 C4199 1.363 . S
C4200 C4206 1.428 . S
H4201 C4197 0.930 . S
H4202 C4199 0.929 . S
S4203 N4204 1.613 . S
S4203 N4205 1.610 . S
N4204 S4203 1.613 . S
N4204 C4207 1.350 . S
N4205 S4203 1.610 . S
N4205 C4206 1.351 . S
C4206 C4200 1.428 . S
C4206 N4205 1.351 . S
C4206 C4207 1.434 . S
C4207 C4198 1.429 . S
C4207 N4204 1.350 . S
C4207 C4206 1.434 . S
C4208 C4209 1.369 . S
C4208 C4210 1.419 . S
C4208 H4212 0.930 . S
C4209 C4208 1.369 . S
C4209 C4218 1.429 . S
C4210 C4208 1.419 . S
C4210 C4211 1.363 . S
C4210 H4213 0.929 . S
C4211 C4210 1.363 . S
C4211 C4217 1.428 . S
H4212 C4208 0.930 . S
H4213 C4210 0.929 . S
S4214 N4215 1.613 . S
S4214 N4216 1.610 . S
N4215 S4214 1.613 . S
N4215 C4218 1.350 . S
N4216 S4214 1.610 . S
N4216 C4217 1.351 . S
C4217 C4211 1.428 . S
C4217 N4216 1.351 . S
C4217 C4218 1.434 . S
C4218 C4209 1.429 . S
C4218 N4215 1.350 . S
C4218 C4217 1.434 . S
C4219 C4220 1.369 . S
C4219 C4221 1.419 . S
C4219 H4223 0.930 . S
C4220 C4219 1.369 . S
C4220 C4229 1.429 . S
C4221 C4219 1.419 . S
C4221 C4222 1.363 . S
C4221 H4224 0.929 . S
C4222 C4221 1.363 . S
C4222 C4228 1.428 . S
H4223 C4219 0.930 . S
H4224 C4221 0.929 . S
S4225 N4226 1.613 . S
S4225 N4227 1.610 . S
N4226 S4225 1.613 . S
N4226 C4229 1.350 . S
N4227 S4225 1.610 . S
N4227 C4228 1.351 . S
C4228 C4222 1.428 . S
C4228 N4227 1.351 . S
C4228 C4229 1.434 . S
C4229 C4220 1.429 . S
C4229 N4226 1.350 . S
C4229 C4228 1.434 . S
C4230 C4231 1.369 . S
C4230 C4232 1.419 . S
C4230 H4234 0.930 . S
C4231 C4230 1.369 . S
C4231 C4240 1.429 . S
C4232 C4230 1.419 . S
C4232 C4233 1.363 . S
C4232 H4235 0.929 . S
C4233 C4232 1.363 . S
C4233 C4239 1.428 . S
H4234 C4230 0.930 . S
H4235 C4232 0.929 . S
S4236 N4237 1.613 . S
S4236 N4238 1.610 . S
N4237 S4236 1.613 . S
N4237 C4240 1.350 . S
N4238 S4236 1.610 . S
N4238 C4239 1.351 . S
C4239 C4233 1.428 . S
C4239 N4238 1.351 . S
C4239 C4240 1.434 . S
C4240 C4231 1.429 . S
C4240 N4237 1.350 . S
C4240 C4239 1.434 . S
C4241 C4242 1.369 . S
C4241 C4243 1.419 . S
C4241 H4245 0.930 . S
C4242 C4241 1.369 . S
C4242 C4251 1.429 . S
C4243 C4241 1.419 . S
C4243 C4244 1.363 . S
C4243 H4246 0.929 . S
C4244 C4243 1.363 . S
C4244 C4250 1.428 . S
H4245 C4241 0.930 . S
H4246 C4243 0.929 . S
S4247 N4248 1.613 . S
S4247 N4249 1.610 . S
N4248 S4247 1.613 . S
N4248 C4251 1.350 . S
N4249 S4247 1.610 . S
N4249 C4250 1.351 . S
C4250 C4244 1.428 . S
C4250 N4249 1.351 . S
C4250 C4251 1.434 . S
C4251 C4242 1.429 . S
C4251 N4248 1.350 . S
C4251 C4250 1.434 . S
C4252 C4253 1.369 . S
C4252 C4254 1.419 . S
C4252 H4256 0.930 . S
C4253 C4252 1.369 . S
C4253 C4262 1.429 . S
C4254 C4252 1.419 . S
C4254 C4255 1.363 . S
C4254 H4257 0.929 . S
C4255 C4254 1.363 . S
C4255 C4261 1.428 . S
H4256 C4252 0.930 . S
H4257 C4254 0.929 . S
S4258 N4259 1.613 . S
S4258 N4260 1.610 . S
N4259 S4258 1.613 . S
N4259 C4262 1.350 . S
N4260 S4258 1.610 . S
N4260 C4261 1.351 . S
C4261 C4255 1.428 . S
C4261 N4260 1.351 . S
C4261 C4262 1.434 . S
C4262 C4253 1.429 . S
C4262 N4259 1.350 . S
C4262 C4261 1.434 . S
C4263 C4264 1.369 . S
C4263 C4265 1.419 . S
C4263 H4267 0.930 . S
C4264 C4263 1.369 . S
C4264 C4273 1.429 . S
C4265 C4263 1.419 . S
C4265 C4266 1.363 . S
C4265 H4268 0.929 . S
C4266 C4265 1.363 . S
C4266 C4272 1.428 . S
H4267 C4263 0.930 . S
H4268 C4265 0.929 . S
S4269 N4270 1.613 . S
S4269 N4271 1.610 . S
N4270 S4269 1.613 . S
N4270 C4273 1.350 . S
N4271 S4269 1.610 . S
N4271 C4272 1.351 . S
C4272 C4266 1.428 . S
C4272 N4271 1.351 . S
C4272 C4273 1.434 . S
C4273 C4264 1.429 . S
C4273 N4270 1.350 . S
C4273 C4272 1.434 . S
C4274 C4275 1.369 . S
C4274 C4276 1.419 . S
C4274 H4278 0.930 . S
C4275 C4274 1.369 . S
C4275 C4284 1.429 . S
C4276 C4274 1.419 . S
C4276 C4277 1.363 . S
C4276 H4279 0.929 . S
C4277 C4276 1.363 . S
C4277 C4283 1.428 . S
H4278 C4274 0.930 . S
H4279 C4276 0.929 . S
S4280 N4281 1.613 . S
S4280 N4282 1.610 . S
N4281 S4280 1.613 . S
N4281 C4284 1.350 . S
N4282 S4280 1.610 . S
N4282 C4283 1.351 . S
C4283 C4277 1.428 . S
C4283 N4282 1.351 . S
C4283 C4284 1.434 . S
C4284 C4275 1.429 . S
C4284 N4281 1.350 . S
C4284 C4283 1.434 . S
C4285 C4286 1.369 . S
C4285 C4287 1.419 . S
C4285 H4289 0.930 . S
C4286 C4285 1.369 . S
C4286 C4295 1.429 . S
C4287 C4285 1.419 . S
C4287 C4288 1.363 . S
C4287 H4290 0.929 . S
C4288 C4287 1.363 . S
C4288 C4294 1.428 . S
H4289 C4285 0.930 . S
H4290 C4287 0.929 . S
S4291 N4292 1.613 . S
S4291 N4293 1.610 . S
N4292 S4291 1.613 . S
N4292 C4295 1.350 . S
N4293 S4291 1.610 . S
N4293 C4294 1.351 . S
C4294 C4288 1.428 . S
C4294 N4293 1.351 . S
C4294 C4295 1.434 . S
C4295 C4286 1.429 . S
C4295 N4292 1.350 . S
C4295 C4294 1.434 . S
C4296 C4297 1.369 . S
C4296 C4298 1.419 . S
C4296 H4300 0.930 . S
C4297 C4296 1.369 . S
C4297 C4306 1.429 . S
C4298 C4296 1.419 . S
C4298 C4299 1.363 . S
C4298 H4301 0.929 . S
C4299 C4298 1.363 . S
C4299 C4305 1.428 . S
H4300 C4296 0.930 . S
H4301 C4298 0.929 . S
S4302 N4303 1.613 . S
S4302 N4304 1.610 . S
N4303 S4302 1.613 . S
N4303 C4306 1.350 . S
N4304 S4302 1.610 . S
N4304 C4305 1.351 . S
C4305 C4299 1.428 . S
C4305 N4304 1.351 . S
C4305 C4306 1.434 . S
C4306 C4297 1.429 . S
C4306 N4303 1.350 . S
C4306 C4305 1.434 . S
C4307 C4308 1.369 . S
C4307 C4309 1.419 . S
C4307 H4311 0.930 . S
C4308 C4307 1.369 . S
C4308 C4317 1.429 . S
C4309 C4307 1.419 . S
C4309 C4310 1.363 . S
C4309 H4312 0.929 . S
C4310 C4309 1.363 . S
C4310 C4316 1.428 . S
H4311 C4307 0.930 . S
H4312 C4309 0.929 . S
S4313 N4314 1.613 . S
S4313 N4315 1.610 . S
N4314 S4313 1.613 . S
N4314 C4317 1.350 . S
N4315 S4313 1.610 . S
N4315 C4316 1.351 . S
C4316 C4310 1.428 . S
C4316 N4315 1.351 . S
C4316 C4317 1.434 . S
C4317 C4308 1.429 . S
C4317 N4314 1.350 . S
C4317 C4316 1.434 . S
C4318 C4319 1.369 . S
C4318 C4320 1.419 . S
C4318 H4322 0.930 . S
C4319 C4318 1.369 . S
C4319 C4328 1.429 . S
C4320 C4318 1.419 . S
C4320 C4321 1.363 . S
C4320 H4323 0.929 . S
C4321 C4320 1.363 . S
C4321 C4327 1.428 . S
H4322 C4318 0.930 . S
H4323 C4320 0.929 . S
S4324 N4325 1.613 . S
S4324 N4326 1.610 . S
N4325 S4324 1.613 . S
N4325 C4328 1.350 . S
N4326 S4324 1.610 . S
N4326 C4327 1.351 . S
C4327 C4321 1.428 . S
C4327 N4326 1.351 . S
C4327 C4328 1.434 . S
C4328 C4319 1.429 . S
C4328 N4325 1.350 . S
C4328 C4327 1.434 . S
C4329 C4330 1.369 . S
C4329 C4331 1.419 . S
C4329 H4333 0.930 . S
C4330 C4329 1.369 . S
C4330 C4339 1.429 . S
C4331 C4329 1.419 . S
C4331 C4332 1.363 . S
C4331 H4334 0.929 . S
C4332 C4331 1.363 . S
C4332 C4338 1.428 . S
H4333 C4329 0.930 . S
H4334 C4331 0.929 . S
S4335 N4336 1.613 . S
S4335 N4337 1.610 . S
N4336 S4335 1.613 . S
N4336 C4339 1.350 . S
N4337 S4335 1.610 . S
N4337 C4338 1.351 . S
C4338 C4332 1.428 . S
C4338 N4337 1.351 . S
C4338 C4339 1.434 . S
C4339 C4330 1.429 . S
C4339 N4336 1.350 . S
C4339 C4338 1.434 . S
C4340 C4341 1.369 . S
C4340 C4342 1.419 . S
C4340 H4344 0.930 . S
C4341 C4340 1.369 . S
C4341 C4350 1.429 . S
C4342 C4340 1.419 . S
C4342 C4343 1.363 . S
C4342 H4345 0.929 . S
C4343 C4342 1.363 . S
C4343 C4349 1.428 . S
H4344 C4340 0.930 . S
H4345 C4342 0.929 . S
S4346 N4347 1.613 . S
S4346 N4348 1.610 . S
N4347 S4346 1.613 . S
N4347 C4350 1.350 . S
N4348 S4346 1.610 . S
N4348 C4349 1.351 . S
C4349 C4343 1.428 . S
C4349 N4348 1.351 . S
C4349 C4350 1.434 . S
C4350 C4341 1.429 . S
C4350 N4347 1.350 . S
C4350 C4349 1.434 . S
C4351 C4352 1.369 . S
C4351 C4353 1.419 . S
C4351 H4355 0.930 . S
C4352 C4351 1.369 . S
C4352 C4361 1.429 . S
C4353 C4351 1.419 . S
C4353 C4354 1.363 . S
C4353 H4356 0.929 . S
C4354 C4353 1.363 . S
C4354 C4360 1.428 . S
H4355 C4351 0.930 . S
H4356 C4353 0.929 . S
S4357 N4358 1.613 . S
S4357 N4359 1.610 . S
N4358 S4357 1.613 . S
N4358 C4361 1.350 . S
N4359 S4357 1.610 . S
N4359 C4360 1.351 . S
C4360 C4354 1.428 . S
C4360 N4359 1.351 . S
C4360 C4361 1.434 . S
C4361 C4352 1.429 . S
C4361 N4358 1.350 . S
C4361 C4360 1.434 . S
C4362 C4363 1.369 . S
C4362 C4364 1.419 . S
C4362 H4366 0.930 . S
C4363 C4362 1.369 . S
C4363 C4372 1.429 . S
C4364 C4362 1.419 . S
C4364 C4365 1.363 . S
C4364 H4367 0.929 . S
C4365 C4364 1.363 . S
C4365 C4371 1.428 . S
H4366 C4362 0.930 . S
H4367 C4364 0.929 . S
S4368 N4369 1.613 . S
S4368 N4370 1.610 . S
N4369 S4368 1.613 . S
N4369 C4372 1.350 . S
N4370 S4368 1.610 . S
N4370 C4371 1.351 . S
C4371 C4365 1.428 . S
C4371 N4370 1.351 . S
C4371 C4372 1.434 . S
C4372 C4363 1.429 . S
C4372 N4369 1.350 . S
C4372 C4371 1.434 . S
C4373 C4374 1.369 . S
C4373 C4375 1.419 . S
C4373 H4377 0.930 . S
C4374 C4373 1.369 . S
C4374 C4383 1.429 . S
C4375 C4373 1.419 . S
C4375 C4376 1.363 . S
C4375 H4378 0.929 . S
C4376 C4375 1.363 . S
C4376 C4382 1.428 . S
H4377 C4373 0.930 . S
H4378 C4375 0.929 . S
S4379 N4380 1.613 . S
S4379 N4381 1.610 . S
N4380 S4379 1.613 . S
N4380 C4383 1.350 . S
N4381 S4379 1.610 . S
N4381 C4382 1.351 . S
C4382 C4376 1.428 . S
C4382 N4381 1.351 . S
C4382 C4383 1.434 . S
C4383 C4374 1.429 . S
C4383 N4380 1.350 . S
C4383 C4382 1.434 . S
C4384 C4385 1.369 . S
C4384 C4386 1.419 . S
C4384 H4388 0.930 . S
C4385 C4384 1.369 . S
C4385 C4394 1.429 . S
C4386 C4384 1.419 . S
C4386 C4387 1.363 . S
C4386 H4389 0.929 . S
C4387 C4386 1.363 . S
C4387 C4393 1.428 . S
H4388 C4384 0.930 . S
H4389 C4386 0.929 . S
S4390 N4391 1.613 . S
S4390 N4392 1.610 . S
N4391 S4390 1.613 . S
N4391 C4394 1.350 . S
N4392 S4390 1.610 . S
N4392 C4393 1.351 . S
C4393 C4387 1.428 . S
C4393 N4392 1.351 . S
C4393 C4394 1.434 . S
C4394 C4385 1.429 . S
C4394 N4391 1.350 . S
C4394 C4393 1.434 . S
C4395 C4396 1.369 . S
C4395 C4397 1.419 . S
C4395 H4399 0.930 . S
C4396 C4395 1.369 . S
C4396 C4405 1.429 . S
C4397 C4395 1.419 . S
C4397 C4398 1.363 . S
C4397 H4400 0.929 . S
C4398 C4397 1.363 . S
C4398 C4404 1.428 . S
H4399 C4395 0.930 . S
H4400 C4397 0.929 . S
S4401 N4402 1.613 . S
S4401 N4403 1.610 . S
N4402 S4401 1.613 . S
N4402 C4405 1.350 . S
N4403 S4401 1.610 . S
N4403 C4404 1.351 . S
C4404 C4398 1.428 . S
C4404 N4403 1.351 . S
C4404 C4405 1.434 . S
C4405 C4396 1.429 . S
C4405 N4402 1.350 . S
C4405 C4404 1.434 . S
C4406 C4407 1.369 . S
C4406 C4408 1.419 . S
C4406 H4410 0.930 . S
C4407 C4406 1.369 . S
C4407 C4416 1.429 . S
C4408 C4406 1.419 . S
C4408 C4409 1.363 . S
C4408 H4411 0.929 . S
C4409 C4408 1.363 . S
C4409 C4415 1.428 . S
H4410 C4406 0.930 . S
H4411 C4408 0.929 . S
S4412 N4413 1.613 . S
S4412 N4414 1.610 . S
N4413 S4412 1.613 . S
N4413 C4416 1.350 . S
N4414 S4412 1.610 . S
N4414 C4415 1.351 . S
C4415 C4409 1.428 . S
C4415 N4414 1.351 . S
C4415 C4416 1.434 . S
C4416 C4407 1.429 . S
C4416 N4413 1.350 . S
C4416 C4415 1.434 . S
C4417 C4418 1.369 . S
C4417 C4419 1.419 . S
C4417 H4421 0.930 . S
C4418 C4417 1.369 . S
C4418 C4427 1.429 . S
C4419 C4417 1.419 . S
C4419 C4420 1.363 . S
C4419 H4422 0.929 . S
C4420 C4419 1.363 . S
C4420 C4426 1.428 . S
H4421 C4417 0.930 . S
H4422 C4419 0.929 . S
S4423 N4424 1.613 . S
S4423 N4425 1.610 . S
N4424 S4423 1.613 . S
N4424 C4427 1.350 . S
N4425 S4423 1.610 . S
N4425 C4426 1.351 . S
C4426 C4420 1.428 . S
C4426 N4425 1.351 . S
C4426 C4427 1.434 . S
C4427 C4418 1.429 . S
C4427 N4424 1.350 . S
C4427 C4426 1.434 . S
C4428 C4429 1.369 . S
C4428 C4430 1.419 . S
C4428 H4432 0.930 . S
C4429 C4428 1.369 . S
C4429 C4438 1.429 . S
C4430 C4428 1.419 . S
C4430 C4431 1.363 . S
C4430 H4433 0.929 . S
C4431 C4430 1.363 . S
C4431 C4437 1.428 . S
H4432 C4428 0.930 . S
H4433 C4430 0.929 . S
S4434 N4435 1.613 . S
S4434 N4436 1.610 . S
N4435 S4434 1.613 . S
N4435 C4438 1.350 . S
N4436 S4434 1.610 . S
N4436 C4437 1.351 . S
C4437 C4431 1.428 . S
C4437 N4436 1.351 . S
C4437 C4438 1.434 . S
C4438 C4429 1.429 . S
C4438 N4435 1.350 . S
C4438 C4437 1.434 . S
C4439 C4440 1.369 . S
C4439 C4441 1.419 . S
C4439 H4443 0.930 . S
C4440 C4439 1.369 . S
C4440 C4449 1.429 . S
C4441 C4439 1.419 . S
C4441 C4442 1.363 . S
C4441 H4444 0.929 . S
C4442 C4441 1.363 . S
C4442 C4448 1.428 . S
H4443 C4439 0.930 . S
H4444 C4441 0.929 . S
S4445 N4446 1.613 . S
S4445 N4447 1.610 . S
N4446 S4445 1.613 . S
N4446 C4449 1.350 . S
N4447 S4445 1.610 . S
N4447 C4448 1.351 . S
C4448 C4442 1.428 . S
C4448 N4447 1.351 . S
C4448 C4449 1.434 . S
C4449 C4440 1.429 . S
C4449 N4446 1.350 . S
C4449 C4448 1.434 . S
C4450 C4451 1.369 . S
C4450 C4452 1.419 . S
C4450 H4454 0.930 . S
C4451 C4450 1.369 . S
C4451 C4460 1.429 . S
C4452 C4450 1.419 . S
C4452 C4453 1.363 . S
C4452 H4455 0.929 . S
C4453 C4452 1.363 . S
C4453 C4459 1.428 . S
H4454 C4450 0.930 . S
H4455 C4452 0.929 . S
S4456 N4457 1.613 . S
S4456 N4458 1.610 . S
N4457 S4456 1.613 . S
N4457 C4460 1.350 . S
N4458 S4456 1.610 . S
N4458 C4459 1.351 . S
C4459 C4453 1.428 . S
C4459 N4458 1.351 . S
C4459 C4460 1.434 . S
C4460 C4451 1.429 . S
C4460 N4457 1.350 . S
C4460 C4459 1.434 . S
C4461 C4462 1.369 . S
C4461 C4463 1.419 . S
C4461 H4465 0.930 . S
C4462 C4461 1.369 . S
C4462 C4471 1.429 . S
C4463 C4461 1.419 . S
C4463 C4464 1.363 . S
C4463 H4466 0.929 . S
C4464 C4463 1.363 . S
C4464 C4470 1.428 . S
H4465 C4461 0.930 . S
H4466 C4463 0.929 . S
S4467 N4468 1.613 . S
S4467 N4469 1.610 . S
N4468 S4467 1.613 . S
N4468 C4471 1.350 . S
N4469 S4467 1.610 . S
N4469 C4470 1.351 . S
C4470 C4464 1.428 . S
C4470 N4469 1.351 . S
C4470 C4471 1.434 . S
C4471 C4462 1.429 . S
C4471 N4468 1.350 . S
C4471 C4470 1.434 . S
C4472 C4473 1.369 . S
C4472 C4474 1.419 . S
C4472 H4476 0.930 . S
C4473 C4472 1.369 . S
C4473 C4482 1.429 . S
C4474 C4472 1.419 . S
C4474 C4475 1.363 . S
C4474 H4477 0.929 . S
C4475 C4474 1.363 . S
C4475 C4481 1.428 . S
H4476 C4472 0.930 . S
H4477 C4474 0.929 . S
S4478 N4479 1.613 . S
S4478 N4480 1.610 . S
N4479 S4478 1.613 . S
N4479 C4482 1.350 . S
N4480 S4478 1.610 . S
N4480 C4481 1.351 . S
C4481 C4475 1.428 . S
C4481 N4480 1.351 . S
C4481 C4482 1.434 . S
C4482 C4473 1.429 . S
C4482 N4479 1.350 . S
C4482 C4481 1.434 . S
C4483 C4484 1.369 . S
C4483 C4485 1.419 . S
C4483 H4487 0.930 . S
C4484 C4483 1.369 . S
C4484 C4493 1.429 . S
C4485 C4483 1.419 . S
C4485 C4486 1.363 . S
C4485 H4488 0.929 . S
C4486 C4485 1.363 . S
C4486 C4492 1.428 . S
H4487 C4483 0.930 . S
H4488 C4485 0.929 . S
S4489 N4490 1.613 . S
S4489 N4491 1.610 . S
N4490 S4489 1.613 . S
N4490 C4493 1.350 . S
N4491 S4489 1.610 . S
N4491 C4492 1.351 . S
C4492 C4486 1.428 . S
C4492 N4491 1.351 . S
C4492 C4493 1.434 . S
C4493 C4484 1.429 . S
C4493 N4490 1.350 . S
C4493 C4492 1.434 . S
C4494 C4495 1.369 . S
C4494 C4496 1.419 . S
C4494 H4498 0.930 . S
C4495 C4494 1.369 . S
C4495 C4504 1.429 . S
C4496 C4494 1.419 . S
C4496 C4497 1.363 . S
C4496 H4499 0.929 . S
C4497 C4496 1.363 . S
C4497 C4503 1.428 . S
H4498 C4494 0.930 . S
H4499 C4496 0.929 . S
S4500 N4501 1.613 . S
S4500 N4502 1.610 . S
N4501 S4500 1.613 . S
N4501 C4504 1.350 . S
N4502 S4500 1.610 . S
N4502 C4503 1.351 . S
C4503 C4497 1.428 . S
C4503 N4502 1.351 . S
C4503 C4504 1.434 . S
C4504 C4495 1.429 . S
C4504 N4501 1.350 . S
C4504 C4503 1.434 . S
C4505 C4506 1.369 . S
C4505 C4507 1.419 . S
C4505 H4509 0.930 . S
C4506 C4505 1.369 . S
C4506 C4515 1.429 . S
C4507 C4505 1.419 . S
C4507 C4508 1.363 . S
C4507 H4510 0.929 . S
C4508 C4507 1.363 . S
C4508 C4514 1.428 . S
H4509 C4505 0.930 . S
H4510 C4507 0.929 . S
S4511 N4512 1.613 . S
S4511 N4513 1.610 . S
N4512 S4511 1.613 . S
N4512 C4515 1.350 . S
N4513 S4511 1.610 . S
N4513 C4514 1.351 . S
C4514 C4508 1.428 . S
C4514 N4513 1.351 . S
C4514 C4515 1.434 . S
C4515 C4506 1.429 . S
C4515 N4512 1.350 . S
C4515 C4514 1.434 . S
C4516 C4517 1.369 . S
C4516 C4518 1.419 . S
C4516 H4520 0.930 . S
C4517 C4516 1.369 . S
C4517 C4526 1.429 . S
C4518 C4516 1.419 . S
C4518 C4519 1.363 . S
C4518 H4521 0.929 . S
C4519 C4518 1.363 . S
C4519 C4525 1.428 . S
H4520 C4516 0.930 . S
H4521 C4518 0.929 . S
S4522 N4523 1.613 . S
S4522 N4524 1.610 . S
N4523 S4522 1.613 . S
N4523 C4526 1.350 . S
N4524 S4522 1.610 . S
N4524 C4525 1.351 . S
C4525 C4519 1.428 . S
C4525 N4524 1.351 . S
C4525 C4526 1.434 . S
C4526 C4517 1.429 . S
C4526 N4523 1.350 . S
C4526 C4525 1.434 . S
C4527 C4528 1.369 . S
C4527 C4529 1.419 . S
C4527 H4531 0.930 . S
C4528 C4527 1.369 . S
C4528 C4537 1.429 . S
C4529 C4527 1.419 . S
C4529 C4530 1.363 . S
C4529 H4532 0.929 . S
C4530 C4529 1.363 . S
C4530 C4536 1.428 . S
H4531 C4527 0.930 . S
H4532 C4529 0.929 . S
S4533 N4534 1.613 . S
S4533 N4535 1.610 . S
N4534 S4533 1.613 . S
N4534 C4537 1.350 . S
N4535 S4533 1.610 . S
N4535 C4536 1.351 . S
C4536 C4530 1.428 . S
C4536 N4535 1.351 . S
C4536 C4537 1.434 . S
C4537 C4528 1.429 . S
C4537 N4534 1.350 . S
C4537 C4536 1.434 . S
C4538 C4539 1.369 . S
C4538 C4540 1.419 . S
C4538 H4542 0.930 . S
C4539 C4538 1.369 . S
C4539 C4548 1.429 . S
C4540 C4538 1.419 . S
C4540 C4541 1.363 . S
C4540 H4543 0.929 . S
C4541 C4540 1.363 . S
C4541 C4547 1.428 . S
H4542 C4538 0.930 . S
H4543 C4540 0.929 . S
S4544 N4545 1.613 . S
S4544 N4546 1.610 . S
N4545 S4544 1.613 . S
N4545 C4548 1.350 . S
N4546 S4544 1.610 . S
N4546 C4547 1.351 . S
C4547 C4541 1.428 . S
C4547 N4546 1.351 . S
C4547 C4548 1.434 . S
C4548 C4539 1.429 . S
C4548 N4545 1.350 . S
C4548 C4547 1.434 . S
C4549 C4550 1.369 . S
C4549 C4551 1.419 . S
C4549 H4553 0.930 . S
C4550 C4549 1.369 . S
C4550 C4559 1.429 . S
C4551 C4549 1.419 . S
C4551 C4552 1.363 . S
C4551 H4554 0.929 . S
C4552 C4551 1.363 . S
C4552 C4558 1.428 . S
H4553 C4549 0.930 . S
H4554 C4551 0.929 . S
S4555 N4556 1.613 . S
S4555 N4557 1.610 . S
N4556 S4555 1.613 . S
N4556 C4559 1.350 . S
N4557 S4555 1.610 . S
N4557 C4558 1.351 . S
C4558 C4552 1.428 . S
C4558 N4557 1.351 . S
C4558 C4559 1.434 . S
C4559 C4550 1.429 . S
C4559 N4556 1.350 . S
C4559 C4558 1.434 . S
C4560 C4561 1.369 . S
C4560 C4562 1.419 . S
C4560 H4564 0.930 . S
C4561 C4560 1.369 . S
C4561 C4570 1.429 . S
C4562 C4560 1.419 . S
C4562 C4563 1.363 . S
C4562 H4565 0.929 . S
C4563 C4562 1.363 . S
C4563 C4569 1.428 . S
H4564 C4560 0.930 . S
H4565 C4562 0.929 . S
S4566 N4567 1.613 . S
S4566 N4568 1.610 . S
N4567 S4566 1.613 . S
N4567 C4570 1.350 . S
N4568 S4566 1.610 . S
N4568 C4569 1.351 . S
C4569 C4563 1.428 . S
C4569 N4568 1.351 . S
C4569 C4570 1.434 . S
C4570 C4561 1.429 . S
C4570 N4567 1.350 . S
C4570 C4569 1.434 . S
C4571 C4572 1.369 . S
C4571 C4573 1.419 . S
C4571 H4575 0.930 . S
C4572 C4571 1.369 . S
C4572 C4581 1.429 . S
C4573 C4571 1.419 . S
C4573 C4574 1.363 . S
C4573 H4576 0.929 . S
C4574 C4573 1.363 . S
C4574 C4580 1.428 . S
H4575 C4571 0.930 . S
H4576 C4573 0.929 . S
S4577 N4578 1.613 . S
S4577 N4579 1.610 . S
N4578 S4577 1.613 . S
N4578 C4581 1.350 . S
N4579 S4577 1.610 . S
N4579 C4580 1.351 . S
C4580 C4574 1.428 . S
C4580 N4579 1.351 . S
C4580 C4581 1.434 . S
C4581 C4572 1.429 . S
C4581 N4578 1.350 . S
C4581 C4580 1.434 . S
C4582 C4583 1.369 . S
C4582 C4584 1.419 . S
C4582 H4586 0.930 . S
C4583 C4582 1.369 . S
C4583 C4592 1.429 . S
C4584 C4582 1.419 . S
C4584 C4585 1.363 . S
C4584 H4587 0.929 . S
C4585 C4584 1.363 . S
C4585 C4591 1.428 . S
H4586 C4582 0.930 . S
H4587 C4584 0.929 . S
S4588 N4589 1.613 . S
S4588 N4590 1.610 . S
N4589 S4588 1.613 . S
N4589 C4592 1.350 . S
N4590 S4588 1.610 . S
N4590 C4591 1.351 . S
C4591 C4585 1.428 . S
C4591 N4590 1.351 . S
C4591 C4592 1.434 . S
C4592 C4583 1.429 . S
C4592 N4589 1.350 . S
C4592 C4591 1.434 . S
C4593 C4594 1.369 . S
C4593 C4595 1.419 . S
C4593 H4597 0.930 . S
C4594 C4593 1.369 . S
C4594 C4603 1.429 . S
C4595 C4593 1.419 . S
C4595 C4596 1.363 . S
C4595 H4598 0.929 . S
C4596 C4595 1.363 . S
C4596 C4602 1.428 . S
H4597 C4593 0.930 . S
H4598 C4595 0.929 . S
S4599 N4600 1.613 . S
S4599 N4601 1.610 . S
N4600 S4599 1.613 . S
N4600 C4603 1.350 . S
N4601 S4599 1.610 . S
N4601 C4602 1.351 . S
C4602 C4596 1.428 . S
C4602 N4601 1.351 . S
C4602 C4603 1.434 . S
C4603 C4594 1.429 . S
C4603 N4600 1.350 . S
C4603 C4602 1.434 . S
C4604 C4605 1.369 . S
C4604 C4606 1.419 . S
C4604 H4608 0.930 . S
C4605 C4604 1.369 . S
C4605 C4614 1.429 . S
C4606 C4604 1.419 . S
C4606 C4607 1.363 . S
C4606 H4609 0.929 . S
C4607 C4606 1.363 . S
C4607 C4613 1.428 . S
H4608 C4604 0.930 . S
H4609 C4606 0.929 . S
S4610 N4611 1.613 . S
S4610 N4612 1.610 . S
N4611 S4610 1.613 . S
N4611 C4614 1.350 . S
N4612 S4610 1.610 . S
N4612 C4613 1.351 . S
C4613 C4607 1.428 . S
C4613 N4612 1.351 . S
C4613 C4614 1.434 . S
C4614 C4605 1.429 . S
C4614 N4611 1.350 . S
C4614 C4613 1.434 . S
C4615 C4616 1.369 . S
C4615 C4617 1.419 . S
C4615 H4619 0.930 . S
C4616 C4615 1.369 . S
C4616 C4625 1.429 . S
C4617 C4615 1.419 . S
C4617 C4618 1.363 . S
C4617 H4620 0.929 . S
C4618 C4617 1.363 . S
C4618 C4624 1.428 . S
H4619 C4615 0.930 . S
H4620 C4617 0.929 . S
S4621 N4622 1.613 . S
S4621 N4623 1.610 . S
N4622 S4621 1.613 . S
N4622 C4625 1.350 . S
N4623 S4621 1.610 . S
N4623 C4624 1.351 . S
C4624 C4618 1.428 . S
C4624 N4623 1.351 . S
C4624 C4625 1.434 . S
C4625 C4616 1.429 . S
C4625 N4622 1.350 . S
C4625 C4624 1.434 . S
C4626 C4627 1.369 . S
C4626 C4628 1.419 . S
C4626 H4630 0.930 . S
C4627 C4626 1.369 . S
C4627 C4636 1.429 . S
C4628 C4626 1.419 . S
C4628 C4629 1.363 . S
C4628 H4631 0.929 . S
C4629 C4628 1.363 . S
C4629 C4635 1.428 . S
H4630 C4626 0.930 . S
H4631 C4628 0.929 . S
S4632 N4633 1.613 . S
S4632 N4634 1.610 . S
N4633 S4632 1.613 . S
N4633 C4636 1.350 . S
N4634 S4632 1.610 . S
N4634 C4635 1.351 . S
C4635 C4629 1.428 . S
C4635 N4634 1.351 . S
C4635 C4636 1.434 . S
C4636 C4627 1.429 . S
C4636 N4633 1.350 . S
C4636 C4635 1.434 . S
C4637 C4638 1.369 . S
C4637 C4639 1.419 . S
C4637 H4641 0.930 . S
C4638 C4637 1.369 . S
C4638 C4647 1.429 . S
C4639 C4637 1.419 . S
C4639 C4640 1.363 . S
C4639 H4642 0.929 . S
C4640 C4639 1.363 . S
C4640 C4646 1.428 . S
H4641 C4637 0.930 . S
H4642 C4639 0.929 . S
S4643 N4644 1.613 . S
S4643 N4645 1.610 . S
N4644 S4643 1.613 . S
N4644 C4647 1.350 . S
N4645 S4643 1.610 . S
N4645 C4646 1.351 . S
C4646 C4640 1.428 . S
C4646 N4645 1.351 . S
C4646 C4647 1.434 . S
C4647 C4638 1.429 . S
C4647 N4644 1.350 . S
C4647 C4646 1.434 . S
C4648 C4649 1.369 . S
C4648 C4650 1.419 . S
C4648 H4652 0.930 . S
C4649 C4648 1.369 . S
C4649 C4658 1.429 . S
C4650 C4648 1.419 . S
C4650 C4651 1.363 . S
C4650 H4653 0.929 . S
C4651 C4650 1.363 . S
C4651 C4657 1.428 . S
H4652 C4648 0.930 . S
H4653 C4650 0.929 . S
S4654 N4655 1.613 . S
S4654 N4656 1.610 . S
N4655 S4654 1.613 . S
N4655 C4658 1.350 . S
N4656 S4654 1.610 . S
N4656 C4657 1.351 . S
C4657 C4651 1.428 . S
C4657 N4656 1.351 . S
C4657 C4658 1.434 . S
C4658 C4649 1.429 . S
C4658 N4655 1.350 . S
C4658 C4657 1.434 . S
C4659 C4660 1.369 . S
C4659 C4661 1.419 . S
C4659 H4663 0.930 . S
C4660 C4659 1.369 . S
C4660 C4669 1.429 . S
C4661 C4659 1.419 . S
C4661 C4662 1.363 . S
C4661 H4664 0.929 . S
C4662 C4661 1.363 . S
C4662 C4668 1.428 . S
H4663 C4659 0.930 . S
H4664 C4661 0.929 . S
S4665 N4666 1.613 . S
S4665 N4667 1.610 . S
N4666 S4665 1.613 . S
N4666 C4669 1.350 . S
N4667 S4665 1.610 . S
N4667 C4668 1.351 . S
C4668 C4662 1.428 . S
C4668 N4667 1.351 . S
C4668 C4669 1.434 . S
C4669 C4660 1.429 . S
C4669 N4666 1.350 . S
C4669 C4668 1.434 . S
C4670 C4671 1.369 . S
C4670 C4672 1.419 . S
C4670 H4674 0.930 . S
C4671 C4670 1.369 . S
C4671 C4680 1.429 . S
C4672 C4670 1.419 . S
C4672 C4673 1.363 . S
C4672 H4675 0.929 . S
C4673 C4672 1.363 . S
C4673 C4679 1.428 . S
H4674 C4670 0.930 . S
H4675 C4672 0.929 . S
S4676 N4677 1.613 . S
S4676 N4678 1.610 . S
N4677 S4676 1.613 . S
N4677 C4680 1.350 . S
N4678 S4676 1.610 . S
N4678 C4679 1.351 . S
C4679 C4673 1.428 . S
C4679 N4678 1.351 . S
C4679 C4680 1.434 . S
C4680 C4671 1.429 . S
C4680 N4677 1.350 . S
C4680 C4679 1.434 . S
C4681 C4682 1.369 . S
C4681 C4683 1.419 . S
C4681 H4685 0.930 . S
C4682 C4681 1.369 . S
C4682 C4691 1.429 . S
C4683 C4681 1.419 . S
C4683 C4684 1.363 . S
C4683 H4686 0.929 . S
C4684 C4683 1.363 . S
C4684 C4690 1.428 . S
H4685 C4681 0.930 . S
H4686 C4683 0.929 . S
S4687 N4688 1.613 . S
S4687 N4689 1.610 . S
N4688 S4687 1.613 . S
N4688 C4691 1.350 . S
N4689 S4687 1.610 . S
N4689 C4690 1.351 . S
C4690 C4684 1.428 . S
C4690 N4689 1.351 . S
C4690 C4691 1.434 . S
C4691 C4682 1.429 . S
C4691 N4688 1.350 . S
C4691 C4690 1.434 . S
C4692 C4693 1.369 . S
C4692 C4694 1.419 . S
C4692 H4696 0.930 . S
C4693 C4692 1.369 . S
C4693 C4702 1.429 . S
C4694 C4692 1.419 . S
C4694 C4695 1.363 . S
C4694 H4697 0.929 . S
C4695 C4694 1.363 . S
C4695 C4701 1.428 . S
H4696 C4692 0.930 . S
H4697 C4694 0.929 . S
S4698 N4699 1.613 . S
S4698 N4700 1.610 . S
N4699 S4698 1.613 . S
N4699 C4702 1.350 . S
N4700 S4698 1.610 . S
N4700 C4701 1.351 . S
C4701 C4695 1.428 . S
C4701 N4700 1.351 . S
C4701 C4702 1.434 . S
C4702 C4693 1.429 . S
C4702 N4699 1.350 . S
C4702 C4701 1.434 . S
C4703 C4704 1.369 . S
C4703 C4705 1.419 . S
C4703 H4707 0.930 . S
C4704 C4703 1.369 . S
C4704 C4713 1.429 . S
C4705 C4703 1.419 . S
C4705 C4706 1.363 . S
C4705 H4708 0.929 . S
C4706 C4705 1.363 . S
C4706 C4712 1.428 . S
H4707 C4703 0.930 . S
H4708 C4705 0.929 . S
S4709 N4710 1.613 . S
S4709 N4711 1.610 . S
N4710 S4709 1.613 . S
N4710 C4713 1.350 . S
N4711 S4709 1.610 . S
N4711 C4712 1.351 . S
C4712 C4706 1.428 . S
C4712 N4711 1.351 . S
C4712 C4713 1.434 . S
C4713 C4704 1.429 . S
C4713 N4710 1.350 . S
C4713 C4712 1.434 . S
C4714 C4715 1.369 . S
C4714 C4716 1.419 . S
C4714 H4718 0.930 . S
C4715 C4714 1.369 . S
C4715 C4724 1.429 . S
C4716 C4714 1.419 . S
C4716 C4717 1.363 . S
C4716 H4719 0.929 . S
C4717 C4716 1.363 . S
C4717 C4723 1.428 . S
H4718 C4714 0.930 . S
H4719 C4716 0.929 . S
S4720 N4721 1.613 . S
S4720 N4722 1.610 . S
N4721 S4720 1.613 . S
N4721 C4724 1.350 . S
N4722 S4720 1.610 . S
N4722 C4723 1.351 . S
C4723 C4717 1.428 . S
C4723 N4722 1.351 . S
C4723 C4724 1.434 . S
C4724 C4715 1.429 . S
C4724 N4721 1.350 . S
C4724 C4723 1.434 . S
C4725 C4726 1.369 . S
C4725 C4727 1.419 . S
C4725 H4729 0.930 . S
C4726 C4725 1.369 . S
C4726 C4735 1.429 . S
C4727 C4725 1.419 . S
C4727 C4728 1.363 . S
C4727 H4730 0.929 . S
C4728 C4727 1.363 . S
C4728 C4734 1.428 . S
H4729 C4725 0.930 . S
H4730 C4727 0.929 . S
S4731 N4732 1.613 . S
S4731 N4733 1.610 . S
N4732 S4731 1.613 . S
N4732 C4735 1.350 . S
N4733 S4731 1.610 . S
N4733 C4734 1.351 . S
C4734 C4728 1.428 . S
C4734 N4733 1.351 . S
C4734 C4735 1.434 . S
C4735 C4726 1.429 . S
C4735 N4732 1.350 . S
C4735 C4734 1.434 . S
C4736 C4737 1.369 . S
C4736 C4738 1.419 . S
C4736 H4740 0.930 . S
C4737 C4736 1.369 . S
C4737 C4746 1.429 . S
C4738 C4736 1.419 . S
C4738 C4739 1.363 . S
C4738 H4741 0.929 . S
C4739 C4738 1.363 . S
C4739 C4745 1.428 . S
H4740 C4736 0.930 . S
H4741 C4738 0.929 . S
S4742 N4743 1.613 . S
S4742 N4744 1.610 . S
N4743 S4742 1.613 . S
N4743 C4746 1.350 . S
N4744 S4742 1.610 . S
N4744 C4745 1.351 . S
C4745 C4739 1.428 . S
C4745 N4744 1.351 . S
C4745 C4746 1.434 . S
C4746 C4737 1.429 . S
C4746 N4743 1.350 . S
C4746 C4745 1.434 . S
C4747 C4748 1.369 . S
C4747 C4749 1.419 . S
C4747 H4751 0.930 . S
C4748 C4747 1.369 . S
C4748 C4757 1.429 . S
C4749 C4747 1.419 . S
C4749 C4750 1.363 . S
C4749 H4752 0.929 . S
C4750 C4749 1.363 . S
C4750 C4756 1.428 . S
H4751 C4747 0.930 . S
H4752 C4749 0.929 . S
S4753 N4754 1.613 . S
S4753 N4755 1.610 . S
N4754 S4753 1.613 . S
N4754 C4757 1.350 . S
N4755 S4753 1.610 . S
N4755 C4756 1.351 . S
C4756 C4750 1.428 . S
C4756 N4755 1.351 . S
C4756 C4757 1.434 . S
C4757 C4748 1.429 . S
C4757 N4754 1.350 . S
C4757 C4756 1.434 . S
C4758 C4759 1.369 . S
C4758 C4760 1.419 . S
C4758 H4762 0.930 . S
C4759 C4758 1.369 . S
C4759 C4768 1.429 . S
C4760 C4758 1.419 . S
C4760 C4761 1.363 . S
C4760 H4763 0.929 . S
C4761 C4760 1.363 . S
C4761 C4767 1.428 . S
H4762 C4758 0.930 . S
H4763 C4760 0.929 . S
S4764 N4765 1.613 . S
S4764 N4766 1.610 . S
N4765 S4764 1.613 . S
N4765 C4768 1.350 . S
N4766 S4764 1.610 . S
N4766 C4767 1.351 . S
C4767 C4761 1.428 . S
C4767 N4766 1.351 . S
C4767 C4768 1.434 . S
C4768 C4759 1.429 . S
C4768 N4765 1.350 . S
C4768 C4767 1.434 . S
C4769 C4770 1.369 . S
C4769 C4771 1.419 . S
C4769 H4773 0.930 . S
C4770 C4769 1.369 . S
C4770 C4779 1.429 . S
C4771 C4769 1.419 . S
C4771 C4772 1.363 . S
C4771 H4774 0.929 . S
C4772 C4771 1.363 . S
C4772 C4778 1.428 . S
H4773 C4769 0.930 . S
H4774 C4771 0.929 . S
S4775 N4776 1.613 . S
S4775 N4777 1.610 . S
N4776 S4775 1.613 . S
N4776 C4779 1.350 . S
N4777 S4775 1.610 . S
N4777 C4778 1.351 . S
C4778 C4772 1.428 . S
C4778 N4777 1.351 . S
C4778 C4779 1.434 . S
C4779 C4770 1.429 . S
C4779 N4776 1.350 . S
C4779 C4778 1.434 . S
C4780 C4781 1.369 . S
C4780 C4782 1.419 . S
C4780 H4784 0.930 . S
C4781 C4780 1.369 . S
C4781 C4790 1.429 . S
C4782 C4780 1.419 . S
C4782 C4783 1.363 . S
C4782 H4785 0.929 . S
C4783 C4782 1.363 . S
C4783 C4789 1.428 . S
H4784 C4780 0.930 . S
H4785 C4782 0.929 . S
S4786 N4787 1.613 . S
S4786 N4788 1.610 . S
N4787 S4786 1.613 . S
N4787 C4790 1.350 . S
N4788 S4786 1.610 . S
N4788 C4789 1.351 . S
C4789 C4783 1.428 . S
C4789 N4788 1.351 . S
C4789 C4790 1.434 . S
C4790 C4781 1.429 . S
C4790 N4787 1.350 . S
C4790 C4789 1.434 . S
C4791 C4792 1.369 . S
C4791 C4793 1.419 . S
C4791 H4795 0.930 . S
C4792 C4791 1.369 . S
C4792 C4801 1.429 . S
C4793 C4791 1.419 . S
C4793 C4794 1.363 . S
C4793 H4796 0.929 . S
C4794 C4793 1.363 . S
C4794 C4800 1.428 . S
H4795 C4791 0.930 . S
H4796 C4793 0.929 . S
S4797 N4798 1.613 . S
S4797 N4799 1.610 . S
N4798 S4797 1.613 . S
N4798 C4801 1.350 . S
N4799 S4797 1.610 . S
N4799 C4800 1.351 . S
C4800 C4794 1.428 . S
C4800 N4799 1.351 . S
C4800 C4801 1.434 . S
C4801 C4792 1.429 . S
C4801 N4798 1.350 . S
C4801 C4800 1.434 . S
C4802 C4803 1.369 . S
C4802 C4804 1.419 . S
C4802 H4806 0.930 . S
C4803 C4802 1.369 . S
C4803 C4812 1.429 . S
C4804 C4802 1.419 . S
C4804 C4805 1.363 . S
C4804 H4807 0.929 . S
C4805 C4804 1.363 . S
C4805 C4811 1.428 . S
H4806 C4802 0.930 . S
H4807 C4804 0.929 . S
S4808 N4809 1.613 . S
S4808 N4810 1.610 . S
N4809 S4808 1.613 . S
N4809 C4812 1.350 . S
N4810 S4808 1.610 . S
N4810 C4811 1.351 . S
C4811 C4805 1.428 . S
C4811 N4810 1.351 . S
C4811 C4812 1.434 . S
C4812 C4803 1.429 . S
C4812 N4809 1.350 . S
C4812 C4811 1.434 . S
C4813 C4814 1.369 . S
C4813 C4815 1.419 . S
C4813 H4817 0.930 . S
C4814 C4813 1.369 . S
C4814 C4823 1.429 . S
C4815 C4813 1.419 . S
C4815 C4816 1.363 . S
C4815 H4818 0.929 . S
C4816 C4815 1.363 . S
C4816 C4822 1.428 . S
H4817 C4813 0.930 . S
H4818 C4815 0.929 . S
S4819 N4820 1.613 . S
S4819 N4821 1.610 . S
N4820 S4819 1.613 . S
N4820 C4823 1.350 . S
N4821 S4819 1.610 . S
N4821 C4822 1.351 . S
C4822 C4816 1.428 . S
C4822 N4821 1.351 . S
C4822 C4823 1.434 . S
C4823 C4814 1.429 . S
C4823 N4820 1.350 . S
C4823 C4822 1.434 . S
C4824 C4825 1.369 . S
C4824 C4826 1.419 . S
C4824 H4828 0.930 . S
C4825 C4824 1.369 . S
C4825 C4834 1.429 . S
C4826 C4824 1.419 . S
C4826 C4827 1.363 . S
C4826 H4829 0.929 . S
C4827 C4826 1.363 . S
C4827 C4833 1.428 . S
H4828 C4824 0.930 . S
H4829 C4826 0.929 . S
S4830 N4831 1.613 . S
S4830 N4832 1.610 . S
N4831 S4830 1.613 . S
N4831 C4834 1.350 . S
N4832 S4830 1.610 . S
N4832 C4833 1.351 . S
C4833 C4827 1.428 . S
C4833 N4832 1.351 . S
C4833 C4834 1.434 . S
C4834 C4825 1.429 . S
C4834 N4831 1.350 . S
C4834 C4833 1.434 . S
C4835 C4836 1.369 . S
C4835 C4837 1.419 . S
C4835 H4839 0.930 . S
C4836 C4835 1.369 . S
C4836 C4845 1.429 . S
C4837 C4835 1.419 . S
C4837 C4838 1.363 . S
C4837 H4840 0.929 . S
C4838 C4837 1.363 . S
C4838 C4844 1.428 . S
H4839 C4835 0.930 . S
H4840 C4837 0.929 . S
S4841 N4842 1.613 . S
S4841 N4843 1.610 . S
N4842 S4841 1.613 . S
N4842 C4845 1.350 . S
N4843 S4841 1.610 . S
N4843 C4844 1.351 . S
C4844 C4838 1.428 . S
C4844 N4843 1.351 . S
C4844 C4845 1.434 . S
C4845 C4836 1.429 . S
C4845 N4842 1.350 . S
C4845 C4844 1.434 . S
C4846 C4847 1.369 . S
C4846 C4848 1.419 . S
C4846 H4850 0.930 . S
C4847 C4846 1.369 . S
C4847 C4856 1.429 . S
C4848 C4846 1.419 . S
C4848 C4849 1.363 . S
C4848 H4851 0.929 . S
C4849 C4848 1.363 . S
C4849 C4855 1.428 . S
H4850 C4846 0.930 . S
H4851 C4848 0.929 . S
S4852 N4853 1.613 . S
S4852 N4854 1.610 . S
N4853 S4852 1.613 . S
N4853 C4856 1.350 . S
N4854 S4852 1.610 . S
N4854 C4855 1.351 . S
C4855 C4849 1.428 . S
C4855 N4854 1.351 . S
C4855 C4856 1.434 . S
C4856 C4847 1.429 . S
C4856 N4853 1.350 . S
C4856 C4855 1.434 . S
C4857 C4858 1.369 . S
C4857 C4859 1.419 . S
C4857 H4861 0.930 . S
C4858 C4857 1.369 . S
C4858 C4867 1.429 . S
C4859 C4857 1.419 . S
C4859 C4860 1.363 . S
C4859 H4862 0.929 . S
C4860 C4859 1.363 . S
C4860 C4866 1.428 . S
H4861 C4857 0.930 . S
H4862 C4859 0.929 . S
S4863 N4864 1.613 . S
S4863 N4865 1.610 . S
N4864 S4863 1.613 . S
N4864 C4867 1.350 . S
N4865 S4863 1.610 . S
N4865 C4866 1.351 . S
C4866 C4860 1.428 . S
C4866 N4865 1.351 . S
C4866 C4867 1.434 . S
C4867 C4858 1.429 . S
C4867 N4864 1.350 . S
C4867 C4866 1.434 . S
C4868 C4869 1.369 . S
C4868 C4870 1.419 . S
C4868 H4872 0.930 . S
C4869 C4868 1.369 . S
C4869 C4878 1.429 . S
C4870 C4868 1.419 . S
C4870 C4871 1.363 . S
C4870 H4873 0.929 . S
C4871 C4870 1.363 . S
C4871 C4877 1.428 . S
H4872 C4868 0.930 . S
H4873 C4870 0.929 . S
S4874 N4875 1.613 . S
S4874 N4876 1.610 . S
N4875 S4874 1.613 . S
N4875 C4878 1.350 . S
N4876 S4874 1.610 . S
N4876 C4877 1.351 . S
C4877 C4871 1.428 . S
C4877 N4876 1.351 . S
C4877 C4878 1.434 . S
C4878 C4869 1.429 . S
C4878 N4875 1.350 . S
C4878 C4877 1.434 . S
C4879 C4880 1.369 . S
C4879 C4881 1.419 . S
C4879 H4883 0.930 . S
C4880 C4879 1.369 . S
C4880 C4889 1.429 . S
C4881 C4879 1.419 . S
C4881 C4882 1.363 . S
C4881 H4884 0.929 . S
C4882 C4881 1.363 . S
C4882 C4888 1.428 . S
H4883 C4879 0.930 . S
H4884 C4881 0.929 . S
S4885 N4886 1.613 . S
S4885 N4887 1.610 . S
N4886 S4885 1.613 . S
N4886 C4889 1.350 . S
N4887 S4885 1.610 . S
N4887 C4888 1.351 . S
C4888 C4882 1.428 . S
C4888 N4887 1.351 . S
C4888 C4889 1.434 . S
C4889 C4880 1.429 . S
C4889 N4886 1.350 . S
C4889 C4888 1.434 . S
C4890 C4891 1.369 . S
C4890 C4892 1.419 . S
C4890 H4894 0.930 . S
C4891 C4890 1.369 . S
C4891 C4900 1.429 . S
C4892 C4890 1.419 . S
C4892 C4893 1.363 . S
C4892 H4895 0.929 . S
C4893 C4892 1.363 . S
C4893 C4899 1.428 . S
H4894 C4890 0.930 . S
H4895 C4892 0.929 . S
S4896 N4897 1.613 . S
S4896 N4898 1.610 . S
N4897 S4896 1.613 . S
N4897 C4900 1.350 . S
N4898 S4896 1.610 . S
N4898 C4899 1.351 . S
C4899 C4893 1.428 . S
C4899 N4898 1.351 . S
C4899 C4900 1.434 . S
C4900 C4891 1.429 . S
C4900 N4897 1.350 . S
C4900 C4899 1.434 . S
C4901 C4902 1.369 . S
C4901 C4903 1.419 . S
C4901 H4905 0.930 . S
C4902 C4901 1.369 . S
C4902 C4911 1.429 . S
C4903 C4901 1.419 . S
C4903 C4904 1.363 . S
C4903 H4906 0.929 . S
C4904 C4903 1.363 . S
C4904 C4910 1.428 . S
H4905 C4901 0.930 . S
H4906 C4903 0.929 . S
S4907 N4908 1.613 . S
S4907 N4909 1.610 . S
N4908 S4907 1.613 . S
N4908 C4911 1.350 . S
N4909 S4907 1.610 . S
N4909 C4910 1.351 . S
C4910 C4904 1.428 . S
C4910 N4909 1.351 . S
C4910 C4911 1.434 . S
C4911 C4902 1.429 . S
C4911 N4908 1.350 . S
C4911 C4910 1.434 . S
C4912 C4913 1.369 . S
C4912 C4914 1.419 . S
C4912 H4916 0.930 . S
C4913 C4912 1.369 . S
C4913 C4922 1.429 . S
C4914 C4912 1.419 . S
C4914 C4915 1.363 . S
C4914 H4917 0.929 . S
C4915 C4914 1.363 . S
C4915 C4921 1.428 . S
H4916 C4912 0.930 . S
H4917 C4914 0.929 . S
S4918 N4919 1.613 . S
S4918 N4920 1.610 . S
N4919 S4918 1.613 . S
N4919 C4922 1.350 . S
N4920 S4918 1.610 . S
N4920 C4921 1.351 . S
C4921 C4915 1.428 . S
C4921 N4920 1.351 . S
C4921 C4922 1.434 . S
C4922 C4913 1.429 . S
C4922 N4919 1.350 . S
C4922 C4921 1.434 . S
C4923 C4924 1.369 . S
C4923 C4925 1.419 . S
C4923 H4927 0.930 . S
C4924 C4923 1.369 . S
C4924 C4933 1.429 . S
C4925 C4923 1.419 . S
C4925 C4926 1.363 . S
C4925 H4928 0.929 . S
C4926 C4925 1.363 . S
C4926 C4932 1.428 . S
H4927 C4923 0.930 . S
H4928 C4925 0.929 . S
S4929 N4930 1.613 . S
S4929 N4931 1.610 . S
N4930 S4929 1.613 . S
N4930 C4933 1.350 . S
N4931 S4929 1.610 . S
N4931 C4932 1.351 . S
C4932 C4926 1.428 . S
C4932 N4931 1.351 . S
C4932 C4933 1.434 . S
C4933 C4924 1.429 . S
C4933 N4930 1.350 . S
C4933 C4932 1.434 . S
C4934 C4935 1.369 . S
C4934 C4936 1.419 . S
C4934 H4938 0.930 . S
C4935 C4934 1.369 . S
C4935 C4944 1.429 . S
C4936 C4934 1.419 . S
C4936 C4937 1.363 . S
C4936 H4939 0.929 . S
C4937 C4936 1.363 . S
C4937 C4943 1.428 . S
H4938 C4934 0.930 . S
H4939 C4936 0.929 . S
S4940 N4941 1.613 . S
S4940 N4942 1.610 . S
N4941 S4940 1.613 . S
N4941 C4944 1.350 . S
N4942 S4940 1.610 . S
N4942 C4943 1.351 . S
C4943 C4937 1.428 . S
C4943 N4942 1.351 . S
C4943 C4944 1.434 . S
C4944 C4935 1.429 . S
C4944 N4941 1.350 . S
C4944 C4943 1.434 . S
C4945 C4946 1.369 . S
C4945 C4947 1.419 . S
C4945 H4949 0.930 . S
C4946 C4945 1.369 . S
C4946 C4955 1.429 . S
C4947 C4945 1.419 . S
C4947 C4948 1.363 . S
C4947 H4950 0.929 . S
C4948 C4947 1.363 . S
C4948 C4954 1.428 . S
H4949 C4945 0.930 . S
H4950 C4947 0.929 . S
S4951 N4952 1.613 . S
S4951 N4953 1.610 . S
N4952 S4951 1.613 . S
N4952 C4955 1.350 . S
N4953 S4951 1.610 . S
N4953 C4954 1.351 . S
C4954 C4948 1.428 . S
C4954 N4953 1.351 . S
C4954 C4955 1.434 . S
C4955 C4946 1.429 . S
C4955 N4952 1.350 . S
C4955 C4954 1.434 . S
C4956 C4957 1.369 . S
C4956 C4958 1.419 . S
C4956 H4960 0.930 . S
C4957 C4956 1.369 . S
C4957 C4966 1.429 . S
C4958 C4956 1.419 . S
C4958 C4959 1.363 . S
C4958 H4961 0.929 . S
C4959 C4958 1.363 . S
C4959 C4965 1.428 . S
H4960 C4956 0.930 . S
H4961 C4958 0.929 . S
S4962 N4963 1.613 . S
S4962 N4964 1.610 . S
N4963 S4962 1.613 . S
N4963 C4966 1.350 . S
N4964 S4962 1.610 . S
N4964 C4965 1.351 . S
C4965 C4959 1.428 . S
C4965 N4964 1.351 . S
C4965 C4966 1.434 . S
C4966 C4957 1.429 . S
C4966 N4963 1.350 . S
C4966 C4965 1.434 . S
C4967 C4968 1.369 . S
C4967 C4969 1.419 . S
C4967 H4971 0.930 . S
C4968 C4967 1.369 . S
C4968 C4977 1.429 . S
C4969 C4967 1.419 . S
C4969 C4970 1.363 . S
C4969 H4972 0.929 . S
C4970 C4969 1.363 . S
C4970 C4976 1.428 . S
H4971 C4967 0.930 . S
H4972 C4969 0.929 . S
S4973 N4974 1.613 . S
S4973 N4975 1.610 . S
N4974 S4973 1.613 . S
N4974 C4977 1.350 . S
N4975 S4973 1.610 . S
N4975 C4976 1.351 . S
C4976 C4970 1.428 . S
C4976 N4975 1.351 . S
C4976 C4977 1.434 . S
C4977 C4968 1.429 . S
C4977 N4974 1.350 . S
C4977 C4976 1.434 . S
C4978 C4979 1.369 . S
C4978 C4980 1.419 . S
C4978 H4982 0.930 . S
C4979 C4978 1.369 . S
C4979 C4988 1.429 . S
C4980 C4978 1.419 . S
C4980 C4981 1.363 . S
C4980 H4983 0.929 . S
C4981 C4980 1.363 . S
C4981 C4987 1.428 . S
H4982 C4978 0.930 . S
H4983 C4980 0.929 . S
S4984 N4985 1.613 . S
S4984 N4986 1.610 . S
N4985 S4984 1.613 . S
N4985 C4988 1.350 . S
N4986 S4984 1.610 . S
N4986 C4987 1.351 . S
C4987 C4981 1.428 . S
C4987 N4986 1.351 . S
C4987 C4988 1.434 . S
C4988 C4979 1.429 . S
C4988 N4985 1.350 . S
C4988 C4987 1.434 . S
C4989 C4990 1.369 . S
C4989 C4991 1.419 . S
C4989 H4993 0.930 . S
C4990 C4989 1.369 . S
C4990 C4999 1.429 . S
C4991 C4989 1.419 . S
C4991 C4992 1.363 . S
C4991 H4994 0.929 . S
C4992 C4991 1.363 . S
C4992 C4998 1.428 . S
H4993 C4989 0.930 . S
H4994 C4991 0.929 . S
S4995 N4996 1.613 . S
S4995 N4997 1.610 . S
N4996 S4995 1.613 . S
N4996 C4999 1.350 . S
N4997 S4995 1.610 . S
N4997 C4998 1.351 . S
C4998 C4992 1.428 . S
C4998 N4997 1.351 . S
C4998 C4999 1.434 . S
C4999 C4990 1.429 . S
C4999 N4996 1.350 . S
C4999 C4998 1.434 . S
C5000 C5001 1.369 . S
C5000 C5002 1.419 . S
C5000 H5004 0.930 . S
C5001 C5000 1.369 . S
C5001 C5010 1.429 . S
C5002 C5000 1.419 . S
C5002 C5003 1.363 . S
C5002 H5005 0.929 . S
C5003 C5002 1.363 . S
C5003 C5009 1.428 . S
H5004 C5000 0.930 . S
H5005 C5002 0.929 . S
S5006 N5007 1.613 . S
S5006 N5008 1.610 . S
N5007 S5006 1.613 . S
N5007 C5010 1.350 . S
N5008 S5006 1.610 . S
N5008 C5009 1.351 . S
C5009 C5003 1.428 . S
C5009 N5008 1.351 . S
C5009 C5010 1.434 . S
C5010 C5001 1.429 . S
C5010 N5007 1.350 . S
C5010 C5009 1.434 . S
C5011 C5012 1.369 . S
C5011 C5013 1.419 . S
C5011 H5015 0.930 . S
C5012 C5011 1.369 . S
C5012 C5021 1.429 . S
C5013 C5011 1.419 . S
C5013 C5014 1.363 . S
C5013 H5016 0.929 . S
C5014 C5013 1.363 . S
C5014 C5020 1.428 . S
H5015 C5011 0.930 . S
H5016 C5013 0.929 . S
S5017 N5018 1.613 . S
S5017 N5019 1.610 . S
N5018 S5017 1.613 . S
N5018 C5021 1.350 . S
N5019 S5017 1.610 . S
N5019 C5020 1.351 . S
C5020 C5014 1.428 . S
C5020 N5019 1.351 . S
C5020 C5021 1.434 . S
C5021 C5012 1.429 . S
C5021 N5018 1.350 . S
C5021 C5020 1.434 . S
C5022 C5023 1.369 . S
C5022 C5024 1.419 . S
C5022 H5026 0.930 . S
C5023 C5022 1.369 . S
C5023 C5032 1.429 . S
C5024 C5022 1.419 . S
C5024 C5025 1.363 . S
C5024 H5027 0.929 . S
C5025 C5024 1.363 . S
C5025 C5031 1.428 . S
H5026 C5022 0.930 . S
H5027 C5024 0.929 . S
S5028 N5029 1.613 . S
S5028 N5030 1.610 . S
N5029 S5028 1.613 . S
N5029 C5032 1.350 . S
N5030 S5028 1.610 . S
N5030 C5031 1.351 . S
C5031 C5025 1.428 . S
C5031 N5030 1.351 . S
C5031 C5032 1.434 . S
C5032 C5023 1.429 . S
C5032 N5029 1.350 . S
C5032 C5031 1.434 . S
C5033 C5034 1.369 . S
C5033 C5035 1.419 . S
C5033 H5037 0.930 . S
C5034 C5033 1.369 . S
C5034 C5043 1.429 . S
C5035 C5033 1.419 . S
C5035 C5036 1.363 . S
C5035 H5038 0.929 . S
C5036 C5035 1.363 . S
C5036 C5042 1.428 . S
H5037 C5033 0.930 . S
H5038 C5035 0.929 . S
S5039 N5040 1.613 . S
S5039 N5041 1.610 . S
N5040 S5039 1.613 . S
N5040 C5043 1.350 . S
N5041 S5039 1.610 . S
N5041 C5042 1.351 . S
C5042 C5036 1.428 . S
C5042 N5041 1.351 . S
C5042 C5043 1.434 . S
C5043 C5034 1.429 . S
C5043 N5040 1.350 . S
C5043 C5042 1.434 . S
C5044 C5045 1.369 . S
C5044 C5046 1.419 . S
C5044 H5048 0.930 . S
C5045 C5044 1.369 . S
C5045 C5054 1.429 . S
C5046 C5044 1.419 . S
C5046 C5047 1.363 . S
C5046 H5049 0.929 . S
C5047 C5046 1.363 . S
C5047 C5053 1.428 . S
H5048 C5044 0.930 . S
H5049 C5046 0.929 . S
S5050 N5051 1.613 . S
S5050 N5052 1.610 . S
N5051 S5050 1.613 . S
N5051 C5054 1.350 . S
N5052 S5050 1.610 . S
N5052 C5053 1.351 . S
C5053 C5047 1.428 . S
C5053 N5052 1.351 . S
C5053 C5054 1.434 . S
C5054 C5045 1.429 . S
C5054 N5051 1.350 . S
C5054 C5053 1.434 . S
C5055 C5056 1.369 . S
C5055 C5057 1.419 . S
C5055 H5059 0.930 . S
C5056 C5055 1.369 . S
C5056 C5065 1.429 . S
C5057 C5055 1.419 . S
C5057 C5058 1.363 . S
C5057 H5060 0.929 . S
C5058 C5057 1.363 . S
C5058 C5064 1.428 . S
H5059 C5055 0.930 . S
H5060 C5057 0.929 . S
S5061 N5062 1.613 . S
S5061 N5063 1.610 . S
N5062 S5061 1.613 . S
N5062 C5065 1.350 . S
N5063 S5061 1.610 . S
N5063 C5064 1.351 . S
C5064 C5058 1.428 . S
C5064 N5063 1.351 . S
C5064 C5065 1.434 . S
C5065 C5056 1.429 . S
C5065 N5062 1.350 . S
C5065 C5064 1.434 . S
C5066 C5067 1.369 . S
C5066 C5068 1.419 . S
C5066 H5070 0.930 . S
C5067 C5066 1.369 . S
C5067 C5076 1.429 . S
C5068 C5066 1.419 . S
C5068 C5069 1.363 . S
C5068 H5071 0.929 . S
C5069 C5068 1.363 . S
C5069 C5075 1.428 . S
H5070 C5066 0.930 . S
H5071 C5068 0.929 . S
S5072 N5073 1.613 . S
S5072 N5074 1.610 . S
N5073 S5072 1.613 . S
N5073 C5076 1.350 . S
N5074 S5072 1.610 . S
N5074 C5075 1.351 . S
C5075 C5069 1.428 . S
C5075 N5074 1.351 . S
C5075 C5076 1.434 . S
C5076 C5067 1.429 . S
C5076 N5073 1.350 . S
C5076 C5075 1.434 . S
C5077 C5078 1.369 . S
C5077 C5079 1.419 . S
C5077 H5081 0.930 . S
C5078 C5077 1.369 . S
C5078 C5087 1.429 . S
C5079 C5077 1.419 . S
C5079 C5080 1.363 . S
C5079 H5082 0.929 . S
C5080 C5079 1.363 . S
C5080 C5086 1.428 . S
H5081 C5077 0.930 . S
H5082 C5079 0.929 . S
S5083 N5084 1.613 . S
S5083 N5085 1.610 . S
N5084 S5083 1.613 . S
N5084 C5087 1.350 . S
N5085 S5083 1.610 . S
N5085 C5086 1.351 . S
C5086 C5080 1.428 . S
C5086 N5085 1.351 . S
C5086 C5087 1.434 . S
C5087 C5078 1.429 . S
C5087 N5084 1.350 . S
C5087 C5086 1.434 . S
C1921 C1502 0.938 . S
C1923 C9 0.948 . S
C1932 C482 0.905 . S
C1934 C29 0.962 . S
C1943 C48 1.139 . S
C1945 C1462 1.130 . S
C1954 C69 1.493 . S
C1956 C539 1.441 . S
C1965 C89 1.436 . S
C1967 C1559 1.402 . S
C1976 C619 1.483 . S
C1978 C108 1.533 . S
C1987 C128 1.011 . S
C1989 C1582 0.960 . S
C1998 C149 0.848 . S
C2000 C562 0.831 . S
C2009 C169 1.046 . S
C2011 C1802 1.006 . S
C2020 C862 1.037 . S
C2022 C189 1.059 . S
C2031 C882 1.054 . S
C2033 C209 1.091 . S
C2042 C839 1.337 . S
C2044 C229 1.344 . S
C2053 C249 1.081 . S
C2055 C1882 1.078 . S
C2064 C269 0.931 . S
C2066 C1762 0.916 . S
C2075 C1902 1.083 . S
C2077 C289 1.129 . S
C2086 C309 1.038 . S
C2088 C1862 0.988 . S
C2097 C329 1.050 . S
C2099 C1622 0.991 . S
C2108 C782 0.978 . S
C2110 C348 1.027 . S
C2119 C1682 1.069 . S
C2121 C369 1.110 . S
C2130 C389 1.174 . S
C2132 C742 1.144 . S
C2141 C409 1.097 . S
C2143 C762 1.042 . S
C2152 C429 1.063 . S
C2154 C1662 1.050 . S
C2163 C449 0.835 . S
C2165 C1602 0.816 . S
C2174 C1642 1.064 . S
C2176 C469 1.099 . S
C2185 C488 0.953 . S
C2187 C1021 0.937 . S
C2196 C508 0.963 . S
C2198 C1 0.911 . S
C2207 C529 1.139 . S
C2209 C981 1.127 . S
C2218 C58 1.444 . S
C2220 C548 1.488 . S
C2229 C1078 1.408 . S
C2231 C568 1.435 . S
C2240 C589 1.527 . S
C2242 C138 1.490 . S
C2251 C1101 0.953 . S
C2253 C609 1.010 . S
C2262 C628 0.854 . S
C2264 C81 0.840 . S
C2273 C648 1.045 . S
C2275 C1321 1.018 . S
C2284 C668 1.057 . S
C2286 C381 1.025 . S
C2295 C688 1.095 . S
C2297 C401 1.052 . S
C2306 C358 1.338 . S
C2308 C708 1.344 . S
C2317 C1401 1.083 . S
C2319 C728 1.084 . S
C2328 C748 0.926 . S
C2330 C1281 0.923 . S
C2339 C768 1.123 . S
C2341 C1421 1.078 . S
C2350 C1381 0.986 . S
C2352 C788 1.040 . S
C2361 C808 1.042 . S
C2363 C1141 1.005 . S
C2372 C829 1.025 . S
C2374 C301 0.982 . S
C2383 C1201 1.072 . S
C2385 C848 1.110 . S
C2394 C868 1.186 . S
C2396 C261 1.138 . S
C2405 C888 1.091 . S
C2407 C281 1.046 . S
C2416 C1181 1.039 . S
C2418 C908 1.068 . S
C2427 C1121 0.829 . S
C2429 C928 0.831 . S
C2438 C1161 1.059 . S
C2440 C948 1.107 . S
C2449 C969 0.949 . S
C2451 C542 0.938 . S
C2460 C1442 0.923 . S
C2462 C989 0.956 . S
C2471 C502 1.119 . S
C2473 C1008 1.149 . S
C2482 C1499 1.442 . S
C2484 C1029 1.492 . S
C2493 C1049 1.441 . S
C2495 C599 1.406 . S
C2504 C1068 1.532 . S
C2506 C1579 1.484 . S
C2515 C622 0.956 . S
C2517 C1088 1.010 . S
C2526 C1522 0.826 . S
C2528 C1109 0.856 . S
C2537 C842 1.006 . S
C2539 C1129 1.045 . S
C2548 C1149 1.066 . S
C2550 C1822 1.028 . S
C2559 C1169 1.090 . S
C2561 C1842 1.052 . S
C2570 C1799 1.344 . S
C2572 C1189 1.349 . S
C2581 C922 1.075 . S
C2583 C1209 1.083 . S
C2592 C802 0.915 . S
C2594 C1229 0.931 . S
C2603 C942 1.073 . S
C2605 C1249 1.129 . S
C2614 C902 1.002 . S
C2616 C1269 1.038 . S
C2625 C662 1.005 . S
C2627 C1289 1.039 . S
C2636 C1742 0.991 . S
C2638 C1308 1.019 . S
C2647 C1329 1.108 . S
C2649 C722 1.066 . S
C2658 C1702 1.142 . S
C2660 C1349 1.182 . S
C2669 C1722 1.039 . S
C2671 C1369 1.097 . S
C2680 C1389 1.069 . S
C2682 C702 1.040 . S
C2691 C1409 0.820 . S
C2693 C642 0.826 . S
C2702 C1429 1.099 . S
C2704 C682 1.064 . S
C2713 C1448 0.952 . S
C2715 C61 0.926 . S
C2724 C961 0.903 . S
C2726 C1468 0.962 . S
C2735 C1489 1.145 . S
C2737 C21 1.121 . S
C2746 C1508 1.489 . S
C2748 C1018 1.436 . S
C2757 C1528 1.434 . S
C2759 C118 1.406 . S
C2768 C1098 1.483 . S
C2770 C1549 1.531 . S
C2779 C141 0.952 . S
C2781 C1569 1.007 . S
C2790 C1588 0.847 . S
C2792 C1041 0.843 . S
C2801 C361 1.004 . S
C2803 C1608 1.049 . S
C2812 C1341 1.037 . S
C2814 C1628 1.060 . S
C2823 C1648 1.094 . S
C2825 C1361 1.053 . S
C2834 C1668 1.349 . S
C2836 C1318 1.345 . S
C2845 C1688 1.081 . S
C2847 C441 1.077 . S
C2856 C1708 0.928 . S
C2858 C321 0.918 . S
C2867 C1728 1.128 . S
C2869 C461 1.086 . S
C2878 C421 0.987 . S
C2880 C1748 1.036 . S
C2889 C181 0.988 . S
C2891 C1768 1.046 . S
C2900 C1789 1.023 . S
C2902 C1261 0.983 . S
C2911 C1808 1.107 . S
C2913 C241 1.066 . S
C2922 C1828 1.176 . S
C2924 C1221 1.137 . S
C2933 C1241 1.039 . S
C2935 C1848 1.098 . S
C2944 C221 1.051 . S
C2946 C1868 1.064 . S
C2955 C161 0.825 . S
C2957 C1888 0.833 . S
C2966 C1908 1.109 . S
C2968 C201 1.057 . S
C2977 C19 1.742 . S
C2979 C419 1.743 . S
C2988 C1302 1.346 . S
C2990 C39 1.347 . S
C2999 C42 1.278 . S
C3001 C1339 1.280 . S
C3010 C79 1.796 . S
C3012 C1359 1.794 . S
C3021 C99 1.802 . S
C3023 C1439 1.799 . S
C3032 C102 1.345 . S
C3034 C439 1.361 . S
C3043 C1419 1.370 . S
C3045 C122 1.364 . S
C3054 C339 1.823 . S
C3056 C159 1.824 . S
C3065 C179 1.836 1_565 S
C3067 C319 1.844 . S
C3076 C259 1.714 1_545 S
C3078 C199 1.719 . S
C3087 C219 1.596 . S
C3089 C279 1.593 . S
C3098 C239 1.758 . S
C3100 C299 1.760 . S
C3109 C342 1.348 . S
C3111 C999 1.346 . S
C3120 C379 1.279 . S
C3122 C1002 1.277 . S
C3131 C399 1.794 . S
C3133 C1039 1.796 . S
C3142 C459 1.370 . S
C3144 C1082 1.364 . S
C3153 C1059 1.802 . S
C3155 C479 1.799 . S
C3164 C498 1.743 . S
C3166 C898 1.743 . S
C3175 C518 1.345 . S
C3177 C1781 1.348 . S
C3186 C1818 1.279 . S
C3188 C521 1.279 . S
C3197 C1838 1.795 . S
C3199 C558 1.795 . S
C3208 C578 1.801 . S
C3210 C1918 1.800 . S
C3219 C581 1.346 . S
C3221 C918 1.362 . S
C3230 C1898 1.371 . S
C3232 C601 1.363 . S
C3241 C638 1.825 . S
C3243 C818 1.822 . S
C3252 C798 1.843 . S
C3254 C658 1.837 1_545 S
C3263 C738 1.713 1_565 S
C3265 C678 1.719 . S
C3274 C758 1.595 . S
C3276 C698 1.595 . S
C3285 C718 1.759 . S
C3287 C778 1.760 . S
C3296 C821 1.345 . S
C3298 C1478 1.346 . S
C3307 C1481 1.276 . S
C3309 C858 1.280 . S
C3318 C1518 1.795 . S
C3320 C878 1.795 . S
C3329 C938 1.371 . S
C3331 C1561 1.361 . S
C3340 C1538 1.801 . S
C3342 C958 1.800 . S
C3351 C1379 1.743 . S
C3353 C979 1.742 . S
C3362 C1399 1.361 . S
C3364 C1062 1.345 . S
C3373 C1299 1.823 . S
C3375 C1119 1.825 . S
C3384 C1139 1.835 . S
C3386 C1279 1.844 . S
C3395 C1159 1.719 . S
C3397 C1219 1.716 . S
C3406 C1239 1.594 . S
C3408 C1179 1.596 . S
C3417 C1259 1.760 . S
C3419 C1199 1.759 . S
C3428 C1458 1.741 . S
C3430 C1858 1.743 . S
C3439 C1878 1.360 . S
C3441 C1541 1.347 . S
C3450 C1598 1.825 . S
C3452 C1778 1.822 . S
C3461 C1618 1.838 . S
C3463 C1758 1.843 . S
C3472 C1698 1.717 . S
C3474 C1638 1.719 . S
C3483 C1718 1.595 . S
C3485 C1658 1.595 . S
C3494 C1678 1.759 . S
C3496 C1738 1.760 . S
C3505 C18 1.461 . S
C3507 C869 1.470 . S
C3516 C889 1.212 . S
C3518 C38 1.199 . S
C3527 C828 0.788 . S
C3529 C41 0.796 . S
C3538 C1809 1.377 . S
C3540 C78 1.415 . S
C3549 C98 1.426 . S
C3551 C1869 1.361 1_554 S
C3560 C1889 0.943 . S
C3562 C101 0.939 . S
C3571 C121 0.844 . S
C3573 C1769 0.874 . S
C3582 C1909 1.405 . S
C3584 C158 1.397 . S
C3593 C528 1.341 . S
C3595 C178 1.426 . S
C3604 C1509 1.261 . S
C3606 C198 1.251 . S
C3615 C218 1.108 . S
C3617 C489 1.114 . S
C3626 C1469 1.187 . S
C3628 C238 1.202 . S
C3637 C258 1.214 . S
C3639 C608 1.117 . S
C3648 C278 1.009 . S
C3650 C1589 1.027 . S
C3659 C298 1.214 . S
C3661 C569 1.210 . S
C3670 C318 1.451 . S
C3672 C1548 1.366 . S
C3681 C338 1.500 . S
C3683 C1689 1.520 . S
C3692 C649 0.931 1_545 S
C3694 C341 0.867 . S
C3703 C1629 1.227 . S
C3705 C378 1.189 . S
C3714 C398 1.243 . S
C3716 C689 1.264 . S
C3725 C418 1.419 . S
C3727 C709 1.438 . S
C3736 C438 1.248 . S
C3738 C1729 1.280 . S
C3747 C458 1.065 . S
C3749 C1749 1.094 . S
C3758 C478 1.406 . S
C3760 C1709 1.424 . S
C3769 C388 1.469 . S
C3771 C499 1.455 . S
C3780 C519 1.196 . S
C3782 C408 1.209 . S
C3791 C349 0.792 . S
C3793 C522 0.793 . S
C3802 C559 1.420 . S
C3804 C1328 1.372 . S
C3813 C579 1.426 . S
C3815 C1388 1.356 1_556 S
C3824 C1408 0.944 . S
C3826 C582 0.939 . S
C3835 C1288 0.871 . S
C3837 C602 0.849 . S
C3846 C639 1.397 . S
C3848 C1428 1.405 . S
C3857 C49 1.338 . S
C3859 C659 1.427 . S
C3868 C679 1.253 . S
C3870 C1028 1.260 . S
C3879 C699 1.114 . S
C3881 C8 1.115 . S
C3890 C988 1.186 . S
C3892 C719 1.205 . S
C3901 C129 1.130 . S
C3903 C739 1.206 . S
C3912 C759 1.004 . S
C3914 C1108 1.030 . S
C3923 C779 1.215 . S
C3925 C88 1.215 . S
C3934 C1069 1.365 . S
C3936 C799 1.451 . S
C3945 C819 1.499 . S
C3947 C1208 1.520 . S
C3956 C822 0.868 . S
C3958 C168 0.935 1_565 S
C3967 C1148 1.225 . S
C3969 C859 1.188 . S
C3978 C879 1.247 . S
C3980 C208 1.265 . S
C3989 C228 1.440 . S
C3991 C899 1.422 . S
C4000 C919 1.253 . S
C4002 C1248 1.282 . S
C4011 C1268 1.091 . S
C4013 C939 1.061 . S
C4022 C1228 1.427 . S
C4024 C959 1.407 . S
C4033 C1829 1.472 . S
C4035 C978 1.457 . S
C4044 C1849 1.212 . S
C4046 C998 1.200 . S
C4055 C1001 0.785 . S
C4057 C1788 0.797 . S
C4066 C1038 1.420 . S
C4068 C849 1.376 . S
C4077 C1058 1.423 . S
C4079 C909 1.391 . S
C4088 C1061 0.942 . S
C4090 C929 0.949 . S
C4099 C809 0.886 . S
C4101 C1081 0.841 . S
C4110 C949 1.405 . S
C4112 C1118 1.392 . S
C4121 C1138 1.430 . S
C4123 C1488 1.336 . S
C4132 C1158 1.251 . S
C4134 C549 1.260 . S
C4143 C1178 1.115 . S
C4145 C1449 1.110 . S
C4154 C1198 1.197 . S
C4156 C509 1.198 . S
C4165 C1218 1.208 . S
C4167 C1568 1.120 . S
C4176 C1238 1.014 . S
C4178 C629 1.030 . S
C4187 C1258 1.210 . S
C4189 C1529 1.212 . S
C4198 C1278 1.447 . S
C4200 C588 1.375 . S
C4209 C729 1.519 1_565 S
C4211 C1298 1.501 . S
C4220 C1609 0.937 . S
C4222 C1301 0.864 . S
C4231 C669 1.226 . S
C4233 C1338 1.188 . S
C4242 C1649 1.267 . S
C4244 C1358 1.239 . S
C4253 C1378 1.425 . S
C4255 C1669 1.438 . S
C4264 C1398 1.255 . S
C4266 C769 1.322 . S
C4275 C1418 1.065 . S
C4277 C789 1.094 . S
C4286 C1438 1.407 . S
C4288 C749 1.425 . S
C4297 C1348 1.472 . S
C4299 C1459 1.456 . S
C4308 C1368 1.206 . S
C4310 C1479 1.202 . S
C4319 C1482 0.786 . S
C4321 C1309 0.796 . S
C4330 C1519 1.420 . S
C4332 C368 1.375 . S
C4341 C428 1.391 . S
C4343 C1539 1.426 . S
C4352 C1542 0.925 . S
C4354 C448 0.956 . S
C4363 C328 0.880 . S
C4365 C1562 0.838 . S
C4374 C468 1.404 . S
C4376 C1599 1.396 . S
C4385 C1619 1.430 . S
C4387 C1009 1.338 . S
C4396 C1639 1.253 . S
C4398 C68 1.260 . S
C4407 C1659 1.114 . S
C4409 C968 1.115 . S
C4418 C1679 1.196 . S
C4420 C28 1.198 . S
C4429 C1089 1.113 . S
C4431 C1699 1.213 . S
C4440 C148 1.025 . S
C4442 C1719 1.011 . S
C4451 C1048 1.216 . S
C4453 C1739 1.212 . S
C4462 C1759 1.448 . S
C4464 C109 1.371 . S
C4473 C248 1.521 1_545 S
C4475 C1779 1.505 . S
C4484 C1782 0.866 . S
C4486 C1128 0.929 . S
C4495 C1819 1.197 . S
C4497 C188 1.224 . S
C4506 C1168 1.264 . S
C4508 C1839 1.246 . S
C4517 C1859 1.425 . S
C4519 C1188 1.437 . S
C4528 C1879 1.251 . S
C4530 C288 1.321 . S
C4539 C308 1.096 . S
C4541 C1899 1.059 . S
C4550 C1919 1.407 . S
C4552 C268 1.427 . S
C4561 C2 1.813 . S
C4563 C182 1.829 . S
C4572 C202 1.963 . S
C4574 C22 1.926 . S
C4583 C59 2.034 . S
C4585 C222 1.972 . S
C4594 C162 1.636 . S
C4596 C62 1.623 . S
C4605 C302 1.680 . S
C4607 C82 1.682 . S
C4616 C242 1.989 . S
C4618 C119 2.076 . S
C4627 C139 2.144 . S
C4629 C262 2.070 . S
C4638 C142 1.882 . S
C4640 C282 1.887 . S
C4649 C322 1.780 . S
C4651 C362 1.783 . S
C4660 C1402 1.793 . S
C4662 C359 1.879 . S
C4671 C382 2.011 . S
C4673 C1422 1.996 . S
C4682 C1382 1.894 . S
C4684 C402 1.902 . S
C4693 C1362 1.903 . S
C4695 C422 1.896 . S
C4704 C442 1.787 . S
C4706 C1319 1.885 . S
C4715 C462 1.990 . S
C4717 C1342 2.017 . S
C4726 C661 1.832 . S
C4728 C481 1.812 . S
C4737 C501 1.933 . S
C4739 C681 1.955 . S
C4748 C538 2.031 . S
C4750 C701 1.972 . S
C4759 C641 1.638 . S
C4761 C541 1.622 . S
C4770 C781 1.678 . S
C4772 C561 1.685 . S
C4781 C721 1.993 . S
C4783 C598 2.075 . S
C4792 C741 2.065 . S
C4794 C618 2.144 . S
C4803 C761 1.895 . S
C4805 C621 1.874 . S
C4814 C841 1.780 . S
C4816 C801 1.778 . S
C4825 C838 1.883 . S
C4827 C1881 1.788 . S
C4836 C861 2.018 . S
C4838 C1901 1.993 . S
C4847 C881 1.896 . S
C4849 C1861 1.902 . S
C4858 C1841 1.893 . S
C4860 C901 1.903 . S
C4869 C1798 1.884 . S
C4871 C921 1.787 . S
C4880 C1821 2.018 . S
C4882 C941 1.992 . S
C4891 C962 1.821 . S
C4893 C1142 1.825 . S
C4902 C982 1.936 . S
C4904 C1162 1.954 . S
C4913 C1019 2.033 . S
C4915 C1182 1.972 . S
C4924 C1022 1.630 . S
C4926 C1122 1.628 . S
C4935 C1262 1.671 . S
C4937 C1042 1.689 . S
C4946 C1079 2.070 . S
C4948 C1202 1.998 . S
C4957 C1222 2.075 . S
C4959 C1099 2.139 . S
C4968 C1242 1.890 . S
C4970 C1102 1.875 . S
C4979 C1322 1.781 . S
C4981 C1282 1.779 . S
C4990 C1441 1.821 . S
C4992 C1621 1.823 . S
C5001 C1641 1.951 . S
C5003 C1461 1.935 . S
C5012 C1498 2.031 . S
C5014 C1661 1.972 . S
C5023 C1601 1.630 . S
C5025 C1501 1.628 . S
C5034 C1521 1.687 . S
C5036 C1741 1.674 . S
C5045 C1681 1.990 . S
C5047 C1558 2.077 . S
C5056 C1578 2.144 . S
C5058 C1701 2.067 . S
C5067 C1581 1.876 . S
C5069 C1721 1.890 . S
C5078 C1761 1.770 . S
C5080 C1801 1.790 . S
