# Generated by pormake.
# Topology umw, (4)-cn, num edge types: 1
# Building blocks:
#     Node 0, Type 0, BuildingBlock: KUFVIS_clean_sbu_0, # of connection points: 4
#     Node 1, Type 0, BuildingBlock: KUFVIS_clean_sbu_0, # of connection points: 4
#     Node 2, Type 0, BuildingBlock: KUFVIS_clean_sbu_0, # of connection points: 4
#     Node 3, Type 0, BuildingBlock: KUFVIS_clean_sbu_0, # of connection points: 4
#     Node 4, Type 0, BuildingBlock: KUFVIS_clean_sbu_0, # of connection points: 4
#     Node 5, Type 0, BuildingBlock: KUFVIS_clean_sbu_0, # of connection points: 4
#     Node 6, Type 0, BuildingBlock: KUFVIS_clean_sbu_0, # of connection points: 4
#     Node 7, Type 0, BuildingBlock: KUFVIS_clean_sbu_0, # of connection points: 4
#     Edge 8, Type (0, 0), BuildingBlock: XIVTED_clean_linker_0, # of connection points: 2
#     Edge 9, Type (0, 0), BuildingBlock: XIVTED_clean_linker_0, # of connection points: 2
#     Edge 10, Type (0, 0), BuildingBlock: XIVTED_clean_linker_0, # of connection points: 2
#     Edge 11, Type (0, 0), BuildingBlock: XIVTED_clean_linker_0, # of connection points: 2
#     Edge 12, Type (0, 0), BuildingBlock: XIVTED_clean_linker_0, # of connection points: 2
#     Edge 13, Type (0, 0), BuildingBlock: XIVTED_clean_linker_0, # of connection points: 2
#     Edge 14, Type (0, 0), BuildingBlock: XIVTED_clean_linker_0, # of connection points: 2
#     Edge 15, Type (0, 0), BuildingBlock: XIVTED_clean_linker_0, # of connection points: 2
#     Edge 16, Type (0, 0), BuildingBlock: XIVTED_clean_linker_0, # of connection points: 2
#     Edge 17, Type (0, 0), BuildingBlock: XIVTED_clean_linker_0, # of connection points: 2
#     Edge 18, Type (0, 0), BuildingBlock: XIVTED_clean_linker_0, # of connection points: 2
#     Edge 19, Type (0, 0), BuildingBlock: XIVTED_clean_linker_0, # of connection points: 2
#     Edge 20, Type (0, 0), BuildingBlock: XIVTED_clean_linker_0, # of connection points: 2
#     Edge 21, Type (0, 0), BuildingBlock: XIVTED_clean_linker_0, # of connection points: 2
#     Edge 22, Type (0, 0), BuildingBlock: XIVTED_clean_linker_0, # of connection points: 2
#     Edge 23, Type (0, 0), BuildingBlock: XIVTED_clean_linker_0, # of connection points: 2
# Relax obj value: 0.132
# Max RMSD: 0.105
# Mean RMSD: 0.105
data_MOF--net-umw--node1-KUFVIS_clean_sbu_0--edge1-XIVTED_clean_linker_0
_symmetry_space_group_name_H-M    P1
_symmetry_Int_Tables_number       1
_symmetry_cell_setting            triclinic
loop_
_symmetry_equiv_pos_as_xyz
'x, y, z'
_cell_length_a     42.161158
_cell_length_b     42.231209
_cell_length_c     25.437287
_cell_angle_alpha  89.960884
_cell_angle_beta   90.028176
_cell_angle_gamma 90.022555
loop_
_atom_site_label
_atom_site_type_symbol
_atom_site_fract_x
_atom_site_fract_y
_atom_site_fract_z
_atom_type_partial_charge
Mn0 Mn 0.41207 0.18661 0.2898 0.0
Mn1 Mn 0.48646 0.1564 0.29419 0.0
C2 C 0.43734 0.17799 0.36872 0.0
C3 C 0.37657 0.22897 0.2938 0.0
C4 C 0.42803 0.11592 0.28028 0.0
O5 O 0.42719 0.1941 0.21395 0.0
O6 O 0.47485 0.17041 0.22297 0.0
C7 C 0.51922 0.21709 0.27223 0.0
N8 N 0.51497 0.19121 0.30345 0.0
C9 C 0.55483 0.20936 0.36416 0.0
C10 C 0.55971 0.23612 0.33253 0.0
C11 C 0.54175 0.24004 0.28646 0.0
C12 C 0.53177 0.18748 0.3483 0.0
H13 H 0.50551 0.22026 0.23678 0.0
C14 C 0.45373 0.18442 0.19554 0.0
O15 O 0.36768 0.20142 0.27641 0.0
O16 O 0.40661 0.23269 0.3026 0.0
N17 N 0.50193 0.14171 0.36064 0.0
C18 C 0.49627 0.11331 0.38439 0.0
C19 C 0.51338 0.10493 0.42966 0.0
C20 C 0.5367 0.12546 0.44939 0.0
C21 C 0.54293 0.15404 0.42329 0.0
C22 C 0.52533 0.16095 0.378 0.0
H23 H 0.47908 0.09699 0.36861 0.0
O24 O 0.40673 0.17935 0.36673 0.0
O25 O 0.45254 0.18184 0.32492 0.0
O26 O 0.40798 0.13853 0.27702 0.0
O27 O 0.45778 0.11983 0.28732 0.0
C28 C 0.56626 0.1757 0.44 0.0
C29 C 0.57202 0.20348 0.41069 0.0
H30 H 0.57719 0.25379 0.34322 0.0
H31 H 0.54533 0.26067 0.2619 0.0
H32 H 0.50877 0.08259 0.44907 0.0
H33 H 0.54996 0.11884 0.48417 0.0
H34 H 0.57996 0.17118 0.47526 0.0
H35 H 0.58999 0.21999 0.42396 0.0
Mn36 Mn 0.82561 0.4083 0.5487 0.0
Mn37 Mn 0.84292 0.48657 0.54672 0.0
C38 C 0.82944 0.43675 0.62574 0.0
C39 C 0.78745 0.36808 0.55391 0.0
C40 C 0.89257 0.43495 0.53254 0.0
O41 O 0.81702 0.42018 0.47153 0.0
O42 O 0.82694 0.47269 0.47779 0.0
C43 C 0.77745 0.51071 0.53366 0.0
N44 N 0.80528 0.51029 0.56084 0.0
C45 C 0.78591 0.54902 0.62229 0.0
C46 C 0.75709 0.55001 0.59478 0.0
C47 C 0.75281 0.53067 0.5504 0.0
C48 C 0.8095 0.52848 0.60398 0.0
H49 H 0.77408 0.4959 0.49953 0.0
C50 C 0.81825 0.44818 0.45219 0.0
O51 O 0.81628 0.36192 0.53888 0.0
O52 O 0.78038 0.39761 0.56047 0.0
N53 N 0.85867 0.50383 0.61123 0.0
C54 C 0.88785 0.50002 0.63345 0.0
C55 C 0.89609 0.51792 0.6779 0.0
C56 C 0.87446 0.53989 0.6986 0.0
C57 C 0.84476 0.54376 0.67464 0.0
C58 C 0.83797 0.52544 0.63016 0.0
H59 H 0.90474 0.48344 0.61744 0.0
O60 O 0.8325 0.40628 0.62639 0.0
O61 O 0.8241 0.4497 0.58048 0.0
O62 O 0.87409 0.41101 0.53692 0.0
O63 O 0.88281 0.46362 0.53394 0.0
C64 C 0.82155 0.56497 0.69329 0.0
C65 C 0.79206 0.56742 0.66736 0.0
H66 H 0.73805 0.56542 0.60749 0.0
H67 H 0.7306 0.53121 0.52908 0.0
H68 H 0.9191 0.51486 0.69608 0.0
H69 H 0.88091 0.55364 0.7329 0.0
H70 H 0.82603 0.57926 0.72785 0.0
H71 H 0.77428 0.58354 0.68242 0.0
Mn72 Mn 0.59502 0.81868 0.79646 0.0
Mn73 Mn 0.51699 0.83745 0.79415 0.0
C74 C 0.56776 0.8276 0.87347 0.0
C75 C 0.63427 0.77983 0.80584 0.0
C76 C 0.56959 0.885 0.77177 0.0
O77 O 0.58213 0.80688 0.72089 0.0
O78 O 0.52979 0.81772 0.72735 0.0
C79 C 0.49174 0.77204 0.79168 0.0
N80 N 0.49291 0.80114 0.81464 0.0
C81 C 0.45526 0.78545 0.8808 0.0
C82 C 0.45349 0.75537 0.85767 0.0
C83 C 0.4719 0.74861 0.81303 0.0
C84 C 0.47562 0.80776 0.85799 0.0
H85 H 0.50587 0.76675 0.75741 0.0
C86 C 0.55391 0.80755 0.70222 0.0
O87 O 0.64109 0.80759 0.78667 0.0
O88 O 0.60458 0.77397 0.81406 0.0
N89 N 0.50062 0.8569 0.85643 0.0
C90 C 0.50454 0.88729 0.87332 0.0
C91 C 0.48732 0.89809 0.91701 0.0
C92 C 0.46589 0.87773 0.94241 0.0
C93 C 0.4617 0.8468 0.92362 0.0
C94 C 0.47928 0.83747 0.87957 0.0
H95 H 0.52068 0.9032 0.85363 0.0
O96 O 0.59837 0.82943 0.87269 0.0
O97 O 0.55397 0.82001 0.82973 0.0
O98 O 0.59325 0.86637 0.77842 0.0
O99 O 0.54065 0.87598 0.77485 0.0
C100 C 0.44081 0.82485 0.94691 0.0
C101 C 0.43776 0.79412 0.92574 0.0
H102 H 0.43818 0.73725 0.87395 0.0
H103 H 0.47076 0.72541 0.79508 0.0
H104 H 0.49054 0.92205 0.93106 0.0
H105 H 0.45277 0.88609 0.97626 0.0
H106 H 0.42713 0.83129 0.98132 0.0
H107 H 0.42183 0.77737 0.94425 0.0
Mn108 Mn 0.18694 0.59578 0.04122 0.0
Mn109 Mn 0.16386 0.51908 0.04436 0.0
C110 C 0.17895 0.57002 0.11995 0.0
C111 C 0.22776 0.63321 0.04666 0.0
C112 C 0.11881 0.57347 0.02137 0.0
O113 O 0.19683 0.58097 0.96584 0.0
O114 O 0.18195 0.52984 0.97556 0.0
C115 C 0.22758 0.48998 0.03722 0.0
N116 N 0.19938 0.49326 0.06272 0.0
C117 C 0.21468 0.45517 0.12839 0.0
C118 C 0.24383 0.45126 0.1027 0.0
C119 C 0.25035 0.46884 0.05704 0.0
C120 C 0.19303 0.47677 0.10704 0.0
H121 H 0.23264 0.50342 0.00206 0.0
C122 C 0.19312 0.55272 0.94845 0.0
O123 O 0.19992 0.64098 0.02871 0.0
O124 O 0.23249 0.60348 0.05594 0.0
N125 N 0.14567 0.50502 0.10921 0.0
C126 C 0.11648 0.51168 0.12935 0.0
C127 C 0.10618 0.49596 0.17493 0.0
C128 C 0.12576 0.4732 0.1988 0.0
C129 C 0.15546 0.46633 0.17681 0.0
C130 C 0.16439 0.48266 0.13123 0.0
H131 H 0.10114 0.52883 0.11077 0.0
O132 O 0.17806 0.60061 0.11805 0.0
O133 O 0.18451 0.55548 0.0762 0.0
O134 O 0.13877 0.59621 0.02557 0.0
O135 O 0.12618 0.54429 0.02682 0.0
C136 C 0.17663 0.44403 0.19846 0.0
C137 C 0.20632 0.43864 0.17451 0.0
H138 H 0.26143 0.43492 0.11778 0.0
H139 H 0.27285 0.46603 0.03709 0.0
H140 H 0.08316 0.50128 0.19151 0.0
H141 H 0.11774 0.46116 0.23398 0.0
H142 H 0.17046 0.43113 0.23382 0.0
H143 H 0.22256 0.42174 0.19189 0.0
Mn144 Mn 0.40684 0.81691 0.26846 0.0
Mn145 Mn 0.48217 0.84357 0.28205 0.0
C146 C 0.43733 0.8286 0.19584 0.0
C147 C 0.37063 0.7759 0.25404 0.0
C148 C 0.4241 0.88478 0.29851 0.0
O149 O 0.41734 0.80555 0.34538 0.0
O150 O 0.46873 0.8212 0.34618 0.0
C151 C 0.51497 0.78162 0.28572 0.0
N152 N 0.51117 0.81068 0.26337 0.0
C153 C 0.55319 0.80072 0.20156 0.0
C154 C 0.55767 0.77074 0.22409 0.0
C155 C 0.5384 0.76112 0.26625 0.0
C156 C 0.52937 0.82005 0.22247 0.0
H157 H 0.5002 0.77414 0.31811 0.0
C158 C 0.44452 0.80837 0.36762 0.0
O159 O 0.36156 0.80296 0.27314 0.0
O160 O 0.40092 0.7717 0.24885 0.0
N161 N 0.49849 0.86571 0.22221 0.0
C162 C 0.49099 0.89529 0.2047 0.0
C163 C 0.50825 0.90859 0.16296 0.0
C164 C 0.53325 0.89151 0.14007 0.0
C165 C 0.54076 0.86126 0.15909 0.0
C166 C 0.52293 0.84936 0.20113 0.0
H167 H 0.47204 0.90871 0.22248 0.0
O168 O 0.40672 0.82788 0.19196 0.0
O169 O 0.44916 0.82226 0.2416 0.0
O170 O 0.40325 0.86405 0.28676 0.0
O171 O 0.45387 0.87916 0.30031 0.0
C172 C 0.56517 0.84241 0.1379 0.0
C173 C 0.57125 0.81208 0.1589 0.0
H174 H 0.57572 0.75486 0.20921 0.0
H175 H 0.54164 0.73797 0.28372 0.0
H176 H 0.50238 0.93199 0.1486 0.0
H177 H 0.54657 0.90191 0.10802 0.0
H178 H 0.57922 0.85089 0.10514 0.0
H179 H 0.58984 0.79766 0.1419 0.0
Mn180 Mn 0.19452 0.40978 0.5148 0.0
Mn181 Mn 0.1757 0.48729 0.52575 0.0
C182 C 0.1848 0.43997 0.4411 0.0
C183 C 0.23361 0.37133 0.50111 0.0
C184 C 0.12907 0.43358 0.54718 0.0
O185 O 0.20715 0.42017 0.591 0.0
O186 O 0.19884 0.47309 0.58874 0.0
C187 C 0.2405 0.51427 0.5225 0.0
N188 N 0.21044 0.51296 0.50304 0.0
C189 C 0.222 0.5534 0.43917 0.0
C190 C 0.253 0.55542 0.4589 0.0
C191 C 0.26232 0.53566 0.50059 0.0
C192 C 0.20135 0.53156 0.46249 0.0
H193 H 0.24778 0.49904 0.55437 0.0
C194 C 0.20884 0.44792 0.61121 0.0
O195 O 0.206 0.36368 0.52014 0.0
O196 O 0.23918 0.40122 0.49511 0.0
N197 N 0.15331 0.5045 0.46675 0.0
C198 C 0.1228 0.49908 0.4514 0.0
C199 C 0.10992 0.51662 0.4096 0.0
C200 C 0.12835 0.53986 0.38452 0.0
C201 C 0.15946 0.54545 0.40164 0.0
C202 C 0.17098 0.52732 0.44364 0.0
H203 H 0.10838 0.48148 0.47078 0.0
O204 O 0.18302 0.40942 0.43843 0.0
O205 O 0.19256 0.4518 0.48614 0.0
O206 O 0.1471 0.41044 0.53452 0.0
O207 O 0.13832 0.46246 0.54797 0.0
C208 C 0.17963 0.56805 0.37828 0.0
C209 C 0.21093 0.5719 0.39684 0.0
H210 H 0.26991 0.57187 0.44207 0.0
H211 H 0.28626 0.53693 0.5158 0.0
H212 H 0.08584 0.51225 0.39677 0.0
H213 H 0.1184 0.5532 0.35208 0.0
H214 H 0.17143 0.5823 0.34557 0.0
H215 H 0.22636 0.58901 0.37804 0.0
Mn216 Mn 0.5999 0.18602 0.76293 0.0
Mn217 Mn 0.52194 0.16888 0.77644 0.0
C218 C 0.56831 0.17784 0.69007 0.0
C219 C 0.63948 0.22413 0.74936 0.0
C220 C 0.57478 0.12064 0.7931 0.0
O221 O 0.59098 0.19782 0.8401 0.0
O222 O 0.53787 0.1904 0.83967 0.0
C223 C 0.49711 0.23446 0.77704 0.0
N224 N 0.49704 0.20471 0.75641 0.0
C225 C 0.4557 0.21845 0.69527 0.0
C226 C 0.45515 0.24917 0.71612 0.0
C227 C 0.47605 0.25724 0.75702 0.0
C228 C 0.4774 0.19685 0.71648 0.0
H229 H 0.51315 0.24074 0.80842 0.0
C230 C 0.56353 0.19955 0.86156 0.0
O231 O 0.6465 0.19608 0.76703 0.0
O232 O 0.60964 0.23061 0.74446 0.0
N233 N 0.50279 0.14793 0.71774 0.0
C234 C 0.50618 0.11723 0.70219 0.0
C235 C 0.48652 0.10513 0.66243 0.0
C236 C 0.46329 0.12456 0.63956 0.0
C237 C 0.46006 0.15599 0.65638 0.0
C238 C 0.48007 0.16662 0.69662 0.0
H239 H 0.52361 0.10197 0.72015 0.0
O240 O 0.59882 0.17556 0.68615 0.0
O241 O 0.55727 0.18539 0.73576 0.0
O242 O 0.59821 0.13846 0.7809 0.0
O243 O 0.5461 0.13051 0.79561 0.0
C244 C 0.43768 0.17716 0.63496 0.0
C245 C 0.43569 0.20845 0.65408 0.0
H246 H 0.43888 0.26678 0.7009 0.0
H247 H 0.47588 0.28095 0.77316 0.0
H248 H 0.4891 0.08081 0.64976 0.0
H249 H 0.44793 0.115 0.60936 0.0
H250 H 0.42206 0.16968 0.6035 0.0
H251 H 0.41864 0.22461 0.63692 0.0
Mn252 Mn 0.8165 0.5978 0.02066 0.0
Mn253 Mn 0.83575 0.52005 0.02683 0.0
C254 C 0.82228 0.56832 0.94503 0.0
C255 C 0.77761 0.63701 0.01217 0.0
C256 C 0.88367 0.57332 0.04134 0.0
O257 O 0.80742 0.58689 0.09811 0.0
O258 O 0.81789 0.53441 0.09411 0.0
C259 C 0.77083 0.49401 0.03688 0.0
N260 N 0.7992 0.49496 0.01137 0.0
C261 C 0.78242 0.45473 0.95045 0.0
C262 C 0.75307 0.45318 0.97625 0.0
C263 C 0.74722 0.473 0.01953 0.0
C264 C 0.80493 0.47629 0.96931 0.0
H265 H 0.76626 0.50918 0.07018 0.0
C266 C 0.80857 0.55914 0.11846 0.0
O267 O 0.80606 0.64404 0.02816 0.0
O268 O 0.77119 0.60723 0.00676 0.0
N269 N 0.85347 0.50237 0.9641 0.0
C270 C 0.88305 0.5067 0.94369 0.0
C271 C 0.89283 0.48842 0.90055 0.0
C272 C 0.87232 0.46554 0.87936 0.0
C273 C 0.84221 0.4611 0.90158 0.0
C274 C 0.83387 0.47985 0.9448 0.0
H275 H 0.8991 0.52396 0.96015 0.0
O276 O 0.82438 0.59886 0.94321 0.0
O277 O 0.81658 0.55587 -0.00943 0.0
O278 O 0.86475 0.59664 0.03428 0.0
O279 O 0.87466 0.54439 0.0412 0.0
C280 C 0.8201 0.43891 0.88238 0.0
C281 C 0.79014 0.43588 0.90658 0.0
H282 H 0.73482 0.43696 0.96306 0.0
H283 H 0.72459 0.47202 0.03953 0.0
H284 H 0.91615 0.4919 0.88377 0.0
H285 H 0.87994 0.45151 0.84605 0.0
H286 H 0.82578 0.42427 0.84872 0.0
H287 H 0.77321 0.41898 0.89112 0.0
H288 H 0.43502 0.13432 0.44682 0.0
H289 H 0.53534 0.22803 0.65466 0.0
H290 H 0.47477 0.22487 0.40453 0.0
H291 H 0.55808 0.13086 0.61921 0.0
H292 H 0.50055 0.22966 0.5771 0.0
H293 H 0.4671 0.13483 0.52761 0.0
C294 C 0.45009 0.15447 0.45533 0.0
C295 C 0.45341 0.1791 0.41912 0.0
C296 C 0.51318 0.20806 0.58657 0.0
C297 C 0.48811 0.18064 0.51116 0.0
C298 C 0.53283 0.20709 0.6304 0.0
C299 C 0.54871 0.17904 0.64317 0.0
C300 C 0.50915 0.18059 0.5566 0.0
C301 C 0.54561 0.15265 0.61054 0.0
C302 C 0.46816 0.15479 0.50108 0.0
C303 C 0.47254 0.20512 0.43147 0.0
N304 N 0.52551 0.15382 0.56895 0.0
N305 N 0.48935 0.20528 0.47684 0.0
H306 H 0.77739 0.46915 0.65526 0.0
H307 H 0.77245 0.53335 0.91266 0.0
H308 H 0.87096 0.44212 0.70675 0.0
H309 H 0.86635 0.56343 0.86798 0.0
H310 H 0.77011 0.49974 0.83388 0.0
H311 H 0.77147 0.50168 0.73469 0.0
C312 C 0.79653 0.47004 0.68368 0.0
C313 C 0.82503 0.45399 0.67457 0.0
C314 C 0.79102 0.51399 0.84121 0.0
C315 C 0.81852 0.49054 0.76393 0.0
C316 C 0.79244 0.53286 0.88592 0.0
C317 C 0.81999 0.55015 0.89675 0.0
C318 C 0.81755 0.51237 0.80823 0.0
C319 C 0.84504 0.54975 0.86092 0.0
C320 C 0.79306 0.48827 0.72877 0.0
C321 C 0.84895 0.45487 0.71248 0.0
N322 N 0.84358 0.53035 0.81859 0.0
N323 N 0.84551 0.47369 0.75523 0.0
H324 H 0.47513 0.78094 0.165 0.0
H325 H 0.56433 0.87529 0.94461 0.0
H326 H 0.44231 0.87371 0.11976 0.0
H327 H 0.53517 0.77904 0.91568 0.0
H328 H 0.5323 0.87534 0.02553 0.0
H329 H 0.50933 0.77976 0.0869 0.0
C330 C 0.47533 0.80105 0.1385 0.0
C331 C 0.45679 0.8278 0.14873 0.0
C332 C 0.53333 0.8542 0.00162 0.0
C333 C 0.49557 0.82676 0.06121 0.0
C334 C 0.55141 0.85416 0.95588 0.0
C335 C 0.55107 0.82753 0.92336 0.0
C336 C 0.51631 0.82692 0.01538 0.0
C337 C 0.53492 0.80028 0.9395 0.0
C338 C 0.49463 0.80032 0.09431 0.0
C339 C 0.45691 0.85301 0.11314 0.0
N340 N 0.518 0.80062 0.98473 0.0
N341 N 0.47665 0.85218 0.07105 0.0
H342 H 0.23483 0.47342 0.40686 0.0
H343 H 0.22955 0.53654 0.15141 0.0
H344 H 0.13872 0.44787 0.36749 0.0
H345 H 0.13728 0.56835 0.20164 0.0
H346 H 0.23429 0.50525 0.23214 0.0
H347 H 0.23671 0.50796 0.32936 0.0
C348 C 0.21423 0.47513 0.38153 0.0
C349 C 0.18633 0.45871 0.3934 0.0
C350 C 0.21328 0.5195 0.22582 0.0
C351 C 0.18825 0.49759 0.30619 0.0
C352 C 0.21047 0.53704 0.17994 0.0
C353 C 0.18264 0.55403 0.17008 0.0
C354 C 0.18787 0.51892 0.26121 0.0
C355 C 0.15877 0.55486 0.20807 0.0
C356 C 0.21536 0.49457 0.33758 0.0
C357 C 0.16038 0.46078 0.35948 0.0
N358 N 0.16154 0.5367 0.25184 0.0
N359 N 0.16169 0.48061 0.3176 0.0
H360 H 0.38811 0.28981 0.32454 0.0
H361 H 0.22181 0.30919 0.47455 0.0
H362 H 0.31318 0.22048 0.31484 0.0
H363 H 0.29485 0.3807 0.47089 0.0
H364 H 0.25534 0.27511 0.41949 0.0
H365 H 0.35371 0.32341 0.37767 0.0
C366 C 0.36416 0.28192 0.33266 0.0
C367 C 0.35354 0.25227 0.315 0.0
C368 C 0.2641 0.29816 0.43114 0.0
C369 C 0.31412 0.29038 0.37745 0.0
C370 C 0.24514 0.31745 0.46318 0.0
C371 C 0.25555 0.34784 0.47751 0.0
C372 C 0.29368 0.30934 0.41347 0.0
C373 C 0.28582 0.35748 0.46086 0.0
C374 C 0.34458 0.30102 0.36351 0.0
C375 C 0.32229 0.24326 0.32721 0.0
N376 N 0.30367 0.33841 0.42967 0.0
N377 N 0.3038 0.26207 0.35812 0.0
H378 H 0.80027 0.306 0.58062 0.0
H379 H 0.63114 0.28571 0.72131 0.0
H380 H 0.72452 0.37454 0.57472 0.0
H381 H 0.70191 0.21198 0.72326 0.0
H382 H 0.6667 0.31872 0.66968 0.0
H383 H 0.76545 0.27033 0.63089 0.0
C384 C 0.77613 0.31325 0.58875 0.0
C385 C 0.76532 0.34334 0.57336 0.0
C386 C 0.6747 0.29542 0.68156 0.0
C387 C 0.72572 0.30308 0.63201 0.0
C388 C 0.65443 0.2766 0.71156 0.0
C389 C 0.66351 0.24599 0.72683 0.0
C390 C 0.70447 0.28369 0.66621 0.0
C391 C 0.69401 0.23553 0.71272 0.0
C392 C 0.7564 0.29304 0.61802 0.0
C393 C 0.73396 0.35164 0.58576 0.0
N394 N 0.71334 0.25426 0.6829 0.0
N395 N 0.71547 0.3318 0.61454 0.0
H396 H 0.71497 0.62939 -0.01011 0.0
H397 H 0.69702 0.79214 0.82936 0.0
H398 H 0.79028 0.69834 0.98116 0.0
H399 H 0.62618 0.71853 0.83578 0.0
H400 H 0.73222 0.75902 0.88355 0.0
H401 H 0.68171 0.66377 0.9364 0.0
C402 C 0.72434 0.6521 0.97753 0.0
C403 C 0.75549 0.66096 -0.00979 0.0
C404 C 0.70909 0.75004 0.87257 0.0
C405 C 0.71758 0.70041 0.92727 0.0
C406 C 0.68915 0.76877 0.84105 0.0
C407 C 0.65858 0.7581 0.82787 0.0
C408 C 0.6983 0.72053 0.89105 0.0
C409 C 0.64948 0.7278 0.84492 0.0
C410 C 0.70539 0.67166 0.94642 0.0
C411 C 0.76631 0.69066 0.97273 0.0
N412 N 0.66908 0.71029 0.87576 0.0
N413 N 0.74749 0.70923 0.94176 0.0
H414 H 0.29028 0.62407 0.06889 0.0
H415 H 0.30695 0.78435 0.23529 0.0
H416 H 0.21704 0.69525 0.07431 0.0
H417 H 0.38298 0.71731 0.21329 0.0
H418 H 0.27277 0.75135 0.17975 0.0
H419 H 0.32453 0.65834 0.1212 0.0
C420 C 0.28163 0.64725 0.08014 0.0
C421 C 0.25075 0.65682 0.06696 0.0
C422 C 0.29686 0.74377 0.18739 0.0
C423 C 0.28965 0.69599 0.12856 0.0
C424 C 0.31629 0.7624 0.21966 0.0
C425 C 0.34791 0.75357 0.22919 0.0
C426 C 0.30908 0.71603 0.16456 0.0
C427 C 0.35878 0.72507 0.20722 0.0
C428 C 0.30113 0.66673 0.1105 0.0
C429 C 0.24078 0.68703 0.08307 0.0
N430 N 0.33949 0.70745 0.1759 0.0
N431 N 0.26003 0.7054 0.11354 0.0
H432 H 0.38192 0.91726 0.2377 0.0
H433 H 0.42346 0.08343 0.37047 0.0
H434 H 0.44551 0.92816 0.36924 0.0
H435 H 0.40686 0.0748 0.20399 0.0
H436 H 0.41455 0.02647 0.38054 0.0
H437 H 0.37463 0.97508 0.23548 0.0
C438 C 0.39354 0.93176 0.26709 0.0
C439 C 0.41427 0.91809 0.30386 0.0
C440 C 0.41234 0.0371 0.34194 0.0
C441 C 0.40601 0.98368 0.30153 0.0
C442 C 0.4174 0.06947 0.33617 0.0
C443 C 0.41623 0.08343 0.28629 0.0
C444 C 0.40585 0.01861 0.29747 0.0
C445 C 0.40794 0.06466 0.24305 0.0
C446 C 0.38961 0.96464 0.26542 0.0
C447 C 0.42931 0.93785 0.34037 0.0
N448 N 0.40329 0.03294 0.24953 0.0
N449 N 0.4249 0.96968 0.33827 0.0
H450 H 0.92747 0.37902 0.53626 0.0
H451 H 0.08679 0.47344 0.59345 0.0
H452 H 0.93804 0.48067 0.52662 0.0
H453 H 0.09241 0.38185 0.51863 0.0
H454 H 0.02932 0.47029 0.59029 0.0
H455 H 0.98565 0.37442 0.54502 0.0
C456 C 0.94185 0.40027 0.53544 0.0
C457 C 0.92758 0.4303 0.53105 0.0
C458 C 0.04309 0.45071 0.57496 0.0
C459 C 0.9936 0.42514 0.54254 0.0
C460 C 0.07599 0.45237 0.57703 0.0
C461 C 0.09462 0.4281 0.5555 0.0
C462 C 0.02835 0.42454 0.55143 0.0
C463 C 0.07899 0.40119 0.53548 0.0
C464 C 0.97495 0.39758 0.54065 0.0
C465 C 0.94756 0.45697 0.53032 0.0
N466 N 0.04663 0.40022 0.53339 0.0
N467 N 0.97928 0.45374 0.53662 0.0
H468 H 0.52617 0.92973 0.74422 0.0
H469 H 0.62858 0.08505 0.77165 0.0
H470 H 0.62466 0.91973 0.78824 0.0
H471 H 0.53142 0.07641 0.82374 0.0
H472 H 0.63107 0.02691 0.76336 0.0
H473 H 0.53114 0.98672 0.75253 0.0
C474 C 0.54905 0.93946 0.75498 0.0
C475 C 0.57492 0.91965 0.76636 0.0
C476 C 0.60947 0.03797 0.77721 0.0
C477 C 0.5806 0.98543 0.77608 0.0
C478 C 0.60802 0.07107 0.78227 0.0
C479 C 0.5796 0.08585 0.79782 0.0
C480 C 0.58216 0.01986 0.78685 0.0
C481 C 0.55374 0.06638 0.81092 0.0
C482 C 0.55175 0.97209 0.76005 0.0
C483 C 0.60404 0.93403 0.77933 0.0
N484 N 0.55551 0.03461 0.80429 0.0
N485 N 0.6061 0.96618 0.7842 0.0
H486 H 0.91732 0.62953 0.02911 0.0
H487 H 0.07527 0.535 0.97637 0.0
H488 H 0.92986 0.52952 0.05876 0.0
H489 H 0.0842 0.62641 0.05078 0.0
H490 H 0.01792 0.53934 0.98207 0.0
H491 H 0.97543 0.63471 0.01977 0.0
C492 C 0.93213 0.60883 0.0344 0.0
C493 C 0.91846 0.57895 0.04412 0.0
C494 C 0.0324 0.55864 -0.00335 0.0
C495 C 0.98427 0.58469 0.03202 0.0
C496 C 0.06515 0.55629 -0.00682 0.0
C497 C 0.08461 0.58014 0.01398 0.0
C498 C 0.01869 0.58507 0.0209 0.0
C499 C 0.07002 0.60744 0.03447 0.0
C500 C 0.96517 0.61184 0.02885 0.0
C501 C 0.93894 0.55299 0.05058 0.0
N502 N 0.03772 0.60907 0.03806 0.0
N503 N 0.97057 0.55641 0.04362 0.0
H504 H 0.53335 0.25117 0.90068 0.0
H505 H 0.4731 0.14024 0.12727 0.0
H506 H 0.58055 0.16504 0.94619 0.0
H507 H 0.4589 0.24086 0.14208 0.0
H508 H 0.50633 0.14936 0.05037 0.0
H509 H 0.50375 0.25039 0.98378 0.0
C510 C 0.5387 0.23302 0.92947 0.0
C511 C 0.55968 0.20829 0.91698 0.0
C512 C 0.49566 0.1695 0.06992 0.0
C513 C 0.5246 0.2062 0.00999 0.0
C514 C 0.47612 0.16425 0.11303 0.0
C515 C 0.46294 0.18981 0.1405 0.0
C516 C 0.50207 0.20058 0.05373 0.0
C517 C 0.46812 0.22052 0.12118 0.0
C518 C 0.52139 0.2323 0.97636 0.0
C519 C 0.56504 0.18481 0.95476 0.0
N520 N 0.4875 0.22515 0.07886 0.0
N521 N 0.547 0.18387 -0.00102 0.0
H522 H 0.7543 0.53726 0.16339 0.0
H523 H 0.86085 0.45068 0.37403 0.0
H524 H 0.85075 0.56386 0.19707 0.0
H525 H 0.76174 0.46434 0.40776 0.0
H526 H 0.85498 0.48298 0.29472 0.0
H527 H 0.75338 0.50545 0.24453 0.0
C528 C 0.77468 0.53771 0.18934 0.0
C529 C 0.80239 0.55385 0.17446 0.0
C530 C 0.83432 0.47829 0.3188 0.0
C531 C 0.80232 0.5158 0.26434 0.0
C532 C 0.83749 0.4592 0.3632 0.0
C533 C 0.81157 0.45424 0.39655 0.0
C534 C 0.80497 0.49247 0.30761 0.0
C535 C 0.78205 0.46697 0.38209 0.0
C536 C 0.77437 0.51905 0.23488 0.0
C537 C 0.82869 0.55247 0.208 0.0
N538 N 0.77951 0.48572 0.33866 0.0
N539 N 0.82827 0.5332 0.25076 0.0
H540 H 0.5348 0.75103 0.66092 0.0
H541 H 0.43612 0.84571 0.45168 0.0
H542 H 0.55336 0.84847 0.62176 0.0
H543 H 0.46894 0.75324 0.40587 0.0
H544 H 0.46717 0.8415 0.53275 0.0
H545 H 0.50291 0.74595 0.57992 0.0
C546 C 0.53343 0.77084 0.63393 0.0
C547 C 0.54746 0.79996 0.64697 0.0
C548 C 0.46678 0.82172 0.50566 0.0
C549 C 0.50928 0.79506 0.55754 0.0
C550 C 0.44848 0.82378 0.46014 0.0
C551 C 0.44945 0.79949 0.42277 0.0
C552 C 0.48599 0.79506 0.51404 0.0
C553 C 0.46702 0.7721 0.4345 0.0
C554 C 0.51478 0.76811 0.58849 0.0
C555 C 0.54367 0.82541 0.61223 0.0
N556 N 0.4849 0.77064 0.47912 0.0
N557 N 0.52441 0.82259 0.5697 0.0
H558 H 0.25028 0.55293 0.89596 0.0
H559 H 0.1798 0.42518 0.69802 0.0
H560 H 0.15117 0.53001 0.8796 0.0
H561 H 0.25725 0.48435 0.64751 0.0
H562 H 0.17963 0.45283 0.78262 0.0
H563 H 0.26148 0.52125 0.81624 0.0
C564 C 0.23085 0.54226 0.87446 0.0
C565 C 0.1997 0.54444 0.8935 0.0
C566 C 0.19731 0.4591 0.75352 0.0
C567 C 0.21247 0.50679 0.80589 0.0
C568 C 0.19786 0.44283 0.70581 0.0
C569 C 0.2186 0.45251 0.66604 0.0
C570 C 0.21776 0.48499 0.76135 0.0
C571 C 0.24097 0.47623 0.67752 0.0
C572 C 0.23729 0.52373 0.8299 0.0
C573 C 0.17543 0.52921 0.8656 0.0
N574 N 0.2397 0.49211 0.72398 0.0
N575 N 0.18236 0.51067 0.82378 0.0
loop_
_geom_bond_atom_site_label_1
_geom_bond_atom_site_label_2
_geom_bond_distance
_geom_bond_site_symmetry_2
_ccdc_geom_bond_type
Mn0 O5 2.095 . S
Mn0 O15 2.162 . S
Mn0 O16 2.297 . S
Mn0 O24 2.385 . S
Mn0 O25 2.209 . S
Mn0 O26 2.094 . S
Mn1 O6 2.121 . S
Mn1 N8 2.257 . S
Mn1 N17 2.282 . S
Mn1 O25 2.215 . S
Mn1 O27 2.117 . S
C2 O24 1.234 . S
C2 O25 1.283 . S
C3 O15 1.281 . S
C3 O16 1.236 . S
C4 O26 1.240 . S
C4 O27 1.264 . S
O5 Mn0 2.095 . S
O5 C14 1.250 . S
O6 Mn1 2.121 . S
O6 C14 1.258 . S
C7 N8 1.326 . S
C7 C11 1.460 . S
C7 H13 0.929 . S
N8 Mn1 2.257 . S
N8 C7 1.326 . S
N8 C12 1.362 . S
C9 C10 1.258 . S
C9 C12 1.431 . S
C9 C29 1.449 . S
C10 C9 1.258 . S
C10 C11 1.477 . S
C10 H30 0.931 . S
C11 C7 1.460 . S
C11 C10 1.477 . S
C11 H31 0.930 . S
C12 N8 1.362 . S
C12 C9 1.431 . S
C12 C22 1.476 . S
H13 C7 0.929 . S
C14 O5 1.250 . S
C14 O6 1.258 . S
O15 Mn0 2.162 . S
O15 C3 1.281 . S
O16 Mn0 2.297 . S
O16 C3 1.236 . S
N17 Mn1 2.282 . S
N17 C18 1.328 . S
N17 C22 1.318 . S
C18 N17 1.328 . S
C18 C19 1.457 . S
C18 H23 0.929 . S
C19 C18 1.457 . S
C19 C20 1.291 . S
C19 H32 0.931 . S
C20 C19 1.291 . S
C20 C21 1.373 . S
C20 H33 0.929 . S
C21 C20 1.373 . S
C21 C22 1.396 . S
C21 C28 1.403 . S
C22 C12 1.476 . S
C22 N17 1.318 . S
C22 C21 1.396 . S
H23 C18 0.929 . S
O24 Mn0 2.385 . S
O24 C2 1.234 . S
O25 Mn0 2.209 . S
O25 Mn1 2.215 . S
O25 C2 1.283 . S
O26 Mn0 2.094 . S
O26 C4 1.240 . S
O27 Mn1 2.117 . S
O27 C4 1.264 . S
C28 C21 1.403 . S
C28 C29 1.399 . S
C28 H34 0.929 . S
C29 C9 1.449 . S
C29 C28 1.399 . S
C29 H35 0.930 . S
H30 C10 0.931 . S
H31 C11 0.930 . S
H32 C19 0.931 . S
H33 C20 0.929 . S
H34 C28 0.929 . S
H35 C29 0.930 . S
Mn36 O41 2.095 . S
Mn36 O51 2.162 . S
Mn36 O52 2.297 . S
Mn36 O60 2.385 . S
Mn36 O61 2.209 . S
Mn36 O62 2.094 . S
Mn37 O42 2.121 . S
Mn37 N44 2.257 . S
Mn37 N53 2.282 . S
Mn37 O61 2.215 . S
Mn37 O63 2.117 . S
C38 O60 1.234 . S
C38 O61 1.283 . S
C39 O51 1.281 . S
C39 O52 1.236 . S
C40 O62 1.240 . S
C40 O63 1.264 . S
O41 Mn36 2.095 . S
O41 C50 1.250 . S
O42 Mn37 2.121 . S
O42 C50 1.258 . S
C43 N44 1.326 . S
C43 C47 1.460 . S
C43 H49 0.929 . S
N44 Mn37 2.257 . S
N44 C43 1.326 . S
N44 C48 1.362 . S
C45 C46 1.258 . S
C45 C48 1.431 . S
C45 C65 1.449 . S
C46 C45 1.258 . S
C46 C47 1.477 . S
C46 H66 0.931 . S
C47 C43 1.460 . S
C47 C46 1.477 . S
C47 H67 0.930 . S
C48 N44 1.362 . S
C48 C45 1.431 . S
C48 C58 1.476 . S
H49 C43 0.929 . S
C50 O41 1.250 . S
C50 O42 1.258 . S
O51 Mn36 2.162 . S
O51 C39 1.281 . S
O52 Mn36 2.297 . S
O52 C39 1.236 . S
N53 Mn37 2.282 . S
N53 C54 1.328 . S
N53 C58 1.318 . S
C54 N53 1.328 . S
C54 C55 1.457 . S
C54 H59 0.929 . S
C55 C54 1.457 . S
C55 C56 1.291 . S
C55 H68 0.931 . S
C56 C55 1.291 . S
C56 C57 1.373 . S
C56 H69 0.929 . S
C57 C56 1.373 . S
C57 C58 1.396 . S
C57 C64 1.403 . S
C58 C48 1.476 . S
C58 N53 1.318 . S
C58 C57 1.396 . S
H59 C54 0.929 . S
O60 Mn36 2.385 . S
O60 C38 1.234 . S
O61 Mn36 2.209 . S
O61 Mn37 2.215 . S
O61 C38 1.283 . S
O62 Mn36 2.094 . S
O62 C40 1.240 . S
O63 Mn37 2.117 . S
O63 C40 1.264 . S
C64 C57 1.403 . S
C64 C65 1.399 . S
C64 H70 0.929 . S
C65 C45 1.449 . S
C65 C64 1.399 . S
C65 H71 0.930 . S
H66 C46 0.931 . S
H67 C47 0.930 . S
H68 C55 0.931 . S
H69 C56 0.929 . S
H70 C64 0.929 . S
H71 C65 0.930 . S
Mn72 O77 2.095 . S
Mn72 O87 2.162 . S
Mn72 O88 2.297 . S
Mn72 O96 2.385 . S
Mn72 O97 2.209 . S
Mn72 O98 2.094 . S
Mn73 O78 2.121 . S
Mn73 N80 2.257 . S
Mn73 N89 2.282 . S
Mn73 O97 2.215 . S
Mn73 O99 2.117 . S
C74 O96 1.234 . S
C74 O97 1.283 . S
C75 O87 1.281 . S
C75 O88 1.236 . S
C76 O98 1.240 . S
C76 O99 1.264 . S
O77 Mn72 2.095 . S
O77 C86 1.250 . S
O78 Mn73 2.121 . S
O78 C86 1.258 . S
C79 N80 1.326 . S
C79 C83 1.460 . S
C79 H85 0.929 . S
N80 Mn73 2.257 . S
N80 C79 1.326 . S
N80 C84 1.362 . S
C81 C82 1.258 . S
C81 C84 1.431 . S
C81 C101 1.449 . S
C82 C81 1.258 . S
C82 C83 1.477 . S
C82 H102 0.931 . S
C83 C79 1.460 . S
C83 C82 1.477 . S
C83 H103 0.930 . S
C84 N80 1.362 . S
C84 C81 1.431 . S
C84 C94 1.476 . S
H85 C79 0.929 . S
C86 O77 1.250 . S
C86 O78 1.258 . S
O87 Mn72 2.162 . S
O87 C75 1.281 . S
O88 Mn72 2.297 . S
O88 C75 1.236 . S
N89 Mn73 2.282 . S
N89 C90 1.328 . S
N89 C94 1.318 . S
C90 N89 1.328 . S
C90 C91 1.457 . S
C90 H95 0.929 . S
C91 C90 1.457 . S
C91 C92 1.291 . S
C91 H104 0.931 . S
C92 C91 1.291 . S
C92 C93 1.373 . S
C92 H105 0.929 1_556 S
C93 C92 1.373 . S
C93 C94 1.396 . S
C93 C100 1.403 . S
C94 C84 1.476 . S
C94 N89 1.318 . S
C94 C93 1.396 . S
H95 C90 0.929 . S
O96 Mn72 2.385 . S
O96 C74 1.234 . S
O97 Mn72 2.209 . S
O97 Mn73 2.215 . S
O97 C74 1.283 . S
O98 Mn72 2.094 . S
O98 C76 1.240 . S
O99 Mn73 2.117 . S
O99 C76 1.264 . S
C100 C93 1.403 . S
C100 C101 1.399 . S
C100 H106 0.929 . S
C101 C81 1.449 . S
C101 C100 1.399 . S
C101 H107 0.930 . S
H102 C82 0.931 . S
H103 C83 0.930 . S
H104 C91 0.931 . S
H105 C92 0.929 1_554 S
H106 C100 0.929 . S
H107 C101 0.930 . S
Mn108 O113 2.095 1_554 S
Mn108 O123 2.162 . S
Mn108 O124 2.297 . S
Mn108 O132 2.385 . S
Mn108 O133 2.209 . S
Mn108 O134 2.094 . S
Mn109 O114 2.121 1_554 S
Mn109 N116 2.257 . S
Mn109 N125 2.282 . S
Mn109 O133 2.215 . S
Mn109 O135 2.117 . S
C110 O132 1.234 . S
C110 O133 1.283 . S
C111 O123 1.281 . S
C111 O124 1.236 . S
C112 O134 1.240 . S
C112 O135 1.264 . S
O113 Mn108 2.095 1_556 S
O113 C122 1.250 . S
O114 Mn109 2.121 1_556 S
O114 C122 1.258 . S
C115 N116 1.326 . S
C115 C119 1.460 . S
C115 H121 0.929 . S
N116 Mn109 2.257 . S
N116 C115 1.326 . S
N116 C120 1.362 . S
C117 C118 1.258 . S
C117 C120 1.431 . S
C117 C137 1.449 . S
C118 C117 1.258 . S
C118 C119 1.477 . S
C118 H138 0.931 . S
C119 C115 1.460 . S
C119 C118 1.477 . S
C119 H139 0.930 . S
C120 N116 1.362 . S
C120 C117 1.431 . S
C120 C130 1.476 . S
H121 C115 0.929 . S
C122 O113 1.250 . S
C122 O114 1.258 . S
O123 Mn108 2.162 . S
O123 C111 1.281 . S
O124 Mn108 2.297 . S
O124 C111 1.236 . S
N125 Mn109 2.282 . S
N125 C126 1.328 . S
N125 C130 1.318 . S
C126 N125 1.328 . S
C126 C127 1.457 . S
C126 H131 0.929 . S
C127 C126 1.457 . S
C127 C128 1.291 . S
C127 H140 0.931 . S
C128 C127 1.291 . S
C128 C129 1.373 . S
C128 H141 0.929 . S
C129 C128 1.373 . S
C129 C130 1.396 . S
C129 C136 1.403 . S
C130 C120 1.476 . S
C130 N125 1.318 . S
C130 C129 1.396 . S
H131 C126 0.929 . S
O132 Mn108 2.385 . S
O132 C110 1.234 . S
O133 Mn108 2.209 . S
O133 Mn109 2.215 . S
O133 C110 1.283 . S
O134 Mn108 2.094 . S
O134 C112 1.240 . S
O135 Mn109 2.117 . S
O135 C112 1.264 . S
C136 C129 1.403 . S
C136 C137 1.399 . S
C136 H142 0.929 . S
C137 C117 1.449 . S
C137 C136 1.399 . S
C137 H143 0.930 . S
H138 C118 0.931 . S
H139 C119 0.930 . S
H140 C127 0.931 . S
H141 C128 0.929 . S
H142 C136 0.929 . S
H143 C137 0.930 . S
Mn144 O149 2.095 . S
Mn144 O159 2.162 . S
Mn144 O160 2.297 . S
Mn144 O168 2.385 . S
Mn144 O169 2.209 . S
Mn144 O170 2.094 . S
Mn145 O150 2.121 . S
Mn145 N152 2.257 . S
Mn145 N161 2.282 . S
Mn145 O169 2.215 . S
Mn145 O171 2.117 . S
C146 O168 1.234 . S
C146 O169 1.283 . S
C147 O159 1.281 . S
C147 O160 1.236 . S
C148 O170 1.240 . S
C148 O171 1.264 . S
O149 Mn144 2.095 . S
O149 C158 1.250 . S
O150 Mn145 2.121 . S
O150 C158 1.258 . S
C151 N152 1.326 . S
C151 C155 1.460 . S
C151 H157 0.929 . S
N152 Mn145 2.257 . S
N152 C151 1.326 . S
N152 C156 1.362 . S
C153 C154 1.258 . S
C153 C156 1.431 . S
C153 C173 1.449 . S
C154 C153 1.258 . S
C154 C155 1.477 . S
C154 H174 0.931 . S
C155 C151 1.460 . S
C155 C154 1.477 . S
C155 H175 0.930 . S
C156 N152 1.362 . S
C156 C153 1.431 . S
C156 C166 1.476 . S
H157 C151 0.929 . S
C158 O149 1.250 . S
C158 O150 1.258 . S
O159 Mn144 2.162 . S
O159 C147 1.281 . S
O160 Mn144 2.297 . S
O160 C147 1.236 . S
N161 Mn145 2.282 . S
N161 C162 1.328 . S
N161 C166 1.318 . S
C162 N161 1.328 . S
C162 C163 1.457 . S
C162 H167 0.929 . S
C163 C162 1.457 . S
C163 C164 1.291 . S
C163 H176 0.931 . S
C164 C163 1.291 . S
C164 C165 1.373 . S
C164 H177 0.929 . S
C165 C164 1.373 . S
C165 C166 1.396 . S
C165 C172 1.403 . S
C166 C156 1.476 . S
C166 N161 1.318 . S
C166 C165 1.396 . S
H167 C162 0.929 . S
O168 Mn144 2.385 . S
O168 C146 1.234 . S
O169 Mn144 2.209 . S
O169 Mn145 2.215 . S
O169 C146 1.283 . S
O170 Mn144 2.094 . S
O170 C148 1.240 . S
O171 Mn145 2.117 . S
O171 C148 1.264 . S
C172 C165 1.403 . S
C172 C173 1.399 . S
C172 H178 0.929 . S
C173 C153 1.449 . S
C173 C172 1.399 . S
C173 H179 0.930 . S
H174 C154 0.931 . S
H175 C155 0.930 . S
H176 C163 0.931 . S
H177 C164 0.929 . S
H178 C172 0.929 . S
H179 C173 0.930 . S
Mn180 O185 2.095 . S
Mn180 O195 2.162 . S
Mn180 O196 2.297 . S
Mn180 O204 2.385 . S
Mn180 O205 2.209 . S
Mn180 O206 2.094 . S
Mn181 O186 2.121 . S
Mn181 N188 2.257 . S
Mn181 N197 2.282 . S
Mn181 O205 2.215 . S
Mn181 O207 2.117 . S
C182 O204 1.234 . S
C182 O205 1.283 . S
C183 O195 1.281 . S
C183 O196 1.236 . S
C184 O206 1.240 . S
C184 O207 1.264 . S
O185 Mn180 2.095 . S
O185 C194 1.250 . S
O186 Mn181 2.121 . S
O186 C194 1.258 . S
C187 N188 1.326 . S
C187 C191 1.460 . S
C187 H193 0.929 . S
N188 Mn181 2.257 . S
N188 C187 1.326 . S
N188 C192 1.362 . S
C189 C190 1.258 . S
C189 C192 1.431 . S
C189 C209 1.449 . S
C190 C189 1.258 . S
C190 C191 1.477 . S
C190 H210 0.931 . S
C191 C187 1.460 . S
C191 C190 1.477 . S
C191 H211 0.930 . S
C192 N188 1.362 . S
C192 C189 1.431 . S
C192 C202 1.476 . S
H193 C187 0.929 . S
C194 O185 1.250 . S
C194 O186 1.258 . S
O195 Mn180 2.162 . S
O195 C183 1.281 . S
O196 Mn180 2.297 . S
O196 C183 1.236 . S
N197 Mn181 2.282 . S
N197 C198 1.328 . S
N197 C202 1.318 . S
C198 N197 1.328 . S
C198 C199 1.457 . S
C198 H203 0.929 . S
C199 C198 1.457 . S
C199 C200 1.291 . S
C199 H212 0.931 . S
C200 C199 1.291 . S
C200 C201 1.373 . S
C200 H213 0.929 . S
C201 C200 1.373 . S
C201 C202 1.396 . S
C201 C208 1.403 . S
C202 C192 1.476 . S
C202 N197 1.318 . S
C202 C201 1.396 . S
H203 C198 0.929 . S
O204 Mn180 2.385 . S
O204 C182 1.234 . S
O205 Mn180 2.209 . S
O205 Mn181 2.215 . S
O205 C182 1.283 . S
O206 Mn180 2.094 . S
O206 C184 1.240 . S
O207 Mn181 2.117 . S
O207 C184 1.264 . S
C208 C201 1.403 . S
C208 C209 1.399 . S
C208 H214 0.929 . S
C209 C189 1.449 . S
C209 C208 1.399 . S
C209 H215 0.930 . S
H210 C190 0.931 . S
H211 C191 0.930 . S
H212 C199 0.931 . S
H213 C200 0.929 . S
H214 C208 0.929 . S
H215 C209 0.930 . S
Mn216 O221 2.095 . S
Mn216 O231 2.162 . S
Mn216 O232 2.297 . S
Mn216 O240 2.385 . S
Mn216 O241 2.209 . S
Mn216 O242 2.094 . S
Mn217 O222 2.121 . S
Mn217 N224 2.257 . S
Mn217 N233 2.282 . S
Mn217 O241 2.215 . S
Mn217 O243 2.117 . S
C218 O240 1.234 . S
C218 O241 1.283 . S
C219 O231 1.281 . S
C219 O232 1.236 . S
C220 O242 1.240 . S
C220 O243 1.264 . S
O221 Mn216 2.095 . S
O221 C230 1.250 . S
O222 Mn217 2.121 . S
O222 C230 1.258 . S
C223 N224 1.326 . S
C223 C227 1.460 . S
C223 H229 0.929 . S
N224 Mn217 2.257 . S
N224 C223 1.326 . S
N224 C228 1.362 . S
C225 C226 1.258 . S
C225 C228 1.431 . S
C225 C245 1.449 . S
C226 C225 1.258 . S
C226 C227 1.477 . S
C226 H246 0.931 . S
C227 C223 1.460 . S
C227 C226 1.477 . S
C227 H247 0.930 . S
C228 N224 1.362 . S
C228 C225 1.431 . S
C228 C238 1.476 . S
H229 C223 0.929 . S
C230 O221 1.250 . S
C230 O222 1.258 . S
O231 Mn216 2.162 . S
O231 C219 1.281 . S
O232 Mn216 2.297 . S
O232 C219 1.236 . S
N233 Mn217 2.282 . S
N233 C234 1.328 . S
N233 C238 1.318 . S
C234 N233 1.328 . S
C234 C235 1.457 . S
C234 H239 0.929 . S
C235 C234 1.457 . S
C235 C236 1.291 . S
C235 H248 0.931 . S
C236 C235 1.291 . S
C236 C237 1.373 . S
C236 H249 0.929 . S
C237 C236 1.373 . S
C237 C238 1.396 . S
C237 C244 1.403 . S
C238 C228 1.476 . S
C238 N233 1.318 . S
C238 C237 1.396 . S
H239 C234 0.929 . S
O240 Mn216 2.385 . S
O240 C218 1.234 . S
O241 Mn216 2.209 . S
O241 Mn217 2.215 . S
O241 C218 1.283 . S
O242 Mn216 2.094 . S
O242 C220 1.240 . S
O243 Mn217 2.117 . S
O243 C220 1.264 . S
C244 C237 1.403 . S
C244 C245 1.399 . S
C244 H250 0.929 . S
C245 C225 1.449 . S
C245 C244 1.399 . S
C245 H251 0.930 . S
H246 C226 0.931 . S
H247 C227 0.930 . S
H248 C235 0.931 . S
H249 C236 0.929 . S
H250 C244 0.929 . S
H251 C245 0.930 . S
Mn252 O257 2.095 . S
Mn252 O267 2.162 . S
Mn252 O268 2.297 . S
Mn252 O276 2.385 1_554 S
Mn252 O277 2.209 1_554 S
Mn252 O278 2.094 . S
Mn253 O258 2.121 . S
Mn253 N260 2.257 . S
Mn253 N269 2.282 1_554 S
Mn253 O277 2.215 1_554 S
Mn253 O279 2.117 . S
C254 O276 1.234 . S
C254 O277 1.283 . S
C255 O267 1.281 . S
C255 O268 1.236 . S
C256 O278 1.240 . S
C256 O279 1.264 . S
O257 Mn252 2.095 . S
O257 C266 1.250 . S
O258 Mn253 2.121 . S
O258 C266 1.258 . S
C259 N260 1.326 . S
C259 C263 1.460 . S
C259 H265 0.929 . S
N260 Mn253 2.257 . S
N260 C259 1.326 . S
N260 C264 1.362 1_554 S
C261 C262 1.258 . S
C261 C264 1.431 . S
C261 C281 1.449 . S
C262 C261 1.258 . S
C262 C263 1.477 1_556 S
C262 H282 0.931 . S
C263 C259 1.460 . S
C263 C262 1.477 1_554 S
C263 H283 0.930 . S
C264 N260 1.362 1_556 S
C264 C261 1.431 . S
C264 C274 1.476 . S
H265 C259 0.929 . S
C266 O257 1.250 . S
C266 O258 1.258 . S
O267 Mn252 2.162 . S
O267 C255 1.281 . S
O268 Mn252 2.297 . S
O268 C255 1.236 . S
N269 Mn253 2.282 1_556 S
N269 C270 1.328 . S
N269 C274 1.318 . S
C270 N269 1.328 . S
C270 C271 1.457 . S
C270 H275 0.929 . S
C271 C270 1.457 . S
C271 C272 1.291 . S
C271 H284 0.931 . S
C272 C271 1.291 . S
C272 C273 1.373 . S
C272 H285 0.929 . S
C273 C272 1.373 . S
C273 C274 1.396 . S
C273 C280 1.403 . S
C274 C264 1.476 . S
C274 N269 1.318 . S
C274 C273 1.396 . S
H275 C270 0.929 . S
O276 Mn252 2.385 1_556 S
O276 C254 1.234 . S
O277 Mn252 2.209 1_556 S
O277 Mn253 2.215 1_556 S
O277 C254 1.283 . S
O278 Mn252 2.094 . S
O278 C256 1.240 . S
O279 Mn253 2.117 . S
O279 C256 1.264 . S
C280 C273 1.403 . S
C280 C281 1.399 . S
C280 H286 0.929 . S
C281 C261 1.449 . S
C281 C280 1.399 . S
C281 H287 0.930 . S
H282 C262 0.931 . S
H283 C263 0.930 . S
H284 C271 0.931 . S
H285 C272 0.929 . S
H286 C280 0.929 . S
H287 C281 0.930 . S
H288 C294 0.930 . S
H289 C298 0.930 . S
H290 C303 0.929 . S
H291 C301 0.929 . S
H292 C296 0.929 . S
H293 C302 0.929 . S
C294 H288 0.930 . S
C294 C295 1.367 . S
C294 C302 1.378 . S
C295 C294 1.367 . S
C295 C303 1.433 . S
C296 H292 0.929 . S
C296 C298 1.378 . S
C296 C300 1.350 . S
C297 C300 1.463 . S
C297 C302 1.350 . S
C297 N305 1.427 . S
C298 H289 0.930 . S
C298 C296 1.378 . S
C298 C299 1.367 . S
C299 C298 1.367 . S
C299 C301 1.433 . S
C300 C296 1.350 . S
C300 C297 1.463 . S
C300 N304 1.427 . S
C301 H291 0.929 . S
C301 C299 1.433 . S
C301 N304 1.384 . S
C302 H293 0.929 . S
C302 C294 1.378 . S
C302 C297 1.350 . S
C303 H290 0.929 . S
C303 C295 1.433 . S
C303 N305 1.384 . S
N304 C300 1.427 . S
N304 C301 1.384 . S
N305 C297 1.427 . S
N305 C303 1.384 . S
H306 C312 0.930 . S
H307 C316 0.930 . S
H308 C321 0.929 . S
H309 C319 0.929 . S
H310 C314 0.929 . S
H311 C320 0.929 . S
C312 H306 0.930 . S
C312 C313 1.367 . S
C312 C320 1.378 . S
C313 C312 1.367 . S
C313 C321 1.433 . S
C314 H310 0.929 . S
C314 C316 1.378 . S
C314 C318 1.350 . S
C315 C318 1.463 . S
C315 C320 1.350 . S
C315 N323 1.427 . S
C316 H307 0.930 . S
C316 C314 1.378 . S
C316 C317 1.367 . S
C317 C316 1.367 . S
C317 C319 1.433 . S
C318 C314 1.350 . S
C318 C315 1.463 . S
C318 N322 1.427 . S
C319 H309 0.929 . S
C319 C317 1.433 . S
C319 N322 1.384 . S
C320 H311 0.929 . S
C320 C312 1.378 . S
C320 C315 1.350 . S
C321 H308 0.929 . S
C321 C313 1.433 . S
C321 N323 1.384 . S
N322 C318 1.427 . S
N322 C319 1.384 . S
N323 C315 1.427 . S
N323 C321 1.384 . S
H324 C330 0.930 . S
H325 C334 0.930 . S
H326 C339 0.929 . S
H327 C337 0.929 . S
H328 C332 0.929 1_554 S
H329 C338 0.929 . S
C330 H324 0.930 . S
C330 C331 1.367 . S
C330 C338 1.378 . S
C331 C330 1.367 . S
C331 C339 1.433 . S
C332 H328 0.929 1_556 S
C332 C334 1.378 . S
C332 C336 1.350 1_556 S
C333 C336 1.463 . S
C333 C338 1.350 . S
C333 N341 1.427 . S
C334 H325 0.930 . S
C334 C332 1.378 . S
C334 C335 1.367 . S
C335 C334 1.367 . S
C335 C337 1.433 . S
C336 C332 1.350 1_554 S
C336 C333 1.463 . S
C336 N340 1.427 1_554 S
C337 H327 0.929 . S
C337 C335 1.433 . S
C337 N340 1.384 . S
C338 H329 0.929 . S
C338 C330 1.378 . S
C338 C333 1.350 . S
C339 H326 0.929 . S
C339 C331 1.433 . S
C339 N341 1.384 . S
N340 C336 1.427 1_556 S
N340 C337 1.384 . S
N341 C333 1.427 . S
N341 C339 1.384 . S
H342 C348 0.930 . S
H343 C352 0.930 . S
H344 C357 0.929 . S
H345 C355 0.929 . S
H346 C350 0.929 . S
H347 C356 0.929 . S
C348 H342 0.930 . S
C348 C349 1.367 . S
C348 C356 1.378 . S
C349 C348 1.367 . S
C349 C357 1.433 . S
C350 H346 0.929 . S
C350 C352 1.378 . S
C350 C354 1.350 . S
C351 C354 1.463 . S
C351 C356 1.350 . S
C351 N359 1.427 . S
C352 H343 0.930 . S
C352 C350 1.378 . S
C352 C353 1.367 . S
C353 C352 1.367 . S
C353 C355 1.433 . S
C354 C350 1.350 . S
C354 C351 1.463 . S
C354 N358 1.427 . S
C355 H345 0.929 . S
C355 C353 1.433 . S
C355 N358 1.384 . S
C356 H347 0.929 . S
C356 C348 1.378 . S
C356 C351 1.350 . S
C357 H344 0.929 . S
C357 C349 1.433 . S
C357 N359 1.384 . S
N358 C354 1.427 . S
N358 C355 1.384 . S
N359 C351 1.427 . S
N359 C357 1.384 . S
H360 C366 0.930 . S
H361 C370 0.930 . S
H362 C375 0.929 . S
H363 C373 0.929 . S
H364 C368 0.929 . S
H365 C374 0.929 . S
C366 H360 0.930 . S
C366 C367 1.367 . S
C366 C374 1.378 . S
C367 C366 1.367 . S
C367 C375 1.433 . S
C368 H364 0.929 . S
C368 C370 1.378 . S
C368 C372 1.350 . S
C369 C372 1.463 . S
C369 C374 1.350 . S
C369 N377 1.427 . S
C370 H361 0.930 . S
C370 C368 1.378 . S
C370 C371 1.367 . S
C371 C370 1.367 . S
C371 C373 1.433 . S
C372 C368 1.350 . S
C372 C369 1.463 . S
C372 N376 1.427 . S
C373 H363 0.929 . S
C373 C371 1.433 . S
C373 N376 1.384 . S
C374 H365 0.929 . S
C374 C366 1.378 . S
C374 C369 1.350 . S
C375 H362 0.929 . S
C375 C367 1.433 . S
C375 N377 1.384 . S
N376 C372 1.427 . S
N376 C373 1.384 . S
N377 C369 1.427 . S
N377 C375 1.384 . S
H378 C384 0.930 . S
H379 C388 0.930 . S
H380 C393 0.929 . S
H381 C391 0.929 . S
H382 C386 0.929 . S
H383 C392 0.929 . S
C384 H378 0.930 . S
C384 C385 1.367 . S
C384 C392 1.378 . S
C385 C384 1.367 . S
C385 C393 1.433 . S
C386 H382 0.929 . S
C386 C388 1.378 . S
C386 C390 1.350 . S
C387 C390 1.463 . S
C387 C392 1.350 . S
C387 N395 1.427 . S
C388 H379 0.930 . S
C388 C386 1.378 . S
C388 C389 1.367 . S
C389 C388 1.367 . S
C389 C391 1.433 . S
C390 C386 1.350 . S
C390 C387 1.463 . S
C390 N394 1.427 . S
C391 H381 0.929 . S
C391 C389 1.433 . S
C391 N394 1.384 . S
C392 H383 0.929 . S
C392 C384 1.378 . S
C392 C387 1.350 . S
C393 H380 0.929 . S
C393 C385 1.433 . S
C393 N395 1.384 . S
N394 C390 1.427 . S
N394 C391 1.384 . S
N395 C387 1.427 . S
N395 C393 1.384 . S
H396 C402 0.930 . S
H397 C406 0.930 . S
H398 C411 0.929 . S
H399 C409 0.929 . S
H400 C404 0.929 . S
H401 C410 0.929 . S
C402 H396 0.930 . S
C402 C403 1.367 . S
C402 C410 1.378 . S
C403 C402 1.367 . S
C403 C411 1.433 1_556 S
C404 H400 0.929 . S
C404 C406 1.378 . S
C404 C408 1.350 . S
C405 C408 1.463 . S
C405 C410 1.350 . S
C405 N413 1.427 . S
C406 H397 0.930 . S
C406 C404 1.378 . S
C406 C407 1.367 . S
C407 C406 1.367 . S
C407 C409 1.433 . S
C408 C404 1.350 . S
C408 C405 1.463 . S
C408 N412 1.427 . S
C409 H399 0.929 . S
C409 C407 1.433 . S
C409 N412 1.384 . S
C410 H401 0.929 . S
C410 C402 1.378 . S
C410 C405 1.350 . S
C411 H398 0.929 . S
C411 C403 1.433 1_554 S
C411 N413 1.384 1_554 S
N412 C408 1.427 . S
N412 C409 1.384 . S
N413 C405 1.427 . S
N413 C411 1.384 1_556 S
H414 C420 0.930 . S
H415 C424 0.930 . S
H416 C429 0.929 . S
H417 C427 0.929 . S
H418 C422 0.929 . S
H419 C428 0.929 . S
C420 H414 0.930 . S
C420 C421 1.367 . S
C420 C428 1.378 . S
C421 C420 1.367 . S
C421 C429 1.433 . S
C422 H418 0.929 . S
C422 C424 1.378 . S
C422 C426 1.350 . S
C423 C426 1.463 . S
C423 C428 1.350 . S
C423 N431 1.427 . S
C424 H415 0.930 . S
C424 C422 1.378 . S
C424 C425 1.367 . S
C425 C424 1.367 . S
C425 C427 1.433 . S
C426 C422 1.350 . S
C426 C423 1.463 . S
C426 N430 1.427 . S
C427 H417 0.929 . S
C427 C425 1.433 . S
C427 N430 1.384 . S
C428 H419 0.929 . S
C428 C420 1.378 . S
C428 C423 1.350 . S
C429 H416 0.929 . S
C429 C421 1.433 . S
C429 N431 1.384 . S
N430 C426 1.427 . S
N430 C427 1.384 . S
N431 C423 1.427 . S
N431 C429 1.384 . S
H432 C438 0.930 . S
H433 C442 0.930 . S
H434 C447 0.929 . S
H435 C445 0.929 . S
H436 C440 0.929 . S
H437 C446 0.929 . S
C438 H432 0.930 . S
C438 C439 1.367 . S
C438 C446 1.378 . S
C439 C438 1.367 . S
C439 C447 1.433 . S
C440 H436 0.929 . S
C440 C442 1.378 . S
C440 C444 1.350 . S
C441 C444 1.463 1_565 S
C441 C446 1.350 . S
C441 N449 1.427 . S
C442 H433 0.930 . S
C442 C440 1.378 . S
C442 C443 1.367 . S
C443 C442 1.367 . S
C443 C445 1.433 . S
C444 C440 1.350 . S
C444 C441 1.463 1_545 S
C444 N448 1.427 . S
C445 H435 0.929 . S
C445 C443 1.433 . S
C445 N448 1.384 . S
C446 H437 0.929 . S
C446 C438 1.378 . S
C446 C441 1.350 . S
C447 H434 0.929 . S
C447 C439 1.433 . S
C447 N449 1.384 . S
N448 C444 1.427 . S
N448 C445 1.384 . S
N449 C441 1.427 . S
N449 C447 1.384 . S
H450 C456 0.930 . S
H451 C460 0.930 . S
H452 C465 0.929 . S
H453 C463 0.929 . S
H454 C458 0.929 . S
H455 C464 0.929 . S
C456 H450 0.930 . S
C456 C457 1.367 . S
C456 C464 1.378 . S
C457 C456 1.367 . S
C457 C465 1.433 . S
C458 H454 0.929 . S
C458 C460 1.378 . S
C458 C462 1.350 . S
C459 C462 1.463 1_655 S
C459 C464 1.350 . S
C459 N467 1.427 . S
C460 H451 0.930 . S
C460 C458 1.378 . S
C460 C461 1.367 . S
C461 C460 1.367 . S
C461 C463 1.433 . S
C462 C458 1.350 . S
C462 C459 1.463 1_455 S
C462 N466 1.427 . S
C463 H453 0.929 . S
C463 C461 1.433 . S
C463 N466 1.384 . S
C464 H455 0.929 . S
C464 C456 1.378 . S
C464 C459 1.350 . S
C465 H452 0.929 . S
C465 C457 1.433 . S
C465 N467 1.384 . S
N466 C462 1.427 . S
N466 C463 1.384 . S
N467 C459 1.427 . S
N467 C465 1.384 . S
H468 C474 0.930 . S
H469 C478 0.930 . S
H470 C483 0.929 . S
H471 C481 0.929 . S
H472 C476 0.929 . S
H473 C482 0.929 . S
C474 H468 0.930 . S
C474 C475 1.367 . S
C474 C482 1.378 . S
C475 C474 1.367 . S
C475 C483 1.433 . S
C476 H472 0.929 . S
C476 C478 1.378 . S
C476 C480 1.350 . S
C477 C480 1.463 1_565 S
C477 C482 1.350 . S
C477 N485 1.427 . S
C478 H469 0.930 . S
C478 C476 1.378 . S
C478 C479 1.367 . S
C479 C478 1.367 . S
C479 C481 1.433 . S
C480 C476 1.350 . S
C480 C477 1.463 1_545 S
C480 N484 1.427 . S
C481 H471 0.929 . S
C481 C479 1.433 . S
C481 N484 1.384 . S
C482 H473 0.929 . S
C482 C474 1.378 . S
C482 C477 1.350 . S
C483 H470 0.929 . S
C483 C475 1.433 . S
C483 N485 1.384 . S
N484 C480 1.427 . S
N484 C481 1.384 . S
N485 C477 1.427 . S
N485 C483 1.384 . S
H486 C492 0.930 . S
H487 C496 0.930 . S
H488 C501 0.922 1_556 S
H489 C499 0.929 . S
H490 C494 0.929 . S
H491 C500 0.929 . S
C492 H486 0.930 . S
C492 C493 1.367 . S
C492 C500 1.378 . S
C493 C492 1.367 . S
C493 C501 1.433 . S
C494 H490 0.929 . S
C494 C496 1.378 . S
C494 C498 1.350 . S
C495 C498 1.463 1_655 S
C495 C500 1.350 . S
C495 N503 1.427 . S
C496 H487 0.930 . S
C496 C494 1.378 . S
C496 C497 1.367 . S
C497 C496 1.367 . S
C497 C499 1.433 . S
C498 C494 1.350 . S
C498 C495 1.463 1_455 S
C498 N502 1.427 . S
C499 H489 0.929 . S
C499 C497 1.433 . S
C499 N502 1.384 . S
C500 H491 0.929 . S
C500 C492 1.378 . S
C500 C495 1.350 . S
C501 H488 0.922 1_554 S
C501 C493 1.433 . S
C501 N503 1.384 . S
N502 C498 1.427 . S
N502 C499 1.384 . S
N503 C495 1.427 . S
N503 C501 1.384 . S
H504 C510 0.930 . S
H505 C514 0.930 . S
H506 C519 0.929 . S
H507 C517 0.929 . S
H508 C512 0.929 . S
H509 C518 0.929 . S
C510 H504 0.930 . S
C510 C511 1.367 . S
C510 C518 1.378 . S
C511 C510 1.367 . S
C511 C519 1.433 . S
C512 H508 0.929 . S
C512 C514 1.378 . S
C512 C516 1.350 . S
C513 C516 1.463 . S
C513 C518 1.350 1_554 S
C513 N521 1.427 . S
C514 H505 0.930 . S
C514 C512 1.378 . S
C514 C515 1.367 . S
C515 C514 1.367 . S
C515 C517 1.433 . S
C516 C512 1.350 . S
C516 C513 1.463 . S
C516 N520 1.427 . S
C517 H507 0.929 . S
C517 C515 1.433 . S
C517 N520 1.384 . S
C518 H509 0.929 . S
C518 C510 1.378 . S
C518 C513 1.350 1_556 S
C519 H506 0.929 . S
C519 C511 1.433 . S
C519 N521 1.384 1_556 S
N520 C516 1.427 . S
N520 C517 1.384 . S
N521 C513 1.427 . S
N521 C519 1.384 1_554 S
H522 C528 0.930 . S
H523 C532 0.930 . S
H524 C537 0.929 . S
H525 C535 0.929 . S
H526 C530 0.929 . S
H527 C536 0.929 . S
C528 H522 0.930 . S
C528 C529 1.367 . S
C528 C536 1.378 . S
C529 C528 1.367 . S
C529 C537 1.433 . S
C530 H526 0.929 . S
C530 C532 1.378 . S
C530 C534 1.350 . S
C531 C534 1.463 . S
C531 C536 1.350 . S
C531 N539 1.427 . S
C532 H523 0.930 . S
C532 C530 1.378 . S
C532 C533 1.367 . S
C533 C532 1.367 . S
C533 C535 1.433 . S
C534 C530 1.350 . S
C534 C531 1.463 . S
C534 N538 1.427 . S
C535 H525 0.929 . S
C535 C533 1.433 . S
C535 N538 1.384 . S
C536 H527 0.929 . S
C536 C528 1.378 . S
C536 C531 1.350 . S
C537 H524 0.929 . S
C537 C529 1.433 . S
C537 N539 1.384 . S
N538 C534 1.427 . S
N538 C535 1.384 . S
N539 C531 1.427 . S
N539 C537 1.384 . S
H540 C546 0.930 . S
H541 C550 0.930 . S
H542 C555 0.929 . S
H543 C553 0.929 . S
H544 C548 0.929 . S
H545 C554 0.929 . S
C546 H540 0.930 . S
C546 C547 1.367 . S
C546 C554 1.378 . S
C547 C546 1.367 . S
C547 C555 1.433 . S
C548 H544 0.929 . S
C548 C550 1.378 . S
C548 C552 1.350 . S
C549 C552 1.463 . S
C549 C554 1.350 . S
C549 N557 1.427 . S
C550 H541 0.930 . S
C550 C548 1.378 . S
C550 C551 1.367 . S
C551 C550 1.367 . S
C551 C553 1.433 . S
C552 C548 1.350 . S
C552 C549 1.463 . S
C552 N556 1.427 . S
C553 H543 0.929 . S
C553 C551 1.433 . S
C553 N556 1.384 . S
C554 H545 0.929 . S
C554 C546 1.378 . S
C554 C549 1.350 . S
C555 H542 0.929 . S
C555 C547 1.433 . S
C555 N557 1.384 . S
N556 C552 1.427 . S
N556 C553 1.384 . S
N557 C549 1.427 . S
N557 C555 1.384 . S
H558 C564 0.930 . S
H559 C568 0.930 . S
H560 C573 0.929 . S
H561 C571 0.929 . S
H562 C566 0.929 . S
H563 C572 0.929 . S
C564 H558 0.930 . S
C564 C565 1.367 . S
C564 C572 1.378 . S
C565 C564 1.367 . S
C565 C573 1.433 . S
C566 H562 0.929 . S
C566 C568 1.378 . S
C566 C570 1.350 . S
C567 C570 1.463 . S
C567 C572 1.350 . S
C567 N575 1.427 . S
C568 H559 0.930 . S
C568 C566 1.378 . S
C568 C569 1.367 . S
C569 C568 1.367 . S
C569 C571 1.433 . S
C570 C566 1.350 . S
C570 C567 1.463 . S
C570 N574 1.427 . S
C571 H561 0.929 . S
C571 C569 1.433 . S
C571 N574 1.384 . S
C572 H563 0.929 . S
C572 C564 1.378 . S
C572 C567 1.350 . S
C573 H560 0.929 . S
C573 C565 1.433 . S
C573 N575 1.384 . S
N574 C570 1.427 . S
N574 C571 1.384 . S
N575 C567 1.427 . S
N575 C573 1.384 . S
C295 C2 0.819 . S
C299 C218 0.828 . S
C313 C38 0.835 . S
C317 C254 0.828 . S
C331 C146 0.830 . S
C335 C74 0.820 . S
C349 C182 0.835 . S
C353 C110 0.833 . S
C367 C3 1.464 . S
C371 C183 1.463 . S
C385 C39 1.456 . S
C389 C219 1.457 . S
C403 C255 1.457 1_556 S
C407 C75 1.456 . S
C421 C111 1.460 . S
C425 C147 1.458 . S
C439 C148 1.475 . S
C443 C4 1.472 . S
C457 C40 1.478 . S
C461 C184 1.470 . S
C475 C76 1.471 . S
C479 C220 1.478 . S
C493 C256 1.478 . S
C497 C112 1.471 . S
C511 C230 1.371 . S
C515 C14 1.355 . S
C529 C266 1.370 . S
C533 C50 1.355 . S
C547 C86 1.365 . S
C551 C158 1.355 . S
C565 C122 1.376 . S
C569 C194 1.359 . S
