# Generated by pormake.
# Topology wfa, (4)-cn, num edge types: 1
# Building blocks:
#     Node 0, Type 0, BuildingBlock: ESEHIV_clean_sbu_0, # of connection points: 4
#     Node 1, Type 0, BuildingBlock: ESEHIV_clean_sbu_0, # of connection points: 4
#     Node 2, Type 0, BuildingBlock: ESEHIV_clean_sbu_0, # of connection points: 4
#     Node 3, Type 0, BuildingBlock: ESEHIV_clean_sbu_0, # of connection points: 4
#     Node 4, Type 0, BuildingBlock: ESEHIV_clean_sbu_0, # of connection points: 4
#     Node 5, Type 0, BuildingBlock: ESEHIV_clean_sbu_0, # of connection points: 4
#     Node 6, Type 0, BuildingBlock: ESEHIV_clean_sbu_0, # of connection points: 4
#     Node 7, Type 0, BuildingBlock: ESEHIV_clean_sbu_0, # of connection points: 4
#     Node 8, Type 0, BuildingBlock: ESEHIV_clean_sbu_0, # of connection points: 4
#     Node 9, Type 0, BuildingBlock: ESEHIV_clean_sbu_0, # of connection points: 4
#     Node 10, Type 0, BuildingBlock: ESEHIV_clean_sbu_0, # of connection points: 4
#     Node 11, Type 0, BuildingBlock: ESEHIV_clean_sbu_0, # of connection points: 4
#     Node 12, Type 0, BuildingBlock: ESEHIV_clean_sbu_0, # of connection points: 4
#     Node 13, Type 0, BuildingBlock: ESEHIV_clean_sbu_0, # of connection points: 4
#     Node 14, Type 0, BuildingBlock: ESEHIV_clean_sbu_0, # of connection points: 4
#     Node 15, Type 0, BuildingBlock: ESEHIV_clean_sbu_0, # of connection points: 4
#     Edge 16, Type (0, 0), BuildingBlock: CIFDUS_clean_linker_0, # of connection points: 2
#     Edge 17, Type (0, 0), BuildingBlock: CIFDUS_clean_linker_0, # of connection points: 2
#     Edge 18, Type (0, 0), BuildingBlock: CIFDUS_clean_linker_0, # of connection points: 2
#     Edge 19, Type (0, 0), BuildingBlock: CIFDUS_clean_linker_0, # of connection points: 2
#     Edge 20, Type (0, 0), BuildingBlock: CIFDUS_clean_linker_0, # of connection points: 2
#     Edge 21, Type (0, 0), BuildingBlock: CIFDUS_clean_linker_0, # of connection points: 2
#     Edge 22, Type (0, 0), BuildingBlock: CIFDUS_clean_linker_0, # of connection points: 2
#     Edge 23, Type (0, 0), BuildingBlock: CIFDUS_clean_linker_0, # of connection points: 2
#     Edge 24, Type (0, 0), BuildingBlock: CIFDUS_clean_linker_0, # of connection points: 2
#     Edge 25, Type (0, 0), BuildingBlock: CIFDUS_clean_linker_0, # of connection points: 2
#     Edge 26, Type (0, 0), BuildingBlock: CIFDUS_clean_linker_0, # of connection points: 2
#     Edge 27, Type (0, 0), BuildingBlock: CIFDUS_clean_linker_0, # of connection points: 2
#     Edge 28, Type (0, 0), BuildingBlock: CIFDUS_clean_linker_0, # of connection points: 2
#     Edge 29, Type (0, 0), BuildingBlock: CIFDUS_clean_linker_0, # of connection points: 2
#     Edge 30, Type (0, 0), BuildingBlock: CIFDUS_clean_linker_0, # of connection points: 2
#     Edge 31, Type (0, 0), BuildingBlock: CIFDUS_clean_linker_0, # of connection points: 2
#     Edge 32, Type (0, 0), BuildingBlock: CIFDUS_clean_linker_0, # of connection points: 2
#     Edge 33, Type (0, 0), BuildingBlock: CIFDUS_clean_linker_0, # of connection points: 2
#     Edge 34, Type (0, 0), BuildingBlock: CIFDUS_clean_linker_0, # of connection points: 2
#     Edge 35, Type (0, 0), BuildingBlock: CIFDUS_clean_linker_0, # of connection points: 2
#     Edge 36, Type (0, 0), BuildingBlock: CIFDUS_clean_linker_0, # of connection points: 2
#     Edge 37, Type (0, 0), BuildingBlock: CIFDUS_clean_linker_0, # of connection points: 2
#     Edge 38, Type (0, 0), BuildingBlock: CIFDUS_clean_linker_0, # of connection points: 2
#     Edge 39, Type (0, 0), BuildingBlock: CIFDUS_clean_linker_0, # of connection points: 2
#     Edge 40, Type (0, 0), BuildingBlock: CIFDUS_clean_linker_0, # of connection points: 2
#     Edge 41, Type (0, 0), BuildingBlock: CIFDUS_clean_linker_0, # of connection points: 2
#     Edge 42, Type (0, 0), BuildingBlock: CIFDUS_clean_linker_0, # of connection points: 2
#     Edge 43, Type (0, 0), BuildingBlock: CIFDUS_clean_linker_0, # of connection points: 2
#     Edge 44, Type (0, 0), BuildingBlock: CIFDUS_clean_linker_0, # of connection points: 2
#     Edge 45, Type (0, 0), BuildingBlock: CIFDUS_clean_linker_0, # of connection points: 2
#     Edge 46, Type (0, 0), BuildingBlock: CIFDUS_clean_linker_0, # of connection points: 2
#     Edge 47, Type (0, 0), BuildingBlock: CIFDUS_clean_linker_0, # of connection points: 2
# Relax obj value: 0.153
# Max RMSD: 0.164
# Mean RMSD: 0.152
data_MOF--net-wfa--node1-ESEHIV_clean_sbu_0--edge1-CIFDUS_clean_linker_0
_symmetry_space_group_name_H-M    P1
_symmetry_Int_Tables_number       1
_symmetry_cell_setting            triclinic
loop_
_symmetry_equiv_pos_as_xyz
'x, y, z'
_cell_length_a     46.021348
_cell_length_b     45.892239
_cell_length_c     20.313466
_cell_angle_alpha  88.68619
_cell_angle_beta   87.636157
_cell_angle_gamma 88.27082
loop_
_atom_site_label
_atom_site_type_symbol
_atom_site_fract_x
_atom_site_fract_y
_atom_site_fract_z
_atom_type_partial_charge
Cu0 Cu 0.6854 0.05597 0.05105 0.0
N1 N 0.66115 0.03397 0.10866 0.0
N2 N 0.62008 0.02684 0.16966 0.0
C3 C 0.63582 0.0458 0.13258 0.0
C4 C 0.6365 1.00192 0.1705 0.0
C5 C 0.66181 1.00632 0.13233 0.0
O6 O 0.65524 0.07982 1.00841 0.0
C7 C 0.71687 0.07276 0.16374 0.0
O8 O 0.69509 0.06199 0.1993 0.0
H9 H 0.62919 0.0683 0.12339 0.0
H10 H 0.67922 0.99047 0.12245 0.0
N11 N 0.70678 0.03478 0.98603 0.0
N12 N 0.73741 0.02551 0.89944 0.0
C13 C 0.72539 0.04614 0.93955 0.0
C14 C 0.70725 1.00597 0.97538 0.0
C15 C 0.72597 1.00022 0.92215 0.0
C16 C 0.63788 0.06442 0.977 0.0
O17 O 0.64672 0.03797 0.9608 0.0
H18 H 0.72955 0.06919 0.93456 0.0
H19 H 0.69469 0.99026 1.0039 0.0
O20 O 0.71495 0.07507 0.10121 0.0
H21 H 0.63053 0.9819 0.19607 0.0
H22 H 0.73086 0.97892 0.90199 0.0
Cu23 Cu 0.53165 0.65626 0.10419 0.0
N24 N 0.55234 0.62986 0.15946 0.0
N25 N 0.54939 0.59117 0.22967 0.0
C26 C 0.54343 0.60223 0.16971 0.0
C27 C 0.56349 0.61248 0.2587 0.0
C28 C 0.56543 0.63616 0.21534 0.0
O29 O 0.50457 0.62882 0.06619 0.0
C30 C 0.53629 0.70727 0.17585 0.0
O31 O 0.56205 0.705 0.14581 0.0
H32 H 0.52815 0.59215 0.13982 0.0
H33 H 0.57202 0.65769 0.22781 0.0
N34 N 0.55366 0.6742 0.03409 0.0
N35 N 0.5672 0.70577 0.95253 0.0
C36 C 0.54568 0.69766 0.99625 0.0
C37 C 0.58101 0.66717 0.01336 0.0
C38 C 0.58931 0.68634 0.9633 0.0
C39 C 0.51572 0.61122 0.02301 0.0
O40 O 0.53989 0.61865 0.99131 0.0
H41 H 0.52486 0.7091 1.00229 0.0
H42 H 0.59408 0.64943 0.03366 0.0
O43 O 0.51749 0.68809 0.16415 0.0
H44 H 0.56884 0.61233 0.31012 0.0
H45 H 0.61023 0.6859 0.93696 0.0
Cu46 Cu 0.86586 0.49299 0.02302 0.0
N47 N 0.87462 0.52443 0.07461 0.0
N48 N 0.88676 0.54012 0.17269 0.0
C49 C 0.89125 0.51974 0.12668 0.0
C50 C 0.86632 0.55869 0.14889 0.0
C51 C 0.85913 0.54919 0.08758 0.0
O52 O 0.9028 0.4692 0.01447 0.0
C53 C 0.80921 0.49146 0.07637 0.0
O54 O 0.80757 0.51477 0.03792 0.0
H55 H 0.90301 0.4993 0.13542 0.0
H56 H 0.84138 0.55766 0.05887 0.0
N57 N 0.85437 0.50523 0.93852 0.0
N58 N 0.82964 0.51251 0.84605 0.0
C59 C 0.83051 0.49856 0.90555 0.0
C60 C 0.86927 0.52344 0.898 0.0
C61 C 0.85428 0.52789 0.84133 0.0
C62 C 0.92663 0.48285 1.0052 0.0
O63 O 0.92544 0.5114 0.99923 0.0
H64 H 0.81378 0.48445 0.92561 0.0
H65 H 0.88958 0.53308 0.90918 0.0
O66 O 0.83292 0.47612 0.07525 0.0
H67 H 0.85515 0.5758 0.1767 0.0
H68 H 0.86118 0.54158 0.7999 0.0
Cu69 Cu 0.02439 0.88212 0.02572 0.0
N70 N 0.06322 0.88599 0.04591 0.0
N71 N 0.10193 0.9035 0.09236 0.0
C72 C 0.07272 0.902 0.0949 0.0
C73 C 0.1113 0.88798 0.03969 0.0
C74 C 0.0873 0.87701 1.01127 0.0
O75 O 1.00545 0.9195 0.04836 0.0
C76 C 1.00916 0.84991 0.14209 0.0
O77 O 1.02057 0.87182 0.17134 0.0
H78 H 0.05845 0.91351 0.12984 0.0
H79 H 0.08735 0.86419 0.96724 0.0
N80 N 0.02329 0.87205 0.93703 0.0
N81 N 1.02104 0.84275 0.85092 0.0
C82 C 1.01266 0.84727 0.9145 0.0
C83 C 0.03877 0.88368 0.88573 0.0
C84 C 0.03744 0.86562 0.83252 0.0
C85 C 0.99633 0.93988 1.01011 0.0
O86 O 0.99599 0.93556 0.94646 0.0
H87 H 1.00061 0.83188 0.9453 0.0
H88 H 0.05155 0.90299 0.88808 0.0
O89 O 1.00804 0.85052 0.07959 0.0
H90 H 0.13378 0.88515 0.02263 0.0
H91 H 0.04821 0.86869 0.78458 0.0
Cu92 Cu 0.1908 0.07071 0.43471 0.0
N93 N 0.18838 0.03127 0.4159 0.0
N94 N 0.17439 0.99078 0.36925 0.0
C95 C 0.17574 1.02006 0.36389 0.0
C96 C 0.18666 0.98322 0.42648 0.0
C97 C 0.19549 1.00825 0.45496 0.0
O98 O 0.1504 0.08655 0.42868 0.0
C99 C 0.24209 0.07565 0.35382 0.0
O100 O 0.24928 0.05174 0.38685 0.0
H101 H 0.16632 0.03318 0.32478 0.0
H102 H 0.2055 1.00961 0.50196 0.0
N103 N 0.20605 0.07271 0.51919 0.0
N104 N 0.23885 0.07352 0.59792 0.0
C105 C 0.23306 0.08034 0.53444 0.0
C106 C 0.19444 0.06077 0.57508 0.0
C107 C 0.21449 0.06132 0.62359 0.0
C108 C 0.13255 0.09521 0.47467 0.0
O109 O 0.14168 0.09745 0.53466 0.0
H110 H 0.24873 0.08918 0.49877 0.0
H111 H 0.17342 0.05082 0.57926 0.0
O112 O 0.21746 0.08817 0.36748 0.0
H113 H 0.18846 0.96125 0.4468 0.0
H114 H 0.21155 0.05286 0.67351 0.0
Cu115 Cu 0.50899 0.16101 0.47678 0.0
N116 N 0.48514 0.1385 0.42538 0.0
N117 N 0.48661 0.10698 0.34167 0.0
C118 C 0.49759 0.11415 0.39922 0.0
C119 C 0.46553 0.12746 0.33107 0.0
C120 C 0.46459 0.14679 0.38276 0.0
O121 O 0.53526 0.12897 0.5086 0.0
C122 C 0.50148 0.21098 0.40144 0.0
O123 O 0.47719 0.20929 0.43741 0.0
H124 H 0.51806 0.10495 0.41478 0.0
H125 H 0.45252 0.16734 0.38386 0.0
N126 N 0.49265 0.18062 0.55159 0.0
N127 N 0.48972 0.21229 0.63492 0.0
C128 C 0.50521 0.20303 0.58086 0.0
C129 C 0.46811 0.1758 0.58809 0.0
C130 C 0.46638 0.19508 0.63964 0.0
C131 C 0.52233 0.10983 0.5457 0.0
O132 O 0.49711 0.1174 0.57375 0.0
H133 H 0.52562 0.21208 0.56326 0.0
H134 H 0.45267 0.15929 0.57829 0.0
O135 O 0.52186 0.19201 0.41272 0.0
H136 H 0.45389 0.13018 0.28601 0.0
H137 H 0.44905 0.19658 0.6772 0.0
Cu138 Cu 0.38167 0.47194 0.46313 0.0
N139 N 0.40561 0.4522 0.39872 0.0
N140 N 0.44331 0.4628 0.32808 0.0
C141 C 0.43353 0.46056 0.39144 0.0
C142 C 0.42145 0.45313 0.29319 0.0
C143 C 0.39836 0.44667 0.33651 0.0
O144 O 0.41181 0.49105 0.51254 0.0
C145 C 0.33445 0.47942 0.38603 0.0
O146 O 0.33426 0.45162 0.4028 0.0
H147 H 0.44508 0.46953 0.43046 0.0
H148 H 0.37657 0.44283 0.32172 0.0
N149 N 0.3579 0.4514 0.526 0.0
N150 N 0.32486 0.44762 0.61073 0.0
C151 C 0.34134 0.46564 0.5721 0.0
C152 C 0.35167 0.42308 0.53538 0.0
C153 C 0.33126 0.4207 0.58749 0.0
C154 C 0.42444 0.47539 0.55678 0.0
O155 O 0.41037 0.45328 0.5832 0.0
H156 H 0.34107 0.48912 0.57611 0.0
H157 H 0.361 0.40548 0.50611 0.0
O158 O 0.35379 0.49517 0.41015 0.0
H159 H 0.42059 0.4546 0.24002 0.0
H160 H 0.32213 0.40068 0.60703 0.0
Cu161 Cu 1.00157 0.38951 0.49456 0.0
N162 N 0.9637 0.40193 0.47753 0.0
N163 N 0.92775 0.43212 0.44543 0.0
C164 C 0.95666 0.42605 0.44228 0.0
C165 C 0.91616 0.4107 0.48399 0.0
C166 C 0.93844 0.39222 0.50409 0.0
O167 O 0.02337 0.4257 0.48587 0.0
C168 C 0.99932 0.33907 0.4165 0.0
O169 O 0.97359 0.33704 0.44646 0.0
H170 H 0.97263 0.43892 0.41517 0.0
H171 H 0.93647 0.37354 0.53724 0.0
N172 N 1.00068 0.3732 0.58 0.0
N173 N 1.00227 0.34056 0.66336 0.0
C174 C 1.01117 0.34691 0.60048 0.0
C175 C 0.98474 0.38374 0.63167 0.0
C176 C 0.98571 0.36373 0.6831 0.0
C177 C 0.03135 0.4407 0.5337 0.0
O178 O 0.02957 0.42951 0.59373 0.0
H179 H 0.02387 0.33218 0.56902 0.0
H180 H 0.9724 0.40418 0.63107 0.0
O181 O 1.01522 0.36026 0.43021 0.0
H182 H 0.89334 0.40882 0.49794 0.0
H183 H 0.97484 0.36591 0.7311 0.0
Cu184 Cu 0.4168 0.08106 0.91882 0.0
N185 N 0.44167 0.10084 0.85909 0.0
N186 N 0.48261 0.08919 0.80008 0.0
C187 C 0.45435 0.08344 0.81301 0.0
C188 C 0.48765 0.11244 0.83693 0.0
C189 C 0.4624 0.11958 0.87336 0.0
O190 O 0.44634 0.05592 0.9598 0.0
C191 C 0.37492 0.08132 0.82664 0.0
O192 O 0.38289 0.10859 0.82506 0.0
H193 H 0.4448 0.06323 0.7996 0.0
H194 H 0.46111 0.13369 0.91536 0.0
N195 N 0.39561 0.10208 0.98426 0.0
N196 N 0.3644 0.10737 0.07158 0.0
C197 C 0.38246 0.08897 0.03711 0.0
C198 C 0.38555 0.12992 0.98494 0.0
C199 C 0.36633 0.13326 0.03882 0.0
C200 C 0.46339 0.06973 0.99537 0.0
O201 O 0.45414 0.09496 0.01874 0.0
H202 H 0.3849 0.06583 0.04774 0.0
H203 H 0.39076 0.14625 0.94742 0.0
O204 O 0.38765 0.06331 0.86573 0.0
H205 H 0.509 0.12067 0.84487 0.0
H206 H 0.3543 0.15305 0.05197 0.0
Cu207 Cu 0.49518 0.38613 0.97034 0.0
N208 N 0.46971 0.4073 0.91457 0.0
N209 N 0.46946 0.44478 0.8407 0.0
C210 C 0.473 0.43623 0.90395 0.0
C211 C 0.46101 0.42065 0.811 0.0
C212 C 0.46123 0.39771 0.8563 0.0
O213 O 0.52101 0.41764 0.99632 0.0
C214 C 0.49274 0.33245 0.91064 0.0
O215 O 0.46728 0.33473 0.94206 0.0
H216 H 0.48194 0.45016 0.93908 0.0
H217 H 0.46008 0.37503 0.84395 0.0
N218 N 0.47775 0.36897 0.04746 0.0
N219 N 0.4698 0.3383 0.1342 0.0
C220 C 0.48849 0.3463 0.0841 0.0
C221 C 0.45151 0.3756 0.07545 0.0
C222 C 0.44666 0.35703 0.12879 0.0
C223 C 0.51074 0.43559 0.03974 0.0
O224 O 0.48796 0.42791 0.07633 0.0
H225 H 0.50913 0.33526 0.07266 0.0
H226 H 0.43684 0.39264 0.05791 0.0
O227 O 0.51064 0.35313 0.91574 0.0
H228 H 0.4592 0.41861 0.75833 0.0
H229 H 0.42733 0.35737 0.16094 0.0
Cu230 Cu 0.15325 0.48724 0.97998 0.0
N231 N 0.13775 0.52066 0.93851 0.0
N232 N 0.10379 0.54751 0.88741 0.0
C233 C 0.11464 0.52048 0.90013 0.0
C234 C 0.12109 0.56564 0.91816 0.0
C235 C 0.1421 0.54899 0.94961 0.0
O236 O 0.1176 0.468 0.01411 0.0
C237 C 0.20104 0.48066 0.89153 0.0
O238 O 0.20491 0.50689 0.91366 0.0
H239 H 0.10488 0.50079 0.88484 0.0
H240 H 0.15849 0.55694 0.98073 0.0
N241 N 0.17482 0.49835 0.05224 0.0
N242 N 0.20918 0.50093 0.12749 0.0
C243 C 0.20052 0.48735 0.0732 0.0
C244 C 0.16693 0.51939 0.09507 0.0
C245 C 0.188 0.52113 0.14107 0.0
C246 C 0.09859 0.45576 0.98064 0.0
O247 O 0.10569 0.44758 0.92041 0.0
H248 H 0.21255 0.46969 0.04912 0.0
H249 H 0.14693 0.53234 0.09353 0.0
O250 O 0.17906 0.4667 0.91462 0.0
H251 H 0.11841 0.58914 0.91901 0.0
H252 H 0.18723 0.53549 0.18267 0.0
Cu253 Cu 1.01156 0.15978 1.00498 0.0
N254 N 0.03921 0.13682 0.95774 0.0
N255 N 0.05227 0.10254 0.88473 0.0
C256 C 0.03059 0.11436 0.92273 0.0
C257 C 0.07578 0.11837 0.89568 0.0
C258 C 0.06773 0.13937 0.94156 0.0
O259 O 0.98244 0.13104 0.02946 0.0
C260 C 1.0161 0.2059 0.91453 0.0
O261 O 0.04372 0.20108 0.92592 0.0
H262 H 1.00811 0.10828 0.92101 0.0
H263 H 0.08129 0.15624 0.95871 0.0
N264 N 0.02549 0.1782 0.07874 0.0
N265 N 0.02665 0.20973 0.1615 0.0
C266 C 1.01016 0.19761 0.11632 0.0
C267 C 0.05265 0.17794 0.10095 0.0
C268 C 0.05343 0.19734 0.15191 0.0
C269 C 0.99046 0.11022 0.06788 0.0
O270 O 1.01352 0.11379 0.10258 0.0
H271 H 0.98757 0.20351 0.1089 0.0
H272 H 0.07077 0.16503 0.08067 0.0
O273 O 0.99723 0.19018 0.94479 0.0
H274 H 0.09682 0.11577 0.87033 0.0
H275 H 0.07228 0.20197 0.17963 0.0
Cu276 Cu 0.90955 0.06931 0.53916 0.0
N277 N 0.93259 0.03784 0.56943 0.0
N278 N 0.96736 1.02017 0.63479 0.0
C279 C 0.95759 0.04303 0.59854 0.0
C280 C 0.94766 0.99931 0.62804 0.0
C281 C 0.92627 1.01022 0.58725 0.0
O282 O 0.9394 0.09923 0.52491 0.0
C283 C 0.86007 0.05748 0.61804 0.0
O284 O 0.86022 0.03606 0.57621 0.0
H285 H 0.96635 0.06453 0.60079 0.0
H286 H 0.90627 0.99976 0.57694 0.0
N287 N 0.89029 0.06209 0.46092 0.0
N288 N 0.85585 0.06362 0.38552 0.0
C289 C 0.86406 0.07336 0.44416 0.0
C290 C 0.89879 0.04437 0.41135 0.0
C291 C 0.87775 0.04546 0.36464 0.0
C292 C 0.95866 0.09505 0.47844 0.0
O293 O 0.95329 0.07619 0.43322 0.0
H294 H 0.85111 0.08822 0.47479 0.0
H295 H 0.91868 0.0312 0.40973 0.0
O296 O 0.87984 0.07644 0.61053 0.0
H297 H 0.94739 0.97868 0.65494 0.0
H298 H 0.87806 0.03303 0.31995 0.0
Cu299 Cu 0.54423 0.88192 0.59442 0.0
N300 N 0.57091 0.90494 0.63566 0.0
N301 N 0.57141 0.94714 0.69011 0.0
C302 C 0.55951 0.92067 0.68614 0.0
C303 C 0.59231 0.94754 0.64144 0.0
C304 C 0.5919 0.92162 0.6079 0.0
O305 O 0.5176 0.9148 0.57101 0.0
C306 C 0.55291 0.83698 0.6856 0.0
O307 O 0.57936 0.84209 0.66219 0.0
H308 H 0.53918 0.91495 0.71112 0.0
H309 H 0.60283 0.91763 0.56073 0.0
N310 N 0.55876 0.86162 0.51881 0.0
N311 N 0.56221 0.83273 0.43022 0.0
C312 C 0.54425 0.84474 0.47764 0.0
C313 C 0.58674 0.85966 0.49715 0.0
C314 C 0.58887 0.84222 0.4428 0.0
C315 C 0.52907 0.93399 0.53178 0.0
O316 O 0.55163 0.9258 0.49421 0.0
H317 H 0.52103 0.84157 0.48194 0.0
H318 H 0.60454 0.86981 0.51994 0.0
O319 O 0.53189 0.85241 0.66223 0.0
H320 H 0.60484 0.96629 0.62637 0.0
H321 H 0.60875 0.83662 0.41498 0.0
Cu322 Cu 0.64443 0.49435 0.54587 0.0
N323 N 0.62309 0.52505 0.58704 0.0
N324 N 0.58736 0.53868 0.65973 0.0
C325 C 0.59553 0.52106 0.60988 0.0
C326 C 0.6107 0.55508 0.66838 0.0
C327 C 0.63262 0.5468 0.62324 0.0
O328 O 0.61313 0.46679 0.5336 0.0
C329 C 0.69614 0.49939 0.60899 0.0
O330 O 0.69648 0.52208 0.56838 0.0
H331 H 0.58339 0.50222 0.59895 0.0
H332 H 0.65491 0.55355 0.62323 0.0
N333 N 0.66284 0.50477 0.46398 0.0
N334 N 0.69322 0.50338 0.37451 0.0
C335 C 0.68608 0.49106 0.43397 0.0
C336 C 0.65531 0.5267 0.42237 0.0
C337 C 0.67382 0.52576 0.36711 0.0
C338 C 0.59735 0.47101 0.4837 0.0
O339 O 0.60957 0.48211 0.42964 0.0
H340 H 0.69727 0.47218 0.45496 0.0
H341 H 0.63735 0.54204 0.43126 0.0
O342 O 0.67489 0.48215 0.60706 0.0
H343 H 0.61298 0.56948 0.70922 0.0
H344 H 0.67326 0.54063 0.32501 0.0
Cu345 Cu 1.00312 0.66099 0.53764 0.0
N346 N 0.97762 0.64311 0.59875 0.0
N347 N 0.97575 0.61795 0.69442 0.0
C348 C 0.98867 0.62066 0.63407 0.0
C349 C 0.95468 0.63905 0.69652 0.0
C350 C 0.95569 0.65444 0.63707 0.0
O351 O 0.02752 0.62792 0.50577 0.0
C352 C 1.00617 0.71128 0.6076 0.0
O353 O 0.97921 0.71266 0.58879 0.0
H354 H 1.00929 0.61002 0.62058 0.0
H355 H 0.94382 0.67456 0.62657 0.0
N356 N 0.98557 0.68146 0.46833 0.0
N357 N 0.98007 0.7175 0.39356 0.0
C358 C 0.99742 0.70504 0.43877 0.0
C359 C 0.9597 0.67872 0.44079 0.0
C360 C 0.95635 0.70088 0.39402 0.0
C361 C 1.01679 0.61129 0.46406 0.0
O362 O 0.99317 0.62028 0.43468 0.0
H363 H 1.01826 0.71324 0.45128 0.0
H364 H 0.94415 0.66224 0.45473 0.0
O365 O 1.02275 0.69007 0.58816 0.0
H366 H 0.94181 0.64505 0.7402 0.0
H367 H 0.93754 0.7051 0.36458 0.0
H368 H 0.51546 0.05631 0.36631 0.0
H369 H 0.4957 0.11829 0.21068 0.0
H370 H 0.53413 0.0963 0.13999 0.0
H371 H 0.57781 0.06412 0.12821 0.0
H372 H 0.59932 1.00385 0.28589 0.0
H373 H 0.55555 1.01994 0.34921 0.0
C374 C 0.5191 0.06447 0.31621 0.0
C375 C 0.50281 0.08913 0.29419 0.0
C376 C 0.54193 0.05227 0.27651 0.0
C377 C 0.50762 0.0993 0.22896 0.0
C378 C 0.52992 0.08691 0.18868 0.0
C379 C 0.57288 0.05443 0.17634 0.0
C380 C 0.59224 0.03322 0.20284 0.0
C381 C 0.54797 0.06421 0.21293 0.0
C382 C 0.58497 1.02025 0.26442 0.0
C383 C 0.56002 0.02962 0.30084 0.0
H384 H 0.45637 0.51449 0.37781 0.0
H385 H 0.48072 0.45521 0.22236 0.0
H386 H 0.51845 0.48875 0.18112 0.0
H387 H 0.54188 0.537 0.1849 0.0
H388 H 0.51725 0.59488 0.34297 0.0
H389 H 0.48151 0.56037 0.38611 0.0
C390 C 0.47023 0.50855 0.33557 0.0
C391 C 0.46604 0.48202 0.30397 0.0
C392 C 0.49139 0.52807 0.31173 0.0
C393 C 0.48355 0.47537 0.2477 0.0
C394 C 0.50498 0.49462 0.22399 0.0
C395 C 0.52929 0.5415 0.23002 0.0
C396 C 0.53273 0.56824 0.2616 0.0
C397 C 0.5089 0.52122 0.25518 0.0
C398 C 0.51569 0.57421 0.31889 0.0
C399 C 0.49496 0.55461 0.34304 0.0
H400 H 0.85373 0.50955 0.25655 0.0
H401 H 0.93437 0.55417 0.2352 0.0
H402 H 0.9532 0.52676 0.3302 0.0
H403 H 0.94992 0.48344 0.40272 0.0
H404 H 0.87119 0.43436 0.4122 0.0
H405 H 0.84804 0.47028 0.33978 0.0
C406 C 0.87483 0.51413 0.27519 0.0
C407 C 0.89263 0.53394 0.24019 0.0
C408 C 0.88608 0.49677 0.32632 0.0
C409 C 0.92028 0.53936 0.26263 0.0
C410 C 0.93115 0.52329 0.31599 0.0
C411 C 0.92767 0.48058 0.38924 0.0
C412 C 0.91266 0.45568 0.41157 0.0
C413 C 0.91484 0.50075 0.34549 0.0
C414 C 0.88342 0.45308 0.39555 0.0
C415 C 0.87016 0.4736 0.3538 0.0
H416 H 0.09684 0.90488 0.22371 0.0
H417 H 0.14515 0.93939 0.0551 0.0
H418 H 0.17212 0.97037 0.12662 0.0
H419 H 0.18082 0.98852 0.23779 0.0
H420 H 0.13505 0.95105 0.4067 0.0
H421 H 0.10809 0.92024 0.33507 0.0
C422 C 0.11337 0.91916 0.20303 0.0
C423 C 0.11902 0.92015 0.13462 0.0
C424 C 0.12908 0.93633 0.24454 0.0
C425 C 0.14068 0.93832 0.10784 0.0
C426 C 0.15592 0.95607 0.14862 0.0
C427 C 0.16496 0.97351 0.25844 0.0
C428 C 0.15965 0.972 0.32696 0.0
C429 C 0.15015 0.95542 0.21702 0.0
C430 C 0.13941 0.95233 0.35394 0.0
C431 C 0.124 0.93485 0.31307 0.0
H432 H 0.48663 0.03361 0.84117 0.0
H433 H 0.52742 0.09657 0.71052 0.0
H434 H 0.56144 0.05829 0.66767 0.0
H435 H 0.57532 1.00556 0.65965 0.0
H436 H 0.53689 0.94464 0.80081 0.0
H437 H 0.50606 0.98355 0.84707 0.0
C438 C 0.50311 0.03898 0.80361 0.0
C439 C 0.50418 0.06766 0.77795 0.0
C440 C 0.52265 1.01713 0.78046 0.0
C441 C 0.52603 0.07454 0.73039 0.0
C442 C 0.54539 0.05265 0.70601 0.0
C443 C 0.56077 1.00078 0.70147 0.0
C444 C 0.55793 0.97166 0.72501 0.0
C445 C 0.54335 1.02361 0.72942 0.0
C446 C 0.53893 0.9664 0.77983 0.0
C447 C 0.52128 0.98871 0.80665 0.0
H448 H 0.53106 0.52981 0.63811 0.0
H449 H 0.59432 0.52754 0.78866 0.0
H450 H 0.56157 0.49982 0.86162 0.0
H451 H 0.51812 0.47096 0.87695 0.0
H452 H 0.45363 0.47331 0.72882 0.0
H453 H 0.48294 0.50793 0.66237 0.0
C454 C 0.537 0.52434 0.68812 0.0
C455 C 0.56499 0.53093 0.7082 0.0
C456 C 0.51788 0.50842 0.73023 0.0
C457 C 0.57274 0.5233 0.77258 0.0
C458 C 0.55404 0.50724 0.81424 0.0
C459 C 0.50984 0.47953 0.83113 0.0
C460 C 0.4837 0.46913 0.80764 0.0
C461 C 0.52698 0.49887 0.79283 0.0
C462 C 0.47387 0.48047 0.74741 0.0
C463 C 0.49067 0.50012 0.70935 0.0
H464 H 1.00125 0.56506 0.69611 0.0
H465 H 0.98525 0.64154 0.81249 0.0
H466 H 0.02339 0.6254 0.88663 0.0
H467 H 0.06592 0.59289 0.90845 0.0
H468 H 0.08288 0.5177 0.78757 0.0
H469 H 0.03977 0.52973 0.72568 0.0
C470 C 1.00557 0.57764 0.73902 0.0
C471 C 0.99057 0.60442 0.7487 0.0
C472 C 0.02829 0.56885 0.77954 0.0
C473 C 0.99626 0.62069 0.80432 0.0
C474 C 1.01846 0.61171 0.84602 0.0
C475 C 0.06024 0.57927 0.86834 0.0
C476 C 0.07791 0.55469 0.85203 0.0
C477 C 0.03548 0.5865 0.83227 0.0
C478 C 0.06976 0.53677 0.8011 0.0
C479 C 0.04515 0.54368 0.76545 0.0
H480 H 1.02047 0.0546 0.89498 0.0
H481 H 0.07391 0.10509 0.75898 0.0
H482 H 0.05602 0.07842 0.66649 0.0
H483 H 1.01768 0.04826 0.62419 0.0
H484 H 0.96291 0.99922 0.76052 0.0
H485 H 0.98932 1.01694 0.8528 0.0
C486 C 0.02867 0.05918 0.84512 0.0
C487 C 0.04808 0.08205 0.83353 0.0
C488 C 1.0177 0.04427 0.79226 0.0
C489 C 0.05898 0.08761 0.76903 0.0
C490 C 0.04846 0.0726 0.71613 0.0
C491 C 1.01213 0.04085 0.67409 0.0
C492 C 0.98806 1.02286 0.68558 0.0
C493 C 0.02673 0.05198 0.72703 0.0
C494 C 0.98127 1.01304 0.75025 0.0
C495 C 0.9961 1.02355 0.80317 0.0
H496 H 0.77798 0.06732 0.87798 0.0
H497 H 0.74148 0.99235 0.7913 0.0
H498 H 0.77545 0.9965 0.69696 0.0
H499 H 0.81607 1.02016 0.63969 0.0
H500 H 0.85415 0.09492 0.72332 0.0
H501 H 0.81888 0.09236 0.81738 0.0
C502 C 0.77733 0.05206 0.83819 0.0
C503 C 0.7572 0.02929 0.84254 0.0
C504 C 0.79724 0.05453 0.78334 0.0
C505 C 0.75692 1.00968 0.79038 0.0
C506 C 0.7763 1.01215 0.73597 0.0
C507 C 0.81676 0.03608 0.67821 0.0
C508 C 0.83795 0.0577 0.67412 0.0
C509 C 0.79668 0.03427 0.73215 0.0
C510 C 0.83816 0.07805 0.72484 0.0
C511 C 0.81799 0.07652 0.77881 0.0
H512 H 0.59526 0.80872 0.75249 0.0
H513 H 0.50206 0.81224 0.73729 0.0
H514 H 0.49784 0.77228 0.81987 0.0
H515 H 0.52142 0.73493 0.89469 0.0
H516 H 0.61491 0.73405 0.90734 0.0
H517 H 0.61802 0.77399 0.8276 0.0
C518 C 0.57387 0.80091 0.76694 0.0
C519 C 0.54903 0.81359 0.73794 0.0
C520 C 0.57168 0.77805 0.81415 0.0
C521 C 0.52162 0.80305 0.75843 0.0
C522 C 0.51923 0.78009 0.80569 0.0
C523 C 0.54243 0.74361 0.88034 0.0
C524 C 0.56797 0.73077 0.9069 0.0
C525 C 0.5442 0.7672 0.83377 0.0
C526 C 0.59492 0.74259 0.88718 0.0
C527 C 0.59676 0.76576 0.84161 0.0
H528 H 0.78733 0.47256 0.83213 0.0
H529 H 0.81905 0.55456 0.75377 0.0
H530 H 0.78168 0.55645 0.67356 0.0
H531 H 0.73982 0.53604 0.62563 0.0
H532 H 0.70512 0.45533 0.70265 0.0
H533 H 0.74359 0.45193 0.78332 0.0
C534 C 0.78601 0.49089 0.79776 0.0
C535 C 0.80661 0.51317 0.79913 0.0
C536 C 0.76383 0.49218 0.75131 0.0
C537 C 0.80431 0.53667 0.75362 0.0
C538 C 0.78265 0.53796 0.70766 0.0
C539 C 0.74052 0.51754 0.65976 0.0
C540 C 0.7195 0.49593 0.65768 0.0
C541 C 0.76237 0.51591 0.70598 0.0
C542 C 0.72098 0.47228 0.70286 0.0
C543 C 0.74299 0.47037 0.74909 0.0
H544 H 0.05788 0.81385 0.76617 0.0
H545 H 0.97024 0.81564 0.8496 0.0
H546 H 0.95847 0.77421 0.78303 0.0
H547 H 0.97247 0.7387 0.69897 0.0
H548 H 0.06046 0.73429 0.61782 0.0
H549 H 0.07301 0.77533 0.68613 0.0
C550 C 0.03624 0.80513 0.76942 0.0
C551 C 1.01479 0.81793 0.8122 0.0
C552 C 0.02981 0.78086 0.73175 0.0
C553 C 0.987 0.80611 0.81711 0.0
C554 C 0.98029 0.7825 0.779 0.0
C555 C 0.99447 0.74663 0.69636 0.0
C556 C 1.01547 0.73372 0.65298 0.0
C557 C 1.00144 0.76986 0.73593 0.0
C558 C 0.04397 0.74386 0.65096 0.0
C559 C 0.05104 0.76741 0.6897 0.0
H560 H 0.26146 0.03913 0.69462 0.0
H561 H 0.27709 0.1164 0.5751 0.0
H562 H 0.32151 0.12445 0.63312 0.0
H563 H 0.35457 0.11103 0.72087 0.0
H564 H 0.34003 0.03358 0.84056 0.0
H565 H 0.29659 1.02397 0.77919 0.0
C566 C 0.27454 0.05778 0.68145 0.0
C567 C 0.26574 0.07733 0.63081 0.0
C568 C 0.30024 0.0622 0.71499 0.0
C569 C 0.28335 0.101 0.6135 0.0
C570 C 0.30871 0.10567 0.64689 0.0
C571 C 0.34203 0.0919 0.73347 0.0
C572 C 0.35046 0.07317 0.78573 0.0
C573 C 0.31718 0.0866 0.6981 0.0
C574 C 0.3341 0.04833 0.8006 0.0
C575 C 0.30917 0.04294 0.76571 0.0
H576 H 0.47994 0.21398 0.7666 0.0
H577 H 0.51452 0.26372 0.60069 0.0
H578 H 0.52236 0.30487 0.67237 0.0
H579 H 0.51522 0.32844 0.78211 0.0
H580 H 0.48071 0.2774 0.94647 0.0
H581 H 0.47756 0.23529 0.87654 0.0
C582 C 0.48928 0.23379 0.74618 0.0
C583 C 0.49628 0.2358 0.67811 0.0
C584 C 0.49394 0.25727 0.78787 0.0
C585 C 0.50893 0.26151 0.65282 0.0
C586 C 0.51335 0.28512 0.69389 0.0
C587 C 0.5079 0.30783 0.80287 0.0
C588 C 0.4984 0.30611 0.86981 0.0
C589 C 0.50554 0.28349 0.76156 0.0
C590 C 0.48831 0.27934 0.89538 0.0
C591 C 0.48625 0.25524 0.85523 0.0
H592 H 0.27699 0.41919 0.66057 0.0
H593 H 0.32825 0.49506 0.68625 0.0
H594 H 0.29483 0.51126 0.77447 0.0
H595 H 0.25081 0.50499 0.84353 0.0
H596 H 0.19867 0.42954 0.82193 0.0
H597 H 0.2327 0.41205 0.73407 0.0
C598 C 0.28098 0.43913 0.68579 0.0
C599 C 0.30518 0.45599 0.66548 0.0
C600 C 0.26145 0.44849 0.73752 0.0
C601 C 0.3097 0.48186 0.69911 0.0
C602 C 0.2906 0.49112 0.7502 0.0
C603 C 0.24674 0.48463 0.81992 0.0
C604 C 0.22196 0.46872 0.83961 0.0
C605 C 0.26631 0.4748 0.76948 0.0
C606 C 0.21745 0.44233 0.80813 0.0
C607 C 0.23694 0.43233 0.75767 0.0
H608 H 0.96594 0.3137 0.75108 0.0
H609 H 0.05224 0.30831 0.66061 0.0
H610 H 0.06382 0.26536 0.72937 0.0
H611 H 0.05009 0.23076 0.81834 0.0
H612 H 0.96327 0.2348 0.90681 0.0
H613 H 0.95109 0.27687 0.83559 0.0
C614 C 0.98728 0.3031 0.74661 0.0
C615 C 1.00835 0.31431 0.70133 0.0
C616 C 0.99364 0.27827 0.78592 0.0
C617 C 0.03569 0.30003 0.69494 0.0
C618 C 0.04233 0.27558 0.73443 0.0
C619 C 0.02845 0.24078 0.82196 0.0
C620 C 1.00768 0.22985 0.8683 0.0
C621 C 1.02158 0.26471 0.78055 0.0
C622 C 0.97963 0.2428 0.87161 0.0
C623 C 0.97271 0.26691 0.83106 0.0
H624 H 0.29612 0.05424 0.31844 0.0
H625 H 0.2337 0.12229 0.26797 0.0
H626 H 0.26644 0.13894 0.17749 0.0
H627 H 0.31237 0.13294 0.10986 0.0
H628 H 0.3742 0.06464 0.16244 0.0
H629 H 0.34212 0.04937 0.25435 0.0
C630 C 0.28959 0.0728 0.28792 0.0
C631 C 0.26229 0.08688 0.30022 0.0
C632 C 0.30847 0.08218 0.23586 0.0
C633 C 0.25448 0.11096 0.25991 0.0
C634 C 0.27323 0.12049 0.20798 0.0
C635 C 0.31899 0.11494 0.14183 0.0
C636 C 0.34574 0.09985 0.12845 0.0
C637 C 0.30025 0.10613 0.19512 0.0
C638 C 0.35366 0.07639 0.17046 0.0
C639 C 0.33533 0.06769 0.22341 0.0
H640 H 0.45546 0.23786 0.34692 0.0
H641 H 0.54917 0.23437 0.33079 0.0
H642 H 0.54795 0.27333 0.24501 0.0
H643 H 0.51939 0.31002 0.17729 0.0
H644 H 0.42551 0.31014 0.19639 0.0
H645 H 0.42787 0.27125 0.27844 0.0
C646 C 0.47582 0.24551 0.32506 0.0
C647 C 0.50242 0.23327 0.34628 0.0
C648 C 0.47488 0.26766 0.27624 0.0
C649 C 0.52836 0.24332 0.31583 0.0
C650 C 0.52761 0.26571 0.26684 0.0
C651 C 0.49948 0.30142 0.19909 0.0
C652 C 0.47223 0.31383 0.1809 0.0
C653 C 0.5009 0.27831 0.24692 0.0
C654 C 0.44677 0.30203 0.21003 0.0
C655 C 0.44806 0.27944 0.25693 0.0
H656 H 0.30965 0.44728 0.29586 0.0
H657 H 0.31215 0.53548 0.36358 0.0
H658 H 0.27392 0.55032 0.28723 0.0
H659 H 0.23798 0.53715 0.20504 0.0
H660 H 0.23696 0.44841 0.13931 0.0
H661 H 0.27663 0.43495 0.21072 0.0
C662 C 0.30196 0.46985 0.29405 0.0
C663 C 0.31355 0.49018 0.33617 0.0
C664 C 0.28018 0.47807 0.25028 0.0
C665 C 0.30364 0.51939 0.33191 0.0
C666 C 0.28168 0.52779 0.28843 0.0
C667 C 0.24643 0.51487 0.20633 0.0
C668 C 0.23418 0.49379 0.16671 0.0
C669 C 0.26945 0.50718 0.24804 0.0
C670 C 0.24592 0.46516 0.1684 0.0
C671 C 0.26856 0.45739 0.2097 0.0
H672 H 0.05951 0.25164 0.21056 0.0
H673 H 0.97311 0.21751 0.21944 0.0
H674 H 0.95717 0.25445 0.29874 0.0
H675 H 0.96758 0.29632 0.36604 0.0
H676 H 0.0536 0.33147 0.35652 0.0
H677 H 0.06984 0.29427 0.27751 0.0
C678 C 0.03726 0.25215 0.23021 0.0
C679 C 1.01756 0.23168 0.20885 0.0
C680 C 0.02813 0.2737 0.27576 0.0
C681 C 0.98867 0.23307 0.23425 0.0
C682 C 0.97956 0.25415 0.27994 0.0
C683 C 0.98993 0.29591 0.34684 0.0
C684 C 1.00933 0.31674 0.36761 0.0
C685 C 0.99906 0.27459 0.30103 0.0
C686 C 0.03814 0.31581 0.34158 0.0
C687 C 0.04746 0.29448 0.29637 0.0
H688 H 0.72695 0.07659 0.29479 0.0
H689 H 0.77103 0.07652 0.10315 0.0
H690 H 0.8181 0.0745 0.15489 0.0
H691 H 0.84691 0.06899 0.25503 0.0
H692 H 0.80279 0.07048 0.4462 0.0
H693 H 0.75579 0.07582 0.39448 0.0
C694 C 0.74684 0.07655 0.26423 0.0
C695 C 0.74528 0.07654 0.19499 0.0
C696 C 0.77394 0.07536 0.29438 0.0
C697 C 0.7714 0.07666 0.15643 0.0
C698 C 0.79841 0.07528 0.18605 0.0
C699 C 0.82698 0.07062 0.28523 0.0
C700 C 0.82839 0.0691 0.35447 0.0
C701 C 0.79996 0.07397 0.255 0.0
C702 C 0.80238 0.07173 0.39297 0.0
C703 C 0.77547 0.07464 0.36333 0.0
H704 H 0.52371 0.78813 0.42752 0.0
H705 H 0.58586 0.83653 0.3077 0.0
H706 H 0.58074 0.80362 0.21702 0.0
H707 H 0.56235 0.75899 0.17418 0.0
H708 H 0.50075 0.70853 0.29017 0.0
H709 H 0.50137 0.74432 0.37873 0.0
C710 C 0.53572 0.79166 0.38117 0.0
C711 C 0.55554 0.81473 0.37505 0.0
C712 C 0.53285 0.77214 0.32841 0.0
C713 C 0.57093 0.81882 0.31445 0.0
C714 C 0.56794 0.8 0.26232 0.0
C715 C 0.54868 0.7559 0.21845 0.0
C716 C 0.53162 0.73091 0.22531 0.0
C717 C 0.54957 0.77623 0.26918 0.0
C718 C 0.51394 0.72758 0.28304 0.0
C719 C 0.51454 0.74799 0.33403 0.0
H720 H 0.69174 0.50409 0.24235 0.0
H721 H 0.74767 0.48376 0.40276 0.0
H722 H 0.78866 0.47413 0.32417 0.0
H723 H 0.80969 0.47628 0.20871 0.0
H724 H 0.75256 0.49701 0.0502 0.0
H725 H 0.71112 0.50109 0.12839 0.0
C726 C 0.71287 0.49738 0.26005 0.0
C727 C 0.71669 0.49501 0.32835 0.0
C728 C 0.73621 0.49177 0.21457 0.0
C729 C 0.74411 0.48574 0.35048 0.0
C730 C 0.76759 0.48032 0.30546 0.0
C731 C 0.78801 0.48073 0.19132 0.0
C732 C 0.78422 0.48614 0.12347 0.0
C733 C 0.76408 0.48376 0.2372 0.0
C734 C 0.75605 0.4926 0.10197 0.0
C735 C 0.73233 0.49519 0.14676 0.0
H736 H 1.01792 0.83778 0.27126 0.0
H737 H 0.97892 0.80355 0.10075 0.0
H738 H 0.96502 0.75992 0.16459 0.0
H739 H 0.96567 0.7305 0.26847 0.0
H740 H 1.00639 0.76466 0.43656 0.0
H741 H 1.01788 0.80918 0.37425 0.0
C742 C 1.0062 0.8209 0.24804 0.0
C743 C 0.99948 0.824 0.18127 0.0
C744 C 0.9987 0.79571 0.28466 0.0
C745 C 0.98443 0.80174 0.15204 0.0
C746 C 0.97647 0.77676 0.18853 0.0
C747 C 0.9768 0.74786 0.29138 0.0
C748 C 0.98533 0.74421 0.35686 0.0
C749 C 0.98371 0.77337 0.25479 0.0
C750 C 0.99999 0.76675 0.38594 0.0
C751 C 1.00646 0.79228 0.35043 0.0
H752 H 0.50648 0.10672 0.0201 0.0
H753 H 0.49241 1.01857 0.96174 0.0
H754 H 0.54505 1.01033 0.94556 0.0
H755 H 0.59473 0.02812 0.94825 0.0
H756 H 0.60894 0.11581 1.0099 0.0
H757 H 0.55623 0.12447 0.02321 0.0
C758 C 0.51482 0.08551 1.00459 0.0
C759 C 0.49533 0.06319 0.99243 0.0
C760 C 0.54507 0.08107 0.9949 0.0
C761 C 0.50677 0.03607 0.97169 0.0
C762 C 0.53689 0.03143 0.96213 0.0
C763 C 0.58645 0.04932 0.96393 0.0
C764 C 0.606 0.07142 0.97755 0.0
C765 C 0.5562 0.05383 0.97321 0.0
C766 C 0.59457 0.09853 0.99847 0.0
C767 C 0.56441 0.10339 1.00653 0.0
H768 H 0.47524 0.48135 0.07793 0.0
H769 H 0.56011 0.46201 0.9885 0.0
H770 H 0.56816 0.51443 0.97351 0.0
H771 H 0.55042 0.56538 0.9814 0.0
H772 H 0.46631 0.58489 0.07451 0.0
H773 H 0.45825 0.53252 0.09007 0.0
C774 C 0.49565 0.48845 0.05532 0.0
C775 C 0.5172 0.46745 0.03476 0.0
C776 C 0.49983 0.51863 0.04549 0.0
C777 C 0.54326 0.47742 1.00515 0.0
C778 C 0.54771 0.50744 0.99601 0.0
C779 C 0.53002 0.55835 1.00417 0.0
C780 C 0.50868 0.57941 0.02544 0.0
C781 C 0.52595 0.5282 0.0148 0.0
C782 C 0.48286 0.56945 0.05646 0.0
C783 C 0.47838 0.53944 0.06585 0.0
H784 H 0.9718 0.49589 0.07822 0.0
H785 H 0.94775 0.43835 0.92652 0.0
H786 H 0.99906 0.42291 0.90818 0.0
H787 H 0.05152 0.43016 0.92757 0.0
H788 H 0.07426 0.48677 0.08318 0.0
H789 H 1.02297 0.49778 0.10813 0.0
C790 C 0.97773 0.4794 0.04224 0.0
C791 C 0.95597 0.4682 1.00391 0.0
C792 C 1.00721 0.47068 0.03222 0.0
C793 C 0.96398 0.44699 0.95727 0.0
C794 C 0.9934 0.43842 0.94639 0.0
C795 C 0.04526 0.44447 0.9678 0.0
C796 C 0.0671 0.45775 1.00296 0.0
C797 C 1.01535 0.45072 0.98239 0.0
C798 C 0.05829 0.47614 0.0551 0.0
C799 C 0.02881 0.48263 0.06929 0.0
H800 H 1.00183 0.06196 0.14341 0.0
H801 H 0.95855 0.09007 0.96757 0.0
H802 H 0.95426 0.03933 0.93627 0.0
H803 H 0.96907 0.98718 0.95133 0.0
H804 H 1.01176 0.9598 0.12867 0.0
H805 H 1.01002 1.0098 0.16637 0.0
C806 C 0.99094 0.05703 0.09882 0.0
C807 C 0.98101 0.07995 0.05745 0.0
C808 C 0.98896 0.02779 0.08053 0.0
C809 C 0.96658 0.07299 1.00035 0.0
C810 C 0.96438 0.0439 0.98198 0.0
C811 C 0.97765 0.99212 0.99858 0.0
C812 C 0.99093 0.96968 0.03646 0.0
C813 C 0.97653 1.02115 0.02039 0.0
C814 C 1.00151 0.97649 0.09814 0.0
C815 C 1.00063 1.00518 0.1198 0.0
H816 H 0.08799 0.11321 0.56064 0.0
H817 H 0.10516 0.08608 0.36024 0.0
H818 H 0.05312 0.08708 0.34203 0.0
H819 H 1.00265 0.0912 0.3852 0.0
H820 H 0.98462 0.11795 0.58531 0.0
H821 H 0.03682 0.12233 0.60055 0.0
C822 C 0.08043 0.10786 0.51267 0.0
C823 C 0.1008 0.09933 0.46207 0.0
C824 C 0.05017 0.10839 0.50237 0.0
C825 C 0.09029 0.09263 0.40028 0.0
C826 C 0.0604 0.09315 0.38977 0.0
C827 C 1.01001 0.09846 0.43197 0.0
C828 C 0.98948 0.104 0.48416 0.0
C829 C 0.04012 0.10038 0.44078 0.0
C830 C 0.99969 0.11358 0.5441 0.0
C831 C 0.02967 0.11579 0.55308 0.0
H832 H 0.56078 0.97911 0.47992 0.0
H833 H 0.48497 0.96158 0.60514 0.0
H834 H 0.47754 1.01399 0.62297 0.0
H835 H 0.49189 0.06467 0.60127 0.0
H836 H 0.56866 0.08219 0.47916 0.0
H837 H 0.57658 0.02974 0.46282 0.0
C838 C 0.54237 0.98661 0.51065 0.0
C839 C 0.52305 0.96609 0.54 0.0
C840 C 0.53857 1.01681 0.5217 0.0
C841 C 0.49986 0.9766 0.58088 0.0
C842 C 0.49571 1.00664 0.59133 0.0
C843 C 0.51058 0.05719 0.57135 0.0
C844 C 0.52977 0.07777 0.54174 0.0
C845 C 0.51486 0.02695 0.56181 0.0
C846 C 0.5537 0.06718 0.50321 0.0
C847 C 0.55807 0.0371 0.49341 0.0
H848 H 0.55881 0.44033 0.56514 0.0
H849 H 0.56373 0.51349 0.42831 0.0
H850 H 0.51241 0.52485 0.44924 0.0
H851 H 0.46449 0.51193 0.49663 0.0
H852 H 0.45811 0.4364 0.62623 0.0
H853 H 0.51063 0.4284 0.6174 0.0
C854 C 0.54846 0.45842 0.53895 0.0
C855 C 0.5652 0.47545 0.49386 0.0
C856 C 0.51824 0.46446 0.54904 0.0
C857 C 0.55144 0.49927 0.4616 0.0
C858 C 0.52193 0.50596 0.47349 0.0
C859 C 0.47456 0.49389 0.52347 0.0
C860 C 0.45693 0.47472 0.56127 0.0
C861 C 0.50488 0.48842 0.51583 0.0
C862 C 0.47075 0.45156 0.5961 0.0
C863 C 0.50097 0.44672 0.59072 0.0
H864 H 0.04501 0.57673 0.55491 0.0
H865 H 1.00722 0.57486 0.36425 0.0
H866 H 1.01141 0.52175 0.36552 0.0
H867 H 1.02016 0.47565 0.42635 0.0
H868 H 0.05548 0.47719 0.61969 0.0
H869 H 0.05846 0.53025 0.61101 0.0
C870 C 0.03843 0.56476 0.51287 0.0
C871 C 0.02575 0.5799 0.45959 0.0
C872 C 0.04011 0.53396 0.51471 0.0
C873 C 1.01701 0.56386 0.40596 0.0
C874 C 1.01926 0.5334 0.40676 0.0
C875 C 0.02903 0.48748 0.46616 0.0
C876 C 0.03745 0.47228 0.52373 0.0
C877 C 0.0299 0.51816 0.46177 0.0
C878 C 0.04867 0.48819 0.57491 0.0
C879 C 0.05026 0.51862 0.57018 0.0
loop_
_geom_bond_atom_site_label_1
_geom_bond_atom_site_label_2
_geom_bond_distance
_geom_bond_site_symmetry_2
_ccdc_geom_bond_type
Cu0 N1 1.999 . S
Cu0 O6 1.974 1_554 S
Cu0 N11 1.985 1_544 S
Cu0 O20 1.959 . S
N1 Cu0 1.999 . S
N1 C3 1.263 . S
N1 C5 1.389 . S
N2 C3 1.358 . S
N2 C4 1.400 . S
C3 N1 1.263 . S
C3 N2 1.358 . S
C3 H9 0.930 . S
C4 N2 1.400 . S
C4 C5 1.351 . S
C4 H21 0.930 . S
C5 N1 1.389 . S
C5 C4 1.351 . S
C5 H10 0.930 . S
O6 Cu0 1.974 1_556 S
O6 C16 1.282 1_545 S
C7 O8 1.261 . S
C7 O20 1.251 1_565 S
O8 C7 1.261 . S
H9 C3 0.930 . S
H10 C5 0.930 . S
N11 Cu0 1.985 1_566 S
N11 C13 1.335 . S
N11 C14 1.390 . S
N12 C13 1.345 . S
N12 C15 1.336 . S
C13 N11 1.335 . S
C13 N12 1.345 . S
C13 H18 0.930 1_565 S
C14 N11 1.390 . S
C14 C15 1.346 . S
C14 H19 0.930 . S
C15 N12 1.336 . S
C15 C14 1.346 . S
C15 H22 0.929 . S
C16 O6 1.282 1_565 S
C16 O17 1.216 1_556 S
O17 C16 1.216 1_554 S
H18 C13 0.930 1_545 S
H19 C14 0.930 . S
O20 Cu0 1.959 . S
O20 C7 1.251 1_545 S
H21 C4 0.930 . S
H22 C15 0.929 . S
Cu23 N24 1.999 . S
Cu23 O29 1.974 . S
Cu23 N34 1.985 1_554 S
Cu23 O43 1.959 . S
N24 Cu23 1.999 . S
N24 C26 1.263 . S
N24 C28 1.389 . S
N25 C26 1.358 . S
N25 C27 1.400 . S
C26 N24 1.263 . S
C26 N25 1.358 . S
C26 H32 0.930 . S
C27 N25 1.400 . S
C27 C28 1.351 . S
C27 H44 0.930 . S
C28 N24 1.389 . S
C28 C27 1.351 . S
C28 H33 0.930 . S
O29 Cu23 1.974 . S
O29 C39 1.282 . S
C30 O31 1.261 . S
C30 O43 1.251 . S
O31 C30 1.261 . S
H32 C26 0.930 . S
H33 C28 0.930 . S
N34 Cu23 1.985 1_556 S
N34 C36 1.335 . S
N34 C37 1.390 . S
N35 C36 1.345 . S
N35 C38 1.336 . S
C36 N34 1.335 . S
C36 N35 1.345 . S
C36 H41 0.930 1_556 S
C37 N34 1.390 . S
C37 C38 1.346 . S
C37 H42 0.930 . S
C38 N35 1.336 . S
C38 C37 1.346 . S
C38 H45 0.929 . S
C39 O29 1.282 . S
C39 O40 1.216 . S
O40 C39 1.216 . S
H41 C36 0.930 1_554 S
H42 C37 0.930 . S
O43 Cu23 1.959 . S
O43 C30 1.251 . S
H44 C27 0.930 . S
H45 C38 0.929 . S
Cu46 N47 1.999 . S
Cu46 O52 1.974 . S
Cu46 N57 1.985 1_554 S
Cu46 O66 1.959 . S
N47 Cu46 1.999 . S
N47 C49 1.263 . S
N47 C51 1.389 . S
N48 C49 1.358 . S
N48 C50 1.400 . S
C49 N47 1.263 . S
C49 N48 1.358 . S
C49 H55 0.930 . S
C50 N48 1.400 . S
C50 C51 1.351 . S
C50 H67 0.930 . S
C51 N47 1.389 . S
C51 C50 1.351 . S
C51 H56 0.930 . S
O52 Cu46 1.974 . S
O52 C62 1.282 . S
C53 O54 1.261 . S
C53 O66 1.251 . S
O54 C53 1.261 . S
H55 C49 0.930 . S
H56 C51 0.930 . S
N57 Cu46 1.985 1_556 S
N57 C59 1.335 . S
N57 C60 1.390 . S
N58 C59 1.345 . S
N58 C61 1.336 . S
C59 N57 1.335 . S
C59 N58 1.345 . S
C59 H64 0.930 . S
C60 N57 1.390 . S
C60 C61 1.346 . S
C60 H65 0.930 . S
C61 N58 1.336 . S
C61 C60 1.346 . S
C61 H68 0.929 . S
C62 O52 1.282 . S
C62 O63 1.218 . S
O63 C62 1.218 . S
H64 C59 0.930 . S
H65 C60 0.930 . S
O66 Cu46 1.959 . S
O66 C53 1.251 . S
H67 C50 0.930 . S
H68 C61 0.929 . S
Cu69 N70 1.999 . S
Cu69 O75 1.974 1_554 S
Cu69 N80 1.985 1_454 S
Cu69 O89 1.959 . S
N70 Cu69 1.999 . S
N70 C72 1.263 . S
N70 C74 1.389 . S
N71 C72 1.358 . S
N71 C73 1.400 . S
C72 N70 1.263 . S
C72 N71 1.358 . S
C72 H78 0.930 . S
C73 N71 1.400 . S
C73 C74 1.351 . S
C73 H90 0.930 . S
C74 N70 1.389 . S
C74 C73 1.351 . S
C74 H79 0.930 . S
O75 Cu69 1.974 1_556 S
O75 C85 1.282 1_455 S
C76 O77 1.261 . S
C76 O89 1.251 1_655 S
O77 C76 1.261 . S
H78 C72 0.930 . S
H79 C74 0.930 . S
N80 Cu69 1.985 1_656 S
N80 C82 1.335 . S
N80 C83 1.390 . S
N81 C82 1.345 . S
N81 C84 1.336 . S
C82 N80 1.335 . S
C82 N81 1.345 . S
C82 H87 0.930 1_655 S
C83 N80 1.390 . S
C83 C84 1.346 . S
C83 H88 0.930 . S
C84 N81 1.336 . S
C84 C83 1.346 . S
C84 H91 0.929 . S
C85 O75 1.282 1_655 S
C85 O86 1.216 1_556 S
O86 C85 1.216 1_554 S
H87 C82 0.930 1_455 S
H88 C83 0.930 . S
O89 Cu69 1.959 . S
O89 C76 1.251 1_455 S
H90 C73 0.930 . S
H91 C84 0.929 . S
Cu92 N93 1.999 . S
Cu92 O98 1.974 . S
Cu92 N103 1.985 1_565 S
Cu92 O112 1.959 . S
N93 Cu92 1.999 . S
N93 C95 1.263 . S
N93 C97 1.389 . S
N94 C95 1.358 . S
N94 C96 1.400 . S
C95 N93 1.263 . S
C95 N94 1.358 . S
C95 H101 0.930 . S
C96 N94 1.400 . S
C96 C97 1.351 . S
C96 H113 0.930 . S
C97 N93 1.389 . S
C97 C96 1.351 . S
C97 H102 0.930 . S
O98 Cu92 1.974 . S
O98 C108 1.282 1_565 S
C99 O100 1.261 . S
C99 O112 1.251 1_545 S
O100 C99 1.261 . S
H101 C95 0.930 . S
H102 C97 0.930 . S
N103 Cu92 1.985 1_545 S
N103 C105 1.335 . S
N103 C106 1.390 . S
N104 C105 1.345 . S
N104 C107 1.336 . S
C105 N103 1.335 . S
C105 N104 1.345 . S
C105 H110 0.930 1_545 S
C106 N103 1.390 . S
C106 C107 1.346 . S
C106 H111 0.930 . S
C107 N104 1.336 . S
C107 C106 1.346 . S
C107 H114 0.929 . S
C108 O98 1.282 1_545 S
C108 O109 1.216 . S
O109 C108 1.216 . S
H110 C105 0.930 1_565 S
H111 C106 0.930 . S
O112 Cu92 1.959 . S
O112 C99 1.251 1_565 S
H113 C96 0.930 . S
H114 C107 0.929 . S
Cu115 N116 1.999 . S
Cu115 O121 1.974 . S
Cu115 N126 1.985 . S
Cu115 O135 1.959 . S
N116 Cu115 1.999 . S
N116 C118 1.263 . S
N116 C120 1.389 . S
N117 C118 1.358 . S
N117 C119 1.400 . S
C118 N116 1.263 . S
C118 N117 1.358 . S
C118 H124 0.930 . S
C119 N117 1.400 . S
C119 C120 1.351 . S
C119 H136 0.930 . S
C120 N116 1.389 . S
C120 C119 1.351 . S
C120 H125 0.930 . S
O121 Cu115 1.974 . S
O121 C131 1.282 . S
C122 O123 1.261 . S
C122 O135 1.251 . S
O123 C122 1.261 . S
H124 C118 0.930 . S
H125 C120 0.930 . S
N126 Cu115 1.985 . S
N126 C128 1.335 . S
N126 C129 1.390 . S
N127 C128 1.345 . S
N127 C130 1.336 . S
C128 N126 1.335 . S
C128 N127 1.345 . S
C128 H133 0.930 . S
C129 N126 1.390 . S
C129 C130 1.346 . S
C129 H134 0.930 . S
C130 N127 1.336 . S
C130 C129 1.346 . S
C130 H137 0.929 . S
C131 O121 1.282 . S
C131 O132 1.216 . S
O132 C131 1.216 . S
H133 C128 0.930 . S
H134 C129 0.930 . S
O135 Cu115 1.959 . S
O135 C122 1.251 . S
H136 C119 0.930 . S
H137 C130 0.929 . S
Cu138 N139 1.999 . S
Cu138 O144 1.974 . S
Cu138 N149 1.985 . S
Cu138 O158 1.959 . S
N139 Cu138 1.999 . S
N139 C141 1.263 . S
N139 C143 1.389 . S
N140 C141 1.358 . S
N140 C142 1.400 . S
C141 N139 1.263 . S
C141 N140 1.358 . S
C141 H147 0.930 . S
C142 N140 1.400 . S
C142 C143 1.351 . S
C142 H159 0.930 . S
C143 N139 1.389 . S
C143 C142 1.351 . S
C143 H148 0.930 . S
O144 Cu138 1.974 . S
O144 C154 1.282 . S
C145 O146 1.261 . S
C145 O158 1.251 . S
O146 C145 1.261 . S
H147 C141 0.930 . S
H148 C143 0.930 . S
N149 Cu138 1.985 . S
N149 C151 1.335 . S
N149 C152 1.390 . S
N150 C151 1.345 . S
N150 C153 1.336 . S
C151 N149 1.335 . S
C151 N150 1.345 . S
C151 H156 0.930 . S
C152 N149 1.390 . S
C152 C153 1.346 . S
C152 H157 0.930 . S
C153 N150 1.336 . S
C153 C152 1.346 . S
C153 H160 0.929 . S
C154 O144 1.282 . S
C154 O155 1.216 . S
O155 C154 1.216 . S
H156 C151 0.930 . S
H157 C152 0.930 . S
O158 Cu138 1.959 . S
O158 C145 1.251 . S
H159 C142 0.930 . S
H160 C153 0.929 . S
Cu161 N162 1.999 . S
Cu161 O167 1.974 . S
Cu161 N172 1.985 1_655 S
Cu161 O181 1.959 . S
N162 Cu161 1.999 . S
N162 C164 1.263 . S
N162 C166 1.389 . S
N163 C164 1.358 . S
N163 C165 1.400 . S
C164 N162 1.263 . S
C164 N163 1.358 . S
C164 H170 0.930 . S
C165 N163 1.400 . S
C165 C166 1.351 . S
C165 H182 0.930 . S
C166 N162 1.389 . S
C166 C165 1.351 . S
C166 H171 0.930 . S
O167 Cu161 1.974 . S
O167 C177 1.282 1_655 S
C168 O169 1.261 . S
C168 O181 1.251 1_455 S
O169 C168 1.261 . S
H170 C164 0.930 . S
H171 C166 0.930 . S
N172 Cu161 1.985 1_455 S
N172 C174 1.335 . S
N172 C175 1.390 . S
N173 C174 1.345 . S
N173 C176 1.336 . S
C174 N172 1.335 . S
C174 N173 1.345 . S
C174 H179 0.930 1_455 S
C175 N172 1.390 . S
C175 C176 1.346 . S
C175 H180 0.930 . S
C176 N173 1.336 . S
C176 C175 1.346 . S
C176 H183 0.929 . S
C177 O167 1.282 1_455 S
C177 O178 1.216 . S
O178 C177 1.216 . S
H179 C174 0.930 1_655 S
H180 C175 0.930 . S
O181 Cu161 1.959 . S
O181 C168 1.251 1_655 S
H182 C165 0.930 . S
H183 C176 0.929 . S
Cu184 N185 1.999 . S
Cu184 O190 1.974 1_556 S
Cu184 N195 1.985 1_566 S
Cu184 O204 1.959 . S
N185 Cu184 1.999 . S
N185 C187 1.263 . S
N185 C189 1.389 . S
N186 C187 1.358 . S
N186 C188 1.400 . S
C187 N185 1.263 . S
C187 N186 1.358 . S
C187 H193 0.930 . S
C188 N186 1.400 . S
C188 C189 1.351 . S
C188 H205 0.930 . S
C189 N185 1.389 . S
C189 C188 1.351 . S
C189 H194 0.930 . S
O190 Cu184 1.974 1_554 S
O190 C200 1.282 1_565 S
C191 O192 1.261 . S
C191 O204 1.251 1_545 S
O192 C191 1.261 . S
H193 C187 0.930 . S
H194 C189 0.930 . S
N195 Cu184 1.985 1_544 S
N195 C197 1.335 . S
N195 C198 1.390 . S
N196 C197 1.345 . S
N196 C199 1.336 . S
C197 N195 1.335 . S
C197 N196 1.345 . S
C197 H202 0.930 1_545 S
C198 N195 1.390 . S
C198 C199 1.346 . S
C198 H203 0.930 . S
C199 N196 1.336 . S
C199 C198 1.346 . S
C199 H206 0.929 . S
C200 O190 1.282 1_545 S
C200 O201 1.216 1_554 S
O201 C200 1.216 1_556 S
H202 C197 0.930 1_565 S
H203 C198 0.930 . S
O204 Cu184 1.959 . S
O204 C191 1.251 1_565 S
H205 C188 0.930 . S
H206 C199 0.929 . S
Cu207 N208 1.999 . S
Cu207 O213 1.974 . S
Cu207 N218 1.985 1_556 S
Cu207 O227 1.959 . S
N208 Cu207 1.999 . S
N208 C210 1.263 . S
N208 C212 1.389 . S
N209 C210 1.358 . S
N209 C211 1.400 . S
C210 N208 1.263 . S
C210 N209 1.358 . S
C210 H216 0.930 . S
C211 N209 1.400 . S
C211 C212 1.351 . S
C211 H228 0.930 . S
C212 N208 1.389 . S
C212 C211 1.351 . S
C212 H217 0.930 . S
O213 Cu207 1.974 . S
O213 C223 1.282 . S
C214 O215 1.261 . S
C214 O227 1.251 . S
O215 C214 1.261 . S
H216 C210 0.930 . S
H217 C212 0.930 . S
N218 Cu207 1.985 1_554 S
N218 C220 1.335 . S
N218 C221 1.390 . S
N219 C220 1.345 . S
N219 C222 1.336 . S
C220 N218 1.335 . S
C220 N219 1.345 . S
C220 H225 0.930 1_554 S
C221 N218 1.390 . S
C221 C222 1.346 . S
C221 H226 0.930 . S
C222 N219 1.336 . S
C222 C221 1.346 . S
C222 H229 0.929 . S
C223 O213 1.282 . S
C223 O224 1.216 . S
O224 C223 1.216 . S
H225 C220 0.930 1_556 S
H226 C221 0.930 . S
O227 Cu207 1.959 . S
O227 C214 1.251 . S
H228 C211 0.930 . S
H229 C222 0.929 . S
Cu230 N231 1.999 . S
Cu230 O236 1.974 . S
Cu230 N241 1.985 1_556 S
Cu230 O250 1.959 . S
N231 Cu230 1.999 . S
N231 C233 1.263 . S
N231 C235 1.389 . S
N232 C233 1.358 . S
N232 C234 1.400 . S
C233 N231 1.263 . S
C233 N232 1.358 . S
C233 H239 0.930 . S
C234 N232 1.400 . S
C234 C235 1.351 . S
C234 H251 0.930 . S
C235 N231 1.389 . S
C235 C234 1.351 . S
C235 H240 0.930 . S
O236 Cu230 1.974 . S
O236 C246 1.282 . S
C237 O238 1.261 . S
C237 O250 1.251 . S
O238 C237 1.261 . S
H239 C233 0.930 . S
H240 C235 0.930 . S
N241 Cu230 1.985 1_554 S
N241 C243 1.335 . S
N241 C244 1.390 . S
N242 C243 1.345 . S
N242 C245 1.336 . S
C243 N241 1.335 . S
C243 N242 1.345 . S
C243 H248 0.930 . S
C244 N241 1.390 . S
C244 C245 1.346 . S
C244 H249 0.930 . S
C245 N242 1.336 . S
C245 C244 1.346 . S
C245 H252 0.929 . S
C246 O236 1.282 . S
C246 O247 1.218 . S
O247 C246 1.218 . S
H248 C243 0.930 . S
H249 C244 0.930 . S
O250 Cu230 1.959 . S
O250 C237 1.251 . S
H251 C234 0.930 . S
H252 C245 0.929 . S
Cu253 N254 1.999 . S
Cu253 O259 1.974 1_556 S
Cu253 N264 1.985 1_656 S
Cu253 O273 1.959 . S
N254 Cu253 1.999 . S
N254 C256 1.263 . S
N254 C258 1.389 . S
N255 C256 1.358 . S
N255 C257 1.400 . S
C256 N254 1.263 . S
C256 N255 1.358 . S
C256 H262 0.930 . S
C257 N255 1.400 . S
C257 C258 1.351 . S
C257 H274 0.930 . S
C258 N254 1.389 . S
C258 C257 1.351 . S
C258 H263 0.930 . S
O259 Cu253 1.974 1_554 S
O259 C269 1.282 1_655 S
C260 O261 1.261 . S
C260 O273 1.251 1_455 S
O261 C260 1.261 . S
H262 C256 0.930 . S
H263 C258 0.930 . S
N264 Cu253 1.985 1_454 S
N264 C266 1.335 . S
N264 C267 1.390 . S
N265 C266 1.345 . S
N265 C268 1.336 . S
C266 N264 1.335 . S
C266 N265 1.345 . S
C266 H271 0.930 1_455 S
C267 N264 1.390 . S
C267 C268 1.346 . S
C267 H272 0.930 . S
C268 N265 1.336 . S
C268 C267 1.346 . S
C268 H275 0.929 . S
C269 O259 1.282 1_455 S
C269 O270 1.216 1_554 S
O270 C269 1.216 1_556 S
H271 C266 0.930 1_655 S
H272 C267 0.930 . S
O273 Cu253 1.959 . S
O273 C260 1.251 1_655 S
H274 C257 0.930 . S
H275 C268 0.929 . S
Cu276 N277 1.999 . S
Cu276 O282 1.974 . S
Cu276 N287 1.985 1_545 S
Cu276 O296 1.959 . S
N277 Cu276 1.999 . S
N277 C279 1.263 . S
N277 C281 1.389 . S
N278 C279 1.358 . S
N278 C280 1.400 . S
C279 N277 1.263 . S
C279 N278 1.358 . S
C279 H285 0.930 . S
C280 N278 1.400 . S
C280 C281 1.351 . S
C280 H297 0.930 . S
C281 N277 1.389 . S
C281 C280 1.351 . S
C281 H286 0.930 . S
O282 Cu276 1.974 . S
O282 C292 1.282 1_545 S
C283 O284 1.261 . S
C283 O296 1.251 1_565 S
O284 C283 1.261 . S
H285 C279 0.930 . S
H286 C281 0.930 . S
N287 Cu276 1.985 1_565 S
N287 C289 1.335 . S
N287 C290 1.390 . S
N288 C289 1.345 . S
N288 C291 1.336 . S
C289 N287 1.335 . S
C289 N288 1.345 . S
C289 H294 0.930 1_565 S
C290 N287 1.390 . S
C290 C291 1.346 . S
C290 H295 0.930 . S
C291 N288 1.336 . S
C291 C290 1.346 . S
C291 H298 0.929 . S
C292 O282 1.282 1_565 S
C292 O293 1.216 . S
O293 C292 1.216 . S
H294 C289 0.930 1_545 S
H295 C290 0.930 . S
O296 Cu276 1.959 . S
O296 C283 1.251 1_545 S
H297 C280 0.930 . S
H298 C291 0.929 . S
Cu299 N300 1.999 . S
Cu299 O305 1.974 . S
Cu299 N310 1.985 . S
Cu299 O319 1.959 . S
N300 Cu299 1.999 . S
N300 C302 1.263 . S
N300 C304 1.389 . S
N301 C302 1.358 . S
N301 C303 1.400 . S
C302 N300 1.263 . S
C302 N301 1.358 . S
C302 H308 0.930 . S
C303 N301 1.400 . S
C303 C304 1.351 . S
C303 H320 0.930 . S
C304 N300 1.389 . S
C304 C303 1.351 . S
C304 H309 0.930 . S
O305 Cu299 1.974 . S
O305 C315 1.282 . S
C306 O307 1.261 . S
C306 O319 1.251 . S
O307 C306 1.261 . S
H308 C302 0.930 . S
H309 C304 0.930 . S
N310 Cu299 1.985 . S
N310 C312 1.335 . S
N310 C313 1.390 . S
N311 C312 1.345 . S
N311 C314 1.336 . S
C312 N310 1.335 . S
C312 N311 1.345 . S
C312 H317 0.930 . S
C313 N310 1.390 . S
C313 C314 1.346 . S
C313 H318 0.930 . S
C314 N311 1.336 . S
C314 C313 1.346 . S
C314 H321 0.929 . S
C315 O305 1.282 . S
C315 O316 1.216 . S
O316 C315 1.216 . S
H317 C312 0.930 . S
H318 C313 0.930 . S
O319 Cu299 1.959 . S
O319 C306 1.251 . S
H320 C303 0.930 . S
H321 C314 0.929 . S
Cu322 N323 1.999 . S
Cu322 O328 1.974 . S
Cu322 N333 1.985 . S
Cu322 O342 1.959 . S
N323 Cu322 1.999 . S
N323 C325 1.263 . S
N323 C327 1.389 . S
N324 C325 1.358 . S
N324 C326 1.400 . S
C325 N323 1.263 . S
C325 N324 1.358 . S
C325 H331 0.930 . S
C326 N324 1.400 . S
C326 C327 1.351 . S
C326 H343 0.930 . S
C327 N323 1.389 . S
C327 C326 1.351 . S
C327 H332 0.930 . S
O328 Cu322 1.974 . S
O328 C338 1.282 . S
C329 O330 1.261 . S
C329 O342 1.251 . S
O330 C329 1.261 . S
H331 C325 0.930 . S
H332 C327 0.930 . S
N333 Cu322 1.985 . S
N333 C335 1.335 . S
N333 C336 1.390 . S
N334 C335 1.345 . S
N334 C337 1.336 . S
C335 N333 1.335 . S
C335 N334 1.345 . S
C335 H340 0.930 . S
C336 N333 1.390 . S
C336 C337 1.346 . S
C336 H341 0.930 . S
C337 N334 1.336 . S
C337 C336 1.346 . S
C337 H344 0.929 . S
C338 O328 1.282 . S
C338 O339 1.216 . S
O339 C338 1.216 . S
H340 C335 0.930 . S
H341 C336 0.930 . S
O342 Cu322 1.959 . S
O342 C329 1.251 . S
H343 C326 0.930 . S
H344 C337 0.929 . S
Cu345 N346 1.999 . S
Cu345 O351 1.974 . S
Cu345 N356 1.985 1_455 S
Cu345 O365 1.959 . S
N346 Cu345 1.999 . S
N346 C348 1.263 . S
N346 C350 1.389 . S
N347 C348 1.358 . S
N347 C349 1.400 . S
C348 N346 1.263 . S
C348 N347 1.358 . S
C348 H354 0.930 . S
C349 N347 1.400 . S
C349 C350 1.351 . S
C349 H366 0.930 . S
C350 N346 1.389 . S
C350 C349 1.351 . S
C350 H355 0.930 . S
O351 Cu345 1.974 . S
O351 C361 1.282 1_455 S
C352 O353 1.261 . S
C352 O365 1.251 1_655 S
O353 C352 1.261 . S
H354 C348 0.930 . S
H355 C350 0.930 . S
N356 Cu345 1.985 1_655 S
N356 C358 1.335 . S
N356 C359 1.390 . S
N357 C358 1.345 . S
N357 C360 1.336 . S
C358 N356 1.335 . S
C358 N357 1.345 . S
C358 H363 0.930 1_655 S
C359 N356 1.390 . S
C359 C360 1.346 . S
C359 H364 0.930 . S
C360 N357 1.336 . S
C360 C359 1.346 . S
C360 H367 0.929 . S
C361 O351 1.282 1_655 S
C361 O362 1.216 . S
O362 C361 1.216 . S
H363 C358 0.930 1_455 S
H364 C359 0.930 . S
O365 Cu345 1.959 . S
O365 C352 1.251 1_455 S
H366 C349 0.930 . S
H367 C360 0.929 . S
H368 C374 0.930 . S
H369 C377 0.930 . S
H370 C378 0.930 . S
H371 C379 0.930 . S
H372 C382 0.930 . S
H373 C383 0.930 . S
C374 H368 0.930 . S
C374 C375 1.355 . S
C374 C376 1.415 . S
C375 C374 1.355 . S
C375 C377 1.419 . S
C376 C374 1.415 . S
C376 C381 1.425 . S
C376 C383 1.409 . S
C377 H369 0.930 . S
C377 C375 1.419 . S
C377 C378 1.362 . S
C378 H370 0.930 . S
C378 C377 1.362 . S
C378 C381 1.409 . S
C379 H371 0.930 . S
C379 C380 1.355 . S
C379 C381 1.415 . S
C380 C379 1.355 . S
C380 C382 1.419 . S
C381 C376 1.425 . S
C381 C378 1.409 . S
C381 C379 1.415 . S
C382 H372 0.930 . S
C382 C380 1.419 . S
C382 C383 1.362 . S
C383 H373 0.930 . S
C383 C376 1.409 . S
C383 C382 1.362 . S
H384 C390 0.930 . S
H385 C393 0.930 . S
H386 C394 0.930 . S
H387 C395 0.930 . S
H388 C398 0.930 . S
H389 C399 0.930 . S
C390 H384 0.930 . S
C390 C391 1.355 . S
C390 C392 1.415 . S
C391 C390 1.355 . S
C391 C393 1.419 . S
C392 C390 1.415 . S
C392 C397 1.425 . S
C392 C399 1.409 . S
C393 H385 0.930 . S
C393 C391 1.419 . S
C393 C394 1.362 . S
C394 H386 0.930 . S
C394 C393 1.362 . S
C394 C397 1.409 . S
C395 H387 0.930 . S
C395 C396 1.355 . S
C395 C397 1.415 . S
C396 C395 1.355 . S
C396 C398 1.419 . S
C397 C392 1.425 . S
C397 C394 1.409 . S
C397 C395 1.415 . S
C398 H388 0.930 . S
C398 C396 1.419 . S
C398 C399 1.362 . S
C399 H389 0.930 . S
C399 C392 1.409 . S
C399 C398 1.362 . S
H400 C406 0.930 . S
H401 C409 0.930 . S
H402 C410 0.930 . S
H403 C411 0.930 . S
H404 C414 0.930 . S
H405 C415 0.930 . S
C406 H400 0.930 . S
C406 C407 1.355 . S
C406 C408 1.415 . S
C407 C406 1.355 . S
C407 C409 1.419 . S
C408 C406 1.415 . S
C408 C413 1.425 . S
C408 C415 1.409 . S
C409 H401 0.930 . S
C409 C407 1.419 . S
C409 C410 1.362 . S
C410 H402 0.930 . S
C410 C409 1.362 . S
C410 C413 1.409 . S
C411 H403 0.930 . S
C411 C412 1.355 . S
C411 C413 1.415 . S
C412 C411 1.355 . S
C412 C414 1.419 . S
C413 C408 1.425 . S
C413 C410 1.409 . S
C413 C411 1.415 . S
C414 H404 0.930 . S
C414 C412 1.419 . S
C414 C415 1.362 . S
C415 H405 0.930 . S
C415 C408 1.409 . S
C415 C414 1.362 . S
H416 C422 0.930 . S
H417 C425 0.930 . S
H418 C426 0.930 . S
H419 C427 0.930 . S
H420 C430 0.930 . S
H421 C431 0.930 . S
C422 H416 0.930 . S
C422 C423 1.355 . S
C422 C424 1.415 . S
C423 C422 1.355 . S
C423 C425 1.419 . S
C424 C422 1.415 . S
C424 C429 1.425 . S
C424 C431 1.409 . S
C425 H417 0.930 . S
C425 C423 1.419 . S
C425 C426 1.362 . S
C426 H418 0.930 . S
C426 C425 1.362 . S
C426 C429 1.409 . S
C427 H419 0.930 . S
C427 C428 1.355 . S
C427 C429 1.415 . S
C428 C427 1.355 . S
C428 C430 1.419 . S
C429 C424 1.425 . S
C429 C426 1.409 . S
C429 C427 1.415 . S
C430 H420 0.930 . S
C430 C428 1.419 . S
C430 C431 1.362 . S
C431 H421 0.930 . S
C431 C424 1.409 . S
C431 C430 1.362 . S
H432 C438 0.930 . S
H433 C441 0.930 . S
H434 C442 0.930 . S
H435 C443 0.930 . S
H436 C446 0.930 . S
H437 C447 0.930 . S
C438 H432 0.930 . S
C438 C439 1.355 . S
C438 C440 1.415 . S
C439 C438 1.355 . S
C439 C441 1.419 . S
C440 C438 1.415 . S
C440 C445 1.425 . S
C440 C447 1.409 . S
C441 H433 0.930 . S
C441 C439 1.419 . S
C441 C442 1.362 . S
C442 H434 0.930 . S
C442 C441 1.362 . S
C442 C445 1.409 . S
C443 H435 0.930 . S
C443 C444 1.355 . S
C443 C445 1.415 . S
C444 C443 1.355 . S
C444 C446 1.419 . S
C445 C440 1.425 . S
C445 C442 1.409 . S
C445 C443 1.415 . S
C446 H436 0.930 . S
C446 C444 1.419 . S
C446 C447 1.362 . S
C447 H437 0.930 . S
C447 C440 1.409 . S
C447 C446 1.362 . S
H448 C454 0.930 . S
H449 C457 0.930 . S
H450 C458 0.930 . S
H451 C459 0.930 . S
H452 C462 0.930 . S
H453 C463 0.930 . S
C454 H448 0.930 . S
C454 C455 1.355 . S
C454 C456 1.415 . S
C455 C454 1.355 . S
C455 C457 1.419 . S
C456 C454 1.415 . S
C456 C461 1.425 . S
C456 C463 1.409 . S
C457 H449 0.930 . S
C457 C455 1.419 . S
C457 C458 1.362 . S
C458 H450 0.930 . S
C458 C457 1.362 . S
C458 C461 1.409 . S
C459 H451 0.930 . S
C459 C460 1.355 . S
C459 C461 1.415 . S
C460 C459 1.355 . S
C460 C462 1.419 . S
C461 C456 1.425 . S
C461 C458 1.409 . S
C461 C459 1.415 . S
C462 H452 0.930 . S
C462 C460 1.419 . S
C462 C463 1.362 . S
C463 H453 0.930 . S
C463 C456 1.409 . S
C463 C462 1.362 . S
H464 C470 0.930 . S
H465 C473 0.930 . S
H466 C474 0.930 . S
H467 C475 0.930 . S
H468 C478 0.930 . S
H469 C479 0.930 . S
C470 H464 0.930 . S
C470 C471 1.355 . S
C470 C472 1.415 . S
C471 C470 1.355 . S
C471 C473 1.419 . S
C472 C470 1.415 . S
C472 C477 1.425 . S
C472 C479 1.409 . S
C473 H465 0.930 . S
C473 C471 1.419 . S
C473 C474 1.362 . S
C474 H466 0.930 . S
C474 C473 1.362 . S
C474 C477 1.409 . S
C475 H467 0.930 . S
C475 C476 1.355 . S
C475 C477 1.415 . S
C476 C475 1.355 . S
C476 C478 1.419 . S
C477 C472 1.425 . S
C477 C474 1.409 . S
C477 C475 1.415 . S
C478 H468 0.930 . S
C478 C476 1.419 . S
C478 C479 1.362 . S
C479 H469 0.930 . S
C479 C472 1.409 . S
C479 C478 1.362 . S
H480 C486 0.930 . S
H481 C489 0.958 . S
H482 C490 0.930 . S
H483 C491 0.930 . S
H484 C494 0.930 . S
H485 C495 0.930 . S
C486 H480 0.930 . S
C486 C487 1.355 . S
C486 C488 1.415 . S
C487 C486 1.355 . S
C487 C489 1.419 . S
C488 C486 1.415 . S
C488 C493 1.425 . S
C488 C495 1.409 . S
C489 H481 0.958 . S
C489 C487 1.419 . S
C489 C490 1.362 . S
C490 H482 0.930 . S
C490 C489 1.362 . S
C490 C493 1.409 . S
C491 H483 0.930 . S
C491 C492 1.355 . S
C491 C493 1.415 . S
C492 C491 1.355 . S
C492 C494 1.419 . S
C493 C488 1.425 . S
C493 C490 1.409 . S
C493 C491 1.415 . S
C494 H484 0.930 . S
C494 C492 1.419 . S
C494 C495 1.362 . S
C495 H485 0.930 . S
C495 C488 1.409 . S
C495 C494 1.362 . S
H496 C502 0.930 . S
H497 C505 0.930 . S
H498 C506 0.930 . S
H499 C507 0.930 . S
H500 C510 0.930 . S
H501 C511 0.930 . S
C502 H496 0.930 . S
C502 C503 1.355 . S
C502 C504 1.415 . S
C503 C502 1.355 . S
C503 C505 1.419 . S
C504 C502 1.415 . S
C504 C509 1.425 . S
C504 C511 1.409 . S
C505 H497 0.930 . S
C505 C503 1.419 . S
C505 C506 1.362 . S
C506 H498 0.930 . S
C506 C505 1.362 . S
C506 C509 1.409 . S
C507 H499 0.930 . S
C507 C508 1.355 . S
C507 C509 1.415 . S
C508 C507 1.355 . S
C508 C510 1.419 . S
C509 C504 1.425 . S
C509 C506 1.409 . S
C509 C507 1.415 . S
C510 H500 0.930 . S
C510 C508 1.419 . S
C510 C511 1.362 . S
C511 H501 0.930 . S
C511 C504 1.409 . S
C511 C510 1.362 . S
H512 C518 0.930 . S
H513 C521 0.930 . S
H514 C522 0.930 . S
H515 C523 0.930 . S
H516 C526 0.930 . S
H517 C527 0.930 . S
C518 H512 0.930 . S
C518 C519 1.355 . S
C518 C520 1.415 . S
C519 C518 1.355 . S
C519 C521 1.419 . S
C520 C518 1.415 . S
C520 C525 1.425 . S
C520 C527 1.409 . S
C521 H513 0.930 . S
C521 C519 1.419 . S
C521 C522 1.362 . S
C522 H514 0.930 . S
C522 C521 1.362 . S
C522 C525 1.409 . S
C523 H515 0.930 . S
C523 C524 1.355 . S
C523 C525 1.415 . S
C524 C523 1.355 . S
C524 C526 1.419 . S
C525 C520 1.425 . S
C525 C522 1.409 . S
C525 C523 1.415 . S
C526 H516 0.930 . S
C526 C524 1.419 . S
C526 C527 1.362 . S
C527 H517 0.930 . S
C527 C520 1.409 . S
C527 C526 1.362 . S
H528 C534 0.930 . S
H529 C537 0.930 . S
H530 C538 0.930 . S
H531 C539 0.930 . S
H532 C542 0.930 . S
H533 C543 0.930 . S
C534 H528 0.930 . S
C534 C535 1.355 . S
C534 C536 1.415 . S
C535 C534 1.355 . S
C535 C537 1.419 . S
C536 C534 1.415 . S
C536 C541 1.425 . S
C536 C543 1.409 . S
C537 H529 0.930 . S
C537 C535 1.419 . S
C537 C538 1.362 . S
C538 H530 0.930 . S
C538 C537 1.362 . S
C538 C541 1.409 . S
C539 H531 0.930 . S
C539 C540 1.355 . S
C539 C541 1.415 . S
C540 C539 1.355 . S
C540 C542 1.419 . S
C541 C536 1.425 . S
C541 C538 1.409 . S
C541 C539 1.415 . S
C542 H532 0.930 . S
C542 C540 1.419 . S
C542 C543 1.362 . S
C543 H533 0.930 . S
C543 C536 1.409 . S
C543 C542 1.362 . S
H544 C550 0.930 1_455 S
H545 C553 0.930 . S
H546 C554 0.930 . S
H547 C555 0.930 . S
H548 C558 0.930 . S
H549 C559 0.930 . S
C550 H544 0.930 1_655 S
C550 C551 1.355 . S
C550 C552 1.415 . S
C551 C550 1.355 . S
C551 C553 1.419 . S
C552 C550 1.415 . S
C552 C557 1.425 . S
C552 C559 1.409 1_655 S
C553 H545 0.930 . S
C553 C551 1.419 . S
C553 C554 1.362 . S
C554 H546 0.930 . S
C554 C553 1.362 . S
C554 C557 1.409 . S
C555 H547 0.930 . S
C555 C556 1.355 . S
C555 C557 1.415 . S
C556 C555 1.355 . S
C556 C558 1.419 1_655 S
C557 C552 1.425 . S
C557 C554 1.409 . S
C557 C555 1.415 . S
C558 H548 0.930 . S
C558 C556 1.419 1_455 S
C558 C559 1.362 . S
C559 H549 0.930 . S
C559 C552 1.409 1_455 S
C559 C558 1.362 . S
H560 C566 0.901 1_565 S
H561 C569 0.930 . S
H562 C570 0.930 . S
H563 C571 0.930 . S
H564 C574 0.930 . S
H565 C575 0.930 . S
C566 H560 0.901 1_545 S
C566 C567 1.381 . S
C566 C568 1.417 . S
C567 C566 1.381 . S
C567 C569 1.419 . S
C568 C566 1.417 . S
C568 C573 1.425 . S
C568 C575 1.409 1_545 S
C569 H561 0.930 . S
C569 C567 1.419 . S
C569 C570 1.362 . S
C570 H562 0.930 . S
C570 C569 1.362 . S
C570 C573 1.409 . S
C571 H563 0.930 . S
C571 C572 1.355 . S
C571 C573 1.415 . S
C572 C571 1.355 . S
C572 C574 1.419 1_545 S
C573 C568 1.425 . S
C573 C570 1.409 . S
C573 C571 1.415 . S
C574 H564 0.930 . S
C574 C572 1.419 1_565 S
C574 C575 1.362 . S
C575 H565 0.930 . S
C575 C568 1.409 1_565 S
C575 C574 1.362 . S
H576 C582 0.930 . S
H577 C585 0.930 . S
H578 C586 0.930 . S
H579 C587 0.930 . S
H580 C590 0.930 . S
H581 C591 0.930 . S
C582 H576 0.930 . S
C582 C583 1.355 . S
C582 C584 1.415 . S
C583 C582 1.355 . S
C583 C585 1.419 . S
C584 C582 1.415 . S
C584 C589 1.425 . S
C584 C591 1.409 . S
C585 H577 0.930 . S
C585 C583 1.419 . S
C585 C586 1.362 . S
C586 H578 0.930 . S
C586 C585 1.362 . S
C586 C589 1.409 . S
C587 H579 0.930 . S
C587 C588 1.355 . S
C587 C589 1.415 . S
C588 C587 1.355 . S
C588 C590 1.419 . S
C589 C584 1.425 . S
C589 C586 1.409 . S
C589 C587 1.415 . S
C590 H580 0.930 . S
C590 C588 1.419 . S
C590 C591 1.362 . S
C591 H581 0.930 . S
C591 C584 1.409 . S
C591 C590 1.362 . S
H592 C598 0.930 . S
H593 C601 0.930 . S
H594 C602 0.930 . S
H595 C603 0.930 . S
H596 C606 0.930 . S
H597 C607 0.930 . S
C598 H592 0.930 . S
C598 C599 1.355 . S
C598 C600 1.415 . S
C599 C598 1.355 . S
C599 C601 1.419 . S
C600 C598 1.415 . S
C600 C605 1.425 . S
C600 C607 1.409 . S
C601 H593 0.930 . S
C601 C599 1.419 . S
C601 C602 1.362 . S
C602 H594 0.930 . S
C602 C601 1.362 . S
C602 C605 1.409 . S
C603 H595 0.930 . S
C603 C604 1.355 . S
C603 C605 1.415 . S
C604 C603 1.355 . S
C604 C606 1.419 . S
C605 C600 1.425 . S
C605 C602 1.409 . S
C605 C603 1.415 . S
C606 H596 0.930 . S
C606 C604 1.419 . S
C606 C607 1.362 . S
C607 H597 0.930 . S
C607 C600 1.409 . S
C607 C606 1.362 . S
H608 C614 0.930 . S
H609 C617 0.930 . S
H610 C618 0.930 . S
H611 C619 0.930 . S
H612 C622 0.930 . S
H613 C623 0.930 . S
C614 H608 0.930 . S
C614 C615 1.355 . S
C614 C616 1.415 . S
C615 C614 1.355 . S
C615 C617 1.419 . S
C616 C614 1.415 . S
C616 C621 1.425 . S
C616 C623 1.409 . S
C617 H609 0.930 . S
C617 C615 1.419 . S
C617 C618 1.362 . S
C618 H610 0.930 . S
C618 C617 1.362 . S
C618 C621 1.409 . S
C619 H611 0.930 . S
C619 C620 1.355 . S
C619 C621 1.415 . S
C620 C619 1.355 . S
C620 C622 1.419 . S
C621 C616 1.425 . S
C621 C618 1.409 . S
C621 C619 1.415 . S
C622 H612 0.930 . S
C622 C620 1.419 . S
C622 C623 1.362 . S
C623 H613 0.930 . S
C623 C616 1.409 . S
C623 C622 1.362 . S
H624 C630 0.930 . S
H625 C633 0.930 . S
H626 C634 0.930 . S
H627 C635 0.930 . S
H628 C638 0.930 . S
H629 C639 0.930 . S
C630 H624 0.930 . S
C630 C631 1.355 1_565 S
C630 C632 1.415 . S
C631 C630 1.355 1_545 S
C631 C633 1.419 . S
C632 C630 1.415 . S
C632 C637 1.425 1_565 S
C632 C639 1.409 . S
C633 H625 0.930 . S
C633 C631 1.419 . S
C633 C634 1.362 . S
C634 H626 0.930 . S
C634 C633 1.362 . S
C634 C637 1.409 . S
C635 H627 0.930 . S
C635 C636 1.355 . S
C635 C637 1.415 . S
C636 C635 1.355 . S
C636 C638 1.419 1_545 S
C637 C632 1.425 1_545 S
C637 C634 1.409 . S
C637 C635 1.415 . S
C638 H628 0.930 . S
C638 C636 1.419 1_565 S
C638 C639 1.362 . S
C639 H629 0.930 . S
C639 C632 1.409 . S
C639 C638 1.362 . S
H640 C646 0.930 . S
H641 C649 0.930 . S
H642 C650 0.930 . S
H643 C651 0.930 . S
H644 C654 0.930 . S
H645 C655 0.930 . S
C646 H640 0.930 . S
C646 C647 1.355 . S
C646 C648 1.415 . S
C647 C646 1.355 . S
C647 C649 1.419 . S
C648 C646 1.415 . S
C648 C653 1.425 . S
C648 C655 1.409 . S
C649 H641 0.930 . S
C649 C647 1.419 . S
C649 C650 1.362 . S
C650 H642 0.930 . S
C650 C649 1.362 . S
C650 C653 1.409 . S
C651 H643 0.930 . S
C651 C652 1.355 . S
C651 C653 1.415 . S
C652 C651 1.355 . S
C652 C654 1.419 . S
C653 C648 1.425 . S
C653 C650 1.409 . S
C653 C651 1.415 . S
C654 H644 0.930 . S
C654 C652 1.419 . S
C654 C655 1.362 . S
C655 H645 0.930 . S
C655 C648 1.409 . S
C655 C654 1.362 . S
H656 C662 0.930 . S
H657 C665 0.930 . S
H658 C666 0.930 . S
H659 C667 0.930 . S
H660 C670 0.930 . S
H661 C671 0.930 . S
C662 H656 0.930 . S
C662 C663 1.355 . S
C662 C664 1.415 . S
C663 C662 1.355 . S
C663 C665 1.419 . S
C664 C662 1.415 . S
C664 C669 1.425 . S
C664 C671 1.409 . S
C665 H657 0.930 . S
C665 C663 1.419 . S
C665 C666 1.362 . S
C666 H658 0.930 . S
C666 C665 1.362 . S
C666 C669 1.409 . S
C667 H659 0.930 . S
C667 C668 1.355 . S
C667 C669 1.415 . S
C668 C667 1.355 . S
C668 C670 1.419 . S
C669 C664 1.425 . S
C669 C666 1.409 . S
C669 C667 1.415 . S
C670 H660 0.930 . S
C670 C668 1.419 . S
C670 C671 1.362 . S
C671 H661 0.930 . S
C671 C664 1.409 . S
C671 C670 1.362 . S
H672 C678 0.930 . S
H673 C681 0.930 . S
H674 C682 0.930 . S
H675 C683 0.930 . S
H676 C686 0.934 . S
H677 C687 0.930 . S
C678 H672 0.930 . S
C678 C679 1.355 . S
C678 C680 1.415 . S
C679 C678 1.355 . S
C679 C681 1.419 . S
C680 C678 1.415 . S
C680 C685 1.425 . S
C680 C687 1.409 . S
C681 H673 0.930 . S
C681 C679 1.419 . S
C681 C682 1.362 . S
C682 H674 0.930 . S
C682 C681 1.362 . S
C682 C685 1.409 . S
C683 H675 0.930 . S
C683 C684 1.355 . S
C683 C685 1.415 . S
C684 C683 1.355 . S
C684 C686 1.419 . S
C685 C680 1.425 . S
C685 C682 1.409 . S
C685 C683 1.415 . S
C686 H676 0.934 . S
C686 C684 1.419 . S
C686 C687 1.362 . S
C687 H677 0.930 . S
C687 C680 1.409 . S
C687 C686 1.362 . S
H688 C694 0.930 . S
H689 C697 0.930 . S
H690 C698 0.930 . S
H691 C699 0.930 . S
H692 C702 0.930 . S
H693 C703 0.930 . S
C694 H688 0.930 . S
C694 C695 1.355 . S
C694 C696 1.415 . S
C695 C694 1.355 . S
C695 C697 1.419 . S
C696 C694 1.415 . S
C696 C701 1.425 . S
C696 C703 1.409 . S
C697 H689 0.930 . S
C697 C695 1.419 . S
C697 C698 1.362 . S
C698 H690 0.930 . S
C698 C697 1.362 . S
C698 C701 1.409 . S
C699 H691 0.930 . S
C699 C700 1.355 . S
C699 C701 1.415 . S
C700 C699 1.355 . S
C700 C702 1.419 . S
C701 C696 1.425 . S
C701 C698 1.409 . S
C701 C699 1.415 . S
C702 H692 0.930 . S
C702 C700 1.419 . S
C702 C703 1.362 . S
C703 H693 0.930 . S
C703 C696 1.409 . S
C703 C702 1.362 . S
H704 C710 0.930 . S
H705 C713 0.930 . S
H706 C714 0.930 . S
H707 C715 0.930 . S
H708 C718 0.930 . S
H709 C719 0.930 . S
C710 H704 0.930 . S
C710 C711 1.355 . S
C710 C712 1.415 . S
C711 C710 1.355 . S
C711 C713 1.419 . S
C712 C710 1.415 . S
C712 C717 1.425 . S
C712 C719 1.409 . S
C713 H705 0.930 . S
C713 C711 1.419 . S
C713 C714 1.362 . S
C714 H706 0.930 . S
C714 C713 1.362 . S
C714 C717 1.409 . S
C715 H707 0.930 . S
C715 C716 1.355 . S
C715 C717 1.415 . S
C716 C715 1.355 . S
C716 C718 1.419 . S
C717 C712 1.425 . S
C717 C714 1.409 . S
C717 C715 1.415 . S
C718 H708 0.930 . S
C718 C716 1.419 . S
C718 C719 1.362 . S
C719 H709 0.930 . S
C719 C712 1.409 . S
C719 C718 1.362 . S
H720 C726 0.930 . S
H721 C729 0.930 . S
H722 C730 0.930 . S
H723 C731 0.930 . S
H724 C734 0.930 . S
H725 C735 0.930 . S
C726 H720 0.930 . S
C726 C727 1.355 . S
C726 C728 1.415 . S
C727 C726 1.355 . S
C727 C729 1.419 . S
C728 C726 1.415 . S
C728 C733 1.425 . S
C728 C735 1.409 . S
C729 H721 0.930 . S
C729 C727 1.419 . S
C729 C730 1.362 . S
C730 H722 0.930 . S
C730 C729 1.362 . S
C730 C733 1.409 . S
C731 H723 0.930 . S
C731 C732 1.355 . S
C731 C733 1.415 . S
C732 C731 1.355 . S
C732 C734 1.419 . S
C733 C728 1.425 . S
C733 C730 1.409 . S
C733 C731 1.415 . S
C734 H724 0.930 . S
C734 C732 1.419 . S
C734 C735 1.362 . S
C735 H725 0.930 . S
C735 C728 1.409 . S
C735 C734 1.362 . S
H736 C742 0.930 . S
H737 C745 0.930 . S
H738 C746 0.930 . S
H739 C747 0.934 . S
H740 C750 0.930 . S
H741 C751 0.930 . S
C742 H736 0.930 . S
C742 C743 1.355 . S
C742 C744 1.415 . S
C743 C742 1.355 . S
C743 C745 1.419 1_655 S
C744 C742 1.415 . S
C744 C749 1.459 . S
C744 C751 1.409 . S
C745 H737 0.930 . S
C745 C743 1.419 1_455 S
C745 C746 1.362 . S
C746 H738 0.930 . S
C746 C745 1.362 . S
C746 C749 1.379 1_455 S
C747 H739 0.934 . S
C747 C748 1.350 1_455 S
C747 C749 1.413 1_455 S
C748 C747 1.350 1_655 S
C748 C750 1.419 . S
C749 C744 1.459 . S
C749 C746 1.379 1_655 S
C749 C747 1.413 1_655 S
C750 H740 0.930 . S
C750 C748 1.419 . S
C750 C751 1.362 . S
C751 H741 0.930 . S
C751 C744 1.409 . S
C751 C750 1.362 . S
H752 C758 0.930 . S
H753 C761 0.930 . S
H754 C762 0.930 . S
H755 C763 0.930 . S
H756 C766 0.930 . S
H757 C767 0.930 . S
C758 H752 0.930 . S
C758 C759 1.355 1_556 S
C758 C760 1.415 . S
C759 C758 1.355 1_554 S
C759 C761 1.419 1_545 S
C760 C758 1.415 . S
C760 C765 1.425 1_546 S
C760 C767 1.409 . S
C761 H753 0.930 . S
C761 C759 1.419 1_565 S
C761 C762 1.362 . S
C762 H754 0.930 . S
C762 C761 1.362 . S
C762 C765 1.409 . S
C763 H755 0.930 . S
C763 C764 1.355 1_554 S
C763 C765 1.415 . S
C764 C763 1.355 1_556 S
C764 C766 1.419 1_565 S
C765 C760 1.425 1_564 S
C765 C762 1.409 . S
C765 C763 1.415 . S
C766 H756 0.930 . S
C766 C764 1.419 1_545 S
C766 C767 1.362 . S
C767 H757 0.930 . S
C767 C760 1.409 . S
C767 C766 1.362 . S
H768 C774 0.930 . S
H769 C777 0.930 . S
H770 C778 0.930 . S
H771 C779 0.930 . S
H772 C782 0.930 . S
H773 C783 0.930 . S
C774 H768 0.930 . S
C774 C775 1.355 1_556 S
C774 C776 1.415 . S
C775 C774 1.355 1_554 S
C775 C777 1.419 . S
C776 C774 1.415 . S
C776 C781 1.425 1_556 S
C776 C783 1.409 . S
C777 H769 0.930 . S
C777 C775 1.419 . S
C777 C778 1.362 . S
C778 H770 0.930 . S
C778 C777 1.362 . S
C778 C781 1.409 . S
C779 H771 0.930 . S
C779 C780 1.355 1_554 S
C779 C781 1.415 . S
C780 C779 1.355 1_556 S
C780 C782 1.419 . S
C781 C776 1.425 1_554 S
C781 C778 1.409 . S
C781 C779 1.415 . S
C782 H772 0.930 . S
C782 C780 1.419 . S
C782 C783 1.362 . S
C783 H773 0.930 . S
C783 C776 1.409 . S
C783 C782 1.362 . S
H784 C790 0.930 . S
H785 C793 0.930 . S
H786 C794 0.930 . S
H787 C795 0.930 . S
H788 C798 0.930 . S
H789 C799 0.930 . S
C790 H784 0.930 . S
C790 C791 1.355 1_554 S
C790 C792 1.415 . S
C791 C790 1.355 1_556 S
C791 C793 1.419 . S
C792 C790 1.415 . S
C792 C797 1.425 1_654 S
C792 C799 1.409 . S
C793 H785 0.930 . S
C793 C791 1.419 . S
C793 C794 1.362 1_655 S
C794 H786 0.930 . S
C794 C793 1.362 1_455 S
C794 C797 1.409 . S
C795 H787 0.930 . S
C795 C796 1.355 1_556 S
C795 C797 1.415 . S
C796 C795 1.355 1_554 S
C796 C798 1.419 . S
C797 C792 1.425 1_456 S
C797 C794 1.409 . S
C797 C795 1.415 . S
C798 H788 0.930 . S
C798 C796 1.419 . S
C798 C799 1.362 1_455 S
C799 H789 0.930 . S
C799 C792 1.409 . S
C799 C798 1.362 1_655 S
H800 C806 0.930 . S
H801 C809 0.930 . S
H802 C810 0.930 . S
H803 C811 0.930 . S
H804 C814 0.930 . S
H805 C815 0.930 . S
C806 H800 0.930 . S
C806 C807 1.355 . S
C806 C808 1.415 . S
C807 C806 1.355 . S
C807 C809 1.419 1_454 S
C808 C806 1.415 . S
C808 C813 1.425 1_444 S
C808 C815 1.409 1_545 S
C809 H801 0.930 . S
C809 C807 1.419 1_656 S
C809 C810 1.362 . S
C810 H802 0.930 . S
C810 C809 1.362 . S
C810 C813 1.409 1_545 S
C811 H803 0.930 . S
C811 C812 1.355 . S
C811 C813 1.415 . S
C812 C811 1.355 . S
C812 C814 1.419 1_656 S
C813 C808 1.425 1_666 S
C813 C810 1.409 1_565 S
C813 C811 1.415 . S
C814 H804 0.930 . S
C814 C812 1.419 1_454 S
C814 C815 1.362 . S
C815 H805 0.930 . S
C815 C808 1.409 1_565 S
C815 C814 1.362 . S
H816 C822 0.930 . S
H817 C825 0.930 . S
H818 C826 0.930 . S
H819 C827 0.930 . S
H820 C830 0.930 . S
H821 C831 0.930 . S
C822 H816 0.930 . S
C822 C823 1.355 . S
C822 C824 1.415 . S
C823 C822 1.355 . S
C823 C825 1.419 1_545 S
C824 C822 1.415 . S
C824 C829 1.425 1_445 S
C824 C831 1.409 1_455 S
C825 H817 0.930 . S
C825 C823 1.419 1_565 S
C825 C826 1.362 . S
C826 H818 0.930 . S
C826 C825 1.362 . S
C826 C829 1.409 1_455 S
C827 H819 0.930 . S
C827 C828 1.355 . S
C827 C829 1.415 . S
C828 C827 1.355 . S
C828 C830 1.419 1_565 S
C829 C824 1.425 1_665 S
C829 C826 1.409 1_655 S
C829 C827 1.415 . S
C830 H820 0.930 . S
C830 C828 1.419 1_545 S
C830 C831 1.362 . S
C831 H821 0.930 . S
C831 C824 1.409 1_655 S
C831 C830 1.362 . S
H832 C838 0.930 . S
H833 C841 0.930 . S
H834 C842 0.930 . S
H835 C843 0.930 . S
H836 C846 0.930 . S
H837 C847 0.930 . S
C838 H832 0.930 . S
C838 C839 1.355 . S
C838 C840 1.415 . S
C839 C838 1.355 . S
C839 C841 1.419 . S
C840 C838 1.415 . S
C840 C845 1.425 1_565 S
C840 C847 1.409 1_565 S
C841 H833 0.930 . S
C841 C839 1.419 . S
C841 C842 1.362 . S
C842 H834 0.930 . S
C842 C841 1.362 . S
C842 C845 1.409 1_565 S
C843 H835 0.930 . S
C843 C844 1.355 . S
C843 C845 1.415 . S
C844 C843 1.355 . S
C844 C846 1.419 . S
C845 C840 1.425 1_545 S
C845 C842 1.409 1_545 S
C845 C843 1.415 . S
C846 H836 0.930 . S
C846 C844 1.419 . S
C846 C847 1.362 . S
C847 H837 0.930 . S
C847 C840 1.409 1_545 S
C847 C846 1.362 . S
H848 C854 0.930 . S
H849 C857 0.930 . S
H850 C858 0.930 . S
H851 C859 0.930 . S
H852 C862 0.930 . S
H853 C863 0.930 . S
C854 H848 0.930 . S
C854 C855 1.355 . S
C854 C856 1.415 . S
C855 C854 1.355 . S
C855 C857 1.419 . S
C856 C854 1.415 . S
C856 C861 1.425 . S
C856 C863 1.409 . S
C857 H849 0.930 . S
C857 C855 1.419 . S
C857 C858 1.362 . S
C858 H850 0.930 . S
C858 C857 1.362 . S
C858 C861 1.409 . S
C859 H851 0.930 . S
C859 C860 1.355 . S
C859 C861 1.415 . S
C860 C859 1.355 . S
C860 C862 1.419 . S
C861 C856 1.425 . S
C861 C858 1.409 . S
C861 C859 1.415 . S
C862 H852 0.930 . S
C862 C860 1.419 . S
C862 C863 1.362 . S
C863 H853 0.930 . S
C863 C856 1.409 . S
C863 C862 1.362 . S
H864 C870 0.930 . S
H865 C873 0.930 . S
H866 C874 0.930 . S
H867 C875 0.930 . S
H868 C878 0.930 . S
H869 C879 0.930 . S
C870 H864 0.930 . S
C870 C871 1.355 1_455 S
C870 C872 1.415 . S
C871 C870 1.355 1_655 S
C871 C873 1.419 . S
C872 C870 1.415 . S
C872 C877 1.425 1_455 S
C872 C879 1.409 . S
C873 H865 0.930 . S
C873 C871 1.419 . S
C873 C874 1.362 . S
C874 H866 0.930 . S
C874 C873 1.362 . S
C874 C877 1.409 . S
C875 H867 0.930 . S
C875 C876 1.355 1_655 S
C875 C877 1.415 . S
C876 C875 1.355 1_455 S
C876 C878 1.419 . S
C877 C872 1.425 1_655 S
C877 C874 1.409 . S
C877 C875 1.415 . S
C878 H868 0.930 . S
C878 C876 1.419 . S
C878 C879 1.362 . S
C879 H869 0.930 . S
C879 C872 1.409 . S
C879 C878 1.362 . S
C375 N117 0.687 . S
C380 N2 0.594 . S
C391 N140 1.033 . S
C396 N25 0.907 . S
C407 N48 0.783 . S
C412 N163 0.631 . S
C423 N71 0.533 . S
C428 N94 0.419 . S
C439 N186 0.591 . S
C444 N301 0.796 . S
C455 N324 0.910 . S
C460 N209 1.034 . S
C471 N347 0.565 . S
C476 N232 0.779 . S
C487 N255 0.589 . S
C492 N278 0.353 . S
C503 N12 1.670 . S
C508 C283 1.685 . S
C519 C306 2.050 . S
C524 N35 2.042 . S
C535 N58 2.281 . S
C540 C329 2.300 . S
C551 N81 1.889 . S
C556 C352 1.895 . S
C567 N104 1.887 . S
C572 C191 1.893 . S
C583 N127 2.281 . S
C588 C214 2.303 . S
C599 N150 2.009 . S
C604 C237 2.059 . S
C615 N173 1.670 . S
C620 C260 1.683 . S
C631 C99 1.719 . S
C636 N196 1.704 . S
C647 C122 2.035 . S
C652 N219 2.023 . S
C663 C145 2.296 . S
C668 N242 2.279 . S
C679 N265 1.892 . S
C684 C168 1.903 . S
C695 C7 1.905 . S
C700 N288 1.896 . S
C711 N311 2.250 . S
C716 C30 2.291 . S
C727 N334 2.040 . S
C732 C53 2.064 . S
C743 C76 1.716 . S
C748 N357 1.712 . S
C759 C200 1.591 . S
C764 C16 1.589 . S
C775 C223 2.192 1_554 S
C780 C39 2.192 1_556 S
C791 C62 2.560 1_556 S
C796 C246 2.560 1_554 S
C807 C269 1.889 . S
C812 C85 1.888 . S
C823 C108 1.907 . S
C828 C292 1.905 . S
C839 C315 2.560 . S
C844 C131 2.560 . S
C855 C338 2.209 . S
C860 C154 2.209 . S
C871 C361 1.613 . S
C876 C177 1.612 . S
