# Generated by pormake.
# Topology bor-e, (5)-cn, num edge types: 1
# Building blocks:
#     Node 0, Type 0, BuildingBlock: BEQFEK_clean_sbu_0, # of connection points: 5
#     Node 1, Type 0, BuildingBlock: BEQFEK_clean_sbu_0, # of connection points: 5
#     Node 2, Type 0, BuildingBlock: BEQFEK_clean_sbu_0, # of connection points: 5
#     Node 3, Type 0, BuildingBlock: BEQFEK_clean_sbu_0, # of connection points: 5
#     Node 4, Type 0, BuildingBlock: BEQFEK_clean_sbu_0, # of connection points: 5
#     Node 5, Type 0, BuildingBlock: BEQFEK_clean_sbu_0, # of connection points: 5
#     Node 6, Type 0, BuildingBlock: BEQFEK_clean_sbu_0, # of connection points: 5
#     Node 7, Type 0, BuildingBlock: BEQFEK_clean_sbu_0, # of connection points: 5
#     Node 8, Type 0, BuildingBlock: BEQFEK_clean_sbu_0, # of connection points: 5
#     Node 9, Type 0, BuildingBlock: BEQFEK_clean_sbu_0, # of connection points: 5
#     Node 10, Type 0, BuildingBlock: BEQFEK_clean_sbu_0, # of connection points: 5
#     Node 11, Type 0, BuildingBlock: BEQFEK_clean_sbu_0, # of connection points: 5
#     Edge 12, Type (0, 0), BuildingBlock: XUDNAN_clean_linker_2, # of connection points: 2
#     Edge 13, Type (0, 0), BuildingBlock: XUDNAN_clean_linker_2, # of connection points: 2
#     Edge 14, Type (0, 0), BuildingBlock: XUDNAN_clean_linker_2, # of connection points: 2
#     Edge 15, Type (0, 0), BuildingBlock: XUDNAN_clean_linker_2, # of connection points: 2
#     Edge 16, Type (0, 0), BuildingBlock: XUDNAN_clean_linker_2, # of connection points: 2
#     Edge 17, Type (0, 0), BuildingBlock: XUDNAN_clean_linker_2, # of connection points: 2
#     Edge 18, Type (0, 0), BuildingBlock: XUDNAN_clean_linker_2, # of connection points: 2
#     Edge 19, Type (0, 0), BuildingBlock: XUDNAN_clean_linker_2, # of connection points: 2
#     Edge 20, Type (0, 0), BuildingBlock: XUDNAN_clean_linker_2, # of connection points: 2
#     Edge 21, Type (0, 0), BuildingBlock: XUDNAN_clean_linker_2, # of connection points: 2
#     Edge 22, Type (0, 0), BuildingBlock: XUDNAN_clean_linker_2, # of connection points: 2
#     Edge 23, Type (0, 0), BuildingBlock: XUDNAN_clean_linker_2, # of connection points: 2
#     Edge 24, Type (0, 0), BuildingBlock: XUDNAN_clean_linker_2, # of connection points: 2
#     Edge 25, Type (0, 0), BuildingBlock: XUDNAN_clean_linker_2, # of connection points: 2
#     Edge 26, Type (0, 0), BuildingBlock: XUDNAN_clean_linker_2, # of connection points: 2
#     Edge 27, Type (0, 0), BuildingBlock: XUDNAN_clean_linker_2, # of connection points: 2
#     Edge 28, Type (0, 0), BuildingBlock: XUDNAN_clean_linker_2, # of connection points: 2
#     Edge 29, Type (0, 0), BuildingBlock: XUDNAN_clean_linker_2, # of connection points: 2
#     Edge 30, Type (0, 0), BuildingBlock: XUDNAN_clean_linker_2, # of connection points: 2
#     Edge 31, Type (0, 0), BuildingBlock: XUDNAN_clean_linker_2, # of connection points: 2
#     Edge 32, Type (0, 0), BuildingBlock: XUDNAN_clean_linker_2, # of connection points: 2
#     Edge 33, Type (0, 0), BuildingBlock: XUDNAN_clean_linker_2, # of connection points: 2
#     Edge 34, Type (0, 0), BuildingBlock: XUDNAN_clean_linker_2, # of connection points: 2
#     Edge 35, Type (0, 0), BuildingBlock: XUDNAN_clean_linker_2, # of connection points: 2
#     Edge 36, Type (0, 0), BuildingBlock: XUDNAN_clean_linker_2, # of connection points: 2
#     Edge 37, Type (0, 0), BuildingBlock: XUDNAN_clean_linker_2, # of connection points: 2
#     Edge 38, Type (0, 0), BuildingBlock: XUDNAN_clean_linker_2, # of connection points: 2
#     Edge 39, Type (0, 0), BuildingBlock: XUDNAN_clean_linker_2, # of connection points: 2
#     Edge 40, Type (0, 0), BuildingBlock: XUDNAN_clean_linker_2, # of connection points: 2
#     Edge 41, Type (0, 0), BuildingBlock: XUDNAN_clean_linker_2, # of connection points: 2
# Relax obj value: 0.546
# Max RMSD: 0.276
# Mean RMSD: 0.276
data_MOF--net-bor-e--node1-BEQFEK_clean_sbu_0--edge1-XUDNAN_clean_linker_2
_symmetry_space_group_name_H-M    P1
_symmetry_Int_Tables_number       1
_symmetry_cell_setting            triclinic
loop_
_symmetry_equiv_pos_as_xyz
'x, y, z'
_cell_length_a     44.869255
_cell_length_b     45.086202
_cell_length_c     44.841463
_cell_angle_alpha  90.016751
_cell_angle_beta   89.972763
_cell_angle_gamma 90.024371
loop_
_atom_site_label
_atom_site_type_symbol
_atom_site_fract_x
_atom_site_fract_y
_atom_site_fract_z
_atom_type_partial_charge
Co0 Co 0.10678 0.10726 0.59355 0.0
Co1 Co 0.07636 0.14289 0.64422 0.0
C2 C 0.07643 0.16269 0.57917 0.0
O3 O 0.09326 0.14182 0.57016 0.0
O4 O 0.06865 0.16441 0.6064 0.0
C5 C 0.14656 0.08309 0.54677 0.0
O6 O 0.15294 0.11011 0.53784 0.0
C7 C 0.07745 0.19619 0.67894 0.0
C8 C 0.04478 0.18785 0.71483 0.0
C9 C 0.06507 0.20867 0.70435 0.0
N10 N 0.06513 0.16944 0.67474 0.0
N11 N 0.04527 0.16464 0.69593 0.0
C12 C 0.10259 0.2078 0.6603 0.0
H13 H 0.11211 0.19004 0.64612 0.0
H14 H 0.12033 0.21727 0.67467 0.0
H15 H 0.09411 0.22548 0.64536 0.0
C16 C 0.15573 0.10583 0.63744 0.0
N17 N 0.12984 0.11719 0.62743 0.0
N18 N 0.11666 0.13146 0.64933 0.0
C19 C 0.13355 0.12936 0.6741 0.0
C20 C 0.1589 0.11298 0.6674 0.0
C21 C 0.17534 0.08567 0.61962 0.0
H22 H 0.16358 0.06438 0.61564 0.0
H23 H 0.18014 0.09603 0.59773 0.0
H24 H 0.19671 0.08123 0.63123 0.0
O25 O 0.07149 0.08409 0.60669 0.0
O26 O 0.05156 0.10692 0.6459 0.0
H27 H 0.09914 0.13164 0.70725 0.0
H28 H 0.13617 0.12712 0.72242 0.0
C29 C 0.1229 0.13788 0.70459 0.0
H30 H 0.12475 0.16227 0.7072 0.0
H31 H 0.03276 0.14523 0.69798 0.0
O32 O 0.12875 0.07916 0.56841 0.0
C33 C 0.05233 0.08534 0.62762 0.0
Co34 Co 0.11356 0.87646 0.39584 0.0
Co35 Co 0.06448 0.85792 0.3506 0.0
C36 C 0.07561 0.82645 0.41027 0.0
O37 O 0.09875 0.84116 0.41735 0.0
O38 O 0.06155 0.83198 0.38628 0.0
C39 C 0.14411 0.8984 0.4455 0.0
O40 O 0.12252 0.88419 0.45923 0.0
C41 C 0.0458 0.80968 0.31474 0.0
C42 C 0.01276 0.82797 0.28327 0.0
C43 C 0.02762 0.80216 0.29112 0.0
N44 N 0.04165 0.83836 0.32111 0.0
N45 N 0.02156 0.84927 0.30255 0.0
C46 C 0.06946 0.79088 0.32884 0.0
H47 H 0.05898 0.77583 0.34537 0.0
H48 H 0.0862 0.80478 0.34044 0.0
H49 H 0.08082 0.77708 0.31177 0.0
C50 C 0.15103 0.87243 0.34156 0.0
N51 N 0.12511 0.86841 0.35617 0.0
N52 N 0.10404 0.86242 0.33679 0.0
C53 C 0.11557 0.86319 0.30908 0.0
C54 C 0.1459 0.86943 0.31106 0.0
C55 C 0.1798 0.87974 0.35674 0.0
H56 H 0.18062 0.90393 0.36126 0.0
H57 H 0.18115 0.86794 0.37841 0.0
H58 H 0.19916 0.87349 0.34267 0.0
O59 O 0.0812 0.90689 0.39632 0.0
O60 O 0.04787 0.89677 0.36104 0.0
H61 H 0.10779 0.87412 0.26263 0.0
H62 H 0.0931 0.83887 0.2749 0.0
C63 C 0.09691 0.86232 0.2814 0.0
H64 H 0.07502 0.87285 0.28569 0.0
H65 H 0.01471 0.87139 0.30233 0.0
O66 O 0.14641 0.89577 0.41743 0.0
C67 C 0.05755 0.91329 0.38194 0.0
Co68 Co 0.90366 0.87055 0.56373 0.0
Co69 Co 0.9223 0.83866 0.62175 0.0
C70 C 0.93974 0.81657 0.56041 0.0
O71 O 0.92378 0.83568 0.54714 0.0
O72 O 0.94203 0.8162 0.58868 0.0
C73 C 0.91323 0.90531 0.51634 0.0
O74 O 0.93814 0.89022 0.519 0.0
C75 C 0.90892 0.79217 0.66393 0.0
C76 C 0.93746 0.80395 0.70231 0.0
C77 C 0.91528 0.78461 0.69311 0.0
N78 N 0.92598 0.81541 0.65646 0.0
N79 N 0.94341 0.82208 0.67924 0.0
C80 C 0.88737 0.77747 0.64315 0.0
H81 H 0.89443 0.7809 0.61967 0.0
H82 H 0.86492 0.78732 0.64588 0.0
H83 H 0.88578 0.7534 0.64811 0.0
C84 C 0.84507 0.871 0.59272 0.0
N85 N 0.87299 0.86038 0.59025 0.0
N86 N 0.8812 0.84855 0.61576 0.0
C87 C 0.85905 0.8524 0.63575 0.0
C88 C 0.83514 0.8661 0.62165 0.0
C89 C 0.8302 0.88928 0.56922 0.0
H90 H 0.8398 0.91198 0.56947 0.0
H91 H 0.83451 0.8795 0.54692 0.0
H92 H 0.80582 0.89072 0.57319 0.0
O93 O 0.93217 0.89676 0.58538 0.0
O94 O 0.94385 0.87576 0.62846 0.0
H95 H 0.88729 0.85304 0.67471 0.0
H96 H 0.85093 0.86852 0.68055 0.0
C97 C 0.86343 0.85072 0.6689 0.0
H98 H 0.85497 0.82919 0.67726 0.0
H99 H 0.95839 0.83979 0.67947 0.0
O100 O 0.89076 0.89699 0.53146 0.0
C101 C 0.9456 0.89735 0.61037 0.0
Co102 Co 0.89483 0.13615 0.42831 0.0
Co103 Co 0.92777 0.15224 0.36994 0.0
C104 C 0.938 0.18385 0.42898 0.0
O105 O 0.91547 0.17232 0.4416 0.0
O106 O 0.94526 0.17666 0.40254 0.0
C107 C 0.88661 0.11744 0.48555 0.0
O108 O 0.90491 0.13923 0.49212 0.0
C109 C 0.93736 0.19763 0.32691 0.0
C110 C 0.95777 0.17458 0.28853 0.0
C111 C 0.94711 0.20199 0.29786 0.0
N112 N 0.94181 0.16919 0.33413 0.0
N113 N 0.9546 0.15551 0.31145 0.0
C114 C 0.91998 0.21851 0.3463 0.0
H115 H 0.90871 0.20635 0.36459 0.0
H116 H 0.90301 0.23057 0.33302 0.0
H117 H 0.93541 0.23489 0.35642 0.0
C118 C 0.84288 0.13566 0.38807 0.0
N119 N 0.8715 0.14225 0.39413 0.0
N120 N 0.8852 0.15006 0.36944 0.0
C121 C 0.86552 0.14913 0.34673 0.0
C122 C 0.83803 0.13974 0.3577 0.0
C123 C 0.8225 0.12115 0.41014 0.0
H124 H 0.83387 0.10164 0.42003 0.0
H125 H 0.81771 0.13696 0.4285 0.0
H126 H 0.80131 0.1137 0.39993 0.0
O127 O 0.92518 0.10486 0.42015 0.0
O128 O 0.94402 0.11211 0.37485 0.0
H129 H 0.89095 0.14025 0.30726 0.0
H130 H 0.85385 0.15449 0.29988 0.0
C131 C 0.87337 0.15578 0.31493 0.0
H132 H 0.88223 0.1786 0.31339 0.0
H133 H 0.95985 0.13297 0.31113 0.0
O134 O 0.87164 0.11937 0.46162 0.0
C135 C 0.94186 0.09682 0.3986 0.0
Co136 Co 0.56519 0.07437 0.11843 0.0
Co137 Co 0.6243 0.05942 0.15157 0.0
C138 C 0.56318 0.05077 0.17922 0.0
O139 O 0.54964 0.06166 0.15689 0.0
O140 O 0.59136 0.04745 0.17917 0.0
C141 C 0.51773 0.06754 0.07892 0.0
O142 O 0.52067 0.03981 0.08745 0.0
C143 C 0.66395 0.0738 0.20053 0.0
C144 C 0.70349 0.046 0.19187 0.0
C145 C 0.69201 0.06665 0.21185 0.0
N146 N 0.65941 0.05814 0.17544 0.0
N147 N 0.68302 0.04142 0.17041 0.0
C148 C 0.64195 0.09602 0.21197 0.0
H149 H 0.62487 0.10105 0.19489 0.0
H150 H 0.65345 0.11683 0.21851 0.0
H151 H 0.63026 0.08671 0.23166 0.0
C152 C 0.59504 0.13164 0.11028 0.0
N153 N 0.59316 0.1048 0.1232 0.0
N154 N 0.61864 0.09841 0.13617 0.0
C155 C 0.63787 0.12086 0.13142 0.0
C156 C 0.62345 0.14275 0.11502 0.0
C157 C 0.57095 0.14498 0.0915 0.0
H158 H 0.56981 0.13302 0.06988 0.0
H159 H 0.54914 0.14239 0.10285 0.0
H160 H 0.57518 0.16886 0.08722 0.0
O161 O 0.58436 0.04169 0.09588 0.0
O162 O 0.62807 0.03193 0.11682 0.0
H163 H 0.67844 0.09579 0.13518 0.0
H164 H 0.68372 0.13332 0.12245 0.0
C165 C 0.67063 0.11897 0.13769 0.0
H166 H 0.67486 0.12624 0.16093 0.0
H167 H 0.68521 0.02705 0.1523 0.0
O168 O 0.53276 0.08744 0.09218 0.0
C169 C 0.60892 0.02761 0.09623 0.0
Co170 Co 0.12382 0.41174 0.91163 0.0
Co171 Co 0.1545 0.35628 0.93853 0.0
C172 C 0.17465 0.41867 0.95252 0.0
O173 O 0.15606 0.43041 0.9346 0.0
O174 O 0.1754 0.39073 0.95666 0.0
C175 C 0.10316 0.46521 0.87641 0.0
O176 O 0.1297 0.47737 0.87446 0.0
C177 C 0.20497 0.31743 0.94713 0.0
C178 C 0.18333 0.27445 0.95678 0.0
C179 C 0.21073 0.28772 0.95187 0.0
N180 N 0.17548 0.32161 0.94909 0.0
N181 N 0.16265 0.29604 0.95566 0.0
C182 C 0.22643 0.3405 0.93636 0.0
H183 H 0.21445 0.35856 0.92459 0.0
H184 H 0.24332 0.33056 0.92127 0.0
H185 H 0.23826 0.35007 0.95584 0.0
C186 C 0.13308 0.37857 0.85603 0.0
N187 N 0.13847 0.38288 0.88522 0.0
N188 N 0.15213 0.35955 0.89626 0.0
C189 C 0.15632 0.33969 0.87419 0.0
C190 C 0.14411 0.35094 0.84803 0.0
C191 C 0.11283 0.398 0.83805 0.0
H192 H 0.09125 0.40051 0.84987 0.0
H193 H 0.12307 0.42028 0.83585 0.0
H194 H 0.10841 0.38903 0.8155 0.0
O195 O 0.09403 0.39371 0.93844 0.0
O196 O 0.11386 0.35191 0.95505 0.0
H197 H 0.15477 0.29655 0.89407 0.0
H198 H 0.17119 0.29711 0.85718 0.0
C199 C 0.16912 0.30933 0.87856 0.0
H200 H 0.19162 0.31123 0.88844 0.0
H201 H 0.13967 0.29299 0.95749 0.0
O202 O 0.09969 0.44084 0.8901 0.0
C203 C 0.09207 0.36981 0.95332 0.0
Co204 Co 0.43534 0.90417 0.12662 0.0
Co205 Co 0.37371 0.93594 0.13774 0.0
C206 C 0.42157 0.93613 0.18369 0.0
O207 O 0.4385 0.92094 0.16689 0.0
O208 O 0.39581 0.94414 0.17513 0.0
C209 C 0.48688 0.86437 0.10497 0.0
O210 O 0.50971 0.84892 0.11475 0.0
C211 C 0.31791 0.9402 0.1693 0.0
C212 C 0.28689 0.95795 0.13558 0.0
C213 C 0.28813 0.94624 0.16414 0.0
N214 N 0.33357 0.94779 0.14496 0.0
N215 N 0.31506 0.95927 0.12515 0.0
C216 C 0.33073 0.9231 0.19492 0.0
H217 H 0.31359 0.90918 0.206 0.0
H218 H 0.33973 0.93899 0.21154 0.0
H219 H 0.34934 0.90885 0.18715 0.0
C220 C 0.3957 0.85219 0.11937 0.0
N221 N 0.40027 0.88136 0.12417 0.0
N222 N 0.37436 0.89481 0.12702 0.0
C223 C 0.3525 0.8747 0.12261 0.0
C224 C 0.36539 0.84722 0.11787 0.0
C225 C 0.4198 0.82942 0.11671 0.0
H226 H 0.43077 0.8317 0.09471 0.0
H227 H 0.43668 0.83294 0.1344 0.0
H228 H 0.4108 0.80657 0.11846 0.0
O229 O 0.43517 0.93764 0.09659 0.0
O230 O 0.39178 0.96021 0.10561 0.0
H231 H 0.3064 0.8631 0.11373 0.0
H232 H 0.31276 0.88355 0.14727 0.0
C233 C 0.3198 0.88119 0.12372 0.0
H234 H 0.31502 0.90199 0.11156 0.0
H235 H 0.32131 0.9658 0.10371 0.0
O236 O 0.47117 0.87813 0.12412 0.0
C237 C 0.41628 0.95819 0.0913 0.0
Co238 Co 0.87204 0.59068 0.90562 0.0
Co239 Co 0.83798 0.63696 0.94401 0.0
C240 C 0.82183 0.57118 0.94138 0.0
O241 O 0.84107 0.56466 0.92159 0.0
O242 O 0.81986 0.59725 0.95224 0.0
C243 C 0.90663 0.54389 0.87893 0.0
O244 O 0.89336 0.52642 0.89828 0.0
C245 C 0.78396 0.67057 0.95071 0.0
C246 C 0.79635 0.70588 0.98252 0.0
C247 C 0.77353 0.69623 0.96407 0.0
N248 N 0.81184 0.66567 0.9602 0.0
N249 N 0.81902 0.68648 0.97968 0.0
C250 C 0.76793 0.65092 0.92904 0.0
H251 H 0.74342 0.65328 0.93139 0.0
H252 H 0.77435 0.62746 0.93263 0.0
H253 H 0.77434 0.6569 0.90594 0.0
C254 C 0.85628 0.63167 0.85792 0.0
N255 N 0.85448 0.62294 0.88645 0.0
N256 N 0.84188 0.64389 0.90245 0.0
C257 C 0.83641 0.66738 0.8846 0.0
C258 C 0.84493 0.66007 0.8558 0.0
C259 C 0.87066 0.61399 0.8336 0.0
H260 H 0.89524 0.6154 0.83596 0.0
H261 H 0.864 0.59037 0.83552 0.0
H262 H 0.86428 0.62248 0.81127 0.0
O263 O 0.89966 0.60442 0.93743 0.0
O264 O 0.87751 0.64049 0.96281 0.0
H265 H 0.83498 0.70073 0.91901 0.0
H266 H 0.83914 0.71505 0.88159 0.0
C267 C 0.82827 0.69773 0.89543 0.0
H268 H 0.80387 0.7008 0.89344 0.0
H269 H 0.83982 0.68821 0.98994 0.0
O270 O 0.89892 0.57086 0.87741 0.0
C271 C 0.90016 0.62435 0.95754 0.0
Co272 Co 0.57274 0.89351 0.86522 0.0
Co273 Co 0.6328 0.91548 0.83839 0.0
C274 C 0.5725 0.9292 0.81081 0.0
O275 O 0.55828 0.91378 0.82977 0.0
O276 O 0.60068 0.93217 0.81249 0.0
C277 C 0.51631 0.88996 0.89429 0.0
O278 O 0.51175 0.91615 0.88229 0.0
C279 C 0.67691 0.91195 0.79085 0.0
C280 C 0.71018 0.94541 0.80453 0.0
C281 C 0.70301 0.92576 0.78187 0.0
N282 N 0.66908 0.92281 0.81762 0.0
N283 N 0.68915 0.94267 0.8258 0.0
C284 C 0.65818 0.89086 0.77317 0.0
H285 H 0.63524 0.88973 0.78237 0.0
H286 H 0.66819 0.8684 0.77426 0.0
H287 H 0.65751 0.89773 0.7494 0.0
C288 C 0.60495 0.83766 0.8673 0.0
N289 N 0.6019 0.86506 0.85595 0.0
N290 N 0.62785 0.87434 0.84598 0.0
C291 C 0.64852 0.85339 0.85153 0.0
C292 C 0.63467 0.82949 0.86547 0.0
C293 C 0.58109 0.82199 0.8845 0.0
H294 H 0.5783 0.8329 0.9065 0.0
H295 H 0.55965 0.82344 0.87228 0.0
H296 H 0.58689 0.79831 0.88807 0.0
O297 O 0.58981 0.92167 0.8947 0.0
O298 O 0.63401 0.93592 0.87768 0.0
H299 H 0.68619 0.88179 0.8589 0.0
H300 H 0.69438 0.84274 0.86305 0.0
C301 C 0.68138 0.85926 0.85018 0.0
H302 H 0.68877 0.85845 0.8266 0.0
H303 H 0.68796 0.95505 0.84544 0.0
O304 O 0.53948 0.87542 0.88712 0.0
C305 C 0.61406 0.93601 0.89792 0.0
Co306 Co 0.86632 0.40137 0.08903 0.0
Co307 Co 0.83373 0.34586 0.06476 0.0
C308 C 0.80994 0.40764 0.05624 0.0
O309 O 0.83008 0.41886 0.07263 0.0
O310 O 0.80963 0.38004 0.05037 0.0
C311 C 0.88714 0.44868 0.13086 0.0
O312 O 0.86349 0.44582 0.14791 0.0
C313 C 0.78324 0.30593 0.06153 0.0
C314 C 0.80102 0.26822 0.03552 0.0
C315 C 0.77562 0.27877 0.04946 0.0
N316 N 0.81196 0.31124 0.05521 0.0
N317 N 0.8225 0.28872 0.03954 0.0
C318 C 0.76322 0.32733 0.07738 0.0
H319 H 0.74518 0.33446 0.06205 0.0
H320 H 0.77591 0.34699 0.08514 0.0
H321 H 0.75258 0.31654 0.09686 0.0
C322 C 0.87036 0.36388 0.14246 0.0
N323 N 0.85853 0.37018 0.11566 0.0
N324 N 0.84247 0.34754 0.10645 0.0
C325 C 0.84239 0.32655 0.12791 0.0
C326 C 0.86004 0.33632 0.15148 0.0
C327 C 0.89633 0.38028 0.1556 0.0
H328 H 0.90968 0.39088 0.13778 0.0
H329 H 0.88805 0.39746 0.17123 0.0
H330 H 0.9113 0.36519 0.16811 0.0
O331 O 0.89217 0.38655 0.05702 0.0
O332 O 0.87206 0.34399 0.04245 0.0
H333 H 0.83843 0.28395 0.10722 0.0
H334 H 0.82761 0.28449 0.14623 0.0
C335 C 0.82733 0.29706 0.12498 0.0
H336 H 0.80381 0.30044 0.1185 0.0
H337 H 0.84428 0.28741 0.03149 0.0
O338 O 0.88999 0.43286 0.1076 0.0
C339 C 0.8929 0.36313 0.04125 0.0
Co340 Co 0.44252 0.11871 0.86058 0.0
Co341 Co 0.38601 0.07802 0.85228 0.0
C342 C 0.44 0.07281 0.81306 0.0
O343 O 0.45364 0.09338 0.82676 0.0
O344 O 0.41398 0.06476 0.82085 0.0
C345 C 0.49336 0.15526 0.88278 0.0
O346 O 0.51015 0.17903 0.88057 0.0
C347 C 0.33227 0.07019 0.81823 0.0
C348 C 0.30709 0.03568 0.84245 0.0
C349 C 0.30571 0.05456 0.81806 0.0
N350 N 0.34835 0.06151 0.84187 0.0
N351 N 0.33331 0.04077 0.85629 0.0
C352 C 0.34306 0.09211 0.79556 0.0
H353 H 0.36772 0.09362 0.79597 0.0
H354 H 0.33393 0.11435 0.80085 0.0
H355 H 0.33539 0.08578 0.77291 0.0
C356 C 0.39752 0.16512 0.85946 0.0
N357 N 0.40558 0.1369 0.85407 0.0
N358 N 0.38179 0.1199 0.85431 0.0
C359 C 0.3579 0.13655 0.86138 0.0
C360 C 0.36703 0.16586 0.86464 0.0
C361 C 0.41914 0.19022 0.86246 0.0
H362 H 0.43597 0.18893 0.84439 0.0
H363 H 0.40765 0.21198 0.86122 0.0
H364 H 0.43089 0.18841 0.88416 0.0
O365 O 0.43814 0.09488 0.89848 0.0
O366 O 0.40028 0.06349 0.8914 0.0
H367 H 0.31859 0.13731 0.88949 0.0
H368 H 0.31298 0.12313 0.85245 0.0
C369 C 0.32872 0.12374 0.87151 0.0
H370 H 0.33187 0.10093 0.8801 0.0
H371 H 0.34083 0.03025 0.8756 0.0
O372 O 0.47406 0.15007 0.86272 0.0
C373 C 0.42148 0.07363 0.90737 0.0
Co374 Co 0.11275 0.58028 0.10816 0.0
Co375 Co 0.15006 0.63429 0.08773 0.0
C376 C 0.17173 0.57144 0.08178 0.0
O377 O 0.1502 0.56104 0.09686 0.0
O378 O 0.173 0.59876 0.07495 0.0
C379 C 0.08463 0.53524 0.14794 0.0
O380 O 0.1048 0.53934 0.16875 0.0
C381 C 0.20327 0.67147 0.09038 0.0
C382 C 0.18751 0.71328 0.07009 0.0
C383 C 0.21194 0.70025 0.08373 0.0
N384 N 0.17481 0.66795 0.08176 0.0
N385 N 0.16562 0.69287 0.0693 0.0
C386 C 0.2216 0.64757 0.10459 0.0
H387 H 0.21542 0.62557 0.09571 0.0
H388 H 0.21734 0.64737 0.12896 0.0
H389 H 0.24573 0.65124 0.1006 0.0
C390 C 0.10242 0.61938 0.15971 0.0
N391 N 0.11824 0.6114 0.13548 0.0
N392 N 0.13655 0.63302 0.12817 0.0
C393 C 0.13399 0.65492 0.14851 0.0
C394 C 0.11218 0.64702 0.16907 0.0
C395 C 0.07383 0.60475 0.16895 0.0
H396 H 0.0633 0.59353 0.14969 0.0
H397 H 0.07847 0.58833 0.18674 0.0
H398 H 0.05768 0.62112 0.17787 0.0
O399 O 0.09153 0.59614 0.07307 0.0
O400 O 0.1143 0.63848 0.06194 0.0
H401 H 0.1411 0.69709 0.12783 0.0
H402 H 0.14766 0.6969 0.16766 0.0
C403 C 0.15004 0.68398 0.14674 0.0
H404 H 0.17405 0.68001 0.14284 0.0
H405 H 0.14421 0.69616 0.06086 0.0
O406 O 0.08589 0.54972 0.1237 0.0
C407 C 0.09319 0.61999 0.058 0.0
H408 H 0.11393 0.29886 0.84791 0.0
H409 H 0.15291 0.36471 0.78927 0.0
H410 H 0.13354 0.33719 0.74537 0.0
H411 H 0.13244 0.23594 0.80199 0.0
H412 H 0.09885 0.21618 0.81158 0.0
H413 H 0.11494 0.24195 0.83768 0.0
H414 H 0.06462 0.27015 0.84018 0.0
H415 H 0.04853 0.24478 0.81365 0.0
H416 H 0.04816 0.28409 0.8063 0.0
H417 H 0.10807 0.30308 0.7085 0.0
H418 H 0.08467 0.26192 0.68091 0.0
H419 H 0.06683 0.21655 0.76438 0.0
C420 C 0.11883 0.30721 0.8258 0.0
C421 C 0.13499 0.33368 0.8217 0.0
C422 C 0.14051 0.34435 0.79259 0.0
C423 C 0.12953 0.32899 0.76769 0.0
C424 C 0.11341 0.30298 0.77255 0.0
C425 C 0.10853 0.29195 0.80088 0.0
C426 C 0.09176 0.26292 0.80018 0.0
C427 C 0.11063 0.23776 0.81364 0.0
C428 C 0.06147 0.26567 0.81601 0.0
C429 C 0.08796 0.25921 0.76696 0.0
C430 C 0.10017 0.28272 0.75139 0.0
C431 C 0.09898 0.28427 0.72042 0.0
C432 C 0.08593 0.26061 0.70493 0.0
C433 C 0.07498 0.23549 0.72044 0.0
C434 C 0.07523 0.23533 0.75187 0.0
H435 H 0.18624 0.91511 0.30619 0.0
H436 H 0.15196 0.8382 0.25922 0.0
H437 H 0.1825 0.85139 0.21527 0.0
H438 H 0.1912 0.96451 0.24544 0.0
H439 H 0.22616 0.98077 0.25663 0.0
H440 H 0.20133 0.96569 0.28432 0.0
H441 H 0.24324 0.93122 0.3038 0.0
H442 H 0.26837 0.94661 0.27655 0.0
H443 H 0.26235 0.90711 0.27804 0.0
H444 H 0.21473 0.87453 0.17569 0.0
H445 H 0.25213 0.90175 0.14564 0.0
H446 H 0.26912 0.96049 0.2202 0.0
C447 C 0.18564 0.90062 0.28697 0.0
C448 C 0.16655 0.87571 0.28602 0.0
C449 C 0.16605 0.85768 0.26017 0.0
C450 C 0.18334 0.86496 0.23517 0.0
C451 C 0.20146 0.89001 0.23664 0.0
C452 C 0.20327 0.90717 0.2621 0.0
C453 C 0.22543 0.93224 0.25831 0.0
C454 C 0.2101 0.9626 0.26135 0.0
C455 C 0.25139 0.9291 0.28049 0.0
C456 C 0.23555 0.92673 0.22659 0.0
C457 C 0.22112 0.9025 0.21434 0.0
C458 C 0.22628 0.89343 0.18508 0.0
C459 C 0.24728 0.90911 0.16813 0.0
C460 C 0.26303 0.93324 0.18068 0.0
C461 C 0.25701 0.94225 0.21016 0.0
H462 H 0.93841 0.74715 0.73425 0.0
H463 H 0.85477 0.7788 0.69781 0.0
H464 H 0.82713 0.74996 0.73549 0.0
H465 H 0.91218 0.67223 0.7522 0.0
H466 H 0.93403 0.67039 0.78586 0.0
H467 H 0.94688 0.69224 0.75477 0.0
H468 H 0.95039 0.73834 0.78924 0.0
H469 H 0.93719 0.71674 0.82031 0.0
H470 H 0.91789 0.75017 0.80969 0.0
H471 H 0.80892 0.72097 0.78005 0.0
H472 H 0.80167 0.68935 0.8249 0.0
H473 H 0.8971 0.67604 0.83064 0.0
C474 C 0.91427 0.74751 0.73393 0.0
C475 C 0.89866 0.76465 0.71291 0.0
C476 C 0.86711 0.76507 0.71323 0.0
C477 C 0.85122 0.74903 0.73474 0.0
C478 C 0.86732 0.73261 0.75549 0.0
C479 C 0.89812 0.73136 0.75495 0.0
C480 C 0.91015 0.71233 0.77987 0.0
C481 C 0.92678 0.68519 0.76742 0.0
C482 C 0.93007 0.73049 0.80102 0.0
C483 C 0.88135 0.70347 0.79478 0.0
C484 C 0.85684 0.71548 0.78059 0.0
C485 C 0.8279 0.71109 0.79112 0.0
C486 C 0.82397 0.69335 0.81653 0.0
C487 C 0.84884 0.68024 0.83054 0.0
C488 C 0.87779 0.68562 0.8198 0.0
H489 H 0.75202 0.06514 0.22179 0.0
H490 H 0.66933 0.09364 0.26332 0.0
H491 H 0.69757 0.11632 0.30402 0.0
H492 H 0.78691 0.04434 0.29176 0.0
H493 H 0.82354 0.05553 0.27966 0.0
H494 H 0.79665 0.04267 0.25279 0.0
H495 H 0.80298 0.09151 0.22294 0.0
H496 H 0.82969 0.10464 0.24985 0.0
H497 H 0.79718 0.12655 0.24145 0.0
H498 H 0.7355 0.13892 0.3391 0.0
H499 H 0.77984 0.15437 0.36822 0.0
H500 H 0.83653 0.10455 0.30803 0.0
C501 C 0.73968 0.07611 0.23938 0.0
C502 C 0.70829 0.07879 0.23813 0.0
C503 C 0.69327 0.09275 0.26221 0.0
C504 C 0.70919 0.10536 0.28596 0.0
C505 C 0.7401 0.10304 0.28591 0.0
C506 C 0.75514 0.08816 0.26359 0.0
C507 C 0.78835 0.0876 0.26944 0.0
C508 C 0.79951 0.05563 0.27367 0.0
C509 C 0.80555 0.10353 0.24443 0.0
C510 C 0.78964 0.10491 0.2983 0.0
C511 C 0.76164 0.11393 0.30731 0.0
C512 C 0.7575 0.1316 0.33252 0.0
C513 C 0.78271 0.1402 0.34892 0.0
C514 C 0.8115 0.13074 0.34028 0.0
C515 C 0.81483 0.11253 0.31489 0.0
H516 H 0.09291 0.70426 0.1615 0.0
H517 H 0.09615 0.63228 0.22557 0.0
H518 H 0.06664 0.66231 0.26109 0.0
H519 H 0.10482 0.76146 0.21516 0.0
H520 H 0.08129 0.78781 0.19625 0.0
H521 H 0.09996 0.7593 0.17531 0.0
H522 H 0.04894 0.74248 0.15394 0.0
H523 H 0.03006 0.77049 0.17553 0.0
H524 H 0.0194 0.7321 0.17915 0.0
H525 H 0.03883 0.70039 0.28999 0.0
H526 H 0.02167 0.74675 0.3138 0.0
H527 H 0.03911 0.79494 0.23206 0.0
C528 C 0.08783 0.69499 0.18318 0.0
C529 C 0.09693 0.66609 0.19103 0.0
C530 C 0.08927 0.65445 0.21929 0.0
C531 C 0.07237 0.6712 0.23942 0.0
C532 C 0.06352 0.69957 0.2309 0.0
C533 C 0.07145 0.7116 0.2037 0.0
C534 C 0.06153 0.74356 0.20111 0.0
C535 C 0.0885 0.76425 0.19672 0.0
C536 C 0.03862 0.74736 0.17593 0.0
C537 C 0.04727 0.74783 0.23139 0.0
C538 C 0.04805 0.72193 0.24793 0.0
C539 C 0.03789 0.72074 0.27724 0.0
C540 C 0.02812 0.74706 0.29052 0.0
C541 C 0.02906 0.7741 0.27459 0.0
C542 C 0.03755 0.77432 0.24435 0.0
H543 H 0.79543 0.83911 0.6584 0.0
H544 H 0.8197 0.92473 0.6219 0.0
H545 H 0.78405 0.94915 0.65595 0.0
H546 H 0.71487 0.85659 0.67381 0.0
H547 H 0.71538 0.8356 0.70801 0.0
H548 H 0.73876 0.82463 0.67721 0.0
H549 H 0.785 0.82707 0.71171 0.0
H550 H 0.76195 0.83842 0.74247 0.0
H551 H 0.79318 0.86101 0.73132 0.0
H552 H 0.75268 0.96465 0.69939 0.0
H553 H 0.72402 0.96984 0.74627 0.0
H554 H 0.71943 0.87416 0.75424 0.0
C555 C 0.79228 0.86289 0.65687 0.0
C556 C 0.80967 0.88004 0.63714 0.0
C557 C 0.80587 0.91116 0.63623 0.0
C558 C 0.78586 0.92522 0.65567 0.0
C559 C 0.76975 0.90776 0.67566 0.0
C560 C 0.77237 0.8772 0.67607 0.0
C561 C 0.75456 0.86377 0.70141 0.0
C562 C 0.72939 0.84398 0.68938 0.0
C563 C 0.77489 0.84657 0.72299 0.0
C564 C 0.74229 0.89159 0.71577 0.0
C565 C 0.75124 0.91673 0.70053 0.0
C566 C 0.74491 0.94512 0.71108 0.0
C567 C 0.72883 0.94787 0.73776 0.0
C568 C 0.71907 0.9224 0.75337 0.0
C569 C 0.7258 0.89395 0.74215 0.0
H570 H 0.93328 0.20075 0.23859 0.0
H571 H 0.94671 0.26125 0.31268 0.0
H572 H 0.92369 0.30154 0.28365 0.0
H573 H 0.95106 0.25745 0.18054 0.0
H574 H 0.92456 0.24175 0.15479 0.0
H575 H 0.94334 0.21821 0.18124 0.0
H576 H 0.89201 0.19973 0.20019 0.0
H577 H 0.87303 0.22392 0.17453 0.0
H578 H 0.86521 0.22624 0.21389 0.0
H579 H 0.8922 0.33249 0.24984 0.0
H580 H 0.86586 0.35674 0.20808 0.0
H581 H 0.88029 0.27873 0.15323 0.0
C582 C 0.93207 0.22263 0.24847 0.0
C583 C 0.94039 0.22756 0.27843 0.0
C584 C 0.93892 0.25659 0.29037 0.0
C585 C 0.92613 0.27968 0.27396 0.0
C586 C 0.91612 0.27356 0.24526 0.0
C587 C 0.9201 0.24613 0.23211 0.0
C588 C 0.90805 0.24569 0.2006 0.0
C589 C 0.93326 0.24048 0.17795 0.0
C590 C 0.8831 0.22252 0.19712 0.0
C591 C 0.89588 0.2769 0.19849 0.0
C592 C 0.90034 0.29239 0.2247 0.0
C593 C 0.88926 0.3209 0.2289 0.0
C594 C 0.87422 0.33438 0.2052 0.0
C595 C 0.87111 0.31963 0.17752 0.0
C596 C 0.88182 0.29039 0.17428 0.0
H597 H 0.19676 0.13987 0.7067 0.0
H598 H 0.16548 0.05383 0.67709 0.0
H599 H 0.19823 0.02931 0.71398 0.0
H600 H 0.27293 0.11876 0.71801 0.0
H601 H 0.27789 0.14148 0.75072 0.0
H602 H 0.25136 0.15219 0.7226 0.0
H603 H 0.2096 0.15385 0.76254 0.0
H604 H 0.23603 0.14313 0.79078 0.0
H605 H 0.20264 0.12159 0.78524 0.0
H606 H 0.23438 0.01426 0.75412 0.0
H607 H 0.27375 0.00978 0.79261 0.0
H608 H 0.28132 0.1056 0.79585 0.0
C609 C 0.19694 0.11588 0.70809 0.0
C610 C 0.17902 0.0986 0.68903 0.0
C611 C 0.17952 0.06731 0.69133 0.0
C612 C 0.19783 0.05325 0.7123 0.0
C613 C 0.21541 0.07086 0.73078 0.0
C614 C 0.21522 0.1015 0.72882 0.0
C615 C 0.2368 0.11521 0.7508 0.0
C616 C 0.26119 0.13295 0.73455 0.0
C617 C 0.22027 0.13459 0.7737 0.0
C618 C 0.24936 0.08753 0.76515 0.0
C619 C 0.23654 0.06218 0.75354 0.0
C620 C 0.24465 0.03395 0.76333 0.0
C621 C 0.2669 0.0316 0.7852 0.0
C622 C 0.28094 0.05729 0.7966 0.0
C623 C 0.27158 0.08555 0.78684 0.0
H624 H 0.33079 0.82971 0.07158 0.0
H625 H 0.3641 0.80213 0.1578 0.0
H626 H 0.33184 0.75754 0.15597 0.0
H627 H 0.2576 0.81198 0.08426 0.0
H628 H 0.2493 0.79896 0.04716 0.0
H629 H 0.27848 0.82573 0.0528 0.0
H630 H 0.31632 0.79111 0.02642 0.0
H631 H 0.28715 0.76428 0.02034 0.0
H632 H 0.32084 0.75353 0.03935 0.0
H633 H 0.29062 0.72141 0.14847 0.0
H634 H 0.24542 0.69388 0.13465 0.0
H635 H 0.23987 0.74357 0.052 0.0
C636 C 0.3318 0.8137 0.08956 0.0
C637 C 0.34984 0.8188 0.1147 0.0
C638 C 0.35051 0.79806 0.13826 0.0
C639 C 0.33231 0.77283 0.13738 0.0
C640 C 0.31396 0.76879 0.11263 0.0
C641 C 0.31384 0.78844 0.08895 0.0
C642 C 0.29023 0.78042 0.06627 0.0
C643 C 0.26757 0.80578 0.06242 0.0
C644 C 0.3045 0.77182 0.03632 0.0
C645 C 0.27634 0.75384 0.08141 0.0
C646 C 0.29053 0.74734 0.10797 0.0
C647 C 0.28001 0.7255 0.1272 0.0
C648 C 0.25444 0.70973 0.11898 0.0
C649 C 0.23991 0.71561 0.09157 0.0
C650 C 0.25102 0.73806 0.07269 0.0
H651 H 0.21748 0.24935 0.90623 0.0
H652 H 0.26531 0.29275 0.97789 0.0
H653 H 0.31218 0.2684 0.96147 0.0
H654 H 0.25625 0.18023 0.9073 0.0
H655 H 0.25629 0.17613 0.86732 0.0
H656 H 0.22694 0.19662 0.88531 0.0
H657 H 0.23881 0.24214 0.85197 0.0
H658 H 0.26841 0.22181 0.8341 0.0
H659 H 0.27609 0.25705 0.85149 0.0
H660 H 0.35232 0.23648 0.93918 0.0
H661 H 0.38362 0.20076 0.91182 0.0
H662 H 0.31058 0.183 0.85108 0.0
C663 C 0.23783 0.25334 0.91859 0.0
C664 C 0.23812 0.2722 0.94359 0.0
C665 C 0.26499 0.27788 0.95892 0.0
C666 C 0.29155 0.26432 0.94966 0.0
C667 C 0.29064 0.24586 0.92471 0.0
C668 C 0.26452 0.24057 0.90925 0.0
C669 C 0.26957 0.22029 0.88289 0.0
C670 C 0.25118 0.19162 0.88591 0.0
C671 C 0.26282 0.23629 0.85337 0.0
C672 C 0.30251 0.21437 0.88633 0.0
C673 C 0.31424 0.22925 0.91061 0.0
C674 C 0.34364 0.22532 0.91966 0.0
C675 C 0.36136 0.20524 0.90375 0.0
C676 C 0.34971 0.18984 0.87882 0.0
C677 C 0.32011 0.19493 0.86975 0.0
H678 H 0.75282 0.70642 0.90787 0.0
H679 H 0.73675 0.72772 0.00077 0.0
H680 H 0.69566 0.76125 0.9856 0.0
H681 H 0.74374 0.77759 0.88095 0.0
H682 H 0.72629 0.76681 0.84641 0.0
H683 H 0.75154 0.74181 0.86477 0.0
H684 H 0.71077 0.70108 0.86571 0.0
H685 H 0.68538 0.72589 0.84708 0.0
H686 H 0.67496 0.70911 0.88206 0.0
H687 H 0.65951 0.79501 0.95996 0.0
H688 H 0.63174 0.82796 0.92588 0.0
H689 H 0.67217 0.78454 0.84974 0.0
C690 C 0.74001 0.71719 0.92515 0.0
C691 C 0.74725 0.71382 0.95557 0.0
C692 C 0.73104 0.7297 0.97738 0.0
C693 C 0.70772 0.74865 0.96897 0.0
C694 C 0.70124 0.75152 0.93868 0.0
C695 C 0.71697 0.73625 0.91712 0.0
C696 C 0.70758 0.74516 0.886 0.0
C697 C 0.73385 0.75864 0.86852 0.0
C698 C 0.69385 0.71873 0.86923 0.0
C699 C 0.68436 0.76826 0.89333 0.0
C700 C 0.6808 0.77136 0.92385 0.0
C701 C 0.6617 0.79242 0.93607 0.0
C702 C 0.64595 0.81089 0.91659 0.0
C703 C 0.64948 0.80812 0.88534 0.0
C704 C 0.6688 0.78653 0.87357 0.0
H705 H 0.65694 0.1862 0.14005 0.0
H706 H 0.62399 0.15384 0.05529 0.0
H707 H 0.6552 0.19052 0.02884 0.0
H708 H 0.66644 0.26611 0.1176 0.0
H709 H 0.70027 0.26939 0.13901 0.0
H710 H 0.67109 0.2447 0.15123 0.0
H711 H 0.70878 0.20114 0.15203 0.0
H712 H 0.73795 0.22552 0.13961 0.0
H713 H 0.72949 0.19242 0.1187 0.0
H714 H 0.69616 0.22401 0.01175 0.0
H715 H 0.7417 0.25457 0.00546 0.0
H716 H 0.7479 0.26477 0.10129 0.0
C717 C 0.65563 0.18766 0.11597 0.0
C718 C 0.63784 0.16777 0.09962 0.0
C719 C 0.63701 0.16951 0.06814 0.0
C720 C 0.65475 0.19015 0.05296 0.0
C721 C 0.67292 0.20889 0.0697 0.0
C722 C 0.6732 0.2081 0.10055 0.0
C723 C 0.6969 0.22832 0.1132 0.0
C724 C 0.68282 0.25364 0.13133 0.0
C725 C 0.71962 0.2108 0.13197 0.0
C726 C 0.71067 0.23974 0.08466 0.0
C727 C 0.69638 0.22851 0.05978 0.0
C728 C 0.70701 0.23364 0.031 0.0
C729 C 0.73286 0.2508 0.02762 0.0
C730 C 0.74745 0.26264 0.05286 0.0
C731 C 0.73621 0.25709 0.08163 0.0
H732 H 0.13781 0.91551 0.50339 0.0
H733 H 0.18366 0.93815 0.42129 0.0
H734 H 0.19769 0.98654 0.4427 0.0
H735 H 0.10383 0.97976 0.51219 0.0
H736 H 0.1061 0.98218 0.55224 0.0
H737 H 0.10693 0.94658 0.53443 0.0
H738 H 0.15724 0.9343 0.55994 0.0
H739 H 0.15638 0.96982 0.57841 0.0
H740 H 0.18821 0.95951 0.55618 0.0
H741 H 0.19613 0.03616 0.46799 0.0
H742 H 0.18185 0.08105 0.49642 0.0
H743 H 0.13751 0.02544 0.56182 0.0
C744 C 0.15194 0.93007 0.49038 0.0
C745 C 0.15956 0.92308 0.46069 0.0
C746 C 0.17763 0.94297 0.44418 0.0
C747 C 0.18575 0.97055 0.45617 0.0
C748 C 0.17607 0.97763 0.48483 0.0
C749 C 0.16008 0.95765 0.50198 0.0
C750 C 0.14865 0.97187 0.53028 0.0
C751 C 0.11437 0.96999 0.53236 0.0
C752 C 0.16352 0.95805 0.55784 0.0
C753 C 0.15906 0.00337 0.52549 0.0
C754 C 0.17533 0.00628 0.49949 0.0
C755 C 0.18417 0.03403 0.48884 0.0
C756 C 0.17584 0.05942 0.50502 0.0
C757 C 0.15861 0.05675 0.53133 0.0
C758 C 0.15092 0.02827 0.54193 0.0
H759 H -0.00059 0.81881 0.56292 0.0
H760 H 0.92617 0.77913 0.51475 0.0
H761 H 0.96086 0.76291 0.47522 0.0
H762 H 0.02616 0.8536 0.50595 0.0
H763 H 0.0654 0.85099 0.51422 0.0
H764 H 0.03874 0.84846 0.5438 0.0
H765 H 0.06038 0.79759 0.55957 0.0
H766 H 0.08747 0.80006 0.52992 0.0
H767 H 0.06339 0.76815 0.53253 0.0
H768 H -0.00131 0.76327 0.43604 0.0
H769 H 0.03394 0.78371 0.39943 0.0
H770 H 0.08308 0.82638 0.47072 0.0
C771 C 0.99124 0.80498 0.54494 0.0
C772 C 0.96051 0.79917 0.54217 0.0
C773 C 0.94986 0.78287 0.51753 0.0
C774 C 0.96947 0.77357 0.49505 0.0
C775 C -0.00044 0.78121 0.49738 0.0
C776 C 0.01046 0.79653 0.52184 0.0
C777 C 0.04155 0.80839 0.51591 0.0
C778 C 0.043 0.84234 0.52019 0.0
C779 C 0.06456 0.79259 0.53565 0.0
C780 C 0.04536 0.79968 0.48349 0.0
C781 C 0.0215 0.78282 0.47367 0.0
C782 C 0.01785 0.77575 0.44364 0.0
C783 C 0.03799 0.78754 0.42294 0.0
C784 C 0.06127 0.80661 0.43228 0.0
C785 C 0.06593 0.81131 0.46306 0.0
H786 H 0.85059 0.06865 0.49077 0.0
H787 H 0.94233 0.0981 0.49938 0.0
H788 H 0.95891 0.0462 0.50286 0.0
H789 H 0.85863 0.00777 0.54512 0.0
H790 H 0.83328 0.98395 0.52514 0.0
H791 H 0.82881 0.0236 0.5234 0.0
H792 H 0.83112 0.02072 0.46567 0.0
H793 H 0.83656 0.98116 0.4673 0.0
H794 H 0.86315 0.00417 0.44798 0.0
H795 H 0.96622 0.99177 0.49886 0.0
H796 H 0.96319 0.93769 0.50484 0.0
H797 H 0.86648 0.94285 0.50435 0.0
C798 C 0.87407 0.06409 0.49404 0.0
C799 C 0.89517 0.0873 0.49468 0.0
C800 C 0.92572 0.08066 0.49907 0.0
C801 C 0.93544 0.05125 0.50062 0.0
C802 C 0.91426 0.02885 0.49838 0.0
C803 C 0.88412 0.03483 0.49651 0.0
C804 C 0.86597 0.0065 0.49676 0.0
C805 C 0.84547 0.00539 0.52424 0.0
C806 C 0.84815 0.00294 0.46769 0.0
C807 C 0.89071 0.98374 0.49879 0.0
C808 C 0.91838 -0.00282 0.49869 0.0
C809 C 0.9447 0.98093 0.49948 0.0
C810 C 0.94269 0.95016 0.50262 0.0
C811 C 0.91455 0.93609 0.50537 0.0
C812 C 0.88826 0.95304 0.50241 0.0
H813 H 0.99749 0.17676 0.42678 0.0
H814 H 0.92765 0.22157 0.47576 0.0
H815 H 0.96352 0.23358 0.51576 0.0
H816 H 0.02034 0.13836 0.48338 0.0
H817 H 0.05965 0.13747 0.47508 0.0
H818 H 0.03333 0.14278 0.44558 0.0
H819 H 0.05945 0.19171 0.4303 0.0
H820 H 0.08633 0.18639 0.45971 0.0
H821 H 0.06531 0.22039 0.45771 0.0
H822 H 0.00202 0.22988 0.55479 0.0
H823 H 0.03691 0.20757 0.59054 0.0
H824 H 0.08078 0.16087 0.5182 0.0
C825 C 0.99029 0.19074 0.44506 0.0
C826 C 0.9601 0.19902 0.4479 0.0
C827 C 0.95089 0.21571 0.47293 0.0
C828 C 0.97118 0.22263 0.49569 0.0
C829 C 0.00046 0.21237 0.49323 0.0
C830 C 0.01002 0.19678 0.4684 0.0
C831 C 0.0399 0.18208 0.47395 0.0
C832 C 0.03815 0.1482 0.46925 0.0
C833 C 0.06419 0.19599 0.45425 0.0
C834 C 0.04461 0.18993 0.50642 0.0
C835 C 0.02231 0.20849 0.51673 0.0
C836 C 0.01994 0.21592 0.5468 0.0
C837 C 0.03988 0.20299 0.56701 0.0
C838 C 0.06153 0.18227 0.5572 0.0
C839 C 0.06475 0.17688 0.52634 0.0
H840 H 0.49335 0.17346 0.94038 0.0
H841 H 0.49987 0.09527 0.8846 0.0
H842 H 0.50121 0.06349 0.92978 0.0
H843 H 0.54459 0.1479 0.99632 0.0
H844 H 0.52458 0.16505 0.0266 0.0
H845 H 0.52286 0.1809 0.98982 0.0
H846 H 0.46508 0.17767 0.99153 0.0
H847 H 0.46675 0.16126 0.02812 0.0
H848 H 0.44749 0.14238 0.9984 0.0
H849 H 0.49921 0.0407 0.9809 0.0
H850 H 0.50459 0.02833 0.03433 0.0
H851 H 0.50397 0.12209 0.05615 0.0
C852 C 0.495 0.14963 0.9378 0.0
C853 C 0.49556 0.13649 0.90933 0.0
C854 C 0.49868 0.10544 0.90647 0.0
C855 C 0.49939 0.08733 0.93189 0.0
C856 C 0.4975 0.10088 0.95978 0.0
C857 C 0.49602 0.13134 0.96288 0.0
C858 C 0.49625 0.14047 0.99533 0.0
C859 C 0.52371 0.1597 0.00243 0.0
C860 C 0.46716 0.15638 0.00383 0.0
C861 C 0.49823 0.11039 0.01002 0.0
C862 C 0.49826 0.08782 0.98918 0.0
C863 C 0.49969 0.05812 0.99746 0.0
C864 C 0.50262 0.05136 0.02782 0.0
C865 C 0.5055 0.0743 0.0492 0.0
C866 C 0.50203 0.1041 0.04025 0.0
H867 H 0.18782 0.57156 0.02412 0.0
H868 H 0.19762 0.52259 0.10636 0.0
H869 H 0.21721 0.47976 0.07838 0.0
H870 H 0.15299 0.52106 0.99003 0.0
H871 H 0.16754 0.52554 0.95281 0.0
H872 H 0.16848 0.55607 0.97819 0.0
H873 H 0.22556 0.56086 0.97132 0.0
H874 H 0.22479 0.5303 0.94534 0.0
H875 H 0.24916 0.52906 0.97725 0.0
H876 H 0.22029 0.43904 0.04284 0.0
H877 H 0.20269 0.40409 0.00463 0.0
H878 H 0.18628 0.47746 0.9444 0.0
C879 C 0.19602 0.55244 0.0362 0.0
C880 C 0.19196 0.55035 0.06725 0.0
C881 C 0.20121 0.52461 0.08256 0.0
C882 C 0.21248 0.50027 0.06678 0.0
C883 C 0.21393 0.50194 0.03572 0.0
C884 C 0.20612 0.52758 0.02053 0.0
C885 C 0.20193 0.52159 0.98754 0.0
C886 C 0.1709 0.53161 0.97657 0.0
C887 C 0.22686 0.53632 0.96929 0.0
C888 C 0.20512 0.48819 0.98717 0.0
C889 C 0.21381 0.47748 0.01476 0.0
C890 C 0.21428 0.44717 0.02096 0.0
C891 C 0.2041 0.42744 -0.0009 0.0
C892 C 0.19284 0.4382 0.97169 0.0
C893 C 0.1949 0.46873 0.96516 0.0
H894 H 0.52135 0.84151 0.06085 0.0
H895 H 0.43828 0.88817 0.07541 0.0
H896 H 0.43262 0.89487 0.02094 0.0
H897 H 0.54906 0.88327 0.00415 0.0
H898 H 0.56462 0.85285 0.98326 0.0
H899 H 0.56002 0.84966 0.02291 0.0
H900 H 0.52847 0.80197 0.01541 0.0
H901 H 0.53289 0.80517 0.97558 0.0
H902 H 0.49611 0.80304 0.99162 0.0
H903 H 0.44159 0.90377 0.96546 0.0
H904 H 0.46226 0.91067 0.91468 0.0
H905 H 0.53558 0.8521 0.93705 0.0
C906 C 0.5017 0.85285 0.05272 0.0
C907 C 0.48092 0.86565 0.07251 0.0
C908 C 0.45535 0.87981 0.06078 0.0
C909 C 0.45168 0.88316 0.02983 0.0
C910 C 0.47333 0.87128 0.01099 0.0
C911 C 0.49745 0.85574 0.02208 0.0
C912 C 0.5183 0.84601 0.99754 0.0
C913 C 0.54984 0.85872 0.00225 0.0
C914 C 0.51896 0.81203 0.99488 0.0
C915 C 0.50307 0.85991 0.971 0.0
C916 C 0.47704 0.87426 0.979 0.0
C917 C 0.46145 0.89193 0.95877 0.0
C918 C 0.47332 0.89571 0.92999 0.0
C919 C 0.50024 0.88151 0.92174 0.0
C920 C 0.51452 0.86258 0.94229 0.0
H921 H 0.8048 0.56482 -0.00116 0.0
H922 H 0.79913 0.52323 0.91207 0.0
H923 H 0.77684 0.47873 0.93498 0.0
H924 H 0.83489 0.50904 0.03175 0.0
H925 H 0.81727 0.51224 0.06777 0.0
H926 H 0.82052 0.54421 0.04446 0.0
H927 H 0.76335 0.55199 0.04714 0.0
H928 H 0.75997 0.51962 0.07055 0.0
H929 H 0.73859 0.52228 0.03664 0.0
H930 H 0.7686 0.43559 0.9667 0.0
H931 H 0.78252 0.3971 0.00289 0.0
H932 H 0.79626 0.46463 0.07022 0.0
C933 C 0.79735 0.54686 0.98464 0.0
C934 C 0.80318 0.5474 0.9538 0.0
C935 C 0.79452 0.52318 0.93579 0.0
C936 C 0.78154 0.49797 0.94861 0.0
C937 C 0.77761 0.49727 0.97949 0.0
C938 C 0.78529 0.5212 0.99732 0.0
C939 C 0.78604 0.51259 0.02994 0.0
C940 C 0.81648 0.51991 0.04425 0.0
C941 C 0.76045 0.5275 0.04707 0.0
C942 C 0.78092 0.4795 0.02735 0.0
C943 C 0.77427 0.47139 0.99832 0.0
C944 C 0.77301 0.44169 0.98962 0.0
C945 C 0.78093 0.41989 0.01039 0.0
C946 C 0.79075 0.42806 0.03921 0.0
C947 C 0.78864 0.45793 0.04832 0.0
H948 H 0.93213 0.46759 0.09589 0.0
H949 H 0.90224 0.46649 0.18788 0.0
H950 H 0.95127 0.48672 0.20376 0.0
H951 H 0.00499 0.4425 0.10995 0.0
H952 H 0.02129 0.46494 0.08093 0.0
H953 H 0.98323 0.45267 0.07781 0.0
H954 H 0.96613 0.50741 0.07132 0.0
H955 H 0.00418 0.51953 0.0746 0.0
H956 H 0.97619 0.53441 0.09923 0.0
H957 H 0.00571 0.50506 0.20884 0.0
H958 H 0.05713 0.52441 0.20191 0.0
H959 H 0.04945 0.50981 0.10665 0.0
C960 C 0.93562 0.472 0.11938 0.0
C961 C 0.91347 0.46556 0.14068 0.0
C962 C 0.9189 0.47164 0.17118 0.0
C963 C 0.94674 0.4828 0.18039 0.0
C964 C 0.9686 0.48766 0.15874 0.0
C965 C 0.96302 0.48275 0.12883 0.0
C966 C 0.98995 0.48884 0.10972 0.0
C967 C 0.0005 0.46055 0.09367 0.0
C968 C 0.98372 0.51405 0.08742 0.0
C969 C 0.01172 0.49821 0.13344 0.0
C970 C -0.00068 0.49734 0.16166 0.0
C971 C 0.01558 0.50576 0.18683 0.0
C972 C 0.04482 0.51639 0.18277 0.0
C973 C 0.05713 0.51846 0.15377 0.0
C974 C 0.04059 0.50841 0.1291 0.0
H975 H 0.93084 0.48832 0.87728 0.0
H976 H 0.94677 0.57916 0.84961 0.0
H977 H -0.00139 0.56647 0.83704 0.0
H978 H 0.99384 0.47816 0.91428 0.0
H979 H 0.00079 0.44029 0.90338 0.0
H980 H 0.96342 0.45435 0.90336 0.0
H981 H 0.95759 0.43974 0.84774 0.0
H982 H 0.99505 0.42527 0.8478 0.0
H983 H 0.98433 0.45285 0.82076 0.0
H984 H 0.05101 0.54708 0.83909 0.0
H985 H 0.09802 0.52118 0.8518 0.0
H986 H 0.04712 0.44272 0.87537 0.0
C987 C 0.94488 0.50523 0.86744 0.0
C988 C 0.93479 0.53467 0.86458 0.0
C989 C 0.95395 0.55635 0.85195 0.0
C990 C 0.98349 0.54937 0.84467 0.0
C991 C 0.99331 0.52046 0.84939 0.0
C992 C 0.97431 0.49854 0.85976 0.0
C993 C 0.99097 0.47012 0.86603 0.0
C994 C 0.98702 0.46021 0.89869 0.0
C995 C 0.98142 0.44555 0.84427 0.0
C996 C 0.0225 0.48018 0.85982 0.0
C997 C 0.0235 0.50908 0.84971 0.0
C998 C 0.05051 0.52412 0.84611 0.0
C999 C 0.07709 0.50933 0.85349 0.0
C1000 C 0.07627 0.47997 0.86455 0.0
C1001 C 0.04862 0.46511 0.86677 0.0
H1002 H 0.41373 0.99231 0.20159 0.0
H1003 H 0.46214 0.91221 0.22195 0.0
H1004 H 0.50116 0.9414 0.24646 0.0
H1005 H 0.46144 0.02422 0.17027 0.0
H1006 H 0.45811 0.06228 0.18233 0.0
H1007 H 0.42683 0.03824 0.18529 0.0
H1008 H 0.42281 0.04891 0.24169 0.0
H1009 H 0.45425 0.07371 0.23882 0.0
H1010 H 0.45474 0.04384 0.26551 0.0
H1011 H 0.54244 0.97483 0.24478 0.0
H1012 H 0.57813 0.00601 0.21758 0.0
H1013 H 0.50728 0.06687 0.19483 0.0
C1014 C 0.43154 0.9811 0.2133 0.0
C1015 C 0.43524 0.95031 0.20987 0.0
C1016 C 0.45898 0.9359 0.22451 0.0
C1017 C 0.48128 0.95247 0.23855 0.0
C1018 C 0.47965 0.9834 0.23743 0.0
C1019 C 0.45471 -0.00227 0.22595 0.0
C1020 C 0.46158 0.02995 0.21906 0.0
C1021 C 0.45147 0.03909 0.18736 0.0
C1022 C 0.44753 0.0503 0.24269 0.0
C1023 C 0.49517 0.0296 0.22227 0.0
C1024 C 0.5049 0.00349 0.23536 0.0
C1025 C 0.53507 0.99571 0.23546 0.0
C1026 C 0.55531 0.01351 0.21979 0.0
C1027 C 0.54512 0.03847 0.20377 0.0
C1028 C 0.51531 0.04775 0.20699 0.0
H1029 H 0.43052 0.01513 0.79941 0.0
H1030 H 0.48853 0.08937 0.78017 0.0
H1031 H 0.52534 0.05539 0.75827 0.0
H1032 H 0.47783 0.97597 0.83099 0.0
H1033 H 0.46755 0.93941 0.8183 0.0
H1034 H 0.44046 0.96834 0.8182 0.0
H1035 H 0.43109 0.96023 0.76185 0.0
H1036 H 0.45827 0.93075 0.7618 0.0
H1037 H 0.46187 0.96121 0.73603 0.0
H1038 H 0.56151 0.0156 0.75652 0.0
H1039 H 0.59267 0.9757 0.77692 0.0
H1040 H 0.51332 0.92536 0.79864 0.0
C1041 C 0.4502 0.02426 0.78888 0.0
C1042 C 0.45677 0.05471 0.79142 0.0
C1043 C 0.48308 0.06603 0.77835 0.0
C1044 C 0.50405 0.04683 0.76564 0.0
C1045 C 0.49837 0.01639 0.76617 0.0
C1046 C 0.47169 0.00514 0.77699 0.0
C1047 C 0.47376 0.97201 0.78225 0.0
C1048 C 0.46441 0.96351 0.81432 0.0
C1049 C 0.45515 0.95505 0.75909 0.0
C1050 C 0.50673 0.96729 0.77691 0.0
C1051 C 0.52018 0.99267 0.76587 0.0
C1052 C 0.55114 0.99532 0.76422 0.0
C1053 C 0.56876 0.97251 0.776 0.0
C1054 C 0.5553 0.94766 0.78974 0.0
C1055 C 0.5241 0.94416 0.78817 0.0
H1056 H 0.02372 0.05383 0.58456 0.0
H1057 H 0.03736 0.05895 0.68012 0.0
H1058 H 0.01072 0.01122 0.6865 0.0
H1059 H 0.94816 0.02202 0.59108 0.0
H1060 H 0.95179 -0.0012 0.55873 0.0
H1061 H 0.97107 0.03386 0.56027 0.0
H1062 H 0.02177 0.00892 0.55094 0.0
H1063 H 0.00347 0.97356 0.5478 0.0
H1064 H 0.03338 0.97843 0.57421 0.0
H1065 H 0.98811 0.96028 0.68139 0.0
H1066 H 0.96434 0.91316 0.66633 0.0
H1067 H 0.96263 0.94334 0.57436 0.0
C1068 C 0.02059 0.04507 0.60684 0.0
C1069 C 0.03251 0.05978 0.63189 0.0
C1070 C 0.02805 0.04797 0.66076 0.0
C1071 C 0.01317 0.02086 0.66453 0.0
C1072 C 0.00236 0.00642 0.63925 0.0
C1073 C 0.00516 0.01851 0.61105 0.0
C1074 C 0.99105 -0.00114 0.58764 0.0
C1075 C 0.96393 0.01432 0.57358 0.0
C1076 C 0.01379 0.98938 0.56376 0.0
C1077 C 0.98153 0.97296 0.60681 0.0
C1078 C 0.9881 0.97777 0.63653 0.0
C1079 C 0.98243 0.95643 0.65826 0.0
C1080 C 0.96917 0.92966 0.64945 0.0
C1081 C 0.9616 0.9246 0.61919 0.0
C1082 C 0.96801 0.94659 0.59769 0.0
H1083 H 0.0224 0.94789 0.3461 0.0
H1084 H 0.05557 0.93949 0.43661 0.0
H1085 H 0.02803 0.98469 0.45103 0.0
H1086 H 0.02941 0.02672 0.34253 0.0
H1087 H 0.99628 0.032 0.32044 0.0
H1088 H 0.01691 -0.00213 0.31764 0.0
H1089 H 0.96924 0.96805 0.33068 0.0
H1090 H 0.94844 0.00211 0.33347 0.0
H1091 H 0.9491 0.9766 0.3644 0.0
H1092 H 0.99702 0.03045 0.45566 0.0
H1093 H 0.96733 0.07615 0.44929 0.0
H1094 H 0.95651 0.0565 0.35527 0.0
C1095 C 0.02363 0.95547 0.36899 0.0
C1096 C 0.04091 0.94019 0.39031 0.0
C1097 C 0.04246 0.95098 0.41994 0.0
C1098 C 0.02683 0.97651 0.42837 0.0
C1099 C 0.01012 0.99119 0.40677 0.0
C1100 C 0.00864 0.98128 0.37764 0.0
C1101 C 0.99035 0.00207 0.35846 0.0
C1102 C 0.00938 0.01546 0.33329 0.0
C1103 C 0.96264 0.98626 0.34603 0.0
C1104 C 0.98191 0.02527 0.38135 0.0
C1105 C 0.99319 0.01831 0.40917 0.0
C1106 C 0.98807 0.03614 0.434 0.0
C1107 C 0.97104 0.06187 0.43025 0.0
C1108 C 0.95957 0.06958 0.40191 0.0
C1109 C 0.96521 0.05112 0.37714 0.0
H1110 H 0.57009 0.00252 0.05657 0.0
H1111 H 0.66443 0.01244 0.07538 0.0
H1112 H 0.67639 0.98994 0.02644 0.0
H1113 H 0.57616 0.9312 0.0171 0.0
H1114 H 0.54723 0.94076 0.9909 0.0
H1115 H 0.54638 0.95569 0.02814 0.0
H1116 H 0.54452 0.00869 0.00661 0.0
H1117 H 0.54528 0.99417 0.96931 0.0
H1118 H 0.57279 0.02097 0.98095 0.0
H1119 H 0.67757 0.97156 0.97268 0.0
H1120 H 0.66808 0.95198 0.92196 0.0
H1121 H 0.57302 0.95245 0.93992 0.0
C1122 C 0.59331 -0.00062 0.05072 0.0
C1123 C 0.61636 0.00918 0.06986 0.0
C1124 C 0.64642 0.00479 0.06126 0.0
C1125 C 0.65341 0.99226 0.03339 0.0
C1126 C 0.63009 0.98382 0.01462 0.0
C1127 C 0.60065 0.98661 0.02325 0.0
C1128 C 0.57968 0.97621 -0.00107 0.0
C1129 C 0.56128 0.94936 0.00939 0.0
C1130 C 0.55939 0.00154 0.98827 0.0
C1131 C 0.60184 0.96762 0.97505 0.0
C1132 C 0.63082 0.97239 0.98432 0.0
C1133 C 0.65497 0.96736 0.96538 0.0
C1134 C 0.64935 0.95652 0.93651 0.0
C1135 C 0.61983 0.95061 0.92698 0.0
C1136 C 0.59587 0.95653 0.94656 0.0
H1137 H 0.04833 0.40808 0.97044 0.0
H1138 H 0.07046 0.31448 0.9667 0.0
H1139 H 0.02001 0.30204 0.98538 0.0
H1140 H 0.0061 0.40413 0.03896 0.0
H1141 H 0.98 0.43203 0.02685 0.0
H1142 H 0.01768 0.43255 0.01315 0.0
H1143 H 0.99691 0.43217 0.95943 0.0
H1144 H 0.95917 0.43025 0.97292 0.0
H1145 H 0.97283 0.40241 0.94749 0.0
H1146 H 0.96619 0.30017 0.00316 0.0
H1147 H 0.91635 0.30924 0.02519 0.0
H1148 H 0.93125 0.4041 0.01868 0.0
C1149 C 0.04261 0.38495 0.97364 0.0
C1150 C 0.06317 0.36221 0.96704 0.0
C1151 C 0.05501 0.33223 0.97179 0.0
C1152 C 0.02637 0.32496 0.98213 0.0
C1153 C 0.00641 0.34797 0.9879 0.0
C1154 C 0.01442 0.37737 0.98433 0.0
C1155 C 0.98949 0.39804 0.9933 0.0
C1156 C -0.0011 0.41782 0.01964 0.0
C1157 C 0.97897 0.4168 0.96668 0.0
C1158 C 0.96611 0.37572 0.0025 0.0
C1159 C 0.97604 0.34693 -0.00114 0.0
C1160 C 0.95821 0.32263 0.00616 0.0
C1161 C 0.92989 0.32796 0.01843 0.0
C1162 C 0.92004 0.35734 0.02362 0.0
C1163 C 0.93822 0.38139 0.01496 0.0
H1164 H 0.4299 0.01578 0.92409 0.0
H1165 H 0.42155 0.10506 0.95886 0.0
H1166 H 0.42331 0.08545 0.01041 0.0
H1167 H 0.38592 0.97951 0.97629 0.0
H1168 H 0.40877 0.94691 0.98028 0.0
H1169 H 0.40944 0.96756 0.94595 0.0
H1170 H 0.46654 0.97407 0.94997 0.0
H1171 H 0.46643 0.95301 0.98415 0.0
H1172 H 0.4824 0.98954 0.98349 0.0
H1173 H 0.41984 0.05572 0.05749 0.0
H1174 H 0.41465 0.01802 0.09731 0.0
H1175 H 0.43032 0.94826 0.03279 0.0
C1176 C 0.4289 0.03111 0.94266 0.0
C1177 C 0.42546 0.06187 0.93777 0.0
C1178 C 0.42419 0.08143 0.96236 0.0
C1179 C 0.42511 0.07049 0.99163 0.0
C1180 C 0.42823 0.03999 0.99582 0.0
C1181 C 0.43078 0.0206 0.97205 0.0
C1182 C 0.43348 0.98878 0.9828 0.0
C1183 C 0.40788 0.96957 0.9706 0.0
C1184 C 0.46402 0.9756 0.97458 0.0
C1185 C 0.43079 0.99322 0.0162 0.0
C1186 C 0.42793 0.02296 0.02323 0.0
C1187 C 0.42262 0.03243 0.05235 0.0
C1188 C 0.41966 0.01094 0.07477 0.0
C1189 C 0.42256 0.98043 0.06804 0.0
C1190 C 0.42877 0.97152 0.03852 0.0
H1191 H 0.94327 0.58399 0.97127 0.0
H1192 H 0.92082 0.67723 0.97912 0.0
H1193 H 0.97029 0.68712 0.00152 0.0
H1194 H 0.98118 0.5791 0.04185 0.0
H1195 H 0.00841 0.553 0.02825 0.0
H1196 H 0.97181 0.55407 0.01191 0.0
H1197 H 0.99591 0.5617 0.95984 0.0
H1198 H 0.03252 0.56129 0.97631 0.0
H1199 H 0.02093 0.59245 0.95399 0.0
H1200 H 0.02298 0.68681 0.02163 0.0
H1201 H 0.07113 0.67517 0.04585 0.0
H1202 H 0.05725 0.58169 0.02764 0.0
C1203 C 0.94878 0.60648 0.97776 0.0
C1204 C 0.92841 0.62991 0.97337 0.0
C1205 C 0.93615 0.65898 0.98245 0.0
C1206 C 0.96425 0.66483 0.9949 0.0
C1207 C 0.98406 0.64127 0.99847 0.0
C1208 C 0.97641 0.61257 0.99075 0.0
C1209 C 0.00089 0.59089 0.99861 0.0
C1210 C 0.9899 0.56793 0.02153 0.0
C1211 C 0.01329 0.5757 0.97051 0.0
C1212 C 0.02351 0.61185 0.01211 0.0
C1213 C 0.0137 0.64089 0.01125 0.0
C1214 C 0.03085 0.66415 0.0225 0.0
C1215 C 0.05826 0.65738 0.03597 0.0
C1216 C 0.06783 0.62757 0.03854 0.0
C1217 C 0.05047 0.60468 0.02589 0.0
loop_
_geom_bond_atom_site_label_1
_geom_bond_atom_site_label_2
_geom_bond_distance
_geom_bond_site_symmetry_2
_ccdc_geom_bond_type
Co0 O3 1.970 . S
Co0 N17 1.989 . S
Co0 O25 1.967 . S
Co0 O32 1.920 . S
Co1 O4 1.966 . S
Co1 N10 2.022 . S
Co1 N18 1.993 . S
Co1 O26 1.941 . S
C2 O3 1.258 . S
C2 O4 1.263 . S
O3 Co0 1.970 . S
O3 C2 1.258 . S
O4 Co1 1.966 . S
O4 C2 1.263 . S
C5 O6 1.235 . S
C5 O32 1.289 . S
O6 C5 1.235 . S
C7 C9 1.400 . S
C7 N10 1.351 . S
C7 C12 1.501 . S
C8 C9 1.387 . S
C8 N11 1.341 . S
C9 C7 1.400 . S
C9 C8 1.387 . S
N10 Co1 2.022 . S
N10 C7 1.351 . S
N10 N11 1.365 . S
N11 C8 1.341 . S
N11 N10 1.365 . S
N11 H31 0.862 . S
C12 C7 1.501 . S
C12 H13 0.961 . S
C12 H14 0.961 . S
C12 H15 0.960 . S
H13 C12 0.961 . S
H14 C12 0.961 . S
H15 C12 0.960 . S
C16 N17 1.342 . S
C16 C20 1.401 . S
C16 C21 1.499 . S
N17 Co0 1.989 . S
N17 C16 1.342 . S
N17 N18 1.388 . S
N18 Co1 1.993 . S
N18 N17 1.388 . S
N18 C19 1.346 . S
C19 N18 1.346 . S
C19 C20 1.396 . S
C19 C29 1.510 . S
C20 C16 1.401 . S
C20 C19 1.396 . S
C21 C16 1.499 . S
C21 H22 0.959 . S
C21 H23 0.960 . S
C21 H24 0.961 . S
H22 C21 0.959 . S
H23 C21 0.960 . S
H24 C21 0.961 . S
O25 Co0 1.967 . S
O25 C33 1.258 . S
O26 Co1 1.941 . S
O26 C33 1.266 . S
H27 C29 0.959 . S
H28 C29 0.961 . S
C29 C19 1.510 . S
C29 H27 0.959 . S
C29 H28 0.961 . S
C29 H30 0.960 . S
H30 C29 0.960 . S
H31 N11 0.862 . S
O32 Co0 1.920 . S
O32 C5 1.289 . S
C33 O25 1.258 . S
C33 O26 1.266 . S
Co34 O37 1.970 . S
Co34 N51 1.989 . S
Co34 O59 1.967 . S
Co34 O66 1.920 . S
Co35 O38 1.966 . S
Co35 N44 2.022 . S
Co35 N52 1.993 . S
Co35 O60 1.941 . S
C36 O37 1.258 . S
C36 O38 1.263 . S
O37 Co34 1.970 . S
O37 C36 1.258 . S
O38 Co35 1.966 . S
O38 C36 1.263 . S
C39 O40 1.235 . S
C39 O66 1.289 . S
O40 C39 1.235 . S
C41 C43 1.400 . S
C41 N44 1.351 . S
C41 C46 1.501 . S
C42 C43 1.387 . S
C42 N45 1.341 . S
C43 C41 1.400 . S
C43 C42 1.387 . S
N44 Co35 2.022 . S
N44 C41 1.351 . S
N44 N45 1.365 . S
N45 C42 1.341 . S
N45 N44 1.365 . S
N45 H65 0.862 . S
C46 C41 1.501 . S
C46 H47 0.961 . S
C46 H48 0.961 . S
C46 H49 0.960 . S
H47 C46 0.961 . S
H48 C46 0.961 . S
H49 C46 0.960 . S
C50 N51 1.342 . S
C50 C54 1.401 . S
C50 C55 1.499 . S
N51 Co34 1.989 . S
N51 C50 1.342 . S
N51 N52 1.388 . S
N52 Co35 1.993 . S
N52 N51 1.388 . S
N52 C53 1.346 . S
C53 N52 1.346 . S
C53 C54 1.396 . S
C53 C63 1.510 . S
C54 C50 1.401 . S
C54 C53 1.396 . S
C55 C50 1.499 . S
C55 H56 0.959 . S
C55 H57 0.960 . S
C55 H58 0.961 . S
H56 C55 0.959 . S
H57 C55 0.960 . S
H58 C55 0.961 . S
O59 Co34 1.967 . S
O59 C67 1.258 . S
O60 Co35 1.941 . S
O60 C67 1.266 . S
H61 C63 0.959 . S
H62 C63 0.961 . S
C63 C53 1.510 . S
C63 H61 0.959 . S
C63 H62 0.961 . S
C63 H64 0.960 . S
H64 C63 0.960 . S
H65 N45 0.862 . S
O66 Co34 1.920 . S
O66 C39 1.289 . S
C67 O59 1.258 . S
C67 O60 1.266 . S
Co68 O71 1.970 . S
Co68 N85 1.989 . S
Co68 O93 1.967 . S
Co68 O100 1.920 . S
Co69 O72 1.966 . S
Co69 N78 2.022 . S
Co69 N86 1.993 . S
Co69 O94 1.941 . S
C70 O71 1.258 . S
C70 O72 1.263 . S
O71 Co68 1.970 . S
O71 C70 1.258 . S
O72 Co69 1.966 . S
O72 C70 1.263 . S
C73 O74 1.235 . S
C73 O100 1.289 . S
O74 C73 1.235 . S
C75 C77 1.400 . S
C75 N78 1.351 . S
C75 C80 1.501 . S
C76 C77 1.387 . S
C76 N79 1.341 . S
C77 C75 1.400 . S
C77 C76 1.387 . S
N78 Co69 2.022 . S
N78 C75 1.351 . S
N78 N79 1.365 . S
N79 C76 1.341 . S
N79 N78 1.365 . S
N79 H99 0.862 . S
C80 C75 1.501 . S
C80 H81 0.961 . S
C80 H82 0.961 . S
C80 H83 0.960 . S
H81 C80 0.961 . S
H82 C80 0.961 . S
H83 C80 0.960 . S
C84 N85 1.342 . S
C84 C88 1.401 . S
C84 C89 1.499 . S
N85 Co68 1.989 . S
N85 C84 1.342 . S
N85 N86 1.388 . S
N86 Co69 1.993 . S
N86 N85 1.388 . S
N86 C87 1.346 . S
C87 N86 1.346 . S
C87 C88 1.396 . S
C87 C97 1.510 . S
C88 C84 1.401 . S
C88 C87 1.396 . S
C89 C84 1.499 . S
C89 H90 0.959 . S
C89 H91 0.960 . S
C89 H92 0.961 . S
H90 C89 0.959 . S
H91 C89 0.960 . S
H92 C89 0.961 . S
O93 Co68 1.967 . S
O93 C101 1.258 . S
O94 Co69 1.941 . S
O94 C101 1.266 . S
H95 C97 0.959 . S
H96 C97 0.961 . S
C97 C87 1.510 . S
C97 H95 0.959 . S
C97 H96 0.961 . S
C97 H98 0.960 . S
H98 C97 0.960 . S
H99 N79 0.862 . S
O100 Co68 1.920 . S
O100 C73 1.289 . S
C101 O93 1.258 . S
C101 O94 1.266 . S
Co102 O105 1.970 . S
Co102 N119 1.989 . S
Co102 O127 1.967 . S
Co102 O134 1.920 . S
Co103 O106 1.966 . S
Co103 N112 2.022 . S
Co103 N120 1.993 . S
Co103 O128 1.941 . S
C104 O105 1.258 . S
C104 O106 1.263 . S
O105 Co102 1.970 . S
O105 C104 1.258 . S
O106 Co103 1.966 . S
O106 C104 1.263 . S
C107 O108 1.235 . S
C107 O134 1.289 . S
O108 C107 1.235 . S
C109 C111 1.400 . S
C109 N112 1.351 . S
C109 C114 1.501 . S
C110 C111 1.387 . S
C110 N113 1.341 . S
C111 C109 1.400 . S
C111 C110 1.387 . S
N112 Co103 2.022 . S
N112 C109 1.351 . S
N112 N113 1.365 . S
N113 C110 1.341 . S
N113 N112 1.365 . S
N113 H133 0.862 . S
C114 C109 1.501 . S
C114 H115 0.961 . S
C114 H116 0.961 . S
C114 H117 0.960 . S
H115 C114 0.961 . S
H116 C114 0.961 . S
H117 C114 0.960 . S
C118 N119 1.342 . S
C118 C122 1.401 . S
C118 C123 1.499 . S
N119 Co102 1.989 . S
N119 C118 1.342 . S
N119 N120 1.388 . S
N120 Co103 1.993 . S
N120 N119 1.388 . S
N120 C121 1.346 . S
C121 N120 1.346 . S
C121 C122 1.396 . S
C121 C131 1.510 . S
C122 C118 1.401 . S
C122 C121 1.396 . S
C123 C118 1.499 . S
C123 H124 0.959 . S
C123 H125 0.960 . S
C123 H126 0.961 . S
H124 C123 0.959 . S
H125 C123 0.960 . S
H126 C123 0.961 . S
O127 Co102 1.967 . S
O127 C135 1.258 . S
O128 Co103 1.941 . S
O128 C135 1.266 . S
H129 C131 0.959 . S
H130 C131 0.961 . S
C131 C121 1.510 . S
C131 H129 0.959 . S
C131 H130 0.961 . S
C131 H132 0.960 . S
H132 C131 0.960 . S
H133 N113 0.862 . S
O134 Co102 1.920 . S
O134 C107 1.289 . S
C135 O127 1.258 . S
C135 O128 1.266 . S
Co136 O139 1.970 . S
Co136 N153 1.989 . S
Co136 O161 1.967 . S
Co136 O168 1.920 . S
Co137 O140 1.966 . S
Co137 N146 2.022 . S
Co137 N154 1.993 . S
Co137 O162 1.941 . S
C138 O139 1.258 . S
C138 O140 1.263 . S
O139 Co136 1.970 . S
O139 C138 1.258 . S
O140 Co137 1.966 . S
O140 C138 1.263 . S
C141 O142 1.235 . S
C141 O168 1.289 . S
O142 C141 1.235 . S
C143 C145 1.400 . S
C143 N146 1.351 . S
C143 C148 1.501 . S
C144 C145 1.387 . S
C144 N147 1.341 . S
C145 C143 1.400 . S
C145 C144 1.387 . S
N146 Co137 2.022 . S
N146 C143 1.351 . S
N146 N147 1.365 . S
N147 C144 1.341 . S
N147 N146 1.365 . S
N147 H167 0.862 . S
C148 C143 1.501 . S
C148 H149 0.961 . S
C148 H150 0.961 . S
C148 H151 0.960 . S
H149 C148 0.961 . S
H150 C148 0.961 . S
H151 C148 0.960 . S
C152 N153 1.342 . S
C152 C156 1.401 . S
C152 C157 1.499 . S
N153 Co136 1.989 . S
N153 C152 1.342 . S
N153 N154 1.388 . S
N154 Co137 1.993 . S
N154 N153 1.388 . S
N154 C155 1.346 . S
C155 N154 1.346 . S
C155 C156 1.396 . S
C155 C165 1.510 . S
C156 C152 1.401 . S
C156 C155 1.396 . S
C157 C152 1.499 . S
C157 H158 0.959 . S
C157 H159 0.960 . S
C157 H160 0.961 . S
H158 C157 0.959 . S
H159 C157 0.960 . S
H160 C157 0.961 . S
O161 Co136 1.967 . S
O161 C169 1.258 . S
O162 Co137 1.941 . S
O162 C169 1.266 . S
H163 C165 0.959 . S
H164 C165 0.961 . S
C165 C155 1.510 . S
C165 H163 0.959 . S
C165 H164 0.961 . S
C165 H166 0.960 . S
H166 C165 0.960 . S
H167 N147 0.862 . S
O168 Co136 1.920 . S
O168 C141 1.289 . S
C169 O161 1.258 . S
C169 O162 1.266 . S
Co170 O173 1.970 . S
Co170 N187 1.989 . S
Co170 O195 1.967 . S
Co170 O202 1.920 . S
Co171 O174 1.966 . S
Co171 N180 2.022 . S
Co171 N188 1.993 . S
Co171 O196 1.941 . S
C172 O173 1.258 . S
C172 O174 1.263 . S
O173 Co170 1.970 . S
O173 C172 1.258 . S
O174 Co171 1.966 . S
O174 C172 1.263 . S
C175 O176 1.235 . S
C175 O202 1.289 . S
O176 C175 1.235 . S
C177 C179 1.400 . S
C177 N180 1.351 . S
C177 C182 1.501 . S
C178 C179 1.387 . S
C178 N181 1.341 . S
C179 C177 1.400 . S
C179 C178 1.387 . S
N180 Co171 2.022 . S
N180 C177 1.351 . S
N180 N181 1.365 . S
N181 C178 1.341 . S
N181 N180 1.365 . S
N181 H201 0.862 . S
C182 C177 1.501 . S
C182 H183 0.961 . S
C182 H184 0.961 . S
C182 H185 0.960 . S
H183 C182 0.961 . S
H184 C182 0.961 . S
H185 C182 0.960 . S
C186 N187 1.342 . S
C186 C190 1.401 . S
C186 C191 1.499 . S
N187 Co170 1.989 . S
N187 C186 1.342 . S
N187 N188 1.388 . S
N188 Co171 1.993 . S
N188 N187 1.388 . S
N188 C189 1.346 . S
C189 N188 1.346 . S
C189 C190 1.396 . S
C189 C199 1.510 . S
C190 C186 1.401 . S
C190 C189 1.396 . S
C191 C186 1.499 . S
C191 H192 0.959 . S
C191 H193 0.960 . S
C191 H194 0.961 . S
H192 C191 0.959 . S
H193 C191 0.960 . S
H194 C191 0.961 . S
O195 Co170 1.967 . S
O195 C203 1.258 . S
O196 Co171 1.941 . S
O196 C203 1.266 . S
H197 C199 0.959 . S
H198 C199 0.961 . S
C199 C189 1.510 . S
C199 H197 0.959 . S
C199 H198 0.961 . S
C199 H200 0.960 . S
H200 C199 0.960 . S
H201 N181 0.862 . S
O202 Co170 1.920 . S
O202 C175 1.289 . S
C203 O195 1.258 . S
C203 O196 1.266 . S
Co204 O207 1.970 . S
Co204 N221 1.989 . S
Co204 O229 1.967 . S
Co204 O236 1.920 . S
Co205 O208 1.966 . S
Co205 N214 2.022 . S
Co205 N222 1.993 . S
Co205 O230 1.941 . S
C206 O207 1.258 . S
C206 O208 1.263 . S
O207 Co204 1.970 . S
O207 C206 1.258 . S
O208 Co205 1.966 . S
O208 C206 1.263 . S
C209 O210 1.235 . S
C209 O236 1.289 . S
O210 C209 1.235 . S
C211 C213 1.400 . S
C211 N214 1.351 . S
C211 C216 1.501 . S
C212 C213 1.387 . S
C212 N215 1.341 . S
C213 C211 1.400 . S
C213 C212 1.387 . S
N214 Co205 2.022 . S
N214 C211 1.351 . S
N214 N215 1.365 . S
N215 C212 1.341 . S
N215 N214 1.365 . S
N215 H235 0.862 . S
C216 C211 1.501 . S
C216 H217 0.961 . S
C216 H218 0.961 . S
C216 H219 0.960 . S
H217 C216 0.961 . S
H218 C216 0.961 . S
H219 C216 0.960 . S
C220 N221 1.342 . S
C220 C224 1.401 . S
C220 C225 1.499 . S
N221 Co204 1.989 . S
N221 C220 1.342 . S
N221 N222 1.388 . S
N222 Co205 1.993 . S
N222 N221 1.388 . S
N222 C223 1.346 . S
C223 N222 1.346 . S
C223 C224 1.396 . S
C223 C233 1.510 . S
C224 C220 1.401 . S
C224 C223 1.396 . S
C225 C220 1.499 . S
C225 H226 0.959 . S
C225 H227 0.960 . S
C225 H228 0.961 . S
H226 C225 0.959 . S
H227 C225 0.960 . S
H228 C225 0.961 . S
O229 Co204 1.967 . S
O229 C237 1.258 . S
O230 Co205 1.941 . S
O230 C237 1.266 . S
H231 C233 0.959 . S
H232 C233 0.961 . S
C233 C223 1.510 . S
C233 H231 0.959 . S
C233 H232 0.961 . S
C233 H234 0.960 . S
H234 C233 0.960 . S
H235 N215 0.862 . S
O236 Co204 1.920 . S
O236 C209 1.289 . S
C237 O229 1.258 . S
C237 O230 1.266 . S
Co238 O241 1.970 . S
Co238 N255 1.989 . S
Co238 O263 1.967 . S
Co238 O270 1.920 . S
Co239 O242 1.966 . S
Co239 N248 2.022 . S
Co239 N256 1.993 . S
Co239 O264 1.941 . S
C240 O241 1.258 . S
C240 O242 1.263 . S
O241 Co238 1.970 . S
O241 C240 1.258 . S
O242 Co239 1.966 . S
O242 C240 1.263 . S
C243 O244 1.235 . S
C243 O270 1.289 . S
O244 C243 1.235 . S
C245 C247 1.400 . S
C245 N248 1.351 . S
C245 C250 1.501 . S
C246 C247 1.387 . S
C246 N249 1.341 . S
C247 C245 1.400 . S
C247 C246 1.387 . S
N248 Co239 2.022 . S
N248 C245 1.351 . S
N248 N249 1.365 . S
N249 C246 1.341 . S
N249 N248 1.365 . S
N249 H269 0.862 . S
C250 C245 1.501 . S
C250 H251 0.961 . S
C250 H252 0.961 . S
C250 H253 0.960 . S
H251 C250 0.961 . S
H252 C250 0.961 . S
H253 C250 0.960 . S
C254 N255 1.342 . S
C254 C258 1.401 . S
C254 C259 1.499 . S
N255 Co238 1.989 . S
N255 C254 1.342 . S
N255 N256 1.388 . S
N256 Co239 1.993 . S
N256 N255 1.388 . S
N256 C257 1.346 . S
C257 N256 1.346 . S
C257 C258 1.396 . S
C257 C267 1.510 . S
C258 C254 1.401 . S
C258 C257 1.396 . S
C259 C254 1.499 . S
C259 H260 0.959 . S
C259 H261 0.960 . S
C259 H262 0.961 . S
H260 C259 0.959 . S
H261 C259 0.960 . S
H262 C259 0.961 . S
O263 Co238 1.967 . S
O263 C271 1.258 . S
O264 Co239 1.941 . S
O264 C271 1.266 . S
H265 C267 0.959 . S
H266 C267 0.961 . S
C267 C257 1.510 . S
C267 H265 0.959 . S
C267 H266 0.961 . S
C267 H268 0.960 . S
H268 C267 0.960 . S
H269 N249 0.862 . S
O270 Co238 1.920 . S
O270 C243 1.289 . S
C271 O263 1.258 . S
C271 O264 1.266 . S
Co272 O275 1.970 . S
Co272 N289 1.989 . S
Co272 O297 1.967 . S
Co272 O304 1.920 . S
Co273 O276 1.966 . S
Co273 N282 2.022 . S
Co273 N290 1.993 . S
Co273 O298 1.941 . S
C274 O275 1.258 . S
C274 O276 1.263 . S
O275 Co272 1.970 . S
O275 C274 1.258 . S
O276 Co273 1.966 . S
O276 C274 1.263 . S
C277 O278 1.235 . S
C277 O304 1.289 . S
O278 C277 1.235 . S
C279 C281 1.400 . S
C279 N282 1.351 . S
C279 C284 1.501 . S
C280 C281 1.387 . S
C280 N283 1.341 . S
C281 C279 1.400 . S
C281 C280 1.387 . S
N282 Co273 2.022 . S
N282 C279 1.351 . S
N282 N283 1.365 . S
N283 C280 1.341 . S
N283 N282 1.365 . S
N283 H303 0.862 . S
C284 C279 1.501 . S
C284 H285 0.961 . S
C284 H286 0.961 . S
C284 H287 0.960 . S
H285 C284 0.961 . S
H286 C284 0.961 . S
H287 C284 0.960 . S
C288 N289 1.342 . S
C288 C292 1.401 . S
C288 C293 1.499 . S
N289 Co272 1.989 . S
N289 C288 1.342 . S
N289 N290 1.388 . S
N290 Co273 1.993 . S
N290 N289 1.388 . S
N290 C291 1.346 . S
C291 N290 1.346 . S
C291 C292 1.396 . S
C291 C301 1.510 . S
C292 C288 1.401 . S
C292 C291 1.396 . S
C293 C288 1.499 . S
C293 H294 0.959 . S
C293 H295 0.960 . S
C293 H296 0.961 . S
H294 C293 0.959 . S
H295 C293 0.960 . S
H296 C293 0.961 . S
O297 Co272 1.967 . S
O297 C305 1.258 . S
O298 Co273 1.941 . S
O298 C305 1.266 . S
H299 C301 0.959 . S
H300 C301 0.961 . S
C301 C291 1.510 . S
C301 H299 0.959 . S
C301 H300 0.961 . S
C301 H302 0.960 . S
H302 C301 0.960 . S
H303 N283 0.862 . S
O304 Co272 1.920 . S
O304 C277 1.289 . S
C305 O297 1.258 . S
C305 O298 1.266 . S
Co306 O309 1.970 . S
Co306 N323 1.989 . S
Co306 O331 1.967 . S
Co306 O338 1.920 . S
Co307 O310 1.966 . S
Co307 N316 2.022 . S
Co307 N324 1.993 . S
Co307 O332 1.941 . S
C308 O309 1.258 . S
C308 O310 1.263 . S
O309 Co306 1.970 . S
O309 C308 1.258 . S
O310 Co307 1.966 . S
O310 C308 1.263 . S
C311 O312 1.235 . S
C311 O338 1.289 . S
O312 C311 1.235 . S
C313 C315 1.400 . S
C313 N316 1.351 . S
C313 C318 1.501 . S
C314 C315 1.387 . S
C314 N317 1.341 . S
C315 C313 1.400 . S
C315 C314 1.387 . S
N316 Co307 2.022 . S
N316 C313 1.351 . S
N316 N317 1.365 . S
N317 C314 1.341 . S
N317 N316 1.365 . S
N317 H337 0.862 . S
C318 C313 1.501 . S
C318 H319 0.961 . S
C318 H320 0.961 . S
C318 H321 0.960 . S
H319 C318 0.961 . S
H320 C318 0.961 . S
H321 C318 0.960 . S
C322 N323 1.342 . S
C322 C326 1.401 . S
C322 C327 1.499 . S
N323 Co306 1.989 . S
N323 C322 1.342 . S
N323 N324 1.388 . S
N324 Co307 1.993 . S
N324 N323 1.388 . S
N324 C325 1.346 . S
C325 N324 1.346 . S
C325 C326 1.396 . S
C325 C335 1.510 . S
C326 C322 1.401 . S
C326 C325 1.396 . S
C327 C322 1.499 . S
C327 H328 0.959 . S
C327 H329 0.960 . S
C327 H330 0.961 . S
H328 C327 0.959 . S
H329 C327 0.960 . S
H330 C327 0.961 . S
O331 Co306 1.967 . S
O331 C339 1.258 . S
O332 Co307 1.941 . S
O332 C339 1.266 . S
H333 C335 0.959 . S
H334 C335 0.961 . S
C335 C325 1.510 . S
C335 H333 0.959 . S
C335 H334 0.961 . S
C335 H336 0.960 . S
H336 C335 0.960 . S
H337 N317 0.862 . S
O338 Co306 1.920 . S
O338 C311 1.289 . S
C339 O331 1.258 . S
C339 O332 1.266 . S
Co340 O343 1.970 . S
Co340 N357 1.989 . S
Co340 O365 1.967 . S
Co340 O372 1.920 . S
Co341 O344 1.966 . S
Co341 N350 2.022 . S
Co341 N358 1.993 . S
Co341 O366 1.941 . S
C342 O343 1.258 . S
C342 O344 1.263 . S
O343 Co340 1.970 . S
O343 C342 1.258 . S
O344 Co341 1.966 . S
O344 C342 1.263 . S
C345 O346 1.235 . S
C345 O372 1.289 . S
O346 C345 1.235 . S
C347 C349 1.400 . S
C347 N350 1.351 . S
C347 C352 1.501 . S
C348 C349 1.387 . S
C348 N351 1.341 . S
C349 C347 1.400 . S
C349 C348 1.387 . S
N350 Co341 2.022 . S
N350 C347 1.351 . S
N350 N351 1.365 . S
N351 C348 1.341 . S
N351 N350 1.365 . S
N351 H371 0.862 . S
C352 C347 1.501 . S
C352 H353 0.961 . S
C352 H354 0.961 . S
C352 H355 0.960 . S
H353 C352 0.961 . S
H354 C352 0.961 . S
H355 C352 0.960 . S
C356 N357 1.342 . S
C356 C360 1.401 . S
C356 C361 1.499 . S
N357 Co340 1.989 . S
N357 C356 1.342 . S
N357 N358 1.388 . S
N358 Co341 1.993 . S
N358 N357 1.388 . S
N358 C359 1.346 . S
C359 N358 1.346 . S
C359 C360 1.396 . S
C359 C369 1.510 . S
C360 C356 1.401 . S
C360 C359 1.396 . S
C361 C356 1.499 . S
C361 H362 0.959 . S
C361 H363 0.960 . S
C361 H364 0.961 . S
H362 C361 0.959 . S
H363 C361 0.960 . S
H364 C361 0.961 . S
O365 Co340 1.967 . S
O365 C373 1.258 . S
O366 Co341 1.941 . S
O366 C373 1.266 . S
H367 C369 0.959 . S
H368 C369 0.961 . S
C369 C359 1.510 . S
C369 H367 0.959 . S
C369 H368 0.961 . S
C369 H370 0.960 . S
H370 C369 0.960 . S
H371 N351 0.862 . S
O372 Co340 1.920 . S
O372 C345 1.289 . S
C373 O365 1.258 . S
C373 O366 1.266 . S
Co374 O377 1.970 . S
Co374 N391 1.989 . S
Co374 O399 1.967 . S
Co374 O406 1.920 . S
Co375 O378 1.966 . S
Co375 N384 2.022 . S
Co375 N392 1.993 . S
Co375 O400 1.941 . S
C376 O377 1.258 . S
C376 O378 1.263 . S
O377 Co374 1.970 . S
O377 C376 1.258 . S
O378 Co375 1.966 . S
O378 C376 1.263 . S
C379 O380 1.235 . S
C379 O406 1.289 . S
O380 C379 1.235 . S
C381 C383 1.400 . S
C381 N384 1.351 . S
C381 C386 1.501 . S
C382 C383 1.387 . S
C382 N385 1.341 . S
C383 C381 1.400 . S
C383 C382 1.387 . S
N384 Co375 2.022 . S
N384 C381 1.351 . S
N384 N385 1.365 . S
N385 C382 1.341 . S
N385 N384 1.365 . S
N385 H405 0.862 . S
C386 C381 1.501 . S
C386 H387 0.961 . S
C386 H388 0.961 . S
C386 H389 0.960 . S
H387 C386 0.961 . S
H388 C386 0.961 . S
H389 C386 0.960 . S
C390 N391 1.342 . S
C390 C394 1.401 . S
C390 C395 1.499 . S
N391 Co374 1.989 . S
N391 C390 1.342 . S
N391 N392 1.388 . S
N392 Co375 1.993 . S
N392 N391 1.388 . S
N392 C393 1.346 . S
C393 N392 1.346 . S
C393 C394 1.396 . S
C393 C403 1.510 . S
C394 C390 1.401 . S
C394 C393 1.396 . S
C395 C390 1.499 . S
C395 H396 0.959 . S
C395 H397 0.960 . S
C395 H398 0.961 . S
H396 C395 0.959 . S
H397 C395 0.960 . S
H398 C395 0.961 . S
O399 Co374 1.967 . S
O399 C407 1.258 . S
O400 Co375 1.941 . S
O400 C407 1.266 . S
H401 C403 0.959 . S
H402 C403 0.961 . S
C403 C393 1.510 . S
C403 H401 0.959 . S
C403 H402 0.961 . S
C403 H404 0.960 . S
H404 C403 0.960 . S
H405 N385 0.862 . S
O406 Co374 1.920 . S
O406 C379 1.289 . S
C407 O399 1.258 . S
C407 O400 1.266 . S
H408 C420 0.930 . S
H409 C422 0.930 . S
H410 C423 0.930 . S
H411 C427 0.959 . S
H412 C427 0.959 . S
H413 C427 0.961 . S
H414 C428 0.960 . S
H415 C428 0.961 . S
H416 C428 0.959 . S
H417 C431 0.929 . S
H418 C432 0.931 . S
H419 C434 0.930 . S
C420 H408 0.930 . S
C420 C421 1.399 . S
C420 C425 1.399 . S
C421 C420 1.399 . S
C421 C422 1.376 . S
C422 H409 0.930 . S
C422 C421 1.376 . S
C422 C423 1.388 . S
C423 H410 0.930 . S
C423 C422 1.388 . S
C423 C424 1.390 . S
C424 C423 1.390 . S
C424 C425 1.394 . S
C424 C430 1.465 . S
C425 C420 1.399 . S
C425 C424 1.394 . S
C425 C426 1.516 . S
C426 C425 1.516 . S
C426 C427 1.502 . S
C426 C428 1.561 . S
C426 C429 1.526 . S
C427 H411 0.959 . S
C427 H412 0.959 . S
C427 H413 0.961 . S
C427 C426 1.502 . S
C428 H414 0.960 . S
C428 H415 0.961 . S
C428 H416 0.959 . S
C428 C426 1.561 . S
C429 C426 1.526 . S
C429 C430 1.396 . S
C429 C434 1.390 . S
C430 C424 1.465 . S
C430 C429 1.396 . S
C430 C431 1.399 . S
C431 H417 0.929 . S
C431 C430 1.399 . S
C431 C432 1.385 . S
C432 H418 0.931 . S
C432 C431 1.385 . S
C432 C433 1.389 . S
C433 C432 1.389 . S
C433 C434 1.387 . S
C434 H419 0.930 . S
C434 C429 1.390 . S
C434 C433 1.387 . S
H435 C447 0.930 . S
H436 C449 0.930 . S
H437 C450 0.930 . S
H438 C454 0.959 . S
H439 C454 0.959 . S
H440 C454 0.961 . S
H441 C455 0.960 . S
H442 C455 0.961 . S
H443 C455 0.959 . S
H444 C458 0.929 . S
H445 C459 0.931 . S
H446 C461 0.930 . S
C447 H435 0.930 . S
C447 C448 1.399 . S
C447 C452 1.399 . S
C448 C447 1.399 . S
C448 C449 1.376 . S
C449 H436 0.930 . S
C449 C448 1.376 . S
C449 C450 1.388 . S
C450 H437 0.930 . S
C450 C449 1.388 . S
C450 C451 1.390 . S
C451 C450 1.390 . S
C451 C452 1.394 . S
C451 C457 1.465 . S
C452 C447 1.399 . S
C452 C451 1.394 . S
C452 C453 1.516 . S
C453 C452 1.516 . S
C453 C454 1.502 . S
C453 C455 1.561 . S
C453 C456 1.526 . S
C454 H438 0.959 . S
C454 H439 0.959 . S
C454 H440 0.961 . S
C454 C453 1.502 . S
C455 H441 0.960 . S
C455 H442 0.961 . S
C455 H443 0.959 . S
C455 C453 1.561 . S
C456 C453 1.526 . S
C456 C457 1.396 . S
C456 C461 1.390 . S
C457 C451 1.465 . S
C457 C456 1.396 . S
C457 C458 1.399 . S
C458 H444 0.929 . S
C458 C457 1.399 . S
C458 C459 1.385 . S
C459 H445 0.931 . S
C459 C458 1.385 . S
C459 C460 1.389 . S
C460 C459 1.389 . S
C460 C461 1.387 . S
C461 H446 0.930 . S
C461 C456 1.390 . S
C461 C460 1.387 . S
H462 C474 0.930 . S
H463 C476 0.930 . S
H464 C477 0.930 . S
H465 C481 0.959 . S
H466 C481 0.959 . S
H467 C481 0.961 . S
H468 C482 0.960 . S
H469 C482 0.961 . S
H470 C482 0.959 . S
H471 C485 0.929 . S
H472 C486 0.931 . S
H473 C488 0.930 . S
C474 H462 0.930 . S
C474 C475 1.399 . S
C474 C479 1.399 . S
C475 C474 1.399 . S
C475 C476 1.376 . S
C476 H463 0.930 . S
C476 C475 1.376 . S
C476 C477 1.388 . S
C477 H464 0.930 . S
C477 C476 1.388 . S
C477 C478 1.390 . S
C478 C477 1.390 . S
C478 C479 1.394 . S
C478 C484 1.465 . S
C479 C474 1.399 . S
C479 C478 1.394 . S
C479 C480 1.516 . S
C480 C479 1.516 . S
C480 C481 1.502 . S
C480 C482 1.561 . S
C480 C483 1.526 . S
C481 H465 0.959 . S
C481 H466 0.959 . S
C481 H467 0.961 . S
C481 C480 1.502 . S
C482 H468 0.960 . S
C482 H469 0.961 . S
C482 H470 0.959 . S
C482 C480 1.561 . S
C483 C480 1.526 . S
C483 C484 1.396 . S
C483 C488 1.390 . S
C484 C478 1.465 . S
C484 C483 1.396 . S
C484 C485 1.399 . S
C485 H471 0.929 . S
C485 C484 1.399 . S
C485 C486 1.385 . S
C486 H472 0.931 . S
C486 C485 1.385 . S
C486 C487 1.389 . S
C487 C486 1.389 . S
C487 C488 1.387 . S
C488 H473 0.930 . S
C488 C483 1.390 . S
C488 C487 1.387 . S
H489 C501 0.930 . S
H490 C503 0.930 . S
H491 C504 0.930 . S
H492 C508 0.959 . S
H493 C508 0.959 . S
H494 C508 0.961 . S
H495 C509 0.960 . S
H496 C509 0.961 . S
H497 C509 0.959 . S
H498 C512 0.929 . S
H499 C513 0.931 . S
H500 C515 0.930 . S
C501 H489 0.930 . S
C501 C502 1.399 . S
C501 C506 1.399 . S
C502 C501 1.399 . S
C502 C503 1.376 . S
C503 H490 0.930 . S
C503 C502 1.376 . S
C503 C504 1.388 . S
C504 H491 0.930 . S
C504 C503 1.388 . S
C504 C505 1.390 . S
C505 C504 1.390 . S
C505 C506 1.394 . S
C505 C511 1.465 . S
C506 C501 1.399 . S
C506 C505 1.394 . S
C506 C507 1.516 . S
C507 C506 1.516 . S
C507 C508 1.502 . S
C507 C509 1.561 . S
C507 C510 1.526 . S
C508 H492 0.959 . S
C508 H493 0.959 . S
C508 H494 0.961 . S
C508 C507 1.502 . S
C509 H495 0.960 . S
C509 H496 0.961 . S
C509 H497 0.959 . S
C509 C507 1.561 . S
C510 C507 1.526 . S
C510 C511 1.396 . S
C510 C515 1.390 . S
C511 C505 1.465 . S
C511 C510 1.396 . S
C511 C512 1.399 . S
C512 H498 0.929 . S
C512 C511 1.399 . S
C512 C513 1.385 . S
C513 H499 0.931 . S
C513 C512 1.385 . S
C513 C514 1.389 . S
C514 C513 1.389 . S
C514 C515 1.387 . S
C515 H500 0.930 . S
C515 C510 1.390 . S
C515 C514 1.387 . S
H516 C528 0.930 . S
H517 C530 0.930 . S
H518 C531 0.930 . S
H519 C535 0.959 . S
H520 C535 0.959 . S
H521 C535 0.961 . S
H522 C536 0.960 . S
H523 C536 0.961 . S
H524 C536 0.959 . S
H525 C539 0.929 . S
H526 C540 0.931 . S
H527 C542 0.930 . S
C528 H516 0.930 . S
C528 C529 1.399 . S
C528 C533 1.399 . S
C529 C528 1.399 . S
C529 C530 1.376 . S
C530 H517 0.930 . S
C530 C529 1.376 . S
C530 C531 1.388 . S
C531 H518 0.930 . S
C531 C530 1.388 . S
C531 C532 1.390 . S
C532 C531 1.390 . S
C532 C533 1.394 . S
C532 C538 1.465 . S
C533 C528 1.399 . S
C533 C532 1.394 . S
C533 C534 1.516 . S
C534 C533 1.516 . S
C534 C535 1.502 . S
C534 C536 1.561 . S
C534 C537 1.526 . S
C535 H519 0.959 . S
C535 H520 0.959 . S
C535 H521 0.961 . S
C535 C534 1.502 . S
C536 H522 0.960 . S
C536 H523 0.961 . S
C536 H524 0.959 . S
C536 C534 1.561 . S
C537 C534 1.526 . S
C537 C538 1.396 . S
C537 C542 1.390 . S
C538 C532 1.465 . S
C538 C537 1.396 . S
C538 C539 1.399 . S
C539 H525 0.929 . S
C539 C538 1.399 . S
C539 C540 1.385 . S
C540 H526 0.931 . S
C540 C539 1.385 . S
C540 C541 1.389 . S
C541 C540 1.389 . S
C541 C542 1.387 . S
C542 H527 0.930 . S
C542 C537 1.390 . S
C542 C541 1.387 . S
H543 C555 0.930 . S
H544 C557 0.930 . S
H545 C558 0.930 . S
H546 C562 0.959 . S
H547 C562 0.959 . S
H548 C562 0.961 . S
H549 C563 0.960 . S
H550 C563 0.961 . S
H551 C563 0.959 . S
H552 C566 0.929 . S
H553 C567 0.931 . S
H554 C569 0.930 . S
C555 H543 0.930 . S
C555 C556 1.399 . S
C555 C560 1.399 . S
C556 C555 1.399 . S
C556 C557 1.376 . S
C557 H544 0.930 . S
C557 C556 1.376 . S
C557 C558 1.388 . S
C558 H545 0.930 . S
C558 C557 1.388 . S
C558 C559 1.390 . S
C559 C558 1.390 . S
C559 C560 1.394 . S
C559 C565 1.465 . S
C560 C555 1.399 . S
C560 C559 1.394 . S
C560 C561 1.516 . S
C561 C560 1.516 . S
C561 C562 1.502 . S
C561 C563 1.561 . S
C561 C564 1.526 . S
C562 H546 0.959 . S
C562 H547 0.959 . S
C562 H548 0.961 . S
C562 C561 1.502 . S
C563 H549 0.960 . S
C563 H550 0.961 . S
C563 H551 0.959 . S
C563 C561 1.561 . S
C564 C561 1.526 . S
C564 C565 1.396 . S
C564 C569 1.390 . S
C565 C559 1.465 . S
C565 C564 1.396 . S
C565 C566 1.399 . S
C566 H552 0.929 . S
C566 C565 1.399 . S
C566 C567 1.385 . S
C567 H553 0.931 . S
C567 C566 1.385 . S
C567 C568 1.389 . S
C568 C567 1.389 . S
C568 C569 1.387 . S
C569 H554 0.930 . S
C569 C564 1.390 . S
C569 C568 1.387 . S
H570 C582 0.930 . S
H571 C584 0.930 . S
H572 C585 0.930 . S
H573 C589 0.959 . S
H574 C589 0.959 . S
H575 C589 0.961 . S
H576 C590 0.960 . S
H577 C590 0.961 . S
H578 C590 0.959 . S
H579 C593 0.929 . S
H580 C594 0.931 . S
H581 C596 0.930 . S
C582 H570 0.930 . S
C582 C583 1.399 . S
C582 C587 1.399 . S
C583 C582 1.399 . S
C583 C584 1.376 . S
C584 H571 0.930 . S
C584 C583 1.376 . S
C584 C585 1.388 . S
C585 H572 0.930 . S
C585 C584 1.388 . S
C585 C586 1.390 . S
C586 C585 1.390 . S
C586 C587 1.394 . S
C586 C592 1.465 . S
C587 C582 1.399 . S
C587 C586 1.394 . S
C587 C588 1.516 . S
C588 C587 1.516 . S
C588 C589 1.502 . S
C588 C590 1.561 . S
C588 C591 1.526 . S
C589 H573 0.959 . S
C589 H574 0.959 . S
C589 H575 0.961 . S
C589 C588 1.502 . S
C590 H576 0.960 . S
C590 H577 0.961 . S
C590 H578 0.959 . S
C590 C588 1.561 . S
C591 C588 1.526 . S
C591 C592 1.396 . S
C591 C596 1.390 . S
C592 C586 1.465 . S
C592 C591 1.396 . S
C592 C593 1.399 . S
C593 H579 0.929 . S
C593 C592 1.399 . S
C593 C594 1.385 . S
C594 H580 0.931 . S
C594 C593 1.385 . S
C594 C595 1.389 . S
C595 C594 1.389 . S
C595 C596 1.387 . S
C596 H581 0.930 . S
C596 C591 1.390 . S
C596 C595 1.387 . S
H597 C609 0.930 . S
H598 C611 0.930 . S
H599 C612 0.930 . S
H600 C616 0.959 . S
H601 C616 0.959 . S
H602 C616 0.961 . S
H603 C617 0.960 . S
H604 C617 0.961 . S
H605 C617 0.959 . S
H606 C620 0.929 . S
H607 C621 0.931 . S
H608 C623 0.930 . S
C609 H597 0.930 . S
C609 C610 1.399 . S
C609 C614 1.399 . S
C610 C609 1.399 . S
C610 C611 1.376 . S
C611 H598 0.930 . S
C611 C610 1.376 . S
C611 C612 1.388 . S
C612 H599 0.930 . S
C612 C611 1.388 . S
C612 C613 1.390 . S
C613 C612 1.390 . S
C613 C614 1.394 . S
C613 C619 1.465 . S
C614 C609 1.399 . S
C614 C613 1.394 . S
C614 C615 1.516 . S
C615 C614 1.516 . S
C615 C616 1.502 . S
C615 C617 1.561 . S
C615 C618 1.526 . S
C616 H600 0.959 . S
C616 H601 0.959 . S
C616 H602 0.961 . S
C616 C615 1.502 . S
C617 H603 0.960 . S
C617 H604 0.961 . S
C617 H605 0.959 . S
C617 C615 1.561 . S
C618 C615 1.526 . S
C618 C619 1.396 . S
C618 C623 1.390 . S
C619 C613 1.465 . S
C619 C618 1.396 . S
C619 C620 1.399 . S
C620 H606 0.929 . S
C620 C619 1.399 . S
C620 C621 1.385 . S
C621 H607 0.931 . S
C621 C620 1.385 . S
C621 C622 1.389 . S
C622 C621 1.389 . S
C622 C623 1.387 . S
C623 H608 0.930 . S
C623 C618 1.390 . S
C623 C622 1.387 . S
H624 C636 0.930 . S
H625 C638 0.930 . S
H626 C639 0.930 . S
H627 C643 0.959 . S
H628 C643 0.959 . S
H629 C643 0.961 . S
H630 C644 0.960 . S
H631 C644 0.961 . S
H632 C644 0.959 . S
H633 C647 0.929 . S
H634 C648 0.931 . S
H635 C650 0.930 . S
C636 H624 0.930 . S
C636 C637 1.399 . S
C636 C641 1.399 . S
C637 C636 1.399 . S
C637 C638 1.376 . S
C638 H625 0.930 . S
C638 C637 1.376 . S
C638 C639 1.388 . S
C639 H626 0.930 . S
C639 C638 1.388 . S
C639 C640 1.390 . S
C640 C639 1.390 . S
C640 C641 1.394 . S
C640 C646 1.465 . S
C641 C636 1.399 . S
C641 C640 1.394 . S
C641 C642 1.516 . S
C642 C641 1.516 . S
C642 C643 1.502 . S
C642 C644 1.561 . S
C642 C645 1.526 . S
C643 H627 0.959 . S
C643 H628 0.959 . S
C643 H629 0.961 . S
C643 C642 1.502 . S
C644 H630 0.960 . S
C644 H631 0.961 . S
C644 H632 0.959 . S
C644 C642 1.561 . S
C645 C642 1.526 . S
C645 C646 1.396 . S
C645 C650 1.390 . S
C646 C640 1.465 . S
C646 C645 1.396 . S
C646 C647 1.399 . S
C647 H633 0.929 . S
C647 C646 1.399 . S
C647 C648 1.385 . S
C648 H634 0.931 . S
C648 C647 1.385 . S
C648 C649 1.389 . S
C649 C648 1.389 . S
C649 C650 1.387 . S
C650 H635 0.930 . S
C650 C645 1.390 . S
C650 C649 1.387 . S
H651 C663 0.930 . S
H652 C665 0.930 . S
H653 C666 0.930 . S
H654 C670 0.959 . S
H655 C670 0.959 . S
H656 C670 0.961 . S
H657 C671 0.960 . S
H658 C671 0.961 . S
H659 C671 0.959 . S
H660 C674 0.929 . S
H661 C675 0.931 . S
H662 C677 0.930 . S
C663 H651 0.930 . S
C663 C664 1.399 . S
C663 C668 1.399 . S
C664 C663 1.399 . S
C664 C665 1.376 . S
C665 H652 0.930 . S
C665 C664 1.376 . S
C665 C666 1.388 . S
C666 H653 0.930 . S
C666 C665 1.388 . S
C666 C667 1.390 . S
C667 C666 1.390 . S
C667 C668 1.394 . S
C667 C673 1.465 . S
C668 C663 1.399 . S
C668 C667 1.394 . S
C668 C669 1.516 . S
C669 C668 1.516 . S
C669 C670 1.502 . S
C669 C671 1.561 . S
C669 C672 1.526 . S
C670 H654 0.959 . S
C670 H655 0.959 . S
C670 H656 0.961 . S
C670 C669 1.502 . S
C671 H657 0.960 . S
C671 H658 0.961 . S
C671 H659 0.959 . S
C671 C669 1.561 . S
C672 C669 1.526 . S
C672 C673 1.396 . S
C672 C677 1.390 . S
C673 C667 1.465 . S
C673 C672 1.396 . S
C673 C674 1.399 . S
C674 H660 0.929 . S
C674 C673 1.399 . S
C674 C675 1.385 . S
C675 H661 0.931 . S
C675 C674 1.385 . S
C675 C676 1.389 . S
C676 C675 1.389 . S
C676 C677 1.387 . S
C677 H662 0.930 . S
C677 C672 1.390 . S
C677 C676 1.387 . S
H678 C690 0.930 . S
H679 C692 0.930 . S
H680 C693 0.930 . S
H681 C697 0.959 . S
H682 C697 0.959 . S
H683 C697 0.961 . S
H684 C698 0.960 . S
H685 C698 0.961 . S
H686 C698 0.959 . S
H687 C701 0.929 . S
H688 C702 0.931 . S
H689 C704 0.930 . S
C690 H678 0.930 . S
C690 C691 1.399 . S
C690 C695 1.399 . S
C691 C690 1.399 . S
C691 C692 1.376 . S
C692 H679 0.930 . S
C692 C691 1.376 . S
C692 C693 1.388 . S
C693 H680 0.930 . S
C693 C692 1.388 . S
C693 C694 1.390 . S
C694 C693 1.390 . S
C694 C695 1.394 . S
C694 C700 1.465 . S
C695 C690 1.399 . S
C695 C694 1.394 . S
C695 C696 1.516 . S
C696 C695 1.516 . S
C696 C697 1.502 . S
C696 C698 1.561 . S
C696 C699 1.526 . S
C697 H681 0.959 . S
C697 H682 0.959 . S
C697 H683 0.961 . S
C697 C696 1.502 . S
C698 H684 0.960 . S
C698 H685 0.961 . S
C698 H686 0.959 . S
C698 C696 1.561 . S
C699 C696 1.526 . S
C699 C700 1.396 . S
C699 C704 1.390 . S
C700 C694 1.465 . S
C700 C699 1.396 . S
C700 C701 1.399 . S
C701 H687 0.929 . S
C701 C700 1.399 . S
C701 C702 1.385 . S
C702 H688 0.931 . S
C702 C701 1.385 . S
C702 C703 1.389 . S
C703 C702 1.389 . S
C703 C704 1.387 . S
C704 H689 0.930 . S
C704 C699 1.390 . S
C704 C703 1.387 . S
H705 C717 0.930 . S
H706 C719 0.930 . S
H707 C720 0.930 . S
H708 C724 0.959 . S
H709 C724 0.959 . S
H710 C724 0.961 . S
H711 C725 0.960 . S
H712 C725 0.961 . S
H713 C725 0.959 . S
H714 C728 0.929 . S
H715 C729 0.931 . S
H716 C731 0.930 . S
C717 H705 0.930 . S
C717 C718 1.399 . S
C717 C722 1.399 . S
C718 C717 1.399 . S
C718 C719 1.376 . S
C719 H706 0.930 . S
C719 C718 1.376 . S
C719 C720 1.388 . S
C720 H707 0.930 . S
C720 C719 1.388 . S
C720 C721 1.390 . S
C721 C720 1.390 . S
C721 C722 1.394 . S
C721 C727 1.465 . S
C722 C717 1.399 . S
C722 C721 1.394 . S
C722 C723 1.516 . S
C723 C722 1.516 . S
C723 C724 1.502 . S
C723 C725 1.561 . S
C723 C726 1.526 . S
C724 H708 0.959 . S
C724 H709 0.959 . S
C724 H710 0.961 . S
C724 C723 1.502 . S
C725 H711 0.960 . S
C725 H712 0.961 . S
C725 H713 0.959 . S
C725 C723 1.561 . S
C726 C723 1.526 . S
C726 C727 1.396 . S
C726 C731 1.390 . S
C727 C721 1.465 . S
C727 C726 1.396 . S
C727 C728 1.399 . S
C728 H714 0.929 . S
C728 C727 1.399 . S
C728 C729 1.385 . S
C729 H715 0.931 . S
C729 C728 1.385 . S
C729 C730 1.389 . S
C730 C729 1.389 . S
C730 C731 1.387 . S
C731 H716 0.930 . S
C731 C726 1.390 . S
C731 C730 1.387 . S
H732 C744 0.930 . S
H733 C746 0.930 . S
H734 C747 0.930 . S
H735 C751 0.959 . S
H736 C751 0.959 . S
H737 C751 0.961 . S
H738 C752 0.960 . S
H739 C752 0.961 . S
H740 C752 0.959 . S
H741 C755 0.929 . S
H742 C756 0.931 . S
H743 C758 0.930 . S
C744 H732 0.930 . S
C744 C745 1.399 . S
C744 C749 1.399 . S
C745 C744 1.399 . S
C745 C746 1.376 . S
C746 H733 0.930 . S
C746 C745 1.376 . S
C746 C747 1.388 . S
C747 H734 0.930 . S
C747 C746 1.388 . S
C747 C748 1.390 . S
C748 C747 1.390 . S
C748 C749 1.394 . S
C748 C754 1.465 1_565 S
C749 C744 1.399 . S
C749 C748 1.394 . S
C749 C750 1.516 . S
C750 C749 1.516 . S
C750 C751 1.502 . S
C750 C752 1.561 . S
C750 C753 1.526 1_565 S
C751 H735 0.959 . S
C751 H736 0.959 . S
C751 H737 0.961 . S
C751 C750 1.502 . S
C752 H738 0.960 . S
C752 H739 0.961 . S
C752 H740 0.959 . S
C752 C750 1.561 . S
C753 C750 1.526 1_545 S
C753 C754 1.396 . S
C753 C758 1.390 . S
C754 C748 1.465 1_545 S
C754 C753 1.396 . S
C754 C755 1.399 . S
C755 H741 0.929 . S
C755 C754 1.399 . S
C755 C756 1.385 . S
C756 H742 0.931 . S
C756 C755 1.385 . S
C756 C757 1.389 . S
C757 C756 1.389 . S
C757 C758 1.387 . S
C758 H743 0.930 . S
C758 C753 1.390 . S
C758 C757 1.387 . S
H759 C771 0.930 . S
H760 C773 0.930 . S
H761 C774 0.930 . S
H762 C778 0.959 . S
H763 C778 0.959 . S
H764 C778 0.961 . S
H765 C779 0.960 . S
H766 C779 0.961 . S
H767 C779 0.959 . S
H768 C782 0.929 1_655 S
H769 C783 0.931 . S
H770 C785 0.930 . S
C771 H759 0.930 . S
C771 C772 1.399 . S
C771 C776 1.399 . S
C772 C771 1.399 . S
C772 C773 1.376 . S
C773 H760 0.930 . S
C773 C772 1.376 . S
C773 C774 1.388 . S
C774 H761 0.930 . S
C774 C773 1.388 . S
C774 C775 1.390 . S
C775 C774 1.390 . S
C775 C776 1.394 . S
C775 C781 1.465 1_655 S
C776 C771 1.399 . S
C776 C775 1.394 . S
C776 C777 1.516 1_655 S
C777 C776 1.516 1_455 S
C777 C778 1.502 . S
C777 C779 1.561 . S
C777 C780 1.526 . S
C778 H762 0.959 . S
C778 H763 0.959 . S
C778 H764 0.961 . S
C778 C777 1.502 . S
C779 H765 0.960 . S
C779 H766 0.961 . S
C779 H767 0.959 . S
C779 C777 1.561 . S
C780 C777 1.526 . S
C780 C781 1.396 . S
C780 C785 1.390 . S
C781 C775 1.465 1_455 S
C781 C780 1.396 . S
C781 C782 1.399 . S
C782 H768 0.929 1_455 S
C782 C781 1.399 . S
C782 C783 1.385 . S
C783 H769 0.931 . S
C783 C782 1.385 . S
C783 C784 1.389 . S
C784 C783 1.389 . S
C784 C785 1.387 . S
C785 H770 0.930 . S
C785 C780 1.390 . S
C785 C784 1.387 . S
H786 C798 0.930 . S
H787 C800 0.930 . S
H788 C801 0.930 . S
H789 C805 0.959 1_545 S
H790 C805 0.959 . S
H791 C805 0.961 1_545 S
H792 C806 0.960 . S
H793 C806 0.961 . S
H794 C806 0.959 . S
H795 C809 0.929 . S
H796 C810 0.931 . S
H797 C812 0.930 . S
C798 H786 0.930 . S
C798 C799 1.399 . S
C798 C803 1.399 . S
C799 C798 1.399 . S
C799 C800 1.376 . S
C800 H787 0.930 . S
C800 C799 1.376 . S
C800 C801 1.388 . S
C801 H788 0.930 . S
C801 C800 1.388 . S
C801 C802 1.390 . S
C802 C801 1.390 . S
C802 C803 1.394 . S
C802 C808 1.465 1_545 S
C803 C798 1.399 . S
C803 C802 1.394 . S
C803 C804 1.516 1_545 S
C804 C803 1.516 1_565 S
C804 C805 1.502 . S
C804 C806 1.561 . S
C804 C807 1.526 . S
C805 H789 0.959 1_565 S
C805 H790 0.959 . S
C805 H791 0.961 1_565 S
C805 C804 1.502 . S
C806 H792 0.960 . S
C806 H793 0.961 . S
C806 H794 0.959 . S
C806 C804 1.561 . S
C807 C804 1.526 . S
C807 C808 1.396 . S
C807 C812 1.390 . S
C808 C802 1.465 1_565 S
C808 C807 1.396 . S
C808 C809 1.399 . S
C809 H795 0.929 . S
C809 C808 1.399 . S
C809 C810 1.385 . S
C810 H796 0.931 . S
C810 C809 1.385 . S
C810 C811 1.389 . S
C811 C810 1.389 . S
C811 C812 1.387 . S
C812 H797 0.930 . S
C812 C807 1.390 . S
C812 C811 1.387 . S
H813 C825 0.930 . S
H814 C827 0.930 . S
H815 C828 0.930 . S
H816 C832 0.959 . S
H817 C832 0.959 . S
H818 C832 0.961 . S
H819 C833 0.960 . S
H820 C833 0.961 . S
H821 C833 0.959 . S
H822 C836 0.929 1_655 S
H823 C837 0.931 . S
H824 C839 0.930 . S
C825 H813 0.930 . S
C825 C826 1.399 . S
C825 C830 1.399 . S
C826 C825 1.399 . S
C826 C827 1.376 . S
C827 H814 0.930 . S
C827 C826 1.376 . S
C827 C828 1.388 . S
C828 H815 0.930 . S
C828 C827 1.388 . S
C828 C829 1.390 . S
C829 C828 1.390 . S
C829 C830 1.394 . S
C829 C835 1.465 1_655 S
C830 C825 1.399 . S
C830 C829 1.394 . S
C830 C831 1.516 1_655 S
C831 C830 1.516 1_455 S
C831 C832 1.502 . S
C831 C833 1.561 . S
C831 C834 1.526 . S
C832 H816 0.959 . S
C832 H817 0.959 . S
C832 H818 0.961 . S
C832 C831 1.502 . S
C833 H819 0.960 . S
C833 H820 0.961 . S
C833 H821 0.959 . S
C833 C831 1.561 . S
C834 C831 1.526 . S
C834 C835 1.396 . S
C834 C839 1.390 . S
C835 C829 1.465 1_455 S
C835 C834 1.396 . S
C835 C836 1.399 . S
C836 H822 0.929 1_455 S
C836 C835 1.399 . S
C836 C837 1.385 . S
C837 H823 0.931 . S
C837 C836 1.385 . S
C837 C838 1.389 . S
C838 C837 1.389 . S
C838 C839 1.387 . S
C839 H824 0.930 . S
C839 C834 1.390 . S
C839 C838 1.387 . S
H840 C852 0.930 . S
H841 C854 0.930 . S
H842 C855 0.930 . S
H843 C859 0.959 . S
H844 C859 0.980 . S
H845 C859 0.961 . S
H846 C860 0.960 1_556 S
H847 C860 0.961 . S
H848 C860 0.959 . S
H849 C863 0.929 . S
H850 C864 0.931 . S
H851 C866 0.930 . S
C852 H840 0.930 . S
C852 C853 1.399 . S
C852 C857 1.399 . S
C853 C852 1.399 . S
C853 C854 1.376 . S
C854 H841 0.930 . S
C854 C853 1.376 . S
C854 C855 1.388 . S
C855 H842 0.930 . S
C855 C854 1.388 . S
C855 C856 1.390 . S
C856 C855 1.390 . S
C856 C857 1.394 . S
C856 C862 1.465 1_556 S
C857 C852 1.399 . S
C857 C856 1.394 . S
C857 C858 1.516 . S
C858 C857 1.516 . S
C858 C859 1.502 . S
C858 C860 1.561 1_556 S
C858 C861 1.526 1_556 S
C859 H843 0.959 . S
C859 H844 0.980 . S
C859 H845 0.961 . S
C859 C858 1.502 . S
C860 H846 0.960 1_554 S
C860 H847 0.961 . S
C860 H848 0.959 . S
C860 C858 1.561 1_554 S
C861 C858 1.526 1_554 S
C861 C862 1.396 . S
C861 C866 1.390 . S
C862 C856 1.465 1_554 S
C862 C861 1.396 . S
C862 C863 1.399 . S
C863 H849 0.929 . S
C863 C862 1.399 . S
C863 C864 1.385 . S
C864 H850 0.931 . S
C864 C863 1.385 . S
C864 C865 1.389 . S
C865 C864 1.389 . S
C865 C866 1.387 . S
C866 H851 0.930 . S
C866 C861 1.390 . S
C866 C865 1.387 . S
H867 C879 0.930 . S
H868 C881 0.930 . S
H869 C882 0.930 . S
H870 C886 0.959 . S
H871 C886 0.959 . S
H872 C886 0.961 . S
H873 C887 0.960 . S
H874 C887 0.961 . S
H875 C887 0.959 . S
H876 C890 0.929 1_554 S
H877 C891 0.931 . S
H878 C893 0.930 . S
C879 H867 0.930 . S
C879 C880 1.399 . S
C879 C884 1.399 . S
C880 C879 1.399 . S
C880 C881 1.376 . S
C881 H868 0.930 . S
C881 C880 1.376 . S
C881 C882 1.388 . S
C882 H869 0.930 . S
C882 C881 1.388 . S
C882 C883 1.390 . S
C883 C882 1.390 . S
C883 C884 1.394 . S
C883 C889 1.465 1_554 S
C884 C879 1.399 . S
C884 C883 1.394 . S
C884 C885 1.516 1_554 S
C885 C884 1.516 1_556 S
C885 C886 1.502 . S
C885 C887 1.561 . S
C885 C888 1.526 . S
C886 H870 0.959 . S
C886 H871 0.959 . S
C886 H872 0.961 . S
C886 C885 1.502 . S
C887 H873 0.960 . S
C887 H874 0.961 . S
C887 H875 0.959 . S
C887 C885 1.561 . S
C888 C885 1.526 . S
C888 C889 1.396 . S
C888 C893 1.390 . S
C889 C883 1.465 1_556 S
C889 C888 1.396 . S
C889 C890 1.399 . S
C890 H876 0.929 1_556 S
C890 C889 1.399 . S
C890 C891 1.385 . S
C891 H877 0.931 . S
C891 C890 1.385 . S
C891 C892 1.389 . S
C892 C891 1.389 . S
C892 C893 1.387 . S
C893 H878 0.930 . S
C893 C888 1.390 . S
C893 C892 1.387 . S
H894 C906 0.930 . S
H895 C908 0.930 . S
H896 C909 0.930 . S
H897 C913 0.959 . S
H898 C913 0.959 . S
H899 C913 0.961 . S
H900 C914 0.992 . S
H901 C914 0.940 1_556 S
H902 C914 0.943 1_556 S
H903 C917 0.929 . S
H904 C918 0.931 . S
H905 C920 0.930 . S
C906 H894 0.930 . S
C906 C907 1.399 . S
C906 C911 1.399 . S
C907 C906 1.399 . S
C907 C908 1.376 . S
C908 H895 0.930 . S
C908 C907 1.376 . S
C908 C909 1.388 . S
C909 H896 0.930 . S
C909 C908 1.388 . S
C909 C910 1.390 . S
C910 C909 1.390 . S
C910 C911 1.394 . S
C910 C916 1.465 1_554 S
C911 C906 1.399 . S
C911 C910 1.394 . S
C911 C912 1.516 . S
C912 C911 1.516 . S
C912 C913 1.502 . S
C912 C914 1.568 . S
C912 C915 1.526 1_554 S
C913 H897 0.959 . S
C913 H898 0.959 . S
C913 H899 0.961 . S
C913 C912 1.502 . S
C914 H900 0.992 . S
C914 H901 0.940 1_554 S
C914 H902 0.943 1_554 S
C914 C912 1.568 . S
C915 C912 1.526 1_556 S
C915 C916 1.396 . S
C915 C920 1.390 . S
C916 C910 1.465 1_556 S
C916 C915 1.396 . S
C916 C917 1.399 . S
C917 H903 0.929 . S
C917 C916 1.399 . S
C917 C918 1.385 . S
C918 H904 0.931 . S
C918 C917 1.385 . S
C918 C919 1.389 . S
C919 C918 1.389 . S
C919 C920 1.387 . S
C920 H905 0.930 . S
C920 C915 1.390 . S
C920 C919 1.387 . S
H921 C933 0.930 . S
H922 C935 0.930 . S
H923 C936 0.930 . S
H924 C940 0.959 . S
H925 C940 0.959 . S
H926 C940 0.961 . S
H927 C941 0.960 . S
H928 C941 0.961 . S
H929 C941 0.959 . S
H930 C944 0.929 1_556 S
H931 C945 0.931 . S
H932 C947 0.930 . S
C933 H921 0.930 . S
C933 C934 1.399 . S
C933 C938 1.399 . S
C934 C933 1.399 . S
C934 C935 1.376 . S
C935 H922 0.930 . S
C935 C934 1.376 . S
C935 C936 1.388 . S
C936 H923 0.930 . S
C936 C935 1.388 . S
C936 C937 1.390 . S
C937 C936 1.390 . S
C937 C938 1.394 . S
C937 C943 1.465 1_556 S
C938 C933 1.399 . S
C938 C937 1.394 . S
C938 C939 1.516 1_556 S
C939 C938 1.516 1_554 S
C939 C940 1.502 . S
C939 C941 1.561 . S
C939 C942 1.526 . S
C940 H924 0.959 . S
C940 H925 0.959 . S
C940 H926 0.961 . S
C940 C939 1.502 . S
C941 H927 0.960 . S
C941 H928 0.961 . S
C941 H929 0.959 . S
C941 C939 1.561 . S
C942 C939 1.526 . S
C942 C943 1.396 . S
C942 C947 1.390 . S
C943 C937 1.465 1_554 S
C943 C942 1.396 . S
C943 C944 1.399 . S
C944 H930 0.929 1_554 S
C944 C943 1.399 . S
C944 C945 1.385 . S
C945 H931 0.931 . S
C945 C944 1.385 . S
C945 C946 1.389 . S
C946 C945 1.389 . S
C946 C947 1.387 . S
C947 H932 0.930 . S
C947 C942 1.390 . S
C947 C946 1.387 . S
H948 C960 0.930 . S
H949 C962 0.930 . S
H950 C963 0.930 . S
H951 C967 0.959 . S
H952 C967 0.959 . S
H953 C967 0.961 1_655 S
H954 C968 0.960 . S
H955 C968 0.961 1_455 S
H956 C968 0.959 . S
H957 C971 0.929 . S
H958 C972 0.931 . S
H959 C974 0.930 . S
C960 H948 0.930 . S
C960 C961 1.399 . S
C960 C965 1.399 . S
C961 C960 1.399 . S
C961 C962 1.376 . S
C962 H949 0.930 . S
C962 C961 1.376 . S
C962 C963 1.388 . S
C963 H950 0.930 . S
C963 C962 1.388 . S
C963 C964 1.390 . S
C964 C963 1.390 . S
C964 C965 1.394 . S
C964 C970 1.465 1_655 S
C965 C960 1.399 . S
C965 C964 1.394 . S
C965 C966 1.516 1_655 S
C966 C965 1.516 1_455 S
C966 C967 1.502 . S
C966 C968 1.561 1_455 S
C966 C969 1.526 . S
C967 H951 0.959 . S
C967 H952 0.959 . S
C967 H953 0.961 1_455 S
C967 C966 1.502 . S
C968 H954 0.960 . S
C968 H955 0.961 1_655 S
C968 H956 0.959 . S
C968 C966 1.561 1_655 S
C969 C966 1.526 . S
C969 C970 1.396 . S
C969 C974 1.390 . S
C970 C964 1.465 1_455 S
C970 C969 1.396 . S
C970 C971 1.399 . S
C971 H957 0.929 . S
C971 C970 1.399 . S
C971 C972 1.385 . S
C972 H958 0.931 . S
C972 C971 1.385 . S
C972 C973 1.389 . S
C973 C972 1.389 . S
C973 C974 1.387 . S
C974 H959 0.930 . S
C974 C969 1.390 . S
C974 C973 1.387 . S
H975 C987 0.930 . S
H976 C989 0.930 . S
H977 C990 0.930 . S
H978 C994 0.959 . S
H979 C994 0.959 . S
H980 C994 0.961 . S
H981 C995 0.960 1_655 S
H982 C995 0.961 . S
H983 C995 0.959 . S
H984 C998 0.929 . S
H985 C999 0.931 . S
H986 C1001 0.930 . S
C987 H975 0.930 . S
C987 C988 1.399 . S
C987 C992 1.399 . S
C988 C987 1.399 . S
C988 C989 1.376 . S
C989 H976 0.930 . S
C989 C988 1.376 . S
C989 C990 1.388 . S
C990 H977 0.930 . S
C990 C989 1.388 . S
C990 C991 1.390 . S
C991 C990 1.390 . S
C991 C992 1.394 . S
C991 C997 1.465 1_655 S
C992 C987 1.399 . S
C992 C991 1.394 . S
C992 C993 1.516 . S
C993 C992 1.516 . S
C993 C994 1.502 . S
C993 C995 1.561 1_655 S
C993 C996 1.526 1_655 S
C994 H978 0.959 . S
C994 H979 0.959 . S
C994 H980 0.961 . S
C994 C993 1.502 . S
C995 H981 0.960 1_455 S
C995 H982 0.961 . S
C995 H983 0.959 . S
C995 C993 1.561 1_455 S
C996 C993 1.526 1_455 S
C996 C997 1.396 . S
C996 C1001 1.390 . S
C997 C991 1.465 1_455 S
C997 C996 1.396 . S
C997 C998 1.399 . S
C998 H984 0.929 . S
C998 C997 1.399 . S
C998 C999 1.385 . S
C999 H985 0.931 . S
C999 C998 1.385 . S
C999 C1000 1.389 . S
C1000 C999 1.389 . S
C1000 C1001 1.387 . S
C1001 H986 0.930 . S
C1001 C996 1.390 . S
C1001 C1000 1.387 . S
H1002 C1014 0.930 . S
H1003 C1016 0.930 . S
H1004 C1017 0.930 . S
H1005 C1021 0.959 . S
H1006 C1021 0.959 . S
H1007 C1021 0.961 . S
H1008 C1022 0.960 . S
H1009 C1022 0.961 1_545 S
H1010 C1022 0.959 . S
H1011 C1025 0.929 . S
H1012 C1026 0.931 . S
H1013 C1028 0.930 . S
C1014 H1002 0.930 . S
C1014 C1015 1.399 . S
C1014 C1019 1.399 . S
C1015 C1014 1.399 . S
C1015 C1016 1.376 . S
C1016 H1003 0.930 . S
C1016 C1015 1.376 . S
C1016 C1017 1.388 . S
C1017 H1004 0.930 . S
C1017 C1016 1.388 . S
C1017 C1018 1.390 . S
C1018 C1017 1.390 . S
C1018 C1019 1.394 . S
C1018 C1024 1.465 1_565 S
C1019 C1014 1.399 . S
C1019 C1018 1.394 . S
C1019 C1020 1.516 1_565 S
C1020 C1019 1.516 1_545 S
C1020 C1021 1.502 . S
C1020 C1022 1.561 1_545 S
C1020 C1023 1.526 . S
C1021 H1005 0.959 . S
C1021 H1006 0.959 . S
C1021 H1007 0.961 . S
C1021 C1020 1.502 . S
C1022 H1008 0.960 . S
C1022 H1009 0.961 1_565 S
C1022 H1010 0.959 . S
C1022 C1020 1.561 1_565 S
C1023 C1020 1.526 . S
C1023 C1024 1.396 . S
C1023 C1028 1.390 . S
C1024 C1018 1.465 1_545 S
C1024 C1023 1.396 . S
C1024 C1025 1.399 . S
C1025 H1011 0.929 . S
C1025 C1024 1.399 . S
C1025 C1026 1.385 . S
C1026 H1012 0.931 . S
C1026 C1025 1.385 . S
C1026 C1027 1.389 . S
C1027 C1026 1.389 . S
C1027 C1028 1.387 . S
C1028 H1013 0.930 . S
C1028 C1023 1.390 . S
C1028 C1027 1.387 . S
H1029 C1041 0.930 . S
H1030 C1043 0.930 . S
H1031 C1044 0.930 . S
H1032 C1048 0.959 . S
H1033 C1048 0.959 1_565 S
H1034 C1048 0.961 . S
H1035 C1049 0.960 . S
H1036 C1049 0.961 . S
H1037 C1049 0.959 . S
H1038 C1052 0.929 . S
H1039 C1053 0.931 . S
H1040 C1055 0.930 . S
C1041 H1029 0.930 . S
C1041 C1042 1.399 . S
C1041 C1046 1.399 . S
C1042 C1041 1.399 . S
C1042 C1043 1.376 . S
C1043 H1030 0.930 . S
C1043 C1042 1.376 . S
C1043 C1044 1.388 . S
C1044 H1031 0.930 . S
C1044 C1043 1.388 . S
C1044 C1045 1.390 . S
C1045 C1044 1.390 . S
C1045 C1046 1.394 . S
C1045 C1051 1.465 1_545 S
C1046 C1041 1.399 . S
C1046 C1045 1.394 . S
C1046 C1047 1.516 1_545 S
C1047 C1046 1.516 1_565 S
C1047 C1048 1.502 1_565 S
C1047 C1049 1.561 . S
C1047 C1050 1.526 . S
C1048 H1032 0.959 . S
C1048 H1033 0.959 1_545 S
C1048 H1034 0.961 . S
C1048 C1047 1.502 1_545 S
C1049 H1035 0.960 . S
C1049 H1036 0.961 . S
C1049 H1037 0.959 . S
C1049 C1047 1.561 . S
C1050 C1047 1.526 . S
C1050 C1051 1.396 . S
C1050 C1055 1.390 . S
C1051 C1045 1.465 1_565 S
C1051 C1050 1.396 . S
C1051 C1052 1.399 . S
C1052 H1038 0.929 . S
C1052 C1051 1.399 . S
C1052 C1053 1.385 . S
C1053 H1039 0.931 . S
C1053 C1052 1.385 . S
C1053 C1054 1.389 . S
C1054 C1053 1.389 . S
C1054 C1055 1.387 . S
C1055 H1040 0.930 . S
C1055 C1050 1.390 . S
C1055 C1054 1.387 . S
H1056 C1068 0.930 1_655 S
H1057 C1070 0.930 . S
H1058 C1071 0.925 1_565 S
H1059 C1075 0.959 . S
H1060 C1075 0.959 . S
H1061 C1075 0.961 . S
H1062 C1076 0.960 . S
H1063 C1076 0.961 . S
H1064 C1076 0.959 . S
H1065 C1079 0.929 . S
H1066 C1080 0.931 . S
H1067 C1082 0.930 . S
C1068 H1056 0.930 1_455 S
C1068 C1069 1.399 . S
C1068 C1073 1.399 . S
C1069 C1068 1.399 . S
C1069 C1070 1.376 . S
C1070 H1057 0.930 . S
C1070 C1069 1.376 . S
C1070 C1071 1.388 . S
C1071 H1058 0.925 1_545 S
C1071 C1070 1.388 . S
C1071 C1072 1.390 . S
C1072 C1071 1.390 . S
C1072 C1073 1.394 . S
C1072 C1078 1.465 1_545 S
C1073 C1068 1.399 . S
C1073 C1072 1.394 . S
C1073 C1074 1.516 1_455 S
C1074 C1073 1.516 1_655 S
C1074 C1075 1.502 . S
C1074 C1076 1.561 . S
C1074 C1077 1.526 1_545 S
C1075 H1059 0.959 . S
C1075 H1060 0.959 . S
C1075 H1061 0.961 . S
C1075 C1074 1.502 . S
C1076 H1062 0.960 . S
C1076 H1063 0.961 . S
C1076 H1064 0.959 . S
C1076 C1074 1.561 . S
C1077 C1074 1.526 1_565 S
C1077 C1078 1.396 1_655 S
C1077 C1082 1.390 . S
C1078 C1072 1.465 1_565 S
C1078 C1077 1.396 1_455 S
C1078 C1079 1.399 . S
C1079 H1065 0.929 . S
C1079 C1078 1.399 . S
C1079 C1080 1.385 1_455 S
C1080 H1066 0.931 . S
C1080 C1079 1.385 1_655 S
C1080 C1081 1.389 . S
C1081 C1080 1.389 . S
C1081 C1082 1.387 . S
C1082 H1067 0.930 . S
C1082 C1077 1.390 . S
C1082 C1081 1.387 . S
H1083 C1095 0.930 . S
H1084 C1097 0.930 . S
H1085 C1098 0.935 . S
H1086 C1102 0.959 . S
H1087 C1102 0.959 . S
H1088 C1102 0.961 . S
H1089 C1103 0.960 . S
H1090 C1103 0.961 1_545 S
H1091 C1103 0.959 . S
H1092 C1106 0.929 . S
H1093 C1107 0.931 . S
H1094 C1109 0.930 . S
C1095 H1083 0.930 . S
C1095 C1096 1.399 . S
C1095 C1100 1.399 . S
C1096 C1095 1.399 . S
C1096 C1097 1.376 . S
C1097 H1084 0.930 . S
C1097 C1096 1.376 . S
C1097 C1098 1.388 . S
C1098 H1085 0.935 . S
C1098 C1097 1.388 . S
C1098 C1099 1.390 . S
C1099 C1098 1.390 . S
C1099 C1100 1.394 . S
C1099 C1105 1.465 1_465 S
C1100 C1095 1.399 . S
C1100 C1099 1.394 . S
C1100 C1101 1.516 1_565 S
C1101 C1100 1.516 1_545 S
C1101 C1102 1.502 . S
C1101 C1103 1.561 1_445 S
C1101 C1104 1.526 1_455 S
C1102 H1086 0.959 . S
C1102 H1087 0.959 . S
C1102 H1088 0.961 . S
C1102 C1101 1.502 . S
C1103 H1089 0.960 . S
C1103 H1090 0.961 1_565 S
C1103 H1091 0.959 . S
C1103 C1101 1.561 1_665 S
C1104 C1101 1.526 1_655 S
C1104 C1105 1.396 . S
C1104 C1109 1.390 . S
C1105 C1099 1.465 1_645 S
C1105 C1104 1.396 . S
C1105 C1106 1.399 . S
C1106 H1092 0.929 . S
C1106 C1105 1.399 . S
C1106 C1107 1.385 . S
C1107 H1093 0.931 . S
C1107 C1106 1.385 . S
C1107 C1108 1.389 . S
C1108 C1107 1.389 . S
C1108 C1109 1.387 . S
C1109 H1094 0.930 . S
C1109 C1104 1.390 . S
C1109 C1108 1.387 . S
H1110 C1122 0.918 1_565 S
H1111 C1124 0.930 . S
H1112 C1125 0.930 . S
H1113 C1129 0.959 . S
H1114 C1129 0.959 . S
H1115 C1129 0.961 . S
H1116 C1130 0.960 . S
H1117 C1130 0.961 . S
H1118 C1130 0.959 . S
H1119 C1133 0.929 . S
H1120 C1134 0.931 . S
H1121 C1136 0.930 . S
C1122 H1110 0.918 1_545 S
C1122 C1123 1.399 . S
C1122 C1127 1.405 . S
C1123 C1122 1.399 . S
C1123 C1124 1.376 . S
C1124 H1111 0.930 . S
C1124 C1123 1.376 . S
C1124 C1125 1.388 . S
C1125 H1112 0.930 . S
C1125 C1124 1.388 . S
C1125 C1126 1.390 . S
C1126 C1125 1.390 . S
C1126 C1127 1.403 . S
C1126 C1132 1.465 1_554 S
C1127 C1122 1.405 . S
C1127 C1126 1.403 . S
C1127 C1128 1.502 1_545 S
C1128 C1127 1.502 1_565 S
C1128 C1129 1.502 . S
C1128 C1130 1.561 . S
C1128 C1131 1.526 1_554 S
C1129 H1113 0.959 . S
C1129 H1114 0.959 . S
C1129 H1115 0.961 . S
C1129 C1128 1.502 . S
C1130 H1116 0.960 . S
C1130 H1117 0.961 . S
C1130 H1118 0.959 . S
C1130 C1128 1.561 . S
C1131 C1128 1.526 1_556 S
C1131 C1132 1.396 1_565 S
C1131 C1136 1.390 . S
C1132 C1126 1.465 1_556 S
C1132 C1131 1.396 1_545 S
C1132 C1133 1.399 . S
C1133 H1119 0.929 . S
C1133 C1132 1.399 . S
C1133 C1134 1.385 1_545 S
C1134 H1120 0.931 . S
C1134 C1133 1.385 1_565 S
C1134 C1135 1.389 . S
C1135 C1134 1.389 . S
C1135 C1136 1.387 . S
C1136 H1121 0.930 . S
C1136 C1131 1.390 . S
C1136 C1135 1.387 . S
H1137 C1149 0.930 . S
H1138 C1151 0.930 . S
H1139 C1152 0.930 . S
H1140 C1156 0.959 . S
H1141 C1156 0.959 . S
H1142 C1156 0.961 . S
H1143 C1157 0.960 1_455 S
H1144 C1157 0.961 . S
H1145 C1157 0.959 . S
H1146 C1160 0.929 1_556 S
H1147 C1161 0.931 . S
H1148 C1163 0.930 . S
C1149 H1137 0.930 . S
C1149 C1150 1.399 . S
C1149 C1154 1.399 . S
C1150 C1149 1.399 . S
C1150 C1151 1.376 . S
C1151 H1138 0.930 . S
C1151 C1150 1.376 . S
C1151 C1152 1.388 . S
C1152 H1139 0.930 . S
C1152 C1151 1.388 . S
C1152 C1153 1.390 . S
C1153 C1152 1.390 . S
C1153 C1154 1.394 . S
C1153 C1159 1.465 1_456 S
C1154 C1149 1.399 . S
C1154 C1153 1.394 . S
C1154 C1155 1.516 1_556 S
C1155 C1154 1.516 1_554 S
C1155 C1156 1.502 . S
C1155 C1157 1.561 1_454 S
C1155 C1158 1.526 1_455 S
C1156 H1140 0.959 . S
C1156 H1141 0.959 . S
C1156 H1142 0.961 . S
C1156 C1155 1.502 . S
C1157 H1143 0.960 1_655 S
C1157 H1144 0.961 . S
C1157 H1145 0.959 . S
C1157 C1155 1.561 1_656 S
C1158 C1155 1.526 1_655 S
C1158 C1159 1.396 . S
C1158 C1163 1.390 . S
C1159 C1153 1.465 1_654 S
C1159 C1158 1.396 . S
C1159 C1160 1.399 . S
C1160 H1146 0.929 1_554 S
C1160 C1159 1.399 . S
C1160 C1161 1.385 . S
C1161 H1147 0.931 . S
C1161 C1160 1.385 . S
C1161 C1162 1.389 . S
C1162 C1161 1.389 . S
C1162 C1163 1.387 . S
C1163 H1148 0.930 . S
C1163 C1158 1.390 . S
C1163 C1162 1.387 . S
H1164 C1176 0.930 1_565 S
H1165 C1178 0.930 . S
H1166 C1179 0.930 1_554 S
H1167 C1183 0.959 . S
H1168 C1183 0.959 . S
H1169 C1183 0.961 . S
H1170 C1184 0.960 . S
H1171 C1184 0.961 . S
H1172 C1184 0.959 . S
H1173 C1187 0.929 . S
H1174 C1188 0.931 1_545 S
H1175 C1190 0.930 . S
C1176 H1164 0.930 1_545 S
C1176 C1177 1.399 . S
C1176 C1181 1.399 . S
C1177 C1176 1.399 . S
C1177 C1178 1.376 . S
C1178 H1165 0.930 . S
C1178 C1177 1.376 . S
C1178 C1179 1.388 . S
C1179 H1166 0.930 1_556 S
C1179 C1178 1.388 . S
C1179 C1180 1.390 . S
C1180 C1179 1.390 . S
C1180 C1181 1.394 . S
C1180 C1186 1.465 1_556 S
C1181 C1176 1.399 . S
C1181 C1180 1.394 . S
C1181 C1182 1.515 1_545 S
C1182 C1181 1.515 1_565 S
C1182 C1183 1.502 . S
C1182 C1184 1.561 . S
C1182 C1185 1.526 1_556 S
C1183 H1167 0.959 . S
C1183 H1168 0.959 . S
C1183 H1169 0.961 . S
C1183 C1182 1.502 . S
C1184 H1170 0.960 . S
C1184 H1171 0.961 . S
C1184 H1172 0.959 . S
C1184 C1182 1.561 . S
C1185 C1182 1.526 1_554 S
C1185 C1186 1.396 1_565 S
C1185 C1190 1.390 . S
C1186 C1180 1.465 1_554 S
C1186 C1185 1.396 1_545 S
C1186 C1187 1.399 . S
C1187 H1173 0.929 . S
C1187 C1186 1.399 . S
C1187 C1188 1.385 1_545 S
C1188 H1174 0.931 1_565 S
C1188 C1187 1.385 1_565 S
C1188 C1189 1.389 . S
C1189 C1188 1.389 . S
C1189 C1190 1.387 . S
C1190 H1175 0.930 . S
C1190 C1185 1.390 . S
C1190 C1189 1.387 . S
H1191 C1203 0.930 . S
H1192 C1205 0.930 . S
H1193 C1206 0.930 . S
H1194 C1210 0.959 . S
H1195 C1210 0.959 . S
H1196 C1210 0.961 . S
H1197 C1211 0.960 1_655 S
H1198 C1211 0.961 . S
H1199 C1211 0.959 . S
H1200 C1214 0.929 1_556 S
H1201 C1215 0.931 . S
H1202 C1217 0.930 . S
C1203 H1191 0.930 . S
C1203 C1204 1.399 . S
C1203 C1208 1.399 . S
C1204 C1203 1.399 . S
C1204 C1205 1.376 . S
C1205 H1192 0.930 . S
C1205 C1204 1.376 . S
C1205 C1206 1.388 . S
C1206 H1193 0.930 . S
C1206 C1205 1.388 . S
C1206 C1207 1.390 . S
C1207 C1206 1.390 . S
C1207 C1208 1.394 . S
C1207 C1213 1.465 1_656 S
C1208 C1203 1.399 . S
C1208 C1207 1.394 . S
C1208 C1209 1.516 1_556 S
C1209 C1208 1.516 1_554 S
C1209 C1210 1.502 . S
C1209 C1211 1.561 1_654 S
C1209 C1212 1.526 1_655 S
C1210 H1194 0.959 . S
C1210 H1195 0.959 . S
C1210 H1196 0.961 . S
C1210 C1209 1.502 . S
C1211 H1197 0.960 1_455 S
C1211 H1198 0.961 . S
C1211 H1199 0.959 . S
C1211 C1209 1.561 1_456 S
C1212 C1209 1.526 1_455 S
C1212 C1213 1.396 . S
C1212 C1217 1.390 . S
C1213 C1207 1.465 1_454 S
C1213 C1212 1.396 . S
C1213 C1214 1.399 . S
C1214 H1200 0.929 1_554 S
C1214 C1213 1.399 . S
C1214 C1215 1.385 . S
C1215 H1201 0.931 . S
C1215 C1214 1.385 . S
C1215 C1216 1.389 . S
C1216 C1215 1.389 . S
C1216 C1217 1.387 . S
C1217 H1202 0.930 . S
C1217 C1212 1.390 . S
C1217 C1216 1.387 . S
C421 C190 1.135 . S
C433 C9 1.136 . S
C448 C54 1.139 . S
C460 C213 1.034 . S
C475 C77 1.109 . S
C487 C258 1.149 . S
C502 C145 1.136 . S
C514 C122 1.138 . S
C529 C394 1.115 . S
C541 C43 1.115 . S
C556 C88 1.103 . S
C568 C281 1.071 . S
C583 C111 1.130 . S
C595 C326 1.143 . S
C610 C20 1.102 . S
C622 C349 1.044 . S
C637 C224 1.149 . S
C649 C383 1.107 . S
C664 C179 1.124 . S
C676 C360 1.120 . S
C691 C247 1.118 . S
C703 C292 1.117 . S
C718 C156 1.115 . S
C730 C315 1.005 . S
C745 C39 0.338 . S
C757 C5 0.399 . S
C772 C70 1.029 . S
C784 C36 0.975 . S
C799 C107 0.235 . S
C811 C73 0.206 . S
C826 C104 1.053 . S
C838 C2 1.011 . S
C853 C345 0.187 . S
C865 C141 0.287 . S
C880 C376 1.054 . S
C892 C172 1.013 . S
C907 C209 0.193 . S
C919 C277 0.312 . S
C934 C240 1.055 . S
C946 C308 1.016 . S
C961 C311 0.401 . S
C973 C379 0.351 . S
C988 C243 0.188 . S
C1000 C175 0.293 . S
C1015 C206 0.970 . S
C1027 C138 0.939 . S
C1042 C342 1.045 . S
C1054 C274 1.055 . S
C1069 C33 1.316 . S
C1081 C101 1.363 . S
C1096 C67 1.334 . S
C1108 C135 1.313 . S
C1123 C169 1.309 . S
C1135 C305 1.343 . S
C1150 C203 1.339 . S
C1162 C339 1.364 . S
C1177 C373 1.311 . S
C1189 C237 1.356 . S
C1204 C271 1.340 . S
C1216 C407 1.364 . S
