# Generated by pormake.
# Topology sxb, (6)-cn, num edge types: 1
# Building blocks:
#     Node 0, Type 0, BuildingBlock: KUMJIN_clean_sbu_1, # of connection points: 6
#     Node 1, Type 0, BuildingBlock: KUMJIN_clean_sbu_1, # of connection points: 6
#     Node 2, Type 0, BuildingBlock: KUMJIN_clean_sbu_1, # of connection points: 6
#     Node 3, Type 0, BuildingBlock: KUMJIN_clean_sbu_1, # of connection points: 6
#     Edge 4, Type (0, 0), BuildingBlock: ZUJKAS_clean_linker_0, # of connection points: 2
#     Edge 5, Type (0, 0), BuildingBlock: ZUJKAS_clean_linker_0, # of connection points: 2
#     Edge 6, Type (0, 0), BuildingBlock: ZUJKAS_clean_linker_0, # of connection points: 2
#     Edge 7, Type (0, 0), BuildingBlock: ZUJKAS_clean_linker_0, # of connection points: 2
#     Edge 8, Type (0, 0), BuildingBlock: ZUJKAS_clean_linker_0, # of connection points: 2
#     Edge 9, Type (0, 0), BuildingBlock: ZUJKAS_clean_linker_0, # of connection points: 2
#     Edge 10, Type (0, 0), BuildingBlock: ZUJKAS_clean_linker_0, # of connection points: 2
#     Edge 11, Type (0, 0), BuildingBlock: ZUJKAS_clean_linker_0, # of connection points: 2
#     Edge 12, Type (0, 0), BuildingBlock: ZUJKAS_clean_linker_0, # of connection points: 2
#     Edge 13, Type (0, 0), BuildingBlock: ZUJKAS_clean_linker_0, # of connection points: 2
#     Edge 14, Type (0, 0), BuildingBlock: ZUJKAS_clean_linker_0, # of connection points: 2
#     Edge 15, Type (0, 0), BuildingBlock: ZUJKAS_clean_linker_0, # of connection points: 2
# Relax obj value: 0.009
# Max RMSD: 0.046
# Mean RMSD: 0.046
data_MOF--net-sxb--node1-KUMJIN_clean_sbu_1--edge1-ZUJKAS_clean_linker_0
_symmetry_space_group_name_H-M    P1
_symmetry_Int_Tables_number       1
_symmetry_cell_setting            triclinic
loop_
_symmetry_equiv_pos_as_xyz
'x, y, z'
_cell_length_a     19.569031
_cell_length_b     55.383214
_cell_length_c     38.858888
_cell_angle_alpha  115.8026
_cell_angle_beta   90.028677
_cell_angle_gamma 89.736076
loop_
_atom_site_label
_atom_site_type_symbol
_atom_site_fract_x
_atom_site_fract_y
_atom_site_fract_z
_atom_type_partial_charge
Eu0 Eu 0.03227 0.9683 0.9769 0.0
C1 C 0.16504 0.07698 0.0574 0.0
N2 N 0.10978 0.06565 0.0659 0.0
C3 C 0.1558 0.07684 0.12827 0.0
C4 C 0.21986 0.08712 0.08332 0.0
C5 C 0.10258 0.06725 0.10179 0.0
C6 C 0.21533 0.0863 0.11871 0.0
C7 C 0.22255 0.09089 0.01352 0.0
C8 C 0.16617 0.07923 0.02308 0.0
C9 C 0.27793 0.10024 0.03882 0.0
C10 C 0.27658 0.09836 0.07361 0.0
Eu11 Eu 1.02393 0.04953 0.018 0.0
N12 N 0.11295 0.06923 -0.00153 0.0
C13 C 0.22195 0.09248 0.97851 0.0
C14 C 0.11154 0.07101 0.96459 0.0
C15 C 0.16605 0.08259 0.95402 0.0
H16 H 0.05519 0.06214 0.11093 0.0
H17 H 0.16499 0.08385 0.927 0.0
H18 H 0.95896 0.96056 0.89336 0.0
H19 H 0.94921 0.93181 0.07964 0.0
H20 H 0.06817 0.06354 0.94585 0.0
H21 H 0.26434 0.10129 0.97013 0.0
H22 H 0.02706 0.95376 0.05196 0.0
H23 H 0.15024 0.07746 0.15636 0.0
H24 H 0.32192 0.10907 0.03183 0.0
H25 H 0.31931 0.10601 0.09306 0.0
H26 H 0.85354 0.94214 0.85747 0.0
H27 H 0.25626 0.09392 0.13942 0.0
H28 H 0.84143 0.91163 0.04647 0.0
N29 N 0.93366 0.95072 0.93892 0.0
C30 C 0.88975 0.93729 0.95161 0.0
C31 C 0.86271 0.94093 0.88415 0.0
C32 C 0.82898 0.92609 0.93159 0.0
C33 C 0.92218 0.95181 0.905 0.0
C34 C 0.81557 0.92825 0.89767 0.0
N35 N 0.96265 0.94701 0.00476 0.0
C36 C 0.97938 0.94557 0.03787 0.0
C37 C 0.85896 0.92252 1e-05 0.0
C38 C 0.90461 0.93545 0.98546 0.0
C39 C 0.8752 0.92139 0.03438 0.0
C40 C 0.93583 0.93286 0.0533 0.0
H41 H 0.76946 0.91991 0.88146 0.0
H42 H 0.73646 0.90457 0.93107 0.0
H43 H 0.76265 0.90148 0.99091 0.0
O44 O 0.07939 0.93219 0.97765 0.0
O45 O 0.92941 0.98897 -3e-05 0.0
O46 O 0.92942 0.02618 0.98802 0.0
O47 O 0.08667 0.93937 0.92673 0.0
O48 O 0.0649 0.9935 0.03776 0.0
O49 O 0.99326 0.03014 0.0569 0.0
O50 O 0.98489 0.08508 0.01167 0.0
O51 O 0.12299 0.02753 0.98985 0.0
O52 O 0.12513 0.99283 0.00683 0.0
O53 O 0.96574 0.08046 0.06381 0.0
O54 O 0.99331 0.02618 0.95632 0.0
O55 O 0.05381 0.98608 0.93477 0.0
C56 C 0.89689 1.00788 0.99455 0.0
C57 C 0.14123 0.89841 0.92258 0.0
C58 C 0.1959 0.85765 0.92023 0.0
C59 C 0.21807 0.85134 0.88282 0.0
C60 C 0.16447 0.89144 0.88523 0.0
C61 C 0.20241 0.86808 0.86558 0.0
C62 C 0.15675 0.88127 0.93997 0.0
C63 C 0.02507 0.0115 0.06339 0.0
C64 C 0.10166 0.92365 0.94278 0.0
C65 C 0.78347 0.9132 0.94603 0.0
C66 C 0.79841 0.91142 0.98011 0.0
C67 C 0.15697 0.00966 -0.00305 0.0
C68 C 0.91791 0.12067 0.06245 0.0
C69 C 0.86798 0.16051 0.05956 0.0
C70 C 0.83818 0.16761 0.09563 0.0
C71 C 0.88735 0.12847 0.09849 0.0
C72 C 0.90863 0.137 0.04312 0.0
C73 C 0.84801 0.15176 0.11488 0.0
C74 C 0.02601 1.00596 0.92935 0.0
C75 C 0.95679 0.09503 0.04538 0.0
H76 H 0.247 0.83317 0.86657 0.0
H77 H 0.1534 0.90408 0.87107 0.0
H78 H 0.21979 0.86291 0.83676 0.0
H79 H 0.13947 0.88648 0.96884 0.0
H80 H 0.80766 0.1857 0.10924 0.0
H81 H 0.89334 0.11645 0.11407 0.0
H82 H 0.93157 0.13121 0.01525 0.0
H83 H 0.8248 0.15752 0.14265 0.0
Eu84 Eu 1.02393 0.04783 0.51888 0.0
C85 C 0.14346 0.93181 0.41379 0.0
N86 N 0.08039 0.94143 0.4115 0.0
C87 C 0.08701 0.92057 0.34311 0.0
C88 C 0.18137 0.91642 0.38045 0.0
C89 C 0.05131 0.93574 0.37692 0.0
C90 C 0.15243 0.91096 0.34486 0.0
C91 C 0.23612 0.92807 0.4529 0.0
C92 C 0.17057 0.93753 0.44964 0.0
C93 C 0.27405 0.91284 0.41973 0.0
C94 C 0.24677 0.90703 0.38364 0.0
Eu95 Eu 0.02516 0.96702 0.47016 0.0
N96 N 0.13369 0.95311 0.48136 0.0
C97 C 0.26176 0.93435 0.48945 0.0
C98 C 0.15713 0.95834 0.51694 0.0
C99 C 0.22184 0.94936 0.52157 0.0
H100 H 1.0001 0.94251 0.37534 0.0
H101 H 0.24077 0.95393 0.5499 0.0
H102 H 0.04575 0.0744 0.6139 0.0
H103 H 0.81117 0.05872 0.43533 0.0
H104 H 0.12612 0.9694 0.54175 0.0
H105 H 0.31199 0.92751 0.49315 0.0
H106 H 0.92581 0.04443 0.44544 0.0
H107 H 0.06391 0.91617 0.31572 0.0
H108 H 0.3246 0.90547 0.42169 0.0
H109 H 0.27668 0.89523 0.35833 0.0
H110 H 0.97963 0.10103 0.67258 0.0
H111 H 0.17994 0.89921 0.3186 0.0
H112 H 0.73728 0.08506 0.49087 0.0
N113 N 0.96633 0.07404 0.57651 0.0
C114 C 0.90315 0.0831 0.57313 0.0
C115 C 0.95733 0.09596 0.64479 0.0
C116 C 0.86389 0.09866 0.60583 0.0
C117 C 0.99432 0.08058 0.61157 0.0
C118 C 0.89168 0.10492 0.64193 0.0
N119 N 0.91569 0.06101 0.50574 0.0
C120 C 0.89364 0.0553 0.46975 0.0
C121 C 0.81174 0.08556 0.53242 0.0
C122 C 0.87735 0.07665 0.53681 0.0
C123 C 0.78749 0.07867 0.49544 0.0
C124 C 0.82892 0.06369 0.464 0.0
H125 H 0.86314 0.11685 0.66774 0.0
H126 H 0.76743 0.11935 0.62632 0.0
H127 H 0.72176 0.10784 0.56211 0.0
O128 O 0.05692 0.07242 0.49079 0.0
O129 O 0.92592 0.02624 0.52152 0.0
O130 O 0.92514 0.98653 0.46662 0.0
O131 O 0.07124 0.08697 0.55161 0.0
O132 O 0.04725 0.02417 0.45539 0.0
O133 O 0.98281 0.98567 0.43324 0.0
O134 O 0.99239 0.94248 0.49837 0.0
O135 O 0.12385 0.98863 0.46863 0.0
O136 O 0.12383 0.02861 0.52318 0.0
O137 O 0.97812 0.92784 0.4375 0.0
O138 O 1.00309 0.99048 0.53364 0.0
O139 O 0.06472 0.02978 0.5572 0.0
C140 C 0.89315 1.00605 0.49484 0.0
C141 C 0.15129 0.10044 0.51793 0.0
C142 C 0.22507 0.1332 0.50993 0.0
C143 C 0.28208 0.11714 0.50838 0.0
C144 C 0.20878 0.08477 0.51615 0.0
C145 C 0.27382 0.09311 0.51145 0.0
C146 C 0.15953 0.12462 0.51482 0.0
C147 C 1.01287 1.00502 0.42809 0.0
C148 C 0.08244 0.09129 0.52174 0.0
C149 C 0.79839 0.10745 0.60152 0.0
C150 C 0.77238 0.10091 0.56494 0.0
C151 C 0.15617 0.00892 0.4954 0.0
C152 C 0.89803 0.91446 0.47127 0.0
C153 C 0.82431 0.88194 0.47987 0.0
C154 C 0.76721 0.89779 0.4808 0.0
C155 C 0.84047 0.92991 0.47239 0.0
C156 C 0.88986 0.89051 0.47502 0.0
C157 C 0.77541 0.9216 0.4771 0.0
C158 C 0.03769 0.00937 0.56115 0.0
C159 C 0.96688 0.92358 0.46744 0.0
H160 H 0.33324 0.12328 0.50521 0.0
H161 H 0.20319 0.0661 0.51827 0.0
H162 H 0.318 0.08091 0.5102 0.0
H163 H 0.11479 0.13644 0.51551 0.0
H164 H 0.71604 0.89165 0.48393 0.0
H165 H 0.846 0.9484 0.46972 0.0
H166 H 0.93467 0.87887 0.47482 0.0
H167 H 0.73117 0.93364 0.47787 0.0
Eu168 Eu 0.51771 0.46891 0.97273 0.0
C169 C 0.65965 0.57789 0.05325 0.0
N170 N 0.60489 0.56923 0.06627 0.0
C171 C 0.65704 0.58381 0.12779 0.0
C172 C 0.71636 0.58939 0.0771 0.0
C173 C 0.6022 0.57231 0.10303 0.0
C174 C 0.71448 0.59229 0.11475 0.0
C175 C 0.71621 0.58298 0.00124 0.0
C176 C 0.65971 0.5744 0.01553 0.0
C177 C 0.77327 0.59403 0.02473 0.0
C178 C 0.77333 0.59724 0.06254 0.0
Eu179 Eu 0.51493 0.55021 0.02263 0.0
N180 N 0.60404 0.56334 0.99319 0.0
C181 C 0.71299 0.58083 0.96404 0.0
C182 C 0.59825 0.56368 0.95842 0.0
C183 C 0.65317 0.57165 0.94284 0.0
H184 H 0.55767 0.56589 0.11319 0.0
H185 H 0.64874 0.57125 0.91483 0.0
H186 H 0.53759 0.44698 0.878 0.0
H187 H 0.30965 0.45247 0.05381 0.0
H188 H 0.55067 0.5588 0.94311 0.0
H189 H 0.75528 0.58721 0.95203 0.0
H190 H 0.42125 0.46947 0.04502 0.0
H191 H 0.65504 0.58609 0.15689 0.0
H192 H 0.81729 0.6005 0.01409 0.0
H193 H 0.8176 0.60592 0.08035 0.0
H194 H 0.47268 0.42086 0.81887 0.0
H195 H 0.75708 0.60101 0.13394 0.0
H196 H 0.23824 0.42574 -0.00242 0.0
N197 N 0.46118 0.44374 0.91456 0.0
C198 C 0.39991 0.43317 0.91724 0.0
C199 C 0.45152 0.42429 0.84635 0.0
C200 C 0.36148 0.41791 0.88421 0.0
C201 C 0.48781 0.43931 0.87988 0.0
C202 C 0.388 0.4136 0.84851 0.0
N203 N 0.41187 0.4537 0.98472 0.0
C204 C 0.39016 0.45832 0.02039 0.0
C205 C 0.31097 0.42771 0.95689 0.0
C206 C 0.37489 0.43801 0.95323 0.0
C207 C 0.28715 0.43325 0.99356 0.0
C208 C 0.32717 0.44845 0.0254 0.0
H209 H 0.35999 0.40199 0.82247 0.0
H210 H 0.26757 0.39585 0.86273 0.0
H211 H 0.22338 0.40445 0.9263 0.0
O212 O 0.56294 0.44474 -0.001 0.0
O213 O 0.41602 0.48935 0.97225 0.0
O214 O 0.41504 0.53049 0.02512 0.0
O215 O 0.56276 0.42958 0.93762 0.0
O216 O 0.53496 0.49077 0.03691 0.0
O217 O 0.47723 0.53151 0.06045 0.0
O218 O 0.46397 0.58226 0.01175 0.0
O219 O 0.61007 0.52722 0.02682 0.0
O220 O 0.61405 0.49018 0.96911 0.0
O221 O 0.47975 0.58685 0.06986 0.0
O222 O 0.48634 0.52736 0.95959 0.0
O223 O 0.5554 0.48974 0.93776 0.0
C224 C 0.38342 0.51012 -0.00175 0.0
C225 C 0.65282 0.41531 0.96512 0.0
C226 C 0.73219 0.38239 0.96975 0.0
C227 C 0.78637 0.39568 0.96138 0.0
C228 C 0.70779 0.42818 0.95713 0.0
C229 C 0.77415 0.41841 0.95532 0.0
C230 C 0.66513 0.3925 0.97155 0.0
C231 C 0.50421 0.51115 0.06469 0.0
C232 C 0.58252 0.42543 0.96661 0.0
C233 C 0.29784 0.40759 0.8878 0.0
C234 C 0.27268 0.41247 0.92402 0.0
C235 C 0.64501 0.509 -0.0016 0.0
C236 C 0.42189 0.62407 0.06507 0.0
C237 C 0.3686 0.6627 0.06019 0.0
C238 C 0.35301 0.67361 0.09939 0.0
C239 C 0.40553 0.6357 0.10423 0.0
C240 C 0.40378 0.63784 0.04303 0.0
C241 C 0.37153 0.66025 0.12115 0.0
C242 C 0.51986 0.50781 0.93189 0.0
C243 C 0.45579 0.59733 0.0482 0.0
H244 H 0.83834 0.38832 0.95893 0.0
H245 H 0.69921 0.44565 0.95201 0.0
H246 H 0.81632 0.42839 0.94893 0.0
H247 H 0.6225 0.38289 0.97831 0.0
H248 H 0.32695 0.69276 0.11342 0.0
H249 H 0.41848 0.62572 0.12193 0.0
H250 H 0.41588 0.62916 0.01281 0.0
H251 H 0.35926 0.66893 0.15132 0.0
Eu252 Eu 0.52167 0.54924 0.52141 0.0
C253 C 0.64933 0.43464 0.42228 0.0
N254 N 0.58665 0.4436 0.41778 0.0
C255 C 0.60074 0.42275 0.34975 0.0
C256 C 0.69077 0.41961 0.39032 0.0
C257 C 0.56152 0.43767 0.38227 0.0
C258 C 0.66572 0.41375 0.35378 0.0
C259 C 0.73823 0.43248 0.46459 0.0
C260 C 0.67283 0.441 0.45908 0.0
C261 C 0.77955 0.41751 0.43277 0.0
C262 C 0.75589 0.41107 0.39577 0.0
Eu263 Eu 0.52504 0.46859 0.47437 0.0
N264 N 0.63274 0.45637 0.4895 0.0
C265 C 0.76042 0.43947 0.50197 0.0
C266 C 0.65289 0.46226 0.52586 0.0
C267 C 0.71732 0.45423 0.5327 0.0
H268 H 0.51078 0.44408 0.37892 0.0
H269 H 0.73353 0.4593 0.56166 0.0
H270 H 0.54098 0.57446 0.61667 0.0
H271 H 0.30998 0.55987 0.43709 0.0
H272 H 0.6194 0.47294 0.54964 0.0
H273 H 0.81041 0.43338 0.50739 0.0
H274 H 0.42434 0.54553 0.44759 0.0
H275 H 0.58074 0.41812 0.32161 0.0
H276 H 0.83003 0.41087 0.43648 0.0
H277 H 0.78847 0.39956 0.37154 0.0
H278 H 0.47384 0.60089 0.67497 0.0
H279 H 0.69601 0.40223 0.32851 0.0
H280 H 0.23563 0.58627 0.49239 0.0
N281 N 0.463 0.57491 0.57888 0.0
C282 C 0.40013 0.58413 0.57526 0.0
C283 C 0.45238 0.59618 0.6471 0.0
C284 C 0.36031 0.5995 0.6078 0.0
C285 C 0.48997 0.58097 0.61404 0.0
C286 C 0.38718 0.60541 0.64399 0.0
N287 N 0.41359 0.56221 0.50787 0.0
C288 C 0.39195 0.55644 0.4718 0.0
C289 C 0.30949 0.58675 0.53421 0.0
C290 C 0.37497 0.57784 0.53882 0.0
C291 C 0.28573 0.57987 0.49713 0.0
C292 C 0.3274 0.56485 0.46583 0.0
H293 H 0.35817 0.61718 0.66967 0.0
H294 H 0.26371 0.62017 0.62793 0.0
H295 H 0.21921 0.60895 0.56357 0.0
O296 O 0.55698 0.57373 0.49359 0.0
O297 O 0.42362 0.52765 0.52402 0.0
O298 O 0.42411 0.48729 0.47012 0.0
O299 O 0.56582 0.58885 0.55481 0.0
O300 O 0.54365 0.52561 0.45777 0.0
O301 O 0.48196 0.48633 0.43645 0.0
O302 O 0.49153 0.44311 0.501 0.0
O303 O 0.62194 0.49061 0.47119 0.0
O304 O 0.62177 0.53021 0.52606 0.0
O305 O 0.4813 0.42903 0.44001 0.0
O306 O 0.50101 0.49209 0.5377 0.0
O307 O 0.56334 0.53118 0.5593 0.0
C308 C 0.39152 0.50705 0.4977 0.0
C309 C 0.6484 0.6029 0.52317 0.0
C310 C 0.72229 0.63585 0.51579 0.0
C311 C 0.77966 0.62113 0.51791 0.0
C312 C 0.70626 0.58862 0.52523 0.0
C313 C 0.77151 0.59772 0.52267 0.0
C314 C 0.65649 0.62651 0.51851 0.0
C315 C 0.51093 0.50565 0.43069 0.0
C316 C 0.57951 0.59303 0.52506 0.0
C317 C 0.29506 0.60838 0.60325 0.0
C318 C 0.26972 0.60202 0.56658 0.0
C319 C 0.65438 0.51082 0.49799 0.0
C320 C 0.39984 0.41418 0.47133 0.0
C321 C 0.32666 0.381 0.47862 0.0
C322 C 0.26902 0.39589 0.47733 0.0
C323 C 0.34171 0.42864 0.47015 0.0
C324 C 0.39224 0.39036 0.4755 0.0
C325 C 0.27667 0.41951 0.47306 0.0
C326 C 0.53235 0.51227 0.56515 0.0
C327 C 0.46853 0.42419 0.46931 0.0
H328 H 0.83094 0.62792 0.51647 0.0
H329 H 0.70079 0.57048 0.52886 0.0
H330 H 0.8159 0.58664 0.52451 0.0
H331 H 0.61159 0.63734 0.51645 0.0
H332 H 0.2179 0.38911 0.4791 0.0
H333 H 0.34677 0.44698 0.46701 0.0
H334 H 0.43735 0.3794 0.47693 0.0
H335 H 0.23206 0.43074 0.47194 0.0
H336 H 0.44763 0.67759 0.01421 0.0
H337 H 0.41699 0.70994 0.98888 0.0
H338 H 0.21223 0.715 0.03249 0.0
H339 H 0.24275 0.68315 0.05811 0.0
H340 H 0.31609 0.71204 0.93872 0.0
H341 H 0.2742 0.79282 0.08476 0.0
H342 H 0.31552 0.76149 0.07611 0.0
H343 H 0.22392 0.76341 0.07415 0.0
C344 C 0.39579 0.68524 0.01768 0.0
C345 C 0.34781 0.67806 0.03848 0.0
C346 C 0.3784 0.70384 0.00344 0.0
C347 C 0.3128 0.71553 0.00974 0.0
C348 C 0.2637 0.70694 0.02825 0.0
H349 H 0.11369 0.83939 0.9614 0.0
H350 H 0.14163 0.80506 0.98334 0.0
C351 C 0.28107 0.68856 0.04262 0.0
C352 C 0.29595 0.73726 -0.00186 0.0
H353 H 0.24191 0.80254 0.03326 0.0
C354 C 0.30021 0.73186 0.95941 0.0
C355 C 0.27503 0.76317 0.02513 0.0
C356 C 0.27244 0.77073 0.0674 0.0
C357 C 0.28292 0.75143 0.94685 0.0
C358 C 0.26198 0.77733 0.97384 0.0
C359 C 0.25767 0.78271 0.01256 0.0
C360 C 0.24581 0.79923 0.96249 0.0
C361 C 0.28584 0.74398 0.90462 0.0
C362 C 0.29566 0.80815 0.94479 0.0
C363 C 0.27994 0.82776 0.93243 0.0
C364 C 0.21399 0.83913 0.93763 0.0
C365 C 0.16496 0.83113 0.95703 0.0
C366 C 0.18077 0.81138 0.96936 0.0
H367 H 0.28401 0.7219 0.88717 0.0
H368 H 0.24295 0.7533 0.89591 0.0
H369 H 0.3345 0.7513 0.89803 0.0
H370 H 0.34678 0.79974 0.94021 0.0
H371 H 0.31942 0.83385 0.91835 0.0
H372 H 0.84203 0.37282 0.0063 0.0
H373 H 0.86801 0.33257 0.01455 0.0
H374 H 0.67891 0.29706 0.95901 0.0
H375 H 0.65418 0.33673 0.94867 0.0
H376 H 0.8033 0.31065 0.0537 0.0
H377 H 0.80952 0.23662 0.9014 0.0
H378 H 0.80794 0.27233 0.91595 0.0
H379 H 0.7303 0.25477 0.91509 0.0
C380 C 0.80634 0.35631 0.99514 0.0
C381 C 0.74624 0.35809 0.97635 0.0
C382 C 0.82112 0.33331 0.00019 0.0
C383 C 0.77625 0.31142 0.98673 0.0
C384 C 0.7154 0.3133 0.96877 0.0
H385 H 0.74618 0.18041 0.04911 0.0
H386 H 0.72716 0.2156 0.02802 0.0
C387 C 0.70074 0.33628 0.96343 0.0
C388 C 0.79228 0.28719 0.99294 0.0
H389 H 0.81131 0.21886 0.94751 0.0
C390 C 0.80549 0.29065 0.03036 0.0
C391 C 0.79572 0.26098 0.96253 0.0
C392 C 0.7858 0.25591 0.92145 0.0
C393 C 0.82048 0.26872 0.03826 0.0
C394 C 0.82212 0.24257 0.00808 0.0
C395 C 0.8099 0.23898 0.97059 0.0
C396 C 0.83348 0.21881 0.01573 0.0
C397 C 0.83393 0.27348 0.07895 0.0
C398 C 0.89947 0.2084 0.01474 0.0
C399 C 0.91059 0.18817 0.02678 0.0
C400 C 0.85587 0.17824 0.04024 0.0
C401 C 0.78947 0.18783 0.03925 0.0
C402 C 0.77843 0.20788 0.02713 0.0
H403 H 0.83493 0.29516 0.09895 0.0
H404 H 0.79352 0.26367 0.08838 0.0
H405 H 0.88359 0.26428 0.08066 0.0
H406 H 0.94265 0.21667 0.00612 0.0
H407 H 0.9623 0.18135 0.0275 0.0
H408 H 0.31065 0.14274 0.46142 0.0
H409 H 0.32856 0.18494 0.45696 0.0
H410 H 0.17807 0.22365 0.54522 0.0
H411 H 0.16019 0.18152 0.55017 0.0
H412 H 0.1634 0.23493 0.48141 0.0
H413 H 0.4305 0.25074 0.53463 0.0
H414 H 0.41529 0.21863 0.4953 0.0
H415 H 0.37408 0.22708 0.54046 0.0
C416 C 0.28182 0.16028 0.48021 0.0
C417 C 0.23435 0.15875 0.5064 0.0
C418 C 0.29216 0.1844 0.47761 0.0
C419 C 0.25555 0.20756 0.50123 0.0
C420 C 0.20712 0.20603 0.52684 0.0
H421 H 0.23869 0.37174 0.52631 0.0
H422 H 0.22121 0.3299 0.5319 0.0
C423 C 0.19672 0.1819 0.52949 0.0
C424 C 0.26707 0.23327 0.49877 0.0
H425 H 0.38884 0.28004 0.50942 0.0
C426 C 0.21256 0.24489 0.48772 0.0
C427 C 0.33134 0.24617 0.50689 0.0
C428 C 0.39107 0.2352 0.52032 0.0
C429 C 0.22089 0.26878 0.48385 0.0
C430 C 0.28517 0.28172 0.49202 0.0
C431 C 0.33965 0.27011 0.50312 0.0
C432 C 0.29689 0.30733 0.48927 0.0
C433 C 0.16121 0.27958 0.47011 0.0
C434 C 0.34692 0.30888 0.4644 0.0
C435 C 0.35731 0.33285 0.46128 0.0
C436 C 0.31792 0.35579 0.48304 0.0
C437 C 0.26893 0.35431 0.50856 0.0
C438 C 0.25878 0.33038 0.51176 0.0
H439 H 0.12251 0.26384 0.45527 0.0
H440 H 0.13598 0.29586 0.49504 0.0
H441 H 0.17835 0.28799 0.45033 0.0
H442 H 0.3772 0.29138 0.44692 0.0
H443 H 0.3951 0.33323 0.44118 0.0
H444 H 0.89005 0.83367 0.44078 0.0
H445 H 0.87241 0.79186 0.44663 0.0
H446 H 0.72036 0.83091 0.53383 0.0
H447 H 0.73808 0.87281 0.5285 0.0
H448 H 0.88597 0.78146 0.51147 0.0
H449 H 0.62022 0.76441 0.45615 0.0
H450 H 0.67678 0.78794 0.45008 0.0
H451 H 0.63456 0.7968 0.49506 0.0
C452 C 0.85324 0.83345 0.46143 0.0
C453 C 0.81513 0.8566 0.48396 0.0
C454 C 0.84298 0.80949 0.46459 0.0
C455 C 0.79419 0.80814 0.49016 0.0
C456 C 0.75708 0.83131 0.51324 0.0
H457 H 0.65315 0.68356 0.55198 0.0
H458 H 0.67143 0.72514 0.54555 0.0
C459 C 0.76729 0.85526 0.51013 0.0
C460 C 0.78275 0.7826 0.49311 0.0
H461 H 0.66146 0.73565 0.48235 0.0
C462 C 0.83702 0.77135 0.50493 0.0
C463 C 0.71875 0.7695 0.48467 0.0
C464 C 0.65932 0.7801 0.47045 0.0
C465 C 0.82869 0.74763 0.50925 0.0
C466 C 0.76468 0.73449 0.50076 0.0
C467 C 0.71044 0.74574 0.48889 0.0
C468 C 0.75295 0.70905 0.50401 0.0
C469 C 0.88805 0.73723 0.52382 0.0
C470 C 0.79168 0.68602 0.48221 0.0
C471 C 0.78131 0.66225 0.48579 0.0
C472 C 0.73148 0.66091 0.511 0.0
C473 C 0.69158 0.68384 0.5321 0.0
C474 C 0.70218 0.70765 0.5286 0.0
H475 H 0.9263 0.75315 0.53874 0.0
H476 H 0.87043 0.72904 0.54376 0.0
H477 H 0.91398 0.72088 0.49929 0.0
H478 H 0.82986 0.68639 0.46228 0.0
H479 H 0.812 0.64482 0.46856 0.0
H480 H 0.24217 0.03334 0.96452 0.0
H481 H 0.3674 0.03331 0.96411 0.0
H482 H 0.36936 0.98476 0.02576 0.0
H483 H 0.24443 0.98511 0.02693 0.0
H484 H 0.46051 0.05112 0.02665 0.0
H485 H 0.49242 0.94236 0.93289 0.0
H486 H 0.41221 0.95975 0.93741 0.0
H487 H 0.43887 0.95006 0.97391 0.0
C488 C 0.2692 0.02293 0.9784 0.0
C489 C 0.23304 0.00945 0.99606 0.0
C490 C 0.34087 0.02277 0.97791 0.0
C491 C 0.37796 0.00873 0.99445 0.0
C492 C 0.342 0.99532 0.01218 0.0
H493 H 0.80953 0.98059 0.02027 0.0
H494 H 0.68453 0.98109 0.02003 0.0
C495 C 0.27042 0.9956 0.01289 0.0
C496 C 0.45417 0.00835 0.99364 0.0
H497 H 0.59276 0.96651 0.96185 0.0
C498 C 0.48947 0.03265 0.0123 0.0
C499 C 0.49202 0.98423 0.97508 0.0
C500 C 0.45712 0.95762 0.95338 0.0
C501 C 0.56139 0.03342 0.01362 0.0
C502 C 0.59935 0.0093 0.99495 0.0
C503 C 0.56392 0.98501 0.9762 0.0
C504 C 0.6757 0.00879 0.99453 0.0
C505 C 0.5959 0.06004 0.036 0.0
C506 C 0.71284 0.02375 0.97962 0.0
C507 C 0.78445 0.02347 0.97966 0.0
C508 C 0.82076 1.00792 0.99419 0.0
C509 C 0.78347 0.99259 0.00852 0.0
C510 C 0.71182 0.99294 0.00854 0.0
H511 H 0.56076 0.0748 0.05736 0.0
H512 H 0.64183 0.05774 0.05112 0.0
H513 H 0.6122 0.06841 0.01606 0.0
H514 H 0.68643 0.03558 0.96769 0.0
H515 H 0.81132 0.03532 0.96804 0.0
H516 H 0.24219 0.03642 0.55517 0.0
H517 H 0.36732 0.0362 0.55473 0.0
H518 H 0.36682 0.97998 0.43554 0.0
H519 H 0.24182 0.98065 0.43545 0.0
H520 H 0.45789 0.99225 0.53623 0.0
H521 H 0.49147 0.0406 0.43862 0.0
H522 H 0.41135 0.04135 0.46211 0.0
H523 H 0.43689 0.01172 0.42066 0.0
C524 C 0.2687 0.02417 0.52877 0.0
C525 C 0.23199 0.00868 0.49527 0.0
C526 C 0.3402 0.02398 0.52862 0.0
C527 C 0.37643 0.00838 0.49498 0.0
C528 C 0.33996 0.99257 0.46165 0.0
H529 H 0.80642 0.97903 0.43524 0.0
H530 H 0.68133 0.97959 0.43606 0.0
C531 C 0.26846 0.9928 0.46174 0.0
C532 C 0.45237 0.0084 0.49494 0.0
H533 H 0.59141 0.02351 0.45491 0.0
C534 C 0.48714 0.9992 0.51859 0.0
C535 C 0.49039 0.01745 0.47188 0.0
C536 C 0.45581 0.02857 0.4471 0.0
C537 C 0.55893 0.99832 0.51926 0.0
C538 C 0.59696 1.00735 0.49617 0.0
C539 C 0.56217 0.01658 0.47256 0.0
C540 C 0.6729 1.0072 0.49594 0.0
C541 C 0.59348 0.98715 0.544 0.0
C542 C 0.70977 0.02278 0.52922 0.0
C543 C 0.78127 0.02233 0.52893 0.0
C544 C 0.81734 1.00647 0.49523 0.0
C545 C 0.78023 0.99124 0.46178 0.0
C546 C 0.70874 0.99163 0.46214 0.0
H547 H 0.55778 0.97514 0.55249 0.0
H548 H 0.63787 0.97433 0.52894 0.0
H549 H 0.61249 1.00397 0.57043 0.0
H550 H 0.68323 0.03537 0.55545 0.0
H551 H 0.80824 0.03433 0.55517 0.0
H552 H 0.73254 0.48648 0.93788 0.0
H553 H 0.85747 0.48622 0.9389 0.0
H554 H 0.8543 0.53327 0.06123 0.0
H555 H 0.72925 0.53217 0.06058 0.0
H556 H 0.94754 0.5265 0.96037 0.0
H557 H 0.98181 0.47351 0.05175 0.0
H558 H 0.90039 0.47537 0.03121 0.0
H559 H 0.93024 0.50322 0.07374 0.0
C560 C 0.75843 0.49653 0.96508 0.0
C561 C 0.72088 0.5094 -0.00081 0.0
C562 C 0.82994 0.49649 0.96559 0.0
C563 C 0.86564 0.50936 0.00019 0.0
C564 C 0.8282 0.52264 0.03424 0.0
H565 H 0.29689 0.53994 0.05701 0.0
H566 H 0.17171 0.5395 0.05702 0.0
C567 C 0.7566 0.52239 0.03378 0.0
C568 C 0.94189 0.50921 0.00035 0.0
H569 H 0.0816 0.49247 0.03861 0.0
C570 C 0.97675 0.51892 0.97734 0.0
C571 C 0.98029 0.49923 0.02237 0.0
C572 C 0.94635 0.48699 0.04587 0.0
C573 C 0.04857 0.51932 0.97623 0.0
C574 C 0.08677 0.50967 -0.00141 0.0
C575 C 0.05216 0.49997 0.02162 0.0
C576 C 0.16278 0.50955 -0.00153 0.0
C577 C 0.08324 0.53047 0.95161 0.0
C578 C 0.19938 0.49265 0.96565 0.0
C579 C 0.27095 0.49283 0.96553 0.0
C580 C 0.30744 0.5099 -0.00171 0.0
C581 C 0.27052 0.52668 0.0312 0.0
C582 C 0.19895 0.52638 0.03133 0.0
H583 H 0.0471 0.54176 0.94191 0.0
H584 H 0.12582 0.54393 0.96739 0.0
H585 H 0.10514 0.51369 0.92595 0.0
H586 H 0.17253 0.47928 0.94009 0.0
H587 H 0.29762 0.47978 0.93962 0.0
H588 H 0.30552 0.53612 0.55714 0.0
H589 H 0.18043 0.53666 0.55688 0.0
H590 H 0.1806 0.47879 0.43855 0.0
H591 H 0.30563 0.47853 0.43831 0.0
H592 H 0.09071 0.54926 0.50887 0.0
H593 H 0.05414 0.44491 0.49068 0.0
H594 H 0.13351 0.46277 0.50704 0.0
H595 H 0.1117 0.4485 0.45719 0.0
C596 C 0.279 0.52357 0.531 0.0
C597 C 0.31565 0.50715 0.4978 0.0
C598 C 0.20747 0.52384 0.53096 0.0
C599 C 0.17115 0.50743 0.49789 0.0
C600 C 0.20754 0.4912 0.46462 0.0
H601 H 0.74022 0.48238 0.43814 0.0
H602 H 0.86532 0.48163 0.43834 0.0
C603 C 0.27905 0.49108 0.46454 0.0
C604 C 0.09521 0.50771 0.49796 0.0
H605 H 0.95514 0.46828 0.48665 0.0
C606 C 0.06103 0.53161 0.5042 0.0
C607 C 0.05661 0.48462 0.49177 0.0
C608 C 0.09061 0.45876 0.48658 0.0
C609 C 0.98928 0.53291 0.50378 0.0
C610 C 0.95069 0.50983 0.49757 0.0
C611 C 0.98485 0.48593 0.49132 0.0
C612 C 0.87476 0.51015 0.49769 0.0
C613 C 0.95524 0.55879 0.50908 0.0
C614 C 0.83848 0.52605 0.53117 0.0
C615 C 0.76697 0.52625 0.53129 0.0
C616 C 0.73026 0.51063 0.49785 0.0
C617 C 0.76682 0.49457 0.46442 0.0
C618 C 0.83835 0.49418 0.46443 0.0
H619 H 0.99178 0.57278 0.50539 0.0
H620 H 0.91275 0.5548 0.48838 0.0
H621 H 0.93356 0.56886 0.53835 0.0
H622 H 0.86553 0.53815 0.55735 0.0
H623 H 0.74047 0.53855 0.55767 0.0
H624 H 0.09398 0.03239 0.40031 0.0
H625 H 0.08605 0.03356 0.33839 0.0
H626 H 0.91326 0.98024 0.30885 0.0
H627 H 0.92164 0.97856 0.37065 0.0
H628 H 1.00368 0.96534 0.25087 0.0
H629 H 0.9487 0.07382 0.30538 0.0
H630 H 0.0254 0.06762 0.32558 0.0
H631 H 0.94448 0.05654 0.33541 0.0
C632 C 0.05412 0.02097 0.38071 0.0
C633 C 1.00847 1.00534 0.39033 0.0
C634 C 0.04936 0.02182 0.34542 0.0
C635 C 0.99817 1.00745 0.31933 0.0
C636 C 0.95289 0.99161 0.32868 0.0
H637 H 0.91918 0.03109 0.11397 0.0
H638 H 0.90682 0.02939 0.17571 0.0
C639 C 0.95792 0.99059 0.36392 0.0
C640 C 0.99365 0.00825 0.28177 0.0
H641 H 0.98506 0.05112 0.23996 0.0
C642 C 0.99889 0.98407 0.24847 0.0
C643 C 0.98603 0.03265 0.27862 0.0
C644 C 0.97508 0.05909 0.31316 0.0
C645 C 0.99952 0.98371 0.21215 0.0
C646 C 0.99652 0.00826 0.20916 0.0
C647 C 0.98841 0.03235 0.24235 0.0
C648 C 1.00378 0.00941 0.17196 0.0
C649 C 1.0031 0.95702 0.17733 0.0
C650 C 0.06298 0.9993 0.14989 0.0
C651 C 0.06998 1.00017 0.11473 0.0
C652 C 1.01818 0.01141 0.10115 0.0
C653 C 0.95978 0.02225 0.12375 0.0
C654 C 0.95262 0.02124 0.1589 0.0
H655 H 0.98382 0.94053 0.18364 0.0
H656 H 0.97301 0.95738 0.15333 0.0
H657 H 0.05711 0.95242 0.168 0.0
H658 H 0.10398 0.99082 0.15994 0.0
H659 H 0.11608 0.99209 0.09818 0.0
H660 H 0.09166 0.96918 0.86532 0.0
H661 H 0.09729 0.96884 0.8022 0.0
H662 H 0.9755 0.04114 0.84349 0.0
H663 H 0.96666 0.04091 0.90573 0.0
H664 H 0.93167 1.00677 0.77664 0.0
H665 H 0.21303 0.01455 0.76898 0.0
H666 H 0.18681 0.98593 0.7758 0.0
H667 H 0.1695 0.01918 0.81234 0.0
C668 C 0.06604 0.985 0.86095 0.0
C669 C 0.02937 1.00525 0.89081 0.0
C670 C 0.06991 0.98492 0.82494 0.0
C671 C 0.03818 1.00532 0.81833 0.0
C672 C 1.00087 0.0253 0.84795 0.0
H673 H 0.10879 0.04259 0.62544 0.0
H674 H 0.10837 0.04192 0.68798 0.0
C675 C 0.99611 0.02517 0.88366 0.0
C676 C 0.04138 1.00557 0.78033 0.0
H677 H 0.15093 1.00589 0.71211 0.0
C678 C 0.97968 1.00667 0.76262 0.0
C679 C 0.10402 1.0059 0.76231 0.0
C680 C 0.1721 1.00661 0.78098 0.0
C681 C 0.97871 1.00795 0.72738 0.0
C682 C 0.04123 1.00708 0.70855 0.0
C683 C 0.10304 1.00624 0.72637 0.0
C684 C 0.04325 1.00708 0.6704 0.0
C685 C 0.91064 0.01092 0.71126 0.0
C686 C 1.0082 0.98739 0.63954 0.0
C687 C 1.00676 0.98817 0.60416 0.0
C688 C 0.04149 0.0084 0.59861 0.0
C689 C 0.07955 0.02731 0.62903 0.0
C690 C 0.08004 0.02676 0.66469 0.0
H691 H 0.87132 0.01967 0.73405 0.0
H692 H 0.91478 0.02383 0.6961 0.0
H693 H 0.89246 0.99085 0.69068 0.0
H694 H 0.9814 0.97147 0.64287 0.0
H695 H 0.97796 0.97293 0.58125 0.0
H696 H 0.59589 0.53 0.40016 0.0
H697 H 0.58687 0.53063 0.33793 0.0
H698 H 0.40536 0.48203 0.31331 0.0
H699 H 0.41564 0.4805 0.37518 0.0
H700 H 0.48537 0.46496 0.25287 0.0
H701 H 0.45899 0.57491 0.30871 0.0
H702 H 0.536 0.56609 0.32557 0.0
H703 H 0.45429 0.55808 0.33927 0.0
C704 C 0.55399 0.51947 0.38151 0.0
C705 C 0.50627 0.50529 0.39256 0.0
C706 C 0.54856 0.52003 0.34606 0.0
C707 C 0.49438 0.507 0.32134 0.0
C708 C 0.44728 0.49242 0.33205 0.0
H709 H 0.41277 0.53771 0.12224 0.0
H710 H 0.40443 0.53581 0.18392 0.0
C711 C 0.45328 0.4915 0.36733 0.0
C712 C 0.48816 0.50802 0.28392 0.0
H713 H 0.48795 0.55102 0.24223 0.0
C714 C 0.48519 0.48379 0.25057 0.0
C715 C 0.48633 0.53259 0.28088 0.0
C716 C 0.48328 0.55936 0.31557 0.0
C717 C 0.48298 0.48343 0.21425 0.0
C718 C 0.48625 0.50795 0.21114 0.0
C719 C 0.48662 0.5322 0.24453 0.0
C720 C 0.49074 0.5089 0.17361 0.0
C721 C 0.47639 0.45674 0.17968 0.0
C722 C 0.5427 0.49484 0.14761 0.0
C723 C 0.54693 0.49559 0.11225 0.0
C724 C 0.50029 0.51098 0.10254 0.0
C725 C 0.4495 0.52572 0.129 0.0
C726 C 0.44462 0.5246 0.16418 0.0
H727 H 0.45122 0.44169 0.18713 0.0
H728 H 0.44653 0.45859 0.15663 0.0
H729 H 0.5281 0.44898 0.16851 0.0
H730 H 0.58036 0.48336 0.15472 0.0
H731 H 0.58727 0.48433 0.09267 0.0
H732 H 0.62183 0.53898 0.62359 0.0
H733 H 0.62548 0.53832 0.68626 0.0
H734 H 0.44804 0.48733 0.65635 0.0
H735 H 0.44497 0.48741 0.59365 0.0
H736 H 0.53401 0.55436 0.74433 0.0
H737 H 0.5798 0.4452 0.68916 0.0
H738 H 0.58706 0.46256 0.65937 0.0
H739 H 0.5046 0.45247 0.66892 0.0
C740 C 0.58352 0.52771 0.63049 0.0
C741 C 0.53337 0.51312 0.60367 0.0
C742 C 0.58576 0.52729 0.66621 0.0
C743 C 0.53793 0.51229 0.67564 0.0
C744 C 0.48667 0.49839 0.64928 0.0
H745 H 0.4269 0.52916 0.90042 0.0
H746 H 0.43402 0.53052 0.8384 0.0
C747 C 0.48477 0.49859 0.61353 0.0
C748 C 0.54073 0.51137 0.71318 0.0
H749 H 0.54457 0.46818 0.75452 0.0
C750 C 0.53689 0.53554 0.7466 0.0
C751 C 0.54584 0.48683 0.71613 0.0
C752 C 0.55531 0.46033 0.68148 0.0
C753 C 0.53576 0.53578 0.78287 0.0
C754 C 0.53665 0.51113 0.78567 0.0
C755 C 0.54275 0.48703 0.75231 0.0
C756 C 0.53148 0.50986 0.8229 0.0
C757 C 0.5345 0.56243 0.81781 0.0
C758 C 0.58248 0.49686 0.8341 0.0
C759 C 0.57795 0.49568 0.8692 0.0
C760 C 0.52232 0.50753 0.89374 0.0
C761 C 0.47062 0.52007 0.88218 0.0
C762 C 0.47492 0.52105 0.84693 0.0
H763 H 0.55478 0.57875 0.81141 0.0
H764 H 0.48094 0.56764 0.82774 0.0
H765 H 0.5649 0.56167 0.84145 0.0
H766 H 0.62635 0.48795 0.81589 0.0
H767 H 0.6188 0.48604 0.87749 0.0
loop_
_geom_bond_atom_site_label_1
_geom_bond_atom_site_label_2
_geom_bond_distance
_geom_bond_site_symmetry_2
_ccdc_geom_bond_type
Eu0 N29 2.600 . S
Eu0 N35 2.562 . S
Eu0 O44 2.462 1_655 S
Eu0 O45 2.373 . S
Eu0 O47 2.432 1_655 S
Eu0 O48 2.291 1_556 S
Eu0 O52 2.335 1_655 S
Eu0 O55 2.372 1_655 S
Eu0 C64 2.787 1_655 S
C1 N2 1.365 . S
C1 C4 1.405 . S
C1 C8 1.448 . S
N2 C1 1.365 . S
N2 C5 1.319 . S
N2 Eu11 2.600 . S
C3 C5 1.397 . S
C3 C6 1.367 . S
C3 H23 0.931 . S
C4 C1 1.405 . S
C4 C6 1.403 . S
C4 C10 1.439 . S
C5 N2 1.319 . S
C5 C3 1.397 . S
C5 H16 0.930 . S
C6 C3 1.367 . S
C6 C4 1.403 . S
C6 H27 0.929 . S
C7 C8 1.430 . S
C7 C9 1.387 . S
C7 C13 1.404 . S
C8 C1 1.448 . S
C8 C7 1.430 . S
C8 N12 1.351 . S
C9 C7 1.387 . S
C9 C10 1.374 . S
C9 H24 0.931 . S
C10 C4 1.439 . S
C10 C9 1.374 . S
C10 H25 0.931 . S
Eu11 N2 2.600 . S
Eu11 N12 2.562 . S
Eu11 O46 2.335 1_455 S
Eu11 O49 2.372 1_455 S
Eu11 O50 2.462 1_455 S
Eu11 O51 2.373 . S
Eu11 O53 2.432 1_455 S
Eu11 O54 2.291 1_554 S
Eu11 C75 2.787 1_455 S
N12 C8 1.351 . S
N12 Eu11 2.562 . S
N12 C14 1.325 1_554 S
C13 C7 1.404 . S
C13 C15 1.366 1_554 S
C13 H21 0.930 1_554 S
C14 N12 1.325 1_556 S
C14 C15 1.416 . S
C14 H20 0.929 . S
C15 C13 1.366 1_556 S
C15 C14 1.416 . S
C15 H17 0.930 . S
H16 C5 0.930 . S
H17 C15 0.930 . S
H18 C33 0.930 . S
H19 C40 0.930 . S
H20 C14 0.929 . S
H21 C13 0.930 1_556 S
H22 C36 0.929 . S
H23 C3 0.931 . S
H24 C9 0.931 . S
H25 C10 0.931 . S
H26 C31 0.931 . S
H27 C6 0.929 . S
H28 C39 0.930 1_554 S
N29 Eu0 2.600 . S
N29 C30 1.365 . S
N29 C33 1.319 . S
C30 N29 1.365 . S
C30 C32 1.405 . S
C30 C38 1.448 . S
C31 H26 0.931 . S
C31 C33 1.397 . S
C31 C34 1.367 . S
C32 C30 1.405 . S
C32 C34 1.403 . S
C32 C65 1.439 . S
C33 H18 0.930 . S
C33 N29 1.319 . S
C33 C31 1.397 . S
C34 C31 1.367 . S
C34 C32 1.403 . S
C34 H41 0.929 . S
N35 Eu0 2.562 . S
N35 C36 1.325 1_556 S
N35 C38 1.351 . S
C36 H22 0.929 . S
C36 N35 1.325 1_554 S
C36 C40 1.416 . S
C37 C38 1.430 . S
C37 C39 1.404 . S
C37 C66 1.387 . S
C38 C30 1.448 . S
C38 N35 1.351 . S
C38 C37 1.430 . S
C39 H28 0.930 1_556 S
C39 C37 1.404 . S
C39 C40 1.366 1_556 S
C40 H19 0.930 . S
C40 C36 1.416 . S
C40 C39 1.366 1_554 S
H41 C34 0.929 . S
H42 C65 0.931 . S
H43 C66 0.931 . S
O44 Eu0 2.462 1_455 S
O44 C64 1.252 . S
O45 Eu0 2.373 . S
O45 C56 1.249 1_565 S
O46 Eu11 2.335 1_655 S
O46 C56 1.264 1_554 S
O47 Eu0 2.432 1_455 S
O47 C64 1.268 . S
O48 Eu0 2.291 1_554 S
O48 C63 1.255 1_565 S
O49 Eu11 2.372 1_655 S
O49 C63 1.257 . S
O50 Eu11 2.462 1_655 S
O50 C75 1.252 . S
O51 Eu11 2.373 . S
O51 C67 1.249 1_545 S
O52 Eu0 2.335 1_455 S
O52 C67 1.264 1_556 S
O53 Eu11 2.432 1_655 S
O53 C75 1.268 . S
O54 Eu11 2.291 1_556 S
O54 C74 1.255 1_545 S
O55 Eu0 2.372 1_455 S
O55 C74 1.257 . S
C56 O45 1.249 1_545 S
C56 O46 1.264 1_556 S
C57 C60 1.382 . S
C57 C62 1.390 . S
C57 C64 1.506 . S
C58 C59 1.398 . S
C58 C62 1.392 . S
C59 C58 1.398 . S
C59 C61 1.372 . S
C59 H76 0.931 . S
C60 C57 1.382 . S
C60 C61 1.390 . S
C60 H77 0.931 . S
C61 C59 1.372 . S
C61 C60 1.390 . S
C61 H78 0.929 . S
C62 C57 1.390 . S
C62 C58 1.392 . S
C62 H79 0.930 1_556 S
C63 O48 1.255 1_545 S
C63 O49 1.257 . S
C64 Eu0 2.787 1_455 S
C64 O44 1.252 . S
C64 O47 1.268 . S
C64 C57 1.506 . S
C65 C32 1.439 . S
C65 H42 0.931 . S
C65 C66 1.374 . S
C66 C37 1.387 . S
C66 H43 0.931 . S
C66 C65 1.374 . S
C67 O51 1.249 1_565 S
C67 O52 1.264 1_554 S
C68 C71 1.382 . S
C68 C72 1.390 . S
C68 C75 1.506 . S
C69 C70 1.398 . S
C69 C72 1.392 . S
C70 C69 1.398 . S
C70 C73 1.372 . S
C70 H80 0.931 . S
C71 C68 1.382 . S
C71 C73 1.390 . S
C71 H81 0.931 . S
C72 C68 1.390 . S
C72 C69 1.392 . S
C72 H82 0.930 1_554 S
C73 C70 1.372 . S
C73 C71 1.390 . S
C73 H83 0.929 . S
C74 O54 1.255 1_565 S
C74 O55 1.257 . S
C75 Eu11 2.787 1_655 S
C75 O50 1.252 . S
C75 O53 1.268 . S
C75 C68 1.506 . S
H76 C59 0.931 . S
H77 C60 0.931 . S
H78 C61 0.929 . S
H79 C62 0.930 1_554 S
H80 C70 0.931 . S
H81 C71 0.931 . S
H82 C72 0.930 1_556 S
H83 C73 0.929 . S
Eu84 N113 2.600 . S
Eu84 N119 2.562 . S
Eu84 O128 2.462 1_655 S
Eu84 O129 2.373 . S
Eu84 O131 2.432 1_655 S
Eu84 O132 2.291 . S
Eu84 O136 2.335 1_655 S
Eu84 O139 2.372 1_655 S
Eu84 C148 2.787 1_655 S
C85 N86 1.365 . S
C85 C88 1.405 . S
C85 C92 1.448 . S
N86 C85 1.365 . S
N86 C89 1.319 . S
N86 Eu95 2.600 . S
C87 C89 1.397 . S
C87 C90 1.367 . S
C87 H107 0.931 . S
C88 C85 1.405 . S
C88 C90 1.403 . S
C88 C94 1.439 . S
C89 N86 1.319 . S
C89 C87 1.397 . S
C89 H100 0.930 . S
C90 C87 1.367 . S
C90 C88 1.403 . S
C90 H111 0.929 . S
C91 C92 1.430 . S
C91 C93 1.387 . S
C91 C97 1.404 . S
C92 C85 1.448 . S
C92 C91 1.430 . S
C92 N96 1.351 . S
C93 C91 1.387 . S
C93 C94 1.374 . S
C93 H108 0.931 . S
C94 C88 1.439 . S
C94 C93 1.374 . S
C94 H109 0.931 . S
Eu95 N86 2.600 . S
Eu95 N96 2.562 . S
Eu95 O130 2.335 1_455 S
Eu95 O133 2.372 1_455 S
Eu95 O134 2.462 1_455 S
Eu95 O135 2.373 . S
Eu95 O137 2.432 1_455 S
Eu95 O138 2.291 . S
Eu95 C159 2.787 1_455 S
N96 C92 1.351 . S
N96 Eu95 2.562 . S
N96 C98 1.325 . S
C97 C91 1.404 . S
C97 C99 1.366 . S
C97 H105 0.930 . S
C98 N96 1.325 . S
C98 C99 1.416 . S
C98 H104 0.929 . S
C99 C97 1.366 . S
C99 C98 1.416 . S
C99 H101 0.930 . S
H100 C89 0.930 . S
H101 C99 0.930 . S
H102 C117 0.930 . S
H103 C124 0.930 . S
H104 C98 0.929 . S
H105 C97 0.930 . S
H106 C120 0.929 . S
H107 C87 0.931 . S
H108 C93 0.931 . S
H109 C94 0.931 . S
H110 C115 0.931 . S
H111 C90 0.929 . S
H112 C123 0.930 . S
N113 Eu84 2.600 . S
N113 C114 1.365 . S
N113 C117 1.319 . S
C114 N113 1.365 . S
C114 C116 1.405 . S
C114 C122 1.448 . S
C115 H110 0.931 . S
C115 C117 1.397 . S
C115 C118 1.367 . S
C116 C114 1.405 . S
C116 C118 1.403 . S
C116 C149 1.439 . S
C117 H102 0.930 . S
C117 N113 1.319 . S
C117 C115 1.397 . S
C118 C115 1.367 . S
C118 C116 1.403 . S
C118 H125 0.929 . S
N119 Eu84 2.562 . S
N119 C120 1.325 . S
N119 C122 1.351 . S
C120 H106 0.929 . S
C120 N119 1.325 . S
C120 C124 1.416 . S
C121 C122 1.430 . S
C121 C123 1.404 . S
C121 C150 1.387 . S
C122 C114 1.448 . S
C122 N119 1.351 . S
C122 C121 1.430 . S
C123 H112 0.930 . S
C123 C121 1.404 . S
C123 C124 1.366 . S
C124 H103 0.930 . S
C124 C120 1.416 . S
C124 C123 1.366 . S
H125 C118 0.929 . S
H126 C149 0.931 . S
H127 C150 0.931 . S
O128 Eu84 2.462 1_455 S
O128 C148 1.252 . S
O129 Eu84 2.373 . S
O129 C140 1.249 1_545 S
O130 Eu95 2.335 1_655 S
O130 C140 1.264 . S
O131 Eu84 2.432 1_455 S
O131 C148 1.268 . S
O132 Eu84 2.291 . S
O132 C147 1.255 1_545 S
O133 Eu95 2.372 1_655 S
O133 C147 1.257 . S
O134 Eu95 2.462 1_655 S
O134 C159 1.252 . S
O135 Eu95 2.373 . S
O135 C151 1.249 1_565 S
O136 Eu84 2.335 1_455 S
O136 C151 1.264 . S
O137 Eu95 2.432 1_655 S
O137 C159 1.268 . S
O138 Eu95 2.291 . S
O138 C158 1.255 1_565 S
O139 Eu84 2.372 1_455 S
O139 C158 1.257 . S
C140 O129 1.249 1_565 S
C140 O130 1.264 . S
C141 C144 1.382 . S
C141 C146 1.390 . S
C141 C148 1.506 . S
C142 C143 1.398 . S
C142 C146 1.392 . S
C143 C142 1.398 . S
C143 C145 1.372 . S
C143 H160 0.931 . S
C144 C141 1.382 . S
C144 C145 1.390 . S
C144 H161 0.931 . S
C145 C143 1.372 . S
C145 C144 1.390 . S
C145 H162 0.929 . S
C146 C141 1.390 . S
C146 C142 1.392 . S
C146 H163 0.930 . S
C147 O132 1.255 1_565 S
C147 O133 1.257 . S
C148 Eu84 2.787 1_455 S
C148 O128 1.252 . S
C148 O131 1.268 . S
C148 C141 1.506 . S
C149 C116 1.439 . S
C149 H126 0.931 . S
C149 C150 1.374 . S
C150 C121 1.387 . S
C150 H127 0.931 . S
C150 C149 1.374 . S
C151 O135 1.249 1_545 S
C151 O136 1.264 . S
C152 C155 1.382 . S
C152 C156 1.390 . S
C152 C159 1.506 . S
C153 C154 1.398 . S
C153 C156 1.392 . S
C154 C153 1.398 . S
C154 C157 1.372 . S
C154 H164 0.931 . S
C155 C152 1.382 . S
C155 C157 1.390 . S
C155 H165 0.931 . S
C156 C152 1.390 . S
C156 C153 1.392 . S
C156 H166 0.930 . S
C157 C154 1.372 . S
C157 C155 1.390 . S
C157 H167 0.929 . S
C158 O138 1.255 1_545 S
C158 O139 1.257 . S
C159 Eu95 2.787 1_655 S
C159 O134 1.252 . S
C159 O137 1.268 . S
C159 C152 1.506 . S
H160 C143 0.931 . S
H161 C144 0.931 . S
H162 C145 0.929 . S
H163 C146 0.930 . S
H164 C154 0.931 . S
H165 C155 0.931 . S
H166 C156 0.930 . S
H167 C157 0.929 . S
Eu168 N197 2.600 . S
Eu168 N203 2.562 . S
Eu168 O212 2.462 . S
Eu168 O213 2.373 . S
Eu168 O215 2.432 . S
Eu168 O216 2.291 1_556 S
Eu168 O220 2.335 . S
Eu168 O223 2.372 . S
Eu168 C232 2.787 . S
C169 N170 1.365 . S
C169 C172 1.405 . S
C169 C176 1.448 . S
N170 C169 1.365 . S
N170 C173 1.319 . S
N170 Eu179 2.600 . S
C171 C173 1.397 . S
C171 C174 1.367 . S
C171 H191 0.931 . S
C172 C169 1.405 . S
C172 C174 1.403 . S
C172 C178 1.439 . S
C173 N170 1.319 . S
C173 C171 1.397 . S
C173 H184 0.930 . S
C174 C171 1.367 . S
C174 C172 1.403 . S
C174 H195 0.929 . S
C175 C176 1.430 . S
C175 C177 1.387 . S
C175 C181 1.404 . S
C176 C169 1.448 . S
C176 C175 1.430 . S
C176 N180 1.351 . S
C177 C175 1.387 . S
C177 C178 1.374 . S
C177 H192 0.931 . S
C178 C172 1.439 . S
C178 C177 1.374 . S
C178 H193 0.931 . S
Eu179 N170 2.600 . S
Eu179 N180 2.562 . S
Eu179 O214 2.335 . S
Eu179 O217 2.372 . S
Eu179 O218 2.462 . S
Eu179 O219 2.373 . S
Eu179 O221 2.432 . S
Eu179 O222 2.291 1_554 S
Eu179 C243 2.787 . S
N180 C176 1.351 . S
N180 Eu179 2.562 . S
N180 C182 1.325 1_554 S
C181 C175 1.404 . S
C181 C183 1.366 1_554 S
C181 H189 0.930 1_554 S
C182 N180 1.325 1_556 S
C182 C183 1.416 . S
C182 H188 0.929 . S
C183 C181 1.366 1_556 S
C183 C182 1.416 . S
C183 H185 0.930 . S
H184 C173 0.930 . S
H185 C183 0.930 . S
H186 C201 0.930 . S
H187 C208 0.930 . S
H188 C182 0.929 . S
H189 C181 0.930 1_556 S
H190 C204 0.929 . S
H191 C171 0.931 . S
H192 C177 0.931 . S
H193 C178 0.931 . S
H194 C199 0.931 . S
H195 C174 0.929 . S
H196 C207 0.930 1_554 S
N197 Eu168 2.600 . S
N197 C198 1.365 . S
N197 C201 1.319 . S
C198 N197 1.365 . S
C198 C200 1.405 . S
C198 C206 1.448 . S
C199 H194 0.931 . S
C199 C201 1.397 . S
C199 C202 1.367 . S
C200 C198 1.405 . S
C200 C202 1.403 . S
C200 C233 1.439 . S
C201 H186 0.930 . S
C201 N197 1.319 . S
C201 C199 1.397 . S
C202 C199 1.367 . S
C202 C200 1.403 . S
C202 H209 0.929 . S
N203 Eu168 2.562 . S
N203 C204 1.325 1_556 S
N203 C206 1.351 . S
C204 H190 0.929 . S
C204 N203 1.325 1_554 S
C204 C208 1.416 . S
C205 C206 1.430 . S
C205 C207 1.404 . S
C205 C234 1.387 . S
C206 C198 1.448 . S
C206 N203 1.351 . S
C206 C205 1.430 . S
C207 H196 0.930 1_556 S
C207 C205 1.404 . S
C207 C208 1.366 1_556 S
C208 H187 0.930 . S
C208 C204 1.416 . S
C208 C207 1.366 1_554 S
H209 C202 0.929 . S
H210 C233 0.931 . S
H211 C234 0.931 . S
O212 Eu168 2.462 . S
O212 C232 1.252 . S
O213 Eu168 2.373 . S
O213 C224 1.249 . S
O214 Eu179 2.335 . S
O214 C224 1.264 1_554 S
O215 Eu168 2.432 . S
O215 C232 1.268 . S
O216 Eu168 2.291 1_554 S
O216 C231 1.255 . S
O217 Eu179 2.372 . S
O217 C231 1.257 . S
O218 Eu179 2.462 . S
O218 C243 1.252 . S
O219 Eu179 2.373 . S
O219 C235 1.249 . S
O220 Eu168 2.335 . S
O220 C235 1.264 1_556 S
O221 Eu179 2.432 . S
O221 C243 1.268 . S
O222 Eu179 2.291 1_556 S
O222 C242 1.255 . S
O223 Eu168 2.372 . S
O223 C242 1.257 . S
C224 O213 1.249 . S
C224 O214 1.264 1_556 S
C225 C228 1.382 . S
C225 C230 1.390 . S
C225 C232 1.506 . S
C226 C227 1.398 . S
C226 C230 1.392 . S
C227 C226 1.398 . S
C227 C229 1.372 . S
C227 H244 0.931 . S
C228 C225 1.382 . S
C228 C229 1.390 . S
C228 H245 0.931 . S
C229 C227 1.372 . S
C229 C228 1.390 . S
C229 H246 0.929 . S
C230 C225 1.390 . S
C230 C226 1.392 . S
C230 H247 0.930 1_556 S
C231 O216 1.255 . S
C231 O217 1.257 . S
C232 Eu168 2.787 . S
C232 O212 1.252 . S
C232 O215 1.268 . S
C232 C225 1.506 . S
C233 C200 1.439 . S
C233 H210 0.931 . S
C233 C234 1.374 . S
C234 C205 1.387 . S
C234 H211 0.931 . S
C234 C233 1.374 . S
C235 O219 1.249 . S
C235 O220 1.264 1_554 S
C236 C239 1.382 . S
C236 C240 1.390 . S
C236 C243 1.506 . S
C237 C238 1.398 . S
C237 C240 1.392 . S
C238 C237 1.398 . S
C238 C241 1.372 . S
C238 H248 0.931 . S
C239 C236 1.382 . S
C239 C241 1.390 . S
C239 H249 0.931 . S
C240 C236 1.390 . S
C240 C237 1.392 . S
C240 H250 0.930 1_554 S
C241 C238 1.372 . S
C241 C239 1.390 . S
C241 H251 0.929 . S
C242 O222 1.255 . S
C242 O223 1.257 . S
C243 Eu179 2.787 . S
C243 O218 1.252 . S
C243 O221 1.268 . S
C243 C236 1.506 . S
H244 C227 0.931 . S
H245 C228 0.931 . S
H246 C229 0.929 . S
H247 C230 0.930 1_554 S
H248 C238 0.931 . S
H249 C239 0.931 . S
H250 C240 0.930 1_556 S
H251 C241 0.929 . S
Eu252 N281 2.600 . S
Eu252 N287 2.562 . S
Eu252 O296 2.462 . S
Eu252 O297 2.373 . S
Eu252 O299 2.432 . S
Eu252 O300 2.291 . S
Eu252 O304 2.335 . S
Eu252 O307 2.372 . S
Eu252 C316 2.787 . S
C253 N254 1.365 . S
C253 C256 1.405 . S
C253 C260 1.448 . S
N254 C253 1.365 . S
N254 C257 1.319 . S
N254 Eu263 2.600 . S
C255 C257 1.397 . S
C255 C258 1.367 . S
C255 H275 0.931 . S
C256 C253 1.405 . S
C256 C258 1.403 . S
C256 C262 1.439 . S
C257 N254 1.319 . S
C257 C255 1.397 . S
C257 H268 0.930 . S
C258 C255 1.367 . S
C258 C256 1.403 . S
C258 H279 0.929 . S
C259 C260 1.430 . S
C259 C261 1.387 . S
C259 C265 1.404 . S
C260 C253 1.448 . S
C260 C259 1.430 . S
C260 N264 1.351 . S
C261 C259 1.387 . S
C261 C262 1.374 . S
C261 H276 0.931 . S
C262 C256 1.439 . S
C262 C261 1.374 . S
C262 H277 0.931 . S
Eu263 N254 2.600 . S
Eu263 N264 2.562 . S
Eu263 O298 2.335 . S
Eu263 O301 2.372 . S
Eu263 O302 2.462 . S
Eu263 O303 2.373 . S
Eu263 O305 2.432 . S
Eu263 O306 2.291 . S
Eu263 C327 2.787 . S
N264 C260 1.351 . S
N264 Eu263 2.562 . S
N264 C266 1.325 . S
C265 C259 1.404 . S
C265 C267 1.366 . S
C265 H273 0.930 . S
C266 N264 1.325 . S
C266 C267 1.416 . S
C266 H272 0.929 . S
C267 C265 1.366 . S
C267 C266 1.416 . S
C267 H269 0.930 . S
H268 C257 0.930 . S
H269 C267 0.930 . S
H270 C285 0.930 . S
H271 C292 0.930 . S
H272 C266 0.929 . S
H273 C265 0.930 . S
H274 C288 0.929 . S
H275 C255 0.931 . S
H276 C261 0.931 . S
H277 C262 0.931 . S
H278 C283 0.931 . S
H279 C258 0.929 . S
H280 C291 0.930 . S
N281 Eu252 2.600 . S
N281 C282 1.365 . S
N281 C285 1.319 . S
C282 N281 1.365 . S
C282 C284 1.405 . S
C282 C290 1.448 . S
C283 H278 0.931 . S
C283 C285 1.397 . S
C283 C286 1.367 . S
C284 C282 1.405 . S
C284 C286 1.403 . S
C284 C317 1.439 . S
C285 H270 0.930 . S
C285 N281 1.319 . S
C285 C283 1.397 . S
C286 C283 1.367 . S
C286 C284 1.403 . S
C286 H293 0.929 . S
N287 Eu252 2.562 . S
N287 C288 1.325 . S
N287 C290 1.351 . S
C288 H274 0.929 . S
C288 N287 1.325 . S
C288 C292 1.416 . S
C289 C290 1.430 . S
C289 C291 1.404 . S
C289 C318 1.387 . S
C290 C282 1.448 . S
C290 N287 1.351 . S
C290 C289 1.430 . S
C291 H280 0.930 . S
C291 C289 1.404 . S
C291 C292 1.366 . S
C292 H271 0.930 . S
C292 C288 1.416 . S
C292 C291 1.366 . S
H293 C286 0.929 . S
H294 C317 0.931 . S
H295 C318 0.931 . S
O296 Eu252 2.462 . S
O296 C316 1.252 . S
O297 Eu252 2.373 . S
O297 C308 1.249 . S
O298 Eu263 2.335 . S
O298 C308 1.264 . S
O299 Eu252 2.432 . S
O299 C316 1.268 . S
O300 Eu252 2.291 . S
O300 C315 1.255 . S
O301 Eu263 2.372 . S
O301 C315 1.257 . S
O302 Eu263 2.462 . S
O302 C327 1.252 . S
O303 Eu263 2.373 . S
O303 C319 1.249 . S
O304 Eu252 2.335 . S
O304 C319 1.264 . S
O305 Eu263 2.432 . S
O305 C327 1.268 . S
O306 Eu263 2.291 . S
O306 C326 1.255 . S
O307 Eu252 2.372 . S
O307 C326 1.257 . S
C308 O297 1.249 . S
C308 O298 1.264 . S
C309 C312 1.382 . S
C309 C314 1.390 . S
C309 C316 1.506 . S
C310 C311 1.398 . S
C310 C314 1.392 . S
C311 C310 1.398 . S
C311 C313 1.372 . S
C311 H328 0.931 . S
C312 C309 1.382 . S
C312 C313 1.390 . S
C312 H329 0.931 . S
C313 C311 1.372 . S
C313 C312 1.390 . S
C313 H330 0.929 . S
C314 C309 1.390 . S
C314 C310 1.392 . S
C314 H331 0.930 . S
C315 O300 1.255 . S
C315 O301 1.257 . S
C316 Eu252 2.787 . S
C316 O296 1.252 . S
C316 O299 1.268 . S
C316 C309 1.506 . S
C317 C284 1.439 . S
C317 H294 0.931 . S
C317 C318 1.374 . S
C318 C289 1.387 . S
C318 H295 0.931 . S
C318 C317 1.374 . S
C319 O303 1.249 . S
C319 O304 1.264 . S
C320 C323 1.382 . S
C320 C324 1.390 . S
C320 C327 1.506 . S
C321 C322 1.398 . S
C321 C324 1.392 . S
C322 C321 1.398 . S
C322 C325 1.372 . S
C322 H332 0.931 . S
C323 C320 1.382 . S
C323 C325 1.390 . S
C323 H333 0.931 . S
C324 C320 1.390 . S
C324 C321 1.392 . S
C324 H334 0.930 . S
C325 C322 1.372 . S
C325 C323 1.390 . S
C325 H335 0.929 . S
C326 O306 1.255 . S
C326 O307 1.257 . S
C327 Eu263 2.787 . S
C327 O302 1.252 . S
C327 O305 1.268 . S
C327 C320 1.506 . S
H328 C311 0.931 . S
H329 C312 0.931 . S
H330 C313 0.929 . S
H331 C314 0.930 . S
H332 C322 0.931 . S
H333 C323 0.931 . S
H334 C324 0.930 . S
H335 C325 0.929 . S
H336 C344 0.929 . S
H337 C346 0.930 . S
H338 C348 0.930 . S
H339 C351 0.929 . S
H340 C354 0.930 . S
H341 C356 0.960 . S
H342 C356 0.960 . S
H343 C356 0.960 . S
C344 H336 0.929 . S
C344 C345 1.393 . S
C344 C346 1.384 . S
C345 C344 1.393 . S
C345 C351 1.385 1_556 S
C346 H337 0.930 . S
C346 C344 1.384 . S
C346 C347 1.379 . S
C347 C346 1.379 . S
C347 C348 1.378 1_556 S
C347 C352 1.505 . S
C348 H338 0.930 . S
C348 C347 1.378 1_554 S
C348 C351 1.386 . S
H349 C365 0.930 . S
H350 C366 0.931 . S
C351 H339 0.929 . S
C351 C345 1.385 1_554 S
C351 C348 1.386 . S
C352 C347 1.505 . S
C352 C354 1.395 . S
C352 C355 1.403 1_556 S
H353 C359 0.930 . S
C354 H340 0.930 . S
C354 C352 1.395 . S
C354 C357 1.403 . S
C355 C352 1.403 1_554 S
C355 C356 1.524 . S
C355 C359 1.400 . S
C356 H341 0.960 . S
C356 H342 0.960 . S
C356 H343 0.960 . S
C356 C355 1.524 . S
C357 C354 1.403 . S
C357 C358 1.392 . S
C357 C361 1.495 . S
C358 C357 1.392 . S
C358 C359 1.385 1_556 S
C358 C360 1.478 . S
C359 H353 0.930 . S
C359 C355 1.400 . S
C359 C358 1.385 1_554 S
C360 C358 1.478 . S
C360 C362 1.381 . S
C360 C366 1.383 1_556 S
C361 C357 1.495 . S
C361 H367 0.959 . S
C361 H368 0.961 . S
C361 H369 0.960 . S
C362 C360 1.381 . S
C362 C363 1.394 . S
C362 H370 0.930 . S
C363 C362 1.394 . S
C363 C364 1.383 . S
C363 H371 0.929 . S
C364 C363 1.383 . S
C364 C365 1.377 1_556 S
C365 H349 0.930 . S
C365 C364 1.377 1_554 S
C365 C366 1.379 . S
C366 H350 0.931 . S
C366 C360 1.383 1_554 S
C366 C365 1.379 . S
H367 C361 0.959 . S
H368 C361 0.961 . S
H369 C361 0.960 . S
H370 C362 0.930 . S
H371 C363 0.929 . S
H372 C380 0.929 . S
H373 C382 0.930 . S
H374 C384 0.930 . S
H375 C387 0.929 . S
H376 C390 0.930 . S
H377 C392 0.960 . S
H378 C392 0.960 . S
H379 C392 0.960 . S
C380 H372 0.929 . S
C380 C381 1.377 . S
C380 C382 1.384 . S
C381 C380 1.377 . S
C381 C387 1.390 1_554 S
C382 H373 0.930 . S
C382 C380 1.384 . S
C382 C383 1.366 . S
C383 C382 1.366 . S
C383 C384 1.392 1_554 S
C383 C388 1.505 . S
C384 H374 0.930 . S
C384 C383 1.392 1_556 S
C384 C387 1.386 . S
H385 C401 0.938 1_556 S
H386 C402 0.931 . S
C387 H375 0.929 . S
C387 C381 1.390 1_556 S
C387 C384 1.386 . S
C388 C383 1.505 . S
C388 C390 1.395 . S
C388 C391 1.403 1_554 S
H389 C395 0.930 . S
C390 H376 0.930 . S
C390 C388 1.395 . S
C390 C393 1.403 . S
C391 C388 1.403 1_556 S
C391 C392 1.524 . S
C391 C395 1.400 . S
C392 H377 0.960 . S
C392 H378 0.960 . S
C392 H379 0.960 . S
C392 C391 1.524 . S
C393 C390 1.403 . S
C393 C394 1.392 . S
C393 C397 1.495 . S
C394 C393 1.392 . S
C394 C395 1.385 1_554 S
C394 C396 1.478 . S
C395 H389 0.930 . S
C395 C391 1.400 . S
C395 C394 1.385 1_556 S
C396 C394 1.478 . S
C396 C398 1.381 . S
C396 C402 1.383 . S
C397 C393 1.495 . S
C397 H403 0.959 . S
C397 H404 0.961 . S
C397 H405 0.960 . S
C398 C396 1.381 . S
C398 C399 1.394 . S
C398 H406 0.930 . S
C399 C398 1.394 . S
C399 C400 1.383 . S
C399 H407 0.929 . S
C400 C399 1.383 . S
C400 C401 1.382 . S
C401 H385 0.938 1_554 S
C401 C400 1.382 . S
C401 C402 1.367 . S
C402 H386 0.931 . S
C402 C396 1.383 . S
C402 C401 1.367 . S
H403 C397 0.959 . S
H404 C397 0.961 . S
H405 C397 0.960 . S
H406 C398 0.930 . S
H407 C399 0.929 . S
H408 C416 0.929 . S
H409 C418 0.930 . S
H410 C420 0.930 . S
H411 C423 0.929 . S
H412 C426 0.930 . S
H413 C428 0.960 . S
H414 C428 0.960 . S
H415 C428 0.960 . S
C416 H408 0.929 . S
C416 C417 1.377 . S
C416 C418 1.384 . S
C417 C416 1.377 . S
C417 C423 1.390 . S
C418 H409 0.930 . S
C418 C416 1.384 . S
C418 C419 1.372 . S
C419 C418 1.372 . S
C419 C420 1.400 . S
C419 C424 1.490 . S
C420 H410 0.930 . S
C420 C419 1.400 . S
C420 C423 1.386 . S
H421 C437 0.930 . S
H422 C438 0.931 . S
C423 H411 0.929 . S
C423 C417 1.390 . S
C423 C420 1.386 . S
C424 C419 1.490 . S
C424 C426 1.395 . S
C424 C427 1.403 . S
H425 C431 0.930 . S
C426 H412 0.930 . S
C426 C424 1.395 . S
C426 C429 1.403 . S
C427 C424 1.403 . S
C427 C428 1.524 . S
C427 C431 1.400 . S
C428 H413 0.960 . S
C428 H414 0.960 . S
C428 H415 0.960 . S
C428 C427 1.524 . S
C429 C426 1.403 . S
C429 C430 1.392 . S
C429 C433 1.495 . S
C430 C429 1.392 . S
C430 C431 1.385 . S
C430 C432 1.478 . S
C431 H425 0.930 . S
C431 C427 1.400 . S
C431 C430 1.385 . S
C432 C430 1.478 . S
C432 C434 1.381 . S
C432 C438 1.383 . S
C433 C429 1.495 . S
C433 H439 0.959 . S
C433 H440 0.961 . S
C433 H441 0.960 . S
C434 C432 1.381 . S
C434 C435 1.394 . S
C434 H442 0.930 . S
C435 C434 1.394 . S
C435 C436 1.383 . S
C435 H443 0.929 . S
C436 C435 1.383 . S
C436 C437 1.377 . S
C437 H421 0.930 . S
C437 C436 1.377 . S
C437 C438 1.379 . S
C438 H422 0.931 . S
C438 C432 1.383 . S
C438 C437 1.379 . S
H439 C433 0.959 . S
H440 C433 0.961 . S
H441 C433 0.960 . S
H442 C434 0.930 . S
H443 C435 0.929 . S
H444 C452 0.929 . S
H445 C454 0.930 . S
H446 C456 0.930 . S
H447 C459 0.929 . S
H448 C462 0.930 . S
H449 C464 0.960 . S
H450 C464 0.960 . S
H451 C464 0.960 . S
C452 H444 0.929 . S
C452 C453 1.377 . S
C452 C454 1.384 . S
C453 C452 1.377 . S
C453 C459 1.390 . S
C454 H445 0.930 . S
C454 C452 1.384 . S
C454 C455 1.372 . S
C455 C454 1.372 . S
C455 C456 1.400 . S
C455 C460 1.490 . S
C456 H446 0.930 . S
C456 C455 1.400 . S
C456 C459 1.386 . S
H457 C473 0.930 . S
H458 C474 0.931 . S
C459 H447 0.929 . S
C459 C453 1.390 . S
C459 C456 1.386 . S
C460 C455 1.490 . S
C460 C462 1.395 . S
C460 C463 1.403 . S
H461 C467 0.930 . S
C462 H448 0.930 . S
C462 C460 1.395 . S
C462 C465 1.403 . S
C463 C460 1.403 . S
C463 C464 1.524 . S
C463 C467 1.400 . S
C464 H449 0.960 . S
C464 H450 0.960 . S
C464 H451 0.960 . S
C464 C463 1.524 . S
C465 C462 1.403 . S
C465 C466 1.392 . S
C465 C469 1.495 . S
C466 C465 1.392 . S
C466 C467 1.385 . S
C466 C468 1.478 . S
C467 H461 0.930 . S
C467 C463 1.400 . S
C467 C466 1.385 . S
C468 C466 1.478 . S
C468 C470 1.381 . S
C468 C474 1.383 . S
C469 C465 1.495 . S
C469 H475 0.959 . S
C469 H476 0.961 . S
C469 H477 0.960 . S
C470 C468 1.381 . S
C470 C471 1.394 . S
C470 H478 0.930 . S
C471 C470 1.394 . S
C471 C472 1.383 . S
C471 H479 0.929 . S
C472 C471 1.383 . S
C472 C473 1.377 . S
C473 H457 0.930 . S
C473 C472 1.377 . S
C473 C474 1.379 . S
C474 H458 0.931 . S
C474 C468 1.383 . S
C474 C473 1.379 . S
H475 C469 0.959 . S
H476 C469 0.961 . S
H477 C469 0.960 . S
H478 C470 0.930 . S
H479 C471 0.929 . S
H480 C488 0.929 . S
H481 C490 0.930 . S
H482 C492 0.930 . S
H483 C495 0.929 . S
H484 C498 0.930 . S
H485 C500 0.960 . S
H486 C500 0.960 . S
H487 C500 0.960 . S
C488 H480 0.929 . S
C488 C489 1.392 1_545 S
C488 C490 1.384 . S
C489 C488 1.392 1_565 S
C489 C495 1.376 1_556 S
C490 H481 0.930 . S
C490 C488 1.384 . S
C490 C491 1.371 1_545 S
C491 C490 1.371 1_565 S
C491 C492 1.400 1_556 S
C491 C496 1.490 1_565 S
C492 H482 0.930 . S
C492 C491 1.400 1_554 S
C492 C495 1.386 . S
H493 C509 0.948 . S
H494 C510 0.919 1_565 S
C495 H483 0.929 . S
C495 C489 1.376 1_554 S
C495 C492 1.386 . S
C496 C491 1.490 1_545 S
C496 C498 1.398 1_556 S
C496 C499 1.401 1_545 S
H497 C503 0.930 . S
C498 H484 0.930 . S
C498 C496 1.398 1_554 S
C498 C501 1.403 . S
C499 C496 1.401 1_565 S
C499 C500 1.524 . S
C499 C503 1.400 . S
C500 H485 0.960 . S
C500 H486 0.960 . S
C500 H487 0.960 . S
C500 C499 1.524 . S
C501 C498 1.403 . S
C501 C502 1.392 . S
C501 C505 1.495 . S
C502 C501 1.392 . S
C502 C503 1.385 1_544 S
C502 C504 1.478 . S
C503 H497 0.930 . S
C503 C499 1.400 . S
C503 C502 1.385 1_566 S
C504 C502 1.478 . S
C504 C506 1.381 1_554 S
C504 C510 1.395 . S
C505 C501 1.495 . S
C505 H511 0.959 . S
C505 H512 0.961 . S
C505 H513 0.960 . S
C506 C504 1.381 1_556 S
C506 C507 1.394 . S
C506 H514 0.930 . S
C507 C506 1.394 . S
C507 C508 1.383 1_556 S
C507 H515 0.929 . S
C508 C507 1.383 1_554 S
C508 C509 1.360 1_545 S
C509 H493 0.948 . S
C509 C508 1.360 1_565 S
C509 C510 1.379 1_565 S
C510 H494 0.919 1_545 S
C510 C504 1.395 . S
C510 C509 1.379 1_545 S
H511 C505 0.959 . S
H512 C505 0.961 . S
H513 C505 0.960 . S
H514 C506 0.930 . S
H515 C507 0.929 . S
H516 C524 0.929 . S
H517 C526 0.930 . S
H518 C528 0.930 . S
H519 C531 0.929 . S
H520 C534 0.930 . S
H521 C536 0.960 . S
H522 C536 0.960 . S
H523 C536 0.960 . S
C524 H516 0.929 . S
C524 C525 1.377 . S
C524 C526 1.384 . S
C525 C524 1.377 . S
C525 C531 1.390 1_545 S
C526 H517 0.930 . S
C526 C524 1.384 . S
C526 C527 1.372 . S
C527 C526 1.372 . S
C527 C528 1.400 1_545 S
C527 C532 1.490 . S
C528 H518 0.930 . S
C528 C527 1.400 1_565 S
C528 C531 1.386 . S
H529 C545 0.930 . S
H530 C546 0.931 . S
C531 H519 0.929 . S
C531 C525 1.390 1_565 S
C531 C528 1.386 . S
C532 C527 1.490 . S
C532 C534 1.395 1_545 S
C532 C535 1.403 . S
H533 C539 0.930 . S
C534 H520 0.930 . S
C534 C532 1.395 1_565 S
C534 C537 1.403 . S
C535 C532 1.403 . S
C535 C536 1.524 . S
C535 C539 1.400 . S
C536 H521 0.960 . S
C536 H522 0.960 . S
C536 H523 0.960 . S
C536 C535 1.524 . S
C537 C534 1.403 . S
C537 C538 1.419 . S
C537 C541 1.495 . S
C538 C537 1.419 . S
C538 C539 1.355 1_565 S
C538 C540 1.480 . S
C539 H533 0.930 . S
C539 C535 1.400 . S
C539 C538 1.355 1_545 S
C540 C538 1.480 . S
C540 C542 1.381 1_565 S
C540 C546 1.383 . S
C541 C537 1.495 . S
C541 H547 0.959 . S
C541 H548 0.961 . S
C541 H549 0.960 . S
C542 C540 1.381 1_545 S
C542 C543 1.394 . S
C542 H550 0.930 . S
C543 C542 1.394 . S
C543 C544 1.383 1_545 S
C543 H551 0.929 . S
C544 C543 1.383 1_565 S
C544 C545 1.377 . S
C545 H529 0.930 . S
C545 C544 1.377 . S
C545 C546 1.379 . S
C546 H530 0.931 . S
C546 C540 1.383 . S
C546 C545 1.379 . S
H547 C541 0.959 . S
H548 C541 0.961 . S
H549 C541 0.960 . S
H550 C542 0.930 . S
H551 C543 0.929 . S
H552 C560 0.929 . S
H553 C562 0.930 . S
H554 C564 0.930 . S
H555 C567 0.929 . S
H556 C570 0.930 . S
H557 C572 0.960 . S
H558 C572 0.960 1_556 S
H559 C572 0.960 . S
C560 H552 0.929 . S
C560 C561 1.389 . S
C560 C562 1.384 . S
C561 C560 1.389 . S
C561 C567 1.379 1_556 S
C562 H553 0.930 . S
C562 C560 1.384 . S
C562 C563 1.372 . S
C563 C562 1.372 . S
C563 C564 1.400 1_556 S
C563 C568 1.490 . S
C564 H554 0.930 . S
C564 C563 1.400 1_554 S
C564 C567 1.386 . S
H565 C581 0.930 . S
H566 C582 0.931 . S
C567 H555 0.929 . S
C567 C561 1.379 1_554 S
C567 C564 1.386 . S
C568 C563 1.490 . S
C568 C570 1.395 . S
C568 C571 1.403 1_556 S
H569 C575 0.930 . S
C570 H556 0.930 . S
C570 C568 1.395 . S
C570 C573 1.403 1_655 S
C571 C568 1.403 1_554 S
C571 C572 1.524 . S
C571 C575 1.400 1_655 S
C572 H557 0.960 . S
C572 H558 0.960 1_554 S
C572 H559 0.960 . S
C572 C571 1.524 . S
C573 C570 1.403 1_455 S
C573 C574 1.392 . S
C573 C577 1.495 . S
C574 C573 1.392 . S
C574 C575 1.385 1_556 S
C574 C576 1.478 . S
C575 H569 0.930 . S
C575 C571 1.400 1_455 S
C575 C574 1.385 1_554 S
C576 C574 1.478 . S
C576 C578 1.381 . S
C576 C582 1.383 1_556 S
C577 C573 1.495 . S
C577 H583 0.959 . S
C577 H584 0.961 1_556 S
C577 H585 0.960 . S
C578 C576 1.381 . S
C578 C579 1.394 . S
C578 H586 0.930 . S
C579 C578 1.394 . S
C579 C580 1.380 1_556 S
C579 H587 0.929 . S
C580 C579 1.380 1_554 S
C580 C581 1.380 . S
C581 H565 0.930 . S
C581 C580 1.380 . S
C581 C582 1.379 . S
C582 H566 0.931 . S
C582 C576 1.383 1_554 S
C582 C581 1.379 . S
H583 C577 0.959 . S
H584 C577 0.961 1_554 S
H585 C577 0.960 . S
H586 C578 0.930 . S
H587 C579 0.929 . S
H588 C596 0.929 . S
H589 C598 0.930 . S
H590 C600 0.930 . S
H591 C603 0.929 . S
H592 C606 0.930 . S
H593 C608 0.960 . S
H594 C608 0.960 . S
H595 C608 0.960 . S
C596 H588 0.929 . S
C596 C597 1.377 . S
C596 C598 1.384 . S
C597 C596 1.377 . S
C597 C603 1.390 . S
C598 H589 0.930 . S
C598 C596 1.384 . S
C598 C599 1.372 . S
C599 C598 1.372 . S
C599 C600 1.400 . S
C599 C604 1.490 . S
C600 H590 0.930 . S
C600 C599 1.400 . S
C600 C603 1.386 . S
H601 C617 0.930 . S
H602 C618 0.931 . S
C603 H591 0.929 . S
C603 C597 1.390 . S
C603 C600 1.386 . S
C604 C599 1.490 . S
C604 C606 1.395 . S
C604 C607 1.403 . S
H605 C611 0.930 . S
C606 H592 0.930 . S
C606 C604 1.395 . S
C606 C609 1.403 1_455 S
C607 C604 1.403 . S
C607 C608 1.524 . S
C607 C611 1.400 1_455 S
C608 H593 0.960 . S
C608 H594 0.960 . S
C608 H595 0.960 . S
C608 C607 1.524 . S
C609 C606 1.403 1_655 S
C609 C610 1.392 . S
C609 C613 1.495 . S
C610 C609 1.392 . S
C610 C611 1.385 . S
C610 C612 1.478 . S
C611 H605 0.930 . S
C611 C607 1.400 1_655 S
C611 C610 1.385 . S
C612 C610 1.478 . S
C612 C614 1.381 . S
C612 C618 1.383 . S
C613 C609 1.495 . S
C613 H619 0.959 . S
C613 H620 0.961 . S
C613 H621 0.960 . S
C614 C612 1.381 . S
C614 C615 1.394 . S
C614 H622 0.930 . S
C615 C614 1.394 . S
C615 C616 1.383 . S
C615 H623 0.929 . S
C616 C615 1.383 . S
C616 C617 1.377 . S
C617 H601 0.930 . S
C617 C616 1.377 . S
C617 C618 1.379 . S
C618 H602 0.931 . S
C618 C612 1.383 . S
C618 C617 1.379 . S
H619 C613 0.959 . S
H620 C613 0.961 . S
H621 C613 0.960 . S
H622 C614 0.930 . S
H623 C615 0.929 . S
H624 C632 0.940 . S
H625 C634 0.938 . S
H626 C636 0.930 . S
H627 C639 0.929 . S
H628 C642 0.930 . S
H629 C644 0.960 . S
H630 C644 0.960 . S
H631 C644 0.960 . S
C632 H624 0.940 . S
C632 C633 1.385 . S
C632 C634 1.369 . S
C633 C632 1.385 . S
C633 C639 1.382 1_455 S
C634 H625 0.938 . S
C634 C632 1.369 . S
C634 C635 1.381 . S
C635 C634 1.381 . S
C635 C636 1.400 1_455 S
C635 C640 1.482 . S
C636 H626 0.930 . S
C636 C635 1.400 1_655 S
C636 C639 1.386 . S
H637 C653 0.930 . S
H638 C654 0.931 . S
C639 H627 0.929 . S
C639 C633 1.382 1_655 S
C639 C636 1.386 . S
C640 C635 1.482 . S
C640 C642 1.385 1_545 S
C640 C643 1.420 1_455 S
H641 C647 0.930 . S
C642 H628 0.930 . S
C642 C640 1.385 1_565 S
C642 C645 1.403 . S
C643 C640 1.420 1_655 S
C643 C644 1.524 . S
C643 C647 1.400 . S
C644 H629 0.960 . S
C644 H630 0.960 . S
C644 H631 0.960 . S
C644 C643 1.524 . S
C645 C642 1.403 . S
C645 C646 1.392 . S
C645 C649 1.495 . S
C646 C645 1.392 . S
C646 C647 1.385 1_465 S
C646 C648 1.478 . S
C647 H641 0.930 . S
C647 C643 1.400 . S
C647 C646 1.385 1_645 S
C648 C646 1.478 . S
C648 C650 1.381 . S
C648 C654 1.383 1_455 S
C649 C645 1.495 . S
C649 H655 0.959 . S
C649 H656 0.961 . S
C649 H657 0.960 . S
C650 C648 1.381 . S
C650 C651 1.395 1_565 S
C650 H658 0.923 . S
C651 C650 1.395 1_545 S
C651 C652 1.383 1_545 S
C651 H659 0.929 . S
C652 C651 1.383 1_565 S
C652 C653 1.377 1_455 S
C653 H637 0.930 . S
C653 C652 1.377 1_655 S
C653 C654 1.379 . S
C654 H638 0.931 . S
C654 C648 1.383 1_655 S
C654 C653 1.379 . S
H655 C649 0.959 . S
H656 C649 0.961 . S
H657 C649 0.960 . S
H658 C650 0.923 . S
H659 C651 0.929 . S
H660 C668 0.929 . S
H661 C670 0.930 . S
H662 C672 0.930 . S
H663 C675 0.929 . S
H664 C678 0.930 . S
H665 C680 0.960 . S
H666 C680 0.960 . S
H667 C680 0.960 . S
C668 H660 0.929 . S
C668 C669 1.377 1_565 S
C668 C670 1.384 . S
C669 C668 1.377 1_545 S
C669 C675 1.390 1_455 S
C670 H661 0.930 . S
C670 C668 1.384 . S
C670 C671 1.374 . S
C671 C670 1.374 . S
C671 C672 1.398 1_465 S
C671 C676 1.510 . S
C672 H662 0.930 . S
C672 C671 1.398 1_645 S
C672 C675 1.386 . S
H673 C689 0.930 . S
H674 C690 0.931 . S
C675 H663 0.929 . S
C675 C669 1.390 1_655 S
C675 C672 1.386 . S
C676 C671 1.510 . S
C676 C678 1.409 1_455 S
C676 C679 1.369 1_565 S
H677 C683 0.930 . S
C678 H664 0.930 . S
C678 C676 1.409 1_655 S
C678 C681 1.403 . S
C679 C676 1.369 1_545 S
C679 C680 1.524 . S
C679 C683 1.400 . S
C680 H665 0.960 . S
C680 H666 0.960 . S
C680 H667 0.960 . S
C680 C679 1.524 . S
C681 C678 1.403 . S
C681 C682 1.392 . S
C681 C685 1.495 . S
C682 C681 1.392 . S
C682 C683 1.385 1_665 S
C682 C684 1.478 . S
C683 H677 0.930 . S
C683 C679 1.400 . S
C683 C682 1.385 1_445 S
C684 C682 1.478 . S
C684 C686 1.381 1_655 S
C684 C690 1.383 1_565 S
C685 C681 1.495 . S
C685 H691 0.959 . S
C685 H692 0.961 . S
C685 H693 0.960 . S
C686 C684 1.381 1_455 S
C686 C687 1.394 . S
C686 H694 0.930 . S
C687 C686 1.394 . S
C687 C688 1.414 1_455 S
C687 H695 0.929 . S
C688 C687 1.414 1_655 S
C688 C689 1.363 1_565 S
C689 H673 0.930 . S
C689 C688 1.363 1_545 S
C689 C690 1.379 . S
C690 H674 0.931 . S
C690 C684 1.383 1_545 S
C690 C689 1.379 . S
H691 C685 0.959 . S
H692 C685 0.961 . S
H693 C685 0.960 . S
H694 C686 0.930 . S
H695 C687 0.929 . S
H696 C704 0.929 . S
H697 C706 0.930 . S
H698 C708 0.930 . S
H699 C711 0.929 . S
H700 C714 0.930 . S
H701 C716 0.960 . S
H702 C716 0.960 . S
H703 C716 0.960 . S
C704 H696 0.929 . S
C704 C705 1.377 . S
C704 C706 1.384 . S
C705 C704 1.377 . S
C705 C711 1.390 . S
C706 H697 0.930 . S
C706 C704 1.384 . S
C706 C707 1.372 . S
C707 C706 1.372 . S
C707 C708 1.400 . S
C707 C712 1.490 . S
C708 H698 0.930 . S
C708 C707 1.400 . S
C708 C711 1.386 . S
H709 C725 0.930 . S
H710 C726 0.931 . S
C711 H699 0.929 . S
C711 C705 1.390 . S
C711 C708 1.386 . S
C712 C707 1.490 . S
C712 C714 1.395 . S
C712 C715 1.403 . S
H713 C719 0.930 . S
C714 H700 0.930 . S
C714 C712 1.395 . S
C714 C717 1.403 . S
C715 C712 1.403 . S
C715 C716 1.524 . S
C715 C719 1.400 . S
C716 H701 0.960 . S
C716 H702 0.960 . S
C716 H703 0.960 . S
C716 C715 1.524 . S
C717 C714 1.403 . S
C717 C718 1.392 . S
C717 C721 1.495 . S
C718 C717 1.392 . S
C718 C719 1.385 . S
C718 C720 1.478 . S
C719 H713 0.930 . S
C719 C715 1.400 . S
C719 C718 1.385 . S
C720 C718 1.478 . S
C720 C722 1.381 . S
C720 C726 1.383 . S
C721 C717 1.495 . S
C721 H727 0.959 . S
C721 H728 0.961 . S
C721 H729 0.960 . S
C722 C720 1.381 . S
C722 C723 1.394 . S
C722 H730 0.930 . S
C723 C722 1.394 . S
C723 C724 1.383 . S
C723 H731 0.929 . S
C724 C723 1.383 . S
C724 C725 1.377 . S
C725 H709 0.930 . S
C725 C724 1.377 . S
C725 C726 1.379 . S
C726 H710 0.931 . S
C726 C720 1.383 . S
C726 C725 1.379 . S
H727 C721 0.959 . S
H728 C721 0.961 . S
H729 C721 0.960 . S
H730 C722 0.930 . S
H731 C723 0.929 . S
H732 C740 0.929 . S
H733 C742 0.930 . S
H734 C744 0.930 . S
H735 C747 0.929 . S
H736 C750 0.930 . S
H737 C752 0.960 . S
H738 C752 0.960 . S
H739 C752 0.960 . S
C740 H732 0.929 . S
C740 C741 1.377 . S
C740 C742 1.384 . S
C741 C740 1.377 . S
C741 C747 1.390 . S
C742 H733 0.930 . S
C742 C740 1.384 . S
C742 C743 1.372 . S
C743 C742 1.372 . S
C743 C744 1.400 . S
C743 C748 1.490 . S
C744 H734 0.930 . S
C744 C743 1.400 . S
C744 C747 1.386 . S
H745 C761 0.930 . S
H746 C762 0.931 . S
C747 H735 0.929 . S
C747 C741 1.390 . S
C747 C744 1.386 . S
C748 C743 1.490 . S
C748 C750 1.395 . S
C748 C751 1.403 . S
H749 C755 0.930 . S
C750 H736 0.930 . S
C750 C748 1.395 . S
C750 C753 1.403 . S
C751 C748 1.403 . S
C751 C752 1.524 . S
C751 C755 1.400 . S
C752 H737 0.960 . S
C752 H738 0.960 . S
C752 H739 0.960 . S
C752 C751 1.524 . S
C753 C750 1.403 . S
C753 C754 1.392 . S
C753 C757 1.495 . S
C754 C753 1.392 . S
C754 C755 1.385 . S
C754 C756 1.478 . S
C755 H749 0.930 . S
C755 C751 1.400 . S
C755 C754 1.385 . S
C756 C754 1.478 . S
C756 C758 1.381 . S
C756 C762 1.383 . S
C757 C753 1.495 . S
C757 H763 0.959 . S
C757 H764 0.961 . S
C757 H765 0.960 . S
C758 C756 1.381 . S
C758 C759 1.394 . S
C758 H766 0.930 . S
C759 C758 1.394 . S
C759 C760 1.383 . S
C759 H767 0.929 . S
C760 C759 1.383 . S
C760 C761 1.377 . S
C761 H745 0.930 . S
C761 C760 1.377 . S
C761 C762 1.379 . S
C762 H746 0.931 . S
C762 C756 1.383 . S
C762 C761 1.379 . S
H763 C757 0.959 . S
H764 C757 0.961 . S
H765 C757 0.960 . S
H766 C758 0.930 . S
H767 C759 0.929 . S
C345 C237 1.360 1_556 S
C364 C58 1.337 . S
C381 C226 1.377 1_554 S
C400 C69 1.337 . S
C417 C142 1.388 . S
C436 C321 1.362 . S
C453 C153 1.374 . S
C472 C310 1.361 . S
C489 C67 1.930 1_556 S
C508 C56 1.930 1_554 S
C525 C151 1.931 . S
C544 C140 1.923 . S
C561 C235 1.931 1_556 S
C580 C224 1.926 1_554 S
C597 C308 1.930 . S
C616 C319 1.930 . S
C633 C147 1.483 1_445 S
C652 C63 1.492 1_465 S
C669 C74 1.478 1_545 S
C688 C158 1.475 1_665 S
C705 C315 1.484 . S
C724 C231 1.492 . S
C741 C326 1.482 . S
C760 C242 1.481 . S
