# Generated by pormake.
# Topology lcx, (8)-cn, num edge types: 1
# Building blocks:
#     Node 0, Type 0, BuildingBlock: OLANAS_clean_sbu_2, # of connection points: 8
#     Node 1, Type 0, BuildingBlock: OLANAS_clean_sbu_2, # of connection points: 8
#     Node 2, Type 0, BuildingBlock: OLANAS_clean_sbu_2, # of connection points: 8
#     Node 3, Type 0, BuildingBlock: OLANAS_clean_sbu_2, # of connection points: 8
#     Node 4, Type 0, BuildingBlock: OLANAS_clean_sbu_2, # of connection points: 8
#     Node 5, Type 0, BuildingBlock: OLANAS_clean_sbu_2, # of connection points: 8
#     Edge 6, Type (0, 0), BuildingBlock: EZIPEK_clean_linker_0, # of connection points: 2
#     Edge 7, Type (0, 0), BuildingBlock: EZIPEK_clean_linker_0, # of connection points: 2
#     Edge 8, Type (0, 0), BuildingBlock: EZIPEK_clean_linker_0, # of connection points: 2
#     Edge 9, Type (0, 0), BuildingBlock: EZIPEK_clean_linker_0, # of connection points: 2
#     Edge 10, Type (0, 0), BuildingBlock: EZIPEK_clean_linker_0, # of connection points: 2
#     Edge 11, Type (0, 0), BuildingBlock: EZIPEK_clean_linker_0, # of connection points: 2
#     Edge 12, Type (0, 0), BuildingBlock: EZIPEK_clean_linker_0, # of connection points: 2
#     Edge 13, Type (0, 0), BuildingBlock: EZIPEK_clean_linker_0, # of connection points: 2
#     Edge 14, Type (0, 0), BuildingBlock: EZIPEK_clean_linker_0, # of connection points: 2
#     Edge 15, Type (0, 0), BuildingBlock: EZIPEK_clean_linker_0, # of connection points: 2
#     Edge 16, Type (0, 0), BuildingBlock: EZIPEK_clean_linker_0, # of connection points: 2
#     Edge 17, Type (0, 0), BuildingBlock: EZIPEK_clean_linker_0, # of connection points: 2
#     Edge 18, Type (0, 0), BuildingBlock: EZIPEK_clean_linker_0, # of connection points: 2
#     Edge 19, Type (0, 0), BuildingBlock: EZIPEK_clean_linker_0, # of connection points: 2
#     Edge 20, Type (0, 0), BuildingBlock: EZIPEK_clean_linker_0, # of connection points: 2
#     Edge 21, Type (0, 0), BuildingBlock: EZIPEK_clean_linker_0, # of connection points: 2
#     Edge 22, Type (0, 0), BuildingBlock: EZIPEK_clean_linker_0, # of connection points: 2
#     Edge 23, Type (0, 0), BuildingBlock: EZIPEK_clean_linker_0, # of connection points: 2
#     Edge 24, Type (0, 0), BuildingBlock: EZIPEK_clean_linker_0, # of connection points: 2
#     Edge 25, Type (0, 0), BuildingBlock: EZIPEK_clean_linker_0, # of connection points: 2
#     Edge 26, Type (0, 0), BuildingBlock: EZIPEK_clean_linker_0, # of connection points: 2
#     Edge 27, Type (0, 0), BuildingBlock: EZIPEK_clean_linker_0, # of connection points: 2
#     Edge 28, Type (0, 0), BuildingBlock: EZIPEK_clean_linker_0, # of connection points: 2
#     Edge 29, Type (0, 0), BuildingBlock: EZIPEK_clean_linker_0, # of connection points: 2
# Relax obj value: 0.048
# Max RMSD: 0.138
# Mean RMSD: 0.138
data_MOF--net-lcx--node1-OLANAS_clean_sbu_2--edge1-EZIPEK_clean_linker_0
_symmetry_space_group_name_H-M    P1
_symmetry_Int_Tables_number       1
_symmetry_cell_setting            triclinic
loop_
_symmetry_equiv_pos_as_xyz
'x, y, z'
_cell_length_a     24.854211
_cell_length_b     24.819476
_cell_length_c     24.826616
_cell_angle_alpha  90.350342
_cell_angle_beta   89.993224
_cell_angle_gamma 89.302372
loop_
_atom_site_label
_atom_site_type_symbol
_atom_site_fract_x
_atom_site_fract_y
_atom_site_fract_z
_atom_type_partial_charge
C0 C 0.90994 0.31159 0.50372 0.0
O1 O 0.8591 0.32695 0.50396 0.0
C2 C 0.95357 0.3502 0.4982 0.0
C3 C 0.9502 0.40584 0.49022 0.0
C4 C -0.00125 0.43428 0.48448 0.0
C5 C 0.04906 0.4072 0.48791 0.0
C6 C 0.04905 0.35134 0.49542 0.0
N7 N 0.00196 0.32669 0.49957 0.0
N8 N 3e-05 0.23945 0.42803 0.0
Co9 Co 0.0039 0.25284 0.50542 0.0
N10 N 0.00669 0.17901 0.51152 0.0
C11 C 0.01886 0.09537 0.46818 0.0
C12 C 0.02778 0.0724 0.5195 0.0
C13 C 0.02619 0.10464 0.56658 0.0
C14 C 0.01582 0.15976 0.56074 0.0
C15 C 0.00839 0.15084 0.46565 0.0
N16 N 0.00843 0.2536 0.5836 0.0
N17 N 0.92551 0.25862 0.50868 0.0
N18 N 0.08202 0.26011 0.5009 0.0
C19 C 0.0031 0.1852 0.41793 0.0
O20 O 0.00222 0.16526 0.36874 0.0
C21 C 0.09486 0.31345 0.4966 0.0
O22 O 0.14479 0.32947 0.49095 0.0
C23 C 0.12218 0.21849 0.49456 0.0
C24 C 0.1909 0.17537 0.43825 0.0
C25 C 0.14736 0.21103 0.44426 0.0
C26 C 0.14204 0.19079 0.53971 0.0
C27 C 0.18661 0.15586 0.53451 0.0
C28 C 0.21076 0.14875 0.48374 0.0
C29 C 0.01586 0.20222 0.60215 0.0
O30 O 0.0178 0.19118 0.65387 0.0
C31 C 0.99235 0.2961 0.61942 0.0
C32 C 0.0319 0.32608 0.64605 0.0
C33 C 0.01746 0.36134 0.68825 0.0
C34 C 0.96329 0.36675 0.70268 0.0
C35 C 0.92443 0.33342 0.67975 0.0
C36 C 0.93871 0.29894 0.63732 0.0
C37 C 0.88687 0.21626 0.508 0.0
C38 C 0.88165 0.18187 0.55228 0.0
C39 C 0.83878 0.14594 0.55445 0.0
C40 C 0.80366 0.1417 0.51044 0.0
C41 C 0.80819 0.17591 0.46604 0.0
C42 C 0.84861 0.2145 0.46629 0.0
C43 C 0.99453 0.27769 0.38534 0.0
C44 C 0.98669 0.34258 0.29415 0.0
C45 C 0.94074 0.31687 0.31325 0.0
C46 C 0.94501 0.28357 0.3585 0.0
C47 C 0.04067 0.30064 0.36311 0.0
C48 C 0.03724 0.33176 0.31639 0.0
H49 H 0.91168 0.42649 0.48762 0.0
H50 H 0.99723 0.47699 0.47649 0.0
H51 H 0.08626 0.42894 0.48338 0.0
H52 H 0.02166 0.07095 0.432 0.0
H53 H 0.03772 0.03005 0.52276 0.0
H54 H 0.03434 0.08733 0.60569 0.0
H55 H 0.13387 0.23326 0.40972 0.0
H56 H 0.124 0.19739 0.57887 0.0
H57 H 0.24488 0.12135 0.47941 0.0
H58 H 0.07389 0.31996 0.63563 0.0
H59 H 0.95209 0.39339 0.73578 0.0
H60 H 0.90899 0.27212 0.62078 0.0
H61 H 0.90869 0.18475 0.58612 0.0
H62 H 0.77161 0.11241 0.51143 0.0
H63 H 0.84985 0.24361 0.43418 0.0
H64 H 0.98377 0.3679 0.25874 0.0
H65 H 0.91066 0.26105 0.37159 0.0
H66 H 0.0794 0.29269 0.38063 0.0
C67 C 0.31519 0.49911 0.90435 0.0
O68 O 0.32801 0.50492 0.85334 0.0
C69 C 0.35594 0.49017 0.94634 0.0
C70 C 0.41153 0.48221 0.94093 0.0
C71 C 0.44186 0.47213 0.98817 0.0
C72 C 0.41638 0.46984 0.03912 0.0
C73 C 0.3606 0.47815 0.0412 0.0
N74 N 0.3345 0.4885 0.99546 0.0
N75 N 0.24864 0.41793 0.99191 0.0
Co76 Co 0.2609 0.49508 -0.00016 0.0
N77 N 0.18725 0.50115 0.00451 0.0
C78 C 0.10401 0.45801 0.01132 0.0
C79 C 0.0797 0.50946 0.01806 0.0
C80 C 0.11114 0.55659 0.01774 0.0
C81 C 0.16674 0.55061 0.01064 0.0
C82 C 0.15989 0.45536 0.00467 0.0
N83 N 0.26037 0.57339 0.00817 0.0
N84 N 0.26305 0.5026 0.92215 0.0
N85 N 0.27106 0.48616 0.07693 0.0
C86 C 0.19481 0.40779 0.99724 0.0
O87 O 0.17522 0.35907 0.99175 0.0
C88 C 0.3243 0.47655 0.08796 0.0
O89 O 0.3421 0.46974 0.13735 0.0
C90 C 0.23152 0.4918 0.11859 0.0
C91 C 0.17541 0.45036 0.18654 0.0
C92 C 0.2107 0.44546 0.14264 0.0
C93 C 0.22034 0.54282 0.14142 0.0
C94 C 0.18689 0.54753 0.18657 0.0
C95 C 0.16218 0.50164 0.20652 0.0
C96 C 0.20832 0.59201 0.01171 0.0
O97 O 0.19653 0.6433 0.0194 0.0
C98 C 0.30434 0.60939 0.01595 0.0
C99 C 0.32799 0.61435 0.06712 0.0
C100 C 0.35937 0.65901 0.07937 0.0
C101 C 0.37083 0.69643 0.03911 0.0
C102 C 0.35083 0.69023 0.98703 0.0
C103 C 0.31544 0.64798 0.97626 0.0
C104 C 0.21987 0.51866 0.88752 0.0
C105 C 0.21898 0.57112 0.86685 0.0
C106 C 0.18172 0.58546 0.82737 0.0
C107 C 0.14506 0.54739 0.80864 0.0
C108 C 0.14915 0.4937 0.82473 0.0
C109 C 0.18521 0.47982 0.86598 0.0
C110 C 0.2848 0.37719 0.97147 0.0
C111 C 0.33493 0.2817 0.93741 0.0
C112 C 0.3057 0.31211 0.9001 0.0
C113 C 0.28 0.35964 0.91749 0.0
C114 C 0.31652 0.34725 0.0076 0.0
C115 C 0.34101 0.29869 0.99067 0.0
H116 H 0.43081 0.48317 0.90186 0.0
H117 H 0.48491 0.46562 0.98524 0.0
H118 H 0.43939 0.46153 0.07519 0.0
H119 H 0.08004 0.42189 0.01168 0.0
H120 H 0.03673 0.51281 0.02404 0.0
H121 H 0.09271 0.59593 0.02358 0.0
H122 H 0.22292 0.40596 0.12795 0.0
H123 H 0.23867 0.57851 0.12572 0.0
H124 H 0.13547 0.50554 0.24099 0.0
H125 H 0.32124 0.58486 0.09789 0.0
H126 H 0.39754 0.72963 0.04792 0.0
H127 H 0.29677 0.64537 0.93718 0.0
H128 H 0.24908 0.59957 0.87904 0.0
H129 H 0.11716 0.55825 0.77673 0.0
H130 H 0.18821 0.4385 0.87884 0.0
H131 H 0.35416 0.24427 0.92465 0.0
H132 H 0.25489 0.38162 0.88975 0.0
H133 H 0.31941 0.35997 0.04931 0.0
C134 C 0.1083 0.7088 0.5225 0.0
O135 O 0.16 0.69673 0.5237 0.0
C136 C 0.06772 0.66687 0.52267 0.0
C137 C 0.07466 0.61153 0.53082 0.0
C138 C 0.02836 0.57915 0.53072 0.0
C139 C 0.97687 0.60218 0.52149 0.0
C140 C 0.97333 0.65801 0.51415 0.0
N141 N 0.01833 0.68647 0.5151 0.0
N142 N 0.01782 0.76037 0.43113 0.0
Co143 Co 0.01129 0.76024 0.50906 0.0
N144 N 0.0037 0.83383 0.50309 0.0
C145 C 0.98821 0.90771 0.44624 0.0
C146 C 0.97592 0.93875 0.49266 0.0
C147 C 0.97784 0.91546 0.54453 0.0
C148 C 0.99196 0.86085 0.54825 0.0
C149 C 0.00203 0.85343 0.45324 0.0
N150 N 0.00272 0.77266 0.58578 0.0
N151 N 0.08953 0.76074 0.5165 0.0
N152 N 0.93447 0.74633 0.50358 0.0
C153 C 0.0109 0.81162 0.41205 0.0
O154 O 0.01063 0.82239 0.36024 0.0
C155 C 0.92542 0.69208 0.50734 0.0
O156 O 0.87678 0.67183 0.50526 0.0
C157 C 0.89001 0.78305 0.4986 0.0
C158 C 0.81889 0.81261 0.43943 0.0
C159 C 0.87254 0.79756 0.4471 0.0
C160 C 0.85537 0.79156 0.54298 0.0
C161 C 0.79985 0.80239 0.5349 0.0
C162 C 0.78198 0.80381 0.48104 0.0
C163 C 0.99257 0.82605 0.59591 0.0
O164 O 0.98565 0.84505 0.64501 0.0
C165 C 0.01177 0.73468 0.62777 0.0
C166 C 0.96818 0.70811 0.65129 0.0
C167 C 0.9772 0.67177 0.69361 0.0
C168 C 0.02981 0.6632 0.71199 0.0
C169 C 0.07228 0.69361 0.69229 0.0
C170 C 0.06345 0.72893 0.64963 0.0
C171 C 0.1278 0.80241 0.50765 0.0
C172 C 0.16321 0.8144 0.55032 0.0
C173 C 0.21946 0.81544 0.54147 0.0
C174 C 0.23722 0.80765 0.48815 0.0
C175 C 0.20124 0.81623 0.44558 0.0
C176 C 0.14625 0.80987 0.45493 0.0
C177 C 0.02321 0.71531 0.39544 0.0
C178 C 0.03149 0.64136 0.31071 0.0
C179 C 0.07789 0.66636 0.32976 0.0
C180 C 0.07387 0.70275 0.37298 0.0
C181 C 0.9766 0.69321 0.37283 0.0
C182 C 0.98069 0.65663 0.32989 0.0
H183 H 0.11411 0.59403 0.53792 0.0
H184 H 0.03247 0.53655 0.53864 0.0
H185 H 0.94127 0.57748 0.52157 0.0
H186 H 0.98522 0.92511 0.40647 0.0
H187 H 0.96322 0.98029 0.48819 0.0
H188 H 0.96719 0.93888 0.57995 0.0
H189 H 0.90023 0.79772 0.41353 0.0
H190 H 0.87191 0.78716 0.58298 0.0
H191 H 0.73958 0.80808 0.47188 0.0
H192 H 0.92767 0.71618 0.6371 0.0
H193 H 0.03724 0.63534 0.7448 0.0
H194 H 0.09611 0.75286 0.63457 0.0
H195 H 0.14696 0.81718 0.59059 0.0
H196 H 0.27974 0.80464 0.47904 0.0
H197 H 0.11862 0.81044 0.42146 0.0
H198 H 0.03449 0.61366 0.27678 0.0
H199 H 0.10935 0.72345 0.38677 0.0
H200 H 0.93735 0.70711 0.38629 0.0
C201 C 0.69254 0.52723 0.91182 0.0
O202 O 0.67507 0.52819 0.86183 0.0
C203 C 0.65731 0.53898 0.95792 0.0
C204 C 0.60209 0.55062 0.95838 0.0
C205 C 0.57647 0.55696 0.00894 0.0
C206 C 0.60602 0.55138 0.0574 0.0
C207 C 0.66114 0.53989 0.05357 0.0
N208 N 0.6831 0.53508 0.00482 0.0
N209 N 0.7828 0.58628 0.0007 0.0
Co210 Co 0.75415 0.51336 0.00208 0.0
N211 N 0.82516 0.49139 -0.00095 0.0
C212 C 0.91608 0.51474 0.99127 0.0
C213 C 0.9288 0.45907 0.98805 0.0
C214 C 0.88774 0.42018 0.99023 0.0
C215 C 0.83457 0.43855 0.99571 0.0
C216 C 0.86192 0.52985 0.99679 0.0
N217 N 0.73833 0.43708 0.00253 0.0
N218 N 0.74456 0.51387 0.9245 0.0
N219 N 0.75096 0.51544 0.08016 0.0
C220 C 0.83787 0.58406 -0.0018 0.0
O221 O 0.86729 0.6277 0.99604 0.0
C222 C 0.70008 0.52936 0.09682 0.0
O223 O 0.68683 0.53229 0.14805 0.0
C224 C 0.79307 0.50429 0.11773 0.0
C225 C 0.85026 0.53726 0.18983 0.0
C226 C 0.8155 0.54729 0.14656 0.0
C227 C 0.80291 0.45106 0.13441 0.0
C228 C 0.83589 0.441 0.17898 0.0
C229 C 0.86173 0.484 0.20433 0.0
C230 C 0.78498 0.40738 0.99777 0.0
O231 O 0.78542 0.35439 0.99707 0.0
C232 C 0.68808 0.41141 0.01141 0.0
C233 C 0.67474 0.39643 0.06411 0.0
C234 C 0.63985 0.35374 0.07286 0.0
C235 C 0.61333 0.33015 0.02912 0.0
C236 C 0.62639 0.34451 0.97628 0.0
C237 C 0.66349 0.3856 0.96766 0.0
C238 C 0.78308 0.49966 0.88411 0.0
C239 C 0.7832 0.44783 0.86112 0.0
C240 C 0.81607 0.43646 0.81654 0.0
C241 C 0.84908 0.47681 0.79585 0.0
C242 C 0.84574 0.5295 0.81576 0.0
C243 C 0.81316 0.54041 0.86043 0.0
C244 C 0.75464 0.63687 -0.00179 0.0
C245 C 0.72316 0.74471 -0.00195 0.0
C246 C 0.73456 0.71933 0.94889 0.0
C247 C 0.75572 0.66689 0.95031 0.0
C248 C 0.73319 0.66026 0.04523 0.0
C249 C 0.71779 0.71489 0.04544 0.0
H250 H 0.57939 0.55381 0.92131 0.0
H251 H 0.53367 0.5653 0.01047 0.0
H252 H 0.58639 0.55499 0.09617 0.0
H253 H 0.94726 0.54468 0.98871 0.0
H254 H 0.97026 0.44609 0.98333 0.0
H255 H 0.89724 0.37759 0.98729 0.0
H256 H 0.80428 0.58834 0.1365 0.0
H257 H 0.78275 0.41791 0.1151 0.0
H258 H 0.88758 0.47615 0.23872 0.0
H259 H 0.69628 0.41304 0.0979 0.0
H260 H 0.58719 0.29613 0.03593 0.0
H261 H 0.67706 0.39396 0.92715 0.0
H262 H 0.75643 0.41744 0.8764 0.0
H263 H 0.87435 0.46817 0.76111 0.0
H264 H 0.80968 0.58104 0.87537 0.0
H265 H 0.71035 0.78663 -0.00155 0.0
H266 H 0.77267 0.64959 0.91425 0.0
H267 H 0.73012 0.63673 0.08158 0.0
C268 C 0.49004 0.09848 0.2895 0.0
O269 O 0.488 0.1508 0.29828 0.0
C270 C 0.48303 0.05969 0.33302 0.0
C271 C 0.47228 0.06952 0.38758 0.0
C272 C 0.46556 0.02465 0.42162 0.0
C273 C 0.46997 0.97161 0.40084 0.0
C274 C 0.48134 0.96518 0.34592 0.0
N275 N 0.48753 0.00893 0.31595 0.0
N276 N 0.57885 -0.00103 0.25071 0.0
Co277 Co 0.50086 -0.0017 0.24361 0.0
N278 N 0.51373 0.98775 0.17125 0.0
C279 C 0.57639 0.98273 0.10054 0.0
C280 C 0.53283 0.97489 0.06482 0.0
C281 C 0.47922 0.9752 0.08403 0.0
C282 C 0.47098 0.98229 0.13942 0.0
C283 C 0.56481 0.98882 0.1554 0.0
N284 N 0.42526 0.99652 0.22337 0.0
N285 N 0.50006 0.07688 0.23943 0.0
N286 N 0.49899 0.9212 0.26106 0.0
C287 C 0.60196 0.99588 0.20052 0.0
O288 O 0.65431 -0.00153 0.19327 0.0
C289 C 0.48785 0.91528 0.31482 0.0
O290 O 0.48633 0.86774 0.33793 0.0
C291 C 0.51419 0.87444 0.23003 0.0
C292 C 0.58438 0.8096 0.20716 0.0
C293 C 0.5689 0.86173 0.2228 0.0
C294 C 0.47538 0.83489 0.21821 0.0
C295 C 0.49162 0.78123 0.20677 0.0
C296 C 0.54669 0.76856 0.20907 0.0
C297 C 0.42024 0.98667 0.16931 0.0
O298 O 0.37312 0.98371 0.14544 0.0
C299 C 0.37907 0.00443 0.25675 0.0
C300 C 0.35513 0.95955 0.28035 0.0
C301 C 0.30444 0.96472 0.30433 0.0
C302 C 0.27877 0.01538 0.30521 0.0
C303 C 0.30489 0.06182 0.28781 0.0
C304 C 0.35384 0.05552 0.25995 0.0
C305 C 0.5125 0.11134 0.19512 0.0
C306 C 0.47256 0.12253 0.15652 0.0
C307 C 0.47589 0.16932 0.12524 0.0
C308 C 0.5202 0.20284 0.13082 0.0
C309 C 0.56018 0.19222 0.16854 0.0
C310 C 0.55691 0.14601 0.19994 0.0
C311 C 0.61215 0.00746 0.29691 0.0
C312 C 0.71408 0.0289 0.33703 0.0
C313 C 0.67716 0.07137 0.33141 0.0
C314 C 0.62625 0.06052 0.31029 0.0
C315 C 0.64584 0.96473 0.31354 0.0
C316 C 0.69766 0.97527 0.33311 0.0
H317 H 0.46892 0.11016 0.40333 0.0
H318 H 0.45681 0.03098 0.4639 0.0
H319 H 0.46464 0.93715 0.42674 0.0
H320 H 0.61741 0.98269 0.08591 0.0
H321 H 0.54072 0.96821 0.02247 0.0
H322 H 0.44576 0.97018 0.05662 0.0
H323 H 0.59902 0.89235 0.22621 0.0
H324 H 0.43312 0.84595 0.21923 0.0
H325 H 0.5602 0.72764 0.20056 0.0
H326 H 0.37562 0.92079 0.27933 0.0
H327 H 0.24018 0.01936 0.32539 0.0
H328 H 0.37265 0.08992 0.24148 0.0
H329 H 0.4368 0.09818 0.15449 0.0
H330 H 0.52226 0.23952 0.10728 0.0
H331 H 0.58653 0.13992 0.23093 0.0
H332 H 0.75461 0.03742 0.35062 0.0
H333 H 0.5991 0.09335 0.30191 0.0
H334 H 0.63336 0.92358 0.30727 0.0
C335 C 0.50891 0.90684 0.7099 0.0
O336 O 0.51013 0.85419 0.7035 0.0
C337 C 0.51016 0.9442 0.66391 0.0
C338 C 0.51024 0.93292 0.60856 0.0
C339 C 0.51249 0.97672 0.57245 0.0
C340 C 0.51461 0.03035 0.59195 0.0
C341 C 0.51474 0.03842 0.64779 0.0
N342 N 0.51243 0.99545 0.67957 0.0
N343 N 0.59144 0.00649 0.75842 0.0
Co344 Co 0.51233 0.00816 0.75221 0.0
N345 N 0.51228 0.02136 0.82493 0.0
C346 C 0.56156 0.03148 0.90485 0.0
C347 C 0.51206 0.03863 0.93232 0.0
C348 C 0.46267 0.03572 0.90429 0.0
C349 C 0.46447 0.02644 0.84869 0.0
C350 C 0.56002 0.02386 0.84895 0.0
N351 N 0.43347 0.01099 0.75812 0.0
N352 N 0.51058 0.93061 0.75988 0.0
N353 N 0.5136 0.08452 0.73325 0.0
C354 C 0.60502 0.01645 0.81117 0.0
O355 O 0.65521 0.01468 0.82799 0.0
C356 C 0.5154 0.08936 0.67833 0.0
O357 O 0.51266 0.13646 0.65444 0.0
C358 C 0.49812 0.12935 0.7671 0.0
C359 C 0.52179 0.20221 0.8288 0.0
C360 C 0.53697 0.15695 0.79745 0.0
C361 C 0.44523 0.15027 0.76444 0.0
C362 C 0.42983 0.19491 0.79585 0.0
C363 C 0.46772 0.21855 0.82981 0.0
C364 C 0.41963 0.0201 0.81092 0.0
O365 O 0.36958 0.01709 0.82782 0.0
C366 C 0.39268 0.99335 0.72095 0.0
C367 C 0.35845 0.03173 0.69657 0.0
C368 C 0.30713 0.01715 0.67784 0.0
C369 C 0.29092 0.96355 0.68423 0.0
C370 C 0.3285 0.92336 0.69756 0.0
C371 C 0.37809 0.93872 0.7193 0.0
C372 C 0.51705 0.89987 0.80825 0.0
C373 C 0.47207 0.87589 0.83197 0.0
C374 C 0.47897 0.83488 0.87003 0.0
C375 C 0.5311 0.81823 0.88446 0.0
C376 C 0.57626 0.84109 0.8602 0.0
C377 C 0.56886 0.88346 0.82414 0.0
C378 C 0.63283 0.98783 0.72145 0.0
C379 C 0.73501 0.9492 0.69188 0.0
C380 C 0.69279 0.91266 0.69616 0.0
C381 C 0.64225 0.93225 0.71302 0.0
C382 C 0.67275 0.02394 0.70494 0.0
C383 C 0.72407 0.00482 0.68864 0.0
H384 H 0.50904 0.89193 0.59361 0.0
H385 H 0.51267 0.96908 0.5295 0.0
H386 H 0.51605 0.06394 0.56442 0.0
H387 H 0.59939 0.03336 0.92632 0.0
H388 H 0.51191 0.04681 0.97512 0.0
H389 H 0.42476 0.04057 0.92532 0.0
H390 H 0.57871 0.14395 0.79574 0.0
H391 H 0.41664 0.13278 0.73716 0.0
H392 H 0.45571 0.25288 0.8545 0.0
H393 H 0.37105 0.07292 0.6932 0.0
H394 H 0.25162 0.95168 0.66969 0.0
H395 H 0.40483 0.90803 0.73459 0.0
H396 H 0.43197 0.88667 0.81871 0.0
H397 H 0.53644 0.78434 0.91144 0.0
H398 H 0.60379 0.9006 0.80593 0.0
H399 H 0.77468 0.93408 0.68098 0.0
H400 H 0.6112 0.9036 0.71996 0.0
H401 H 0.66405 0.06678 0.70652 0.0
C402 C 0.125 0.38245 0.30799 0.0
C403 C 0.08573 0.34802 0.28554 0.0
C404 C 0.11804 0.3674 0.19473 0.0
C405 C 0.15573 0.40341 0.21725 0.0
N406 N 0.21044 0.42611 0.29391 0.0
N407 N 0.06219 0.28999 0.21101 0.0
C408 C 0.16495 0.4034 0.27362 0.0
C409 C 0.08852 0.33417 0.22994 0.0
N410 N 0.12174 0.39916 0.36035 0.0
N411 N 0.10726 0.36751 0.14081 0.0
H412 H 0.04184 0.26399 0.23665 0.0
H413 H 0.06577 0.2762 0.17141 0.0
H414 H 0.12756 0.39157 0.1135 0.0
H415 H 0.07552 0.3462 0.12387 0.0
H416 H 0.14658 0.42863 0.37661 0.0
H417 H 0.09119 0.38742 0.38615 0.0
H418 H 0.24018 0.4415 0.26878 0.0
H419 H 0.2208 0.42436 0.33455 0.0
C420 C 0.15218 0.67998 0.81494 0.0
C421 C 0.18496 0.63656 0.79762 0.0
C422 C 0.16438 0.65442 0.70391 0.0
C423 C 0.12379 0.69074 0.72169 0.0
N424 N 0.09356 0.75448 0.78859 0.0
N425 N 0.24246 0.60019 0.72887 0.0
C426 C 0.12377 0.71007 0.7755 0.0
C427 C 0.19917 0.63146 0.74281 0.0
N428 N 0.14457 0.68847 0.86874 0.0
N429 N 0.16621 0.63839 0.65132 0.0
H430 H 0.26653 0.58196 0.75826 0.0
H431 H 0.25661 0.59632 0.68953 0.0
H432 H 0.14106 0.65542 0.62234 0.0
H433 H 0.1911 0.60741 0.63707 0.0
H434 H 0.11665 0.71585 0.88459 0.0
H435 H 0.16633 0.66668 0.89745 0.0
H436 H 0.09322 0.77216 0.82672 0.0
H437 H 0.07214 0.77591 0.75935 0.0
C438 C 0.90678 0.61992 0.20503 0.0
C439 C 0.87054 0.58118 0.22498 0.0
C440 C 0.89562 0.60344 0.31779 0.0
C441 C 0.93331 0.64044 0.29759 0.0
N442 N 0.95832 0.69965 0.22556 0.0
N443 N 0.81528 0.5523 0.29903 0.0
C444 C 0.93268 0.65438 0.24227 0.0
C445 C 0.8596 0.57879 0.28113 0.0
N446 N 0.91996 0.62117 0.15162 0.0
N447 N 0.89643 0.58911 0.3708 0.0
H448 H 0.78754 0.53529 0.27254 0.0
H449 H 0.80329 0.55234 0.33924 0.0
H450 H 0.92223 0.60645 0.3989 0.0
H451 H 0.87382 0.55759 0.38608 0.0
H452 H 0.95078 0.64483 0.13653 0.0
H453 H 0.90334 0.59557 0.12289 0.0
H454 H 0.95609 0.71387 0.1862 0.0
H455 H 0.97682 0.72585 0.25269 0.0
C456 C 0.847 0.3419 0.80188 0.0
C457 C 0.81349 0.38525 0.78587 0.0
C458 C 0.82975 0.36483 0.69119 0.0
C459 C 0.872 0.33029 0.70769 0.0
N460 N 0.90427 0.26692 0.77283 0.0
N461 N 0.7539 0.4214 0.71911 0.0
C462 C 0.87357 0.31122 0.76123 0.0
C463 C 0.79716 0.38954 0.73146 0.0
N464 N 0.85733 0.33404 0.85522 0.0
N465 N 0.82469 0.37769 0.63812 0.0
H466 H 0.73138 0.44059 0.74934 0.0
H467 H 0.73835 0.42527 0.68037 0.0
H468 H 0.84841 0.35894 0.60865 0.0
H469 H 0.79825 0.40709 0.62372 0.0
H470 H 0.88616 0.30694 0.86954 0.0
H471 H 0.83712 0.35595 0.88515 0.0
H472 H 0.90592 0.2493 0.81075 0.0
H473 H 0.92469 0.24564 0.7425 0.0
C474 C 0.30655 0.14619 0.3458 0.0
C475 C 0.28087 0.11494 0.30525 0.0
C476 C 0.1927 0.14094 0.3414 0.0
C477 C 0.21858 0.16668 0.38545 0.0
N478 N 0.2966 0.21416 0.41601 0.0
N479 N 0.20226 0.10471 0.25059 0.0
C480 C 0.27444 0.17659 0.38259 0.0
C481 C 0.22473 0.12158 0.29775 0.0
N482 N 0.36093 0.14381 0.35219 0.0
N483 N 0.13895 0.13037 0.3432 0.0
H484 H 0.226 0.08903 0.21934 0.0
H485 H 0.16186 0.11112 0.24103 0.0
H486 H 0.11431 0.14184 0.37526 0.0
H487 H 0.11959 0.10668 0.31455 0.0
H488 H 0.38066 0.15919 0.38584 0.0
H489 H 0.38632 0.12557 0.32432 0.0
H490 H 0.33641 0.22646 0.41302 0.0
H491 H 0.2733 0.237 0.44294 0.0
C492 C 0.42975 0.74817 0.87011 0.0
C493 C 0.4329 0.80217 0.88841 0.0
C494 C 0.36214 0.78447 0.95403 0.0
C495 C 0.36941 0.72825 0.94493 0.0
N496 N 0.4142 0.65604 0.89551 0.0
N497 N 0.4015 0.8732 0.94748 0.0
C498 C 0.40335 0.70976 0.90243 0.0
C499 C 0.3981 0.82118 0.92963 0.0
N500 N 0.45279 0.73369 0.82215 0.0
N501 N 0.32136 0.80227 0.98669 0.0
H502 H 0.42676 0.90127 0.92971 0.0
H503 H 0.38163 0.8876 0.98168 0.0
H504 H 0.29421 0.77588 0.00433 0.0
H505 H 0.31142 0.84286 0.99189 0.0
H506 H 0.4482 0.69577 0.80463 0.0
H507 H 0.47121 0.76171 0.79722 0.0
H508 H 0.44372 0.64145 0.86922 0.0
H509 H 0.3972 0.62598 0.91881 0.0
C510 C 0.7605 0.94216 0.40428 0.0
C511 C 0.73419 0.9322 0.35453 0.0
C512 C 0.7775 0.84258 0.35143 0.0
C513 C 0.80418 0.8549 0.40006 0.0
N514 N 0.83997 0.92498 0.45678 0.0
N515 N 0.73185 0.8787 0.27262 0.0
C516 C 0.80316 0.9082 0.41985 0.0
C517 C 0.7469 0.88401 0.32522 0.0
N518 N 0.74201 0.98113 0.43908 0.0
N519 N 0.7817 0.79175 0.33072 0.0
H520 H 0.71237 0.90948 0.25159 0.0
H521 H 0.74367 0.84623 0.24844 0.0
H522 H 0.80583 0.76215 0.34865 0.0
H523 H 0.76084 0.77906 0.29683 0.0
H524 H 0.75992 0.98906 0.47609 0.0
H525 H 0.70509 0.00092 0.43416 0.0
H526 H 0.84307 0.9654 0.46786 0.0
H527 H 0.87057 0.89995 0.47117 0.0
C528 C 0.62252 0.25332 0.93288 0.0
C529 C 0.60915 0.30908 0.93118 0.0
C530 C 0.55965 0.29327 0.84789 0.0
C531 C 0.56112 0.23691 0.85788 0.0
N532 N 0.59162 0.16355 0.91412 0.0
N533 N 0.56093 0.38218 0.88822 0.0
C534 C 0.59276 0.21674 0.90097 0.0
C535 C 0.57721 0.3294 0.88852 0.0
N536 N 0.6637 0.23542 0.96481 0.0
N537 N 0.54108 0.31202 0.79967 0.0
H538 H 0.57186 0.40978 0.91797 0.0
H539 H 0.5328 0.3973 0.86091 0.0
H540 H 0.52971 0.28611 0.76852 0.0
H541 H 0.54265 0.35246 0.78879 0.0
H542 H 0.67767 0.19565 0.96427 0.0
H543 H 0.68771 0.26153 0.98716 0.0
H544 H 0.60937 0.14808 0.94887 0.0
H545 H 0.56832 0.13605 0.89326 0.0
C546 C 0.30789 0.85552 0.57721 0.0
C547 C 0.2588 0.82737 0.58652 0.0
C548 C 0.27334 0.84056 0.68359 0.0
C549 C 0.32049 0.86945 0.67234 0.0
N550 N 0.39638 0.87119 0.6129 0.0
N551 N 0.21501 0.77011 0.65173 0.0
C552 C 0.34304 0.86349 0.62081 0.0
C553 C 0.24756 0.81233 0.64085 0.0
N554 N 0.31872 0.88119 0.53009 0.0
N555 N 0.25234 0.84191 0.73422 0.0
H556 H 0.20043 0.74501 0.62135 0.0
H557 H 0.20899 0.75659 0.69086 0.0
H558 H 0.27217 0.86139 0.76579 0.0
H559 H 0.21497 0.82566 0.74352 0.0
H560 H 0.35391 0.90285 0.52405 0.0
H561 H 0.28926 0.89012 0.50191 0.0
H562 H 0.41448 0.86572 0.5753 0.0
H563 H 0.42225 0.87521 0.6455 0.0
C564 C 0.67253 0.76354 0.18566 0.0
C565 C 0.63052 0.79959 0.17052 0.0
C566 C 0.64039 0.77052 0.07783 0.0
C567 C 0.68749 0.74057 0.09079 0.0
N568 N 0.75523 0.71893 0.15768 0.0
N569 N 0.58714 0.84898 0.09816 0.0
C570 C 0.70596 0.74007 0.14498 0.0
C571 C 0.6203 0.80833 0.11514 0.0
N572 N 0.67881 0.74975 0.23831 0.0
N573 N 0.61249 0.76034 0.0314 0.0
H574 H 0.56852 0.87618 0.1242 0.0
H575 H 0.58209 0.85807 0.05748 0.0
H576 H 0.62175 0.72784 0.00604 0.0
H577 H 0.57627 0.77965 0.02184 0.0
H578 H 0.70386 0.71802 0.25033 0.0
H579 H 0.65664 0.76835 0.26911 0.0
H580 H 0.77136 0.72134 0.19639 0.0
H581 H 0.78187 0.70389 0.12868 0.0
C582 C 0.77458 0.09378 0.68179 0.0
C583 C 0.76422 0.04099 0.66191 0.0
C584 C 0.83247 0.05538 0.59246 0.0
C585 C 0.82905 0.11109 0.60163 0.0
N586 N 0.79805 0.18508 0.65742 0.0
N587 N 0.77686 0.97788 0.58763 0.0
C588 C 0.80115 0.13099 0.64761 0.0
C589 C 0.7925 0.02273 0.615 0.0
N590 N 0.76061 0.10786 0.73316 0.0
N591 N 0.87047 0.03483 0.5582 0.0
H592 H 0.739 0.96145 0.5931 0.0
H593 H 0.79778 0.96206 0.55479 0.0
H594 H 0.89896 0.05937 0.53993 0.0
H595 H 0.87711 0.99351 0.55359 0.0
H596 H 0.7707 0.14474 0.75048 0.0
H597 H 0.74457 0.08028 0.76014 0.0
H598 H 0.77338 0.20192 0.68718 0.0
H599 H 0.81832 0.21308 0.63401 0.0
C600 C 0.38371 0.2103 0.10932 0.0
C601 C 0.43278 0.18856 0.08865 0.0
C602 C 0.42455 0.24527 0.00972 0.0
C603 C 0.37305 0.2635 0.02716 0.0
N604 N 0.29723 0.24978 0.08667 0.0
N605 N 0.48893 0.17181 0.01128 0.0
C606 C 0.35042 0.2419 0.07489 0.0
C607 C 0.44877 0.2009 0.03564 0.0
N608 N 0.36998 0.20356 0.16209 0.0
N609 N 0.4517 0.27194 0.97034 0.0
H610 H 0.50764 0.13904 0.03009 0.0
H611 H 0.49886 0.17687 0.97086 0.0
H612 H 0.437 0.3073 0.95285 0.0
H613 H 0.49125 0.26226 0.95974 0.0
H614 H 0.33754 0.2238 0.17996 0.0
H615 H 0.39296 0.181 0.189 0.0
H616 H 0.2783 0.23071 0.11868 0.0
H617 H 0.27083 0.27063 0.06145 0.0
C618 C 0.89737 0.60906 0.69756 0.0
C619 C 0.93281 0.64536 0.72339 0.0
C620 C 0.90826 0.609 0.81118 0.0
C621 C 0.87174 0.57371 0.78555 0.0
N622 N 0.81688 0.5563 0.70706 0.0
N623 N 0.95475 0.69371 0.80499 0.0
C624 C 0.86136 0.57913 0.72954 0.0
C625 C 0.93203 0.65019 0.78042 0.0
N626 N 0.90001 0.60031 0.64332 0.0
N627 N 0.92327 0.6013 0.86352 0.0
H628 H 0.97109 0.72537 0.7831 0.0
H629 H 0.95188 0.70089 0.84632 0.0
H630 H 0.90953 0.56946 0.88668 0.0
H631 H 0.95368 0.62329 0.88201 0.0
H632 H 0.8788 0.56983 0.62395 0.0
H633 H 0.92668 0.62022 0.61841 0.0
H634 H 0.80556 0.56269 0.66715 0.0
H635 H 0.78814 0.53637 0.72991 0.0
C636 C 0.89478 0.3101 0.22537 0.0
C637 C 0.89073 0.32289 0.28095 0.0
C638 C 0.81898 0.38697 0.26024 0.0
C639 C 0.8379 0.38808 0.20645 0.0
N640 N 0.88712 0.34487 0.13446 0.0
N641 N 0.84211 0.3672 0.35292 0.0
C642 C 0.87238 0.34653 0.18738 0.0
C643 C 0.84918 0.35792 0.29914 0.0
N644 N 0.92361 0.26559 0.20984 0.0
N645 N 0.77448 0.41668 0.27394 0.0
H646 H 0.86296 0.34557 0.38225 0.0
H647 H 0.81691 0.39739 0.3683 0.0
H648 H 0.75284 0.4385 0.24512 0.0
H649 H 0.75665 0.41558 0.31188 0.0
H650 H 0.92638 0.25233 0.17005 0.0
H651 H 0.94064 0.23959 0.23826 0.0
H652 H 0.91697 0.31914 0.11934 0.0
H653 H 0.87032 0.37077 0.10598 0.0
C654 C 0.09489 0.42538 0.70019 0.0
C655 C 0.05844 0.38821 0.72249 0.0
C656 C 0.08374 0.41705 0.81361 0.0
C657 C 0.12211 0.45214 0.79125 0.0
N658 N 0.17725 0.4741 0.71437 0.0
N659 N 0.03259 0.33589 0.79998 0.0
C660 C 0.13202 0.4511 0.7348 0.0
C661 C 0.05763 0.37981 0.77918 0.0
N662 N 0.09235 0.43866 0.64691 0.0
N663 N 0.07002 0.42093 0.86678 0.0
H664 H 0.01542 0.3063 0.77563 0.0
H665 H 0.03432 0.3259 0.84066 0.0
H666 H 0.0871 0.44884 0.89301 0.0
H667 H 0.0382 0.39977 0.88351 0.0
H668 H 0.11467 0.46981 0.63043 0.0
H669 H 0.0644 0.42237 0.6203 0.0
H670 H 0.18813 0.47096 0.67391 0.0
H671 H 0.20687 0.49071 0.73896 0.0
C672 C 0.12417 0.67459 0.24226 0.0
C673 C 0.12751 0.65923 0.29703 0.0
C674 C 0.19892 0.59539 0.27354 0.0
C675 C 0.18167 0.59781 0.2191 0.0
N676 N 0.13212 0.64412 0.14964 0.0
N677 N 0.1738 0.61078 0.36694 0.0
C678 C 0.14697 0.64006 0.20238 0.0
C679 C 0.16805 0.62264 0.31365 0.0
N680 N 0.09605 0.72012 0.22899 0.0
N681 N 0.2428 0.56454 0.28643 0.0
H682 H 0.1523 0.63133 0.39691 0.0
H683 H 0.19836 0.57966 0.3811 0.0
H684 H 0.26528 0.54435 0.25684 0.0
H685 H 0.25939 0.56313 0.32492 0.0
H686 H 0.09426 0.73539 0.19004 0.0
H687 H 0.07887 0.74503 0.25857 0.0
H688 H 0.10197 0.67023 0.13615 0.0
H689 H 0.14856 0.61945 0.11965 0.0
C690 C 0.67902 0.85926 0.61457 0.0
C691 C 0.69936 0.85989 0.66719 0.0
C692 C 0.76944 0.79726 0.63455 0.0
C693 C 0.76149 0.81666 0.58085 0.0
N694 N 0.71109 0.88406 0.5288 0.0
N695 N 0.76249 0.82148 0.72957 0.0
C696 C 0.71588 0.85151 0.57248 0.0
C697 C 0.74396 0.82565 0.67816 0.0
N698 N 0.62679 0.87206 0.60438 0.0
N699 N 0.79822 0.75117 0.64383 0.0
H700 H 0.74267 0.84079 0.76157 0.0
H701 H 0.79791 0.80076 0.73924 0.0
H702 H 0.81122 0.72604 0.61247 0.0
H703 H 0.80261 0.73481 0.68219 0.0
H704 H 0.61109 0.87195 0.56537 0.0
H705 H 0.59886 0.8744 0.63546 0.0
H706 H 0.67857 0.91052 0.52348 0.0
H707 H 0.74397 0.89282 0.50502 0.0
C708 C 0.67243 0.27608 0.12592 0.0
C709 C 0.64051 0.32372 0.12419 0.0
C710 C 0.58057 0.28628 0.19116 0.0
C711 C 0.60089 0.23451 0.17716 0.0
N712 N 0.67318 0.17966 0.14242 0.0
N713 N 0.57156 0.37979 0.16322 0.0
C714 C 0.65045 0.22946 0.14978 0.0
C715 C 0.59783 0.33126 0.16095 0.0
N716 N 0.72187 0.27527 0.10209 0.0
N717 N 0.54141 0.29057 0.22944 0.0
H718 H 0.58515 0.41299 0.14166 0.0
H719 H 0.53652 0.38677 0.18527 0.0
H720 H 0.52811 0.25667 0.2501 0.0
H721 H 0.52559 0.32716 0.2432 0.0
H722 H 0.74851 0.24266 0.10399 0.0
H723 H 0.73788 0.30966 0.08462 0.0
H724 H 0.70611 0.17206 0.11749 0.0
H725 H 0.65787 0.14554 0.16105 0.0
C726 C 0.24919 0.03532 0.59665 0.0
C727 C 0.27263 0.05483 0.64499 0.0
C728 C 0.23325 0.144 0.62538 0.0
C729 C 0.20662 0.1219 0.57975 0.0
N730 N 0.1765 0.04085 0.53473 0.0
N731 N 0.27171 0.12483 0.71305 0.0
C732 C 0.20921 0.06574 0.57078 0.0
C733 C 0.26017 0.10846 0.66189 0.0
N734 N 0.26689 0.98867 0.57324 0.0
N735 N 0.2351 0.19845 0.63283 0.0
H736 H 0.28781 0.09862 0.74162 0.0
H737 H 0.25942 0.16214 0.72848 0.0
H738 H 0.21632 0.22568 0.60694 0.0
H739 H 0.25868 0.21636 0.66253 0.0
H740 H 0.24737 0.97126 0.54054 0.0
H741 H 0.30377 0.97118 0.5834 0.0
H742 H 0.14533 0.06044 0.51421 0.0
H743 H 0.14533 0.06044 0.51421 0.0
C744 C 0.36596 0.69841 0.17222 0.0
C745 C 0.38801 0.66495 0.13113 0.0
C746 C 0.47321 0.70619 0.14059 0.0
C747 C 0.45442 0.73956 0.18381 0.0
N748 N 0.38528 0.75264 0.25163 0.0
N749 N 0.46646 0.61953 0.09732 0.0
C750 C 0.40137 0.73102 0.2036 0.0
C751 C 0.44376 0.6608 0.126 0.0
N752 N 0.31164 0.7006 0.17935 0.0
N753 N 0.51326 0.72249 0.1073 0.0
H754 H 0.4435 0.5875 0.08297 0.0
H755 H 0.50805 0.61587 0.09282 0.0
H756 H 0.52616 0.76211 0.10804 0.0
H757 H 0.52574 0.70018 0.0737 0.0
H758 H 0.29272 0.72815 0.20517 0.0
H759 H 0.28598 0.67553 0.15759 0.0
H760 H 0.34796 0.74466 0.26874 0.0
H761 H 0.41151 0.7735 0.27679 0.0
C762 C 0.78381 0.15991 0.36755 0.0
C763 C 0.76807 0.17206 0.42148 0.0
C764 C 0.6762 0.14388 0.40171 0.0
C765 C 0.69411 0.12546 0.35059 0.0
N766 N 0.75345 0.14 0.27649 0.0
N767 N 0.6954 0.19893 0.48037 0.0
C768 C 0.74362 0.14382 0.33038 0.0
C769 C 0.71258 0.17246 0.43505 0.0
N770 N 0.83681 0.1579 0.35302 0.0
N771 N 0.62653 0.13026 0.42022 0.0
H772 H 0.72171 0.22074 0.50472 0.0
H773 H 0.65493 0.20373 0.49043 0.0
H774 H 0.59797 0.11166 0.39599 0.0
H775 H 0.61434 0.13616 0.45999 0.0
H776 H 0.84986 0.14416 0.31545 0.0
H777 H 0.86829 0.1655 0.37948 0.0
H778 H 0.78775 0.15551 0.25841 0.0
H779 H 0.72409 0.12587 0.24994 0.0
C780 C 0.29102 0.23663 0.8384 0.0
C781 C 0.30437 0.2915 0.84365 0.0
C782 C 0.37574 0.27728 0.77772 0.0
C783 C 0.37617 0.22198 0.79173 0.0
N784 N 0.32919 0.14683 0.82968 0.0
N785 N 0.34791 0.36772 0.80488 0.0
C786 C 0.33095 0.20038 0.81834 0.0
C787 C 0.34165 0.31331 0.80705 0.0
N788 N 0.24394 0.21934 0.85986 0.0
N789 N 0.41073 0.29487 0.73956 0.0
H790 H 0.32172 0.39411 0.82493 0.0
H791 H 0.37877 0.38633 0.78394 0.0
H792 H 0.43612 0.268 0.7189 0.0
H793 H 0.4114 0.33434 0.72566 0.0
H794 H 0.23058 0.17987 0.85591 0.0
H795 H 0.21679 0.24664 0.87757 0.0
H796 H 0.30015 0.12989 0.85441 0.0
H797 H 0.35801 0.11974 0.81512 0.0
C798 C 0.24116 0.8326 0.35289 0.0
C799 C 0.21965 0.85217 0.40223 0.0
C800 C 0.26556 0.93649 0.39073 0.0
C801 C 0.28116 0.92148 0.33805 0.0
N802 N 0.27647 0.85674 0.26496 0.0
N803 N 0.19438 0.93067 0.45499 0.0
C804 C 0.26711 0.86968 0.31763 0.0
C805 C 0.22582 0.90682 0.41649 0.0
N806 N 0.23656 0.77937 0.33992 0.0
N807 N 0.28946 0.97861 0.41674 0.0
H808 H 0.16444 0.91063 0.47594 0.0
H809 H 0.19429 0.97227 0.46053 0.0
H810 H 0.32251 -0.00134 0.40083 0.0
H811 H 0.28014 0.98944 0.45627 0.0
H812 H 0.25527 0.7617 0.30658 0.0
H813 H 0.21565 0.75263 0.36432 0.0
H814 H 0.26296 0.82131 0.24711 0.0
H815 H 0.29408 0.88338 0.23809 0.0
C816 C 0.72128 0.80291 0.89618 0.0
C817 C 0.71451 0.74637 0.89871 0.0
C818 C 0.63155 0.75767 0.84679 0.0
C819 C 0.62907 0.81224 0.86358 0.0
N820 N 0.67485 0.88929 0.90076 0.0
N821 N 0.66567 0.66866 0.86542 0.0
C822 C 0.67557 0.8363 0.88575 0.0
C823 C 0.67134 0.72315 0.86919 0.0
N824 N 0.76999 0.82394 0.90914 0.0
N825 N 0.596 0.73919 0.80924 0.0
H826 H 0.69621 0.64127 0.87401 0.0
H827 H 0.63003 0.65062 0.85309 0.0
H828 H 0.5681 0.76468 0.79057 0.0
H829 H 0.59846 0.70073 0.79227 0.0
H830 H 0.77867 0.86474 0.9056 0.0
H831 H 0.80268 0.79888 0.91868 0.0
H832 H 0.70621 0.90727 0.92179 0.0
H833 H 0.64134 0.91436 0.8955 0.0
loop_
_geom_bond_atom_site_label_1
_geom_bond_atom_site_label_2
_geom_bond_distance
_geom_bond_site_symmetry_2
_ccdc_geom_bond_type
C0 O1 1.201 . S
C0 C2 1.493 . S
C0 N17 1.318 . S
O1 C0 1.201 . S
C2 C0 1.493 . S
C2 C3 1.381 . S
C2 N7 1.335 1_655 S
C3 C2 1.381 . S
C3 C4 1.411 1_655 S
C3 H49 0.931 . S
C4 C3 1.411 1_455 S
C4 C5 1.384 . S
C4 H50 0.930 . S
C5 C4 1.384 . S
C5 C6 1.376 . S
C5 H51 0.929 . S
C6 C5 1.376 . S
C6 N7 1.330 . S
C6 C21 1.484 . S
N7 C2 1.335 1_455 S
N7 C6 1.330 . S
N7 Co9 1.859 . S
N8 Co9 1.962 . S
N8 C19 1.318 . S
N8 C43 1.421 . S
Co9 N7 1.859 . S
Co9 N8 1.962 . S
Co9 N10 1.859 . S
Co9 N16 1.958 . S
Co9 N17 1.962 1_455 S
Co9 N18 1.958 . S
N10 Co9 1.859 . S
N10 C14 1.330 . S
N10 C15 1.335 . S
C11 C12 1.411 . S
C11 C15 1.381 . S
C11 H52 0.931 . S
C12 C11 1.411 . S
C12 C13 1.384 . S
C12 H53 0.930 . S
C13 C12 1.384 . S
C13 C14 1.376 . S
C13 H54 0.929 . S
C14 N10 1.330 . S
C14 C13 1.376 . S
C14 C29 1.484 . S
C15 N10 1.335 . S
C15 C11 1.381 . S
C15 C19 1.493 . S
N16 Co9 1.958 . S
N16 C29 1.344 . S
N16 C31 1.425 . S
N17 C0 1.318 . S
N17 Co9 1.962 1_655 S
N17 C37 1.421 . S
N18 Co9 1.958 . S
N18 C21 1.344 . S
N18 C23 1.425 . S
C19 N8 1.318 . S
C19 C15 1.493 . S
C19 O20 1.201 . S
O20 C19 1.201 . S
C21 C6 1.484 . S
C21 N18 1.344 . S
C21 O22 1.268 . S
O22 C21 1.268 . S
C23 N18 1.425 . S
C23 C25 1.392 . S
C23 C26 1.368 . S
C24 C25 1.382 . S
C24 C28 1.386 . S
C25 C23 1.392 . S
C25 C24 1.382 . S
C25 H55 0.928 . S
C26 C23 1.368 . S
C26 C27 1.367 . S
C26 H56 0.930 . S
C27 C26 1.367 . S
C27 C28 1.369 . S
C28 C24 1.386 . S
C28 C27 1.369 . S
C28 H57 0.930 . S
C29 C14 1.484 . S
C29 N16 1.344 . S
C29 O30 1.268 . S
O30 C29 1.268 . S
C31 N16 1.425 . S
C31 C32 1.368 . S
C31 C36 1.392 1_455 S
C32 C31 1.368 . S
C32 C33 1.367 . S
C32 H58 0.930 . S
C33 C32 1.367 . S
C33 C34 1.369 . S
C34 C33 1.369 . S
C34 C35 1.386 1_455 S
C34 H59 0.930 . S
C35 C34 1.386 1_655 S
C35 C36 1.382 . S
C36 C31 1.392 1_655 S
C36 C35 1.382 . S
C36 H60 0.928 . S
C37 N17 1.421 . S
C37 C38 1.371 . S
C37 C42 1.385 . S
C38 C37 1.371 . S
C38 C39 1.367 . S
C38 H61 0.931 . S
C39 C38 1.367 . S
C39 C40 1.401 . S
C40 C39 1.401 . S
C40 C41 1.385 . S
C40 H62 0.930 . S
C41 C40 1.385 . S
C41 C42 1.402 . S
C42 C37 1.385 . S
C42 C41 1.402 . S
C42 H63 0.929 . S
C43 N8 1.421 . S
C43 C46 1.385 1_455 S
C43 C47 1.371 . S
C44 C45 1.385 1_455 S
C44 C48 1.401 . S
C44 H64 0.930 . S
C45 C44 1.385 1_655 S
C45 C46 1.402 . S
C46 C43 1.385 1_655 S
C46 C45 1.402 . S
C46 H65 0.929 . S
C47 C43 1.371 . S
C47 C48 1.367 . S
C47 H66 0.931 . S
C48 C44 1.401 . S
C48 C47 1.367 . S
H49 C3 0.931 . S
H50 C4 0.930 . S
H51 C5 0.929 . S
H52 C11 0.931 . S
H53 C12 0.930 . S
H54 C13 0.929 . S
H55 C25 0.928 . S
H56 C26 0.930 . S
H57 C28 0.930 . S
H58 C32 0.930 . S
H59 C34 0.930 . S
H60 C36 0.928 . S
H61 C38 0.931 . S
H62 C40 0.930 . S
H63 C42 0.929 . S
H64 C44 0.930 . S
H65 C46 0.929 . S
H66 C47 0.931 . S
C67 O68 1.201 . S
C67 C69 1.493 . S
C67 N84 1.318 . S
O68 C67 1.201 . S
C69 C67 1.493 . S
C69 C70 1.381 . S
C69 N74 1.335 1_556 S
C70 C69 1.381 . S
C70 C71 1.411 1_556 S
C70 H116 0.931 . S
C71 C70 1.411 1_554 S
C71 C72 1.384 . S
C71 H117 0.930 . S
C72 C71 1.384 . S
C72 C73 1.376 . S
C72 H118 0.929 . S
C73 C72 1.376 . S
C73 N74 1.330 . S
C73 C88 1.484 . S
N74 C69 1.335 1_554 S
N74 C73 1.330 . S
N74 Co76 1.859 . S
N75 Co76 1.962 . S
N75 C86 1.318 . S
N75 C110 1.421 . S
Co76 N74 1.859 . S
Co76 N75 1.962 . S
Co76 N77 1.859 . S
Co76 N83 1.958 . S
Co76 N84 1.962 1_554 S
Co76 N85 1.958 . S
N77 Co76 1.859 . S
N77 C81 1.330 . S
N77 C82 1.335 . S
C78 C79 1.411 . S
C78 C82 1.381 . S
C78 H119 0.931 . S
C79 C78 1.411 . S
C79 C80 1.384 . S
C79 H120 0.930 . S
C80 C79 1.384 . S
C80 C81 1.376 . S
C80 H121 0.929 . S
C81 N77 1.330 . S
C81 C80 1.376 . S
C81 C96 1.484 . S
C82 N77 1.335 . S
C82 C78 1.381 . S
C82 C86 1.493 . S
N83 Co76 1.958 . S
N83 C96 1.344 . S
N83 C98 1.425 . S
N84 C67 1.318 . S
N84 Co76 1.962 1_556 S
N84 C104 1.421 . S
N85 Co76 1.958 . S
N85 C88 1.344 . S
N85 C90 1.425 . S
C86 N75 1.318 . S
C86 C82 1.493 . S
C86 O87 1.201 . S
O87 C86 1.201 . S
C88 C73 1.484 . S
C88 N85 1.344 . S
C88 O89 1.268 . S
O89 C88 1.268 . S
C90 N85 1.425 . S
C90 C92 1.392 . S
C90 C93 1.368 . S
C91 C92 1.382 . S
C91 C95 1.386 . S
C92 C90 1.392 . S
C92 C91 1.382 . S
C92 H122 0.928 . S
C93 C90 1.368 . S
C93 C94 1.367 . S
C93 H123 0.930 . S
C94 C93 1.367 . S
C94 C95 1.369 . S
C95 C91 1.386 . S
C95 C94 1.369 . S
C95 H124 0.930 . S
C96 C81 1.484 . S
C96 N83 1.344 . S
C96 O97 1.268 . S
O97 C96 1.268 . S
C98 N83 1.425 . S
C98 C99 1.368 . S
C98 C103 1.392 1_554 S
C99 C98 1.368 . S
C99 C100 1.367 . S
C99 H125 0.930 . S
C100 C99 1.367 . S
C100 C101 1.369 1_554 S
C101 C100 1.369 1_556 S
C101 C102 1.386 . S
C101 H126 0.930 . S
C102 C101 1.386 . S
C102 C103 1.382 . S
C103 C98 1.392 1_556 S
C103 C102 1.382 . S
C103 H127 0.928 . S
C104 N84 1.421 . S
C104 C105 1.371 . S
C104 C109 1.385 . S
C105 C104 1.371 . S
C105 C106 1.367 . S
C105 H128 0.931 . S
C106 C105 1.367 . S
C106 C107 1.401 . S
C107 C106 1.401 . S
C107 C108 1.385 . S
C107 H129 0.930 . S
C108 C107 1.385 . S
C108 C109 1.402 . S
C109 C104 1.385 . S
C109 C108 1.402 . S
C109 H130 0.929 . S
C110 N75 1.421 . S
C110 C113 1.385 1_554 S
C110 C114 1.371 . S
C111 C112 1.385 1_554 S
C111 C115 1.401 . S
C111 H131 0.930 . S
C112 C111 1.385 1_556 S
C112 C113 1.402 . S
C113 C110 1.385 1_556 S
C113 C112 1.402 . S
C113 H132 0.929 . S
C114 C110 1.371 . S
C114 C115 1.367 . S
C114 H133 0.931 . S
C115 C111 1.401 . S
C115 C114 1.367 . S
H116 C70 0.931 . S
H117 C71 0.930 . S
H118 C72 0.929 . S
H119 C78 0.931 . S
H120 C79 0.930 . S
H121 C80 0.929 . S
H122 C92 0.928 . S
H123 C93 0.930 . S
H124 C95 0.930 . S
H125 C99 0.930 . S
H126 C101 0.930 . S
H127 C103 0.928 . S
H128 C105 0.931 . S
H129 C107 0.930 . S
H130 C109 0.929 . S
H131 C111 0.930 . S
H132 C113 0.929 . S
H133 C114 0.931 . S
C134 O135 1.201 . S
C134 C136 1.493 . S
C134 N151 1.318 . S
O135 C134 1.201 . S
C136 C134 1.493 . S
C136 C137 1.381 . S
C136 N141 1.335 1_455 S
C137 C136 1.381 . S
C137 C138 1.411 1_455 S
C137 H183 0.931 . S
C138 C137 1.411 1_655 S
C138 C139 1.384 . S
C138 H184 0.930 . S
C139 C138 1.384 . S
C139 C140 1.376 . S
C139 H185 0.929 . S
C140 C139 1.376 . S
C140 N141 1.330 . S
C140 C155 1.484 . S
N141 C136 1.335 1_655 S
N141 C140 1.330 . S
N141 Co143 1.859 . S
N142 Co143 1.962 . S
N142 C153 1.318 . S
N142 C177 1.421 1_655 S
Co143 N141 1.859 . S
Co143 N142 1.962 . S
Co143 N144 1.859 . S
Co143 N150 1.959 . S
Co143 N151 1.962 1_655 S
Co143 N152 1.958 . S
N144 Co143 1.859 . S
N144 C148 1.330 . S
N144 C149 1.335 . S
C145 C146 1.411 . S
C145 C149 1.381 . S
C145 H186 0.931 . S
C146 C145 1.411 . S
C146 C147 1.384 . S
C146 H187 0.930 . S
C147 C146 1.384 . S
C147 C148 1.376 . S
C147 H188 0.929 . S
C148 N144 1.330 . S
C148 C147 1.376 . S
C148 C163 1.484 . S
C149 N144 1.335 . S
C149 C145 1.381 . S
C149 C153 1.493 . S
N150 Co143 1.959 . S
N150 C163 1.345 . S
N150 C165 1.424 1_655 S
N151 C134 1.318 . S
N151 Co143 1.962 1_455 S
N151 C171 1.421 . S
N152 Co143 1.958 . S
N152 C155 1.344 . S
N152 C157 1.425 . S
C153 N142 1.318 . S
C153 C149 1.493 . S
C153 O154 1.201 . S
O154 C153 1.201 . S
C155 C140 1.484 . S
C155 N152 1.344 . S
C155 O156 1.268 . S
O156 C155 1.268 . S
C157 N152 1.425 . S
C157 C159 1.392 . S
C157 C160 1.368 . S
C158 C159 1.382 . S
C158 C162 1.386 . S
C159 C157 1.392 . S
C159 C158 1.382 . S
C159 H189 0.928 . S
C160 C157 1.368 . S
C160 C161 1.367 . S
C160 H190 0.930 . S
C161 C160 1.367 . S
C161 C162 1.369 . S
C162 C158 1.386 . S
C162 C161 1.369 . S
C162 H191 0.930 . S
C163 C148 1.484 . S
C163 N150 1.345 . S
C163 O164 1.268 . S
O164 C163 1.268 . S
C165 N150 1.424 1_455 S
C165 C166 1.368 1_455 S
C165 C170 1.392 . S
C166 C165 1.368 1_655 S
C166 C167 1.367 . S
C166 H192 0.930 . S
C167 C166 1.367 . S
C167 C168 1.369 1_655 S
C168 C167 1.369 1_455 S
C168 C169 1.386 . S
C168 H193 0.930 . S
C169 C168 1.386 . S
C169 C170 1.382 . S
C170 C165 1.392 . S
C170 C169 1.382 . S
C170 H194 0.928 . S
C171 N151 1.421 . S
C171 C172 1.371 . S
C171 C176 1.385 . S
C172 C171 1.371 . S
C172 C173 1.367 . S
C172 H195 0.931 . S
C173 C172 1.367 . S
C173 C174 1.401 . S
C174 C173 1.401 . S
C174 C175 1.385 . S
C174 H196 0.930 . S
C175 C174 1.385 . S
C175 C176 1.402 . S
C176 C171 1.385 . S
C176 C175 1.402 . S
C176 H197 0.929 . S
C177 N142 1.421 1_455 S
C177 C180 1.396 . S
C177 C181 1.360 1_455 S
C178 C179 1.385 . S
C178 C182 1.401 1_455 S
C178 H198 0.930 . S
C179 C178 1.385 . S
C179 C180 1.402 . S
C180 C177 1.396 . S
C180 C179 1.402 . S
C180 H199 0.929 . S
C181 C177 1.360 1_655 S
C181 C182 1.367 . S
C181 H200 0.931 . S
C182 C178 1.401 1_655 S
C182 C181 1.367 . S
H183 C137 0.931 . S
H184 C138 0.930 . S
H185 C139 0.929 . S
H186 C145 0.931 . S
H187 C146 0.930 . S
H188 C147 0.929 . S
H189 C159 0.928 . S
H190 C160 0.930 . S
H191 C162 0.930 . S
H192 C166 0.930 . S
H193 C168 0.930 . S
H194 C170 0.928 . S
H195 C172 0.931 . S
H196 C174 0.930 . S
H197 C176 0.929 . S
H198 C178 0.930 . S
H199 C180 0.929 . S
H200 C181 0.931 . S
C201 O202 1.201 . S
C201 C203 1.493 . S
C201 N218 1.318 . S
O202 C201 1.201 . S
C203 C201 1.493 . S
C203 C204 1.381 . S
C203 N208 1.335 1_556 S
C204 C203 1.381 . S
C204 C205 1.411 1_556 S
C204 H250 0.931 . S
C205 C204 1.411 1_554 S
C205 C206 1.384 . S
C205 H251 0.930 . S
C206 C205 1.384 . S
C206 C207 1.376 . S
C206 H252 0.929 . S
C207 C206 1.376 . S
C207 N208 1.330 . S
C207 C222 1.484 . S
N208 C203 1.335 1_554 S
N208 C207 1.330 . S
N208 Co210 1.859 . S
N209 Co210 1.962 . S
N209 C220 1.318 . S
N209 C244 1.421 . S
Co210 N208 1.859 . S
Co210 N209 1.962 . S
Co210 N211 1.859 . S
Co210 N217 1.958 . S
Co210 N218 1.962 1_554 S
Co210 N219 1.958 . S
N211 Co210 1.859 . S
N211 C215 1.330 . S
N211 C216 1.335 . S
C212 C213 1.411 . S
C212 C216 1.381 . S
C212 H253 0.931 . S
C213 C212 1.411 . S
C213 C214 1.384 . S
C213 H254 0.930 . S
C214 C213 1.384 . S
C214 C215 1.376 . S
C214 H255 0.929 . S
C215 N211 1.330 . S
C215 C214 1.376 . S
C215 C230 1.484 . S
C216 N211 1.335 . S
C216 C212 1.381 . S
C216 C220 1.493 . S
N217 Co210 1.958 . S
N217 C230 1.344 . S
N217 C232 1.425 . S
N218 C201 1.318 . S
N218 Co210 1.962 1_556 S
N218 C238 1.421 . S
N219 Co210 1.958 . S
N219 C222 1.344 . S
N219 C224 1.425 . S
C220 N209 1.318 . S
C220 C216 1.493 . S
C220 O221 1.201 . S
O221 C220 1.201 . S
C222 C207 1.484 . S
C222 N219 1.344 . S
C222 O223 1.268 . S
O223 C222 1.268 . S
C224 N219 1.425 . S
C224 C226 1.392 . S
C224 C227 1.368 . S
C225 C226 1.382 . S
C225 C229 1.386 . S
C226 C224 1.392 . S
C226 C225 1.382 . S
C226 H256 0.928 . S
C227 C224 1.368 . S
C227 C228 1.367 . S
C227 H257 0.930 . S
C228 C227 1.367 . S
C228 C229 1.369 . S
C229 C225 1.386 . S
C229 C228 1.369 . S
C229 H258 0.930 . S
C230 C215 1.484 . S
C230 N217 1.344 . S
C230 O231 1.268 . S
O231 C230 1.268 . S
C232 N217 1.425 . S
C232 C233 1.368 . S
C232 C237 1.392 1_554 S
C233 C232 1.368 . S
C233 C234 1.367 . S
C233 H259 0.930 . S
C234 C233 1.367 . S
C234 C235 1.369 1_554 S
C235 C234 1.369 1_556 S
C235 C236 1.386 . S
C235 H260 0.930 . S
C236 C235 1.386 . S
C236 C237 1.382 . S
C237 C232 1.392 1_556 S
C237 C236 1.382 . S
C237 H261 0.928 . S
C238 N218 1.421 . S
C238 C239 1.371 . S
C238 C243 1.385 . S
C239 C238 1.371 . S
C239 C240 1.367 . S
C239 H262 0.931 . S
C240 C239 1.367 . S
C240 C241 1.401 . S
C241 C240 1.401 . S
C241 C242 1.385 . S
C241 H263 0.930 . S
C242 C241 1.385 . S
C242 C243 1.402 . S
C243 C238 1.385 . S
C243 C242 1.402 . S
C243 H264 0.929 . S
C244 N209 1.421 . S
C244 C247 1.385 1_554 S
C244 C248 1.371 . S
C245 C246 1.385 1_554 S
C245 C249 1.401 . S
C245 H265 0.930 . S
C246 C245 1.385 1_556 S
C246 C247 1.402 . S
C247 C244 1.385 1_556 S
C247 C246 1.402 . S
C247 H266 0.929 . S
C248 C244 1.371 . S
C248 C249 1.367 . S
C248 H267 0.931 . S
C249 C245 1.401 . S
C249 C248 1.367 . S
H250 C204 0.931 . S
H251 C205 0.930 . S
H252 C206 0.929 . S
H253 C212 0.931 . S
H254 C213 0.930 . S
H255 C214 0.929 . S
H256 C226 0.928 . S
H257 C227 0.930 . S
H258 C229 0.930 . S
H259 C233 0.930 . S
H260 C235 0.930 . S
H261 C237 0.928 . S
H262 C239 0.931 . S
H263 C241 0.930 . S
H264 C243 0.929 . S
H265 C245 0.930 . S
H266 C247 0.929 . S
H267 C248 0.931 . S
C268 O269 1.201 . S
C268 C270 1.493 . S
C268 N285 1.318 . S
O269 C268 1.201 . S
C270 C268 1.493 . S
C270 C271 1.381 . S
C270 N275 1.335 1_545 S
C271 C270 1.381 . S
C271 C272 1.411 1_545 S
C271 H317 0.931 . S
C272 C271 1.411 1_565 S
C272 C273 1.384 . S
C272 H318 0.930 . S
C273 C272 1.384 . S
C273 C274 1.376 . S
C273 H319 0.929 . S
C274 C273 1.376 . S
C274 N275 1.330 . S
C274 C289 1.484 . S
N275 C270 1.335 1_565 S
N275 C274 1.330 . S
N275 Co277 1.859 . S
N276 Co277 1.962 . S
N276 C287 1.318 . S
N276 C311 1.421 . S
Co277 N275 1.859 . S
Co277 N276 1.962 . S
Co277 N278 1.859 . S
Co277 N284 1.958 . S
Co277 N285 1.962 1_565 S
Co277 N286 1.958 . S
N278 Co277 1.859 . S
N278 C282 1.330 . S
N278 C283 1.335 . S
C279 C280 1.411 . S
C279 C283 1.381 . S
C279 H320 0.931 . S
C280 C279 1.411 . S
C280 C281 1.384 . S
C280 H321 0.930 . S
C281 C280 1.384 . S
C281 C282 1.376 . S
C281 H322 0.929 . S
C282 N278 1.330 . S
C282 C281 1.376 . S
C282 C297 1.484 . S
C283 N278 1.335 . S
C283 C279 1.381 . S
C283 C287 1.493 . S
N284 Co277 1.958 . S
N284 C297 1.344 . S
N284 C299 1.425 . S
N285 C268 1.318 . S
N285 Co277 1.962 1_545 S
N285 C305 1.421 . S
N286 Co277 1.958 . S
N286 C289 1.344 . S
N286 C291 1.425 . S
C287 N276 1.318 . S
C287 C283 1.493 . S
C287 O288 1.201 . S
O288 C287 1.201 . S
C289 C274 1.484 . S
C289 N286 1.344 . S
C289 O290 1.268 . S
O290 C289 1.268 . S
C291 N286 1.425 . S
C291 C293 1.392 . S
C291 C294 1.368 . S
C292 C293 1.382 . S
C292 C296 1.386 . S
C293 C291 1.392 . S
C293 C292 1.382 . S
C293 H323 0.928 . S
C294 C291 1.368 . S
C294 C295 1.367 . S
C294 H324 0.930 . S
C295 C294 1.367 . S
C295 C296 1.369 . S
C296 C292 1.386 . S
C296 C295 1.369 . S
C296 H325 0.930 . S
C297 C282 1.484 . S
C297 N284 1.344 . S
C297 O298 1.268 . S
O298 C297 1.268 . S
C299 N284 1.425 . S
C299 C300 1.369 . S
C299 C304 1.391 1_565 S
C300 C299 1.369 . S
C300 C301 1.367 . S
C300 H326 0.930 . S
C301 C300 1.367 . S
C301 C302 1.369 1_565 S
C302 C301 1.369 1_545 S
C302 C303 1.386 . S
C302 H327 0.930 . S
C303 C302 1.386 . S
C303 C304 1.382 . S
C304 C299 1.391 1_545 S
C304 C303 1.382 . S
C304 H328 0.928 . S
C305 N285 1.421 . S
C305 C306 1.371 . S
C305 C310 1.385 . S
C306 C305 1.371 . S
C306 C307 1.367 . S
C306 H329 0.931 . S
C307 C306 1.367 . S
C307 C308 1.401 . S
C308 C307 1.401 . S
C308 C309 1.385 . S
C308 H330 0.930 . S
C309 C308 1.385 . S
C309 C310 1.402 . S
C310 C305 1.385 . S
C310 C309 1.402 . S
C310 H331 0.929 . S
C311 N276 1.421 . S
C311 C314 1.385 1_565 S
C311 C315 1.371 . S
C312 C313 1.372 1_565 S
C312 C316 1.414 . S
C312 H332 0.930 . S
C313 C312 1.372 1_545 S
C313 C314 1.402 . S
C314 C311 1.385 1_545 S
C314 C313 1.402 . S
C314 H333 0.929 . S
C315 C311 1.371 . S
C315 C316 1.367 . S
C315 H334 0.931 . S
C316 C312 1.414 . S
C316 C315 1.367 . S
H317 C271 0.931 . S
H318 C272 0.930 . S
H319 C273 0.929 . S
H320 C279 0.931 . S
H321 C280 0.930 . S
H322 C281 0.929 . S
H323 C293 0.928 . S
H324 C294 0.930 . S
H325 C296 0.930 . S
H326 C300 0.930 . S
H327 C302 0.930 . S
H328 C304 0.928 . S
H329 C306 0.931 . S
H330 C308 0.930 . S
H331 C310 0.929 . S
H332 C312 0.930 . S
H333 C314 0.929 . S
H334 C315 0.931 . S
C335 O336 1.201 . S
C335 C337 1.493 . S
C335 N352 1.318 . S
O336 C335 1.201 . S
C337 C335 1.493 . S
C337 C338 1.381 . S
C337 N342 1.335 1_565 S
C338 C337 1.381 . S
C338 C339 1.411 1_565 S
C338 H384 0.931 . S
C339 C338 1.411 1_545 S
C339 C340 1.384 . S
C339 H385 0.930 . S
C340 C339 1.384 . S
C340 C341 1.376 . S
C340 H386 0.929 . S
C341 C340 1.376 . S
C341 N342 1.330 . S
C341 C356 1.484 . S
N342 C337 1.335 1_545 S
N342 C341 1.330 . S
N342 Co344 1.859 . S
N343 Co344 1.962 . S
N343 C354 1.318 . S
N343 C378 1.421 . S
Co344 N342 1.859 . S
Co344 N343 1.962 . S
Co344 N345 1.859 . S
Co344 N351 1.958 . S
Co344 N352 1.962 1_545 S
Co344 N353 1.958 . S
N345 Co344 1.859 . S
N345 C349 1.330 . S
N345 C350 1.335 . S
C346 C347 1.411 . S
C346 C350 1.381 . S
C346 H387 0.931 . S
C347 C346 1.411 . S
C347 C348 1.384 . S
C347 H388 0.930 . S
C348 C347 1.384 . S
C348 C349 1.376 . S
C348 H389 0.929 . S
C349 N345 1.330 . S
C349 C348 1.376 . S
C349 C364 1.484 . S
C350 N345 1.335 . S
C350 C346 1.381 . S
C350 C354 1.493 . S
N351 Co344 1.958 . S
N351 C364 1.344 . S
N351 C366 1.425 . S
N352 C335 1.318 . S
N352 Co344 1.962 1_565 S
N352 C372 1.421 . S
N353 Co344 1.958 . S
N353 C356 1.344 . S
N353 C358 1.425 . S
C354 N343 1.318 . S
C354 C350 1.493 . S
C354 O355 1.201 . S
O355 C354 1.201 . S
C356 C341 1.484 . S
C356 N353 1.344 . S
C356 O357 1.268 . S
O357 C356 1.268 . S
C358 N353 1.425 . S
C358 C360 1.392 . S
C358 C361 1.368 . S
C359 C360 1.382 . S
C359 C363 1.386 . S
C360 C358 1.392 . S
C360 C359 1.382 . S
C360 H390 0.928 . S
C361 C358 1.368 . S
C361 C362 1.367 . S
C361 H391 0.930 . S
C362 C361 1.367 . S
C362 C363 1.369 . S
C363 C359 1.386 . S
C363 C362 1.369 . S
C363 H392 0.930 . S
C364 C349 1.484 . S
C364 N351 1.344 . S
C364 O365 1.268 . S
O365 C364 1.268 . S
C366 N351 1.425 . S
C366 C367 1.368 . S
C366 C371 1.392 1_545 S
C367 C366 1.368 . S
C367 C368 1.367 . S
C367 H393 0.930 . S
C368 C367 1.367 . S
C368 C369 1.351 1_545 S
C369 C368 1.351 1_565 S
C369 C370 1.403 . S
C369 H394 0.932 . S
C370 C369 1.403 . S
C370 C371 1.382 . S
C371 C366 1.392 1_565 S
C371 C370 1.382 . S
C371 H395 0.928 . S
C372 N352 1.421 . S
C372 C373 1.371 . S
C372 C377 1.385 . S
C373 C372 1.371 . S
C373 C374 1.367 . S
C373 H396 0.931 . S
C374 C373 1.367 . S
C374 C375 1.401 . S
C375 C374 1.401 . S
C375 C376 1.385 . S
C375 H397 0.930 . S
C376 C375 1.385 . S
C376 C377 1.402 . S
C377 C372 1.385 . S
C377 C376 1.402 . S
C377 H398 0.929 . S
C378 N343 1.421 . S
C378 C381 1.385 1_545 S
C378 C382 1.371 . S
C379 C380 1.385 1_545 S
C379 C383 1.401 . S
C379 H399 0.930 . S
C380 C379 1.385 1_565 S
C380 C381 1.402 . S
C381 C378 1.385 1_565 S
C381 C380 1.402 . S
C381 H400 0.929 . S
C382 C378 1.371 . S
C382 C383 1.367 . S
C382 H401 0.931 . S
C383 C379 1.401 . S
C383 C382 1.367 . S
H384 C338 0.931 . S
H385 C339 0.930 . S
H386 C340 0.929 . S
H387 C346 0.931 . S
H388 C347 0.930 . S
H389 C348 0.929 . S
H390 C360 0.928 . S
H391 C361 0.930 . S
H392 C363 0.930 . S
H393 C367 0.930 . S
H394 C369 0.932 . S
H395 C371 0.928 . S
H396 C373 0.931 . S
H397 C375 0.930 . S
H398 C377 0.929 . S
H399 C379 0.930 . S
H400 C381 0.929 . S
H401 C382 0.931 . S
C402 C403 1.363 . S
C402 C408 1.379 . S
C402 N410 1.356 . S
C403 C402 1.363 . S
C403 C409 1.363 . S
C404 C405 1.363 . S
C404 C409 1.379 . S
C404 N411 1.356 . S
C405 C404 1.363 . S
C405 C408 1.363 . S
N406 C408 1.356 . S
N406 H418 0.984 . S
N406 H419 0.985 . S
N407 C409 1.356 . S
N407 H412 0.984 . S
N407 H413 0.985 . S
C408 C402 1.379 . S
C408 C405 1.363 . S
C408 N406 1.356 . S
C409 C403 1.363 . S
C409 C404 1.379 . S
C409 N407 1.356 . S
N410 C402 1.356 . S
N410 H416 0.984 . S
N410 H417 0.984 . S
N411 C404 1.356 . S
N411 H414 0.984 . S
N411 H415 0.985 . S
H412 N407 0.984 . S
H413 N407 0.985 . S
H414 N411 0.984 . S
H415 N411 0.985 . S
H416 N410 0.984 . S
H417 N410 0.984 . S
H418 N406 0.984 . S
H419 N406 0.985 . S
C420 C421 1.363 . S
C420 C426 1.379 . S
C420 N428 1.356 . S
C421 C420 1.363 . S
C421 C427 1.363 . S
C422 C423 1.363 . S
C422 C427 1.379 . S
C422 N429 1.356 . S
C423 C422 1.363 . S
C423 C426 1.363 . S
N424 C426 1.356 . S
N424 H436 0.984 . S
N424 H437 0.985 . S
N425 C427 1.356 . S
N425 H430 0.984 . S
N425 H431 0.985 . S
C426 C420 1.379 . S
C426 C423 1.363 . S
C426 N424 1.356 . S
C427 C421 1.363 . S
C427 C422 1.379 . S
C427 N425 1.356 . S
N428 C420 1.356 . S
N428 H434 0.984 . S
N428 H435 0.984 . S
N429 C422 1.356 . S
N429 H432 0.984 . S
N429 H433 0.985 . S
H430 N425 0.984 . S
H431 N425 0.985 . S
H432 N429 0.984 . S
H433 N429 0.985 . S
H434 N428 0.984 . S
H435 N428 0.984 . S
H436 N424 0.984 . S
H437 N424 0.985 . S
C438 C439 1.363 . S
C438 C444 1.379 . S
C438 N446 1.356 . S
C439 C438 1.363 . S
C439 C445 1.363 . S
C440 C441 1.363 . S
C440 C445 1.379 . S
C440 N447 1.356 . S
C441 C440 1.363 . S
C441 C444 1.363 . S
N442 C444 1.356 . S
N442 H454 0.984 1_655 S
N442 H455 0.985 1_655 S
N443 C445 1.356 . S
N443 H448 0.984 . S
N443 H449 0.985 . S
C444 C438 1.379 . S
C444 C441 1.363 . S
C444 N442 1.356 . S
C445 C439 1.363 . S
C445 C440 1.379 . S
C445 N443 1.356 . S
N446 C438 1.356 . S
N446 H452 0.984 . S
N446 H453 0.984 . S
N447 C440 1.356 . S
N447 H450 0.984 . S
N447 H451 0.985 . S
H448 N443 0.984 . S
H449 N443 0.985 . S
H450 N447 0.984 . S
H451 N447 0.985 . S
H452 N446 0.984 . S
H453 N446 0.984 . S
H454 N442 0.984 1_455 S
H455 N442 0.985 1_455 S
C456 C457 1.363 . S
C456 C462 1.379 . S
C456 N464 1.356 . S
C457 C456 1.363 . S
C457 C463 1.363 . S
C458 C459 1.363 . S
C458 C463 1.379 . S
C458 N465 1.356 . S
C459 C458 1.363 . S
C459 C462 1.363 . S
N460 C462 1.356 . S
N460 H472 0.984 1_655 S
N460 H473 0.985 . S
N461 C463 1.356 . S
N461 H466 0.984 . S
N461 H467 0.985 . S
C462 C456 1.379 . S
C462 C459 1.363 . S
C462 N460 1.356 . S
C463 C457 1.363 . S
C463 C458 1.379 . S
C463 N461 1.356 . S
N464 C456 1.356 . S
N464 H470 0.984 . S
N464 H471 0.984 . S
N465 C458 1.356 . S
N465 H468 0.984 . S
N465 H469 0.985 . S
H466 N461 0.984 . S
H467 N461 0.985 . S
H468 N465 0.984 . S
H469 N465 0.985 . S
H470 N464 0.984 . S
H471 N464 0.984 . S
H472 N460 0.984 1_455 S
H473 N460 0.985 . S
C474 C475 1.363 . S
C474 C480 1.379 . S
C474 N482 1.356 . S
C475 C474 1.363 . S
C475 C481 1.363 . S
C476 C477 1.363 . S
C476 C481 1.379 . S
C476 N483 1.356 . S
C477 C476 1.363 . S
C477 C480 1.363 . S
N478 C480 1.356 . S
N478 H490 0.984 . S
N478 H491 0.985 . S
N479 C481 1.356 . S
N479 H484 0.984 . S
N479 H485 0.985 . S
C480 C474 1.379 . S
C480 C477 1.363 . S
C480 N478 1.356 . S
C481 C475 1.363 . S
C481 C476 1.379 . S
C481 N479 1.356 . S
N482 C474 1.356 . S
N482 H488 0.984 . S
N482 H489 0.984 . S
N483 C476 1.356 . S
N483 H486 0.984 . S
N483 H487 0.985 . S
H484 N479 0.984 . S
H485 N479 0.985 . S
H486 N483 0.984 . S
H487 N483 0.985 . S
H488 N482 0.984 . S
H489 N482 0.984 . S
H490 N478 0.984 . S
H491 N478 0.985 . S
C492 C493 1.363 . S
C492 C498 1.379 . S
C492 N500 1.356 . S
C493 C492 1.363 . S
C493 C499 1.363 . S
C494 C495 1.363 . S
C494 C499 1.379 . S
C494 N501 1.356 . S
C495 C494 1.363 . S
C495 C498 1.363 . S
N496 C498 1.356 . S
N496 H508 0.984 . S
N496 H509 0.985 . S
N497 C499 1.356 . S
N497 H502 0.984 . S
N497 H503 0.985 . S
C498 C492 1.379 . S
C498 C495 1.363 . S
C498 N496 1.356 . S
C499 C493 1.363 . S
C499 C494 1.379 . S
C499 N497 1.356 . S
N500 C492 1.356 . S
N500 H506 0.984 . S
N500 H507 0.984 . S
N501 C494 1.356 . S
N501 H504 0.984 . S
N501 H505 0.985 1_556 S
H502 N497 0.984 . S
H503 N497 0.985 . S
H504 N501 0.984 . S
H505 N501 0.985 1_554 S
H506 N500 0.984 . S
H507 N500 0.984 . S
H508 N496 0.984 . S
H509 N496 0.985 . S
C510 C511 1.363 . S
C510 C516 1.379 . S
C510 N518 1.356 . S
C511 C510 1.363 . S
C511 C517 1.363 . S
C512 C513 1.363 . S
C512 C517 1.379 . S
C512 N519 1.356 . S
C513 C512 1.363 . S
C513 C516 1.363 . S
N514 C516 1.356 . S
N514 H526 0.984 . S
N514 H527 0.985 . S
N515 C517 1.356 . S
N515 H520 0.984 . S
N515 H521 0.985 . S
C516 C510 1.379 . S
C516 C513 1.363 . S
C516 N514 1.356 . S
C517 C511 1.363 . S
C517 C512 1.379 . S
C517 N515 1.356 . S
N518 C510 1.356 . S
N518 H524 0.984 1_565 S
N518 H525 0.984 . S
N519 C512 1.356 . S
N519 H522 0.984 . S
N519 H523 0.985 . S
H520 N515 0.984 . S
H521 N515 0.985 . S
H522 N519 0.984 . S
H523 N519 0.985 . S
H524 N518 0.984 1_545 S
H525 N518 0.984 . S
H526 N514 0.984 . S
H527 N514 0.985 . S
C528 C529 1.363 . S
C528 C534 1.379 . S
C528 N536 1.356 . S
C529 C528 1.363 . S
C529 C535 1.363 . S
C530 C531 1.363 . S
C530 C535 1.379 . S
C530 N537 1.356 . S
C531 C530 1.363 . S
C531 C534 1.363 . S
N532 C534 1.356 . S
N532 H544 0.984 . S
N532 H545 0.985 . S
N533 C535 1.356 . S
N533 H538 0.984 . S
N533 H539 0.985 . S
C534 C528 1.379 . S
C534 C531 1.363 . S
C534 N532 1.356 . S
C535 C529 1.363 . S
C535 C530 1.379 . S
C535 N533 1.356 . S
N536 C528 1.356 . S
N536 H542 0.984 . S
N536 H543 0.984 . S
N537 C530 1.356 . S
N537 H540 0.984 . S
N537 H541 0.985 . S
H538 N533 0.984 . S
H539 N533 0.985 . S
H540 N537 0.984 . S
H541 N537 0.985 . S
H542 N536 0.984 . S
H543 N536 0.984 . S
H544 N532 0.984 . S
H545 N532 0.985 . S
C546 C547 1.363 . S
C546 C552 1.379 . S
C546 N554 1.356 . S
C547 C546 1.363 . S
C547 C553 1.363 . S
C548 C549 1.363 . S
C548 C553 1.379 . S
C548 N555 1.356 . S
C549 C548 1.363 . S
C549 C552 1.363 . S
N550 C552 1.356 . S
N550 H562 0.984 . S
N550 H563 0.985 . S
N551 C553 1.356 . S
N551 H556 0.984 . S
N551 H557 0.985 . S
C552 C546 1.379 . S
C552 C549 1.363 . S
C552 N550 1.356 . S
C553 C547 1.363 . S
C553 C548 1.379 . S
C553 N551 1.356 . S
N554 C546 1.356 . S
N554 H560 0.984 . S
N554 H561 0.984 . S
N555 C548 1.356 . S
N555 H558 0.984 . S
N555 H559 0.985 . S
H556 N551 0.984 . S
H557 N551 0.985 . S
H558 N555 0.984 . S
H559 N555 0.985 . S
H560 N554 0.984 . S
H561 N554 0.984 . S
H562 N550 0.984 . S
H563 N550 0.985 . S
C564 C565 1.363 . S
C564 C570 1.379 . S
C564 N572 1.356 . S
C565 C564 1.363 . S
C565 C571 1.363 . S
C566 C567 1.363 . S
C566 C571 1.379 . S
C566 N573 1.356 . S
C567 C566 1.363 . S
C567 C570 1.363 . S
N568 C570 1.356 . S
N568 H580 0.984 . S
N568 H581 0.985 . S
N569 C571 1.356 . S
N569 H574 0.984 . S
N569 H575 0.985 . S
C570 C564 1.379 . S
C570 C567 1.363 . S
C570 N568 1.356 . S
C571 C565 1.363 . S
C571 C566 1.379 . S
C571 N569 1.356 . S
N572 C564 1.356 . S
N572 H578 0.984 . S
N572 H579 0.984 . S
N573 C566 1.356 . S
N573 H576 0.984 . S
N573 H577 0.985 1_554 S
H574 N569 0.984 . S
H575 N569 0.985 . S
H576 N573 0.984 . S
H577 N573 0.985 1_556 S
H578 N572 0.984 . S
H579 N572 0.984 . S
H580 N568 0.984 . S
H581 N568 0.985 . S
C582 C583 1.363 . S
C582 C588 1.379 . S
C582 N590 1.356 . S
C583 C582 1.363 . S
C583 C589 1.363 . S
C584 C585 1.363 . S
C584 C589 1.379 . S
C584 N591 1.356 . S
C585 C584 1.363 . S
C585 C588 1.363 . S
N586 C588 1.356 . S
N586 H598 0.984 . S
N586 H599 0.985 . S
N587 C589 1.356 . S
N587 H592 0.984 . S
N587 H593 0.985 . S
C588 C582 1.379 . S
C588 C585 1.363 . S
C588 N586 1.356 . S
C589 C583 1.363 . S
C589 C584 1.379 . S
C589 N587 1.356 . S
N590 C582 1.356 . S
N590 H596 0.984 . S
N590 H597 0.984 . S
N591 C584 1.356 . S
N591 H594 0.984 . S
N591 H595 0.985 . S
H592 N587 0.984 . S
H593 N587 0.985 . S
H594 N591 0.984 . S
H595 N591 0.985 . S
H596 N590 0.984 . S
H597 N590 0.984 . S
H598 N586 0.984 . S
H599 N586 0.985 . S
C600 C601 1.363 . S
C600 C606 1.379 . S
C600 N608 1.356 . S
C601 C600 1.363 . S
C601 C607 1.363 . S
C602 C603 1.363 . S
C602 C607 1.379 . S
C602 N609 1.356 . S
C603 C602 1.363 . S
C603 C606 1.363 . S
N604 C606 1.356 . S
N604 H616 0.984 . S
N604 H617 0.985 . S
N605 C607 1.356 . S
N605 H610 0.984 . S
N605 H611 0.985 . S
C606 C600 1.379 . S
C606 C603 1.363 . S
C606 N604 1.356 . S
C607 C601 1.363 . S
C607 C602 1.379 . S
C607 N605 1.356 . S
N608 C600 1.356 . S
N608 H614 0.984 . S
N608 H615 0.984 . S
N609 C602 1.356 . S
N609 H612 0.984 . S
N609 H613 0.985 . S
H610 N605 0.984 . S
H611 N605 0.985 . S
H612 N609 0.984 . S
H613 N609 0.985 . S
H614 N608 0.984 . S
H615 N608 0.984 . S
H616 N604 0.984 . S
H617 N604 0.985 . S
C618 C619 1.363 . S
C618 C624 1.379 . S
C618 N626 1.356 . S
C619 C618 1.363 . S
C619 C625 1.363 . S
C620 C621 1.363 . S
C620 C625 1.379 . S
C620 N627 1.356 . S
C621 C620 1.363 . S
C621 C624 1.363 . S
N622 C624 1.356 . S
N622 H634 0.984 . S
N622 H635 0.985 . S
N623 C625 1.356 . S
N623 H628 0.984 . S
N623 H629 0.985 . S
C624 C618 1.379 . S
C624 C621 1.363 . S
C624 N622 1.356 . S
C625 C619 1.363 . S
C625 C620 1.379 . S
C625 N623 1.356 . S
N626 C618 1.356 . S
N626 H632 0.984 . S
N626 H633 0.984 . S
N627 C620 1.356 . S
N627 H630 0.984 . S
N627 H631 0.985 . S
H628 N623 0.984 . S
H629 N623 0.985 . S
H630 N627 0.984 . S
H631 N627 0.985 . S
H632 N626 0.984 . S
H633 N626 0.984 . S
H634 N622 0.984 . S
H635 N622 0.985 . S
C636 C637 1.363 . S
C636 C642 1.379 . S
C636 N644 1.356 1_655 S
C637 C636 1.363 . S
C637 C643 1.363 . S
C638 C639 1.363 . S
C638 C643 1.379 . S
C638 N645 1.356 . S
C639 C638 1.363 . S
C639 C642 1.363 . S
N640 C642 1.356 . S
N640 H652 0.984 1_655 S
N640 H653 0.985 . S
N641 C643 1.356 . S
N641 H646 0.984 . S
N641 H647 0.985 . S
C642 C636 1.379 . S
C642 C639 1.363 . S
C642 N640 1.356 . S
C643 C637 1.363 . S
C643 C638 1.379 . S
C643 N641 1.356 . S
N644 C636 1.356 1_455 S
N644 H650 0.984 . S
N644 H651 0.984 . S
N645 C638 1.356 . S
N645 H648 0.984 . S
N645 H649 0.985 . S
H646 N641 0.984 . S
H647 N641 0.985 . S
H648 N645 0.984 . S
H649 N645 0.985 . S
H650 N644 0.984 . S
H651 N644 0.984 . S
H652 N640 0.984 1_455 S
H653 N640 0.985 . S
C654 C655 1.363 . S
C654 C660 1.379 . S
C654 N662 1.356 . S
C655 C654 1.363 . S
C655 C661 1.363 . S
C656 C657 1.363 . S
C656 C661 1.379 . S
C656 N663 1.356 . S
C657 C656 1.363 . S
C657 C660 1.363 . S
N658 C660 1.356 . S
N658 H670 0.984 . S
N658 H671 0.985 . S
N659 C661 1.356 . S
N659 H664 0.984 . S
N659 H665 0.985 . S
C660 C654 1.379 . S
C660 C657 1.363 . S
C660 N658 1.356 . S
C661 C655 1.363 . S
C661 C656 1.379 . S
C661 N659 1.356 . S
N662 C654 1.356 . S
N662 H668 0.984 . S
N662 H669 0.984 . S
N663 C656 1.356 . S
N663 H666 0.984 . S
N663 H667 0.985 . S
H664 N659 0.984 . S
H665 N659 0.985 . S
H666 N663 0.984 . S
H667 N663 0.985 . S
H668 N662 0.984 . S
H669 N662 0.984 . S
H670 N658 0.984 . S
H671 N658 0.985 . S
C672 C673 1.363 . S
C672 C678 1.379 . S
C672 N680 1.356 . S
C673 C672 1.363 . S
C673 C679 1.363 . S
C674 C675 1.363 . S
C674 C679 1.379 . S
C674 N681 1.356 . S
C675 C674 1.363 . S
C675 C678 1.363 . S
N676 C678 1.356 . S
N676 H688 0.984 . S
N676 H689 0.985 . S
N677 C679 1.356 . S
N677 H682 0.984 . S
N677 H683 0.985 . S
C678 C672 1.379 . S
C678 C675 1.363 . S
C678 N676 1.356 . S
C679 C673 1.363 . S
C679 C674 1.379 . S
C679 N677 1.356 . S
N680 C672 1.356 . S
N680 H686 0.984 . S
N680 H687 0.984 . S
N681 C674 1.356 . S
N681 H684 0.984 . S
N681 H685 0.985 . S
H682 N677 0.984 . S
H683 N677 0.985 . S
H684 N681 0.984 . S
H685 N681 0.985 . S
H686 N680 0.984 . S
H687 N680 0.984 . S
H688 N676 0.984 . S
H689 N676 0.985 . S
C690 C691 1.363 . S
C690 C696 1.379 . S
C690 N698 1.356 . S
C691 C690 1.363 . S
C691 C697 1.363 . S
C692 C693 1.363 . S
C692 C697 1.379 . S
C692 N699 1.356 . S
C693 C692 1.363 . S
C693 C696 1.363 . S
N694 C696 1.356 . S
N694 H706 0.984 . S
N694 H707 0.985 . S
N695 C697 1.356 . S
N695 H700 0.984 . S
N695 H701 0.985 . S
C696 C690 1.379 . S
C696 C693 1.363 . S
C696 N694 1.356 . S
C697 C691 1.363 . S
C697 C692 1.379 . S
C697 N695 1.356 . S
N698 C690 1.356 . S
N698 H704 0.984 . S
N698 H705 0.984 . S
N699 C692 1.356 . S
N699 H702 0.984 . S
N699 H703 0.985 . S
H700 N695 0.984 . S
H701 N695 0.985 . S
H702 N699 0.984 . S
H703 N699 0.985 . S
H704 N698 0.984 . S
H705 N698 0.984 . S
H706 N694 0.984 . S
H707 N694 0.985 . S
C708 C709 1.363 . S
C708 C714 1.379 . S
C708 N716 1.356 . S
C709 C708 1.363 . S
C709 C715 1.363 . S
C710 C711 1.363 . S
C710 C715 1.379 . S
C710 N717 1.356 . S
C711 C710 1.363 . S
C711 C714 1.363 . S
N712 C714 1.356 . S
N712 H724 0.984 . S
N712 H725 0.985 . S
N713 C715 1.356 . S
N713 H718 0.984 . S
N713 H719 0.985 . S
C714 C708 1.379 . S
C714 C711 1.363 . S
C714 N712 1.356 . S
C715 C709 1.363 . S
C715 C710 1.379 . S
C715 N713 1.356 . S
N716 C708 1.356 . S
N716 H722 0.984 . S
N716 H723 0.984 . S
N717 C710 1.356 . S
N717 H720 0.984 . S
N717 H721 0.985 . S
H718 N713 0.984 . S
H719 N713 0.985 . S
H720 N717 0.984 . S
H721 N717 0.985 . S
H722 N716 0.984 . S
H723 N716 0.984 . S
H724 N712 0.984 . S
H725 N712 0.985 . S
C726 C727 1.363 . S
C726 C732 1.379 . S
C726 N734 1.356 . S
C727 C726 1.363 . S
C727 C733 1.363 . S
C728 C729 1.363 . S
C728 C733 1.379 . S
C728 N735 1.356 . S
C729 C728 1.363 . S
C729 C732 1.363 . S
N730 C732 1.356 . S
N730 H742 0.984 . S
N730 H743 0.985 . S
N731 C733 1.356 . S
N731 H736 0.984 . S
N731 H737 0.985 . S
C732 C726 1.379 . S
C732 C729 1.363 . S
C732 N730 1.356 . S
C733 C727 1.363 . S
C733 C728 1.379 . S
C733 N731 1.356 . S
N734 C726 1.356 . S
N734 H740 0.984 . S
N734 H741 0.984 . S
N735 C728 1.356 . S
N735 H738 0.984 . S
N735 H739 0.985 . S
H736 N731 0.984 . S
H737 N731 0.985 . S
H738 N735 0.984 . S
H739 N735 0.985 . S
H740 N734 0.984 . S
H741 N734 0.984 . S
H742 N730 0.984 . S
H743 N730 0.985 . S
C744 C745 1.363 . S
C744 C750 1.379 . S
C744 N752 1.356 . S
C745 C744 1.363 . S
C745 C751 1.363 . S
C746 C747 1.363 . S
C746 C751 1.379 . S
C746 N753 1.356 . S
C747 C746 1.363 . S
C747 C750 1.363 . S
N748 C750 1.356 . S
N748 H760 0.984 . S
N748 H761 0.985 . S
N749 C751 1.356 . S
N749 H754 0.984 . S
N749 H755 0.985 1_554 S
C750 C744 1.379 . S
C750 C747 1.363 . S
C750 N748 1.356 . S
C751 C745 1.363 . S
C751 C746 1.379 . S
C751 N749 1.356 . S
N752 C744 1.356 . S
N752 H758 0.984 . S
N752 H759 0.984 . S
N753 C746 1.356 . S
N753 H756 0.984 . S
N753 H757 0.985 . S
H754 N749 0.984 . S
H755 N749 0.985 1_556 S
H756 N753 0.984 . S
H757 N753 0.985 . S
H758 N752 0.984 . S
H759 N752 0.984 . S
H760 N748 0.984 . S
H761 N748 0.985 . S
C762 C763 1.363 . S
C762 C768 1.379 . S
C762 N770 1.356 . S
C763 C762 1.363 . S
C763 C769 1.363 . S
C764 C765 1.363 . S
C764 C769 1.379 . S
C764 N771 1.356 . S
C765 C764 1.363 . S
C765 C768 1.363 . S
N766 C768 1.356 . S
N766 H778 0.984 . S
N766 H779 0.985 . S
N767 C769 1.356 . S
N767 H772 0.984 . S
N767 H773 0.985 . S
C768 C762 1.379 . S
C768 C765 1.363 . S
C768 N766 1.356 . S
C769 C763 1.363 . S
C769 C764 1.379 . S
C769 N767 1.356 . S
N770 C762 1.356 . S
N770 H776 0.984 . S
N770 H777 0.984 . S
N771 C764 1.356 . S
N771 H774 0.984 . S
N771 H775 0.985 . S
H772 N767 0.984 . S
H773 N767 0.985 . S
H774 N771 0.984 . S
H775 N771 0.985 . S
H776 N770 0.984 . S
H777 N770 0.984 . S
H778 N766 0.984 . S
H779 N766 0.985 . S
C780 C781 1.363 . S
C780 C786 1.379 . S
C780 N788 1.356 . S
C781 C780 1.363 . S
C781 C787 1.363 . S
C782 C783 1.363 . S
C782 C787 1.379 . S
C782 N789 1.356 . S
C783 C782 1.363 . S
C783 C786 1.363 . S
N784 C786 1.356 . S
N784 H796 0.984 . S
N784 H797 0.985 . S
N785 C787 1.356 . S
N785 H790 0.984 . S
N785 H791 0.985 1_556 S
C786 C780 1.379 . S
C786 C783 1.363 . S
C786 N784 1.356 . S
C787 C781 1.363 . S
C787 C782 1.379 . S
C787 N785 1.356 . S
N788 C780 1.356 . S
N788 H794 0.984 . S
N788 H795 0.984 . S
N789 C782 1.356 . S
N789 H792 0.984 . S
N789 H793 0.985 . S
H790 N785 0.984 . S
H791 N785 0.985 1_554 S
H792 N789 0.984 . S
H793 N789 0.985 . S
H794 N788 0.984 . S
H795 N788 0.984 . S
H796 N784 0.984 . S
H797 N784 0.985 . S
C798 C799 1.363 . S
C798 C804 1.379 . S
C798 N806 1.356 . S
C799 C798 1.363 . S
C799 C805 1.363 . S
C800 C801 1.363 . S
C800 C805 1.379 . S
C800 N807 1.356 . S
C801 C800 1.363 . S
C801 C804 1.363 . S
N802 C804 1.356 . S
N802 H814 0.984 . S
N802 H815 0.985 . S
N803 C805 1.356 . S
N803 H808 0.984 . S
N803 H809 0.985 . S
C804 C798 1.379 . S
C804 C801 1.363 . S
C804 N802 1.356 . S
C805 C799 1.363 . S
C805 C800 1.379 . S
C805 N803 1.356 . S
N806 C798 1.356 . S
N806 H812 0.984 . S
N806 H813 0.984 . S
N807 C800 1.356 . S
N807 H810 0.988 . S
N807 H811 0.985 1_565 S
H808 N803 0.984 . S
H809 N803 0.985 . S
H810 N807 0.988 . S
H811 N807 0.985 1_545 S
H812 N806 0.984 . S
H813 N806 0.984 . S
H814 N802 0.984 . S
H815 N802 0.985 . S
C816 C817 1.363 . S
C816 C822 1.379 . S
C816 N824 1.356 . S
C817 C816 1.363 . S
C817 C823 1.363 . S
C818 C819 1.363 . S
C818 C823 1.379 . S
C818 N825 1.356 . S
C819 C818 1.363 . S
C819 C822 1.363 . S
N820 C822 1.356 . S
N820 H832 0.984 . S
N820 H833 0.985 . S
N821 C823 1.356 . S
N821 H826 0.984 . S
N821 H827 0.985 . S
C822 C816 1.379 . S
C822 C819 1.363 . S
C822 N820 1.356 . S
C823 C817 1.363 . S
C823 C818 1.379 . S
C823 N821 1.356 . S
N824 C816 1.356 . S
N824 H830 0.984 . S
N824 H831 0.984 . S
N825 C818 1.356 . S
N825 H828 0.984 . S
N825 H829 0.985 . S
H826 N821 0.984 . S
H827 N821 0.985 . S
H828 N825 0.984 . S
H829 N825 0.985 . S
H830 N824 0.984 . S
H831 N824 0.984 . S
H832 N820 0.984 . S
H833 N820 0.985 . S
C403 C48 1.265 . S
C405 C91 1.284 . S
C421 C106 1.263 . S
C423 C169 1.284 . S
C439 C225 1.366 . S
C441 C182 1.339 . S
C457 C240 1.342 . S
C459 C35 1.366 . S
C475 C303 1.140 . S
C477 C24 1.135 . S
C493 C374 1.269 . S
C495 C102 1.282 . S
C511 C316 1.286 . S
C513 C158 1.301 . S
C529 C236 1.160 . S
C531 C359 1.159 . S
C547 C173 1.324 . S
C549 C370 1.349 . S
C565 C292 1.364 . S
C567 C249 1.345 . S
C583 C383 1.499 . S
C585 C39 1.500 . S
C601 C307 1.484 . S
C603 C115 1.483 . S
C619 C167 1.367 . S
C621 C242 1.347 . S
C637 C45 1.348 . S
C639 C228 1.368 . S
C655 C33 1.447 . S
C657 C108 1.433 . S
C673 C179 1.431 . S
C675 C94 1.446 . S
C691 C380 1.321 . S
C693 C161 1.345 . S
C709 C234 1.380 . S
C711 C309 1.351 . S
C727 C368 1.269 . S
C729 C27 1.272 . S
C745 C100 1.245 . S
C747 C295 1.245 . S
C763 C41 1.534 . S
C765 C313 1.541 . S
C781 C112 1.435 . S
C783 C362 1.459 . S
C799 C175 1.461 . S
C801 C301 1.481 . S
C817 C246 1.568 . S
C819 C376 1.568 . S
