# Generated by pormake.
# Topology snz, (6)-cn, num edge types: 1
# Building blocks:
#     Node 0, Type 0, BuildingBlock: FUNLAD_clean_sbu_0, # of connection points: 6
#     Node 1, Type 0, BuildingBlock: FUNLAD_clean_sbu_0, # of connection points: 6
#     Node 2, Type 0, BuildingBlock: FUNLAD_clean_sbu_0, # of connection points: 6
#     Node 3, Type 0, BuildingBlock: FUNLAD_clean_sbu_0, # of connection points: 6
#     Node 4, Type 0, BuildingBlock: FUNLAD_clean_sbu_0, # of connection points: 6
#     Node 5, Type 0, BuildingBlock: FUNLAD_clean_sbu_0, # of connection points: 6
#     Node 6, Type 0, BuildingBlock: FUNLAD_clean_sbu_0, # of connection points: 6
#     Node 7, Type 0, BuildingBlock: FUNLAD_clean_sbu_0, # of connection points: 6
#     Node 8, Type 0, BuildingBlock: FUNLAD_clean_sbu_0, # of connection points: 6
#     Edge 9, Type (0, 0), BuildingBlock: CIFDUS_clean_linker_0, # of connection points: 2
#     Edge 10, Type (0, 0), BuildingBlock: CIFDUS_clean_linker_0, # of connection points: 2
#     Edge 11, Type (0, 0), BuildingBlock: CIFDUS_clean_linker_0, # of connection points: 2
#     Edge 12, Type (0, 0), BuildingBlock: CIFDUS_clean_linker_0, # of connection points: 2
#     Edge 13, Type (0, 0), BuildingBlock: CIFDUS_clean_linker_0, # of connection points: 2
#     Edge 14, Type (0, 0), BuildingBlock: CIFDUS_clean_linker_0, # of connection points: 2
#     Edge 15, Type (0, 0), BuildingBlock: CIFDUS_clean_linker_0, # of connection points: 2
#     Edge 16, Type (0, 0), BuildingBlock: CIFDUS_clean_linker_0, # of connection points: 2
#     Edge 17, Type (0, 0), BuildingBlock: CIFDUS_clean_linker_0, # of connection points: 2
#     Edge 18, Type (0, 0), BuildingBlock: CIFDUS_clean_linker_0, # of connection points: 2
#     Edge 19, Type (0, 0), BuildingBlock: CIFDUS_clean_linker_0, # of connection points: 2
#     Edge 20, Type (0, 0), BuildingBlock: CIFDUS_clean_linker_0, # of connection points: 2
#     Edge 21, Type (0, 0), BuildingBlock: CIFDUS_clean_linker_0, # of connection points: 2
#     Edge 22, Type (0, 0), BuildingBlock: CIFDUS_clean_linker_0, # of connection points: 2
#     Edge 23, Type (0, 0), BuildingBlock: CIFDUS_clean_linker_0, # of connection points: 2
#     Edge 24, Type (0, 0), BuildingBlock: CIFDUS_clean_linker_0, # of connection points: 2
#     Edge 25, Type (0, 0), BuildingBlock: CIFDUS_clean_linker_0, # of connection points: 2
#     Edge 26, Type (0, 0), BuildingBlock: CIFDUS_clean_linker_0, # of connection points: 2
#     Edge 27, Type (0, 0), BuildingBlock: CIFDUS_clean_linker_0, # of connection points: 2
#     Edge 28, Type (0, 0), BuildingBlock: CIFDUS_clean_linker_0, # of connection points: 2
#     Edge 29, Type (0, 0), BuildingBlock: CIFDUS_clean_linker_0, # of connection points: 2
#     Edge 30, Type (0, 0), BuildingBlock: CIFDUS_clean_linker_0, # of connection points: 2
#     Edge 31, Type (0, 0), BuildingBlock: CIFDUS_clean_linker_0, # of connection points: 2
#     Edge 32, Type (0, 0), BuildingBlock: CIFDUS_clean_linker_0, # of connection points: 2
#     Edge 33, Type (0, 0), BuildingBlock: CIFDUS_clean_linker_0, # of connection points: 2
#     Edge 34, Type (0, 0), BuildingBlock: CIFDUS_clean_linker_0, # of connection points: 2
#     Edge 35, Type (0, 0), BuildingBlock: CIFDUS_clean_linker_0, # of connection points: 2
# Relax obj value: 0.738
# Max RMSD: 0.290
# Mean RMSD: 0.264
data_MOF--net-snz--node1-FUNLAD_clean_sbu_0--edge1-CIFDUS_clean_linker_0
_symmetry_space_group_name_H-M    P1
_symmetry_Int_Tables_number       1
_symmetry_cell_setting            triclinic
loop_
_symmetry_equiv_pos_as_xyz
'x, y, z'
_cell_length_a     42.603213
_cell_length_b     47.950281
_cell_length_c     14.734404
_cell_angle_alpha  89.4742
_cell_angle_beta   89.152419
_cell_angle_gamma 120.33034
loop_
_atom_site_label
_atom_site_type_symbol
_atom_site_fract_x
_atom_site_fract_y
_atom_site_fract_z
_atom_type_partial_charge
C0 C 0.01282 0.53247 0.96246 0.0
N1 N 0.11675 0.5434 0.93404 0.0
C2 C 0.11869 0.56821 0.88442 0.0
C3 C 0.11495 0.56499 0.79096 0.0
C4 C 0.11102 0.5367 0.75188 0.0
C5 C 0.1229 0.51874 0.8018 0.0
C6 C 0.12496 0.52215 0.89558 0.0
Zn7 Zn 0.07346 0.52304 1.02235 0.0
C8 C 0.0786 0.56722 0.16683 0.0
N9 N -0.01828 0.4789 0.2021 0.0
C10 C 0.96668 0.49697 0.22676 0.0
C11 C 0.97691 0.45361 0.25477 0.0
C12 C 0.96609 0.45181 0.34519 0.0
C13 C 0.96139 0.47691 0.37905 0.0
C14 C 0.95414 0.49492 0.31576 0.0
Zn15 Zn 0.02478 0.49873 0.11355 0.0
O16 O 0.04535 0.54053 0.94174 0.0
C17 C 0.01644 0.45628 0.96448 0.0
O18 O -0.00199 0.51585 1.034 0.0
H19 H -0.0129 0.43824 0.23189 0.0
H20 H 0.11402 0.58593 0.9172 0.0
H21 H 0.96955 0.51637 0.18305 0.0
O22 O 0.04814 0.47946 0.94363 0.0
O23 O 0.0006 0.45743 1.03664 0.0
H24 H 0.12502 0.50339 0.93675 0.0
O25 O 0.05231 0.4798 0.19151 0.0
O26 O 0.1 0.5041 0.1002 0.0
O27 O 0.0489 0.54208 0.19064 0.0
O28 O 0.09635 0.56635 0.09791 0.0
C29 C 0.08373 0.48525 0.16752 0.0
H30 H 0.10815 0.58096 0.75517 0.0
H31 H 0.12322 0.49824 0.77258 0.0
H32 H 0.96908 0.43524 0.38953 0.0
H33 H 0.9471 0.5126 0.33789 0.0
C34 C 0.40178 0.47441 0.13515 0.0
N35 N 0.50009 0.4896 0.24644 0.0
C36 C 0.48331 0.48412 0.32898 0.0
C37 C 0.49819 0.47754 0.40378 0.0
C38 C 0.53138 0.47796 0.39373 0.0
C39 C 0.54647 0.48101 0.30706 0.0
C40 C 0.52968 0.48605 0.23336 0.0
Zn41 Zn 0.48324 0.50555 0.14008 0.0
C42 C 0.46894 0.45951 0.98661 0.0
N43 N 0.45177 0.53464 0.90208 0.0
C44 C 0.43592 0.51189 0.83778 0.0
C45 C 0.47919 0.56497 0.87905 0.0
C46 C 0.50032 0.56927 0.80141 0.0
C47 C 0.49045 0.54255 0.74659 0.0
C48 C 0.45564 0.51509 0.75846 0.0
Zn49 Zn 0.46445 0.5175 1.01484 0.0
O50 O 0.42805 0.47647 0.18045 0.0
C51 C 0.48254 0.56569 0.16585 0.0
O52 O 0.40863 0.49073 1.06127 0.0
H53 H 0.4903 0.58352 0.92951 0.0
H54 H 0.45968 0.48672 0.33777 0.0
H55 H 0.41277 0.4885 0.85589 0.0
O56 O 0.48765 0.54604 0.21333 0.0
O57 O 0.47261 0.55881 0.08441 0.0
H58 H 0.54181 0.48911 0.16641 0.0
O59 O 0.52072 0.54221 0.96769 0.0
O60 O 0.5374 0.53384 0.09925 0.0
O61 O 0.45786 0.47614 0.94536 0.0
O62 O 0.48011 0.46678 0.06695 0.0
C63 C 0.54575 0.545 1.01907 0.0
H64 H 0.4862 0.4759 0.47043 0.0
H65 H 0.57221 0.4819 0.29737 0.0
H66 H 0.52642 0.59123 0.79257 0.0
H67 H 0.44634 0.49457 0.71428 0.0
C68 C 0.53054 0.0373 0.92773 0.0
N69 N 0.43954 0.94498 0.87021 0.0
C70 C 0.46379 0.94036 0.82151 0.0
C71 C 0.45452 0.9269 0.7359 0.0
C72 C 0.42129 0.92091 0.70059 0.0
C73 C 0.39374 0.917 0.76151 0.0
C74 C 0.40405 0.93087 0.84636 0.0
Zn75 Zn 0.45748 0.97851 0.96728 0.0
C76 C 0.49779 0.96409 0.10404 0.0
N77 N 0.49167 0.04677 0.17434 0.0
C78 C 0.52405 0.05666 0.21449 0.0
C79 C 0.46678 0.05358 0.21041 0.0
C80 C 0.47045 0.06412 0.29922 0.0
C81 C 0.49813 0.06447 0.35015 0.0
C82 C 0.52859 0.06721 0.30363 0.0
Zn83 Zn 0.47523 0.01366 0.07669 0.0
O84 O 0.50802 0.01074 0.89086 0.0
C85 C 0.43481 0.02696 0.93497 0.0
O86 O 0.52315 0.04332 1.00599 0.0
H87 H 0.44166 0.0464 0.17599 0.0
H88 H 0.4915 0.95068 0.84374 0.0
H89 H 0.54397 0.05196 0.18298 0.0
O90 O 0.43192 0.00134 0.90278 0.0
O91 O 0.45162 0.03781 1.00843 0.0
H92 H 0.38487 0.9341 0.88711 0.0
O93 O 0.42621 0.98367 0.15199 0.0
O94 O 0.40871 0.94802 1.04454 0.0
O95 O 0.49928 0.98827 0.14368 0.0
O96 O 0.48234 0.95567 1.02835 0.0
C97 C 0.40281 0.9565 0.12128 0.0
H98 H 0.47598 0.92861 0.69156 0.0
H99 H 0.3673 0.91117 0.73694 0.0
H100 H 0.44732 0.06364 0.33251 0.0
H101 H 0.55128 0.06904 0.34084 0.0
C102 C 0.56213 0.83951 0.24129 0.0
N103 N 0.65444 0.83324 0.17808 0.0
C104 C 0.66569 0.86144 0.13158 0.0
C105 C 0.67969 0.86502 1.04355 0.0
C106 C 0.67886 0.83816 1.00404 0.0
C107 C 0.67768 0.81419 1.06159 0.0
C108 C 0.66362 0.81136 0.14924 0.0
Zn109 Zn 0.61598 0.81971 0.27694 0.0
C110 C 0.63968 0.86939 0.41744 0.0
N111 N 0.53842 0.79019 0.48983 0.0
C112 C 0.53191 0.81261 0.5275 0.0
C113 C 0.52623 0.7608 0.53034 0.0
C114 C 0.51417 0.75598 0.62035 0.0
C115 C 0.51823 0.78277 0.66764 0.0
C116 C 0.52025 0.80872 0.61786 0.0
Zn117 Zn 0.57646 0.80422 0.39051 0.0
O118 O 0.58901 0.83936 0.20338 0.0
C119 C 0.55541 0.75206 0.25536 0.0
O120 O 0.55026 0.82543 0.31808 0.0
H121 H 0.53088 0.74299 0.49815 0.0
H122 H 0.65936 0.8791 0.15752 0.0
H123 H 0.54094 0.83547 0.49277 0.0
O124 O 0.58407 0.77391 0.21517 0.0
O125 O 0.54476 0.75863 0.3287 0.0
H126 H 0.65538 0.7895 0.18855 0.0
O127 O 0.60493 0.78556 0.4662 0.0
O128 O 0.64303 0.80197 0.35018 0.0
O129 O 0.60965 0.84881 0.45516 0.0
O130 O 0.64794 0.86386 0.33931 0.0
C131 C 0.63423 0.78979 0.42943 0.0
H132 H 0.68228 0.8848 1.00159 0.0
H133 H 0.67846 0.79373 1.03353 0.0
H134 H 0.51097 0.73489 0.6566 0.0
H135 H 0.52199 0.82929 0.65243 0.0
C136 C 0.08072 0.76431 0.5452 0.0
N137 N 0.18471 0.77586 0.58164 0.0
C138 C 0.21179 0.80051 0.6272 0.0
C139 C 0.211 0.79883 0.72142 0.0
C140 C 0.18176 0.77152 0.76477 0.0
C141 C 0.1641 0.74294 0.7149 0.0
C142 C 0.16465 0.74601 0.62079 0.0
Zn143 Zn 0.15933 0.78922 0.49116 0.0
C144 C 0.12711 0.74097 0.34623 0.0
N145 N 0.10505 0.81734 0.3062 0.0
C146 C 0.12093 0.84914 0.28177 0.0
C147 C 0.07789 0.79424 0.25687 0.0
C148 C 0.07277 0.80174 0.16898 0.0
C149 C 0.09747 0.83278 0.13292 0.0
C150 C 0.11545 0.85766 0.19533 0.0
Zn151 Zn 0.13003 0.80336 0.39615 0.0
O152 O 0.10869 0.76335 0.57011 0.0
C153 C 0.16134 0.8502 0.54548 0.0
O154 O 0.08202 0.7786 0.47131 0.0
H155 H 0.06397 0.76929 0.28004 0.0
H156 H 0.22871 0.82366 0.59343 0.0
H157 H 0.14157 0.86753 0.32324 0.0
O158 O 0.17272 0.83128 0.56776 0.0
O159 O 0.14283 0.84456 0.47437 0.0
H160 H 0.1441 0.72624 0.5825 0.0
O161 O 0.17933 0.82956 0.31909 0.0
O162 O 0.20887 0.81602 0.41386 0.0
O163 O 0.11689 0.76034 0.31857 0.0
O164 O 0.14562 0.74752 0.41752 0.0
C165 C 0.20872 0.83109 0.34257 0.0
H166 H 0.22781 0.82105 0.75667 0.0
H167 H 0.14376 0.7204 0.7468 0.0
H168 H 0.05537 0.78178 0.1263 0.0
H169 H 0.13203 0.88257 0.17247 0.0
C170 C 0.21515 0.35352 0.39588 0.0
N171 N 0.11286 0.27365 0.34097 0.0
C172 C 0.13055 0.26011 0.29968 0.0
C173 C 0.12044 0.24755 0.21348 0.0
C174 C 0.09503 0.25283 0.16881 0.0
C175 C 0.07052 0.25753 0.22184 0.0
C176 C 0.081 0.26941 0.30885 0.0
Zn177 Zn 0.13824 0.30569 0.43912 0.0
C178 C 0.17021 0.27914 0.56896 0.0
N179 N 0.18911 0.37003 0.65162 0.0
C180 C 0.22207 0.37538 0.67879 0.0
C181 C 0.17161 0.38313 0.69609 0.0
C182 C 0.18348 0.3965 0.78087 0.0
C183 C 0.21087 0.39282 0.82093 0.0
C184 C 0.2346 0.38846 0.76372 0.0
Zn185 Zn 0.16315 0.33793 0.55377 0.0
O186 O 0.18801 0.33034 0.35793 0.0
C187 C 0.12998 0.36358 0.42452 0.0
O188 O 0.21156 0.36086 0.47618 0.0
H189 H 0.14617 0.37975 0.67135 0.0
H190 H 0.15516 0.26273 0.32785 0.0
H191 H 0.23629 0.36585 0.64041 0.0
O192 O 0.12226 0.33794 0.3825 0.0
O193 O 0.14713 0.36965 0.49806 0.0
H194 H 0.0665 0.27915 0.34498 0.0
O195 O 0.11366 0.31439 0.63286 0.0
O196 O 0.08994 0.28174 0.51852 0.0
O197 O 0.17877 0.30498 0.61127 0.0
O198 O 0.15374 0.27416 0.49474 0.0
C199 C 0.08672 0.2901 0.59796 0.0
H200 H 0.13856 0.24202 0.17556 0.0
H201 H 0.0493 0.26006 0.19005 0.0
H202 H 0.16578 0.40171 0.82185 0.0
H203 H 0.25716 0.38705 0.7916 0.0
C204 C 0.31055 0.15939 0.95515 0.0
N205 N 0.3732 0.23142 0.74141 0.0
C206 C 0.36714 0.24741 0.80887 0.0
C207 C 0.38874 0.28058 0.81558 0.0
C208 C 0.41667 0.29792 0.75148 0.0
C209 C 0.42255 0.28134 0.68142 0.0
C210 C 0.40032 0.24757 0.67795 0.0
Zn211 Zn 0.33521 0.18335 0.73973 0.0
C212 C 0.36134 0.13947 0.75437 0.0
N213 N 0.24843 0.08632 0.74711 0.0
C214 C 0.21711 0.06935 0.79764 0.0
C215 C 0.25898 0.07117 0.68662 0.0
C216 C 0.23878 0.03801 0.67656 0.0
C217 C 0.20684 0.0198 0.72801 0.0
C218 C 0.19542 0.03564 0.78837 0.0
Zn219 Zn 0.28608 0.13489 0.75242 0.0
O220 O 0.33406 0.18179 0.90099 0.0
C221 C 0.26102 0.18007 0.7437 0.0
O222 O 0.28488 0.1349 0.91457 0.0
H223 H 0.28368 0.08473 0.6464 0.0
H224 H 0.34464 0.23464 0.85641 0.0
H225 H 0.20916 0.0818 0.84538 0.0
O226 O 0.29542 0.1972 0.73993 0.0
O227 O 0.24597 0.14939 0.74787 0.0
H228 H 0.4042 0.23443 0.62387 0.0
O229 O 0.28775 0.13585 0.59132 0.0
O230 O 0.33558 0.18349 0.5775 0.0
O231 O 0.32697 0.12162 0.7587 0.0
O232 O 0.37527 0.16975 0.74258 0.0
C233 C 0.31059 0.15858 0.537 0.0
H234 H 0.38309 0.29277 0.86947 0.0
H235 H 0.44382 0.29426 0.6305 0.0
H236 H 0.24809 0.0266 0.62849 0.0
H237 H 0.1706 0.02212 0.82861 0.0
C238 C 0.80806 0.15499 0.53764 0.0
N239 N 0.78692 0.08279 0.7471 0.0
C240 C 0.76085 0.06819 0.6839 0.0
C241 C 0.74482 0.03548 0.66962 0.0
C242 C 0.75584 0.0172 0.71964 0.0
C243 C 0.78245 0.03219 0.78564 0.0
C244 C 0.79785 0.06558 0.7986 0.0
Zn245 Zn 0.80474 0.13091 0.75273 0.0
C246 C 0.88039 0.17377 0.73992 0.0
N247 N 0.82972 0.22787 0.74566 0.0
C248 C 0.82216 0.246 0.688 0.0
C249 C 0.85609 0.2421 0.80851 0.0
C250 C 0.87681 0.27536 0.81361 0.0
C251 C 0.8705 0.29474 0.75413 0.0
C252 C 0.84219 0.27996 0.69196 0.0
Zn253 Zn 0.81041 0.17911 0.74087 0.0
O254 O 0.80584 0.13258 0.59121 0.0
C255 C 0.73437 0.13511 0.75024 0.0
O256 O 0.81051 0.1796 0.57895 0.0
H257 H 0.86248 0.22772 0.85283 0.0
H258 H 0.7522 0.0819 0.64367 0.0
H259 H 0.80147 0.23428 0.63763 0.0
O260 O 0.74959 0.11831 0.75568 0.0
O261 O 0.754 0.16578 0.74477 0.0
H262 H 0.81852 0.07769 0.84877 0.0
O263 O 0.80938 0.17744 0.90239 0.0
O264 O 0.80444 0.1303 0.91461 0.0
O265 O 0.86628 0.19156 0.73588 0.0
O266 O 0.85979 0.14339 0.74839 0.0
C267 C 0.80701 0.15495 0.95593 0.0
H268 H 0.72426 0.02453 0.61832 0.0
H269 H 0.7915 0.01848 0.82502 0.0
H270 H 0.89794 0.28592 0.8636 0.0
H271 H 0.83643 0.29441 0.64572 0.0
C272 C 0.81035 0.66024 0.97131 0.0
N273 N 0.83067 0.60309 0.77642 0.0
C274 C 0.85788 0.61153 0.83623 0.0
C275 C 0.87653 0.59489 0.83975 0.0
C276 C 0.86705 0.56905 0.78174 0.0
C277 C 0.83783 0.55957 0.72319 0.0
C278 C 0.82 0.57742 0.72088 0.0
Zn279 Zn 0.81349 0.63544 0.76799 0.0
C280 C 0.73731 0.61075 0.77436 0.0
N281 N 0.78857 0.7097 0.74651 0.0
C282 C 0.79805 0.73592 0.7992 0.0
C283 C 0.76209 0.70032 0.68406 0.0
C284 C 0.74407 0.71718 0.67202 0.0
C285 C 0.75346 0.74449 0.72356 0.0
C286 C 0.7807 0.75407 0.78833 0.0
Zn287 Zn 0.80655 0.67768 0.75655 0.0
O288 O 0.81404 0.6386 0.92928 0.0
C289 C 0.88305 0.70239 0.74805 0.0
O290 O 0.80693 0.68019 0.91832 0.0
H291 H 0.75419 0.67914 0.64403 0.0
H292 H 0.86633 0.63221 0.87893 0.0
H293 H 0.81877 0.74261 0.84955 0.0
O294 O 0.86913 0.67205 0.75687 0.0
O295 O 0.86222 0.71422 0.74734 0.0
H296 H 0.79853 0.57144 0.6732 0.0
O297 O 0.80693 0.67494 0.59505 0.0
O298 O 0.81233 0.6325 0.6062 0.0
O299 O 0.75111 0.641 0.76504 0.0
O300 O 0.75797 0.59889 0.77923 0.0
C301 C 0.80972 0.65285 0.55309 0.0
H302 H 0.89859 0.60242 0.8868 0.0
H303 H 0.82977 0.53943 0.67824 0.0
H304 H 0.72314 0.70918 0.62149 0.0
H305 H 0.78864 0.77529 0.82863 0.0
H306 H 0.09344 0.56425 0.61282 0.0
H307 H 0.06257 0.47162 0.73784 0.0
H308 H 0.00841 0.44591 0.64848 0.0
H309 H 0.96929 0.44932 0.53496 0.0
H310 H 0.00067 0.5424 0.41176 0.0
H311 H 0.05178 0.5683 0.51001 0.0
C312 C 0.07493 0.53848 0.62122 0.0
C313 C 0.08279 0.52028 0.68225 0.0
C314 C 0.04253 0.52383 0.57328 0.0
C315 C 0.05839 0.4866 0.68997 0.0
C316 C 0.02663 0.47176 0.6404 0.0
C317 C -0.01292 0.4753 0.52975 0.0
C318 C -0.01862 0.4932 0.46255 0.0
C319 C 0.01828 0.4902 0.58238 0.0
C320 C 0.00384 0.52725 0.46123 0.0
C321 C 0.034 0.54233 0.51616 0.0
H322 H 0.50329 0.49335 0.75196 0.0
H323 H 0.54206 0.58725 0.62774 0.0
H324 H 0.58028 0.5777 0.52152 0.0
H325 H 0.58445 0.53637 0.4364 0.0
H326 H 0.52791 0.43812 0.53499 0.0
H327 H 0.51853 0.45549 0.68298 0.0
C328 C 0.52031 0.51178 0.7018 0.0
C329 C 0.51835 0.54007 0.6931 0.0
C330 C 0.53996 0.50519 0.6379 0.0
C331 C 0.54215 0.56474 0.63257 0.0
C332 C 0.56407 0.55932 0.57244 0.0
C333 C 0.57195 0.51914 0.49252 0.0
C334 C 0.55411 0.486 0.47406 0.0
C335 C 0.56087 0.5287 0.57015 0.0
C336 C 0.54022 0.46376 0.54706 0.0
C337 C 0.53379 0.47363 0.63064 0.0
H338 H 0.41977 0.97561 0.68861 0.0
H339 H 0.43568 0.90859 0.52841 0.0
H340 H 0.46274 0.94916 0.40514 0.0
H341 H 0.48715 0.00472 0.35249 0.0
H342 H 0.47456 0.07277 0.51631 0.0
H343 H 0.44166 0.03039 0.63316 0.0
C344 C 0.4279 0.96936 0.62538 0.0
C345 C 0.42519 0.93898 0.61626 0.0
C346 C 0.44555 -0.00668 0.55879 0.0
C347 C 0.43686 0.93157 0.53546 0.0
C348 C 0.45297 0.95494 0.46636 0.0
C349 C 0.47812 0.01058 0.41497 0.0
C350 C 0.48455 0.04209 0.42847 0.0
C351 C 0.45875 0.98618 0.47935 0.0
C352 C 0.471 0.04897 0.50691 0.0
C353 C 0.45177 0.0247 0.57232 0.0
H354 H 0.58917 0.82509 0.66185 0.0
H355 H 0.50229 0.75678 0.83989 0.0
H356 H 0.54686 0.76484 0.95567 0.0
H357 H 0.60959 0.79159 1.00416 0.0
H358 H 0.69638 0.86154 0.82872 0.0
H359 H 0.65231 0.85112 0.70935 0.0
C360 C 0.5799 0.81263 0.72712 0.0
C361 C 0.54253 0.79131 0.7447 0.0
C362 C 0.60554 0.81661 0.79084 0.0
C363 C 0.53083 0.77404 0.82705 0.0
C364 C 0.55629 0.77825 0.89196 0.0
C365 C 0.6191 0.80385 0.93867 0.0
C366 C 0.65623 0.82667 0.92356 0.0
C367 C 0.59361 0.79922 0.87388 0.0
C368 C 0.66807 0.84332 0.8402 0.0
C369 C 0.64284 0.83782 0.77323 0.0
H370 H 0.20725 0.81665 0.89857 0.0
H371 H 0.10713 0.74078 0.78712 0.0
H372 H 0.07267 0.75894 0.87364 0.0
H373 H 0.07028 0.79642 0.98008 0.0
H374 H 0.17071 0.87245 0.0893 0.0
H375 H 0.2052 0.85702 0.99302 0.0
C376 C 0.17794 0.80405 0.8924 0.0
C377 C 0.16045 0.77729 0.83561 0.0
C378 C 0.15802 0.81573 0.93802 0.0
C379 C 0.12205 0.76097 0.83139 0.0
C380 C 0.10202 0.77185 0.87916 0.0
C381 C 0.09972 0.80983 0.98272 0.0
C382 C 0.11715 0.83428 1.0467 0.0
C383 C 0.11977 0.79942 0.93187 0.0
C384 C 0.15562 0.85281 1.04346 0.0
C385 C 0.17578 0.84355 0.98971 0.0
H386 H 0.18996 0.33034 0.83325 0.0
H387 H 0.19993 0.40994 0.99032 0.0
H388 H 0.15978 0.37165 0.1088 0.0
H389 H 0.11976 0.31614 0.16037 0.0
H390 H 0.10884 0.23658 1.00155 0.0
H391 H 0.15064 0.27501 0.88552 0.0
C392 C 0.1845 0.33954 0.89487 0.0
C393 C 0.19852 0.37299 0.90456 0.0
C394 C 0.15989 0.31752 0.95862 0.0
C395 C 0.19016 0.38439 0.9831 0.0
C396 C 0.16664 0.36251 1.04928 0.0
C397 C 0.12545 0.30705 0.09887 0.0
C398 C 0.11034 0.27353 0.0874 0.0
C399 C 0.15053 0.3291 1.03587 0.0
C400 C 0.11927 0.2622 1.00966 0.0
C401 C 0.14368 0.28412 0.94492 0.0
H402 H 0.35314 0.20117 0.38361 0.0
H403 H 0.25911 0.10732 0.43728 0.0
H404 H 0.25011 0.09871 0.27422 0.0
H405 H 0.2679 0.11681 0.10856 0.0
H406 H 0.36207 0.21058 1.05492 0.0
H407 H 0.37101 0.21921 0.21797 0.0
C408 C 0.33051 0.17866 0.36081 0.0
C409 C 0.30696 0.15506 0.42905 0.0
C410 C 0.32511 0.17345 0.26269 0.0
C411 C 0.27818 0.12643 0.39168 0.0
C412 C 0.27285 0.12133 0.29608 0.0
C413 C 0.29054 0.13931 0.13136 0.0
C414 C 0.31414 0.16289 1.06312 0.0
C415 C 0.29596 0.1445 0.22948 0.0
C416 C 0.34296 0.19148 0.10051 0.0
C417 C 0.34825 0.19661 0.1961 0.0
H418 H 0.81254 0.19703 0.38588 0.0
H419 H 0.80211 0.10403 0.43604 0.0
H420 H 0.80078 0.09521 0.27265 0.0
H421 H 0.80248 0.11289 0.10769 0.0
H422 H 0.81291 0.2059 1.05754 0.0
H423 H 0.81421 0.2147 0.22093 0.0
C424 C 0.80997 0.17467 0.36223 0.0
C425 C 0.8075 0.15138 0.42958 0.0
C426 C 0.80917 0.16935 0.26393 0.0
C427 C 0.80419 0.12292 0.39115 0.0
C428 C 0.80339 0.11769 0.29536 0.0
C429 C 0.80504 0.13525 0.13134 0.0
C430 C 0.80753 0.15855 0.06399 0.0
C431 C 0.80584 0.14057 0.22964 0.0
C432 C 0.81083 0.187 0.10243 0.0
C433 C 0.81162 0.19223 0.19821 0.0
H434 H 0.80437 0.69187 0.40716 0.0
H435 H 0.81636 0.60855 0.44454 0.0
H436 H 0.81775 0.60308 0.27966 0.0
H437 H 0.81573 0.62123 0.11724 0.0
H438 H 0.80354 0.70444 0.07988 0.0
H439 H 0.8022 0.70994 0.24476 0.0
C440 C 0.80729 0.67233 0.38039 0.0
C441 C 0.81022 0.65066 0.44458 0.0
C442 C 0.80811 0.66906 0.28134 0.0
C443 C 0.81395 0.62593 0.40222 0.0
C444 C 0.81479 0.62271 0.3056 0.0
C445 C 0.81278 0.64076 0.14402 0.0
C446 C 0.80982 0.66241 0.07983 0.0
C447 C 0.81192 0.64401 0.24306 0.0
C448 C 0.80599 0.68709 0.12219 0.0
C449 C 0.80519 0.69033 0.21881 0.0
H450 H 0.14636 0.39407 0.26044 0.0
H451 H 0.08933 0.38385 0.51348 0.0
H452 H 0.07034 0.42136 0.4581 0.0
H453 H 0.069 0.45625 0.33555 0.0
H454 H 0.13112 0.47024 0.08814 0.0
H455 H 0.14953 0.43264 0.14351 0.0
C456 C 0.12968 0.40008 0.30295 0.0
C457 C 0.11865 0.38599 0.39 0.0
C458 C 0.12011 0.42258 0.27195 0.0
C459 C 0.09778 0.39434 0.4458 0.0
C460 C 0.08703 0.41579 0.41427 0.0
C461 C 0.08694 0.45136 0.2944 0.0
C462 C 0.09864 0.46605 0.20788 0.0
C463 C 0.09797 0.43004 0.3273 0.0
C464 C 0.12198 0.45954 0.15537 0.0
C465 C 0.13231 0.4378 0.18662 0.0
H466 H 0.50098 0.61905 0.06419 0.0
H467 H 0.48539 0.58511 0.34247 0.0
H468 H 0.5029 0.63953 0.39429 0.0
H469 H 0.52568 0.69738 0.35968 0.0
H470 H 0.54766 0.73149 0.08135 0.0
H471 H 0.52408 0.67617 1.0298 0.0
C472 C 0.50096 0.62336 0.13629 0.0
C473 C 0.49151 0.59793 0.19946 0.0
C474 C 0.51215 0.65476 0.16524 0.0
C475 C 0.49243 0.60422 0.29257 0.0
C476 C 0.50242 0.63531 0.32206 0.0
C477 C 0.52466 0.69253 0.28768 0.0
C478 C 0.53771 0.71835 0.22402 0.0
C479 C 0.51265 0.66084 0.25895 0.0
C480 C 0.53731 0.71196 0.13123 0.0
C481 C 0.52402 0.68038 0.10194 0.0
H482 H 0.33619 0.91315 1.05886 0.0
H483 H 0.39532 0.95083 0.3054 0.0
H484 H 0.3412 0.91358 0.39589 0.0
H485 H 0.27649 0.87068 0.40498 0.0
H486 H 0.21587 0.83722 0.15906 0.0
H487 H 0.27091 0.87215 0.06814 0.0
C488 C 0.33715 0.91312 0.1324 0.0
C489 C 0.36966 0.93456 0.17545 0.0
C490 C 0.30563 0.8923 0.184 0.0
C491 C 0.37051 0.93463 0.27078 0.0
C492 C 0.33962 0.91325 0.32252 0.0
C493 C 0.27556 0.8709 0.33145 0.0
C494 C 0.24244 0.85118 0.28846 0.0
C495 C 0.307 0.89199 0.27991 0.0
C496 C 0.2412 0.85214 0.19335 0.0
C497 C 0.27261 0.87211 0.14146 0.0
H498 H 0.45868 0.09127 0.93468 0.0
H499 H 0.37616 0.00097 0.82569 0.0
H500 H 0.34792 0.02854 0.75234 0.0
H501 H 0.34419 0.07758 0.72889 0.0
H502 H 0.42826 0.16847 0.83107 0.0
H503 H 0.45896 0.14158 0.89558 0.0
C504 C 0.43455 0.0777 0.89468 0.0
C505 C 0.41904 0.04406 0.88706 0.0
C506 C 0.41897 0.09384 0.85098 0.0
C507 C 0.38835 0.02684 0.83324 0.0
C508 C 0.37224 0.04259 0.79123 0.0
C509 C 0.36961 0.0916 0.76387 0.0
C510 C 0.38384 0.12491 0.77577 0.0
C511 C 0.38699 0.07598 0.80083 0.0
C512 C 0.4169 0.14284 0.82055 0.0
C513 C 0.43424 0.12741 0.85827 0.0
H514 H 0.94354 0.33029 0.73517 0.0
H515 H 0.84871 0.33739 0.79749 0.0
H516 H 0.8872 0.39083 0.86183 0.0
H517 H 0.94623 0.43042 0.92349 0.0
H518 H 0.04131 0.42339 0.86371 0.0
H519 H 0.00441 0.37482 0.77466 0.0
C520 C 0.93157 0.34415 0.76008 0.0
C521 C 0.89347 0.33009 0.7624 0.0
C522 C 0.95377 0.37426 0.7994 0.0
C523 C 0.87798 0.34796 0.79459 0.0
C524 C 0.89995 0.37823 0.83253 0.0
C525 C 0.95886 0.41832 0.89023 0.0
C526 C -0.00395 0.42962 0.9019 0.0
C527 C 0.93757 0.39075 0.83929 0.0
C528 C 0.01255 0.41463 0.85652 0.0
C529 C -0.00852 0.38697 0.80576 0.0
H530 H 0.70804 0.58279 0.93449 0.0
H531 H 0.68096 0.60019 0.66782 0.0
H532 H 0.61825 0.58128 0.71984 0.0
H533 H 0.57263 0.56374 0.84526 0.0
H534 H 0.60292 0.55155 0.11499 0.0
H535 H 0.66293 0.56519 1.05844 0.0
C536 C 0.68794 0.58132 0.88731 0.0
C537 C 0.69839 0.59167 0.79709 0.0
C538 C 0.65286 0.57238 0.91905 0.0
C539 C 0.67289 0.59127 0.73703 0.0
C540 C 0.63731 0.58098 0.76712 0.0
C541 C 0.59245 0.5643 0.89164 0.0
C542 C 0.58322 0.55679 0.9843 0.0
C543 C 0.62725 0.5723 0.85872 0.0
C544 C 0.60924 0.55745 1.04342 0.0
C545 C 0.64357 0.56498 1.01111 0.0
H546 H 0.93851 0.59524 0.7453 0.0
H547 H 0.84277 0.50688 0.83331 0.0
H548 H 0.88081 0.48587 0.8896 0.0
H549 H 0.9409 0.4971 0.93745 0.0
H550 H 0.03696 0.58594 0.8526 0.0
H551 H -0.00077 0.60257 0.77052 0.0
C552 C 0.92613 0.57095 0.77402 0.0
C553 C 0.88816 0.55255 0.78612 0.0
C554 C 0.94817 0.55965 0.80862 0.0
C555 C 0.872 0.52119 0.82315 0.0
C556 C 0.89374 0.50945 0.85634 0.0
C557 C 0.95354 0.51998 0.9002 0.0
C558 C -0.00864 0.54084 0.903 0.0
C559 C 0.93178 0.52919 0.85353 0.0
C560 C 0.00775 0.56986 0.85233 0.0
C561 C -0.01377 0.5793 0.80556 0.0
H562 H 0.44853 0.43704 0.81455 0.0
H563 H 0.4909 0.42042 1.0611 0.0
H564 H 0.48657 0.37201 0.9983 0.0
H565 H 0.46193 0.33008 0.88461 0.0
H566 H 0.41591 0.34367 0.64194 0.0
H567 H 0.43192 0.39814 0.68966 0.0
C568 C 0.45712 0.42297 0.85404 0.0
C569 C 0.46909 0.4319 0.9433 0.0
C570 C 0.45428 0.39477 0.81775 0.0
C571 C 0.48084 0.41379 0.99296 0.0
C572 C 0.47858 0.38612 0.95701 0.0
C573 C 0.45678 0.34558 0.84074 0.0
C574 C 0.43797 0.33324 0.76022 0.0
C575 C 0.46423 0.37584 0.87093 0.0
C576 C 0.43085 0.35306 0.70381 0.0
C577 C 0.43938 0.38389 0.73195 0.0
H578 H 0.68906 0.15149 0.83752 0.0
H579 H 0.68975 0.07838 0.67103 0.0
H580 H 0.62493 0.04232 0.70153 0.0
H581 H 0.56984 0.02853 0.79305 0.0
H582 H 0.57025 0.10094 0.96549 0.0
H583 H 0.63195 0.13992 0.91491 0.0
C584 C 0.6747 0.12806 0.80594 0.0
C585 C 0.69415 0.11758 0.7526 0.0
C586 C 0.63748 0.10688 0.82621 0.0
C587 C 0.67533 0.08692 0.71294 0.0
C588 C 0.63826 0.06617 0.73064 0.0
C589 C 0.58322 0.05301 0.81803 0.0
C590 C 0.56561 0.06153 0.88398 0.0
C591 C 0.61929 0.07537 0.79 0.0
C592 C 0.58337 0.09346 0.9157 0.0
C593 C 0.61875 0.11591 0.88678 0.0
H594 H 0.51673 0.92542 1.01618 0.0
H595 H 0.50994 0.95792 0.28388 0.0
H596 H 0.52649 0.92012 0.35062 0.0
H597 H 0.54215 0.87721 0.33206 0.0
H598 H 0.55323 0.84822 1.06286 0.0
H599 H 0.53509 0.88494 0.99715 0.0
C600 C 0.51903 0.92439 0.08922 0.0
C601 C 0.51187 0.94432 0.14515 0.0
C602 C 0.52881 0.90289 0.12662 0.0
C603 C 0.5154 0.94292 0.23944 0.0
C604 C 0.52461 0.92115 0.27752 0.0
C605 C 0.54005 0.87866 0.25908 0.0
C606 C 0.54821 0.85957 0.2022 0.0
C607 C 0.53101 0.90078 0.22177 0.0
C608 C 0.54658 0.86237 0.10777 0.0
C609 C 0.53644 0.88347 0.07032 0.0
H610 H 0.11584 0.68481 0.42058 0.0
H611 H 0.11704 0.72938 0.16405 0.0
H612 H 0.10499 0.68019 0.08508 0.0
H613 H 0.09399 0.62424 0.08959 0.0
H614 H 0.08635 0.57816 0.3479 0.0
H615 H 0.10137 0.62821 0.42602 0.0
C616 C 0.11345 0.68374 0.34732 0.0
C617 C 0.11762 0.71078 0.29803 0.0
C618 C 0.10567 0.65518 0.30294 0.0
C619 C 0.11387 0.70888 0.20341 0.0
C620 C 0.10717 0.68083 0.15831 0.0
C621 C 0.09612 0.62544 0.16291 0.0
C622 C 0.08997 0.59795 0.21319 0.0
C623 C 0.10319 0.65387 0.20735 0.0
C624 C 0.09152 0.59924 0.30815 0.0
C625 C 0.09995 0.62777 0.35262 0.0
H626 H 0.38062 0.44076 0.29406 0.0
H627 H 0.33752 0.45702 1.04895 0.0
H628 H 0.27547 0.41836 0.1033 0.0
H629 H 0.2332 0.38092 0.22459 0.0
H630 H 0.27836 0.36785 0.4705 0.0
H631 H 0.3398 0.40371 0.41098 0.0
C632 C 0.35776 0.43596 0.25215 0.0
C633 C 0.36383 0.45196 0.16766 0.0
C634 C 0.32241 0.41391 0.2838 0.0
C635 C 0.33369 0.44527 0.11463 0.0
C636 C 0.29819 0.42303 0.14551 0.0
C637 C 0.25662 0.38557 0.26397 0.0
C638 C 0.25143 0.3716 0.3514 0.0
C639 C 0.29217 0.40722 0.23029 0.0
C640 C 0.28183 0.37825 0.40288 0.0
C641 C 0.31693 0.39888 0.36914 0.0
H642 H 0.76498 0.77813 0.57179 0.0
H643 H 0.70074 0.74942 0.81924 0.0
H644 H 0.65726 0.76248 0.75049 0.0
H645 H 0.63337 0.77436 0.61063 0.0
H646 H 0.69599 0.79521 0.35976 0.0
H647 H 0.74342 0.79186 0.43791 0.0
C648 C 0.74209 0.77587 0.61147 0.0
C649 C 0.73605 0.76328 0.70008 0.0
C650 C 0.71602 0.78061 0.56932 0.0
C651 C 0.7061 0.75972 0.75113 0.0
C652 C 0.6809 0.76645 0.71109 0.0
C653 C 0.65727 0.77787 0.57326 0.0
C654 C 0.66076 0.78463 0.47918 0.0
C655 C 0.68469 0.77539 0.6186 0.0
C656 C 0.69223 0.78967 0.43194 0.0
C657 C 0.71968 0.78806 0.47661 0.0
H658 H 0.22807 0.9774 0.77218 0.0
H659 H 0.14164 0.98455 0.64714 0.0
H660 H 0.11803 0.93075 0.58276 0.0
H661 H 0.12744 0.88542 0.54539 0.0
H662 H 0.21422 0.87857 0.67127 0.0
H663 H 0.23228 0.92849 0.75233 0.0
C664 C 0.20332 0.96657 0.73342 0.0
C665 C 0.18636 0.98457 0.71461 0.0
C666 C 0.1906 0.93613 0.69508 0.0
C667 C 0.15468 0.97077 0.66342 0.0
C668 C 0.14157 0.94028 0.62563 0.0
C669 C 0.15014 0.89475 0.5911 0.0
C670 C 0.16999 0.87873 0.60072 0.0
C671 C 0.1602 0.92335 0.63807 0.0
C672 C 0.19879 0.89067 0.66176 0.0
C673 C 0.20911 0.91919 0.70824 0.0
H674 H 0.93202 0.23465 0.78166 0.0
H675 H 0.91758 0.14686 0.66483 0.0
H676 H -0.01841 0.17504 0.61552 0.0
H677 H 0.03953 0.226 0.59133 0.0
H678 H 0.05493 0.3133 0.71333 0.0
H679 H -0.00745 0.28392 0.77572 0.0
C680 C 0.94309 0.22158 0.74674 0.0
C681 C 0.92011 0.18883 0.72591 0.0
C682 C 0.97986 0.23792 0.7189 0.0
C683 C 0.93478 0.17204 0.68171 0.0
C684 C 0.97128 0.18821 0.65294 0.0
C685 C 0.0293 0.23844 0.6326 0.0
C686 C 0.05141 0.27179 0.6468 0.0
C687 C -0.00628 0.22133 0.66888 0.0
C688 C 0.03827 0.28764 0.70152 0.0
C689 C 0.00262 0.27088 0.73676 0.0
H690 H 0.20315 0.1662 0.63826 0.0
H691 H 0.2745 0.23337 0.83491 0.0
H692 H 0.25048 0.26918 0.80462 0.0
H693 H 0.21426 0.28444 0.70945 0.0
H694 H 0.14597 0.21871 0.50512 0.0
H695 H 0.16352 0.17967 0.55083 0.0
C696 C 0.21254 0.1882 0.67619 0.0
C697 C 0.24023 0.19703 0.73918 0.0
C698 C 0.19969 0.20941 0.65559 0.0
C699 C 0.25294 0.22602 0.78644 0.0
C700 C 0.23944 0.24664 0.76865 0.0
C701 C 0.20296 0.26145 0.67562 0.0
C702 C 0.1792 0.25482 0.60325 0.0
C703 C 0.21366 0.23912 0.70121 0.0
C704 C 0.1647 0.22476 0.56037 0.0
C705 C 0.17463 0.20227 0.58658 0.0
H706 H 0.63747 0.8829 0.59611 0.0
H707 H 0.70392 0.91849 0.35097 0.0
H708 H 0.75108 0.96359 0.43303 0.0
H709 H 0.77066 -0.00412 0.56905 0.0
H710 H 0.703 0.96402 0.81104 0.0
H711 H 0.66009 0.91333 0.73781 0.0
C712 C 0.66227 0.90055 0.56078 0.0
C713 C 0.66691 0.89759 0.46728 0.0
C714 C 0.68948 0.92652 0.60853 0.0
C715 C 0.69939 0.92041 0.42262 0.0
C716 C 0.72658 0.94606 0.46961 0.0
C717 C 0.74726 0.97713 0.6067 0.0
C718 C 0.73995 0.98319 0.69504 0.0
C719 C 0.72169 0.94956 0.56205 0.0
C720 C 0.70933 0.95936 0.74339 0.0
C721 C 0.68446 0.93083 0.70074 0.0
H722 H 0.93497 0.68628 0.7746 0.0
H723 H 0.91933 0.76255 0.6685 0.0
H724 H -0.01936 0.78939 0.60103 0.0
H725 H 0.03534 0.78772 0.55729 0.0
H726 H 0.05215 0.71235 0.66413 0.0
H727 H -0.00654 0.68847 0.74679 0.0
C728 C 0.94521 0.70911 0.73811 0.0
C729 C 0.92241 0.72222 0.72556 0.0
C730 C 0.98033 0.72418 0.69856 0.0
C731 C 0.93625 0.75196 0.67915 0.0
C732 C 0.97119 0.76715 0.63986 0.0
C733 C 0.02622 0.76611 0.59902 0.0
C734 C 0.04746 0.75124 0.60295 0.0
C735 C -0.00713 0.75287 0.64653 0.0
C736 C 0.03597 0.7239 0.6593 0.0
C737 C 0.00247 0.71031 0.70636 0.0
loop_
_geom_bond_atom_site_label_1
_geom_bond_atom_site_label_2
_geom_bond_distance
_geom_bond_site_symmetry_2
_ccdc_geom_bond_type
C0 O16 1.251 1_554 S
C0 O18 1.254 . S
N1 C2 1.333 . S
N1 C6 1.307 . S
N1 Zn7 2.020 . S
C2 N1 1.333 . S
C2 C3 1.379 . S
C2 H20 0.952 . S
C3 C2 1.379 . S
C3 C4 1.390 . S
C3 H30 0.949 . S
C4 C3 1.390 . S
C4 C5 1.357 . S
C5 C4 1.357 . S
C5 C6 1.370 . S
C5 H31 0.950 . S
C6 N1 1.307 . S
C6 C5 1.370 . S
C6 H24 0.948 . S
Zn7 N1 2.020 . S
Zn7 O16 2.039 . S
Zn7 O22 2.034 . S
Zn7 O26 2.025 1_556 S
Zn7 O28 2.024 1_556 S
C8 O27 1.246 . S
C8 O28 1.249 . S
N9 C10 1.307 1_455 S
N9 C11 1.333 . S
N9 Zn15 2.020 . S
C10 N9 1.307 1_655 S
C10 C14 1.370 . S
C10 H21 0.948 . S
C11 N9 1.333 . S
C11 C12 1.379 . S
C11 H19 0.952 . S
C12 C11 1.379 . S
C12 C13 1.390 1_455 S
C12 H32 0.949 . S
C13 C12 1.390 1_655 S
C13 C14 1.357 . S
C14 C10 1.370 . S
C14 C13 1.357 . S
C14 H33 0.950 . S
Zn15 N9 2.020 . S
Zn15 O18 2.025 . S
Zn15 O23 2.024 . S
Zn15 O25 2.039 . S
Zn15 O27 2.034 . S
O16 C0 1.251 1_556 S
O16 Zn7 2.039 . S
C17 O22 1.246 1_554 S
C17 O23 1.249 . S
O18 C0 1.254 . S
O18 Zn15 2.025 . S
H19 C11 0.952 . S
H20 C2 0.952 . S
H21 C10 0.948 . S
O22 Zn7 2.034 . S
O22 C17 1.246 1_556 S
O23 Zn15 2.024 . S
O23 C17 1.249 . S
H24 C6 0.948 . S
O25 Zn15 2.039 . S
O25 C29 1.251 . S
O26 Zn7 2.025 1_554 S
O26 C29 1.254 . S
O27 C8 1.246 . S
O27 Zn15 2.034 . S
O28 Zn7 2.024 1_554 S
O28 C8 1.249 . S
C29 O25 1.251 . S
C29 O26 1.254 . S
H30 C3 0.949 . S
H31 C5 0.950 . S
H32 C12 0.949 . S
H33 C14 0.950 . S
C34 O50 1.251 . S
C34 O52 1.247 1_554 S
N35 C36 1.333 . S
N35 C40 1.307 . S
N35 Zn41 2.020 . S
C36 N35 1.333 . S
C36 C37 1.379 . S
C36 H54 0.952 . S
C37 C36 1.379 . S
C37 C38 1.390 . S
C37 H64 0.949 . S
C38 C37 1.390 . S
C38 C39 1.357 . S
C39 C38 1.357 . S
C39 C40 1.370 . S
C39 H65 0.950 . S
C40 N35 1.307 . S
C40 C39 1.370 . S
C40 H58 0.948 . S
Zn41 N35 2.020 . S
Zn41 O50 2.039 . S
Zn41 O56 2.034 . S
Zn41 O60 2.025 . S
Zn41 O62 2.024 . S
C42 O61 1.246 1_554 S
C42 O62 1.249 . S
N43 C44 1.307 . S
N43 C45 1.333 . S
N43 Zn49 2.020 . S
C44 N43 1.307 . S
C44 C48 1.370 . S
C44 H55 0.948 . S
C45 N43 1.333 . S
C45 C46 1.379 . S
C45 H53 0.952 . S
C46 C45 1.379 . S
C46 C47 1.390 . S
C46 H66 0.949 . S
C47 C46 1.390 . S
C47 C48 1.357 . S
C48 C44 1.370 . S
C48 C47 1.357 . S
C48 H67 0.950 . S
Zn49 N43 2.020 . S
Zn49 O52 2.028 . S
Zn49 O57 2.024 . S
Zn49 O59 2.039 . S
Zn49 O61 2.034 . S
O50 C34 1.251 . S
O50 Zn41 2.039 . S
C51 O56 1.246 . S
C51 O57 1.249 1_554 S
O52 C34 1.247 1_556 S
O52 Zn49 2.028 . S
H53 C45 0.952 . S
H54 C36 0.952 . S
H55 C44 0.948 . S
O56 Zn41 2.034 . S
O56 C51 1.246 . S
O57 Zn49 2.024 . S
O57 C51 1.249 1_556 S
H58 C40 0.948 . S
O59 Zn49 2.039 . S
O59 C63 1.251 . S
O60 Zn41 2.025 . S
O60 C63 1.254 1_554 S
O61 C42 1.246 1_556 S
O61 Zn49 2.034 . S
O62 Zn41 2.024 . S
O62 C42 1.249 . S
C63 O59 1.251 . S
C63 O60 1.254 1_556 S
H64 C37 0.949 . S
H65 C39 0.950 . S
H66 C46 0.949 . S
H67 C48 0.950 . S
C68 O84 1.251 . S
C68 O86 1.254 1_556 S
N69 C70 1.333 1_565 S
N69 C74 1.307 . S
N69 Zn75 2.011 1_565 S
C70 N69 1.333 1_545 S
C70 C71 1.379 . S
C70 H88 0.952 . S
C71 C70 1.379 . S
C71 C72 1.390 1_545 S
C71 H98 0.949 . S
C72 C71 1.390 1_565 S
C72 C73 1.357 . S
C73 C72 1.357 . S
C73 C74 1.370 . S
C73 H99 0.950 . S
C74 N69 1.307 . S
C74 C73 1.370 . S
C74 H92 0.948 . S
Zn75 N69 2.011 1_545 S
Zn75 O84 2.049 . S
Zn75 O90 2.072 . S
Zn75 O94 2.020 1_545 S
Zn75 O96 1.990 1_545 S
C76 O95 1.246 . S
C76 O96 1.249 1_554 S
N77 C78 1.307 . S
N77 C79 1.333 . S
N77 Zn83 2.020 . S
C78 N77 1.307 . S
C78 C82 1.370 . S
C78 H89 0.948 . S
C79 N77 1.333 . S
C79 C80 1.379 . S
C79 H87 0.952 1_545 S
C80 C79 1.379 . S
C80 C81 1.390 . S
C80 H100 0.949 . S
C81 C80 1.390 . S
C81 C82 1.357 . S
C82 C78 1.370 . S
C82 C81 1.357 . S
C82 H101 0.950 . S
Zn83 N77 2.020 . S
Zn83 O86 2.025 . S
Zn83 O91 2.024 . S
Zn83 O93 2.039 1_545 S
Zn83 O95 2.034 1_545 S
O84 C68 1.251 . S
O84 Zn75 2.049 . S
C85 O90 1.246 . S
C85 O91 1.249 1_556 S
O86 C68 1.254 1_554 S
O86 Zn83 2.025 . S
H87 C79 0.952 1_565 S
H88 C70 0.952 . S
H89 C78 0.948 . S
O90 Zn75 2.072 . S
O90 C85 1.246 . S
O91 Zn83 2.024 . S
O91 C85 1.249 1_554 S
H92 C74 0.948 . S
O93 Zn83 2.039 1_565 S
O93 C97 1.251 . S
O94 Zn75 2.020 1_565 S
O94 C97 1.254 1_556 S
O95 C76 1.246 . S
O95 Zn83 2.034 1_565 S
O96 Zn75 1.990 1_565 S
O96 C76 1.249 1_556 S
C97 O93 1.251 . S
C97 O94 1.254 1_554 S
H98 C71 0.949 . S
H99 C73 0.950 . S
H100 C80 0.949 . S
H101 C82 0.950 . S
C102 O118 1.251 . S
C102 O120 1.254 . S
N103 C104 1.333 . S
N103 C108 1.307 . S
N103 Zn109 2.020 . S
C104 N103 1.333 . S
C104 C105 1.379 1_554 S
C104 H122 0.952 . S
C105 C104 1.379 1_556 S
C105 C106 1.390 . S
C105 H132 0.949 . S
C106 C105 1.390 . S
C106 C107 1.357 . S
C107 C106 1.357 . S
C107 C108 1.370 1_556 S
C107 H133 0.950 . S
C108 N103 1.307 . S
C108 C107 1.370 1_554 S
C108 H126 0.948 . S
Zn109 N103 2.020 . S
Zn109 O118 2.039 . S
Zn109 O124 2.034 . S
Zn109 O128 2.025 . S
Zn109 O130 2.024 . S
C110 O129 1.246 . S
C110 O130 1.249 . S
N111 C112 1.307 . S
N111 C113 1.333 . S
N111 Zn117 2.020 . S
C112 N111 1.307 . S
C112 C116 1.370 . S
C112 H123 0.948 . S
C113 N111 1.333 . S
C113 C114 1.379 . S
C113 H121 0.952 . S
C114 C113 1.379 . S
C114 C115 1.390 . S
C114 H134 0.949 . S
C115 C114 1.390 . S
C115 C116 1.357 . S
C116 C112 1.370 . S
C116 C115 1.357 . S
C116 H135 0.950 . S
Zn117 N111 2.020 . S
Zn117 O120 2.025 . S
Zn117 O125 2.024 . S
Zn117 O127 2.039 . S
Zn117 O129 2.034 . S
O118 C102 1.251 . S
O118 Zn109 2.039 . S
C119 O124 1.246 . S
C119 O125 1.249 . S
O120 C102 1.254 . S
O120 Zn117 2.025 . S
H121 C113 0.952 . S
H122 C104 0.952 . S
H123 C112 0.948 . S
O124 Zn109 2.034 . S
O124 C119 1.246 . S
O125 Zn117 2.024 . S
O125 C119 1.249 . S
H126 C108 0.948 . S
O127 Zn117 2.039 . S
O127 C131 1.251 . S
O128 Zn109 2.025 . S
O128 C131 1.254 . S
O129 C110 1.246 . S
O129 Zn117 2.034 . S
O130 Zn109 2.024 . S
O130 C110 1.249 . S
C131 O127 1.251 . S
C131 O128 1.254 . S
H132 C105 0.949 . S
H133 C107 0.950 . S
H134 C114 0.949 . S
H135 C116 0.950 . S
C136 O152 1.251 . S
C136 O154 1.254 . S
N137 C138 1.333 . S
N137 C142 1.307 . S
N137 Zn143 2.020 . S
C138 N137 1.333 . S
C138 C139 1.379 . S
C138 H156 0.952 . S
C139 C138 1.379 . S
C139 C140 1.390 . S
C139 H166 0.949 . S
C140 C139 1.390 . S
C140 C141 1.357 . S
C141 C140 1.357 . S
C141 C142 1.370 . S
C141 H167 0.950 . S
C142 N137 1.307 . S
C142 C141 1.370 . S
C142 H160 0.948 . S
Zn143 N137 2.020 . S
Zn143 O152 2.039 . S
Zn143 O158 2.034 . S
Zn143 O162 2.025 . S
Zn143 O164 2.024 . S
C144 O163 1.246 . S
C144 O164 1.249 . S
N145 C146 1.307 . S
N145 C147 1.333 . S
N145 Zn151 2.020 . S
C146 N145 1.307 . S
C146 C150 1.370 . S
C146 H157 0.948 . S
C147 N145 1.333 . S
C147 C148 1.379 1_554 S
C147 H155 0.952 . S
C148 C147 1.379 1_556 S
C148 C149 1.390 . S
C148 H168 0.949 . S
C149 C148 1.390 . S
C149 C150 1.357 1_556 S
C150 C146 1.370 . S
C150 C149 1.357 1_554 S
C150 H169 0.950 . S
Zn151 N145 2.020 . S
Zn151 O154 2.025 . S
Zn151 O159 2.024 . S
Zn151 O161 2.039 . S
Zn151 O163 2.034 . S
O152 C136 1.251 . S
O152 Zn143 2.039 . S
C153 O158 1.246 . S
C153 O159 1.249 . S
O154 C136 1.254 . S
O154 Zn151 2.025 . S
H155 C147 0.952 . S
H156 C138 0.952 . S
H157 C146 0.948 . S
O158 Zn143 2.034 . S
O158 C153 1.246 . S
O159 Zn151 2.024 . S
O159 C153 1.249 . S
H160 C142 0.948 . S
O161 Zn151 2.039 . S
O161 C165 1.251 . S
O162 Zn143 2.025 . S
O162 C165 1.254 . S
O163 C144 1.246 . S
O163 Zn151 2.034 . S
O164 Zn143 2.024 . S
O164 C144 1.249 . S
C165 O161 1.251 . S
C165 O162 1.254 . S
H166 C139 0.949 . S
H167 C141 0.950 . S
H168 C148 0.949 . S
H169 C150 0.950 . S
C170 O186 1.251 . S
C170 O188 1.254 . S
N171 C172 1.333 . S
N171 C176 1.307 . S
N171 Zn177 2.020 . S
C172 N171 1.333 . S
C172 C173 1.379 . S
C172 H190 0.952 . S
C173 C172 1.379 . S
C173 C174 1.390 1_554 S
C173 H200 0.949 1_554 S
C174 C173 1.390 1_556 S
C174 C175 1.357 1_556 S
C175 C174 1.357 1_554 S
C175 C176 1.370 . S
C175 H201 0.950 . S
C176 N171 1.307 . S
C176 C175 1.370 . S
C176 H194 0.948 . S
Zn177 N171 2.020 . S
Zn177 O186 2.039 . S
Zn177 O192 2.034 . S
Zn177 O196 2.025 . S
Zn177 O198 2.024 . S
C178 O197 1.246 . S
C178 O198 1.249 . S
N179 C180 1.307 . S
N179 C181 1.333 . S
N179 Zn185 2.020 . S
C180 N179 1.307 . S
C180 C184 1.370 . S
C180 H191 0.948 . S
C181 N179 1.333 . S
C181 C182 1.379 . S
C181 H189 0.952 . S
C182 C181 1.379 . S
C182 C183 1.390 . S
C182 H202 0.949 . S
C183 C182 1.390 . S
C183 C184 1.357 . S
C184 C180 1.370 . S
C184 C183 1.357 . S
C184 H203 0.950 . S
Zn185 N179 2.020 . S
Zn185 O188 2.025 . S
Zn185 O193 2.024 . S
Zn185 O195 2.039 . S
Zn185 O197 2.034 . S
O186 C170 1.251 . S
O186 Zn177 2.039 . S
C187 O192 1.246 . S
C187 O193 1.249 . S
O188 C170 1.254 . S
O188 Zn185 2.025 . S
H189 C181 0.952 . S
H190 C172 0.952 . S
H191 C180 0.948 . S
O192 Zn177 2.034 . S
O192 C187 1.246 . S
O193 Zn185 2.024 . S
O193 C187 1.249 . S
H194 C176 0.948 . S
O195 Zn185 2.039 . S
O195 C199 1.251 . S
O196 Zn177 2.025 . S
O196 C199 1.254 . S
O197 C178 1.246 . S
O197 Zn185 2.034 . S
O198 Zn177 2.024 . S
O198 C178 1.249 . S
C199 O195 1.251 . S
C199 O196 1.254 . S
H200 C173 0.949 1_556 S
H201 C175 0.950 . S
H202 C182 0.949 . S
H203 C184 0.950 . S
C204 O220 1.251 . S
C204 O222 1.254 . S
N205 C206 1.333 . S
N205 C210 1.307 . S
N205 Zn211 2.020 . S
C206 N205 1.333 . S
C206 C207 1.379 . S
C206 H224 0.952 . S
C207 C206 1.379 . S
C207 C208 1.390 . S
C207 H234 0.949 . S
C208 C207 1.390 . S
C208 C209 1.357 . S
C209 C208 1.357 . S
C209 C210 1.370 . S
C209 H235 0.950 . S
C210 N205 1.307 . S
C210 C209 1.370 . S
C210 H228 0.948 . S
Zn211 N205 2.020 . S
Zn211 O220 2.039 . S
Zn211 O226 2.034 . S
Zn211 O230 2.025 . S
Zn211 O232 2.024 . S
C212 O231 1.246 . S
C212 O232 1.249 . S
N213 C214 1.307 . S
N213 C215 1.333 . S
N213 Zn219 2.020 . S
C214 N213 1.307 . S
C214 C218 1.370 . S
C214 H225 0.948 . S
C215 N213 1.333 . S
C215 C216 1.379 . S
C215 H223 0.952 . S
C216 C215 1.379 . S
C216 C217 1.390 . S
C216 H236 0.949 . S
C217 C216 1.390 . S
C217 C218 1.357 . S
C218 C214 1.370 . S
C218 C217 1.357 . S
C218 H237 0.950 . S
Zn219 N213 2.020 . S
Zn219 O222 2.025 . S
Zn219 O227 2.024 . S
Zn219 O229 2.039 . S
Zn219 O231 2.034 . S
O220 C204 1.251 . S
O220 Zn211 2.039 . S
C221 O226 1.246 . S
C221 O227 1.249 . S
O222 C204 1.254 . S
O222 Zn219 2.025 . S
H223 C215 0.952 . S
H224 C206 0.952 . S
H225 C214 0.948 . S
O226 Zn211 2.034 . S
O226 C221 1.246 . S
O227 Zn219 2.024 . S
O227 C221 1.249 . S
H228 C210 0.948 . S
O229 Zn219 2.039 . S
O229 C233 1.251 . S
O230 Zn211 2.025 . S
O230 C233 1.254 . S
O231 C212 1.246 . S
O231 Zn219 2.034 . S
O232 Zn211 2.024 . S
O232 C212 1.249 . S
C233 O229 1.251 . S
C233 O230 1.254 . S
H234 C207 0.949 . S
H235 C209 0.950 . S
H236 C216 0.949 . S
H237 C218 0.950 . S
C238 O254 1.251 . S
C238 O256 1.254 . S
N239 C240 1.333 . S
N239 C244 1.307 . S
N239 Zn245 2.020 . S
C240 N239 1.333 . S
C240 C241 1.379 . S
C240 H258 0.952 . S
C241 C240 1.379 . S
C241 C242 1.390 . S
C241 H268 0.949 . S
C242 C241 1.390 . S
C242 C243 1.357 . S
C243 C242 1.357 . S
C243 C244 1.370 . S
C243 H269 0.950 . S
C244 N239 1.307 . S
C244 C243 1.370 . S
C244 H262 0.948 . S
Zn245 N239 2.020 . S
Zn245 O254 2.039 . S
Zn245 O260 2.034 . S
Zn245 O264 2.025 . S
Zn245 O266 2.024 . S
C246 O265 1.246 . S
C246 O266 1.249 . S
N247 C248 1.307 . S
N247 C249 1.333 . S
N247 Zn253 2.020 . S
C248 N247 1.307 . S
C248 C252 1.370 . S
C248 H259 0.948 . S
C249 N247 1.333 . S
C249 C250 1.379 . S
C249 H257 0.952 . S
C250 C249 1.379 . S
C250 C251 1.390 . S
C250 H270 0.949 . S
C251 C250 1.390 . S
C251 C252 1.357 . S
C252 C248 1.370 . S
C252 C251 1.357 . S
C252 H271 0.950 . S
Zn253 N247 2.020 . S
Zn253 O256 2.025 . S
Zn253 O261 2.024 . S
Zn253 O263 2.039 . S
Zn253 O265 2.034 . S
O254 C238 1.251 . S
O254 Zn245 2.039 . S
C255 O260 1.246 . S
C255 O261 1.249 . S
O256 C238 1.254 . S
O256 Zn253 2.025 . S
H257 C249 0.952 . S
H258 C240 0.952 . S
H259 C248 0.948 . S
O260 Zn245 2.034 . S
O260 C255 1.246 . S
O261 Zn253 2.024 . S
O261 C255 1.249 . S
H262 C244 0.948 . S
O263 Zn253 2.039 . S
O263 C267 1.251 . S
O264 Zn245 2.025 . S
O264 C267 1.254 . S
O265 C246 1.246 . S
O265 Zn253 2.034 . S
O266 Zn245 2.024 . S
O266 C246 1.249 . S
C267 O263 1.251 . S
C267 O264 1.254 . S
H268 C241 0.949 . S
H269 C243 0.950 . S
H270 C250 0.949 . S
H271 C252 0.950 . S
C272 O288 1.251 . S
C272 O290 1.254 . S
N273 C274 1.333 . S
N273 C278 1.307 . S
N273 Zn279 2.020 . S
C274 N273 1.333 . S
C274 C275 1.379 . S
C274 H292 0.952 . S
C275 C274 1.379 . S
C275 C276 1.390 . S
C275 H302 0.949 . S
C276 C275 1.390 . S
C276 C277 1.357 . S
C277 C276 1.357 . S
C277 C278 1.370 . S
C277 H303 0.950 . S
C278 N273 1.307 . S
C278 C277 1.370 . S
C278 H296 0.948 . S
Zn279 N273 2.020 . S
Zn279 O288 2.039 . S
Zn279 O294 2.034 . S
Zn279 O298 2.025 . S
Zn279 O300 2.024 . S
C280 O299 1.246 . S
C280 O300 1.249 . S
N281 C282 1.307 . S
N281 C283 1.333 . S
N281 Zn287 2.020 . S
C282 N281 1.307 . S
C282 C286 1.370 . S
C282 H293 0.948 . S
C283 N281 1.333 . S
C283 C284 1.379 . S
C283 H291 0.952 . S
C284 C283 1.379 . S
C284 C285 1.390 . S
C284 H304 0.949 . S
C285 C284 1.390 . S
C285 C286 1.357 . S
C286 C282 1.370 . S
C286 C285 1.357 . S
C286 H305 0.950 . S
Zn287 N281 2.020 . S
Zn287 O290 2.025 . S
Zn287 O295 2.024 . S
Zn287 O297 2.039 . S
Zn287 O299 2.034 . S
O288 C272 1.251 . S
O288 Zn279 2.039 . S
C289 O294 1.246 . S
C289 O295 1.249 . S
O290 C272 1.254 . S
O290 Zn287 2.025 . S
H291 C283 0.952 . S
H292 C274 0.952 . S
H293 C282 0.948 . S
O294 Zn279 2.034 . S
O294 C289 1.246 . S
O295 Zn287 2.024 . S
O295 C289 1.249 . S
H296 C278 0.948 . S
O297 Zn287 2.039 . S
O297 C301 1.251 . S
O298 Zn279 2.025 . S
O298 C301 1.254 . S
O299 C280 1.246 . S
O299 Zn287 2.034 . S
O300 Zn279 2.024 . S
O300 C280 1.249 . S
C301 O297 1.251 . S
C301 O298 1.254 . S
H302 C275 0.949 . S
H303 C277 0.950 . S
H304 C284 0.949 . S
H305 C286 0.950 . S
H306 C312 0.930 . S
H307 C315 0.930 . S
H308 C316 0.930 . S
H309 C317 0.930 . S
H310 C320 0.930 1_655 S
H311 C321 0.930 . S
C312 H306 0.930 . S
C312 C313 1.355 . S
C312 C314 1.415 . S
C313 C312 1.355 . S
C313 C315 1.419 . S
C314 C312 1.415 . S
C314 C319 1.425 . S
C314 C321 1.409 . S
C315 H307 0.930 . S
C315 C313 1.419 . S
C315 C316 1.362 . S
C316 H308 0.930 . S
C316 C315 1.362 . S
C316 C319 1.409 . S
C317 H309 0.930 . S
C317 C318 1.355 1_455 S
C317 C319 1.415 . S
C318 C317 1.355 1_655 S
C318 C320 1.419 1_655 S
C319 C314 1.425 . S
C319 C316 1.409 . S
C319 C317 1.415 . S
C320 H310 0.930 1_455 S
C320 C318 1.419 1_455 S
C320 C321 1.362 . S
C321 H311 0.930 . S
C321 C314 1.409 . S
C321 C320 1.362 . S
H322 C328 0.930 . S
H323 C331 0.930 . S
H324 C332 0.930 . S
H325 C333 0.930 . S
H326 C336 0.930 . S
H327 C337 0.930 . S
C328 H322 0.930 . S
C328 C329 1.355 . S
C328 C330 1.415 . S
C329 C328 1.355 . S
C329 C331 1.419 . S
C330 C328 1.415 . S
C330 C335 1.425 . S
C330 C337 1.409 . S
C331 H323 0.930 . S
C331 C329 1.419 . S
C331 C332 1.362 . S
C332 H324 0.930 . S
C332 C331 1.362 . S
C332 C335 1.409 . S
C333 H325 0.930 . S
C333 C334 1.355 . S
C333 C335 1.415 . S
C334 C333 1.355 . S
C334 C336 1.419 . S
C335 C330 1.425 . S
C335 C332 1.409 . S
C335 C333 1.415 . S
C336 H326 0.930 . S
C336 C334 1.419 . S
C336 C337 1.362 . S
C337 H327 0.930 . S
C337 C330 1.409 . S
C337 C336 1.362 . S
H338 C344 0.930 . S
H339 C347 0.930 . S
H340 C348 0.930 . S
H341 C349 0.930 . S
H342 C352 0.930 . S
H343 C353 0.930 . S
C344 H338 0.930 . S
C344 C345 1.355 . S
C344 C346 1.415 1_565 S
C345 C344 1.355 . S
C345 C347 1.419 . S
C346 C344 1.415 1_545 S
C346 C351 1.425 . S
C346 C353 1.409 . S
C347 H339 0.930 . S
C347 C345 1.419 . S
C347 C348 1.362 . S
C348 H340 0.930 . S
C348 C347 1.362 . S
C348 C351 1.409 1_565 S
C349 H341 0.930 . S
C349 C350 1.355 . S
C349 C351 1.415 . S
C350 C349 1.355 . S
C350 C352 1.419 . S
C351 C346 1.425 . S
C351 C348 1.409 1_545 S
C351 C349 1.415 . S
C352 H342 0.930 . S
C352 C350 1.419 . S
C352 C353 1.362 . S
C353 H343 0.930 . S
C353 C346 1.409 . S
C353 C352 1.362 . S
H354 C360 0.930 . S
H355 C363 0.930 . S
H356 C364 0.930 . S
H357 C365 0.930 . S
H358 C368 0.930 . S
H359 C369 0.930 . S
C360 H354 0.930 . S
C360 C361 1.355 . S
C360 C362 1.415 . S
C361 C360 1.355 . S
C361 C363 1.419 . S
C362 C360 1.415 . S
C362 C367 1.425 . S
C362 C369 1.409 . S
C363 H355 0.930 . S
C363 C361 1.419 . S
C363 C364 1.362 . S
C364 H356 0.930 . S
C364 C363 1.362 . S
C364 C367 1.409 . S
C365 H357 0.930 . S
C365 C366 1.355 . S
C365 C367 1.415 . S
C366 C365 1.355 . S
C366 C368 1.419 . S
C367 C362 1.425 . S
C367 C364 1.409 . S
C367 C365 1.415 . S
C368 H358 0.930 . S
C368 C366 1.419 . S
C368 C369 1.362 . S
C369 H359 0.930 . S
C369 C362 1.409 . S
C369 C368 1.362 . S
H370 C376 0.930 . S
H371 C379 0.930 . S
H372 C380 0.930 . S
H373 C381 0.930 . S
H374 C384 0.930 1_554 S
H375 C385 0.930 . S
C376 H370 0.930 . S
C376 C377 1.355 . S
C376 C378 1.415 . S
C377 C376 1.355 . S
C377 C379 1.419 . S
C378 C376 1.415 . S
C378 C383 1.425 . S
C378 C385 1.409 . S
C379 H371 0.930 . S
C379 C377 1.419 . S
C379 C380 1.362 . S
C380 H372 0.930 . S
C380 C379 1.362 . S
C380 C383 1.409 . S
C381 H373 0.930 . S
C381 C382 1.355 . S
C381 C383 1.415 . S
C382 C381 1.355 . S
C382 C384 1.419 . S
C383 C378 1.425 . S
C383 C380 1.409 . S
C383 C381 1.415 . S
C384 H374 0.930 1_556 S
C384 C382 1.419 . S
C384 C385 1.362 . S
C385 H375 0.930 . S
C385 C378 1.409 . S
C385 C384 1.362 . S
H386 C392 0.930 . S
H387 C395 0.930 . S
H388 C396 0.930 . S
H389 C397 0.930 . S
H390 C400 0.935 . S
H391 C401 0.930 . S
C392 H386 0.930 . S
C392 C393 1.355 . S
C392 C394 1.415 . S
C393 C392 1.355 . S
C393 C395 1.419 . S
C394 C392 1.415 . S
C394 C399 1.425 . S
C394 C401 1.409 . S
C395 H387 0.930 . S
C395 C393 1.419 . S
C395 C396 1.362 . S
C396 H388 0.930 . S
C396 C395 1.362 . S
C396 C399 1.409 . S
C397 H389 0.930 . S
C397 C398 1.355 . S
C397 C399 1.415 . S
C398 C397 1.355 . S
C398 C400 1.416 1_556 S
C399 C394 1.425 . S
C399 C396 1.409 . S
C399 C397 1.415 . S
C400 H390 0.935 . S
C400 C398 1.416 1_554 S
C400 C401 1.359 1_554 S
C401 H391 0.930 . S
C401 C394 1.409 . S
C401 C400 1.359 1_556 S
H402 C408 0.930 . S
H403 C411 0.930 . S
H404 C412 0.930 . S
H405 C413 0.930 . S
H406 C416 0.930 . S
H407 C417 0.930 . S
C408 H402 0.930 . S
C408 C409 1.355 . S
C408 C410 1.415 . S
C409 C408 1.355 . S
C409 C411 1.419 . S
C410 C408 1.415 . S
C410 C415 1.425 . S
C410 C417 1.409 . S
C411 H403 0.930 . S
C411 C409 1.419 . S
C411 C412 1.362 . S
C412 H404 0.930 . S
C412 C411 1.362 . S
C412 C415 1.409 . S
C413 H405 0.930 . S
C413 C414 1.355 . S
C413 C415 1.415 . S
C414 C413 1.355 . S
C414 C416 1.419 . S
C415 C410 1.425 . S
C415 C412 1.409 . S
C415 C413 1.415 . S
C416 H406 0.930 . S
C416 C414 1.419 . S
C416 C417 1.362 . S
C417 H407 0.930 . S
C417 C410 1.409 . S
C417 C416 1.362 . S
H418 C424 0.930 . S
H419 C427 0.930 . S
H420 C428 0.930 . S
H421 C429 0.930 . S
H422 C432 0.930 . S
H423 C433 0.930 . S
C424 H418 0.930 . S
C424 C425 1.355 . S
C424 C426 1.415 . S
C425 C424 1.355 . S
C425 C427 1.419 . S
C426 C424 1.415 . S
C426 C431 1.425 . S
C426 C433 1.409 . S
C427 H419 0.930 . S
C427 C425 1.419 . S
C427 C428 1.362 . S
C428 H420 0.930 . S
C428 C427 1.362 . S
C428 C431 1.409 . S
C429 H421 0.930 . S
C429 C430 1.355 . S
C429 C431 1.415 . S
C430 C429 1.355 . S
C430 C432 1.419 . S
C431 C426 1.425 . S
C431 C428 1.409 . S
C431 C429 1.415 . S
C432 H422 0.930 . S
C432 C430 1.419 . S
C432 C433 1.362 . S
C433 H423 0.930 . S
C433 C426 1.409 . S
C433 C432 1.362 . S
H434 C440 0.930 . S
H435 C443 0.930 . S
H436 C444 0.930 . S
H437 C445 0.930 . S
H438 C448 0.930 . S
H439 C449 0.930 . S
C440 H434 0.930 . S
C440 C441 1.355 . S
C440 C442 1.415 . S
C441 C440 1.355 . S
C441 C443 1.419 . S
C442 C440 1.415 . S
C442 C447 1.425 . S
C442 C449 1.409 . S
C443 H435 0.930 . S
C443 C441 1.419 . S
C443 C444 1.362 . S
C444 H436 0.930 . S
C444 C443 1.362 . S
C444 C447 1.409 . S
C445 H437 0.930 . S
C445 C446 1.355 . S
C445 C447 1.415 . S
C446 C445 1.355 . S
C446 C448 1.419 . S
C447 C442 1.425 . S
C447 C444 1.409 . S
C447 C445 1.415 . S
C448 H438 0.930 . S
C448 C446 1.419 . S
C448 C449 1.362 . S
C449 H439 0.930 . S
C449 C442 1.409 . S
C449 C448 1.362 . S
H450 C456 0.930 . S
H451 C459 0.930 . S
H452 C460 0.930 . S
H453 C461 0.930 . S
H454 C464 0.930 . S
H455 C465 0.930 . S
C456 H450 0.930 . S
C456 C457 1.355 . S
C456 C458 1.415 . S
C457 C456 1.355 . S
C457 C459 1.419 . S
C458 C456 1.415 . S
C458 C463 1.425 . S
C458 C465 1.409 . S
C459 H451 0.930 . S
C459 C457 1.419 . S
C459 C460 1.362 . S
C460 H452 0.930 . S
C460 C459 1.362 . S
C460 C463 1.409 . S
C461 H453 0.930 . S
C461 C462 1.355 . S
C461 C463 1.415 . S
C462 C461 1.355 . S
C462 C464 1.419 . S
C463 C458 1.425 . S
C463 C460 1.409 . S
C463 C461 1.415 . S
C464 H454 0.930 . S
C464 C462 1.419 . S
C464 C465 1.362 . S
C465 H455 0.930 . S
C465 C458 1.409 . S
C465 C464 1.362 . S
H466 C472 0.930 . S
H467 C475 0.930 . S
H468 C476 0.930 . S
H469 C477 0.930 . S
H470 C480 0.930 . S
H471 C481 0.930 . S
C472 H466 0.930 . S
C472 C473 1.355 . S
C472 C474 1.415 . S
C473 C472 1.355 . S
C473 C475 1.419 . S
C474 C472 1.415 . S
C474 C479 1.425 . S
C474 C481 1.409 . S
C475 H467 0.930 . S
C475 C473 1.419 . S
C475 C476 1.362 . S
C476 H468 0.930 . S
C476 C475 1.362 . S
C476 C479 1.409 . S
C477 H469 0.930 . S
C477 C478 1.355 . S
C477 C479 1.415 . S
C478 C477 1.355 . S
C478 C480 1.419 . S
C479 C474 1.425 . S
C479 C476 1.409 . S
C479 C477 1.415 . S
C480 H470 0.930 . S
C480 C478 1.419 . S
C480 C481 1.362 . S
C481 H471 0.930 . S
C481 C474 1.409 . S
C481 C480 1.362 . S
H482 C488 0.930 . S
H483 C491 0.930 . S
H484 C492 0.930 . S
H485 C493 0.930 . S
H486 C496 0.930 . S
H487 C497 0.930 . S
C488 H482 0.930 . S
C488 C489 1.355 . S
C488 C490 1.415 . S
C489 C488 1.355 . S
C489 C491 1.419 . S
C490 C488 1.415 . S
C490 C495 1.425 . S
C490 C497 1.409 . S
C491 H483 0.930 . S
C491 C489 1.419 . S
C491 C492 1.362 . S
C492 H484 0.930 . S
C492 C491 1.362 . S
C492 C495 1.409 . S
C493 H485 0.930 . S
C493 C494 1.355 . S
C493 C495 1.415 . S
C494 C493 1.355 . S
C494 C496 1.419 . S
C495 C490 1.425 . S
C495 C492 1.409 . S
C495 C493 1.415 . S
C496 H486 0.930 . S
C496 C494 1.419 . S
C496 C497 1.362 . S
C497 H487 0.930 . S
C497 C490 1.409 . S
C497 C496 1.362 . S
H498 C504 0.930 . S
H499 C507 0.930 . S
H500 C508 0.930 . S
H501 C509 0.930 . S
H502 C512 0.930 . S
H503 C513 0.930 . S
C504 H498 0.930 . S
C504 C505 1.355 . S
C504 C506 1.415 . S
C505 C504 1.355 . S
C505 C507 1.419 . S
C506 C504 1.415 . S
C506 C511 1.425 . S
C506 C513 1.409 . S
C507 H499 0.930 . S
C507 C505 1.419 . S
C507 C508 1.362 . S
C508 H500 0.930 . S
C508 C507 1.362 . S
C508 C511 1.409 . S
C509 H501 0.930 . S
C509 C510 1.355 . S
C509 C511 1.415 . S
C510 C509 1.355 . S
C510 C512 1.419 . S
C511 C506 1.425 . S
C511 C508 1.409 . S
C511 C509 1.415 . S
C512 H502 0.930 . S
C512 C510 1.419 . S
C512 C513 1.362 . S
C513 H503 0.930 . S
C513 C506 1.409 . S
C513 C512 1.362 . S
H514 C520 0.930 . S
H515 C523 0.930 . S
H516 C524 0.930 . S
H517 C525 0.930 . S
H518 C528 0.930 1_554 S
H519 C529 0.930 . S
C520 H514 0.930 . S
C520 C521 1.355 . S
C520 C522 1.415 . S
C521 C520 1.355 . S
C521 C523 1.419 . S
C522 C520 1.415 . S
C522 C527 1.425 . S
C522 C529 1.409 . S
C523 H515 0.930 . S
C523 C521 1.419 . S
C523 C524 1.362 . S
C524 H516 0.930 . S
C524 C523 1.362 . S
C524 C527 1.409 . S
C525 H517 0.930 . S
C525 C526 1.355 . S
C525 C527 1.415 . S
C526 C525 1.355 . S
C526 C528 1.419 1_655 S
C527 C522 1.425 . S
C527 C524 1.409 . S
C527 C525 1.415 . S
C528 H518 0.930 1_556 S
C528 C526 1.419 1_455 S
C528 C529 1.362 1_455 S
C529 H519 0.930 . S
C529 C522 1.409 . S
C529 C528 1.362 1_655 S
H530 C536 0.930 . S
H531 C539 0.930 . S
H532 C540 0.930 . S
H533 C541 0.930 . S
H534 C544 0.930 . S
H535 C545 0.930 . S
C536 H530 0.930 . S
C536 C537 1.355 . S
C536 C538 1.415 . S
C537 C536 1.355 . S
C537 C539 1.419 . S
C538 C536 1.415 . S
C538 C543 1.425 . S
C538 C545 1.409 . S
C539 H531 0.930 . S
C539 C537 1.419 . S
C539 C540 1.362 . S
C540 H532 0.930 . S
C540 C539 1.362 . S
C540 C543 1.409 . S
C541 H533 0.930 . S
C541 C542 1.355 . S
C541 C543 1.415 . S
C542 C541 1.355 . S
C542 C544 1.419 . S
C543 C538 1.425 . S
C543 C540 1.409 . S
C543 C541 1.415 . S
C544 H534 0.930 . S
C544 C542 1.419 . S
C544 C545 1.362 . S
C545 H535 0.930 . S
C545 C538 1.409 . S
C545 C544 1.362 . S
H546 C552 0.930 . S
H547 C555 0.930 . S
H548 C556 0.930 1_554 S
H549 C557 0.930 . S
H550 C560 0.949 . S
H551 C561 0.930 . S
C552 H546 0.930 . S
C552 C553 1.355 . S
C552 C554 1.415 . S
C553 C552 1.355 . S
C553 C555 1.419 . S
C554 C552 1.415 . S
C554 C559 1.425 . S
C554 C561 1.409 . S
C555 H547 0.930 . S
C555 C553 1.419 . S
C555 C556 1.362 . S
C556 H548 0.930 1_556 S
C556 C555 1.362 . S
C556 C559 1.409 . S
C557 H549 0.930 . S
C557 C558 1.355 1_554 S
C557 C559 1.415 1_554 S
C558 C557 1.355 1_556 S
C558 C560 1.413 1_655 S
C559 C554 1.425 . S
C559 C556 1.409 . S
C559 C557 1.415 1_556 S
C560 H550 0.949 . S
C560 C558 1.413 1_455 S
C560 C561 1.350 1_455 S
C561 H551 0.930 . S
C561 C554 1.409 . S
C561 C560 1.350 1_655 S
H562 C568 0.930 . S
H563 C571 0.930 . S
H564 C572 0.930 . S
H565 C573 0.930 . S
H566 C576 0.930 . S
H567 C577 0.930 . S
C568 H562 0.930 . S
C568 C569 1.355 . S
C568 C570 1.415 . S
C569 C568 1.355 . S
C569 C571 1.419 . S
C570 C568 1.415 . S
C570 C575 1.425 . S
C570 C577 1.409 . S
C571 H563 0.930 . S
C571 C569 1.419 . S
C571 C572 1.362 . S
C572 H564 0.930 . S
C572 C571 1.362 . S
C572 C575 1.409 . S
C573 H565 0.930 . S
C573 C574 1.355 . S
C573 C575 1.415 . S
C574 C573 1.355 . S
C574 C576 1.419 . S
C575 C570 1.425 . S
C575 C572 1.409 . S
C575 C573 1.415 . S
C576 H566 0.930 . S
C576 C574 1.419 . S
C576 C577 1.362 . S
C577 H567 0.930 . S
C577 C570 1.409 . S
C577 C576 1.362 . S
H578 C584 0.930 . S
H579 C587 0.930 . S
H580 C588 0.930 . S
H581 C589 0.930 . S
H582 C592 0.930 1_554 S
H583 C593 0.930 . S
C584 H578 0.930 . S
C584 C585 1.355 . S
C584 C586 1.415 . S
C585 C584 1.355 . S
C585 C587 1.419 . S
C586 C584 1.415 . S
C586 C591 1.425 . S
C586 C593 1.409 . S
C587 H579 0.930 . S
C587 C585 1.419 . S
C587 C588 1.362 . S
C588 H580 0.930 . S
C588 C587 1.362 . S
C588 C591 1.409 . S
C589 H581 0.930 . S
C589 C590 1.355 . S
C589 C591 1.415 . S
C590 C589 1.355 . S
C590 C592 1.419 . S
C591 C586 1.425 . S
C591 C588 1.409 . S
C591 C589 1.415 . S
C592 H582 0.930 1_556 S
C592 C590 1.419 . S
C592 C593 1.362 . S
C593 H583 0.930 . S
C593 C586 1.409 . S
C593 C592 1.362 . S
H594 C600 0.930 . S
H595 C603 0.930 . S
H596 C604 0.930 . S
H597 C605 0.930 . S
H598 C608 0.930 . S
H599 C609 0.930 . S
C600 H594 0.930 . S
C600 C601 1.355 . S
C600 C602 1.415 . S
C601 C600 1.355 . S
C601 C603 1.419 . S
C602 C600 1.415 . S
C602 C607 1.425 . S
C602 C609 1.409 . S
C603 H595 0.930 . S
C603 C601 1.419 . S
C603 C604 1.362 . S
C604 H596 0.930 . S
C604 C603 1.362 . S
C604 C607 1.409 . S
C605 H597 0.930 . S
C605 C606 1.355 . S
C605 C607 1.415 . S
C606 C605 1.355 . S
C606 C608 1.419 . S
C607 C602 1.425 . S
C607 C604 1.409 . S
C607 C605 1.415 . S
C608 H598 0.930 . S
C608 C606 1.419 . S
C608 C609 1.362 . S
C609 H599 0.930 . S
C609 C602 1.409 . S
C609 C608 1.362 . S
H610 C616 0.930 . S
H611 C619 0.930 . S
H612 C620 0.930 . S
H613 C621 0.930 . S
H614 C624 0.930 . S
H615 C625 0.930 . S
C616 H610 0.930 . S
C616 C617 1.355 . S
C616 C618 1.415 . S
C617 C616 1.355 . S
C617 C619 1.419 . S
C618 C616 1.415 . S
C618 C623 1.425 . S
C618 C625 1.409 . S
C619 H611 0.930 . S
C619 C617 1.419 . S
C619 C620 1.362 . S
C620 H612 0.930 . S
C620 C619 1.362 . S
C620 C623 1.409 . S
C621 H613 0.930 . S
C621 C622 1.355 . S
C621 C623 1.415 . S
C622 C621 1.355 . S
C622 C624 1.419 . S
C623 C618 1.425 . S
C623 C620 1.409 . S
C623 C621 1.415 . S
C624 H614 0.930 . S
C624 C622 1.419 . S
C624 C625 1.362 . S
C625 H615 0.930 . S
C625 C618 1.409 . S
C625 C624 1.362 . S
H626 C632 0.930 . S
H627 C635 0.930 . S
H628 C636 0.930 . S
H629 C637 0.930 . S
H630 C640 0.930 . S
H631 C641 0.930 . S
C632 H626 0.930 . S
C632 C633 1.355 . S
C632 C634 1.415 . S
C633 C632 1.355 . S
C633 C635 1.419 . S
C634 C632 1.415 . S
C634 C639 1.425 . S
C634 C641 1.409 . S
C635 H627 0.930 . S
C635 C633 1.419 . S
C635 C636 1.362 . S
C636 H628 0.930 . S
C636 C635 1.362 . S
C636 C639 1.409 . S
C637 H629 0.930 . S
C637 C638 1.355 . S
C637 C639 1.415 . S
C638 C637 1.355 . S
C638 C640 1.419 . S
C639 C634 1.425 . S
C639 C636 1.409 . S
C639 C637 1.415 . S
C640 H630 0.930 . S
C640 C638 1.419 . S
C640 C641 1.362 . S
C641 H631 0.930 . S
C641 C634 1.409 . S
C641 C640 1.362 . S
H642 C648 0.930 . S
H643 C651 0.930 . S
H644 C652 0.930 . S
H645 C653 0.930 . S
H646 C656 0.930 . S
H647 C657 0.930 . S
C648 H642 0.930 . S
C648 C649 1.355 . S
C648 C650 1.415 . S
C649 C648 1.355 . S
C649 C651 1.419 . S
C650 C648 1.415 . S
C650 C655 1.425 . S
C650 C657 1.409 . S
C651 H643 0.930 . S
C651 C649 1.419 . S
C651 C652 1.362 . S
C652 H644 0.930 . S
C652 C651 1.362 . S
C652 C655 1.409 . S
C653 H645 0.930 . S
C653 C654 1.355 . S
C653 C655 1.415 . S
C654 C653 1.355 . S
C654 C656 1.419 . S
C655 C650 1.425 . S
C655 C652 1.409 . S
C655 C653 1.415 . S
C656 H646 0.930 . S
C656 C654 1.419 . S
C656 C657 1.362 . S
C657 H647 0.930 . S
C657 C650 1.409 . S
C657 C656 1.362 . S
H658 C664 0.930 . S
H659 C667 0.930 1_545 S
H660 C668 0.930 . S
H661 C669 0.930 . S
H662 C672 0.930 . S
H663 C673 0.930 . S
C664 H658 0.930 . S
C664 C665 1.355 . S
C664 C666 1.415 . S
C665 C664 1.355 . S
C665 C667 1.419 . S
C666 C664 1.415 . S
C666 C671 1.425 . S
C666 C673 1.409 . S
C667 H659 0.930 1_565 S
C667 C665 1.419 . S
C667 C668 1.362 . S
C668 H660 0.930 . S
C668 C667 1.362 . S
C668 C671 1.409 . S
C669 H661 0.930 . S
C669 C670 1.355 . S
C669 C671 1.415 . S
C670 C669 1.355 . S
C670 C672 1.419 . S
C671 C666 1.425 . S
C671 C668 1.409 . S
C671 C669 1.415 . S
C672 H662 0.930 . S
C672 C670 1.419 . S
C672 C673 1.362 . S
C673 H663 0.930 . S
C673 C666 1.409 . S
C673 C672 1.362 . S
H674 C680 0.930 . S
H675 C683 0.930 . S
H676 C684 0.930 . S
H677 C685 0.930 . S
H678 C688 0.930 . S
H679 C689 0.930 . S
C680 H674 0.930 . S
C680 C681 1.355 . S
C680 C682 1.415 . S
C681 C680 1.355 . S
C681 C683 1.419 . S
C682 C680 1.415 . S
C682 C687 1.425 1_655 S
C682 C689 1.409 1_655 S
C683 H675 0.930 . S
C683 C681 1.419 . S
C683 C684 1.362 . S
C684 H676 0.930 . S
C684 C683 1.362 . S
C684 C687 1.409 1_655 S
C685 H677 0.930 . S
C685 C686 1.355 . S
C685 C687 1.415 . S
C686 C685 1.355 . S
C686 C688 1.419 . S
C687 C682 1.425 1_455 S
C687 C684 1.409 1_455 S
C687 C685 1.415 . S
C688 H678 0.930 . S
C688 C686 1.419 . S
C688 C689 1.362 . S
C689 H679 0.930 . S
C689 C682 1.409 1_455 S
C689 C688 1.362 . S
H690 C696 0.930 . S
H691 C699 0.930 . S
H692 C700 0.930 . S
H693 C701 0.930 . S
H694 C704 0.930 . S
H695 C705 0.930 . S
C696 H690 0.930 . S
C696 C697 1.355 . S
C696 C698 1.415 . S
C697 C696 1.355 . S
C697 C699 1.419 . S
C698 C696 1.415 . S
C698 C703 1.425 . S
C698 C705 1.409 . S
C699 H691 0.930 . S
C699 C697 1.419 . S
C699 C700 1.362 . S
C700 H692 0.930 . S
C700 C699 1.362 . S
C700 C703 1.409 . S
C701 H693 0.930 . S
C701 C702 1.355 . S
C701 C703 1.415 . S
C702 C701 1.355 . S
C702 C704 1.419 . S
C703 C698 1.425 . S
C703 C700 1.409 . S
C703 C701 1.415 . S
C704 H694 0.930 . S
C704 C702 1.419 . S
C704 C705 1.362 . S
C705 H695 0.930 . S
C705 C698 1.409 . S
C705 C704 1.362 . S
H706 C712 0.930 . S
H707 C715 0.930 . S
H708 C716 0.930 . S
H709 C717 0.930 1_545 S
H710 C720 0.930 . S
H711 C721 0.930 . S
C712 H706 0.930 . S
C712 C713 1.355 . S
C712 C714 1.415 . S
C713 C712 1.355 . S
C713 C715 1.419 . S
C714 C712 1.415 . S
C714 C719 1.425 . S
C714 C721 1.409 . S
C715 H707 0.930 . S
C715 C713 1.419 . S
C715 C716 1.362 . S
C716 H708 0.930 . S
C716 C715 1.362 . S
C716 C719 1.409 . S
C717 H709 0.930 1_565 S
C717 C718 1.355 . S
C717 C719 1.415 . S
C718 C717 1.355 . S
C718 C720 1.419 . S
C719 C714 1.425 . S
C719 C716 1.409 . S
C719 C717 1.415 . S
C720 H710 0.930 . S
C720 C718 1.419 . S
C720 C721 1.362 . S
C721 H711 0.930 . S
C721 C714 1.409 . S
C721 C720 1.362 . S
H722 C728 0.930 . S
H723 C731 0.930 . S
H724 C732 0.930 . S
H725 C733 0.930 . S
H726 C736 0.930 . S
H727 C737 0.930 . S
C728 H722 0.930 . S
C728 C729 1.355 . S
C728 C730 1.415 . S
C729 C728 1.355 . S
C729 C731 1.419 . S
C730 C728 1.415 . S
C730 C735 1.425 . S
C730 C737 1.409 1_655 S
C731 H723 0.930 . S
C731 C729 1.419 . S
C731 C732 1.362 . S
C732 H724 0.930 . S
C732 C731 1.362 . S
C732 C735 1.409 . S
C733 H725 0.930 . S
C733 C734 1.355 . S
C733 C735 1.415 1_455 S
C734 C733 1.355 . S
C734 C736 1.419 . S
C735 C730 1.425 . S
C735 C732 1.409 . S
C735 C733 1.415 1_655 S
C736 H726 0.930 . S
C736 C734 1.419 . S
C736 C737 1.362 . S
C737 H727 0.930 . S
C737 C730 1.409 1_455 S
C737 C736 1.362 . S
C313 C4 0.777 . S
C318 C13 0.777 . S
C329 C47 0.634 . S
C334 C38 0.634 . S
C345 C72 0.806 . S
C350 C81 0.806 . S
C361 C115 0.755 . S
C366 C106 0.755 . S
C377 C140 0.670 . S
C382 C149 0.670 . S
C393 C183 0.576 . S
C398 C174 0.576 . S
C409 C233 3.375 . S
C414 C204 3.375 1_554 S
C425 C238 3.382 . S
C430 C267 3.382 1_554 S
C441 C301 3.411 . S
C446 C272 3.411 1_554 S
C457 C187 1.703 . S
C462 C29 1.666 . S
C473 C51 1.744 . S
C478 C119 1.733 . S
C489 C97 1.716 . S
C494 C165 1.694 . S
C505 C85 1.683 . S
C510 C212 1.707 . S
C521 C251 1.220 . S
C526 C17 1.205 1_656 S
C537 C280 1.441 . S
C542 C63 1.447 . S
C553 C276 1.115 . S
C558 C0 1.099 1_656 S
C569 C42 1.261 1_556 S
C574 C208 1.229 . S
C585 C255 1.643 . S
C590 C68 1.637 . S
C601 C76 1.732 . S
C606 C102 1.716 . S
C617 C144 1.724 . S
C622 C8 1.701 . S
C633 C34 1.732 . S
C638 C170 1.752 . S
C649 C285 1.160 . S
C654 C131 1.157 . S
C665 C217 1.261 1_565 S
C670 C153 1.244 . S
C681 C246 1.634 . S
C686 C199 1.605 . S
C697 C221 1.721 . S
C702 C178 1.715 . S
C713 C110 1.233 . S
C718 C242 1.226 1_565 S
C729 C289 1.466 . S
C734 C136 1.443 . S
