# Generated by pormake.
# Topology wmt, (6)-cn, num edge types: 1
# Building blocks:
#     Node 0, Type 0, BuildingBlock: GEDQOX_clean_sbu_0, # of connection points: 6
#     Node 1, Type 0, BuildingBlock: GEDQOX_clean_sbu_0, # of connection points: 6
#     Node 2, Type 0, BuildingBlock: GEDQOX_clean_sbu_0, # of connection points: 6
#     Node 3, Type 0, BuildingBlock: GEDQOX_clean_sbu_0, # of connection points: 6
#     Node 4, Type 0, BuildingBlock: GEDQOX_clean_sbu_0, # of connection points: 6
#     Node 5, Type 0, BuildingBlock: GEDQOX_clean_sbu_0, # of connection points: 6
#     Node 6, Type 0, BuildingBlock: GEDQOX_clean_sbu_0, # of connection points: 6
#     Node 7, Type 0, BuildingBlock: GEDQOX_clean_sbu_0, # of connection points: 6
#     Node 8, Type 0, BuildingBlock: GEDQOX_clean_sbu_0, # of connection points: 6
#     Node 9, Type 0, BuildingBlock: GEDQOX_clean_sbu_0, # of connection points: 6
#     Node 10, Type 0, BuildingBlock: GEDQOX_clean_sbu_0, # of connection points: 6
#     Node 11, Type 0, BuildingBlock: GEDQOX_clean_sbu_0, # of connection points: 6
#     Node 12, Type 0, BuildingBlock: GEDQOX_clean_sbu_0, # of connection points: 6
#     Node 13, Type 0, BuildingBlock: GEDQOX_clean_sbu_0, # of connection points: 6
#     Node 14, Type 0, BuildingBlock: GEDQOX_clean_sbu_0, # of connection points: 6
#     Node 15, Type 0, BuildingBlock: GEDQOX_clean_sbu_0, # of connection points: 6
#     Node 16, Type 0, BuildingBlock: GEDQOX_clean_sbu_0, # of connection points: 6
#     Node 17, Type 0, BuildingBlock: GEDQOX_clean_sbu_0, # of connection points: 6
#     Node 18, Type 0, BuildingBlock: GEDQOX_clean_sbu_0, # of connection points: 6
#     Node 19, Type 0, BuildingBlock: GEDQOX_clean_sbu_0, # of connection points: 6
#     Node 20, Type 0, BuildingBlock: GEDQOX_clean_sbu_0, # of connection points: 6
#     Node 21, Type 0, BuildingBlock: GEDQOX_clean_sbu_0, # of connection points: 6
#     Node 22, Type 0, BuildingBlock: GEDQOX_clean_sbu_0, # of connection points: 6
#     Node 23, Type 0, BuildingBlock: GEDQOX_clean_sbu_0, # of connection points: 6
#     Node 24, Type 0, BuildingBlock: GEDQOX_clean_sbu_0, # of connection points: 6
#     Node 25, Type 0, BuildingBlock: GEDQOX_clean_sbu_0, # of connection points: 6
#     Node 26, Type 0, BuildingBlock: GEDQOX_clean_sbu_0, # of connection points: 6
#     Node 27, Type 0, BuildingBlock: GEDQOX_clean_sbu_0, # of connection points: 6
#     Node 28, Type 0, BuildingBlock: GEDQOX_clean_sbu_0, # of connection points: 6
#     Node 29, Type 0, BuildingBlock: GEDQOX_clean_sbu_0, # of connection points: 6
#     Node 30, Type 0, BuildingBlock: GEDQOX_clean_sbu_0, # of connection points: 6
#     Node 31, Type 0, BuildingBlock: GEDQOX_clean_sbu_0, # of connection points: 6
#     Node 32, Type 0, BuildingBlock: GEDQOX_clean_sbu_0, # of connection points: 6
#     Node 33, Type 0, BuildingBlock: GEDQOX_clean_sbu_0, # of connection points: 6
#     Node 34, Type 0, BuildingBlock: GEDQOX_clean_sbu_0, # of connection points: 6
#     Node 35, Type 0, BuildingBlock: GEDQOX_clean_sbu_0, # of connection points: 6
#     Edge 36, Type (0, 0), BuildingBlock: UVAHIK_clean_linker_0, # of connection points: 2
#     Edge 37, Type (0, 0), BuildingBlock: UVAHIK_clean_linker_0, # of connection points: 2
#     Edge 38, Type (0, 0), BuildingBlock: UVAHIK_clean_linker_0, # of connection points: 2
#     Edge 39, Type (0, 0), BuildingBlock: UVAHIK_clean_linker_0, # of connection points: 2
#     Edge 40, Type (0, 0), BuildingBlock: UVAHIK_clean_linker_0, # of connection points: 2
#     Edge 41, Type (0, 0), BuildingBlock: UVAHIK_clean_linker_0, # of connection points: 2
#     Edge 42, Type (0, 0), BuildingBlock: UVAHIK_clean_linker_0, # of connection points: 2
#     Edge 43, Type (0, 0), BuildingBlock: UVAHIK_clean_linker_0, # of connection points: 2
#     Edge 44, Type (0, 0), BuildingBlock: UVAHIK_clean_linker_0, # of connection points: 2
#     Edge 45, Type (0, 0), BuildingBlock: UVAHIK_clean_linker_0, # of connection points: 2
#     Edge 46, Type (0, 0), BuildingBlock: UVAHIK_clean_linker_0, # of connection points: 2
#     Edge 47, Type (0, 0), BuildingBlock: UVAHIK_clean_linker_0, # of connection points: 2
#     Edge 48, Type (0, 0), BuildingBlock: UVAHIK_clean_linker_0, # of connection points: 2
#     Edge 49, Type (0, 0), BuildingBlock: UVAHIK_clean_linker_0, # of connection points: 2
#     Edge 50, Type (0, 0), BuildingBlock: UVAHIK_clean_linker_0, # of connection points: 2
#     Edge 51, Type (0, 0), BuildingBlock: UVAHIK_clean_linker_0, # of connection points: 2
#     Edge 52, Type (0, 0), BuildingBlock: UVAHIK_clean_linker_0, # of connection points: 2
#     Edge 53, Type (0, 0), BuildingBlock: UVAHIK_clean_linker_0, # of connection points: 2
#     Edge 54, Type (0, 0), BuildingBlock: UVAHIK_clean_linker_0, # of connection points: 2
#     Edge 55, Type (0, 0), BuildingBlock: UVAHIK_clean_linker_0, # of connection points: 2
#     Edge 56, Type (0, 0), BuildingBlock: UVAHIK_clean_linker_0, # of connection points: 2
#     Edge 57, Type (0, 0), BuildingBlock: UVAHIK_clean_linker_0, # of connection points: 2
#     Edge 58, Type (0, 0), BuildingBlock: UVAHIK_clean_linker_0, # of connection points: 2
#     Edge 59, Type (0, 0), BuildingBlock: UVAHIK_clean_linker_0, # of connection points: 2
#     Edge 60, Type (0, 0), BuildingBlock: UVAHIK_clean_linker_0, # of connection points: 2
#     Edge 61, Type (0, 0), BuildingBlock: UVAHIK_clean_linker_0, # of connection points: 2
#     Edge 62, Type (0, 0), BuildingBlock: UVAHIK_clean_linker_0, # of connection points: 2
#     Edge 63, Type (0, 0), BuildingBlock: UVAHIK_clean_linker_0, # of connection points: 2
#     Edge 64, Type (0, 0), BuildingBlock: UVAHIK_clean_linker_0, # of connection points: 2
#     Edge 65, Type (0, 0), BuildingBlock: UVAHIK_clean_linker_0, # of connection points: 2
#     Edge 66, Type (0, 0), BuildingBlock: UVAHIK_clean_linker_0, # of connection points: 2
#     Edge 67, Type (0, 0), BuildingBlock: UVAHIK_clean_linker_0, # of connection points: 2
#     Edge 68, Type (0, 0), BuildingBlock: UVAHIK_clean_linker_0, # of connection points: 2
#     Edge 69, Type (0, 0), BuildingBlock: UVAHIK_clean_linker_0, # of connection points: 2
#     Edge 70, Type (0, 0), BuildingBlock: UVAHIK_clean_linker_0, # of connection points: 2
#     Edge 71, Type (0, 0), BuildingBlock: UVAHIK_clean_linker_0, # of connection points: 2
#     Edge 72, Type (0, 0), BuildingBlock: UVAHIK_clean_linker_0, # of connection points: 2
#     Edge 73, Type (0, 0), BuildingBlock: UVAHIK_clean_linker_0, # of connection points: 2
#     Edge 74, Type (0, 0), BuildingBlock: UVAHIK_clean_linker_0, # of connection points: 2
#     Edge 75, Type (0, 0), BuildingBlock: UVAHIK_clean_linker_0, # of connection points: 2
#     Edge 76, Type (0, 0), BuildingBlock: UVAHIK_clean_linker_0, # of connection points: 2
#     Edge 77, Type (0, 0), BuildingBlock: UVAHIK_clean_linker_0, # of connection points: 2
#     Edge 78, Type (0, 0), BuildingBlock: UVAHIK_clean_linker_0, # of connection points: 2
#     Edge 79, Type (0, 0), BuildingBlock: UVAHIK_clean_linker_0, # of connection points: 2
#     Edge 80, Type (0, 0), BuildingBlock: UVAHIK_clean_linker_0, # of connection points: 2
#     Edge 81, Type (0, 0), BuildingBlock: UVAHIK_clean_linker_0, # of connection points: 2
#     Edge 82, Type (0, 0), BuildingBlock: UVAHIK_clean_linker_0, # of connection points: 2
#     Edge 83, Type (0, 0), BuildingBlock: UVAHIK_clean_linker_0, # of connection points: 2
#     Edge 84, Type (0, 0), BuildingBlock: UVAHIK_clean_linker_0, # of connection points: 2
#     Edge 85, Type (0, 0), BuildingBlock: UVAHIK_clean_linker_0, # of connection points: 2
#     Edge 86, Type (0, 0), BuildingBlock: UVAHIK_clean_linker_0, # of connection points: 2
#     Edge 87, Type (0, 0), BuildingBlock: UVAHIK_clean_linker_0, # of connection points: 2
#     Edge 88, Type (0, 0), BuildingBlock: UVAHIK_clean_linker_0, # of connection points: 2
#     Edge 89, Type (0, 0), BuildingBlock: UVAHIK_clean_linker_0, # of connection points: 2
#     Edge 90, Type (0, 0), BuildingBlock: UVAHIK_clean_linker_0, # of connection points: 2
#     Edge 91, Type (0, 0), BuildingBlock: UVAHIK_clean_linker_0, # of connection points: 2
#     Edge 92, Type (0, 0), BuildingBlock: UVAHIK_clean_linker_0, # of connection points: 2
#     Edge 93, Type (0, 0), BuildingBlock: UVAHIK_clean_linker_0, # of connection points: 2
#     Edge 94, Type (0, 0), BuildingBlock: UVAHIK_clean_linker_0, # of connection points: 2
#     Edge 95, Type (0, 0), BuildingBlock: UVAHIK_clean_linker_0, # of connection points: 2
#     Edge 96, Type (0, 0), BuildingBlock: UVAHIK_clean_linker_0, # of connection points: 2
#     Edge 97, Type (0, 0), BuildingBlock: UVAHIK_clean_linker_0, # of connection points: 2
#     Edge 98, Type (0, 0), BuildingBlock: UVAHIK_clean_linker_0, # of connection points: 2
#     Edge 99, Type (0, 0), BuildingBlock: UVAHIK_clean_linker_0, # of connection points: 2
#     Edge 100, Type (0, 0), BuildingBlock: UVAHIK_clean_linker_0, # of connection points: 2
#     Edge 101, Type (0, 0), BuildingBlock: UVAHIK_clean_linker_0, # of connection points: 2
#     Edge 102, Type (0, 0), BuildingBlock: UVAHIK_clean_linker_0, # of connection points: 2
#     Edge 103, Type (0, 0), BuildingBlock: UVAHIK_clean_linker_0, # of connection points: 2
#     Edge 104, Type (0, 0), BuildingBlock: UVAHIK_clean_linker_0, # of connection points: 2
#     Edge 105, Type (0, 0), BuildingBlock: UVAHIK_clean_linker_0, # of connection points: 2
#     Edge 106, Type (0, 0), BuildingBlock: UVAHIK_clean_linker_0, # of connection points: 2
#     Edge 107, Type (0, 0), BuildingBlock: UVAHIK_clean_linker_0, # of connection points: 2
#     Edge 108, Type (0, 0), BuildingBlock: UVAHIK_clean_linker_0, # of connection points: 2
#     Edge 109, Type (0, 0), BuildingBlock: UVAHIK_clean_linker_0, # of connection points: 2
#     Edge 110, Type (0, 0), BuildingBlock: UVAHIK_clean_linker_0, # of connection points: 2
#     Edge 111, Type (0, 0), BuildingBlock: UVAHIK_clean_linker_0, # of connection points: 2
#     Edge 112, Type (0, 0), BuildingBlock: UVAHIK_clean_linker_0, # of connection points: 2
#     Edge 113, Type (0, 0), BuildingBlock: UVAHIK_clean_linker_0, # of connection points: 2
#     Edge 114, Type (0, 0), BuildingBlock: UVAHIK_clean_linker_0, # of connection points: 2
#     Edge 115, Type (0, 0), BuildingBlock: UVAHIK_clean_linker_0, # of connection points: 2
#     Edge 116, Type (0, 0), BuildingBlock: UVAHIK_clean_linker_0, # of connection points: 2
#     Edge 117, Type (0, 0), BuildingBlock: UVAHIK_clean_linker_0, # of connection points: 2
#     Edge 118, Type (0, 0), BuildingBlock: UVAHIK_clean_linker_0, # of connection points: 2
#     Edge 119, Type (0, 0), BuildingBlock: UVAHIK_clean_linker_0, # of connection points: 2
#     Edge 120, Type (0, 0), BuildingBlock: UVAHIK_clean_linker_0, # of connection points: 2
#     Edge 121, Type (0, 0), BuildingBlock: UVAHIK_clean_linker_0, # of connection points: 2
#     Edge 122, Type (0, 0), BuildingBlock: UVAHIK_clean_linker_0, # of connection points: 2
#     Edge 123, Type (0, 0), BuildingBlock: UVAHIK_clean_linker_0, # of connection points: 2
#     Edge 124, Type (0, 0), BuildingBlock: UVAHIK_clean_linker_0, # of connection points: 2
#     Edge 125, Type (0, 0), BuildingBlock: UVAHIK_clean_linker_0, # of connection points: 2
#     Edge 126, Type (0, 0), BuildingBlock: UVAHIK_clean_linker_0, # of connection points: 2
#     Edge 127, Type (0, 0), BuildingBlock: UVAHIK_clean_linker_0, # of connection points: 2
#     Edge 128, Type (0, 0), BuildingBlock: UVAHIK_clean_linker_0, # of connection points: 2
#     Edge 129, Type (0, 0), BuildingBlock: UVAHIK_clean_linker_0, # of connection points: 2
#     Edge 130, Type (0, 0), BuildingBlock: UVAHIK_clean_linker_0, # of connection points: 2
#     Edge 131, Type (0, 0), BuildingBlock: UVAHIK_clean_linker_0, # of connection points: 2
#     Edge 132, Type (0, 0), BuildingBlock: UVAHIK_clean_linker_0, # of connection points: 2
#     Edge 133, Type (0, 0), BuildingBlock: UVAHIK_clean_linker_0, # of connection points: 2
#     Edge 134, Type (0, 0), BuildingBlock: UVAHIK_clean_linker_0, # of connection points: 2
#     Edge 135, Type (0, 0), BuildingBlock: UVAHIK_clean_linker_0, # of connection points: 2
#     Edge 136, Type (0, 0), BuildingBlock: UVAHIK_clean_linker_0, # of connection points: 2
#     Edge 137, Type (0, 0), BuildingBlock: UVAHIK_clean_linker_0, # of connection points: 2
#     Edge 138, Type (0, 0), BuildingBlock: UVAHIK_clean_linker_0, # of connection points: 2
#     Edge 139, Type (0, 0), BuildingBlock: UVAHIK_clean_linker_0, # of connection points: 2
#     Edge 140, Type (0, 0), BuildingBlock: UVAHIK_clean_linker_0, # of connection points: 2
#     Edge 141, Type (0, 0), BuildingBlock: UVAHIK_clean_linker_0, # of connection points: 2
#     Edge 142, Type (0, 0), BuildingBlock: UVAHIK_clean_linker_0, # of connection points: 2
#     Edge 143, Type (0, 0), BuildingBlock: UVAHIK_clean_linker_0, # of connection points: 2
# Relax obj value: 0.155
# Max RMSD: 0.192
# Mean RMSD: 0.192
data_MOF--net-wmt--node1-GEDQOX_clean_sbu_0--edge1-UVAHIK_clean_linker_0
_symmetry_space_group_name_H-M    P1
_symmetry_Int_Tables_number       1
_symmetry_cell_setting            triclinic
loop_
_symmetry_equiv_pos_as_xyz
'x, y, z'
_cell_length_a     107.68749
_cell_length_b     107.65443
_cell_length_c     44.473179
_cell_angle_alpha  90.028233
_cell_angle_beta   90.039696
_cell_angle_gamma 120.0016
loop_
_atom_site_label
_atom_site_type_symbol
_atom_site_fract_x
_atom_site_fract_y
_atom_site_fract_z
_atom_type_partial_charge
Nd0 Nd 0.04238 0.48853 0.08436 0.0
Nd1 Nd 0.06645 0.50893 0.04067 0.0
C2 C 0.02055 0.47317 0.12128 0.0
C3 C 0.01774 0.47033 0.15421 0.0
C4 C 0.01853 0.48085 0.17423 0.0
C5 C 0.01534 0.47774 0.20492 0.0
C6 C 0.01124 0.46403 0.21652 0.0
C7 C 0.01058 0.45358 0.19639 0.0
C8 C 0.01372 0.45668 0.16576 0.0
C9 C 0.06526 0.484 0.07954 0.0
C10 C 0.06961 0.51631 0.11312 0.0
C11 C 0.08805 0.52467 1.00385 0.0
C12 C 0.08897 0.52857 0.9715 0.0
C13 C 0.08113 0.51819 0.94944 0.0
C14 C 0.08143 0.52217 0.91929 0.0
C15 C 0.08945 0.53666 0.91036 0.0
C16 C 0.09741 0.54698 0.93254 0.0
C17 C 0.09717 0.54298 0.96266 0.0
C18 C 0.04483 0.51527 0.04876 0.0
C19 C 0.03756 0.48258 1.01144 0.0
O20 O 0.02372 0.48583 0.11105 0.0
O21 O 0.02793 0.46808 0.10805 0.0
O22 O 0.05858 0.48289 0.10449 0.0
O23 O 0.0595 0.48682 0.05794 0.0
O24 O 0.05569 0.50741 0.11516 0.0
O25 O 0.07688 0.51724 0.0882 0.0
O26 O 0.08391 0.51129 1.01037 0.0
O27 O 0.08232 0.53011 0.0216 0.0
O28 O 0.05096 0.5162 0.02314 0.0
O29 O 0.05027 0.51102 0.06835 0.0
O30 O 0.05141 0.49157 1.00771 0.0
O31 O 0.03128 0.4808 0.03798 0.0
H32 H 0.0215 0.49148 0.16621 0.0
H33 H 0.01582 0.48605 0.21943 0.0
H34 H 0.00772 0.44298 0.20431 0.0
H35 H 0.01295 0.44831 0.151 0.0
H36 H 0.07461 0.50699 0.95548 0.0
H37 H 0.07534 0.51383 0.90298 0.0
H38 H 0.10355 0.55825 0.92684 0.0
H39 H 0.10321 0.55121 0.97923 0.0
Nd40 Nd 0.51718 0.55873 0.08128 0.0
Nd41 Nd 0.4974 0.56598 0.0456 0.0
C42 C 0.52841 0.54828 0.12007 0.0
C43 C 0.52867 0.5461 0.15307 0.0
C44 C 0.51601 0.53881 0.17013 0.0
C45 C 0.51662 0.5367 0.20116 0.0
C46 C 0.5299 0.54188 0.21594 0.0
C47 C 0.54252 0.54923 0.19874 0.0
C48 C 0.5419 0.55127 0.16776 0.0
C49 C 0.52698 0.58743 0.07471 0.0
C50 C 0.49009 0.55881 0.11534 0.0
C51 C 0.48629 0.57672 1.00764 0.0
C52 C 0.48213 0.57449 0.97536 0.0
C53 C 0.49237 0.5782 0.95238 0.0
C54 C 0.4881 0.57535 0.92219 0.0
C55 C 0.47349 0.56865 0.91416 0.0
C56 C 0.46332 0.56513 0.93723 0.0
C57 C 0.46759 0.56808 0.96736 0.0
C58 C 0.48871 0.53728 0.04666 0.0
C59 C 0.52295 0.56239 1.00991 0.0
O60 O 0.51635 0.54033 0.10567 0.0
O61 O 0.53522 0.56152 0.1104 0.0
O62 O 0.53508 0.58172 0.07292 0.0
O63 O 0.51417 0.57819 0.08083 0.0
O64 O 0.49833 0.55303 0.11318 0.0
O65 O 0.48953 0.56682 0.09345 0.0
O66 O 0.5 0.58316 1.01418 0.0
O67 O 0.47852 0.56596 0.0256 0.0
O68 O 0.47973 0.54198 0.04707 0.0
O69 O 0.50126 0.54751 0.04448 0.0
O70 O 0.51446 0.5681 1.01003 0.0
O71 O 0.52458 0.55637 0.03444 0.0
H72 H 0.50563 0.53475 0.15956 0.0
H73 H 0.50668 0.53114 0.21364 0.0
H74 H 0.55293 0.55321 0.20913 0.0
H75 H 0.55182 0.55686 0.15519 0.0
H76 H 0.50368 0.5832 0.95768 0.0
H77 H 0.4963 0.57845 0.90514 0.0
H78 H 0.45197 0.55977 0.93218 0.0
H79 H 0.45946 0.56509 0.98454 0.0
Nd80 Nd 0.43279 0.94451 0.0814 0.0
Nd81 Nd 0.42731 0.91972 0.0363 0.0
C82 C 0.44197 0.96716 0.11735 0.0
C83 C 0.44331 0.97013 0.15012 0.0
C84 C 0.45446 0.98324 0.16096 0.0
C85 C 0.45607 0.9862 0.1919 0.0
C86 C 0.44653 0.97611 0.21281 0.0
C87 C 0.43538 0.96293 0.2018 0.0
C88 C 0.43382 0.95995 0.17083 0.0
C89 C 0.40466 0.92318 0.07461 0.0
C90 C 0.42946 0.91564 0.10977 0.0
C91 C 0.41964 0.89747 1.00044 0.0
C92 C 0.42255 0.89567 0.96856 0.0
C93 C 0.41851 0.90154 0.94478 0.0
C94 C 0.4223 0.90059 0.91507 0.0
C95 C 0.43034 0.89389 0.90852 0.0
C96 C 0.43411 0.88778 0.93225 0.0
C97 C 0.43019 0.8886 0.96187 0.0
C98 C 0.45515 0.94154 0.04072 0.0
C99 C 0.43133 0.9495 1.00838 0.0
O100 O 0.45035 0.96279 0.10616 0.0
O101 O 0.42901 0.9603 0.10598 0.0
O102 O 0.4101 0.92956 0.1 0.0
O103 O 0.41377 0.92857 0.05385 0.0
O104 O 0.43531 0.92959 0.11315 0.0
O105 O 0.42417 0.90909 0.08364 0.0
O106 O 0.41141 0.90299 1.00577 0.0
O107 O 0.43066 0.90236 1.01867 0.0
O108 O 0.44952 0.93468 1.01591 0.0
O109 O 0.44632 0.93599 0.062 0.0
O110 O 0.42584 0.93555 1.00392 0.0
O111 O 0.43582 0.95549 0.03522 0.0
H112 H 0.46196 0.99122 0.14544 0.0
H113 H 0.4647 0.9965 0.19939 0.0
H114 H 0.42796 0.95481 0.21716 0.0
H115 H 0.42524 0.94967 0.16309 0.0
H116 H 0.41268 0.90714 0.94913 0.0
H117 H 0.41932 0.90549 0.89732 0.0
H118 H 0.44015 0.8824 0.92791 0.0
H119 H 0.4334 0.88393 0.9797 0.0
Nd120 Nd 0.4757 0.03813 0.66812 0.0
Nd121 Nd 0.49764 0.06406 0.70624 0.0
C122 C 0.46335 0.01655 0.6292 0.0
C123 C 0.46259 0.01393 0.5963 0.0
C124 C 0.47355 0.02333 0.57682 0.0
C125 C 0.47265 0.02054 0.54578 0.0
C126 C 0.46083 0.0082 0.53355 0.0
C127 C 0.44989 -0.00116 0.55325 0.0
C128 C 0.45075 0.0017 0.58419 0.0
C129 C 0.46855 0.05874 0.67863 0.0
C130 C 0.5033 0.06551 0.63474 0.0
C131 C 0.51064 0.08524 0.74547 0.0
C132 C 0.5157 0.08676 0.7771 0.0
C133 C 0.50609 0.08213 0.8015 0.0
C134 C 0.51111 0.08326 0.83106 0.0
C135 C 0.52583 0.08895 0.83685 0.0
C136 C 0.53541 0.09377 0.81248 0.0
C137 C 0.53042 0.09276 0.78304 0.0
C138 C 0.50344 0.042 0.70188 0.0
C139 C 0.47019 0.03571 0.73983 0.0
O140 O 0.47562 0.02041 0.64248 0.0
O141 O 0.45712 0.02348 0.63941 0.0
O142 O 0.45923 0.04512 0.6778 0.0
O143 O 0.481 0.06122 0.67222 0.0
O144 O 0.49351 0.05177 0.63438 0.0
O145 O 0.50597 0.07346 0.65918 0.0
O146 O 0.49677 0.07863 0.74058 0.0
O147 O 0.5175 0.08192 0.72567 0.0
O148 O 0.51342 0.05534 0.70343 0.0
O149 O 0.49142 0.04102 0.7042 0.0
O150 O 0.47983 0.04965 0.74088 0.0
O151 O 0.46778 0.02824 0.71468 0.0
H152 H 0.48285 0.03276 0.58562 0.0
H153 H 0.48136 0.02791 0.53146 0.0
H154 H 0.44053 0.98935 0.54471 0.0
H155 H 0.44216 0.9943 0.59873 0.0
H156 H 0.49467 0.07748 0.79781 0.0
H157 H 0.50345 0.07938 0.84934 0.0
H158 H 0.54683 0.09839 0.8162 0.0
H159 H 0.53812 0.09657 0.7648 0.0
Nd160 Nd 0.95113 0.41519 0.67006 0.0
Nd161 Nd 0.93114 0.42208 0.70926 0.0
C162 C 0.96635 0.41285 0.6256 0.0
C163 C 0.97008 0.41777 0.59392 0.0
C164 C 0.97235 0.43121 0.58437 0.0
C165 C 0.97557 0.43543 0.55412 0.0
C166 C 0.97652 0.42629 0.53264 0.0
C167 C 0.97424 0.41286 0.54245 0.0
C168 C 0.97108 0.40868 0.57263 0.0
C169 C 0.92814 0.39207 0.69567 0.0
C170 C 0.93027 0.42577 0.63663 0.0
C171 C 0.91138 0.42241 0.74399 0.0
C172 C 0.91072 0.4261 0.77589 0.0
C173 C 0.91852 0.42373 0.79832 0.0
C174 C 0.91783 0.42727 0.8284 0.0
C175 C 0.90942 0.43337 0.83685 0.0
C176 C 0.90172 0.43581 0.81416 0.0
C177 C 0.90236 0.4322 0.7841 0.0
C178 C 0.95899 0.44383 0.70495 0.0
C179 C 0.9555 0.4172 0.74248 0.0
O180 O 0.97198 0.42253 0.64687 0.0
O181 O 0.95293 0.40335 0.63084 0.0
O182 O 0.94084 0.39358 0.69385 0.0
O183 O 0.92765 0.40244 0.68352 0.0
O184 O 0.94073 0.42278 0.63523 0.0
O185 O 0.92399 0.42554 0.66239 0.0
O186 O 0.91227 0.41084 0.73911 0.0
O187 O 0.91969 0.43307 0.7262 0.0
O188 O 0.95113 0.44205 0.72837 0.0
O189 O 0.95173 0.43535 0.68416 0.0
O190 O 0.94219 0.41483 0.74398 0.0
O191 O 0.96211 0.41897 0.71636 0.0
H192 H 0.97152 0.4384 0.60023 0.0
H193 H 0.97706 0.44576 0.54748 0.0
H194 H 0.97507 0.40559 0.52682 0.0
H195 H 0.96938 0.39827 0.57937 0.0
H196 H 0.92512 0.41911 0.7926 0.0
H197 H 0.92378 0.42504 0.84507 0.0
H198 H 0.89533 0.44071 0.8195 0.0
H199 H 0.89635 0.43423 0.76719 0.0
Nd200 Nd 0.56035 0.50617 0.66865 0.0
Nd201 Nd 0.56739 0.48834 0.71473 0.0
C202 C 0.54873 0.51637 0.63039 0.0
C203 C 0.54711 0.51742 0.59736 0.0
C204 C 0.53336 0.51186 0.58475 0.0
C205 C 0.53162 0.51332 0.5539 0.0
C206 C 0.5436 0.52044 0.53483 0.0
C207 C 0.55736 0.52584 0.54748 0.0
C208 C 0.55909 0.52434 0.57829 0.0
C209 C 0.58868 0.51762 0.68322 0.0
C210 C 0.57135 0.48549 0.64155 0.0
C211 C 0.57637 0.4762 0.7543 0.0
C212 C 0.57248 0.47256 0.78623 0.0
C213 C 0.57736 0.4647 0.80262 0.0
C214 C 0.57277 0.4605 0.83236 0.0
C215 C 0.56315 0.46403 0.84611 0.0
C216 C 0.55857 0.47218 0.82966 0.0
C217 C 0.56314 0.47634 0.80009 0.0
C218 C 0.53958 0.47611 0.69612 0.0
C219 C 0.55615 0.50925 0.74153 0.0
O220 O 0.54154 0.50361 0.64258 0.0
O221 O 0.56155 0.52415 0.64205 0.0
O222 O 0.58427 0.5188 0.65672 0.0
O223 O 0.57837 0.51155 0.70143 0.0
O224 O 0.56391 0.49197 0.63646 0.0
O225 O 0.57538 0.48401 0.66903 0.0
O226 O 0.58359 0.4899 0.74784 0.0
O227 O 0.56599 0.4689 0.73515 0.0
O228 O 0.54291 0.47515 0.72373 0.0
O229 O 0.55054 0.48295 0.68028 0.0
O230 O 0.56297 0.50217 0.74713 0.0
O231 O 0.55275 0.511 0.71378 0.0
H232 H 0.52393 0.50652 0.59888 0.0
H233 H 0.52088 0.50918 0.54513 0.0
H234 H 0.56683 0.5312 0.5335 0.0
H235 H 0.56985 0.5287 0.58716 0.0
H236 H 0.58451 0.46159 0.79228 0.0
H237 H 0.57644 0.45415 0.84424 0.0
H238 H 0.55138 0.47534 0.83959 0.0
H239 H 0.55917 0.48234 0.78784 0.0
Nd240 Nd 0.9264 0.49529 0.2088 0.0
Nd241 Nd 0.94679 0.51897 0.16389 0.0
C242 C 0.90721 0.47639 0.24646 0.0
C243 C 0.90776 0.47358 0.27884 0.0
C244 C 0.89553 0.46308 0.29381 0.0
C245 C 0.89629 0.45996 0.32419 0.0
C246 C 0.90933 0.46723 0.34012 0.0
C247 C 0.92149 0.47794 0.32505 0.0
C248 C 0.9207 0.48109 0.2948 0.0
C249 C 0.95268 0.49769 0.1999 0.0
C250 C 0.95158 0.52512 0.23725 0.0
C251 C 0.96713 0.5373 0.12697 0.0
C252 C 0.97024 0.53909 0.094 0.0
C253 C 0.97966 0.53505 0.08121 0.0
C254 C 0.983 0.53707 0.05044 0.0
C255 C 0.97703 0.54322 0.0315 0.0
C256 C 0.9676 0.54724 0.04434 0.0
C257 C 0.96428 0.54524 0.07512 0.0
C258 C 0.9208 0.51751 0.17385 0.0
C259 C 0.92277 0.48907 0.13515 0.0
O260 O 0.90785 0.48854 0.23959 0.0
O261 O 0.9153 0.47358 0.22905 0.0
O262 O 0.94656 0.49515 0.22603 0.0
O263 O 0.94468 0.49836 0.18015 0.0
O264 O 0.93871 0.51386 0.24164 0.0
O265 O 0.95743 0.5286 0.21007 0.0
O266 O 0.96755 0.52672 0.14038 0.0
O267 O 0.95675 0.53915 0.13713 0.0
O268 O 0.92711 0.52013 0.14788 0.0
O269 O 0.92846 0.51622 0.19366 0.0
O270 O 0.93553 0.50043 0.1314 0.0
O271 O 0.91625 0.4856 0.16179 0.0
H272 H 0.88545 0.45715 0.28189 0.0
H273 H 0.88675 0.45158 0.33496 0.0
H274 H 0.93165 0.48392 0.33667 0.0
H275 H 0.93026 0.48929 0.28373 0.0
H276 H 0.98457 0.53039 0.09503 0.0
H277 H 0.99047 0.53402 0.04164 0.0
H278 H 0.96262 0.55184 0.03055 0.0
H279 H 0.95704 0.54856 0.08409 0.0
Nd280 Nd 0.5008 0.42869 0.21306 0.0
Nd281 Nd 0.47567 0.42899 0.1783 0.0
C282 C 0.51576 0.4233 0.25305 0.0
C283 C 0.52022 0.42704 0.28472 0.0
C284 C 0.52424 0.41863 0.30165 0.0
C285 C 0.52915 0.42246 0.33127 0.0
C286 C 0.53022 0.43486 0.34445 0.0
C287 C 0.52589 0.44309 0.32753 0.0
C288 C 0.52088 0.43919 0.29801 0.0
C289 C 0.50807 0.45394 0.18499 0.0
C290 C 0.47833 0.43703 0.2487 0.0
C291 C 0.4582 0.43114 0.13888 0.0
C292 C 0.45677 0.43301 0.10619 0.0
C293 C 0.45065 0.4412 0.09666 0.0
C294 C 0.44887 0.44287 0.06595 0.0
C295 C 0.4533 0.4365 0.04387 0.0
C296 C 0.45932 0.42818 0.05357 0.0
C297 C 0.46098 0.42642 0.08434 0.0
C298 C 0.4694 0.40393 0.20654 0.0
C299 C 0.50039 0.42532 0.14121 0.0
O300 O 0.50207 0.41461 0.24808 0.0
O301 O 0.52153 0.43387 0.23375 0.0
O302 O 0.51712 0.44949 0.18965 0.0
O303 O 0.4964 0.44594 0.19839 0.0
O304 O 0.48828 0.43318 0.25018 0.0
O305 O 0.47259 0.43768 0.22284 0.0
O306 O 0.46814 0.44211 0.15377 0.0
O307 O 0.45697 0.41896 0.14752 0.0
O308 O 0.4609 0.40924 0.20655 0.0
O309 O 0.48058 0.41159 0.19147 0.0
O310 O 0.49077 0.42953 0.14127 0.0
O311 O 0.50475 0.42205 0.16636 0.0
H312 H 0.52379 0.4092 0.29181 0.0
H313 H 0.53248 0.41594 0.34358 0.0
H314 H 0.52635 0.45256 0.33714 0.0
H315 H 0.5177 0.44576 0.28544 0.0
H316 H 0.44727 0.44635 0.11304 0.0
H317 H 0.4444 0.44952 0.05952 0.0
H318 H 0.46267 0.42293 0.03739 0.0
H319 H 0.46552 0.41986 0.09104 0.0
Nd320 Nd 0.56499 0.06951 0.20436 0.0
Nd321 Nd 0.55721 0.04222 0.16654 0.0
C322 C 0.57505 0.0895 0.24669 0.0
C323 C 0.57148 0.08938 0.27875 0.0
C324 C 0.5789 0.10177 0.29642 0.0
C325 C 0.57491 0.1018 0.32643 0.0
C326 C 0.5634 0.08944 0.33927 0.0
C327 C 0.55622 0.07697 0.32151 0.0
C328 C 0.56018 0.07697 0.29158 0.0
C329 C 0.53775 0.05566 0.18287 0.0
C330 C 0.55226 0.03728 0.23759 0.0
C331 C 0.5478 0.02172 0.12495 0.0
C332 C 0.54762 0.01961 0.09173 0.0
C333 C 0.53694 0.01967 0.07356 0.0
C334 C 0.53617 0.01661 0.04271 0.0
C335 C 0.54595 0.01327 0.02916 0.0
C336 C 0.55675 0.0134 0.04725 0.0
C337 C 0.55753 0.01647 0.07811 0.0
C338 C 0.58493 0.0575 0.18719 0.0
C339 C 0.56662 0.07313 0.13245 0.0
O340 O 0.58122 0.08207 0.23941 0.0
O341 O 0.56495 0.08764 0.22779 0.0
O342 O 0.54509 0.06946 0.18637 0.0
O343 O 0.54439 0.04967 0.19309 0.0
O344 O 0.55946 0.05149 0.23979 0.0
O345 O 0.54846 0.03077 0.21123 0.0
O346 O 0.54003 0.02691 0.13592 0.0
O347 O 0.56003 0.02654 0.13907 0.0
O348 O 0.57758 0.04357 0.18676 0.0
O349 O 0.57785 0.0628 0.1762 0.0
O350 O 0.56003 0.05899 0.13126 0.0
O351 O 0.57157 0.08036 0.15795 0.0
H352 H 0.58761 0.11148 0.28686 0.0
H353 H 0.58059 0.11163 0.3393 0.0
H354 H 0.54748 0.06717 0.33069 0.0
H355 H 0.55425 0.06732 0.2783 0.0
H356 H 0.52905 0.0219 0.08326 0.0
H357 H 0.52791 0.01687 0.02938 0.0
H358 H 0.56438 0.01074 0.03774 0.0
H359 H 0.56577 0.01611 0.09143 0.0
Nd360 Nd 0.48978 0.91854 0.54137 0.0
Nd361 Nd 0.51383 0.94401 0.57784 0.0
C362 C 0.47586 0.89851 0.50013 0.0
C363 C 0.47232 0.89812 0.46796 0.0
C364 C 0.4676 0.88546 0.4514 0.0
C365 C 0.46363 0.88478 0.42118 0.0
C366 C 0.46426 0.89676 0.40696 0.0
C367 C 0.46927 0.90953 0.42358 0.0
C368 C 0.47328 0.91021 0.45376 0.0
C369 C 0.48121 0.93527 0.57037 0.0
C370 C 0.51126 0.95023 0.50789 0.0
C371 C 0.53029 0.96364 0.61827 0.0
C372 C 0.53142 0.96668 0.65099 0.0
C373 C 0.53899 0.98096 0.66093 0.0
C374 C 0.54043 0.9842 0.69171 0.0
C375 C 0.53421 0.97323 0.71336 0.0
C376 C 0.52667 0.95888 0.70335 0.0
C377 C 0.52533 0.95564 0.67247 0.0
C378 C 0.5216 0.92648 0.54875 0.0
C379 C 0.48968 0.91457 0.61292 0.0
O380 O 0.48938 0.90342 0.50677 0.0
O381 O 0.4696 0.90322 0.51841 0.0
O382 O 0.47273 0.92164 0.56573 0.0
O383 O 0.49303 0.9396 0.55712 0.0
O384 O 0.50192 0.93629 0.50542 0.0
O385 O 0.51665 0.95632 0.53416 0.0
O386 O 0.52002 0.96409 0.60347 0.0
O387 O 0.53228 0.95319 0.60934 0.0
O388 O 0.52955 0.94036 0.54965 0.0
O389 O 0.51016 0.92228 0.56334 0.0
O390 O 0.49891 0.92849 0.61404 0.0
O391 O 0.48571 0.90736 0.58724 0.0
H392 H 0.46679 0.87601 0.46199 0.0
H393 H 0.45972 0.87475 0.40917 0.0
H394 H 0.47009 0.91903 0.41324 0.0
H395 H 0.47697 0.92013 0.4661 0.0
H396 H 0.54379 0.98965 0.64481 0.0
H397 H 0.54615 0.99536 0.69854 0.0
H398 H 0.52181 0.95017 0.71939 0.0
H399 H 0.51948 0.94454 0.66536 0.0
Nd400 Nd 0.06592 0.57928 0.54033 0.0
Nd401 Nd 0.04224 0.57894 0.58144 0.0
C402 C 0.08784 0.58409 0.50562 0.0
C403 C 0.08931 0.58135 0.47337 0.0
C404 C 0.08477 0.58706 0.45021 0.0
C405 C 0.08533 0.58354 0.42007 0.0
C406 C 0.09032 0.57411 0.41221 0.0
C407 C 0.0951 0.56862 0.43545 0.0
C408 C 0.09464 0.57224 0.46558 0.0
C409 C 0.04334 0.5526 0.55288 0.0
C410 C 0.0372 0.57584 0.5076 0.0
C411 C 0.02068 0.57466 0.61715 0.0
C412 C 0.01718 0.57147 0.64951 0.0
C413 C 0.02354 0.5653 0.6671 0.0
C414 C 0.02039 0.56274 0.6979 0.0
C415 C 0.01086 0.56634 0.7119 0.0
C416 C 0.00448 0.57244 0.69402 0.0
C417 C 0.00761 0.57498 0.66326 0.0
C418 C 0.06583 0.60534 0.57038 0.0
C419 C 0.06779 0.57635 0.61404 0.0
O420 O 0.08451 0.59397 0.51195 0.0
O421 O 0.08105 0.57272 0.5226 0.0
O422 O 0.05017 0.55578 0.52745 0.0
O423 O 0.04912 0.56312 0.57044 0.0
O424 O 0.05072 0.57918 0.50416 0.0
O425 O 0.03133 0.57439 0.53456 0.0
O426 O 0.02066 0.56457 0.60071 0.0
O427 O 0.0314 0.58738 0.61075 0.0
O428 O 0.05953 0.60153 0.5963 0.0
O429 O 0.05939 0.59556 0.55123 0.0
O430 O 0.0541 0.57257 0.61473 0.0
O431 O 0.07554 0.58165 0.58907 0.0
H432 H 0.08057 0.59411 0.45534 0.0
H433 H 0.08179 0.58822 0.40292 0.0
H434 H 0.09883 0.56118 0.43055 0.0
H435 H 0.09815 0.56762 0.48293 0.0
H436 H 0.03102 0.56257 0.65708 0.0
H437 H 0.02566 0.55818 0.71086 0.0
H438 H -0.00307 0.57517 0.70372 0.0
H439 H 0.00257 0.57975 0.65018 0.0
Nd440 Nd 0.42895 0.50265 0.54842 0.0
Nd441 Nd 0.43136 0.48172 0.59356 0.0
C442 C 0.42375 0.51844 0.51046 0.0
C443 C 0.42699 0.52156 0.47814 0.0
C444 C 0.42222 0.52964 0.46226 0.0
C445 C 0.42569 0.53289 0.43176 0.0
C446 C 0.43405 0.52814 0.41653 0.0
C447 C 0.43873 0.51998 0.4327 0.0
C448 C 0.43521 0.5167 0.46307 0.0
C449 C 0.45597 0.50683 0.55725 0.0
C450 C 0.43194 0.47648 0.52026 0.0
C451 C 0.43777 0.46607 0.62987 0.0
C452 C 0.43845 0.46378 0.66255 0.0
C453 C 0.43434 0.47064 0.68393 0.0
C454 C 0.43549 0.46867 0.71484 0.0
C455 C 0.44085 0.45984 0.72506 0.0
C456 C 0.44491 0.45299 0.70339 0.0
C457 C 0.44371 0.45493 0.67256 0.0
C458 C 0.40409 0.47718 0.58474 0.0
C459 C 0.43075 0.50896 0.62178 0.0
O460 O 0.41421 0.50518 0.51728 0.0
O461 O 0.43492 0.52373 0.52829 0.0
O462 O 0.45137 0.50823 0.53123 0.0
O463 O 0.44654 0.50388 0.57698 0.0
O464 O 0.42702 0.48538 0.51574 0.0
O465 O 0.43545 0.47422 0.54749 0.0
O466 O 0.44722 0.47866 0.6195 0.0
O467 O 0.42506 0.46136 0.61799 0.0
O468 O 0.40901 0.47593 0.6105 0.0
O469 O 0.41334 0.48025 0.56438 0.0
O470 O 0.43491 0.49947 0.62578 0.0
O471 O 0.4265 0.51114 0.59518 0.0
H472 H 0.41584 0.53347 0.47346 0.0
H473 H 0.42171 0.53901 0.42007 0.0
H474 H 0.44537 0.51631 0.42208 0.0
H475 H 0.43905 0.51048 0.47491 0.0
H476 H 0.43035 0.47762 0.67672 0.0
H477 H 0.43242 0.47427 0.73072 0.0
H478 H 0.44889 0.44596 0.71023 0.0
H479 H 0.44693 0.44951 0.6565 0.0
Nd480 Nd 0.70796 0.81776 0.41313 0.0
Nd481 Nd 0.73599 0.83573 0.37523 0.0
C482 C 0.68674 0.80879 0.45291 0.0
C483 C 0.68348 0.80541 0.48521 0.0
C484 C 0.66917 0.79868 0.49481 0.0
C485 C 0.66575 0.79596 0.52538 0.0
C486 C 0.67657 0.79997 0.54725 0.0
C487 C 0.69094 0.80642 0.53738 0.0
C488 C 0.69434 0.80915 0.50669 0.0
C489 C 0.72234 0.8037 0.3966 0.0
C490 C 0.73911 0.83771 0.44787 0.0
C491 C 0.75631 0.84399 0.33403 0.0
C492 C 0.75701 0.84818 0.30226 0.0
C493 C 0.76892 0.85112 0.28447 0.0
C494 C 0.7698 0.85578 0.25468 0.0
C495 C 0.75879 0.85764 0.24229 0.0
C496 C 0.74674 0.85435 0.26013 0.0
C497 C 0.74587 0.84968 0.28977 0.0
C498 C 0.723 0.85057 0.39385 0.0
C499 C 0.70387 0.8174 0.3412 0.0
O500 O 0.69516 0.82227 0.44585 0.0
O501 O 0.68927 0.80009 0.43689 0.0
O502 O 0.70846 0.79743 0.39854 0.0
O503 O 0.72805 0.81654 0.4051 0.0
O504 O 0.72495 0.83079 0.44881 0.0
O505 O 0.74633 0.83966 0.42245 0.0
O506 O 0.74737 0.83049 0.34024 0.0
O507 O 0.75564 0.85276 0.35349 0.0
O508 O 0.73674 0.8565 0.38972 0.0
O509 O 0.71673 0.83771 0.3849 0.0
O510 O 0.71806 0.82373 0.33933 0.0
O511 O 0.69729 0.81532 0.36736 0.0
H512 H 0.6606 0.79567 0.47863 0.0
H513 H 0.65457 0.79078 0.53186 0.0
H514 H 0.69961 0.80987 0.55342 0.0
H515 H 0.70546 0.81443 0.49979 0.0
H516 H 0.77763 0.85003 0.29375 0.0
H517 H 0.77925 0.85829 0.24162 0.0
H518 H 0.73796 0.85542 0.25118 0.0
H519 H 0.73656 0.84742 0.30312 0.0
Nd520 Nd 0.17031 0.88366 0.41695 0.0
Nd521 Nd 0.15408 0.89519 0.37767 0.0
C522 C 0.17826 0.87099 0.4579 0.0
C523 C 0.18121 0.87114 0.49044 0.0
C524 C 0.17622 0.87732 0.51155 0.0
C525 C 0.17866 0.87672 0.54241 0.0
C526 C 0.18597 0.86972 0.55286 0.0
C527 C 0.19124 0.86389 0.53135 0.0
C528 C 0.18886 0.86458 0.5006 0.0
C529 C 0.18583 0.91199 0.40003 0.0
C530 C 0.15165 0.89677 0.44971 0.0
C531 C 0.14714 0.90831 0.33624 0.0
C532 C 0.14354 0.90567 0.30407 0.0
C533 C 0.13826 0.91343 0.28864 0.0
C534 C 0.13402 0.91028 0.25849 0.0
C535 C 0.13505 0.89936 0.24329 0.0
C536 C 0.14051 0.89174 0.25888 0.0
C537 C 0.14465 0.89483 0.28898 0.0
C538 C 0.13746 0.86762 0.39706 0.0
C539 C 0.17146 0.88001 0.34571 0.0
O540 O 0.16494 0.86628 0.44999 0.0
O541 O 0.18736 0.88204 0.44201 0.0
O542 O 0.19127 0.90363 0.40131 0.0
O543 O 0.173 0.90555 0.40858 0.0
O544 O 0.15766 0.88869 0.45143 0.0
O545 O 0.15049 0.90239 0.42408 0.0
O546 O 0.16043 0.91236 0.34355 0.0
O547 O 0.13783 0.89858 0.35445 0.0
O548 O 0.13248 0.87614 0.39144 0.0
O549 O 0.15036 0.87328 0.38851 0.0
O550 O 0.16625 0.88884 0.34327 0.0
O551 O 0.1723 0.87472 0.37192 0.0
H552 H 0.17024 0.88241 0.50422 0.0
H553 H 0.17429 0.88122 0.55809 0.0
H554 H 0.19719 0.85872 0.53822 0.0
H555 H 0.19285 0.85977 0.4847 0.0
H556 H 0.13725 0.92178 0.30001 0.0
H557 H 0.12995 0.9164 0.24707 0.0
H558 H 0.14123 0.8831 0.24806 0.0
H559 H 0.14846 0.88855 0.30065 0.0
Nd560 Nd 0.10328 0.28899 0.41594 0.0
Nd561 Nd 0.1012 0.26473 0.37299 0.0
C562 C 0.10991 0.3115 0.45088 0.0
C563 C 0.1112 0.31486 0.4836 0.0
C564 C 0.12353 0.327 0.49455 0.0
C565 C 0.12503 0.33045 0.52527 0.0
C566 C 0.11422 0.32181 0.54597 0.0
C567 C 0.10189 0.30958 0.53489 0.0
C568 C 0.10041 0.30613 0.50414 0.0
C569 C 0.07622 0.26595 0.40713 0.0
C570 C 0.10314 0.26187 0.44697 0.0
C571 C 0.09559 0.24238 0.33895 0.0
C572 C 0.09712 0.24054 0.30653 0.0
C573 C 0.09526 0.24907 0.28517 0.0
C574 C 0.09799 0.24819 0.25475 0.0
C575 C 0.10282 0.23888 0.245 0.0
C576 C 0.10434 0.2301 0.26643 0.0
C577 C 0.10152 0.23094 0.29689 0.0
C578 C 0.12789 0.28827 0.37939 0.0
C579 C 0.10284 0.29296 0.3421 0.0
O580 O 0.11945 0.30874 0.43949 0.0
O581 O 0.09705 0.3032 0.43985 0.0
O582 O 0.08058 0.27274 0.43253 0.0
O583 O 0.08574 0.27182 0.38727 0.0
O584 O 0.10704 0.27552 0.44962 0.0
O585 O 0.0991 0.25495 0.42086 0.0
O586 O 0.08584 0.24568 0.34667 0.0
O587 O 0.10762 0.24976 0.35377 0.0
O588 O 0.12329 0.28126 0.3543 0.0
O589 O 0.11872 0.28215 0.39988 0.0
O590 O 0.09866 0.2792 0.33851 0.0
O591 O 0.10623 0.29928 0.36888 0.0
H592 H 0.13209 0.33381 0.4793 0.0
H593 H 0.1348 0.3398 0.53281 0.0
H594 H 0.09324 0.30273 0.54992 0.0
H595 H 0.09079 0.29664 0.49647 0.0
H596 H 0.09196 0.25664 0.29206 0.0
H597 H 0.09648 0.25495 0.23889 0.0
H598 H 0.1082 0.22294 0.25987 0.0
H599 H 0.10315 0.22436 0.31305 0.0
Nd600 Nd 0.14063 0.38475 1.00048 0.0
Nd601 Nd 0.1667 0.4088 0.03562 0.0
C602 C 0.12375 0.36583 0.95939 0.0
C603 C 0.12407 0.36294 0.92688 0.0
C604 C 0.13621 0.37144 0.90915 0.0
C605 C 0.13629 0.3685 0.87838 0.0
C606 C 0.12426 0.35686 0.86475 0.0
C607 C 0.11214 0.3484 0.88273 0.0
C608 C 0.11205 0.35144 0.91337 0.0
C609 C 0.13606 0.40496 0.02737 0.0
C610 C 0.16712 0.41234 0.96418 0.0
C611 C 0.18294 0.4281 0.07641 0.0
C612 C 0.1864 0.42802 0.10855 0.0
C613 C 0.19171 0.44062 0.12562 0.0
C614 C 0.1956 0.44085 0.15578 0.0
C615 C 0.19434 0.42847 0.16944 0.0
C616 C 0.18874 0.41577 0.15235 0.0
C617 C 0.18476 0.41553 0.12226 0.0
C618 C 0.17111 0.38845 1.00891 0.0
C619 C 0.14188 0.37893 0.0711 0.0
O620 O 0.1324 0.36388 0.97687 0.0
O621 O 0.12319 0.37732 0.96651 0.0
O622 O 0.12653 0.39138 0.0265 0.0
O623 O 0.14733 0.40759 1.01345 0.0
O624 O 0.15678 0.39877 0.96413 0.0
O625 O 0.17189 0.41982 0.9894 0.0
O626 O 0.16985 0.42512 0.07008 0.0
O627 O 0.1877 0.42198 0.0579 0.0
O628 O 0.18111 0.40183 1.01099 0.0
O629 O 0.16005 0.38644 0.02255 0.0
O630 O 0.15267 0.39238 0.0726 0.0
O631 O 0.13591 0.37279 0.04519 0.0
H632 H 0.1457 0.38021 0.91917 0.0
H633 H 0.14589 0.37513 0.86546 0.0
H634 H 0.10262 0.33948 0.87305 0.0
H635 H 0.10255 0.34475 0.92657 0.0
H636 H 0.19304 0.45036 0.11548 0.0
H637 H 0.19997 0.45083 0.16818 0.0
H638 H 0.18742 0.40599 0.16227 0.0
H639 H 0.18054 0.40563 0.1096 0.0
Nd640 Nd 0.60931 0.76509 1.00191 0.0
Nd641 Nd 0.58366 0.76075 0.04166 0.0
C642 C 0.62888 0.77112 0.95956 0.0
C643 C 0.63161 0.77387 0.92676 0.0
C644 C 0.63112 0.78521 0.91209 0.0
C645 C 0.63434 0.78775 0.88127 0.0
C646 C 0.63808 0.779 0.8644 0.0
C647 C 0.63852 0.76769 0.87929 0.0
C648 C 0.63535 0.76519 0.90997 0.0
C649 C 0.59524 0.73962 0.0329 0.0
C650 C 0.57867 0.75691 0.96861 0.0
C651 C 0.56169 0.75215 0.07854 0.0
C652 C 0.56049 0.75639 0.10967 0.0
C653 C 0.55322 0.74585 0.13169 0.0
C654 C 0.553 0.74974 0.16171 0.0
C655 C 0.55999 0.76428 0.17033 0.0
C656 C 0.56711 0.7748 0.14811 0.0
C657 C 0.56742 0.77091 0.1182 0.0
C658 C 0.60185 0.78836 0.0243 0.0
C659 C 0.61543 0.77296 0.0722 0.0
O660 O 0.62851 0.78094 0.97642 0.0
O661 O 0.61945 0.75803 0.96763 0.0
O662 O 0.60908 0.74695 0.03 0.0
O663 O 0.58941 0.74564 0.01939 0.0
O664 O 0.59213 0.75997 0.96623 0.0
O665 O 0.57254 0.75617 0.99498 0.0
O666 O 0.56885 0.74532 0.07556 0.0
O667 O 0.56463 0.76172 0.05738 0.0
O668 O 0.59592 0.78521 0.05069 0.0
O669 O 0.59773 0.7773 1.00865 0.0
O670 O 0.60141 0.7647 0.0759 0.0
O671 O 0.62114 0.77675 0.04508 0.0
H672 H 0.6283 0.79213 0.92438 0.0
H673 H 0.63378 0.7965 0.87062 0.0
H674 H 0.6416 0.76088 0.86736 0.0
H675 H 0.63598 0.75649 0.92072 0.0
H676 H 0.5479 0.73458 0.12573 0.0
H677 H 0.54734 0.74137 0.17819 0.0
H678 H 0.57282 0.78608 0.15397 0.0
H679 H 0.57333 0.77929 0.10189 0.0
Nd680 Nd 0.22489 0.8436 1.00559 0.0
Nd681 Nd 0.23391 0.82441 0.04199 0.0
C682 C 0.21188 0.85245 0.96755 0.0
C683 C 0.20978 0.85319 0.93483 0.0
C684 C 0.20175 0.85934 0.92453 0.0
C685 C 0.19956 0.86012 0.89367 0.0
C686 C 0.20535 0.85476 0.87228 0.0
C687 C 0.21338 0.84855 0.88281 0.0
C688 C 0.21555 0.84777 0.91374 0.0
C689 C 0.25356 0.85577 1.01762 0.0
C690 C 0.23191 0.82066 0.96995 0.0
C691 C 0.24594 0.81544 0.08166 0.0
C692 C 0.24304 0.81186 0.11379 0.0
C693 C 0.25325 0.81115 0.13217 0.0
C694 C 0.25045 0.80788 0.1628 0.0
C695 C 0.23734 0.80518 0.17543 0.0
C696 C 0.2272 0.80601 0.15686 0.0
C697 C 0.23005 0.80937 0.12639 0.0
C698 C 0.20529 0.81262 0.03244 0.0
C699 C 0.22489 0.84644 0.07778 0.0
O700 O 0.20563 0.83964 0.97962 0.0
O701 O 0.22479 0.86082 0.9782 0.0
O702 O 0.24695 0.8631 1.01646 0.0
O703 O 0.24535 0.84287 1.0103 0.0
O704 O 0.22551 0.8284 0.97024 0.0
O705 O 0.23773 0.81862 0.99432 0.0
O706 O 0.25122 0.829 0.07487 0.0
O707 O 0.23577 0.80682 0.06318 0.0
O708 O 0.21136 0.80482 0.03366 0.0
O709 O 0.21396 0.82549 0.03836 0.0
O710 O 0.2313 0.8386 0.07862 0.0
O711 O 0.22008 0.84883 0.05233 0.0
H712 H 0.19719 0.86358 0.9404 0.0
H713 H 0.1935 0.86515 0.88658 0.0
H714 H 0.21785 0.84411 0.86717 0.0
H715 H 0.2217 0.84291 0.92121 0.0
H716 H 0.26337 0.81312 0.12285 0.0
H717 H 0.25845 0.80729 0.17653 0.0
H718 H 0.21713 0.80427 0.166 0.0
H719 H 0.22211 0.81007 0.11264 0.0
Nd720 Nd 0.5965 0.8271 0.54182 0.0
Nd721 Nd 0.62342 0.84796 0.50471 0.0
C722 C 0.57488 0.81565 0.58032 0.0
C723 C 0.5735 0.81123 0.61211 0.0
C724 C 0.56043 0.80618 0.62725 0.0
C725 C 0.5589 0.80129 0.65698 0.0
C726 C 0.5704 0.80128 0.67206 0.0
C727 C 0.58357 0.80662 0.65688 0.0
C728 C 0.58511 0.81157 0.62724 0.0
C729 C 0.6173 0.81956 0.53849 0.0
C730 C 0.62567 0.85339 0.57633 0.0
C731 C 0.64541 0.85932 0.46677 0.0
C732 C 0.64814 0.86004 0.43398 0.0
C733 C 0.66169 0.86314 0.42355 0.0
C734 C 0.66468 0.86433 0.39265 0.0
C735 C 0.65416 0.86245 0.37136 0.0
C736 C 0.6405 0.85911 0.38199 0.0
C737 C 0.63752 0.85791 0.41293 0.0
C738 C 0.60394 0.85682 0.51367 0.0
C739 C 0.59569 0.82125 0.47033 0.0
O740 O 0.5824 0.82946 0.57502 0.0
O741 O 0.57775 0.80808 0.56147 0.0
O742 O 0.6038 0.81006 0.54067 0.0
O743 O 0.61902 0.83188 0.54061 0.0
O744 O 0.61155 0.84443 0.57696 0.0
O745 O 0.63317 0.8553 0.55147 0.0
O746 O 0.64075 0.84685 0.47974 0.0
O747 O 0.63906 0.86617 0.47683 0.0
O748 O 0.61773 0.86543 0.51348 0.0
O749 O 0.60073 0.84412 0.50737 0.0
O750 O 0.60967 0.83008 0.47127 0.0
O751 O 0.58746 0.81939 0.49398 0.0
H752 H 0.55134 0.80582 0.61593 0.0
H753 H 0.54858 0.79715 0.66788 0.0
H754 H 0.59271 0.80697 0.66792 0.0
H755 H 0.59532 0.8155 0.61597 0.0
H756 H 0.67004 0.86481 0.43936 0.0
H757 H 0.67535 0.86705 0.38552 0.0
H758 H 0.63204 0.85734 0.36638 0.0
H759 H 0.62694 0.85539 0.42042 0.0
Nd760 Nd 0.17133 0.77676 0.54153 0.0
Nd761 Nd 0.15218 0.78376 0.49945 0.0
C762 C 0.1843 0.76641 0.57496 0.0
C763 C 0.18785 0.76777 0.60719 0.0
C764 C 0.19622 0.76229 0.61897 0.0
C765 C 0.19988 0.764 0.64956 0.0
C766 C 0.19522 0.77124 0.66886 0.0
C767 C 0.18677 0.77665 0.65678 0.0
C768 C 0.18312 0.77491 0.62631 0.0
C769 C 0.1764 0.80437 0.54593 0.0
C770 C 0.14483 0.77989 0.57013 0.0
C771 C 0.14076 0.7924 0.45713 0.0
C772 C 0.14279 0.79657 0.42494 0.0
C773 C 0.13731 0.80502 0.41358 0.0
C774 C 0.1373 0.80737 0.38253 0.0
C775 C 0.14263 0.80116 0.36211 0.0
C776 C 0.14863 0.79316 0.37373 0.0
C777 C 0.14876 0.79093 0.40478 0.0
C778 C 0.14149 0.7554 0.51384 0.0
C779 C 0.18004 0.7832 0.47027 0.0
O780 O 0.17057 0.7591 0.56847 0.0
O781 O 0.19125 0.77826 0.5593 0.0
O782 O 0.17769 0.79739 0.56829 0.0
O783 O 0.17359 0.797 0.52219 0.0
O784 O 0.15205 0.77286 0.57151 0.0
O785 O 0.14477 0.78681 0.54557 0.0
O786 O 0.15014 0.80121 0.47671 0.0
O787 O 0.13667 0.77898 0.46268 0.0
O788 O 0.13368 0.76144 0.51215 0.0
O789 O 0.15435 0.76414 0.50728 0.0
O790 O 0.16945 0.78589 0.46684 0.0
O791 O 0.18266 0.77884 0.49613 0.0
H792 H 0.19996 0.75674 0.6045 0.0
H793 H 0.20628 0.75959 0.65812 0.0
H794 H 0.1832 0.7825 0.67073 0.0
H795 H 0.1767 0.77928 0.61758 0.0
H796 H 0.13251 0.80934 0.42863 0.0
H797 H 0.13251 0.81352 0.37444 0.0
H798 H 0.15303 0.7884 0.35875 0.0
H799 H 0.15309 0.78438 0.41293 0.0
Nd800 Nd 0.23098 0.40563 0.53917 0.0
Nd801 Nd 0.22639 0.38058 0.49659 0.0
C802 C 0.23934 0.4273 0.57711 0.0
C803 C 0.23487 0.42796 0.6082 0.0
C804 C 0.24126 0.44092 0.62423 0.0
C805 C 0.23682 0.44146 0.65364 0.0
C806 C 0.22583 0.42904 0.66751 0.0
C807 C 0.21958 0.41605 0.65132 0.0
C808 C 0.22406 0.41552 0.62205 0.0
C809 C 0.2029 0.38706 0.52416 0.0
C810 C 0.22124 0.3739 0.56733 0.0
C811 C 0.21926 0.36139 0.45281 0.0
C812 C 0.21514 0.35883 0.42049 0.0
C813 C 0.2037 0.34548 0.41146 0.0
C814 C 0.20056 0.34218 0.38089 0.0
C815 C 0.20882 0.35214 0.35843 0.0
C816 C 0.21995 0.36573 0.36761 0.0
C817 C 0.22307 0.36904 0.39823 0.0
C818 C 0.25283 0.39547 0.52404 0.0
C819 C 0.23329 0.41135 0.46621 0.0
O820 O 0.24624 0.42024 0.57357 0.0
O821 O 0.22961 0.42426 0.55631 0.0
O822 O 0.20686 0.39298 0.55045 0.0
O823 O 0.21366 0.39133 0.50742 0.0
O824 O 0.22912 0.38794 0.57135 0.0
O825 O 0.2166 0.36832 0.54036 0.0
O826 O 0.20993 0.36118 0.47205 0.0
O827 O 0.23249 0.37114 0.45922 0.0
O828 O 0.24616 0.38167 0.51983 0.0
O829 O 0.24579 0.40079 0.51303 0.0
O830 O 0.23003 0.39789 0.46253 0.0
O831 O 0.23478 0.41727 0.49319 0.0
H832 H 0.24963 0.45064 0.61396 0.0
H833 H 0.24179 0.45166 0.6653 0.0
H834 H 0.21128 0.40623 0.66138 0.0
H835 H 0.21906 0.40537 0.61015 0.0
H836 H 0.19738 0.33743 0.42811 0.0
H837 H 0.19171 0.33173 0.37486 0.0
H838 H 0.22663 0.37367 0.35113 0.0
H839 H 0.23194 0.37945 0.40442 0.0
Nd840 Nd 0.15997 0.25796 0.87099 0.0
Nd841 Nd 0.18061 0.28497 0.90619 0.0
C842 C 0.14883 0.23616 0.83296 0.0
C843 C 0.14606 0.23566 0.80042 0.0
C844 C 0.13966 0.22263 0.78464 0.0
C845 C 0.13671 0.22233 0.75381 0.0
C846 C 0.14022 0.23508 0.7383 0.0
C847 C 0.1467 0.24809 0.75435 0.0
C848 C 0.14952 0.24836 0.78506 0.0
C849 C 0.15162 0.278 0.8733 0.0
C850 C 0.18597 0.28695 0.83503 0.0
C851 C 0.19271 0.30677 0.9448 0.0
C852 C 0.1929 0.3096 0.97748 0.0
C853 C 0.18346 0.299 0.99755 0.0
C854 C 0.18384 0.30201 0.02843 0.0
C855 C 0.19371 0.31569 0.03993 0.0
C856 C 0.20318 0.3262 0.01958 0.0
C857 C 0.20276 0.32318 0.98881 0.0
C858 C 0.18872 0.26465 0.90026 0.0
C859 C 0.15301 0.25849 0.9405 0.0
O860 O 0.16236 0.24281 0.84095 0.0
O861 O 0.14106 0.23966 0.84972 0.0
O862 O 0.14256 0.26434 0.87424 0.0
O863 O 0.16425 0.28052 0.87005 0.0
O864 O 0.17695 0.27285 0.83508 0.0
O865 O 0.18823 0.29467 0.85967 0.0
O866 O 0.1808 0.30316 0.93028 0.0
O867 O 0.19871 0.2994 0.93613 0.0
O868 O 0.19759 0.27831 0.89775 0.0
O869 O 0.17631 0.26217 0.90646 0.0
O870 O 0.16154 0.27245 0.93775 0.0
O871 O 0.15212 0.24959 0.91897 0.0
H872 H 0.13687 0.21271 0.79616 0.0
H873 H 0.13178 0.21214 0.74208 0.0
H874 H 0.1493 0.25808 0.74331 0.0
H875 H 0.15426 0.2585 0.79695 0.0
H876 H 0.17577 0.28842 0.98936 0.0
H877 H 0.17627 0.29366 0.04319 0.0
H878 H 0.21111 0.33675 0.02746 0.0
H879 H 0.21021 0.3315 0.97379 0.0
Nd880 Nd 0.74214 0.90251 0.87474 0.0
Nd881 Nd 0.71936 0.90296 0.91715 0.0
C882 C 0.763 0.90653 0.83765 0.0
C883 C 0.7632 0.90204 0.80638 0.0
C884 C 0.75032 0.8928 0.79149 0.0
C885 C 0.75047 0.88835 0.76198 0.0
C886 C 0.76352 0.8931 0.74663 0.0
C887 C 0.7764 0.90252 0.76156 0.0
C888 C 0.77623 0.90692 0.79118 0.0
C889 C 0.71878 0.87636 0.88788 0.0
C890 C 0.71228 0.89828 0.84606 0.0
C891 C 0.70094 0.89952 0.96044 0.0
C892 C 0.69743 0.89465 0.99206 0.0
C893 C 0.70789 0.89553 1.01221 0.0
C894 C 0.70448 0.89176 0.04256 0.0
C895 C 0.6905 0.887 0.05346 0.0
C896 C 0.68001 0.88585 0.03289 0.0
C897 C 0.68344 0.88963 1.00262 0.0
C898 C 0.73667 0.92809 0.88715 0.0
C899 C 0.74778 0.90396 0.94751 0.0
O900 O 0.75874 0.91592 0.84126 0.0
O901 O 0.75751 0.89621 0.8576 0.0
O902 O 0.72446 0.87961 0.86127 0.0
O903 O 0.72562 0.88662 0.90564 0.0
O904 O 0.72629 0.90401 0.84198 0.0
O905 O 0.70651 0.89484 0.87321 0.0
O906 O 0.69833 0.88976 0.93994 0.0
O907 O 0.71295 0.91153 0.9557 0.0
O908 O 0.72306 0.923 0.89157 0.0
O909 O 0.74088 0.92024 0.89921 0.0
O910 O 0.73552 0.90373 0.9512 0.0
O911 O 0.75296 0.90375 0.92059 0.0
H912 H 0.74013 0.88901 0.80275 0.0
H913 H 0.74034 0.88128 0.75107 0.0
H914 H 0.78663 0.90629 0.75054 0.0
H915 H 0.78629 0.91407 0.80228 0.0
H916 H 0.71875 0.8993 1.0046 0.0
H917 H 0.7128 0.89257 0.05748 0.0
H918 H 0.6692 0.88242 0.04032 0.0
H919 H 0.6752 0.8889 0.98752 0.0
Nd920 Nd 0.09094 0.83975 0.8793 0.0
Nd921 Nd 0.09399 0.81649 0.91577 0.0
C922 C 0.08581 0.85484 0.83923 0.0
C923 C 0.08789 0.85704 0.80656 0.0
C924 C 0.08203 0.86418 0.79077 0.0
C925 C 0.08546 0.86776 0.76041 0.0
C926 C 0.09486 0.86429 0.74553 0.0
C927 C 0.1002 0.8566 0.76123 0.0
C928 C 0.09682 0.8531 0.79144 0.0
C929 C 0.11731 0.84818 0.90363 0.0
C930 C 0.09712 0.81605 0.84312 0.0
C931 C 0.10346 0.80263 0.94934 0.0
C932 C 0.10542 0.80177 0.98211 0.0
C933 C 0.10486 0.81166 1.0019 0.0
C934 C 0.10827 0.81191 0.03239 0.0
C935 C 0.11244 0.80234 0.04381 0.0
C936 C 0.11279 0.79231 0.02398 0.0
C937 C 0.10924 0.79198 0.99349 0.0
C938 C 0.06643 0.81113 0.90769 0.0
C939 C 0.08864 0.8399 0.9511 0.0
O940 O 0.07594 0.84213 0.84842 0.0
O941 O 0.09766 0.85994 0.8548 0.0
O942 O 0.11148 0.8562 0.90475 0.0
O943 O 0.10913 0.83649 0.89085 0.0
O944 O 0.09593 0.82775 0.84207 0.0
O945 O 0.09617 0.80926 0.86859 0.0
O946 O 0.11174 0.81524 0.93745 0.0
O947 O 0.09029 0.79652 0.93899 0.0
O948 O 0.07073 0.80769 0.93194 0.0
O949 O 0.07628 0.81632 0.88841 0.0
O950 O 0.09542 0.83254 0.95097 0.0
O951 O 0.08343 0.84236 0.92621 0.0
H952 H 0.07519 0.86739 0.80216 0.0
H953 H 0.08124 0.87374 0.74899 0.0
H954 H 0.10725 0.85352 0.75032 0.0
H955 H 0.10161 0.84777 0.80326 0.0
H956 H 0.10213 0.81944 0.99363 0.0
H957 H 0.10802 0.81987 0.04687 0.0
H958 H 0.11584 0.78472 0.03203 0.0
H959 H 0.1099 0.78437 0.97861 0.0
Nd960 Nd 0.38221 0.14931 0.74788 0.0
Nd961 Nd 0.40915 0.16948 0.7115 0.0
C962 C 0.36042 0.1379 0.78632 0.0
C963 C 0.35769 0.13577 0.81909 0.0
C964 C 0.36817 0.14439 0.84028 0.0
C965 C 0.36527 0.1422 0.87122 0.0
C966 C 0.35179 0.13139 0.88163 0.0
C967 C 0.34136 0.1228 0.8602 0.0
C968 C 0.34429 0.12495 0.82934 0.0
C969 C 0.4005 0.13914 0.73667 0.0
C970 C 0.41088 0.17452 0.78322 0.0
C971 C 0.42985 0.18029 0.67083 0.0
C972 C 0.42963 0.18369 0.63875 0.0
C973 C 0.44235 0.19066 0.62201 0.0
C974 C 0.4421 0.19463 0.59204 0.0
C975 C 0.42911 0.19171 0.57831 0.0
C976 C 0.41636 0.18442 0.59513 0.0
C977 C 0.41664 0.18053 0.625 0.0
C978 C 0.39025 0.17923 0.71815 0.0
C979 C 0.37907 0.14501 0.67645 0.0
O980 O 0.36622 0.15107 0.77624 0.0
O981 O 0.36559 0.13055 0.77332 0.0
O982 O 0.38664 0.13114 0.73617 0.0
O983 O 0.40433 0.15184 0.74427 0.0
O984 O 0.39689 0.16576 0.78291 0.0
O985 O 0.41887 0.17681 0.75894 0.0
O986 O 0.42282 0.16665 0.67792 0.0
O987 O 0.42744 0.18818 0.68966 0.0
O988 O 0.40402 0.18769 0.71791 0.0
O989 O 0.38713 0.16649 0.71358 0.0
O990 O 0.39329 0.15307 0.67594 0.0
O991 O 0.37182 0.14338 0.70149 0.0
H992 H 0.37855 0.15286 0.83291 0.0
H993 H 0.37353 0.14914 0.88696 0.0
H994 H 0.33094 0.11424 0.86727 0.0
H995 H 0.33605 0.11815 0.81342 0.0
H996 H 0.4525 0.19328 0.63228 0.0
H997 H 0.45213 0.20034 0.57992 0.0
H998 H 0.40613 0.18175 0.58525 0.0
H999 H 0.4067 0.17523 0.63754 0.0
Nd1000 Nd 0.84189 0.21584 0.75771 0.0
Nd1001 Nd 0.82012 0.22098 0.72037 0.0
C1002 C 0.85541 0.20854 0.79805 0.0
C1003 C 0.85835 0.20925 0.83075 0.0
C1004 C 0.86493 0.20189 0.84246 0.0
C1005 C 0.86767 0.20218 0.87335 0.0
C1006 C 0.86381 0.2098 0.89343 0.0
C1007 C 0.85732 0.21733 0.88147 0.0
C1008 C 0.85469 0.21711 0.85045 0.0
C1009 C 0.85127 0.2434 0.73848 0.0
C1010 C 0.81833 0.22198 0.79276 0.0
C1011 C 0.8087 0.23051 0.68029 0.0
C1012 C 0.80383 0.22756 0.64848 0.0
C1013 C 0.81207 0.23719 0.62562 0.0
C1014 C 0.80746 0.23454 0.59563 0.0
C1015 C 0.79443 0.22226 0.58782 0.0
C1016 C 0.78618 0.21268 0.61075 0.0
C1017 C 0.79079 0.2153 0.64067 0.0
C1018 C 0.80916 0.19367 0.74135 0.0
C1019 C 0.84178 0.21118 0.68627 0.0
O1020 O 0.84221 0.19999 0.78933 0.0
O1021 O 0.86157 0.22062 0.78316 0.0
O1022 O 0.85934 0.23761 0.7386 0.0
O1023 O 0.8391 0.23494 0.74902 0.0
O1024 O 0.82677 0.21634 0.79316 0.0
O1025 O 0.81564 0.22682 0.76759 0.0
O1026 O 0.82254 0.23675 0.68529 0.0
O1027 O 0.80115 0.22053 0.70006 0.0
O1028 O 0.80137 0.19952 0.73591 0.0
O1029 O 0.82175 0.20162 0.7316 0.0
O1030 O 0.83362 0.21719 0.68426 0.0
O1031 O 0.84515 0.20787 0.7125 0.0
H1032 H 0.86784 0.19574 0.82769 0.0
H1033 H 0.8724 0.19601 0.88158 0.0
H1034 H 0.8543 0.22343 0.89607 0.0
H1035 H 0.84977 0.22303 0.84184 0.0
H1036 H 0.82208 0.2468 0.63094 0.0
H1037 H 0.81401 0.24222 0.5786 0.0
H1038 H 0.7762 0.20301 0.60555 0.0
H1039 H 0.78411 0.20766 0.65763 0.0
Nd1040 Nd 0.76854 0.61542 0.74013 0.0
Nd1041 Nd 0.76063 0.58714 0.70697 0.0
C1042 C 0.77976 0.63802 0.77677 0.0
C1043 C 0.78139 0.64116 0.80942 0.0
C1044 C 0.77837 0.6304 0.83074 0.0
C1045 C 0.77998 0.63361 0.8616 0.0
C1046 C 0.78461 0.64767 0.87186 0.0
C1047 C 0.78762 0.65839 0.85027 0.0
C1048 C 0.78603 0.65516 0.81946 0.0
C1049 C 0.7397 0.59676 0.73367 0.0
C1050 C 0.76743 0.58838 0.77752 0.0
C1051 C 0.74982 0.56523 0.66927 0.0
C1052 C 0.7529 0.56468 0.63714 0.0
C1053 C 0.74432 0.55248 0.61968 0.0
C1054 C 0.74764 0.55203 0.58933 0.0
C1055 C 0.75967 0.56376 0.57606 0.0
C1056 C 0.76808 0.57603 0.59365 0.0
C1057 C 0.7647 0.5765 0.6238 0.0
C1058 C 0.78932 0.60606 0.71125 0.0
C1059 C 0.76603 0.61656 0.66859 0.0
O1060 O 0.78704 0.63238 0.76548 0.0
O1061 O 0.76677 0.63222 0.76577 0.0
O1062 O 0.74555 0.6106 0.73214 0.0
O1063 O 0.74882 0.5931 0.74023 0.0
O1064 O 0.77307 0.60233 0.77417 0.0
O1065 O 0.75957 0.5793 0.75597 0.0
O1066 O 0.74333 0.57244 0.67581 0.0
O1067 O 0.76046 0.56812 0.68755 0.0
O1068 O 0.78404 0.59233 0.71401 0.0
O1069 O 0.77962 0.60895 0.70598 0.0
O1070 O 0.76018 0.60234 0.6694 0.0
O1071 O 0.77174 0.62447 0.69287 0.0
H1072 H 0.77477 0.61951 0.82354 0.0
H1073 H 0.77773 0.6251 0.87742 0.0
H1074 H 0.79105 0.66929 0.85716 0.0
H1075 H 0.78843 0.66364 0.80341 0.0
H1076 H 0.73515 0.54327 0.62957 0.0
H1077 H 0.74098 0.54241 0.5764 0.0
H1078 H 0.77724 0.58533 0.58402 0.0
H1079 H 0.7714 0.58608 0.63683 0.0
Nd1080 Nd 0.80744 0.71013 0.32887 0.0
Nd1081 Nd 0.82988 0.73513 0.36946 0.0
C1082 C 0.7931 0.69135 0.28539 0.0
C1083 C 0.79349 0.68869 0.25271 0.0
C1084 C 0.78963 0.67484 0.24282 0.0
C1085 C 0.78898 0.67173 0.21206 0.0
C1086 C 0.79228 0.68243 0.19026 0.0
C1087 C 0.79628 0.69638 0.20028 0.0
C1088 C 0.79688 0.69947 0.23112 0.0
C1089 C 0.79756 0.72594 0.35812 0.0
C1090 C 0.83151 0.74092 0.29839 0.0
C1091 C 0.84272 0.75403 0.41332 0.0
C1092 C 0.84621 0.75408 0.44565 0.0
C1093 C 0.83571 0.74556 0.46688 0.0
C1094 C 0.83942 0.74565 0.49717 0.0
C1095 C 0.85373 0.7542 0.50697 0.0
C1096 C 0.86416 0.76274 0.48555 0.0
C1097 C 0.86043 0.7627 0.45536 0.0
C1098 C 0.84026 0.72021 0.33907 0.0
C1099 C 0.80824 0.70243 0.39851 0.0
O1100 O 0.80239 0.69042 0.30283 0.0
O1101 O 0.79075 0.70169 0.29334 0.0
O1102 O 0.79011 0.71213 0.35452 0.0
O1103 O 0.8097 0.73108 0.34576 0.0
O1104 O 0.82297 0.72693 0.29559 0.0
O1105 O 0.83447 0.7475 0.32483 0.0
O1106 O 0.82925 0.74896 0.40585 0.0
O1107 O 0.84956 0.75026 0.39447 0.0
O1108 O 0.8481 0.73368 0.34605 0.0
O1109 O 0.82806 0.715 0.35118 0.0
O1110 O 0.81717 0.71634 0.40277 0.0
O1111 O 0.80371 0.69691 0.37146 0.0
H1112 H 0.78696 0.66634 0.25896 0.0
H1113 H 0.78613 0.66095 0.20538 0.0
H1114 H 0.79881 0.70489 0.18427 0.0
H1115 H 0.79985 0.71025 0.23805 0.0
H1116 H 0.82465 0.73878 0.46012 0.0
H1117 H 0.83102 0.73907 0.51292 0.0
H1118 H 0.87531 0.76927 0.49194 0.0
H1119 H 0.86874 0.76933 0.43943 0.0
Nd1120 Nd 0.28719 0.09104 0.33469 0.0
Nd1121 Nd 0.26156 0.08906 0.37188 0.0
C1122 C 0.30685 0.09484 0.29396 0.0
C1123 C 0.31001 0.09759 0.26137 0.0
C1124 C 0.32403 0.10736 0.25211 0.0
C1125 C 0.32748 0.10977 0.22149 0.0
C1126 C 0.31696 0.10248 0.19924 0.0
C1127 C 0.30288 0.09265 0.20865 0.0
C1128 C 0.29945 0.09024 0.23933 0.0
C1129 C 0.26962 0.06523 0.36199 0.0
C1130 C 0.25787 0.08591 0.2998 0.0
C1131 C 0.24113 0.08252 0.41249 0.0
C1132 C 0.2401 0.08568 0.44446 0.0
C1133 C 0.2516 0.08958 0.46429 0.0
C1134 C 0.25087 0.09348 0.49402 0.0
C1135 C 0.23858 0.09357 0.50459 0.0
C1136 C 0.22695 0.08936 0.48475 0.0
C1137 C 0.22773 0.0855 0.45498 0.0
C1138 C 0.27794 0.11462 0.34345 0.0
C1139 C 0.29339 0.09909 0.4049 0.0
O1140 O 0.30757 0.10526 0.31036 0.0
O1141 O 0.29626 0.08227 0.30179 0.0
O1142 O 0.28349 0.07118 0.36111 0.0
O1143 O 0.26542 0.07278 0.34851 0.0
O1144 O 0.27182 0.09082 0.29877 0.0
O1145 O 0.25059 0.0823 0.32543 0.0
O1146 O 0.24664 0.07433 0.4066 0.0
O1147 O 0.24562 0.09336 0.39402 0.0
O1148 O 0.26442 0.10946 0.34924 0.0
O1149 O 0.28244 0.10711 0.35606 0.0
O1150 O 0.27945 0.09446 0.40764 0.0
O1151 O 0.29942 0.10004 0.3785 0.0
H1152 H 0.33236 0.11316 0.26865 0.0
H1153 H 0.33835 0.11762 0.21531 0.0
H1154 H 0.29451 0.08672 0.1923 0.0
H1155 H 0.28855 0.08259 0.24579 0.0
H1156 H 0.26122 0.08978 0.45663 0.0
H1157 H 0.25996 0.09646 0.5087 0.0
H1158 H 0.2174 0.08947 0.49193 0.0
H1159 H 0.21875 0.08261 0.44 0.0
Nd1160 Nd 0.89712 0.17822 0.34218 0.0
Nd1161 Nd 0.90514 0.15812 0.37899 0.0
C1162 C 0.88431 0.18909 0.30944 0.0
C1163 C 0.88359 0.19166 0.2769 0.0
C1164 C 0.88816 0.18526 0.25536 0.0
C1165 C 0.88667 0.18698 0.22454 0.0
C1166 C 0.88056 0.19516 0.21444 0.0
C1167 C 0.87611 0.20165 0.23621 0.0
C1168 C 0.8776 0.1999 0.26706 0.0
C1169 C 0.92583 0.18662 0.34266 0.0
C1170 C 0.90397 0.15582 0.30719 0.0
C1171 C 0.91458 0.14668 0.41936 0.0
C1172 C 0.91091 0.1428 0.45112 0.0
C1173 C 0.9189 0.13856 0.46893 0.0
C1174 C 0.915 0.13449 0.49894 0.0
C1175 C 0.90304 0.13458 0.51149 0.0
C1176 C 0.89529 0.13912 0.49355 0.0
C1177 C 0.89914 0.14311 0.46369 0.0
C1178 C 0.87712 0.14653 0.36277 0.0
C1179 C 0.89563 0.17944 0.41541 0.0
O1180 O 0.87816 0.17558 0.3174 0.0
O1181 O 0.89662 0.19711 0.32311 0.0
O1182 O 0.91964 0.18933 0.32063 0.0
O1183 O 0.91729 0.1811 0.36431 0.0
O1184 O 0.89553 0.16142 0.30868 0.0
O1185 O 0.91126 0.15534 0.33077 0.0
O1186 O 0.92118 0.16039 0.41329 0.0
O1187 O 0.90432 0.13912 0.40022 0.0
O1188 O 0.88366 0.13918 0.36136 0.0
O1189 O 0.8853 0.15902 0.37198 0.0
O1190 O 0.89881 0.16898 0.41653 0.0
O1191 O 0.89485 0.18521 0.38966 0.0
H1192 H 0.8927 0.17873 0.2624 0.0
H1193 H 0.89005 0.18163 0.20864 0.0
H1194 H 0.87151 0.20815 0.22945 0.0
H1195 H 0.8739 0.20485 0.28324 0.0
H1196 H 0.92802 0.13825 0.45955 0.0
H1197 H 0.92115 0.13098 0.51209 0.0
H1198 H 0.88622 0.13963 0.5026 0.0
H1199 H 0.89282 0.14632 0.4503 0.0
Nd1200 Nd 0.25676 0.15563 0.87156 0.0
Nd1201 Nd 0.27934 0.18259 0.83757 0.0
C1202 C 0.23786 0.13795 0.91131 0.0
C1203 C 0.23783 0.13367 0.94306 0.0
C1204 C 0.24291 0.14375 0.96666 0.0
C1205 C 0.24295 0.13937 0.99636 0.0
C1206 C 0.23805 0.12487 1.00308 0.0
C1207 C 0.23293 0.11484 0.97942 0.0
C1208 C 0.23278 0.11919 0.94983 0.0
C1209 C 0.27917 0.15367 0.84796 0.0
C1210 C 0.28508 0.18216 0.90812 0.0
C1211 C 0.29751 0.20149 0.79806 0.0
C1212 C 0.30112 0.20201 0.7658 0.0
C1213 C 0.29152 0.19165 0.74558 0.0
C1214 C 0.29513 0.19207 0.71516 0.0
C1215 C 0.30839 0.20302 0.70414 0.0
C1216 C 0.31788 0.21355 0.72449 0.0
C1217 C 0.31428 0.21303 0.75497 0.0
C1218 C 0.25743 0.1847 0.86352 0.0
C1219 C 0.25474 0.15435 0.79988 0.0
O1220 O 0.24008 0.15089 0.9061 0.0
O1221 O 0.24436 0.13399 0.89197 0.0
O1222 O 0.26621 0.14281 0.84928 0.0
O1223 O 0.27978 0.16439 0.86068 0.0
O1224 O 0.27204 0.17064 0.90938 0.0
O1225 O 0.29111 0.18821 0.8823 0.0
O1226 O 0.30076 0.19375 0.81553 0.0
O1227 O 0.28496 0.19997 0.80435 0.0
O1228 O 0.27075 0.19487 0.86401 0.0
O1229 O 0.25587 0.17392 0.84902 0.0
O1230 O 0.2679 0.16544 0.80118 0.0
O1231 O 0.24659 0.14961 0.82423 0.0
H1232 H 0.24695 0.15502 0.96219 0.0
H1233 H 0.24708 0.14739 1.014 0.0
H1234 H 0.22892 0.10357 0.98382 0.0
H1235 H 0.22875 0.11119 0.93213 0.0
H1236 H 0.28119 0.1833 0.75334 0.0
H1237 H 0.28756 0.18371 0.70037 0.0
H1238 H 0.32808 0.22227 0.71687 0.0
H1239 H 0.32182 0.22123 0.77012 0.0
Nd1240 Nd 0.83726 0.1008 0.87884 0.0
Nd1241 Nd 0.81889 0.1091 0.83821 0.0
C1242 C 0.8463 0.08906 0.91912 0.0
C1243 C 0.85043 0.0924 0.95093 0.0
C1244 C 0.85707 0.08587 0.96614 0.0
C1245 C 0.8621 0.09 0.99561 0.0
C1246 C 0.86063 0.10081 1.01024 0.0
C1247 C 0.85363 0.10704 0.99504 0.0
C1248 C 0.8486 0.10289 0.96568 0.0
C1249 C 0.84722 0.12983 0.87585 0.0
C1250 C 0.81162 0.10596 0.909 0.0
C1251 C 0.80998 0.12153 0.79891 0.0
C1252 C 0.80975 0.12362 0.76607 0.0
C1253 C 0.80645 0.13384 0.75507 0.0
C1254 C 0.80593 0.13585 0.72405 0.0
C1255 C 0.80864 0.12762 0.70324 0.0
C1256 C 0.81207 0.11745 0.71444 0.0
C1257 C 0.81265 0.11549 0.74552 0.0
C1258 C 0.80792 0.08032 0.84713 0.0
C1259 C 0.84483 0.1053 0.80799 0.0
O1260 O 0.8327 0.08398 0.91288 0.0
O1261 O 0.85482 0.0989 0.90007 0.0
O1262 O 0.85556 0.12455 0.8804 0.0
O1263 O 0.83446 0.11984 0.87571 0.0
O1264 O 0.81949 0.09962 0.9111 0.0
O1265 O 0.81108 0.11218 0.88378 0.0
O1266 O 0.82251 0.12825 0.81218 0.0
O1267 O 0.80186 0.10848 0.80909 0.0
O1268 O 0.80003 0.0863 0.8453 0.0
O1269 O 0.82095 0.08927 0.84246 0.0
O1270 O 0.83645 0.11096 0.80639 0.0
O1271 O 0.84598 0.09911 0.83268 0.0
H1272 H 0.85866 0.07782 0.955 0.0
H1273 H 0.86753 0.08507 1.00657 0.0
H1274 H 0.85211 0.11521 1.00577 0.0
H1275 H 0.84353 0.10809 0.95425 0.0
H1276 H 0.80411 0.14018 0.77053 0.0
H1277 H 0.80308 0.14365 0.7164 0.0
H1278 H 0.81442 0.11104 0.69919 0.0
H1279 H 0.81529 0.10759 0.75352 0.0
Nd1280 Nd 0.89667 0.73953 0.88263 0.0
Nd1281 Nd 0.88746 0.71115 0.84857 0.0
C1282 C 0.90858 0.76204 0.91875 0.0
C1283 C 0.90684 0.76416 0.95115 0.0
C1284 C 0.91152 0.7583 0.97376 0.0
C1285 C 0.90844 0.75915 1.00405 0.0
C1286 C 0.90052 0.76578 1.0125 0.0
C1287 C 0.89632 0.77207 0.98988 0.0
C1288 C 0.89951 0.77134 0.95966 0.0
C1289 C 0.86792 0.72056 0.88347 0.0
C1290 C 0.89347 0.71048 0.91886 0.0
C1291 C 0.87494 0.68854 0.81213 0.0
C1292 C 0.87266 0.68549 0.77946 0.0
C1293 C 0.86772 0.6715 0.769 0.0
C1294 C 0.86576 0.6684 0.73815 0.0
C1295 C 0.86875 0.67925 0.71686 0.0
C1296 C 0.87355 0.69328 0.72758 0.0
C1297 C 0.87549 0.69636 0.75851 0.0
C1298 C 0.91646 0.73008 0.85029 0.0
C1299 C 0.88767 0.73805 0.81325 0.0
O1300 O 0.91475 0.75455 0.91182 0.0
O1301 O 0.89752 0.75895 0.90162 0.0
O1302 O 0.8731 0.73426 0.88065 0.0
O1303 O 0.87775 0.71759 0.88598 0.0
O1304 O 0.89929 0.7247 0.91803 0.0
O1305 O 0.88641 0.7024 0.89554 0.0
O1306 O 0.86818 0.69446 0.82467 0.0
O1307 O 0.88809 0.69397 0.82197 0.0
O1308 O 0.91086 0.71627 0.85141 0.0
O1309 O 0.90696 0.73346 0.84622 0.0
O1310 O 0.88148 0.72407 0.81705 0.0
O1311 O 0.8966 0.74706 0.83371 0.0
H1312 H 0.91727 0.75277 0.96809 0.0
H1313 H 0.91211 0.75442 0.0208 0.0
H1314 H 0.89006 0.77711 0.99529 0.0
H1315 H 0.89579 0.77599 0.94279 0.0
H1316 H 0.86534 0.66292 0.78475 0.0
H1317 H 0.86174 0.65742 0.73104 0.0
H1318 H 0.87612 0.70198 0.71206 0.0
H1319 H 0.87935 0.70725 0.76603 0.0
Nd1320 Nd 0.83023 0.59703 0.21382 0.0
Nd1321 Nd 0.84912 0.62156 0.25785 0.0
C1322 C 0.81933 0.5766 0.17239 0.0
C1323 C 0.81542 0.57547 0.14014 0.0
C1324 C 0.82444 0.58575 0.11908 0.0
C1325 C 0.82008 0.58491 0.08906 0.0
C1326 C 0.80654 0.57385 0.07943 0.0
C1327 C 0.79765 0.56348 0.10061 0.0
C1328 C 0.80205 0.56428 0.13055 0.0
C1329 C 0.82392 0.61888 0.21541 0.0
C1330 C 0.85935 0.62654 0.18842 0.0
C1331 C 0.8595 0.6418 0.30012 0.0
C1332 C 0.85845 0.64376 0.33286 0.0
C1333 C 0.85318 0.63219 0.35304 0.0
C1334 C 0.85289 0.63448 0.38411 0.0
C1335 C 0.85781 0.64839 0.39568 0.0
C1336 C 0.86285 0.65987 0.37518 0.0
C1337 C 0.86317 0.65758 0.34421 0.0
C1338 C 0.85691 0.60108 0.2501 0.0
C1339 C 0.81932 0.59405 0.28204 0.0
O1340 O 0.833 0.58364 0.17942 0.0
O1341 O 0.81148 0.5793 0.19074 0.0
O1342 O 0.81431 0.60554 0.21132 0.0
O1343 O 0.83605 0.62003 0.21726 0.0
O1344 O 0.85019 0.61258 0.18469 0.0
O1345 O 0.85983 0.63306 0.21403 0.0
O1346 O 0.84834 0.63894 0.28353 0.0
O1347 O 0.86566 0.6345 0.29195 0.0
O1348 O 0.86601 0.61464 0.25349 0.0
O1349 O 0.8442 0.59857 0.25266 0.0
O1350 O 0.82819 0.60798 0.28373 0.0
O1351 O 0.81964 0.58647 0.25895 0.0
H1352 H 0.83478 0.59455 0.12584 0.0
H1353 H 0.82735 0.59299 0.07343 0.0
H1354 H 0.78708 0.55493 0.09433 0.0
H1355 H 0.79486 0.55628 0.14642 0.0
H1356 H 0.84939 0.62141 0.34481 0.0
H1357 H 0.84875 0.62533 0.39905 0.0
H1358 H 0.8669 0.67074 0.3831 0.0
H1359 H 0.86731 0.66667 0.3291 0.0
Nd1360 Nd 0.39848 0.23029 0.21292 0.0
Nd1361 Nd 0.37235 0.2239 0.25146 0.0
C1362 C 0.41944 0.24035 0.17276 0.0
C1363 C 0.42024 0.23712 0.14077 0.0
C1364 C 0.43334 0.24412 0.12539 0.0
C1365 C 0.4343 0.24044 0.09556 0.0
C1366 C 0.42216 0.22962 0.08058 0.0
C1367 C 0.40897 0.22283 0.09602 0.0
C1368 C 0.40802 0.22655 0.12578 0.0
C1369 C 0.37805 0.20167 0.21521 0.0
C1370 C 0.36896 0.22731 0.1807 0.0
C1371 C 0.35091 0.21347 0.29068 0.0
C1372 C 0.34868 0.21247 0.32364 0.0
C1373 C 0.33569 0.20165 0.33552 0.0
C1374 C 0.33316 0.20068 0.36657 0.0
C1375 C 0.34359 0.21056 0.38655 0.0
C1376 C 0.3567 0.22134 0.37451 0.0
C1377 C 0.35923 0.22227 0.3434 0.0
C1378 C 0.3914 0.25239 0.24285 0.0
C1379 C 0.40058 0.22526 0.28389 0.0
O1380 O 0.412 0.24662 0.17894 0.0
O1381 O 0.41693 0.23002 0.19159 0.0
O1382 O 0.39167 0.20621 0.21395 0.0
O1383 O 0.37593 0.21208 0.21413 0.0
O1384 O 0.38313 0.233 0.17949 0.0
O1385 O 0.36181 0.22114 0.20557 0.0
O1386 O 0.35607 0.20582 0.27897 0.0
O1387 O 0.35641 0.22624 0.27868 0.0
O1388 O 0.3776 0.24696 0.24334 0.0
O1389 O 0.39489 0.24305 0.24846 0.0
O1390 O 0.38661 0.22017 0.28414 0.0
O1391 O 0.40839 0.23148 0.2597 0.0
H1392 H 0.4429 0.25226 0.13662 0.0
H1393 H 0.44464 0.24579 0.08452 0.0
H1394 H 0.39936 0.21461 0.08511 0.0
H1395 H 0.39779 0.22103 0.13726 0.0
H1396 H 0.32739 0.19399 0.32069 0.0
H1397 H 0.32289 0.19235 0.37486 0.0
H1398 H 0.36506 0.22901 0.38917 0.0
H1399 H 0.36938 0.23067 0.33477 0.0
Nd1400 Nd 0.75665 0.16725 0.21671 0.0
Nd1401 Nd 0.76618 0.14862 0.25139 0.0
C1402 C 0.74548 0.17729 0.17741 0.0
C1403 C 0.74976 0.18247 0.14633 0.0
C1404 C 0.73948 0.18046 0.12457 0.0
C1405 C 0.74364 0.18488 0.09478 0.0
C1406 C 0.75817 0.19139 0.08629 0.0
C1407 C 0.7684 0.19352 0.10842 0.0
C1408 C 0.76424 0.189 0.13796 0.0
C1409 C 0.78542 0.17981 0.22626 0.0
C1410 C 0.76589 0.14564 0.17978 0.0
C1411 C 0.77883 0.13922 0.28905 0.0
C1412 C 0.78191 0.13946 0.32157 0.0
C1413 C 0.78114 0.14928 0.3412 0.0
C1414 C 0.78417 0.14935 0.37193 0.0
C1415 C 0.78813 0.13965 0.38366 0.0
C1416 C 0.78896 0.12991 0.36374 0.0
C1417 C 0.78586 0.12982 0.33309 0.0
C1418 C 0.73753 0.1355 0.23818 0.0
C1419 C 0.75861 0.17065 0.28836 0.0
O1420 O 0.7404 0.16355 0.18164 0.0
O1421 O 0.75451 0.18519 0.19844 0.0
O1422 O 0.77873 0.18698 0.22833 0.0
O1423 O 0.77708 0.167 0.21923 0.0
O1424 O 0.75918 0.15321 0.17938 0.0
O1425 O 0.77116 0.14362 0.2049 0.0
O1426 O 0.78564 0.15144 0.27468 0.0
O1427 O 0.76542 0.13152 0.28074 0.0
O1428 O 0.74493 0.12899 0.23718 0.0
O1429 O 0.74502 0.14825 0.24732 0.0
O1430 O 0.76597 0.16388 0.28709 0.0
O1431 O 0.75193 0.17189 0.26457 0.0
H1432 H 0.72824 0.17532 0.13053 0.0
H1433 H 0.73544 0.18293 0.07833 0.0
H1434 H 0.77971 0.19874 0.10302 0.0
H1435 H 0.77239 0.19058 0.15426 0.0
H1436 H 0.77829 0.15695 0.33277 0.0
H1437 H 0.7836 0.15713 0.38642 0.0
H1438 H 0.79179 0.12217 0.37188 0.0
H1439 H 0.78657 0.12218 0.31834 0.0
C1440 C 0.12157 0.41256 0.05758 0.0
C1441 C 0.13263 0.416 0.0368 0.0
C1442 C 0.11721 0.42247 0.06433 0.0
C1443 C 0.11121 0.4483 0.02968 0.0
H1444 H 0.11024 0.46256 0.10919 0.0
C1445 C 0.0833 0.4814 0.0489 0.0
C1446 C 0.07577 0.47913 0.07593 0.0
C1447 C 0.09264 0.47603 0.04503 0.0
C1448 C 0.11024 0.45854 0.08687 0.0
H1449 H 0.14808 0.43253 1.00732 0.0
H1450 H 0.13998 0.44971 1.01828 0.0
H1451 H 0.12214 0.44854 0.10166 0.0
H1452 H 0.07213 0.46959 0.12024 0.0
H1453 H 0.08766 0.45952 0.11306 0.0
H1454 H 0.09847 0.45719 1.01497 0.0
C1455 C 0.13494 0.43945 0.02968 0.0
C1456 C 0.1172 0.45066 0.0826 0.0
C1457 C 0.13955 0.42966 0.0235 0.0
C1458 C 0.07787 0.47157 0.09919 0.0
C1459 C 0.08692 0.46591 0.09511 0.0
C1460 C 0.10395 0.45587 0.03403 0.0
C1461 C 0.12363 0.43584 0.04988 0.0
C1462 C 0.11762 0.44539 0.05404 0.0
C1463 C 0.09437 0.46794 0.06786 0.0
C1464 C 0.10319 0.46096 0.06278 0.0
H1465 H 0.1161 0.4021 0.06814 0.0
H1466 H 0.1084 0.41947 0.07983 0.0
H1467 H 0.11128 0.44416 1.00751 0.0
H1468 H 0.08188 0.4872 0.03062 0.0
H1469 H 0.09838 0.47814 0.02398 0.0
C1470 C 0.57309 0.7156 0.03412 0.0
C1471 C 0.58728 0.72466 0.04355 0.0
C1472 C 0.56595 0.70104 0.04143 0.0
C1473 C 0.55052 0.67095 0.06634 0.0
H1474 H 0.57379 0.65286 0.07011 0.0
C1475 C 0.52572 0.60963 0.08584 0.0
C1476 C 0.5326 0.60298 0.07208 0.0
C1477 C 0.53193 0.62459 0.08496 0.0
C1478 C 0.56705 0.65765 0.0687 0.0
H1479 H 0.60484 0.72592 0.0696 0.0
H1480 H 0.59216 0.70067 0.08395 0.0
H1481 H 0.58528 0.67853 0.0641 0.0
H1482 H 0.55087 0.60649 0.04534 0.0
H1483 H 0.56125 0.63229 0.04222 0.0
H1484 H 0.53223 0.64986 0.06871 0.0
C1485 C 0.58669 0.70457 0.06971 0.0
C1486 C 0.57371 0.67253 0.06592 0.0
C1487 C 0.59395 0.71909 0.06175 0.0
C1488 C 0.54545 0.6114 0.05651 0.0
C1489 C 0.55148 0.62625 0.05503 0.0
C1490 C 0.54383 0.656 0.06847 0.0
C1491 C 0.57271 0.69523 0.05898 0.0
C1492 C 0.56556 0.67943 0.06436 0.0
C1493 C 0.54501 0.63313 0.06978 0.0
C1494 C 0.55201 0.64911 0.06924 0.0
H1495 H 0.5677 0.71963 0.01997 0.0
H1496 H 0.55533 0.69428 0.03225 0.0
H1497 H 0.54382 0.67582 0.0659 0.0
H1498 H 0.5158 0.60332 0.09807 0.0
H1499 H 0.52666 0.62945 0.09681 0.0
C1500 C 0.37943 0.9093 0.09327 0.0
C1501 C 0.38914 0.91404 0.06918 0.0
C1502 C 0.36465 0.90182 0.08786 0.0
C1503 C 0.33868 0.89829 0.03083 0.0
H1504 H 0.31167 0.86472 0.07593 0.0
C1505 C 0.27771 0.87677 0.02868 0.0
C1506 C 0.26895 0.86194 0.0243 0.0
C1507 C 0.29235 0.88266 0.03444 0.0
C1508 C 0.31911 0.87406 0.0631 0.0
H1509 H 0.39112 0.91422 0.02064 0.0
H1510 H 0.36531 0.90124 1.0112 0.0
H1511 H 0.33744 0.87534 0.08512 0.0
H1512 H 0.26851 0.8416 0.02276 0.0
H1513 H 0.2941 0.85189 0.03327 0.0
H1514 H 0.3204 0.89711 1.00896 0.0
C1515 C 0.3691 0.90339 0.03422 0.0
C1516 C 0.33382 0.88018 0.06849 0.0
C1517 C 0.38386 0.91074 0.03964 0.0
C1518 C 0.27503 0.85307 0.02614 0.0
C1519 C 0.28964 0.85894 0.03225 0.0
C1520 C 0.32399 0.89229 0.02571 0.0
C1521 C 0.35935 0.89906 0.05825 0.0
C1522 C 0.34375 0.89234 0.05235 0.0
C1523 C 0.29847 0.87381 0.03624 0.0
C1524 C 0.31405 0.88012 0.04178 0.0
H1525 H 0.38324 0.91168 0.11626 0.0
H1526 H 0.35737 0.89867 0.10679 0.0
H1527 H 0.34607 0.90776 1.01829 0.0
H1528 H 0.27328 0.88384 0.02744 0.0
H1529 H 0.29888 0.89414 0.03771 0.0
C1530 C 0.47353 0.08405 0.67655 0.0
C1531 C 0.46489 0.06981 0.68616 0.0
C1532 C 0.46941 0.09426 0.68244 0.0
C1533 C 0.44933 0.1039 0.73276 0.0
H1534 H 0.43736 0.11744 0.66385 0.0
C1535 C 0.42463 0.1412 0.73999 0.0
C1536 C 0.41043 0.13393 0.72947 0.0
C1537 C 0.43375 0.13571 0.73424 0.0
C1538 C 0.44089 0.11392 0.68321 0.0
H1539 H 0.4456 0.05514 0.71042 0.0
H1540 H 0.43869 0.0731 0.72158 0.0
H1541 H 0.44958 0.10361 0.65606 0.0
H1542 H 0.39473 0.11569 0.7038 0.0
H1543 H 0.41083 0.10637 0.69291 0.0
H1544 H 0.44038 0.11394 0.7599 0.0
C1545 C 0.44848 0.07629 0.70916 0.0
C1546 C 0.4479 0.10609 0.67878 0.0
C1547 C 0.45239 0.06604 0.70263 0.0
C1548 C 0.40562 0.12142 0.71229 0.0
C1549 C 0.41482 0.11615 0.70591 0.0
C1550 C 0.44263 0.112 0.73719 0.0
C1551 C 0.45684 0.09041 0.69877 0.0
C1552 C 0.45179 0.1007 0.70353 0.0
C1553 C 0.42888 0.12315 0.71716 0.0
C1554 C 0.43801 0.11671 0.71244 0.0
H1555 H 0.48322 0.08718 0.6638 0.0
H1556 H 0.47596 0.10511 0.67417 0.0
H1557 H 0.45221 0.09975 0.75211 0.0
H1558 H 0.42856 0.15088 0.7533 0.0
H1559 H 0.44456 0.14122 0.74316 0.0
C1560 C 0.90342 0.37191 0.6851 0.0
C1561 C 0.91563 0.37822 0.70354 0.0
C1562 C 0.89311 0.35741 0.68874 0.0
C1563 C 0.87929 0.32659 0.73982 0.0
H1564 H 0.87707 0.30404 0.66977 0.0
C1565 C 0.84773 0.26457 0.7391 0.0
C1566 C 0.85615 0.25849 0.73105 0.0
C1567 C 0.85268 0.27911 0.734 0.0
C1568 C 0.87749 0.31022 0.68938 0.0
H1569 H 0.9263 0.37492 0.74137 0.0
H1570 H 0.90802 0.34981 0.74861 0.0
H1571 H 0.88895 0.33023 0.66593 0.0
H1572 H 0.87605 0.2626 0.71034 0.0
H1573 H 0.88462 0.28805 0.70084 0.0
H1574 H 0.86814 0.30662 0.76347 0.0
C1575 C 0.90645 0.35591 0.73116 0.0
C1576 C 0.88414 0.32515 0.68713 0.0
C1577 C 0.91689 0.37024 0.72702 0.0
C1578 C 0.86939 0.26706 0.71684 0.0
C1579 C 0.87423 0.28156 0.71127 0.0
C1580 C 0.8724 0.31165 0.74193 0.0
C1581 C 0.89475 0.34923 0.71139 0.0
C1582 C 0.88542 0.33347 0.71253 0.0
C1583 C 0.86602 0.28776 0.72026 0.0
C1584 C 0.87178 0.30337 0.71693 0.0
H1585 H 0.90235 0.37787 0.66662 0.0
H1586 H 0.88416 0.35244 0.67324 0.0
H1587 H 0.88021 0.33281 0.75972 0.0
H1588 H 0.83745 0.25819 0.75003 0.0
H1589 H 0.84613 0.28363 0.74101 0.0
C1590 C 0.61429 0.52819 0.66838 0.0
C1591 C 0.60388 0.52334 0.69112 0.0
C1592 C 0.62878 0.53408 0.67562 0.0
C1593 C 0.65422 0.55325 0.73589 0.0
H1594 H 0.67999 0.54576 0.68838 0.0
C1595 C 0.71836 0.57193 0.73085 0.0
C1596 C 0.72411 0.58686 0.7315 0.0
C1597 C 0.70352 0.56274 0.72837 0.0
C1598 C 0.67291 0.54783 0.70207 0.0
H1599 H 0.60033 0.52059 0.7392 0.0
H1600 H 0.62576 0.53106 0.75196 0.0
H1601 H 0.65412 0.53174 0.67947 0.0
H1602 H 0.71893 0.6039 0.73031 0.0
H1603 H 0.69313 0.58792 0.72631 0.0
H1604 H 0.673 0.56957 0.75798 0.0
C1605 C 0.6227 0.53029 0.72853 0.0
C1606 C 0.65813 0.5399 0.69681 0.0
C1607 C 0.60816 0.52427 0.72125 0.0
C1608 C 0.7148 0.59243 0.72992 0.0
C1609 C 0.70002 0.58328 0.72783 0.0
C1610 C 0.66899 0.56126 0.74094 0.0
C1611 C 0.63316 0.53535 0.70578 0.0
C1612 C 0.64866 0.54269 0.71333 0.0
C1613 C 0.69421 0.56834 0.72696 0.0
C1614 C 0.6785 0.55881 0.72372 0.0
H1615 H 0.61125 0.52755 0.64495 0.0
H1616 H 0.63659 0.53804 0.65762 0.0
H1617 H 0.64721 0.55572 0.74884 0.0
H1618 H 0.72533 0.56738 0.73201 0.0
H1619 H 0.69932 0.55126 0.72781 0.0
C1620 C 0.85088 0.57569 0.23993 0.0
C1621 C 0.86109 0.59036 0.24218 0.0
C1622 C 0.8551 0.56576 0.23174 0.0
C1623 C 0.88373 0.56357 0.19148 0.0
H1624 H 0.87228 0.52881 0.23712 0.0
C1625 C 0.90352 0.52519 0.15735 0.0
C1626 C 0.90975 0.5214 0.18073 0.0
C1627 C 0.89492 0.53119 0.16373 0.0
C1628 C 0.87552 0.53845 0.22412 0.0
H1629 H 0.88365 0.60614 0.23781 0.0
H1630 H 0.89095 0.58892 0.22339 0.0
H1631 H 0.86267 0.54447 0.25054 0.0
H1632 H 0.91106 0.51994 0.22911 0.0
H1633 H 0.89612 0.53054 0.24032 0.0
H1634 H 0.89686 0.55791 0.1656 0.0
C1635 C 0.87971 0.58506 0.22779 0.0
C1636 C 0.86994 0.54735 0.23165 0.0
C1637 C 0.87553 0.5949 0.23622 0.0
C1638 C 0.90644 0.52282 0.21064 0.0
C1639 C 0.89782 0.52883 0.21704 0.0
C1640 C 0.88919 0.55466 0.18382 0.0
C1641 C 0.86955 0.57039 0.22529 0.0
C1642 C 0.87423 0.56015 0.21576 0.0
C1643 C 0.89237 0.53353 0.19364 0.0
C1644 C 0.88534 0.54211 0.20031 0.0
H1645 H 0.83965 0.57192 0.24438 0.0
H1646 H 0.84704 0.55452 0.22988 0.0
H1647 H 0.88711 0.57329 0.17864 0.0
H1648 H 0.90576 0.52408 0.13407 0.0
H1649 H 0.89066 0.53444 0.14521 0.0
C1650 C 0.41559 0.27419 0.2504 0.0
C1651 C 0.40148 0.26784 0.23954 0.0
C1652 C 0.42453 0.28911 0.24937 0.0
C1653 C 0.42195 0.32214 0.24232 0.0
H1654 H 0.46282 0.34085 0.22736 0.0
C1655 C 0.46982 0.38102 0.2025 0.0
C1656 C 0.46489 0.38932 0.21693 0.0
C1657 C 0.46374 0.36643 0.20924 0.0
C1658 C 0.4514 0.3358 0.23139 0.0
H1659 H 0.38588 0.27181 0.21742 0.0
H1660 H 0.40153 0.29759 0.21432 0.0
H1661 H 0.44871 0.31471 0.22868 0.0
H1662 H 0.45083 0.38947 0.25146 0.0
H1663 H 0.44083 0.3643 0.26466 0.0
H1664 H 0.42427 0.34294 0.24312 0.0
C1665 C 0.40561 0.29129 0.22489 0.0
C1666 C 0.44334 0.3208 0.23252 0.0
C1667 C 0.39666 0.27649 0.22641 0.0
C1668 C 0.45462 0.38317 0.23973 0.0
C1669 C 0.44881 0.36872 0.24704 0.0
C1670 C 0.42992 0.33704 0.24073 0.0
C1671 C 0.41953 0.29786 0.23708 0.0
C1672 C 0.42846 0.31379 0.23753 0.0
C1673 C 0.45283 0.35999 0.23101 0.0
C1674 C 0.44474 0.34411 0.235 0.0
H1675 H 0.41953 0.26768 0.26062 0.0
H1676 H 0.43516 0.2938 0.25905 0.0
H1677 H 0.41059 0.31717 0.247 0.0
H1678 H 0.47776 0.38558 0.18479 0.0
H1679 H 0.46707 0.36011 0.19623 0.0
C1680 C 0.60857 0.08007 0.1846 0.0
C1681 C 0.60024 0.06598 0.19515 0.0
C1682 C 0.62327 0.08788 0.19057 0.0
C1683 C 0.6536 0.08281 0.21507 0.0
H1684 H 0.67347 0.12429 0.22021 0.0
C1685 C 0.71369 0.13379 0.24509 0.0
C1686 C 0.72196 0.12829 0.23288 0.0
C1687 C 0.69879 0.12643 0.24134 0.0
C1688 C 0.66812 0.1127 0.21929 0.0
H1689 H 0.60048 0.04915 0.22128 0.0
H1690 H 0.62597 0.06298 0.23321 0.0
H1691 H 0.64761 0.11105 0.21491 0.0
H1692 H 0.72138 0.1112 0.20617 0.0
H1693 H 0.69559 0.09876 0.19809 0.0
H1694 H 0.67397 0.08437 0.22125 0.0
C1695 C 0.62138 0.06788 0.2192 0.0
C1696 C 0.65323 0.10508 0.21569 0.0
C1697 C 0.60673 0.05996 0.21261 0.0
C1698 C 0.71519 0.11557 0.21611 0.0
C1699 C 0.70036 0.10837 0.21176 0.0
C1700 C 0.66844 0.0904 0.21931 0.0
C1701 C 0.62993 0.08188 0.20784 0.0
C1702 C 0.64575 0.09002 0.21318 0.0
C1703 C 0.69189 0.11356 0.22472 0.0
C1704 C 0.67596 0.10548 0.2211 0.0
H1705 H 0.60381 0.08494 0.17094 0.0
H1706 H 0.62943 0.09848 0.1809 0.0
H1707 H 0.64836 0.07127 0.21279 0.0
H1708 H 0.71868 0.14358 0.25824 0.0
H1709 H 0.69269 0.13069 0.25208 0.0
C1710 C 0.59806 0.87509 0.53133 0.0
C1711 C 0.59361 0.86188 0.51725 0.0
C1712 C 0.58888 0.88069 0.53309 0.0
C1713 C 0.55097 0.87189 0.5236 0.0
H1714 H 0.56943 0.91325 0.51693 0.0
C1715 C 0.52217 0.90363 0.5524 0.0
C1716 C 0.52705 0.91705 0.53888 0.0
C1717 C 0.52894 0.89569 0.54625 0.0
C1718 C 0.56397 0.90166 0.51823 0.0
H1719 H 0.57598 0.84387 0.49466 0.0
H1720 H 0.55999 0.85392 0.49658 0.0
H1721 H 0.58367 0.90174 0.51313 0.0
H1722 H 0.54186 0.93221 0.50653 0.0
H1723 H 0.55311 0.91806 0.49432 0.0
H1724 H 0.53114 0.87185 0.52744 0.0
C1725 C 0.57049 0.85985 0.50688 0.0
C1726 C 0.57224 0.89504 0.5167 0.0
C1727 C 0.57964 0.85411 0.50564 0.0
C1728 C 0.53807 0.92196 0.51757 0.0
C1729 C 0.54459 0.91389 0.51084 0.0
C1730 C 0.54261 0.87851 0.52465 0.0
C1731 C 0.57511 0.87336 0.52017 0.0
C1732 C 0.56593 0.88011 0.52 0.0
C1733 C 0.54051 0.9009 0.52595 0.0
C1734 C 0.54904 0.89353 0.52239 0.0
H1735 H 0.60872 0.88119 0.54088 0.0
H1736 H 0.59268 0.89086 0.54443 0.0
H1737 H 0.54572 0.86036 0.52632 0.0
H1738 H 0.51367 0.89963 0.56898 0.0
H1739 H 0.52553 0.88583 0.55856 0.0
C1740 C 0.0831 0.63044 0.58592 0.0
C1741 C 0.07688 0.62015 0.563 0.0
C1742 C 0.09243 0.64482 0.57887 0.0
C1743 C 0.09886 0.67026 0.51887 0.0
H1744 H 0.13231 0.696 0.56601 0.0
C1745 C 0.14468 0.73405 0.52053 0.0
C1746 C 0.13565 0.73996 0.51919 0.0
C1747 C 0.1389 0.71928 0.52473 0.0
C1748 C 0.12308 0.68892 0.55247 0.0
H1749 H 0.07602 0.61662 0.51487 0.0
H1750 H 0.09229 0.64183 0.50249 0.0
H1751 H 0.12039 0.6701 0.57496 0.0
H1752 H 0.11359 0.7352 0.52146 0.0
H1753 H 0.10351 0.70947 0.52849 0.0
H1754 H 0.10131 0.68904 0.49688 0.0
C1755 C 0.08988 0.63878 0.52588 0.0
C1756 C 0.11621 0.67413 0.55771 0.0
C1757 C 0.08062 0.62437 0.53296 0.0
C1758 C 0.12079 0.73092 0.52231 0.0
C1759 C 0.11502 0.71619 0.52615 0.0
C1760 C 0.10562 0.68502 0.51385 0.0
C1761 C 0.09564 0.6492 0.54874 0.0
C1762 C 0.10391 0.66468 0.54123 0.0
C1763 C 0.12399 0.7102 0.52723 0.0
C1764 C 0.11765 0.69451 0.53094 0.0
H1765 H 0.08043 0.62745 0.60927 0.0
H1766 H 0.0966 0.65261 0.59695 0.0
H1767 H 0.08932 0.66328 0.50602 0.0
H1768 H 0.15618 0.7408 0.51812 0.0
H1769 H 0.14604 0.71492 0.52541 0.0
C1770 C 0.37894 0.46625 0.60322 0.0
C1771 C 0.38859 0.47102 0.57901 0.0
C1772 C 0.36416 0.4589 0.59812 0.0
C1773 C 0.33629 0.45099 0.5406 0.0
H1774 H 0.31358 0.41729 0.5897 0.0
C1775 C 0.27455 0.41922 0.53403 0.0
C1776 C 0.26794 0.40419 0.53363 0.0
C1777 C 0.28913 0.42765 0.54076 0.0
C1778 C 0.31977 0.42662 0.57569 0.0
H1779 H 0.3904 0.47238 0.53046 0.0
H1780 H 0.36452 0.45945 0.52144 0.0
H1781 H 0.33933 0.43182 0.59828 0.0
H1782 H 0.27125 0.38615 0.5407 0.0
H1783 H 0.2968 0.40088 0.55233 0.0
H1784 H 0.31677 0.4456 0.51756 0.0
C1785 C 0.36837 0.46145 0.54441 0.0
C1786 C 0.33451 0.43506 0.58083 0.0
C1787 C 0.38319 0.46883 0.54955 0.0
C1788 C 0.27609 0.39772 0.54089 0.0
C1789 C 0.2907 0.40616 0.54764 0.0
C1790 C 0.32154 0.44257 0.5355 0.0
C1791 C 0.35869 0.45615 0.56866 0.0
C1792 C 0.34296 0.44734 0.56335 0.0
C1793 C 0.29743 0.42124 0.54725 0.0
C1794 C 0.3131 0.43027 0.55296 0.0
H1795 H 0.3828 0.4679 0.6262 0.0
H1796 H 0.35702 0.45524 0.6173 0.0
H1797 H 0.34246 0.46043 0.52687 0.0
H1798 H 0.26851 0.4245 0.52865 0.0
H1799 H 0.2939 0.43921 0.54079 0.0
C1800 C 0.77634 0.72776 0.37404 0.0
C1801 C 0.79099 0.73459 0.36692 0.0
C1802 C 0.76961 0.73578 0.37924 0.0
C1803 C 0.77364 0.77131 0.36296 0.0
H1804 H 0.74218 0.7586 0.41946 0.0
C1805 C 0.7455 0.80392 0.39051 0.0
C1806 C 0.73045 0.79615 0.39186 0.0
C1807 C 0.7533 0.79679 0.38777 0.0
C1808 C 0.75088 0.76221 0.40342 0.0
H1809 H 0.81027 0.75518 0.36101 0.0
H1810 H 0.7986 0.76928 0.37088 0.0
H1811 H 0.75553 0.74585 0.41641 0.0
H1812 H 0.71173 0.77488 0.39095 0.0
H1813 H 0.72537 0.76238 0.38636 0.0
H1814 H 0.76901 0.78778 0.35027 0.0
C1815 C 0.79221 0.7577 0.3717 0.0
C1816 C 0.75853 0.75491 0.40165 0.0
C1817 C 0.79894 0.74964 0.3663 0.0
C1818 C 0.72332 0.78113 0.38999 0.0
C1819 C 0.73113 0.77398 0.38756 0.0
C1820 C 0.76605 0.7787 0.36495 0.0
C1821 C 0.7774 0.75085 0.37772 0.0
C1822 C 0.76991 0.75925 0.38114 0.0
C1823 C 0.7462 0.78173 0.38664 0.0
C1824 C 0.75449 0.77413 0.38497 0.0
H1825 H 0.76993 0.71617 0.37465 0.0
H1826 H 0.75818 0.7301 0.3834 0.0
H1827 H 0.78217 0.77484 0.34656 0.0
H1828 H 0.75127 0.81552 0.39195 0.0
H1829 H 0.7649 0.80304 0.38729 0.0
C1830 C 0.18878 0.93629 0.40612 0.0
C1831 C 0.19415 0.92763 0.39546 0.0
C1832 C 0.19677 0.95117 0.40312 0.0
C1833 C 0.21182 0.98182 0.3823 0.0
H1834 H 0.2533 0.00107 0.38418 0.0
C1835 C 0.24658 0.04219 0.35598 0.0
C1836 C 0.26017 0.04997 0.36929 0.0
C1837 C 0.23831 0.02736 0.36002 0.0
C1838 C 0.24172 0.99595 0.38412 0.0
H1839 H 0.21185 0.92758 0.3726 0.0
H1840 H 0.22555 0.95356 0.36576 0.0
H1841 H 0.23954 0.97526 0.38977 0.0
H1842 H 0.27553 0.04861 0.39849 0.0
H1843 H 0.2608 0.02289 0.40715 0.0
H1844 H 0.21397 0.00256 0.37855 0.0
C1845 C 0.21542 0.94898 0.37753 0.0
C1846 C 0.23379 0.98102 0.3867 0.0
C1847 C 0.20753 0.93407 0.38118 0.0
C1848 C 0.2651 0.0428 0.3878 0.0
C1849 C 0.25671 0.02802 0.39243 0.0
C1850 C 0.21975 0.99677 0.3804 0.0
C1851 C 0.2102 0.95777 0.3887 0.0
C1852 C 0.21871 0.97371 0.38571 0.0
C1853 C 0.24332 0.02001 0.37805 0.0
C1854 C 0.23482 0.00407 0.3811 0.0
H1855 H 0.17852 0.9316 0.41748 0.0
H1856 H 0.19247 0.95748 0.41269 0.0
H1857 H 0.20026 0.97666 0.38088 0.0
H1858 H 0.24257 0.04747 0.34139 0.0
H1859 H 0.22821 0.02165 0.34813 0.0
C1860 C 0.95092 0.20552 0.33077 0.0
C1861 C 0.94143 0.19267 0.34535 0.0
C1862 C 0.96568 0.21201 0.33585 0.0
C1863 C 0.99163 0.21205 0.39128 0.0
H1864 H 0.01925 0.23608 0.33117 0.0
C1865 C 0.05041 0.25219 0.42189 0.0
C1866 C 0.06111 0.25548 0.40032 0.0
C1867 C 0.03596 0.24327 0.41457 0.0
C1868 C 0.01175 0.22923 0.34815 0.0
H1869 H 0.93983 0.17595 0.37465 0.0
H1870 H 0.96557 0.18685 0.38272 0.0
H1871 H 0.99404 0.22238 0.31804 0.0
H1872 H 0.06517 0.25175 0.35445 0.0
H1873 H 0.0401 0.23557 0.34208 0.0
H1874 H 0.00939 0.21844 0.42103 0.0
C1875 C 0.9617 0.19235 0.36847 0.0
C1876 C -0.00281 0.22154 0.34073 0.0
C1877 C 0.94694 0.18604 0.36382 0.0
C1878 C 0.05715 0.24933 0.37159 0.0
C1879 C 0.04273 0.2402 0.3644 0.0
C1880 C 0.0062 0.21955 0.39855 0.0
C1881 C 0.97127 0.20561 0.35513 0.0
C1882 C 0.98689 0.21302 0.36231 0.0
C1883 C 0.0319 0.23724 0.38561 0.0
C1884 C 0.01646 0.22844 0.37725 0.0
H1885 H 0.94689 0.21086 0.31645 0.0
H1886 H 0.97262 0.22229 0.32545 0.0
H1887 H 0.98407 0.20578 0.40871 0.0
H1888 H 0.05316 0.25687 0.44418 0.0
H1889 H 0.02798 0.24149 0.4314 0.0
C1890 C 0.2481 0.19741 0.89427 0.0
C1891 C 0.24573 0.18732 0.87179 0.0
C1892 C 0.23816 0.20191 0.89912 0.0
C1893 C 0.21497 0.20971 0.85647 0.0
H1894 H 0.20279 0.21644 0.9339 0.0
C1895 C 0.20547 0.25669 0.88187 0.0
C1896 C 0.19259 0.25344 0.89617 0.0
C1897 C 0.2092 0.2461 0.87802 0.0
C1898 C 0.20595 0.21446 0.91211 0.0
H1899 H 0.23092 0.17346 0.83764 0.0
H1900 H 0.21365 0.18176 0.84544 0.0
H1901 H 0.21365 0.20116 0.93068 0.0
H1902 H 0.17347 0.23667 0.91764 0.0
H1903 H 0.1803 0.2182 0.91183 0.0
H1904 H 0.20814 0.22375 0.83819 0.0
C1905 C 0.22311 0.18598 0.85957 0.0
C1906 C 0.21216 0.20577 0.91029 0.0
C1907 C 0.23292 0.18122 0.8552 0.0
C1908 C 0.18348 0.23942 0.90655 0.0
C1909 C 0.18736 0.22889 0.90327 0.0
C1910 C 0.20903 0.21862 0.85838 0.0
C1911 C 0.22583 0.19661 0.88113 0.0
C1912 C 0.21698 0.20356 0.88253 0.0
C1913 C 0.20024 0.23215 0.88891 0.0
C1914 C 0.20475 0.2213 0.8863 0.0
H1915 H 0.25791 0.20223 0.90735 0.0
H1916 H 0.24057 0.2102 0.91568 0.0
H1917 H 0.21876 0.20831 0.83487 0.0
H1918 H 0.21265 0.26741 0.87356 0.0
H1919 H 0.21926 0.24889 0.86713 0.0
C1920 C 0.78841 0.05638 0.86343 0.0
C1921 C 0.80207 0.06479 0.85094 0.0
C1922 C 0.78246 0.04156 0.86607 0.0
C1923 C 0.79117 0.01205 0.86175 0.0
H1924 H 0.7499 0.98912 0.85355 0.0
C1925 C 0.74123 0.94898 0.85578 0.0
C1926 C 0.74618 0.9429 0.8771 0.0
C1927 C 0.74925 0.96358 0.84905 0.0
C1928 C 0.76147 0.99524 0.8553 0.0
H1929 H 0.82038 0.06449 0.83171 0.0
H1930 H 0.80974 0.03848 0.83485 0.0
H1931 H 0.76145 0.01479 0.84839 0.0
H1932 H 0.76355 0.947 0.90743 0.0
H1933 H 0.77724 0.97268 0.89715 0.0
H1934 H 0.79119 0.99231 0.86703 0.0
C1935 C 0.80372 0.04329 0.84349 0.0
C1936 C 0.76811 0.01012 0.85302 0.0
C1937 C 0.80981 0.05819 0.84148 0.0
C1938 C 0.75957 0.95149 0.89075 0.0
C1939 C 0.76743 0.96621 0.88469 0.0
C1940 C 0.78454 0.99708 0.8634 0.0
C1941 C 0.78989 0.03474 0.85556 0.0
C1942 C 0.78302 0.01879 0.85673 0.0
C1943 C 0.76219 0.97254 0.8643 0.0
C1944 C 0.76955 0.98845 0.86054 0.0
H1945 H 0.78232 0.06126 0.87128 0.0
H1946 H 0.772 0.03549 0.8764 0.0
H1947 H 0.80266 0.01831 0.86496 0.0
H1948 H 0.73099 0.94248 0.84473 0.0
H1949 H 0.74507 0.96786 0.83241 0.0
C1950 C 0.04083 0.80015 0.92346 0.0
C1951 C 0.05128 0.80627 0.90088 0.0
C1952 C 0.02631 0.79427 0.91641 0.0
C1953 C 0.00177 0.777 0.85397 0.0
H1954 H 0.97414 0.78029 0.90431 0.0
C1955 C 0.94168 0.73532 0.85391 0.0
C1956 C 0.93192 0.74035 0.85333 0.0
C1957 C 0.95632 0.74486 0.85756 0.0
C1958 C 0.98176 0.7794 0.88988 0.0
H1959 H 0.05487 0.81162 0.8535 0.0
H1960 H 0.02947 0.80123 0.84113 0.0
H1961 H -0.00019 0.79503 0.9152 0.0
H1962 H 0.92972 0.75926 0.85596 0.0
H1963 H 0.95544 0.77601 0.86303 0.0
H1964 H 0.98375 0.7611 0.82918 0.0
C1965 C 0.0325 0.80093 0.86423 0.0
C1966 C 0.99641 0.78774 0.89623 0.0
C1967 C 0.04702 0.80692 0.87134 0.0
C1968 C 0.93705 0.75512 0.85638 0.0
C1969 C 0.95171 0.76467 0.8605 0.0
C1970 C 0.98715 0.76856 0.84786 0.0
C1971 C 0.02198 0.79431 0.88659 0.0
C1972 C 0.00655 0.78649 0.87853 0.0
C1973 C 0.96147 0.75961 0.86107 0.0
C1974 C 0.97699 0.76952 0.86599 0.0
H1975 H 0.04385 0.79957 0.94644 0.0
H1976 H 0.01843 0.78914 0.93406 0.0
H1977 H 0.00931 0.7757 0.84011 0.0
H1978 H 0.93801 0.72398 0.85164 0.0
H1979 H 0.96358 0.74065 0.85827 0.0
C1980 C 0.01395 0.46563 0.98628 0.0
C1981 C 0.02895 0.4744 0.98474 0.0
C1982 C 0.00598 0.45828 0.96072 0.0
C1983 C 0.00844 0.45872 0.87702 0.0
H1984 H 0.97523 0.4206 0.88283 0.0
C1985 C 0.97885 0.42701 0.7705 0.0
C1986 C 0.9638 0.42026 0.771 0.0
C1987 C 0.98685 0.43232 0.79704 0.0
C1988 C 0.98443 0.43128 0.88082 0.0
H1989 H 0.04729 0.48201 0.95495 0.0
H1990 H 0.03354 0.4691 0.91094 0.0
H1991 H 0.98888 0.43256 0.92809 0.0
H1992 H 0.94537 0.41315 0.8003 0.0
H1993 H 0.95926 0.42237 0.84638 0.0
H1994 H 0.004 0.4575 0.82986 0.0
C1995 C 0.02783 0.4681 0.93165 0.0
C1996 C 0.99225 0.43817 0.90684 0.0
C1997 C 0.03576 0.47546 0.95708 0.0
C1998 C 0.95694 0.41829 0.79897 0.0
C1999 C 0.96493 0.42355 0.82551 0.0
C2000 C 0.00067 0.45183 0.85106 0.0
C2001 C 0.01281 0.45948 0.93296 0.0
C2002 C 0.00438 0.45201 0.90532 0.0
C2003 C 0.98001 0.43098 0.82482 0.0
C2004 C 0.98855 0.43801 0.85255 0.0
H2005 H 0.00832 0.46457 1.00714 0.0
H2006 H 0.99443 0.45188 0.9626 0.0
H2007 H 0.01751 0.46948 0.8749 0.0
H2008 H 0.98454 0.4288 0.74943 0.0
H2009 H -0.00157 0.43776 0.79568 0.0
C2010 C 0.53691 0.55363 0.98031 0.0
C2011 C 0.52846 0.56023 0.98081 0.0
C2012 C 0.54059 0.54978 0.95309 0.0
C2013 C 0.52877 0.5412 0.8737 0.0
H2014 H 0.56543 0.54303 0.86422 0.0
C2015 C 0.55682 0.51438 0.7968 0.0
C2016 C 0.55269 0.51578 0.76751 0.0
C2017 C 0.55411 0.52079 0.82136 0.0
C2018 C 0.55509 0.54233 0.86654 0.0
H2019 H 0.51758 0.56827 0.95263 0.0
H2020 H 0.52419 0.56174 0.90507 0.0
H2021 H 0.56081 0.55298 0.90918 0.0
H2022 H 0.54222 0.52495 0.74143 0.0
H2023 H 0.53747 0.53616 0.7845 0.0
H2024 H 0.52306 0.53042 0.83102 0.0
C2025 C 0.52782 0.55938 0.92587 0.0
C2026 C 0.55243 0.54805 0.8924 0.0
C2027 C 0.52416 0.56327 0.95319 0.0
C2028 C 0.54557 0.52363 0.7636 0.0
C2029 C 0.5428 0.53003 0.78833 0.0
C2030 C 0.53145 0.53549 0.84773 0.0
C2031 C 0.53594 0.5524 0.92546 0.0
C2032 C 0.53915 0.54736 0.89664 0.0
C2033 C 0.54716 0.5288 0.81752 0.0
C2034 C 0.54456 0.53576 0.84405 0.0
H2035 H 0.54037 0.55102 1.00106 0.0
H2036 H 0.54668 0.54427 0.95383 0.0
H2037 H 0.51836 0.54032 0.87625 0.0
H2038 H 0.56226 0.50837 0.8009 0.0
H2039 H 0.55739 0.51935 0.84351 0.0
C2040 C 0.42877 0.95296 0.9532 0.0
C2041 C 0.43341 0.95889 0.98203 0.0
C2042 C 0.43161 0.96182 0.92807 0.0
C2043 C 0.45641 -0.00137 0.901 0.0
H2044 H 0.42846 0.98828 0.83702 0.0
C2045 C 0.46781 0.03485 0.79632 0.0
C2046 C 0.4638 0.02782 0.76832 0.0
C2047 C 0.46314 0.02704 0.8232 0.0
C2048 C 0.43644 0.99129 0.85455 0.0
H2049 H 0.44454 0.97889 1.0069 0.0
H2050 H 0.44941 0.99429 0.96314 0.0
H2051 H 0.4222 0.97352 0.88217 0.0
H2052 H 0.45133 0.00704 0.74688 0.0
H2053 H 0.44331 0.99351 0.79344 0.0
H2054 H 0.47074 0.01625 0.8732 0.0
C2055 C 0.44367 0.98278 0.95993 0.0
C2056 C 0.43285 0.9828 0.88048 0.0
C2057 C 0.44077 0.97391 0.9851 0.0
C2058 C 0.45461 0.01286 0.76795 0.0
C2059 C 0.44994 0.00507 0.79476 0.0
C2060 C 0.46002 0.0071 0.87503 0.0
C2061 C 0.43923 0.97686 0.93103 0.0
C2062 C 0.44282 0.98628 0.90397 0.0
C2063 C 0.45431 0.012 0.8228 0.0
C2064 C 0.45013 0.00348 0.85129 0.0
H2065 H 0.42314 0.94145 0.94988 0.0
H2066 H 0.42817 0.95687 0.90616 0.0
H2067 H 0.46444 0.00153 0.9184 0.0
H2068 H 0.47489 0.04635 0.79754 0.0
H2069 H 0.46655 0.03279 0.84433 0.0
C2070 C 0.97494 0.54255 0.26256 0.0
C2071 C 0.96006 0.53309 0.26426 0.0
C2072 C 0.98311 0.54847 0.28876 0.0
C2073 C 0.98143 0.54195 0.37164 0.0
H2074 H 0.01545 0.57963 0.37348 0.0
C2075 C 0.01321 0.56642 0.48192 0.0
C2076 C 0.02823 0.57293 0.48005 0.0
C2077 C 0.00476 0.56256 0.45579 0.0
C2078 C 0.00602 0.56904 0.37331 0.0
H2079 H 0.94203 0.52311 0.29499 0.0
H2080 H 0.95606 0.53374 0.34017 0.0
H2081 H 0.00103 0.57132 0.32768 0.0
H2082 H 0.04609 0.58085 0.44886 0.0
H2083 H 0.0314 0.57423 0.40357 0.0
H2084 H 0.9864 0.5397 0.41727 0.0
C2085 C 0.96159 0.53626 0.31879 0.0
C2086 C -0.00226 0.56424 0.34695 0.0
C2087 C 0.95348 0.53025 0.29271 0.0
C2088 C 0.03457 0.57586 0.45131 0.0
C2089 C 0.02614 0.57212 0.42523 0.0
C2090 C 0.98963 0.54679 0.398 0.0
C2091 C 0.97658 0.54519 0.31737 0.0
C2092 C 0.98533 0.55059 0.34565 0.0
C2093 C 0.0111 0.56523 0.42707 0.0
C2094 C 0.00208 0.56037 0.3992 0.0
H2095 H 0.9804 0.54496 0.24109 0.0
H2096 H 0.99461 0.55519 0.28659 0.0
H2097 H 0.97218 0.53125 0.37153 0.0
H2098 H 0.00793 0.56396 0.50359 0.0
H2099 H 0.99322 0.55743 0.45809 0.0
C2100 C 0.46386 0.44596 0.27626 0.0
C2101 C 0.47352 0.44075 0.27704 0.0
C2102 C 0.45923 0.44933 0.30288 0.0
C2103 C 0.45541 0.44227 0.38495 0.0
H2104 H 0.45245 0.47667 0.38789 0.0
C2105 C 0.44317 0.46332 0.49559 0.0
C2106 C 0.43497 0.47016 0.49335 0.0
C2107 C 0.44754 0.4591 0.46965 0.0
C2108 C 0.45298 0.46689 0.38743 0.0
H2109 H 0.48584 0.43502 0.30683 0.0
H2110 H 0.47775 0.4409 0.35317 0.0
H2111 H 0.46079 0.47078 0.34216 0.0
H2112 H 0.42442 0.47728 0.46183 0.0
H2113 H 0.43161 0.46958 0.41707 0.0
H2114 H 0.44749 0.43833 0.43021 0.0
C2115 C 0.47368 0.44229 0.33191 0.0
C2116 C 0.45783 0.46353 0.36112 0.0
C2117 C 0.4784 0.439 0.30525 0.0
C2118 C 0.43079 0.47213 0.46457 0.0
C2119 C 0.43506 0.46783 0.43874 0.0
C2120 C 0.45049 0.44559 0.41129 0.0
C2121 C 0.46405 0.44753 0.33109 0.0
C2122 C 0.45907 0.45116 0.35944 0.0
C2123 C 0.44376 0.46153 0.44079 0.0
C2124 C 0.44913 0.45793 0.41288 0.0
H2125 H 0.45983 0.44743 0.25503 0.0
H2126 H 0.45168 0.45318 0.30135 0.0
H2127 H 0.45608 0.43256 0.38439 0.0
H2128 H 0.44665 0.46168 0.51733 0.0
H2129 H 0.45431 0.45438 0.47224 0.0
C2130 C 0.53946 0.01346 0.26421 0.0
C2131 C 0.54805 0.02849 0.26557 0.0
C2132 C 0.53542 0.00519 0.2905 0.0
C2133 C 0.54547 0.00602 0.37058 0.0
H2134 H 0.50687 0.97372 0.3781 0.0
C2135 C 0.52457 0.97426 0.4821 0.0
C2136 C 0.51551 0.9593 0.48029 0.0
C2137 C 0.52846 0.98279 0.45616 0.0
C2138 C 0.51776 0.98258 0.37629 0.0
H2139 H 0.55911 0.04655 0.29602 0.0
H2140 H 0.55202 0.03214 0.34176 0.0
H2141 H 0.51377 0.98834 0.33271 0.0
H2142 H 0.50353 0.94163 0.44941 0.0
H2143 H 0.51047 0.95641 0.40432 0.0
H2144 H 0.54952 0.00021 0.41403 0.0
C2145 C 0.54851 0.02673 0.32029 0.0
C2146 C 0.52171 0.991 0.3502 0.0
C2147 C 0.5525 0.03502 0.29399 0.0
C2148 C 0.51048 0.9531 0.4518 0.0
C2149 C 0.5144 0.96163 0.42586 0.0
C2150 C 0.54153 0.99757 0.39664 0.0
C2151 C 0.53989 0.01169 0.31892 0.0
C2152 C 0.53563 0.00282 0.34694 0.0
C2153 C 0.52344 0.9766 0.42763 0.0
C2154 C 0.52762 0.9857 0.39988 0.0
H2155 H 0.53583 0.00803 0.24278 0.0
H2156 H 0.52895 0.99364 0.2885 0.0
H2157 H 0.55634 0.0149 0.36873 0.0
H2158 H 0.52861 0.97945 0.50361 0.0
H2159 H 0.53526 0.99428 0.45857 0.0
C2160 C 0.70173 0.81617 0.28457 0.0
C2161 C 0.69514 0.81296 0.31305 0.0
C2162 C 0.69345 0.81203 0.25818 0.0
C2163 C 0.65692 0.78638 0.22981 0.0
H2164 H 0.66788 0.81218 0.16165 0.0
C2165 C 0.61893 0.77445 0.12833 0.0
C2166 C 0.62489 0.77785 0.09929 0.0
C2167 C 0.62773 0.77886 0.1539 0.0
C2168 C 0.66474 0.80475 0.1803 0.0
H2169 H 0.67458 0.80285 0.33583 0.0
H2170 H 0.66024 0.79569 0.29005 0.0
H2171 H 0.68277 0.81954 0.20684 0.0
H2172 H 0.64491 0.78869 0.07461 0.0
H2173 H 0.66025 0.79621 0.11915 0.0
H2174 H 0.63894 0.77157 0.20337 0.0
C2175 C 0.67181 0.8013 0.28804 0.0
C2176 C 0.67329 0.80899 0.20629 0.0
C2177 C 0.68007 0.80549 0.31438 0.0
C2178 C 0.63992 0.78587 0.09656 0.0
C2179 C 0.64873 0.79027 0.12219 0.0
C2180 C 0.64839 0.78213 0.20384 0.0
C2181 C 0.67836 0.80448 0.25954 0.0
C2182 C 0.66946 0.7999 0.23149 0.0
C2183 C 0.64277 0.78678 0.15126 0.0
C2184 C 0.65211 0.79127 0.17873 0.0
H2185 H 0.7133 0.82191 0.28258 0.0
H2186 H 0.69889 0.81456 0.23669 0.0
H2187 H 0.65374 0.77897 0.2485 0.0
H2188 H 0.60742 0.76839 0.13144 0.0
H2189 H 0.62268 0.77617 0.17581 0.0
C2190 C 0.22265 0.8457 0.13425 0.0
C2191 C 0.2213 0.85109 0.10637 0.0
C2192 C 0.21784 0.849 0.16074 0.0
C2193 C 0.208 0.87471 0.19319 0.0
H2194 H 0.18569 0.84403 0.24949 0.0
C2195 C 0.17647 0.88194 0.29014 0.0
C2196 C 0.17664 0.87608 0.31829 0.0
C2197 C 0.18192 0.87871 0.26459 0.0
C2198 C 0.19204 0.85277 0.23421 0.0
H2199 H 0.21418 0.86451 0.08474 0.0
H2200 H 0.20589 0.87026 0.13069 0.0
H2201 H 0.19596 0.83922 0.20512 0.0
H2202 H 0.1825 0.86199 0.34138 0.0
H2203 H 0.19212 0.85651 0.29699 0.0
H2204 H 0.20414 0.88829 0.22218 0.0
C2205 C 0.2107 0.86354 0.1322 0.0
C2206 C 0.19795 0.85001 0.20876 0.0
C2207 C 0.21542 0.86018 0.10577 0.0
C2208 C 0.18218 0.86672 0.32011 0.0
C2209 C 0.18764 0.86349 0.29455 0.0
C2210 C 0.20214 0.87749 0.21864 0.0
C2211 C 0.21168 0.85786 0.16 0.0
C2212 C 0.20594 0.86093 0.18782 0.0
C2213 C 0.18771 0.86955 0.26648 0.0
C2214 C 0.19401 0.86655 0.23944 0.0
H2215 H 0.22707 0.83862 0.13557 0.0
H2216 H 0.2189 0.84458 0.18181 0.0
H2217 H 0.21427 0.88343 0.17779 0.0
H2218 H 0.17226 0.88916 0.28779 0.0
H2219 H 0.18156 0.88338 0.24328 0.0
C2220 C 0.10105 0.29554 0.28617 0.0
C2221 C 0.10492 0.30188 0.31487 0.0
C2222 C 0.10418 0.30403 0.26029 0.0
C2223 C 0.12922 0.3403 0.23194 0.0
H2224 H 0.10197 0.32999 0.16658 0.0
C2225 C 0.14177 0.37691 0.12756 0.0
C2226 C 0.13686 0.37035 0.09932 0.0
C2227 C 0.13737 0.36878 0.15406 0.0
C2228 C 0.10982 0.33296 0.18438 0.0
H2229 H 0.11489 0.32221 0.33865 0.0
H2230 H 0.12044 0.33696 0.29356 0.0
H2231 H 0.09513 0.3154 0.21205 0.0
H2232 H 0.12343 0.35 0.07703 0.0
H2233 H 0.11607 0.33582 0.12294 0.0
H2234 H 0.14405 0.35762 0.2042 0.0
C2235 C 0.11502 0.32541 0.2911 0.0
C2236 C 0.10584 0.32459 0.21056 0.0
C2237 C 0.11174 0.31692 0.317 0.0
C2238 C 0.12737 0.35546 0.09834 0.0
C2239 C 0.12306 0.34731 0.12481 0.0
C2240 C 0.13325 0.34859 0.20567 0.0
C2241 C 0.1114 0.31908 0.26238 0.0
C2242 C 0.11549 0.32814 0.23469 0.0
C2243 C 0.12802 0.35383 0.15313 0.0
C2244 C 0.12362 0.34506 0.18142 0.0
H2245 H 0.09582 0.284 0.28356 0.0
H2246 H 0.10133 0.29879 0.23855 0.0
H2247 H 0.137 0.34323 0.24989 0.0
H2248 H 0.14904 0.38836 0.12928 0.0
H2249 H 0.14124 0.37429 0.17533 0.0
C2250 C 0.64859 0.86888 0.60418 0.0
C2251 C 0.63363 0.85969 0.60483 0.0
C2252 C 0.65651 0.87359 0.63082 0.0
C2253 C 0.65403 0.87773 0.71308 0.0
H2254 H 0.68981 0.87729 0.71416 0.0
C2255 C 0.6878 0.88715 0.82205 0.0
C2256 C 0.70283 0.89491 0.81925 0.0
C2257 C 0.67898 0.88319 0.7965 0.0
C2258 C 0.67996 0.87768 0.71422 0.0
H2259 H 0.61526 0.84861 0.63434 0.0
H2260 H 0.62914 0.8569 0.68098 0.0
H2261 H 0.67514 0.86998 0.66897 0.0
H2262 H 0.7203 0.90486 0.78721 0.0
H2263 H 0.70501 0.89822 0.74297 0.0
H2264 H 0.65892 0.88547 0.75847 0.0
C2265 C 0.6347 0.8605 0.65972 0.0
C2266 C 0.67151 0.87346 0.68822 0.0
C2267 C 0.62674 0.85574 0.63295 0.0
C2268 C 0.70879 0.89884 0.79031 0.0
C2269 C 0.69999 0.89493 0.76483 0.0
C2270 C 0.66252 0.882 0.73917 0.0
C2271 C 0.64974 0.86927 0.65897 0.0
C2272 C 0.65848 0.87352 0.68716 0.0
C2273 C 0.68496 0.88688 0.76749 0.0
C2274 C 0.67567 0.88213 0.74001 0.0
H2275 H 0.6543 0.87223 0.58302 0.0
H2276 H 0.66801 0.88056 0.62933 0.0
H2277 H 0.64411 0.878 0.71302 0.0
H2278 H 0.68282 0.88386 0.84395 0.0
H2279 H 0.66747 0.87689 0.79947 0.0
C2280 C 0.12976 0.78833 0.59647 0.0
C2281 C 0.13767 0.78116 0.59763 0.0
C2282 C 0.12446 0.79114 0.62276 0.0
C2283 C 0.11538 0.78055 0.70242 0.0
H2284 H 0.12144 0.81901 0.71155 0.0
C2285 C 0.10557 0.80117 0.81563 0.0
C2286 C 0.10039 0.81085 0.81481 0.0
C2287 C 0.10947 0.79696 0.78909 0.0
C2288 C 0.11943 0.80814 0.70928 0.0
H2289 H 0.1457 0.77085 0.62753 0.0
H2290 H 0.13624 0.77557 0.67338 0.0
H2291 H 0.12905 0.81247 0.66559 0.0
H2292 H 0.09477 0.82324 0.7851 0.0
H2293 H 0.10125 0.81571 0.73896 0.0
H2294 H 0.10564 0.77616 0.74599 0.0
C2295 C 0.13418 0.77905 0.65203 0.0
C2296 C 0.12384 0.8044 0.68287 0.0
C2297 C 0.13961 0.77634 0.62571 0.0
C2298 C 0.09889 0.81594 0.78669 0.0
C2299 C 0.10269 0.81165 0.76015 0.0
C2300 C 0.11086 0.78426 0.72879 0.0
C2301 C 0.12678 0.78673 0.65094 0.0
C2302 C 0.12189 0.79057 0.67907 0.0
C2303 C 0.1082 0.80222 0.76095 0.0
C2304 C 0.11283 0.79813 0.73265 0.0
H2305 H 0.12797 0.79214 0.57529 0.0
H2306 H 0.11862 0.79689 0.62102 0.0
H2307 H 0.11359 0.76976 0.70011 0.0
H2308 H 0.10695 0.79709 0.83687 0.0
H2309 H 0.11383 0.78985 0.79079 0.0
C2310 C 0.1869 0.28751 0.77826 0.0
C2311 C 0.1917 0.29464 0.80603 0.0
C2312 C 0.19082 0.29524 0.75118 0.0
C2313 C 0.21678 0.33087 0.71821 0.0
H2314 H 0.18704 0.32116 0.65855 0.0
C2315 C 0.22301 0.36989 0.62255 0.0
C2316 C 0.21791 0.36421 0.59373 0.0
C2317 C 0.22013 0.36084 0.64735 0.0
C2318 C 0.19554 0.32393 0.67477 0.0
H2319 H 0.20487 0.31548 0.82676 0.0
H2320 H 0.21163 0.32883 0.77995 0.0
H2321 H 0.18193 0.30622 0.70322 0.0
H2322 H 0.20565 0.34442 0.56866 0.0
H2323 H 0.2007 0.32865 0.6119 0.0
H2324 H 0.23034 0.34868 0.69001 0.0
C2325 C 0.20491 0.31728 0.77891 0.0
C2326 C 0.19261 0.31532 0.70041 0.0
C2327 C 0.20096 0.30958 0.80589 0.0
C2328 C 0.20975 0.34921 0.59048 0.0
C2329 C 0.20684 0.34015 0.61534 0.0
C2330 C 0.2197 0.33948 0.69263 0.0
C2331 C 0.19972 0.31027 0.75117 0.0
C2332 C 0.20314 0.31877 0.7227 0.0
C2333 C 0.21205 0.34584 0.64411 0.0
C2334 C 0.20908 0.33624 0.6707 0.0
H2335 H 0.17976 0.27602 0.77743 0.0
H2336 H 0.18677 0.28945 0.73025 0.0
H2337 H 0.22526 0.33374 0.73455 0.0
H2338 H 0.22926 0.38138 0.62605 0.0
H2339 H 0.22412 0.36564 0.6692 0.0
C2340 C 0.35587 0.13143 0.64827 0.0
C2341 C 0.37095 0.13914 0.64794 0.0
C2342 C 0.34804 0.12669 0.62152 0.0
C2343 C 0.3509 0.13351 0.53935 0.0
H2344 H 0.31532 0.09709 0.53735 0.0
C2345 C 0.31762 0.11005 0.4299 0.0
C2346 C 0.30261 0.10354 0.43231 0.0
C2347 C 0.32631 0.11422 0.45564 0.0
C2348 C 0.32515 0.10736 0.53757 0.0
H2349 H 0.3896 0.1477 0.61891 0.0
H2350 H 0.37591 0.13922 0.57216 0.0
H2351 H 0.32994 0.10431 0.58275 0.0
H2352 H 0.28508 0.09631 0.46404 0.0
H2353 H 0.30016 0.10365 0.50874 0.0
H2354 H 0.34606 0.13651 0.49407 0.0
C2355 C 0.37014 0.13702 0.5932 0.0
C2356 C 0.33357 0.11151 0.56366 0.0
C2357 C 0.37801 0.14179 0.62006 0.0
C2358 C 0.29655 0.10131 0.46119 0.0
C2359 C 0.30522 0.10543 0.48692 0.0
C2360 C 0.34249 0.12932 0.51318 0.0
C2361 C 0.35503 0.12946 0.59356 0.0
C2362 C 0.34649 0.12472 0.56507 0.0
C2363 C 0.32023 0.11193 0.48452 0.0
C2364 C 0.32944 0.11624 0.51204 0.0
H2365 H 0.35003 0.12924 0.66923 0.0
H2366 H 0.33644 0.12114 0.62279 0.0
H2367 H 0.36067 0.14383 0.53965 0.0
H2368 H 0.32272 0.11196 0.40809 0.0
H2369 H 0.3378 0.11906 0.45291 0.0
C2370 C 0.8856 0.19295 0.44285 0.0
C2371 C 0.89136 0.18375 0.44369 0.0
C2372 C 0.88051 0.19611 0.46907 0.0
C2373 C 0.86785 0.18246 0.54649 0.0
H2374 H 0.87241 0.22018 0.5588 0.0
C2375 C 0.85411 0.19974 0.65944 0.0
C2376 C 0.84713 0.20783 0.65825 0.0
C2377 C 0.85933 0.19672 0.63324 0.0
C2378 C 0.8709 0.20954 0.55557 0.0
H2379 H 0.89659 0.17099 0.47326 0.0
H2380 H 0.888 0.17672 0.51894 0.0
H2381 H 0.88233 0.21544 0.51384 0.0
H2382 H 0.84015 0.21903 0.62824 0.0
H2383 H 0.8493 0.2138 0.58258 0.0
H2384 H 0.85653 0.17663 0.58841 0.0
C2385 C 0.88713 0.18127 0.49788 0.0
C2386 C 0.8766 0.2068 0.52973 0.0
C2387 C 0.89218 0.17806 0.47163 0.0
C2388 C 0.84547 0.21278 0.63009 0.0
C2389 C 0.8508 0.20985 0.60389 0.0
C2390 C 0.86222 0.18522 0.5724 0.0
C2391 C 0.88107 0.19022 0.49695 0.0
C2392 C 0.87516 0.19322 0.52477 0.0
C2393 C 0.85782 0.20179 0.60512 0.0
C2394 C 0.86367 0.1988 0.5773 0.0
H2395 H 0.88469 0.19747 0.42178 0.0
H2396 H 0.87577 0.20289 0.46726 0.0
H2397 H 0.86625 0.17179 0.54328 0.0
H2398 H 0.85558 0.19571 0.68067 0.0
H2399 H 0.86479 0.1906 0.63512 0.0
C2400 C 0.77458 0.63914 0.639 0.0
C2401 C 0.76816 0.6241 0.6394 0.0
C2402 C 0.77826 0.64667 0.6119 0.0
C2403 C 0.77151 0.64397 0.53052 0.0
H2404 H 0.80947 0.67763 0.52784 0.0
C2405 C 0.7951 0.67778 0.42173 0.0
C2406 C 0.80335 0.69277 0.42513 0.0
C2407 C 0.79063 0.66875 0.44692 0.0
C2408 C 0.79876 0.66838 0.52823 0.0
H2409 H 0.76009 0.60516 0.61122 0.0
H2410 H 0.76641 0.61842 0.56357 0.0
H2411 H 0.80157 0.663 0.57307 0.0
H2412 H 0.8132 0.70995 0.45795 0.0
H2413 H 0.80522 0.69432 0.5016 0.0
H2414 H 0.7686 0.64953 0.48582 0.0
C2415 C 0.7686 0.62431 0.58448 0.0
C2416 C 0.79425 0.65995 0.55419 0.0
C2417 C 0.76498 0.61673 0.61178 0.0
C2418 C 0.80695 0.69848 0.45436 0.0
C2419 C 0.80243 0.68947 0.47949 0.0
C2420 C 0.77599 0.65249 0.50453 0.0
C2421 C 0.77558 0.6394 0.58433 0.0
C2422 C 0.78051 0.64775 0.55583 0.0
C2423 C 0.79427 0.67447 0.47617 0.0
C2424 C 0.78963 0.66493 0.50318 0.0
H2425 H 0.77711 0.64521 0.65973 0.0
H2426 H 0.78335 0.65825 0.61257 0.0
H2427 H 0.76083 0.63467 0.53115 0.0
H2428 H 0.79217 0.67299 0.39958 0.0
H2429 H 0.78451 0.65726 0.4434 0.0
C2430 C 0.28729 0.18297 0.96464 0.0
C2431 C 0.29353 0.188 0.93623 0.0
C2432 C 0.29549 0.18832 0.99092 0.0
C2433 C 0.33279 0.20566 1.01829 0.0
H2434 H 0.31796 0.2157 0.08785 0.0
C2435 C 0.36758 0.23036 0.1248 0.0
C2436 C 0.36068 0.22544 0.15266 0.0
C2437 C 0.35958 0.22704 0.09811 0.0
C2438 C 0.32224 0.21281 0.06878 0.0
H2439 H 0.31334 0.20269 0.91336 0.0
H2440 H 0.32755 0.21189 0.95901 0.0
H2441 H 0.30342 0.20695 0.04236 0.0
H2442 H 0.33988 0.21339 0.1742 0.0
H2443 H 0.3261 0.20742 0.12806 0.0
H2444 H 0.35144 0.21114 0.04476 0.0
C2445 C 0.31634 0.20378 0.96098 0.0
C2446 C 0.31388 0.2078 0.04267 0.0
C2447 C 0.30814 0.19855 0.93479 0.0
C2448 C 0.3456 0.21747 0.15323 0.0
C2449 C 0.33764 0.21408 0.12663 0.0
C2450 C 0.3411 0.21055 0.04447 0.0
C2451 C 0.31015 0.19871 0.98937 0.0
C2452 C 0.31904 0.20413 1.01713 0.0
C2453 C 0.3445 0.21865 0.09862 0.0
C2454 C 0.33593 0.21414 0.07017 0.0
H2455 H 0.27608 0.17485 0.96662 0.0
H2456 H 0.29043 0.18412 1.01245 0.0
H2457 H 0.33702 0.20277 0.99912 0.0
H2458 H 0.37917 0.2365 0.12348 0.0
H2459 H 0.36526 0.23096 0.07704 0.0
C2460 C 0.8072 0.1038 0.96487 0.0
C2461 C 0.80494 0.10801 0.93641 0.0
C2462 C 0.80204 0.10705 0.99088 0.0
C2463 C 0.77642 0.11838 1.01783 0.0
H2464 H 0.8014 0.13156 0.08751 0.0
C2465 C 0.7657 0.14406 0.12305 0.0
C2466 C 0.76874 0.14028 0.15126 0.0
C2467 C 0.76941 0.13967 0.09643 0.0
C2468 C 0.7942 0.12775 0.06839 0.0
H2469 H 0.79517 0.11868 0.9131 0.0
H2470 H 0.78637 0.12445 0.95824 0.0
H2471 H 0.80896 0.12437 0.04238 0.0
H2472 H 0.77767 0.12851 0.1734 0.0
H2473 H 0.78393 0.12083 0.12739 0.0
H2474 H 0.76171 0.12191 0.04393 0.0
C2475 C 0.79196 0.11849 0.96054 0.0
C2476 C 0.79853 0.12359 0.04248 0.0
C2477 C 0.7971 0.11523 0.93458 0.0
C2478 C 0.77525 0.13175 0.15215 0.0
C2479 C 0.77894 0.1274 0.12569 0.0
C2480 C 0.77208 0.12258 0.04379 0.0
C2481 C 0.7945 0.1146 0.98909 0.0
C2482 C 0.78969 0.1188 1.01685 0.0
C2483 C 0.77626 0.13144 0.09747 0.0
C2484 C 0.78089 0.12726 0.06946 0.0
H2485 H 0.81322 0.09825 0.96717 0.0
H2486 H 0.80402 0.1037 1.01244 0.0
H2487 H 0.76925 0.11462 0.99865 0.0
H2488 H 0.76074 0.15066 0.1215 0.0
H2489 H 0.76725 0.14305 0.07507 0.0
C2490 C 0.888 0.68822 0.94722 0.0
C2491 C 0.89342 0.70313 0.94725 0.0
C2492 C 0.88669 0.68084 0.97394 0.0
C2493 C 0.88325 0.68336 0.05608 0.0
H2494 H 0.88885 0.65046 0.05735 0.0
C2495 C 0.87486 0.65062 0.16463 0.0
C2496 C 0.86688 0.63558 0.1618 0.0
C2497 C 0.87999 0.6594 0.1392 0.0
C2498 C 0.88715 0.65956 0.05735 0.0
H2499 H 0.90206 0.72201 0.97567 0.0
H2500 H 0.89991 0.70911 0.02249 0.0
H2501 H 0.89468 0.66512 1.01209 0.0
H2502 H 0.85864 0.61805 0.12976 0.0
H2503 H 0.86763 0.63337 0.0854 0.0
H2504 H 0.87556 0.6777 0.10122 0.0
C2505 C 0.89651 0.70311 1.00165 0.0
C2506 C 0.89049 0.66799 0.03137 0.0
C2507 C 0.89786 0.71054 0.97477 0.0
C2508 C 0.86477 0.62956 0.13287 0.0
C2509 C 0.86996 0.63837 0.10738 0.0
C2510 C 0.87994 0.67495 0.0821 0.0
C2511 C 0.89077 0.68812 1.00161 0.0
C2512 C 0.8884 0.6799 0.0302 0.0
C2513 C 0.87735 0.65342 0.11018 0.0
C2514 C 0.88169 0.66283 0.08298 0.0
H2515 H 0.88446 0.6821 0.92653 0.0
H2516 H 0.88203 0.6693 0.97293 0.0
H2517 H 0.88129 0.69229 0.05596 0.0
H2518 H 0.87674 0.65569 0.18649 0.0
H2519 H 0.88586 0.67093 0.14227 0.0
C2520 C 0.08736 0.58041 0.65164 0.0
C2521 C 0.07324 0.57226 0.64085 0.0
C2522 C 0.09132 0.57678 0.67913 0.0
C2523 C 0.07918 0.54657 0.73429 0.0
H2524 H 0.10001 0.57633 0.79345 0.0
C2525 C 0.07666 0.53376 0.86085 0.0
C2526 C 0.08923 0.54097 0.87829 0.0
C2527 C 0.07635 0.53776 0.83099 0.0
C2528 C 0.09434 0.56788 0.77709 0.0
H2529 H 0.05247 0.55352 0.64972 0.0
H2530 H 0.05927 0.54733 0.69666 0.0
H2531 H 0.09716 0.58291 0.74225 0.0
H2532 H 0.11143 0.55814 0.87724 0.0
H2533 H 0.11077 0.56524 0.82535 0.0
H2534 H 0.07601 0.53153 0.76912 0.0
C2535 C 0.06737 0.55649 0.68437 0.0
C2536 C 0.09274 0.57167 0.74765 0.0
C2537 C 0.06343 0.56015 0.65741 0.0
C2538 C 0.10147 0.55242 0.86485 0.0
C2539 C 0.10112 0.55649 0.83497 0.0
C2540 C 0.08071 0.5428 0.76362 0.0
C2541 C 0.08131 0.5648 0.69595 0.0
C2542 C 0.08484 0.56104 0.72602 0.0
C2543 C 0.08856 0.54917 0.81757 0.0
C2544 C 0.08804 0.55337 0.78566 0.0
H2545 H 0.09514 0.58981 0.63946 0.0
H2546 H 0.10219 0.58338 0.68728 0.0
H2547 H 0.0733 0.53806 0.71815 0.0
H2548 H 0.0669 0.52513 0.87038 0.0
H2549 H 0.06639 0.53204 0.81856 0.0
C2550 C 0.45689 0.56566 0.871 0.0
C2551 C 0.46883 0.56502 0.88205 0.0
C2552 C 0.45209 0.56156 0.84142 0.0
C2553 C 0.46306 0.55558 0.76633 0.0
H2554 H 0.42244 0.5293 0.75444 0.0
C2555 C 0.43931 0.53238 0.64867 0.0
C2556 C 0.43136 0.51733 0.64862 0.0
C2557 C 0.44279 0.53997 0.676 0.0
C2558 C 0.43379 0.53674 0.75734 0.0
H2559 H 0.48508 0.5596 0.86999 0.0
H2560 H 0.47688 0.55277 0.81838 0.0
H2561 H 0.43136 0.53927 0.80438 0.0
H2562 H 0.42022 0.49845 0.67661 0.0
H2563 H 0.42581 0.5116 0.72391 0.0
H2564 H 0.46553 0.55272 0.71941 0.0
C2565 C 0.47129 0.55653 0.83266 0.0
C2566 C 0.4389 0.54251 0.78593 0.0
C2567 C 0.47601 0.56049 0.86233 0.0
C2568 C 0.42622 0.51007 0.67603 0.0
C2569 C 0.42944 0.51762 0.70314 0.0
C2570 C 0.45793 0.54994 0.73764 0.0
C2571 C 0.45917 0.55687 0.82192 0.0
C2572 C 0.45364 0.55177 0.79093 0.0
C2573 C 0.43814 0.53262 0.70358 0.0
C2574 C 0.44327 0.54021 0.73294 0.0
H2575 H 0.45122 0.56936 0.88519 0.0
H2576 H 0.44283 0.56212 0.83375 0.0
H2577 H 0.47445 0.5628 0.76936 0.0
H2578 H 0.44361 0.5382 0.62787 0.0
H2579 H 0.44947 0.55154 0.67564 0.0
C2580 C 0.44953 0.89729 0.87189 0.0
C2581 C 0.43527 0.89373 0.87728 0.0
C2582 C 0.45435 0.89743 0.84262 0.0
C2583 C 0.4452 0.89869 0.76209 0.0
H2584 H 0.47509 0.88922 0.74877 0.0
C2585 C 0.46776 0.8987 0.64326 0.0
C2586 C 0.48271 0.90761 0.64154 0.0
C2587 C 0.46091 0.89481 0.67134 0.0
C2588 C 0.46671 0.89186 0.75214 0.0
H2589 H 0.41482 0.88732 0.8561 0.0
H2590 H 0.42307 0.88716 0.80503 0.0
H2591 H 0.46495 0.88666 0.7989 0.0
H2592 H 0.50227 0.91876 0.66756 0.0
H2593 H 0.49044 0.91158 0.71639 0.0
H2594 H 0.44699 0.90377 0.71505 0.0
C2595 C 0.43068 0.89019 0.82333 0.0
C2596 C 0.46096 0.89052 0.78096 0.0
C2597 C 0.4259 0.89023 0.85265 0.0
C2598 C 0.49074 0.91184 0.66826 0.0
C2599 C 0.48396 0.90772 0.69621 0.0
C2600 C 0.45083 0.89983 0.73316 0.0
C2601 C 0.445 0.89384 0.81785 0.0
C2602 C 0.45032 0.8942 0.78655 0.0
C2603 C 0.46895 0.89948 0.69811 0.0
C2604 C 0.46183 0.89667 0.72799 0.0
H2605 H 0.45708 0.90028 0.89031 0.0
H2606 H 0.46552 0.90065 0.83946 0.0
H2607 H 0.43718 0.90183 0.76539 0.0
H2608 H 0.4613 0.8955 0.623 0.0
H2609 H 0.44933 0.88841 0.67216 0.0
C2610 C 0.52635 0.09459 0.89207 0.0
C2611 C 0.53121 0.08964 0.86806 0.0
C2612 C 0.53165 0.09541 0.92126 0.0
C2613 C 0.56165 0.09502 0.96314 0.0
H2614 H 0.53601 0.08519 0.03132 0.0
C2615 C 0.57084 0.07574 0.07744 0.0
C2616 C 0.56743 0.08049 0.10392 0.0
C2617 C 0.56833 0.07981 0.0493 0.0
C2618 C 0.54338 0.08821 1.01256 0.0
H2619 H 0.54515 0.0813 0.85609 0.0
H2620 H 0.55408 0.08234 0.9068 0.0
H2621 H 0.52732 0.08585 0.981 0.0
H2622 H 0.55899 0.09346 0.12189 0.0
H2623 H 0.55438 0.1005 0.07235 0.0
H2624 H 0.57748 0.09669 0.99471 0.0
C2625 C 0.54654 0.08607 0.90314 0.0
C2626 C 0.5384 0.08859 0.98364 0.0
C2627 C 0.54136 0.08539 0.87398 0.0
C2628 C 0.56201 0.08991 0.10179 0.0
C2629 C 0.5592 0.09377 0.07349 0.0
C2630 C 0.56656 0.09447 0.99198 0.0
C2631 C 0.54184 0.09116 0.92724 0.0
C2632 C 0.5474 0.09177 0.9584 0.0
C2633 C 0.56205 0.08849 0.04696 0.0
C2634 C 0.55743 0.09086 1.01697 0.0
H2635 H 0.51863 0.09808 0.88819 0.0
H2636 H 0.52788 0.09956 0.93905 0.0
H2637 H 0.56904 0.09787 0.94449 0.0
H2638 H 0.57482 0.06828 0.0785 0.0
H2639 H 0.57052 0.07545 0.02935 0.0
C2640 C 0.89596 0.4357 0.88123 0.0
C2641 C 0.90873 0.43723 0.86904 0.0
C2642 C 0.89538 0.43951 0.91116 0.0
C2643 C 0.91394 0.44639 0.98507 0.0
H2644 H 0.89515 0.46835 1.00196 0.0
C2645 C 0.91139 0.46581 0.10614 0.0
C2646 C 0.91599 0.48051 0.10771 0.0
C2647 C 0.9082 0.45876 0.07811 0.0
C2648 C 0.90038 0.46216 0.99769 0.0
H2649 H 0.93096 0.44416 0.87938 0.0
H2650 H 0.92987 0.45059 0.93145 0.0
H2651 H 0.89474 0.45975 0.95097 0.0
H2652 H 0.92025 0.4992 0.08161 0.0
H2653 H 0.91434 0.48696 0.03326 0.0
H2654 H 0.9199 0.44916 0.03171 0.0
C2655 C 0.92024 0.44628 0.91788 0.0
C2656 C 0.90007 0.45714 0.96844 0.0
C2657 C 0.92085 0.44255 0.88791 0.0
C2658 C 0.91657 0.48781 0.08109 0.0
C2659 C 0.91318 0.48078 0.05334 0.0
C2660 C 0.91414 0.45131 1.01442 0.0
C2661 C 0.90751 0.44488 0.92991 0.0
C2662 C 0.90705 0.44939 0.96158 0.0
C2663 C 0.90933 0.46626 0.05128 0.0
C2664 C 0.90758 0.45948 0.02101 0.0
H2665 H 0.8863 0.43139 0.86776 0.0
H2666 H 0.88534 0.43811 0.91971 0.0
H2667 H 0.91928 0.44032 0.98073 0.0
H2668 H 0.9111 0.45999 0.12624 0.0
H2669 H 0.90519 0.44755 0.07734 0.0
C2670 C 0.49962 0.42487 0.0853 0.0
C2671 C 0.50718 0.42587 0.11181 0.0
C2672 C 0.50645 0.42819 0.05745 0.0
C2673 C 0.53842 0.43392 1.01509 0.0
H2674 H 0.52867 0.45737 0.96524 0.0
C2675 C 0.56643 0.45903 0.90035 0.0
C2676 C 0.55751 0.45897 0.87711 0.0
C2677 C 0.56108 0.45477 0.92961 0.0
C2678 C 0.53143 0.4507 0.97866 0.0
H2679 H 0.52779 0.43052 0.12959 0.0
H2680 H 0.53986 0.43629 0.08043 0.0
H2681 H 0.51805 0.45002 1.01483 0.0
H2682 H 0.53574 0.45362 0.86633 0.0
H2683 H 0.52649 0.44627 0.91694 0.0
H2684 H 0.55182 0.43464 0.97856 0.0
C2685 C 0.52855 0.43287 0.08141 0.0
C2686 C 0.52532 0.44648 1.00718 0.0
C2687 C 0.52163 0.42949 0.10954 0.0
C2688 C 0.54304 0.45418 0.88375 0.0
C2689 C 0.53771 0.44994 0.91286 0.0
C2690 C 0.54456 0.43817 0.98638 0.0
C2691 C 0.52111 0.43268 0.05516 0.0
C2692 C 0.52851 0.43781 0.0256 0.0
C2693 C 0.54668 0.45035 0.93632 0.0
C2694 C 0.54094 0.44642 0.96759 0.0
H2695 H 0.48846 0.42198 0.08616 0.0
H2696 H 0.50027 0.42755 0.03767 0.0
H2697 H 0.5411 0.42724 0.02868 0.0
H2698 H 0.57765 0.46273 0.89611 0.0
H2699 H 0.56831 0.4553 0.94714 0.0
C2700 C 0.92242 0.46253 0.38152 0.0
C2701 C 0.91043 0.46342 0.37199 0.0
C2702 C 0.92362 0.45904 0.41127 0.0
C2703 C 0.9026 0.44262 0.48116 0.0
H2704 H 0.94054 0.4606 0.51678 0.0
C2705 C 0.91496 0.43297 0.60561 0.0
C2706 C 0.92638 0.43018 0.60789 0.0
C2707 C 0.91201 0.43751 0.57811 0.0
C2708 C 0.92986 0.45546 0.50718 0.0
H2709 H 0.89026 0.46129 0.38666 0.0
H2710 H 0.89242 0.45534 0.43877 0.0
H2711 H 0.9374 0.46768 0.46671 0.0
H2712 H 0.9435 0.42987 0.58249 0.0
H2713 H 0.93847 0.43777 0.53563 0.0
H2714 H 0.89517 0.4304 0.52206 0.0
C2715 C 0.90083 0.45716 0.42304 0.0
C2716 C 0.92805 0.45946 0.47831 0.0
C2717 C 0.8996 0.46059 0.39311 0.0
C2718 C 0.93464 0.43194 0.58199 0.0
C2719 C 0.93182 0.43658 0.55492 0.0
C2720 C 0.90441 0.43868 0.51028 0.0
C2721 C 0.91291 0.4564 0.4326 0.0
C2722 C 0.91447 0.45287 0.46451 0.0
C2723 C 0.92057 0.43955 0.55257 0.0
C2724 C 0.91813 0.44482 0.52333 0.0
H2725 H 0.93084 0.46433 0.36579 0.0
H2726 H 0.93291 0.45822 0.41742 0.0
H2727 H 0.89198 0.43725 0.47132 0.0
H2728 H 0.90836 0.43172 0.62501 0.0
H2729 H 0.90325 0.43971 0.57698 0.0
C2730 C 0.58107 0.4878 0.59048 0.0
C2731 C 0.57377 0.47887 0.6149 0.0
C2732 C 0.57869 0.48229 0.56126 0.0
C2733 C 0.56137 0.44935 0.51401 0.0
H2734 H 0.55289 0.47317 0.46231 0.0
C2735 C 0.53216 0.42938 0.3989 0.0
C2736 C 0.53617 0.4394 0.37539 0.0
C2737 C 0.53771 0.43377 0.42797 0.0
C2738 C 0.55543 0.46646 0.47611 0.0
H2739 H 0.55885 0.45708 0.62827 0.0
H2740 H 0.5548 0.4473 0.57711 0.0
H2741 H 0.56203 0.48133 0.51264 0.0
H2742 H 0.54956 0.46184 0.36388 0.0
H2743 H 0.5594 0.46946 0.41414 0.0
H2744 H 0.55471 0.43444 0.47729 0.0
C2745 C 0.56252 0.45854 0.58054 0.0
C2746 C 0.5607 0.47116 0.50511 0.0
C2747 C 0.56496 0.46409 0.60991 0.0
C2748 C 0.54603 0.45387 0.38157 0.0
C2749 C 0.55166 0.45824 0.4105 0.0
C2750 C 0.55618 0.44467 0.48477 0.0
C2751 C 0.5688 0.46774 0.55576 0.0
C2752 C 0.56377 0.46271 0.52445 0.0
C2753 C 0.5475 0.44829 0.43423 0.0
C2754 C 0.55314 0.45317 0.46539 0.0
H2755 H 0.58768 0.49928 0.59369 0.0
H2756 H 0.58391 0.48962 0.54275 0.0
H2757 H 0.56363 0.44259 0.52833 0.0
H2758 H 0.52449 0.41816 0.39496 0.0
H2759 H 0.53407 0.42581 0.44565 0.0
C2760 C 0.54382 0.08243 0.37755 0.0
C2761 C 0.55853 0.08958 0.37066 0.0
C2762 C 0.53912 0.08235 0.40686 0.0
C2763 C 0.55079 0.08724 0.48645 0.0
H2764 H 0.51558 0.08812 0.49853 0.0
C2765 C 0.52527 0.08245 0.60491 0.0
C2766 C 0.5107 0.07188 0.60602 0.0
C2767 C 0.5323 0.08705 0.57706 0.0
C2768 C 0.52545 0.08788 0.49556 0.0
H2769 H 0.57985 0.10231 0.38956 0.0
H2770 H 0.57162 0.1024 0.44076 0.0
H2771 H 0.52571 0.0915 0.44823 0.0
H2772 H 0.49189 0.05846 0.57904 0.0
H2773 H 0.50399 0.06647 0.53095 0.0
H2774 H 0.55033 0.08342 0.53393 0.0
C2775 C 0.56371 0.09671 0.4234 0.0
C2776 C 0.53123 0.08974 0.46668 0.0
C2777 C 0.56843 0.09678 0.39396 0.0
C2778 C 0.50318 0.06648 0.57892 0.0
C2779 C 0.51009 0.07118 0.55131 0.0
C2780 C 0.54503 0.08544 0.51546 0.0
C2781 C 0.54898 0.08949 0.43023 0.0
C2782 C 0.54377 0.08907 0.46156 0.0
C2783 C 0.52477 0.08136 0.54996 0.0
C2784 C 0.53208 0.08537 0.52019 0.0
H2785 H 0.53585 0.07694 0.36018 0.0
H2786 H 0.5277 0.07649 0.41125 0.0
H2787 H 0.56041 0.08657 0.48339 0.0
H2788 H 0.53132 0.08675 0.62548 0.0
H2789 H 0.54362 0.09496 0.57671 0.0
C2790 C 0.46274 0.88867 0.35309 0.0
C2791 C 0.45933 0.89583 0.37524 0.0
C2792 C 0.45797 0.88776 0.32339 0.0
C2793 C 0.43063 0.89059 0.27774 0.0
H2794 H 0.45711 0.89898 0.21163 0.0
C2795 C 0.42389 0.91114 0.16387 0.0
C2796 C 0.42842 0.90754 0.13733 0.0
C2797 C 0.42563 0.90626 0.1917 0.0
C2798 C 0.44946 0.89629 0.22973 0.0
H2799 H 0.44802 0.90744 0.38347 0.0
H2800 H 0.43987 0.906 0.33182 0.0
H2801 H 0.46457 0.89762 0.26284 0.0
H2802 H 0.43786 0.89559 0.11881 0.0
H2803 H 0.44098 0.88692 0.16795 0.0
H2804 H 0.41565 0.88962 0.24485 0.0
C2805 C 0.44615 0.90099 0.33738 0.0
C2806 C 0.45377 0.89557 0.25914 0.0
C2807 C 0.45099 0.90199 0.36696 0.0
C2808 C 0.4341 0.89833 0.13896 0.0
C2809 C 0.43603 0.89354 0.16707 0.0
C2810 C 0.42632 0.89128 0.24841 0.0
C2811 C 0.44956 0.89386 0.31519 0.0
C2812 C 0.44453 0.89309 0.2836 0.0
C2813 C 0.43211 0.89775 0.19384 0.0
C2814 C 0.43582 0.89454 0.2241 0.0
H2815 H 0.46924 0.88391 0.35863 0.0
H2816 H 0.46074 0.88214 0.30691 0.0
H2817 H 0.42312 0.88833 0.29595 0.0
H2818 H 0.41959 0.91834 0.16322 0.0
H2819 H 0.42266 0.90989 0.21171 0.0
C2820 C 0.06874 0.53277 0.15058 0.0
C2821 C 0.07618 0.52625 0.1388 0.0
C2822 C 0.07215 0.53928 0.17881 0.0
C2823 C 0.09851 0.55347 0.24072 0.0
H2824 H 0.06441 0.54107 0.2893 0.0
C2825 C 0.10071 0.56694 0.36874 0.0
C2826 C 0.09004 0.5696 0.38013 0.0
C2827 C 0.10006 0.5622 0.33904 0.0
C2828 C 0.07407 0.54486 0.27606 0.0
H2829 H 0.09357 0.52207 0.14669 0.0
H2830 H 0.09976 0.53369 0.19656 0.0
H2831 H 0.06213 0.53264 0.23788 0.0
H2832 H 0.07031 0.5693 0.36856 0.0
H2833 H 0.06949 0.56165 0.31695 0.0
H2834 H 0.11044 0.56587 0.279 0.0
C2835 C 0.09127 0.53377 0.18366 0.0
C2836 C 0.07276 0.53996 0.24648 0.0
C2837 C 0.08781 0.52721 0.15507 0.0
C2838 C 0.07885 0.56758 0.36073 0.0
C2839 C 0.07825 0.56293 0.33107 0.0
C2840 C 0.09984 0.5585 0.27043 0.0
C2841 C 0.08307 0.53938 0.19629 0.0
C2842 C 0.08491 0.54432 0.22825 0.0
C2843 C 0.08874 0.56 0.31982 0.0
C2844 C 0.0876 0.55439 0.28843 0.0
H2845 H 0.05972 0.53219 0.13849 0.0
H2846 H 0.06583 0.54377 0.18748 0.0
H2847 H 0.10808 0.55703 0.22728 0.0
H2848 H 0.10962 0.56854 0.38273 0.0
H2849 H 0.1083 0.55998 0.33139 0.0
C2850 C 0.4781 0.54353 0.16007 0.0
C2851 C 0.48157 0.55594 0.14337 0.0
C2852 C 0.47119 0.541 0.1878 0.0
C2853 C 0.46659 0.55911 0.25252 0.0
H2854 H 0.43628 0.52085 0.27329 0.0
C2855 C 0.4412 0.5451 0.37214 0.0
C2856 C 0.43794 0.53168 0.38406 0.0
C2857 C 0.44522 0.54848 0.34191 0.0
C2858 C 0.44484 0.53157 0.26807 0.0
H2859 H 0.4803 0.57539 0.14271 0.0
H2860 H 0.46831 0.57105 0.19189 0.0
H2861 H 0.44535 0.52604 0.22198 0.0
H2862 H 0.43608 0.5112 0.37281 0.0
H2863 H 0.44351 0.51722 0.32084 0.0
H2864 H 0.46649 0.56453 0.29887 0.0
C2865 C 0.47094 0.56326 0.18315 0.0
C2866 C 0.44997 0.53456 0.23853 0.0
C2867 C 0.47769 0.56569 0.15494 0.0
C2868 C 0.43869 0.52171 0.36474 0.0
C2869 C 0.44276 0.52511 0.33463 0.0
C2870 C 0.46154 0.55608 0.28223 0.0
C2871 C 0.46766 0.55088 0.19993 0.0
C2872 C 0.46109 0.54829 0.23048 0.0
C2873 C 0.44611 0.53855 0.3227 0.0
C2874 C 0.45076 0.54218 0.29058 0.0
H2875 H 0.48089 0.53576 0.15185 0.0
H2876 H 0.469 0.53145 0.2002 0.0
H2877 H 0.47526 0.56976 0.24713 0.0
H2878 H 0.44091 0.55314 0.38629 0.0
H2879 H 0.44756 0.55888 0.3336 0.0
C2880 C 0.75314 0.90921 1.00176 0.0
C2881 C 0.75474 0.90297 0.97538 0.0
C2882 C 0.75592 0.90539 0.02984 0.0
C2883 C 0.77174 0.88684 0.07129 0.0
H2884 H 0.74059 0.87821 0.12653 0.0
C2885 C 0.76497 0.85856 0.18721 0.0
C2886 C 0.75995 0.86335 0.21125 0.0
C2887 C 0.7655 0.86367 0.15793 0.0
C2888 C 0.7495 0.88074 0.11163 0.0
H2889 H 0.76149 0.88857 0.95758 0.0
H2890 H 0.76644 0.88183 1.00709 0.0
H2891 H 0.74037 0.88726 0.07671 0.0
H2892 H 0.75224 0.8778 0.22352 0.0
H2893 H 0.75326 0.88674 0.17289 0.0
H2894 H 0.78085 0.88029 0.10657 0.0
C2895 C 0.76306 0.88975 1.00588 0.0
C2896 C 0.74937 0.88594 0.08297 0.0
C2897 C 0.76032 0.89366 0.97753 0.0
C2898 C 0.75584 0.87362 0.20545 0.0
C2899 C 0.75642 0.87875 0.17634 0.0
C2900 C 0.77191 0.88166 0.1002 0.0
C2901 C 0.76028 0.89513 0.03237 0.0
C2902 C 0.76056 0.88924 0.06254 0.0
C2903 C 0.76106 0.87371 0.15208 0.0
C2904 C 0.76085 0.87871 0.12086 0.0
H2905 H 0.74893 0.91649 1.00079 0.0
H2906 H 0.75402 0.91002 0.04973 0.0
H2907 H 0.78051 0.88927 0.05606 0.0
H2908 H 0.76814 0.85059 0.19088 0.0
H2909 H 0.76903 0.85946 0.13979 0.0
C2910 C 0.09335 0.86101 0.98297 0.0
C2911 C 0.08822 0.84624 0.98015 0.0
C2912 C 0.09686 0.86754 1.01146 0.0
C2913 C 0.10863 0.86127 0.08483 0.0
H2914 H 0.10491 0.89338 0.11264 0.0
C2915 C 0.13793 0.89224 0.1911 0.0
C2916 C 0.13007 0.89552 0.21163 0.0
C2917 C 0.1327 0.88745 0.16212 0.0
C2918 C 0.10597 0.88437 0.10523 0.0
H2919 H 0.0816 0.82652 1.00457 0.0
H2920 H 0.08711 0.83769 0.05402 0.0
H2921 H 0.09449 0.88211 0.06417 0.0
H2922 H 0.11069 0.8967 0.21743 0.0
H2923 H 0.10151 0.88824 0.16681 0.0
H2924 H 0.11984 0.86325 0.12575 0.0
C2925 C 0.08888 0.84438 0.03449 0.0
C2926 C 0.10009 0.87799 0.07737 0.0
C2927 C 0.08555 0.83795 1.0062 0.0
C2928 C 0.11708 0.89438 0.20209 0.0
C2929 C 0.11181 0.88954 0.17305 0.0
C2930 C 0.11449 0.86762 0.11248 0.0
C2931 C 0.09521 0.85934 0.03741 0.0
C2932 C 0.10127 0.86629 0.06695 0.0
C2933 C 0.11943 0.88574 0.15291 0.0
C2934 C 0.11327 0.87925 0.12308 0.0
H2935 H 0.09573 0.86765 0.96313 0.0
H2936 H 0.10174 0.87909 1.01291 0.0
H2937 H 0.11001 0.85246 0.07732 0.0
H2938 H 0.14811 0.89327 0.19752 0.0
H2939 H 0.13902 0.88494 0.14698 0.0
C2940 C 0.14393 0.26331 0.98784 0.0
C2941 C 0.14514 0.25337 0.96933 0.0
C2942 C 0.13861 0.2597 1.01695 0.0
C2943 C 0.11702 0.2312 0.0696 0.0
H2944 H 0.14149 0.25949 0.12857 0.0
C2945 C 0.10413 0.22617 0.19826 0.0
C2946 C 0.10698 0.23892 0.21297 0.0
C2947 C 0.10853 0.22645 0.16845 0.0
C2948 C 0.13445 0.25153 0.11244 0.0
H2949 H 0.1408 0.23146 0.96639 0.0
H2950 H 0.13114 0.225 1.01787 0.0
H2951 H 0.14909 0.26218 0.07637 0.0
H2952 H 0.11678 0.26197 0.20762 0.0
H2953 H 0.12399 0.2624 0.15583 0.0
H2954 H 0.10215 0.2208 0.10573 0.0
C2955 C 0.13453 0.23567 1.00952 0.0
C2956 C 0.13885 0.25304 0.08253 0.0
C2957 C 0.14001 0.23935 0.98011 0.0
C2958 C 0.1142 0.2519 0.19702 0.0
C2959 C 0.11856 0.25218 0.16735 0.0
C2960 C 0.11253 0.22973 0.09969 0.0
C2961 C 0.13422 0.246 0.02846 0.0
C2962 C 0.13006 0.2431 0.06064 0.0
C2963 C 0.11592 0.23949 0.15272 0.0
C2964 C 0.12106 0.2401 0.12132 0.0
H2965 H 0.1475 0.27413 0.98018 0.0
H2966 H 0.13819 0.26778 0.03075 0.0
H2967 H 0.11003 0.2234 0.05315 0.0
H2968 H 0.09847 0.21595 0.20974 0.0
H2969 H 0.10636 0.21649 0.15794 0.0
C2970 C 0.2386 0.41577 0.41173 0.0
C2971 C 0.23381 0.41909 0.43829 0.0
C2972 C 0.23603 0.41988 0.38373 0.0
C2973 C 0.21032 0.42784 0.34616 0.0
H2974 H 0.23586 0.43578 0.2784 0.0
C2975 C 0.19619 0.43611 0.22376 0.0
C2976 C 0.19924 0.42891 0.20104 0.0
C2977 C 0.20104 0.43668 0.25329 0.0
C2978 C 0.22857 0.43351 0.29705 0.0
H2979 H 0.22306 0.42988 0.45642 0.0
H2980 H 0.21873 0.43738 0.40718 0.0
H2981 H 0.24413 0.43504 0.32903 0.0
H2982 H 0.20994 0.41681 0.19168 0.0
H2983 H 0.21834 0.41777 0.24302 0.0
H2984 H 0.19471 0.42619 0.31392 0.0
C2985 C 0.22441 0.43145 0.40811 0.0
C2986 C 0.23331 0.4331 0.32614 0.0
C2987 C 0.22708 0.42738 0.43635 0.0
C2988 C 0.20727 0.42232 0.20862 0.0
C2989 C 0.21224 0.42302 0.23802 0.0
C2990 C 0.20559 0.42835 0.31701 0.0
C2991 C 0.22853 0.42742 0.38138 0.0
C2992 C 0.22415 0.42992 0.35106 0.0
C2993 C 0.20922 0.43022 0.26074 0.0
C2994 C 0.21456 0.43087 0.29202 0.0
H2995 H 0.2437 0.40928 0.41248 0.0
H2996 H 0.23921 0.41638 0.36382 0.0
H2997 H 0.20288 0.42518 0.36467 0.0
H2998 H 0.18995 0.44121 0.21875 0.0
H2999 H 0.19857 0.44235 0.2702 0.0
C3000 C 0.55878 0.78041 0.20986 0.0
C3001 C 0.56031 0.76854 0.20241 0.0
C3002 C 0.56012 0.78509 0.23967 0.0
C3003 C 0.56127 0.7749 0.31953 0.0
H3004 H 0.58408 0.81606 0.33067 0.0
C3005 C 0.57504 0.8035 0.43753 0.0
C3006 C 0.58954 0.81411 0.44098 0.0
C3007 C 0.5697 0.79723 0.40919 0.0
C3008 C 0.57766 0.80453 0.328 0.0
H3009 H 0.56415 0.75212 0.22082 0.0
H3010 H 0.56663 0.76036 0.27279 0.0
H3011 H 0.57797 0.80624 0.28012 0.0
H3012 H 0.60973 0.82633 0.41702 0.0
H3013 H 0.60048 0.81559 0.36853 0.0
H3014 H 0.56146 0.77331 0.3677 0.0
C3015 C 0.56416 0.76593 0.25561 0.0
C3016 C 0.57402 0.79889 0.29894 0.0
C3017 C 0.56277 0.76121 0.22575 0.0
C3018 C 0.59849 0.81823 0.4155 0.0
C3019 C 0.59317 0.81213 0.38743 0.0
C3020 C 0.56488 0.78059 0.34874 0.0
C3021 C 0.5631 0.77808 0.26292 0.0
C3022 C 0.56596 0.78398 0.29421 0.0
C3023 C 0.57871 0.80162 0.38376 0.0
C3024 C 0.57337 0.79547 0.35326 0.0
H3025 H 0.55661 0.78615 0.19256 0.0
H3026 H 0.55894 0.79431 0.24447 0.0
H3027 H 0.55492 0.76338 0.31678 0.0
H3028 H 0.56786 0.80005 0.45664 0.0
H3029 H 0.55849 0.78915 0.40706 0.0
C3030 C 0.19005 0.79521 0.42132 0.0
C3031 C 0.18925 0.7856 0.44368 0.0
C3032 C 0.19794 0.79719 0.39516 0.0
C3033 C 0.20975 0.77911 0.34404 0.0
H3034 H 0.23316 0.81731 0.3111 0.0
C3035 C 0.22066 0.79073 0.21717 0.0
C3036 C 0.23423 0.80172 0.20791 0.0
C3037 C 0.21734 0.78806 0.24773 0.0
C3038 C 0.22685 0.80657 0.32009 0.0
H3039 H 0.19625 0.77063 0.45621 0.0
H3040 H 0.20993 0.7739 0.40963 0.0
H3041 H 0.22393 0.8144 0.36224 0.0
H3042 H 0.25508 0.81829 0.22352 0.0
H3043 H 0.24927 0.81365 0.27699 0.0
H3044 H 0.21225 0.77127 0.30141 0.0
C3045 C 0.20448 0.77996 0.41278 0.0
C3046 C 0.22149 0.80491 0.34932 0.0
C3047 C 0.19673 0.77814 0.43942 0.0
C3048 C 0.24456 0.80971 0.22993 0.0
C3049 C 0.24119 0.80712 0.26054 0.0
C3050 C 0.215 0.78076 0.31462 0.0
C3051 C 0.20512 0.78951 0.3904 0.0
C3052 C 0.21261 0.79117 0.36136 0.0
C3053 C 0.22749 0.79638 0.26978 0.0
C3054 C 0.22336 0.79452 0.3021 0.0
H3055 H 0.18448 0.80119 0.42389 0.0
H3056 H 0.19806 0.80448 0.3782 0.0
H3057 H 0.20286 0.76839 0.35267 0.0
H3058 H 0.21252 0.78428 0.20074 0.0
H3059 H 0.20664 0.77981 0.25406 0.0
C3060 C 0.56311 0.76309 0.93713 0.0
C3061 C 0.57141 0.75641 0.93994 0.0
C3062 C 0.55967 0.76607 0.90853 0.0
C3063 C 0.56008 0.75846 0.82636 0.0
H3064 H 0.56784 0.79746 0.81599 0.0
C3065 C 0.57434 0.78661 0.71095 0.0
C3066 C 0.56859 0.79537 0.70316 0.0
C3067 C 0.57258 0.78091 0.73993 0.0
C3068 C 0.56543 0.78647 0.81851 0.0
H3069 H 0.58178 0.74678 0.91517 0.0
H3070 H 0.57573 0.75176 0.8658 0.0
H3071 H 0.56736 0.78834 0.86648 0.0
H3072 H 0.55654 0.80509 0.72006 0.0
H3073 H 0.55344 0.79511 0.77074 0.0
H3074 H 0.5586 0.75674 0.77835 0.0
C3075 C 0.57178 0.75472 0.88535 0.0
C3076 C 0.56509 0.7812 0.84752 0.0
C3077 C 0.57529 0.75187 0.91375 0.0
C3078 C 0.56102 0.7983 0.72521 0.0
C3079 C 0.55935 0.79268 0.75433 0.0
C3080 C 0.56048 0.76374 0.79741 0.0
C3081 C 0.56435 0.76229 0.88225 0.0
C3082 C 0.56271 0.76722 0.85182 0.0
C3083 C 0.56506 0.78386 0.76204 0.0
C3084 C 0.56344 0.7779 0.79304 0.0
H3085 H 0.56016 0.76692 0.95689 0.0
H3086 H 0.55378 0.77177 0.907 0.0
H3087 H 0.55795 0.74756 0.82877 0.0
H3088 H 0.58009 0.784 0.69449 0.0
H3089 H 0.57728 0.77432 0.74514 0.0
C3090 C 0.21326 0.77711 0.71055 0.0
C3091 C 0.19934 0.77349 0.70128 0.0
C3092 C 0.21743 0.78048 0.74068 0.0
C3093 C 0.20902 0.7953 0.80632 0.0
H3094 H 0.23225 0.78351 0.85142 0.0
C3095 C 0.23568 0.82362 0.91506 0.0
C3096 C 0.23272 0.81484 0.94044 0.0
C3097 C 0.23311 0.81779 0.88624 0.0
C3098 C 0.22573 0.78683 0.83907 0.0
H3099 H 0.17864 0.76966 0.717 0.0
H3100 H 0.186 0.77575 0.76924 0.0
H3101 H 0.22395 0.77397 0.80051 0.0
H3102 H 0.22576 0.79326 0.95571 0.0
H3103 H 0.2213 0.78291 0.90471 0.0
H3104 H 0.21081 0.80821 0.84438 0.0
C3105 C 0.19374 0.77618 0.75312 0.0
C3106 C 0.22105 0.78145 0.80994 0.0
C3107 C 0.18955 0.77274 0.72313 0.0
C3108 C 0.22823 0.80025 0.93643 0.0
C3109 C 0.22562 0.79435 0.90732 0.0
C3110 C 0.2138 0.80077 0.83509 0.0
C3111 C 0.20781 0.78037 0.76215 0.0
C3112 C 0.21263 0.78564 0.79329 0.0
C3113 C 0.22748 0.803 0.88206 0.0
C3114 C 0.22229 0.79669 0.85174 0.0
H3115 H 0.22112 0.77791 0.69433 0.0
H3116 H 0.22838 0.78377 0.7469 0.0
H3117 H 0.2027 0.79888 0.79401 0.0
H3118 H 0.23936 0.83495 0.91758 0.0
H3119 H 0.23494 0.82478 0.8672 0.0
C3120 C 0.20602 0.42191 0.7054 0.0
C3121 C 0.22073 0.42959 0.6985 0.0
C3122 C 0.20115 0.42224 0.73441 0.0
C3123 C 0.2127 0.4293 0.81404 0.0
H3124 H 0.17746 0.43033 0.82386 0.0
C3125 C 0.18874 0.42808 0.93223 0.0
C3126 C 0.17395 0.41844 0.93477 0.0
C3127 C 0.19533 0.43164 0.90379 0.0
C3128 C 0.18728 0.42996 0.82158 0.0
H3129 H 0.24187 0.44361 0.71707 0.0
H3130 H 0.23336 0.44426 0.76772 0.0
H3131 H 0.18723 0.43199 0.7737 0.0
H3132 H 0.15438 0.40561 0.9095 0.0
H3133 H 0.16572 0.41166 0.86046 0.0
H3134 H 0.21256 0.42697 0.86197 0.0
C3135 C 0.22558 0.43792 0.75061 0.0
C3136 C 0.19288 0.43089 0.79274 0.0
C3137 C 0.23046 0.43766 0.72148 0.0
C3138 C 0.16582 0.41301 0.90834 0.0
C3139 C 0.17233 0.41658 0.88011 0.0
C3140 C 0.20707 0.42834 0.84296 0.0
C3141 C 0.21085 0.43023 0.75746 0.0
C3142 C 0.20553 0.43032 0.78848 0.0
C3143 C 0.18722 0.42574 0.87736 0.0
C3144 C 0.19413 0.42839 0.84707 0.0
H3145 H 0.19819 0.4157 0.68827 0.0
H3146 H 0.18975 0.41603 0.73887 0.0
H3147 H 0.2224 0.42871 0.81164 0.0
H3148 H 0.19531 0.43232 0.9522 0.0
H3149 H 0.2068 0.43883 0.90252 0.0
C3150 C 0.10152 0.25956 0.50246 0.0
C3151 C 0.10375 0.25466 0.47481 0.0
C3152 C 0.10463 0.25517 0.52948 0.0
C3153 C 0.11231 0.22935 0.56731 0.0
H3154 H 0.13447 0.26179 0.62011 0.0
C3155 C 0.12354 0.22453 0.69392 0.0
C3156 C 0.13686 0.23494 0.70574 0.0
C3157 C 0.11988 0.22539 0.66403 0.0
C3158 C 0.12844 0.25261 0.60558 0.0
H3159 H 0.11009 0.24053 0.45386 0.0
H3160 H 0.11566 0.23279 0.50166 0.0
H3161 H 0.12669 0.26561 0.57153 0.0
H3162 H 0.15715 0.25381 0.69476 0.0
H3163 H 0.1508 0.25528 0.64284 0.0
H3164 H 0.11412 0.21636 0.6018 0.0
C3165 C 0.11145 0.24006 0.50217 0.0
C3166 C 0.12382 0.25478 0.57782 0.0
C3167 C 0.10824 0.24444 0.47485 0.0
C3168 C 0.14668 0.2458 0.68658 0.0
C3169 C 0.14304 0.24663 0.65679 0.0
C3170 C 0.11689 0.22714 0.59538 0.0
C3171 C 0.11017 0.24582 0.52969 0.0
C3172 C 0.11555 0.24319 0.55847 0.0
C3173 C 0.12945 0.23667 0.64533 0.0
C3174 C 0.12498 0.23877 0.61489 0.0
H3175 H 0.09784 0.26727 0.5032 0.0
H3176 H 0.10314 0.25951 0.55028 0.0
H3177 H 0.10595 0.22022 0.55289 0.0
H3178 H 0.1157 0.21608 0.70812 0.0
H3179 H 0.10929 0.2176 0.65603 0.0
C3180 C 0.75441 0.87367 0.7073 0.0
C3181 C 0.76363 0.88807 0.71537 0.0
C3182 C 0.75438 0.86889 0.67802 0.0
C3183 C 0.76356 0.88143 0.59956 0.0
H3184 H 0.75901 0.84373 0.5871 0.0
C3185 C 0.75807 0.85741 0.47979 0.0
C3186 C 0.74654 0.84333 0.47692 0.0
C3187 C 0.76282 0.86349 0.50845 0.0
C3188 C 0.76025 0.85427 0.59014 0.0
H3189 H 0.78004 0.90875 0.69867 0.0
H3190 H 0.78004 0.90038 0.64751 0.0
H3191 H 0.76179 0.8532 0.63797 0.0
H3192 H 0.73153 0.82434 0.5015 0.0
H3193 H 0.73976 0.83477 0.55099 0.0
H3194 H 0.76162 0.88231 0.55171 0.0
C3195 C 0.77278 0.8928 0.66391 0.0
C3196 C 0.76181 0.8597 0.61935 0.0
C3197 C 0.77288 0.89757 0.69332 0.0
C3198 C 0.74043 0.83523 0.50305 0.0
C3199 C 0.74523 0.8412 0.53148 0.0
C3200 C 0.76196 0.87598 0.57027 0.0
C3201 C 0.76354 0.87838 0.65589 0.0
C3202 C 0.76318 0.87322 0.62453 0.0
C3203 C 0.75624 0.85553 0.53466 0.0
C3204 C 0.75996 0.86219 0.56523 0.0
H3205 H 0.74725 0.86601 0.72373 0.0
H3206 H 0.74698 0.85776 0.67261 0.0
H3207 H 0.76449 0.89184 0.6027 0.0
H3208 H 0.76282 0.86395 0.46 0.0
H3209 H 0.77141 0.87453 0.5101 0.0
C3210 C 0.11434 0.87479 0.70696 0.0
C3211 C 0.09983 0.86929 0.71436 0.0
C3212 C 0.11914 0.87903 0.67765 0.0
C3213 C 0.11091 0.88979 0.60506 0.0
H3214 H 0.13717 0.8779 0.57504 0.0
C3215 C 0.13181 0.89574 0.48081 0.0
C3216 C 0.14614 0.89909 0.47812 0.0
C3217 C 0.12551 0.89364 0.50936 0.0
C3218 C 0.12997 0.88146 0.58317 0.0
H3219 H 0.07907 0.86437 0.69683 0.0
H3220 H 0.08753 0.87182 0.64521 0.0
H3221 H 0.12709 0.87069 0.62506 0.0
H3222 H 0.1655 0.90419 0.50261 0.0
H3223 H 0.15474 0.90101 0.55211 0.0
H3224 H 0.11389 0.90057 0.56271 0.0
C3225 C 0.09515 0.87285 0.66232 0.0
C3226 C 0.12418 0.8773 0.61185 0.0
C3227 C 0.09031 0.86857 0.69183 0.0
C3228 C 0.1544 0.90157 0.50417 0.0
C3229 C 0.1482 0.8996 0.53247 0.0
C3230 C 0.11674 0.89397 0.57614 0.0
C3231 C 0.10959 0.87791 0.65486 0.0
C3232 C 0.1148 0.88163 0.62341 0.0
C3233 C 0.13353 0.89493 0.53538 0.0
C3234 C 0.12657 0.89008 0.56521 0.0
H3235 H 0.12204 0.87587 0.72392 0.0
H3236 H 0.1304 0.88321 0.67282 0.0
H3237 H 0.10371 0.89329 0.61338 0.0
H3238 H 0.1252 0.89358 0.46096 0.0
H3239 H 0.11417 0.89006 0.51096 0.0
C3240 C 0.43748 0.19598 0.52413 0.0
C3241 C 0.42881 0.19665 0.54703 0.0
C3242 C 0.437 0.20057 0.49482 0.0
C3243 C 0.42537 0.2228 0.45209 0.0
H3244 H 0.42446 0.20021 0.38328 0.0
C3245 C 0.40037 0.22422 0.33975 0.0
C3246 C 0.4072 0.2245 0.31261 0.0
C3247 C 0.40557 0.22253 0.36721 0.0
C3248 C 0.42496 0.20677 0.40222 0.0
H3249 H 0.41305 0.20302 0.55689 0.0
H3250 H 0.41193 0.2106 0.50608 0.0
H3251 H 0.42845 0.19371 0.43368 0.0
H3252 H 0.42502 0.22335 0.29313 0.0
H3253 H 0.43409 0.22007 0.34171 0.0
H3254 H 0.42134 0.2355 0.42085 0.0
C3255 C 0.41926 0.2067 0.51068 0.0
C3256 C 0.42723 0.20305 0.43114 0.0
C3257 C 0.41974 0.20213 0.53985 0.0
C3258 C 0.41958 0.22325 0.31368 0.0
C3259 C 0.42469 0.22128 0.3414 0.0
C3260 C 0.42303 0.22644 0.42332 0.0
C3261 C 0.42789 0.20602 0.48772 0.0
C3262 C 0.42709 0.2108 0.45656 0.0
C3263 C 0.41769 0.22089 0.36847 0.0
C3264 C 0.42243 0.21827 0.39812 0.0
H3265 H 0.44452 0.19173 0.52875 0.0
H3266 H 0.44385 0.19995 0.4778 0.0
H3267 H 0.42557 0.22926 0.47095 0.0
H3268 H 0.39084 0.22522 0.33982 0.0
H3269 H 0.39982 0.22211 0.38752 0.0
C3270 C 0.77489 0.21362 0.54881 0.0
C3271 C 0.78947 0.21929 0.55594 0.0
C3272 C 0.77006 0.20999 0.51916 0.0
C3273 C 0.78204 0.21484 0.43941 0.0
H3274 H 0.74791 0.17769 0.4285 0.0
C3275 C 0.76022 0.19051 0.321 0.0
C3276 C 0.75801 0.17657 0.31792 0.0
C3277 C 0.76228 0.19677 0.34966 0.0
C3278 C 0.7574 0.18813 0.43115 0.0
H3279 H 0.81044 0.22583 0.53717 0.0
H3280 H 0.802 0.21948 0.48547 0.0
H3281 H 0.75565 0.1871 0.47908 0.0
H3282 H 0.75542 0.15796 0.34213 0.0
H3283 H 0.75874 0.16867 0.3917 0.0
H3284 H 0.78404 0.21554 0.39135 0.0
C3285 C 0.79432 0.21801 0.50279 0.0
C3286 C 0.76179 0.19359 0.46016 0.0
C3287 C 0.79916 0.22163 0.53248 0.0
C3288 C 0.75712 0.16874 0.34388 0.0
C3289 C 0.75895 0.17486 0.37232 0.0
C3290 C 0.77758 0.2094 0.41031 0.0
C3291 C 0.77967 0.21194 0.49583 0.0
C3292 C 0.77433 0.20687 0.46473 0.0
C3293 C 0.76187 0.18905 0.37559 0.0
C3294 C 0.76539 0.19583 0.40591 0.0
H3295 H 0.76717 0.21194 0.5662 0.0
H3296 H 0.75874 0.20557 0.51455 0.0
H3297 H 0.79165 0.22518 0.44211 0.0
H3298 H 0.76112 0.19681 0.30128 0.0
H3299 H 0.76445 0.20771 0.35152 0.0
C3300 C 0.80544 0.59549 0.32528 0.0
C3301 C 0.80941 0.5872 0.30767 0.0
C3302 C 0.79755 0.58999 0.35164 0.0
C3303 C 0.79164 0.56487 0.41202 0.0
H3304 H 0.76219 0.57357 0.43608 0.0
C3305 C 0.77797 0.56844 0.53608 0.0
C3306 C 0.76358 0.56329 0.54411 0.0
C3307 C 0.78186 0.56871 0.50599 0.0
C3308 C 0.77025 0.57086 0.42964 0.0
H3309 H 0.80791 0.56645 0.30355 0.0
H3310 H 0.79418 0.5568 0.3503 0.0
H3311 H 0.77128 0.57842 0.38464 0.0
H3312 H 0.74195 0.55414 0.52674 0.0
H3313 H 0.74875 0.55465 0.47403 0.0
H3314 H 0.79089 0.55769 0.45731 0.0
C3315 C 0.79717 0.56758 0.3434 0.0
C3316 C 0.77553 0.57374 0.4002 0.0
C3317 C 0.80492 0.57305 0.31657 0.0
C3318 C 0.75312 0.55812 0.52132 0.0
C3319 C 0.75703 0.55851 0.49112 0.0
C3320 C 0.78644 0.5621 0.44157 0.0
C3321 C 0.79355 0.57608 0.36138 0.0
C3322 C 0.7865 0.57107 0.39121 0.0
C3323 C 0.77147 0.56392 0.48307 0.0
C3324 C 0.77588 0.56534 0.4509 0.0
H3325 H 0.8087 0.60643 0.31902 0.0
H3326 H 0.79511 0.59689 0.36508 0.0
H3327 H 0.80016 0.56278 0.40588 0.0
H3328 H 0.78628 0.57236 0.55312 0.0
H3329 H 0.79309 0.57309 0.5006 0.0
C3330 C 0.89401 0.75608 0.77082 0.0
C3331 C 0.8845 0.74285 0.78432 0.0
C3332 C 0.89157 0.75902 0.74118 0.0
C3333 C 0.87404 0.73947 0.6718 0.0
H3334 H 0.87451 0.77388 0.64456 0.0
C3335 C 0.85112 0.74124 0.55596 0.0
C3336 C 0.85781 0.75401 0.53914 0.0
C3337 C 0.85514 0.74093 0.58578 0.0
C3338 C 0.87454 0.76427 0.65164 0.0
H3339 H 0.86444 0.72286 0.77799 0.0
H3340 H 0.86037 0.72794 0.72712 0.0
H3341 H 0.88059 0.77209 0.69692 0.0
H3342 H 0.8739 0.77661 0.54129 0.0
H3343 H 0.88123 0.77594 0.59285 0.0
H3344 H 0.86817 0.7316 0.62693 0.0
C3345 C 0.86982 0.73594 0.73891 0.0
C3346 C 0.87802 0.76327 0.68168 0.0
C3347 C 0.87217 0.73307 0.76824 0.0
C3348 C 0.86861 0.7665 0.55324 0.0
C3349 C 0.8727 0.76617 0.58307 0.0
C3350 C 0.87071 0.74051 0.64187 0.0
C3351 C 0.87965 0.74874 0.72464 0.0
C3352 C 0.8775 0.75072 0.69223 0.0
C3353 C 0.86609 0.75335 0.59975 0.0
C3354 C 0.87059 0.75279 0.63141 0.0
H3355 H 0.90361 0.76382 0.78256 0.0
H3356 H 0.8993 0.76903 0.73075 0.0
H3357 H 0.87381 0.72975 0.67907 0.0
H3358 H 0.84289 0.73134 0.54597 0.0
H3359 H 0.84958 0.73089 0.59792 0.0
C3360 C 0.22563 0.09184 0.55329 0.0
C3361 C 0.23817 0.09865 0.53569 0.0
C3362 C 0.22525 0.09697 0.58212 0.0
C3363 C 0.24363 0.12996 0.62825 0.0
H3364 H 0.22761 0.10477 0.69714 0.0
C3365 C 0.26025 0.15091 0.74711 0.0
C3366 C 0.25005 0.14682 0.77032 0.0
C3367 C 0.25659 0.14437 0.71903 0.0
C3368 C 0.23188 0.11191 0.67803 0.0
H3369 H 0.26012 0.11626 0.53486 0.0
H3370 H 0.25952 0.12505 0.58492 0.0
H3371 H 0.22565 0.09452 0.64683 0.0
H3372 H 0.22791 0.13204 0.78202 0.0
H3373 H 0.22142 0.12036 0.73217 0.0
H3374 H 0.25012 0.14734 0.65919 0.0
C3375 C 0.24992 0.1158 0.57642 0.0
C3376 C 0.2308 0.10606 0.64922 0.0
C3377 C 0.25032 0.11064 0.54778 0.0
C3378 C 0.23601 0.13559 0.76464 0.0
C3379 C 0.23231 0.12888 0.73616 0.0
C3380 C 0.24467 0.13577 0.65684 0.0
C3381 C 0.23736 0.10912 0.59391 0.0
C3382 C 0.23704 0.11505 0.62412 0.0
C3383 C 0.24258 0.13339 0.71293 0.0
C3384 C 0.2392 0.12687 0.68225 0.0
H3385 H 0.2161 0.0825 0.54482 0.0
H3386 H 0.2154 0.09159 0.59494 0.0
H3387 H 0.24821 0.1372 0.60937 0.0
H3388 H 0.27128 0.15909 0.75057 0.0
H3389 H 0.2649 0.14785 0.70209 0.0
C3390 C 0.84373 0.1013 0.75324 0.0
C3391 C 0.85182 0.10497 0.77981 0.0
C3392 C 0.85033 0.10329 0.7254 0.0
C3393 C 0.88353 0.11103 0.68523 0.0
H3394 H 0.86879 0.12738 0.62726 0.0
C3395 C 0.90841 0.13378 0.56653 0.0
C3396 C 0.8984 0.12981 0.54294 0.0
C3397 C 0.90377 0.13014 0.59635 0.0
C3398 C 0.87297 0.12272 0.64309 0.0
H3399 H 0.87302 0.11289 0.79847 0.0
H3400 H 0.88482 0.11672 0.74918 0.0
H3401 H 0.85895 0.122 0.6777 0.0
H3402 H 0.87572 0.11803 0.53205 0.0
H3403 H 0.8677 0.11193 0.58379 0.0
H3404 H 0.89773 0.11201 0.65011 0.0
C3405 C 0.8733 0.11212 0.75004 0.0
C3406 C 0.8673 0.11959 0.67202 0.0
C3407 C 0.86658 0.10992 0.7782 0.0
C3408 C 0.88371 0.12161 0.54971 0.0
C3409 C 0.87911 0.11806 0.57935 0.0
C3410 C 0.88931 0.11428 0.65609 0.0
C3411 C 0.86526 0.10929 0.72332 0.0
C3412 C 0.87225 0.1134 0.69328 0.0
C3413 C 0.88905 0.12254 0.60306 0.0
C3414 C 0.88385 0.11988 0.63459 0.0
H3415 H 0.83228 0.09727 0.75397 0.0
H3416 H 0.84374 0.10055 0.70536 0.0
H3417 H 0.8876 0.1063 0.70111 0.0
H3418 H 0.9198 0.14014 0.56209 0.0
H3419 H 0.91166 0.13375 0.61422 0.0
C3420 C 0.23387 0.12523 0.05887 0.0
C3421 C 0.2384 0.12016 0.03449 0.0
C3422 C 0.23392 0.12049 0.08823 0.0
C3423 C 0.23583 0.09138 0.13041 0.0
H3424 H 0.24623 0.11763 0.19776 0.0
C3425 C 0.25577 0.0826 0.24437 0.0
C3426 C 0.25098 0.08589 0.27098 0.0
C3427 C 0.25188 0.08538 0.21628 0.0
C3428 C 0.24308 0.1101 0.17924 0.0
H3429 H 0.24698 0.10647 0.02209 0.0
H3430 H 0.24742 0.09848 0.07303 0.0
H3431 H 0.24469 0.12574 0.14733 0.0
H3432 H 0.23816 0.09446 0.28906 0.0
H3433 H 0.2314 0.09951 0.2396 0.0
H3434 H 0.2348 0.07595 0.16226 0.0
C3435 C 0.24336 0.10577 0.06957 0.0
C3436 C 0.24219 0.11474 0.15025 0.0
C3437 C 0.24318 0.1104 0.04026 0.0
C3438 C 0.24176 0.09156 0.26891 0.0
C3439 C 0.23807 0.09462 0.24065 0.0
C3440 C 0.23686 0.08681 0.15928 0.0
C3441 C 0.23863 0.11064 0.09402 0.0
C3442 C 0.23876 0.10551 0.1253 0.0
C3443 C 0.24329 0.09176 0.21404 0.0
C3444 C 0.24067 0.09616 0.18399 0.0
H3445 H 0.22999 0.13266 0.05517 0.0
H3446 H 0.23003 0.12438 0.1063 0.0
H3447 H 0.23279 0.08381 0.11203 0.0
H3448 H 0.263 0.07836 0.2453 0.0
H3449 H 0.2562 0.08318 0.1963 0.0
C3450 C 0.8998 0.13555 0.27313 0.0
C3451 C 0.90492 0.15023 0.2776 0.0
C3452 C 0.89683 0.12979 0.24391 0.0
C3453 C 0.8864 0.13795 0.17087 0.0
H3454 H 0.89164 0.10732 0.13923 0.0
C3455 C 0.87394 0.1207 0.04743 0.0
C3456 C 0.86678 0.10596 0.04079 0.0
C3457 C 0.87945 0.12567 0.07616 0.0
C3458 C 0.88998 0.11579 0.14788 0.0
H3459 H 0.91186 0.17055 0.25551 0.0
H3460 H 0.90723 0.16072 0.20479 0.0
H3461 H 0.90052 0.11686 0.18967 0.0
H3462 H 0.86003 0.08488 0.05921 0.0
H3463 H 0.86958 0.09357 0.10961 0.0
H3464 H 0.87576 0.13687 0.12961 0.0
C3465 C 0.90515 0.15352 0.22354 0.0
C3466 C 0.8951 0.12126 0.17675 0.0
C3467 C 0.90798 0.1592 0.25255 0.0
C3468 C 0.86555 0.09632 0.06352 0.0
C3469 C 0.87105 0.1013 0.0924 0.0
C3470 C 0.8813 0.13249 0.14222 0.0
C3471 C 0.89893 0.13867 0.21888 0.0
C3472 C 0.8935 0.13253 0.18843 0.0
C3473 C 0.87792 0.11604 0.09916 0.0
C3474 C 0.88313 0.12145 0.13016 0.0
H3475 H 0.89709 0.12841 0.29221 0.0
H3476 H 0.89202 0.11831 0.24111 0.0
H3477 H 0.88459 0.14633 0.17944 0.0
H3478 H 0.87539 0.12846 0.0303 0.0
H3479 H 0.88496 0.13711 0.08031 0.0
C3480 C 0.89477 0.77684 0.05669 0.0
C3481 C 0.8959 0.76539 0.04436 0.0
C3482 C 0.88917 0.77586 0.08558 0.0
C3483 C 0.86555 0.7484 0.14065 0.0
H3484 H 0.87807 0.78084 0.1946 0.0
C3485 C 0.83187 0.7438 0.2431 0.0
C3486 C 0.83904 0.74858 0.27073 0.0
C3487 C 0.83947 0.7477 0.21612 0.0
C3488 C 0.87451 0.77167 0.17985 0.0
H3489 H 0.89233 0.74405 0.05361 0.0
H3490 H 0.88315 0.74258 0.10409 0.0
H3491 H 0.8909 0.78372 0.14734 0.0
H3492 H 0.85969 0.76188 0.29176 0.0
H3493 H 0.87312 0.76877 0.2443 0.0
H3494 H 0.8494 0.73625 0.17318 0.0
C3495 C 0.88629 0.75222 0.09117 0.0
C3496 C 0.88178 0.77334 0.15263 0.0
C3497 C 0.89179 0.75316 0.06226 0.0
C3498 C 0.85388 0.75824 0.27073 0.0
C3499 C 0.86156 0.76208 0.24356 0.0
C3500 C 0.85834 0.74674 0.16774 0.0
C3501 C 0.88459 0.76341 0.10301 0.0
C3502 C 0.87734 0.76172 0.13259 0.0
C3503 C 0.85448 0.75636 0.21603 0.0
C3504 C 0.86259 0.75837 0.18756 0.0
H3505 H 0.89804 0.78654 0.04386 0.0
H3506 H 0.88798 0.78467 0.09381 0.0
H3507 H 0.86165 0.73924 0.12576 0.0
H3508 H 0.82043 0.73637 0.24244 0.0
H3509 H 0.8336 0.74342 0.19534 0.0
C3510 C 0.80494 0.58622 0.03262 0.0
C3511 C 0.80149 0.57344 0.04783 0.0
C3512 C 0.79991 0.58592 1.00346 0.0
C3513 C 0.78458 0.56281 0.93555 0.0
H3514 H 0.77513 0.59206 0.91458 0.0
C3515 C 0.76223 0.56958 0.81792 0.0
C3516 C 0.77041 0.58365 0.80679 0.0
C3517 C 0.76466 0.56624 0.84726 0.0
C3518 C 0.77765 0.58377 0.92013 0.0
H3519 H 0.79017 0.55024 0.04353 0.0
H3520 H 0.78107 0.54972 0.99298 0.0
H3521 H 0.78183 0.59042 0.96605 0.0
H3522 H 0.78822 0.60492 0.81724 0.0
H3523 H 0.79206 0.59918 0.86756 0.0
H3524 H 0.78035 0.55629 0.88912 0.0
C3525 C 0.78782 0.56002 1.00358 0.0
C3526 C 0.78164 0.5829 0.94961 0.0
C3527 C 0.79292 0.56032 0.03279 0.0
C3528 C 0.78141 0.59403 0.82507 0.0
C3529 C 0.78368 0.59077 0.85408 0.0
C3530 C 0.78044 0.56361 0.90594 0.0
C3531 C 0.79116 0.57282 0.98857 0.0
C3532 C 0.78557 0.57269 0.95763 0.0
C3533 C 0.77518 0.57697 0.86584 0.0
C3534 C 0.77731 0.57436 0.8978 0.0
H3535 H 0.81134 0.59653 0.04342 0.0
H3536 H 0.80298 0.59604 0.99255 0.0
H3537 H 0.78756 0.55483 0.94078 0.0
H3538 H 0.75373 0.56133 0.80443 0.0
H3539 H 0.75801 0.55547 0.8558 0.0
C3540 C 0.42681 0.19602 0.81539 0.0
C3541 C 0.41721 0.18124 0.81254 0.0
C3542 C 0.43024 0.20248 0.84403 0.0
C3543 C 0.42785 0.19404 0.92622 0.0
H3544 H 0.42499 0.2283 0.93619 0.0
C3545 C 0.41611 0.2105 0.04142 0.0
C3546 C 0.4233 0.22511 0.04937 0.0
C3547 C 0.41729 0.20617 1.01239 0.0
C3548 C 0.42602 0.21885 0.9338 0.0
H3549 H 0.4044 0.16152 0.83717 0.0
H3550 H 0.4103 0.17259 0.88655 0.0
H3551 H 0.42462 0.21914 0.8857 0.0
H3552 H 0.43728 0.24662 0.03261 0.0
H3553 H 0.43939 0.23904 0.98191 0.0
H3554 H 0.42888 0.19351 0.97425 0.0
C3555 C 0.41526 0.17932 0.8671 0.0
C3556 C 0.42586 0.21361 0.90479 0.0
C3557 C 0.41178 0.17295 0.83871 0.0
C3558 C 0.43168 0.23528 0.02738 0.0
C3559 C 0.43279 0.23093 0.99822 0.0
C3560 C 0.42797 0.19924 0.95514 0.0
C3561 C 0.42426 0.19422 0.87023 0.0
C3562 C 0.42645 0.20095 0.90065 0.0
C3563 C 0.42566 0.21631 0.99037 0.0
C3564 C 0.42675 0.21153 0.95938 0.0
H3565 H 0.43102 0.20267 0.79556 0.0
H3566 H 0.43731 0.21397 0.84562 0.0
H3567 H 0.4286 0.18443 0.92394 0.0
H3568 H 0.40969 0.20235 0.05779 0.0
H3569 H 0.41148 0.19482 1.0071 0.0
C3570 C 0.81635 0.21856 0.84822 0.0
C3571 C 0.81172 0.22227 0.82186 0.0
C3572 C 0.80989 0.21771 0.87574 0.0
C3573 C 0.77659 0.21093 0.911 0.0
H3574 H 0.80091 0.22366 0.98184 0.0
C3575 C 0.75636 0.2018 0.03647 0.0
C3576 C 0.76279 0.19581 0.05455 0.0
C3577 C 0.76137 0.20658 1.00723 0.0
C3578 C 0.79397 0.22009 0.96228 0.0
H3579 H 0.79648 0.22794 0.80401 0.0
H3580 H 0.785 0.22641 0.85286 0.0
H3581 H 0.8117 0.23032 0.9321 0.0
H3582 H 0.77899 0.18942 0.05507 0.0
H3583 H 0.78792 0.19812 1.00483 0.0
H3584 H 0.75885 0.20042 0.94165 0.0
C3585 C 0.79378 0.22424 0.85179 0.0
C3586 C 0.80013 0.22391 0.9338 0.0
C3587 C 0.8004 0.2252 0.82391 0.0
C3588 C 0.77405 0.19437 0.04231 0.0
C3589 C 0.77914 0.19929 1.01341 0.0
C3590 C 0.77037 0.20719 0.93971 0.0
C3591 C 0.79852 0.22051 0.878 0.0
C3592 C 0.79159 0.2189 0.90779 0.0
C3593 C 0.773 0.20562 0.9957 0.0
C3594 C 0.77908 0.21131 0.96554 0.0
H3595 H 0.82488 0.21603 0.84772 0.0
H3596 H 0.8136 0.21447 0.89525 0.0
H3597 H 0.76973 0.20687 0.8914 0.0
H3598 H 0.74773 0.20316 0.04516 0.0
H3599 H 0.75645 0.21141 0.99399 0.0
C3600 C 0.01497 0.4708 0.27192 0.0
C3601 C 0.00757 0.46054 0.24925 0.0
C3602 C 0.0116 0.46742 0.30246 0.0
C3603 C 0.99397 0.43631 0.35492 0.0
H3604 H 0.99351 0.464 0.40994 0.0
C3605 C 0.97294 0.42056 0.47699 0.0
C3606 C 0.97982 0.43063 0.5002 0.0
C3607 C 0.97625 0.42444 0.44669 0.0
C3608 C 0.99376 0.45617 0.39506 0.0
H3609 H 0.99043 0.4387 0.24162 0.0
H3610 H 0.98471 0.43283 0.29449 0.0
H3611 H -0.00052 0.47031 0.35713 0.0
H3612 H 0.99569 0.45281 0.50918 0.0
H3613 H 0.00154 0.45955 0.4565 0.0
H3614 H 0.98839 0.4222 0.39272 0.0
C3615 C 0.9933 0.44345 0.28871 0.0
C3616 C -0.00282 0.4598 0.36463 0.0
C3617 C -0.00338 0.44683 0.25822 0.0
C3618 C 0.99002 0.44478 0.49204 0.0
C3619 C 0.99338 0.44865 0.46168 0.0
C3620 C 0.99061 0.43269 0.38532 0.0
C3621 C 0.00076 0.45366 0.31137 0.0
C3622 C -0.00272 0.4499 0.34403 0.0
C3623 C 0.98661 0.43853 0.43847 0.0
C3624 C 0.99037 0.44253 0.40593 0.0
H3625 H 0.02359 0.48141 0.26616 0.0
H3626 H 0.01773 0.47554 0.31916 0.0
H3627 H 0.99418 0.42846 0.34001 0.0
H3628 H 0.96482 0.40964 0.48221 0.0
H3629 H 0.97052 0.41637 0.42966 0.0
C3630 C 0.55114 0.53544 0.48753 0.0
C3631 C 0.54181 0.52244 0.50205 0.0
C3632 C 0.54953 0.53737 0.45688 0.0
C3633 C 0.52339 0.52267 0.39325 0.0
H3634 H 0.55745 0.54428 0.34464 0.0
C3635 C 0.521 0.52651 0.26281 0.0
C3636 C 0.53067 0.53962 0.24902 0.0
C3637 C 0.52205 0.5243 0.29361 0.0
C3638 C 0.5478 0.53836 0.35787 0.0
H3639 H 0.52346 0.50121 0.49524 0.0
H3640 H 0.52072 0.50451 0.44181 0.0
H3641 H 0.55986 0.54061 0.39782 0.0
H3642 H 0.54875 0.56084 0.25748 0.0
H3643 H 0.55054 0.55704 0.31092 0.0
H3644 H 0.51134 0.52041 0.35316 0.0
C3645 C 0.52918 0.51335 0.45426 0.0
C3646 C 0.54918 0.53624 0.38853 0.0
C3647 C 0.53076 0.51143 0.48498 0.0
C3648 C 0.54128 0.55051 0.26707 0.0
C3649 C 0.54232 0.54831 0.29783 0.0
C3650 C 0.52201 0.52478 0.36253 0.0
C3651 C 0.53856 0.52634 0.43969 0.0
C3652 C 0.53701 0.52841 0.40677 0.0
C3653 C 0.53279 0.53513 0.31158 0.0
C3654 C 0.53419 0.53271 0.34437 0.0
H3655 H 0.5596 0.54427 0.49998 0.0
H3656 H 0.5568 0.54764 0.44678 0.0
H3657 H 0.51374 0.51675 0.40651 0.0
H3658 H 0.51279 0.51781 0.24964 0.0
H3659 H 0.51463 0.51394 0.30317 0.0
C3660 C 0.43614 0.97532 0.26425 0.0
C3661 C 0.4482 0.97934 0.24588 0.0
C3662 C 0.43769 0.97846 0.29513 0.0
C3663 C 0.4646 0.00185 0.35286 0.0
H3664 H 0.43627 0.97498 0.40861 0.0
C3665 C 0.46404 0.016 0.47902 0.0
C3666 C 0.45988 0.00502 0.5005 0.0
C3667 C 0.46283 0.01293 0.44811 0.0
C3668 C 0.44439 0.98258 0.3935 0.0
H3669 H 0.47139 0.98962 0.24612 0.0
H3670 H 0.4741 0.99493 0.2998 0.0
H3671 H 0.43395 0.96935 0.35523 0.0
H3672 H 0.45159 0.98219 0.50588 0.0
H3673 H 0.44965 0.97687 0.45229 0.0
H3674 H 0.47526 0.01491 0.39127 0.0
C3675 C 0.46341 0.98962 0.29028 0.0
C3676 C 0.44294 0.97943 0.36264 0.0
C3677 C 0.46186 0.98654 0.25937 0.0
C3678 C 0.45465 0.99091 0.4901 0.0
C3679 C 0.45351 0.98784 0.45923 0.0
C3680 C 0.46608 0.005 0.38375 0.0
C3681 C 0.45135 0.98566 0.30869 0.0
C3682 C 0.45299 0.98902 0.34177 0.0
C3683 C 0.4575 -0.00122 0.43768 0.0
C3684 C 0.45599 0.99542 0.4046 0.0
H3685 H 0.42546 0.96996 0.25467 0.0
H3686 H 0.42813 0.97544 0.30825 0.0
H3687 H 0.4725 0.00962 0.33763 0.0
H3688 H 0.46795 0.02697 0.48609 0.0
H3689 H 0.46582 0.02165 0.43239 0.0
C3690 C 0.98241 0.53539 0.98172 0.0
C3691 C 0.98067 0.5455 0.9986 0.0
C3692 C 0.98574 0.53751 0.95095 0.0
C3693 C 0.98479 0.55819 0.88446 0.0
H3694 H 0.01112 0.54746 0.84986 0.0
C3695 C 0.00593 0.57382 0.76243 0.0
C3696 C 0.00764 0.56387 0.74494 0.0
C3697 C 0.00275 0.57149 0.7932 0.0
C3698 C 0.00361 0.55037 0.859 0.0
H3699 H 0.98148 0.56601 0.99591 0.0
H3700 H 0.98725 0.56968 0.94255 0.0
H3701 H 0.00541 0.54359 0.90333 0.0
H3702 H 0.0072 0.54352 0.74663 0.0
H3703 H 0.00164 0.53945 0.80015 0.0
H3704 H 0.98296 0.56496 0.84021 0.0
C3705 C 0.98577 0.55995 0.95296 0.0
C3706 C 0.00032 0.54815 0.88979 0.0
C3707 C 0.98245 0.55783 0.98371 0.0
C3708 C 0.00617 0.55154 0.75932 0.0
C3709 C 0.00297 0.5492 0.79013 0.0
C3710 C 0.98807 0.56041 0.85371 0.0
C3711 C 0.98744 0.54981 0.93603 0.0
C3712 C 0.99089 0.55206 0.90305 0.0
C3713 C 0.00115 0.55911 0.80756 0.0
C3714 C -0.00244 0.55658 0.84046 0.0
H3715 H 0.98093 0.52566 0.99215 0.0
H3716 H 0.98672 0.52934 0.93872 0.0
H3717 H 0.97728 0.56111 0.89358 0.0
H3718 H 0.00725 0.58358 0.75245 0.0
H3719 H 0.00173 0.57953 0.80584 0.0
C3720 C 0.45411 0.45706 0.76926 0.0
C3721 C 0.44226 0.4578 0.75806 0.0
C3722 C 0.45537 0.45497 0.80002 0.0
C3723 C 0.4339 0.4416 0.87038 0.0
H3724 H 0.47103 0.46168 0.90948 0.0
C3725 C 0.44002 0.43938 0.99982 0.0
C3726 C 0.45199 0.43887 1.01101 0.0
C3727 C 0.43889 0.44179 0.96918 0.0
C3728 C 0.46059 0.45582 0.89893 0.0
H3729 H 0.42238 0.45683 0.77098 0.0
H3730 H 0.42465 0.45339 0.82451 0.0
H3731 H 0.46898 0.4657 0.85622 0.0
H3732 H 0.47233 0.44081 0.99827 0.0
H3733 H 0.47021 0.44464 0.94493 0.0
H3734 H 0.42552 0.43165 0.91299 0.0
C3735 C 0.43295 0.4543 0.80943 0.0
C3736 C 0.4594 0.45815 0.86825 0.0
C3737 C 0.43172 0.45645 0.77866 0.0
C3738 C 0.46283 0.44089 0.99055 0.0
C3739 C 0.4617 0.44331 0.9599 0.0
C3740 C 0.43509 0.43924 0.90103 0.0
C3741 C 0.44478 0.4535 0.8206 0.0
C3742 C 0.44604 0.45108 0.85347 0.0
C3743 C 0.4497 0.44378 0.94868 0.0
C3744 C 0.44845 0.44631 0.91584 0.0
H3745 H 0.46254 0.45822 0.75426 0.0
H3746 H 0.46457 0.45429 0.80758 0.0
H3747 H 0.42347 0.43576 0.8598 0.0
H3748 H 0.43139 0.43778 1.01472 0.0
H3749 H 0.42957 0.44226 0.96166 0.0
C3750 C 0.53115 0.00026 0.98346 0.0
C3751 C 0.54465 0.0093 0.99652 0.0
C3752 C 0.52992 0.99625 0.95309 0.0
C3753 C 0.55148 0.99483 0.8883 0.0
H3754 H 0.51863 0.9891 0.84154 0.0
C3755 C 0.54842 0.98743 0.75855 0.0
C3756 C 0.53534 0.97686 0.74612 0.0
C3757 C 0.54945 0.99113 0.78907 0.0
C3758 C 0.52781 0.99052 0.85433 0.0
H3759 H 0.56744 0.02146 0.98734 0.0
H3760 H 0.56534 0.01478 0.93443 0.0
H3761 H 0.52071 0.99633 0.89412 0.0
H3762 H 0.51301 0.96204 0.75618 0.0
H3763 H 0.51478 0.96852 0.80944 0.0
H3764 H 0.55869 0.98928 0.84821 0.0
C3765 C 0.55566 0.01042 0.94777 0.0
C3766 C 0.52901 0.99465 0.88464 0.0
C3767 C 0.55688 0.01433 0.97822 0.0
C3768 C 0.52329 0.97011 0.76507 0.0
C3769 C 0.52427 0.97393 0.79554 0.0
C3770 C 0.55035 0.99084 0.85794 0.0
C3771 C 0.54216 0.00125 0.93469 0.0
C3772 C 0.54087 0.99687 0.90218 0.0
C3773 C 0.53738 0.98449 0.808 0.0
C3774 C 0.5385 0.98862 0.8405 0.0
H3775 H 0.52149 0.996 0.99691 0.0
H3776 H 0.51935 0.98898 0.94424 0.0
H3777 H 0.56064 0.99611 0.90098 0.0
H3778 H 0.55793 0.99282 0.74468 0.0
H3779 H 0.55968 -0.00061 0.79774 0.0
C3780 C 0.64978 0.79564 0.82006 0.0
C3781 C 0.64168 0.78163 0.83157 0.0
C3782 C 0.65368 0.79798 0.78956 0.0
C3783 C 0.65802 0.77969 0.72242 0.0
H3784 H 0.65829 0.81086 0.67831 0.0
C3785 C 0.68044 0.79436 0.60069 0.0
C3786 C 0.67292 0.79812 0.58013 0.0
C3787 C 0.67698 0.79271 0.63143 0.0
C3788 C 0.6582 0.80204 0.69019 0.0
H3789 H 0.6309 0.75911 0.81928 0.0
H3790 H 0.63766 0.76316 0.76647 0.0
H3791 H 0.65122 0.80717 0.73112 0.0
H3792 H 0.65593 0.80332 0.57647 0.0
H3793 H 0.64981 0.80027 0.62956 0.0
H3794 H 0.66472 0.77438 0.68139 0.0
C3795 C 0.64129 0.77238 0.78111 0.0
C3796 C 0.65429 0.80002 0.72067 0.0
C3797 C 0.63739 0.77005 0.81152 0.0
C3798 C 0.6619 0.80027 0.59135 0.0
C3799 C 0.65848 0.79869 0.62204 0.0
C3800 C 0.66197 0.78174 0.69199 0.0
C3801 C 0.64961 0.78637 0.76966 0.0
C3802 C 0.65406 0.78876 0.73723 0.0
C3803 C 0.66593 0.79484 0.64258 0.0
C3804 C 0.66206 0.7929 0.67534 0.0
H3805 H 0.65344 0.80484 0.83477 0.0
H3806 H 0.66021 0.80891 0.78175 0.0
H3807 H 0.65818 0.77102 0.73441 0.0
H3808 H 0.68892 0.79251 0.59302 0.0
H3809 H 0.68308 0.7899 0.64651 0.0
C3810 C 0.18994 0.85376 0.8283 0.0
C3811 C 0.20309 0.85576 0.83926 0.0
C3812 C 0.18793 0.85505 0.79753 0.0
C3813 C 0.20277 0.85502 0.72178 0.0
H3814 H 0.18103 0.87308 0.69703 0.0
C3815 C 0.18727 0.85563 0.59709 0.0
C3816 C 0.18774 0.8681 0.58589 0.0
C3817 C 0.18889 0.854 0.62785 0.0
C3818 C 0.18722 0.8681 0.70347 0.0
H3819 H 0.22448 0.86079 0.82592 0.0
H3820 H 0.22099 0.86304 0.77246 0.0
H3821 H 0.18454 0.87064 0.7504 0.0
H3822 H 0.19054 0.88876 0.59899 0.0
H3823 H 0.19345 0.88597 0.65249 0.0
H3824 H 0.20572 0.85275 0.67488 0.0
C3825 C 0.21212 0.86026 0.78763 0.0
C3826 C 0.1891 0.86653 0.73419 0.0
C3827 C 0.21413 0.85896 0.81841 0.0
C3828 C 0.18987 0.8789 0.6066 0.0
C3829 C 0.19154 0.87729 0.63743 0.0
C3830 C 0.20089 0.85657 0.69107 0.0
C3831 C 0.199 0.85839 0.77671 0.0
C3832 C 0.19692 0.85998 0.74385 0.0
C3833 C 0.19112 0.86483 0.64853 0.0
C3834 C 0.19309 0.86315 0.68141 0.0
H3835 H 0.18108 0.85102 0.84348 0.0
H3836 H 0.17759 0.85326 0.79004 0.0
H3837 H 0.20872 0.84977 0.7282 0.0
H3838 H 0.18547 0.84697 0.58212 0.0
H3839 H 0.18821 0.84412 0.63545 0.0
C3840 C 0.11802 0.33918 0.82203 0.0
C3841 C 0.12429 0.35348 0.83202 0.0
C3842 C 0.11756 0.33596 0.79133 0.0
C3843 C 0.11947 0.35132 0.71531 0.0
H3844 H 0.12467 0.31996 0.68848 0.0
C3845 C 0.1223 0.33996 0.5884 0.0
C3846 C 0.11577 0.32557 0.57885 0.0
C3847 C 0.1237 0.34348 0.61909 0.0
C3848 C 0.12301 0.32865 0.69552 0.0
H3849 H 0.13516 0.37561 0.81712 0.0
H3850 H 0.13451 0.37003 0.76372 0.0
H3851 H 0.12663 0.32588 0.74183 0.0
H3852 H 0.1058 0.30361 0.59479 0.0
H3853 H 0.10792 0.30969 0.64803 0.0
H3854 H 0.11575 0.35404 0.66908 0.0
C3855 C 0.12978 0.36125 0.77964 0.0
C3856 C 0.12416 0.33207 0.72625 0.0
C3857 C 0.1303 0.36448 0.81038 0.0
C3858 C 0.11073 0.31481 0.60107 0.0
C3859 C 0.11213 0.31832 0.63177 0.0
C3860 C 0.1183 0.34789 0.6846 0.0
C3861 C 0.12332 0.34693 0.76959 0.0
C3862 C 0.12237 0.34344 0.73666 0.0
C3863 C 0.11862 0.33272 0.64131 0.0
C3864 C 0.12002 0.33647 0.67418 0.0
H3865 H 0.11347 0.33042 0.83799 0.0
H3866 H 0.1124 0.3248 0.7846 0.0
H3867 H 0.11778 0.35999 0.72239 0.0
H3868 H 0.12619 0.34858 0.57213 0.0
H3869 H 0.12892 0.35469 0.62538 0.0
C3870 C 0.6968 0.89196 0.1087 0.0
C3871 C 0.68693 0.88363 0.08616 0.0
C3872 C 0.69325 0.88918 0.13927 0.0
C3873 C 0.66186 0.87142 0.19078 0.0
H3874 H 0.69039 0.87559 0.24931 0.0
C3875 C 0.65217 0.87092 0.31942 0.0
C3876 C 0.65754 0.8642 0.33835 0.0
C3877 C 0.6556 0.87288 0.28871 0.0
C3878 C 0.68223 0.87425 0.2333 0.0
H3879 H 0.66564 0.86546 0.07863 0.0
H3880 H 0.65947 0.86065 0.13171 0.0
H3881 H 0.69664 0.8794 0.19611 0.0
H3882 H 0.67053 0.85399 0.33916 0.0
H3883 H 0.67648 0.85739 0.28579 0.0
H3884 H 0.64739 0.86607 0.2279 0.0
C3885 C 0.6699 0.86953 0.12576 0.0
C3886 C 0.68588 0.87661 0.20272 0.0
C3887 C 0.67346 0.8723 0.0952 0.0
C3888 C 0.66637 0.85942 0.32552 0.0
C3889 C 0.6698 0.86138 0.2948 0.0
C3890 C 0.65822 0.86909 0.22137 0.0
C3891 C 0.67971 0.87798 0.14829 0.0
C3892 C 0.67576 0.87526 0.18096 0.0
C3893 C 0.66451 0.86819 0.27591 0.0
C3894 C 0.66835 0.8705 0.24314 0.0
H3895 H 0.70719 0.90092 0.10278 0.0
H3896 H 0.70103 0.89607 0.15584 0.0
H3897 H 0.6538 0.87042 0.17486 0.0
H3898 H 0.64554 0.87497 0.32844 0.0
H3899 H 0.65149 0.87837 0.27512 0.0
C3900 C 0.14385 0.81523 0.31548 0.0
C3901 C 0.14113 0.80227 0.32888 0.0
C3902 C 0.14187 0.816 0.28444 0.0
C3903 C 0.13678 0.796 0.21203 0.0
H3904 H 0.12158 0.81983 0.18405 0.0
C3905 C 0.12852 0.8019 0.08471 0.0
C3906 C 0.11647 0.80292 0.0762 0.0
C3907 C 0.13232 0.80252 0.11511 0.0
C3908 C 0.12571 0.813 0.19139 0.0
H3909 H 0.13401 0.77991 0.31993 0.0
H3910 H 0.13031 0.78112 0.26631 0.0
H3911 H 0.12654 0.81941 0.23728 0.0
H3912 H 0.0989 0.80524 0.09325 0.0
H3913 H 0.10527 0.80601 0.14605 0.0
H3914 H 0.1354 0.78915 0.16634 0.0
C3915 C 0.13435 0.79085 0.27946 0.0
C3916 C 0.12878 0.81293 0.22204 0.0
C3917 C 0.13646 0.79013 0.31037 0.0
C3918 C 0.10834 0.80458 0.09892 0.0
C3919 C 0.11205 0.80509 0.12931 0.0
C3920 C 0.13363 0.79601 0.18141 0.0
C3921 C 0.13697 0.80378 0.26594 0.0
C3922 C 0.13427 0.80435 0.23293 0.0
C3923 C 0.12411 0.80407 0.13795 0.0
C3924 C 0.12794 0.80443 0.17058 0.0
H3925 H 0.1476 0.82484 0.32897 0.0
H3926 H 0.14427 0.82622 0.27497 0.0
H3927 H 0.1412 0.78941 0.21926 0.0
H3928 H 0.13517 0.80084 0.0678 0.0
H3929 H 0.14182 0.80196 0.12062 0.0
C3930 C 0.19217 0.30882 0.09496 0.0
C3931 C 0.19423 0.31906 0.07287 0.0
C3932 C 0.19315 0.31221 0.12571 0.0
C3933 C 0.20814 0.34343 0.17825 0.0
H3934 H 0.18278 0.31534 0.23626 0.0
C3935 C 0.20771 0.35826 0.30377 0.0
C3936 C 0.20621 0.34817 0.3257 0.0
C3937 C 0.20576 0.35463 0.27311 0.0
C3938 C 0.19007 0.3233 0.22046 0.0
H3939 H 0.19841 0.3408 0.0664 0.0
H3940 H 0.20014 0.34665 0.11967 0.0
H3941 H 0.1803 0.30913 0.18299 0.0
H3942 H 0.20158 0.32627 0.33199 0.0
H3943 H 0.19818 0.31998 0.27886 0.0
H3944 H 0.21795 0.35758 0.21567 0.0
C3945 C 0.19806 0.33608 0.11326 0.0
C3946 C 0.18864 0.31971 0.18979 0.0
C3947 C 0.19707 0.3327 0.08257 0.0
C3948 C 0.20258 0.33429 0.31598 0.0
C3949 C 0.20063 0.33067 0.28535 0.0
C3950 C 0.20957 0.34701 0.20889 0.0
C3951 C 0.19622 0.32593 0.13535 0.0
C3952 C 0.19766 0.32972 0.16818 0.0
C3953 C 0.20227 0.34079 0.26338 0.0
C3954 C 0.20057 0.337 0.23053 0.0
H3955 H 0.19015 0.29827 0.08852 0.0
H3956 H 0.19183 0.30413 0.14192 0.0
H3957 H 0.21547 0.35138 0.16248 0.0
H3958 H 0.21027 0.36898 0.31028 0.0
H3959 H 0.20688 0.36268 0.25704 0.0
C3960 C 0.31089 0.10605 0.14611 0.0
C3961 C 0.3206 0.10547 0.16651 0.0
C3962 C 0.3144 0.1091 0.1156 0.0
C3963 C 0.33957 0.10979 0.05688 0.0
H3964 H 0.32706 0.13266 1.01286 0.0
C3965 C 0.35885 0.12979 0.93517 0.0
C3966 C 0.34856 0.12905 0.9146 0.0
C3967 C 0.35565 0.12722 0.96592 0.0
C3968 C 0.33054 0.12614 0.02471 0.0
H3969 H 0.34168 0.10765 0.1703 0.0
H3970 H 0.34792 0.11331 0.11754 0.0
H3971 H 0.32112 0.12762 0.06599 0.0
H3972 H 0.32688 0.12534 0.91072 0.0
H3973 H 0.32128 0.12075 0.96409 0.0
H3974 H 0.34907 0.10841 1.01558 0.0
C3975 C 0.33746 0.11117 0.12496 0.0
C3976 C 0.32709 0.12321 0.05527 0.0
C3977 C 0.33394 0.10809 0.15544 0.0
C3978 C 0.33504 0.12585 0.92575 0.0
C3979 C 0.33187 0.12336 0.95649 0.0
C3980 C 0.34307 0.11278 0.02636 0.0
C3981 C 0.32775 0.11171 0.10451 0.0
C3982 C 0.33152 0.11495 0.07185 0.0
C3983 C 0.34209 0.12393 0.97703 0.0
C3984 C 0.33857 0.12096 1.00978 0.0
H3985 H 0.30061 0.10435 0.15376 0.0
H3986 H 0.30654 0.10926 0.10064 0.0
H3987 H 0.34298 0.10319 0.06859 0.0
H3988 H 0.36933 0.13211 0.92746 0.0
H3989 H 0.36385 0.1279 0.98104 0.0
C3990 C 0.87799 0.20913 0.93825 0.0
C3991 C 0.86583 0.20918 0.92672 0.0
C3992 C 0.87958 0.20788 0.96924 0.0
C3993 C 0.85874 0.1958 0.04067 0.0
H3994 H 0.8962 0.21731 0.0779 0.0
C3995 C 0.86656 0.1969 0.17039 0.0
C3996 C 0.8788 0.19685 0.18144 0.0
C3997 C 0.86492 0.19847 0.13953 0.0
C3998 C 0.88567 0.21107 0.06789 0.0
H3999 H 0.84576 0.20788 0.93934 0.0
H4000 H 0.84865 0.20599 0.99324 0.0
H4001 H 0.89353 0.22003 0.0243 0.0
H4002 H 0.89896 0.19853 0.16814 0.0
H4003 H 0.89599 0.20096 0.11456 0.0
H4004 H 0.8509 0.1868 0.08425 0.0
C4005 C 0.85693 0.20678 0.97825 0.0
C4006 C 0.88413 0.21265 0.03701 0.0
C4007 C 0.85537 0.20807 0.94725 0.0
C4008 C 0.88932 0.19838 0.16061 0.0
C4009 C 0.88769 0.19996 0.12978 0.0
C4010 C 0.86029 0.19421 0.07156 0.0
C4011 C 0.86904 0.20661 0.98975 0.0
C4012 C 0.87065 0.20503 0.02287 0.0
C4013 C 0.87548 0.20005 0.11871 0.0
C4014 C 0.87378 0.2018 0.08568 0.0
H4015 H 0.88636 0.21008 0.92331 0.0
H4016 H 0.88898 0.20765 0.97706 0.0
H4017 H 0.84822 0.18956 0.03062 0.0
H4018 H 0.85812 0.19557 0.18555 0.0
H4019 H 0.85543 0.19861 0.13206 0.0
C4020 C 0.77609 0.6415 0.92567 0.0
C4021 C 0.78612 0.65113 0.90482 0.0
C4022 C 0.77724 0.64491 0.95638 0.0
C4023 C 0.79376 0.67589 1.0094 0.0
H4024 H 0.78401 0.64633 0.06942 0.0
C4025 C 0.80229 0.68886 0.13744 0.0
C4026 C 0.79181 0.67907 0.15738 0.0
C4027 C 0.80197 0.68555 0.10679 0.0
C4028 C 0.78662 0.65471 0.05302 0.0
H4029 H 0.80555 0.67178 0.90054 0.0
H4030 H 0.80754 0.67771 0.95394 0.0
H4031 H 0.78288 0.64038 1.01624 0.0
H4032 H 0.77262 0.65816 0.1602 0.0
H4033 H 0.77204 0.65244 0.10703 0.0
H4034 H 0.79744 0.69021 0.04619 0.0
C4035 C 0.79859 0.66761 0.94646 0.0
C4036 C 0.78598 0.65128 0.02239 0.0
C4037 C 0.79745 0.6642 0.91573 0.0
C4038 C 0.781 0.6659 0.14572 0.0
C4039 C 0.78068 0.6626 0.11511 0.0
C4040 C 0.7944 0.67932 0.04004 0.0
C4041 C 0.78846 0.65805 0.96727 0.0
C4042 C 0.78947 0.6618 1.00007 0.0
C4043 C 0.79117 0.67235 0.09513 0.0
C4044 C 0.79077 0.66877 0.06236 0.0
H4045 H 0.76711 0.63143 0.91818 0.0
H4046 H 0.7691 0.63734 0.97151 0.0
H4047 H 0.79633 0.68425 0.99299 0.0
H4048 H 0.81095 0.69898 0.14561 0.0
H4049 H 0.81038 0.69326 0.09233 0.0
C4050 C 0.34497 0.2222 0.43679 0.0
C4051 C 0.34068 0.2097 0.41964 0.0
C4052 C 0.34181 0.22136 0.46757 0.0
C4053 C 0.31738 0.19603 0.52583 0.0
H4054 H 0.34431 0.22461 0.58129 0.0
C4055 C 0.30184 0.19991 0.64895 0.0
C4056 C 0.31224 0.20353 0.6716 0.0
C4057 C 0.30545 0.2005 0.61849 0.0
C4058 C 0.33669 0.21644 0.56623 0.0
H4059 H 0.33002 0.1865 0.42202 0.0
H4060 H 0.32461 0.18503 0.47553 0.0
H4061 H 0.35058 0.2258 0.52832 0.0
H4062 H 0.33465 0.21042 0.6795 0.0
H4063 H 0.34089 0.21131 0.62661 0.0
H4064 H 0.30362 0.1865 0.56382 0.0
C4065 C 0.33016 0.19551 0.46508 0.0
C4066 C 0.34022 0.21724 0.53566 0.0
C4067 C 0.33329 0.19635 0.4343 0.0
C4068 C 0.32636 0.20771 0.66281 0.0
C4069 C 0.32996 0.20826 0.63235 0.0
C4070 C 0.31385 0.19523 0.55639 0.0
C4071 C 0.33428 0.20799 0.48219 0.0
C4072 C 0.33061 0.20706 0.51495 0.0
C4073 C 0.31957 0.2047 0.60969 0.0
C4074 C 0.32344 0.20545 0.57707 0.0
H4075 H 0.3505 0.23266 0.42627 0.0
H4076 H 0.34499 0.23121 0.47976 0.0
H4077 H 0.30959 0.18808 0.51065 0.0
H4078 H 0.29091 0.19687 0.6547 0.0
H4079 H 0.29718 0.19792 0.6018 0.0
C4080 C 0.80127 0.11747 0.65081 0.0
C4081 C 0.80758 0.12945 0.67009 0.0
C4082 C 0.79988 0.1191 0.61992 0.0
C4083 C 0.79944 0.14464 0.56392 0.0
H4084 H 0.80376 0.11993 0.50658 0.0
C4085 C 0.78286 0.14136 0.43846 0.0
C4086 C 0.79123 0.13953 0.4165 0.0
C4087 C 0.78544 0.14072 0.4692 0.0
C4088 C 0.80264 0.12704 0.52218 0.0
H4089 H 0.8177 0.15264 0.67145 0.0
H4090 H 0.81537 0.1555 0.61769 0.0
H4091 H 0.80756 0.11788 0.55991 0.0
H4092 H 0.80925 0.1361 0.41005 0.0
H4093 H 0.81376 0.13503 0.46345 0.0
H4094 H 0.79476 0.15395 0.5261 0.0
C4095 C 0.81122 0.14478 0.62654 0.0
C4096 C 0.80465 0.12573 0.55293 0.0
C4097 C 0.81258 0.14313 0.65746 0.0
C4098 C 0.8024 0.13728 0.42622 0.0
C4099 C 0.80498 0.13666 0.45695 0.0
C4100 C 0.79743 0.14594 0.53314 0.0
C4101 C 0.80478 0.13278 0.60729 0.0
C4102 C 0.80301 0.13445 0.57432 0.0
C4103 C 0.79648 0.13826 0.47894 0.0
C4104 C 0.79894 0.13712 0.51179 0.0
H4105 H 0.79708 0.10674 0.65969 0.0
H4106 H 0.79464 0.10957 0.60605 0.0
H4107 H 0.79794 0.15147 0.57961 0.0
H4108 H 0.77405 0.14293 0.43191 0.0
H4109 H 0.77851 0.1418 0.48533 0.0
C4110 C 0.87058 0.66597 0.67163 0.0
C4111 C 0.86713 0.67596 0.68375 0.0
C4112 C 0.86921 0.66291 0.64075 0.0
C4113 C 0.85187 0.66601 0.57043 0.0
H4114 H 0.88008 0.6591 0.53161 0.0
C4115 C 0.85462 0.66118 0.44032 0.0
C4116 C 0.858 0.65101 0.42891 0.0
C4117 C 0.85532 0.66402 0.47129 0.0
C4118 C 0.87199 0.66082 0.54208 0.0
H4119 H 0.85931 0.69043 0.67223 0.0
H4120 H 0.85726 0.68537 0.61841 0.0
H4121 H 0.88219 0.6646 0.5851 0.0
H4122 H 0.86475 0.63585 0.4417 0.0
H4123 H 0.86578 0.64064 0.49552 0.0
H4124 H 0.84174 0.66233 0.52722 0.0
C4125 C 0.86088 0.67973 0.63291 0.0
C4126 C 0.87319 0.66398 0.57292 0.0
C4127 C 0.86223 0.68278 0.66387 0.0
C4128 C 0.86194 0.64366 0.44952 0.0
C4129 C 0.86271 0.64654 0.48046 0.0
C4130 C 0.85069 0.66288 0.53953 0.0
C4131 C 0.86438 0.66977 0.62082 0.0
C4132 C 0.86313 0.66658 0.58767 0.0
C4133 C 0.85949 0.65683 0.49184 0.0
C4134 C 0.8607 0.66019 0.52487 0.0
H4135 H 0.87457 0.6606 0.68594 0.0
H4136 H 0.87184 0.65503 0.63256 0.0
H4137 H 0.84377 0.66772 0.5809 0.0
H4138 H 0.85137 0.66695 0.4253 0.0
H4139 H 0.85286 0.67208 0.47903 0.0
C4140 C 0.05241 0.5386 0.07251 0.0
C4141 C 0.04168 0.52647 0.05748 0.0
C4142 C 0.04877 0.54688 0.0905 0.0
C4143 C 0.03215 0.54191 0.14849 0.0
H4144 H -0.0013 0.54611 0.13997 0.0
C4145 C 0.9735 0.5044 0.16752 0.0
C4146 C 0.96822 0.5051 0.1958 0.0
C4147 C 0.98732 0.51464 0.15934 0.0
C4148 C 0.00835 0.54549 0.14318 0.0
H4149 H 0.01922 0.51447 0.04585 0.0
H4150 H 0.01274 0.52908 0.0769 0.0
H4151 H 0.01608 0.55375 0.09917 0.0
H4152 H 0.97357 0.51573 0.2392 0.0
H4153 H -0.00196 0.53407 0.22436 0.0
H4154 H 0.02298 0.53119 0.19 0.0
C4155 C 0.02397 0.53228 0.07484 0.0
C4156 C 0.01829 0.54989 0.11985 0.0
C4157 C 0.0276 0.52383 0.05721 0.0
C4158 C 0.97746 0.51518 0.21708 0.0
C4159 C 0.99132 0.52568 0.20864 0.0
C4160 C 0.02199 0.53717 0.17145 0.0
C4161 C 0.03437 0.54316 0.09336 0.0
C4162 C 0.02944 0.54676 0.12119 0.0
C4163 C 0.99597 0.52581 0.17919 0.0
C4164 C 0.00937 0.53764 0.16733 0.0
H4165 H 0.06338 0.54074 0.07289 0.0
H4166 H 0.05691 0.55513 0.10467 0.0
H4167 H 0.04076 0.53949 0.15021 0.0
H4168 H 0.96656 0.49664 0.15093 0.0
H4169 H 0.99095 0.51441 0.13671 0.0
C4170 C 0.49317 0.52213 1.0118 0.0
C4171 C 0.48512 0.52308 0.03566 0.0
C4172 C 0.49374 0.50964 1.00737 0.0
C4173 C 0.50675 0.49426 0.03874 0.0
H4174 H 0.47965 0.45708 0.0708 0.0
C4175 C 0.49868 0.46639 0.15393 0.0
C4176 C 0.50865 0.46181 0.15766 0.0
C4177 C 0.49659 0.47059 0.12573 0.0
C4178 C 0.48733 0.46718 0.0609 0.0
H4179 H 0.46972 0.51139 0.07054 0.0
H4180 H 0.47081 0.48951 0.06336 0.0
H4181 H 0.47121 0.46912 0.03667 0.0
H4182 H 0.52522 0.45918 0.13575 0.0
H4183 H 0.52179 0.46706 0.08615 0.0
H4184 H 0.52251 0.493 0.06595 0.0
C4185 C 0.47662 0.49829 0.04781 0.0
C4186 C 0.48256 0.47406 0.04148 0.0
C4187 C 0.47603 0.51083 0.05217 0.0
C4188 C 0.51742 0.46266 0.13334 0.0
C4189 C 0.51538 0.46697 0.105 0.0
C4190 C 0.51149 0.48734 0.05822 0.0
C4191 C 0.4864 0.49804 0.02701 0.0
C4192 C 0.49199 0.48822 0.03268 0.0
C4193 C 0.50457 0.47044 0.10092 0.0
C4194 C 0.5015 0.47435 0.07138 0.0
H4195 H 0.50004 0.53147 0.99833 0.0
H4196 H 0.50118 0.50964 0.99095 0.0
H4197 H 0.51434 0.50517 0.03217 0.0
H4198 H 0.492 0.46604 0.17249 0.0
H4199 H 0.48848 0.47367 0.12312 0.0
C4200 C 0.51588 0.03421 0.16456 0.0
C4201 C 0.52593 0.04877 0.16145 0.0
C4202 C 0.50574 0.02714 0.14215 0.0
C4203 C 0.5041 0.02484 0.06479 0.0
H4204 H 0.46549 0.9949 0.08402 0.0
C4205 C 0.47316 0.96283 0.06812 0.0
C4206 C 0.46627 0.95667 0.041 0.0
C4207 C 0.48 0.9776 0.0718 0.0
C4208 C 0.47607 0.00344 0.07771 0.0
H4209 H 0.53325 0.06761 0.13331 0.0
H4210 H 0.51581 0.05492 0.09304 0.0
H4211 H 0.47695 0.01662 0.11451 0.0
H4212 H 0.46277 0.96094 0.99496 0.0
H4213 H 0.47466 0.98705 1.00179 0.0
H4214 H 0.50369 0.0107 0.03024 0.0
C4215 C 0.51552 0.04917 0.11326 0.0
C4216 C 0.48258 0.01584 0.09506 0.0
C4217 C 0.52544 0.05635 0.13618 0.0
C4218 C 0.46788 0.96553 1.01629 0.0
C4219 C 0.47458 0.98039 0.02012 0.0
C4220 C 0.49758 0.01233 0.04751 0.0
C4221 C 0.50572 0.03448 0.116 0.0
C4222 C 0.49705 0.02598 0.09034 0.0
C4223 C 0.47991 0.98632 0.04844 0.0
C4224 C 0.48402 0.00115 0.05567 0.0
H4225 H 0.51618 0.0282 0.18383 0.0
H4226 H 0.49847 0.01571 0.1444 0.0
H4227 H 0.51525 0.03265 0.06063 0.0
H4228 H 0.47221 0.95617 0.08724 0.0
H4229 H 0.48439 0.98214 0.09366 0.0
C4230 C 0.48909 0.95742 0.59957 0.0
C4231 C 0.47996 0.94262 0.59693 0.0
C4232 C 0.49071 0.96412 0.62713 0.0
C4233 C 0.47653 0.96707 0.69369 0.0
H4234 H 0.51688 0.98875 0.71494 0.0
C4235 C 0.51408 0.02631 0.69671 0.0
C4236 C 0.50545 0.0303 0.71259 0.0
C4237 C 0.51255 0.01281 0.70162 0.0
C4238 C 0.5055 0.98247 0.71026 0.0
H4239 H 0.46435 0.92328 0.61999 0.0
H4240 H 0.46709 0.93526 0.66867 0.0
H4241 H 0.50805 0.96782 0.68228 0.0
H4242 H 0.49029 0.02473 0.74925 0.0
H4243 H 0.48751 0.00111 0.75756 0.0
H4244 H 0.47417 0.98286 0.71781 0.0
C4245 C 0.47313 0.9415 0.6494 0.0
C4246 C 0.50048 0.97047 0.69181 0.0
C4247 C 0.47151 0.93475 0.62162 0.0
C4248 C 0.49677 0.02161 0.73618 0.0
C4249 C 0.49527 0.00818 0.74116 0.0
C4250 C 0.48154 0.97915 0.71206 0.0
C4251 C 0.48316 0.95611 0.65241 0.0
C4252 C 0.48628 0.96349 0.68148 0.0
C4253 C 0.50234 0.00325 0.72241 0.0
C4254 C 0.49634 0.98769 0.71798 0.0
H4255 H 0.49555 0.96369 0.58071 0.0
H4256 H 0.49826 0.97551 0.62899 0.0
H4257 H 0.46552 0.96179 0.68591 0.0
H4258 H 0.52089 0.03295 0.67861 0.0
H4259 H 0.51814 0.00931 0.68668 0.0
C4260 C 0.98382 0.44947 0.69328 0.0
C4261 C 0.97441 0.45401 0.7033 0.0
C4262 C -0.00196 0.45935 0.68706 0.0
C4263 C 0.02378 0.49858 0.68104 0.0
H4264 H 0.02296 0.48856 0.59688 0.0
C4265 C 0.02778 0.53556 0.59074 0.0
C4266 C 0.03676 0.5383 0.56593 0.0
C4267 C 0.02556 0.52486 0.61094 0.0
C4268 C 0.02377 0.49147 0.62043 0.0
H4269 H 0.97268 0.4722 0.71814 0.0
H4270 H -0.00267 0.48981 0.70493 0.0
H4271 H 0.01018 0.46981 0.63343 0.0
H4272 H 0.04965 0.53146 0.54119 0.0
H4273 H 0.04512 0.512 0.57625 0.0
H4274 H 0.03626 0.52044 0.66702 0.0
C4275 C 0.99393 0.47853 0.70277 0.0
C4276 C 0.01647 0.48072 0.64157 0.0
C4277 C 0.97974 0.46851 0.70989 0.0
C4278 C 0.04248 0.52934 0.56 0.0
C4279 C 0.04017 0.51848 0.58029 0.0
C4280 C 0.03109 0.50933 0.65985 0.0
C4281 C 0.00294 0.47404 0.68956 0.0
C4282 C 0.01539 0.4843 0.67157 0.0
C4283 C 0.03225 0.51667 0.60658 0.0
C4284 C 0.03005 0.50583 0.62915 0.0
H4285 H 0.98022 0.43839 0.68914 0.0
H4286 H 0.00483 0.45555 0.6777 0.0
H4287 H 0.02344 0.50158 0.70415 0.0
H4288 H 0.02334 0.54238 0.59572 0.0
H4289 H 0.01891 0.52324 0.63047 0.0
C4290 C 0.52478 0.46037 0.65515 0.0
C4291 C 0.52554 0.46728 0.68243 0.0
C4292 C 0.51319 0.45631 0.63594 0.0
C4293 C 0.50151 0.46955 0.59393 0.0
H4294 H 0.4644 0.46457 0.61467 0.0
C4295 C 0.4725 0.5035 0.5897 0.0
C4296 C 0.46684 0.50262 0.56095 0.0
C4297 C 0.47865 0.49522 0.59683 0.0
C4298 C 0.4746 0.46568 0.60823 0.0
H4299 H 0.51427 0.47368 0.71322 0.0
H4300 H 0.49409 0.46701 0.67936 0.0
H4301 H 0.47425 0.45247 0.64449 0.0
H4302 H 0.46493 0.49422 0.51579 0.0
H4303 H 0.47583 0.47955 0.52854 0.0
H4304 H 0.50225 0.4837 0.55919 0.0
C4305 C 0.50223 0.46444 0.6728 0.0
C4306 C 0.48021 0.45878 0.6252 0.0
C4307 C 0.51379 0.46834 0.69223 0.0
C4308 C 0.4691 0.49487 0.53826 0.0
C4309 C 0.4752 0.48644 0.54551 0.0
C4310 C 0.49584 0.4764 0.57689 0.0
C4311 C 0.50243 0.45944 0.64357 0.0
C4312 C 0.49416 0.4615 0.61954 0.0
C4313 C 0.47917 0.48598 0.5753 0.0
C4314 C 0.48282 0.47525 0.58536 0.0
H4315 H 0.53377 0.45932 0.64747 0.0
H4316 H 0.51346 0.45222 0.61382 0.0
H4317 H 0.51234 0.47195 0.58902 0.0
H4318 H 0.47099 0.50956 0.60736 0.0
H4319 H 0.48207 0.49524 0.61978 0.0
C4320 C 0.63521 0.8129 0.52441 0.0
C4321 C 0.62909 0.81723 0.54681 0.0
C4322 C 0.65002 0.81849 0.52422 0.0
C4323 C 0.68435 0.83681 0.53689 0.0
H4324 H 0.68546 0.86683 0.48667 0.0
C4325 C 0.72531 0.86175 0.44376 0.0
C4326 C 0.71713 0.85544 0.41774 0.0
C4327 C 0.71868 0.86272 0.46986 0.0
C4328 C 0.68556 0.85889 0.50144 0.0
H4329 H 0.63278 0.82837 0.58935 0.0
H4330 H 0.65872 0.83858 0.58827 0.0
H4331 H 0.66542 0.85363 0.52108 0.0
H4332 H 0.69626 0.84681 0.39702 0.0
H4333 H 0.68474 0.84917 0.44222 0.0
H4334 H 0.70379 0.8411 0.51507 0.0
C4335 C 0.65222 0.83081 0.57126 0.0
C4336 C 0.67417 0.85136 0.5211 0.0
C4337 C 0.63739 0.82494 0.57182 0.0
C4338 C 0.7027 0.8517 0.41692 0.0
C4339 C 0.69618 0.85313 0.44269 0.0
C4340 C 0.69587 0.84444 0.51742 0.0
C4341 C 0.65863 0.8285 0.54623 0.0
C4342 C 0.67301 0.8396 0.53714 0.0
C4343 C 0.70396 0.85792 0.46971 0.0
C4344 C 0.69593 0.85477 0.498 0.0
H4345 H 0.62901 0.8071 0.50485 0.0
H4346 H 0.65488 0.81673 0.50455 0.0
H4347 H 0.68366 0.82797 0.54966 0.0
H4348 H 0.73651 0.86471 0.44479 0.0
H4349 H 0.7248 0.86632 0.49054 0.0
C4350 C 0.13513 0.84653 0.4247 0.0
C4351 C 0.1317 0.8574 0.42204 0.0
C4352 C 0.13244 0.83897 0.45159 0.0
C4353 C 0.12376 0.82316 0.51092 0.0
H4354 H 0.15413 0.8526 0.55945 0.0
C4355 C 0.16551 0.81565 0.57722 0.0
C4356 C 0.17214 0.81524 0.55021 0.0
C4357 C 0.15672 0.82179 0.57766 0.0
C4358 C 0.14527 0.84427 0.54694 0.0
H4359 H 0.12168 0.86817 0.44403 0.0
H4360 H 0.11774 0.85546 0.49172 0.0
H4361 H 0.14129 0.85926 0.52347 0.0
H4362 H 0.17701 0.82298 0.50446 0.0
H4363 H 0.16228 0.8343 0.50565 0.0
H4364 H 0.12911 0.80854 0.53149 0.0
C4365 C 0.12213 0.85255 0.47286 0.0
C4366 C 0.13786 0.848 0.52648 0.0
C4367 C 0.12446 0.85982 0.44565 0.0
C4368 C 0.17183 0.823 0.52532 0.0
C4369 C 0.16343 0.82946 0.52605 0.0
C4370 C 0.13109 0.81945 0.53155 0.0
C4371 C 0.12652 0.84239 0.47628 0.0
C4372 C 0.12809 0.83765 0.50634 0.0
C4373 C 0.15512 0.82805 0.55151 0.0
C4374 C 0.14289 0.83025 0.54719 0.0
H4375 H 0.14072 0.84453 0.40676 0.0
H4376 H 0.13622 0.8314 0.45398 0.0
H4377 H 0.11618 0.81501 0.49573 0.0
H4378 H 0.16579 0.80987 0.5969 0.0
H4379 H 0.1504 0.82068 0.59747 0.0
C4380 C 0.17717 0.37111 0.5127 0.0
C4381 C 0.1895 0.38458 0.51068 0.0
C4382 C 0.16641 0.36702 0.49108 0.0
C4383 C 0.14698 0.35942 0.43676 0.0
H4384 H 0.17388 0.35839 0.3801 0.0
C4385 C 0.13922 0.31248 0.35591 0.0
C4386 C 0.13814 0.30367 0.38033 0.0
C4387 C 0.14471 0.32717 0.36038 0.0
C4388 C 0.16611 0.35897 0.39464 0.0
H4389 H 0.19962 0.40515 0.48801 0.0
H4390 H 0.18104 0.39782 0.44966 0.0
H4391 H 0.18208 0.37823 0.41534 0.0
H4392 H 0.14393 0.30329 0.42675 0.0
H4393 H 0.1542 0.32906 0.43417 0.0
H4394 H 0.13144 0.33926 0.41806 0.0
C4395 C 0.17948 0.39051 0.4679 0.0
C4396 C 0.17075 0.37032 0.41489 0.0
C4397 C 0.19012 0.39463 0.48968 0.0
C4398 C 0.14452 0.3099 0.40781 0.0
C4399 C 0.15027 0.32455 0.41206 0.0
C4400 C 0.14228 0.34822 0.41611 0.0
C4401 C 0.16815 0.37632 0.46707 0.0
C4402 C 0.16156 0.3698 0.438 0.0
C4403 C 0.14952 0.33303 0.38898 0.0
C4404 C 0.15218 0.34733 0.39698 0.0
H4405 H 0.17658 0.36325 0.52873 0.0
H4406 H 0.1578 0.35596 0.49084 0.0
H4407 H 0.13972 0.35887 0.45424 0.0
H4408 H 0.13455 0.30784 0.33431 0.0
H4409 H 0.14429 0.33368 0.34229 0.0
C4410 C 0.13751 0.28989 0.88384 0.0
C4411 C 0.14759 0.28873 0.86619 0.0
C4412 C 0.13645 0.30225 0.88209 0.0
C4413 C 0.16312 0.33938 0.86976 0.0
H4414 H 0.13458 0.34299 0.91556 0.0
C4415 C 0.1767 0.38489 0.95631 0.0
C4416 C 0.17009 0.37911 0.98404 0.0
C4417 C 0.17263 0.37621 0.93068 0.0
C4418 C 0.14261 0.34236 0.90208 0.0
H4419 H 0.16268 0.29796 0.8294 0.0
H4420 H 0.16037 0.31929 0.82528 0.0
H4421 H 0.12704 0.3226 0.88217 0.0
H4422 H 0.15506 0.35979 1.00759 0.0
H4423 H 0.14837 0.34451 0.96324 0.0
H4424 H 0.1787 0.35892 0.89065 0.0
C4425 C 0.15377 0.31112 0.84147 0.0
C4426 C 0.13831 0.33064 0.8831 0.0
C4427 C 0.15512 0.29896 0.84385 0.0
C4428 C 0.16023 0.36443 0.98635 0.0
C4429 C 0.15622 0.35579 0.96092 0.0
C4430 C 0.16736 0.35134 0.88806 0.0
C4431 C 0.14535 0.31346 0.86229 0.0
C4432 C 0.14866 0.32829 0.86918 0.0
C4433 C 0.16199 0.3617 0.93272 0.0
C4434 C 0.15724 0.35227 0.90615 0.0
H4435 H 0.13152 0.28196 0.90095 0.0
H4436 H 0.1298 0.30356 0.89857 0.0
H4437 H 0.17147 0.33811 0.85924 0.0
H4438 H 0.18428 0.39625 0.95405 0.0
H4439 H 0.17738 0.38091 0.90919 0.0
C4440 C 0.69335 0.86166 0.87115 0.0
C4441 C 0.70379 0.86579 0.89379 0.0
C4442 C 0.67889 0.85556 0.879 0.0
C4443 C 0.649 0.83543 0.90898 0.0
H4444 H 0.64353 0.85461 0.97747 0.0
C4445 C 0.61994 0.81419 0.02149 0.0
C4446 C 0.6076 0.80236 1.01013 0.0
C4447 C 0.62791 0.82605 1.003 0.0
C4448 C 0.64476 0.8493 0.95796 0.0
H4449 H 0.70749 0.86535 0.94155 0.0
H4450 H 0.68231 0.8543 0.95513 0.0
H4451 H 0.66612 0.86636 0.9498 0.0
H4452 H 0.59254 0.79413 0.973 0.0
H4453 H 0.60629 0.81494 0.94094 0.0
H4454 H 0.62827 0.81783 0.91857 0.0
C4455 C 0.68525 0.85627 0.93158 0.0
C4456 C 0.65765 0.85598 0.9422 0.0
C4457 C 0.69958 0.86235 0.92381 0.0
C4458 C 0.60223 0.80317 0.98189 0.0
C4459 C 0.61005 0.81505 0.9636 0.0
C4460 C 0.6361 0.82873 0.92475 0.0
C4461 C 0.67492 0.85353 0.90943 0.0
C4462 C 0.66015 0.84865 0.91896 0.0
C4463 C 0.62349 0.82608 0.97314 0.0
C4464 C 0.63428 0.83522 0.95063 0.0
H4465 H 0.69643 0.86425 0.84781 0.0
H4466 H 0.67097 0.8532 0.8616 0.0
H4467 H 0.65073 0.82965 0.89105 0.0
H4468 H 0.62417 0.81368 0.04327 0.0
H4469 H 0.63827 0.83437 1.01099 0.0
C4470 C 0.13782 0.84478 0.91165 0.0
C4471 C 0.12887 0.8496 0.92306 0.0
C4472 C 0.1446 0.83998 0.93113 0.0
C4473 C 0.15403 0.83631 1.00745 0.0
H4474 H 0.14342 0.79812 0.97916 0.0
C4475 C 0.18355 0.81065 0.05474 0.0
C4476 C 0.18995 0.80721 0.03118 0.0
C4477 C 0.17105 0.81114 0.04963 0.0
C4478 C 0.14645 0.80872 0.98748 0.0
H4479 H 0.12146 0.85521 0.96335 0.0
H4480 H 0.13311 0.84635 0.99781 0.0
H4481 H 0.13499 0.81213 0.95243 0.0
H4482 H 0.18786 0.80006 0.98517 0.0
H4483 H 0.16641 0.80139 0.97554 0.0
H4484 H 0.16673 0.83357 0.04063 0.0
C4485 C 0.13489 0.84633 0.97384 0.0
C4486 C 0.14162 0.81674 0.97219 0.0
C4487 C 0.1283 0.85143 0.95419 0.0
C4488 C 0.18291 0.80257 1.00363 0.0
C4489 C 0.17057 0.80335 0.99826 0.0
C4490 C 0.15925 0.82843 0.02231 0.0
C4491 C 0.14226 0.83971 0.96221 0.0
C4492 C 0.14584 0.83079 0.98133 0.0
C4493 C 0.16515 0.80869 0.02058 0.0
C4494 C 0.15609 0.81482 1.01149 0.0
H4495 H 0.13842 0.84336 0.88765 0.0
H4496 H 0.15061 0.83528 0.92177 0.0
H4497 H 0.15728 0.84707 1.01502 0.0
H4498 H 0.18896 0.81428 0.07622 0.0
H4499 H 0.16688 0.81485 0.06752 0.0
C4500 C 0.30332 0.16703 0.82636 0.0
C4501 C 0.28929 0.15553 0.82414 0.0
C4502 C 0.31204 0.17173 0.80111 0.0
C4503 C 0.31815 0.16151 0.72762 0.0
H4504 H 0.34436 0.20259 0.72453 0.0
C4505 C 0.3712 0.17787 0.68515 0.0
C4506 C 0.38026 0.18407 0.71003 0.0
C4507 C 0.35904 0.17916 0.68181 0.0
C4508 C 0.33692 0.19114 0.72439 0.0
H4509 H 0.27361 0.13905 0.79481 0.0
H4510 H 0.28904 0.14726 0.75026 0.0
H4511 H 0.32338 0.19301 0.7568 0.0
H4512 H 0.38524 0.19811 0.74833 0.0
H4513 H 0.36366 0.19982 0.74376 0.0
H4514 H 0.33244 0.15935 0.69809 0.0
C4515 C 0.29319 0.15276 0.77146 0.0
C4516 C 0.32493 0.18565 0.74291 0.0
C4517 C 0.28446 0.14796 0.79696 0.0
C4518 C 0.3782 0.19313 0.72925 0.0
C4519 C 0.36588 0.19421 0.72628 0.0
C4520 C 0.33022 0.16697 0.70926 0.0
C4521 C 0.30683 0.16507 0.77313 0.0
C4522 C 0.31614 0.17077 0.74648 0.0
C4523 C 0.3556 0.18623 0.70396 0.0
C4524 C 0.34041 0.18175 0.70974 0.0
H4525 H 0.30728 0.17291 0.84726 0.0
H4526 H 0.32277 0.18084 0.80341 0.0
H4527 H 0.31144 0.14998 0.72963 0.0
H4528 H 0.37291 0.17112 0.66959 0.0
H4529 H 0.35154 0.17325 0.66394 0.0
C4530 C 0.79834 0.18517 0.79176 0.0
C4531 C 0.80607 0.18417 0.76725 0.0
C4532 C 0.79861 0.17928 0.81951 0.0
C4533 C 0.8058 0.15447 0.85928 0.0
H4534 H 0.83797 0.18627 0.89921 0.0
C4535 C 0.85351 0.15486 0.86883 0.0
C4536 C 0.85015 0.14354 0.88859 0.0
C4537 C 0.84783 0.16382 0.87388 0.0
C4538 C 0.82869 0.17735 0.88916 0.0
H4539 H 0.81865 0.17496 0.75116 0.0
H4540 H 0.81852 0.16399 0.79942 0.0
H4541 H 0.82339 0.19097 0.86385 0.0
H4542 H 0.84079 0.13423 0.93172 0.0
H4543 H 0.83011 0.14929 0.93946 0.0
H4544 H 0.81209 0.14102 0.88187 0.0
C4545 C 0.81252 0.16956 0.79726 0.0
C4546 C 0.82029 0.17997 0.86909 0.0
C4547 C 0.81266 0.17585 0.76979 0.0
C4548 C 0.8435 0.14299 0.9162 0.0
C4549 C 0.83737 0.1516 0.92073 0.0
C4550 C 0.81403 0.15187 0.87975 0.0
C4551 C 0.80604 0.17178 0.82252 0.0
C4552 C 0.8096 0.1686 0.85227 0.0
C4553 C 0.83848 0.16116 0.89821 0.0
C4554 C 0.82633 0.16343 0.89255 0.0
H4555 H 0.79315 0.19156 0.79028 0.0
H4556 H 0.79373 0.18123 0.83889 0.0
H4557 H 0.79764 0.1456 0.84634 0.0
H4558 H 0.8585 0.15538 0.84736 0.0
H4559 H 0.84863 0.17102 0.856 0.0
C4560 C 0.84695 0.71163 0.84996 0.0
C4561 C 0.85344 0.70964 0.87535 0.0
C4562 C 0.83699 0.6997 0.83372 0.0
C4563 C 0.81997 0.65995 0.82885 0.0
H4564 H 0.83912 0.66916 0.75145 0.0
C4565 C 0.80805 0.61476 0.75036 0.0
C4566 C 0.80315 0.61696 0.72283 0.0
C4567 C 0.81681 0.62654 0.76841 0.0
C4568 C 0.83367 0.6664 0.77293 0.0
H4569 H 0.85298 0.69426 0.90727 0.0
H4570 H 0.83565 0.67349 0.87924 0.0
H4571 H 0.84343 0.68833 0.78591 0.0
H4572 H 0.80526 0.63265 0.68983 0.0
H4573 H 0.8204 0.65311 0.72094 0.0
H4574 H 0.81013 0.63801 0.81577 0.0
C4575 C 0.83816 0.68401 0.87135 0.0
C4576 C 0.8359 0.6774 0.79247 0.0
C4577 C 0.84813 0.6959 0.88742 0.0
C4578 C 0.80892 0.63084 0.71123 0.0
C4579 C 0.81762 0.64257 0.72917 0.0
C4580 C 0.81764 0.64894 0.80917 0.0
C4581 C 0.83363 0.68586 0.84296 0.0
C4582 C 0.8291 0.67428 0.82066 0.0
C4583 C 0.82057 0.64045 0.7589 0.0
C4584 C 0.82454 0.65205 0.78105 0.0
H4585 H 0.85092 0.72223 0.84046 0.0
H4586 H 0.8333 0.70134 0.81221 0.0
H4587 H 0.81474 0.65726 0.85057 0.0
H4588 H 0.80369 0.60406 0.75957 0.0
H4589 H 0.81936 0.62466 0.79091 0.0
C4590 C 0.814 0.63534 0.21435 0.0
C4591 C 0.82266 0.63051 0.20152 0.0
C4592 C 0.81618 0.64887 0.20664 0.0
C4593 C 0.82456 0.67925 0.19107 0.0
H4594 H 0.86218 0.69821 0.22829 0.0
C4595 C 0.85217 0.72348 0.28917 0.0
C4596 C 0.84265 0.71432 0.31135 0.0
C4597 C 0.85219 0.71819 0.26044 0.0
C4598 C 0.85196 0.6935 0.21671 0.0
H4599 H 0.83867 0.63464 0.16745 0.0
H4600 H 0.84284 0.65846 0.15484 0.0
H4601 H 0.85501 0.67713 0.19721 0.0
H4602 H 0.82673 0.69246 0.32207 0.0
H4603 H 0.82673 0.6832 0.27196 0.0
H4604 H 0.82103 0.69466 0.21409 0.0
C4605 C 0.83442 0.65194 0.17065 0.0
C4606 C 0.8478 0.68138 0.19888 0.0
C4607 C 0.83215 0.63842 0.17818 0.0
C4608 C 0.83391 0.69972 0.30513 0.0
C4609 C 0.83386 0.69449 0.27655 0.0
C4610 C 0.82878 0.69142 0.20875 0.0
C4611 C 0.82714 0.65766 0.18629 0.0
C4612 C 0.83352 0.67335 0.18875 0.0
C4613 C 0.8427 0.70375 0.25387 0.0
C4614 C 0.84192 0.69764 0.22402 0.0
H4615 H 0.80659 0.62934 0.23225 0.0
H4616 H 0.81046 0.65305 0.21923 0.0
H4617 H 0.81365 0.67334 0.18288 0.0
H4618 H 0.85907 0.73481 0.29356 0.0
H4619 H 0.85923 0.72539 0.24325 0.0
C4620 C 0.36382 0.17507 0.21678 0.0
C4621 C 0.36736 0.18793 0.20232 0.0
C4622 C 0.35087 0.16272 0.2099 0.0
C4623 C 0.32117 0.13855 0.19727 0.0
H4624 H 0.2997 0.15593 0.22815 0.0
C4625 C 0.29899 0.1279 0.31052 0.0
C4626 C 0.28445 0.12278 0.31592 0.0
C4627 C 0.30459 0.13257 0.28196 0.0
C4628 C 0.30515 0.15072 0.21846 0.0
H4629 H 0.36175 0.19773 0.16612 0.0
H4630 H 0.33899 0.17628 0.15473 0.0
H4631 H 0.32028 0.16978 0.19589 0.0
H4632 H 0.26454 0.11974 0.29678 0.0
H4633 H 0.27465 0.12852 0.24659 0.0
H4634 H 0.30692 0.12017 0.22323 0.0
C4635 C 0.34602 0.17564 0.17131 0.0
C4636 C 0.31697 0.15862 0.19989 0.0
C4637 C 0.35894 0.18792 0.17813 0.0
C4638 C 0.27582 0.12356 0.29302 0.0
C4639 C 0.28149 0.12839 0.26433 0.0
C4640 C 0.30931 0.13065 0.21568 0.0
C4641 C 0.34139 0.16326 0.18869 0.0
C4642 C 0.32591 0.15307 0.19194 0.0
C4643 C 0.29578 0.13243 0.2585 0.0
C4644 C 0.30221 0.13723 0.22868 0.0
H4645 H 0.37026 0.17489 0.23532 0.0
H4646 H 0.34756 0.15332 0.22379 0.0
H4647 H 0.32777 0.13403 0.19088 0.0
H4648 H 0.30587 0.12771 0.32807 0.0
H4649 H 0.31582 0.13613 0.27804 0.0
C4650 C 0.85457 0.14643 0.36684 0.0
C4651 C 0.86312 0.14249 0.35035 0.0
C4652 C 0.84483 0.14918 0.35215 0.0
C4653 C 0.84444 0.16448 0.28006 0.0
H4654 H 0.8108 0.16371 0.31313 0.0
C4655 C 0.8081 0.18036 0.21886 0.0
C4656 C 0.79996 0.18453 0.23621 0.0
C4657 C 0.81862 0.1784 0.23237 0.0
C4658 C 0.82034 0.16422 0.30394 0.0
H4659 H 0.86714 0.13641 0.30665 0.0
H4660 H 0.84979 0.141 0.28059 0.0
H4661 H 0.81934 0.14876 0.33536 0.0
H4662 H 0.79739 0.19179 0.27989 0.0
H4663 H 0.816 0.18846 0.30381 0.0
H4664 H 0.84518 0.17972 0.24817 0.0
C4665 C 0.85077 0.1422 0.3048 0.0
C4666 C 0.82512 0.15551 0.31643 0.0
C4667 C 0.8605 0.13935 0.31968 0.0
C4668 C 0.80372 0.1887 0.26617 0.0
C4669 C 0.81421 0.18661 0.27985 0.0
C4670 C 0.83956 0.17309 0.26735 0.0
C4671 C 0.84364 0.14811 0.3207 0.0
C4672 C 0.83726 0.15561 0.30475 0.0
C4673 C 0.82092 0.1804 0.26349 0.0
C4674 C 0.82748 0.17306 0.27923 0.0
H4675 H 0.85658 0.14896 0.39058 0.0
H4676 H 0.83953 0.15369 0.36512 0.0
H4677 H 0.85405 0.16507 0.27099 0.0
H4678 H 0.80521 0.17703 0.19568 0.0
H4679 H 0.82362 0.17364 0.21917 0.0
loop_
_geom_bond_atom_site_label_1
_geom_bond_atom_site_label_2
_geom_bond_distance
_geom_bond_site_symmetry_2
_ccdc_geom_bond_type
Nd0 C2 2.836 . S
Nd0 O20 2.500 . S
Nd0 O21 2.492 . S
Nd0 O22 2.487 . S
Nd0 O23 2.682 . S
Nd0 O24 2.410 . S
Nd0 O29 2.414 . S
Nd0 O31 2.424 . S
Nd1 C11 2.836 1_554 S
Nd1 O23 2.414 . S
Nd1 O25 2.424 . S
Nd1 O26 2.500 1_554 S
Nd1 O27 2.492 1_554 S
Nd1 O28 2.487 . S
Nd1 O29 2.682 . S
Nd1 O30 2.412 . S
C2 Nd0 2.836 . S
C2 C3 1.498 . S
C2 O20 1.258 . S
C2 O21 1.239 . S
C3 C2 1.498 . S
C3 C4 1.366 . S
C3 C8 1.407 . S
C4 C3 1.366 . S
C4 C5 1.392 . S
C4 H32 0.930 . S
C5 C4 1.392 . S
C5 C6 1.398 . S
C5 H33 0.929 . S
C6 C5 1.398 . S
C6 C7 1.352 . S
C7 C6 1.352 . S
C7 C8 1.384 . S
C7 H34 0.930 . S
C8 C3 1.407 . S
C8 C7 1.384 . S
C8 H35 0.929 . S
C9 O22 1.241 . S
C9 O23 1.273 . S
C10 O24 1.251 . S
C10 O25 1.268 . S
C11 Nd1 2.836 1_556 S
C11 C12 1.498 . S
C11 O26 1.258 . S
C11 O27 1.239 . S
C12 C11 1.498 . S
C12 C13 1.366 . S
C12 C17 1.407 . S
C13 C12 1.366 . S
C13 C14 1.392 . S
C13 H36 0.930 . S
C14 C13 1.392 . S
C14 C15 1.398 . S
C14 H37 0.929 . S
C15 C14 1.398 . S
C15 C16 1.352 . S
C16 C15 1.352 . S
C16 C17 1.384 . S
C16 H38 0.930 . S
C17 C12 1.407 . S
C17 C16 1.384 . S
C17 H39 0.929 . S
C18 O28 1.241 . S
C18 O29 1.273 . S
C19 O30 1.251 1_556 S
C19 O31 1.268 1_556 S
O20 Nd0 2.500 . S
O20 C2 1.258 . S
O21 Nd0 2.492 . S
O21 C2 1.239 . S
O22 Nd0 2.487 . S
O22 C9 1.241 . S
O23 Nd0 2.682 . S
O23 Nd1 2.414 . S
O23 C9 1.273 . S
O24 Nd0 2.410 . S
O24 C10 1.251 . S
O25 Nd1 2.424 . S
O25 C10 1.268 . S
O26 Nd1 2.500 1_556 S
O26 C11 1.258 . S
O27 Nd1 2.492 1_556 S
O27 C11 1.239 . S
O28 Nd1 2.487 . S
O28 C18 1.241 . S
O29 Nd0 2.414 . S
O29 Nd1 2.682 . S
O29 C18 1.273 . S
O30 Nd1 2.412 . S
O30 C19 1.251 1_554 S
O31 Nd0 2.424 . S
O31 C19 1.268 1_554 S
H32 C4 0.930 . S
H33 C5 0.929 . S
H34 C7 0.930 . S
H35 C8 0.929 . S
H36 C13 0.930 . S
H37 C14 0.929 . S
H38 C16 0.930 . S
H39 C17 0.929 . S
Nd40 C42 2.836 . S
Nd40 O60 2.500 . S
Nd40 O61 2.492 . S
Nd40 O62 2.487 . S
Nd40 O63 2.682 . S
Nd40 O64 2.410 . S
Nd40 O69 2.414 . S
Nd40 O71 2.424 . S
Nd41 C51 2.836 1_554 S
Nd41 O63 2.414 . S
Nd41 O65 2.424 . S
Nd41 O66 2.500 1_554 S
Nd41 O67 2.492 1_554 S
Nd41 O68 2.487 . S
Nd41 O69 2.682 . S
Nd41 O70 2.411 . S
C42 Nd40 2.836 . S
C42 C43 1.498 . S
C42 O60 1.258 . S
C42 O61 1.239 . S
C43 C42 1.498 . S
C43 C44 1.366 . S
C43 C48 1.407 . S
C44 C43 1.366 . S
C44 C45 1.392 . S
C44 H72 0.930 . S
C45 C44 1.392 . S
C45 C46 1.398 . S
C45 H73 0.929 . S
C46 C45 1.398 . S
C46 C47 1.352 . S
C47 C46 1.352 . S
C47 C48 1.384 . S
C47 H74 0.930 . S
C48 C43 1.407 . S
C48 C47 1.384 . S
C48 H75 0.929 . S
C49 O62 1.241 . S
C49 O63 1.273 . S
C50 O64 1.251 . S
C50 O65 1.268 . S
C51 Nd41 2.836 1_556 S
C51 C52 1.498 . S
C51 O66 1.258 . S
C51 O67 1.239 . S
C52 C51 1.498 . S
C52 C53 1.366 . S
C52 C57 1.407 . S
C53 C52 1.366 . S
C53 C54 1.392 . S
C53 H76 0.930 . S
C54 C53 1.392 . S
C54 C55 1.398 . S
C54 H77 0.929 . S
C55 C54 1.398 . S
C55 C56 1.352 . S
C56 C55 1.352 . S
C56 C57 1.384 . S
C56 H78 0.930 . S
C57 C52 1.407 . S
C57 C56 1.384 . S
C57 H79 0.929 . S
C58 O68 1.241 . S
C58 O69 1.273 . S
C59 O70 1.251 1_556 S
C59 O71 1.268 1_556 S
O60 Nd40 2.500 . S
O60 C42 1.258 . S
O61 Nd40 2.492 . S
O61 C42 1.239 . S
O62 Nd40 2.487 . S
O62 C49 1.241 . S
O63 Nd40 2.682 . S
O63 Nd41 2.414 . S
O63 C49 1.273 . S
O64 Nd40 2.410 . S
O64 C50 1.251 . S
O65 Nd41 2.424 . S
O65 C50 1.268 . S
O66 Nd41 2.500 1_556 S
O66 C51 1.258 . S
O67 Nd41 2.492 1_556 S
O67 C51 1.239 . S
O68 Nd41 2.487 . S
O68 C58 1.241 . S
O69 Nd40 2.414 . S
O69 Nd41 2.682 . S
O69 C58 1.273 . S
O70 Nd41 2.411 . S
O70 C59 1.251 1_554 S
O71 Nd40 2.424 . S
O71 C59 1.268 1_554 S
H72 C44 0.930 . S
H73 C45 0.929 . S
H74 C47 0.930 . S
H75 C48 0.929 . S
H76 C53 0.930 . S
H77 C54 0.929 . S
H78 C56 0.930 . S
H79 C57 0.929 . S
Nd80 C82 2.836 . S
Nd80 O100 2.500 . S
Nd80 O101 2.492 . S
Nd80 O102 2.487 . S
Nd80 O103 2.682 . S
Nd80 O104 2.410 . S
Nd80 O109 2.414 . S
Nd80 O111 2.424 . S
Nd81 C91 2.836 1_554 S
Nd81 O103 2.414 . S
Nd81 O105 2.424 . S
Nd81 O106 2.500 1_554 S
Nd81 O107 2.492 1_554 S
Nd81 O108 2.487 . S
Nd81 O109 2.682 . S
Nd81 O110 2.412 . S
C82 Nd80 2.836 . S
C82 C83 1.498 . S
C82 O100 1.258 . S
C82 O101 1.239 . S
C83 C82 1.498 . S
C83 C84 1.366 . S
C83 C88 1.407 . S
C84 C83 1.366 . S
C84 C85 1.392 . S
C84 H112 0.930 . S
C85 C84 1.392 . S
C85 C86 1.398 . S
C85 H113 0.929 . S
C86 C85 1.398 . S
C86 C87 1.352 . S
C87 C86 1.352 . S
C87 C88 1.384 . S
C87 H114 0.930 . S
C88 C83 1.407 . S
C88 C87 1.384 . S
C88 H115 0.929 . S
C89 O102 1.241 . S
C89 O103 1.273 . S
C90 O104 1.251 . S
C90 O105 1.268 . S
C91 Nd81 2.836 1_556 S
C91 C92 1.498 . S
C91 O106 1.258 . S
C91 O107 1.239 . S
C92 C91 1.498 . S
C92 C93 1.366 . S
C92 C97 1.407 . S
C93 C92 1.366 . S
C93 C94 1.392 . S
C93 H116 0.930 . S
C94 C93 1.392 . S
C94 C95 1.398 . S
C94 H117 0.929 . S
C95 C94 1.398 . S
C95 C96 1.352 . S
C96 C95 1.352 . S
C96 C97 1.384 . S
C96 H118 0.930 . S
C97 C92 1.407 . S
C97 C96 1.384 . S
C97 H119 0.929 . S
C98 O108 1.241 . S
C98 O109 1.273 . S
C99 O110 1.251 1_556 S
C99 O111 1.268 1_556 S
O100 Nd80 2.500 . S
O100 C82 1.258 . S
O101 Nd80 2.492 . S
O101 C82 1.239 . S
O102 Nd80 2.487 . S
O102 C89 1.241 . S
O103 Nd80 2.682 . S
O103 Nd81 2.414 . S
O103 C89 1.273 . S
O104 Nd80 2.410 . S
O104 C90 1.251 . S
O105 Nd81 2.424 . S
O105 C90 1.268 . S
O106 Nd81 2.500 1_556 S
O106 C91 1.258 . S
O107 Nd81 2.492 1_556 S
O107 C91 1.239 . S
O108 Nd81 2.487 . S
O108 C98 1.241 . S
O109 Nd80 2.414 . S
O109 Nd81 2.682 . S
O109 C98 1.273 . S
O110 Nd81 2.412 . S
O110 C99 1.251 1_554 S
O111 Nd80 2.424 . S
O111 C99 1.268 1_554 S
H112 C84 0.930 . S
H113 C85 0.929 . S
H114 C87 0.930 . S
H115 C88 0.929 . S
H116 C93 0.930 . S
H117 C94 0.929 . S
H118 C96 0.930 . S
H119 C97 0.929 . S
Nd120 C122 2.836 . S
Nd120 O140 2.500 . S
Nd120 O141 2.492 . S
Nd120 O142 2.487 . S
Nd120 O143 2.682 . S
Nd120 O144 2.410 . S
Nd120 O149 2.414 . S
Nd120 O151 2.424 . S
Nd121 C131 2.836 . S
Nd121 O143 2.414 . S
Nd121 O145 2.424 . S
Nd121 O146 2.500 . S
Nd121 O147 2.492 . S
Nd121 O148 2.487 . S
Nd121 O149 2.682 . S
Nd121 O150 2.410 . S
C122 Nd120 2.836 . S
C122 C123 1.498 . S
C122 O140 1.258 . S
C122 O141 1.239 . S
C123 C122 1.498 . S
C123 C124 1.366 . S
C123 C128 1.407 . S
C124 C123 1.366 . S
C124 C125 1.392 . S
C124 H152 0.930 . S
C125 C124 1.392 . S
C125 C126 1.398 . S
C125 H153 0.929 . S
C126 C125 1.398 . S
C126 C127 1.352 . S
C127 C126 1.352 . S
C127 C128 1.384 . S
C127 H154 0.930 . S
C128 C123 1.407 . S
C128 C127 1.384 . S
C128 H155 0.929 . S
C129 O142 1.241 . S
C129 O143 1.273 . S
C130 O144 1.251 . S
C130 O145 1.268 . S
C131 Nd121 2.836 . S
C131 C132 1.498 . S
C131 O146 1.258 . S
C131 O147 1.239 . S
C132 C131 1.498 . S
C132 C133 1.366 . S
C132 C137 1.407 . S
C133 C132 1.366 . S
C133 C134 1.392 . S
C133 H156 0.930 . S
C134 C133 1.392 . S
C134 C135 1.398 . S
C134 H157 0.929 . S
C135 C134 1.398 . S
C135 C136 1.352 . S
C136 C135 1.352 . S
C136 C137 1.384 . S
C136 H158 0.930 . S
C137 C132 1.407 . S
C137 C136 1.384 . S
C137 H159 0.929 . S
C138 O148 1.241 . S
C138 O149 1.273 . S
C139 O150 1.251 . S
C139 O151 1.268 . S
O140 Nd120 2.500 . S
O140 C122 1.258 . S
O141 Nd120 2.492 . S
O141 C122 1.239 . S
O142 Nd120 2.487 . S
O142 C129 1.241 . S
O143 Nd120 2.682 . S
O143 Nd121 2.414 . S
O143 C129 1.273 . S
O144 Nd120 2.410 . S
O144 C130 1.251 . S
O145 Nd121 2.424 . S
O145 C130 1.268 . S
O146 Nd121 2.500 . S
O146 C131 1.258 . S
O147 Nd121 2.492 . S
O147 C131 1.239 . S
O148 Nd121 2.487 . S
O148 C138 1.241 . S
O149 Nd120 2.414 . S
O149 Nd121 2.682 . S
O149 C138 1.273 . S
O150 Nd121 2.410 . S
O150 C139 1.251 . S
O151 Nd120 2.424 . S
O151 C139 1.268 . S
H152 C124 0.930 . S
H153 C125 0.929 . S
H154 C127 0.930 . S
H155 C128 0.929 . S
H156 C133 0.930 . S
H157 C134 0.929 . S
H158 C136 0.930 . S
H159 C137 0.929 . S
Nd160 C162 2.836 . S
Nd160 O180 2.500 . S
Nd160 O181 2.492 . S
Nd160 O182 2.487 . S
Nd160 O183 2.682 . S
Nd160 O184 2.410 . S
Nd160 O189 2.414 . S
Nd160 O191 2.424 . S
Nd161 C171 2.836 . S
Nd161 O183 2.414 . S
Nd161 O185 2.424 . S
Nd161 O186 2.500 . S
Nd161 O187 2.492 . S
Nd161 O188 2.487 . S
Nd161 O189 2.682 . S
Nd161 O190 2.410 . S
C162 Nd160 2.836 . S
C162 C163 1.498 . S
C162 O180 1.258 . S
C162 O181 1.239 . S
C163 C162 1.498 . S
C163 C164 1.366 . S
C163 C168 1.407 . S
C164 C163 1.366 . S
C164 C165 1.392 . S
C164 H192 0.930 . S
C165 C164 1.392 . S
C165 C166 1.398 . S
C165 H193 0.929 . S
C166 C165 1.398 . S
C166 C167 1.352 . S
C167 C166 1.352 . S
C167 C168 1.384 . S
C167 H194 0.930 . S
C168 C163 1.407 . S
C168 C167 1.384 . S
C168 H195 0.929 . S
C169 O182 1.241 . S
C169 O183 1.273 . S
C170 O184 1.251 . S
C170 O185 1.268 . S
C171 Nd161 2.836 . S
C171 C172 1.498 . S
C171 O186 1.258 . S
C171 O187 1.239 . S
C172 C171 1.498 . S
C172 C173 1.366 . S
C172 C177 1.407 . S
C173 C172 1.366 . S
C173 C174 1.392 . S
C173 H196 0.930 . S
C174 C173 1.392 . S
C174 C175 1.398 . S
C174 H197 0.929 . S
C175 C174 1.398 . S
C175 C176 1.352 . S
C176 C175 1.352 . S
C176 C177 1.384 . S
C176 H198 0.930 . S
C177 C172 1.407 . S
C177 C176 1.384 . S
C177 H199 0.929 . S
C178 O188 1.241 . S
C178 O189 1.273 . S
C179 O190 1.251 . S
C179 O191 1.268 . S
O180 Nd160 2.500 . S
O180 C162 1.258 . S
O181 Nd160 2.492 . S
O181 C162 1.239 . S
O182 Nd160 2.487 . S
O182 C169 1.241 . S
O183 Nd160 2.682 . S
O183 Nd161 2.414 . S
O183 C169 1.273 . S
O184 Nd160 2.410 . S
O184 C170 1.251 . S
O185 Nd161 2.424 . S
O185 C170 1.268 . S
O186 Nd161 2.500 . S
O186 C171 1.258 . S
O187 Nd161 2.492 . S
O187 C171 1.239 . S
O188 Nd161 2.487 . S
O188 C178 1.241 . S
O189 Nd160 2.414 . S
O189 Nd161 2.682 . S
O189 C178 1.273 . S
O190 Nd161 2.410 . S
O190 C179 1.251 . S
O191 Nd160 2.424 . S
O191 C179 1.268 . S
H192 C164 0.930 . S
H193 C165 0.929 . S
H194 C167 0.930 . S
H195 C168 0.929 . S
H196 C173 0.930 . S
H197 C174 0.929 . S
H198 C176 0.930 . S
H199 C177 0.929 . S
Nd200 C202 2.836 . S
Nd200 O220 2.500 . S
Nd200 O221 2.492 . S
Nd200 O222 2.487 . S
Nd200 O223 2.682 . S
Nd200 O224 2.410 . S
Nd200 O229 2.414 . S
Nd200 O231 2.424 . S
Nd201 C211 2.836 . S
Nd201 O223 2.414 . S
Nd201 O225 2.424 . S
Nd201 O226 2.500 . S
Nd201 O227 2.492 . S
Nd201 O228 2.487 . S
Nd201 O229 2.682 . S
Nd201 O230 2.410 . S
C202 Nd200 2.836 . S
C202 C203 1.498 . S
C202 O220 1.258 . S
C202 O221 1.239 . S
C203 C202 1.498 . S
C203 C204 1.366 . S
C203 C208 1.407 . S
C204 C203 1.366 . S
C204 C205 1.392 . S
C204 H232 0.930 . S
C205 C204 1.392 . S
C205 C206 1.398 . S
C205 H233 0.929 . S
C206 C205 1.398 . S
C206 C207 1.352 . S
C207 C206 1.352 . S
C207 C208 1.384 . S
C207 H234 0.930 . S
C208 C203 1.407 . S
C208 C207 1.384 . S
C208 H235 0.929 . S
C209 O222 1.241 . S
C209 O223 1.273 . S
C210 O224 1.251 . S
C210 O225 1.268 . S
C211 Nd201 2.836 . S
C211 C212 1.498 . S
C211 O226 1.258 . S
C211 O227 1.239 . S
C212 C211 1.498 . S
C212 C213 1.366 . S
C212 C217 1.407 . S
C213 C212 1.366 . S
C213 C214 1.392 . S
C213 H236 0.930 . S
C214 C213 1.392 . S
C214 C215 1.398 . S
C214 H237 0.929 . S
C215 C214 1.398 . S
C215 C216 1.352 . S
C216 C215 1.352 . S
C216 C217 1.384 . S
C216 H238 0.930 . S
C217 C212 1.407 . S
C217 C216 1.384 . S
C217 H239 0.929 . S
C218 O228 1.241 . S
C218 O229 1.273 . S
C219 O230 1.251 . S
C219 O231 1.268 . S
O220 Nd200 2.500 . S
O220 C202 1.258 . S
O221 Nd200 2.492 . S
O221 C202 1.239 . S
O222 Nd200 2.487 . S
O222 C209 1.241 . S
O223 Nd200 2.682 . S
O223 Nd201 2.414 . S
O223 C209 1.273 . S
O224 Nd200 2.410 . S
O224 C210 1.251 . S
O225 Nd201 2.424 . S
O225 C210 1.268 . S
O226 Nd201 2.500 . S
O226 C211 1.258 . S
O227 Nd201 2.492 . S
O227 C211 1.239 . S
O228 Nd201 2.487 . S
O228 C218 1.241 . S
O229 Nd200 2.414 . S
O229 Nd201 2.682 . S
O229 C218 1.273 . S
O230 Nd201 2.410 . S
O230 C219 1.251 . S
O231 Nd200 2.424 . S
O231 C219 1.268 . S
H232 C204 0.930 . S
H233 C205 0.929 . S
H234 C207 0.930 . S
H235 C208 0.929 . S
H236 C213 0.930 . S
H237 C214 0.929 . S
H238 C216 0.930 . S
H239 C217 0.929 . S
Nd240 C242 2.836 . S
Nd240 O260 2.500 . S
Nd240 O261 2.492 . S
Nd240 O262 2.487 . S
Nd240 O263 2.682 . S
Nd240 O264 2.410 . S
Nd240 O269 2.414 . S
Nd240 O271 2.424 . S
Nd241 C251 2.836 . S
Nd241 O263 2.414 . S
Nd241 O265 2.424 . S
Nd241 O266 2.500 . S
Nd241 O267 2.492 . S
Nd241 O268 2.487 . S
Nd241 O269 2.682 . S
Nd241 O270 2.410 . S
C242 Nd240 2.836 . S
C242 C243 1.498 . S
C242 O260 1.258 . S
C242 O261 1.239 . S
C243 C242 1.498 . S
C243 C244 1.366 . S
C243 C248 1.407 . S
C244 C243 1.366 . S
C244 C245 1.392 . S
C244 H272 0.930 . S
C245 C244 1.392 . S
C245 C246 1.398 . S
C245 H273 0.929 . S
C246 C245 1.398 . S
C246 C247 1.352 . S
C247 C246 1.352 . S
C247 C248 1.384 . S
C247 H274 0.930 . S
C248 C243 1.407 . S
C248 C247 1.384 . S
C248 H275 0.929 . S
C249 O262 1.241 . S
C249 O263 1.273 . S
C250 O264 1.251 . S
C250 O265 1.268 . S
C251 Nd241 2.836 . S
C251 C252 1.498 . S
C251 O266 1.258 . S
C251 O267 1.239 . S
C252 C251 1.498 . S
C252 C253 1.366 . S
C252 C257 1.407 . S
C253 C252 1.366 . S
C253 C254 1.392 . S
C253 H276 0.930 . S
C254 C253 1.392 . S
C254 C255 1.398 1_554 S
C254 H277 0.929 1_554 S
C255 C254 1.398 1_556 S
C255 C256 1.352 1_556 S
C256 C255 1.352 1_554 S
C256 C257 1.384 . S
C256 H278 0.930 . S
C257 C252 1.407 . S
C257 C256 1.384 . S
C257 H279 0.929 . S
C258 O268 1.241 . S
C258 O269 1.273 . S
C259 O270 1.251 . S
C259 O271 1.268 . S
O260 Nd240 2.500 . S
O260 C242 1.258 . S
O261 Nd240 2.492 . S
O261 C242 1.239 . S
O262 Nd240 2.487 . S
O262 C249 1.241 . S
O263 Nd240 2.682 . S
O263 Nd241 2.414 . S
O263 C249 1.273 . S
O264 Nd240 2.410 . S
O264 C250 1.251 . S
O265 Nd241 2.424 . S
O265 C250 1.268 . S
O266 Nd241 2.500 . S
O266 C251 1.258 . S
O267 Nd241 2.492 . S
O267 C251 1.239 . S
O268 Nd241 2.487 . S
O268 C258 1.241 . S
O269 Nd240 2.414 . S
O269 Nd241 2.682 . S
O269 C258 1.273 . S
O270 Nd241 2.410 . S
O270 C259 1.251 . S
O271 Nd240 2.424 . S
O271 C259 1.268 . S
H272 C244 0.930 . S
H273 C245 0.929 . S
H274 C247 0.930 . S
H275 C248 0.929 . S
H276 C253 0.930 . S
H277 C254 0.929 1_556 S
H278 C256 0.930 . S
H279 C257 0.929 . S
Nd280 C282 2.836 . S
Nd280 O300 2.500 . S
Nd280 O301 2.492 . S
Nd280 O302 2.487 . S
Nd280 O303 2.682 . S
Nd280 O304 2.410 . S
Nd280 O309 2.414 . S
Nd280 O311 2.424 . S
Nd281 C291 2.836 . S
Nd281 O303 2.414 . S
Nd281 O305 2.424 . S
Nd281 O306 2.500 . S
Nd281 O307 2.492 . S
Nd281 O308 2.487 . S
Nd281 O309 2.682 . S
Nd281 O310 2.410 . S
C282 Nd280 2.836 . S
C282 C283 1.498 . S
C282 O300 1.258 . S
C282 O301 1.239 . S
C283 C282 1.498 . S
C283 C284 1.366 . S
C283 C288 1.407 . S
C284 C283 1.366 . S
C284 C285 1.392 . S
C284 H312 0.930 . S
C285 C284 1.392 . S
C285 C286 1.398 . S
C285 H313 0.929 . S
C286 C285 1.398 . S
C286 C287 1.352 . S
C287 C286 1.352 . S
C287 C288 1.384 . S
C287 H314 0.930 . S
C288 C283 1.407 . S
C288 C287 1.384 . S
C288 H315 0.929 . S
C289 O302 1.241 . S
C289 O303 1.273 . S
C290 O304 1.251 . S
C290 O305 1.268 . S
C291 Nd281 2.836 . S
C291 C292 1.498 . S
C291 O306 1.258 . S
C291 O307 1.239 . S
C292 C291 1.498 . S
C292 C293 1.366 . S
C292 C297 1.407 . S
C293 C292 1.366 . S
C293 C294 1.392 . S
C293 H316 0.930 . S
C294 C293 1.392 . S
C294 C295 1.398 1_554 S
C294 H317 0.929 1_554 S
C295 C294 1.398 1_556 S
C295 C296 1.352 1_556 S
C296 C295 1.352 1_554 S
C296 C297 1.384 . S
C296 H318 0.930 . S
C297 C292 1.407 . S
C297 C296 1.384 . S
C297 H319 0.929 . S
C298 O308 1.241 . S
C298 O309 1.273 . S
C299 O310 1.251 . S
C299 O311 1.268 . S
O300 Nd280 2.500 . S
O300 C282 1.258 . S
O301 Nd280 2.492 . S
O301 C282 1.239 . S
O302 Nd280 2.487 . S
O302 C289 1.241 . S
O303 Nd280 2.682 . S
O303 Nd281 2.414 . S
O303 C289 1.273 . S
O304 Nd280 2.410 . S
O304 C290 1.251 . S
O305 Nd281 2.424 . S
O305 C290 1.268 . S
O306 Nd281 2.500 . S
O306 C291 1.258 . S
O307 Nd281 2.492 . S
O307 C291 1.239 . S
O308 Nd281 2.487 . S
O308 C298 1.241 . S
O309 Nd280 2.414 . S
O309 Nd281 2.682 . S
O309 C298 1.273 . S
O310 Nd281 2.410 . S
O310 C299 1.251 . S
O311 Nd280 2.424 . S
O311 C299 1.268 . S
H312 C284 0.930 . S
H313 C285 0.929 . S
H314 C287 0.930 . S
H315 C288 0.929 . S
H316 C293 0.930 . S
H317 C294 0.929 1_556 S
H318 C296 0.930 . S
H319 C297 0.929 . S
Nd320 C322 2.836 . S
Nd320 O340 2.500 . S
Nd320 O341 2.492 . S
Nd320 O342 2.487 . S
Nd320 O343 2.682 . S
Nd320 O344 2.410 . S
Nd320 O349 2.414 . S
Nd320 O351 2.424 . S
Nd321 C331 2.836 . S
Nd321 O343 2.414 . S
Nd321 O345 2.424 . S
Nd321 O346 2.500 . S
Nd321 O347 2.492 . S
Nd321 O348 2.487 . S
Nd321 O349 2.682 . S
Nd321 O350 2.410 . S
C322 Nd320 2.836 . S
C322 C323 1.498 . S
C322 O340 1.258 . S
C322 O341 1.239 . S
C323 C322 1.498 . S
C323 C324 1.366 . S
C323 C328 1.407 . S
C324 C323 1.366 . S
C324 C325 1.392 . S
C324 H352 0.930 . S
C325 C324 1.392 . S
C325 C326 1.398 . S
C325 H353 0.929 . S
C326 C325 1.398 . S
C326 C327 1.352 . S
C327 C326 1.352 . S
C327 C328 1.384 . S
C327 H354 0.930 . S
C328 C323 1.407 . S
C328 C327 1.384 . S
C328 H355 0.929 . S
C329 O342 1.241 . S
C329 O343 1.273 . S
C330 O344 1.251 . S
C330 O345 1.268 . S
C331 Nd321 2.836 . S
C331 C332 1.498 . S
C331 O346 1.258 . S
C331 O347 1.239 . S
C332 C331 1.498 . S
C332 C333 1.366 . S
C332 C337 1.407 . S
C333 C332 1.366 . S
C333 C334 1.392 . S
C333 H356 0.930 . S
C334 C333 1.392 . S
C334 C335 1.398 1_554 S
C334 H357 0.929 1_554 S
C335 C334 1.398 1_556 S
C335 C336 1.352 1_556 S
C336 C335 1.352 1_554 S
C336 C337 1.384 . S
C336 H358 0.930 . S
C337 C332 1.407 . S
C337 C336 1.384 . S
C337 H359 0.929 . S
C338 O348 1.241 . S
C338 O349 1.273 . S
C339 O350 1.251 . S
C339 O351 1.268 . S
O340 Nd320 2.500 . S
O340 C322 1.258 . S
O341 Nd320 2.492 . S
O341 C322 1.239 . S
O342 Nd320 2.487 . S
O342 C329 1.241 . S
O343 Nd320 2.682 . S
O343 Nd321 2.414 . S
O343 C329 1.273 . S
O344 Nd320 2.410 . S
O344 C330 1.251 . S
O345 Nd321 2.424 . S
O345 C330 1.268 . S
O346 Nd321 2.500 . S
O346 C331 1.258 . S
O347 Nd321 2.492 . S
O347 C331 1.239 . S
O348 Nd321 2.487 . S
O348 C338 1.241 . S
O349 Nd320 2.414 . S
O349 Nd321 2.682 . S
O349 C338 1.273 . S
O350 Nd321 2.410 . S
O350 C339 1.251 . S
O351 Nd320 2.424 . S
O351 C339 1.268 . S
H352 C324 0.930 . S
H353 C325 0.929 . S
H354 C327 0.930 . S
H355 C328 0.929 . S
H356 C333 0.930 . S
H357 C334 0.929 1_556 S
H358 C336 0.930 . S
H359 C337 0.929 . S
Nd360 C362 2.836 . S
Nd360 O380 2.500 . S
Nd360 O381 2.492 . S
Nd360 O382 2.487 . S
Nd360 O383 2.682 . S
Nd360 O384 2.410 . S
Nd360 O389 2.414 . S
Nd360 O391 2.424 . S
Nd361 C371 2.836 . S
Nd361 O383 2.414 . S
Nd361 O385 2.424 . S
Nd361 O386 2.500 . S
Nd361 O387 2.492 . S
Nd361 O388 2.487 . S
Nd361 O389 2.682 . S
Nd361 O390 2.410 . S
C362 Nd360 2.836 . S
C362 C363 1.498 . S
C362 O380 1.258 . S
C362 O381 1.239 . S
C363 C362 1.498 . S
C363 C364 1.366 . S
C363 C368 1.407 . S
C364 C363 1.366 . S
C364 C365 1.392 . S
C364 H392 0.930 . S
C365 C364 1.392 . S
C365 C366 1.398 . S
C365 H393 0.929 . S
C366 C365 1.398 . S
C366 C367 1.352 . S
C367 C366 1.352 . S
C367 C368 1.384 . S
C367 H394 0.930 . S
C368 C363 1.407 . S
C368 C367 1.384 . S
C368 H395 0.929 . S
C369 O382 1.241 . S
C369 O383 1.273 . S
C370 O384 1.251 . S
C370 O385 1.268 . S
C371 Nd361 2.836 . S
C371 C372 1.498 . S
C371 O386 1.258 . S
C371 O387 1.239 . S
C372 C371 1.498 . S
C372 C373 1.366 . S
C372 C377 1.407 . S
C373 C372 1.366 . S
C373 C374 1.392 . S
C373 H396 0.930 . S
C374 C373 1.392 . S
C374 C375 1.398 . S
C374 H397 0.929 . S
C375 C374 1.398 . S
C375 C376 1.352 . S
C376 C375 1.352 . S
C376 C377 1.384 . S
C376 H398 0.930 . S
C377 C372 1.407 . S
C377 C376 1.384 . S
C377 H399 0.929 . S
C378 O388 1.241 . S
C378 O389 1.273 . S
C379 O390 1.251 . S
C379 O391 1.268 . S
O380 Nd360 2.500 . S
O380 C362 1.258 . S
O381 Nd360 2.492 . S
O381 C362 1.239 . S
O382 Nd360 2.487 . S
O382 C369 1.241 . S
O383 Nd360 2.682 . S
O383 Nd361 2.414 . S
O383 C369 1.273 . S
O384 Nd360 2.410 . S
O384 C370 1.251 . S
O385 Nd361 2.424 . S
O385 C370 1.268 . S
O386 Nd361 2.500 . S
O386 C371 1.258 . S
O387 Nd361 2.492 . S
O387 C371 1.239 . S
O388 Nd361 2.487 . S
O388 C378 1.241 . S
O389 Nd360 2.414 . S
O389 Nd361 2.682 . S
O389 C378 1.273 . S
O390 Nd361 2.410 . S
O390 C379 1.251 . S
O391 Nd360 2.424 . S
O391 C379 1.268 . S
H392 C364 0.930 . S
H393 C365 0.929 . S
H394 C367 0.930 . S
H395 C368 0.929 . S
H396 C373 0.930 . S
H397 C374 0.929 . S
H398 C376 0.930 . S
H399 C377 0.929 . S
Nd400 C402 2.836 . S
Nd400 O420 2.500 . S
Nd400 O421 2.492 . S
Nd400 O422 2.487 . S
Nd400 O423 2.682 . S
Nd400 O424 2.410 . S
Nd400 O429 2.414 . S
Nd400 O431 2.424 . S
Nd401 C411 2.836 . S
Nd401 O423 2.414 . S
Nd401 O425 2.424 . S
Nd401 O426 2.500 . S
Nd401 O427 2.492 . S
Nd401 O428 2.487 . S
Nd401 O429 2.682 . S
Nd401 O430 2.410 . S
C402 Nd400 2.836 . S
C402 C403 1.498 . S
C402 O420 1.258 . S
C402 O421 1.239 . S
C403 C402 1.498 . S
C403 C404 1.366 . S
C403 C408 1.407 . S
C404 C403 1.366 . S
C404 C405 1.392 . S
C404 H432 0.930 . S
C405 C404 1.392 . S
C405 C406 1.398 . S
C405 H433 0.929 . S
C406 C405 1.398 . S
C406 C407 1.352 . S
C407 C406 1.352 . S
C407 C408 1.384 . S
C407 H434 0.930 . S
C408 C403 1.407 . S
C408 C407 1.384 . S
C408 H435 0.929 . S
C409 O422 1.241 . S
C409 O423 1.273 . S
C410 O424 1.251 . S
C410 O425 1.268 . S
C411 Nd401 2.836 . S
C411 C412 1.498 . S
C411 O426 1.258 . S
C411 O427 1.239 . S
C412 C411 1.498 . S
C412 C413 1.366 . S
C412 C417 1.407 . S
C413 C412 1.366 . S
C413 C414 1.392 . S
C413 H436 0.930 . S
C414 C413 1.392 . S
C414 C415 1.398 . S
C414 H437 0.929 . S
C415 C414 1.398 . S
C415 C416 1.352 . S
C416 C415 1.352 . S
C416 C417 1.384 . S
C416 H438 0.930 . S
C417 C412 1.407 . S
C417 C416 1.384 . S
C417 H439 0.929 . S
C418 O428 1.241 . S
C418 O429 1.273 . S
C419 O430 1.251 . S
C419 O431 1.268 . S
O420 Nd400 2.500 . S
O420 C402 1.258 . S
O421 Nd400 2.492 . S
O421 C402 1.239 . S
O422 Nd400 2.487 . S
O422 C409 1.241 . S
O423 Nd400 2.682 . S
O423 Nd401 2.414 . S
O423 C409 1.273 . S
O424 Nd400 2.410 . S
O424 C410 1.251 . S
O425 Nd401 2.424 . S
O425 C410 1.268 . S
O426 Nd401 2.500 . S
O426 C411 1.258 . S
O427 Nd401 2.492 . S
O427 C411 1.239 . S
O428 Nd401 2.487 . S
O428 C418 1.241 . S
O429 Nd400 2.414 . S
O429 Nd401 2.682 . S
O429 C418 1.273 . S
O430 Nd401 2.410 . S
O430 C419 1.251 . S
O431 Nd400 2.424 . S
O431 C419 1.268 . S
H432 C404 0.930 . S
H433 C405 0.929 . S
H434 C407 0.930 . S
H435 C408 0.929 . S
H436 C413 0.930 . S
H437 C414 0.929 . S
H438 C416 0.930 . S
H439 C417 0.929 . S
Nd440 C442 2.836 . S
Nd440 O460 2.500 . S
Nd440 O461 2.492 . S
Nd440 O462 2.487 . S
Nd440 O463 2.682 . S
Nd440 O464 2.410 . S
Nd440 O469 2.414 . S
Nd440 O471 2.424 . S
Nd441 C451 2.836 . S
Nd441 O463 2.414 . S
Nd441 O465 2.424 . S
Nd441 O466 2.500 . S
Nd441 O467 2.492 . S
Nd441 O468 2.487 . S
Nd441 O469 2.682 . S
Nd441 O470 2.410 . S
C442 Nd440 2.836 . S
C442 C443 1.498 . S
C442 O460 1.258 . S
C442 O461 1.239 . S
C443 C442 1.498 . S
C443 C444 1.366 . S
C443 C448 1.407 . S
C444 C443 1.366 . S
C444 C445 1.392 . S
C444 H472 0.930 . S
C445 C444 1.392 . S
C445 C446 1.398 . S
C445 H473 0.929 . S
C446 C445 1.398 . S
C446 C447 1.352 . S
C447 C446 1.352 . S
C447 C448 1.384 . S
C447 H474 0.930 . S
C448 C443 1.407 . S
C448 C447 1.384 . S
C448 H475 0.929 . S
C449 O462 1.241 . S
C449 O463 1.273 . S
C450 O464 1.251 . S
C450 O465 1.268 . S
C451 Nd441 2.836 . S
C451 C452 1.498 . S
C451 O466 1.258 . S
C451 O467 1.239 . S
C452 C451 1.498 . S
C452 C453 1.366 . S
C452 C457 1.407 . S
C453 C452 1.366 . S
C453 C454 1.392 . S
C453 H476 0.930 . S
C454 C453 1.392 . S
C454 C455 1.398 . S
C454 H477 0.929 . S
C455 C454 1.398 . S
C455 C456 1.352 . S
C456 C455 1.352 . S
C456 C457 1.384 . S
C456 H478 0.930 . S
C457 C452 1.407 . S
C457 C456 1.384 . S
C457 H479 0.929 . S
C458 O468 1.241 . S
C458 O469 1.273 . S
C459 O470 1.251 . S
C459 O471 1.268 . S
O460 Nd440 2.500 . S
O460 C442 1.258 . S
O461 Nd440 2.492 . S
O461 C442 1.239 . S
O462 Nd440 2.487 . S
O462 C449 1.241 . S
O463 Nd440 2.682 . S
O463 Nd441 2.414 . S
O463 C449 1.273 . S
O464 Nd440 2.410 . S
O464 C450 1.251 . S
O465 Nd441 2.424 . S
O465 C450 1.268 . S
O466 Nd441 2.500 . S
O466 C451 1.258 . S
O467 Nd441 2.492 . S
O467 C451 1.239 . S
O468 Nd441 2.487 . S
O468 C458 1.241 . S
O469 Nd440 2.414 . S
O469 Nd441 2.682 . S
O469 C458 1.273 . S
O470 Nd441 2.410 . S
O470 C459 1.251 . S
O471 Nd440 2.424 . S
O471 C459 1.268 . S
H472 C444 0.930 . S
H473 C445 0.929 . S
H474 C447 0.930 . S
H475 C448 0.929 . S
H476 C453 0.930 . S
H477 C454 0.929 . S
H478 C456 0.930 . S
H479 C457 0.929 . S
Nd480 C482 2.836 . S
Nd480 O500 2.500 . S
Nd480 O501 2.492 . S
Nd480 O502 2.487 . S
Nd480 O503 2.682 . S
Nd480 O504 2.410 . S
Nd480 O509 2.414 . S
Nd480 O511 2.424 . S
Nd481 C491 2.836 . S
Nd481 O503 2.414 . S
Nd481 O505 2.424 . S
Nd481 O506 2.500 . S
Nd481 O507 2.492 . S
Nd481 O508 2.487 . S
Nd481 O509 2.682 . S
Nd481 O510 2.410 . S
C482 Nd480 2.836 . S
C482 C483 1.498 . S
C482 O500 1.258 . S
C482 O501 1.239 . S
C483 C482 1.498 . S
C483 C484 1.366 . S
C483 C488 1.407 . S
C484 C483 1.366 . S
C484 C485 1.392 . S
C484 H512 0.930 . S
C485 C484 1.392 . S
C485 C486 1.398 . S
C485 H513 0.929 . S
C486 C485 1.398 . S
C486 C487 1.352 . S
C487 C486 1.352 . S
C487 C488 1.384 . S
C487 H514 0.930 . S
C488 C483 1.407 . S
C488 C487 1.384 . S
C488 H515 0.929 . S
C489 O502 1.241 . S
C489 O503 1.273 . S
C490 O504 1.251 . S
C490 O505 1.268 . S
C491 Nd481 2.836 . S
C491 C492 1.498 . S
C491 O506 1.258 . S
C491 O507 1.239 . S
C492 C491 1.498 . S
C492 C493 1.366 . S
C492 C497 1.407 . S
C493 C492 1.366 . S
C493 C494 1.392 . S
C493 H516 0.930 . S
C494 C493 1.392 . S
C494 C495 1.398 . S
C494 H517 0.929 . S
C495 C494 1.398 . S
C495 C496 1.352 . S
C496 C495 1.352 . S
C496 C497 1.384 . S
C496 H518 0.930 . S
C497 C492 1.407 . S
C497 C496 1.384 . S
C497 H519 0.929 . S
C498 O508 1.241 . S
C498 O509 1.273 . S
C499 O510 1.251 . S
C499 O511 1.268 . S
O500 Nd480 2.500 . S
O500 C482 1.258 . S
O501 Nd480 2.492 . S
O501 C482 1.239 . S
O502 Nd480 2.487 . S
O502 C489 1.241 . S
O503 Nd480 2.682 . S
O503 Nd481 2.414 . S
O503 C489 1.273 . S
O504 Nd480 2.410 . S
O504 C490 1.251 . S
O505 Nd481 2.424 . S
O505 C490 1.268 . S
O506 Nd481 2.500 . S
O506 C491 1.258 . S
O507 Nd481 2.492 . S
O507 C491 1.239 . S
O508 Nd481 2.487 . S
O508 C498 1.241 . S
O509 Nd480 2.414 . S
O509 Nd481 2.682 . S
O509 C498 1.273 . S
O510 Nd481 2.410 . S
O510 C499 1.251 . S
O511 Nd480 2.424 . S
O511 C499 1.268 . S
H512 C484 0.930 . S
H513 C485 0.929 . S
H514 C487 0.930 . S
H515 C488 0.929 . S
H516 C493 0.930 . S
H517 C494 0.929 . S
H518 C496 0.930 . S
H519 C497 0.929 . S
Nd520 C522 2.836 . S
Nd520 O540 2.500 . S
Nd520 O541 2.492 . S
Nd520 O542 2.487 . S
Nd520 O543 2.682 . S
Nd520 O544 2.410 . S
Nd520 O549 2.414 . S
Nd520 O551 2.424 . S
Nd521 C531 2.836 . S
Nd521 O543 2.414 . S
Nd521 O545 2.424 . S
Nd521 O546 2.500 . S
Nd521 O547 2.492 . S
Nd521 O548 2.487 . S
Nd521 O549 2.682 . S
Nd521 O550 2.410 . S
C522 Nd520 2.836 . S
C522 C523 1.498 . S
C522 O540 1.258 . S
C522 O541 1.239 . S
C523 C522 1.498 . S
C523 C524 1.366 . S
C523 C528 1.407 . S
C524 C523 1.366 . S
C524 C525 1.392 . S
C524 H552 0.930 . S
C525 C524 1.392 . S
C525 C526 1.398 . S
C525 H553 0.929 . S
C526 C525 1.398 . S
C526 C527 1.352 . S
C527 C526 1.352 . S
C527 C528 1.384 . S
C527 H554 0.930 . S
C528 C523 1.407 . S
C528 C527 1.384 . S
C528 H555 0.929 . S
C529 O542 1.241 . S
C529 O543 1.273 . S
C530 O544 1.251 . S
C530 O545 1.268 . S
C531 Nd521 2.836 . S
C531 C532 1.498 . S
C531 O546 1.258 . S
C531 O547 1.239 . S
C532 C531 1.498 . S
C532 C533 1.366 . S
C532 C537 1.407 . S
C533 C532 1.366 . S
C533 C534 1.392 . S
C533 H556 0.930 . S
C534 C533 1.392 . S
C534 C535 1.398 . S
C534 H557 0.929 . S
C535 C534 1.398 . S
C535 C536 1.352 . S
C536 C535 1.352 . S
C536 C537 1.384 . S
C536 H558 0.930 . S
C537 C532 1.407 . S
C537 C536 1.384 . S
C537 H559 0.929 . S
C538 O548 1.241 . S
C538 O549 1.273 . S
C539 O550 1.251 . S
C539 O551 1.268 . S
O540 Nd520 2.500 . S
O540 C522 1.258 . S
O541 Nd520 2.492 . S
O541 C522 1.239 . S
O542 Nd520 2.487 . S
O542 C529 1.241 . S
O543 Nd520 2.682 . S
O543 Nd521 2.414 . S
O543 C529 1.273 . S
O544 Nd520 2.410 . S
O544 C530 1.251 . S
O545 Nd521 2.424 . S
O545 C530 1.268 . S
O546 Nd521 2.500 . S
O546 C531 1.258 . S
O547 Nd521 2.492 . S
O547 C531 1.239 . S
O548 Nd521 2.487 . S
O548 C538 1.241 . S
O549 Nd520 2.414 . S
O549 Nd521 2.682 . S
O549 C538 1.273 . S
O550 Nd521 2.410 . S
O550 C539 1.251 . S
O551 Nd520 2.424 . S
O551 C539 1.268 . S
H552 C524 0.930 . S
H553 C525 0.929 . S
H554 C527 0.930 . S
H555 C528 0.929 . S
H556 C533 0.930 . S
H557 C534 0.929 . S
H558 C536 0.930 . S
H559 C537 0.929 . S
Nd560 C562 2.836 . S
Nd560 O580 2.500 . S
Nd560 O581 2.492 . S
Nd560 O582 2.487 . S
Nd560 O583 2.682 . S
Nd560 O584 2.410 . S
Nd560 O589 2.414 . S
Nd560 O591 2.424 . S
Nd561 C571 2.836 . S
Nd561 O583 2.414 . S
Nd561 O585 2.424 . S
Nd561 O586 2.500 . S
Nd561 O587 2.492 . S
Nd561 O588 2.487 . S
Nd561 O589 2.682 . S
Nd561 O590 2.410 . S
C562 Nd560 2.836 . S
C562 C563 1.498 . S
C562 O580 1.258 . S
C562 O581 1.239 . S
C563 C562 1.498 . S
C563 C564 1.366 . S
C563 C568 1.407 . S
C564 C563 1.366 . S
C564 C565 1.392 . S
C564 H592 0.930 . S
C565 C564 1.392 . S
C565 C566 1.398 . S
C565 H593 0.929 . S
C566 C565 1.398 . S
C566 C567 1.352 . S
C567 C566 1.352 . S
C567 C568 1.384 . S
C567 H594 0.930 . S
C568 C563 1.407 . S
C568 C567 1.384 . S
C568 H595 0.929 . S
C569 O582 1.241 . S
C569 O583 1.273 . S
C570 O584 1.251 . S
C570 O585 1.268 . S
C571 Nd561 2.836 . S
C571 C572 1.498 . S
C571 O586 1.258 . S
C571 O587 1.239 . S
C572 C571 1.498 . S
C572 C573 1.366 . S
C572 C577 1.407 . S
C573 C572 1.366 . S
C573 C574 1.392 . S
C573 H596 0.930 . S
C574 C573 1.392 . S
C574 C575 1.398 . S
C574 H597 0.929 . S
C575 C574 1.398 . S
C575 C576 1.352 . S
C576 C575 1.352 . S
C576 C577 1.384 . S
C576 H598 0.930 . S
C577 C572 1.407 . S
C577 C576 1.384 . S
C577 H599 0.929 . S
C578 O588 1.241 . S
C578 O589 1.273 . S
C579 O590 1.251 . S
C579 O591 1.268 . S
O580 Nd560 2.500 . S
O580 C562 1.258 . S
O581 Nd560 2.492 . S
O581 C562 1.239 . S
O582 Nd560 2.487 . S
O582 C569 1.241 . S
O583 Nd560 2.682 . S
O583 Nd561 2.414 . S
O583 C569 1.273 . S
O584 Nd560 2.410 . S
O584 C570 1.251 . S
O585 Nd561 2.424 . S
O585 C570 1.268 . S
O586 Nd561 2.500 . S
O586 C571 1.258 . S
O587 Nd561 2.492 . S
O587 C571 1.239 . S
O588 Nd561 2.487 . S
O588 C578 1.241 . S
O589 Nd560 2.414 . S
O589 Nd561 2.682 . S
O589 C578 1.273 . S
O590 Nd561 2.410 . S
O590 C579 1.251 . S
O591 Nd560 2.424 . S
O591 C579 1.268 . S
H592 C564 0.930 . S
H593 C565 0.929 . S
H594 C567 0.930 . S
H595 C568 0.929 . S
H596 C573 0.930 . S
H597 C574 0.929 . S
H598 C576 0.930 . S
H599 C577 0.929 . S
Nd600 C602 2.836 . S
Nd600 O620 2.500 . S
Nd600 O621 2.492 . S
Nd600 O622 2.487 . S
Nd600 O623 2.682 1_556 S
Nd600 O624 2.410 . S
Nd600 O629 2.414 . S
Nd600 O631 2.424 1_556 S
Nd601 C611 2.836 . S
Nd601 O623 2.414 . S
Nd601 O625 2.424 1_554 S
Nd601 O626 2.500 . S
Nd601 O627 2.492 . S
Nd601 O628 2.487 . S
Nd601 O629 2.682 1_554 S
Nd601 O630 2.410 . S
C602 Nd600 2.836 . S
C602 C603 1.498 . S
C602 O620 1.258 . S
C602 O621 1.239 . S
C603 C602 1.498 . S
C603 C604 1.366 . S
C603 C608 1.407 . S
C604 C603 1.366 . S
C604 C605 1.392 . S
C604 H632 0.930 . S
C605 C604 1.392 . S
C605 C606 1.398 . S
C605 H633 0.929 . S
C606 C605 1.398 . S
C606 C607 1.352 . S
C607 C606 1.352 . S
C607 C608 1.384 . S
C607 H634 0.930 . S
C608 C603 1.407 . S
C608 C607 1.384 . S
C608 H635 0.929 . S
C609 O622 1.241 1_554 S
C609 O623 1.273 . S
C610 O624 1.251 . S
C610 O625 1.268 . S
C611 Nd601 2.836 . S
C611 C612 1.498 . S
C611 O626 1.258 . S
C611 O627 1.239 . S
C612 C611 1.498 . S
C612 C613 1.366 . S
C612 C617 1.407 . S
C613 C612 1.366 . S
C613 C614 1.392 . S
C613 H636 0.930 . S
C614 C613 1.392 . S
C614 C615 1.398 . S
C614 H637 0.929 . S
C615 C614 1.398 . S
C615 C616 1.352 . S
C616 C615 1.352 . S
C616 C617 1.384 . S
C616 H638 0.930 . S
C617 C612 1.407 . S
C617 C616 1.384 . S
C617 H639 0.929 . S
C618 O628 1.241 1_556 S
C618 O629 1.273 . S
C619 O630 1.251 . S
C619 O631 1.268 . S
O620 Nd600 2.500 . S
O620 C602 1.258 . S
O621 Nd600 2.492 . S
O621 C602 1.239 . S
O622 Nd600 2.487 . S
O622 C609 1.241 1_556 S
O623 Nd600 2.682 1_554 S
O623 Nd601 2.414 . S
O623 C609 1.273 . S
O624 Nd600 2.410 . S
O624 C610 1.251 . S
O625 Nd601 2.424 1_556 S
O625 C610 1.268 . S
O626 Nd601 2.500 . S
O626 C611 1.258 . S
O627 Nd601 2.492 . S
O627 C611 1.239 . S
O628 Nd601 2.487 . S
O628 C618 1.241 1_554 S
O629 Nd600 2.414 . S
O629 Nd601 2.682 1_556 S
O629 C618 1.273 . S
O630 Nd601 2.410 . S
O630 C619 1.251 . S
O631 Nd600 2.424 1_554 S
O631 C619 1.268 . S
H632 C604 0.930 . S
H633 C605 0.929 . S
H634 C607 0.930 . S
H635 C608 0.929 . S
H636 C613 0.930 . S
H637 C614 0.929 . S
H638 C616 0.930 . S
H639 C617 0.929 . S
Nd640 C642 2.836 . S
Nd640 O660 2.500 . S
Nd640 O661 2.492 . S
Nd640 O662 2.487 . S
Nd640 O663 2.682 1_556 S
Nd640 O664 2.410 . S
Nd640 O669 2.414 . S
Nd640 O671 2.424 1_556 S
Nd641 C651 2.836 . S
Nd641 O663 2.414 . S
Nd641 O665 2.424 1_554 S
Nd641 O666 2.500 . S
Nd641 O667 2.492 . S
Nd641 O668 2.487 . S
Nd641 O669 2.682 1_554 S
Nd641 O670 2.410 . S
C642 Nd640 2.836 . S
C642 C643 1.498 . S
C642 O660 1.258 . S
C642 O661 1.239 . S
C643 C642 1.498 . S
C643 C644 1.366 . S
C643 C648 1.407 . S
C644 C643 1.366 . S
C644 C645 1.392 . S
C644 H672 0.930 . S
C645 C644 1.392 . S
C645 C646 1.398 . S
C645 H673 0.929 . S
C646 C645 1.398 . S
C646 C647 1.352 . S
C647 C646 1.352 . S
C647 C648 1.384 . S
C647 H674 0.930 . S
C648 C643 1.407 . S
C648 C647 1.384 . S
C648 H675 0.929 . S
C649 O662 1.241 1_554 S
C649 O663 1.273 . S
C650 O664 1.251 . S
C650 O665 1.268 . S
C651 Nd641 2.836 . S
C651 C652 1.498 . S
C651 O666 1.258 . S
C651 O667 1.239 . S
C652 C651 1.498 . S
C652 C653 1.366 . S
C652 C657 1.407 . S
C653 C652 1.366 . S
C653 C654 1.392 . S
C653 H676 0.930 . S
C654 C653 1.392 . S
C654 C655 1.398 . S
C654 H677 0.929 . S
C655 C654 1.398 . S
C655 C656 1.352 . S
C656 C655 1.352 . S
C656 C657 1.384 . S
C656 H678 0.930 . S
C657 C652 1.407 . S
C657 C656 1.384 . S
C657 H679 0.929 . S
C658 O668 1.241 1_556 S
C658 O669 1.273 . S
C659 O670 1.251 . S
C659 O671 1.268 . S
O660 Nd640 2.500 . S
O660 C642 1.258 . S
O661 Nd640 2.492 . S
O661 C642 1.239 . S
O662 Nd640 2.487 . S
O662 C649 1.241 1_556 S
O663 Nd640 2.682 1_554 S
O663 Nd641 2.414 . S
O663 C649 1.273 . S
O664 Nd640 2.410 . S
O664 C650 1.251 . S
O665 Nd641 2.424 1_556 S
O665 C650 1.268 . S
O666 Nd641 2.500 . S
O666 C651 1.258 . S
O667 Nd641 2.492 . S
O667 C651 1.239 . S
O668 Nd641 2.487 . S
O668 C658 1.241 1_554 S
O669 Nd640 2.414 . S
O669 Nd641 2.682 1_556 S
O669 C658 1.273 . S
O670 Nd641 2.410 . S
O670 C659 1.251 . S
O671 Nd640 2.424 1_554 S
O671 C659 1.268 . S
H672 C644 0.930 . S
H673 C645 0.929 . S
H674 C647 0.930 . S
H675 C648 0.929 . S
H676 C653 0.930 . S
H677 C654 0.929 . S
H678 C656 0.930 . S
H679 C657 0.929 . S
Nd680 C682 2.836 . S
Nd680 O700 2.500 . S
Nd680 O701 2.492 . S
Nd680 O702 2.487 . S
Nd680 O703 2.682 1_556 S
Nd680 O704 2.410 . S
Nd680 O709 2.414 . S
Nd680 O711 2.424 1_556 S
Nd681 C691 2.836 . S
Nd681 O703 2.414 . S
Nd681 O705 2.424 1_554 S
Nd681 O706 2.500 . S
Nd681 O707 2.492 . S
Nd681 O708 2.487 . S
Nd681 O709 2.682 1_554 S
Nd681 O710 2.410 . S
C682 Nd680 2.836 . S
C682 C683 1.498 . S
C682 O700 1.258 . S
C682 O701 1.239 . S
C683 C682 1.498 . S
C683 C684 1.366 . S
C683 C688 1.407 . S
C684 C683 1.366 . S
C684 C685 1.392 . S
C684 H712 0.930 . S
C685 C684 1.392 . S
C685 C686 1.398 . S
C685 H713 0.929 . S
C686 C685 1.398 . S
C686 C687 1.352 . S
C687 C686 1.352 . S
C687 C688 1.384 . S
C687 H714 0.930 . S
C688 C683 1.407 . S
C688 C687 1.384 . S
C688 H715 0.929 . S
C689 O702 1.241 1_554 S
C689 O703 1.273 . S
C690 O704 1.251 . S
C690 O705 1.268 . S
C691 Nd681 2.836 . S
C691 C692 1.498 . S
C691 O706 1.258 . S
C691 O707 1.239 . S
C692 C691 1.498 . S
C692 C693 1.366 . S
C692 C697 1.407 . S
C693 C692 1.366 . S
C693 C694 1.392 . S
C693 H716 0.930 . S
C694 C693 1.392 . S
C694 C695 1.398 . S
C694 H717 0.929 . S
C695 C694 1.398 . S
C695 C696 1.352 . S
C696 C695 1.352 . S
C696 C697 1.384 . S
C696 H718 0.930 . S
C697 C692 1.407 . S
C697 C696 1.384 . S
C697 H719 0.929 . S
C698 O708 1.241 1_556 S
C698 O709 1.273 . S
C699 O710 1.251 . S
C699 O711 1.268 . S
O700 Nd680 2.500 . S
O700 C682 1.258 . S
O701 Nd680 2.492 . S
O701 C682 1.239 . S
O702 Nd680 2.487 . S
O702 C689 1.241 1_556 S
O703 Nd680 2.682 1_554 S
O703 Nd681 2.414 . S
O703 C689 1.273 . S
O704 Nd680 2.410 . S
O704 C690 1.251 . S
O705 Nd681 2.424 1_556 S
O705 C690 1.268 . S
O706 Nd681 2.500 . S
O706 C691 1.258 . S
O707 Nd681 2.492 . S
O707 C691 1.239 . S
O708 Nd681 2.487 . S
O708 C698 1.241 1_554 S
O709 Nd680 2.414 . S
O709 Nd681 2.682 1_556 S
O709 C698 1.273 . S
O710 Nd681 2.410 . S
O710 C699 1.251 . S
O711 Nd680 2.424 1_554 S
O711 C699 1.268 . S
H712 C684 0.930 . S
H713 C685 0.929 . S
H714 C687 0.930 . S
H715 C688 0.929 . S
H716 C693 0.930 . S
H717 C694 0.929 . S
H718 C696 0.930 . S
H719 C697 0.929 . S
Nd720 C722 2.836 . S
Nd720 O740 2.500 . S
Nd720 O741 2.492 . S
Nd720 O742 2.487 . S
Nd720 O743 2.682 . S
Nd720 O744 2.410 . S
Nd720 O749 2.414 . S
Nd720 O751 2.424 . S
Nd721 C731 2.836 . S
Nd721 O743 2.414 . S
Nd721 O745 2.424 . S
Nd721 O746 2.500 . S
Nd721 O747 2.492 . S
Nd721 O748 2.487 . S
Nd721 O749 2.682 . S
Nd721 O750 2.410 . S
C722 Nd720 2.836 . S
C722 C723 1.498 . S
C722 O740 1.258 . S
C722 O741 1.239 . S
C723 C722 1.498 . S
C723 C724 1.366 . S
C723 C728 1.407 . S
C724 C723 1.366 . S
C724 C725 1.392 . S
C724 H752 0.930 . S
C725 C724 1.392 . S
C725 C726 1.398 . S
C725 H753 0.929 . S
C726 C725 1.398 . S
C726 C727 1.352 . S
C727 C726 1.352 . S
C727 C728 1.384 . S
C727 H754 0.930 . S
C728 C723 1.407 . S
C728 C727 1.384 . S
C728 H755 0.929 . S
C729 O742 1.241 . S
C729 O743 1.273 . S
C730 O744 1.251 . S
C730 O745 1.268 . S
C731 Nd721 2.836 . S
C731 C732 1.498 . S
C731 O746 1.258 . S
C731 O747 1.239 . S
C732 C731 1.498 . S
C732 C733 1.366 . S
C732 C737 1.407 . S
C733 C732 1.366 . S
C733 C734 1.392 . S
C733 H756 0.930 . S
C734 C733 1.392 . S
C734 C735 1.398 . S
C734 H757 0.929 . S
C735 C734 1.398 . S
C735 C736 1.352 . S
C736 C735 1.352 . S
C736 C737 1.384 . S
C736 H758 0.930 . S
C737 C732 1.407 . S
C737 C736 1.384 . S
C737 H759 0.929 . S
C738 O748 1.241 . S
C738 O749 1.273 . S
C739 O750 1.251 . S
C739 O751 1.268 . S
O740 Nd720 2.500 . S
O740 C722 1.258 . S
O741 Nd720 2.492 . S
O741 C722 1.239 . S
O742 Nd720 2.487 . S
O742 C729 1.241 . S
O743 Nd720 2.682 . S
O743 Nd721 2.414 . S
O743 C729 1.273 . S
O744 Nd720 2.410 . S
O744 C730 1.251 . S
O745 Nd721 2.424 . S
O745 C730 1.268 . S
O746 Nd721 2.500 . S
O746 C731 1.258 . S
O747 Nd721 2.492 . S
O747 C731 1.239 . S
O748 Nd721 2.487 . S
O748 C738 1.241 . S
O749 Nd720 2.414 . S
O749 Nd721 2.682 . S
O749 C738 1.273 . S
O750 Nd721 2.410 . S
O750 C739 1.251 . S
O751 Nd720 2.424 . S
O751 C739 1.268 . S
H752 C724 0.930 . S
H753 C725 0.929 . S
H754 C727 0.930 . S
H755 C728 0.929 . S
H756 C733 0.930 . S
H757 C734 0.929 . S
H758 C736 0.930 . S
H759 C737 0.929 . S
Nd760 C762 2.836 . S
Nd760 O780 2.500 . S
Nd760 O781 2.492 . S
Nd760 O782 2.487 . S
Nd760 O783 2.682 . S
Nd760 O784 2.410 . S
Nd760 O789 2.414 . S
Nd760 O791 2.424 . S
Nd761 C771 2.836 . S
Nd761 O783 2.414 . S
Nd761 O785 2.424 . S
Nd761 O786 2.500 . S
Nd761 O787 2.492 . S
Nd761 O788 2.487 . S
Nd761 O789 2.682 . S
Nd761 O790 2.410 . S
C762 Nd760 2.836 . S
C762 C763 1.498 . S
C762 O780 1.258 . S
C762 O781 1.239 . S
C763 C762 1.498 . S
C763 C764 1.366 . S
C763 C768 1.407 . S
C764 C763 1.366 . S
C764 C765 1.392 . S
C764 H792 0.930 . S
C765 C764 1.392 . S
C765 C766 1.398 . S
C765 H793 0.929 . S
C766 C765 1.398 . S
C766 C767 1.352 . S
C767 C766 1.352 . S
C767 C768 1.384 . S
C767 H794 0.930 . S
C768 C763 1.407 . S
C768 C767 1.384 . S
C768 H795 0.929 . S
C769 O782 1.241 . S
C769 O783 1.273 . S
C770 O784 1.251 . S
C770 O785 1.268 . S
C771 Nd761 2.836 . S
C771 C772 1.498 . S
C771 O786 1.258 . S
C771 O787 1.239 . S
C772 C771 1.498 . S
C772 C773 1.366 . S
C772 C777 1.407 . S
C773 C772 1.366 . S
C773 C774 1.392 . S
C773 H796 0.930 . S
C774 C773 1.392 . S
C774 C775 1.398 . S
C774 H797 0.929 . S
C775 C774 1.398 . S
C775 C776 1.352 . S
C776 C775 1.352 . S
C776 C777 1.384 . S
C776 H798 0.930 . S
C777 C772 1.407 . S
C777 C776 1.384 . S
C777 H799 0.929 . S
C778 O788 1.241 . S
C778 O789 1.273 . S
C779 O790 1.251 . S
C779 O791 1.268 . S
O780 Nd760 2.500 . S
O780 C762 1.258 . S
O781 Nd760 2.492 . S
O781 C762 1.239 . S
O782 Nd760 2.487 . S
O782 C769 1.241 . S
O783 Nd760 2.682 . S
O783 Nd761 2.414 . S
O783 C769 1.273 . S
O784 Nd760 2.410 . S
O784 C770 1.251 . S
O785 Nd761 2.424 . S
O785 C770 1.268 . S
O786 Nd761 2.500 . S
O786 C771 1.258 . S
O787 Nd761 2.492 . S
O787 C771 1.239 . S
O788 Nd761 2.487 . S
O788 C778 1.241 . S
O789 Nd760 2.414 . S
O789 Nd761 2.682 . S
O789 C778 1.273 . S
O790 Nd761 2.410 . S
O790 C779 1.251 . S
O791 Nd760 2.424 . S
O791 C779 1.268 . S
H792 C764 0.930 . S
H793 C765 0.929 . S
H794 C767 0.930 . S
H795 C768 0.929 . S
H796 C773 0.930 . S
H797 C774 0.929 . S
H798 C776 0.930 . S
H799 C777 0.929 . S
Nd800 C802 2.836 . S
Nd800 O820 2.500 . S
Nd800 O821 2.492 . S
Nd800 O822 2.487 . S
Nd800 O823 2.682 . S
Nd800 O824 2.410 . S
Nd800 O829 2.414 . S
Nd800 O831 2.424 . S
Nd801 C811 2.836 . S
Nd801 O823 2.414 . S
Nd801 O825 2.424 . S
Nd801 O826 2.500 . S
Nd801 O827 2.492 . S
Nd801 O828 2.487 . S
Nd801 O829 2.682 . S
Nd801 O830 2.410 . S
C802 Nd800 2.836 . S
C802 C803 1.498 . S
C802 O820 1.258 . S
C802 O821 1.239 . S
C803 C802 1.498 . S
C803 C804 1.366 . S
C803 C808 1.407 . S
C804 C803 1.366 . S
C804 C805 1.392 . S
C804 H832 0.930 . S
C805 C804 1.392 . S
C805 C806 1.398 . S
C805 H833 0.929 . S
C806 C805 1.398 . S
C806 C807 1.352 . S
C807 C806 1.352 . S
C807 C808 1.384 . S
C807 H834 0.930 . S
C808 C803 1.407 . S
C808 C807 1.384 . S
C808 H835 0.929 . S
C809 O822 1.241 . S
C809 O823 1.273 . S
C810 O824 1.251 . S
C810 O825 1.268 . S
C811 Nd801 2.836 . S
C811 C812 1.498 . S
C811 O826 1.258 . S
C811 O827 1.239 . S
C812 C811 1.498 . S
C812 C813 1.366 . S
C812 C817 1.407 . S
C813 C812 1.366 . S
C813 C814 1.392 . S
C813 H836 0.930 . S
C814 C813 1.392 . S
C814 C815 1.398 . S
C814 H837 0.929 . S
C815 C814 1.398 . S
C815 C816 1.352 . S
C816 C815 1.352 . S
C816 C817 1.384 . S
C816 H838 0.930 . S
C817 C812 1.407 . S
C817 C816 1.384 . S
C817 H839 0.929 . S
C818 O828 1.241 . S
C818 O829 1.273 . S
C819 O830 1.251 . S
C819 O831 1.268 . S
O820 Nd800 2.500 . S
O820 C802 1.258 . S
O821 Nd800 2.492 . S
O821 C802 1.239 . S
O822 Nd800 2.487 . S
O822 C809 1.241 . S
O823 Nd800 2.682 . S
O823 Nd801 2.414 . S
O823 C809 1.273 . S
O824 Nd800 2.410 . S
O824 C810 1.251 . S
O825 Nd801 2.424 . S
O825 C810 1.268 . S
O826 Nd801 2.500 . S
O826 C811 1.258 . S
O827 Nd801 2.492 . S
O827 C811 1.239 . S
O828 Nd801 2.487 . S
O828 C818 1.241 . S
O829 Nd800 2.414 . S
O829 Nd801 2.682 . S
O829 C818 1.273 . S
O830 Nd801 2.410 . S
O830 C819 1.251 . S
O831 Nd800 2.424 . S
O831 C819 1.268 . S
H832 C804 0.930 . S
H833 C805 0.929 . S
H834 C807 0.930 . S
H835 C808 0.929 . S
H836 C813 0.930 . S
H837 C814 0.929 . S
H838 C816 0.930 . S
H839 C817 0.929 . S
Nd840 C842 2.836 . S
Nd840 O860 2.500 . S
Nd840 O861 2.492 . S
Nd840 O862 2.487 . S
Nd840 O863 2.682 . S
Nd840 O864 2.410 . S
Nd840 O869 2.414 . S
Nd840 O871 2.424 . S
Nd841 C851 2.836 . S
Nd841 O863 2.414 . S
Nd841 O865 2.424 . S
Nd841 O866 2.500 . S
Nd841 O867 2.492 . S
Nd841 O868 2.487 . S
Nd841 O869 2.682 . S
Nd841 O870 2.410 . S
C842 Nd840 2.836 . S
C842 C843 1.498 . S
C842 O860 1.258 . S
C842 O861 1.239 . S
C843 C842 1.498 . S
C843 C844 1.366 . S
C843 C848 1.407 . S
C844 C843 1.366 . S
C844 C845 1.392 . S
C844 H872 0.930 . S
C845 C844 1.392 . S
C845 C846 1.398 . S
C845 H873 0.929 . S
C846 C845 1.398 . S
C846 C847 1.352 . S
C847 C846 1.352 . S
C847 C848 1.384 . S
C847 H874 0.930 . S
C848 C843 1.407 . S
C848 C847 1.384 . S
C848 H875 0.929 . S
C849 O862 1.241 . S
C849 O863 1.273 . S
C850 O864 1.251 . S
C850 O865 1.268 . S
C851 Nd841 2.836 . S
C851 C852 1.498 . S
C851 O866 1.258 . S
C851 O867 1.239 . S
C852 C851 1.498 . S
C852 C853 1.366 1_556 S
C852 C857 1.407 1_556 S
C853 C852 1.366 1_554 S
C853 C854 1.392 . S
C853 H876 0.930 . S
C854 C853 1.392 . S
C854 C855 1.398 . S
C854 H877 0.929 . S
C855 C854 1.398 . S
C855 C856 1.352 . S
C856 C855 1.352 . S
C856 C857 1.384 . S
C856 H878 0.930 . S
C857 C852 1.407 1_554 S
C857 C856 1.384 . S
C857 H879 0.929 1_554 S
C858 O868 1.241 . S
C858 O869 1.273 . S
C859 O870 1.251 . S
C859 O871 1.268 . S
O860 Nd840 2.500 . S
O860 C842 1.258 . S
O861 Nd840 2.492 . S
O861 C842 1.239 . S
O862 Nd840 2.487 . S
O862 C849 1.241 . S
O863 Nd840 2.682 . S
O863 Nd841 2.414 . S
O863 C849 1.273 . S
O864 Nd840 2.410 . S
O864 C850 1.251 . S
O865 Nd841 2.424 . S
O865 C850 1.268 . S
O866 Nd841 2.500 . S
O866 C851 1.258 . S
O867 Nd841 2.492 . S
O867 C851 1.239 . S
O868 Nd841 2.487 . S
O868 C858 1.241 . S
O869 Nd840 2.414 . S
O869 Nd841 2.682 . S
O869 C858 1.273 . S
O870 Nd841 2.410 . S
O870 C859 1.251 . S
O871 Nd840 2.424 . S
O871 C859 1.268 . S
H872 C844 0.930 . S
H873 C845 0.929 . S
H874 C847 0.930 . S
H875 C848 0.929 . S
H876 C853 0.930 . S
H877 C854 0.929 . S
H878 C856 0.930 . S
H879 C857 0.929 1_556 S
Nd880 C882 2.836 . S
Nd880 O900 2.500 . S
Nd880 O901 2.492 . S
Nd880 O902 2.487 . S
Nd880 O903 2.682 . S
Nd880 O904 2.410 . S
Nd880 O909 2.414 . S
Nd880 O911 2.424 . S
Nd881 C891 2.836 . S
Nd881 O903 2.414 . S
Nd881 O905 2.424 . S
Nd881 O906 2.500 . S
Nd881 O907 2.492 . S
Nd881 O908 2.487 . S
Nd881 O909 2.682 . S
Nd881 O910 2.410 . S
C882 Nd880 2.836 . S
C882 C883 1.498 . S
C882 O900 1.258 . S
C882 O901 1.239 . S
C883 C882 1.498 . S
C883 C884 1.366 . S
C883 C888 1.407 . S
C884 C883 1.366 . S
C884 C885 1.392 . S
C884 H912 0.930 . S
C885 C884 1.392 . S
C885 C886 1.398 . S
C885 H913 0.929 . S
C886 C885 1.398 . S
C886 C887 1.352 . S
C887 C886 1.352 . S
C887 C888 1.384 . S
C887 H914 0.930 . S
C888 C883 1.407 . S
C888 C887 1.384 . S
C888 H915 0.929 . S
C889 O902 1.241 . S
C889 O903 1.273 . S
C890 O904 1.251 . S
C890 O905 1.268 . S
C891 Nd881 2.836 . S
C891 C892 1.498 . S
C891 O906 1.258 . S
C891 O907 1.239 . S
C892 C891 1.498 . S
C892 C893 1.366 1_556 S
C892 C897 1.407 1_556 S
C893 C892 1.366 1_554 S
C893 C894 1.392 . S
C893 H916 0.930 . S
C894 C893 1.392 . S
C894 C895 1.398 . S
C894 H917 0.929 . S
C895 C894 1.398 . S
C895 C896 1.352 . S
C896 C895 1.352 . S
C896 C897 1.384 . S
C896 H918 0.930 . S
C897 C892 1.407 1_554 S
C897 C896 1.384 . S
C897 H919 0.929 1_554 S
C898 O908 1.241 . S
C898 O909 1.273 . S
C899 O910 1.251 . S
C899 O911 1.268 . S
O900 Nd880 2.500 . S
O900 C882 1.258 . S
O901 Nd880 2.492 . S
O901 C882 1.239 . S
O902 Nd880 2.487 . S
O902 C889 1.241 . S
O903 Nd880 2.682 . S
O903 Nd881 2.414 . S
O903 C889 1.273 . S
O904 Nd880 2.410 . S
O904 C890 1.251 . S
O905 Nd881 2.424 . S
O905 C890 1.268 . S
O906 Nd881 2.500 . S
O906 C891 1.258 . S
O907 Nd881 2.492 . S
O907 C891 1.239 . S
O908 Nd881 2.487 . S
O908 C898 1.241 . S
O909 Nd880 2.414 . S
O909 Nd881 2.682 . S
O909 C898 1.273 . S
O910 Nd881 2.410 . S
O910 C899 1.251 . S
O911 Nd880 2.424 . S
O911 C899 1.268 . S
H912 C884 0.930 . S
H913 C885 0.929 . S
H914 C887 0.930 . S
H915 C888 0.929 . S
H916 C893 0.930 . S
H917 C894 0.929 . S
H918 C896 0.930 . S
H919 C897 0.929 1_556 S
Nd920 C922 2.836 . S
Nd920 O940 2.500 . S
Nd920 O941 2.492 . S
Nd920 O942 2.487 . S
Nd920 O943 2.682 . S
Nd920 O944 2.410 . S
Nd920 O949 2.414 . S
Nd920 O951 2.424 . S
Nd921 C931 2.836 . S
Nd921 O943 2.414 . S
Nd921 O945 2.424 . S
Nd921 O946 2.500 . S
Nd921 O947 2.492 . S
Nd921 O948 2.487 . S
Nd921 O949 2.682 . S
Nd921 O950 2.410 . S
C922 Nd920 2.836 . S
C922 C923 1.498 . S
C922 O940 1.258 . S
C922 O941 1.239 . S
C923 C922 1.498 . S
C923 C924 1.366 . S
C923 C928 1.407 . S
C924 C923 1.366 . S
C924 C925 1.392 . S
C924 H952 0.930 . S
C925 C924 1.392 . S
C925 C926 1.398 . S
C925 H953 0.929 . S
C926 C925 1.398 . S
C926 C927 1.352 . S
C927 C926 1.352 . S
C927 C928 1.384 . S
C927 H954 0.930 . S
C928 C923 1.407 . S
C928 C927 1.384 . S
C928 H955 0.929 . S
C929 O942 1.241 . S
C929 O943 1.273 . S
C930 O944 1.251 . S
C930 O945 1.268 . S
C931 Nd921 2.836 . S
C931 C932 1.498 . S
C931 O946 1.258 . S
C931 O947 1.239 . S
C932 C931 1.498 . S
C932 C933 1.366 1_556 S
C932 C937 1.407 1_556 S
C933 C932 1.366 1_554 S
C933 C934 1.392 . S
C933 H956 0.930 . S
C934 C933 1.392 . S
C934 C935 1.398 . S
C934 H957 0.929 . S
C935 C934 1.398 . S
C935 C936 1.352 . S
C936 C935 1.352 . S
C936 C937 1.384 . S
C936 H958 0.930 . S
C937 C932 1.407 1_554 S
C937 C936 1.384 . S
C937 H959 0.929 1_554 S
C938 O948 1.241 . S
C938 O949 1.273 . S
C939 O950 1.251 . S
C939 O951 1.268 . S
O940 Nd920 2.500 . S
O940 C922 1.258 . S
O941 Nd920 2.492 . S
O941 C922 1.239 . S
O942 Nd920 2.487 . S
O942 C929 1.241 . S
O943 Nd920 2.682 . S
O943 Nd921 2.414 . S
O943 C929 1.273 . S
O944 Nd920 2.410 . S
O944 C930 1.251 . S
O945 Nd921 2.424 . S
O945 C930 1.268 . S
O946 Nd921 2.500 . S
O946 C931 1.258 . S
O947 Nd921 2.492 . S
O947 C931 1.239 . S
O948 Nd921 2.487 . S
O948 C938 1.241 . S
O949 Nd920 2.414 . S
O949 Nd921 2.682 . S
O949 C938 1.273 . S
O950 Nd921 2.410 . S
O950 C939 1.251 . S
O951 Nd920 2.424 . S
O951 C939 1.268 . S
H952 C924 0.930 . S
H953 C925 0.929 . S
H954 C927 0.930 . S
H955 C928 0.929 . S
H956 C933 0.930 . S
H957 C934 0.929 . S
H958 C936 0.930 . S
H959 C937 0.929 1_556 S
Nd960 C962 2.836 . S
Nd960 O980 2.500 . S
Nd960 O981 2.492 . S
Nd960 O982 2.487 . S
Nd960 O983 2.682 . S
Nd960 O984 2.410 . S
Nd960 O989 2.414 . S
Nd960 O991 2.424 . S
Nd961 C971 2.836 . S
Nd961 O983 2.414 . S
Nd961 O985 2.424 . S
Nd961 O986 2.500 . S
Nd961 O987 2.492 . S
Nd961 O988 2.487 . S
Nd961 O989 2.682 . S
Nd961 O990 2.410 . S
C962 Nd960 2.836 . S
C962 C963 1.498 . S
C962 O980 1.258 . S
C962 O981 1.239 . S
C963 C962 1.498 . S
C963 C964 1.366 . S
C963 C968 1.407 . S
C964 C963 1.366 . S
C964 C965 1.392 . S
C964 H992 0.930 . S
C965 C964 1.392 . S
C965 C966 1.398 . S
C965 H993 0.929 . S
C966 C965 1.398 . S
C966 C967 1.352 . S
C967 C966 1.352 . S
C967 C968 1.384 . S
C967 H994 0.930 . S
C968 C963 1.407 . S
C968 C967 1.384 . S
C968 H995 0.929 . S
C969 O982 1.241 . S
C969 O983 1.273 . S
C970 O984 1.251 . S
C970 O985 1.268 . S
C971 Nd961 2.836 . S
C971 C972 1.498 . S
C971 O986 1.258 . S
C971 O987 1.239 . S
C972 C971 1.498 . S
C972 C973 1.366 . S
C972 C977 1.407 . S
C973 C972 1.366 . S
C973 C974 1.392 . S
C973 H996 0.930 . S
C974 C973 1.392 . S
C974 C975 1.398 . S
C974 H997 0.929 . S
C975 C974 1.398 . S
C975 C976 1.352 . S
C976 C975 1.352 . S
C976 C977 1.384 . S
C976 H998 0.930 . S
C977 C972 1.407 . S
C977 C976 1.384 . S
C977 H999 0.929 . S
C978 O988 1.241 . S
C978 O989 1.273 . S
C979 O990 1.251 . S
C979 O991 1.268 . S
O980 Nd960 2.500 . S
O980 C962 1.258 . S
O981 Nd960 2.492 . S
O981 C962 1.239 . S
O982 Nd960 2.487 . S
O982 C969 1.241 . S
O983 Nd960 2.682 . S
O983 Nd961 2.414 . S
O983 C969 1.273 . S
O984 Nd960 2.410 . S
O984 C970 1.251 . S
O985 Nd961 2.424 . S
O985 C970 1.268 . S
O986 Nd961 2.500 . S
O986 C971 1.258 . S
O987 Nd961 2.492 . S
O987 C971 1.239 . S
O988 Nd961 2.487 . S
O988 C978 1.241 . S
O989 Nd960 2.414 . S
O989 Nd961 2.682 . S
O989 C978 1.273 . S
O990 Nd961 2.410 . S
O990 C979 1.251 . S
O991 Nd960 2.424 . S
O991 C979 1.268 . S
H992 C964 0.930 . S
H993 C965 0.929 . S
H994 C967 0.930 . S
H995 C968 0.929 . S
H996 C973 0.930 . S
H997 C974 0.929 . S
H998 C976 0.930 . S
H999 C977 0.929 . S
Nd1000 C1002 2.836 . S
Nd1000 O1020 2.500 . S
Nd1000 O1021 2.492 . S
Nd1000 O1022 2.487 . S
Nd1000 O1023 2.682 . S
Nd1000 O1024 2.410 . S
Nd1000 O1029 2.414 . S
Nd1000 O1031 2.424 . S
Nd1001 C1011 2.836 . S
Nd1001 O1023 2.414 . S
Nd1001 O1025 2.424 . S
Nd1001 O1026 2.500 . S
Nd1001 O1027 2.492 . S
Nd1001 O1028 2.487 . S
Nd1001 O1029 2.682 . S
Nd1001 O1030 2.410 . S
C1002 Nd1000 2.836 . S
C1002 C1003 1.498 . S
C1002 O1020 1.258 . S
C1002 O1021 1.239 . S
C1003 C1002 1.498 . S
C1003 C1004 1.366 . S
C1003 C1008 1.407 . S
C1004 C1003 1.366 . S
C1004 C1005 1.392 . S
C1004 H1032 0.930 . S
C1005 C1004 1.392 . S
C1005 C1006 1.398 . S
C1005 H1033 0.929 . S
C1006 C1005 1.398 . S
C1006 C1007 1.352 . S
C1007 C1006 1.352 . S
C1007 C1008 1.384 . S
C1007 H1034 0.930 . S
C1008 C1003 1.407 . S
C1008 C1007 1.384 . S
C1008 H1035 0.929 . S
C1009 O1022 1.241 . S
C1009 O1023 1.273 . S
C1010 O1024 1.251 . S
C1010 O1025 1.268 . S
C1011 Nd1001 2.836 . S
C1011 C1012 1.498 . S
C1011 O1026 1.258 . S
C1011 O1027 1.239 . S
C1012 C1011 1.498 . S
C1012 C1013 1.366 . S
C1012 C1017 1.407 . S
C1013 C1012 1.366 . S
C1013 C1014 1.392 . S
C1013 H1036 0.930 . S
C1014 C1013 1.392 . S
C1014 C1015 1.398 . S
C1014 H1037 0.929 . S
C1015 C1014 1.398 . S
C1015 C1016 1.352 . S
C1016 C1015 1.352 . S
C1016 C1017 1.384 . S
C1016 H1038 0.930 . S
C1017 C1012 1.407 . S
C1017 C1016 1.384 . S
C1017 H1039 0.929 . S
C1018 O1028 1.241 . S
C1018 O1029 1.273 . S
C1019 O1030 1.251 . S
C1019 O1031 1.268 . S
O1020 Nd1000 2.500 . S
O1020 C1002 1.258 . S
O1021 Nd1000 2.492 . S
O1021 C1002 1.239 . S
O1022 Nd1000 2.487 . S
O1022 C1009 1.241 . S
O1023 Nd1000 2.682 . S
O1023 Nd1001 2.414 . S
O1023 C1009 1.273 . S
O1024 Nd1000 2.410 . S
O1024 C1010 1.251 . S
O1025 Nd1001 2.424 . S
O1025 C1010 1.268 . S
O1026 Nd1001 2.500 . S
O1026 C1011 1.258 . S
O1027 Nd1001 2.492 . S
O1027 C1011 1.239 . S
O1028 Nd1001 2.487 . S
O1028 C1018 1.241 . S
O1029 Nd1000 2.414 . S
O1029 Nd1001 2.682 . S
O1029 C1018 1.273 . S
O1030 Nd1001 2.410 . S
O1030 C1019 1.251 . S
O1031 Nd1000 2.424 . S
O1031 C1019 1.268 . S
H1032 C1004 0.930 . S
H1033 C1005 0.929 . S
H1034 C1007 0.930 . S
H1035 C1008 0.929 . S
H1036 C1013 0.930 . S
H1037 C1014 0.929 . S
H1038 C1016 0.930 . S
H1039 C1017 0.929 . S
Nd1040 C1042 2.836 . S
Nd1040 O1060 2.500 . S
Nd1040 O1061 2.492 . S
Nd1040 O1062 2.487 . S
Nd1040 O1063 2.682 . S
Nd1040 O1064 2.410 . S
Nd1040 O1069 2.414 . S
Nd1040 O1071 2.424 . S
Nd1041 C1051 2.836 . S
Nd1041 O1063 2.414 . S
Nd1041 O1065 2.424 . S
Nd1041 O1066 2.500 . S
Nd1041 O1067 2.492 . S
Nd1041 O1068 2.487 . S
Nd1041 O1069 2.682 . S
Nd1041 O1070 2.410 . S
C1042 Nd1040 2.836 . S
C1042 C1043 1.498 . S
C1042 O1060 1.258 . S
C1042 O1061 1.239 . S
C1043 C1042 1.498 . S
C1043 C1044 1.366 . S
C1043 C1048 1.407 . S
C1044 C1043 1.366 . S
C1044 C1045 1.392 . S
C1044 H1072 0.930 . S
C1045 C1044 1.392 . S
C1045 C1046 1.398 . S
C1045 H1073 0.929 . S
C1046 C1045 1.398 . S
C1046 C1047 1.352 . S
C1047 C1046 1.352 . S
C1047 C1048 1.384 . S
C1047 H1074 0.930 . S
C1048 C1043 1.407 . S
C1048 C1047 1.384 . S
C1048 H1075 0.929 . S
C1049 O1062 1.241 . S
C1049 O1063 1.273 . S
C1050 O1064 1.251 . S
C1050 O1065 1.268 . S
C1051 Nd1041 2.836 . S
C1051 C1052 1.498 . S
C1051 O1066 1.258 . S
C1051 O1067 1.239 . S
C1052 C1051 1.498 . S
C1052 C1053 1.366 . S
C1052 C1057 1.407 . S
C1053 C1052 1.366 . S
C1053 C1054 1.392 . S
C1053 H1076 0.930 . S
C1054 C1053 1.392 . S
C1054 C1055 1.398 . S
C1054 H1077 0.929 . S
C1055 C1054 1.398 . S
C1055 C1056 1.352 . S
C1056 C1055 1.352 . S
C1056 C1057 1.384 . S
C1056 H1078 0.930 . S
C1057 C1052 1.407 . S
C1057 C1056 1.384 . S
C1057 H1079 0.929 . S
C1058 O1068 1.241 . S
C1058 O1069 1.273 . S
C1059 O1070 1.251 . S
C1059 O1071 1.268 . S
O1060 Nd1040 2.500 . S
O1060 C1042 1.258 . S
O1061 Nd1040 2.492 . S
O1061 C1042 1.239 . S
O1062 Nd1040 2.487 . S
O1062 C1049 1.241 . S
O1063 Nd1040 2.682 . S
O1063 Nd1041 2.414 . S
O1063 C1049 1.273 . S
O1064 Nd1040 2.410 . S
O1064 C1050 1.251 . S
O1065 Nd1041 2.424 . S
O1065 C1050 1.268 . S
O1066 Nd1041 2.500 . S
O1066 C1051 1.258 . S
O1067 Nd1041 2.492 . S
O1067 C1051 1.239 . S
O1068 Nd1041 2.487 . S
O1068 C1058 1.241 . S
O1069 Nd1040 2.414 . S
O1069 Nd1041 2.682 . S
O1069 C1058 1.273 . S
O1070 Nd1041 2.410 . S
O1070 C1059 1.251 . S
O1071 Nd1040 2.424 . S
O1071 C1059 1.268 . S
H1072 C1044 0.930 . S
H1073 C1045 0.929 . S
H1074 C1047 0.930 . S
H1075 C1048 0.929 . S
H1076 C1053 0.930 . S
H1077 C1054 0.929 . S
H1078 C1056 0.930 . S
H1079 C1057 0.929 . S
Nd1080 C1082 2.836 . S
Nd1080 O1100 2.500 . S
Nd1080 O1101 2.492 . S
Nd1080 O1102 2.487 . S
Nd1080 O1103 2.682 . S
Nd1080 O1104 2.410 . S
Nd1080 O1109 2.414 . S
Nd1080 O1111 2.424 . S
Nd1081 C1091 2.836 . S
Nd1081 O1103 2.414 . S
Nd1081 O1105 2.424 . S
Nd1081 O1106 2.500 . S
Nd1081 O1107 2.492 . S
Nd1081 O1108 2.487 . S
Nd1081 O1109 2.682 . S
Nd1081 O1110 2.410 . S
C1082 Nd1080 2.836 . S
C1082 C1083 1.498 . S
C1082 O1100 1.258 . S
C1082 O1101 1.239 . S
C1083 C1082 1.498 . S
C1083 C1084 1.366 . S
C1083 C1088 1.407 . S
C1084 C1083 1.366 . S
C1084 C1085 1.392 . S
C1084 H1112 0.930 . S
C1085 C1084 1.392 . S
C1085 C1086 1.398 . S
C1085 H1113 0.929 . S
C1086 C1085 1.398 . S
C1086 C1087 1.352 . S
C1087 C1086 1.352 . S
C1087 C1088 1.384 . S
C1087 H1114 0.930 . S
C1088 C1083 1.407 . S
C1088 C1087 1.384 . S
C1088 H1115 0.929 . S
C1089 O1102 1.241 . S
C1089 O1103 1.273 . S
C1090 O1104 1.251 . S
C1090 O1105 1.268 . S
C1091 Nd1081 2.836 . S
C1091 C1092 1.498 . S
C1091 O1106 1.258 . S
C1091 O1107 1.239 . S
C1092 C1091 1.498 . S
C1092 C1093 1.366 . S
C1092 C1097 1.407 . S
C1093 C1092 1.366 . S
C1093 C1094 1.392 . S
C1093 H1116 0.930 . S
C1094 C1093 1.392 . S
C1094 C1095 1.398 . S
C1094 H1117 0.929 . S
C1095 C1094 1.398 . S
C1095 C1096 1.352 . S
C1096 C1095 1.352 . S
C1096 C1097 1.384 . S
C1096 H1118 0.930 . S
C1097 C1092 1.407 . S
C1097 C1096 1.384 . S
C1097 H1119 0.929 . S
C1098 O1108 1.241 . S
C1098 O1109 1.273 . S
C1099 O1110 1.251 . S
C1099 O1111 1.268 . S
O1100 Nd1080 2.500 . S
O1100 C1082 1.258 . S
O1101 Nd1080 2.492 . S
O1101 C1082 1.239 . S
O1102 Nd1080 2.487 . S
O1102 C1089 1.241 . S
O1103 Nd1080 2.682 . S
O1103 Nd1081 2.414 . S
O1103 C1089 1.273 . S
O1104 Nd1080 2.410 . S
O1104 C1090 1.251 . S
O1105 Nd1081 2.424 . S
O1105 C1090 1.268 . S
O1106 Nd1081 2.500 . S
O1106 C1091 1.258 . S
O1107 Nd1081 2.492 . S
O1107 C1091 1.239 . S
O1108 Nd1081 2.487 . S
O1108 C1098 1.241 . S
O1109 Nd1080 2.414 . S
O1109 Nd1081 2.682 . S
O1109 C1098 1.273 . S
O1110 Nd1081 2.410 . S
O1110 C1099 1.251 . S
O1111 Nd1080 2.424 . S
O1111 C1099 1.268 . S
H1112 C1084 0.930 . S
H1113 C1085 0.929 . S
H1114 C1087 0.930 . S
H1115 C1088 0.929 . S
H1116 C1093 0.930 . S
H1117 C1094 0.929 . S
H1118 C1096 0.930 . S
H1119 C1097 0.929 . S
Nd1120 C1122 2.836 . S
Nd1120 O1140 2.500 . S
Nd1120 O1141 2.492 . S
Nd1120 O1142 2.487 . S
Nd1120 O1143 2.682 . S
Nd1120 O1144 2.410 . S
Nd1120 O1149 2.414 . S
Nd1120 O1151 2.424 . S
Nd1121 C1131 2.836 . S
Nd1121 O1143 2.414 . S
Nd1121 O1145 2.424 . S
Nd1121 O1146 2.500 . S
Nd1121 O1147 2.492 . S
Nd1121 O1148 2.487 . S
Nd1121 O1149 2.682 . S
Nd1121 O1150 2.410 . S
C1122 Nd1120 2.836 . S
C1122 C1123 1.498 . S
C1122 O1140 1.258 . S
C1122 O1141 1.239 . S
C1123 C1122 1.498 . S
C1123 C1124 1.366 . S
C1123 C1128 1.407 . S
C1124 C1123 1.366 . S
C1124 C1125 1.392 . S
C1124 H1152 0.930 . S
C1125 C1124 1.392 . S
C1125 C1126 1.398 . S
C1125 H1153 0.929 . S
C1126 C1125 1.398 . S
C1126 C1127 1.352 . S
C1127 C1126 1.352 . S
C1127 C1128 1.384 . S
C1127 H1154 0.930 . S
C1128 C1123 1.407 . S
C1128 C1127 1.384 . S
C1128 H1155 0.929 . S
C1129 O1142 1.241 . S
C1129 O1143 1.273 . S
C1130 O1144 1.251 . S
C1130 O1145 1.268 . S
C1131 Nd1121 2.836 . S
C1131 C1132 1.498 . S
C1131 O1146 1.258 . S
C1131 O1147 1.239 . S
C1132 C1131 1.498 . S
C1132 C1133 1.366 . S
C1132 C1137 1.407 . S
C1133 C1132 1.366 . S
C1133 C1134 1.392 . S
C1133 H1156 0.930 . S
C1134 C1133 1.392 . S
C1134 C1135 1.398 . S
C1134 H1157 0.929 . S
C1135 C1134 1.398 . S
C1135 C1136 1.352 . S
C1136 C1135 1.352 . S
C1136 C1137 1.384 . S
C1136 H1158 0.930 . S
C1137 C1132 1.407 . S
C1137 C1136 1.384 . S
C1137 H1159 0.929 . S
C1138 O1148 1.241 . S
C1138 O1149 1.273 . S
C1139 O1150 1.251 . S
C1139 O1151 1.268 . S
O1140 Nd1120 2.500 . S
O1140 C1122 1.258 . S
O1141 Nd1120 2.492 . S
O1141 C1122 1.239 . S
O1142 Nd1120 2.487 . S
O1142 C1129 1.241 . S
O1143 Nd1120 2.682 . S
O1143 Nd1121 2.414 . S
O1143 C1129 1.273 . S
O1144 Nd1120 2.410 . S
O1144 C1130 1.251 . S
O1145 Nd1121 2.424 . S
O1145 C1130 1.268 . S
O1146 Nd1121 2.500 . S
O1146 C1131 1.258 . S
O1147 Nd1121 2.492 . S
O1147 C1131 1.239 . S
O1148 Nd1121 2.487 . S
O1148 C1138 1.241 . S
O1149 Nd1120 2.414 . S
O1149 Nd1121 2.682 . S
O1149 C1138 1.273 . S
O1150 Nd1121 2.410 . S
O1150 C1139 1.251 . S
O1151 Nd1120 2.424 . S
O1151 C1139 1.268 . S
H1152 C1124 0.930 . S
H1153 C1125 0.929 . S
H1154 C1127 0.930 . S
H1155 C1128 0.929 . S
H1156 C1133 0.930 . S
H1157 C1134 0.929 . S
H1158 C1136 0.930 . S
H1159 C1137 0.929 . S
Nd1160 C1162 2.836 . S
Nd1160 O1180 2.500 . S
Nd1160 O1181 2.492 . S
Nd1160 O1182 2.487 . S
Nd1160 O1183 2.682 . S
Nd1160 O1184 2.410 . S
Nd1160 O1189 2.414 . S
Nd1160 O1191 2.424 . S
Nd1161 C1171 2.836 . S
Nd1161 O1183 2.414 . S
Nd1161 O1185 2.424 . S
Nd1161 O1186 2.500 . S
Nd1161 O1187 2.492 . S
Nd1161 O1188 2.487 . S
Nd1161 O1189 2.682 . S
Nd1161 O1190 2.410 . S
C1162 Nd1160 2.836 . S
C1162 C1163 1.498 . S
C1162 O1180 1.258 . S
C1162 O1181 1.239 . S
C1163 C1162 1.498 . S
C1163 C1164 1.366 . S
C1163 C1168 1.407 . S
C1164 C1163 1.366 . S
C1164 C1165 1.392 . S
C1164 H1192 0.930 . S
C1165 C1164 1.392 . S
C1165 C1166 1.398 . S
C1165 H1193 0.929 . S
C1166 C1165 1.398 . S
C1166 C1167 1.352 . S
C1167 C1166 1.352 . S
C1167 C1168 1.384 . S
C1167 H1194 0.930 . S
C1168 C1163 1.407 . S
C1168 C1167 1.384 . S
C1168 H1195 0.929 . S
C1169 O1182 1.241 . S
C1169 O1183 1.273 . S
C1170 O1184 1.251 . S
C1170 O1185 1.268 . S
C1171 Nd1161 2.836 . S
C1171 C1172 1.498 . S
C1171 O1186 1.258 . S
C1171 O1187 1.239 . S
C1172 C1171 1.498 . S
C1172 C1173 1.366 . S
C1172 C1177 1.407 . S
C1173 C1172 1.366 . S
C1173 C1174 1.392 . S
C1173 H1196 0.930 . S
C1174 C1173 1.392 . S
C1174 C1175 1.398 . S
C1174 H1197 0.929 . S
C1175 C1174 1.398 . S
C1175 C1176 1.352 . S
C1176 C1175 1.352 . S
C1176 C1177 1.384 . S
C1176 H1198 0.930 . S
C1177 C1172 1.407 . S
C1177 C1176 1.384 . S
C1177 H1199 0.929 . S
C1178 O1188 1.241 . S
C1178 O1189 1.273 . S
C1179 O1190 1.251 . S
C1179 O1191 1.268 . S
O1180 Nd1160 2.500 . S
O1180 C1162 1.258 . S
O1181 Nd1160 2.492 . S
O1181 C1162 1.239 . S
O1182 Nd1160 2.487 . S
O1182 C1169 1.241 . S
O1183 Nd1160 2.682 . S
O1183 Nd1161 2.414 . S
O1183 C1169 1.273 . S
O1184 Nd1160 2.410 . S
O1184 C1170 1.251 . S
O1185 Nd1161 2.424 . S
O1185 C1170 1.268 . S
O1186 Nd1161 2.500 . S
O1186 C1171 1.258 . S
O1187 Nd1161 2.492 . S
O1187 C1171 1.239 . S
O1188 Nd1161 2.487 . S
O1188 C1178 1.241 . S
O1189 Nd1160 2.414 . S
O1189 Nd1161 2.682 . S
O1189 C1178 1.273 . S
O1190 Nd1161 2.410 . S
O1190 C1179 1.251 . S
O1191 Nd1160 2.424 . S
O1191 C1179 1.268 . S
H1192 C1164 0.930 . S
H1193 C1165 0.929 . S
H1194 C1167 0.930 . S
H1195 C1168 0.929 . S
H1196 C1173 0.930 . S
H1197 C1174 0.929 . S
H1198 C1176 0.930 . S
H1199 C1177 0.929 . S
Nd1200 C1202 2.836 . S
Nd1200 O1220 2.500 . S
Nd1200 O1221 2.492 . S
Nd1200 O1222 2.487 . S
Nd1200 O1223 2.682 . S
Nd1200 O1224 2.410 . S
Nd1200 O1229 2.414 . S
Nd1200 O1231 2.424 . S
Nd1201 C1211 2.836 . S
Nd1201 O1223 2.414 . S
Nd1201 O1225 2.424 . S
Nd1201 O1226 2.500 . S
Nd1201 O1227 2.492 . S
Nd1201 O1228 2.487 . S
Nd1201 O1229 2.682 . S
Nd1201 O1230 2.410 . S
C1202 Nd1200 2.836 . S
C1202 C1203 1.498 . S
C1202 O1220 1.258 . S
C1202 O1221 1.239 . S
C1203 C1202 1.498 . S
C1203 C1204 1.366 . S
C1203 C1208 1.407 . S
C1204 C1203 1.366 . S
C1204 C1205 1.392 . S
C1204 H1232 0.930 . S
C1205 C1204 1.392 . S
C1205 C1206 1.398 . S
C1205 H1233 0.924 1_556 S
C1206 C1205 1.398 . S
C1206 C1207 1.352 . S
C1207 C1206 1.352 . S
C1207 C1208 1.384 . S
C1207 H1234 0.930 . S
C1208 C1203 1.407 . S
C1208 C1207 1.384 . S
C1208 H1235 0.929 . S
C1209 O1222 1.241 . S
C1209 O1223 1.273 . S
C1210 O1224 1.251 . S
C1210 O1225 1.268 . S
C1211 Nd1201 2.836 . S
C1211 C1212 1.498 . S
C1211 O1226 1.258 . S
C1211 O1227 1.239 . S
C1212 C1211 1.498 . S
C1212 C1213 1.366 . S
C1212 C1217 1.407 . S
C1213 C1212 1.366 . S
C1213 C1214 1.392 . S
C1213 H1236 0.930 . S
C1214 C1213 1.392 . S
C1214 C1215 1.398 . S
C1214 H1237 0.929 . S
C1215 C1214 1.398 . S
C1215 C1216 1.352 . S
C1216 C1215 1.352 . S
C1216 C1217 1.384 . S
C1216 H1238 0.930 . S
C1217 C1212 1.407 . S
C1217 C1216 1.384 . S
C1217 H1239 0.929 . S
C1218 O1228 1.241 . S
C1218 O1229 1.273 . S
C1219 O1230 1.251 . S
C1219 O1231 1.268 . S
O1220 Nd1200 2.500 . S
O1220 C1202 1.258 . S
O1221 Nd1200 2.492 . S
O1221 C1202 1.239 . S
O1222 Nd1200 2.487 . S
O1222 C1209 1.241 . S
O1223 Nd1200 2.682 . S
O1223 Nd1201 2.414 . S
O1223 C1209 1.273 . S
O1224 Nd1200 2.410 . S
O1224 C1210 1.251 . S
O1225 Nd1201 2.424 . S
O1225 C1210 1.268 . S
O1226 Nd1201 2.500 . S
O1226 C1211 1.258 . S
O1227 Nd1201 2.492 . S
O1227 C1211 1.239 . S
O1228 Nd1201 2.487 . S
O1228 C1218 1.241 . S
O1229 Nd1200 2.414 . S
O1229 Nd1201 2.682 . S
O1229 C1218 1.273 . S
O1230 Nd1201 2.410 . S
O1230 C1219 1.251 . S
O1231 Nd1200 2.424 . S
O1231 C1219 1.268 . S
H1232 C1204 0.930 . S
H1233 C1205 0.924 1_554 S
H1234 C1207 0.930 . S
H1235 C1208 0.929 . S
H1236 C1213 0.930 . S
H1237 C1214 0.929 . S
H1238 C1216 0.930 . S
H1239 C1217 0.929 . S
Nd1240 C1242 2.836 . S
Nd1240 O1260 2.500 . S
Nd1240 O1261 2.492 . S
Nd1240 O1262 2.487 . S
Nd1240 O1263 2.682 . S
Nd1240 O1264 2.410 . S
Nd1240 O1269 2.414 . S
Nd1240 O1271 2.424 . S
Nd1241 C1251 2.836 . S
Nd1241 O1263 2.414 . S
Nd1241 O1265 2.424 . S
Nd1241 O1266 2.500 . S
Nd1241 O1267 2.492 . S
Nd1241 O1268 2.487 . S
Nd1241 O1269 2.682 . S
Nd1241 O1270 2.410 . S
C1242 Nd1240 2.836 . S
C1242 C1243 1.498 . S
C1242 O1260 1.258 . S
C1242 O1261 1.239 . S
C1243 C1242 1.498 . S
C1243 C1244 1.366 . S
C1243 C1248 1.407 . S
C1244 C1243 1.366 . S
C1244 C1245 1.392 . S
C1244 H1272 0.930 . S
C1245 C1244 1.392 . S
C1245 C1246 1.398 . S
C1245 H1273 0.924 1_556 S
C1246 C1245 1.398 . S
C1246 C1247 1.352 . S
C1247 C1246 1.352 . S
C1247 C1248 1.384 . S
C1247 H1274 0.930 . S
C1248 C1243 1.407 . S
C1248 C1247 1.384 . S
C1248 H1275 0.929 . S
C1249 O1262 1.241 . S
C1249 O1263 1.273 . S
C1250 O1264 1.251 . S
C1250 O1265 1.268 . S
C1251 Nd1241 2.836 . S
C1251 C1252 1.498 . S
C1251 O1266 1.258 . S
C1251 O1267 1.239 . S
C1252 C1251 1.498 . S
C1252 C1253 1.366 . S
C1252 C1257 1.407 . S
C1253 C1252 1.366 . S
C1253 C1254 1.392 . S
C1253 H1276 0.930 . S
C1254 C1253 1.392 . S
C1254 C1255 1.398 . S
C1254 H1277 0.929 . S
C1255 C1254 1.398 . S
C1255 C1256 1.352 . S
C1256 C1255 1.352 . S
C1256 C1257 1.384 . S
C1256 H1278 0.930 . S
C1257 C1252 1.407 . S
C1257 C1256 1.384 . S
C1257 H1279 0.929 . S
C1258 O1268 1.241 . S
C1258 O1269 1.273 . S
C1259 O1270 1.251 . S
C1259 O1271 1.268 . S
O1260 Nd1240 2.500 . S
O1260 C1242 1.258 . S
O1261 Nd1240 2.492 . S
O1261 C1242 1.239 . S
O1262 Nd1240 2.487 . S
O1262 C1249 1.241 . S
O1263 Nd1240 2.682 . S
O1263 Nd1241 2.414 . S
O1263 C1249 1.273 . S
O1264 Nd1240 2.410 . S
O1264 C1250 1.251 . S
O1265 Nd1241 2.424 . S
O1265 C1250 1.268 . S
O1266 Nd1241 2.500 . S
O1266 C1251 1.258 . S
O1267 Nd1241 2.492 . S
O1267 C1251 1.239 . S
O1268 Nd1241 2.487 . S
O1268 C1258 1.241 . S
O1269 Nd1240 2.414 . S
O1269 Nd1241 2.682 . S
O1269 C1258 1.273 . S
O1270 Nd1241 2.410 . S
O1270 C1259 1.251 . S
O1271 Nd1240 2.424 . S
O1271 C1259 1.268 . S
H1272 C1244 0.930 . S
H1273 C1245 0.924 1_554 S
H1274 C1247 0.930 . S
H1275 C1248 0.929 . S
H1276 C1253 0.930 . S
H1277 C1254 0.929 . S
H1278 C1256 0.930 . S
H1279 C1257 0.929 . S
Nd1280 C1282 2.836 . S
Nd1280 O1300 2.500 . S
Nd1280 O1301 2.492 . S
Nd1280 O1302 2.487 . S
Nd1280 O1303 2.682 . S
Nd1280 O1304 2.410 . S
Nd1280 O1309 2.414 . S
Nd1280 O1311 2.424 . S
Nd1281 C1291 2.836 . S
Nd1281 O1303 2.414 . S
Nd1281 O1305 2.424 . S
Nd1281 O1306 2.500 . S
Nd1281 O1307 2.492 . S
Nd1281 O1308 2.487 . S
Nd1281 O1309 2.682 . S
Nd1281 O1310 2.410 . S
C1282 Nd1280 2.836 . S
C1282 C1283 1.498 . S
C1282 O1300 1.258 . S
C1282 O1301 1.239 . S
C1283 C1282 1.498 . S
C1283 C1284 1.366 . S
C1283 C1288 1.407 . S
C1284 C1283 1.366 . S
C1284 C1285 1.392 . S
C1284 H1312 0.930 . S
C1285 C1284 1.392 . S
C1285 C1286 1.398 . S
C1285 H1313 0.925 1_556 S
C1286 C1285 1.398 . S
C1286 C1287 1.352 . S
C1287 C1286 1.352 . S
C1287 C1288 1.384 . S
C1287 H1314 0.930 . S
C1288 C1283 1.407 . S
C1288 C1287 1.384 . S
C1288 H1315 0.929 . S
C1289 O1302 1.241 . S
C1289 O1303 1.273 . S
C1290 O1304 1.251 . S
C1290 O1305 1.268 . S
C1291 Nd1281 2.836 . S
C1291 C1292 1.498 . S
C1291 O1306 1.258 . S
C1291 O1307 1.239 . S
C1292 C1291 1.498 . S
C1292 C1293 1.366 . S
C1292 C1297 1.407 . S
C1293 C1292 1.366 . S
C1293 C1294 1.392 . S
C1293 H1316 0.930 . S
C1294 C1293 1.392 . S
C1294 C1295 1.398 . S
C1294 H1317 0.929 . S
C1295 C1294 1.398 . S
C1295 C1296 1.352 . S
C1296 C1295 1.352 . S
C1296 C1297 1.384 . S
C1296 H1318 0.930 . S
C1297 C1292 1.407 . S
C1297 C1296 1.384 . S
C1297 H1319 0.929 . S
C1298 O1308 1.241 . S
C1298 O1309 1.273 . S
C1299 O1310 1.251 . S
C1299 O1311 1.268 . S
O1300 Nd1280 2.500 . S
O1300 C1282 1.258 . S
O1301 Nd1280 2.492 . S
O1301 C1282 1.239 . S
O1302 Nd1280 2.487 . S
O1302 C1289 1.241 . S
O1303 Nd1280 2.682 . S
O1303 Nd1281 2.414 . S
O1303 C1289 1.273 . S
O1304 Nd1280 2.410 . S
O1304 C1290 1.251 . S
O1305 Nd1281 2.424 . S
O1305 C1290 1.268 . S
O1306 Nd1281 2.500 . S
O1306 C1291 1.258 . S
O1307 Nd1281 2.492 . S
O1307 C1291 1.239 . S
O1308 Nd1281 2.487 . S
O1308 C1298 1.241 . S
O1309 Nd1280 2.414 . S
O1309 Nd1281 2.682 . S
O1309 C1298 1.273 . S
O1310 Nd1281 2.410 . S
O1310 C1299 1.251 . S
O1311 Nd1280 2.424 . S
O1311 C1299 1.268 . S
H1312 C1284 0.930 . S
H1313 C1285 0.925 1_554 S
H1314 C1287 0.930 . S
H1315 C1288 0.929 . S
H1316 C1293 0.930 . S
H1317 C1294 0.929 . S
H1318 C1296 0.930 . S
H1319 C1297 0.929 . S
Nd1320 C1322 2.836 . S
Nd1320 O1340 2.500 . S
Nd1320 O1341 2.492 . S
Nd1320 O1342 2.487 . S
Nd1320 O1343 2.682 . S
Nd1320 O1344 2.410 . S
Nd1320 O1349 2.414 . S
Nd1320 O1351 2.424 . S
Nd1321 C1331 2.836 . S
Nd1321 O1343 2.414 . S
Nd1321 O1345 2.424 . S
Nd1321 O1346 2.500 . S
Nd1321 O1347 2.492 . S
Nd1321 O1348 2.487 . S
Nd1321 O1349 2.682 . S
Nd1321 O1350 2.410 . S
C1322 Nd1320 2.836 . S
C1322 C1323 1.498 . S
C1322 O1340 1.258 . S
C1322 O1341 1.239 . S
C1323 C1322 1.498 . S
C1323 C1324 1.366 . S
C1323 C1328 1.407 . S
C1324 C1323 1.366 . S
C1324 C1325 1.392 . S
C1324 H1352 0.930 . S
C1325 C1324 1.392 . S
C1325 C1326 1.398 . S
C1325 H1353 0.929 . S
C1326 C1325 1.398 . S
C1326 C1327 1.352 . S
C1327 C1326 1.352 . S
C1327 C1328 1.384 . S
C1327 H1354 0.930 . S
C1328 C1323 1.407 . S
C1328 C1327 1.384 . S
C1328 H1355 0.929 . S
C1329 O1342 1.241 . S
C1329 O1343 1.273 . S
C1330 O1344 1.251 . S
C1330 O1345 1.268 . S
C1331 Nd1321 2.836 . S
C1331 C1332 1.498 . S
C1331 O1346 1.258 . S
C1331 O1347 1.239 . S
C1332 C1331 1.498 . S
C1332 C1333 1.366 . S
C1332 C1337 1.407 . S
C1333 C1332 1.366 . S
C1333 C1334 1.392 . S
C1333 H1356 0.930 . S
C1334 C1333 1.392 . S
C1334 C1335 1.398 . S
C1334 H1357 0.929 . S
C1335 C1334 1.398 . S
C1335 C1336 1.352 . S
C1336 C1335 1.352 . S
C1336 C1337 1.384 . S
C1336 H1358 0.930 . S
C1337 C1332 1.407 . S
C1337 C1336 1.384 . S
C1337 H1359 0.929 . S
C1338 O1348 1.241 . S
C1338 O1349 1.273 . S
C1339 O1350 1.251 . S
C1339 O1351 1.268 . S
O1340 Nd1320 2.500 . S
O1340 C1322 1.258 . S
O1341 Nd1320 2.492 . S
O1341 C1322 1.239 . S
O1342 Nd1320 2.487 . S
O1342 C1329 1.241 . S
O1343 Nd1320 2.682 . S
O1343 Nd1321 2.414 . S
O1343 C1329 1.273 . S
O1344 Nd1320 2.410 . S
O1344 C1330 1.251 . S
O1345 Nd1321 2.424 . S
O1345 C1330 1.268 . S
O1346 Nd1321 2.500 . S
O1346 C1331 1.258 . S
O1347 Nd1321 2.492 . S
O1347 C1331 1.239 . S
O1348 Nd1321 2.487 . S
O1348 C1338 1.241 . S
O1349 Nd1320 2.414 . S
O1349 Nd1321 2.682 . S
O1349 C1338 1.273 . S
O1350 Nd1321 2.410 . S
O1350 C1339 1.251 . S
O1351 Nd1320 2.424 . S
O1351 C1339 1.268 . S
H1352 C1324 0.930 . S
H1353 C1325 0.929 . S
H1354 C1327 0.930 . S
H1355 C1328 0.929 . S
H1356 C1333 0.930 . S
H1357 C1334 0.929 . S
H1358 C1336 0.930 . S
H1359 C1337 0.929 . S
Nd1360 C1362 2.836 . S
Nd1360 O1380 2.500 . S
Nd1360 O1381 2.492 . S
Nd1360 O1382 2.487 . S
Nd1360 O1383 2.682 . S
Nd1360 O1384 2.410 . S
Nd1360 O1389 2.414 . S
Nd1360 O1391 2.424 . S
Nd1361 C1371 2.836 . S
Nd1361 O1383 2.414 . S
Nd1361 O1385 2.424 . S
Nd1361 O1386 2.500 . S
Nd1361 O1387 2.492 . S
Nd1361 O1388 2.487 . S
Nd1361 O1389 2.682 . S
Nd1361 O1390 2.410 . S
C1362 Nd1360 2.836 . S
C1362 C1363 1.498 . S
C1362 O1380 1.258 . S
C1362 O1381 1.239 . S
C1363 C1362 1.498 . S
C1363 C1364 1.366 . S
C1363 C1368 1.407 . S
C1364 C1363 1.366 . S
C1364 C1365 1.392 . S
C1364 H1392 0.930 . S
C1365 C1364 1.392 . S
C1365 C1366 1.398 . S
C1365 H1393 0.929 . S
C1366 C1365 1.398 . S
C1366 C1367 1.352 . S
C1367 C1366 1.352 . S
C1367 C1368 1.384 . S
C1367 H1394 0.930 . S
C1368 C1363 1.407 . S
C1368 C1367 1.384 . S
C1368 H1395 0.929 . S
C1369 O1382 1.241 . S
C1369 O1383 1.273 . S
C1370 O1384 1.251 . S
C1370 O1385 1.268 . S
C1371 Nd1361 2.836 . S
C1371 C1372 1.498 . S
C1371 O1386 1.258 . S
C1371 O1387 1.239 . S
C1372 C1371 1.498 . S
C1372 C1373 1.366 . S
C1372 C1377 1.407 . S
C1373 C1372 1.366 . S
C1373 C1374 1.392 . S
C1373 H1396 0.930 . S
C1374 C1373 1.392 . S
C1374 C1375 1.398 . S
C1374 H1397 0.929 . S
C1375 C1374 1.398 . S
C1375 C1376 1.352 . S
C1376 C1375 1.352 . S
C1376 C1377 1.384 . S
C1376 H1398 0.930 . S
C1377 C1372 1.407 . S
C1377 C1376 1.384 . S
C1377 H1399 0.929 . S
C1378 O1388 1.241 . S
C1378 O1389 1.273 . S
C1379 O1390 1.251 . S
C1379 O1391 1.268 . S
O1380 Nd1360 2.500 . S
O1380 C1362 1.258 . S
O1381 Nd1360 2.492 . S
O1381 C1362 1.239 . S
O1382 Nd1360 2.487 . S
O1382 C1369 1.241 . S
O1383 Nd1360 2.682 . S
O1383 Nd1361 2.414 . S
O1383 C1369 1.273 . S
O1384 Nd1360 2.410 . S
O1384 C1370 1.251 . S
O1385 Nd1361 2.424 . S
O1385 C1370 1.268 . S
O1386 Nd1361 2.500 . S
O1386 C1371 1.258 . S
O1387 Nd1361 2.492 . S
O1387 C1371 1.239 . S
O1388 Nd1361 2.487 . S
O1388 C1378 1.241 . S
O1389 Nd1360 2.414 . S
O1389 Nd1361 2.682 . S
O1389 C1378 1.273 . S
O1390 Nd1361 2.410 . S
O1390 C1379 1.251 . S
O1391 Nd1360 2.424 . S
O1391 C1379 1.268 . S
H1392 C1364 0.930 . S
H1393 C1365 0.929 . S
H1394 C1367 0.930 . S
H1395 C1368 0.929 . S
H1396 C1373 0.930 . S
H1397 C1374 0.929 . S
H1398 C1376 0.930 . S
H1399 C1377 0.929 . S
Nd1400 C1402 2.836 . S
Nd1400 O1420 2.500 . S
Nd1400 O1421 2.492 . S
Nd1400 O1422 2.487 . S
Nd1400 O1423 2.682 . S
Nd1400 O1424 2.410 . S
Nd1400 O1429 2.414 . S
Nd1400 O1431 2.424 . S
Nd1401 C1411 2.836 . S
Nd1401 O1423 2.414 . S
Nd1401 O1425 2.424 . S
Nd1401 O1426 2.500 . S
Nd1401 O1427 2.492 . S
Nd1401 O1428 2.487 . S
Nd1401 O1429 2.682 . S
Nd1401 O1430 2.410 . S
C1402 Nd1400 2.836 . S
C1402 C1403 1.498 . S
C1402 O1420 1.258 . S
C1402 O1421 1.239 . S
C1403 C1402 1.498 . S
C1403 C1404 1.366 . S
C1403 C1408 1.407 . S
C1404 C1403 1.366 . S
C1404 C1405 1.392 . S
C1404 H1432 0.930 . S
C1405 C1404 1.392 . S
C1405 C1406 1.398 . S
C1405 H1433 0.929 . S
C1406 C1405 1.398 . S
C1406 C1407 1.352 . S
C1407 C1406 1.352 . S
C1407 C1408 1.384 . S
C1407 H1434 0.930 . S
C1408 C1403 1.407 . S
C1408 C1407 1.384 . S
C1408 H1435 0.929 . S
C1409 O1422 1.241 . S
C1409 O1423 1.273 . S
C1410 O1424 1.251 . S
C1410 O1425 1.268 . S
C1411 Nd1401 2.836 . S
C1411 C1412 1.498 . S
C1411 O1426 1.258 . S
C1411 O1427 1.239 . S
C1412 C1411 1.498 . S
C1412 C1413 1.366 . S
C1412 C1417 1.407 . S
C1413 C1412 1.366 . S
C1413 C1414 1.392 . S
C1413 H1436 0.930 . S
C1414 C1413 1.392 . S
C1414 C1415 1.398 . S
C1414 H1437 0.929 . S
C1415 C1414 1.398 . S
C1415 C1416 1.352 . S
C1416 C1415 1.352 . S
C1416 C1417 1.384 . S
C1416 H1438 0.930 . S
C1417 C1412 1.407 . S
C1417 C1416 1.384 . S
C1417 H1439 0.929 . S
C1418 O1428 1.241 . S
C1418 O1429 1.273 . S
C1419 O1430 1.251 . S
C1419 O1431 1.268 . S
O1420 Nd1400 2.500 . S
O1420 C1402 1.258 . S
O1421 Nd1400 2.492 . S
O1421 C1402 1.239 . S
O1422 Nd1400 2.487 . S
O1422 C1409 1.241 . S
O1423 Nd1400 2.682 . S
O1423 Nd1401 2.414 . S
O1423 C1409 1.273 . S
O1424 Nd1400 2.410 . S
O1424 C1410 1.251 . S
O1425 Nd1401 2.424 . S
O1425 C1410 1.268 . S
O1426 Nd1401 2.500 . S
O1426 C1411 1.258 . S
O1427 Nd1401 2.492 . S
O1427 C1411 1.239 . S
O1428 Nd1401 2.487 . S
O1428 C1418 1.241 . S
O1429 Nd1400 2.414 . S
O1429 Nd1401 2.682 . S
O1429 C1418 1.273 . S
O1430 Nd1401 2.410 . S
O1430 C1419 1.251 . S
O1431 Nd1400 2.424 . S
O1431 C1419 1.268 . S
H1432 C1404 0.930 . S
H1433 C1405 0.929 . S
H1434 C1407 0.930 . S
H1435 C1408 0.929 . S
H1436 C1413 0.930 . S
H1437 C1414 0.929 . S
H1438 C1416 0.930 . S
H1439 C1417 0.929 . S
C1440 C1441 1.349 . S
C1440 C1442 1.327 . S
C1440 H1465 0.950 . S
C1441 C1440 1.349 . S
C1441 C1457 1.349 1_554 S
C1442 C1440 1.327 . S
C1442 C1461 1.429 . S
C1442 H1466 0.950 . S
C1443 C1460 1.574 1_556 S
C1443 C1462 1.368 1_556 S
C1443 H1467 0.949 . S
H1444 C1448 0.949 . S
C1445 C1446 1.349 . S
C1445 C1447 1.327 . S
C1445 H1468 0.949 . S
C1446 C1445 1.349 . S
C1446 C1458 1.349 . S
C1447 C1445 1.327 . S
C1447 C1463 1.429 . S
C1447 H1469 0.950 1_554 S
C1448 H1444 0.949 . S
C1448 C1456 1.574 . S
C1448 C1464 1.368 . S
H1449 C1457 0.950 . S
H1450 C1455 0.950 . S
H1451 C1456 0.949 . S
H1452 C1458 0.950 . S
H1453 C1459 0.950 . S
H1454 C1460 0.949 1_556 S
C1455 H1450 0.950 . S
C1455 C1457 1.327 . S
C1455 C1461 1.429 1_556 S
C1456 C1448 1.574 . S
C1456 H1451 0.949 . S
C1456 C1462 1.368 . S
C1457 C1441 1.349 1_556 S
C1457 H1449 0.950 . S
C1457 C1455 1.327 . S
C1458 C1446 1.349 . S
C1458 H1452 0.950 . S
C1458 C1459 1.327 . S
C1459 H1453 0.950 . S
C1459 C1458 1.327 . S
C1459 C1463 1.429 . S
C1460 C1443 1.574 1_554 S
C1460 H1454 0.949 1_554 S
C1460 C1464 1.368 . S
C1461 C1442 1.429 . S
C1461 C1455 1.429 1_554 S
C1461 C1462 1.523 . S
C1462 C1443 1.368 1_554 S
C1462 C1456 1.368 . S
C1462 C1461 1.523 . S
C1463 C1447 1.429 . S
C1463 C1459 1.429 . S
C1463 C1464 1.523 . S
C1464 C1448 1.368 . S
C1464 C1460 1.368 . S
C1464 C1463 1.523 . S
H1465 C1440 0.950 . S
H1466 C1442 0.950 . S
H1467 C1443 0.949 . S
H1468 C1445 0.949 . S
H1469 C1447 0.950 1_556 S
C1470 C1471 1.349 1_556 S
C1470 C1472 1.327 . S
C1470 H1495 0.950 . S
C1471 C1470 1.349 1_554 S
C1471 C1487 1.349 . S
C1472 C1470 1.327 . S
C1472 C1491 1.429 1_556 S
C1472 H1496 0.950 . S
C1473 C1490 1.574 . S
C1473 C1492 1.368 . S
C1473 H1497 0.949 . S
H1474 C1478 0.949 1_556 S
C1475 C1476 1.349 . S
C1475 C1477 1.327 . S
C1475 H1498 0.950 . S
C1476 C1475 1.349 . S
C1476 C1488 1.349 . S
C1477 C1475 1.327 . S
C1477 C1493 1.429 . S
C1477 H1499 0.950 . S
C1478 H1474 0.949 1_554 S
C1478 C1486 1.570 1_554 S
C1478 C1494 1.368 . S
H1479 C1487 0.950 . S
H1480 C1485 0.950 . S
H1481 C1486 0.978 . S
H1482 C1488 0.950 . S
H1483 C1489 0.950 1_556 S
H1484 C1490 0.949 . S
C1485 H1480 0.950 . S
C1485 C1487 1.327 . S
C1485 C1491 1.429 . S
C1486 C1478 1.570 1_556 S
C1486 H1481 0.978 . S
C1486 C1492 1.342 1_556 S
C1487 C1471 1.349 . S
C1487 H1479 0.950 . S
C1487 C1485 1.327 . S
C1488 C1476 1.349 . S
C1488 H1482 0.950 . S
C1488 C1489 1.327 . S
C1489 H1483 0.950 1_554 S
C1489 C1488 1.327 . S
C1489 C1493 1.429 . S
C1490 C1473 1.574 . S
C1490 H1484 0.949 . S
C1490 C1494 1.368 . S
C1491 C1472 1.429 1_554 S
C1491 C1485 1.429 . S
C1491 C1492 1.523 . S
C1492 C1473 1.368 . S
C1492 C1486 1.342 1_554 S
C1492 C1491 1.523 . S
C1493 C1477 1.429 . S
C1493 C1489 1.429 . S
C1493 C1494 1.523 . S
C1494 C1478 1.368 . S
C1494 C1490 1.368 . S
C1494 C1493 1.523 . S
H1495 C1470 0.950 . S
H1496 C1472 0.950 . S
H1497 C1473 0.949 . S
H1498 C1475 0.950 . S
H1499 C1477 0.950 . S
C1500 C1501 1.349 . S
C1500 C1502 1.327 . S
C1500 H1525 0.950 . S
C1501 C1500 1.349 . S
C1501 C1517 1.349 . S
C1502 C1500 1.327 . S
C1502 C1521 1.429 . S
C1502 H1526 0.950 . S
C1503 C1520 1.574 . S
C1503 C1522 1.368 . S
C1503 H1527 0.949 . S
H1504 C1508 0.949 . S
C1505 C1506 1.349 . S
C1505 C1507 1.327 . S
C1505 H1528 0.950 . S
C1506 C1505 1.349 . S
C1506 C1518 1.349 . S
C1507 C1505 1.327 . S
C1507 C1523 1.429 . S
C1507 H1529 0.950 . S
C1508 H1504 0.949 . S
C1508 C1516 1.574 . S
C1508 C1524 1.368 . S
H1509 C1517 0.950 . S
H1510 C1515 0.950 . S
H1511 C1516 0.949 . S
H1512 C1518 0.950 . S
H1513 C1519 0.950 . S
H1514 C1520 0.949 . S
C1515 H1510 0.950 . S
C1515 C1517 1.327 . S
C1515 C1521 1.429 . S
C1516 C1508 1.574 . S
C1516 H1511 0.949 . S
C1516 C1522 1.368 . S
C1517 C1501 1.349 . S
C1517 H1509 0.950 . S
C1517 C1515 1.327 . S
C1518 C1506 1.349 . S
C1518 H1512 0.950 . S
C1518 C1519 1.327 . S
C1519 H1513 0.950 . S
C1519 C1518 1.327 . S
C1519 C1523 1.429 . S
C1520 C1503 1.574 . S
C1520 H1514 0.949 . S
C1520 C1524 1.368 . S
C1521 C1502 1.429 . S
C1521 C1515 1.429 . S
C1521 C1522 1.523 . S
C1522 C1503 1.368 . S
C1522 C1516 1.368 . S
C1522 C1521 1.523 . S
C1523 C1507 1.429 . S
C1523 C1519 1.429 . S
C1523 C1524 1.523 . S
C1524 C1508 1.368 . S
C1524 C1520 1.368 . S
C1524 C1523 1.523 . S
H1525 C1500 0.950 . S
H1526 C1502 0.950 . S
H1527 C1503 0.949 . S
H1528 C1505 0.950 . S
H1529 C1507 0.950 . S
C1530 C1531 1.349 . S
C1530 C1532 1.327 . S
C1530 H1555 0.950 . S
C1531 C1530 1.349 . S
C1531 C1547 1.349 . S
C1532 C1530 1.327 . S
C1532 C1551 1.429 . S
C1532 H1556 0.950 . S
C1533 C1550 1.574 . S
C1533 C1552 1.368 . S
C1533 H1557 0.949 . S
H1534 C1538 0.949 . S
C1535 C1536 1.349 . S
C1535 C1537 1.327 . S
C1535 H1558 0.950 . S
C1536 C1535 1.349 . S
C1536 C1548 1.349 . S
C1537 C1535 1.327 . S
C1537 C1553 1.429 . S
C1537 H1559 0.950 . S
C1538 H1534 0.949 . S
C1538 C1546 1.574 . S
C1538 C1554 1.368 . S
H1539 C1547 0.950 . S
H1540 C1545 0.950 . S
H1541 C1546 0.949 . S
H1542 C1548 0.950 . S
H1543 C1549 0.950 . S
H1544 C1550 0.949 . S
C1545 H1540 0.950 . S
C1545 C1547 1.327 . S
C1545 C1551 1.429 . S
C1546 C1538 1.574 . S
C1546 H1541 0.949 . S
C1546 C1552 1.368 . S
C1547 C1531 1.349 . S
C1547 H1539 0.950 . S
C1547 C1545 1.327 . S
C1548 C1536 1.349 . S
C1548 H1542 0.950 . S
C1548 C1549 1.327 . S
C1549 H1543 0.950 . S
C1549 C1548 1.327 . S
C1549 C1553 1.429 . S
C1550 C1533 1.574 . S
C1550 H1544 0.949 . S
C1550 C1554 1.368 . S
C1551 C1532 1.429 . S
C1551 C1545 1.429 . S
C1551 C1552 1.523 . S
C1552 C1533 1.368 . S
C1552 C1546 1.368 . S
C1552 C1551 1.523 . S
C1553 C1537 1.429 . S
C1553 C1549 1.429 . S
C1553 C1554 1.523 . S
C1554 C1538 1.368 . S
C1554 C1550 1.368 . S
C1554 C1553 1.523 . S
H1555 C1530 0.950 . S
H1556 C1532 0.950 . S
H1557 C1533 0.949 . S
H1558 C1535 0.950 . S
H1559 C1537 0.950 . S
C1560 C1561 1.349 . S
C1560 C1562 1.327 . S
C1560 H1585 0.950 . S
C1561 C1560 1.349 . S
C1561 C1577 1.349 . S
C1562 C1560 1.327 . S
C1562 C1581 1.429 . S
C1562 H1586 0.950 . S
C1563 C1580 1.574 . S
C1563 C1582 1.368 . S
C1563 H1587 0.949 . S
H1564 C1568 0.949 . S
C1565 C1566 1.349 . S
C1565 C1567 1.327 . S
C1565 H1588 0.950 . S
C1566 C1565 1.349 . S
C1566 C1578 1.349 . S
C1567 C1565 1.327 . S
C1567 C1583 1.429 . S
C1567 H1589 0.950 . S
C1568 H1564 0.949 . S
C1568 C1576 1.574 . S
C1568 C1584 1.368 . S
H1569 C1577 0.950 . S
H1570 C1575 0.950 . S
H1571 C1576 0.949 . S
H1572 C1578 0.950 . S
H1573 C1579 0.950 . S
H1574 C1580 0.949 . S
C1575 H1570 0.950 . S
C1575 C1577 1.327 . S
C1575 C1581 1.429 . S
C1576 C1568 1.574 . S
C1576 H1571 0.949 . S
C1576 C1582 1.368 . S
C1577 C1561 1.349 . S
C1577 H1569 0.950 . S
C1577 C1575 1.327 . S
C1578 C1566 1.349 . S
C1578 H1572 0.950 . S
C1578 C1579 1.327 . S
C1579 H1573 0.950 . S
C1579 C1578 1.327 . S
C1579 C1583 1.429 . S
C1580 C1563 1.574 . S
C1580 H1574 0.949 . S
C1580 C1584 1.368 . S
C1581 C1562 1.429 . S
C1581 C1575 1.429 . S
C1581 C1582 1.523 . S
C1582 C1563 1.368 . S
C1582 C1576 1.368 . S
C1582 C1581 1.523 . S
C1583 C1567 1.429 . S
C1583 C1579 1.429 . S
C1583 C1584 1.523 . S
C1584 C1568 1.368 . S
C1584 C1580 1.368 . S
C1584 C1583 1.523 . S
H1585 C1560 0.950 . S
H1586 C1562 0.950 . S
H1587 C1563 0.949 . S
H1588 C1565 0.950 . S
H1589 C1567 0.950 . S
C1590 C1591 1.349 . S
C1590 C1592 1.327 . S
C1590 H1615 0.950 . S
C1591 C1590 1.349 . S
C1591 C1607 1.349 . S
C1592 C1590 1.327 . S
C1592 C1611 1.429 . S
C1592 H1616 0.950 . S
C1593 C1610 1.574 . S
C1593 C1612 1.368 . S
C1593 H1617 0.949 . S
H1594 C1598 0.949 . S
C1595 C1596 1.349 . S
C1595 C1597 1.327 . S
C1595 H1618 0.950 . S
C1596 C1595 1.349 . S
C1596 C1608 1.349 . S
C1597 C1595 1.327 . S
C1597 C1613 1.429 . S
C1597 H1619 0.950 . S
C1598 H1594 0.949 . S
C1598 C1606 1.574 . S
C1598 C1614 1.368 . S
H1599 C1607 0.950 . S
H1600 C1605 0.950 . S
H1601 C1606 0.949 . S
H1602 C1608 0.950 . S
H1603 C1609 0.950 . S
H1604 C1610 0.949 . S
C1605 H1600 0.950 . S
C1605 C1607 1.327 . S
C1605 C1611 1.429 . S
C1606 C1598 1.574 . S
C1606 H1601 0.949 . S
C1606 C1612 1.368 . S
C1607 C1591 1.349 . S
C1607 H1599 0.950 . S
C1607 C1605 1.327 . S
C1608 C1596 1.349 . S
C1608 H1602 0.950 . S
C1608 C1609 1.327 . S
C1609 H1603 0.950 . S
C1609 C1608 1.327 . S
C1609 C1613 1.429 . S
C1610 C1593 1.574 . S
C1610 H1604 0.949 . S
C1610 C1614 1.368 . S
C1611 C1592 1.429 . S
C1611 C1605 1.429 . S
C1611 C1612 1.523 . S
C1612 C1593 1.368 . S
C1612 C1606 1.368 . S
C1612 C1611 1.523 . S
C1613 C1597 1.429 . S
C1613 C1609 1.429 . S
C1613 C1614 1.523 . S
C1614 C1598 1.368 . S
C1614 C1610 1.368 . S
C1614 C1613 1.523 . S
H1615 C1590 0.950 . S
H1616 C1592 0.950 . S
H1617 C1593 0.949 . S
H1618 C1595 0.950 . S
H1619 C1597 0.950 . S
C1620 C1621 1.349 . S
C1620 C1622 1.327 . S
C1620 H1645 0.950 . S
C1621 C1620 1.349 . S
C1621 C1637 1.349 . S
C1622 C1620 1.327 . S
C1622 C1641 1.429 . S
C1622 H1646 0.950 . S
C1623 C1640 1.574 . S
C1623 C1642 1.368 . S
C1623 H1647 0.949 . S
H1624 C1628 0.949 . S
C1625 C1626 1.349 . S
C1625 C1627 1.327 . S
C1625 H1648 0.950 . S
C1626 C1625 1.349 . S
C1626 C1638 1.349 . S
C1627 C1625 1.327 . S
C1627 C1643 1.429 . S
C1627 H1649 0.950 . S
C1628 H1624 0.949 . S
C1628 C1636 1.574 . S
C1628 C1644 1.368 . S
H1629 C1637 0.950 . S
H1630 C1635 0.950 . S
H1631 C1636 0.949 . S
H1632 C1638 0.950 . S
H1633 C1639 0.950 . S
H1634 C1640 0.949 . S
C1635 H1630 0.950 . S
C1635 C1637 1.327 . S
C1635 C1641 1.429 . S
C1636 C1628 1.574 . S
C1636 H1631 0.949 . S
C1636 C1642 1.368 . S
C1637 C1621 1.349 . S
C1637 H1629 0.950 . S
C1637 C1635 1.327 . S
C1638 C1626 1.349 . S
C1638 H1632 0.950 . S
C1638 C1639 1.327 . S
C1639 H1633 0.950 . S
C1639 C1638 1.327 . S
C1639 C1643 1.429 . S
C1640 C1623 1.574 . S
C1640 H1634 0.949 . S
C1640 C1644 1.368 . S
C1641 C1622 1.429 . S
C1641 C1635 1.429 . S
C1641 C1642 1.523 . S
C1642 C1623 1.368 . S
C1642 C1636 1.368 . S
C1642 C1641 1.523 . S
C1643 C1627 1.429 . S
C1643 C1639 1.429 . S
C1643 C1644 1.523 . S
C1644 C1628 1.368 . S
C1644 C1640 1.368 . S
C1644 C1643 1.523 . S
H1645 C1620 0.950 . S
H1646 C1622 0.950 . S
H1647 C1623 0.949 . S
H1648 C1625 0.950 . S
H1649 C1627 0.950 . S
C1650 C1651 1.349 . S
C1650 C1652 1.327 . S
C1650 H1675 0.950 . S
C1651 C1650 1.349 . S
C1651 C1667 1.349 . S
C1652 C1650 1.327 . S
C1652 C1671 1.429 . S
C1652 H1676 0.950 . S
C1653 C1670 1.574 . S
C1653 C1672 1.368 . S
C1653 H1677 0.949 . S
H1654 C1658 0.949 . S
C1655 C1656 1.349 . S
C1655 C1657 1.327 . S
C1655 H1678 0.950 . S
C1656 C1655 1.349 . S
C1656 C1668 1.349 . S
C1657 C1655 1.327 . S
C1657 C1673 1.429 . S
C1657 H1679 0.950 . S
C1658 H1654 0.949 . S
C1658 C1666 1.574 . S
C1658 C1674 1.368 . S
H1659 C1667 0.950 . S
H1660 C1665 0.950 . S
H1661 C1666 0.949 . S
H1662 C1668 0.950 . S
H1663 C1669 0.950 . S
H1664 C1670 0.949 . S
C1665 H1660 0.950 . S
C1665 C1667 1.327 . S
C1665 C1671 1.429 . S
C1666 C1658 1.574 . S
C1666 H1661 0.949 . S
C1666 C1672 1.368 . S
C1667 C1651 1.349 . S
C1667 H1659 0.950 . S
C1667 C1665 1.327 . S
C1668 C1656 1.349 . S
C1668 H1662 0.950 . S
C1668 C1669 1.327 . S
C1669 H1663 0.950 . S
C1669 C1668 1.327 . S
C1669 C1673 1.429 . S
C1670 C1653 1.574 . S
C1670 H1664 0.949 . S
C1670 C1674 1.368 . S
C1671 C1652 1.429 . S
C1671 C1665 1.429 . S
C1671 C1672 1.523 . S
C1672 C1653 1.368 . S
C1672 C1666 1.368 . S
C1672 C1671 1.523 . S
C1673 C1657 1.429 . S
C1673 C1669 1.429 . S
C1673 C1674 1.523 . S
C1674 C1658 1.368 . S
C1674 C1670 1.368 . S
C1674 C1673 1.523 . S
H1675 C1650 0.950 . S
H1676 C1652 0.950 . S
H1677 C1653 0.949 . S
H1678 C1655 0.950 . S
H1679 C1657 0.950 . S
C1680 C1681 1.349 . S
C1680 C1682 1.327 . S
C1680 H1705 0.950 . S
C1681 C1680 1.349 . S
C1681 C1697 1.349 . S
C1682 C1680 1.327 . S
C1682 C1701 1.429 . S
C1682 H1706 0.950 . S
C1683 C1700 1.574 . S
C1683 C1702 1.368 . S
C1683 H1707 0.949 . S
H1684 C1688 0.949 . S
C1685 C1686 1.349 . S
C1685 C1687 1.327 . S
C1685 H1708 0.950 . S
C1686 C1685 1.349 . S
C1686 C1698 1.349 . S
C1687 C1685 1.327 . S
C1687 C1703 1.429 . S
C1687 H1709 0.950 . S
C1688 H1684 0.949 . S
C1688 C1696 1.574 . S
C1688 C1704 1.368 . S
H1689 C1697 0.950 . S
H1690 C1695 0.950 . S
H1691 C1696 0.949 . S
H1692 C1698 0.950 . S
H1693 C1699 0.950 . S
H1694 C1700 0.949 . S
C1695 H1690 0.950 . S
C1695 C1697 1.327 . S
C1695 C1701 1.429 . S
C1696 C1688 1.574 . S
C1696 H1691 0.949 . S
C1696 C1702 1.368 . S
C1697 C1681 1.349 . S
C1697 H1689 0.950 . S
C1697 C1695 1.327 . S
C1698 C1686 1.349 . S
C1698 H1692 0.950 . S
C1698 C1699 1.327 . S
C1699 H1693 0.950 . S
C1699 C1698 1.327 . S
C1699 C1703 1.429 . S
C1700 C1683 1.574 . S
C1700 H1694 0.949 . S
C1700 C1704 1.368 . S
C1701 C1682 1.429 . S
C1701 C1695 1.429 . S
C1701 C1702 1.523 . S
C1702 C1683 1.368 . S
C1702 C1696 1.368 . S
C1702 C1701 1.523 . S
C1703 C1687 1.429 . S
C1703 C1699 1.429 . S
C1703 C1704 1.523 . S
C1704 C1688 1.368 . S
C1704 C1700 1.368 . S
C1704 C1703 1.523 . S
H1705 C1680 0.950 . S
H1706 C1682 0.950 . S
H1707 C1683 0.949 . S
H1708 C1685 0.950 . S
H1709 C1687 0.950 . S
C1710 C1711 1.349 . S
C1710 C1712 1.327 . S
C1710 H1735 0.950 . S
C1711 C1710 1.349 . S
C1711 C1727 1.349 . S
C1712 C1710 1.327 . S
C1712 C1731 1.429 . S
C1712 H1736 0.950 . S
C1713 C1730 1.574 . S
C1713 C1732 1.368 . S
C1713 H1737 0.949 . S
H1714 C1718 0.949 . S
C1715 C1716 1.349 . S
C1715 C1717 1.327 . S
C1715 H1738 0.950 . S
C1716 C1715 1.349 . S
C1716 C1728 1.349 . S
C1717 C1715 1.327 . S
C1717 C1733 1.429 . S
C1717 H1739 0.950 . S
C1718 H1714 0.949 . S
C1718 C1726 1.574 . S
C1718 C1734 1.368 . S
H1719 C1727 0.950 . S
H1720 C1725 0.950 . S
H1721 C1726 0.949 . S
H1722 C1728 0.950 . S
H1723 C1729 0.950 . S
H1724 C1730 0.949 . S
C1725 H1720 0.950 . S
C1725 C1727 1.327 . S
C1725 C1731 1.429 . S
C1726 C1718 1.574 . S
C1726 H1721 0.949 . S
C1726 C1732 1.368 . S
C1727 C1711 1.349 . S
C1727 H1719 0.950 . S
C1727 C1725 1.327 . S
C1728 C1716 1.349 . S
C1728 H1722 0.950 . S
C1728 C1729 1.327 . S
C1729 H1723 0.950 . S
C1729 C1728 1.327 . S
C1729 C1733 1.429 . S
C1730 C1713 1.574 . S
C1730 H1724 0.949 . S
C1730 C1734 1.368 . S
C1731 C1712 1.429 . S
C1731 C1725 1.429 . S
C1731 C1732 1.523 . S
C1732 C1713 1.368 . S
C1732 C1726 1.368 . S
C1732 C1731 1.523 . S
C1733 C1717 1.429 . S
C1733 C1729 1.429 . S
C1733 C1734 1.523 . S
C1734 C1718 1.368 . S
C1734 C1730 1.368 . S
C1734 C1733 1.523 . S
H1735 C1710 0.950 . S
H1736 C1712 0.950 . S
H1737 C1713 0.949 . S
H1738 C1715 0.950 . S
H1739 C1717 0.950 . S
C1740 C1741 1.349 . S
C1740 C1742 1.327 . S
C1740 H1765 0.950 . S
C1741 C1740 1.349 . S
C1741 C1757 1.349 . S
C1742 C1740 1.327 . S
C1742 C1761 1.429 . S
C1742 H1766 0.950 . S
C1743 C1760 1.574 . S
C1743 C1762 1.368 . S
C1743 H1767 0.949 . S
H1744 C1748 0.949 . S
C1745 C1746 1.349 . S
C1745 C1747 1.327 . S
C1745 H1768 0.950 . S
C1746 C1745 1.349 . S
C1746 C1758 1.349 . S
C1747 C1745 1.327 . S
C1747 C1763 1.429 . S
C1747 H1769 0.950 . S
C1748 H1744 0.949 . S
C1748 C1756 1.574 . S
C1748 C1764 1.368 . S
H1749 C1757 0.950 . S
H1750 C1755 0.950 . S
H1751 C1756 0.949 . S
H1752 C1758 0.950 . S
H1753 C1759 0.950 . S
H1754 C1760 0.949 . S
C1755 H1750 0.950 . S
C1755 C1757 1.327 . S
C1755 C1761 1.429 . S
C1756 C1748 1.574 . S
C1756 H1751 0.949 . S
C1756 C1762 1.368 . S
C1757 C1741 1.349 . S
C1757 H1749 0.950 . S
C1757 C1755 1.327 . S
C1758 C1746 1.349 . S
C1758 H1752 0.950 . S
C1758 C1759 1.327 . S
C1759 H1753 0.950 . S
C1759 C1758 1.327 . S
C1759 C1763 1.429 . S
C1760 C1743 1.574 . S
C1760 H1754 0.949 . S
C1760 C1764 1.368 . S
C1761 C1742 1.429 . S
C1761 C1755 1.429 . S
C1761 C1762 1.523 . S
C1762 C1743 1.368 . S
C1762 C1756 1.368 . S
C1762 C1761 1.523 . S
C1763 C1747 1.429 . S
C1763 C1759 1.429 . S
C1763 C1764 1.523 . S
C1764 C1748 1.368 . S
C1764 C1760 1.368 . S
C1764 C1763 1.523 . S
H1765 C1740 0.950 . S
H1766 C1742 0.950 . S
H1767 C1743 0.949 . S
H1768 C1745 0.950 . S
H1769 C1747 0.950 . S
C1770 C1771 1.349 . S
C1770 C1772 1.327 . S
C1770 H1795 0.950 . S
C1771 C1770 1.349 . S
C1771 C1787 1.349 . S
C1772 C1770 1.327 . S
C1772 C1791 1.429 . S
C1772 H1796 0.950 . S
C1773 C1790 1.574 . S
C1773 C1792 1.368 . S
C1773 H1797 0.949 . S
H1774 C1778 0.949 . S
C1775 C1776 1.349 . S
C1775 C1777 1.327 . S
C1775 H1798 0.950 . S
C1776 C1775 1.349 . S
C1776 C1788 1.349 . S
C1777 C1775 1.327 . S
C1777 C1793 1.429 . S
C1777 H1799 0.950 . S
C1778 H1774 0.949 . S
C1778 C1786 1.574 . S
C1778 C1794 1.368 . S
H1779 C1787 0.950 . S
H1780 C1785 0.950 . S
H1781 C1786 0.949 . S
H1782 C1788 0.950 . S
H1783 C1789 0.950 . S
H1784 C1790 0.949 . S
C1785 H1780 0.950 . S
C1785 C1787 1.327 . S
C1785 C1791 1.429 . S
C1786 C1778 1.574 . S
C1786 H1781 0.949 . S
C1786 C1792 1.368 . S
C1787 C1771 1.349 . S
C1787 H1779 0.950 . S
C1787 C1785 1.327 . S
C1788 C1776 1.349 . S
C1788 H1782 0.950 . S
C1788 C1789 1.327 . S
C1789 H1783 0.950 . S
C1789 C1788 1.327 . S
C1789 C1793 1.429 . S
C1790 C1773 1.574 . S
C1790 H1784 0.949 . S
C1790 C1794 1.368 . S
C1791 C1772 1.429 . S
C1791 C1785 1.429 . S
C1791 C1792 1.523 . S
C1792 C1773 1.368 . S
C1792 C1786 1.368 . S
C1792 C1791 1.523 . S
C1793 C1777 1.429 . S
C1793 C1789 1.429 . S
C1793 C1794 1.523 . S
C1794 C1778 1.368 . S
C1794 C1790 1.368 . S
C1794 C1793 1.523 . S
H1795 C1770 0.950 . S
H1796 C1772 0.950 . S
H1797 C1773 0.949 . S
H1798 C1775 0.950 . S
H1799 C1777 0.950 . S
C1800 C1801 1.349 . S
C1800 C1802 1.327 . S
C1800 H1825 0.950 . S
C1801 C1800 1.349 . S
C1801 C1817 1.349 . S
C1802 C1800 1.327 . S
C1802 C1821 1.429 . S
C1802 H1826 0.950 . S
C1803 C1820 1.574 . S
C1803 C1822 1.368 . S
C1803 H1827 0.949 . S
H1804 C1808 0.949 . S
C1805 C1806 1.349 . S
C1805 C1807 1.327 . S
C1805 H1828 0.950 . S
C1806 C1805 1.349 . S
C1806 C1818 1.349 . S
C1807 C1805 1.327 . S
C1807 C1823 1.429 . S
C1807 H1829 0.950 . S
C1808 H1804 0.949 . S
C1808 C1816 1.574 . S
C1808 C1824 1.368 . S
H1809 C1817 0.950 . S
H1810 C1815 0.950 . S
H1811 C1816 0.949 . S
H1812 C1818 0.950 . S
H1813 C1819 0.950 . S
H1814 C1820 0.949 . S
C1815 H1810 0.950 . S
C1815 C1817 1.327 . S
C1815 C1821 1.429 . S
C1816 C1808 1.574 . S
C1816 H1811 0.949 . S
C1816 C1822 1.368 . S
C1817 C1801 1.349 . S
C1817 H1809 0.950 . S
C1817 C1815 1.327 . S
C1818 C1806 1.349 . S
C1818 H1812 0.950 . S
C1818 C1819 1.327 . S
C1819 H1813 0.950 . S
C1819 C1818 1.327 . S
C1819 C1823 1.429 . S
C1820 C1803 1.574 . S
C1820 H1814 0.949 . S
C1820 C1824 1.368 . S
C1821 C1802 1.429 . S
C1821 C1815 1.429 . S
C1821 C1822 1.523 . S
C1822 C1803 1.368 . S
C1822 C1816 1.368 . S
C1822 C1821 1.523 . S
C1823 C1807 1.429 . S
C1823 C1819 1.429 . S
C1823 C1824 1.523 . S
C1824 C1808 1.368 . S
C1824 C1820 1.368 . S
C1824 C1823 1.523 . S
H1825 C1800 0.950 . S
H1826 C1802 0.950 . S
H1827 C1803 0.949 . S
H1828 C1805 0.950 . S
H1829 C1807 0.950 . S
C1830 C1831 1.349 . S
C1830 C1832 1.327 . S
C1830 H1855 0.950 . S
C1831 C1830 1.349 . S
C1831 C1847 1.349 . S
C1832 C1830 1.327 . S
C1832 C1851 1.429 . S
C1832 H1856 0.950 . S
C1833 C1850 1.574 1_565 S
C1833 C1852 1.368 . S
C1833 H1857 0.949 . S
H1834 C1838 0.949 . S
C1835 C1836 1.349 . S
C1835 C1837 1.327 . S
C1835 H1858 0.950 . S
C1836 C1835 1.349 . S
C1836 C1848 1.349 . S
C1837 C1835 1.327 . S
C1837 C1853 1.429 . S
C1837 H1859 0.950 . S
C1838 H1834 0.949 . S
C1838 C1846 1.574 1_545 S
C1838 C1854 1.368 . S
H1839 C1847 0.950 . S
H1840 C1845 0.950 . S
H1841 C1846 0.949 . S
H1842 C1848 0.950 . S
H1843 C1849 0.950 . S
H1844 C1850 0.949 . S
C1845 H1840 0.950 . S
C1845 C1847 1.327 . S
C1845 C1851 1.429 . S
C1846 C1838 1.574 1_565 S
C1846 H1841 0.949 . S
C1846 C1852 1.368 . S
C1847 C1831 1.349 . S
C1847 H1839 0.950 . S
C1847 C1845 1.327 . S
C1848 C1836 1.349 . S
C1848 H1842 0.950 . S
C1848 C1849 1.327 . S
C1849 H1843 0.950 . S
C1849 C1848 1.327 . S
C1849 C1853 1.429 . S
C1850 C1833 1.574 1_545 S
C1850 H1844 0.949 . S
C1850 C1854 1.368 . S
C1851 C1832 1.429 . S
C1851 C1845 1.429 . S
C1851 C1852 1.523 . S
C1852 C1833 1.368 . S
C1852 C1846 1.368 . S
C1852 C1851 1.523 . S
C1853 C1837 1.429 . S
C1853 C1849 1.429 . S
C1853 C1854 1.523 . S
C1854 C1838 1.368 . S
C1854 C1850 1.368 . S
C1854 C1853 1.523 . S
H1855 C1830 0.950 . S
H1856 C1832 0.950 . S
H1857 C1833 0.949 . S
H1858 C1835 0.950 . S
H1859 C1837 0.950 . S
C1860 C1861 1.349 . S
C1860 C1862 1.327 . S
C1860 H1885 0.950 . S
C1861 C1860 1.349 . S
C1861 C1877 1.349 . S
C1862 C1860 1.327 . S
C1862 C1881 1.429 . S
C1862 H1886 0.950 . S
C1863 C1880 1.574 1_655 S
C1863 C1882 1.368 . S
C1863 H1887 0.949 . S
H1864 C1868 0.949 . S
C1865 C1866 1.349 . S
C1865 C1867 1.327 . S
C1865 H1888 0.950 . S
C1866 C1865 1.349 . S
C1866 C1878 1.349 . S
C1867 C1865 1.327 . S
C1867 C1883 1.429 . S
C1867 H1889 0.950 . S
C1868 H1864 0.949 . S
C1868 C1876 1.574 1_455 S
C1868 C1884 1.368 . S
H1869 C1877 0.950 . S
H1870 C1875 0.950 . S
H1871 C1876 0.949 . S
H1872 C1878 0.950 . S
H1873 C1879 0.950 . S
H1874 C1880 0.949 . S
C1875 H1870 0.950 . S
C1875 C1877 1.327 . S
C1875 C1881 1.429 . S
C1876 C1868 1.574 1_655 S
C1876 H1871 0.949 . S
C1876 C1882 1.368 . S
C1877 C1861 1.349 . S
C1877 H1869 0.950 . S
C1877 C1875 1.327 . S
C1878 C1866 1.349 . S
C1878 H1872 0.950 . S
C1878 C1879 1.327 . S
C1879 H1873 0.950 . S
C1879 C1878 1.327 . S
C1879 C1883 1.429 . S
C1880 C1863 1.574 1_455 S
C1880 H1874 0.949 . S
C1880 C1884 1.368 . S
C1881 C1862 1.429 . S
C1881 C1875 1.429 . S
C1881 C1882 1.523 . S
C1882 C1863 1.368 . S
C1882 C1876 1.368 . S
C1882 C1881 1.523 . S
C1883 C1867 1.429 . S
C1883 C1879 1.429 . S
C1883 C1884 1.523 . S
C1884 C1868 1.368 . S
C1884 C1880 1.368 . S
C1884 C1883 1.523 . S
H1885 C1860 0.950 . S
H1886 C1862 0.950 . S
H1887 C1863 0.949 . S
H1888 C1865 0.950 . S
H1889 C1867 0.950 . S
C1890 C1891 1.349 . S
C1890 C1892 1.327 . S
C1890 H1915 0.950 . S
C1891 C1890 1.349 . S
C1891 C1907 1.349 . S
C1892 C1890 1.327 . S
C1892 C1911 1.429 . S
C1892 H1916 0.950 . S
C1893 C1910 1.574 . S
C1893 C1912 1.368 . S
C1893 H1917 0.949 . S
H1894 C1898 0.949 . S
C1895 C1896 1.349 . S
C1895 C1897 1.327 . S
C1895 H1918 0.950 . S
C1896 C1895 1.349 . S
C1896 C1908 1.349 . S
C1897 C1895 1.327 . S
C1897 C1913 1.429 . S
C1897 H1919 0.950 . S
C1898 H1894 0.949 . S
C1898 C1906 1.574 . S
C1898 C1914 1.368 . S
H1899 C1907 0.950 . S
H1900 C1905 0.950 . S
H1901 C1906 0.949 . S
H1902 C1908 0.950 . S
H1903 C1909 0.950 . S
H1904 C1910 0.949 . S
C1905 H1900 0.950 . S
C1905 C1907 1.327 . S
C1905 C1911 1.429 . S
C1906 C1898 1.574 . S
C1906 H1901 0.949 . S
C1906 C1912 1.368 . S
C1907 C1891 1.349 . S
C1907 H1899 0.950 . S
C1907 C1905 1.327 . S
C1908 C1896 1.349 . S
C1908 H1902 0.950 . S
C1908 C1909 1.327 . S
C1909 H1903 0.950 . S
C1909 C1908 1.327 . S
C1909 C1913 1.429 . S
C1910 C1893 1.574 . S
C1910 H1904 0.949 . S
C1910 C1914 1.368 . S
C1911 C1892 1.429 . S
C1911 C1905 1.429 . S
C1911 C1912 1.523 . S
C1912 C1893 1.368 . S
C1912 C1906 1.368 . S
C1912 C1911 1.523 . S
C1913 C1897 1.429 . S
C1913 C1909 1.429 . S
C1913 C1914 1.523 . S
C1914 C1898 1.368 . S
C1914 C1910 1.368 . S
C1914 C1913 1.523 . S
H1915 C1890 0.950 . S
H1916 C1892 0.950 . S
H1917 C1893 0.949 . S
H1918 C1895 0.950 . S
H1919 C1897 0.950 . S
C1920 C1921 1.349 . S
C1920 C1922 1.327 . S
C1920 H1945 0.950 . S
C1921 C1920 1.349 . S
C1921 C1937 1.349 . S
C1922 C1920 1.327 . S
C1922 C1941 1.429 . S
C1922 H1946 0.950 . S
C1923 C1940 1.574 1_545 S
C1923 C1942 1.368 . S
C1923 H1947 0.949 . S
H1924 C1928 0.949 . S
C1925 C1926 1.349 . S
C1925 C1927 1.327 . S
C1925 H1948 0.950 . S
C1926 C1925 1.349 . S
C1926 C1938 1.349 . S
C1927 C1925 1.327 . S
C1927 C1943 1.429 . S
C1927 H1949 0.950 . S
C1928 H1924 0.949 . S
C1928 C1936 1.574 1_565 S
C1928 C1944 1.368 . S
H1929 C1937 0.950 . S
H1930 C1935 0.950 . S
H1931 C1936 0.949 . S
H1932 C1938 0.950 . S
H1933 C1939 0.950 . S
H1934 C1940 0.949 . S
C1935 H1930 0.950 . S
C1935 C1937 1.327 . S
C1935 C1941 1.429 . S
C1936 C1928 1.574 1_545 S
C1936 H1931 0.949 . S
C1936 C1942 1.368 . S
C1937 C1921 1.349 . S
C1937 H1929 0.950 . S
C1937 C1935 1.327 . S
C1938 C1926 1.349 . S
C1938 H1932 0.950 . S
C1938 C1939 1.327 . S
C1939 H1933 0.950 . S
C1939 C1938 1.327 . S
C1939 C1943 1.429 . S
C1940 C1923 1.574 1_565 S
C1940 H1934 0.949 . S
C1940 C1944 1.368 . S
C1941 C1922 1.429 . S
C1941 C1935 1.429 . S
C1941 C1942 1.523 . S
C1942 C1923 1.368 . S
C1942 C1936 1.368 . S
C1942 C1941 1.523 . S
C1943 C1927 1.429 . S
C1943 C1939 1.429 . S
C1943 C1944 1.523 . S
C1944 C1928 1.368 . S
C1944 C1940 1.368 . S
C1944 C1943 1.523 . S
H1945 C1920 0.950 . S
H1946 C1922 0.950 . S
H1947 C1923 0.949 . S
H1948 C1925 0.950 . S
H1949 C1927 0.950 . S
C1950 C1951 1.349 . S
C1950 C1952 1.327 . S
C1950 H1975 0.950 . S
C1951 C1950 1.349 . S
C1951 C1967 1.349 . S
C1952 C1950 1.327 . S
C1952 C1971 1.429 . S
C1952 H1976 0.950 . S
C1953 C1970 1.574 1_455 S
C1953 C1972 1.368 . S
C1953 H1977 0.949 . S
H1954 C1958 0.949 . S
C1955 C1956 1.349 . S
C1955 C1957 1.327 . S
C1955 H1978 0.950 . S
C1956 C1955 1.349 . S
C1956 C1968 1.349 . S
C1957 C1955 1.327 . S
C1957 C1973 1.429 . S
C1957 H1979 0.950 . S
C1958 H1954 0.949 . S
C1958 C1966 1.574 1_655 S
C1958 C1974 1.368 . S
H1959 C1967 0.950 . S
H1960 C1965 0.950 . S
H1961 C1966 0.949 . S
H1962 C1968 0.950 . S
H1963 C1969 0.950 . S
H1964 C1970 0.949 . S
C1965 H1960 0.950 . S
C1965 C1967 1.327 . S
C1965 C1971 1.429 . S
C1966 C1958 1.574 1_455 S
C1966 H1961 0.949 . S
C1966 C1972 1.368 . S
C1967 C1951 1.349 . S
C1967 H1959 0.950 . S
C1967 C1965 1.327 . S
C1968 C1956 1.349 . S
C1968 H1962 0.950 . S
C1968 C1969 1.327 . S
C1969 H1963 0.950 . S
C1969 C1968 1.327 . S
C1969 C1973 1.429 . S
C1970 C1953 1.574 1_655 S
C1970 H1964 0.949 . S
C1970 C1974 1.368 . S
C1971 C1952 1.429 . S
C1971 C1965 1.429 . S
C1971 C1972 1.523 . S
C1972 C1953 1.368 . S
C1972 C1966 1.368 . S
C1972 C1971 1.523 . S
C1973 C1957 1.429 . S
C1973 C1969 1.429 . S
C1973 C1974 1.523 . S
C1974 C1958 1.368 . S
C1974 C1970 1.368 . S
C1974 C1973 1.523 . S
H1975 C1950 0.950 . S
H1976 C1952 0.950 . S
H1977 C1953 0.949 . S
H1978 C1955 0.950 . S
H1979 C1957 0.950 . S
C1980 C1981 1.349 . S
C1980 C1982 1.327 . S
C1980 H2005 0.950 . S
C1981 C1980 1.349 . S
C1981 C1997 1.349 . S
C1982 C1980 1.327 . S
C1982 C2001 1.429 . S
C1982 H2006 1.004 . S
C1983 C2000 1.574 . S
C1983 C2002 1.368 . S
C1983 H2007 0.949 . S
H1984 C1988 0.949 . S
C1985 C1986 1.349 . S
C1985 C1987 1.327 . S
C1985 H2008 0.950 . S
C1986 C1985 1.349 . S
C1986 C1998 1.349 . S
C1987 C1985 1.327 . S
C1987 C2003 1.429 . S
C1987 H2009 1.002 . S
C1988 H1984 0.949 . S
C1988 C1996 1.574 . S
C1988 C2004 1.368 . S
H1989 C1997 0.950 . S
H1990 C1995 0.950 . S
H1991 C1996 0.949 . S
H1992 C1998 0.950 . S
H1993 C1999 0.950 . S
H1994 C2000 0.949 . S
C1995 H1990 0.950 . S
C1995 C1997 1.327 . S
C1995 C2001 1.429 . S
C1996 C1988 1.574 . S
C1996 H1991 0.949 . S
C1996 C2002 1.368 1_655 S
C1997 C1981 1.349 . S
C1997 H1989 0.950 . S
C1997 C1995 1.327 . S
C1998 C1986 1.349 . S
C1998 H1992 0.950 . S
C1998 C1999 1.327 . S
C1999 H1993 0.950 . S
C1999 C1998 1.327 . S
C1999 C2003 1.429 . S
C2000 C1983 1.574 . S
C2000 H1994 0.949 . S
C2000 C2004 1.368 1_455 S
C2001 C1982 1.429 . S
C2001 C1995 1.429 . S
C2001 C2002 1.523 . S
C2002 C1983 1.368 . S
C2002 C1996 1.368 1_455 S
C2002 C2001 1.523 . S
C2003 C1987 1.429 . S
C2003 C1999 1.429 . S
C2003 C2004 1.523 . S
C2004 C1988 1.368 . S
C2004 C2000 1.368 1_655 S
C2004 C2003 1.523 . S
H2005 C1980 0.950 . S
H2006 C1982 1.004 . S
H2007 C1983 0.949 . S
H2008 C1985 0.950 . S
H2009 C1987 1.002 . S
C2010 C2011 1.349 . S
C2010 C2012 1.327 . S
C2010 H2035 0.950 . S
C2011 C2010 1.349 . S
C2011 C2027 1.349 . S
C2012 C2010 1.327 . S
C2012 C2031 1.429 . S
C2012 H2036 0.950 . S
C2013 C2030 1.574 . S
C2013 C2032 1.368 . S
C2013 H2037 0.949 . S
H2014 C2018 0.949 . S
C2015 C2016 1.349 . S
C2015 C2017 1.327 . S
C2015 H2038 0.950 . S
C2016 C2015 1.349 . S
C2016 C2028 1.349 . S
C2017 C2015 1.327 . S
C2017 C2033 1.429 . S
C2017 H2039 0.950 . S
C2018 H2014 0.949 . S
C2018 C2026 1.574 . S
C2018 C2034 1.368 . S
H2019 C2027 0.950 . S
H2020 C2025 0.950 . S
H2021 C2026 0.949 . S
H2022 C2028 0.950 . S
H2023 C2029 0.950 . S
H2024 C2030 0.949 . S
C2025 H2020 0.950 . S
C2025 C2027 1.327 . S
C2025 C2031 1.429 . S
C2026 C2018 1.574 . S
C2026 H2021 0.949 . S
C2026 C2032 1.368 . S
C2027 C2011 1.349 . S
C2027 H2019 0.950 . S
C2027 C2025 1.327 . S
C2028 C2016 1.349 . S
C2028 H2022 0.950 . S
C2028 C2029 1.327 . S
C2029 H2023 0.950 . S
C2029 C2028 1.327 . S
C2029 C2033 1.429 . S
C2030 C2013 1.574 . S
C2030 H2024 0.949 . S
C2030 C2034 1.368 . S
C2031 C2012 1.429 . S
C2031 C2025 1.429 . S
C2031 C2032 1.523 . S
C2032 C2013 1.368 . S
C2032 C2026 1.368 . S
C2032 C2031 1.523 . S
C2033 C2017 1.429 . S
C2033 C2029 1.429 . S
C2033 C2034 1.523 . S
C2034 C2018 1.368 . S
C2034 C2030 1.368 . S
C2034 C2033 1.523 . S
H2035 C2010 0.950 . S
H2036 C2012 0.950 . S
H2037 C2013 0.949 . S
H2038 C2015 0.950 . S
H2039 C2017 0.950 . S
C2040 C2041 1.349 . S
C2040 C2042 1.327 . S
C2040 H2065 0.950 . S
C2041 C2040 1.349 . S
C2041 C2057 1.349 . S
C2042 C2040 1.327 . S
C2042 C2061 1.429 . S
C2042 H2066 0.950 . S
C2043 C2060 1.574 . S
C2043 C2062 1.368 1_545 S
C2043 H2067 0.949 . S
H2044 C2048 0.949 . S
C2045 C2046 1.349 . S
C2045 C2047 1.327 . S
C2045 H2068 0.950 . S
C2046 C2045 1.349 . S
C2046 C2058 1.349 . S
C2047 C2045 1.327 . S
C2047 C2063 1.429 . S
C2047 H2069 0.950 . S
C2048 H2044 0.949 . S
C2048 C2056 1.574 . S
C2048 C2064 1.368 1_565 S
H2049 C2057 0.950 . S
H2050 C2055 0.950 . S
H2051 C2056 0.949 . S
H2052 C2058 0.950 . S
H2053 C2059 0.950 . S
H2054 C2060 0.949 . S
C2055 H2050 0.950 . S
C2055 C2057 1.327 . S
C2055 C2061 1.429 . S
C2056 C2048 1.574 . S
C2056 H2051 0.949 . S
C2056 C2062 1.368 . S
C2057 C2041 1.349 . S
C2057 H2049 0.950 . S
C2057 C2055 1.327 . S
C2058 C2046 1.349 . S
C2058 H2052 0.950 . S
C2058 C2059 1.327 . S
C2059 H2053 0.950 . S
C2059 C2058 1.327 . S
C2059 C2063 1.429 . S
C2060 C2043 1.574 . S
C2060 H2054 0.949 . S
C2060 C2064 1.368 . S
C2061 C2042 1.429 . S
C2061 C2055 1.429 . S
C2061 C2062 1.523 . S
C2062 C2043 1.368 1_565 S
C2062 C2056 1.368 . S
C2062 C2061 1.523 . S
C2063 C2047 1.429 . S
C2063 C2059 1.429 . S
C2063 C2064 1.523 . S
C2064 C2048 1.368 1_545 S
C2064 C2060 1.368 . S
C2064 C2063 1.523 . S
H2065 C2040 0.950 . S
H2066 C2042 0.950 . S
H2067 C2043 0.949 . S
H2068 C2045 0.950 . S
H2069 C2047 0.950 . S
C2070 C2071 1.349 . S
C2070 C2072 1.327 . S
C2070 H2095 0.950 . S
C2071 C2070 1.349 . S
C2071 C2087 1.349 . S
C2072 C2070 1.327 . S
C2072 C2091 1.429 . S
C2072 H2096 0.950 . S
C2073 C2090 1.576 . S
C2073 C2092 1.368 . S
C2073 H2097 0.949 . S
H2074 C2078 0.949 . S
C2075 C2076 1.349 . S
C2075 C2077 1.327 . S
C2075 H2098 0.950 . S
C2076 C2075 1.349 . S
C2076 C2088 1.349 . S
C2077 C2075 1.327 . S
C2077 C2093 1.429 . S
C2077 H2099 0.950 . S
C2078 H2074 0.949 . S
C2078 C2086 1.577 . S
C2078 C2094 1.368 . S
H2079 C2087 0.950 . S
H2080 C2085 0.950 . S
H2081 C2086 0.946 . S
H2082 C2088 0.950 . S
H2083 C2089 0.950 . S
H2084 C2090 0.946 . S
C2085 H2080 0.950 . S
C2085 C2087 1.327 . S
C2085 C2091 1.429 . S
C2086 C2078 1.577 . S
C2086 H2081 0.946 . S
C2086 C2092 1.368 1_455 S
C2087 C2071 1.349 . S
C2087 H2079 0.950 . S
C2087 C2085 1.327 . S
C2088 C2076 1.349 . S
C2088 H2082 0.950 . S
C2088 C2089 1.327 . S
C2089 H2083 0.950 . S
C2089 C2088 1.327 . S
C2089 C2093 1.429 . S
C2090 C2073 1.576 . S
C2090 H2084 0.946 . S
C2090 C2094 1.368 1_655 S
C2091 C2072 1.429 . S
C2091 C2085 1.429 . S
C2091 C2092 1.523 . S
C2092 C2073 1.368 . S
C2092 C2086 1.368 1_655 S
C2092 C2091 1.523 . S
C2093 C2077 1.429 . S
C2093 C2089 1.429 . S
C2093 C2094 1.523 . S
C2094 C2078 1.368 . S
C2094 C2090 1.368 1_455 S
C2094 C2093 1.523 . S
H2095 C2070 0.950 . S
H2096 C2072 0.950 . S
H2097 C2073 0.949 . S
H2098 C2075 0.950 . S
H2099 C2077 0.950 . S
C2100 C2101 1.349 . S
C2100 C2102 1.327 . S
C2100 H2125 0.950 . S
C2101 C2100 1.349 . S
C2101 C2117 1.349 . S
C2102 C2100 1.327 . S
C2102 C2121 1.429 . S
C2102 H2126 0.950 . S
C2103 C2120 1.574 . S
C2103 C2122 1.368 . S
C2103 H2127 0.949 . S
H2104 C2108 0.949 . S
C2105 C2106 1.349 . S
C2105 C2107 1.327 . S
C2105 H2128 0.950 . S
C2106 C2105 1.349 . S
C2106 C2118 1.349 . S
C2107 C2105 1.327 . S
C2107 C2123 1.429 . S
C2107 H2129 0.950 . S
C2108 H2104 0.949 . S
C2108 C2116 1.574 . S
C2108 C2124 1.368 . S
H2109 C2117 0.950 . S
H2110 C2115 0.950 . S
H2111 C2116 0.949 . S
H2112 C2118 0.950 . S
H2113 C2119 0.950 . S
H2114 C2120 0.949 . S
C2115 H2110 0.950 . S
C2115 C2117 1.327 . S
C2115 C2121 1.429 . S
C2116 C2108 1.574 . S
C2116 H2111 0.949 . S
C2116 C2122 1.368 . S
C2117 C2101 1.349 . S
C2117 H2109 0.950 . S
C2117 C2115 1.327 . S
C2118 C2106 1.349 . S
C2118 H2112 0.950 . S
C2118 C2119 1.327 . S
C2119 H2113 0.950 . S
C2119 C2118 1.327 . S
C2119 C2123 1.429 . S
C2120 C2103 1.574 . S
C2120 H2114 0.949 . S
C2120 C2124 1.368 . S
C2121 C2102 1.429 . S
C2121 C2115 1.429 . S
C2121 C2122 1.523 . S
C2122 C2103 1.368 . S
C2122 C2116 1.368 . S
C2122 C2121 1.523 . S
C2123 C2107 1.429 . S
C2123 C2119 1.429 . S
C2123 C2124 1.523 . S
C2124 C2108 1.368 . S
C2124 C2120 1.368 . S
C2124 C2123 1.523 . S
H2125 C2100 0.950 . S
H2126 C2102 0.950 . S
H2127 C2103 0.949 . S
H2128 C2105 0.950 . S
H2129 C2107 0.950 . S
C2130 C2131 1.349 . S
C2130 C2132 1.327 . S
C2130 H2155 0.950 . S
C2131 C2130 1.349 . S
C2131 C2147 1.349 . S
C2132 C2130 1.327 . S
C2132 C2151 1.429 . S
C2132 H2156 0.998 . S
C2133 C2150 1.574 . S
C2133 C2152 1.368 . S
C2133 H2157 0.949 . S
H2134 C2138 0.949 . S
C2135 C2136 1.349 . S
C2135 C2137 1.327 . S
C2135 H2158 0.950 . S
C2136 C2135 1.349 . S
C2136 C2148 1.349 . S
C2137 C2135 1.327 . S
C2137 C2153 1.429 . S
C2137 H2159 1.000 . S
C2138 H2134 0.949 . S
C2138 C2146 1.574 . S
C2138 C2154 1.368 . S
H2139 C2147 0.950 . S
H2140 C2145 0.950 . S
H2141 C2146 0.949 . S
H2142 C2148 0.950 . S
H2143 C2149 0.950 . S
H2144 C2150 0.949 . S
C2145 H2140 0.950 . S
C2145 C2147 1.327 . S
C2145 C2151 1.429 . S
C2146 C2138 1.574 . S
C2146 H2141 0.949 . S
C2146 C2152 1.368 1_565 S
C2147 C2131 1.349 . S
C2147 H2139 0.950 . S
C2147 C2145 1.327 . S
C2148 C2136 1.349 . S
C2148 H2142 0.950 . S
C2148 C2149 1.327 . S
C2149 H2143 0.950 . S
C2149 C2148 1.327 . S
C2149 C2153 1.429 . S
C2150 C2133 1.574 . S
C2150 H2144 0.949 . S
C2150 C2154 1.368 1_545 S
C2151 C2132 1.429 . S
C2151 C2145 1.429 . S
C2151 C2152 1.523 . S
C2152 C2133 1.368 . S
C2152 C2146 1.368 1_545 S
C2152 C2151 1.523 . S
C2153 C2137 1.429 . S
C2153 C2149 1.429 . S
C2153 C2154 1.523 . S
C2154 C2138 1.368 . S
C2154 C2150 1.368 1_565 S
C2154 C2153 1.523 . S
H2155 C2130 0.950 . S
H2156 C2132 0.998 . S
H2157 C2133 0.949 . S
H2158 C2135 0.950 . S
H2159 C2137 1.000 . S
C2160 C2161 1.349 . S
C2160 C2162 1.327 . S
C2160 H2185 0.950 . S
C2161 C2160 1.349 . S
C2161 C2177 1.349 . S
C2162 C2160 1.327 . S
C2162 C2181 1.429 . S
C2162 H2186 0.950 . S
C2163 C2180 1.574 . S
C2163 C2182 1.368 . S
C2163 H2187 0.949 . S
H2164 C2168 0.949 . S
C2165 C2166 1.349 . S
C2165 C2167 1.327 . S
C2165 H2188 0.950 . S
C2166 C2165 1.349 . S
C2166 C2178 1.349 . S
C2167 C2165 1.327 . S
C2167 C2183 1.429 . S
C2167 H2189 0.950 . S
C2168 H2164 0.949 . S
C2168 C2176 1.574 . S
C2168 C2184 1.368 . S
H2169 C2177 0.950 . S
H2170 C2175 0.950 . S
H2171 C2176 0.949 . S
H2172 C2178 0.950 . S
H2173 C2179 0.950 . S
H2174 C2180 0.949 . S
C2175 H2170 0.950 . S
C2175 C2177 1.327 . S
C2175 C2181 1.429 . S
C2176 C2168 1.574 . S
C2176 H2171 0.949 . S
C2176 C2182 1.368 . S
C2177 C2161 1.349 . S
C2177 H2169 0.950 . S
C2177 C2175 1.327 . S
C2178 C2166 1.349 . S
C2178 H2172 0.950 . S
C2178 C2179 1.327 . S
C2179 H2173 0.950 . S
C2179 C2178 1.327 . S
C2179 C2183 1.429 . S
C2180 C2163 1.574 . S
C2180 H2174 0.949 . S
C2180 C2184 1.368 . S
C2181 C2162 1.429 . S
C2181 C2175 1.429 . S
C2181 C2182 1.523 . S
C2182 C2163 1.368 . S
C2182 C2176 1.368 . S
C2182 C2181 1.523 . S
C2183 C2167 1.429 . S
C2183 C2179 1.429 . S
C2183 C2184 1.523 . S
C2184 C2168 1.368 . S
C2184 C2180 1.368 . S
C2184 C2183 1.523 . S
H2185 C2160 0.950 . S
H2186 C2162 0.950 . S
H2187 C2163 0.949 . S
H2188 C2165 0.950 . S
H2189 C2167 0.950 . S
C2190 C2191 1.349 . S
C2190 C2192 1.327 . S
C2190 H2215 0.950 . S
C2191 C2190 1.349 . S
C2191 C2207 1.349 . S
C2192 C2190 1.327 . S
C2192 C2211 1.429 . S
C2192 H2216 0.950 . S
C2193 C2210 1.574 . S
C2193 C2212 1.368 . S
C2193 H2217 0.949 . S
H2194 C2198 0.949 . S
C2195 C2196 1.349 . S
C2195 C2197 1.327 . S
C2195 H2218 0.950 . S
C2196 C2195 1.349 . S
C2196 C2208 1.349 . S
C2197 C2195 1.327 . S
C2197 C2213 1.429 . S
C2197 H2219 0.950 . S
C2198 H2194 0.949 . S
C2198 C2206 1.574 . S
C2198 C2214 1.368 . S
H2199 C2207 0.950 . S
H2200 C2205 0.950 . S
H2201 C2206 0.949 . S
H2202 C2208 0.950 . S
H2203 C2209 0.950 . S
H2204 C2210 0.949 . S
C2205 H2200 0.950 . S
C2205 C2207 1.327 . S
C2205 C2211 1.429 . S
C2206 C2198 1.574 . S
C2206 H2201 0.949 . S
C2206 C2212 1.368 . S
C2207 C2191 1.349 . S
C2207 H2199 0.950 . S
C2207 C2205 1.327 . S
C2208 C2196 1.349 . S
C2208 H2202 0.950 . S
C2208 C2209 1.327 . S
C2209 H2203 0.950 . S
C2209 C2208 1.327 . S
C2209 C2213 1.429 . S
C2210 C2193 1.574 . S
C2210 H2204 0.949 . S
C2210 C2214 1.368 . S
C2211 C2192 1.429 . S
C2211 C2205 1.429 . S
C2211 C2212 1.523 . S
C2212 C2193 1.368 . S
C2212 C2206 1.368 . S
C2212 C2211 1.523 . S
C2213 C2197 1.429 . S
C2213 C2209 1.429 . S
C2213 C2214 1.523 . S
C2214 C2198 1.368 . S
C2214 C2210 1.368 . S
C2214 C2213 1.523 . S
H2215 C2190 0.950 . S
H2216 C2192 0.950 . S
H2217 C2193 0.949 . S
H2218 C2195 0.950 . S
H2219 C2197 0.950 . S
C2220 C2221 1.349 . S
C2220 C2222 1.327 . S
C2220 H2245 0.950 . S
C2221 C2220 1.349 . S
C2221 C2237 1.349 . S
C2222 C2220 1.327 . S
C2222 C2241 1.429 . S
C2222 H2246 0.950 . S
C2223 C2240 1.574 . S
C2223 C2242 1.368 . S
C2223 H2247 0.949 . S
H2224 C2228 0.949 . S
C2225 C2226 1.349 . S
C2225 C2227 1.327 . S
C2225 H2248 0.950 . S
C2226 C2225 1.349 . S
C2226 C2238 1.349 . S
C2227 C2225 1.327 . S
C2227 C2243 1.429 . S
C2227 H2249 0.950 . S
C2228 H2224 0.949 . S
C2228 C2236 1.574 . S
C2228 C2244 1.368 . S
H2229 C2237 0.950 . S
H2230 C2235 0.950 . S
H2231 C2236 0.949 . S
H2232 C2238 0.950 . S
H2233 C2239 0.950 . S
H2234 C2240 0.949 . S
C2235 H2230 0.950 . S
C2235 C2237 1.327 . S
C2235 C2241 1.429 . S
C2236 C2228 1.574 . S
C2236 H2231 0.949 . S
C2236 C2242 1.368 . S
C2237 C2221 1.349 . S
C2237 H2229 0.950 . S
C2237 C2235 1.327 . S
C2238 C2226 1.349 . S
C2238 H2232 0.950 . S
C2238 C2239 1.327 . S
C2239 H2233 0.950 . S
C2239 C2238 1.327 . S
C2239 C2243 1.429 . S
C2240 C2223 1.574 . S
C2240 H2234 0.949 . S
C2240 C2244 1.368 . S
C2241 C2222 1.429 . S
C2241 C2235 1.429 . S
C2241 C2242 1.523 . S
C2242 C2223 1.368 . S
C2242 C2236 1.368 . S
C2242 C2241 1.523 . S
C2243 C2227 1.429 . S
C2243 C2239 1.429 . S
C2243 C2244 1.523 . S
C2244 C2228 1.368 . S
C2244 C2240 1.368 . S
C2244 C2243 1.523 . S
H2245 C2220 0.950 . S
H2246 C2222 0.950 . S
H2247 C2223 0.949 . S
H2248 C2225 0.950 . S
H2249 C2227 0.950 . S
C2250 C2251 1.349 . S
C2250 C2252 1.327 . S
C2250 H2275 0.950 . S
C2251 C2250 1.349 . S
C2251 C2267 1.349 . S
C2252 C2250 1.327 . S
C2252 C2271 1.429 . S
C2252 H2276 0.950 . S
C2253 C2270 1.574 . S
C2253 C2272 1.368 . S
C2253 H2277 0.949 . S
H2254 C2258 0.949 . S
C2255 C2256 1.349 . S
C2255 C2257 1.327 . S
C2255 H2278 0.950 . S
C2256 C2255 1.349 . S
C2256 C2268 1.349 . S
C2257 C2255 1.327 . S
C2257 C2273 1.429 . S
C2257 H2279 0.950 . S
C2258 H2254 0.949 . S
C2258 C2266 1.574 . S
C2258 C2274 1.368 . S
H2259 C2267 0.950 . S
H2260 C2265 0.950 . S
H2261 C2266 0.949 . S
H2262 C2268 0.950 . S
H2263 C2269 0.950 . S
H2264 C2270 0.949 . S
C2265 H2260 0.950 . S
C2265 C2267 1.327 . S
C2265 C2271 1.429 . S
C2266 C2258 1.574 . S
C2266 H2261 0.949 . S
C2266 C2272 1.368 . S
C2267 C2251 1.349 . S
C2267 H2259 0.950 . S
C2267 C2265 1.327 . S
C2268 C2256 1.349 . S
C2268 H2262 0.950 . S
C2268 C2269 1.327 . S
C2269 H2263 0.950 . S
C2269 C2268 1.327 . S
C2269 C2273 1.429 . S
C2270 C2253 1.574 . S
C2270 H2264 0.949 . S
C2270 C2274 1.368 . S
C2271 C2252 1.429 . S
C2271 C2265 1.429 . S
C2271 C2272 1.523 . S
C2272 C2253 1.368 . S
C2272 C2266 1.368 . S
C2272 C2271 1.523 . S
C2273 C2257 1.429 . S
C2273 C2269 1.429 . S
C2273 C2274 1.523 . S
C2274 C2258 1.368 . S
C2274 C2270 1.368 . S
C2274 C2273 1.523 . S
H2275 C2250 0.950 . S
H2276 C2252 0.950 . S
H2277 C2253 0.949 . S
H2278 C2255 0.950 . S
H2279 C2257 0.950 . S
C2280 C2281 1.349 . S
C2280 C2282 1.327 . S
C2280 H2305 0.950 . S
C2281 C2280 1.349 . S
C2281 C2297 1.349 . S
C2282 C2280 1.327 . S
C2282 C2301 1.429 . S
C2282 H2306 0.950 . S
C2283 C2300 1.574 . S
C2283 C2302 1.368 . S
C2283 H2307 0.949 . S
H2284 C2288 0.949 . S
C2285 C2286 1.349 . S
C2285 C2287 1.327 . S
C2285 H2308 0.950 . S
C2286 C2285 1.349 . S
C2286 C2298 1.349 . S
C2287 C2285 1.327 . S
C2287 C2303 1.429 . S
C2287 H2309 0.950 . S
C2288 H2284 0.949 . S
C2288 C2296 1.574 . S
C2288 C2304 1.368 . S
H2289 C2297 0.950 . S
H2290 C2295 0.950 . S
H2291 C2296 0.949 . S
H2292 C2298 0.950 . S
H2293 C2299 0.950 . S
H2294 C2300 0.949 . S
C2295 H2290 0.950 . S
C2295 C2297 1.327 . S
C2295 C2301 1.429 . S
C2296 C2288 1.574 . S
C2296 H2291 0.949 . S
C2296 C2302 1.368 . S
C2297 C2281 1.349 . S
C2297 H2289 0.950 . S
C2297 C2295 1.327 . S
C2298 C2286 1.349 . S
C2298 H2292 0.950 . S
C2298 C2299 1.327 . S
C2299 H2293 0.950 . S
C2299 C2298 1.327 . S
C2299 C2303 1.429 . S
C2300 C2283 1.574 . S
C2300 H2294 0.949 . S
C2300 C2304 1.368 . S
C2301 C2282 1.429 . S
C2301 C2295 1.429 . S
C2301 C2302 1.523 . S
C2302 C2283 1.368 . S
C2302 C2296 1.368 . S
C2302 C2301 1.523 . S
C2303 C2287 1.429 . S
C2303 C2299 1.429 . S
C2303 C2304 1.523 . S
C2304 C2288 1.368 . S
C2304 C2300 1.368 . S
C2304 C2303 1.523 . S
H2305 C2280 0.950 . S
H2306 C2282 0.950 . S
H2307 C2283 0.949 . S
H2308 C2285 0.950 . S
H2309 C2287 0.950 . S
C2310 C2311 1.349 . S
C2310 C2312 1.327 . S
C2310 H2335 0.950 . S
C2311 C2310 1.349 . S
C2311 C2327 1.349 . S
C2312 C2310 1.327 . S
C2312 C2331 1.429 . S
C2312 H2336 0.950 . S
C2313 C2330 1.574 . S
C2313 C2332 1.368 . S
C2313 H2337 0.949 . S
H2314 C2318 0.949 . S
C2315 C2316 1.349 . S
C2315 C2317 1.327 . S
C2315 H2338 0.950 . S
C2316 C2315 1.349 . S
C2316 C2328 1.349 . S
C2317 C2315 1.327 . S
C2317 C2333 1.429 . S
C2317 H2339 0.950 . S
C2318 H2314 0.949 . S
C2318 C2326 1.574 . S
C2318 C2334 1.368 . S
H2319 C2327 0.950 . S
H2320 C2325 0.950 . S
H2321 C2326 0.949 . S
H2322 C2328 0.950 . S
H2323 C2329 0.950 . S
H2324 C2330 0.949 . S
C2325 H2320 0.950 . S
C2325 C2327 1.327 . S
C2325 C2331 1.429 . S
C2326 C2318 1.574 . S
C2326 H2321 0.949 . S
C2326 C2332 1.368 . S
C2327 C2311 1.349 . S
C2327 H2319 0.950 . S
C2327 C2325 1.327 . S
C2328 C2316 1.349 . S
C2328 H2322 0.950 . S
C2328 C2329 1.327 . S
C2329 H2323 0.950 . S
C2329 C2328 1.327 . S
C2329 C2333 1.429 . S
C2330 C2313 1.574 . S
C2330 H2324 0.949 . S
C2330 C2334 1.368 . S
C2331 C2312 1.429 . S
C2331 C2325 1.429 . S
C2331 C2332 1.523 . S
C2332 C2313 1.368 . S
C2332 C2326 1.368 . S
C2332 C2331 1.523 . S
C2333 C2317 1.429 . S
C2333 C2329 1.429 . S
C2333 C2334 1.523 . S
C2334 C2318 1.368 . S
C2334 C2330 1.368 . S
C2334 C2333 1.523 . S
H2335 C2310 0.950 . S
H2336 C2312 0.950 . S
H2337 C2313 0.949 . S
H2338 C2315 0.950 . S
H2339 C2317 0.950 . S
C2340 C2341 1.349 . S
C2340 C2342 1.327 . S
C2340 H2365 0.950 . S
C2341 C2340 1.349 . S
C2341 C2357 1.349 . S
C2342 C2340 1.327 . S
C2342 C2361 1.429 . S
C2342 H2366 0.950 . S
C2343 C2360 1.574 . S
C2343 C2362 1.368 . S
C2343 H2367 0.949 . S
H2344 C2348 0.949 . S
C2345 C2346 1.349 . S
C2345 C2347 1.327 . S
C2345 H2368 0.950 . S
C2346 C2345 1.349 . S
C2346 C2358 1.349 . S
C2347 C2345 1.327 . S
C2347 C2363 1.429 . S
C2347 H2369 0.950 . S
C2348 H2344 0.949 . S
C2348 C2356 1.574 . S
C2348 C2364 1.368 . S
H2349 C2357 0.950 . S
H2350 C2355 0.950 . S
H2351 C2356 0.949 . S
H2352 C2358 0.950 . S
H2353 C2359 0.950 . S
H2354 C2360 0.949 . S
C2355 H2350 0.950 . S
C2355 C2357 1.327 . S
C2355 C2361 1.429 . S
C2356 C2348 1.574 . S
C2356 H2351 0.949 . S
C2356 C2362 1.368 . S
C2357 C2341 1.349 . S
C2357 H2349 0.950 . S
C2357 C2355 1.327 . S
C2358 C2346 1.349 . S
C2358 H2352 0.950 . S
C2358 C2359 1.327 . S
C2359 H2353 0.950 . S
C2359 C2358 1.327 . S
C2359 C2363 1.429 . S
C2360 C2343 1.574 . S
C2360 H2354 0.949 . S
C2360 C2364 1.368 . S
C2361 C2342 1.429 . S
C2361 C2355 1.429 . S
C2361 C2362 1.523 . S
C2362 C2343 1.368 . S
C2362 C2356 1.368 . S
C2362 C2361 1.523 . S
C2363 C2347 1.429 . S
C2363 C2359 1.429 . S
C2363 C2364 1.523 . S
C2364 C2348 1.368 . S
C2364 C2360 1.368 . S
C2364 C2363 1.523 . S
H2365 C2340 0.950 . S
H2366 C2342 0.950 . S
H2367 C2343 0.949 . S
H2368 C2345 0.950 . S
H2369 C2347 0.950 . S
C2370 C2371 1.349 . S
C2370 C2372 1.327 . S
C2370 H2395 0.950 . S
C2371 C2370 1.349 . S
C2371 C2387 1.349 . S
C2372 C2370 1.327 . S
C2372 C2391 1.429 . S
C2372 H2396 0.950 . S
C2373 C2390 1.574 . S
C2373 C2392 1.368 . S
C2373 H2397 0.949 . S
H2374 C2378 0.949 . S
C2375 C2376 1.349 . S
C2375 C2377 1.327 . S
C2375 H2398 0.950 . S
C2376 C2375 1.349 . S
C2376 C2388 1.349 . S
C2377 C2375 1.327 . S
C2377 C2393 1.429 . S
C2377 H2399 0.950 . S
C2378 H2374 0.949 . S
C2378 C2386 1.574 . S
C2378 C2394 1.368 . S
H2379 C2387 0.950 . S
H2380 C2385 0.950 . S
H2381 C2386 0.949 . S
H2382 C2388 0.950 . S
H2383 C2389 0.950 . S
H2384 C2390 0.949 . S
C2385 H2380 0.950 . S
C2385 C2387 1.327 . S
C2385 C2391 1.429 . S
C2386 C2378 1.574 . S
C2386 H2381 0.949 . S
C2386 C2392 1.368 . S
C2387 C2371 1.349 . S
C2387 H2379 0.950 . S
C2387 C2385 1.327 . S
C2388 C2376 1.349 . S
C2388 H2382 0.950 . S
C2388 C2389 1.327 . S
C2389 H2383 0.950 . S
C2389 C2388 1.327 . S
C2389 C2393 1.429 . S
C2390 C2373 1.574 . S
C2390 H2384 0.949 . S
C2390 C2394 1.368 . S
C2391 C2372 1.429 . S
C2391 C2385 1.429 . S
C2391 C2392 1.523 . S
C2392 C2373 1.368 . S
C2392 C2386 1.368 . S
C2392 C2391 1.523 . S
C2393 C2377 1.429 . S
C2393 C2389 1.429 . S
C2393 C2394 1.523 . S
C2394 C2378 1.368 . S
C2394 C2390 1.368 . S
C2394 C2393 1.523 . S
H2395 C2370 0.950 . S
H2396 C2372 0.950 . S
H2397 C2373 0.949 . S
H2398 C2375 0.950 . S
H2399 C2377 0.950 . S
C2400 C2401 1.349 . S
C2400 C2402 1.327 . S
C2400 H2425 0.950 . S
C2401 C2400 1.349 . S
C2401 C2417 1.349 . S
C2402 C2400 1.327 . S
C2402 C2421 1.429 . S
C2402 H2426 0.950 . S
C2403 C2420 1.574 . S
C2403 C2422 1.368 . S
C2403 H2427 0.949 . S
H2404 C2408 0.949 . S
C2405 C2406 1.349 . S
C2405 C2407 1.327 . S
C2405 H2428 0.950 . S
C2406 C2405 1.349 . S
C2406 C2418 1.349 . S
C2407 C2405 1.327 . S
C2407 C2423 1.429 . S
C2407 H2429 0.950 . S
C2408 H2404 0.949 . S
C2408 C2416 1.574 . S
C2408 C2424 1.368 . S
H2409 C2417 0.950 . S
H2410 C2415 0.950 . S
H2411 C2416 0.949 . S
H2412 C2418 0.950 . S
H2413 C2419 0.950 . S
H2414 C2420 0.949 . S
C2415 H2410 0.950 . S
C2415 C2417 1.327 . S
C2415 C2421 1.429 . S
C2416 C2408 1.574 . S
C2416 H2411 0.949 . S
C2416 C2422 1.368 . S
C2417 C2401 1.349 . S
C2417 H2409 0.950 . S
C2417 C2415 1.327 . S
C2418 C2406 1.349 . S
C2418 H2412 0.950 . S
C2418 C2419 1.327 . S
C2419 H2413 0.950 . S
C2419 C2418 1.327 . S
C2419 C2423 1.429 . S
C2420 C2403 1.574 . S
C2420 H2414 0.949 . S
C2420 C2424 1.368 . S
C2421 C2402 1.429 . S
C2421 C2415 1.429 . S
C2421 C2422 1.523 . S
C2422 C2403 1.368 . S
C2422 C2416 1.368 . S
C2422 C2421 1.523 . S
C2423 C2407 1.429 . S
C2423 C2419 1.429 . S
C2423 C2424 1.523 . S
C2424 C2408 1.368 . S
C2424 C2420 1.368 . S
C2424 C2423 1.523 . S
H2425 C2400 0.950 . S
H2426 C2402 0.950 . S
H2427 C2403 0.949 . S
H2428 C2405 0.950 . S
H2429 C2407 0.950 . S
C2430 C2431 1.349 . S
C2430 C2432 1.327 . S
C2430 H2455 0.950 . S
C2431 C2430 1.349 . S
C2431 C2447 1.349 . S
C2432 C2430 1.327 . S
C2432 C2451 1.429 . S
C2432 H2456 0.950 . S
C2433 C2450 1.595 . S
C2433 C2452 1.367 1_554 S
C2433 H2457 0.932 1_554 S
H2434 C2438 0.949 . S
C2435 C2436 1.349 . S
C2435 C2437 1.327 . S
C2435 H2458 0.950 . S
C2436 C2435 1.349 . S
C2436 C2448 1.349 . S
C2437 C2435 1.327 . S
C2437 C2453 1.429 . S
C2437 H2459 0.950 . S
C2438 H2434 0.949 . S
C2438 C2446 1.574 . S
C2438 C2454 1.368 . S
H2439 C2447 0.950 . S
H2440 C2445 0.950 . S
H2441 C2446 0.949 . S
H2442 C2448 0.950 . S
H2443 C2449 0.950 . S
H2444 C2450 0.949 . S
C2445 H2440 0.950 . S
C2445 C2447 1.327 . S
C2445 C2451 1.429 . S
C2446 C2438 1.574 . S
C2446 H2441 0.949 . S
C2446 C2452 1.368 1_554 S
C2447 C2431 1.349 . S
C2447 H2439 0.950 . S
C2447 C2445 1.327 . S
C2448 C2436 1.349 . S
C2448 H2442 0.950 . S
C2448 C2449 1.327 . S
C2449 H2443 0.950 . S
C2449 C2448 1.327 . S
C2449 C2453 1.429 . S
C2450 C2433 1.595 . S
C2450 H2444 0.949 . S
C2450 C2454 1.368 . S
C2451 C2432 1.429 . S
C2451 C2445 1.429 . S
C2451 C2452 1.523 . S
C2452 C2433 1.367 1_556 S
C2452 C2446 1.368 1_556 S
C2452 C2451 1.523 . S
C2453 C2437 1.429 . S
C2453 C2449 1.429 . S
C2453 C2454 1.523 . S
C2454 C2438 1.368 . S
C2454 C2450 1.368 . S
C2454 C2453 1.523 . S
H2455 C2430 0.950 . S
H2456 C2432 0.950 . S
H2457 C2433 0.932 1_556 S
H2458 C2435 0.950 . S
H2459 C2437 0.950 . S
C2460 C2461 1.349 . S
C2460 C2462 1.327 . S
C2460 H2485 0.950 . S
C2461 C2460 1.349 . S
C2461 C2477 1.349 . S
C2462 C2460 1.327 . S
C2462 C2481 1.429 . S
C2462 H2486 0.950 . S
C2463 C2480 1.574 1_556 S
C2463 C2482 1.368 . S
C2463 H2487 0.949 . S
H2464 C2468 0.949 . S
C2465 C2466 1.349 . S
C2465 C2467 1.327 . S
C2465 H2488 0.950 . S
C2466 C2465 1.349 . S
C2466 C2478 1.349 . S
C2467 C2465 1.327 . S
C2467 C2483 1.429 . S
C2467 H2489 0.950 . S
C2468 H2464 0.949 . S
C2468 C2476 1.574 . S
C2468 C2484 1.368 . S
H2469 C2477 0.950 . S
H2470 C2475 0.950 . S
H2471 C2476 0.949 . S
H2472 C2478 0.950 . S
H2473 C2479 0.950 . S
H2474 C2480 0.949 . S
C2475 H2470 0.950 . S
C2475 C2477 1.327 . S
C2475 C2481 1.429 . S
C2476 C2468 1.574 . S
C2476 H2471 0.949 . S
C2476 C2482 1.368 1_554 S
C2477 C2461 1.349 . S
C2477 H2469 0.950 . S
C2477 C2475 1.327 . S
C2478 C2466 1.349 . S
C2478 H2472 0.950 . S
C2478 C2479 1.327 . S
C2479 H2473 0.950 . S
C2479 C2478 1.327 . S
C2479 C2483 1.429 . S
C2480 C2463 1.574 1_554 S
C2480 H2474 0.949 . S
C2480 C2484 1.368 . S
C2481 C2462 1.429 . S
C2481 C2475 1.429 . S
C2481 C2482 1.523 . S
C2482 C2463 1.368 . S
C2482 C2476 1.368 1_556 S
C2482 C2481 1.523 . S
C2483 C2467 1.429 . S
C2483 C2479 1.429 . S
C2483 C2484 1.523 . S
C2484 C2468 1.368 . S
C2484 C2480 1.368 . S
C2484 C2483 1.523 . S
H2485 C2460 0.950 . S
H2486 C2462 0.950 . S
H2487 C2463 0.949 . S
H2488 C2465 0.950 . S
H2489 C2467 0.950 . S
C2490 C2491 1.349 . S
C2490 C2492 1.327 . S
C2490 H2515 0.950 . S
C2491 C2490 1.349 . S
C2491 C2507 1.349 . S
C2492 C2490 1.327 . S
C2492 C2511 1.429 . S
C2492 H2516 0.950 . S
C2493 C2510 1.574 . S
C2493 C2512 1.368 1_554 S
C2493 H2517 0.949 . S
H2494 C2498 0.949 . S
C2495 C2496 1.349 . S
C2495 C2497 1.327 . S
C2495 H2518 0.950 . S
C2496 C2495 1.349 . S
C2496 C2508 1.349 . S
C2497 C2495 1.327 . S
C2497 C2513 1.429 . S
C2497 H2519 0.950 . S
C2498 H2494 0.949 . S
C2498 C2506 1.574 1_554 S
C2498 C2514 1.368 . S
H2499 C2507 0.950 . S
H2500 C2505 0.950 . S
H2501 C2506 0.949 . S
H2502 C2508 0.950 . S
H2503 C2509 0.950 . S
H2504 C2510 0.949 . S
C2505 H2500 0.950 . S
C2505 C2507 1.327 . S
C2505 C2511 1.429 . S
C2506 C2498 1.574 1_556 S
C2506 H2501 0.949 . S
C2506 C2512 1.368 . S
C2507 C2491 1.349 . S
C2507 H2499 0.950 . S
C2507 C2505 1.327 . S
C2508 C2496 1.349 . S
C2508 H2502 0.950 . S
C2508 C2509 1.327 . S
C2509 H2503 0.950 . S
C2509 C2508 1.327 . S
C2509 C2513 1.429 . S
C2510 C2493 1.574 . S
C2510 H2504 0.949 . S
C2510 C2514 1.368 . S
C2511 C2492 1.429 . S
C2511 C2505 1.429 . S
C2511 C2512 1.523 . S
C2512 C2493 1.368 1_556 S
C2512 C2506 1.368 . S
C2512 C2511 1.523 . S
C2513 C2497 1.429 . S
C2513 C2509 1.429 . S
C2513 C2514 1.523 . S
C2514 C2498 1.368 . S
C2514 C2510 1.368 . S
C2514 C2513 1.523 . S
H2515 C2490 0.950 . S
H2516 C2492 0.950 . S
H2517 C2493 0.949 . S
H2518 C2495 0.950 . S
H2519 C2497 0.950 . S
C2520 C2521 1.349 . S
C2520 C2522 1.327 . S
C2520 H2545 0.950 . S
C2521 C2520 1.349 . S
C2521 C2537 1.349 . S
C2522 C2520 1.327 . S
C2522 C2541 1.429 . S
C2522 H2546 0.950 . S
C2523 C2540 1.574 . S
C2523 C2542 1.368 . S
C2523 H2547 0.949 . S
H2524 C2528 0.949 . S
C2525 C2526 1.349 . S
C2525 C2527 1.327 . S
C2525 H2548 0.950 . S
C2526 C2525 1.349 . S
C2526 C2538 1.349 . S
C2527 C2525 1.327 . S
C2527 C2543 1.429 . S
C2527 H2549 0.950 . S
C2528 H2524 0.949 . S
C2528 C2536 1.574 . S
C2528 C2544 1.368 . S
H2529 C2537 0.950 . S
H2530 C2535 0.950 . S
H2531 C2536 0.949 . S
H2532 C2538 0.950 . S
H2533 C2539 0.950 . S
H2534 C2540 0.949 . S
C2535 H2530 0.950 . S
C2535 C2537 1.327 . S
C2535 C2541 1.429 . S
C2536 C2528 1.574 . S
C2536 H2531 0.949 . S
C2536 C2542 1.368 . S
C2537 C2521 1.349 . S
C2537 H2529 0.950 . S
C2537 C2535 1.327 . S
C2538 C2526 1.349 . S
C2538 H2532 0.950 . S
C2538 C2539 1.327 . S
C2539 H2533 0.950 . S
C2539 C2538 1.327 . S
C2539 C2543 1.429 . S
C2540 C2523 1.574 . S
C2540 H2534 0.949 . S
C2540 C2544 1.368 . S
C2541 C2522 1.429 . S
C2541 C2535 1.429 . S
C2541 C2542 1.523 . S
C2542 C2523 1.368 . S
C2542 C2536 1.368 . S
C2542 C2541 1.523 . S
C2543 C2527 1.429 . S
C2543 C2539 1.429 . S
C2543 C2544 1.523 . S
C2544 C2528 1.368 . S
C2544 C2540 1.368 . S
C2544 C2543 1.523 . S
H2545 C2520 0.950 . S
H2546 C2522 0.950 . S
H2547 C2523 0.949 . S
H2548 C2525 0.950 . S
H2549 C2527 0.950 . S
C2550 C2551 1.349 . S
C2550 C2552 1.327 . S
C2550 H2575 0.950 . S
C2551 C2550 1.349 . S
C2551 C2567 1.349 . S
C2552 C2550 1.327 . S
C2552 C2571 1.429 . S
C2552 H2576 0.950 . S
C2553 C2570 1.574 . S
C2553 C2572 1.368 . S
C2553 H2577 0.949 . S
H2554 C2558 0.949 . S
C2555 C2556 1.349 . S
C2555 C2557 1.327 . S
C2555 H2578 0.950 . S
C2556 C2555 1.349 . S
C2556 C2568 1.349 . S
C2557 C2555 1.327 . S
C2557 C2573 1.429 . S
C2557 H2579 0.950 . S
C2558 H2554 0.949 . S
C2558 C2566 1.574 . S
C2558 C2574 1.368 . S
H2559 C2567 0.950 . S
H2560 C2565 0.950 . S
H2561 C2566 0.949 . S
H2562 C2568 0.950 . S
H2563 C2569 0.950 . S
H2564 C2570 0.949 . S
C2565 H2560 0.950 . S
C2565 C2567 1.327 . S
C2565 C2571 1.429 . S
C2566 C2558 1.574 . S
C2566 H2561 0.949 . S
C2566 C2572 1.368 . S
C2567 C2551 1.349 . S
C2567 H2559 0.950 . S
C2567 C2565 1.327 . S
C2568 C2556 1.349 . S
C2568 H2562 0.950 . S
C2568 C2569 1.327 . S
C2569 H2563 0.950 . S
C2569 C2568 1.327 . S
C2569 C2573 1.429 . S
C2570 C2553 1.574 . S
C2570 H2564 0.949 . S
C2570 C2574 1.368 . S
C2571 C2552 1.429 . S
C2571 C2565 1.429 . S
C2571 C2572 1.523 . S
C2572 C2553 1.368 . S
C2572 C2566 1.368 . S
C2572 C2571 1.523 . S
C2573 C2557 1.429 . S
C2573 C2569 1.429 . S
C2573 C2574 1.523 . S
C2574 C2558 1.368 . S
C2574 C2570 1.368 . S
C2574 C2573 1.523 . S
H2575 C2550 0.950 . S
H2576 C2552 0.950 . S
H2577 C2553 0.949 . S
H2578 C2555 0.950 . S
H2579 C2557 0.950 . S
C2580 C2581 1.349 . S
C2580 C2582 1.327 . S
C2580 H2605 0.950 . S
C2581 C2580 1.349 . S
C2581 C2597 1.349 . S
C2582 C2580 1.327 . S
C2582 C2601 1.429 . S
C2582 H2606 0.950 . S
C2583 C2600 1.574 . S
C2583 C2602 1.368 . S
C2583 H2607 0.949 . S
H2584 C2588 0.949 . S
C2585 C2586 1.349 . S
C2585 C2587 1.327 . S
C2585 H2608 0.950 . S
C2586 C2585 1.349 . S
C2586 C2598 1.349 . S
C2587 C2585 1.327 . S
C2587 C2603 1.429 . S
C2587 H2609 0.950 . S
C2588 H2584 0.949 . S
C2588 C2596 1.574 . S
C2588 C2604 1.368 . S
H2589 C2597 0.950 . S
H2590 C2595 0.950 . S
H2591 C2596 0.949 . S
H2592 C2598 0.950 . S
H2593 C2599 0.950 . S
H2594 C2600 0.949 . S
C2595 H2590 0.950 . S
C2595 C2597 1.327 . S
C2595 C2601 1.429 . S
C2596 C2588 1.574 . S
C2596 H2591 0.949 . S
C2596 C2602 1.368 . S
C2597 C2581 1.349 . S
C2597 H2589 0.950 . S
C2597 C2595 1.327 . S
C2598 C2586 1.349 . S
C2598 H2592 0.950 . S
C2598 C2599 1.327 . S
C2599 H2593 0.950 . S
C2599 C2598 1.327 . S
C2599 C2603 1.429 . S
C2600 C2583 1.574 . S
C2600 H2594 0.949 . S
C2600 C2604 1.368 . S
C2601 C2582 1.429 . S
C2601 C2595 1.429 . S
C2601 C2602 1.523 . S
C2602 C2583 1.368 . S
C2602 C2596 1.368 . S
C2602 C2601 1.523 . S
C2603 C2587 1.429 . S
C2603 C2599 1.429 . S
C2603 C2604 1.523 . S
C2604 C2588 1.368 . S
C2604 C2600 1.368 . S
C2604 C2603 1.523 . S
H2605 C2580 0.950 . S
H2606 C2582 0.950 . S
H2607 C2583 0.949 . S
H2608 C2585 0.950 . S
H2609 C2587 0.950 . S
C2610 C2611 1.349 . S
C2610 C2612 1.327 . S
C2610 H2635 0.950 . S
C2611 C2610 1.349 . S
C2611 C2627 1.349 . S
C2612 C2610 1.327 . S
C2612 C2631 1.429 . S
C2612 H2636 0.950 . S
C2613 C2630 1.574 . S
C2613 C2632 1.368 . S
C2613 H2637 0.949 . S
H2614 C2618 0.949 1_554 S
C2615 C2616 1.349 . S
C2615 C2617 1.327 . S
C2615 H2638 0.950 . S
C2616 C2615 1.349 . S
C2616 C2628 1.349 . S
C2617 C2615 1.327 . S
C2617 C2633 1.429 . S
C2617 H2639 0.950 . S
C2618 H2614 0.949 1_556 S
C2618 C2626 1.574 . S
C2618 C2634 1.368 . S
H2619 C2627 0.950 . S
H2620 C2625 0.950 . S
H2621 C2626 0.949 . S
H2622 C2628 0.950 . S
H2623 C2629 0.950 . S
H2624 C2630 0.949 . S
C2625 H2620 0.950 . S
C2625 C2627 1.327 . S
C2625 C2631 1.429 . S
C2626 C2618 1.574 . S
C2626 H2621 0.949 . S
C2626 C2632 1.368 . S
C2627 C2611 1.349 . S
C2627 H2619 0.950 . S
C2627 C2625 1.327 . S
C2628 C2616 1.349 . S
C2628 H2622 0.950 . S
C2628 C2629 1.327 . S
C2629 H2623 0.950 . S
C2629 C2628 1.327 . S
C2629 C2633 1.429 . S
C2630 C2613 1.574 . S
C2630 H2624 0.949 . S
C2630 C2634 1.368 . S
C2631 C2612 1.429 . S
C2631 C2625 1.429 . S
C2631 C2632 1.523 . S
C2632 C2613 1.368 . S
C2632 C2626 1.368 . S
C2632 C2631 1.523 . S
C2633 C2617 1.429 . S
C2633 C2629 1.429 . S
C2633 C2634 1.523 1_554 S
C2634 C2618 1.368 . S
C2634 C2630 1.368 . S
C2634 C2633 1.523 1_556 S
H2635 C2610 0.950 . S
H2636 C2612 0.950 . S
H2637 C2613 0.949 . S
H2638 C2615 0.950 . S
H2639 C2617 0.950 . S
C2640 C2641 1.349 . S
C2640 C2642 1.327 . S
C2640 H2665 0.950 . S
C2641 C2640 1.349 . S
C2641 C2657 1.349 . S
C2642 C2640 1.327 . S
C2642 C2661 1.429 . S
C2642 H2666 0.950 . S
C2643 C2660 1.574 . S
C2643 C2662 1.368 . S
C2643 H2667 0.949 . S
H2644 C2648 0.949 . S
C2645 C2646 1.349 . S
C2645 C2647 1.327 . S
C2645 H2668 0.950 . S
C2646 C2645 1.349 . S
C2646 C2658 1.349 . S
C2647 C2645 1.327 . S
C2647 C2663 1.429 . S
C2647 H2669 0.950 . S
C2648 H2644 0.949 . S
C2648 C2656 1.574 . S
C2648 C2664 1.368 . S
H2649 C2657 0.950 . S
H2650 C2655 0.950 . S
H2651 C2656 0.949 . S
H2652 C2658 0.950 . S
H2653 C2659 0.950 . S
H2654 C2660 0.949 1_554 S
C2655 H2650 0.950 . S
C2655 C2657 1.327 . S
C2655 C2661 1.429 . S
C2656 C2648 1.574 . S
C2656 H2651 0.949 . S
C2656 C2662 1.368 . S
C2657 C2641 1.349 . S
C2657 H2649 0.950 . S
C2657 C2655 1.327 . S
C2658 C2646 1.349 . S
C2658 H2652 0.950 . S
C2658 C2659 1.327 . S
C2659 H2653 0.950 . S
C2659 C2658 1.327 . S
C2659 C2663 1.429 . S
C2660 C2643 1.574 . S
C2660 H2654 0.949 1_556 S
C2660 C2664 1.368 . S
C2661 C2642 1.429 . S
C2661 C2655 1.429 . S
C2661 C2662 1.523 . S
C2662 C2643 1.368 . S
C2662 C2656 1.368 . S
C2662 C2661 1.523 . S
C2663 C2647 1.429 . S
C2663 C2659 1.429 . S
C2663 C2664 1.523 1_554 S
C2664 C2648 1.368 . S
C2664 C2660 1.368 . S
C2664 C2663 1.523 1_556 S
H2665 C2640 0.950 . S
H2666 C2642 0.950 . S
H2667 C2643 0.949 . S
H2668 C2645 0.950 . S
H2669 C2647 0.950 . S
C2670 C2671 1.349 . S
C2670 C2672 1.327 . S
C2670 H2695 0.950 . S
C2671 C2670 1.349 . S
C2671 C2687 1.349 . S
C2672 C2670 1.327 . S
C2672 C2691 1.429 . S
C2672 H2696 0.950 . S
C2673 C2690 1.574 . S
C2673 C2692 1.368 . S
C2673 H2697 0.949 1_556 S
H2674 C2678 0.949 . S
C2675 C2676 1.349 . S
C2675 C2677 1.327 . S
C2675 H2698 0.950 . S
C2676 C2675 1.349 . S
C2676 C2688 1.349 . S
C2677 C2675 1.327 . S
C2677 C2693 1.429 . S
C2677 H2699 0.950 . S
C2678 H2674 0.949 . S
C2678 C2686 1.574 . S
C2678 C2694 1.368 . S
H2679 C2687 0.950 . S
H2680 C2685 0.950 . S
H2681 C2686 0.949 . S
H2682 C2688 0.950 . S
H2683 C2689 0.950 . S
H2684 C2690 0.949 . S
C2685 H2680 0.950 . S
C2685 C2687 1.327 . S
C2685 C2691 1.429 . S
C2686 C2678 1.574 . S
C2686 H2681 0.949 . S
C2686 C2692 1.368 . S
C2687 C2671 1.349 . S
C2687 H2679 0.950 . S
C2687 C2685 1.327 . S
C2688 C2676 1.349 . S
C2688 H2682 0.950 . S
C2688 C2689 1.327 . S
C2689 H2683 0.950 . S
C2689 C2688 1.327 . S
C2689 C2693 1.429 . S
C2690 C2673 1.574 . S
C2690 H2684 0.949 . S
C2690 C2694 1.368 . S
C2691 C2672 1.429 . S
C2691 C2685 1.429 . S
C2691 C2692 1.523 1_554 S
C2692 C2673 1.368 . S
C2692 C2686 1.368 . S
C2692 C2691 1.523 1_556 S
C2693 C2677 1.429 . S
C2693 C2689 1.429 . S
C2693 C2694 1.523 . S
C2694 C2678 1.368 . S
C2694 C2690 1.368 . S
C2694 C2693 1.523 . S
H2695 C2670 0.950 . S
H2696 C2672 0.950 . S
H2697 C2673 0.949 1_554 S
H2698 C2675 0.950 . S
H2699 C2677 0.950 . S
C2700 C2701 1.349 . S
C2700 C2702 1.327 . S
C2700 H2725 0.950 . S
C2701 C2700 1.349 . S
C2701 C2717 1.349 . S
C2702 C2700 1.327 . S
C2702 C2721 1.429 . S
C2702 H2726 0.950 . S
C2703 C2720 1.574 . S
C2703 C2722 1.368 . S
C2703 H2727 0.949 . S
H2704 C2708 0.949 . S
C2705 C2706 1.349 . S
C2705 C2707 1.327 . S
C2705 H2728 0.950 . S
C2706 C2705 1.349 . S
C2706 C2718 1.349 . S
C2707 C2705 1.327 . S
C2707 C2723 1.429 . S
C2707 H2729 0.950 . S
C2708 H2704 0.949 . S
C2708 C2716 1.574 . S
C2708 C2724 1.368 . S
H2709 C2717 0.950 . S
H2710 C2715 0.950 . S
H2711 C2716 0.949 . S
H2712 C2718 0.950 . S
H2713 C2719 0.950 . S
H2714 C2720 0.949 . S
C2715 H2710 0.950 . S
C2715 C2717 1.327 . S
C2715 C2721 1.429 . S
C2716 C2708 1.574 . S
C2716 H2711 0.949 . S
C2716 C2722 1.368 . S
C2717 C2701 1.349 . S
C2717 H2709 0.950 . S
C2717 C2715 1.327 . S
C2718 C2706 1.349 . S
C2718 H2712 0.950 . S
C2718 C2719 1.327 . S
C2719 H2713 0.950 . S
C2719 C2718 1.327 . S
C2719 C2723 1.429 . S
C2720 C2703 1.574 . S
C2720 H2714 0.949 . S
C2720 C2724 1.368 . S
C2721 C2702 1.429 . S
C2721 C2715 1.429 . S
C2721 C2722 1.523 . S
C2722 C2703 1.368 . S
C2722 C2716 1.368 . S
C2722 C2721 1.523 . S
C2723 C2707 1.429 . S
C2723 C2719 1.429 . S
C2723 C2724 1.523 . S
C2724 C2708 1.368 . S
C2724 C2720 1.368 . S
C2724 C2723 1.523 . S
H2725 C2700 0.950 . S
H2726 C2702 0.950 . S
H2727 C2703 0.949 . S
H2728 C2705 0.950 . S
H2729 C2707 0.950 . S
C2730 C2731 1.349 . S
C2730 C2732 1.327 . S
C2730 H2755 0.950 . S
C2731 C2730 1.349 . S
C2731 C2747 1.349 . S
C2732 C2730 1.327 . S
C2732 C2751 1.429 . S
C2732 H2756 0.950 . S
C2733 C2750 1.574 . S
C2733 C2752 1.368 . S
C2733 H2757 0.949 . S
H2734 C2738 0.949 . S
C2735 C2736 1.349 . S
C2735 C2737 1.327 . S
C2735 H2758 0.950 . S
C2736 C2735 1.349 . S
C2736 C2748 1.349 . S
C2737 C2735 1.327 . S
C2737 C2753 1.429 . S
C2737 H2759 0.950 . S
C2738 H2734 0.949 . S
C2738 C2746 1.574 . S
C2738 C2754 1.368 . S
H2739 C2747 0.950 . S
H2740 C2745 0.950 . S
H2741 C2746 0.949 . S
H2742 C2748 0.950 . S
H2743 C2749 0.950 . S
H2744 C2750 0.949 . S
C2745 H2740 0.950 . S
C2745 C2747 1.327 . S
C2745 C2751 1.429 . S
C2746 C2738 1.574 . S
C2746 H2741 0.949 . S
C2746 C2752 1.368 . S
C2747 C2731 1.349 . S
C2747 H2739 0.950 . S
C2747 C2745 1.327 . S
C2748 C2736 1.349 . S
C2748 H2742 0.950 . S
C2748 C2749 1.327 . S
C2749 H2743 0.950 . S
C2749 C2748 1.327 . S
C2749 C2753 1.429 . S
C2750 C2733 1.574 . S
C2750 H2744 0.949 . S
C2750 C2754 1.368 . S
C2751 C2732 1.429 . S
C2751 C2745 1.429 . S
C2751 C2752 1.523 . S
C2752 C2733 1.368 . S
C2752 C2746 1.368 . S
C2752 C2751 1.523 . S
C2753 C2737 1.429 . S
C2753 C2749 1.429 . S
C2753 C2754 1.523 . S
C2754 C2738 1.368 . S
C2754 C2750 1.368 . S
C2754 C2753 1.523 . S
H2755 C2730 0.950 . S
H2756 C2732 0.950 . S
H2757 C2733 0.949 . S
H2758 C2735 0.950 . S
H2759 C2737 0.950 . S
C2760 C2761 1.349 . S
C2760 C2762 1.327 . S
C2760 H2785 0.950 . S
C2761 C2760 1.349 . S
C2761 C2777 1.349 . S
C2762 C2760 1.327 . S
C2762 C2781 1.429 . S
C2762 H2786 0.950 . S
C2763 C2780 1.574 . S
C2763 C2782 1.368 . S
C2763 H2787 0.949 . S
H2764 C2768 0.949 . S
C2765 C2766 1.349 . S
C2765 C2767 1.327 . S
C2765 H2788 0.950 . S
C2766 C2765 1.349 . S
C2766 C2778 1.349 . S
C2767 C2765 1.327 . S
C2767 C2783 1.429 . S
C2767 H2789 0.950 . S
C2768 H2764 0.949 . S
C2768 C2776 1.574 . S
C2768 C2784 1.368 . S
H2769 C2777 0.950 . S
H2770 C2775 0.950 . S
H2771 C2776 0.949 . S
H2772 C2778 0.950 . S
H2773 C2779 0.950 . S
H2774 C2780 0.949 . S
C2775 H2770 0.950 . S
C2775 C2777 1.327 . S
C2775 C2781 1.429 . S
C2776 C2768 1.574 . S
C2776 H2771 0.949 . S
C2776 C2782 1.368 . S
C2777 C2761 1.349 . S
C2777 H2769 0.950 . S
C2777 C2775 1.327 . S
C2778 C2766 1.349 . S
C2778 H2772 0.950 . S
C2778 C2779 1.327 . S
C2779 H2773 0.950 . S
C2779 C2778 1.327 . S
C2779 C2783 1.429 . S
C2780 C2763 1.574 . S
C2780 H2774 0.949 . S
C2780 C2784 1.368 . S
C2781 C2762 1.429 . S
C2781 C2775 1.429 . S
C2781 C2782 1.523 . S
C2782 C2763 1.368 . S
C2782 C2776 1.368 . S
C2782 C2781 1.523 . S
C2783 C2767 1.429 . S
C2783 C2779 1.429 . S
C2783 C2784 1.523 . S
C2784 C2768 1.368 . S
C2784 C2780 1.368 . S
C2784 C2783 1.523 . S
H2785 C2760 0.950 . S
H2786 C2762 0.950 . S
H2787 C2763 0.949 . S
H2788 C2765 0.950 . S
H2789 C2767 0.950 . S
C2790 C2791 1.349 . S
C2790 C2792 1.327 . S
C2790 H2815 0.950 . S
C2791 C2790 1.349 . S
C2791 C2807 1.349 . S
C2792 C2790 1.327 . S
C2792 C2811 1.429 . S
C2792 H2816 0.950 . S
C2793 C2810 1.574 . S
C2793 C2812 1.368 . S
C2793 H2817 0.949 . S
H2794 C2798 0.949 . S
C2795 C2796 1.349 . S
C2795 C2797 1.327 . S
C2795 H2818 0.950 . S
C2796 C2795 1.349 . S
C2796 C2808 1.349 . S
C2797 C2795 1.327 . S
C2797 C2813 1.429 . S
C2797 H2819 0.950 . S
C2798 H2794 0.949 . S
C2798 C2806 1.574 . S
C2798 C2814 1.368 . S
H2799 C2807 0.950 . S
H2800 C2805 0.950 . S
H2801 C2806 0.949 . S
H2802 C2808 0.950 . S
H2803 C2809 0.950 . S
H2804 C2810 0.949 . S
C2805 H2800 0.950 . S
C2805 C2807 1.327 . S
C2805 C2811 1.429 . S
C2806 C2798 1.574 . S
C2806 H2801 0.949 . S
C2806 C2812 1.368 . S
C2807 C2791 1.349 . S
C2807 H2799 0.950 . S
C2807 C2805 1.327 . S
C2808 C2796 1.349 . S
C2808 H2802 0.950 . S
C2808 C2809 1.327 . S
C2809 H2803 0.950 . S
C2809 C2808 1.327 . S
C2809 C2813 1.429 . S
C2810 C2793 1.574 . S
C2810 H2804 0.949 . S
C2810 C2814 1.368 . S
C2811 C2792 1.429 . S
C2811 C2805 1.429 . S
C2811 C2812 1.523 . S
C2812 C2793 1.368 . S
C2812 C2806 1.368 . S
C2812 C2811 1.523 . S
C2813 C2797 1.429 . S
C2813 C2809 1.429 . S
C2813 C2814 1.523 . S
C2814 C2798 1.368 . S
C2814 C2810 1.368 . S
C2814 C2813 1.523 . S
H2815 C2790 0.950 . S
H2816 C2792 0.950 . S
H2817 C2793 0.949 . S
H2818 C2795 0.950 . S
H2819 C2797 0.950 . S
C2820 C2821 1.349 . S
C2820 C2822 1.327 . S
C2820 H2845 0.950 . S
C2821 C2820 1.349 . S
C2821 C2837 1.349 . S
C2822 C2820 1.327 . S
C2822 C2841 1.429 . S
C2822 H2846 0.950 . S
C2823 C2840 1.574 . S
C2823 C2842 1.368 . S
C2823 H2847 0.949 . S
H2824 C2828 0.949 . S
C2825 C2826 1.349 . S
C2825 C2827 1.327 . S
C2825 H2848 0.950 . S
C2826 C2825 1.349 . S
C2826 C2838 1.349 . S
C2827 C2825 1.327 . S
C2827 C2843 1.429 . S
C2827 H2849 0.950 . S
C2828 H2824 0.949 . S
C2828 C2836 1.574 . S
C2828 C2844 1.368 . S
H2829 C2837 0.950 . S
H2830 C2835 0.950 . S
H2831 C2836 0.949 . S
H2832 C2838 0.950 . S
H2833 C2839 0.950 . S
H2834 C2840 0.949 . S
C2835 H2830 0.950 . S
C2835 C2837 1.327 . S
C2835 C2841 1.429 . S
C2836 C2828 1.574 . S
C2836 H2831 0.949 . S
C2836 C2842 1.368 . S
C2837 C2821 1.349 . S
C2837 H2829 0.950 . S
C2837 C2835 1.327 . S
C2838 C2826 1.349 . S
C2838 H2832 0.950 . S
C2838 C2839 1.327 . S
C2839 H2833 0.950 . S
C2839 C2838 1.327 . S
C2839 C2843 1.429 . S
C2840 C2823 1.574 . S
C2840 H2834 0.949 . S
C2840 C2844 1.368 . S
C2841 C2822 1.429 . S
C2841 C2835 1.429 . S
C2841 C2842 1.523 . S
C2842 C2823 1.368 . S
C2842 C2836 1.368 . S
C2842 C2841 1.523 . S
C2843 C2827 1.429 . S
C2843 C2839 1.429 . S
C2843 C2844 1.523 . S
C2844 C2828 1.368 . S
C2844 C2840 1.368 . S
C2844 C2843 1.523 . S
H2845 C2820 0.950 . S
H2846 C2822 0.950 . S
H2847 C2823 0.949 . S
H2848 C2825 0.950 . S
H2849 C2827 0.950 . S
C2850 C2851 1.349 . S
C2850 C2852 1.327 . S
C2850 H2875 0.950 . S
C2851 C2850 1.349 . S
C2851 C2867 1.349 . S
C2852 C2850 1.327 . S
C2852 C2871 1.429 . S
C2852 H2876 0.950 . S
C2853 C2870 1.574 . S
C2853 C2872 1.368 . S
C2853 H2877 0.949 . S
H2854 C2858 0.949 . S
C2855 C2856 1.349 . S
C2855 C2857 1.327 . S
C2855 H2878 0.950 . S
C2856 C2855 1.349 . S
C2856 C2868 1.349 . S
C2857 C2855 1.327 . S
C2857 C2873 1.429 . S
C2857 H2879 0.950 . S
C2858 H2854 0.949 . S
C2858 C2866 1.574 . S
C2858 C2874 1.368 . S
H2859 C2867 0.950 . S
H2860 C2865 0.950 . S
H2861 C2866 0.949 . S
H2862 C2868 0.950 . S
H2863 C2869 0.950 . S
H2864 C2870 0.949 . S
C2865 H2860 0.950 . S
C2865 C2867 1.327 . S
C2865 C2871 1.429 . S
C2866 C2858 1.574 . S
C2866 H2861 0.949 . S
C2866 C2872 1.368 . S
C2867 C2851 1.349 . S
C2867 H2859 0.950 . S
C2867 C2865 1.327 . S
C2868 C2856 1.349 . S
C2868 H2862 0.950 . S
C2868 C2869 1.327 . S
C2869 H2863 0.950 . S
C2869 C2868 1.327 . S
C2869 C2873 1.429 . S
C2870 C2853 1.574 . S
C2870 H2864 0.949 . S
C2870 C2874 1.368 . S
C2871 C2852 1.429 . S
C2871 C2865 1.429 . S
C2871 C2872 1.523 . S
C2872 C2853 1.368 . S
C2872 C2866 1.368 . S
C2872 C2871 1.523 . S
C2873 C2857 1.429 . S
C2873 C2869 1.429 . S
C2873 C2874 1.523 . S
C2874 C2858 1.368 . S
C2874 C2870 1.368 . S
C2874 C2873 1.523 . S
H2875 C2850 0.950 . S
H2876 C2852 0.950 . S
H2877 C2853 0.949 . S
H2878 C2855 0.950 . S
H2879 C2857 0.950 . S
C2880 C2881 1.349 . S
C2880 C2882 1.327 1_556 S
C2880 H2905 0.950 . S
C2881 C2880 1.349 . S
C2881 C2897 1.349 . S
C2882 C2880 1.327 1_554 S
C2882 C2901 1.429 . S
C2882 H2906 0.950 . S
C2883 C2900 1.574 . S
C2883 C2902 1.368 . S
C2883 H2907 0.949 . S
H2884 C2888 0.949 . S
C2885 C2886 1.349 . S
C2885 C2887 1.327 . S
C2885 H2908 0.950 . S
C2886 C2885 1.349 . S
C2886 C2898 1.349 . S
C2887 C2885 1.327 . S
C2887 C2903 1.429 . S
C2887 H2909 0.950 . S
C2888 H2884 0.949 . S
C2888 C2896 1.574 . S
C2888 C2904 1.368 . S
H2889 C2897 0.950 . S
H2890 C2895 0.950 . S
H2891 C2896 0.949 . S
H2892 C2898 0.950 . S
H2893 C2899 0.950 . S
H2894 C2900 0.949 . S
C2895 H2890 0.950 . S
C2895 C2897 1.327 . S
C2895 C2901 1.429 1_556 S
C2896 C2888 1.574 . S
C2896 H2891 0.949 . S
C2896 C2902 1.368 . S
C2897 C2881 1.349 . S
C2897 H2889 0.950 . S
C2897 C2895 1.327 . S
C2898 C2886 1.349 . S
C2898 H2892 0.950 . S
C2898 C2899 1.327 . S
C2899 H2893 0.950 . S
C2899 C2898 1.327 . S
C2899 C2903 1.429 . S
C2900 C2883 1.574 . S
C2900 H2894 0.949 . S
C2900 C2904 1.368 . S
C2901 C2882 1.429 . S
C2901 C2895 1.429 1_554 S
C2901 C2902 1.523 . S
C2902 C2883 1.368 . S
C2902 C2896 1.368 . S
C2902 C2901 1.523 . S
C2903 C2887 1.429 . S
C2903 C2899 1.429 . S
C2903 C2904 1.523 . S
C2904 C2888 1.368 . S
C2904 C2900 1.368 . S
C2904 C2903 1.523 . S
H2905 C2880 0.950 . S
H2906 C2882 0.950 . S
H2907 C2883 0.949 . S
H2908 C2885 0.950 . S
H2909 C2887 0.950 . S
C2910 C2911 1.349 . S
C2910 C2912 1.327 . S
C2910 H2935 0.950 . S
C2911 C2910 1.349 . S
C2911 C2927 1.349 . S
C2912 C2910 1.327 . S
C2912 C2931 1.429 1_556 S
C2912 H2936 0.955 . S
C2913 C2930 1.574 . S
C2913 C2932 1.368 . S
C2913 H2937 0.949 . S
H2914 C2918 0.949 . S
C2915 C2916 1.349 . S
C2915 C2917 1.327 . S
C2915 H2938 0.950 . S
C2916 C2915 1.349 . S
C2916 C2928 1.349 . S
C2917 C2915 1.327 . S
C2917 C2933 1.429 . S
C2917 H2939 0.950 . S
C2918 H2914 0.949 . S
C2918 C2926 1.574 . S
C2918 C2934 1.368 . S
H2919 C2927 0.950 . S
H2920 C2925 0.950 . S
H2921 C2926 0.949 . S
H2922 C2928 0.950 . S
H2923 C2929 0.950 . S
H2924 C2930 0.949 . S
C2925 H2920 0.950 . S
C2925 C2927 1.327 1_554 S
C2925 C2931 1.429 . S
C2926 C2918 1.574 . S
C2926 H2921 0.949 . S
C2926 C2932 1.368 . S
C2927 C2911 1.349 . S
C2927 H2919 0.950 . S
C2927 C2925 1.327 1_556 S
C2928 C2916 1.349 . S
C2928 H2922 0.950 . S
C2928 C2929 1.327 . S
C2929 H2923 0.950 . S
C2929 C2928 1.327 . S
C2929 C2933 1.429 . S
C2930 C2913 1.574 . S
C2930 H2924 0.949 . S
C2930 C2934 1.368 . S
C2931 C2912 1.429 1_554 S
C2931 C2925 1.429 . S
C2931 C2932 1.523 . S
C2932 C2913 1.368 . S
C2932 C2926 1.368 . S
C2932 C2931 1.523 . S
C2933 C2917 1.429 . S
C2933 C2929 1.429 . S
C2933 C2934 1.523 . S
C2934 C2918 1.368 . S
C2934 C2930 1.368 . S
C2934 C2933 1.523 . S
H2935 C2910 0.950 . S
H2936 C2912 0.955 . S
H2937 C2913 0.949 . S
H2938 C2915 0.950 . S
H2939 C2917 0.950 . S
C2940 C2941 1.349 . S
C2940 C2942 1.327 . S
C2940 H2965 0.950 . S
C2941 C2940 1.349 . S
C2941 C2957 1.349 . S
C2942 C2940 1.327 . S
C2942 C2961 1.429 1_556 S
C2942 H2966 0.950 1_556 S
C2943 C2960 1.574 . S
C2943 C2962 1.368 . S
C2943 H2967 0.949 . S
H2944 C2948 0.949 . S
C2945 C2946 1.349 . S
C2945 C2947 1.327 . S
C2945 H2968 0.950 . S
C2946 C2945 1.349 . S
C2946 C2958 1.349 . S
C2947 C2945 1.327 . S
C2947 C2963 1.429 . S
C2947 H2969 0.950 . S
C2948 H2944 0.949 . S
C2948 C2956 1.574 . S
C2948 C2964 1.368 . S
H2949 C2957 0.950 . S
H2950 C2955 0.950 . S
H2951 C2956 0.949 . S
H2952 C2958 0.950 . S
H2953 C2959 0.950 . S
H2954 C2960 0.949 . S
C2955 H2950 0.950 . S
C2955 C2957 1.327 1_554 S
C2955 C2961 1.429 . S
C2956 C2948 1.574 . S
C2956 H2951 0.949 . S
C2956 C2962 1.368 . S
C2957 C2941 1.349 . S
C2957 H2949 0.950 . S
C2957 C2955 1.327 1_556 S
C2958 C2946 1.349 . S
C2958 H2952 0.950 . S
C2958 C2959 1.327 . S
C2959 H2953 0.950 . S
C2959 C2958 1.327 . S
C2959 C2963 1.429 . S
C2960 C2943 1.574 . S
C2960 H2954 0.949 . S
C2960 C2964 1.368 . S
C2961 C2942 1.429 1_554 S
C2961 C2955 1.429 . S
C2961 C2962 1.523 . S
C2962 C2943 1.368 . S
C2962 C2956 1.368 . S
C2962 C2961 1.523 . S
C2963 C2947 1.429 . S
C2963 C2959 1.429 . S
C2963 C2964 1.523 . S
C2964 C2948 1.368 . S
C2964 C2960 1.368 . S
C2964 C2963 1.523 . S
H2965 C2940 0.950 . S
H2966 C2942 0.950 1_554 S
H2967 C2943 0.949 . S
H2968 C2945 0.950 . S
H2969 C2947 0.950 . S
C2970 C2971 1.349 . S
C2970 C2972 1.327 . S
C2970 H2995 0.950 . S
C2971 C2970 1.349 . S
C2971 C2987 1.349 . S
C2972 C2970 1.327 . S
C2972 C2991 1.429 . S
C2972 H2996 0.950 . S
C2973 C2990 1.574 . S
C2973 C2992 1.368 . S
C2973 H2997 0.949 . S
H2974 C2978 0.949 . S
C2975 C2976 1.349 . S
C2975 C2977 1.327 . S
C2975 H2998 0.950 . S
C2976 C2975 1.349 . S
C2976 C2988 1.349 . S
C2977 C2975 1.327 . S
C2977 C2993 1.429 . S
C2977 H2999 0.950 . S
C2978 H2974 0.949 . S
C2978 C2986 1.574 . S
C2978 C2994 1.368 . S
H2979 C2987 0.950 . S
H2980 C2985 0.950 . S
H2981 C2986 0.949 . S
H2982 C2988 0.950 . S
H2983 C2989 0.950 . S
H2984 C2990 0.949 . S
C2985 H2980 0.950 . S
C2985 C2987 1.327 . S
C2985 C2991 1.429 . S
C2986 C2978 1.574 . S
C2986 H2981 0.949 . S
C2986 C2992 1.368 . S
C2987 C2971 1.349 . S
C2987 H2979 0.950 . S
C2987 C2985 1.327 . S
C2988 C2976 1.349 . S
C2988 H2982 0.950 . S
C2988 C2989 1.327 . S
C2989 H2983 0.950 . S
C2989 C2988 1.327 . S
C2989 C2993 1.429 . S
C2990 C2973 1.574 . S
C2990 H2984 0.949 . S
C2990 C2994 1.368 . S
C2991 C2972 1.429 . S
C2991 C2985 1.429 . S
C2991 C2992 1.523 . S
C2992 C2973 1.368 . S
C2992 C2986 1.368 . S
C2992 C2991 1.523 . S
C2993 C2977 1.429 . S
C2993 C2989 1.429 . S
C2993 C2994 1.523 . S
C2994 C2978 1.368 . S
C2994 C2990 1.368 . S
C2994 C2993 1.523 . S
H2995 C2970 0.950 . S
H2996 C2972 0.950 . S
H2997 C2973 0.949 . S
H2998 C2975 0.950 . S
H2999 C2977 0.950 . S
C3000 C3001 1.349 . S
C3000 C3002 1.327 . S
C3000 H3025 0.950 . S
C3001 C3000 1.349 . S
C3001 C3017 1.349 . S
C3002 C3000 1.327 . S
C3002 C3021 1.429 . S
C3002 H3026 0.950 . S
C3003 C3020 1.574 . S
C3003 C3022 1.368 . S
C3003 H3027 0.949 . S
H3004 C3008 0.949 . S
C3005 C3006 1.349 . S
C3005 C3007 1.327 . S
C3005 H3028 0.950 . S
C3006 C3005 1.349 . S
C3006 C3018 1.349 . S
C3007 C3005 1.327 . S
C3007 C3023 1.429 . S
C3007 H3029 0.950 . S
C3008 H3004 0.949 . S
C3008 C3016 1.574 . S
C3008 C3024 1.368 . S
H3009 C3017 0.950 . S
H3010 C3015 0.950 . S
H3011 C3016 0.949 . S
H3012 C3018 0.950 . S
H3013 C3019 0.950 . S
H3014 C3020 0.949 . S
C3015 H3010 0.950 . S
C3015 C3017 1.327 . S
C3015 C3021 1.429 . S
C3016 C3008 1.574 . S
C3016 H3011 0.949 . S
C3016 C3022 1.368 . S
C3017 C3001 1.349 . S
C3017 H3009 0.950 . S
C3017 C3015 1.327 . S
C3018 C3006 1.349 . S
C3018 H3012 0.950 . S
C3018 C3019 1.327 . S
C3019 H3013 0.950 . S
C3019 C3018 1.327 . S
C3019 C3023 1.429 . S
C3020 C3003 1.574 . S
C3020 H3014 0.949 . S
C3020 C3024 1.368 . S
C3021 C3002 1.429 . S
C3021 C3015 1.429 . S
C3021 C3022 1.523 . S
C3022 C3003 1.368 . S
C3022 C3016 1.368 . S
C3022 C3021 1.523 . S
C3023 C3007 1.429 . S
C3023 C3019 1.429 . S
C3023 C3024 1.523 . S
C3024 C3008 1.368 . S
C3024 C3020 1.368 . S
C3024 C3023 1.523 . S
H3025 C3000 0.950 . S
H3026 C3002 0.950 . S
H3027 C3003 0.949 . S
H3028 C3005 0.950 . S
H3029 C3007 0.950 . S
C3030 C3031 1.349 . S
C3030 C3032 1.327 . S
C3030 H3055 0.950 . S
C3031 C3030 1.349 . S
C3031 C3047 1.349 . S
C3032 C3030 1.327 . S
C3032 C3051 1.429 . S
C3032 H3056 0.950 . S
C3033 C3050 1.574 . S
C3033 C3052 1.368 . S
C3033 H3057 0.949 . S
H3034 C3038 0.949 . S
C3035 C3036 1.349 . S
C3035 C3037 1.327 . S
C3035 H3058 0.950 . S
C3036 C3035 1.349 . S
C3036 C3048 1.349 . S
C3037 C3035 1.327 . S
C3037 C3053 1.429 . S
C3037 H3059 0.950 . S
C3038 H3034 0.949 . S
C3038 C3046 1.574 . S
C3038 C3054 1.368 . S
H3039 C3047 0.950 . S
H3040 C3045 0.950 . S
H3041 C3046 0.949 . S
H3042 C3048 0.950 . S
H3043 C3049 0.950 . S
H3044 C3050 0.949 . S
C3045 H3040 0.950 . S
C3045 C3047 1.327 . S
C3045 C3051 1.429 . S
C3046 C3038 1.574 . S
C3046 H3041 0.949 . S
C3046 C3052 1.368 . S
C3047 C3031 1.349 . S
C3047 H3039 0.950 . S
C3047 C3045 1.327 . S
C3048 C3036 1.349 . S
C3048 H3042 0.950 . S
C3048 C3049 1.327 . S
C3049 H3043 0.950 . S
C3049 C3048 1.327 . S
C3049 C3053 1.429 . S
C3050 C3033 1.574 . S
C3050 H3044 0.949 . S
C3050 C3054 1.368 . S
C3051 C3032 1.429 . S
C3051 C3045 1.429 . S
C3051 C3052 1.523 . S
C3052 C3033 1.368 . S
C3052 C3046 1.368 . S
C3052 C3051 1.523 . S
C3053 C3037 1.429 . S
C3053 C3049 1.429 . S
C3053 C3054 1.523 . S
C3054 C3038 1.368 . S
C3054 C3050 1.368 . S
C3054 C3053 1.523 . S
H3055 C3030 0.950 . S
H3056 C3032 0.950 . S
H3057 C3033 0.949 . S
H3058 C3035 0.950 . S
H3059 C3037 0.950 . S
C3060 C3061 1.349 . S
C3060 C3062 1.327 . S
C3060 H3085 0.950 . S
C3061 C3060 1.349 . S
C3061 C3077 1.349 . S
C3062 C3060 1.327 . S
C3062 C3081 1.429 . S
C3062 H3086 0.950 . S
C3063 C3080 1.574 . S
C3063 C3082 1.368 . S
C3063 H3087 0.949 . S
H3064 C3068 0.949 . S
C3065 C3066 1.349 . S
C3065 C3067 1.327 . S
C3065 H3088 0.950 . S
C3066 C3065 1.349 . S
C3066 C3078 1.349 . S
C3067 C3065 1.327 . S
C3067 C3083 1.429 . S
C3067 H3089 0.950 . S
C3068 H3064 0.949 . S
C3068 C3076 1.574 . S
C3068 C3084 1.368 . S
H3069 C3077 0.950 . S
H3070 C3075 0.950 . S
H3071 C3076 0.949 . S
H3072 C3078 0.950 . S
H3073 C3079 0.950 . S
H3074 C3080 0.949 . S
C3075 H3070 0.950 . S
C3075 C3077 1.327 . S
C3075 C3081 1.429 . S
C3076 C3068 1.574 . S
C3076 H3071 0.949 . S
C3076 C3082 1.368 . S
C3077 C3061 1.349 . S
C3077 H3069 0.950 . S
C3077 C3075 1.327 . S
C3078 C3066 1.349 . S
C3078 H3072 0.950 . S
C3078 C3079 1.327 . S
C3079 H3073 0.950 . S
C3079 C3078 1.327 . S
C3079 C3083 1.429 . S
C3080 C3063 1.574 . S
C3080 H3074 0.949 . S
C3080 C3084 1.368 . S
C3081 C3062 1.429 . S
C3081 C3075 1.429 . S
C3081 C3082 1.523 . S
C3082 C3063 1.368 . S
C3082 C3076 1.368 . S
C3082 C3081 1.523 . S
C3083 C3067 1.429 . S
C3083 C3079 1.429 . S
C3083 C3084 1.523 . S
C3084 C3068 1.368 . S
C3084 C3080 1.368 . S
C3084 C3083 1.523 . S
H3085 C3060 0.950 . S
H3086 C3062 0.950 . S
H3087 C3063 0.949 . S
H3088 C3065 0.950 . S
H3089 C3067 0.950 . S
C3090 C3091 1.349 . S
C3090 C3092 1.327 . S
C3090 H3115 0.950 . S
C3091 C3090 1.349 . S
C3091 C3107 1.349 . S
C3092 C3090 1.327 . S
C3092 C3111 1.429 . S
C3092 H3116 0.950 . S
C3093 C3110 1.574 . S
C3093 C3112 1.368 . S
C3093 H3117 0.949 . S
H3094 C3098 0.949 . S
C3095 C3096 1.349 . S
C3095 C3097 1.327 . S
C3095 H3118 0.950 . S
C3096 C3095 1.349 . S
C3096 C3108 1.349 . S
C3097 C3095 1.327 . S
C3097 C3113 1.429 . S
C3097 H3119 0.950 . S
C3098 H3094 0.949 . S
C3098 C3106 1.574 . S
C3098 C3114 1.368 . S
H3099 C3107 0.950 . S
H3100 C3105 0.950 . S
H3101 C3106 0.949 . S
H3102 C3108 0.950 . S
H3103 C3109 0.950 . S
H3104 C3110 0.949 . S
C3105 H3100 0.950 . S
C3105 C3107 1.327 . S
C3105 C3111 1.429 . S
C3106 C3098 1.574 . S
C3106 H3101 0.949 . S
C3106 C3112 1.368 . S
C3107 C3091 1.349 . S
C3107 H3099 0.950 . S
C3107 C3105 1.327 . S
C3108 C3096 1.349 . S
C3108 H3102 0.950 . S
C3108 C3109 1.327 . S
C3109 H3103 0.950 . S
C3109 C3108 1.327 . S
C3109 C3113 1.429 . S
C3110 C3093 1.574 . S
C3110 H3104 0.949 . S
C3110 C3114 1.368 . S
C3111 C3092 1.429 . S
C3111 C3105 1.429 . S
C3111 C3112 1.523 . S
C3112 C3093 1.368 . S
C3112 C3106 1.368 . S
C3112 C3111 1.523 . S
C3113 C3097 1.429 . S
C3113 C3109 1.429 . S
C3113 C3114 1.523 . S
C3114 C3098 1.368 . S
C3114 C3110 1.368 . S
C3114 C3113 1.523 . S
H3115 C3090 0.950 . S
H3116 C3092 0.950 . S
H3117 C3093 0.949 . S
H3118 C3095 0.950 . S
H3119 C3097 0.950 . S
C3120 C3121 1.349 . S
C3120 C3122 1.327 . S
C3120 H3145 0.950 . S
C3121 C3120 1.349 . S
C3121 C3137 1.349 . S
C3122 C3120 1.327 . S
C3122 C3141 1.429 . S
C3122 H3146 0.950 . S
C3123 C3140 1.574 . S
C3123 C3142 1.368 . S
C3123 H3147 0.949 . S
H3124 C3128 0.949 . S
C3125 C3126 1.349 . S
C3125 C3127 1.327 . S
C3125 H3148 0.950 . S
C3126 C3125 1.349 . S
C3126 C3138 1.349 . S
C3127 C3125 1.327 . S
C3127 C3143 1.429 . S
C3127 H3149 0.950 . S
C3128 H3124 0.949 . S
C3128 C3136 1.574 . S
C3128 C3144 1.368 . S
H3129 C3137 0.950 . S
H3130 C3135 0.950 . S
H3131 C3136 0.949 . S
H3132 C3138 0.950 . S
H3133 C3139 0.950 . S
H3134 C3140 0.949 . S
C3135 H3130 0.950 . S
C3135 C3137 1.327 . S
C3135 C3141 1.429 . S
C3136 C3128 1.574 . S
C3136 H3131 0.949 . S
C3136 C3142 1.368 . S
C3137 C3121 1.349 . S
C3137 H3129 0.950 . S
C3137 C3135 1.327 . S
C3138 C3126 1.349 . S
C3138 H3132 0.950 . S
C3138 C3139 1.327 . S
C3139 H3133 0.950 . S
C3139 C3138 1.327 . S
C3139 C3143 1.429 . S
C3140 C3123 1.574 . S
C3140 H3134 0.949 . S
C3140 C3144 1.368 . S
C3141 C3122 1.429 . S
C3141 C3135 1.429 . S
C3141 C3142 1.523 . S
C3142 C3123 1.368 . S
C3142 C3136 1.368 . S
C3142 C3141 1.523 . S
C3143 C3127 1.429 . S
C3143 C3139 1.429 . S
C3143 C3144 1.523 . S
C3144 C3128 1.368 . S
C3144 C3140 1.368 . S
C3144 C3143 1.523 . S
H3145 C3120 0.950 . S
H3146 C3122 0.950 . S
H3147 C3123 0.949 . S
H3148 C3125 0.950 . S
H3149 C3127 0.950 . S
C3150 C3151 1.349 . S
C3150 C3152 1.327 . S
C3150 H3175 0.950 . S
C3151 C3150 1.349 . S
C3151 C3167 1.349 . S
C3152 C3150 1.327 . S
C3152 C3171 1.429 . S
C3152 H3176 0.950 . S
C3153 C3170 1.574 . S
C3153 C3172 1.368 . S
C3153 H3177 0.949 . S
H3154 C3158 0.949 . S
C3155 C3156 1.349 . S
C3155 C3157 1.327 . S
C3155 H3178 0.950 . S
C3156 C3155 1.349 . S
C3156 C3168 1.349 . S
C3157 C3155 1.327 . S
C3157 C3173 1.429 . S
C3157 H3179 0.950 . S
C3158 H3154 0.949 . S
C3158 C3166 1.574 . S
C3158 C3174 1.368 . S
H3159 C3167 0.950 . S
H3160 C3165 0.950 . S
H3161 C3166 0.949 . S
H3162 C3168 0.950 . S
H3163 C3169 0.950 . S
H3164 C3170 0.949 . S
C3165 H3160 0.950 . S
C3165 C3167 1.327 . S
C3165 C3171 1.429 . S
C3166 C3158 1.574 . S
C3166 H3161 0.949 . S
C3166 C3172 1.368 . S
C3167 C3151 1.349 . S
C3167 H3159 0.950 . S
C3167 C3165 1.327 . S
C3168 C3156 1.349 . S
C3168 H3162 0.950 . S
C3168 C3169 1.327 . S
C3169 H3163 0.950 . S
C3169 C3168 1.327 . S
C3169 C3173 1.429 . S
C3170 C3153 1.574 . S
C3170 H3164 0.949 . S
C3170 C3174 1.368 . S
C3171 C3152 1.429 . S
C3171 C3165 1.429 . S
C3171 C3172 1.523 . S
C3172 C3153 1.368 . S
C3172 C3166 1.368 . S
C3172 C3171 1.523 . S
C3173 C3157 1.429 . S
C3173 C3169 1.429 . S
C3173 C3174 1.523 . S
C3174 C3158 1.368 . S
C3174 C3170 1.368 . S
C3174 C3173 1.523 . S
H3175 C3150 0.950 . S
H3176 C3152 0.950 . S
H3177 C3153 0.949 . S
H3178 C3155 0.950 . S
H3179 C3157 0.950 . S
C3180 C3181 1.349 . S
C3180 C3182 1.327 . S
C3180 H3205 0.950 . S
C3181 C3180 1.349 . S
C3181 C3197 1.349 . S
C3182 C3180 1.327 . S
C3182 C3201 1.429 . S
C3182 H3206 0.950 . S
C3183 C3200 1.574 . S
C3183 C3202 1.368 . S
C3183 H3207 0.949 . S
H3184 C3188 0.949 . S
C3185 C3186 1.349 . S
C3185 C3187 1.327 . S
C3185 H3208 0.950 . S
C3186 C3185 1.349 . S
C3186 C3198 1.349 . S
C3187 C3185 1.327 . S
C3187 C3203 1.429 . S
C3187 H3209 0.950 . S
C3188 H3184 0.949 . S
C3188 C3196 1.574 . S
C3188 C3204 1.368 . S
H3189 C3197 0.950 . S
H3190 C3195 0.950 . S
H3191 C3196 0.949 . S
H3192 C3198 0.950 . S
H3193 C3199 0.950 . S
H3194 C3200 0.949 . S
C3195 H3190 0.950 . S
C3195 C3197 1.327 . S
C3195 C3201 1.429 . S
C3196 C3188 1.574 . S
C3196 H3191 0.949 . S
C3196 C3202 1.368 . S
C3197 C3181 1.349 . S
C3197 H3189 0.950 . S
C3197 C3195 1.327 . S
C3198 C3186 1.349 . S
C3198 H3192 0.950 . S
C3198 C3199 1.327 . S
C3199 H3193 0.950 . S
C3199 C3198 1.327 . S
C3199 C3203 1.429 . S
C3200 C3183 1.574 . S
C3200 H3194 0.949 . S
C3200 C3204 1.368 . S
C3201 C3182 1.429 . S
C3201 C3195 1.429 . S
C3201 C3202 1.523 . S
C3202 C3183 1.368 . S
C3202 C3196 1.368 . S
C3202 C3201 1.523 . S
C3203 C3187 1.429 . S
C3203 C3199 1.429 . S
C3203 C3204 1.523 . S
C3204 C3188 1.368 . S
C3204 C3200 1.368 . S
C3204 C3203 1.523 . S
H3205 C3180 0.950 . S
H3206 C3182 0.950 . S
H3207 C3183 0.949 . S
H3208 C3185 0.950 . S
H3209 C3187 0.950 . S
C3210 C3211 1.349 . S
C3210 C3212 1.327 . S
C3210 H3235 0.950 . S
C3211 C3210 1.349 . S
C3211 C3227 1.349 . S
C3212 C3210 1.327 . S
C3212 C3231 1.429 . S
C3212 H3236 0.950 . S
C3213 C3230 1.574 . S
C3213 C3232 1.368 . S
C3213 H3237 0.949 . S
H3214 C3218 0.949 . S
C3215 C3216 1.349 . S
C3215 C3217 1.327 . S
C3215 H3238 0.950 . S
C3216 C3215 1.349 . S
C3216 C3228 1.349 . S
C3217 C3215 1.327 . S
C3217 C3233 1.429 . S
C3217 H3239 0.950 . S
C3218 H3214 0.949 . S
C3218 C3226 1.574 . S
C3218 C3234 1.368 . S
H3219 C3227 0.950 . S
H3220 C3225 0.950 . S
H3221 C3226 0.949 . S
H3222 C3228 0.950 . S
H3223 C3229 0.950 . S
H3224 C3230 0.949 . S
C3225 H3220 0.950 . S
C3225 C3227 1.327 . S
C3225 C3231 1.429 . S
C3226 C3218 1.574 . S
C3226 H3221 0.949 . S
C3226 C3232 1.368 . S
C3227 C3211 1.349 . S
C3227 H3219 0.950 . S
C3227 C3225 1.327 . S
C3228 C3216 1.349 . S
C3228 H3222 0.950 . S
C3228 C3229 1.327 . S
C3229 H3223 0.950 . S
C3229 C3228 1.327 . S
C3229 C3233 1.429 . S
C3230 C3213 1.574 . S
C3230 H3224 0.949 . S
C3230 C3234 1.368 . S
C3231 C3212 1.429 . S
C3231 C3225 1.429 . S
C3231 C3232 1.523 . S
C3232 C3213 1.368 . S
C3232 C3226 1.368 . S
C3232 C3231 1.523 . S
C3233 C3217 1.429 . S
C3233 C3229 1.429 . S
C3233 C3234 1.523 . S
C3234 C3218 1.368 . S
C3234 C3230 1.368 . S
C3234 C3233 1.523 . S
H3235 C3210 0.950 . S
H3236 C3212 0.950 . S
H3237 C3213 0.949 . S
H3238 C3215 0.950 . S
H3239 C3217 0.950 . S
C3240 C3241 1.349 . S
C3240 C3242 1.327 . S
C3240 H3265 0.950 . S
C3241 C3240 1.349 . S
C3241 C3257 1.349 . S
C3242 C3240 1.327 . S
C3242 C3261 1.429 . S
C3242 H3266 0.950 . S
C3243 C3260 1.574 . S
C3243 C3262 1.368 . S
C3243 H3267 0.949 . S
H3244 C3248 0.949 . S
C3245 C3246 1.349 . S
C3245 C3247 1.327 . S
C3245 H3268 0.950 . S
C3246 C3245 1.349 . S
C3246 C3258 1.349 . S
C3247 C3245 1.327 . S
C3247 C3263 1.429 . S
C3247 H3269 0.950 . S
C3248 H3244 0.949 . S
C3248 C3256 1.574 . S
C3248 C3264 1.368 . S
H3249 C3257 0.950 . S
H3250 C3255 0.950 . S
H3251 C3256 0.949 . S
H3252 C3258 0.950 . S
H3253 C3259 0.950 . S
H3254 C3260 0.949 . S
C3255 H3250 0.950 . S
C3255 C3257 1.327 . S
C3255 C3261 1.429 . S
C3256 C3248 1.574 . S
C3256 H3251 0.949 . S
C3256 C3262 1.368 . S
C3257 C3241 1.349 . S
C3257 H3249 0.950 . S
C3257 C3255 1.327 . S
C3258 C3246 1.349 . S
C3258 H3252 0.950 . S
C3258 C3259 1.327 . S
C3259 H3253 0.950 . S
C3259 C3258 1.327 . S
C3259 C3263 1.429 . S
C3260 C3243 1.574 . S
C3260 H3254 0.949 . S
C3260 C3264 1.368 . S
C3261 C3242 1.429 . S
C3261 C3255 1.429 . S
C3261 C3262 1.523 . S
C3262 C3243 1.368 . S
C3262 C3256 1.368 . S
C3262 C3261 1.523 . S
C3263 C3247 1.429 . S
C3263 C3259 1.429 . S
C3263 C3264 1.523 . S
C3264 C3248 1.368 . S
C3264 C3260 1.368 . S
C3264 C3263 1.523 . S
H3265 C3240 0.950 . S
H3266 C3242 0.950 . S
H3267 C3243 0.949 . S
H3268 C3245 0.950 . S
H3269 C3247 0.950 . S
C3270 C3271 1.349 . S
C3270 C3272 1.327 . S
C3270 H3295 0.950 . S
C3271 C3270 1.349 . S
C3271 C3287 1.349 . S
C3272 C3270 1.327 . S
C3272 C3291 1.429 . S
C3272 H3296 0.950 . S
C3273 C3290 1.574 . S
C3273 C3292 1.368 . S
C3273 H3297 0.949 . S
H3274 C3278 0.949 . S
C3275 C3276 1.349 . S
C3275 C3277 1.327 . S
C3275 H3298 0.950 . S
C3276 C3275 1.349 . S
C3276 C3288 1.349 . S
C3277 C3275 1.327 . S
C3277 C3293 1.429 . S
C3277 H3299 0.950 . S
C3278 H3274 0.949 . S
C3278 C3286 1.574 . S
C3278 C3294 1.368 . S
H3279 C3287 0.950 . S
H3280 C3285 0.950 . S
H3281 C3286 0.949 . S
H3282 C3288 0.950 . S
H3283 C3289 0.950 . S
H3284 C3290 0.949 . S
C3285 H3280 0.950 . S
C3285 C3287 1.327 . S
C3285 C3291 1.429 . S
C3286 C3278 1.574 . S
C3286 H3281 0.949 . S
C3286 C3292 1.368 . S
C3287 C3271 1.349 . S
C3287 H3279 0.950 . S
C3287 C3285 1.327 . S
C3288 C3276 1.349 . S
C3288 H3282 0.950 . S
C3288 C3289 1.327 . S
C3289 H3283 0.950 . S
C3289 C3288 1.327 . S
C3289 C3293 1.429 . S
C3290 C3273 1.574 . S
C3290 H3284 0.949 . S
C3290 C3294 1.368 . S
C3291 C3272 1.429 . S
C3291 C3285 1.429 . S
C3291 C3292 1.523 . S
C3292 C3273 1.368 . S
C3292 C3286 1.368 . S
C3292 C3291 1.523 . S
C3293 C3277 1.429 . S
C3293 C3289 1.429 . S
C3293 C3294 1.523 . S
C3294 C3278 1.368 . S
C3294 C3290 1.368 . S
C3294 C3293 1.523 . S
H3295 C3270 0.950 . S
H3296 C3272 0.950 . S
H3297 C3273 0.949 . S
H3298 C3275 0.950 . S
H3299 C3277 0.950 . S
C3300 C3301 1.349 . S
C3300 C3302 1.327 . S
C3300 H3325 0.950 . S
C3301 C3300 1.349 . S
C3301 C3317 1.349 . S
C3302 C3300 1.327 . S
C3302 C3321 1.429 . S
C3302 H3326 0.950 . S
C3303 C3320 1.574 . S
C3303 C3322 1.368 . S
C3303 H3327 0.949 . S
H3304 C3308 0.949 . S
C3305 C3306 1.349 . S
C3305 C3307 1.327 . S
C3305 H3328 0.950 . S
C3306 C3305 1.349 . S
C3306 C3318 1.349 . S
C3307 C3305 1.327 . S
C3307 C3323 1.429 . S
C3307 H3329 0.950 . S
C3308 H3304 0.949 . S
C3308 C3316 1.574 . S
C3308 C3324 1.368 . S
H3309 C3317 0.950 . S
H3310 C3315 0.950 . S
H3311 C3316 0.949 . S
H3312 C3318 0.950 . S
H3313 C3319 0.950 . S
H3314 C3320 0.949 . S
C3315 H3310 0.950 . S
C3315 C3317 1.327 . S
C3315 C3321 1.429 . S
C3316 C3308 1.574 . S
C3316 H3311 0.949 . S
C3316 C3322 1.368 . S
C3317 C3301 1.349 . S
C3317 H3309 0.950 . S
C3317 C3315 1.327 . S
C3318 C3306 1.349 . S
C3318 H3312 0.950 . S
C3318 C3319 1.327 . S
C3319 H3313 0.950 . S
C3319 C3318 1.327 . S
C3319 C3323 1.429 . S
C3320 C3303 1.574 . S
C3320 H3314 0.949 . S
C3320 C3324 1.368 . S
C3321 C3302 1.429 . S
C3321 C3315 1.429 . S
C3321 C3322 1.523 . S
C3322 C3303 1.368 . S
C3322 C3316 1.368 . S
C3322 C3321 1.523 . S
C3323 C3307 1.429 . S
C3323 C3319 1.429 . S
C3323 C3324 1.523 . S
C3324 C3308 1.368 . S
C3324 C3320 1.368 . S
C3324 C3323 1.523 . S
H3325 C3300 0.950 . S
H3326 C3302 0.950 . S
H3327 C3303 0.949 . S
H3328 C3305 0.950 . S
H3329 C3307 0.950 . S
C3330 C3331 1.349 . S
C3330 C3332 1.327 . S
C3330 H3355 0.950 . S
C3331 C3330 1.349 . S
C3331 C3347 1.349 . S
C3332 C3330 1.327 . S
C3332 C3351 1.429 . S
C3332 H3356 0.950 . S
C3333 C3350 1.574 . S
C3333 C3352 1.368 . S
C3333 H3357 0.949 . S
H3334 C3338 0.949 . S
C3335 C3336 1.349 . S
C3335 C3337 1.327 . S
C3335 H3358 0.950 . S
C3336 C3335 1.349 . S
C3336 C3348 1.349 . S
C3337 C3335 1.327 . S
C3337 C3353 1.429 . S
C3337 H3359 0.950 . S
C3338 H3334 0.949 . S
C3338 C3346 1.574 . S
C3338 C3354 1.368 . S
H3339 C3347 0.950 . S
H3340 C3345 0.950 . S
H3341 C3346 0.949 . S
H3342 C3348 0.950 . S
H3343 C3349 0.950 . S
H3344 C3350 0.949 . S
C3345 H3340 0.950 . S
C3345 C3347 1.327 . S
C3345 C3351 1.429 . S
C3346 C3338 1.574 . S
C3346 H3341 0.949 . S
C3346 C3352 1.368 . S
C3347 C3331 1.349 . S
C3347 H3339 0.950 . S
C3347 C3345 1.327 . S
C3348 C3336 1.349 . S
C3348 H3342 0.950 . S
C3348 C3349 1.327 . S
C3349 H3343 0.950 . S
C3349 C3348 1.327 . S
C3349 C3353 1.429 . S
C3350 C3333 1.574 . S
C3350 H3344 0.949 . S
C3350 C3354 1.368 . S
C3351 C3332 1.429 . S
C3351 C3345 1.429 . S
C3351 C3352 1.523 . S
C3352 C3333 1.368 . S
C3352 C3346 1.368 . S
C3352 C3351 1.523 . S
C3353 C3337 1.429 . S
C3353 C3349 1.429 . S
C3353 C3354 1.523 . S
C3354 C3338 1.368 . S
C3354 C3350 1.368 . S
C3354 C3353 1.523 . S
H3355 C3330 0.950 . S
H3356 C3332 0.950 . S
H3357 C3333 0.949 . S
H3358 C3335 0.950 . S
H3359 C3337 0.950 . S
C3360 C3361 1.349 . S
C3360 C3362 1.327 . S
C3360 H3385 0.950 . S
C3361 C3360 1.349 . S
C3361 C3377 1.349 . S
C3362 C3360 1.327 . S
C3362 C3381 1.429 . S
C3362 H3386 0.950 . S
C3363 C3380 1.574 . S
C3363 C3382 1.368 . S
C3363 H3387 0.949 . S
H3364 C3368 0.949 . S
C3365 C3366 1.349 . S
C3365 C3367 1.327 . S
C3365 H3388 0.950 . S
C3366 C3365 1.349 . S
C3366 C3378 1.349 . S
C3367 C3365 1.327 . S
C3367 C3383 1.429 . S
C3367 H3389 0.950 . S
C3368 H3364 0.949 . S
C3368 C3376 1.574 . S
C3368 C3384 1.368 . S
H3369 C3377 0.950 . S
H3370 C3375 0.950 . S
H3371 C3376 0.949 . S
H3372 C3378 0.950 . S
H3373 C3379 0.950 . S
H3374 C3380 0.949 . S
C3375 H3370 0.950 . S
C3375 C3377 1.327 . S
C3375 C3381 1.429 . S
C3376 C3368 1.574 . S
C3376 H3371 0.949 . S
C3376 C3382 1.368 . S
C3377 C3361 1.349 . S
C3377 H3369 0.950 . S
C3377 C3375 1.327 . S
C3378 C3366 1.349 . S
C3378 H3372 0.950 . S
C3378 C3379 1.327 . S
C3379 H3373 0.950 . S
C3379 C3378 1.327 . S
C3379 C3383 1.429 . S
C3380 C3363 1.574 . S
C3380 H3374 0.949 . S
C3380 C3384 1.368 . S
C3381 C3362 1.429 . S
C3381 C3375 1.429 . S
C3381 C3382 1.523 . S
C3382 C3363 1.368 . S
C3382 C3376 1.368 . S
C3382 C3381 1.523 . S
C3383 C3367 1.429 . S
C3383 C3379 1.429 . S
C3383 C3384 1.523 . S
C3384 C3368 1.368 . S
C3384 C3380 1.368 . S
C3384 C3383 1.523 . S
H3385 C3360 0.950 . S
H3386 C3362 0.950 . S
H3387 C3363 0.949 . S
H3388 C3365 0.950 . S
H3389 C3367 0.950 . S
C3390 C3391 1.349 . S
C3390 C3392 1.327 . S
C3390 H3415 0.950 . S
C3391 C3390 1.349 . S
C3391 C3407 1.349 . S
C3392 C3390 1.327 . S
C3392 C3411 1.429 . S
C3392 H3416 0.950 . S
C3393 C3410 1.574 . S
C3393 C3412 1.368 . S
C3393 H3417 0.949 . S
H3394 C3398 0.949 . S
C3395 C3396 1.349 . S
C3395 C3397 1.327 . S
C3395 H3418 0.950 . S
C3396 C3395 1.349 . S
C3396 C3408 1.349 . S
C3397 C3395 1.327 . S
C3397 C3413 1.429 . S
C3397 H3419 0.950 . S
C3398 H3394 0.949 . S
C3398 C3406 1.574 . S
C3398 C3414 1.368 . S
H3399 C3407 0.950 . S
H3400 C3405 0.950 . S
H3401 C3406 0.949 . S
H3402 C3408 0.950 . S
H3403 C3409 0.950 . S
H3404 C3410 0.949 . S
C3405 H3400 0.950 . S
C3405 C3407 1.327 . S
C3405 C3411 1.429 . S
C3406 C3398 1.574 . S
C3406 H3401 0.949 . S
C3406 C3412 1.368 . S
C3407 C3391 1.349 . S
C3407 H3399 0.950 . S
C3407 C3405 1.327 . S
C3408 C3396 1.349 . S
C3408 H3402 0.950 . S
C3408 C3409 1.327 . S
C3409 H3403 0.950 . S
C3409 C3408 1.327 . S
C3409 C3413 1.429 . S
C3410 C3393 1.574 . S
C3410 H3404 0.949 . S
C3410 C3414 1.368 . S
C3411 C3392 1.429 . S
C3411 C3405 1.429 . S
C3411 C3412 1.523 . S
C3412 C3393 1.368 . S
C3412 C3406 1.368 . S
C3412 C3411 1.523 . S
C3413 C3397 1.429 . S
C3413 C3409 1.429 . S
C3413 C3414 1.523 . S
C3414 C3398 1.368 . S
C3414 C3410 1.368 . S
C3414 C3413 1.523 . S
H3415 C3390 0.950 . S
H3416 C3392 0.950 . S
H3417 C3393 0.949 . S
H3418 C3395 0.950 . S
H3419 C3397 0.950 . S
C3420 C3421 1.349 . S
C3420 C3422 1.327 . S
C3420 H3445 0.950 . S
C3421 C3420 1.349 . S
C3421 C3437 1.349 . S
C3422 C3420 1.327 . S
C3422 C3441 1.429 . S
C3422 H3446 0.950 . S
C3423 C3440 1.574 . S
C3423 C3442 1.368 . S
C3423 H3447 0.949 . S
H3424 C3428 0.949 . S
C3425 C3426 1.349 . S
C3425 C3427 1.327 . S
C3425 H3448 0.950 . S
C3426 C3425 1.349 . S
C3426 C3438 1.349 . S
C3427 C3425 1.327 . S
C3427 C3443 1.429 . S
C3427 H3449 0.950 . S
C3428 H3424 0.949 . S
C3428 C3436 1.574 . S
C3428 C3444 1.368 . S
H3429 C3437 0.950 . S
H3430 C3435 0.950 . S
H3431 C3436 0.949 . S
H3432 C3438 0.950 . S
H3433 C3439 0.950 . S
H3434 C3440 0.949 . S
C3435 H3430 0.950 . S
C3435 C3437 1.327 . S
C3435 C3441 1.429 . S
C3436 C3428 1.574 . S
C3436 H3431 0.949 . S
C3436 C3442 1.368 . S
C3437 C3421 1.349 . S
C3437 H3429 0.950 . S
C3437 C3435 1.327 . S
C3438 C3426 1.349 . S
C3438 H3432 0.950 . S
C3438 C3439 1.327 . S
C3439 H3433 0.950 . S
C3439 C3438 1.327 . S
C3439 C3443 1.429 . S
C3440 C3423 1.574 . S
C3440 H3434 0.949 . S
C3440 C3444 1.368 . S
C3441 C3422 1.429 . S
C3441 C3435 1.429 . S
C3441 C3442 1.523 . S
C3442 C3423 1.368 . S
C3442 C3436 1.368 . S
C3442 C3441 1.523 . S
C3443 C3427 1.429 . S
C3443 C3439 1.429 . S
C3443 C3444 1.523 . S
C3444 C3428 1.368 . S
C3444 C3440 1.368 . S
C3444 C3443 1.523 . S
H3445 C3420 0.950 . S
H3446 C3422 0.950 . S
H3447 C3423 0.949 . S
H3448 C3425 0.950 . S
H3449 C3427 0.950 . S
C3450 C3451 1.349 . S
C3450 C3452 1.327 . S
C3450 H3475 0.950 . S
C3451 C3450 1.349 . S
C3451 C3467 1.349 . S
C3452 C3450 1.327 . S
C3452 C3471 1.429 . S
C3452 H3476 0.950 . S
C3453 C3470 1.574 . S
C3453 C3472 1.368 . S
C3453 H3477 0.949 . S
H3454 C3458 0.949 . S
C3455 C3456 1.349 . S
C3455 C3457 1.327 . S
C3455 H3478 0.950 . S
C3456 C3455 1.349 . S
C3456 C3468 1.349 . S
C3457 C3455 1.327 . S
C3457 C3473 1.429 . S
C3457 H3479 0.950 . S
C3458 H3454 0.949 . S
C3458 C3466 1.574 . S
C3458 C3474 1.368 . S
H3459 C3467 0.950 . S
H3460 C3465 0.950 . S
H3461 C3466 0.949 . S
H3462 C3468 0.950 . S
H3463 C3469 0.950 . S
H3464 C3470 0.949 . S
C3465 H3460 0.950 . S
C3465 C3467 1.327 . S
C3465 C3471 1.429 . S
C3466 C3458 1.574 . S
C3466 H3461 0.949 . S
C3466 C3472 1.368 . S
C3467 C3451 1.349 . S
C3467 H3459 0.950 . S
C3467 C3465 1.327 . S
C3468 C3456 1.349 . S
C3468 H3462 0.950 . S
C3468 C3469 1.327 . S
C3469 H3463 0.950 . S
C3469 C3468 1.327 . S
C3469 C3473 1.429 . S
C3470 C3453 1.574 . S
C3470 H3464 0.949 . S
C3470 C3474 1.368 . S
C3471 C3452 1.429 . S
C3471 C3465 1.429 . S
C3471 C3472 1.523 . S
C3472 C3453 1.368 . S
C3472 C3466 1.368 . S
C3472 C3471 1.523 . S
C3473 C3457 1.429 . S
C3473 C3469 1.429 . S
C3473 C3474 1.523 . S
C3474 C3458 1.368 . S
C3474 C3470 1.368 . S
C3474 C3473 1.523 . S
H3475 C3450 0.950 . S
H3476 C3452 0.950 . S
H3477 C3453 0.949 . S
H3478 C3455 0.950 . S
H3479 C3457 0.950 . S
C3480 C3481 1.349 . S
C3480 C3482 1.327 . S
C3480 H3505 0.950 . S
C3481 C3480 1.349 . S
C3481 C3497 1.349 . S
C3482 C3480 1.327 . S
C3482 C3501 1.429 . S
C3482 H3506 0.950 . S
C3483 C3500 1.574 . S
C3483 C3502 1.368 . S
C3483 H3507 0.949 . S
H3484 C3488 0.949 . S
C3485 C3486 1.349 . S
C3485 C3487 1.327 . S
C3485 H3508 0.950 . S
C3486 C3485 1.349 . S
C3486 C3498 1.349 . S
C3487 C3485 1.327 . S
C3487 C3503 1.429 . S
C3487 H3509 0.950 . S
C3488 H3484 0.949 . S
C3488 C3496 1.574 . S
C3488 C3504 1.368 . S
H3489 C3497 0.950 . S
H3490 C3495 0.950 . S
H3491 C3496 0.949 . S
H3492 C3498 0.950 . S
H3493 C3499 0.950 . S
H3494 C3500 0.949 . S
C3495 H3490 0.950 . S
C3495 C3497 1.327 . S
C3495 C3501 1.429 . S
C3496 C3488 1.574 . S
C3496 H3491 0.949 . S
C3496 C3502 1.368 . S
C3497 C3481 1.349 . S
C3497 H3489 0.950 . S
C3497 C3495 1.327 . S
C3498 C3486 1.349 . S
C3498 H3492 0.950 . S
C3498 C3499 1.327 . S
C3499 H3493 0.950 . S
C3499 C3498 1.327 . S
C3499 C3503 1.429 . S
C3500 C3483 1.574 . S
C3500 H3494 0.949 . S
C3500 C3504 1.368 . S
C3501 C3482 1.429 . S
C3501 C3495 1.429 . S
C3501 C3502 1.523 . S
C3502 C3483 1.368 . S
C3502 C3496 1.368 . S
C3502 C3501 1.523 . S
C3503 C3487 1.429 . S
C3503 C3499 1.429 . S
C3503 C3504 1.523 . S
C3504 C3488 1.368 . S
C3504 C3500 1.368 . S
C3504 C3503 1.523 . S
H3505 C3480 0.950 . S
H3506 C3482 0.950 . S
H3507 C3483 0.949 . S
H3508 C3485 0.950 . S
H3509 C3487 0.950 . S
C3510 C3511 1.338 1_556 S
C3510 C3512 1.344 . S
C3510 H3535 0.944 1_556 S
C3511 C3510 1.338 1_554 S
C3511 C3527 1.349 . S
C3512 C3510 1.344 . S
C3512 C3531 1.429 . S
C3512 H3536 0.950 . S
C3513 C3530 1.574 . S
C3513 C3532 1.368 . S
C3513 H3537 0.949 . S
H3514 C3518 0.949 . S
C3515 C3516 1.349 . S
C3515 C3517 1.327 . S
C3515 H3538 0.950 . S
C3516 C3515 1.349 . S
C3516 C3528 1.349 . S
C3517 C3515 1.327 . S
C3517 C3533 1.429 . S
C3517 H3539 0.950 . S
C3518 H3514 0.949 . S
C3518 C3526 1.574 . S
C3518 C3534 1.368 . S
H3519 C3527 0.950 . S
H3520 C3525 0.950 . S
H3521 C3526 0.949 . S
H3522 C3528 0.950 . S
H3523 C3529 0.950 . S
H3524 C3530 0.949 . S
C3525 H3520 0.950 . S
C3525 C3527 1.327 1_556 S
C3525 C3531 1.429 . S
C3526 C3518 1.574 . S
C3526 H3521 0.949 . S
C3526 C3532 1.368 . S
C3527 C3511 1.349 . S
C3527 H3519 0.950 . S
C3527 C3525 1.327 1_554 S
C3528 C3516 1.349 . S
C3528 H3522 0.950 . S
C3528 C3529 1.327 . S
C3529 H3523 0.950 . S
C3529 C3528 1.327 . S
C3529 C3533 1.429 . S
C3530 C3513 1.574 . S
C3530 H3524 0.949 . S
C3530 C3534 1.368 . S
C3531 C3512 1.429 . S
C3531 C3525 1.429 . S
C3531 C3532 1.523 . S
C3532 C3513 1.368 . S
C3532 C3526 1.368 . S
C3532 C3531 1.523 . S
C3533 C3517 1.429 . S
C3533 C3529 1.429 . S
C3533 C3534 1.523 . S
C3534 C3518 1.368 . S
C3534 C3530 1.368 . S
C3534 C3533 1.523 . S
H3535 C3510 0.944 1_554 S
H3536 C3512 0.950 . S
H3537 C3513 0.949 . S
H3538 C3515 0.950 . S
H3539 C3517 0.950 . S
C3540 C3541 1.349 . S
C3540 C3542 1.327 . S
C3540 H3565 0.950 . S
C3541 C3540 1.349 . S
C3541 C3557 1.349 . S
C3542 C3540 1.327 . S
C3542 C3561 1.429 . S
C3542 H3566 0.950 . S
C3543 C3560 1.574 . S
C3543 C3562 1.368 . S
C3543 H3567 0.949 . S
H3544 C3548 0.949 . S
C3545 C3546 1.349 . S
C3545 C3547 1.327 1_554 S
C3545 H3568 0.950 . S
C3546 C3545 1.349 . S
C3546 C3558 1.349 1_554 S
C3547 C3545 1.327 1_556 S
C3547 C3563 1.429 . S
C3547 H3569 0.950 . S
C3548 H3544 0.949 . S
C3548 C3556 1.574 . S
C3548 C3564 1.368 . S
H3549 C3557 0.950 . S
H3550 C3555 0.950 . S
H3551 C3556 0.949 . S
H3552 C3558 0.950 . S
H3553 C3559 0.950 . S
H3554 C3560 0.949 . S
C3555 H3550 0.950 . S
C3555 C3557 1.327 . S
C3555 C3561 1.429 . S
C3556 C3548 1.574 . S
C3556 H3551 0.949 . S
C3556 C3562 1.368 . S
C3557 C3541 1.349 . S
C3557 H3549 0.950 . S
C3557 C3555 1.327 . S
C3558 C3546 1.349 1_556 S
C3558 H3552 0.950 . S
C3558 C3559 1.327 . S
C3559 H3553 0.950 . S
C3559 C3558 1.327 . S
C3559 C3563 1.429 . S
C3560 C3543 1.574 . S
C3560 H3554 0.949 . S
C3560 C3564 1.368 . S
C3561 C3542 1.429 . S
C3561 C3555 1.429 . S
C3561 C3562 1.523 . S
C3562 C3543 1.368 . S
C3562 C3556 1.368 . S
C3562 C3561 1.523 . S
C3563 C3547 1.429 . S
C3563 C3559 1.429 . S
C3563 C3564 1.523 . S
C3564 C3548 1.368 . S
C3564 C3560 1.368 . S
C3564 C3563 1.523 . S
H3565 C3540 0.950 . S
H3566 C3542 0.950 . S
H3567 C3543 0.949 . S
H3568 C3545 0.950 . S
H3569 C3547 0.950 . S
C3570 C3571 1.349 . S
C3570 C3572 1.327 . S
C3570 H3595 0.950 . S
C3571 C3570 1.349 . S
C3571 C3587 1.349 . S
C3572 C3570 1.327 . S
C3572 C3591 1.429 . S
C3572 H3596 0.950 . S
C3573 C3590 1.574 . S
C3573 C3592 1.368 . S
C3573 H3597 0.949 . S
H3574 C3578 0.949 . S
C3575 C3576 1.349 . S
C3575 C3577 1.327 1_554 S
C3575 H3598 0.950 . S
C3576 C3575 1.349 . S
C3576 C3588 1.349 . S
C3577 C3575 1.327 1_556 S
C3577 C3593 1.429 . S
C3577 H3599 0.950 . S
C3578 H3574 0.949 . S
C3578 C3586 1.574 . S
C3578 C3594 1.368 . S
H3579 C3587 0.950 . S
H3580 C3585 0.950 . S
H3581 C3586 0.949 . S
H3582 C3588 0.950 . S
H3583 C3589 0.950 . S
H3584 C3590 0.949 . S
C3585 H3580 0.950 . S
C3585 C3587 1.327 . S
C3585 C3591 1.429 . S
C3586 C3578 1.574 . S
C3586 H3581 0.949 . S
C3586 C3592 1.368 . S
C3587 C3571 1.349 . S
C3587 H3579 0.950 . S
C3587 C3585 1.327 . S
C3588 C3576 1.349 . S
C3588 H3582 0.950 . S
C3588 C3589 1.327 1_554 S
C3589 H3583 0.950 . S
C3589 C3588 1.327 1_556 S
C3589 C3593 1.429 . S
C3590 C3573 1.574 . S
C3590 H3584 0.949 . S
C3590 C3594 1.368 . S
C3591 C3572 1.429 . S
C3591 C3585 1.429 . S
C3591 C3592 1.523 . S
C3592 C3573 1.368 . S
C3592 C3586 1.368 . S
C3592 C3591 1.523 . S
C3593 C3577 1.429 . S
C3593 C3589 1.429 . S
C3593 C3594 1.523 . S
C3594 C3578 1.368 . S
C3594 C3590 1.368 . S
C3594 C3593 1.523 . S
H3595 C3570 0.950 . S
H3596 C3572 0.950 . S
H3597 C3573 0.949 . S
H3598 C3575 0.950 . S
H3599 C3577 0.950 . S
C3600 C3601 1.349 . S
C3600 C3602 1.327 . S
C3600 H3625 0.950 . S
C3601 C3600 1.349 . S
C3601 C3617 1.349 . S
C3602 C3600 1.327 . S
C3602 C3621 1.429 . S
C3602 H3626 0.950 . S
C3603 C3620 1.575 1_455 S
C3603 C3622 1.369 . S
C3603 H3627 0.942 . S
H3604 C3608 0.942 . S
C3605 C3606 1.349 . S
C3605 C3607 1.327 . S
C3605 H3628 0.950 . S
C3606 C3605 1.349 . S
C3606 C3618 1.349 . S
C3607 C3605 1.327 . S
C3607 C3623 1.429 . S
C3607 H3629 0.950 . S
C3608 H3604 0.942 . S
C3608 C3616 1.576 1_655 S
C3608 C3624 1.369 . S
H3609 C3617 0.950 . S
H3610 C3615 0.950 . S
H3611 C3616 0.949 . S
H3612 C3618 0.950 . S
H3613 C3619 0.950 . S
H3614 C3620 0.949 . S
C3615 H3610 0.950 . S
C3615 C3617 1.327 . S
C3615 C3621 1.429 . S
C3616 C3608 1.576 1_455 S
C3616 H3611 0.949 . S
C3616 C3622 1.368 . S
C3617 C3601 1.349 . S
C3617 H3609 0.950 . S
C3617 C3615 1.327 . S
C3618 C3606 1.349 . S
C3618 H3612 0.950 . S
C3618 C3619 1.327 . S
C3619 H3613 0.950 . S
C3619 C3618 1.327 . S
C3619 C3623 1.429 . S
C3620 C3603 1.575 1_655 S
C3620 H3614 0.949 . S
C3620 C3624 1.368 . S
C3621 C3602 1.429 . S
C3621 C3615 1.429 . S
C3621 C3622 1.523 . S
C3622 C3603 1.369 . S
C3622 C3616 1.368 . S
C3622 C3621 1.523 . S
C3623 C3607 1.429 . S
C3623 C3619 1.429 . S
C3623 C3624 1.523 . S
C3624 C3608 1.369 . S
C3624 C3620 1.368 . S
C3624 C3623 1.523 . S
H3625 C3600 0.950 . S
H3626 C3602 0.950 . S
H3627 C3603 0.942 . S
H3628 C3605 0.950 . S
H3629 C3607 0.950 . S
C3630 C3631 1.349 . S
C3630 C3632 1.327 . S
C3630 H3655 0.950 . S
C3631 C3630 1.349 . S
C3631 C3647 1.349 . S
C3632 C3630 1.327 . S
C3632 C3651 1.429 . S
C3632 H3656 0.950 . S
C3633 C3650 1.574 . S
C3633 C3652 1.368 . S
C3633 H3657 0.949 . S
H3634 C3638 0.949 . S
C3635 C3636 1.349 . S
C3635 C3637 1.327 . S
C3635 H3658 0.950 . S
C3636 C3635 1.349 . S
C3636 C3648 1.349 . S
C3637 C3635 1.327 . S
C3637 C3653 1.429 . S
C3637 H3659 0.950 . S
C3638 H3634 0.949 . S
C3638 C3646 1.574 . S
C3638 C3654 1.368 . S
H3639 C3647 0.950 . S
H3640 C3645 0.950 . S
H3641 C3646 0.949 . S
H3642 C3648 0.950 . S
H3643 C3649 0.950 . S
H3644 C3650 0.949 . S
C3645 H3640 0.950 . S
C3645 C3647 1.327 . S
C3645 C3651 1.429 . S
C3646 C3638 1.574 . S
C3646 H3641 0.949 . S
C3646 C3652 1.368 . S
C3647 C3631 1.349 . S
C3647 H3639 0.950 . S
C3647 C3645 1.327 . S
C3648 C3636 1.349 . S
C3648 H3642 0.950 . S
C3648 C3649 1.327 . S
C3649 H3643 0.950 . S
C3649 C3648 1.327 . S
C3649 C3653 1.429 . S
C3650 C3633 1.574 . S
C3650 H3644 0.949 . S
C3650 C3654 1.368 . S
C3651 C3632 1.429 . S
C3651 C3645 1.429 . S
C3651 C3652 1.523 . S
C3652 C3633 1.368 . S
C3652 C3646 1.368 . S
C3652 C3651 1.523 . S
C3653 C3637 1.429 . S
C3653 C3649 1.429 . S
C3653 C3654 1.523 . S
C3654 C3638 1.368 . S
C3654 C3650 1.368 . S
C3654 C3653 1.523 . S
H3655 C3630 0.950 . S
H3656 C3632 0.950 . S
H3657 C3633 0.949 . S
H3658 C3635 0.950 . S
H3659 C3637 0.950 . S
C3660 C3661 1.349 . S
C3660 C3662 1.327 . S
C3660 H3685 0.950 . S
C3661 C3660 1.349 . S
C3661 C3677 1.349 . S
C3662 C3660 1.327 . S
C3662 C3681 1.429 . S
C3662 H3686 0.950 . S
C3663 C3680 1.574 1_565 S
C3663 C3682 1.368 . S
C3663 H3687 0.949 . S
H3664 C3668 0.949 . S
C3665 C3666 1.349 . S
C3665 C3667 1.327 . S
C3665 H3688 0.950 . S
C3666 C3665 1.349 . S
C3666 C3678 1.349 . S
C3667 C3665 1.327 . S
C3667 C3683 1.429 . S
C3667 H3689 0.950 . S
C3668 H3664 0.949 . S
C3668 C3676 1.574 1_545 S
C3668 C3684 1.368 . S
H3669 C3677 0.950 . S
H3670 C3675 0.950 . S
H3671 C3676 0.949 . S
H3672 C3678 0.950 . S
H3673 C3679 0.950 . S
H3674 C3680 0.949 . S
C3675 H3670 0.950 . S
C3675 C3677 1.327 . S
C3675 C3681 1.429 . S
C3676 C3668 1.574 1_565 S
C3676 H3671 0.949 . S
C3676 C3682 1.368 . S
C3677 C3661 1.349 . S
C3677 H3669 0.950 . S
C3677 C3675 1.327 . S
C3678 C3666 1.349 . S
C3678 H3672 0.950 . S
C3678 C3679 1.327 . S
C3679 H3673 0.950 . S
C3679 C3678 1.327 . S
C3679 C3683 1.429 . S
C3680 C3663 1.574 1_545 S
C3680 H3674 0.949 . S
C3680 C3684 1.368 . S
C3681 C3662 1.429 . S
C3681 C3675 1.429 . S
C3681 C3682 1.523 . S
C3682 C3663 1.368 . S
C3682 C3676 1.368 . S
C3682 C3681 1.523 . S
C3683 C3667 1.429 . S
C3683 C3679 1.429 . S
C3683 C3684 1.523 . S
C3684 C3668 1.368 . S
C3684 C3680 1.368 . S
C3684 C3683 1.523 . S
H3685 C3660 0.950 . S
H3686 C3662 0.950 . S
H3687 C3663 0.949 . S
H3688 C3665 0.950 . S
H3689 C3667 0.950 . S
C3690 C3691 1.349 . S
C3690 C3692 1.327 . S
C3690 H3715 0.950 . S
C3691 C3690 1.349 . S
C3691 C3707 1.349 . S
C3692 C3690 1.327 . S
C3692 C3711 1.429 . S
C3692 H3716 0.950 . S
C3693 C3710 1.574 . S
C3693 C3712 1.368 1_455 S
C3693 H3717 0.949 . S
H3694 C3698 0.949 . S
C3695 C3696 1.349 . S
C3695 C3697 1.327 . S
C3695 H3718 0.950 . S
C3696 C3695 1.349 . S
C3696 C3708 1.349 . S
C3697 C3695 1.327 . S
C3697 C3713 1.429 . S
C3697 H3719 0.950 . S
C3698 H3694 0.949 . S
C3698 C3706 1.574 . S
C3698 C3714 1.368 1_655 S
H3699 C3707 0.950 . S
H3700 C3705 0.950 1_455 S
H3701 C3706 0.949 . S
H3702 C3708 0.950 . S
H3703 C3709 0.950 1_655 S
H3704 C3710 0.949 . S
C3705 H3700 0.950 1_655 S
C3705 C3707 1.327 . S
C3705 C3711 1.429 . S
C3706 C3698 1.574 . S
C3706 H3701 0.949 . S
C3706 C3712 1.368 . S
C3707 C3691 1.349 . S
C3707 H3699 0.950 . S
C3707 C3705 1.327 . S
C3708 C3696 1.349 . S
C3708 H3702 0.950 . S
C3708 C3709 1.327 . S
C3709 H3703 0.950 1_455 S
C3709 C3708 1.327 . S
C3709 C3713 1.429 . S
C3710 C3693 1.574 . S
C3710 H3704 0.949 . S
C3710 C3714 1.368 . S
C3711 C3692 1.429 . S
C3711 C3705 1.429 . S
C3711 C3712 1.523 . S
C3712 C3693 1.368 1_655 S
C3712 C3706 1.368 . S
C3712 C3711 1.523 . S
C3713 C3697 1.429 . S
C3713 C3709 1.429 . S
C3713 C3714 1.523 . S
C3714 C3698 1.368 1_455 S
C3714 C3710 1.368 . S
C3714 C3713 1.523 . S
H3715 C3690 0.950 . S
H3716 C3692 0.950 . S
H3717 C3693 0.949 . S
H3718 C3695 0.950 . S
H3719 C3697 0.950 . S
C3720 C3721 1.349 . S
C3720 C3722 1.327 . S
C3720 H3745 0.950 . S
C3721 C3720 1.349 . S
C3721 C3737 1.349 . S
C3722 C3720 1.327 . S
C3722 C3741 1.429 . S
C3722 H3746 0.950 . S
C3723 C3740 1.574 . S
C3723 C3742 1.368 . S
C3723 H3747 0.949 . S
H3724 C3728 0.949 . S
C3725 C3726 1.349 . S
C3725 C3727 1.327 . S
C3725 H3748 0.950 . S
C3726 C3725 1.349 . S
C3726 C3738 1.349 . S
C3727 C3725 1.327 . S
C3727 C3743 1.429 . S
C3727 H3749 0.950 . S
C3728 H3724 0.949 . S
C3728 C3736 1.574 . S
C3728 C3744 1.368 . S
H3729 C3737 0.950 . S
H3730 C3735 0.950 . S
H3731 C3736 0.949 . S
H3732 C3738 0.950 . S
H3733 C3739 0.950 . S
H3734 C3740 0.949 . S
C3735 H3730 0.950 . S
C3735 C3737 1.327 . S
C3735 C3741 1.429 . S
C3736 C3728 1.574 . S
C3736 H3731 0.949 . S
C3736 C3742 1.368 . S
C3737 C3721 1.349 . S
C3737 H3729 0.950 . S
C3737 C3735 1.327 . S
C3738 C3726 1.349 . S
C3738 H3732 0.950 . S
C3738 C3739 1.327 . S
C3739 H3733 0.950 . S
C3739 C3738 1.327 . S
C3739 C3743 1.429 . S
C3740 C3723 1.574 . S
C3740 H3734 0.949 . S
C3740 C3744 1.368 . S
C3741 C3722 1.429 . S
C3741 C3735 1.429 . S
C3741 C3742 1.523 . S
C3742 C3723 1.368 . S
C3742 C3736 1.368 . S
C3742 C3741 1.523 . S
C3743 C3727 1.429 . S
C3743 C3739 1.429 . S
C3743 C3744 1.523 . S
C3744 C3728 1.368 . S
C3744 C3740 1.368 . S
C3744 C3743 1.523 . S
H3745 C3720 0.950 . S
H3746 C3722 0.950 . S
H3747 C3723 0.949 . S
H3748 C3725 0.950 . S
H3749 C3727 0.950 . S
C3750 C3751 1.349 . S
C3750 C3752 1.327 . S
C3750 H3775 0.950 . S
C3751 C3750 1.349 . S
C3751 C3767 1.349 . S
C3752 C3750 1.327 . S
C3752 C3771 1.429 . S
C3752 H3776 0.950 1_545 S
C3753 C3770 1.574 . S
C3753 C3772 1.368 . S
C3753 H3777 0.949 . S
H3754 C3758 0.949 . S
C3755 C3756 1.349 . S
C3755 C3757 1.327 . S
C3755 H3778 0.950 . S
C3756 C3755 1.349 . S
C3756 C3768 1.349 . S
C3757 C3755 1.327 . S
C3757 C3773 1.429 . S
C3757 H3779 0.950 1_565 S
C3758 H3754 0.949 . S
C3758 C3766 1.574 . S
C3758 C3774 1.368 . S
H3759 C3767 0.950 . S
H3760 C3765 0.950 . S
H3761 C3766 0.949 . S
H3762 C3768 0.950 . S
H3763 C3769 0.950 . S
H3764 C3770 0.949 . S
C3765 H3760 0.950 . S
C3765 C3767 1.327 . S
C3765 C3771 1.429 . S
C3766 C3758 1.574 . S
C3766 H3761 0.949 . S
C3766 C3772 1.368 1_565 S
C3767 C3751 1.349 . S
C3767 H3759 0.950 . S
C3767 C3765 1.327 . S
C3768 C3756 1.349 . S
C3768 H3762 0.950 . S
C3768 C3769 1.327 . S
C3769 H3763 0.950 . S
C3769 C3768 1.327 . S
C3769 C3773 1.429 . S
C3770 C3753 1.574 . S
C3770 H3764 0.949 . S
C3770 C3774 1.368 1_545 S
C3771 C3752 1.429 . S
C3771 C3765 1.429 . S
C3771 C3772 1.523 . S
C3772 C3753 1.368 . S
C3772 C3766 1.368 1_545 S
C3772 C3771 1.523 . S
C3773 C3757 1.429 . S
C3773 C3769 1.429 . S
C3773 C3774 1.523 . S
C3774 C3758 1.368 . S
C3774 C3770 1.368 1_565 S
C3774 C3773 1.523 . S
H3775 C3750 0.950 . S
H3776 C3752 0.950 1_565 S
H3777 C3753 0.949 . S
H3778 C3755 0.950 . S
H3779 C3757 0.950 1_545 S
C3780 C3781 1.349 . S
C3780 C3782 1.327 . S
C3780 H3805 0.950 . S
C3781 C3780 1.349 . S
C3781 C3797 1.349 . S
C3782 C3780 1.327 . S
C3782 C3801 1.429 . S
C3782 H3806 0.950 . S
C3783 C3800 1.574 . S
C3783 C3802 1.368 . S
C3783 H3807 0.949 . S
H3784 C3788 0.949 . S
C3785 C3786 1.349 . S
C3785 C3787 1.327 . S
C3785 H3808 0.950 . S
C3786 C3785 1.349 . S
C3786 C3798 1.349 . S
C3787 C3785 1.327 . S
C3787 C3803 1.429 . S
C3787 H3809 0.950 . S
C3788 H3784 0.949 . S
C3788 C3796 1.574 . S
C3788 C3804 1.368 . S
H3789 C3797 0.950 . S
H3790 C3795 0.950 . S
H3791 C3796 0.949 . S
H3792 C3798 0.950 . S
H3793 C3799 0.950 . S
H3794 C3800 0.949 . S
C3795 H3790 0.950 . S
C3795 C3797 1.327 . S
C3795 C3801 1.429 . S
C3796 C3788 1.574 . S
C3796 H3791 0.949 . S
C3796 C3802 1.368 . S
C3797 C3781 1.349 . S
C3797 H3789 0.950 . S
C3797 C3795 1.327 . S
C3798 C3786 1.349 . S
C3798 H3792 0.950 . S
C3798 C3799 1.327 . S
C3799 H3793 0.950 . S
C3799 C3798 1.327 . S
C3799 C3803 1.429 . S
C3800 C3783 1.574 . S
C3800 H3794 0.949 . S
C3800 C3804 1.368 . S
C3801 C3782 1.429 . S
C3801 C3795 1.429 . S
C3801 C3802 1.523 . S
C3802 C3783 1.368 . S
C3802 C3796 1.368 . S
C3802 C3801 1.523 . S
C3803 C3787 1.429 . S
C3803 C3799 1.429 . S
C3803 C3804 1.523 . S
C3804 C3788 1.368 . S
C3804 C3800 1.368 . S
C3804 C3803 1.523 . S
H3805 C3780 0.950 . S
H3806 C3782 0.950 . S
H3807 C3783 0.949 . S
H3808 C3785 0.950 . S
H3809 C3787 0.950 . S
C3810 C3811 1.349 . S
C3810 C3812 1.327 . S
C3810 H3835 0.950 . S
C3811 C3810 1.349 . S
C3811 C3827 1.349 . S
C3812 C3810 1.327 . S
C3812 C3831 1.429 . S
C3812 H3836 0.950 . S
C3813 C3830 1.574 . S
C3813 C3832 1.368 . S
C3813 H3837 0.949 . S
H3814 C3818 0.949 . S
C3815 C3816 1.349 . S
C3815 C3817 1.327 . S
C3815 H3838 0.950 . S
C3816 C3815 1.349 . S
C3816 C3828 1.349 . S
C3817 C3815 1.327 . S
C3817 C3833 1.429 . S
C3817 H3839 0.950 . S
C3818 H3814 0.949 . S
C3818 C3826 1.574 . S
C3818 C3834 1.368 . S
H3819 C3827 0.950 . S
H3820 C3825 0.950 . S
H3821 C3826 0.949 . S
H3822 C3828 0.950 . S
H3823 C3829 0.950 . S
H3824 C3830 0.949 . S
C3825 H3820 0.950 . S
C3825 C3827 1.327 . S
C3825 C3831 1.429 . S
C3826 C3818 1.574 . S
C3826 H3821 0.949 . S
C3826 C3832 1.368 . S
C3827 C3811 1.349 . S
C3827 H3819 0.950 . S
C3827 C3825 1.327 . S
C3828 C3816 1.349 . S
C3828 H3822 0.950 . S
C3828 C3829 1.327 . S
C3829 H3823 0.950 . S
C3829 C3828 1.327 . S
C3829 C3833 1.429 . S
C3830 C3813 1.574 . S
C3830 H3824 0.949 . S
C3830 C3834 1.368 . S
C3831 C3812 1.429 . S
C3831 C3825 1.429 . S
C3831 C3832 1.523 . S
C3832 C3813 1.368 . S
C3832 C3826 1.368 . S
C3832 C3831 1.523 . S
C3833 C3817 1.429 . S
C3833 C3829 1.429 . S
C3833 C3834 1.523 . S
C3834 C3818 1.368 . S
C3834 C3830 1.368 . S
C3834 C3833 1.523 . S
H3835 C3810 0.950 . S
H3836 C3812 0.950 . S
H3837 C3813 0.949 . S
H3838 C3815 0.950 . S
H3839 C3817 0.950 . S
C3840 C3841 1.349 . S
C3840 C3842 1.327 . S
C3840 H3865 0.950 . S
C3841 C3840 1.349 . S
C3841 C3857 1.349 . S
C3842 C3840 1.327 . S
C3842 C3861 1.429 . S
C3842 H3866 0.950 . S
C3843 C3860 1.574 . S
C3843 C3862 1.368 . S
C3843 H3867 0.949 . S
H3844 C3848 0.949 . S
C3845 C3846 1.349 . S
C3845 C3847 1.327 . S
C3845 H3868 0.950 . S
C3846 C3845 1.349 . S
C3846 C3858 1.349 . S
C3847 C3845 1.327 . S
C3847 C3863 1.429 . S
C3847 H3869 0.950 . S
C3848 H3844 0.949 . S
C3848 C3856 1.574 . S
C3848 C3864 1.368 . S
H3849 C3857 0.950 . S
H3850 C3855 0.950 . S
H3851 C3856 0.949 . S
H3852 C3858 0.950 . S
H3853 C3859 0.950 . S
H3854 C3860 0.949 . S
C3855 H3850 0.950 . S
C3855 C3857 1.327 . S
C3855 C3861 1.429 . S
C3856 C3848 1.574 . S
C3856 H3851 0.949 . S
C3856 C3862 1.368 . S
C3857 C3841 1.349 . S
C3857 H3849 0.950 . S
C3857 C3855 1.327 . S
C3858 C3846 1.349 . S
C3858 H3852 0.950 . S
C3858 C3859 1.327 . S
C3859 H3853 0.950 . S
C3859 C3858 1.327 . S
C3859 C3863 1.429 . S
C3860 C3843 1.574 . S
C3860 H3854 0.949 . S
C3860 C3864 1.368 . S
C3861 C3842 1.429 . S
C3861 C3855 1.429 . S
C3861 C3862 1.523 . S
C3862 C3843 1.368 . S
C3862 C3856 1.368 . S
C3862 C3861 1.523 . S
C3863 C3847 1.429 . S
C3863 C3859 1.429 . S
C3863 C3864 1.523 . S
C3864 C3848 1.368 . S
C3864 C3860 1.368 . S
C3864 C3863 1.523 . S
H3865 C3840 0.950 . S
H3866 C3842 0.950 . S
H3867 C3843 0.949 . S
H3868 C3845 0.950 . S
H3869 C3847 0.950 . S
C3870 C3871 1.349 . S
C3870 C3872 1.327 . S
C3870 H3895 0.950 . S
C3871 C3870 1.349 . S
C3871 C3887 1.349 . S
C3872 C3870 1.327 . S
C3872 C3891 1.429 . S
C3872 H3896 0.950 . S
C3873 C3890 1.574 . S
C3873 C3892 1.368 . S
C3873 H3897 0.949 . S
H3874 C3878 0.949 . S
C3875 C3876 1.349 . S
C3875 C3877 1.327 . S
C3875 H3898 0.950 . S
C3876 C3875 1.349 . S
C3876 C3888 1.349 . S
C3877 C3875 1.327 . S
C3877 C3893 1.429 . S
C3877 H3899 0.950 . S
C3878 H3874 0.949 . S
C3878 C3886 1.574 . S
C3878 C3894 1.368 . S
H3879 C3887 0.950 . S
H3880 C3885 0.950 . S
H3881 C3886 0.949 . S
H3882 C3888 0.950 . S
H3883 C3889 0.950 . S
H3884 C3890 0.949 . S
C3885 H3880 0.950 . S
C3885 C3887 1.327 . S
C3885 C3891 1.429 . S
C3886 C3878 1.574 . S
C3886 H3881 0.949 . S
C3886 C3892 1.368 . S
C3887 C3871 1.349 . S
C3887 H3879 0.950 . S
C3887 C3885 1.327 . S
C3888 C3876 1.349 . S
C3888 H3882 0.950 . S
C3888 C3889 1.327 . S
C3889 H3883 0.950 . S
C3889 C3888 1.327 . S
C3889 C3893 1.429 . S
C3890 C3873 1.574 . S
C3890 H3884 0.949 . S
C3890 C3894 1.368 . S
C3891 C3872 1.429 . S
C3891 C3885 1.429 . S
C3891 C3892 1.523 . S
C3892 C3873 1.368 . S
C3892 C3886 1.368 . S
C3892 C3891 1.523 . S
C3893 C3877 1.429 . S
C3893 C3889 1.429 . S
C3893 C3894 1.523 . S
C3894 C3878 1.368 . S
C3894 C3890 1.368 . S
C3894 C3893 1.523 . S
H3895 C3870 0.950 . S
H3896 C3872 0.950 . S
H3897 C3873 0.949 . S
H3898 C3875 0.950 . S
H3899 C3877 0.950 . S
C3900 C3901 1.349 . S
C3900 C3902 1.327 . S
C3900 H3925 0.950 . S
C3901 C3900 1.349 . S
C3901 C3917 1.349 . S
C3902 C3900 1.327 . S
C3902 C3921 1.429 . S
C3902 H3926 0.950 . S
C3903 C3920 1.574 . S
C3903 C3922 1.368 . S
C3903 H3927 0.949 . S
H3904 C3908 0.949 . S
C3905 C3906 1.349 . S
C3905 C3907 1.327 . S
C3905 H3928 0.950 . S
C3906 C3905 1.349 . S
C3906 C3918 1.349 . S
C3907 C3905 1.327 . S
C3907 C3923 1.429 . S
C3907 H3929 0.950 . S
C3908 H3904 0.949 . S
C3908 C3916 1.574 . S
C3908 C3924 1.368 . S
H3909 C3917 0.950 . S
H3910 C3915 0.950 . S
H3911 C3916 0.949 . S
H3912 C3918 0.950 . S
H3913 C3919 0.950 . S
H3914 C3920 0.949 . S
C3915 H3910 0.950 . S
C3915 C3917 1.327 . S
C3915 C3921 1.429 . S
C3916 C3908 1.574 . S
C3916 H3911 0.949 . S
C3916 C3922 1.368 . S
C3917 C3901 1.349 . S
C3917 H3909 0.950 . S
C3917 C3915 1.327 . S
C3918 C3906 1.349 . S
C3918 H3912 0.950 . S
C3918 C3919 1.327 . S
C3919 H3913 0.950 . S
C3919 C3918 1.327 . S
C3919 C3923 1.429 . S
C3920 C3903 1.574 . S
C3920 H3914 0.949 . S
C3920 C3924 1.368 . S
C3921 C3902 1.429 . S
C3921 C3915 1.429 . S
C3921 C3922 1.523 . S
C3922 C3903 1.368 . S
C3922 C3916 1.368 . S
C3922 C3921 1.523 . S
C3923 C3907 1.429 . S
C3923 C3919 1.429 . S
C3923 C3924 1.523 . S
C3924 C3908 1.368 . S
C3924 C3920 1.368 . S
C3924 C3923 1.523 . S
H3925 C3900 0.950 . S
H3926 C3902 0.950 . S
H3927 C3903 0.949 . S
H3928 C3905 0.950 . S
H3929 C3907 0.950 . S
C3930 C3931 1.349 . S
C3930 C3932 1.327 . S
C3930 H3955 0.950 . S
C3931 C3930 1.349 . S
C3931 C3947 1.349 . S
C3932 C3930 1.327 . S
C3932 C3951 1.429 . S
C3932 H3956 0.950 . S
C3933 C3950 1.574 . S
C3933 C3952 1.368 . S
C3933 H3957 0.949 . S
H3934 C3938 0.949 . S
C3935 C3936 1.349 . S
C3935 C3937 1.327 . S
C3935 H3958 0.950 . S
C3936 C3935 1.349 . S
C3936 C3948 1.349 . S
C3937 C3935 1.327 . S
C3937 C3953 1.429 . S
C3937 H3959 0.950 . S
C3938 H3934 0.949 . S
C3938 C3946 1.574 . S
C3938 C3954 1.368 . S
H3939 C3947 0.950 . S
H3940 C3945 0.950 . S
H3941 C3946 0.949 . S
H3942 C3948 0.950 . S
H3943 C3949 0.950 . S
H3944 C3950 0.949 . S
C3945 H3940 0.950 . S
C3945 C3947 1.327 . S
C3945 C3951 1.429 . S
C3946 C3938 1.574 . S
C3946 H3941 0.949 . S
C3946 C3952 1.368 . S
C3947 C3931 1.349 . S
C3947 H3939 0.950 . S
C3947 C3945 1.327 . S
C3948 C3936 1.349 . S
C3948 H3942 0.950 . S
C3948 C3949 1.327 . S
C3949 H3943 0.950 . S
C3949 C3948 1.327 . S
C3949 C3953 1.429 . S
C3950 C3933 1.574 . S
C3950 H3944 0.949 . S
C3950 C3954 1.368 . S
C3951 C3932 1.429 . S
C3951 C3945 1.429 . S
C3951 C3952 1.523 . S
C3952 C3933 1.368 . S
C3952 C3946 1.368 . S
C3952 C3951 1.523 . S
C3953 C3937 1.429 . S
C3953 C3949 1.429 . S
C3953 C3954 1.523 . S
C3954 C3938 1.368 . S
C3954 C3950 1.368 . S
C3954 C3953 1.523 . S
H3955 C3930 0.950 . S
H3956 C3932 0.950 . S
H3957 C3933 0.949 . S
H3958 C3935 0.950 . S
H3959 C3937 0.950 . S
C3960 C3961 1.349 . S
C3960 C3962 1.327 . S
C3960 H3985 0.950 . S
C3961 C3960 1.349 . S
C3961 C3977 1.349 . S
C3962 C3960 1.327 . S
C3962 C3981 1.429 . S
C3962 H3986 0.950 . S
C3963 C3980 1.574 . S
C3963 C3982 1.368 . S
C3963 H3987 0.949 . S
H3964 C3968 0.949 . S
C3965 C3966 1.349 . S
C3965 C3967 1.327 . S
C3965 H3988 0.950 . S
C3966 C3965 1.349 . S
C3966 C3978 1.349 . S
C3967 C3965 1.327 . S
C3967 C3983 1.429 . S
C3967 H3989 0.950 . S
C3968 H3964 0.949 . S
C3968 C3976 1.574 1_556 S
C3968 C3984 1.368 . S
H3969 C3977 0.950 . S
H3970 C3975 0.950 . S
H3971 C3976 0.949 . S
H3972 C3978 0.950 . S
H3973 C3979 0.950 . S
H3974 C3980 0.949 . S
C3975 H3970 0.950 . S
C3975 C3977 1.327 . S
C3975 C3981 1.429 . S
C3976 C3968 1.574 1_554 S
C3976 H3971 0.949 . S
C3976 C3982 1.368 . S
C3977 C3961 1.349 . S
C3977 H3969 0.950 . S
C3977 C3975 1.327 . S
C3978 C3966 1.349 . S
C3978 H3972 0.950 . S
C3978 C3979 1.327 . S
C3979 H3973 0.950 . S
C3979 C3978 1.327 . S
C3979 C3983 1.429 . S
C3980 C3963 1.574 . S
C3980 H3974 0.949 . S
C3980 C3984 1.368 1_554 S
C3981 C3962 1.429 . S
C3981 C3975 1.429 . S
C3981 C3982 1.523 . S
C3982 C3963 1.368 . S
C3982 C3976 1.368 . S
C3982 C3981 1.523 . S
C3983 C3967 1.429 . S
C3983 C3979 1.429 . S
C3983 C3984 1.523 . S
C3984 C3968 1.368 . S
C3984 C3980 1.368 1_556 S
C3984 C3983 1.523 . S
H3985 C3960 0.950 . S
H3986 C3962 0.950 . S
H3987 C3963 0.949 . S
H3988 C3965 0.950 . S
H3989 C3967 0.950 . S
C3990 C3991 1.349 . S
C3990 C3992 1.327 . S
C3990 H4015 0.950 . S
C3991 C3990 1.349 . S
C3991 C4007 1.349 . S
C3992 C3990 1.327 . S
C3992 C4011 1.429 . S
C3992 H4016 0.950 . S
C3993 C4010 1.574 . S
C3993 C4012 1.368 1_554 S
C3993 H4017 0.949 . S
H3994 C3998 0.949 . S
C3995 C3996 1.349 . S
C3995 C3997 1.327 . S
C3995 H4018 0.950 . S
C3996 C3995 1.349 . S
C3996 C4008 1.349 . S
C3997 C3995 1.327 . S
C3997 C4013 1.429 . S
C3997 H4019 0.950 . S
C3998 H3994 0.949 . S
C3998 C4006 1.574 1_554 S
C3998 C4014 1.368 . S
H3999 C4007 0.950 . S
H4000 C4005 0.950 . S
H4001 C4006 0.949 . S
H4002 C4008 0.950 . S
H4003 C4009 0.950 . S
H4004 C4010 0.949 . S
C4005 H4000 0.950 . S
C4005 C4007 1.327 . S
C4005 C4011 1.429 . S
C4006 C3998 1.574 1_556 S
C4006 H4001 0.949 . S
C4006 C4012 1.368 . S
C4007 C3991 1.349 . S
C4007 H3999 0.950 . S
C4007 C4005 1.327 . S
C4008 C3996 1.349 . S
C4008 H4002 0.950 . S
C4008 C4009 1.327 . S
C4009 H4003 0.950 . S
C4009 C4008 1.327 . S
C4009 C4013 1.429 . S
C4010 C3993 1.574 . S
C4010 H4004 0.949 . S
C4010 C4014 1.368 . S
C4011 C3992 1.429 . S
C4011 C4005 1.429 . S
C4011 C4012 1.523 . S
C4012 C3993 1.368 1_556 S
C4012 C4006 1.368 . S
C4012 C4011 1.523 . S
C4013 C3997 1.429 . S
C4013 C4009 1.429 . S
C4013 C4014 1.523 . S
C4014 C3998 1.368 . S
C4014 C4010 1.368 . S
C4014 C4013 1.523 . S
H4015 C3990 0.950 . S
H4016 C3992 0.950 . S
H4017 C3993 0.949 . S
H4018 C3995 0.950 . S
H4019 C3997 0.950 . S
C4020 C4021 1.349 . S
C4020 C4022 1.327 . S
C4020 H4045 0.950 . S
C4021 C4020 1.349 . S
C4021 C4037 1.349 . S
C4022 C4020 1.327 . S
C4022 C4041 1.429 . S
C4022 H4046 0.950 . S
C4023 C4040 1.581 . S
C4023 C4042 1.367 1_554 S
C4023 H4047 0.943 1_554 S
H4024 C4028 0.949 . S
C4025 C4026 1.349 . S
C4025 C4027 1.327 . S
C4025 H4048 0.950 . S
C4026 C4025 1.349 . S
C4026 C4038 1.349 . S
C4027 C4025 1.327 . S
C4027 C4043 1.429 . S
C4027 H4049 0.950 . S
C4028 H4024 0.949 . S
C4028 C4036 1.574 . S
C4028 C4044 1.368 . S
H4029 C4037 0.950 . S
H4030 C4035 0.950 . S
H4031 C4036 0.949 . S
H4032 C4038 0.950 . S
H4033 C4039 0.950 . S
H4034 C4040 0.949 . S
C4035 H4030 0.950 . S
C4035 C4037 1.327 . S
C4035 C4041 1.429 . S
C4036 C4028 1.574 . S
C4036 H4031 0.949 . S
C4036 C4042 1.368 1_554 S
C4037 C4021 1.349 . S
C4037 H4029 0.950 . S
C4037 C4035 1.327 . S
C4038 C4026 1.349 . S
C4038 H4032 0.950 . S
C4038 C4039 1.327 . S
C4039 H4033 0.950 . S
C4039 C4038 1.327 . S
C4039 C4043 1.429 . S
C4040 C4023 1.581 . S
C4040 H4034 0.949 . S
C4040 C4044 1.368 . S
C4041 C4022 1.429 . S
C4041 C4035 1.429 . S
C4041 C4042 1.523 . S
C4042 C4023 1.367 1_556 S
C4042 C4036 1.368 1_556 S
C4042 C4041 1.523 . S
C4043 C4027 1.429 . S
C4043 C4039 1.429 . S
C4043 C4044 1.523 . S
C4044 C4028 1.368 . S
C4044 C4040 1.368 . S
C4044 C4043 1.523 . S
H4045 C4020 0.950 . S
H4046 C4022 0.950 . S
H4047 C4023 0.943 1_556 S
H4048 C4025 0.950 . S
H4049 C4027 0.950 . S
C4050 C4051 1.349 . S
C4050 C4052 1.327 . S
C4050 H4075 0.950 . S
C4051 C4050 1.349 . S
C4051 C4067 1.349 . S
C4052 C4050 1.327 . S
C4052 C4071 1.429 . S
C4052 H4076 0.950 . S
C4053 C4070 1.574 . S
C4053 C4072 1.368 . S
C4053 H4077 0.949 . S
H4054 C4058 0.949 . S
C4055 C4056 1.349 . S
C4055 C4057 1.327 . S
C4055 H4078 0.950 . S
C4056 C4055 1.349 . S
C4056 C4068 1.349 . S
C4057 C4055 1.327 . S
C4057 C4073 1.429 . S
C4057 H4079 0.950 . S
C4058 H4054 0.949 . S
C4058 C4066 1.574 . S
C4058 C4074 1.368 . S
H4059 C4067 0.950 . S
H4060 C4065 0.950 . S
H4061 C4066 0.949 . S
H4062 C4068 0.950 . S
H4063 C4069 0.950 . S
H4064 C4070 0.949 . S
C4065 H4060 0.950 . S
C4065 C4067 1.327 . S
C4065 C4071 1.429 . S
C4066 C4058 1.574 . S
C4066 H4061 0.949 . S
C4066 C4072 1.368 . S
C4067 C4051 1.349 . S
C4067 H4059 0.950 . S
C4067 C4065 1.327 . S
C4068 C4056 1.349 . S
C4068 H4062 0.950 . S
C4068 C4069 1.327 . S
C4069 H4063 0.950 . S
C4069 C4068 1.327 . S
C4069 C4073 1.429 . S
C4070 C4053 1.574 . S
C4070 H4064 0.949 . S
C4070 C4074 1.368 . S
C4071 C4052 1.429 . S
C4071 C4065 1.429 . S
C4071 C4072 1.523 . S
C4072 C4053 1.368 . S
C4072 C4066 1.368 . S
C4072 C4071 1.523 . S
C4073 C4057 1.429 . S
C4073 C4069 1.429 . S
C4073 C4074 1.523 . S
C4074 C4058 1.368 . S
C4074 C4070 1.368 . S
C4074 C4073 1.523 . S
H4075 C4050 0.950 . S
H4076 C4052 0.950 . S
H4077 C4053 0.949 . S
H4078 C4055 0.950 . S
H4079 C4057 0.950 . S
C4080 C4081 1.349 . S
C4080 C4082 1.327 . S
C4080 H4105 0.950 . S
C4081 C4080 1.349 . S
C4081 C4097 1.349 . S
C4082 C4080 1.327 . S
C4082 C4101 1.429 . S
C4082 H4106 0.950 . S
C4083 C4100 1.574 . S
C4083 C4102 1.368 . S
C4083 H4107 0.949 . S
H4084 C4088 0.949 . S
C4085 C4086 1.349 . S
C4085 C4087 1.327 . S
C4085 H4108 0.950 . S
C4086 C4085 1.349 . S
C4086 C4098 1.349 . S
C4087 C4085 1.327 . S
C4087 C4103 1.429 . S
C4087 H4109 0.950 . S
C4088 H4084 0.949 . S
C4088 C4096 1.574 . S
C4088 C4104 1.368 . S
H4089 C4097 0.950 . S
H4090 C4095 0.950 . S
H4091 C4096 0.949 . S
H4092 C4098 0.950 . S
H4093 C4099 0.950 . S
H4094 C4100 0.949 . S
C4095 H4090 0.950 . S
C4095 C4097 1.327 . S
C4095 C4101 1.429 . S
C4096 C4088 1.574 . S
C4096 H4091 0.949 . S
C4096 C4102 1.368 . S
C4097 C4081 1.349 . S
C4097 H4089 0.950 . S
C4097 C4095 1.327 . S
C4098 C4086 1.349 . S
C4098 H4092 0.950 . S
C4098 C4099 1.327 . S
C4099 H4093 0.950 . S
C4099 C4098 1.327 . S
C4099 C4103 1.429 . S
C4100 C4083 1.574 . S
C4100 H4094 0.949 . S
C4100 C4104 1.368 . S
C4101 C4082 1.429 . S
C4101 C4095 1.429 . S
C4101 C4102 1.523 . S
C4102 C4083 1.368 . S
C4102 C4096 1.368 . S
C4102 C4101 1.523 . S
C4103 C4087 1.429 . S
C4103 C4099 1.429 . S
C4103 C4104 1.523 . S
C4104 C4088 1.368 . S
C4104 C4100 1.368 . S
C4104 C4103 1.523 . S
H4105 C4080 0.950 . S
H4106 C4082 0.950 . S
H4107 C4083 0.949 . S
H4108 C4085 0.950 . S
H4109 C4087 0.950 . S
C4110 C4111 1.349 . S
C4110 C4112 1.327 . S
C4110 H4135 0.950 . S
C4111 C4110 1.349 . S
C4111 C4127 1.349 . S
C4112 C4110 1.327 . S
C4112 C4131 1.429 . S
C4112 H4136 0.950 . S
C4113 C4130 1.574 . S
C4113 C4132 1.368 . S
C4113 H4137 0.949 . S
H4114 C4118 0.949 . S
C4115 C4116 1.349 . S
C4115 C4117 1.327 . S
C4115 H4138 0.950 . S
C4116 C4115 1.349 . S
C4116 C4128 1.349 . S
C4117 C4115 1.327 . S
C4117 C4133 1.429 . S
C4117 H4139 0.950 . S
C4118 H4114 0.949 . S
C4118 C4126 1.574 . S
C4118 C4134 1.368 . S
H4119 C4127 0.950 . S
H4120 C4125 0.950 . S
H4121 C4126 0.949 . S
H4122 C4128 0.950 . S
H4123 C4129 0.950 . S
H4124 C4130 0.949 . S
C4125 H4120 0.950 . S
C4125 C4127 1.327 . S
C4125 C4131 1.429 . S
C4126 C4118 1.574 . S
C4126 H4121 0.949 . S
C4126 C4132 1.368 . S
C4127 C4111 1.349 . S
C4127 H4119 0.950 . S
C4127 C4125 1.327 . S
C4128 C4116 1.349 . S
C4128 H4122 0.950 . S
C4128 C4129 1.327 . S
C4129 H4123 0.950 . S
C4129 C4128 1.327 . S
C4129 C4133 1.429 . S
C4130 C4113 1.574 . S
C4130 H4124 0.949 . S
C4130 C4134 1.368 . S
C4131 C4112 1.429 . S
C4131 C4125 1.429 . S
C4131 C4132 1.523 . S
C4132 C4113 1.368 . S
C4132 C4126 1.368 . S
C4132 C4131 1.523 . S
C4133 C4117 1.429 . S
C4133 C4129 1.429 . S
C4133 C4134 1.523 . S
C4134 C4118 1.368 . S
C4134 C4130 1.368 . S
C4134 C4133 1.523 . S
H4135 C4110 0.950 . S
H4136 C4112 0.950 . S
H4137 C4113 0.949 . S
H4138 C4115 0.950 . S
H4139 C4117 0.950 . S
C4140 C4141 1.349 . S
C4140 C4142 1.327 . S
C4140 H4165 0.950 . S
C4141 C4140 1.349 . S
C4141 C4157 1.349 . S
C4142 C4140 1.327 . S
C4142 C4161 1.429 . S
C4142 H4166 0.950 . S
C4143 C4160 1.574 1_455 S
C4143 C4162 1.368 . S
C4143 H4167 0.949 . S
H4144 C4148 0.949 . S
C4145 C4146 1.349 . S
C4145 C4147 1.327 . S
C4145 H4168 0.950 . S
C4146 C4145 1.349 . S
C4146 C4158 1.349 . S
C4147 C4145 1.327 . S
C4147 C4163 1.429 . S
C4147 H4169 0.950 . S
C4148 H4144 0.949 . S
C4148 C4156 1.574 1_655 S
C4148 C4164 1.368 . S
H4149 C4157 0.950 . S
H4150 C4155 0.950 . S
H4151 C4156 0.949 . S
H4152 C4158 0.950 . S
H4153 C4159 0.950 . S
H4154 C4160 0.949 . S
C4155 H4150 0.950 . S
C4155 C4157 1.327 . S
C4155 C4161 1.429 . S
C4156 C4148 1.574 1_455 S
C4156 H4151 0.949 . S
C4156 C4162 1.368 . S
C4157 C4141 1.349 . S
C4157 H4149 0.950 . S
C4157 C4155 1.327 . S
C4158 C4146 1.349 . S
C4158 H4152 0.950 . S
C4158 C4159 1.327 . S
C4159 H4153 0.950 . S
C4159 C4158 1.327 . S
C4159 C4163 1.429 . S
C4160 C4143 1.574 1_655 S
C4160 H4154 0.949 . S
C4160 C4164 1.368 . S
C4161 C4142 1.429 . S
C4161 C4155 1.429 . S
C4161 C4162 1.523 . S
C4162 C4143 1.368 . S
C4162 C4156 1.368 . S
C4162 C4161 1.523 . S
C4163 C4147 1.429 . S
C4163 C4159 1.429 . S
C4163 C4164 1.523 . S
C4164 C4148 1.368 . S
C4164 C4160 1.368 . S
C4164 C4163 1.523 . S
H4165 C4140 0.950 . S
H4166 C4142 0.950 . S
H4167 C4143 0.949 . S
H4168 C4145 0.950 . S
H4169 C4147 0.950 . S
C4170 C4171 1.349 . S
C4170 C4172 1.327 . S
C4170 H4195 0.950 . S
C4171 C4170 1.349 . S
C4171 C4187 1.349 . S
C4172 C4170 1.327 . S
C4172 C4191 1.429 . S
C4172 H4196 0.950 . S
C4173 C4190 1.574 . S
C4173 C4192 1.368 . S
C4173 H4197 0.949 . S
H4174 C4178 0.949 . S
C4175 C4176 1.349 . S
C4175 C4177 1.327 . S
C4175 H4198 0.950 . S
C4176 C4175 1.349 . S
C4176 C4188 1.349 . S
C4177 C4175 1.327 . S
C4177 C4193 1.429 . S
C4177 H4199 0.950 . S
C4178 H4174 0.949 . S
C4178 C4186 1.574 . S
C4178 C4194 1.368 . S
H4179 C4187 0.950 . S
H4180 C4185 0.950 . S
H4181 C4186 0.949 . S
H4182 C4188 0.950 . S
H4183 C4189 0.950 . S
H4184 C4190 0.949 . S
C4185 H4180 0.950 . S
C4185 C4187 1.327 . S
C4185 C4191 1.429 . S
C4186 C4178 1.574 . S
C4186 H4181 0.949 . S
C4186 C4192 1.368 . S
C4187 C4171 1.349 . S
C4187 H4179 0.950 . S
C4187 C4185 1.327 . S
C4188 C4176 1.349 . S
C4188 H4182 0.950 . S
C4188 C4189 1.327 . S
C4189 H4183 0.950 . S
C4189 C4188 1.327 . S
C4189 C4193 1.429 . S
C4190 C4173 1.574 . S
C4190 H4184 0.949 . S
C4190 C4194 1.368 . S
C4191 C4172 1.429 . S
C4191 C4185 1.429 . S
C4191 C4192 1.523 . S
C4192 C4173 1.368 . S
C4192 C4186 1.368 . S
C4192 C4191 1.523 . S
C4193 C4177 1.429 . S
C4193 C4189 1.429 . S
C4193 C4194 1.523 . S
C4194 C4178 1.368 . S
C4194 C4190 1.368 . S
C4194 C4193 1.523 . S
H4195 C4170 0.950 . S
H4196 C4172 0.950 . S
H4197 C4173 0.949 . S
H4198 C4175 0.950 . S
H4199 C4177 0.950 . S
C4200 C4201 1.349 . S
C4200 C4202 1.327 . S
C4200 H4225 0.950 . S
C4201 C4200 1.349 . S
C4201 C4217 1.349 . S
C4202 C4200 1.327 . S
C4202 C4221 1.429 . S
C4202 H4226 0.950 . S
C4203 C4220 1.574 1_545 S
C4203 C4222 1.368 . S
C4203 H4227 0.949 . S
H4204 C4208 0.949 . S
C4205 C4206 1.349 . S
C4205 C4207 1.327 . S
C4205 H4228 0.950 . S
C4206 C4205 1.349 . S
C4206 C4218 1.349 . S
C4207 C4205 1.327 . S
C4207 C4223 1.429 . S
C4207 H4229 0.950 . S
C4208 H4204 0.949 . S
C4208 C4216 1.574 1_565 S
C4208 C4224 1.368 . S
H4209 C4217 0.950 . S
H4210 C4215 0.950 . S
H4211 C4216 0.949 . S
H4212 C4218 0.950 . S
H4213 C4219 0.950 . S
H4214 C4220 0.949 . S
C4215 H4210 0.950 . S
C4215 C4217 1.327 . S
C4215 C4221 1.429 . S
C4216 C4208 1.574 1_545 S
C4216 H4211 0.949 . S
C4216 C4222 1.368 . S
C4217 C4201 1.349 . S
C4217 H4209 0.950 . S
C4217 C4215 1.327 . S
C4218 C4206 1.349 . S
C4218 H4212 0.950 . S
C4218 C4219 1.327 . S
C4219 H4213 0.950 . S
C4219 C4218 1.327 . S
C4219 C4223 1.429 . S
C4220 C4203 1.574 1_565 S
C4220 H4214 0.949 . S
C4220 C4224 1.368 . S
C4221 C4202 1.429 . S
C4221 C4215 1.429 . S
C4221 C4222 1.523 . S
C4222 C4203 1.368 . S
C4222 C4216 1.368 . S
C4222 C4221 1.523 . S
C4223 C4207 1.429 . S
C4223 C4219 1.429 . S
C4223 C4224 1.523 . S
C4224 C4208 1.368 . S
C4224 C4220 1.368 . S
C4224 C4223 1.523 . S
H4225 C4200 0.950 . S
H4226 C4202 0.950 . S
H4227 C4203 0.949 . S
H4228 C4205 0.950 . S
H4229 C4207 0.950 . S
C4230 C4231 1.349 . S
C4230 C4232 1.327 . S
C4230 H4255 0.950 . S
C4231 C4230 1.349 . S
C4231 C4247 1.349 . S
C4232 C4230 1.327 . S
C4232 C4251 1.429 . S
C4232 H4256 0.950 . S
C4233 C4250 1.574 1_565 S
C4233 C4252 1.368 . S
C4233 H4257 0.949 . S
H4234 C4238 0.949 . S
C4235 C4236 1.349 . S
C4235 C4237 1.327 . S
C4235 H4258 0.950 . S
C4236 C4235 1.349 . S
C4236 C4248 1.349 . S
C4237 C4235 1.327 . S
C4237 C4253 1.429 . S
C4237 H4259 0.950 . S
C4238 H4234 0.949 . S
C4238 C4246 1.574 1_545 S
C4238 C4254 1.368 . S
H4239 C4247 0.950 . S
H4240 C4245 0.950 . S
H4241 C4246 0.949 . S
H4242 C4248 0.950 . S
H4243 C4249 0.950 . S
H4244 C4250 0.949 . S
C4245 H4240 0.950 . S
C4245 C4247 1.327 . S
C4245 C4251 1.429 . S
C4246 C4238 1.574 1_565 S
C4246 H4241 0.949 . S
C4246 C4252 1.368 . S
C4247 C4231 1.349 . S
C4247 H4239 0.950 . S
C4247 C4245 1.327 . S
C4248 C4236 1.349 . S
C4248 H4242 0.950 . S
C4248 C4249 1.327 . S
C4249 H4243 0.950 . S
C4249 C4248 1.327 . S
C4249 C4253 1.429 . S
C4250 C4233 1.574 1_545 S
C4250 H4244 0.949 . S
C4250 C4254 1.368 . S
C4251 C4232 1.429 . S
C4251 C4245 1.429 . S
C4251 C4252 1.523 . S
C4252 C4233 1.368 . S
C4252 C4246 1.368 . S
C4252 C4251 1.523 . S
C4253 C4237 1.429 . S
C4253 C4249 1.429 . S
C4253 C4254 1.523 . S
C4254 C4238 1.368 . S
C4254 C4250 1.368 . S
C4254 C4253 1.523 . S
H4255 C4230 0.950 . S
H4256 C4232 0.950 . S
H4257 C4233 0.949 . S
H4258 C4235 0.950 . S
H4259 C4237 0.950 . S
C4260 C4261 1.349 . S
C4260 C4262 1.327 . S
C4260 H4285 0.950 . S
C4261 C4260 1.349 . S
C4261 C4277 1.349 . S
C4262 C4260 1.327 . S
C4262 C4281 1.429 . S
C4262 H4286 0.950 . S
C4263 C4280 1.574 1_655 S
C4263 C4282 1.368 . S
C4263 H4287 0.949 . S
H4264 C4268 0.949 . S
C4265 C4266 1.349 . S
C4265 C4267 1.327 . S
C4265 H4288 0.950 . S
C4266 C4265 1.349 . S
C4266 C4278 1.349 . S
C4267 C4265 1.327 . S
C4267 C4283 1.429 . S
C4267 H4289 0.950 . S
C4268 H4264 0.949 . S
C4268 C4276 1.574 1_455 S
C4268 C4284 1.368 . S
H4269 C4277 0.950 . S
H4270 C4275 0.950 . S
H4271 C4276 0.949 . S
H4272 C4278 0.950 . S
H4273 C4279 0.950 . S
H4274 C4280 0.949 . S
C4275 H4270 0.950 . S
C4275 C4277 1.327 . S
C4275 C4281 1.429 . S
C4276 C4268 1.574 1_655 S
C4276 H4271 0.949 . S
C4276 C4282 1.368 . S
C4277 C4261 1.349 . S
C4277 H4269 0.950 . S
C4277 C4275 1.327 . S
C4278 C4266 1.349 . S
C4278 H4272 0.950 . S
C4278 C4279 1.327 . S
C4279 H4273 0.950 . S
C4279 C4278 1.327 . S
C4279 C4283 1.429 . S
C4280 C4263 1.574 1_455 S
C4280 H4274 0.949 . S
C4280 C4284 1.368 . S
C4281 C4262 1.429 . S
C4281 C4275 1.429 . S
C4281 C4282 1.523 . S
C4282 C4263 1.368 . S
C4282 C4276 1.368 . S
C4282 C4281 1.523 . S
C4283 C4267 1.429 . S
C4283 C4279 1.429 . S
C4283 C4284 1.523 . S
C4284 C4268 1.368 . S
C4284 C4280 1.368 . S
C4284 C4283 1.523 . S
H4285 C4260 0.950 . S
H4286 C4262 0.950 . S
H4287 C4263 0.949 . S
H4288 C4265 0.950 . S
H4289 C4267 0.950 . S
C4290 C4291 1.349 . S
C4290 C4292 1.327 . S
C4290 H4315 0.950 . S
C4291 C4290 1.349 . S
C4291 C4307 1.349 . S
C4292 C4290 1.327 . S
C4292 C4311 1.429 . S
C4292 H4316 0.950 . S
C4293 C4310 1.574 . S
C4293 C4312 1.368 . S
C4293 H4317 0.949 . S
H4294 C4298 0.949 . S
C4295 C4296 1.349 . S
C4295 C4297 1.327 . S
C4295 H4318 0.950 . S
C4296 C4295 1.349 . S
C4296 C4308 1.349 . S
C4297 C4295 1.327 . S
C4297 C4313 1.429 . S
C4297 H4319 0.950 . S
C4298 H4294 0.949 . S
C4298 C4306 1.574 . S
C4298 C4314 1.368 . S
H4299 C4307 0.950 . S
H4300 C4305 0.950 . S
H4301 C4306 0.949 . S
H4302 C4308 0.950 . S
H4303 C4309 0.950 . S
H4304 C4310 0.949 . S
C4305 H4300 0.950 . S
C4305 C4307 1.327 . S
C4305 C4311 1.429 . S
C4306 C4298 1.574 . S
C4306 H4301 0.949 . S
C4306 C4312 1.368 . S
C4307 C4291 1.349 . S
C4307 H4299 0.950 . S
C4307 C4305 1.327 . S
C4308 C4296 1.349 . S
C4308 H4302 0.950 . S
C4308 C4309 1.327 . S
C4309 H4303 0.950 . S
C4309 C4308 1.327 . S
C4309 C4313 1.429 . S
C4310 C4293 1.574 . S
C4310 H4304 0.949 . S
C4310 C4314 1.368 . S
C4311 C4292 1.429 . S
C4311 C4305 1.429 . S
C4311 C4312 1.523 . S
C4312 C4293 1.368 . S
C4312 C4306 1.368 . S
C4312 C4311 1.523 . S
C4313 C4297 1.429 . S
C4313 C4309 1.429 . S
C4313 C4314 1.523 . S
C4314 C4298 1.368 . S
C4314 C4310 1.368 . S
C4314 C4313 1.523 . S
H4315 C4290 0.950 . S
H4316 C4292 0.950 . S
H4317 C4293 0.949 . S
H4318 C4295 0.950 . S
H4319 C4297 0.950 . S
C4320 C4321 1.349 . S
C4320 C4322 1.327 . S
C4320 H4345 0.950 . S
C4321 C4320 1.349 . S
C4321 C4337 1.349 . S
C4322 C4320 1.327 . S
C4322 C4341 1.429 . S
C4322 H4346 0.950 . S
C4323 C4340 1.574 . S
C4323 C4342 1.368 . S
C4323 H4347 0.949 . S
H4324 C4328 0.949 . S
C4325 C4326 1.349 . S
C4325 C4327 1.327 . S
C4325 H4348 0.950 . S
C4326 C4325 1.349 . S
C4326 C4338 1.349 . S
C4327 C4325 1.327 . S
C4327 C4343 1.429 . S
C4327 H4349 0.950 . S
C4328 H4324 0.949 . S
C4328 C4336 1.574 . S
C4328 C4344 1.368 . S
H4329 C4337 0.950 . S
H4330 C4335 0.950 . S
H4331 C4336 0.949 . S
H4332 C4338 0.950 . S
H4333 C4339 0.950 . S
H4334 C4340 0.949 . S
C4335 H4330 0.950 . S
C4335 C4337 1.327 . S
C4335 C4341 1.429 . S
C4336 C4328 1.574 . S
C4336 H4331 0.949 . S
C4336 C4342 1.368 . S
C4337 C4321 1.349 . S
C4337 H4329 0.950 . S
C4337 C4335 1.327 . S
C4338 C4326 1.349 . S
C4338 H4332 0.950 . S
C4338 C4339 1.327 . S
C4339 H4333 0.950 . S
C4339 C4338 1.327 . S
C4339 C4343 1.429 . S
C4340 C4323 1.574 . S
C4340 H4334 0.949 . S
C4340 C4344 1.368 . S
C4341 C4322 1.429 . S
C4341 C4335 1.429 . S
C4341 C4342 1.523 . S
C4342 C4323 1.368 . S
C4342 C4336 1.368 . S
C4342 C4341 1.523 . S
C4343 C4327 1.429 . S
C4343 C4339 1.429 . S
C4343 C4344 1.523 . S
C4344 C4328 1.368 . S
C4344 C4340 1.368 . S
C4344 C4343 1.523 . S
H4345 C4320 0.950 . S
H4346 C4322 0.950 . S
H4347 C4323 0.949 . S
H4348 C4325 0.950 . S
H4349 C4327 0.950 . S
C4350 C4351 1.349 . S
C4350 C4352 1.327 . S
C4350 H4375 0.950 . S
C4351 C4350 1.349 . S
C4351 C4367 1.349 . S
C4352 C4350 1.327 . S
C4352 C4371 1.429 . S
C4352 H4376 0.950 . S
C4353 C4370 1.574 . S
C4353 C4372 1.368 . S
C4353 H4377 0.949 . S
H4354 C4358 0.949 . S
C4355 C4356 1.349 . S
C4355 C4357 1.327 . S
C4355 H4378 0.950 . S
C4356 C4355 1.349 . S
C4356 C4368 1.349 . S
C4357 C4355 1.327 . S
C4357 C4373 1.429 . S
C4357 H4379 0.950 . S
C4358 H4354 0.949 . S
C4358 C4366 1.574 . S
C4358 C4374 1.368 . S
H4359 C4367 0.950 . S
H4360 C4365 0.950 . S
H4361 C4366 0.949 . S
H4362 C4368 0.950 . S
H4363 C4369 0.950 . S
H4364 C4370 0.949 . S
C4365 H4360 0.950 . S
C4365 C4367 1.327 . S
C4365 C4371 1.429 . S
C4366 C4358 1.574 . S
C4366 H4361 0.949 . S
C4366 C4372 1.368 . S
C4367 C4351 1.349 . S
C4367 H4359 0.950 . S
C4367 C4365 1.327 . S
C4368 C4356 1.349 . S
C4368 H4362 0.950 . S
C4368 C4369 1.327 . S
C4369 H4363 0.950 . S
C4369 C4368 1.327 . S
C4369 C4373 1.429 . S
C4370 C4353 1.574 . S
C4370 H4364 0.949 . S
C4370 C4374 1.368 . S
C4371 C4352 1.429 . S
C4371 C4365 1.429 . S
C4371 C4372 1.523 . S
C4372 C4353 1.368 . S
C4372 C4366 1.368 . S
C4372 C4371 1.523 . S
C4373 C4357 1.429 . S
C4373 C4369 1.429 . S
C4373 C4374 1.523 . S
C4374 C4358 1.368 . S
C4374 C4370 1.368 . S
C4374 C4373 1.523 . S
H4375 C4350 0.950 . S
H4376 C4352 0.950 . S
H4377 C4353 0.949 . S
H4378 C4355 0.950 . S
H4379 C4357 0.950 . S
C4380 C4381 1.349 . S
C4380 C4382 1.327 . S
C4380 H4405 0.950 . S
C4381 C4380 1.349 . S
C4381 C4397 1.349 . S
C4382 C4380 1.327 . S
C4382 C4401 1.429 . S
C4382 H4406 0.950 . S
C4383 C4400 1.574 . S
C4383 C4402 1.368 . S
C4383 H4407 0.949 . S
H4384 C4388 0.949 . S
C4385 C4386 1.349 . S
C4385 C4387 1.327 . S
C4385 H4408 0.950 . S
C4386 C4385 1.349 . S
C4386 C4398 1.349 . S
C4387 C4385 1.327 . S
C4387 C4403 1.429 . S
C4387 H4409 0.950 . S
C4388 H4384 0.949 . S
C4388 C4396 1.574 . S
C4388 C4404 1.368 . S
H4389 C4397 0.950 . S
H4390 C4395 0.950 . S
H4391 C4396 0.949 . S
H4392 C4398 0.950 . S
H4393 C4399 0.950 . S
H4394 C4400 0.949 . S
C4395 H4390 0.950 . S
C4395 C4397 1.327 . S
C4395 C4401 1.429 . S
C4396 C4388 1.574 . S
C4396 H4391 0.949 . S
C4396 C4402 1.368 . S
C4397 C4381 1.349 . S
C4397 H4389 0.950 . S
C4397 C4395 1.327 . S
C4398 C4386 1.349 . S
C4398 H4392 0.950 . S
C4398 C4399 1.327 . S
C4399 H4393 0.950 . S
C4399 C4398 1.327 . S
C4399 C4403 1.429 . S
C4400 C4383 1.574 . S
C4400 H4394 0.949 . S
C4400 C4404 1.368 . S
C4401 C4382 1.429 . S
C4401 C4395 1.429 . S
C4401 C4402 1.523 . S
C4402 C4383 1.368 . S
C4402 C4396 1.368 . S
C4402 C4401 1.523 . S
C4403 C4387 1.429 . S
C4403 C4399 1.429 . S
C4403 C4404 1.523 . S
C4404 C4388 1.368 . S
C4404 C4400 1.368 . S
C4404 C4403 1.523 . S
H4405 C4380 0.950 . S
H4406 C4382 0.950 . S
H4407 C4383 0.949 . S
H4408 C4385 0.950 . S
H4409 C4387 0.950 . S
C4410 C4411 1.349 . S
C4410 C4412 1.327 . S
C4410 H4435 0.950 . S
C4411 C4410 1.349 . S
C4411 C4427 1.349 . S
C4412 C4410 1.327 . S
C4412 C4431 1.429 . S
C4412 H4436 0.950 . S
C4413 C4430 1.574 . S
C4413 C4432 1.368 . S
C4413 H4437 0.949 . S
H4414 C4418 0.949 . S
C4415 C4416 1.358 . S
C4415 C4417 1.327 . S
C4415 H4438 0.950 . S
C4416 C4415 1.358 . S
C4416 C4428 1.344 1_556 S
C4417 C4415 1.327 . S
C4417 C4433 1.429 . S
C4417 H4439 0.950 . S
C4418 H4414 0.949 . S
C4418 C4426 1.574 . S
C4418 C4434 1.368 . S
H4419 C4427 0.950 . S
H4420 C4425 0.950 . S
H4421 C4426 0.949 . S
H4422 C4428 0.950 . S
H4423 C4429 0.957 . S
H4424 C4430 0.949 . S
C4425 H4420 0.950 . S
C4425 C4427 1.327 . S
C4425 C4431 1.429 . S
C4426 C4418 1.574 . S
C4426 H4421 0.949 . S
C4426 C4432 1.368 . S
C4427 C4411 1.349 . S
C4427 H4419 0.950 . S
C4427 C4425 1.327 . S
C4428 C4416 1.344 1_554 S
C4428 H4422 0.950 . S
C4428 C4429 1.334 . S
C4429 H4423 0.957 . S
C4429 C4428 1.334 . S
C4429 C4433 1.415 1_554 S
C4430 C4413 1.574 . S
C4430 H4424 0.949 . S
C4430 C4434 1.368 . S
C4431 C4412 1.429 . S
C4431 C4425 1.429 . S
C4431 C4432 1.523 . S
C4432 C4413 1.368 . S
C4432 C4426 1.368 . S
C4432 C4431 1.523 . S
C4433 C4417 1.429 . S
C4433 C4429 1.415 1_556 S
C4433 C4434 1.523 . S
C4434 C4418 1.368 . S
C4434 C4430 1.368 . S
C4434 C4433 1.523 . S
H4435 C4410 0.950 . S
H4436 C4412 0.950 . S
H4437 C4413 0.949 . S
H4438 C4415 0.950 . S
H4439 C4417 0.950 . S
C4440 C4441 1.349 . S
C4440 C4442 1.327 . S
C4440 H4465 0.950 . S
C4441 C4440 1.349 . S
C4441 C4457 1.349 . S
C4442 C4440 1.327 . S
C4442 C4461 1.429 . S
C4442 H4466 0.950 . S
C4443 C4460 1.574 . S
C4443 C4462 1.368 . S
C4443 H4467 0.949 . S
H4444 C4448 0.949 . S
C4445 C4446 1.357 . S
C4445 C4447 1.327 . S
C4445 H4468 0.950 . S
C4446 C4445 1.357 . S
C4446 C4458 1.346 1_556 S
C4447 C4445 1.327 . S
C4447 C4463 1.429 . S
C4447 H4469 0.950 . S
C4448 H4444 0.949 . S
C4448 C4456 1.574 . S
C4448 C4464 1.368 . S
H4449 C4457 0.950 . S
H4450 C4455 0.950 . S
H4451 C4456 0.949 . S
H4452 C4458 0.950 . S
H4453 C4459 0.938 1_554 S
H4454 C4460 0.949 . S
C4455 H4450 0.950 . S
C4455 C4457 1.327 . S
C4455 C4461 1.429 . S
C4456 C4448 1.574 . S
C4456 H4451 0.949 . S
C4456 C4462 1.368 . S
C4457 C4441 1.349 . S
C4457 H4449 0.950 . S
C4457 C4455 1.327 . S
C4458 C4446 1.346 1_554 S
C4458 H4452 0.950 . S
C4458 C4459 1.327 1_554 S
C4459 H4453 0.938 1_556 S
C4459 C4458 1.327 1_556 S
C4459 C4463 1.429 . S
C4460 C4443 1.574 . S
C4460 H4454 0.949 . S
C4460 C4464 1.368 . S
C4461 C4442 1.429 . S
C4461 C4455 1.429 . S
C4461 C4462 1.523 . S
C4462 C4443 1.368 . S
C4462 C4456 1.368 . S
C4462 C4461 1.523 . S
C4463 C4447 1.429 . S
C4463 C4459 1.429 . S
C4463 C4464 1.523 . S
C4464 C4448 1.368 . S
C4464 C4460 1.368 . S
C4464 C4463 1.523 . S
H4465 C4440 0.950 . S
H4466 C4442 0.950 . S
H4467 C4443 0.949 . S
H4468 C4445 0.950 . S
H4469 C4447 0.950 . S
C4470 C4471 1.349 . S
C4470 C4472 1.327 . S
C4470 H4495 0.950 . S
C4471 C4470 1.349 . S
C4471 C4487 1.349 . S
C4472 C4470 1.327 . S
C4472 C4491 1.429 . S
C4472 H4496 0.950 . S
C4473 C4490 1.574 . S
C4473 C4492 1.368 . S
C4473 H4497 0.949 . S
H4474 C4478 0.949 . S
C4475 C4476 1.348 1_554 S
C4475 C4477 1.327 1_554 S
C4475 H4498 0.950 . S
C4476 C4475 1.348 1_556 S
C4476 C4488 1.354 . S
C4477 C4475 1.327 1_556 S
C4477 C4493 1.429 . S
C4477 H4499 0.950 . S
C4478 H4474 0.949 . S
C4478 C4486 1.574 . S
C4478 C4494 1.368 . S
H4479 C4487 0.950 . S
H4480 C4485 0.950 . S
H4481 C4486 0.949 . S
H4482 C4488 0.950 . S
H4483 C4489 0.950 . S
H4484 C4490 0.949 . S
C4485 H4480 0.950 . S
C4485 C4487 1.327 . S
C4485 C4491 1.429 . S
C4486 C4478 1.574 . S
C4486 H4481 0.949 . S
C4486 C4492 1.368 . S
C4487 C4471 1.349 . S
C4487 H4479 0.950 . S
C4487 C4485 1.327 . S
C4488 C4476 1.354 . S
C4488 H4482 0.950 . S
C4488 C4489 1.327 . S
C4489 H4483 0.950 . S
C4489 C4488 1.327 . S
C4489 C4493 1.429 . S
C4490 C4473 1.574 . S
C4490 H4484 0.949 . S
C4490 C4494 1.368 . S
C4491 C4472 1.429 . S
C4491 C4485 1.429 . S
C4491 C4492 1.523 . S
C4492 C4473 1.368 . S
C4492 C4486 1.368 . S
C4492 C4491 1.523 . S
C4493 C4477 1.429 . S
C4493 C4489 1.429 . S
C4493 C4494 1.523 . S
C4494 C4478 1.368 . S
C4494 C4490 1.368 . S
C4494 C4493 1.523 . S
H4495 C4470 0.950 . S
H4496 C4472 0.950 . S
H4497 C4473 0.949 . S
H4498 C4475 0.950 . S
H4499 C4477 0.950 . S
C4500 C4501 1.349 . S
C4500 C4502 1.327 . S
C4500 H4525 0.950 . S
C4501 C4500 1.349 . S
C4501 C4517 1.349 . S
C4502 C4500 1.327 . S
C4502 C4521 1.429 . S
C4502 H4526 0.950 . S
C4503 C4520 1.574 . S
C4503 C4522 1.368 . S
C4503 H4527 0.949 . S
H4504 C4508 0.949 . S
C4505 C4506 1.349 . S
C4505 C4507 1.327 . S
C4505 H4528 0.950 . S
C4506 C4505 1.349 . S
C4506 C4518 1.349 . S
C4507 C4505 1.327 . S
C4507 C4523 1.429 . S
C4507 H4529 0.950 . S
C4508 H4504 0.949 . S
C4508 C4516 1.574 . S
C4508 C4524 1.368 . S
H4509 C4517 0.950 . S
H4510 C4515 0.950 . S
H4511 C4516 0.949 . S
H4512 C4518 0.950 . S
H4513 C4519 0.950 . S
H4514 C4520 0.949 . S
C4515 H4510 0.950 . S
C4515 C4517 1.327 . S
C4515 C4521 1.429 . S
C4516 C4508 1.574 . S
C4516 H4511 0.949 . S
C4516 C4522 1.368 . S
C4517 C4501 1.349 . S
C4517 H4509 0.950 . S
C4517 C4515 1.327 . S
C4518 C4506 1.349 . S
C4518 H4512 0.950 . S
C4518 C4519 1.327 . S
C4519 H4513 0.950 . S
C4519 C4518 1.327 . S
C4519 C4523 1.429 . S
C4520 C4503 1.574 . S
C4520 H4514 0.949 . S
C4520 C4524 1.368 . S
C4521 C4502 1.429 . S
C4521 C4515 1.429 . S
C4521 C4522 1.523 . S
C4522 C4503 1.368 . S
C4522 C4516 1.368 . S
C4522 C4521 1.523 . S
C4523 C4507 1.429 . S
C4523 C4519 1.429 . S
C4523 C4524 1.523 . S
C4524 C4508 1.368 . S
C4524 C4520 1.368 . S
C4524 C4523 1.523 . S
H4525 C4500 0.950 . S
H4526 C4502 0.950 . S
H4527 C4503 0.949 . S
H4528 C4505 0.950 . S
H4529 C4507 0.950 . S
C4530 C4531 1.349 . S
C4530 C4532 1.327 . S
C4530 H4555 0.950 . S
C4531 C4530 1.349 . S
C4531 C4547 1.349 . S
C4532 C4530 1.327 . S
C4532 C4551 1.429 . S
C4532 H4556 0.950 . S
C4533 C4550 1.574 . S
C4533 C4552 1.368 . S
C4533 H4557 0.949 . S
H4534 C4538 0.949 . S
C4535 C4536 1.349 . S
C4535 C4537 1.327 . S
C4535 H4558 0.950 . S
C4536 C4535 1.349 . S
C4536 C4548 1.349 . S
C4537 C4535 1.327 . S
C4537 C4553 1.429 . S
C4537 H4559 0.950 . S
C4538 H4534 0.949 . S
C4538 C4546 1.574 . S
C4538 C4554 1.368 . S
H4539 C4547 0.950 . S
H4540 C4545 0.950 . S
H4541 C4546 0.949 . S
H4542 C4548 0.950 . S
H4543 C4549 0.950 . S
H4544 C4550 0.949 . S
C4545 H4540 0.950 . S
C4545 C4547 1.327 . S
C4545 C4551 1.429 . S
C4546 C4538 1.574 . S
C4546 H4541 0.949 . S
C4546 C4552 1.368 . S
C4547 C4531 1.349 . S
C4547 H4539 0.950 . S
C4547 C4545 1.327 . S
C4548 C4536 1.349 . S
C4548 H4542 0.950 . S
C4548 C4549 1.327 . S
C4549 H4543 0.950 . S
C4549 C4548 1.327 . S
C4549 C4553 1.429 . S
C4550 C4533 1.574 . S
C4550 H4544 0.949 . S
C4550 C4554 1.368 . S
C4551 C4532 1.429 . S
C4551 C4545 1.429 . S
C4551 C4552 1.523 . S
C4552 C4533 1.368 . S
C4552 C4546 1.368 . S
C4552 C4551 1.523 . S
C4553 C4537 1.429 . S
C4553 C4549 1.429 . S
C4553 C4554 1.523 . S
C4554 C4538 1.368 . S
C4554 C4550 1.368 . S
C4554 C4553 1.523 . S
H4555 C4530 0.950 . S
H4556 C4532 0.950 . S
H4557 C4533 0.949 . S
H4558 C4535 0.950 . S
H4559 C4537 0.950 . S
C4560 C4561 1.349 . S
C4560 C4562 1.327 . S
C4560 H4585 0.950 . S
C4561 C4560 1.349 . S
C4561 C4577 1.349 . S
C4562 C4560 1.327 . S
C4562 C4581 1.429 . S
C4562 H4586 0.950 . S
C4563 C4580 1.574 . S
C4563 C4582 1.368 . S
C4563 H4587 0.949 . S
H4564 C4568 0.949 . S
C4565 C4566 1.349 . S
C4565 C4567 1.327 . S
C4565 H4588 0.950 . S
C4566 C4565 1.349 . S
C4566 C4578 1.349 . S
C4567 C4565 1.327 . S
C4567 C4583 1.429 . S
C4567 H4589 0.950 . S
C4568 H4564 0.949 . S
C4568 C4576 1.574 . S
C4568 C4584 1.368 . S
H4569 C4577 0.950 . S
H4570 C4575 0.950 . S
H4571 C4576 0.949 . S
H4572 C4578 0.950 . S
H4573 C4579 0.950 . S
H4574 C4580 0.949 . S
C4575 H4570 0.950 . S
C4575 C4577 1.327 . S
C4575 C4581 1.429 . S
C4576 C4568 1.574 . S
C4576 H4571 0.949 . S
C4576 C4582 1.368 . S
C4577 C4561 1.349 . S
C4577 H4569 0.950 . S
C4577 C4575 1.327 . S
C4578 C4566 1.349 . S
C4578 H4572 0.950 . S
C4578 C4579 1.327 . S
C4579 H4573 0.950 . S
C4579 C4578 1.327 . S
C4579 C4583 1.429 . S
C4580 C4563 1.574 . S
C4580 H4574 0.949 . S
C4580 C4584 1.368 . S
C4581 C4562 1.429 . S
C4581 C4575 1.429 . S
C4581 C4582 1.523 . S
C4582 C4563 1.368 . S
C4582 C4576 1.368 . S
C4582 C4581 1.523 . S
C4583 C4567 1.429 . S
C4583 C4579 1.429 . S
C4583 C4584 1.523 . S
C4584 C4568 1.368 . S
C4584 C4580 1.368 . S
C4584 C4583 1.523 . S
H4585 C4560 0.950 . S
H4586 C4562 0.950 . S
H4587 C4563 0.949 . S
H4588 C4565 0.950 . S
H4589 C4567 0.950 . S
C4590 C4591 1.349 . S
C4590 C4592 1.327 . S
C4590 H4615 0.950 . S
C4591 C4590 1.349 . S
C4591 C4607 1.349 . S
C4592 C4590 1.327 . S
C4592 C4611 1.429 . S
C4592 H4616 0.950 . S
C4593 C4610 1.574 . S
C4593 C4612 1.368 . S
C4593 H4617 0.949 . S
H4594 C4598 0.949 . S
C4595 C4596 1.349 . S
C4595 C4597 1.327 . S
C4595 H4618 0.950 . S
C4596 C4595 1.349 . S
C4596 C4608 1.349 . S
C4597 C4595 1.327 . S
C4597 C4613 1.429 . S
C4597 H4619 0.950 . S
C4598 H4594 0.949 . S
C4598 C4606 1.574 . S
C4598 C4614 1.368 . S
H4599 C4607 0.950 . S
H4600 C4605 0.950 . S
H4601 C4606 0.949 . S
H4602 C4608 0.950 . S
H4603 C4609 0.950 . S
H4604 C4610 0.949 . S
C4605 H4600 0.950 . S
C4605 C4607 1.327 . S
C4605 C4611 1.429 . S
C4606 C4598 1.574 . S
C4606 H4601 0.949 . S
C4606 C4612 1.368 . S
C4607 C4591 1.349 . S
C4607 H4599 0.950 . S
C4607 C4605 1.327 . S
C4608 C4596 1.349 . S
C4608 H4602 0.950 . S
C4608 C4609 1.327 . S
C4609 H4603 0.950 . S
C4609 C4608 1.327 . S
C4609 C4613 1.429 . S
C4610 C4593 1.574 . S
C4610 H4604 0.949 . S
C4610 C4614 1.368 . S
C4611 C4592 1.429 . S
C4611 C4605 1.429 . S
C4611 C4612 1.523 . S
C4612 C4593 1.368 . S
C4612 C4606 1.368 . S
C4612 C4611 1.523 . S
C4613 C4597 1.429 . S
C4613 C4609 1.429 . S
C4613 C4614 1.523 . S
C4614 C4598 1.368 . S
C4614 C4610 1.368 . S
C4614 C4613 1.523 . S
H4615 C4590 0.950 . S
H4616 C4592 0.950 . S
H4617 C4593 0.949 . S
H4618 C4595 0.950 . S
H4619 C4597 0.950 . S
C4620 C4621 1.349 . S
C4620 C4622 1.327 . S
C4620 H4645 0.950 . S
C4621 C4620 1.349 . S
C4621 C4637 1.349 . S
C4622 C4620 1.327 . S
C4622 C4641 1.429 . S
C4622 H4646 0.950 . S
C4623 C4640 1.574 . S
C4623 C4642 1.368 . S
C4623 H4647 0.949 . S
H4624 C4628 0.949 . S
C4625 C4626 1.349 . S
C4625 C4627 1.327 . S
C4625 H4648 0.950 . S
C4626 C4625 1.349 . S
C4626 C4638 1.349 . S
C4627 C4625 1.327 . S
C4627 C4643 1.429 . S
C4627 H4649 0.950 . S
C4628 H4624 0.949 . S
C4628 C4636 1.574 . S
C4628 C4644 1.368 . S
H4629 C4637 0.950 . S
H4630 C4635 0.950 . S
H4631 C4636 0.949 . S
H4632 C4638 0.950 . S
H4633 C4639 0.950 . S
H4634 C4640 0.949 . S
C4635 H4630 0.950 . S
C4635 C4637 1.327 . S
C4635 C4641 1.429 . S
C4636 C4628 1.574 . S
C4636 H4631 0.949 . S
C4636 C4642 1.368 . S
C4637 C4621 1.349 . S
C4637 H4629 0.950 . S
C4637 C4635 1.327 . S
C4638 C4626 1.349 . S
C4638 H4632 0.950 . S
C4638 C4639 1.327 . S
C4639 H4633 0.950 . S
C4639 C4638 1.327 . S
C4639 C4643 1.429 . S
C4640 C4623 1.574 . S
C4640 H4634 0.949 . S
C4640 C4644 1.368 . S
C4641 C4622 1.429 . S
C4641 C4635 1.429 . S
C4641 C4642 1.523 . S
C4642 C4623 1.368 . S
C4642 C4636 1.368 . S
C4642 C4641 1.523 . S
C4643 C4627 1.429 . S
C4643 C4639 1.429 . S
C4643 C4644 1.523 . S
C4644 C4628 1.368 . S
C4644 C4640 1.368 . S
C4644 C4643 1.523 . S
H4645 C4620 0.950 . S
H4646 C4622 0.950 . S
H4647 C4623 0.949 . S
H4648 C4625 0.950 . S
H4649 C4627 0.950 . S
C4650 C4651 1.349 . S
C4650 C4652 1.327 . S
C4650 H4675 0.950 . S
C4651 C4650 1.349 . S
C4651 C4667 1.349 . S
C4652 C4650 1.327 . S
C4652 C4671 1.429 . S
C4652 H4676 0.950 . S
C4653 C4670 1.574 . S
C4653 C4672 1.368 . S
C4653 H4677 0.949 . S
H4654 C4658 0.949 . S
C4655 C4656 1.349 . S
C4655 C4657 1.327 . S
C4655 H4678 0.950 . S
C4656 C4655 1.349 . S
C4656 C4668 1.349 . S
C4657 C4655 1.327 . S
C4657 C4673 1.429 . S
C4657 H4679 0.950 . S
C4658 H4654 0.949 . S
C4658 C4666 1.574 . S
C4658 C4674 1.368 . S
H4659 C4667 0.950 . S
H4660 C4665 0.950 . S
H4661 C4666 0.949 . S
H4662 C4668 0.950 . S
H4663 C4669 0.950 . S
H4664 C4670 0.949 . S
C4665 H4660 0.950 . S
C4665 C4667 1.327 . S
C4665 C4671 1.429 . S
C4666 C4658 1.574 . S
C4666 H4661 0.949 . S
C4666 C4672 1.368 . S
C4667 C4651 1.349 . S
C4667 H4659 0.950 . S
C4667 C4665 1.327 . S
C4668 C4656 1.349 . S
C4668 H4662 0.950 . S
C4668 C4669 1.327 . S
C4669 H4663 0.950 . S
C4669 C4668 1.327 . S
C4669 C4673 1.429 . S
C4670 C4653 1.574 . S
C4670 H4664 0.949 . S
C4670 C4674 1.368 . S
C4671 C4652 1.429 . S
C4671 C4665 1.429 . S
C4671 C4672 1.523 . S
C4672 C4653 1.368 . S
C4672 C4666 1.368 . S
C4672 C4671 1.523 . S
C4673 C4657 1.429 . S
C4673 C4669 1.429 . S
C4673 C4674 1.523 . S
C4674 C4658 1.368 . S
C4674 C4670 1.368 . S
C4674 C4673 1.523 . S
H4675 C4650 0.950 . S
H4676 C4652 0.950 . S
H4677 C4653 0.949 . S
H4678 C4655 0.950 . S
H4679 C4657 0.950 . S
C1441 C609 0.934 . S
C1446 C9 0.934 . S
C1471 C649 0.935 . S
C1476 C49 0.935 . S
C1501 C89 0.934 . S
C1506 C689 0.934 . S
C1531 C129 0.934 . S
C1536 C969 0.934 . S
C1561 C169 0.935 . S
C1566 C1009 0.935 . S
C1591 C209 0.934 . S
C1596 C1049 0.934 . S
C1621 C1338 0.934 . S
C1626 C258 0.934 . S
C1651 C1378 0.934 . S
C1656 C298 0.934 . S
C1681 C338 0.935 . S
C1686 C1418 0.935 . S
C1711 C738 0.935 . S
C1716 C378 0.935 . S
C1741 C418 0.934 . S
C1746 C778 0.934 . S
C1771 C458 0.935 . S
C1776 C818 0.935 . S
C1801 C1089 0.935 . S
C1806 C489 0.934 . S
C1831 C529 0.934 . S
C1836 C1129 0.934 . S
C1861 C1169 0.935 . S
C1866 C569 0.935 . S
C1891 C1218 0.934 . S
C1896 C858 0.934 . S
C1921 C1258 0.935 . S
C1926 C898 0.935 . S
C1951 C938 0.934 . S
C1956 C1298 0.934 . S
C1981 C19 1.950 . S
C1986 C179 1.950 . S
C2011 C59 1.950 . S
C2016 C219 1.950 . S
C2041 C99 1.950 . S
C2046 C139 1.950 . S
C2071 C250 1.950 . S
C2076 C410 1.950 . S
C2101 C290 1.950 . S
C2106 C450 1.950 . S
C2131 C330 1.950 . S
C2136 C370 1.950 . S
C2161 C499 1.950 . S
C2166 C659 1.950 . S
C2191 C699 1.950 . S
C2196 C539 1.950 . S
C2221 C579 1.950 . S
C2226 C619 1.950 . S
C2251 C730 1.950 . S
C2256 C890 1.950 . S
C2281 C770 1.950 . S
C2286 C930 1.950 . S
C2311 C850 1.950 . S
C2316 C810 1.950 . S
C2341 C979 1.950 . S
C2346 C1139 1.950 . S
C2371 C1179 1.950 . S
C2376 C1019 1.950 . S
C2401 C1059 1.950 . S
C2406 C1099 1.950 . S
C2431 C1210 1.950 . S
C2436 C1370 1.950 . S
C2461 C1250 1.950 . S
C2466 C1410 1.950 . S
C2491 C1290 1.950 . S
C2496 C1330 1.950 . S
C2521 C419 1.533 . S
C2526 C15 1.505 . S
C2551 C55 1.505 . S
C2556 C459 1.533 . S
C2581 C95 1.505 . S
C2586 C379 1.533 . S
C2611 C135 1.505 . S
C2616 C339 1.533 . S
C2641 C175 1.505 . S
C2646 C259 1.533 . S
C2671 C299 1.533 . S
C2676 C215 1.505 . S
C2701 C246 1.505 . S
C2706 C170 1.533 . S
C2731 C210 1.533 . S
C2736 C286 1.505 . S
C2761 C326 1.505 . S
C2766 C130 1.533 . S
C2791 C366 1.505 . S
C2796 C90 1.533 . S
C2821 C10 1.533 . S
C2826 C406 1.505 . S
C2851 C50 1.533 . S
C2856 C446 1.505 . S
C2881 C899 1.533 . S
C2886 C495 1.505 . S
C2911 C939 1.533 . S
C2916 C535 1.505 . S
C2941 C859 1.533 . S
C2946 C575 1.505 . S
C2971 C819 1.533 . S
C2976 C615 1.505 . S
C3001 C655 1.505 . S
C3006 C739 1.533 . S
C3031 C779 1.533 . S
C3036 C695 1.505 . S
C3061 C650 1.533 . S
C3066 C726 1.505 . S
C3091 C766 1.505 . S
C3096 C690 1.533 . S
C3121 C806 1.505 . S
C3126 C610 1.533 . S
C3151 C570 1.533 . S
C3156 C846 1.505 . S
C3181 C886 1.505 . S
C3186 C490 1.533 . S
C3211 C926 1.505 . S
C3216 C530 1.533 . S
C3241 C975 1.505 . S
C3246 C1379 1.533 . S
C3271 C1015 1.505 . S
C3276 C1419 1.533 . S
C3301 C1339 1.533 . S
C3306 C1055 1.505 . S
C3331 C1299 1.533 . S
C3336 C1095 1.505 . S
C3361 C1135 1.505 . S
C3366 C1219 1.533 . S
C3391 C1259 1.533 . S
C3396 C1175 1.505 . S
C3421 C1206 1.505 1_554 S
C3426 C1130 1.533 . S
C3451 C1170 1.533 . S
C3456 C1246 1.505 1_554 S
C3481 C1286 1.505 1_554 S
C3486 C1090 1.533 . S
C3511 C1326 1.505 . S
C3516 C1050 1.533 . S
C3541 C970 1.533 . S
C3546 C1366 1.505 . S
C3571 C1010 1.533 . S
C3576 C1406 1.505 . S
C3601 C6 1.201 . S
C3606 C166 1.201 . S
C3631 C206 1.201 . S
C3636 C46 1.201 . S
C3661 C86 1.201 . S
C3666 C126 1.201 . S
C3691 C255 1.200 . S
C3696 C415 1.200 . S
C3721 C455 1.201 . S
C3726 C295 1.201 . S
C3751 C335 1.201 . S
C3756 C375 1.201 . S
C3781 C646 1.201 . S
C3786 C486 1.201 . S
C3811 C686 1.201 . S
C3816 C526 1.201 . S
C3841 C606 1.201 . S
C3846 C566 1.201 . S
C3871 C895 1.201 . S
C3876 C735 1.201 . S
C3901 C775 1.201 . S
C3906 C935 1.201 . S
C3931 C855 1.201 . S
C3936 C815 1.201 . S
C3961 C1126 1.201 . S
C3966 C966 1.201 . S
C3991 C1006 1.201 . S
C3996 C1166 1.201 . S
C4021 C1046 1.201 . S
C4026 C1086 1.201 . S
C4051 C1375 1.201 . S
C4056 C1215 1.201 . S
C4081 C1255 1.201 . S
C4086 C1415 1.201 . S
C4111 C1295 1.201 . S
C4116 C1335 1.201 . S
C4141 C18 0.746 . S
C4146 C249 0.746 . S
C4171 C58 0.746 . S
C4176 C289 0.746 . S
C4201 C329 0.746 . S
C4206 C98 0.746 . S
C4231 C369 0.746 . S
C4236 C138 0.746 . S
C4261 C178 0.746 . S
C4266 C409 0.746 . S
C4291 C218 0.746 . S
C4296 C449 0.746 . S
C4321 C729 0.746 . S
C4326 C498 0.746 . S
C4351 C538 0.747 . S
C4356 C769 0.747 . S
C4381 C809 0.746 . S
C4386 C578 0.746 . S
C4411 C849 0.746 . S
C4416 C618 0.751 . S
C4441 C889 0.746 . S
C4446 C658 0.752 . S
C4471 C929 0.747 . S
C4476 C698 0.752 . S
C4501 C1209 0.746 . S
C4506 C978 0.746 . S
C4531 C1018 0.746 . S
C4536 C1249 0.746 . S
C4561 C1289 0.746 . S
C4566 C1058 0.746 . S
C4591 C1329 0.747 . S
C4596 C1098 0.747 . S
C4621 C1369 0.746 . S
C4626 C1138 0.746 . S
C4651 C1178 0.746 . S
C4656 C1409 0.746 . S
