# Generated by pormake.
# Topology smd, (6)-cn, num edge types: 1
# Building blocks:
#     Node 0, Type 0, BuildingBlock: OJICUG_clean_sbu_0, # of connection points: 6
#     Node 1, Type 0, BuildingBlock: OJICUG_clean_sbu_0, # of connection points: 6
#     Node 2, Type 0, BuildingBlock: OJICUG_clean_sbu_0, # of connection points: 6
#     Node 3, Type 0, BuildingBlock: OJICUG_clean_sbu_0, # of connection points: 6
#     Node 4, Type 0, BuildingBlock: OJICUG_clean_sbu_0, # of connection points: 6
#     Node 5, Type 0, BuildingBlock: OJICUG_clean_sbu_0, # of connection points: 6
#     Node 6, Type 0, BuildingBlock: OJICUG_clean_sbu_0, # of connection points: 6
#     Node 7, Type 0, BuildingBlock: OJICUG_clean_sbu_0, # of connection points: 6
#     Node 8, Type 0, BuildingBlock: OJICUG_clean_sbu_0, # of connection points: 6
#     Node 9, Type 0, BuildingBlock: OJICUG_clean_sbu_0, # of connection points: 6
#     Node 10, Type 0, BuildingBlock: OJICUG_clean_sbu_0, # of connection points: 6
#     Node 11, Type 0, BuildingBlock: OJICUG_clean_sbu_0, # of connection points: 6
#     Node 12, Type 0, BuildingBlock: OJICUG_clean_sbu_0, # of connection points: 6
#     Node 13, Type 0, BuildingBlock: OJICUG_clean_sbu_0, # of connection points: 6
#     Node 14, Type 0, BuildingBlock: OJICUG_clean_sbu_0, # of connection points: 6
#     Node 15, Type 0, BuildingBlock: OJICUG_clean_sbu_0, # of connection points: 6
#     Node 16, Type 0, BuildingBlock: OJICUG_clean_sbu_0, # of connection points: 6
#     Node 17, Type 0, BuildingBlock: OJICUG_clean_sbu_0, # of connection points: 6
#     Edge 18, Type (0, 0), BuildingBlock: CIFDUS_clean_linker_0, # of connection points: 2
#     Edge 19, Type (0, 0), BuildingBlock: CIFDUS_clean_linker_0, # of connection points: 2
#     Edge 20, Type (0, 0), BuildingBlock: CIFDUS_clean_linker_0, # of connection points: 2
#     Edge 21, Type (0, 0), BuildingBlock: CIFDUS_clean_linker_0, # of connection points: 2
#     Edge 22, Type (0, 0), BuildingBlock: CIFDUS_clean_linker_0, # of connection points: 2
#     Edge 23, Type (0, 0), BuildingBlock: CIFDUS_clean_linker_0, # of connection points: 2
#     Edge 24, Type (0, 0), BuildingBlock: CIFDUS_clean_linker_0, # of connection points: 2
#     Edge 25, Type (0, 0), BuildingBlock: CIFDUS_clean_linker_0, # of connection points: 2
#     Edge 26, Type (0, 0), BuildingBlock: CIFDUS_clean_linker_0, # of connection points: 2
#     Edge 27, Type (0, 0), BuildingBlock: CIFDUS_clean_linker_0, # of connection points: 2
#     Edge 28, Type (0, 0), BuildingBlock: CIFDUS_clean_linker_0, # of connection points: 2
#     Edge 29, Type (0, 0), BuildingBlock: CIFDUS_clean_linker_0, # of connection points: 2
#     Edge 30, Type (0, 0), BuildingBlock: CIFDUS_clean_linker_0, # of connection points: 2
#     Edge 31, Type (0, 0), BuildingBlock: CIFDUS_clean_linker_0, # of connection points: 2
#     Edge 32, Type (0, 0), BuildingBlock: CIFDUS_clean_linker_0, # of connection points: 2
#     Edge 33, Type (0, 0), BuildingBlock: CIFDUS_clean_linker_0, # of connection points: 2
#     Edge 34, Type (0, 0), BuildingBlock: CIFDUS_clean_linker_0, # of connection points: 2
#     Edge 35, Type (0, 0), BuildingBlock: CIFDUS_clean_linker_0, # of connection points: 2
#     Edge 36, Type (0, 0), BuildingBlock: CIFDUS_clean_linker_0, # of connection points: 2
#     Edge 37, Type (0, 0), BuildingBlock: CIFDUS_clean_linker_0, # of connection points: 2
#     Edge 38, Type (0, 0), BuildingBlock: CIFDUS_clean_linker_0, # of connection points: 2
#     Edge 39, Type (0, 0), BuildingBlock: CIFDUS_clean_linker_0, # of connection points: 2
#     Edge 40, Type (0, 0), BuildingBlock: CIFDUS_clean_linker_0, # of connection points: 2
#     Edge 41, Type (0, 0), BuildingBlock: CIFDUS_clean_linker_0, # of connection points: 2
#     Edge 42, Type (0, 0), BuildingBlock: CIFDUS_clean_linker_0, # of connection points: 2
#     Edge 43, Type (0, 0), BuildingBlock: CIFDUS_clean_linker_0, # of connection points: 2
#     Edge 44, Type (0, 0), BuildingBlock: CIFDUS_clean_linker_0, # of connection points: 2
#     Edge 45, Type (0, 0), BuildingBlock: CIFDUS_clean_linker_0, # of connection points: 2
#     Edge 46, Type (0, 0), BuildingBlock: CIFDUS_clean_linker_0, # of connection points: 2
#     Edge 47, Type (0, 0), BuildingBlock: CIFDUS_clean_linker_0, # of connection points: 2
#     Edge 48, Type (0, 0), BuildingBlock: CIFDUS_clean_linker_0, # of connection points: 2
#     Edge 49, Type (0, 0), BuildingBlock: CIFDUS_clean_linker_0, # of connection points: 2
#     Edge 50, Type (0, 0), BuildingBlock: CIFDUS_clean_linker_0, # of connection points: 2
#     Edge 51, Type (0, 0), BuildingBlock: CIFDUS_clean_linker_0, # of connection points: 2
#     Edge 52, Type (0, 0), BuildingBlock: CIFDUS_clean_linker_0, # of connection points: 2
#     Edge 53, Type (0, 0), BuildingBlock: CIFDUS_clean_linker_0, # of connection points: 2
#     Edge 54, Type (0, 0), BuildingBlock: CIFDUS_clean_linker_0, # of connection points: 2
#     Edge 55, Type (0, 0), BuildingBlock: CIFDUS_clean_linker_0, # of connection points: 2
#     Edge 56, Type (0, 0), BuildingBlock: CIFDUS_clean_linker_0, # of connection points: 2
#     Edge 57, Type (0, 0), BuildingBlock: CIFDUS_clean_linker_0, # of connection points: 2
#     Edge 58, Type (0, 0), BuildingBlock: CIFDUS_clean_linker_0, # of connection points: 2
#     Edge 59, Type (0, 0), BuildingBlock: CIFDUS_clean_linker_0, # of connection points: 2
#     Edge 60, Type (0, 0), BuildingBlock: CIFDUS_clean_linker_0, # of connection points: 2
#     Edge 61, Type (0, 0), BuildingBlock: CIFDUS_clean_linker_0, # of connection points: 2
#     Edge 62, Type (0, 0), BuildingBlock: CIFDUS_clean_linker_0, # of connection points: 2
#     Edge 63, Type (0, 0), BuildingBlock: CIFDUS_clean_linker_0, # of connection points: 2
#     Edge 64, Type (0, 0), BuildingBlock: CIFDUS_clean_linker_0, # of connection points: 2
#     Edge 65, Type (0, 0), BuildingBlock: CIFDUS_clean_linker_0, # of connection points: 2
#     Edge 66, Type (0, 0), BuildingBlock: CIFDUS_clean_linker_0, # of connection points: 2
#     Edge 67, Type (0, 0), BuildingBlock: CIFDUS_clean_linker_0, # of connection points: 2
#     Edge 68, Type (0, 0), BuildingBlock: CIFDUS_clean_linker_0, # of connection points: 2
#     Edge 69, Type (0, 0), BuildingBlock: CIFDUS_clean_linker_0, # of connection points: 2
#     Edge 70, Type (0, 0), BuildingBlock: CIFDUS_clean_linker_0, # of connection points: 2
#     Edge 71, Type (0, 0), BuildingBlock: CIFDUS_clean_linker_0, # of connection points: 2
# Relax obj value: 0.160
# Max RMSD: 0.216
# Mean RMSD: 0.216
data_MOF--net-smd--node1-OJICUG_clean_sbu_0--edge1-CIFDUS_clean_linker_0
_symmetry_space_group_name_H-M    P1
_symmetry_Int_Tables_number       1
_symmetry_cell_setting            triclinic
loop_
_symmetry_equiv_pos_as_xyz
'x, y, z'
_cell_length_a     67.712856
_cell_length_b     67.659397
_cell_length_c     14.031754
_cell_angle_alpha  90.050652
_cell_angle_beta   90.056294
_cell_angle_gamma 120.00152
loop_
_atom_site_label
_atom_site_type_symbol
_atom_site_fract_x
_atom_site_fract_y
_atom_site_fract_z
_atom_type_partial_charge
Sc0 Sc 0.98709 0.23062 0.38823 0.0
Sc1 Sc 0.00668 0.19551 0.48378 0.0
Sc2 Sc 0.02607 0.25019 0.57968 0.0
O3 O 0.00661 0.22544 0.4839 0.0
C4 C 0.03117 0.27935 0.39248 0.0
C5 C 0.00475 0.20331 0.26199 0.0
C6 C 0.05948 0.23233 0.51751 0.0
C7 C 0.95387 0.17938 0.44936 0.0
C8 C 0.98155 0.25423 0.57649 0.0
C9 C 0.00872 0.20522 0.70557 0.0
O10 O 0.01532 0.26317 0.3448 0.0
O11 O 0.0119 0.19647 0.3312 0.0
O12 O 0.05632 0.2486 0.54334 0.0
O13 O 0.95696 0.19873 0.42321 0.0
O14 O -0.00241 0.25418 0.62394 0.0
O15 O 0.00145 0.19121 0.63634 0.0
O16 O 0.977 0.24738 0.49074 0.0
O17 O 0.97021 0.1758 0.46824 0.0
O18 O 0.01883 0.2267 0.69485 0.0
O19 O -0.00536 0.21467 0.27271 0.0
O20 O 0.03584 0.27712 0.47805 0.0
O21 O 0.04316 0.21234 0.49932 0.0
Sc22 Sc 0.78973 0.77481 0.45068 0.0
Sc23 Sc 0.81521 0.82935 0.55169 0.0
Sc24 Sc 0.76312 0.78577 0.64308 0.0
O25 O 0.78936 0.79663 0.54904 0.0
C26 C 0.73832 0.76241 0.44629 0.0
C27 C 0.81091 0.82073 0.32961 0.0
C28 C 0.77174 0.83491 0.58916 0.0
C29 C 0.84084 0.80094 0.51945 0.0
C30 C 0.76705 0.74141 0.62821 0.0
C31 C 0.80584 0.81852 0.77326 0.0
O32 O 0.75615 0.76602 0.40129 0.0
O33 O 0.81363 0.83384 0.39935 0.0
O34 O 0.75836 0.8146 0.61666 0.0
O35 O 0.82332 0.78233 0.49429 0.0
O36 O 0.76438 0.75535 0.68001 0.0
O37 O 0.81945 0.82868 0.70459 0.0
O38 O 0.77494 0.74611 0.54431 0.0
O39 O 0.84041 0.81924 0.5354 0.0
O40 O 0.7851 0.80327 0.7618 0.0
O41 O 0.80414 0.7997 0.33958 0.0
O42 O 0.73841 0.76734 0.5339 0.0
O43 O 0.79246 0.84234 0.56738 0.0
Sc44 Sc 0.25282 0.03526 0.43771 0.0
Sc45 Sc 0.19649 0.01723 0.51007 0.0
Sc46 Sc 0.2265 0.99244 0.61302 0.0
O47 O 0.22526 0.01494 0.52004 0.0
C48 C 0.25336 0.98844 0.43392 0.0
C49 C 0.21287 0.02521 0.29087 0.0
C50 C 0.17659 0.96376 0.52205 0.0
C51 C 0.23589 0.06924 0.50841 0.0
C52 C 0.27668 0.03469 0.63312 0.0
C53 C 0.19831 0.00922 0.73598 0.0
O54 O 0.25724 0.00689 0.3931 0.0
O55 O 0.19725 0.0192 0.35348 0.0
O56 O 0.1936 0.96493 0.56624 0.0
O57 O 0.25146 0.06574 0.47578 0.0
O58 O 0.25953 0.01737 0.66922 0.0
O59 O 0.19139 0.01592 0.66507 0.0
O60 O 0.27636 0.04243 0.5513 0.0
O61 O 0.21556 0.05341 0.52325 0.0
O62 O 0.21119 0.00078 0.72733 0.0
O63 O 0.23326 0.03102 0.3121 0.0
O64 O 0.24266 0.9816 0.51208 0.0
O65 O 0.17547 0.98119 0.49692 0.0
Sc66 Sc 0.02465 0.79651 0.61821 0.0
Sc67 Sc 0.00903 0.83422 0.51656 0.0
Sc68 Sc 0.9896 0.78001 0.41569 0.0
O69 O 0.00777 0.80367 0.51693 0.0
C70 C 0.03274 0.77466 0.43013 0.0
C71 C 0.06054 0.84738 0.56128 0.0
C72 C 0.00796 0.82564 0.29406 0.0
C73 C 0.00832 0.82547 0.7398 0.0
C74 C 0.98072 0.74865 0.59915 0.0
C75 C 0.95642 0.79803 0.47571 0.0
O76 O 0.03508 0.77971 0.51815 0.0
O77 O 0.04543 0.85229 0.53581 0.0
O78 O -0.00229 0.80416 0.30318 0.0
O79 O 0.01665 0.81245 0.73159 0.0
O80 O 0.97851 0.75192 0.51178 0.0
O81 O 0.97267 0.81792 0.49677 0.0
O82 O -0.00509 0.76437 0.65385 0.0
O83 O 0.00316 0.83369 0.66892 0.0
O84 O 0.95954 0.7818 0.44905 0.0
O85 O 0.05589 0.82777 0.59097 0.0
O86 O 0.01857 0.77653 0.37657 0.0
O87 O 0.01517 0.83928 0.36443 0.0
Sc88 Sc 0.22495 0.25086 0.54857 0.0
Sc89 Sc 0.19638 0.19422 0.4641 0.0
Sc90 Sc 0.24998 0.23408 0.36927 0.0
O91 O 0.2237 0.22634 0.46047 0.0
C92 C 0.24828 0.27977 0.36036 0.0
C93 C 0.17349 0.2258 0.47505 0.0
C94 C 0.2079 0.20021 0.2397 0.0
C95 C 0.19999 0.20749 0.68519 0.0
C96 C 0.27591 0.26099 0.55856 0.0
C97 C 0.23832 0.18523 0.4472 0.0
O98 O 0.24 0.27717 0.44343 0.0
O99 O 0.17292 0.20695 0.45973 0.0
O100 O 0.22841 0.21578 0.25179 0.0
O101 O 0.21029 0.22869 0.66805 0.0
O102 O 0.27512 0.2534 0.47504 0.0
O103 O 0.21788 0.17928 0.46967 0.0
O104 O 0.25861 0.25976 0.60029 0.0
O105 O 0.19476 0.19251 0.62017 0.0
O106 O 0.25207 0.20444 0.41017 0.0
O107 O 0.1913 0.24373 0.50427 0.0
O108 O 0.25096 0.26461 0.3184 0.0
O109 O 0.19387 0.19101 0.30829 0.0
Sc110 Sc 0.76705 0.98963 0.62469 0.0
Sc111 Sc 0.82053 0.00478 0.52768 0.0
Sc112 Sc 0.78928 0.02907 0.43528 0.0
O113 O 0.7923 0.00788 0.5293 0.0
C114 C 0.73891 0.98724 0.43759 0.0
C115 C 0.78028 0.95334 0.55523 0.0
C116 C 0.81353 0.00848 0.30649 0.0
C117 C 0.81128 0.00297 0.75001 0.0
C118 C 0.76703 0.03612 0.62438 0.0
C119 C 0.84111 0.05848 0.49896 0.0
O120 O 0.74071 0.98221 0.52302 0.0
O121 O 0.80079 0.9684 0.53761 0.0
O122 O 0.80383 0.0202 0.31828 0.0
O123 O 0.78997 -0.00533 0.73966 0.0
O124 O 0.77393 0.04057 0.53875 0.0
O125 O 0.8427 0.04087 0.51583 0.0
O126 O 0.76601 0.0195 0.67095 0.0
O127 O 0.82513 0.00912 0.68057 0.0
O128 O 0.82258 0.05746 0.47274 0.0
O129 O 0.76538 0.95797 0.5856 0.0
O130 O 0.75567 0.0025 0.39021 0.0
O131 O 0.81922 0.0001 0.37497 0.0
Sc132 Sc 0.65618 0.56087 0.71253 0.0
Sc133 Sc 0.67114 0.52079 0.79386 0.0
Sc134 Sc 0.69655 0.57574 0.89696 0.0
O135 O 0.67467 0.55245 0.80091 0.0
C136 C 0.70304 0.60758 0.7178 0.0
C137 C 0.66553 0.52953 0.57233 0.0
C138 C 0.72496 0.55352 0.81198 0.0
C139 C 0.61984 0.51036 0.7796 0.0
C140 C 0.65479 0.58452 0.90796 0.0
C141 C 0.67863 0.53045 0.01918 0.0
O142 O 0.68552 0.59311 0.67153 0.0
O143 O 0.67008 0.5193 0.6376 0.0
O144 O 0.72396 0.56993 0.85235 0.0
O145 O 0.6248 0.52975 0.74549 0.0
O146 O 0.67107 0.58365 0.94966 0.0
O147 O 0.67131 0.51676 0.94863 0.0
O148 O 0.64862 0.57755 0.82338 0.0
O149 O 0.63473 0.50484 0.80086 0.0
O150 O 0.68782 0.55184 1.01031 0.0
O151 O 0.66088 0.54512 0.58965 0.0
O152 O 0.70838 0.60342 0.79889 0.0
O153 O 0.70735 0.53495 0.78721 0.0
Sc154 Sc 0.45554 0.10498 0.81843 0.0
Sc155 Sc 0.48564 0.16037 0.91287 0.0
Sc156 Sc 0.43187 0.12122 1.00593 0.0
O157 O 0.45769 0.12882 0.9127 0.0
C158 C 0.40529 0.09659 0.81423 0.0
C159 C 0.47968 0.15016 0.69167 0.0
C160 C 0.44523 0.17137 0.94305 0.0
C161 C 0.50699 0.12773 0.88425 0.0
C162 C 0.43168 0.07448 1.00288 0.0
C163 C 0.47574 0.15165 0.13457 0.0
O164 O 0.42242 0.09813 0.76998 0.0
O165 O 0.48439 0.16408 0.76025 0.0
O166 O 0.43038 0.15156 0.97105 0.0
O167 O 0.48854 0.10997 0.85952 0.0
O168 O 0.43023 0.08984 0.04965 0.0
O169 O 0.48975 0.16001 0.06581 0.0
O170 O 0.43947 0.07747 0.91865 0.0
O171 O 0.50833 0.1469 0.89977 0.0
O172 O 0.45447 0.13839 0.12322 0.0
O173 O 0.47079 0.1288 0.70335 0.0
O174 O 0.40619 0.10304 0.9 0.0
O175 O 0.46574 0.17693 0.92459 0.0
Sc176 Sc 0.90978 0.36218 0.72068 0.0
Sc177 Sc 0.85519 0.34365 0.81409 0.0
Sc178 Sc 0.8885 0.32172 0.90742 0.0
O179 O 0.88451 0.34248 0.81394 0.0
C180 C 0.91282 0.31695 0.72014 0.0
C181 C 0.86539 0.34611 0.59236 0.0
C182 C 0.8371 0.29038 0.84161 0.0
C183 C 0.89292 0.3961 0.78711 0.0
C184 C 0.9378 0.36561 0.90973 0.0
C185 C 0.86224 0.34023 0.03555 0.0
O186 O 0.91372 0.33375 0.67527 0.0
O187 O 0.8513 0.33942 0.66108 0.0
O188 O 0.85594 0.29233 0.86906 0.0
O189 O 0.90882 0.39277 0.75806 0.0
O190 O 0.92147 0.34911 0.95412 0.0
O191 O 0.85591 0.34803 0.96697 0.0
O192 O 0.93592 0.37122 0.82533 0.0
O193 O 0.87288 0.38001 0.80452 0.0
O194 O 0.87295 0.32948 0.02395 0.0
O195 O 0.88679 0.35546 0.60374 0.0
O196 O 0.90496 0.31148 0.80411 0.0
O197 O 0.83457 0.30741 0.82454 0.0
Sc198 Sc 0.69069 0.11919 0.96101 0.0
Sc199 Sc 0.67191 0.15485 0.86468 0.0
Sc200 Sc 0.65202 0.10013 0.76846 0.0
O201 O 0.67152 0.12473 0.86487 0.0
C202 C 0.69676 0.09664 0.77066 0.0
C203 C 0.72445 0.17045 0.90071 0.0
C204 C 0.66936 0.14518 0.6431 0.0
C205 C 0.67319 0.14663 0.08693 0.0
C206 C 0.64691 0.07032 0.95341 0.0
C207 C 0.61897 0.11814 0.83219 0.0
O208 O 0.70101 0.10301 0.85709 0.0
O209 O 0.70838 0.17426 0.87973 0.0
O210 O 0.65888 0.12371 0.65403 0.0
O211 O 0.68276 0.13473 0.07681 0.0
O212 O 0.64242 0.07277 0.86788 0.0
O213 O 0.63547 0.13813 0.84919 0.0
O214 O 0.6624 0.0865 1.00238 0.0
O215 O 0.66675 0.15406 0.01735 0.0
O216 O 0.62185 0.10166 0.80676 0.0
O217 O 0.72103 0.15112 0.92873 0.0
O218 O 0.68069 0.09665 0.72323 0.0
O219 O 0.67717 0.15918 0.7122 0.0
Sc220 Sc 0.89988 0.58505 0.89178 0.0
Sc221 Sc 0.86596 0.53072 0.79062 0.0
Sc222 Sc 0.9197 0.56857 0.69179 0.0
O223 O 0.89516 0.56142 0.79141 0.0
C224 C 0.92098 0.61573 0.70546 0.0
C225 C 0.8479 0.5654 0.83393 0.0
C226 C 0.87471 0.53917 0.56813 0.0
C227 C 0.87422 0.53942 0.01379 0.0
C228 C 0.94971 0.59266 0.87726 0.0
C229 C 0.9047 0.51773 0.75032 0.0
O230 O 0.91457 0.61237 0.79175 0.0
O231 O 0.84508 0.5461 0.80837 0.0
O232 O 0.89604 0.55203 0.57782 0.0
O233 O 0.88578 0.56091 1.00537 0.0
O234 O 0.94706 0.58627 0.7909 0.0
O235 O 0.88464 0.51306 0.77317 0.0
O236 O 0.93349 0.591 0.92891 0.0
O237 O 0.86682 0.52585 0.94311 0.0
O238 O 0.92001 0.53735 0.72172 0.0
O239 O 0.86691 0.58164 0.86366 0.0
O240 O 0.92167 0.60056 0.6539 0.0
O241 O 0.86103 0.53127 0.63806 0.0
Sc242 Sc 0.42962 0.32097 0.92903 0.0
Sc243 Sc 0.48631 0.34029 0.85698 0.0
Sc244 Sc 0.45509 0.36352 0.75209 0.0
O245 O 0.45699 0.34159 0.84616 0.0
C246 C 0.40499 0.32066 0.73469 0.0
C247 C 0.44795 0.28775 0.86298 0.0
C248 C 0.48385 0.34728 0.63051 0.0
C249 C 0.46994 0.33238 0.07594 0.0
C250 C 0.42814 0.36737 0.93068 0.0
C251 C 0.50523 0.39358 0.84031 0.0
O252 O 0.40564 0.31282 0.81591 0.0
O253 O 0.46803 0.30394 0.84636 0.0
O254 O 0.47026 0.35491 0.63826 0.0
O255 O 0.44946 0.32614 0.05454 0.0
O256 O 0.43906 0.37441 0.85311 0.0
O257 O 0.50671 0.37653 0.86837 0.0
O258 O 0.42431 0.34892 0.97138 0.0
O259 O 0.48563 0.33862 0.0135 0.0
O260 O 0.48799 0.39168 0.7954 0.0
O261 O 0.43201 0.29087 0.89408 0.0
O262 O 0.42191 0.33818 0.69849 0.0
O263 O 0.49142 0.34144 0.70201 0.0
Sc264 Sc 0.32203 0.89281 0.14246 0.0
Sc265 Sc 0.34577 0.86144 0.23913 0.0
Sc266 Sc 0.36108 0.91537 0.33378 0.0
O267 O 0.34294 0.88988 0.23867 0.0
C268 C 0.3648 0.94276 0.14212 0.0
C269 C 0.34181 0.86728 0.0173 0.0
C270 C 0.39726 0.90098 0.27117 0.0
C271 C 0.29214 0.8415 0.21258 0.0
C272 C 0.31552 0.91738 0.32486 0.0
C273 C 0.34673 0.87133 0.46143 0.0
O274 O 0.3491 0.92605 0.0955 0.0
O275 O 0.35034 0.86196 0.08641 0.0
O276 O 0.39264 0.91588 0.30222 0.0
O277 O 0.29335 0.85997 0.18383 0.0
O278 O 0.33171 0.91822 0.37428 0.0
O279 O 0.34169 0.85751 0.39215 0.0
O280 O 0.31099 0.90946 0.24078 0.0
O281 O 0.30961 0.83963 0.22875 0.0
O282 O 0.3544 0.89256 0.45099 0.0
O283 O 0.33024 0.87714 0.02813 0.0
O284 O 0.36975 0.9411 0.22797 0.0
O285 O 0.3821 0.88076 0.24948 0.0
Sc286 Sc 0.11763 0.4396 0.06227 0.0
Sc287 Sc 0.15204 0.4945 0.1571 0.0
Sc288 Sc 0.09719 0.4592 0.2508 0.0
O289 O 0.12224 0.46442 0.15669 0.0
C290 C 0.06861 0.43473 0.06247 0.0
C291 C 0.14463 0.48434 0.93515 0.0
C292 C 0.11529 0.51037 0.18671 0.0
C293 C 0.16872 0.45832 0.12849 0.0
C294 C 0.09363 0.4107 0.24986 0.0
C295 C 0.14179 0.48687 0.37884 0.0
O296 O 0.08483 0.43448 0.01751 0.0
O297 O 0.15161 0.49839 1.00421 0.0
O298 O 0.09908 0.49128 0.21558 0.0
O299 O 0.14981 0.44196 0.09886 0.0
O300 O 0.09276 0.42657 0.29514 0.0
O301 O 0.15586 0.49409 0.31008 0.0
O302 O 0.1013 0.41306 0.16562 0.0
O303 O 0.17187 0.47805 0.14716 0.0
O304 O 0.12036 0.47506 0.36751 0.0
O305 O 0.13318 0.46288 0.94599 0.0
O306 O 0.07066 0.44232 0.14687 0.0
O307 O 0.13508 0.51382 0.16742 0.0
Sc308 Sc 0.5832 0.69127 0.06974 0.0
Sc309 Sc 0.52864 0.67324 0.16154 0.0
Sc310 Sc 0.56124 0.65066 0.25484 0.0
O311 O 0.5577 0.6717 0.16179 0.0
C312 C 0.58645 0.64638 0.0698 0.0
C313 C 0.5389 0.6752 0.94022 0.0
C314 C 0.51034 0.61967 0.18887 0.0
C315 C 0.56675 0.7257 0.13111 0.0
C316 C 0.61005 0.69441 0.26224 0.0
C317 C 0.53498 0.66935 0.38226 0.0
O318 O 0.58672 0.66275 0.02426 0.0
O319 O 0.52471 0.66833 1.00868 0.0
O320 O 0.5294 0.62153 0.21153 0.0
O321 O 0.58261 0.72195 0.10593 0.0
O322 O 0.59333 0.6781 0.30537 0.0
O323 O 0.52995 0.6784 0.3141 0.0
O324 O 0.609 0.69989 0.17651 0.0
O325 O 0.54651 0.70981 0.14795 0.0
O326 O 0.54451 0.65747 0.36993 0.0
O327 O 0.56034 0.68481 0.95213 0.0
O328 O 0.57892 0.64106 0.15428 0.0
O329 O 0.50769 0.63682 0.17578 0.0
Sc330 Sc 0.3555 0.46009 0.21203 0.0
Sc331 Sc 0.33249 0.49169 0.11239 0.0
Sc332 Sc 0.31775 0.43793 0.01702 0.0
O333 O 0.33527 0.46325 0.11347 0.0
C334 C 0.36306 0.43587 0.03108 0.0
C335 C 0.38595 0.51138 0.14614 0.0
C336 C 0.3325 0.48224 0.8902 0.0
C337 C 0.33545 0.48574 0.33451 0.0
C338 C 0.31285 0.41044 0.20954 0.0
C339 C 0.2812 0.45208 0.07442 0.0
O340 O 0.36673 0.4432 0.1161 0.0
O341 O 0.36863 0.51346 0.1287 0.0
O342 O 0.32462 0.46096 0.90041 0.0
O343 O 0.34722 0.47608 0.32455 0.0
O344 O 0.30875 0.41193 0.12226 0.0
O345 O 0.29624 0.47234 0.09654 0.0
O346 O 0.32794 0.42723 0.25763 0.0
O347 O 0.3268 0.49073 0.26474 0.0
O348 O 0.286 0.43713 0.04589 0.0
O349 O 0.38444 0.49263 0.17238 0.0
O350 O 0.34751 0.43558 0.97898 0.0
O351 O 0.33762 0.49603 0.9597 0.0
Sc352 Sc 0.55873 0.91094 0.28087 0.0
Sc353 Sc 0.52382 0.85611 0.18374 0.0
Sc354 Sc 0.58045 0.88983 0.10375 0.0
O355 O 0.55434 0.88561 0.18952 0.0
C356 C 0.5847 0.93876 0.09386 0.0
C357 C 0.50846 0.89337 0.19989 0.0
C358 C 0.53836 0.86145 0.96347 0.0
C359 C 0.52845 0.86742 0.40895 0.0
C360 C 0.60772 0.91566 0.2921 0.0
C361 C 0.55983 0.83868 0.17813 0.0
O362 O 0.57543 0.93656 0.17473 0.0
O363 O 0.50528 0.87397 0.17441 0.0
O364 O 0.55935 0.87401 0.98219 0.0
O365 O 0.5428 0.88841 0.39834 0.0
O366 O 0.60587 0.90661 0.21107 0.0
O367 O 0.54012 0.83605 0.19261 0.0
O368 O 0.59148 0.91693 0.33165 0.0
O369 O 0.52002 0.85349 0.3393 0.0
O370 O 0.5766 0.85721 0.14708 0.0
O371 O 0.52663 0.90841 0.24061 0.0
O372 O 0.58659 0.92285 0.05372 0.0
O373 O 0.52297 0.85423 0.0275 0.0
Sc374 Sc 0.09865 0.66003 0.33965 0.0
Sc375 Sc 0.15286 0.67737 0.24736 0.0
Sc376 Sc 0.11821 0.69547 0.13933 0.0
O377 O 0.12315 0.67769 0.24253 0.0
C378 C 0.06829 0.65155 0.15627 0.0
C379 C 0.11595 0.62578 0.27389 0.0
C380 C 0.14623 0.6792 0.02232 0.0
C381 C 0.14062 0.6735 0.47007 0.0
C382 C 0.09668 0.70607 0.31798 0.0
C383 C 0.17012 0.72876 0.20927 0.0
O384 O 0.07205 0.64544 0.23633 0.0
O385 O 0.13413 0.64094 0.23349 0.0
O386 O 0.12821 0.68035 0.02985 0.0
O387 O 0.12173 0.67256 0.45644 0.0
O388 O 0.10701 0.71171 0.23856 0.0
O389 O 0.17161 0.71386 0.25959 0.0
O390 O 0.09218 0.68788 0.36247 0.0
O391 O 0.15306 0.6736 0.40208 0.0
O392 O 0.15296 0.72393 0.15586 0.0
O393 O 0.10292 0.63042 0.32313 0.0
O394 O 0.08311 0.6693 0.11261 0.0
O395 O 0.15852 0.68073 0.09359 0.0
H396 H 0.07727 0.3706 0.15663 0.0
H397 H 0.08769 0.39939 0.43941 0.0
H398 H 0.07034 0.36105 0.50815 0.0
H399 H 0.05126 0.31955 0.48702 0.0
H400 H 0.03865 0.29079 0.20368 0.0
H401 H 0.05805 0.32921 0.13547 0.0
C402 C 0.07598 0.36855 0.23344 0.0
C403 C 0.08391 0.38782 0.29303 0.0
C404 C 0.06559 0.34655 0.272 0.0
C405 C 0.08171 0.38483 0.39219 0.0
C406 C 0.07183 0.36294 0.43137 0.0
C407 C 0.05297 0.32167 0.4103 0.0
C408 C 0.04371 0.30238 0.35031 0.0
C409 C 0.0636 0.34371 0.37183 0.0
C410 C 0.04566 0.30538 0.25115 0.0
C411 C 0.05673 0.32731 0.21227 0.0
H412 H 0.69655 0.74043 0.52709 0.0
H413 H 0.73035 0.75927 0.25399 0.0
H414 H 0.69335 0.74051 0.17335 0.0
H415 H 0.65167 0.71836 0.18096 0.0
H416 H 0.61806 0.69822 0.45413 0.0
H417 H 0.65501 0.71812 0.53471 0.0
C418 C 0.69587 0.74059 0.44989 0.0
C419 C 0.71616 0.75132 0.39653 0.0
C420 C 0.67466 0.72958 0.40427 0.0
C421 C 0.71497 0.75108 0.29659 0.0
C422 C 0.69385 0.74041 0.25052 0.0
C423 C 0.65239 0.71848 0.25818 0.0
C424 C 0.63218 0.70696 0.31164 0.0
C425 C 0.67362 0.72958 0.30377 0.0
C426 C 0.6334 0.70695 0.41152 0.0
C427 C 0.65449 0.71833 0.45756 0.0
H428 H 0.26694 0.96362 0.53563 0.0
H429 H 0.2634 0.9842 0.24797 0.0
H430 H 0.28124 0.96268 0.18909 0.0
H431 H 0.29857 0.93896 0.22066 0.0
H432 H 0.30482 0.92107 0.50983 0.0
H433 H 0.28495 0.94068 0.56751 0.0
C434 C 0.26983 0.96322 0.45979 0.0
C435 C 0.26359 0.97522 0.39585 0.0
C436 C 0.28057 0.95138 0.42722 0.0
C437 C 0.26797 0.97502 0.2983 0.0
C438 C 0.27814 0.96272 0.26483 0.0
C439 C 0.29534 0.93912 0.2963 0.0
C440 C 0.30284 0.92832 0.36106 0.0
C441 C 0.28456 0.95094 0.32878 0.0
C442 C 0.2991 0.92916 0.45887 0.0
C443 C 0.28777 0.94036 0.49165 0.0
H444 H 0.31827 0.05722 0.55294 0.0
H445 H 0.28464 0.03583 0.82549 0.0
H446 H 0.32183 0.05371 0.90568 0.0
H447 H 0.36368 0.07512 0.89708 0.0
H448 H 0.39693 0.09458 0.62306 0.0
H449 H 0.35979 0.07759 0.54396 0.0
C450 C 0.31902 0.05662 0.63006 0.0
C451 C 0.29876 0.04549 0.68353 0.0
C452 C 0.34029 0.06647 0.67494 0.0
C453 C 0.30002 0.04438 0.78304 0.0
C454 C 0.32124 0.05459 0.82869 0.0
C455 C 0.3628 0.07576 0.82002 0.0
C456 C 0.38299 0.08624 0.76582 0.0
C457 C 0.34145 0.06566 0.7752 0.0
C458 C 0.38162 0.08659 0.66612 0.0
C459 C 0.36042 0.07694 0.62102 0.0
H460 H 0.93135 0.29523 0.81379 0.0
H461 H 0.91831 0.31107 0.53086 0.0
H462 H 0.93757 0.29194 0.4621 0.0
H463 H 0.95917 0.27208 0.48293 0.0
H464 H 0.9745 0.25854 0.76597 0.0
H465 H 0.95318 0.27554 0.83464 0.0
C466 C 0.93246 0.29426 0.73697 0.0
C467 C 0.92323 0.30436 0.67731 0.0
C468 C 0.94405 0.28382 0.6983 0.0
C469 C 0.92524 0.30339 0.57811 0.0
C470 C 0.93625 0.29248 0.53892 0.0
C471 C 0.95769 0.27263 0.55974 0.0
C472 C 0.96828 0.2639 0.61939 0.0
C473 C 0.94587 0.28282 0.59842 0.0
C474 C 0.96653 0.26514 0.71865 0.0
C475 C 0.95432 0.27482 0.75781 0.0
H476 H 0.7502 0.70375 0.51808 0.0
H477 H 0.76327 0.72593 0.81144 0.0
H478 H 0.74614 0.68614 0.86345 0.0
H479 H 0.7258 0.6454 0.82554 0.0
H480 H 0.70957 0.62304 0.53323 0.0
H481 H 0.72983 0.6629 0.48012 0.0
C482 C 0.74961 0.69992 0.59344 0.0
C483 C 0.75819 0.71774 0.66104 0.0
C484 C 0.73912 0.67709 0.62258 0.0
C485 C 0.75683 0.7125 0.75833 0.0
C486 C 0.74704 0.6898 0.78788 0.0
C487 C 0.72696 0.64919 0.74996 0.0
C488 C 0.71642 0.6313 0.68309 0.0
C489 C 0.73792 0.672 0.72062 0.0
C490 C 0.71761 0.63652 0.5858 0.0
C491 C 0.72916 0.65926 0.55563 0.0
H492 H 0.96235 0.71008 0.49352 0.0
H493 H 0.97033 0.73414 0.78399 0.0
H494 H 0.95097 0.6947 0.84098 0.0
H495 H 0.93386 0.654 0.80851 0.0
H496 H 0.92806 0.62992 0.5189 0.0
H497 H 0.94461 0.66916 0.46084 0.0
C498 C 0.95961 0.70674 0.56933 0.0
C499 C 0.96767 0.72501 0.6346 0.0
C500 C 0.94905 0.68416 0.60145 0.0
C501 C 0.96431 0.72038 0.73252 0.0
C502 C 0.95327 0.69787 0.76501 0.0
C503 C 0.93593 0.6572 0.73245 0.0
C504 C 0.92964 0.63902 0.66795 0.0
C505 C 0.94586 0.6797 0.70007 0.0
C506 C 0.93278 0.6436 0.56991 0.0
C507 C 0.94222 0.666 0.5368 0.0
H508 H 0.31739 0.28137 0.47504 0.0
H509 H 0.28465 0.26527 0.75041 0.0
H510 H 0.32197 0.28176 0.82843 0.0
H511 H 0.36359 0.30023 0.81769 0.0
H512 H 0.39646 0.31819 0.54283 0.0
H513 H 0.35911 0.30124 0.46452 0.0
C514 C 0.31839 0.28141 0.55222 0.0
C515 C 0.29829 0.27192 0.60705 0.0
C516 C 0.33981 0.2911 0.59622 0.0
C517 C 0.29988 0.27249 0.70682 0.0
C518 C 0.32117 0.28181 0.75128 0.0
C519 C 0.36259 0.30025 0.74052 0.0
C520 C 0.3827 0.31011 0.68579 0.0
C521 C 0.3412 0.291 0.69657 0.0
C522 C 0.38119 0.31057 0.58619 0.0
C523 C 0.35988 0.30091 0.54162 0.0
H524 H 0.72134 0.0811 0.86269 0.0
H525 H 0.7029 0.0918 0.58057 0.0
H526 H 0.72492 0.0757 0.51074 0.0
H527 H 0.74775 0.05705 0.53071 0.0
H528 H 0.7638 0.044 0.81328 0.0
H529 H 0.74444 0.06294 0.88263 0.0
C530 C 0.72229 0.08016 0.78579 0.0
C531 C 0.71056 0.08772 0.72677 0.0
C532 C 0.73452 0.07051 0.74656 0.0
C533 C 0.71171 0.08604 0.62744 0.0
C534 C 0.72433 0.07689 0.5876 0.0
C535 C 0.74733 0.05867 0.6075 0.0
C536 C 0.75733 0.04932 0.66699 0.0
C537 C 0.7356 0.0689 0.64661 0.0
C538 C 0.75625 0.05111 0.76625 0.0
C539 C 0.74516 0.06187 0.80576 0.0
H540 H 0.64799 0.93466 0.19987 0.0
H541 H 0.6188 0.924 0.48146 0.0
H542 H 0.65714 0.94527 0.55065 0.0
H543 H 0.69859 0.96708 0.53027 0.0
H544 H 0.7277 0.97956 0.24799 0.0
H545 H 0.68942 0.95741 0.17918 0.0
C546 C 0.65 0.93674 0.27658 0.0
C547 C 0.63062 0.92748 0.33583 0.0
C548 C 0.67195 0.94944 0.31522 0.0
C549 C 0.63347 0.93084 0.43467 0.0
C550 C 0.65534 0.94302 0.47403 0.0
C551 C 0.6966 0.9649 0.45359 0.0
C552 C 0.71597 0.97478 0.39418 0.0
C553 C 0.67465 0.95243 0.41486 0.0
C554 C 0.71307 0.97215 0.29506 0.0
C555 C 0.69123 0.95943 0.25588 0.0
H556 H 0.05176 0.75485 0.53238 0.0
H557 H 0.04328 0.7715 0.24373 0.0
H558 H 0.0643 0.75322 0.18446 0.0
H559 H 0.0833 0.731 0.21515 0.0
H560 H 0.08902 0.71216 0.50344 0.0
H561 H 0.0709 0.73321 0.5631 0.0
C562 C 0.05469 0.75475 0.45642 0.0
C563 C 0.04609 0.76462 0.3924 0.0
C564 C 0.06623 0.74386 0.4232 0.0
C565 C 0.04972 0.76398 0.29426 0.0
C566 C 0.06173 0.75358 0.26053 0.0
C567 C 0.08088 0.7318 0.29118 0.0
C568 C 0.08758 0.72023 0.35515 0.0
C569 C 0.06985 0.74329 0.32442 0.0
C570 C 0.08398 0.72097 0.45316 0.0
C571 C 0.07362 0.73295 0.4871 0.0
H572 H 0.29232 0.36987 0.11833 0.0
H573 H 0.3051 0.39983 0.39953 0.0
H574 H 0.28447 0.36166 0.4701 0.0
H575 H 0.2642 0.32006 0.45143 0.0
H576 H 0.25383 0.29031 0.17059 0.0
H577 H 0.27206 0.32844 0.09962 0.0
C578 C 0.29044 0.36812 0.19512 0.0
C579 C 0.30012 0.38765 0.25375 0.0
C580 C 0.27901 0.34625 0.23487 0.0
C581 C 0.29785 0.38505 0.35304 0.0
C582 C 0.28602 0.36326 0.39325 0.0
C583 C 0.26562 0.32189 0.37454 0.0
C584 C 0.25751 0.30243 0.31604 0.0
C585 C 0.27669 0.34379 0.33477 0.0
C586 C 0.25991 0.30506 0.21683 0.0
C587 C 0.27034 0.32682 0.17643 0.0
H588 H 0.9783 0.3887 0.81958 0.0
H589 H 0.94844 0.37079 0.10025 0.0
H590 H 0.98651 0.39185 0.17192 0.0
H591 H 0.02809 0.41454 0.154 0.0
H592 H 0.05785 0.43027 0.87284 0.0
H593 H 0.01972 0.41086 0.80162 0.0
C594 C 0.98005 0.38953 0.89656 0.0
C595 C 0.96056 0.37836 0.95469 0.0
C596 C 0.00189 0.40124 0.93682 0.0
C597 C 0.96318 0.37924 0.05411 0.0
C598 C 0.98491 0.39131 0.09497 0.0
C599 C 0.02624 0.41394 0.07708 0.0
C600 C 0.04574 0.42401 0.01857 0.0
C601 C 0.00435 0.40229 0.03691 0.0
C602 C 0.04309 0.42269 0.91917 0.0
C603 C 0.02133 0.4116 0.87858 0.0
H604 H 0.63137 0.60206 0.8224 0.0
H605 H 0.65148 0.59085 0.10011 0.0
H606 H 0.6308 0.60797 0.17498 0.0
H607 H 0.6075 0.62653 0.16012 0.0
H608 H 0.5895 0.63923 0.88068 0.0
H609 H 0.60879 0.62072 0.80736 0.0
C610 C 0.63115 0.60317 0.89949 0.0
C611 C 0.64279 0.595 0.95576 0.0
C612 C 0.61957 0.61319 0.94139 0.0
C613 C 0.64266 0.59701 0.05532 0.0
C614 C 0.6308 0.60672 0.09798 0.0
C615 C 0.60759 0.625 0.08318 0.0
C616 C 0.59692 0.63403 0.0257 0.0
C617 C 0.6192 0.61486 0.04157 0.0
C618 C 0.59755 0.63237 0.92621 0.0
C619 C 0.60859 0.62183 0.88439 0.0
H620 H 0.41308 0.03447 0.90647 0.0
H621 H 0.4274 0.06268 0.1909 0.0
H622 H 0.40858 0.02416 0.25782 0.0
H623 H 0.38705 0.98294 0.23549 0.0
H624 H 0.37042 0.95429 0.95198 0.0
H625 H 0.39118 0.9928 0.88413 0.0
C626 C 0.41236 0.03218 0.98315 0.0
C627 C 0.42182 0.05138 0.04387 0.0
C628 C 0.40097 0.01003 0.02092 0.0
C629 C 0.42031 0.04817 0.14292 0.0
C630 C 0.40953 0.02619 0.18106 0.0
C631 C 0.38809 0.98501 0.15868 0.0
C632 C 0.37733 0.96573 0.09873 0.0
C633 C 0.39965 0.00706 0.12069 0.0
C634 C 0.37853 0.96883 0.99956 0.0
C635 C 0.39043 0.99082 0.9609 0.0
H636 H 0.62928 0.03033 0.85758 0.0
H637 H 0.63752 0.05844 0.14076 0.0
H638 H 0.61817 0.01991 0.20772 0.0
H639 H 0.59987 0.97871 0.18593 0.0
H640 H 0.59363 0.95029 0.90454 0.0
H641 H 0.61146 0.98877 0.83608 0.0
C642 C 0.62663 0.028 0.93393 0.0
C643 C 0.63459 0.04716 0.9943 0.0
C644 C 0.61602 0.00589 0.97186 0.0
C645 C 0.6315 0.04395 0.09307 0.0
C646 C 0.62045 0.02196 0.13121 0.0
C647 C 0.60219 0.98084 0.10938 0.0
C648 C 0.5952 0.96165 0.05009 0.0
C649 C 0.61277 0.00287 0.07127 0.0
C650 C 0.59882 0.96479 0.95147 0.0
C651 C 0.60896 0.98675 0.9125 0.0
H652 H 0.05479 0.64852 0.97132 0.0
H653 H 0.02928 0.62491 0.25486 0.0
H654 H 0.99031 0.60471 0.19466 0.0
H655 H 0.96317 0.59441 0.06175 0.0
H656 H 0.9889 0.61642 0.77722 0.0
H657 H 0.02788 0.63646 0.83739 0.0
C658 C 0.0407 0.63889 0.01971 0.0
C659 C 0.04495 0.63828 0.1172 0.0
C660 C 0.01828 0.62702 0.98457 0.0
C661 C 0.02651 0.62555 0.17914 0.0
C662 C 0.00417 0.61406 0.14498 0.0
C663 C 0.97734 0.60358 0.01317 0.0
C664 C 0.97316 0.60397 0.91548 0.0
C665 C -0.00018 0.61479 0.04792 0.0
C666 C -0.00832 0.61572 0.85291 0.0
C667 C 0.014 0.62728 0.88715 0.0
H668 H 0.37997 0.4146 0.1376 0.0
H669 H 0.37482 0.43265 0.84732 0.0
H670 H 0.39572 0.41388 0.7924 0.0
H671 H 0.41438 0.39171 0.82695 0.0
H672 H 0.41702 0.37107 0.11552 0.0
H673 H 0.398 0.39168 0.17181 0.0
C674 C 0.38363 0.41466 0.06232 0.0
C675 C 0.37615 0.42524 0.99645 0.0
C676 C 0.39506 0.40337 0.03141 0.0
C677 C 0.3805 0.42469 0.89911 0.0
C678 C 0.39242 0.41398 0.86791 0.0
C679 C 0.41106 0.39192 0.90247 0.0
C680 C 0.41738 0.38017 0.96743 0.0
C681 C 0.39967 0.40322 0.93347 0.0
C682 C 0.41241 0.38009 0.06447 0.0
C683 C 0.40157 0.39185 0.09644 0.0
H684 H 0.07297 0.20604 0.42457 0.0
H685 H 0.0991 0.26781 0.591 0.0
H686 H 0.13732 0.27236 0.58633 0.0
H687 H 0.16266 0.25713 0.54423 0.0
H688 H 0.1355 0.19498 0.37914 0.0
H689 H 0.0984 0.19241 0.37384 0.0
C690 C 0.08699 0.22057 0.45978 0.0
C691 C 0.08307 0.23639 0.50914 0.0
C692 C 0.10878 0.223 0.45722 0.0
C693 C 0.10159 0.25531 0.55277 0.0
C694 C 0.12345 0.25789 0.55032 0.0
C695 C 0.14872 0.2432 0.50601 0.0
C696 C 0.15189 0.22615 0.46303 0.0
C697 C 0.12717 0.24162 0.50401 0.0
C698 C 0.13356 0.20821 0.41386 0.0
C699 C 0.11228 0.2067 0.41072 0.0
H700 H 0.75442 0.9158 0.66489 0.0
H701 H 0.79219 0.93802 0.40175 0.0
H702 H 0.78853 0.90063 0.37976 0.0
H703 H 0.78064 0.86452 0.44848 0.0
H704 H 0.74543 0.84231 0.71666 0.0
H705 H 0.74144 0.87646 0.72302 0.0
C706 C 0.7613 0.91214 0.60187 0.0
C707 C 0.77388 0.92956 0.53579 0.0
C708 C 0.75977 0.89074 0.5912 0.0
C709 C 0.78279 0.92485 0.45419 0.0
C710 C 0.7807 0.90352 0.44154 0.0
C711 C 0.77162 0.86695 0.50719 0.0
C712 C 0.76365 0.85134 0.58265 0.0
C713 C 0.77016 0.88677 0.51163 0.0
C714 C 0.75169 0.85426 0.65784 0.0
C715 C 0.74965 0.87386 0.66185 0.0
H716 H 0.07872 0.88267 0.43914 0.0
H717 H 0.09619 0.85249 0.67135 0.0
H718 H 0.13519 0.885 0.67232 0.0
H719 H 0.16288 0.9239 0.61776 0.0
H720 H 0.14446 0.95352 0.38593 0.0
H721 H 0.10736 0.91911 0.37328 0.0
C722 C 0.09111 0.88316 0.48966 0.0
C723 C 0.08458 0.86554 0.55624 0.0
C724 C 0.1133 0.90177 0.48985 0.0
C725 C 0.10087 0.86603 0.61979 0.0
C726 C 0.12311 0.8846 0.6205 0.0
C727 C 0.15091 0.9226 0.56328 0.0
C728 C 0.15623 0.94135 0.50406 0.0
C729 C 0.12935 0.90284 0.55731 0.0
C730 C 0.14059 0.93944 0.43353 0.0
C731 C 0.11936 0.9198 0.42622 0.0
H732 H 0.225 0.15368 0.58563 0.0
H733 H 0.26816 0.17891 0.33789 0.0
H734 H 0.2746 0.14636 0.34385 0.0
H735 H 0.26288 0.10771 0.40561 0.0
H736 H 0.21878 0.08282 0.65108 0.0
H737 H 0.21816 0.11842 0.66124 0.0
C738 C 0.2361 0.15221 0.53384 0.0
C739 C 0.24573 0.16831 0.46045 0.0
C740 C 0.23948 0.13346 0.53717 0.0
C741 C 0.26046 0.16657 0.39484 0.0
C742 C 0.26404 0.14792 0.39794 0.0
C743 C 0.25374 0.11044 0.4628 0.0
C744 C 0.24061 0.09264 0.52658 0.0
C745 C 0.25295 0.13081 0.4668 0.0
C746 C 0.22874 0.09624 0.60038 0.0
C747 C 0.2283 0.11653 0.60609 0.0
H748 H 0.85142 0.09953 0.41844 0.0
H749 H 0.87836 0.06764 0.60362 0.0
H750 H 0.91498 0.10263 0.60858 0.0
H751 H 0.94026 0.14108 0.55207 0.0
H752 H 0.91464 0.17393 0.36616 0.0
H753 H 0.8766 0.1399 0.37074 0.0
C754 C 0.86523 0.10038 0.4608 0.0
C755 C 0.8622 0.08086 0.50936 0.0
C756 C 0.88655 0.12065 0.46277 0.0
C757 C 0.88028 0.08226 0.56418 0.0
C758 C 0.90127 0.10228 0.56729 0.0
C759 C 0.92637 0.14088 0.51258 0.0
C760 C 0.93036 0.15987 0.45772 0.0
C761 C 0.90474 0.12136 0.51518 0.0
C762 C 0.91204 0.15947 0.40868 0.0
C763 C 0.8903 0.13999 0.41105 0.0
H764 H 0.94268 0.8249 0.56116 0.0
H765 H 0.91717 0.76157 0.40611 0.0
H766 H 0.87862 0.75602 0.41132 0.0
H767 H 0.85266 0.77037 0.45243 0.0
H768 H 0.87908 0.83406 0.60602 0.0
H769 H 0.9168 0.83811 0.60891 0.0
C770 C 0.92873 0.80985 0.52839 0.0
C771 C 0.93286 0.79384 0.48236 0.0
C772 C 0.90676 0.80682 0.53125 0.0
C773 C 0.91448 0.77425 0.44172 0.0
C774 C 0.89244 0.77106 0.44453 0.0
C775 C 0.86662 0.785 0.48734 0.0
C776 C 0.86307 0.80198 0.52798 0.0
C777 C 0.88844 0.7874 0.48811 0.0
C778 C 0.88135 0.82085 0.57307 0.0
C779 C 0.90296 0.82321 0.57492 0.0
H780 H 0.8089 0.54016 0.73491 0.0
H781 H 0.84179 0.59791 0.92525 0.0
H782 H 0.80705 0.60057 0.92982 0.0
H783 H 0.76632 0.58449 0.88886 0.0
H784 H 0.73414 0.5264 0.6992 0.0
H785 H 0.76969 0.52602 0.68528 0.0
C786 C 0.80856 0.55341 0.77729 0.0
C787 C 0.82781 0.5686 0.83068 0.0
C788 C 0.7886 0.55474 0.78004 0.0
C789 C 0.82717 0.58592 0.8837 0.0
C790 C 0.80728 0.58741 0.88659 0.0
C791 C 0.76716 0.57194 0.84359 0.0
C792 C 0.74744 0.55532 0.79625 0.0
C793 C 0.78774 0.57163 0.83635 0.0
C794 C 0.74891 0.53921 0.73763 0.0
C795 C 0.76926 0.53896 0.72944 0.0
H796 H 0.42107 0.24981 0.96972 0.0
H797 H 0.4668 0.27372 0.72907 0.0
H798 H 0.46807 0.23841 0.72738 0.0
H799 H 0.4605 0.20335 0.80675 0.0
H800 H 0.41539 0.17873 0.04868 0.0
H801 H 0.40934 0.21155 0.03716 0.0
C802 C 0.43077 0.24695 0.91549 0.0
C803 C 0.44405 0.26441 0.85035 0.0
C804 C 0.43187 0.2267 0.91624 0.0
C805 C 0.45667 0.26061 0.78063 0.0
C806 C 0.45748 0.24047 0.77977 0.0
C807 C 0.44916 0.20506 0.85642 0.0
C808 C 0.43876 0.18901 0.92955 0.0
C809 C 0.4459 0.22386 0.84947 0.0
C810 C 0.42369 0.19104 0.99212 0.0
C811 C 0.42031 0.20982 0.98571 0.0
H812 H 0.73918 0.2066 0.78394 0.0
H813 H 0.76275 0.17711 0.99632 0.0
H814 H 0.80094 0.21097 0.99032 0.0
H815 H 0.82655 0.25062 0.93443 0.0
H816 H 0.80166 0.27916 0.72261 0.0
H817 H 0.76519 0.24392 0.71808 0.0
C818 C 0.75268 0.20752 0.82878 0.0
C819 C 0.74808 0.18961 0.89166 0.0
C820 C 0.77438 0.2269 0.82512 0.0
C821 C 0.76588 0.19079 0.94765 0.0
C822 C 0.78768 0.21016 0.94441 0.0
C823 C 0.81325 0.24891 0.8862 0.0
C824 C 0.81669 0.26759 0.8301 0.0
C825 C 0.79201 0.22856 0.88476 0.0
C826 C 0.79932 0.26516 0.76777 0.0
C827 C 0.77843 0.24502 0.76502 0.0
H828 H 0.88713 0.48344 0.87608 0.0
H829 H 0.93358 0.51002 0.63889 0.0
H830 H 0.9364 0.4752 0.6357 0.0
H831 H 0.92158 0.43513 0.68895 0.0
H832 H 0.87401 0.40932 0.92331 0.0
H833 H 0.87585 0.44597 0.93954 0.0
C834 C 0.89807 0.48172 0.82421 0.0
C835 C 0.90979 0.49898 0.75676 0.0
C836 C 0.89926 0.46171 0.82196 0.0
C837 C 0.92431 0.49683 0.69133 0.0
C838 C 0.9258 0.4769 0.68917 0.0
C839 C 0.912 0.43776 0.74448 0.0
C840 C 0.89737 0.41949 0.80371 0.0
C841 C 0.91277 0.4589 0.75238 0.0
C842 C 0.88505 0.42304 0.87567 0.0
C843 C 0.8861 0.44398 0.88518 0.0
H844 H 0.51739 0.43291 0.74196 0.0
H845 H 0.53853 0.4054 0.97272 0.0
H846 H 0.57516 0.44049 0.9807 0.0
H847 H 0.60279 0.47672 0.90975 0.0
H848 H 0.58282 0.50467 0.67739 0.0
H849 H 0.54401 0.47184 0.68338 0.0
C850 C 0.52984 0.43481 0.79522 0.0
C851 C 0.52539 0.41641 0.8554 0.0
C852 C 0.55116 0.45498 0.7985 0.0
C853 C 0.54167 0.41914 0.92434 0.0
C854 C 0.56265 0.4392 0.92904 0.0
C855 C 0.58987 0.47575 0.86105 0.0
C856 C 0.59569 0.4928 0.79216 0.0
C857 C 0.56785 0.45684 0.86427 0.0
C858 C 0.57872 0.49164 0.73084 0.0
C859 C 0.55659 0.47283 0.73393 0.0
H860 H 0.6064 0.14442 0.9297 0.0
H861 H 0.57892 0.08345 0.75746 0.0
H862 H 0.54108 0.07988 0.76405 0.0
H863 H 0.51656 0.09595 0.80956 0.0
H864 H 0.54538 0.15742 0.97989 0.0
H865 H 0.58191 0.15881 0.9832 0.0
C866 C 0.59217 0.13028 0.89358 0.0
C867 C 0.59557 0.11442 0.84201 0.0
C868 C 0.57068 0.12847 0.89705 0.0
C869 C 0.57679 0.09596 0.79738 0.0
C870 C 0.55517 0.09396 0.80088 0.0
C871 C 0.53077 0.10947 0.8483 0.0
C872 C 0.52825 0.1267 0.89335 0.0
C873 C 0.552 0.11037 0.84919 0.0
C874 C 0.54686 0.1441 0.94337 0.0
C875 C 0.5678 0.14493 0.9455 0.0
H876 H 0.4982 0.92102 0.30532 0.0
H877 H 0.47539 0.87477 0.06538 0.0
H878 H 0.43982 0.87544 0.06003 0.0
H879 H 0.41337 0.88497 0.13554 0.0
H880 H 0.43465 0.93015 0.3782 0.0
H881 H 0.47284 0.93443 0.36972 0.0
C882 C 0.48563 0.91152 0.25066 0.0
C883 C 0.48924 0.89757 0.1868 0.0
C884 C 0.46488 0.91157 0.24923 0.0
C885 C 0.47284 0.88534 0.11627 0.0
C886 C 0.45249 0.88568 0.11315 0.0
C887 C 0.42646 0.89595 0.18605 0.0
C888 C 0.4212 0.90687 0.25853 0.0
C889 C 0.44802 0.89803 0.1814 0.0
C890 C 0.43836 0.92148 0.32211 0.0
C891 C 0.4601 0.92382 0.31752 0.0
H892 H 0.12857 0.60763 0.13184 0.0
H893 H 0.08959 0.58987 0.39219 0.0
H894 H 0.08291 0.55086 0.38112 0.0
H895 H 0.09194 0.52316 0.30597 0.0
H896 H 0.13203 0.5422 0.04852 0.0
H897 H 0.13412 0.57921 0.04884 0.0
C898 C 0.11852 0.5952 0.18601 0.0
C899 C 0.10996 0.6017 0.26358 0.0
C900 C 0.11488 0.573 0.17945 0.0
C901 C 0.09651 0.58529 0.33203 0.0
C902 C 0.09271 0.56301 0.32583 0.0
C903 C 0.10058 0.53524 0.24886 0.0
C904 C 0.11196 0.53016 0.17776 0.0
C905 C 0.10228 0.55682 0.25097 0.0
C906 C 0.12332 0.54593 0.10438 0.0
C907 C 0.12461 0.56709 0.10471 0.0
H908 H 0.47134 0.60899 0.09649 0.0
H909 H 0.50362 0.57881 0.25912 0.0
H910 H 0.46822 0.54184 0.255 0.0
H911 H 0.42713 0.51896 0.21501 0.0
H912 H 0.39578 0.55047 0.05386 0.0
H913 H 0.43185 0.58601 0.04783 0.0
C914 C 0.47073 0.59434 0.13093 0.0
C915 C 0.48998 0.59673 0.1792 0.0
C916 C 0.45042 0.57337 0.12903 0.0
C917 C 0.48899 0.57744 0.22172 0.0
C918 C 0.46873 0.55633 0.21971 0.0
C919 C 0.42828 0.53354 0.1778 0.0
C920 C 0.40864 0.53208 0.13625 0.0
C921 C 0.44918 0.5542 0.17505 0.0
C922 C 0.41047 0.55114 0.0879 0.0
C923 C 0.43112 0.57152 0.08411 0.0
H924 H 0.54536 0.74093 0.24585 0.0
H925 H 0.59919 0.76381 0.03777 0.0
H926 H 0.60384 0.80215 0.04147 0.0
H927 H 0.58961 0.82792 0.09237 0.0
H928 H 0.53542 0.80387 0.29995 0.0
H929 H 0.53414 0.76737 0.30871 0.0
C930 C 0.55822 0.75434 0.20166 0.0
C931 C 0.57162 0.74948 0.14042 0.0
C932 C 0.56071 0.77615 0.20398 0.0
C933 C 0.58857 0.76713 0.0852 0.0
C934 C 0.59117 0.78902 0.08708 0.0
C935 C 0.57788 0.81484 0.14085 0.0
C936 C 0.5624 0.81849 0.19429 0.0
C937 C 0.57695 0.79358 0.14462 0.0
C938 C 0.54727 0.80137 0.25687 0.0
C939 C 0.54649 0.78046 0.26196 0.0
H940 H 0.25089 0.82895 0.12822 0.0
H941 H 0.28317 0.808 0.33926 0.0
H942 H 0.24784 0.77221 0.36198 0.0
H943 H 0.20886 0.74563 0.31457 0.0
H944 H 0.17604 0.7651 0.10023 0.0
H945 H 0.2103 0.80263 0.08722 0.0
C946 C 0.25004 0.81664 0.1799 0.0
C947 C 0.26972 0.82103 0.23096 0.0
C948 C 0.22961 0.79572 0.19181 0.0
C949 C 0.26838 0.80491 0.29777 0.0
C950 C 0.24816 0.78442 0.31111 0.0
C951 C 0.20904 0.75808 0.26537 0.0
C952 C 0.1899 0.75236 0.20789 0.0
C953 C 0.22884 0.77943 0.25714 0.0
C954 C 0.19052 0.76892 0.14522 0.0
C955 C 0.21016 0.79041 0.13749 0.0
H956 H 0.26431 0.46882 0.20314 0.0
H957 H 0.24442 0.42213 0.96606 0.0
H958 H 0.20605 0.4175 0.96873 0.0
H959 H 0.17994 0.43073 0.02721 0.0
H960 H 0.2016 0.47852 0.26154 0.0
H961 H 0.23745 0.47856 0.27185 0.0
C962 C 0.25151 0.45747 0.15249 0.0
C963 C 0.25719 0.44618 0.08336 0.0
C964 C 0.22986 0.4552 0.15375 0.0
C965 C 0.24037 0.43109 0.01963 0.0
C966 C 0.21852 0.42855 0.02089 0.0
C967 C 0.19237 0.44076 0.08152 0.0
C968 C 0.18836 0.4549 0.14243 0.0
C969 C 0.21329 0.44108 0.08592 0.0
C970 C 0.20452 0.46783 0.21272 0.0
C971 C 0.22501 0.46786 0.21879 0.0
H972 H 0.97372 0.18124 0.1239 0.0
H973 H 0.04593 0.21735 0.1805 0.0
H974 H 0.05383 0.21895 1.00929 0.0
H975 H 0.0399 0.21498 0.84377 0.0
H976 H 0.9677 0.17732 0.78711 0.0
H977 H 0.95987 0.17096 0.95832 0.0
C978 C -0.00887 0.18886 0.09844 0.0
C979 C 0.00927 0.19928 0.16363 0.0
C980 C -0.00455 0.18957 1.00032 0.0
C981 C 0.03179 0.20913 0.13098 0.0
C982 C 0.03627 0.21019 0.0333 0.0
C983 C 0.02251 0.20484 0.8692 0.0
C984 C 0.00435 0.1967 0.80398 0.0
C985 C 0.01823 0.2012 0.96731 0.0
C986 C 0.98187 0.18358 0.83662 0.0
C987 C 0.97742 0.18012 0.93432 0.0
H988 H 0.83607 0.81635 0.19187 0.0
H989 H 0.79084 0.84257 0.24692 0.0
H990 H 0.78686 0.84642 0.0752 0.0
H991 H 0.79178 0.83659 0.91034 0.0
H992 H 0.8382 0.81181 0.85565 0.0
H993 H 0.8465 0.81329 0.02651 0.0
C994 C 0.82593 0.82358 0.16596 0.0
C995 C 0.81368 0.82911 0.23109 0.0
C996 C 0.82373 0.82565 0.06757 0.0
C997 C 0.80055 0.83842 0.19764 0.0
C998 C 0.79809 0.84036 0.09961 0.0
C999 C 0.80413 0.83208 0.93611 0.0
C1000 C 0.8143 0.82395 0.87168 0.0
C1001 C 0.8089 0.83318 0.03404 0.0
C1002 C 0.8303 0.81817 0.90463 0.0
C1003 C 0.83492 0.8189 1.0021 0.0
H1004 H 0.17788 -0.00523 0.17396 0.0
H1005 H 0.23873 0.061 0.1782 0.0
H1006 H 0.23718 0.06374 1.00564 0.0
H1007 H 0.22202 0.04515 0.85165 0.0
H1008 H 0.16286 0.97804 0.84268 0.0
H1009 H 0.1599 0.97785 0.01714 0.0
C1010 C 0.19039 0.00999 0.13703 0.0
C1011 C 0.20848 0.0276 0.18888 0.0
C1012 C 0.18976 0.01124 0.03634 0.0
C1013 C 0.22475 0.04713 0.13989 0.0
C1014 C 0.22391 0.04873 0.04105 0.0
C1015 C 0.20798 0.0309 0.88794 0.0
C1016 C 0.19237 0.01188 0.83465 0.0
C1017 C 0.20697 0.03061 0.98819 0.0
C1018 C 0.17471 0.99312 0.88235 0.0
C1019 C 0.17322 0.99291 0.98221 0.0
H1020 H 0.04019 0.84904 0.87269 0.0
H1021 H 0.96763 0.81209 0.8249 0.0
H1022 H 0.96092 0.81155 0.99687 0.0
H1023 H 0.976 0.81617 0.16043 0.0
H1024 H 0.04854 0.85384 0.20866 0.0
H1025 H 0.05518 0.86003 0.03659 0.0
C1026 C 0.02295 0.84156 0.90018 0.0
C1027 C 0.00438 0.8306 0.83729 0.0
C1028 C 0.01933 0.84127 0.9988 0.0
C1029 C 0.98209 0.82078 0.87257 0.0
C1030 C 0.9783 0.8203 0.97071 0.0
C1031 C -0.00679 0.82631 0.13305 0.0
C1032 C 0.01181 0.83447 0.19609 0.0
C1033 C -0.0032 0.8297 0.03451 0.0
C1034 C 0.03405 0.84757 0.16091 0.0
C1035 C 0.03781 0.85091 0.0627 0.0
H1036 H 0.18167 0.20933 0.12171 0.0
H1037 H 0.22101 0.1754 0.13451 0.0
H1038 H 0.21903 0.17107 0.96089 0.0
H1039 H 0.21121 0.18242 0.80361 0.0
H1040 H 0.17446 0.2191 0.79232 0.0
H1041 H 0.16992 0.21657 0.96531 0.0
C1042 C 0.18904 0.20026 0.08642 0.0
C1043 C 0.20112 0.19234 0.14052 0.0
C1044 C 0.18856 0.19862 0.9861 0.0
C1045 C 0.21128 0.18126 0.09407 0.0
C1046 C 0.21033 0.17898 0.99472 0.0
C1047 C 0.2016 0.18916 0.83908 0.0
C1048 C 0.19307 0.20082 0.78547 0.0
C1049 C 0.19974 0.18835 0.93953 0.0
C1050 C 0.18108 0.20997 0.83232 0.0
C1051 C 0.17859 0.20864 0.93133 0.0
H1052 H 0.83658 0.03869 0.167 0.0
H1053 H 0.79686 0.96671 0.22619 0.0
H1054 H 0.79482 0.95814 0.05546 0.0
H1055 H 0.79975 0.97175 0.88925 0.0
H1056 H 0.84115 0.04357 0.8301 0.0
H1057 H 0.84763 0.05176 1.00114 0.0
C1058 C 0.82801 0.02114 0.14221 0.0
C1059 C 0.81672 0.00331 0.20794 0.0
C1060 C 0.82714 0.01641 0.04438 0.0
C1061 C 0.80571 0.98061 0.1762 0.0
C1062 C 0.80443 0.97575 0.0788 0.0
C1063 C 0.81074 0.98908 0.91415 0.0
C1064 C 0.81994 0.00709 0.84823 0.0
C1065 C 0.81442 0.99357 0.01218 0.0
C1066 C 0.83411 0.02951 0.88018 0.0
C1067 C 0.83761 0.03418 0.97777 0.0
H1068 H 0.64251 0.51493 0.13704 0.0
H1069 H 0.712 0.52963 0.12222 0.0
H1070 H 0.71347 0.52731 0.29622 0.0
H1071 H 0.69674 0.52732 0.45396 0.0
H1072 H 0.62801 0.51531 0.46547 0.0
H1073 H 0.62426 0.50999 0.29312 0.0
C1074 C 0.65761 0.51668 0.172 0.0
C1075 C 0.67695 0.52196 0.11732 0.0
C1076 C 0.65857 0.51622 0.27218 0.0
C1077 C 0.69675 0.52503 0.16318 0.0
C1078 C 0.69766 0.52399 0.26273 0.0
C1079 C 0.68079 0.52288 0.41867 0.0
C1080 C 0.66269 0.52174 0.47205 0.0
C1081 C 0.67896 0.52049 0.31839 0.0
C1082 C 0.64219 0.51633 0.42554 0.0
C1083 C 0.64004 0.51335 0.32693 0.0
H1084 H 0.50206 0.14227 0.55148 0.0
H1085 H 0.4634 0.17562 0.61132 0.0
H1086 H 0.46065 0.18137 0.44039 0.0
H1087 H 0.46465 0.17176 0.27416 0.0
H1088 H 0.50504 0.14026 0.21456 0.0
H1089 H 0.51212 0.13916 0.38534 0.0
C1090 C 0.49358 0.15133 0.52679 0.0
C1091 C 0.48279 0.1584 0.5929 0.0
C1092 C 0.49225 0.15469 0.42883 0.0
C1093 C 0.4719 0.17019 0.56114 0.0
C1094 C 0.47018 0.17328 0.4636 0.0
C1095 C 0.47551 0.16526 0.29889 0.0
C1096 C 0.48427 0.156 0.23299 0.0
C1097 C 0.47961 0.16488 0.3968 0.0
C1098 C 0.49831 0.14758 0.26467 0.0
C1099 C 0.50218 0.1468 0.3621 0.0
H1100 H 0.84061 0.30969 0.17558 0.0
H1101 H 0.87694 0.38176 0.11539 0.0
H1102 H 0.87913 0.39031 0.28618 0.0
H1103 H 0.87541 0.37696 0.45248 0.0
H1104 H 0.83725 0.30493 0.51261 0.0
H1105 H 0.83062 0.29649 0.3418 0.0
C1106 C 0.84844 0.32723 0.20019 0.0
C1107 C 0.85875 0.34512 0.13411 0.0
C1108 C 0.84942 0.33193 0.29806 0.0
C1109 C 0.86882 0.36779 0.16564 0.0
C1110 C 0.87022 0.37265 0.26308 0.0
C1111 C 0.86511 0.35948 0.42784 0.0
C1112 C 0.85689 0.34153 0.49391 0.0
C1113 C 0.86127 0.35485 0.32995 0.0
C1114 C 0.84357 0.31894 0.46235 0.0
C1115 C 0.83996 0.31414 0.36491 0.0
H1116 H 0.70408 0.16961 0.22442 0.0
H1117 H 0.63187 0.13163 0.1683 0.0
H1118 H 0.62396 0.13001 0.33949 0.0
H1119 H 0.63802 0.13453 0.50487 0.0
H1120 H 0.71015 0.17392 0.56124 0.0
H1121 H 0.71786 0.18034 0.38995 0.0
C1122 C 0.68664 0.16159 0.24998 0.0
C1123 C 0.66853 0.15068 0.18497 0.0
C1124 C 0.68231 0.16084 0.34811 0.0
C1125 C 0.64598 0.14026 0.21771 0.0
C1126 C 0.6415 0.13918 0.31538 0.0
C1127 C 0.65535 0.14503 0.47937 0.0
C1128 C 0.67355 0.15364 0.54455 0.0
C1129 C 0.65956 0.14869 0.38124 0.0
C1130 C 0.69595 0.16728 0.51179 0.0
C1131 C 0.70033 0.17076 0.41404 0.0
H1132 H 0.84919 0.5454 0.14684 0.0
H1133 H 0.89072 0.51464 0.0987 0.0
H1134 H 0.89211 0.50899 0.2707 0.0
H1135 H 0.88658 0.51867 0.43432 0.0
H1136 H 0.84435 0.54864 0.48278 0.0
H1137 H 0.83768 0.54844 0.31076 0.0
C1138 C 0.85789 0.53679 0.17428 0.0
C1139 C 0.86986 0.53041 0.11131 0.0
C1140 C 0.85865 0.53374 0.27287 0.0
C1141 C 0.88124 0.51943 0.14648 0.0
C1142 C 0.8822 0.51642 0.24462 0.0
C1143 C 0.87538 0.52451 0.40697 0.0
C1144 C 0.86602 0.53377 0.47002 0.0
C1145 C 0.87172 0.52434 0.30848 0.0
C1146 C 0.85156 0.54134 0.43496 0.0
C1147 C 0.84793 0.54139 0.33681 0.0
H1148 H 0.50475 0.36281 0.19373 0.0
H1149 H 0.44431 0.29628 0.18717 0.0
H1150 H 0.44579 0.29315 0.35948 0.0
H1151 H 0.46062 0.31149 0.51397 0.0
H1152 H 0.51948 0.37877 0.52561 0.0
H1153 H 0.52263 0.37939 0.35115 0.0
C1154 C 0.49231 0.34746 0.2301 0.0
C1155 C 0.47432 0.32988 0.17775 0.0
C1156 C 0.49292 0.34595 0.33068 0.0
C1157 C 0.45817 0.31014 0.22595 0.0
C1158 C 0.45898 0.30831 0.32463 0.0
C1159 C 0.47466 0.32587 0.47826 0.0
C1160 C 0.4901 0.34481 0.53223 0.0
C1161 C 0.47578 0.32639 0.37808 0.0
C1162 C 0.50776 0.36374 0.48534 0.0
C1163 C 0.50935 0.36421 0.38549 0.0
H1164 H 0.3779 0.88125 0.6 0.0
H1165 H 0.30585 0.84274 0.54111 0.0
H1166 H 0.29776 0.83551 0.71179 0.0
H1167 H 0.31122 0.84521 0.8778 0.0
H1168 H 0.38331 0.8822 0.93699 0.0
H1169 H 0.39159 0.88468 0.76592 0.0
C1170 C 0.36051 0.87075 0.62486 0.0
C1171 C 0.34243 0.86258 0.5593 0.0
C1172 C 0.35608 0.86659 0.7227 0.0
C1173 C 0.31994 0.84902 0.59104 0.0
C1174 C 0.31535 0.84505 0.68839 0.0
C1175 C 0.32871 0.85322 0.85293 0.0
C1176 C 0.34667 0.86365 0.91886 0.0
C1177 C 0.33325 0.85446 0.75493 0.0
C1178 C 0.36929 0.87397 0.88692 0.0
C1179 C 0.37399 0.87555 0.78931 0.0
H1180 H 0.16659 0.47567 0.79589 0.0
H1181 H 0.12999 0.51115 0.85528 0.0
H1182 H 0.12791 0.51747 0.68441 0.0
H1183 H 0.13172 0.50775 0.51834 0.0
H1184 H 0.17 0.47399 0.45891 0.0
H1185 H 0.17667 0.47239 0.62981 0.0
C1186 C 0.15876 0.48534 0.77108 0.0
C1187 C 0.14835 0.49288 0.83692 0.0
C1188 C 0.1578 0.48898 0.67317 0.0
C1189 C 0.13821 0.50538 0.80518 0.0
C1190 C 0.13687 0.5088 0.70771 0.0
C1191 C 0.14204 0.50063 0.54314 0.0
C1192 C 0.15028 0.49086 0.47728 0.0
C1193 C 0.14589 0.49996 0.64105 0.0
C1194 C 0.16366 0.48169 0.50902 0.0
C1195 C 0.16729 0.48063 0.6065 0.0
H1196 H 0.54871 0.70599 0.80005 0.0
H1197 H 0.51119 0.63394 0.86008 0.0
H1198 H 0.50442 0.6255 0.68932 0.0
H1199 H 0.51391 0.63874 0.52297 0.0
H1200 H 0.5495 0.71082 0.46288 0.0
H1201 H 0.55203 0.71932 0.63378 0.0
C1202 C 0.53855 0.6885 0.77542 0.0
C1203 C 0.53052 0.67056 0.8415 0.0
C1204 C 0.53458 0.68386 0.67752 0.0
C1205 C 0.51736 0.64795 0.80988 0.0
C1206 C 0.51366 0.64315 0.71245 0.0
C1207 C 0.52167 0.65627 0.5476 0.0
C1208 C 0.53166 0.67418 0.48134 0.0
C1209 C 0.52285 0.66095 0.64559 0.0
C1210 C 0.54161 0.69683 0.5131 0.0
C1211 C 0.54321 0.70167 0.61065 0.0
H1212 H 0.30082 0.47198 0.75375 0.0
H1213 H 0.37305 0.51113 0.80798 0.0
H1214 H 0.38042 0.51844 0.63689 0.0
H1215 H 0.36637 0.50858 0.47173 0.0
H1216 H 0.29409 0.47065 0.41716 0.0
H1217 H 0.28644 0.46829 0.58884 0.0
C1218 C 0.31809 0.48263 0.72783 0.0
C1219 C 0.33644 0.49096 0.7922 0.0
C1220 C 0.3221 0.4868 0.62976 0.0
C1221 C 0.35876 0.50472 0.75905 0.0
C1222 C 0.36294 0.50873 0.66144 0.0
C1223 C 0.34896 0.50042 0.49772 0.0
C1224 C 0.33078 0.48969 0.43286 0.0
C1225 C 0.34479 0.49916 0.59607 0.0
C1226 C 0.30827 0.47914 0.46631 0.0
C1227 C 0.30394 0.47761 0.56429 0.0
H1228 H 0.5086 0.8662 0.8455 0.0
H1229 H 0.55652 0.84196 0.85446 0.0
H1230 H 0.55466 0.8377 0.68144 0.0
H1231 H 0.54412 0.84654 0.52592 0.0
H1232 H 0.49847 0.87341 0.51456 0.0
H1233 H 0.49437 0.8707 0.68837 0.0
C1234 C 0.51803 0.85934 0.80949 0.0
C1235 C 0.53264 0.85435 0.86255 0.0
C1236 C 0.51745 0.85763 0.70892 0.0
C1237 C 0.54515 0.84589 0.81496 0.0
C1238 C 0.54418 0.84354 0.71592 0.0
C1239 C 0.53263 0.85097 0.56154 0.0
C1240 C 0.52126 0.85974 0.50784 0.0
C1241 C 0.53105 0.85014 0.66179 0.0
C1242 C 0.50701 0.86617 0.55468 0.0
C1243 C 0.50486 0.86485 0.65414 0.0
H1244 H 0.17369 0.70228 0.59582 0.0
H1245 H 0.11585 0.63457 0.56407 0.0
H1246 H 0.11463 0.62862 0.73575 0.0
H1247 H 0.12557 0.64516 0.89552 0.0
H1248 H 0.18317 0.71267 0.93151 0.0
H1249 H 0.1893 0.71622 0.7585 0.0
C1250 C 0.16141 0.68601 0.62668 0.0
C1251 C 0.14482 0.66889 0.5682 0.0
C1252 C 0.16058 0.68281 0.7263 0.0
C1253 C 0.12875 0.64794 0.60841 0.0
C1254 C 0.12795 0.64457 0.70648 0.0
C1255 C 0.13994 0.66027 0.86535 0.0
C1256 C 0.15395 0.67858 0.92514 0.0
C1257 C 0.14312 0.66222 0.76633 0.0
C1258 C 0.17238 0.69826 0.88616 0.0
C1259 C 0.17571 0.70038 0.78731 0.0
loop_
_geom_bond_atom_site_label_1
_geom_bond_atom_site_label_2
_geom_bond_distance
_geom_bond_site_symmetry_2
_ccdc_geom_bond_type
Sc0 O3 2.025 1_655 S
Sc0 O10 2.105 1_655 S
Sc0 O13 2.105 . S
Sc0 O16 2.105 . S
Sc0 O19 2.105 1_655 S
Sc1 O3 2.025 . S
Sc1 O11 2.105 . S
Sc1 O15 2.105 . S
Sc1 O17 2.105 1_455 S
Sc1 O21 2.105 . S
Sc2 O3 2.025 . S
Sc2 O12 2.105 . S
Sc2 O14 2.105 . S
Sc2 O18 2.105 . S
Sc2 O20 2.105 . S
O3 Sc0 2.025 1_455 S
O3 Sc1 2.025 . S
O3 Sc2 2.025 . S
C4 O10 1.268 . S
C4 O20 1.268 . S
C5 O11 1.268 . S
C5 O19 1.268 . S
C6 O12 1.268 . S
C6 O21 1.268 . S
C7 O13 1.268 . S
C7 O17 1.268 . S
C8 O14 1.268 1_655 S
C8 O16 1.268 . S
C9 O15 1.268 . S
C9 O18 1.268 . S
O10 Sc0 2.105 1_455 S
O10 C4 1.268 . S
O11 Sc1 2.105 . S
O11 C5 1.268 . S
O12 Sc2 2.105 . S
O12 C6 1.268 . S
O13 Sc0 2.105 . S
O13 C7 1.268 . S
O14 Sc2 2.105 . S
O14 C8 1.268 1_455 S
O15 Sc1 2.105 . S
O15 C9 1.268 . S
O16 Sc0 2.105 . S
O16 C8 1.268 . S
O17 Sc1 2.105 1_655 S
O17 C7 1.268 . S
O18 Sc2 2.105 . S
O18 C9 1.268 . S
O19 Sc0 2.105 1_455 S
O19 C5 1.268 . S
O20 Sc2 2.105 . S
O20 C4 1.268 . S
O21 Sc1 2.105 . S
O21 C6 1.268 . S
Sc22 O25 2.025 . S
Sc22 O32 2.105 . S
Sc22 O35 2.105 . S
Sc22 O38 2.105 . S
Sc22 O41 2.105 . S
Sc23 O25 2.025 . S
Sc23 O33 2.105 . S
Sc23 O37 2.105 . S
Sc23 O39 2.105 . S
Sc23 O43 2.105 . S
Sc24 O25 2.025 . S
Sc24 O34 2.105 . S
Sc24 O36 2.105 . S
Sc24 O40 2.105 . S
Sc24 O42 2.105 . S
O25 Sc22 2.025 . S
O25 Sc23 2.025 . S
O25 Sc24 2.025 . S
C26 O32 1.268 . S
C26 O42 1.268 . S
C27 O33 1.268 . S
C27 O41 1.268 . S
C28 O34 1.268 . S
C28 O43 1.268 . S
C29 O35 1.268 . S
C29 O39 1.268 . S
C30 O36 1.268 . S
C30 O38 1.268 . S
C31 O37 1.268 . S
C31 O40 1.268 . S
O32 Sc22 2.105 . S
O32 C26 1.268 . S
O33 Sc23 2.105 . S
O33 C27 1.268 . S
O34 Sc24 2.105 . S
O34 C28 1.268 . S
O35 Sc22 2.105 . S
O35 C29 1.268 . S
O36 Sc24 2.105 . S
O36 C30 1.268 . S
O37 Sc23 2.105 . S
O37 C31 1.268 . S
O38 Sc22 2.105 . S
O38 C30 1.268 . S
O39 Sc23 2.105 . S
O39 C29 1.268 . S
O40 Sc24 2.105 . S
O40 C31 1.268 . S
O41 Sc22 2.105 . S
O41 C27 1.268 . S
O42 Sc24 2.105 . S
O42 C26 1.268 . S
O43 Sc23 2.105 . S
O43 C28 1.268 . S
Sc44 O47 2.025 . S
Sc44 O54 2.105 . S
Sc44 O57 2.105 . S
Sc44 O60 2.105 . S
Sc44 O63 2.105 . S
Sc45 O47 2.025 . S
Sc45 O55 2.105 . S
Sc45 O59 2.105 . S
Sc45 O61 2.105 . S
Sc45 O65 2.105 1_545 S
Sc46 O47 2.025 1_565 S
Sc46 O56 2.105 . S
Sc46 O58 2.105 1_565 S
Sc46 O62 2.105 1_565 S
Sc46 O64 2.105 . S
O47 Sc44 2.025 . S
O47 Sc45 2.025 . S
O47 Sc46 2.025 1_545 S
C48 O54 1.268 1_565 S
C48 O64 1.268 . S
C49 O55 1.268 . S
C49 O63 1.268 . S
C50 O56 1.268 . S
C50 O65 1.268 . S
C51 O57 1.268 . S
C51 O61 1.268 . S
C52 O58 1.268 . S
C52 O60 1.268 . S
C53 O59 1.268 . S
C53 O62 1.268 . S
O54 Sc44 2.105 . S
O54 C48 1.268 1_545 S
O55 Sc45 2.105 . S
O55 C49 1.268 . S
O56 Sc46 2.105 . S
O56 C50 1.268 . S
O57 Sc44 2.105 . S
O57 C51 1.268 . S
O58 Sc46 2.105 1_545 S
O58 C52 1.268 . S
O59 Sc45 2.105 . S
O59 C53 1.268 . S
O60 Sc44 2.105 . S
O60 C52 1.268 . S
O61 Sc45 2.105 . S
O61 C51 1.268 . S
O62 Sc46 2.105 1_545 S
O62 C53 1.268 . S
O63 Sc44 2.105 . S
O63 C49 1.268 . S
O64 Sc46 2.105 . S
O64 C48 1.268 . S
O65 Sc45 2.105 1_565 S
O65 C50 1.268 . S
Sc66 O69 2.025 . S
Sc66 O76 2.105 . S
Sc66 O79 2.105 . S
Sc66 O82 2.105 . S
Sc66 O85 2.105 . S
Sc67 O69 2.025 . S
Sc67 O77 2.105 . S
Sc67 O81 2.105 1_455 S
Sc67 O83 2.105 . S
Sc67 O87 2.105 . S
Sc68 O69 2.025 1_655 S
Sc68 O78 2.105 1_655 S
Sc68 O80 2.105 . S
Sc68 O84 2.105 . S
Sc68 O86 2.105 1_655 S
O69 Sc66 2.025 . S
O69 Sc67 2.025 . S
O69 Sc68 2.025 1_455 S
C70 O76 1.268 . S
C70 O86 1.268 . S
C71 O77 1.268 . S
C71 O85 1.268 . S
C72 O78 1.268 . S
C72 O87 1.268 . S
C73 O79 1.268 . S
C73 O83 1.268 . S
C74 O80 1.268 . S
C74 O82 1.268 1_655 S
C75 O81 1.268 . S
C75 O84 1.268 . S
O76 Sc66 2.105 . S
O76 C70 1.268 . S
O77 Sc67 2.105 . S
O77 C71 1.268 . S
O78 Sc68 2.105 1_455 S
O78 C72 1.268 . S
O79 Sc66 2.105 . S
O79 C73 1.268 . S
O80 Sc68 2.105 . S
O80 C74 1.268 . S
O81 Sc67 2.105 1_655 S
O81 C75 1.268 . S
O82 Sc66 2.105 . S
O82 C74 1.268 1_455 S
O83 Sc67 2.105 . S
O83 C73 1.268 . S
O84 Sc68 2.105 . S
O84 C75 1.268 . S
O85 Sc66 2.105 . S
O85 C71 1.268 . S
O86 Sc68 2.105 1_455 S
O86 C70 1.268 . S
O87 Sc67 2.105 . S
O87 C72 1.268 . S
Sc88 O91 2.025 . S
Sc88 O98 2.105 . S
Sc88 O101 2.105 . S
Sc88 O104 2.105 . S
Sc88 O107 2.105 . S
Sc89 O91 2.025 . S
Sc89 O99 2.105 . S
Sc89 O103 2.105 . S
Sc89 O105 2.105 . S
Sc89 O109 2.105 . S
Sc90 O91 2.025 . S
Sc90 O100 2.105 . S
Sc90 O102 2.105 . S
Sc90 O106 2.105 . S
Sc90 O108 2.105 . S
O91 Sc88 2.025 . S
O91 Sc89 2.025 . S
O91 Sc90 2.025 . S
C92 O98 1.268 . S
C92 O108 1.268 . S
C93 O99 1.268 . S
C93 O107 1.268 . S
C94 O100 1.268 . S
C94 O109 1.268 . S
C95 O101 1.268 . S
C95 O105 1.268 . S
C96 O102 1.268 . S
C96 O104 1.268 . S
C97 O103 1.268 . S
C97 O106 1.268 . S
O98 Sc88 2.105 . S
O98 C92 1.268 . S
O99 Sc89 2.105 . S
O99 C93 1.268 . S
O100 Sc90 2.105 . S
O100 C94 1.268 . S
O101 Sc88 2.105 . S
O101 C95 1.268 . S
O102 Sc90 2.105 . S
O102 C96 1.268 . S
O103 Sc89 2.105 . S
O103 C97 1.268 . S
O104 Sc88 2.105 . S
O104 C96 1.268 . S
O105 Sc89 2.105 . S
O105 C95 1.268 . S
O106 Sc90 2.105 . S
O106 C97 1.268 . S
O107 Sc88 2.105 . S
O107 C93 1.268 . S
O108 Sc90 2.105 . S
O108 C92 1.268 . S
O109 Sc89 2.105 . S
O109 C94 1.268 . S
Sc110 O113 2.025 1_565 S
Sc110 O120 2.105 . S
Sc110 O123 2.105 1_565 S
Sc110 O126 2.105 1_565 S
Sc110 O129 2.105 . S
Sc111 O113 2.025 . S
Sc111 O121 2.105 1_545 S
Sc111 O125 2.105 . S
Sc111 O127 2.105 . S
Sc111 O131 2.105 . S
Sc112 O113 2.025 . S
Sc112 O122 2.105 . S
Sc112 O124 2.105 . S
Sc112 O128 2.105 . S
Sc112 O130 2.105 . S
O113 Sc110 2.025 1_545 S
O113 Sc111 2.025 . S
O113 Sc112 2.025 . S
C114 O120 1.268 . S
C114 O130 1.268 1_565 S
C115 O121 1.268 . S
C115 O129 1.268 . S
C116 O122 1.268 . S
C116 O131 1.268 . S
C117 O123 1.268 . S
C117 O127 1.268 . S
C118 O124 1.268 . S
C118 O126 1.268 . S
C119 O125 1.268 . S
C119 O128 1.268 . S
O120 Sc110 2.105 . S
O120 C114 1.268 . S
O121 Sc111 2.105 1_565 S
O121 C115 1.268 . S
O122 Sc112 2.105 . S
O122 C116 1.268 . S
O123 Sc110 2.105 1_545 S
O123 C117 1.268 . S
O124 Sc112 2.105 . S
O124 C118 1.268 . S
O125 Sc111 2.105 . S
O125 C119 1.268 . S
O126 Sc110 2.105 1_545 S
O126 C118 1.268 . S
O127 Sc111 2.105 . S
O127 C117 1.268 . S
O128 Sc112 2.105 . S
O128 C119 1.268 . S
O129 Sc110 2.105 . S
O129 C115 1.268 . S
O130 Sc112 2.105 . S
O130 C114 1.268 1_545 S
O131 Sc111 2.105 . S
O131 C116 1.268 . S
Sc132 O135 2.025 . S
Sc132 O142 2.105 . S
Sc132 O145 2.105 . S
Sc132 O148 2.105 . S
Sc132 O151 2.105 . S
Sc133 O135 2.025 . S
Sc133 O143 2.105 . S
Sc133 O147 2.105 . S
Sc133 O149 2.105 . S
Sc133 O153 2.105 . S
Sc134 O135 2.025 . S
Sc134 O144 2.105 . S
Sc134 O146 2.105 . S
Sc134 O150 2.105 1_556 S
Sc134 O152 2.105 . S
O135 Sc132 2.025 . S
O135 Sc133 2.025 . S
O135 Sc134 2.025 . S
C136 O142 1.268 . S
C136 O152 1.268 . S
C137 O143 1.268 . S
C137 O151 1.268 . S
C138 O144 1.268 . S
C138 O153 1.268 . S
C139 O145 1.268 . S
C139 O149 1.268 . S
C140 O146 1.268 . S
C140 O148 1.268 . S
C141 O147 1.268 1_554 S
C141 O150 1.268 . S
O142 Sc132 2.105 . S
O142 C136 1.268 . S
O143 Sc133 2.105 . S
O143 C137 1.268 . S
O144 Sc134 2.105 . S
O144 C138 1.268 . S
O145 Sc132 2.105 . S
O145 C139 1.268 . S
O146 Sc134 2.105 . S
O146 C140 1.268 . S
O147 Sc133 2.105 . S
O147 C141 1.268 1_556 S
O148 Sc132 2.105 . S
O148 C140 1.268 . S
O149 Sc133 2.105 . S
O149 C139 1.268 . S
O150 Sc134 2.105 1_554 S
O150 C141 1.268 . S
O151 Sc132 2.105 . S
O151 C137 1.268 . S
O152 Sc134 2.105 . S
O152 C136 1.268 . S
O153 Sc133 2.105 . S
O153 C138 1.268 . S
Sc154 O157 2.025 . S
Sc154 O164 2.105 . S
Sc154 O167 2.105 . S
Sc154 O170 2.105 . S
Sc154 O173 2.105 . S
Sc155 O157 2.025 . S
Sc155 O165 2.105 . S
Sc155 O169 2.105 . S
Sc155 O171 2.105 . S
Sc155 O175 2.105 . S
Sc156 O157 2.025 . S
Sc156 O166 2.105 . S
Sc156 O168 2.105 . S
Sc156 O172 2.105 1_556 S
Sc156 O174 2.105 . S
O157 Sc154 2.025 . S
O157 Sc155 2.025 . S
O157 Sc156 2.025 . S
C158 O164 1.268 . S
C158 O174 1.268 . S
C159 O165 1.268 . S
C159 O173 1.268 . S
C160 O166 1.268 . S
C160 O175 1.268 . S
C161 O167 1.268 . S
C161 O171 1.268 . S
C162 O168 1.268 . S
C162 O170 1.268 . S
C163 O169 1.268 1_554 S
C163 O172 1.268 . S
O164 Sc154 2.105 . S
O164 C158 1.268 . S
O165 Sc155 2.105 . S
O165 C159 1.268 . S
O166 Sc156 2.105 . S
O166 C160 1.268 . S
O167 Sc154 2.105 . S
O167 C161 1.268 . S
O168 Sc156 2.105 . S
O168 C162 1.268 . S
O169 Sc155 2.105 . S
O169 C163 1.268 1_556 S
O170 Sc154 2.105 . S
O170 C162 1.268 . S
O171 Sc155 2.105 . S
O171 C161 1.268 . S
O172 Sc156 2.105 1_554 S
O172 C163 1.268 . S
O173 Sc154 2.105 . S
O173 C159 1.268 . S
O174 Sc156 2.105 . S
O174 C158 1.268 . S
O175 Sc155 2.105 . S
O175 C160 1.268 . S
Sc176 O179 2.025 . S
Sc176 O186 2.105 . S
Sc176 O189 2.105 . S
Sc176 O192 2.105 . S
Sc176 O195 2.105 . S
Sc177 O179 2.025 . S
Sc177 O187 2.105 . S
Sc177 O191 2.105 . S
Sc177 O193 2.105 . S
Sc177 O197 2.105 . S
Sc178 O179 2.025 . S
Sc178 O188 2.105 . S
Sc178 O190 2.105 . S
Sc178 O194 2.105 1_556 S
Sc178 O196 2.105 . S
O179 Sc176 2.025 . S
O179 Sc177 2.025 . S
O179 Sc178 2.025 . S
C180 O186 1.268 . S
C180 O196 1.268 . S
C181 O187 1.268 . S
C181 O195 1.268 . S
C182 O188 1.268 . S
C182 O197 1.268 . S
C183 O189 1.268 . S
C183 O193 1.268 . S
C184 O190 1.268 . S
C184 O192 1.268 . S
C185 O191 1.268 1_554 S
C185 O194 1.268 . S
O186 Sc176 2.105 . S
O186 C180 1.268 . S
O187 Sc177 2.105 . S
O187 C181 1.268 . S
O188 Sc178 2.105 . S
O188 C182 1.268 . S
O189 Sc176 2.105 . S
O189 C183 1.268 . S
O190 Sc178 2.105 . S
O190 C184 1.268 . S
O191 Sc177 2.105 . S
O191 C185 1.268 1_556 S
O192 Sc176 2.105 . S
O192 C184 1.268 . S
O193 Sc177 2.105 . S
O193 C183 1.268 . S
O194 Sc178 2.105 1_554 S
O194 C185 1.268 . S
O195 Sc176 2.105 . S
O195 C181 1.268 . S
O196 Sc178 2.105 . S
O196 C180 1.268 . S
O197 Sc177 2.105 . S
O197 C182 1.268 . S
Sc198 O201 2.025 . S
Sc198 O208 2.105 . S
Sc198 O211 2.105 1_556 S
Sc198 O214 2.105 . S
Sc198 O217 2.105 . S
Sc199 O201 2.025 . S
Sc199 O209 2.105 . S
Sc199 O213 2.105 . S
Sc199 O215 2.105 . S
Sc199 O219 2.105 . S
Sc200 O201 2.025 . S
Sc200 O210 2.105 . S
Sc200 O212 2.105 . S
Sc200 O216 2.105 . S
Sc200 O218 2.105 . S
O201 Sc198 2.025 . S
O201 Sc199 2.025 . S
O201 Sc200 2.025 . S
C202 O208 1.268 . S
C202 O218 1.268 . S
C203 O209 1.268 . S
C203 O217 1.268 . S
C204 O210 1.268 . S
C204 O219 1.268 . S
C205 O211 1.268 . S
C205 O215 1.268 1_554 S
C206 O212 1.268 . S
C206 O214 1.268 . S
C207 O213 1.268 . S
C207 O216 1.268 . S
O208 Sc198 2.105 . S
O208 C202 1.268 . S
O209 Sc199 2.105 . S
O209 C203 1.268 . S
O210 Sc200 2.105 . S
O210 C204 1.268 . S
O211 Sc198 2.105 1_554 S
O211 C205 1.268 . S
O212 Sc200 2.105 . S
O212 C206 1.268 . S
O213 Sc199 2.105 . S
O213 C207 1.268 . S
O214 Sc198 2.105 . S
O214 C206 1.268 . S
O215 Sc199 2.105 . S
O215 C205 1.268 1_556 S
O216 Sc200 2.105 . S
O216 C207 1.268 . S
O217 Sc198 2.105 . S
O217 C203 1.268 . S
O218 Sc200 2.105 . S
O218 C202 1.268 . S
O219 Sc199 2.105 . S
O219 C204 1.268 . S
Sc220 O223 2.025 . S
Sc220 O230 2.105 . S
Sc220 O233 2.105 1_556 S
Sc220 O236 2.105 . S
Sc220 O239 2.105 . S
Sc221 O223 2.025 . S
Sc221 O231 2.105 . S
Sc221 O235 2.105 . S
Sc221 O237 2.105 . S
Sc221 O241 2.105 . S
Sc222 O223 2.025 . S
Sc222 O232 2.105 . S
Sc222 O234 2.105 . S
Sc222 O238 2.105 . S
Sc222 O240 2.105 . S
O223 Sc220 2.025 . S
O223 Sc221 2.025 . S
O223 Sc222 2.025 . S
C224 O230 1.268 . S
C224 O240 1.268 . S
C225 O231 1.268 . S
C225 O239 1.268 . S
C226 O232 1.268 . S
C226 O241 1.268 . S
C227 O233 1.268 . S
C227 O237 1.268 1_554 S
C228 O234 1.268 . S
C228 O236 1.268 . S
C229 O235 1.268 . S
C229 O238 1.268 . S
O230 Sc220 2.105 . S
O230 C224 1.268 . S
O231 Sc221 2.105 . S
O231 C225 1.268 . S
O232 Sc222 2.105 . S
O232 C226 1.268 . S
O233 Sc220 2.105 1_554 S
O233 C227 1.268 . S
O234 Sc222 2.105 . S
O234 C228 1.268 . S
O235 Sc221 2.105 . S
O235 C229 1.268 . S
O236 Sc220 2.105 . S
O236 C228 1.268 . S
O237 Sc221 2.105 . S
O237 C227 1.268 1_556 S
O238 Sc222 2.105 . S
O238 C229 1.268 . S
O239 Sc220 2.105 . S
O239 C225 1.268 . S
O240 Sc222 2.105 . S
O240 C224 1.268 . S
O241 Sc221 2.105 . S
O241 C226 1.268 . S
Sc242 O245 2.025 . S
Sc242 O252 2.105 . S
Sc242 O255 2.105 1_556 S
Sc242 O258 2.105 . S
Sc242 O261 2.105 . S
Sc243 O245 2.025 . S
Sc243 O253 2.105 . S
Sc243 O257 2.105 . S
Sc243 O259 2.105 . S
Sc243 O263 2.105 . S
Sc244 O245 2.025 . S
Sc244 O254 2.105 . S
Sc244 O256 2.105 . S
Sc244 O260 2.105 . S
Sc244 O262 2.105 . S
O245 Sc242 2.025 . S
O245 Sc243 2.025 . S
O245 Sc244 2.025 . S
C246 O252 1.268 . S
C246 O262 1.268 . S
C247 O253 1.268 . S
C247 O261 1.268 . S
C248 O254 1.268 . S
C248 O263 1.268 . S
C249 O255 1.268 . S
C249 O259 1.268 1_554 S
C250 O256 1.268 . S
C250 O258 1.268 . S
C251 O257 1.268 . S
C251 O260 1.268 . S
O252 Sc242 2.105 . S
O252 C246 1.268 . S
O253 Sc243 2.105 . S
O253 C247 1.268 . S
O254 Sc244 2.105 . S
O254 C248 1.268 . S
O255 Sc242 2.105 1_554 S
O255 C249 1.268 . S
O256 Sc244 2.105 . S
O256 C250 1.268 . S
O257 Sc243 2.105 . S
O257 C251 1.268 . S
O258 Sc242 2.105 . S
O258 C250 1.268 . S
O259 Sc243 2.105 . S
O259 C249 1.268 1_556 S
O260 Sc244 2.105 . S
O260 C251 1.268 . S
O261 Sc242 2.105 . S
O261 C247 1.268 . S
O262 Sc244 2.105 . S
O262 C246 1.268 . S
O263 Sc243 2.105 . S
O263 C248 1.268 . S
Sc264 O267 2.025 . S
Sc264 O274 2.105 . S
Sc264 O277 2.105 . S
Sc264 O280 2.105 . S
Sc264 O283 2.105 1_554 S
Sc265 O267 2.025 . S
Sc265 O275 2.105 . S
Sc265 O279 2.105 . S
Sc265 O281 2.105 . S
Sc265 O285 2.105 . S
Sc266 O267 2.025 . S
Sc266 O276 2.105 . S
Sc266 O278 2.105 . S
Sc266 O282 2.105 . S
Sc266 O284 2.105 . S
O267 Sc264 2.025 . S
O267 Sc265 2.025 . S
O267 Sc266 2.025 . S
C268 O274 1.268 . S
C268 O284 1.268 . S
C269 O275 1.268 1_556 S
C269 O283 1.268 . S
C270 O276 1.268 . S
C270 O285 1.268 . S
C271 O277 1.268 . S
C271 O281 1.268 . S
C272 O278 1.268 . S
C272 O280 1.268 . S
C273 O279 1.268 . S
C273 O282 1.268 . S
O274 Sc264 2.105 . S
O274 C268 1.268 . S
O275 Sc265 2.105 . S
O275 C269 1.268 1_554 S
O276 Sc266 2.105 . S
O276 C270 1.268 . S
O277 Sc264 2.105 . S
O277 C271 1.268 . S
O278 Sc266 2.105 . S
O278 C272 1.268 . S
O279 Sc265 2.105 . S
O279 C273 1.268 . S
O280 Sc264 2.105 . S
O280 C272 1.268 . S
O281 Sc265 2.105 . S
O281 C271 1.268 . S
O282 Sc266 2.105 . S
O282 C273 1.268 . S
O283 Sc264 2.105 1_556 S
O283 C269 1.268 . S
O284 Sc266 2.105 . S
O284 C268 1.268 . S
O285 Sc265 2.105 . S
O285 C270 1.268 . S
Sc286 O289 2.025 . S
Sc286 O296 2.105 . S
Sc286 O299 2.105 . S
Sc286 O302 2.105 . S
Sc286 O305 2.105 1_554 S
Sc287 O289 2.025 . S
Sc287 O297 2.105 . S
Sc287 O301 2.105 . S
Sc287 O303 2.105 . S
Sc287 O307 2.105 . S
Sc288 O289 2.025 . S
Sc288 O298 2.105 . S
Sc288 O300 2.105 . S
Sc288 O304 2.105 . S
Sc288 O306 2.105 . S
O289 Sc286 2.025 . S
O289 Sc287 2.025 . S
O289 Sc288 2.025 . S
C290 O296 1.268 . S
C290 O306 1.268 . S
C291 O297 1.268 1_556 S
C291 O305 1.268 . S
C292 O298 1.268 . S
C292 O307 1.268 . S
C293 O299 1.268 . S
C293 O303 1.268 . S
C294 O300 1.268 . S
C294 O302 1.268 . S
C295 O301 1.268 . S
C295 O304 1.268 . S
O296 Sc286 2.105 . S
O296 C290 1.268 . S
O297 Sc287 2.105 . S
O297 C291 1.268 1_554 S
O298 Sc288 2.105 . S
O298 C292 1.268 . S
O299 Sc286 2.105 . S
O299 C293 1.268 . S
O300 Sc288 2.105 . S
O300 C294 1.268 . S
O301 Sc287 2.105 . S
O301 C295 1.268 . S
O302 Sc286 2.105 . S
O302 C294 1.268 . S
O303 Sc287 2.105 . S
O303 C293 1.268 . S
O304 Sc288 2.105 . S
O304 C295 1.268 . S
O305 Sc286 2.105 1_556 S
O305 C291 1.268 . S
O306 Sc288 2.105 . S
O306 C290 1.268 . S
O307 Sc287 2.105 . S
O307 C292 1.268 . S
Sc308 O311 2.025 . S
Sc308 O318 2.105 . S
Sc308 O321 2.105 . S
Sc308 O324 2.105 . S
Sc308 O327 2.105 1_554 S
Sc309 O311 2.025 . S
Sc309 O319 2.105 . S
Sc309 O323 2.105 . S
Sc309 O325 2.105 . S
Sc309 O329 2.105 . S
Sc310 O311 2.025 . S
Sc310 O320 2.105 . S
Sc310 O322 2.105 . S
Sc310 O326 2.105 . S
Sc310 O328 2.105 . S
O311 Sc308 2.025 . S
O311 Sc309 2.025 . S
O311 Sc310 2.025 . S
C312 O318 1.268 . S
C312 O328 1.268 . S
C313 O319 1.268 1_556 S
C313 O327 1.268 . S
C314 O320 1.268 . S
C314 O329 1.268 . S
C315 O321 1.268 . S
C315 O325 1.268 . S
C316 O322 1.268 . S
C316 O324 1.268 . S
C317 O323 1.268 . S
C317 O326 1.268 . S
O318 Sc308 2.105 . S
O318 C312 1.268 . S
O319 Sc309 2.105 . S
O319 C313 1.268 1_554 S
O320 Sc310 2.105 . S
O320 C314 1.268 . S
O321 Sc308 2.105 . S
O321 C315 1.268 . S
O322 Sc310 2.105 . S
O322 C316 1.268 . S
O323 Sc309 2.105 . S
O323 C317 1.268 . S
O324 Sc308 2.105 . S
O324 C316 1.268 . S
O325 Sc309 2.105 . S
O325 C315 1.268 . S
O326 Sc310 2.105 . S
O326 C317 1.268 . S
O327 Sc308 2.105 1_556 S
O327 C313 1.268 . S
O328 Sc310 2.105 . S
O328 C312 1.268 . S
O329 Sc309 2.105 . S
O329 C314 1.268 . S
Sc330 O333 2.025 . S
Sc330 O340 2.105 . S
Sc330 O343 2.105 . S
Sc330 O346 2.105 . S
Sc330 O349 2.105 . S
Sc331 O333 2.025 . S
Sc331 O341 2.105 . S
Sc331 O345 2.105 . S
Sc331 O347 2.105 . S
Sc331 O351 2.105 . S
Sc332 O333 2.025 . S
Sc332 O342 2.105 1_554 S
Sc332 O344 2.105 . S
Sc332 O348 2.105 . S
Sc332 O350 2.105 . S
O333 Sc330 2.025 . S
O333 Sc331 2.025 . S
O333 Sc332 2.025 . S
C334 O340 1.268 . S
C334 O350 1.268 . S
C335 O341 1.268 . S
C335 O349 1.268 . S
C336 O342 1.268 . S
C336 O351 1.268 1_556 S
C337 O343 1.268 . S
C337 O347 1.268 . S
C338 O344 1.268 . S
C338 O346 1.268 . S
C339 O345 1.268 . S
C339 O348 1.268 . S
O340 Sc330 2.105 . S
O340 C334 1.268 . S
O341 Sc331 2.105 . S
O341 C335 1.268 . S
O342 Sc332 2.105 1_556 S
O342 C336 1.268 . S
O343 Sc330 2.105 . S
O343 C337 1.268 . S
O344 Sc332 2.105 . S
O344 C338 1.268 . S
O345 Sc331 2.105 . S
O345 C339 1.268 . S
O346 Sc330 2.105 . S
O346 C338 1.268 . S
O347 Sc331 2.105 . S
O347 C337 1.268 . S
O348 Sc332 2.105 . S
O348 C339 1.268 . S
O349 Sc330 2.105 . S
O349 C335 1.268 . S
O350 Sc332 2.105 . S
O350 C334 1.268 . S
O351 Sc331 2.105 . S
O351 C336 1.268 1_554 S
Sc352 O355 2.025 . S
Sc352 O362 2.105 . S
Sc352 O365 2.105 . S
Sc352 O368 2.105 . S
Sc352 O371 2.105 . S
Sc353 O355 2.025 . S
Sc353 O363 2.105 . S
Sc353 O367 2.105 . S
Sc353 O369 2.105 . S
Sc353 O373 2.105 . S
Sc354 O355 2.025 . S
Sc354 O364 2.105 1_554 S
Sc354 O366 2.105 . S
Sc354 O370 2.105 . S
Sc354 O372 2.105 . S
O355 Sc352 2.025 . S
O355 Sc353 2.025 . S
O355 Sc354 2.025 . S
C356 O362 1.268 . S
C356 O372 1.268 . S
C357 O363 1.268 . S
C357 O371 1.268 . S
C358 O364 1.268 . S
C358 O373 1.268 1_556 S
C359 O365 1.268 . S
C359 O369 1.268 . S
C360 O366 1.268 . S
C360 O368 1.268 . S
C361 O367 1.268 . S
C361 O370 1.268 . S
O362 Sc352 2.105 . S
O362 C356 1.268 . S
O363 Sc353 2.105 . S
O363 C357 1.268 . S
O364 Sc354 2.105 1_556 S
O364 C358 1.268 . S
O365 Sc352 2.105 . S
O365 C359 1.268 . S
O366 Sc354 2.105 . S
O366 C360 1.268 . S
O367 Sc353 2.105 . S
O367 C361 1.268 . S
O368 Sc352 2.105 . S
O368 C360 1.268 . S
O369 Sc353 2.105 . S
O369 C359 1.268 . S
O370 Sc354 2.105 . S
O370 C361 1.268 . S
O371 Sc352 2.105 . S
O371 C357 1.268 . S
O372 Sc354 2.105 . S
O372 C356 1.268 . S
O373 Sc353 2.105 . S
O373 C358 1.268 1_554 S
Sc374 O377 2.025 . S
Sc374 O384 2.105 . S
Sc374 O387 2.105 . S
Sc374 O390 2.105 . S
Sc374 O393 2.105 . S
Sc375 O377 2.025 . S
Sc375 O385 2.105 . S
Sc375 O389 2.105 . S
Sc375 O391 2.105 . S
Sc375 O395 2.105 . S
Sc376 O377 2.025 . S
Sc376 O386 2.105 1_554 S
Sc376 O388 2.105 . S
Sc376 O392 2.105 . S
Sc376 O394 2.105 . S
O377 Sc374 2.025 . S
O377 Sc375 2.025 . S
O377 Sc376 2.025 . S
C378 O384 1.268 . S
C378 O394 1.268 . S
C379 O385 1.268 . S
C379 O393 1.268 . S
C380 O386 1.268 . S
C380 O395 1.268 1_556 S
C381 O387 1.268 . S
C381 O391 1.268 . S
C382 O388 1.268 . S
C382 O390 1.268 . S
C383 O389 1.268 . S
C383 O392 1.268 . S
O384 Sc374 2.105 . S
O384 C378 1.268 . S
O385 Sc375 2.105 . S
O385 C379 1.268 . S
O386 Sc376 2.105 1_556 S
O386 C380 1.268 . S
O387 Sc374 2.105 . S
O387 C381 1.268 . S
O388 Sc376 2.105 . S
O388 C382 1.268 . S
O389 Sc375 2.105 . S
O389 C383 1.268 . S
O390 Sc374 2.105 . S
O390 C382 1.268 . S
O391 Sc375 2.105 . S
O391 C381 1.268 . S
O392 Sc376 2.105 . S
O392 C383 1.268 . S
O393 Sc374 2.105 . S
O393 C379 1.268 . S
O394 Sc376 2.105 . S
O394 C378 1.268 . S
O395 Sc375 2.105 . S
O395 C380 1.268 1_554 S
H396 C402 0.930 . S
H397 C405 0.930 . S
H398 C406 0.930 . S
H399 C407 0.930 . S
H400 C410 0.930 . S
H401 C411 0.930 . S
C402 H396 0.930 . S
C402 C403 1.355 . S
C402 C404 1.415 . S
C403 C402 1.355 . S
C403 C405 1.419 . S
C404 C402 1.415 . S
C404 C409 1.425 . S
C404 C411 1.409 . S
C405 H397 0.930 . S
C405 C403 1.419 . S
C405 C406 1.362 . S
C406 H398 0.930 . S
C406 C405 1.362 . S
C406 C409 1.409 . S
C407 H399 0.930 . S
C407 C408 1.355 . S
C407 C409 1.415 . S
C408 C407 1.355 . S
C408 C410 1.419 . S
C409 C404 1.425 . S
C409 C406 1.409 . S
C409 C407 1.415 . S
C410 H400 0.930 . S
C410 C408 1.419 . S
C410 C411 1.362 . S
C411 H401 0.930 . S
C411 C404 1.409 . S
C411 C410 1.362 . S
H412 C418 0.930 . S
H413 C421 0.930 . S
H414 C422 0.930 . S
H415 C423 0.930 . S
H416 C426 0.930 . S
H417 C427 0.930 . S
C418 H412 0.930 . S
C418 C419 1.355 . S
C418 C420 1.415 . S
C419 C418 1.355 . S
C419 C421 1.419 . S
C420 C418 1.415 . S
C420 C425 1.425 . S
C420 C427 1.409 . S
C421 H413 0.930 . S
C421 C419 1.419 . S
C421 C422 1.362 . S
C422 H414 0.930 . S
C422 C421 1.362 . S
C422 C425 1.409 . S
C423 H415 0.930 . S
C423 C424 1.355 . S
C423 C425 1.415 . S
C424 C423 1.355 . S
C424 C426 1.419 . S
C425 C420 1.425 . S
C425 C422 1.409 . S
C425 C423 1.415 . S
C426 H416 0.930 . S
C426 C424 1.419 . S
C426 C427 1.362 . S
C427 H417 0.930 . S
C427 C420 1.409 . S
C427 C426 1.362 . S
H428 C434 0.930 . S
H429 C437 0.930 . S
H430 C438 0.930 . S
H431 C439 0.930 . S
H432 C442 0.930 . S
H433 C443 0.930 . S
C434 H428 0.930 . S
C434 C435 1.355 . S
C434 C436 1.415 . S
C435 C434 1.355 . S
C435 C437 1.419 . S
C436 C434 1.415 . S
C436 C441 1.425 . S
C436 C443 1.409 . S
C437 H429 0.930 . S
C437 C435 1.419 . S
C437 C438 1.362 . S
C438 H430 0.930 . S
C438 C437 1.362 . S
C438 C441 1.409 . S
C439 H431 0.930 . S
C439 C440 1.355 . S
C439 C441 1.415 . S
C440 C439 1.355 . S
C440 C442 1.419 . S
C441 C436 1.425 . S
C441 C438 1.409 . S
C441 C439 1.415 . S
C442 H432 0.930 . S
C442 C440 1.419 . S
C442 C443 1.362 . S
C443 H433 0.930 . S
C443 C436 1.409 . S
C443 C442 1.362 . S
H444 C450 0.930 . S
H445 C453 0.930 . S
H446 C454 0.930 . S
H447 C455 0.930 . S
H448 C458 0.930 . S
H449 C459 0.930 . S
C450 H444 0.930 . S
C450 C451 1.355 . S
C450 C452 1.415 . S
C451 C450 1.355 . S
C451 C453 1.419 . S
C452 C450 1.415 . S
C452 C457 1.425 . S
C452 C459 1.409 . S
C453 H445 0.930 . S
C453 C451 1.419 . S
C453 C454 1.362 . S
C454 H446 0.930 . S
C454 C453 1.362 . S
C454 C457 1.409 . S
C455 H447 0.930 . S
C455 C456 1.355 . S
C455 C457 1.415 . S
C456 C455 1.355 . S
C456 C458 1.419 . S
C457 C452 1.425 . S
C457 C454 1.409 . S
C457 C455 1.415 . S
C458 H448 0.930 . S
C458 C456 1.419 . S
C458 C459 1.362 . S
C459 H449 0.930 . S
C459 C452 1.409 . S
C459 C458 1.362 . S
H460 C466 0.930 . S
H461 C469 0.930 . S
H462 C470 0.930 . S
H463 C471 0.930 . S
H464 C474 0.930 1_455 S
H465 C475 0.930 . S
C466 H460 0.930 . S
C466 C467 1.355 . S
C466 C468 1.415 . S
C467 C466 1.355 . S
C467 C469 1.419 . S
C468 C466 1.415 . S
C468 C473 1.425 . S
C468 C475 1.409 . S
C469 H461 0.930 . S
C469 C467 1.419 . S
C469 C470 1.362 . S
C470 H462 0.930 . S
C470 C469 1.362 . S
C470 C473 1.409 . S
C471 H463 0.930 . S
C471 C472 1.355 . S
C471 C473 1.415 . S
C472 C471 1.355 . S
C472 C474 1.419 . S
C473 C468 1.425 . S
C473 C470 1.409 . S
C473 C471 1.415 . S
C474 H464 0.930 1_655 S
C474 C472 1.419 . S
C474 C475 1.362 . S
C475 H465 0.930 . S
C475 C468 1.409 . S
C475 C474 1.362 . S
H476 C482 0.930 . S
H477 C485 0.930 . S
H478 C486 0.930 . S
H479 C487 0.930 . S
H480 C490 0.930 . S
H481 C491 0.930 . S
C482 H476 0.930 . S
C482 C483 1.355 . S
C482 C484 1.415 . S
C483 C482 1.355 . S
C483 C485 1.419 . S
C484 C482 1.415 . S
C484 C489 1.425 . S
C484 C491 1.409 . S
C485 H477 0.930 . S
C485 C483 1.419 . S
C485 C486 1.362 . S
C486 H478 0.930 . S
C486 C485 1.362 . S
C486 C489 1.409 . S
C487 H479 0.930 . S
C487 C488 1.355 . S
C487 C489 1.415 . S
C488 C487 1.355 . S
C488 C490 1.419 . S
C489 C484 1.425 . S
C489 C486 1.409 . S
C489 C487 1.415 . S
C490 H480 0.930 . S
C490 C488 1.419 . S
C490 C491 1.362 . S
C491 H481 0.930 . S
C491 C484 1.409 . S
C491 C490 1.362 . S
H492 C498 0.930 . S
H493 C501 0.930 . S
H494 C502 0.930 . S
H495 C503 0.930 . S
H496 C506 0.930 . S
H497 C507 0.930 . S
C498 H492 0.930 . S
C498 C499 1.355 . S
C498 C500 1.415 . S
C499 C498 1.355 . S
C499 C501 1.419 . S
C500 C498 1.415 . S
C500 C505 1.425 . S
C500 C507 1.409 . S
C501 H493 0.930 . S
C501 C499 1.419 . S
C501 C502 1.362 . S
C502 H494 0.930 . S
C502 C501 1.362 . S
C502 C505 1.409 . S
C503 H495 0.930 . S
C503 C504 1.355 . S
C503 C505 1.415 . S
C504 C503 1.355 . S
C504 C506 1.419 . S
C505 C500 1.425 . S
C505 C502 1.409 . S
C505 C503 1.415 . S
C506 H496 0.930 . S
C506 C504 1.419 . S
C506 C507 1.362 . S
C507 H497 0.930 . S
C507 C500 1.409 . S
C507 C506 1.362 . S
H508 C514 0.930 . S
H509 C517 0.930 . S
H510 C518 0.930 . S
H511 C519 0.930 . S
H512 C522 0.930 . S
H513 C523 0.930 . S
C514 H508 0.930 . S
C514 C515 1.355 . S
C514 C516 1.415 . S
C515 C514 1.355 . S
C515 C517 1.419 . S
C516 C514 1.415 . S
C516 C521 1.425 . S
C516 C523 1.409 . S
C517 H509 0.930 . S
C517 C515 1.419 . S
C517 C518 1.362 . S
C518 H510 0.930 . S
C518 C517 1.362 . S
C518 C521 1.409 . S
C519 H511 0.930 . S
C519 C520 1.355 . S
C519 C521 1.415 . S
C520 C519 1.355 . S
C520 C522 1.419 . S
C521 C516 1.425 . S
C521 C518 1.409 . S
C521 C519 1.415 . S
C522 H512 0.930 . S
C522 C520 1.419 . S
C522 C523 1.362 . S
C523 H513 0.930 . S
C523 C516 1.409 . S
C523 C522 1.362 . S
H524 C530 0.930 . S
H525 C533 0.930 . S
H526 C534 0.930 . S
H527 C535 0.930 . S
H528 C538 0.930 . S
H529 C539 0.930 . S
C530 H524 0.930 . S
C530 C531 1.355 . S
C530 C532 1.415 . S
C531 C530 1.355 . S
C531 C533 1.419 . S
C532 C530 1.415 . S
C532 C537 1.425 . S
C532 C539 1.409 . S
C533 H525 0.930 . S
C533 C531 1.419 . S
C533 C534 1.362 . S
C534 H526 0.930 . S
C534 C533 1.362 . S
C534 C537 1.409 . S
C535 H527 0.930 . S
C535 C536 1.355 . S
C535 C537 1.415 . S
C536 C535 1.355 . S
C536 C538 1.419 . S
C537 C532 1.425 . S
C537 C534 1.409 . S
C537 C535 1.415 . S
C538 H528 0.930 . S
C538 C536 1.419 . S
C538 C539 1.362 . S
C539 H529 0.930 . S
C539 C532 1.409 . S
C539 C538 1.362 . S
H540 C546 0.930 . S
H541 C549 0.930 . S
H542 C550 0.930 . S
H543 C551 0.930 . S
H544 C554 0.930 . S
H545 C555 0.930 . S
C546 H540 0.930 . S
C546 C547 1.355 . S
C546 C548 1.415 . S
C547 C546 1.355 . S
C547 C549 1.419 . S
C548 C546 1.415 . S
C548 C553 1.425 . S
C548 C555 1.409 . S
C549 H541 0.930 . S
C549 C547 1.419 . S
C549 C550 1.362 . S
C550 H542 0.930 . S
C550 C549 1.362 . S
C550 C553 1.409 . S
C551 H543 0.930 . S
C551 C552 1.355 . S
C551 C553 1.415 . S
C552 C551 1.355 . S
C552 C554 1.419 . S
C553 C548 1.425 . S
C553 C550 1.409 . S
C553 C551 1.415 . S
C554 H544 0.930 . S
C554 C552 1.419 . S
C554 C555 1.362 . S
C555 H545 0.930 . S
C555 C548 1.409 . S
C555 C554 1.362 . S
H556 C562 0.930 . S
H557 C565 0.930 . S
H558 C566 0.930 . S
H559 C567 0.930 . S
H560 C570 0.930 . S
H561 C571 0.930 . S
C562 H556 0.930 . S
C562 C563 1.355 . S
C562 C564 1.415 . S
C563 C562 1.355 . S
C563 C565 1.419 . S
C564 C562 1.415 . S
C564 C569 1.425 . S
C564 C571 1.409 . S
C565 H557 0.930 . S
C565 C563 1.419 . S
C565 C566 1.362 . S
C566 H558 0.930 . S
C566 C565 1.362 . S
C566 C569 1.409 . S
C567 H559 0.930 . S
C567 C568 1.355 . S
C567 C569 1.415 . S
C568 C567 1.355 . S
C568 C570 1.419 . S
C569 C564 1.425 . S
C569 C566 1.409 . S
C569 C567 1.415 . S
C570 H560 0.930 . S
C570 C568 1.419 . S
C570 C571 1.362 . S
C571 H561 0.930 . S
C571 C564 1.409 . S
C571 C570 1.362 . S
H572 C578 0.930 . S
H573 C581 0.930 . S
H574 C582 0.930 . S
H575 C583 0.930 . S
H576 C586 0.930 . S
H577 C587 0.930 . S
C578 H572 0.930 . S
C578 C579 1.355 . S
C578 C580 1.415 . S
C579 C578 1.355 . S
C579 C581 1.419 . S
C580 C578 1.415 . S
C580 C585 1.425 . S
C580 C587 1.409 . S
C581 H573 0.930 . S
C581 C579 1.419 . S
C581 C582 1.362 . S
C582 H574 0.930 . S
C582 C581 1.362 . S
C582 C585 1.409 . S
C583 H575 0.930 . S
C583 C584 1.355 . S
C583 C585 1.415 . S
C584 C583 1.355 . S
C584 C586 1.419 . S
C585 C580 1.425 . S
C585 C582 1.409 . S
C585 C583 1.415 . S
C586 H576 0.930 . S
C586 C584 1.419 . S
C586 C587 1.362 . S
C587 H577 0.930 . S
C587 C580 1.409 . S
C587 C586 1.362 . S
H588 C594 0.930 1_554 S
H589 C597 0.930 . S
H590 C598 0.930 . S
H591 C599 0.930 1_556 S
H592 C602 0.930 . S
H593 C603 0.930 . S
C594 H588 0.930 1_556 S
C594 C595 1.355 . S
C594 C596 1.415 1_656 S
C595 C594 1.355 . S
C595 C597 1.419 . S
C596 C594 1.415 1_454 S
C596 C601 1.425 1_554 S
C596 C603 1.409 . S
C597 H589 0.930 . S
C597 C595 1.419 . S
C597 C598 1.362 1_655 S
C598 H590 0.930 . S
C598 C597 1.362 1_455 S
C598 C601 1.409 . S
C599 H591 0.930 1_554 S
C599 C600 1.355 . S
C599 C601 1.415 1_554 S
C600 C599 1.355 . S
C600 C602 1.419 . S
C601 C596 1.425 1_556 S
C601 C598 1.409 . S
C601 C599 1.415 1_556 S
C602 H592 0.930 . S
C602 C600 1.419 . S
C602 C603 1.362 . S
C603 H593 0.930 . S
C603 C596 1.409 . S
C603 C602 1.362 . S
H604 C610 0.930 . S
H605 C613 0.930 . S
H606 C614 0.930 . S
H607 C615 0.930 . S
H608 C618 0.930 . S
H609 C619 0.930 . S
C610 H604 0.930 . S
C610 C611 1.355 1_554 S
C610 C612 1.415 . S
C611 C610 1.355 1_556 S
C611 C613 1.419 . S
C612 C610 1.415 . S
C612 C617 1.425 1_554 S
C612 C619 1.409 . S
C613 H605 0.930 . S
C613 C611 1.419 . S
C613 C614 1.362 . S
C614 H606 0.930 . S
C614 C613 1.362 . S
C614 C617 1.409 . S
C615 H607 0.930 . S
C615 C616 1.355 1_556 S
C615 C617 1.415 . S
C616 C615 1.355 1_554 S
C616 C618 1.419 . S
C617 C612 1.425 1_556 S
C617 C614 1.409 . S
C617 C615 1.415 . S
C618 H608 0.930 . S
C618 C616 1.419 . S
C618 C619 1.362 . S
C619 H609 0.930 . S
C619 C612 1.409 . S
C619 C618 1.362 . S
H620 C626 0.930 1_554 S
H621 C629 0.930 . S
H622 C630 0.930 . S
H623 C631 0.930 1_556 S
H624 C634 0.930 . S
H625 C635 0.930 . S
C626 H620 0.930 1_556 S
C626 C627 1.355 . S
C626 C628 1.415 1_556 S
C627 C626 1.355 . S
C627 C629 1.419 . S
C628 C626 1.415 1_554 S
C628 C633 1.425 1_554 S
C628 C635 1.409 . S
C629 H621 0.930 . S
C629 C627 1.419 . S
C629 C630 1.362 . S
C630 H622 0.930 . S
C630 C629 1.362 . S
C630 C633 1.409 . S
C631 H623 0.930 1_554 S
C631 C632 1.355 . S
C631 C633 1.415 1_564 S
C632 C631 1.355 . S
C632 C634 1.419 . S
C633 C628 1.425 1_556 S
C633 C630 1.409 . S
C633 C631 1.415 1_546 S
C634 H624 0.930 . S
C634 C632 1.419 . S
C634 C635 1.362 1_565 S
C635 H625 0.930 . S
C635 C628 1.409 . S
C635 C634 1.362 1_545 S
H636 C642 0.930 . S
H637 C645 0.930 . S
H638 C646 0.930 . S
H639 C647 0.930 . S
H640 C650 0.930 . S
H641 C651 0.917 1_545 S
C642 H636 0.930 . S
C642 C643 1.355 . S
C642 C644 1.415 . S
C643 C642 1.355 . S
C643 C645 1.419 1_556 S
C644 C642 1.415 . S
C644 C649 1.425 1_556 S
C644 C651 1.409 1_545 S
C645 H637 0.930 . S
C645 C643 1.419 1_554 S
C645 C646 1.362 . S
C646 H638 0.930 . S
C646 C645 1.362 . S
C646 C649 1.409 . S
C647 H639 0.930 . S
C647 C648 1.355 . S
C647 C649 1.415 1_565 S
C648 C647 1.355 . S
C648 C650 1.419 1_554 S
C649 C644 1.425 1_554 S
C649 C646 1.409 . S
C649 C647 1.415 1_545 S
C650 H640 0.930 . S
C650 C648 1.419 1_556 S
C650 C651 1.362 . S
C651 H641 0.917 1_565 S
C651 C644 1.409 1_565 S
C651 C650 1.362 . S
H652 C658 0.930 . S
H653 C661 0.930 . S
H654 C662 0.930 . S
H655 C663 0.930 . S
H656 C666 0.930 . S
H657 C667 0.930 . S
C658 H652 0.930 . S
C658 C659 1.355 1_556 S
C658 C660 1.415 . S
C659 C658 1.355 1_554 S
C659 C661 1.419 . S
C660 C658 1.415 . S
C660 C665 1.425 1_556 S
C660 C667 1.409 . S
C661 H653 0.930 . S
C661 C659 1.419 . S
C661 C662 1.362 . S
C662 H654 0.930 . S
C662 C661 1.362 . S
C662 C665 1.409 . S
C663 H655 0.930 . S
C663 C664 1.355 1_554 S
C663 C665 1.415 1_655 S
C664 C663 1.355 1_556 S
C664 C666 1.419 . S
C665 C660 1.425 1_554 S
C665 C662 1.409 . S
C665 C663 1.415 1_455 S
C666 H656 0.930 . S
C666 C664 1.419 . S
C666 C667 1.362 1_655 S
C667 H657 0.930 . S
C667 C660 1.409 . S
C667 C666 1.362 1_455 S
H668 C674 0.930 . S
H669 C677 0.930 . S
H670 C678 0.930 . S
H671 C679 0.930 . S
H672 C682 0.930 . S
H673 C683 0.930 . S
C674 H668 0.930 . S
C674 C675 1.355 1_556 S
C674 C676 1.415 . S
C675 C674 1.355 1_554 S
C675 C677 1.419 . S
C676 C674 1.415 . S
C676 C681 1.425 1_556 S
C676 C683 1.409 . S
C677 H669 0.930 . S
C677 C675 1.419 . S
C677 C678 1.362 . S
C678 H670 0.930 . S
C678 C677 1.362 . S
C678 C681 1.409 . S
C679 H671 0.930 . S
C679 C680 1.355 1_554 S
C679 C681 1.415 . S
C680 C679 1.355 1_556 S
C680 C682 1.419 . S
C681 C676 1.425 1_554 S
C681 C678 1.409 . S
C681 C679 1.415 . S
C682 H672 0.930 . S
C682 C680 1.419 . S
C682 C683 1.362 . S
C683 H673 0.930 . S
C683 C676 1.409 . S
C683 C682 1.362 . S
H684 C690 0.930 . S
H685 C693 0.930 . S
H686 C694 0.930 . S
H687 C695 0.930 . S
H688 C698 0.930 . S
H689 C699 0.930 . S
C690 H684 0.930 . S
C690 C691 1.355 . S
C690 C692 1.415 . S
C691 C690 1.355 . S
C691 C693 1.419 . S
C692 C690 1.415 . S
C692 C697 1.425 . S
C692 C699 1.409 . S
C693 H685 0.930 . S
C693 C691 1.419 . S
C693 C694 1.362 . S
C694 H686 0.930 . S
C694 C693 1.362 . S
C694 C697 1.409 . S
C695 H687 0.930 . S
C695 C696 1.355 . S
C695 C697 1.415 . S
C696 C695 1.355 . S
C696 C698 1.419 . S
C697 C692 1.425 . S
C697 C694 1.409 . S
C697 C695 1.415 . S
C698 H688 0.930 . S
C698 C696 1.419 . S
C698 C699 1.362 . S
C699 H689 0.930 . S
C699 C692 1.409 . S
C699 C698 1.362 . S
H700 C706 0.930 . S
H701 C709 0.930 . S
H702 C710 0.930 . S
H703 C711 0.930 . S
H704 C714 0.930 . S
H705 C715 0.930 . S
C706 H700 0.930 . S
C706 C707 1.355 . S
C706 C708 1.415 . S
C707 C706 1.355 . S
C707 C709 1.419 . S
C708 C706 1.415 . S
C708 C713 1.425 . S
C708 C715 1.409 . S
C709 H701 0.930 . S
C709 C707 1.419 . S
C709 C710 1.362 . S
C710 H702 0.930 . S
C710 C709 1.362 . S
C710 C713 1.409 . S
C711 H703 0.930 . S
C711 C712 1.355 . S
C711 C713 1.415 . S
C712 C711 1.355 . S
C712 C714 1.419 . S
C713 C708 1.425 . S
C713 C710 1.409 . S
C713 C711 1.415 . S
C714 H704 0.930 . S
C714 C712 1.419 . S
C714 C715 1.362 . S
C715 H705 0.930 . S
C715 C708 1.409 . S
C715 C714 1.362 . S
H716 C722 0.930 . S
H717 C725 0.930 . S
H718 C726 0.930 . S
H719 C727 0.930 . S
H720 C730 0.930 . S
H721 C731 0.930 . S
C722 H716 0.930 . S
C722 C723 1.355 . S
C722 C724 1.415 . S
C723 C722 1.355 . S
C723 C725 1.419 . S
C724 C722 1.415 . S
C724 C729 1.425 . S
C724 C731 1.409 . S
C725 H717 0.930 . S
C725 C723 1.419 . S
C725 C726 1.362 . S
C726 H718 0.930 . S
C726 C725 1.362 . S
C726 C729 1.409 . S
C727 H719 0.930 . S
C727 C728 1.355 . S
C727 C729 1.415 . S
C728 C727 1.355 . S
C728 C730 1.419 . S
C729 C724 1.425 . S
C729 C726 1.409 . S
C729 C727 1.415 . S
C730 H720 0.930 . S
C730 C728 1.419 . S
C730 C731 1.362 . S
C731 H721 0.930 . S
C731 C724 1.409 . S
C731 C730 1.362 . S
H732 C738 0.930 . S
H733 C741 0.930 . S
H734 C742 0.930 . S
H735 C743 0.930 . S
H736 C746 0.930 . S
H737 C747 0.930 . S
C738 H732 0.930 . S
C738 C739 1.355 . S
C738 C740 1.415 . S
C739 C738 1.355 . S
C739 C741 1.419 . S
C740 C738 1.415 . S
C740 C745 1.425 . S
C740 C747 1.409 . S
C741 H733 0.930 . S
C741 C739 1.419 . S
C741 C742 1.362 . S
C742 H734 0.930 . S
C742 C741 1.362 . S
C742 C745 1.409 . S
C743 H735 0.930 . S
C743 C744 1.355 . S
C743 C745 1.415 . S
C744 C743 1.355 . S
C744 C746 1.419 . S
C745 C740 1.425 . S
C745 C742 1.409 . S
C745 C743 1.415 . S
C746 H736 0.930 . S
C746 C744 1.419 . S
C746 C747 1.362 . S
C747 H737 0.930 . S
C747 C740 1.409 . S
C747 C746 1.362 . S
H748 C754 0.930 . S
H749 C757 0.930 . S
H750 C758 0.930 . S
H751 C759 0.930 . S
H752 C762 0.930 . S
H753 C763 0.930 . S
C754 H748 0.930 . S
C754 C755 1.355 . S
C754 C756 1.415 . S
C755 C754 1.355 . S
C755 C757 1.419 . S
C756 C754 1.415 . S
C756 C761 1.425 . S
C756 C763 1.409 . S
C757 H749 0.930 . S
C757 C755 1.419 . S
C757 C758 1.362 . S
C758 H750 0.930 . S
C758 C757 1.362 . S
C758 C761 1.409 . S
C759 H751 0.930 . S
C759 C760 1.355 . S
C759 C761 1.415 . S
C760 C759 1.355 . S
C760 C762 1.419 . S
C761 C756 1.425 . S
C761 C758 1.409 . S
C761 C759 1.415 . S
C762 H752 0.930 . S
C762 C760 1.419 . S
C762 C763 1.362 . S
C763 H753 0.930 . S
C763 C756 1.409 . S
C763 C762 1.362 . S
H764 C770 0.930 . S
H765 C773 0.930 . S
H766 C774 0.930 . S
H767 C775 0.930 . S
H768 C778 0.930 . S
H769 C779 0.930 . S
C770 H764 0.930 . S
C770 C771 1.355 . S
C770 C772 1.415 . S
C771 C770 1.355 . S
C771 C773 1.419 . S
C772 C770 1.415 . S
C772 C777 1.425 . S
C772 C779 1.409 . S
C773 H765 0.930 . S
C773 C771 1.419 . S
C773 C774 1.362 . S
C774 H766 0.930 . S
C774 C773 1.362 . S
C774 C777 1.409 . S
C775 H767 0.930 . S
C775 C776 1.355 . S
C775 C777 1.415 . S
C776 C775 1.355 . S
C776 C778 1.419 . S
C777 C772 1.425 . S
C777 C774 1.409 . S
C777 C775 1.415 . S
C778 H768 0.930 . S
C778 C776 1.419 . S
C778 C779 1.362 . S
C779 H769 0.930 . S
C779 C772 1.409 . S
C779 C778 1.362 . S
H780 C786 0.930 . S
H781 C789 0.930 . S
H782 C790 0.930 . S
H783 C791 0.930 . S
H784 C794 0.930 . S
H785 C795 0.930 . S
C786 H780 0.930 . S
C786 C787 1.355 . S
C786 C788 1.415 . S
C787 C786 1.355 . S
C787 C789 1.419 . S
C788 C786 1.415 . S
C788 C793 1.425 . S
C788 C795 1.409 . S
C789 H781 0.930 . S
C789 C787 1.419 . S
C789 C790 1.362 . S
C790 H782 0.930 . S
C790 C789 1.362 . S
C790 C793 1.409 . S
C791 H783 0.930 . S
C791 C792 1.355 . S
C791 C793 1.415 . S
C792 C791 1.355 . S
C792 C794 1.419 . S
C793 C788 1.425 . S
C793 C790 1.409 . S
C793 C791 1.415 . S
C794 H784 0.930 . S
C794 C792 1.419 . S
C794 C795 1.362 . S
C795 H785 0.930 . S
C795 C788 1.409 . S
C795 C794 1.362 . S
H796 C802 0.930 . S
H797 C805 0.930 . S
H798 C806 0.930 . S
H799 C807 0.930 . S
H800 C810 0.930 . S
H801 C811 0.930 . S
C802 H796 0.930 . S
C802 C803 1.355 . S
C802 C804 1.415 . S
C803 C802 1.355 . S
C803 C805 1.419 . S
C804 C802 1.415 . S
C804 C809 1.425 . S
C804 C811 1.409 . S
C805 H797 0.930 . S
C805 C803 1.419 . S
C805 C806 1.362 . S
C806 H798 0.930 . S
C806 C805 1.362 . S
C806 C809 1.409 . S
C807 H799 0.930 . S
C807 C808 1.355 . S
C807 C809 1.415 . S
C808 C807 1.355 . S
C808 C810 1.419 . S
C809 C804 1.425 . S
C809 C806 1.409 . S
C809 C807 1.415 . S
C810 H800 0.930 . S
C810 C808 1.419 . S
C810 C811 1.362 . S
C811 H801 0.930 . S
C811 C804 1.409 . S
C811 C810 1.362 . S
H812 C818 0.930 . S
H813 C821 0.930 . S
H814 C822 0.930 1_554 S
H815 C823 0.930 . S
H816 C826 0.930 . S
H817 C827 0.930 . S
C818 H812 0.930 . S
C818 C819 1.355 . S
C818 C820 1.415 . S
C819 C818 1.355 . S
C819 C821 1.419 . S
C820 C818 1.415 . S
C820 C825 1.425 . S
C820 C827 1.409 . S
C821 H813 0.930 . S
C821 C819 1.419 . S
C821 C822 1.362 . S
C822 H814 0.930 1_556 S
C822 C821 1.362 . S
C822 C825 1.409 . S
C823 H815 0.930 . S
C823 C824 1.355 . S
C823 C825 1.415 . S
C824 C823 1.355 . S
C824 C826 1.419 . S
C825 C820 1.425 . S
C825 C822 1.409 . S
C825 C823 1.415 . S
C826 H816 0.930 . S
C826 C824 1.419 . S
C826 C827 1.362 . S
C827 H817 0.930 . S
C827 C820 1.409 . S
C827 C826 1.362 . S
H828 C834 0.930 . S
H829 C837 0.930 . S
H830 C838 0.930 . S
H831 C839 0.930 . S
H832 C842 0.930 . S
H833 C843 0.930 . S
C834 H828 0.930 . S
C834 C835 1.355 . S
C834 C836 1.415 . S
C835 C834 1.355 . S
C835 C837 1.419 . S
C836 C834 1.415 . S
C836 C841 1.425 . S
C836 C843 1.409 . S
C837 H829 0.930 . S
C837 C835 1.419 . S
C837 C838 1.362 . S
C838 H830 0.930 . S
C838 C837 1.362 . S
C838 C841 1.409 . S
C839 H831 0.930 . S
C839 C840 1.355 . S
C839 C841 1.415 . S
C840 C839 1.355 . S
C840 C842 1.419 . S
C841 C836 1.425 . S
C841 C838 1.409 . S
C841 C839 1.415 . S
C842 H832 0.930 . S
C842 C840 1.419 . S
C842 C843 1.362 . S
C843 H833 0.930 . S
C843 C836 1.409 . S
C843 C842 1.362 . S
H844 C850 0.930 . S
H845 C853 0.930 . S
H846 C854 0.930 1_554 S
H847 C855 0.930 . S
H848 C858 0.930 . S
H849 C859 0.930 . S
C850 H844 0.930 . S
C850 C851 1.355 . S
C850 C852 1.415 . S
C851 C850 1.355 . S
C851 C853 1.419 . S
C852 C850 1.415 . S
C852 C857 1.425 . S
C852 C859 1.409 . S
C853 H845 0.930 . S
C853 C851 1.419 . S
C853 C854 1.362 . S
C854 H846 0.930 1_556 S
C854 C853 1.362 . S
C854 C857 1.409 . S
C855 H847 0.930 . S
C855 C856 1.355 . S
C855 C857 1.415 . S
C856 C855 1.355 . S
C856 C858 1.419 . S
C857 C852 1.425 . S
C857 C854 1.409 . S
C857 C855 1.415 . S
C858 H848 0.930 . S
C858 C856 1.419 . S
C858 C859 1.362 . S
C859 H849 0.930 . S
C859 C852 1.409 . S
C859 C858 1.362 . S
H860 C866 0.930 . S
H861 C869 0.930 . S
H862 C870 0.930 . S
H863 C871 0.930 . S
H864 C874 0.930 . S
H865 C875 0.930 . S
C866 H860 0.930 . S
C866 C867 1.355 . S
C866 C868 1.415 . S
C867 C866 1.355 . S
C867 C869 1.419 . S
C868 C866 1.415 . S
C868 C873 1.425 . S
C868 C875 1.409 . S
C869 H861 0.930 . S
C869 C867 1.419 . S
C869 C870 1.362 . S
C870 H862 0.930 . S
C870 C869 1.362 . S
C870 C873 1.409 . S
C871 H863 0.930 . S
C871 C872 1.355 . S
C871 C873 1.415 . S
C872 C871 1.355 . S
C872 C874 1.419 . S
C873 C868 1.425 . S
C873 C870 1.409 . S
C873 C871 1.415 . S
C874 H864 0.930 . S
C874 C872 1.419 . S
C874 C875 1.362 . S
C875 H865 0.930 . S
C875 C868 1.409 . S
C875 C874 1.362 . S
H876 C882 0.930 . S
H877 C885 0.930 . S
H878 C886 0.930 . S
H879 C887 0.930 . S
H880 C890 0.930 . S
H881 C891 0.930 . S
C882 H876 0.930 . S
C882 C883 1.355 . S
C882 C884 1.415 . S
C883 C882 1.355 . S
C883 C885 1.419 . S
C884 C882 1.415 . S
C884 C889 1.425 . S
C884 C891 1.409 . S
C885 H877 0.930 . S
C885 C883 1.419 . S
C885 C886 1.362 . S
C886 H878 0.930 . S
C886 C885 1.362 . S
C886 C889 1.409 . S
C887 H879 0.930 . S
C887 C888 1.355 . S
C887 C889 1.415 . S
C888 C887 1.355 . S
C888 C890 1.419 . S
C889 C884 1.425 . S
C889 C886 1.409 . S
C889 C887 1.415 . S
C890 H880 0.930 . S
C890 C888 1.419 . S
C890 C891 1.362 . S
C891 H881 0.930 . S
C891 C884 1.409 . S
C891 C890 1.362 . S
H892 C898 0.930 . S
H893 C901 0.930 . S
H894 C902 0.930 . S
H895 C903 0.930 . S
H896 C906 0.930 . S
H897 C907 0.930 1_556 S
C898 H892 0.930 . S
C898 C899 1.355 . S
C898 C900 1.415 . S
C899 C898 1.355 . S
C899 C901 1.419 . S
C900 C898 1.415 . S
C900 C905 1.425 . S
C900 C907 1.409 . S
C901 H893 0.930 . S
C901 C899 1.419 . S
C901 C902 1.362 . S
C902 H894 0.930 . S
C902 C901 1.362 . S
C902 C905 1.409 . S
C903 H895 0.930 . S
C903 C904 1.355 . S
C903 C905 1.415 . S
C904 C903 1.355 . S
C904 C906 1.419 . S
C905 C900 1.425 . S
C905 C902 1.409 . S
C905 C903 1.415 . S
C906 H896 0.930 . S
C906 C904 1.419 . S
C906 C907 1.362 . S
C907 H897 0.930 1_554 S
C907 C900 1.409 . S
C907 C906 1.362 . S
H908 C914 0.930 . S
H909 C917 0.930 . S
H910 C918 0.930 . S
H911 C919 0.930 . S
H912 C922 0.930 . S
H913 C923 0.930 . S
C914 H908 0.930 . S
C914 C915 1.355 . S
C914 C916 1.415 . S
C915 C914 1.355 . S
C915 C917 1.419 . S
C916 C914 1.415 . S
C916 C921 1.425 . S
C916 C923 1.409 . S
C917 H909 0.930 . S
C917 C915 1.419 . S
C917 C918 1.362 . S
C918 H910 0.930 . S
C918 C917 1.362 . S
C918 C921 1.409 . S
C919 H911 0.930 . S
C919 C920 1.355 . S
C919 C921 1.415 . S
C920 C919 1.355 . S
C920 C922 1.419 . S
C921 C916 1.425 . S
C921 C918 1.409 . S
C921 C919 1.415 . S
C922 H912 0.930 . S
C922 C920 1.419 . S
C922 C923 1.362 . S
C923 H913 0.930 . S
C923 C916 1.409 . S
C923 C922 1.362 . S
H924 C930 0.930 . S
H925 C933 0.930 . S
H926 C934 0.930 1_556 S
H927 C935 0.930 . S
H928 C938 0.930 . S
H929 C939 0.930 . S
C930 H924 0.930 . S
C930 C931 1.355 . S
C930 C932 1.415 . S
C931 C930 1.355 . S
C931 C933 1.419 . S
C932 C930 1.415 . S
C932 C937 1.425 . S
C932 C939 1.409 . S
C933 H925 0.930 . S
C933 C931 1.419 . S
C933 C934 1.362 . S
C934 H926 0.930 1_554 S
C934 C933 1.362 . S
C934 C937 1.409 . S
C935 H927 0.930 . S
C935 C936 1.355 . S
C935 C937 1.415 . S
C936 C935 1.355 . S
C936 C938 1.419 . S
C937 C932 1.425 . S
C937 C934 1.409 . S
C937 C935 1.415 . S
C938 H928 0.930 . S
C938 C936 1.419 . S
C938 C939 1.362 . S
C939 H929 0.930 . S
C939 C932 1.409 . S
C939 C938 1.362 . S
H940 C946 0.930 . S
H941 C949 0.930 . S
H942 C950 0.930 . S
H943 C951 0.930 . S
H944 C954 0.930 . S
H945 C955 0.930 1_556 S
C946 H940 0.930 . S
C946 C947 1.355 . S
C946 C948 1.415 . S
C947 C946 1.355 . S
C947 C949 1.419 . S
C948 C946 1.415 . S
C948 C953 1.425 . S
C948 C955 1.409 . S
C949 H941 0.930 . S
C949 C947 1.419 . S
C949 C950 1.362 . S
C950 H942 0.930 . S
C950 C949 1.362 . S
C950 C953 1.409 . S
C951 H943 0.930 . S
C951 C952 1.355 . S
C951 C953 1.415 . S
C952 C951 1.355 . S
C952 C954 1.419 . S
C953 C948 1.425 . S
C953 C950 1.409 . S
C953 C951 1.415 . S
C954 H944 0.930 . S
C954 C952 1.419 . S
C954 C955 1.362 . S
C955 H945 0.930 1_554 S
C955 C948 1.409 . S
C955 C954 1.362 . S
H956 C962 0.930 . S
H957 C965 0.930 . S
H958 C966 0.930 . S
H959 C967 0.930 . S
H960 C970 0.930 . S
H961 C971 0.930 . S
C962 H956 0.930 . S
C962 C963 1.355 . S
C962 C964 1.415 . S
C963 C962 1.355 . S
C963 C965 1.419 . S
C964 C962 1.415 . S
C964 C969 1.425 . S
C964 C971 1.409 . S
C965 H957 0.930 . S
C965 C963 1.419 . S
C965 C966 1.362 . S
C966 H958 0.930 . S
C966 C965 1.362 . S
C966 C969 1.409 . S
C967 H959 0.930 . S
C967 C968 1.355 . S
C967 C969 1.415 . S
C968 C967 1.355 . S
C968 C970 1.419 . S
C969 C964 1.425 . S
C969 C966 1.409 . S
C969 C967 1.415 . S
C970 H960 0.930 . S
C970 C968 1.419 . S
C970 C971 1.362 . S
C971 H961 0.930 . S
C971 C964 1.409 . S
C971 C970 1.362 . S
H972 C978 0.930 1_655 S
H973 C981 0.930 . S
H974 C982 0.930 . S
H975 C983 0.930 . S
H976 C986 0.930 . S
H977 C987 0.930 . S
C978 H972 0.930 1_455 S
C978 C979 1.355 . S
C978 C980 1.415 . S
C979 C978 1.355 . S
C979 C981 1.419 . S
C980 C978 1.415 . S
C980 C985 1.425 1_554 S
C980 C987 1.409 1_454 S
C981 H973 0.930 . S
C981 C979 1.419 . S
C981 C982 1.362 . S
C982 H974 0.930 . S
C982 C981 1.362 . S
C982 C985 1.409 1_554 S
C983 H975 0.930 . S
C983 C984 1.355 . S
C983 C985 1.415 . S
C984 C983 1.355 . S
C984 C986 1.419 1_455 S
C985 C980 1.425 1_556 S
C985 C982 1.409 1_556 S
C985 C983 1.415 . S
C986 H976 0.930 . S
C986 C984 1.419 1_655 S
C986 C987 1.362 . S
C987 H977 0.930 . S
C987 C980 1.409 1_656 S
C987 C986 1.362 . S
H988 C994 0.930 . S
H989 C997 0.930 . S
H990 C998 0.930 . S
H991 C999 0.930 . S
H992 C1002 0.930 . S
H993 C1003 0.930 . S
C994 H988 0.930 . S
C994 C995 1.355 . S
C994 C996 1.415 . S
C995 C994 1.355 . S
C995 C997 1.419 . S
C996 C994 1.415 . S
C996 C1001 1.425 1_554 S
C996 C1003 1.409 1_554 S
C997 H989 0.930 . S
C997 C995 1.419 . S
C997 C998 1.362 . S
C998 H990 0.930 . S
C998 C997 1.362 . S
C998 C1001 1.409 1_554 S
C999 H991 0.930 . S
C999 C1000 1.355 . S
C999 C1001 1.415 . S
C1000 C999 1.355 . S
C1000 C1002 1.419 . S
C1001 C996 1.425 1_556 S
C1001 C998 1.409 1_556 S
C1001 C999 1.415 . S
C1002 H992 0.930 . S
C1002 C1000 1.419 . S
C1002 C1003 1.362 . S
C1003 H993 0.930 . S
C1003 C996 1.409 1_556 S
C1003 C1002 1.362 . S
H1004 C1010 0.930 1_565 S
H1005 C1013 0.930 . S
H1006 C1014 0.930 . S
H1007 C1015 0.930 . S
H1008 C1018 0.926 1_565 S
H1009 C1019 0.930 . S
C1010 H1004 0.930 1_545 S
C1010 C1011 1.355 . S
C1010 C1012 1.415 . S
C1011 C1010 1.355 . S
C1011 C1013 1.419 . S
C1012 C1010 1.415 . S
C1012 C1017 1.425 1_554 S
C1012 C1019 1.409 1_544 S
C1013 H1005 0.930 . S
C1013 C1011 1.419 . S
C1013 C1014 1.362 . S
C1014 H1006 0.930 . S
C1014 C1013 1.362 . S
C1014 C1017 1.409 1_554 S
C1015 H1007 0.930 . S
C1015 C1016 1.355 . S
C1015 C1017 1.415 . S
C1016 C1015 1.355 . S
C1016 C1018 1.427 . S
C1017 C1012 1.425 1_556 S
C1017 C1014 1.409 1_556 S
C1017 C1015 1.415 . S
C1018 H1008 0.926 1_545 S
C1018 C1016 1.427 . S
C1018 C1019 1.360 1_545 S
C1019 H1009 0.930 . S
C1019 C1012 1.409 1_566 S
C1019 C1018 1.360 1_565 S
H1020 C1026 0.930 . S
H1021 C1029 0.930 . S
H1022 C1030 0.930 . S
H1023 C1031 0.930 1_655 S
H1024 C1034 0.930 . S
H1025 C1035 0.930 . S
C1026 H1020 0.930 . S
C1026 C1027 1.355 . S
C1026 C1028 1.415 . S
C1027 C1026 1.355 . S
C1027 C1029 1.419 1_455 S
C1028 C1026 1.415 . S
C1028 C1033 1.425 1_556 S
C1028 C1035 1.409 1_556 S
C1029 H1021 0.930 . S
C1029 C1027 1.419 1_655 S
C1029 C1030 1.362 . S
C1030 H1022 0.930 . S
C1030 C1029 1.362 . S
C1030 C1033 1.409 1_656 S
C1031 H1023 0.930 1_455 S
C1031 C1032 1.355 . S
C1031 C1033 1.415 . S
C1032 C1031 1.355 . S
C1032 C1034 1.419 . S
C1033 C1028 1.425 1_554 S
C1033 C1030 1.409 1_454 S
C1033 C1031 1.415 . S
C1034 H1024 0.930 . S
C1034 C1032 1.419 . S
C1034 C1035 1.362 . S
C1035 H1025 0.930 . S
C1035 C1028 1.409 1_554 S
C1035 C1034 1.362 . S
H1036 C1042 0.930 . S
H1037 C1045 0.930 . S
H1038 C1046 0.930 . S
H1039 C1047 0.930 . S
H1040 C1050 0.930 . S
H1041 C1051 0.930 . S
C1042 H1036 0.930 . S
C1042 C1043 1.355 . S
C1042 C1044 1.415 . S
C1043 C1042 1.355 . S
C1043 C1045 1.419 . S
C1044 C1042 1.415 . S
C1044 C1049 1.425 1_554 S
C1044 C1051 1.409 1_554 S
C1045 H1037 0.930 . S
C1045 C1043 1.419 . S
C1045 C1046 1.362 . S
C1046 H1038 0.930 . S
C1046 C1045 1.362 . S
C1046 C1049 1.409 1_554 S
C1047 H1039 0.930 . S
C1047 C1048 1.355 . S
C1047 C1049 1.415 . S
C1048 C1047 1.355 . S
C1048 C1050 1.419 . S
C1049 C1044 1.425 1_556 S
C1049 C1046 1.409 1_556 S
C1049 C1047 1.415 . S
C1050 H1040 0.930 . S
C1050 C1048 1.419 . S
C1050 C1051 1.362 . S
C1051 H1041 0.930 . S
C1051 C1044 1.409 1_556 S
C1051 C1050 1.362 . S
H1052 C1058 0.930 . S
H1053 C1061 0.930 . S
H1054 C1062 0.930 . S
H1055 C1063 0.930 1_565 S
H1056 C1066 0.930 . S
H1057 C1067 0.930 . S
C1058 H1052 0.930 . S
C1058 C1059 1.355 . S
C1058 C1060 1.415 . S
C1059 C1058 1.355 . S
C1059 C1061 1.419 1_545 S
C1060 C1058 1.415 . S
C1060 C1065 1.425 1_554 S
C1060 C1067 1.409 1_554 S
C1061 H1053 0.930 . S
C1061 C1059 1.419 1_565 S
C1061 C1062 1.362 . S
C1062 H1054 0.930 . S
C1062 C1061 1.362 . S
C1062 C1065 1.409 1_564 S
C1063 H1055 0.930 1_545 S
C1063 C1064 1.355 . S
C1063 C1065 1.415 . S
C1064 C1063 1.355 . S
C1064 C1066 1.419 . S
C1065 C1060 1.425 1_556 S
C1065 C1062 1.409 1_546 S
C1065 C1063 1.415 . S
C1066 H1056 0.930 . S
C1066 C1064 1.419 . S
C1066 C1067 1.362 . S
C1067 H1057 0.930 . S
C1067 C1060 1.409 1_556 S
C1067 C1066 1.362 . S
H1068 C1074 0.930 . S
H1069 C1077 0.930 . S
H1070 C1078 0.930 . S
H1071 C1079 0.930 . S
H1072 C1082 0.930 . S
H1073 C1083 0.930 . S
C1074 H1068 0.930 . S
C1074 C1075 1.355 . S
C1074 C1076 1.415 . S
C1075 C1074 1.355 . S
C1075 C1077 1.419 . S
C1076 C1074 1.415 . S
C1076 C1081 1.425 . S
C1076 C1083 1.409 . S
C1077 H1069 0.930 . S
C1077 C1075 1.419 . S
C1077 C1078 1.362 . S
C1078 H1070 0.930 . S
C1078 C1077 1.362 . S
C1078 C1081 1.409 . S
C1079 H1071 0.930 . S
C1079 C1080 1.355 . S
C1079 C1081 1.415 . S
C1080 C1079 1.355 . S
C1080 C1082 1.419 . S
C1081 C1076 1.425 . S
C1081 C1078 1.409 . S
C1081 C1079 1.415 . S
C1082 H1072 0.930 . S
C1082 C1080 1.419 . S
C1082 C1083 1.362 . S
C1083 H1073 0.930 . S
C1083 C1076 1.409 . S
C1083 C1082 1.362 . S
H1084 C1090 0.930 . S
H1085 C1093 0.930 . S
H1086 C1094 0.930 . S
H1087 C1095 0.930 . S
H1088 C1098 0.930 . S
H1089 C1099 0.930 . S
C1090 H1084 0.930 . S
C1090 C1091 1.355 . S
C1090 C1092 1.415 . S
C1091 C1090 1.355 . S
C1091 C1093 1.419 . S
C1092 C1090 1.415 . S
C1092 C1097 1.425 . S
C1092 C1099 1.409 . S
C1093 H1085 0.930 . S
C1093 C1091 1.419 . S
C1093 C1094 1.362 . S
C1094 H1086 0.930 . S
C1094 C1093 1.362 . S
C1094 C1097 1.409 . S
C1095 H1087 0.930 . S
C1095 C1096 1.355 . S
C1095 C1097 1.415 . S
C1096 C1095 1.355 . S
C1096 C1098 1.419 . S
C1097 C1092 1.425 . S
C1097 C1094 1.409 . S
C1097 C1095 1.415 . S
C1098 H1088 0.930 . S
C1098 C1096 1.419 . S
C1098 C1099 1.362 . S
C1099 H1089 0.930 . S
C1099 C1092 1.409 . S
C1099 C1098 1.362 . S
H1100 C1106 0.930 . S
H1101 C1109 0.930 . S
H1102 C1110 0.930 . S
H1103 C1111 0.930 . S
H1104 C1114 0.930 . S
H1105 C1115 0.930 . S
C1106 H1100 0.930 . S
C1106 C1107 1.355 . S
C1106 C1108 1.415 . S
C1107 C1106 1.355 . S
C1107 C1109 1.419 . S
C1108 C1106 1.415 . S
C1108 C1113 1.425 . S
C1108 C1115 1.409 . S
C1109 H1101 0.930 . S
C1109 C1107 1.419 . S
C1109 C1110 1.362 . S
C1110 H1102 0.930 . S
C1110 C1109 1.362 . S
C1110 C1113 1.409 . S
C1111 H1103 0.930 . S
C1111 C1112 1.355 . S
C1111 C1113 1.415 . S
C1112 C1111 1.355 . S
C1112 C1114 1.419 . S
C1113 C1108 1.425 . S
C1113 C1110 1.409 . S
C1113 C1111 1.415 . S
C1114 H1104 0.930 . S
C1114 C1112 1.419 . S
C1114 C1115 1.362 . S
C1115 H1105 0.930 . S
C1115 C1108 1.409 . S
C1115 C1114 1.362 . S
H1116 C1122 0.930 . S
H1117 C1125 0.930 . S
H1118 C1126 0.930 . S
H1119 C1127 0.930 . S
H1120 C1130 0.930 . S
H1121 C1131 0.930 . S
C1122 H1116 0.930 . S
C1122 C1123 1.355 . S
C1122 C1124 1.415 . S
C1123 C1122 1.355 . S
C1123 C1125 1.419 . S
C1124 C1122 1.415 . S
C1124 C1129 1.425 . S
C1124 C1131 1.409 . S
C1125 H1117 0.930 . S
C1125 C1123 1.419 . S
C1125 C1126 1.362 . S
C1126 H1118 0.930 . S
C1126 C1125 1.362 . S
C1126 C1129 1.409 . S
C1127 H1119 0.930 . S
C1127 C1128 1.355 . S
C1127 C1129 1.415 . S
C1128 C1127 1.355 . S
C1128 C1130 1.419 . S
C1129 C1124 1.425 . S
C1129 C1126 1.409 . S
C1129 C1127 1.415 . S
C1130 H1120 0.930 . S
C1130 C1128 1.419 . S
C1130 C1131 1.362 . S
C1131 H1121 0.930 . S
C1131 C1124 1.409 . S
C1131 C1130 1.362 . S
H1132 C1138 0.930 . S
H1133 C1141 0.930 . S
H1134 C1142 0.930 . S
H1135 C1143 0.930 . S
H1136 C1146 0.930 . S
H1137 C1147 0.930 . S
C1138 H1132 0.930 . S
C1138 C1139 1.355 . S
C1138 C1140 1.415 . S
C1139 C1138 1.355 . S
C1139 C1141 1.419 . S
C1140 C1138 1.415 . S
C1140 C1145 1.425 . S
C1140 C1147 1.409 . S
C1141 H1133 0.930 . S
C1141 C1139 1.419 . S
C1141 C1142 1.362 . S
C1142 H1134 0.930 . S
C1142 C1141 1.362 . S
C1142 C1145 1.409 . S
C1143 H1135 0.930 . S
C1143 C1144 1.355 . S
C1143 C1145 1.415 . S
C1144 C1143 1.355 . S
C1144 C1146 1.419 . S
C1145 C1140 1.425 . S
C1145 C1142 1.409 . S
C1145 C1143 1.415 . S
C1146 H1136 0.930 . S
C1146 C1144 1.419 . S
C1146 C1147 1.362 . S
C1147 H1137 0.930 . S
C1147 C1140 1.409 . S
C1147 C1146 1.362 . S
H1148 C1154 0.930 . S
H1149 C1157 0.930 . S
H1150 C1158 0.930 . S
H1151 C1159 0.930 . S
H1152 C1162 0.930 . S
H1153 C1163 0.930 . S
C1154 H1148 0.930 . S
C1154 C1155 1.355 . S
C1154 C1156 1.415 . S
C1155 C1154 1.355 . S
C1155 C1157 1.419 . S
C1156 C1154 1.415 . S
C1156 C1161 1.425 . S
C1156 C1163 1.409 . S
C1157 H1149 0.930 . S
C1157 C1155 1.419 . S
C1157 C1158 1.362 . S
C1158 H1150 0.930 . S
C1158 C1157 1.362 . S
C1158 C1161 1.409 . S
C1159 H1151 0.930 . S
C1159 C1160 1.355 . S
C1159 C1161 1.415 . S
C1160 C1159 1.355 . S
C1160 C1162 1.419 . S
C1161 C1156 1.425 . S
C1161 C1158 1.409 . S
C1161 C1159 1.415 . S
C1162 H1152 0.930 . S
C1162 C1160 1.419 . S
C1162 C1163 1.362 . S
C1163 H1153 0.930 . S
C1163 C1156 1.409 . S
C1163 C1162 1.362 . S
H1164 C1170 0.930 . S
H1165 C1173 0.930 . S
H1166 C1174 0.930 . S
H1167 C1175 0.930 . S
H1168 C1178 0.930 . S
H1169 C1179 0.930 . S
C1170 H1164 0.930 . S
C1170 C1171 1.355 . S
C1170 C1172 1.415 . S
C1171 C1170 1.355 . S
C1171 C1173 1.419 . S
C1172 C1170 1.415 . S
C1172 C1177 1.425 . S
C1172 C1179 1.409 . S
C1173 H1165 0.930 . S
C1173 C1171 1.419 . S
C1173 C1174 1.362 . S
C1174 H1166 0.930 . S
C1174 C1173 1.362 . S
C1174 C1177 1.409 . S
C1175 H1167 0.930 . S
C1175 C1176 1.355 . S
C1175 C1177 1.415 . S
C1176 C1175 1.355 . S
C1176 C1178 1.419 . S
C1177 C1172 1.425 . S
C1177 C1174 1.409 . S
C1177 C1175 1.415 . S
C1178 H1168 0.930 . S
C1178 C1176 1.419 . S
C1178 C1179 1.362 . S
C1179 H1169 0.930 . S
C1179 C1172 1.409 . S
C1179 C1178 1.362 . S
H1180 C1186 0.930 . S
H1181 C1189 0.930 . S
H1182 C1190 0.930 . S
H1183 C1191 0.930 . S
H1184 C1194 0.930 . S
H1185 C1195 0.930 . S
C1186 H1180 0.930 . S
C1186 C1187 1.355 . S
C1186 C1188 1.415 . S
C1187 C1186 1.355 . S
C1187 C1189 1.419 . S
C1188 C1186 1.415 . S
C1188 C1193 1.425 . S
C1188 C1195 1.409 . S
C1189 H1181 0.930 . S
C1189 C1187 1.419 . S
C1189 C1190 1.362 . S
C1190 H1182 0.930 . S
C1190 C1189 1.362 . S
C1190 C1193 1.409 . S
C1191 H1183 0.930 . S
C1191 C1192 1.355 . S
C1191 C1193 1.415 . S
C1192 C1191 1.355 . S
C1192 C1194 1.419 . S
C1193 C1188 1.425 . S
C1193 C1190 1.409 . S
C1193 C1191 1.415 . S
C1194 H1184 0.930 . S
C1194 C1192 1.419 . S
C1194 C1195 1.362 . S
C1195 H1185 0.930 . S
C1195 C1188 1.409 . S
C1195 C1194 1.362 . S
H1196 C1202 0.930 . S
H1197 C1205 0.930 . S
H1198 C1206 0.930 . S
H1199 C1207 0.930 . S
H1200 C1210 0.930 . S
H1201 C1211 0.930 . S
C1202 H1196 0.930 . S
C1202 C1203 1.355 . S
C1202 C1204 1.415 . S
C1203 C1202 1.355 . S
C1203 C1205 1.419 . S
C1204 C1202 1.415 . S
C1204 C1209 1.425 . S
C1204 C1211 1.409 . S
C1205 H1197 0.930 . S
C1205 C1203 1.419 . S
C1205 C1206 1.362 . S
C1206 H1198 0.930 . S
C1206 C1205 1.362 . S
C1206 C1209 1.409 . S
C1207 H1199 0.930 . S
C1207 C1208 1.355 . S
C1207 C1209 1.415 . S
C1208 C1207 1.355 . S
C1208 C1210 1.419 . S
C1209 C1204 1.425 . S
C1209 C1206 1.409 . S
C1209 C1207 1.415 . S
C1210 H1200 0.930 . S
C1210 C1208 1.419 . S
C1210 C1211 1.362 . S
C1211 H1201 0.930 . S
C1211 C1204 1.409 . S
C1211 C1210 1.362 . S
H1212 C1218 0.930 . S
H1213 C1221 0.930 . S
H1214 C1222 0.930 . S
H1215 C1223 0.930 . S
H1216 C1226 0.930 . S
H1217 C1227 0.930 . S
C1218 H1212 0.930 . S
C1218 C1219 1.355 . S
C1218 C1220 1.415 . S
C1219 C1218 1.355 . S
C1219 C1221 1.419 . S
C1220 C1218 1.415 . S
C1220 C1225 1.425 . S
C1220 C1227 1.409 . S
C1221 H1213 0.930 . S
C1221 C1219 1.419 . S
C1221 C1222 1.362 . S
C1222 H1214 0.930 . S
C1222 C1221 1.362 . S
C1222 C1225 1.409 . S
C1223 H1215 0.930 . S
C1223 C1224 1.355 . S
C1223 C1225 1.415 . S
C1224 C1223 1.355 . S
C1224 C1226 1.419 . S
C1225 C1220 1.425 . S
C1225 C1222 1.409 . S
C1225 C1223 1.415 . S
C1226 H1216 0.930 . S
C1226 C1224 1.419 . S
C1226 C1227 1.362 . S
C1227 H1217 0.930 . S
C1227 C1220 1.409 . S
C1227 C1226 1.362 . S
H1228 C1234 0.930 . S
H1229 C1237 0.930 . S
H1230 C1238 0.930 . S
H1231 C1239 0.930 . S
H1232 C1242 0.930 . S
H1233 C1243 0.930 . S
C1234 H1228 0.930 . S
C1234 C1235 1.355 . S
C1234 C1236 1.415 . S
C1235 C1234 1.355 . S
C1235 C1237 1.419 . S
C1236 C1234 1.415 . S
C1236 C1241 1.425 . S
C1236 C1243 1.409 . S
C1237 H1229 0.930 . S
C1237 C1235 1.419 . S
C1237 C1238 1.362 . S
C1238 H1230 0.930 . S
C1238 C1237 1.362 . S
C1238 C1241 1.409 . S
C1239 H1231 0.930 . S
C1239 C1240 1.355 . S
C1239 C1241 1.415 . S
C1240 C1239 1.355 . S
C1240 C1242 1.419 . S
C1241 C1236 1.425 . S
C1241 C1238 1.409 . S
C1241 C1239 1.415 . S
C1242 H1232 0.930 . S
C1242 C1240 1.419 . S
C1242 C1243 1.362 . S
C1243 H1233 0.930 . S
C1243 C1236 1.409 . S
C1243 C1242 1.362 . S
H1244 C1250 0.930 . S
H1245 C1253 0.930 . S
H1246 C1254 0.930 . S
H1247 C1255 0.930 . S
H1248 C1258 0.930 . S
H1249 C1259 0.930 . S
C1250 H1244 0.930 . S
C1250 C1251 1.355 . S
C1250 C1252 1.415 . S
C1251 C1250 1.355 . S
C1251 C1253 1.419 . S
C1252 C1250 1.415 . S
C1252 C1257 1.425 . S
C1252 C1259 1.409 . S
C1253 H1245 0.930 . S
C1253 C1251 1.419 . S
C1253 C1254 1.362 . S
C1254 H1246 0.930 . S
C1254 C1253 1.362 . S
C1254 C1257 1.409 . S
C1255 H1247 0.930 . S
C1255 C1256 1.355 . S
C1255 C1257 1.415 . S
C1256 C1255 1.355 . S
C1256 C1258 1.419 . S
C1257 C1252 1.425 . S
C1257 C1254 1.409 . S
C1257 C1255 1.415 . S
C1258 H1248 0.930 . S
C1258 C1256 1.419 . S
C1258 C1259 1.362 . S
C1259 H1249 0.930 . S
C1259 C1252 1.409 . S
C1259 C1258 1.362 . S
C403 C294 1.206 . S
C408 C4 1.256 . S
C419 C26 1.223 . S
C424 C316 1.267 . S
C435 C48 1.196 . S
C440 C272 1.186 . S
C451 C52 1.190 . S
C456 C158 1.191 . S
C467 C180 1.272 . S
C472 C8 1.245 . S
C483 C30 1.225 . S
C488 C136 1.268 . S
C499 C74 1.271 . S
C504 C224 1.234 . S
C515 C96 1.202 . S
C520 C246 1.184 . S
C531 C202 1.220 . S
C536 C118 1.184 . S
C547 C360 1.205 . S
C552 C114 1.183 . S
C563 C70 1.269 . S
C568 C382 1.229 . S
C579 C338 1.272 . S
C584 C92 1.240 . S
C595 C184 1.184 . S
C600 C290 1.223 . S
C611 C140 1.183 . S
C616 C312 1.217 . S
C627 C162 1.257 . S
C632 C268 1.208 . S
C643 C206 1.264 . S
C648 C356 1.265 . S
C659 C378 1.190 . S
C664 C228 1.191 . S
C675 C334 1.200 . S
C680 C250 1.249 . S
C691 C6 1.567 . S
C696 C93 1.615 . S
C707 C115 1.608 . S
C712 C28 1.574 . S
C723 C71 1.568 . S
C728 C50 1.614 . S
C739 C97 1.614 . S
C744 C51 1.568 . S
C755 C119 1.576 . S
C760 C7 1.607 . S
C771 C75 1.612 . S
C776 C29 1.570 . S
C787 C225 1.615 . S
C792 C138 1.567 . S
C803 C247 1.568 . S
C808 C160 1.614 . S
C819 C203 1.586 . S
C824 C182 1.597 . S
C835 C229 1.603 . S
C840 C183 1.580 . S
C851 C251 1.607 . S
C856 C139 1.576 . S
C867 C207 1.596 . S
C872 C161 1.586 . S
C883 C357 1.578 . S
C888 C270 1.604 . S
C899 C379 1.581 . S
C904 C292 1.601 . S
C915 C314 1.615 . S
C920 C335 1.567 . S
C931 C315 1.570 . S
C936 C361 1.612 . S
C947 C271 1.613 . S
C952 C383 1.570 . S
C963 C339 1.615 . S
C968 C293 1.568 . S
C979 C5 1.653 . S
C984 C9 1.665 . S
C995 C27 1.632 . S
C1000 C31 1.660 . S
C1011 C49 1.614 . S
C1016 C53 1.643 . S
C1027 C73 1.664 . S
C1032 C72 1.655 . S
C1043 C94 1.611 . S
C1048 C95 1.618 . S
C1059 C116 1.644 . S
C1064 C117 1.665 . S
C1075 C141 1.612 . S
C1080 C137 1.639 . S
C1091 C159 1.658 . S
C1096 C163 1.629 . S
C1107 C185 1.652 . S
C1112 C181 1.621 . S
C1123 C205 1.630 . S
C1128 C204 1.659 . S
C1139 C227 1.645 . S
C1144 C226 1.665 . S
C1155 C249 1.622 . S
C1160 C248 1.610 . S
C1171 C273 1.664 . S
C1176 C269 1.655 . S
C1187 C291 1.660 . S
C1192 C295 1.661 . S
C1203 C313 1.633 . S
C1208 C317 1.610 . S
C1219 C336 1.627 . S
C1224 C337 1.657 . S
C1235 C358 1.654 . S
C1240 C359 1.624 . S
C1251 C381 1.611 . S
C1256 C380 1.635 . S
