# Generated by pormake.
# Topology mon, (4)-cn, num edge types: 1
# Building blocks:
#     Node 0, Type 0, BuildingBlock: QUQFOY_clean_sbu_1, # of connection points: 4
#     Node 1, Type 0, BuildingBlock: QUQFOY_clean_sbu_1, # of connection points: 4
#     Node 2, Type 0, BuildingBlock: QUQFOY_clean_sbu_1, # of connection points: 4
#     Node 3, Type 0, BuildingBlock: QUQFOY_clean_sbu_1, # of connection points: 4
#     Node 4, Type 0, BuildingBlock: QUQFOY_clean_sbu_1, # of connection points: 4
#     Node 5, Type 0, BuildingBlock: QUQFOY_clean_sbu_1, # of connection points: 4
#     Node 6, Type 0, BuildingBlock: QUQFOY_clean_sbu_1, # of connection points: 4
#     Node 7, Type 0, BuildingBlock: QUQFOY_clean_sbu_1, # of connection points: 4
#     Node 8, Type 0, BuildingBlock: QUQFOY_clean_sbu_1, # of connection points: 4
#     Node 9, Type 0, BuildingBlock: QUQFOY_clean_sbu_1, # of connection points: 4
#     Node 10, Type 0, BuildingBlock: QUQFOY_clean_sbu_1, # of connection points: 4
#     Node 11, Type 0, BuildingBlock: QUQFOY_clean_sbu_1, # of connection points: 4
#     Node 12, Type 0, BuildingBlock: QUQFOY_clean_sbu_1, # of connection points: 4
#     Node 13, Type 0, BuildingBlock: QUQFOY_clean_sbu_1, # of connection points: 4
#     Node 14, Type 0, BuildingBlock: QUQFOY_clean_sbu_1, # of connection points: 4
#     Node 15, Type 0, BuildingBlock: QUQFOY_clean_sbu_1, # of connection points: 4
#     Edge 16, Type (0, 0), BuildingBlock: CIFDUS_clean_linker_0, # of connection points: 2
#     Edge 17, Type (0, 0), BuildingBlock: CIFDUS_clean_linker_0, # of connection points: 2
#     Edge 18, Type (0, 0), BuildingBlock: CIFDUS_clean_linker_0, # of connection points: 2
#     Edge 19, Type (0, 0), BuildingBlock: CIFDUS_clean_linker_0, # of connection points: 2
#     Edge 20, Type (0, 0), BuildingBlock: CIFDUS_clean_linker_0, # of connection points: 2
#     Edge 21, Type (0, 0), BuildingBlock: CIFDUS_clean_linker_0, # of connection points: 2
#     Edge 22, Type (0, 0), BuildingBlock: CIFDUS_clean_linker_0, # of connection points: 2
#     Edge 23, Type (0, 0), BuildingBlock: CIFDUS_clean_linker_0, # of connection points: 2
#     Edge 24, Type (0, 0), BuildingBlock: CIFDUS_clean_linker_0, # of connection points: 2
#     Edge 25, Type (0, 0), BuildingBlock: CIFDUS_clean_linker_0, # of connection points: 2
#     Edge 26, Type (0, 0), BuildingBlock: CIFDUS_clean_linker_0, # of connection points: 2
#     Edge 27, Type (0, 0), BuildingBlock: CIFDUS_clean_linker_0, # of connection points: 2
#     Edge 28, Type (0, 0), BuildingBlock: CIFDUS_clean_linker_0, # of connection points: 2
#     Edge 29, Type (0, 0), BuildingBlock: CIFDUS_clean_linker_0, # of connection points: 2
#     Edge 30, Type (0, 0), BuildingBlock: CIFDUS_clean_linker_0, # of connection points: 2
#     Edge 31, Type (0, 0), BuildingBlock: CIFDUS_clean_linker_0, # of connection points: 2
#     Edge 32, Type (0, 0), BuildingBlock: CIFDUS_clean_linker_0, # of connection points: 2
#     Edge 33, Type (0, 0), BuildingBlock: CIFDUS_clean_linker_0, # of connection points: 2
#     Edge 34, Type (0, 0), BuildingBlock: CIFDUS_clean_linker_0, # of connection points: 2
#     Edge 35, Type (0, 0), BuildingBlock: CIFDUS_clean_linker_0, # of connection points: 2
#     Edge 36, Type (0, 0), BuildingBlock: CIFDUS_clean_linker_0, # of connection points: 2
#     Edge 37, Type (0, 0), BuildingBlock: CIFDUS_clean_linker_0, # of connection points: 2
#     Edge 38, Type (0, 0), BuildingBlock: CIFDUS_clean_linker_0, # of connection points: 2
#     Edge 39, Type (0, 0), BuildingBlock: CIFDUS_clean_linker_0, # of connection points: 2
#     Edge 40, Type (0, 0), BuildingBlock: CIFDUS_clean_linker_0, # of connection points: 2
#     Edge 41, Type (0, 0), BuildingBlock: CIFDUS_clean_linker_0, # of connection points: 2
#     Edge 42, Type (0, 0), BuildingBlock: CIFDUS_clean_linker_0, # of connection points: 2
#     Edge 43, Type (0, 0), BuildingBlock: CIFDUS_clean_linker_0, # of connection points: 2
#     Edge 44, Type (0, 0), BuildingBlock: CIFDUS_clean_linker_0, # of connection points: 2
#     Edge 45, Type (0, 0), BuildingBlock: CIFDUS_clean_linker_0, # of connection points: 2
#     Edge 46, Type (0, 0), BuildingBlock: CIFDUS_clean_linker_0, # of connection points: 2
#     Edge 47, Type (0, 0), BuildingBlock: CIFDUS_clean_linker_0, # of connection points: 2
# Relax obj value: 0.200
# Max RMSD: 0.218
# Mean RMSD: 0.218
data_MOF--net-mon--node1-QUQFOY_clean_sbu_1--edge1-CIFDUS_clean_linker_0
_symmetry_space_group_name_H-M    P1
_symmetry_Int_Tables_number       1
_symmetry_cell_setting            triclinic
loop_
_symmetry_equiv_pos_as_xyz
'x, y, z'
_cell_length_a     31.881335
_cell_length_b     31.9824
_cell_length_c     74.340376
_cell_angle_alpha  89.563573
_cell_angle_beta   90.1501
_cell_angle_gamma 90.074197
loop_
_atom_site_label
_atom_site_type_symbol
_atom_site_fract_x
_atom_site_fract_y
_atom_site_fract_z
_atom_type_partial_charge
O0 O 0.02408 0.06119 0.55081 0.0
Cd1 Cd 0.01498 0.07071 0.578 0.0
Cd2 Cd 0.07002 0.00473 0.58099 0.0
O3 O 0.07259 0.01229 0.55362 0.0
O4 O 0.99132 0.12801 0.58016 0.0
O5 O 0.05436 0.11049 0.59028 0.0
C6 C 0.02621 0.13895 0.58758 0.0
C7 C 0.13216 0.9881 0.5962 0.0
C8 C 0.05003 0.03595 0.54384 0.0
C9 C 0.98153 0.99194 0.59444 0.0
O10 O 0.01694 0.97606 0.59071 0.0
O11 O 0.9746 0.03055 0.59152 0.0
O12 O 0.11513 0.96266 0.58503 0.0
O13 O 0.11433 0.0238 0.59869 0.0
O14 O 0.27384 0.72438 0.80051 0.0
Cd15 Cd 0.25688 0.71705 0.82706 0.0
Cd16 Cd 0.30942 0.7831 0.83183 0.0
O17 O 0.29962 0.78766 0.80445 0.0
O18 O 0.20055 0.69016 0.82814 0.0
O19 O 0.21274 0.75533 0.83674 0.0
C20 C 0.18637 0.72514 0.83419 0.0
C21 C 0.32208 0.84595 0.84681 0.0
C22 C 0.28863 0.75822 0.7941 0.0
C23 C 0.33507 0.69748 0.84635 0.0
O24 O 0.34585 0.73438 0.8418 0.0
O25 O 0.29815 0.68452 0.84313 0.0
O26 O 0.34756 0.83173 0.83499 0.0
O27 O 0.28824 0.82504 0.85 0.0
O28 O 0.60347 0.95984 0.05214 0.0
Cd29 Cd 0.60782 0.94252 0.07892 0.0
Cd30 Cd 0.55326 0.00607 0.0842 0.0
O31 O 0.5579 0.01055 0.05678 0.0
O32 O 0.62258 0.88204 0.08048 0.0
O33 O 0.56132 0.90761 0.08914 0.0
C34 C 0.58537 0.87558 0.08676 0.0
C35 C 0.4875 0.01977 0.09666 0.0
C36 C 0.58073 0.98954 0.04623 0.0
C37 C 0.63929 0.01361 0.10096 0.0
O38 O 0.60338 0.02964 0.09819 0.0
O39 O 0.64787 0.97752 0.0949 0.0
O40 O 0.50856 0.04816 0.08833 0.0
O41 O 0.50344 0.98281 0.09794 0.0
O42 O 0.36074 0.29247 0.30202 0.0
Cd43 Cd 0.3739 0.29278 0.32914 0.0
Cd44 Cd 0.31817 0.2285 0.3292 0.0
O45 O 0.32936 0.23101 0.30195 0.0
O46 O 0.43001 0.31916 0.33231 0.0
O47 O 0.41699 0.25261 0.33871 0.0
C48 C 0.44362 0.28308 0.33759 0.0
C49 C 0.30208 0.16424 0.34284 0.0
C50 C 0.34375 0.26257 0.2935 0.0
C51 C 0.29306 0.31113 0.34602 0.0
O52 O 0.28222 0.27596 0.33966 0.0
O53 O 0.33088 0.3234 0.34486 0.0
O54 O 0.27844 0.18046 0.33063 0.0
O55 O 0.33653 0.18337 0.34679 0.0
O56 O 0.03059 0.94603 0.43363 0.0
Cd57 Cd 0.02136 0.9359 0.4065 0.0
Cd58 Cd 0.07532 0.00361 0.40346 0.0
O59 O 0.07576 0.99817 0.43097 0.0
O60 O 0.99537 0.87939 0.40489 0.0
O61 O 0.05865 0.89399 0.39438 0.0
C62 C 0.02935 0.86682 0.3973 0.0
C63 C 0.13837 0.01851 0.38881 0.0
C64 C 0.05449 0.97322 0.44067 0.0
C65 C 0.98769 0.01388 0.38881 0.0
O66 O 0.02291 0.03068 0.39228 0.0
O67 O 0.98108 0.97565 0.39272 0.0
O68 O 0.12084 0.04515 0.39925 0.0
O69 O 0.12056 0.98256 0.38679 0.0
O70 O 0.36367 0.71577 0.68157 0.0
Cd71 Cd 0.37595 0.7169 0.65438 0.0
Cd72 Cd 0.31759 0.77794 0.65449 0.0
O73 O 0.33024 0.77605 0.68168 0.0
O74 O 0.43471 0.69803 0.65043 0.0
O75 O 0.41289 0.76274 0.645 0.0
C76 C 0.44327 0.73595 0.64556 0.0
C77 C 0.29825 0.84157 0.64108 0.0
C78 C 0.34608 0.74516 0.69012 0.0
C79 C 0.29618 0.69421 0.63753 0.0
O80 O 0.28378 0.72867 0.64405 0.0
O81 O 0.3346 0.68394 0.63856 0.0
O82 O 0.27562 0.82403 0.65327 0.0
O83 O 0.33337 0.82409 0.63696 0.0
O84 O 0.60564 0.04792 0.93397 0.0
Cd85 Cd 0.611 0.06489 0.90721 0.0
Cd86 Cd 0.54647 0.0084 0.90247 0.0
O87 O 0.55275 0.00423 0.92988 0.0
O88 O 0.6355 0.12214 0.90575 0.0
O89 O 0.57039 0.10723 0.89743 0.0
C90 C 0.59965 0.13477 0.8997 0.0
C91 C 0.4793 0.99683 0.89068 0.0
C92 C 0.57916 0.02181 0.94014 0.0
C93 C 0.63019 0.99093 0.88461 0.0
O94 O 0.59262 0.98003 0.88783 0.0
O95 O 0.64464 0.02501 0.8908 0.0
O96 O 0.49926 0.96839 0.89945 0.0
O97 O 0.49689 0.03294 0.88881 0.0
O98 O 0.26682 0.28606 0.18355 0.0
Cd99 Cd 0.25111 0.29451 0.15688 0.0
Cd100 Cd 0.30366 0.22769 0.15249 0.0
O101 O 0.29139 0.22238 0.17963 0.0
O102 O 0.1951 0.32179 0.1554 0.0
O103 O 0.20715 0.25701 0.14633 0.0
C104 C 0.18092 0.28723 0.14884 0.0
C105 C 0.3207 0.1654 0.1379 0.0
C106 C 0.28053 0.25179 0.18997 0.0
C107 C 0.33048 0.31412 0.13888 0.0
O108 O 0.34044 0.27699 0.14338 0.0
O109 O 0.29354 0.32743 0.14159 0.0
O110 O 0.3439 0.18055 0.1504 0.0
O111 O 0.28654 0.1849 0.13382 0.0
O112 O 0.85614 0.22001 0.18315 0.0
Cd113 Cd 0.87066 0.21267 0.15637 0.0
Cd114 Cd 0.81572 0.27742 0.15295 0.0
O115 O 0.83095 0.28375 0.17975 0.0
O116 O 0.92673 0.18562 0.15485 0.0
O117 O 0.91429 0.2505 0.14558 0.0
C118 C 0.94069 0.22035 0.14819 0.0
C119 C 0.7959 0.33805 0.13719 0.0
C120 C 0.84267 0.25381 0.18987 0.0
C121 C 0.79006 0.19024 0.14052 0.0
O122 O 0.77936 0.22657 0.14563 0.0
O123 O 0.82809 0.17877 0.14165 0.0
O124 O 0.77437 0.32379 0.15047 0.0
O125 O 0.83006 0.31881 0.13306 0.0
O126 O 0.77493 0.7807 0.68038 0.0
Cd127 Cd 0.75891 0.78562 0.65352 0.0
Cd128 Cd 0.81904 0.72551 0.64906 0.0
O129 O 0.82179 0.73078 0.67652 0.0
O130 O 0.69954 0.80451 0.65146 0.0
O131 O 0.72115 0.74153 0.64338 0.0
C132 C 0.69071 0.7678 0.64538 0.0
C133 C 0.83409 0.65971 0.63717 0.0
C134 C 0.80225 0.75567 0.68671 0.0
C135 C 0.83261 0.81035 0.63141 0.0
O136 O 0.84567 0.77354 0.63463 0.0
O137 O 0.79735 0.82235 0.63742 0.0
O138 O 0.86138 0.68062 0.64611 0.0
O139 O 0.79717 0.67554 0.63516 0.0
O140 O 0.76575 0.20317 0.30178 0.0
Cd141 Cd 0.75205 0.20183 0.32885 0.0
Cd142 Cd 0.8069 0.26746 0.32953 0.0
O143 O 0.79726 0.26456 0.30217 0.0
O144 O 0.69593 0.17535 0.33187 0.0
O145 O 0.7089 0.24175 0.33818 0.0
C146 C 0.68231 0.21127 0.33708 0.0
C147 C 0.82205 0.33277 0.342 0.0
C148 C 0.78306 0.2335 0.29351 0.0
C149 C 0.83209 0.18496 0.34726 0.0
O150 O 0.84262 0.22075 0.34123 0.0
O151 O 0.79491 0.17156 0.34507 0.0
O152 O 0.84646 0.31558 0.33051 0.0
O153 O 0.78755 0.31376 0.34602 0.0
O154 O 0.85809 0.79094 0.79838 0.0
Cd155 Cd 0.87534 0.80119 0.82489 0.0
Cd156 Cd 0.8073 0.74692 0.83148 0.0
O157 O 0.80666 0.7463 0.804 0.0
O158 O 0.93261 0.82624 0.82411 0.0
O159 O 0.91943 0.76411 0.83612 0.0
C160 C 0.94633 0.79283 0.83194 0.0
C161 C 0.78667 0.68477 0.8458 0.0
C162 C 0.82878 0.76711 0.79297 0.0
C163 C 0.80174 0.83596 0.84489 0.0
O164 O 0.78447 0.80051 0.84276 0.0
O165 O 0.83903 0.84254 0.83954 0.0
O166 O 0.76124 0.70611 0.83596 0.0
O167 O 0.82454 0.69838 0.84763 0.0
O168 O 0.50694 0.55139 0.0516 0.0
Cd169 Cd 0.51032 0.56571 0.07856 0.0
Cd170 Cd 0.56539 0.50249 0.0796 0.0
O171 O 0.56285 0.51093 0.05211 0.0
O172 O 0.49635 0.62595 0.08169 0.0
O173 O 0.55947 0.59946 0.08698 0.0
C174 C 0.53506 0.63172 0.08622 0.0
C175 C 0.63008 0.4857 0.09269 0.0
C176 C 0.53391 0.52944 0.0434 0.0
C177 C 0.48127 0.49035 0.09787 0.0
O178 O 0.51447 0.47376 0.09173 0.0
O179 O 0.47451 0.52917 0.09551 0.0
O180 O 0.61107 0.46033 0.08207 0.0
O181 O 0.61293 0.52152 0.09566 0.0
O182 O 0.10897 0.45724 0.54901 0.0
Cd183 Cd 0.11901 0.44202 0.57576 0.0
Cd184 Cd 0.06204 0.50331 0.58195 0.0
O185 O 0.06264 0.5068 0.55445 0.0
O186 O 0.14208 0.38428 0.57689 0.0
O187 O 0.0797 0.40135 0.58766 0.0
C188 C 0.10762 0.37299 0.5846 0.0
C189 C 0.99739 0.51365 0.59589 0.0
C190 C 0.08432 0.48579 0.54349 0.0
C191 C 0.14948 0.51609 0.59638 0.0
O192 O 0.1125 0.53026 0.59452 0.0
O193 O 0.15896 0.48033 0.59025 0.0
O194 O 0.01565 0.54287 0.5869 0.0
O195 O 0.01558 0.47772 0.59705 0.0
O196 O 0.5147 0.4568 0.93286 0.0
Cd197 Cd 0.50903 0.44056 0.90617 0.0
Cd198 Cd 0.56938 0.50132 0.90198 0.0
O199 O 0.57545 0.48869 0.92911 0.0
O200 O 0.48504 0.38307 0.90524 0.0
O201 O 0.54948 0.39853 0.89626 0.0
C202 C 0.52061 0.37074 0.89895 0.0
C203 C 0.63069 0.52272 0.88729 0.0
C204 C 0.54722 0.47401 0.93937 0.0
C205 C 0.48112 0.51755 0.88777 0.0
O206 O 0.51631 0.53242 0.89272 0.0
O207 O 0.47283 0.4791 0.89029 0.0
O208 O 0.61339 0.54516 0.89946 0.0
O209 O 0.61371 0.4872 0.8835 0.0
O210 O 0.09691 0.54161 0.43146 0.0
Cd211 Cd 0.106 0.55818 0.40483 0.0
Cd212 Cd 0.04995 0.49405 0.3988 0.0
O213 O 0.0503 0.49194 0.42635 0.0
O214 O 0.13163 0.61497 0.40482 0.0
O215 O 0.06861 0.6018 0.39361 0.0
C216 C 0.09782 0.62855 0.39723 0.0
C217 C 0.986 0.48042 0.38453 0.0
C218 C 0.07247 0.51306 0.43718 0.0
C219 C 0.13792 0.48433 0.38453 0.0
O220 O 0.1017 0.46851 0.38674 0.0
O221 O 0.14601 0.52092 0.39013 0.0
O222 O 0.00508 0.45241 0.39393 0.0
O223 O 1.0029 0.51698 0.38319 0.0
H224 H 0.10216 0.17667 0.59084 0.0
H225 H 0.96924 0.20144 0.5919 0.0
H226 H 0.98292 0.27654 0.5932 0.0
H227 H 0.03242 0.3353 0.59073 0.0
H228 H 0.16511 0.31035 0.58732 0.0
H229 H 0.15185 0.23544 0.59038 0.0
C230 C 0.07624 0.19849 0.59171 0.0
C231 C 0.03477 0.18355 0.59122 0.0
C232 C 0.08431 0.2417 0.59183 0.0
C233 C 1.00146 0.2122 0.59217 0.0
C234 C 0.00925 0.25516 0.59287 0.0
C235 C 0.05845 0.3135 0.59095 0.0
C236 C 0.09965 0.32834 0.5887 0.0
C237 C 0.05051 0.27032 0.59219 0.0
C238 C 0.13306 0.29969 0.5889 0.0
C239 C 0.12551 0.25682 0.59064 0.0
H240 H 0.98868 0.71988 0.83733 0.0
H241 H 0.00624 0.85339 0.83325 0.0
H242 H 0.08212 0.84447 0.83544 0.0
H243 H 0.14378 0.79851 0.83609 0.0
H244 H 0.12652 0.66476 0.838 0.0
H245 H 0.05051 0.67396 0.83924 0.0
C246 C 0.00912 0.74702 0.83717 0.0
C247 C 0.99185 0.78721 0.83509 0.0
C248 C 0.05288 0.7416 0.83794 0.0
C249 C 0.01875 0.82207 0.83475 0.0
C250 C 0.06218 0.81702 0.83599 0.0
C251 C 0.1234 0.77141 0.83705 0.0
C252 C 0.14078 0.73103 0.83693 0.0
C253 C 0.07965 0.77689 0.83724 0.0
C254 C 0.11392 0.6962 0.83799 0.0
C255 C 0.07043 0.70142 0.83868 0.0
H256 H 0.49017 0.70298 0.09112 0.0
H257 H 0.61695 0.65663 0.08774 0.0
H258 H 0.64395 0.72809 0.08882 0.0
H259 H 0.63124 0.80394 0.08823 0.0
H260 H 0.50451 0.85024 0.09211 0.0
H261 H 0.47789 0.77863 0.09349 0.0
C262 C 0.52373 0.70848 0.0908 0.0
C263 C 0.55146 0.67451 0.08916 0.0
C264 C 0.53906 0.74967 0.09142 0.0
C265 C 0.59488 0.68217 0.08897 0.0
C266 C 0.61036 0.72307 0.08951 0.0
C267 C 0.59782 0.79838 0.08956 0.0
C268 C 0.56988 0.83242 0.08986 0.0
C269 C 0.5827 0.75709 0.09035 0.0
C270 C 0.52672 0.82465 0.0918 0.0
C271 C 0.51143 0.78368 0.09252 0.0
H272 H 0.64112 0.28512 0.34126 0.0
H273 H 0.62145 0.15163 0.34013 0.0
H274 H 0.54577 0.16196 0.34204 0.0
H275 H 0.48487 0.20898 0.34128 0.0
H276 H 0.5045 0.34251 0.34095 0.0
H277 H 0.58024 0.33206 0.34254 0.0
C278 C 0.62032 0.25827 0.34169 0.0
C279 C 0.63697 0.21769 0.34044 0.0
C280 C 0.57668 0.26444 0.34241 0.0
C281 C 0.60951 0.18325 0.34096 0.0
C282 C 0.56616 0.18911 0.34203 0.0
C283 C 0.50568 0.23579 0.34183 0.0
C284 C 0.489 0.27645 0.34089 0.0
C285 C 0.54934 0.22958 0.34235 0.0
C286 C 0.51647 0.31085 0.34154 0.0
C287 C 0.55985 0.30492 0.34243 0.0
H288 H 0.10302 0.82526 0.39356 0.0
H289 H 0.96889 0.80753 0.393 0.0
H290 H 0.9783 0.73195 0.39086 0.0
H291 H 0.02456 0.67054 0.39219 0.0
H292 H 0.15856 0.68826 0.39511 0.0
H293 H 0.14938 0.76394 0.39313 0.0
C294 C 0.0759 0.80488 0.39264 0.0
C295 C 0.03535 0.82193 0.39348 0.0
C296 C 0.08154 0.76133 0.39201 0.0
C297 C 1.00046 0.79512 0.39247 0.0
C298 C 0.0058 0.75188 0.39128 0.0
C299 C 0.05175 0.69097 0.3921 0.0
C300 C 0.09214 0.67384 0.39387 0.0
C301 C 0.04618 0.73456 0.3915 0.0
C302 C 0.12709 0.7007 0.39388 0.0
C303 C 0.12188 0.744 0.39276 0.0
H304 H 0.51122 0.68576 0.641 0.0
H305 H 0.4742 0.81541 0.64287 0.0
H306 H 0.54769 0.83688 0.64167 0.0
H307 H 0.62257 0.81864 0.64285 0.0
H308 H 0.65962 0.68905 0.64059 0.0
H309 H 0.58606 0.66783 0.63902 0.0
C310 C 0.5192 0.71874 0.64093 0.0
C311 C 0.48724 0.7489 0.64223 0.0
C312 C 0.56156 0.73089 0.64029 0.0
C313 C 0.49812 0.79151 0.64192 0.0
C314 C 0.54019 0.80383 0.64132 0.0
C315 C 0.61457 0.78577 0.64182 0.0
C316 C 0.64656 0.75546 0.64205 0.0
C317 C 0.57219 0.77377 0.64093 0.0
C318 C 0.63566 0.71304 0.64049 0.0
C319 C 0.59356 0.70085 0.63966 0.0
H320 H 0.59604 0.33182 0.89551 0.0
H321 H 0.46276 0.30829 0.89628 0.0
H322 H 0.47541 0.23312 0.89483 0.0
H323 H 0.52432 0.17381 0.89584 0.0
H324 H 0.65761 0.19726 0.89692 0.0
H325 H 0.64499 0.27246 0.89501 0.0
C326 C 0.56977 0.31026 0.8951 0.0
C327 C 0.52854 0.32566 0.89606 0.0
C328 C 0.57728 0.26694 0.89472 0.0
C329 C 0.49483 0.29727 0.89565 0.0
C330 C 0.50203 0.25424 0.89484 0.0
C331 C 0.55061 0.19535 0.89541 0.0
C332 C 0.59182 0.17992 0.89659 0.0
C333 C 0.54312 0.23866 0.89475 0.0
C334 C 0.62554 0.2083 0.89613 0.0
C335 C 0.61837 0.25135 0.89505 0.0
H336 H 0.13805 0.21436 0.14452 0.0
H337 H 0.12145 0.34814 0.14606 0.0
H338 H 0.04549 0.33938 0.14404 0.0
H339 H 0.9835 0.29356 0.14454 0.0
H340 H 1.00011 0.1597 0.145 0.0
H341 H 0.07609 0.16862 0.14336 0.0
C342 C 0.11784 0.2416 0.14414 0.0
C343 C 0.13541 0.28182 0.14551 0.0
C344 C 0.07406 0.2363 0.14345 0.0
C345 C 0.10874 0.31681 0.14513 0.0
C346 C 0.06526 0.31183 0.14399 0.0
C347 C 1.00373 0.26636 0.14399 0.0
C348 C 0.98616 0.22604 0.14495 0.0
C349 C 0.04751 0.27171 0.14355 0.0
C350 C 0.01283 0.1911 0.14438 0.0
C351 C 0.05632 0.19616 0.14346 0.0
H352 H 0.05436 0.04525 0.45918 0.0
H353 H 0.0562 0.91128 0.46595 0.0
H354 H 0.05754 0.91921 0.49872 0.0
H355 H 0.05685 0.96442 0.52531 0.0
H356 H 0.0468 0.09803 0.51857 0.0
H357 H 0.04998 0.09035 0.4858 0.0
C358 C 0.05534 0.01788 0.46789 0.0
C359 C 0.05571 0.97776 0.46032 0.0
C360 C 0.05451 0.02273 0.48661 0.0
C361 C 0.05603 0.94241 0.4716 0.0
C362 C 0.05682 0.94696 0.49026 0.0
C363 C 0.05564 0.99181 0.51662 0.0
C364 C 0.05214 0.03176 0.52419 0.0
C365 C 0.05593 0.98697 0.4979 0.0
C366 C 0.04962 0.06703 0.51292 0.0
C367 C 0.05148 0.06262 0.49425 0.0
H368 H 0.31194 0.69736 0.7712 0.0
H369 H 0.28419 0.82909 0.77375 0.0
H370 H 0.30075 0.83707 0.74178 0.0
H371 H 0.32302 0.80644 0.71318 0.0
H372 H 0.3549 0.6754 0.71114 0.0
H373 H 0.3376 0.66745 0.74294 0.0
C374 C 0.30913 0.72768 0.76467 0.0
C375 C 0.2963 0.76248 0.77465 0.0
C376 C 0.32 0.73225 0.74649 0.0
C377 C 0.29376 0.80184 0.76623 0.0
C378 C 0.30334 0.80643 0.748 0.0
C379 C 0.32645 0.7762 0.71972 0.0
C380 C 0.34009 0.74156 0.70978 0.0
C381 C 0.31664 0.77186 0.73802 0.0
C382 C 0.34467 0.70264 0.71849 0.0
C383 C 0.33448 0.69797 0.73665 0.0
H384 H 0.58016 0.93875 0.01723 0.0
H385 H 0.58459 0.06817 0.03285 0.0
H386 H 0.58721 0.09001 0.00127 0.0
H387 H 0.58675 0.07219 0.96909 0.0
H388 H 0.5741 0.94327 0.95352 0.0
H389 H 0.57621 0.92114 0.98507 0.0
C390 C 0.58186 0.97164 0.01363 0.0
C391 C 0.58242 1.00185 0.02718 0.0
C392 C 0.58179 0.98399 -0.00453 0.0
C393 C 0.58401 0.04446 0.02251 0.0
C394 C 0.58559 0.05694 0.0045 0.0
C395 C 0.58461 0.03932 0.9727 0.0
C396 C 0.5805 0.00932 0.95917 0.0
C397 C 0.58428 0.027 0.99086 0.0
C398 C 0.57714 0.96682 0.96385 0.0
C399 C 0.57843 0.95416 0.98184 0.0
H400 H 0.30564 0.31199 0.21286 0.0
H401 H 0.27436 0.18097 0.2103 0.0
H402 H 0.29236 0.1723 0.24214 0.0
H403 H 0.31751 0.20203 0.27055 0.0
H404 H 0.35283 0.33234 0.2725 0.0
H405 H 0.33354 0.34103 0.24093 0.0
C406 C 0.30229 0.28169 0.21937 0.0
C407 C 0.28812 0.24729 0.20942 0.0
C408 C 0.31406 0.27669 0.23745 0.0
C409 C 0.28492 0.20793 0.21781 0.0
C410 C 0.29537 0.20295 0.23595 0.0
C411 C 0.32127 0.23227 0.26405 0.0
C412 C 0.33651 0.26647 0.2739 0.0
C413 C 0.31024 0.23707 0.24586 0.0
C414 C 0.34138 0.30539 0.26523 0.0
C415 C 0.33006 0.31051 0.2472 0.0
H416 H 0.82064 0.19121 0.21246 0.0
H417 H 0.84739 0.32338 0.2107 0.0
H418 H 0.83042 0.32901 0.2427 0.0
H419 H 0.80717 0.29635 0.27098 0.0
H420 H 0.77621 0.16486 0.27211 0.0
H421 H 0.7949 0.15913 0.24042 0.0
C422 C 0.82326 0.22111 0.21917 0.0
C423 C 0.83583 0.25672 0.2094 0.0
C424 C 0.81207 0.22434 0.23734 0.0
C425 C 0.83808 0.29552 0.21806 0.0
C426 C 0.82821 0.29876 0.2363 0.0
C427 C 0.80429 0.26648 0.26427 0.0
C428 C 0.79039 0.23109 0.27392 0.0
C429 C 0.81489 0.26342 0.24602 0.0
C430 C 0.78659 0.19267 0.26499 0.0
C431 C 0.79756 0.18927 0.24689 0.0
H432 H 0.75029 0.76538 0.71515 0.0
H433 H 0.88017 0.74899 0.70092 0.0
H434 H 0.90063 0.75312 0.73258 0.0
H435 H 0.88137 0.76123 0.76447 0.0
H436 H 0.75081 0.76995 0.77884 0.0
H437 H 0.73067 0.76904 0.74709 0.0
C438 C 0.783 0.76277 0.71906 0.0
C439 C 0.81373 0.75714 0.70586 0.0
C440 C 0.79436 0.7638 0.73731 0.0
C441 C 0.85601 0.75318 0.71097 0.0
C442 C 0.86774 0.75567 0.72902 0.0
C443 C 0.84861 0.76298 0.76055 0.0
C444 C 0.81759 0.7659 0.7738 0.0
C445 C 0.83718 0.76097 0.74232 0.0
C446 C 0.77514 0.76757 0.76875 0.0
C447 C 0.76362 0.76714 0.75064 0.0
H448 H 0.48595 0.49651 0.96233 0.0
H449 H 0.6177 0.46716 0.95973 0.0
H450 H 0.62539 0.48192 -0.00815 0.0
H451 H 0.59468 0.50407 0.02048 0.0
H452 H 0.46404 0.53886 0.02251 0.0
H453 H 0.45593 0.52179 0.99071 0.0
C454 C 0.51617 0.49293 0.9689 0.0
C455 C 0.5511 0.48019 0.95888 0.0
C456 C 0.52063 0.50302 0.98715 0.0
C457 C 0.59038 0.47665 0.96732 0.0
C458 C 0.59479 0.48522 0.98561 0.0
C459 C 0.56448 0.50806 0.01394 0.0
C460 C 0.53 0.52259 0.02384 0.0
C461 C 0.56017 0.49868 -0.00437 0.0
C462 C 0.49114 0.52798 0.01516 0.0
C463 C 0.4864 0.51795 -0.00299 0.0
H464 H 0.07589 0.43385 0.51509 0.0
H465 H 0.08884 0.56356 0.52936 0.0
H466 H 0.08726 0.58395 0.49758 0.0
H467 H 0.08243 0.56467 0.46567 0.0
H468 H 0.06229 0.43564 0.45157 0.0
H469 H 0.06604 0.4151 0.48325 0.0
C470 C 0.07841 0.46648 0.51114 0.0
C471 C 0.08282 0.49719 0.52434 0.0
C472 C 0.07597 0.47806 0.49291 0.0
C473 C 0.08541 0.53949 0.51927 0.0
C474 C 0.08455 0.55114 0.50116 0.0
C475 C 0.07876 0.53213 0.4696 0.0
C476 C 0.07228 0.5017 0.4564 0.0
C477 C 0.07984 0.52069 0.48785 0.0
C478 C 0.06707 0.45965 0.46157 0.0
C479 C 0.06941 0.44784 0.47965 0.0
H480 H 0.24935 0.9044 0.65325 0.0
H481 H 0.30706 0.85644 0.60528 0.0
H482 H 0.26307 0.90221 0.58669 0.0
H483 H 0.20028 0.94691 0.58417 0.0
H484 H 0.14485 0.99766 0.63206 0.0
H485 H 0.19623 0.96025 0.6507 0.0
C486 C 0.25307 0.90494 0.63875 0.0
C487 C 0.28091 0.87685 0.63058 0.0
C488 C 0.22775 0.9314 0.62818 0.0
C489 C 0.28588 0.87793 0.61183 0.0
C490 C 0.26044 0.90378 0.6012 0.0
C491 C 0.20028 0.95057 0.59866 0.0
C492 C 0.16874 0.97443 0.60683 0.0
C493 C 0.23008 0.92929 0.60922 0.0
C494 C 0.16901 0.97945 0.62555 0.0
C495 C 0.19815 0.95783 0.63619 0.0
H496 H 0.35961 0.91684 0.83519 0.0
H497 H 0.31485 0.8542 0.88295 0.0
H498 H 0.35568 0.9019 0.90175 0.0
H499 H 0.41488 0.95137 0.90385 0.0
H500 H 0.45807 0.01551 0.8562 0.0
H501 H 0.40633 0.97802 0.83801 0.0
C502 C 0.35773 0.91469 0.84974 0.0
C503 C 0.33491 0.88191 0.85776 0.0
C504 C 0.38134 0.94212 0.8604 0.0
C505 C 0.33224 0.87934 0.87656 0.0
C506 C 0.3559 0.90632 0.88728 0.0
C507 C 0.41181 0.95815 0.88958 0.0
C508 C 0.44034 0.98558 0.88125 0.0
C509 C 0.38216 0.93638 0.87927 0.0
C510 C 0.43622 0.99454 0.86283 0.0
C511 C 0.40698 0.97278 0.85243 0.0
H512 H 0.4233 0.06411 0.08265 0.0
H513 H 0.46553 1.00251 0.13114 0.0
H514 H 0.41129 0.03839 0.14845 0.0
H515 H 0.36122 0.09693 0.1503 0.0
H516 H 0.31719 0.1566 0.10165 0.0
H517 H 0.36201 0.11105 0.08369 0.0
C518 C 0.41961 0.05763 0.09691 0.0
C519 C 0.44837 0.03129 0.10574 0.0
C520 C 0.38837 0.07825 0.10669 0.0
C521 C 0.44349 0.02266 0.12414 0.0
C522 C 0.41277 0.04344 0.13403 0.0
C523 C 0.36048 0.09889 0.13573 0.0
C524 C 0.33654 0.13024 0.12725 0.0
C525 C 0.38636 0.0727 0.12556 0.0
C526 C 0.33537 0.13254 0.1084 0.0
C527 C 0.36131 0.10682 0.09817 0.0
H528 H 0.2063 0.06076 0.40065 0.0
H529 H 0.15199 0.00571 0.35326 0.0
H530 H 0.20334 0.04219 0.33435 0.0
H531 H 0.25539 0.09897 0.33125 0.0
H532 H 0.31185 0.1515 0.37875 0.0
H533 H 0.26873 0.106 0.39777 0.0
C534 C 0.2066 0.05591 0.38622 0.0
C535 C 0.17531 0.03117 0.37825 0.0
C536 C 0.23634 0.07672 0.37551 0.0
C537 C 0.17595 0.02462 0.35962 0.0
C538 C 0.20506 0.04572 0.34882 0.0
C539 C 0.25913 0.09942 0.34575 0.0
C540 C 0.28624 0.12879 0.35364 0.0
C541 C 0.23423 0.07319 0.35658 0.0
C542 C 0.29122 0.12903 0.37241 0.0
C543 C 0.26625 0.10333 0.38328 0.0
H544 H 0.99015 0.09694 0.3814 0.0
H545 H 0.90883 0.98914 0.37841 0.0
H546 H 0.85279 0.0328 0.36592 0.0
H547 H 0.82721 0.1017 0.35557 0.0
H548 H 0.90964 0.20874 0.35864 0.0
H549 H 0.96472 0.16515 0.37153 0.0
C550 C 0.96024 0.08282 0.37799 0.0
C551 C 0.95384 0.03975 0.38079 0.0
C552 C 0.92821 0.10804 0.37091 0.0
C553 C 0.91472 0.02219 0.37635 0.0
C554 C 0.8826 0.04716 0.36924 0.0
C555 C 0.85711 0.11553 0.35919 0.0
C556 C 0.86421 0.15845 0.35612 0.0
C557 C 0.889 0.09015 0.36647 0.0
C558 C 0.90327 0.1758 0.36079 0.0
C559 C 0.93489 0.15089 0.36815 0.0
H560 H 0.63087 0.09226 0.11356 0.0
H561 H 0.72155 0.99308 0.10801 0.0
H562 H 0.77648 0.03889 0.11989 0.0
H563 H 0.79907 0.10832 0.13071 0.0
H564 H 0.70723 0.2069 0.13537 0.0
H565 H 0.6526 0.16001 0.1248 0.0
C566 C 0.66254 0.08035 0.11505 0.0
C567 C 0.672 0.03924 0.10985 0.0
C568 C 0.69393 0.10694 0.12156 0.0
C569 C 0.71332 0.02456 0.11193 0.0
C570 C 0.74479 0.05082 0.11863 0.0
C571 C 0.76713 0.11955 0.12938 0.0
C572 C 0.75744 0.16122 0.13377 0.0
C573 C 0.73556 0.0923 0.12326 0.0
C574 C 0.71577 0.17511 0.13206 0.0
C575 C 0.68437 0.14828 0.12604 0.0
H576 H 0.71759 0.84027 0.84628 0.0
H577 H 0.82929 0.90911 0.86028 0.0
H578 H 0.78602 0.96501 0.87296 0.0
H579 H 0.7159 0.99272 0.88102 0.0
H580 H 0.60541 0.92262 0.86597 0.0
H581 H 0.64894 0.8691 0.85256 0.0
C582 C 0.73263 0.86739 0.85218 0.0
C583 C 0.77658 0.87026 0.85259 0.0
C584 C 0.70773 0.89934 0.85915 0.0
C585 C 0.79546 0.90606 0.85992 0.0
C586 C 0.77073 0.93801 0.86714 0.0
C587 C 0.7014 0.96599 0.87461 0.0
C588 C 0.6574 0.96163 0.87467 0.0
C589 C 0.72675 0.93485 0.86692 0.0
C590 C 0.63914 0.92674 0.86629 0.0
C591 C 0.664 0.89596 0.85863 0.0
H592 H 0.82791 0.89586 0.62945 0.0
H593 H 0.90105 0.7904 0.61166 0.0
H594 H 0.95284 0.83738 0.59863 0.0
H595 H 0.97949 0.90766 0.5936 0.0
H596 H 0.90774 0.01432 0.61086 0.0
H597 H 0.85334 0.96758 0.6228 0.0
C598 C 0.85489 0.88323 0.62251 0.0
C599 C 0.86066 0.83963 0.62167 0.0
C600 C 0.88507 0.91056 0.61514 0.0
C601 C 0.8959 0.82378 0.61266 0.0
C602 C 0.92567 0.85062 0.60521 0.0
C603 C 0.95203 0.92083 0.60001 0.0
C604 C 0.94796 0.9644 0.60154 0.0
C605 C 0.92097 0.89395 0.60667 0.0
C606 C 0.91176 0.98085 0.6096 0.0
C607 C 0.88064 0.95414 0.61641 0.0
H608 H 0.75334 0.40599 0.14844 0.0
H609 H 0.79806 0.34473 0.10076 0.0
H610 H 0.75319 0.38943 0.08202 0.0
H611 H 0.69302 0.43774 0.07994 0.0
H612 H 0.65071 0.50137 0.12746 0.0
H613 H 0.70336 0.46448 0.14558 0.0
C614 C 0.75407 0.40335 0.1339 0.0
C615 C 0.77844 0.37195 0.12594 0.0
C616 C 0.72832 0.42919 0.12326 0.0
C617 C 0.77958 0.36884 0.10713 0.0
C618 C 0.75364 0.3941 0.09645 0.0
C619 C 0.69615 0.44424 0.09419 0.0
C620 C 0.66783 0.47166 0.10247 0.0
C621 C 0.72664 0.42315 0.10445 0.0
C622 C 0.67227 0.48035 0.12084 0.0
C623 C 0.70213 0.45904 0.13121 0.0
H624 H 0.86706 0.39796 0.32898 0.0
H625 H 0.81207 0.34831 0.37757 0.0
H626 H 0.85502 0.39566 0.39562 0.0
H627 H 0.91772 0.44076 0.39746 0.0
H628 H 0.97096 0.49249 0.34896 0.0
H629 H 0.91873 0.4553 0.33086 0.0
C630 C 0.86354 0.3986 0.34349 0.0
C631 C 0.83703 0.36945 0.35201 0.0
C632 C 0.8884 0.4258 0.35374 0.0
C633 C 0.83228 0.3706 0.37076 0.0
C634 C 0.85715 0.39734 0.38108 0.0
C635 C 0.91686 0.44489 0.38296 0.0
C636 C 0.94812 0.46876 0.37444 0.0
C637 C 0.88674 0.42354 0.37273 0.0
C638 C 0.94694 0.47429 0.35572 0.0
C639 C 0.91736 0.45275 0.34539 0.0
H640 H 0.92709 0.54915 0.58272 0.0
H641 H 0.98351 0.50194 0.63149 0.0
H642 H 0.93098 0.53862 0.64943 0.0
H643 H 0.87902 0.5956 0.65088 0.0
H644 H 0.82108 0.64105 0.60212 0.0
H645 H 0.86338 0.59272 0.58438 0.0
C646 C 0.92676 0.54573 0.59725 0.0
C647 C 0.95906 0.52346 0.60589 0.0
C648 C 0.89655 0.56691 0.60739 0.0
C649 C 0.95866 0.51888 0.62465 0.0
C650 C 0.92892 0.54017 0.63488 0.0
C651 C 0.8746 0.59363 0.63643 0.0
C652 C 0.84755 0.62191 0.62771 0.0
C653 C 0.89913 0.56596 0.62639 0.0
C654 C 0.84169 0.61932 0.60905 0.0
C655 C 0.86621 0.59205 0.59891 0.0
H656 H 0.7404 0.62175 0.83232 0.0
H657 H 0.7968 0.66652 0.88126 0.0
H658 H 0.75619 0.61553 0.89881 0.0
H659 H 0.69664 0.56621 0.90028 0.0
H660 H 0.64297 0.5188 0.85122 0.0
H661 H 0.69114 0.56221 0.8335 0.0
C662 C 0.74456 0.61941 0.84678 0.0
C663 C 0.77102 0.64786 0.8556 0.0
C664 C 0.7214 0.58989 0.85668 0.0
C665 C 0.77662 0.64468 0.87427 0.0
C666 C 0.75317 0.61582 0.88428 0.0
C667 C 0.69639 0.56463 0.8857 0.0
C668 C 0.66617 0.53992 0.87699 0.0
C669 C 0.7243 0.58943 0.87567 0.0
C670 C 0.66613 0.53761 0.85815 0.0
C671 C 0.69338 0.56267 0.84805 0.0
H672 H 0.48798 0.60108 0.88121 0.0
H673 H 0.40237 0.49713 0.87588 0.0
H674 H 0.34938 0.54369 0.86302 0.0
H675 H 0.32732 0.61392 0.85325 0.0
H676 H 0.41343 0.71751 0.85843 0.0
H677 H 0.46605 0.67101 0.87148 0.0
C678 C 0.45778 0.5885 0.87722 0.0
C679 C 0.44929 0.54559 0.87952 0.0
C680 C 0.4274 0.61542 0.86986 0.0
C681 C 0.40988 0.52998 0.87426 0.0
C682 C 0.37948 0.55661 0.86692 0.0
C683 C 0.35751 0.6264 0.85731 0.0
C684 C 0.36629 0.66922 0.85487 0.0
C685 C 0.38786 0.5994 0.86469 0.0
C686 C 0.40574 0.68472 0.86012 0.0
C687 C 0.43593 0.65814 0.86758 0.0
H688 H 0.14056 0.59616 0.60715 0.0
H689 H 0.23175 0.49684 0.60391 0.0
H690 H 0.28575 0.54343 0.61598 0.0
H691 H 0.30698 0.6129 0.62722 0.0
H692 H 0.21457 0.71137 0.62989 0.0
H693 H 0.16131 0.66449 0.6181 0.0
C694 C 0.17215 0.58444 0.60915 0.0
C695 C 0.18199 0.54298 0.60466 0.0
C696 C 0.20298 0.61139 0.61587 0.0
C697 C 0.22324 0.5286 0.60729 0.0
C698 C 0.25418 0.55526 0.61414 0.0
C699 C 0.27526 0.62414 0.62512 0.0
C700 C 0.2649 0.66566 0.62944 0.0
C701 C 0.24444 0.59685 0.61838 0.0
C702 C 0.22353 0.67961 0.62672 0.0
C703 C 0.19293 0.6528 0.62 0.0
H704 H 0.1333 0.40252 0.37572 0.0
H705 H 0.21834 0.50769 0.37583 0.0
H706 H 0.2745 0.46311 0.36444 0.0
H707 H 0.29939 0.39387 0.35463 0.0
H708 H 0.21329 0.28944 0.35497 0.0
H709 H 0.15778 0.33422 0.36621 0.0
C710 C 0.164 0.41592 0.37316 0.0
C711 C 0.17148 0.45846 0.37657 0.0
C712 C 0.19612 0.39013 0.36685 0.0
C713 C 0.21164 0.47505 0.37328 0.0
C714 C 0.24382 0.44955 0.36683 0.0
C715 C 0.26857 0.38088 0.35729 0.0
C716 C 0.2606 0.33833 0.35395 0.0
C717 C 0.23647 0.40695 0.36366 0.0
C718 C 0.22036 0.32207 0.35736 0.0
C719 C 0.1885 0.34766 0.36377 0.0
H720 H 0.48578 0.40687 0.10451 0.0
H721 H 0.40476 0.51367 0.11124 0.0
H722 H 0.35071 0.46859 0.12429 0.0
H723 H 0.32596 0.3985 0.1333 0.0
H724 H 0.40776 0.29224 0.12656 0.0
H725 H 0.46179 0.33755 0.11391 0.0
C726 C 0.4564 0.42044 0.10889 0.0
C727 C 0.44942 0.46365 0.10685 0.0
C728 C 0.42541 0.39437 0.11629 0.0
C729 C 0.41109 0.48055 0.11265 0.0
C730 C 0.38006 0.45475 0.12007 0.0
C731 C 0.35554 0.38523 0.129 0.0
C732 C 0.36265 0.34197 0.13084 0.0
C733 C 0.38676 0.41156 0.12183 0.0
C734 C 0.40136 0.3254 0.12533 0.0
C735 C 0.43235 0.35129 0.11809 0.0
loop_
_geom_bond_atom_site_label_1
_geom_bond_atom_site_label_2
_geom_bond_distance
_geom_bond_site_symmetry_2
_ccdc_geom_bond_type
O0 Cd1 2.223 . S
O0 C8 1.315 1_655 S
Cd1 O0 2.223 . S
Cd1 O4 2.297 1_655 S
Cd1 O5 2.439 1_655 S
Cd1 O11 2.240 . S
Cd2 O3 2.240 1_565 S
Cd2 O10 2.199 1_455 S
Cd2 O12 2.297 . S
Cd2 O13 2.439 . S
O3 Cd2 2.240 1_545 S
O3 C8 1.279 . S
O4 Cd1 2.297 1_455 S
O4 C6 1.247 . S
O5 Cd1 2.439 1_455 S
O5 C6 1.208 . S
C6 O4 1.247 . S
C6 O5 1.208 . S
C7 O12 1.247 . S
C7 O13 1.208 . S
C8 O0 1.315 1_455 S
C8 O3 1.279 . S
C9 O10 1.329 . S
C9 O11 1.279 1_565 S
O10 Cd2 2.199 1_655 S
O10 C9 1.329 . S
O11 Cd1 2.240 . S
O11 C9 1.279 1_545 S
O12 Cd2 2.297 . S
O12 C7 1.247 . S
O13 Cd2 2.439 . S
O13 C7 1.208 . S
O14 Cd15 2.223 . S
O14 C22 1.315 . S
Cd15 O14 2.223 . S
Cd15 O18 2.297 . S
Cd15 O19 2.439 . S
Cd15 O25 2.240 . S
Cd16 O17 2.240 . S
Cd16 O24 2.223 . S
Cd16 O26 2.297 . S
Cd16 O27 2.439 . S
O17 Cd16 2.240 . S
O17 C22 1.279 . S
O18 Cd15 2.297 . S
O18 C20 1.247 . S
O19 Cd15 2.439 . S
O19 C20 1.208 . S
C20 O18 1.247 . S
C20 O19 1.208 . S
C21 O26 1.247 . S
C21 O27 1.208 . S
C22 O14 1.315 . S
C22 O17 1.279 . S
C23 O24 1.315 . S
C23 O25 1.279 . S
O24 Cd16 2.223 . S
O24 C23 1.315 . S
O25 Cd15 2.240 . S
O25 C23 1.279 . S
O26 Cd16 2.297 . S
O26 C21 1.247 . S
O27 Cd16 2.439 . S
O27 C21 1.208 . S
O28 Cd29 2.223 . S
O28 C36 1.315 . S
Cd29 O28 2.223 . S
Cd29 O32 2.297 . S
Cd29 O33 2.439 . S
Cd29 O39 2.240 . S
Cd30 O31 2.240 1_545 S
Cd30 O38 2.223 . S
Cd30 O40 2.297 . S
Cd30 O41 2.439 . S
O31 Cd30 2.240 1_565 S
O31 C36 1.279 . S
O32 Cd29 2.297 . S
O32 C34 1.247 . S
O33 Cd29 2.439 . S
O33 C34 1.208 . S
C34 O32 1.247 . S
C34 O33 1.208 . S
C35 O40 1.247 . S
C35 O41 1.208 . S
C36 O28 1.315 . S
C36 O31 1.279 . S
C37 O38 1.315 . S
C37 O39 1.279 1_545 S
O38 Cd30 2.223 . S
O38 C37 1.315 . S
O39 Cd29 2.240 . S
O39 C37 1.279 1_565 S
O40 Cd30 2.297 . S
O40 C35 1.247 . S
O41 Cd30 2.439 . S
O41 C35 1.208 . S
O42 Cd43 2.223 . S
O42 C50 1.315 . S
Cd43 O42 2.223 . S
Cd43 O46 2.297 . S
Cd43 O47 2.439 . S
Cd43 O53 2.240 . S
Cd44 O45 2.240 . S
Cd44 O52 2.223 . S
Cd44 O54 2.297 . S
Cd44 O55 2.439 . S
O45 Cd44 2.240 . S
O45 C50 1.279 . S
O46 Cd43 2.297 . S
O46 C48 1.247 . S
O47 Cd43 2.439 . S
O47 C48 1.208 . S
C48 O46 1.247 . S
C48 O47 1.208 . S
C49 O54 1.247 . S
C49 O55 1.208 . S
C50 O42 1.315 . S
C50 O45 1.279 . S
C51 O52 1.315 . S
C51 O53 1.279 . S
O52 Cd44 2.223 . S
O52 C51 1.315 . S
O53 Cd43 2.240 . S
O53 C51 1.279 . S
O54 Cd44 2.297 . S
O54 C49 1.247 . S
O55 Cd44 2.439 . S
O55 C49 1.208 . S
O56 Cd57 2.223 . S
O56 C64 1.315 1_655 S
Cd57 O56 2.223 . S
Cd57 O60 2.297 1_655 S
Cd57 O61 2.439 1_655 S
Cd57 O67 2.240 . S
Cd58 O59 2.240 1_545 S
Cd58 O66 2.199 1_455 S
Cd58 O68 2.297 . S
Cd58 O69 2.439 . S
O59 Cd58 2.240 1_565 S
O59 C64 1.279 . S
O60 Cd57 2.297 1_455 S
O60 C62 1.247 . S
O61 Cd57 2.439 1_455 S
O61 C62 1.208 . S
C62 O60 1.247 . S
C62 O61 1.208 . S
C63 O68 1.247 . S
C63 O69 1.208 . S
C64 O56 1.315 1_455 S
C64 O59 1.279 . S
C65 O66 1.329 . S
C65 O67 1.279 1_545 S
O66 Cd58 2.199 1_655 S
O66 C65 1.329 . S
O67 Cd57 2.240 . S
O67 C65 1.279 1_565 S
O68 Cd58 2.297 . S
O68 C63 1.247 . S
O69 Cd58 2.439 . S
O69 C63 1.208 . S
O70 Cd71 2.223 . S
O70 C78 1.315 . S
Cd71 O70 2.223 . S
Cd71 O74 2.297 . S
Cd71 O75 2.439 . S
Cd71 O81 2.240 . S
Cd72 O73 2.240 . S
Cd72 O80 2.223 . S
Cd72 O82 2.297 . S
Cd72 O83 2.439 . S
O73 Cd72 2.240 . S
O73 C78 1.279 . S
O74 Cd71 2.297 . S
O74 C76 1.247 . S
O75 Cd71 2.439 . S
O75 C76 1.208 . S
C76 O74 1.247 . S
C76 O75 1.208 . S
C77 O82 1.247 . S
C77 O83 1.208 . S
C78 O70 1.315 . S
C78 O73 1.279 . S
C79 O80 1.315 . S
C79 O81 1.279 . S
O80 Cd72 2.223 . S
O80 C79 1.315 . S
O81 Cd71 2.240 . S
O81 C79 1.279 . S
O82 Cd72 2.297 . S
O82 C77 1.247 . S
O83 Cd72 2.439 . S
O83 C77 1.208 . S
O84 Cd85 2.223 . S
O84 C92 1.315 . S
Cd85 O84 2.223 . S
Cd85 O88 2.297 . S
Cd85 O89 2.439 . S
Cd85 O95 2.240 . S
Cd86 O87 2.240 1_565 S
Cd86 O94 2.223 . S
Cd86 O96 2.297 . S
Cd86 O97 2.439 . S
O87 Cd86 2.240 1_545 S
O87 C92 1.279 . S
O88 Cd85 2.297 . S
O88 C90 1.247 . S
O89 Cd85 2.439 . S
O89 C90 1.208 . S
C90 O88 1.247 . S
C90 O89 1.208 . S
C91 O96 1.247 . S
C91 O97 1.208 . S
C92 O84 1.315 . S
C92 O87 1.279 . S
C93 O94 1.315 . S
C93 O95 1.279 1_565 S
O94 Cd86 2.223 . S
O94 C93 1.315 . S
O95 Cd85 2.240 . S
O95 C93 1.279 1_545 S
O96 Cd86 2.297 . S
O96 C91 1.247 . S
O97 Cd86 2.439 . S
O97 C91 1.208 . S
O98 Cd99 2.223 . S
O98 C106 1.315 . S
Cd99 O98 2.223 . S
Cd99 O102 2.297 . S
Cd99 O103 2.439 . S
Cd99 O109 2.240 . S
Cd100 O101 2.240 . S
Cd100 O108 2.223 . S
Cd100 O110 2.297 . S
Cd100 O111 2.439 . S
O101 Cd100 2.240 . S
O101 C106 1.279 . S
O102 Cd99 2.297 . S
O102 C104 1.247 . S
O103 Cd99 2.439 . S
O103 C104 1.208 . S
C104 O102 1.247 . S
C104 O103 1.208 . S
C105 O110 1.247 . S
C105 O111 1.208 . S
C106 O98 1.315 . S
C106 O101 1.279 . S
C107 O108 1.315 . S
C107 O109 1.279 . S
O108 Cd100 2.223 . S
O108 C107 1.315 . S
O109 Cd99 2.240 . S
O109 C107 1.279 . S
O110 Cd100 2.297 . S
O110 C105 1.247 . S
O111 Cd100 2.439 . S
O111 C105 1.208 . S
O112 Cd113 2.223 . S
O112 C120 1.315 . S
Cd113 O112 2.223 . S
Cd113 O116 2.297 . S
Cd113 O117 2.439 . S
Cd113 O123 2.240 . S
Cd114 O115 2.240 . S
Cd114 O122 2.223 . S
Cd114 O124 2.297 . S
Cd114 O125 2.439 . S
O115 Cd114 2.240 . S
O115 C120 1.279 . S
O116 Cd113 2.297 . S
O116 C118 1.247 . S
O117 Cd113 2.439 . S
O117 C118 1.208 . S
C118 O116 1.247 . S
C118 O117 1.208 . S
C119 O124 1.247 . S
C119 O125 1.208 . S
C120 O112 1.315 . S
C120 O115 1.279 . S
C121 O122 1.315 . S
C121 O123 1.279 . S
O122 Cd114 2.223 . S
O122 C121 1.315 . S
O123 Cd113 2.240 . S
O123 C121 1.279 . S
O124 Cd114 2.297 . S
O124 C119 1.247 . S
O125 Cd114 2.439 . S
O125 C119 1.208 . S
O126 Cd127 2.223 . S
O126 C134 1.315 . S
Cd127 O126 2.223 . S
Cd127 O130 2.297 . S
Cd127 O131 2.439 . S
Cd127 O137 2.240 . S
Cd128 O129 2.240 . S
Cd128 O136 2.223 . S
Cd128 O138 2.297 . S
Cd128 O139 2.439 . S
O129 Cd128 2.240 . S
O129 C134 1.279 . S
O130 Cd127 2.297 . S
O130 C132 1.247 . S
O131 Cd127 2.439 . S
O131 C132 1.208 . S
C132 O130 1.247 . S
C132 O131 1.208 . S
C133 O138 1.247 . S
C133 O139 1.208 . S
C134 O126 1.315 . S
C134 O129 1.279 . S
C135 O136 1.315 . S
C135 O137 1.279 . S
O136 Cd128 2.223 . S
O136 C135 1.315 . S
O137 Cd127 2.240 . S
O137 C135 1.279 . S
O138 Cd128 2.297 . S
O138 C133 1.247 . S
O139 Cd128 2.439 . S
O139 C133 1.208 . S
O140 Cd141 2.223 . S
O140 C148 1.315 . S
Cd141 O140 2.223 . S
Cd141 O144 2.297 . S
Cd141 O145 2.439 . S
Cd141 O151 2.240 . S
Cd142 O143 2.240 . S
Cd142 O150 2.223 . S
Cd142 O152 2.297 . S
Cd142 O153 2.439 . S
O143 Cd142 2.240 . S
O143 C148 1.279 . S
O144 Cd141 2.297 . S
O144 C146 1.247 . S
O145 Cd141 2.439 . S
O145 C146 1.208 . S
C146 O144 1.247 . S
C146 O145 1.208 . S
C147 O152 1.247 . S
C147 O153 1.208 . S
C148 O140 1.315 . S
C148 O143 1.279 . S
C149 O150 1.315 . S
C149 O151 1.279 . S
O150 Cd142 2.223 . S
O150 C149 1.315 . S
O151 Cd141 2.240 . S
O151 C149 1.279 . S
O152 Cd142 2.297 . S
O152 C147 1.247 . S
O153 Cd142 2.439 . S
O153 C147 1.208 . S
O154 Cd155 2.223 . S
O154 C162 1.315 . S
Cd155 O154 2.223 . S
Cd155 O158 2.297 . S
Cd155 O159 2.439 . S
Cd155 O165 2.240 . S
Cd156 O157 2.240 . S
Cd156 O164 2.223 . S
Cd156 O166 2.297 . S
Cd156 O167 2.439 . S
O157 Cd156 2.240 . S
O157 C162 1.279 . S
O158 Cd155 2.297 . S
O158 C160 1.247 . S
O159 Cd155 2.439 . S
O159 C160 1.208 . S
C160 O158 1.247 . S
C160 O159 1.208 . S
C161 O166 1.247 . S
C161 O167 1.208 . S
C162 O154 1.315 . S
C162 O157 1.279 . S
C163 O164 1.315 . S
C163 O165 1.279 . S
O164 Cd156 2.223 . S
O164 C163 1.315 . S
O165 Cd155 2.240 . S
O165 C163 1.279 . S
O166 Cd156 2.297 . S
O166 C161 1.247 . S
O167 Cd156 2.439 . S
O167 C161 1.208 . S
O168 Cd169 2.223 . S
O168 C176 1.315 . S
Cd169 O168 2.223 . S
Cd169 O172 2.297 . S
Cd169 O173 2.439 . S
Cd169 O179 2.240 . S
Cd170 O171 2.240 . S
Cd170 O178 2.223 . S
Cd170 O180 2.297 . S
Cd170 O181 2.439 . S
O171 Cd170 2.240 . S
O171 C176 1.279 . S
O172 Cd169 2.297 . S
O172 C174 1.247 . S
O173 Cd169 2.439 . S
O173 C174 1.208 . S
C174 O172 1.247 . S
C174 O173 1.208 . S
C175 O180 1.247 . S
C175 O181 1.208 . S
C176 O168 1.315 . S
C176 O171 1.279 . S
C177 O178 1.315 . S
C177 O179 1.279 . S
O178 Cd170 2.223 . S
O178 C177 1.315 . S
O179 Cd169 2.240 . S
O179 C177 1.279 . S
O180 Cd170 2.297 . S
O180 C175 1.247 . S
O181 Cd170 2.439 . S
O181 C175 1.208 . S
O182 Cd183 2.223 . S
O182 C190 1.315 . S
Cd183 O182 2.223 . S
Cd183 O186 2.297 . S
Cd183 O187 2.439 . S
Cd183 O193 2.240 . S
Cd184 O185 2.240 . S
Cd184 O192 2.223 . S
Cd184 O194 2.297 . S
Cd184 O195 2.439 . S
O185 Cd184 2.240 . S
O185 C190 1.279 . S
O186 Cd183 2.297 . S
O186 C188 1.247 . S
O187 Cd183 2.439 . S
O187 C188 1.208 . S
C188 O186 1.247 . S
C188 O187 1.208 . S
C189 O194 1.247 . S
C189 O195 1.208 . S
C190 O182 1.315 . S
C190 O185 1.279 . S
C191 O192 1.315 . S
C191 O193 1.279 . S
O192 Cd184 2.223 . S
O192 C191 1.315 . S
O193 Cd183 2.240 . S
O193 C191 1.279 . S
O194 Cd184 2.297 . S
O194 C189 1.247 . S
O195 Cd184 2.439 . S
O195 C189 1.208 . S
O196 Cd197 2.223 . S
O196 C204 1.315 . S
Cd197 O196 2.223 . S
Cd197 O200 2.297 . S
Cd197 O201 2.439 . S
Cd197 O207 2.240 . S
Cd198 O199 2.240 . S
Cd198 O206 2.223 . S
Cd198 O208 2.297 . S
Cd198 O209 2.439 . S
O199 Cd198 2.240 . S
O199 C204 1.279 . S
O200 Cd197 2.297 . S
O200 C202 1.247 . S
O201 Cd197 2.439 . S
O201 C202 1.208 . S
C202 O200 1.247 . S
C202 O201 1.208 . S
C203 O208 1.247 . S
C203 O209 1.208 . S
C204 O196 1.315 . S
C204 O199 1.279 . S
C205 O206 1.315 . S
C205 O207 1.279 . S
O206 Cd198 2.223 . S
O206 C205 1.315 . S
O207 Cd197 2.240 . S
O207 C205 1.279 . S
O208 Cd198 2.297 . S
O208 C203 1.247 . S
O209 Cd198 2.439 . S
O209 C203 1.208 . S
O210 Cd211 2.223 . S
O210 C218 1.315 . S
Cd211 O210 2.223 . S
Cd211 O214 2.297 . S
Cd211 O215 2.439 . S
Cd211 O221 2.240 . S
Cd212 O213 2.240 . S
Cd212 O220 2.223 . S
Cd212 O222 2.297 . S
Cd212 O223 2.439 . S
O213 Cd212 2.240 . S
O213 C218 1.279 . S
O214 Cd211 2.297 . S
O214 C216 1.247 . S
O215 Cd211 2.439 . S
O215 C216 1.208 . S
C216 O214 1.247 . S
C216 O215 1.208 . S
C217 O222 1.247 . S
C217 O223 1.208 . S
C218 O210 1.315 . S
C218 O213 1.279 . S
C219 O220 1.315 . S
C219 O221 1.279 . S
O220 Cd212 2.223 . S
O220 C219 1.315 . S
O221 Cd211 2.240 . S
O221 C219 1.279 . S
O222 Cd212 2.297 . S
O222 C217 1.247 . S
O223 Cd212 2.439 . S
O223 C217 1.208 . S
H224 C230 0.930 . S
H225 C233 0.930 1_655 S
H226 C234 0.930 1_655 S
H227 C235 0.930 . S
H228 C238 0.930 . S
H229 C239 0.930 . S
C230 H224 0.930 . S
C230 C231 1.355 . S
C230 C232 1.415 . S
C231 C230 1.355 . S
C231 C233 1.419 . S
C232 C230 1.415 . S
C232 C237 1.425 . S
C232 C239 1.409 . S
C233 H225 0.930 1_455 S
C233 C231 1.419 . S
C233 C234 1.362 . S
C234 H226 0.930 1_455 S
C234 C233 1.362 . S
C234 C237 1.409 . S
C235 H227 0.930 . S
C235 C236 1.355 . S
C235 C237 1.415 . S
C236 C235 1.355 . S
C236 C238 1.419 . S
C237 C232 1.425 . S
C237 C234 1.409 . S
C237 C235 1.415 . S
C238 H228 0.930 . S
C238 C236 1.419 . S
C238 C239 1.362 . S
C239 H229 0.930 . S
C239 C232 1.409 . S
C239 C238 1.362 . S
H240 C246 0.930 1_655 S
H241 C249 0.930 . S
H242 C250 0.930 . S
H243 C251 0.930 . S
H244 C254 0.930 . S
H245 C255 0.930 . S
C246 H240 0.930 1_455 S
C246 C247 1.355 1_455 S
C246 C248 1.415 . S
C247 C246 1.355 1_655 S
C247 C249 1.419 . S
C248 C246 1.415 . S
C248 C253 1.425 . S
C248 C255 1.409 . S
C249 H241 0.930 . S
C249 C247 1.419 . S
C249 C250 1.362 1_655 S
C250 H242 0.930 . S
C250 C249 1.362 1_455 S
C250 C253 1.409 . S
C251 H243 0.930 . S
C251 C252 1.355 . S
C251 C253 1.415 . S
C252 C251 1.355 . S
C252 C254 1.419 . S
C253 C248 1.425 . S
C253 C250 1.409 . S
C253 C251 1.415 . S
C254 H244 0.930 . S
C254 C252 1.419 . S
C254 C255 1.362 . S
C255 H245 0.930 . S
C255 C248 1.409 . S
C255 C254 1.362 . S
H256 C262 0.930 . S
H257 C265 0.930 . S
H258 C266 0.930 . S
H259 C267 0.930 . S
H260 C270 0.930 . S
H261 C271 0.930 . S
C262 H256 0.930 . S
C262 C263 1.355 . S
C262 C264 1.415 . S
C263 C262 1.355 . S
C263 C265 1.419 . S
C264 C262 1.415 . S
C264 C269 1.425 . S
C264 C271 1.409 . S
C265 H257 0.930 . S
C265 C263 1.419 . S
C265 C266 1.362 . S
C266 H258 0.930 . S
C266 C265 1.362 . S
C266 C269 1.409 . S
C267 H259 0.930 . S
C267 C268 1.355 . S
C267 C269 1.415 . S
C268 C267 1.355 . S
C268 C270 1.419 . S
C269 C264 1.425 . S
C269 C266 1.409 . S
C269 C267 1.415 . S
C270 H260 0.930 . S
C270 C268 1.419 . S
C270 C271 1.362 . S
C271 H261 0.930 . S
C271 C264 1.409 . S
C271 C270 1.362 . S
H272 C278 0.930 . S
H273 C281 0.930 . S
H274 C282 0.930 . S
H275 C283 0.930 . S
H276 C286 0.930 . S
H277 C287 0.930 . S
C278 H272 0.930 . S
C278 C279 1.355 . S
C278 C280 1.415 . S
C279 C278 1.355 . S
C279 C281 1.419 . S
C280 C278 1.415 . S
C280 C285 1.425 . S
C280 C287 1.409 . S
C281 H273 0.930 . S
C281 C279 1.419 . S
C281 C282 1.362 . S
C282 H274 0.930 . S
C282 C281 1.362 . S
C282 C285 1.409 . S
C283 H275 0.930 . S
C283 C284 1.355 . S
C283 C285 1.415 . S
C284 C283 1.355 . S
C284 C286 1.419 . S
C285 C280 1.425 . S
C285 C282 1.409 . S
C285 C283 1.415 . S
C286 H276 0.930 . S
C286 C284 1.419 . S
C286 C287 1.362 . S
C287 H277 0.930 . S
C287 C280 1.409 . S
C287 C286 1.362 . S
H288 C294 0.930 . S
H289 C297 0.930 1_655 S
H290 C298 0.930 1_655 S
H291 C299 0.930 . S
H292 C302 0.930 . S
H293 C303 0.930 . S
C294 H288 0.930 . S
C294 C295 1.355 . S
C294 C296 1.415 . S
C295 C294 1.355 . S
C295 C297 1.419 . S
C296 C294 1.415 . S
C296 C301 1.425 . S
C296 C303 1.409 . S
C297 H289 0.930 1_455 S
C297 C295 1.419 . S
C297 C298 1.362 . S
C298 H290 0.930 1_455 S
C298 C297 1.362 . S
C298 C301 1.409 . S
C299 H291 0.930 . S
C299 C300 1.355 . S
C299 C301 1.415 . S
C300 C299 1.355 . S
C300 C302 1.419 . S
C301 C296 1.425 . S
C301 C298 1.409 . S
C301 C299 1.415 . S
C302 H292 0.930 . S
C302 C300 1.419 . S
C302 C303 1.362 . S
C303 H293 0.930 . S
C303 C296 1.409 . S
C303 C302 1.362 . S
H304 C310 0.930 . S
H305 C313 0.930 . S
H306 C314 0.930 . S
H307 C315 0.930 . S
H308 C318 0.930 . S
H309 C319 0.930 . S
C310 H304 0.930 . S
C310 C311 1.355 . S
C310 C312 1.415 . S
C311 C310 1.355 . S
C311 C313 1.419 . S
C312 C310 1.415 . S
C312 C317 1.425 . S
C312 C319 1.409 . S
C313 H305 0.930 . S
C313 C311 1.419 . S
C313 C314 1.362 . S
C314 H306 0.930 . S
C314 C313 1.362 . S
C314 C317 1.409 . S
C315 H307 0.930 . S
C315 C316 1.355 . S
C315 C317 1.415 . S
C316 C315 1.355 . S
C316 C318 1.419 . S
C317 C312 1.425 . S
C317 C314 1.409 . S
C317 C315 1.415 . S
C318 H308 0.930 . S
C318 C316 1.419 . S
C318 C319 1.362 . S
C319 H309 0.930 . S
C319 C312 1.409 . S
C319 C318 1.362 . S
H320 C326 0.930 . S
H321 C329 0.930 . S
H322 C330 0.930 . S
H323 C331 0.930 . S
H324 C334 0.930 . S
H325 C335 0.930 . S
C326 H320 0.930 . S
C326 C327 1.355 . S
C326 C328 1.415 . S
C327 C326 1.355 . S
C327 C329 1.419 . S
C328 C326 1.415 . S
C328 C333 1.425 . S
C328 C335 1.409 . S
C329 H321 0.930 . S
C329 C327 1.419 . S
C329 C330 1.362 . S
C330 H322 0.930 . S
C330 C329 1.362 . S
C330 C333 1.409 . S
C331 H323 0.930 . S
C331 C332 1.355 . S
C331 C333 1.415 . S
C332 C331 1.355 . S
C332 C334 1.419 . S
C333 C328 1.425 . S
C333 C330 1.409 . S
C333 C331 1.415 . S
C334 H324 0.930 . S
C334 C332 1.419 . S
C334 C335 1.362 . S
C335 H325 0.930 . S
C335 C328 1.409 . S
C335 C334 1.362 . S
H336 C342 0.930 . S
H337 C345 0.930 . S
H338 C346 0.930 . S
H339 C347 0.930 1_655 S
H340 C350 0.930 . S
H341 C351 0.930 . S
C342 H336 0.930 . S
C342 C343 1.355 . S
C342 C344 1.415 . S
C343 C342 1.355 . S
C343 C345 1.419 . S
C344 C342 1.415 . S
C344 C349 1.425 . S
C344 C351 1.409 . S
C345 H337 0.930 . S
C345 C343 1.419 . S
C345 C346 1.362 . S
C346 H338 0.930 . S
C346 C345 1.362 . S
C346 C349 1.409 . S
C347 H339 0.930 1_455 S
C347 C348 1.355 1_455 S
C347 C349 1.415 . S
C348 C347 1.355 1_655 S
C348 C350 1.419 . S
C349 C344 1.425 . S
C349 C346 1.409 . S
C349 C347 1.415 . S
C350 H340 0.930 . S
C350 C348 1.419 . S
C350 C351 1.362 1_655 S
C351 H341 0.930 . S
C351 C344 1.409 . S
C351 C350 1.362 1_455 S
H352 C358 0.930 . S
H353 C361 0.930 . S
H354 C362 0.930 . S
H355 C363 0.930 . S
H356 C366 0.930 . S
H357 C367 0.930 . S
C358 H352 0.930 . S
C358 C359 1.355 1_645 S
C358 C360 1.415 . S
C359 C358 1.355 1_465 S
C359 C361 1.419 . S
C360 C358 1.415 . S
C360 C365 1.425 1_645 S
C360 C367 1.409 . S
C361 H353 0.930 . S
C361 C359 1.419 . S
C361 C362 1.362 . S
C362 H354 0.930 . S
C362 C361 1.362 . S
C362 C365 1.409 . S
C363 H355 0.930 . S
C363 C364 1.355 1_465 S
C363 C365 1.415 . S
C364 C363 1.355 1_645 S
C364 C366 1.419 . S
C365 C360 1.425 1_465 S
C365 C362 1.409 . S
C365 C363 1.415 . S
C366 H356 0.930 . S
C366 C364 1.419 . S
C366 C367 1.362 . S
C367 H357 0.930 . S
C367 C360 1.409 . S
C367 C366 1.362 . S
H368 C374 0.930 . S
H369 C377 0.930 . S
H370 C378 0.930 . S
H371 C379 0.930 . S
H372 C382 0.930 . S
H373 C383 0.930 . S
C374 H368 0.930 . S
C374 C375 1.355 . S
C374 C376 1.415 . S
C375 C374 1.355 . S
C375 C377 1.419 . S
C376 C374 1.415 . S
C376 C381 1.425 . S
C376 C383 1.409 . S
C377 H369 0.930 . S
C377 C375 1.419 . S
C377 C378 1.362 . S
C378 H370 0.930 . S
C378 C377 1.362 . S
C378 C381 1.409 . S
C379 H371 0.930 . S
C379 C380 1.355 . S
C379 C381 1.415 . S
C380 C379 1.355 . S
C380 C382 1.419 . S
C381 C376 1.425 . S
C381 C378 1.409 . S
C381 C379 1.415 . S
C382 H372 0.930 . S
C382 C380 1.419 . S
C382 C383 1.362 . S
C383 H373 0.930 . S
C383 C376 1.409 . S
C383 C382 1.362 . S
H384 C390 0.930 . S
H385 C393 0.930 . S
H386 C394 0.930 . S
H387 C395 0.930 . S
H388 C398 0.930 . S
H389 C399 0.930 . S
C390 H384 0.930 . S
C390 C391 1.355 . S
C390 C392 1.415 . S
C391 C390 1.355 . S
C391 C393 1.419 1_565 S
C392 C390 1.415 . S
C392 C397 1.425 1_564 S
C392 C399 1.409 1_554 S
C393 H385 0.930 . S
C393 C391 1.419 1_545 S
C393 C394 1.362 . S
C394 H386 0.930 . S
C394 C393 1.362 . S
C394 C397 1.409 1_554 S
C395 H387 0.930 . S
C395 C396 1.355 . S
C395 C397 1.415 . S
C396 C395 1.355 . S
C396 C398 1.419 1_545 S
C397 C392 1.425 1_546 S
C397 C394 1.409 1_556 S
C397 C395 1.415 . S
C398 H388 0.930 . S
C398 C396 1.419 1_565 S
C398 C399 1.362 . S
C399 H389 0.930 . S
C399 C392 1.409 1_556 S
C399 C398 1.362 . S
H400 C406 0.930 . S
H401 C409 0.930 . S
H402 C410 0.930 . S
H403 C411 0.930 . S
H404 C414 0.930 . S
H405 C415 0.930 . S
C406 H400 0.930 . S
C406 C407 1.355 . S
C406 C408 1.415 . S
C407 C406 1.355 . S
C407 C409 1.419 . S
C408 C406 1.415 . S
C408 C413 1.425 . S
C408 C415 1.409 . S
C409 H401 0.930 . S
C409 C407 1.419 . S
C409 C410 1.362 . S
C410 H402 0.930 . S
C410 C409 1.362 . S
C410 C413 1.409 . S
C411 H403 0.930 . S
C411 C412 1.355 . S
C411 C413 1.415 . S
C412 C411 1.355 . S
C412 C414 1.419 . S
C413 C408 1.425 . S
C413 C410 1.409 . S
C413 C411 1.415 . S
C414 H404 0.930 . S
C414 C412 1.419 . S
C414 C415 1.362 . S
C415 H405 0.930 . S
C415 C408 1.409 . S
C415 C414 1.362 . S
H416 C422 0.930 . S
H417 C425 0.930 . S
H418 C426 0.930 . S
H419 C427 0.930 . S
H420 C430 0.930 . S
H421 C431 0.930 . S
C422 H416 0.930 . S
C422 C423 1.355 . S
C422 C424 1.415 . S
C423 C422 1.355 . S
C423 C425 1.419 . S
C424 C422 1.415 . S
C424 C429 1.425 . S
C424 C431 1.409 . S
C425 H417 0.930 . S
C425 C423 1.419 . S
C425 C426 1.362 . S
C426 H418 0.930 . S
C426 C425 1.362 . S
C426 C429 1.409 . S
C427 H419 0.930 . S
C427 C428 1.355 . S
C427 C429 1.415 . S
C428 C427 1.355 . S
C428 C430 1.419 . S
C429 C424 1.425 . S
C429 C426 1.409 . S
C429 C427 1.415 . S
C430 H420 0.930 . S
C430 C428 1.419 . S
C430 C431 1.362 . S
C431 H421 0.930 . S
C431 C424 1.409 . S
C431 C430 1.362 . S
H432 C438 0.930 . S
H433 C441 0.930 . S
H434 C442 0.930 . S
H435 C443 0.930 . S
H436 C446 0.930 . S
H437 C447 0.930 . S
C438 H432 0.930 . S
C438 C439 1.355 . S
C438 C440 1.415 . S
C439 C438 1.355 . S
C439 C441 1.419 . S
C440 C438 1.415 . S
C440 C445 1.425 . S
C440 C447 1.409 . S
C441 H433 0.930 . S
C441 C439 1.419 . S
C441 C442 1.362 . S
C442 H434 0.930 . S
C442 C441 1.362 . S
C442 C445 1.409 . S
C443 H435 0.930 . S
C443 C444 1.355 . S
C443 C445 1.415 . S
C444 C443 1.355 . S
C444 C446 1.419 . S
C445 C440 1.425 . S
C445 C442 1.409 . S
C445 C443 1.415 . S
C446 H436 0.930 . S
C446 C444 1.419 . S
C446 C447 1.362 . S
C447 H437 0.930 . S
C447 C440 1.409 . S
C447 C446 1.362 . S
H448 C454 0.930 . S
H449 C457 0.930 . S
H450 C458 0.930 . S
H451 C459 0.930 . S
H452 C462 0.930 . S
H453 C463 0.930 . S
C454 H448 0.930 . S
C454 C455 1.355 . S
C454 C456 1.415 . S
C455 C454 1.355 . S
C455 C457 1.419 . S
C456 C454 1.415 . S
C456 C461 1.425 1_556 S
C456 C463 1.409 1_556 S
C457 H449 0.930 . S
C457 C455 1.419 . S
C457 C458 1.362 . S
C458 H450 0.930 . S
C458 C457 1.362 . S
C458 C461 1.409 1_556 S
C459 H451 0.930 . S
C459 C460 1.355 . S
C459 C461 1.415 . S
C460 C459 1.355 . S
C460 C462 1.419 . S
C461 C456 1.425 1_554 S
C461 C458 1.409 1_554 S
C461 C459 1.415 . S
C462 H452 0.930 . S
C462 C460 1.419 . S
C462 C463 1.362 . S
C463 H453 0.930 . S
C463 C456 1.409 1_554 S
C463 C462 1.362 . S
H464 C470 0.930 . S
H465 C473 0.930 . S
H466 C474 0.930 . S
H467 C475 0.930 . S
H468 C478 0.930 . S
H469 C479 0.930 . S
C470 H464 0.930 . S
C470 C471 1.355 . S
C470 C472 1.415 . S
C471 C470 1.355 . S
C471 C473 1.419 . S
C472 C470 1.415 . S
C472 C477 1.425 . S
C472 C479 1.409 . S
C473 H465 0.930 . S
C473 C471 1.419 . S
C473 C474 1.362 . S
C474 H466 0.930 . S
C474 C473 1.362 . S
C474 C477 1.409 . S
C475 H467 0.930 . S
C475 C476 1.355 . S
C475 C477 1.415 . S
C476 C475 1.355 . S
C476 C478 1.419 . S
C477 C472 1.425 . S
C477 C474 1.409 . S
C477 C475 1.415 . S
C478 H468 0.930 . S
C478 C476 1.419 . S
C478 C479 1.362 . S
C479 H469 0.930 . S
C479 C472 1.409 . S
C479 C478 1.362 . S
H480 C486 0.930 . S
H481 C489 0.930 . S
H482 C490 0.930 . S
H483 C491 0.930 . S
H484 C494 0.930 . S
H485 C495 0.930 . S
C486 H480 0.930 . S
C486 C487 1.355 . S
C486 C488 1.415 . S
C487 C486 1.355 . S
C487 C489 1.419 . S
C488 C486 1.415 . S
C488 C493 1.425 . S
C488 C495 1.409 . S
C489 H481 0.930 . S
C489 C487 1.419 . S
C489 C490 1.362 . S
C490 H482 0.930 . S
C490 C489 1.362 . S
C490 C493 1.409 . S
C491 H483 0.930 . S
C491 C492 1.355 . S
C491 C493 1.415 . S
C492 C491 1.355 . S
C492 C494 1.419 . S
C493 C488 1.425 . S
C493 C490 1.409 . S
C493 C491 1.415 . S
C494 H484 0.930 . S
C494 C492 1.419 . S
C494 C495 1.362 . S
C495 H485 0.930 . S
C495 C488 1.409 . S
C495 C494 1.362 . S
H496 C502 0.930 . S
H497 C505 0.930 . S
H498 C506 0.930 . S
H499 C507 0.930 . S
H500 C510 0.930 . S
H501 C511 0.930 . S
C502 H496 0.930 . S
C502 C503 1.355 . S
C502 C504 1.415 . S
C503 C502 1.355 . S
C503 C505 1.419 . S
C504 C502 1.415 . S
C504 C509 1.425 . S
C504 C511 1.409 . S
C505 H497 0.930 . S
C505 C503 1.419 . S
C505 C506 1.362 . S
C506 H498 0.930 . S
C506 C505 1.362 . S
C506 C509 1.409 . S
C507 H499 0.930 . S
C507 C508 1.355 . S
C507 C509 1.415 . S
C508 C507 1.355 . S
C508 C510 1.419 . S
C509 C504 1.425 . S
C509 C506 1.409 . S
C509 C507 1.415 . S
C510 H500 0.930 . S
C510 C508 1.419 . S
C510 C511 1.362 . S
C511 H501 0.930 . S
C511 C504 1.409 . S
C511 C510 1.362 . S
H512 C518 0.930 . S
H513 C521 0.930 . S
H514 C522 0.930 . S
H515 C523 0.930 . S
H516 C526 0.930 . S
H517 C527 0.930 . S
C518 H512 0.930 . S
C518 C519 1.355 . S
C518 C520 1.415 . S
C519 C518 1.355 . S
C519 C521 1.419 . S
C520 C518 1.415 . S
C520 C525 1.425 . S
C520 C527 1.409 . S
C521 H513 0.930 . S
C521 C519 1.419 . S
C521 C522 1.362 . S
C522 H514 0.930 . S
C522 C521 1.362 . S
C522 C525 1.409 . S
C523 H515 0.930 . S
C523 C524 1.355 . S
C523 C525 1.415 . S
C524 C523 1.355 . S
C524 C526 1.419 . S
C525 C520 1.425 . S
C525 C522 1.409 . S
C525 C523 1.415 . S
C526 H516 0.930 . S
C526 C524 1.419 . S
C526 C527 1.362 . S
C527 H517 0.930 . S
C527 C520 1.409 . S
C527 C526 1.362 . S
H528 C534 0.930 . S
H529 C537 0.930 . S
H530 C538 0.930 . S
H531 C539 0.930 . S
H532 C542 0.930 . S
H533 C543 0.930 . S
C534 H528 0.930 . S
C534 C535 1.355 . S
C534 C536 1.415 . S
C535 C534 1.355 . S
C535 C537 1.419 . S
C536 C534 1.415 . S
C536 C541 1.425 . S
C536 C543 1.409 . S
C537 H529 0.930 . S
C537 C535 1.419 . S
C537 C538 1.362 . S
C538 H530 0.930 . S
C538 C537 1.362 . S
C538 C541 1.409 . S
C539 H531 0.930 . S
C539 C540 1.355 . S
C539 C541 1.415 . S
C540 C539 1.355 . S
C540 C542 1.419 . S
C541 C536 1.425 . S
C541 C538 1.409 . S
C541 C539 1.415 . S
C542 H532 0.930 . S
C542 C540 1.419 . S
C542 C543 1.362 . S
C543 H533 0.930 . S
C543 C536 1.409 . S
C543 C542 1.362 . S
H544 C550 0.930 . S
H545 C553 0.930 . S
H546 C554 0.930 . S
H547 C555 0.930 . S
H548 C558 0.930 . S
H549 C559 0.930 . S
C550 H544 0.930 . S
C550 C551 1.355 . S
C550 C552 1.415 . S
C551 C550 1.355 . S
C551 C553 1.419 . S
C552 C550 1.415 . S
C552 C557 1.425 . S
C552 C559 1.409 . S
C553 H545 0.930 . S
C553 C551 1.419 . S
C553 C554 1.362 . S
C554 H546 0.930 . S
C554 C553 1.362 . S
C554 C557 1.409 . S
C555 H547 0.930 . S
C555 C556 1.355 . S
C555 C557 1.415 . S
C556 C555 1.355 . S
C556 C558 1.419 . S
C557 C552 1.425 . S
C557 C554 1.409 . S
C557 C555 1.415 . S
C558 H548 0.930 . S
C558 C556 1.419 . S
C558 C559 1.362 . S
C559 H549 0.930 . S
C559 C552 1.409 . S
C559 C558 1.362 . S
H560 C566 0.930 . S
H561 C569 0.930 . S
H562 C570 0.930 . S
H563 C571 0.930 . S
H564 C574 0.930 . S
H565 C575 0.930 . S
C566 H560 0.930 . S
C566 C567 1.355 . S
C566 C568 1.415 . S
C567 C566 1.355 . S
C567 C569 1.419 . S
C568 C566 1.415 . S
C568 C573 1.425 . S
C568 C575 1.409 . S
C569 H561 0.930 . S
C569 C567 1.419 . S
C569 C570 1.362 . S
C570 H562 0.930 . S
C570 C569 1.362 . S
C570 C573 1.409 . S
C571 H563 0.930 . S
C571 C572 1.355 . S
C571 C573 1.415 . S
C572 C571 1.355 . S
C572 C574 1.419 . S
C573 C568 1.425 . S
C573 C570 1.409 . S
C573 C571 1.415 . S
C574 H564 0.930 . S
C574 C572 1.419 . S
C574 C575 1.362 . S
C575 H565 0.930 . S
C575 C568 1.409 . S
C575 C574 1.362 . S
H576 C582 0.930 . S
H577 C585 0.930 . S
H578 C586 0.930 . S
H579 C587 0.930 . S
H580 C590 0.930 . S
H581 C591 0.930 . S
C582 H576 0.930 . S
C582 C583 1.355 . S
C582 C584 1.415 . S
C583 C582 1.355 . S
C583 C585 1.419 . S
C584 C582 1.415 . S
C584 C589 1.425 . S
C584 C591 1.409 . S
C585 H577 0.930 . S
C585 C583 1.419 . S
C585 C586 1.362 . S
C586 H578 0.930 . S
C586 C585 1.362 . S
C586 C589 1.409 . S
C587 H579 0.930 . S
C587 C588 1.355 . S
C587 C589 1.415 . S
C588 C587 1.355 . S
C588 C590 1.419 . S
C589 C584 1.425 . S
C589 C586 1.409 . S
C589 C587 1.415 . S
C590 H580 0.930 . S
C590 C588 1.419 . S
C590 C591 1.362 . S
C591 H581 0.930 . S
C591 C584 1.409 . S
C591 C590 1.362 . S
H592 C598 0.930 . S
H593 C601 0.930 . S
H594 C602 0.930 . S
H595 C603 0.930 . S
H596 C606 0.930 . S
H597 C607 0.930 . S
C598 H592 0.930 . S
C598 C599 1.355 . S
C598 C600 1.415 . S
C599 C598 1.355 . S
C599 C601 1.419 . S
C600 C598 1.415 . S
C600 C605 1.425 . S
C600 C607 1.409 . S
C601 H593 0.930 . S
C601 C599 1.419 . S
C601 C602 1.362 . S
C602 H594 0.930 . S
C602 C601 1.362 . S
C602 C605 1.409 . S
C603 H595 0.930 . S
C603 C604 1.355 . S
C603 C605 1.415 . S
C604 C603 1.355 . S
C604 C606 1.419 . S
C605 C600 1.425 . S
C605 C602 1.409 . S
C605 C603 1.415 . S
C606 H596 0.930 . S
C606 C604 1.419 . S
C606 C607 1.362 . S
C607 H597 0.930 . S
C607 C600 1.409 . S
C607 C606 1.362 . S
H608 C614 0.930 . S
H609 C617 0.930 . S
H610 C618 0.930 . S
H611 C619 0.930 . S
H612 C622 0.930 . S
H613 C623 0.930 . S
C614 H608 0.930 . S
C614 C615 1.355 . S
C614 C616 1.415 . S
C615 C614 1.355 . S
C615 C617 1.419 . S
C616 C614 1.415 . S
C616 C621 1.425 . S
C616 C623 1.409 . S
C617 H609 0.930 . S
C617 C615 1.419 . S
C617 C618 1.362 . S
C618 H610 0.930 . S
C618 C617 1.362 . S
C618 C621 1.409 . S
C619 H611 0.930 . S
C619 C620 1.355 . S
C619 C621 1.415 . S
C620 C619 1.355 . S
C620 C622 1.419 . S
C621 C616 1.425 . S
C621 C618 1.409 . S
C621 C619 1.415 . S
C622 H612 0.930 . S
C622 C620 1.419 . S
C622 C623 1.362 . S
C623 H613 0.930 . S
C623 C616 1.409 . S
C623 C622 1.362 . S
H624 C630 0.930 . S
H625 C633 0.930 . S
H626 C634 0.930 . S
H627 C635 0.930 . S
H628 C638 0.930 1_455 S
H629 C639 0.930 . S
C630 H624 0.930 . S
C630 C631 1.355 . S
C630 C632 1.415 . S
C631 C630 1.355 . S
C631 C633 1.419 . S
C632 C630 1.415 . S
C632 C637 1.425 . S
C632 C639 1.409 . S
C633 H625 0.930 . S
C633 C631 1.419 . S
C633 C634 1.362 . S
C634 H626 0.930 . S
C634 C633 1.362 . S
C634 C637 1.409 . S
C635 H627 0.930 . S
C635 C636 1.355 . S
C635 C637 1.415 . S
C636 C635 1.355 . S
C636 C638 1.419 . S
C637 C632 1.425 . S
C637 C634 1.409 . S
C637 C635 1.415 . S
C638 H628 0.930 1_655 S
C638 C636 1.419 . S
C638 C639 1.362 . S
C639 H629 0.930 . S
C639 C632 1.409 . S
C639 C638 1.362 . S
H640 C646 0.930 1_455 S
H641 C649 0.930 . S
H642 C650 0.930 . S
H643 C651 0.930 . S
H644 C654 0.930 . S
H645 C655 0.930 . S
C646 H640 0.930 1_655 S
C646 C647 1.355 . S
C646 C648 1.415 . S
C647 C646 1.355 . S
C647 C649 1.419 . S
C648 C646 1.415 . S
C648 C653 1.425 . S
C648 C655 1.409 . S
C649 H641 0.930 . S
C649 C647 1.419 . S
C649 C650 1.362 . S
C650 H642 0.930 . S
C650 C649 1.362 . S
C650 C653 1.409 . S
C651 H643 0.930 . S
C651 C652 1.355 . S
C651 C653 1.415 . S
C652 C651 1.355 . S
C652 C654 1.419 . S
C653 C648 1.425 . S
C653 C650 1.409 . S
C653 C651 1.415 . S
C654 H644 0.930 . S
C654 C652 1.419 . S
C654 C655 1.362 . S
C655 H645 0.930 . S
C655 C648 1.409 . S
C655 C654 1.362 . S
H656 C662 0.930 . S
H657 C665 0.930 . S
H658 C666 0.930 . S
H659 C667 0.930 . S
H660 C670 0.930 . S
H661 C671 0.930 . S
C662 H656 0.930 . S
C662 C663 1.355 . S
C662 C664 1.415 . S
C663 C662 1.355 . S
C663 C665 1.419 . S
C664 C662 1.415 . S
C664 C669 1.425 . S
C664 C671 1.409 . S
C665 H657 0.930 . S
C665 C663 1.419 . S
C665 C666 1.362 . S
C666 H658 0.930 . S
C666 C665 1.362 . S
C666 C669 1.409 . S
C667 H659 0.930 . S
C667 C668 1.355 . S
C667 C669 1.415 . S
C668 C667 1.355 . S
C668 C670 1.419 . S
C669 C664 1.425 . S
C669 C666 1.409 . S
C669 C667 1.415 . S
C670 H660 0.930 . S
C670 C668 1.419 . S
C670 C671 1.362 . S
C671 H661 0.930 . S
C671 C664 1.409 . S
C671 C670 1.362 . S
H672 C678 0.930 . S
H673 C681 0.930 . S
H674 C682 0.930 . S
H675 C683 0.930 . S
H676 C686 0.930 . S
H677 C687 0.930 . S
C678 H672 0.930 . S
C678 C679 1.355 . S
C678 C680 1.415 . S
C679 C678 1.355 . S
C679 C681 1.419 . S
C680 C678 1.415 . S
C680 C685 1.425 . S
C680 C687 1.409 . S
C681 H673 0.930 . S
C681 C679 1.419 . S
C681 C682 1.362 . S
C682 H674 0.930 . S
C682 C681 1.362 . S
C682 C685 1.409 . S
C683 H675 0.930 . S
C683 C684 1.355 . S
C683 C685 1.415 . S
C684 C683 1.355 . S
C684 C686 1.419 . S
C685 C680 1.425 . S
C685 C682 1.409 . S
C685 C683 1.415 . S
C686 H676 0.930 . S
C686 C684 1.419 . S
C686 C687 1.362 . S
C687 H677 0.930 . S
C687 C680 1.409 . S
C687 C686 1.362 . S
H688 C694 0.930 . S
H689 C697 0.930 . S
H690 C698 0.930 . S
H691 C699 0.930 . S
H692 C702 0.930 . S
H693 C703 0.930 . S
C694 H688 0.930 . S
C694 C695 1.355 . S
C694 C696 1.415 . S
C695 C694 1.355 . S
C695 C697 1.419 . S
C696 C694 1.415 . S
C696 C701 1.425 . S
C696 C703 1.409 . S
C697 H689 0.930 . S
C697 C695 1.419 . S
C697 C698 1.362 . S
C698 H690 0.930 . S
C698 C697 1.362 . S
C698 C701 1.409 . S
C699 H691 0.930 . S
C699 C700 1.355 . S
C699 C701 1.415 . S
C700 C699 1.355 . S
C700 C702 1.419 . S
C701 C696 1.425 . S
C701 C698 1.409 . S
C701 C699 1.415 . S
C702 H692 0.930 . S
C702 C700 1.419 . S
C702 C703 1.362 . S
C703 H693 0.930 . S
C703 C696 1.409 . S
C703 C702 1.362 . S
H704 C710 0.930 . S
H705 C713 0.930 . S
H706 C714 0.930 . S
H707 C715 0.930 . S
H708 C718 0.930 . S
H709 C719 0.930 . S
C710 H704 0.930 . S
C710 C711 1.355 . S
C710 C712 1.415 . S
C711 C710 1.355 . S
C711 C713 1.419 . S
C712 C710 1.415 . S
C712 C717 1.425 . S
C712 C719 1.409 . S
C713 H705 0.930 . S
C713 C711 1.419 . S
C713 C714 1.362 . S
C714 H706 0.930 . S
C714 C713 1.362 . S
C714 C717 1.409 . S
C715 H707 0.930 . S
C715 C716 1.355 . S
C715 C717 1.415 . S
C716 C715 1.355 . S
C716 C718 1.419 . S
C717 C712 1.425 . S
C717 C714 1.409 . S
C717 C715 1.415 . S
C718 H708 0.930 . S
C718 C716 1.419 . S
C718 C719 1.362 . S
C719 H709 0.930 . S
C719 C712 1.409 . S
C719 C718 1.362 . S
H720 C726 0.930 . S
H721 C729 0.930 . S
H722 C730 0.930 . S
H723 C731 0.930 . S
H724 C734 0.930 . S
H725 C735 0.930 . S
C726 H720 0.930 . S
C726 C727 1.355 . S
C726 C728 1.415 . S
C727 C726 1.355 . S
C727 C729 1.419 . S
C728 C726 1.415 . S
C728 C733 1.425 . S
C728 C735 1.409 . S
C729 H721 0.930 . S
C729 C727 1.419 . S
C729 C730 1.362 . S
C730 H722 0.930 . S
C730 C729 1.362 . S
C730 C733 1.409 . S
C731 H723 0.930 . S
C731 C732 1.355 . S
C731 C733 1.415 . S
C732 C731 1.355 . S
C732 C734 1.419 . S
C733 C728 1.425 . S
C733 C730 1.409 . S
C733 C731 1.415 . S
C734 H724 0.930 . S
C734 C732 1.419 . S
C734 C735 1.362 . S
C735 H725 0.930 . S
C735 C728 1.409 . S
C735 C734 1.362 . S
C231 C6 1.361 . S
C236 C188 1.361 . S
C247 C160 1.379 . S
C252 C20 1.378 . S
C263 C174 1.429 . S
C268 C34 1.429 . S
C279 C146 1.363 . S
C284 C48 1.363 . S
C295 C62 1.360 . S
C300 C216 1.360 . S
C311 C76 1.418 . S
C316 C132 1.418 . S
C327 C202 1.361 . S
C332 C90 1.362 . S
C343 C104 1.360 . S
C348 C118 1.360 . S
C359 C64 1.744 . S
C364 C8 1.752 1_655 S
C375 C22 1.752 . S
C380 C78 1.763 . S
C391 C36 1.764 . S
C396 C92 1.758 . S
C407 C106 1.750 . S
C412 C50 1.762 . S
C423 C120 1.750 . S
C428 C148 1.762 . S
C439 C134 1.762 . S
C444 C162 1.762 . S
C455 C204 1.751 . S
C460 C176 1.762 . S
C471 C190 1.763 . S
C476 C218 1.761 . S
C487 C77 1.418 . S
C492 C7 1.461 . S
C503 C21 1.494 . S
C508 C91 1.460 . S
C519 C35 1.406 . S
C524 C105 1.445 . S
C535 C63 1.422 . S
C540 C49 1.465 . S
C551 C65 1.398 . S
C556 C149 1.339 . S
C567 C37 1.398 . S
C572 C121 1.338 . S
C583 C163 1.397 . S
C588 C93 1.335 . S
C599 C135 1.354 . S
C604 C9 1.399 . S
C615 C119 1.409 . S
C620 C175 1.450 . S
C631 C147 1.499 . S
C636 C217 1.473 1_655 S
C647 C189 1.496 1_655 S
C652 C133 1.465 . S
C663 C161 1.411 . S
C668 C203 1.453 . S
C679 C205 1.391 . S
C684 C23 1.373 . S
C695 C191 1.386 . S
C700 C79 1.378 . S
C711 C219 1.391 . S
C716 C51 1.325 . S
C727 C177 1.399 . S
C732 C107 1.351 . S
