# Generated by pormake.
# Topology fcu, (12)-cn, num edge types: 1
# Building blocks:
#     Node 0, Type 0, BuildingBlock: EZIPEK_clean_sbu_0, # of connection points: 12
#     Node 1, Type 0, BuildingBlock: EZIPEK_clean_sbu_0, # of connection points: 12
#     Node 2, Type 0, BuildingBlock: EZIPEK_clean_sbu_0, # of connection points: 12
#     Node 3, Type 0, BuildingBlock: EZIPEK_clean_sbu_0, # of connection points: 12
#     Edge 4, Type (0, 0), BuildingBlock: MIFKUJ_clean_linker_0, # of connection points: 2
#     Edge 5, Type (0, 0), BuildingBlock: MIFKUJ_clean_linker_0, # of connection points: 2
#     Edge 6, Type (0, 0), BuildingBlock: MIFKUJ_clean_linker_0, # of connection points: 2
#     Edge 7, Type (0, 0), BuildingBlock: MIFKUJ_clean_linker_0, # of connection points: 2
#     Edge 8, Type (0, 0), BuildingBlock: MIFKUJ_clean_linker_0, # of connection points: 2
#     Edge 9, Type (0, 0), BuildingBlock: MIFKUJ_clean_linker_0, # of connection points: 2
#     Edge 10, Type (0, 0), BuildingBlock: MIFKUJ_clean_linker_0, # of connection points: 2
#     Edge 11, Type (0, 0), BuildingBlock: MIFKUJ_clean_linker_0, # of connection points: 2
#     Edge 12, Type (0, 0), BuildingBlock: MIFKUJ_clean_linker_0, # of connection points: 2
#     Edge 13, Type (0, 0), BuildingBlock: MIFKUJ_clean_linker_0, # of connection points: 2
#     Edge 14, Type (0, 0), BuildingBlock: MIFKUJ_clean_linker_0, # of connection points: 2
#     Edge 15, Type (0, 0), BuildingBlock: MIFKUJ_clean_linker_0, # of connection points: 2
#     Edge 16, Type (0, 0), BuildingBlock: MIFKUJ_clean_linker_0, # of connection points: 2
#     Edge 17, Type (0, 0), BuildingBlock: MIFKUJ_clean_linker_0, # of connection points: 2
#     Edge 18, Type (0, 0), BuildingBlock: MIFKUJ_clean_linker_0, # of connection points: 2
#     Edge 19, Type (0, 0), BuildingBlock: MIFKUJ_clean_linker_0, # of connection points: 2
#     Edge 20, Type (0, 0), BuildingBlock: MIFKUJ_clean_linker_0, # of connection points: 2
#     Edge 21, Type (0, 0), BuildingBlock: MIFKUJ_clean_linker_0, # of connection points: 2
#     Edge 22, Type (0, 0), BuildingBlock: MIFKUJ_clean_linker_0, # of connection points: 2
#     Edge 23, Type (0, 0), BuildingBlock: MIFKUJ_clean_linker_0, # of connection points: 2
#     Edge 24, Type (0, 0), BuildingBlock: MIFKUJ_clean_linker_0, # of connection points: 2
#     Edge 25, Type (0, 0), BuildingBlock: MIFKUJ_clean_linker_0, # of connection points: 2
#     Edge 26, Type (0, 0), BuildingBlock: MIFKUJ_clean_linker_0, # of connection points: 2
#     Edge 27, Type (0, 0), BuildingBlock: MIFKUJ_clean_linker_0, # of connection points: 2
# Relax obj value: 0.000
# Max RMSD: 0.000
# Mean RMSD: 0.000
data_MOF--net-fcu--node1-EZIPEK_clean_sbu_0--edge1-MIFKUJ_clean_linker_0
_symmetry_space_group_name_H-M    P1
_symmetry_Int_Tables_number       1
_symmetry_cell_setting            triclinic
loop_
_symmetry_equiv_pos_as_xyz
'x, y, z'
_cell_length_a     33.335403
_cell_length_b     33.328712
_cell_length_c     33.338991
_cell_angle_alpha  89.974005
_cell_angle_beta   90.005236
_cell_angle_gamma 89.991025
loop_
_atom_site_label
_atom_site_type_symbol
_atom_site_fract_x
_atom_site_fract_y
_atom_site_fract_z
_atom_type_partial_charge
C0 C 1.00637 0.90764 0.10152 0.0
C1 C 1.00229 0.91197 0.90693 0.0
C2 C 0.00783 0.10249 0.10539 0.0
C3 C 0.00668 0.10622 0.91089 0.0
C4 C 0.90927 0.10502 0.01228 0.0
C5 C 0.90752 0.91057 1.00311 0.0
C6 C 0.10408 0.1027 0.01 0.0
C7 C 0.10217 0.90851 1.00148 0.0
C8 C 0.1034 0.00902 0.90956 0.0
C9 C 0.90876 0.01028 0.90866 0.0
C10 C 0.10235 1.00219 0.10408 0.0
C11 C 0.90817 1.00171 0.10314 0.0
Eu12 Eu 1.00506 0.93087 1.00464 0.0
O13 O 0.97003 0.97257 0.97002 0.0
O14 O 0.04082 0.96998 0.04147 0.0
Eu15 Eu 0.92974 0.00764 1.00613 0.0
Eu16 Eu 0.08151 1.00585 0.00666 0.0
O17 O 0.9697 0.97084 0.041 0.0
O18 O 0.04119 0.97149 0.96982 0.0
Eu19 Eu 1.00536 1.00534 0.08223 0.0
Eu20 Eu 1.00594 0.00858 0.93044 0.0
O21 O 0.97019 0.04227 0.04266 0.0
O22 O 0.97027 0.04388 0.97114 0.0
O23 O 0.04181 0.04289 0.97162 0.0
O24 O 0.0414 0.04131 0.04267 0.0
Eu25 Eu 1.00639 0.08286 0.0078 0.0
O26 O 0.00685 0.89611 0.06315 0.0
O27 O 1.00199 0.89892 0.9448 0.0
O28 O 0.0079 0.11529 0.06744 0.0
O29 O 1.00639 0.11775 0.94928 0.0
O30 O 0.89661 0.06699 0.01122 0.0
O31 O 0.89575 0.94887 1.00287 0.0
O32 O 0.11576 0.06439 0.00975 0.0
O33 O 0.11461 0.9465 1.00415 0.0
O34 O 0.06528 0.009 0.89717 0.0
O35 O 0.94697 0.01005 0.89663 0.0
O36 O 0.06417 1.00337 0.11607 0.0
O37 O 0.94619 1.00361 0.11556 0.0
O38 O 0.0661 0.11548 0.00881 0.0
O39 O 0.94753 0.11684 0.01051 0.0
O40 O 0.0639 0.8966 1.00079 0.0
O41 O 0.94553 0.89794 1.00456 0.0
O42 O 1.00438 0.95031 0.8955 0.0
O43 O 0.0067 0.06828 0.89809 0.0
O44 O 1.00525 0.94554 0.11445 0.0
O45 O 0.00666 0.06407 0.11694 0.0
O46 O 0.89607 1.00248 0.06496 0.0
O47 O 0.8964 0.00986 0.94679 0.0
O48 O 0.11474 1.00267 0.06597 0.0
O49 O 0.11537 0.00813 0.94777 0.0
C50 C 1.00474 0.411 0.60442 0.0
C51 C 1.00545 0.60564 0.60299 0.0
C52 C 0.00689 0.40955 0.40995 0.0
C53 C 0.0092 0.60417 0.40866 0.0
C54 C 0.10346 0.50495 0.40973 0.0
C55 C 0.10242 0.50829 0.60455 0.0
C56 C 0.90891 0.51143 0.40868 0.0
C57 C 0.90788 0.50755 0.60325 0.0
C58 C 0.90902 0.6051 0.50929 0.0
C59 C 0.10338 0.60467 0.50556 0.0
C60 C 0.90849 0.41036 0.50491 0.0
C61 C 0.10284 0.41002 0.50894 0.0
Eu62 Eu 1.00533 0.50813 0.58239 0.0
O63 O 0.04147 0.54353 0.54223 0.0
O64 O 0.9698 0.47223 0.54219 0.0
Eu65 Eu 0.08177 0.50742 0.50706 0.0
Eu66 Eu 0.92983 0.50778 0.50605 0.0
O67 O 0.04119 0.47209 0.54265 0.0
O68 O 0.97018 0.54345 0.5415 0.0
Eu69 Eu 1.00566 0.43173 0.50705 0.0
Eu70 Eu 1.00608 0.58349 0.50596 0.0
O71 O 0.0415 0.47175 0.47139 0.0
O72 O 0.04167 0.54275 0.47087 0.0
O73 O 0.97035 0.54323 0.47028 0.0
O74 O 0.9701 0.47165 0.47073 0.0
Eu75 Eu 1.00614 0.50705 0.43055 0.0
O76 O 1.00495 0.44924 0.61634 0.0
O77 O 1.00458 0.56756 0.61549 0.0
O78 O 1.00583 0.44762 0.39741 0.0
O79 O 0.00971 0.56593 0.39673 0.0
O80 O 0.11551 0.50584 0.44796 0.0
O81 O 0.1149 0.50824 0.56647 0.0
O82 O 0.89649 0.51142 0.44679 0.0
O83 O 0.89592 0.50683 0.56501 0.0
O84 O 0.94712 0.61723 0.50715 0.0
O85 O 0.06523 0.61687 0.50547 0.0
O86 O 0.94664 0.39824 0.50598 0.0
O87 O 0.06465 0.39796 0.50848 0.0
O88 O 0.9471 0.5093 0.39668 0.0
O89 O 0.06536 0.50515 0.39738 0.0
O90 O 0.94599 0.50832 0.61562 0.0
O91 O 0.06416 0.50816 0.61643 0.0
O92 O 1.00655 0.61753 0.56476 0.0
O93 O 0.00683 0.6167 0.44662 0.0
O94 O 1.00481 0.39855 0.56636 0.0
O95 O 0.00725 0.39773 0.44823 0.0
O96 O 0.11514 0.44816 0.50851 0.0
O97 O 0.11555 0.56648 0.50613 0.0
O98 O 0.89623 0.44854 0.50456 0.0
O99 O 0.89666 0.56699 0.50943 0.0
C100 C 0.50625 0.90994 0.60347 0.0
C101 C 0.50931 0.10468 0.60341 0.0
C102 C 0.50193 0.91004 0.40878 0.0
C103 C 0.51346 0.10442 0.40893 0.0
C104 C 0.6024 1.00591 0.40761 0.0
C105 C 0.60441 1.00289 0.60208 0.0
C106 C 0.40801 0.0083 0.40955 0.0
C107 C 0.40973 0.00909 0.60421 0.0
C108 C 0.40979 0.10573 0.50342 0.0
C109 C 0.60443 0.10347 0.50704 0.0
C110 C 0.40779 0.91121 0.50756 0.0
C111 C 0.60239 0.90892 0.50367 0.0
Eu112 Eu 0.50692 0.0073 0.58198 0.0
O113 O 0.54255 0.04256 0.54128 0.0
O114 O 0.4705 0.97205 0.54199 0.0
Eu115 Eu 0.58201 1.00638 0.50517 0.0
Eu116 Eu 0.43039 0.00826 0.50666 0.0
O117 O 0.54165 0.97126 0.54121 0.0
O118 O 0.47112 0.04359 0.5422 0.0
Eu119 Eu 0.5053 0.93128 0.50606 0.0
Eu120 Eu 0.50693 0.08334 0.50608 0.0
O121 O 0.5411 0.97104 0.46983 0.0
O122 O 0.54156 0.04237 0.47026 0.0
O123 O 0.47055 0.04363 0.47039 0.0
O124 O 0.46999 0.97217 0.47076 0.0
Eu125 Eu 0.50551 0.00732 0.42998 0.0
O126 O 0.50591 0.94813 0.61561 0.0
O127 O 0.51044 0.06649 0.61562 0.0
O128 O 0.50377 0.94814 0.39648 0.0
O129 O 0.50991 0.06647 0.39652 0.0
O130 O 0.615 0.00711 0.44563 0.0
O131 O 0.61622 1.00408 0.56383 0.0
O132 O 0.3962 0.00786 0.44783 0.0
O133 O 0.39729 0.00908 0.56611 0.0
O134 O 0.44807 0.11772 0.50306 0.0
O135 O 0.56642 0.11607 0.50766 0.0
O136 O 0.4458 0.89856 0.5077 0.0
O137 O 0.56412 0.89705 0.50468 0.0
O138 O 0.44606 0.00872 0.39701 0.0
O139 O 0.56414 1.00509 0.39584 0.0
O140 O 0.44802 0.00865 0.6161 0.0
O141 O 0.56641 1.00382 0.61475 0.0
O142 O 0.50682 0.11685 0.5653 0.0
O143 O 0.51273 0.1166 0.44708 0.0
O144 O 0.50635 0.89776 0.56529 0.0
O145 O 0.50184 0.89776 0.44693 0.0
O146 O 0.61493 0.94696 0.50348 0.0
O147 O 0.61622 0.06517 0.50592 0.0
O148 O 0.39604 0.94953 0.50701 0.0
O149 O 0.39748 0.06766 0.50533 0.0
C150 C 0.50321 0.60341 0.90906 0.0
C151 C 0.50224 0.6043 0.10368 0.0
C152 C 0.50738 0.40874 0.91031 0.0
C153 C 0.51009 0.41035 0.10535 0.0
C154 C 0.60449 0.41085 0.00902 0.0
C155 C 0.60113 0.60574 1.00505 0.0
C156 C 0.4099 0.40771 0.00952 0.0
C157 C 0.40657 0.60218 1.00588 0.0
C158 C 0.4089 0.50488 0.10449 0.0
C159 C 0.60328 0.50917 0.10384 0.0
C160 C 0.40798 0.50429 0.9101 0.0
C161 C 0.6025 0.50825 0.90928 0.0
Eu162 Eu 0.50417 0.58267 0.00659 0.0
O163 O 0.54105 0.54346 0.04241 0.0
O164 O 0.46924 0.54148 0.97123 0.0
Eu165 Eu 0.58156 0.50795 0.00668 0.0
Eu166 Eu 0.42981 0.5053 0.0072 0.0
O167 O 0.54033 0.5426 0.97113 0.0
O168 O 0.46945 0.54191 0.04257 0.0
Eu169 Eu 0.50531 0.50616 0.93112 0.0
Eu170 Eu 0.50606 0.50731 0.08286 0.0
O171 O 0.54176 0.47121 0.97146 0.0
O172 O 0.54187 0.47198 0.04257 0.0
O173 O 0.47086 0.47063 0.04307 0.0
O174 O 0.47045 0.46989 0.97166 0.0
Eu175 Eu 0.50692 0.43054 0.00765 0.0
O176 O 0.50301 0.61581 0.94717 0.0
O177 O 0.50114 0.61658 0.06559 0.0
O178 O 0.50819 0.39665 0.94854 0.0
O179 O 0.50873 0.39762 0.06735 0.0
O180 O 0.61613 0.4492 0.0076 0.0
O181 O 0.61396 0.56776 1.00549 0.0
O182 O 0.39716 0.44569 0.00856 0.0
O183 O 0.39503 0.5638 1.00593 0.0
O184 O 0.44709 0.50537 0.11657 0.0
O185 O 0.56518 0.50935 0.11612 0.0
O186 O 0.44608 0.50522 0.89777 0.0
O187 O 0.56427 0.50747 0.8973 0.0
O188 O 0.44826 0.39607 0.00929 0.0
O189 O 0.56653 0.39808 0.0092 0.0
O190 O 0.44447 0.6151 1.00626 0.0
O191 O 0.56276 0.6173 1.00567 0.0
O192 O 0.50493 0.56642 0.11627 0.0
O193 O 0.50946 0.44866 0.11702 0.0
O194 O 0.5041 0.56515 0.89713 0.0
O195 O 0.50599 0.44684 0.89795 0.0
O196 O 0.61487 0.5083 0.94739 0.0
O197 O 0.61546 0.50845 0.06568 0.0
O198 O 0.39597 0.5039 0.9483 0.0
O199 O 0.39656 0.50518 0.06639 0.0
H200 H 1.00577 0.18428 0.09618 0.0
H201 H 0.00818 0.23545 0.1483 0.0
H202 H 0.01641 0.14334 0.23884 0.0
H203 H 0.01344 0.09173 0.18694 0.0
H204 H 0.96353 0.19825 0.26025 0.0
H205 H 0.09737 0.19992 0.20937 0.0
H206 H 0.15259 0.20584 0.16057 0.0
H207 H 0.11669 0.32652 0.13336 0.0
H208 H 0.06059 0.32106 0.18124 0.0
H209 H 0.01416 0.32828 0.42095 0.0
H210 H 0.01606 0.27611 0.36976 0.0
H211 H 1.00385 0.36581 0.27728 0.0
H212 H 1.00254 0.41844 0.32817 0.0
H213 H 0.06001 0.31147 0.25803 0.0
H214 H 0.92408 0.30782 0.30652 0.0
H215 H 0.87206 0.30333 0.35894 0.0
H216 H 0.91528 0.18678 0.39283 0.0
H217 H 0.96796 0.19082 0.34099 0.0
C218 C 0.00821 0.17472 0.12713 0.0
C219 C 0.00943 0.13368 0.13721 0.0
C220 C 0.00981 0.20415 0.15693 0.0
C221 C 0.01301 0.19331 0.19749 0.0
C222 C 0.01404 0.15244 0.20773 0.0
C223 C 0.01235 0.12293 0.17794 0.0
C224 C 0.01386 0.22457 0.22929 0.0
C225 C 0.98505 0.22267 0.26001 0.0
C226 C 0.04138 0.25701 0.22856 0.0
C227 C 0.07431 0.25983 0.19859 0.0
C228 C 0.10079 0.22751 0.19254 0.0
C229 C 0.13234 0.23082 0.16509 0.0
C230 C 0.13805 0.26648 0.1438 0.0
C231 C 0.11213 0.29886 0.14978 0.0
C232 C 0.08041 0.29564 0.17703 0.0
C233 C 0.01178 0.33708 0.38977 0.0
C234 C 0.00795 0.37771 0.37882 0.0
C235 C 0.01276 0.3071 0.36051 0.0
C236 C 0.00954 0.31699 0.31971 0.0
C237 C 1.00627 0.35748 0.30861 0.0
C238 C 1.00541 0.38754 0.33783 0.0
C239 C 0.0097 0.28515 0.28858 0.0
C240 C 0.03862 0.28697 0.25807 0.0
C241 C 0.98243 0.25263 0.28948 0.0
C242 C 0.9502 0.24979 0.3201 0.0
C243 C 0.92263 0.28132 0.3253 0.0
C244 C 0.89302 0.27886 0.3549 0.0
C245 C 0.89043 0.24484 0.37928 0.0
C246 C 0.91735 0.21314 0.37397 0.0
C247 C 0.94707 0.21548 0.34445 0.0
H248 H 0.86754 0.24303 0.40224 0.0
H249 H 0.16266 0.26911 0.12282 0.0
H250 H 0.82984 0.97869 0.09367 0.0
H251 H 0.77769 0.97541 0.14503 0.0
H252 H 0.86289 0.01396 0.23445 0.0
H253 H 0.91544 0.01664 0.18353 0.0
H254 H 0.81427 0.95497 0.26277 0.0
H255 H 0.80039 0.07744 0.1869 0.0
H256 H 0.79228 0.11441 0.1234 0.0
H257 H 0.67637 0.06106 0.1063 0.0
H258 H 0.68485 0.02167 0.16835 0.0
H259 H 0.68292 0.02086 0.41506 0.0
H260 H 0.7339 0.0186 0.36259 0.0
H261 H 0.64358 0.9865 0.27566 0.0
H262 H 0.5922 0.98945 0.32772 0.0
H263 H 0.69357 0.04031 0.24481 0.0
H264 H 0.70668 0.91603 0.31556 0.0
H265 H 0.7144 0.87319 0.3754 0.0
H266 H 0.82839 0.92764 0.40047 0.0
H267 H 0.82104 0.97133 0.34114 0.0
C268 C 0.83756 0.98645 0.12426 0.0
C269 C 0.87674 0.99846 0.13436 0.0
C270 C 0.80771 0.9844 0.1536 0.0
C271 C 0.8163 0.99498 0.19345 0.0
C272 C 0.85563 1.00572 0.20387 0.0
C273 C 0.88559 0.00741 0.17464 0.0
C274 C 0.784 0.99685 0.22397 0.0
C275 C 0.78807 0.97393 0.25906 0.0
C276 C 0.74935 0.02091 0.21855 0.0
C277 C 0.74349 0.04613 0.18216 0.0
C278 C 0.77334 0.07319 0.16944 0.0
C279 C 0.76877 0.09445 0.13356 0.0
C280 C 0.73379 0.09019 0.11091 0.0
C281 C 0.70346 0.06434 0.12389 0.0
C282 C 0.70827 0.04228 0.15926 0.0
C283 C 0.67381 0.01328 0.38482 0.0
C284 C 0.63342 1.00511 0.37574 0.0
C285 C 0.70306 0.01194 0.35483 0.0
C286 C 0.69266 1.00182 0.31528 0.0
C287 C 0.6523 0.99435 0.30597 0.0
C288 C 0.62297 0.99597 0.33586 0.0
C289 C 0.72394 0.99856 0.28374 0.0
C290 C 0.71972 0.02127 0.24849 0.0
C291 C 0.75826 0.974 0.28877 0.0
C292 C 0.76313 0.94723 0.32408 0.0
C293 C 0.73328 0.91906 0.33396 0.0
C294 C 0.73759 0.89461 0.36779 0.0
C295 C 0.77181 0.89776 0.39178 0.0
C296 C 0.80187 0.92527 0.38189 0.0
C297 C 0.79766 0.94987 0.34815 0.0
H298 H 0.77508 0.87883 0.41797 0.0
H299 H 0.73016 0.10698 0.08335 0.0
H300 H 0.98762 0.91424 0.18113 0.0
H301 H 0.99092 0.86216 0.2324 0.0
H302 H 0.03227 0.77718 0.14397 0.0
H303 H 0.02808 0.8289 0.09218 0.0
H304 H 0.97889 0.7432 0.18969 0.0
H305 H 0.09651 0.82092 0.2132 0.0
H306 H 0.13667 0.88188 0.22532 0.0
H307 H 0.07296 0.90279 0.33524 0.0
H308 H 0.03191 0.84234 0.32347 0.0
H309 H 0.03665 0.59558 0.33183 0.0
H310 H 0.04023 0.6468 0.27955 0.0
H311 H 0.99092 0.73416 0.36131 0.0
H312 H 0.98821 0.68337 0.41414 0.0
H313 H 0.05126 0.76567 0.31776 0.0
H314 H 0.93495 0.68276 0.29172 0.0
H315 H 0.90257 0.61752 0.27935 0.0
H316 H 0.96945 0.60395 0.17027 0.0
H317 H 1.00409 0.66804 0.18307 0.0
C318 C 0.9975 0.88451 0.17251 0.0
C319 C 0.00775 0.87582 0.13252 0.0
C320 C 0.99954 0.85477 0.20196 0.0
C321 C 0.01252 0.8159 0.19222 0.0
C322 C 0.02227 0.80698 0.15223 0.0
C323 C 0.01985 0.83662 0.12264 0.0
C324 C 0.01529 0.78442 0.22365 0.0
C325 C 0.9952 0.74792 0.21746 0.0
C326 C 0.03624 0.79072 0.26009 0.0
C327 C 0.06083 0.82724 0.26724 0.0
C328 C 0.0908 0.8387 0.23979 0.0
C329 C 0.11377 0.87314 0.24662 0.0
C330 C 0.10732 0.89623 0.28098 0.0
C331 C 0.0779 0.8849 0.30861 0.0
C332 C 0.05477 0.85054 0.30188 0.0
C333 C 0.02651 0.62567 0.33873 0.0
C334 C 0.01176 0.63529 0.37707 0.0
C335 C 0.02864 0.65494 0.30879 0.0
C336 C 0.01527 0.69417 0.31633 0.0
C337 C 1.00136 0.70407 0.35481 0.0
C338 C 0.9997 0.67495 0.38494 0.0
C339 C 0.01462 0.72468 0.28388 0.0
C340 C 0.03506 0.761 0.28993 0.0
C341 C 0.99456 0.71793 0.24701 0.0
C342 C 0.97245 0.68013 0.23859 0.0
C343 C 0.943 0.66579 0.26522 0.0
C344 C 0.92422 0.62898 0.25814 0.0
C345 C 0.93366 0.60675 0.22392 0.0
C346 C 0.96212 0.62121 0.19677 0.0
C347 C 0.98152 0.65768 0.20403 0.0
H348 H 0.91898 0.5783 0.21849 0.0
H349 H 0.12518 0.92285 0.28624 0.0
H350 H 0.32641 0.01276 0.42003 0.0
H351 H 0.27445 0.01081 0.36849 0.0
H352 H 0.36518 1.00025 0.27688 0.0
H353 H 0.41744 1.00279 0.328 0.0
H354 H 0.30877 0.05312 0.25531 0.0
H355 H 0.31124 0.9195 0.30947 0.0
H356 H 0.30813 0.8685 0.36293 0.0
H357 H 0.18789 0.90478 0.39149 0.0
H358 H 0.19055 0.9566 0.33872 0.0
H359 H 0.18381 0.99511 0.09462 0.0
H360 H 0.235 0.99427 0.14687 0.0
H361 H 0.14332 1.00475 0.23755 0.0
H362 H 0.09174 1.00497 0.18566 0.0
H363 H 0.19976 0.95182 0.25976 0.0
H364 H 0.19753 0.08644 0.20804 0.0
H365 H 0.19946 0.1374 0.1544 0.0
H366 H 0.31794 0.09911 0.12145 0.0
H367 H 0.31649 0.04751 0.17456 0.0
C368 C 0.33545 0.01003 0.38895 0.0
C369 C 0.37626 0.00779 0.3783 0.0
C370 C 0.30561 0.00878 0.35951 0.0
C371 C 0.3159 1.00487 0.31886 0.0
C372 C 0.35655 1.00322 0.30807 0.0
C373 C 0.38641 1.0046 0.33744 0.0
C374 C 0.28436 1.00261 0.28749 0.0
C375 C 0.28523 0.03065 0.25604 0.0
C376 C 0.25309 0.97385 0.28894 0.0
C377 C 0.2513 0.94234 0.32044 0.0
C378 C 0.28426 0.91688 0.32738 0.0
C379 C 0.28256 0.88777 0.35755 0.0
C380 C 0.2479 0.88349 0.38072 0.0
C381 C 0.21478 0.9082 0.37362 0.0
C382 C 0.21637 0.93746 0.34358 0.0
C383 C 0.17439 0.9972 0.12564 0.0
C384 C 0.13355 1.00053 0.13578 0.0
C385 C 0.20377 0.99679 0.1555 0.0
C386 C 0.19302 1.00013 0.19608 0.0
C387 C 0.1523 1.00232 0.20641 0.0
C388 C 0.12285 1.00259 0.1766 0.0
C389 C 0.22428 1.00226 0.22767 0.0
C390 C 0.22332 0.97427 0.25913 0.0
C391 C 0.25539 0.03115 0.22636 0.0
C392 C 0.25676 0.06287 0.19508 0.0
C393 C 0.22392 0.08876 0.18924 0.0
C394 C 0.22493 0.11777 0.15894 0.0
C395 C 0.25875 0.12142 0.13446 0.0
C396 C 0.29173 0.09621 0.1404 0.0
C397 C 0.29086 0.06711 0.17064 0.0
H398 H 0.25943 0.14382 0.11094 0.0
H399 H 0.24665 0.86097 0.40409 0.0
H400 H 0.98182 0.83285 0.91466 0.0
H401 H 0.98014 0.78174 0.86234 0.0
H402 H 0.0162 0.8698 0.77461 0.0
H403 H 0.01733 0.92143 0.82661 0.0
H404 H 0.95726 0.82011 0.7465 0.0
H405 H 0.08153 0.80767 0.81884 0.0
H406 H 0.12012 0.79972 0.88135 0.0
H407 H 0.06966 0.68251 0.8986 0.0
H408 H 0.02859 0.69078 0.83767 0.0
H409 H 0.02005 0.68604 0.59343 0.0
H410 H 0.01824 0.73829 0.64467 0.0
H411 H 0.98725 0.64999 0.73408 0.0
H412 H 0.98953 0.59735 0.68323 0.0
H413 H 0.04379 0.69997 0.76147 0.0
H414 H 0.91742 0.71195 0.69462 0.0
H415 H 0.87064 0.72077 0.63803 0.0
H416 H 0.92145 0.83648 0.61304 0.0
H417 H 0.96919 0.82801 0.66892 0.0
C418 C 0.9894 0.84146 0.88427 0.0
C419 C 1.00015 0.88121 0.87496 0.0
C420 C 0.98834 0.81218 0.85438 0.0
C421 C 0.99863 0.82187 0.81474 0.0
C422 C 0.00825 0.8617 0.80506 0.0
C423 C 0.00901 0.89113 0.83489 0.0
C424 C 1.00069 0.79021 0.78363 0.0
C425 C 0.9766 0.79413 0.74938 0.0
C426 C 0.02521 0.75579 0.7882 0.0
C427 C 0.05153 0.75006 0.82379 0.0
C428 C 0.07827 0.78035 0.83613 0.0
C429 C 0.10047 0.77586 0.87141 0.0
C430 C 0.09745 0.74058 0.89383 0.0
C431 C 0.07195 0.70984 0.8812 0.0
C432 C 0.04895 0.71454 0.84644 0.0
C433 C 0.01276 0.67763 0.62395 0.0
C434 C 1.00482 0.6374 0.63412 0.0
C435 C 0.01165 0.70762 0.6532 0.0
C436 C 1.00217 0.6981 0.6931 0.0
C437 C 0.99466 0.65798 0.70346 0.0
C438 C 0.99595 0.62793 0.67429 0.0
C439 C 1.00032 0.72992 0.72414 0.0
C440 C 0.02456 0.72606 0.75839 0.0
C441 C 0.97564 0.76424 0.71978 0.0
C442 C 0.94734 0.76907 0.68566 0.0
C443 C 0.91902 0.73905 0.67675 0.0
C444 C 0.89225 0.74403 0.64483 0.0
C445 C 0.89319 0.7791 0.62186 0.0
C446 C 0.92087 0.80927 0.63077 0.0
C447 C 0.94782 0.80438 0.66253 0.0
H448 H 0.87241 0.78297 0.59724 0.0
H449 H 0.11494 0.73698 0.92092 0.0
H450 H 0.09385 0.01238 0.82784 0.0
H451 H 0.14611 0.01309 0.77665 0.0
H452 H 0.23696 0.00835 0.86865 0.0
H453 H 0.18504 0.00824 0.9202 0.0
H454 H 0.2562 0.06164 0.8114 0.0
H455 H 0.20875 0.92577 0.81618 0.0
H456 H 0.15686 0.87307 0.814 0.0
H457 H 0.12885 0.90465 0.69239 0.0
H458 H 0.17948 0.95857 0.69423 0.0
H459 H 0.42017 0.00792 0.68596 0.0
H460 H 0.36847 0.00835 0.73778 0.0
H461 H 0.27664 0.0119 0.64673 0.0
H462 H 0.32797 0.01097 0.5946 0.0
H463 H 0.25807 0.95872 0.70395 0.0
H464 H 0.30348 0.09514 0.69933 0.0
H465 H 0.35239 0.15056 0.70189 0.0
H466 H 0.38312 0.11873 0.82286 0.0
H467 H 0.33496 0.0626 0.82079 0.0
C468 C 0.1249 0.0115 0.83734 0.0
C469 C 0.13509 0.00996 0.87829 0.0
C470 C 0.15477 0.01179 0.80794 0.0
C471 C 0.19542 0.01018 0.8188 0.0
C472 C 0.20576 0.00945 0.85959 0.0
C473 C 0.17594 0.00925 0.88904 0.0
C474 C 0.22721 0.00905 0.78766 0.0
C475 C 0.25699 0.0388 0.78823 0.0
C476 C 0.22757 0.97972 0.75691 0.0
C477 C 0.19772 0.94657 0.75549 0.0
C478 C 0.19133 0.92173 0.78905 0.0
C479 C 0.16214 0.89161 0.78789 0.0
C480 C 0.13965 0.88547 0.75309 0.0
C481 C 0.14628 0.90946 0.71936 0.0
C482 C 0.17516 0.93988 0.72047 0.0
C483 C 0.38902 0.00885 0.67681 0.0
C484 C 0.37839 0.00954 0.63593 0.0
C485 C 0.35946 0.00923 0.70658 0.0
C486 C 0.31867 0.01057 0.69617 0.0
C487 C 0.30793 0.01088 0.65547 0.0
C488 C 0.33742 0.01047 0.62567 0.0
C489 C 0.28712 0.01136 0.72765 0.0
C490 C 0.25738 0.9815 0.72718 0.0
C491 C 0.28675 0.04061 0.75849 0.0
C492 C 0.31597 0.07425 0.75968 0.0
C493 C 0.32099 0.09964 0.72633 0.0
C494 C 0.34854 0.13125 0.72772 0.0
C495 C 0.37098 0.13807 0.76245 0.0
C496 C 0.36583 0.11334 0.79592 0.0
C497 C 0.33842 0.0816 0.79464 0.0
H498 H 0.39225 0.16259 0.76348 0.0
H499 H 0.11709 0.86212 0.75227 0.0
H500 H 1.00114 0.4217 0.68592 0.0
H501 H 1.00145 0.37021 0.7379 0.0
H502 H 0.00868 0.27811 0.64734 0.0
H503 H 0.0078 0.32927 0.59496 0.0
H504 H 0.95455 0.2594 0.70433 0.0
H505 H 0.09064 0.30711 0.70054 0.0
H506 H 0.14348 0.35888 0.70275 0.0
H507 H 0.10865 0.39037 0.82258 0.0
H508 H 0.05501 0.33943 0.82086 0.0
H509 H 0.00965 0.09687 0.82925 0.0
H510 H 0.00927 0.14903 0.77806 0.0
H511 H 1.00337 0.2399 0.86992 0.0
H512 H 1.00429 0.18794 0.92163 0.0
H513 H 0.0566 0.25984 0.81266 0.0
H514 H 0.92109 0.21246 0.817 0.0
H515 H 0.86677 0.16234 0.81484 0.0
H516 H 0.89898 0.13161 0.69401 0.0
H517 H 0.95407 0.18095 0.6957 0.0
C518 C 1.00281 0.39053 0.6769 0.0
C519 C 1.00461 0.37975 0.63612 0.0
C520 C 1.00312 0.36112 0.70675 0.0
C521 C 1.00561 0.32037 0.69649 0.0
C522 C 0.00684 0.30942 0.65589 0.0
C523 C 1.00643 0.33879 0.62599 0.0
C524 C 0.00671 0.2891 0.72811 0.0
C525 C 0.97718 0.25911 0.72771 0.0
C526 C 0.0357 0.28948 0.75916 0.0
C527 C 0.06853 0.31962 0.76044 0.0
C528 C 0.09407 0.32521 0.72729 0.0
C529 C 0.12419 0.3544 0.72845 0.0
C530 C 0.12939 0.37789 0.76274 0.0
C531 C 0.10456 0.37218 0.79601 0.0
C532 C 0.07429 0.34315 0.79497 0.0
C533 C 0.00826 0.1279 0.83877 0.0
C534 C 0.00681 0.13807 0.87974 0.0
C535 C 0.00791 0.15772 0.80934 0.0
C536 C 1.00577 0.19834 0.82013 0.0
C537 C 1.00494 0.20871 0.86092 0.0
C538 C 1.00536 0.1789 0.89045 0.0
C539 C 1.00448 0.22998 0.78882 0.0
C540 C 0.03399 0.26005 0.78926 0.0
C541 C 0.97541 0.22973 0.75781 0.0
C542 C 0.94214 0.20006 0.7567 0.0
C543 C 0.91691 0.19472 0.79011 0.0
C544 C 0.88591 0.16647 0.78895 0.0
C545 C 0.87954 0.14367 0.75438 0.0
C546 C 0.90404 0.14919 0.72083 0.0
C547 C 0.93518 0.17728 0.72188 0.0
H548 H 0.85554 0.1218 0.75356 0.0
H549 H 0.15269 0.4005 0.76357 0.0
H550 H 0.59588 0.98431 0.68168 0.0
H551 H 0.648 0.98276 0.73309 0.0
H552 H 0.73681 0.01467 0.64455 0.0
H553 H 0.6851 0.01546 0.59271 0.0
H554 H 0.76499 0.95874 0.69525 0.0
H555 H 0.69149 0.08241 0.70555 0.0
H556 H 0.62894 0.12107 0.71298 0.0
H557 H 0.61227 0.0728 0.83116 0.0
H558 H 0.67327 0.0317 0.82349 0.0
H559 H 0.91829 0.02404 0.82805 0.0
H560 H 0.867 0.02175 0.77582 0.0
H561 H 0.77732 0.99345 0.86471 0.0
H562 H 0.82818 0.99635 0.91727 0.0
H563 H 0.74941 0.04743 0.81367 0.0
H564 H 0.81938 0.92205 0.80334 0.0
H565 H 0.87723 0.87679 0.79448 0.0
H566 H 0.89902 0.92642 0.67765 0.0
H567 H 0.84191 0.97268 0.68615 0.0
C568 C 0.62648 0.99096 0.67304 0.0
C569 C 0.63617 1.00054 0.63309 0.0
C570 C 0.65626 0.99 0.70251 0.0
C571 C 0.69617 0.99932 0.69279 0.0
C572 C 0.70617 0.00755 0.65275 0.0
C573 C 0.67649 0.00814 0.62317 0.0
C574 C 0.72725 1.0021 0.72454 0.0
C575 C 0.7619 0.97851 0.72089 0.0
C576 C 0.7226 0.02729 0.75845 0.0
C577 C 0.68685 0.05352 0.76374 0.0
C578 C 0.67433 0.07966 0.733 0.0
C579 C 0.63903 0.10191 0.73718 0.0
C580 C 0.61677 0.09954 0.77258 0.0
C581 C 0.62956 0.07461 0.80375 0.0
C582 C 0.66434 0.05157 0.79937 0.0
C583 C 0.88767 0.01732 0.83659 0.0
C584 C 0.87748 0.01019 0.87696 0.0
C585 C 0.85838 0.0159 0.8066 0.0
C586 C 0.8184 0.00682 0.81624 0.0
C587 C 0.80799 1.00044 0.85654 0.0
C588 C 0.83718 1.0021 0.88659 0.0
C589 C 0.78731 1.00401 0.78442 0.0
C590 C 0.75264 0.02771 0.78799 0.0
C591 C 0.79185 0.97877 0.7505 0.0
C592 C 0.82664 0.9513 0.74566 0.0
C593 C 0.8368 0.92372 0.77597 0.0
C594 C 0.86943 0.89781 0.77098 0.0
C595 C 0.89187 0.89887 0.73559 0.0
C596 C 0.8817 0.92577 0.70511 0.0
C597 C 0.84924 0.95187 0.71002 0.0
H598 H 0.91706 0.8788 0.73172 0.0
H599 H 0.58965 0.11706 0.77592 0.0
H600 H 0.32827 0.41623 1.00313 0.0
H601 H 0.27738 0.36375 1.00603 0.0
H602 H 0.36964 0.27466 0.02341 0.0
H603 H 0.4209 0.32679 0.01993 0.0
H604 H 0.31738 0.24991 0.96945 0.0
H605 H 0.30953 0.30864 0.10002 0.0
H606 H 0.30085 0.36123 0.15127 0.0
H607 H 0.1816 0.38436 0.10851 0.0
H608 H 0.18988 0.33271 0.05626 0.0
H609 H 0.18463 0.09148 0.02259 0.0
H610 H 0.23714 0.14243 0.02457 0.0
H611 H 0.14893 0.2347 1.00317 0.0
H612 H 0.09604 0.18414 1.00168 0.0
H613 H 0.20032 0.25619 0.06095 0.0
H614 H 0.20976 0.20046 0.92823 0.0
H615 H 0.21738 0.14646 0.87824 0.0
H616 H 0.33279 0.11661 0.927 0.0
H617 H 0.32557 0.16998 0.97778 0.0
C618 C 0.33787 0.38552 0.00769 0.0
C619 C 0.37883 0.37586 0.01131 0.0
C620 C 0.30862 0.35554 0.00954 0.0
C621 C 0.31963 0.31531 0.01546 0.0
C622 C 0.36044 0.30552 0.01889 0.0
C623 C 0.38973 0.33544 0.01689 0.0
C624 C 0.28869 0.28328 0.01682 0.0
C625 C 0.2921 0.25101 0.98992 0.0
C626 C 0.25519 0.28516 0.04294 0.0
C627 C 0.25059 0.31709 0.07375 0.0
C628 C 0.28167 0.32533 0.10109 0.0
C629 C 0.27678 0.35494 0.1304 0.0
C630 C 0.24077 0.37621 0.13301 0.0
C631 C 0.20955 0.36797 0.10632 0.0
C632 C 0.21436 0.33858 0.0768 0.0
C633 C 0.17628 0.12257 0.01818 0.0
C634 C 0.13602 0.1336 0.01166 0.0
C635 C 0.20643 0.15166 0.01923 0.0
C636 C 0.19701 0.19227 0.0134 0.0
C637 C 0.15686 0.20348 0.0076 0.0
C638 C 0.12665 0.17446 0.00669 0.0
C639 C 0.22893 0.22324 0.01351 0.0
C640 C 0.2257 0.2552 0.04066 0.0
C641 C 0.26255 0.22111 0.98768 0.0
C642 C 0.26692 0.18898 0.95711 0.0
C643 C 0.23661 0.18216 0.92855 0.0
C644 C 0.24088 0.15169 0.90002 0.0
C645 C 0.2755 0.12806 0.8995 0.0
C646 C 0.30596 0.13489 0.92748 0.0
C647 C 0.30179 0.16525 0.95613 0.0
H648 H 0.27877 0.10451 0.87738 0.0
H649 H 0.23697 0.39897 0.15579 0.0
H650 H 0.41275 0.68106 0.02756 0.0
H651 H 0.36028 0.73222 0.02607 0.0
H652 H 0.27594 0.64493 0.98127 0.0
H653 H 0.32828 0.59346 0.98254 0.0
H654 H 0.27395 0.71673 0.93952 0.0
H655 H 0.27231 0.67273 0.07682 0.0
H656 H 0.30185 0.65779 0.14292 0.0
H657 H 0.33657 0.7811 0.15602 0.0
H658 H 0.30819 0.79665 0.08944 0.0
H659 H 0.09481 0.83092 0.97474 0.0
H660 H 0.14687 0.77906 0.97295 0.0
H661 H 0.23251 0.8629 0.02148 0.0
H662 H 0.1809 0.91486 0.02348 0.0
H663 H 0.23356 0.79195 0.06132 0.0
H664 H 0.23753 0.83755 0.92675 0.0
H665 H 0.21733 0.8541 0.85771 0.0
H666 H 0.18478 0.73119 0.83701 0.0
H667 H 0.20365 0.71409 0.90642 0.0
C668 C 0.38307 0.67268 0.01733 0.0
C669 C 0.37469 0.63311 1.00527 0.0
C670 C 0.35307 0.70193 0.01672 0.0
C671 C 0.31415 0.69225 1.00394 0.0
C672 C 0.30576 0.65294 0.99142 0.0
C673 C 0.33566 0.62354 0.99236 0.0
C674 C 0.28235 0.72333 1.0031 0.0
C675 C 0.26441 0.7327 0.96623 0.0
C676 C 0.27126 0.74505 0.03782 0.0
C677 C 0.28843 0.73577 0.0779 0.0
C678 C 0.28664 0.6966 0.09356 0.0
C679 C 0.30322 0.68802 0.13112 0.0
C680 C 0.32133 0.71846 0.15353 0.0
C681 C 0.3228 0.75754 0.13847 0.0
C682 C 0.30646 0.76625 0.10082 0.0
C683 C 0.12473 0.83837 0.985 0.0
C684 C 0.13362 0.87706 0.99939 0.0
C685 C 0.15451 0.80876 0.98362 0.0
C686 C 0.1936 0.81718 0.99684 0.0
C687 C 0.20255 0.85577 0.01108 0.0
C688 C 0.17299 0.88547 0.01208 0.0
C689 C 0.22475 0.78535 0.99762 0.0
C690 C 0.24265 0.7758 0.03458 0.0
C691 C 0.23612 0.76378 0.96282 0.0
C692 C 0.22153 0.77463 0.92212 0.0
C693 C 0.22524 0.81418 0.90784 0.0
C694 C 0.21419 0.82364 0.8685 0.0
C695 C 0.19976 0.79373 0.84295 0.0
C696 C 0.19609 0.75432 0.85678 0.0
C697 C 0.20677 0.74478 0.8962 0.0
H698 H 0.19136 0.80107 0.81246 0.0
H699 H 0.33405 0.71187 0.18266 0.0
H700 H 0.68513 0.41977 0.99507 0.0
H701 H 0.73707 0.36807 0.99816 0.0
H702 H 0.64802 0.27992 0.03033 0.0
H703 H 0.59592 0.33129 0.02774 0.0
H704 H 0.71606 0.27507 0.07727 0.0
H705 H 0.68317 0.28267 0.93656 0.0
H706 H 0.67381 0.3158 0.87107 0.0
H707 H 0.79687 0.35383 0.87193 0.0
H708 H 0.80685 0.32131 0.93767 0.0
H709 H 0.83046 0.0973 0.03521 0.0
H710 H 0.77962 0.15016 0.03923 0.0
H711 H 0.86726 0.23764 1.00175 0.0
H712 H 0.91815 0.18524 0.99747 0.0
H713 H 0.79994 0.24348 0.95857 0.0
H714 H 0.83488 0.23442 0.09656 0.0
H715 H 0.84529 0.20628 0.16411 0.0
H716 H 0.72048 0.17526 0.17123 0.0
H717 H 0.70965 0.20171 0.10306 0.0
C718 C 0.67652 0.38943 1.00289 0.0
C719 C 0.63623 0.37972 0.01091 0.0
C720 C 0.70626 0.35988 1.00448 0.0
C721 C 0.69632 0.3201 0.01416 0.0
C722 C 0.65631 0.31043 0.02279 0.0
C723 C 0.62653 0.33986 0.02101 0.0
C724 C 0.72761 0.28851 0.01523 0.0
C725 C 0.73402 0.26756 0.05119 0.0
C726 C 0.75181 0.27985 0.98151 0.0
C727 C 0.74565 0.29987 0.94222 0.0
C728 C 0.70813 0.29843 0.92298 0.0
C729 C 0.70273 0.31703 0.88576 0.0
C730 C 0.73472 0.33696 0.86739 0.0
C731 C 0.77213 0.3384 0.88621 0.0
C732 C 0.77768 0.31986 0.92342 0.0
C733 C 0.83897 0.12779 0.02785 0.0
C734 C 0.8784 0.13693 0.01574 0.0
C735 C 0.80992 0.15802 0.03053 0.0
C736 C 0.8197 0.19788 0.021 0.0
C737 C 0.85907 0.2071 0.00929 0.0
C738 C 0.88816 0.17704 0.00692 0.0
C739 C 0.78845 0.22964 0.02066 0.0
C740 C 0.78196 0.25067 0.98473 0.0
C741 C 0.76438 0.23846 0.05456 0.0
C742 C 0.77149 0.21981 0.09442 0.0
C743 C 0.80978 0.22091 0.11215 0.0
C744 C 0.81575 0.20536 0.15066 0.0
C745 C 0.78355 0.18912 0.17201 0.0
C746 C 0.74538 0.18805 0.15476 0.0
C747 C 0.73936 0.2031 0.11608 0.0
H748 H 0.78821 0.1772 0.20186 0.0
H749 H 0.73063 0.35112 0.83849 0.0
H750 H 0.82639 0.92171 0.99479 0.0
H751 H 0.77412 0.8706 0.99289 0.0
H752 H 0.86351 0.77799 1.00638 0.0
H753 H 0.91622 0.82879 0.00766 0.0
H754 H 0.80899 0.75786 0.9505 0.0
H755 H 0.80639 0.80849 0.08547 0.0
H756 H 0.80248 0.86138 0.13704 0.0
H757 H 0.68551 0.8949 0.09478 0.0
H758 H 0.68901 0.84264 0.04247 0.0
H759 H 0.68285 0.59713 0.00963 0.0
H760 H 0.7337 0.64961 0.00675 0.0
H761 H 0.64126 0.73915 0.99317 0.0
H762 H 0.58997 0.68695 0.99657 0.0
H763 H 0.69621 0.76204 0.04751 0.0
H764 H 0.69781 0.70876 0.91432 0.0
H765 H 0.70298 0.65726 0.86148 0.0
H766 H 0.82259 0.6289 0.89981 0.0
H767 H 0.81789 0.67968 0.95342 0.0
C768 C 0.8351 0.89051 0.99739 0.0
C769 C 0.87566 0.8795 1.00165 0.0
C770 C 0.80507 0.8613 0.99638 0.0
C771 C 0.81485 0.8205 1.00001 0.0
C772 C 0.85528 0.80932 1.00359 0.0
C773 C 0.88538 0.83849 1.00446 0.0
C774 C 0.78293 0.78947 1.0004 0.0
C775 C 0.78459 0.75842 0.97203 0.0
C776 C 0.75058 0.79088 0.02788 0.0
C777 C 0.74813 0.82188 0.05979 0.0
C778 C 0.77994 0.82731 0.08699 0.0
C779 C 0.7778 0.85717 0.11637 0.0
C780 C 0.74381 0.88154 0.11913 0.0
C781 C 0.71185 0.87603 0.09257 0.0
C782 C 0.71388 0.84628 0.06307 0.0
C783 C 0.67316 0.62793 1.00597 0.0
C784 C 0.63215 0.63768 1.00337 0.0
C785 C 0.70239 0.65792 1.00415 0.0
C786 C 0.69132 0.69827 0.99934 0.0
C787 C 0.65048 0.7082 0.99691 0.0
C788 C 0.62118 0.67824 0.99884 0.0
C789 C 0.72237 0.73017 0.99773 0.0
C790 C 0.72054 0.76143 0.02591 0.0
C791 C 0.75463 0.72886 0.97011 0.0
C792 C 0.75731 0.69784 0.93819 0.0
C793 C 0.72505 0.69128 0.91178 0.0
C794 C 0.72792 0.66225 0.88165 0.0
C795 C 0.76305 0.63979 0.87737 0.0
C796 C 0.79537 0.64628 0.90323 0.0
C797 C 0.79261 0.67518 0.9335 0.0
H798 H 0.7653 0.61747 0.85395 0.0
H799 H 0.74219 0.90462 0.1419 0.0
H800 H 0.59185 0.50943 0.82766 0.0
H801 H 0.64339 0.51023 0.77576 0.0
H802 H 0.73552 0.50973 0.86659 0.0
H803 H 0.68429 0.50947 0.91887 0.0
H804 H 0.75221 0.56263 0.80755 0.0
H805 H 0.70896 0.42537 0.81655 0.0
H806 H 0.65905 0.37076 0.81598 0.0
H807 H 0.62858 0.3989 0.6941 0.0
H808 H 0.67743 0.45448 0.69425 0.0
H809 H 0.91755 0.5086 0.68503 0.0
H810 H 0.86538 0.50942 0.73631 0.0
H811 H 0.77435 0.50809 0.6444 0.0
H812 H 0.8262 0.50676 0.59276 0.0
H813 H 0.75645 0.45647 0.70345 0.0
H814 H 0.79883 0.59328 0.69379 0.0
H815 H 0.84676 0.64961 0.694 0.0
H816 H 0.87749 0.62384 0.81639 0.0
H817 H 0.8304 0.56679 0.81669 0.0
C818 C 0.62304 0.50948 0.83676 0.0
C819 C 0.63379 0.5091 0.87761 0.0
C820 C 0.65249 0.50984 0.80695 0.0
C821 C 0.6933 0.50949 0.81729 0.0
C822 C 0.70419 0.50987 0.85794 0.0
C823 C 0.67478 0.50957 0.88781 0.0
C824 C 0.72468 0.5085 0.78575 0.0
C825 C 0.75355 0.53914 0.78512 0.0
C826 C 0.7256 0.47835 0.75584 0.0
C827 C 0.69665 0.44442 0.75554 0.0
C828 C 0.69141 0.42016 0.78971 0.0
C829 C 0.66331 0.389 0.78947 0.0
C830 C 0.64068 0.38135 0.75504 0.0
C831 C 0.64611 0.40487 0.72077 0.0
C832 C 0.67396 0.43625 0.72093 0.0
C833 C 0.88647 0.50847 0.67556 0.0
C834 C 0.87622 0.50773 0.63459 0.0
C835 C 0.85666 0.50909 0.70502 0.0
C836 C 0.81596 0.50927 0.6942 0.0
C837 C 0.80557 0.50802 0.65343 0.0
C838 C 0.83535 0.50737 0.62392 0.0
C839 C 0.7842 0.51055 0.72539 0.0
C840 C 0.75523 0.47996 0.72593 0.0
C841 C 0.78309 0.54086 0.75516 0.0
C842 C 0.81144 0.5753 0.75506 0.0
C843 C 0.81612 0.5993 0.72062 0.0
C844 C 0.84312 0.63142 0.72066 0.0
C845 C 0.8653 0.64018 0.75512 0.0
C846 C 0.86041 0.61693 0.78966 0.0
C847 C 0.83359 0.58467 0.78973 0.0
H848 H 0.88619 0.66505 0.75508 0.0
H849 H 0.61898 0.35719 0.75492 0.0
H850 H 0.18385 0.516 0.59541 0.0
H851 H 0.23505 0.51541 0.6477 0.0
H852 H 0.14355 0.49977 0.7378 0.0
H853 H 0.09193 0.50082 0.68586 0.0
H854 H 0.19896 0.55574 0.76 0.0
H855 H 0.1991 0.42234 0.70521 0.0
H856 H 0.20352 0.37235 0.65105 0.0
H857 H 0.32366 0.41031 0.62463 0.0
H858 H 0.31957 0.46151 0.67784 0.0
H859 H 0.32648 0.49911 0.92051 0.0
H860 H 0.27464 0.49966 0.8689 0.0
H861 H 0.36538 0.50991 0.77725 0.0
H862 H 0.4176 0.50872 0.82849 0.0
H863 H 0.30987 0.45649 0.75622 0.0
H864 H 0.31048 0.59078 0.80705 0.0
H865 H 0.30764 0.64309 0.85927 0.0
H866 H 0.1887 0.60558 0.89134 0.0
H867 H 0.19109 0.5525 0.83979 0.0
C868 C 0.17446 0.51242 0.62631 0.0
C869 C 0.13364 0.50832 0.63629 0.0
C870 C 0.20386 0.51203 0.65618 0.0
C871 C 0.19313 0.50717 0.6966 0.0
C872 C 0.15246 0.5036 0.70678 0.0
C873 C 0.123 0.50411 0.67696 0.0
C874 C 0.22437 0.50552 0.72825 0.0
C875 C 0.22292 0.53371 0.7595 0.0
C876 C 0.25619 0.47738 0.72695 0.0
C877 C 0.25886 0.4461 0.69532 0.0
C878 C 0.22636 0.42028 0.68768 0.0
C879 C 0.22882 0.39167 0.65714 0.0
C880 C 0.26384 0.38809 0.63441 0.0
C881 C 0.29652 0.41313 0.64222 0.0
C882 C 0.29413 0.44201 0.67253 0.0
C883 C 0.33557 0.50147 0.88941 0.0
C884 C 0.37636 0.50405 0.87878 0.0
C885 C 0.30579 0.50193 0.85993 0.0
C886 C 0.31611 0.50536 0.81926 0.0
C887 C 0.35674 0.50732 0.80847 0.0
C888 C 0.38657 0.50674 0.8379 0.0
C889 C 0.28456 0.50679 0.7879 0.0
C890 C 0.2859 0.47852 0.75674 0.0
C891 C 0.25288 0.53509 0.78908 0.0
C892 C 0.25115 0.56732 0.81983 0.0
C893 C 0.28383 0.59345 0.82545 0.0
C894 C 0.2823 0.62327 0.85491 0.0
C895 C 0.24808 0.62755 0.8787 0.0
C896 C 0.21523 0.60215 0.87295 0.0
C897 C 0.21666 0.57219 0.84361 0.0
H898 H 0.24701 0.65056 0.90157 0.0
H899 H 0.2657 0.36594 0.61077 0.0
H900 H 0.09343 0.50411 0.32803 0.0
H901 H 0.14533 0.50242 0.27653 0.0
H902 H 0.23671 0.50065 0.36811 0.0
H903 H 0.18513 0.50283 0.41997 0.0
H904 H 0.25457 0.55364 0.3107 0.0
H905 H 0.21044 0.41664 0.31569 0.0
H906 H 0.16356 0.35955 0.3122 0.0
H907 H 0.13454 0.38987 0.19044 0.0
H908 H 0.18048 0.44778 0.19348 0.0
H909 H 0.41922 0.50247 0.18611 0.0
H910 H 0.36738 0.50127 0.2377 0.0
H911 H 0.27577 0.50409 0.14636 0.0
H912 H 0.32725 0.50468 0.09442 0.0
H913 H 0.25838 0.45044 0.20368 0.0
H914 H 0.30249 0.58711 0.19813 0.0
H915 H 0.35301 0.64106 0.19971 0.0
H916 H 0.38245 0.61099 0.32138 0.0
H917 H 0.33322 0.55576 0.32011 0.0
C918 C 0.12452 0.50327 0.33738 0.0
C919 C 0.13497 0.50358 0.37832 0.0
C920 C 0.15418 0.50211 0.3078 0.0
C921 C 0.19488 0.50097 0.31847 0.0
C922 C 0.20546 0.50145 0.35921 0.0
C923 C 0.17585 0.50264 0.38884 0.0
C924 C 0.22651 0.50035 0.28718 0.0
C925 C 0.25569 0.53077 0.28757 0.0
C926 C 0.2273 0.47106 0.2564 0.0
C927 C 0.19859 0.43696 0.25502 0.0
C928 C 0.19362 0.41155 0.28837 0.0
C929 C 0.16727 0.37896 0.28643 0.0
C930 C 0.14599 0.37117 0.25117 0.0
C931 C 0.15093 0.39603 0.21779 0.0
C932 C 0.17707 0.42879 0.21963 0.0
C933 C 0.38809 0.50285 0.17685 0.0
C934 C 0.37752 0.50393 0.13598 0.0
C935 C 0.35847 0.50227 0.20647 0.0
C936 C 0.31775 0.50314 0.19586 0.0
C937 C 0.30705 0.50354 0.15518 0.0
C938 C 0.33661 0.50402 0.12552 0.0
C939 C 0.2862 0.50367 0.22717 0.0
C940 C 0.25708 0.47331 0.22675 0.0
C941 C 0.28535 0.53307 0.25778 0.0
C942 C 0.31438 0.56693 0.25887 0.0
C943 C 0.31995 0.59173 0.22514 0.0
C944 C 0.34835 0.62258 0.22598 0.0
C945 C 0.37086 0.62951 0.26063 0.0
C946 C 0.36502 0.60556 0.29453 0.0
C947 C 0.33694 0.57439 0.29374 0.0
H948 H 0.39281 0.65344 0.26119 0.0
H949 H 0.12585 0.34577 0.24963 0.0
H950 H 0.68293 0.49025 0.09628 0.0
H951 H 0.73425 0.49097 0.1487 0.0
H952 H 0.64606 0.52993 0.23494 0.0
H953 H 0.59455 0.52944 0.18285 0.0
H954 H 0.71583 0.57378 0.23839 0.0
H955 H 0.67624 0.43587 0.23656 0.0
H956 H 0.6623 0.37023 0.20545 0.0
H957 H 0.78525 0.36103 0.16823 0.0
H958 H 0.79981 0.42698 0.19856 0.0
H959 H 0.83043 0.53512 0.41651 0.0
H960 H 0.77886 0.53738 0.36435 0.0
H961 H 0.86492 0.49602 0.27711 0.0
H962 H 0.91666 0.49355 0.32892 0.0
H963 H 0.79537 0.45326 0.2743 0.0
H964 H 0.83491 0.59084 0.27858 0.0
H965 H 0.84703 0.65928 0.30425 0.0
H966 H 0.72239 0.67092 0.33404 0.0
H967 H 0.70976 0.60215 0.31002 0.0
C968 C 0.67442 0.49905 0.12636 0.0
C969 C 0.63459 0.50974 0.13535 0.0
C970 C 0.70375 0.49921 0.15632 0.0
C971 C 0.69383 0.51018 0.19573 0.0
C972 C 0.65426 0.52125 0.20472 0.0
C973 C 0.62485 0.5208 0.1749 0.0
C974 C 0.72491 0.51089 0.22748 0.0
C975 C 0.73283 0.54734 0.24688 0.0
C976 C 0.7476 0.47648 0.23751 0.0
C977 C 0.73903 0.43661 0.2195 0.0
C978 C 0.70024 0.42004 0.22145 0.0
C979 C 0.69224 0.38273 0.204 0.0
C980 C 0.72285 0.36152 0.18478 0.0
C981 C 0.76156 0.37753 0.18308 0.0
C982 C 0.76971 0.41486 0.20042 0.0
C983 C 0.83846 0.52651 0.38624 0.0
C984 C 0.87771 0.5139 0.377 0.0
C985 C 0.80897 0.52813 0.3564 0.0
C986 C 0.81808 0.51701 0.31683 0.0
C987 C 0.85725 0.50472 0.30747 0.0
C988 C 0.88683 0.50343 0.33715 0.0
C989 C 0.78642 0.51634 0.28553 0.0
C990 C 0.77831 0.47977 0.26615 0.0
C991 C 0.76338 0.5507 0.27568 0.0
C992 C 0.77155 0.59099 0.29299 0.0
C993 C 0.81028 0.60764 0.29143 0.0
C994 C 0.8172 0.64657 0.30548 0.0
C995 C 0.78552 0.66941 0.32065 0.0
C996 C 0.74689 0.65326 0.32211 0.0
C997 C 0.7399 0.6142 0.30855 0.0
H998 H 0.79092 0.69956 0.3314 0.0
H999 H 0.71662 0.33265 0.1713 0.0
H1000 H 0.41688 0.83002 0.51723 0.0
H1001 H 0.36477 0.7787 0.51648 0.0
H1002 H 0.27478 0.86968 0.49725 0.0
H1003 H 0.3266 0.92149 0.4984 0.0
H1004 H 0.25183 0.81525 0.55401 0.0
H1005 H 0.30616 0.81295 0.42098 0.0
H1006 H 0.3591 0.80835 0.3695 0.0
H1007 H 0.38973 0.69018 0.4106 0.0
H1008 H 0.33745 0.69433 0.46283 0.0
H1009 H 0.09317 0.6859 0.49748 0.0
H1010 H 0.14471 0.73775 0.49735 0.0
H1011 H 0.23617 0.6475 0.51274 0.0
H1012 H 0.18491 0.59517 0.51229 0.0
H1013 H 0.25811 0.70207 0.45753 0.0
H1014 H 0.20458 0.70474 0.59125 0.0
H1015 H 0.15089 0.70879 0.64196 0.0
H1016 H 0.11872 0.82611 0.59952 0.0
H1017 H 0.1718 0.82248 0.54805 0.0
C1018 C 0.38605 0.83928 0.5128 0.0
C1019 C 0.37605 0.88001 0.50773 0.0
C1020 C 0.3563 0.80981 0.5123 0.0
C1021 C 0.31598 0.82035 0.50637 0.0
C1022 C 0.30575 0.86093 0.50187 0.0
C1023 C 0.33547 0.89049 0.50247 0.0
C1024 C 0.28452 0.78898 0.50486 0.0
C1025 C 0.25288 0.79078 0.53257 0.0
C1026 C 0.28647 0.75662 0.47743 0.0
C1027 C 0.31806 0.75411 0.44608 0.0
C1028 C 0.3244 0.78612 0.41929 0.0
C1029 C 0.35427 0.78358 0.38994 0.0
C1030 C 0.37777 0.74901 0.38681 0.0
C1031 C 0.37151 0.71694 0.41308 0.0
C1032 C 0.34175 0.71937 0.44256 0.0
C1033 C 0.1242 0.67691 0.50088 0.0
C1034 C 0.13476 0.63623 0.50511 0.0
C1035 C 0.15365 0.7067 0.5009 0.0
C1036 C 0.19424 0.69655 0.50556 0.0
C1037 C 0.205 0.656 0.50917 0.0
C1038 C 0.17558 0.62612 0.509 0.0
C1039 C 0.22546 0.72825 0.50676 0.0
C1040 C 0.25706 0.72652 0.47898 0.0
C1041 C 0.2235 0.76066 0.53416 0.0
C1042 C 0.19194 0.76316 0.56551 0.0
C1043 C 0.18588 0.73129 0.59253 0.0
C1044 C 0.15557 0.73352 0.62143 0.0
C1045 C 0.13132 0.76763 0.62388 0.0
C1046 C 0.13747 0.79966 0.59754 0.0
C1047 C 0.16768 0.79755 0.5685 0.0
H1048 H 0.10783 0.76927 0.64625 0.0
H1049 H 0.40071 0.74699 0.36395 0.0
H1050 H 0.09251 0.32829 0.51004 0.0
H1051 H 0.14434 0.27656 0.50952 0.0
H1052 H 0.236 0.36784 0.5093 0.0
H1053 H 0.18455 0.41992 0.50942 0.0
H1054 H 0.24773 0.30896 0.45182 0.0
H1055 H 0.21243 0.31534 0.59335 0.0
H1056 H 0.16508 0.31107 0.65011 0.0
H1057 H 0.13691 0.18955 0.61863 0.0
H1058 H 0.18346 0.19319 0.56128 0.0
H1059 H 0.41874 0.18707 0.49188 0.0
H1060 H 0.36611 0.23817 0.49077 0.0
H1061 H 0.27653 0.14656 0.50906 0.0
H1062 H 0.32865 0.0955 0.51074 0.0
H1063 H 0.26238 0.2052 0.55739 0.0
H1064 H 0.28769 0.19304 0.41931 0.0
H1065 H 0.32059 0.19221 0.35316 0.0
H1066 H 0.35468 0.31555 0.36766 0.0
H1067 H 0.32287 0.3169 0.43442 0.0
C1068 C 0.12365 0.33752 0.51002 0.0
C1069 C 0.13423 0.37843 0.5097 0.0
C1070 C 0.15325 0.30782 0.5099 0.0
C1071 C 0.19399 0.31839 0.5097 0.0
C1072 C 0.20469 0.35908 0.5095 0.0
C1073 C 0.17516 0.38882 0.50963 0.0
C1074 C 0.22555 0.2871 0.50828 0.0
C1075 C 0.2516 0.28668 0.47525 0.0
C1076 C 0.22888 0.25683 0.53785 0.0
C1077 C 0.20131 0.25466 0.5728 0.0
C1078 C 0.196 0.28779 0.59838 0.0
C1079 C 0.16931 0.28549 0.63067 0.0
C1080 C 0.14801 0.25014 0.63794 0.0
C1081 C 0.15341 0.21694 0.61297 0.0
C1082 C 0.17996 0.2191 0.58058 0.0
C1083 C 0.38786 0.17773 0.49564 0.0
C1084 C 0.3781 0.13706 0.50165 0.0
C1085 C 0.35773 0.20701 0.4947 0.0
C1086 C 0.31729 0.19623 0.49971 0.0
C1087 C 0.3075 0.15567 0.50528 0.0
C1088 C 0.33747 0.12643 0.50614 0.0
C1089 C 0.28525 0.22725 0.50102 0.0
C1090 C 0.25901 0.22764 0.53404 0.0
C1091 C 0.28076 0.25663 0.47064 0.0
C1092 C 0.30324 0.25492 0.4322 0.0
C1093 C 0.30288 0.21978 0.40881 0.0
C1094 C 0.3211 0.2193 0.37105 0.0
C1095 C 0.33943 0.25389 0.35609 0.0
C1096 C 0.34019 0.28886 0.37917 0.0
C1097 C 0.32225 0.28944 0.41706 0.0
H1098 H 0.35336 0.25351 0.32677 0.0
H1099 H 0.12738 0.24845 0.66295 0.0
H1100 H 0.83036 0.59633 0.53126 0.0
H1101 H 0.77848 0.648 0.53326 0.0
H1102 H 0.8647 0.7366 0.49496 0.0
H1103 H 0.91703 0.68536 0.49363 0.0
H1104 H 0.81565 0.76533 0.55293 0.0
H1105 H 0.80242 0.68769 0.43177 0.0
H1106 H 0.7941 0.62337 0.39639 0.0
H1107 H 0.67678 0.60949 0.44752 0.0
H1108 H 0.68549 0.67223 0.48565 0.0
H1109 H 0.68266 0.91742 0.48792 0.0
H1110 H 0.73438 0.86566 0.48976 0.0
H1111 H 0.64522 0.77715 0.52088 0.0
H1112 H 0.5931 0.82854 0.51844 0.0
H1113 H 0.69525 0.74754 0.46732 0.0
H1114 H 0.70766 0.81943 0.59077 0.0
H1115 H 0.71684 0.87774 0.63533 0.0
H1116 H 0.83288 0.89965 0.58397 0.0
H1117 H 0.82404 0.84207 0.53839 0.0
C1118 C 0.83837 0.6268 0.52327 0.0
C1119 C 0.87778 0.63657 0.51173 0.0
C1120 C 0.80866 0.65631 0.52454 0.0
C1121 C 0.8176 0.69598 0.51358 0.0
C1122 C 0.85715 0.70611 0.50337 0.0
C1123 C 0.88698 0.67671 0.50248 0.0
C1124 C 0.7855 0.72665 0.51106 0.0
C1125 C 0.78956 0.76177 0.53383 0.0
C1126 C 0.75094 0.72122 0.4869 0.0
C1127 C 0.74488 0.68456 0.46212 0.0
C1128 C 0.77501 0.67075 0.43593 0.0
C1129 C 0.77033 0.63441 0.41555 0.0
C1130 C 0.73491 0.61243 0.41962 0.0
C1131 C 0.70424 0.62654 0.44442 0.0
C1132 C 0.70919 0.66233 0.46573 0.0
C1133 C 0.67394 0.88697 0.49518 0.0
C1134 C 0.63367 0.87727 0.50337 0.0
C1135 C 0.70364 0.8574 0.4963 0.0
C1136 C 0.6938 0.81764 0.50613 0.0
C1137 C 0.65353 0.80766 0.51336 0.0
C1138 C 0.62375 0.83715 0.51199 0.0
C1139 C 0.72547 0.78647 0.50915 0.0
C1140 C 0.72138 0.75125 0.48637 0.0
C1141 C 0.75982 0.79156 0.53368 0.0
C1142 C 0.76491 0.82669 0.56069 0.0
C1143 C 0.73492 0.83697 0.58857 0.0
C1144 C 0.7401 0.86987 0.61408 0.0
C1145 C 0.77535 0.89247 0.61237 0.0
C1146 C 0.80552 0.88221 0.58516 0.0
C1147 C 0.80041 0.84948 0.55943 0.0
H1148 H 0.77935 0.91786 0.6322 0.0
H1149 H 0.73118 0.58451 0.40347 0.0
H1150 H 0.59488 0.18516 0.50927 0.0
H1151 H 0.64703 0.23638 0.5087 0.0
H1152 H 0.73798 0.14443 0.50449 0.0
H1153 H 0.68609 0.09275 0.50564 0.0
H1154 H 0.75734 0.20261 0.55725 0.0
H1155 H 0.71267 0.19591 0.42083 0.0
H1156 H 0.66307 0.19645 0.36594 0.0
H1157 H 0.62864 0.31655 0.39722 0.0
H1158 H 0.67759 0.31652 0.45276 0.0
H1159 H 0.91931 0.32885 0.50131 0.0
H1160 H 0.868 0.27676 0.50137 0.0
H1161 H 0.77562 0.36716 0.50731 0.0
H1162 H 0.82667 0.41972 0.50683 0.0
H1163 H 0.75757 0.30912 0.45319 0.0
H1164 H 0.8028 0.31532 0.58992 0.0
H1165 H 0.85225 0.31401 0.64491 0.0
H1166 H 0.88589 0.19388 0.61286 0.0
H1167 H 0.83714 0.19472 0.55714 0.0
C1168 C 0.62593 0.17565 0.50827 0.0
C1169 C 0.63616 0.13468 0.50731 0.0
C1170 C 0.65573 0.20508 0.50779 0.0
C1171 C 0.69636 0.19422 0.50602 0.0
C1172 C 0.70677 0.15344 0.50575 0.0
C1173 C 0.677 0.12394 0.50629 0.0
C1174 C 0.72797 0.22548 0.50443 0.0
C1175 C 0.75776 0.22558 0.53418 0.0
C1176 C 0.72794 0.25588 0.47476 0.0
C1177 C 0.69859 0.25608 0.44121 0.0
C1178 C 0.69431 0.22233 0.41623 0.0
C1179 C 0.66633 0.22256 0.38496 0.0
C1180 C 0.6427 0.2565 0.37812 0.0
C1181 C 0.64697 0.29028 0.40256 0.0
C1182 C 0.67484 0.29019 0.43393 0.0
C1183 C 0.88812 0.33784 0.50266 0.0
C1184 C 0.87724 0.37864 0.5043 0.0
C1185 C 0.85881 0.30791 0.5028 0.0
C1186 C 0.81803 0.31808 0.50488 0.0
C1187 C 0.80696 0.35869 0.50581 0.0
C1188 C 0.83625 0.38869 0.50562 0.0
C1189 C 0.78689 0.28634 0.50609 0.0
C1190 C 0.75719 0.28612 0.47623 0.0
C1191 C 0.78709 0.25575 0.5356 0.0
C1192 C 0.81659 0.25526 0.56903 0.0
C1193 C 0.82101 0.28876 0.59431 0.0
C1194 C 0.84889 0.28808 0.62566 0.0
C1195 C 0.87228 0.25393 0.63229 0.0
C1196 C 0.86781 0.22035 0.60761 0.0
C1197 C 0.84006 0.22092 0.57614 0.0
H1198 H 0.89378 0.25342 0.65662 0.0
H1199 H 0.62119 0.25668 0.3538 0.0
H1200 H 0.48722 0.41647 0.83106 0.0
H1201 H 0.48848 0.36473 0.7792 0.0
H1202 H 0.53059 0.27831 0.86578 0.0
H1203 H 0.52942 0.32985 0.91805 0.0
H1204 H 0.5734 0.27783 0.79255 0.0
H1205 H 0.43594 0.2748 0.83863 0.0
H1206 H 0.37039 0.30515 0.85464 0.0
H1207 H 0.35771 0.34403 0.73248 0.0
H1208 H 0.42346 0.31432 0.71585 0.0
H1209 H 0.5362 0.09802 0.68095 0.0
H1210 H 0.53825 0.1505 0.73229 0.0
H1211 H 0.48836 0.2352 0.6482 0.0
H1212 H 0.4862 0.18313 0.5967 0.0
H1213 H 0.44993 0.23742 0.72001 0.0
H1214 H 0.58333 0.23933 0.67137 0.0
H1215 H 0.65136 0.21688 0.65337 0.0
H1216 H 0.67508 0.18748 0.77649 0.0
H1217 H 0.60664 0.20834 0.79509 0.0
C1218 C 0.49682 0.3865 0.83918 0.0
C1219 C 0.50811 0.37732 0.87883 0.0
C1220 C 0.49734 0.35693 0.80948 0.0
C1221 C 0.50932 0.31765 0.81875 0.0
C1222 C 0.52114 0.30845 0.85808 0.0
C1223 C 0.52025 0.33791 0.88794 0.0
C1224 C 0.50969 0.28621 0.7873 0.0
C1225 C 0.54637 0.26831 0.77712 0.0
C1226 C 0.47455 0.27521 0.76622 0.0
C1227 C 0.4348 0.29266 0.77609 0.0
C1228 C 0.41931 0.29007 0.81525 0.0
C1229 C 0.38209 0.3071 0.82442 0.0
C1230 C 0.35995 0.32659 0.79462 0.0
C1231 C 0.37492 0.32895 0.75554 0.0
C1232 C 0.41213 0.31198 0.74622 0.0
C1233 C 0.52563 0.1278 0.67334 0.0
C1234 C 0.51093 0.13632 0.63467 0.0
C1235 C 0.52713 0.15782 0.70266 0.0
C1236 C 0.51372 0.19681 0.69399 0.0
C1237 C 0.49893 0.20534 0.65551 0.0
C1238 C 0.49784 0.17552 0.62607 0.0
C1239 C 0.51373 0.22839 0.7254 0.0
C1240 C 0.47705 0.24648 0.73555 0.0
C1241 C 0.54906 0.2399 0.74608 0.0
C1242 C 0.58945 0.22488 0.73455 0.0
C1243 C 0.60267 0.22729 0.69453 0.0
C1244 C 0.64143 0.21501 0.68423 0.0
C1245 C 0.66754 0.2008 0.71377 0.0
C1246 C 0.65486 0.19861 0.75365 0.0
C1247 C 0.61599 0.21043 0.76404 0.0
H1248 H 0.69757 0.19141 0.70576 0.0
H1249 H 0.33117 0.3398 0.80179 0.0
H1250 H 0.51199 0.82838 0.59356 0.0
H1251 H 0.5118 0.77674 0.64539 0.0
H1252 H 0.50061 0.86775 0.73663 0.0
H1253 H 0.50141 0.91981 0.6851 0.0
H1254 H 0.55432 0.81172 0.75836 0.0
H1255 H 0.41977 0.81252 0.70702 0.0
H1256 H 0.36834 0.81002 0.65391 0.0
H1257 H 0.4074 0.69183 0.62079 0.0
H1258 H 0.45951 0.69386 0.67334 0.0
H1259 H 0.49664 0.68493 0.91864 0.0
H1260 H 0.49666 0.73639 0.86664 0.0
H1261 H 0.50874 0.64516 0.77574 0.0
H1262 H 0.50812 0.59326 0.82745 0.0
H1263 H 0.45466 0.70121 0.75378 0.0
H1264 H 0.58905 0.70053 0.80599 0.0
H1265 H 0.6399 0.70332 0.85959 0.0
H1266 H 0.60073 0.82181 0.89148 0.0
H1267 H 0.54909 0.81945 0.8385 0.0
C1268 C 0.50946 0.83758 0.6246 0.0
C1269 C 0.50646 0.87841 0.635 0.0
C1270 C 0.50926 0.80791 0.65424 0.0
C1271 C 0.50566 0.81832 0.69489 0.0
C1272 C 0.50334 0.85901 0.70545 0.0
C1273 C 0.50367 0.88875 0.67586 0.0
C1274 C 0.50403 0.78677 0.72635 0.0
C1275 C 0.53221 0.78785 0.75765 0.0
C1276 C 0.47568 0.75515 0.72498 0.0
C1277 C 0.44381 0.7535 0.69389 0.0
C1278 C 0.41756 0.78608 0.68826 0.0
C1279 C 0.38827 0.78475 0.65827 0.0
C1280 C 0.38468 0.75084 0.63391 0.0
C1281 C 0.41026 0.71811 0.63964 0.0
C1282 C 0.43966 0.71932 0.66955 0.0
C1283 C 0.49929 0.67563 0.88763 0.0
C1284 C 0.50261 0.63479 0.87739 0.0
C1285 C 0.4994 0.7052 0.8579 0.0
C1286 C 0.50324 0.69468 0.81731 0.0
C1287 C 0.50582 0.65398 0.80688 0.0
C1288 C 0.50558 0.62433 0.83658 0.0
C1289 C 0.50494 0.72617 0.78579 0.0
C1290 C 0.47678 0.72507 0.75448 0.0
C1291 C 0.53327 0.75781 0.78719 0.0
C1292 C 0.56494 0.75966 0.81849 0.0
C1293 C 0.59111 0.7271 0.82457 0.0
C1294 C 0.6201 0.7286 0.85485 0.0
C1295 C 0.6235 0.76269 0.879 0.0
C1296 C 0.59803 0.7954 0.87279 0.0
C1297 C 0.5689 0.79401 0.84263 0.0
H1298 H 0.64589 0.76379 0.90249 0.0
H1299 H 0.36204 0.7499 0.61064 0.0
H1300 H 0.43995 0.65389 0.12066 0.0
H1301 H 0.43645 0.70429 0.17413 0.0
H1302 H 0.55822 0.67576 0.20844 0.0
H1303 H 0.56025 0.62331 0.15704 0.0
H1304 H 0.52076 0.68771 0.27159 0.0
H1305 H 0.5287 0.76223 0.149 0.0
H1306 H 0.5085 0.78229 0.0807 0.0
H1307 H 0.39386 0.82065 0.12505 0.0
H1308 H 0.41302 0.79998 0.19356 0.0
H1309 H 0.5291 0.91457 0.33162 0.0
H1310 H 0.52737 0.86223 0.28038 0.0
H1311 H 0.46667 0.78316 0.36306 0.0
H1312 H 0.46966 0.83487 0.41485 0.0
H1313 H 0.47311 0.82545 0.24147 0.0
H1314 H 0.48939 0.68757 0.34644 0.0
H1315 H 0.52059 0.67003 0.41128 0.0
H1316 H 0.60683 0.76452 0.39609 0.0
H1317 H 0.57645 0.7823 0.33098 0.0
C1318 C 0.46581 0.65857 0.13981 0.0
C1319 C 0.5005 0.63531 0.13484 0.0
C1320 C 0.46396 0.68746 0.17017 0.0
C1321 C 0.4974 0.69464 0.19496 0.0
C1322 C 0.53198 0.67095 0.18989 0.0
C1323 C 0.53331 0.64121 0.1604 0.0
C1324 C 0.49672 0.72685 0.226 0.0
C1325 C 0.5103 0.71779 0.26489 0.0
C1326 C 0.48375 0.76646 0.2174 0.0
C1327 C 0.47217 0.77921 0.17634 0.0
C1328 C 0.49907 0.77468 0.14414 0.0
C1329 C 0.48778 0.78611 0.1054 0.0
C1330 C 0.44983 0.80253 0.09853 0.0
C1331 C 0.42315 0.80771 0.13043 0.0
C1332 C 0.4342 0.79615 0.16922 0.0
C1333 C 0.51535 0.88602 0.33887 0.0
C1334 C 0.49987 0.87872 0.3774 0.0
C1335 C 0.51427 0.85613 0.30949 0.0
C1336 C 0.49731 0.81845 0.31787 0.0
C1337 C 0.48072 0.81158 0.35602 0.0
C1338 C 0.48241 0.84121 0.38564 0.0
C1339 C 0.49749 0.78632 0.28682 0.0
C1340 C 0.48353 0.79533 0.24808 0.0
C1341 C 0.51176 0.74713 0.29504 0.0
C1342 C 0.53039 0.73646 0.33404 0.0
C1343 C 0.5151 0.70449 0.35689 0.0
C1344 C 0.53262 0.69454 0.39369 0.0
C1345 C 0.5656 0.71622 0.40784 0.0
C1346 C 0.5812 0.74784 0.38516 0.0
C1347 C 0.56381 0.75789 0.34834 0.0
H1348 H 0.57912 0.70847 0.43633 0.0
H1349 H 0.44115 0.81137 0.06852 0.0
H1350 H 0.54234 0.18062 0.41905 0.0
H1351 H 0.54963 0.23291 0.36828 0.0
H1352 H 0.50569 0.1516 0.27776 0.0
H1353 H 0.49885 0.09881 0.32823 0.0
H1354 H 0.56844 0.199 0.25028 0.0
H1355 H 0.44607 0.2155 0.32825 0.0
H1356 H 0.41296 0.22344 0.39384 0.0
H1357 H 0.47212 0.33653 0.41082 0.0
H1358 H 0.50782 0.32798 0.34659 0.0
H1359 H 0.49931 0.32901 0.09863 0.0
H1360 H 0.50522 0.2785 0.15133 0.0
H1361 H 0.53471 0.37084 0.23704 0.0
H1362 H 0.52802 0.42168 0.18479 0.0
H1363 H 0.4845 0.32045 0.26974 0.0
H1364 H 0.60691 0.30853 0.19847 0.0
H1365 H 0.65058 0.30172 0.13915 0.0
H1366 H 0.59945 0.18623 0.11398 0.0
H1367 H 0.55486 0.19266 0.1727 0.0
C1368 C 0.53427 0.17375 0.38834 0.0
C1369 C 0.51929 0.13569 0.37785 0.0
C1370 C 0.53877 0.20363 0.35929 0.0
C1371 C 0.52775 0.1963 0.31932 0.0
C1372 C 0.51435 0.1579 0.30844 0.0
C1373 C 0.5102 0.12784 0.3374 0.0
C1374 C 0.52704 0.22933 0.28946 0.0
C1375 C 0.54982 0.2254 0.25428 0.0
C1376 C 0.50383 0.26445 0.29551 0.0
C1377 C 0.48005 0.27085 0.33271 0.0
C1378 C 0.45232 0.24193 0.34606 0.0
C1379 C 0.4333 0.24639 0.38316 0.0
C1380 C 0.44035 0.2805 0.40643 0.0
C1381 C 0.4667 0.31009 0.39277 0.0
C1382 C 0.48661 0.30529 0.35616 0.0
C1383 C 0.50709 0.33866 0.12865 0.0
C1384 C 0.51323 0.3795 0.13734 0.0
C1385 C 0.51062 0.30967 0.15877 0.0
C1386 C 0.52096 0.32077 0.19811 0.0
C1387 C 0.52671 0.36152 0.20696 0.0
C1388 C 0.52289 0.39057 0.17694 0.0
C1389 C 0.52536 0.28987 0.23002 0.0
C1390 C 0.50327 0.29418 0.26565 0.0
C1391 C 0.54998 0.25559 0.22485 0.0
C1392 C 0.57719 0.25128 0.1898 0.0
C1393 C 0.60474 0.2818 0.18014 0.0
C1394 C 0.62969 0.278 0.14664 0.0
C1395 C 0.62766 0.24364 0.12276 0.0
C1396 C 0.60089 0.21288 0.13247 0.0
C1397 C 0.57577 0.21658 0.16587 0.0
H1398 H 0.64682 0.24083 0.09673 0.0
H1399 H 0.42529 0.28403 0.43498 0.0
loop_
_geom_bond_atom_site_label_1
_geom_bond_atom_site_label_2
_geom_bond_distance
_geom_bond_site_symmetry_2
_ccdc_geom_bond_type
C0 O26 1.283 . S
C0 O44 1.283 . S
C1 O27 1.283 . S
C1 O42 1.283 . S
C2 O28 1.283 . S
C2 O45 1.283 . S
C3 O29 1.283 . S
C3 O43 1.283 . S
C4 O30 1.283 . S
C4 O39 1.283 . S
C5 O31 1.283 . S
C5 O41 1.283 . S
C6 O32 1.283 . S
C6 O38 1.283 . S
C7 O33 1.283 . S
C7 O40 1.283 . S
C8 O34 1.283 . S
C8 O49 1.283 . S
C9 O35 1.283 . S
C9 O47 1.283 . S
C10 O36 1.283 . S
C10 O48 1.283 . S
C11 O37 1.283 . S
C11 O46 1.283 . S
Eu12 O13 2.370 1_454 S
Eu12 O14 2.370 . S
Eu12 O17 2.370 1_455 S
Eu12 O18 2.370 1_554 S
Eu12 O26 2.363 . S
Eu12 O27 2.363 1_554 S
Eu12 O40 2.363 . S
Eu12 O41 2.363 1_455 S
O13 Eu12 2.370 1_656 S
O13 Eu15 2.370 1_566 S
O13 Eu20 2.370 1_665 S
O14 Eu12 2.370 . S
O14 Eu16 2.370 1_565 S
O14 Eu19 2.370 1_565 S
Eu15 O13 2.370 1_544 S
Eu15 O17 2.370 1_545 S
Eu15 O21 2.370 . S
Eu15 O22 2.370 1_554 S
Eu15 O30 2.363 . S
Eu15 O31 2.363 1_545 S
Eu15 O46 2.363 . S
Eu15 O47 2.363 1_554 S
Eu16 O14 2.370 1_545 S
Eu16 O18 2.370 1_544 S
Eu16 O23 2.370 1_554 S
Eu16 O24 2.370 . S
Eu16 O32 2.363 . S
Eu16 O33 2.363 1_545 S
Eu16 O48 2.363 . S
Eu16 O49 2.363 1_554 S
O17 Eu12 2.370 1_655 S
O17 Eu15 2.370 1_565 S
O17 Eu19 2.370 1_665 S
O18 Eu12 2.370 1_556 S
O18 Eu16 2.370 1_566 S
O18 Eu20 2.370 1_565 S
Eu19 O14 2.370 1_545 S
Eu19 O17 2.370 1_445 S
Eu19 O21 2.370 1_455 S
Eu19 O24 2.370 . S
Eu19 O36 2.363 . S
Eu19 O37 2.363 1_455 S
Eu19 O44 2.363 1_545 S
Eu19 O45 2.363 . S
Eu20 O13 2.370 1_445 S
Eu20 O18 2.370 1_545 S
Eu20 O22 2.370 1_455 S
Eu20 O23 2.370 . S
Eu20 O34 2.363 . S
Eu20 O35 2.363 1_455 S
Eu20 O42 2.363 1_545 S
Eu20 O43 2.363 . S
O21 Eu15 2.370 . S
O21 Eu19 2.370 1_655 S
O21 Eu25 2.370 1_655 S
O22 Eu15 2.370 1_556 S
O22 Eu20 2.370 1_655 S
O22 Eu25 2.370 1_656 S
O23 Eu16 2.370 1_556 S
O23 Eu20 2.370 . S
O23 Eu25 2.370 1_556 S
O24 Eu16 2.370 . S
O24 Eu19 2.370 . S
O24 Eu25 2.370 . S
Eu25 O21 2.370 1_455 S
Eu25 O22 2.370 1_454 S
Eu25 O23 2.370 1_554 S
Eu25 O24 2.370 . S
Eu25 O28 2.363 . S
Eu25 O29 2.363 1_554 S
Eu25 O38 2.363 . S
Eu25 O39 2.363 1_455 S
O26 C0 1.283 . S
O26 Eu12 2.363 . S
O27 C1 1.283 . S
O27 Eu12 2.363 1_556 S
O28 C2 1.283 . S
O28 Eu25 2.363 . S
O29 C3 1.283 . S
O29 Eu25 2.363 1_556 S
O30 C4 1.283 . S
O30 Eu15 2.363 . S
O31 C5 1.283 . S
O31 Eu15 2.363 1_565 S
O32 C6 1.283 . S
O32 Eu16 2.363 . S
O33 C7 1.283 . S
O33 Eu16 2.363 1_565 S
O34 C8 1.283 . S
O34 Eu20 2.363 . S
O35 C9 1.283 . S
O35 Eu20 2.363 1_655 S
O36 C10 1.283 . S
O36 Eu19 2.363 . S
O37 C11 1.283 . S
O37 Eu19 2.363 1_655 S
O38 C6 1.283 . S
O38 Eu25 2.363 . S
O39 C4 1.283 . S
O39 Eu25 2.363 1_655 S
O40 C7 1.283 . S
O40 Eu12 2.363 . S
O41 C5 1.283 . S
O41 Eu12 2.363 1_655 S
O42 C1 1.283 . S
O42 Eu20 2.363 1_565 S
O43 C3 1.283 . S
O43 Eu20 2.363 . S
O44 C0 1.283 . S
O44 Eu19 2.363 1_565 S
O45 C2 1.283 . S
O45 Eu19 2.363 . S
O46 C11 1.283 . S
O46 Eu15 2.363 . S
O47 C9 1.283 . S
O47 Eu15 2.363 1_556 S
O48 C10 1.283 . S
O48 Eu16 2.363 . S
O49 C8 1.283 . S
O49 Eu16 2.363 1_556 S
C50 O76 1.283 . S
C50 O94 1.283 . S
C51 O77 1.283 . S
C51 O92 1.283 . S
C52 O78 1.283 . S
C52 O95 1.283 . S
C53 O79 1.283 . S
C53 O93 1.283 . S
C54 O80 1.283 . S
C54 O89 1.283 . S
C55 O81 1.283 . S
C55 O91 1.283 . S
C56 O82 1.283 . S
C56 O88 1.283 . S
C57 O83 1.283 . S
C57 O90 1.283 . S
C58 O84 1.283 . S
C58 O99 1.283 . S
C59 O85 1.283 . S
C59 O97 1.283 . S
C60 O86 1.283 . S
C60 O98 1.283 . S
C61 O87 1.283 . S
C61 O96 1.283 . S
Eu62 O63 2.370 . S
Eu62 O64 2.370 1_455 S
Eu62 O67 2.370 . S
Eu62 O68 2.370 1_455 S
Eu62 O76 2.363 . S
Eu62 O77 2.363 . S
Eu62 O90 2.363 1_455 S
Eu62 O91 2.363 . S
O63 Eu62 2.370 . S
O63 Eu65 2.370 . S
O63 Eu70 2.370 . S
O64 Eu62 2.370 1_655 S
O64 Eu66 2.370 . S
O64 Eu69 2.370 1_655 S
Eu65 O63 2.370 . S
Eu65 O67 2.370 . S
Eu65 O71 2.370 . S
Eu65 O72 2.370 . S
Eu65 O80 2.363 . S
Eu65 O81 2.363 . S
Eu65 O96 2.363 . S
Eu65 O97 2.363 . S
Eu66 O64 2.370 . S
Eu66 O68 2.370 . S
Eu66 O73 2.370 . S
Eu66 O74 2.370 . S
Eu66 O82 2.363 . S
Eu66 O83 2.363 . S
Eu66 O98 2.363 . S
Eu66 O99 2.363 . S
O67 Eu62 2.370 . S
O67 Eu65 2.370 . S
O67 Eu69 2.370 . S
O68 Eu62 2.370 1_655 S
O68 Eu66 2.370 . S
O68 Eu70 2.370 1_655 S
Eu69 O64 2.370 1_455 S
Eu69 O67 2.370 . S
Eu69 O71 2.370 . S
Eu69 O74 2.370 1_455 S
Eu69 O86 2.363 1_455 S
Eu69 O87 2.363 . S
Eu69 O94 2.363 . S
Eu69 O95 2.363 . S
Eu70 O63 2.370 . S
Eu70 O68 2.370 1_455 S
Eu70 O72 2.370 . S
Eu70 O73 2.370 1_455 S
Eu70 O84 2.363 1_455 S
Eu70 O85 2.363 . S
Eu70 O92 2.363 . S
Eu70 O93 2.363 . S
O71 Eu65 2.370 . S
O71 Eu69 2.370 . S
O71 Eu75 2.370 . S
O72 Eu65 2.370 . S
O72 Eu70 2.370 . S
O72 Eu75 2.370 . S
O73 Eu66 2.370 . S
O73 Eu70 2.370 1_655 S
O73 Eu75 2.370 1_655 S
O74 Eu66 2.370 . S
O74 Eu69 2.370 1_655 S
O74 Eu75 2.370 1_655 S
Eu75 O71 2.370 . S
Eu75 O72 2.370 . S
Eu75 O73 2.370 1_455 S
Eu75 O74 2.370 1_455 S
Eu75 O78 2.363 . S
Eu75 O79 2.363 . S
Eu75 O88 2.363 1_455 S
Eu75 O89 2.363 . S
O76 C50 1.283 . S
O76 Eu62 2.363 . S
O77 C51 1.283 . S
O77 Eu62 2.363 . S
O78 C52 1.283 . S
O78 Eu75 2.363 . S
O79 C53 1.283 . S
O79 Eu75 2.363 . S
O80 C54 1.283 . S
O80 Eu65 2.363 . S
O81 C55 1.283 . S
O81 Eu65 2.363 . S
O82 C56 1.283 . S
O82 Eu66 2.363 . S
O83 C57 1.283 . S
O83 Eu66 2.363 . S
O84 C58 1.283 . S
O84 Eu70 2.363 1_655 S
O85 C59 1.283 . S
O85 Eu70 2.363 . S
O86 C60 1.283 . S
O86 Eu69 2.363 1_655 S
O87 C61 1.283 . S
O87 Eu69 2.363 . S
O88 C56 1.283 . S
O88 Eu75 2.363 1_655 S
O89 C54 1.283 . S
O89 Eu75 2.363 . S
O90 C57 1.283 . S
O90 Eu62 2.363 1_655 S
O91 C55 1.283 . S
O91 Eu62 2.363 . S
O92 C51 1.283 . S
O92 Eu70 2.363 . S
O93 C53 1.283 . S
O93 Eu70 2.363 . S
O94 C50 1.283 . S
O94 Eu69 2.363 . S
O95 C52 1.283 . S
O95 Eu69 2.363 . S
O96 C61 1.283 . S
O96 Eu65 2.363 . S
O97 C59 1.283 . S
O97 Eu65 2.363 . S
O98 C60 1.283 . S
O98 Eu66 2.363 . S
O99 C58 1.283 . S
O99 Eu66 2.363 . S
C100 O126 1.283 . S
C100 O144 1.283 . S
C101 O127 1.283 . S
C101 O142 1.283 . S
C102 O128 1.283 . S
C102 O145 1.283 . S
C103 O129 1.283 . S
C103 O143 1.283 . S
C104 O130 1.283 . S
C104 O139 1.283 . S
C105 O131 1.283 . S
C105 O141 1.283 . S
C106 O132 1.283 . S
C106 O138 1.283 . S
C107 O133 1.283 . S
C107 O140 1.283 . S
C108 O134 1.283 . S
C108 O149 1.283 . S
C109 O135 1.283 . S
C109 O147 1.283 . S
C110 O136 1.283 . S
C110 O148 1.283 . S
C111 O137 1.283 . S
C111 O146 1.283 . S
Eu112 O113 2.370 . S
Eu112 O114 2.370 1_545 S
Eu112 O117 2.370 1_545 S
Eu112 O118 2.370 . S
Eu112 O126 2.363 1_545 S
Eu112 O127 2.363 . S
Eu112 O140 2.363 . S
Eu112 O141 2.363 . S
O113 Eu112 2.370 . S
O113 Eu115 2.370 . S
O113 Eu120 2.370 . S
O114 Eu112 2.370 1_565 S
O114 Eu116 2.370 1_565 S
O114 Eu119 2.370 . S
Eu115 O113 2.370 . S
Eu115 O117 2.370 1_545 S
Eu115 O121 2.370 1_545 S
Eu115 O122 2.370 . S
Eu115 O130 2.363 . S
Eu115 O131 2.363 . S
Eu115 O146 2.363 1_545 S
Eu115 O147 2.363 . S
Eu116 O114 2.370 1_545 S
Eu116 O118 2.370 . S
Eu116 O123 2.370 . S
Eu116 O124 2.370 1_545 S
Eu116 O132 2.363 . S
Eu116 O133 2.363 . S
Eu116 O148 2.363 1_545 S
Eu116 O149 2.363 . S
O117 Eu112 2.370 1_565 S
O117 Eu115 2.370 1_565 S
O117 Eu119 2.370 . S
O118 Eu112 2.370 . S
O118 Eu116 2.370 . S
O118 Eu120 2.370 . S
Eu119 O114 2.370 . S
Eu119 O117 2.370 . S
Eu119 O121 2.370 . S
Eu119 O124 2.370 . S
Eu119 O136 2.363 . S
Eu119 O137 2.363 . S
Eu119 O144 2.363 . S
Eu119 O145 2.363 . S
Eu120 O113 2.370 . S
Eu120 O118 2.370 . S
Eu120 O122 2.370 . S
Eu120 O123 2.370 . S
Eu120 O134 2.363 . S
Eu120 O135 2.363 . S
Eu120 O142 2.363 . S
Eu120 O143 2.363 . S
O121 Eu115 2.370 1_565 S
O121 Eu119 2.370 . S
O121 Eu125 2.370 1_565 S
O122 Eu115 2.370 . S
O122 Eu120 2.370 . S
O122 Eu125 2.370 . S
O123 Eu116 2.370 . S
O123 Eu120 2.370 . S
O123 Eu125 2.370 . S
O124 Eu116 2.370 1_565 S
O124 Eu119 2.370 . S
O124 Eu125 2.370 1_565 S
Eu125 O121 2.370 1_545 S
Eu125 O122 2.370 . S
Eu125 O123 2.370 . S
Eu125 O124 2.370 1_545 S
Eu125 O128 2.363 1_545 S
Eu125 O129 2.363 . S
Eu125 O138 2.363 . S
Eu125 O139 2.363 . S
O126 C100 1.283 . S
O126 Eu112 2.363 1_565 S
O127 C101 1.283 . S
O127 Eu112 2.363 . S
O128 C102 1.283 . S
O128 Eu125 2.363 1_565 S
O129 C103 1.283 . S
O129 Eu125 2.363 . S
O130 C104 1.283 . S
O130 Eu115 2.363 . S
O131 C105 1.283 . S
O131 Eu115 2.363 . S
O132 C106 1.283 . S
O132 Eu116 2.363 . S
O133 C107 1.283 . S
O133 Eu116 2.363 . S
O134 C108 1.283 . S
O134 Eu120 2.363 . S
O135 C109 1.283 . S
O135 Eu120 2.363 . S
O136 C110 1.283 . S
O136 Eu119 2.363 . S
O137 C111 1.283 . S
O137 Eu119 2.363 . S
O138 C106 1.283 . S
O138 Eu125 2.363 . S
O139 C104 1.283 . S
O139 Eu125 2.363 . S
O140 C107 1.283 . S
O140 Eu112 2.363 . S
O141 C105 1.283 . S
O141 Eu112 2.363 . S
O142 C101 1.283 . S
O142 Eu120 2.363 . S
O143 C103 1.283 . S
O143 Eu120 2.363 . S
O144 C100 1.283 . S
O144 Eu119 2.363 . S
O145 C102 1.283 . S
O145 Eu119 2.363 . S
O146 C111 1.283 . S
O146 Eu115 2.363 1_565 S
O147 C109 1.283 . S
O147 Eu115 2.363 . S
O148 C110 1.283 . S
O148 Eu116 2.363 1_565 S
O149 C108 1.283 . S
O149 Eu116 2.363 . S
C150 O176 1.283 . S
C150 O194 1.283 . S
C151 O177 1.283 . S
C151 O192 1.283 . S
C152 O178 1.283 . S
C152 O195 1.283 . S
C153 O179 1.283 . S
C153 O193 1.283 . S
C154 O180 1.283 . S
C154 O189 1.283 . S
C155 O181 1.283 . S
C155 O191 1.283 . S
C156 O182 1.283 . S
C156 O188 1.283 . S
C157 O183 1.283 . S
C157 O190 1.283 . S
C158 O184 1.283 . S
C158 O199 1.283 . S
C159 O185 1.283 . S
C159 O197 1.283 . S
C160 O186 1.283 . S
C160 O198 1.283 . S
C161 O187 1.283 . S
C161 O196 1.283 . S
Eu162 O163 2.370 . S
Eu162 O164 2.370 1_554 S
Eu162 O167 2.370 1_554 S
Eu162 O168 2.370 . S
Eu162 O176 2.363 1_554 S
Eu162 O177 2.363 . S
Eu162 O190 2.363 . S
Eu162 O191 2.363 . S
O163 Eu162 2.370 . S
O163 Eu165 2.370 . S
O163 Eu170 2.370 . S
O164 Eu162 2.370 1_556 S
O164 Eu166 2.370 1_556 S
O164 Eu169 2.370 . S
Eu165 O163 2.370 . S
Eu165 O167 2.370 1_554 S
Eu165 O171 2.370 1_554 S
Eu165 O172 2.370 . S
Eu165 O180 2.363 . S
Eu165 O181 2.363 . S
Eu165 O196 2.363 1_554 S
Eu165 O197 2.363 . S
Eu166 O164 2.370 1_554 S
Eu166 O168 2.370 . S
Eu166 O173 2.370 . S
Eu166 O174 2.370 1_554 S
Eu166 O182 2.363 . S
Eu166 O183 2.363 . S
Eu166 O198 2.363 1_554 S
Eu166 O199 2.363 . S
O167 Eu162 2.370 1_556 S
O167 Eu165 2.370 1_556 S
O167 Eu169 2.370 . S
O168 Eu162 2.370 . S
O168 Eu166 2.370 . S
O168 Eu170 2.370 . S
Eu169 O164 2.370 . S
Eu169 O167 2.370 . S
Eu169 O171 2.370 . S
Eu169 O174 2.370 . S
Eu169 O186 2.363 . S
Eu169 O187 2.363 . S
Eu169 O194 2.363 . S
Eu169 O195 2.363 . S
Eu170 O163 2.370 . S
Eu170 O168 2.370 . S
Eu170 O172 2.370 . S
Eu170 O173 2.370 . S
Eu170 O184 2.363 . S
Eu170 O185 2.363 . S
Eu170 O192 2.363 . S
Eu170 O193 2.363 . S
O171 Eu165 2.370 1_556 S
O171 Eu169 2.370 . S
O171 Eu175 2.370 1_556 S
O172 Eu165 2.370 . S
O172 Eu170 2.370 . S
O172 Eu175 2.370 . S
O173 Eu166 2.370 . S
O173 Eu170 2.370 . S
O173 Eu175 2.370 . S
O174 Eu166 2.370 1_556 S
O174 Eu169 2.370 . S
O174 Eu175 2.370 1_556 S
Eu175 O171 2.370 1_554 S
Eu175 O172 2.370 . S
Eu175 O173 2.370 . S
Eu175 O174 2.370 1_554 S
Eu175 O178 2.363 1_554 S
Eu175 O179 2.363 . S
Eu175 O188 2.363 . S
Eu175 O189 2.363 . S
O176 C150 1.283 . S
O176 Eu162 2.363 1_556 S
O177 C151 1.283 . S
O177 Eu162 2.363 . S
O178 C152 1.283 . S
O178 Eu175 2.363 1_556 S
O179 C153 1.283 . S
O179 Eu175 2.363 . S
O180 C154 1.283 . S
O180 Eu165 2.363 . S
O181 C155 1.283 . S
O181 Eu165 2.363 . S
O182 C156 1.283 . S
O182 Eu166 2.363 . S
O183 C157 1.283 . S
O183 Eu166 2.363 . S
O184 C158 1.283 . S
O184 Eu170 2.363 . S
O185 C159 1.283 . S
O185 Eu170 2.363 . S
O186 C160 1.283 . S
O186 Eu169 2.363 . S
O187 C161 1.283 . S
O187 Eu169 2.363 . S
O188 C156 1.283 . S
O188 Eu175 2.363 . S
O189 C154 1.283 . S
O189 Eu175 2.363 . S
O190 C157 1.283 . S
O190 Eu162 2.363 . S
O191 C155 1.283 . S
O191 Eu162 2.363 . S
O192 C151 1.283 . S
O192 Eu170 2.363 . S
O193 C153 1.283 . S
O193 Eu170 2.363 . S
O194 C150 1.283 . S
O194 Eu169 2.363 . S
O195 C152 1.283 . S
O195 Eu169 2.363 . S
O196 C161 1.283 . S
O196 Eu165 2.363 1_556 S
O197 C159 1.283 . S
O197 Eu165 2.363 . S
O198 C160 1.283 . S
O198 Eu166 2.363 1_556 S
O199 C158 1.283 . S
O199 Eu166 2.363 . S
H200 C218 0.951 . S
H201 C220 0.951 . S
H202 C222 0.950 . S
H203 C223 0.950 . S
H204 C225 0.950 . S
H205 C228 0.950 . S
H206 C229 0.950 . S
H207 C231 0.950 . S
H208 C232 0.950 . S
H209 C233 0.951 . S
H210 C235 0.951 . S
H211 C237 0.950 . S
H212 C238 0.950 . S
H213 C240 0.950 . S
H214 C243 0.950 . S
H215 C244 0.950 . S
H216 C246 0.950 . S
H217 C247 0.950 . S
C218 H200 0.951 . S
C218 C219 1.366 1_655 S
C218 C220 1.388 . S
C219 C218 1.366 1_455 S
C219 C223 1.384 . S
C220 H201 0.951 . S
C220 C218 1.388 . S
C220 C221 1.366 1_655 S
C221 C220 1.366 1_455 S
C221 C222 1.414 . S
C221 C224 1.499 . S
C222 H202 0.950 . S
C222 C221 1.414 . S
C222 C223 1.374 . S
C223 H203 0.950 . S
C223 C219 1.384 . S
C223 C222 1.374 . S
C224 C221 1.499 . S
C224 C225 1.373 . S
C224 C226 1.389 1_455 S
C225 H204 0.950 . S
C225 C224 1.373 . S
C225 C241 1.377 . S
C226 C224 1.389 1_655 S
C226 C227 1.524 . S
C226 C240 1.377 . S
C227 C226 1.524 . S
C227 C228 1.397 1_655 S
C227 C232 1.363 . S
C228 H205 0.950 . S
C228 C227 1.397 1_455 S
C228 C229 1.334 . S
C229 H206 0.950 . S
C229 C228 1.334 . S
C229 C230 1.287 . S
C230 C229 1.287 . S
C230 C231 1.524 1_455 S
C230 H249 0.913 . S
C231 H207 0.950 . S
C231 C230 1.524 1_655 S
C231 C232 1.415 . S
C232 H208 0.950 . S
C232 C227 1.363 . S
C232 C231 1.415 . S
C233 H209 0.951 . S
C233 C234 1.366 . S
C233 C235 1.388 . S
C234 C233 1.366 . S
C234 C238 1.384 1_455 S
C235 H210 0.951 . S
C235 C233 1.388 . S
C235 C236 1.366 1_455 S
C236 C235 1.366 1_655 S
C236 C237 1.414 . S
C236 C239 1.499 . S
C237 H211 0.950 . S
C237 C236 1.414 . S
C237 C238 1.374 . S
C238 H212 0.950 . S
C238 C234 1.384 1_655 S
C238 C237 1.374 . S
C239 C236 1.499 . S
C239 C240 1.373 . S
C239 C241 1.389 1_655 S
C240 H213 0.950 . S
C240 C226 1.377 . S
C240 C239 1.373 . S
C241 C225 1.377 . S
C241 C239 1.389 1_455 S
C241 C242 1.524 . S
C242 C241 1.524 . S
C242 C243 1.397 1_455 S
C242 C247 1.363 . S
C243 H214 0.950 . S
C243 C242 1.397 1_655 S
C243 C244 1.334 . S
C244 H215 0.950 . S
C244 C243 1.334 . S
C244 C245 1.287 . S
C245 C244 1.287 . S
C245 C246 1.524 1_655 S
C245 H248 0.999 . S
C246 H216 0.950 . S
C246 C245 1.524 1_455 S
C246 C247 1.415 . S
C247 H217 0.950 . S
C247 C242 1.363 . S
C247 C246 1.415 . S
H248 C245 0.999 . S
H249 C230 0.913 . S
H250 C268 0.951 . S
H251 C270 0.951 . S
H252 C272 0.950 . S
H253 C273 0.950 . S
H254 C275 0.950 . S
H255 C278 0.950 . S
H256 C279 0.950 . S
H257 C281 0.950 . S
H258 C282 0.950 . S
H259 C283 0.951 . S
H260 C285 0.951 . S
H261 C287 0.950 . S
H262 C288 0.950 . S
H263 C290 0.950 . S
H264 C293 0.950 . S
H265 C294 0.950 . S
H266 C296 0.950 . S
H267 C297 0.950 . S
C268 H250 0.951 . S
C268 C269 1.366 1_565 S
C268 C270 1.388 . S
C269 C268 1.366 1_545 S
C269 C273 1.384 . S
C270 H251 0.951 . S
C270 C268 1.388 . S
C270 C271 1.366 1_565 S
C271 C270 1.366 1_545 S
C271 C272 1.414 . S
C271 C274 1.499 . S
C272 H252 0.950 . S
C272 C271 1.414 . S
C272 C273 1.374 . S
C273 H253 0.950 . S
C273 C269 1.384 . S
C273 C272 1.374 . S
C274 C271 1.499 . S
C274 C275 1.373 1_545 S
C274 C276 1.389 . S
C275 H254 0.950 . S
C275 C274 1.373 1_565 S
C275 C291 1.377 . S
C276 C274 1.389 . S
C276 C277 1.524 . S
C276 C290 1.377 . S
C277 C276 1.524 . S
C277 C278 1.397 . S
C277 C282 1.363 . S
C278 H255 0.950 . S
C278 C277 1.397 . S
C278 C279 1.334 . S
C279 H256 0.950 . S
C279 C278 1.334 . S
C279 C280 1.287 . S
C280 C279 1.287 . S
C280 C281 1.524 . S
C280 H299 0.913 . S
C281 H257 0.950 . S
C281 C280 1.524 . S
C281 C282 1.415 . S
C282 H258 0.950 . S
C282 C277 1.363 . S
C282 C281 1.415 . S
C283 H259 0.951 . S
C283 C284 1.366 . S
C283 C285 1.388 . S
C284 C283 1.366 . S
C284 C288 1.384 1_545 S
C285 H260 0.951 . S
C285 C283 1.388 . S
C285 C286 1.366 1_545 S
C286 C285 1.366 1_565 S
C286 C287 1.414 . S
C286 C289 1.499 . S
C287 H261 0.950 . S
C287 C286 1.414 . S
C287 C288 1.374 . S
C288 H262 0.950 . S
C288 C284 1.384 1_565 S
C288 C287 1.374 . S
C289 C286 1.499 . S
C289 C290 1.373 1_565 S
C289 C291 1.389 . S
C290 H263 0.950 . S
C290 C276 1.377 . S
C290 C289 1.373 1_545 S
C291 C275 1.377 . S
C291 C289 1.389 . S
C291 C292 1.524 . S
C292 C291 1.524 . S
C292 C293 1.397 . S
C292 C297 1.363 . S
C293 H264 0.950 . S
C293 C292 1.397 . S
C293 C294 1.334 . S
C294 H265 0.950 . S
C294 C293 1.334 . S
C294 C295 1.287 . S
C295 C294 1.287 . S
C295 C296 1.524 . S
C295 H298 0.999 . S
C296 H266 0.950 . S
C296 C295 1.524 . S
C296 C297 1.415 . S
C297 H267 0.950 . S
C297 C292 1.363 . S
C297 C296 1.415 . S
H298 C295 0.999 . S
H299 C280 0.913 . S
H300 C318 0.951 . S
H301 C320 0.951 . S
H302 C322 0.950 . S
H303 C323 0.950 . S
H304 C325 0.950 . S
H305 C328 0.950 1_455 S
H306 C329 0.950 1_455 S
H307 C331 0.950 . S
H308 C332 0.950 . S
H309 C333 0.951 . S
H310 C335 0.951 . S
H311 C337 0.950 . S
H312 C338 0.950 . S
H313 C340 0.950 . S
H314 C343 0.950 1_655 S
H315 C344 0.950 1_655 S
H316 C346 0.950 . S
H317 C347 0.950 . S
C318 H300 0.951 . S
C318 C319 1.366 1_655 S
C318 C320 1.388 . S
C319 C318 1.366 1_455 S
C319 C323 1.385 . S
C320 H301 0.951 . S
C320 C318 1.388 . S
C320 C321 1.350 1_655 S
C321 C320 1.350 1_455 S
C321 C322 1.430 . S
C321 C324 1.499 . S
C322 H302 0.950 . S
C322 C321 1.430 . S
C322 C323 1.374 . S
C323 H303 0.950 . S
C323 C319 1.385 . S
C323 C322 1.374 . S
C324 C321 1.499 . S
C324 C325 1.373 . S
C324 C326 1.389 1_455 S
C325 H304 0.950 . S
C325 C324 1.373 . S
C325 C341 1.377 . S
C326 C324 1.389 1_655 S
C326 C327 1.524 . S
C326 C340 1.377 . S
C327 C326 1.524 . S
C327 C328 1.397 . S
C327 C332 1.363 . S
C328 H305 0.950 1_655 S
C328 C327 1.397 . S
C328 C329 1.334 . S
C329 H306 0.950 1_655 S
C329 C328 1.334 . S
C329 C330 1.287 . S
C330 C329 1.287 . S
C330 C331 1.524 . S
C330 H349 0.913 . S
C331 H307 0.950 . S
C331 C330 1.524 . S
C331 C332 1.415 . S
C332 H308 0.950 . S
C332 C327 1.363 . S
C332 C331 1.415 . S
C333 H309 0.951 . S
C333 C334 1.366 . S
C333 C335 1.388 . S
C334 C333 1.366 . S
C334 C338 1.385 1_455 S
C335 H310 0.951 . S
C335 C333 1.388 . S
C335 C336 1.355 1_455 S
C336 C335 1.355 1_655 S
C336 C337 1.424 . S
C336 C339 1.499 . S
C337 H311 0.950 . S
C337 C336 1.424 . S
C337 C338 1.374 . S
C338 H312 0.950 . S
C338 C334 1.385 1_655 S
C338 C337 1.374 . S
C339 C336 1.499 . S
C339 C340 1.373 . S
C339 C341 1.389 1_655 S
C340 H313 0.950 . S
C340 C326 1.377 . S
C340 C339 1.373 . S
C341 C325 1.377 . S
C341 C339 1.389 1_455 S
C341 C342 1.524 . S
C342 C341 1.524 . S
C342 C343 1.397 . S
C342 C347 1.363 . S
C343 H314 0.950 1_455 S
C343 C342 1.397 . S
C343 C344 1.334 . S
C344 H315 0.950 1_455 S
C344 C343 1.334 . S
C344 C345 1.287 . S
C345 C344 1.287 . S
C345 C346 1.524 . S
C345 H348 0.999 . S
C346 H316 0.950 . S
C346 C345 1.524 . S
C346 C347 1.415 . S
C347 H317 0.950 . S
C347 C342 1.363 . S
C347 C346 1.415 . S
H348 C345 0.999 . S
H349 C330 0.913 . S
H350 C368 0.951 . S
H351 C370 0.951 . S
H352 C372 0.950 . S
H353 C373 0.950 . S
H354 C375 0.950 . S
H355 C378 0.950 . S
H356 C379 0.950 . S
H357 C381 0.950 . S
H358 C382 0.950 . S
H359 C383 0.951 . S
H360 C385 0.951 . S
H361 C387 0.950 . S
H362 C388 0.950 . S
H363 C390 0.950 . S
H364 C393 0.950 . S
H365 C394 0.950 . S
H366 C396 0.950 . S
H367 C397 0.950 . S
C368 H350 0.951 . S
C368 C369 1.366 . S
C368 C370 1.388 . S
C369 C368 1.366 . S
C369 C373 1.384 1_545 S
C370 H351 0.951 . S
C370 C368 1.388 . S
C370 C371 1.346 1_545 S
C371 C370 1.346 1_565 S
C371 C372 1.434 . S
C371 C374 1.500 . S
C372 H352 0.950 . S
C372 C371 1.434 . S
C372 C373 1.374 . S
C373 H353 0.950 . S
C373 C369 1.384 1_565 S
C373 C372 1.374 . S
C374 C371 1.500 . S
C374 C375 1.373 . S
C374 C376 1.389 1_565 S
C375 H354 0.950 . S
C375 C374 1.373 . S
C375 C391 1.377 . S
C376 C374 1.389 1_545 S
C376 C377 1.524 . S
C376 C390 1.377 . S
C377 C376 1.524 . S
C377 C378 1.397 1_545 S
C377 C382 1.363 . S
C378 H355 0.950 . S
C378 C377 1.397 1_565 S
C378 C379 1.334 . S
C379 H356 0.950 . S
C379 C378 1.334 . S
C379 C380 1.287 1_565 S
C380 C379 1.287 1_545 S
C380 C381 1.524 . S
C380 H399 0.913 . S
C381 H357 0.950 . S
C381 C380 1.524 . S
C381 C382 1.415 . S
C382 H358 0.950 . S
C382 C377 1.363 . S
C382 C381 1.415 . S
C383 H359 0.951 . S
C383 C384 1.366 1_565 S
C383 C385 1.388 . S
C384 C383 1.366 1_545 S
C384 C388 1.384 . S
C385 H360 0.951 . S
C385 C383 1.388 . S
C385 C386 1.366 1_565 S
C386 C385 1.366 1_545 S
C386 C387 1.414 . S
C386 C389 1.499 . S
C387 H361 0.950 . S
C387 C386 1.414 . S
C387 C388 1.374 . S
C388 H362 0.950 . S
C388 C384 1.384 . S
C388 C387 1.374 . S
C389 C386 1.499 . S
C389 C390 1.373 . S
C389 C391 1.389 1_545 S
C390 H363 0.950 . S
C390 C376 1.377 . S
C390 C389 1.373 . S
C391 C375 1.377 . S
C391 C389 1.389 1_565 S
C391 C392 1.524 . S
C392 C391 1.524 . S
C392 C393 1.397 1_565 S
C392 C397 1.363 . S
C393 H364 0.950 . S
C393 C392 1.397 1_545 S
C393 C394 1.334 . S
C394 H365 0.950 . S
C394 C393 1.334 . S
C394 C395 1.287 1_545 S
C395 C394 1.287 1_565 S
C395 C396 1.524 . S
C395 H398 0.999 . S
C396 H366 0.950 . S
C396 C395 1.524 . S
C396 C397 1.415 . S
C397 H367 0.950 . S
C397 C392 1.363 . S
C397 C396 1.415 . S
H398 C395 0.999 . S
H399 C380 0.913 . S
H400 C418 0.951 . S
H401 C420 0.951 . S
H402 C422 0.950 . S
H403 C423 0.950 . S
H404 C425 0.950 . S
H405 C428 0.950 1_455 S
H406 C429 0.950 . S
H407 C431 0.950 . S
H408 C432 0.950 . S
H409 C433 0.951 . S
H410 C435 0.951 . S
H411 C437 0.950 . S
H412 C438 0.950 . S
H413 C440 0.950 . S
H414 C443 0.950 1_655 S
H415 C444 0.950 . S
H416 C446 0.950 . S
H417 C447 0.950 . S
C418 H400 0.951 . S
C418 C419 1.366 1_655 S
C418 C420 1.388 . S
C419 C418 1.366 1_455 S
C419 C423 1.385 . S
C420 H401 0.951 . S
C420 C418 1.388 . S
C420 C421 1.353 1_655 S
C421 C420 1.353 1_455 S
C421 C422 1.427 . S
C421 C424 1.499 . S
C422 H402 0.950 . S
C422 C421 1.427 . S
C422 C423 1.374 . S
C423 H403 0.950 . S
C423 C419 1.385 . S
C423 C422 1.374 . S
C424 C421 1.499 . S
C424 C425 1.373 . S
C424 C426 1.389 1_455 S
C425 H404 0.950 . S
C425 C424 1.373 . S
C425 C441 1.377 . S
C426 C424 1.389 1_655 S
C426 C427 1.524 . S
C426 C440 1.377 . S
C427 C426 1.524 . S
C427 C428 1.397 . S
C427 C432 1.363 . S
C428 H405 0.950 1_655 S
C428 C427 1.397 . S
C428 C429 1.334 . S
C429 H406 0.950 . S
C429 C428 1.334 . S
C429 C430 1.287 . S
C430 C429 1.287 . S
C430 C431 1.524 . S
C430 H449 0.913 . S
C431 H407 0.950 . S
C431 C430 1.524 . S
C431 C432 1.415 . S
C432 H408 0.950 . S
C432 C427 1.363 . S
C432 C431 1.415 . S
C433 H409 0.951 . S
C433 C434 1.366 . S
C433 C435 1.388 . S
C434 C433 1.366 . S
C434 C438 1.385 1_455 S
C435 H410 0.951 . S
C435 C433 1.388 . S
C435 C436 1.359 1_455 S
C436 C435 1.359 1_655 S
C436 C437 1.421 . S
C436 C439 1.499 . S
C437 H411 0.950 . S
C437 C436 1.421 . S
C437 C438 1.374 . S
C438 H412 0.950 . S
C438 C434 1.385 1_655 S
C438 C437 1.374 . S
C439 C436 1.499 . S
C439 C440 1.373 . S
C439 C441 1.389 1_655 S
C440 H413 0.950 . S
C440 C426 1.377 . S
C440 C439 1.373 . S
C441 C425 1.377 . S
C441 C439 1.389 1_455 S
C441 C442 1.524 . S
C442 C441 1.524 . S
C442 C443 1.397 . S
C442 C447 1.363 . S
C443 H414 0.950 1_455 S
C443 C442 1.397 . S
C443 C444 1.334 . S
C444 H415 0.950 . S
C444 C443 1.334 . S
C444 C445 1.287 . S
C445 C444 1.287 . S
C445 C446 1.524 . S
C445 H448 0.999 . S
C446 H416 0.950 . S
C446 C445 1.524 . S
C446 C447 1.415 . S
C447 H417 0.950 . S
C447 C442 1.363 . S
C447 C446 1.415 . S
H448 C445 0.999 . S
H449 C430 0.913 . S
H450 C468 0.951 . S
H451 C470 0.951 . S
H452 C472 0.950 . S
H453 C473 0.951 . S
H454 C475 0.950 . S
H455 C478 0.950 . S
H456 C479 0.950 . S
H457 C481 0.950 . S
H458 C482 0.950 . S
H459 C483 0.951 . S
H460 C485 0.951 . S
H461 C487 0.950 1_565 S
H462 C488 0.950 . S
H463 C490 0.950 . S
H464 C493 0.950 . S
H465 C494 0.950 . S
H466 C496 0.950 . S
H467 C497 0.950 . S
C468 H450 0.951 . S
C468 C469 1.366 1_565 S
C468 C470 1.388 . S
C469 C468 1.366 1_545 S
C469 C473 1.384 . S
C470 H451 0.951 . S
C470 C468 1.388 . S
C470 C471 1.366 . S
C471 C470 1.366 . S
C471 C472 1.414 1_565 S
C471 C474 1.499 . S
C472 H452 0.950 . S
C472 C471 1.414 1_545 S
C472 C473 1.374 . S
C473 H453 0.951 . S
C473 C469 1.384 . S
C473 C472 1.374 . S
C474 C471 1.499 . S
C474 C475 1.373 1_565 S
C474 C476 1.389 . S
C475 H454 0.950 . S
C475 C474 1.373 1_545 S
C475 C491 1.377 . S
C476 C474 1.389 . S
C476 C477 1.524 . S
C476 C490 1.377 . S
C477 C476 1.524 . S
C477 C478 1.397 . S
C477 C482 1.363 . S
C478 H455 0.950 . S
C478 C477 1.397 . S
C478 C479 1.334 . S
C479 H456 0.950 . S
C479 C478 1.334 . S
C479 C480 1.287 . S
C480 C479 1.287 . S
C480 C481 1.524 . S
C480 H499 0.913 . S
C481 H457 0.950 . S
C481 C480 1.524 . S
C481 C482 1.415 . S
C482 H458 0.950 . S
C482 C477 1.363 . S
C482 C481 1.415 . S
C483 H459 0.951 . S
C483 C484 1.366 . S
C483 C485 1.388 . S
C484 C483 1.366 . S
C484 C488 1.384 1_545 S
C485 H460 0.951 . S
C485 C483 1.388 . S
C485 C486 1.366 . S
C486 C485 1.366 . S
C486 C487 1.414 . S
C486 C489 1.499 . S
C487 H461 0.950 1_545 S
C487 C486 1.414 . S
C487 C488 1.374 1_545 S
C488 H462 0.950 . S
C488 C484 1.384 1_565 S
C488 C487 1.374 1_565 S
C489 C486 1.499 . S
C489 C490 1.373 1_545 S
C489 C491 1.389 . S
C490 H463 0.950 . S
C490 C476 1.377 . S
C490 C489 1.373 1_565 S
C491 C475 1.377 . S
C491 C489 1.389 . S
C491 C492 1.524 . S
C492 C491 1.524 . S
C492 C493 1.397 . S
C492 C497 1.363 . S
C493 H464 0.950 . S
C493 C492 1.397 . S
C493 C494 1.334 . S
C494 H465 0.950 . S
C494 C493 1.334 . S
C494 C495 1.287 . S
C495 C494 1.287 . S
C495 C496 1.524 . S
C495 H498 0.999 . S
C496 H466 0.950 . S
C496 C495 1.524 . S
C496 C497 1.415 . S
C497 H467 0.950 . S
C497 C492 1.363 . S
C497 C496 1.415 . S
H498 C495 0.999 . S
H499 C480 0.913 . S
H500 C518 0.951 . S
H501 C520 0.951 . S
H502 C522 0.950 . S
H503 C523 0.950 . S
H504 C525 0.950 . S
H505 C528 0.950 . S
H506 C529 0.950 . S
H507 C531 0.950 . S
H508 C532 0.950 . S
H509 C533 0.951 . S
H510 C535 0.951 . S
H511 C537 0.950 . S
H512 C538 0.950 . S
H513 C540 0.950 . S
H514 C543 0.950 . S
H515 C544 0.950 . S
H516 C546 0.950 . S
H517 C547 0.950 . S
C518 H500 0.951 . S
C518 C519 1.365 . S
C518 C520 1.388 . S
C519 C518 1.365 . S
C519 C523 1.385 1_455 S
C520 H501 0.951 . S
C520 C518 1.388 . S
C520 C521 1.366 . S
C521 C520 1.366 . S
C521 C522 1.414 1_455 S
C521 C524 1.499 . S
C522 H502 0.950 . S
C522 C521 1.414 1_655 S
C522 C523 1.374 . S
C523 H503 0.950 . S
C523 C519 1.385 1_655 S
C523 C522 1.374 . S
C524 C521 1.499 . S
C524 C525 1.373 1_455 S
C524 C526 1.389 . S
C525 H504 0.950 . S
C525 C524 1.373 1_655 S
C525 C541 1.377 . S
C526 C524 1.389 . S
C526 C527 1.524 . S
C526 C540 1.377 . S
C527 C526 1.524 . S
C527 C528 1.397 . S
C527 C532 1.363 . S
C528 H505 0.950 . S
C528 C527 1.397 . S
C528 C529 1.334 . S
C529 H506 0.950 . S
C529 C528 1.334 . S
C529 C530 1.287 . S
C530 C529 1.287 . S
C530 C531 1.524 . S
C530 H549 0.913 . S
C531 H507 0.950 . S
C531 C530 1.524 . S
C531 C532 1.415 . S
C532 H508 0.950 . S
C532 C527 1.363 . S
C532 C531 1.415 . S
C533 H509 0.951 . S
C533 C534 1.365 1_655 S
C533 C535 1.388 . S
C534 C533 1.365 1_455 S
C534 C538 1.385 . S
C535 H510 0.951 . S
C535 C533 1.388 . S
C535 C536 1.366 . S
C536 C535 1.366 . S
C536 C537 1.414 1_655 S
C536 C539 1.499 . S
C537 H511 0.950 . S
C537 C536 1.414 1_455 S
C537 C538 1.374 . S
C538 H512 0.950 . S
C538 C534 1.385 . S
C538 C537 1.374 . S
C539 C536 1.499 . S
C539 C540 1.373 1_655 S
C539 C541 1.389 . S
C540 H513 0.950 . S
C540 C526 1.377 . S
C540 C539 1.373 1_455 S
C541 C525 1.377 . S
C541 C539 1.389 . S
C541 C542 1.524 . S
C542 C541 1.524 . S
C542 C543 1.397 . S
C542 C547 1.363 . S
C543 H514 0.950 . S
C543 C542 1.397 . S
C543 C544 1.334 . S
C544 H515 0.950 . S
C544 C543 1.334 . S
C544 C545 1.287 . S
C545 C544 1.287 . S
C545 C546 1.524 . S
C545 H548 0.999 . S
C546 H516 0.950 . S
C546 C545 1.524 . S
C546 C547 1.415 . S
C547 H517 0.950 . S
C547 C542 1.363 . S
C547 C546 1.415 . S
H548 C545 0.999 . S
H549 C530 0.913 . S
H550 C568 0.951 . S
H551 C570 0.951 . S
H552 C572 0.950 . S
H553 C573 0.950 . S
H554 C575 0.950 . S
H555 C578 0.950 . S
H556 C579 0.950 . S
H557 C581 0.950 . S
H558 C582 0.950 . S
H559 C583 0.951 . S
H560 C585 0.951 . S
H561 C587 0.950 . S
H562 C588 0.950 . S
H563 C590 0.950 . S
H564 C593 0.950 . S
H565 C594 0.950 . S
H566 C596 0.950 . S
H567 C597 0.950 . S
C568 H550 0.951 . S
C568 C569 1.366 1_565 S
C568 C570 1.388 . S
C569 C568 1.366 1_545 S
C569 C573 1.384 . S
C570 H551 0.951 . S
C570 C568 1.388 . S
C570 C571 1.366 1_565 S
C571 C570 1.366 1_545 S
C571 C572 1.414 . S
C571 C574 1.499 . S
C572 H552 0.950 . S
C572 C571 1.414 . S
C572 C573 1.374 . S
C573 H553 0.950 . S
C573 C569 1.384 . S
C573 C572 1.374 . S
C574 C571 1.499 . S
C574 C575 1.373 1_545 S
C574 C576 1.389 . S
C575 H554 0.950 . S
C575 C574 1.373 1_565 S
C575 C591 1.377 . S
C576 C574 1.389 . S
C576 C577 1.524 . S
C576 C590 1.377 . S
C577 C576 1.524 . S
C577 C578 1.397 . S
C577 C582 1.363 . S
C578 H555 0.950 . S
C578 C577 1.397 . S
C578 C579 1.334 . S
C579 H556 0.950 . S
C579 C578 1.334 . S
C579 C580 1.287 . S
C580 C579 1.287 . S
C580 C581 1.524 . S
C580 H599 0.913 . S
C581 H557 0.950 . S
C581 C580 1.524 . S
C581 C582 1.415 . S
C582 H558 0.950 . S
C582 C577 1.363 . S
C582 C581 1.415 . S
C583 H559 0.951 . S
C583 C584 1.366 . S
C583 C585 1.388 . S
C584 C583 1.366 . S
C584 C588 1.384 1_545 S
C585 H560 0.951 . S
C585 C583 1.388 . S
C585 C586 1.366 1_545 S
C586 C585 1.366 1_565 S
C586 C587 1.414 . S
C586 C589 1.499 . S
C587 H561 0.950 . S
C587 C586 1.414 . S
C587 C588 1.374 . S
C588 H562 0.950 . S
C588 C584 1.384 1_565 S
C588 C587 1.374 . S
C589 C586 1.499 . S
C589 C590 1.373 1_565 S
C589 C591 1.389 . S
C590 H563 0.950 . S
C590 C576 1.377 . S
C590 C589 1.373 1_545 S
C591 C575 1.377 . S
C591 C589 1.389 . S
C591 C592 1.524 . S
C592 C591 1.524 . S
C592 C593 1.397 . S
C592 C597 1.363 . S
C593 H564 0.950 . S
C593 C592 1.397 . S
C593 C594 1.334 . S
C594 H565 0.950 . S
C594 C593 1.334 . S
C594 C595 1.287 . S
C595 C594 1.287 . S
C595 C596 1.524 . S
C595 H598 0.999 . S
C596 H566 0.950 . S
C596 C595 1.524 . S
C596 C597 1.415 . S
C597 H567 0.950 . S
C597 C592 1.363 . S
C597 C596 1.415 . S
H598 C595 0.999 . S
H599 C580 0.913 . S
H600 C618 0.951 . S
H601 C620 0.951 . S
H602 C622 0.950 . S
H603 C623 0.950 . S
H604 C625 0.950 . S
H605 C628 0.950 . S
H606 C629 0.950 1_554 S
H607 C631 0.950 . S
H608 C632 0.950 . S
H609 C633 0.951 . S
H610 C635 0.951 . S
H611 C637 0.950 . S
H612 C638 0.950 . S
H613 C640 0.950 . S
H614 C643 0.950 . S
H615 C644 0.950 1_556 S
H616 C646 0.950 . S
H617 C647 0.950 . S
C618 H600 0.951 . S
C618 C619 1.366 1_556 S
C618 C620 1.388 . S
C619 C618 1.366 1_554 S
C619 C623 1.384 . S
C620 H601 0.951 . S
C620 C618 1.388 . S
C620 C621 1.345 1_556 S
C621 C620 1.345 1_554 S
C621 C622 1.435 . S
C621 C624 1.500 . S
C622 H602 0.950 . S
C622 C621 1.435 . S
C622 C623 1.374 . S
C623 H603 0.950 . S
C623 C619 1.384 . S
C623 C622 1.374 . S
C624 C621 1.500 . S
C624 C625 1.373 . S
C624 C626 1.389 1_554 S
C625 H604 0.950 . S
C625 C624 1.373 . S
C625 C641 1.377 . S
C626 C624 1.389 1_556 S
C626 C627 1.524 . S
C626 C640 1.377 . S
C627 C626 1.524 . S
C627 C628 1.397 1_556 S
C627 C632 1.363 . S
C628 H605 0.950 . S
C628 C627 1.397 1_554 S
C628 C629 1.334 1_554 S
C629 H606 0.950 1_556 S
C629 C628 1.334 1_556 S
C629 C630 1.287 . S
C630 C629 1.287 . S
C630 C631 1.524 . S
C630 H649 0.913 . S
C631 H607 0.950 . S
C631 C630 1.524 . S
C631 C632 1.415 . S
C632 H608 0.950 . S
C632 C627 1.363 . S
C632 C631 1.415 . S
C633 H609 0.951 . S
C633 C634 1.366 . S
C633 C635 1.388 . S
C634 C633 1.366 . S
C634 C638 1.385 1_554 S
C635 H610 0.951 . S
C635 C633 1.388 . S
C635 C636 1.350 1_554 S
C636 C635 1.350 1_556 S
C636 C637 1.429 . S
C636 C639 1.499 . S
C637 H611 0.950 . S
C637 C636 1.429 . S
C637 C638 1.374 . S
C638 H612 0.950 . S
C638 C634 1.385 1_556 S
C638 C637 1.374 . S
C639 C636 1.499 . S
C639 C640 1.373 . S
C639 C641 1.389 1_556 S
C640 H613 0.950 . S
C640 C626 1.377 . S
C640 C639 1.373 . S
C641 C625 1.377 . S
C641 C639 1.389 1_554 S
C641 C642 1.524 . S
C642 C641 1.524 . S
C642 C643 1.397 1_554 S
C642 C647 1.363 . S
C643 H614 0.950 . S
C643 C642 1.397 1_556 S
C643 C644 1.334 1_556 S
C644 H615 0.950 1_554 S
C644 C643 1.334 1_554 S
C644 C645 1.287 . S
C645 C644 1.287 . S
C645 C646 1.524 . S
C645 H648 0.999 . S
C646 H616 0.950 . S
C646 C645 1.524 . S
C646 C647 1.415 . S
C647 H617 0.950 . S
C647 C642 1.363 . S
C647 C646 1.415 . S
H648 C645 0.999 . S
H649 C630 0.913 . S
H650 C668 0.951 . S
H651 C670 0.951 . S
H652 C672 0.950 . S
H653 C673 0.950 . S
H654 C675 0.950 . S
H655 C678 0.950 . S
H656 C679 0.950 . S
H657 C681 0.950 . S
H658 C682 0.950 . S
H659 C683 0.951 . S
H660 C685 0.951 . S
H661 C687 0.950 . S
H662 C688 0.950 . S
H663 C690 0.950 . S
H664 C693 0.950 . S
H665 C694 0.950 . S
H666 C696 0.950 . S
H667 C697 0.950 . S
C668 H650 0.951 . S
C668 C669 1.365 . S
C668 C670 1.388 . S
C669 C668 1.365 . S
C669 C673 1.385 1_554 S
C670 H651 0.951 . S
C670 C668 1.388 . S
C670 C671 1.366 . S
C671 C670 1.366 . S
C671 C672 1.414 1_554 S
C671 C674 1.499 . S
C672 H652 0.950 . S
C672 C671 1.414 1_556 S
C672 C673 1.374 . S
C673 H653 0.950 . S
C673 C669 1.385 1_556 S
C673 C672 1.374 . S
C674 C671 1.499 . S
C674 C675 1.373 1_554 S
C674 C676 1.389 . S
C675 H654 0.950 . S
C675 C674 1.373 1_556 S
C675 C691 1.377 . S
C676 C674 1.389 . S
C676 C677 1.524 . S
C676 C690 1.377 . S
C677 C676 1.524 . S
C677 C678 1.397 . S
C677 C682 1.363 . S
C678 H655 0.950 . S
C678 C677 1.397 . S
C678 C679 1.334 . S
C679 H656 0.950 . S
C679 C678 1.334 . S
C679 C680 1.287 . S
C680 C679 1.287 . S
C680 C681 1.524 . S
C680 H699 0.913 . S
C681 H657 0.950 . S
C681 C680 1.524 . S
C681 C682 1.415 . S
C682 H658 0.950 . S
C682 C677 1.363 . S
C682 C681 1.415 . S
C683 H659 0.951 . S
C683 C684 1.365 1_556 S
C683 C685 1.388 . S
C684 C683 1.365 1_554 S
C684 C688 1.385 . S
C685 H660 0.951 . S
C685 C683 1.388 . S
C685 C686 1.366 . S
C686 C685 1.366 . S
C686 C687 1.414 1_556 S
C686 C689 1.499 . S
C687 H661 0.950 . S
C687 C686 1.414 1_554 S
C687 C688 1.374 . S
C688 H662 0.950 . S
C688 C684 1.385 . S
C688 C687 1.374 . S
C689 C686 1.499 . S
C689 C690 1.373 1_556 S
C689 C691 1.389 . S
C690 H663 0.950 . S
C690 C676 1.377 . S
C690 C689 1.373 1_554 S
C691 C675 1.377 . S
C691 C689 1.389 . S
C691 C692 1.524 . S
C692 C691 1.524 . S
C692 C693 1.397 . S
C692 C697 1.363 . S
C693 H664 0.950 . S
C693 C692 1.397 . S
C693 C694 1.334 . S
C694 H665 0.950 . S
C694 C693 1.334 . S
C694 C695 1.287 . S
C695 C694 1.287 . S
C695 C696 1.524 . S
C695 H698 0.999 . S
C696 H666 0.950 . S
C696 C695 1.524 . S
C696 C697 1.415 . S
C697 H667 0.950 . S
C697 C692 1.363 . S
C697 C696 1.415 . S
H698 C695 0.999 . S
H699 C680 0.913 . S
H700 C718 0.951 . S
H701 C720 0.951 . S
H702 C722 0.950 . S
H703 C723 0.950 . S
H704 C725 0.950 . S
H705 C728 0.950 . S
H706 C729 0.950 . S
H707 C731 0.950 . S
H708 C732 0.950 . S
H709 C733 0.951 . S
H710 C735 0.951 . S
H711 C737 0.950 . S
H712 C738 0.950 . S
H713 C740 0.950 . S
H714 C743 0.950 . S
H715 C744 0.950 . S
H716 C746 0.950 . S
H717 C747 0.950 . S
C718 H700 0.951 . S
C718 C719 1.366 1_556 S
C718 C720 1.388 . S
C719 C718 1.366 1_554 S
C719 C723 1.385 . S
C720 H701 0.951 . S
C720 C718 1.388 . S
C720 C721 1.366 . S
C721 C720 1.366 . S
C721 C722 1.414 1_556 S
C721 C724 1.499 . S
C722 H702 0.950 . S
C722 C721 1.414 1_554 S
C722 C723 1.374 . S
C723 H703 0.950 . S
C723 C719 1.385 . S
C723 C722 1.374 . S
C724 C721 1.499 . S
C724 C725 1.373 1_556 S
C724 C726 1.389 . S
C725 H704 0.950 . S
C725 C724 1.373 1_554 S
C725 C741 1.377 . S
C726 C724 1.389 . S
C726 C727 1.524 . S
C726 C740 1.377 . S
C727 C726 1.524 . S
C727 C728 1.397 . S
C727 C732 1.363 . S
C728 H705 0.950 . S
C728 C727 1.397 . S
C728 C729 1.334 . S
C729 H706 0.950 . S
C729 C728 1.334 . S
C729 C730 1.287 . S
C730 C729 1.287 . S
C730 C731 1.524 . S
C730 H749 0.913 . S
C731 H707 0.950 . S
C731 C730 1.524 . S
C731 C732 1.415 . S
C732 H708 0.950 . S
C732 C727 1.363 . S
C732 C731 1.415 . S
C733 H709 0.951 . S
C733 C734 1.366 . S
C733 C735 1.388 . S
C734 C733 1.366 . S
C734 C738 1.385 1_554 S
C735 H710 0.951 . S
C735 C733 1.388 . S
C735 C736 1.366 . S
C736 C735 1.366 . S
C736 C737 1.414 1_554 S
C736 C739 1.499 . S
C737 H711 0.950 . S
C737 C736 1.414 1_556 S
C737 C738 1.374 . S
C738 H712 0.950 . S
C738 C734 1.385 1_556 S
C738 C737 1.374 . S
C739 C736 1.499 . S
C739 C740 1.373 1_554 S
C739 C741 1.389 . S
C740 H713 0.950 . S
C740 C726 1.377 . S
C740 C739 1.373 1_556 S
C741 C725 1.377 . S
C741 C739 1.389 . S
C741 C742 1.524 . S
C742 C741 1.524 . S
C742 C743 1.397 . S
C742 C747 1.363 . S
C743 H714 0.950 . S
C743 C742 1.397 . S
C743 C744 1.334 . S
C744 H715 0.950 . S
C744 C743 1.334 . S
C744 C745 1.287 . S
C745 C744 1.287 . S
C745 C746 1.524 . S
C745 H748 0.999 . S
C746 H716 0.950 . S
C746 C745 1.524 . S
C746 C747 1.415 . S
C747 H717 0.950 . S
C747 C742 1.363 . S
C747 C746 1.415 . S
H748 C745 0.999 . S
H749 C730 0.913 . S
H750 C768 0.951 . S
H751 C770 0.951 . S
H752 C772 0.950 . S
H753 C773 0.950 . S
H754 C775 0.950 . S
H755 C778 0.950 . S
H756 C779 0.950 . S
H757 C781 0.950 . S
H758 C782 0.950 . S
H759 C783 0.951 . S
H760 C785 0.951 . S
H761 C787 0.950 . S
H762 C788 0.950 . S
H763 C790 0.950 . S
H764 C793 0.950 . S
H765 C794 0.950 . S
H766 C796 0.950 . S
H767 C797 0.950 . S
C768 H750 0.951 . S
C768 C769 1.366 1_556 S
C768 C770 1.388 . S
C769 C768 1.366 1_554 S
C769 C773 1.384 . S
C770 H751 0.951 . S
C770 C768 1.388 . S
C770 C771 1.366 1_556 S
C771 C770 1.366 1_554 S
C771 C772 1.414 . S
C771 C774 1.499 . S
C772 H752 0.950 . S
C772 C771 1.414 . S
C772 C773 1.374 . S
C773 H753 0.950 . S
C773 C769 1.384 . S
C773 C772 1.374 . S
C774 C771 1.499 . S
C774 C775 1.373 1_554 S
C774 C776 1.389 . S
C775 H754 0.950 . S
C775 C774 1.373 1_556 S
C775 C791 1.377 . S
C776 C774 1.389 . S
C776 C777 1.524 . S
C776 C790 1.377 . S
C777 C776 1.524 . S
C777 C778 1.397 . S
C777 C782 1.363 . S
C778 H755 0.950 . S
C778 C777 1.397 . S
C778 C779 1.334 . S
C779 H756 0.950 . S
C779 C778 1.334 . S
C779 C780 1.287 . S
C780 C779 1.287 . S
C780 C781 1.524 . S
C780 H799 0.913 . S
C781 H757 0.950 . S
C781 C780 1.524 . S
C781 C782 1.415 . S
C782 H758 0.950 . S
C782 C777 1.363 . S
C782 C781 1.415 . S
C783 H759 0.951 . S
C783 C784 1.366 . S
C783 C785 1.388 . S
C784 C783 1.366 . S
C784 C788 1.384 1_554 S
C785 H760 0.951 . S
C785 C783 1.388 . S
C785 C786 1.366 1_554 S
C786 C785 1.366 1_556 S
C786 C787 1.414 . S
C786 C789 1.499 . S
C787 H761 0.950 . S
C787 C786 1.414 . S
C787 C788 1.374 . S
C788 H762 0.950 . S
C788 C784 1.384 1_556 S
C788 C787 1.374 . S
C789 C786 1.499 . S
C789 C790 1.373 1_556 S
C789 C791 1.389 . S
C790 H763 0.950 . S
C790 C776 1.377 . S
C790 C789 1.373 1_554 S
C791 C775 1.377 . S
C791 C789 1.389 . S
C791 C792 1.524 . S
C792 C791 1.524 . S
C792 C793 1.397 . S
C792 C797 1.363 . S
C793 H764 0.950 . S
C793 C792 1.397 . S
C793 C794 1.334 . S
C794 H765 0.950 . S
C794 C793 1.334 . S
C794 C795 1.287 . S
C795 C794 1.287 . S
C795 C796 1.524 . S
C795 H798 0.999 . S
C796 H766 0.950 . S
C796 C795 1.524 . S
C796 C797 1.415 . S
C797 H767 0.950 . S
C797 C792 1.363 . S
C797 C796 1.415 . S
H798 C795 0.999 . S
H799 C780 0.913 . S
H800 C818 0.951 . S
H801 C820 0.951 . S
H802 C822 0.950 . S
H803 C823 0.950 . S
H804 C825 0.950 . S
H805 C828 0.950 . S
H806 C829 0.950 . S
H807 C831 0.950 . S
H808 C832 0.950 . S
H809 C833 0.951 . S
H810 C835 0.951 . S
H811 C837 0.950 . S
H812 C838 0.950 . S
H813 C840 0.950 . S
H814 C843 0.950 . S
H815 C844 0.950 . S
H816 C846 0.950 . S
H817 C847 0.950 . S
C818 H800 0.951 . S
C818 C819 1.366 . S
C818 C820 1.388 . S
C819 C818 1.366 . S
C819 C823 1.385 . S
C820 H801 0.951 . S
C820 C818 1.388 . S
C820 C821 1.366 . S
C821 C820 1.366 . S
C821 C822 1.414 . S
C821 C824 1.499 . S
C822 H802 0.950 . S
C822 C821 1.414 . S
C822 C823 1.374 . S
C823 H803 0.950 . S
C823 C819 1.385 . S
C823 C822 1.374 . S
C824 C821 1.499 . S
C824 C825 1.373 . S
C824 C826 1.389 . S
C825 H804 0.950 . S
C825 C824 1.373 . S
C825 C841 1.377 . S
C826 C824 1.389 . S
C826 C827 1.524 . S
C826 C840 1.377 . S
C827 C826 1.524 . S
C827 C828 1.397 . S
C827 C832 1.363 . S
C828 H805 0.950 . S
C828 C827 1.397 . S
C828 C829 1.334 . S
C829 H806 0.950 . S
C829 C828 1.334 . S
C829 C830 1.287 . S
C830 C829 1.287 . S
C830 C831 1.524 . S
C830 H849 0.913 . S
C831 H807 0.950 . S
C831 C830 1.524 . S
C831 C832 1.415 . S
C832 H808 0.950 . S
C832 C827 1.363 . S
C832 C831 1.415 . S
C833 H809 0.951 . S
C833 C834 1.366 . S
C833 C835 1.388 . S
C834 C833 1.366 . S
C834 C838 1.385 . S
C835 H810 0.951 . S
C835 C833 1.388 . S
C835 C836 1.366 . S
C836 C835 1.366 . S
C836 C837 1.414 . S
C836 C839 1.499 . S
C837 H811 0.950 . S
C837 C836 1.414 . S
C837 C838 1.374 . S
C838 H812 0.950 . S
C838 C834 1.385 . S
C838 C837 1.374 . S
C839 C836 1.499 . S
C839 C840 1.373 . S
C839 C841 1.389 . S
C840 H813 0.950 . S
C840 C826 1.377 . S
C840 C839 1.373 . S
C841 C825 1.377 . S
C841 C839 1.389 . S
C841 C842 1.524 . S
C842 C841 1.524 . S
C842 C843 1.397 . S
C842 C847 1.363 . S
C843 H814 0.950 . S
C843 C842 1.397 . S
C843 C844 1.334 . S
C844 H815 0.950 . S
C844 C843 1.334 . S
C844 C845 1.287 . S
C845 C844 1.287 . S
C845 C846 1.524 . S
C845 H848 0.999 . S
C846 H816 0.950 . S
C846 C845 1.524 . S
C846 C847 1.415 . S
C847 H817 0.950 . S
C847 C842 1.363 . S
C847 C846 1.415 . S
H848 C845 0.999 . S
H849 C830 0.913 . S
H850 C868 0.951 . S
H851 C870 0.951 . S
H852 C872 0.950 . S
H853 C873 0.950 . S
H854 C875 0.950 . S
H855 C878 0.950 . S
H856 C879 0.950 . S
H857 C881 0.950 . S
H858 C882 0.950 . S
H859 C883 0.951 . S
H860 C885 0.951 . S
H861 C887 0.950 . S
H862 C888 0.950 . S
H863 C890 0.950 . S
H864 C893 0.950 . S
H865 C894 0.950 . S
H866 C896 0.950 . S
H867 C897 0.950 . S
C868 H850 0.951 . S
C868 C869 1.366 . S
C868 C870 1.388 . S
C869 C868 1.366 . S
C869 C873 1.385 . S
C870 H851 0.951 . S
C870 C868 1.388 . S
C870 C871 1.366 . S
C871 C870 1.366 . S
C871 C872 1.414 . S
C871 C874 1.499 . S
C872 H852 0.950 . S
C872 C871 1.414 . S
C872 C873 1.374 . S
C873 H853 0.950 . S
C873 C869 1.385 . S
C873 C872 1.374 . S
C874 C871 1.499 . S
C874 C875 1.373 . S
C874 C876 1.389 . S
C875 H854 0.950 . S
C875 C874 1.373 . S
C875 C891 1.377 . S
C876 C874 1.389 . S
C876 C877 1.524 . S
C876 C890 1.377 . S
C877 C876 1.524 . S
C877 C878 1.397 . S
C877 C882 1.363 . S
C878 H855 0.950 . S
C878 C877 1.397 . S
C878 C879 1.334 . S
C879 H856 0.950 . S
C879 C878 1.334 . S
C879 C880 1.287 . S
C880 C879 1.287 . S
C880 C881 1.524 . S
C880 H899 0.913 . S
C881 H857 0.950 . S
C881 C880 1.524 . S
C881 C882 1.415 . S
C882 H858 0.950 . S
C882 C877 1.363 . S
C882 C881 1.415 . S
C883 H859 0.951 . S
C883 C884 1.366 . S
C883 C885 1.388 . S
C884 C883 1.366 . S
C884 C888 1.385 . S
C885 H860 0.951 . S
C885 C883 1.388 . S
C885 C886 1.366 . S
C886 C885 1.366 . S
C886 C887 1.414 . S
C886 C889 1.499 . S
C887 H861 0.950 . S
C887 C886 1.414 . S
C887 C888 1.374 . S
C888 H862 0.950 . S
C888 C884 1.385 . S
C888 C887 1.374 . S
C889 C886 1.499 . S
C889 C890 1.373 . S
C889 C891 1.389 . S
C890 H863 0.950 . S
C890 C876 1.377 . S
C890 C889 1.373 . S
C891 C875 1.377 . S
C891 C889 1.389 . S
C891 C892 1.524 . S
C892 C891 1.524 . S
C892 C893 1.397 . S
C892 C897 1.363 . S
C893 H864 0.950 . S
C893 C892 1.397 . S
C893 C894 1.334 . S
C894 H865 0.950 . S
C894 C893 1.334 . S
C894 C895 1.287 . S
C895 C894 1.287 . S
C895 C896 1.524 . S
C895 H898 0.999 . S
C896 H866 0.950 . S
C896 C895 1.524 . S
C896 C897 1.415 . S
C897 H867 0.950 . S
C897 C892 1.363 . S
C897 C896 1.415 . S
H898 C895 0.999 . S
H899 C880 0.913 . S
H900 C918 0.951 . S
H901 C920 0.951 . S
H902 C922 0.950 . S
H903 C923 0.950 . S
H904 C925 0.950 . S
H905 C928 0.950 . S
H906 C929 0.950 . S
H907 C931 0.950 . S
H908 C932 0.950 . S
H909 C933 0.951 . S
H910 C935 0.951 . S
H911 C937 0.950 . S
H912 C938 0.950 . S
H913 C940 0.950 . S
H914 C943 0.950 . S
H915 C944 0.950 . S
H916 C946 0.950 . S
H917 C947 0.950 . S
C918 H900 0.951 . S
C918 C919 1.366 . S
C918 C920 1.388 . S
C919 C918 1.366 . S
C919 C923 1.385 . S
C920 H901 0.951 . S
C920 C918 1.388 . S
C920 C921 1.366 . S
C921 C920 1.366 . S
C921 C922 1.414 . S
C921 C924 1.499 . S
C922 H902 0.950 . S
C922 C921 1.414 . S
C922 C923 1.374 . S
C923 H903 0.950 . S
C923 C919 1.385 . S
C923 C922 1.374 . S
C924 C921 1.499 . S
C924 C925 1.373 . S
C924 C926 1.389 . S
C925 H904 0.950 . S
C925 C924 1.373 . S
C925 C941 1.377 . S
C926 C924 1.389 . S
C926 C927 1.524 . S
C926 C940 1.377 . S
C927 C926 1.524 . S
C927 C928 1.397 . S
C927 C932 1.363 . S
C928 H905 0.950 . S
C928 C927 1.397 . S
C928 C929 1.334 . S
C929 H906 0.950 . S
C929 C928 1.334 . S
C929 C930 1.287 . S
C930 C929 1.287 . S
C930 C931 1.524 . S
C930 H949 0.913 . S
C931 H907 0.950 . S
C931 C930 1.524 . S
C931 C932 1.415 . S
C932 H908 0.950 . S
C932 C927 1.363 . S
C932 C931 1.415 . S
C933 H909 0.951 . S
C933 C934 1.366 . S
C933 C935 1.388 . S
C934 C933 1.366 . S
C934 C938 1.385 . S
C935 H910 0.951 . S
C935 C933 1.388 . S
C935 C936 1.366 . S
C936 C935 1.366 . S
C936 C937 1.414 . S
C936 C939 1.499 . S
C937 H911 0.950 . S
C937 C936 1.414 . S
C937 C938 1.374 . S
C938 H912 0.950 . S
C938 C934 1.385 . S
C938 C937 1.374 . S
C939 C936 1.499 . S
C939 C940 1.373 . S
C939 C941 1.389 . S
C940 H913 0.950 . S
C940 C926 1.377 . S
C940 C939 1.373 . S
C941 C925 1.377 . S
C941 C939 1.389 . S
C941 C942 1.524 . S
C942 C941 1.524 . S
C942 C943 1.397 . S
C942 C947 1.363 . S
C943 H914 0.950 . S
C943 C942 1.397 . S
C943 C944 1.334 . S
C944 H915 0.950 . S
C944 C943 1.334 . S
C944 C945 1.287 . S
C945 C944 1.287 . S
C945 C946 1.524 . S
C945 H948 0.999 . S
C946 H916 0.950 . S
C946 C945 1.524 . S
C946 C947 1.415 . S
C947 H917 0.950 . S
C947 C942 1.363 . S
C947 C946 1.415 . S
H948 C945 0.999 . S
H949 C930 0.913 . S
H950 C968 0.951 . S
H951 C970 0.951 . S
H952 C972 0.950 . S
H953 C973 0.950 . S
H954 C975 0.950 . S
H955 C978 0.950 . S
H956 C979 0.950 . S
H957 C981 0.950 . S
H958 C982 0.950 . S
H959 C983 0.951 . S
H960 C985 0.951 . S
H961 C987 0.950 . S
H962 C988 0.950 . S
H963 C990 0.950 . S
H964 C993 0.950 . S
H965 C994 0.950 . S
H966 C996 0.950 . S
H967 C997 0.950 . S
C968 H950 0.951 . S
C968 C969 1.366 . S
C968 C970 1.388 . S
C969 C968 1.366 . S
C969 C973 1.385 . S
C970 H951 0.951 . S
C970 C968 1.388 . S
C970 C971 1.366 . S
C971 C970 1.366 . S
C971 C972 1.414 . S
C971 C974 1.499 . S
C972 H952 0.950 . S
C972 C971 1.414 . S
C972 C973 1.374 . S
C973 H953 0.950 . S
C973 C969 1.385 . S
C973 C972 1.374 . S
C974 C971 1.499 . S
C974 C975 1.373 . S
C974 C976 1.389 . S
C975 H954 0.950 . S
C975 C974 1.373 . S
C975 C991 1.377 . S
C976 C974 1.389 . S
C976 C977 1.524 . S
C976 C990 1.377 . S
C977 C976 1.524 . S
C977 C978 1.397 . S
C977 C982 1.363 . S
C978 H955 0.950 . S
C978 C977 1.397 . S
C978 C979 1.334 . S
C979 H956 0.950 . S
C979 C978 1.334 . S
C979 C980 1.287 . S
C980 C979 1.287 . S
C980 C981 1.524 . S
C980 H999 0.913 . S
C981 H957 0.950 . S
C981 C980 1.524 . S
C981 C982 1.415 . S
C982 H958 0.950 . S
C982 C977 1.363 . S
C982 C981 1.415 . S
C983 H959 0.951 . S
C983 C984 1.366 . S
C983 C985 1.388 . S
C984 C983 1.366 . S
C984 C988 1.385 . S
C985 H960 0.951 . S
C985 C983 1.388 . S
C985 C986 1.366 . S
C986 C985 1.366 . S
C986 C987 1.414 . S
C986 C989 1.499 . S
C987 H961 0.950 . S
C987 C986 1.414 . S
C987 C988 1.374 . S
C988 H962 0.950 . S
C988 C984 1.385 . S
C988 C987 1.374 . S
C989 C986 1.499 . S
C989 C990 1.373 . S
C989 C991 1.389 . S
C990 H963 0.950 . S
C990 C976 1.377 . S
C990 C989 1.373 . S
C991 C975 1.377 . S
C991 C989 1.389 . S
C991 C992 1.524 . S
C992 C991 1.524 . S
C992 C993 1.397 . S
C992 C997 1.363 . S
C993 H964 0.950 . S
C993 C992 1.397 . S
C993 C994 1.334 . S
C994 H965 0.950 . S
C994 C993 1.334 . S
C994 C995 1.287 . S
C995 C994 1.287 . S
C995 C996 1.524 . S
C995 H998 0.999 . S
C996 H966 0.950 . S
C996 C995 1.524 . S
C996 C997 1.415 . S
C997 H967 0.950 . S
C997 C992 1.363 . S
C997 C996 1.415 . S
H998 C995 0.999 . S
H999 C980 0.913 . S
H1000 C1018 0.951 . S
H1001 C1020 0.951 . S
H1002 C1022 0.950 . S
H1003 C1023 0.950 . S
H1004 C1025 0.950 . S
H1005 C1028 0.950 . S
H1006 C1029 0.950 . S
H1007 C1031 0.950 . S
H1008 C1032 0.950 . S
H1009 C1033 0.951 . S
H1010 C1035 0.951 . S
H1011 C1037 0.950 . S
H1012 C1038 0.950 . S
H1013 C1040 0.950 . S
H1014 C1043 0.950 . S
H1015 C1044 0.950 . S
H1016 C1046 0.950 . S
H1017 C1047 0.950 . S
C1018 H1000 0.951 . S
C1018 C1019 1.366 . S
C1018 C1020 1.388 . S
C1019 C1018 1.366 . S
C1019 C1023 1.385 . S
C1020 H1001 0.951 . S
C1020 C1018 1.388 . S
C1020 C1021 1.366 . S
C1021 C1020 1.366 . S
C1021 C1022 1.414 . S
C1021 C1024 1.499 . S
C1022 H1002 0.950 . S
C1022 C1021 1.414 . S
C1022 C1023 1.374 . S
C1023 H1003 0.950 . S
C1023 C1019 1.385 . S
C1023 C1022 1.374 . S
C1024 C1021 1.499 . S
C1024 C1025 1.373 . S
C1024 C1026 1.389 . S
C1025 H1004 0.950 . S
C1025 C1024 1.373 . S
C1025 C1041 1.377 . S
C1026 C1024 1.389 . S
C1026 C1027 1.524 . S
C1026 C1040 1.377 . S
C1027 C1026 1.524 . S
C1027 C1028 1.397 . S
C1027 C1032 1.363 . S
C1028 H1005 0.950 . S
C1028 C1027 1.397 . S
C1028 C1029 1.334 . S
C1029 H1006 0.950 . S
C1029 C1028 1.334 . S
C1029 C1030 1.287 . S
C1030 C1029 1.287 . S
C1030 C1031 1.524 . S
C1030 H1049 0.913 . S
C1031 H1007 0.950 . S
C1031 C1030 1.524 . S
C1031 C1032 1.415 . S
C1032 H1008 0.950 . S
C1032 C1027 1.363 . S
C1032 C1031 1.415 . S
C1033 H1009 0.951 . S
C1033 C1034 1.366 . S
C1033 C1035 1.388 . S
C1034 C1033 1.366 . S
C1034 C1038 1.385 . S
C1035 H1010 0.951 . S
C1035 C1033 1.388 . S
C1035 C1036 1.366 . S
C1036 C1035 1.366 . S
C1036 C1037 1.414 . S
C1036 C1039 1.499 . S
C1037 H1011 0.950 . S
C1037 C1036 1.414 . S
C1037 C1038 1.374 . S
C1038 H1012 0.950 . S
C1038 C1034 1.385 . S
C1038 C1037 1.374 . S
C1039 C1036 1.499 . S
C1039 C1040 1.373 . S
C1039 C1041 1.389 . S
C1040 H1013 0.950 . S
C1040 C1026 1.377 . S
C1040 C1039 1.373 . S
C1041 C1025 1.377 . S
C1041 C1039 1.389 . S
C1041 C1042 1.524 . S
C1042 C1041 1.524 . S
C1042 C1043 1.397 . S
C1042 C1047 1.363 . S
C1043 H1014 0.950 . S
C1043 C1042 1.397 . S
C1043 C1044 1.334 . S
C1044 H1015 0.950 . S
C1044 C1043 1.334 . S
C1044 C1045 1.287 . S
C1045 C1044 1.287 . S
C1045 C1046 1.524 . S
C1045 H1048 0.999 . S
C1046 H1016 0.950 . S
C1046 C1045 1.524 . S
C1046 C1047 1.415 . S
C1047 H1017 0.950 . S
C1047 C1042 1.363 . S
C1047 C1046 1.415 . S
H1048 C1045 0.999 . S
H1049 C1030 0.913 . S
H1050 C1068 0.951 . S
H1051 C1070 0.951 . S
H1052 C1072 0.950 . S
H1053 C1073 0.950 . S
H1054 C1075 0.950 . S
H1055 C1078 0.950 . S
H1056 C1079 0.950 . S
H1057 C1081 0.950 . S
H1058 C1082 0.950 . S
H1059 C1083 0.951 . S
H1060 C1085 0.951 . S
H1061 C1087 0.950 . S
H1062 C1088 0.950 . S
H1063 C1090 0.950 . S
H1064 C1093 0.950 . S
H1065 C1094 0.950 . S
H1066 C1096 0.950 . S
H1067 C1097 0.950 . S
C1068 H1050 0.951 . S
C1068 C1069 1.366 . S
C1068 C1070 1.388 . S
C1069 C1068 1.366 . S
C1069 C1073 1.385 . S
C1070 H1051 0.951 . S
C1070 C1068 1.388 . S
C1070 C1071 1.366 . S
C1071 C1070 1.366 . S
C1071 C1072 1.414 . S
C1071 C1074 1.499 . S
C1072 H1052 0.950 . S
C1072 C1071 1.414 . S
C1072 C1073 1.374 . S
C1073 H1053 0.950 . S
C1073 C1069 1.385 . S
C1073 C1072 1.374 . S
C1074 C1071 1.499 . S
C1074 C1075 1.373 . S
C1074 C1076 1.389 . S
C1075 H1054 0.950 . S
C1075 C1074 1.373 . S
C1075 C1091 1.377 . S
C1076 C1074 1.389 . S
C1076 C1077 1.524 . S
C1076 C1090 1.377 . S
C1077 C1076 1.524 . S
C1077 C1078 1.397 . S
C1077 C1082 1.363 . S
C1078 H1055 0.950 . S
C1078 C1077 1.397 . S
C1078 C1079 1.334 . S
C1079 H1056 0.950 . S
C1079 C1078 1.334 . S
C1079 C1080 1.287 . S
C1080 C1079 1.287 . S
C1080 C1081 1.524 . S
C1080 H1099 0.913 . S
C1081 H1057 0.950 . S
C1081 C1080 1.524 . S
C1081 C1082 1.415 . S
C1082 H1058 0.950 . S
C1082 C1077 1.363 . S
C1082 C1081 1.415 . S
C1083 H1059 0.951 . S
C1083 C1084 1.366 . S
C1083 C1085 1.388 . S
C1084 C1083 1.366 . S
C1084 C1088 1.385 . S
C1085 H1060 0.951 . S
C1085 C1083 1.388 . S
C1085 C1086 1.366 . S
C1086 C1085 1.366 . S
C1086 C1087 1.414 . S
C1086 C1089 1.499 . S
C1087 H1061 0.950 . S
C1087 C1086 1.414 . S
C1087 C1088 1.374 . S
C1088 H1062 0.950 . S
C1088 C1084 1.385 . S
C1088 C1087 1.374 . S
C1089 C1086 1.499 . S
C1089 C1090 1.373 . S
C1089 C1091 1.389 . S
C1090 H1063 0.950 . S
C1090 C1076 1.377 . S
C1090 C1089 1.373 . S
C1091 C1075 1.377 . S
C1091 C1089 1.389 . S
C1091 C1092 1.524 . S
C1092 C1091 1.524 . S
C1092 C1093 1.397 . S
C1092 C1097 1.363 . S
C1093 H1064 0.950 . S
C1093 C1092 1.397 . S
C1093 C1094 1.334 . S
C1094 H1065 0.950 . S
C1094 C1093 1.334 . S
C1094 C1095 1.287 . S
C1095 C1094 1.287 . S
C1095 C1096 1.524 . S
C1095 H1098 0.999 . S
C1096 H1066 0.950 . S
C1096 C1095 1.524 . S
C1096 C1097 1.415 . S
C1097 H1067 0.950 . S
C1097 C1092 1.363 . S
C1097 C1096 1.415 . S
H1098 C1095 0.999 . S
H1099 C1080 0.913 . S
H1100 C1118 0.951 . S
H1101 C1120 0.951 . S
H1102 C1122 0.950 . S
H1103 C1123 0.950 . S
H1104 C1125 0.950 . S
H1105 C1128 0.950 . S
H1106 C1129 0.950 . S
H1107 C1131 0.950 . S
H1108 C1132 0.950 . S
H1109 C1133 0.951 . S
H1110 C1135 0.951 . S
H1111 C1137 0.950 . S
H1112 C1138 0.950 . S
H1113 C1140 0.950 . S
H1114 C1143 0.950 . S
H1115 C1144 0.950 . S
H1116 C1146 0.950 . S
H1117 C1147 0.950 . S
C1118 H1100 0.951 . S
C1118 C1119 1.366 . S
C1118 C1120 1.388 . S
C1119 C1118 1.366 . S
C1119 C1123 1.385 . S
C1120 H1101 0.951 . S
C1120 C1118 1.388 . S
C1120 C1121 1.366 . S
C1121 C1120 1.366 . S
C1121 C1122 1.414 . S
C1121 C1124 1.499 . S
C1122 H1102 0.950 . S
C1122 C1121 1.414 . S
C1122 C1123 1.374 . S
C1123 H1103 0.950 . S
C1123 C1119 1.385 . S
C1123 C1122 1.374 . S
C1124 C1121 1.499 . S
C1124 C1125 1.373 . S
C1124 C1126 1.389 . S
C1125 H1104 0.950 . S
C1125 C1124 1.373 . S
C1125 C1141 1.377 . S
C1126 C1124 1.389 . S
C1126 C1127 1.524 . S
C1126 C1140 1.377 . S
C1127 C1126 1.524 . S
C1127 C1128 1.397 . S
C1127 C1132 1.363 . S
C1128 H1105 0.950 . S
C1128 C1127 1.397 . S
C1128 C1129 1.334 . S
C1129 H1106 0.950 . S
C1129 C1128 1.334 . S
C1129 C1130 1.287 . S
C1130 C1129 1.287 . S
C1130 C1131 1.524 . S
C1130 H1149 0.913 . S
C1131 H1107 0.950 . S
C1131 C1130 1.524 . S
C1131 C1132 1.415 . S
C1132 H1108 0.950 . S
C1132 C1127 1.363 . S
C1132 C1131 1.415 . S
C1133 H1109 0.951 . S
C1133 C1134 1.366 . S
C1133 C1135 1.388 . S
C1134 C1133 1.366 . S
C1134 C1138 1.385 . S
C1135 H1110 0.951 . S
C1135 C1133 1.388 . S
C1135 C1136 1.366 . S
C1136 C1135 1.366 . S
C1136 C1137 1.414 . S
C1136 C1139 1.499 . S
C1137 H1111 0.950 . S
C1137 C1136 1.414 . S
C1137 C1138 1.374 . S
C1138 H1112 0.950 . S
C1138 C1134 1.385 . S
C1138 C1137 1.374 . S
C1139 C1136 1.499 . S
C1139 C1140 1.373 . S
C1139 C1141 1.389 . S
C1140 H1113 0.950 . S
C1140 C1126 1.377 . S
C1140 C1139 1.373 . S
C1141 C1125 1.377 . S
C1141 C1139 1.389 . S
C1141 C1142 1.524 . S
C1142 C1141 1.524 . S
C1142 C1143 1.397 . S
C1142 C1147 1.363 . S
C1143 H1114 0.950 . S
C1143 C1142 1.397 . S
C1143 C1144 1.334 . S
C1144 H1115 0.950 . S
C1144 C1143 1.334 . S
C1144 C1145 1.287 . S
C1145 C1144 1.287 . S
C1145 C1146 1.524 . S
C1145 H1148 0.999 . S
C1146 H1116 0.950 . S
C1146 C1145 1.524 . S
C1146 C1147 1.415 . S
C1147 H1117 0.950 . S
C1147 C1142 1.363 . S
C1147 C1146 1.415 . S
H1148 C1145 0.999 . S
H1149 C1130 0.913 . S
H1150 C1168 0.951 . S
H1151 C1170 0.951 . S
H1152 C1172 0.950 . S
H1153 C1173 0.950 . S
H1154 C1175 0.950 . S
H1155 C1178 0.950 . S
H1156 C1179 0.950 . S
H1157 C1181 0.950 . S
H1158 C1182 0.950 . S
H1159 C1183 0.951 . S
H1160 C1185 0.951 . S
H1161 C1187 0.950 . S
H1162 C1188 0.950 . S
H1163 C1190 0.950 . S
H1164 C1193 0.950 . S
H1165 C1194 0.950 . S
H1166 C1196 0.950 . S
H1167 C1197 0.950 . S
C1168 H1150 0.951 . S
C1168 C1169 1.366 . S
C1168 C1170 1.388 . S
C1169 C1168 1.366 . S
C1169 C1173 1.385 . S
C1170 H1151 0.951 . S
C1170 C1168 1.388 . S
C1170 C1171 1.366 . S
C1171 C1170 1.366 . S
C1171 C1172 1.414 . S
C1171 C1174 1.499 . S
C1172 H1152 0.950 . S
C1172 C1171 1.414 . S
C1172 C1173 1.374 . S
C1173 H1153 0.950 . S
C1173 C1169 1.385 . S
C1173 C1172 1.374 . S
C1174 C1171 1.499 . S
C1174 C1175 1.373 . S
C1174 C1176 1.389 . S
C1175 H1154 0.950 . S
C1175 C1174 1.373 . S
C1175 C1191 1.377 . S
C1176 C1174 1.389 . S
C1176 C1177 1.524 . S
C1176 C1190 1.377 . S
C1177 C1176 1.524 . S
C1177 C1178 1.397 . S
C1177 C1182 1.363 . S
C1178 H1155 0.950 . S
C1178 C1177 1.397 . S
C1178 C1179 1.334 . S
C1179 H1156 0.950 . S
C1179 C1178 1.334 . S
C1179 C1180 1.287 . S
C1180 C1179 1.287 . S
C1180 C1181 1.524 . S
C1180 H1199 0.913 . S
C1181 H1157 0.950 . S
C1181 C1180 1.524 . S
C1181 C1182 1.415 . S
C1182 H1158 0.950 . S
C1182 C1177 1.363 . S
C1182 C1181 1.415 . S
C1183 H1159 0.951 . S
C1183 C1184 1.366 . S
C1183 C1185 1.388 . S
C1184 C1183 1.366 . S
C1184 C1188 1.385 . S
C1185 H1160 0.951 . S
C1185 C1183 1.388 . S
C1185 C1186 1.366 . S
C1186 C1185 1.366 . S
C1186 C1187 1.414 . S
C1186 C1189 1.499 . S
C1187 H1161 0.950 . S
C1187 C1186 1.414 . S
C1187 C1188 1.374 . S
C1188 H1162 0.950 . S
C1188 C1184 1.385 . S
C1188 C1187 1.374 . S
C1189 C1186 1.499 . S
C1189 C1190 1.373 . S
C1189 C1191 1.389 . S
C1190 H1163 0.950 . S
C1190 C1176 1.377 . S
C1190 C1189 1.373 . S
C1191 C1175 1.377 . S
C1191 C1189 1.389 . S
C1191 C1192 1.524 . S
C1192 C1191 1.524 . S
C1192 C1193 1.397 . S
C1192 C1197 1.363 . S
C1193 H1164 0.950 . S
C1193 C1192 1.397 . S
C1193 C1194 1.334 . S
C1194 H1165 0.950 . S
C1194 C1193 1.334 . S
C1194 C1195 1.287 . S
C1195 C1194 1.287 . S
C1195 C1196 1.524 . S
C1195 H1198 0.999 . S
C1196 H1166 0.950 . S
C1196 C1195 1.524 . S
C1196 C1197 1.415 . S
C1197 H1167 0.950 . S
C1197 C1192 1.363 . S
C1197 C1196 1.415 . S
H1198 C1195 0.999 . S
H1199 C1180 0.913 . S
H1200 C1218 0.951 . S
H1201 C1220 0.951 . S
H1202 C1222 0.950 . S
H1203 C1223 0.950 . S
H1204 C1225 0.950 . S
H1205 C1228 0.950 . S
H1206 C1229 0.950 . S
H1207 C1231 0.950 . S
H1208 C1232 0.950 . S
H1209 C1233 0.951 . S
H1210 C1235 0.951 . S
H1211 C1237 0.950 . S
H1212 C1238 0.950 . S
H1213 C1240 0.950 . S
H1214 C1243 0.950 . S
H1215 C1244 0.950 . S
H1216 C1246 0.950 . S
H1217 C1247 0.950 . S
C1218 H1200 0.951 . S
C1218 C1219 1.366 . S
C1218 C1220 1.388 . S
C1219 C1218 1.366 . S
C1219 C1223 1.385 . S
C1220 H1201 0.951 . S
C1220 C1218 1.388 . S
C1220 C1221 1.366 . S
C1221 C1220 1.366 . S
C1221 C1222 1.414 . S
C1221 C1224 1.499 . S
C1222 H1202 0.950 . S
C1222 C1221 1.414 . S
C1222 C1223 1.374 . S
C1223 H1203 0.950 . S
C1223 C1219 1.385 . S
C1223 C1222 1.374 . S
C1224 C1221 1.499 . S
C1224 C1225 1.373 . S
C1224 C1226 1.389 . S
C1225 H1204 0.950 . S
C1225 C1224 1.373 . S
C1225 C1241 1.377 . S
C1226 C1224 1.389 . S
C1226 C1227 1.524 . S
C1226 C1240 1.377 . S
C1227 C1226 1.524 . S
C1227 C1228 1.397 . S
C1227 C1232 1.363 . S
C1228 H1205 0.950 . S
C1228 C1227 1.397 . S
C1228 C1229 1.334 . S
C1229 H1206 0.950 . S
C1229 C1228 1.334 . S
C1229 C1230 1.287 . S
C1230 C1229 1.287 . S
C1230 C1231 1.524 . S
C1230 H1249 0.913 . S
C1231 H1207 0.950 . S
C1231 C1230 1.524 . S
C1231 C1232 1.415 . S
C1232 H1208 0.950 . S
C1232 C1227 1.363 . S
C1232 C1231 1.415 . S
C1233 H1209 0.951 . S
C1233 C1234 1.366 . S
C1233 C1235 1.388 . S
C1234 C1233 1.366 . S
C1234 C1238 1.385 . S
C1235 H1210 0.951 . S
C1235 C1233 1.388 . S
C1235 C1236 1.366 . S
C1236 C1235 1.366 . S
C1236 C1237 1.414 . S
C1236 C1239 1.499 . S
C1237 H1211 0.950 . S
C1237 C1236 1.414 . S
C1237 C1238 1.374 . S
C1238 H1212 0.950 . S
C1238 C1234 1.385 . S
C1238 C1237 1.374 . S
C1239 C1236 1.499 . S
C1239 C1240 1.373 . S
C1239 C1241 1.389 . S
C1240 H1213 0.950 . S
C1240 C1226 1.377 . S
C1240 C1239 1.373 . S
C1241 C1225 1.377 . S
C1241 C1239 1.389 . S
C1241 C1242 1.524 . S
C1242 C1241 1.524 . S
C1242 C1243 1.397 . S
C1242 C1247 1.363 . S
C1243 H1214 0.950 . S
C1243 C1242 1.397 . S
C1243 C1244 1.334 . S
C1244 H1215 0.950 . S
C1244 C1243 1.334 . S
C1244 C1245 1.287 . S
C1245 C1244 1.287 . S
C1245 C1246 1.524 . S
C1245 H1248 0.999 . S
C1246 H1216 0.950 . S
C1246 C1245 1.524 . S
C1246 C1247 1.415 . S
C1247 H1217 0.950 . S
C1247 C1242 1.363 . S
C1247 C1246 1.415 . S
H1248 C1245 0.999 . S
H1249 C1230 0.913 . S
H1250 C1268 0.951 . S
H1251 C1270 0.951 . S
H1252 C1272 0.950 . S
H1253 C1273 0.950 . S
H1254 C1275 0.950 . S
H1255 C1278 0.950 . S
H1256 C1279 0.950 . S
H1257 C1281 0.950 . S
H1258 C1282 0.950 . S
H1259 C1283 0.951 . S
H1260 C1285 0.951 . S
H1261 C1287 0.950 . S
H1262 C1288 0.950 . S
H1263 C1290 0.950 . S
H1264 C1293 0.950 . S
H1265 C1294 0.950 . S
H1266 C1296 0.950 . S
H1267 C1297 0.950 . S
C1268 H1250 0.951 . S
C1268 C1269 1.366 . S
C1268 C1270 1.388 . S
C1269 C1268 1.366 . S
C1269 C1273 1.385 . S
C1270 H1251 0.951 . S
C1270 C1268 1.388 . S
C1270 C1271 1.366 . S
C1271 C1270 1.366 . S
C1271 C1272 1.414 . S
C1271 C1274 1.499 . S
C1272 H1252 0.950 . S
C1272 C1271 1.414 . S
C1272 C1273 1.374 . S
C1273 H1253 0.950 . S
C1273 C1269 1.385 . S
C1273 C1272 1.374 . S
C1274 C1271 1.499 . S
C1274 C1275 1.373 . S
C1274 C1276 1.389 . S
C1275 H1254 0.950 . S
C1275 C1274 1.373 . S
C1275 C1291 1.377 . S
C1276 C1274 1.389 . S
C1276 C1277 1.524 . S
C1276 C1290 1.377 . S
C1277 C1276 1.524 . S
C1277 C1278 1.397 . S
C1277 C1282 1.363 . S
C1278 H1255 0.950 . S
C1278 C1277 1.397 . S
C1278 C1279 1.334 . S
C1279 H1256 0.950 . S
C1279 C1278 1.334 . S
C1279 C1280 1.287 . S
C1280 C1279 1.287 . S
C1280 C1281 1.524 . S
C1280 H1299 0.913 . S
C1281 H1257 0.950 . S
C1281 C1280 1.524 . S
C1281 C1282 1.415 . S
C1282 H1258 0.950 . S
C1282 C1277 1.363 . S
C1282 C1281 1.415 . S
C1283 H1259 0.951 . S
C1283 C1284 1.366 . S
C1283 C1285 1.388 . S
C1284 C1283 1.366 . S
C1284 C1288 1.385 . S
C1285 H1260 0.951 . S
C1285 C1283 1.388 . S
C1285 C1286 1.366 . S
C1286 C1285 1.366 . S
C1286 C1287 1.414 . S
C1286 C1289 1.499 . S
C1287 H1261 0.950 . S
C1287 C1286 1.414 . S
C1287 C1288 1.374 . S
C1288 H1262 0.950 . S
C1288 C1284 1.385 . S
C1288 C1287 1.374 . S
C1289 C1286 1.499 . S
C1289 C1290 1.373 . S
C1289 C1291 1.389 . S
C1290 H1263 0.950 . S
C1290 C1276 1.377 . S
C1290 C1289 1.373 . S
C1291 C1275 1.377 . S
C1291 C1289 1.389 . S
C1291 C1292 1.524 . S
C1292 C1291 1.524 . S
C1292 C1293 1.397 . S
C1292 C1297 1.363 . S
C1293 H1264 0.950 . S
C1293 C1292 1.397 . S
C1293 C1294 1.334 . S
C1294 H1265 0.950 . S
C1294 C1293 1.334 . S
C1294 C1295 1.287 . S
C1295 C1294 1.287 . S
C1295 C1296 1.524 . S
C1295 H1298 0.999 . S
C1296 H1266 0.950 . S
C1296 C1295 1.524 . S
C1296 C1297 1.415 . S
C1297 H1267 0.950 . S
C1297 C1292 1.363 . S
C1297 C1296 1.415 . S
H1298 C1295 0.999 . S
H1299 C1280 0.913 . S
H1300 C1318 0.951 . S
H1301 C1320 0.951 . S
H1302 C1322 0.950 . S
H1303 C1323 0.950 . S
H1304 C1325 0.950 . S
H1305 C1328 0.950 . S
H1306 C1329 0.950 . S
H1307 C1331 0.950 . S
H1308 C1332 0.950 . S
H1309 C1333 0.951 . S
H1310 C1335 0.951 . S
H1311 C1337 0.950 . S
H1312 C1338 0.950 . S
H1313 C1340 0.950 . S
H1314 C1343 0.950 . S
H1315 C1344 0.950 . S
H1316 C1346 0.950 . S
H1317 C1347 0.950 . S
C1318 H1300 0.951 . S
C1318 C1319 1.366 . S
C1318 C1320 1.388 . S
C1319 C1318 1.366 . S
C1319 C1323 1.385 . S
C1320 H1301 0.951 . S
C1320 C1318 1.388 . S
C1320 C1321 1.366 . S
C1321 C1320 1.366 . S
C1321 C1322 1.414 . S
C1321 C1324 1.499 . S
C1322 H1302 0.950 . S
C1322 C1321 1.414 . S
C1322 C1323 1.374 . S
C1323 H1303 0.950 . S
C1323 C1319 1.385 . S
C1323 C1322 1.374 . S
C1324 C1321 1.499 . S
C1324 C1325 1.373 . S
C1324 C1326 1.389 . S
C1325 H1304 0.950 . S
C1325 C1324 1.373 . S
C1325 C1341 1.377 . S
C1326 C1324 1.389 . S
C1326 C1327 1.524 . S
C1326 C1340 1.377 . S
C1327 C1326 1.524 . S
C1327 C1328 1.397 . S
C1327 C1332 1.363 . S
C1328 H1305 0.950 . S
C1328 C1327 1.397 . S
C1328 C1329 1.334 . S
C1329 H1306 0.950 . S
C1329 C1328 1.334 . S
C1329 C1330 1.287 . S
C1330 C1329 1.287 . S
C1330 C1331 1.524 . S
C1330 H1349 0.913 . S
C1331 H1307 0.950 . S
C1331 C1330 1.524 . S
C1331 C1332 1.415 . S
C1332 H1308 0.950 . S
C1332 C1327 1.363 . S
C1332 C1331 1.415 . S
C1333 H1309 0.951 . S
C1333 C1334 1.366 . S
C1333 C1335 1.388 . S
C1334 C1333 1.366 . S
C1334 C1338 1.385 . S
C1335 H1310 0.951 . S
C1335 C1333 1.388 . S
C1335 C1336 1.366 . S
C1336 C1335 1.366 . S
C1336 C1337 1.414 . S
C1336 C1339 1.499 . S
C1337 H1311 0.950 . S
C1337 C1336 1.414 . S
C1337 C1338 1.374 . S
C1338 H1312 0.950 . S
C1338 C1334 1.385 . S
C1338 C1337 1.374 . S
C1339 C1336 1.499 . S
C1339 C1340 1.373 . S
C1339 C1341 1.389 . S
C1340 H1313 0.950 . S
C1340 C1326 1.377 . S
C1340 C1339 1.373 . S
C1341 C1325 1.377 . S
C1341 C1339 1.389 . S
C1341 C1342 1.524 . S
C1342 C1341 1.524 . S
C1342 C1343 1.397 . S
C1342 C1347 1.363 . S
C1343 H1314 0.950 . S
C1343 C1342 1.397 . S
C1343 C1344 1.334 . S
C1344 H1315 0.950 . S
C1344 C1343 1.334 . S
C1344 C1345 1.287 . S
C1345 C1344 1.287 . S
C1345 C1346 1.524 . S
C1345 H1348 0.999 . S
C1346 H1316 0.950 . S
C1346 C1345 1.524 . S
C1346 C1347 1.415 . S
C1347 H1317 0.950 . S
C1347 C1342 1.363 . S
C1347 C1346 1.415 . S
H1348 C1345 0.999 . S
H1349 C1330 0.913 . S
H1350 C1368 0.951 . S
H1351 C1370 0.951 . S
H1352 C1372 0.950 . S
H1353 C1373 0.950 . S
H1354 C1375 0.950 . S
H1355 C1378 0.950 . S
H1356 C1379 0.950 . S
H1357 C1381 0.950 . S
H1358 C1382 0.950 . S
H1359 C1383 0.951 . S
H1360 C1385 0.951 . S
H1361 C1387 0.950 . S
H1362 C1388 0.950 . S
H1363 C1390 0.950 . S
H1364 C1393 0.950 . S
H1365 C1394 0.950 . S
H1366 C1396 0.950 . S
H1367 C1397 0.950 . S
C1368 H1350 0.951 . S
C1368 C1369 1.366 . S
C1368 C1370 1.388 . S
C1369 C1368 1.366 . S
C1369 C1373 1.385 . S
C1370 H1351 0.951 . S
C1370 C1368 1.388 . S
C1370 C1371 1.366 . S
C1371 C1370 1.366 . S
C1371 C1372 1.414 . S
C1371 C1374 1.499 . S
C1372 H1352 0.950 . S
C1372 C1371 1.414 . S
C1372 C1373 1.374 . S
C1373 H1353 0.950 . S
C1373 C1369 1.385 . S
C1373 C1372 1.374 . S
C1374 C1371 1.499 . S
C1374 C1375 1.373 . S
C1374 C1376 1.389 . S
C1375 H1354 0.950 . S
C1375 C1374 1.373 . S
C1375 C1391 1.377 . S
C1376 C1374 1.389 . S
C1376 C1377 1.524 . S
C1376 C1390 1.377 . S
C1377 C1376 1.524 . S
C1377 C1378 1.397 . S
C1377 C1382 1.363 . S
C1378 H1355 0.950 . S
C1378 C1377 1.397 . S
C1378 C1379 1.334 . S
C1379 H1356 0.950 . S
C1379 C1378 1.334 . S
C1379 C1380 1.287 . S
C1380 C1379 1.287 . S
C1380 C1381 1.524 . S
C1380 H1399 0.913 . S
C1381 H1357 0.950 . S
C1381 C1380 1.524 . S
C1381 C1382 1.415 . S
C1382 H1358 0.950 . S
C1382 C1377 1.363 . S
C1382 C1381 1.415 . S
C1383 H1359 0.951 . S
C1383 C1384 1.366 . S
C1383 C1385 1.388 . S
C1384 C1383 1.366 . S
C1384 C1388 1.385 . S
C1385 H1360 0.951 . S
C1385 C1383 1.388 . S
C1385 C1386 1.366 . S
C1386 C1385 1.366 . S
C1386 C1387 1.414 . S
C1386 C1389 1.499 . S
C1387 H1361 0.950 . S
C1387 C1386 1.414 . S
C1387 C1388 1.374 . S
C1388 H1362 0.950 . S
C1388 C1384 1.385 . S
C1388 C1387 1.374 . S
C1389 C1386 1.499 . S
C1389 C1390 1.373 . S
C1389 C1391 1.389 . S
C1390 H1363 0.950 . S
C1390 C1376 1.377 . S
C1390 C1389 1.373 . S
C1391 C1375 1.377 . S
C1391 C1389 1.389 . S
C1391 C1392 1.524 . S
C1392 C1391 1.524 . S
C1392 C1393 1.397 . S
C1392 C1397 1.363 . S
C1393 H1364 0.950 . S
C1393 C1392 1.397 . S
C1393 C1394 1.334 . S
C1394 H1365 0.950 . S
C1394 C1393 1.334 . S
C1394 C1395 1.287 . S
C1395 C1394 1.287 . S
C1395 C1396 1.524 . S
C1395 H1398 0.999 . S
C1396 H1366 0.950 . S
C1396 C1395 1.524 . S
C1396 C1397 1.415 . S
C1397 H1367 0.950 . S
C1397 C1392 1.363 . S
C1397 C1396 1.415 . S
H1398 C1395 0.999 . S
H1399 C1380 0.913 . S
C219 C2 1.500 . S
C234 C52 1.495 . S
C269 C11 1.500 . S
C284 C104 1.500 . S
C319 C0 1.500 . S
C334 C53 1.500 . S
C369 C106 1.500 . S
C384 C10 1.495 . S
C419 C1 1.500 . S
C434 C51 1.505 . S
C469 C8 1.500 . S
C484 C107 1.500 . S
C519 C50 1.500 . S
C534 C3 1.500 . S
C569 C105 1.500 . S
C584 C9 1.505 . S
C619 C156 1.500 . S
C634 C6 1.495 . S
C669 C157 1.500 . S
C684 C7 1.500 . S
C719 C154 1.500 . S
C734 C4 1.500 . S
C769 C5 1.500 . S
C784 C155 1.505 . S
C819 C161 1.500 . S
C834 C57 1.505 . S
C869 C55 1.500 . S
C884 C160 1.500 . S
C919 C54 1.500 . S
C934 C158 1.495 . S
C969 C159 1.500 . S
C984 C56 1.500 . S
C1019 C110 1.500 . S
C1034 C59 1.500 . S
C1069 C61 1.500 . S
C1084 C108 1.495 . S
C1119 C58 1.500 . S
C1134 C111 1.505 . S
C1169 C109 1.500 . S
C1184 C60 1.500 . S
C1219 C152 1.500 . S
C1234 C101 1.500 . S
C1269 C100 1.500 . S
C1284 C150 1.505 . S
C1319 C151 1.500 . S
C1334 C102 1.500 . S
C1369 C103 1.500 . S
C1384 C153 1.495 . S
