# Generated by pormake.
# Topology vmv, (8)-cn, num edge types: 1
# Building blocks:
#     Node 0, Type 0, BuildingBlock: TAGTUT_clean_sbu_1, # of connection points: 8
#     Node 1, Type 0, BuildingBlock: TAGTUT_clean_sbu_1, # of connection points: 8
#     Node 2, Type 0, BuildingBlock: TAGTUT_clean_sbu_1, # of connection points: 8
#     Node 3, Type 0, BuildingBlock: TAGTUT_clean_sbu_1, # of connection points: 8
#     Edge 4, Type (0, 0), BuildingBlock: KIFKEQ_clean_linker_1, # of connection points: 2
#     Edge 5, Type (0, 0), BuildingBlock: KIFKEQ_clean_linker_1, # of connection points: 2
#     Edge 6, Type (0, 0), BuildingBlock: KIFKEQ_clean_linker_1, # of connection points: 2
#     Edge 7, Type (0, 0), BuildingBlock: KIFKEQ_clean_linker_1, # of connection points: 2
#     Edge 8, Type (0, 0), BuildingBlock: KIFKEQ_clean_linker_1, # of connection points: 2
#     Edge 9, Type (0, 0), BuildingBlock: KIFKEQ_clean_linker_1, # of connection points: 2
#     Edge 10, Type (0, 0), BuildingBlock: KIFKEQ_clean_linker_1, # of connection points: 2
#     Edge 11, Type (0, 0), BuildingBlock: KIFKEQ_clean_linker_1, # of connection points: 2
#     Edge 12, Type (0, 0), BuildingBlock: KIFKEQ_clean_linker_1, # of connection points: 2
#     Edge 13, Type (0, 0), BuildingBlock: KIFKEQ_clean_linker_1, # of connection points: 2
#     Edge 14, Type (0, 0), BuildingBlock: KIFKEQ_clean_linker_1, # of connection points: 2
#     Edge 15, Type (0, 0), BuildingBlock: KIFKEQ_clean_linker_1, # of connection points: 2
#     Edge 16, Type (0, 0), BuildingBlock: KIFKEQ_clean_linker_1, # of connection points: 2
#     Edge 17, Type (0, 0), BuildingBlock: KIFKEQ_clean_linker_1, # of connection points: 2
#     Edge 18, Type (0, 0), BuildingBlock: KIFKEQ_clean_linker_1, # of connection points: 2
#     Edge 19, Type (0, 0), BuildingBlock: KIFKEQ_clean_linker_1, # of connection points: 2
# Relax obj value: 0.289
# Max RMSD: 0.289
# Mean RMSD: 0.281
data_MOF--net-vmv--node1-TAGTUT_clean_sbu_1--edge1-KIFKEQ_clean_linker_1
_symmetry_space_group_name_H-M    P1
_symmetry_Int_Tables_number       1
_symmetry_cell_setting            triclinic
loop_
_symmetry_equiv_pos_as_xyz
'x, y, z'
_cell_length_a     16.354375
_cell_length_b     31.42547
_cell_length_c     31.700321
_cell_angle_alpha  90.202876
_cell_angle_beta   104.68699
_cell_angle_gamma 89.37048
loop_
_atom_site_label
_atom_site_type_symbol
_atom_site_fract_x
_atom_site_fract_y
_atom_site_fract_z
_atom_type_partial_charge
C0 C 0.3553 0.17417 0.79202 0.0
C1 C 0.56241 0.26281 0.82573 0.0
C2 C 0.34048 0.39053 0.80234 0.0
Mg3 Mg 0.44557 0.23304 0.7401 0.0
O4 O 0.35876 0.2694 0.74984 0.0
Mg5 Mg 0.35422 0.28177 0.81032 0.0
Mg6 Mg 0.36104 0.32803 0.7291 0.0
O7 O 0.36276 0.38682 0.70487 0.0
Mg8 Mg 0.28896 0.43084 0.71374 0.0
Mg9 Mg 0.36246 0.37035 0.64349 0.0
C10 C 0.37094 0.26973 0.64435 0.0
C11 C 0.54247 0.33848 0.70515 0.0
O12 O 0.33182 0.20654 0.81165 0.0
O13 O 0.39994 0.17766 0.76446 0.0
O14 O 0.4944 0.27203 0.83631 0.0
O15 O 0.56301 0.24991 0.78751 0.0
O16 O 0.4142 0.24006 0.66816 0.0
O17 O 0.34106 0.30178 0.66074 0.0
C18 C 0.17568 0.31309 0.74857 0.0
O19 O 0.21532 0.32975 0.72269 0.0
O20 O 0.21522 0.29362 0.78305 0.0
O21 O 0.39188 0.43909 0.63678 0.0
O22 O 0.36876 0.47857 0.69255 0.0
O23 O 0.22321 0.38769 0.61488 0.0
C24 C 0.39652 0.47395 0.65816 0.0
O25 O 0.1776 0.42808 0.66236 0.0
O26 O 0.27372 0.39809 0.77253 0.0
C27 C 0.168 0.41237 0.62444 0.0
O28 O 0.38248 0.35602 0.79959 0.0
O29 O 0.50557 0.32566 0.73396 0.0
O30 O 0.50075 0.35549 0.66966 0.0
C31 C 0.02279 0.7178 0.70498 0.0
C32 C 0.27571 0.69123 0.79539 0.0
C33 C 0.16028 0.76975 0.9249 0.0
Mg34 Mg 0.18487 0.77001 0.74423 0.0
O35 O 0.11993 0.77634 0.78619 0.0
Mg36 Mg 0.09347 0.72665 0.81803 0.0
Mg37 Mg 0.15842 0.81808 0.83281 0.0
O38 O 0.20269 0.86314 0.87742 0.0
Mg39 Mg 0.16147 0.8738 0.92535 0.0
Mg40 Mg 0.19653 0.91172 0.83542 0.0
C41 C 0.17628 0.8712 0.7488 0.0
C42 C 0.34926 0.84528 0.83106 0.0
O43 O 0.01784 0.70659 0.74375 0.0
O44 O 0.0828 0.7409 0.6989 0.0
O45 O 0.21451 0.69129 0.8136 0.0
O46 O 0.28151 0.71984 0.76759 0.0
O47 O 0.20613 0.83903 0.73189 0.0
O48 O 0.14195 0.86693 0.78041 0.0
C49 C 0.95961 0.79861 0.82917 0.0
O50 O 0.01745 0.82684 0.83549 0.0
O51 O 0.97504 0.75993 0.82214 0.0
O52 O 0.25711 0.95325 0.89203 0.0
O53 O 0.25132 0.92398 0.95567 0.0
O54 O 0.0669 0.93694 0.84246 0.0
C55 C 0.27474 0.95363 0.93355 0.0
O56 O 0.04142 0.90217 0.899 0.0
O57 O 0.15967 0.80682 0.94233 0.0
C58 C 0.01969 0.92905 0.86806 0.0
O59 O 0.16778 0.76467 0.88519 0.0
O60 O 0.29947 0.81359 0.83031 0.0
O61 O 0.32378 0.88388 0.83243 0.0
C62 C 0.68598 0.54727 0.44805 0.0
C63 C 0.87433 0.6345 0.44488 0.0
C64 C 0.63579 0.74617 0.41018 0.0
Mg65 Mg 0.75516 0.58487 0.37252 0.0
O66 O 0.66182 0.62134 0.37161 0.0
Mg67 Mg 0.66548 0.65076 0.42934 0.0
Mg68 Mg 0.65454 0.67551 0.33651 0.0
O69 O 0.6488 0.72958 0.30535 0.0
Mg70 Mg 0.56016 0.76847 0.30855 0.0
Mg71 Mg 0.66268 0.70867 0.24841 0.0
C72 C 0.67776 0.60122 0.27502 0.0
C73 C 0.84089 0.68617 0.31573 0.0
O74 O 0.66424 0.58517 0.45543 0.0
O75 O 0.71987 0.53745 0.41669 0.0
O76 O 0.81 0.64854 0.45661 0.0
O77 O 0.86608 0.61371 0.40968 0.0
O78 O 0.74858 0.59749 0.30333 0.0
O79 O 0.63697 0.63704 0.27125 0.0
C80 C 0.47708 0.66473 0.36425 0.0
O81 O 0.51124 0.67511 0.33343 0.0
O82 O 0.52205 0.65369 0.40198 0.0
O83 O 0.68422 0.78323 0.23679 0.0
O84 O 0.61779 0.81814 0.28137 0.0
O85 O 0.52374 0.7156 0.21744 0.0
C86 C 0.664 0.8179 0.25425 0.0
O87 O 0.44616 0.74926 0.2558 0.0
O88 O 0.58764 0.77193 0.3828 0.0
C89 C 0.45244 0.72879 0.2215 0.0
O90 O 0.66865 0.71334 0.39736 0.0
O91 O 0.80072 0.67581 0.34389 0.0
O92 O 0.80171 0.69951 0.27813 0.0
C93 C 0.7447 0.14227 0.03296 0.0
C94 C 0.97615 0.10303 0.10278 0.0
C95 C 0.83054 0.12571 0.24203 0.0
Mg96 Mg 0.90001 0.19255 0.0851 0.0
O97 O 0.83459 0.18464 0.12615 0.0
Mg98 Mg 0.80732 0.12525 0.14037 0.0
Mg99 Mg 0.87339 0.20688 0.18717 0.0
O100 O 0.91189 0.22718 0.24745 0.0
Mg101 Mg 0.83867 0.22006 0.28468 0.0
Mg102 Mg 0.94531 0.28581 0.23532 0.0
C103 C 0.90706 0.27804 0.126 0.0
C104 C 0.07779 0.22268 0.20626 0.0
O105 O 0.74795 0.12128 0.06792 0.0
O106 O 0.79172 0.17456 0.03128 0.0
O107 O 0.92667 0.09534 0.12712 0.0
O108 O 0.98502 0.14041 0.08952 0.0
O109 O 0.95892 0.24958 0.12022 0.0
O110 O 0.87888 0.27566 0.16031 0.0
C111 C 0.67215 0.18724 0.17046 0.0
O112 O 0.73068 0.21409 0.18625 0.0
O113 O 0.68774 0.1531 0.15193 0.0
O114 O 1.0052 0.2875 0.3109 0.0
O115 O 0.93748 0.23786 0.34056 0.0
O116 O 0.82253 0.31423 0.2427 0.0
C117 C 0.99595 0.26546 0.34357 0.0
O118 O 0.74088 0.27118 0.26937 0.0
O119 O 0.81277 0.15082 0.27094 0.0
C120 C 0.75394 0.30705 0.25326 0.0
O121 O 0.8651 0.13957 0.2127 0.0
O122 O 0.01648 0.19802 0.18869 0.0
O123 O 0.06523 0.25686 0.22552 0.0
H124 H 0.02741 0.61097 0.43231 0.0
H125 H 0.90206 0.63921 0.53376 0.0
H126 H 0.10353 0.55354 0.4749 0.0
H127 H 0.98549 0.58445 0.57916 0.0
H128 H 1.01015 0.44684 0.61524 0.0
H129 H 0.96164 0.51301 0.57677 0.0
H130 H 0.18266 0.51162 0.52486 0.0
H131 H 0.22394 0.44383 0.5586 0.0
C132 C 0.02023 0.60673 0.46508 0.0
C133 C 0.95411 0.62724 0.47831 0.0
C134 C 0.06367 0.57313 0.4897 0.0
C135 C 0.04566 0.56184 0.52932 0.0
C136 C 0.99583 0.58999 0.54723 0.0
C137 C 0.95006 0.62264 0.52177 0.0
C138 C 0.0452 0.45975 0.59352 0.0
C139 C 0.11981 0.43984 0.58939 0.0
C140 C 0.01958 0.49857 0.57277 0.0
C141 C 0.06995 0.51905 0.54891 0.0
C142 C 0.14144 0.49734 0.54253 0.0
C143 C 0.16474 0.45778 0.56158 0.0
H144 H 0.74441 0.07416 0.98145 0.0
H145 H 0.58964 0.17806 1.00677 0.0
H146 H 0.61925 0.03003 0.9579 0.0
H147 H 0.46386 0.13412 0.98331 0.0
H148 H 0.25472 0.03701 0.91408 0.0
H149 H 0.36714 0.08958 0.92642 0.0
H150 H 0.53715 0.9997 1.00823 0.0
H151 H 0.42433 0.94688 0.99533 0.0
C152 C 0.68288 0.08835 0.97938 0.0
C153 C 0.67645 0.12936 0.99588 0.0
C154 C 0.61152 0.06278 0.9671 0.0
C155 C 0.53249 0.07813 0.97061 0.0
C156 C 0.5242 0.12126 0.98086 0.0
C157 C 0.59594 0.14677 0.99337 0.0
C158 C 0.31535 0.02915 0.93607 0.0
C159 C 0.33092 0.98811 0.95419 0.0
C160 C 0.37983 0.05906 0.94268 0.0
C161 C 0.46138 0.04833 0.96725 0.0
C162 C 0.47522 1.0084 0.98816 0.0
C163 C 0.41034 0.97851 0.98177 0.0
H164 H 0.55028 0.49666 0.43881 0.0
H165 H 0.78193 0.5344 0.52924 0.0
H166 H 0.48486 0.48733 0.49915 0.0
H167 H 0.71618 0.52726 0.58958 0.0
H168 H 0.56398 0.48304 0.68832 0.0
H169 H 0.65028 0.49032 0.63659 0.0
H170 H 0.43309 0.53973 0.54087 0.0
H171 H 0.34652 0.53014 0.59224 0.0
C172 C 0.58874 0.5005 0.47187 0.0
C173 C 0.671 0.5162 0.47938 0.0
C174 C 0.55042 0.4968 0.5064 0.0
C175 C 0.59383 0.50885 0.54901 0.0
C176 C 0.6802 0.51841 0.55721 0.0
C177 C 0.71868 0.52154 0.52266 0.0
C178 C 0.53612 0.49805 0.65717 0.0
C179 C 0.44851 0.50573 0.64413 0.0
C180 C 0.58518 0.50122 0.62702 0.0
C181 C 0.5476 0.51345 0.58375 0.0
C182 C 0.46315 0.52814 0.57329 0.0
C183 C 0.41405 0.52433 0.60327 0.0
H184 H 0.86641 0.0393 0.07402 0.0
H185 H 0.09854 0.09344 0.05834 0.0
H186 H 0.8418 1.00686 1.00349 0.0
H187 H 0.0789 0.05684 0.98878 0.0
H188 H 0.02612 0.01501 0.85779 0.0
H189 H 1.00651 0.0595 0.91721 0.0
H190 H 0.86251 0.95902 0.95661 0.0
H191 H 0.87532 0.91763 0.89512 0.0
C192 C 0.91499 0.04237 0.0565 0.0
C193 C 0.98461 0.06917 0.07189 0.0
C194 C 0.90017 0.02396 1.01531 0.0
C195 C 0.9565 0.03022 0.98903 0.0
C196 C 0.03132 0.05304 1.00673 0.0
C197 C 0.04458 0.07282 0.04742 0.0
C198 C 0.98531 1.00373 0.8774 0.0
C199 C 0.95792 0.96139 0.87418 0.0
C200 C 0.97684 0.02862 0.91269 0.0
C201 C 0.93985 0.01142 0.9444 0.0
C202 C 0.89474 0.97324 0.93441 0.0
C203 C 0.9011 0.94925 0.89836 0.0
H204 H 0.63817 0.20035 0.87966 0.0
H205 H 0.64795 0.33464 0.85442 0.0
H206 H 0.71817 0.21179 0.95502 0.0
H207 H 0.73014 0.34606 0.92956 0.0
H208 H 0.94502 0.32509 0.06337 0.0
H209 H 0.87136 0.32356 0.98595 0.0
H210 H 0.66804 0.25366 1.01647 0.0
H211 H 0.74123 0.25585 0.09412 0.0
C212 C 0.66181 0.23188 0.88959 0.0
C213 C 0.63947 0.2664 0.86096 0.0
C214 C 0.70563 0.23862 0.93296 0.0
C215 C 0.72852 0.27994 0.94824 0.0
C216 C 0.71292 0.31393 0.91858 0.0
C217 C 0.66765 0.30728 0.87536 0.0
C218 C 0.8827 0.31117 0.05364 0.0
C219 C 0.84847 0.29086 0.0846 0.0
C220 C 0.84119 0.30983 1.00937 0.0
C221 C 0.76539 0.28751 0.99532 0.0
C222 C 0.72743 0.27036 0.02658 0.0
C223 C 0.76843 0.27226 0.07102 0.0
H224 H 0.58276 0.70417 0.47373 0.0
H225 H 0.75656 0.79944 0.45401 0.0
H226 H 0.66851 0.69301 0.54859 0.0
H227 H 0.84248 0.78824 0.52844 0.0
H228 H 0.03705 0.70633 0.6224 0.0
H229 H 0.92911 0.71926 0.55518 0.0
H230 H 0.73935 0.72904 0.6276 0.0
H231 H 0.84932 0.71745 0.6961 0.0
C232 C 0.63681 0.72435 0.48612 0.0
C233 C 0.66152 0.75351 0.45807 0.0
C234 C 0.68659 0.71755 0.52892 0.0
C235 C 0.76321 0.73919 0.54438 0.0
C236 C 0.78428 0.77068 0.51748 0.0
C237 C 0.73403 0.77782 0.47503 0.0
C238 C 0.97209 0.71018 0.6242 0.0
C239 C 0.95239 0.7108 0.66499 0.0
C240 C 0.91021 0.71818 0.58553 0.0
C241 C 0.8258 0.72632 0.58596 0.0
C242 C 0.80399 0.72327 0.62616 0.0
C243 C 0.86681 0.71594 0.66538 0.0
H244 H 0.29774 0.71745 0.95179 0.0
H245 H 0.05781 0.75032 0.97654 0.0
H246 H 0.35276 0.69828 0.02852 0.0
H247 H 0.1132 0.73237 0.05346 0.0
H248 H 0.31493 0.78089 0.18443 0.0
H249 H 0.226 0.77514 0.1094 0.0
H250 H 0.3433 0.6543 0.09463 0.0
H251 H 0.43 0.65953 0.16918 0.0
C252 C 0.25489 0.71789 0.97286 0.0
C253 C 0.17316 0.73525 0.95776 0.0
C254 C 0.28699 0.70781 1.01727 0.0
C255 C 0.2381 0.71504 0.04752 0.0
C256 C 0.1531 0.72724 0.03132 0.0
C257 C 0.12069 0.73647 0.9869 0.0
C258 C 0.31899 0.75232 0.16583 0.0
C259 C 0.37995 0.72084 0.18292 0.0
C260 C 0.26855 0.74908 0.12263 0.0
C261 C 0.27856 0.71449 0.09564 0.0
C262 C 0.33473 0.6816 0.11409 0.0
C263 C 0.38403 0.68457 0.15707 0.0
H264 H 0.08287 0.19828 0.38471 0.0
H265 H 0.0602 0.33457 0.39373 0.0
H266 H 0.19266 0.19707 0.45252 0.0
H267 H 0.16546 0.33358 0.46403 0.0
H268 H 0.38175 0.32708 0.58163 0.0
H269 H 0.30256 0.32558 0.50531 0.0
H270 H 0.20896 0.20088 0.52553 0.0
H271 H 0.29231 0.20189 0.6006 0.0
C272 C 0.10101 0.22801 0.4018 0.0
C273 C 0.06265 0.26645 0.38458 0.0
C274 C 0.16369 0.22737 0.44089 0.0
C275 C 0.18774 0.26509 0.46462 0.0
C276 C 0.15003 0.30385 0.44667 0.0
C277 C 0.08893 0.30455 0.40664 0.0
C278 C 0.34594 0.29897 0.56914 0.0
C279 C 0.34301 0.26456 0.59677 0.0
C280 C 0.29954 0.29825 0.52553 0.0
C281 C 0.24747 0.2635 0.50896 0.0
C282 C 0.24886 0.22806 0.53638 0.0
C283 C 0.29689 0.22845 0.57963 0.0
H284 H 0.06673 0.36788 0.69312 0.0
H285 H 0.07346 0.26562 0.78475 0.0
H286 H 0.91399 0.37505 0.68357 0.0
H287 H 0.92188 0.27178 0.77431 0.0
H288 H 0.66331 0.32117 0.78098 0.0
H289 H 0.81619 0.3164 0.791 0.0
H290 H 0.78336 0.34037 0.65347 0.0
H291 H 0.63185 0.34625 0.64394 0.0
C292 C 0.03559 0.34669 0.71082 0.0
C293 C 0.08241 0.31641 0.73985 0.0
C294 C 0.94802 0.35068 0.70535 0.0
C295 C 0.90547 0.3242 0.72851 0.0
C296 C 0.95246 0.29341 0.75676 0.0
C297 C 0.0396 0.28968 0.76247 0.0
C298 C 0.68887 0.32521 0.753 0.0
C299 C 0.63525 0.33399 0.71182 0.0
C300 C 0.77653 0.32243 0.7586 0.0
C301 C 0.81242 0.32807 0.72299 0.0
C302 C 0.75845 0.33664 0.68179 0.0
C303 C 0.67121 0.33968 0.67631 0.0
H304 H 0.42901 0.77044 0.81817 0.0
H305 H 0.47397 0.90442 0.84473 0.0
H306 H 0.57784 0.7605 0.81839 0.0
H307 H 0.62143 0.89436 0.84482 0.0
H308 H 0.9015 0.84694 0.88719 0.0
H309 H 0.75308 0.8587 0.88855 0.0
H310 H 0.67259 0.78224 0.77215 0.0
H311 H 0.81982 0.77159 0.77068 0.0
C312 C 0.47037 0.79769 0.82406 0.0
C313 C 0.43924 0.83819 0.83125 0.0
C314 C 0.55551 0.79206 0.82404 0.0
C315 C 0.61134 0.82671 0.83164 0.0
C316 C 0.58034 0.867 0.83932 0.0
C317 C 0.49542 0.87271 0.83893 0.0
C318 C 0.85149 0.83421 0.86122 0.0
C319 C 0.87143 0.80963 0.82824 0.0
C320 C 0.7669 0.84024 0.86223 0.0
C321 C 0.70115 0.82119 0.8305 0.0
C322 C 0.72167 0.79683 0.79737 0.0
C323 C 0.80582 0.79107 0.79631 0.0
H324 H 0.9317 0.67 0.25694 0.0
H325 H 0.9604 0.69053 0.39458 0.0
H326 H 0.08358 0.66325 0.26904 0.0
H327 H 0.11423 0.68522 0.40689 0.0
H328 H 0.38332 0.63565 0.41831 0.0
H329 H 0.23087 0.63946 0.40784 0.0
H330 H 0.20669 0.70345 0.2847 0.0
H331 H 0.3587 0.69778 0.29434 0.0
C332 C 0.97076 0.67339 0.28991 0.0
C333 C 0.93395 0.68089 0.32483 0.0
C334 C 0.05824 0.6698 0.29683 0.0
C335 C 0.11198 0.67424 0.33887 0.0
C336 C 0.07507 0.68121 0.37406 0.0
C337 C 0.98689 0.6843 0.36712 0.0
C338 C 0.34548 0.65039 0.38885 0.0
C339 C 0.38362 0.66641 0.3571 0.0
C340 C 0.25782 0.6529 0.38304 0.0
C341 C 0.20579 0.67181 0.34546 0.0
C342 C 0.24414 0.68795 0.31377 0.0
C343 C 0.33171 0.68499 0.31937 0.0
H344 H 0.22378 0.25386 0.25763 0.0
H345 H 0.12879 0.17293 0.14597 0.0
H346 H 0.36613 0.24605 0.24847 0.0
H347 H 0.27145 0.16613 0.13573 0.0
H348 H 0.54773 0.12838 0.15673 0.0
H349 H 0.40604 0.1357 0.16589 0.0
H350 H 0.45392 0.26738 0.20301 0.0
H351 H 0.59828 0.25957 0.195 0.0
C352 C 0.23335 0.23432 0.23103 0.0
C353 C 0.16486 0.21397 0.20248 0.0
C354 C 0.31506 0.23023 0.22552 0.0
C355 C 0.33058 0.20592 0.19106 0.0
C356 C 0.2622 0.18482 0.16293 0.0
C357 C 0.18029 0.18861 0.16875 0.0
C358 C 0.52836 0.1591 0.16667 0.0
C359 C 0.58479 0.19347 0.17516 0.0
C360 C 0.44643 0.16331 0.17168 0.0
C361 C 0.41792 0.20211 0.18503 0.0
C362 C 0.47403 0.23676 0.19325 0.0
C363 C 0.55674 0.23243 0.18852 0.0
H364 H 0.44243 0.1029 0.82609 0.0
H365 H 0.19475 0.14893 0.7592 0.0
H366 H 0.39648 0.0296 0.80972 0.0
H367 H 0.14959 0.07643 0.73986 0.0
H368 H 0.07165 0.9383 0.74303 0.0
H369 H 0.11186 0.01144 0.75864 0.0
H370 H 0.36728 0.97973 0.75346 0.0
H371 H 0.32683 0.90501 0.74065 0.0
C372 C 0.37726 0.09709 0.80896 0.0
C373 C 0.32129 0.13139 0.79504 0.0
C374 C 0.35138 0.05514 0.79843 0.0
C375 C 0.26954 0.04656 0.7725 0.0
C376 C 0.2127 0.08115 0.76028 0.0
C377 C 0.23813 0.12294 0.77173 0.0
C378 C 0.13586 0.9472 0.74377 0.0
C379 C 0.19598 0.91584 0.74053 0.0
C380 C 0.15929 0.98941 0.75301 0.0
C381 C 0.2435 1.00201 0.75827 0.0
C382 C 0.30229 0.97123 0.75099 0.0
C383 C 0.2788 0.92851 0.74232 0.0
H384 H 0.31209 0.4399 0.86612 0.0
H385 H 0.45999 0.43296 0.77161 0.0
H386 H 0.32772 0.51645 0.87001 0.0
H387 H 0.47701 0.51044 0.77546 0.0
H388 H 0.3453 0.65346 0.87327 0.0
H389 H 0.39997 0.58086 0.88517 0.0
H390 H 0.38031 0.56808 0.7472 0.0
H391 H 0.32922 0.64166 0.73594 0.0
C392 C 0.35233 0.4546 0.84803 0.0
C393 C 0.38538 0.43023 0.81895 0.0
C394 C 0.36084 0.49888 0.84987 0.0
C395 C 0.40247 0.52028 0.82242 0.0
C396 C 0.44313 0.49536 0.79651 0.0
C397 C 0.43489 0.45076 0.7949 0.0
C398 C 0.35589 0.63566 0.84576 0.0
C399 C 0.33284 0.65333 0.80366 0.0
C400 C 0.3863 0.59373 0.85245 0.0
C401 C 0.39269 0.56779 0.81707 0.0
C402 C 0.37682 0.58681 0.77542 0.0
C403 C 0.3476 0.6292 0.76885 0.0
H404 H 0.73558 0.87167 0.31824 0.0
H405 H 0.67619 0.85873 0.17826 0.0
H406 H 0.77614 0.94499 0.31276 0.0
H407 H 0.71642 0.93359 0.17247 0.0
H408 H 0.87078 0.06154 0.19137 0.0
H409 H 0.83479 0.98636 0.19062 0.0
H410 H 0.69912 0.0106 0.28879 0.0
H411 H 0.73512 0.08568 0.28963 0.0
C412 C 0.73198 0.88454 0.28613 0.0
C413 C 0.70208 0.8595 0.24864 0.0
C414 C 0.75451 0.92681 0.28299 0.0
C415 C 0.74749 0.9457 0.24217 0.0
C416 C 0.72219 0.92006 0.20447 0.0
C417 C 0.69958 0.87718 0.20768 0.0
C418 C 0.83244 0.05104 0.21247 0.0
C419 C 0.80606 0.07998 0.24063 0.0
C420 C 0.81171 1.00779 0.21194 0.0
C421 C 0.76467 0.9922 0.23986 0.0
C422 C 0.73681 0.02128 0.26735 0.0
C423 C 0.75726 0.06449 0.26778 0.0
H424 H 0.72446 0.36322 0.18725 0.0
H425 H 0.6453 0.33276 0.30324 0.0
H426 H 0.66533 0.43342 0.18626 0.0
H427 H 0.57877 0.40321 0.30088 0.0
H428 H 0.63943 0.54492 0.33235 0.0
H429 H 0.62137 0.46962 0.32034 0.0
H430 H 0.58131 0.49009 0.18152 0.0
H431 H 0.61009 0.5656 0.19521 0.0
C432 C 0.69126 0.37121 0.21184 0.0
C433 C 0.69184 0.34282 0.24608 0.0
C434 C 0.65603 0.41186 0.21108 0.0
C435 C 0.61873 0.42553 0.24431 0.0
C436 C 0.60981 0.39497 0.27559 0.0
C437 C 0.64661 0.35408 0.27666 0.0
C438 C 0.6261 0.53343 0.29925 0.0
C439 C 0.62991 0.56101 0.26503 0.0
C440 C 0.61432 0.48976 0.29204 0.0
C441 C 0.60378 0.47245 0.24998 0.0
C442 C 0.59404 0.50134 0.21481 0.0
C443 C 0.60853 0.54505 0.22236 0.0
loop_
_geom_bond_atom_site_label_1
_geom_bond_atom_site_label_2
_geom_bond_distance
_geom_bond_site_symmetry_2
_ccdc_geom_bond_type
C0 O12 1.241 . S
C0 O13 1.280 . S
C1 O14 1.277 . S
C1 O15 1.245 . S
C2 O26 1.247 . S
C2 O28 1.289 . S
Mg3 O4 1.926 . S
Mg3 O13 1.984 . S
Mg3 O15 1.988 . S
Mg3 O16 2.061 . S
O4 Mg3 1.926 . S
O4 Mg5 1.986 . S
O4 Mg6 1.917 . S
Mg5 O4 1.986 . S
Mg5 O12 2.042 . S
Mg5 O14 2.041 . S
Mg5 O20 2.038 . S
Mg5 O28 2.238 . S
Mg6 O4 1.917 . S
Mg6 O7 1.917 . S
Mg6 O17 2.106 . S
Mg6 O19 2.079 . S
Mg6 O28 2.106 . S
Mg6 O29 2.079 . S
O7 Mg6 1.917 . S
O7 Mg8 1.926 . S
O7 Mg9 1.986 . S
Mg8 O7 1.926 . S
Mg8 O22 1.984 . S
Mg8 O25 1.988 . S
Mg8 O26 2.061 . S
Mg9 O7 1.986 . S
Mg9 O17 2.238 . S
Mg9 O21 2.042 . S
Mg9 O23 2.041 . S
Mg9 O30 2.038 . S
C10 O16 1.247 . S
C10 O17 1.289 . S
C11 O29 1.245 . S
C11 O30 1.274 . S
O12 C0 1.241 . S
O12 Mg5 2.042 . S
O13 C0 1.280 . S
O13 Mg3 1.984 . S
O14 C1 1.277 . S
O14 Mg5 2.041 . S
O15 C1 1.245 . S
O15 Mg3 1.988 . S
O16 Mg3 2.061 . S
O16 C10 1.247 . S
O17 Mg6 2.106 . S
O17 Mg9 2.238 . S
O17 C10 1.289 . S
C18 O19 1.245 . S
C18 O20 1.274 . S
O19 Mg6 2.079 . S
O19 C18 1.245 . S
O20 Mg5 2.038 . S
O20 C18 1.274 . S
O21 Mg9 2.042 . S
O21 C24 1.241 . S
O22 Mg8 1.984 . S
O22 C24 1.280 . S
O23 Mg9 2.041 . S
O23 C27 1.277 . S
C24 O21 1.241 . S
C24 O22 1.280 . S
O25 Mg8 1.988 . S
O25 C27 1.245 . S
O26 C2 1.247 . S
O26 Mg8 2.061 . S
C27 O23 1.277 . S
C27 O25 1.245 . S
O28 C2 1.289 . S
O28 Mg5 2.238 . S
O28 Mg6 2.106 . S
O29 Mg6 2.079 . S
O29 C11 1.245 . S
O30 Mg9 2.038 . S
O30 C11 1.274 . S
C31 O43 1.241 . S
C31 O44 1.280 . S
C32 O45 1.277 . S
C32 O46 1.245 . S
C33 O57 1.247 . S
C33 O59 1.289 . S
Mg34 O35 1.926 . S
Mg34 O44 1.984 . S
Mg34 O46 1.988 . S
Mg34 O47 2.061 . S
O35 Mg34 1.926 . S
O35 Mg36 1.986 . S
O35 Mg37 1.917 . S
Mg36 O35 1.986 . S
Mg36 O43 2.042 . S
Mg36 O45 2.041 . S
Mg36 O51 2.038 . S
Mg36 O59 2.238 . S
Mg37 O35 1.917 . S
Mg37 O38 1.917 . S
Mg37 O48 2.106 . S
Mg37 O50 2.079 . S
Mg37 O59 2.106 . S
Mg37 O60 2.079 . S
O38 Mg37 1.917 . S
O38 Mg39 1.926 . S
O38 Mg40 1.986 . S
Mg39 O38 1.926 . S
Mg39 O53 1.984 . S
Mg39 O56 1.988 . S
Mg39 O57 2.061 . S
Mg40 O38 1.986 . S
Mg40 O48 2.238 . S
Mg40 O52 2.042 . S
Mg40 O54 2.041 . S
Mg40 O61 2.038 . S
C41 O47 1.247 . S
C41 O48 1.289 . S
C42 O60 1.245 . S
C42 O61 1.274 . S
O43 C31 1.241 . S
O43 Mg36 2.042 . S
O44 C31 1.280 . S
O44 Mg34 1.984 . S
O45 C32 1.277 . S
O45 Mg36 2.041 . S
O46 C32 1.245 . S
O46 Mg34 1.988 . S
O47 Mg34 2.061 . S
O47 C41 1.247 . S
O48 Mg37 2.106 . S
O48 Mg40 2.238 . S
O48 C41 1.289 . S
C49 O50 1.245 . S
C49 O51 1.274 . S
O50 Mg37 2.079 . S
O50 C49 1.245 . S
O51 Mg36 2.038 . S
O51 C49 1.274 . S
O52 Mg40 2.042 . S
O52 C55 1.241 . S
O53 Mg39 1.984 . S
O53 C55 1.280 . S
O54 Mg40 2.041 . S
O54 C58 1.277 . S
C55 O52 1.241 . S
C55 O53 1.280 . S
O56 Mg39 1.988 . S
O56 C58 1.245 . S
O57 C33 1.247 . S
O57 Mg39 2.061 . S
C58 O54 1.277 . S
C58 O56 1.245 . S
O59 C33 1.289 . S
O59 Mg36 2.238 . S
O59 Mg37 2.106 . S
O60 Mg37 2.079 . S
O60 C42 1.245 . S
O61 Mg40 2.038 . S
O61 C42 1.274 . S
C62 O74 1.241 . S
C62 O75 1.280 . S
C63 O76 1.277 . S
C63 O77 1.245 . S
C64 O88 1.247 . S
C64 O90 1.289 . S
Mg65 O66 1.926 . S
Mg65 O75 1.984 . S
Mg65 O77 1.988 . S
Mg65 O78 2.061 . S
O66 Mg65 1.926 . S
O66 Mg67 1.986 . S
O66 Mg68 1.917 . S
Mg67 O66 1.986 . S
Mg67 O74 2.042 . S
Mg67 O76 2.041 . S
Mg67 O82 2.038 . S
Mg67 O90 2.238 . S
Mg68 O66 1.917 . S
Mg68 O69 1.917 . S
Mg68 O79 2.106 . S
Mg68 O81 2.079 . S
Mg68 O90 2.106 . S
Mg68 O91 2.079 . S
O69 Mg68 1.917 . S
O69 Mg70 1.926 . S
O69 Mg71 1.986 . S
Mg70 O69 1.926 . S
Mg70 O84 1.984 . S
Mg70 O87 1.988 . S
Mg70 O88 2.061 . S
Mg71 O69 1.986 . S
Mg71 O79 2.238 . S
Mg71 O83 2.042 . S
Mg71 O85 2.041 . S
Mg71 O92 2.038 . S
C72 O78 1.247 . S
C72 O79 1.289 . S
C73 O91 1.245 . S
C73 O92 1.274 . S
O74 C62 1.241 . S
O74 Mg67 2.042 . S
O75 C62 1.280 . S
O75 Mg65 1.984 . S
O76 C63 1.277 . S
O76 Mg67 2.041 . S
O77 C63 1.245 . S
O77 Mg65 1.988 . S
O78 Mg65 2.061 . S
O78 C72 1.247 . S
O79 Mg68 2.106 . S
O79 Mg71 2.238 . S
O79 C72 1.289 . S
C80 O81 1.245 . S
C80 O82 1.274 . S
O81 Mg68 2.079 . S
O81 C80 1.245 . S
O82 Mg67 2.038 . S
O82 C80 1.274 . S
O83 Mg71 2.042 . S
O83 C86 1.241 . S
O84 Mg70 1.984 . S
O84 C86 1.280 . S
O85 Mg71 2.041 . S
O85 C89 1.277 . S
C86 O83 1.241 . S
C86 O84 1.280 . S
O87 Mg70 1.988 . S
O87 C89 1.245 . S
O88 C64 1.247 . S
O88 Mg70 2.061 . S
C89 O85 1.277 . S
C89 O87 1.245 . S
O90 C64 1.289 . S
O90 Mg67 2.238 . S
O90 Mg68 2.106 . S
O91 Mg68 2.079 . S
O91 C73 1.245 . S
O92 Mg71 2.038 . S
O92 C73 1.274 . S
C93 O105 1.241 . S
C93 O106 1.280 . S
C94 O107 1.277 . S
C94 O108 1.245 . S
C95 O119 1.247 . S
C95 O121 1.289 . S
Mg96 O97 1.926 . S
Mg96 O106 1.984 . S
Mg96 O108 1.988 . S
Mg96 O109 2.061 . S
O97 Mg96 1.926 . S
O97 Mg98 1.986 . S
O97 Mg99 1.917 . S
Mg98 O97 1.986 . S
Mg98 O105 2.042 . S
Mg98 O107 2.041 . S
Mg98 O113 2.038 . S
Mg98 O121 2.238 . S
Mg99 O97 1.917 . S
Mg99 O100 1.917 . S
Mg99 O110 2.106 . S
Mg99 O112 2.079 . S
Mg99 O121 2.106 . S
Mg99 O122 2.079 . S
O100 Mg99 1.917 . S
O100 Mg101 1.926 . S
O100 Mg102 1.986 . S
Mg101 O100 1.926 . S
Mg101 O115 1.984 . S
Mg101 O118 1.988 . S
Mg101 O119 2.061 . S
Mg102 O100 1.986 . S
Mg102 O110 2.238 . S
Mg102 O114 2.042 . S
Mg102 O116 2.041 . S
Mg102 O123 2.038 . S
C103 O109 1.247 . S
C103 O110 1.289 . S
C104 O122 1.245 . S
C104 O123 1.274 . S
O105 C93 1.241 . S
O105 Mg98 2.042 . S
O106 C93 1.280 . S
O106 Mg96 1.984 . S
O107 C94 1.277 . S
O107 Mg98 2.041 . S
O108 C94 1.245 . S
O108 Mg96 1.988 . S
O109 Mg96 2.061 . S
O109 C103 1.247 . S
O110 Mg99 2.106 . S
O110 Mg102 2.238 . S
O110 C103 1.289 . S
C111 O112 1.245 . S
C111 O113 1.274 . S
O112 Mg99 2.079 . S
O112 C111 1.245 . S
O113 Mg98 2.038 . S
O113 C111 1.274 . S
O114 Mg102 2.042 . S
O114 C117 1.241 . S
O115 Mg101 1.984 . S
O115 C117 1.280 . S
O116 Mg102 2.041 . S
O116 C120 1.277 . S
C117 O114 1.241 . S
C117 O115 1.280 . S
O118 Mg101 1.988 . S
O118 C120 1.245 . S
O119 C95 1.247 . S
O119 Mg101 2.061 . S
C120 O116 1.277 . S
C120 O118 1.245 . S
O121 C95 1.289 . S
O121 Mg98 2.238 . S
O121 Mg99 2.106 . S
O122 Mg99 2.079 . S
O122 C104 1.245 . S
O123 Mg102 2.038 . S
O123 C104 1.274 . S
H124 C132 0.950 . S
H125 C137 0.950 . S
H126 C134 0.950 . S
H127 C136 0.950 . S
H128 C138 0.950 . S
H129 C140 0.950 . S
H130 C142 0.950 . S
H131 C143 0.950 . S
C132 H124 0.950 . S
C132 C133 1.386 . S
C132 C134 1.391 1_655 S
C133 C132 1.386 . S
C133 C137 1.393 . S
C134 H126 0.950 . S
C134 C132 1.391 1_455 S
C134 C135 1.400 1_455 S
C135 C134 1.400 1_655 S
C135 C136 1.398 . S
C135 C141 1.491 1_655 S
C136 H127 0.950 . S
C136 C135 1.398 . S
C136 C137 1.391 . S
C137 H125 0.950 . S
C137 C133 1.393 . S
C137 C136 1.391 . S
C138 H128 0.950 . S
C138 C139 1.386 . S
C138 C140 1.391 1_455 S
C139 C138 1.386 . S
C139 C143 1.393 . S
C140 H129 0.950 . S
C140 C138 1.391 1_655 S
C140 C141 1.400 1_655 S
C141 C135 1.491 1_455 S
C141 C140 1.400 1_455 S
C141 C142 1.398 . S
C142 H130 0.950 . S
C142 C141 1.398 . S
C142 C143 1.391 . S
C143 H131 0.950 . S
C143 C139 1.393 . S
C143 C142 1.391 . S
H144 C152 0.950 . S
H145 C157 0.950 . S
H146 C154 0.950 1_565 S
H147 C156 0.950 . S
H148 C158 0.950 . S
H149 C160 0.950 1_545 S
H150 C162 0.950 . S
H151 C163 0.950 . S
C152 H144 0.950 . S
C152 C153 1.386 . S
C152 C154 1.391 . S
C153 C152 1.386 . S
C153 C157 1.393 . S
C154 H146 0.950 1_545 S
C154 C152 1.391 . S
C154 C155 1.400 . S
C155 C154 1.400 . S
C155 C156 1.398 . S
C155 C161 1.491 1_544 S
C156 H147 0.950 . S
C156 C155 1.398 . S
C156 C157 1.391 . S
C157 H145 0.950 . S
C157 C153 1.393 . S
C157 C156 1.391 . S
C158 H148 0.950 . S
C158 C159 1.386 . S
C158 C160 1.391 . S
C159 C158 1.386 . S
C159 C163 1.393 . S
C160 H149 0.950 1_565 S
C160 C158 1.391 . S
C160 C161 1.400 . S
C161 C155 1.491 1_566 S
C161 C160 1.400 . S
C161 C162 1.398 . S
C162 H150 0.950 . S
C162 C161 1.398 . S
C162 C163 1.391 . S
C163 H151 0.950 . S
C163 C159 1.393 . S
C163 C162 1.391 . S
H164 C172 0.950 . S
H165 C177 0.950 . S
H166 C174 0.950 . S
H167 C176 0.950 . S
H168 C178 0.950 . S
H169 C180 0.950 . S
H170 C182 0.950 . S
H171 C183 0.950 . S
C172 H164 0.950 . S
C172 C173 1.386 . S
C172 C174 1.391 . S
C173 C172 1.386 . S
C173 C177 1.393 . S
C174 H166 0.950 . S
C174 C172 1.391 . S
C174 C175 1.400 . S
C175 C174 1.400 . S
C175 C176 1.398 . S
C175 C181 1.491 . S
C176 H167 0.950 . S
C176 C175 1.398 . S
C176 C177 1.391 . S
C177 H165 0.950 . S
C177 C173 1.393 . S
C177 C176 1.391 . S
C178 H168 0.950 . S
C178 C179 1.386 . S
C178 C180 1.391 . S
C179 C178 1.386 . S
C179 C183 1.393 . S
C180 H169 0.950 . S
C180 C178 1.391 . S
C180 C181 1.400 . S
C181 C175 1.491 . S
C181 C180 1.400 . S
C181 C182 1.398 . S
C182 H170 0.950 . S
C182 C181 1.398 . S
C182 C183 1.391 . S
C183 H171 0.950 . S
C183 C179 1.393 . S
C183 C182 1.391 . S
H184 C192 0.950 . S
H185 C197 0.950 . S
H186 C194 0.950 1_556 S
H187 C196 0.950 1_455 S
H188 C198 0.950 . S
H189 C200 0.950 1_554 S
H190 C202 0.950 1_655 S
H191 C203 0.950 . S
C192 H184 0.950 . S
C192 C193 1.386 . S
C192 C194 1.391 . S
C193 C192 1.386 . S
C193 C197 1.393 1_545 S
C194 H186 0.950 1_554 S
C194 C192 1.391 . S
C194 C195 1.400 . S
C195 C194 1.400 . S
C195 C196 1.398 1_545 S
C195 C201 1.491 1_644 S
C196 H187 0.950 1_655 S
C196 C195 1.398 1_565 S
C196 C197 1.391 . S
C197 H185 0.950 . S
C197 C193 1.393 1_565 S
C197 C196 1.391 . S
C198 H188 0.950 . S
C198 C199 1.386 . S
C198 C200 1.391 . S
C199 C198 1.386 . S
C199 C203 1.393 1_565 S
C200 H189 0.950 1_556 S
C200 C198 1.391 . S
C200 C201 1.400 . S
C201 C195 1.491 1_466 S
C201 C200 1.400 . S
C201 C202 1.398 1_565 S
C202 H190 0.950 1_455 S
C202 C201 1.398 1_545 S
C202 C203 1.391 . S
C203 H191 0.950 . S
C203 C199 1.393 1_545 S
C203 C202 1.391 . S
H204 C212 0.950 . S
H205 C217 0.950 . S
H206 C214 0.950 . S
H207 C216 0.950 . S
H208 C218 0.950 . S
H209 C220 0.950 . S
H210 C222 0.950 . S
H211 C223 0.950 . S
C212 H204 0.950 . S
C212 C213 1.386 . S
C212 C214 1.391 . S
C213 C212 1.386 . S
C213 C217 1.393 . S
C214 H206 0.950 . S
C214 C212 1.391 . S
C214 C215 1.400 . S
C215 C214 1.400 . S
C215 C216 1.398 . S
C215 C221 1.491 . S
C216 H207 0.950 . S
C216 C215 1.398 . S
C216 C217 1.391 . S
C217 H205 0.950 . S
C217 C213 1.393 . S
C217 C216 1.391 . S
C218 H208 0.950 . S
C218 C219 1.386 . S
C218 C220 1.391 1_554 S
C219 C218 1.386 . S
C219 C223 1.393 . S
C220 H209 0.950 . S
C220 C218 1.391 1_556 S
C220 C221 1.400 . S
C221 C215 1.491 . S
C221 C220 1.400 . S
C221 C222 1.398 . S
C222 H210 0.950 . S
C222 C221 1.398 . S
C222 C223 1.391 1_556 S
C223 H211 0.950 . S
C223 C219 1.393 . S
C223 C222 1.391 1_554 S
H224 C232 0.950 . S
H225 C237 0.950 . S
H226 C234 0.950 . S
H227 C236 0.950 . S
H228 C238 0.947 1_455 S
H229 C240 0.946 1_455 S
H230 C242 0.950 . S
H231 C243 0.950 . S
C232 H224 0.950 . S
C232 C233 1.386 . S
C232 C234 1.391 . S
C233 C232 1.386 . S
C233 C237 1.393 . S
C234 H226 0.950 . S
C234 C232 1.391 . S
C234 C235 1.400 . S
C235 C234 1.400 . S
C235 C236 1.398 . S
C235 C241 1.491 . S
C236 H227 0.950 . S
C236 C235 1.398 . S
C236 C237 1.391 . S
C237 H225 0.950 . S
C237 C233 1.393 . S
C237 C236 1.391 . S
C238 H228 0.947 1_655 S
C238 C239 1.388 . S
C238 C240 1.392 . S
C239 C238 1.388 . S
C239 C243 1.393 . S
C240 H229 0.946 1_655 S
C240 C238 1.392 . S
C240 C241 1.400 . S
C241 C235 1.491 . S
C241 C240 1.400 . S
C241 C242 1.398 . S
C242 H230 0.950 . S
C242 C241 1.398 . S
C242 C243 1.391 . S
C243 H231 0.950 . S
C243 C239 1.393 . S
C243 C242 1.391 . S
H244 C252 0.950 . S
H245 C257 0.948 1_556 S
H246 C254 0.950 . S
H247 C256 0.950 . S
H248 C258 0.950 . S
H249 C260 0.950 . S
H250 C262 0.950 . S
H251 C263 0.950 . S
C252 H244 0.950 . S
C252 C253 1.386 . S
C252 C254 1.391 1_556 S
C253 C252 1.386 . S
C253 C257 1.376 1_556 S
C254 H246 0.950 . S
C254 C252 1.391 1_554 S
C254 C255 1.400 . S
C255 C254 1.400 . S
C255 C256 1.398 . S
C255 C261 1.491 . S
C256 H247 0.950 . S
C256 C255 1.398 . S
C256 C257 1.409 . S
C257 H245 0.948 1_554 S
C257 C253 1.376 1_554 S
C257 C256 1.409 . S
C258 H248 0.950 . S
C258 C259 1.386 . S
C258 C260 1.391 . S
C259 C258 1.386 . S
C259 C263 1.393 . S
C260 H249 0.950 . S
C260 C258 1.391 . S
C260 C261 1.400 . S
C261 C255 1.491 . S
C261 C260 1.400 . S
C261 C262 1.398 . S
C262 H250 0.950 . S
C262 C261 1.398 . S
C262 C263 1.391 . S
C263 H251 0.950 . S
C263 C259 1.393 . S
C263 C262 1.391 . S
H264 C272 0.950 . S
H265 C277 0.950 . S
H266 C274 0.950 . S
H267 C276 0.950 . S
H268 C278 0.950 . S
H269 C280 0.950 . S
H270 C282 0.950 . S
H271 C283 0.950 . S
C272 H264 0.950 . S
C272 C273 1.386 . S
C272 C274 1.391 . S
C273 C272 1.386 . S
C273 C277 1.393 . S
C274 H266 0.950 . S
C274 C272 1.391 . S
C274 C275 1.400 . S
C275 C274 1.400 . S
C275 C276 1.398 . S
C275 C281 1.491 . S
C276 H267 0.950 . S
C276 C275 1.398 . S
C276 C277 1.391 . S
C277 H265 0.950 . S
C277 C273 1.393 . S
C277 C276 1.391 . S
C278 H268 0.950 . S
C278 C279 1.386 . S
C278 C280 1.391 . S
C279 C278 1.386 . S
C279 C283 1.393 . S
C280 H269 0.950 . S
C280 C278 1.391 . S
C280 C281 1.400 . S
C281 C275 1.491 . S
C281 C280 1.400 . S
C281 C282 1.398 . S
C282 H270 0.950 . S
C282 C281 1.398 . S
C282 C283 1.391 . S
C283 H271 0.950 . S
C283 C279 1.393 . S
C283 C282 1.391 . S
H284 C292 0.950 . S
H285 C297 0.950 1_455 S
H286 C294 0.950 . S
H287 C296 0.950 . S
H288 C298 0.950 . S
H289 C300 0.950 . S
H290 C302 0.950 . S
H291 C303 0.950 . S
C292 H284 0.950 . S
C292 C293 1.386 1_655 S
C292 C294 1.391 . S
C293 C292 1.386 1_455 S
C293 C297 1.393 1_455 S
C294 H286 0.950 . S
C294 C292 1.391 . S
C294 C295 1.400 . S
C295 C294 1.400 . S
C295 C296 1.398 . S
C295 C301 1.491 . S
C296 H287 0.950 . S
C296 C295 1.398 . S
C296 C297 1.391 . S
C297 H285 0.950 1_655 S
C297 C293 1.393 1_655 S
C297 C296 1.391 . S
C298 H288 0.950 . S
C298 C299 1.386 . S
C298 C300 1.391 . S
C299 C298 1.386 . S
C299 C303 1.393 . S
C300 H289 0.950 . S
C300 C298 1.391 . S
C300 C301 1.400 . S
C301 C295 1.491 . S
C301 C300 1.400 . S
C301 C302 1.398 . S
C302 H290 0.950 . S
C302 C301 1.398 . S
C302 C303 1.391 . S
C303 H291 0.950 . S
C303 C299 1.393 . S
C303 C302 1.391 . S
H304 C312 0.950 . S
H305 C317 0.950 . S
H306 C314 0.950 . S
H307 C316 0.950 . S
H308 C318 0.950 . S
H309 C320 0.950 . S
H310 C322 0.950 . S
H311 C323 0.950 . S
C312 H304 0.950 . S
C312 C313 1.386 . S
C312 C314 1.391 . S
C313 C312 1.386 . S
C313 C317 1.393 . S
C314 H306 0.950 . S
C314 C312 1.391 . S
C314 C315 1.400 . S
C315 C314 1.400 . S
C315 C316 1.398 . S
C315 C321 1.491 . S
C316 H307 0.950 . S
C316 C315 1.398 . S
C316 C317 1.391 . S
C317 H305 0.950 . S
C317 C313 1.393 . S
C317 C316 1.391 . S
C318 H308 0.950 . S
C318 C319 1.386 . S
C318 C320 1.391 . S
C319 C318 1.386 . S
C319 C323 1.393 . S
C320 H309 0.950 . S
C320 C318 1.391 . S
C320 C321 1.400 . S
C321 C315 1.491 . S
C321 C320 1.400 . S
C321 C322 1.398 . S
C322 H310 0.950 . S
C322 C321 1.398 . S
C322 C323 1.391 . S
C323 H311 0.950 . S
C323 C319 1.393 . S
C323 C322 1.391 . S
H324 C332 0.950 1_655 S
H325 C337 0.950 . S
H326 C334 0.950 . S
H327 C336 0.950 . S
H328 C338 0.950 . S
H329 C340 0.950 . S
H330 C342 0.950 . S
H331 C343 0.950 . S
C332 H324 0.950 1_455 S
C332 C333 1.386 1_455 S
C332 C334 1.391 . S
C333 C332 1.386 1_655 S
C333 C337 1.393 1_655 S
C334 H326 0.950 . S
C334 C332 1.391 . S
C334 C335 1.400 . S
C335 C334 1.400 . S
C335 C336 1.398 . S
C335 C341 1.491 . S
C336 H327 0.950 . S
C336 C335 1.398 . S
C336 C337 1.391 . S
C337 H325 0.950 . S
C337 C333 1.393 1_455 S
C337 C336 1.391 . S
C338 H328 0.950 . S
C338 C339 1.386 . S
C338 C340 1.391 . S
C339 C338 1.386 . S
C339 C343 1.393 . S
C340 H329 0.950 . S
C340 C338 1.391 . S
C340 C341 1.400 . S
C341 C335 1.491 . S
C341 C340 1.400 . S
C341 C342 1.398 . S
C342 H330 0.950 . S
C342 C341 1.398 . S
C342 C343 1.391 . S
C343 H331 0.950 . S
C343 C339 1.393 . S
C343 C342 1.391 . S
H344 C352 0.950 . S
H345 C357 0.950 . S
H346 C354 0.950 . S
H347 C356 0.950 . S
H348 C358 0.950 . S
H349 C360 0.950 . S
H350 C362 0.950 . S
H351 C363 0.950 . S
C352 H344 0.950 . S
C352 C353 1.386 . S
C352 C354 1.391 . S
C353 C352 1.386 . S
C353 C357 1.393 . S
C354 H346 0.950 . S
C354 C352 1.391 . S
C354 C355 1.400 . S
C355 C354 1.400 . S
C355 C356 1.398 . S
C355 C361 1.491 . S
C356 H347 0.950 . S
C356 C355 1.398 . S
C356 C357 1.391 . S
C357 H345 0.950 . S
C357 C353 1.393 . S
C357 C356 1.391 . S
C358 H348 0.950 . S
C358 C359 1.386 . S
C358 C360 1.391 . S
C359 C358 1.386 . S
C359 C363 1.393 . S
C360 H349 0.950 . S
C360 C358 1.391 . S
C360 C361 1.400 . S
C361 C355 1.491 . S
C361 C360 1.400 . S
C361 C362 1.398 . S
C362 H350 0.950 . S
C362 C361 1.398 . S
C362 C363 1.391 . S
C363 H351 0.950 . S
C363 C359 1.393 . S
C363 C362 1.391 . S
H364 C372 0.950 . S
H365 C377 0.950 . S
H366 C374 0.950 . S
H367 C376 0.950 . S
H368 C378 0.950 . S
H369 C380 0.950 . S
H370 C382 0.950 . S
H371 C383 0.950 . S
C372 H364 0.950 . S
C372 C373 1.386 . S
C372 C374 1.391 . S
C373 C372 1.386 . S
C373 C377 1.393 . S
C374 H366 0.950 . S
C374 C372 1.391 . S
C374 C375 1.400 . S
C375 C374 1.400 . S
C375 C376 1.398 . S
C375 C381 1.491 . S
C376 H367 0.950 . S
C376 C375 1.398 . S
C376 C377 1.391 . S
C377 H365 0.950 . S
C377 C373 1.393 . S
C377 C376 1.391 . S
C378 H368 0.950 . S
C378 C379 1.386 . S
C378 C380 1.391 1_565 S
C379 C378 1.386 . S
C379 C383 1.393 . S
C380 H369 0.950 . S
C380 C378 1.391 1_545 S
C380 C381 1.400 . S
C381 C375 1.491 . S
C381 C380 1.400 . S
C381 C382 1.398 . S
C382 H370 0.950 . S
C382 C381 1.398 . S
C382 C383 1.391 1_545 S
C383 H371 0.950 . S
C383 C379 1.393 . S
C383 C382 1.391 1_565 S
H384 C392 0.950 . S
H385 C397 0.950 . S
H386 C394 0.950 . S
H387 C396 0.950 . S
H388 C398 0.950 . S
H389 C400 0.950 . S
H390 C402 0.950 . S
H391 C403 0.950 . S
C392 H384 0.950 . S
C392 C393 1.386 . S
C392 C394 1.391 . S
C393 C392 1.386 . S
C393 C397 1.393 . S
C394 H386 0.950 . S
C394 C392 1.391 . S
C394 C395 1.400 . S
C395 C394 1.400 . S
C395 C396 1.398 . S
C395 C401 1.491 . S
C396 H387 0.950 . S
C396 C395 1.398 . S
C396 C397 1.391 . S
C397 H385 0.950 . S
C397 C393 1.393 . S
C397 C396 1.391 . S
C398 H388 0.950 . S
C398 C399 1.386 . S
C398 C400 1.391 . S
C399 C398 1.386 . S
C399 C403 1.393 . S
C400 H389 0.950 . S
C400 C398 1.391 . S
C400 C401 1.400 . S
C401 C395 1.491 . S
C401 C400 1.400 . S
C401 C402 1.398 . S
C402 H390 0.950 . S
C402 C401 1.398 . S
C402 C403 1.391 . S
C403 H391 0.950 . S
C403 C399 1.393 . S
C403 C402 1.391 . S
H404 C412 0.950 . S
H405 C417 0.950 . S
H406 C414 0.950 . S
H407 C416 0.950 . S
H408 C418 0.950 . S
H409 C420 0.950 . S
H410 C422 0.950 . S
H411 C423 0.950 . S
C412 H404 0.950 . S
C412 C413 1.386 . S
C412 C414 1.391 . S
C413 C412 1.386 . S
C413 C417 1.393 . S
C414 H406 0.950 . S
C414 C412 1.391 . S
C414 C415 1.400 . S
C415 C414 1.400 . S
C415 C416 1.398 . S
C415 C421 1.491 . S
C416 H407 0.950 . S
C416 C415 1.398 . S
C416 C417 1.391 . S
C417 H405 0.950 . S
C417 C413 1.393 . S
C417 C416 1.391 . S
C418 H408 0.950 . S
C418 C419 1.386 . S
C418 C420 1.391 1_545 S
C419 C418 1.386 . S
C419 C423 1.393 . S
C420 H409 0.950 . S
C420 C418 1.391 1_565 S
C420 C421 1.400 . S
C421 C415 1.491 . S
C421 C420 1.400 . S
C421 C422 1.398 . S
C422 H410 0.950 . S
C422 C421 1.398 . S
C422 C423 1.391 1_565 S
C423 H411 0.950 . S
C423 C419 1.393 . S
C423 C422 1.391 1_545 S
H424 C432 0.950 . S
H425 C437 0.950 . S
H426 C434 0.950 . S
H427 C436 0.950 . S
H428 C438 0.950 . S
H429 C440 0.950 . S
H430 C442 0.950 . S
H431 C443 0.950 . S
C432 H424 0.950 . S
C432 C433 1.386 . S
C432 C434 1.391 . S
C433 C432 1.386 . S
C433 C437 1.393 . S
C434 H426 0.950 . S
C434 C432 1.391 . S
C434 C435 1.400 . S
C435 C434 1.400 . S
C435 C436 1.398 . S
C435 C441 1.491 . S
C436 H427 0.950 . S
C436 C435 1.398 . S
C436 C437 1.391 . S
C437 H425 0.950 . S
C437 C433 1.393 . S
C437 C436 1.391 . S
C438 H428 0.950 . S
C438 C439 1.386 . S
C438 C440 1.391 . S
C439 C438 1.386 . S
C439 C443 1.393 . S
C440 H429 0.950 . S
C440 C438 1.391 . S
C440 C441 1.400 . S
C441 C435 1.491 . S
C441 C440 1.400 . S
C441 C442 1.398 . S
C442 H430 0.950 . S
C442 C441 1.398 . S
C442 C443 1.391 . S
C443 H431 0.950 . S
C443 C439 1.393 . S
C443 C442 1.391 . S
C133 C63 0.714 . S
C139 C27 0.714 . S
C153 C93 0.673 . S
C159 C55 0.673 . S
C173 C62 0.748 . S
C179 C24 0.748 . S
C193 C94 0.686 . S
C199 C58 0.686 . S
C213 C1 1.795 . S
C219 C103 1.674 . S
C233 C64 1.994 . S
C239 C31 1.872 1_655 S
C253 C33 1.646 . S
C259 C89 1.803 . S
C273 C117 1.890 1_455 S
C279 C10 2.004 . S
C293 C18 1.712 . S
C299 C11 1.712 . S
C313 C42 1.703 . S
C319 C49 1.703 1_655 S
C333 C73 1.711 . S
C339 C80 1.711 . S
C353 C104 1.718 1_455 S
C359 C111 1.718 . S
C373 C0 1.920 . S
C379 C41 2.010 . S
C393 C2 1.583 . S
C399 C32 1.724 . S
C413 C86 1.929 . S
C419 C95 1.999 . S
C433 C120 1.725 . S
C439 C72 1.581 . S
