# Generated by pormake.
# Topology qtz-a, (4)-cn, num edge types: 1
# Building blocks:
#     Node 0, Type 0, BuildingBlock: QUQFOY_clean_sbu_3, # of connection points: 4
#     Node 1, Type 0, BuildingBlock: QUQFOY_clean_sbu_3, # of connection points: 4
#     Node 2, Type 0, BuildingBlock: QUQFOY_clean_sbu_3, # of connection points: 4
#     Node 3, Type 0, BuildingBlock: QUQFOY_clean_sbu_3, # of connection points: 4
#     Node 4, Type 0, BuildingBlock: QUQFOY_clean_sbu_3, # of connection points: 4
#     Node 5, Type 0, BuildingBlock: QUQFOY_clean_sbu_3, # of connection points: 4
#     Node 6, Type 0, BuildingBlock: QUQFOY_clean_sbu_3, # of connection points: 4
#     Node 7, Type 0, BuildingBlock: QUQFOY_clean_sbu_3, # of connection points: 4
#     Node 8, Type 0, BuildingBlock: QUQFOY_clean_sbu_3, # of connection points: 4
#     Node 9, Type 0, BuildingBlock: QUQFOY_clean_sbu_3, # of connection points: 4
#     Node 10, Type 0, BuildingBlock: QUQFOY_clean_sbu_3, # of connection points: 4
#     Node 11, Type 0, BuildingBlock: QUQFOY_clean_sbu_3, # of connection points: 4
#     Edge 12, Type (0, 0), BuildingBlock: EYOCIG_clean_linker_4, # of connection points: 2
#     Edge 13, Type (0, 0), BuildingBlock: EYOCIG_clean_linker_4, # of connection points: 2
#     Edge 14, Type (0, 0), BuildingBlock: EYOCIG_clean_linker_4, # of connection points: 2
#     Edge 15, Type (0, 0), BuildingBlock: EYOCIG_clean_linker_4, # of connection points: 2
#     Edge 16, Type (0, 0), BuildingBlock: EYOCIG_clean_linker_4, # of connection points: 2
#     Edge 17, Type (0, 0), BuildingBlock: EYOCIG_clean_linker_4, # of connection points: 2
#     Edge 18, Type (0, 0), BuildingBlock: EYOCIG_clean_linker_4, # of connection points: 2
#     Edge 19, Type (0, 0), BuildingBlock: EYOCIG_clean_linker_4, # of connection points: 2
#     Edge 20, Type (0, 0), BuildingBlock: EYOCIG_clean_linker_4, # of connection points: 2
#     Edge 21, Type (0, 0), BuildingBlock: EYOCIG_clean_linker_4, # of connection points: 2
#     Edge 22, Type (0, 0), BuildingBlock: EYOCIG_clean_linker_4, # of connection points: 2
#     Edge 23, Type (0, 0), BuildingBlock: EYOCIG_clean_linker_4, # of connection points: 2
#     Edge 24, Type (0, 0), BuildingBlock: EYOCIG_clean_linker_4, # of connection points: 2
#     Edge 25, Type (0, 0), BuildingBlock: EYOCIG_clean_linker_4, # of connection points: 2
#     Edge 26, Type (0, 0), BuildingBlock: EYOCIG_clean_linker_4, # of connection points: 2
#     Edge 27, Type (0, 0), BuildingBlock: EYOCIG_clean_linker_4, # of connection points: 2
#     Edge 28, Type (0, 0), BuildingBlock: EYOCIG_clean_linker_4, # of connection points: 2
#     Edge 29, Type (0, 0), BuildingBlock: EYOCIG_clean_linker_4, # of connection points: 2
#     Edge 30, Type (0, 0), BuildingBlock: EYOCIG_clean_linker_4, # of connection points: 2
#     Edge 31, Type (0, 0), BuildingBlock: EYOCIG_clean_linker_4, # of connection points: 2
#     Edge 32, Type (0, 0), BuildingBlock: EYOCIG_clean_linker_4, # of connection points: 2
#     Edge 33, Type (0, 0), BuildingBlock: EYOCIG_clean_linker_4, # of connection points: 2
#     Edge 34, Type (0, 0), BuildingBlock: EYOCIG_clean_linker_4, # of connection points: 2
#     Edge 35, Type (0, 0), BuildingBlock: EYOCIG_clean_linker_4, # of connection points: 2
# Relax obj value: 0.770
# Max RMSD: 0.703
# Mean RMSD: 0.703
data_MOF--net-qtz-a--node1-QUQFOY_clean_sbu_3--edge1-EYOCIG_clean_linker_4
_symmetry_space_group_name_H-M    P1
_symmetry_Int_Tables_number       1
_symmetry_cell_setting            triclinic
loop_
_symmetry_equiv_pos_as_xyz
'x, y, z'
_cell_length_a     29.437486
_cell_length_b     29.352107
_cell_length_c     47.45157
_cell_angle_alpha  90.068298
_cell_angle_beta   89.846162
_cell_angle_gamma 120.13281
loop_
_atom_site_label
_atom_site_type_symbol
_atom_site_fract_x
_atom_site_fract_y
_atom_site_fract_z
_atom_type_partial_charge
C0 C 0.62335 0.05739 0.07948 0.0
O1 O 0.64093 0.04438 0.05862 0.0
Cd2 Cd 0.70946 0.12596 0.0355 0.0
O3 O 0.64732 0.10564 0.08569 0.0
Cd4 Cd 0.66636 0.16446 0.045 0.0
C5 C 0.59786 0.07271 0.00417 0.0
O6 O 0.70151 0.17561 -0.00442 0.0
O7 O 0.69471 0.23889 0.01456 0.0
O8 O 0.69735 0.23009 0.08063 0.0
C9 C 0.69354 0.21428 -0.00751 0.0
O10 O 0.64274 0.07674 0.00344 0.0
C11 C 0.6551 0.23217 0.08002 0.0
O12 O 0.58717 0.09875 0.02177 0.0
O13 O 0.61857 0.20249 0.06308 0.0
C14 C 0.56016 0.62762 0.41327 0.0
O15 O 0.59023 0.64454 0.39217 0.0
Cd16 Cd 0.57932 0.71374 0.36829 0.0
O17 O 0.53675 0.65229 0.41955 0.0
Cd18 Cd 0.49774 0.66988 0.37815 0.0
C19 C 0.52597 0.60324 0.33694 0.0
O20 O 0.52049 0.70499 0.3289 0.0
O21 O 0.45124 0.69863 0.34847 0.0
O22 O 0.46145 0.69955 0.41347 0.0
C23 C 0.47397 0.69719 0.32618 0.0
O24 O 0.56617 0.64885 0.33583 0.0
C25 C 0.41713 0.65702 0.41231 0.0
O26 O 0.48883 0.59224 0.35437 0.0
O27 O 0.41121 0.62054 0.39546 0.0
C28 C 0.93006 0.56461 0.74631 0.0
O29 O 0.94384 0.59517 0.7254 0.0
Cd30 Cd 0.86322 0.58324 0.7022 0.0
O31 O 0.88186 0.54093 0.75232 0.0
Cd32 Cd 0.82418 0.50182 0.71128 0.0
C33 C 0.91406 0.52377 0.66941 0.0
O34 O 0.81277 0.52607 0.66211 0.0
O35 O 0.75016 0.45514 0.68098 0.0
O36 O 0.7585 0.46992 0.74686 0.0
C37 C 0.7744 0.47912 0.65892 0.0
O38 O 0.91099 0.56528 0.6693 0.0
C39 C 0.75501 0.42478 0.7468 0.0
O40 O 0.8886 0.48713 0.68721 0.0
O41 O 0.78399 0.41624 0.73016 0.0
C42 C 0.36149 0.93336 0.07964 0.0
O43 O 0.34486 0.94676 0.05861 0.0
Cd44 Cd 0.27536 0.86581 0.03555 0.0
O45 O 0.33658 0.88516 0.08588 0.0
Cd46 Cd 0.31842 0.82739 0.04482 0.0
C47 C 0.38408 0.91746 0.00168 0.0
O48 O 0.28193 0.81417 -0.0041 0.0
O49 O 0.29025 0.75207 0.01517 0.0
O50 O 0.28671 0.76222 0.08073 0.0
C51 C 0.29049 0.77582 -0.00704 0.0
O52 O 0.33936 0.91385 0.00185 0.0
C53 C 0.32895 0.76008 0.08044 0.0
O54 O 0.39592 0.89269 0.01953 0.0
O55 O 0.36581 0.78945 0.06348 0.0
C56 C 0.42352 0.36483 0.41322 0.0
O57 O 0.39239 0.34608 0.3927 0.0
Cd58 Cd 0.40604 0.27782 0.36961 0.0
O59 O 0.44895 0.34218 0.41922 0.0
Cd60 Cd 0.48682 0.3223 0.3781 0.0
C61 C 0.45772 0.38739 0.3369 0.0
O62 O 0.46313 0.28638 0.32908 0.0
O63 O 0.53376 0.29485 0.34787 0.0
O64 O 0.51941 0.29018 0.41407 0.0
C65 C 0.50998 0.2952 0.32585 0.0
O66 O 0.41768 0.34164 0.33682 0.0
C67 C 0.5644 0.33202 0.41367 0.0
O68 O 0.49574 0.39964 0.35382 0.0
O69 O 0.57272 0.36899 0.39659 0.0
C70 C 0.05326 0.42628 0.74643 0.0
O71 O 0.04033 0.39632 0.72529 0.0
Cd72 Cd 0.12097 0.40796 0.70209 0.0
O73 O 0.10127 0.45 0.75281 0.0
Cd74 Cd 0.15966 0.48982 0.71188 0.0
C75 C 0.07007 0.46694 0.66937 0.0
O76 O 0.17225 0.46662 0.66265 0.0
O77 O 0.23495 0.53643 0.68212 0.0
O78 O 0.22641 0.52548 0.74659 0.0
C79 C 0.21102 0.51342 0.65986 0.0
O80 O 0.07349 0.42561 0.66898 0.0
C81 C 0.22856 0.56997 0.74588 0.0
O82 O 0.09508 0.50327 0.68736 0.0
O83 O 0.19758 0.57618 0.7297 0.0
C84 C 0.92899 0.3648 0.48639 0.0
O85 O 0.94182 0.34727 0.50727 0.0
Cd86 Cd 0.86112 0.2781 0.53088 0.0
O87 O 0.88089 0.34082 0.48024 0.0
Cd88 Cd 0.82396 0.32202 0.52175 0.0
C89 C 0.9181 0.38754 0.56335 0.0
O90 O 0.81167 0.28654 0.57089 0.0
O91 O 0.74905 0.2937 0.55179 0.0
O92 O 0.75741 0.29139 0.48681 0.0
C93 C 0.77325 0.29477 0.57391 0.0
O94 O 0.91265 0.34191 0.56383 0.0
C95 C 0.75519 0.33368 0.48794 0.0
O96 O 0.89243 0.39927 0.54608 0.0
O97 O 0.78589 0.37055 0.50453 0.0
C98 C 0.56113 0.93345 0.82114 0.0
O99 O 0.59187 0.94628 0.84184 0.0
Cd100 Cd 0.57854 0.8642 0.86451 0.0
O101 O 0.53691 0.88529 0.81483 0.0
Cd102 Cd 0.49734 0.82737 0.85576 0.0
C103 C 0.52475 0.91934 0.89808 0.0
O104 O 0.52053 0.81396 0.90457 0.0
O105 O 0.44995 0.75198 0.88534 0.0
O106 O 0.46559 0.76273 0.81968 0.0
C107 C 0.47353 0.7757 0.90753 0.0
O108 O 0.56506 0.91437 0.89784 0.0
C109 C 0.42061 0.7593 0.81987 0.0
O110 O 0.4872 0.8943 0.88075 0.0
O111 O 0.41201 0.78794 0.83682 0.0
C112 C 0.62326 0.5661 0.15455 0.0
O113 O 0.63969 0.59634 0.17558 0.0
Cd114 Cd 0.70888 0.5852 0.19853 0.0
O115 O 0.64871 0.54352 0.14817 0.0
Cd116 Cd 0.6654 0.50169 0.18868 0.0
C117 C 0.59821 0.52333 0.23138 0.0
O118 O 0.70135 0.52641 0.2378 0.0
O119 O 0.69548 0.4568 0.21874 0.0
O120 O 0.69577 0.46579 0.15339 0.0
C121 C 0.69376 0.47985 0.24085 0.0
O122 O 0.64264 0.56513 0.23156 0.0
C123 C 0.65308 0.42156 0.15413 0.0
O124 O 0.58711 0.48712 0.21333 0.0
O125 O 0.61642 0.4155 0.17079 0.0
C126 C 0.05605 0.62741 0.48721 0.0
O127 O 0.04335 0.64531 0.50805 0.0
Cd128 Cd 0.12453 0.71391 0.53156 0.0
O129 O 0.10419 0.65069 0.48112 0.0
Cd130 Cd 0.16139 0.67055 0.52241 0.0
C131 C 0.06678 0.60392 0.56342 0.0
O132 O 0.17402 0.70603 0.57165 0.0
O133 O 0.23552 0.69667 0.55245 0.0
O134 O 0.22644 0.70156 0.48649 0.0
C135 C 0.21197 0.69705 0.57463 0.0
O136 O 0.07233 0.64957 0.56417 0.0
C137 C 0.2286 0.65921 0.48705 0.0
O138 O 0.09281 0.59255 0.54613 0.0
O139 O 0.19933 0.62261 0.50419 0.0
C140 C 0.4223 0.05678 0.82152 0.0
O141 O 0.3916 0.04396 0.84233 0.0
Cd142 Cd 0.40485 0.12558 0.86551 0.0
O143 O 0.44652 0.10495 0.81513 0.0
Cd144 Cd 0.48628 0.16383 0.85572 0.0
C145 C 0.46205 0.07061 0.89601 0.0
O146 O 0.46299 0.17518 0.90522 0.0
O147 O 0.53296 0.23831 0.886 0.0
O148 O 0.51942 0.22981 0.82028 0.0
C149 C 0.50971 0.21387 0.90815 0.0
O150 O 0.42157 0.07524 0.89716 0.0
C151 C 0.56438 0.23323 0.82078 0.0
O152 O 0.49896 0.09711 0.87854 0.0
O153 O 0.57204 0.20355 0.83731 0.0
C154 C 0.36101 0.42537 0.15466 0.0
O155 O 0.34336 0.39461 0.17547 0.0
Cd156 Cd 0.27521 0.40797 0.19826 0.0
O157 O 0.33689 0.4493 0.1484 0.0
Cd158 Cd 0.31927 0.49057 0.18894 0.0
C159 C 0.38651 0.46842 0.23061 0.0
O160 O 0.28318 0.46584 0.23817 0.0
O161 O 0.28965 0.53574 0.21922 0.0
O162 O 0.28723 0.52476 0.15381 0.0
C163 C 0.29076 0.51239 0.2413 0.0
O164 O 0.34174 0.42707 0.23074 0.0
C165 C 0.32909 0.5697 0.15451 0.0
O166 O 0.39803 0.50521 0.21289 0.0
O167 O 0.36636 0.5768 0.17087 0.0
C168 C 0.62302 0.21306 -0.04298 0.0
C169 C 0.65621 0.21044 -0.02884 0.0
C170 C 0.57938 0.21299 0.94344 0.0
C171 C 0.54342 0.21024 0.92939 0.0
C172 C 0.36051 0.58236 0.27708 0.0
C173 C 0.32769 0.54628 0.26277 0.0
C174 C 0.40388 0.62622 0.29089 0.0
C175 C 0.43977 0.65952 0.30507 0.0
C176 C 0.77476 0.36597 0.60928 0.0
C177 C 0.77718 0.33246 0.59516 0.0
C178 C 0.7751 0.40988 0.62295 0.0
C179 C 0.77802 0.44591 0.6372 0.0
C180 C 0.36058 0.77661 -0.04294 0.0
C181 C 0.32744 0.77937 -0.02868 0.0
C182 C 0.40421 0.77663 0.94331 0.0
C183 C 0.44016 0.77936 0.92912 0.0
C184 C 0.57898 0.36604 0.29007 0.0
C185 C 0.54316 0.33257 0.30429 0.0
C186 C 0.62264 0.4098 0.27629 0.0
C187 C 0.65596 0.44573 0.26204 0.0
C188 C 0.21114 0.62747 0.61076 0.0
C189 C 0.20838 0.66055 0.59648 0.0
C190 C 0.21097 0.58372 0.62446 0.0
C191 C 0.20792 0.54755 0.63859 0.0
C192 C 0.54641 0.0116 -0.03646 0.0
C193 C 0.5621 0.04027 -0.01656 0.0
C194 C 0.53304 0.97909 0.93984 0.0
C195 C 0.52254 0.9511 0.91972 0.0
C196 C 0.54947 0.52821 0.27485 0.0
C197 C 0.56427 0.51745 0.25379 0.0
C198 C 0.53558 0.54682 0.29857 0.0
C199 C 0.5242 0.56622 0.31741 0.0
C200 C 0.00182 0.54872 0.60256 0.0
C201 C 0.03208 0.56759 0.58343 0.0
C202 C 0.9694 0.53022 0.62635 0.0
C203 C 0.94317 0.51884 0.64721 0.0
C204 C 0.4339 0.97261 -0.04156 0.0
C205 C 0.4177 0.94651 -0.02072 0.0
C206 C 0.4511 0.0053 0.93473 0.0
C207 C 0.46414 0.0358 0.91564 0.0
C208 C 0.43465 0.46064 0.27338 0.0
C209 C 0.42045 0.47284 0.25264 0.0
C210 C 0.44745 0.44122 0.29713 0.0
C211 C 0.45868 0.4226 0.31639 0.0
C212 C 0.01407 0.46057 0.62681 0.0
C213 C 0.04054 0.47185 0.64749 0.0
C214 C 0.98178 0.44202 0.60304 0.0
C215 C 0.95209 0.42337 0.58373 0.0
C216 C 0.4645 0.98347 0.08945 0.0
C217 C 0.41767 0.96145 0.08466 0.0
C218 C 0.52025 0.00602 0.08935 0.0
C219 C 0.5671 0.0283 0.08444 0.0
C220 C 0.47425 0.46819 0.42282 0.0
C221 C 0.44973 0.42123 0.41792 0.0
C222 C 0.50743 0.52416 0.42296 0.0
C223 C 0.53211 0.5712 0.41824 0.0
C224 C 0.00235 0.47834 0.75642 0.0
C225 C 0.02472 0.45388 0.75154 0.0
C226 C 0.97988 0.5116 0.75639 0.0
C227 C 0.95807 0.53654 0.75145 0.0
C228 C 0.98064 0.46824 0.47677 0.0
C229 C 0.95806 0.42121 0.48152 0.0
C230 C 0.00364 0.52421 0.47699 0.0
C231 C 0.02624 0.5711 0.48211 0.0
C232 C 0.50836 0.98392 0.81231 0.0
C233 C 0.53352 0.96217 0.81679 0.0
C234 C 0.47477 0.006 0.81237 0.0
C235 C 0.44979 0.02794 0.81699 0.0
C236 C 0.52006 0.51178 0.14524 0.0
C237 C 0.56701 0.53703 0.14972 0.0
C238 C 0.46428 0.47826 0.14534 0.0
C239 C 0.41734 0.45326 0.14998 0.0
C240 C 0.6448 0.34222 0.12495 0.0
C241 C 0.64805 0.37817 0.13841 0.0
C242 C 0.64574 0.30171 0.11002 0.0
C243 C 0.6502 0.26996 0.09634 0.0
C244 C 0.29745 0.65008 0.4563 0.0
C245 C 0.26598 0.65431 0.47035 0.0
C246 C 0.33772 0.64912 0.44117 0.0
C247 C 0.37362 0.65207 0.42782 0.0
C248 C 0.64284 0.30609 0.79184 0.0
C249 C 0.60686 0.2728 0.80505 0.0
C250 C 0.68391 0.34747 0.77713 0.0
C251 C 0.71633 0.38306 0.76333 0.0
C252 C 0.3357 0.64917 0.12625 0.0
C253 C 0.33257 0.61274 0.13916 0.0
C254 C 0.33617 0.69036 0.11134 0.0
C255 C 0.33323 0.72238 0.09713 0.0
C256 C 0.68271 0.34046 0.45955 0.0
C257 C 0.71607 0.33795 0.47266 0.0
C258 C 0.64143 0.33954 0.44455 0.0
C259 C 0.60606 0.33589 0.43048 0.0
C260 C 0.30204 0.64917 0.77404 0.0
C261 C 0.26815 0.61344 0.761 0.0
C262 C 0.34379 0.68935 0.78894 0.0
C263 C 0.37923 0.7212 0.80299 0.0
loop_
_geom_bond_atom_site_label_1
_geom_bond_atom_site_label_2
_geom_bond_distance
_geom_bond_site_symmetry_2
_ccdc_geom_bond_type
C0 O1 1.306 . S
C0 O3 1.160 . S
O1 C0 1.306 . S
O1 Cd2 2.228 . S
Cd2 O1 2.228 . S
Cd2 O6 2.273 . S
Cd2 O10 2.277 . S
O3 C0 1.160 . S
O3 Cd4 2.203 . S
Cd4 O3 2.203 . S
Cd4 O6 2.411 . S
Cd4 O7 2.333 . S
Cd4 O8 2.352 . S
Cd4 O12 2.277 . S
Cd4 O13 2.356 . S
C5 O10 1.209 . S
C5 O12 1.226 . S
O6 Cd2 2.273 . S
O6 Cd4 2.411 . S
O6 C9 1.320 . S
O7 Cd4 2.333 . S
O7 C9 1.214 . S
O8 Cd4 2.352 . S
O8 C11 1.258 . S
C9 O6 1.320 . S
C9 O7 1.214 . S
O10 Cd2 2.277 . S
O10 C5 1.209 . S
C11 O8 1.258 . S
C11 O13 1.282 . S
O12 Cd4 2.277 . S
O12 C5 1.226 . S
O13 Cd4 2.356 . S
O13 C11 1.282 . S
C14 O15 1.306 . S
C14 O17 1.160 . S
O15 C14 1.306 . S
O15 Cd16 2.228 . S
Cd16 O15 2.228 . S
Cd16 O20 2.273 . S
Cd16 O24 2.277 . S
O17 C14 1.160 . S
O17 Cd18 2.203 . S
Cd18 O17 2.203 . S
Cd18 O20 2.411 . S
Cd18 O21 2.333 . S
Cd18 O22 2.352 . S
Cd18 O26 2.277 . S
Cd18 O27 2.356 . S
C19 O24 1.209 . S
C19 O26 1.226 . S
O20 Cd16 2.273 . S
O20 Cd18 2.411 . S
O20 C23 1.320 . S
O21 Cd18 2.333 . S
O21 C23 1.214 . S
O22 Cd18 2.352 . S
O22 C25 1.258 . S
C23 O20 1.320 . S
C23 O21 1.214 . S
O24 Cd16 2.277 . S
O24 C19 1.209 . S
C25 O22 1.258 . S
C25 O27 1.282 . S
O26 Cd18 2.277 . S
O26 C19 1.226 . S
O27 Cd18 2.356 . S
O27 C25 1.282 . S
C28 O29 1.306 . S
C28 O31 1.160 . S
O29 C28 1.306 . S
O29 Cd30 2.228 . S
Cd30 O29 2.228 . S
Cd30 O34 2.273 . S
Cd30 O38 2.277 . S
O31 C28 1.160 . S
O31 Cd32 2.203 . S
Cd32 O31 2.203 . S
Cd32 O34 2.411 . S
Cd32 O35 2.333 . S
Cd32 O36 2.352 . S
Cd32 O40 2.277 . S
Cd32 O41 2.356 . S
C33 O38 1.209 . S
C33 O40 1.226 . S
O34 Cd30 2.273 . S
O34 Cd32 2.411 . S
O34 C37 1.320 . S
O35 Cd32 2.333 . S
O35 C37 1.214 . S
O36 Cd32 2.352 . S
O36 C39 1.258 . S
C37 O34 1.320 . S
C37 O35 1.214 . S
O38 Cd30 2.277 . S
O38 C33 1.209 . S
C39 O36 1.258 . S
C39 O41 1.282 . S
O40 Cd32 2.277 . S
O40 C33 1.226 . S
O41 Cd32 2.356 . S
O41 C39 1.282 . S
C42 O43 1.306 . S
C42 O45 1.160 . S
O43 C42 1.306 . S
O43 Cd44 2.228 . S
Cd44 O43 2.228 . S
Cd44 O48 2.273 . S
Cd44 O52 2.277 . S
O45 C42 1.160 . S
O45 Cd46 2.203 . S
Cd46 O45 2.203 . S
Cd46 O48 2.411 . S
Cd46 O49 2.333 . S
Cd46 O50 2.352 . S
Cd46 O54 2.277 . S
Cd46 O55 2.356 . S
C47 O52 1.209 . S
C47 O54 1.226 . S
O48 Cd44 2.273 . S
O48 Cd46 2.411 . S
O48 C51 1.320 . S
O49 Cd46 2.333 . S
O49 C51 1.214 . S
O50 Cd46 2.352 . S
O50 C53 1.258 . S
C51 O48 1.320 . S
C51 O49 1.214 . S
O52 Cd44 2.277 . S
O52 C47 1.209 . S
C53 O50 1.258 . S
C53 O55 1.282 . S
O54 Cd46 2.277 . S
O54 C47 1.226 . S
O55 Cd46 2.356 . S
O55 C53 1.282 . S
C56 O57 1.306 . S
C56 O59 1.160 . S
O57 C56 1.306 . S
O57 Cd58 2.228 . S
Cd58 O57 2.228 . S
Cd58 O62 2.273 . S
Cd58 O66 2.277 . S
O59 C56 1.160 . S
O59 Cd60 2.203 . S
Cd60 O59 2.203 . S
Cd60 O62 2.411 . S
Cd60 O63 2.333 . S
Cd60 O64 2.352 . S
Cd60 O68 2.277 . S
Cd60 O69 2.356 . S
C61 O66 1.209 . S
C61 O68 1.226 . S
O62 Cd58 2.273 . S
O62 Cd60 2.411 . S
O62 C65 1.320 . S
O63 Cd60 2.333 . S
O63 C65 1.214 . S
O64 Cd60 2.352 . S
O64 C67 1.258 . S
C65 O62 1.320 . S
C65 O63 1.214 . S
O66 Cd58 2.277 . S
O66 C61 1.209 . S
C67 O64 1.258 . S
C67 O69 1.282 . S
O68 Cd60 2.277 . S
O68 C61 1.226 . S
O69 Cd60 2.356 . S
O69 C67 1.282 . S
C70 O71 1.306 . S
C70 O73 1.160 . S
O71 C70 1.306 . S
O71 Cd72 2.228 . S
Cd72 O71 2.228 . S
Cd72 O76 2.273 . S
Cd72 O80 2.277 . S
O73 C70 1.160 . S
O73 Cd74 2.203 . S
Cd74 O73 2.203 . S
Cd74 O76 2.411 . S
Cd74 O77 2.333 . S
Cd74 O78 2.352 . S
Cd74 O82 2.277 . S
Cd74 O83 2.356 . S
C75 O80 1.209 . S
C75 O82 1.226 . S
O76 Cd72 2.273 . S
O76 Cd74 2.411 . S
O76 C79 1.320 . S
O77 Cd74 2.333 . S
O77 C79 1.214 . S
O78 Cd74 2.352 . S
O78 C81 1.258 . S
C79 O76 1.320 . S
C79 O77 1.214 . S
O80 Cd72 2.277 . S
O80 C75 1.209 . S
C81 O78 1.258 . S
C81 O83 1.282 . S
O82 Cd74 2.277 . S
O82 C75 1.226 . S
O83 Cd74 2.356 . S
O83 C81 1.282 . S
C84 O85 1.306 . S
C84 O87 1.160 . S
O85 C84 1.306 . S
O85 Cd86 2.228 . S
Cd86 O85 2.228 . S
Cd86 O90 2.273 . S
Cd86 O94 2.277 . S
O87 C84 1.160 . S
O87 Cd88 2.203 . S
Cd88 O87 2.203 . S
Cd88 O90 2.411 . S
Cd88 O91 2.333 . S
Cd88 O92 2.352 . S
Cd88 O96 2.277 . S
Cd88 O97 2.356 . S
C89 O94 1.209 . S
C89 O96 1.226 . S
O90 Cd86 2.273 . S
O90 Cd88 2.411 . S
O90 C93 1.320 . S
O91 Cd88 2.333 . S
O91 C93 1.214 . S
O92 Cd88 2.352 . S
O92 C95 1.258 . S
C93 O90 1.320 . S
C93 O91 1.214 . S
O94 Cd86 2.277 . S
O94 C89 1.209 . S
C95 O92 1.258 . S
C95 O97 1.282 . S
O96 Cd88 2.277 . S
O96 C89 1.226 . S
O97 Cd88 2.356 . S
O97 C95 1.282 . S
C98 O99 1.306 . S
C98 O101 1.160 . S
O99 C98 1.306 . S
O99 Cd100 2.228 . S
Cd100 O99 2.228 . S
Cd100 O104 2.273 . S
Cd100 O108 2.277 . S
O101 C98 1.160 . S
O101 Cd102 2.203 . S
Cd102 O101 2.203 . S
Cd102 O104 2.411 . S
Cd102 O105 2.333 . S
Cd102 O106 2.352 . S
Cd102 O110 2.277 . S
Cd102 O111 2.356 . S
C103 O108 1.209 . S
C103 O110 1.226 . S
O104 Cd100 2.273 . S
O104 Cd102 2.411 . S
O104 C107 1.320 . S
O105 Cd102 2.333 . S
O105 C107 1.214 . S
O106 Cd102 2.352 . S
O106 C109 1.258 . S
C107 O104 1.320 . S
C107 O105 1.214 . S
O108 Cd100 2.277 . S
O108 C103 1.209 . S
C109 O106 1.258 . S
C109 O111 1.282 . S
O110 Cd102 2.277 . S
O110 C103 1.226 . S
O111 Cd102 2.356 . S
O111 C109 1.282 . S
C112 O113 1.306 . S
C112 O115 1.160 . S
O113 C112 1.306 . S
O113 Cd114 2.228 . S
Cd114 O113 2.228 . S
Cd114 O118 2.273 . S
Cd114 O122 2.277 . S
O115 C112 1.160 . S
O115 Cd116 2.203 . S
Cd116 O115 2.203 . S
Cd116 O118 2.411 . S
Cd116 O119 2.333 . S
Cd116 O120 2.352 . S
Cd116 O124 2.277 . S
Cd116 O125 2.356 . S
C117 O122 1.209 . S
C117 O124 1.226 . S
O118 Cd114 2.273 . S
O118 Cd116 2.411 . S
O118 C121 1.320 . S
O119 Cd116 2.333 . S
O119 C121 1.214 . S
O120 Cd116 2.352 . S
O120 C123 1.258 . S
C121 O118 1.320 . S
C121 O119 1.214 . S
O122 Cd114 2.277 . S
O122 C117 1.209 . S
C123 O120 1.258 . S
C123 O125 1.282 . S
O124 Cd116 2.277 . S
O124 C117 1.226 . S
O125 Cd116 2.356 . S
O125 C123 1.282 . S
C126 O127 1.306 . S
C126 O129 1.160 . S
O127 C126 1.306 . S
O127 Cd128 2.228 . S
Cd128 O127 2.228 . S
Cd128 O132 2.273 . S
Cd128 O136 2.277 . S
O129 C126 1.160 . S
O129 Cd130 2.203 . S
Cd130 O129 2.203 . S
Cd130 O132 2.411 . S
Cd130 O133 2.333 . S
Cd130 O134 2.352 . S
Cd130 O138 2.277 . S
Cd130 O139 2.356 . S
C131 O136 1.209 . S
C131 O138 1.226 . S
O132 Cd128 2.273 . S
O132 Cd130 2.411 . S
O132 C135 1.320 . S
O133 Cd130 2.333 . S
O133 C135 1.214 . S
O134 Cd130 2.352 . S
O134 C137 1.258 . S
C135 O132 1.320 . S
C135 O133 1.214 . S
O136 Cd128 2.277 . S
O136 C131 1.209 . S
C137 O134 1.258 . S
C137 O139 1.282 . S
O138 Cd130 2.277 . S
O138 C131 1.226 . S
O139 Cd130 2.356 . S
O139 C137 1.282 . S
C140 O141 1.306 . S
C140 O143 1.160 . S
O141 C140 1.306 . S
O141 Cd142 2.228 . S
Cd142 O141 2.228 . S
Cd142 O146 2.273 . S
Cd142 O150 2.277 . S
O143 C140 1.160 . S
O143 Cd144 2.203 . S
Cd144 O143 2.203 . S
Cd144 O146 2.411 . S
Cd144 O147 2.333 . S
Cd144 O148 2.352 . S
Cd144 O152 2.277 . S
Cd144 O153 2.356 . S
C145 O150 1.209 . S
C145 O152 1.226 . S
O146 Cd142 2.273 . S
O146 Cd144 2.411 . S
O146 C149 1.320 . S
O147 Cd144 2.333 . S
O147 C149 1.214 . S
O148 Cd144 2.352 . S
O148 C151 1.258 . S
C149 O146 1.320 . S
C149 O147 1.214 . S
O150 Cd142 2.277 . S
O150 C145 1.209 . S
C151 O148 1.258 . S
C151 O153 1.282 . S
O152 Cd144 2.277 . S
O152 C145 1.226 . S
O153 Cd144 2.356 . S
O153 C151 1.282 . S
C154 O155 1.306 . S
C154 O157 1.160 . S
O155 C154 1.306 . S
O155 Cd156 2.228 . S
Cd156 O155 2.228 . S
Cd156 O160 2.273 . S
Cd156 O164 2.277 . S
O157 C154 1.160 . S
O157 Cd158 2.203 . S
Cd158 O157 2.203 . S
Cd158 O160 2.411 . S
Cd158 O161 2.333 . S
Cd158 O162 2.352 . S
Cd158 O166 2.277 . S
Cd158 O167 2.356 . S
C159 O164 1.209 . S
C159 O166 1.226 . S
O160 Cd156 2.273 . S
O160 Cd158 2.411 . S
O160 C163 1.320 . S
O161 Cd158 2.333 . S
O161 C163 1.214 . S
O162 Cd158 2.352 . S
O162 C165 1.258 . S
C163 O160 1.320 . S
C163 O161 1.214 . S
O164 Cd156 2.277 . S
O164 C159 1.209 . S
C165 O162 1.258 . S
C165 O167 1.282 . S
O166 Cd158 2.277 . S
O166 C159 1.226 . S
O167 Cd158 2.356 . S
O167 C165 1.282 . S
C168 C169 1.170 . S
C168 C170 1.380 1_554 S
C169 C168 1.170 . S
C170 C168 1.380 1_556 S
C170 C171 1.170 . S
C171 C170 1.170 . S
C172 C173 1.170 . S
C172 C174 1.380 . S
C173 C172 1.170 . S
C174 C172 1.380 . S
C174 C175 1.170 . S
C175 C174 1.170 . S
C176 C177 1.170 . S
C176 C178 1.380 . S
C177 C176 1.170 . S
C178 C176 1.380 . S
C178 C179 1.170 . S
C179 C178 1.170 . S
C180 C181 1.170 . S
C180 C182 1.380 1_554 S
C181 C180 1.170 . S
C182 C180 1.380 1_556 S
C182 C183 1.170 . S
C183 C182 1.170 . S
C184 C185 1.170 . S
C184 C186 1.380 . S
C185 C184 1.170 . S
C186 C184 1.380 . S
C186 C187 1.170 . S
C187 C186 1.170 . S
C188 C189 1.170 . S
C188 C190 1.380 . S
C189 C188 1.170 . S
C190 C188 1.380 . S
C190 C191 1.170 . S
C191 C190 1.170 . S
C192 C193 1.170 . S
C192 C194 1.380 1_544 S
C193 C192 1.170 . S
C194 C192 1.380 1_566 S
C194 C195 1.170 . S
C195 C194 1.170 . S
C196 C197 1.170 . S
C196 C198 1.380 . S
C197 C196 1.170 . S
C198 C196 1.380 . S
C198 C199 1.170 . S
C199 C198 1.170 . S
C200 C201 1.170 . S
C200 C202 1.380 1_455 S
C201 C200 1.170 . S
C202 C200 1.380 1_655 S
C202 C203 1.170 . S
C203 C202 1.170 . S
C204 C205 1.170 . S
C204 C206 1.380 1_564 S
C205 C204 1.170 . S
C206 C204 1.380 1_546 S
C206 C207 1.170 . S
C207 C206 1.170 . S
C208 C209 1.170 . S
C208 C210 1.380 . S
C209 C208 1.170 . S
C210 C208 1.380 . S
C210 C211 1.170 . S
C211 C210 1.170 . S
C212 C213 1.170 . S
C212 C214 1.380 1_455 S
C213 C212 1.170 . S
C214 C212 1.380 1_655 S
C214 C215 1.170 . S
C215 C214 1.170 . S
C216 C217 1.170 . S
C216 C218 1.380 1_565 S
C217 C216 1.170 . S
C218 C216 1.380 1_545 S
C218 C219 1.170 . S
C219 C218 1.170 . S
C220 C221 1.170 . S
C220 C222 1.380 . S
C221 C220 1.170 . S
C222 C220 1.380 . S
C222 C223 1.170 . S
C223 C222 1.170 . S
C224 C225 1.170 . S
C224 C226 1.380 1_455 S
C225 C224 1.170 . S
C226 C224 1.380 1_655 S
C226 C227 1.170 . S
C227 C226 1.170 . S
C228 C229 1.170 . S
C228 C230 1.380 1_655 S
C229 C228 1.170 . S
C230 C228 1.380 1_455 S
C230 C231 1.170 . S
C231 C230 1.170 . S
C232 C233 1.170 . S
C232 C234 1.380 1_565 S
C233 C232 1.170 . S
C234 C232 1.380 1_545 S
C234 C235 1.170 . S
C235 C234 1.170 . S
C236 C237 1.170 . S
C236 C238 1.380 . S
C237 C236 1.170 . S
C238 C236 1.380 . S
C238 C239 1.170 . S
C239 C238 1.170 . S
C240 C241 1.170 . S
C240 C242 1.380 . S
C241 C240 1.170 . S
C242 C240 1.380 . S
C242 C243 1.170 . S
C243 C242 1.170 . S
C244 C245 1.170 . S
C244 C246 1.380 . S
C245 C244 1.170 . S
C246 C244 1.380 . S
C246 C247 1.170 . S
C247 C246 1.170 . S
C248 C249 1.170 . S
C248 C250 1.380 . S
C249 C248 1.170 . S
C250 C248 1.380 . S
C250 C251 1.170 . S
C251 C250 1.170 . S
C252 C253 1.170 . S
C252 C254 1.380 . S
C253 C252 1.170 . S
C254 C252 1.380 . S
C254 C255 1.170 . S
C255 C254 1.170 . S
C256 C257 1.170 . S
C256 C258 1.380 . S
C257 C256 1.170 . S
C258 C256 1.380 . S
C258 C259 1.170 . S
C259 C258 1.170 . S
C260 C261 1.170 . S
C260 C262 1.380 . S
C261 C260 1.170 . S
C262 C260 1.380 . S
C262 C263 1.170 . S
C263 C262 1.170 . S
C169 C9 2.380 . S
C171 C149 2.371 . S
C173 C163 2.408 . S
C175 C23 2.378 . S
C177 C93 2.370 . S
C179 C37 2.396 . S
C181 C51 2.411 . S
C183 C107 2.405 . S
C185 C65 2.373 . S
C187 C121 2.377 . S
C189 C135 2.413 . S
C191 C79 2.384 . S
C193 C5 1.057 . S
C195 C103 1.046 . S
C197 C117 1.061 . S
C199 C19 1.088 . S
C201 C131 1.065 . S
C203 C33 1.046 . S
C205 C47 1.052 . S
C207 C145 1.081 . S
C209 C159 1.046 . S
C211 C61 1.061 . S
C213 C75 1.046 . S
C215 C89 1.061 . S
C217 C42 2.598 . S
C219 C0 2.631 . S
C221 C56 2.632 . S
C223 C14 2.608 . S
C225 C70 2.631 . S
C227 C28 2.598 . S
C229 C84 2.621 . S
C231 C126 2.624 . S
C233 C98 2.589 . S
C235 C140 2.617 . S
C237 C112 2.592 . S
C239 C154 2.609 . S
C241 C123 1.374 . S
C243 C11 1.382 . S
C245 C137 1.386 . S
C247 C25 1.370 . S
C249 C151 1.368 . S
C251 C39 1.381 . S
C253 C165 1.365 . S
C255 C53 1.387 . S
C257 C95 1.366 . S
C259 C67 1.387 . S
C261 C81 1.365 . S
C263 C109 1.385 . S
