# Generated by pormake.
# Topology rhr, (4)-cn, num edge types: 1
# Building blocks:
#     Node 0, Type 0, BuildingBlock: NAWXER_clean_sbu_0, # of connection points: 4
#     Node 1, Type 0, BuildingBlock: NAWXER_clean_sbu_0, # of connection points: 4
#     Node 2, Type 0, BuildingBlock: NAWXER_clean_sbu_0, # of connection points: 4
#     Node 3, Type 0, BuildingBlock: NAWXER_clean_sbu_0, # of connection points: 4
#     Node 4, Type 0, BuildingBlock: NAWXER_clean_sbu_0, # of connection points: 4
#     Node 5, Type 0, BuildingBlock: NAWXER_clean_sbu_0, # of connection points: 4
#     Node 6, Type 0, BuildingBlock: NAWXER_clean_sbu_0, # of connection points: 4
#     Node 7, Type 0, BuildingBlock: NAWXER_clean_sbu_0, # of connection points: 4
#     Node 8, Type 0, BuildingBlock: NAWXER_clean_sbu_0, # of connection points: 4
#     Node 9, Type 0, BuildingBlock: NAWXER_clean_sbu_0, # of connection points: 4
#     Node 10, Type 0, BuildingBlock: NAWXER_clean_sbu_0, # of connection points: 4
#     Node 11, Type 0, BuildingBlock: NAWXER_clean_sbu_0, # of connection points: 4
#     Node 12, Type 0, BuildingBlock: NAWXER_clean_sbu_0, # of connection points: 4
#     Node 13, Type 0, BuildingBlock: NAWXER_clean_sbu_0, # of connection points: 4
#     Node 14, Type 0, BuildingBlock: NAWXER_clean_sbu_0, # of connection points: 4
#     Node 15, Type 0, BuildingBlock: NAWXER_clean_sbu_0, # of connection points: 4
#     Node 16, Type 0, BuildingBlock: NAWXER_clean_sbu_0, # of connection points: 4
#     Node 17, Type 0, BuildingBlock: NAWXER_clean_sbu_0, # of connection points: 4
#     Node 18, Type 0, BuildingBlock: NAWXER_clean_sbu_0, # of connection points: 4
#     Node 19, Type 0, BuildingBlock: NAWXER_clean_sbu_0, # of connection points: 4
#     Node 20, Type 0, BuildingBlock: NAWXER_clean_sbu_0, # of connection points: 4
#     Node 21, Type 0, BuildingBlock: NAWXER_clean_sbu_0, # of connection points: 4
#     Node 22, Type 0, BuildingBlock: NAWXER_clean_sbu_0, # of connection points: 4
#     Node 23, Type 0, BuildingBlock: NAWXER_clean_sbu_0, # of connection points: 4
#     Edge 24, Type (0, 0), BuildingBlock: TEMPAE_clean_linker_10, # of connection points: 2
#     Edge 25, Type (0, 0), BuildingBlock: TEMPAE_clean_linker_10, # of connection points: 2
#     Edge 26, Type (0, 0), BuildingBlock: TEMPAE_clean_linker_10, # of connection points: 2
#     Edge 27, Type (0, 0), BuildingBlock: TEMPAE_clean_linker_10, # of connection points: 2
#     Edge 28, Type (0, 0), BuildingBlock: TEMPAE_clean_linker_10, # of connection points: 2
#     Edge 29, Type (0, 0), BuildingBlock: TEMPAE_clean_linker_10, # of connection points: 2
#     Edge 30, Type (0, 0), BuildingBlock: TEMPAE_clean_linker_10, # of connection points: 2
#     Edge 31, Type (0, 0), BuildingBlock: TEMPAE_clean_linker_10, # of connection points: 2
#     Edge 32, Type (0, 0), BuildingBlock: TEMPAE_clean_linker_10, # of connection points: 2
#     Edge 33, Type (0, 0), BuildingBlock: TEMPAE_clean_linker_10, # of connection points: 2
#     Edge 34, Type (0, 0), BuildingBlock: TEMPAE_clean_linker_10, # of connection points: 2
#     Edge 35, Type (0, 0), BuildingBlock: TEMPAE_clean_linker_10, # of connection points: 2
#     Edge 36, Type (0, 0), BuildingBlock: TEMPAE_clean_linker_10, # of connection points: 2
#     Edge 37, Type (0, 0), BuildingBlock: TEMPAE_clean_linker_10, # of connection points: 2
#     Edge 38, Type (0, 0), BuildingBlock: TEMPAE_clean_linker_10, # of connection points: 2
#     Edge 39, Type (0, 0), BuildingBlock: TEMPAE_clean_linker_10, # of connection points: 2
#     Edge 40, Type (0, 0), BuildingBlock: TEMPAE_clean_linker_10, # of connection points: 2
#     Edge 41, Type (0, 0), BuildingBlock: TEMPAE_clean_linker_10, # of connection points: 2
#     Edge 42, Type (0, 0), BuildingBlock: TEMPAE_clean_linker_10, # of connection points: 2
#     Edge 43, Type (0, 0), BuildingBlock: TEMPAE_clean_linker_10, # of connection points: 2
#     Edge 44, Type (0, 0), BuildingBlock: TEMPAE_clean_linker_10, # of connection points: 2
#     Edge 45, Type (0, 0), BuildingBlock: TEMPAE_clean_linker_10, # of connection points: 2
#     Edge 46, Type (0, 0), BuildingBlock: TEMPAE_clean_linker_10, # of connection points: 2
#     Edge 47, Type (0, 0), BuildingBlock: TEMPAE_clean_linker_10, # of connection points: 2
#     Edge 48, Type (0, 0), BuildingBlock: TEMPAE_clean_linker_10, # of connection points: 2
#     Edge 49, Type (0, 0), BuildingBlock: TEMPAE_clean_linker_10, # of connection points: 2
#     Edge 50, Type (0, 0), BuildingBlock: TEMPAE_clean_linker_10, # of connection points: 2
#     Edge 51, Type (0, 0), BuildingBlock: TEMPAE_clean_linker_10, # of connection points: 2
#     Edge 52, Type (0, 0), BuildingBlock: TEMPAE_clean_linker_10, # of connection points: 2
#     Edge 53, Type (0, 0), BuildingBlock: TEMPAE_clean_linker_10, # of connection points: 2
#     Edge 54, Type (0, 0), BuildingBlock: TEMPAE_clean_linker_10, # of connection points: 2
#     Edge 55, Type (0, 0), BuildingBlock: TEMPAE_clean_linker_10, # of connection points: 2
#     Edge 56, Type (0, 0), BuildingBlock: TEMPAE_clean_linker_10, # of connection points: 2
#     Edge 57, Type (0, 0), BuildingBlock: TEMPAE_clean_linker_10, # of connection points: 2
#     Edge 58, Type (0, 0), BuildingBlock: TEMPAE_clean_linker_10, # of connection points: 2
#     Edge 59, Type (0, 0), BuildingBlock: TEMPAE_clean_linker_10, # of connection points: 2
#     Edge 60, Type (0, 0), BuildingBlock: TEMPAE_clean_linker_10, # of connection points: 2
#     Edge 61, Type (0, 0), BuildingBlock: TEMPAE_clean_linker_10, # of connection points: 2
#     Edge 62, Type (0, 0), BuildingBlock: TEMPAE_clean_linker_10, # of connection points: 2
#     Edge 63, Type (0, 0), BuildingBlock: TEMPAE_clean_linker_10, # of connection points: 2
#     Edge 64, Type (0, 0), BuildingBlock: TEMPAE_clean_linker_10, # of connection points: 2
#     Edge 65, Type (0, 0), BuildingBlock: TEMPAE_clean_linker_10, # of connection points: 2
#     Edge 66, Type (0, 0), BuildingBlock: TEMPAE_clean_linker_10, # of connection points: 2
#     Edge 67, Type (0, 0), BuildingBlock: TEMPAE_clean_linker_10, # of connection points: 2
#     Edge 68, Type (0, 0), BuildingBlock: TEMPAE_clean_linker_10, # of connection points: 2
#     Edge 69, Type (0, 0), BuildingBlock: TEMPAE_clean_linker_10, # of connection points: 2
#     Edge 70, Type (0, 0), BuildingBlock: TEMPAE_clean_linker_10, # of connection points: 2
#     Edge 71, Type (0, 0), BuildingBlock: TEMPAE_clean_linker_10, # of connection points: 2
# Relax obj value: 0.003
# Max RMSD: 0.009
# Mean RMSD: 0.009
data_MOF--net-rhr--node1-NAWXER_clean_sbu_0--edge1-TEMPAE_clean_linker_10
_symmetry_space_group_name_H-M    P1
_symmetry_Int_Tables_number       1
_symmetry_cell_setting            triclinic
loop_
_symmetry_equiv_pos_as_xyz
'x, y, z'
_cell_length_a     50.974746
_cell_length_b     51.023245
_cell_length_c     50.955612
_cell_angle_alpha  89.97779
_cell_angle_beta   89.931838
_cell_angle_gamma 90.253377
loop_
_atom_site_label
_atom_site_type_symbol
_atom_site_fract_x
_atom_site_fract_y
_atom_site_fract_z
_atom_type_partial_charge
C0 C 0.31751 0.03886 0.3478 0.0
C1 C 0.36993 0.96814 0.30767 0.0
O2 O 0.31425 0.02993 0.32465 0.0
Zn3 Zn 0.34163 1.00284 0.32708 0.0
O4 O 0.33536 0.02908 0.36242 0.0
Zn5 Zn 0.36511 0.99995 0.36202 0.0
O6 O 0.39563 0.02266 0.36659 0.0
O7 O 0.37571 0.02738 0.32831 0.0
O8 O 0.3772 0.9742 0.33101 0.0
O9 O 0.34973 0.97912 0.29806 0.0
O10 O 0.32525 0.97835 0.35707 0.0
O11 O 0.35277 0.97742 0.39037 0.0
C12 C 0.39423 0.03354 0.34415 0.0
C13 C 0.33093 0.97065 0.38032 0.0
C14 C 0.06431 0.35621 0.31903 0.0
C15 C 0.98467 0.30791 0.34683 0.0
O16 O 0.05526 0.33567 0.308 0.0
Zn17 Zn 0.02384 0.33082 0.33013 0.0
O18 O 0.05177 0.36627 0.33827 0.0
Zn19 Zn 0.01767 0.36022 0.36088 0.0
O20 O 0.0322 0.35348 0.39606 0.0
O21 O 0.03941 0.32171 0.36742 0.0
O22 O 0.98996 0.32907 0.35926 0.0
O23 O 0.99912 0.30108 0.32752 0.0
O24 O 0.99926 0.36225 0.31937 0.0
O25 O 0.99581 0.3905 0.35198 0.0
C26 C 0.04113 0.33077 0.39076 0.0
C27 C 0.98981 0.38347 0.32874 0.0
C28 C 0.68008 0.96839 0.2861 0.0
C29 C 0.73022 0.0206 0.34913 0.0
O30 O 0.6672 0.97358 0.30711 0.0
Zn31 Zn 0.67294 0.99483 0.34334 0.0
O32 O 0.70374 0.97614 0.28388 0.0
Zn33 Zn 0.705 0.99435 0.31712 0.0
O34 O 0.70351 0.96216 0.34485 0.0
O35 O 0.66833 0.96787 0.36945 0.0
O36 O 0.73687 0.01305 0.32635 0.0
O37 O 0.70705 0.0153 0.35751 0.0
O38 O 0.64587 0.02111 0.34 0.0
O39 O 0.67611 0.02418 0.30923 0.0
C40 C 0.68851 0.95452 0.36366 0.0
C41 C 0.65421 0.03176 0.31902 0.0
C42 C 0.02833 0.64628 0.33169 0.0
C43 C 0.96977 0.69524 0.39086 0.0
O44 O 0.02141 0.63855 0.35448 0.0
Zn45 Zn 0.99895 0.66868 0.36315 0.0
O46 O 0.01952 0.66794 0.3228 0.0
Zn47 Zn 0.99513 0.69937 0.33314 0.0
O48 O 0.02084 0.72834 0.33381 0.0
O49 O 0.02637 0.69963 0.36584 0.0
O50 O 0.97412 0.70572 0.36843 0.0
O51 O 0.98039 0.67338 0.39659 0.0
O52 O 0.9674 0.6637 0.33671 0.0
O53 O 0.9663 0.69571 0.30763 0.0
C54 C 0.03315 0.7208 0.35421 0.0
C55 C 0.95661 0.67451 0.31682 0.0
C56 C 0.32944 0.03054 0.64028 0.0
C57 C 0.38489 0.96354 0.68038 0.0
O58 O 0.35182 0.02277 0.63254 0.0
Zn59 Zn 0.3585 0.99785 0.66038 0.0
O60 O 0.3196 0.02104 0.66145 0.0
Zn61 Zn 0.32999 0.99271 0.69082 0.0
O62 O 0.3331 0.0134 0.72288 0.0
O63 O 0.36471 0.02162 0.69447 0.0
O64 O 0.3636 0.96795 0.69297 0.0
O65 O 0.39036 0.97696 0.66001 0.0
O66 O 0.32921 0.96851 0.653 0.0
O67 O 0.30275 0.96604 0.68731 0.0
C68 C 0.35405 0.02568 0.7169 0.0
C69 C 0.30949 0.95801 0.66464 0.0
C70 C 0.07282 0.34214 0.70277 0.0
C71 C 0.01628 0.28271 0.65177 0.0
O72 O 0.06095 0.35272 0.68334 0.0
Zn73 Zn 0.0336 0.34317 0.65311 0.0
O74 O 0.06866 0.31804 0.7081 0.0
Zn75 Zn 0.04385 0.31181 0.67952 0.0
O76 O 0.06961 0.31754 0.64673 0.0
O77 O 0.05492 0.34998 0.62195 0.0
O78 O 0.02848 0.27713 0.6728 0.0
O79 O 0.01674 0.30632 0.64325 0.0
O80 O 1.00417 0.36566 0.66281 0.0
O81 O 0.0119 0.33539 0.69261 0.0
C82 C 0.07196 0.3324 0.62658 0.0
C83 C 0.99889 0.35543 0.685 0.0
C84 C 0.63366 0.07058 0.68666 0.0
C85 C 0.68795 1.00086 0.65047 0.0
O86 O 0.62806 0.05611 0.66711 0.0
Zn87 Zn 0.65898 0.03426 0.66885 0.0
O88 O 0.65458 0.06628 0.69989 0.0
Zn89 Zn 0.68727 0.0402 0.69967 0.0
O90 O 0.71639 0.06479 0.69443 0.0
O91 O 0.68964 0.06165 0.66054 0.0
O92 O 0.69724 0.01104 0.67149 0.0
O93 O 0.6657 1.00821 0.64198 0.0
O94 O 0.65207 0.01144 0.70318 0.0
O95 O 0.68313 0.01984 0.73206 0.0
C96 C 0.71016 0.07156 0.67118 0.0
C97 C 0.66233 1.00748 0.72577 0.0
C98 C 0.95604 0.63543 0.68511 0.0
C99 C 0.02078 0.69825 0.65141 0.0
O100 O 0.96934 0.63313 0.66407 0.0
Zn101 Zn 0.99032 0.66471 0.66917 0.0
O102 O 0.96042 0.6549 0.70042 0.0
Zn103 Zn 0.98457 0.68941 0.7024 0.0
O104 O 0.95687 0.71556 0.70284 0.0
O105 O 0.96009 0.69359 0.66557 0.0
O106 O 0.01119 0.70528 0.67361 0.0
O107 O 0.01487 0.67582 0.64226 0.0
O108 O 0.01331 0.65407 0.70285 0.0
O109 O 1.00537 0.68307 0.73381 0.0
C110 C 0.94901 0.71128 0.67951 0.0
C111 C 0.01705 0.66242 0.72631 0.0
C112 C 0.31304 0.3629 0.05583 0.0
C113 C 0.351 0.32927 0.97559 0.0
O114 O 0.3339 0.37092 0.04463 0.0
Zn115 Zn 0.3346 0.34463 0.01757 0.0
O116 O 0.30172 0.34195 0.04772 0.0
Zn117 Zn 0.30567 0.314 0.01686 0.0
O118 O 0.31436 0.28125 0.03538 0.0
O119 O 0.34653 0.31004 0.03757 0.0
O120 O 0.33158 0.31538 0.98372 0.0
O121 O 0.35972 0.34796 0.9896 0.0
O122 O 0.29844 0.3538 0.99819 0.0
O123 O 0.27161 0.31975 0.99957 0.0
C124 C 0.33731 0.28732 0.04315 0.0
C125 C 0.2761 0.34348 0.99294 0.0
C126 C 0.67328 0.38079 0.05536 0.0
C127 C 0.62941 0.33187 0.98397 0.0
O128 O 0.6847 0.3595 0.04862 0.0
Zn129 Zn 0.68092 0.32879 0.02043 0.0
O130 O 0.65331 0.38855 0.04256 0.0
Zn131 Zn 0.65106 0.35873 0.01819 0.0
O132 O 0.64324 0.32705 0.04425 0.0
O133 O 0.676 0.29882 0.04391 0.0
O134 O 0.62199 0.35379 0.99335 0.0
O135 O 0.65064 0.32152 0.99242 0.0
O136 O 0.71191 0.33268 0.99809 0.0
O137 O 0.68382 0.36504 0.9931 0.0
C138 C 0.65354 0.3057 0.05242 0.0
C139 C 0.70555 0.35408 0.98699 0.0
C140 C 0.6711 0.70733 0.01425 0.0
C141 C 0.73291 0.65519 0.9599 0.0
O142 O 0.69324 0.71514 1.00554 0.0
Zn143 Zn 0.70326 0.6833 0.98589 0.0
O144 O 0.6632 0.68416 1.00859 0.0
Zn145 Zn 0.67584 0.6506 0.98737 0.0
O146 O 0.67972 0.62422 0.0146 0.0
O147 O 0.70953 0.65575 0.01622 0.0
O148 O 0.71141 0.64377 0.96629 0.0
O149 O 0.73662 0.67906 0.96646 0.0
O150 O 0.67579 0.68147 0.95477 0.0
O151 O 0.64935 0.64739 0.96016 0.0
C152 C 0.70014 0.63419 0.02507 0.0
C153 C 0.65661 0.66725 0.94685 0.0
C154 C 0.30438 0.67136 0.98179 0.0
C155 C 0.35073 0.73543 0.03637 0.0
O156 O 0.32665 0.66323 0.99003 0.0
Zn157 Zn 0.35815 0.67683 0.01406 0.0
O158 O 0.29642 0.69396 0.98853 0.0
Zn159 Zn 0.32624 0.70374 0.01019 0.0
O160 O 0.35707 0.70828 0.98186 0.0
O161 O 0.38772 0.67894 0.98958 0.0
O162 O 0.32795 0.7382 0.02654 0.0
O163 O 0.36288 0.7137 0.03335 0.0
O164 O 0.35782 0.65179 0.04302 0.0
O165 O 0.32336 0.67775 0.0434 0.0
C166 C 0.37939 0.69829 0.97621 0.0
C167 C 0.33643 0.65892 0.05369 0.0
C168 C 0.84755 0.50836 0.78108 0.0
C169 C 0.81014 0.45123 0.84907 0.0
O170 O 0.86171 0.50568 0.80164 0.0
Zn171 Zn 0.86135 0.4865 0.83875 0.0
O172 O 0.82477 0.49803 0.78017 0.0
Zn173 Zn 0.8273 0.48079 0.81448 0.0
O174 O 0.82517 0.5137 0.84056 0.0
O175 O 0.86179 0.51593 0.8634 0.0
O176 O 0.79985 0.45731 0.82718 0.0
O177 O 0.83261 0.46079 0.85514 0.0
O178 O 0.892 0.46419 0.83352 0.0
O179 O 0.85944 0.45492 0.80653 0.0
C180 C 0.83928 0.52516 0.85799 0.0
C181 C 0.88297 0.45087 0.81437 0.0
C182 C 0.49359 0.81056 0.85838 0.0
C183 C 0.56342 0.86622 0.82179 0.0
O184 O 0.50178 0.80237 0.83603 0.0
Zn185 Zn 0.5302 0.81421 0.80676 0.0
O186 O 0.5027 0.83192 0.8675 0.0
Zn187 Zn 0.52787 0.83916 0.83982 0.0
O188 O 0.50445 0.85081 0.80692 0.0
O189 O 0.50958 0.82121 0.77585 0.0
O190 O 0.55121 0.86901 0.84337 0.0
O191 O 0.55768 0.84674 0.80687 0.0
O192 O 0.55261 0.78389 0.80644 0.0
O193 O 0.55353 0.8061 0.84362 0.0
C194 C 0.49945 0.84252 0.78368 0.0
C195 C 0.56088 0.7864 0.82983 0.0
C196 C 0.1229 0.54372 0.84458 0.0
C197 C 0.16707 0.47412 0.89505 0.0
O198 O 0.14559 0.53758 0.83568 0.0
Zn199 Zn 0.17699 0.51144 0.84488 0.0
O200 O 0.11423 0.53224 0.86504 0.0
Zn201 Zn 0.14452 0.50965 0.87151 0.0
O202 O 0.17491 0.53682 0.88221 0.0
O203 O 0.20583 0.53515 0.85195 0.0
O204 O 0.14518 0.48463 0.9008 0.0
O205 O 0.18016 0.48277 0.87536 0.0
O206 O 0.1782 0.48875 0.81442 0.0
O207 O 0.14268 0.48336 0.83874 0.0
C208 C 0.1971 0.54474 0.87324 0.0
C209 C 0.15655 0.477 0.81875 0.0
C210 C 0.4544 0.157 0.825 0.0
C211 C 0.52045 0.2146 0.86592 0.0
O212 O 0.45884 0.17819 0.81214 0.0
Zn213 Zn 0.48384 0.21227 0.81439 0.0
O214 O 0.46714 0.15256 0.846 0.0
Zn215 Zn 0.48833 0.18441 0.84558 0.0
O216 O 0.45995 0.21416 0.85175 0.0
O217 O 0.45856 0.24049 0.81735 0.0
O218 O 0.51296 0.1921 0.87379 0.0
O219 O 0.51145 0.22359 0.84422 0.0
O220 O 0.505 0.20869 0.78286 0.0
O221 O 0.51227 0.17772 0.81213 0.0
C222 C 0.45048 0.23431 0.84019 0.0
C223 C 0.51673 0.18777 0.78951 0.0
C224 C 0.7847 0.47692 0.1862 0.0
C225 C 0.83483 0.54925 0.2271 0.0
O226 O 0.77841 0.48861 0.20739 0.0
Zn227 Zn 0.80947 0.51172 0.20987 0.0
O228 O 0.8069 0.48204 0.17556 0.0
Zn229 Zn 0.83946 0.50766 0.17995 0.0
O230 O 0.86916 0.48534 0.18718 0.0
O231 O 0.84145 0.48694 0.22048 0.0
O232 O 0.84568 0.53848 0.2072 0.0
O233 O 0.81292 0.54043 0.23548 0.0
O234 O 0.80401 0.53367 0.17506 0.0
O235 O 0.83646 0.52693 0.14709 0.0
C236 C 0.86307 0.47884 0.21052 0.0
C237 C 0.81476 0.53789 0.15275 0.0
C238 C 0.55984 0.88983 0.15427 0.0
C239 C 0.48056 0.85614 0.11219 0.0
O240 O 0.54772 0.90046 0.13524 0.0
Zn241 Zn 0.52074 0.87354 0.13175 0.0
O242 O 0.55129 0.8683 0.16406 0.0
Zn243 Zn 0.52023 0.8409 0.15853 0.0
O244 O 0.53975 0.80925 0.14883 0.0
O245 O 0.54301 0.84027 0.11892 0.0
O246 O 0.48875 0.84204 0.13125 0.0
O247 O 0.49366 0.87611 0.10483 0.0
O248 O 0.4985 0.87947 0.1672 0.0
O249 O 0.50057 0.84378 0.19155 0.0
C250 C 0.54894 0.81723 0.12698 0.0
C251 C 0.49213 0.86702 0.18815 0.0
C252 C 0.23287 0.55476 0.18651 0.0
C253 C 0.18601 0.48609 0.23719 0.0
O254 O 0.23989 0.54606 0.20887 0.0
Zn255 Zn 0.21021 0.52164 0.21484 0.0
O256 O 0.21101 0.54707 0.17679 0.0
Zn257 Zn 0.17964 0.52098 0.18495 0.0
O258 O 0.14903 0.54288 0.19025 0.0
O259 O 0.17728 0.5458 0.22295 0.0
O260 O 0.17472 0.49402 0.21626 0.0
O261 O 0.20788 0.49622 0.24408 0.0
O262 O 0.21557 0.49497 0.18365 0.0
O263 O 0.18281 0.49695 0.15533 0.0
C264 C 0.15518 0.55192 0.21271 0.0
C265 C 0.20452 0.487 0.16258 0.0
C266 C 0.53307 0.21074 0.17678 0.0
C267 C 0.47167 0.17513 0.24109 0.0
O268 O 0.5231 0.18869 0.16987 0.0
Zn269 Zn 0.49475 0.16106 0.18409 0.0
O270 O 0.52508 0.22175 0.19769 0.0
Zn271 Zn 0.50009 0.19502 0.2081 0.0
O272 O 0.52582 0.16291 0.21608 0.0
O273 O 0.51673 0.13004 0.18944 0.0
O274 O 0.48302 0.19734 0.24206 0.0
O275 O 0.47406 0.16066 0.2207 0.0
O276 O 0.46748 0.16187 0.15721 0.0
O277 O 0.46906 0.19866 0.17977 0.0
C278 C 0.53025 0.13948 0.20827 0.0
C279 C 0.45878 0.18482 0.16139 0.0
C280 C 0.81658 0.79827 0.56939 0.0
C281 C 0.77754 0.83441 0.48895 0.0
O282 O 0.79633 0.78892 0.55801 0.0
Zn283 Zn 0.79648 0.81354 0.52838 0.0
O284 O 0.82896 0.81755 0.55905 0.0
Zn285 Zn 0.82769 0.84264 0.52602 0.0
O286 O 0.82321 0.87661 0.54278 0.0
O287 O 0.78944 0.84973 0.54802 0.0
O288 O 0.79889 0.84534 0.49642 0.0
O289 O 0.76899 0.81439 0.50129 0.0
O290 O 0.83053 0.80116 0.50782 0.0
O291 O 0.8597 0.8332 0.5074 0.0
C292 C 0.80046 0.87197 0.55214 0.0
C293 C 0.85325 0.80985 0.50134 0.0
C294 C 0.21045 0.83346 0.55146 0.0
C295 C 0.16676 0.7993 0.47183 0.0
O296 O 0.21776 0.81285 0.53934 0.0
Zn297 Zn 0.1902 0.81367 0.51206 0.0
O298 O 0.19074 0.84635 0.54297 0.0
Zn299 Zn 0.16249 0.8467 0.51287 0.0
O300 O 0.12966 0.84143 0.53291 0.0
O301 O 0.15608 0.80733 0.53484 0.0
O302 O 0.15746 0.82047 0.48142 0.0
O303 O 0.18565 0.78784 0.48349 0.0
O304 O 0.20204 0.84735 0.4909 0.0
O305 O 0.17293 0.87907 0.49418 0.0
C306 C 0.13468 0.81852 0.54155 0.0
C307 C 0.19477 0.87065 0.48533 0.0
C308 C 0.19992 0.22916 0.52882 0.0
C309 C 0.22554 0.17353 0.45463 0.0
O310 O 0.21879 0.23369 0.51302 0.0
Zn311 Zn 0.21501 0.20128 0.49282 0.0
O312 O 0.18715 0.20756 0.52711 0.0
Zn313 Zn 0.18476 0.17377 0.50272 0.0
O314 O 0.19273 0.14507 0.52612 0.0
O315 O 0.22683 0.17108 0.51974 0.0
O316 O 0.20633 0.16426 0.46805 0.0
O317 O 0.23656 0.1947 0.46199 0.0
O318 O 0.17721 0.20889 0.47627 0.0
O319 O 0.14913 0.17878 0.49027 0.0
C320 C 0.2166 0.15077 0.53062 0.0
C321 C 0.15384 0.19963 0.47733 0.0
C322 C 0.90569 0.16838 0.53504 0.0
C323 C 0.8504 0.1211 0.47118 0.0
O324 O 0.91043 0.14594 0.52521 0.0
Zn325 Zn 0.87927 0.14384 0.50282 0.0
O326 O 0.88526 0.18094 0.52766 0.0
Zn327 Zn 0.85246 0.17609 0.5019 0.0
O328 O 0.82362 0.17766 0.52668 0.0
O329 O 0.84825 0.14247 0.53134 0.0
O330 O 0.84186 0.1438 0.47754 0.0
O331 O 0.87158 0.11281 0.4814 0.0
O332 O 0.88777 0.17311 0.4738 0.0
O333 O 0.85717 0.20355 0.47601 0.0
C334 C 0.8286 0.15633 0.53859 0.0
C335 C 0.87784 0.19456 0.46538 0.0
C336 C 0.26034 0.16384 0.42102 0.0
C337 C 0.23573 0.15822 0.43205 0.0
C338 C 0.27189 0.14669 0.40276 0.0
C339 C 0.25848 0.12343 0.39539 0.0
C340 C 0.23273 0.11886 0.4048 0.0
C341 C 0.22171 0.13626 0.42301 0.0
C342 C 0.29931 0.15239 0.39308 0.0
C343 C 0.21764 0.09442 0.39743 0.0
C344 C 0.28713 0.07771 0.34325 0.0
C345 C 0.30109 0.06005 0.359 0.0
C346 C 0.27315 0.09866 0.35466 0.0
C347 C 0.27302 0.10172 0.38234 0.0
C348 C 0.28668 0.08358 0.39819 0.0
C349 C 0.30049 0.06313 0.38637 0.0
C350 C 0.25885 0.11768 0.33717 0.0
C351 C 0.28685 0.08577 0.4278 0.0
H352 H 0.27125 0.18086 0.42769 0.0
H353 H 0.20248 0.13193 0.43107 0.0
H354 H 0.31335 0.13934 0.40328 0.0
H355 H 0.30093 0.14841 0.37174 0.0
H356 H 0.30522 0.17304 0.39684 0.0
H357 H 0.19654 0.09589 0.40269 0.0
H358 H 0.21929 0.09047 0.3761 0.0
H359 H 0.22604 0.07736 0.40794 0.0
H360 H 0.28761 0.0755 0.32211 0.0
H361 H 0.31094 0.04944 0.39877 0.0
H362 H 0.26728 0.13761 0.33961 0.0
H363 H 0.23789 0.11874 0.34293 0.0
H364 H 0.26009 0.11212 0.31613 0.0
H365 H 0.29529 0.10493 0.43377 0.0
H366 H 0.29839 0.06996 0.43726 0.0
H367 H 0.26648 0.08486 0.43547 0.0
C368 C 0.95897 0.26534 0.34846 0.0
C369 C 0.9639 0.29067 0.35801 0.0
C370 C 0.94218 0.24805 0.3622 0.0
C371 C 0.93079 0.25612 0.3863 0.0
C372 C 0.93473 0.28205 0.39522 0.0
C373 C 0.95076 0.29903 0.38077 0.0
C374 C 0.93757 0.22086 0.35154 0.0
C375 C 0.92353 0.29144 0.42105 0.0
C376 C 0.87651 0.22251 0.42496 0.0
C377 C 0.89101 0.20879 0.44379 0.0
C378 C 0.88919 0.23627 0.40462 0.0
C379 C 0.91698 0.23718 0.40383 0.0
C380 C 0.93163 0.22284 0.42254 0.0
C381 C 0.91844 0.20845 0.44199 0.0
C382 C 0.87289 0.25051 0.38448 0.0
C383 C 0.96126 0.22392 0.42301 0.0
H384 H 0.96885 0.25874 0.33083 0.0
H385 H 0.95406 0.31863 0.3883 0.0
H386 H 0.94932 0.20657 0.36291 0.0
H387 H 0.91662 0.21518 0.35359 0.0
H388 H 0.94331 0.21934 0.33056 0.0
H389 H 0.92791 0.31245 0.42483 0.0
H390 H 0.90196 0.28868 0.42142 0.0
H391 H 0.93181 0.2797 0.43737 0.0
H392 H 0.85527 0.22237 0.42606 0.0
H393 H 0.92966 0.1978 0.45655 0.0
H394 H 0.88077 0.24711 0.36446 0.0
H395 H 0.87374 0.2719 0.38824 0.0
H396 H 0.85201 0.2442 0.38503 0.0
H397 H 0.96935 0.21854 0.40355 0.0
H398 H 0.96972 0.21063 0.43802 0.0
H399 H 0.96784 0.24424 0.42732 0.0
C400 C 0.73924 0.83643 0.45741 0.0
C401 C 0.76224 0.84742 0.46786 0.0
C402 C 0.72424 0.85024 0.43872 0.0
C403 C 0.73221 0.87573 0.43084 0.0
C404 C 0.75554 0.88667 0.44116 0.0
C405 C 0.7703 0.87234 0.45922 0.0
C406 C 0.69975 0.83775 0.42768 0.0
C407 C 0.76471 0.9139 0.43363 0.0
C408 C 0.71324 0.91268 0.36942 0.0
C409 C 0.69588 0.93138 0.37956 0.0
C410 C 0.72328 0.89265 0.38538 0.0
C411 C 0.71632 0.8917 0.41228 0.0
C412 C 0.69749 0.90953 0.42217 0.0
C413 C 0.6873 0.929 0.40561 0.0
C414 C 0.7428 0.87368 0.37387 0.0
C415 C 0.68982 0.90953 0.4508 0.0
H416 H 0.73287 0.81721 0.46394 0.0
H417 H 0.78796 0.8812 0.46716 0.0
H418 H 0.68228 0.84899 0.43403 0.0
H419 H 0.70025 0.8383 0.40592 0.0
H420 H 0.69735 0.81709 0.43416 0.0
H421 H 0.78314 0.91967 0.44376 0.0
H422 H 0.76809 0.915 0.41216 0.0
H423 H 0.74935 0.92844 0.43857 0.0
H424 H 0.71964 0.91416 0.34917 0.0
H425 H 0.67385 0.94336 0.41355 0.0
H426 H 0.73885 0.85346 0.3809 0.0
H427 H 0.76287 0.87916 0.38033 0.0
H428 H 0.7424 0.87378 0.35207 0.0
H429 H 0.68549 0.88935 0.45766 0.0
H430 H 0.67242 0.92202 0.45461 0.0
H431 H 0.70644 0.9171 0.46267 0.0
C432 C 0.15423 0.76173 0.44213 0.0
C433 C 0.15395 0.78855 0.44799 0.0
C434 C 0.13756 0.75137 0.42261 0.0
C435 C 0.12029 0.76825 0.40884 0.0
C436 C 0.12173 0.79558 0.41316 0.0
C437 C 0.13856 0.80535 0.43256 0.0
C438 C 0.13697 0.72215 0.41818 0.0
C439 C 0.10376 0.81436 0.39906 0.0
C440 C 0.07714 0.7431 0.35276 0.0
C441 C 0.05423 0.73638 0.36644 0.0
C442 C 0.09906 0.75342 0.3662 0.0
C443 C 0.0977 0.7573 0.39376 0.0
C444 C 0.07414 0.75135 0.4073 0.0
C445 C 0.05287 0.74076 0.39352 0.0
C446 C 0.12391 0.75925 0.35116 0.0
C447 C 0.07147 0.75571 0.43653 0.0
H448 H 0.16619 0.74866 0.45382 0.0
H449 H 0.13861 0.82622 0.43658 0.0
H450 H 0.11912 0.71373 0.42745 0.0
H451 H 0.13606 0.71764 0.3969 0.0
H452 H 0.15441 0.71237 0.42674 0.0
H453 H 0.10995 0.83509 0.4017 0.0
H454 H 0.10308 0.80995 0.37776 0.0
H455 H 0.08354 0.81212 0.40686 0.0
H456 H 0.07834 0.73912 0.3319 0.0
H457 H 0.03516 0.73533 0.40407 0.0
H458 H 0.13962 0.74577 0.35771 0.0
H459 H 0.13078 0.7795 0.35524 0.0
H460 H 0.12125 0.75693 0.32965 0.0
H461 H 0.08603 0.74362 0.44719 0.0
H462 H 0.05158 0.75061 0.44392 0.0
H463 H 0.07557 0.77653 0.44135 0.0
C464 C 0.21269 0.86433 0.58902 0.0
C465 C 0.2249 0.84466 0.57414 0.0
C466 C 0.22684 0.87976 0.60676 0.0
C467 C 0.25391 0.8751 0.61032 0.0
C468 C 0.26589 0.85366 0.59729 0.0
C469 C 0.25126 0.83873 0.57912 0.0
C470 C 0.21323 0.90254 0.61987 0.0
C471 C 0.29453 0.84756 0.60125 0.0
C472 C 0.29363 0.93659 0.62384 0.0
C473 C 0.29523 0.93655 0.65128 0.0
C474 C 0.28083 0.91634 0.61032 0.0
C475 C 0.26997 0.89503 0.62454 0.0
C476 C 0.27225 0.89444 0.65226 0.0
C477 C 0.28449 0.91548 0.66538 0.0
C478 C 0.27821 0.91824 0.58084 0.0
C479 C 0.26162 0.8717 0.66801 0.0
H480 H 0.19217 0.86875 0.58572 0.0
H481 H 0.2608 0.82346 0.56787 0.0
H482 H 0.21719 0.90265 0.64125 0.0
H483 H 0.22097 0.92121 0.61171 0.0
H484 H 0.19165 0.90206 0.61686 0.0
H485 H 0.29953 0.82763 0.59408 0.0
H486 H 0.30666 0.86201 0.59033 0.0
H487 H 0.29988 0.84908 0.6223 0.0
H488 H 0.30195 0.95287 0.6129 0.0
H489 H 0.28616 0.91519 0.68659 0.0
H490 H 0.25715 0.91899 0.57539 0.0
H491 H 0.28668 0.90062 0.57139 0.0
H492 H 0.28817 0.93588 0.57272 0.0
H493 H 0.23989 0.87136 0.6669 0.0
H494 H 0.26743 0.87281 0.68899 0.0
H495 H 0.26872 0.85291 0.65971 0.0
C496 C 0.0911 0.31975 0.58345 0.0
C497 C 0.09469 0.32821 0.6093 0.0
C498 C 0.11194 0.30835 0.56945 0.0
C499 C 0.13686 0.30582 0.58159 0.0
C500 C 0.14108 0.31696 0.60667 0.0
C501 C 0.1198 0.32762 0.62041 0.0
C502 C 0.10652 0.29661 0.5428 0.0
C503 C 0.16743 0.3154 0.62004 0.0
C504 C 0.17147 0.24225 0.566 0.0
C505 C 0.18895 0.24975 0.54607 0.0
C506 C 0.1551 0.26051 0.57819 0.0
C507 C 0.15646 0.28719 0.57063 0.0
C508 C 0.17551 0.29531 0.552 0.0
C509 C 0.19152 0.27642 0.53979 0.0
C510 C 0.1352 0.25089 0.59805 0.0
C511 C 0.17796 0.32364 0.54385 0.0
H512 H 0.07157 0.31995 0.57505 0.0
H513 H 0.12247 0.33419 0.64048 0.0
H514 H 0.12273 0.30109 0.52896 0.0
H515 H 0.10517 0.27496 0.54462 0.0
H516 H 0.08785 0.30388 0.53432 0.0
H517 H 0.16892 0.32938 0.63669 0.0
H518 H 0.17033 0.29529 0.62779 0.0
H519 H 0.18354 0.31951 0.60595 0.0
H520 H 0.16951 0.22169 0.57109 0.0
H521 H 0.20482 0.28235 0.52426 0.0
H522 H 0.11507 0.25455 0.59067 0.0
H523 H 0.13741 0.26175 0.61677 0.0
H524 H 0.13715 0.22961 0.60219 0.0
H525 H 0.16132 0.32878 0.53084 0.0
H526 H 0.19653 0.32748 0.53306 0.0
H527 H 0.17707 0.33674 0.5612 0.0
C528 C 0.81302 0.1206 0.56818 0.0
C529 C 0.81201 0.14701 0.56062 0.0
C530 C 0.79714 0.1109 0.58847 0.0
C531 C 0.78008 0.12812 0.60193 0.0
C532 C 0.77962 0.15503 0.59506 0.0
C533 C 0.79541 0.16413 0.57425 0.0
C534 C 0.79787 0.08197 0.59476 0.0
C535 C 0.76204 0.17405 0.60928 0.0
C536 C 0.71963 0.09452 0.62906 0.0
C537 C 0.727 0.08913 0.65507 0.0
C538 C 0.73628 0.10819 0.61198 0.0
C539 C 0.7609 0.11717 0.62113 0.0
C540 C 0.76791 0.11323 0.64776 0.0
C541 C 0.75092 0.09906 0.66443 0.0
C542 C 0.7281 0.11166 0.58369 0.0
C543 C 0.79379 0.123 0.65833 0.0
H544 H 0.82578 0.10723 0.55773 0.0
H545 H 0.79478 0.18463 0.56871 0.0
H546 H 0.80174 0.07896 0.61596 0.0
H547 H 0.7785 0.07296 0.59039 0.0
H548 H 0.81311 0.07146 0.58332 0.0
H549 H 0.76612 0.1947 0.60364 0.0
H550 H 0.74122 0.16955 0.60474 0.0
H551 H 0.76451 0.17202 0.63082 0.0
H552 H 0.70111 0.08717 0.62157 0.0
H553 H 0.75671 0.09515 0.68451 0.0
H554 H 0.74139 0.10028 0.57077 0.0
H555 H 0.72975 0.13252 0.57782 0.0
H556 H 0.70764 0.10497 0.58012 0.0
H557 H 0.80998 0.11117 0.64996 0.0
H558 H 0.79475 0.12166 0.68007 0.0
H559 H 0.7972 0.14366 0.65238 0.0
C560 C 0.90545 0.73379 0.68322 0.0
C561 C 0.92685 0.72575 0.66795 0.0
C562 C 0.88328 0.74515 0.67138 0.0
C563 C 0.88293 0.74899 0.64384 0.0
C564 C 0.90479 0.74133 0.62853 0.0
C565 C 0.9263 0.72959 0.64075 0.0
C566 C 0.86011 0.75263 0.6882 0.0
C567 C 0.90561 0.74565 0.59918 0.0
C568 C 0.82479 0.75974 0.59898 0.0
C569 C 0.82791 0.78643 0.59331 0.0
C570 C 0.84096 0.7475 0.61768 0.0
C571 C 0.86065 0.76235 0.63066 0.0
C572 C 0.86192 0.78977 0.62687 0.0
C573 C 0.84544 0.80146 0.60836 0.0
C574 C 0.83857 0.7183 0.62173 0.0
C575 C 0.8826 0.80642 0.64012 0.0
H576 H 0.90571 0.73043 0.70422 0.0
H577 H 0.94288 0.72344 0.62893 0.0
H578 H 0.85578 0.77379 0.6859 0.0
H579 H 0.84244 0.74167 0.68168 0.0
H580 H 0.8635 0.74846 0.70933 0.0
H581 H 0.92421 0.73872 0.59023 0.0
H582 H 0.88905 0.73517 0.58967 0.0
H583 H 0.90341 0.76682 0.59473 0.0
H584 H 0.81115 0.74807 0.58754 0.0
H585 H 0.84757 0.82225 0.60444 0.0
H586 H 0.84091 0.71321 0.64277 0.0
H587 H 0.85438 0.70827 0.61068 0.0
H588 H 0.81939 0.71066 0.61471 0.0
H589 H 0.88424 0.80142 0.66122 0.0
H590 H 0.87838 0.82769 0.63831 0.0
H591 H 0.90194 0.80257 0.63089 0.0
C592 C 0.34233 0.24819 0.07317 0.0
C593 C 0.35361 0.26893 0.05892 0.0
C594 C 0.35774 0.23227 0.08972 0.0
C595 C 0.38514 0.23689 0.09174 0.0
C596 C 0.39668 0.2572 0.07661 0.0
C597 C 0.38082 0.27301 0.06063 0.0
C598 C 0.34458 0.21105 0.10569 0.0
C599 C 0.42581 0.26265 0.07773 0.0
C600 C 0.42455 0.21894 0.15262 0.0
C601 C 0.43794 0.19636 0.14447 0.0
C602 C 0.40642 0.23152 0.13614 0.0
C603 C 0.40173 0.22162 0.11057 0.0
C604 C 0.4146 0.1984 0.10248 0.0
C605 C 0.43238 0.18594 0.11957 0.0
C606 C 0.39292 0.25597 0.1458 0.0
C607 C 0.41049 0.18734 0.07532 0.0
H608 H 0.32133 0.24493 0.07206 0.0
H609 H 0.38982 0.2888 0.04953 0.0
H610 H 0.3544 0.19198 0.10238 0.0
H611 H 0.34643 0.21567 0.12689 0.0
H612 H 0.32343 0.20892 0.10087 0.0
H613 H 0.43201 0.27797 0.06349 0.0
H614 H 0.4313 0.26923 0.09775 0.0
H615 H 0.43695 0.24448 0.0736 0.0
H616 H 0.42852 0.22706 0.17188 0.0
H617 H 0.44266 0.16858 0.11302 0.0
H618 H 0.37141 0.25432 0.14285 0.0
H619 H 0.39984 0.27314 0.13431 0.0
H620 H 0.39679 0.25978 0.16691 0.0
H621 H 0.38925 0.18499 0.07121 0.0
H622 H 0.42024 0.16808 0.07272 0.0
H623 H 0.41851 0.2012 0.06053 0.0
C624 C 0.77378 0.44945 0.14718 0.0
C625 C 0.76572 0.46047 0.17115 0.0
C626 C 0.75592 0.43717 0.13024 0.0
C627 C 0.72918 0.43523 0.13745 0.0
C628 C 0.72093 0.44541 0.16202 0.0
C629 C 0.73927 0.45808 0.17853 0.0
C630 C 0.76571 0.42671 0.10427 0.0
C631 C 0.69268 0.44328 0.17062 0.0
C632 C 0.68419 0.42284 0.07893 0.0
C633 C 0.68366 0.39539 0.07831 0.0
C634 C 0.6977 0.43631 0.09901 0.0
C635 C 0.71039 0.42195 0.11919 0.0
C636 C 0.70814 0.39429 0.11957 0.0
C637 C 0.69513 0.38139 0.09901 0.0
C638 C 0.69991 0.46579 0.09762 0.0
C639 C 0.72086 0.37816 0.14086 0.0
H640 H 0.79411 0.45108 0.14113 0.0
H641 H 0.73276 0.46663 0.19686 0.0
H642 H 0.76209 0.40529 0.10309 0.0
H643 H 0.75484 0.436 0.0879 0.0
H644 H 0.78701 0.43035 0.10132 0.0
H645 H 0.68962 0.4509 0.19081 0.0
H646 H 0.68003 0.45445 0.15694 0.0
H647 H 0.6861 0.42253 0.16992 0.0
H648 H 0.67539 0.43373 0.06295 0.0
H649 H 0.69445 0.36014 0.09881 0.0
H650 H 0.72034 0.47135 0.09243 0.0
H651 H 0.6955 0.47466 0.11699 0.0
H652 H 0.68649 0.47426 0.08273 0.0
H653 H 0.74245 0.37839 0.13815 0.0
H654 H 0.71404 0.35745 0.14058 0.0
H655 H 0.71666 0.3866 0.16048 0.0
C656 C 0.66386 0.74639 0.04399 0.0
C657 C 0.65399 0.72431 0.03081 0.0
C658 C 0.64758 0.76159 0.06043 0.0
C659 C 0.62068 0.75485 0.06344 0.0
C660 C 0.61062 0.73278 0.04989 0.0
C661 C 0.62735 0.71776 0.03399 0.0
C662 C 0.65918 0.78478 0.07473 0.0
C663 C 0.58205 0.72508 0.05202 0.0
C664 C 0.58021 0.77929 0.12181 0.0
C665 C 0.56699 0.80077 0.11091 0.0
C666 C 0.59818 0.76456 0.10682 0.0
C667 C 0.60276 0.77113 0.08013 0.0
C668 C 0.58928 0.79265 0.06901 0.0
C669 C 0.57179 0.80726 0.08452 0.0
C670 C 0.61231 0.74197 0.11956 0.0
C671 C 0.59307 0.80009 0.04057 0.0
H672 H 0.68439 0.75154 0.04181 0.0
H673 H 0.6194 0.70086 0.02381 0.0
H674 H 0.6491 0.80301 0.06864 0.0
H675 H 0.65608 0.78253 0.09618 0.0
H676 H 0.68053 0.78708 0.07092 0.0
H677 H 0.57723 0.70748 0.04011 0.0
H678 H 0.57693 0.72097 0.07279 0.0
H679 H 0.5695 0.74152 0.04542 0.0
H680 H 0.57684 0.77424 0.1422 0.0
H681 H 0.56166 0.82375 0.07583 0.0
H682 H 0.63383 0.74463 0.11749 0.0
H683 H 0.60705 0.72339 0.10953 0.0
H684 H 0.60747 0.74003 0.14074 0.0
H685 H 0.61406 0.80441 0.03667 0.0
H686 H 0.5813 0.81747 0.03492 0.0
H687 H 0.58738 0.78342 0.02777 0.0
C688 C 0.27342 0.58305 0.17977 0.0
C689 C 0.2503 0.57161 0.17001 0.0
C690 C 0.29001 0.59808 0.16331 0.0
C691 C 0.28355 0.60136 0.13642 0.0
C692 C 0.26035 0.58971 0.12654 0.0
C693 C 0.24403 0.57526 0.14339 0.0
C694 C 0.31437 0.61051 0.17467 0.0
C695 C 0.25273 0.59236 0.098 0.0
C696 C 0.30683 0.65741 0.09295 0.0
C697 C 0.32572 0.64514 0.07715 0.0
C698 C 0.29435 0.64393 0.11358 0.0
C699 C 0.30045 0.61729 0.11832 0.0
C700 C 0.32036 0.60513 0.10319 0.0
C701 C 0.33291 0.61926 0.08295 0.0
C702 C 0.2736 0.65786 0.12942 0.0
C703 C 0.32725 0.57668 0.10726 0.0
H704 H 0.2785 0.58031 0.20023 0.0
H705 H 0.22641 0.56638 0.13542 0.0
H706 H 0.33199 0.60321 0.16423 0.0
H707 H 0.31378 0.63206 0.17178 0.0
H708 H 0.31657 0.60635 0.19596 0.0
H709 H 0.23446 0.58141 0.09323 0.0
H710 H 0.24974 0.6133 0.09305 0.0
H711 H 0.26874 0.58498 0.08526 0.0
H712 H 0.30135 0.6775 0.08884 0.0
H713 H 0.34746 0.60962 0.07084 0.0
H714 H 0.27653 0.65432 0.1507 0.0
H715 H 0.25396 0.65002 0.12418 0.0
H716 H 0.27369 0.67933 0.12581 0.0
H717 H 0.33051 0.57256 0.12837 0.0
H718 H 0.34506 0.57095 0.09611 0.0
H719 H 0.31064 0.56416 0.10071 0.0
C720 C 0.42311 0.70743 0.95486 0.0
C721 C 0.39591 0.7114 0.95597 0.0
C722 C 0.43912 0.72269 0.93817 0.0
C723 C 0.42764 0.74224 0.92211 0.0
C724 C 0.4001 0.74553 0.92239 0.0
C725 C 0.38464 0.73016 0.9393 0.0
C726 C 0.46842 0.71853 0.93842 0.0
C727 C 0.38699 0.76592 0.90544 0.0
C728 C 0.46904 0.80073 0.90015 0.0
C729 C 0.4755 0.79389 0.87426 0.0
C730 C 0.45366 0.78404 0.91596 0.0
C731 C 0.44439 0.75991 0.90566 0.0
C732 C 0.45055 0.75305 0.87946 0.0
C733 C 0.46601 0.77006 0.86412 0.0
C734 C 0.4475 0.79214 0.94379 0.0
C735 C 0.44092 0.72763 0.86765 0.0
H736 H 0.43203 0.69312 0.96776 0.0
H737 H 0.36363 0.73333 0.93987 0.0
H738 H 0.47572 0.7152 0.91818 0.0
H739 H 0.47834 0.73639 0.94597 0.0
H740 H 0.47416 0.70162 0.95085 0.0
H741 H 0.36525 0.76504 0.90686 0.0
H742 H 0.39358 0.78578 0.91145 0.0
H743 H 0.39272 0.76327 0.88461 0.0
H744 H 0.47637 0.81898 0.90826 0.0
H745 H 0.47091 0.76449 0.84419 0.0
H746 H 0.45484 0.77715 0.95771 0.0
H747 H 0.42594 0.79338 0.94654 0.0
H748 H 0.45637 0.81138 0.94895 0.0
H749 H 0.44822 0.71083 0.87932 0.0
H750 H 0.4474 0.72515 0.84698 0.0
H751 H 0.41917 0.72684 0.86827 0.0
C752 C 0.26031 0.38746 0.97897 0.0
C753 C 0.25587 0.36029 0.9804 0.0
C754 C 0.2425 0.40422 0.96663 0.0
C755 C 0.21948 0.39374 0.95518 0.0
C756 C 0.2143 0.36646 0.95724 0.0
C757 C 0.23256 0.35001 0.96991 0.0
C758 C 0.24889 0.43314 0.96503 0.0
C759 C 0.18993 0.35457 0.94533 0.0
C760 C 0.17004 0.44629 0.93597 0.0
C761 C 0.17776 0.4516 0.91006 0.0
C762 C 0.18234 0.42635 0.95061 0.0
C763 C 0.20258 0.41127 0.93895 0.0
C764 C 0.20923 0.41559 0.91233 0.0
C765 C 0.19687 0.43569 0.89833 0.0
C766 C 0.17469 0.42238 0.97895 0.0
C767 C 0.23053 0.39998 0.89897 0.0
H768 H 0.278 0.39579 0.98736 0.0
H769 H 0.22885 0.32911 0.97108 0.0
H770 H 0.25228 0.43879 0.94427 0.0
H771 H 0.23217 0.4449 0.97237 0.0
H772 H 0.26664 0.43844 0.97654 0.0
H773 H 0.1873 0.3337 0.95101 0.0
H774 H 0.17232 0.36571 0.95145 0.0
H775 H 0.19116 0.35575 0.92362 0.0
H776 H 0.15519 0.45838 0.94512 0.0
H777 H 0.20264 0.43929 0.87815 0.0
H778 H 0.1906 0.42984 0.99182 0.0
H779 H 0.17212 0.40122 0.98332 0.0
H780 H 0.15629 0.43283 0.984 0.0
H781 H 0.24985 0.40527 0.90753 0.0
H782 H 0.23131 0.40368 0.8775 0.0
H783 H 0.22747 0.37869 0.90226 0.0
C784 C 0.54811 0.25491 0.87204 0.0
C785 C 0.53767 0.23154 0.88238 0.0
C786 C 0.56281 0.27225 0.88769 0.0
C787 C 0.56707 0.26631 0.91448 0.0
C788 C 0.55674 0.24269 0.92503 0.0
C789 C 0.54231 0.22554 0.90885 0.0
C790 C 0.57377 0.29698 0.87552 0.0
C791 C 0.56076 0.23565 0.95352 0.0
C792 C 0.62524 0.29682 0.95002 0.0
C793 C 0.61348 0.31705 0.9645 0.0
C794 C 0.61047 0.28058 0.93338 0.0
C795 C 0.58307 0.28436 0.93124 0.0
C796 C 0.57109 0.30511 0.94533 0.0
C797 C 0.58647 0.32133 0.96168 0.0
C798 C 0.62416 0.25902 0.91844 0.0
C799 C 0.54192 0.30971 0.94368 0.0
H800 H 0.54467 0.25977 0.85163 0.0
H801 H 0.53416 0.20769 0.9171 0.0
H802 H 0.56608 0.31439 0.88599 0.0
H803 H 0.59544 0.29735 0.87754 0.0
H804 H 0.56875 0.29874 0.85438 0.0
H805 H 0.55105 0.21686 0.95887 0.0
H806 H 0.58203 0.23402 0.95778 0.0
H807 H 0.55287 0.2514 0.96626 0.0
H808 H 0.64614 0.29343 0.95192 0.0
H809 H 0.5772 0.33676 0.97293 0.0
H810 H 0.62008 0.26086 0.89714 0.0
H811 H 0.61651 0.23966 0.92484 0.0
H812 H 0.64574 0.25935 0.92141 0.0
H813 H 0.536 0.31262 0.92294 0.0
H814 H 0.53568 0.32704 0.95526 0.0
H815 H 0.53122 0.2922 0.95104 0.0
C816 C 0.77299 0.65062 0.93072 0.0
C817 C 0.75317 0.63932 0.94619 0.0
C818 C 0.79054 0.63472 0.91635 0.0
C819 C 0.78831 0.607 0.91777 0.0
C820 C 0.76908 0.59567 0.93434 0.0
C821 C 0.75182 0.61188 0.94818 0.0
C822 C 0.8108 0.64755 0.89893 0.0
C823 C 0.76602 0.56628 0.93676 0.0
C824 C 0.806 0.56082 0.86223 0.0
C825 C 0.82859 0.54848 0.87189 0.0
C826 C 0.79381 0.58118 0.87612 0.0
C827 C 0.80425 0.58945 0.9005 0.0
C828 C 0.82784 0.57806 0.90974 0.0
C829 C 0.83978 0.55775 0.8953 0.0
C830 C 0.76881 0.59277 0.86537 0.0
C831 C 0.83965 0.58626 0.93561 0.0
H832 H 0.77423 0.67177 0.92915 0.0
H833 H 0.73691 0.60288 0.96046 0.0
H834 H 0.83041 0.63888 0.90241 0.0
H835 H 0.80574 0.64396 0.87807 0.0
H836 H 0.81201 0.66906 0.90217 0.0
H837 H 0.7513 0.56062 0.95185 0.0
H838 H 0.75978 0.55795 0.91764 0.0
H839 H 0.78505 0.5572 0.94194 0.0
H840 H 0.79735 0.55412 0.84399 0.0
H841 H 0.85728 0.54846 0.90289 0.0
H842 H 0.76972 0.61449 0.86593 0.0
H843 H 0.75199 0.58655 0.87778 0.0
H844 H 0.76492 0.58647 0.84487 0.0
H845 H 0.84028 0.60794 0.93724 0.0
H846 H 0.85981 0.57851 0.93821 0.0
H847 H 0.82722 0.57883 0.95191 0.0
C848 C 0.09874 0.36523 0.28448 0.0
C849 C 0.08828 0.36994 0.30949 0.0
C850 C 0.11871 0.38146 0.27417 0.0
C851 C 0.1283 0.40286 0.28921 0.0
C852 C 0.11921 0.40634 0.3152 0.0
C853 C 0.09942 0.38986 0.32499 0.0
C854 C 0.12815 0.37686 0.2465 0.0
C855 C 0.12871 0.42886 0.33196 0.0
C856 C 0.1857 0.44558 0.26572 0.0
C857 C 0.17229 0.46569 0.25274 0.0
C858 C 0.17178 0.42465 0.27749 0.0
C859 C 0.14394 0.42419 0.2765 0.0
C860 C 0.13048 0.44492 0.26401 0.0
C861 C 0.14478 0.46522 0.25225 0.0
C862 C 0.18678 0.40278 0.29045 0.0
C863 C 0.10085 0.44567 0.2629 0.0
H864 H 0.09043 0.34979 0.27244 0.0
H865 H 0.09185 0.39342 0.34455 0.0
H866 H 0.11955 0.39185 0.23332 0.0
H867 H 0.1498 0.37885 0.24533 0.0
H868 H 0.12238 0.35717 0.23915 0.0
H869 H 0.12268 0.42665 0.35281 0.0
H870 H 0.15039 0.43061 0.33109 0.0
H871 H 0.12044 0.44746 0.32436 0.0
H872 H 0.20696 0.44573 0.26584 0.0
H873 H 0.1343 0.48083 0.24237 0.0
H874 H 0.18261 0.38403 0.28022 0.0
H875 H 0.18028 0.40037 0.3111 0.0
H876 H 0.2083 0.40633 0.2902 0.0
H877 H 0.09328 0.42801 0.25264 0.0
H878 H 0.09344 0.46332 0.25256 0.0
H879 H 0.09261 0.44547 0.28306 0.0
C880 C 0.11951 0.58075 0.81259 0.0
C881 C 0.10711 0.5636 0.8303 0.0
C882 C 0.10505 0.5984 0.79725 0.0
C883 C 0.07735 0.59875 0.79926 0.0
C884 C 0.06471 0.582 0.81761 0.0
C885 C 0.07975 0.56477 0.83307 0.0
C886 C 0.11941 0.61613 0.77827 0.0
C887 C 0.03521 0.58155 0.82018 0.0
C888 C 0.04022 0.6566 0.76964 0.0
C889 C 0.0332 0.64674 0.74489 0.0
C890 C 0.05453 0.64125 0.7876 0.0
C891 C 0.06168 0.6153 0.78082 0.0
C892 C 0.05453 0.60525 0.75592 0.0
C893 C 0.04059 0.6211 0.73826 0.0
C894 C 0.06211 0.65284 0.81377 0.0
C895 C 0.06152 0.57765 0.74791 0.0
H896 H 0.14067 0.5802 0.81048 0.0
H897 H 0.07 0.55155 0.84663 0.0
H898 H 0.11441 0.61057 0.75784 0.0
H899 H 0.11321 0.63676 0.78109 0.0
H900 H 0.14105 0.61505 0.78062 0.0
H901 H 0.02847 0.56868 0.83645 0.0
H902 H 0.02772 0.60164 0.82362 0.0
H903 H 0.02638 0.57442 0.8016 0.0
H904 H 0.03458 0.67634 0.77499 0.0
H905 H 0.03508 0.61314 0.71932 0.0
H906 H 0.08376 0.65274 0.81593 0.0
H907 H 0.0539 0.64073 0.82992 0.0
H908 H 0.05505 0.67328 0.81612 0.0
H909 H 0.08315 0.57534 0.74768 0.0
H910 H 0.0538 0.57248 0.72819 0.0
H911 H 0.05356 0.56346 0.76241 0.0
C912 C 0.35425 0.05223 0.7587 0.0
C913 C 0.36688 0.04403 0.73564 0.0
C914 C 0.3665 0.06994 0.77609 0.0
C915 C 0.39205 0.07945 0.77039 0.0
C916 C 0.40505 0.07079 0.74743 0.0
C917 C 0.3923 0.05336 0.73035 0.0
C918 C 0.35194 0.07885 0.80026 0.0
C919 C 0.43236 0.08025 0.74064 0.0
C920 C 0.41792 0.14498 0.79454 0.0
C921 C 0.43578 0.1374 0.81403 0.0
C922 C 0.4024 0.12643 0.78132 0.0
C923 C 0.40496 0.0995 0.78746 0.0
C924 C 0.422 0.09181 0.80802 0.0
C925 C 0.43712 0.11088 0.82118 0.0
C926 C 0.38429 0.13558 0.75978 0.0
C927 C 0.42541 0.06331 0.8151 0.0
H928 H 0.33464 0.04511 0.76299 0.0
H929 H 0.4024 0.047 0.71276 0.0
H930 H 0.36392 0.07521 0.81804 0.0
H931 H 0.34849 0.10028 0.79917 0.0
H932 H 0.33273 0.06874 0.80256 0.0
H933 H 0.44024 0.07068 0.72272 0.0
H934 H 0.4322 0.10175 0.73739 0.0
H935 H 0.44594 0.07634 0.75718 0.0
H936 H 0.41653 0.16546 0.78907 0.0
H937 H 0.45089 0.10484 0.83618 0.0
H938 H 0.36449 0.1268 0.76227 0.0
H939 H 0.39195 0.12902 0.74049 0.0
H940 H 0.38238 0.15726 0.75936 0.0
H941 H 0.40605 0.05362 0.81762 0.0
H942 H 0.43697 0.06076 0.83339 0.0
H943 H 0.43572 0.05308 0.7989 0.0
C944 C 0.92744 0.43537 0.79964 0.0
C945 C 0.9 0.43336 0.79849 0.0
C946 C 0.94341 0.42196 0.78153 0.0
C947 C 0.93169 0.40607 0.7619 0.0
C948 C 0.90408 0.40315 0.76137 0.0
C949 C 0.88863 0.41682 0.77958 0.0
C950 C 0.97279 0.42553 0.78282 0.0
C951 C 0.89075 0.38621 0.74101 0.0
C952 C 0.96975 0.39279 0.69873 0.0
C953 C 0.97989 0.36771 0.70345 0.0
C954 C 0.95403 0.4055 0.71755 0.0
C955 C 0.94818 0.39279 0.74164 0.0
C956 C 0.95786 0.36725 0.74624 0.0
C957 C 0.97357 0.35508 0.72717 0.0
C958 C 0.94403 0.43272 0.71186 0.0
C959 C 0.95194 0.3529 0.7715 0.0
H960 H 0.93641 0.44826 0.81398 0.0
H961 H 0.86745 0.41506 0.77853 0.0
H962 H 0.98257 0.40619 0.78404 0.0
H963 H 0.97986 0.43521 0.76462 0.0
H964 H 0.97894 0.43757 0.79992 0.0
H965 H 0.86919 0.38502 0.74401 0.0
H966 H 0.8946 0.39425 0.72114 0.0
H967 H 0.89888 0.36608 0.74151 0.0
H968 H 0.97464 0.40281 0.6806 0.0
H969 H 0.98125 0.33569 0.73109 0.0
H970 H 0.95148 0.44661 0.72688 0.0
H971 H 0.9223 0.43297 0.71299 0.0
H972 H 0.95013 0.43985 0.69217 0.0
H973 H 0.95976 0.36418 0.7884 0.0
H974 H 0.96056 0.33294 0.77189 0.0
H975 H 0.93041 0.35115 0.77429 0.0
C976 C 0.66349 0.97672 0.76457 0.0
C977 C 0.64968 0.98828 0.74379 0.0
C978 C 0.65181 0.95702 0.78017 0.0
C979 C 0.62564 0.94898 0.77505 0.0
C980 C 0.61139 0.9613 0.75468 0.0
C981 C 0.6236 0.9806 0.73928 0.0
C982 C 0.6677 0.94424 0.80157 0.0
C983 C 0.58335 0.95365 0.74871 0.0
C984 C 0.59867 0.88129 0.7909 0.0
C985 C 0.58241 0.88642 0.81254 0.0
C986 C 0.61418 0.90114 0.77959 0.0
C987 C 0.61322 0.9269 0.78989 0.0
C988 C 0.59789 0.9319 0.81255 0.0
C989 C 0.58279 0.91157 0.82369 0.0
C990 C 0.6305 0.89481 0.75568 0.0
C991 C 0.59615 0.95909 0.82407 0.0
H992 H 0.68366 0.98249 0.76814 0.0
H993 H 0.61265 0.98959 0.72346 0.0
H994 H 0.65688 0.94487 0.82046 0.0
H995 H 0.67085 0.92329 0.7967 0.0
H996 H 0.68712 0.95382 0.80423 0.0
H997 H 0.57455 0.96612 0.73319 0.0
H998 H 0.58255 0.93294 0.74212 0.0
H999 H 0.57114 0.95519 0.76667 0.0
H1000 H 0.59872 0.86187 0.78228 0.0
H1001 H 0.57029 0.91576 0.84038 0.0
H1002 H 0.6507 0.90265 0.75795 0.0
H1003 H 0.6218 0.90431 0.73816 0.0
H1004 H 0.63161 0.87338 0.752 0.0
H1005 H 0.616 0.96774 0.82645 0.0
H1006 H 0.58606 0.95914 0.84341 0.0
H1007 H 0.58511 0.97194 0.81046 0.0
C1008 C 0.92401 0.63798 0.31642 0.0
C1009 C 0.93373 0.661 0.30467 0.0
C1010 C 0.90465 0.62269 0.30431 0.0
C1011 C 0.89427 0.63067 0.27988 0.0
C1012 C 0.90261 0.6548 0.2687 0.0
C1013 C 0.92241 0.66965 0.28115 0.0
C1014 C 0.89673 0.59698 0.31685 0.0
C1015 C 0.8916 0.66422 0.24292 0.0
C1016 C 0.87614 0.5737 0.23591 0.0
C1017 C 0.84905 0.57104 0.24021 0.0
C1018 C 0.89075 0.59358 0.24797 0.0
C1019 C 0.878 0.61173 0.26458 0.0
C1020 C 0.85049 0.60976 0.26845 0.0
C1021 C 0.83632 0.58918 0.25644 0.0
C1022 C 0.92011 0.59445 0.24372 0.0
C1023 C 0.83616 0.62907 0.28561 0.0
H1024 H 0.93227 0.63119 0.33477 0.0
H1025 H 0.92955 0.68751 0.27206 0.0
H1026 H 0.87507 0.59522 0.31788 0.0
H1027 H 0.90398 0.5805 0.30466 0.0
H1028 H 0.90479 0.59478 0.33697 0.0
H1029 H 0.89651 0.68513 0.23917 0.0
H1030 H 0.8998 0.6523 0.22669 0.0
H1031 H 0.86997 0.66176 0.24253 0.0
H1032 H 0.88622 0.55971 0.2235 0.0
H1033 H 0.81536 0.58741 0.25962 0.0
H1034 H 0.93033 0.59102 0.26263 0.0
H1035 H 0.9262 0.61407 0.23653 0.0
H1036 H 0.92684 0.5795 0.2294 0.0
H1037 H 0.84195 0.6262 0.30638 0.0
H1038 H 0.81452 0.62682 0.28413 0.0
H1039 H 0.84161 0.64943 0.28013 0.0
C1040 C 0.41149 0.94293 0.30041 0.0
C1041 C 0.38635 0.95001 0.29166 0.0
C1042 C 0.42836 0.92777 0.28476 0.0
C1043 C 0.41991 0.91906 0.25977 0.0
C1044 C 0.39419 0.92525 0.25122 0.0
C1045 C 0.37782 0.94079 0.26714 0.0
C1046 C 0.45569 0.92202 0.29457 0.0
C1047 C 0.38423 0.91607 0.22488 0.0
C1048 C 0.47169 0.9073 0.20711 0.0
C1049 C 0.47447 0.87993 0.20752 0.0
C1050 C 0.45424 0.92015 0.2241 0.0
C1051 C 0.4387 0.90533 0.24181 0.0
C1052 C 0.44143 0.87767 0.24244 0.0
C1053 C 0.45945 0.86531 0.22545 0.0
C1054 C 0.45242 0.94967 0.22304 0.0
C1055 C 0.42504 0.86111 0.26077 0.0
H1056 H 0.4184 0.94995 0.31925 0.0
H1057 H 0.35844 0.94601 0.26021 0.0
H1058 H 0.45961 0.90068 0.29366 0.0
H1059 H 0.47031 0.93189 0.28175 0.0
H1060 H 0.45875 0.92882 0.31505 0.0
H1061 H 0.36308 0.92041 0.2221 0.0
H1062 H 0.3955 0.92585 0.20899 0.0
H1063 H 0.38724 0.89465 0.22274 0.0
H1064 H 0.48329 0.91882 0.19345 0.0
H1065 H 0.46129 0.84416 0.22577 0.0
H1066 H 0.45669 0.9581 0.24265 0.0
H1067 H 0.4322 0.95558 0.2177 0.0
H1068 H 0.46627 0.95838 0.20858 0.0
H1069 H 0.42854 0.86714 0.28139 0.0
H1070 H 0.42939 0.83988 0.25888 0.0
H1071 H 0.40391 0.86422 0.25666 0.0
C1072 C 0.61135 0.0548 0.31163 0.0
C1073 C 0.63728 0.0499 0.30378 0.0
C1074 C 0.59415 0.06912 0.29556 0.0
C1075 C 0.60308 0.07884 0.27105 0.0
C1076 C 0.62937 0.07449 0.2633 0.0
C1077 C 0.64612 0.06012 0.27972 0.0
C1078 C 0.56629 0.07349 0.30461 0.0
C1079 C 0.63973 0.08473 0.23746 0.0
C1080 C 0.55207 0.09653 0.21921 0.0
C1081 C 0.55006 0.12372 0.22264 0.0
C1082 C 0.56942 0.08163 0.23466 0.0
C1083 C 0.58513 0.09425 0.25389 0.0
C1084 C 0.58356 0.12173 0.25697 0.0
C1085 C 0.56611 0.13606 0.24138 0.0
C1086 C 0.57059 0.05233 0.23078 0.0
C1087 C 0.60004 0.13601 0.27709 0.0
H1088 H 0.60424 0.04687 0.33006 0.0
H1089 H 0.66606 0.0564 0.27336 0.0
H1090 H 0.56212 0.09479 0.30558 0.0
H1091 H 0.55239 0.06481 0.29026 0.0
H1092 H 0.5624 0.06473 0.3242 0.0
H1093 H 0.66073 0.07985 0.23438 0.0
H1094 H 0.62815 0.07634 0.22104 0.0
H1095 H 0.63752 0.10634 0.23657 0.0
H1096 H 0.53968 0.08682 0.2049 0.0
H1097 H 0.56485 0.15708 0.24419 0.0
H1098 H 0.56458 0.04223 0.24913 0.0
H1099 H 0.59101 0.04628 0.22641 0.0
H1100 H 0.55766 0.04557 0.21458 0.0
H1101 H 0.59512 0.12883 0.29706 0.0
H1102 H 0.59702 0.15755 0.27654 0.0
H1103 H 0.62114 0.13197 0.27373 0.0
C1104 C 0.698 0.9747 0.60997 0.0
C1105 C 0.70427 0.98194 0.63575 0.0
C1106 C 0.71449 0.95799 0.5956 0.0
C1107 C 0.73762 0.94819 0.6074 0.0
C1108 C 0.74398 0.9554 0.63341 0.0
C1109 C 0.72728 0.9722 0.64723 0.0
C1110 C 0.70713 0.95068 0.56785 0.0
C1111 C 0.76828 0.9451 0.64681 0.0
C1112 C 0.76438 0.88374 0.58266 0.0
C1113 C 0.78574 0.89183 0.56721 0.0
C1114 C 0.74865 0.9019 0.59579 0.0
C1115 C 0.75426 0.92894 0.59331 0.0
C1116 C 0.77597 0.93734 0.57801 0.0
C1117 C 0.79161 0.91861 0.5652 0.0
C1118 C 0.72594 0.89211 0.61225 0.0
C1119 C 0.78244 0.96607 0.57493 0.0
H1120 H 0.68039 0.98235 0.6009 0.0
H1121 H 0.73232 0.97767 0.66715 0.0
H1122 H 0.72348 0.95553 0.55427 0.0
H1123 H 0.70371 0.92924 0.56653 0.0
H1124 H 0.68917 0.96092 0.56109 0.0
H1125 H 0.7709 0.95335 0.66681 0.0
H1126 H 0.76712 0.92344 0.64837 0.0
H1127 H 0.78595 0.94987 0.63497 0.0
H1128 H 0.75983 0.86304 0.58448 0.0
H1129 H 0.80798 0.92495 0.55313 0.0
H1130 H 0.70728 0.90036 0.6048 0.0
H1131 H 0.72825 0.89882 0.63283 0.0
H1132 H 0.72433 0.87039 0.6122 0.0
H1133 H 0.76549 0.97647 0.5662 0.0
H1134 H 0.79992 0.96939 0.5623 0.0
H1135 H 0.78616 0.97498 0.59443 0.0
C1136 C 0.12711 0.78421 0.57545 0.0
C1137 C 0.11673 0.80406 0.55947 0.0
C1138 C 0.11091 0.76829 0.59102 0.0
C1139 C 0.08344 0.772 0.59054 0.0
C1140 C 0.07277 0.79245 0.575 0.0
C1141 C 0.08959 0.8084 0.55974 0.0
C1142 C 0.12323 0.74705 0.60754 0.0
C1143 C 0.04356 0.79691 0.57387 0.0
C1144 C 0.04344 0.71166 0.60963 0.0
C1145 C 0.03704 0.71698 0.63589 0.0
C1146 C 0.05774 0.72978 0.59442 0.0
C1147 C 0.06612 0.75376 0.60574 0.0
C1148 C 0.05965 0.7593 0.63219 0.0
C1149 C 0.04513 0.74093 0.64689 0.0
C1150 C 0.06416 0.72311 0.56627 0.0
C1151 C 0.06847 0.78445 0.64514 0.0
H1152 H 0.1481 0.78089 0.57562 0.0
H1153 H 0.08145 0.82361 0.54737 0.0
H1154 H 0.117 0.74906 0.62831 0.0
H1155 H 0.11648 0.72754 0.60064 0.0
H1156 H 0.14501 0.74759 0.60673 0.0
H1157 H 0.03844 0.81437 0.56193 0.0
H1158 H 0.03376 0.77946 0.56527 0.0
H1159 H 0.03557 0.7995 0.59396 0.0
H1160 H 0.03707 0.69338 0.60083 0.0
H1161 H 0.04023 0.74532 0.66711 0.0
H1162 H 0.08571 0.72138 0.56386 0.0
H1163 H 0.05752 0.73905 0.55307 0.0
H1164 H 0.05487 0.70444 0.5599 0.0
H1165 H 0.09022 0.78519 0.64583 0.0
H1166 H 0.0608 0.78639 0.66545 0.0
H1167 H 0.06189 0.80156 0.63348 0.0
C1168 C 0.22579 0.10761 0.55225 0.0
C1169 C 0.23293 0.13379 0.54763 0.0
C1170 C 0.24185 0.09102 0.56725 0.0
C1171 C 0.26534 0.10099 0.57834 0.0
C1172 C 0.27238 0.12754 0.57415 0.0
C1173 C 0.25624 0.14353 0.55863 0.0
C1174 C 0.23386 0.06272 0.57091 0.0
C1175 C 0.29695 0.13907 0.58608 0.0
C1176 C 0.29358 0.06363 0.63637 0.0
C1177 C 0.3141 0.04961 0.62463 0.0
C1178 C 0.27792 0.08079 0.62166 0.0
C1179 C 0.28252 0.08363 0.59439 0.0
C1180 C 0.30331 0.06965 0.58244 0.0
C1181 C 0.31903 0.05301 0.59776 0.0
C1182 C 0.25633 0.09574 0.63527 0.0
C1183 C 0.30859 0.07182 0.55336 0.0
H1184 H 0.20792 0.0999 0.54365 0.0
H1185 H 0.26182 0.16378 0.55526 0.0
H1186 H 0.24951 0.04968 0.56334 0.0
H1187 H 0.23143 0.05833 0.59209 0.0
H1188 H 0.21523 0.05791 0.56066 0.0
H1189 H 0.29926 0.16026 0.58155 0.0
H1190 H 0.29654 0.13656 0.60771 0.0
H1191 H 0.31444 0.12854 0.57866 0.0
H1192 H 0.28975 0.06121 0.65717 0.0
H1193 H 0.33472 0.04208 0.58852 0.0
H1194 H 0.23701 0.08991 0.62709 0.0
H1195 H 0.25876 0.11707 0.63172 0.0
H1196 H 0.25605 0.09222 0.65679 0.0
H1197 H 0.29098 0.06548 0.54221 0.0
H1198 H 0.32552 0.05971 0.54707 0.0
H1199 H 0.31258 0.09253 0.54799 0.0
C1200 C 0.91291 0.19972 0.57184 0.0
C1201 C 0.92309 0.18048 0.55505 0.0
C1202 C 0.92904 0.21334 0.5895 0.0
C1203 C 0.95624 0.20796 0.59022 0.0
C1204 C 0.96654 0.18781 0.57407 0.0
C1205 C 0.94977 0.17414 0.55678 0.0
C1206 C 0.91709 0.23438 0.60654 0.0
C1207 C 0.99545 0.18163 0.57407 0.0
C1208 C 0.99701 0.26722 0.60956 0.0
C1209 C 1.0024 0.26236 0.63613 0.0
C1210 C 0.98314 0.24908 0.59421 0.0
C1211 C 0.97397 0.22549 0.60569 0.0
C1212 C 0.97991 0.22007 0.63233 0.0
C1213 C 0.99426 0.2385 0.64722 0.0
C1214 C 0.97759 0.25561 0.56582 0.0
C1215 C 0.9703 0.19525 0.64535 0.0
H1216 H 0.89222 0.20448 0.57091 0.0
H1217 H 0.95776 0.15929 0.54387 0.0
H1218 H 0.92318 0.23178 0.62727 0.0
H1219 H 0.92425 0.2539 0.60005 0.0
H1220 H 0.89531 0.23429 0.60564 0.0
H1221 H 0.99991 0.16356 0.56279 0.0
H1222 H 1.00648 0.19821 0.56519 0.0
H1223 H 1.0027 0.17922 0.59444 0.0
H1224 H 1.00358 0.28541 0.60066 0.0
H1225 H 0.99842 0.23457 0.6677 0.0
H1226 H 0.9562 0.25843 0.56305 0.0
H1227 H 0.98365 0.23919 0.55295 0.0
H1228 H 0.98791 0.2737 0.55931 0.0
H1229 H 0.94858 0.19562 0.64674 0.0
H1230 H 0.97846 0.19281 0.6654 0.0
H1231 H 0.97564 0.17792 0.63338 0.0
C1232 C 0.74336 0.03845 0.39304 0.0
C1233 C 0.74926 0.03442 0.36643 0.0
C1234 C 0.76119 0.05109 0.40986 0.0
C1235 C 0.78551 0.06021 0.39986 0.0
C1236 C 0.79172 0.05602 0.37308 0.0
C1237 C 0.77359 0.04307 0.35673 0.0
C1238 C 0.75382 0.05503 0.4383 0.0
C1239 C 0.8173 0.06568 0.36159 0.0
C1240 C 0.8159 0.11748 0.43664 0.0
C1241 C 0.83518 0.10525 0.45198 0.0
C1242 C 0.80018 0.10314 0.41918 0.0
C1243 C 0.80352 0.07572 0.41706 0.0
C1244 C 0.82325 0.06322 0.4321 0.0
C1245 C 0.83898 0.07817 0.44929 0.0
C1246 C 0.77961 0.11735 0.40335 0.0
C1247 C 0.82728 0.03398 0.43052 0.0
H1248 H 0.72475 0.03164 0.40084 0.0
H1249 H 0.77839 0.04 0.33624 0.0
H1250 H 0.76934 0.04707 0.45125 0.0
H1251 H 0.7522 0.07628 0.44257 0.0
H1252 H 0.73488 0.04542 0.44339 0.0
H1253 H 0.81974 0.05981 0.34073 0.0
H1254 H 0.81824 0.08737 0.36282 0.0
H1255 H 0.83405 0.05792 0.37305 0.0
H1256 H 0.81294 0.13844 0.43834 0.0
H1257 H 0.85379 0.06856 0.46108 0.0
H1258 H 0.75979 0.11025 0.409 0.0
H1259 H 0.7822 0.11315 0.38215 0.0
H1260 H 0.7804 0.13891 0.40629 0.0
H1261 H 0.80934 0.02367 0.4374 0.0
H1262 H 0.84415 0.02738 0.44258 0.0
H1263 H 0.83064 0.028 0.40986 0.0
C1264 C 0.93531 0.72837 0.3993 0.0
C1265 C 0.95256 0.70951 0.40936 0.0
C1266 C 0.92011 0.74402 0.41587 0.0
C1267 C 0.9222 0.74094 0.44336 0.0
C1268 C 0.93929 0.72168 0.45378 0.0
C1269 C 0.95422 0.70603 0.4366 0.0
C1270 C 0.90186 0.76399 0.40387 0.0
C1271 C 0.94204 0.71794 0.48301 0.0
C1272 C 0.89745 0.79984 0.4817 0.0
C1273 C 0.87168 0.79206 0.48758 0.0
C1274 C 0.91465 0.78286 0.46846 0.0
C1275 C 0.90581 0.75761 0.46081 0.0
C1276 C 0.88008 0.74944 0.46733 0.0
C1277 C 0.86339 0.7667 0.48062 0.0
C1278 C 0.94201 0.79223 0.4619 0.0
C1279 C 0.86977 0.7228 0.45934 0.0
H1280 H 0.93372 0.73105 0.37826 0.0
H1281 H 0.96767 0.69163 0.44446 0.0
H1282 H 0.88139 0.76008 0.41024 0.0
H1283 H 0.90717 0.78394 0.41076 0.0
H1284 H 0.9025 0.76382 0.38208 0.0
H1285 H 0.95597 0.70202 0.488 0.0
H1286 H 0.94903 0.73642 0.49217 0.0
H1287 H 0.92267 0.71325 0.49183 0.0
H1288 H 0.90412 0.81926 0.48723 0.0
H1289 H 0.84358 0.76035 0.48519 0.0
H1290 H 0.94397 0.79462 0.44034 0.0
H1291 H 0.95668 0.77748 0.46813 0.0
H1292 H 0.94676 0.81125 0.47142 0.0
H1293 H 0.86827 0.72178 0.43764 0.0
H1294 H 0.85012 0.71857 0.46784 0.0
H1295 H 0.8835 0.70722 0.46562 0.0
C1296 C 0.31442 0.95108 0.42267 0.0
C1297 C 0.31081 0.95617 0.39585 0.0
C1298 C 0.2946 0.93895 0.4377 0.0
C1299 C 0.2706 0.93165 0.42563 0.0
C1300 C 0.26683 0.93683 0.39862 0.0
C1301 C 0.28691 0.94898 0.38411 0.0
C1302 C 0.29942 0.93369 0.46644 0.0
C1303 C 0.24168 0.92917 0.38491 0.0
C1304 C 0.23299 0.8745 0.45513 0.0
C1305 C 0.2127 0.88694 0.46899 0.0
C1306 C 0.25175 0.88884 0.441 0.0
C1307 C 0.2504 0.91649 0.44059 0.0
C1308 C 0.22974 0.92931 0.45412 0.0
C1309 C 0.21102 0.91435 0.46812 0.0
C1310 C 0.27321 0.8743 0.42668 0.0
C1311 C 0.22767 0.95879 0.45408 0.0
H1312 H 0.33267 0.95679 0.43201 0.0
H1313 H 0.28377 0.95292 0.36345 0.0
H1314 H 0.28343 0.94225 0.47844 0.0
H1315 H 0.29934 0.91225 0.47008 0.0
H1316 H 0.31846 0.94189 0.47324 0.0
H1317 H 0.24124 0.93583 0.36416 0.0
H1318 H 0.23933 0.90754 0.38527 0.0
H1319 H 0.22458 0.93761 0.39535 0.0
H1320 H 0.2344 0.85331 0.45542 0.0
H1321 H 0.19552 0.92411 0.47886 0.0
H1322 H 0.29268 0.88043 0.43428 0.0
H1323 H 0.27275 0.87921 0.40548 0.0
H1324 H 0.27137 0.8527 0.42882 0.0
H1325 H 0.24558 0.9675 0.46292 0.0
H1326 H 0.21028 0.96578 0.46518 0.0
H1327 H 0.22641 0.96614 0.43363 0.0
C1328 C 0.1368 0.22907 0.4428 0.0
C1329 C 0.13259 0.21572 0.46641 0.0
C1330 C 0.11921 0.24819 0.43409 0.0
C1331 C 0.09718 0.25463 0.44977 0.0
C1332 C 0.0927 0.24105 0.47363 0.0
C1333 C 0.11036 0.22145 0.48154 0.0
C1334 C 0.12445 0.26177 0.40824 0.0
C1335 C 0.06978 0.24779 0.49111 0.0
C1336 C 0.06986 0.32074 0.42956 0.0
C1337 C 0.05129 0.31282 0.41097 0.0
C1338 C 0.08359 0.3019 0.44434 0.0
C1339 C 0.0785 0.27481 0.4402 0.0
C1340 C 0.05795 0.26709 0.42326 0.0
C1341 C 0.04463 0.28619 0.4089 0.0
C1342 C 0.10496 0.3109 0.46275 0.0
C1343 C 0.05165 0.23856 0.41827 0.0
H1344 H 0.15422 0.22484 0.43133 0.0
H1345 H 0.10755 0.21163 0.50021 0.0
H1346 H 0.1074 0.25919 0.39495 0.0
H1347 H 0.1271 0.28311 0.41148 0.0
H1348 H 0.14222 0.25412 0.39823 0.0
H1349 H 0.06928 0.23569 0.50923 0.0
H1350 H 0.07086 0.26876 0.49677 0.0
H1351 H 0.05109 0.24493 0.48035 0.0
H1352 H 0.07492 0.34133 0.43124 0.0
H1353 H 0.02985 0.28012 0.39481 0.0
H1354 H 0.12429 0.30855 0.45302 0.0
H1355 H 0.10511 0.29886 0.48087 0.0
H1356 H 0.10264 0.33184 0.46821 0.0
H1357 H 0.06741 0.22985 0.40607 0.0
H1358 H 0.03269 0.23601 0.40782 0.0
H1359 H 0.0508 0.22741 0.43693 0.0
C1360 C 0.6565 0.689 0.90349 0.0
C1361 C 0.64256 0.6756 0.92309 0.0
C1362 C 0.64338 0.703 0.88393 0.0
C1363 C 0.61566 0.70385 0.88428 0.0
C1364 C 0.60148 0.6882 0.90247 0.0
C1365 C 0.61519 0.67405 0.9217 0.0
C1366 C 0.65927 0.71905 0.86468 0.0
C1367 C 0.5719 0.68852 0.90336 0.0
C1368 C 0.58662 0.76982 0.8677 0.0
C1369 C 0.57671 0.76569 0.84239 0.0
C1370 C 0.59921 0.74976 0.88142 0.0
C1371 C 0.60211 0.72488 0.86951 0.0
C1372 C 0.59272 0.72064 0.84373 0.0
C1373 C 0.58008 0.74116 0.83041 0.0
C1374 C 0.60916 0.7552 0.90884 0.0
C1375 C 0.59561 0.69438 0.83045 0.0
H1376 H 0.67775 0.68984 0.90437 0.0
H1377 H 0.60443 0.66365 0.93686 0.0
H1378 H 0.65074 0.71789 0.8447 0.0
H1379 H 0.659 0.73993 0.87078 0.0
H1380 H 0.68002 0.71255 0.86382 0.0
H1381 H 0.56388 0.67194 0.91507 0.0
H1382 H 0.56526 0.70711 0.91245 0.0
H1383 H 0.56355 0.68764 0.88329 0.0
H1384 H 0.58416 0.78871 0.8771 0.0
H1385 H 0.5723 0.73778 0.81091 0.0
H1386 H 0.63064 0.75196 0.90972 0.0
H1387 H 0.59983 0.74148 0.92298 0.0
H1388 H 0.60508 0.77557 0.9153 0.0
H1389 H 0.61648 0.6883 0.83043 0.0
H1390 H 0.5884 0.69464 0.80989 0.0
H1391 H 0.58446 0.67928 0.84154 0.0
C1392 C 0.26671 0.66374 0.95083 0.0
C1393 C 0.28824 0.65402 0.96485 0.0
C1394 C 0.25159 0.64718 0.9347 0.0
C1395 C 0.25794 0.62022 0.93289 0.0
C1396 C 0.27963 0.61034 0.94703 0.0
C1397 C 0.29458 0.62736 0.96266 0.0
C1398 C 0.22878 0.65846 0.91967 0.0
C1399 C 0.28684 0.58167 0.94597 0.0
C1400 C 0.20537 0.5708 0.91395 0.0
C1401 C 0.21231 0.56471 0.888 0.0
C1402 C 0.21978 0.58914 0.92859 0.0
C1403 C 0.24151 0.60202 0.91694 0.0
C1404 C 0.24831 0.5964 0.89057 0.0
C1405 C 0.23374 0.57766 0.87647 0.0
C1406 C 0.21213 0.59426 0.95677 0.0
C1407 C 0.27118 0.60995 0.87738 0.0
H1408 H 0.26179 0.68433 0.9523 0.0
H1409 H 0.3111 0.61961 0.97352 0.0
H1410 H 0.23103 0.65426 0.89842 0.0
H1411 H 0.21023 0.64904 0.92618 0.0
H1412 H 0.22703 0.67999 0.92237 0.0
H1413 H 0.30441 0.57715 0.958 0.0
H1414 H 0.27019 0.56954 0.95313 0.0
H1415 H 0.29079 0.57575 0.9254 0.0
H1416 H 0.18889 0.56085 0.92307 0.0
H1417 H 0.23912 0.57321 0.85638 0.0
H1418 H 0.20853 0.61547 0.9598 0.0
H1419 H 0.22844 0.5886 0.96998 0.0
H1420 H 0.19425 0.5832 0.96268 0.0
H1421 H 0.26905 0.63152 0.87894 0.0
H1422 H 0.27292 0.60461 0.85632 0.0
H1423 H 0.28969 0.60462 0.88744 0.0
C1424 C 0.39022 0.32727 0.94634 0.0
C1425 C 0.36342 0.32268 0.95036 0.0
C1426 C 0.40303 0.31687 0.92432 0.0
C1427 C 0.38848 0.30203 0.90583 0.0
C1428 C 0.36095 0.29976 0.90849 0.0
C1429 C 0.34878 0.30983 0.93094 0.0
C1430 C 0.43247 0.31957 0.92228 0.0
C1431 C 0.34466 0.28469 0.88885 0.0
C1432 C 0.42487 0.27598 0.84605 0.0
C1433 C 0.43205 0.25102 0.85499 0.0
C1434 C 0.40994 0.29278 0.86202 0.0
C1435 C 0.40246 0.2844 0.88746 0.0
C1436 C 0.40891 0.25889 0.89611 0.0
C1437 C 0.42337 0.24251 0.87971 0.0
C1438 C 0.40292 0.31969 0.85203 0.0
C1439 C 0.4013 0.2491 0.92311 0.0
H1440 H 0.40152 0.33739 0.96127 0.0
H1441 H 0.32789 0.30679 0.93376 0.0
H1442 H 0.44171 0.30061 0.92748 0.0
H1443 H 0.43842 0.3244 0.9019 0.0
H1444 H 0.44025 0.33491 0.93568 0.0
H1445 H 0.32345 0.28924 0.89072 0.0
H1446 H 0.35108 0.28909 0.8685 0.0
H1447 H 0.34727 0.26336 0.89214 0.0
H1448 H 0.43151 0.28266 0.82696 0.0
H1449 H 0.42856 0.22316 0.88673 0.0
H1450 H 0.41459 0.33468 0.86266 0.0
H1451 H 0.38191 0.32389 0.85578 0.0
H1452 H 0.40686 0.32179 0.83068 0.0
H1453 H 0.40999 0.262 0.93836 0.0
H1454 H 0.40795 0.22872 0.92676 0.0
H1455 H 0.37969 0.2497 0.92553 0.0
C1456 C 0.71844 0.39299 0.96018 0.0
C1457 C 0.72248 0.3666 0.96679 0.0
C1458 C 0.73329 0.40532 0.94053 0.0
C1459 C 0.75254 0.39088 0.92677 0.0
C1460 C 0.75679 0.36422 0.9333 0.0
C1461 C 0.74184 0.35242 0.9534 0.0
C1462 C 0.72842 0.4339 0.93458 0.0
C1463 C 0.77697 0.34813 0.91889 0.0
C1464 C 0.77305 0.42079 0.86131 0.0
C1465 C 0.79615 0.43415 0.8682 0.0
C1466 C 0.75923 0.40566 0.87989 0.0
C1467 C 0.76853 0.40413 0.90606 0.0
C1468 C 0.79213 0.4171 0.91294 0.0
C1469 C 0.80569 0.43178 0.89394 0.0
C1470 C 0.73429 0.39188 0.87171 0.0
C1471 C 0.80256 0.41633 0.94067 0.0
H1472 H 0.70364 0.40417 0.97052 0.0
H1473 H 0.74494 0.33199 0.95827 0.0
H1474 H 0.74673 0.44537 0.93744 0.0
H1475 H 0.72252 0.43625 0.91377 0.0
H1476 H 0.71286 0.4424 0.94723 0.0
H1477 H 0.77762 0.32755 0.92598 0.0
H1478 H 0.77255 0.34804 0.89757 0.0
H1479 H 0.79671 0.35704 0.92131 0.0
H1480 H 0.76561 0.42235 0.84145 0.0
H1481 H 0.8235 0.44202 0.89954 0.0
H1482 H 0.71729 0.40083 0.88189 0.0
H1483 H 0.73493 0.37094 0.87757 0.0
H1484 H 0.73093 0.39305 0.8502 0.0
H1485 H 0.78853 0.42618 0.95406 0.0
H1486 H 0.82195 0.42617 0.94249 0.0
H1487 H 0.80446 0.39576 0.94743 0.0
C1488 C 0.61123 0.29369 0.07342 0.0
C1489 C 0.63835 0.28955 0.07124 0.0
C1490 C 0.59601 0.27979 0.09157 0.0
C1491 C 0.60816 0.26135 0.10826 0.0
C1492 C 0.63552 0.25686 0.10615 0.0
C1493 C 0.65034 0.27094 0.08747 0.0
C1494 C 0.56684 0.2849 0.09284 0.0
C1495 C 0.64909 0.23743 0.12378 0.0
C1496 C 0.56695 0.24567 0.16838 0.0
C1497 C 0.55379 0.22288 0.16028 0.0
C1498 C 0.58595 0.2576 0.15227 0.0
C1499 C 0.59172 0.2466 0.1274 0.0
C1500 C 0.57915 0.22312 0.11954 0.0
C1501 C 0.56042 0.21153 0.13607 0.0
C1502 C 0.59909 0.28255 0.16139 0.0
C1503 C 0.58451 0.21092 0.09307 0.0
H1504 H 0.60173 0.30784 0.06077 0.0
H1505 H 0.6713 0.26777 0.08593 0.0
H1506 H 0.55581 0.26647 0.08914 0.0
H1507 H 0.56136 0.29182 0.11273 0.0
H1508 H 0.56044 0.29979 0.0783 0.0
H1509 H 0.67048 0.23624 0.11973 0.0
H1510 H 0.64622 0.24304 0.14462 0.0
H1511 H 0.64031 0.21767 0.12121 0.0
H1512 H 0.56217 0.25441 0.18716 0.0
H1513 H 0.5505 0.19383 0.12966 0.0
H1514 H 0.59217 0.29923 0.14931 0.0
H1515 H 0.62065 0.28124 0.15877 0.0
H1516 H 0.5948 0.28688 0.18232 0.0
H1517 H 0.57692 0.22391 0.07736 0.0
H1518 H 0.57509 0.19136 0.09097 0.0
H1519 H 0.60592 0.20882 0.08986 0.0
C1520 C 0.77829 0.56807 0.14232 0.0
C1521 C 0.79999 0.55363 0.13354 0.0
C1522 C 0.7615 0.58047 0.12467 0.0
C1523 C 0.76664 0.57867 0.0975 0.0
C1524 C 0.78888 0.56476 0.08841 0.0
C1525 C 0.80537 0.55232 0.10662 0.0
C1526 C 0.7381 0.5953 0.13513 0.0
C1527 C 0.79502 0.5628 0.0595 0.0
C1528 C 0.71006 0.59393 0.05159 0.0
C1529 C 0.71542 0.62014 0.04523 0.0
C1530 C 0.72677 0.57996 0.06841 0.0
C1531 C 0.74928 0.59255 0.07888 0.0
C1532 C 0.75453 0.61905 0.07281 0.0
C1533 C 0.73746 0.63254 0.05624 0.0
C1534 C 0.72048 0.55174 0.07488 0.0
C1535 C 0.77826 0.63318 0.0837 0.0
H1536 H 0.77406 0.56932 0.16313 0.0
H1537 H 0.82198 0.54102 0.09975 0.0
H1538 H 0.73943 0.6162 0.12927 0.0
H1539 H 0.71976 0.58726 0.12658 0.0
H1540 H 0.73661 0.59428 0.15686 0.0
H1541 H 0.81308 0.55132 0.05564 0.0
H1542 H 0.77838 0.55339 0.04905 0.0
H1543 H 0.79757 0.5827 0.05105 0.0
H1544 H 0.69319 0.5842 0.043 0.0
H1545 H 0.74179 0.65282 0.05151 0.0
H1546 H 0.7179 0.54944 0.09639 0.0
H1547 H 0.73705 0.539 0.06898 0.0
H1548 H 0.70239 0.54473 0.06493 0.0
H1549 H 0.7772 0.63375 0.10544 0.0
H1550 H 0.77996 0.65361 0.07632 0.0
H1551 H 0.7964 0.62247 0.07839 0.0
C1552 C 0.38945 0.75276 0.06039 0.0
C1553 C 0.36493 0.75751 0.04892 0.0
C1554 C 0.40522 0.77327 0.06953 0.0
C1555 C 0.3962 0.79939 0.06752 0.0
C1556 C 0.3711 0.80441 0.05678 0.0
C1557 C 0.35572 0.78336 0.04747 0.0
C1558 C 0.43181 0.76691 0.08098 0.0
C1559 C 0.36075 0.83199 0.05466 0.0
C1560 C 0.43491 0.84002 0.11528 0.0
C1561 C 0.4558 0.84845 0.09947 0.0
C1562 C 0.41348 0.8266 0.1045 0.0
C1563 C 0.41335 0.8209 0.07734 0.0
C1564 C 0.43323 0.83154 0.06092 0.0
C1565 C 0.45426 0.84545 0.07224 0.0
C1566 C 0.39249 0.81612 0.12267 0.0
C1567 C 0.43383 0.82587 0.03187 0.0
H1568 H 0.39674 0.73288 0.06175 0.0
H1569 H 0.33686 0.78721 0.03851 0.0
H1570 H 0.44743 0.77726 0.06983 0.0
H1571 H 0.43288 0.77377 0.10161 0.0
H1572 H 0.43605 0.74558 0.08064 0.0
H1573 H 0.34009 0.83244 0.04778 0.0
H1574 H 0.36198 0.84201 0.07394 0.0
H1575 H 0.37302 0.84337 0.04069 0.0
H1576 H 0.43605 0.84264 0.13638 0.0
H1577 H 0.4705 0.85196 0.06007 0.0
H1578 H 0.39601 0.795 0.12639 0.0
H1579 H 0.37278 0.81796 0.11367 0.0
H1580 H 0.3925 0.8265 0.14184 0.0
H1581 H 0.44045 0.80541 0.02871 0.0
H1582 H 0.44747 0.83922 0.02127 0.0
H1583 H 0.41397 0.82767 0.02322 0.0
C1584 C 0.30615 0.40588 0.07826 0.0
C1585 C 0.29894 0.37957 0.07479 0.0
C1586 C 0.29 0.42303 0.0924 0.0
C1587 C 0.2662 0.41356 0.10327 0.0
C1588 C 0.25929 0.38685 0.10062 0.0
C1589 C 0.2758 0.37016 0.0865 0.0
C1590 C 0.29809 0.4514 0.0952 0.0
C1591 C 0.23417 0.37603 0.11218 0.0
C1592 C 0.2375 0.45168 0.15972 0.0
C1593 C 0.21808 0.46662 0.14727 0.0
C1594 C 0.25302 0.43414 0.14565 0.0
C1595 C 0.24901 0.43136 0.11839 0.0
C1596 C 0.22887 0.44568 0.10573 0.0
C1597 C 0.2135 0.4632 0.12041 0.0
C1598 C 0.27412 0.41904 0.15988 0.0
C1599 C 0.22404 0.44295 0.07663 0.0
H1600 H 0.32388 0.41333 0.06911 0.0
H1601 H 0.27008 0.34983 0.08393 0.0
H1602 H 0.28303 0.46422 0.08622 0.0
H1603 H 0.29939 0.45671 0.11627 0.0
H1604 H 0.3173 0.4556 0.08575 0.0
H1605 H 0.23177 0.3547 0.10845 0.0
H1606 H 0.23378 0.37938 0.13369 0.0
H1607 H 0.21709 0.38644 0.10372 0.0
H1608 H 0.24092 0.45399 0.18059 0.0
H1609 H 0.19857 0.47477 0.11075 0.0
H1610 H 0.29367 0.42432 0.15181 0.0
H1611 H 0.27136 0.39768 0.15681 0.0
H1612 H 0.27419 0.42299 0.18132 0.0
H1613 H 0.24171 0.4494 0.06561 0.0
H1614 H 0.20702 0.45472 0.06996 0.0
H1615 H 0.22047 0.42209 0.07156 0.0
C1616 C 0.88671 0.52105 0.75552 0.0
C1617 C 0.85939 0.52219 0.75852 0.0
C1618 C 0.89985 0.53742 0.73787 0.0
C1619 C 0.8853 0.55542 0.72269 0.0
C1620 C 0.85747 0.55482 0.72365 0.0
C1621 C 0.84473 0.53812 0.74171 0.0
C1622 C 0.9295 0.53716 0.73748 0.0
C1623 C 0.84129 0.57318 0.70715 0.0
C1624 C 0.92275 0.61895 0.71686 0.0
C1625 C 0.9357 0.616 0.69273 0.0
C1626 C 0.90491 0.60014 0.72592 0.0
C1627 C 0.89953 0.57777 0.71039 0.0
C1628 C 0.91117 0.57542 0.68523 0.0
C1629 C 0.92935 0.59451 0.67674 0.0
C1630 C 0.89317 0.60343 0.75299 0.0
C1631 C 0.90542 0.55219 0.66782 0.0
H1632 H 0.89806 0.50815 0.76802 0.0
H1633 H 0.82357 0.53875 0.74376 0.0
H1634 H 0.93694 0.53686 0.71704 0.0
H1635 H 0.93709 0.55527 0.74693 0.0
H1636 H 0.93764 0.52 0.7481 0.0
H1637 H 0.82064 0.56633 0.70548 0.0
H1638 H 0.84125 0.5929 0.71632 0.0
H1639 H 0.84977 0.57523 0.68718 0.0
H1640 H 0.9272 0.63562 0.72928 0.0
H1641 H 0.93895 0.59227 0.65789 0.0
H1642 H 0.90084 0.58799 0.76624 0.0
H1643 H 0.87155 0.60116 0.75223 0.0
H1644 H 0.89784 0.62285 0.76171 0.0
H1645 H 0.91703 0.53513 0.67455 0.0
H1646 H 0.91069 0.55624 0.64705 0.0
H1647 H 0.88438 0.54663 0.66887 0.0
C1648 C 0.90837 0.46296 0.2209 0.0
C1649 C 0.88164 0.46414 0.2273 0.0
C1650 C 0.92646 0.45117 0.23799 0.0
C1651 C 0.91753 0.43994 0.26184 0.0
C1652 C 0.89051 0.44077 0.26821 0.0
C1653 C 0.87295 0.453 0.25097 0.0
C1654 C 0.95515 0.45081 0.23059 0.0
C1655 C 0.88011 0.42855 0.29317 0.0
C1656 C 0.95849 0.38568 0.29145 0.0
C1657 C 0.97113 0.39846 0.31234 0.0
C1658 C 0.94097 0.39894 0.27506 0.0
C1659 C 0.93614 0.42585 0.27934 0.0
C1660 C 0.9488 0.43899 0.30038 0.0
C1661 C 0.96602 0.42505 0.31684 0.0
C1662 C 0.92753 0.38404 0.25321 0.0
C1663 C 0.94433 0.46779 0.30532 0.0
H1664 H 0.91529 0.47182 0.20282 0.0
H1665 H 0.85232 0.45385 0.25607 0.0
H1666 H 0.96704 0.45989 0.24641 0.0
H1667 H 0.96188 0.43028 0.22842 0.0
H1668 H 0.95909 0.46141 0.21194 0.0
H1669 H 0.85861 0.43124 0.29544 0.0
H1670 H 0.88439 0.40725 0.2933 0.0
H1671 H 0.89009 0.43727 0.31044 0.0
H1672 H 0.96208 0.36504 0.28798 0.0
H1673 H 0.9758 0.43503 0.33288 0.0
H1674 H 0.93256 0.39294 0.23398 0.0
H1675 H 0.90592 0.38529 0.25553 0.0
H1676 H 0.93315 0.36303 0.25278 0.0
H1677 H 0.94972 0.47925 0.28759 0.0
H1678 H 0.95593 0.47522 0.32221 0.0
H1679 H 0.92323 0.47137 0.30922 0.0
C1680 C 0.67772 0.9539 0.23896 0.0
C1681 C 0.6662 0.9557 0.26393 0.0
C1682 C 0.66344 0.94404 0.21748 0.0
C1683 C 0.63711 0.93585 0.22115 0.0
C1684 C 0.62556 0.93732 0.24637 0.0
C1685 C 0.64023 0.94714 0.26739 0.0
C1686 C 0.67637 0.9426 0.19087 0.0
C1687 C 0.59756 0.92864 0.25119 0.0
C1688 C 0.58544 0.92951 0.16806 0.0
C1689 C 0.583 0.90221 0.1665 0.0
C1690 C 0.60449 0.94103 0.1844 0.0
C1691 C 0.62152 0.92476 0.19912 0.0
C1692 C 0.62056 0.89727 0.19568 0.0
C1693 C 0.60121 0.88634 0.17954 0.0
C1694 C 0.60492 0.97043 0.18757 0.0
C1695 C 0.63849 0.87922 0.21074 0.0
H1696 H 0.69771 0.96065 0.23609 0.0
H1697 H 0.63111 0.94843 0.28657 0.0
H1698 H 0.67589 0.92215 0.18349 0.0
H1699 H 0.66537 0.95477 0.17662 0.0
H1700 H 0.69708 0.94945 0.19134 0.0
H1701 H 0.59139 0.93152 0.2719 0.0
H1702 H 0.58405 0.93978 0.23833 0.0
H1703 H 0.5953 0.90758 0.24623 0.0
H1704 H 0.57138 0.94181 0.15799 0.0
H1705 H 0.59959 0.86519 0.17803 0.0
H1706 H 0.62536 0.97799 0.18734 0.0
H1707 H 0.59622 0.97569 0.20683 0.0
H1708 H 0.59358 0.98042 0.1719 0.0
H1709 H 0.659 0.88653 0.21019 0.0
H1710 H 0.63803 0.85891 0.20289 0.0
H1711 H 0.63229 0.8786 0.23162 0.0
C1712 C 0.10928 0.56631 0.22306 0.0
C1713 C 0.13618 0.56686 0.22879 0.0
C1714 C 0.09096 0.57783 0.24015 0.0
C1715 C 0.09981 0.59037 0.26334 0.0
C1716 C 0.12696 0.59134 0.26896 0.0
C1717 C 0.14476 0.57955 0.25168 0.0
C1718 C 0.06213 0.57643 0.23351 0.0
C1719 C 0.13725 0.60491 0.29323 0.0
C1720 C 0.05807 0.64388 0.29307 0.0
C1721 C 0.04675 0.63132 0.3149 0.0
C1722 C 0.07509 0.63068 0.27612 0.0
C1723 C 0.08096 0.60408 0.28089 0.0
C1724 C 0.06963 0.59112 0.30283 0.0
C1725 C 0.05271 0.60497 0.31973 0.0
C1726 C 0.08699 0.64536 0.25321 0.0
C1727 C 0.0754 0.56268 0.30841 0.0
H1728 H 0.10246 0.55626 0.20559 0.0
H1729 H 0.16551 0.58006 0.25629 0.0
H1730 H 0.05115 0.56702 0.24982 0.0
H1731 H 0.05419 0.5965 0.23112 0.0
H1732 H 0.05837 0.56525 0.21518 0.0
H1733 H 0.15891 0.60345 0.29503 0.0
H1734 H 0.13185 0.62595 0.29279 0.0
H1735 H 0.12814 0.59625 0.31103 0.0
H1736 H 0.05379 0.66432 0.28921 0.0
H1737 H 0.04396 0.59513 0.33645 0.0
H1738 H 0.08201 0.63535 0.23454 0.0
H1739 H 0.10869 0.6455 0.25491 0.0
H1740 H 0.08011 0.66595 0.25205 0.0
H1741 H 0.07016 0.55052 0.29112 0.0
H1742 H 0.06447 0.55524 0.32577 0.0
H1743 H 0.09671 0.56011 0.31191 0.0
C1744 C 0.47868 0.15154 0.2826 0.0
C1745 C 0.46104 0.16278 0.26484 0.0
C1746 C 0.47035 0.13226 0.30046 0.0
C1747 C 0.44365 0.12448 0.30076 0.0
C1748 C 0.42539 0.13768 0.28449 0.0
C1749 C 0.43443 0.15633 0.26629 0.0
C1750 C 0.49061 0.11839 0.31692 0.0
C1751 C 0.39665 0.13044 0.28462 0.0
C1752 C 0.4232 0.05389 0.31099 0.0
C1753 C 0.41229 0.05464 0.33617 0.0
C1754 C 0.43517 0.0761 0.30004 0.0
C1755 C 0.4355 0.09991 0.31436 0.0
C1756 C 0.4258 0.10037 0.34043 0.0
C1757 C 0.41444 0.07755 0.35117 0.0
C1758 C 0.44593 0.07447 0.27245 0.0
C1759 C 0.4256 0.12536 0.35623 0.0
H1760 H 0.49943 0.1561 0.2809 0.0
H1761 H 0.42095 0.16473 0.25217 0.0
H1762 H 0.48316 0.11471 0.33705 0.0
H1763 H 0.49503 0.09908 0.30795 0.0
H1764 H 0.5092 0.12976 0.31819 0.0
H1765 H 0.38456 0.1452 0.27417 0.0
H1766 H 0.39392 0.11122 0.27479 0.0
H1767 H 0.3893 0.12849 0.30503 0.0
H1768 H 0.42133 0.03614 0.2994 0.0
H1769 H 0.40552 0.07819 0.37049 0.0
H1770 H 0.46591 0.08314 0.27151 0.0
H1771 H 0.43325 0.08586 0.25896 0.0
H1772 H 0.44685 0.05395 0.26522 0.0
H1773 H 0.4448 0.13559 0.35481 0.0
H1774 H 0.42106 0.12168 0.37724 0.0
H1775 H 0.41052 0.13874 0.34817 0.0
C1776 C 0.09486 0.38491 0.71101 0.0
C1777 C 0.09018 0.35895 0.71898 0.0
C1778 C 0.10853 0.40255 0.72698 0.0
C1779 C 0.11813 0.39404 0.75153 0.0
C1780 C 0.1149 0.36748 0.75913 0.0
C1781 C 0.10081 0.35019 0.74277 0.0
C1782 C 0.11131 0.43073 0.71817 0.0
C1783 C 0.12526 0.35765 0.78503 0.0
C1784 C 0.1645 0.44221 0.78482 0.0
C1785 C 0.14726 0.4555 0.80159 0.0
C1786 C 0.15562 0.42123 0.76923 0.0
C1787 C 0.12883 0.41379 0.77014 0.0
C1788 C 0.11144 0.42704 0.78721 0.0
C1789 C 0.1209 0.44758 0.80281 0.0
C1790 C 0.17477 0.40731 0.7515 0.0
C1791 C 0.08261 0.42009 0.78841 0.0
H1792 H 0.08706 0.39187 0.69251 0.0
H1793 H 0.09746 0.33014 0.74899 0.0
H1794 H 0.09968 0.44357 0.73131 0.0
H1795 H 0.13206 0.43719 0.71948 0.0
H1796 H 0.10443 0.43372 0.69771 0.0
H1797 H 0.12438 0.33593 0.78644 0.0
H1798 H 0.14586 0.36415 0.7879 0.0
H1799 H 0.11348 0.36602 0.80128 0.0
H1800 H 0.18497 0.44803 0.78406 0.0
H1801 H 0.10744 0.45776 0.81571 0.0
H1802 H 0.16965 0.41107 0.73068 0.0
H1803 H 0.17353 0.38582 0.75465 0.0
H1804 H 0.19532 0.41382 0.75483 0.0
H1805 H 0.07337 0.42386 0.76908 0.0
H1806 H 0.07195 0.43155 0.80356 0.0
H1807 H 0.08007 0.39893 0.79277 0.0
C1808 C 0.54394 0.14902 0.77829 0.0
C1809 C 0.53402 0.17358 0.77101 0.0
C1810 C 0.55929 0.13427 0.76106 0.0
C1811 C 0.56517 0.14436 0.73586 0.0
C1812 C 0.55535 0.16915 0.72827 0.0
C1813 C 0.53976 0.18349 0.74595 0.0
C1814 C 0.56933 0.10788 0.76996 0.0
C1815 C 0.56144 0.18053 0.7016 0.0
C1816 C 0.62657 0.11276 0.70985 0.0
C1817 C 0.61621 0.09203 0.69502 0.0
C1818 C 0.61018 0.13144 0.72138 0.0
C1819 C 0.5827 0.1291 0.71833 0.0
C1820 C 0.57221 0.10928 0.70186 0.0
C1821 C 0.58917 0.091 0.69021 0.0
C1822 C 0.62221 0.15244 0.7385 0.0
C1823 C 0.54299 0.10609 0.69822 0.0
H1824 H 0.53952 0.14104 0.79752 0.0
H1825 H 0.53207 0.20239 0.74014 0.0
H1826 H 0.56312 0.09241 0.75596 0.0
H1827 H 0.59109 0.10807 0.7703 0.0
H1828 H 0.56214 0.10247 0.78984 0.0
H1829 H 0.55177 0.19974 0.69843 0.0
H1830 H 0.58295 0.18317 0.69939 0.0
H1831 H 0.55499 0.16679 0.686 0.0
H1832 H 0.64755 0.1139 0.71321 0.0
H1833 H 0.58112 0.07504 0.67866 0.0
H1834 H 0.61843 0.14771 0.75943 0.0
H1835 H 0.61319 0.17176 0.73443 0.0
H1836 H 0.64376 0.15409 0.73559 0.0
H1837 H 0.53426 0.09794 0.71645 0.0
H1838 H 0.53822 0.09266 0.68173 0.0
H1839 H 0.53363 0.12532 0.69454 0.0
C1840 C 0.47656 0.84981 0.74066 0.0
C1841 C 0.4833 0.85871 0.76584 0.0
C1842 C 0.46175 0.86552 0.72357 0.0
C1843 C 0.45364 0.8907 0.73186 0.0
C1844 C 0.46073 0.8999 0.75707 0.0
C1845 C 0.47536 0.88379 0.77375 0.0
C1846 C 0.45439 0.85503 0.69687 0.0
C1847 C 0.45248 0.92666 0.76666 0.0
C1848 C 0.42965 0.94382 0.68547 0.0
C1849 C 0.4026 0.94295 0.69028 0.0
C1850 C 0.44661 0.92602 0.69791 0.0
C1851 C 0.4361 0.90687 0.71519 0.0
C1852 C 0.40864 0.90497 0.71873 0.0
C1853 C 0.39227 0.92309 0.70635 0.0
C1854 C 0.47581 0.92865 0.69372 0.0
C1855 C 0.39659 0.88468 0.73674 0.0
H1856 H 0.48274 0.83052 0.73434 0.0
H1857 H 0.48066 0.89097 0.79306 0.0
H1858 H 0.43277 0.85288 0.69552 0.0
H1859 H 0.46053 0.86903 0.68135 0.0
H1860 H 0.46349 0.8357 0.6928 0.0
H1861 H 0.4608 0.93143 0.78623 0.0
H1862 H 0.45883 0.94196 0.75252 0.0
H1863 H 0.43077 0.92755 0.768 0.0
H1864 H 0.43768 0.95912 0.67304 0.0
H1865 H 0.3713 0.92207 0.70979 0.0
H1866 H 0.4846 0.90927 0.68942 0.0
H1867 H 0.4851 0.93613 0.71194 0.0
H1868 H 0.48064 0.94232 0.67741 0.0
H1869 H 0.40436 0.86493 0.73219 0.0
H1870 H 0.37485 0.88407 0.73521 0.0
H1871 H 0.40189 0.88921 0.75737 0.0
loop_
_geom_bond_atom_site_label_1
_geom_bond_atom_site_label_2
_geom_bond_distance
_geom_bond_site_symmetry_2
_ccdc_geom_bond_type
C0 O2 1.247 . S
C0 O4 1.258 . S
C1 O8 1.247 . S
C1 O9 1.258 . S
O2 C0 1.247 . S
O2 Zn3 2.028 . S
Zn3 O2 2.028 . S
Zn3 O7 2.035 . S
Zn3 O9 2.035 1_545 S
Zn3 O10 2.028 1_545 S
O4 C0 1.258 . S
O4 Zn5 2.035 . S
Zn5 O4 2.035 . S
Zn5 O6 2.028 . S
Zn5 O8 2.028 1_545 S
Zn5 O11 2.035 1_545 S
O6 Zn5 2.028 . S
O6 C12 1.247 . S
O7 Zn3 2.035 . S
O7 C12 1.258 . S
O8 C1 1.247 . S
O8 Zn5 2.028 1_565 S
O9 C1 1.258 . S
O9 Zn3 2.035 1_565 S
O10 Zn3 2.028 1_565 S
O10 C13 1.247 . S
O11 Zn5 2.035 1_565 S
O11 C13 1.258 . S
C12 O6 1.247 . S
C12 O7 1.258 . S
C13 O10 1.247 . S
C13 O11 1.258 . S
C14 O16 1.247 . S
C14 O18 1.258 . S
C15 O22 1.247 . S
C15 O23 1.258 . S
O16 C14 1.247 . S
O16 Zn17 2.028 . S
Zn17 O16 2.028 . S
Zn17 O21 2.035 . S
Zn17 O23 2.035 1_455 S
Zn17 O24 2.028 1_455 S
O18 C14 1.258 . S
O18 Zn19 2.035 . S
Zn19 O18 2.035 . S
Zn19 O20 2.028 . S
Zn19 O22 2.028 1_455 S
Zn19 O25 2.035 1_455 S
O20 Zn19 2.028 . S
O20 C26 1.247 . S
O21 Zn17 2.035 . S
O21 C26 1.258 . S
O22 C15 1.247 . S
O22 Zn19 2.028 1_655 S
O23 C15 1.258 . S
O23 Zn17 2.035 1_655 S
O24 Zn17 2.028 1_655 S
O24 C27 1.247 . S
O25 Zn19 2.035 1_655 S
O25 C27 1.258 . S
C26 O20 1.247 . S
C26 O21 1.258 . S
C27 O24 1.247 . S
C27 O25 1.258 . S
C28 O30 1.247 . S
C28 O32 1.258 . S
C29 O36 1.247 . S
C29 O37 1.258 . S
O30 C28 1.247 . S
O30 Zn31 2.028 1_565 S
Zn31 O30 2.028 1_545 S
Zn31 O35 2.035 1_545 S
Zn31 O37 2.035 . S
Zn31 O38 2.028 . S
O32 C28 1.258 . S
O32 Zn33 2.035 1_565 S
Zn33 O32 2.035 1_545 S
Zn33 O34 2.028 1_545 S
Zn33 O36 2.028 . S
Zn33 O39 2.035 . S
O34 Zn33 2.028 1_565 S
O34 C40 1.247 . S
O35 Zn31 2.035 1_565 S
O35 C40 1.258 . S
O36 C29 1.247 . S
O36 Zn33 2.028 . S
O37 C29 1.258 . S
O37 Zn31 2.035 . S
O38 Zn31 2.028 . S
O38 C41 1.247 . S
O39 Zn33 2.035 . S
O39 C41 1.258 . S
C40 O34 1.247 . S
C40 O35 1.258 . S
C41 O38 1.247 . S
C41 O39 1.258 . S
C42 O44 1.247 . S
C42 O46 1.258 . S
C43 O50 1.247 . S
C43 O51 1.258 . S
O44 C42 1.247 . S
O44 Zn45 2.028 . S
Zn45 O44 2.028 . S
Zn45 O49 2.035 . S
Zn45 O51 2.035 1_455 S
Zn45 O52 2.028 1_455 S
O46 C42 1.258 . S
O46 Zn47 2.035 . S
Zn47 O46 2.035 . S
Zn47 O48 2.028 . S
Zn47 O50 2.028 1_455 S
Zn47 O53 2.035 1_455 S
O48 Zn47 2.028 . S
O48 C54 1.247 . S
O49 Zn45 2.035 . S
O49 C54 1.258 . S
O50 C43 1.247 . S
O50 Zn47 2.028 1_655 S
O51 C43 1.258 . S
O51 Zn45 2.035 1_655 S
O52 Zn45 2.028 1_655 S
O52 C55 1.247 . S
O53 Zn47 2.035 1_655 S
O53 C55 1.258 . S
C54 O48 1.247 . S
C54 O49 1.258 . S
C55 O52 1.247 . S
C55 O53 1.258 . S
C56 O58 1.247 . S
C56 O60 1.258 . S
C57 O64 1.247 . S
C57 O65 1.258 . S
O58 C56 1.247 . S
O58 Zn59 2.028 . S
Zn59 O58 2.028 . S
Zn59 O63 2.035 . S
Zn59 O65 2.035 1_545 S
Zn59 O66 2.028 1_545 S
O60 C56 1.258 . S
O60 Zn61 2.035 . S
Zn61 O60 2.035 . S
Zn61 O62 2.028 . S
Zn61 O64 2.028 1_545 S
Zn61 O67 2.035 1_545 S
O62 Zn61 2.028 . S
O62 C68 1.247 . S
O63 Zn59 2.035 . S
O63 C68 1.258 . S
O64 C57 1.247 . S
O64 Zn61 2.028 1_565 S
O65 C57 1.258 . S
O65 Zn59 2.035 1_565 S
O66 Zn59 2.028 1_565 S
O66 C69 1.247 . S
O67 Zn61 2.035 1_565 S
O67 C69 1.258 . S
C68 O62 1.247 . S
C68 O63 1.258 . S
C69 O66 1.247 . S
C69 O67 1.258 . S
C70 O72 1.247 . S
C70 O74 1.258 . S
C71 O78 1.247 . S
C71 O79 1.258 . S
O72 C70 1.247 . S
O72 Zn73 2.028 . S
Zn73 O72 2.028 . S
Zn73 O77 2.035 . S
Zn73 O79 2.035 1_455 S
Zn73 O80 2.028 1_455 S
O74 C70 1.258 . S
O74 Zn75 2.035 . S
Zn75 O74 2.035 . S
Zn75 O76 2.028 . S
Zn75 O78 2.028 1_455 S
Zn75 O81 2.035 1_455 S
O76 Zn75 2.028 . S
O76 C82 1.247 . S
O77 Zn73 2.035 . S
O77 C82 1.258 . S
O78 C71 1.247 . S
O78 Zn75 2.028 1_655 S
O79 C71 1.258 . S
O79 Zn73 2.035 1_655 S
O80 Zn73 2.028 1_655 S
O80 C83 1.247 . S
O81 Zn75 2.035 1_655 S
O81 C83 1.258 . S
C82 O76 1.247 . S
C82 O77 1.258 . S
C83 O80 1.247 . S
C83 O81 1.258 . S
C84 O86 1.247 . S
C84 O88 1.258 . S
C85 O92 1.247 . S
C85 O93 1.258 . S
O86 C84 1.247 . S
O86 Zn87 2.028 . S
Zn87 O86 2.028 . S
Zn87 O91 2.035 . S
Zn87 O93 2.035 1_545 S
Zn87 O94 2.028 1_545 S
O88 C84 1.258 . S
O88 Zn89 2.035 . S
Zn89 O88 2.035 . S
Zn89 O90 2.028 . S
Zn89 O92 2.028 1_545 S
Zn89 O95 2.035 1_545 S
O90 Zn89 2.028 . S
O90 C96 1.247 . S
O91 Zn87 2.035 . S
O91 C96 1.258 . S
O92 C85 1.247 . S
O92 Zn89 2.028 1_565 S
O93 C85 1.258 . S
O93 Zn87 2.035 1_565 S
O94 Zn87 2.028 1_565 S
O94 C97 1.247 . S
O95 Zn89 2.035 1_565 S
O95 C97 1.258 . S
C96 O90 1.247 . S
C96 O91 1.258 . S
C97 O94 1.247 . S
C97 O95 1.258 . S
C98 O100 1.247 . S
C98 O102 1.258 . S
C99 O106 1.247 . S
C99 O107 1.258 . S
O100 C98 1.247 . S
O100 Zn101 2.028 1_655 S
Zn101 O100 2.028 1_455 S
Zn101 O105 2.035 1_455 S
Zn101 O107 2.035 . S
Zn101 O108 2.028 . S
O102 C98 1.258 . S
O102 Zn103 2.035 1_655 S
Zn103 O102 2.035 1_455 S
Zn103 O104 2.028 1_455 S
Zn103 O106 2.028 . S
Zn103 O109 2.035 . S
O104 Zn103 2.028 1_655 S
O104 C110 1.247 . S
O105 Zn101 2.035 1_655 S
O105 C110 1.258 . S
O106 C99 1.247 . S
O106 Zn103 2.028 . S
O107 C99 1.258 . S
O107 Zn101 2.035 . S
O108 Zn101 2.028 . S
O108 C111 1.247 . S
O109 Zn103 2.035 . S
O109 C111 1.258 . S
C110 O104 1.247 . S
C110 O105 1.258 . S
C111 O108 1.247 . S
C111 O109 1.258 . S
C112 O114 1.247 . S
C112 O116 1.258 . S
C113 O120 1.247 . S
C113 O121 1.258 . S
O114 C112 1.247 . S
O114 Zn115 2.028 . S
Zn115 O114 2.028 . S
Zn115 O119 2.035 . S
Zn115 O121 2.035 1_554 S
Zn115 O122 2.028 1_554 S
O116 C112 1.258 . S
O116 Zn117 2.035 . S
Zn117 O116 2.035 . S
Zn117 O118 2.028 . S
Zn117 O120 2.028 1_554 S
Zn117 O123 2.035 1_554 S
O118 Zn117 2.028 . S
O118 C124 1.247 . S
O119 Zn115 2.035 . S
O119 C124 1.258 . S
O120 C113 1.247 . S
O120 Zn117 2.028 1_556 S
O121 C113 1.258 . S
O121 Zn115 2.035 1_556 S
O122 Zn115 2.028 1_556 S
O122 C125 1.247 . S
O123 Zn117 2.035 1_556 S
O123 C125 1.258 . S
C124 O118 1.247 . S
C124 O119 1.258 . S
C125 O122 1.247 . S
C125 O123 1.258 . S
C126 O128 1.247 . S
C126 O130 1.258 . S
C127 O134 1.247 . S
C127 O135 1.258 . S
O128 C126 1.247 . S
O128 Zn129 2.028 . S
Zn129 O128 2.028 . S
Zn129 O133 2.035 . S
Zn129 O135 2.035 1_554 S
Zn129 O136 2.028 1_554 S
O130 C126 1.258 . S
O130 Zn131 2.035 . S
Zn131 O130 2.035 . S
Zn131 O132 2.028 . S
Zn131 O134 2.028 1_554 S
Zn131 O137 2.035 1_554 S
O132 Zn131 2.028 . S
O132 C138 1.247 . S
O133 Zn129 2.035 . S
O133 C138 1.258 . S
O134 C127 1.247 . S
O134 Zn131 2.028 1_556 S
O135 C127 1.258 . S
O135 Zn129 2.035 1_556 S
O136 Zn129 2.028 1_556 S
O136 C139 1.247 . S
O137 Zn131 2.035 1_556 S
O137 C139 1.258 . S
C138 O132 1.247 . S
C138 O133 1.258 . S
C139 O136 1.247 . S
C139 O137 1.258 . S
C140 O142 1.247 . S
C140 O144 1.258 . S
C141 O148 1.247 . S
C141 O149 1.258 . S
O142 C140 1.247 . S
O142 Zn143 2.028 . S
Zn143 O142 2.028 . S
Zn143 O147 2.035 . S
Zn143 O149 2.035 1_554 S
Zn143 O150 2.028 1_554 S
O144 C140 1.258 . S
O144 Zn145 2.035 . S
Zn145 O144 2.035 . S
Zn145 O146 2.028 . S
Zn145 O148 2.028 1_554 S
Zn145 O151 2.035 1_554 S
O146 Zn145 2.028 . S
O146 C152 1.247 . S
O147 Zn143 2.035 . S
O147 C152 1.258 . S
O148 C141 1.247 . S
O148 Zn145 2.028 1_556 S
O149 C141 1.258 . S
O149 Zn143 2.035 1_556 S
O150 Zn143 2.028 1_556 S
O150 C153 1.247 . S
O151 Zn145 2.035 1_556 S
O151 C153 1.258 . S
C152 O146 1.247 . S
C152 O147 1.258 . S
C153 O150 1.247 . S
C153 O151 1.258 . S
C154 O156 1.247 . S
C154 O158 1.258 . S
C155 O162 1.247 . S
C155 O163 1.258 . S
O156 C154 1.247 . S
O156 Zn157 2.028 1_556 S
Zn157 O156 2.028 1_554 S
Zn157 O161 2.035 1_554 S
Zn157 O163 2.035 . S
Zn157 O164 2.028 . S
O158 C154 1.258 . S
O158 Zn159 2.035 1_556 S
Zn159 O158 2.035 1_554 S
Zn159 O160 2.028 1_554 S
Zn159 O162 2.028 . S
Zn159 O165 2.035 . S
O160 Zn159 2.028 1_556 S
O160 C166 1.247 . S
O161 Zn157 2.035 1_556 S
O161 C166 1.258 . S
O162 C155 1.247 . S
O162 Zn159 2.028 . S
O163 C155 1.258 . S
O163 Zn157 2.035 . S
O164 Zn157 2.028 . S
O164 C167 1.247 . S
O165 Zn159 2.035 . S
O165 C167 1.258 . S
C166 O160 1.247 . S
C166 O161 1.258 . S
C167 O164 1.247 . S
C167 O165 1.258 . S
C168 O170 1.247 . S
C168 O172 1.258 . S
C169 O176 1.247 . S
C169 O177 1.258 . S
O170 C168 1.247 . S
O170 Zn171 2.028 . S
Zn171 O170 2.028 . S
Zn171 O175 2.035 . S
Zn171 O177 2.035 . S
Zn171 O178 2.028 . S
O172 C168 1.258 . S
O172 Zn173 2.035 . S
Zn173 O172 2.035 . S
Zn173 O174 2.028 . S
Zn173 O176 2.028 . S
Zn173 O179 2.035 . S
O174 Zn173 2.028 . S
O174 C180 1.247 . S
O175 Zn171 2.035 . S
O175 C180 1.258 . S
O176 C169 1.247 . S
O176 Zn173 2.028 . S
O177 C169 1.258 . S
O177 Zn171 2.035 . S
O178 Zn171 2.028 . S
O178 C181 1.247 . S
O179 Zn173 2.035 . S
O179 C181 1.258 . S
C180 O174 1.247 . S
C180 O175 1.258 . S
C181 O178 1.247 . S
C181 O179 1.258 . S
C182 O184 1.247 . S
C182 O186 1.258 . S
C183 O190 1.247 . S
C183 O191 1.258 . S
O184 C182 1.247 . S
O184 Zn185 2.028 . S
Zn185 O184 2.028 . S
Zn185 O189 2.035 . S
Zn185 O191 2.035 . S
Zn185 O192 2.028 . S
O186 C182 1.258 . S
O186 Zn187 2.035 . S
Zn187 O186 2.035 . S
Zn187 O188 2.028 . S
Zn187 O190 2.028 . S
Zn187 O193 2.035 . S
O188 Zn187 2.028 . S
O188 C194 1.247 . S
O189 Zn185 2.035 . S
O189 C194 1.258 . S
O190 C183 1.247 . S
O190 Zn187 2.028 . S
O191 C183 1.258 . S
O191 Zn185 2.035 . S
O192 Zn185 2.028 . S
O192 C195 1.247 . S
O193 Zn187 2.035 . S
O193 C195 1.258 . S
C194 O188 1.247 . S
C194 O189 1.258 . S
C195 O192 1.247 . S
C195 O193 1.258 . S
C196 O198 1.247 . S
C196 O200 1.258 . S
C197 O204 1.247 . S
C197 O205 1.258 . S
O198 C196 1.247 . S
O198 Zn199 2.028 . S
Zn199 O198 2.028 . S
Zn199 O203 2.035 . S
Zn199 O205 2.035 . S
Zn199 O206 2.028 . S
O200 C196 1.258 . S
O200 Zn201 2.035 . S
Zn201 O200 2.035 . S
Zn201 O202 2.028 . S
Zn201 O204 2.028 . S
Zn201 O207 2.035 . S
O202 Zn201 2.028 . S
O202 C208 1.247 . S
O203 Zn199 2.035 . S
O203 C208 1.258 . S
O204 C197 1.247 . S
O204 Zn201 2.028 . S
O205 C197 1.258 . S
O205 Zn199 2.035 . S
O206 Zn199 2.028 . S
O206 C209 1.247 . S
O207 Zn201 2.035 . S
O207 C209 1.258 . S
C208 O202 1.247 . S
C208 O203 1.258 . S
C209 O206 1.247 . S
C209 O207 1.258 . S
C210 O212 1.247 . S
C210 O214 1.258 . S
C211 O218 1.247 . S
C211 O219 1.258 . S
O212 C210 1.247 . S
O212 Zn213 2.028 . S
Zn213 O212 2.028 . S
Zn213 O217 2.035 . S
Zn213 O219 2.035 . S
Zn213 O220 2.028 . S
O214 C210 1.258 . S
O214 Zn215 2.035 . S
Zn215 O214 2.035 . S
Zn215 O216 2.028 . S
Zn215 O218 2.028 . S
Zn215 O221 2.035 . S
O216 Zn215 2.028 . S
O216 C222 1.247 . S
O217 Zn213 2.035 . S
O217 C222 1.258 . S
O218 C211 1.247 . S
O218 Zn215 2.028 . S
O219 C211 1.258 . S
O219 Zn213 2.035 . S
O220 Zn213 2.028 . S
O220 C223 1.247 . S
O221 Zn215 2.035 . S
O221 C223 1.258 . S
C222 O216 1.247 . S
C222 O217 1.258 . S
C223 O220 1.247 . S
C223 O221 1.258 . S
C224 O226 1.247 . S
C224 O228 1.258 . S
C225 O232 1.247 . S
C225 O233 1.258 . S
O226 C224 1.247 . S
O226 Zn227 2.028 . S
Zn227 O226 2.028 . S
Zn227 O231 2.035 . S
Zn227 O233 2.035 . S
Zn227 O234 2.028 . S
O228 C224 1.258 . S
O228 Zn229 2.035 . S
Zn229 O228 2.035 . S
Zn229 O230 2.028 . S
Zn229 O232 2.028 . S
Zn229 O235 2.035 . S
O230 Zn229 2.028 . S
O230 C236 1.247 . S
O231 Zn227 2.035 . S
O231 C236 1.258 . S
O232 C225 1.247 . S
O232 Zn229 2.028 . S
O233 C225 1.258 . S
O233 Zn227 2.035 . S
O234 Zn227 2.028 . S
O234 C237 1.247 . S
O235 Zn229 2.035 . S
O235 C237 1.258 . S
C236 O230 1.247 . S
C236 O231 1.258 . S
C237 O234 1.247 . S
C237 O235 1.258 . S
C238 O240 1.247 . S
C238 O242 1.258 . S
C239 O246 1.247 . S
C239 O247 1.258 . S
O240 C238 1.247 . S
O240 Zn241 2.028 . S
Zn241 O240 2.028 . S
Zn241 O245 2.035 . S
Zn241 O247 2.035 . S
Zn241 O248 2.028 . S
O242 C238 1.258 . S
O242 Zn243 2.035 . S
Zn243 O242 2.035 . S
Zn243 O244 2.028 . S
Zn243 O246 2.028 . S
Zn243 O249 2.035 . S
O244 Zn243 2.028 . S
O244 C250 1.247 . S
O245 Zn241 2.035 . S
O245 C250 1.258 . S
O246 C239 1.247 . S
O246 Zn243 2.028 . S
O247 C239 1.258 . S
O247 Zn241 2.035 . S
O248 Zn241 2.028 . S
O248 C251 1.247 . S
O249 Zn243 2.035 . S
O249 C251 1.258 . S
C250 O244 1.247 . S
C250 O245 1.258 . S
C251 O248 1.247 . S
C251 O249 1.258 . S
C252 O254 1.247 . S
C252 O256 1.258 . S
C253 O260 1.247 . S
C253 O261 1.258 . S
O254 C252 1.247 . S
O254 Zn255 2.028 . S
Zn255 O254 2.028 . S
Zn255 O259 2.035 . S
Zn255 O261 2.035 . S
Zn255 O262 2.028 . S
O256 C252 1.258 . S
O256 Zn257 2.035 . S
Zn257 O256 2.035 . S
Zn257 O258 2.028 . S
Zn257 O260 2.028 . S
Zn257 O263 2.035 . S
O258 Zn257 2.028 . S
O258 C264 1.247 . S
O259 Zn255 2.035 . S
O259 C264 1.258 . S
O260 C253 1.247 . S
O260 Zn257 2.028 . S
O261 C253 1.258 . S
O261 Zn255 2.035 . S
O262 Zn255 2.028 . S
O262 C265 1.247 . S
O263 Zn257 2.035 . S
O263 C265 1.258 . S
C264 O258 1.247 . S
C264 O259 1.258 . S
C265 O262 1.247 . S
C265 O263 1.258 . S
C266 O268 1.247 . S
C266 O270 1.258 . S
C267 O274 1.247 . S
C267 O275 1.258 . S
O268 C266 1.247 . S
O268 Zn269 2.028 . S
Zn269 O268 2.028 . S
Zn269 O273 2.035 . S
Zn269 O275 2.035 . S
Zn269 O276 2.028 . S
O270 C266 1.258 . S
O270 Zn271 2.035 . S
Zn271 O270 2.035 . S
Zn271 O272 2.028 . S
Zn271 O274 2.028 . S
Zn271 O277 2.035 . S
O272 Zn271 2.028 . S
O272 C278 1.247 . S
O273 Zn269 2.035 . S
O273 C278 1.258 . S
O274 C267 1.247 . S
O274 Zn271 2.028 . S
O275 C267 1.258 . S
O275 Zn269 2.035 . S
O276 Zn269 2.028 . S
O276 C279 1.247 . S
O277 Zn271 2.035 . S
O277 C279 1.258 . S
C278 O272 1.247 . S
C278 O273 1.258 . S
C279 O276 1.247 . S
C279 O277 1.258 . S
C280 O282 1.247 . S
C280 O284 1.258 . S
C281 O288 1.247 . S
C281 O289 1.258 . S
O282 C280 1.247 . S
O282 Zn283 2.028 . S
Zn283 O282 2.028 . S
Zn283 O287 2.035 . S
Zn283 O289 2.035 . S
Zn283 O290 2.028 . S
O284 C280 1.258 . S
O284 Zn285 2.035 . S
Zn285 O284 2.035 . S
Zn285 O286 2.028 . S
Zn285 O288 2.028 . S
Zn285 O291 2.035 . S
O286 Zn285 2.028 . S
O286 C292 1.247 . S
O287 Zn283 2.035 . S
O287 C292 1.258 . S
O288 C281 1.247 . S
O288 Zn285 2.028 . S
O289 C281 1.258 . S
O289 Zn283 2.035 . S
O290 Zn283 2.028 . S
O290 C293 1.247 . S
O291 Zn285 2.035 . S
O291 C293 1.258 . S
C292 O286 1.247 . S
C292 O287 1.258 . S
C293 O290 1.247 . S
C293 O291 1.258 . S
C294 O296 1.247 . S
C294 O298 1.258 . S
C295 O302 1.247 . S
C295 O303 1.258 . S
O296 C294 1.247 . S
O296 Zn297 2.028 . S
Zn297 O296 2.028 . S
Zn297 O301 2.035 . S
Zn297 O303 2.035 . S
Zn297 O304 2.028 . S
O298 C294 1.258 . S
O298 Zn299 2.035 . S
Zn299 O298 2.035 . S
Zn299 O300 2.028 . S
Zn299 O302 2.028 . S
Zn299 O305 2.035 . S
O300 Zn299 2.028 . S
O300 C306 1.247 . S
O301 Zn297 2.035 . S
O301 C306 1.258 . S
O302 C295 1.247 . S
O302 Zn299 2.028 . S
O303 C295 1.258 . S
O303 Zn297 2.035 . S
O304 Zn297 2.028 . S
O304 C307 1.247 . S
O305 Zn299 2.035 . S
O305 C307 1.258 . S
C306 O300 1.247 . S
C306 O301 1.258 . S
C307 O304 1.247 . S
C307 O305 1.258 . S
C308 O310 1.247 . S
C308 O312 1.258 . S
C309 O316 1.247 . S
C309 O317 1.258 . S
O310 C308 1.247 . S
O310 Zn311 2.028 . S
Zn311 O310 2.028 . S
Zn311 O315 2.035 . S
Zn311 O317 2.035 . S
Zn311 O318 2.028 . S
O312 C308 1.258 . S
O312 Zn313 2.035 . S
Zn313 O312 2.035 . S
Zn313 O314 2.028 . S
Zn313 O316 2.028 . S
Zn313 O319 2.035 . S
O314 Zn313 2.028 . S
O314 C320 1.247 . S
O315 Zn311 2.035 . S
O315 C320 1.258 . S
O316 C309 1.247 . S
O316 Zn313 2.028 . S
O317 C309 1.258 . S
O317 Zn311 2.035 . S
O318 Zn311 2.028 . S
O318 C321 1.247 . S
O319 Zn313 2.035 . S
O319 C321 1.258 . S
C320 O314 1.247 . S
C320 O315 1.258 . S
C321 O318 1.247 . S
C321 O319 1.258 . S
C322 O324 1.247 . S
C322 O326 1.258 . S
C323 O330 1.247 . S
C323 O331 1.258 . S
O324 C322 1.247 . S
O324 Zn325 2.028 . S
Zn325 O324 2.028 . S
Zn325 O329 2.035 . S
Zn325 O331 2.035 . S
Zn325 O332 2.028 . S
O326 C322 1.258 . S
O326 Zn327 2.035 . S
Zn327 O326 2.035 . S
Zn327 O328 2.028 . S
Zn327 O330 2.028 . S
Zn327 O333 2.035 . S
O328 Zn327 2.028 . S
O328 C334 1.247 . S
O329 Zn325 2.035 . S
O329 C334 1.258 . S
O330 C323 1.247 . S
O330 Zn327 2.028 . S
O331 C323 1.258 . S
O331 Zn325 2.035 . S
O332 Zn325 2.028 . S
O332 C335 1.247 . S
O333 Zn327 2.035 . S
O333 C335 1.258 . S
C334 O328 1.247 . S
C334 O329 1.258 . S
C335 O332 1.247 . S
C335 O333 1.258 . S
C336 C337 1.391 . S
C336 C338 1.394 . S
C336 H352 0.931 . S
C337 C336 1.391 . S
C337 C341 1.376 . S
C338 C336 1.394 . S
C338 C339 1.369 . S
C338 C342 1.531 . S
C339 C338 1.369 . S
C339 C340 1.410 . S
C339 C347 1.503 . S
C340 C339 1.410 . S
C340 C341 1.392 . S
C340 C343 1.511 . S
C341 C337 1.376 . S
C341 C340 1.392 . S
C341 H353 0.929 . S
C342 C338 1.531 . S
C342 H354 0.960 . S
C342 H355 0.962 . S
C342 H356 0.960 . S
C343 C340 1.511 . S
C343 H357 0.961 . S
C343 H358 0.961 . S
C343 H359 0.961 . S
C344 C345 1.370 . S
C344 C346 1.363 . S
C344 H360 0.931 . S
C345 C344 1.370 . S
C345 C349 1.408 . S
C346 C344 1.363 . S
C346 C347 1.370 . S
C346 C350 1.524 . S
C347 C339 1.503 . S
C347 C346 1.370 . S
C347 C348 1.403 . S
C348 C347 1.403 . S
C348 C349 1.404 . S
C348 C351 1.539 . S
C349 C345 1.408 . S
C349 C348 1.404 . S
C349 H361 0.930 . S
C350 C346 1.524 . S
C350 H362 0.956 . S
C350 H363 0.961 . S
C350 H364 0.961 . S
C351 C348 1.539 . S
C351 H365 0.958 . S
C351 H366 0.961 . S
C351 H367 0.960 . S
H352 C336 0.931 . S
H353 C341 0.929 . S
H354 C342 0.960 . S
H355 C342 0.962 . S
H356 C342 0.960 . S
H357 C343 0.961 . S
H358 C343 0.961 . S
H359 C343 0.961 . S
H360 C344 0.931 . S
H361 C349 0.930 . S
H362 C350 0.956 . S
H363 C350 0.961 . S
H364 C350 0.961 . S
H365 C351 0.958 . S
H366 C351 0.961 . S
H367 C351 0.960 . S
C368 C369 1.391 . S
C368 C370 1.394 . S
C368 H384 0.931 . S
C369 C368 1.391 . S
C369 C373 1.376 . S
C370 C368 1.394 . S
C370 C371 1.369 . S
C370 C374 1.531 . S
C371 C370 1.369 . S
C371 C372 1.410 . S
C371 C379 1.503 . S
C372 C371 1.410 . S
C372 C373 1.392 . S
C372 C375 1.511 . S
C373 C369 1.376 . S
C373 C372 1.392 . S
C373 H385 0.929 . S
C374 C370 1.531 . S
C374 H386 0.960 . S
C374 H387 0.962 . S
C374 H388 0.960 . S
C375 C372 1.511 . S
C375 H389 0.961 . S
C375 H390 0.961 . S
C375 H391 0.961 . S
C376 C377 1.370 . S
C376 C378 1.363 . S
C376 H392 0.931 . S
C377 C376 1.370 . S
C377 C381 1.408 . S
C378 C376 1.363 . S
C378 C379 1.370 . S
C378 C382 1.524 . S
C379 C371 1.503 . S
C379 C378 1.370 . S
C379 C380 1.403 . S
C380 C379 1.403 . S
C380 C381 1.404 . S
C380 C383 1.539 . S
C381 C377 1.408 . S
C381 C380 1.404 . S
C381 H393 0.930 . S
C382 C378 1.524 . S
C382 H394 0.956 . S
C382 H395 0.961 . S
C382 H396 0.961 . S
C383 C380 1.539 . S
C383 H397 0.958 . S
C383 H398 0.961 . S
C383 H399 0.960 . S
H384 C368 0.931 . S
H385 C373 0.929 . S
H386 C374 0.960 . S
H387 C374 0.962 . S
H388 C374 0.960 . S
H389 C375 0.961 . S
H390 C375 0.961 . S
H391 C375 0.961 . S
H392 C376 0.931 . S
H393 C381 0.930 . S
H394 C382 0.956 . S
H395 C382 0.961 . S
H396 C382 0.961 . S
H397 C383 0.958 . S
H398 C383 0.961 . S
H399 C383 0.960 . S
C400 C401 1.391 . S
C400 C402 1.394 . S
C400 H416 0.931 . S
C401 C400 1.391 . S
C401 C405 1.376 . S
C402 C400 1.394 . S
C402 C403 1.369 . S
C402 C406 1.531 . S
C403 C402 1.369 . S
C403 C404 1.410 . S
C403 C411 1.503 . S
C404 C403 1.410 . S
C404 C405 1.392 . S
C404 C407 1.511 . S
C405 C401 1.376 . S
C405 C404 1.392 . S
C405 H417 0.929 . S
C406 C402 1.531 . S
C406 H418 0.960 . S
C406 H419 0.962 . S
C406 H420 0.960 . S
C407 C404 1.511 . S
C407 H421 0.961 . S
C407 H422 0.961 . S
C407 H423 0.961 . S
C408 C409 1.370 . S
C408 C410 1.363 . S
C408 H424 0.931 . S
C409 C408 1.370 . S
C409 C413 1.408 . S
C410 C408 1.363 . S
C410 C411 1.370 . S
C410 C414 1.524 . S
C411 C403 1.503 . S
C411 C410 1.370 . S
C411 C412 1.403 . S
C412 C411 1.403 . S
C412 C413 1.404 . S
C412 C415 1.539 . S
C413 C409 1.408 . S
C413 C412 1.404 . S
C413 H425 0.930 . S
C414 C410 1.524 . S
C414 H426 0.956 . S
C414 H427 0.961 . S
C414 H428 0.961 . S
C415 C412 1.539 . S
C415 H429 0.958 . S
C415 H430 0.961 . S
C415 H431 0.960 . S
H416 C400 0.931 . S
H417 C405 0.929 . S
H418 C406 0.960 . S
H419 C406 0.962 . S
H420 C406 0.960 . S
H421 C407 0.961 . S
H422 C407 0.961 . S
H423 C407 0.961 . S
H424 C408 0.931 . S
H425 C413 0.930 . S
H426 C414 0.956 . S
H427 C414 0.961 . S
H428 C414 0.961 . S
H429 C415 0.958 . S
H430 C415 0.961 . S
H431 C415 0.960 . S
C432 C433 1.391 . S
C432 C434 1.394 . S
C432 H448 0.931 . S
C433 C432 1.391 . S
C433 C437 1.376 . S
C434 C432 1.394 . S
C434 C435 1.369 . S
C434 C438 1.531 . S
C435 C434 1.369 . S
C435 C436 1.410 . S
C435 C443 1.503 . S
C436 C435 1.410 . S
C436 C437 1.392 . S
C436 C439 1.511 . S
C437 C433 1.376 . S
C437 C436 1.392 . S
C437 H449 0.929 . S
C438 C434 1.531 . S
C438 H450 0.960 . S
C438 H451 0.962 . S
C438 H452 0.960 . S
C439 C436 1.511 . S
C439 H453 0.961 . S
C439 H454 0.961 . S
C439 H455 0.961 . S
C440 C441 1.370 . S
C440 C442 1.363 . S
C440 H456 0.931 . S
C441 C440 1.370 . S
C441 C445 1.408 . S
C442 C440 1.363 . S
C442 C443 1.370 . S
C442 C446 1.524 . S
C443 C435 1.503 . S
C443 C442 1.370 . S
C443 C444 1.403 . S
C444 C443 1.403 . S
C444 C445 1.404 . S
C444 C447 1.539 . S
C445 C441 1.408 . S
C445 C444 1.404 . S
C445 H457 0.930 . S
C446 C442 1.524 . S
C446 H458 0.956 . S
C446 H459 0.961 . S
C446 H460 0.961 . S
C447 C444 1.539 . S
C447 H461 0.958 . S
C447 H462 0.961 . S
C447 H463 0.960 . S
H448 C432 0.931 . S
H449 C437 0.929 . S
H450 C438 0.960 . S
H451 C438 0.962 . S
H452 C438 0.960 . S
H453 C439 0.961 . S
H454 C439 0.961 . S
H455 C439 0.961 . S
H456 C440 0.931 . S
H457 C445 0.930 . S
H458 C446 0.956 . S
H459 C446 0.961 . S
H460 C446 0.961 . S
H461 C447 0.958 . S
H462 C447 0.961 . S
H463 C447 0.960 . S
C464 C465 1.391 . S
C464 C466 1.394 . S
C464 H480 0.931 . S
C465 C464 1.391 . S
C465 C469 1.376 . S
C466 C464 1.394 . S
C466 C467 1.369 . S
C466 C470 1.531 . S
C467 C466 1.369 . S
C467 C468 1.410 . S
C467 C475 1.503 . S
C468 C467 1.410 . S
C468 C469 1.392 . S
C468 C471 1.511 . S
C469 C465 1.376 . S
C469 C468 1.392 . S
C469 H481 0.929 . S
C470 C466 1.531 . S
C470 H482 0.960 . S
C470 H483 0.962 . S
C470 H484 0.960 . S
C471 C468 1.511 . S
C471 H485 0.961 . S
C471 H486 0.961 . S
C471 H487 0.961 . S
C472 C473 1.370 . S
C472 C474 1.363 . S
C472 H488 0.931 . S
C473 C472 1.370 . S
C473 C477 1.408 . S
C474 C472 1.363 . S
C474 C475 1.370 . S
C474 C478 1.524 . S
C475 C467 1.503 . S
C475 C474 1.370 . S
C475 C476 1.403 . S
C476 C475 1.403 . S
C476 C477 1.404 . S
C476 C479 1.539 . S
C477 C473 1.408 . S
C477 C476 1.404 . S
C477 H489 0.930 . S
C478 C474 1.524 . S
C478 H490 0.956 . S
C478 H491 0.961 . S
C478 H492 0.961 . S
C479 C476 1.539 . S
C479 H493 0.958 . S
C479 H494 0.961 . S
C479 H495 0.960 . S
H480 C464 0.931 . S
H481 C469 0.929 . S
H482 C470 0.960 . S
H483 C470 0.962 . S
H484 C470 0.960 . S
H485 C471 0.961 . S
H486 C471 0.961 . S
H487 C471 0.961 . S
H488 C472 0.931 . S
H489 C477 0.930 . S
H490 C478 0.956 . S
H491 C478 0.961 . S
H492 C478 0.961 . S
H493 C479 0.958 . S
H494 C479 0.961 . S
H495 C479 0.960 . S
C496 C497 1.391 . S
C496 C498 1.394 . S
C496 H512 0.931 . S
C497 C496 1.391 . S
C497 C501 1.376 . S
C498 C496 1.394 . S
C498 C499 1.369 . S
C498 C502 1.531 . S
C499 C498 1.369 . S
C499 C500 1.410 . S
C499 C507 1.503 . S
C500 C499 1.410 . S
C500 C501 1.392 . S
C500 C503 1.511 . S
C501 C497 1.376 . S
C501 C500 1.392 . S
C501 H513 0.929 . S
C502 C498 1.531 . S
C502 H514 0.960 . S
C502 H515 0.962 . S
C502 H516 0.960 . S
C503 C500 1.511 . S
C503 H517 0.961 . S
C503 H518 0.961 . S
C503 H519 0.961 . S
C504 C505 1.370 . S
C504 C506 1.363 . S
C504 H520 0.931 . S
C505 C504 1.370 . S
C505 C509 1.408 . S
C506 C504 1.363 . S
C506 C507 1.370 . S
C506 C510 1.524 . S
C507 C499 1.503 . S
C507 C506 1.370 . S
C507 C508 1.403 . S
C508 C507 1.403 . S
C508 C509 1.404 . S
C508 C511 1.539 . S
C509 C505 1.408 . S
C509 C508 1.404 . S
C509 H521 0.930 . S
C510 C506 1.524 . S
C510 H522 0.956 . S
C510 H523 0.961 . S
C510 H524 0.961 . S
C511 C508 1.539 . S
C511 H525 0.958 . S
C511 H526 0.961 . S
C511 H527 0.960 . S
H512 C496 0.931 . S
H513 C501 0.929 . S
H514 C502 0.960 . S
H515 C502 0.962 . S
H516 C502 0.960 . S
H517 C503 0.961 . S
H518 C503 0.961 . S
H519 C503 0.961 . S
H520 C504 0.931 . S
H521 C509 0.930 . S
H522 C510 0.956 . S
H523 C510 0.961 . S
H524 C510 0.961 . S
H525 C511 0.958 . S
H526 C511 0.961 . S
H527 C511 0.960 . S
C528 C529 1.391 . S
C528 C530 1.394 . S
C528 H544 0.931 . S
C529 C528 1.391 . S
C529 C533 1.376 . S
C530 C528 1.394 . S
C530 C531 1.369 . S
C530 C534 1.531 . S
C531 C530 1.369 . S
C531 C532 1.410 . S
C531 C539 1.503 . S
C532 C531 1.410 . S
C532 C533 1.392 . S
C532 C535 1.511 . S
C533 C529 1.376 . S
C533 C532 1.392 . S
C533 H545 0.929 . S
C534 C530 1.531 . S
C534 H546 0.960 . S
C534 H547 0.962 . S
C534 H548 0.960 . S
C535 C532 1.511 . S
C535 H549 0.961 . S
C535 H550 0.961 . S
C535 H551 0.961 . S
C536 C537 1.370 . S
C536 C538 1.363 . S
C536 H552 0.931 . S
C537 C536 1.370 . S
C537 C541 1.408 . S
C538 C536 1.363 . S
C538 C539 1.370 . S
C538 C542 1.524 . S
C539 C531 1.503 . S
C539 C538 1.370 . S
C539 C540 1.403 . S
C540 C539 1.403 . S
C540 C541 1.404 . S
C540 C543 1.539 . S
C541 C537 1.408 . S
C541 C540 1.404 . S
C541 H553 0.930 . S
C542 C538 1.524 . S
C542 H554 0.956 . S
C542 H555 0.961 . S
C542 H556 0.961 . S
C543 C540 1.539 . S
C543 H557 0.958 . S
C543 H558 0.961 . S
C543 H559 0.960 . S
H544 C528 0.931 . S
H545 C533 0.929 . S
H546 C534 0.960 . S
H547 C534 0.962 . S
H548 C534 0.960 . S
H549 C535 0.961 . S
H550 C535 0.961 . S
H551 C535 0.961 . S
H552 C536 0.931 . S
H553 C541 0.930 . S
H554 C542 0.956 . S
H555 C542 0.961 . S
H556 C542 0.961 . S
H557 C543 0.958 . S
H558 C543 0.961 . S
H559 C543 0.960 . S
C560 C561 1.391 . S
C560 C562 1.394 . S
C560 H576 0.931 . S
C561 C560 1.391 . S
C561 C565 1.376 . S
C562 C560 1.394 . S
C562 C563 1.369 . S
C562 C566 1.531 . S
C563 C562 1.369 . S
C563 C564 1.410 . S
C563 C571 1.503 . S
C564 C563 1.410 . S
C564 C565 1.392 . S
C564 C567 1.511 . S
C565 C561 1.376 . S
C565 C564 1.392 . S
C565 H577 0.929 . S
C566 C562 1.531 . S
C566 H578 0.960 . S
C566 H579 0.962 . S
C566 H580 0.960 . S
C567 C564 1.511 . S
C567 H581 0.961 . S
C567 H582 0.961 . S
C567 H583 0.961 . S
C568 C569 1.370 . S
C568 C570 1.363 . S
C568 H584 0.931 . S
C569 C568 1.370 . S
C569 C573 1.408 . S
C570 C568 1.363 . S
C570 C571 1.370 . S
C570 C574 1.524 . S
C571 C563 1.503 . S
C571 C570 1.370 . S
C571 C572 1.403 . S
C572 C571 1.403 . S
C572 C573 1.404 . S
C572 C575 1.539 . S
C573 C569 1.408 . S
C573 C572 1.404 . S
C573 H585 0.930 . S
C574 C570 1.524 . S
C574 H586 0.956 . S
C574 H587 0.961 . S
C574 H588 0.961 . S
C575 C572 1.539 . S
C575 H589 0.958 . S
C575 H590 0.961 . S
C575 H591 0.960 . S
H576 C560 0.931 . S
H577 C565 0.929 . S
H578 C566 0.960 . S
H579 C566 0.962 . S
H580 C566 0.960 . S
H581 C567 0.961 . S
H582 C567 0.961 . S
H583 C567 0.961 . S
H584 C568 0.931 . S
H585 C573 0.930 . S
H586 C574 0.956 . S
H587 C574 0.961 . S
H588 C574 0.961 . S
H589 C575 0.958 . S
H590 C575 0.961 . S
H591 C575 0.960 . S
C592 C593 1.391 . S
C592 C594 1.394 . S
C592 H608 0.931 . S
C593 C592 1.391 . S
C593 C597 1.376 . S
C594 C592 1.394 . S
C594 C595 1.369 . S
C594 C598 1.531 . S
C595 C594 1.369 . S
C595 C596 1.410 . S
C595 C603 1.503 . S
C596 C595 1.410 . S
C596 C597 1.392 . S
C596 C599 1.511 . S
C597 C593 1.376 . S
C597 C596 1.392 . S
C597 H609 0.929 . S
C598 C594 1.531 . S
C598 H610 0.960 . S
C598 H611 0.962 . S
C598 H612 0.960 . S
C599 C596 1.511 . S
C599 H613 0.961 . S
C599 H614 0.961 . S
C599 H615 0.961 . S
C600 C601 1.370 . S
C600 C602 1.363 . S
C600 H616 0.931 . S
C601 C600 1.370 . S
C601 C605 1.408 . S
C602 C600 1.363 . S
C602 C603 1.370 . S
C602 C606 1.524 . S
C603 C595 1.503 . S
C603 C602 1.370 . S
C603 C604 1.403 . S
C604 C603 1.403 . S
C604 C605 1.404 . S
C604 C607 1.539 . S
C605 C601 1.408 . S
C605 C604 1.404 . S
C605 H617 0.930 . S
C606 C602 1.524 . S
C606 H618 0.956 . S
C606 H619 0.961 . S
C606 H620 0.961 . S
C607 C604 1.539 . S
C607 H621 0.958 . S
C607 H622 0.961 . S
C607 H623 0.960 . S
H608 C592 0.931 . S
H609 C597 0.929 . S
H610 C598 0.960 . S
H611 C598 0.962 . S
H612 C598 0.960 . S
H613 C599 0.961 . S
H614 C599 0.961 . S
H615 C599 0.961 . S
H616 C600 0.931 . S
H617 C605 0.930 . S
H618 C606 0.956 . S
H619 C606 0.961 . S
H620 C606 0.961 . S
H621 C607 0.958 . S
H622 C607 0.961 . S
H623 C607 0.960 . S
C624 C625 1.391 . S
C624 C626 1.394 . S
C624 H640 0.931 . S
C625 C624 1.391 . S
C625 C629 1.376 . S
C626 C624 1.394 . S
C626 C627 1.369 . S
C626 C630 1.531 . S
C627 C626 1.369 . S
C627 C628 1.410 . S
C627 C635 1.503 . S
C628 C627 1.410 . S
C628 C629 1.392 . S
C628 C631 1.511 . S
C629 C625 1.376 . S
C629 C628 1.392 . S
C629 H641 0.929 . S
C630 C626 1.531 . S
C630 H642 0.960 . S
C630 H643 0.962 . S
C630 H644 0.960 . S
C631 C628 1.511 . S
C631 H645 0.961 . S
C631 H646 0.961 . S
C631 H647 0.961 . S
C632 C633 1.370 . S
C632 C634 1.363 . S
C632 H648 0.931 . S
C633 C632 1.370 . S
C633 C637 1.408 . S
C634 C632 1.363 . S
C634 C635 1.370 . S
C634 C638 1.524 . S
C635 C627 1.503 . S
C635 C634 1.370 . S
C635 C636 1.403 . S
C636 C635 1.403 . S
C636 C637 1.404 . S
C636 C639 1.539 . S
C637 C633 1.408 . S
C637 C636 1.404 . S
C637 H649 0.930 . S
C638 C634 1.524 . S
C638 H650 0.956 . S
C638 H651 0.961 . S
C638 H652 0.961 . S
C639 C636 1.539 . S
C639 H653 0.958 . S
C639 H654 0.961 . S
C639 H655 0.960 . S
H640 C624 0.931 . S
H641 C629 0.929 . S
H642 C630 0.960 . S
H643 C630 0.962 . S
H644 C630 0.960 . S
H645 C631 0.961 . S
H646 C631 0.961 . S
H647 C631 0.961 . S
H648 C632 0.931 . S
H649 C637 0.930 . S
H650 C638 0.956 . S
H651 C638 0.961 . S
H652 C638 0.961 . S
H653 C639 0.958 . S
H654 C639 0.961 . S
H655 C639 0.960 . S
C656 C657 1.391 . S
C656 C658 1.394 . S
C656 H672 0.931 . S
C657 C656 1.391 . S
C657 C661 1.376 . S
C658 C656 1.394 . S
C658 C659 1.369 . S
C658 C662 1.531 . S
C659 C658 1.369 . S
C659 C660 1.410 . S
C659 C667 1.503 . S
C660 C659 1.410 . S
C660 C661 1.392 . S
C660 C663 1.511 . S
C661 C657 1.376 . S
C661 C660 1.392 . S
C661 H673 0.929 . S
C662 C658 1.531 . S
C662 H674 0.960 . S
C662 H675 0.962 . S
C662 H676 0.960 . S
C663 C660 1.511 . S
C663 H677 0.961 . S
C663 H678 0.961 . S
C663 H679 0.961 . S
C664 C665 1.370 . S
C664 C666 1.363 . S
C664 H680 0.931 . S
C665 C664 1.370 . S
C665 C669 1.408 . S
C666 C664 1.363 . S
C666 C667 1.370 . S
C666 C670 1.524 . S
C667 C659 1.503 . S
C667 C666 1.370 . S
C667 C668 1.403 . S
C668 C667 1.403 . S
C668 C669 1.404 . S
C668 C671 1.539 . S
C669 C665 1.408 . S
C669 C668 1.404 . S
C669 H681 0.930 . S
C670 C666 1.524 . S
C670 H682 0.956 . S
C670 H683 0.961 . S
C670 H684 0.961 . S
C671 C668 1.539 . S
C671 H685 0.958 . S
C671 H686 0.961 . S
C671 H687 0.960 . S
H672 C656 0.931 . S
H673 C661 0.929 . S
H674 C662 0.960 . S
H675 C662 0.962 . S
H676 C662 0.960 . S
H677 C663 0.961 . S
H678 C663 0.961 . S
H679 C663 0.961 . S
H680 C664 0.931 . S
H681 C669 0.930 . S
H682 C670 0.956 . S
H683 C670 0.961 . S
H684 C670 0.961 . S
H685 C671 0.958 . S
H686 C671 0.961 . S
H687 C671 0.960 . S
C688 C689 1.391 . S
C688 C690 1.394 . S
C688 H704 0.931 . S
C689 C688 1.391 . S
C689 C693 1.376 . S
C690 C688 1.394 . S
C690 C691 1.369 . S
C690 C694 1.531 . S
C691 C690 1.369 . S
C691 C692 1.410 . S
C691 C699 1.503 . S
C692 C691 1.410 . S
C692 C693 1.392 . S
C692 C695 1.511 . S
C693 C689 1.376 . S
C693 C692 1.392 . S
C693 H705 0.929 . S
C694 C690 1.531 . S
C694 H706 0.960 . S
C694 H707 0.962 . S
C694 H708 0.960 . S
C695 C692 1.511 . S
C695 H709 0.961 . S
C695 H710 0.961 . S
C695 H711 0.961 . S
C696 C697 1.370 . S
C696 C698 1.363 . S
C696 H712 0.931 . S
C697 C696 1.370 . S
C697 C701 1.408 . S
C698 C696 1.363 . S
C698 C699 1.370 . S
C698 C702 1.524 . S
C699 C691 1.503 . S
C699 C698 1.370 . S
C699 C700 1.403 . S
C700 C699 1.403 . S
C700 C701 1.404 . S
C700 C703 1.539 . S
C701 C697 1.408 . S
C701 C700 1.404 . S
C701 H713 0.930 . S
C702 C698 1.524 . S
C702 H714 0.956 . S
C702 H715 0.961 . S
C702 H716 0.961 . S
C703 C700 1.539 . S
C703 H717 0.958 . S
C703 H718 0.961 . S
C703 H719 0.960 . S
H704 C688 0.931 . S
H705 C693 0.929 . S
H706 C694 0.960 . S
H707 C694 0.962 . S
H708 C694 0.960 . S
H709 C695 0.961 . S
H710 C695 0.961 . S
H711 C695 0.961 . S
H712 C696 0.931 . S
H713 C701 0.930 . S
H714 C702 0.956 . S
H715 C702 0.961 . S
H716 C702 0.961 . S
H717 C703 0.958 . S
H718 C703 0.961 . S
H719 C703 0.960 . S
C720 C721 1.391 . S
C720 C722 1.394 . S
C720 H736 0.931 . S
C721 C720 1.391 . S
C721 C725 1.376 . S
C722 C720 1.394 . S
C722 C723 1.369 . S
C722 C726 1.531 . S
C723 C722 1.369 . S
C723 C724 1.410 . S
C723 C731 1.503 . S
C724 C723 1.410 . S
C724 C725 1.392 . S
C724 C727 1.511 . S
C725 C721 1.376 . S
C725 C724 1.392 . S
C725 H737 0.929 . S
C726 C722 1.531 . S
C726 H738 0.960 . S
C726 H739 0.962 . S
C726 H740 0.960 . S
C727 C724 1.511 . S
C727 H741 0.961 . S
C727 H742 0.961 . S
C727 H743 0.961 . S
C728 C729 1.370 . S
C728 C730 1.363 . S
C728 H744 0.931 . S
C729 C728 1.370 . S
C729 C733 1.408 . S
C730 C728 1.363 . S
C730 C731 1.370 . S
C730 C734 1.524 . S
C731 C723 1.503 . S
C731 C730 1.370 . S
C731 C732 1.403 . S
C732 C731 1.403 . S
C732 C733 1.404 . S
C732 C735 1.539 . S
C733 C729 1.408 . S
C733 C732 1.404 . S
C733 H745 0.930 . S
C734 C730 1.524 . S
C734 H746 0.956 . S
C734 H747 0.961 . S
C734 H748 0.961 . S
C735 C732 1.539 . S
C735 H749 0.958 . S
C735 H750 0.961 . S
C735 H751 0.960 . S
H736 C720 0.931 . S
H737 C725 0.929 . S
H738 C726 0.960 . S
H739 C726 0.962 . S
H740 C726 0.960 . S
H741 C727 0.961 . S
H742 C727 0.961 . S
H743 C727 0.961 . S
H744 C728 0.931 . S
H745 C733 0.930 . S
H746 C734 0.956 . S
H747 C734 0.961 . S
H748 C734 0.961 . S
H749 C735 0.958 . S
H750 C735 0.961 . S
H751 C735 0.960 . S
C752 C753 1.391 . S
C752 C754 1.394 . S
C752 H768 0.931 . S
C753 C752 1.391 . S
C753 C757 1.376 . S
C754 C752 1.394 . S
C754 C755 1.369 . S
C754 C758 1.531 . S
C755 C754 1.369 . S
C755 C756 1.410 . S
C755 C763 1.503 . S
C756 C755 1.410 . S
C756 C757 1.392 . S
C756 C759 1.511 . S
C757 C753 1.376 . S
C757 C756 1.392 . S
C757 H769 0.929 . S
C758 C754 1.531 . S
C758 H770 0.960 . S
C758 H771 0.962 . S
C758 H772 0.960 . S
C759 C756 1.511 . S
C759 H773 0.961 . S
C759 H774 0.961 . S
C759 H775 0.961 . S
C760 C761 1.370 . S
C760 C762 1.363 . S
C760 H776 0.931 . S
C761 C760 1.370 . S
C761 C765 1.408 . S
C762 C760 1.363 . S
C762 C763 1.370 . S
C762 C766 1.524 . S
C763 C755 1.503 . S
C763 C762 1.370 . S
C763 C764 1.403 . S
C764 C763 1.403 . S
C764 C765 1.404 . S
C764 C767 1.539 . S
C765 C761 1.408 . S
C765 C764 1.404 . S
C765 H777 0.930 . S
C766 C762 1.524 . S
C766 H778 0.956 . S
C766 H779 0.961 . S
C766 H780 0.961 . S
C767 C764 1.539 . S
C767 H781 0.958 . S
C767 H782 0.961 . S
C767 H783 0.960 . S
H768 C752 0.931 . S
H769 C757 0.929 . S
H770 C758 0.960 . S
H771 C758 0.962 . S
H772 C758 0.960 . S
H773 C759 0.961 . S
H774 C759 0.961 . S
H775 C759 0.961 . S
H776 C760 0.931 . S
H777 C765 0.930 . S
H778 C766 0.956 . S
H779 C766 0.961 . S
H780 C766 0.961 . S
H781 C767 0.958 . S
H782 C767 0.961 . S
H783 C767 0.960 . S
C784 C785 1.391 . S
C784 C786 1.394 . S
C784 H800 0.931 . S
C785 C784 1.391 . S
C785 C789 1.376 . S
C786 C784 1.394 . S
C786 C787 1.369 . S
C786 C790 1.531 . S
C787 C786 1.369 . S
C787 C788 1.410 . S
C787 C795 1.503 . S
C788 C787 1.410 . S
C788 C789 1.392 . S
C788 C791 1.511 . S
C789 C785 1.376 . S
C789 C788 1.392 . S
C789 H801 0.929 . S
C790 C786 1.531 . S
C790 H802 0.960 . S
C790 H803 0.962 . S
C790 H804 0.960 . S
C791 C788 1.511 . S
C791 H805 0.961 . S
C791 H806 0.961 . S
C791 H807 0.961 . S
C792 C793 1.370 . S
C792 C794 1.363 . S
C792 H808 0.931 . S
C793 C792 1.370 . S
C793 C797 1.408 . S
C794 C792 1.363 . S
C794 C795 1.370 . S
C794 C798 1.524 . S
C795 C787 1.503 . S
C795 C794 1.370 . S
C795 C796 1.403 . S
C796 C795 1.403 . S
C796 C797 1.404 . S
C796 C799 1.539 . S
C797 C793 1.408 . S
C797 C796 1.404 . S
C797 H809 0.930 . S
C798 C794 1.524 . S
C798 H810 0.956 . S
C798 H811 0.961 . S
C798 H812 0.961 . S
C799 C796 1.539 . S
C799 H813 0.958 . S
C799 H814 0.961 . S
C799 H815 0.960 . S
H800 C784 0.931 . S
H801 C789 0.929 . S
H802 C790 0.960 . S
H803 C790 0.962 . S
H804 C790 0.960 . S
H805 C791 0.961 . S
H806 C791 0.961 . S
H807 C791 0.961 . S
H808 C792 0.931 . S
H809 C797 0.930 . S
H810 C798 0.956 . S
H811 C798 0.961 . S
H812 C798 0.961 . S
H813 C799 0.958 . S
H814 C799 0.961 . S
H815 C799 0.960 . S
C816 C817 1.391 . S
C816 C818 1.394 . S
C816 H832 0.931 . S
C817 C816 1.391 . S
C817 C821 1.376 . S
C818 C816 1.394 . S
C818 C819 1.369 . S
C818 C822 1.531 . S
C819 C818 1.369 . S
C819 C820 1.410 . S
C819 C827 1.503 . S
C820 C819 1.410 . S
C820 C821 1.392 . S
C820 C823 1.511 . S
C821 C817 1.376 . S
C821 C820 1.392 . S
C821 H833 0.929 . S
C822 C818 1.531 . S
C822 H834 0.960 . S
C822 H835 0.962 . S
C822 H836 0.960 . S
C823 C820 1.511 . S
C823 H837 0.961 . S
C823 H838 0.961 . S
C823 H839 0.961 . S
C824 C825 1.370 . S
C824 C826 1.363 . S
C824 H840 0.931 . S
C825 C824 1.370 . S
C825 C829 1.408 . S
C826 C824 1.363 . S
C826 C827 1.370 . S
C826 C830 1.524 . S
C827 C819 1.503 . S
C827 C826 1.370 . S
C827 C828 1.403 . S
C828 C827 1.403 . S
C828 C829 1.404 . S
C828 C831 1.539 . S
C829 C825 1.408 . S
C829 C828 1.404 . S
C829 H841 0.930 . S
C830 C826 1.524 . S
C830 H842 0.956 . S
C830 H843 0.961 . S
C830 H844 0.961 . S
C831 C828 1.539 . S
C831 H845 0.958 . S
C831 H846 0.961 . S
C831 H847 0.960 . S
H832 C816 0.931 . S
H833 C821 0.929 . S
H834 C822 0.960 . S
H835 C822 0.962 . S
H836 C822 0.960 . S
H837 C823 0.961 . S
H838 C823 0.961 . S
H839 C823 0.961 . S
H840 C824 0.931 . S
H841 C829 0.930 . S
H842 C830 0.956 . S
H843 C830 0.961 . S
H844 C830 0.961 . S
H845 C831 0.958 . S
H846 C831 0.961 . S
H847 C831 0.960 . S
C848 C849 1.391 . S
C848 C850 1.394 . S
C848 H864 0.931 . S
C849 C848 1.391 . S
C849 C853 1.376 . S
C850 C848 1.394 . S
C850 C851 1.369 . S
C850 C854 1.531 . S
C851 C850 1.369 . S
C851 C852 1.410 . S
C851 C859 1.503 . S
C852 C851 1.410 . S
C852 C853 1.392 . S
C852 C855 1.511 . S
C853 C849 1.376 . S
C853 C852 1.392 . S
C853 H865 0.929 . S
C854 C850 1.531 . S
C854 H866 0.960 . S
C854 H867 0.962 . S
C854 H868 0.960 . S
C855 C852 1.511 . S
C855 H869 0.961 . S
C855 H870 0.961 . S
C855 H871 0.961 . S
C856 C857 1.370 . S
C856 C858 1.363 . S
C856 H872 0.931 . S
C857 C856 1.370 . S
C857 C861 1.408 . S
C858 C856 1.363 . S
C858 C859 1.370 . S
C858 C862 1.524 . S
C859 C851 1.503 . S
C859 C858 1.370 . S
C859 C860 1.403 . S
C860 C859 1.403 . S
C860 C861 1.404 . S
C860 C863 1.539 . S
C861 C857 1.408 . S
C861 C860 1.404 . S
C861 H873 0.930 . S
C862 C858 1.524 . S
C862 H874 0.956 . S
C862 H875 0.961 . S
C862 H876 0.961 . S
C863 C860 1.539 . S
C863 H877 0.958 . S
C863 H878 0.961 . S
C863 H879 0.960 . S
H864 C848 0.931 . S
H865 C853 0.929 . S
H866 C854 0.960 . S
H867 C854 0.962 . S
H868 C854 0.960 . S
H869 C855 0.961 . S
H870 C855 0.961 . S
H871 C855 0.961 . S
H872 C856 0.931 . S
H873 C861 0.930 . S
H874 C862 0.956 . S
H875 C862 0.961 . S
H876 C862 0.961 . S
H877 C863 0.958 . S
H878 C863 0.961 . S
H879 C863 0.960 . S
C880 C881 1.391 . S
C880 C882 1.394 . S
C880 H896 0.931 . S
C881 C880 1.391 . S
C881 C885 1.376 . S
C882 C880 1.394 . S
C882 C883 1.369 . S
C882 C886 1.531 . S
C883 C882 1.369 . S
C883 C884 1.410 . S
C883 C891 1.503 . S
C884 C883 1.410 . S
C884 C885 1.392 . S
C884 C887 1.511 . S
C885 C881 1.376 . S
C885 C884 1.392 . S
C885 H897 0.929 . S
C886 C882 1.531 . S
C886 H898 0.960 . S
C886 H899 0.962 . S
C886 H900 0.960 . S
C887 C884 1.511 . S
C887 H901 0.961 . S
C887 H902 0.961 . S
C887 H903 0.961 . S
C888 C889 1.370 . S
C888 C890 1.363 . S
C888 H904 0.931 . S
C889 C888 1.370 . S
C889 C893 1.408 . S
C890 C888 1.363 . S
C890 C891 1.370 . S
C890 C894 1.524 . S
C891 C883 1.503 . S
C891 C890 1.370 . S
C891 C892 1.403 . S
C892 C891 1.403 . S
C892 C893 1.404 . S
C892 C895 1.539 . S
C893 C889 1.408 . S
C893 C892 1.404 . S
C893 H905 0.930 . S
C894 C890 1.524 . S
C894 H906 0.956 . S
C894 H907 0.961 . S
C894 H908 0.961 . S
C895 C892 1.539 . S
C895 H909 0.958 . S
C895 H910 0.961 . S
C895 H911 0.960 . S
H896 C880 0.931 . S
H897 C885 0.929 . S
H898 C886 0.960 . S
H899 C886 0.962 . S
H900 C886 0.960 . S
H901 C887 0.961 . S
H902 C887 0.961 . S
H903 C887 0.961 . S
H904 C888 0.931 . S
H905 C893 0.930 . S
H906 C894 0.956 . S
H907 C894 0.961 . S
H908 C894 0.961 . S
H909 C895 0.958 . S
H910 C895 0.961 . S
H911 C895 0.960 . S
C912 C913 1.391 . S
C912 C914 1.394 . S
C912 H928 0.931 . S
C913 C912 1.391 . S
C913 C917 1.376 . S
C914 C912 1.394 . S
C914 C915 1.369 . S
C914 C918 1.531 . S
C915 C914 1.369 . S
C915 C916 1.410 . S
C915 C923 1.503 . S
C916 C915 1.410 . S
C916 C917 1.392 . S
C916 C919 1.511 . S
C917 C913 1.376 . S
C917 C916 1.392 . S
C917 H929 0.929 . S
C918 C914 1.531 . S
C918 H930 0.960 . S
C918 H931 0.962 . S
C918 H932 0.960 . S
C919 C916 1.511 . S
C919 H933 0.961 . S
C919 H934 0.961 . S
C919 H935 0.961 . S
C920 C921 1.370 . S
C920 C922 1.363 . S
C920 H936 0.931 . S
C921 C920 1.370 . S
C921 C925 1.408 . S
C922 C920 1.363 . S
C922 C923 1.370 . S
C922 C926 1.524 . S
C923 C915 1.503 . S
C923 C922 1.370 . S
C923 C924 1.403 . S
C924 C923 1.403 . S
C924 C925 1.404 . S
C924 C927 1.539 . S
C925 C921 1.408 . S
C925 C924 1.404 . S
C925 H937 0.930 . S
C926 C922 1.524 . S
C926 H938 0.956 . S
C926 H939 0.961 . S
C926 H940 0.961 . S
C927 C924 1.539 . S
C927 H941 0.958 . S
C927 H942 0.961 . S
C927 H943 0.960 . S
H928 C912 0.931 . S
H929 C917 0.929 . S
H930 C918 0.960 . S
H931 C918 0.962 . S
H932 C918 0.960 . S
H933 C919 0.961 . S
H934 C919 0.961 . S
H935 C919 0.961 . S
H936 C920 0.931 . S
H937 C925 0.930 . S
H938 C926 0.956 . S
H939 C926 0.961 . S
H940 C926 0.961 . S
H941 C927 0.958 . S
H942 C927 0.961 . S
H943 C927 0.960 . S
C944 C945 1.391 . S
C944 C946 1.394 . S
C944 H960 0.931 . S
C945 C944 1.391 . S
C945 C949 1.376 . S
C946 C944 1.394 . S
C946 C947 1.369 . S
C946 C950 1.531 . S
C947 C946 1.369 . S
C947 C948 1.410 . S
C947 C955 1.503 . S
C948 C947 1.410 . S
C948 C949 1.392 . S
C948 C951 1.511 . S
C949 C945 1.376 . S
C949 C948 1.392 . S
C949 H961 0.929 . S
C950 C946 1.531 . S
C950 H962 0.960 . S
C950 H963 0.962 . S
C950 H964 0.960 . S
C951 C948 1.511 . S
C951 H965 0.961 . S
C951 H966 0.961 . S
C951 H967 0.961 . S
C952 C953 1.370 . S
C952 C954 1.363 . S
C952 H968 0.931 . S
C953 C952 1.370 . S
C953 C957 1.408 . S
C954 C952 1.363 . S
C954 C955 1.370 . S
C954 C958 1.524 . S
C955 C947 1.503 . S
C955 C954 1.370 . S
C955 C956 1.403 . S
C956 C955 1.403 . S
C956 C957 1.404 . S
C956 C959 1.539 . S
C957 C953 1.408 . S
C957 C956 1.404 . S
C957 H969 0.930 . S
C958 C954 1.524 . S
C958 H970 0.956 . S
C958 H971 0.961 . S
C958 H972 0.961 . S
C959 C956 1.539 . S
C959 H973 0.958 . S
C959 H974 0.961 . S
C959 H975 0.960 . S
H960 C944 0.931 . S
H961 C949 0.929 . S
H962 C950 0.960 . S
H963 C950 0.962 . S
H964 C950 0.960 . S
H965 C951 0.961 . S
H966 C951 0.961 . S
H967 C951 0.961 . S
H968 C952 0.931 . S
H969 C957 0.930 . S
H970 C958 0.956 . S
H971 C958 0.961 . S
H972 C958 0.961 . S
H973 C959 0.958 . S
H974 C959 0.961 . S
H975 C959 0.960 . S
C976 C977 1.391 . S
C976 C978 1.394 . S
C976 H992 0.931 . S
C977 C976 1.391 . S
C977 C981 1.376 . S
C978 C976 1.394 . S
C978 C979 1.369 . S
C978 C982 1.531 . S
C979 C978 1.369 . S
C979 C980 1.410 . S
C979 C987 1.503 . S
C980 C979 1.410 . S
C980 C981 1.392 . S
C980 C983 1.511 . S
C981 C977 1.376 . S
C981 C980 1.392 . S
C981 H993 0.929 . S
C982 C978 1.531 . S
C982 H994 0.960 . S
C982 H995 0.962 . S
C982 H996 0.960 . S
C983 C980 1.511 . S
C983 H997 0.961 . S
C983 H998 0.961 . S
C983 H999 0.961 . S
C984 C985 1.370 . S
C984 C986 1.363 . S
C984 H1000 0.931 . S
C985 C984 1.370 . S
C985 C989 1.408 . S
C986 C984 1.363 . S
C986 C987 1.370 . S
C986 C990 1.524 . S
C987 C979 1.503 . S
C987 C986 1.370 . S
C987 C988 1.403 . S
C988 C987 1.403 . S
C988 C989 1.404 . S
C988 C991 1.539 . S
C989 C985 1.408 . S
C989 C988 1.404 . S
C989 H1001 0.930 . S
C990 C986 1.524 . S
C990 H1002 0.956 . S
C990 H1003 0.961 . S
C990 H1004 0.961 . S
C991 C988 1.539 . S
C991 H1005 0.958 . S
C991 H1006 0.961 . S
C991 H1007 0.960 . S
H992 C976 0.931 . S
H993 C981 0.929 . S
H994 C982 0.960 . S
H995 C982 0.962 . S
H996 C982 0.960 . S
H997 C983 0.961 . S
H998 C983 0.961 . S
H999 C983 0.961 . S
H1000 C984 0.931 . S
H1001 C989 0.930 . S
H1002 C990 0.956 . S
H1003 C990 0.961 . S
H1004 C990 0.961 . S
H1005 C991 0.958 . S
H1006 C991 0.961 . S
H1007 C991 0.960 . S
C1008 C1009 1.391 . S
C1008 C1010 1.394 . S
C1008 H1024 0.931 . S
C1009 C1008 1.391 . S
C1009 C1013 1.376 . S
C1010 C1008 1.394 . S
C1010 C1011 1.369 . S
C1010 C1014 1.531 . S
C1011 C1010 1.369 . S
C1011 C1012 1.410 . S
C1011 C1019 1.503 . S
C1012 C1011 1.410 . S
C1012 C1013 1.392 . S
C1012 C1015 1.511 . S
C1013 C1009 1.376 . S
C1013 C1012 1.392 . S
C1013 H1025 0.929 . S
C1014 C1010 1.531 . S
C1014 H1026 0.960 . S
C1014 H1027 0.962 . S
C1014 H1028 0.960 . S
C1015 C1012 1.511 . S
C1015 H1029 0.961 . S
C1015 H1030 0.961 . S
C1015 H1031 0.961 . S
C1016 C1017 1.370 . S
C1016 C1018 1.363 . S
C1016 H1032 0.931 . S
C1017 C1016 1.370 . S
C1017 C1021 1.408 . S
C1018 C1016 1.363 . S
C1018 C1019 1.370 . S
C1018 C1022 1.524 . S
C1019 C1011 1.503 . S
C1019 C1018 1.370 . S
C1019 C1020 1.403 . S
C1020 C1019 1.403 . S
C1020 C1021 1.404 . S
C1020 C1023 1.539 . S
C1021 C1017 1.408 . S
C1021 C1020 1.404 . S
C1021 H1033 0.930 . S
C1022 C1018 1.524 . S
C1022 H1034 0.956 . S
C1022 H1035 0.961 . S
C1022 H1036 0.961 . S
C1023 C1020 1.539 . S
C1023 H1037 0.958 . S
C1023 H1038 0.961 . S
C1023 H1039 0.960 . S
H1024 C1008 0.931 . S
H1025 C1013 0.929 . S
H1026 C1014 0.960 . S
H1027 C1014 0.962 . S
H1028 C1014 0.960 . S
H1029 C1015 0.961 . S
H1030 C1015 0.961 . S
H1031 C1015 0.961 . S
H1032 C1016 0.931 . S
H1033 C1021 0.930 . S
H1034 C1022 0.956 . S
H1035 C1022 0.961 . S
H1036 C1022 0.961 . S
H1037 C1023 0.958 . S
H1038 C1023 0.961 . S
H1039 C1023 0.960 . S
C1040 C1041 1.391 . S
C1040 C1042 1.394 . S
C1040 H1056 0.931 . S
C1041 C1040 1.391 . S
C1041 C1045 1.376 . S
C1042 C1040 1.394 . S
C1042 C1043 1.369 . S
C1042 C1046 1.531 . S
C1043 C1042 1.369 . S
C1043 C1044 1.410 . S
C1043 C1051 1.503 . S
C1044 C1043 1.410 . S
C1044 C1045 1.392 . S
C1044 C1047 1.511 . S
C1045 C1041 1.376 . S
C1045 C1044 1.392 . S
C1045 H1057 0.929 . S
C1046 C1042 1.531 . S
C1046 H1058 0.960 . S
C1046 H1059 0.962 . S
C1046 H1060 0.960 . S
C1047 C1044 1.511 . S
C1047 H1061 0.961 . S
C1047 H1062 0.961 . S
C1047 H1063 0.961 . S
C1048 C1049 1.370 . S
C1048 C1050 1.363 . S
C1048 H1064 0.931 . S
C1049 C1048 1.370 . S
C1049 C1053 1.408 . S
C1050 C1048 1.363 . S
C1050 C1051 1.370 . S
C1050 C1054 1.524 . S
C1051 C1043 1.503 . S
C1051 C1050 1.370 . S
C1051 C1052 1.403 . S
C1052 C1051 1.403 . S
C1052 C1053 1.404 . S
C1052 C1055 1.539 . S
C1053 C1049 1.408 . S
C1053 C1052 1.404 . S
C1053 H1065 0.930 . S
C1054 C1050 1.524 . S
C1054 H1066 0.956 . S
C1054 H1067 0.961 . S
C1054 H1068 0.961 . S
C1055 C1052 1.539 . S
C1055 H1069 0.958 . S
C1055 H1070 0.961 . S
C1055 H1071 0.960 . S
H1056 C1040 0.931 . S
H1057 C1045 0.929 . S
H1058 C1046 0.960 . S
H1059 C1046 0.962 . S
H1060 C1046 0.960 . S
H1061 C1047 0.961 . S
H1062 C1047 0.961 . S
H1063 C1047 0.961 . S
H1064 C1048 0.931 . S
H1065 C1053 0.930 . S
H1066 C1054 0.956 . S
H1067 C1054 0.961 . S
H1068 C1054 0.961 . S
H1069 C1055 0.958 . S
H1070 C1055 0.961 . S
H1071 C1055 0.960 . S
C1072 C1073 1.391 . S
C1072 C1074 1.394 . S
C1072 H1088 0.931 . S
C1073 C1072 1.391 . S
C1073 C1077 1.376 . S
C1074 C1072 1.394 . S
C1074 C1075 1.369 . S
C1074 C1078 1.531 . S
C1075 C1074 1.369 . S
C1075 C1076 1.410 . S
C1075 C1083 1.503 . S
C1076 C1075 1.410 . S
C1076 C1077 1.392 . S
C1076 C1079 1.511 . S
C1077 C1073 1.376 . S
C1077 C1076 1.392 . S
C1077 H1089 0.929 . S
C1078 C1074 1.531 . S
C1078 H1090 0.960 . S
C1078 H1091 0.962 . S
C1078 H1092 0.960 . S
C1079 C1076 1.511 . S
C1079 H1093 0.961 . S
C1079 H1094 0.961 . S
C1079 H1095 0.961 . S
C1080 C1081 1.370 . S
C1080 C1082 1.363 . S
C1080 H1096 0.931 . S
C1081 C1080 1.370 . S
C1081 C1085 1.408 . S
C1082 C1080 1.363 . S
C1082 C1083 1.370 . S
C1082 C1086 1.524 . S
C1083 C1075 1.503 . S
C1083 C1082 1.370 . S
C1083 C1084 1.403 . S
C1084 C1083 1.403 . S
C1084 C1085 1.404 . S
C1084 C1087 1.539 . S
C1085 C1081 1.408 . S
C1085 C1084 1.404 . S
C1085 H1097 0.930 . S
C1086 C1082 1.524 . S
C1086 H1098 0.956 . S
C1086 H1099 0.961 . S
C1086 H1100 0.961 . S
C1087 C1084 1.539 . S
C1087 H1101 0.958 . S
C1087 H1102 0.961 . S
C1087 H1103 0.960 . S
H1088 C1072 0.931 . S
H1089 C1077 0.929 . S
H1090 C1078 0.960 . S
H1091 C1078 0.962 . S
H1092 C1078 0.960 . S
H1093 C1079 0.961 . S
H1094 C1079 0.961 . S
H1095 C1079 0.961 . S
H1096 C1080 0.931 . S
H1097 C1085 0.930 . S
H1098 C1086 0.956 . S
H1099 C1086 0.961 . S
H1100 C1086 0.961 . S
H1101 C1087 0.958 . S
H1102 C1087 0.961 . S
H1103 C1087 0.960 . S
C1104 C1105 1.391 . S
C1104 C1106 1.394 . S
C1104 H1120 0.931 . S
C1105 C1104 1.391 . S
C1105 C1109 1.376 . S
C1106 C1104 1.394 . S
C1106 C1107 1.369 . S
C1106 C1110 1.531 . S
C1107 C1106 1.369 . S
C1107 C1108 1.410 . S
C1107 C1115 1.503 . S
C1108 C1107 1.410 . S
C1108 C1109 1.392 . S
C1108 C1111 1.511 . S
C1109 C1105 1.376 . S
C1109 C1108 1.392 . S
C1109 H1121 0.929 . S
C1110 C1106 1.531 . S
C1110 H1122 0.960 . S
C1110 H1123 0.962 . S
C1110 H1124 0.960 . S
C1111 C1108 1.511 . S
C1111 H1125 0.961 . S
C1111 H1126 0.961 . S
C1111 H1127 0.961 . S
C1112 C1113 1.370 . S
C1112 C1114 1.363 . S
C1112 H1128 0.931 . S
C1113 C1112 1.370 . S
C1113 C1117 1.408 . S
C1114 C1112 1.363 . S
C1114 C1115 1.370 . S
C1114 C1118 1.524 . S
C1115 C1107 1.503 . S
C1115 C1114 1.370 . S
C1115 C1116 1.403 . S
C1116 C1115 1.403 . S
C1116 C1117 1.404 . S
C1116 C1119 1.539 . S
C1117 C1113 1.408 . S
C1117 C1116 1.404 . S
C1117 H1129 0.930 . S
C1118 C1114 1.524 . S
C1118 H1130 0.956 . S
C1118 H1131 0.961 . S
C1118 H1132 0.961 . S
C1119 C1116 1.539 . S
C1119 H1133 0.958 . S
C1119 H1134 0.961 . S
C1119 H1135 0.960 . S
H1120 C1104 0.931 . S
H1121 C1109 0.929 . S
H1122 C1110 0.960 . S
H1123 C1110 0.962 . S
H1124 C1110 0.960 . S
H1125 C1111 0.961 . S
H1126 C1111 0.961 . S
H1127 C1111 0.961 . S
H1128 C1112 0.931 . S
H1129 C1117 0.930 . S
H1130 C1118 0.956 . S
H1131 C1118 0.961 . S
H1132 C1118 0.961 . S
H1133 C1119 0.958 . S
H1134 C1119 0.961 . S
H1135 C1119 0.960 . S
C1136 C1137 1.391 . S
C1136 C1138 1.394 . S
C1136 H1152 0.931 . S
C1137 C1136 1.391 . S
C1137 C1141 1.376 . S
C1138 C1136 1.394 . S
C1138 C1139 1.369 . S
C1138 C1142 1.531 . S
C1139 C1138 1.369 . S
C1139 C1140 1.410 . S
C1139 C1147 1.503 . S
C1140 C1139 1.410 . S
C1140 C1141 1.392 . S
C1140 C1143 1.511 . S
C1141 C1137 1.376 . S
C1141 C1140 1.392 . S
C1141 H1153 0.929 . S
C1142 C1138 1.531 . S
C1142 H1154 0.960 . S
C1142 H1155 0.962 . S
C1142 H1156 0.960 . S
C1143 C1140 1.511 . S
C1143 H1157 0.961 . S
C1143 H1158 0.961 . S
C1143 H1159 0.961 . S
C1144 C1145 1.370 . S
C1144 C1146 1.363 . S
C1144 H1160 0.931 . S
C1145 C1144 1.370 . S
C1145 C1149 1.408 . S
C1146 C1144 1.363 . S
C1146 C1147 1.370 . S
C1146 C1150 1.524 . S
C1147 C1139 1.503 . S
C1147 C1146 1.370 . S
C1147 C1148 1.403 . S
C1148 C1147 1.403 . S
C1148 C1149 1.404 . S
C1148 C1151 1.539 . S
C1149 C1145 1.408 . S
C1149 C1148 1.404 . S
C1149 H1161 0.930 . S
C1150 C1146 1.524 . S
C1150 H1162 0.956 . S
C1150 H1163 0.961 . S
C1150 H1164 0.961 . S
C1151 C1148 1.539 . S
C1151 H1165 0.958 . S
C1151 H1166 0.961 . S
C1151 H1167 0.960 . S
H1152 C1136 0.931 . S
H1153 C1141 0.929 . S
H1154 C1142 0.960 . S
H1155 C1142 0.962 . S
H1156 C1142 0.960 . S
H1157 C1143 0.961 . S
H1158 C1143 0.961 . S
H1159 C1143 0.961 . S
H1160 C1144 0.931 . S
H1161 C1149 0.930 . S
H1162 C1150 0.956 . S
H1163 C1150 0.961 . S
H1164 C1150 0.961 . S
H1165 C1151 0.958 . S
H1166 C1151 0.961 . S
H1167 C1151 0.960 . S
C1168 C1169 1.391 . S
C1168 C1170 1.394 . S
C1168 H1184 0.931 . S
C1169 C1168 1.391 . S
C1169 C1173 1.376 . S
C1170 C1168 1.394 . S
C1170 C1171 1.369 . S
C1170 C1174 1.531 . S
C1171 C1170 1.369 . S
C1171 C1172 1.410 . S
C1171 C1179 1.503 . S
C1172 C1171 1.410 . S
C1172 C1173 1.392 . S
C1172 C1175 1.511 . S
C1173 C1169 1.376 . S
C1173 C1172 1.392 . S
C1173 H1185 0.929 . S
C1174 C1170 1.531 . S
C1174 H1186 0.960 . S
C1174 H1187 0.962 . S
C1174 H1188 0.960 . S
C1175 C1172 1.511 . S
C1175 H1189 0.961 . S
C1175 H1190 0.961 . S
C1175 H1191 0.961 . S
C1176 C1177 1.370 . S
C1176 C1178 1.363 . S
C1176 H1192 0.931 . S
C1177 C1176 1.370 . S
C1177 C1181 1.408 . S
C1178 C1176 1.363 . S
C1178 C1179 1.370 . S
C1178 C1182 1.524 . S
C1179 C1171 1.503 . S
C1179 C1178 1.370 . S
C1179 C1180 1.403 . S
C1180 C1179 1.403 . S
C1180 C1181 1.404 . S
C1180 C1183 1.539 . S
C1181 C1177 1.408 . S
C1181 C1180 1.404 . S
C1181 H1193 0.930 . S
C1182 C1178 1.524 . S
C1182 H1194 0.956 . S
C1182 H1195 0.961 . S
C1182 H1196 0.961 . S
C1183 C1180 1.539 . S
C1183 H1197 0.958 . S
C1183 H1198 0.961 . S
C1183 H1199 0.960 . S
H1184 C1168 0.931 . S
H1185 C1173 0.929 . S
H1186 C1174 0.960 . S
H1187 C1174 0.962 . S
H1188 C1174 0.960 . S
H1189 C1175 0.961 . S
H1190 C1175 0.961 . S
H1191 C1175 0.961 . S
H1192 C1176 0.931 . S
H1193 C1181 0.930 . S
H1194 C1182 0.956 . S
H1195 C1182 0.961 . S
H1196 C1182 0.961 . S
H1197 C1183 0.958 . S
H1198 C1183 0.961 . S
H1199 C1183 0.960 . S
C1200 C1201 1.391 . S
C1200 C1202 1.394 . S
C1200 H1216 0.931 . S
C1201 C1200 1.391 . S
C1201 C1205 1.376 . S
C1202 C1200 1.394 . S
C1202 C1203 1.369 . S
C1202 C1206 1.531 . S
C1203 C1202 1.369 . S
C1203 C1204 1.410 . S
C1203 C1211 1.503 . S
C1204 C1203 1.410 . S
C1204 C1205 1.392 . S
C1204 C1207 1.511 . S
C1205 C1201 1.376 . S
C1205 C1204 1.392 . S
C1205 H1217 0.929 . S
C1206 C1202 1.531 . S
C1206 H1218 0.960 . S
C1206 H1219 0.962 . S
C1206 H1220 0.960 . S
C1207 C1204 1.511 . S
C1207 H1221 0.961 . S
C1207 H1222 0.961 . S
C1207 H1223 0.961 . S
C1208 C1209 1.370 . S
C1208 C1210 1.363 . S
C1208 H1224 0.931 . S
C1209 C1208 1.370 . S
C1209 C1213 1.408 . S
C1210 C1208 1.363 . S
C1210 C1211 1.370 . S
C1210 C1214 1.524 . S
C1211 C1203 1.503 . S
C1211 C1210 1.370 . S
C1211 C1212 1.403 . S
C1212 C1211 1.403 . S
C1212 C1213 1.404 . S
C1212 C1215 1.539 . S
C1213 C1209 1.408 . S
C1213 C1212 1.404 . S
C1213 H1225 0.930 . S
C1214 C1210 1.524 . S
C1214 H1226 0.956 . S
C1214 H1227 0.961 . S
C1214 H1228 0.961 . S
C1215 C1212 1.539 . S
C1215 H1229 0.958 . S
C1215 H1230 0.961 . S
C1215 H1231 0.960 . S
H1216 C1200 0.931 . S
H1217 C1205 0.929 . S
H1218 C1206 0.960 . S
H1219 C1206 0.962 . S
H1220 C1206 0.960 . S
H1221 C1207 0.961 . S
H1222 C1207 0.961 . S
H1223 C1207 0.961 . S
H1224 C1208 0.931 . S
H1225 C1213 0.930 . S
H1226 C1214 0.956 . S
H1227 C1214 0.961 . S
H1228 C1214 0.961 . S
H1229 C1215 0.958 . S
H1230 C1215 0.961 . S
H1231 C1215 0.960 . S
C1232 C1233 1.391 . S
C1232 C1234 1.394 . S
C1232 H1248 0.931 . S
C1233 C1232 1.391 . S
C1233 C1237 1.376 . S
C1234 C1232 1.394 . S
C1234 C1235 1.369 . S
C1234 C1238 1.531 . S
C1235 C1234 1.369 . S
C1235 C1236 1.410 . S
C1235 C1243 1.503 . S
C1236 C1235 1.410 . S
C1236 C1237 1.392 . S
C1236 C1239 1.511 . S
C1237 C1233 1.376 . S
C1237 C1236 1.392 . S
C1237 H1249 0.929 . S
C1238 C1234 1.531 . S
C1238 H1250 0.960 . S
C1238 H1251 0.962 . S
C1238 H1252 0.960 . S
C1239 C1236 1.511 . S
C1239 H1253 0.961 . S
C1239 H1254 0.961 . S
C1239 H1255 0.961 . S
C1240 C1241 1.370 . S
C1240 C1242 1.363 . S
C1240 H1256 0.931 . S
C1241 C1240 1.370 . S
C1241 C1245 1.408 . S
C1242 C1240 1.363 . S
C1242 C1243 1.370 . S
C1242 C1246 1.524 . S
C1243 C1235 1.503 . S
C1243 C1242 1.370 . S
C1243 C1244 1.403 . S
C1244 C1243 1.403 . S
C1244 C1245 1.404 . S
C1244 C1247 1.539 . S
C1245 C1241 1.408 . S
C1245 C1244 1.404 . S
C1245 H1257 0.930 . S
C1246 C1242 1.524 . S
C1246 H1258 0.956 . S
C1246 H1259 0.961 . S
C1246 H1260 0.961 . S
C1247 C1244 1.539 . S
C1247 H1261 0.958 . S
C1247 H1262 0.961 . S
C1247 H1263 0.960 . S
H1248 C1232 0.931 . S
H1249 C1237 0.929 . S
H1250 C1238 0.960 . S
H1251 C1238 0.962 . S
H1252 C1238 0.960 . S
H1253 C1239 0.961 . S
H1254 C1239 0.961 . S
H1255 C1239 0.961 . S
H1256 C1240 0.931 . S
H1257 C1245 0.930 . S
H1258 C1246 0.956 . S
H1259 C1246 0.961 . S
H1260 C1246 0.961 . S
H1261 C1247 0.958 . S
H1262 C1247 0.961 . S
H1263 C1247 0.960 . S
C1264 C1265 1.391 . S
C1264 C1266 1.394 . S
C1264 H1280 0.931 . S
C1265 C1264 1.391 . S
C1265 C1269 1.376 . S
C1266 C1264 1.394 . S
C1266 C1267 1.369 . S
C1266 C1270 1.531 . S
C1267 C1266 1.369 . S
C1267 C1268 1.410 . S
C1267 C1275 1.503 . S
C1268 C1267 1.410 . S
C1268 C1269 1.392 . S
C1268 C1271 1.511 . S
C1269 C1265 1.376 . S
C1269 C1268 1.392 . S
C1269 H1281 0.929 . S
C1270 C1266 1.531 . S
C1270 H1282 0.960 . S
C1270 H1283 0.962 . S
C1270 H1284 0.960 . S
C1271 C1268 1.511 . S
C1271 H1285 0.961 . S
C1271 H1286 0.961 . S
C1271 H1287 0.961 . S
C1272 C1273 1.370 . S
C1272 C1274 1.363 . S
C1272 H1288 0.931 . S
C1273 C1272 1.370 . S
C1273 C1277 1.408 . S
C1274 C1272 1.363 . S
C1274 C1275 1.370 . S
C1274 C1278 1.524 . S
C1275 C1267 1.503 . S
C1275 C1274 1.370 . S
C1275 C1276 1.403 . S
C1276 C1275 1.403 . S
C1276 C1277 1.404 . S
C1276 C1279 1.539 . S
C1277 C1273 1.408 . S
C1277 C1276 1.404 . S
C1277 H1289 0.930 . S
C1278 C1274 1.524 . S
C1278 H1290 0.956 . S
C1278 H1291 0.961 . S
C1278 H1292 0.961 . S
C1279 C1276 1.539 . S
C1279 H1293 0.958 . S
C1279 H1294 0.961 . S
C1279 H1295 0.960 . S
H1280 C1264 0.931 . S
H1281 C1269 0.929 . S
H1282 C1270 0.960 . S
H1283 C1270 0.962 . S
H1284 C1270 0.960 . S
H1285 C1271 0.961 . S
H1286 C1271 0.961 . S
H1287 C1271 0.961 . S
H1288 C1272 0.931 . S
H1289 C1277 0.930 . S
H1290 C1278 0.956 . S
H1291 C1278 0.961 . S
H1292 C1278 0.961 . S
H1293 C1279 0.958 . S
H1294 C1279 0.961 . S
H1295 C1279 0.960 . S
C1296 C1297 1.391 . S
C1296 C1298 1.394 . S
C1296 H1312 0.931 . S
C1297 C1296 1.391 . S
C1297 C1301 1.376 . S
C1298 C1296 1.394 . S
C1298 C1299 1.369 . S
C1298 C1302 1.531 . S
C1299 C1298 1.369 . S
C1299 C1300 1.410 . S
C1299 C1307 1.503 . S
C1300 C1299 1.410 . S
C1300 C1301 1.392 . S
C1300 C1303 1.511 . S
C1301 C1297 1.376 . S
C1301 C1300 1.392 . S
C1301 H1313 0.929 . S
C1302 C1298 1.531 . S
C1302 H1314 0.960 . S
C1302 H1315 0.962 . S
C1302 H1316 0.960 . S
C1303 C1300 1.511 . S
C1303 H1317 0.961 . S
C1303 H1318 0.961 . S
C1303 H1319 0.961 . S
C1304 C1305 1.370 . S
C1304 C1306 1.363 . S
C1304 H1320 0.931 . S
C1305 C1304 1.370 . S
C1305 C1309 1.408 . S
C1306 C1304 1.363 . S
C1306 C1307 1.370 . S
C1306 C1310 1.524 . S
C1307 C1299 1.503 . S
C1307 C1306 1.370 . S
C1307 C1308 1.403 . S
C1308 C1307 1.403 . S
C1308 C1309 1.404 . S
C1308 C1311 1.539 . S
C1309 C1305 1.408 . S
C1309 C1308 1.404 . S
C1309 H1321 0.930 . S
C1310 C1306 1.524 . S
C1310 H1322 0.956 . S
C1310 H1323 0.961 . S
C1310 H1324 0.961 . S
C1311 C1308 1.539 . S
C1311 H1325 0.958 . S
C1311 H1326 0.961 . S
C1311 H1327 0.960 . S
H1312 C1296 0.931 . S
H1313 C1301 0.929 . S
H1314 C1302 0.960 . S
H1315 C1302 0.962 . S
H1316 C1302 0.960 . S
H1317 C1303 0.961 . S
H1318 C1303 0.961 . S
H1319 C1303 0.961 . S
H1320 C1304 0.931 . S
H1321 C1309 0.930 . S
H1322 C1310 0.956 . S
H1323 C1310 0.961 . S
H1324 C1310 0.961 . S
H1325 C1311 0.958 . S
H1326 C1311 0.961 . S
H1327 C1311 0.960 . S
C1328 C1329 1.391 . S
C1328 C1330 1.394 . S
C1328 H1344 0.931 . S
C1329 C1328 1.391 . S
C1329 C1333 1.376 . S
C1330 C1328 1.394 . S
C1330 C1331 1.369 . S
C1330 C1334 1.531 . S
C1331 C1330 1.369 . S
C1331 C1332 1.410 . S
C1331 C1339 1.503 . S
C1332 C1331 1.410 . S
C1332 C1333 1.392 . S
C1332 C1335 1.511 . S
C1333 C1329 1.376 . S
C1333 C1332 1.392 . S
C1333 H1345 0.929 . S
C1334 C1330 1.531 . S
C1334 H1346 0.960 . S
C1334 H1347 0.962 . S
C1334 H1348 0.960 . S
C1335 C1332 1.511 . S
C1335 H1349 0.961 . S
C1335 H1350 0.961 . S
C1335 H1351 0.961 . S
C1336 C1337 1.370 . S
C1336 C1338 1.363 . S
C1336 H1352 0.931 . S
C1337 C1336 1.370 . S
C1337 C1341 1.408 . S
C1338 C1336 1.363 . S
C1338 C1339 1.370 . S
C1338 C1342 1.524 . S
C1339 C1331 1.503 . S
C1339 C1338 1.370 . S
C1339 C1340 1.403 . S
C1340 C1339 1.403 . S
C1340 C1341 1.404 . S
C1340 C1343 1.539 . S
C1341 C1337 1.408 . S
C1341 C1340 1.404 . S
C1341 H1353 0.930 . S
C1342 C1338 1.524 . S
C1342 H1354 0.956 . S
C1342 H1355 0.961 . S
C1342 H1356 0.961 . S
C1343 C1340 1.539 . S
C1343 H1357 0.958 . S
C1343 H1358 0.961 . S
C1343 H1359 0.960 . S
H1344 C1328 0.931 . S
H1345 C1333 0.929 . S
H1346 C1334 0.960 . S
H1347 C1334 0.962 . S
H1348 C1334 0.960 . S
H1349 C1335 0.961 . S
H1350 C1335 0.961 . S
H1351 C1335 0.961 . S
H1352 C1336 0.931 . S
H1353 C1341 0.930 . S
H1354 C1342 0.956 . S
H1355 C1342 0.961 . S
H1356 C1342 0.961 . S
H1357 C1343 0.958 . S
H1358 C1343 0.961 . S
H1359 C1343 0.960 . S
C1360 C1361 1.391 . S
C1360 C1362 1.394 . S
C1360 H1376 0.931 . S
C1361 C1360 1.391 . S
C1361 C1365 1.376 . S
C1362 C1360 1.394 . S
C1362 C1363 1.369 . S
C1362 C1366 1.531 . S
C1363 C1362 1.369 . S
C1363 C1364 1.410 . S
C1363 C1371 1.503 . S
C1364 C1363 1.410 . S
C1364 C1365 1.392 . S
C1364 C1367 1.511 . S
C1365 C1361 1.376 . S
C1365 C1364 1.392 . S
C1365 H1377 0.929 . S
C1366 C1362 1.531 . S
C1366 H1378 0.960 . S
C1366 H1379 0.962 . S
C1366 H1380 0.960 . S
C1367 C1364 1.511 . S
C1367 H1381 0.961 . S
C1367 H1382 0.961 . S
C1367 H1383 0.961 . S
C1368 C1369 1.370 . S
C1368 C1370 1.363 . S
C1368 H1384 0.931 . S
C1369 C1368 1.370 . S
C1369 C1373 1.408 . S
C1370 C1368 1.363 . S
C1370 C1371 1.370 . S
C1370 C1374 1.524 . S
C1371 C1363 1.503 . S
C1371 C1370 1.370 . S
C1371 C1372 1.403 . S
C1372 C1371 1.403 . S
C1372 C1373 1.404 . S
C1372 C1375 1.539 . S
C1373 C1369 1.408 . S
C1373 C1372 1.404 . S
C1373 H1385 0.930 . S
C1374 C1370 1.524 . S
C1374 H1386 0.956 . S
C1374 H1387 0.961 . S
C1374 H1388 0.961 . S
C1375 C1372 1.539 . S
C1375 H1389 0.958 . S
C1375 H1390 0.961 . S
C1375 H1391 0.960 . S
H1376 C1360 0.931 . S
H1377 C1365 0.929 . S
H1378 C1366 0.960 . S
H1379 C1366 0.962 . S
H1380 C1366 0.960 . S
H1381 C1367 0.961 . S
H1382 C1367 0.961 . S
H1383 C1367 0.961 . S
H1384 C1368 0.931 . S
H1385 C1373 0.930 . S
H1386 C1374 0.956 . S
H1387 C1374 0.961 . S
H1388 C1374 0.961 . S
H1389 C1375 0.958 . S
H1390 C1375 0.961 . S
H1391 C1375 0.960 . S
C1392 C1393 1.391 . S
C1392 C1394 1.394 . S
C1392 H1408 0.931 . S
C1393 C1392 1.391 . S
C1393 C1397 1.376 . S
C1394 C1392 1.394 . S
C1394 C1395 1.369 . S
C1394 C1398 1.531 . S
C1395 C1394 1.369 . S
C1395 C1396 1.410 . S
C1395 C1403 1.503 . S
C1396 C1395 1.410 . S
C1396 C1397 1.392 . S
C1396 C1399 1.511 . S
C1397 C1393 1.376 . S
C1397 C1396 1.392 . S
C1397 H1409 0.929 . S
C1398 C1394 1.531 . S
C1398 H1410 0.960 . S
C1398 H1411 0.962 . S
C1398 H1412 0.960 . S
C1399 C1396 1.511 . S
C1399 H1413 0.961 . S
C1399 H1414 0.961 . S
C1399 H1415 0.961 . S
C1400 C1401 1.370 . S
C1400 C1402 1.363 . S
C1400 H1416 0.931 . S
C1401 C1400 1.370 . S
C1401 C1405 1.408 . S
C1402 C1400 1.363 . S
C1402 C1403 1.370 . S
C1402 C1406 1.524 . S
C1403 C1395 1.503 . S
C1403 C1402 1.370 . S
C1403 C1404 1.403 . S
C1404 C1403 1.403 . S
C1404 C1405 1.404 . S
C1404 C1407 1.539 . S
C1405 C1401 1.408 . S
C1405 C1404 1.404 . S
C1405 H1417 0.930 . S
C1406 C1402 1.524 . S
C1406 H1418 0.956 . S
C1406 H1419 0.961 . S
C1406 H1420 0.961 . S
C1407 C1404 1.539 . S
C1407 H1421 0.958 . S
C1407 H1422 0.961 . S
C1407 H1423 0.960 . S
H1408 C1392 0.931 . S
H1409 C1397 0.929 . S
H1410 C1398 0.960 . S
H1411 C1398 0.962 . S
H1412 C1398 0.960 . S
H1413 C1399 0.961 . S
H1414 C1399 0.961 . S
H1415 C1399 0.961 . S
H1416 C1400 0.931 . S
H1417 C1405 0.930 . S
H1418 C1406 0.956 . S
H1419 C1406 0.961 . S
H1420 C1406 0.961 . S
H1421 C1407 0.958 . S
H1422 C1407 0.961 . S
H1423 C1407 0.960 . S
C1424 C1425 1.391 . S
C1424 C1426 1.394 . S
C1424 H1440 0.931 . S
C1425 C1424 1.391 . S
C1425 C1429 1.376 . S
C1426 C1424 1.394 . S
C1426 C1427 1.369 . S
C1426 C1430 1.531 . S
C1427 C1426 1.369 . S
C1427 C1428 1.410 . S
C1427 C1435 1.503 . S
C1428 C1427 1.410 . S
C1428 C1429 1.392 . S
C1428 C1431 1.511 . S
C1429 C1425 1.376 . S
C1429 C1428 1.392 . S
C1429 H1441 0.929 . S
C1430 C1426 1.531 . S
C1430 H1442 0.960 . S
C1430 H1443 0.962 . S
C1430 H1444 0.960 . S
C1431 C1428 1.511 . S
C1431 H1445 0.961 . S
C1431 H1446 0.961 . S
C1431 H1447 0.961 . S
C1432 C1433 1.370 . S
C1432 C1434 1.363 . S
C1432 H1448 0.931 . S
C1433 C1432 1.370 . S
C1433 C1437 1.408 . S
C1434 C1432 1.363 . S
C1434 C1435 1.370 . S
C1434 C1438 1.524 . S
C1435 C1427 1.503 . S
C1435 C1434 1.370 . S
C1435 C1436 1.403 . S
C1436 C1435 1.403 . S
C1436 C1437 1.404 . S
C1436 C1439 1.539 . S
C1437 C1433 1.408 . S
C1437 C1436 1.404 . S
C1437 H1449 0.930 . S
C1438 C1434 1.524 . S
C1438 H1450 0.956 . S
C1438 H1451 0.961 . S
C1438 H1452 0.961 . S
C1439 C1436 1.539 . S
C1439 H1453 0.958 . S
C1439 H1454 0.961 . S
C1439 H1455 0.960 . S
H1440 C1424 0.931 . S
H1441 C1429 0.929 . S
H1442 C1430 0.960 . S
H1443 C1430 0.962 . S
H1444 C1430 0.960 . S
H1445 C1431 0.961 . S
H1446 C1431 0.961 . S
H1447 C1431 0.961 . S
H1448 C1432 0.931 . S
H1449 C1437 0.930 . S
H1450 C1438 0.956 . S
H1451 C1438 0.961 . S
H1452 C1438 0.961 . S
H1453 C1439 0.958 . S
H1454 C1439 0.961 . S
H1455 C1439 0.960 . S
C1456 C1457 1.391 . S
C1456 C1458 1.394 . S
C1456 H1472 0.931 . S
C1457 C1456 1.391 . S
C1457 C1461 1.376 . S
C1458 C1456 1.394 . S
C1458 C1459 1.369 . S
C1458 C1462 1.531 . S
C1459 C1458 1.369 . S
C1459 C1460 1.410 . S
C1459 C1467 1.503 . S
C1460 C1459 1.410 . S
C1460 C1461 1.392 . S
C1460 C1463 1.511 . S
C1461 C1457 1.376 . S
C1461 C1460 1.392 . S
C1461 H1473 0.929 . S
C1462 C1458 1.531 . S
C1462 H1474 0.960 . S
C1462 H1475 0.962 . S
C1462 H1476 0.960 . S
C1463 C1460 1.511 . S
C1463 H1477 0.961 . S
C1463 H1478 0.961 . S
C1463 H1479 0.961 . S
C1464 C1465 1.370 . S
C1464 C1466 1.363 . S
C1464 H1480 0.931 . S
C1465 C1464 1.370 . S
C1465 C1469 1.408 . S
C1466 C1464 1.363 . S
C1466 C1467 1.370 . S
C1466 C1470 1.524 . S
C1467 C1459 1.503 . S
C1467 C1466 1.370 . S
C1467 C1468 1.403 . S
C1468 C1467 1.403 . S
C1468 C1469 1.404 . S
C1468 C1471 1.539 . S
C1469 C1465 1.408 . S
C1469 C1468 1.404 . S
C1469 H1481 0.930 . S
C1470 C1466 1.524 . S
C1470 H1482 0.956 . S
C1470 H1483 0.961 . S
C1470 H1484 0.961 . S
C1471 C1468 1.539 . S
C1471 H1485 0.958 . S
C1471 H1486 0.961 . S
C1471 H1487 0.960 . S
H1472 C1456 0.931 . S
H1473 C1461 0.929 . S
H1474 C1462 0.960 . S
H1475 C1462 0.962 . S
H1476 C1462 0.960 . S
H1477 C1463 0.961 . S
H1478 C1463 0.961 . S
H1479 C1463 0.961 . S
H1480 C1464 0.931 . S
H1481 C1469 0.930 . S
H1482 C1470 0.956 . S
H1483 C1470 0.961 . S
H1484 C1470 0.961 . S
H1485 C1471 0.958 . S
H1486 C1471 0.961 . S
H1487 C1471 0.960 . S
C1488 C1489 1.391 . S
C1488 C1490 1.394 . S
C1488 H1504 0.931 . S
C1489 C1488 1.391 . S
C1489 C1493 1.376 . S
C1490 C1488 1.394 . S
C1490 C1491 1.369 . S
C1490 C1494 1.531 . S
C1491 C1490 1.369 . S
C1491 C1492 1.410 . S
C1491 C1499 1.503 . S
C1492 C1491 1.410 . S
C1492 C1493 1.392 . S
C1492 C1495 1.511 . S
C1493 C1489 1.376 . S
C1493 C1492 1.392 . S
C1493 H1505 0.929 . S
C1494 C1490 1.531 . S
C1494 H1506 0.960 . S
C1494 H1507 0.962 . S
C1494 H1508 0.960 . S
C1495 C1492 1.511 . S
C1495 H1509 0.961 . S
C1495 H1510 0.961 . S
C1495 H1511 0.961 . S
C1496 C1497 1.370 . S
C1496 C1498 1.363 . S
C1496 H1512 0.931 . S
C1497 C1496 1.370 . S
C1497 C1501 1.408 . S
C1498 C1496 1.363 . S
C1498 C1499 1.370 . S
C1498 C1502 1.524 . S
C1499 C1491 1.503 . S
C1499 C1498 1.370 . S
C1499 C1500 1.403 . S
C1500 C1499 1.403 . S
C1500 C1501 1.404 . S
C1500 C1503 1.539 . S
C1501 C1497 1.408 . S
C1501 C1500 1.404 . S
C1501 H1513 0.930 . S
C1502 C1498 1.524 . S
C1502 H1514 0.956 . S
C1502 H1515 0.961 . S
C1502 H1516 0.961 . S
C1503 C1500 1.539 . S
C1503 H1517 0.958 . S
C1503 H1518 0.961 . S
C1503 H1519 0.960 . S
H1504 C1488 0.931 . S
H1505 C1493 0.929 . S
H1506 C1494 0.960 . S
H1507 C1494 0.962 . S
H1508 C1494 0.960 . S
H1509 C1495 0.961 . S
H1510 C1495 0.961 . S
H1511 C1495 0.961 . S
H1512 C1496 0.931 . S
H1513 C1501 0.930 . S
H1514 C1502 0.956 . S
H1515 C1502 0.961 . S
H1516 C1502 0.961 . S
H1517 C1503 0.958 . S
H1518 C1503 0.961 . S
H1519 C1503 0.960 . S
C1520 C1521 1.391 . S
C1520 C1522 1.394 . S
C1520 H1536 0.931 . S
C1521 C1520 1.391 . S
C1521 C1525 1.376 . S
C1522 C1520 1.394 . S
C1522 C1523 1.369 . S
C1522 C1526 1.531 . S
C1523 C1522 1.369 . S
C1523 C1524 1.410 . S
C1523 C1531 1.503 . S
C1524 C1523 1.410 . S
C1524 C1525 1.392 . S
C1524 C1527 1.511 . S
C1525 C1521 1.376 . S
C1525 C1524 1.392 . S
C1525 H1537 0.929 . S
C1526 C1522 1.531 . S
C1526 H1538 0.960 . S
C1526 H1539 0.962 . S
C1526 H1540 0.960 . S
C1527 C1524 1.511 . S
C1527 H1541 0.961 . S
C1527 H1542 0.961 . S
C1527 H1543 0.961 . S
C1528 C1529 1.370 . S
C1528 C1530 1.363 . S
C1528 H1544 0.931 . S
C1529 C1528 1.370 . S
C1529 C1533 1.408 . S
C1530 C1528 1.363 . S
C1530 C1531 1.370 . S
C1530 C1534 1.524 . S
C1531 C1523 1.503 . S
C1531 C1530 1.370 . S
C1531 C1532 1.403 . S
C1532 C1531 1.403 . S
C1532 C1533 1.404 . S
C1532 C1535 1.539 . S
C1533 C1529 1.408 . S
C1533 C1532 1.404 . S
C1533 H1545 0.930 . S
C1534 C1530 1.524 . S
C1534 H1546 0.956 . S
C1534 H1547 0.961 . S
C1534 H1548 0.961 . S
C1535 C1532 1.539 . S
C1535 H1549 0.958 . S
C1535 H1550 0.961 . S
C1535 H1551 0.960 . S
H1536 C1520 0.931 . S
H1537 C1525 0.929 . S
H1538 C1526 0.960 . S
H1539 C1526 0.962 . S
H1540 C1526 0.960 . S
H1541 C1527 0.961 . S
H1542 C1527 0.961 . S
H1543 C1527 0.961 . S
H1544 C1528 0.931 . S
H1545 C1533 0.930 . S
H1546 C1534 0.956 . S
H1547 C1534 0.961 . S
H1548 C1534 0.961 . S
H1549 C1535 0.958 . S
H1550 C1535 0.961 . S
H1551 C1535 0.960 . S
C1552 C1553 1.391 . S
C1552 C1554 1.394 . S
C1552 H1568 0.931 . S
C1553 C1552 1.391 . S
C1553 C1557 1.376 . S
C1554 C1552 1.394 . S
C1554 C1555 1.369 . S
C1554 C1558 1.531 . S
C1555 C1554 1.369 . S
C1555 C1556 1.410 . S
C1555 C1563 1.503 . S
C1556 C1555 1.410 . S
C1556 C1557 1.392 . S
C1556 C1559 1.511 . S
C1557 C1553 1.376 . S
C1557 C1556 1.392 . S
C1557 H1569 0.929 . S
C1558 C1554 1.531 . S
C1558 H1570 0.960 . S
C1558 H1571 0.962 . S
C1558 H1572 0.960 . S
C1559 C1556 1.511 . S
C1559 H1573 0.961 . S
C1559 H1574 0.961 . S
C1559 H1575 0.961 . S
C1560 C1561 1.370 . S
C1560 C1562 1.363 . S
C1560 H1576 0.931 . S
C1561 C1560 1.370 . S
C1561 C1565 1.408 . S
C1562 C1560 1.363 . S
C1562 C1563 1.370 . S
C1562 C1566 1.524 . S
C1563 C1555 1.503 . S
C1563 C1562 1.370 . S
C1563 C1564 1.403 . S
C1564 C1563 1.403 . S
C1564 C1565 1.404 . S
C1564 C1567 1.539 . S
C1565 C1561 1.408 . S
C1565 C1564 1.404 . S
C1565 H1577 0.930 . S
C1566 C1562 1.524 . S
C1566 H1578 0.956 . S
C1566 H1579 0.961 . S
C1566 H1580 0.961 . S
C1567 C1564 1.539 . S
C1567 H1581 0.958 . S
C1567 H1582 0.961 . S
C1567 H1583 0.960 . S
H1568 C1552 0.931 . S
H1569 C1557 0.929 . S
H1570 C1558 0.960 . S
H1571 C1558 0.962 . S
H1572 C1558 0.960 . S
H1573 C1559 0.961 . S
H1574 C1559 0.961 . S
H1575 C1559 0.961 . S
H1576 C1560 0.931 . S
H1577 C1565 0.930 . S
H1578 C1566 0.956 . S
H1579 C1566 0.961 . S
H1580 C1566 0.961 . S
H1581 C1567 0.958 . S
H1582 C1567 0.961 . S
H1583 C1567 0.960 . S
C1584 C1585 1.391 . S
C1584 C1586 1.394 . S
C1584 H1600 0.931 . S
C1585 C1584 1.391 . S
C1585 C1589 1.376 . S
C1586 C1584 1.394 . S
C1586 C1587 1.369 . S
C1586 C1590 1.531 . S
C1587 C1586 1.369 . S
C1587 C1588 1.410 . S
C1587 C1595 1.503 . S
C1588 C1587 1.410 . S
C1588 C1589 1.392 . S
C1588 C1591 1.511 . S
C1589 C1585 1.376 . S
C1589 C1588 1.392 . S
C1589 H1601 0.929 . S
C1590 C1586 1.531 . S
C1590 H1602 0.960 . S
C1590 H1603 0.962 . S
C1590 H1604 0.960 . S
C1591 C1588 1.511 . S
C1591 H1605 0.961 . S
C1591 H1606 0.961 . S
C1591 H1607 0.961 . S
C1592 C1593 1.370 . S
C1592 C1594 1.363 . S
C1592 H1608 0.931 . S
C1593 C1592 1.370 . S
C1593 C1597 1.408 . S
C1594 C1592 1.363 . S
C1594 C1595 1.370 . S
C1594 C1598 1.524 . S
C1595 C1587 1.503 . S
C1595 C1594 1.370 . S
C1595 C1596 1.403 . S
C1596 C1595 1.403 . S
C1596 C1597 1.404 . S
C1596 C1599 1.539 . S
C1597 C1593 1.408 . S
C1597 C1596 1.404 . S
C1597 H1609 0.930 . S
C1598 C1594 1.524 . S
C1598 H1610 0.956 . S
C1598 H1611 0.961 . S
C1598 H1612 0.961 . S
C1599 C1596 1.539 . S
C1599 H1613 0.958 . S
C1599 H1614 0.961 . S
C1599 H1615 0.960 . S
H1600 C1584 0.931 . S
H1601 C1589 0.929 . S
H1602 C1590 0.960 . S
H1603 C1590 0.962 . S
H1604 C1590 0.960 . S
H1605 C1591 0.961 . S
H1606 C1591 0.961 . S
H1607 C1591 0.961 . S
H1608 C1592 0.931 . S
H1609 C1597 0.930 . S
H1610 C1598 0.956 . S
H1611 C1598 0.961 . S
H1612 C1598 0.961 . S
H1613 C1599 0.958 . S
H1614 C1599 0.961 . S
H1615 C1599 0.960 . S
C1616 C1617 1.391 . S
C1616 C1618 1.394 . S
C1616 H1632 0.931 . S
C1617 C1616 1.391 . S
C1617 C1621 1.376 . S
C1618 C1616 1.394 . S
C1618 C1619 1.369 . S
C1618 C1622 1.531 . S
C1619 C1618 1.369 . S
C1619 C1620 1.410 . S
C1619 C1627 1.503 . S
C1620 C1619 1.410 . S
C1620 C1621 1.392 . S
C1620 C1623 1.511 . S
C1621 C1617 1.376 . S
C1621 C1620 1.392 . S
C1621 H1633 0.929 . S
C1622 C1618 1.531 . S
C1622 H1634 0.960 . S
C1622 H1635 0.962 . S
C1622 H1636 0.960 . S
C1623 C1620 1.511 . S
C1623 H1637 0.961 . S
C1623 H1638 0.961 . S
C1623 H1639 0.961 . S
C1624 C1625 1.370 . S
C1624 C1626 1.363 . S
C1624 H1640 0.931 . S
C1625 C1624 1.370 . S
C1625 C1629 1.408 . S
C1626 C1624 1.363 . S
C1626 C1627 1.370 . S
C1626 C1630 1.524 . S
C1627 C1619 1.503 . S
C1627 C1626 1.370 . S
C1627 C1628 1.403 . S
C1628 C1627 1.403 . S
C1628 C1629 1.404 . S
C1628 C1631 1.539 . S
C1629 C1625 1.408 . S
C1629 C1628 1.404 . S
C1629 H1641 0.930 . S
C1630 C1626 1.524 . S
C1630 H1642 0.956 . S
C1630 H1643 0.961 . S
C1630 H1644 0.961 . S
C1631 C1628 1.539 . S
C1631 H1645 0.958 . S
C1631 H1646 0.961 . S
C1631 H1647 0.960 . S
H1632 C1616 0.931 . S
H1633 C1621 0.929 . S
H1634 C1622 0.960 . S
H1635 C1622 0.962 . S
H1636 C1622 0.960 . S
H1637 C1623 0.961 . S
H1638 C1623 0.961 . S
H1639 C1623 0.961 . S
H1640 C1624 0.931 . S
H1641 C1629 0.930 . S
H1642 C1630 0.956 . S
H1643 C1630 0.961 . S
H1644 C1630 0.961 . S
H1645 C1631 0.958 . S
H1646 C1631 0.961 . S
H1647 C1631 0.960 . S
C1648 C1649 1.391 . S
C1648 C1650 1.394 . S
C1648 H1664 0.931 . S
C1649 C1648 1.391 . S
C1649 C1653 1.376 . S
C1650 C1648 1.394 . S
C1650 C1651 1.369 . S
C1650 C1654 1.531 . S
C1651 C1650 1.369 . S
C1651 C1652 1.410 . S
C1651 C1659 1.503 . S
C1652 C1651 1.410 . S
C1652 C1653 1.392 . S
C1652 C1655 1.511 . S
C1653 C1649 1.376 . S
C1653 C1652 1.392 . S
C1653 H1665 0.929 . S
C1654 C1650 1.531 . S
C1654 H1666 0.960 . S
C1654 H1667 0.962 . S
C1654 H1668 0.960 . S
C1655 C1652 1.511 . S
C1655 H1669 0.961 . S
C1655 H1670 0.961 . S
C1655 H1671 0.961 . S
C1656 C1657 1.370 . S
C1656 C1658 1.363 . S
C1656 H1672 0.931 . S
C1657 C1656 1.370 . S
C1657 C1661 1.408 . S
C1658 C1656 1.363 . S
C1658 C1659 1.370 . S
C1658 C1662 1.524 . S
C1659 C1651 1.503 . S
C1659 C1658 1.370 . S
C1659 C1660 1.403 . S
C1660 C1659 1.403 . S
C1660 C1661 1.404 . S
C1660 C1663 1.539 . S
C1661 C1657 1.408 . S
C1661 C1660 1.404 . S
C1661 H1673 0.930 . S
C1662 C1658 1.524 . S
C1662 H1674 0.956 . S
C1662 H1675 0.961 . S
C1662 H1676 0.961 . S
C1663 C1660 1.539 . S
C1663 H1677 0.958 . S
C1663 H1678 0.961 . S
C1663 H1679 0.960 . S
H1664 C1648 0.931 . S
H1665 C1653 0.929 . S
H1666 C1654 0.960 . S
H1667 C1654 0.962 . S
H1668 C1654 0.960 . S
H1669 C1655 0.961 . S
H1670 C1655 0.961 . S
H1671 C1655 0.961 . S
H1672 C1656 0.931 . S
H1673 C1661 0.930 . S
H1674 C1662 0.956 . S
H1675 C1662 0.961 . S
H1676 C1662 0.961 . S
H1677 C1663 0.958 . S
H1678 C1663 0.961 . S
H1679 C1663 0.960 . S
C1680 C1681 1.391 . S
C1680 C1682 1.394 . S
C1680 H1696 0.931 . S
C1681 C1680 1.391 . S
C1681 C1685 1.376 . S
C1682 C1680 1.394 . S
C1682 C1683 1.369 . S
C1682 C1686 1.531 . S
C1683 C1682 1.369 . S
C1683 C1684 1.410 . S
C1683 C1691 1.503 . S
C1684 C1683 1.410 . S
C1684 C1685 1.392 . S
C1684 C1687 1.511 . S
C1685 C1681 1.376 . S
C1685 C1684 1.392 . S
C1685 H1697 0.929 . S
C1686 C1682 1.531 . S
C1686 H1698 0.960 . S
C1686 H1699 0.962 . S
C1686 H1700 0.960 . S
C1687 C1684 1.511 . S
C1687 H1701 0.961 . S
C1687 H1702 0.961 . S
C1687 H1703 0.961 . S
C1688 C1689 1.370 . S
C1688 C1690 1.363 . S
C1688 H1704 0.931 . S
C1689 C1688 1.370 . S
C1689 C1693 1.408 . S
C1690 C1688 1.363 . S
C1690 C1691 1.370 . S
C1690 C1694 1.524 . S
C1691 C1683 1.503 . S
C1691 C1690 1.370 . S
C1691 C1692 1.403 . S
C1692 C1691 1.403 . S
C1692 C1693 1.404 . S
C1692 C1695 1.539 . S
C1693 C1689 1.408 . S
C1693 C1692 1.404 . S
C1693 H1705 0.930 . S
C1694 C1690 1.524 . S
C1694 H1706 0.956 . S
C1694 H1707 0.961 . S
C1694 H1708 0.961 . S
C1695 C1692 1.539 . S
C1695 H1709 0.958 . S
C1695 H1710 0.961 . S
C1695 H1711 0.960 . S
H1696 C1680 0.931 . S
H1697 C1685 0.929 . S
H1698 C1686 0.960 . S
H1699 C1686 0.962 . S
H1700 C1686 0.960 . S
H1701 C1687 0.961 . S
H1702 C1687 0.961 . S
H1703 C1687 0.961 . S
H1704 C1688 0.931 . S
H1705 C1693 0.930 . S
H1706 C1694 0.956 . S
H1707 C1694 0.961 . S
H1708 C1694 0.961 . S
H1709 C1695 0.958 . S
H1710 C1695 0.961 . S
H1711 C1695 0.960 . S
C1712 C1713 1.391 . S
C1712 C1714 1.394 . S
C1712 H1728 0.931 . S
C1713 C1712 1.391 . S
C1713 C1717 1.376 . S
C1714 C1712 1.394 . S
C1714 C1715 1.369 . S
C1714 C1718 1.531 . S
C1715 C1714 1.369 . S
C1715 C1716 1.410 . S
C1715 C1723 1.503 . S
C1716 C1715 1.410 . S
C1716 C1717 1.392 . S
C1716 C1719 1.511 . S
C1717 C1713 1.376 . S
C1717 C1716 1.392 . S
C1717 H1729 0.929 . S
C1718 C1714 1.531 . S
C1718 H1730 0.960 . S
C1718 H1731 0.962 . S
C1718 H1732 0.960 . S
C1719 C1716 1.511 . S
C1719 H1733 0.961 . S
C1719 H1734 0.961 . S
C1719 H1735 0.961 . S
C1720 C1721 1.370 . S
C1720 C1722 1.363 . S
C1720 H1736 0.931 . S
C1721 C1720 1.370 . S
C1721 C1725 1.408 . S
C1722 C1720 1.363 . S
C1722 C1723 1.370 . S
C1722 C1726 1.524 . S
C1723 C1715 1.503 . S
C1723 C1722 1.370 . S
C1723 C1724 1.403 . S
C1724 C1723 1.403 . S
C1724 C1725 1.404 . S
C1724 C1727 1.539 . S
C1725 C1721 1.408 . S
C1725 C1724 1.404 . S
C1725 H1737 0.930 . S
C1726 C1722 1.524 . S
C1726 H1738 0.956 . S
C1726 H1739 0.961 . S
C1726 H1740 0.961 . S
C1727 C1724 1.539 . S
C1727 H1741 0.958 . S
C1727 H1742 0.961 . S
C1727 H1743 0.960 . S
H1728 C1712 0.931 . S
H1729 C1717 0.929 . S
H1730 C1718 0.960 . S
H1731 C1718 0.962 . S
H1732 C1718 0.960 . S
H1733 C1719 0.961 . S
H1734 C1719 0.961 . S
H1735 C1719 0.961 . S
H1736 C1720 0.931 . S
H1737 C1725 0.930 . S
H1738 C1726 0.956 . S
H1739 C1726 0.961 . S
H1740 C1726 0.961 . S
H1741 C1727 0.958 . S
H1742 C1727 0.961 . S
H1743 C1727 0.960 . S
C1744 C1745 1.391 . S
C1744 C1746 1.394 . S
C1744 H1760 0.931 . S
C1745 C1744 1.391 . S
C1745 C1749 1.376 . S
C1746 C1744 1.394 . S
C1746 C1747 1.369 . S
C1746 C1750 1.531 . S
C1747 C1746 1.369 . S
C1747 C1748 1.410 . S
C1747 C1755 1.503 . S
C1748 C1747 1.410 . S
C1748 C1749 1.392 . S
C1748 C1751 1.511 . S
C1749 C1745 1.376 . S
C1749 C1748 1.392 . S
C1749 H1761 0.929 . S
C1750 C1746 1.531 . S
C1750 H1762 0.960 . S
C1750 H1763 0.962 . S
C1750 H1764 0.960 . S
C1751 C1748 1.511 . S
C1751 H1765 0.961 . S
C1751 H1766 0.961 . S
C1751 H1767 0.961 . S
C1752 C1753 1.370 . S
C1752 C1754 1.363 . S
C1752 H1768 0.931 . S
C1753 C1752 1.370 . S
C1753 C1757 1.408 . S
C1754 C1752 1.363 . S
C1754 C1755 1.370 . S
C1754 C1758 1.524 . S
C1755 C1747 1.503 . S
C1755 C1754 1.370 . S
C1755 C1756 1.403 . S
C1756 C1755 1.403 . S
C1756 C1757 1.404 . S
C1756 C1759 1.539 . S
C1757 C1753 1.408 . S
C1757 C1756 1.404 . S
C1757 H1769 0.930 . S
C1758 C1754 1.524 . S
C1758 H1770 0.956 . S
C1758 H1771 0.961 . S
C1758 H1772 0.961 . S
C1759 C1756 1.539 . S
C1759 H1773 0.958 . S
C1759 H1774 0.961 . S
C1759 H1775 0.960 . S
H1760 C1744 0.931 . S
H1761 C1749 0.929 . S
H1762 C1750 0.960 . S
H1763 C1750 0.962 . S
H1764 C1750 0.960 . S
H1765 C1751 0.961 . S
H1766 C1751 0.961 . S
H1767 C1751 0.961 . S
H1768 C1752 0.931 . S
H1769 C1757 0.930 . S
H1770 C1758 0.956 . S
H1771 C1758 0.961 . S
H1772 C1758 0.961 . S
H1773 C1759 0.958 . S
H1774 C1759 0.961 . S
H1775 C1759 0.960 . S
C1776 C1777 1.391 . S
C1776 C1778 1.394 . S
C1776 H1792 0.931 . S
C1777 C1776 1.391 . S
C1777 C1781 1.376 . S
C1778 C1776 1.394 . S
C1778 C1779 1.369 . S
C1778 C1782 1.531 . S
C1779 C1778 1.369 . S
C1779 C1780 1.410 . S
C1779 C1787 1.503 . S
C1780 C1779 1.410 . S
C1780 C1781 1.392 . S
C1780 C1783 1.511 . S
C1781 C1777 1.376 . S
C1781 C1780 1.392 . S
C1781 H1793 0.929 . S
C1782 C1778 1.531 . S
C1782 H1794 0.960 . S
C1782 H1795 0.962 . S
C1782 H1796 0.960 . S
C1783 C1780 1.511 . S
C1783 H1797 0.961 . S
C1783 H1798 0.961 . S
C1783 H1799 0.961 . S
C1784 C1785 1.370 . S
C1784 C1786 1.363 . S
C1784 H1800 0.931 . S
C1785 C1784 1.370 . S
C1785 C1789 1.408 . S
C1786 C1784 1.363 . S
C1786 C1787 1.370 . S
C1786 C1790 1.524 . S
C1787 C1779 1.503 . S
C1787 C1786 1.370 . S
C1787 C1788 1.403 . S
C1788 C1787 1.403 . S
C1788 C1789 1.404 . S
C1788 C1791 1.539 . S
C1789 C1785 1.408 . S
C1789 C1788 1.404 . S
C1789 H1801 0.930 . S
C1790 C1786 1.524 . S
C1790 H1802 0.956 . S
C1790 H1803 0.961 . S
C1790 H1804 0.961 . S
C1791 C1788 1.539 . S
C1791 H1805 0.958 . S
C1791 H1806 0.961 . S
C1791 H1807 0.960 . S
H1792 C1776 0.931 . S
H1793 C1781 0.929 . S
H1794 C1782 0.960 . S
H1795 C1782 0.962 . S
H1796 C1782 0.960 . S
H1797 C1783 0.961 . S
H1798 C1783 0.961 . S
H1799 C1783 0.961 . S
H1800 C1784 0.931 . S
H1801 C1789 0.930 . S
H1802 C1790 0.956 . S
H1803 C1790 0.961 . S
H1804 C1790 0.961 . S
H1805 C1791 0.958 . S
H1806 C1791 0.961 . S
H1807 C1791 0.960 . S
C1808 C1809 1.391 . S
C1808 C1810 1.394 . S
C1808 H1824 0.931 . S
C1809 C1808 1.391 . S
C1809 C1813 1.376 . S
C1810 C1808 1.394 . S
C1810 C1811 1.369 . S
C1810 C1814 1.531 . S
C1811 C1810 1.369 . S
C1811 C1812 1.410 . S
C1811 C1819 1.503 . S
C1812 C1811 1.410 . S
C1812 C1813 1.392 . S
C1812 C1815 1.511 . S
C1813 C1809 1.376 . S
C1813 C1812 1.392 . S
C1813 H1825 0.929 . S
C1814 C1810 1.531 . S
C1814 H1826 0.960 . S
C1814 H1827 0.962 . S
C1814 H1828 0.960 . S
C1815 C1812 1.511 . S
C1815 H1829 0.961 . S
C1815 H1830 0.961 . S
C1815 H1831 0.961 . S
C1816 C1817 1.370 . S
C1816 C1818 1.363 . S
C1816 H1832 0.931 . S
C1817 C1816 1.370 . S
C1817 C1821 1.408 . S
C1818 C1816 1.363 . S
C1818 C1819 1.370 . S
C1818 C1822 1.524 . S
C1819 C1811 1.503 . S
C1819 C1818 1.370 . S
C1819 C1820 1.403 . S
C1820 C1819 1.403 . S
C1820 C1821 1.404 . S
C1820 C1823 1.539 . S
C1821 C1817 1.408 . S
C1821 C1820 1.404 . S
C1821 H1833 0.930 . S
C1822 C1818 1.524 . S
C1822 H1834 0.956 . S
C1822 H1835 0.961 . S
C1822 H1836 0.961 . S
C1823 C1820 1.539 . S
C1823 H1837 0.958 . S
C1823 H1838 0.961 . S
C1823 H1839 0.960 . S
H1824 C1808 0.931 . S
H1825 C1813 0.929 . S
H1826 C1814 0.960 . S
H1827 C1814 0.962 . S
H1828 C1814 0.960 . S
H1829 C1815 0.961 . S
H1830 C1815 0.961 . S
H1831 C1815 0.961 . S
H1832 C1816 0.931 . S
H1833 C1821 0.930 . S
H1834 C1822 0.956 . S
H1835 C1822 0.961 . S
H1836 C1822 0.961 . S
H1837 C1823 0.958 . S
H1838 C1823 0.961 . S
H1839 C1823 0.960 . S
C1840 C1841 1.391 . S
C1840 C1842 1.394 . S
C1840 H1856 0.931 . S
C1841 C1840 1.391 . S
C1841 C1845 1.376 . S
C1842 C1840 1.394 . S
C1842 C1843 1.369 . S
C1842 C1846 1.531 . S
C1843 C1842 1.369 . S
C1843 C1844 1.410 . S
C1843 C1851 1.503 . S
C1844 C1843 1.410 . S
C1844 C1845 1.392 . S
C1844 C1847 1.511 . S
C1845 C1841 1.376 . S
C1845 C1844 1.392 . S
C1845 H1857 0.929 . S
C1846 C1842 1.531 . S
C1846 H1858 0.960 . S
C1846 H1859 0.962 . S
C1846 H1860 0.960 . S
C1847 C1844 1.511 . S
C1847 H1861 0.961 . S
C1847 H1862 0.961 . S
C1847 H1863 0.961 . S
C1848 C1849 1.370 . S
C1848 C1850 1.363 . S
C1848 H1864 0.931 . S
C1849 C1848 1.370 . S
C1849 C1853 1.408 . S
C1850 C1848 1.363 . S
C1850 C1851 1.370 . S
C1850 C1854 1.524 . S
C1851 C1843 1.503 . S
C1851 C1850 1.370 . S
C1851 C1852 1.403 . S
C1852 C1851 1.403 . S
C1852 C1853 1.404 . S
C1852 C1855 1.539 . S
C1853 C1849 1.408 . S
C1853 C1852 1.404 . S
C1853 H1865 0.930 . S
C1854 C1850 1.524 . S
C1854 H1866 0.956 . S
C1854 H1867 0.961 . S
C1854 H1868 0.961 . S
C1855 C1852 1.539 . S
C1855 H1869 0.958 . S
C1855 H1870 0.961 . S
C1855 H1871 0.960 . S
H1856 C1840 0.931 . S
H1857 C1845 0.929 . S
H1858 C1846 0.960 . S
H1859 C1846 0.962 . S
H1860 C1846 0.960 . S
H1861 C1847 0.961 . S
H1862 C1847 0.961 . S
H1863 C1847 0.961 . S
H1864 C1848 0.931 . S
H1865 C1853 0.930 . S
H1866 C1854 0.956 . S
H1867 C1854 0.961 . S
H1868 C1854 0.961 . S
H1869 C1855 0.958 . S
H1870 C1855 0.961 . S
H1871 C1855 0.960 . S
C337 C309 1.590 . S
C345 C0 1.605 . S
C369 C15 1.611 . S
C377 C335 1.601 . S
C401 C281 1.614 . S
C409 C40 1.601 . S
C433 C295 1.606 . S
C441 C54 1.599 . S
C465 C294 1.597 . S
C473 C69 1.607 . S
C497 C82 1.595 . S
C505 C308 1.602 . S
C529 C334 1.587 . S
C537 C96 1.607 . S
C561 C110 1.614 . S
C569 C280 1.601 . S
C593 C124 1.611 . S
C601 C279 1.595 . S
C625 C224 1.594 . S
C633 C126 1.603 . S
C657 C140 1.613 . S
C665 C250 1.596 . S
C689 C252 1.599 . S
C697 C167 1.601 . S
C721 C166 1.586 . S
C729 C182 1.613 . S
C753 C125 1.611 . S
C761 C197 1.601 . S
C785 C211 1.587 . S
C793 C127 1.611 . S
C817 C141 1.612 . S
C825 C180 1.602 . S
C849 C14 1.613 . S
C857 C253 1.594 . S
C881 C196 1.608 . S
C889 C111 1.597 . S
C913 C68 1.608 . S
C921 C210 1.598 . S
C945 C181 1.587 . S
C953 C83 1.611 . S
C977 C97 1.614 . S
C985 C183 1.600 . S
C1009 C55 1.608 . S
C1017 C225 1.602 . S
C1041 C1 1.594 . S
C1049 C251 1.607 . S
C1073 C41 1.606 . S
C1081 C278 1.597 . S
C1105 C85 1.592 . S
C1113 C292 1.608 . S
C1137 C306 1.609 . S
C1145 C99 1.598 . S
C1169 C320 1.599 . S
C1177 C56 1.598 . S
C1201 C322 1.583 . S
C1209 C71 1.613 . S
C1233 C29 1.611 . S
C1241 C323 1.595 . S
C1265 C43 1.587 . S
C1273 C293 1.612 . S
C1297 C13 1.595 . S
C1305 C307 1.608 . S
C1329 C321 1.588 . S
C1337 C26 1.604 . S
C1361 C153 1.587 . S
C1369 C195 1.613 . S
C1393 C154 1.585 . S
C1401 C208 1.612 . S
C1425 C113 1.601 . S
C1433 C222 1.604 . S
C1457 C139 1.608 . S
C1465 C169 1.603 . S
C1489 C138 1.613 . S
C1497 C266 1.593 . S
C1521 C237 1.585 . S
C1529 C152 1.606 . S
C1553 C155 1.593 . S
C1561 C239 1.603 . S
C1585 C112 1.589 . S
C1593 C265 1.603 . S
C1617 C168 1.614 . S
C1625 C98 1.600 . S
C1649 C236 1.614 . S
C1657 C27 1.602 . S
C1681 C28 1.609 . S
C1689 C238 1.603 . S
C1713 C264 1.614 . S
C1721 C42 1.593 . S
C1745 C267 1.613 . S
C1753 C12 1.595 . S
C1777 C70 1.614 . S
C1785 C209 1.595 . S
C1809 C223 1.604 . S
C1817 C84 1.596 . S
C1841 C194 1.611 . S
C1849 C57 1.604 . S
