# Generated by pormake.
# Topology bcg, (8)-cn, num edge types: 1
# Building blocks:
#     Node 0, Type 0, BuildingBlock: AJUNOK_clean_sbu_0, # of connection points: 8
#     Node 1, Type 0, BuildingBlock: AJUNOK_clean_sbu_0, # of connection points: 8
#     Node 2, Type 0, BuildingBlock: AJUNOK_clean_sbu_0, # of connection points: 8
#     Node 3, Type 0, BuildingBlock: AJUNOK_clean_sbu_0, # of connection points: 8
#     Edge 4, Type (0, 0), BuildingBlock: MIFKUJ_clean_linker_0, # of connection points: 2
#     Edge 5, Type (0, 0), BuildingBlock: MIFKUJ_clean_linker_0, # of connection points: 2
#     Edge 6, Type (0, 0), BuildingBlock: MIFKUJ_clean_linker_0, # of connection points: 2
#     Edge 7, Type (0, 0), BuildingBlock: MIFKUJ_clean_linker_0, # of connection points: 2
#     Edge 8, Type (0, 0), BuildingBlock: MIFKUJ_clean_linker_0, # of connection points: 2
#     Edge 9, Type (0, 0), BuildingBlock: MIFKUJ_clean_linker_0, # of connection points: 2
#     Edge 10, Type (0, 0), BuildingBlock: MIFKUJ_clean_linker_0, # of connection points: 2
#     Edge 11, Type (0, 0), BuildingBlock: MIFKUJ_clean_linker_0, # of connection points: 2
#     Edge 12, Type (0, 0), BuildingBlock: MIFKUJ_clean_linker_0, # of connection points: 2
#     Edge 13, Type (0, 0), BuildingBlock: MIFKUJ_clean_linker_0, # of connection points: 2
#     Edge 14, Type (0, 0), BuildingBlock: MIFKUJ_clean_linker_0, # of connection points: 2
#     Edge 15, Type (0, 0), BuildingBlock: MIFKUJ_clean_linker_0, # of connection points: 2
#     Edge 16, Type (0, 0), BuildingBlock: MIFKUJ_clean_linker_0, # of connection points: 2
#     Edge 17, Type (0, 0), BuildingBlock: MIFKUJ_clean_linker_0, # of connection points: 2
#     Edge 18, Type (0, 0), BuildingBlock: MIFKUJ_clean_linker_0, # of connection points: 2
#     Edge 19, Type (0, 0), BuildingBlock: MIFKUJ_clean_linker_0, # of connection points: 2
# Relax obj value: 0.152
# Max RMSD: 0.187
# Mean RMSD: 0.187
data_MOF--net-bcg--node1-AJUNOK_clean_sbu_0--edge1-MIFKUJ_clean_linker_0
_symmetry_space_group_name_H-M    P1
_symmetry_Int_Tables_number       1
_symmetry_cell_setting            triclinic
loop_
_symmetry_equiv_pos_as_xyz
'x, y, z'
_cell_length_a     19.502878
_cell_length_b     34.493435
_cell_length_c     46.680937
_cell_angle_alpha  89.745181
_cell_angle_beta   89.997592
_cell_angle_gamma 89.817934
loop_
_atom_site_label
_atom_site_type_symbol
_atom_site_fract_x
_atom_site_fract_y
_atom_site_fract_z
_atom_type_partial_charge
Cd0 Cd 0.12168 0.29002 0.01142 0.0
Cd1 Cd 0.29859 0.22182 1.00793 0.0
C2 C 0.16666 0.31444 0.07472 0.0
N3 N 0.14823 0.2823 0.05986 0.0
C4 C 0.1263 0.24779 0.10339 0.0
C5 C 0.13996 0.2814 0.11919 0.0
C6 C 0.16313 0.31458 0.10462 0.0
C7 C 0.13002 0.24901 0.07356 0.0
H8 H 0.17907 0.34087 0.06333 0.0
H9 H 0.11367 0.22414 0.06144 0.0
C10 C 0.13003 0.18864 1.00463 0.0
C11 C 0.27919 0.21855 0.93889 0.0
C12 C 0.29915 0.2209 0.91013 0.0
C13 C 0.35901 0.2412 0.90269 0.0
C14 C 0.39651 0.25943 0.92442 0.0
C15 C 0.37521 0.2559 0.95285 0.0
N16 N 0.3172 0.23606 0.95953 0.0
H17 H 0.23481 0.20161 0.94488 0.0
H18 H 0.4071 0.26714 0.96978 0.0
C19 C 0.27309 0.19604 0.07369 0.0
N20 N 0.29225 0.22761 0.0581 0.0
C21 C 0.32481 0.26096 0.10087 0.0
C22 C 0.30797 0.22828 0.11746 0.0
C23 C 0.28033 0.1958 0.10353 0.0
C24 C 0.31714 0.25988 0.07112 0.0
H25 H 0.25461 0.17049 0.06282 0.0
H26 H 0.33415 0.28425 0.05846 0.0
C27 C 0.2847 0.32585 1.00595 0.0
C28 C -0.00777 0.32776 0.01212 0.0
N29 N 0.11791 0.27539 0.96276 0.0
C30 C 0.1663 0.28598 0.94328 0.0
C31 C 0.15298 0.28237 0.91389 0.0
C32 C 0.08866 0.26884 0.90478 0.0
C33 C 0.04043 0.25764 0.92546 0.0
C34 C 0.05603 0.26136 0.95438 0.0
C35 C 0.41458 0.17264 1.00584 0.0
O36 O 0.10029 0.22104 1.00785 0.0
O37 O 0.19471 0.18579 1.00399 0.0
O38 O 0.31095 0.29212 1.00589 0.0
O39 O 0.22045 0.33101 1.00781 0.0
O40 O 0.00808 0.30093 0.02948 0.0
O41 O 0.04013 0.3408 0.99654 0.0
O42 O 0.4132 0.20335 0.02065 0.0
O43 O 0.35975 0.16316 0.99322 0.0
H44 H 0.21403 0.29851 0.95046 0.0
H45 H 0.01742 0.25467 0.97028 0.0
H46 H 0.10741 0.22178 0.11376 0.0
H47 H 0.17419 0.34105 0.11609 0.0
H48 H 0.26909 0.20625 0.89397 0.0
H49 H 0.44403 0.27434 0.9197 0.0
H50 H 0.34735 0.28639 0.11055 0.0
H51 H 0.26611 0.17008 0.11549 0.0
H52 H 0.19115 0.29176 0.89852 0.0
H53 H -0.00971 0.2471 0.91931 0.0
Cd54 Cd 0.64985 0.76966 0.02651 0.0
Cd55 Cd 0.83122 0.72129 1.00668 0.0
C56 C 0.70942 0.78501 0.09093 0.0
N57 N 0.67356 0.75871 0.07531 0.0
C58 C 0.63498 0.72732 0.11819 0.0
C59 C 0.66926 0.75484 0.13496 0.0
C60 C 0.70815 0.78351 0.12095 0.0
C61 C 0.63704 0.73012 0.08838 0.0
H62 H 0.7361 0.80833 0.08017 0.0
H63 H 0.60552 0.71095 0.07582 0.0
C64 C 0.68311 0.67007 0.01929 0.0
C65 C 0.81444 0.69229 0.94258 0.0
C66 C 0.82498 0.69131 0.91299 0.0
C67 C 0.83889 0.72584 0.898 0.0
C68 C 0.83578 0.76103 0.91303 0.0
C69 C 0.82508 0.76069 0.94266 0.0
N70 N 0.81674 0.72649 0.9569 0.0
H71 H 0.80891 0.66547 0.95445 0.0
H72 H 0.82811 0.78755 0.95435 0.0
C73 C 0.80714 0.70352 0.074 0.0
N74 N 0.83493 0.73098 0.05653 0.0
C75 C 0.88918 0.76115 0.09665 0.0
C76 C 0.86259 0.73262 0.11507 0.0
C77 C 0.81998 0.70394 0.10346 0.0
C78 C 0.87533 0.75953 0.06731 0.0
H79 H 0.77735 0.68024 0.06499 0.0
H80 H 0.90005 0.77987 0.05303 0.0
C81 C 0.79555 0.82236 0.01375 0.0
C82 C 0.51163 0.7923 0.03493 0.0
N83 N 0.65181 0.77093 0.97595 0.0
C84 C 0.63207 0.80496 0.96358 0.0
C85 C 0.61344 0.80627 0.93465 0.0
C86 C 0.61568 0.77227 0.91823 0.0
C87 C 0.64031 0.73811 0.93107 0.0
C88 C 0.6571 0.73794 0.9602 0.0
C89 C 0.95349 0.67725 1.00507 0.0
O90 O 0.64874 0.69977 0.0262 0.0
O91 O 0.74384 0.67298 1.01014 0.0
O92 O 0.83153 0.79261 1.00784 0.0
O93 O 0.73341 0.81951 0.02142 0.0
O94 O 0.53154 0.77204 0.01407 0.0
O95 O 0.55781 0.80609 0.05092 0.0
O96 O 0.95245 0.7128 0.9979 0.0
O97 O 0.89751 0.66234 0.01298 0.0
H98 H 0.62629 0.83056 0.97668 0.0
H99 H 0.67079 0.71095 0.97035 0.0
H100 H 0.60289 0.70537 0.12796 0.0
H101 H 0.73542 0.80529 0.13306 0.0
H102 H 0.82575 0.66357 0.90222 0.0
H103 H 0.84668 0.78833 0.90246 0.0
H104 H 0.92371 0.7832 0.10453 0.0
H105 H 0.7983 0.68142 0.11689 0.0
H106 H 0.59472 0.83321 0.92551 0.0
H107 H 0.64204 0.71117 0.91923 0.0
Cd108 Cd 0.3302 0.76712 0.5296 0.0
Cd109 Cd 0.15014 0.71377 0.50307 0.0
C110 C 0.34264 0.78507 0.46173 0.0
N111 N 0.3686 0.76037 0.48179 0.0
C112 C 0.44564 0.73338 0.4471 0.0
C113 C 0.41916 0.75822 0.42582 0.0
C114 C 0.36674 0.78427 0.4335 0.0
C115 C 0.42004 0.7352 0.47508 0.0
H116 H 0.30378 0.8059 0.46778 0.0
H117 H 0.44253 0.71708 0.49156 0.0
C118 C 0.30637 0.66787 0.51452 0.0
C119 C 0.16399 0.69457 0.57085 0.0
C120 C 0.15111 0.69633 0.60036 0.0
C121 C 0.11708 0.72874 0.61195 0.0
C122 C 0.09922 0.75917 0.59324 0.0
C123 C 0.11133 0.75574 0.56393 0.0
N124 N 0.14369 0.72394 0.5532 0.0
H125 H 0.18767 0.66897 0.56189 0.0
H126 H 0.0917 0.77796 0.54986 0.0
C127 C 0.17329 0.68336 0.44034 0.0
N128 N 0.18303 0.71685 0.45499 0.0
C129 C 0.18575 0.75306 0.41123 0.0
C130 C 0.16887 0.71953 0.39569 0.0
C131 C 0.16594 0.68401 0.41058 0.0
C132 C 0.19121 0.7512 0.44105 0.0
H133 H 0.16453 0.65667 0.45203 0.0
H134 H 0.19645 0.77767 0.45303 0.0
C135 C 0.17388 0.81255 0.50962 0.0
C136 C 0.44532 0.8109 0.5471 0.0
N137 N 0.30056 0.75227 0.57736 0.0
C138 C 0.27826 0.78139 0.59464 0.0
C139 C 0.28424 0.77802 0.6245 0.0
C140 C 0.31446 0.7446 0.63648 0.0
C141 C 0.33123 0.71381 0.6182 0.0
C142 C 0.32462 0.7184 0.58863 0.0
C143 C 0.02479 0.67443 0.49349 0.0
O144 O 0.34002 0.69739 0.52237 0.0
O145 O 0.24391 0.67033 0.50747 0.0
O146 O 0.13873 0.78352 0.50193 0.0
O147 O 0.23417 0.80871 0.51935 0.0
O148 O 0.43517 0.77617 0.55479 0.0
O149 O 0.40108 0.82616 0.53067 0.0
O150 O 0.03842 0.70723 0.48275 0.0
O151 O 0.06995 0.65925 0.50951 0.0
H152 H 0.26146 0.80852 0.58523 0.0
H153 H 0.34427 0.69601 0.57482 0.0
H154 H 0.48723 0.71351 0.44244 0.0
H155 H 0.34454 0.80392 0.41788 0.0
H156 H 0.16509 0.67174 0.61362 0.0
H157 H 0.07405 0.78512 0.60093 0.0
H158 H 0.19013 0.781 0.40074 0.0
H159 H 0.15219 0.6574 0.39984 0.0
H160 H 0.271 0.80258 0.63779 0.0
H161 H 0.35388 0.68736 0.62655 0.0
Cd162 Cd 0.81789 0.27336 0.50172 0.0
Cd163 Cd 0.6428 0.20047 0.51106 0.0
C164 C 0.79069 0.30211 0.43801 0.0
N165 N 0.79139 0.26834 0.45312 0.0
C166 C 0.8062 0.23196 0.41012 0.0
C167 C 0.81236 0.26646 0.39423 0.0
C168 C 0.80116 0.30187 0.40838 0.0
C169 C 0.79715 0.2336 0.43972 0.0
H170 H 0.78873 0.32941 0.44931 0.0
H171 H 0.79964 0.20716 0.45201 0.0
C172 C 0.81305 0.1707 0.50461 0.0
C173 C 0.64431 0.17389 0.5762 0.0
C174 C 0.63681 0.1765 0.60585 0.0
C175 C 0.65081 0.21164 0.61996 0.0
C176 C 0.67596 0.2427 0.60327 0.0
C177 C 0.68022 0.23918 0.57347 0.0
N178 N 0.6631 0.20538 0.56052 0.0
H179 H 0.63025 0.1474 0.5654 0.0
H180 H 0.69396 0.26401 0.56066 0.0
C181 C 0.64951 0.19476 0.44149 0.0
N182 N 0.61849 0.21527 0.4627 0.0
C183 C 0.54233 0.24478 0.42868 0.0
C184 C 0.57338 0.22406 0.40628 0.0
C185 C 0.62843 0.19918 0.41296 0.0
C186 C 0.56524 0.23963 0.45679 0.0
H187 H 0.68907 0.17392 0.44685 0.0
H188 H 0.53829 0.25388 0.47402 0.0
C189 C 0.64918 0.30355 0.51142 0.0
C190 C 0.93717 0.31827 0.49158 0.0
N191 N 0.83712 0.26687 0.55145 0.0
C192 C 0.82074 0.29832 0.56759 0.0
C193 C 0.83843 0.29966 0.59659 0.0
C194 C 0.87402 0.26844 0.60916 0.0
C195 C 0.88911 0.23606 0.5921 0.0
C196 C 0.87096 0.23606 0.56319 0.0
C197 C 0.52699 0.15165 0.51713 0.0
O198 O 0.83915 0.20425 0.50305 0.0
O199 O 0.74889 0.16583 0.50679 0.0
O200 O 0.62178 0.27028 0.51294 0.0
O201 O 0.71303 0.30772 0.50763 0.0
O202 O 0.92415 0.28686 0.47894 0.0
O203 O 0.89235 0.33059 0.50896 0.0
O204 O 0.53535 0.1827 0.5309 0.0
O205 O 0.57458 0.14182 0.50016 0.0
H206 H 0.79541 0.3229 0.55768 0.0
H207 H 0.88644 0.21186 0.55018 0.0
H208 H 0.81282 0.20392 0.40014 0.0
H209 H 0.80632 0.32931 0.39726 0.0
H210 H 0.6162 0.15167 0.61709 0.0
H211 H 0.6898 0.27009 0.61283 0.0
H212 H 0.49963 0.26419 0.42463 0.0
H213 H 0.65291 0.18194 0.39652 0.0
H214 H 0.82651 0.3255 0.60872 0.0
H215 H 0.91586 0.21113 0.60086 0.0
H216 H 0.45465 0.15357 0.9523 0.0
H217 H 0.57087 0.16657 0.93558 0.0
H218 H 0.63949 0.17244 0.02339 0.0
H219 H 0.52425 0.15968 0.03986 0.0
H220 H 0.59951 0.23923 0.95161 0.0
H221 H 0.78333 0.17241 0.03417 0.0
H222 H 0.81179 0.10719 0.05233 0.0
H223 H 0.76993 0.05872 0.96961 0.0
H224 H 0.73848 0.12367 0.95123 0.0
H225 H 0.88023 0.32129 0.04611 0.0
H226 H 0.77735 0.28826 0.02963 0.0
H227 H 0.84001 0.30518 0.94193 0.0
H228 H 0.943 0.33855 0.95826 0.0
H229 H 0.83066 0.21938 0.99332 0.0
H230 H 0.65225 0.2905 0.91022 0.0
H231 H 0.60541 0.35461 0.89679 0.0
H232 H 0.629 0.39365 0.98343 0.0
H233 H 0.67437 0.32958 0.9975 0.0
C234 C 0.49569 0.15469 0.96792 0.0
C235 C 0.48092 0.15663 0.99735 0.0
C236 C 0.56209 0.1624 0.9583 0.0
C237 C 0.61367 0.17118 0.97816 0.0
C238 C 0.60101 0.16545 1.00753 0.0
C239 C 0.53477 0.1582 0.01708 0.0
C240 C 0.66998 0.19765 0.97017 0.0
C241 C 0.65118 0.23445 0.95953 0.0
C242 C 0.73679 0.19163 0.98084 0.0
C243 C 0.75907 0.15291 0.99129 0.0
C244 C 0.7807 0.1479 0.01979 0.0
C245 C 0.79644 0.11089 0.03023 0.0
C246 C 0.79286 0.07879 0.01212 0.0
C247 C 0.77267 0.08361 0.98361 0.0
C248 C 0.75518 0.12046 0.97325 0.0
C249 C 0.86984 0.32033 0.02331 0.0
C250 C 0.92018 0.33149 1.00349 0.0
C251 C 0.81149 0.30105 0.01392 0.0
C252 C 0.8026 0.29353 0.98467 0.0
C253 C 0.84655 0.31065 0.9646 0.0
C254 C 0.905 0.33015 0.97402 0.0
C255 C 0.75834 0.26106 0.97634 0.0
C256 C 0.78033 0.22351 0.98383 0.0
C257 C 0.6943 0.26653 0.96295 0.0
C258 C 0.66839 0.3055 0.95473 0.0
C259 C 0.64773 0.31284 0.92637 0.0
C260 C 0.62115 0.34912 0.91867 0.0
C261 C 0.61468 0.37827 0.9392 0.0
C262 C 0.63458 0.37115 0.96749 0.0
C263 C 0.66091 0.33487 0.97532 0.0
H264 H 0.59391 0.4063 0.93323 0.0
H265 H 0.80554 0.0502 0.02019 0.0
H266 H 0.98057 0.61239 0.03717 0.0
H267 H 0.09491 0.5902 0.05161 0.0
H268 H 0.18451 0.673 0.99281 0.0
H269 H 0.072 0.69392 0.97809 0.0
H270 H 0.27552 0.61523 1.00441 0.0
H271 H 0.10951 0.70267 0.07751 0.0
H272 H 0.01552 0.69465 0.1125 0.0
H273 H 0.09696 0.58367 0.13747 0.0
H274 H 0.19104 0.59106 0.10246 0.0
H275 H 0.39351 0.79628 1.00454 0.0
H276 H 0.30742 0.74576 1.01063 0.0
H277 H 0.39225 0.71699 0.09341 0.0
H278 H 0.4763 0.76871 0.08794 0.0
H279 H 0.25783 0.699 0.09012 0.0
H280 H 0.45795 0.67727 0.03394 0.0
H281 H 0.5425 0.69108 0.99588 0.0
H282 H 0.38772 0.67713 0.93178 0.0
H283 H 0.30169 0.66438 0.96911 0.0
C284 C 0.02504 0.62455 0.02657 0.0
C285 C 0.01821 0.65584 1.00732 0.0
C286 C 0.09027 0.61186 0.03487 0.0
C287 C 0.14855 0.6307 0.02412 0.0
C288 C 0.14078 0.65788 1.00172 0.0
C289 C 0.07617 0.67042 0.99348 0.0
C290 C 0.21373 0.63179 0.04031 0.0
C291 C 0.27344 0.63272 0.02365 0.0
C292 C 0.21344 0.65172 0.06672 0.0
C293 C 0.1569 0.64736 0.08749 0.0
C294 C 0.10716 0.67661 0.09051 0.0
C295 C 0.05379 0.67209 0.11024 0.0
C296 C 0.05026 0.63861 0.12717 0.0
C297 C 0.09975 0.60952 0.1243 0.0
C298 C 0.15294 0.61381 0.1045 0.0
C299 C 0.39052 0.7811 0.02488 0.0
C300 C 0.44228 0.78549 0.04542 0.0
C301 C 0.34265 0.75155 0.02804 0.0
C302 C 0.34687 0.72631 0.05165 0.0
C303 C 0.3899 0.73552 0.07463 0.0
C304 C 0.43695 0.76567 0.07171 0.0
C305 C 0.31175 0.6886 0.05064 0.0
C306 C 0.26246 0.68043 0.07153 0.0
C307 C 0.32079 0.66282 0.02727 0.0
C308 C 0.37329 0.66949 1.00456 0.0
C309 C 0.44192 0.67704 0.01175 0.0
C310 C 0.49009 0.68482 0.9903 0.0
C311 C 0.47064 0.68486 0.96154 0.0
C312 C 0.40284 0.67703 0.95409 0.0
C313 C 0.3543 0.66948 0.97542 0.0
H314 H 0.5081 0.69099 0.94504 0.0
H315 H 0.00947 0.63513 0.14263 0.0
H316 H 0.52539 0.80714 0.59451 0.0
H317 H 0.64468 0.78806 0.58854 0.0
H318 H 0.63899 0.82879 0.50106 0.0
H319 H 0.52063 0.84875 0.50729 0.0
H320 H 0.62739 0.72984 0.55025 0.0
H321 H 0.7973 0.81796 0.47026 0.0
H322 H 0.84423 0.8839 0.46487 0.0
H323 H 0.82575 0.9017 0.55555 0.0
H324 H 0.77978 0.83589 0.56152 0.0
H325 H 0.93574 0.67927 0.44911 0.0
H326 H 0.81702 0.69771 0.45771 0.0
H327 H 0.83578 0.66 0.54558 0.0
H328 H 0.95398 0.64092 0.5369 0.0
H329 H 0.84137 0.75682 0.49686 0.0
H330 H 0.67526 0.6689 0.57741 0.0
H331 H 0.63193 0.60229 0.58368 0.0
H332 H 0.64529 0.58366 0.49299 0.0
H333 H 0.68792 0.65026 0.48609 0.0
C334 C 0.5514 0.81495 0.5748 0.0
C335 C 0.51367 0.82731 0.55083 0.0
C336 C 0.6195 0.80374 0.57132 0.0
C337 C 0.64909 0.80523 0.54396 0.0
C338 C 0.61656 0.82674 0.52225 0.0
C339 C 0.54863 0.8384 0.52588 0.0
C340 C 0.69714 0.7743 0.53548 0.0
C341 C 0.67519 0.73569 0.53916 0.0
C342 C 0.75723 0.7821 0.5198 0.0
C343 C 0.78426 0.82205 0.51629 0.0
C344 C 0.80332 0.83594 0.48906 0.0
C345 C 0.82976 0.87335 0.48588 0.0
C346 C 0.83761 0.89713 0.5098 0.0
C347 C 0.81926 0.88348 0.53696 0.0
C348 C 0.79281 0.84613 0.54025 0.0
C349 C 0.91287 0.67221 0.46964 0.0
C350 C 0.9541 0.66056 0.49277 0.0
C351 C 0.84503 0.68282 0.47455 0.0
C352 C 0.81916 0.68176 0.50256 0.0
C353 C 0.8554 0.66153 0.52389 0.0
C354 C 0.92318 0.65053 0.51888 0.0
C355 C 0.77148 0.71251 0.51156 0.0
C356 C 0.79356 0.75104 0.50797 0.0
C357 C 0.7117 0.70462 0.52739 0.0
C358 C 0.68565 0.66451 0.53129 0.0
C359 C 0.66884 0.65064 0.55878 0.0
C360 C 0.64448 0.61285 0.56245 0.0
C361 C 0.63643 0.58867 0.53877 0.0
C362 C 0.65218 0.60232 0.51134 0.0
C363 C 0.6766 0.64006 0.50755 0.0
H364 H 0.61752 0.55944 0.54163 0.0
H365 H 0.85827 0.92603 0.50726 0.0
H366 H 0.02591 0.32808 0.44724 0.0
H367 H 0.13969 0.29902 0.45136 0.0
H368 H 0.12102 0.30047 0.5435 0.0
H369 H 0.01011 0.33192 0.53931 0.0
H370 H 0.24677 0.29275 0.53124 0.0
H371 H 0.03939 0.22611 0.49874 0.0
H372 H 0.94302 0.21154 0.46612 0.0
H373 H 0.08338 0.19722 0.39627 0.0
H374 H 0.18066 0.21142 0.42837 0.0
H375 H 0.43865 0.13494 0.56041 0.0
H376 H 0.32259 0.16101 0.55674 0.0
H377 H 0.34379 0.16649 0.46478 0.0
H378 H 0.45754 0.13828 0.46842 0.0
H379 H 0.21485 0.16962 0.47819 0.0
H380 H 0.42092 0.24468 0.51181 0.0
H381 H 0.51461 0.2577 0.54617 0.0
H382 H 0.37193 0.25312 0.61599 0.0
H383 H 0.27723 0.24092 0.58209 0.0
C384 C 0.04868 0.32509 0.46831 0.0
C385 C 0.00864 0.33045 0.49297 0.0
C386 C 0.11292 0.30754 0.47068 0.0
C387 C 0.13614 0.29509 0.49765 0.0
C388 C 0.10297 0.30869 0.52237 0.0
C389 C 0.03974 0.32731 0.51996 0.0
C390 C 0.18534 0.26258 0.50022 0.0
C391 C 0.23953 0.26582 0.5197 0.0
C392 C 0.17577 0.22718 0.48533 0.0
C393 C 0.1171 0.22023 0.46586 0.0
C394 C 0.0496 0.22013 0.47638 0.0
C395 C -0.00508 0.21182 0.45803 0.0
C396 C 0.00708 0.2036 0.42923 0.0
C397 C 0.07402 0.20367 0.4186 0.0
C398 C 0.12895 0.21175 0.43684 0.0
C399 C 0.41622 0.13872 0.53934 0.0
C400 C 0.45749 0.13656 0.51475 0.0
C401 C 0.35059 0.15458 0.53728 0.0
C402 C 0.32711 0.16823 0.51068 0.0
C403 C 0.36203 0.1573 0.48567 0.0
C404 C 0.42691 0.14051 0.48773 0.0
C405 C 0.27626 0.19995 0.50903 0.0
C406 C 0.22184 0.19658 0.48972 0.0
C407 C 0.28516 0.23509 0.52426 0.0
C408 C 0.34237 0.24145 0.54453 0.0
C409 C 0.40969 0.24635 0.5345 0.0
C410 C 0.46283 0.25376 0.55385 0.0
C411 C 0.44935 0.25595 0.58319 0.0
C412 C 0.38243 0.25124 0.59327 0.0
C413 C 0.32896 0.24429 0.57402 0.0
H414 H 0.49072 0.26142 0.59808 0.0
H415 H 0.96461 0.19693 0.41523 0.0
H416 H 0.72762 0.60304 0.99457 0.0
H417 H 0.66872 0.54067 0.99398 0.0
H418 H 0.50622 0.58847 0.0459 0.0
H419 H 0.56668 0.65026 0.04784 0.0
H420 H 0.53621 0.51592 0.06207 0.0
H421 H 0.48938 0.58316 0.9732 0.0
H422 H 0.5219 0.61753 0.92876 0.0
H423 H 0.63165 0.51696 0.89993 0.0
H424 H 0.60035 0.48203 0.94428 0.0
H425 H 0.2539 0.39898 0.02347 0.0
H426 H 0.33171 0.45421 0.02651 0.0
H427 H 0.49536 0.38481 0.99141 0.0
H428 H 0.41856 0.32911 0.98886 0.0
H429 H 0.47317 0.46394 0.96662 0.0
H430 H 0.50986 0.39551 0.05521 0.0
H431 H 0.47401 0.36237 0.09965 0.0
H432 H 0.37784 0.46706 0.129 0.0
H433 H 0.41218 0.50067 0.08451 0.0
C434 C 0.67979 0.6001 1.00617 0.0
C435 C 0.65068 0.63172 0.02068 0.0
C436 C 0.64611 0.56456 1.00569 0.0
C437 C 0.58255 0.56034 0.01939 0.0
C438 C 0.55505 0.5913 0.03503 0.0
C439 C 0.58914 0.62667 0.03582 0.0
C440 C 0.54305 0.52426 0.01636 0.0
C441 C 0.522 0.50469 0.04123 0.0
C442 C 0.52565 0.50942 0.98911 0.0
C443 C 0.54312 0.53011 0.96216 0.0
C444 C 0.52071 0.56843 0.95744 0.0
C445 C 0.53889 0.58801 0.93229 0.0
C446 C 0.57908 0.56951 0.91165 0.0
C447 C 0.60066 0.53127 0.91598 0.0
C448 C 0.58263 0.51153 0.94109 0.0
C449 C 0.30628 0.39553 0.01616 0.0
C450 C 0.33019 0.35973 1.00588 0.0
C451 C 0.35056 0.42699 0.01804 0.0
C452 C 0.41895 0.42318 1.00933 0.0
C453 C 0.4426 0.38798 0.99824 0.0
C454 C 0.39868 0.35628 0.99683 0.0
C455 C 0.46583 0.45608 0.01229 0.0
C456 C 0.48807 0.47504 0.98742 0.0
C457 C 0.48362 0.47059 0.03953 0.0
C458 C 0.46305 0.45051 0.06638 0.0
C459 C 0.48049 0.41137 0.07101 0.0
C460 C 0.46057 0.39252 0.09624 0.0
C461 C 0.42355 0.41257 0.11711 0.0
C462 C 0.40647 0.45155 0.1128 0.0
C463 C 0.42621 0.47053 0.08759 0.0
H464 H 0.40825 0.39794 0.13664 0.0
H465 H 0.59351 0.58482 0.89232 0.0
H466 H 0.69335 0.37586 0.52426 0.0
H467 H 0.62491 0.43465 0.52829 0.0
H468 H 0.44118 0.36949 0.51083 0.0
H469 H 0.5097 0.31012 0.50642 0.0
H470 H 0.45618 0.43593 0.47716 0.0
H471 H 0.46397 0.40086 0.5758 0.0
H472 H 0.51824 0.37978 0.62095 0.0
H473 H 0.63936 0.4835 0.62215 0.0
H474 H 0.5867 0.50492 0.57674 0.0
H475 H 0.2455 0.59852 0.50397 0.0
H476 H 0.29759 0.53443 0.50615 0.0
H477 H 0.4922 0.58547 0.52798 0.0
H478 H 0.44033 0.65009 0.52639 0.0
H479 H 0.46192 0.52294 0.56154 0.0
H480 H 0.46338 0.55456 0.46109 0.0
H481 H 0.41215 0.57558 0.41526 0.0
H482 H 0.27586 0.47807 0.41727 0.0
H483 H 0.32563 0.45678 0.46334 0.0
C484 C 0.63835 0.37391 0.52135 0.0
C485 C 0.60678 0.33844 0.51494 0.0
C486 C 0.59936 0.40746 0.5239 0.0
C487 C 0.5282 0.40612 0.52014 0.0
C488 C 0.49617 0.37081 0.51395 0.0
C489 C 0.53524 0.33703 0.51154 0.0
C490 C 0.48856 0.44238 0.52099 0.0
C491 C 0.45596 0.45464 0.49579 0.0
C492 C 0.49036 0.46693 0.54514 0.0
C493 C 0.52169 0.45438 0.57269 0.0
C494 C 0.50256 0.41906 0.58555 0.0
C495 C 0.53299 0.40705 0.61123 0.0
C496 C 0.58231 0.43025 0.62439 0.0
C497 C 0.60117 0.46555 0.61193 0.0
C498 C 0.57098 0.47766 0.58622 0.0
C499 C 0.29952 0.59626 0.50914 0.0
C500 C 0.33897 0.62939 0.5149 0.0
C501 C 0.3291 0.55959 0.51034 0.0
C502 C 0.39875 0.55544 0.51695 0.0
C503 C 0.43834 0.58831 0.52284 0.0
C504 C 0.40871 0.62511 0.52179 0.0
C505 C 0.4302 0.51664 0.51761 0.0
C506 C 0.46135 0.50399 0.54306 0.0
C507 C 0.42731 0.49174 0.49366 0.0
C508 C 0.39775 0.5043 0.46581 0.0
C509 C 0.42213 0.53776 0.45187 0.0
C510 C 0.39341 0.5497 0.42583 0.0
C511 C 0.34066 0.52823 0.4134 0.0
C512 C 0.31666 0.49471 0.42694 0.0
C513 C 0.34513 0.48267 0.45301 0.0
H514 H 0.31847 0.53753 0.39325 0.0
H515 H 0.60582 0.4209 0.64426 0.0
H516 H -0.00306 0.17826 0.02069 0.0
H517 H 0.9322 0.11782 0.01957 0.0
H518 H 0.10434 0.05935 0.98097 0.0
H519 H 0.17023 0.11945 0.9824 0.0
H520 H 0.97513 0.04051 0.9564 0.0
H521 H 0.0856 0.05354 0.04835 0.0
H522 H 0.1119 0.08679 0.09362 0.0
H523 H 0.8996 0.08209 0.11771 0.0
H524 H 0.87187 0.04925 0.07236 0.0
H525 H 0.91836 0.84229 0.98964 0.0
H526 H 0.96719 0.90733 0.98557 0.0
H527 H 0.79048 0.95513 0.02853 0.0
H528 H 0.74131 0.89041 0.03282 0.0
H529 H 0.91332 0.98175 0.05014 0.0
H530 H 0.80223 0.9681 0.95931 0.0
H531 H 0.77418 0.93531 0.91398 0.0
H532 H 0.98548 0.94051 0.88844 0.0
H533 H 0.01498 0.97281 0.93383 0.0
C534 C 0.02073 0.15263 0.01169 0.0
C535 C 0.08882 0.15332 1.00195 0.0
C536 C 0.98359 0.11823 1.01101 0.0
C537 C 0.01365 0.08433 1.00028 0.0
C538 C 0.08044 0.08537 0.98931 0.0
C539 C 0.11804 0.11957 0.99036 0.0
C540 C 0.97748 0.04708 1.00224 0.0
C541 C 0.96192 0.02747 0.97685 0.0
C542 C 0.95932 0.03074 0.02902 0.0
C543 C 0.97635 0.04976 0.05659 0.0
C544 C 0.04434 0.06003 0.0631 0.0
C545 C 0.05958 0.07869 0.08884 0.0
C546 C 0.00739 0.08679 0.10845 0.0
C547 C 0.93994 0.07599 0.10243 0.0
C548 C 0.92443 0.05738 0.0767 0.0
C549 C 0.88997 0.86663 0.99827 0.0
C550 C 0.82601 0.86126 0.01153 0.0
C551 C 0.91771 0.90371 0.99577 0.0
C552 C 0.88195 0.93584 1.00655 0.0
C553 C 0.81856 0.93057 0.02005 0.0
C554 C 0.7906 0.8936 0.0224 0.0
C555 C 0.91148 0.97496 1.0043 0.0
C556 C 0.92593 -0.00508 0.02966 0.0
C557 C 0.9285 -0.00838 0.97753 0.0
C558 C 0.91089 0.97254 0.95009 0.0
C559 C 0.8428 0.96197 0.94413 0.0
C560 C 0.82662 0.94352 0.9184 0.0
C561 C 0.87804 0.93574 0.89837 0.0
C562 C 0.94572 0.94651 0.90399 0.0
C563 C 0.96218 0.96492 0.9297 0.0
H564 H 0.86542 0.92143 0.87848 0.0
H565 H 0.01928 0.10125 0.12836 0.0
H566 H 0.77553 0.09511 0.49991 0.0
H567 H 0.84971 0.03824 0.5024 0.0
H568 H 0.02671 0.11176 0.51203 0.0
H569 H 0.95257 0.16908 0.51026 0.0
H570 H 0.04304 0.04966 0.47194 0.0
H571 H 0.98069 0.07051 0.5689 0.0
H572 H 0.90252 0.08526 0.60895 0.0
H573 H 0.78773 0.98202 0.59138 0.0
H574 H 0.86462 0.96718 0.5509 0.0
H575 H 0.23977 0.88186 0.51385 0.0
H576 H 0.18795 0.9465 0.51384 0.0
H577 H -0.01217 0.89583 0.50289 0.0
H578 H 0.03885 0.83107 0.50284 0.0
H579 H -0.00262 0.95149 0.54765 0.0
H580 H 0.05979 0.93494 0.44776 0.0
H581 H 0.14057 0.92207 0.40827 0.0
H582 H 0.26162 0.02007 0.43322 0.0
H583 H 0.18206 0.03316 0.47317 0.0
C584 C 0.8302 0.09928 0.50251 0.0
C585 C 0.85833 0.13656 0.50472 0.0
C586 C 0.8724 0.06681 0.50393 0.0
C587 C 0.94325 0.07108 0.5076 0.0
C588 C 0.97198 0.10814 0.50914 0.0
C589 C 0.92964 0.14074 0.50796 0.0
C590 C -0.0136 0.03634 0.51033 0.0
C591 C 0.03438 0.02847 0.4888 0.0
C592 C 0.97436 0.00899 0.53233 0.0
C593 C 0.92828 0.0177 0.55682 0.0
C594 C 0.93853 0.05108 0.57347 0.0
C595 C 0.89448 0.05948 0.59626 0.0
C596 C 0.84017 0.03461 0.60271 0.0
C597 C 0.82986 0.00126 0.5864 0.0
C598 C 0.87373 -0.00721 0.56357 0.0
C599 C 0.18472 0.88449 0.51135 0.0
C600 C 0.14326 0.85148 0.50833 0.0
C601 C 0.15539 0.92136 0.51131 0.0
C602 C 0.08433 0.92562 0.50837 0.0
C603 C 0.04282 0.89283 0.50526 0.0
C604 C 0.07209 0.85598 0.50506 0.0
C605 C 0.05277 0.96431 0.50882 0.0
C606 C 0.00702 0.97292 0.53106 0.0
C607 C 0.06779 -0.00745 0.48772 0.0
C608 C 0.11547 0.98472 0.46366 0.0
C609 C 0.10401 0.95351 0.445 0.0
C610 C 0.14949 0.94623 0.4225 0.0
C611 C 0.20632 0.97016 0.4183 0.0
C612 C 0.21766 0.0015 0.43654 0.0
C613 C 0.17238 0.00887 0.45911 0.0
H614 H 0.24146 0.96448 0.40085 0.0
H615 H 0.8061 0.04116 0.62036 0.0
H616 H 0.43866 0.22558 0.38992 0.0
H617 H 0.39185 0.22747 0.34144 0.0
H618 H 0.59672 0.22841 0.30668 0.0
H619 H 0.6442 0.2275 0.35536 0.0
H620 H 0.51473 0.2782 0.27776 0.0
H621 H 0.50556 0.14666 0.3084 0.0
H622 H 0.47726 0.09188 0.34028 0.0
H623 H 0.26249 0.11522 0.32928 0.0
H624 H 0.28942 0.17042 0.2976 0.0
H625 H 0.36497 0.16811 0.14754 0.0
H626 H 0.40605 0.16809 0.1969 0.0
H627 H 0.33333 0.28544 0.20717 0.0
H628 H 0.29197 0.28564 0.15768 0.0
H629 H 0.3525 0.17543 0.24793 0.0
H630 H 0.43997 0.33462 0.24969 0.0
H631 H 0.47705 0.38545 0.21572 0.0
H632 H 0.55327 0.29835 0.1584 0.0
H633 H 0.51726 0.24707 0.19216 0.0
C634 C 0.47392 0.22675 0.37202 0.0
C635 C 0.5453 0.2264 0.37659 0.0
C636 C 0.44699 0.22748 0.34427 0.0
C637 C 0.49068 0.22763 0.32037 0.0
C638 C 0.56198 0.22817 0.32479 0.0
C639 C 0.58905 0.22734 0.35261 0.0
C640 C 0.46176 0.22636 0.29085 0.0
C641 C 0.47918 0.25575 0.27129 0.0
C642 C 0.41621 0.1967 0.28213 0.0
C643 C 0.39962 0.16322 0.301 0.0
C644 C 0.45229 0.14041 0.31301 0.0
C645 C 0.43648 0.10918 0.33099 0.0
C646 C 0.36813 0.1002 0.33692 0.0
C647 C 0.31543 0.12231 0.32476 0.0
C648 C 0.33096 0.1536 0.30678 0.0
C649 C 0.3564 0.19369 0.16044 0.0
C650 C 0.32547 0.22696 0.14854 0.0
C651 C 0.38024 0.19368 0.18869 0.0
C652 C 0.37383 0.22693 0.20574 0.0
C653 C 0.34012 0.25964 0.19436 0.0
C654 C 0.31652 0.25974 0.16602 0.0
C655 C 0.40467 0.22756 0.23497 0.0
C656 C 0.38768 0.19801 0.25448 0.0
C657 C 0.45195 0.25647 0.24341 0.0
C658 C 0.47538 0.28708 0.22333 0.0
C659 C 0.46497 0.32637 0.2299 0.0
C660 C 0.4857 0.35524 0.21067 0.0
C661 C 0.51729 0.34513 0.18487 0.0
C662 C 0.52859 0.30614 0.17834 0.0
C663 C 0.50797 0.27717 0.19749 0.0
H664 H 0.53308 0.36752 0.16997 0.0
H665 H 0.35599 0.07601 0.35085 0.0
H666 H 0.64266 0.81796 0.16855 0.0
H667 H 0.60757 0.81844 0.21883 0.0
H668 H 0.63217 0.69423 0.22295 0.0
H669 H 0.66724 0.69357 0.17258 0.0
H670 H 0.50935 0.71692 0.24407 0.0
H671 H 0.74407 0.75849 0.2533 0.0
H672 H 0.84117 0.80157 0.24213 0.0
H673 H 0.73332 0.89793 0.27868 0.0
H674 H 0.63385 0.85613 0.28865 0.0
H675 H 0.45749 0.69522 0.39372 0.0
H676 H 0.50648 0.6948 0.3455 0.0
H677 H 0.49313 0.81956 0.34205 0.0
H678 H 0.44607 0.82029 0.3906 0.0
H679 H 0.61292 0.79626 0.32102 0.0
H680 H 0.37865 0.76365 0.30578 0.0
H681 H 0.27027 0.72812 0.31221 0.0
H682 H 0.36851 0.62267 0.2856 0.0
H683 H 0.47779 0.65756 0.27925 0.0
C684 C 0.64224 0.79084 0.18033 0.0
C685 C 0.65778 0.75571 0.16651 0.0
C686 C 0.62181 0.79113 0.20908 0.0
C687 C 0.61731 0.75637 0.22478 0.0
C688 C 0.63492 0.7214 0.21129 0.0
C689 C 0.65507 0.72107 0.18251 0.0
C690 C 0.59101 0.75616 0.25478 0.0
C691 C 0.53283 0.73374 0.26101 0.0
C692 C 0.61994 0.77934 0.27666 0.0
C693 C 0.68096 0.80414 0.27147 0.0
C694 C 0.74058 0.78894 0.25869 0.0
C695 C 0.796 0.81317 0.25247 0.0
C696 C 0.79349 0.85236 0.25976 0.0
C697 C 0.73524 0.86754 0.27307 0.0
C698 C 0.67912 0.84364 0.27885 0.0
C699 C 0.46539 0.72261 0.3828 0.0
C700 C 0.44756 0.75779 0.3961 0.0
C701 C 0.49292 0.72231 0.35509 0.0
C702 C 0.50304 0.75714 0.33994 0.0
C703 C 0.48579 0.7923 0.35323 0.0
C704 C 0.45817 0.79263 0.38092 0.0
C705 C 0.5315 0.75689 0.31027 0.0
C706 C 0.58991 0.77921 0.30411 0.0
C707 C 0.50196 0.73438 0.28821 0.0
C708 C 0.43662 0.71313 0.29237 0.0
C709 C 0.37733 0.7328 0.30158 0.0
C710 C 0.31567 0.71279 0.30514 0.0
C711 C 0.31256 0.67311 0.29942 0.0
C712 C 0.37106 0.65339 0.29007 0.0
C713 C 0.43285 0.67328 0.28646 0.0
H714 H 0.26481 0.65764 0.30214 0.0
H715 H 0.83671 0.87095 0.2551 0.0
H716 H 0.24535 0.76815 0.68501 0.0
H717 H 0.29034 0.77096 0.73419 0.0
H718 H 0.48338 0.72437 0.70501 0.0
H719 H 0.43871 0.72077 0.65642 0.0
H720 H 0.45102 0.69272 0.75455 0.0
H721 H 0.45495 0.82404 0.71643 0.0
H722 H 0.40124 0.88228 0.69517 0.0
H723 H 0.26745 0.89205 0.76785 0.0
H724 H 0.31975 0.83353 0.78935 0.0
H725 H 0.67143 0.74235 0.86907 0.0
H726 H 0.617 0.73746 0.82186 0.0
H727 H 0.43519 0.79305 0.85511 0.0
H728 H 0.49056 0.79934 0.9018 0.0
H729 H 0.45473 0.81912 0.80472 0.0
H730 H 0.45215 0.69084 0.84452 0.0
H731 H 0.50046 0.63121 0.86588 0.0
H732 H 0.62465 0.61369 0.79106 0.0
H733 H 0.57817 0.67365 0.7695 0.0
C734 C 0.29715 0.75827 0.68922 0.0
C735 C 0.33823 0.74404 0.66682 0.0
C736 C 0.32291 0.76002 0.71727 0.0
C737 C 0.39068 0.7484 0.7233 0.0
C738 C 0.43096 0.73339 0.70104 0.0
C739 C 0.40514 0.73123 0.6732 0.0
C740 C 0.42113 0.7528 0.75243 0.0
C741 C 0.45236 0.72045 0.76542 0.0
C742 C 0.42138 0.78869 0.76706 0.0
C743 C 0.39089 0.82427 0.75438 0.0
C744 C 0.41389 0.83853 0.72781 0.0
C745 C 0.3837 0.87158 0.71573 0.0
C746 C 0.33094 0.89084 0.73015 0.0
C747 C 0.3084 0.87715 0.75674 0.0
C748 C 0.33827 0.84404 0.76887 0.0
C749 C 0.62004 0.75373 0.86614 0.0
C750 C 0.58528 0.77132 0.88905 0.0
C751 C 0.58868 0.75071 0.83922 0.0
C752 C 0.52116 0.76417 0.83491 0.0
C753 C 0.48715 0.78242 0.85773 0.0
C754 C 0.51891 0.78608 0.88443 0.0
C755 C 0.48555 0.75907 0.80682 0.0
C756 C 0.45325 0.79129 0.79401 0.0
C757 C 0.48375 0.72293 0.79247 0.0
C758 C 0.51206 0.68694 0.80549 0.0
C759 C 0.4902 0.67446 0.83273 0.0
C760 C 0.51728 0.64059 0.84487 0.0
C761 C 0.56576 0.61874 0.82986 0.0
C762 C 0.58729 0.63072 0.8027 0.0
C763 C 0.56058 0.66463 0.7905 0.0
H764 H 0.58649 0.59244 0.8392 0.0
H765 H 0.3075 0.91636 0.72072 0.0
H766 H 0.40667 0.30213 0.87067 0.0
H767 H 0.4602 0.29957 0.82307 0.0
H768 H 0.4286 0.17596 0.82074 0.0
H769 H 0.3745 0.17839 0.86807 0.0
H770 H 0.56542 0.20081 0.8074 0.0
H771 H 0.33045 0.22814 0.78183 0.0
H772 H 0.22223 0.26513 0.78249 0.0
H773 H 0.3264 0.36572 0.75033 0.0
H774 H 0.43572 0.32948 0.74989 0.0
H775 H 0.64472 0.15591 0.66297 0.0
H776 H 0.59802 0.16283 0.71073 0.0
H777 H 0.57739 0.28618 0.69748 0.0
H778 H 0.61485 0.27895 0.64839 0.0
H779 H 0.47062 0.26459 0.72064 0.0
H780 H 0.70607 0.23258 0.74016 0.0
H781 H 0.81143 0.19288 0.73854 0.0
H782 H 0.71061 0.10141 0.78423 0.0
H783 H 0.60314 0.13898 0.78439 0.0
C784 C 0.41064 0.2745 0.85984 0.0
C785 C 0.38609 0.24048 0.87297 0.0
C786 C 0.44111 0.27308 0.8327 0.0
C787 C 0.44838 0.23756 0.81844 0.0
C788 C 0.42348 0.20364 0.83142 0.0
C789 C 0.39207 0.20512 0.85831 0.0
C790 C 0.48335 0.23546 0.79025 0.0
C791 C 0.54477 0.21439 0.78824 0.0
C792 C 0.45708 0.25429 0.76567 0.0
C793 C 0.39151 0.27624 0.76624 0.0
C794 C 0.33052 0.25829 0.77526 0.0
C795 C 0.26893 0.27911 0.77555 0.0
C796 C 0.26748 0.31783 0.76667 0.0
C797 C 0.32765 0.33577 0.75735 0.0
C798 C 0.38945 0.31511 0.75707 0.0
C799 C 0.62942 0.18457 0.6698 0.0
C800 C 0.63324 0.2167 0.65106 0.0
C801 C 0.60395 0.18859 0.69765 0.0
C802 C 0.58487 0.22516 0.70819 0.0
C803 C 0.5916 0.25755 0.69006 0.0
C804 C 0.61452 0.25337 0.66186 0.0
C805 C 0.55363 0.22951 0.73726 0.0
C806 C 0.49255 0.25117 0.73961 0.0
C807 C 0.58067 0.21119 0.76219 0.0
C808 C 0.64594 0.18865 0.76205 0.0
C809 C 0.70587 0.20381 0.74953 0.0
C810 C 0.76606 0.18167 0.74886 0.0
C811 C 0.76789 0.14494 0.7615 0.0
C812 C 0.70921 0.12993 0.77449 0.0
C813 C 0.64844 0.1515 0.77467 0.0
H814 H 0.81478 0.12808 0.76116 0.0
H815 H 0.21966 0.33384 0.76682 0.0
H816 H 0.09624 0.77871 0.37034 0.0
H817 H 0.04576 0.78042 0.32282 0.0
H818 H 0.12977 0.66726 0.30508 0.0
H819 H 0.18487 0.66633 0.3521 0.0
H820 H 0.13771 0.71024 0.25902 0.0
H821 H 0.95603 0.67955 0.32451 0.0
H822 H 0.88185 0.68755 0.36692 0.0
H823 H 0.81868 0.79979 0.33647 0.0
H824 H 0.89421 0.79285 0.2944 0.0
H825 H 0.90103 0.66844 0.14548 0.0
H826 H 0.95377 0.66597 0.19304 0.0
H827 H 0.92711 0.78949 0.20131 0.0
H828 H 0.87559 0.79234 0.15337 0.0
H829 H 0.88855 0.73817 0.25188 0.0
H830 H 0.07212 0.76594 0.18462 0.0
H831 H 0.1468 0.75453 0.14286 0.0
H832 H 0.2051 0.64352 0.17708 0.0
H833 H 0.1298 0.65394 0.21884 0.0
C834 C 0.10596 0.75453 0.35619 0.0
C835 C 0.14484 0.72228 0.36535 0.0
C836 C 0.07573 0.75529 0.32908 0.0
C837 C 0.08228 0.72353 0.3106 0.0
C838 C 0.12326 0.69196 0.31908 0.0
C839 C 0.15434 0.69135 0.34612 0.0
C840 C 0.0456 0.72318 0.28264 0.0
C841 C 0.08309 0.71599 0.25754 0.0
C842 C 0.97436 0.73101 0.28055 0.0
C843 C 0.93045 0.73564 0.30626 0.0
C844 C 0.92668 0.70604 0.32699 0.0
C845 C 0.8845 0.7104 0.351 0.0
C846 C 0.84551 0.74413 0.35439 0.0
C847 C 0.84882 0.77365 0.33383 0.0
C848 C 0.89123 0.7695 0.30989 0.0
C849 C 0.90565 0.69503 0.15754 0.0
C850 C 0.8851 0.73066 0.14549 0.0
C851 C 0.93607 0.69357 0.18464 0.0
C852 C 0.945 0.7276 0.20048 0.0
C853 C 0.92098 0.76294 0.18929 0.0
C854 C 0.89183 0.76454 0.1619 0.0
C855 C 0.98106 0.72639 0.2284 0.0
C856 C 0.94325 0.73289 0.25345 0.0
C857 C 0.05178 0.71751 0.23044 0.0
C858 C 0.09474 0.71057 0.20473 0.0
C859 C 0.10005 0.73885 0.18306 0.0
C860 C 0.14281 0.73266 0.15947 0.0
C861 C 0.18094 0.69843 0.15743 0.0
C862 C 0.1758 0.67011 0.17879 0.0
C863 C 0.13302 0.67612 0.20239 0.0
H864 H 0.21436 0.69377 0.13929 0.0
H865 H 0.81275 0.74741 0.37294 0.0
H866 H 0.78106 0.31505 0.34889 0.0
H867 H 0.83901 0.31859 0.30249 0.0
H868 H 0.96334 0.2196 0.32548 0.0
H869 H 0.90856 0.21699 0.37208 0.0
H870 H 0.04129 0.2743 0.30424 0.0
H871 H 0.82997 0.21417 0.2768 0.0
H872 H 0.7044 0.20764 0.2732 0.0
H873 H 0.69299 0.3143 0.22568 0.0
H874 H 0.81851 0.32185 0.22941 0.0
H875 H 0.16484 0.22888 0.16236 0.0
H876 H 0.1124 0.22808 0.21021 0.0
H877 H 0.01133 0.33672 0.1917 0.0
H878 H 0.06371 0.33786 0.14418 0.0
H879 H 0.9222 0.27805 0.21041 0.0
H880 H 0.13459 0.33658 0.23673 0.0
H881 H 0.25988 0.34329 0.24114 0.0
H882 H 0.26925 0.2389 0.29125 0.0
H883 H 0.1441 0.2307 0.2864 0.0
C884 C 0.82064 0.29398 0.34407 0.0
C885 C 0.83996 0.26578 0.36444 0.0
C886 C 0.85337 0.29585 0.31741 0.0
C887 C 0.90548 0.26926 0.31044 0.0
C888 C 0.92344 0.24048 0.33036 0.0
C889 C 0.89119 0.23875 0.35699 0.0
C890 C 0.94331 0.27213 0.28289 0.0
C891 C 0.01529 0.27452 0.28369 0.0
C892 C 0.90924 0.27338 0.25613 0.0
C893 C 0.8337 0.26878 0.25366 0.0
C894 C 0.80068 0.23642 0.26579 0.0
C895 C 0.72949 0.23251 0.2637 0.0
C896 C 0.69071 0.26061 0.24931 0.0
C897 C 0.7231 0.29261 0.23688 0.0
C898 C 0.79428 0.2967 0.23897 0.0
C899 C 0.13251 0.25292 0.16878 0.0
C900 C 0.11865 0.28353 0.14963 0.0
C901 C 0.1026 0.25243 0.19604 0.0
C902 C 0.05772 0.28226 0.20435 0.0
C903 C 0.0457 0.31341 0.18563 0.0
C904 C 0.07628 0.31421 0.15862 0.0
C905 C 0.01998 0.27997 0.23184 0.0
C906 C 0.94808 0.2777 0.23099 0.0
C907 C 0.05414 0.27857 0.25853 0.0
C908 C 0.12981 0.28276 0.26087 0.0
C909 C 0.16336 0.31465 0.24829 0.0
C910 C 0.23439 0.31875 0.25092 0.0
C911 C 0.27246 0.29142 0.26638 0.0
C912 C 0.23964 0.25984 0.27913 0.0
C913 C 0.16866 0.25544 0.27643 0.0
H914 H 0.32733 0.29481 0.26858 0.0
H915 H 0.63562 0.25752 0.2477 0.0
H916 H 0.97239 0.29835 0.88109 0.0
H917 H 0.93814 0.29813 0.83084 0.0
H918 H 0.12556 0.23847 0.80882 0.0
H919 H 0.16134 0.23997 0.85926 0.0
H920 H 0.10186 0.2937 0.77153 0.0
H921 H 0.96627 0.1915 0.81064 0.0
H922 H 0.88452 0.15804 0.84248 0.0
H923 H 0.7265 0.2389 0.81864 0.0
H924 H 0.80758 0.27324 0.78699 0.0
H925 H -0.00415 0.24212 0.63132 0.0
H926 H 0.03421 0.24364 0.68095 0.0
H927 H 0.84742 0.30242 0.70509 0.0
H928 H 0.80676 0.29884 0.65567 0.0
H929 H 0.87195 0.24904 0.74135 0.0
H930 H 0.01141 0.34868 0.70059 0.0
H931 H 0.09417 0.37866 0.66733 0.0
H932 H 0.24792 0.29615 0.69298 0.0
H933 H 0.16563 0.26516 0.72593 0.0
C934 C 0.0062 0.28504 0.86554 0.0
C935 C 0.06929 0.26889 0.87407 0.0
C936 C -0.01357 0.28478 0.83682 0.0
C937 C 0.0287 0.26773 0.81602 0.0
C938 C 0.09218 0.2519 0.82445 0.0
C939 C 0.11255 0.25269 0.85322 0.0
C940 C 0.00731 0.26762 0.78543 0.0
C941 C 0.05221 0.28297 0.76481 0.0
C942 C 0.94158 0.25484 0.77674 0.0
C943 C 0.89336 0.23527 0.79671 0.0
C944 C 0.91438 0.2025 0.81249 0.0
C945 C 0.86807 0.18329 0.83044 0.0
C946 C 0.80045 0.19644 0.83268 0.0
C947 C 0.77902 0.22888 0.81702 0.0
C948 C 0.82514 0.24823 0.79908 0.0
C949 C 0.96247 0.25503 0.6472 0.0
C950 C 0.89797 0.27023 0.63943 0.0
C951 C 0.98513 0.2565 0.67557 0.0
C952 C 0.94446 0.27385 0.69679 0.0
C953 C 0.8801 0.28917 0.6891 0.0
C954 C 0.85706 0.28734 0.66076 0.0
C955 C 0.96704 0.27386 0.72727 0.0
C956 C 0.92209 0.2589 0.74796 0.0
C957 C 0.03307 0.2863 0.73587 0.0
C958 C 0.08213 0.3044 0.71557 0.0
C959 C 0.06262 0.33666 0.69891 0.0
C960 C 0.10949 0.35387 0.68012 0.0
C961 C 0.1762 0.33926 0.67797 0.0
C962 C 0.19618 0.30738 0.69458 0.0
C963 C 0.14943 0.28998 0.71331 0.0
H964 H 0.21245 0.35269 0.66348 0.0
H965 H 0.7646 0.18139 0.84646 0.0
H966 H 0.001 0.76186 0.63473 0.0
H967 H 0.96346 0.76234 0.68435 0.0
H968 H 0.14114 0.69563 0.70892 0.0
H969 H 0.1824 0.69708 0.65931 0.0
H970 H -0.01343 0.66929 0.7249 0.0
H971 H 0.15822 0.76883 0.7327 0.0
H972 H 0.21711 0.82885 0.71791 0.0
H973 H 0.0312 0.89362 0.72999 0.0
H974 H 0.97068 0.83382 0.74416 0.0
H975 H 0.92958 0.67431 0.87486 0.0
H976 H 0.97953 0.67488 0.82703 0.0
H977 H 0.8598 0.77616 0.80532 0.0
H978 H 0.80897 0.77567 0.8534 0.0
H979 H -0.00887 0.7845 0.78817 0.0
H980 H 0.818 0.68789 0.779 0.0
H981 H 0.75356 0.62915 0.79222 0.0
H982 H 0.93488 0.55991 0.78104 0.0
H983 H 0.00081 0.61842 0.76823 0.0
C984 C 0.03364 0.74817 0.65058 0.0
C985 C 0.09542 0.7297 0.6427 0.0
C986 C 0.01142 0.74817 0.679 0.0
C987 C 0.04952 0.7291 0.70021 0.0
C988 C 0.11097 0.71045 0.69273 0.0
C989 C 0.13416 0.71111 0.6643 0.0
C990 C 0.02284 0.72768 0.7299 0.0
C991 C -0.01127 0.69413 0.73905 0.0
C992 C 0.02354 0.7607 0.74773 0.0
C993 C 0.05971 0.79672 0.73914 0.0
C994 C 0.12966 0.79577 0.73184 0.0
C995 C 0.16341 0.82976 0.72366 0.0
C996 C 0.12795 0.86499 0.72299 0.0
C997 C 0.05861 0.8663 0.73049 0.0
C998 C 0.02454 0.83235 0.73858 0.0
C999 C 0.91261 0.69628 0.85978 0.0
C1000 C 0.86464 0.72475 0.86795 0.0
C1001 C 0.94165 0.69669 0.83243 0.0
C1002 C 0.92316 0.72539 0.81245 0.0
C1003 C 0.87503 0.75378 0.8204 0.0
C1004 C 0.84594 0.75344 0.84786 0.0
C1005 C 0.95499 0.72588 0.78345 0.0
C1006 C -0.01049 0.75941 0.77427 0.0
C1007 C 0.95408 0.69292 0.76543 0.0
C1008 C 0.91453 0.65762 0.77294 0.0
C1009 C 0.8443 0.66019 0.77958 0.0
C1010 C 0.80746 0.62692 0.78697 0.0
C1011 C 0.84012 0.59082 0.78753 0.0
C1012 C 0.90967 0.58791 0.78063 0.0
C1013 C 0.9468 0.62112 0.7733 0.0
H1014 H 0.8115 0.56509 0.79324 0.0
H1015 H 0.15425 0.89128 0.71673 0.0
loop_
_geom_bond_atom_site_label_1
_geom_bond_atom_site_label_2
_geom_bond_distance
_geom_bond_site_symmetry_2
_ccdc_geom_bond_type
Cd0 N3 2.334 . S
Cd0 N29 2.304 1_554 S
Cd0 O36 2.268 . S
Cd0 O39 2.273 . S
Cd0 O40 2.417 . S
Cd0 O41 2.331 . S
Cd1 N16 2.304 1_554 S
Cd1 N20 2.334 . S
Cd1 O37 2.273 . S
Cd1 O38 2.268 . S
Cd1 O42 2.417 . S
Cd1 O43 2.331 . S
C2 N3 1.332 . S
C2 C6 1.381 . S
C2 H8 0.931 . S
N3 Cd0 2.334 . S
N3 C2 1.332 . S
N3 C7 1.328 . S
C4 C5 1.396 . S
C4 C7 1.378 . S
C4 H46 0.931 . S
C5 C4 1.396 . S
C5 C6 1.382 . S
C6 C2 1.381 . S
C6 C5 1.382 . S
C6 H47 0.930 . S
C7 N3 1.328 . S
C7 C4 1.378 . S
C7 H9 0.930 . S
H8 C2 0.931 . S
H9 C7 0.930 . S
C10 O36 1.238 . S
C10 O37 1.253 . S
C11 C12 1.379 . S
C11 N16 1.337 . S
C11 H17 0.929 . S
C12 C11 1.379 . S
C12 C13 1.380 . S
C12 H48 0.929 . S
C13 C12 1.380 . S
C13 C14 1.399 . S
C14 C13 1.399 . S
C14 C15 1.376 . S
C14 H49 0.931 . S
C15 C14 1.376 . S
C15 N16 1.338 . S
C15 H18 0.930 . S
N16 Cd1 2.304 1_556 S
N16 C11 1.337 . S
N16 C15 1.338 . S
H17 C11 0.929 . S
H18 C15 0.930 . S
C19 N20 1.332 . S
C19 C23 1.381 . S
C19 H25 0.931 . S
N20 Cd1 2.334 . S
N20 C19 1.332 . S
N20 C24 1.328 . S
C21 C22 1.396 . S
C21 C24 1.378 . S
C21 H50 0.931 . S
C22 C21 1.396 . S
C22 C23 1.382 . S
C23 C19 1.381 . S
C23 C22 1.382 . S
C23 H51 0.930 . S
C24 N20 1.328 . S
C24 C21 1.378 . S
C24 H26 0.930 . S
H25 C19 0.931 . S
H26 C24 0.930 . S
C27 O38 1.238 . S
C27 O39 1.253 . S
C28 O40 1.239 . S
C28 O41 1.231 . S
N29 Cd0 2.304 1_556 S
N29 C30 1.337 . S
N29 C34 1.338 . S
C30 N29 1.337 . S
C30 C31 1.379 . S
C30 H44 0.929 . S
C31 C30 1.379 . S
C31 C32 1.380 . S
C31 H52 0.929 . S
C32 C31 1.380 . S
C32 C33 1.399 . S
C33 C32 1.399 . S
C33 C34 1.376 . S
C33 H53 0.931 . S
C34 N29 1.338 . S
C34 C33 1.376 . S
C34 H45 0.930 . S
C35 O42 1.239 . S
C35 O43 1.231 . S
O36 Cd0 2.268 . S
O36 C10 1.238 . S
O37 Cd1 2.273 . S
O37 C10 1.253 . S
O38 Cd1 2.268 . S
O38 C27 1.238 . S
O39 Cd0 2.273 . S
O39 C27 1.253 . S
O40 Cd0 2.417 . S
O40 C28 1.239 . S
O41 Cd0 2.331 . S
O41 C28 1.231 . S
O42 Cd1 2.417 . S
O42 C35 1.239 . S
O43 Cd1 2.331 . S
O43 C35 1.231 . S
H44 C30 0.929 . S
H45 C34 0.930 . S
H46 C4 0.931 . S
H47 C6 0.930 . S
H48 C12 0.929 . S
H49 C14 0.931 . S
H50 C21 0.931 . S
H51 C23 0.930 . S
H52 C31 0.929 . S
H53 C33 0.931 . S
Cd54 N57 2.334 . S
Cd54 N83 2.304 1_554 S
Cd54 O90 2.268 . S
Cd54 O93 2.273 . S
Cd54 O94 2.417 . S
Cd54 O95 2.331 . S
Cd55 N70 2.304 1_554 S
Cd55 N74 2.334 . S
Cd55 O91 2.273 . S
Cd55 O92 2.268 . S
Cd55 O96 2.417 . S
Cd55 O97 2.331 . S
C56 N57 1.332 . S
C56 C60 1.381 . S
C56 H62 0.931 . S
N57 Cd54 2.334 . S
N57 C56 1.332 . S
N57 C61 1.328 . S
C58 C59 1.396 . S
C58 C61 1.378 . S
C58 H100 0.931 . S
C59 C58 1.396 . S
C59 C60 1.382 . S
C60 C56 1.381 . S
C60 C59 1.382 . S
C60 H101 0.930 . S
C61 N57 1.328 . S
C61 C58 1.378 . S
C61 H63 0.930 . S
H62 C56 0.931 . S
H63 C61 0.930 . S
C64 O90 1.238 . S
C64 O91 1.253 . S
C65 C66 1.379 . S
C65 N70 1.337 . S
C65 H71 0.929 . S
C66 C65 1.379 . S
C66 C67 1.380 . S
C66 H102 0.929 . S
C67 C66 1.380 . S
C67 C68 1.399 . S
C68 C67 1.399 . S
C68 C69 1.376 . S
C68 H103 0.931 . S
C69 C68 1.376 . S
C69 N70 1.338 . S
C69 H72 0.930 . S
N70 Cd55 2.304 1_556 S
N70 C65 1.337 . S
N70 C69 1.338 . S
H71 C65 0.929 . S
H72 C69 0.930 . S
C73 N74 1.332 . S
C73 C77 1.381 . S
C73 H79 0.931 . S
N74 Cd55 2.334 . S
N74 C73 1.332 . S
N74 C78 1.328 . S
C75 C76 1.396 . S
C75 C78 1.378 . S
C75 H104 0.931 . S
C76 C75 1.396 . S
C76 C77 1.382 . S
C77 C73 1.381 . S
C77 C76 1.382 . S
C77 H105 0.930 . S
C78 N74 1.328 . S
C78 C75 1.378 . S
C78 H80 0.930 . S
H79 C73 0.931 . S
H80 C78 0.930 . S
C81 O92 1.238 . S
C81 O93 1.253 . S
C82 O94 1.239 . S
C82 O95 1.231 . S
N83 Cd54 2.304 1_556 S
N83 C84 1.337 . S
N83 C88 1.338 . S
C84 N83 1.337 . S
C84 C85 1.379 . S
C84 H98 0.929 . S
C85 C84 1.379 . S
C85 C86 1.380 . S
C85 H106 0.929 . S
C86 C85 1.380 . S
C86 C87 1.399 . S
C87 C86 1.399 . S
C87 C88 1.376 . S
C87 H107 0.931 . S
C88 N83 1.338 . S
C88 C87 1.376 . S
C88 H99 0.930 . S
C89 O96 1.239 . S
C89 O97 1.231 . S
O90 Cd54 2.268 . S
O90 C64 1.238 . S
O91 Cd55 2.273 . S
O91 C64 1.253 . S
O92 Cd55 2.268 . S
O92 C81 1.238 . S
O93 Cd54 2.273 . S
O93 C81 1.253 . S
O94 Cd54 2.417 . S
O94 C82 1.239 . S
O95 Cd54 2.331 . S
O95 C82 1.231 . S
O96 Cd55 2.417 . S
O96 C89 1.239 . S
O97 Cd55 2.331 . S
O97 C89 1.231 . S
H98 C84 0.929 . S
H99 C88 0.930 . S
H100 C58 0.931 . S
H101 C60 0.930 . S
H102 C66 0.929 . S
H103 C68 0.931 . S
H104 C75 0.931 . S
H105 C77 0.930 . S
H106 C85 0.929 . S
H107 C87 0.931 . S
Cd108 N111 2.334 . S
Cd108 N137 2.304 . S
Cd108 O144 2.268 . S
Cd108 O147 2.273 . S
Cd108 O148 2.417 . S
Cd108 O149 2.330 . S
Cd109 N124 2.304 . S
Cd109 N128 2.334 . S
Cd109 O145 2.273 . S
Cd109 O146 2.268 . S
Cd109 O150 2.417 . S
Cd109 O151 2.330 . S
C110 N111 1.332 . S
C110 C114 1.381 . S
C110 H116 0.931 . S
N111 Cd108 2.334 . S
N111 C110 1.332 . S
N111 C115 1.328 . S
C112 C113 1.396 . S
C112 C115 1.378 . S
C112 H154 0.931 . S
C113 C112 1.396 . S
C113 C114 1.382 . S
C114 C110 1.381 . S
C114 C113 1.382 . S
C114 H155 0.930 . S
C115 N111 1.328 . S
C115 C112 1.378 . S
C115 H117 0.930 . S
H116 C110 0.931 . S
H117 C115 0.930 . S
C118 O144 1.238 . S
C118 O145 1.253 . S
C119 C120 1.379 . S
C119 N124 1.337 . S
C119 H125 0.929 . S
C120 C119 1.379 . S
C120 C121 1.380 . S
C120 H156 0.929 . S
C121 C120 1.380 . S
C121 C122 1.399 . S
C122 C121 1.399 . S
C122 C123 1.376 . S
C122 H157 0.931 . S
C123 C122 1.376 . S
C123 N124 1.338 . S
C123 H126 0.930 . S
N124 Cd109 2.304 . S
N124 C119 1.337 . S
N124 C123 1.338 . S
H125 C119 0.929 . S
H126 C123 0.930 . S
C127 N128 1.332 . S
C127 C131 1.381 . S
C127 H133 0.931 . S
N128 Cd109 2.334 . S
N128 C127 1.332 . S
N128 C132 1.328 . S
C129 C130 1.396 . S
C129 C132 1.378 . S
C129 H158 0.931 . S
C130 C129 1.396 . S
C130 C131 1.382 . S
C131 C127 1.381 . S
C131 C130 1.382 . S
C131 H159 0.930 . S
C132 N128 1.328 . S
C132 C129 1.378 . S
C132 H134 0.930 . S
H133 C127 0.931 . S
H134 C132 0.930 . S
C135 O146 1.238 . S
C135 O147 1.253 . S
C136 O148 1.239 . S
C136 O149 1.230 . S
N137 Cd108 2.304 . S
N137 C138 1.337 . S
N137 C142 1.338 . S
C138 N137 1.337 . S
C138 C139 1.379 . S
C138 H152 0.929 . S
C139 C138 1.379 . S
C139 C140 1.380 . S
C139 H160 0.929 . S
C140 C139 1.380 . S
C140 C141 1.399 . S
C141 C140 1.399 . S
C141 C142 1.376 . S
C141 H161 0.931 . S
C142 N137 1.338 . S
C142 C141 1.376 . S
C142 H153 0.930 . S
C143 O150 1.239 . S
C143 O151 1.230 . S
O144 Cd108 2.268 . S
O144 C118 1.238 . S
O145 Cd109 2.273 . S
O145 C118 1.253 . S
O146 Cd109 2.268 . S
O146 C135 1.238 . S
O147 Cd108 2.273 . S
O147 C135 1.253 . S
O148 Cd108 2.417 . S
O148 C136 1.239 . S
O149 Cd108 2.330 . S
O149 C136 1.230 . S
O150 Cd109 2.417 . S
O150 C143 1.239 . S
O151 Cd109 2.330 . S
O151 C143 1.230 . S
H152 C138 0.929 . S
H153 C142 0.930 . S
H154 C112 0.931 . S
H155 C114 0.930 . S
H156 C120 0.929 . S
H157 C122 0.931 . S
H158 C129 0.931 . S
H159 C131 0.930 . S
H160 C139 0.929 . S
H161 C141 0.931 . S
Cd162 N165 2.334 . S
Cd162 N191 2.304 . S
Cd162 O198 2.268 . S
Cd162 O201 2.273 . S
Cd162 O202 2.417 . S
Cd162 O203 2.330 . S
Cd163 N178 2.304 . S
Cd163 N182 2.334 . S
Cd163 O199 2.273 . S
Cd163 O200 2.268 . S
Cd163 O204 2.417 . S
Cd163 O205 2.330 . S
C164 N165 1.332 . S
C164 C168 1.381 . S
C164 H170 0.931 . S
N165 Cd162 2.334 . S
N165 C164 1.332 . S
N165 C169 1.328 . S
C166 C167 1.396 . S
C166 C169 1.378 . S
C166 H208 0.931 . S
C167 C166 1.396 . S
C167 C168 1.382 . S
C168 C164 1.381 . S
C168 C167 1.382 . S
C168 H209 0.930 . S
C169 N165 1.328 . S
C169 C166 1.378 . S
C169 H171 0.930 . S
H170 C164 0.931 . S
H171 C169 0.930 . S
C172 O198 1.238 . S
C172 O199 1.253 . S
C173 C174 1.379 . S
C173 N178 1.337 . S
C173 H179 0.929 . S
C174 C173 1.379 . S
C174 C175 1.380 . S
C174 H210 0.929 . S
C175 C174 1.380 . S
C175 C176 1.399 . S
C176 C175 1.399 . S
C176 C177 1.376 . S
C176 H211 0.931 . S
C177 C176 1.376 . S
C177 N178 1.338 . S
C177 H180 0.930 . S
N178 Cd163 2.304 . S
N178 C173 1.337 . S
N178 C177 1.338 . S
H179 C173 0.929 . S
H180 C177 0.930 . S
C181 N182 1.332 . S
C181 C185 1.381 . S
C181 H187 0.931 . S
N182 Cd163 2.334 . S
N182 C181 1.332 . S
N182 C186 1.328 . S
C183 C184 1.396 . S
C183 C186 1.378 . S
C183 H212 0.931 . S
C184 C183 1.396 . S
C184 C185 1.382 . S
C185 C181 1.381 . S
C185 C184 1.382 . S
C185 H213 0.930 . S
C186 N182 1.328 . S
C186 C183 1.378 . S
C186 H188 0.930 . S
H187 C181 0.931 . S
H188 C186 0.930 . S
C189 O200 1.238 . S
C189 O201 1.253 . S
C190 O202 1.239 . S
C190 O203 1.230 . S
N191 Cd162 2.304 . S
N191 C192 1.337 . S
N191 C196 1.338 . S
C192 N191 1.337 . S
C192 C193 1.379 . S
C192 H206 0.929 . S
C193 C192 1.379 . S
C193 C194 1.380 . S
C193 H214 0.929 . S
C194 C193 1.380 . S
C194 C195 1.399 . S
C195 C194 1.399 . S
C195 C196 1.376 . S
C195 H215 0.931 . S
C196 N191 1.338 . S
C196 C195 1.376 . S
C196 H207 0.930 . S
C197 O204 1.239 . S
C197 O205 1.230 . S
O198 Cd162 2.268 . S
O198 C172 1.238 . S
O199 Cd163 2.273 . S
O199 C172 1.253 . S
O200 Cd163 2.268 . S
O200 C189 1.238 . S
O201 Cd162 2.273 . S
O201 C189 1.253 . S
O202 Cd162 2.417 . S
O202 C190 1.239 . S
O203 Cd162 2.330 . S
O203 C190 1.230 . S
O204 Cd163 2.417 . S
O204 C197 1.239 . S
O205 Cd163 2.330 . S
O205 C197 1.230 . S
H206 C192 0.929 . S
H207 C196 0.930 . S
H208 C166 0.931 . S
H209 C168 0.930 . S
H210 C174 0.929 . S
H211 C176 0.931 . S
H212 C183 0.931 . S
H213 C185 0.930 . S
H214 C193 0.929 . S
H215 C195 0.931 . S
H216 C234 0.950 1_556 S
H217 C236 0.949 1_556 S
H218 C238 0.950 . S
H219 C239 0.950 . S
H220 C241 0.950 . S
H221 C244 0.950 . S
H222 C245 0.950 . S
H223 C247 0.950 . S
H224 C248 0.950 . S
H225 C249 0.951 1_455 S
H226 C251 0.951 . S
H227 C253 0.952 . S
H228 C254 0.951 . S
H229 C256 0.950 . S
H230 C259 0.950 . S
H231 C260 0.950 . S
H232 C262 0.950 . S
H233 C263 0.950 . S
C234 H216 0.950 1_554 S
C234 C235 1.366 . S
C234 C236 1.387 . S
C235 C234 1.366 . S
C235 C239 1.385 . S
C236 H217 0.949 1_554 S
C236 C234 1.387 . S
C236 C237 1.370 . S
C237 C236 1.370 . S
C237 C238 1.414 . S
C237 C240 1.499 . S
C238 H218 0.950 . S
C238 C237 1.414 . S
C238 C239 1.374 . S
C239 H219 0.950 . S
C239 C235 1.385 . S
C239 C238 1.374 . S
C240 C237 1.499 . S
C240 C241 1.373 1_554 S
C240 C242 1.389 . S
C241 H220 0.950 . S
C241 C240 1.373 1_556 S
C241 C257 1.377 . S
C242 C240 1.389 . S
C242 C243 1.524 . S
C242 C256 1.377 . S
C243 C242 1.524 . S
C243 C244 1.397 . S
C243 C248 1.363 . S
C244 H221 0.950 . S
C244 C243 1.397 . S
C244 C245 1.334 . S
C245 H222 0.950 . S
C245 C244 1.334 . S
C245 C246 1.287 . S
C246 C245 1.287 . S
C246 C247 1.524 . S
C246 H265 0.913 . S
C247 H223 0.950 . S
C247 C246 1.524 . S
C247 C248 1.415 . S
C248 H224 0.950 . S
C248 C243 1.363 . S
C248 C247 1.415 . S
C249 H225 0.951 1_655 S
C249 C250 1.366 1_655 S
C249 C251 1.388 . S
C250 C249 1.366 1_455 S
C250 C254 1.384 1_554 S
C251 H226 0.951 . S
C251 C249 1.388 . S
C251 C252 1.368 . S
C252 C251 1.368 . S
C252 C253 1.413 1_554 S
C252 C255 1.499 . S
C253 H227 0.952 . S
C253 C252 1.413 1_556 S
C253 C254 1.374 1_655 S
C254 H228 0.951 . S
C254 C250 1.384 1_556 S
C254 C253 1.374 1_455 S
C255 C252 1.499 . S
C255 C256 1.383 . S
C255 C257 1.381 1_554 S
C256 H229 0.950 . S
C256 C242 1.377 . S
C256 C255 1.383 . S
C257 C241 1.377 . S
C257 C255 1.381 1_556 S
C257 C258 1.524 . S
C258 C257 1.524 . S
C258 C259 1.397 . S
C258 C263 1.363 . S
C259 H230 0.950 . S
C259 C258 1.397 . S
C259 C260 1.334 . S
C260 H231 0.950 . S
C260 C259 1.334 . S
C260 C261 1.287 . S
C261 C260 1.287 . S
C261 C262 1.524 . S
C261 H264 0.999 . S
C262 H232 0.950 . S
C262 C261 1.524 . S
C262 C263 1.415 . S
C263 H233 0.950 . S
C263 C258 1.363 . S
C263 C262 1.415 . S
H264 C261 0.999 . S
H265 C246 0.913 . S
H266 C284 0.951 1_655 S
H267 C286 0.951 . S
H268 C288 0.950 . S
H269 C289 0.950 . S
H270 C291 0.950 . S
H271 C294 0.950 . S
H272 C295 0.950 . S
H273 C297 0.950 . S
H274 C298 0.950 . S
H275 C299 0.951 . S
H276 C301 0.951 . S
H277 C303 0.950 . S
H278 C304 0.950 . S
H279 C306 0.950 . S
H280 C309 0.950 . S
H281 C310 0.950 . S
H282 C312 0.950 . S
H283 C313 0.950 . S
C284 H266 0.951 1_455 S
C284 C285 1.366 1_455 S
C284 C286 1.388 . S
C285 C284 1.366 1_655 S
C285 C289 1.385 1_554 S
C286 H267 0.951 . S
C286 C284 1.388 . S
C286 C287 1.366 . S
C287 C286 1.366 . S
C287 C288 1.414 1_554 S
C287 C290 1.499 . S
C288 H268 0.950 . S
C288 C287 1.414 1_556 S
C288 C289 1.374 1_455 S
C289 H269 0.950 . S
C289 C285 1.385 1_556 S
C289 C288 1.374 1_655 S
C290 C287 1.499 . S
C290 C291 1.373 1_554 S
C290 C292 1.389 . S
C291 H270 0.950 . S
C291 C290 1.373 1_556 S
C291 C307 1.377 . S
C292 C290 1.389 . S
C292 C293 1.524 . S
C292 C306 1.377 . S
C293 C292 1.524 . S
C293 C294 1.397 . S
C293 C298 1.363 . S
C294 H271 0.950 . S
C294 C293 1.397 . S
C294 C295 1.334 . S
C295 H272 0.950 . S
C295 C294 1.334 . S
C295 C296 1.287 . S
C296 C295 1.287 . S
C296 C297 1.524 . S
C296 H315 0.913 . S
C297 H273 0.950 . S
C297 C296 1.524 . S
C297 C298 1.415 . S
C298 H274 0.950 . S
C298 C293 1.363 . S
C298 C297 1.415 . S
C299 H275 0.951 . S
C299 C300 1.366 1_556 S
C299 C301 1.388 . S
C300 C299 1.366 1_554 S
C300 C304 1.385 . S
C301 H276 0.951 . S
C301 C299 1.388 . S
C301 C302 1.366 1_556 S
C302 C301 1.366 1_554 S
C302 C303 1.414 . S
C302 C305 1.499 . S
C303 H277 0.950 . S
C303 C302 1.414 . S
C303 C304 1.374 . S
C304 H278 0.950 . S
C304 C300 1.385 . S
C304 C303 1.374 . S
C305 C302 1.499 . S
C305 C306 1.373 . S
C305 C307 1.389 1_554 S
C306 H279 0.950 . S
C306 C292 1.377 . S
C306 C305 1.373 . S
C307 C291 1.377 . S
C307 C305 1.389 1_556 S
C307 C308 1.524 . S
C308 C307 1.524 . S
C308 C309 1.397 . S
C308 C313 1.363 . S
C309 H280 0.950 . S
C309 C308 1.397 . S
C309 C310 1.334 . S
C310 H281 0.950 . S
C310 C309 1.334 . S
C310 C311 1.287 . S
C311 C310 1.287 . S
C311 C312 1.524 . S
C311 H314 0.999 . S
C312 H282 0.950 . S
C312 C311 1.524 . S
C312 C313 1.415 . S
C313 H283 0.950 . S
C313 C308 1.363 . S
C313 C312 1.415 . S
H314 C311 0.999 . S
H315 C296 0.913 . S
H316 C334 0.951 . S
H317 C336 0.951 . S
H318 C338 0.950 . S
H319 C339 0.950 . S
H320 C341 0.950 . S
H321 C344 0.950 . S
H322 C345 0.950 . S
H323 C347 0.950 . S
H324 C348 0.950 . S
H325 C349 0.951 1_455 S
H326 C351 0.951 . S
H327 C353 0.950 . S
H328 C354 0.950 . S
H329 C356 0.950 . S
H330 C359 0.950 . S
H331 C360 0.950 . S
H332 C362 0.950 . S
H333 C363 0.950 . S
C334 H316 0.951 . S
C334 C335 1.366 . S
C334 C336 1.388 . S
C335 C334 1.366 . S
C335 C339 1.385 . S
C336 H317 0.951 . S
C336 C334 1.388 . S
C336 C337 1.366 . S
C337 C336 1.366 . S
C337 C338 1.414 . S
C337 C340 1.499 . S
C338 H318 0.950 . S
C338 C337 1.414 . S
C338 C339 1.374 . S
C339 H319 0.950 . S
C339 C335 1.385 . S
C339 C338 1.374 . S
C340 C337 1.499 . S
C340 C341 1.373 . S
C340 C342 1.389 . S
C341 H320 0.950 . S
C341 C340 1.373 . S
C341 C357 1.377 . S
C342 C340 1.389 . S
C342 C343 1.524 . S
C342 C356 1.377 . S
C343 C342 1.524 . S
C343 C344 1.397 . S
C343 C348 1.363 . S
C344 H321 0.950 . S
C344 C343 1.397 . S
C344 C345 1.334 . S
C345 H322 0.950 . S
C345 C344 1.334 . S
C345 C346 1.287 . S
C346 C345 1.287 . S
C346 C347 1.524 . S
C346 H365 0.913 . S
C347 H323 0.950 . S
C347 C346 1.524 . S
C347 C348 1.415 . S
C348 H324 0.950 . S
C348 C343 1.363 . S
C348 C347 1.415 . S
C349 H325 0.951 1_655 S
C349 C350 1.366 1_655 S
C349 C351 1.388 . S
C350 C349 1.366 1_455 S
C350 C354 1.385 . S
C351 H326 0.951 . S
C351 C349 1.388 . S
C351 C352 1.366 . S
C352 C351 1.366 . S
C352 C353 1.414 . S
C352 C355 1.499 . S
C353 H327 0.950 . S
C353 C352 1.414 . S
C353 C354 1.374 1_655 S
C354 H328 0.950 . S
C354 C350 1.385 . S
C354 C353 1.374 1_455 S
C355 C352 1.499 . S
C355 C356 1.373 . S
C355 C357 1.389 . S
C356 H329 0.950 . S
C356 C342 1.377 . S
C356 C355 1.373 . S
C357 C341 1.377 . S
C357 C355 1.389 . S
C357 C358 1.524 . S
C358 C357 1.524 . S
C358 C359 1.397 . S
C358 C363 1.363 . S
C359 H330 0.950 . S
C359 C358 1.397 . S
C359 C360 1.334 . S
C360 H331 0.950 . S
C360 C359 1.334 . S
C360 C361 1.287 . S
C361 C360 1.287 . S
C361 C362 1.524 . S
C361 H364 0.999 . S
C362 H332 0.950 . S
C362 C361 1.524 . S
C362 C363 1.415 . S
C363 H333 0.950 . S
C363 C358 1.363 . S
C363 C362 1.415 . S
H364 C361 0.999 . S
H365 C346 0.913 . S
H366 C384 0.951 . S
H367 C386 0.951 . S
H368 C388 0.950 . S
H369 C389 0.950 . S
H370 C391 0.950 . S
H371 C394 0.950 . S
H372 C395 0.950 . S
H373 C397 0.950 . S
H374 C398 0.950 . S
H375 C399 0.951 . S
H376 C401 0.951 . S
H377 C403 0.950 . S
H378 C404 0.950 . S
H379 C406 0.950 . S
H380 C409 0.950 . S
H381 C410 0.950 . S
H382 C412 0.950 . S
H383 C413 0.950 . S
C384 H366 0.951 . S
C384 C385 1.366 . S
C384 C386 1.388 1_655 S
C385 C384 1.366 . S
C385 C389 1.385 . S
C386 H367 0.951 . S
C386 C384 1.388 1_455 S
C386 C387 1.366 . S
C387 C386 1.366 . S
C387 C388 1.414 . S
C387 C390 1.499 . S
C388 H368 0.950 . S
C388 C387 1.414 . S
C388 C389 1.374 1_455 S
C389 H369 0.950 . S
C389 C385 1.385 . S
C389 C388 1.374 1_655 S
C390 C387 1.499 . S
C390 C391 1.373 . S
C390 C392 1.389 . S
C391 H370 0.950 . S
C391 C390 1.373 . S
C391 C407 1.377 . S
C392 C390 1.389 . S
C392 C393 1.524 . S
C392 C406 1.377 . S
C393 C392 1.524 . S
C393 C394 1.397 . S
C393 C398 1.363 . S
C394 H371 0.950 . S
C394 C393 1.397 . S
C394 C395 1.334 . S
C395 H372 0.950 . S
C395 C394 1.334 . S
C395 C396 1.287 . S
C396 C395 1.287 . S
C396 C397 1.524 . S
C396 H415 0.913 . S
C397 H373 0.950 . S
C397 C396 1.524 . S
C397 C398 1.415 . S
C398 H374 0.950 . S
C398 C393 1.363 . S
C398 C397 1.415 . S
C399 H375 0.951 . S
C399 C400 1.366 . S
C399 C401 1.388 . S
C400 C399 1.366 . S
C400 C404 1.385 . S
C401 H376 0.951 . S
C401 C399 1.388 . S
C401 C402 1.366 . S
C402 C401 1.366 . S
C402 C403 1.414 . S
C402 C405 1.499 . S
C403 H377 0.950 . S
C403 C402 1.414 . S
C403 C404 1.374 . S
C404 H378 0.950 . S
C404 C400 1.385 . S
C404 C403 1.374 . S
C405 C402 1.499 . S
C405 C406 1.373 . S
C405 C407 1.389 . S
C406 H379 0.950 . S
C406 C392 1.377 . S
C406 C405 1.373 . S
C407 C391 1.377 . S
C407 C405 1.389 . S
C407 C408 1.524 . S
C408 C407 1.524 . S
C408 C409 1.397 . S
C408 C413 1.363 . S
C409 H380 0.950 . S
C409 C408 1.397 . S
C409 C410 1.334 . S
C410 H381 0.950 . S
C410 C409 1.334 . S
C410 C411 1.287 . S
C411 C410 1.287 . S
C411 C412 1.524 . S
C411 H414 0.999 . S
C412 H382 0.950 . S
C412 C411 1.524 . S
C412 C413 1.415 . S
C413 H383 0.950 . S
C413 C408 1.363 . S
C413 C412 1.415 . S
H414 C411 0.999 . S
H415 C396 0.913 . S
H416 C434 0.951 . S
H417 C436 0.951 . S
H418 C438 0.950 . S
H419 C439 0.950 . S
H420 C441 0.950 . S
H421 C444 0.950 . S
H422 C445 0.950 . S
H423 C447 0.950 . S
H424 C448 0.950 . S
H425 C449 0.951 . S
H426 C451 0.951 . S
H427 C453 0.950 . S
H428 C454 0.950 . S
H429 C456 0.950 . S
H430 C459 0.950 . S
H431 C460 0.950 . S
H432 C462 0.950 . S
H433 C463 0.950 . S
C434 H416 0.951 . S
C434 C435 1.366 1_556 S
C434 C436 1.388 . S
C435 C434 1.366 1_554 S
C435 C439 1.385 . S
C436 H417 0.951 . S
C436 C434 1.388 . S
C436 C437 1.363 1_556 S
C437 C436 1.363 1_554 S
C437 C438 1.417 . S
C437 C440 1.499 . S
C438 H418 0.950 . S
C438 C437 1.417 . S
C438 C439 1.374 . S
C439 H419 0.950 . S
C439 C435 1.385 . S
C439 C438 1.374 . S
C440 C437 1.499 . S
C440 C441 1.392 . S
C440 C442 1.372 1_554 S
C441 H420 0.950 . S
C441 C440 1.392 . S
C441 C457 1.377 . S
C442 C440 1.372 1_556 S
C442 C443 1.524 . S
C442 C456 1.377 . S
C443 C442 1.524 . S
C443 C444 1.397 . S
C443 C448 1.363 . S
C444 H421 0.950 . S
C444 C443 1.397 . S
C444 C445 1.334 . S
C445 H422 0.950 . S
C445 C444 1.334 . S
C445 C446 1.287 . S
C446 C445 1.287 . S
C446 C447 1.524 . S
C446 H465 0.913 . S
C447 H423 0.950 . S
C447 C446 1.524 . S
C447 C448 1.415 . S
C448 H424 0.950 . S
C448 C443 1.363 . S
C448 C447 1.415 . S
C449 H425 0.951 . S
C449 C450 1.366 . S
C449 C451 1.388 . S
C450 C449 1.366 . S
C450 C454 1.385 1_554 S
C451 H426 0.951 . S
C451 C449 1.388 . S
C451 C452 1.366 . S
C452 C451 1.366 . S
C452 C453 1.414 1_554 S
C452 C455 1.499 . S
C453 H427 0.950 . S
C453 C452 1.414 1_556 S
C453 C454 1.374 . S
C454 H428 0.950 . S
C454 C450 1.385 1_556 S
C454 C453 1.374 . S
C455 C452 1.499 . S
C455 C456 1.373 1_554 S
C455 C457 1.389 . S
C456 H429 0.950 . S
C456 C442 1.377 . S
C456 C455 1.373 1_556 S
C457 C441 1.377 . S
C457 C455 1.389 . S
C457 C458 1.524 . S
C458 C457 1.524 . S
C458 C459 1.397 . S
C458 C463 1.363 . S
C459 H430 0.950 . S
C459 C458 1.397 . S
C459 C460 1.334 . S
C460 H431 0.950 . S
C460 C459 1.334 . S
C460 C461 1.287 . S
C461 C460 1.287 . S
C461 C462 1.524 . S
C461 H464 0.999 . S
C462 H432 0.950 . S
C462 C461 1.524 . S
C462 C463 1.415 . S
C463 H433 0.950 . S
C463 C458 1.363 . S
C463 C462 1.415 . S
H464 C461 0.999 . S
H465 C446 0.913 . S
H466 C484 0.951 . S
H467 C486 0.951 . S
H468 C488 0.950 . S
H469 C489 0.950 . S
H470 C491 0.950 . S
H471 C494 0.950 . S
H472 C495 0.950 . S
H473 C497 0.950 . S
H474 C498 0.950 . S
H475 C499 0.951 . S
H476 C501 0.951 . S
H477 C503 0.950 . S
H478 C504 0.950 . S
H479 C506 0.950 . S
H480 C509 0.950 . S
H481 C510 0.950 . S
H482 C512 0.950 . S
H483 C513 0.950 . S
C484 H466 0.951 . S
C484 C485 1.366 . S
C484 C486 1.388 . S
C485 C484 1.366 . S
C485 C489 1.385 . S
C486 H467 0.951 . S
C486 C484 1.388 . S
C486 C487 1.366 . S
C487 C486 1.366 . S
C487 C488 1.414 . S
C487 C490 1.499 . S
C488 H468 0.950 . S
C488 C487 1.414 . S
C488 C489 1.374 . S
C489 H469 0.950 . S
C489 C485 1.385 . S
C489 C488 1.374 . S
C490 C487 1.499 . S
C490 C491 1.373 . S
C490 C492 1.389 . S
C491 H470 0.950 . S
C491 C490 1.373 . S
C491 C507 1.377 . S
C492 C490 1.389 . S
C492 C493 1.524 . S
C492 C506 1.377 . S
C493 C492 1.524 . S
C493 C494 1.397 . S
C493 C498 1.363 . S
C494 H471 0.950 . S
C494 C493 1.397 . S
C494 C495 1.334 . S
C495 H472 0.950 . S
C495 C494 1.334 . S
C495 C496 1.287 . S
C496 C495 1.287 . S
C496 C497 1.524 . S
C496 H515 0.913 . S
C497 H473 0.950 . S
C497 C496 1.524 . S
C497 C498 1.415 . S
C498 H474 0.950 . S
C498 C493 1.363 . S
C498 C497 1.415 . S
C499 H475 0.951 . S
C499 C500 1.366 . S
C499 C501 1.388 . S
C500 C499 1.366 . S
C500 C504 1.385 . S
C501 H476 0.951 . S
C501 C499 1.388 . S
C501 C502 1.366 . S
C502 C501 1.366 . S
C502 C503 1.414 . S
C502 C505 1.499 . S
C503 H477 0.950 . S
C503 C502 1.414 . S
C503 C504 1.374 . S
C504 H478 0.950 . S
C504 C500 1.385 . S
C504 C503 1.374 . S
C505 C502 1.499 . S
C505 C506 1.373 . S
C505 C507 1.389 . S
C506 H479 0.950 . S
C506 C492 1.377 . S
C506 C505 1.373 . S
C507 C491 1.377 . S
C507 C505 1.389 . S
C507 C508 1.524 . S
C508 C507 1.524 . S
C508 C509 1.397 . S
C508 C513 1.363 . S
C509 H480 0.950 . S
C509 C508 1.397 . S
C509 C510 1.334 . S
C510 H481 0.950 . S
C510 C509 1.334 . S
C510 C511 1.287 . S
C511 C510 1.287 . S
C511 C512 1.524 . S
C511 H514 0.999 . S
C512 H482 0.950 . S
C512 C511 1.524 . S
C512 C513 1.415 . S
C513 H483 0.950 . S
C513 C508 1.363 . S
C513 C512 1.415 . S
H514 C511 0.999 . S
H515 C496 0.913 . S
H516 C534 0.951 . S
H517 C536 0.951 . S
H518 C538 0.950 . S
H519 C539 0.950 . S
H520 C541 0.950 . S
H521 C544 0.950 . S
H522 C545 0.950 . S
H523 C547 0.950 . S
H524 C548 0.950 1_655 S
H525 C549 0.951 . S
H526 C551 0.951 . S
H527 C553 0.950 . S
H528 C554 0.950 . S
H529 C556 0.950 . S
H530 C559 0.950 . S
H531 C560 0.950 . S
H532 C562 0.950 . S
H533 C563 0.950 1_455 S
C534 H516 0.951 . S
C534 C535 1.366 . S
C534 C536 1.388 . S
C535 C534 1.366 . S
C535 C539 1.385 1_554 S
C536 H517 0.951 . S
C536 C534 1.388 . S
C536 C537 1.366 . S
C537 C536 1.366 . S
C537 C538 1.414 1_554 S
C537 C540 1.499 . S
C538 H518 0.950 . S
C538 C537 1.414 1_556 S
C538 C539 1.374 . S
C539 H519 0.950 . S
C539 C535 1.385 1_556 S
C539 C538 1.374 . S
C540 C537 1.499 . S
C540 C541 1.373 1_554 S
C540 C542 1.389 . S
C541 H520 0.950 . S
C541 C540 1.373 1_556 S
C541 C557 1.377 1_445 S
C542 C540 1.389 . S
C542 C543 1.524 . S
C542 C556 1.377 1_445 S
C543 C542 1.524 . S
C543 C544 1.397 . S
C543 C548 1.363 . S
C544 H521 0.950 . S
C544 C543 1.397 . S
C544 C545 1.334 . S
C545 H522 0.950 . S
C545 C544 1.334 . S
C545 C546 1.287 . S
C546 C545 1.287 . S
C546 C547 1.524 . S
C546 H565 0.913 . S
C547 H523 0.950 . S
C547 C546 1.524 . S
C547 C548 1.415 . S
C548 H524 0.950 1_455 S
C548 C543 1.363 . S
C548 C547 1.415 . S
C549 H525 0.951 . S
C549 C550 1.366 1_556 S
C549 C551 1.388 . S
C550 C549 1.366 1_554 S
C550 C554 1.385 . S
C551 H526 0.951 . S
C551 C549 1.388 . S
C551 C552 1.356 1_556 S
C552 C551 1.356 1_554 S
C552 C553 1.424 . S
C552 C555 1.498 . S
C553 H527 0.950 . S
C553 C552 1.424 . S
C553 C554 1.374 . S
C554 H528 0.950 . S
C554 C550 1.385 . S
C554 C553 1.374 . S
C555 C552 1.498 . S
C555 C556 1.408 . S
C555 C557 1.356 1_554 S
C556 H529 0.950 . S
C556 C542 1.377 1_665 S
C556 C555 1.408 . S
C557 C541 1.377 1_665 S
C557 C555 1.356 1_556 S
C557 C558 1.524 . S
C558 C557 1.524 . S
C558 C559 1.397 . S
C558 C563 1.363 . S
C559 H530 0.950 . S
C559 C558 1.397 . S
C559 C560 1.334 . S
C560 H531 0.950 . S
C560 C559 1.334 . S
C560 C561 1.287 . S
C561 C560 1.287 . S
C561 C562 1.524 . S
C561 H564 0.999 . S
C562 H532 0.950 . S
C562 C561 1.524 . S
C562 C563 1.415 . S
C563 H533 0.950 1_655 S
C563 C558 1.363 . S
C563 C562 1.415 . S
H564 C561 0.999 . S
H565 C546 0.913 . S
H566 C584 0.951 . S
H567 C586 0.951 . S
H568 C588 0.950 . S
H569 C589 0.950 . S
H570 C591 0.950 . S
H571 C594 0.950 . S
H572 C595 0.950 . S
H573 C597 0.950 . S
H574 C598 0.950 . S
H575 C599 0.951 . S
H576 C601 0.951 . S
H577 C603 0.950 . S
H578 C604 0.950 . S
H579 C606 0.950 . S
H580 C609 0.950 . S
H581 C610 0.950 . S
H582 C612 0.950 . S
H583 C613 0.950 . S
C584 H566 0.951 . S
C584 C585 1.366 . S
C584 C586 1.388 . S
C585 C584 1.366 . S
C585 C589 1.385 . S
C586 H567 0.951 . S
C586 C584 1.388 . S
C586 C587 1.366 . S
C587 C586 1.366 . S
C587 C588 1.414 . S
C587 C590 1.499 . S
C588 H568 0.950 . S
C588 C587 1.414 . S
C588 C589 1.374 . S
C589 H569 0.950 . S
C589 C585 1.385 . S
C589 C588 1.374 . S
C590 C587 1.499 . S
C590 C591 1.373 1_655 S
C590 C592 1.389 1_545 S
C591 H570 0.950 . S
C591 C590 1.373 1_455 S
C591 C607 1.377 . S
C592 C590 1.389 1_565 S
C592 C593 1.524 . S
C592 C606 1.377 . S
C593 C592 1.524 . S
C593 C594 1.397 1_565 S
C593 C598 1.363 . S
C594 H571 0.950 . S
C594 C593 1.397 1_545 S
C594 C595 1.334 . S
C595 H572 0.950 . S
C595 C594 1.334 . S
C595 C596 1.287 1_545 S
C596 C595 1.287 1_565 S
C596 C597 1.524 . S
C596 H615 0.913 . S
C597 H573 0.950 . S
C597 C596 1.524 . S
C597 C598 1.415 . S
C598 H574 0.950 . S
C598 C593 1.363 . S
C598 C597 1.415 . S
C599 H575 0.951 . S
C599 C600 1.366 . S
C599 C601 1.388 . S
C600 C599 1.366 . S
C600 C604 1.385 . S
C601 H576 0.951 . S
C601 C599 1.388 . S
C601 C602 1.366 . S
C602 C601 1.366 . S
C602 C603 1.414 . S
C602 C605 1.499 . S
C603 H577 0.950 . S
C603 C602 1.414 . S
C603 C604 1.374 . S
C604 H578 0.950 . S
C604 C600 1.385 . S
C604 C603 1.374 . S
C605 C602 1.499 . S
C605 C606 1.373 1_455 S
C605 C607 1.389 1_565 S
C606 H579 0.950 . S
C606 C592 1.377 . S
C606 C605 1.373 1_655 S
C607 C591 1.377 . S
C607 C605 1.389 1_545 S
C607 C608 1.524 . S
C608 C607 1.524 . S
C608 C609 1.397 1_545 S
C608 C613 1.363 . S
C609 H580 0.950 . S
C609 C608 1.397 1_565 S
C609 C610 1.334 . S
C610 H581 0.950 . S
C610 C609 1.334 . S
C610 C611 1.287 1_565 S
C611 C610 1.287 1_545 S
C611 C612 1.524 . S
C611 H614 0.999 . S
C612 H582 0.950 . S
C612 C611 1.524 . S
C612 C613 1.415 . S
C613 H583 0.950 . S
C613 C608 1.363 . S
C613 C612 1.415 . S
H614 C611 0.999 . S
H615 C596 0.913 . S
H616 C634 0.951 . S
H617 C636 0.951 . S
H618 C638 0.950 . S
H619 C639 0.950 . S
H620 C641 0.950 . S
H621 C644 0.950 . S
H622 C645 0.950 . S
H623 C647 0.950 . S
H624 C648 0.950 . S
H625 C649 0.951 . S
H626 C651 0.951 . S
H627 C653 0.950 . S
H628 C654 0.950 . S
H629 C656 0.950 . S
H630 C659 0.950 . S
H631 C660 0.950 . S
H632 C662 0.950 . S
H633 C663 0.950 . S
C634 H616 0.951 . S
C634 C635 1.366 . S
C634 C636 1.388 . S
C635 C634 1.366 . S
C635 C639 1.385 . S
C636 H617 0.951 . S
C636 C634 1.388 . S
C636 C637 1.366 . S
C637 C636 1.366 . S
C637 C638 1.414 . S
C637 C640 1.499 . S
C638 H618 0.950 . S
C638 C637 1.414 . S
C638 C639 1.374 . S
C639 H619 0.950 . S
C639 C635 1.385 . S
C639 C638 1.374 . S
C640 C637 1.499 . S
C640 C641 1.373 . S
C640 C642 1.389 . S
C641 H620 0.950 . S
C641 C640 1.373 . S
C641 C657 1.377 . S
C642 C640 1.389 . S
C642 C643 1.524 . S
C642 C656 1.377 . S
C643 C642 1.524 . S
C643 C644 1.397 . S
C643 C648 1.363 . S
C644 H621 0.950 . S
C644 C643 1.397 . S
C644 C645 1.334 . S
C645 H622 0.950 . S
C645 C644 1.334 . S
C645 C646 1.287 . S
C646 C645 1.287 . S
C646 C647 1.524 . S
C646 H665 0.913 . S
C647 H623 0.950 . S
C647 C646 1.524 . S
C647 C648 1.415 . S
C648 H624 0.950 . S
C648 C643 1.363 . S
C648 C647 1.415 . S
C649 H625 0.951 . S
C649 C650 1.366 . S
C649 C651 1.388 . S
C650 C649 1.366 . S
C650 C654 1.385 . S
C651 H626 0.951 . S
C651 C649 1.388 . S
C651 C652 1.366 . S
C652 C651 1.366 . S
C652 C653 1.414 . S
C652 C655 1.499 . S
C653 H627 0.950 . S
C653 C652 1.414 . S
C653 C654 1.374 . S
C654 H628 0.950 . S
C654 C650 1.385 . S
C654 C653 1.374 . S
C655 C652 1.499 . S
C655 C656 1.373 . S
C655 C657 1.389 . S
C656 H629 0.950 . S
C656 C642 1.377 . S
C656 C655 1.373 . S
C657 C641 1.377 . S
C657 C655 1.389 . S
C657 C658 1.524 . S
C658 C657 1.524 . S
C658 C659 1.397 . S
C658 C663 1.363 . S
C659 H630 0.950 . S
C659 C658 1.397 . S
C659 C660 1.334 . S
C660 H631 0.950 . S
C660 C659 1.334 . S
C660 C661 1.287 . S
C661 C660 1.287 . S
C661 C662 1.524 . S
C661 H664 0.999 . S
C662 H632 0.950 . S
C662 C661 1.524 . S
C662 C663 1.415 . S
C663 H633 0.950 . S
C663 C658 1.363 . S
C663 C662 1.415 . S
H664 C661 0.999 . S
H665 C646 0.913 . S
H666 C684 0.951 . S
H667 C686 0.951 . S
H668 C688 0.950 . S
H669 C689 0.950 . S
H670 C691 0.950 . S
H671 C694 0.950 . S
H672 C695 0.950 . S
H673 C697 0.950 . S
H674 C698 0.950 . S
H675 C699 0.951 . S
H676 C701 0.951 . S
H677 C703 0.950 . S
H678 C704 0.950 . S
H679 C706 0.950 . S
H680 C709 0.950 . S
H681 C710 0.950 . S
H682 C712 0.950 . S
H683 C713 0.950 . S
C684 H666 0.951 . S
C684 C685 1.366 . S
C684 C686 1.388 . S
C685 C684 1.366 . S
C685 C689 1.385 . S
C686 H667 0.951 . S
C686 C684 1.388 . S
C686 C687 1.366 . S
C687 C686 1.366 . S
C687 C688 1.414 . S
C687 C690 1.499 . S
C688 H668 0.950 . S
C688 C687 1.414 . S
C688 C689 1.374 . S
C689 H669 0.950 . S
C689 C685 1.385 . S
C689 C688 1.374 . S
C690 C687 1.499 . S
C690 C691 1.373 . S
C690 C692 1.389 . S
C691 H670 0.950 . S
C691 C690 1.373 . S
C691 C707 1.377 . S
C692 C690 1.389 . S
C692 C693 1.524 . S
C692 C706 1.377 . S
C693 C692 1.524 . S
C693 C694 1.397 . S
C693 C698 1.363 . S
C694 H671 0.950 . S
C694 C693 1.397 . S
C694 C695 1.334 . S
C695 H672 0.950 . S
C695 C694 1.334 . S
C695 C696 1.287 . S
C696 C695 1.287 . S
C696 C697 1.524 . S
C696 H715 0.913 . S
C697 H673 0.950 . S
C697 C696 1.524 . S
C697 C698 1.415 . S
C698 H674 0.950 . S
C698 C693 1.363 . S
C698 C697 1.415 . S
C699 H675 0.951 . S
C699 C700 1.366 . S
C699 C701 1.388 . S
C700 C699 1.366 . S
C700 C704 1.385 . S
C701 H676 0.951 . S
C701 C699 1.388 . S
C701 C702 1.366 . S
C702 C701 1.366 . S
C702 C703 1.414 . S
C702 C705 1.499 . S
C703 H677 0.950 . S
C703 C702 1.414 . S
C703 C704 1.374 . S
C704 H678 0.950 . S
C704 C700 1.385 . S
C704 C703 1.374 . S
C705 C702 1.499 . S
C705 C706 1.373 . S
C705 C707 1.389 . S
C706 H679 0.950 . S
C706 C692 1.377 . S
C706 C705 1.373 . S
C707 C691 1.377 . S
C707 C705 1.389 . S
C707 C708 1.524 . S
C708 C707 1.524 . S
C708 C709 1.397 . S
C708 C713 1.363 . S
C709 H680 0.950 . S
C709 C708 1.397 . S
C709 C710 1.334 . S
C710 H681 0.950 . S
C710 C709 1.334 . S
C710 C711 1.287 . S
C711 C710 1.287 . S
C711 C712 1.524 . S
C711 H714 0.999 . S
C712 H682 0.950 . S
C712 C711 1.524 . S
C712 C713 1.415 . S
C713 H683 0.950 . S
C713 C708 1.363 . S
C713 C712 1.415 . S
H714 C711 0.999 . S
H715 C696 0.913 . S
H716 C734 0.951 . S
H717 C736 0.951 . S
H718 C738 0.950 . S
H719 C739 0.950 . S
H720 C741 0.950 . S
H721 C744 0.950 . S
H722 C745 0.950 . S
H723 C747 0.950 . S
H724 C748 0.950 . S
H725 C749 0.951 . S
H726 C751 0.951 . S
H727 C753 0.950 . S
H728 C754 0.950 . S
H729 C756 0.950 . S
H730 C759 0.950 . S
H731 C760 0.950 . S
H732 C762 0.950 . S
H733 C763 0.950 . S
C734 H716 0.951 . S
C734 C735 1.366 . S
C734 C736 1.388 . S
C735 C734 1.366 . S
C735 C739 1.385 . S
C736 H717 0.951 . S
C736 C734 1.388 . S
C736 C737 1.366 . S
C737 C736 1.366 . S
C737 C738 1.414 . S
C737 C740 1.499 . S
C738 H718 0.950 . S
C738 C737 1.414 . S
C738 C739 1.374 . S
C739 H719 0.950 . S
C739 C735 1.385 . S
C739 C738 1.374 . S
C740 C737 1.499 . S
C740 C741 1.373 . S
C740 C742 1.389 . S
C741 H720 0.950 . S
C741 C740 1.373 . S
C741 C757 1.377 . S
C742 C740 1.389 . S
C742 C743 1.524 . S
C742 C756 1.377 . S
C743 C742 1.524 . S
C743 C744 1.397 . S
C743 C748 1.363 . S
C744 H721 0.950 . S
C744 C743 1.397 . S
C744 C745 1.334 . S
C745 H722 0.950 . S
C745 C744 1.334 . S
C745 C746 1.287 . S
C746 C745 1.287 . S
C746 C747 1.524 . S
C746 H765 0.913 . S
C747 H723 0.950 . S
C747 C746 1.524 . S
C747 C748 1.415 . S
C748 H724 0.950 . S
C748 C743 1.363 . S
C748 C747 1.415 . S
C749 H725 0.951 . S
C749 C750 1.366 . S
C749 C751 1.388 . S
C750 C749 1.366 . S
C750 C754 1.385 . S
C751 H726 0.951 . S
C751 C749 1.388 . S
C751 C752 1.366 . S
C752 C751 1.366 . S
C752 C753 1.414 . S
C752 C755 1.499 . S
C753 H727 0.950 . S
C753 C752 1.414 . S
C753 C754 1.374 . S
C754 H728 0.950 . S
C754 C750 1.385 . S
C754 C753 1.374 . S
C755 C752 1.499 . S
C755 C756 1.373 . S
C755 C757 1.389 . S
C756 H729 0.950 . S
C756 C742 1.377 . S
C756 C755 1.373 . S
C757 C741 1.377 . S
C757 C755 1.389 . S
C757 C758 1.524 . S
C758 C757 1.524 . S
C758 C759 1.397 . S
C758 C763 1.363 . S
C759 H730 0.950 . S
C759 C758 1.397 . S
C759 C760 1.334 . S
C760 H731 0.950 . S
C760 C759 1.334 . S
C760 C761 1.287 . S
C761 C760 1.287 . S
C761 C762 1.524 . S
C761 H764 0.999 . S
C762 H732 0.950 . S
C762 C761 1.524 . S
C762 C763 1.415 . S
C763 H733 0.950 . S
C763 C758 1.363 . S
C763 C762 1.415 . S
H764 C761 0.999 . S
H765 C746 0.913 . S
H766 C784 0.951 . S
H767 C786 0.951 . S
H768 C788 0.950 . S
H769 C789 0.950 . S
H770 C791 0.950 . S
H771 C794 0.950 . S
H772 C795 0.950 . S
H773 C797 0.950 . S
H774 C798 0.950 . S
H775 C799 0.951 . S
H776 C801 0.951 . S
H777 C803 0.950 . S
H778 C804 0.950 . S
H779 C806 0.950 . S
H780 C809 0.950 . S
H781 C810 0.950 . S
H782 C812 0.950 . S
H783 C813 0.950 . S
C784 H766 0.951 . S
C784 C785 1.366 . S
C784 C786 1.388 . S
C785 C784 1.366 . S
C785 C789 1.385 . S
C786 H767 0.951 . S
C786 C784 1.388 . S
C786 C787 1.366 . S
C787 C786 1.366 . S
C787 C788 1.414 . S
C787 C790 1.499 . S
C788 H768 0.950 . S
C788 C787 1.414 . S
C788 C789 1.374 . S
C789 H769 0.950 . S
C789 C785 1.385 . S
C789 C788 1.374 . S
C790 C787 1.499 . S
C790 C791 1.373 . S
C790 C792 1.389 . S
C791 H770 0.950 . S
C791 C790 1.373 . S
C791 C807 1.377 . S
C792 C790 1.389 . S
C792 C793 1.524 . S
C792 C806 1.377 . S
C793 C792 1.524 . S
C793 C794 1.397 . S
C793 C798 1.363 . S
C794 H771 0.950 . S
C794 C793 1.397 . S
C794 C795 1.334 . S
C795 H772 0.950 . S
C795 C794 1.334 . S
C795 C796 1.287 . S
C796 C795 1.287 . S
C796 C797 1.524 . S
C796 H815 0.913 . S
C797 H773 0.950 . S
C797 C796 1.524 . S
C797 C798 1.415 . S
C798 H774 0.950 . S
C798 C793 1.363 . S
C798 C797 1.415 . S
C799 H775 0.951 . S
C799 C800 1.366 . S
C799 C801 1.388 . S
C800 C799 1.366 . S
C800 C804 1.385 . S
C801 H776 0.951 . S
C801 C799 1.388 . S
C801 C802 1.366 . S
C802 C801 1.366 . S
C802 C803 1.414 . S
C802 C805 1.499 . S
C803 H777 0.950 . S
C803 C802 1.414 . S
C803 C804 1.374 . S
C804 H778 0.950 . S
C804 C800 1.385 . S
C804 C803 1.374 . S
C805 C802 1.499 . S
C805 C806 1.373 . S
C805 C807 1.389 . S
C806 H779 0.950 . S
C806 C792 1.377 . S
C806 C805 1.373 . S
C807 C791 1.377 . S
C807 C805 1.389 . S
C807 C808 1.524 . S
C808 C807 1.524 . S
C808 C809 1.397 . S
C808 C813 1.363 . S
C809 H780 0.950 . S
C809 C808 1.397 . S
C809 C810 1.334 . S
C810 H781 0.950 . S
C810 C809 1.334 . S
C810 C811 1.287 . S
C811 C810 1.287 . S
C811 C812 1.524 . S
C811 H814 0.999 . S
C812 H782 0.950 . S
C812 C811 1.524 . S
C812 C813 1.415 . S
C813 H783 0.950 . S
C813 C808 1.363 . S
C813 C812 1.415 . S
H814 C811 0.999 . S
H815 C796 0.913 . S
H816 C834 0.951 . S
H817 C836 0.951 . S
H818 C838 0.950 . S
H819 C839 0.950 . S
H820 C841 0.950 . S
H821 C844 0.950 . S
H822 C845 0.950 . S
H823 C847 0.950 . S
H824 C848 0.950 . S
H825 C849 0.951 . S
H826 C851 0.951 . S
H827 C853 0.950 . S
H828 C854 0.950 . S
H829 C856 0.950 . S
H830 C859 0.950 . S
H831 C860 0.950 . S
H832 C862 0.950 . S
H833 C863 0.950 . S
C834 H816 0.951 . S
C834 C835 1.366 . S
C834 C836 1.388 . S
C835 C834 1.366 . S
C835 C839 1.385 . S
C836 H817 0.951 . S
C836 C834 1.388 . S
C836 C837 1.366 . S
C837 C836 1.366 . S
C837 C838 1.414 . S
C837 C840 1.499 . S
C838 H818 0.950 . S
C838 C837 1.414 . S
C838 C839 1.374 . S
C839 H819 0.950 . S
C839 C835 1.385 . S
C839 C838 1.374 . S
C840 C837 1.499 . S
C840 C841 1.373 . S
C840 C842 1.389 1_455 S
C841 H820 0.950 . S
C841 C840 1.373 . S
C841 C857 1.377 . S
C842 C840 1.389 1_655 S
C842 C843 1.524 . S
C842 C856 1.377 . S
C843 C842 1.524 . S
C843 C844 1.397 . S
C843 C848 1.363 . S
C844 H821 0.950 . S
C844 C843 1.397 . S
C844 C845 1.334 . S
C845 H822 0.950 . S
C845 C844 1.334 . S
C845 C846 1.287 . S
C846 C845 1.287 . S
C846 C847 1.524 . S
C846 H865 0.913 . S
C847 H823 0.950 . S
C847 C846 1.524 . S
C847 C848 1.415 . S
C848 H824 0.950 . S
C848 C843 1.363 . S
C848 C847 1.415 . S
C849 H825 0.951 . S
C849 C850 1.366 . S
C849 C851 1.388 . S
C850 C849 1.366 . S
C850 C854 1.385 . S
C851 H826 0.951 . S
C851 C849 1.388 . S
C851 C852 1.366 . S
C852 C851 1.366 . S
C852 C853 1.414 . S
C852 C855 1.499 . S
C853 H827 0.950 . S
C853 C852 1.414 . S
C853 C854 1.374 . S
C854 H828 0.950 . S
C854 C850 1.385 . S
C854 C853 1.374 . S
C855 C852 1.499 . S
C855 C856 1.373 . S
C855 C857 1.389 1_655 S
C856 H829 0.950 . S
C856 C842 1.377 . S
C856 C855 1.373 . S
C857 C841 1.377 . S
C857 C855 1.389 1_455 S
C857 C858 1.524 . S
C858 C857 1.524 . S
C858 C859 1.397 . S
C858 C863 1.363 . S
C859 H830 0.950 . S
C859 C858 1.397 . S
C859 C860 1.334 . S
C860 H831 0.950 . S
C860 C859 1.334 . S
C860 C861 1.287 . S
C861 C860 1.287 . S
C861 C862 1.524 . S
C861 H864 0.999 . S
C862 H832 0.950 . S
C862 C861 1.524 . S
C862 C863 1.415 . S
C863 H833 0.950 . S
C863 C858 1.363 . S
C863 C862 1.415 . S
H864 C861 0.999 . S
H865 C846 0.913 . S
H866 C884 0.951 . S
H867 C886 0.951 . S
H868 C888 0.950 1_455 S
H869 C889 0.950 . S
H870 C891 0.950 . S
H871 C894 0.950 . S
H872 C895 0.950 . S
H873 C897 0.950 . S
H874 C898 0.950 . S
H875 C899 0.951 . S
H876 C901 0.951 . S
H877 C903 0.950 1_655 S
H878 C904 0.950 . S
H879 C906 0.950 . S
H880 C909 0.950 . S
H881 C910 0.950 . S
H882 C912 0.950 . S
H883 C913 0.950 . S
C884 H866 0.951 . S
C884 C885 1.366 . S
C884 C886 1.388 . S
C885 C884 1.366 . S
C885 C889 1.385 . S
C886 H867 0.951 . S
C886 C884 1.388 . S
C886 C887 1.366 . S
C887 C886 1.366 . S
C887 C888 1.414 . S
C887 C890 1.499 . S
C888 H868 0.950 1_655 S
C888 C887 1.414 . S
C888 C889 1.374 . S
C889 H869 0.950 . S
C889 C885 1.385 . S
C889 C888 1.374 . S
C890 C887 1.499 . S
C890 C891 1.373 1_655 S
C890 C892 1.389 . S
C891 H870 0.950 . S
C891 C890 1.373 1_455 S
C891 C907 1.377 . S
C892 C890 1.389 . S
C892 C893 1.524 . S
C892 C906 1.377 . S
C893 C892 1.524 . S
C893 C894 1.397 . S
C893 C898 1.363 . S
C894 H871 0.950 . S
C894 C893 1.397 . S
C894 C895 1.334 . S
C895 H872 0.950 . S
C895 C894 1.334 . S
C895 C896 1.287 . S
C896 C895 1.287 . S
C896 C897 1.524 . S
C896 H915 0.913 . S
C897 H873 0.950 . S
C897 C896 1.524 . S
C897 C898 1.415 . S
C898 H874 0.950 . S
C898 C893 1.363 . S
C898 C897 1.415 . S
C899 H875 0.951 . S
C899 C900 1.366 . S
C899 C901 1.388 . S
C900 C899 1.366 . S
C900 C904 1.385 . S
C901 H876 0.951 . S
C901 C899 1.388 . S
C901 C902 1.366 . S
C902 C901 1.366 . S
C902 C903 1.414 . S
C902 C905 1.499 . S
C903 H877 0.950 1_455 S
C903 C902 1.414 . S
C903 C904 1.374 . S
C904 H878 0.950 . S
C904 C900 1.385 . S
C904 C903 1.374 . S
C905 C902 1.499 . S
C905 C906 1.373 1_455 S
C905 C907 1.389 . S
C906 H879 0.950 . S
C906 C892 1.377 . S
C906 C905 1.373 1_655 S
C907 C891 1.377 . S
C907 C905 1.389 . S
C907 C908 1.524 . S
C908 C907 1.524 . S
C908 C909 1.397 . S
C908 C913 1.363 . S
C909 H880 0.950 . S
C909 C908 1.397 . S
C909 C910 1.334 . S
C910 H881 0.950 . S
C910 C909 1.334 . S
C910 C911 1.287 . S
C911 C910 1.287 . S
C911 C912 1.524 . S
C911 H914 0.999 . S
C912 H882 0.950 . S
C912 C911 1.524 . S
C912 C913 1.415 . S
C913 H883 0.950 . S
C913 C908 1.363 . S
C913 C912 1.415 . S
H914 C911 0.999 . S
H915 C896 0.913 . S
H916 C934 0.951 . S
H917 C936 0.951 1_655 S
H918 C938 0.950 . S
H919 C939 0.950 . S
H920 C941 0.950 . S
H921 C944 0.950 1_455 S
H922 C945 0.950 . S
H923 C947 0.950 . S
H924 C948 0.950 . S
H925 C949 0.951 . S
H926 C951 0.951 1_455 S
H927 C953 0.950 . S
H928 C954 0.950 . S
H929 C956 0.950 . S
H930 C959 0.950 1_655 S
H931 C960 0.950 . S
H932 C962 0.950 . S
H933 C963 0.950 . S
C934 H916 0.951 . S
C934 C935 1.366 . S
C934 C936 1.388 . S
C935 C934 1.366 . S
C935 C939 1.385 . S
C936 H917 0.951 1_455 S
C936 C934 1.388 . S
C936 C937 1.366 . S
C937 C936 1.366 . S
C937 C938 1.414 . S
C937 C940 1.499 . S
C938 H918 0.950 . S
C938 C937 1.414 . S
C938 C939 1.374 . S
C939 H919 0.950 . S
C939 C935 1.385 . S
C939 C938 1.374 . S
C940 C937 1.499 . S
C940 C941 1.373 . S
C940 C942 1.389 1_455 S
C941 H920 0.950 . S
C941 C940 1.373 . S
C941 C957 1.377 . S
C942 C940 1.389 1_655 S
C942 C943 1.524 . S
C942 C956 1.377 . S
C943 C942 1.524 . S
C943 C944 1.397 . S
C943 C948 1.363 . S
C944 H921 0.950 1_655 S
C944 C943 1.397 . S
C944 C945 1.334 . S
C945 H922 0.950 . S
C945 C944 1.334 . S
C945 C946 1.287 . S
C946 C945 1.287 . S
C946 C947 1.524 . S
C946 H965 0.913 . S
C947 H923 0.950 . S
C947 C946 1.524 . S
C947 C948 1.415 . S
C948 H924 0.950 . S
C948 C943 1.363 . S
C948 C947 1.415 . S
C949 H925 0.951 . S
C949 C950 1.366 . S
C949 C951 1.388 . S
C950 C949 1.366 . S
C950 C954 1.385 . S
C951 H926 0.951 1_655 S
C951 C949 1.388 . S
C951 C952 1.366 . S
C952 C951 1.366 . S
C952 C953 1.414 . S
C952 C955 1.499 . S
C953 H927 0.950 . S
C953 C952 1.414 . S
C953 C954 1.374 . S
C954 H928 0.950 . S
C954 C950 1.385 . S
C954 C953 1.374 . S
C955 C952 1.499 . S
C955 C956 1.373 . S
C955 C957 1.389 1_655 S
C956 H929 0.950 . S
C956 C942 1.377 . S
C956 C955 1.373 . S
C957 C941 1.377 . S
C957 C955 1.389 1_455 S
C957 C958 1.524 . S
C958 C957 1.524 . S
C958 C959 1.397 . S
C958 C963 1.363 . S
C959 H930 0.950 1_455 S
C959 C958 1.397 . S
C959 C960 1.334 . S
C960 H931 0.950 . S
C960 C959 1.334 . S
C960 C961 1.287 . S
C961 C960 1.287 . S
C961 C962 1.524 . S
C961 H964 0.999 . S
C962 H932 0.950 . S
C962 C961 1.524 . S
C962 C963 1.415 . S
C963 H933 0.950 . S
C963 C958 1.363 . S
C963 C962 1.415 . S
H964 C961 0.999 . S
H965 C946 0.913 . S
H966 C984 0.951 . S
H967 C986 0.951 1_655 S
H968 C988 0.950 . S
H969 C989 0.950 . S
H970 C991 0.950 . S
H971 C994 0.950 . S
H972 C995 0.950 . S
H973 C997 0.950 . S
H974 C998 0.950 . S
H975 C999 0.951 . S
H976 C1001 0.951 1_455 S
H977 C1003 0.950 . S
H978 C1004 0.950 . S
H979 C1006 0.950 . S
H980 C1009 0.950 . S
H981 C1010 0.950 . S
H982 C1012 0.950 . S
H983 C1013 0.950 . S
C984 H966 0.951 . S
C984 C985 1.366 . S
C984 C986 1.388 . S
C985 C984 1.366 . S
C985 C989 1.385 . S
C986 H967 0.951 1_455 S
C986 C984 1.388 . S
C986 C987 1.366 . S
C987 C986 1.366 . S
C987 C988 1.414 . S
C987 C990 1.499 . S
C988 H968 0.950 . S
C988 C987 1.414 . S
C988 C989 1.374 . S
C989 H969 0.950 . S
C989 C985 1.385 . S
C989 C988 1.374 . S
C990 C987 1.499 . S
C990 C991 1.373 . S
C990 C992 1.389 1_455 S
C991 H970 0.950 . S
C991 C990 1.373 . S
C991 C1007 1.377 . S
C992 C990 1.389 1_655 S
C992 C993 1.524 . S
C992 C1006 1.377 . S
C993 C992 1.524 . S
C993 C994 1.397 1_655 S
C993 C998 1.363 . S
C994 H971 0.950 . S
C994 C993 1.397 1_455 S
C994 C995 1.334 . S
C995 H972 0.950 . S
C995 C994 1.334 . S
C995 C996 1.287 1_455 S
C996 C995 1.287 1_655 S
C996 C997 1.524 . S
C996 H1015 0.913 . S
C997 H973 0.950 . S
C997 C996 1.524 . S
C997 C998 1.415 . S
C998 H974 0.950 . S
C998 C993 1.363 . S
C998 C997 1.415 . S
C999 H975 0.951 . S
C999 C1000 1.366 . S
C999 C1001 1.388 . S
C1000 C999 1.366 . S
C1000 C1004 1.385 . S
C1001 H976 0.951 1_655 S
C1001 C999 1.388 . S
C1001 C1002 1.366 . S
C1002 C1001 1.366 . S
C1002 C1003 1.414 . S
C1002 C1005 1.499 . S
C1003 H977 0.950 . S
C1003 C1002 1.414 . S
C1003 C1004 1.374 . S
C1004 H978 0.950 . S
C1004 C1000 1.385 . S
C1004 C1003 1.374 . S
C1005 C1002 1.499 . S
C1005 C1006 1.373 . S
C1005 C1007 1.389 1_655 S
C1006 H979 0.950 . S
C1006 C992 1.377 . S
C1006 C1005 1.373 . S
C1007 C991 1.377 . S
C1007 C1005 1.389 1_455 S
C1007 C1008 1.524 . S
C1008 C1007 1.524 . S
C1008 C1009 1.397 1_455 S
C1008 C1013 1.363 . S
C1009 H980 0.950 . S
C1009 C1008 1.397 1_655 S
C1009 C1010 1.334 . S
C1010 H981 0.950 . S
C1010 C1009 1.334 . S
C1010 C1011 1.287 1_655 S
C1011 C1010 1.287 1_455 S
C1011 C1012 1.524 . S
C1011 H1014 0.999 . S
C1012 H982 0.950 . S
C1012 C1011 1.524 . S
C1012 C1013 1.415 . S
C1013 H983 0.950 . S
C1013 C1008 1.363 . S
C1013 C1012 1.415 . S
H1014 C1011 0.999 . S
H1015 C996 0.913 . S
C235 C35 0.789 . S
C250 C28 0.789 . S
C285 C89 0.789 . S
C300 C82 0.789 . S
C335 C136 0.788 . S
C350 C143 0.788 . S
C385 C190 0.790 . S
C400 C197 0.790 . S
C435 C64 1.662 . S
C450 C27 1.662 . S
C485 C189 1.662 . S
C500 C118 1.662 . S
C535 C10 1.662 . S
C550 C81 1.662 . S
C585 C172 1.662 . S
C600 C135 1.662 . S
C635 C184 1.816 . S
C650 C22 1.816 . S
C685 C59 1.815 . S
C700 C113 1.815 . S
C735 C140 1.802 . S
C750 C86 1.802 . S
C785 C13 1.802 . S
C800 C175 1.802 . S
C835 C130 1.816 . S
C850 C76 1.816 . S
C885 C167 1.815 . S
C900 C5 1.815 . S
C935 C32 1.803 . S
C950 C194 1.803 . S
C985 C121 1.802 . S
C1000 C67 1.802 . S
