# Generated by pormake.
# Topology snz, (6)-cn, num edge types: 1
# Building blocks:
#     Node 0, Type 0, BuildingBlock: CUKXOW_clean_sbu_0, # of connection points: 6
#     Node 1, Type 0, BuildingBlock: CUKXOW_clean_sbu_0, # of connection points: 6
#     Node 2, Type 0, BuildingBlock: CUKXOW_clean_sbu_0, # of connection points: 6
#     Node 3, Type 0, BuildingBlock: CUKXOW_clean_sbu_0, # of connection points: 6
#     Node 4, Type 0, BuildingBlock: CUKXOW_clean_sbu_0, # of connection points: 6
#     Node 5, Type 0, BuildingBlock: CUKXOW_clean_sbu_0, # of connection points: 6
#     Node 6, Type 0, BuildingBlock: CUKXOW_clean_sbu_0, # of connection points: 6
#     Node 7, Type 0, BuildingBlock: CUKXOW_clean_sbu_0, # of connection points: 6
#     Node 8, Type 0, BuildingBlock: CUKXOW_clean_sbu_0, # of connection points: 6
#     Edge 9, Type (0, 0), BuildingBlock: UVAHIK_clean_linker_0, # of connection points: 2
#     Edge 10, Type (0, 0), BuildingBlock: UVAHIK_clean_linker_0, # of connection points: 2
#     Edge 11, Type (0, 0), BuildingBlock: UVAHIK_clean_linker_0, # of connection points: 2
#     Edge 12, Type (0, 0), BuildingBlock: UVAHIK_clean_linker_0, # of connection points: 2
#     Edge 13, Type (0, 0), BuildingBlock: UVAHIK_clean_linker_0, # of connection points: 2
#     Edge 14, Type (0, 0), BuildingBlock: UVAHIK_clean_linker_0, # of connection points: 2
#     Edge 15, Type (0, 0), BuildingBlock: UVAHIK_clean_linker_0, # of connection points: 2
#     Edge 16, Type (0, 0), BuildingBlock: UVAHIK_clean_linker_0, # of connection points: 2
#     Edge 17, Type (0, 0), BuildingBlock: UVAHIK_clean_linker_0, # of connection points: 2
#     Edge 18, Type (0, 0), BuildingBlock: UVAHIK_clean_linker_0, # of connection points: 2
#     Edge 19, Type (0, 0), BuildingBlock: UVAHIK_clean_linker_0, # of connection points: 2
#     Edge 20, Type (0, 0), BuildingBlock: UVAHIK_clean_linker_0, # of connection points: 2
#     Edge 21, Type (0, 0), BuildingBlock: UVAHIK_clean_linker_0, # of connection points: 2
#     Edge 22, Type (0, 0), BuildingBlock: UVAHIK_clean_linker_0, # of connection points: 2
#     Edge 23, Type (0, 0), BuildingBlock: UVAHIK_clean_linker_0, # of connection points: 2
#     Edge 24, Type (0, 0), BuildingBlock: UVAHIK_clean_linker_0, # of connection points: 2
#     Edge 25, Type (0, 0), BuildingBlock: UVAHIK_clean_linker_0, # of connection points: 2
#     Edge 26, Type (0, 0), BuildingBlock: UVAHIK_clean_linker_0, # of connection points: 2
#     Edge 27, Type (0, 0), BuildingBlock: UVAHIK_clean_linker_0, # of connection points: 2
#     Edge 28, Type (0, 0), BuildingBlock: UVAHIK_clean_linker_0, # of connection points: 2
#     Edge 29, Type (0, 0), BuildingBlock: UVAHIK_clean_linker_0, # of connection points: 2
#     Edge 30, Type (0, 0), BuildingBlock: UVAHIK_clean_linker_0, # of connection points: 2
#     Edge 31, Type (0, 0), BuildingBlock: UVAHIK_clean_linker_0, # of connection points: 2
#     Edge 32, Type (0, 0), BuildingBlock: UVAHIK_clean_linker_0, # of connection points: 2
#     Edge 33, Type (0, 0), BuildingBlock: UVAHIK_clean_linker_0, # of connection points: 2
#     Edge 34, Type (0, 0), BuildingBlock: UVAHIK_clean_linker_0, # of connection points: 2
#     Edge 35, Type (0, 0), BuildingBlock: UVAHIK_clean_linker_0, # of connection points: 2
# Relax obj value: 0.101
# Max RMSD: 0.187
# Mean RMSD: 0.132
data_MOF--net-snz--node1-CUKXOW_clean_sbu_0--edge1-UVAHIK_clean_linker_0
_symmetry_space_group_name_H-M    P1
_symmetry_Int_Tables_number       1
_symmetry_cell_setting            triclinic
loop_
_symmetry_equiv_pos_as_xyz
'x, y, z'
_cell_length_a     62.527253
_cell_length_b     71.267983
_cell_length_c     18.934583
_cell_angle_alpha  93.31151
_cell_angle_beta   93.17401
_cell_angle_gamma 119.91918
loop_
_atom_site_label
_atom_site_type_symbol
_atom_site_fract_x
_atom_site_fract_y
_atom_site_fract_z
_atom_type_partial_charge
Tb0 Tb 0.03095 0.44452 0.98676 0.0
C1 C 0.06996 0.46911 0.87864 0.0
Tb2 Tb 0.07147 0.49399 0.02202 0.0
O3 O 1.00195 0.4536 0.98257 0.0
O4 O 0.03745 0.47509 0.95857 0.0
O5 O 0.05625 0.45029 0.90526 0.0
C6 C 0.09232 0.53691 0.03788 0.0
O7 O 0.07515 0.48813 0.91119 0.0
C8 C 0.08808 0.46854 0.06445 0.0
C9 C 0.03804 0.46716 0.13922 0.0
O10 O 0.10197 0.52629 0.00862 0.0
O11 O 0.07082 0.52335 0.05792 0.0
O12 O 0.10107 0.48968 0.07345 0.0
O13 O 0.06732 0.46357 0.03431 0.0
O14 O 0.05031 0.48643 0.11414 0.0
O15 O 0.0309 0.44851 0.10068 0.0
C16 C 1.00462 0.40199 0.94876 0.0
O17 O 1.01528 0.41086 0.01212 0.0
O18 O 1.00886 0.41703 0.90699 0.0
C19 C 1.01691 0.47332 0.96813 0.0
Tb20 Tb 0.6131 0.5027 0.04706 0.0
C21 C 0.61269 0.47441 0.16742 0.0
Tb22 Tb 0.59279 0.45272 0.01083 0.0
O23 O 0.57822 0.50058 0.07669 0.0
O24 O 0.58002 0.47341 0.04562 0.0
O25 O 0.62476 0.49383 0.14335 0.0
C26 C 0.57252 0.4098 -0.00174 0.0
O27 O 0.59704 0.45644 0.12605 0.0
C28 C 0.63666 0.47978 0.97081 0.0
C29 C 0.58513 0.47891 0.89636 0.0
O30 O 0.5948 0.42355 0.02674 0.0
O31 O 0.56152 0.42024 0.97795 0.0
O32 O 0.62158 0.46074 0.93801 0.0
O33 O 0.62776 0.48203 0.02644 0.0
O34 O 0.57564 0.45967 0.92176 0.0
O35 O 0.60221 0.49735 0.93324 0.0
C36 C 0.64441 0.54526 0.06071 0.0
O37 O 0.63887 0.53254 0.0025 0.0
O38 O 0.63214 0.53407 0.11091 0.0
C39 C 0.56549 0.47943 0.06618 0.0
Tb40 Tb 0.60744 -0.00452 0.12145 0.0
C41 C 0.60688 0.96599 -0.0071 0.0
Tb42 Tb 0.63225 0.96792 0.14116 0.0
O43 O 0.63319 0.01428 0.04595 0.0
O44 O 0.64422 0.00079 0.12462 0.0
O45 O 0.59349 0.97285 0.02569 0.0
C46 C 0.66349 0.95312 0.16384 0.0
O47 O 0.6255 0.96526 0.02681 0.0
C48 C 0.58374 0.94739 0.14586 0.0
C49 C 0.63431 -0.00105 0.27117 0.0
O50 O 0.66241 0.96296 0.10929 0.0
O51 O 0.6469 0.95149 0.20529 0.0
O52 O 0.59572 0.93781 0.12569 0.0
O53 O 0.59919 0.96675 0.16798 0.0
O54 O 0.64418 0.98792 0.24247 0.0
O55 O 0.61811 0.00258 0.23513 0.0
C56 C 0.5787 0.01314 0.11522 0.0
O57 O 0.60208 0.02338 0.13842 0.0
O58 O 0.57143 0.99281 0.09724 0.0
C59 C 0.65044 0.01059 0.06943 0.0
Tb60 Tb 0.81951 0.81637 0.26049 0.0
C61 C 0.85765 0.84465 0.15495 0.0
Tb62 Tb 0.85657 0.86663 0.30095 0.0
O63 O 0.78787 0.82132 0.26405 0.0
O64 O 0.82181 0.84643 0.23948 0.0
O65 O 0.84519 0.82528 0.17917 0.0
C66 C 0.87505 0.90926 0.32205 0.0
O67 O 0.86113 0.86284 0.18952 0.0
C68 C 0.87543 0.84237 0.34131 0.0
C69 C 0.82565 0.83675 0.41605 0.0
O70 O 0.88644 0.89993 0.29486 0.0
O71 O 0.85325 0.89458 0.33711 0.0
O72 O 0.88713 0.86343 0.35442 0.0
O73 O 0.85535 0.83727 0.30686 0.0
O74 O 0.8357 0.85641 0.39321 0.0
O75 O 0.82035 0.81895 0.37498 0.0
C76 C 0.79703 0.77421 0.21705 0.0
O77 O 0.80645 0.78275 0.28147 0.0
O78 O 0.80009 0.78938 0.17701 0.0
C79 C 0.80031 0.84171 0.25344 0.0
Tb80 Tb 0.29586 0.85809 0.29276 0.0
C81 C 0.30214 0.83055 0.40563 0.0
Tb82 Tb 0.27499 0.80817 0.25361 0.0
O83 O 0.26713 0.85024 0.36508 0.0
O84 O 0.2605 0.829 0.27572 0.0
O85 O 0.31203 0.85002 0.38159 0.0
C86 C 0.24455 0.76559 0.22963 0.0
O87 O 0.2852 0.81234 0.36733 0.0
C88 C 0.32291 0.83136 0.23682 0.0
C89 C 0.27583 0.83731 0.13548 0.0
O90 O 0.24564 0.77752 0.28581 0.0
O91 O 0.26062 0.77759 0.18767 0.0
O92 O 0.31004 0.81027 0.22575 0.0
O93 O 0.30835 0.8374 0.2569 0.0
O94 O 0.26368 0.81776 0.15853 0.0
O95 O 0.29167 0.85506 0.17745 0.0
C96 C 0.317 0.9011 0.30873 0.0
O97 O 0.29474 0.88779 0.27917 0.0
O98 O 0.32751 0.89018 0.32816 0.0
C99 C 0.2518 0.83134 0.33183 0.0
Tb100 Tb 0.25884 0.34757 0.18909 0.0
C101 C 0.25731 0.31814 0.05459 0.0
Tb102 Tb 0.2802 0.31794 0.20425 0.0
O103 O 0.2958 0.3765 0.19431 0.0
O104 O 0.28987 0.34634 0.15356 0.0
O105 O 0.24701 0.32848 0.08543 0.0
C106 C 0.30859 0.30039 0.22972 0.0
O107 O 0.27438 0.31542 0.08954 0.0
C108 C 0.23295 0.30053 0.22606 0.0
C109 C 0.28428 0.34915 0.33697 0.0
O110 O 0.28632 0.29023 0.1979 0.0
O111 O 0.31505 0.32054 0.24641 0.0
O112 O 0.2429 0.28953 0.20266 0.0
O113 O 0.24999 0.31979 0.24278 0.0
O114 O 0.29379 0.33819 0.30575 0.0
O115 O 0.26698 0.35186 0.30338 0.0
C116 C 0.22709 0.3621 0.17099 0.0
O117 O 0.25094 0.3742 0.18473 0.0
O118 O 0.22111 0.34182 0.1671 0.0
C119 C 0.30632 0.3657 0.17304 0.0
Tb120 Tb 0.42633 0.1618 0.6404 0.0
C121 C 0.48315 0.19768 0.67277 0.0
Tb122 Tb 0.46428 0.14873 0.67688 0.0
O123 O 0.40934 0.15132 0.73993 0.0
O124 O 0.44696 0.16284 0.73527 0.0
O125 O 0.46172 0.19167 0.63575 0.0
C126 C 0.48886 0.13143 0.73919 0.0
O127 O 0.4878 0.18346 0.7016 0.0
C128 C 0.4611 0.15623 0.54271 0.0
C129 C 0.40749 0.11284 0.64333 0.0
O130 O 0.48795 0.14817 0.76544 0.0
O131 O 0.4764 0.12471 0.67708 0.0
O132 O 0.48119 0.15889 0.57695 0.0
O133 O 0.44371 0.1477 0.58212 0.0
O134 O 0.42882 0.11885 0.681 0.0
O135 O 0.40288 0.1271 0.61455 0.0
C136 C 0.40178 0.17963 0.58154 0.0
O137 O 0.40333 0.16352 0.55221 0.0
O138 O 0.41359 0.18537 0.64451 0.0
C139 C 0.4295 0.15421 0.77442 0.0
Tb140 Tb 0.9186 0.13875 0.67914 0.0
C141 C 0.9509 0.11925 0.63342 0.0
Tb142 Tb 0.97171 0.17019 0.65334 0.0
O143 O 0.90929 0.12575 0.56657 0.0
O144 O 0.9366 0.15796 0.5953 0.0
O145 O 0.93181 0.11604 0.66851 0.0
C146 C 1.01345 0.19328 0.59165 0.0
O147 O 0.96747 0.13872 0.61617 0.0
C148 C 0.96381 0.16558 0.789 0.0
C149 C 0.93896 0.18946 0.69781 0.0
O150 O 1.01205 0.18461 0.651 0.0
O151 O 0.99154 0.18904 0.56794 0.0
O152 O 0.98099 0.18321 0.76593 0.0
O153 O 0.95374 0.15099 0.73708 0.0
O154 O 0.95823 0.19283 0.66324 0.0
O155 O 0.92271 0.17008 0.71633 0.0
C156 C 0.87641 0.11514 0.73813 0.0
O157 O 0.87829 0.12446 0.67996 0.0
O158 O 0.89817 0.11915 0.76263 0.0
C159 C 0.92644 0.14336 0.54345 0.0
Tb160 Tb 0.97211 0.67149 0.64882 0.0
C161 C 0.95312 0.62395 0.68486 0.0
Tb162 Tb 0.91779 0.64407 0.67054 0.0
O163 O 0.98349 0.67021 0.75889 0.0
O164 O 0.94978 0.66881 0.73376 0.0
O165 O 0.97039 0.64042 0.65441 0.0
C166 C 0.87393 0.61964 0.72083 0.0
O167 O 0.93227 0.62308 0.70108 0.0
C168 C 0.92708 0.64867 0.53623 0.0
C169 C 0.93687 0.69183 0.63742 0.0
O170 O 0.88086 0.61485 0.66241 0.0
O171 O 0.89171 0.63817 0.7509 0.0
O172 O 0.9067 0.64569 0.56043 0.0
O173 O 0.94013 0.64675 0.58575 0.0
O174 O 0.91949 0.67511 0.66661 0.0
O175 O 0.9578 0.69287 0.62098 0.0
C176 C 1.01555 0.69542 0.59548 0.0
O177 O 1.00934 0.70034 0.65507 0.0
O178 O 0.99731 0.67705 0.56606 0.0
C179 C 0.96306 0.6671 0.78318 0.0
C180 C 0.08904 0.48816 0.77359 0.0
C181 C 0.0758 0.46859 0.80465 0.0
C182 C 0.08839 0.48804 0.7 0.0
C183 C 0.06839 0.45386 0.52921 0.0
H184 H 0.04366 0.492 0.47726 0.0
C185 C 0.02639 0.447 0.24691 0.0
C186 C 0.03609 0.4668 0.21626 0.0
C187 C 0.0301 0.44693 0.32008 0.0
C188 C 0.05073 0.48141 0.49084 0.0
H189 H 0.05451 0.43337 0.7838 0.0
H190 H 0.05331 0.43325 0.65524 0.0
H191 H 0.058 0.49336 0.60054 0.0
H192 H 0.05506 0.50195 0.23885 0.0
H193 H 0.06168 0.50177 0.36607 0.0
H194 H 0.06114 0.44194 0.41929 0.0
C195 C 0.06396 0.44865 0.6877 0.0
C196 C 0.05911 0.48229 0.5612 0.0
C197 C 0.0646 0.44876 0.76139 0.0
C198 C 0.04752 0.48641 0.26068 0.0
C199 C 0.05129 0.48633 0.33374 0.0
C200 C 0.06013 0.45306 0.4586 0.0
C201 C 0.0746 0.46836 0.65662 0.0
C202 C 0.06799 0.46853 0.58096 0.0
C203 C 0.04351 0.46662 0.36367 0.0
C204 C 0.05115 0.46679 0.43889 0.0
H205 H 0.09832 0.5037 0.80565 0.0
H206 H 0.09723 0.50341 0.67695 0.0
H207 H 0.07513 0.44308 0.54337 0.0
H208 H 1.01721 0.43158 0.21421 0.0
H209 H 0.02334 0.43149 0.3422 0.0
C210 C 0.563 0.45978 0.77822 0.0
C211 C 0.57934 0.47927 0.82031 0.0
C212 C 0.56267 0.45887 0.70452 0.0
C213 C 0.58615 0.49133 0.55254 0.0
H214 H 0.5983 0.44504 0.48818 0.0
C215 C 0.6271 0.49257 0.29081 0.0
C216 C 0.6136 0.47337 0.24478 0.0
C217 C 0.62309 0.49257 0.36238 0.0
C218 C 0.59474 0.45792 0.50527 0.0
H219 H 0.60568 0.51369 0.81821 0.0
H220 H 0.60522 0.512 0.68978 0.0
H221 H 0.58583 0.44636 0.60713 0.0
H222 H 0.58734 0.43866 0.23898 0.0
H223 H 0.58036 0.43875 0.36387 0.0
H224 H 0.59543 0.50304 0.45089 0.0
C225 C 0.59279 0.49742 0.71358 0.0
C226 C 0.58739 0.45858 0.57297 0.0
C227 C 0.59312 0.49836 0.78728 0.0
C228 C 0.59786 0.45378 0.27293 0.0
C229 C 0.59386 0.4538 0.34452 0.0
C230 C 0.5935 0.49066 0.4848 0.0
C231 C 0.57859 0.47742 0.67202 0.0
C232 C 0.58325 0.4754 0.59738 0.0
C233 C 0.60562 0.47337 0.38898 0.0
C234 C 0.59814 0.47409 0.46099 0.0
H235 H 0.55176 0.44487 0.80209 0.0
H236 H 0.55113 0.44336 0.67324 0.0
H237 H 0.58296 0.50438 0.57012 0.0
H238 H 0.63963 0.50789 0.27097 0.0
H239 H 0.63286 0.50777 0.39626 0.0
C240 C 0.58936 0.96971 0.87652 0.0
C241 C 0.60465 0.96379 0.91468 0.0
C242 C 0.59222 0.97344 0.80527 0.0
C243 C 0.62128 0.96659 0.64904 0.0
H244 H 0.62731 0.02163 0.60722 0.0
C245 C 0.65516 7e-05 0.38851 0.0
C246 C 0.63841 0.00405 0.34891 0.0
C247 C 0.65402 -0.00139 0.46136 0.0
C248 C 0.62565 0.00624 0.61828 0.0
H249 H 0.63308 0.95495 0.90632 0.0
H250 H 0.63803 0.96149 0.7824 0.0
H251 H 0.6155 0.00845 0.72311 0.0
H252 H 0.60956 0.01242 0.3558 0.0
H253 H 0.60751 0.00972 0.48289 0.0
H254 H 0.63138 0.96432 0.54441 0.0
C255 C 0.62396 0.96337 0.80743 0.0
C256 C 0.61867 -0.00141 0.68415 0.0
C257 C 0.62112 0.95964 0.87857 0.0
C258 C 0.62255 0.0091 0.38471 0.0
C259 C 0.62139 0.00759 0.45763 0.0
C260 C 0.62831 0.97425 0.58338 0.0
C261 C 0.61028 0.97119 0.77108 0.0
C262 C 0.61638 0.97866 0.70001 0.0
C263 C 0.63616 0.00114 0.49563 0.0
C264 C 0.63057 0.99415 0.56741 0.0
H265 H 0.57634 0.97288 0.90263 0.0
H266 H 0.58103 0.97897 0.7778 0.0
H267 H 0.61944 0.9511 0.65966 0.0
H268 H 0.66796 -0.00347 0.36266 0.0
H269 H 0.66606 0.99417 0.49005 0.0
C270 C 0.83153 0.85407 0.5389 0.0
C271 C 0.82469 0.83535 0.49302 0.0
C272 C 0.83666 0.85429 0.61149 0.0
C273 C 0.82992 0.82019 0.75566 0.0
H274 H 0.89169 0.87072 0.83691 0.0
C275 C 0.86185 0.82639 0.04493 0.0
C276 C 0.86494 0.84533 0.0823 0.0
C277 C 0.86257 0.82526 0.97156 0.0
C278 C 0.87449 0.85651 0.81472 0.0
H279 H 0.81564 0.80159 0.48782 0.0
H280 H 0.82457 0.80207 0.6146 0.0
H281 H 0.87768 0.86793 0.71177 0.0
H282 H 0.87434 0.8788 0.07394 0.0
H283 H 0.87517 0.87667 0.94585 0.0
H284 H 0.82633 0.80898 0.85871 0.0
C285 C 0.82611 0.81656 0.59434 0.0
C286 C 0.86637 0.85499 0.74355 0.0
C287 C 0.82096 0.81631 0.52173 0.0
C288 C 0.87157 0.86389 0.04643 0.0
C289 C 0.8722 0.86271 0.973 0.0
C290 C 0.83802 0.82171 0.82678 0.0
C291 C 0.83496 0.8358 0.63923 0.0
C292 C 0.84379 0.83701 0.71389 0.0
C293 C 0.86635 0.84301 0.93469 0.0
C294 C 0.86016 0.84004 0.8572 0.0
H295 H 0.83426 0.86892 0.51849 0.0
H296 H 0.84283 0.86916 0.64557 0.0
H297 H 0.81242 0.80622 0.734 0.0
H298 H 0.85727 0.81196 0.07145 0.0
H299 H 0.85857 0.81005 0.94317 0.0
C300 C 0.32252 0.84898 0.5259 0.0
C301 C 0.30709 0.82967 0.48182 0.0
C302 C 0.32154 0.84935 0.59921 0.0
C303 C 0.27418 0.82241 0.71625 0.0
H304 H 0.32655 0.85571 0.86792 0.0
C305 C 0.25935 0.81972 0.01224 0.0
C306 C 0.27438 0.83865 0.05834 0.0
C307 C 0.26238 0.81958 0.94004 0.0
C308 C 0.31174 0.84666 0.82576 0.0
H309 H 0.28127 0.79498 0.4804 0.0
H310 H 0.27976 0.79571 0.60855 0.0
H311 H 0.33725 0.85169 0.74806 0.0
H312 H 0.30239 0.87289 0.06399 0.0
H313 H 0.30732 0.87266 0.93734 0.0
H314 H 0.24865 0.81759 0.79333 0.0
C315 C 0.29205 0.81061 0.58609 0.0
C316 C 0.31789 0.84418 0.75761 0.0
C317 C 0.29304 0.81022 0.51282 0.0
C318 C 0.29075 0.85797 0.02995 0.0
C319 C 0.29375 0.85782 0.95761 0.0
C320 C 0.26803 0.82497 0.7842 0.0
C321 C 0.3052 0.83041 0.6292 0.0
C322 C 0.29914 0.83193 0.70248 0.0
C323 C 0.28037 0.83838 0.91273 0.0
C324 C 0.28675 0.83706 0.83959 0.0
H325 H 0.33387 0.86419 0.50368 0.0
H326 H 0.33197 0.8648 0.63151 0.0
H327 H 0.25936 0.81337 0.67408 0.0
H328 H 0.24636 0.80461 0.03235 0.0
H329 H 0.25179 0.80436 0.90663 0.0
C330 C 0.27495 0.36115 0.45118 0.0
C331 C 0.28881 0.35388 0.41457 0.0
C332 C 0.27334 0.35935 0.52369 0.0
C333 C 0.29707 0.34615 0.68432 0.0
H334 H 0.22736 0.31325 0.71525 0.0
C335 C 0.26842 0.30746 0.94113 0.0
C336 C 0.25391 0.31419 0.97674 0.0
C337 C 0.27059 0.30959 0.8689 0.0
C338 C 0.24686 0.32246 0.70731 0.0
H339 H 0.31476 0.34213 0.42649 0.0
H340 H 0.31174 0.33884 0.55292 0.0
H341 H 0.23926 0.32786 0.60149 0.0
H342 H 0.22763 0.32554 0.96321 0.0
H343 H 0.23164 0.32942 0.83742 0.0
H344 H 0.30467 0.34078 0.7902 0.0
C345 C 0.30192 0.34568 0.52561 0.0
C346 C 0.2537 0.33102 0.64272 0.0
C347 C 0.30355 0.34748 0.45309 0.0
C348 C 0.2393 0.32057 0.93742 0.0
C349 C 0.2415 0.32271 0.86523 0.0
C350 C 0.29023 0.33762 0.74898 0.0
C351 C 0.28566 0.35038 0.56036 0.0
C352 C 0.27886 0.34298 0.63083 0.0
C353 C 0.2582 0.31837 0.83147 0.0
C354 C 0.26507 0.3257 0.76093 0.0
H355 H 0.26378 0.36659 0.42314 0.0
H356 H 0.26118 0.3636 0.55009 0.0
H357 H 0.31657 0.35533 0.67626 0.0
H358 H 0.27952 0.30206 0.96978 0.0
H359 H 0.28309 0.3056 0.8433 0.0
C360 C 0.47834 0.16504 0.42443 0.0
C361 C 0.4578 0.15692 0.46447 0.0
C362 C 0.4753 0.16483 0.35029 0.0
C363 C 0.43048 0.15981 0.20072 0.0
H364 H 0.47128 0.14641 0.08503 0.0
C365 C 0.41213 0.14522 0.89252 0.0
C366 C 0.43272 0.15348 0.85266 0.0
C367 C 0.41513 0.14539 0.96667 0.0
C368 C 0.45989 0.15044 0.11635 0.0
H369 H 0.41787 0.14221 0.45762 0.0
H370 H 0.41246 0.14178 0.32857 0.0
H371 H 0.47656 0.14752 0.21399 0.0
H372 H 0.47268 0.1684 0.85984 0.0
H373 H 0.478 0.16871 0.98884 0.0
H374 H 0.4138 0.16271 0.10305 0.0
C375 C 0.43105 0.1486 0.35434 0.0
C376 C 0.46294 0.15109 0.1907 0.0
C377 C 0.43412 0.1488 0.42855 0.0
C378 C 0.45639 0.16169 0.88875 0.0
C379 C 0.45941 0.16183 0.96294 0.0
C380 C 0.42742 0.15914 0.12636 0.0
C381 C 0.45158 0.15648 0.31386 0.0
C382 C 0.4483 0.1558 0.2342 0.0
C383 C 0.43884 0.15382 0.00324 0.0
C384 C 0.44207 0.15445 0.08288 0.0
H385 H 0.49685 0.17148 0.45042 0.0
H386 H 0.49163 0.17139 0.32158 0.0
H387 H 0.41909 0.16384 0.23203 0.0
H388 H 0.39363 0.13872 0.86641 0.0
H389 H 0.39877 0.13875 -0.00472 0.0
C390 C 0.94536 0.16663 0.4423 0.0
C391 C 0.93104 0.14605 0.46671 0.0
C392 C 0.94901 0.16875 0.36963 0.0
C393 C 0.92272 0.13845 0.18757 0.0
H394 H 0.98534 0.18269 0.13029 0.0
C395 C 0.94474 0.14228 0.88997 0.0
C396 C 0.9592 0.16286 0.86571 0.0
C397 C 0.94111 0.14013 0.96265 0.0
C398 C 0.96756 0.17037 0.1449 0.0
H399 H 0.90944 0.11155 0.43307 0.0
H400 H 0.91584 0.11512 0.3075 0.0
H401 H 0.97969 0.17943 0.25619 0.0
H402 H 0.98104 0.19733 0.89961 0.0
H403 H 0.97464 0.19372 0.02513 0.0
H404 H 0.91058 0.1294 0.07628 0.0
C405 C 0.92408 0.12977 0.34388 0.0
C406 C 0.9643 0.1685 0.21773 0.0
C407 C 0.9205 0.12769 0.41637 0.0
C408 C 0.96988 0.18119 0.91619 0.0
C409 C 0.9663 0.17908 0.98867 0.0
C410 C 0.92597 0.14033 0.11473 0.0
C411 C 0.93832 0.15034 0.31889 0.0
C412 C 0.94182 0.15249 0.24058 0.0
C413 C 0.95194 0.15851 0.01354 0.0
C414 C 0.94845 0.15634 0.09186 0.0
H415 H 0.95337 0.18117 0.47913 0.0
H416 H 0.9598 0.18493 0.3531 0.0
H417 H 0.90495 0.12613 0.2022 0.0
H418 H 0.93658 0.12776 0.853 0.0
H419 H 0.93022 0.12395 0.97906 0.0
C420 C 0.91626 0.6547 0.41344 0.0
C421 C 0.93198 0.65119 0.45996 0.0
C422 C 0.91979 0.65655 0.34108 0.0
C423 C 0.95008 0.64368 0.19606 0.0
H424 H 0.93651 0.68326 0.09681 0.0
C425 C 0.97409 0.66123 0.90603 0.0
C426 C 0.95818 0.6645 0.85943 0.0
C427 C 0.97054 0.65931 0.97836 0.0
C428 C 0.94008 0.67189 0.12321 0.0
H429 H 0.9638 0.64674 0.46612 0.0
H430 H 0.97038 0.65037 0.3399 0.0
H431 H 0.93213 0.68122 0.22366 0.0
H432 H 0.92594 0.66833 0.85301 0.0
H433 H 0.91942 0.6647 0.9793 0.0
H434 H 0.95808 0.63439 0.09558 0.0
C435 C 0.95506 0.6515 0.3593 0.0
C436 C 0.93759 0.67072 0.19646 0.0
C437 C 0.95149 0.64966 0.43205 0.0
C438 C 0.93844 0.66568 0.88721 0.0
C439 C 0.93488 0.66381 0.95995 0.0
C440 C 0.95259 0.64487 0.12282 0.0
C441 C 0.93921 0.65494 0.31248 0.0
C442 C 0.94251 0.65657 0.23426 0.0
C443 C 0.95094 0.66063 0.00684 0.0
C444 C 0.94765 0.659 0.08504 0.0
H445 H 0.90099 0.65591 0.43292 0.0
H446 H 0.90689 0.65882 0.30727 0.0
H447 H 0.95364 0.63229 0.22242 0.0
H448 H 0.98952 0.66026 0.88663 0.0
H449 H 0.98357 0.65723 0.01227 0.0
C450 C 0.18443 0.35585 0.14012 0.0
C451 C 0.20956 0.37017 0.16316 0.0
C452 C 0.16786 0.36362 0.13339 0.0
C453 C 0.15927 0.40866 0.19904 0.0
H454 H 0.11737 0.39575 0.02344 0.0
C455 C 0.12086 0.46297 0.12081 0.0
C456 C 0.09733 0.45393 0.08346 0.0
C457 C 0.13105 0.45 0.13581 0.0
C458 C 0.12854 0.39915 0.0734 0.0
H459 H 0.23714 0.4037 0.19739 0.0
H460 H 0.20823 0.41724 0.18653 0.0
H461 H 0.1421 0.37811 0.03904 0.0
H462 H 0.06572 0.42419 0.0332 0.0
H463 H 0.08354 0.40117 0.06007 0.0
H464 H 0.14605 0.42979 0.2335 0.0
C465 C 0.20128 0.40003 0.17375 0.0
C466 C 0.14276 0.38911 0.08218 0.0
C467 C 0.21786 0.39232 0.17956 0.0
C468 C 0.08387 0.4315 0.06237 0.0
C469 C 0.09415 0.41841 0.07734 0.0
C470 C 0.14494 0.41851 0.19059 0.0
C471 C 0.17612 0.38578 0.15068 0.0
C472 C 0.1588 0.39427 0.14429 0.0
C473 C 0.11796 0.42759 0.11395 0.0
C474 C 0.12999 0.41443 0.12681 0.0
H475 H 0.17759 0.33867 0.12716 0.0
H476 H 0.14856 0.35229 0.11569 0.0
H477 H 0.17109 0.41259 0.24807 0.0
H478 H 0.13169 0.48025 0.13747 0.0
H479 H 0.14959 0.45775 0.16275 0.0
C480 C 0.67036 0.57979 0.13768 0.0
C481 C 0.66251 0.56862 0.06945 0.0
C482 C 0.68773 0.60196 0.14658 0.0
C483 C 0.71003 0.65114 0.06003 0.0
H484 H 0.76637 0.67414 0.20242 0.0
C485 C 0.77726 0.74342 0.1214 0.0
C486 C 0.78457 0.75089 0.19363 0.0
C487 C 0.76495 0.72115 0.09971 0.0
C488 C 0.75063 0.668 0.16284 0.0
H489 H 0.66646 0.57152 0.95697 0.0
H490 H 0.69654 0.61068 0.97255 0.0
H491 H 0.73961 0.63488 0.17669 0.0
H492 H 0.78508 0.7413 0.2999 0.0
H493 H 0.76294 0.70247 0.2627 0.0
H494 H 0.72016 0.68412 0.04844 0.0
C495 C 0.68936 0.60218 0.01894 0.0
C496 C 0.73544 0.64556 0.14794 0.0
C497 C 0.67224 0.57988 0.01011 0.0
C498 C 0.77966 0.73589 0.24381 0.0
C499 C 0.76718 0.71366 0.22232 0.0
C500 C 0.72503 0.67362 0.07556 0.0
C501 C 0.69726 0.61334 0.0873 0.0
C502 C 0.71479 0.63697 0.09737 0.0
C503 C 0.75959 0.70601 0.15005 0.0
C504 C 0.74522 0.68229 0.12818 0.0
H505 H 0.66314 0.5714 0.18422 0.0
H506 H 0.69337 0.61031 0.19975 0.0
H507 H 0.69405 0.64484 0.02116 0.0
H508 H 0.78102 0.75477 0.08172 0.0
H509 H 0.75966 0.71582 0.04357 0.0
C510 C 0.54107 0.91476 0.1268 0.0
C511 C 0.55675 0.93676 0.15127 0.0
C512 C 0.5156 0.90461 0.13361 0.0
C513 C 0.46944 0.9101 0.23501 0.0
H514 H 0.42255 0.86634 0.08819 0.0
C515 C 0.36229 0.86762 0.2427 0.0
C516 C 0.34943 0.84495 0.22629 0.0
C517 C 0.38747 0.88005 0.23196 0.0
C518 C 0.43542 0.87845 0.12986 0.0
H519 H 0.5582 0.96545 0.20212 0.0
H520 H 0.51372 0.94798 0.21234 0.0
H521 H 0.46658 0.88569 0.07167 0.0
H522 H 0.35264 0.81751 0.18554 0.0
H523 H 0.3963 0.83906 0.16661 0.0
H524 H 0.43811 0.90278 0.29303 0.0
C525 C 0.52102 0.93839 0.18883 0.0
C526 C 0.4607 0.88951 0.12052 0.0
C527 C 0.5465 0.94848 0.18231 0.0
C528 C 0.36208 0.83497 0.19865 0.0
C529 C 0.38707 0.84734 0.18736 0.0
C530 C 0.44409 0.8991 0.24416 0.0
C531 C 0.50522 0.91627 0.16485 0.0
C532 C 0.47812 0.90529 0.17336 0.0
C533 C 0.40011 0.87003 0.20381 0.0
C534 C 0.42683 0.88292 0.19212 0.0
H535 H 0.54851 0.90532 0.10296 0.0
H536 H 0.50413 0.88748 0.11555 0.0
H537 H 0.48228 0.92194 0.27729 0.0
H538 H 0.35293 0.8757 0.26371 0.0
H539 H 0.39697 0.89752 0.24476 0.0
C540 C 0.57486 0.04629 0.11299 0.0
C541 C 0.56471 0.02388 0.09492 0.0
C542 C 0.56422 0.05738 0.08169 0.0
C543 C 0.53272 0.05522 0.9141 0.0
H544 H 0.51926 0.09763 0.00685 0.0
C545 C 0.49179 0.09834 0.75492 0.0
C546 C 0.49883 0.11982 0.77853 0.0
C547 C 0.49907 0.08645 0.7959 0.0
C548 C 0.52331 0.0861 0.97998 0.0
H549 H 0.53469 0.99519 0.03388 0.0
H550 H 0.51631 0.01466 0.97837 0.0
H551 H 0.53198 0.07682 0.07865 0.0
H552 H 0.51947 0.14605 0.86204 0.0
H553 H 0.53333 0.12573 0.93214 0.0
H554 H 0.52528 0.06495 0.81563 0.0
C555 C 0.53246 0.02361 0.01663 0.0
C556 C 0.53036 0.07407 0.02124 0.0
C557 C 0.54288 0.01248 0.04867 0.0
C558 C 0.51383 0.12946 0.84278 0.0
C559 C 0.52149 0.11771 0.88328 0.0
C560 C 0.52612 0.06747 0.87288 0.0
C561 C 0.54349 0.04625 0.03121 0.0
C562 C 0.53501 0.05847 0.98857 0.0
C563 C 0.51392 0.09592 0.86087 0.0
C564 C 0.52124 0.08305 0.90516 0.0
H565 H 0.59172 0.05542 0.14852 0.0
H566 H 0.57308 0.07485 0.09363 0.0
H567 H 0.5367 0.04356 0.88765 0.0
H568 H 0.47993 0.09045 0.70592 0.0
H569 H 0.49246 0.06963 0.77736 0.0
C570 C 0.9465 0.2267 0.68268 0.0
C571 C 0.93661 0.20835 0.72091 0.0
C572 C 0.94674 0.24553 0.7087 0.0
C573 C 0.95498 0.27603 0.87301 0.0
H574 H 0.93526 0.31008 0.76303 0.0
C575 C 0.98311 0.36343 0.97712 0.0
C576 C 0.99078 0.37855 0.92652 0.0
C577 C 0.97085 0.34115 0.95544 0.0
C578 C 0.94106 0.30087 0.79431 0.0
H579 H 0.91865 0.19495 0.81513 0.0
H580 H 0.91985 0.22828 0.86184 0.0
H581 H 0.92362 0.27325 0.71606 0.0
H582 H 0.99155 0.38258 0.81405 0.0
H583 H 0.97137 0.34394 0.77602 0.0
H584 H 0.97401 0.3039 0.9488 0.0
C585 C 0.92697 0.22787 0.81124 0.0
C586 C 0.93417 0.27975 0.7676 0.0
C587 C 0.92623 0.20886 0.78443 0.0
C588 C 0.98569 0.37117 0.85405 0.0
C589 C 0.97387 0.34897 0.83234 0.0
C590 C 0.96229 0.29728 0.89913 0.0
C591 C 0.93756 0.24641 0.77402 0.0
C592 C 0.9415 0.26736 0.80618 0.0
C593 C 0.96648 0.33365 0.88274 0.0
C594 C 0.95592 0.31017 0.85934 0.0
H595 H 0.95454 0.22667 0.63346 0.0
H596 H 0.95522 0.25974 0.67951 0.0
H597 H 0.96107 0.26681 0.90326 0.0
H598 H 0.98667 0.36881 0.03341 0.0
H599 H 0.96504 0.32986 -0.00426 0.0
C600 C 0.83135 0.58698 0.70918 0.0
C601 C 0.84962 0.60633 0.74816 0.0
C602 C 0.80821 0.57449 0.73449 0.0
C603 C 0.77608 0.56406 0.8983 0.0
H604 H 0.7169 0.53793 0.76558 0.0
C605 C 0.67718 0.51505 -0.01061 0.0
C606 C 0.66057 0.49581 0.94665 0.0
C607 C 0.70003 0.52983 0.96614 0.0
C608 C 0.73325 0.54495 0.80331 0.0
H609 H 0.85818 0.6278 0.84426 0.0
H610 H 0.81769 0.60602 0.88856 0.0
H611 H 0.75723 0.56098 0.72347 0.0
H612 H 0.65468 0.47691 0.8463 0.0
H613 H 0.6945 0.50236 0.80624 0.0
H614 H 0.75209 0.54779 0.978 0.0
C615 C 0.82127 0.60039 0.83866 0.0
C616 C 0.75639 0.55817 0.77911 0.0
C617 C 0.8444 0.61292 0.81316 0.0
C618 C 0.66711 0.49165 0.88029 0.0
C619 C 0.68987 0.50635 0.85711 0.0
C620 C 0.75291 0.55078 0.92252 0.0
C621 C 0.80284 0.58105 0.79949 0.0
C622 C 0.77814 0.5677 0.82611 0.0
C623 C 0.70669 0.52561 0.89972 0.0
C624 C 0.73121 0.54085 0.87515 0.0
H625 H 0.83492 0.58149 0.65899 0.0
H626 H 0.7946 0.55953 0.70347 0.0
H627 H 0.79247 0.57098 0.93581 0.0
H628 H 0.67262 0.5186 0.04097 0.0
H629 H 0.71241 0.5446 2e-05 0.0
C630 C 0.93997 0.58884 0.73826 0.0
C631 C 0.95816 0.60687 0.70774 0.0
C632 C 0.94549 0.5739 0.76673 0.0
C633 C 0.99831 0.56999 0.84277 0.0
H634 H 0.95293 0.50771 0.81411 0.0
C635 C 0.02719 0.50838 0.92054 0.0
C636 C 1.0097 0.48917 0.9472 0.0
C637 C 1.02032 0.5228 0.89522 0.0
C638 C 0.96564 0.52507 0.8236 0.0
H639 H 0.99626 0.62292 0.68138 0.0
H640 H 1.0058 0.59679 0.73072 0.0
H641 H 0.94194 0.53223 0.75868 0.0
H642 H 0.97147 0.47018 0.96997 0.0
H643 H 0.95939 0.49562 0.92644 0.0
H644 H 1.02197 0.56295 0.90787 0.0
C645 C 0.98733 0.59437 0.7333 0.0
C646 C 0.95937 0.53911 0.79156 0.0
C647 C 0.98178 0.60924 0.70446 0.0
C648 C 0.98529 0.48488 0.94959 0.0
C649 C 0.97837 0.49936 0.9242 0.0
C650 C 1.00452 0.55599 0.87505 0.0
C651 C 0.96936 0.57672 0.76571 0.0
C652 C 0.97575 0.56172 0.80024 0.0
C653 C 0.99577 0.5184 0.89602 0.0
C654 C 0.98838 0.53333 0.86532 0.0
H655 H 0.92157 0.58648 0.74175 0.0
H656 H 0.93128 0.56054 0.79166 0.0
H657 H 1.0111 0.58736 0.85171 0.0
H658 H 0.04611 0.51203 0.91751 0.0
H659 H 0.03413 0.53709 0.87299 0.0
C660 C 0.54108 0.37431 0.93441 0.0
C661 C 0.56318 0.38661 0.97876 0.0
C662 C 0.53413 0.35338 0.9059 0.0
C663 C 0.56145 0.31939 0.86047 0.0
H664 H 0.49233 0.27478 0.81936 0.0
C665 C 0.51964 0.22831 0.7468 0.0
C666 C 0.50011 0.22113 0.69271 0.0
C667 C 0.53107 0.24956 0.77968 0.0
C668 C 0.5117 0.28718 0.83029 0.0
H669 H 0.59472 0.3865 0.03176 0.0
H670 H 0.58219 0.34952 0.98358 0.0
H671 H 0.50314 0.30831 0.89102 0.0
H672 H 0.47939 0.23133 0.62478 0.0
H673 H 0.49918 0.2682 0.68276 0.0
H674 H 0.56976 0.29769 0.80042 0.0
C675 C 0.57055 0.35623 0.9693 0.0
C676 C 0.5179 0.30636 0.8712 0.0
C677 C 0.57759 0.37728 -0.00258 0.0
C678 C 0.49409 0.23621 0.66705 0.0
C679 C 0.50534 0.2573 0.70023 0.0
C680 C 0.55521 0.29996 0.82027 0.0
C681 C 0.54906 0.34426 0.9218 0.0
C682 C 0.5428 0.32291 0.88544 0.0
C683 C 0.52301 0.26376 0.7589 0.0
C684 C 0.53025 0.28398 0.80362 0.0
H685 H 0.52972 0.38122 0.91897 0.0
H686 H 0.51764 0.34478 0.86878 0.0
H687 H 0.5808 0.33191 0.86985 0.0
H688 H 0.52483 0.21712 0.76746 0.0
H689 H 0.54479 0.25432 0.82475 0.0
C690 C 0.8542 0.09348 0.83597 0.0
C691 C 0.85339 0.10213 0.77175 0.0
C692 C 0.83251 0.08121 0.86849 0.0
C693 C 0.76418 0.0496 0.83197 0.0
H694 H 0.76481 0.06031 0.03547 0.0
C695 C 0.67546 0.02473 0.96798 0.0
C696 C 0.6735 0.01724 0.03557 0.0
C697 C 0.69746 0.03233 0.93591 0.0
C698 C 0.76441 0.05683 0.97882 0.0
H699 H 0.82943 0.10481 0.69097 0.0
H700 H 0.79148 0.08353 0.74794 0.0
H701 H 0.80324 0.0794 0.97912 0.0
H702 H 0.69265 0.01115 0.12206 0.0
H703 H 0.73152 0.02461 0.06579 0.0
H704 H 0.72529 0.02734 0.83143 0.0
C705 C 0.80881 0.08596 0.77282 0.0
C706 C 0.78643 0.06781 0.94645 0.0
C707 C 0.83053 0.09826 0.74039 0.0
C708 C 0.69378 0.01693 0.06996 0.0
C709 C 0.71599 0.02472 0.03792 0.0
C710 C 0.7422 0.03863 0.8643 0.0
C711 C 0.80954 0.07731 0.83733 0.0
C712 C 0.78649 0.0646 0.87245 0.0
C713 C 0.71811 0.03269 0.97074 0.0
C714 C 0.74196 0.04241 0.9379 0.0
H715 H 0.87163 0.09621 0.86123 0.0
H716 H 0.83371 0.07462 0.91771 0.0
H717 H 0.76368 0.04641 0.7751 0.0
H718 H 0.66004 0.02501 0.94005 0.0
H719 H 0.6985 0.03859 0.88465 0.0
C720 C 0.69234 0.94123 0.12068 0.0
C721 C 0.68066 0.94488 0.17664 0.0
C722 C 0.70766 0.93238 0.13243 0.0
C723 C 0.72142 0.90179 0.26389 0.0
H724 H 0.77466 0.91286 0.14682 0.0
C725 C 0.76408 0.84701 0.25849 0.0
C726 C 0.78919 0.8557 0.24803 0.0
C727 C 0.75279 0.85955 0.25243 0.0
C728 C 0.76014 0.90981 0.18087 0.0
H729 H 0.67665 0.94324 0.28925 0.0
H730 H 0.70435 0.929 0.31097 0.0
H731 H 0.75257 0.93267 0.13348 0.0
H732 H 0.82219 0.88426 0.22188 0.0
H733 H 0.80284 0.90677 0.21507 0.0
H734 H 0.72967 0.87978 0.31372 0.0
C735 C 0.70097 0.93194 0.25718 0.0
C736 C 0.74711 0.92093 0.17233 0.0
C737 C 0.6852 0.94028 0.24499 0.0
C738 C 0.80289 0.87728 0.23137 0.0
C739 C 0.79166 0.89005 0.22654 0.0
C740 C 0.73472 0.89103 0.27335 0.0
C741 C 0.71208 0.92744 0.20084 0.0
C742 C 0.72724 0.9168 0.21288 0.0
C743 C 0.7664 0.88132 0.23702 0.0
C744 C 0.7539 0.89446 0.23091 0.0
H745 H 0.68906 0.94462 0.06738 0.0
H746 H 0.71544 0.92888 0.0873 0.0
H747 H 0.70611 0.8978 0.29566 0.0
H748 H 0.75295 0.83033 0.27061 0.0
H749 H 0.73319 0.85192 0.25879 0.0
C750 C 0.23162 0.73074 0.15854 0.0
C751 C 0.22774 0.74208 0.21464 0.0
C752 C 0.21584 0.70844 0.14318 0.0
C753 C 0.15348 0.66435 0.15517 0.0
H754 H 0.18293 0.62804 0.12869 0.0
C755 C 0.09599 0.57031 0.10005 0.0
C756 C 0.10516 0.56063 0.05334 0.0
C757 C 0.10979 0.59263 0.12105 0.0
C758 C 0.17441 0.63798 0.13495 0.0
H759 H 0.20432 0.73936 0.29822 0.0
H760 H 0.17623 0.70001 0.27043 0.0
H761 H 0.20941 0.66669 0.16573 0.0
H762 H 0.13502 0.5665 0.98871 0.0
H763 H 0.15876 0.60552 0.02337 0.0
H764 H 0.11848 0.63571 0.12248 0.0
C765 C 0.19162 0.70847 0.23887 0.0
C766 C 0.18957 0.66005 0.15662 0.0
C767 C 0.20768 0.73085 0.25491 0.0
C768 C 0.12769 0.57362 0.02533 0.0
C769 C 0.14136 0.5959 0.0457 0.0
C770 C 0.13825 0.64222 0.13277 0.0
C771 C 0.19573 0.69711 0.18315 0.0
C772 C 0.17928 0.67347 0.16599 0.0
C773 C 0.13288 0.60557 0.09518 0.0
C774 C 0.14863 0.62888 0.12143 0.0
H775 H 0.24694 0.7391 0.12663 0.0
H776 H 0.2192 0.70005 0.09945 0.0
H777 H 0.14518 0.67447 0.16168 0.0
H778 H 0.07862 0.56054 0.12239 0.0
H779 H 0.10281 0.59956 0.15948 0.0
C780 C 0.52629 0.4755 0.10547 0.0
C781 C 0.53913 0.46567 0.07812 0.0
C782 C 0.50145 0.46293 0.11806 0.0
C783 C 0.44474 0.41034 0.06667 0.0
H784 H 0.42332 0.42525 0.23871 0.0
C785 C 0.34254 0.36269 0.13626 0.0
C786 C 0.33303 0.37538 0.16454 0.0
C787 C 0.3679 0.37213 0.12796 0.0
C788 C 0.42891 0.42097 0.19008 0.0
H789 H 0.53611 0.43499 0.04236 0.0
H790 H 0.49236 0.41281 0.06379 0.0
H791 H 0.46711 0.44446 0.2198 0.0
H792 H 0.34245 0.40779 0.20632 0.0
H793 H 0.38643 0.42433 0.19102 0.0
H794 H 0.40639 0.38713 0.03632 0.0
C795 C 0.50157 0.43031 0.07532 0.0
C796 C 0.45405 0.43197 0.17932 0.0
C797 C 0.5266 0.44296 0.0632 0.0
C798 C 0.34928 0.3976 0.18455 0.0
C799 C 0.37454 0.40704 0.17624 0.0
C800 C 0.4195 0.39936 0.07732 0.0
C801 C 0.48876 0.44018 0.10332 0.0
C802 C 0.46225 0.42707 0.11696 0.0
C803 C 0.38423 0.39445 0.14791 0.0
C804 C 0.41121 0.40482 0.13864 0.0
H805 H 0.53546 0.49299 0.11734 0.0
H806 H 0.49207 0.47109 0.13857 0.0
H807 H 0.45044 0.40628 0.01786 0.0
H808 H 0.33041 0.34548 0.1205 0.0
H809 H 0.37473 0.36191 0.1066 0.0
C810 C 0.90734 0.70495 0.60828 0.0
C811 C 0.93184 0.70906 0.6166 0.0
C812 C 0.90215 0.72019 0.58094 0.0
C813 C 0.92771 0.77748 0.55478 0.0
H814 H 0.87851 0.75602 0.39183 0.0
C815 C 0.90746 0.83538 0.39844 0.0
C816 C 0.88289 0.82753 0.37075 0.0
C817 C 0.91436 0.82141 0.42824 0.0
C818 C 0.892 0.7623 0.43798 0.0
H819 H 0.9702 0.73279 0.60554 0.0
H820 H 0.96107 0.7597 0.55934 0.0
H821 H 0.88837 0.73109 0.44833 0.0
H822 H 0.84627 0.79924 0.35418 0.0
H823 H 0.8577 0.77503 0.40793 0.0
H824 H 0.93085 0.80853 0.54625 0.0
C825 C 0.94595 0.74455 0.57343 0.0
C826 C 0.89771 0.74798 0.47008 0.0
C827 C 0.95113 0.72913 0.59965 0.0
C828 C 0.86534 0.80559 0.37384 0.0
C829 C 0.87204 0.7917 0.40458 0.0
C830 C 0.9217 0.79178 0.52342 0.0
C831 C 0.92136 0.74001 0.56247 0.0
C832 C 0.91555 0.7554 0.52884 0.0
C833 C 0.89668 0.79936 0.432 0.0
C834 C 0.90368 0.78436 0.46466 0.0
H835 H 0.89203 0.68962 0.62044 0.0
H836 H 0.88305 0.71639 0.57348 0.0
H837 H 0.94148 0.78356 0.60029 0.0
H838 H 0.9214 0.8523 0.39669 0.0
H839 H 0.93358 0.82789 0.44773 0.0
C840 C 0.37129 0.08229 0.56808 0.0
C841 C 0.3907 0.0894 0.62253 0.0
C842 C 0.35999 0.0611 0.53471 0.0
C843 C 0.37923 0.02309 0.48517 0.0
H844 H 0.30994 0.97936 0.44069 0.0
C845 C 0.34855 0.93596 0.376 0.0
C846 C 0.32672 0.92426 0.33012 0.0
C847 C 0.35576 0.95682 0.40599 0.0
C848 C 0.32936 0.9916 0.45148 0.0
H849 H 0.41139 0.07914 0.69031 0.0
H850 H 0.3918 0.04238 0.63156 0.0
H851 H 0.32122 0.0135 0.51099 0.0
H852 H 0.29599 0.92539 0.27605 0.0
H853 H 0.30902 0.96225 0.32676 0.0
H854 H 0.38763 0.00176 0.42488 0.0
C855 C 0.38565 0.05328 0.61416 0.0
C856 C 0.33574 0.01098 0.49218 0.0
C857 C 0.39677 0.07431 0.64783 0.0
C858 C 0.31289 0.93414 0.31155 0.0
C859 C 0.32021 0.95512 0.34113 0.0
C860 C 0.3729 0.00394 0.44377 0.0
C861 C 0.36806 0.04688 0.55529 0.0
C862 C 0.36074 0.02663 0.5105 0.0
C863 C 0.3414 0.96647 0.39007 0.0
C864 C 0.34792 0.98776 0.42764 0.0
H865 H 0.36607 0.09348 0.54765 0.0
H866 H 0.34634 0.0564 0.48951 0.0
H867 H 0.39866 0.03522 0.49732 0.0
H868 H 0.35944 0.92862 0.39141 0.0
H869 H 0.372 0.96494 0.44416 0.0
C870 C 0.05922 0.20986 0.58482 0.0
C871 C 0.03592 0.20529 0.55461 0.0
C872 C 0.08025 0.22089 0.54817 0.0
C873 C 0.09896 0.23287 0.36733 0.0
H874 H 0.16123 0.27846 0.46522 0.0
C875 C 0.19228 0.26808 0.24323 0.0
C876 C 0.20874 0.29058 0.25574 0.0
C877 C 0.17049 0.25823 0.27706 0.0
C878 C 0.14391 0.26589 0.43701 0.0
H879 H 1.01622 0.20868 0.46288 0.0
H880 H 0.05284 0.22791 0.39908 0.0
H881 H 0.12483 0.26026 0.53102 0.0
H882 H 0.21499 0.3206 0.31138 0.0
H883 H 0.17686 0.3034 0.37049 0.0
H884 H 0.11799 0.23852 0.27331 0.0
C885 C 0.05493 0.22288 0.45068 0.0
C886 C 0.12315 0.2553 0.47488 0.0
C887 C 0.03399 0.21199 0.48741 0.0
C888 C 0.20266 0.30319 0.30094 0.0
C889 C 0.18093 0.29333 0.33516 0.0
C890 C 0.11975 0.24336 0.32959 0.0
C891 C 0.0783 0.22741 0.48045 0.0
C892 C 0.10044 0.23867 0.44047 0.0
C893 C 0.16477 0.27069 0.32437 0.0
C894 C 0.14247 0.25997 0.36398 0.0
H895 H 0.06116 0.20481 0.63652 0.0
H896 H 0.09797 0.22396 0.57224 0.0
H897 H 0.08179 0.22 0.33939 0.0
H898 H 0.19654 0.25799 0.20863 0.0
H899 H 0.15852 0.24075 0.26799 0.0
C900 C 0.37756 0.18313 0.47912 0.0
C901 C 0.39149 0.19153 0.54545 0.0
C902 C 0.36939 0.19525 0.44257 0.0
C903 C 0.36057 0.24311 0.46783 0.0
H904 H 0.3588 0.24017 0.2622 0.0
C905 C 0.34217 0.30057 0.30752 0.0
C906 C 0.32223 0.28976 0.25451 0.0
C907 C 0.35261 0.28938 0.33913 0.0
C908 C 0.35922 0.24111 0.31962 0.0
H909 H 0.40794 0.21905 0.62583 0.0
H910 H 0.39448 0.24051 0.56146 0.0
H911 H 0.3724 0.21871 0.32696 0.0
H912 H 0.29844 0.25929 0.18991 0.0
H913 H 0.31709 0.23982 0.24416 0.0
H914 H 0.34786 0.26586 0.46019 0.0
C915 C 0.38914 0.22436 0.53814 0.0
C916 C 0.3668 0.2287 0.35679 0.0
C917 C 0.39696 0.21211 0.57504 0.0
C918 C 0.31382 0.26796 0.23072 0.0
C919 C 0.3245 0.25686 0.26159 0.0
C920 C 0.35337 0.25574 0.43074 0.0
C921 C 0.37534 0.21615 0.47123 0.0
C922 C 0.36743 0.22944 0.43142 0.0
C923 C 0.34351 0.2673 0.31742 0.0
C924 C 0.35251 0.25477 0.35633 0.0
H925 H 0.37312 0.16727 0.45525 0.0
H926 H 0.35841 0.18819 0.3919 0.0
H927 H 0.36032 0.24382 0.52503 0.0
H928 H 0.34895 0.31738 0.32681 0.0
H929 H 0.36741 0.29782 0.38168 0.0
C930 C 0.91076 0.94722 0.32911 0.0
C931 C 0.8859 0.93278 0.33912 0.0
C932 C 0.92156 0.96938 0.35117 0.0
C933 C 0.90607 0.0116 0.40532 0.0
H934 H 0.96917 0.03897 0.52149 0.0
C935 C 0.93471 0.07934 0.62518 0.0
C936 C 0.95157 0.09987 0.60469 0.0
C937 C 0.93136 0.06049 0.58806 0.0
C938 C 0.95177 0.03157 0.48814 0.0
H939 H 0.85255 0.92999 0.37764 0.0
H940 H 0.87134 0.96853 0.41669 0.0
H941 H 0.95299 0.00266 0.45895 0.0
H942 H 0.97956 0.11677 0.53273 0.0
H943 H 0.97369 0.08343 0.4681 0.0
H944 H 0.90426 0.04001 0.43794 0.0
C945 C 0.8825 0.96293 0.3912 0.0
C946 C 0.94253 0.01091 0.45224 0.0
C947 C 0.87176 0.94084 0.36932 0.0
C948 C 0.96644 0.10119 0.54985 0.0
C949 C 0.96312 0.08221 0.5128 0.0
C950 C 0.91521 0.03211 0.44145 0.0
C951 C 0.9076 0.9774 0.38321 0.0
C952 C 0.91923 0.00048 0.41214 0.0
C953 C 0.94497 0.06183 0.5304 0.0
C954 C 0.93778 0.04194 0.48431 0.0
H955 H 0.922 0.94132 0.30576 0.0
H956 H 0.94087 0.98018 0.34381 0.0
H957 H 0.8883 0.00415 0.37383 0.0
H958 H 0.92312 0.07773 0.66753 0.0
H959 H 0.91731 0.04481 0.60227 0.0
C960 C 0.05813 0.72799 0.60349 0.0
C961 C 0.03945 0.70859 0.56579 0.0
C962 C 0.08073 0.74053 0.57536 0.0
C963 C 0.12098 0.73807 0.44244 0.0
H964 H 0.15176 0.80088 0.46797 0.0
C965 C 0.21 0.79714 0.31218 0.0
C966 C 0.22755 0.81585 0.35565 0.0
C967 C 0.18675 0.78321 0.33525 0.0
C968 C 0.14354 0.78336 0.46089 0.0
H969 H 0.02964 0.68703 0.46922 0.0
H970 H 0.06902 0.70905 0.41952 0.0
H971 H 0.11186 0.77838 0.51278 0.0
H972 H 0.23483 0.83444 0.45763 0.0
H973 H 0.19457 0.8103 0.49776 0.0
H974 H 0.15284 0.74321 0.3903 0.0
C975 C 0.06639 0.71447 0.47125 0.0
C976 C 0.12064 0.77044 0.48673 0.0
C977 C 0.04378 0.70191 0.49949 0.0
C978 C 0.2216 0.82022 0.42272 0.0
C979 C 0.19846 0.80643 0.44558 0.0
C980 C 0.14394 0.75104 0.41637 0.0
C981 C 0.08515 0.734 0.50874 0.0
C982 C 0.10916 0.74763 0.47863 0.0
C983 C 0.18061 0.78788 0.40193 0.0
C984 C 0.15563 0.77386 0.4261 0.0
H985 H 0.05532 0.73347 0.65487 0.0
H986 H 0.09486 0.75527 0.6063 0.0
H987 H 0.1128 0.72056 0.43577 0.0
H988 H 0.21406 0.79349 0.25998 0.0
H989 H 0.17337 0.76911 0.3002 0.0
loop_
_geom_bond_atom_site_label_1
_geom_bond_atom_site_label_2
_geom_bond_distance
_geom_bond_site_symmetry_2
_ccdc_geom_bond_type
Tb0 O3 2.453 1_455 S
Tb0 O4 2.596 . S
Tb0 O5 2.374 1_554 S
Tb0 O13 2.343 . S
Tb0 O15 2.353 . S
Tb0 O17 2.427 1_455 S
Tb0 O18 2.513 1_554 S
C1 O5 1.251 . S
C1 O7 1.263 . S
Tb2 O4 2.343 . S
Tb2 O7 2.353 1_554 S
Tb2 O10 2.427 . S
Tb2 O11 2.513 . S
Tb2 O12 2.453 . S
Tb2 O13 2.596 . S
Tb2 O14 2.374 . S
O3 Tb0 2.453 1_655 S
O3 C19 1.245 1_655 S
O4 Tb0 2.596 . S
O4 Tb2 2.343 . S
O4 C19 1.259 . S
O5 Tb0 2.374 1_556 S
O5 C1 1.251 . S
C6 O10 1.275 . S
C6 O11 1.246 . S
O7 C1 1.263 . S
O7 Tb2 2.353 1_556 S
C8 O12 1.245 . S
C8 O13 1.259 . S
C9 O14 1.250 . S
C9 O15 1.263 . S
O10 Tb2 2.427 . S
O10 C6 1.275 . S
O11 Tb2 2.513 . S
O11 C6 1.246 . S
O12 Tb2 2.453 . S
O12 C8 1.245 . S
O13 Tb0 2.343 . S
O13 Tb2 2.596 . S
O13 C8 1.259 . S
O14 Tb2 2.374 . S
O14 C9 1.250 . S
O15 Tb0 2.353 . S
O15 C9 1.263 . S
C16 O17 1.275 . S
C16 O18 1.246 1_654 S
O17 Tb0 2.427 1_655 S
O17 C16 1.275 . S
O18 Tb0 2.513 1_556 S
O18 C16 1.246 1_456 S
C19 O3 1.245 1_455 S
C19 O4 1.259 . S
Tb20 O23 2.453 . S
Tb20 O24 2.596 . S
Tb20 O25 2.374 . S
Tb20 O33 2.343 . S
Tb20 O35 2.353 1_554 S
Tb20 O37 2.427 . S
Tb20 O38 2.513 . S
C21 O25 1.251 . S
C21 O27 1.263 . S
Tb22 O24 2.343 . S
Tb22 O27 2.353 . S
Tb22 O30 2.427 . S
Tb22 O31 2.513 . S
Tb22 O32 2.453 . S
Tb22 O33 2.596 . S
Tb22 O34 2.374 1_554 S
O23 Tb20 2.453 . S
O23 C39 1.245 . S
O24 Tb20 2.596 . S
O24 Tb22 2.343 . S
O24 C39 1.259 . S
O25 Tb20 2.374 . S
O25 C21 1.251 . S
C26 O30 1.275 . S
C26 O31 1.246 . S
O27 C21 1.263 . S
O27 Tb22 2.353 . S
C28 O32 1.245 . S
C28 O33 1.259 . S
C29 O34 1.250 . S
C29 O35 1.263 . S
O30 Tb22 2.427 . S
O30 C26 1.275 . S
O31 Tb22 2.513 . S
O31 C26 1.246 . S
O32 Tb22 2.453 . S
O32 C28 1.245 . S
O33 Tb20 2.343 . S
O33 Tb22 2.596 . S
O33 C28 1.259 . S
O34 Tb22 2.374 1_556 S
O34 C29 1.250 . S
O35 Tb20 2.353 1_556 S
O35 C29 1.263 . S
C36 O37 1.275 . S
C36 O38 1.246 . S
O37 Tb20 2.427 . S
O37 C36 1.275 . S
O38 Tb20 2.513 . S
O38 C36 1.246 . S
C39 O23 1.245 . S
C39 O24 1.259 . S
Tb40 O43 2.453 . S
Tb40 O44 2.596 . S
Tb40 O45 2.374 . S
Tb40 O53 2.343 . S
Tb40 O55 2.353 . S
Tb40 O57 2.427 . S
Tb40 O58 2.513 . S
C41 O45 1.251 1_556 S
C41 O47 1.263 1_556 S
Tb42 O44 2.343 1_565 S
Tb42 O47 2.353 1_565 S
Tb42 O50 2.427 . S
Tb42 O51 2.513 1_565 S
Tb42 O52 2.453 . S
Tb42 O53 2.596 1_565 S
Tb42 O54 2.374 1_565 S
O43 Tb40 2.453 . S
O43 C59 1.245 . S
O44 Tb40 2.596 . S
O44 Tb42 2.343 1_545 S
O44 C59 1.259 . S
O45 Tb40 2.374 . S
O45 C41 1.251 1_554 S
C46 O50 1.275 . S
C46 O51 1.246 1_565 S
O47 C41 1.263 1_554 S
O47 Tb42 2.353 1_545 S
C48 O52 1.245 1_545 S
C48 O53 1.259 . S
C49 O54 1.250 . S
C49 O55 1.263 . S
O50 Tb42 2.427 . S
O50 C46 1.275 . S
O51 Tb42 2.513 1_545 S
O51 C46 1.246 1_545 S
O52 Tb42 2.453 . S
O52 C48 1.245 1_565 S
O53 Tb40 2.343 . S
O53 Tb42 2.596 1_545 S
O53 C48 1.259 . S
O54 Tb42 2.374 1_545 S
O54 C49 1.250 . S
O55 Tb40 2.353 . S
O55 C49 1.263 . S
C56 O57 1.275 . S
C56 O58 1.246 . S
O57 Tb40 2.427 . S
O57 C56 1.275 . S
O58 Tb40 2.513 . S
O58 C56 1.246 . S
C59 O43 1.245 . S
C59 O44 1.259 . S
Tb60 O63 2.453 . S
Tb60 O64 2.596 . S
Tb60 O65 2.374 . S
Tb60 O73 2.343 . S
Tb60 O75 2.353 . S
Tb60 O77 2.427 . S
Tb60 O78 2.513 . S
C61 O65 1.251 . S
C61 O67 1.263 . S
Tb62 O64 2.343 . S
Tb62 O67 2.353 . S
Tb62 O70 2.427 . S
Tb62 O71 2.513 . S
Tb62 O72 2.453 . S
Tb62 O73 2.596 . S
Tb62 O74 2.374 . S
O63 Tb60 2.453 . S
O63 C79 1.245 . S
O64 Tb60 2.596 . S
O64 Tb62 2.343 . S
O64 C79 1.259 . S
O65 Tb60 2.374 . S
O65 C61 1.251 . S
C66 O70 1.275 . S
C66 O71 1.246 . S
O67 C61 1.263 . S
O67 Tb62 2.353 . S
C68 O72 1.245 . S
C68 O73 1.259 . S
C69 O74 1.250 . S
C69 O75 1.263 . S
O70 Tb62 2.427 . S
O70 C66 1.275 . S
O71 Tb62 2.513 . S
O71 C66 1.246 . S
O72 Tb62 2.453 . S
O72 C68 1.245 . S
O73 Tb60 2.343 . S
O73 Tb62 2.596 . S
O73 C68 1.259 . S
O74 Tb62 2.374 . S
O74 C69 1.250 . S
O75 Tb60 2.353 . S
O75 C69 1.263 . S
C76 O77 1.275 . S
C76 O78 1.246 . S
O77 Tb60 2.427 . S
O77 C76 1.275 . S
O78 Tb60 2.513 . S
O78 C76 1.246 . S
C79 O63 1.245 . S
C79 O64 1.259 . S
Tb80 O83 2.453 . S
Tb80 O84 2.596 . S
Tb80 O85 2.374 . S
Tb80 O93 2.343 . S
Tb80 O95 2.353 . S
Tb80 O97 2.427 . S
Tb80 O98 2.513 . S
C81 O85 1.251 . S
C81 O87 1.263 . S
Tb82 O84 2.343 . S
Tb82 O87 2.353 . S
Tb82 O90 2.427 . S
Tb82 O91 2.513 . S
Tb82 O92 2.453 . S
Tb82 O93 2.596 . S
Tb82 O94 2.374 . S
O83 Tb80 2.453 . S
O83 C99 1.245 . S
O84 Tb80 2.596 . S
O84 Tb82 2.343 . S
O84 C99 1.259 . S
O85 Tb80 2.374 . S
O85 C81 1.251 . S
C86 O90 1.275 . S
C86 O91 1.246 . S
O87 C81 1.263 . S
O87 Tb82 2.353 . S
C88 O92 1.245 . S
C88 O93 1.259 . S
C89 O94 1.250 . S
C89 O95 1.263 . S
O90 Tb82 2.427 . S
O90 C86 1.275 . S
O91 Tb82 2.513 . S
O91 C86 1.246 . S
O92 Tb82 2.453 . S
O92 C88 1.245 . S
O93 Tb80 2.343 . S
O93 Tb82 2.596 . S
O93 C88 1.259 . S
O94 Tb82 2.374 . S
O94 C89 1.250 . S
O95 Tb80 2.353 . S
O95 C89 1.263 . S
C96 O97 1.275 . S
C96 O98 1.246 . S
O97 Tb80 2.427 . S
O97 C96 1.275 . S
O98 Tb80 2.513 . S
O98 C96 1.246 . S
C99 O83 1.245 . S
C99 O84 1.259 . S
Tb100 O103 2.453 . S
Tb100 O104 2.596 . S
Tb100 O105 2.374 . S
Tb100 O113 2.343 . S
Tb100 O115 2.353 . S
Tb100 O117 2.427 . S
Tb100 O118 2.513 . S
C101 O105 1.251 . S
C101 O107 1.263 . S
Tb102 O104 2.343 . S
Tb102 O107 2.353 . S
Tb102 O110 2.427 . S
Tb102 O111 2.513 . S
Tb102 O112 2.453 . S
Tb102 O113 2.596 . S
Tb102 O114 2.374 . S
O103 Tb100 2.453 . S
O103 C119 1.245 . S
O104 Tb100 2.596 . S
O104 Tb102 2.343 . S
O104 C119 1.259 . S
O105 Tb100 2.374 . S
O105 C101 1.251 . S
C106 O110 1.275 . S
C106 O111 1.246 . S
O107 C101 1.263 . S
O107 Tb102 2.353 . S
C108 O112 1.245 . S
C108 O113 1.259 . S
C109 O114 1.250 . S
C109 O115 1.263 . S
O110 Tb102 2.427 . S
O110 C106 1.275 . S
O111 Tb102 2.513 . S
O111 C106 1.246 . S
O112 Tb102 2.453 . S
O112 C108 1.245 . S
O113 Tb100 2.343 . S
O113 Tb102 2.596 . S
O113 C108 1.259 . S
O114 Tb102 2.374 . S
O114 C109 1.250 . S
O115 Tb100 2.353 . S
O115 C109 1.263 . S
C116 O117 1.275 . S
C116 O118 1.246 . S
O117 Tb100 2.427 . S
O117 C116 1.275 . S
O118 Tb100 2.513 . S
O118 C116 1.246 . S
C119 O103 1.245 . S
C119 O104 1.259 . S
Tb120 O123 2.453 . S
Tb120 O124 2.596 . S
Tb120 O125 2.374 . S
Tb120 O133 2.343 . S
Tb120 O135 2.353 . S
Tb120 O137 2.427 . S
Tb120 O138 2.513 . S
C121 O125 1.251 . S
C121 O127 1.263 . S
Tb122 O124 2.343 . S
Tb122 O127 2.353 . S
Tb122 O130 2.427 . S
Tb122 O131 2.513 . S
Tb122 O132 2.453 . S
Tb122 O133 2.596 . S
Tb122 O134 2.374 . S
O123 Tb120 2.453 . S
O123 C139 1.245 . S
O124 Tb120 2.596 . S
O124 Tb122 2.343 . S
O124 C139 1.259 . S
O125 Tb120 2.374 . S
O125 C121 1.251 . S
C126 O130 1.275 . S
C126 O131 1.246 . S
O127 C121 1.263 . S
O127 Tb122 2.353 . S
C128 O132 1.245 . S
C128 O133 1.259 . S
C129 O134 1.250 . S
C129 O135 1.263 . S
O130 Tb122 2.427 . S
O130 C126 1.275 . S
O131 Tb122 2.513 . S
O131 C126 1.246 . S
O132 Tb122 2.453 . S
O132 C128 1.245 . S
O133 Tb120 2.343 . S
O133 Tb122 2.596 . S
O133 C128 1.259 . S
O134 Tb122 2.374 . S
O134 C129 1.250 . S
O135 Tb120 2.353 . S
O135 C129 1.263 . S
C136 O137 1.275 . S
C136 O138 1.246 . S
O137 Tb120 2.427 . S
O137 C136 1.275 . S
O138 Tb120 2.513 . S
O138 C136 1.246 . S
C139 O123 1.245 . S
C139 O124 1.259 . S
Tb140 O143 2.453 . S
Tb140 O144 2.596 . S
Tb140 O145 2.374 . S
Tb140 O153 2.343 . S
Tb140 O155 2.353 . S
Tb140 O157 2.427 . S
Tb140 O158 2.513 . S
C141 O145 1.251 . S
C141 O147 1.263 . S
Tb142 O144 2.343 . S
Tb142 O147 2.353 . S
Tb142 O150 2.427 . S
Tb142 O151 2.513 . S
Tb142 O152 2.453 . S
Tb142 O153 2.596 . S
Tb142 O154 2.374 . S
O143 Tb140 2.453 . S
O143 C159 1.245 . S
O144 Tb140 2.596 . S
O144 Tb142 2.343 . S
O144 C159 1.259 . S
O145 Tb140 2.374 . S
O145 C141 1.251 . S
C146 O150 1.275 . S
C146 O151 1.246 . S
O147 C141 1.263 . S
O147 Tb142 2.353 . S
C148 O152 1.245 . S
C148 O153 1.259 . S
C149 O154 1.250 . S
C149 O155 1.263 . S
O150 Tb142 2.427 . S
O150 C146 1.275 . S
O151 Tb142 2.513 . S
O151 C146 1.246 . S
O152 Tb142 2.453 . S
O152 C148 1.245 . S
O153 Tb140 2.343 . S
O153 Tb142 2.596 . S
O153 C148 1.259 . S
O154 Tb142 2.374 . S
O154 C149 1.250 . S
O155 Tb140 2.353 . S
O155 C149 1.263 . S
C156 O157 1.275 . S
C156 O158 1.246 . S
O157 Tb140 2.427 . S
O157 C156 1.275 . S
O158 Tb140 2.513 . S
O158 C156 1.246 . S
C159 O143 1.245 . S
C159 O144 1.259 . S
Tb160 O163 2.453 . S
Tb160 O164 2.596 . S
Tb160 O165 2.374 . S
Tb160 O173 2.343 . S
Tb160 O175 2.353 . S
Tb160 O177 2.427 . S
Tb160 O178 2.513 . S
C161 O165 1.251 . S
C161 O167 1.263 . S
Tb162 O164 2.343 . S
Tb162 O167 2.353 . S
Tb162 O170 2.427 . S
Tb162 O171 2.513 . S
Tb162 O172 2.453 . S
Tb162 O173 2.596 . S
Tb162 O174 2.374 . S
O163 Tb160 2.453 . S
O163 C179 1.245 . S
O164 Tb160 2.596 . S
O164 Tb162 2.343 . S
O164 C179 1.259 . S
O165 Tb160 2.374 . S
O165 C161 1.251 . S
C166 O170 1.275 . S
C166 O171 1.246 . S
O167 C161 1.263 . S
O167 Tb162 2.353 . S
C168 O172 1.245 . S
C168 O173 1.259 . S
C169 O174 1.250 . S
C169 O175 1.263 . S
O170 Tb162 2.427 . S
O170 C166 1.275 . S
O171 Tb162 2.513 . S
O171 C166 1.246 . S
O172 Tb162 2.453 . S
O172 C168 1.245 . S
O173 Tb160 2.343 . S
O173 Tb162 2.596 . S
O173 C168 1.259 . S
O174 Tb162 2.374 . S
O174 C169 1.250 . S
O175 Tb160 2.353 . S
O175 C169 1.263 . S
C176 O177 1.275 . S
C176 O178 1.246 . S
O177 Tb160 2.427 . S
O177 C176 1.275 . S
O178 Tb160 2.513 . S
O178 C176 1.246 . S
C179 O163 1.245 . S
C179 O164 1.259 . S
C180 C181 1.349 . S
C180 C182 1.327 . S
C180 H205 0.950 . S
C181 C180 1.349 . S
C181 C197 1.349 . S
C182 C180 1.327 . S
C182 C201 1.429 . S
C182 H206 0.950 . S
C183 C200 1.574 . S
C183 C202 1.368 . S
C183 H207 0.949 . S
H184 C188 0.949 . S
C185 C186 1.349 . S
C185 C187 1.327 . S
C185 H208 0.950 1_455 S
C186 C185 1.349 . S
C186 C198 1.349 . S
C187 C185 1.327 . S
C187 C203 1.429 . S
C187 H209 0.950 1_455 S
C188 H184 0.949 . S
C188 C196 1.574 . S
C188 C204 1.368 . S
H189 C197 0.950 . S
H190 C195 0.950 . S
H191 C196 0.949 . S
H192 C198 0.950 . S
H193 C199 0.950 . S
H194 C200 0.944 1_655 S
C195 H190 0.950 . S
C195 C197 1.327 . S
C195 C201 1.429 . S
C196 C188 1.574 . S
C196 H191 0.949 . S
C196 C202 1.368 . S
C197 C181 1.349 . S
C197 H189 0.950 . S
C197 C195 1.327 . S
C198 C186 1.349 . S
C198 H192 0.950 . S
C198 C199 1.327 . S
C199 H193 0.950 . S
C199 C198 1.327 . S
C199 C203 1.429 . S
C200 C183 1.574 . S
C200 H194 0.944 1_455 S
C200 C204 1.368 . S
C201 C182 1.429 . S
C201 C195 1.429 . S
C201 C202 1.523 . S
C202 C183 1.368 . S
C202 C196 1.368 . S
C202 C201 1.523 . S
C203 C187 1.429 . S
C203 C199 1.429 . S
C203 C204 1.523 . S
C204 C188 1.368 . S
C204 C200 1.368 . S
C204 C203 1.523 . S
H205 C180 0.950 . S
H206 C182 0.950 . S
H207 C183 0.949 . S
H208 C185 0.950 1_655 S
H209 C187 0.950 1_655 S
C210 C211 1.349 . S
C210 C212 1.327 . S
C210 H235 0.950 . S
C211 C210 1.349 . S
C211 C227 1.349 . S
C212 C210 1.327 . S
C212 C231 1.429 . S
C212 H236 0.950 . S
C213 C230 1.574 . S
C213 C232 1.368 . S
C213 H237 0.949 . S
H214 C218 0.949 . S
C215 C216 1.349 . S
C215 C217 1.327 . S
C215 H238 0.950 . S
C216 C215 1.349 . S
C216 C228 1.349 . S
C217 C215 1.327 . S
C217 C233 1.429 . S
C217 H239 0.950 . S
C218 H214 0.949 . S
C218 C226 1.574 . S
C218 C234 1.368 . S
H219 C227 0.950 . S
H220 C225 0.950 . S
H221 C226 0.949 . S
H222 C228 0.950 . S
H223 C229 0.950 . S
H224 C230 0.949 . S
C225 H220 0.950 . S
C225 C227 1.327 . S
C225 C231 1.429 . S
C226 C218 1.574 . S
C226 H221 0.949 . S
C226 C232 1.368 . S
C227 C211 1.349 . S
C227 H219 0.950 . S
C227 C225 1.327 . S
C228 C216 1.349 . S
C228 H222 0.950 . S
C228 C229 1.327 . S
C229 H223 0.950 . S
C229 C228 1.327 . S
C229 C233 1.429 . S
C230 C213 1.574 . S
C230 H224 0.949 . S
C230 C234 1.368 . S
C231 C212 1.429 . S
C231 C225 1.429 . S
C231 C232 1.523 . S
C232 C213 1.368 . S
C232 C226 1.368 . S
C232 C231 1.523 . S
C233 C217 1.429 . S
C233 C229 1.429 . S
C233 C234 1.523 . S
C234 C218 1.368 . S
C234 C230 1.368 . S
C234 C233 1.523 . S
H235 C210 0.950 . S
H236 C212 0.950 . S
H237 C213 0.949 . S
H238 C215 0.950 . S
H239 C217 0.950 . S
C240 C241 1.349 . S
C240 C242 1.327 . S
C240 H265 0.950 1_545 S
C241 C240 1.349 . S
C241 C257 1.349 . S
C242 C240 1.327 . S
C242 C261 1.429 . S
C242 H266 0.950 1_545 S
C243 C260 1.574 . S
C243 C262 1.368 . S
C243 H267 0.949 . S
H244 C248 0.949 . S
C245 C246 1.349 . S
C245 C247 1.327 . S
C245 H268 0.950 . S
C246 C245 1.349 . S
C246 C258 1.349 . S
C247 C245 1.327 . S
C247 C263 1.429 . S
C247 H269 0.950 . S
C248 H244 0.949 . S
C248 C256 1.574 . S
C248 C264 1.368 . S
H249 C257 0.950 . S
H250 C255 0.950 . S
H251 C256 0.957 . S
H252 C258 0.950 . S
H253 C259 0.950 . S
H254 C260 0.949 . S
C255 H250 0.950 . S
C255 C257 1.327 . S
C255 C261 1.429 . S
C256 C248 1.574 . S
C256 H251 0.957 . S
C256 C262 1.368 . S
C257 C241 1.349 . S
C257 H249 0.950 . S
C257 C255 1.327 . S
C258 C246 1.349 . S
C258 H252 0.950 . S
C258 C259 1.327 . S
C259 H253 0.950 . S
C259 C258 1.327 . S
C259 C263 1.429 . S
C260 C243 1.574 . S
C260 H254 0.949 . S
C260 C264 1.368 . S
C261 C242 1.429 . S
C261 C255 1.429 . S
C261 C262 1.523 . S
C262 C243 1.368 . S
C262 C256 1.368 . S
C262 C261 1.523 . S
C263 C247 1.429 . S
C263 C259 1.429 . S
C263 C264 1.523 . S
C264 C248 1.368 . S
C264 C260 1.368 . S
C264 C263 1.523 . S
H265 C240 0.950 1_565 S
H266 C242 0.950 1_565 S
H267 C243 0.949 . S
H268 C245 0.950 . S
H269 C247 0.950 . S
C270 C271 1.349 . S
C270 C272 1.327 . S
C270 H295 0.950 . S
C271 C270 1.349 . S
C271 C287 1.349 . S
C272 C270 1.327 . S
C272 C291 1.429 . S
C272 H296 0.950 . S
C273 C290 1.574 . S
C273 C292 1.368 . S
C273 H297 0.949 . S
H274 C278 0.949 . S
C275 C276 1.349 . S
C275 C277 1.327 1_554 S
C275 H298 0.950 . S
C276 C275 1.349 . S
C276 C288 1.349 . S
C277 C275 1.327 1_556 S
C277 C293 1.429 . S
C277 H299 0.950 . S
C278 H274 0.949 . S
C278 C286 1.574 . S
C278 C294 1.368 . S
H279 C287 0.950 . S
H280 C285 0.950 . S
H281 C286 0.949 . S
H282 C288 0.950 . S
H283 C289 0.950 . S
H284 C290 0.949 . S
C285 H280 0.950 . S
C285 C287 1.327 . S
C285 C291 1.429 . S
C286 C278 1.574 . S
C286 H281 0.949 . S
C286 C292 1.368 . S
C287 C271 1.349 . S
C287 H279 0.950 . S
C287 C285 1.327 . S
C288 C276 1.349 . S
C288 H282 0.950 . S
C288 C289 1.327 1_554 S
C289 H283 0.950 . S
C289 C288 1.327 1_556 S
C289 C293 1.429 . S
C290 C273 1.574 . S
C290 H284 0.949 . S
C290 C294 1.368 . S
C291 C272 1.429 . S
C291 C285 1.429 . S
C291 C292 1.523 . S
C292 C273 1.368 . S
C292 C286 1.368 . S
C292 C291 1.523 . S
C293 C277 1.429 . S
C293 C289 1.429 . S
C293 C294 1.523 . S
C294 C278 1.368 . S
C294 C290 1.368 . S
C294 C293 1.523 . S
H295 C270 0.950 . S
H296 C272 0.950 . S
H297 C273 0.949 . S
H298 C275 0.950 . S
H299 C277 0.950 . S
C300 C301 1.349 . S
C300 C302 1.327 . S
C300 H325 0.950 . S
C301 C300 1.349 . S
C301 C317 1.349 . S
C302 C300 1.327 . S
C302 C321 1.429 . S
C302 H326 0.950 . S
C303 C320 1.574 . S
C303 C322 1.368 . S
C303 H327 0.949 . S
H304 C308 0.949 . S
C305 C306 1.349 1_556 S
C305 C307 1.327 . S
C305 H328 0.950 1_556 S
C306 C305 1.349 1_554 S
C306 C318 1.349 1_554 S
C307 C305 1.327 . S
C307 C323 1.429 . S
C307 H329 0.950 . S
C308 H304 0.949 . S
C308 C316 1.574 . S
C308 C324 1.368 . S
H309 C317 0.950 . S
H310 C315 0.950 . S
H311 C316 0.949 . S
H312 C318 0.950 1_554 S
H313 C319 0.950 . S
H314 C320 0.949 . S
C315 H310 0.950 . S
C315 C317 1.327 . S
C315 C321 1.429 . S
C316 C308 1.574 . S
C316 H311 0.949 . S
C316 C322 1.368 . S
C317 C301 1.349 . S
C317 H309 0.950 . S
C317 C315 1.327 . S
C318 C306 1.349 1_556 S
C318 H312 0.950 1_556 S
C318 C319 1.327 . S
C319 H313 0.950 . S
C319 C318 1.327 . S
C319 C323 1.429 . S
C320 C303 1.574 . S
C320 H314 0.949 . S
C320 C324 1.368 . S
C321 C302 1.429 . S
C321 C315 1.429 . S
C321 C322 1.523 . S
C322 C303 1.368 . S
C322 C316 1.368 . S
C322 C321 1.523 . S
C323 C307 1.429 . S
C323 C319 1.429 . S
C323 C324 1.523 . S
C324 C308 1.368 . S
C324 C320 1.368 . S
C324 C323 1.523 . S
H325 C300 0.950 . S
H326 C302 0.950 . S
H327 C303 0.949 . S
H328 C305 0.950 1_554 S
H329 C307 0.950 . S
C330 C331 1.349 . S
C330 C332 1.327 . S
C330 H355 0.950 . S
C331 C330 1.349 . S
C331 C347 1.349 . S
C332 C330 1.327 . S
C332 C351 1.429 . S
C332 H356 0.950 . S
C333 C350 1.574 . S
C333 C352 1.368 . S
C333 H357 0.949 . S
H334 C338 0.949 . S
C335 C336 1.349 . S
C335 C337 1.327 . S
C335 H358 0.950 . S
C336 C335 1.349 . S
C336 C348 1.349 . S
C337 C335 1.327 . S
C337 C353 1.429 . S
C337 H359 0.950 . S
C338 H334 0.949 . S
C338 C346 1.574 . S
C338 C354 1.368 . S
H339 C347 0.950 . S
H340 C345 0.950 . S
H341 C346 0.949 . S
H342 C348 0.950 1_554 S
H343 C349 0.950 . S
H344 C350 0.949 . S
C345 H340 0.950 . S
C345 C347 1.327 . S
C345 C351 1.429 . S
C346 C338 1.574 . S
C346 H341 0.949 . S
C346 C352 1.368 . S
C347 C331 1.349 . S
C347 H339 0.950 . S
C347 C345 1.327 . S
C348 C336 1.349 . S
C348 H342 0.950 1_556 S
C348 C349 1.327 . S
C349 H343 0.950 . S
C349 C348 1.327 . S
C349 C353 1.429 . S
C350 C333 1.574 . S
C350 H344 0.949 . S
C350 C354 1.368 . S
C351 C332 1.429 . S
C351 C345 1.429 . S
C351 C352 1.523 . S
C352 C333 1.368 . S
C352 C346 1.368 . S
C352 C351 1.523 . S
C353 C337 1.429 . S
C353 C349 1.429 . S
C353 C354 1.523 . S
C354 C338 1.368 . S
C354 C350 1.368 . S
C354 C353 1.523 . S
H355 C330 0.950 . S
H356 C332 0.950 . S
H357 C333 0.949 . S
H358 C335 0.950 . S
H359 C337 0.950 . S
C360 C361 1.349 . S
C360 C362 1.327 . S
C360 H385 0.950 . S
C361 C360 1.349 . S
C361 C377 1.349 . S
C362 C360 1.327 . S
C362 C381 1.429 . S
C362 H386 0.950 . S
C363 C380 1.574 . S
C363 C382 1.368 . S
C363 H387 0.949 . S
H364 C368 0.949 . S
C365 C366 1.349 . S
C365 C367 1.327 . S
C365 H388 0.950 . S
C366 C365 1.349 . S
C366 C378 1.349 . S
C367 C365 1.327 . S
C367 C383 1.429 1_556 S
C367 H389 0.950 . S
C368 H364 0.949 . S
C368 C376 1.574 . S
C368 C384 1.368 . S
H369 C377 0.950 . S
H370 C375 0.950 . S
H371 C376 0.949 . S
H372 C378 0.950 . S
H373 C379 0.950 1_554 S
H374 C380 0.949 . S
C375 H370 0.950 . S
C375 C377 1.327 . S
C375 C381 1.429 . S
C376 C368 1.574 . S
C376 H371 0.949 . S
C376 C382 1.368 . S
C377 C361 1.349 . S
C377 H369 0.950 . S
C377 C375 1.327 . S
C378 C366 1.349 . S
C378 H372 0.950 . S
C378 C379 1.327 . S
C379 H373 0.950 1_556 S
C379 C378 1.327 . S
C379 C383 1.429 1_556 S
C380 C363 1.574 . S
C380 H374 0.949 . S
C380 C384 1.368 . S
C381 C362 1.429 . S
C381 C375 1.429 . S
C381 C382 1.523 . S
C382 C363 1.368 . S
C382 C376 1.368 . S
C382 C381 1.523 . S
C383 C367 1.429 1_554 S
C383 C379 1.429 1_554 S
C383 C384 1.523 . S
C384 C368 1.368 . S
C384 C380 1.368 . S
C384 C383 1.523 . S
H385 C360 0.950 . S
H386 C362 0.950 . S
H387 C363 0.949 . S
H388 C365 0.950 . S
H389 C367 0.950 . S
C390 C391 1.349 . S
C390 C392 1.327 . S
C390 H415 0.950 . S
C391 C390 1.349 . S
C391 C407 1.349 . S
C392 C390 1.327 . S
C392 C411 1.429 . S
C392 H416 0.950 . S
C393 C410 1.574 . S
C393 C412 1.368 . S
C393 H417 0.949 . S
H394 C398 0.949 . S
C395 C396 1.349 . S
C395 C397 1.327 . S
C395 H418 0.950 . S
C396 C395 1.349 . S
C396 C408 1.349 . S
C397 C395 1.327 . S
C397 C413 1.429 1_556 S
C397 H419 0.950 . S
C398 H394 0.949 . S
C398 C406 1.574 . S
C398 C414 1.368 . S
H399 C407 0.950 . S
H400 C405 0.950 . S
H401 C406 0.949 . S
H402 C408 0.950 . S
H403 C409 0.950 1_554 S
H404 C410 0.949 . S
C405 H400 0.950 . S
C405 C407 1.327 . S
C405 C411 1.429 . S
C406 C398 1.574 . S
C406 H401 0.949 . S
C406 C412 1.368 . S
C407 C391 1.349 . S
C407 H399 0.950 . S
C407 C405 1.327 . S
C408 C396 1.349 . S
C408 H402 0.950 . S
C408 C409 1.327 . S
C409 H403 0.950 1_556 S
C409 C408 1.327 . S
C409 C413 1.429 1_556 S
C410 C393 1.574 . S
C410 H404 0.949 . S
C410 C414 1.368 . S
C411 C392 1.429 . S
C411 C405 1.429 . S
C411 C412 1.523 . S
C412 C393 1.368 . S
C412 C406 1.368 . S
C412 C411 1.523 . S
C413 C397 1.429 1_554 S
C413 C409 1.429 1_554 S
C413 C414 1.523 . S
C414 C398 1.368 . S
C414 C410 1.368 . S
C414 C413 1.523 . S
H415 C390 0.950 . S
H416 C392 0.950 . S
H417 C393 0.949 . S
H418 C395 0.950 . S
H419 C397 0.950 . S
C420 C421 1.349 . S
C420 C422 1.327 . S
C420 H445 0.950 . S
C421 C420 1.349 . S
C421 C437 1.349 . S
C422 C420 1.327 . S
C422 C441 1.429 . S
C422 H446 0.950 . S
C423 C440 1.574 . S
C423 C442 1.368 . S
C423 H447 0.949 . S
H424 C428 0.949 . S
C425 C426 1.349 . S
C425 C427 1.327 . S
C425 H448 0.950 . S
C426 C425 1.349 . S
C426 C438 1.349 . S
C427 C425 1.327 . S
C427 C443 1.429 1_556 S
C427 H449 0.950 1_556 S
C428 H424 0.949 . S
C428 C436 1.574 . S
C428 C444 1.368 . S
H429 C437 0.950 . S
H430 C435 0.950 . S
H431 C436 0.949 . S
H432 C438 0.950 . S
H433 C439 0.950 . S
H434 C440 0.949 . S
C435 H430 0.950 . S
C435 C437 1.327 . S
C435 C441 1.429 . S
C436 C428 1.574 . S
C436 H431 0.949 . S
C436 C442 1.368 . S
C437 C421 1.349 . S
C437 H429 0.950 . S
C437 C435 1.327 . S
C438 C426 1.349 . S
C438 H432 0.950 . S
C438 C439 1.327 . S
C439 H433 0.950 . S
C439 C438 1.327 . S
C439 C443 1.429 1_556 S
C440 C423 1.574 . S
C440 H434 0.949 . S
C440 C444 1.368 . S
C441 C422 1.429 . S
C441 C435 1.429 . S
C441 C442 1.523 . S
C442 C423 1.368 . S
C442 C436 1.368 . S
C442 C441 1.523 . S
C443 C427 1.429 1_554 S
C443 C439 1.429 1_554 S
C443 C444 1.523 . S
C444 C428 1.368 . S
C444 C440 1.368 . S
C444 C443 1.523 . S
H445 C420 0.950 . S
H446 C422 0.950 . S
H447 C423 0.949 . S
H448 C425 0.950 . S
H449 C427 0.950 1_554 S
C450 C451 1.349 . S
C450 C452 1.327 . S
C450 H475 0.950 . S
C451 C450 1.349 . S
C451 C467 1.349 . S
C452 C450 1.327 . S
C452 C471 1.429 . S
C452 H476 0.950 . S
C453 C470 1.574 . S
C453 C472 1.368 . S
C453 H477 0.949 . S
H454 C458 0.949 . S
C455 C456 1.349 . S
C455 C457 1.327 . S
C455 H478 0.950 . S
C456 C455 1.349 . S
C456 C468 1.349 . S
C457 C455 1.327 . S
C457 C473 1.429 . S
C457 H479 0.950 . S
C458 H454 0.949 . S
C458 C466 1.574 . S
C458 C474 1.368 . S
H459 C467 0.950 . S
H460 C465 0.950 . S
H461 C466 0.949 . S
H462 C468 0.950 . S
H463 C469 0.950 . S
H464 C470 0.949 . S
C465 H460 0.950 . S
C465 C467 1.327 . S
C465 C471 1.429 . S
C466 C458 1.574 . S
C466 H461 0.949 . S
C466 C472 1.368 . S
C467 C451 1.349 . S
C467 H459 0.950 . S
C467 C465 1.327 . S
C468 C456 1.349 . S
C468 H462 0.950 . S
C468 C469 1.327 . S
C469 H463 0.950 . S
C469 C468 1.327 . S
C469 C473 1.429 . S
C470 C453 1.574 . S
C470 H464 0.949 . S
C470 C474 1.368 . S
C471 C452 1.429 . S
C471 C465 1.429 . S
C471 C472 1.523 . S
C472 C453 1.368 . S
C472 C466 1.368 . S
C472 C471 1.523 . S
C473 C457 1.429 . S
C473 C469 1.429 . S
C473 C474 1.523 . S
C474 C458 1.368 . S
C474 C470 1.368 . S
C474 C473 1.523 . S
H475 C450 0.950 . S
H476 C452 0.950 . S
H477 C453 0.949 . S
H478 C455 0.950 . S
H479 C457 0.950 . S
C480 C481 1.349 . S
C480 C482 1.327 . S
C480 H505 0.950 . S
C481 C480 1.349 . S
C481 C497 1.349 . S
C482 C480 1.327 . S
C482 C501 1.429 . S
C482 H506 0.950 . S
C483 C500 1.574 . S
C483 C502 1.368 . S
C483 H507 0.949 . S
H484 C488 0.949 . S
C485 C486 1.349 . S
C485 C487 1.327 . S
C485 H508 0.950 . S
C486 C485 1.349 . S
C486 C498 1.349 . S
C487 C485 1.327 . S
C487 C503 1.429 . S
C487 H509 0.950 . S
C488 H484 0.949 . S
C488 C496 1.574 . S
C488 C504 1.368 . S
H489 C497 0.950 . S
H490 C495 0.950 . S
H491 C496 0.949 . S
H492 C498 0.950 . S
H493 C499 0.950 . S
H494 C500 0.949 . S
C495 H490 0.950 . S
C495 C497 1.327 . S
C495 C501 1.429 . S
C496 C488 1.574 . S
C496 H491 0.949 . S
C496 C502 1.368 . S
C497 C481 1.349 . S
C497 H489 0.950 . S
C497 C495 1.327 . S
C498 C486 1.349 . S
C498 H492 0.950 . S
C498 C499 1.327 . S
C499 H493 0.950 . S
C499 C498 1.327 . S
C499 C503 1.429 . S
C500 C483 1.574 . S
C500 H494 0.949 . S
C500 C504 1.368 . S
C501 C482 1.429 . S
C501 C495 1.429 . S
C501 C502 1.523 . S
C502 C483 1.368 . S
C502 C496 1.368 . S
C502 C501 1.523 . S
C503 C487 1.429 . S
C503 C499 1.429 . S
C503 C504 1.523 . S
C504 C488 1.368 . S
C504 C500 1.368 . S
C504 C503 1.523 . S
H505 C480 0.950 . S
H506 C482 0.950 . S
H507 C483 0.949 . S
H508 C485 0.950 . S
H509 C487 0.950 . S
C510 C511 1.349 . S
C510 C512 1.327 . S
C510 H535 0.950 . S
C511 C510 1.349 . S
C511 C527 1.349 . S
C512 C510 1.327 . S
C512 C531 1.429 . S
C512 H536 0.950 . S
C513 C530 1.574 . S
C513 C532 1.368 . S
C513 H537 0.949 . S
H514 C518 0.949 . S
C515 C516 1.349 . S
C515 C517 1.327 . S
C515 H538 0.950 . S
C516 C515 1.349 . S
C516 C528 1.349 . S
C517 C515 1.327 . S
C517 C533 1.429 . S
C517 H539 0.950 . S
C518 H514 0.949 . S
C518 C526 1.574 . S
C518 C534 1.368 . S
H519 C527 0.950 1_545 S
H520 C525 0.950 . S
H521 C526 0.949 . S
H522 C528 0.950 . S
H523 C529 0.950 . S
H524 C530 0.949 . S
C525 H520 0.950 . S
C525 C527 1.327 . S
C525 C531 1.429 . S
C526 C518 1.574 . S
C526 H521 0.949 . S
C526 C532 1.368 . S
C527 C511 1.349 . S
C527 H519 0.950 1_565 S
C527 C525 1.327 . S
C528 C516 1.349 . S
C528 H522 0.950 . S
C528 C529 1.327 . S
C529 H523 0.950 . S
C529 C528 1.327 . S
C529 C533 1.429 . S
C530 C513 1.574 . S
C530 H524 0.949 . S
C530 C534 1.368 . S
C531 C512 1.429 . S
C531 C525 1.429 . S
C531 C532 1.523 . S
C532 C513 1.368 . S
C532 C526 1.368 . S
C532 C531 1.523 . S
C533 C517 1.429 . S
C533 C529 1.429 . S
C533 C534 1.523 . S
C534 C518 1.368 . S
C534 C530 1.368 . S
C534 C533 1.523 . S
H535 C510 0.950 . S
H536 C512 0.950 . S
H537 C513 0.949 . S
H538 C515 0.950 . S
H539 C517 0.950 . S
C540 C541 1.349 . S
C540 C542 1.327 . S
C540 H565 0.950 . S
C541 C540 1.349 . S
C541 C557 1.349 . S
C542 C540 1.327 . S
C542 C561 1.429 . S
C542 H566 0.950 . S
C543 C560 1.574 . S
C543 C562 1.372 . S
C543 H567 0.949 . S
H544 C548 0.949 . S
C545 C546 1.349 . S
C545 C547 1.327 . S
C545 H568 0.950 . S
C546 C545 1.349 . S
C546 C558 1.349 . S
C547 C545 1.327 . S
C547 C563 1.429 . S
C547 H569 0.950 . S
C548 H544 0.949 . S
C548 C556 1.574 1_556 S
C548 C564 1.368 . S
H549 C557 0.950 . S
H550 C555 0.950 . S
H551 C556 0.949 . S
H552 C558 0.950 . S
H553 C559 0.950 . S
H554 C560 0.949 . S
C555 H550 0.950 . S
C555 C557 1.327 . S
C555 C561 1.429 . S
C556 C548 1.574 1_554 S
C556 H551 0.949 . S
C556 C562 1.369 1_554 S
C557 C541 1.349 . S
C557 H549 0.950 . S
C557 C555 1.327 . S
C558 C546 1.349 . S
C558 H552 0.950 . S
C558 C559 1.327 . S
C559 H553 0.950 . S
C559 C558 1.327 . S
C559 C563 1.429 . S
C560 C543 1.574 . S
C560 H554 0.949 . S
C560 C564 1.368 . S
C561 C542 1.429 . S
C561 C555 1.429 . S
C561 C562 1.518 1_554 S
C562 C543 1.372 . S
C562 C556 1.369 1_556 S
C562 C561 1.518 1_556 S
C563 C547 1.429 . S
C563 C559 1.429 . S
C563 C564 1.523 . S
C564 C548 1.368 . S
C564 C560 1.368 . S
C564 C563 1.523 . S
H565 C540 0.950 . S
H566 C542 0.950 . S
H567 C543 0.949 . S
H568 C545 0.950 . S
H569 C547 0.950 . S
C570 C571 1.349 . S
C570 C572 1.327 . S
C570 H595 0.950 . S
C571 C570 1.349 . S
C571 C587 1.349 . S
C572 C570 1.327 . S
C572 C591 1.429 . S
C572 H596 0.950 . S
C573 C590 1.574 . S
C573 C592 1.368 . S
C573 H597 0.949 . S
H574 C578 0.949 . S
C575 C576 1.349 . S
C575 C577 1.327 . S
C575 H598 0.950 . S
C576 C575 1.349 . S
C576 C588 1.349 1_554 S
C577 C575 1.327 . S
C577 C593 1.429 1_554 S
C577 H599 0.950 . S
C578 H574 0.949 . S
C578 C586 1.574 . S
C578 C594 1.368 . S
H579 C587 0.950 . S
H580 C585 0.950 . S
H581 C586 0.949 . S
H582 C588 0.950 . S
H583 C589 0.950 . S
H584 C590 0.949 1_554 S
C585 H580 0.950 . S
C585 C587 1.327 . S
C585 C591 1.429 . S
C586 C578 1.574 . S
C586 H581 0.949 . S
C586 C592 1.368 . S
C587 C571 1.349 . S
C587 H579 0.950 . S
C587 C585 1.327 . S
C588 C576 1.349 1_556 S
C588 H582 0.950 . S
C588 C589 1.327 . S
C589 H583 0.950 . S
C589 C588 1.327 . S
C589 C593 1.429 . S
C590 C573 1.574 . S
C590 H584 0.949 1_556 S
C590 C594 1.368 . S
C591 C572 1.429 . S
C591 C585 1.429 . S
C591 C592 1.523 . S
C592 C573 1.368 . S
C592 C586 1.368 . S
C592 C591 1.523 . S
C593 C577 1.429 1_556 S
C593 C589 1.429 . S
C593 C594 1.523 . S
C594 C578 1.368 . S
C594 C590 1.368 . S
C594 C593 1.523 . S
H595 C570 0.950 . S
H596 C572 0.950 . S
H597 C573 0.949 . S
H598 C575 0.950 . S
H599 C577 0.950 . S
C600 C601 1.349 . S
C600 C602 1.327 . S
C600 H625 0.950 . S
C601 C600 1.349 . S
C601 C617 1.349 . S
C602 C600 1.327 . S
C602 C621 1.429 . S
C602 H626 0.950 . S
C603 C620 1.574 . S
C603 C622 1.368 . S
C603 H627 0.949 . S
H604 C608 0.949 . S
C605 C606 1.349 . S
C605 C607 1.327 . S
C605 H628 0.950 . S
C606 C605 1.349 . S
C606 C618 1.349 1_554 S
C607 C605 1.327 . S
C607 C623 1.429 1_554 S
C607 H629 0.950 . S
C608 H604 0.949 . S
C608 C616 1.574 . S
C608 C624 1.368 . S
H609 C617 0.950 . S
H610 C615 0.950 . S
H611 C616 0.949 . S
H612 C618 0.950 . S
H613 C619 0.950 . S
H614 C620 0.949 1_554 S
C615 H610 0.950 . S
C615 C617 1.327 . S
C615 C621 1.429 . S
C616 C608 1.574 . S
C616 H611 0.949 . S
C616 C622 1.368 . S
C617 C601 1.349 . S
C617 H609 0.950 . S
C617 C615 1.327 . S
C618 C606 1.349 1_556 S
C618 H612 0.950 . S
C618 C619 1.327 . S
C619 H613 0.950 . S
C619 C618 1.327 . S
C619 C623 1.429 . S
C620 C603 1.574 . S
C620 H614 0.949 1_556 S
C620 C624 1.368 . S
C621 C602 1.429 . S
C621 C615 1.429 . S
C621 C622 1.523 . S
C622 C603 1.368 . S
C622 C616 1.368 . S
C622 C621 1.523 . S
C623 C607 1.429 1_556 S
C623 C619 1.429 . S
C623 C624 1.523 . S
C624 C608 1.368 . S
C624 C620 1.368 . S
C624 C623 1.523 . S
H625 C600 0.950 . S
H626 C602 0.950 . S
H627 C603 0.949 . S
H628 C605 0.950 . S
H629 C607 0.950 . S
C630 C631 1.349 . S
C630 C632 1.327 . S
C630 H655 0.950 . S
C631 C630 1.349 . S
C631 C647 1.349 . S
C632 C630 1.327 . S
C632 C651 1.429 . S
C632 H656 0.950 . S
C633 C650 1.574 . S
C633 C652 1.368 . S
C633 H657 0.949 . S
H634 C638 0.949 . S
C635 C636 1.349 . S
C635 C637 1.327 1_554 S
C635 H658 0.950 . S
C636 C635 1.349 . S
C636 C648 1.349 1_454 S
C637 C635 1.327 1_556 S
C637 C653 1.429 1_455 S
C637 H659 0.950 . S
C638 H634 0.949 . S
C638 C646 1.574 . S
C638 C654 1.368 . S
H639 C647 0.950 . S
H640 C645 0.950 . S
H641 C646 0.949 . S
H642 C648 0.950 . S
H643 C649 0.950 . S
H644 C650 0.949 1_455 S
C645 H640 0.950 . S
C645 C647 1.327 . S
C645 C651 1.429 . S
C646 C638 1.574 . S
C646 H641 0.949 . S
C646 C652 1.368 . S
C647 C631 1.349 . S
C647 H639 0.950 . S
C647 C645 1.327 . S
C648 C636 1.349 1_656 S
C648 H642 0.950 . S
C648 C649 1.327 . S
C649 H643 0.950 . S
C649 C648 1.327 . S
C649 C653 1.429 . S
C650 C633 1.574 . S
C650 H644 0.949 1_655 S
C650 C654 1.368 . S
C651 C632 1.429 . S
C651 C645 1.429 . S
C651 C652 1.523 . S
C652 C633 1.368 . S
C652 C646 1.368 . S
C652 C651 1.523 . S
C653 C637 1.429 1_655 S
C653 C649 1.429 . S
C653 C654 1.523 . S
C654 C638 1.368 . S
C654 C650 1.368 . S
C654 C653 1.523 . S
H655 C630 0.950 . S
H656 C632 0.950 . S
H657 C633 0.949 . S
H658 C635 0.950 . S
H659 C637 0.950 . S
C660 C661 1.349 . S
C660 C662 1.327 . S
C660 H685 0.950 . S
C661 C660 1.349 . S
C661 C677 1.349 . S
C662 C660 1.327 . S
C662 C681 1.429 1_554 S
C662 H686 0.950 . S
C663 C680 1.574 . S
C663 C682 1.368 . S
C663 H687 0.949 . S
H664 C668 0.949 . S
C665 C666 1.349 . S
C665 C667 1.327 . S
C665 H688 0.950 . S
C666 C665 1.349 . S
C666 C678 1.349 . S
C667 C665 1.327 . S
C667 C683 1.429 . S
C667 H689 0.950 . S
C668 H664 0.949 . S
C668 C676 1.574 . S
C668 C684 1.368 . S
H669 C677 0.950 . S
H670 C675 0.950 . S
H671 C676 0.949 . S
H672 C678 0.950 . S
H673 C679 0.950 . S
H674 C680 0.949 . S
C675 H670 0.950 . S
C675 C677 1.327 1_556 S
C675 C681 1.429 . S
C676 C668 1.574 . S
C676 H671 0.949 . S
C676 C682 1.368 . S
C677 C661 1.349 . S
C677 H669 0.950 . S
C677 C675 1.327 1_554 S
C678 C666 1.349 . S
C678 H672 0.950 . S
C678 C679 1.327 . S
C679 H673 0.950 . S
C679 C678 1.327 . S
C679 C683 1.429 . S
C680 C663 1.574 . S
C680 H674 0.949 . S
C680 C684 1.368 . S
C681 C662 1.429 1_556 S
C681 C675 1.429 . S
C681 C682 1.523 . S
C682 C663 1.368 . S
C682 C676 1.368 . S
C682 C681 1.523 . S
C683 C667 1.429 . S
C683 C679 1.429 . S
C683 C684 1.523 . S
C684 C668 1.368 . S
C684 C680 1.368 . S
C684 C683 1.523 . S
H685 C660 0.950 . S
H686 C662 0.950 . S
H687 C663 0.949 . S
H688 C665 0.950 . S
H689 C667 0.950 . S
C690 C691 1.349 . S
C690 C692 1.327 . S
C690 H715 0.950 . S
C691 C690 1.349 . S
C691 C707 1.349 . S
C692 C690 1.327 . S
C692 C711 1.429 . S
C692 H716 0.950 . S
C693 C710 1.574 . S
C693 C712 1.368 . S
C693 H717 0.949 . S
H694 C698 0.949 . S
C695 C696 1.349 . S
C695 C697 1.327 . S
C695 H718 0.950 . S
C696 C695 1.349 . S
C696 C708 1.349 . S
C697 C695 1.327 . S
C697 C713 1.429 . S
C697 H719 0.950 . S
C698 H694 0.949 . S
C698 C706 1.574 . S
C698 C714 1.368 . S
H699 C707 0.950 . S
H700 C705 0.950 . S
H701 C706 0.949 . S
H702 C708 0.950 . S
H703 C709 0.950 . S
H704 C710 0.949 1_554 S
C705 H700 0.950 . S
C705 C707 1.327 . S
C705 C711 1.429 . S
C706 C698 1.574 . S
C706 H701 0.949 . S
C706 C712 1.368 . S
C707 C691 1.349 . S
C707 H699 0.950 . S
C707 C705 1.327 . S
C708 C696 1.349 . S
C708 H702 0.950 . S
C708 C709 1.327 . S
C709 H703 0.950 . S
C709 C708 1.327 . S
C709 C713 1.429 . S
C710 C693 1.574 . S
C710 H704 0.949 1_556 S
C710 C714 1.368 . S
C711 C692 1.429 . S
C711 C705 1.429 . S
C711 C712 1.523 . S
C712 C693 1.368 . S
C712 C706 1.368 . S
C712 C711 1.523 . S
C713 C697 1.429 . S
C713 C709 1.429 . S
C713 C714 1.523 1_554 S
C714 C698 1.368 . S
C714 C710 1.368 . S
C714 C713 1.523 1_556 S
H715 C690 0.950 . S
H716 C692 0.950 . S
H717 C693 0.949 . S
H718 C695 0.950 . S
H719 C697 0.950 . S
C720 C721 1.349 . S
C720 C722 1.327 . S
C720 H745 0.950 . S
C721 C720 1.349 . S
C721 C737 1.349 . S
C722 C720 1.327 . S
C722 C741 1.429 . S
C722 H746 0.950 . S
C723 C740 1.574 . S
C723 C742 1.368 . S
C723 H747 0.949 . S
H724 C728 0.949 . S
C725 C726 1.349 . S
C725 C727 1.327 . S
C725 H748 0.950 . S
C726 C725 1.349 . S
C726 C738 1.349 . S
C727 C725 1.327 . S
C727 C743 1.429 . S
C727 H749 0.950 . S
C728 H724 0.949 . S
C728 C736 1.574 . S
C728 C744 1.368 . S
H729 C737 0.950 . S
H730 C735 0.950 . S
H731 C736 0.949 . S
H732 C738 0.950 . S
H733 C739 0.950 . S
H734 C740 0.949 . S
C735 H730 0.950 . S
C735 C737 1.327 . S
C735 C741 1.429 . S
C736 C728 1.574 . S
C736 H731 0.949 . S
C736 C742 1.368 . S
C737 C721 1.349 . S
C737 H729 0.950 . S
C737 C735 1.327 . S
C738 C726 1.349 . S
C738 H732 0.950 . S
C738 C739 1.327 . S
C739 H733 0.950 . S
C739 C738 1.327 . S
C739 C743 1.429 . S
C740 C723 1.574 . S
C740 H734 0.949 . S
C740 C744 1.368 . S
C741 C722 1.429 . S
C741 C735 1.429 . S
C741 C742 1.523 . S
C742 C723 1.368 . S
C742 C736 1.368 . S
C742 C741 1.523 . S
C743 C727 1.429 . S
C743 C739 1.429 . S
C743 C744 1.523 . S
C744 C728 1.368 . S
C744 C740 1.368 . S
C744 C743 1.523 . S
H745 C720 0.950 . S
H746 C722 0.950 . S
H747 C723 0.949 . S
H748 C725 0.950 . S
H749 C727 0.950 . S
C750 C751 1.349 . S
C750 C752 1.327 . S
C750 H775 0.950 . S
C751 C750 1.349 . S
C751 C767 1.349 . S
C752 C750 1.327 . S
C752 C771 1.429 . S
C752 H776 0.950 . S
C753 C770 1.574 . S
C753 C772 1.368 . S
C753 H777 0.949 . S
H754 C758 0.949 . S
C755 C756 1.349 . S
C755 C757 1.327 . S
C755 H778 0.950 . S
C756 C755 1.349 . S
C756 C768 1.349 . S
C757 C755 1.327 . S
C757 C773 1.429 . S
C757 H779 0.950 . S
C758 H754 0.949 . S
C758 C766 1.574 . S
C758 C774 1.368 . S
H759 C767 0.950 . S
H760 C765 0.950 . S
H761 C766 0.949 . S
H762 C768 0.950 . S
H763 C769 0.950 . S
H764 C770 0.949 . S
C765 H760 0.950 . S
C765 C767 1.327 . S
C765 C771 1.429 . S
C766 C758 1.574 . S
C766 H761 0.949 . S
C766 C772 1.368 . S
C767 C751 1.349 . S
C767 H759 0.950 . S
C767 C765 1.327 . S
C768 C756 1.349 . S
C768 H762 0.950 . S
C768 C769 1.327 . S
C769 H763 0.950 . S
C769 C768 1.327 . S
C769 C773 1.429 . S
C770 C753 1.574 . S
C770 H764 0.949 . S
C770 C774 1.368 . S
C771 C752 1.429 . S
C771 C765 1.429 . S
C771 C772 1.523 . S
C772 C753 1.368 . S
C772 C766 1.368 . S
C772 C771 1.523 . S
C773 C757 1.429 . S
C773 C769 1.429 . S
C773 C774 1.523 . S
C774 C758 1.368 . S
C774 C770 1.368 . S
C774 C773 1.523 . S
H775 C750 0.950 . S
H776 C752 0.950 . S
H777 C753 0.949 . S
H778 C755 0.950 . S
H779 C757 0.950 . S
C780 C781 1.349 . S
C780 C782 1.327 . S
C780 H805 0.950 . S
C781 C780 1.349 . S
C781 C797 1.349 . S
C782 C780 1.327 . S
C782 C801 1.429 . S
C782 H806 0.950 . S
C783 C800 1.574 . S
C783 C802 1.368 . S
C783 H807 0.949 . S
H784 C788 0.949 . S
C785 C786 1.349 . S
C785 C787 1.327 . S
C785 H808 0.950 . S
C786 C785 1.349 . S
C786 C798 1.349 . S
C787 C785 1.327 . S
C787 C803 1.429 . S
C787 H809 0.950 . S
C788 H784 0.949 . S
C788 C796 1.574 . S
C788 C804 1.368 . S
H789 C797 0.950 . S
H790 C795 0.950 . S
H791 C796 0.949 . S
H792 C798 0.950 . S
H793 C799 0.950 . S
H794 C800 0.949 . S
C795 H790 0.950 . S
C795 C797 1.327 . S
C795 C801 1.429 . S
C796 C788 1.574 . S
C796 H791 0.949 . S
C796 C802 1.368 . S
C797 C781 1.349 . S
C797 H789 0.950 . S
C797 C795 1.327 . S
C798 C786 1.349 . S
C798 H792 0.950 . S
C798 C799 1.327 . S
C799 H793 0.950 . S
C799 C798 1.327 . S
C799 C803 1.429 . S
C800 C783 1.574 . S
C800 H794 0.949 . S
C800 C804 1.368 . S
C801 C782 1.429 . S
C801 C795 1.429 . S
C801 C802 1.523 . S
C802 C783 1.368 . S
C802 C796 1.368 . S
C802 C801 1.523 . S
C803 C787 1.429 . S
C803 C799 1.429 . S
C803 C804 1.523 . S
C804 C788 1.368 . S
C804 C800 1.368 . S
C804 C803 1.523 . S
H805 C780 0.950 . S
H806 C782 0.950 . S
H807 C783 0.949 . S
H808 C785 0.950 . S
H809 C787 0.950 . S
C810 C811 1.349 . S
C810 C812 1.327 . S
C810 H835 0.950 . S
C811 C810 1.349 . S
C811 C827 1.349 . S
C812 C810 1.327 . S
C812 C831 1.429 . S
C812 H836 0.950 . S
C813 C830 1.574 . S
C813 C832 1.368 . S
C813 H837 0.949 . S
H814 C818 0.949 . S
C815 C816 1.349 . S
C815 C817 1.327 . S
C815 H838 0.950 . S
C816 C815 1.349 . S
C816 C828 1.349 . S
C817 C815 1.327 . S
C817 C833 1.429 . S
C817 H839 0.950 . S
C818 H814 0.949 . S
C818 C826 1.574 . S
C818 C834 1.368 . S
H819 C827 0.950 . S
H820 C825 0.950 . S
H821 C826 0.949 . S
H822 C828 0.950 . S
H823 C829 0.950 . S
H824 C830 0.949 . S
C825 H820 0.950 . S
C825 C827 1.327 . S
C825 C831 1.429 . S
C826 C818 1.574 . S
C826 H821 0.949 . S
C826 C832 1.368 . S
C827 C811 1.349 . S
C827 H819 0.950 . S
C827 C825 1.327 . S
C828 C816 1.349 . S
C828 H822 0.950 . S
C828 C829 1.327 . S
C829 H823 0.950 . S
C829 C828 1.327 . S
C829 C833 1.429 . S
C830 C813 1.574 . S
C830 H824 0.949 . S
C830 C834 1.368 . S
C831 C812 1.429 . S
C831 C825 1.429 . S
C831 C832 1.523 . S
C832 C813 1.368 . S
C832 C826 1.368 . S
C832 C831 1.523 . S
C833 C817 1.429 . S
C833 C829 1.429 . S
C833 C834 1.523 . S
C834 C818 1.368 . S
C834 C830 1.368 . S
C834 C833 1.523 . S
H835 C810 0.950 . S
H836 C812 0.950 . S
H837 C813 0.949 . S
H838 C815 0.950 . S
H839 C817 0.950 . S
C840 C841 1.349 . S
C840 C842 1.327 . S
C840 H865 0.950 . S
C841 C840 1.349 . S
C841 C857 1.349 . S
C842 C840 1.327 . S
C842 C861 1.429 . S
C842 H866 0.950 . S
C843 C860 1.574 . S
C843 C862 1.368 . S
C843 H867 0.949 . S
H844 C848 0.936 1_565 S
C845 C846 1.349 . S
C845 C847 1.327 . S
C845 H868 0.950 . S
C846 C845 1.349 . S
C846 C858 1.349 . S
C847 C845 1.327 . S
C847 C863 1.429 . S
C847 H869 0.950 . S
C848 H844 0.936 1_545 S
C848 C856 1.591 . S
C848 C864 1.366 1_545 S
H849 C857 0.950 . S
H850 C855 0.950 . S
H851 C856 0.949 . S
H852 C858 0.950 . S
H853 C859 0.950 . S
H854 C860 0.949 . S
C855 H850 0.950 . S
C855 C857 1.327 . S
C855 C861 1.429 . S
C856 C848 1.591 . S
C856 H851 0.949 . S
C856 C862 1.368 . S
C857 C841 1.349 . S
C857 H849 0.950 . S
C857 C855 1.327 . S
C858 C846 1.349 . S
C858 H852 0.950 . S
C858 C859 1.327 . S
C859 H853 0.950 . S
C859 C858 1.327 . S
C859 C863 1.429 . S
C860 C843 1.574 . S
C860 H854 0.949 . S
C860 C864 1.369 1_545 S
C861 C842 1.429 . S
C861 C855 1.429 . S
C861 C862 1.523 . S
C862 C843 1.368 . S
C862 C856 1.368 . S
C862 C861 1.523 . S
C863 C847 1.429 . S
C863 C859 1.429 . S
C863 C864 1.521 . S
C864 C848 1.366 1_565 S
C864 C860 1.369 1_565 S
C864 C863 1.521 . S
H865 C840 0.950 . S
H866 C842 0.950 . S
H867 C843 0.949 . S
H868 C845 0.950 . S
H869 C847 0.950 . S
C870 C871 1.349 . S
C870 C872 1.327 . S
C870 H895 0.950 . S
C871 C870 1.349 . S
C871 C887 1.357 . S
C872 C870 1.327 . S
C872 C891 1.429 . S
C872 H896 0.950 . S
C873 C890 1.574 . S
C873 C892 1.368 . S
C873 H897 0.949 . S
H874 C878 0.949 . S
C875 C876 1.349 . S
C875 C877 1.327 . S
C875 H898 0.950 . S
C876 C875 1.349 . S
C876 C888 1.349 . S
C877 C875 1.327 . S
C877 C893 1.429 . S
C877 H899 0.950 . S
C878 H874 0.949 . S
C878 C886 1.574 . S
C878 C894 1.368 . S
H879 C887 0.906 1_655 S
H880 C885 0.950 . S
H881 C886 0.949 . S
H882 C888 0.950 . S
H883 C889 0.950 . S
H884 C890 0.949 . S
C885 H880 0.950 . S
C885 C887 1.364 . S
C885 C891 1.429 . S
C886 C878 1.574 . S
C886 H881 0.949 . S
C886 C892 1.368 . S
C887 C871 1.357 . S
C887 H879 0.906 1_455 S
C887 C885 1.364 . S
C888 C876 1.349 . S
C888 H882 0.950 . S
C888 C889 1.327 . S
C889 H883 0.950 . S
C889 C888 1.327 . S
C889 C893 1.429 . S
C890 C873 1.574 . S
C890 H884 0.949 . S
C890 C894 1.368 . S
C891 C872 1.429 . S
C891 C885 1.429 . S
C891 C892 1.523 . S
C892 C873 1.368 . S
C892 C886 1.368 . S
C892 C891 1.523 . S
C893 C877 1.429 . S
C893 C889 1.429 . S
C893 C894 1.523 . S
C894 C878 1.368 . S
C894 C890 1.368 . S
C894 C893 1.523 . S
H895 C870 0.950 . S
H896 C872 0.950 . S
H897 C873 0.949 . S
H898 C875 0.950 . S
H899 C877 0.950 . S
C900 C901 1.349 . S
C900 C902 1.327 . S
C900 H925 0.950 . S
C901 C900 1.349 . S
C901 C917 1.349 . S
C902 C900 1.327 . S
C902 C921 1.429 . S
C902 H926 0.950 . S
C903 C920 1.574 . S
C903 C922 1.368 . S
C903 H927 0.949 . S
H904 C908 0.949 . S
C905 C906 1.349 . S
C905 C907 1.327 . S
C905 H928 0.950 . S
C906 C905 1.349 . S
C906 C918 1.349 . S
C907 C905 1.327 . S
C907 C923 1.429 . S
C907 H929 0.950 . S
C908 H904 0.949 . S
C908 C916 1.574 . S
C908 C924 1.368 . S
H909 C917 0.950 . S
H910 C915 0.950 . S
H911 C916 0.949 . S
H912 C918 0.950 . S
H913 C919 0.950 . S
H914 C920 0.949 . S
C915 H910 0.950 . S
C915 C917 1.327 . S
C915 C921 1.429 . S
C916 C908 1.574 . S
C916 H911 0.949 . S
C916 C922 1.368 . S
C917 C901 1.349 . S
C917 H909 0.950 . S
C917 C915 1.327 . S
C918 C906 1.349 . S
C918 H912 0.950 . S
C918 C919 1.327 . S
C919 H913 0.950 . S
C919 C918 1.327 . S
C919 C923 1.429 . S
C920 C903 1.574 . S
C920 H914 0.949 . S
C920 C924 1.368 . S
C921 C902 1.429 . S
C921 C915 1.429 . S
C921 C922 1.523 . S
C922 C903 1.368 . S
C922 C916 1.368 . S
C922 C921 1.523 . S
C923 C907 1.429 . S
C923 C919 1.429 . S
C923 C924 1.523 . S
C924 C908 1.368 . S
C924 C920 1.368 . S
C924 C923 1.523 . S
H925 C900 0.950 . S
H926 C902 0.950 . S
H927 C903 0.949 . S
H928 C905 0.950 . S
H929 C907 0.950 . S
C930 C931 1.349 . S
C930 C932 1.327 . S
C930 H955 0.950 . S
C931 C930 1.349 . S
C931 C947 1.349 . S
C932 C930 1.327 . S
C932 C951 1.429 . S
C932 H956 0.950 . S
C933 C950 1.574 . S
C933 C952 1.368 1_545 S
C933 H957 0.949 1_545 S
H934 C938 0.949 . S
C935 C936 1.349 . S
C935 C937 1.327 . S
C935 H958 0.950 . S
C936 C935 1.349 . S
C936 C948 1.349 . S
C937 C935 1.327 . S
C937 C953 1.429 . S
C937 H959 0.950 . S
C938 H934 0.949 . S
C938 C946 1.574 . S
C938 C954 1.368 . S
H939 C947 0.950 . S
H940 C945 0.950 . S
H941 C946 0.949 . S
H942 C948 0.950 . S
H943 C949 0.950 . S
H944 C950 0.949 . S
C945 H940 0.950 . S
C945 C947 1.327 . S
C945 C951 1.429 . S
C946 C938 1.574 . S
C946 H941 0.949 . S
C946 C952 1.368 1_545 S
C947 C931 1.349 . S
C947 H939 0.950 . S
C947 C945 1.327 . S
C948 C936 1.349 . S
C948 H942 0.950 . S
C948 C949 1.327 . S
C949 H943 0.950 . S
C949 C948 1.327 . S
C949 C953 1.429 . S
C950 C933 1.574 . S
C950 H944 0.949 . S
C950 C954 1.368 . S
C951 C932 1.429 . S
C951 C945 1.429 . S
C951 C952 1.523 . S
C952 C933 1.368 1_565 S
C952 C946 1.368 1_565 S
C952 C951 1.523 . S
C953 C937 1.429 . S
C953 C949 1.429 . S
C953 C954 1.523 . S
C954 C938 1.368 . S
C954 C950 1.368 . S
C954 C953 1.523 . S
H955 C930 0.950 . S
H956 C932 0.950 . S
H957 C933 0.949 1_565 S
H958 C935 0.950 . S
H959 C937 0.950 . S
C960 C961 1.349 . S
C960 C962 1.327 . S
C960 H985 0.950 . S
C961 C960 1.349 . S
C961 C977 1.349 . S
C962 C960 1.327 . S
C962 C981 1.429 . S
C962 H986 0.950 . S
C963 C980 1.574 . S
C963 C982 1.368 . S
C963 H987 0.949 . S
H964 C968 0.949 . S
C965 C966 1.349 . S
C965 C967 1.327 . S
C965 H988 0.950 . S
C966 C965 1.349 . S
C966 C978 1.349 . S
C967 C965 1.327 . S
C967 C983 1.429 . S
C967 H989 0.950 . S
C968 H964 0.949 . S
C968 C976 1.574 . S
C968 C984 1.368 . S
H969 C977 0.950 1_655 S
H970 C975 0.950 . S
H971 C976 0.949 . S
H972 C978 0.950 . S
H973 C979 0.950 . S
H974 C980 0.949 . S
C975 H970 0.950 . S
C975 C977 1.327 . S
C975 C981 1.429 . S
C976 C968 1.574 . S
C976 H971 0.949 . S
C976 C982 1.368 . S
C977 C961 1.349 . S
C977 H969 0.950 1_455 S
C977 C975 1.327 . S
C978 C966 1.349 . S
C978 H972 0.950 . S
C978 C979 1.327 . S
C979 H973 0.950 . S
C979 C978 1.327 . S
C979 C983 1.429 . S
C980 C963 1.574 . S
C980 H974 0.949 . S
C980 C984 1.368 . S
C981 C962 1.429 . S
C981 C975 1.429 . S
C981 C982 1.523 . S
C982 C963 1.368 . S
C982 C976 1.368 . S
C982 C981 1.523 . S
C983 C967 1.429 . S
C983 C979 1.429 . S
C983 C984 1.523 . S
C984 C968 1.368 . S
C984 C980 1.368 . S
C984 C983 1.523 . S
H985 C960 0.950 . S
H986 C962 0.950 . S
H987 C963 0.949 . S
H988 C965 0.950 . S
H989 C967 0.950 . S
C181 C1 1.010 . S
C186 C9 1.010 . S
C211 C29 1.016 . S
C216 C21 1.016 . S
C241 C41 1.048 . S
C246 C49 1.048 . S
C271 C69 1.010 . S
C276 C61 1.010 . S
C301 C81 1.016 . S
C306 C89 1.016 . S
C331 C109 1.048 . S
C336 C101 1.048 1_556 S
C361 C128 1.217 . S
C366 C139 1.217 . S
C391 C159 1.215 . S
C396 C148 1.215 . S
C421 C168 1.229 . S
C426 C179 1.229 . S
C451 C116 2.266 . S
C456 C8 2.227 . S
C481 C36 1.714 . S
C486 C76 1.706 . S
C511 C48 2.782 1_565 S
C516 C88 2.763 . S
C541 C56 0.968 . S
C546 C126 0.998 . S
C571 C149 1.177 . S
C576 C16 1.153 . S
C601 C166 1.620 . S
C606 C28 1.601 . S
C631 C161 1.669 . S
C636 C19 1.641 . S
C661 C26 0.901 . S
C666 C121 0.923 . S
C691 C156 1.389 . S
C696 C59 1.343 . S
C721 C46 2.265 . S
C726 C79 2.226 . S
C751 C86 1.713 . S
C756 C6 1.705 . S
C781 C39 2.763 . S
C786 C119 2.782 . S
C811 C169 1.670 . S
C816 C68 1.642 . S
C841 C129 0.923 . S
C846 C96 0.901 . S
C871 C146 1.388 1_455 S
C876 C108 1.343 . S
C901 C136 0.998 . S
C906 C106 0.968 . S
C931 C66 1.152 . S
C936 C141 1.176 . S
C961 C176 1.620 1_455 S
C966 C99 1.601 . S
