# Generated by pormake.
# Topology can, (4)-cn, num edge types: 1
# Building blocks:
#     Node 0, Type 0, BuildingBlock: AZAVOO_clean_sbu_0, # of connection points: 4
#     Node 1, Type 0, BuildingBlock: AZAVOO_clean_sbu_0, # of connection points: 4
#     Node 2, Type 0, BuildingBlock: AZAVOO_clean_sbu_0, # of connection points: 4
#     Node 3, Type 0, BuildingBlock: AZAVOO_clean_sbu_0, # of connection points: 4
#     Node 4, Type 0, BuildingBlock: AZAVOO_clean_sbu_0, # of connection points: 4
#     Node 5, Type 0, BuildingBlock: AZAVOO_clean_sbu_0, # of connection points: 4
#     Node 6, Type 0, BuildingBlock: AZAVOO_clean_sbu_0, # of connection points: 4
#     Node 7, Type 0, BuildingBlock: AZAVOO_clean_sbu_0, # of connection points: 4
#     Node 8, Type 0, BuildingBlock: AZAVOO_clean_sbu_0, # of connection points: 4
#     Node 9, Type 0, BuildingBlock: AZAVOO_clean_sbu_0, # of connection points: 4
#     Node 10, Type 0, BuildingBlock: AZAVOO_clean_sbu_0, # of connection points: 4
#     Node 11, Type 0, BuildingBlock: AZAVOO_clean_sbu_0, # of connection points: 4
#     Edge 12, Type (0, 0), BuildingBlock: TEMPAE_clean_linker_10, # of connection points: 2
#     Edge 13, Type (0, 0), BuildingBlock: TEMPAE_clean_linker_10, # of connection points: 2
#     Edge 14, Type (0, 0), BuildingBlock: TEMPAE_clean_linker_10, # of connection points: 2
#     Edge 15, Type (0, 0), BuildingBlock: TEMPAE_clean_linker_10, # of connection points: 2
#     Edge 16, Type (0, 0), BuildingBlock: TEMPAE_clean_linker_10, # of connection points: 2
#     Edge 17, Type (0, 0), BuildingBlock: TEMPAE_clean_linker_10, # of connection points: 2
#     Edge 18, Type (0, 0), BuildingBlock: TEMPAE_clean_linker_10, # of connection points: 2
#     Edge 19, Type (0, 0), BuildingBlock: TEMPAE_clean_linker_10, # of connection points: 2
#     Edge 20, Type (0, 0), BuildingBlock: TEMPAE_clean_linker_10, # of connection points: 2
#     Edge 21, Type (0, 0), BuildingBlock: TEMPAE_clean_linker_10, # of connection points: 2
#     Edge 22, Type (0, 0), BuildingBlock: TEMPAE_clean_linker_10, # of connection points: 2
#     Edge 23, Type (0, 0), BuildingBlock: TEMPAE_clean_linker_10, # of connection points: 2
#     Edge 24, Type (0, 0), BuildingBlock: TEMPAE_clean_linker_10, # of connection points: 2
#     Edge 25, Type (0, 0), BuildingBlock: TEMPAE_clean_linker_10, # of connection points: 2
#     Edge 26, Type (0, 0), BuildingBlock: TEMPAE_clean_linker_10, # of connection points: 2
#     Edge 27, Type (0, 0), BuildingBlock: TEMPAE_clean_linker_10, # of connection points: 2
#     Edge 28, Type (0, 0), BuildingBlock: TEMPAE_clean_linker_10, # of connection points: 2
#     Edge 29, Type (0, 0), BuildingBlock: TEMPAE_clean_linker_10, # of connection points: 2
#     Edge 30, Type (0, 0), BuildingBlock: TEMPAE_clean_linker_10, # of connection points: 2
#     Edge 31, Type (0, 0), BuildingBlock: TEMPAE_clean_linker_10, # of connection points: 2
#     Edge 32, Type (0, 0), BuildingBlock: TEMPAE_clean_linker_10, # of connection points: 2
#     Edge 33, Type (0, 0), BuildingBlock: TEMPAE_clean_linker_10, # of connection points: 2
#     Edge 34, Type (0, 0), BuildingBlock: TEMPAE_clean_linker_10, # of connection points: 2
#     Edge 35, Type (0, 0), BuildingBlock: TEMPAE_clean_linker_10, # of connection points: 2
# Relax obj value: 0.086
# Max RMSD: 0.099
# Mean RMSD: 0.099
data_MOF--net-can--node1-AZAVOO_clean_sbu_0--edge1-TEMPAE_clean_linker_10
_symmetry_space_group_name_H-M    P1
_symmetry_Int_Tables_number       1
_symmetry_cell_setting            triclinic
loop_
_symmetry_equiv_pos_as_xyz
'x, y, z'
_cell_length_a     58.768495
_cell_length_b     58.724549
_cell_length_c     27.074283
_cell_angle_alpha  90.062833
_cell_angle_beta   89.97291
_cell_angle_gamma 119.88357
loop_
_atom_site_label
_atom_site_type_symbol
_atom_site_fract_x
_atom_site_fract_y
_atom_site_fract_z
_atom_type_partial_charge
Mg0 Mg 0.06663 0.39639 0.25088 0.0
O1 O 0.06954 0.43648 0.26315 0.0
O2 O 0.08246 0.44903 0.34106 0.0
Mg3 Mg 0.08617 0.41657 0.37959 0.0
C4 C 0.07595 0.45308 0.29839 0.0
C5 C 0.05665 0.37991 0.1417 0.0
O6 O 0.05624 0.35937 0.16189 0.0
O7 O 0.11132 0.4163 0.24936 0.0
O8 O 0.12113 0.4263 0.32929 0.0
O9 O 0.02497 0.37578 0.27537 0.0
O10 O 0.05924 0.38859 0.32504 0.0
C11 C 0.12795 0.42585 0.28465 0.0
C12 C 0.03435 0.3788 0.31961 0.0
O13 O 0.06268 0.39995 0.16832 0.0
Mg14 Mg 0.66901 0.0512 0.7515 0.0
O15 O 0.63522 0.05968 0.76016 0.0
O16 O 0.63354 0.07072 0.83856 0.0
Mg17 Mg 0.66725 0.07035 0.87979 0.0
C18 C 0.6248 0.06642 0.79437 0.0
C19 C 0.66927 0.03293 0.6477 0.0
O20 O 0.67921 0.02155 0.67506 0.0
O21 O 0.69816 0.0952 0.75238 0.0
O22 O 0.69593 0.10482 0.83171 0.0
O23 O 0.6419 0.01008 0.77456 0.0
O24 O 0.66714 0.0425 0.8257 0.0
C25 C 0.70519 0.1116 0.78812 0.0
C26 C 0.64896 0.01855 0.81922 0.0
O27 O 0.66372 0.04904 0.66816 0.0
Mg28 Mg 0.61634 0.67554 0.22716 0.0
O29 O 0.57639 0.63968 0.24547 0.0
O30 O 0.56912 0.6395 0.32661 0.0
Mg31 Mg 0.60389 0.67596 0.35983 0.0
C32 C 0.56218 0.62932 0.2837 0.0
C33 C 0.62942 0.67448 0.12097 0.0
O34 O 0.65186 0.6869 0.14475 0.0
O35 O 0.59813 0.70197 0.23302 0.0
O36 O 0.59161 0.70096 0.31473 0.0
O37 O 0.63486 0.65162 0.24523 0.0
O38 O 0.62872 0.67662 0.29891 0.0
C39 C 0.59016 0.70872 0.27139 0.0
C40 C 0.63562 0.65938 0.29025 0.0
O41 O 0.60837 0.66763 0.14492 0.0
Mg42 Mg 0.918 0.58849 0.78209 0.0
O43 O 0.91438 0.54788 0.78259 0.0
O44 O 0.89708 0.52864 0.85482 0.0
Mg45 Mg 0.88966 0.55703 0.90065 0.0
C46 C 0.90636 0.5285 0.81225 0.0
C47 C 0.94638 0.61563 0.68934 0.0
O48 O 0.95615 0.63348 0.72439 0.0
O49 O 0.87392 0.57013 0.77014 0.0
O50 O 0.85859 0.55295 0.84484 0.0
O51 O 0.95718 0.60487 0.81734 0.0
O52 O 0.91973 0.59005 0.85815 0.0
C53 C 0.85495 0.55787 0.80049 0.0
C54 C 0.94469 0.59943 0.85893 0.0
O55 O 0.92779 0.59282 0.7002 0.0
Mg56 Mg 0.31852 0.94264 0.22983 0.0
O57 O 0.35156 0.93359 0.24522 0.0
O58 O 0.35245 0.92649 0.32617 0.0
Mg59 Mg 0.31908 0.92973 0.3622 0.0
C60 C 0.36142 0.92829 0.28252 0.0
C61 C 0.31466 0.95247 0.12183 0.0
O62 O 0.30118 0.96163 0.1448 0.0
O63 O 0.28843 0.89899 0.23703 0.0
O64 O 0.29035 0.89333 0.31846 0.0
O65 O 0.34652 0.98457 0.24689 0.0
O66 O 0.32034 0.95504 0.30171 0.0
C67 C 0.28113 0.88446 0.27557 0.0
C68 C 0.33915 0.97834 0.29229 0.0
O69 O 0.32394 0.94073 0.14708 0.0
Mg70 Mg 0.37644 0.31686 0.75962 0.0
O71 O 0.4181 0.35242 0.75827 0.0
O72 O 0.43625 0.35605 0.83257 0.0
Mg73 Mg 0.40593 0.32399 0.88242 0.0
C74 C 0.43741 0.36384 0.78815 0.0
C75 C 0.35251 0.31681 0.66072 0.0
O76 O 0.33354 0.31086 0.69271 0.0
O77 O 0.39349 0.28939 0.75735 0.0
O78 O 0.40916 0.29373 0.83425 0.0
O79 O 0.36071 0.34235 0.78556 0.0
O80 O 0.37495 0.32188 0.83465 0.0
C81 C 0.40469 0.28335 0.7913 0.0
C82 C 0.36665 0.33827 0.82939 0.0
O83 O 0.37402 0.31917 0.67613 0.0
Mg84 Mg 0.57543 0.91624 0.22735 0.0
O85 O 0.53398 0.91011 0.23459 0.0
O86 O 0.50989 0.88458 0.17213 0.0
Mg87 Mg 0.536 0.87512 0.12387 0.0
C88 C 0.51234 0.8979 0.21104 0.0
C89 C 0.6063 0.95532 0.30928 0.0
O90 O 0.6202 0.9664 0.26942 0.0
O91 O 0.56216 0.8745 0.25304 0.0
O92 O 0.5404 0.85135 0.18628 0.0
O93 O 0.58639 0.95093 0.17914 0.0
O94 O 0.57072 0.91033 0.15187 0.0
C95 C 0.54953 0.85275 0.22969 0.0
C96 C 0.57875 0.9346 0.14246 0.0
O97 O 0.58545 0.93317 0.30521 0.0
Mg98 Mg 0.65472 0.58063 0.70258 0.0
O99 O 0.61759 0.54026 0.70295 0.0
O100 O 0.61942 0.51712 0.63902 0.0
Mg101 Mg 0.65738 0.54278 0.5967 0.0
C102 C 0.6078 0.51931 0.67705 0.0
C103 C 0.64139 0.60847 0.78403 0.0
O104 O 0.64283 0.62184 0.74414 0.0
O105 O 0.67906 0.56288 0.73088 0.0
O106 O 0.68094 0.54193 0.66313 0.0
O107 O 0.6353 0.59574 0.65194 0.0
O108 O 0.65886 0.57802 0.62721 0.0
C109 C 0.68708 0.54911 0.70802 0.0
C110 C 0.64457 0.58815 0.61613 0.0
O111 O 0.64537 0.58913 0.78012 0.0
Mg112 Mg 0.06226 0.66719 0.26095 0.0
O113 O 0.07086 0.63322 0.25921 0.0
O114 O 0.09051 0.63488 0.18749 0.0
Mg115 Mg 0.09475 0.66992 0.14363 0.0
C116 C 0.0812 0.62418 0.22921 0.0
C117 C 0.0309 0.66107 0.35238 0.0
O118 O 0.01992 0.66762 0.31708 0.0
O119 O 0.10525 0.69685 0.27598 0.0
O120 O 0.12291 0.69786 0.20208 0.0
O121 O 0.02444 0.64142 0.22319 0.0
O122 O 0.06172 0.66798 0.18472 0.0
C123 C 0.12492 0.70573 0.24671 0.0
C124 C 0.03741 0.65013 0.18238 0.0
O125 O 0.0513 0.65968 0.34218 0.0
Mg126 Mg 0.4093 0.07091 0.70488 0.0
O127 O 0.45065 0.0773 0.715 0.0
O128 O 0.47642 0.10468 0.65621 0.0
Mg129 Mg 0.45138 0.11518 0.60709 0.0
C130 C 0.47296 0.09033 0.69399 0.0
C131 C 0.37962 0.02822 0.78384 0.0
O132 O 0.36843 0.01558 0.74287 0.0
O133 O 0.42177 0.11179 0.73462 0.0
O134 O 0.44528 0.13699 0.67121 0.0
O135 O 0.39984 0.03777 0.65303 0.0
O136 O 0.41608 0.0791 0.63024 0.0
C137 C 0.435 0.13423 0.71395 0.0
C138 C 0.40841 0.0552 0.61822 0.0
O139 O 0.39779 0.05208 0.78116 0.0
Mg140 Mg 0.33512 0.41269 0.23836 0.0
O141 O 0.37331 0.45253 0.24262 0.0
O142 O 0.37392 0.47548 0.17616 0.0
Mg143 Mg 0.33844 0.45026 0.12763 0.0
C144 C 0.38406 0.4734 0.21639 0.0
C145 C 0.33447 0.37984 0.32436 0.0
O146 O 0.32717 0.36408 0.28591 0.0
O147 O 0.31063 0.43162 0.25806 0.0
O148 O 0.31137 0.45147 0.18706 0.0
O149 O 0.35526 0.39528 0.19674 0.0
O150 O 0.33589 0.41529 0.16204 0.0
C151 C 0.30339 0.44482 0.2314 0.0
C152 C 0.34946 0.40371 0.15724 0.0
O153 O 0.33926 0.4033 0.31828 0.0
Mg154 Mg 0.92567 0.31996 0.73106 0.0
O155 O 0.92139 0.35674 0.73058 0.0
O156 O 0.89783 0.3547 0.66419 0.0
Mg157 Mg 0.88865 0.31803 0.61998 0.0
C158 C 0.91022 0.36613 0.70357 0.0
C159 C 0.96297 0.34949 0.81607 0.0
O160 O 0.97425 0.36463 0.77767 0.0
O161 O 0.88289 0.29475 0.75387 0.0
O162 O 0.8623 0.29266 0.68299 0.0
O163 O 0.96219 0.3398 0.68645 0.0
O164 O 0.92228 0.31792 0.65459 0.0
C165 C 0.86197 0.28619 0.72813 0.0
C166 C 0.94715 0.33238 0.648 0.0
O167 O 0.94082 0.32878 0.81039 0.0
C168 C 0.04264 0.3577 0.05961 0.0
C169 C 0.04598 0.37799 0.09143 0.0
C170 C 0.0299 0.35387 0.01397 0.0
C171 C 0.01989 0.37046 0.00027 0.0
C172 C 0.02372 0.39134 0.03173 0.0
C173 C 0.03694 0.395 0.07676 0.0
C174 C 0.02669 0.33173 0.98088 0.0
C175 C 0.0131 0.40927 0.01861 0.0
C176 C 0.00414 0.3734 0.86537 0.0
C177 C 0.97708 0.35551 0.86377 0.0
C178 C 0.01831 0.37846 0.90953 0.0
C179 C 0.00503 0.36566 0.95337 0.0
C180 C 0.9776 0.348 0.95228 0.0
C181 C 0.96397 0.34294 0.90734 0.0
C182 C 0.04759 0.39709 0.90905 0.0
C183 C 0.9627 0.33434 -0.00147 0.0
H184 H 0.04967 0.34455 0.07068 0.0
H185 H 0.03928 0.41062 0.10132 0.0
H186 H 0.00555 0.31715 0.97656 0.0
H187 H 0.03456 0.33937 0.94353 0.0
H188 H 0.03686 0.32153 -0.00431 0.0
H189 H 0.01828 0.42497 0.04656 0.0
H190 H 0.02079 0.41859 0.9822 0.0
H191 H 0.9914 0.39764 0.01544 0.0
H192 H 0.01445 0.38307 0.83177 0.0
H193 H 0.94305 0.32919 0.90633 0.0
H194 H 0.05798 0.38664 0.92118 0.0
H195 H 0.05278 0.4134 0.93548 0.0
H196 H 0.05493 0.40557 0.87187 0.0
H197 H 0.97013 0.32167 0.01336 0.0
H198 H 0.94128 0.322 0.99181 0.0
H199 H 0.9659 0.34907 0.02741 0.0
C200 C 0.60068 0.95669 0.40086 0.0
C201 C 0.61525 0.96834 0.35796 0.0
C202 C 0.6095 0.96857 0.44726 0.0
C203 C 0.63347 0.99263 0.45083 0.0
C204 C 0.648 0.00472 0.40759 0.0
C205 C 0.63872 0.99245 0.3617 0.0
C206 C 0.59344 0.9551 0.4926 0.0
C207 C 0.67365 0.03036 0.40992 0.0
C208 C 0.64655 0.03242 0.56893 0.0
C209 C 0.66195 0.02463 0.59571 0.0
C210 C 0.63743 0.02248 0.52134 0.0
C211 C 0.64397 0.00444 0.50009 0.0
C212 C 0.66016 -0.00285 0.52636 0.0
C213 C 0.66892 0.00731 0.57382 0.0
C214 C 0.62025 0.03075 0.49434 0.0
C215 C 0.66774 0.97812 0.50482 0.0
H216 H 0.58249 0.93813 0.39829 0.0
H217 H 0.65008 0.00166 0.32876 0.0
H218 H 0.60487 0.9496 0.5176 0.0
H219 H 0.58897 0.96871 0.51332 0.0
H220 H 0.57468 0.9371 0.48332 0.0
H221 H 0.68196 0.03782 0.37268 0.0
H222 H 0.67086 0.04548 0.42913 0.0
H223 H 0.68819 0.02771 0.43158 0.0
H224 H 0.64102 0.04575 0.58562 0.0
H225 H 0.6809 0.00126 0.59415 0.0
H226 H 0.60054 0.0134 0.48813 0.0
H227 H 0.62868 0.03881 0.45752 0.0
H228 H 0.61788 0.04577 0.51507 0.0
H229 H 0.64988 0.9588 0.49846 0.0
H230 H 0.68121 0.97517 0.52932 0.0
H231 H 0.67743 0.98532 0.46849 0.0
C232 C 0.65259 0.67455 0.04375 0.0
C233 C 0.62892 0.66595 0.06926 0.0
C234 C 0.65305 0.66482 -0.00331 0.0
C235 C 0.62923 0.64599 0.97445 0.0
C236 C 0.60515 0.63772 -0.00068 0.0
C237 C 0.60527 0.64785 0.04648 0.0
C238 C 0.67913 0.67429 0.97126 0.0
C239 C 0.57937 0.61774 0.97663 0.0
C240 C 0.63231 0.63831 0.83585 0.0
C241 C 0.63635 0.61672 0.83267 0.0
C242 C 0.62903 0.64748 0.88167 0.0
C243 C 0.62981 0.63477 0.92546 0.0
C244 C 0.63306 0.61246 0.92248 0.0
C245 C 0.63629 0.60369 0.8761 0.0
C246 C 0.62561 0.67131 0.88328 0.0
C247 C 0.63394 0.59836 0.96841 0.0
H248 H 0.67096 0.68861 0.06095 0.0
H249 H 0.5869 0.64104 0.06601 0.0
H250 H 0.68252 0.65753 0.96513 0.0
H251 H 0.67901 0.68255 0.93449 0.0
H252 H 0.69581 0.68954 -0.00698 0.0
H253 H 0.5623 0.61421 -0.00023 0.0
H254 H 0.57711 0.62437 0.93954 0.0
H255 H 0.57906 0.59883 0.97159 0.0
H256 H 0.63217 0.64843 0.8025 0.0
H257 H 0.63928 0.58693 0.87398 0.0
H258 H 0.64284 0.6878 0.90158 0.0
H259 H 0.60805 0.66709 0.90542 0.0
H260 H 0.62351 0.67777 0.84584 0.0
H261 H 0.65146 0.61164 0.99069 0.0
H262 H 0.6348 0.58032 0.95968 0.0
H263 H 0.61642 0.5929 0.99167 0.0
C264 C -0.00342 0.65656 0.41221 0.0
C265 C 0.01882 0.65434 0.40208 0.0
C266 C 0.98433 0.64972 0.45853 0.0
C267 C -0.00546 0.6404 0.4957 0.0
C268 C 0.01696 0.63808 0.4858 0.0
C269 C 0.02888 0.64512 0.43907 0.0
C270 C 0.96052 0.65259 0.46775 0.0
C271 C 0.02839 0.62822 0.52462 0.0
C272 C 0.97848 0.64729 0.62861 0.0
C273 C 0.95808 0.62184 0.63929 0.0
C274 C 0.99059 0.65351 0.58213 0.0
C275 C 0.98211 0.63382 0.54536 0.0
C276 C 0.96147 0.60811 0.55573 0.0
C277 C 0.94965 0.60242 0.60262 0.0
C278 C 0.01247 0.68119 0.5724 0.0
C279 C 0.9519 0.58663 0.51733 0.0
H280 H 0.98864 0.66365 0.38386 0.0
H281 H 0.046 0.64326 0.43147 0.0
H282 H 0.94364 0.63343 0.47898 0.0
H283 H 0.96451 0.66657 0.49854 0.0
H284 H 0.9548 0.65974 0.43466 0.0
H285 H 0.04559 0.62709 0.51077 0.0
H286 H 0.03456 0.64142 0.55725 0.0
H287 H 0.01326 0.60843 0.53736 0.0
H288 H 0.98514 0.66243 0.65669 0.0
H289 H 0.93396 0.5827 0.61065 0.0
H290 H 0.00709 0.68979 0.54114 0.0
H291 H 0.03058 0.681 0.56162 0.0
H292 H 0.01688 0.69416 0.60512 0.0
H293 H 0.94469 0.59234 0.48437 0.0
H294 H 0.93585 0.5676 0.5314 0.0
H295 H 0.96836 0.58383 0.50503 0.0
C296 C 0.34996 0.98889 0.83477 0.0
C297 C 0.37054 0.01501 0.8323 0.0
C298 C 0.34036 0.97641 0.88039 0.0
C299 C 0.3516 0.99038 0.92462 0.0
C300 C 0.37276 0.01654 0.9224 0.0
C301 C 0.38197 0.02854 0.87627 0.0
C302 C 0.31779 0.9485 0.88128 0.0
C303 C 0.38528 0.03207 0.9688 0.0
C304 C 0.31138 0.97214 0.04238 0.0
C305 C 0.32197 0.95921 0.0693 0.0
C306 C 0.32032 0.98168 -0.00533 0.0
C307 C 0.34037 0.97822 0.97329 0.0
C308 C 0.35042 0.96425 -0.00059 0.0
C309 C 0.34106 0.95486 0.04714 0.0
C310 C 0.30896 -0.0037 0.96789 0.0
C311 C 0.37173 0.96008 0.97769 0.0
H312 H 0.34105 0.97823 0.801 0.0
H313 H 0.39793 0.04868 0.87473 0.0
H314 H 0.32297 0.936 0.90391 0.0
H315 H 0.30043 0.94792 0.89872 0.0
H316 H 0.31223 0.93987 0.84367 0.0
H317 H 0.40233 0.05176 0.96074 0.0
H318 H 0.37061 0.03468 0.99012 0.0
H319 H 0.39195 0.0212 0.99271 0.0
H320 H 0.29651 0.97547 0.05908 0.0
H321 H 0.34936 0.9449 0.0677 0.0
H322 H 0.3018 0.98758 0.93083 0.0
H323 H 0.32445 0.01704 0.9623 0.0
H324 H 0.29247 0.99603 0.98848 0.0
H325 H 0.36597 0.9512 0.94037 0.0
H326 H 0.3761 0.94722 0.00115 0.0
H327 H 0.38998 0.9793 0.97341 0.0
C328 C 0.34557 0.38688 0.41459 0.0
C329 C 0.33751 0.37031 0.37319 0.0
C330 C 0.34856 0.37786 0.46084 0.0
C331 C 0.34336 0.35168 0.46573 0.0
C332 C 0.33538 0.33493 0.42403 0.0
C333 C 0.33254 0.34444 0.37832 0.0
C334 C 0.35709 0.39627 0.50457 0.0
C335 C 0.32964 0.30689 0.42778 0.0
C336 C 0.37142 0.33478 0.57724 0.0
C337 C 0.34981 0.32379 0.60935 0.0
C338 C 0.36957 0.34373 0.53013 0.0
C339 C 0.34552 0.34154 0.5148 0.0
C340 C 0.32348 0.32985 0.54653 0.0
C341 C 0.32589 0.32113 0.59339 0.0
C342 C 0.39346 0.35601 0.49717 0.0
C343 C 0.29745 0.32701 0.53138 0.0
H344 H 0.34951 0.4069 0.41092 0.0
H345 H 0.32637 0.33149 0.34653 0.0
H346 H 0.34168 0.38822 0.53352 0.0
H347 H 0.37519 0.39804 0.52101 0.0
H348 H 0.36092 0.4162 0.49439 0.0
H349 H 0.3242 0.2966 0.39159 0.0
H350 H 0.34705 0.30644 0.44235 0.0
H351 H 0.31331 0.29585 0.45414 0.0
H352 H 0.39 0.33698 0.58932 0.0
H353 H 0.30907 0.3126 0.61788 0.0
H354 H 0.39919 0.37674 0.48943 0.0
H355 H 0.3889 0.34559 0.46119 0.0
H356 H 0.41047 0.35556 0.51399 0.0
H357 H 0.29976 0.34667 0.52453 0.0
H358 H 0.28203 0.31688 0.55991 0.0
H359 H 0.29063 0.31576 0.49636 0.0
C360 C 0.94908 0.61087 0.94741 0.0
C361 C 0.95827 0.60348 0.90621 0.0
C362 C 0.96239 0.61644 0.99245 0.0
C363 C 0.98484 0.61359 -0.0034 0.0
C364 C 0.99349 0.60493 0.95564 0.0
C365 C 0.98034 0.60045 0.91036 0.0
C366 C 0.95306 0.62646 0.03487 0.0
C367 C 0.01682 0.60081 0.95946 0.0
C368 C 0.03344 0.65657 0.0934 0.0
C369 C 0.02515 0.63982 0.13432 0.0
C370 C 0.02091 0.648 0.04778 0.0
C371 C 0.00025 0.62176 0.04281 0.0
C372 C 0.99279 0.60432 0.0834 0.0
C373 C 0.00505 0.61375 0.12921 0.0
C374 C 0.02884 0.66741 0.00575 0.0
C375 C 0.97146 0.57597 0.07875 0.0
H376 H 0.93202 0.61328 0.94389 0.0
H377 H 0.98714 0.59439 0.87841 0.0
H378 H 0.94879 0.61364 0.06761 0.0
H379 H 0.96875 0.64644 0.04555 0.0
H380 H 0.93513 0.62737 0.02547 0.0
H381 H 0.01912 0.59116 0.92603 0.0
H382 H 0.03501 0.61998 0.9645 0.0
H383 H 0.01479 0.58859 0.99223 0.0
H384 H 0.049 0.67678 0.09763 0.0
H385 H -0.00101 0.60076 0.16091 0.0
H386 H 0.01211 0.67022 -0.00436 0.0
H387 H 0.03393 0.65977 0.9726 0.0
H388 H 0.04589 0.68685 0.01537 0.0
H389 H 0.95215 0.57485 0.07447 0.0
H390 H 0.97054 0.56421 0.11159 0.0
H391 H 0.97468 0.56696 0.04535 0.0
C392 C 0.38146 0.00795 0.3342 0.0
C393 C 0.35403 0.99546 0.33342 0.0
C394 C 0.3954 0.02025 0.37742 0.0
C395 C 0.3814 0.02037 0.41991 0.0
C396 C 0.35377 0.00901 0.41806 0.0
C397 C 0.34039 -0.00367 0.37497 0.0
C398 C 0.42478 0.03171 0.37845 0.0
C399 C 0.33816 0.00931 0.4622 0.0
C400 C 0.40135 0.02242 0.55262 0.0
C401 C 0.40743 0.04788 0.56588 0.0
C402 C 0.39538 0.01391 0.50351 0.0
C403 C 0.39501 0.03117 0.46743 0.0
C404 C 0.40329 0.05753 0.47989 0.0
C405 C 0.40962 0.06565 0.52903 0.0
C406 C 0.38735 0.98582 0.49113 0.0
C407 C 0.40297 0.07646 0.44256 0.0
H408 H 0.39185 0.00674 0.30208 0.0
H409 H 0.31913 0.98653 0.37403 0.0
H410 H 0.43456 0.05148 0.39567 0.0
H411 H 0.42961 0.019 0.40126 0.0
H412 H 0.43301 0.03321 0.34087 0.0
H413 H 0.3171 0.00145 0.45324 0.0
H414 H 0.33952 -0.00273 0.49235 0.0
H415 H 0.34633 0.02964 0.47642 0.0
H416 H 0.40003 0.00876 0.58091 0.0
H417 H 0.41447 0.08544 0.539 0.0
H418 H 0.39638 0.98478 0.45583 0.0
H419 H 0.36573 0.97427 0.48647 0.0
H420 H 0.39303 0.97648 0.52065 0.0
H421 H 0.4114 0.07501 0.40684 0.0
H422 H 0.41404 0.09711 0.45574 0.0
H423 H 0.38236 0.07139 0.43559 0.0
C424 C 0.3895 0.36883 0.8982 0.0
C425 C 0.36637 0.35354 0.87168 0.0
C426 C 0.38912 0.38084 0.94258 0.0
C427 C 0.36485 0.37662 0.96124 0.0
C428 C 0.34156 0.36206 0.93333 0.0
C429 C 0.34268 0.35091 0.88825 0.0
C430 C 0.41445 0.3969 0.97059 0.0
C431 C 0.31525 0.3568 0.95255 0.0
C432 C 0.35691 0.37528 0.09985 0.0
C433 C 0.35653 0.3986 0.10814 0.0
C434 C 0.35993 0.36806 0.05209 0.0
C435 C 0.36335 0.38499 0.01209 0.0
C436 C 0.36441 0.40926 0.02066 0.0
C437 C 0.36064 0.41564 0.06871 0.0
C438 C 0.35833 0.34183 0.0442 0.0
C439 C 0.36893 0.42814 0.97902 0.0
H440 H 0.40782 0.37099 0.88467 0.0
H441 H 0.32486 0.3389 0.86741 0.0
H442 H 0.41615 0.41564 0.98345 0.0
H443 H 0.4146 0.38593 0.00379 0.0
H444 H 0.4319 0.40139 0.94775 0.0
H445 H 0.29937 0.3467 0.92482 0.0
H446 H 0.31005 0.34429 0.98603 0.0
H447 H 0.31614 0.37543 0.96349 0.0
H448 H 0.35355 0.36204 0.1304 0.0
H449 H 0.36078 0.43389 0.07531 0.0
H450 H 0.37641 0.3446 0.02586 0.0
H451 H 0.34159 0.32943 0.01948 0.0
H452 H 0.35573 0.33107 0.07938 0.0
H453 H 0.38656 0.43197 0.95752 0.0
H454 H 0.37154 0.44716 0.99258 0.0
H455 H 0.35198 0.41933 0.95333 0.0
C456 C 0.9815 0.34058 0.5866 0.0
C457 C 0.95821 0.34029 0.59836 0.0
C458 C 0.99182 0.34673 0.53878 0.0
C459 C 0.97884 0.3535 0.50256 0.0
C460 C 0.95557 0.35379 0.51461 0.0
C461 C 0.94532 0.34684 0.56246 0.0
C462 C 0.01646 0.34578 0.52696 0.0
C463 C 0.94175 0.36172 0.47724 0.0
C464 C 0.02407 0.39266 0.3986 0.0
C465 C 0.01757 0.37318 0.36287 0.0
C466 C 0.01031 0.38689 0.44319 0.0
C467 C 0.99019 0.36083 0.45246 0.0
C468 C 0.98284 0.34132 0.41546 0.0
C469 C -0.00351 0.34789 0.37052 0.0
C470 C 0.01816 0.40836 0.48122 0.0
C471 C 0.96181 0.31322 0.42453 0.0
H472 H 0.99129 0.33531 0.61452 0.0
H473 H 0.92757 0.3471 0.57203 0.0
H474 H 0.01286 0.3324 0.49526 0.0
H475 H 0.03236 0.36556 0.516 0.0
H476 H 0.0234 0.33895 0.5588 0.0
H477 H 0.92386 0.36096 0.49266 0.0
H478 H 0.95525 0.38199 0.46414 0.0
H479 H 0.93607 0.34863 0.44452 0.0
H480 H 0.0402 0.41232 0.39195 0.0
H481 H 0.99171 0.33293 0.34255 0.0
H482 H 0.02814 0.40482 0.51259 0.0
H483 H 0.00056 0.40832 0.49617 0.0
H484 H 0.03169 0.42811 0.46574 0.0
H485 H 0.96862 0.30449 0.45323 0.0
H486 H 0.95694 0.30101 0.39059 0.0
H487 H 0.94368 0.31235 0.43862 0.0
C488 C 0.60744 0.98761 0.86219 0.0
C489 C 0.63486 0.00262 0.86211 0.0
C490 C 0.59389 0.97488 0.90541 0.0
C491 C 0.60833 0.97674 0.94856 0.0
C492 C 0.6361 0.99119 0.94783 0.0
C493 C 0.64901 0.00435 0.90475 0.0
C494 C 0.56427 0.96028 0.90546 0.0
C495 C 0.65223 0.99302 0.9927 0.0
C496 C 0.58464 0.96842 0.08021 0.0
C497 C 0.58103 0.94353 0.09104 0.0
C498 C 0.59113 0.97861 0.03222 0.0
C499 C 0.59481 0.96379 -0.00501 0.0
C500 C 0.58946 0.93797 0.00505 0.0
C501 C 0.58229 0.92801 0.05293 0.0
C502 C 0.59587 0.00592 0.02229 0.0
C503 C 0.59369 0.92176 0.96663 0.0
H504 H 0.59662 0.98677 0.82917 0.0
H505 H 0.67026 0.01607 0.90433 0.0
H506 H 0.55656 0.93985 0.91854 0.0
H507 H 0.55712 0.96994 0.9315 0.0
H508 H 0.55603 0.95973 0.86827 0.0
H509 H 0.67364 0.00373 0.98488 0.0
H510 H 0.64833 0.00335 0.02299 0.0
H511 H 0.64661 0.97306 0.00619 0.0
H512 H 0.5833 0.98029 0.10954 0.0
H513 H 0.57948 0.90871 0.06118 0.0
H514 H 0.58701 0.00659 0.98652 0.0
H515 H 0.61728 0.01981 0.01981 0.0
H516 H 0.5877 0.01281 0.05201 0.0
H517 H 0.58479 0.92226 0.93085 0.0
H518 H 0.58532 0.90096 0.97823 0.0
H519 H 0.61506 0.93017 0.96037 0.0
C520 C 0.62634 0.61837 0.33334 0.0
C521 C 0.63946 0.64583 0.33187 0.0
C522 C 0.62581 0.60525 0.37696 0.0
C523 C 0.63928 0.62012 0.41914 0.0
C524 C 0.6538 0.64789 0.41665 0.0
C525 C 0.65333 0.66042 0.37316 0.0
C526 C 0.60967 0.57566 0.37874 0.0
C527 C 0.669 0.66441 0.4605 0.0
C528 C 0.62061 0.59785 0.55099 0.0
C529 C 0.64021 0.59208 0.5641 0.0
C530 C 0.61876 0.60504 0.50245 0.0
C531 C 0.63739 0.6071 0.46691 0.0
C532 C 0.6563 0.5999 0.47936 0.0
C533 C 0.65731 0.5922 0.52781 0.0
C534 C 0.59786 0.61191 0.48998 0.0
C535 C 0.67675 0.60227 0.44268 0.0
H536 H 0.61519 0.60722 0.30143 0.0
H537 H 0.66334 0.6817 0.37169 0.0
H538 H 0.62122 0.56724 0.39477 0.0
H539 H 0.5924 0.56978 0.40303 0.0
H540 H 0.60256 0.56695 0.34158 0.0
H541 H 0.68107 0.68555 0.45097 0.0
H542 H 0.6552 0.66238 0.4904 0.0
H543 H 0.68213 0.65752 0.47532 0.0
H544 H 0.60719 0.59745 0.57892 0.0
H545 H 0.67253 0.58776 0.53785 0.0
H546 H 0.58808 0.60254 0.45467 0.0
H547 H 0.60704 0.63347 0.48513 0.0
H548 H 0.58273 0.60569 0.51939 0.0
H549 H 0.66753 0.59324 0.40683 0.0
H550 H 0.68793 0.59287 0.45625 0.0
H551 H 0.69078 0.62336 0.43569 0.0
C552 C 0.09881 0.59355 0.21877 0.0
C553 C 0.08124 0.59974 0.24198 0.0
C554 C 0.09827 0.56986 0.22879 0.0
C555 C 0.07936 0.55174 0.26209 0.0
C556 C 0.06164 0.5579 0.28582 0.0
C557 C 0.06296 0.58197 0.27583 0.0
C558 C 0.11782 0.56417 0.20354 0.0
C559 C 0.04096 0.53887 0.321 0.0
C560 C 0.06227 0.48055 0.25001 0.0
C561 C 0.0764 0.47813 0.2894 0.0
C562 C 0.06273 0.50431 0.24115 0.0
C563 C 0.07807 0.52625 0.27187 0.0
C564 C 0.09244 0.52395 0.31155 0.0
C565 C 0.09125 0.49985 0.3201 0.0
C566 C 0.0468 0.50594 0.19896 0.0
C567 C 0.10936 0.54705 0.34456 0.0
H568 H 0.11309 0.60729 0.1928 0.0
H569 H 0.04917 0.58654 0.29355 0.0
H570 H 0.1291 0.56006 0.23152 0.0
H571 H 0.10735 0.54638 0.18012 0.0
H572 H 0.13185 0.58074 0.18 0.0
H573 H 0.02867 0.54666 0.33641 0.0
H574 H 0.028 0.52011 0.30165 0.0
H575 H 0.05035 0.53431 0.35204 0.0
H576 H 0.05063 0.46378 0.22637 0.0
H577 H 0.10238 0.49817 0.3504 0.0
H578 H 0.05997 0.52085 0.17185 0.0
H579 H 0.0331 0.51232 0.21291 0.0
H580 H 0.03526 0.48686 0.17952 0.0
H581 H 0.12445 0.56344 0.32213 0.0
H582 H 0.11941 0.54202 0.37371 0.0
H583 H 0.09723 0.55431 0.36257 0.0
C584 C 0.52102 0.1058 0.69821 0.0
C585 C 0.49527 0.08781 0.71269 0.0
C586 C 0.54219 0.10286 0.7136 0.0
C587 C 0.53744 0.0812 0.7436 0.0
C588 C 0.51156 0.06319 0.75897 0.0
C589 C 0.49079 0.06681 0.74361 0.0
C590 C 0.5696 0.12268 0.69708 0.0
C591 C 0.50572 0.0397 0.79054 0.0
C592 C 0.588 0.05911 0.73823 0.0
C593 C 0.60205 0.06967 0.78212 0.0
C594 C 0.56668 0.0624 0.72565 0.0
C595 C 0.55946 0.0769 0.7574 0.0
C596 C 0.57348 0.08756 0.80182 0.0
C597 C 0.59451 0.08366 0.81383 0.0
C598 C 0.55195 0.05044 0.67826 0.0
C599 C 0.5665 0.1034 0.83627 0.0
H600 H 0.52466 0.12219 0.67463 0.0
H601 H 0.47094 0.05275 0.75478 0.0
H602 H 0.58274 0.13085 0.72957 0.0
H603 H 0.57764 0.11294 0.67338 0.0
H604 H 0.57012 0.13915 0.676 0.0
H605 H 0.48463 0.02798 0.80056 0.0
H606 H 0.5114 0.02681 0.77044 0.0
H607 H 0.51749 0.04616 0.82498 0.0
H608 H 0.59358 0.04811 0.7137 0.0
H609 H 0.60535 0.092 0.8477 0.0
H610 H 0.55342 0.06612 0.65341 0.0
H611 H 0.53082 0.03721 0.68626 0.0
H612 H 0.55958 0.03906 0.65839 0.0
H613 H 0.56837 0.12082 0.8166 0.0
H614 H 0.57923 0.11019 0.86956 0.0
H615 H 0.54577 0.09149 0.84831 0.0
C616 C 0.53132 0.58913 0.23605 0.0
C617 C 0.53648 0.60508 0.27786 0.0
C618 C 0.50668 0.56669 0.22908 0.0
C619 C 0.48658 0.56035 0.26431 0.0
C620 C 0.49178 0.57611 0.307 0.0
C621 C 0.51676 0.59818 0.31348 0.0
C622 C 0.50199 0.55009 0.18347 0.0
C623 C 0.47072 0.5702 0.34495 0.0
C624 C 0.41718 0.52115 0.21505 0.0
C625 C 0.40958 0.49576 0.23183 0.0
C626 C 0.44192 0.54243 0.2266 0.0
C627 C 0.4597 0.53816 0.25485 0.0
C628 C 0.45203 0.51265 0.27258 0.0
C629 C 0.42691 0.49175 0.26124 0.0
C630 C 0.44918 0.56944 0.20784 0.0
C631 C 0.47063 0.50731 0.30219 0.0
H632 H 0.54656 0.59421 0.20865 0.0
H633 H 0.52058 0.61048 0.3458 0.0
H634 H 0.49399 0.52921 0.19393 0.0
H635 H 0.48719 0.55112 0.15958 0.0
H636 H 0.52019 0.55658 0.16159 0.0
H637 H 0.47829 0.58365 0.37724 0.0
H638 H 0.45458 0.57207 0.32781 0.0
H639 H 0.46217 0.5497 0.35824 0.0
H640 H 0.40376 0.52439 0.19268 0.0
H641 H 0.42118 0.47213 0.27402 0.0
H642 H 0.46583 0.57641 0.18161 0.0
H643 H 0.45569 0.58363 0.23896 0.0
H644 H 0.43257 0.56969 0.18878 0.0
H645 H 0.4881 0.5118 0.27949 0.0
H646 H 0.46135 0.48656 0.31465 0.0
H647 H 0.4777 0.52029 0.33509 0.0
C648 C 0.92395 0.50669 0.75695 0.0
C649 C 0.90799 0.50516 0.79685 0.0
C650 C 0.92564 0.4847 0.74191 0.0
C651 C 0.91072 0.46054 0.76691 0.0
C652 C 0.89464 0.45886 0.80727 0.0
C653 C 0.89361 0.48124 0.82197 0.0
C654 C 0.94325 0.4873 0.69909 0.0
C655 C 0.87818 0.43332 0.8344 0.0
C656 C 0.89354 0.39776 0.69795 0.0
C657 C 0.91098 0.39071 0.71897 0.0
C658 C 0.89332 0.42047 0.71317 0.0
C659 C 0.91121 0.43674 0.74983 0.0
C660 C 0.92918 0.43002 0.77065 0.0
C661 C 0.92873 0.40697 0.75522 0.0
C662 C 0.87366 0.42683 0.69052 0.0
C663 C 0.94878 0.44712 0.80936 0.0
H664 H 0.93531 0.52515 0.7376 0.0
H665 H 0.88116 0.47986 0.85271 0.0
H666 H 0.9574 0.48098 0.71048 0.0
H667 H 0.93135 0.47424 0.66845 0.0
H668 H 0.95441 0.50774 0.68495 0.0
H669 H 0.86698 0.4354 0.86545 0.0
H670 H 0.8641 0.41824 0.80846 0.0
H671 H 0.89086 0.42591 0.84925 0.0
H672 H 0.87966 0.38525 0.67013 0.0
H673 H 0.94237 0.40174 0.77144 0.0
H674 H 0.88399 0.44649 0.67293 0.0
H675 H 0.8608 0.42757 0.71976 0.0
H676 H 0.86113 0.41217 0.6623 0.0
H677 H 0.96094 0.4674 0.7951 0.0
H678 H 0.96198 0.43958 0.82069 0.0
H679 H 0.93833 0.44829 0.84254 0.0
C680 C 0.39911 0.93298 0.23193 0.0
C681 C 0.38379 0.92378 0.2748 0.0
C682 C 0.42023 0.92864 0.22392 0.0
C683 C 0.42586 0.91437 0.25924 0.0
C684 C 0.41046 0.905 0.30256 0.0
C685 C 0.38973 0.91001 0.31004 0.0
C686 C 0.43649 0.93931 0.17762 0.0
C687 C 0.41565 0.88937 0.34065 0.0
C688 C 0.46437 0.88295 0.21106 0.0
C689 C 0.48985 0.90079 0.22719 0.0
C690 C 0.44319 0.88667 0.22268 0.0
C691 C 0.44769 0.90901 0.25035 0.0
C692 C 0.47325 0.92677 0.26769 0.0
C693 C 0.494 0.92232 0.25626 0.0
C694 C 0.41609 0.86704 0.20435 0.0
C695 C 0.47886 0.95099 0.29675 0.0
H696 H 0.39475 0.94381 0.20474 0.0
H697 H 0.37786 0.9027 0.34312 0.0
H698 H 0.45745 0.95219 0.18747 0.0
H699 H 0.43519 0.92291 0.15507 0.0
H700 H 0.43005 0.95072 0.15462 0.0
H701 H 0.40188 0.88352 0.37239 0.0
H702 H 0.41381 0.87137 0.32342 0.0
H703 H 0.43601 0.90102 0.3548 0.0
H704 H 0.461 0.86616 0.1889 0.0
H705 H 0.51367 0.93628 0.26859 0.0
H706 H 0.40933 0.87658 0.17735 0.0
H707 H 0.40193 0.86001 0.23548 0.0
H708 H 0.41559 0.84979 0.18629 0.0
H709 H 0.47458 0.96399 0.27361 0.0
H710 H 0.4996 0.96228 0.30923 0.0
H711 H 0.46591 0.94548 0.32961 0.0
C712 C 0.56574 0.50027 0.72454 0.0
C713 C 0.58224 0.49674 0.69178 0.0
C714 C 0.54159 0.47898 0.73919 0.0
C715 C 0.53396 0.45353 0.72121 0.0
C716 C 0.55045 0.44984 0.68801 0.0
C717 C 0.57432 0.47153 0.67341 0.0
C718 C 0.52432 0.48369 0.77416 0.0
C719 C 0.5431 0.42291 0.6686 0.0
C720 C 0.48536 0.39548 0.79761 0.0
C721 C 0.46203 0.38682 0.77086 0.0
C722 C 0.50892 0.4171 0.78168 0.0
C723 C 0.50909 0.43061 0.73833 0.0
C724 C 0.4856 0.42213 0.71132 0.0
C725 C 0.46236 0.4002 0.72772 0.0
C726 C 0.53367 0.42536 0.81109 0.0
C727 C 0.48501 0.4363 0.66524 0.0
H728 H 0.57163 0.51973 0.73859 0.0
H729 H 0.58701 0.46862 0.64827 0.0
H730 H 0.50455 0.47618 0.75775 0.0
H731 H 0.52173 0.47278 0.80906 0.0
H732 H 0.53261 0.50483 0.78311 0.0
H733 H 0.55795 0.42344 0.6425 0.0
H734 H 0.54098 0.40976 0.69982 0.0
H735 H 0.52388 0.4141 0.64945 0.0
H736 H 0.48532 0.38516 0.83081 0.0
H737 H 0.44438 0.39372 0.70702 0.0
H738 H 0.54184 0.44589 0.82409 0.0
H739 H 0.54876 0.4248 0.78728 0.0
H740 H 0.53025 0.41256 0.84367 0.0
H741 H 0.49193 0.45722 0.67388 0.0
H742 H 0.46505 0.42745 0.64892 0.0
H743 H 0.49855 0.4359 0.63715 0.0
C744 C 0.17515 0.45237 0.30807 0.0
C745 C 0.15591 0.43495 0.27505 0.0
C746 C 0.20134 0.45843 0.30367 0.0
C747 C 0.20827 0.44638 0.26592 0.0
C748 C 0.18918 0.42972 0.23112 0.0
C749 C 0.16323 0.4244 0.23584 0.0
C750 C 0.2213 0.47683 0.34062 0.0
C751 C 0.19585 0.41639 0.19045 0.0
C752 C 0.27781 0.46818 0.22599 0.0
C753 C 0.28208 0.4492 0.24889 0.0
C754 C 0.2545 0.4687 0.23385 0.0
C755 C 0.23491 0.44951 0.26464 0.0
C756 C 0.2399 0.43153 0.29063 0.0
C757 C 0.2636 0.43177 0.28279 0.0
C758 C 0.25018 0.48867 0.20668 0.0
C759 C 0.21943 0.41072 0.32375 0.0
H760 H 0.16961 0.46083 0.33815 0.0
H761 H 0.14841 0.41088 0.21035 0.0
H762 H 0.22707 0.46556 0.36548 0.0
H763 H 0.23932 0.4917 0.32148 0.0
H764 H 0.21354 0.48714 0.36357 0.0
H765 H 0.17904 0.40494 0.16517 0.0
H766 H 0.21265 0.43116 0.16843 0.0
H767 H 0.20186 0.40288 0.20685 0.0
H768 H 0.2922 0.4819 0.20015 0.0
H769 H 0.26675 0.41702 0.3005 0.0
H770 H 0.24168 0.49747 0.23168 0.0
H771 H 0.23599 0.47884 0.17617 0.0
H772 H 0.26869 0.50466 0.1907 0.0
H773 H 0.21199 0.41969 0.35071 0.0
H774 H 0.22717 0.39967 0.34435 0.0
H775 H 0.20249 0.3966 0.3011 0.0
C776 C 0.8368 0.24751 0.7829 0.0
C777 C 0.83689 0.26516 0.74803 0.0
C778 C 0.81374 0.22383 0.79287 0.0
C779 C 0.79027 0.21803 0.76796 0.0
C780 C 0.78975 0.23689 0.73628 0.0
C781 C 0.81316 0.26019 0.72638 0.0
C782 C 0.81503 0.20416 0.82693 0.0
C783 C 0.76493 0.2317 0.71014 0.0
C784 C 0.7435 0.14608 0.74129 0.0
C785 C 0.72551 0.13926 0.78009 0.0
C786 C 0.76447 0.17183 0.73654 0.0
C787 C 0.76717 0.19123 0.77093 0.0
C788 C 0.74841 0.18474 0.80885 0.0
C789 C 0.7279 0.15875 0.81323 0.0
C790 C 0.78423 0.17806 0.69568 0.0
C791 C 0.75034 0.20506 0.84544 0.0
H792 H 0.85509 0.25124 0.79965 0.0
H793 H 0.81311 0.27398 0.69981 0.0
H794 H 0.79882 0.19663 0.85422 0.0
H795 H 0.81265 0.18711 0.80503 0.0
H796 H 0.83398 0.21268 0.84715 0.0
H797 H 0.76685 0.24978 0.69308 0.0
H798 H 0.76027 0.21693 0.68057 0.0
H799 H 0.7481 0.22353 0.73613 0.0
H800 H 0.74177 0.13108 0.7157 0.0
H801 H 0.71384 0.15363 0.84301 0.0
H802 H 0.80393 0.18477 0.71183 0.0
H803 H 0.78568 0.19429 0.6725 0.0
H804 H 0.77905 0.16084 0.67156 0.0
H805 H 0.76813 0.21177 0.86858 0.0
H806 H 0.73296 0.19731 0.87012 0.0
H807 H 0.75235 0.22253 0.82574 0.0
C808 C 0.58684 0.74424 0.22687 0.0
C809 C 0.57968 0.72685 0.26675 0.0
C810 C 0.57915 0.76333 0.22514 0.0
C811 C 0.56358 0.7647 0.26378 0.0
C812 C 0.55534 0.74644 0.303 0.0
C813 C 0.56366 0.72786 0.30421 0.0
C814 C 0.58842 0.78261 0.18278 0.0
C815 C 0.53827 0.74693 0.34423 0.0
C816 C 0.56992 0.83171 0.27871 0.0
C817 C 0.54928 0.8291 0.24886 0.0
C818 C 0.57405 0.8104 0.28608 0.0
C819 C 0.55684 0.78591 0.26376 0.0
C820 C 0.53457 0.78257 0.23755 0.0
C821 C 0.53115 0.80429 0.23011 0.0
C822 C 0.59802 0.81471 0.31436 0.0
C823 C 0.51537 0.75656 0.21438 0.0
H824 H 0.59927 0.74358 0.19796 0.0
H825 H 0.5578 0.71423 0.3349 0.0
H826 H 0.57137 0.78191 0.16376 0.0
H827 H 0.60077 0.80287 0.19712 0.0
H828 H 0.60002 0.7786 0.15526 0.0
H829 H 0.53184 0.73005 0.36985 0.0
H830 H 0.54923 0.76537 0.36573 0.0
H831 H 0.52062 0.74662 0.32884 0.0
H832 H 0.58406 0.85085 0.29314 0.0
H833 H 0.51499 0.80213 0.2074 0.0
H834 H 0.61219 0.81377 0.28849 0.0
H835 H 0.59266 0.79903 0.34225 0.0
H836 H 0.60797 0.83405 0.33339 0.0
H837 H 0.52467 0.75286 0.18202 0.0
H838 H 0.4972 0.75617 0.20176 0.0
H839 H 0.50995 0.74026 0.24089 0.0
C840 C 0.82393 0.56335 0.74532 0.0
C841 C 0.82804 0.55111 0.78598 0.0
C842 C 0.799 0.55993 0.73547 0.0
C843 C 0.77768 0.54365 0.76672 0.0
C844 C 0.7814 0.53018 0.80629 0.0
C845 C 0.80659 0.53416 0.81559 0.0
C846 C 0.79571 0.57459 0.69279 0.0
C847 C 0.75902 0.5123 0.8398 0.0
C848 C 0.72372 0.56103 0.76761 0.0
C849 C 0.70689 0.54407 0.73113 0.0
C850 C 0.74627 0.56019 0.78157 0.0
C851 C 0.75181 0.54173 0.7589 0.0
C852 C 0.73371 0.52312 0.72522 0.0
C853 C 0.7115 0.52459 0.71155 0.0
C854 C 0.76512 0.5803 0.81783 0.0
C855 C 0.73866 0.50279 0.70111 0.0
H856 H 0.84039 0.5765 0.72235 0.0
H857 H 0.80956 0.52441 0.84685 0.0
H858 H 0.77996 0.56068 0.66774 0.0
H859 H 0.7897 0.58856 0.7069 0.0
H860 H 0.81405 0.58576 0.67104 0.0
H861 H 0.76465 0.50141 0.866 0.0
H862 H 0.75248 0.52407 0.86141 0.0
H863 H 0.74198 0.49792 0.8177 0.0
H864 H 0.72027 0.57613 0.78284 0.0
H865 H 0.69834 0.51119 0.68377 0.0
H866 H 0.78342 0.59431 0.79831 0.0
H867 H 0.77057 0.57067 0.84704 0.0
H868 H 0.75677 0.59158 0.83562 0.0
H869 H 0.75493 0.51253 0.67411 0.0
H870 H 0.72106 0.48756 0.68133 0.0
H871 H 0.74473 0.49302 0.72899 0.0
C872 C 0.24186 0.84796 0.23426 0.0
C873 C 0.26078 0.85654 0.27169 0.0
C874 C 0.2209 0.82202 0.23361 0.0
C875 C 0.21923 0.80423 0.27072 0.0
C876 C 0.23891 0.8125 0.3073 0.0
C877 C 0.25934 0.83864 0.30762 0.0
C878 C 0.2001 0.81389 0.19417 0.0
C879 C 0.23811 0.79391 0.34666 0.0
C880 C 0.15067 0.74751 0.29335 0.0
C881 C 0.15019 0.72841 0.26167 0.0
C882 C 0.17349 0.77204 0.2984 0.0
C883 C 0.19636 0.77723 0.27187 0.0
C884 C 0.19657 0.75719 0.24321 0.0
C885 C 0.17337 0.73306 0.23808 0.0
C886 C 0.17253 0.793 0.32921 0.0
C887 C 0.2208 0.76176 0.21553 0.0
H888 H 0.24287 0.86176 0.2066 0.0
H889 H 0.27414 0.84515 0.33633 0.0
H890 H 0.1983 0.79681 0.17328 0.0
H891 H 0.18078 0.80767 0.2116 0.0
H892 H 0.20446 0.83 0.1677 0.0
H893 H 0.25597 0.80293 0.37021 0.0
H894 H 0.22072 0.78782 0.37065 0.0
H895 H 0.23613 0.77585 0.32944 0.0
H896 H 0.13274 0.74402 0.31139 0.0
H897 H 0.17307 0.71819 0.21389 0.0
H898 H 0.17415 0.80888 0.30471 0.0
H899 H 0.18933 0.80195 0.35521 0.0
H900 H 0.15402 0.78517 0.3507 0.0
H901 H 0.22442 0.77531 0.1842 0.0
H902 H 0.21879 0.7432 0.20065 0.0
H903 H 0.23829 0.77115 0.23989 0.0
C904 C 0.42844 0.25968 0.8154 0.0
C905 C 0.41214 0.2631 0.78186 0.0
C906 C 0.43455 0.23967 0.80887 0.0
C907 C 0.42398 0.22255 0.76803 0.0
C908 C 0.40787 0.22611 0.73359 0.0
C909 C 0.40224 0.24645 0.74079 0.0
C910 C 0.45207 0.23666 0.84595 0.0
C911 C 0.39622 0.20814 0.68955 0.0
C912 C 0.45347 0.18266 0.71901 0.0
C913 C 0.43546 0.15744 0.7362 0.0
C914 C 0.45081 0.20438 0.73133 0.0
C915 C 0.42952 0.20071 0.76124 0.0
C916 C 0.41234 0.17567 0.78151 0.0
C917 C 0.41562 0.1543 0.76896 0.0
C918 C 0.46982 0.23091 0.70982 0.0
C919 C 0.38946 0.17107 0.81374 0.0
H920 H 0.43637 0.2726 0.84708 0.0
H921 H 0.3896 0.24891 0.71481 0.0
H922 H 0.44116 0.21723 0.86426 0.0
H923 H 0.46915 0.23738 0.82694 0.0
H924 H 0.45942 0.25218 0.87481 0.0
H925 H 0.3842 0.21363 0.66611 0.0
H926 H 0.41208 0.20864 0.66653 0.0
H927 H 0.38367 0.18759 0.70225 0.0
H928 H 0.46904 0.18526 0.6941 0.0
H929 H 0.40161 0.13487 0.7823 0.0
H930 H 0.47701 0.24627 0.73889 0.0
H931 H 0.45966 0.23629 0.68156 0.0
H932 H 0.48698 0.23108 0.69219 0.0
H933 H 0.39608 0.1858 0.84391 0.0
H934 H 0.37947 0.15111 0.83029 0.0
H935 H 0.37495 0.17342 0.79135 0.0
loop_
_geom_bond_atom_site_label_1
_geom_bond_atom_site_label_2
_geom_bond_distance
_geom_bond_site_symmetry_2
_ccdc_geom_bond_type
Mg0 O1 2.028 . S
Mg0 O7 1.986 . S
Mg0 O9 2.114 . S
Mg0 O10 2.251 . S
Mg0 O13 2.010 . S
O1 Mg0 2.028 . S
O1 C4 1.250 . S
O2 Mg3 2.028 . S
O2 C4 1.248 . S
Mg3 O2 2.028 . S
Mg3 O8 2.032 . S
Mg3 O10 2.079 . S
C4 O1 1.250 . S
C4 O2 1.248 . S
C5 O6 1.264 . S
C5 O13 1.249 . S
O6 C5 1.264 . S
O7 Mg0 1.986 . S
O7 C11 1.246 . S
O8 Mg3 2.032 . S
O8 C11 1.259 . S
O9 Mg0 2.114 . S
O9 C12 1.252 . S
O10 Mg0 2.251 . S
O10 Mg3 2.079 . S
O10 C12 1.273 . S
C11 O7 1.246 . S
C11 O8 1.259 . S
C12 O9 1.252 . S
C12 O10 1.273 . S
O13 Mg0 2.010 . S
O13 C5 1.249 . S
Mg14 O15 2.028 . S
Mg14 O21 1.986 . S
Mg14 O23 2.114 . S
Mg14 O24 2.251 . S
Mg14 O27 2.010 . S
O15 Mg14 2.028 . S
O15 C18 1.250 . S
O16 Mg17 2.028 . S
O16 C18 1.248 . S
Mg17 O16 2.028 . S
Mg17 O22 2.032 . S
Mg17 O24 2.079 . S
C18 O15 1.250 . S
C18 O16 1.248 . S
C19 O20 1.264 . S
C19 O27 1.249 . S
O20 C19 1.264 . S
O21 Mg14 1.986 . S
O21 C25 1.246 . S
O22 Mg17 2.032 . S
O22 C25 1.259 . S
O23 Mg14 2.114 . S
O23 C26 1.252 . S
O24 Mg14 2.251 . S
O24 Mg17 2.079 . S
O24 C26 1.273 . S
C25 O21 1.246 . S
C25 O22 1.259 . S
C26 O23 1.252 . S
C26 O24 1.273 . S
O27 Mg14 2.010 . S
O27 C19 1.249 . S
Mg28 O29 2.028 . S
Mg28 O35 1.986 . S
Mg28 O37 2.114 . S
Mg28 O38 2.251 . S
Mg28 O41 2.010 . S
O29 Mg28 2.028 . S
O29 C32 1.250 . S
O30 Mg31 2.028 . S
O30 C32 1.248 . S
Mg31 O30 2.028 . S
Mg31 O36 2.032 . S
Mg31 O38 2.079 . S
C32 O29 1.250 . S
C32 O30 1.248 . S
C33 O34 1.264 . S
C33 O41 1.249 . S
O34 C33 1.264 . S
O35 Mg28 1.986 . S
O35 C39 1.246 . S
O36 Mg31 2.032 . S
O36 C39 1.259 . S
O37 Mg28 2.114 . S
O37 C40 1.252 . S
O38 Mg28 2.251 . S
O38 Mg31 2.079 . S
O38 C40 1.273 . S
C39 O35 1.246 . S
C39 O36 1.259 . S
C40 O37 1.252 . S
C40 O38 1.273 . S
O41 Mg28 2.010 . S
O41 C33 1.249 . S
Mg42 O43 2.028 . S
Mg42 O49 1.986 . S
Mg42 O51 2.114 . S
Mg42 O52 2.251 . S
Mg42 O55 2.010 . S
O43 Mg42 2.028 . S
O43 C46 1.250 . S
O44 Mg45 2.028 . S
O44 C46 1.248 . S
Mg45 O44 2.028 . S
Mg45 O50 2.032 . S
Mg45 O52 2.079 . S
C46 O43 1.250 . S
C46 O44 1.248 . S
C47 O48 1.264 . S
C47 O55 1.249 . S
O48 C47 1.264 . S
O49 Mg42 1.986 . S
O49 C53 1.246 . S
O50 Mg45 2.032 . S
O50 C53 1.259 . S
O51 Mg42 2.114 . S
O51 C54 1.252 . S
O52 Mg42 2.251 . S
O52 Mg45 2.079 . S
O52 C54 1.273 . S
C53 O49 1.246 . S
C53 O50 1.259 . S
C54 O51 1.252 . S
C54 O52 1.273 . S
O55 Mg42 2.010 . S
O55 C47 1.249 . S
Mg56 O57 2.028 . S
Mg56 O63 1.986 . S
Mg56 O65 2.114 . S
Mg56 O66 2.251 . S
Mg56 O69 2.010 . S
O57 Mg56 2.028 . S
O57 C60 1.250 . S
O58 Mg59 2.028 . S
O58 C60 1.248 . S
Mg59 O58 2.028 . S
Mg59 O64 2.032 . S
Mg59 O66 2.079 . S
C60 O57 1.250 . S
C60 O58 1.248 . S
C61 O62 1.264 . S
C61 O69 1.249 . S
O62 C61 1.264 . S
O63 Mg56 1.986 . S
O63 C67 1.246 . S
O64 Mg59 2.032 . S
O64 C67 1.259 . S
O65 Mg56 2.114 . S
O65 C68 1.252 . S
O66 Mg56 2.251 . S
O66 Mg59 2.079 . S
O66 C68 1.273 . S
C67 O63 1.246 . S
C67 O64 1.259 . S
C68 O65 1.252 . S
C68 O66 1.273 . S
O69 Mg56 2.010 . S
O69 C61 1.249 . S
Mg70 O71 2.028 . S
Mg70 O77 1.986 . S
Mg70 O79 2.114 . S
Mg70 O80 2.251 . S
Mg70 O83 2.010 . S
O71 Mg70 2.028 . S
O71 C74 1.250 . S
O72 Mg73 2.028 . S
O72 C74 1.248 . S
Mg73 O72 2.028 . S
Mg73 O78 2.032 . S
Mg73 O80 2.079 . S
C74 O71 1.250 . S
C74 O72 1.248 . S
C75 O76 1.264 . S
C75 O83 1.249 . S
O76 C75 1.264 . S
O77 Mg70 1.986 . S
O77 C81 1.246 . S
O78 Mg73 2.032 . S
O78 C81 1.259 . S
O79 Mg70 2.114 . S
O79 C82 1.252 . S
O80 Mg70 2.251 . S
O80 Mg73 2.079 . S
O80 C82 1.273 . S
C81 O77 1.246 . S
C81 O78 1.259 . S
C82 O79 1.252 . S
C82 O80 1.273 . S
O83 Mg70 2.010 . S
O83 C75 1.249 . S
Mg84 O85 2.028 . S
Mg84 O91 1.986 . S
Mg84 O93 2.114 . S
Mg84 O94 2.251 . S
Mg84 O97 2.010 . S
O85 Mg84 2.028 . S
O85 C88 1.250 . S
O86 Mg87 2.028 . S
O86 C88 1.248 . S
Mg87 O86 2.028 . S
Mg87 O92 2.032 . S
Mg87 O94 2.079 . S
C88 O85 1.250 . S
C88 O86 1.248 . S
C89 O90 1.264 . S
C89 O97 1.249 . S
O90 C89 1.264 . S
O91 Mg84 1.986 . S
O91 C95 1.246 . S
O92 Mg87 2.032 . S
O92 C95 1.259 . S
O93 Mg84 2.114 . S
O93 C96 1.252 . S
O94 Mg84 2.251 . S
O94 Mg87 2.079 . S
O94 C96 1.273 . S
C95 O91 1.246 . S
C95 O92 1.259 . S
C96 O93 1.252 . S
C96 O94 1.273 . S
O97 Mg84 2.010 . S
O97 C89 1.249 . S
Mg98 O99 2.028 . S
Mg98 O105 1.986 . S
Mg98 O107 2.114 . S
Mg98 O108 2.251 . S
Mg98 O111 2.010 . S
O99 Mg98 2.028 . S
O99 C102 1.250 . S
O100 Mg101 2.028 . S
O100 C102 1.248 . S
Mg101 O100 2.028 . S
Mg101 O106 2.032 . S
Mg101 O108 2.079 . S
C102 O99 1.250 . S
C102 O100 1.248 . S
C103 O104 1.264 . S
C103 O111 1.249 . S
O104 C103 1.264 . S
O105 Mg98 1.986 . S
O105 C109 1.246 . S
O106 Mg101 2.032 . S
O106 C109 1.259 . S
O107 Mg98 2.114 . S
O107 C110 1.252 . S
O108 Mg98 2.251 . S
O108 Mg101 2.079 . S
O108 C110 1.273 . S
C109 O105 1.246 . S
C109 O106 1.259 . S
C110 O107 1.252 . S
C110 O108 1.273 . S
O111 Mg98 2.010 . S
O111 C103 1.249 . S
Mg112 O113 2.028 . S
Mg112 O119 1.986 . S
Mg112 O121 2.114 . S
Mg112 O122 2.251 . S
Mg112 O125 2.010 . S
O113 Mg112 2.028 . S
O113 C116 1.250 . S
O114 Mg115 2.028 . S
O114 C116 1.248 . S
Mg115 O114 2.028 . S
Mg115 O120 2.032 . S
Mg115 O122 2.079 . S
C116 O113 1.250 . S
C116 O114 1.248 . S
C117 O118 1.264 . S
C117 O125 1.249 . S
O118 C117 1.264 . S
O119 Mg112 1.986 . S
O119 C123 1.246 . S
O120 Mg115 2.032 . S
O120 C123 1.259 . S
O121 Mg112 2.114 . S
O121 C124 1.252 . S
O122 Mg112 2.251 . S
O122 Mg115 2.079 . S
O122 C124 1.273 . S
C123 O119 1.246 . S
C123 O120 1.259 . S
C124 O121 1.252 . S
C124 O122 1.273 . S
O125 Mg112 2.010 . S
O125 C117 1.249 . S
Mg126 O127 2.028 . S
Mg126 O133 1.986 . S
Mg126 O135 2.114 . S
Mg126 O136 2.251 . S
Mg126 O139 2.010 . S
O127 Mg126 2.028 . S
O127 C130 1.250 . S
O128 Mg129 2.028 . S
O128 C130 1.248 . S
Mg129 O128 2.028 . S
Mg129 O134 2.032 . S
Mg129 O136 2.079 . S
C130 O127 1.250 . S
C130 O128 1.248 . S
C131 O132 1.264 . S
C131 O139 1.249 . S
O132 C131 1.264 . S
O133 Mg126 1.986 . S
O133 C137 1.246 . S
O134 Mg129 2.032 . S
O134 C137 1.259 . S
O135 Mg126 2.114 . S
O135 C138 1.252 . S
O136 Mg126 2.251 . S
O136 Mg129 2.079 . S
O136 C138 1.273 . S
C137 O133 1.246 . S
C137 O134 1.259 . S
C138 O135 1.252 . S
C138 O136 1.273 . S
O139 Mg126 2.010 . S
O139 C131 1.249 . S
Mg140 O141 2.028 . S
Mg140 O147 1.986 . S
Mg140 O149 2.114 . S
Mg140 O150 2.251 . S
Mg140 O153 2.010 . S
O141 Mg140 2.028 . S
O141 C144 1.250 . S
O142 Mg143 2.028 . S
O142 C144 1.248 . S
Mg143 O142 2.028 . S
Mg143 O148 2.032 . S
Mg143 O150 2.079 . S
C144 O141 1.250 . S
C144 O142 1.248 . S
C145 O146 1.264 . S
C145 O153 1.249 . S
O146 C145 1.264 . S
O147 Mg140 1.986 . S
O147 C151 1.246 . S
O148 Mg143 2.032 . S
O148 C151 1.259 . S
O149 Mg140 2.114 . S
O149 C152 1.252 . S
O150 Mg140 2.251 . S
O150 Mg143 2.079 . S
O150 C152 1.273 . S
C151 O147 1.246 . S
C151 O148 1.259 . S
C152 O149 1.252 . S
C152 O150 1.273 . S
O153 Mg140 2.010 . S
O153 C145 1.249 . S
Mg154 O155 2.028 . S
Mg154 O161 1.986 . S
Mg154 O163 2.114 . S
Mg154 O164 2.251 . S
Mg154 O167 2.010 . S
O155 Mg154 2.028 . S
O155 C158 1.250 . S
O156 Mg157 2.028 . S
O156 C158 1.248 . S
Mg157 O156 2.028 . S
Mg157 O162 2.032 . S
Mg157 O164 2.079 . S
C158 O155 1.250 . S
C158 O156 1.248 . S
C159 O160 1.264 . S
C159 O167 1.249 . S
O160 C159 1.264 . S
O161 Mg154 1.986 . S
O161 C165 1.246 . S
O162 Mg157 2.032 . S
O162 C165 1.259 . S
O163 Mg154 2.114 . S
O163 C166 1.252 . S
O164 Mg154 2.251 . S
O164 Mg157 2.079 . S
O164 C166 1.273 . S
C165 O161 1.246 . S
C165 O162 1.259 . S
C166 O163 1.252 . S
C166 O164 1.273 . S
O167 Mg154 2.010 . S
O167 C159 1.249 . S
C168 C169 1.391 . S
C168 C170 1.394 . S
C168 H184 0.931 . S
C169 C168 1.391 . S
C169 C173 1.376 . S
C170 C168 1.394 . S
C170 C171 1.369 . S
C170 C174 1.531 . S
C171 C170 1.369 . S
C171 C172 1.410 1_455 S
C171 C179 1.503 1_454 S
C172 C171 1.410 1_655 S
C172 C173 1.392 1_655 S
C172 C175 1.511 . S
C173 C169 1.376 . S
C173 C172 1.392 1_455 S
C173 H185 0.929 . S
C174 C170 1.531 . S
C174 H186 0.960 1_554 S
C174 H187 0.962 1_554 S
C174 H188 0.960 . S
C175 C172 1.511 . S
C175 H189 0.961 . S
C175 H190 0.961 . S
C175 H191 0.961 . S
C176 C177 1.370 . S
C176 C178 1.363 1_655 S
C176 H192 0.931 . S
C177 C176 1.370 . S
C177 C181 1.408 . S
C178 C176 1.363 1_455 S
C178 C179 1.370 1_455 S
C178 C182 1.524 . S
C179 C171 1.503 1_656 S
C179 C178 1.370 1_655 S
C179 C180 1.403 . S
C180 C179 1.403 . S
C180 C181 1.404 . S
C180 C183 1.539 1_556 S
C181 C177 1.408 . S
C181 C180 1.404 . S
C181 H193 0.930 . S
C182 C178 1.524 . S
C182 H194 0.956 . S
C182 H195 0.961 . S
C182 H196 0.961 . S
C183 C180 1.539 1_554 S
C183 H197 0.958 . S
C183 H198 0.961 . S
C183 H199 0.960 . S
H184 C168 0.931 . S
H185 C173 0.929 . S
H186 C174 0.960 1_556 S
H187 C174 0.962 1_556 S
H188 C174 0.960 . S
H189 C175 0.961 . S
H190 C175 0.961 . S
H191 C175 0.961 . S
H192 C176 0.931 . S
H193 C181 0.930 . S
H194 C182 0.956 . S
H195 C182 0.961 . S
H196 C182 0.961 . S
H197 C183 0.958 . S
H198 C183 0.961 . S
H199 C183 0.960 . S
C200 C201 1.391 . S
C200 C202 1.394 . S
C200 H216 0.931 . S
C201 C200 1.391 . S
C201 C205 1.376 . S
C202 C200 1.394 . S
C202 C203 1.369 . S
C202 C206 1.531 . S
C203 C202 1.369 . S
C203 C204 1.410 . S
C203 C211 1.503 1_565 S
C204 C203 1.410 . S
C204 C205 1.392 . S
C204 C207 1.511 1_565 S
C205 C201 1.376 . S
C205 C204 1.392 . S
C205 H217 0.929 . S
C206 C202 1.531 . S
C206 H218 0.960 . S
C206 H219 0.962 . S
C206 H220 0.960 . S
C207 C204 1.511 1_545 S
C207 H221 0.961 . S
C207 H222 0.961 . S
C207 H223 0.961 . S
C208 C209 1.370 . S
C208 C210 1.363 . S
C208 H224 0.931 . S
C209 C208 1.370 . S
C209 C213 1.408 . S
C210 C208 1.363 . S
C210 C211 1.370 . S
C210 C214 1.524 . S
C211 C203 1.503 1_545 S
C211 C210 1.370 . S
C211 C212 1.403 1_545 S
C212 C211 1.403 1_565 S
C212 C213 1.404 1_565 S
C212 C215 1.539 . S
C213 C209 1.408 . S
C213 C212 1.404 1_545 S
C213 H225 0.930 . S
C214 C210 1.524 . S
C214 H226 0.956 . S
C214 H227 0.961 . S
C214 H228 0.961 . S
C215 C212 1.539 . S
C215 H229 0.958 . S
C215 H230 0.961 . S
C215 H231 0.960 . S
H216 C200 0.931 . S
H217 C205 0.929 . S
H218 C206 0.960 . S
H219 C206 0.962 . S
H220 C206 0.960 . S
H221 C207 0.961 . S
H222 C207 0.961 . S
H223 C207 0.961 . S
H224 C208 0.931 . S
H225 C213 0.930 . S
H226 C214 0.956 . S
H227 C214 0.961 . S
H228 C214 0.961 . S
H229 C215 0.958 . S
H230 C215 0.961 . S
H231 C215 0.960 . S
C232 C233 1.391 . S
C232 C234 1.394 . S
C232 H248 0.931 . S
C233 C232 1.391 . S
C233 C237 1.376 . S
C234 C232 1.394 . S
C234 C235 1.369 . S
C234 C238 1.531 . S
C235 C234 1.369 . S
C235 C236 1.410 . S
C235 C243 1.503 1_554 S
C236 C235 1.410 . S
C236 C237 1.392 . S
C236 C239 1.511 . S
C237 C233 1.376 . S
C237 C236 1.392 . S
C237 H249 0.929 . S
C238 C234 1.531 . S
C238 H250 0.960 . S
C238 H251 0.962 . S
C238 H252 0.960 . S
C239 C236 1.511 . S
C239 H253 0.961 . S
C239 H254 0.961 1_554 S
C239 H255 0.961 . S
C240 C241 1.370 . S
C240 C242 1.363 . S
C240 H256 0.931 . S
C241 C240 1.370 . S
C241 C245 1.408 . S
C242 C240 1.363 . S
C242 C243 1.370 . S
C242 C246 1.524 . S
C243 C235 1.503 1_556 S
C243 C242 1.370 . S
C243 C244 1.403 . S
C244 C243 1.403 . S
C244 C245 1.404 . S
C244 C247 1.539 1_556 S
C245 C241 1.408 . S
C245 C244 1.404 . S
C245 H257 0.930 . S
C246 C242 1.524 . S
C246 H258 0.956 . S
C246 H259 0.961 . S
C246 H260 0.961 . S
C247 C244 1.539 1_554 S
C247 H261 0.958 . S
C247 H262 0.961 . S
C247 H263 0.960 . S
H248 C232 0.931 . S
H249 C237 0.929 . S
H250 C238 0.960 . S
H251 C238 0.962 . S
H252 C238 0.960 . S
H253 C239 0.961 . S
H254 C239 0.961 1_556 S
H255 C239 0.961 . S
H256 C240 0.931 . S
H257 C245 0.930 . S
H258 C246 0.956 . S
H259 C246 0.961 . S
H260 C246 0.961 . S
H261 C247 0.958 . S
H262 C247 0.961 . S
H263 C247 0.960 . S
C264 C265 1.391 . S
C264 C266 1.394 . S
C264 H280 0.931 . S
C265 C264 1.391 . S
C265 C269 1.376 . S
C266 C264 1.394 . S
C266 C267 1.369 . S
C266 C270 1.531 1_455 S
C267 C266 1.369 . S
C267 C268 1.410 . S
C267 C275 1.503 1_455 S
C268 C267 1.410 . S
C268 C269 1.392 . S
C268 C271 1.511 . S
C269 C265 1.376 . S
C269 C268 1.392 . S
C269 H281 0.929 . S
C270 C266 1.531 1_655 S
C270 H282 0.960 . S
C270 H283 0.962 1_655 S
C270 H284 0.960 . S
C271 C268 1.511 . S
C271 H285 0.961 . S
C271 H286 0.961 . S
C271 H287 0.961 1_455 S
C272 C273 1.370 . S
C272 C274 1.363 1_655 S
C272 H288 0.931 1_655 S
C273 C272 1.370 . S
C273 C277 1.408 . S
C274 C272 1.363 1_455 S
C274 C275 1.370 1_455 S
C274 C278 1.524 . S
C275 C267 1.503 1_655 S
C275 C274 1.370 1_655 S
C275 C276 1.403 . S
C276 C275 1.403 . S
C276 C277 1.404 . S
C276 C279 1.539 . S
C277 C273 1.408 . S
C277 C276 1.404 . S
C277 H289 0.930 . S
C278 C274 1.524 . S
C278 H290 0.956 . S
C278 H291 0.961 . S
C278 H292 0.961 . S
C279 C276 1.539 . S
C279 H293 0.958 . S
C279 H294 0.961 . S
C279 H295 0.960 . S
H280 C264 0.931 . S
H281 C269 0.929 . S
H282 C270 0.960 . S
H283 C270 0.962 1_455 S
H284 C270 0.960 . S
H285 C271 0.961 . S
H286 C271 0.961 . S
H287 C271 0.961 1_655 S
H288 C272 0.931 1_455 S
H289 C277 0.930 . S
H290 C278 0.956 . S
H291 C278 0.961 . S
H292 C278 0.961 . S
H293 C279 0.958 . S
H294 C279 0.961 . S
H295 C279 0.960 . S
C296 C297 1.391 . S
C296 C298 1.394 1_545 S
C296 H312 0.931 . S
C297 C296 1.391 . S
C297 C301 1.376 . S
C298 C296 1.394 1_565 S
C298 C299 1.369 1_565 S
C298 C302 1.531 . S
C299 C298 1.369 1_545 S
C299 C300 1.410 . S
C299 C307 1.503 1_546 S
C300 C299 1.410 . S
C300 C301 1.392 . S
C300 C303 1.511 1_556 S
C301 C297 1.376 . S
C301 C300 1.392 . S
C301 H313 0.929 . S
C302 C298 1.531 . S
C302 H314 0.960 . S
C302 H315 0.962 . S
C302 H316 0.960 . S
C303 C300 1.511 1_554 S
C303 H317 0.961 . S
C303 H318 0.961 . S
C303 H319 0.961 . S
C304 C305 1.370 . S
C304 C306 1.363 . S
C304 H320 0.931 . S
C305 C304 1.370 . S
C305 C309 1.408 . S
C306 C304 1.363 . S
C306 C307 1.370 . S
C306 C310 1.524 1_565 S
C307 C299 1.503 1_564 S
C307 C306 1.370 . S
C307 C308 1.403 . S
C308 C307 1.403 . S
C308 C309 1.404 . S
C308 C311 1.539 1_554 S
C309 C305 1.408 . S
C309 C308 1.404 . S
C309 H321 0.930 . S
C310 C306 1.524 1_545 S
C310 H322 0.956 . S
C310 H323 0.961 . S
C310 H324 0.961 . S
C311 C308 1.539 1_556 S
C311 H325 0.958 . S
C311 H326 0.961 1_556 S
C311 H327 0.960 . S
H312 C296 0.931 . S
H313 C301 0.929 . S
H314 C302 0.960 . S
H315 C302 0.962 . S
H316 C302 0.960 . S
H317 C303 0.961 . S
H318 C303 0.961 . S
H319 C303 0.961 . S
H320 C304 0.931 . S
H321 C309 0.930 . S
H322 C310 0.956 . S
H323 C310 0.961 . S
H324 C310 0.961 . S
H325 C311 0.958 . S
H326 C311 0.961 1_554 S
H327 C311 0.960 . S
C328 C329 1.391 . S
C328 C330 1.394 . S
C328 H344 0.931 . S
C329 C328 1.391 . S
C329 C333 1.376 . S
C330 C328 1.394 . S
C330 C331 1.369 . S
C330 C334 1.531 . S
C331 C330 1.369 . S
C331 C332 1.410 . S
C331 C339 1.503 . S
C332 C331 1.410 . S
C332 C333 1.392 . S
C332 C335 1.511 . S
C333 C329 1.376 . S
C333 C332 1.392 . S
C333 H345 0.929 . S
C334 C330 1.531 . S
C334 H346 0.960 . S
C334 H347 0.962 . S
C334 H348 0.960 . S
C335 C332 1.511 . S
C335 H349 0.961 . S
C335 H350 0.961 . S
C335 H351 0.961 . S
C336 C337 1.370 . S
C336 C338 1.363 . S
C336 H352 0.931 . S
C337 C336 1.370 . S
C337 C341 1.408 . S
C338 C336 1.363 . S
C338 C339 1.370 . S
C338 C342 1.524 . S
C339 C331 1.503 . S
C339 C338 1.370 . S
C339 C340 1.403 . S
C340 C339 1.403 . S
C340 C341 1.404 . S
C340 C343 1.539 . S
C341 C337 1.408 . S
C341 C340 1.404 . S
C341 H353 0.930 . S
C342 C338 1.524 . S
C342 H354 0.956 . S
C342 H355 0.961 . S
C342 H356 0.961 . S
C343 C340 1.539 . S
C343 H357 0.958 . S
C343 H358 0.961 . S
C343 H359 0.960 . S
H344 C328 0.931 . S
H345 C333 0.929 . S
H346 C334 0.960 . S
H347 C334 0.962 . S
H348 C334 0.960 . S
H349 C335 0.961 . S
H350 C335 0.961 . S
H351 C335 0.961 . S
H352 C336 0.931 . S
H353 C341 0.930 . S
H354 C342 0.956 . S
H355 C342 0.961 . S
H356 C342 0.961 . S
H357 C343 0.958 . S
H358 C343 0.961 . S
H359 C343 0.960 . S
C360 C361 1.391 . S
C360 C362 1.394 . S
C360 H376 0.931 . S
C361 C360 1.391 . S
C361 C365 1.376 . S
C362 C360 1.394 . S
C362 C363 1.369 . S
C362 C366 1.531 1_556 S
C363 C362 1.369 . S
C363 C364 1.410 1_655 S
C363 C371 1.503 1_656 S
C364 C363 1.410 1_455 S
C364 C365 1.392 1_455 S
C364 C367 1.511 . S
C365 C361 1.376 . S
C365 C364 1.392 1_655 S
C365 H377 0.953 . S
C366 C362 1.531 1_554 S
C366 H378 0.960 . S
C366 H379 0.962 . S
C366 H380 0.960 . S
C367 C364 1.511 . S
C367 H381 0.961 . S
C367 H382 0.961 . S
C367 H383 0.961 . S
C368 C369 1.370 . S
C368 C370 1.363 . S
C368 H384 0.931 . S
C369 C368 1.370 . S
C369 C373 1.408 . S
C370 C368 1.363 . S
C370 C371 1.370 . S
C370 C374 1.524 . S
C371 C363 1.503 1_454 S
C371 C370 1.370 . S
C371 C372 1.403 . S
C372 C371 1.403 . S
C372 C373 1.404 . S
C372 C375 1.539 . S
C373 C369 1.408 . S
C373 C372 1.404 . S
C373 H385 0.930 . S
C374 C370 1.524 . S
C374 H386 0.956 1_455 S
C374 H387 0.961 1_554 S
C374 H388 0.961 . S
C375 C372 1.539 . S
C375 H389 0.958 1_455 S
C375 H390 0.961 . S
C375 H391 0.960 1_554 S
H376 C360 0.931 . S
H377 C365 0.953 . S
H378 C366 0.960 . S
H379 C366 0.962 . S
H380 C366 0.960 . S
H381 C367 0.961 . S
H382 C367 0.961 . S
H383 C367 0.961 . S
H384 C368 0.931 . S
H385 C373 0.930 . S
H386 C374 0.956 1_655 S
H387 C374 0.961 1_556 S
H388 C374 0.961 . S
H389 C375 0.958 1_655 S
H390 C375 0.961 . S
H391 C375 0.960 1_556 S
C392 C393 1.391 . S
C392 C394 1.394 . S
C392 H408 0.931 . S
C393 C392 1.391 . S
C393 C397 1.376 . S
C394 C392 1.394 . S
C394 C395 1.369 . S
C394 C398 1.531 1_565 S
C395 C394 1.369 . S
C395 C396 1.410 . S
C395 C403 1.503 1_565 S
C396 C395 1.410 . S
C396 C397 1.392 . S
C396 C399 1.511 . S
C397 C393 1.376 . S
C397 C396 1.392 . S
C397 H409 0.929 . S
C398 C394 1.531 1_545 S
C398 H410 0.960 . S
C398 H411 0.962 . S
C398 H412 0.960 . S
C399 C396 1.511 . S
C399 H413 0.961 . S
C399 H414 0.961 . S
C399 H415 0.961 . S
C400 C401 1.370 . S
C400 C402 1.345 1_545 S
C400 H416 0.931 . S
C401 C400 1.370 . S
C401 C405 1.408 . S
C402 C400 1.345 1_565 S
C402 C403 1.344 1_565 S
C402 C406 1.570 . S
C403 C395 1.503 1_545 S
C403 C402 1.344 1_545 S
C403 C404 1.403 . S
C404 C403 1.403 . S
C404 C405 1.404 . S
C404 C407 1.539 . S
C405 C401 1.408 . S
C405 C404 1.404 . S
C405 H417 0.930 . S
C406 C402 1.570 . S
C406 H418 0.956 . S
C406 H419 0.961 . S
C406 H420 0.961 . S
C407 C404 1.539 . S
C407 H421 0.958 . S
C407 H422 0.961 . S
C407 H423 0.960 . S
H408 C392 0.931 . S
H409 C397 0.929 . S
H410 C398 0.960 . S
H411 C398 0.962 . S
H412 C398 0.960 . S
H413 C399 0.961 . S
H414 C399 0.961 . S
H415 C399 0.961 . S
H416 C400 0.931 . S
H417 C405 0.930 . S
H418 C406 0.956 . S
H419 C406 0.961 . S
H420 C406 0.961 . S
H421 C407 0.958 . S
H422 C407 0.961 . S
H423 C407 0.960 . S
C424 C425 1.391 . S
C424 C426 1.394 . S
C424 H440 0.931 . S
C425 C424 1.391 . S
C425 C429 1.376 . S
C426 C424 1.394 . S
C426 C427 1.369 . S
C426 C430 1.531 . S
C427 C426 1.369 . S
C427 C428 1.410 . S
C427 C435 1.503 1_556 S
C428 C427 1.410 . S
C428 C429 1.392 . S
C428 C431 1.511 . S
C429 C425 1.376 . S
C429 C428 1.392 . S
C429 H441 0.929 . S
C430 C426 1.531 . S
C430 H442 0.960 1_556 S
C430 H443 0.962 1_556 S
C430 H444 0.960 . S
C431 C428 1.511 . S
C431 H445 0.961 . S
C431 H446 0.961 . S
C431 H447 0.961 . S
C432 C433 1.370 . S
C432 C434 1.363 . S
C432 H448 0.931 . S
C433 C432 1.370 . S
C433 C437 1.408 . S
C434 C432 1.363 . S
C434 C435 1.370 . S
C434 C438 1.524 . S
C435 C427 1.503 1_554 S
C435 C434 1.370 . S
C435 C436 1.403 . S
C436 C435 1.403 . S
C436 C437 1.404 . S
C436 C439 1.539 1_554 S
C437 C433 1.408 . S
C437 C436 1.404 . S
C437 H449 0.930 . S
C438 C434 1.524 . S
C438 H450 0.956 . S
C438 H451 0.961 . S
C438 H452 0.961 . S
C439 C436 1.539 1_556 S
C439 H453 0.958 . S
C439 H454 0.961 . S
C439 H455 0.960 . S
H440 C424 0.931 . S
H441 C429 0.929 . S
H442 C430 0.960 1_554 S
H443 C430 0.962 1_554 S
H444 C430 0.960 . S
H445 C431 0.961 . S
H446 C431 0.961 . S
H447 C431 0.961 . S
H448 C432 0.931 . S
H449 C437 0.930 . S
H450 C438 0.956 . S
H451 C438 0.961 . S
H452 C438 0.961 . S
H453 C439 0.958 . S
H454 C439 0.961 . S
H455 C439 0.960 . S
C456 C457 1.391 . S
C456 C458 1.394 . S
C456 H472 0.931 . S
C457 C456 1.391 . S
C457 C461 1.376 . S
C458 C456 1.394 . S
C458 C459 1.369 . S
C458 C462 1.531 1_655 S
C459 C458 1.369 . S
C459 C460 1.410 . S
C459 C467 1.503 1_655 S
C460 C459 1.410 . S
C460 C461 1.392 . S
C460 C463 1.511 . S
C461 C457 1.376 . S
C461 C460 1.392 . S
C461 H473 0.929 . S
C462 C458 1.531 1_455 S
C462 H474 0.960 . S
C462 H475 0.962 . S
C462 H476 0.960 . S
C463 C460 1.511 . S
C463 H477 0.961 . S
C463 H478 0.961 . S
C463 H479 0.961 . S
C464 C465 1.370 . S
C464 C466 1.363 . S
C464 H480 0.931 . S
C465 C464 1.370 . S
C465 C469 1.408 . S
C466 C464 1.363 . S
C466 C467 1.370 . S
C466 C470 1.524 . S
C467 C459 1.503 1_455 S
C467 C466 1.370 . S
C467 C468 1.403 1_455 S
C468 C467 1.403 1_655 S
C468 C469 1.404 1_655 S
C468 C471 1.539 . S
C469 C465 1.408 . S
C469 C468 1.404 1_455 S
C469 H481 0.930 . S
C470 C466 1.524 . S
C470 H482 0.956 . S
C470 H483 0.961 . S
C470 H484 0.961 . S
C471 C468 1.539 . S
C471 H485 0.958 . S
C471 H486 0.961 . S
C471 H487 0.960 . S
H472 C456 0.931 . S
H473 C461 0.929 . S
H474 C462 0.960 . S
H475 C462 0.962 . S
H476 C462 0.960 . S
H477 C463 0.961 . S
H478 C463 0.961 . S
H479 C463 0.961 . S
H480 C464 0.931 . S
H481 C469 0.930 . S
H482 C470 0.956 . S
H483 C470 0.961 . S
H484 C470 0.961 . S
H485 C471 0.958 . S
H486 C471 0.961 . S
H487 C471 0.960 . S
C488 C489 1.391 . S
C488 C490 1.394 . S
C488 H504 0.931 . S
C489 C488 1.391 . S
C489 C493 1.376 . S
C490 C488 1.394 . S
C490 C491 1.369 . S
C490 C494 1.531 1_545 S
C491 C490 1.369 . S
C491 C492 1.410 . S
C491 C499 1.503 1_546 S
C492 C491 1.410 . S
C492 C493 1.392 . S
C492 C495 1.511 . S
C493 C489 1.376 . S
C493 C492 1.392 . S
C493 H505 0.929 . S
C494 C490 1.531 1_565 S
C494 H506 0.960 . S
C494 H507 0.962 . S
C494 H508 0.960 . S
C495 C492 1.511 . S
C495 H509 0.961 . S
C495 H510 0.961 1_556 S
C495 H511 0.961 . S
C496 C497 1.370 . S
C496 C498 1.363 1_565 S
C496 H512 0.931 . S
C497 C496 1.370 . S
C497 C501 1.408 . S
C498 C496 1.363 1_545 S
C498 C499 1.370 1_545 S
C498 C502 1.524 . S
C499 C491 1.503 1_564 S
C499 C498 1.370 1_565 S
C499 C500 1.403 . S
C500 C499 1.403 . S
C500 C501 1.404 . S
C500 C503 1.539 1_554 S
C501 C497 1.408 . S
C501 C500 1.404 . S
C501 H513 0.930 . S
C502 C498 1.524 . S
C502 H514 0.956 . S
C502 H515 0.961 . S
C502 H516 0.961 . S
C503 C500 1.539 1_556 S
C503 H517 0.958 . S
C503 H518 0.961 . S
C503 H519 0.960 . S
H504 C488 0.931 . S
H505 C493 0.929 . S
H506 C494 0.960 . S
H507 C494 0.962 . S
H508 C494 0.960 . S
H509 C495 0.961 . S
H510 C495 0.961 1_554 S
H511 C495 0.961 . S
H512 C496 0.931 . S
H513 C501 0.930 . S
H514 C502 0.956 . S
H515 C502 0.961 . S
H516 C502 0.961 . S
H517 C503 0.958 . S
H518 C503 0.961 . S
H519 C503 0.960 . S
C520 C521 1.391 . S
C520 C522 1.394 . S
C520 H536 0.931 . S
C521 C520 1.391 . S
C521 C525 1.376 . S
C522 C520 1.394 . S
C522 C523 1.369 . S
C522 C526 1.531 . S
C523 C522 1.369 . S
C523 C524 1.410 . S
C523 C531 1.503 . S
C524 C523 1.410 . S
C524 C525 1.392 . S
C524 C527 1.511 . S
C525 C521 1.376 . S
C525 C524 1.392 . S
C525 H537 0.929 . S
C526 C522 1.531 . S
C526 H538 0.960 . S
C526 H539 0.962 . S
C526 H540 0.960 . S
C527 C524 1.511 . S
C527 H541 0.961 . S
C527 H542 0.961 . S
C527 H543 0.961 . S
C528 C529 1.370 . S
C528 C530 1.363 . S
C528 H544 0.931 . S
C529 C528 1.370 . S
C529 C533 1.408 . S
C530 C528 1.363 . S
C530 C531 1.370 . S
C530 C534 1.524 . S
C531 C523 1.503 . S
C531 C530 1.370 . S
C531 C532 1.403 . S
C532 C531 1.403 . S
C532 C533 1.404 . S
C532 C535 1.539 . S
C533 C529 1.408 . S
C533 C532 1.404 . S
C533 H545 0.930 . S
C534 C530 1.524 . S
C534 H546 0.956 . S
C534 H547 0.961 . S
C534 H548 0.961 . S
C535 C532 1.539 . S
C535 H549 0.958 . S
C535 H550 0.961 . S
C535 H551 0.960 . S
H536 C520 0.931 . S
H537 C525 0.929 . S
H538 C526 0.960 . S
H539 C526 0.962 . S
H540 C526 0.960 . S
H541 C527 0.961 . S
H542 C527 0.961 . S
H543 C527 0.961 . S
H544 C528 0.931 . S
H545 C533 0.930 . S
H546 C534 0.956 . S
H547 C534 0.961 . S
H548 C534 0.961 . S
H549 C535 0.958 . S
H550 C535 0.961 . S
H551 C535 0.960 . S
C552 C553 1.391 . S
C552 C554 1.394 . S
C552 H568 0.931 . S
C553 C552 1.391 . S
C553 C557 1.376 . S
C554 C552 1.394 . S
C554 C555 1.369 . S
C554 C558 1.531 . S
C555 C554 1.369 . S
C555 C556 1.410 . S
C555 C563 1.503 . S
C556 C555 1.410 . S
C556 C557 1.392 . S
C556 C559 1.511 . S
C557 C553 1.376 . S
C557 C556 1.392 . S
C557 H569 0.929 . S
C558 C554 1.531 . S
C558 H570 0.960 . S
C558 H571 0.962 . S
C558 H572 0.960 . S
C559 C556 1.511 . S
C559 H573 0.961 . S
C559 H574 0.961 . S
C559 H575 0.961 . S
C560 C561 1.370 . S
C560 C562 1.363 . S
C560 H576 0.931 . S
C561 C560 1.370 . S
C561 C565 1.408 . S
C562 C560 1.363 . S
C562 C563 1.370 . S
C562 C566 1.524 . S
C563 C555 1.503 . S
C563 C562 1.370 . S
C563 C564 1.403 . S
C564 C563 1.403 . S
C564 C565 1.404 . S
C564 C567 1.539 . S
C565 C561 1.408 . S
C565 C564 1.404 . S
C565 H577 0.930 . S
C566 C562 1.524 . S
C566 H578 0.956 . S
C566 H579 0.961 . S
C566 H580 0.961 . S
C567 C564 1.539 . S
C567 H581 0.958 . S
C567 H582 0.961 . S
C567 H583 0.960 . S
H568 C552 0.931 . S
H569 C557 0.929 . S
H570 C558 0.960 . S
H571 C558 0.962 . S
H572 C558 0.960 . S
H573 C559 0.961 . S
H574 C559 0.961 . S
H575 C559 0.961 . S
H576 C560 0.931 . S
H577 C565 0.930 . S
H578 C566 0.956 . S
H579 C566 0.961 . S
H580 C566 0.961 . S
H581 C567 0.958 . S
H582 C567 0.961 . S
H583 C567 0.960 . S
C584 C585 1.391 . S
C584 C586 1.394 . S
C584 H600 0.931 . S
C585 C584 1.391 . S
C585 C589 1.376 . S
C586 C584 1.394 . S
C586 C587 1.369 . S
C586 C590 1.531 . S
C587 C586 1.369 . S
C587 C588 1.410 . S
C587 C595 1.503 . S
C588 C587 1.410 . S
C588 C589 1.392 . S
C588 C591 1.511 . S
C589 C585 1.376 . S
C589 C588 1.392 . S
C589 H601 0.929 . S
C590 C586 1.531 . S
C590 H602 0.960 . S
C590 H603 0.962 . S
C590 H604 0.960 . S
C591 C588 1.511 . S
C591 H605 0.961 . S
C591 H606 0.961 . S
C591 H607 0.961 . S
C592 C593 1.370 . S
C592 C594 1.363 . S
C592 H608 0.931 . S
C593 C592 1.370 . S
C593 C597 1.408 . S
C594 C592 1.363 . S
C594 C595 1.370 . S
C594 C598 1.524 . S
C595 C587 1.503 . S
C595 C594 1.370 . S
C595 C596 1.403 . S
C596 C595 1.403 . S
C596 C597 1.404 . S
C596 C599 1.539 . S
C597 C593 1.408 . S
C597 C596 1.404 . S
C597 H609 0.930 . S
C598 C594 1.524 . S
C598 H610 0.956 . S
C598 H611 0.961 . S
C598 H612 0.961 . S
C599 C596 1.539 . S
C599 H613 0.958 . S
C599 H614 0.961 . S
C599 H615 0.960 . S
H600 C584 0.931 . S
H601 C589 0.929 . S
H602 C590 0.960 . S
H603 C590 0.962 . S
H604 C590 0.960 . S
H605 C591 0.961 . S
H606 C591 0.961 . S
H607 C591 0.961 . S
H608 C592 0.931 . S
H609 C597 0.930 . S
H610 C598 0.956 . S
H611 C598 0.961 . S
H612 C598 0.961 . S
H613 C599 0.958 . S
H614 C599 0.961 . S
H615 C599 0.960 . S
C616 C617 1.391 . S
C616 C618 1.394 . S
C616 H632 0.931 . S
C617 C616 1.391 . S
C617 C621 1.376 . S
C618 C616 1.394 . S
C618 C619 1.369 . S
C618 C622 1.531 . S
C619 C618 1.369 . S
C619 C620 1.410 . S
C619 C627 1.503 . S
C620 C619 1.410 . S
C620 C621 1.392 . S
C620 C623 1.511 . S
C621 C617 1.376 . S
C621 C620 1.392 . S
C621 H633 0.929 . S
C622 C618 1.531 . S
C622 H634 0.960 . S
C622 H635 0.962 . S
C622 H636 0.960 . S
C623 C620 1.511 . S
C623 H637 0.961 . S
C623 H638 0.961 . S
C623 H639 0.961 . S
C624 C625 1.370 . S
C624 C626 1.363 . S
C624 H640 0.931 . S
C625 C624 1.370 . S
C625 C629 1.408 . S
C626 C624 1.363 . S
C626 C627 1.370 . S
C626 C630 1.524 . S
C627 C619 1.503 . S
C627 C626 1.370 . S
C627 C628 1.403 . S
C628 C627 1.403 . S
C628 C629 1.404 . S
C628 C631 1.539 . S
C629 C625 1.408 . S
C629 C628 1.404 . S
C629 H641 0.930 . S
C630 C626 1.524 . S
C630 H642 0.956 . S
C630 H643 0.961 . S
C630 H644 0.961 . S
C631 C628 1.539 . S
C631 H645 0.958 . S
C631 H646 0.961 . S
C631 H647 0.960 . S
H632 C616 0.931 . S
H633 C621 0.929 . S
H634 C622 0.960 . S
H635 C622 0.962 . S
H636 C622 0.960 . S
H637 C623 0.961 . S
H638 C623 0.961 . S
H639 C623 0.961 . S
H640 C624 0.931 . S
H641 C629 0.930 . S
H642 C630 0.956 . S
H643 C630 0.961 . S
H644 C630 0.961 . S
H645 C631 0.958 . S
H646 C631 0.961 . S
H647 C631 0.960 . S
C648 C649 1.391 . S
C648 C650 1.394 . S
C648 H664 0.931 . S
C649 C648 1.391 . S
C649 C653 1.376 . S
C650 C648 1.394 . S
C650 C651 1.369 . S
C650 C654 1.531 . S
C651 C650 1.369 . S
C651 C652 1.410 . S
C651 C659 1.503 . S
C652 C651 1.410 . S
C652 C653 1.392 . S
C652 C655 1.511 . S
C653 C649 1.376 . S
C653 C652 1.392 . S
C653 H665 0.929 . S
C654 C650 1.531 . S
C654 H666 0.960 . S
C654 H667 0.962 . S
C654 H668 0.960 . S
C655 C652 1.511 . S
C655 H669 0.961 . S
C655 H670 0.961 . S
C655 H671 0.961 . S
C656 C657 1.370 . S
C656 C658 1.363 . S
C656 H672 0.931 . S
C657 C656 1.370 . S
C657 C661 1.408 . S
C658 C656 1.363 . S
C658 C659 1.370 . S
C658 C662 1.524 . S
C659 C651 1.503 . S
C659 C658 1.370 . S
C659 C660 1.403 . S
C660 C659 1.403 . S
C660 C661 1.404 . S
C660 C663 1.539 . S
C661 C657 1.408 . S
C661 C660 1.404 . S
C661 H673 0.930 . S
C662 C658 1.524 . S
C662 H674 0.956 . S
C662 H675 0.961 . S
C662 H676 0.961 . S
C663 C660 1.539 . S
C663 H677 0.958 . S
C663 H678 0.961 . S
C663 H679 0.960 . S
H664 C648 0.931 . S
H665 C653 0.929 . S
H666 C654 0.960 . S
H667 C654 0.962 . S
H668 C654 0.960 . S
H669 C655 0.961 . S
H670 C655 0.961 . S
H671 C655 0.961 . S
H672 C656 0.931 . S
H673 C661 0.930 . S
H674 C662 0.956 . S
H675 C662 0.961 . S
H676 C662 0.961 . S
H677 C663 0.958 . S
H678 C663 0.961 . S
H679 C663 0.960 . S
C680 C681 1.391 . S
C680 C682 1.394 . S
C680 H696 0.931 . S
C681 C680 1.391 . S
C681 C685 1.376 . S
C682 C680 1.394 . S
C682 C683 1.369 . S
C682 C686 1.531 . S
C683 C682 1.369 . S
C683 C684 1.410 . S
C683 C691 1.503 . S
C684 C683 1.410 . S
C684 C685 1.392 . S
C684 C687 1.511 . S
C685 C681 1.376 . S
C685 C684 1.392 . S
C685 H697 0.929 . S
C686 C682 1.531 . S
C686 H698 0.960 . S
C686 H699 0.962 . S
C686 H700 0.960 . S
C687 C684 1.511 . S
C687 H701 0.961 . S
C687 H702 0.961 . S
C687 H703 0.961 . S
C688 C689 1.370 . S
C688 C690 1.363 . S
C688 H704 0.931 . S
C689 C688 1.370 . S
C689 C693 1.408 . S
C690 C688 1.363 . S
C690 C691 1.370 . S
C690 C694 1.524 . S
C691 C683 1.503 . S
C691 C690 1.370 . S
C691 C692 1.403 . S
C692 C691 1.403 . S
C692 C693 1.404 . S
C692 C695 1.539 . S
C693 C689 1.408 . S
C693 C692 1.404 . S
C693 H705 0.930 . S
C694 C690 1.524 . S
C694 H706 0.956 . S
C694 H707 0.961 . S
C694 H708 0.961 . S
C695 C692 1.539 . S
C695 H709 0.958 . S
C695 H710 0.961 . S
C695 H711 0.960 . S
H696 C680 0.931 . S
H697 C685 0.929 . S
H698 C686 0.960 . S
H699 C686 0.962 . S
H700 C686 0.960 . S
H701 C687 0.961 . S
H702 C687 0.961 . S
H703 C687 0.961 . S
H704 C688 0.931 . S
H705 C693 0.930 . S
H706 C694 0.956 . S
H707 C694 0.961 . S
H708 C694 0.961 . S
H709 C695 0.958 . S
H710 C695 0.961 . S
H711 C695 0.960 . S
C712 C713 1.391 . S
C712 C714 1.394 . S
C712 H728 0.931 . S
C713 C712 1.391 . S
C713 C717 1.376 . S
C714 C712 1.394 . S
C714 C715 1.369 . S
C714 C718 1.531 . S
C715 C714 1.369 . S
C715 C716 1.410 . S
C715 C723 1.503 . S
C716 C715 1.410 . S
C716 C717 1.392 . S
C716 C719 1.511 . S
C717 C713 1.376 . S
C717 C716 1.392 . S
C717 H729 0.929 . S
C718 C714 1.531 . S
C718 H730 0.960 . S
C718 H731 0.962 . S
C718 H732 0.960 . S
C719 C716 1.511 . S
C719 H733 0.961 . S
C719 H734 0.961 . S
C719 H735 0.961 . S
C720 C721 1.370 . S
C720 C722 1.363 . S
C720 H736 0.931 . S
C721 C720 1.370 . S
C721 C725 1.408 . S
C722 C720 1.363 . S
C722 C723 1.370 . S
C722 C726 1.524 . S
C723 C715 1.503 . S
C723 C722 1.370 . S
C723 C724 1.403 . S
C724 C723 1.403 . S
C724 C725 1.404 . S
C724 C727 1.539 . S
C725 C721 1.408 . S
C725 C724 1.404 . S
C725 H737 0.930 . S
C726 C722 1.524 . S
C726 H738 0.956 . S
C726 H739 0.961 . S
C726 H740 0.961 . S
C727 C724 1.539 . S
C727 H741 0.958 . S
C727 H742 0.961 . S
C727 H743 0.960 . S
H728 C712 0.931 . S
H729 C717 0.929 . S
H730 C718 0.960 . S
H731 C718 0.962 . S
H732 C718 0.960 . S
H733 C719 0.961 . S
H734 C719 0.961 . S
H735 C719 0.961 . S
H736 C720 0.931 . S
H737 C725 0.930 . S
H738 C726 0.956 . S
H739 C726 0.961 . S
H740 C726 0.961 . S
H741 C727 0.958 . S
H742 C727 0.961 . S
H743 C727 0.960 . S
C744 C745 1.391 . S
C744 C746 1.394 . S
C744 H760 0.931 . S
C745 C744 1.391 . S
C745 C749 1.376 . S
C746 C744 1.394 . S
C746 C747 1.369 . S
C746 C750 1.531 . S
C747 C746 1.369 . S
C747 C748 1.410 . S
C747 C755 1.503 . S
C748 C747 1.410 . S
C748 C749 1.392 . S
C748 C751 1.511 . S
C749 C745 1.376 . S
C749 C748 1.392 . S
C749 H761 0.929 . S
C750 C746 1.531 . S
C750 H762 0.960 . S
C750 H763 0.962 . S
C750 H764 0.960 . S
C751 C748 1.511 . S
C751 H765 0.961 . S
C751 H766 0.961 . S
C751 H767 0.961 . S
C752 C753 1.370 . S
C752 C754 1.363 . S
C752 H768 0.931 . S
C753 C752 1.370 . S
C753 C757 1.408 . S
C754 C752 1.363 . S
C754 C755 1.370 . S
C754 C758 1.524 . S
C755 C747 1.503 . S
C755 C754 1.370 . S
C755 C756 1.403 . S
C756 C755 1.403 . S
C756 C757 1.404 . S
C756 C759 1.539 . S
C757 C753 1.408 . S
C757 C756 1.404 . S
C757 H769 0.930 . S
C758 C754 1.524 . S
C758 H770 0.956 . S
C758 H771 0.961 . S
C758 H772 0.961 . S
C759 C756 1.539 . S
C759 H773 0.958 . S
C759 H774 0.961 . S
C759 H775 0.960 . S
H760 C744 0.931 . S
H761 C749 0.929 . S
H762 C750 0.960 . S
H763 C750 0.962 . S
H764 C750 0.960 . S
H765 C751 0.961 . S
H766 C751 0.961 . S
H767 C751 0.961 . S
H768 C752 0.931 . S
H769 C757 0.930 . S
H770 C758 0.956 . S
H771 C758 0.961 . S
H772 C758 0.961 . S
H773 C759 0.958 . S
H774 C759 0.961 . S
H775 C759 0.960 . S
C776 C777 1.391 . S
C776 C778 1.394 . S
C776 H792 0.931 . S
C777 C776 1.391 . S
C777 C781 1.376 . S
C778 C776 1.394 . S
C778 C779 1.369 . S
C778 C782 1.531 . S
C779 C778 1.369 . S
C779 C780 1.410 . S
C779 C787 1.503 . S
C780 C779 1.410 . S
C780 C781 1.392 . S
C780 C783 1.511 . S
C781 C777 1.376 . S
C781 C780 1.392 . S
C781 H793 0.929 . S
C782 C778 1.531 . S
C782 H794 0.960 . S
C782 H795 0.962 . S
C782 H796 0.960 . S
C783 C780 1.511 . S
C783 H797 0.961 . S
C783 H798 0.961 . S
C783 H799 0.961 . S
C784 C785 1.370 . S
C784 C786 1.363 . S
C784 H800 0.931 . S
C785 C784 1.370 . S
C785 C789 1.408 . S
C786 C784 1.363 . S
C786 C787 1.370 . S
C786 C790 1.524 . S
C787 C779 1.503 . S
C787 C786 1.370 . S
C787 C788 1.403 . S
C788 C787 1.403 . S
C788 C789 1.404 . S
C788 C791 1.539 . S
C789 C785 1.408 . S
C789 C788 1.404 . S
C789 H801 0.930 . S
C790 C786 1.524 . S
C790 H802 0.956 . S
C790 H803 0.961 . S
C790 H804 0.961 . S
C791 C788 1.539 . S
C791 H805 0.958 . S
C791 H806 0.961 . S
C791 H807 0.960 . S
H792 C776 0.931 . S
H793 C781 0.929 . S
H794 C782 0.960 . S
H795 C782 0.962 . S
H796 C782 0.960 . S
H797 C783 0.961 . S
H798 C783 0.961 . S
H799 C783 0.961 . S
H800 C784 0.931 . S
H801 C789 0.930 . S
H802 C790 0.956 . S
H803 C790 0.961 . S
H804 C790 0.961 . S
H805 C791 0.958 . S
H806 C791 0.961 . S
H807 C791 0.960 . S
C808 C809 1.391 . S
C808 C810 1.394 . S
C808 H824 0.931 . S
C809 C808 1.391 . S
C809 C813 1.376 . S
C810 C808 1.394 . S
C810 C811 1.369 . S
C810 C814 1.531 . S
C811 C810 1.369 . S
C811 C812 1.410 . S
C811 C819 1.503 . S
C812 C811 1.410 . S
C812 C813 1.392 . S
C812 C815 1.511 . S
C813 C809 1.376 . S
C813 C812 1.392 . S
C813 H825 0.929 . S
C814 C810 1.531 . S
C814 H826 0.960 . S
C814 H827 0.962 . S
C814 H828 0.960 . S
C815 C812 1.511 . S
C815 H829 0.961 . S
C815 H830 0.961 . S
C815 H831 0.961 . S
C816 C817 1.370 . S
C816 C818 1.363 . S
C816 H832 0.931 . S
C817 C816 1.370 . S
C817 C821 1.408 . S
C818 C816 1.363 . S
C818 C819 1.370 . S
C818 C822 1.524 . S
C819 C811 1.503 . S
C819 C818 1.370 . S
C819 C820 1.403 . S
C820 C819 1.403 . S
C820 C821 1.404 . S
C820 C823 1.539 . S
C821 C817 1.408 . S
C821 C820 1.404 . S
C821 H833 0.930 . S
C822 C818 1.524 . S
C822 H834 0.956 . S
C822 H835 0.961 . S
C822 H836 0.961 . S
C823 C820 1.539 . S
C823 H837 0.958 . S
C823 H838 0.961 . S
C823 H839 0.960 . S
H824 C808 0.931 . S
H825 C813 0.929 . S
H826 C814 0.960 . S
H827 C814 0.962 . S
H828 C814 0.960 . S
H829 C815 0.961 . S
H830 C815 0.961 . S
H831 C815 0.961 . S
H832 C816 0.931 . S
H833 C821 0.930 . S
H834 C822 0.956 . S
H835 C822 0.961 . S
H836 C822 0.961 . S
H837 C823 0.958 . S
H838 C823 0.961 . S
H839 C823 0.960 . S
C840 C841 1.391 . S
C840 C842 1.394 . S
C840 H856 0.931 . S
C841 C840 1.391 . S
C841 C845 1.376 . S
C842 C840 1.394 . S
C842 C843 1.369 . S
C842 C846 1.531 . S
C843 C842 1.369 . S
C843 C844 1.410 . S
C843 C851 1.503 . S
C844 C843 1.410 . S
C844 C845 1.392 . S
C844 C847 1.511 . S
C845 C841 1.376 . S
C845 C844 1.392 . S
C845 H857 0.929 . S
C846 C842 1.531 . S
C846 H858 0.960 . S
C846 H859 0.962 . S
C846 H860 0.960 . S
C847 C844 1.511 . S
C847 H861 0.961 . S
C847 H862 0.961 . S
C847 H863 0.961 . S
C848 C849 1.370 . S
C848 C850 1.363 . S
C848 H864 0.931 . S
C849 C848 1.370 . S
C849 C853 1.408 . S
C850 C848 1.363 . S
C850 C851 1.370 . S
C850 C854 1.524 . S
C851 C843 1.503 . S
C851 C850 1.370 . S
C851 C852 1.403 . S
C852 C851 1.403 . S
C852 C853 1.404 . S
C852 C855 1.539 . S
C853 C849 1.408 . S
C853 C852 1.404 . S
C853 H865 0.930 . S
C854 C850 1.524 . S
C854 H866 0.956 . S
C854 H867 0.961 . S
C854 H868 0.961 . S
C855 C852 1.539 . S
C855 H869 0.958 . S
C855 H870 0.961 . S
C855 H871 0.960 . S
H856 C840 0.931 . S
H857 C845 0.929 . S
H858 C846 0.960 . S
H859 C846 0.962 . S
H860 C846 0.960 . S
H861 C847 0.961 . S
H862 C847 0.961 . S
H863 C847 0.961 . S
H864 C848 0.931 . S
H865 C853 0.930 . S
H866 C854 0.956 . S
H867 C854 0.961 . S
H868 C854 0.961 . S
H869 C855 0.958 . S
H870 C855 0.961 . S
H871 C855 0.960 . S
C872 C873 1.391 . S
C872 C874 1.394 . S
C872 H888 0.931 . S
C873 C872 1.391 . S
C873 C877 1.376 . S
C874 C872 1.394 . S
C874 C875 1.369 . S
C874 C878 1.531 . S
C875 C874 1.369 . S
C875 C876 1.410 . S
C875 C883 1.503 . S
C876 C875 1.410 . S
C876 C877 1.392 . S
C876 C879 1.511 . S
C877 C873 1.376 . S
C877 C876 1.392 . S
C877 H889 0.929 . S
C878 C874 1.531 . S
C878 H890 0.960 . S
C878 H891 0.962 . S
C878 H892 0.960 . S
C879 C876 1.511 . S
C879 H893 0.961 . S
C879 H894 0.961 . S
C879 H895 0.961 . S
C880 C881 1.370 . S
C880 C882 1.363 . S
C880 H896 0.931 . S
C881 C880 1.370 . S
C881 C885 1.408 . S
C882 C880 1.363 . S
C882 C883 1.370 . S
C882 C886 1.524 . S
C883 C875 1.503 . S
C883 C882 1.370 . S
C883 C884 1.403 . S
C884 C883 1.403 . S
C884 C885 1.404 . S
C884 C887 1.539 . S
C885 C881 1.408 . S
C885 C884 1.404 . S
C885 H897 0.930 . S
C886 C882 1.524 . S
C886 H898 0.956 . S
C886 H899 0.961 . S
C886 H900 0.961 . S
C887 C884 1.539 . S
C887 H901 0.958 . S
C887 H902 0.961 . S
C887 H903 0.960 . S
H888 C872 0.931 . S
H889 C877 0.929 . S
H890 C878 0.960 . S
H891 C878 0.962 . S
H892 C878 0.960 . S
H893 C879 0.961 . S
H894 C879 0.961 . S
H895 C879 0.961 . S
H896 C880 0.931 . S
H897 C885 0.930 . S
H898 C886 0.956 . S
H899 C886 0.961 . S
H900 C886 0.961 . S
H901 C887 0.958 . S
H902 C887 0.961 . S
H903 C887 0.960 . S
C904 C905 1.391 . S
C904 C906 1.394 . S
C904 H920 0.931 . S
C905 C904 1.391 . S
C905 C909 1.376 . S
C906 C904 1.394 . S
C906 C907 1.369 . S
C906 C910 1.531 . S
C907 C906 1.369 . S
C907 C908 1.410 . S
C907 C915 1.503 . S
C908 C907 1.410 . S
C908 C909 1.392 . S
C908 C911 1.511 . S
C909 C905 1.376 . S
C909 C908 1.392 . S
C909 H921 0.929 . S
C910 C906 1.531 . S
C910 H922 0.960 . S
C910 H923 0.962 . S
C910 H924 0.960 . S
C911 C908 1.511 . S
C911 H925 0.961 . S
C911 H926 0.961 . S
C911 H927 0.961 . S
C912 C913 1.370 . S
C912 C914 1.363 . S
C912 H928 0.931 . S
C913 C912 1.370 . S
C913 C917 1.408 . S
C914 C912 1.363 . S
C914 C915 1.370 . S
C914 C918 1.524 . S
C915 C907 1.503 . S
C915 C914 1.370 . S
C915 C916 1.403 . S
C916 C915 1.403 . S
C916 C917 1.404 . S
C916 C919 1.539 . S
C917 C913 1.408 . S
C917 C916 1.404 . S
C917 H929 0.930 . S
C918 C914 1.524 . S
C918 H930 0.956 . S
C918 H931 0.961 . S
C918 H932 0.961 . S
C919 C916 1.539 . S
C919 H933 0.958 . S
C919 H934 0.961 . S
C919 H935 0.960 . S
H920 C904 0.931 . S
H921 C909 0.929 . S
H922 C910 0.960 . S
H923 C910 0.962 . S
H924 C910 0.960 . S
H925 C911 0.961 . S
H926 C911 0.961 . S
H927 C911 0.961 . S
H928 C912 0.931 . S
H929 C917 0.930 . S
H930 C918 0.956 . S
H931 C918 0.961 . S
H932 C918 0.961 . S
H933 C919 0.958 . S
H934 C919 0.961 . S
H935 C919 0.960 . S
C169 C5 1.121 . S
C177 C159 1.162 . S
C201 C89 1.140 . S
C209 C19 1.144 . S
C233 C33 1.164 . S
C241 C103 1.180 . S
C265 C117 1.166 . S
C273 C47 1.181 . S
C297 C131 1.201 . S
C305 C61 1.191 . S
C329 C145 1.198 . S
C337 C75 1.166 . S
C361 C54 1.593 . S
C369 C124 1.602 . S
C393 C68 1.604 . S
C401 C138 1.608 . S
C425 C82 1.596 . S
C433 C152 1.605 . S
C457 C166 1.608 . S
C465 C12 1.607 . S
C489 C26 1.604 . S
C497 C96 1.608 . S
C521 C40 1.598 . S
C529 C110 1.606 . S
C553 C116 1.334 . S
C561 C4 1.349 . S
C585 C130 1.346 . S
C593 C18 1.344 . S
C617 C32 1.360 . S
C625 C144 1.345 . S
C649 C46 1.320 . S
C657 C158 1.357 . S
C681 C60 1.355 . S
C689 C88 1.347 . S
C713 C102 1.326 . S
C721 C74 1.354 . S
C745 C11 1.251 . S
C753 C151 1.264 . S
C777 C165 1.262 . S
C785 C25 1.248 . S
C809 C39 1.262 . S
C817 C95 1.248 . S
C841 C53 1.243 . S
C849 C109 1.253 . S
C873 C67 1.258 . S
C881 C123 1.248 . S
C905 C81 1.265 . S
C913 C137 1.260 . S
