# Generated by pormake.
# Topology irl, (4)-cn, num edge types: 1
# Building blocks:
#     Node 0, Type 0, BuildingBlock: QUQFOY_clean_sbu_1, # of connection points: 4
#     Node 1, Type 0, BuildingBlock: QUQFOY_clean_sbu_1, # of connection points: 4
#     Node 2, Type 0, BuildingBlock: QUQFOY_clean_sbu_1, # of connection points: 4
#     Node 3, Type 0, BuildingBlock: QUQFOY_clean_sbu_1, # of connection points: 4
#     Node 4, Type 0, BuildingBlock: QUQFOY_clean_sbu_1, # of connection points: 4
#     Node 5, Type 0, BuildingBlock: QUQFOY_clean_sbu_1, # of connection points: 4
#     Node 6, Type 0, BuildingBlock: QUQFOY_clean_sbu_1, # of connection points: 4
#     Node 7, Type 0, BuildingBlock: QUQFOY_clean_sbu_1, # of connection points: 4
#     Edge 8, Type (0, 0), BuildingBlock: UVAHIK_clean_linker_0, # of connection points: 2
#     Edge 9, Type (0, 0), BuildingBlock: UVAHIK_clean_linker_0, # of connection points: 2
#     Edge 10, Type (0, 0), BuildingBlock: UVAHIK_clean_linker_0, # of connection points: 2
#     Edge 11, Type (0, 0), BuildingBlock: UVAHIK_clean_linker_0, # of connection points: 2
#     Edge 12, Type (0, 0), BuildingBlock: UVAHIK_clean_linker_0, # of connection points: 2
#     Edge 13, Type (0, 0), BuildingBlock: UVAHIK_clean_linker_0, # of connection points: 2
#     Edge 14, Type (0, 0), BuildingBlock: UVAHIK_clean_linker_0, # of connection points: 2
#     Edge 15, Type (0, 0), BuildingBlock: UVAHIK_clean_linker_0, # of connection points: 2
#     Edge 16, Type (0, 0), BuildingBlock: UVAHIK_clean_linker_0, # of connection points: 2
#     Edge 17, Type (0, 0), BuildingBlock: UVAHIK_clean_linker_0, # of connection points: 2
#     Edge 18, Type (0, 0), BuildingBlock: UVAHIK_clean_linker_0, # of connection points: 2
#     Edge 19, Type (0, 0), BuildingBlock: UVAHIK_clean_linker_0, # of connection points: 2
#     Edge 20, Type (0, 0), BuildingBlock: UVAHIK_clean_linker_0, # of connection points: 2
#     Edge 21, Type (0, 0), BuildingBlock: UVAHIK_clean_linker_0, # of connection points: 2
#     Edge 22, Type (0, 0), BuildingBlock: UVAHIK_clean_linker_0, # of connection points: 2
#     Edge 23, Type (0, 0), BuildingBlock: UVAHIK_clean_linker_0, # of connection points: 2
# Relax obj value: 0.044
# Max RMSD: 0.087
# Mean RMSD: 0.087
data_MOF--net-irl--node1-QUQFOY_clean_sbu_1--edge1-UVAHIK_clean_linker_0
_symmetry_space_group_name_H-M    P1
_symmetry_Int_Tables_number       1
_symmetry_cell_setting            triclinic
loop_
_symmetry_equiv_pos_as_xyz
'x, y, z'
_cell_length_a     46.423845
_cell_length_b     57.335367
_cell_length_c     37.330044
_cell_angle_alpha  89.994039
_cell_angle_beta   89.980198
_cell_angle_gamma 89.993941
loop_
_atom_site_label
_atom_site_type_symbol
_atom_site_fract_x
_atom_site_fract_y
_atom_site_fract_z
_atom_type_partial_charge
O0 O 0.07628 0.17838 0.0704 0.0
Cd1 Cd 0.09313 0.16498 0.02341 0.0
Cd2 Cd 0.04081 0.17667 0.99897 0.0
O3 O 0.03607 0.19284 0.04808 0.0
O4 O 0.13606 0.16663 0.02835 0.0
O5 O 0.11147 0.18761 0.9892 0.0
C6 C 0.13588 0.18249 1.00381 0.0
C7 C 0.03324 0.1954 0.94427 0.0
C8 C 0.05304 0.18984 0.07444 0.0
C9 C 0.05491 0.12549 1.00157 0.0
O10 O 0.03555 0.14102 0.9982 0.0
O11 O 0.08069 0.13134 0.00909 0.0
O12 O 0.01191 0.18958 0.96457 0.0
O13 O 0.05899 0.19158 0.95595 0.0
O14 O 0.94698 0.82999 0.06886 0.0
Cd15 Cd 0.93046 0.84384 0.02198 0.0
Cd16 Cd 0.98358 0.83231 0.99874 0.0
O17 O 0.98827 0.81646 0.04809 0.0
O18 O 0.88751 0.84275 0.02758 0.0
O19 O 0.91124 0.8216 0.98788 0.0
C20 C 0.88711 0.82694 1.00298 0.0
C21 C 0.98935 0.81343 0.94391 0.0
C22 C 0.97047 0.819 0.07372 0.0
C23 C 0.96906 0.88343 1.00086 0.0
O24 O 0.98848 0.86794 0.99765 0.0
O25 O 0.94323 0.87755 0.00815 0.0
O26 O 0.01138 0.81923 0.96305 0.0
O27 O 0.96402 0.8173 0.95695 0.0
O28 O 0.07596 0.83162 0.44293 0.0
Cd29 Cd 0.0928 0.84508 0.48988 0.0
Cd30 Cd 0.04071 0.83294 0.5146 0.0
O31 O 0.03605 0.81674 0.46549 0.0
O32 O 0.13574 0.84354 0.48494 0.0
O33 O 0.11119 0.82242 0.52399 0.0
C34 C 0.13559 0.82761 0.5094 0.0
C35 C 0.03321 0.81419 0.56932 0.0
C36 C 0.05287 0.81994 0.43903 0.0
C37 C 0.05421 0.88425 0.51196 0.0
O38 O 0.03507 0.86855 0.51538 0.0
O39 O 0.08005 0.87863 0.50434 0.0
O40 O 0.01187 0.8199 0.54897 0.0
O41 O 0.05895 0.81813 0.55765 0.0
O42 O 0.94712 0.17983 0.44496 0.0
Cd43 Cd 0.93044 0.16623 0.49193 0.0
Cd44 Cd 0.98373 0.1773 0.51497 0.0
O45 O 0.98858 0.19307 0.46558 0.0
O46 O 0.88752 0.16751 0.48617 0.0
O47 O 0.91127 0.18871 0.52577 0.0
C48 C 0.88715 0.18342 0.51061 0.0
C49 C 0.98952 0.19621 0.56975 0.0
C50 C 0.97073 0.19063 0.44 0.0
C51 C 0.96857 0.12634 0.51317 0.0
O52 O 0.98824 0.14164 0.51618 0.0
O53 O 0.94282 0.13247 0.50599 0.0
O54 O 0.01156 0.19027 0.55069 0.0
O55 O 0.96419 0.19247 0.55666 0.0
O56 O 0.57611 0.67848 0.07274 0.0
Cd57 Cd 0.59292 0.66516 0.02567 0.0
Cd58 Cd 0.54081 0.67738 1.00114 0.0
O59 O 0.53622 0.69348 0.05035 0.0
O60 O 0.63587 0.66669 0.03053 0.0
O61 O 0.61127 0.68792 0.99168 0.0
C62 C 0.63568 0.68269 1.00619 0.0
C63 C 0.53329 0.69621 0.94651 0.0
C64 C 0.55305 0.69019 0.07677 0.0
C65 C 0.55433 0.62607 1.00338 0.0
O66 O 0.53518 0.64178 1.00016 0.0
O67 O 0.58018 0.63166 0.01097 0.0
O68 O 0.51195 0.69049 0.96687 0.0
O69 O 0.55903 0.69226 0.95811 0.0
O70 O 0.44561 0.33084 0.06755 0.0
Cd71 Cd 0.42965 0.34439 0.02018 0.0
Cd72 Cd 0.48283 0.33312 0.99784 0.0
O73 O 0.48698 0.31723 0.04724 0.0
O74 O 0.38669 0.34314 0.02494 0.0
O75 O 0.41105 0.32188 0.98593 0.0
C76 C 0.3867 0.3272 1.00053 0.0
C77 C 0.49043 0.31428 0.9433 0.0
C78 C 0.46904 0.31983 0.07269 0.0
C79 C 0.46812 0.38415 0.9996 0.0
O80 O 0.48773 0.36877 0.99688 0.0
O81 O 0.44226 0.37812 1.00634 0.0
O82 O 0.51177 0.32011 0.9636 0.0
O83 O 0.46467 0.31813 0.95496 0.0
O84 O 0.57475 0.33133 0.44176 0.0
Cd85 Cd 0.59224 0.34492 0.48827 0.0
Cd86 Cd 0.54003 0.33295 0.51371 0.0
O87 O 0.53469 0.31687 0.46462 0.0
O88 O 0.63516 0.34339 0.48241 0.0
O89 O 0.61117 0.32241 0.52214 0.0
C90 C 0.63536 0.32756 0.50702 0.0
C91 C 0.5343 0.31416 0.56869 0.0
C92 C 0.55146 0.31987 0.43804 0.0
C93 C 0.55395 0.38421 0.51092 0.0
O94 O 0.53477 0.36858 0.51471 0.0
O95 O 0.57968 0.37852 0.50282 0.0
O96 O 0.51227 0.31998 0.54957 0.0
O97 O 0.55961 0.31798 0.55559 0.0
O98 O 0.44702 0.68009 0.44713 0.0
Cd99 Cd 0.43037 0.66629 0.49398 0.0
Cd100 Cd 0.48364 0.67734 0.51714 0.0
O101 O 0.48852 0.69321 0.46784 0.0
O102 O 0.38744 0.66753 0.48823 0.0
O103 O 0.41115 0.68857 0.52807 0.0
C104 C 0.38704 0.68332 0.51287 0.0
C105 C 0.48942 0.69617 0.572 0.0
C106 C 0.47066 0.69087 0.44225 0.0
C107 C 0.46856 0.62636 0.51489 0.0
O108 O 0.48819 0.64167 0.51814 0.0
O109 O 0.44281 0.63248 0.50769 0.0
O110 O 0.51145 0.69025 0.55292 0.0
O111 O 0.46409 0.69243 0.55889 0.0
C112 C 0.95648 0.92623 0.99902 0.0
C113 C 0.97725 0.90839 0.99759 0.0
C114 C 0.96481 0.94972 0.99744 0.0
C115 C 0.02685 0.98801 0.01533 0.0
H116 H 0.98642 0.03272 0.9559 0.0
C117 C 0.06765 0.08279 0.99912 0.0
C118 C 0.04677 0.10053 0.99812 0.0
C119 C 0.05948 0.05928 0.99726 0.0
C120 C 0.99777 0.02055 0.973 0.0
H121 H 0.02309 0.90139 0.99285 0.0
H122 H 0.03743 0.94213 0.99026 0.0
H123 H 0.97082 0.99208 0.9567 0.0
H124 H 1.00087 0.10737 0.99424 0.0
H125 H 0.98671 0.06667 0.99186 0.0
H126 H 0.05344 0.01639 0.03227 0.0
C127 C 0.01475 0.938 0.99284 0.0
C128 C 0.98881 0.99724 0.97338 0.0
C129 C 1.00645 0.91461 0.99411 0.0
C130 C 0.0176 0.09421 0.99488 0.0
C131 C 1.00945 0.07078 0.99328 0.0
C132 C 0.03566 0.01133 0.01519 0.0
C133 C 0.99409 0.95584 0.99475 0.0
C134 C 1.00328 0.9807 0.99451 0.0
C135 C 0.03022 0.05296 0.9946 0.0
C136 C 0.02125 0.02795 0.99402 0.0
H137 H 0.93382 0.92207 1.0017 0.0
H138 H 0.9484 0.9631 0.99917 0.0
H139 H 0.03821 0.97574 0.03228 0.0
H140 H 0.0903 0.08702 1.00146 0.0
H141 H 0.07615 0.04608 0.99778 0.0
C142 C 0.01644 0.91514 0.51897 0.0
C143 C 0.04571 0.90913 0.51546 0.0
C144 C 1.00791 0.93848 0.52058 0.0
C145 C 0.03347 0.9977 0.54109 0.0
H146 H 0.96887 0.01718 0.48241 0.0
C147 C 1.00545 0.09475 0.5199 0.0
C148 C 0.97636 0.1013 0.51664 0.0
C149 C 0.01333 0.07126 0.5215 0.0
C150 C 0.98663 0.01202 0.49944 0.0
H151 H 0.089 0.92312 0.51158 0.0
H152 H 0.07403 0.96401 0.51471 0.0
H153 H 0.98407 0.9765 0.48196 0.0
H154 H 0.93267 0.08814 0.51324 0.0
H155 H 0.94637 0.04706 0.51689 0.0
H156 H 0.03591 0.03309 0.55894 0.0
C157 C 0.05774 0.95053 0.51621 0.0
C158 C 0.99543 0.98868 0.49905 0.0
C159 C 0.0663 0.92711 0.51428 0.0
C160 C 0.95527 0.08372 0.51561 0.0
C161 C 0.96318 0.06015 0.51746 0.0
C162 C 0.02453 0.02101 0.54172 0.0
C163 C 0.02841 0.95646 0.51901 0.0
C164 C 0.01903 0.98127 0.51973 0.0
C165 C 0.99236 0.0536 0.52017 0.0
C166 C 1.0011 0.02854 0.52072 0.0
H167 H 0.99994 0.90181 0.52001 0.0
H168 H 0.9852 0.94246 0.5232 0.0
H169 H 0.05147 0.99246 0.5577 0.0
H170 H 0.02234 0.10776 0.52056 0.0
H171 H 0.03602 0.06699 0.52293 0.0
C172 C 0.56642 0.58321 1.00073 0.0
C173 C 0.54583 0.6012 0.99965 0.0
C174 C 0.55786 0.55981 0.99856 0.0
C175 C 0.49544 0.52163 0.01511 0.0
H176 H 0.53612 0.47739 0.95508 0.0
C177 C 0.45505 0.42681 0.99728 0.0
C178 C 0.47607 0.40916 0.99633 0.0
C179 C 0.46307 0.45036 0.99569 0.0
C180 C 0.52469 0.48943 0.97232 0.0
H181 H 0.50008 0.60856 0.99501 0.0
H182 H 0.48534 0.56793 0.99139 0.0
H183 H 0.55175 0.518 0.95677 0.0
H184 H 0.52204 0.40256 0.99277 0.0
H185 H 0.53592 0.44332 0.99083 0.0
H186 H 0.46875 0.49312 0.03131 0.0
C187 C 0.50805 0.57189 0.99413 0.0
C188 C 0.53367 0.51273 0.97323 0.0
C189 C 0.51658 0.59522 0.99599 0.0
C190 C 0.50521 0.41564 0.99337 0.0
C191 C 0.5132 0.4391 0.99202 0.0
C192 C 0.4866 0.49832 0.01444 0.0
C193 C 0.52853 0.5539 0.99561 0.0
C194 C 0.51915 0.52909 0.99463 0.0
C195 C 0.49229 0.45682 0.99332 0.0
C196 C 0.50113 0.48186 0.99309 0.0
H197 H 0.58911 0.58719 1.00354 0.0
H198 H 0.57415 0.54631 1.0 0.0
H199 H 0.48403 0.53376 0.03224 0.0
H200 H 0.43242 0.42246 0.99941 0.0
H201 H 0.44632 0.46349 0.99621 0.0
C202 C 0.56624 0.42704 0.51327 0.0
C203 C 0.54559 0.40911 0.51456 0.0
C204 C 0.55778 0.45048 0.5154 0.0
C205 C 0.49553 0.48882 0.49896 0.0
H206 H 0.53622 0.53292 0.55916 0.0
C207 C 0.45535 0.58372 0.51687 0.0
C208 C 0.4764 0.60132 0.51806 0.0
C209 C 0.46329 0.56014 0.51838 0.0
C210 C 0.52479 0.52093 0.54185 0.0
H211 H 0.49982 0.4019 0.51949 0.0
H212 H 0.48525 0.44257 0.52299 0.0
H213 H 0.55177 0.49229 0.55736 0.0
H214 H 0.52238 0.60781 0.52196 0.0
H215 H 0.53614 0.56704 0.52373 0.0
H216 H 0.46893 0.51739 0.48277 0.0
C217 C 0.50793 0.43854 0.52015 0.0
C218 C 0.53372 0.49762 0.54089 0.0
C219 C 0.51636 0.41519 0.51836 0.0
C220 C 0.50551 0.59478 0.52117 0.0
C221 C 0.51344 0.5713 0.52243 0.0
C222 C 0.48675 0.51215 0.49966 0.0
C223 C 0.52848 0.45647 0.51848 0.0
C224 C 0.51919 0.4813 0.51944 0.0
C225 C 0.49249 0.55362 0.5209 0.0
C226 C 0.50127 0.52856 0.52107 0.0
H227 H 0.58891 0.42299 0.51035 0.0
H228 H 0.57411 0.46393 0.51383 0.0
H229 H 0.48411 0.47672 0.4818 0.0
H230 H 0.43273 0.58812 0.51462 0.0
H231 H 0.4465 0.54704 0.51769 0.0
C232 C 0.0162 0.20476 0.11802 0.0
C233 C 0.0447 0.19795 0.11071 0.0
C234 C 1.00745 0.20938 0.15317 0.0
C235 C 0.03313 0.22199 0.24494 0.0
H236 H 0.9656 0.18708 0.27412 0.0
C237 C 1.00709 0.20175 0.3933 0.0
C238 C 0.9782 0.19864 0.40344 0.0
C239 C 0.01427 0.20607 0.35749 0.0
C240 C 0.98411 0.19742 0.26648 0.0
H241 H 0.08676 0.19204 0.13439 0.0
H242 H 0.0715 0.20031 0.19561 0.0
H243 H 0.97976 0.18746 0.21153 0.0
H244 H 0.93406 0.1993 0.38453 0.0
H245 H 0.94642 0.20777 0.32253 0.0
H246 H 0.03757 0.2319 0.29997 0.0
C247 C 0.05592 0.202 0.17417 0.0
C248 C 0.99228 0.19756 0.23048 0.0
C249 C 0.06461 0.19713 0.13909 0.0
C250 C 0.95656 0.2013 0.37746 0.0
C251 C 0.9637 0.20599 0.34182 0.0
C252 C 0.02477 0.22209 0.28099 0.0
C253 C 0.02708 0.20758 0.1817 0.0
C254 C 0.0171 0.20953 0.21938 0.0
C255 C 0.99269 0.20771 0.33109 0.0
C256 C 1.00038 0.20949 0.29235 0.0
H257 H 1.00032 0.2056 0.0968 0.0
H258 H 0.98514 0.21388 0.15815 0.0
H259 H 0.05224 0.23154 0.23708 0.0
H260 H 0.02426 0.1997 0.41267 0.0
H261 H 0.03684 0.20705 0.35034 0.0
C262 C 0.06439 0.81267 0.37435 0.0
C263 C 0.04453 0.81178 0.40279 0.0
C264 C 0.05567 0.80773 0.33931 0.0
C265 C 0.99198 0.81196 0.28318 0.0
H266 H 0.03727 0.7776 0.21366 0.0
C267 C 0.95625 0.80828 0.13623 0.0
C268 C 0.97789 0.81091 0.11024 0.0
C269 C 0.96337 0.80356 0.17186 0.0
C270 C 0.02446 0.78742 0.23264 0.0
H271 H 1.00022 0.80395 0.41687 0.0
H272 H 0.98499 0.79558 0.35557 0.0
H273 H 0.05199 0.77802 0.27651 0.0
H274 H 0.02396 0.80976 0.10096 0.0
H275 H 0.03651 0.80236 0.16328 0.0
H276 H 0.96525 0.8224 0.23959 0.0
C277 C 1.00728 0.80016 0.36048 0.0
C278 C 0.03285 0.78755 0.26867 0.0
C279 C 0.01606 0.80485 0.3956 0.0
C280 C 1.00677 0.80773 0.12035 0.0
C281 C 0.01395 0.80337 0.15615 0.0
C282 C 0.98379 0.81207 0.2472 0.0
C283 C 0.02686 0.80202 0.33189 0.0
C284 C 0.01683 0.80001 0.29424 0.0
C285 C 0.99236 0.80178 0.18257 0.0
C286 C 1.00005 0.8 0.2213 0.0
H287 H 0.08651 0.81785 0.37896 0.0
H288 H 0.07121 0.80946 0.31781 0.0
H289 H 0.97946 0.82206 0.30214 0.0
H290 H 0.93376 0.81035 0.12918 0.0
H291 H 0.94609 0.80181 0.19116 0.0
C292 C 0.05116 0.80338 0.63045 0.0
C293 C 0.02818 0.80545 0.60614 0.0
C294 C 0.04592 0.79848 0.6666 0.0
C295 C 0.98845 0.80555 0.73365 0.0
H296 H 0.04031 0.77054 0.79476 0.0
C297 C 0.96881 0.80008 0.88531 0.0
C298 C 0.99299 0.80473 0.90681 0.0
C299 C 0.97207 0.79524 0.84881 0.0
C300 C 0.02566 0.78042 0.77804 0.0
H301 H 0.98185 0.80248 0.60023 0.0
H302 H 0.97278 0.79349 0.66303 0.0
H303 H 0.04791 0.77074 0.72996 0.0
H304 H 0.03965 0.80666 0.90723 0.0
H305 H 0.0453 0.79845 0.8436 0.0
H306 H 0.96662 0.81574 0.78154 0.0
C307 C 0.9948 0.7962 0.6544 0.0
C308 C 0.03002 0.78055 0.74091 0.0
C309 C 1.00002 0.80121 0.61832 0.0
C310 C 0.02057 0.80318 0.89143 0.0
C311 C 0.02382 0.79835 0.85492 0.0
C312 C 0.98408 0.8054 0.77065 0.0
C313 C 0.01759 0.79544 0.67919 0.0
C314 C 0.01169 0.79339 0.7183 0.0
C315 C 0.99957 0.79495 0.83297 0.0
C316 C 1.00284 0.79311 0.79339 0.0
H317 H 0.07311 0.80657 0.62194 0.0
H318 H 0.06398 0.79821 0.68493 0.0
H319 H 0.97421 0.81602 0.71722 0.0
H320 H 0.94726 0.801 0.89635 0.0
H321 H 0.95297 0.79229 0.8328 0.0
C322 C 1.00003 0.20838 0.8953 0.0
C323 C 0.0282 0.20417 0.90747 0.0
C324 C 0.99481 0.21342 0.85924 0.0
C325 C 0.03005 0.22916 0.77273 0.0
H326 H 0.96667 0.194 0.73208 0.0
C327 C 0.02071 0.20646 0.62224 0.0
C328 C 0.99314 0.20494 0.60684 0.0
C329 C 0.02394 0.21131 0.65874 0.0
C330 C 0.98412 0.20433 0.74297 0.0
H331 H 0.07314 0.20312 0.89164 0.0
H332 H 0.06401 0.21153 0.82868 0.0
H333 H 0.97423 0.1937 0.7964 0.0
H334 H 0.94741 0.20877 0.61725 0.0
H335 H 0.95307 0.21751 0.6808 0.0
H336 H 0.04038 0.23917 0.71889 0.0
C337 C 0.04593 0.21122 0.84702 0.0
C338 C 0.98847 0.20416 0.77998 0.0
C339 C 0.05117 0.20629 0.88314 0.0
C340 C 0.96895 0.20965 0.62831 0.0
C341 C 0.97218 0.21452 0.6648 0.0
C342 C 0.02571 0.2293 0.7356 0.0
C343 C 0.01761 0.21424 0.83444 0.0
C344 C 0.0117 0.21631 0.79533 0.0
C345 C 0.99967 0.21477 0.68066 0.0
C346 C 1.0029 0.21662 0.72025 0.0
H347 H 0.98186 0.20707 0.9134 0.0
H348 H 0.97278 0.21612 0.85064 0.0
H349 H 0.04793 0.23896 0.78369 0.0
H350 H 0.0398 0.20293 0.60646 0.0
H351 H 0.04541 0.21119 0.67008 0.0
C352 C 0.51632 0.70527 0.12034 0.0
C353 C 0.54475 0.69827 0.11307 0.0
C354 C 0.50758 0.70991 0.1555 0.0
C355 C 0.53329 0.72224 0.24733 0.0
H356 H 0.46543 0.68769 0.27636 0.0
C357 C 0.50706 0.70196 0.3956 0.0
C358 C 0.47815 0.69895 0.40574 0.0
C359 C 0.51427 0.70632 0.35981 0.0
C360 C 0.48404 0.69794 0.26877 0.0
H361 H 0.58671 0.692 0.1368 0.0
H362 H 0.57148 0.70028 0.19802 0.0
H363 H 0.47963 0.68806 0.21379 0.0
H364 H 0.43402 0.69983 0.38684 0.0
H365 H 0.44643 0.70836 0.32487 0.0
H366 H 0.5378 0.73207 0.30238 0.0
C367 C 0.55594 0.70212 0.17655 0.0
C368 C 0.49223 0.69806 0.23277 0.0
C369 C 0.56461 0.69724 0.14148 0.0
C370 C 0.45653 0.70176 0.37977 0.0
C371 C 0.4637 0.70647 0.34415 0.0
C372 C 0.52491 0.72235 0.28337 0.0
C373 C 0.52716 0.70791 0.18405 0.0
C374 C 0.51717 0.7099 0.22173 0.0
C375 C 0.4927 0.70809 0.33342 0.0
C376 C 0.50041 0.70988 0.29469 0.0
H377 H 0.50048 0.70628 0.0991 0.0
H378 H 0.48532 0.71456 0.16047 0.0
H379 H 0.5525 0.73168 0.2395 0.0
H380 H 0.52423 0.6998 0.41497 0.0
H381 H 0.53685 0.7072 0.35266 0.0
C382 C 0.5627 0.31233 0.37338 0.0
C383 C 0.54287 0.31178 0.40186 0.0
C384 C 0.55383 0.3075 0.33837 0.0
C385 C 0.49018 0.31263 0.28232 0.0
H386 H 0.53474 0.27765 0.2128 0.0
C387 C 0.4545 0.30945 0.13526 0.0
C388 C 0.47623 0.31177 0.10931 0.0
C389 C 0.46148 0.30467 0.17092 0.0
C390 C 0.52214 0.28765 0.23178 0.0
H391 H 0.4984 0.30466 0.41606 0.0
H392 H 0.4829 0.29646 0.3548 0.0
H393 H 0.54945 0.27785 0.27565 0.0
H394 H 0.52229 0.31001 0.10016 0.0
H395 H 0.5346 0.3025 0.1625 0.0
H396 H 0.4637 0.32347 0.23871 0.0
C397 C 0.5053 0.3007 0.35966 0.0
C398 C 0.53052 0.28764 0.26781 0.0
C399 C 0.51423 0.30528 0.39475 0.0
C400 C 0.50503 0.30823 0.11951 0.0
C401 C 0.51207 0.30381 0.15533 0.0
C402 C 0.48201 0.31287 0.24633 0.0
C403 C 0.52488 0.30223 0.33102 0.0
C404 C 0.51477 0.30034 0.29338 0.0
C405 C 0.49041 0.3025 0.18169 0.0
C406 C 0.49802 0.30059 0.22044 0.0
H407 H 0.58495 0.31717 0.37793 0.0
H408 H 0.56938 0.30897 0.31684 0.0
H409 H 0.47789 0.32291 0.30128 0.0
H410 H 0.43206 0.3118 0.12815 0.0
H411 H 0.44414 0.30316 0.19019 0.0
C412 C 0.52367 0.30138 0.89428 0.0
C413 C 0.49549 0.30555 0.90648 0.0
C414 C 0.52891 0.29644 0.85819 0.0
C415 C 0.49372 0.28089 0.77159 0.0
H416 H 0.55703 0.31627 0.73113 0.0
C417 C 0.50311 0.30387 0.62118 0.0
C418 C 0.53068 0.30546 0.6058 0.0
C419 C 0.49987 0.29898 0.65767 0.0
C420 C 0.5396 0.30588 0.74197 0.0
H421 H 0.45056 0.30657 0.89068 0.0
H422 H 0.45971 0.29832 0.82767 0.0
H423 H 0.54944 0.31639 0.79546 0.0
H424 H 0.57642 0.30173 0.61622 0.0
H425 H 0.57074 0.29293 0.67976 0.0
H426 H 0.48345 0.271 0.71769 0.0
C427 C 0.47778 0.2986 0.846 0.0
C428 C 0.53523 0.30594 0.77898 0.0
C429 C 0.47253 0.30344 0.88216 0.0
C430 C 0.55487 0.3008 0.62727 0.0
C431 C 0.55162 0.29589 0.66375 0.0
C432 C 0.49808 0.28086 0.73446 0.0
C433 C 0.50612 0.29566 0.83339 0.0
C434 C 0.51203 0.29371 0.79427 0.0
C435 C 0.52413 0.29556 0.6796 0.0
C436 C 0.52086 0.29362 0.71917 0.0
H437 H 0.54183 0.30268 0.91237 0.0
H438 H 0.55094 0.29379 0.84955 0.0
H439 H 0.47586 0.27103 0.78249 0.0
H440 H 0.48402 0.30736 0.60539 0.0
H441 H 0.47839 0.29904 0.669 0.0
C442 C 0.50007 0.70919 0.89754 0.0
C443 C 0.52824 0.70495 0.90969 0.0
C444 C 0.49483 0.71413 0.86146 0.0
C445 C 0.53002 0.72957 0.77478 0.0
H446 H 0.4666 0.69429 0.73446 0.0
C447 C 0.52061 0.70646 0.62446 0.0
C448 C 0.49304 0.70491 0.60908 0.0
C449 C 0.52385 0.71138 0.66093 0.0
C450 C 0.48406 0.70465 0.74526 0.0
H451 H 0.57316 0.7038 0.89381 0.0
H452 H 0.56399 0.71207 0.83081 0.0
H453 H 0.47419 0.6942 0.79878 0.0
H454 H 0.44731 0.70873 0.6195 0.0
H455 H 0.45298 0.7176 0.683 0.0
H456 H 0.54031 0.7394 0.72086 0.0
C457 C 0.54594 0.71184 0.84918 0.0
C458 C 0.48843 0.70461 0.78227 0.0
C459 C 0.5512 0.70698 0.88532 0.0
C460 C 0.46885 0.70964 0.63054 0.0
C461 C 0.47209 0.71458 0.66701 0.0
C462 C 0.52566 0.72959 0.73766 0.0
C463 C 0.51761 0.71485 0.83662 0.0
C464 C 0.51168 0.71681 0.79751 0.0
C465 C 0.49958 0.71488 0.68286 0.0
C466 C 0.50284 0.71686 0.72242 0.0
H467 H 0.48192 0.70794 0.91567 0.0
H468 H 0.4728 0.71684 0.85286 0.0
H469 H 0.54791 0.73941 0.78566 0.0
H470 H 0.5397 0.70292 0.60868 0.0
H471 H 0.54532 0.71129 0.67226 0.0
C472 C 0.36068 0.29517 0.96792 0.0
C473 C 0.36 0.31416 0.99174 0.0
C474 C 0.33623 0.28124 0.96287 0.0
C475 C 0.25699 0.27895 0.9782 0.0
H476 H 0.26912 0.21205 0.97939 0.0
C477 C 0.18852 0.19062 0.01227 0.0
C478 C 0.16246 0.19559 0.99468 0.0
C479 C 0.21288 0.20448 1.00659 0.0
C480 C 0.26533 0.23068 0.97906 0.0
H481 H 0.33274 0.33389 0.02792 0.0
H482 H 0.29031 0.30961 0.01931 0.0
H483 H 0.31048 0.23822 0.97937 0.0
H484 H 0.14193 0.21856 0.95622 0.0
H485 H 0.18456 0.2426 0.946 0.0
H486 H 0.21184 0.27143 0.97933 0.0
C487 C 0.3096 0.30554 1.00424 0.0
C488 C 0.28908 0.24572 0.97861 0.0
C489 C 0.33402 0.31943 0.00932 0.0
C490 C 0.16163 0.21428 0.9703 0.0
C491 C 0.18602 0.22817 0.96463 0.0
C492 C 0.23324 0.26392 0.97861 0.0
C493 C 0.31052 0.28601 0.98146 0.0
C494 C 0.28523 0.27006 0.97873 0.0
C495 C 0.21183 0.22369 0.98315 0.0
C496 C 0.2371 0.23959 0.9796 0.0
H497 H 0.38033 0.29065 0.95388 0.0
H498 H 0.33758 0.26655 0.94472 0.0
H499 H 0.2532 0.29759 0.97787 0.0
H500 H 0.18991 0.17639 0.03129 0.0
H501 H 0.23225 0.20064 0.02163 0.0
C502 C 0.68837 0.69066 0.01457 0.0
C503 C 0.66227 0.69582 0.9972 0.0
C504 C 0.71275 0.70454 0.00906 0.0
C505 C 0.73317 0.7642 0.98232 0.0
H506 H 0.81032 0.73833 0.98158 0.0
C507 C 0.86056 0.79526 0.97028 0.0
C508 C 0.86025 0.81405 0.9945 0.0
C509 C 0.83601 0.78143 0.96541 0.0
C510 C 0.78894 0.74588 0.98126 0.0
H511 H 0.64166 0.71917 0.95936 0.0
H512 H 0.6843 0.74327 0.94947 0.0
H513 H 0.76887 0.71225 0.98151 0.0
H514 H 0.83352 0.83352 0.03161 0.0
H515 H 0.79088 0.8094 0.0233 0.0
H516 H 0.75324 0.79784 0.98212 0.0
C517 C 0.68579 0.72866 0.96777 0.0
C518 C 0.76515 0.73089 0.98166 0.0
C519 C 0.6614 0.71474 0.97324 0.0
C520 C 0.83451 0.81922 0.01269 0.0
C521 C 0.80997 0.80542 0.00779 0.0
C522 C 0.75696 0.77919 0.98199 0.0
C523 C 0.71165 0.72397 0.98606 0.0
C524 C 0.73695 0.73985 0.9827 0.0
C525 C 0.81054 0.78609 0.98458 0.0
C526 C 0.78517 0.77023 0.98195 0.0
H527 H 0.6898 0.67626 0.03327 0.0
H528 H 0.73216 0.70054 0.02391 0.0
H529 H 0.7118 0.77174 0.98345 0.0
H530 H 0.88001 0.79082 0.95576 0.0
H531 H 0.83708 0.7669 0.94692 0.0
C532 C 0.18828 0.81964 0.50098 0.0
C533 C 0.16219 0.81451 0.51841 0.0
C534 C 0.21267 0.80577 0.50652 0.0
C535 C 0.23312 0.74616 0.53346 0.0
H536 H 0.31027 0.77202 0.53402 0.0
C537 C 0.36051 0.71507 0.54547 0.0
C538 C 0.36019 0.69626 0.52131 0.0
C539 C 0.33596 0.72893 0.55031 0.0
C540 C 0.28889 0.76448 0.53438 0.0
H541 H 0.14161 0.79122 0.55638 0.0
H542 H 0.18426 0.76715 0.56631 0.0
H543 H 0.26881 0.79811 0.53404 0.0
H544 H 0.33345 0.67677 0.48425 0.0
H545 H 0.29083 0.70092 0.49252 0.0
H546 H 0.2532 0.71252 0.53375 0.0
C547 C 0.18574 0.78172 0.54795 0.0
C548 C 0.26509 0.77947 0.53397 0.0
C549 C 0.16134 0.79564 0.54245 0.0
C550 C 0.33445 0.69109 0.50313 0.0
C551 C 0.30992 0.70491 0.50801 0.0
C552 C 0.25692 0.73117 0.53382 0.0
C553 C 0.21159 0.78639 0.5296 0.0
C554 C 0.2369 0.77051 0.533 0.0
C555 C 0.3105 0.72426 0.53117 0.0
C556 C 0.28512 0.74013 0.53378 0.0
H557 H 0.1897 0.834 0.48222 0.0
H558 H 0.23208 0.80975 0.49162 0.0
H559 H 0.21175 0.73862 0.53239 0.0
H560 H 0.37995 0.71951 0.55998 0.0
H561 H 0.33704 0.74348 0.56876 0.0
C562 C 0.68796 0.31955 0.49769 0.0
C563 C 0.66209 0.31455 0.51571 0.0
C564 C 0.71244 0.30575 0.50306 0.0
C565 C 0.7333 0.24641 0.53091 0.0
H566 H 0.81042 0.27235 0.53003 0.0
C567 C 0.86074 0.21549 0.54262 0.0
C568 C 0.86034 0.19646 0.51888 0.0
C569 C 0.83622 0.2294 0.54727 0.0
C570 C 0.78905 0.26479 0.53079 0.0
H571 H 0.64202 0.29157 0.55455 0.0
H572 H 0.68481 0.26763 0.56417 0.0
H573 H 0.7689 0.2984 0.52991 0.0
H574 H 0.83349 0.17664 0.48237 0.0
H575 H 0.79089 0.20087 0.49033 0.0
H576 H 0.75345 0.2128 0.53172 0.0
C577 C 0.68605 0.28204 0.54547 0.0
C578 C 0.76522 0.27975 0.53029 0.0
C579 C 0.66156 0.29588 0.54014 0.0
C580 C 0.83455 0.19114 0.50093 0.0
C581 C 0.81004 0.205 0.50562 0.0
C582 C 0.75713 0.23145 0.53133 0.0
C583 C 0.71167 0.28657 0.52656 0.0
C584 C 0.73704 0.27075 0.52987 0.0
C585 C 0.81069 0.22456 0.52836 0.0
C586 C 0.78531 0.24044 0.53079 0.0
H587 H 0.68912 0.33376 0.47862 0.0
H588 H 0.73167 0.30962 0.48775 0.0
H589 H 0.71194 0.23884 0.53027 0.0
H590 H 0.88023 0.22006 0.55694 0.0
H591 H 0.83736 0.24412 0.56538 0.0
loop_
_geom_bond_atom_site_label_1
_geom_bond_atom_site_label_2
_geom_bond_distance
_geom_bond_site_symmetry_2
_ccdc_geom_bond_type
O0 Cd1 2.223 . S
O0 C8 1.315 . S
Cd1 O0 2.223 . S
Cd1 O4 2.297 . S
Cd1 O5 2.439 . S
Cd1 O11 2.240 . S
Cd2 O3 2.240 . S
Cd2 O10 2.223 . S
Cd2 O12 2.297 1_554 S
Cd2 O13 2.439 1_554 S
O3 Cd2 2.240 . S
O3 C8 1.279 . S
O4 Cd1 2.297 . S
O4 C6 1.247 . S
O5 Cd1 2.439 . S
O5 C6 1.208 . S
C6 O4 1.247 . S
C6 O5 1.208 . S
C7 O12 1.247 . S
C7 O13 1.208 . S
C8 O0 1.315 . S
C8 O3 1.279 . S
C9 O10 1.315 . S
C9 O11 1.279 . S
O10 Cd2 2.223 . S
O10 C9 1.315 . S
O11 Cd1 2.240 . S
O11 C9 1.279 . S
O12 Cd2 2.297 1_556 S
O12 C7 1.247 . S
O13 Cd2 2.439 1_556 S
O13 C7 1.208 . S
O14 Cd15 2.223 . S
O14 C22 1.315 . S
Cd15 O14 2.223 . S
Cd15 O18 2.297 . S
Cd15 O19 2.439 . S
Cd15 O25 2.240 . S
Cd16 O17 2.240 . S
Cd16 O24 2.223 . S
Cd16 O26 2.297 1_554 S
Cd16 O27 2.439 1_554 S
O17 Cd16 2.240 . S
O17 C22 1.279 . S
O18 Cd15 2.297 . S
O18 C20 1.247 . S
O19 Cd15 2.439 . S
O19 C20 1.208 . S
C20 O18 1.247 . S
C20 O19 1.208 . S
C21 O26 1.247 . S
C21 O27 1.208 . S
C22 O14 1.315 . S
C22 O17 1.279 . S
C23 O24 1.315 . S
C23 O25 1.279 . S
O24 Cd16 2.223 . S
O24 C23 1.315 . S
O25 Cd15 2.240 . S
O25 C23 1.279 . S
O26 Cd16 2.297 1_556 S
O26 C21 1.247 . S
O27 Cd16 2.439 1_556 S
O27 C21 1.208 . S
O28 Cd29 2.223 . S
O28 C36 1.315 . S
Cd29 O28 2.223 . S
Cd29 O32 2.297 . S
Cd29 O33 2.439 . S
Cd29 O39 2.240 . S
Cd30 O31 2.240 . S
Cd30 O38 2.223 . S
Cd30 O40 2.297 . S
Cd30 O41 2.439 . S
O31 Cd30 2.240 . S
O31 C36 1.279 . S
O32 Cd29 2.297 . S
O32 C34 1.247 . S
O33 Cd29 2.439 . S
O33 C34 1.208 . S
C34 O32 1.247 . S
C34 O33 1.208 . S
C35 O40 1.247 . S
C35 O41 1.208 . S
C36 O28 1.315 . S
C36 O31 1.279 . S
C37 O38 1.315 . S
C37 O39 1.279 . S
O38 Cd30 2.223 . S
O38 C37 1.315 . S
O39 Cd29 2.240 . S
O39 C37 1.279 . S
O40 Cd30 2.297 . S
O40 C35 1.247 . S
O41 Cd30 2.439 . S
O41 C35 1.208 . S
O42 Cd43 2.223 . S
O42 C50 1.315 . S
Cd43 O42 2.223 . S
Cd43 O46 2.297 . S
Cd43 O47 2.439 . S
Cd43 O53 2.240 . S
Cd44 O45 2.240 . S
Cd44 O52 2.223 . S
Cd44 O54 2.297 . S
Cd44 O55 2.439 . S
O45 Cd44 2.240 . S
O45 C50 1.279 . S
O46 Cd43 2.297 . S
O46 C48 1.247 . S
O47 Cd43 2.439 . S
O47 C48 1.208 . S
C48 O46 1.247 . S
C48 O47 1.208 . S
C49 O54 1.247 . S
C49 O55 1.208 . S
C50 O42 1.315 . S
C50 O45 1.279 . S
C51 O52 1.315 . S
C51 O53 1.279 . S
O52 Cd44 2.223 . S
O52 C51 1.315 . S
O53 Cd43 2.240 . S
O53 C51 1.279 . S
O54 Cd44 2.297 . S
O54 C49 1.247 . S
O55 Cd44 2.439 . S
O55 C49 1.208 . S
O56 Cd57 2.223 . S
O56 C64 1.315 . S
Cd57 O56 2.223 . S
Cd57 O60 2.297 . S
Cd57 O61 2.439 . S
Cd57 O67 2.240 . S
Cd58 O59 2.240 . S
Cd58 O66 2.223 . S
Cd58 O68 2.297 1_554 S
Cd58 O69 2.439 1_554 S
O59 Cd58 2.240 . S
O59 C64 1.279 . S
O60 Cd57 2.297 . S
O60 C62 1.247 . S
O61 Cd57 2.439 . S
O61 C62 1.208 . S
C62 O60 1.247 . S
C62 O61 1.208 . S
C63 O68 1.247 . S
C63 O69 1.208 . S
C64 O56 1.315 . S
C64 O59 1.279 . S
C65 O66 1.315 . S
C65 O67 1.279 . S
O66 Cd58 2.223 . S
O66 C65 1.315 . S
O67 Cd57 2.240 . S
O67 C65 1.279 . S
O68 Cd58 2.297 1_556 S
O68 C63 1.247 . S
O69 Cd58 2.439 1_556 S
O69 C63 1.208 . S
O70 Cd71 2.223 . S
O70 C78 1.315 . S
Cd71 O70 2.223 . S
Cd71 O74 2.297 . S
Cd71 O75 2.439 . S
Cd71 O81 2.240 . S
Cd72 O73 2.240 . S
Cd72 O80 2.223 . S
Cd72 O82 2.297 1_554 S
Cd72 O83 2.439 1_554 S
O73 Cd72 2.240 . S
O73 C78 1.279 . S
O74 Cd71 2.297 . S
O74 C76 1.247 . S
O75 Cd71 2.439 . S
O75 C76 1.208 . S
C76 O74 1.247 . S
C76 O75 1.208 . S
C77 O82 1.247 . S
C77 O83 1.208 . S
C78 O70 1.315 . S
C78 O73 1.279 . S
C79 O80 1.315 . S
C79 O81 1.279 . S
O80 Cd72 2.223 . S
O80 C79 1.315 . S
O81 Cd71 2.240 . S
O81 C79 1.279 . S
O82 Cd72 2.297 1_556 S
O82 C77 1.247 . S
O83 Cd72 2.439 1_556 S
O83 C77 1.208 . S
O84 Cd85 2.223 . S
O84 C92 1.315 . S
Cd85 O84 2.223 . S
Cd85 O88 2.297 . S
Cd85 O89 2.439 . S
Cd85 O95 2.240 . S
Cd86 O87 2.240 . S
Cd86 O94 2.223 . S
Cd86 O96 2.297 . S
Cd86 O97 2.439 . S
O87 Cd86 2.240 . S
O87 C92 1.279 . S
O88 Cd85 2.297 . S
O88 C90 1.247 . S
O89 Cd85 2.439 . S
O89 C90 1.208 . S
C90 O88 1.247 . S
C90 O89 1.208 . S
C91 O96 1.247 . S
C91 O97 1.208 . S
C92 O84 1.315 . S
C92 O87 1.279 . S
C93 O94 1.315 . S
C93 O95 1.279 . S
O94 Cd86 2.223 . S
O94 C93 1.315 . S
O95 Cd85 2.240 . S
O95 C93 1.279 . S
O96 Cd86 2.297 . S
O96 C91 1.247 . S
O97 Cd86 2.439 . S
O97 C91 1.208 . S
O98 Cd99 2.223 . S
O98 C106 1.315 . S
Cd99 O98 2.223 . S
Cd99 O102 2.297 . S
Cd99 O103 2.439 . S
Cd99 O109 2.240 . S
Cd100 O101 2.240 . S
Cd100 O108 2.223 . S
Cd100 O110 2.297 . S
Cd100 O111 2.439 . S
O101 Cd100 2.240 . S
O101 C106 1.279 . S
O102 Cd99 2.297 . S
O102 C104 1.247 . S
O103 Cd99 2.439 . S
O103 C104 1.208 . S
C104 O102 1.247 . S
C104 O103 1.208 . S
C105 O110 1.247 . S
C105 O111 1.208 . S
C106 O98 1.315 . S
C106 O101 1.279 . S
C107 O108 1.315 . S
C107 O109 1.279 . S
O108 Cd100 2.223 . S
O108 C107 1.315 . S
O109 Cd99 2.240 . S
O109 C107 1.279 . S
O110 Cd100 2.297 . S
O110 C105 1.247 . S
O111 Cd100 2.439 . S
O111 C105 1.208 . S
C112 C113 1.349 1_556 S
C112 C114 1.327 . S
C112 H137 0.950 . S
C113 C112 1.349 1_554 S
C113 C129 1.349 . S
C114 C112 1.327 . S
C114 C133 1.429 1_556 S
C114 H138 0.950 . S
C115 C132 1.574 1_565 S
C115 C134 1.368 1_455 S
C115 H139 0.949 . S
H116 C120 0.949 . S
C117 C118 1.349 . S
C117 C119 1.327 . S
C117 H140 0.950 . S
C118 C117 1.349 . S
C118 C130 1.349 1_554 S
C119 C117 1.327 . S
C119 C135 1.429 . S
C119 H141 0.950 . S
C120 H116 0.949 . S
C120 C128 1.574 1_545 S
C120 C136 1.368 1_656 S
H121 C129 0.950 . S
H122 C127 0.950 1_455 S
H123 C128 0.949 . S
H124 C130 0.950 . S
H125 C131 0.950 1_655 S
H126 C132 0.949 . S
C127 H122 0.950 1_655 S
C127 C129 1.327 . S
C127 C133 1.429 . S
C128 C120 1.574 1_565 S
C128 H123 0.949 . S
C128 C134 1.368 1_556 S
C129 C113 1.349 . S
C129 H121 0.950 . S
C129 C127 1.327 . S
C130 C118 1.349 1_556 S
C130 H124 0.950 . S
C130 C131 1.327 . S
C131 H125 0.950 1_455 S
C131 C130 1.327 . S
C131 C135 1.429 1_556 S
C132 C115 1.574 1_545 S
C132 H126 0.949 . S
C132 C136 1.368 . S
C133 C114 1.429 1_554 S
C133 C127 1.429 . S
C133 C134 1.523 . S
C134 C115 1.368 1_655 S
C134 C128 1.368 1_554 S
C134 C133 1.523 . S
C135 C119 1.429 . S
C135 C131 1.429 1_554 S
C135 C136 1.523 . S
C136 C120 1.368 1_454 S
C136 C132 1.368 . S
C136 C135 1.523 . S
H137 C112 0.950 . S
H138 C114 0.950 . S
H139 C115 0.949 . S
H140 C117 0.950 . S
H141 C119 0.950 . S
C142 C143 1.349 . S
C142 C144 1.327 . S
C142 H167 0.950 . S
C143 C142 1.349 . S
C143 C159 1.349 . S
C144 C142 1.327 . S
C144 C163 1.429 . S
C144 H168 0.950 1_455 S
C145 C162 1.574 1_565 S
C145 C164 1.368 . S
C145 H169 0.949 . S
H146 C150 0.949 . S
C147 C148 1.349 . S
C147 C149 1.327 . S
C147 H170 0.950 . S
C148 C147 1.349 . S
C148 C160 1.349 . S
C149 C147 1.327 . S
C149 C165 1.429 . S
C149 H171 0.950 1_655 S
C150 H146 0.949 . S
C150 C158 1.574 1_545 S
C150 C166 1.368 . S
H151 C159 0.950 . S
H152 C157 0.950 . S
H153 C158 0.949 . S
H154 C160 0.950 . S
H155 C161 0.950 . S
H156 C162 0.949 . S
C157 H152 0.950 . S
C157 C159 1.327 . S
C157 C163 1.429 . S
C158 C150 1.574 1_565 S
C158 H153 0.949 . S
C158 C164 1.368 1_655 S
C159 C143 1.349 . S
C159 H151 0.950 . S
C159 C157 1.327 . S
C160 C148 1.349 . S
C160 H154 0.950 . S
C160 C161 1.327 . S
C161 H155 0.950 . S
C161 C160 1.327 . S
C161 C165 1.429 . S
C162 C145 1.574 1_545 S
C162 H156 0.949 . S
C162 C166 1.368 1_455 S
C163 C144 1.429 . S
C163 C157 1.429 . S
C163 C164 1.523 . S
C164 C145 1.368 . S
C164 C158 1.368 1_455 S
C164 C163 1.523 . S
C165 C149 1.429 . S
C165 C161 1.429 . S
C165 C166 1.523 . S
C166 C150 1.368 . S
C166 C162 1.368 1_655 S
C166 C165 1.523 . S
H167 C142 0.950 . S
H168 C144 0.950 1_655 S
H169 C145 0.949 . S
H170 C147 0.950 . S
H171 C149 0.950 1_455 S
C172 C173 1.349 1_556 S
C172 C174 1.327 . S
C172 H197 0.950 . S
C173 C172 1.349 1_554 S
C173 C189 1.349 . S
C174 C172 1.327 . S
C174 C193 1.429 1_556 S
C174 H198 0.950 . S
C175 C192 1.574 . S
C175 C194 1.368 . S
C175 H199 0.949 . S
H176 C180 0.949 . S
C177 C178 1.349 . S
C177 C179 1.327 . S
C177 H200 0.950 . S
C178 C177 1.349 . S
C178 C190 1.349 1_554 S
C179 C177 1.327 . S
C179 C195 1.429 . S
C179 H201 0.950 . S
C180 H176 0.949 . S
C180 C188 1.574 . S
C180 C196 1.368 1_556 S
H181 C189 0.950 . S
H182 C187 0.950 . S
H183 C188 0.949 . S
H184 C190 0.950 . S
H185 C191 0.950 . S
H186 C192 0.949 . S
C187 H182 0.950 . S
C187 C189 1.327 . S
C187 C193 1.429 . S
C188 C180 1.574 . S
C188 H183 0.949 . S
C188 C194 1.368 1_556 S
C189 C173 1.349 . S
C189 H181 0.950 . S
C189 C187 1.327 . S
C190 C178 1.349 1_556 S
C190 H184 0.950 . S
C190 C191 1.327 . S
C191 H185 0.950 . S
C191 C190 1.327 . S
C191 C195 1.429 1_556 S
C192 C175 1.574 . S
C192 H186 0.949 . S
C192 C196 1.368 . S
C193 C174 1.429 1_554 S
C193 C187 1.429 . S
C193 C194 1.523 . S
C194 C175 1.368 . S
C194 C188 1.368 1_554 S
C194 C193 1.523 . S
C195 C179 1.429 . S
C195 C191 1.429 1_554 S
C195 C196 1.523 . S
C196 C180 1.368 1_554 S
C196 C192 1.368 . S
C196 C195 1.523 . S
H197 C172 0.950 . S
H198 C174 0.950 . S
H199 C175 0.949 . S
H200 C177 0.950 . S
H201 C179 0.950 . S
C202 C203 1.349 . S
C202 C204 1.327 . S
C202 H227 0.950 . S
C203 C202 1.349 . S
C203 C219 1.349 . S
C204 C202 1.327 . S
C204 C223 1.429 . S
C204 H228 0.950 . S
C205 C222 1.574 . S
C205 C224 1.368 . S
C205 H229 0.949 . S
H206 C210 0.949 . S
C207 C208 1.349 . S
C207 C209 1.327 . S
C207 H230 0.950 . S
C208 C207 1.349 . S
C208 C220 1.349 . S
C209 C207 1.327 . S
C209 C225 1.429 . S
C209 H231 0.950 . S
C210 H206 0.949 . S
C210 C218 1.574 . S
C210 C226 1.368 . S
H211 C219 0.950 . S
H212 C217 0.950 . S
H213 C218 0.949 . S
H214 C220 0.950 . S
H215 C221 0.950 . S
H216 C222 0.949 . S
C217 H212 0.950 . S
C217 C219 1.327 . S
C217 C223 1.429 . S
C218 C210 1.574 . S
C218 H213 0.949 . S
C218 C224 1.368 . S
C219 C203 1.349 . S
C219 H211 0.950 . S
C219 C217 1.327 . S
C220 C208 1.349 . S
C220 H214 0.950 . S
C220 C221 1.327 . S
C221 H215 0.950 . S
C221 C220 1.327 . S
C221 C225 1.429 . S
C222 C205 1.574 . S
C222 H216 0.949 . S
C222 C226 1.368 . S
C223 C204 1.429 . S
C223 C217 1.429 . S
C223 C224 1.523 . S
C224 C205 1.368 . S
C224 C218 1.368 . S
C224 C223 1.523 . S
C225 C209 1.429 . S
C225 C221 1.429 . S
C225 C226 1.523 . S
C226 C210 1.368 . S
C226 C222 1.368 . S
C226 C225 1.523 . S
H227 C202 0.950 . S
H228 C204 0.950 . S
H229 C205 0.949 . S
H230 C207 0.950 . S
H231 C209 0.950 . S
C232 C233 1.349 . S
C232 C234 1.327 . S
C232 H257 0.950 . S
C233 C232 1.349 . S
C233 C249 1.349 . S
C234 C232 1.327 . S
C234 C253 1.429 . S
C234 H258 0.950 1_455 S
C235 C252 1.574 . S
C235 C254 1.368 . S
C235 H259 0.949 . S
H236 C240 0.949 . S
C237 C238 1.349 . S
C237 C239 1.327 . S
C237 H260 0.950 . S
C238 C237 1.349 . S
C238 C250 1.349 . S
C239 C237 1.327 . S
C239 C255 1.429 . S
C239 H261 0.950 1_655 S
C240 H236 0.949 . S
C240 C248 1.574 . S
C240 C256 1.368 . S
H241 C249 0.950 . S
H242 C247 0.950 . S
H243 C248 0.949 . S
H244 C250 0.950 . S
H245 C251 0.950 . S
H246 C252 0.949 . S
C247 H242 0.950 . S
C247 C249 1.327 . S
C247 C253 1.429 . S
C248 C240 1.574 . S
C248 H243 0.949 . S
C248 C254 1.368 1_655 S
C249 C233 1.349 . S
C249 H241 0.950 . S
C249 C247 1.327 . S
C250 C238 1.349 . S
C250 H244 0.950 . S
C250 C251 1.327 . S
C251 H245 0.950 . S
C251 C250 1.327 . S
C251 C255 1.429 . S
C252 C235 1.574 . S
C252 H246 0.949 . S
C252 C256 1.368 1_455 S
C253 C234 1.429 . S
C253 C247 1.429 . S
C253 C254 1.523 . S
C254 C235 1.368 . S
C254 C248 1.368 1_455 S
C254 C253 1.523 . S
C255 C239 1.429 . S
C255 C251 1.429 . S
C255 C256 1.523 . S
C256 C240 1.368 . S
C256 C252 1.368 1_655 S
C256 C255 1.523 . S
H257 C232 0.950 . S
H258 C234 0.950 1_655 S
H259 C235 0.949 . S
H260 C237 0.950 . S
H261 C239 0.950 1_455 S
C262 C263 1.349 . S
C262 C264 1.327 . S
C262 H287 0.950 . S
C263 C262 1.349 . S
C263 C279 1.349 . S
C264 C262 1.327 . S
C264 C283 1.429 . S
C264 H288 0.950 . S
C265 C282 1.574 . S
C265 C284 1.368 1_655 S
C265 H289 0.949 . S
H266 C270 0.949 . S
C267 C268 1.349 . S
C267 C269 1.327 . S
C267 H290 0.950 . S
C268 C267 1.349 . S
C268 C280 1.349 . S
C269 C267 1.327 . S
C269 C285 1.429 . S
C269 H291 0.950 . S
C270 H266 0.949 . S
C270 C278 1.574 . S
C270 C286 1.368 1_455 S
H271 C279 0.950 . S
H272 C277 0.950 1_655 S
H273 C278 0.949 . S
H274 C280 0.950 . S
H275 C281 0.950 1_455 S
H276 C282 0.949 . S
C277 H272 0.950 1_455 S
C277 C279 1.327 . S
C277 C283 1.429 . S
C278 C270 1.574 . S
C278 H273 0.949 . S
C278 C284 1.368 . S
C279 C263 1.349 . S
C279 H271 0.950 . S
C279 C277 1.327 . S
C280 C268 1.349 . S
C280 H274 0.950 . S
C280 C281 1.327 . S
C281 H275 0.950 1_655 S
C281 C280 1.327 . S
C281 C285 1.429 . S
C282 C265 1.574 . S
C282 H276 0.949 . S
C282 C286 1.368 . S
C283 C264 1.429 . S
C283 C277 1.429 . S
C283 C284 1.523 . S
C284 C265 1.368 1_455 S
C284 C278 1.368 . S
C284 C283 1.523 . S
C285 C269 1.429 . S
C285 C281 1.429 . S
C285 C286 1.523 . S
C286 C270 1.368 1_655 S
C286 C282 1.368 . S
C286 C285 1.523 . S
H287 C262 0.950 . S
H288 C264 0.950 . S
H289 C265 0.949 . S
H290 C267 0.950 . S
H291 C269 0.950 . S
C292 C293 1.349 . S
C292 C294 1.327 . S
C292 H317 0.950 . S
C293 C292 1.349 . S
C293 C309 1.349 . S
C294 C292 1.327 . S
C294 C313 1.429 . S
C294 H318 0.950 . S
C295 C312 1.574 . S
C295 C314 1.368 1_655 S
C295 H319 0.949 . S
H296 C300 0.949 . S
C297 C298 1.349 . S
C297 C299 1.327 . S
C297 H320 0.950 . S
C298 C297 1.349 . S
C298 C310 1.349 . S
C299 C297 1.327 . S
C299 C315 1.429 . S
C299 H321 0.950 . S
C300 H296 0.949 . S
C300 C308 1.574 . S
C300 C316 1.368 1_455 S
H301 C309 0.950 1_655 S
H302 C307 0.950 . S
H303 C308 0.949 . S
H304 C310 0.950 1_455 S
H305 C311 0.950 . S
H306 C312 0.949 . S
C307 H302 0.950 . S
C307 C309 1.327 1_655 S
C307 C313 1.428 1_655 S
C308 C300 1.574 . S
C308 H303 0.949 . S
C308 C314 1.368 . S
C309 C293 1.349 . S
C309 H301 0.950 1_455 S
C309 C307 1.327 1_455 S
C310 C298 1.349 . S
C310 H304 0.950 1_655 S
C310 C311 1.327 1_655 S
C311 H305 0.950 . S
C311 C310 1.327 1_455 S
C311 C315 1.428 1_455 S
C312 C295 1.574 . S
C312 H306 0.949 . S
C312 C316 1.368 . S
C313 C294 1.429 . S
C313 C307 1.428 1_455 S
C313 C314 1.523 . S
C314 C295 1.368 1_455 S
C314 C308 1.368 . S
C314 C313 1.523 . S
C315 C299 1.429 . S
C315 C311 1.428 1_655 S
C315 C316 1.523 . S
C316 C300 1.368 1_655 S
C316 C312 1.368 . S
C316 C315 1.523 . S
H317 C292 0.950 . S
H318 C294 0.950 . S
H319 C295 0.949 . S
H320 C297 0.950 . S
H321 C299 0.950 . S
C322 C323 1.349 . S
C322 C324 1.327 1_455 S
C322 H347 0.950 1_455 S
C323 C322 1.349 . S
C323 C339 1.349 . S
C324 C322 1.327 1_655 S
C324 C343 1.428 1_655 S
C324 H348 0.950 . S
C325 C342 1.574 . S
C325 C344 1.368 . S
C325 H349 0.949 . S
H326 C330 0.949 . S
C327 C328 1.349 . S
C327 C329 1.327 1_655 S
C327 H350 0.950 1_655 S
C328 C327 1.349 . S
C328 C340 1.349 . S
C329 C327 1.327 1_455 S
C329 C345 1.428 1_455 S
C329 H351 0.950 . S
C330 H326 0.949 . S
C330 C338 1.574 . S
C330 C346 1.368 . S
H331 C339 0.950 . S
H332 C337 0.950 . S
H333 C338 0.949 . S
H334 C340 0.950 . S
H335 C341 0.950 . S
H336 C342 0.949 . S
C337 H332 0.950 . S
C337 C339 1.327 . S
C337 C343 1.429 . S
C338 C330 1.574 . S
C338 H333 0.949 . S
C338 C344 1.368 1_655 S
C339 C323 1.349 . S
C339 H331 0.950 . S
C339 C337 1.327 . S
C340 C328 1.349 . S
C340 H334 0.950 . S
C340 C341 1.327 . S
C341 H335 0.950 . S
C341 C340 1.327 . S
C341 C345 1.429 . S
C342 C325 1.574 . S
C342 H336 0.949 . S
C342 C346 1.368 1_455 S
C343 C324 1.428 1_455 S
C343 C337 1.429 . S
C343 C344 1.523 . S
C344 C325 1.368 . S
C344 C338 1.368 1_455 S
C344 C343 1.523 . S
C345 C329 1.428 1_655 S
C345 C341 1.429 . S
C345 C346 1.523 . S
C346 C330 1.368 . S
C346 C342 1.368 1_655 S
C346 C345 1.523 . S
H347 C322 0.950 1_655 S
H348 C324 0.950 . S
H349 C325 0.949 . S
H350 C327 0.950 1_455 S
H351 C329 0.950 . S
C352 C353 1.349 . S
C352 C354 1.327 . S
C352 H377 0.950 . S
C353 C352 1.349 . S
C353 C369 1.349 . S
C354 C352 1.327 . S
C354 C373 1.429 . S
C354 H378 0.950 . S
C355 C372 1.574 . S
C355 C374 1.368 . S
C355 H379 0.949 . S
H356 C360 0.949 . S
C357 C358 1.349 . S
C357 C359 1.327 . S
C357 H380 0.950 . S
C358 C357 1.349 . S
C358 C370 1.349 . S
C359 C357 1.327 . S
C359 C375 1.429 . S
C359 H381 0.950 . S
C360 H356 0.949 . S
C360 C368 1.574 . S
C360 C376 1.368 . S
H361 C369 0.950 . S
H362 C367 0.950 . S
H363 C368 0.949 . S
H364 C370 0.950 . S
H365 C371 0.950 . S
H366 C372 0.949 . S
C367 H362 0.950 . S
C367 C369 1.327 . S
C367 C373 1.429 . S
C368 C360 1.574 . S
C368 H363 0.949 . S
C368 C374 1.368 . S
C369 C353 1.349 . S
C369 H361 0.950 . S
C369 C367 1.327 . S
C370 C358 1.349 . S
C370 H364 0.950 . S
C370 C371 1.327 . S
C371 H365 0.950 . S
C371 C370 1.327 . S
C371 C375 1.429 . S
C372 C355 1.574 . S
C372 H366 0.949 . S
C372 C376 1.368 . S
C373 C354 1.429 . S
C373 C367 1.429 . S
C373 C374 1.523 . S
C374 C355 1.368 . S
C374 C368 1.368 . S
C374 C373 1.523 . S
C375 C359 1.429 . S
C375 C371 1.429 . S
C375 C376 1.523 . S
C376 C360 1.368 . S
C376 C372 1.368 . S
C376 C375 1.523 . S
H377 C352 0.950 . S
H378 C354 0.950 . S
H379 C355 0.949 . S
H380 C357 0.950 . S
H381 C359 0.950 . S
C382 C383 1.349 . S
C382 C384 1.327 . S
C382 H407 0.950 . S
C383 C382 1.349 . S
C383 C399 1.349 . S
C384 C382 1.327 . S
C384 C403 1.429 . S
C384 H408 0.950 . S
C385 C402 1.574 . S
C385 C404 1.368 . S
C385 H409 0.949 . S
H386 C390 0.949 . S
C387 C388 1.349 . S
C387 C389 1.327 . S
C387 H410 0.950 . S
C388 C387 1.349 . S
C388 C400 1.349 . S
C389 C387 1.327 . S
C389 C405 1.429 . S
C389 H411 0.950 . S
C390 H386 0.949 . S
C390 C398 1.574 . S
C390 C406 1.368 . S
H391 C399 0.950 . S
H392 C397 0.950 . S
H393 C398 0.949 . S
H394 C400 0.950 . S
H395 C401 0.950 . S
H396 C402 0.949 . S
C397 H392 0.950 . S
C397 C399 1.327 . S
C397 C403 1.429 . S
C398 C390 1.574 . S
C398 H393 0.949 . S
C398 C404 1.368 . S
C399 C383 1.349 . S
C399 H391 0.950 . S
C399 C397 1.327 . S
C400 C388 1.349 . S
C400 H394 0.950 . S
C400 C401 1.327 . S
C401 H395 0.950 . S
C401 C400 1.327 . S
C401 C405 1.429 . S
C402 C385 1.574 . S
C402 H396 0.949 . S
C402 C406 1.368 . S
C403 C384 1.429 . S
C403 C397 1.429 . S
C403 C404 1.523 . S
C404 C385 1.368 . S
C404 C398 1.368 . S
C404 C403 1.523 . S
C405 C389 1.429 . S
C405 C401 1.429 . S
C405 C406 1.523 . S
C406 C390 1.368 . S
C406 C402 1.368 . S
C406 C405 1.523 . S
H407 C382 0.950 . S
H408 C384 0.950 . S
H409 C385 0.949 . S
H410 C387 0.950 . S
H411 C389 0.950 . S
C412 C413 1.349 . S
C412 C414 1.327 . S
C412 H437 0.950 . S
C413 C412 1.349 . S
C413 C429 1.349 . S
C414 C412 1.327 . S
C414 C433 1.429 . S
C414 H438 0.950 . S
C415 C432 1.574 . S
C415 C434 1.368 . S
C415 H439 0.949 . S
H416 C420 0.949 . S
C417 C418 1.349 . S
C417 C419 1.327 . S
C417 H440 0.950 . S
C418 C417 1.349 . S
C418 C430 1.349 . S
C419 C417 1.327 . S
C419 C435 1.429 . S
C419 H441 0.950 . S
C420 H416 0.949 . S
C420 C428 1.574 . S
C420 C436 1.368 . S
H421 C429 0.950 . S
H422 C427 0.950 . S
H423 C428 0.949 . S
H424 C430 0.950 . S
H425 C431 0.950 . S
H426 C432 0.949 . S
C427 H422 0.950 . S
C427 C429 1.327 . S
C427 C433 1.429 . S
C428 C420 1.574 . S
C428 H423 0.949 . S
C428 C434 1.368 . S
C429 C413 1.349 . S
C429 H421 0.950 . S
C429 C427 1.327 . S
C430 C418 1.349 . S
C430 H424 0.950 . S
C430 C431 1.327 . S
C431 H425 0.950 . S
C431 C430 1.327 . S
C431 C435 1.429 . S
C432 C415 1.574 . S
C432 H426 0.949 . S
C432 C436 1.368 . S
C433 C414 1.429 . S
C433 C427 1.429 . S
C433 C434 1.523 . S
C434 C415 1.368 . S
C434 C428 1.368 . S
C434 C433 1.523 . S
C435 C419 1.429 . S
C435 C431 1.429 . S
C435 C436 1.523 . S
C436 C420 1.368 . S
C436 C432 1.368 . S
C436 C435 1.523 . S
H437 C412 0.950 . S
H438 C414 0.950 . S
H439 C415 0.949 . S
H440 C417 0.950 . S
H441 C419 0.950 . S
C442 C443 1.349 . S
C442 C444 1.327 . S
C442 H467 0.950 . S
C443 C442 1.349 . S
C443 C459 1.349 . S
C444 C442 1.327 . S
C444 C463 1.429 . S
C444 H468 0.950 . S
C445 C462 1.574 . S
C445 C464 1.368 . S
C445 H469 0.949 . S
H446 C450 0.949 . S
C447 C448 1.349 . S
C447 C449 1.327 . S
C447 H470 0.950 . S
C448 C447 1.349 . S
C448 C460 1.349 . S
C449 C447 1.327 . S
C449 C465 1.429 . S
C449 H471 0.950 . S
C450 H446 0.949 . S
C450 C458 1.574 . S
C450 C466 1.368 . S
H451 C459 0.950 . S
H452 C457 0.950 . S
H453 C458 0.949 . S
H454 C460 0.950 . S
H455 C461 0.950 . S
H456 C462 0.949 . S
C457 H452 0.950 . S
C457 C459 1.327 . S
C457 C463 1.429 . S
C458 C450 1.574 . S
C458 H453 0.949 . S
C458 C464 1.368 . S
C459 C443 1.349 . S
C459 H451 0.950 . S
C459 C457 1.327 . S
C460 C448 1.349 . S
C460 H454 0.950 . S
C460 C461 1.327 . S
C461 H455 0.950 . S
C461 C460 1.327 . S
C461 C465 1.429 . S
C462 C445 1.574 . S
C462 H456 0.949 . S
C462 C466 1.368 . S
C463 C444 1.429 . S
C463 C457 1.429 . S
C463 C464 1.523 . S
C464 C445 1.368 . S
C464 C458 1.368 . S
C464 C463 1.523 . S
C465 C449 1.429 . S
C465 C461 1.429 . S
C465 C466 1.523 . S
C466 C450 1.368 . S
C466 C462 1.368 . S
C466 C465 1.523 . S
H467 C442 0.950 . S
H468 C444 0.950 . S
H469 C445 0.949 . S
H470 C447 0.950 . S
H471 C449 0.950 . S
C472 C473 1.349 . S
C472 C474 1.327 . S
C472 H497 0.950 1_554 S
C473 C472 1.349 . S
C473 C489 1.349 . S
C474 C472 1.327 . S
C474 C493 1.429 . S
C474 H498 0.950 1_554 S
C475 C492 1.574 . S
C475 C494 1.368 . S
C475 H499 0.949 . S
H476 C480 0.949 1_556 S
C477 C478 1.349 . S
C477 C479 1.327 . S
C477 H500 0.950 . S
C478 C477 1.349 . S
C478 C490 1.349 . S
C479 C477 1.327 . S
C479 C495 1.429 . S
C479 H501 0.950 . S
C480 H476 0.949 1_554 S
C480 C488 1.574 . S
C480 C496 1.368 . S
H481 C489 0.950 . S
H482 C487 0.950 . S
H483 C488 0.949 1_556 S
H484 C490 0.950 1_556 S
H485 C491 0.950 1_556 S
H486 C492 0.949 . S
C487 H482 0.950 . S
C487 C489 1.327 . S
C487 C493 1.429 . S
C488 C480 1.574 . S
C488 H483 0.949 1_554 S
C488 C494 1.368 . S
C489 C473 1.349 . S
C489 H481 0.950 . S
C489 C487 1.327 . S
C490 C478 1.349 . S
C490 H484 0.950 1_554 S
C490 C491 1.327 . S
C491 H485 0.950 1_554 S
C491 C490 1.327 . S
C491 C495 1.429 . S
C492 C475 1.574 . S
C492 H486 0.949 . S
C492 C496 1.368 . S
C493 C474 1.429 . S
C493 C487 1.429 . S
C493 C494 1.523 . S
C494 C475 1.368 . S
C494 C488 1.368 . S
C494 C493 1.523 . S
C495 C479 1.429 . S
C495 C491 1.429 . S
C495 C496 1.523 . S
C496 C480 1.368 . S
C496 C492 1.368 . S
C496 C495 1.523 . S
H497 C472 0.950 1_556 S
H498 C474 0.950 1_556 S
H499 C475 0.949 . S
H500 C477 0.950 . S
H501 C479 0.950 . S
C502 C503 1.349 . S
C502 C504 1.327 . S
C502 H527 0.950 . S
C503 C502 1.349 . S
C503 C519 1.349 . S
C504 C502 1.327 . S
C504 C523 1.429 . S
C504 H528 0.950 . S
C505 C522 1.574 . S
C505 C524 1.368 . S
C505 H529 0.949 1_554 S
H506 C510 0.949 . S
C507 C508 1.349 . S
C507 C509 1.327 . S
C507 H530 0.950 1_554 S
C508 C507 1.349 . S
C508 C520 1.349 . S
C509 C507 1.327 . S
C509 C525 1.429 . S
C509 H531 0.950 1_554 S
C510 H506 0.949 . S
C510 C518 1.574 . S
C510 C526 1.368 . S
H511 C519 0.950 1_556 S
H512 C517 0.950 1_556 S
H513 C518 0.949 . S
H514 C520 0.950 . S
H515 C521 0.950 . S
H516 C522 0.949 1_556 S
C517 H512 0.950 1_554 S
C517 C519 1.327 . S
C517 C523 1.429 . S
C518 C510 1.574 . S
C518 H513 0.949 . S
C518 C524 1.368 . S
C519 C503 1.349 . S
C519 H511 0.950 1_554 S
C519 C517 1.327 . S
C520 C508 1.349 . S
C520 H514 0.950 . S
C520 C521 1.327 . S
C521 H515 0.950 . S
C521 C520 1.327 . S
C521 C525 1.429 . S
C522 C505 1.574 . S
C522 H516 0.949 1_554 S
C522 C526 1.368 . S
C523 C504 1.429 . S
C523 C517 1.429 . S
C523 C524 1.523 . S
C524 C505 1.368 . S
C524 C518 1.368 . S
C524 C523 1.523 . S
C525 C509 1.429 . S
C525 C521 1.429 . S
C525 C526 1.523 . S
C526 C510 1.368 . S
C526 C522 1.368 . S
C526 C525 1.523 . S
H527 C502 0.950 . S
H528 C504 0.950 . S
H529 C505 0.949 1_556 S
H530 C507 0.950 1_556 S
H531 C509 0.950 1_556 S
C532 C533 1.349 . S
C532 C534 1.327 . S
C532 H557 0.950 . S
C533 C532 1.349 . S
C533 C549 1.349 . S
C534 C532 1.327 . S
C534 C553 1.429 . S
C534 H558 0.950 . S
C535 C552 1.574 . S
C535 C554 1.368 . S
C535 H559 0.949 . S
H536 C540 0.949 . S
C537 C538 1.349 . S
C537 C539 1.327 . S
C537 H560 0.950 . S
C538 C537 1.349 . S
C538 C550 1.349 . S
C539 C537 1.327 . S
C539 C555 1.429 . S
C539 H561 0.950 . S
C540 H536 0.949 . S
C540 C548 1.574 . S
C540 C556 1.368 . S
H541 C549 0.950 . S
H542 C547 0.950 . S
H543 C548 0.949 . S
H544 C550 0.950 . S
H545 C551 0.950 . S
H546 C552 0.949 . S
C547 H542 0.950 . S
C547 C549 1.327 . S
C547 C553 1.429 . S
C548 C540 1.574 . S
C548 H543 0.949 . S
C548 C554 1.368 . S
C549 C533 1.349 . S
C549 H541 0.950 . S
C549 C547 1.327 . S
C550 C538 1.349 . S
C550 H544 0.950 . S
C550 C551 1.327 . S
C551 H545 0.950 . S
C551 C550 1.327 . S
C551 C555 1.429 . S
C552 C535 1.574 . S
C552 H546 0.949 . S
C552 C556 1.368 . S
C553 C534 1.429 . S
C553 C547 1.429 . S
C553 C554 1.523 . S
C554 C535 1.368 . S
C554 C548 1.368 . S
C554 C553 1.523 . S
C555 C539 1.429 . S
C555 C551 1.429 . S
C555 C556 1.523 . S
C556 C540 1.368 . S
C556 C552 1.368 . S
C556 C555 1.523 . S
H557 C532 0.950 . S
H558 C534 0.950 . S
H559 C535 0.949 . S
H560 C537 0.950 . S
H561 C539 0.950 . S
C562 C563 1.349 . S
C562 C564 1.327 . S
C562 H587 0.950 . S
C563 C562 1.349 . S
C563 C579 1.349 . S
C564 C562 1.327 . S
C564 C583 1.429 . S
C564 H588 0.950 . S
C565 C582 1.574 . S
C565 C584 1.368 . S
C565 H589 0.949 . S
H566 C570 0.949 . S
C567 C568 1.349 . S
C567 C569 1.327 . S
C567 H590 0.950 . S
C568 C567 1.349 . S
C568 C580 1.349 . S
C569 C567 1.327 . S
C569 C585 1.429 . S
C569 H591 0.950 . S
C570 H566 0.949 . S
C570 C578 1.574 . S
C570 C586 1.368 . S
H571 C579 0.950 . S
H572 C577 0.950 . S
H573 C578 0.949 . S
H574 C580 0.950 . S
H575 C581 0.950 . S
H576 C582 0.949 . S
C577 H572 0.950 . S
C577 C579 1.327 . S
C577 C583 1.429 . S
C578 C570 1.574 . S
C578 H573 0.949 . S
C578 C584 1.368 . S
C579 C563 1.349 . S
C579 H571 0.950 . S
C579 C577 1.327 . S
C580 C568 1.349 . S
C580 H574 0.950 . S
C580 C581 1.327 . S
C581 H575 0.950 . S
C581 C580 1.327 . S
C581 C585 1.429 . S
C582 C565 1.574 . S
C582 H576 0.949 . S
C582 C586 1.368 . S
C583 C564 1.429 . S
C583 C577 1.429 . S
C583 C584 1.523 . S
C584 C565 1.368 . S
C584 C578 1.368 . S
C584 C583 1.523 . S
C585 C569 1.429 . S
C585 C581 1.429 . S
C585 C586 1.523 . S
C586 C570 1.368 . S
C586 C582 1.368 . S
C586 C585 1.523 . S
H587 C562 0.950 . S
H588 C564 0.950 . S
H589 C565 0.949 . S
H590 C567 0.950 . S
H591 C569 0.950 . S
C113 C23 1.484 . S
C118 C9 1.484 . S
C143 C37 1.484 . S
C148 C51 1.484 . S
C173 C65 1.484 . S
C178 C79 1.484 . S
C203 C93 1.484 . S
C208 C107 1.484 . S
C233 C8 1.255 . S
C238 C50 1.255 . S
C263 C36 1.255 . S
C268 C22 1.255 . S
C293 C35 1.393 . S
C298 C21 1.393 . S
C323 C7 1.393 . S
C328 C49 1.393 . S
C353 C64 1.255 . S
C358 C106 1.255 . S
C383 C92 1.255 . S
C388 C78 1.255 . S
C413 C77 1.393 . S
C418 C91 1.393 . S
C443 C63 1.393 . S
C448 C105 1.393 . S
C473 C76 1.520 . S
C478 C6 1.520 . S
C503 C62 1.520 . S
C508 C20 1.520 . S
C533 C34 1.520 . S
C538 C104 1.520 . S
C563 C90 1.520 . S
C568 C48 1.520 . S
