# Generated by pormake.
# Topology rho, (4)-cn, num edge types: 1
# Building blocks:
#     Node 0, Type 0, BuildingBlock: UXUYUI_clean_sbu_0, # of connection points: 4
#     Node 1, Type 0, BuildingBlock: UXUYUI_clean_sbu_0, # of connection points: 4
#     Node 2, Type 0, BuildingBlock: UXUYUI_clean_sbu_0, # of connection points: 4
#     Node 3, Type 0, BuildingBlock: UXUYUI_clean_sbu_0, # of connection points: 4
#     Node 4, Type 0, BuildingBlock: UXUYUI_clean_sbu_0, # of connection points: 4
#     Node 5, Type 0, BuildingBlock: UXUYUI_clean_sbu_0, # of connection points: 4
#     Node 6, Type 0, BuildingBlock: UXUYUI_clean_sbu_0, # of connection points: 4
#     Node 7, Type 0, BuildingBlock: UXUYUI_clean_sbu_0, # of connection points: 4
#     Node 8, Type 0, BuildingBlock: UXUYUI_clean_sbu_0, # of connection points: 4
#     Node 9, Type 0, BuildingBlock: UXUYUI_clean_sbu_0, # of connection points: 4
#     Node 10, Type 0, BuildingBlock: UXUYUI_clean_sbu_0, # of connection points: 4
#     Node 11, Type 0, BuildingBlock: UXUYUI_clean_sbu_0, # of connection points: 4
#     Node 12, Type 0, BuildingBlock: UXUYUI_clean_sbu_0, # of connection points: 4
#     Node 13, Type 0, BuildingBlock: UXUYUI_clean_sbu_0, # of connection points: 4
#     Node 14, Type 0, BuildingBlock: UXUYUI_clean_sbu_0, # of connection points: 4
#     Node 15, Type 0, BuildingBlock: UXUYUI_clean_sbu_0, # of connection points: 4
#     Node 16, Type 0, BuildingBlock: UXUYUI_clean_sbu_0, # of connection points: 4
#     Node 17, Type 0, BuildingBlock: UXUYUI_clean_sbu_0, # of connection points: 4
#     Node 18, Type 0, BuildingBlock: UXUYUI_clean_sbu_0, # of connection points: 4
#     Node 19, Type 0, BuildingBlock: UXUYUI_clean_sbu_0, # of connection points: 4
#     Node 20, Type 0, BuildingBlock: UXUYUI_clean_sbu_0, # of connection points: 4
#     Node 21, Type 0, BuildingBlock: UXUYUI_clean_sbu_0, # of connection points: 4
#     Node 22, Type 0, BuildingBlock: UXUYUI_clean_sbu_0, # of connection points: 4
#     Node 23, Type 0, BuildingBlock: UXUYUI_clean_sbu_0, # of connection points: 4
#     Node 24, Type 0, BuildingBlock: UXUYUI_clean_sbu_0, # of connection points: 4
#     Node 25, Type 0, BuildingBlock: UXUYUI_clean_sbu_0, # of connection points: 4
#     Node 26, Type 0, BuildingBlock: UXUYUI_clean_sbu_0, # of connection points: 4
#     Node 27, Type 0, BuildingBlock: UXUYUI_clean_sbu_0, # of connection points: 4
#     Node 28, Type 0, BuildingBlock: UXUYUI_clean_sbu_0, # of connection points: 4
#     Node 29, Type 0, BuildingBlock: UXUYUI_clean_sbu_0, # of connection points: 4
#     Node 30, Type 0, BuildingBlock: UXUYUI_clean_sbu_0, # of connection points: 4
#     Node 31, Type 0, BuildingBlock: UXUYUI_clean_sbu_0, # of connection points: 4
#     Node 32, Type 0, BuildingBlock: UXUYUI_clean_sbu_0, # of connection points: 4
#     Node 33, Type 0, BuildingBlock: UXUYUI_clean_sbu_0, # of connection points: 4
#     Node 34, Type 0, BuildingBlock: UXUYUI_clean_sbu_0, # of connection points: 4
#     Node 35, Type 0, BuildingBlock: UXUYUI_clean_sbu_0, # of connection points: 4
#     Node 36, Type 0, BuildingBlock: UXUYUI_clean_sbu_0, # of connection points: 4
#     Node 37, Type 0, BuildingBlock: UXUYUI_clean_sbu_0, # of connection points: 4
#     Node 38, Type 0, BuildingBlock: UXUYUI_clean_sbu_0, # of connection points: 4
#     Node 39, Type 0, BuildingBlock: UXUYUI_clean_sbu_0, # of connection points: 4
#     Node 40, Type 0, BuildingBlock: UXUYUI_clean_sbu_0, # of connection points: 4
#     Node 41, Type 0, BuildingBlock: UXUYUI_clean_sbu_0, # of connection points: 4
#     Node 42, Type 0, BuildingBlock: UXUYUI_clean_sbu_0, # of connection points: 4
#     Node 43, Type 0, BuildingBlock: UXUYUI_clean_sbu_0, # of connection points: 4
#     Node 44, Type 0, BuildingBlock: UXUYUI_clean_sbu_0, # of connection points: 4
#     Node 45, Type 0, BuildingBlock: UXUYUI_clean_sbu_0, # of connection points: 4
#     Node 46, Type 0, BuildingBlock: UXUYUI_clean_sbu_0, # of connection points: 4
#     Node 47, Type 0, BuildingBlock: UXUYUI_clean_sbu_0, # of connection points: 4
#     Edge 48, Type (0, 0), None
#     Edge 49, Type (0, 0), None
#     Edge 50, Type (0, 0), None
#     Edge 51, Type (0, 0), None
#     Edge 52, Type (0, 0), None
#     Edge 53, Type (0, 0), None
#     Edge 54, Type (0, 0), None
#     Edge 55, Type (0, 0), None
#     Edge 56, Type (0, 0), None
#     Edge 57, Type (0, 0), None
#     Edge 58, Type (0, 0), None
#     Edge 59, Type (0, 0), None
#     Edge 60, Type (0, 0), None
#     Edge 61, Type (0, 0), None
#     Edge 62, Type (0, 0), None
#     Edge 63, Type (0, 0), None
#     Edge 64, Type (0, 0), None
#     Edge 65, Type (0, 0), None
#     Edge 66, Type (0, 0), None
#     Edge 67, Type (0, 0), None
#     Edge 68, Type (0, 0), None
#     Edge 69, Type (0, 0), None
#     Edge 70, Type (0, 0), None
#     Edge 71, Type (0, 0), None
#     Edge 72, Type (0, 0), None
#     Edge 73, Type (0, 0), None
#     Edge 74, Type (0, 0), None
#     Edge 75, Type (0, 0), None
#     Edge 76, Type (0, 0), None
#     Edge 77, Type (0, 0), None
#     Edge 78, Type (0, 0), None
#     Edge 79, Type (0, 0), None
#     Edge 80, Type (0, 0), None
#     Edge 81, Type (0, 0), None
#     Edge 82, Type (0, 0), None
#     Edge 83, Type (0, 0), None
#     Edge 84, Type (0, 0), None
#     Edge 85, Type (0, 0), None
#     Edge 86, Type (0, 0), None
#     Edge 87, Type (0, 0), None
#     Edge 88, Type (0, 0), None
#     Edge 89, Type (0, 0), None
#     Edge 90, Type (0, 0), None
#     Edge 91, Type (0, 0), None
#     Edge 92, Type (0, 0), None
#     Edge 93, Type (0, 0), None
#     Edge 94, Type (0, 0), None
#     Edge 95, Type (0, 0), None
#     Edge 96, Type (0, 0), None
#     Edge 97, Type (0, 0), None
#     Edge 98, Type (0, 0), None
#     Edge 99, Type (0, 0), None
#     Edge 100, Type (0, 0), None
#     Edge 101, Type (0, 0), None
#     Edge 102, Type (0, 0), None
#     Edge 103, Type (0, 0), None
#     Edge 104, Type (0, 0), None
#     Edge 105, Type (0, 0), None
#     Edge 106, Type (0, 0), None
#     Edge 107, Type (0, 0), None
#     Edge 108, Type (0, 0), None
#     Edge 109, Type (0, 0), None
#     Edge 110, Type (0, 0), None
#     Edge 111, Type (0, 0), None
#     Edge 112, Type (0, 0), None
#     Edge 113, Type (0, 0), None
#     Edge 114, Type (0, 0), None
#     Edge 115, Type (0, 0), None
#     Edge 116, Type (0, 0), None
#     Edge 117, Type (0, 0), None
#     Edge 118, Type (0, 0), None
#     Edge 119, Type (0, 0), None
#     Edge 120, Type (0, 0), None
#     Edge 121, Type (0, 0), None
#     Edge 122, Type (0, 0), None
#     Edge 123, Type (0, 0), None
#     Edge 124, Type (0, 0), None
#     Edge 125, Type (0, 0), None
#     Edge 126, Type (0, 0), None
#     Edge 127, Type (0, 0), None
#     Edge 128, Type (0, 0), None
#     Edge 129, Type (0, 0), None
#     Edge 130, Type (0, 0), None
#     Edge 131, Type (0, 0), None
#     Edge 132, Type (0, 0), None
#     Edge 133, Type (0, 0), None
#     Edge 134, Type (0, 0), None
#     Edge 135, Type (0, 0), None
#     Edge 136, Type (0, 0), None
#     Edge 137, Type (0, 0), None
#     Edge 138, Type (0, 0), None
#     Edge 139, Type (0, 0), None
#     Edge 140, Type (0, 0), None
#     Edge 141, Type (0, 0), None
#     Edge 142, Type (0, 0), None
#     Edge 143, Type (0, 0), None
# Relax obj value: 0.276
# Max RMSD: 0.250
# Mean RMSD: 0.250
data_MOF--net-rho--node1-UXUYUI_clean_sbu_0--edge1-none
_symmetry_space_group_name_H-M    P1
_symmetry_Int_Tables_number       1
_symmetry_cell_setting            triclinic
loop_
_symmetry_equiv_pos_as_xyz
'x, y, z'
_cell_length_a     65.36432
_cell_length_b     65.363627
_cell_length_c     65.365234
_cell_angle_alpha  90.000056
_cell_angle_beta   90.000187
_cell_angle_gamma 89.999968
loop_
_atom_site_label
_atom_site_type_symbol
_atom_site_fract_x
_atom_site_fract_y
_atom_site_fract_z
_atom_type_partial_charge
Li0 Li 0.10746 0.25478 0.41528 0.0
Li1 Li 0.11736 0.23142 0.38865 0.0
Li2 Li 0.10913 0.26639 0.38043 0.0
Li3 Li 0.08251 0.24302 0.39033 0.0
C4 C 0.1441 0.27274 0.40322 0.0
N5 N 0.16816 0.30562 0.41452 0.0
C6 C 0.16531 0.27193 0.40066 0.0
C7 C 0.13513 0.29027 0.41158 0.0
C8 C 0.17721 0.28871 0.40645 0.0
C9 C 0.14756 0.30673 0.41718 0.0
C10 C 0.10464 0.21411 0.426 0.0
C11 C 0.09912 0.18877 0.45225 0.0
N12 N 0.11944 0.18911 0.45672 0.0
C13 C 0.12547 0.21421 0.43086 0.0
C14 C 0.09134 0.2013 0.43677 0.0
C15 C 0.13266 0.20146 0.44643 0.0
C16 C 0.09294 0.26596 0.45374 0.0
N17 N 0.11036 0.2612 0.44348 0.0
C18 C 0.12959 0.2613 0.47456 0.0
C19 C 0.12859 0.25922 0.45332 0.0
C20 C 0.1117 0.26561 0.48565 0.0
C21 C 0.09327 0.26838 0.47494 0.0
H22 H 0.07863 0.26711 0.44551 0.0
H23 H 0.1422 0.2553 0.44479 0.0
C24 C 0.15398 0.21279 0.37574 0.0
N25 N 0.13479 0.20886 0.38272 0.0
C26 C 0.16834 0.19701 0.37432 0.0
C27 C 0.14264 0.17339 0.38658 0.0
C28 C 0.12874 0.18954 0.38751 0.0
C29 C 0.16285 0.17716 0.3804 0.0
H30 H 0.15837 0.22833 0.37212 0.0
H31 H 0.1134 0.1868 0.39305 0.0
C32 C 0.07178 0.2837 0.39315 0.0
N33 N 0.04107 0.30869 0.37834 0.0
C34 C 0.06692 0.28359 0.37231 0.0
C35 C 0.06101 0.29651 0.40644 0.0
C36 C 0.05136 0.29635 0.36513 0.0
C37 C 0.04553 0.30903 0.39866 0.0
C38 C 0.09456 0.22506 0.35369 0.0
C39 C 0.09713 0.22588 0.33248 0.0
C40 C 0.0862 0.20753 0.36265 0.0
C41 C 0.09133 0.2091 0.32058 0.0
C42 C 0.08061 0.19107 0.35023 0.0
N43 N 0.08327 0.19218 0.32962 0.0
C44 C 0.12205 0.28502 0.34381 0.0
C45 C 0.11027 0.30827 0.36905 0.0
C46 C 0.12347 0.30079 0.32945 0.0
N47 N 0.11506 0.28895 0.36299 0.0
C48 C 0.11121 0.32442 0.35514 0.0
C49 C 0.11739 0.32065 0.33493 0.0
H50 H 0.12567 0.26948 0.33942 0.0
H51 H 0.10474 0.31101 0.38438 0.0
C52 C 0.04404 0.23185 0.40485 0.0
N53 N 0.05431 0.23661 0.38742 0.0
C54 C 0.02284 0.22943 0.40451 0.0
C55 C 0.02323 0.2365 0.3682 0.0
C56 C 0.04447 0.23858 0.3692 0.0
C57 C 0.01213 0.23219 0.38609 0.0
H58 H 0.05228 0.23069 0.41915 0.0
H59 H 0.053 0.24251 0.35558 0.0
O60 O 0.13234 0.25636 0.3976 0.0
O61 O 0.09714 0.22655 0.41091 0.0
O62 O 0.08687 0.27126 0.40064 0.0
O63 O 0.10019 0.24144 0.36545 0.0
H64 H 0.17249 0.25845 0.39427 0.0
H65 H 0.11878 0.29119 0.41382 0.0
H66 H 0.19364 0.28828 0.40454 0.0
H67 H 0.14081 0.32039 0.42366 0.0
H68 H 0.089 0.17878 0.46072 0.0
H69 H 0.13601 0.22402 0.42271 0.0
H70 H 0.07518 0.20104 0.4332 0.0
H71 H 0.14874 0.20139 0.45033 0.0
H72 H 0.1441 0.25913 0.48227 0.0
H73 H 0.07908 0.27139 0.48295 0.0
H74 H 0.18384 0.20052 0.36963 0.0
H75 H 0.13784 0.15823 0.39126 0.0
H76 H 0.07507 0.27379 0.36178 0.0
H77 H 0.06459 0.29677 0.42261 0.0
H78 H 0.04745 0.29642 0.34905 0.0
H79 H 0.03707 0.31902 0.40879 0.0
H80 H 0.10352 0.23936 0.32529 0.0
H81 H 0.08397 0.20661 0.379 0.0
H82 H 0.09324 0.20952 0.30414 0.0
H83 H 0.07413 0.17742 0.35697 0.0
H84 H 0.12816 0.29728 0.31395 0.0
H85 H 0.10653 0.33957 0.35995 0.0
H86 H 0.01483 0.22641 0.4187 0.0
H87 H 0.01551 0.23867 0.35369 0.0
Li88 Li 0.76638 0.11737 0.38865 0.0
Li89 Li 0.74302 0.10746 0.41528 0.0
Li90 Li 0.75477 0.08251 0.39033 0.0
Li91 Li 0.73141 0.10914 0.38043 0.0
C92 C 0.78369 0.10465 0.426 0.0
N93 N 0.80868 0.11945 0.45672 0.0
C94 C 0.78358 0.12548 0.43086 0.0
C95 C 0.7965 0.09135 0.43677 0.0
C96 C 0.79634 0.13266 0.44643 0.0
C97 C 0.80902 0.09913 0.45225 0.0
C98 C 0.72505 0.14411 0.40322 0.0
C99 C 0.69106 0.14757 0.41718 0.0
N100 N 0.69218 0.16817 0.41452 0.0
C101 C 0.72587 0.16531 0.40066 0.0
C102 C 0.70752 0.13514 0.41158 0.0
C103 C 0.70909 0.17722 0.40645 0.0
C104 C 0.78501 0.15399 0.37574 0.0
N105 N 0.78894 0.1348 0.38272 0.0
C106 C 0.82441 0.14265 0.38658 0.0
C107 C 0.80826 0.12874 0.38751 0.0
C108 C 0.82064 0.16286 0.3804 0.0
C109 C 0.80078 0.16834 0.37431 0.0
H110 H 0.76947 0.15837 0.37212 0.0
H111 H 0.811 0.11341 0.39305 0.0
C112 C 0.73184 0.09295 0.45374 0.0
N113 N 0.7366 0.11037 0.44348 0.0
C114 C 0.72942 0.09328 0.47494 0.0
C115 C 0.7365 0.1296 0.47456 0.0
C116 C 0.73857 0.1286 0.45332 0.0
C117 C 0.73218 0.1117 0.48565 0.0
H118 H 0.73068 0.07864 0.44551 0.0
H119 H 0.7425 0.14221 0.44479 0.0
C120 C 0.77274 0.09457 0.35369 0.0
N121 N 0.80561 0.08327 0.32962 0.0
C122 C 0.77192 0.09713 0.33248 0.0
C123 C 0.79027 0.08621 0.36265 0.0
C124 C 0.7887 0.09134 0.32058 0.0
C125 C 0.80672 0.08061 0.35023 0.0
C126 C 0.7141 0.07179 0.39315 0.0
C127 C 0.71421 0.06693 0.37232 0.0
C128 C 0.70129 0.06102 0.40644 0.0
C129 C 0.70145 0.05137 0.36513 0.0
C130 C 0.68876 0.04554 0.39866 0.0
N131 N 0.6891 0.04108 0.37834 0.0
C132 C 0.76595 0.04405 0.40485 0.0
C133 C 0.75921 0.04447 0.3692 0.0
C134 C 0.76837 0.02285 0.40451 0.0
N135 N 0.76119 0.05432 0.38742 0.0
C136 C 0.76129 0.02323 0.3682 0.0
C137 C 0.7656 0.01214 0.38609 0.0
H138 H 0.7671 0.05229 0.41916 0.0
H139 H 0.75529 0.053 0.35558 0.0
C140 C 0.71278 0.12206 0.34381 0.0
N141 N 0.70885 0.11507 0.36299 0.0
C142 C 0.69701 0.12348 0.32945 0.0
C143 C 0.67338 0.11122 0.35514 0.0
C144 C 0.68953 0.11028 0.36905 0.0
C145 C 0.67715 0.1174 0.33493 0.0
H146 H 0.72832 0.12567 0.33942 0.0
H147 H 0.68679 0.10475 0.38438 0.0
O148 O 0.77125 0.09715 0.41091 0.0
O149 O 0.74144 0.13235 0.39759 0.0
O150 O 0.75635 0.1002 0.36545 0.0
O151 O 0.72654 0.08688 0.40064 0.0
H152 H 0.77378 0.13602 0.42271 0.0
H153 H 0.79676 0.07518 0.4332 0.0
H154 H 0.79641 0.14875 0.45033 0.0
H155 H 0.81901 0.08901 0.46072 0.0
H156 H 0.67741 0.14083 0.42366 0.0
H157 H 0.73935 0.1725 0.39426 0.0
H158 H 0.7066 0.11879 0.41382 0.0
H159 H 0.70952 0.19365 0.40454 0.0
H160 H 0.83956 0.13785 0.39126 0.0
H161 H 0.79728 0.18385 0.36963 0.0
H162 H 0.7264 0.07909 0.48295 0.0
H163 H 0.73866 0.1441 0.48227 0.0
H164 H 0.75844 0.10353 0.32529 0.0
H165 H 0.79118 0.08398 0.379 0.0
H166 H 0.78827 0.09325 0.30414 0.0
H167 H 0.82038 0.07413 0.35697 0.0
H168 H 0.72401 0.07508 0.36178 0.0
H169 H 0.70103 0.06459 0.42261 0.0
H170 H 0.70138 0.04746 0.34905 0.0
H171 H 0.67878 0.03708 0.40879 0.0
H172 H 0.77138 0.01484 0.4187 0.0
H173 H 0.75912 0.01552 0.35369 0.0
H174 H 0.70051 0.12816 0.31394 0.0
H175 H 0.65823 0.10654 0.35995 0.0
Li176 Li 0.89033 0.74302 0.41528 0.0
Li177 Li 0.88043 0.76639 0.38865 0.0
Li178 Li 0.88866 0.73141 0.38043 0.0
Li179 Li 0.91528 0.75478 0.39033 0.0
C180 C 0.85369 0.72506 0.40322 0.0
N181 N 0.82963 0.69218 0.41452 0.0
C182 C 0.83249 0.72588 0.40066 0.0
C183 C 0.86266 0.70753 0.41158 0.0
C184 C 0.82058 0.7091 0.40645 0.0
C185 C 0.85023 0.69107 0.41718 0.0
C186 C 0.89315 0.78369 0.426 0.0
C187 C 0.89867 0.80903 0.45225 0.0
N188 N 0.87835 0.80869 0.45672 0.0
C189 C 0.87232 0.78359 0.43086 0.0
C190 C 0.90645 0.7965 0.43677 0.0
C191 C 0.86514 0.79634 0.44643 0.0
C192 C 0.90485 0.73184 0.45374 0.0
N193 N 0.88743 0.7366 0.44348 0.0
C194 C 0.8682 0.7365 0.47456 0.0
C195 C 0.8692 0.73858 0.45332 0.0
C196 C 0.88609 0.73219 0.48565 0.0
C197 C 0.90452 0.72942 0.47494 0.0
H198 H 0.91916 0.73069 0.44551 0.0
H199 H 0.85559 0.74251 0.44479 0.0
C200 C 0.84381 0.78502 0.37574 0.0
N201 N 0.863 0.78895 0.38272 0.0
C202 C 0.82945 0.80079 0.37431 0.0
C203 C 0.85515 0.82441 0.38658 0.0
C204 C 0.86905 0.80826 0.38751 0.0
C205 C 0.83494 0.82065 0.3804 0.0
H206 H 0.83943 0.76948 0.37212 0.0
H207 H 0.88439 0.811 0.39305 0.0
C208 C 0.92601 0.7141 0.39315 0.0
N209 N 0.95672 0.68911 0.37834 0.0
C210 C 0.93087 0.71421 0.37231 0.0
C211 C 0.93678 0.70129 0.40644 0.0
C212 C 0.94643 0.70145 0.36513 0.0
C213 C 0.95226 0.68877 0.39866 0.0
C214 C 0.90323 0.77274 0.35369 0.0
C215 C 0.90067 0.77192 0.33248 0.0
C216 C 0.91159 0.79027 0.36265 0.0
C217 C 0.90646 0.7887 0.32058 0.0
C218 C 0.91719 0.80673 0.35023 0.0
N219 N 0.91453 0.80562 0.32962 0.0
C220 C 0.87574 0.71279 0.34381 0.0
C221 C 0.88752 0.68953 0.36905 0.0
C222 C 0.87432 0.69701 0.32945 0.0
N223 N 0.88273 0.70885 0.36299 0.0
C224 C 0.88658 0.67339 0.35514 0.0
C225 C 0.8804 0.67715 0.33493 0.0
H226 H 0.87212 0.72832 0.33942 0.0
H227 H 0.89305 0.6868 0.38438 0.0
C228 C 0.95375 0.76595 0.40485 0.0
N229 N 0.94348 0.76119 0.38742 0.0
C230 C 0.97495 0.76837 0.40451 0.0
C231 C 0.97457 0.76129 0.3682 0.0
C232 C 0.95333 0.75922 0.3692 0.0
C233 C 0.98566 0.76561 0.38609 0.0
H234 H 0.94551 0.76711 0.41915 0.0
H235 H 0.94479 0.75529 0.35558 0.0
O236 O 0.86545 0.74144 0.3976 0.0
O237 O 0.90065 0.77125 0.41091 0.0
O238 O 0.91092 0.72654 0.40064 0.0
O239 O 0.8976 0.75636 0.36545 0.0
H240 H 0.8253 0.73936 0.39427 0.0
H241 H 0.87901 0.70661 0.41382 0.0
H242 H 0.80415 0.70952 0.40454 0.0
H243 H 0.85697 0.67741 0.42366 0.0
H244 H 0.90879 0.81901 0.46072 0.0
H245 H 0.86178 0.77378 0.42271 0.0
H246 H 0.92262 0.79676 0.4332 0.0
H247 H 0.84905 0.79641 0.45033 0.0
H248 H 0.8537 0.73867 0.48227 0.0
H249 H 0.91871 0.72641 0.48295 0.0
H250 H 0.81395 0.79728 0.36963 0.0
H251 H 0.85995 0.83957 0.39126 0.0
H252 H 0.92272 0.72401 0.36178 0.0
H253 H 0.9332 0.70103 0.42261 0.0
H254 H 0.95034 0.70138 0.34905 0.0
H255 H 0.96072 0.67878 0.40879 0.0
H256 H 0.89427 0.75844 0.32529 0.0
H257 H 0.91382 0.79119 0.379 0.0
H258 H 0.90455 0.78828 0.30414 0.0
H259 H 0.92367 0.82038 0.35697 0.0
H260 H 0.86963 0.70052 0.31394 0.0
H261 H 0.89126 0.65823 0.35994 0.0
H262 H 0.98296 0.77139 0.4187 0.0
H263 H 0.98228 0.75913 0.35369 0.0
Li264 Li 0.25477 0.89034 0.41528 0.0
Li265 Li 0.23141 0.88044 0.38865 0.0
Li266 Li 0.26638 0.88866 0.38043 0.0
Li267 Li 0.24302 0.91529 0.39033 0.0
C268 C 0.27274 0.8537 0.40322 0.0
N269 N 0.30561 0.82963 0.41452 0.0
C270 C 0.27192 0.83249 0.40066 0.0
C271 C 0.29027 0.86266 0.41158 0.0
C272 C 0.2887 0.82059 0.40645 0.0
C273 C 0.30673 0.85024 0.41718 0.0
C274 C 0.2141 0.89316 0.426 0.0
C275 C 0.18877 0.89867 0.45225 0.0
N276 N 0.1891 0.87835 0.45671 0.0
C277 C 0.21421 0.87233 0.43086 0.0
C278 C 0.20129 0.90645 0.43677 0.0
C279 C 0.20145 0.86514 0.44642 0.0
C280 C 0.26595 0.90486 0.45374 0.0
N281 N 0.26119 0.88743 0.44348 0.0
C282 C 0.26129 0.86821 0.47456 0.0
C283 C 0.25922 0.86921 0.45332 0.0
C284 C 0.2656 0.8861 0.48565 0.0
C285 C 0.26837 0.90452 0.47494 0.0
H286 H 0.2671 0.91917 0.4455 0.0
H287 H 0.25529 0.85559 0.44479 0.0
C288 C 0.21278 0.84382 0.37574 0.0
N289 N 0.20885 0.863 0.38272 0.0
C290 C 0.19701 0.82946 0.37431 0.0
C291 C 0.17338 0.85516 0.38657 0.0
C292 C 0.18953 0.86906 0.38751 0.0
C293 C 0.17715 0.83494 0.3804 0.0
H294 H 0.22832 0.83943 0.37212 0.0
H295 H 0.18679 0.8844 0.39304 0.0
C296 C 0.28369 0.92601 0.39315 0.0
N297 N 0.30869 0.95673 0.37834 0.0
C298 C 0.28359 0.93088 0.37231 0.0
C299 C 0.2965 0.93678 0.40644 0.0
C300 C 0.29634 0.94644 0.36513 0.0
C301 C 0.30902 0.95226 0.39867 0.0
C302 C 0.22506 0.90323 0.35369 0.0
C303 C 0.22587 0.90067 0.33248 0.0
C304 C 0.20753 0.91159 0.36265 0.0
C305 C 0.20909 0.90646 0.32057 0.0
C306 C 0.19107 0.91719 0.35022 0.0
N307 N 0.19218 0.91453 0.32962 0.0
C308 C 0.28501 0.87575 0.34381 0.0
C309 C 0.30826 0.88752 0.36905 0.0
C310 C 0.30079 0.87432 0.32945 0.0
N311 N 0.28894 0.88273 0.36299 0.0
C312 C 0.32441 0.88659 0.35515 0.0
C313 C 0.32064 0.88041 0.33493 0.0
H314 H 0.26947 0.87213 0.33942 0.0
H315 H 0.311 0.89306 0.38439 0.0
C316 C 0.23184 0.95375 0.40485 0.0
N317 N 0.2366 0.94349 0.38742 0.0
C318 C 0.22942 0.97495 0.40451 0.0
C319 C 0.2365 0.97457 0.36819 0.0
C320 C 0.23858 0.95333 0.3692 0.0
C321 C 0.23219 0.98566 0.38609 0.0
H322 H 0.23068 0.94552 0.41915 0.0
H323 H 0.24251 0.9448 0.35558 0.0
O324 O 0.25635 0.86546 0.39759 0.0
O325 O 0.22654 0.90065 0.41091 0.0
O326 O 0.27125 0.91092 0.40064 0.0
O327 O 0.24144 0.89761 0.36545 0.0
H328 H 0.25844 0.8253 0.39427 0.0
H329 H 0.29119 0.87901 0.41382 0.0
H330 H 0.28827 0.80415 0.40454 0.0
H331 H 0.32038 0.85698 0.42366 0.0
H332 H 0.17878 0.9088 0.46071 0.0
H333 H 0.22401 0.86179 0.42271 0.0
H334 H 0.20103 0.92262 0.4332 0.0
H335 H 0.20138 0.84906 0.45033 0.0
H336 H 0.25913 0.8537 0.48227 0.0
H337 H 0.27138 0.91871 0.48295 0.0
H338 H 0.20051 0.81395 0.36963 0.0
H339 H 0.15823 0.85996 0.39126 0.0
H340 H 0.27378 0.92272 0.36178 0.0
H341 H 0.29676 0.93321 0.42261 0.0
H342 H 0.29641 0.95034 0.34905 0.0
H343 H 0.31901 0.96073 0.40879 0.0
H344 H 0.23935 0.89427 0.32529 0.0
H345 H 0.20661 0.91383 0.379 0.0
H346 H 0.20952 0.90455 0.30414 0.0
H347 H 0.17741 0.92367 0.35697 0.0
H348 H 0.29728 0.86964 0.31395 0.0
H349 H 0.33956 0.89127 0.35995 0.0
H350 H 0.2264 0.98297 0.4187 0.0
H351 H 0.23867 0.98228 0.35369 0.0
Li352 Li 0.08251 0.75478 0.60745 0.0
Li353 Li 0.10914 0.73141 0.61735 0.0
Li354 Li 0.11736 0.76639 0.60913 0.0
Li355 Li 0.10746 0.74302 0.5825 0.0
C356 C 0.09456 0.77274 0.64409 0.0
N357 N 0.08327 0.80562 0.66815 0.0
C358 C 0.09713 0.77192 0.6653 0.0
C359 C 0.0862 0.79027 0.63513 0.0
C360 C 0.09133 0.7887 0.6772 0.0
C361 C 0.08061 0.80673 0.64755 0.0
C362 C 0.07178 0.71411 0.60463 0.0
C363 C 0.04554 0.68877 0.59911 0.0
N364 N 0.04107 0.68911 0.61943 0.0
C365 C 0.06692 0.71421 0.62546 0.0
C366 C 0.06102 0.7013 0.59134 0.0
C367 C 0.05136 0.70146 0.63265 0.0
C368 C 0.04405 0.76595 0.59293 0.0
N369 N 0.05431 0.7612 0.61035 0.0
C370 C 0.02323 0.7613 0.62958 0.0
C371 C 0.04447 0.75922 0.62858 0.0
C372 C 0.01213 0.76561 0.61169 0.0
C373 C 0.02284 0.76838 0.59327 0.0
H374 H 0.05228 0.76711 0.57862 0.0
H375 H 0.053 0.75529 0.6422 0.0
C376 C 0.12205 0.71279 0.65397 0.0
N377 N 0.11506 0.70885 0.63479 0.0
C378 C 0.12347 0.69701 0.66833 0.0
C379 C 0.11121 0.67339 0.64263 0.0
C380 C 0.11027 0.68953 0.62873 0.0
C381 C 0.11739 0.67715 0.66285 0.0
H382 H 0.12567 0.72832 0.65836 0.0
H383 H 0.10474 0.6868 0.61339 0.0
C384 C 0.10464 0.78369 0.57177 0.0
N385 N 0.11944 0.80869 0.54106 0.0
C386 C 0.12547 0.78359 0.56691 0.0
C387 C 0.09134 0.7965 0.56101 0.0
C388 C 0.13266 0.79634 0.55135 0.0
C389 C 0.09912 0.80903 0.54553 0.0
C390 C 0.1441 0.72506 0.59455 0.0
C391 C 0.16531 0.72588 0.59712 0.0
C392 C 0.13514 0.70753 0.5862 0.0
C393 C 0.17721 0.7091 0.59133 0.0
C394 C 0.14756 0.69107 0.5806 0.0
N395 N 0.16817 0.69218 0.58326 0.0
C396 C 0.15398 0.78502 0.62204 0.0
C397 C 0.12874 0.80827 0.61026 0.0
C398 C 0.16834 0.80079 0.62346 0.0
N399 N 0.1348 0.78895 0.61505 0.0
C400 C 0.14264 0.82441 0.6112 0.0
C401 C 0.16285 0.82065 0.61738 0.0
H402 H 0.15837 0.76948 0.62566 0.0
H403 H 0.1134 0.811 0.60473 0.0
C404 C 0.09294 0.73184 0.54404 0.0
N405 N 0.11036 0.7366 0.5543 0.0
C406 C 0.09328 0.72942 0.52284 0.0
C407 C 0.12959 0.7365 0.52322 0.0
C408 C 0.12859 0.73858 0.54446 0.0
C409 C 0.1117 0.73219 0.51213 0.0
H410 H 0.07863 0.73069 0.55227 0.0
H411 H 0.14221 0.74251 0.55299 0.0
O412 O 0.10019 0.75636 0.63233 0.0
O413 O 0.08687 0.72654 0.59714 0.0
O414 O 0.09714 0.77126 0.58686 0.0
O415 O 0.13234 0.74144 0.60018 0.0
H416 H 0.10352 0.75844 0.67248 0.0
H417 H 0.08397 0.79119 0.61877 0.0
H418 H 0.09324 0.78828 0.69364 0.0
H419 H 0.07413 0.82039 0.64081 0.0
H420 H 0.03707 0.67878 0.58899 0.0
H421 H 0.07507 0.72402 0.636 0.0
H422 H 0.06459 0.70104 0.57517 0.0
H423 H 0.04745 0.70138 0.64873 0.0
H424 H 0.01551 0.75913 0.64409 0.0
H425 H 0.01483 0.77139 0.57908 0.0
H426 H 0.12816 0.70052 0.68383 0.0
H427 H 0.10653 0.65823 0.63783 0.0
H428 H 0.13601 0.77378 0.57506 0.0
H429 H 0.07518 0.79676 0.56458 0.0
H430 H 0.14874 0.79641 0.54745 0.0
H431 H 0.089 0.81902 0.53706 0.0
H432 H 0.17249 0.73936 0.60351 0.0
H433 H 0.11878 0.70661 0.58396 0.0
H434 H 0.19365 0.70952 0.59324 0.0
H435 H 0.14082 0.67741 0.57412 0.0
H436 H 0.18384 0.79728 0.62815 0.0
H437 H 0.13784 0.83957 0.60652 0.0
H438 H 0.07909 0.72641 0.51482 0.0
H439 H 0.1441 0.73867 0.51551 0.0
Li440 Li 0.24302 0.08251 0.60745 0.0
Li441 Li 0.26638 0.10914 0.61735 0.0
Li442 Li 0.23141 0.11737 0.60913 0.0
Li443 Li 0.25477 0.10746 0.5825 0.0
C444 C 0.22506 0.09457 0.64409 0.0
N445 N 0.19218 0.08327 0.66816 0.0
C446 C 0.22587 0.09713 0.6653 0.0
C447 C 0.20753 0.08621 0.63513 0.0
C448 C 0.20909 0.09134 0.6772 0.0
C449 C 0.19107 0.08061 0.64755 0.0
C450 C 0.28369 0.07179 0.60463 0.0
C451 C 0.30902 0.04554 0.59911 0.0
N452 N 0.30869 0.04107 0.61943 0.0
C453 C 0.28359 0.06693 0.62546 0.0
C454 C 0.2965 0.06102 0.59134 0.0
C455 C 0.29634 0.05136 0.63265 0.0
C456 C 0.23184 0.04405 0.59293 0.0
N457 N 0.2366 0.05432 0.61036 0.0
C458 C 0.2365 0.02323 0.62958 0.0
C459 C 0.23858 0.04447 0.62858 0.0
C460 C 0.23219 0.01214 0.61169 0.0
C461 C 0.22942 0.02285 0.59327 0.0
H462 H 0.23069 0.05229 0.57863 0.0
H463 H 0.24251 0.053 0.6422 0.0
C464 C 0.28501 0.12206 0.65397 0.0
N465 N 0.28894 0.11507 0.63479 0.0
C466 C 0.30079 0.12348 0.66833 0.0
C467 C 0.32441 0.11122 0.64263 0.0
C468 C 0.30826 0.11028 0.62873 0.0
C469 C 0.32064 0.1174 0.66284 0.0
H470 H 0.26947 0.12567 0.65836 0.0
H471 H 0.311 0.10475 0.61339 0.0
C472 C 0.2141 0.10465 0.57178 0.0
N473 N 0.18911 0.11945 0.54106 0.0
C474 C 0.21421 0.12548 0.56691 0.0
C475 C 0.20129 0.09135 0.56101 0.0
C476 C 0.20145 0.13266 0.55135 0.0
C477 C 0.18877 0.09913 0.54553 0.0
C478 C 0.27274 0.14411 0.59455 0.0
C479 C 0.27192 0.16531 0.59712 0.0
C480 C 0.29027 0.13514 0.58619 0.0
C481 C 0.2887 0.17722 0.59132 0.0
C482 C 0.30673 0.14757 0.5806 0.0
N483 N 0.30561 0.16817 0.58326 0.0
C484 C 0.21278 0.15399 0.62204 0.0
C485 C 0.18953 0.12874 0.61027 0.0
C486 C 0.19701 0.16835 0.62346 0.0
N487 N 0.20885 0.1348 0.61506 0.0
C488 C 0.17338 0.14265 0.6112 0.0
C489 C 0.17715 0.16286 0.61738 0.0
H490 H 0.22832 0.15838 0.62566 0.0
H491 H 0.18679 0.11341 0.60473 0.0
C492 C 0.26595 0.09294 0.54404 0.0
N493 N 0.26119 0.11037 0.5543 0.0
C494 C 0.26837 0.09328 0.52284 0.0
C495 C 0.26129 0.1296 0.52322 0.0
C496 C 0.25922 0.1286 0.54446 0.0
C497 C 0.26561 0.1117 0.51213 0.0
H498 H 0.2671 0.07864 0.55227 0.0
H499 H 0.25529 0.14221 0.55299 0.0
O500 O 0.24144 0.1002 0.63233 0.0
O501 O 0.27125 0.08688 0.59714 0.0
O502 O 0.22654 0.09715 0.58687 0.0
O503 O 0.25635 0.13235 0.60018 0.0
H504 H 0.23935 0.10353 0.67249 0.0
H505 H 0.20661 0.08398 0.61878 0.0
H506 H 0.20952 0.09325 0.69364 0.0
H507 H 0.17741 0.07413 0.64081 0.0
H508 H 0.31901 0.03707 0.58899 0.0
H509 H 0.27378 0.07508 0.636 0.0
H510 H 0.29676 0.06459 0.57517 0.0
H511 H 0.29641 0.04746 0.64873 0.0
H512 H 0.23867 0.01552 0.64409 0.0
H513 H 0.2264 0.01484 0.57908 0.0
H514 H 0.29728 0.12817 0.68383 0.0
H515 H 0.33957 0.10653 0.63783 0.0
H516 H 0.22401 0.13602 0.57506 0.0
H517 H 0.20103 0.07518 0.56458 0.0
H518 H 0.20138 0.14875 0.54745 0.0
H519 H 0.17878 0.08901 0.53706 0.0
H520 H 0.25844 0.1725 0.60351 0.0
H521 H 0.29119 0.11879 0.58396 0.0
H522 H 0.28827 0.19365 0.59323 0.0
H523 H 0.32038 0.14082 0.57412 0.0
H524 H 0.20052 0.18385 0.62815 0.0
H525 H 0.15823 0.13785 0.60652 0.0
H526 H 0.27138 0.07909 0.51483 0.0
H527 H 0.25913 0.1441 0.51551 0.0
Li528 Li 0.88866 0.26639 0.61735 0.0
Li529 Li 0.91528 0.24303 0.60745 0.0
Li530 Li 0.89033 0.25478 0.5825 0.0
Li531 Li 0.88043 0.23142 0.60913 0.0
C532 C 0.92601 0.2837 0.60463 0.0
N533 N 0.95672 0.30869 0.61944 0.0
C534 C 0.93087 0.28359 0.62546 0.0
C535 C 0.93678 0.29651 0.59134 0.0
C536 C 0.94643 0.29635 0.63265 0.0
C537 C 0.95226 0.30903 0.59911 0.0
C538 C 0.90323 0.22506 0.64409 0.0
C539 C 0.91719 0.19107 0.64755 0.0
N540 N 0.91452 0.19218 0.66815 0.0
C541 C 0.90066 0.22588 0.6653 0.0
C542 C 0.91159 0.20753 0.63513 0.0
C543 C 0.90646 0.2091 0.6772 0.0
C544 C 0.87574 0.28502 0.65397 0.0
N545 N 0.88273 0.28895 0.63479 0.0
C546 C 0.88658 0.32442 0.64264 0.0
C547 C 0.88752 0.30827 0.62873 0.0
C548 C 0.8804 0.32065 0.66285 0.0
C549 C 0.87432 0.30079 0.66833 0.0
H550 H 0.87212 0.26948 0.65836 0.0
H551 H 0.89305 0.31101 0.6134 0.0
C552 C 0.95375 0.23185 0.59293 0.0
N553 N 0.94348 0.23661 0.61035 0.0
C554 C 0.97495 0.22943 0.59327 0.0
C555 C 0.97457 0.23651 0.62958 0.0
C556 C 0.95332 0.23858 0.62858 0.0
C557 C 0.98566 0.2322 0.61169 0.0
H558 H 0.94551 0.23069 0.57862 0.0
H559 H 0.94479 0.24251 0.6422 0.0
C560 C 0.85369 0.27275 0.59455 0.0
N561 N 0.82963 0.30562 0.58326 0.0
C562 C 0.83248 0.27193 0.59712 0.0
C563 C 0.86266 0.29028 0.5862 0.0
C564 C 0.82058 0.28871 0.59132 0.0
C565 C 0.85023 0.30674 0.5806 0.0
C566 C 0.89315 0.21411 0.57177 0.0
C567 C 0.87232 0.21422 0.56691 0.0
C568 C 0.90645 0.2013 0.561 0.0
C569 C 0.86513 0.20146 0.55135 0.0
C570 C 0.89867 0.18878 0.54552 0.0
N571 N 0.87835 0.18911 0.54106 0.0
C572 C 0.90485 0.26596 0.54404 0.0
C573 C 0.8692 0.25922 0.54446 0.0
C574 C 0.90452 0.26838 0.52284 0.0
N575 N 0.88743 0.2612 0.5543 0.0
C576 C 0.8682 0.2613 0.52322 0.0
C577 C 0.88609 0.26561 0.51213 0.0
H578 H 0.91916 0.26712 0.55227 0.0
H579 H 0.85559 0.2553 0.55299 0.0
C580 C 0.84381 0.21279 0.62204 0.0
N581 N 0.863 0.20886 0.61505 0.0
C582 C 0.82945 0.19701 0.62346 0.0
C583 C 0.85515 0.17339 0.6112 0.0
C584 C 0.86905 0.18954 0.61026 0.0
C585 C 0.83494 0.17716 0.61738 0.0
H586 H 0.83942 0.22833 0.62566 0.0
H587 H 0.88439 0.1868 0.60473 0.0
O588 O 0.91092 0.27126 0.59714 0.0
O589 O 0.8976 0.24144 0.63233 0.0
O590 O 0.86545 0.25636 0.60018 0.0
O591 O 0.90065 0.22655 0.58686 0.0
H592 H 0.92272 0.27379 0.636 0.0
H593 H 0.9332 0.29677 0.57517 0.0
H594 H 0.95034 0.29642 0.64873 0.0
H595 H 0.96072 0.31902 0.58899 0.0
H596 H 0.92366 0.17742 0.64081 0.0
H597 H 0.89427 0.23936 0.67248 0.0
H598 H 0.91382 0.20661 0.61877 0.0
H599 H 0.90455 0.20952 0.69363 0.0
H600 H 0.89126 0.33957 0.63783 0.0
H601 H 0.86963 0.29728 0.68383 0.0
H602 H 0.98296 0.22641 0.57908 0.0
H603 H 0.98228 0.23867 0.64409 0.0
H604 H 0.8253 0.25845 0.60351 0.0
H605 H 0.87901 0.29119 0.58396 0.0
H606 H 0.80414 0.28828 0.59323 0.0
H607 H 0.85697 0.32039 0.57412 0.0
H608 H 0.86178 0.22402 0.57506 0.0
H609 H 0.92262 0.20104 0.56458 0.0
H610 H 0.84905 0.20139 0.54744 0.0
H611 H 0.90879 0.17879 0.53706 0.0
H612 H 0.9187 0.2714 0.51482 0.0
H613 H 0.85369 0.25913 0.51551 0.0
H614 H 0.81395 0.20052 0.62815 0.0
H615 H 0.85995 0.15823 0.60652 0.0
Li616 Li 0.75477 0.91529 0.60745 0.0
Li617 Li 0.73141 0.88866 0.61735 0.0
Li618 Li 0.76638 0.88044 0.60913 0.0
Li619 Li 0.74302 0.89034 0.5825 0.0
C620 C 0.77274 0.90323 0.64409 0.0
N621 N 0.80561 0.91453 0.66816 0.0
C622 C 0.77192 0.90067 0.6653 0.0
C623 C 0.79026 0.91159 0.63513 0.0
C624 C 0.7887 0.90646 0.6772 0.0
C625 C 0.80672 0.91719 0.64755 0.0
C626 C 0.7141 0.92601 0.60463 0.0
C627 C 0.68876 0.95226 0.59911 0.0
N628 N 0.6891 0.95673 0.61943 0.0
C629 C 0.7142 0.93087 0.62546 0.0
C630 C 0.70129 0.93678 0.59134 0.0
C631 C 0.70145 0.94644 0.63265 0.0
C632 C 0.76595 0.95375 0.59293 0.0
N633 N 0.76119 0.94349 0.61035 0.0
C634 C 0.76129 0.97457 0.62958 0.0
C635 C 0.75921 0.95333 0.62858 0.0
C636 C 0.7656 0.98566 0.61169 0.0
C637 C 0.76837 0.97495 0.59327 0.0
H638 H 0.7671 0.94552 0.57862 0.0
H639 H 0.75529 0.9448 0.6422 0.0
C640 C 0.71278 0.87574 0.65397 0.0
N641 N 0.70885 0.88273 0.63479 0.0
C642 C 0.69701 0.87432 0.66833 0.0
C643 C 0.67338 0.88658 0.64263 0.0
C644 C 0.68953 0.88752 0.62873 0.0
C645 C 0.67715 0.8804 0.66284 0.0
H646 H 0.72832 0.87213 0.65836 0.0
H647 H 0.68679 0.89305 0.61339 0.0
C648 C 0.78369 0.89316 0.57178 0.0
N649 N 0.80868 0.87835 0.54106 0.0
C650 C 0.78358 0.87232 0.56691 0.0
C651 C 0.7965 0.90645 0.56101 0.0
C652 C 0.79634 0.86514 0.55135 0.0
C653 C 0.80902 0.89868 0.54553 0.0
C654 C 0.72505 0.85369 0.59455 0.0
C655 C 0.72587 0.83249 0.59712 0.0
C656 C 0.70752 0.86266 0.5862 0.0
C657 C 0.70909 0.82058 0.59133 0.0
C658 C 0.69106 0.85023 0.5806 0.0
N659 N 0.69218 0.82963 0.58326 0.0
C660 C 0.78501 0.84382 0.62204 0.0
C661 C 0.80826 0.86906 0.61026 0.0
C662 C 0.80078 0.82946 0.62346 0.0
N663 N 0.78894 0.863 0.61506 0.0
C664 C 0.82441 0.85516 0.6112 0.0
C665 C 0.82064 0.83494 0.61738 0.0
H666 H 0.76947 0.83943 0.62566 0.0
H667 H 0.811 0.8844 0.60473 0.0
C668 C 0.73184 0.90486 0.54404 0.0
N669 N 0.7366 0.88743 0.5543 0.0
C670 C 0.72942 0.90452 0.52284 0.0
C671 C 0.7365 0.8682 0.52322 0.0
C672 C 0.73857 0.86921 0.54446 0.0
C673 C 0.73219 0.8861 0.51213 0.0
H674 H 0.73068 0.91916 0.55227 0.0
H675 H 0.7425 0.85559 0.55299 0.0
O676 O 0.75635 0.8976 0.63233 0.0
O677 O 0.72654 0.91092 0.59714 0.0
O678 O 0.77125 0.90065 0.58686 0.0
O679 O 0.74144 0.86546 0.60018 0.0
H680 H 0.75844 0.89428 0.67248 0.0
H681 H 0.79118 0.91383 0.61878 0.0
H682 H 0.78827 0.90455 0.69364 0.0
H683 H 0.82038 0.92367 0.64081 0.0
H684 H 0.67878 0.96072 0.58899 0.0
H685 H 0.72401 0.92272 0.636 0.0
H686 H 0.70103 0.93321 0.57517 0.0
H687 H 0.70138 0.95034 0.64873 0.0
H688 H 0.75912 0.98228 0.64409 0.0
H689 H 0.77138 0.98296 0.57908 0.0
H690 H 0.70051 0.86964 0.68383 0.0
H691 H 0.65823 0.89127 0.63783 0.0
H692 H 0.77378 0.86179 0.57506 0.0
H693 H 0.79676 0.92262 0.56458 0.0
H694 H 0.79641 0.84906 0.54745 0.0
H695 H 0.81901 0.9088 0.53706 0.0
H696 H 0.73935 0.8253 0.60351 0.0
H697 H 0.7066 0.87901 0.58396 0.0
H698 H 0.70952 0.80415 0.59324 0.0
H699 H 0.67741 0.85698 0.57412 0.0
H700 H 0.79728 0.81395 0.62815 0.0
H701 H 0.83956 0.85996 0.60652 0.0
H702 H 0.7264 0.91871 0.51482 0.0
H703 H 0.73867 0.8537 0.51551 0.0
Li704 Li 0.38866 0.11737 0.23141 0.0
Li705 Li 0.41528 0.10747 0.25477 0.0
Li706 Li 0.39033 0.08252 0.24302 0.0
Li707 Li 0.38043 0.10914 0.26638 0.0
C708 C 0.42601 0.10465 0.2141 0.0
N709 N 0.45672 0.11945 0.1891 0.0
C710 C 0.43087 0.12548 0.2142 0.0
C711 C 0.43678 0.09135 0.20129 0.0
C712 C 0.44643 0.13266 0.20145 0.0
C713 C 0.45226 0.09913 0.18877 0.0
C714 C 0.40323 0.14411 0.27273 0.0
C715 C 0.41719 0.14757 0.30672 0.0
N716 N 0.41452 0.16818 0.3056 0.0
C717 C 0.40066 0.16532 0.27191 0.0
C718 C 0.41159 0.13515 0.29026 0.0
C719 C 0.40646 0.17722 0.28869 0.0
C720 C 0.37574 0.15399 0.21277 0.0
N721 N 0.38273 0.1348 0.20884 0.0
C722 C 0.38658 0.14265 0.17338 0.0
C723 C 0.38752 0.12874 0.18953 0.0
C724 C 0.3804 0.16286 0.17714 0.0
C725 C 0.37432 0.16834 0.197 0.0
H726 H 0.37212 0.15837 0.22831 0.0
H727 H 0.39305 0.11341 0.18679 0.0
C728 C 0.45375 0.09295 0.26595 0.0
N729 N 0.44348 0.11037 0.26119 0.0
C730 C 0.47495 0.09329 0.26837 0.0
C731 C 0.47457 0.1296 0.26129 0.0
C732 C 0.45333 0.1286 0.25921 0.0
C733 C 0.48566 0.11171 0.2656 0.0
H734 H 0.44551 0.07864 0.2671 0.0
H735 H 0.44479 0.14221 0.25528 0.0
C736 C 0.35369 0.09457 0.22505 0.0
N737 N 0.32963 0.08327 0.19218 0.0
C738 C 0.33249 0.09713 0.22587 0.0
C739 C 0.36266 0.08621 0.20752 0.0
C740 C 0.32058 0.09134 0.20909 0.0
C741 C 0.35023 0.08061 0.19106 0.0
C742 C 0.39315 0.07179 0.28369 0.0
C743 C 0.37232 0.06693 0.28358 0.0
C744 C 0.40645 0.06103 0.2965 0.0
C745 C 0.36514 0.05137 0.29634 0.0
C746 C 0.39867 0.04555 0.30902 0.0
N747 N 0.37835 0.04108 0.30868 0.0
C748 C 0.40486 0.04405 0.23184 0.0
C749 C 0.3692 0.04447 0.23857 0.0
C750 C 0.40452 0.02285 0.22942 0.0
N751 N 0.38743 0.05432 0.2366 0.0
C752 C 0.3682 0.02323 0.2365 0.0
C753 C 0.3861 0.01214 0.23219 0.0
H754 H 0.41916 0.05229 0.23069 0.0
H755 H 0.35559 0.053 0.2425 0.0
C756 C 0.34381 0.12206 0.28501 0.0
N757 N 0.363 0.11507 0.28894 0.0
C758 C 0.32945 0.12348 0.30078 0.0
C759 C 0.35515 0.11122 0.3244 0.0
C760 C 0.36906 0.11028 0.30826 0.0
C761 C 0.33494 0.1174 0.32064 0.0
H762 H 0.33942 0.12568 0.26947 0.0
H763 H 0.38439 0.10475 0.31099 0.0
O764 O 0.41092 0.09715 0.22654 0.0
O765 O 0.3976 0.13235 0.25635 0.0
O766 O 0.36545 0.1002 0.24143 0.0
O767 O 0.40065 0.08688 0.27125 0.0
H768 H 0.42272 0.13602 0.224 0.0
H769 H 0.43321 0.07518 0.20103 0.0
H770 H 0.45034 0.14875 0.20137 0.0
H771 H 0.46072 0.089 0.17878 0.0
H772 H 0.42367 0.14083 0.32037 0.0
H773 H 0.39427 0.1725 0.25843 0.0
H774 H 0.41382 0.1188 0.29118 0.0
H775 H 0.40455 0.19366 0.28826 0.0
H776 H 0.39126 0.13784 0.15822 0.0
H777 H 0.36963 0.18385 0.20051 0.0
H778 H 0.48296 0.0791 0.27139 0.0
H779 H 0.48228 0.14411 0.25912 0.0
H780 H 0.3253 0.10353 0.23935 0.0
H781 H 0.37901 0.08398 0.2066 0.0
H782 H 0.30415 0.09325 0.20952 0.0
H783 H 0.35698 0.07413 0.17741 0.0
H784 H 0.36178 0.07508 0.27378 0.0
H785 H 0.42262 0.0646 0.29676 0.0
H786 H 0.34905 0.04746 0.29641 0.0
H787 H 0.40879 0.03708 0.31901 0.0
H788 H 0.41871 0.01484 0.22641 0.0
H789 H 0.3537 0.01552 0.23866 0.0
H790 H 0.31395 0.12817 0.29727 0.0
H791 H 0.35995 0.10654 0.33956 0.0
Li792 Li 0.89033 0.41529 0.25476 0.0
Li793 Li 0.88043 0.38866 0.2314 0.0
Li794 Li 0.88866 0.38044 0.26637 0.0
Li795 Li 0.91528 0.39034 0.24301 0.0
C796 C 0.85369 0.40323 0.27273 0.0
N797 N 0.82963 0.41453 0.3056 0.0
C798 C 0.83249 0.40067 0.27191 0.0
C799 C 0.86266 0.41159 0.29026 0.0
C800 C 0.82058 0.40646 0.28869 0.0
C801 C 0.85023 0.41719 0.30672 0.0
C802 C 0.89315 0.42601 0.21409 0.0
C803 C 0.89867 0.45226 0.18876 0.0
N804 N 0.87835 0.45672 0.1891 0.0
C805 C 0.87232 0.43087 0.2142 0.0
C806 C 0.90645 0.43678 0.20128 0.0
C807 C 0.86514 0.44644 0.20144 0.0
C808 C 0.90485 0.45375 0.26594 0.0
N809 N 0.88743 0.44349 0.26118 0.0
C810 C 0.8682 0.47457 0.26128 0.0
C811 C 0.8692 0.45333 0.25921 0.0
C812 C 0.88609 0.48566 0.26559 0.0
C813 C 0.90452 0.47495 0.26836 0.0
H814 H 0.91916 0.44552 0.2671 0.0
H815 H 0.85559 0.4448 0.25528 0.0
C816 C 0.84381 0.37574 0.21277 0.0
N817 N 0.863 0.38273 0.20884 0.0
C818 C 0.82945 0.37432 0.197 0.0
C819 C 0.85515 0.38658 0.17338 0.0
C820 C 0.86906 0.38752 0.18952 0.0
C821 C 0.83494 0.3804 0.17714 0.0
H822 H 0.83943 0.37213 0.22831 0.0
H823 H 0.88439 0.39305 0.18679 0.0
C824 C 0.92601 0.39316 0.28368 0.0
N825 N 0.95672 0.37835 0.30868 0.0
C826 C 0.93087 0.37232 0.28358 0.0
C827 C 0.93678 0.40645 0.29649 0.0
C828 C 0.94643 0.36514 0.29633 0.0
C829 C 0.95226 0.39868 0.30902 0.0
C830 C 0.90323 0.35369 0.22505 0.0
C831 C 0.90067 0.33249 0.22587 0.0
C832 C 0.91159 0.36266 0.20752 0.0
C833 C 0.90646 0.32058 0.20909 0.0
C834 C 0.91719 0.35023 0.19106 0.0
N835 N 0.91453 0.32963 0.19217 0.0
C836 C 0.87574 0.34382 0.285 0.0
C837 C 0.88752 0.36906 0.30825 0.0
C838 C 0.87432 0.32946 0.30078 0.0
N839 N 0.88273 0.363 0.28893 0.0
C840 C 0.88658 0.35516 0.3244 0.0
C841 C 0.8804 0.33494 0.32064 0.0
H842 H 0.87212 0.33943 0.26947 0.0
H843 H 0.89305 0.3844 0.31099 0.0
C844 C 0.95375 0.40486 0.23184 0.0
N845 N 0.94348 0.38743 0.23659 0.0
C846 C 0.97495 0.40452 0.22941 0.0
C847 C 0.97457 0.3682 0.23649 0.0
C848 C 0.95333 0.36921 0.23857 0.0
C849 C 0.98566 0.3861 0.23218 0.0
H850 H 0.94551 0.41916 0.23068 0.0
H851 H 0.94479 0.35559 0.2425 0.0
O852 O 0.86545 0.3976 0.25635 0.0
O853 O 0.90065 0.41092 0.22653 0.0
O854 O 0.91092 0.40065 0.27124 0.0
O855 O 0.8976 0.36546 0.24143 0.0
H856 H 0.8253 0.39427 0.25843 0.0
H857 H 0.87901 0.41383 0.29118 0.0
H858 H 0.80415 0.40455 0.28826 0.0
H859 H 0.85697 0.42367 0.32037 0.0
H860 H 0.90879 0.46072 0.17877 0.0
H861 H 0.86178 0.42272 0.224 0.0
H862 H 0.92262 0.43321 0.20102 0.0
H863 H 0.84905 0.45034 0.20137 0.0
H864 H 0.8537 0.48228 0.25911 0.0
H865 H 0.91871 0.48296 0.27138 0.0
H866 H 0.81395 0.36963 0.20051 0.0
H867 H 0.85995 0.39127 0.15822 0.0
H868 H 0.92272 0.36179 0.27377 0.0
H869 H 0.9332 0.42262 0.29675 0.0
H870 H 0.95034 0.34906 0.2964 0.0
H871 H 0.96072 0.4088 0.31901 0.0
H872 H 0.89427 0.3253 0.23935 0.0
H873 H 0.91382 0.37901 0.2066 0.0
H874 H 0.90455 0.30415 0.20952 0.0
H875 H 0.92367 0.35698 0.17741 0.0
H876 H 0.86963 0.31395 0.29727 0.0
H877 H 0.89126 0.35996 0.33956 0.0
H878 H 0.98296 0.41871 0.2264 0.0
H879 H 0.98228 0.3537 0.23866 0.0
Li880 Li 0.60746 0.91529 0.24302 0.0
Li881 Li 0.61736 0.88866 0.26638 0.0
Li882 Li 0.60913 0.88044 0.23141 0.0
Li883 Li 0.58251 0.89034 0.25477 0.0
C884 C 0.6441 0.90323 0.22505 0.0
N885 N 0.66816 0.91453 0.19218 0.0
C886 C 0.6653 0.90067 0.22587 0.0
C887 C 0.63513 0.9116 0.20752 0.0
C888 C 0.67721 0.90647 0.20909 0.0
C889 C 0.64756 0.91719 0.19106 0.0
C890 C 0.60464 0.92601 0.28369 0.0
C891 C 0.59912 0.95226 0.30903 0.0
N892 N 0.61944 0.95672 0.30869 0.0
C893 C 0.62547 0.93087 0.28358 0.0
C894 C 0.59134 0.93678 0.2965 0.0
C895 C 0.63266 0.94643 0.29634 0.0
C896 C 0.59294 0.95375 0.23184 0.0
N897 N 0.61036 0.94349 0.2366 0.0
C898 C 0.62959 0.97457 0.2365 0.0
C899 C 0.62859 0.95333 0.23858 0.0
C900 C 0.61169 0.98566 0.23219 0.0
C901 C 0.59327 0.97495 0.22942 0.0
H902 H 0.57863 0.94552 0.23069 0.0
H903 H 0.6422 0.9448 0.2425 0.0
C904 C 0.65398 0.87574 0.28501 0.0
N905 N 0.63479 0.88273 0.28894 0.0
C906 C 0.66834 0.87432 0.30078 0.0
C907 C 0.64264 0.88658 0.3244 0.0
C908 C 0.62874 0.88752 0.30826 0.0
C909 C 0.66285 0.8804 0.32064 0.0
H910 H 0.65837 0.87213 0.26947 0.0
H911 H 0.6134 0.89305 0.311 0.0
C912 C 0.57178 0.89316 0.2141 0.0
N913 N 0.54107 0.87835 0.1891 0.0
C914 C 0.56692 0.87232 0.2142 0.0
C915 C 0.56101 0.90645 0.20129 0.0
C916 C 0.55136 0.86514 0.20145 0.0
C917 C 0.54553 0.89868 0.18877 0.0
C918 C 0.59456 0.85369 0.27273 0.0
C919 C 0.59713 0.83249 0.27191 0.0
C920 C 0.5862 0.86266 0.29026 0.0
C921 C 0.59133 0.82058 0.28869 0.0
C922 C 0.58061 0.85023 0.30672 0.0
N923 N 0.58327 0.82962 0.30561 0.0
C924 C 0.62205 0.84382 0.21278 0.0
C925 C 0.61027 0.86906 0.18953 0.0
C926 C 0.62347 0.82946 0.197 0.0
N927 N 0.61506 0.863 0.20885 0.0
C928 C 0.61121 0.85516 0.17338 0.0
C929 C 0.61739 0.83495 0.17714 0.0
H930 H 0.62567 0.83943 0.22831 0.0
H931 H 0.60474 0.8844 0.18679 0.0
C932 C 0.54404 0.90485 0.26595 0.0
N933 N 0.55431 0.88743 0.26119 0.0
C934 C 0.52284 0.90452 0.26837 0.0
C935 C 0.52322 0.8682 0.26129 0.0
C936 C 0.54447 0.8692 0.25921 0.0
C937 C 0.51213 0.88609 0.2656 0.0
H938 H 0.55228 0.91916 0.26711 0.0
H939 H 0.553 0.85559 0.25528 0.0
O940 O 0.63234 0.8976 0.24144 0.0
O941 O 0.59714 0.91092 0.27125 0.0
O942 O 0.58687 0.90065 0.22654 0.0
O943 O 0.60019 0.86546 0.25635 0.0
H944 H 0.67249 0.89428 0.23935 0.0
H945 H 0.61878 0.91383 0.20661 0.0
H946 H 0.69364 0.90456 0.20952 0.0
H947 H 0.64081 0.92367 0.17741 0.0
H948 H 0.589 0.96072 0.31902 0.0
H949 H 0.63601 0.92272 0.27378 0.0
H950 H 0.57517 0.9332 0.29676 0.0
H951 H 0.64874 0.95034 0.29641 0.0
H952 H 0.64409 0.98228 0.23866 0.0
H953 H 0.57908 0.98296 0.22641 0.0
H954 H 0.68384 0.86964 0.29727 0.0
H955 H 0.63784 0.89126 0.33956 0.0
H956 H 0.57507 0.86179 0.22401 0.0
H957 H 0.56458 0.92262 0.20103 0.0
H958 H 0.54745 0.84906 0.20138 0.0
H959 H 0.53707 0.9088 0.17878 0.0
H960 H 0.60352 0.8253 0.25843 0.0
H961 H 0.58397 0.87901 0.29118 0.0
H962 H 0.59325 0.80415 0.28826 0.0
H963 H 0.57413 0.85697 0.32038 0.0
H964 H 0.62816 0.81396 0.20051 0.0
H965 H 0.60653 0.85996 0.15822 0.0
H966 H 0.51483 0.91871 0.27139 0.0
H967 H 0.51551 0.8537 0.25912 0.0
Li968 Li 0.08251 0.60746 0.24301 0.0
Li969 Li 0.10914 0.61737 0.26637 0.0
Li970 Li 0.11736 0.60914 0.2314 0.0
Li971 Li 0.10746 0.58251 0.25477 0.0
C972 C 0.09456 0.64411 0.22505 0.0
N973 N 0.08327 0.66817 0.19217 0.0
C974 C 0.09713 0.66531 0.22587 0.0
C975 C 0.0862 0.63514 0.20752 0.0
C976 C 0.09133 0.67722 0.20909 0.0
C977 C 0.0806 0.64757 0.19106 0.0
C978 C 0.07179 0.60464 0.28368 0.0
C979 C 0.04554 0.59913 0.30902 0.0
N980 N 0.04107 0.61945 0.30868 0.0
C981 C 0.06692 0.62548 0.28358 0.0
C982 C 0.06102 0.59135 0.29649 0.0
C983 C 0.05136 0.63266 0.29633 0.0
C984 C 0.04405 0.59294 0.23184 0.0
N985 N 0.05431 0.61037 0.23659 0.0
C986 C 0.02323 0.6296 0.23649 0.0
C987 C 0.04447 0.62859 0.23857 0.0
C988 C 0.01213 0.6117 0.23218 0.0
C989 C 0.02284 0.59328 0.22941 0.0
H990 H 0.05228 0.57864 0.23068 0.0
H991 H 0.053 0.64221 0.2425 0.0
C992 C 0.12205 0.65399 0.285 0.0
N993 N 0.11507 0.6348 0.28893 0.0
C994 C 0.12347 0.66834 0.30078 0.0
C995 C 0.11121 0.64265 0.3244 0.0
C996 C 0.11028 0.62874 0.30825 0.0
C997 C 0.11739 0.66286 0.32064 0.0
H998 H 0.12567 0.65837 0.26947 0.0
H999 H 0.10474 0.6134 0.31099 0.0
C1000 C 0.10464 0.57179 0.21409 0.0
N1001 N 0.11944 0.54108 0.1891 0.0
C1002 C 0.12547 0.56693 0.2142 0.0
C1003 C 0.09134 0.56102 0.20129 0.0
C1004 C 0.13266 0.55137 0.20144 0.0
C1005 C 0.09912 0.54554 0.18876 0.0
C1006 C 0.1441 0.59457 0.27273 0.0
C1007 C 0.16531 0.59713 0.27191 0.0
C1008 C 0.13514 0.58621 0.29026 0.0
C1009 C 0.17721 0.59134 0.28869 0.0
C1010 C 0.14756 0.58061 0.30672 0.0
N1011 N 0.16817 0.58327 0.3056 0.0
C1012 C 0.15398 0.62206 0.21277 0.0
C1013 C 0.12874 0.61028 0.18952 0.0
C1014 C 0.16834 0.62348 0.197 0.0
N1015 N 0.13479 0.61507 0.20884 0.0
C1016 C 0.14264 0.61122 0.17338 0.0
C1017 C 0.16285 0.6174 0.17714 0.0
H1018 H 0.15837 0.62567 0.22831 0.0
H1019 H 0.1134 0.60475 0.18679 0.0
C1020 C 0.09294 0.54405 0.26594 0.0
N1021 N 0.11037 0.55431 0.26118 0.0
C1022 C 0.09328 0.52285 0.26836 0.0
C1023 C 0.12959 0.52323 0.26128 0.0
C1024 C 0.12859 0.54447 0.25921 0.0
C1025 C 0.1117 0.51214 0.2656 0.0
H1026 H 0.07863 0.55229 0.2671 0.0
H1027 H 0.14221 0.553 0.25528 0.0
O1028 O 0.10019 0.63234 0.24143 0.0
O1029 O 0.08687 0.59715 0.27124 0.0
O1030 O 0.09714 0.58688 0.22653 0.0
O1031 O 0.13234 0.6002 0.25635 0.0
H1032 H 0.10352 0.6725 0.23935 0.0
H1033 H 0.08397 0.61879 0.2066 0.0
H1034 H 0.09324 0.69365 0.20952 0.0
H1035 H 0.07412 0.64082 0.17741 0.0
H1036 H 0.03707 0.589 0.31901 0.0
H1037 H 0.07507 0.63601 0.27377 0.0
H1038 H 0.06459 0.57518 0.29675 0.0
H1039 H 0.04746 0.64874 0.29641 0.0
H1040 H 0.01551 0.6441 0.23866 0.0
H1041 H 0.01483 0.57909 0.2264 0.0
H1042 H 0.12816 0.68385 0.29727 0.0
H1043 H 0.10653 0.63784 0.33956 0.0
H1044 H 0.13601 0.57508 0.224 0.0
H1045 H 0.07517 0.56459 0.20103 0.0
H1046 H 0.14874 0.54746 0.20137 0.0
H1047 H 0.089 0.53708 0.17877 0.0
H1048 H 0.1725 0.60353 0.25843 0.0
H1049 H 0.11879 0.58397 0.29118 0.0
H1050 H 0.19365 0.59325 0.28826 0.0
H1051 H 0.14082 0.57413 0.32037 0.0
H1052 H 0.18384 0.62816 0.20051 0.0
H1053 H 0.13784 0.60654 0.15822 0.0
H1054 H 0.07909 0.51484 0.27138 0.0
H1055 H 0.1441 0.51552 0.25911 0.0
Li1056 Li 0.39033 0.91529 0.75476 0.0
Li1057 Li 0.38043 0.88866 0.7314 0.0
Li1058 Li 0.38866 0.88044 0.76637 0.0
Li1059 Li 0.41528 0.89034 0.74301 0.0
C1060 C 0.35369 0.90323 0.77273 0.0
N1061 N 0.32963 0.91453 0.8056 0.0
C1062 C 0.33249 0.90067 0.77191 0.0
C1063 C 0.36266 0.91159 0.79026 0.0
C1064 C 0.32058 0.90646 0.78869 0.0
C1065 C 0.35023 0.91719 0.80672 0.0
C1066 C 0.39315 0.92601 0.71409 0.0
C1067 C 0.39867 0.95226 0.68876 0.0
N1068 N 0.37835 0.95672 0.6891 0.0
C1069 C 0.37232 0.93087 0.7142 0.0
C1070 C 0.40645 0.93678 0.70128 0.0
C1071 C 0.36514 0.94644 0.70144 0.0
C1072 C 0.40485 0.95375 0.76594 0.0
N1073 N 0.38743 0.94349 0.76118 0.0
C1074 C 0.3682 0.97457 0.76128 0.0
C1075 C 0.3692 0.95333 0.75921 0.0
C1076 C 0.3861 0.98566 0.76559 0.0
C1077 C 0.40452 0.97495 0.76836 0.0
H1078 H 0.41916 0.94552 0.76709 0.0
H1079 H 0.35559 0.9448 0.75528 0.0
C1080 C 0.34381 0.87574 0.71277 0.0
N1081 N 0.363 0.88273 0.70884 0.0
C1082 C 0.32945 0.87432 0.697 0.0
C1083 C 0.35515 0.88658 0.67338 0.0
C1084 C 0.36906 0.88752 0.68952 0.0
C1085 C 0.33494 0.8804 0.67714 0.0
H1086 H 0.33942 0.87213 0.72831 0.0
H1087 H 0.38439 0.89305 0.68679 0.0
C1088 C 0.42601 0.89316 0.78368 0.0
N1089 N 0.45672 0.87835 0.80868 0.0
C1090 C 0.43087 0.87232 0.78358 0.0
C1091 C 0.43678 0.90645 0.79649 0.0
C1092 C 0.44643 0.86514 0.79633 0.0
C1093 C 0.45226 0.89868 0.80902 0.0
C1094 C 0.40323 0.85369 0.72505 0.0
C1095 C 0.40067 0.83249 0.72587 0.0
C1096 C 0.41159 0.86266 0.70752 0.0
C1097 C 0.40646 0.82058 0.70909 0.0
C1098 C 0.41719 0.85023 0.69106 0.0
N1099 N 0.41453 0.82963 0.69217 0.0
C1100 C 0.37574 0.84382 0.785 0.0
C1101 C 0.38752 0.86906 0.80825 0.0
C1102 C 0.37432 0.82946 0.80078 0.0
N1103 N 0.38273 0.863 0.78893 0.0
C1104 C 0.38658 0.85516 0.8244 0.0
C1105 C 0.3804 0.83494 0.82064 0.0
H1106 H 0.37212 0.83943 0.76947 0.0
H1107 H 0.39305 0.8844 0.81099 0.0
C1108 C 0.45375 0.90486 0.73184 0.0
N1109 N 0.44348 0.88743 0.73659 0.0
C1110 C 0.47495 0.90452 0.72941 0.0
C1111 C 0.47457 0.8682 0.73649 0.0
C1112 C 0.45333 0.86921 0.73857 0.0
C1113 C 0.48566 0.8861 0.73218 0.0
H1114 H 0.44551 0.91916 0.73068 0.0
H1115 H 0.44479 0.85559 0.7425 0.0
O1116 O 0.36545 0.8976 0.75635 0.0
O1117 O 0.40065 0.91092 0.72653 0.0
O1118 O 0.41092 0.90065 0.77124 0.0
O1119 O 0.3976 0.86546 0.74143 0.0
H1120 H 0.3253 0.89427 0.75843 0.0
H1121 H 0.37901 0.91383 0.79118 0.0
H1122 H 0.30415 0.90455 0.78826 0.0
H1123 H 0.35698 0.92367 0.82037 0.0
H1124 H 0.40879 0.96072 0.67877 0.0
H1125 H 0.36178 0.92272 0.724 0.0
H1126 H 0.42262 0.93321 0.70102 0.0
H1127 H 0.34905 0.95034 0.70137 0.0
H1128 H 0.3537 0.98228 0.75912 0.0
H1129 H 0.41871 0.98296 0.77138 0.0
H1130 H 0.31395 0.86964 0.70051 0.0
H1131 H 0.35995 0.89127 0.65822 0.0
H1132 H 0.42272 0.86179 0.77377 0.0
H1133 H 0.4332 0.92262 0.79675 0.0
H1134 H 0.45034 0.84906 0.7964 0.0
H1135 H 0.46072 0.9088 0.819 0.0
H1136 H 0.39427 0.8253 0.73935 0.0
H1137 H 0.41382 0.87901 0.7066 0.0
H1138 H 0.40455 0.80415 0.70952 0.0
H1139 H 0.42367 0.85698 0.67741 0.0
H1140 H 0.36963 0.81395 0.79727 0.0
H1141 H 0.39126 0.85996 0.83956 0.0
H1142 H 0.48296 0.91871 0.7264 0.0
H1143 H 0.48228 0.8537 0.73866 0.0
Li1144 Li 0.10746 0.41529 0.74302 0.0
Li1145 Li 0.11736 0.38866 0.76638 0.0
Li1146 Li 0.10913 0.38044 0.73141 0.0
Li1147 Li 0.08251 0.39034 0.75477 0.0
C1148 C 0.1441 0.40324 0.72505 0.0
N1149 N 0.16816 0.41453 0.69218 0.0
C1150 C 0.1653 0.40067 0.72587 0.0
C1151 C 0.13513 0.4116 0.70752 0.0
C1152 C 0.17721 0.40647 0.70909 0.0
C1153 C 0.14756 0.41719 0.69106 0.0
C1154 C 0.10464 0.42601 0.78369 0.0
C1155 C 0.09912 0.45226 0.80902 0.0
N1156 N 0.11944 0.45672 0.80868 0.0
C1157 C 0.12547 0.43087 0.78358 0.0
C1158 C 0.09134 0.43678 0.7965 0.0
C1159 C 0.13266 0.44644 0.79634 0.0
C1160 C 0.09294 0.45375 0.73184 0.0
N1161 N 0.11036 0.44349 0.7366 0.0
C1162 C 0.12959 0.47457 0.7365 0.0
C1163 C 0.12859 0.45333 0.73857 0.0
C1164 C 0.11169 0.48566 0.73219 0.0
C1165 C 0.09327 0.47495 0.72942 0.0
H1166 H 0.07863 0.44552 0.73068 0.0
H1167 H 0.1422 0.4448 0.7425 0.0
C1168 C 0.15398 0.37575 0.78501 0.0
N1169 N 0.13479 0.38273 0.78894 0.0
C1170 C 0.16834 0.37432 0.80078 0.0
C1171 C 0.14264 0.38658 0.8244 0.0
C1172 C 0.12874 0.38752 0.80826 0.0
C1173 C 0.16285 0.3804 0.82064 0.0
H1174 H 0.15837 0.37213 0.76947 0.0
H1175 H 0.1134 0.39305 0.81099 0.0
C1176 C 0.07178 0.39316 0.7141 0.0
N1177 N 0.04107 0.37835 0.6891 0.0
C1178 C 0.06692 0.37232 0.7142 0.0
C1179 C 0.06101 0.40645 0.70129 0.0
C1180 C 0.05136 0.36514 0.70145 0.0
C1181 C 0.04553 0.39868 0.68877 0.0
C1182 C 0.09456 0.35369 0.77273 0.0
C1183 C 0.09713 0.33249 0.77191 0.0
C1184 C 0.0862 0.36266 0.79026 0.0
C1185 C 0.09133 0.32058 0.78869 0.0
C1186 C 0.0806 0.35023 0.80672 0.0
N1187 N 0.08327 0.32963 0.8056 0.0
C1188 C 0.12205 0.34382 0.71277 0.0
C1189 C 0.11027 0.36906 0.68953 0.0
C1190 C 0.12347 0.32946 0.697 0.0
N1191 N 0.11506 0.363 0.70885 0.0
C1192 C 0.11121 0.35516 0.67338 0.0
C1193 C 0.11739 0.33495 0.67714 0.0
H1194 H 0.12567 0.33943 0.72831 0.0
H1195 H 0.10474 0.3844 0.68679 0.0
C1196 C 0.04404 0.40485 0.76595 0.0
N1197 N 0.05431 0.38743 0.76119 0.0
C1198 C 0.02284 0.40452 0.76837 0.0
C1199 C 0.02323 0.3682 0.76129 0.0
C1200 C 0.04447 0.3692 0.75921 0.0
C1201 C 0.01213 0.3861 0.7656 0.0
H1202 H 0.05228 0.41916 0.7671 0.0
H1203 H 0.053 0.35559 0.75528 0.0
O1204 O 0.13234 0.3976 0.74143 0.0
O1205 O 0.09714 0.41092 0.77125 0.0
O1206 O 0.08687 0.40065 0.72654 0.0
O1207 O 0.10019 0.36546 0.75635 0.0
H1208 H 0.17249 0.39428 0.73935 0.0
H1209 H 0.11878 0.41383 0.7066 0.0
H1210 H 0.19364 0.40456 0.70952 0.0
H1211 H 0.14081 0.42367 0.67741 0.0
H1212 H 0.089 0.46072 0.81901 0.0
H1213 H 0.13601 0.42272 0.77378 0.0
H1214 H 0.07517 0.43321 0.79676 0.0
H1215 H 0.14874 0.45034 0.79641 0.0
H1216 H 0.14409 0.48228 0.73866 0.0
H1217 H 0.07908 0.48296 0.7264 0.0
H1218 H 0.18384 0.36964 0.79727 0.0
H1219 H 0.13784 0.39126 0.83956 0.0
H1220 H 0.07507 0.36179 0.72401 0.0
H1221 H 0.06458 0.42262 0.70103 0.0
H1222 H 0.04745 0.34906 0.70137 0.0
H1223 H 0.03707 0.4088 0.67878 0.0
H1224 H 0.10352 0.3253 0.75843 0.0
H1225 H 0.08397 0.37901 0.79118 0.0
H1226 H 0.09324 0.30415 0.78826 0.0
H1227 H 0.07413 0.35697 0.82037 0.0
H1228 H 0.12816 0.31396 0.70051 0.0
H1229 H 0.10653 0.35996 0.65822 0.0
H1230 H 0.01483 0.41871 0.77139 0.0
H1231 H 0.01551 0.3537 0.75912 0.0
Li1232 Li 0.60914 0.11737 0.76637 0.0
Li1233 Li 0.58251 0.10746 0.74301 0.0
Li1234 Li 0.60746 0.08251 0.75476 0.0
Li1235 Li 0.61736 0.10914 0.7314 0.0
C1236 C 0.57178 0.10465 0.78368 0.0
N1237 N 0.54107 0.11945 0.80868 0.0
C1238 C 0.56692 0.12548 0.78358 0.0
C1239 C 0.56102 0.09135 0.79649 0.0
C1240 C 0.55136 0.13266 0.79633 0.0
C1241 C 0.54554 0.09913 0.80902 0.0
C1242 C 0.59456 0.14411 0.72505 0.0
C1243 C 0.5806 0.14757 0.69106 0.0
N1244 N 0.58327 0.16817 0.69217 0.0
C1245 C 0.59713 0.16531 0.72587 0.0
C1246 C 0.5862 0.13514 0.70752 0.0
C1247 C 0.59133 0.17722 0.70909 0.0
C1248 C 0.62205 0.15399 0.785 0.0
N1249 N 0.61507 0.1348 0.78893 0.0
C1250 C 0.61121 0.14265 0.8244 0.0
C1251 C 0.61027 0.12874 0.80825 0.0
C1252 C 0.61739 0.16286 0.82063 0.0
C1253 C 0.62347 0.16834 0.80078 0.0
H1254 H 0.62567 0.15837 0.76947 0.0
H1255 H 0.60474 0.11341 0.81099 0.0
C1256 C 0.54404 0.09295 0.73183 0.0
N1257 N 0.55431 0.11037 0.73659 0.0
C1258 C 0.52284 0.09328 0.72941 0.0
C1259 C 0.52323 0.1296 0.73649 0.0
C1260 C 0.54447 0.1286 0.73857 0.0
C1261 C 0.51213 0.11171 0.73218 0.0
H1262 H 0.55228 0.07864 0.73068 0.0
H1263 H 0.553 0.14221 0.7425 0.0
C1264 C 0.6441 0.09457 0.77273 0.0
N1265 N 0.66817 0.08327 0.8056 0.0
C1266 C 0.66531 0.09713 0.77191 0.0
C1267 C 0.63514 0.08621 0.79026 0.0
C1268 C 0.67721 0.09134 0.78869 0.0
C1269 C 0.64756 0.08061 0.80672 0.0
C1270 C 0.60464 0.07179 0.71409 0.0
C1271 C 0.62547 0.06693 0.7142 0.0
C1272 C 0.59134 0.06102 0.70128 0.0
C1273 C 0.63266 0.05137 0.70144 0.0
C1274 C 0.59912 0.04554 0.68876 0.0
N1275 N 0.61944 0.04108 0.6891 0.0
C1276 C 0.59294 0.04405 0.76594 0.0
C1277 C 0.62859 0.04447 0.7592 0.0
C1278 C 0.59328 0.02285 0.76836 0.0
N1279 N 0.61036 0.05432 0.76118 0.0
C1280 C 0.62959 0.02323 0.76128 0.0
C1281 C 0.6117 0.01214 0.76559 0.0
H1282 H 0.57863 0.05229 0.7671 0.0
H1283 H 0.64221 0.053 0.75528 0.0
C1284 C 0.65398 0.12206 0.71277 0.0
N1285 N 0.63479 0.11507 0.70884 0.0
C1286 C 0.66834 0.12348 0.697 0.0
C1287 C 0.64264 0.11122 0.67337 0.0
C1288 C 0.62874 0.11028 0.68952 0.0
C1289 C 0.66285 0.1174 0.67714 0.0
H1290 H 0.65837 0.12568 0.72831 0.0
H1291 H 0.6134 0.10475 0.68678 0.0
O1292 O 0.58687 0.09715 0.77124 0.0
O1293 O 0.60019 0.13235 0.74143 0.0
O1294 O 0.63234 0.1002 0.75634 0.0
O1295 O 0.59714 0.08688 0.72653 0.0
H1296 H 0.57507 0.13602 0.77377 0.0
H1297 H 0.56459 0.07518 0.79675 0.0
H1298 H 0.54746 0.14875 0.7964 0.0
H1299 H 0.53707 0.089 0.819 0.0
H1300 H 0.57413 0.14083 0.67741 0.0
H1301 H 0.60352 0.1725 0.73935 0.0
H1302 H 0.58397 0.11879 0.7066 0.0
H1303 H 0.59324 0.19365 0.70951 0.0
H1304 H 0.60653 0.13784 0.83956 0.0
H1305 H 0.62816 0.18385 0.79727 0.0
H1306 H 0.51483 0.07909 0.7264 0.0
H1307 H 0.51551 0.1441 0.73866 0.0
H1308 H 0.67249 0.10353 0.75843 0.0
H1309 H 0.61879 0.08397 0.79118 0.0
H1310 H 0.69365 0.09325 0.78826 0.0
H1311 H 0.64082 0.07413 0.82037 0.0
H1312 H 0.63601 0.07508 0.724 0.0
H1313 H 0.57517 0.06459 0.70102 0.0
H1314 H 0.64874 0.04746 0.70137 0.0
H1315 H 0.589 0.03708 0.67877 0.0
H1316 H 0.57909 0.01484 0.77138 0.0
H1317 H 0.6441 0.01552 0.75911 0.0
H1318 H 0.68384 0.12817 0.70051 0.0
H1319 H 0.63784 0.10654 0.65822 0.0
Li1320 Li 0.88866 0.61737 0.73141 0.0
Li1321 Li 0.91528 0.60747 0.75477 0.0
Li1322 Li 0.89033 0.58252 0.74302 0.0
Li1323 Li 0.88043 0.60914 0.76638 0.0
C1324 C 0.92601 0.60465 0.7141 0.0
N1325 N 0.95672 0.61945 0.6891 0.0
C1326 C 0.93087 0.62548 0.7142 0.0
C1327 C 0.93678 0.59135 0.70129 0.0
C1328 C 0.94643 0.63266 0.70145 0.0
C1329 C 0.95226 0.59913 0.68877 0.0
C1330 C 0.90323 0.64411 0.77273 0.0
C1331 C 0.91719 0.64757 0.80672 0.0
N1332 N 0.91452 0.66818 0.8056 0.0
C1333 C 0.90067 0.66532 0.77191 0.0
C1334 C 0.91159 0.63515 0.79026 0.0
C1335 C 0.90646 0.67722 0.78869 0.0
C1336 C 0.87574 0.65399 0.71277 0.0
N1337 N 0.88273 0.6348 0.70885 0.0
C1338 C 0.88658 0.64265 0.67338 0.0
C1339 C 0.88752 0.62874 0.68953 0.0
C1340 C 0.8804 0.66286 0.67714 0.0
C1341 C 0.87432 0.66835 0.697 0.0
H1342 H 0.87212 0.65838 0.72831 0.0
H1343 H 0.89305 0.61341 0.68679 0.0
C1344 C 0.95375 0.59295 0.76595 0.0
N1345 N 0.94348 0.61037 0.76119 0.0
C1346 C 0.97495 0.59328 0.76837 0.0
C1347 C 0.97457 0.6296 0.76129 0.0
C1348 C 0.95333 0.6286 0.75921 0.0
C1349 C 0.98566 0.61171 0.7656 0.0
H1350 H 0.94551 0.57864 0.7671 0.0
H1351 H 0.94479 0.64221 0.75528 0.0
C1352 C 0.85369 0.59457 0.72505 0.0
N1353 N 0.82963 0.58327 0.69218 0.0
C1354 C 0.83249 0.59713 0.72587 0.0
C1355 C 0.86266 0.58621 0.70752 0.0
C1356 C 0.82058 0.59134 0.70909 0.0
C1357 C 0.85023 0.58061 0.69106 0.0
C1358 C 0.89315 0.57179 0.78369 0.0
C1359 C 0.87232 0.56693 0.78358 0.0
C1360 C 0.90645 0.56103 0.7965 0.0
C1361 C 0.86514 0.55137 0.79634 0.0
C1362 C 0.89867 0.54555 0.80902 0.0
N1363 N 0.87835 0.54108 0.80868 0.0
C1364 C 0.90485 0.54405 0.73184 0.0
C1365 C 0.8692 0.54447 0.73857 0.0
C1366 C 0.90452 0.52285 0.72942 0.0
N1367 N 0.88743 0.55432 0.7366 0.0
C1368 C 0.8682 0.52323 0.7365 0.0
C1369 C 0.8861 0.51214 0.73219 0.0
H1370 H 0.91916 0.55229 0.73069 0.0
H1371 H 0.85559 0.553 0.7425 0.0
C1372 C 0.84381 0.62206 0.78501 0.0
N1373 N 0.863 0.61507 0.78894 0.0
C1374 C 0.82945 0.62348 0.80078 0.0
C1375 C 0.85515 0.61122 0.8244 0.0
C1376 C 0.86906 0.61028 0.80826 0.0
C1377 C 0.83494 0.6174 0.82064 0.0
H1378 H 0.83942 0.62568 0.76947 0.0
H1379 H 0.88439 0.60475 0.81099 0.0
O1380 O 0.91092 0.59715 0.72654 0.0
O1381 O 0.8976 0.63235 0.75635 0.0
O1382 O 0.86545 0.6002 0.74143 0.0
O1383 O 0.90065 0.58688 0.77125 0.0
H1384 H 0.92272 0.63602 0.72401 0.0
H1385 H 0.93321 0.57518 0.70103 0.0
H1386 H 0.95034 0.64875 0.70137 0.0
H1387 H 0.96072 0.589 0.67878 0.0
H1388 H 0.92367 0.64083 0.82037 0.0
H1389 H 0.89427 0.6725 0.75843 0.0
H1390 H 0.91382 0.6188 0.79118 0.0
H1391 H 0.90455 0.69366 0.78826 0.0
H1392 H 0.89126 0.63784 0.65822 0.0
H1393 H 0.86963 0.68385 0.70051 0.0
H1394 H 0.98296 0.5791 0.77138 0.0
H1395 H 0.98228 0.64411 0.75912 0.0
H1396 H 0.8253 0.60353 0.73935 0.0
H1397 H 0.87901 0.58398 0.7066 0.0
H1398 H 0.80415 0.59325 0.70952 0.0
H1399 H 0.85698 0.57413 0.67741 0.0
H1400 H 0.86178 0.57508 0.77378 0.0
H1401 H 0.92262 0.5646 0.79676 0.0
H1402 H 0.84905 0.54746 0.79641 0.0
H1403 H 0.90879 0.53708 0.81901 0.0
H1404 H 0.91871 0.51484 0.72641 0.0
H1405 H 0.8537 0.51552 0.73866 0.0
H1406 H 0.81395 0.62817 0.79727 0.0
H1407 H 0.85995 0.60654 0.83956 0.0
Li1408 Li 0.23141 0.38866 0.11735 0.0
Li1409 Li 0.25477 0.41529 0.10745 0.0
Li1410 Li 0.24302 0.39034 0.0825 0.0
Li1411 Li 0.26638 0.38044 0.10913 0.0
C1412 C 0.2141 0.42601 0.10463 0.0
N1413 N 0.1891 0.45672 0.11944 0.0
C1414 C 0.2142 0.43087 0.12546 0.0
C1415 C 0.20129 0.43678 0.09134 0.0
C1416 C 0.20145 0.44643 0.13265 0.0
C1417 C 0.18876 0.45226 0.09911 0.0
C1418 C 0.27274 0.40323 0.14409 0.0
C1419 C 0.30672 0.41719 0.14755 0.0
N1420 N 0.30561 0.41453 0.16815 0.0
C1421 C 0.27192 0.40067 0.1653 0.0
C1422 C 0.29026 0.41159 0.13512 0.0
C1423 C 0.2887 0.40646 0.1772 0.0
C1424 C 0.21278 0.37574 0.15397 0.0
N1425 N 0.20885 0.38273 0.13479 0.0
C1426 C 0.17338 0.38658 0.14264 0.0
C1427 C 0.18953 0.38752 0.12873 0.0
C1428 C 0.17715 0.3804 0.16285 0.0
C1429 C 0.19701 0.37432 0.16833 0.0
H1430 H 0.22832 0.37212 0.15836 0.0
H1431 H 0.18679 0.39305 0.11339 0.0
C1432 C 0.26594 0.45375 0.09293 0.0
N1433 N 0.26119 0.44349 0.11035 0.0
C1434 C 0.26837 0.47495 0.09327 0.0
C1435 C 0.26129 0.47457 0.12958 0.0
C1436 C 0.25921 0.45333 0.12858 0.0
C1437 C 0.2656 0.48566 0.11169 0.0
H1438 H 0.2671 0.44552 0.07862 0.0
H1439 H 0.25529 0.4448 0.1422 0.0
C1440 C 0.22505 0.35369 0.09455 0.0
N1441 N 0.19218 0.32963 0.08326 0.0
C1442 C 0.22587 0.33249 0.09712 0.0
C1443 C 0.20752 0.36266 0.0862 0.0
C1444 C 0.20909 0.32058 0.09133 0.0
C1445 C 0.19106 0.35023 0.0806 0.0
C1446 C 0.28369 0.39316 0.07177 0.0
C1447 C 0.28358 0.37232 0.06691 0.0
C1448 C 0.2965 0.40645 0.061 0.0
C1449 C 0.29634 0.36514 0.05135 0.0
C1450 C 0.30902 0.39868 0.04552 0.0
N1451 N 0.30868 0.37835 0.04106 0.0
C1452 C 0.23184 0.40486 0.04404 0.0
C1453 C 0.23857 0.3692 0.04446 0.0
C1454 C 0.22942 0.40452 0.02284 0.0
N1455 N 0.2366 0.38743 0.0543 0.0
C1456 C 0.2365 0.3682 0.02322 0.0
C1457 C 0.23218 0.3861 0.01213 0.0
H1458 H 0.23068 0.41916 0.05227 0.0
H1459 H 0.2425 0.35559 0.05299 0.0
C1460 C 0.28501 0.34381 0.12204 0.0
N1461 N 0.28894 0.363 0.11505 0.0
C1462 C 0.30078 0.32946 0.12346 0.0
C1463 C 0.32441 0.35515 0.1112 0.0
C1464 C 0.30826 0.36906 0.11026 0.0
C1465 C 0.32064 0.33494 0.11738 0.0
H1466 H 0.26947 0.33943 0.12566 0.0
H1467 H 0.311 0.3844 0.10473 0.0
O1468 O 0.22654 0.41092 0.09714 0.0
O1469 O 0.25635 0.3976 0.13233 0.0
O1470 O 0.24144 0.36546 0.10018 0.0
O1471 O 0.27125 0.40065 0.08686 0.0
H1472 H 0.22401 0.42272 0.136 0.0
H1473 H 0.20103 0.43321 0.07517 0.0
H1474 H 0.20138 0.45034 0.14873 0.0
H1475 H 0.17877 0.46072 0.08899 0.0
H1476 H 0.32038 0.42367 0.1408 0.0
H1477 H 0.25844 0.39427 0.17248 0.0
H1478 H 0.29118 0.41383 0.11877 0.0
H1479 H 0.28827 0.40455 0.19363 0.0
H1480 H 0.15823 0.39127 0.13783 0.0
H1481 H 0.20052 0.36963 0.18383 0.0
H1482 H 0.27138 0.48296 0.07908 0.0
H1483 H 0.25912 0.48228 0.14409 0.0
H1484 H 0.23935 0.3253 0.10351 0.0
H1485 H 0.2066 0.37901 0.08396 0.0
H1486 H 0.20952 0.30415 0.09324 0.0
H1487 H 0.17741 0.35698 0.07412 0.0
H1488 H 0.27378 0.36179 0.07506 0.0
H1489 H 0.29675 0.42262 0.06458 0.0
H1490 H 0.29641 0.34906 0.04744 0.0
H1491 H 0.31901 0.4088 0.03706 0.0
H1492 H 0.2264 0.41871 0.01482 0.0
H1493 H 0.23866 0.3537 0.01551 0.0
H1494 H 0.29728 0.31395 0.12815 0.0
H1495 H 0.33956 0.35996 0.10652 0.0
Li1496 Li 0.26638 0.61737 0.88865 0.0
Li1497 Li 0.24302 0.60747 0.91528 0.0
Li1498 Li 0.25477 0.58251 0.89033 0.0
Li1499 Li 0.23141 0.60914 0.88043 0.0
C1500 C 0.28369 0.60465 0.926 0.0
N1501 N 0.30868 0.61945 0.95672 0.0
C1502 C 0.28358 0.62548 0.93086 0.0
C1503 C 0.2965 0.59135 0.93677 0.0
C1504 C 0.29634 0.63266 0.94643 0.0
C1505 C 0.30902 0.59913 0.95225 0.0
C1506 C 0.22505 0.64411 0.90322 0.0
C1507 C 0.19106 0.64757 0.91718 0.0
N1508 N 0.19218 0.66818 0.91452 0.0
C1509 C 0.22587 0.66531 0.90066 0.0
C1510 C 0.20752 0.63514 0.91158 0.0
C1511 C 0.20909 0.67722 0.90645 0.0
C1512 C 0.28501 0.65399 0.87574 0.0
N1513 N 0.28894 0.6348 0.88272 0.0
C1514 C 0.32441 0.64265 0.88658 0.0
C1515 C 0.30826 0.62874 0.88752 0.0
C1516 C 0.32064 0.66286 0.8804 0.0
C1517 C 0.30078 0.66834 0.87431 0.0
H1518 H 0.26947 0.65837 0.87212 0.0
H1519 H 0.311 0.61341 0.89305 0.0
C1520 C 0.23184 0.59295 0.95374 0.0
N1521 N 0.2366 0.61037 0.94348 0.0
C1522 C 0.22942 0.59328 0.97494 0.0
C1523 C 0.2365 0.6296 0.97456 0.0
C1524 C 0.23857 0.6286 0.95332 0.0
C1525 C 0.23218 0.61171 0.98565 0.0
H1526 H 0.23068 0.57864 0.94551 0.0
H1527 H 0.2425 0.64221 0.94479 0.0
C1528 C 0.27274 0.59457 0.85369 0.0
N1529 N 0.30561 0.58327 0.82962 0.0
C1530 C 0.27192 0.59713 0.83248 0.0
C1531 C 0.29026 0.58621 0.86265 0.0
C1532 C 0.2887 0.59134 0.82058 0.0
C1533 C 0.30672 0.58061 0.85023 0.0
C1534 C 0.2141 0.57179 0.89315 0.0
C1535 C 0.2142 0.56693 0.87232 0.0
C1536 C 0.20129 0.56102 0.90644 0.0
C1537 C 0.20145 0.55137 0.86513 0.0
C1538 C 0.18876 0.54554 0.89866 0.0
N1539 N 0.1891 0.54108 0.87834 0.0
C1540 C 0.26595 0.54405 0.90485 0.0
C1541 C 0.25921 0.54447 0.8692 0.0
C1542 C 0.26837 0.52285 0.90451 0.0
N1543 N 0.26119 0.55432 0.88742 0.0
C1544 C 0.26129 0.52323 0.8682 0.0
C1545 C 0.2656 0.51214 0.88609 0.0
H1546 H 0.2671 0.55229 0.91916 0.0
H1547 H 0.25529 0.553 0.85558 0.0
C1548 C 0.21278 0.62206 0.84381 0.0
N1549 N 0.20885 0.61507 0.86299 0.0
C1550 C 0.19701 0.62348 0.82945 0.0
C1551 C 0.17338 0.61122 0.85514 0.0
C1552 C 0.18953 0.61028 0.86905 0.0
C1553 C 0.17715 0.6174 0.83493 0.0
H1554 H 0.22832 0.62567 0.83942 0.0
H1555 H 0.18679 0.60475 0.88438 0.0
O1556 O 0.27125 0.59715 0.91091 0.0
O1557 O 0.24144 0.63235 0.8976 0.0
O1558 O 0.25635 0.6002 0.86545 0.0
O1559 O 0.22654 0.58688 0.90064 0.0
H1560 H 0.27378 0.63602 0.92271 0.0
H1561 H 0.29675 0.57518 0.9332 0.0
H1562 H 0.29641 0.64875 0.95033 0.0
H1563 H 0.31901 0.589 0.96072 0.0
H1564 H 0.17741 0.64083 0.92366 0.0
H1565 H 0.23935 0.6725 0.89426 0.0
H1566 H 0.2066 0.61879 0.91382 0.0
H1567 H 0.20952 0.69366 0.90454 0.0
H1568 H 0.33956 0.63784 0.89126 0.0
H1569 H 0.29728 0.68385 0.86963 0.0
H1570 H 0.2264 0.57909 0.98295 0.0
H1571 H 0.23866 0.6441 0.98227 0.0
H1572 H 0.25844 0.60353 0.82529 0.0
H1573 H 0.29118 0.58398 0.879 0.0
H1574 H 0.28827 0.59325 0.80414 0.0
H1575 H 0.32038 0.57413 0.85697 0.0
H1576 H 0.22401 0.57508 0.86178 0.0
H1577 H 0.20103 0.5646 0.92261 0.0
H1578 H 0.20138 0.54746 0.84905 0.0
H1579 H 0.17877 0.53708 0.90879 0.0
H1580 H 0.27138 0.51484 0.9187 0.0
H1581 H 0.25912 0.51552 0.85369 0.0
H1582 H 0.20051 0.62817 0.81394 0.0
H1583 H 0.15823 0.60654 0.85995 0.0
Li1584 Li 0.38043 0.26639 0.88865 0.0
Li1585 Li 0.39033 0.24302 0.91528 0.0
Li1586 Li 0.41528 0.25478 0.89033 0.0
Li1587 Li 0.38866 0.23141 0.88043 0.0
C1588 C 0.39315 0.28369 0.926 0.0
N1589 N 0.37835 0.30869 0.95672 0.0
C1590 C 0.37232 0.28359 0.93086 0.0
C1591 C 0.40645 0.2965 0.93677 0.0
C1592 C 0.36513 0.29634 0.94643 0.0
C1593 C 0.39867 0.30903 0.95225 0.0
C1594 C 0.35369 0.22506 0.90322 0.0
C1595 C 0.35023 0.19107 0.91718 0.0
N1596 N 0.32963 0.19218 0.91452 0.0
C1597 C 0.33249 0.22588 0.90066 0.0
C1598 C 0.36266 0.20753 0.91158 0.0
C1599 C 0.32058 0.2091 0.90645 0.0
C1600 C 0.34381 0.28502 0.87574 0.0
N1601 N 0.363 0.28895 0.88272 0.0
C1602 C 0.35515 0.32441 0.88658 0.0
C1603 C 0.36905 0.30827 0.88751 0.0
C1604 C 0.33494 0.32065 0.8804 0.0
C1605 C 0.32945 0.30079 0.87431 0.0
H1606 H 0.33943 0.26948 0.87212 0.0
H1607 H 0.38439 0.311 0.89305 0.0
C1608 C 0.40485 0.23185 0.95374 0.0
N1609 N 0.38743 0.2366 0.94348 0.0
C1610 C 0.40452 0.22942 0.97494 0.0
C1611 C 0.3682 0.2365 0.97456 0.0
C1612 C 0.3692 0.23858 0.95332 0.0
C1613 C 0.38609 0.23219 0.98565 0.0
H1614 H 0.41916 0.23069 0.94551 0.0
H1615 H 0.35559 0.24251 0.94479 0.0
C1616 C 0.40323 0.27274 0.85369 0.0
N1617 N 0.41452 0.30562 0.82962 0.0
C1618 C 0.40067 0.27192 0.83248 0.0
C1619 C 0.41159 0.29027 0.86265 0.0
C1620 C 0.40646 0.2887 0.82058 0.0
C1621 C 0.41719 0.30673 0.85023 0.0
C1622 C 0.42601 0.21411 0.89315 0.0
C1623 C 0.43087 0.21421 0.87232 0.0
C1624 C 0.43678 0.2013 0.90644 0.0
C1625 C 0.44643 0.20146 0.86513 0.0
C1626 C 0.45226 0.18877 0.89866 0.0
N1627 N 0.45672 0.18911 0.87834 0.0
C1628 C 0.45375 0.26595 0.90485 0.0
C1629 C 0.45332 0.25922 0.8692 0.0
C1630 C 0.47495 0.26837 0.90451 0.0
N1631 N 0.44348 0.2612 0.88742 0.0
C1632 C 0.47457 0.2613 0.8682 0.0
C1633 C 0.48566 0.26561 0.88609 0.0
H1634 H 0.44551 0.26711 0.91915 0.0
H1635 H 0.44479 0.25529 0.85558 0.0
C1636 C 0.37574 0.21279 0.84381 0.0
N1637 N 0.38273 0.20885 0.86299 0.0
C1638 C 0.37432 0.19701 0.82945 0.0
C1639 C 0.38658 0.17339 0.85514 0.0
C1640 C 0.38752 0.18953 0.86905 0.0
C1641 C 0.3804 0.17715 0.83493 0.0
H1642 H 0.37212 0.22832 0.83942 0.0
H1643 H 0.39305 0.1868 0.88438 0.0
O1644 O 0.40065 0.27126 0.91091 0.0
O1645 O 0.36545 0.24144 0.8976 0.0
O1646 O 0.3976 0.25636 0.86545 0.0
O1647 O 0.41092 0.22654 0.90064 0.0
H1648 H 0.36178 0.27378 0.92271 0.0
H1649 H 0.42262 0.29676 0.9332 0.0
H1650 H 0.34905 0.29641 0.95033 0.0
H1651 H 0.40879 0.31902 0.96072 0.0
H1652 H 0.35698 0.17741 0.92366 0.0
H1653 H 0.3253 0.23936 0.89427 0.0
H1654 H 0.37901 0.20661 0.91382 0.0
H1655 H 0.30415 0.20952 0.90454 0.0
H1656 H 0.35995 0.33957 0.89126 0.0
H1657 H 0.31395 0.29728 0.86963 0.0
H1658 H 0.41871 0.22641 0.98295 0.0
H1659 H 0.3537 0.23867 0.98227 0.0
H1660 H 0.39427 0.25844 0.82529 0.0
H1661 H 0.41382 0.29119 0.879 0.0
H1662 H 0.40455 0.28828 0.80414 0.0
H1663 H 0.42366 0.32039 0.85697 0.0
H1664 H 0.42272 0.22401 0.86178 0.0
H1665 H 0.43321 0.20104 0.92261 0.0
H1666 H 0.45034 0.20138 0.84905 0.0
H1667 H 0.46072 0.17878 0.90879 0.0
H1668 H 0.48296 0.27139 0.9187 0.0
H1669 H 0.48228 0.25913 0.85369 0.0
H1670 H 0.36963 0.20052 0.81395 0.0
H1671 H 0.39126 0.15823 0.85995 0.0
Li1672 Li 0.75477 0.39034 0.91528 0.0
Li1673 Li 0.73141 0.38044 0.88865 0.0
Li1674 Li 0.76638 0.38866 0.88043 0.0
Li1675 Li 0.74302 0.41529 0.89033 0.0
C1676 C 0.77274 0.3537 0.90322 0.0
N1677 N 0.80561 0.32963 0.91452 0.0
C1678 C 0.77192 0.33249 0.90066 0.0
C1679 C 0.79027 0.36266 0.91158 0.0
C1680 C 0.7887 0.32059 0.90645 0.0
C1681 C 0.80673 0.35024 0.91718 0.0
C1682 C 0.7141 0.39316 0.926 0.0
C1683 C 0.68876 0.39867 0.95225 0.0
N1684 N 0.6891 0.37835 0.95671 0.0
C1685 C 0.71421 0.37233 0.93086 0.0
C1686 C 0.70129 0.40645 0.93677 0.0
C1687 C 0.70145 0.36514 0.94642 0.0
C1688 C 0.76595 0.40486 0.95374 0.0
N1689 N 0.76119 0.38743 0.94348 0.0
C1690 C 0.76129 0.36821 0.97456 0.0
C1691 C 0.75922 0.36921 0.95332 0.0
C1692 C 0.7656 0.3861 0.98565 0.0
C1693 C 0.76837 0.40453 0.97494 0.0
H1694 H 0.7671 0.41917 0.9455 0.0
H1695 H 0.75529 0.35559 0.94479 0.0
C1696 C 0.71278 0.34382 0.87574 0.0
N1697 N 0.70885 0.363 0.88272 0.0
C1698 C 0.69701 0.32946 0.87431 0.0
C1699 C 0.67338 0.35515 0.88657 0.0
C1700 C 0.68953 0.36906 0.88751 0.0
C1701 C 0.67715 0.33494 0.8804 0.0
H1702 H 0.72832 0.33943 0.87212 0.0
H1703 H 0.68679 0.3844 0.89304 0.0
C1704 C 0.78369 0.42601 0.89315 0.0
N1705 N 0.80868 0.45673 0.87834 0.0
C1706 C 0.78359 0.43088 0.87231 0.0
C1707 C 0.7965 0.43678 0.90644 0.0
C1708 C 0.79634 0.44644 0.86513 0.0
C1709 C 0.80902 0.45226 0.89867 0.0
C1710 C 0.72505 0.40323 0.85369 0.0
C1711 C 0.72587 0.40067 0.83248 0.0
C1712 C 0.70753 0.41159 0.86265 0.0
C1713 C 0.70909 0.40646 0.82057 0.0
C1714 C 0.69107 0.41719 0.85022 0.0
N1715 N 0.69218 0.41453 0.82962 0.0
C1716 C 0.78501 0.37575 0.84381 0.0
C1717 C 0.80826 0.38752 0.86905 0.0
C1718 C 0.80079 0.37432 0.82945 0.0
N1719 N 0.78894 0.38273 0.86299 0.0
C1720 C 0.82441 0.38659 0.85515 0.0
C1721 C 0.82064 0.38041 0.83493 0.0
H1722 H 0.76947 0.37213 0.83942 0.0
H1723 H 0.811 0.39306 0.88439 0.0
C1724 C 0.73184 0.45375 0.90484 0.0
N1725 N 0.7366 0.44349 0.88742 0.0
C1726 C 0.72942 0.47495 0.90451 0.0
C1727 C 0.7365 0.47457 0.86819 0.0
C1728 C 0.73858 0.45333 0.8692 0.0
C1729 C 0.73219 0.48566 0.88609 0.0
H1730 H 0.73068 0.44552 0.91915 0.0
H1731 H 0.74251 0.4448 0.85558 0.0
O1732 O 0.75635 0.36546 0.89759 0.0
O1733 O 0.72654 0.40065 0.91091 0.0
O1734 O 0.77125 0.41092 0.90064 0.0
O1735 O 0.74144 0.39761 0.86545 0.0
H1736 H 0.75844 0.3253 0.89427 0.0
H1737 H 0.79118 0.37901 0.91382 0.0
H1738 H 0.78827 0.30415 0.90454 0.0
H1739 H 0.82038 0.35698 0.92366 0.0
H1740 H 0.67877 0.4088 0.96071 0.0
H1741 H 0.72401 0.36179 0.92271 0.0
H1742 H 0.70103 0.42262 0.9332 0.0
H1743 H 0.70138 0.34906 0.95033 0.0
H1744 H 0.75913 0.3537 0.98227 0.0
H1745 H 0.77138 0.41871 0.98295 0.0
H1746 H 0.70051 0.31395 0.86963 0.0
H1747 H 0.65823 0.35996 0.89126 0.0
H1748 H 0.77378 0.42272 0.86178 0.0
H1749 H 0.79676 0.43321 0.92261 0.0
H1750 H 0.79641 0.45034 0.84905 0.0
H1751 H 0.81901 0.46073 0.90879 0.0
H1752 H 0.73935 0.39427 0.82529 0.0
H1753 H 0.70661 0.41383 0.879 0.0
H1754 H 0.70952 0.40455 0.80414 0.0
H1755 H 0.67741 0.42367 0.85697 0.0
H1756 H 0.79728 0.36964 0.81395 0.0
H1757 H 0.83956 0.39127 0.85995 0.0
H1758 H 0.7264 0.48297 0.9187 0.0
H1759 H 0.73867 0.48228 0.85369 0.0
Li1760 Li 0.60746 0.75478 0.91528 0.0
Li1761 Li 0.61736 0.73142 0.88865 0.0
Li1762 Li 0.60914 0.76639 0.88043 0.0
Li1763 Li 0.58251 0.74303 0.89033 0.0
C1764 C 0.6441 0.77275 0.90322 0.0
N1765 N 0.66816 0.80562 0.91452 0.0
C1766 C 0.66531 0.77193 0.90066 0.0
C1767 C 0.63513 0.79027 0.91158 0.0
C1768 C 0.67721 0.78871 0.90645 0.0
C1769 C 0.64756 0.80673 0.91718 0.0
C1770 C 0.60464 0.71411 0.926 0.0
C1771 C 0.59912 0.68878 0.95225 0.0
N1772 N 0.61944 0.68911 0.95672 0.0
C1773 C 0.62547 0.71421 0.93086 0.0
C1774 C 0.59134 0.7013 0.93677 0.0
C1775 C 0.63266 0.70146 0.94643 0.0
C1776 C 0.59294 0.76596 0.95374 0.0
N1777 N 0.61036 0.7612 0.94348 0.0
C1778 C 0.62959 0.7613 0.97456 0.0
C1779 C 0.62859 0.75922 0.95332 0.0
C1780 C 0.6117 0.76561 0.98565 0.0
C1781 C 0.59327 0.76838 0.97494 0.0
H1782 H 0.57863 0.76711 0.94551 0.0
H1783 H 0.6422 0.7553 0.94479 0.0
C1784 C 0.65398 0.71279 0.87574 0.0
N1785 N 0.63479 0.70886 0.88272 0.0
C1786 C 0.66834 0.69701 0.87432 0.0
C1787 C 0.64264 0.67339 0.88658 0.0
C1788 C 0.62874 0.68954 0.88751 0.0
C1789 C 0.66285 0.67716 0.8804 0.0
H1790 H 0.65837 0.72833 0.87212 0.0
H1791 H 0.6134 0.6868 0.89305 0.0
C1792 C 0.57178 0.7837 0.89315 0.0
N1793 N 0.54107 0.80869 0.87834 0.0
C1794 C 0.56692 0.78359 0.87231 0.0
C1795 C 0.56101 0.79651 0.90644 0.0
C1796 C 0.55136 0.79635 0.86513 0.0
C1797 C 0.54553 0.80903 0.89866 0.0
C1798 C 0.59456 0.72506 0.85369 0.0
C1799 C 0.59713 0.72588 0.83248 0.0
C1800 C 0.5862 0.70753 0.86265 0.0
C1801 C 0.59133 0.7091 0.82058 0.0
C1802 C 0.58061 0.69107 0.85023 0.0
N1803 N 0.58327 0.69218 0.82962 0.0
C1804 C 0.62205 0.78502 0.84381 0.0
C1805 C 0.61027 0.80827 0.86905 0.0
C1806 C 0.62347 0.80079 0.82945 0.0
N1807 N 0.61506 0.78895 0.86299 0.0
C1808 C 0.61121 0.82442 0.85514 0.0
C1809 C 0.61739 0.82065 0.83493 0.0
H1810 H 0.62567 0.76948 0.83942 0.0
H1811 H 0.60474 0.81101 0.88438 0.0
C1812 C 0.54404 0.73185 0.90485 0.0
N1813 N 0.55431 0.73661 0.88742 0.0
C1814 C 0.52284 0.72943 0.90451 0.0
C1815 C 0.52323 0.73651 0.8682 0.0
C1816 C 0.54447 0.73858 0.8692 0.0
C1817 C 0.51213 0.73219 0.88609 0.0
H1818 H 0.55228 0.73069 0.91915 0.0
H1819 H 0.553 0.74251 0.85558 0.0
O1820 O 0.63234 0.75636 0.8976 0.0
O1821 O 0.59714 0.72655 0.91091 0.0
O1822 O 0.58687 0.77126 0.90064 0.0
O1823 O 0.60019 0.74144 0.86545 0.0
H1824 H 0.67249 0.75845 0.89427 0.0
H1825 H 0.61878 0.79119 0.91382 0.0
H1826 H 0.69365 0.78828 0.90454 0.0
H1827 H 0.64082 0.82039 0.92366 0.0
H1828 H 0.589 0.67879 0.96072 0.0
H1829 H 0.63601 0.72402 0.92271 0.0
H1830 H 0.57518 0.70104 0.9332 0.0
H1831 H 0.64874 0.70139 0.95033 0.0
H1832 H 0.6441 0.75913 0.98227 0.0
H1833 H 0.57909 0.7714 0.98295 0.0
H1834 H 0.68384 0.70052 0.86963 0.0
H1835 H 0.63784 0.65823 0.89126 0.0
H1836 H 0.57507 0.77379 0.86178 0.0
H1837 H 0.56459 0.79677 0.92261 0.0
H1838 H 0.54745 0.79642 0.84905 0.0
H1839 H 0.53707 0.81902 0.90879 0.0
H1840 H 0.60352 0.73936 0.82529 0.0
H1841 H 0.58397 0.70661 0.879 0.0
H1842 H 0.59324 0.70952 0.80414 0.0
H1843 H 0.57413 0.67742 0.85697 0.0
H1844 H 0.62816 0.79728 0.81395 0.0
H1845 H 0.60653 0.83957 0.85995 0.0
H1846 H 0.51483 0.72641 0.9187 0.0
H1847 H 0.51551 0.73867 0.85369 0.0
Li1848 Li 0.76638 0.60914 0.11735 0.0
Li1849 Li 0.74302 0.58251 0.10745 0.0
Li1850 Li 0.75477 0.60746 0.0825 0.0
Li1851 Li 0.73141 0.61737 0.10913 0.0
C1852 C 0.78369 0.57179 0.10463 0.0
N1853 N 0.80868 0.54107 0.11943 0.0
C1854 C 0.78358 0.56693 0.12546 0.0
C1855 C 0.7965 0.56102 0.09134 0.0
C1856 C 0.79634 0.55136 0.13265 0.0
C1857 C 0.80902 0.54554 0.09911 0.0
C1858 C 0.72505 0.59457 0.14409 0.0
C1859 C 0.69107 0.58061 0.14755 0.0
N1860 N 0.69218 0.58327 0.16816 0.0
C1861 C 0.72587 0.59713 0.1653 0.0
C1862 C 0.70752 0.58621 0.13513 0.0
C1863 C 0.70909 0.59134 0.1772 0.0
C1864 C 0.78501 0.62206 0.15397 0.0
N1865 N 0.78894 0.61507 0.13479 0.0
C1866 C 0.82441 0.61122 0.14263 0.0
C1867 C 0.80826 0.61028 0.12873 0.0
C1868 C 0.82064 0.6174 0.16284 0.0
C1869 C 0.80078 0.62348 0.16833 0.0
H1870 H 0.76947 0.62568 0.15836 0.0
H1871 H 0.811 0.60475 0.11339 0.0
C1872 C 0.73184 0.54405 0.09293 0.0
N1873 N 0.7366 0.55432 0.11036 0.0
C1874 C 0.72942 0.52285 0.09327 0.0
C1875 C 0.7365 0.52323 0.12958 0.0
C1876 C 0.73858 0.54447 0.12858 0.0
C1877 C 0.73219 0.51214 0.11169 0.0
H1878 H 0.73068 0.55229 0.07863 0.0
H1879 H 0.74251 0.553 0.1422 0.0
C1880 C 0.77274 0.64411 0.09455 0.0
N1881 N 0.80561 0.66817 0.08326 0.0
C1882 C 0.77192 0.66531 0.09712 0.0
C1883 C 0.79027 0.63514 0.0862 0.0
C1884 C 0.7887 0.67722 0.09132 0.0
C1885 C 0.80673 0.64756 0.0806 0.0
C1886 C 0.7141 0.60465 0.07178 0.0
C1887 C 0.71421 0.62548 0.06692 0.0
C1888 C 0.70129 0.59135 0.06101 0.0
C1889 C 0.70145 0.63266 0.05135 0.0
C1890 C 0.68876 0.59913 0.04553 0.0
N1891 N 0.6891 0.61945 0.04106 0.0
C1892 C 0.76595 0.59294 0.04404 0.0
C1893 C 0.75922 0.62859 0.04446 0.0
C1894 C 0.76837 0.59328 0.02284 0.0
N1895 N 0.76119 0.61037 0.0543 0.0
C1896 C 0.76129 0.6296 0.02322 0.0
C1897 C 0.7656 0.6117 0.01213 0.0
H1898 H 0.7671 0.57864 0.05227 0.0
H1899 H 0.75529 0.64221 0.05299 0.0
C1900 C 0.71278 0.65399 0.12204 0.0
N1901 N 0.70885 0.6348 0.11506 0.0
C1902 C 0.69701 0.66835 0.12346 0.0
C1903 C 0.67338 0.64265 0.1112 0.0
C1904 C 0.68953 0.62874 0.11027 0.0
C1905 C 0.67715 0.66286 0.11738 0.0
H1906 H 0.72832 0.65837 0.12566 0.0
H1907 H 0.68679 0.61341 0.10473 0.0
O1908 O 0.77125 0.58688 0.09714 0.0
O1909 O 0.74144 0.6002 0.13233 0.0
O1910 O 0.75635 0.63235 0.10018 0.0
O1911 O 0.72654 0.59715 0.08687 0.0
H1912 H 0.77378 0.57508 0.136 0.0
H1913 H 0.79676 0.56459 0.07517 0.0
H1914 H 0.79641 0.54746 0.14873 0.0
H1915 H 0.81901 0.53707 0.08899 0.0
H1916 H 0.67741 0.57413 0.14081 0.0
H1917 H 0.73935 0.60353 0.17249 0.0
H1918 H 0.70661 0.58398 0.11878 0.0
H1919 H 0.70952 0.59325 0.19364 0.0
H1920 H 0.83956 0.60653 0.13783 0.0
H1921 H 0.79728 0.62817 0.18383 0.0
H1922 H 0.7264 0.51484 0.07908 0.0
H1923 H 0.73867 0.51552 0.14409 0.0
H1924 H 0.75844 0.6725 0.10351 0.0
H1925 H 0.79118 0.61879 0.08396 0.0
H1926 H 0.78827 0.69365 0.09323 0.0
H1927 H 0.82038 0.64082 0.07412 0.0
H1928 H 0.72401 0.63602 0.07507 0.0
H1929 H 0.70103 0.57518 0.06458 0.0
H1930 H 0.70138 0.64875 0.04745 0.0
H1931 H 0.67877 0.58901 0.03707 0.0
H1932 H 0.77138 0.57909 0.01483 0.0
H1933 H 0.75913 0.6441 0.01551 0.0
H1934 H 0.70051 0.68385 0.12815 0.0
H1935 H 0.65823 0.63785 0.10652 0.0
Li1936 Li 0.38865 0.76639 0.11735 0.0
Li1937 Li 0.41528 0.74303 0.10745 0.0
Li1938 Li 0.39033 0.75478 0.0825 0.0
Li1939 Li 0.38043 0.73142 0.10913 0.0
C1940 C 0.42601 0.7837 0.10463 0.0
N1941 N 0.45672 0.80869 0.11944 0.0
C1942 C 0.43087 0.78359 0.12546 0.0
C1943 C 0.43678 0.79651 0.09134 0.0
C1944 C 0.44643 0.79635 0.13265 0.0
C1945 C 0.45225 0.80903 0.09911 0.0
C1946 C 0.40323 0.72506 0.14409 0.0
C1947 C 0.41719 0.69107 0.14755 0.0
N1948 N 0.41452 0.69218 0.16815 0.0
C1949 C 0.40066 0.72588 0.1653 0.0
C1950 C 0.41159 0.70753 0.13513 0.0
C1951 C 0.40646 0.7091 0.1772 0.0
C1952 C 0.37574 0.78502 0.15397 0.0
N1953 N 0.38273 0.78895 0.13479 0.0
C1954 C 0.38658 0.82442 0.14264 0.0
C1955 C 0.38752 0.80827 0.12873 0.0
C1956 C 0.3804 0.82065 0.16285 0.0
C1957 C 0.37432 0.80079 0.16833 0.0
H1958 H 0.37212 0.76948 0.15836 0.0
H1959 H 0.39305 0.81101 0.1134 0.0
C1960 C 0.45375 0.73185 0.09293 0.0
N1961 N 0.44348 0.73661 0.11035 0.0
C1962 C 0.47495 0.72943 0.09327 0.0
C1963 C 0.47456 0.73651 0.12958 0.0
C1964 C 0.45332 0.73858 0.12858 0.0
C1965 C 0.48566 0.7322 0.11169 0.0
H1966 H 0.44551 0.7307 0.07862 0.0
H1967 H 0.44479 0.74251 0.1422 0.0
C1968 C 0.35369 0.77275 0.09455 0.0
N1969 N 0.32962 0.80562 0.08326 0.0
C1970 C 0.33248 0.77193 0.09712 0.0
C1971 C 0.36266 0.79028 0.0862 0.0
C1972 C 0.32058 0.78871 0.09132 0.0
C1973 C 0.35023 0.80674 0.0806 0.0
C1974 C 0.39315 0.71411 0.07177 0.0
C1975 C 0.37232 0.71422 0.06691 0.0
C1976 C 0.40645 0.7013 0.06101 0.0
C1977 C 0.36513 0.70146 0.05135 0.0
C1978 C 0.39867 0.68878 0.04553 0.0
N1979 N 0.37835 0.68911 0.04106 0.0
C1980 C 0.40485 0.76596 0.04404 0.0
C1981 C 0.3692 0.75923 0.04446 0.0
C1982 C 0.40452 0.76838 0.02284 0.0
N1983 N 0.38743 0.7612 0.0543 0.0
C1984 C 0.3682 0.7613 0.02322 0.0
C1985 C 0.38609 0.76561 0.01213 0.0
H1986 H 0.41916 0.76711 0.05227 0.0
H1987 H 0.35559 0.7553 0.05299 0.0
C1988 C 0.34381 0.71279 0.12204 0.0
N1989 N 0.363 0.70886 0.11505 0.0
C1990 C 0.32945 0.69701 0.12346 0.0
C1991 C 0.35515 0.67339 0.1112 0.0
C1992 C 0.36905 0.68954 0.11026 0.0
C1993 C 0.33494 0.67716 0.11738 0.0
H1994 H 0.33942 0.72833 0.12566 0.0
H1995 H 0.38439 0.6868 0.10473 0.0
O1996 O 0.41092 0.77126 0.09714 0.0
O1997 O 0.3976 0.74144 0.13233 0.0
O1998 O 0.36545 0.75636 0.10018 0.0
O1999 O 0.40065 0.72655 0.08686 0.0
H2000 H 0.42272 0.77379 0.136 0.0
H2001 H 0.4332 0.79677 0.07517 0.0
H2002 H 0.45034 0.79642 0.14873 0.0
H2003 H 0.46072 0.81902 0.08899 0.0
H2004 H 0.42366 0.67742 0.14081 0.0
H2005 H 0.39427 0.73936 0.17248 0.0
H2006 H 0.41382 0.70661 0.11877 0.0
H2007 H 0.40455 0.70953 0.19364 0.0
H2008 H 0.39126 0.83957 0.13783 0.0
H2009 H 0.36963 0.79728 0.18383 0.0
H2010 H 0.48296 0.72642 0.07908 0.0
H2011 H 0.48228 0.73867 0.14409 0.0
H2012 H 0.3253 0.75845 0.10351 0.0
H2013 H 0.37901 0.79119 0.08396 0.0
H2014 H 0.30414 0.78828 0.09324 0.0
H2015 H 0.35697 0.82039 0.07412 0.0
H2016 H 0.36178 0.72402 0.07506 0.0
H2017 H 0.42262 0.70104 0.06458 0.0
H2018 H 0.34905 0.70139 0.04744 0.0
H2019 H 0.40879 0.67879 0.03706 0.0
H2020 H 0.4187 0.77139 0.01483 0.0
H2021 H 0.35369 0.75913 0.01551 0.0
H2022 H 0.31395 0.70052 0.12815 0.0
H2023 H 0.35995 0.65823 0.10652 0.0
Li2024 Li 0.58251 0.25478 0.10745 0.0
Li2025 Li 0.60914 0.23141 0.11735 0.0
Li2026 Li 0.61736 0.26639 0.10913 0.0
Li2027 Li 0.60746 0.24302 0.0825 0.0
C2028 C 0.59456 0.27274 0.14409 0.0
N2029 N 0.58327 0.30562 0.16815 0.0
C2030 C 0.59713 0.27192 0.1653 0.0
C2031 C 0.5862 0.29027 0.13512 0.0
C2032 C 0.59133 0.2887 0.1772 0.0
C2033 C 0.58061 0.30673 0.14755 0.0
C2034 C 0.57178 0.21411 0.10463 0.0
C2035 C 0.54554 0.18877 0.09911 0.0
N2036 N 0.54107 0.18911 0.11943 0.0
C2037 C 0.56692 0.21421 0.12546 0.0
C2038 C 0.56102 0.2013 0.09134 0.0
C2039 C 0.55136 0.20146 0.13265 0.0
C2040 C 0.54405 0.26595 0.09293 0.0
N2041 N 0.55431 0.2612 0.11035 0.0
C2042 C 0.52323 0.2613 0.12958 0.0
C2043 C 0.54447 0.25922 0.12858 0.0
C2044 C 0.51213 0.26561 0.11169 0.0
C2045 C 0.52284 0.26838 0.09327 0.0
H2046 H 0.55228 0.26711 0.07862 0.0
H2047 H 0.553 0.25529 0.1422 0.0
C2048 C 0.62205 0.21279 0.15397 0.0
N2049 N 0.61507 0.20885 0.13479 0.0
C2050 C 0.62347 0.19701 0.16833 0.0
C2051 C 0.61121 0.17339 0.14263 0.0
C2052 C 0.61027 0.18954 0.12873 0.0
C2053 C 0.61739 0.17716 0.16285 0.0
H2054 H 0.62567 0.22832 0.15836 0.0
H2055 H 0.60474 0.1868 0.11339 0.0
C2056 C 0.60464 0.28369 0.07177 0.0
N2057 N 0.61944 0.30869 0.04106 0.0
C2058 C 0.62547 0.28359 0.06691 0.0
C2059 C 0.59134 0.2965 0.06101 0.0
C2060 C 0.63266 0.29634 0.05135 0.0
C2061 C 0.59912 0.30903 0.04553 0.0
C2062 C 0.6441 0.22506 0.09455 0.0
C2063 C 0.66531 0.22588 0.09712 0.0
C2064 C 0.63514 0.20753 0.08619 0.0
C2065 C 0.67721 0.2091 0.09132 0.0
C2066 C 0.64756 0.19107 0.0806 0.0
N2067 N 0.66817 0.19218 0.08326 0.0
C2068 C 0.65398 0.28502 0.12204 0.0
C2069 C 0.62874 0.30827 0.11026 0.0
C2070 C 0.66834 0.30079 0.12346 0.0
N2071 N 0.6348 0.28895 0.11505 0.0
C2072 C 0.64264 0.32441 0.1112 0.0
C2073 C 0.66285 0.32065 0.11738 0.0
H2074 H 0.65837 0.26948 0.12566 0.0
H2075 H 0.6134 0.311 0.10473 0.0
C2076 C 0.59294 0.23184 0.04404 0.0
N2077 N 0.61036 0.2366 0.0543 0.0
C2078 C 0.59328 0.22942 0.02284 0.0
C2079 C 0.62959 0.2365 0.02322 0.0
C2080 C 0.62859 0.23858 0.04446 0.0
C2081 C 0.6117 0.23219 0.01213 0.0
H2082 H 0.57863 0.23069 0.05227 0.0
H2083 H 0.64221 0.24251 0.05299 0.0
O2084 O 0.60019 0.25636 0.13233 0.0
O2085 O 0.58687 0.22654 0.09714 0.0
O2086 O 0.59715 0.27126 0.08686 0.0
O2087 O 0.63234 0.24144 0.10018 0.0
H2088 H 0.60352 0.25844 0.17248 0.0
H2089 H 0.58397 0.29119 0.11877 0.0
H2090 H 0.59325 0.28828 0.19363 0.0
H2091 H 0.57413 0.32039 0.14081 0.0
H2092 H 0.53707 0.17878 0.08899 0.0
H2093 H 0.57507 0.22401 0.136 0.0
H2094 H 0.56459 0.20104 0.07517 0.0
H2095 H 0.54746 0.20138 0.14873 0.0
H2096 H 0.51552 0.25913 0.14409 0.0
H2097 H 0.51483 0.27139 0.07908 0.0
H2098 H 0.62816 0.20052 0.18383 0.0
H2099 H 0.60653 0.15823 0.13783 0.0
H2100 H 0.63601 0.27378 0.07506 0.0
H2101 H 0.57518 0.29676 0.06458 0.0
H2102 H 0.64874 0.29641 0.04744 0.0
H2103 H 0.589 0.31902 0.03706 0.0
H2104 H 0.6725 0.23936 0.10351 0.0
H2105 H 0.61878 0.20661 0.08396 0.0
H2106 H 0.69365 0.20952 0.09323 0.0
H2107 H 0.64082 0.17741 0.07412 0.0
H2108 H 0.68384 0.29728 0.12815 0.0
H2109 H 0.63784 0.33957 0.10652 0.0
H2110 H 0.57909 0.22641 0.01482 0.0
H2111 H 0.6441 0.23867 0.01551 0.0
Li2112 Li 0.89271 0.73129 0.61416 0.0
Li2113 Li 0.88363 0.76651 0.60507 0.0
Li2114 Li 0.89467 0.74214 0.57852 0.0
Li2115 Li 0.91927 0.75565 0.60311 0.0
C2116 C 0.85763 0.72452 0.59117 0.0
N2117 N 0.83301 0.69173 0.58095 0.0
C2118 C 0.83637 0.72625 0.5925 0.0
C2119 C 0.86638 0.70613 0.58467 0.0
C2120 C 0.82417 0.70949 0.58726 0.0
C2121 C 0.85367 0.68973 0.57956 0.0
C2122 C 0.90661 0.77328 0.64015 0.0
C2123 C 0.91823 0.80807 0.64411 0.0
N2124 N 0.91683 0.80607 0.66478 0.0
C2125 C 0.90528 0.77155 0.66141 0.0
C2126 C 0.91311 0.79167 0.6314 0.0
C2127 C 0.91052 0.78831 0.67361 0.0
C2128 C 0.90301 0.6961 0.63583 0.0
N2129 N 0.88752 0.7095 0.63243 0.0
C2130 C 0.86653 0.69268 0.6572 0.0
C2131 C 0.86945 0.7081 0.64265 0.0
C2132 C 0.8823 0.67858 0.66096 0.0
C2133 C 0.90065 0.6803 0.64993 0.0
H2134 H 0.91741 0.69799 0.62793 0.0
H2135 H 0.8575 0.71919 0.63978 0.0
C2136 C 0.86196 0.8017 0.59477 0.0
N2137 N 0.86536 0.7883 0.61027 0.0
C2138 C 0.84785 0.8175 0.59714 0.0
C2139 C 0.84059 0.80512 0.63125 0.0
C2140 C 0.85514 0.7897 0.62833 0.0
C2141 C 0.83682 0.81923 0.61548 0.0
H2142 H 0.86985 0.79981 0.58037 0.0
H2143 H 0.858 0.77862 0.64028 0.0
C2144 C 0.92899 0.71512 0.58406 0.0
N2145 N 0.95674 0.69134 0.56274 0.0
C2146 C 0.94504 0.7243 0.57331 0.0
C2147 C 0.92718 0.69379 0.58408 0.0
C2148 C 0.95888 0.71203 0.5626 0.0
C2149 C 0.94132 0.68205 0.57316 0.0
C2150 C 0.91372 0.78268 0.56879 0.0
C2151 C 0.92447 0.7735 0.55274 0.0
C2152 C 0.9137 0.80401 0.57061 0.0
C2153 C 0.93518 0.78576 0.5389 0.0
C2154 C 0.92462 0.81574 0.55647 0.0
N2155 N 0.93505 0.80646 0.54105 0.0
C2156 C 0.87854 0.74954 0.54019 0.0
C2157 C 0.89878 0.71946 0.54065 0.0
C2158 C 0.87628 0.74816 0.51902 0.0
N2159 N 0.89003 0.73559 0.55046 0.0
C2160 C 0.89705 0.71757 0.51943 0.0
C2161 C 0.88603 0.73229 0.50833 0.0
H2162 H 0.87185 0.76226 0.54841 0.0
H2163 H 0.9076 0.70838 0.54906 0.0
C2164 C 0.95759 0.74825 0.61924 0.0
N2165 N 0.94732 0.76221 0.60776 0.0
C2166 C 0.97877 0.74964 0.62151 0.0
C2167 C 0.97835 0.78023 0.60073 0.0
C2168 C 0.95714 0.77834 0.59901 0.0
C2169 C 0.98946 0.7655 0.61175 0.0
H2170 H 0.94938 0.73554 0.62593 0.0
H2171 H 0.94872 0.78942 0.59018 0.0
O2172 O 0.86973 0.74076 0.59643 0.0
O2173 O 0.90135 0.75704 0.62805 0.0
O2174 O 0.91531 0.72681 0.59482 0.0
O2175 O 0.90296 0.77099 0.58247 0.0
H2176 H 0.82938 0.74038 0.59757 0.0
H2177 H 0.88278 0.70452 0.58359 0.0
H2178 H 0.80769 0.7106 0.58823 0.0
H2179 H 0.86024 0.67541 0.5745 0.0
H2180 H 0.92329 0.82239 0.63754 0.0
H2181 H 0.90021 0.75742 0.6684 0.0
H2182 H 0.91419 0.79328 0.61501 0.0
H2183 H 0.90955 0.7872 0.69009 0.0
H2184 H 0.85221 0.69184 0.66549 0.0
H2185 H 0.91332 0.66999 0.65274 0.0
H2186 H 0.84505 0.82781 0.58447 0.0
H2187 H 0.83229 0.80596 0.64557 0.0
H2188 H 0.94694 0.7407 0.57329 0.0
H2189 H 0.91487 0.68635 0.59227 0.0
H2190 H 0.97135 0.71897 0.55422 0.0
H2191 H 0.94002 0.66556 0.57297 0.0
H2192 H 0.9245 0.7571 0.55085 0.0
H2193 H 0.90551 0.81145 0.58291 0.0
H2194 H 0.94356 0.77883 0.52643 0.0
H2195 H 0.92481 0.83224 0.55777 0.0
H2196 H 0.86784 0.75996 0.51101 0.0
H2197 H 0.90461 0.70499 0.51174 0.0
H2198 H 0.98678 0.73784 0.62995 0.0
H2199 H 0.98604 0.79281 0.59317 0.0
Li2200 Li 0.26651 0.89271 0.61416 0.0
Li2201 Li 0.23129 0.88363 0.60507 0.0
Li2202 Li 0.25565 0.89468 0.57852 0.0
Li2203 Li 0.24214 0.91927 0.60311 0.0
C2204 C 0.27327 0.85764 0.59117 0.0
N2205 N 0.30606 0.833 0.58096 0.0
C2206 C 0.27155 0.83637 0.59252 0.0
C2207 C 0.29166 0.86638 0.58467 0.0
C2208 C 0.28831 0.82417 0.58728 0.0
C2209 C 0.30806 0.85367 0.57956 0.0
C2210 C 0.22452 0.90662 0.64015 0.0
C2211 C 0.18973 0.91823 0.64411 0.0
N2212 N 0.19173 0.91684 0.66477 0.0
C2213 C 0.22624 0.9053 0.66141 0.0
C2214 C 0.20613 0.91311 0.6314 0.0
C2215 C 0.20949 0.91054 0.67361 0.0
C2216 C 0.3017 0.90302 0.63583 0.0
N2217 N 0.28829 0.88752 0.63243 0.0
C2218 C 0.30512 0.86653 0.6572 0.0
C2219 C 0.2897 0.86945 0.64265 0.0
C2220 C 0.31922 0.8823 0.66096 0.0
C2221 C 0.3175 0.90065 0.64993 0.0
H2222 H 0.29981 0.91742 0.62793 0.0
H2223 H 0.27861 0.8575 0.63978 0.0
C2224 C 0.19609 0.86197 0.59477 0.0
N2225 N 0.2095 0.86536 0.61027 0.0
C2226 C 0.1803 0.84786 0.59714 0.0
C2227 C 0.19267 0.84059 0.63125 0.0
C2228 C 0.20809 0.85514 0.62833 0.0
C2229 C 0.17857 0.83683 0.61548 0.0
H2230 H 0.19799 0.86986 0.58037 0.0
H2231 H 0.21918 0.85801 0.64028 0.0
C2232 C 0.28268 0.92899 0.58407 0.0
N2233 N 0.30647 0.95674 0.56275 0.0
C2234 C 0.27351 0.94505 0.57332 0.0
C2235 C 0.30401 0.92717 0.58408 0.0
C2236 C 0.28578 0.95888 0.56261 0.0
C2237 C 0.31575 0.94131 0.57317 0.0
C2238 C 0.21512 0.91373 0.56879 0.0
C2239 C 0.22431 0.92448 0.55274 0.0
C2240 C 0.19379 0.91371 0.5706 0.0
C2241 C 0.21205 0.93519 0.53891 0.0
C2242 C 0.18206 0.92463 0.55646 0.0
N2243 N 0.19136 0.93506 0.54104 0.0
C2244 C 0.24825 0.87855 0.54019 0.0
C2245 C 0.27834 0.89878 0.54065 0.0
C2246 C 0.24963 0.87628 0.51902 0.0
N2247 N 0.26221 0.89003 0.55046 0.0
C2248 C 0.28022 0.89706 0.51943 0.0
C2249 C 0.2655 0.88604 0.50833 0.0
H2250 H 0.23554 0.87185 0.54841 0.0
H2251 H 0.28941 0.90761 0.54906 0.0
C2252 C 0.24954 0.9576 0.61924 0.0
N2253 N 0.23559 0.94733 0.60776 0.0
C2254 C 0.24816 0.97877 0.62151 0.0
C2255 C 0.21757 0.97836 0.60073 0.0
C2256 C 0.21946 0.95714 0.59901 0.0
C2257 C 0.23229 0.98946 0.61175 0.0
H2258 H 0.26226 0.94938 0.62593 0.0
H2259 H 0.20838 0.94873 0.59019 0.0
O2260 O 0.25704 0.86974 0.59643 0.0
O2261 O 0.24076 0.90136 0.62805 0.0
O2262 O 0.27099 0.91532 0.59483 0.0
O2263 O 0.22681 0.90297 0.58247 0.0
H2264 H 0.25741 0.82939 0.59759 0.0
H2265 H 0.29327 0.88278 0.58358 0.0
H2266 H 0.2872 0.80769 0.58826 0.0
H2267 H 0.32238 0.86024 0.57449 0.0
H2268 H 0.17541 0.92329 0.63753 0.0
H2269 H 0.24038 0.90023 0.6684 0.0
H2270 H 0.20452 0.91419 0.615 0.0
H2271 H 0.21059 0.90957 0.69009 0.0
H2272 H 0.30596 0.85221 0.66549 0.0
H2273 H 0.32781 0.91332 0.65274 0.0
H2274 H 0.16998 0.84505 0.58447 0.0
H2275 H 0.19184 0.8323 0.64557 0.0
H2276 H 0.25711 0.94695 0.57329 0.0
H2277 H 0.31145 0.91486 0.59227 0.0
H2278 H 0.27885 0.97136 0.55423 0.0
H2279 H 0.33225 0.94 0.57298 0.0
H2280 H 0.24071 0.92451 0.55086 0.0
H2281 H 0.18635 0.90552 0.5829 0.0
H2282 H 0.21899 0.94358 0.52644 0.0
H2283 H 0.16557 0.92483 0.55775 0.0
H2284 H 0.23784 0.86784 0.51101 0.0
H2285 H 0.2928 0.90462 0.51174 0.0
H2286 H 0.25996 0.98678 0.62995 0.0
H2287 H 0.20499 0.98605 0.59317 0.0
Li2288 Li 0.11416 0.23129 0.60507 0.0
Li2289 Li 0.10508 0.26651 0.61416 0.0
Li2290 Li 0.07853 0.24215 0.60311 0.0
Li2291 Li 0.10312 0.25566 0.57852 0.0
C2292 C 0.09118 0.22452 0.64015 0.0
N2293 N 0.08096 0.19173 0.66477 0.0
C2294 C 0.0925 0.22625 0.66141 0.0
C2295 C 0.08468 0.20614 0.6314 0.0
C2296 C 0.08727 0.20949 0.67361 0.0
C2297 C 0.07957 0.18973 0.64411 0.0
C2298 C 0.14016 0.27328 0.59117 0.0
C2299 C 0.14412 0.30807 0.57956 0.0
N2300 N 0.16479 0.30607 0.58096 0.0
C2301 C 0.16142 0.27156 0.59251 0.0
C2302 C 0.13142 0.29167 0.58467 0.0
C2303 C 0.17362 0.28831 0.58728 0.0
C2304 C 0.13583 0.1961 0.59477 0.0
N2305 N 0.13243 0.20951 0.61027 0.0
C2306 C 0.15721 0.19268 0.63125 0.0
C2307 C 0.14266 0.2081 0.62833 0.0
C2308 C 0.16097 0.17858 0.61548 0.0
C2309 C 0.14994 0.1803 0.59714 0.0
H2310 H 0.12793 0.19799 0.58037 0.0
H2311 H 0.13979 0.21919 0.64028 0.0
C2312 C 0.09478 0.30171 0.63583 0.0
N2313 N 0.11028 0.2883 0.63243 0.0
C2314 C 0.09715 0.3175 0.64994 0.0
C2315 C 0.13126 0.30513 0.6572 0.0
C2316 C 0.12834 0.28971 0.64265 0.0
C2317 C 0.11549 0.31923 0.66096 0.0
H2318 H 0.08038 0.29981 0.62793 0.0
H2319 H 0.14029 0.27862 0.63978 0.0
C2320 C 0.08407 0.21513 0.56879 0.0
N2321 N 0.06274 0.19136 0.54104 0.0
C2322 C 0.07332 0.22431 0.55274 0.0
C2323 C 0.08408 0.1938 0.5706 0.0
C2324 C 0.06261 0.21205 0.53891 0.0
C2325 C 0.07317 0.18207 0.55646 0.0
C2326 C 0.0688 0.28269 0.58407 0.0
C2327 C 0.05275 0.27351 0.57332 0.0
C2328 C 0.07062 0.30402 0.58408 0.0
C2329 C 0.03891 0.28578 0.56261 0.0
C2330 C 0.05649 0.31576 0.57317 0.0
N2331 N 0.04106 0.30648 0.56274 0.0
C2332 C 0.0402 0.24955 0.61924 0.0
C2333 C 0.04065 0.21946 0.59901 0.0
C2334 C 0.01903 0.24817 0.62151 0.0
N2335 N 0.05047 0.23559 0.60776 0.0
C2336 C 0.01944 0.21758 0.60073 0.0
C2337 C 0.00833 0.2323 0.61175 0.0
H2338 H 0.04841 0.26227 0.62593 0.0
H2339 H 0.04907 0.20838 0.59019 0.0
C2340 C 0.11925 0.24826 0.54019 0.0
N2341 N 0.10776 0.26222 0.55046 0.0
C2342 C 0.12152 0.24964 0.51902 0.0
C2343 C 0.10074 0.28023 0.51943 0.0
C2344 C 0.09901 0.27835 0.54065 0.0
C2345 C 0.11176 0.26551 0.50833 0.0
H2346 H 0.12594 0.23554 0.54841 0.0
H2347 H 0.09019 0.28942 0.54906 0.0
O2348 O 0.09644 0.24076 0.62805 0.0
O2349 O 0.12806 0.25704 0.59643 0.0
O2350 O 0.09483 0.22681 0.58247 0.0
O2351 O 0.08248 0.27099 0.59483 0.0
H2352 H 0.09757 0.24039 0.6684 0.0
H2353 H 0.0836 0.20452 0.615 0.0
H2354 H 0.08823 0.2106 0.69009 0.0
H2355 H 0.07451 0.17541 0.63753 0.0
H2356 H 0.13755 0.32239 0.57449 0.0
H2357 H 0.16841 0.25742 0.59759 0.0
H2358 H 0.11502 0.29328 0.58358 0.0
H2359 H 0.1901 0.28721 0.58825 0.0
H2360 H 0.1655 0.19185 0.64557 0.0
H2361 H 0.15274 0.16999 0.58447 0.0
H2362 H 0.08448 0.32782 0.65274 0.0
H2363 H 0.14558 0.30596 0.66549 0.0
H2364 H 0.07329 0.24071 0.55085 0.0
H2365 H 0.09228 0.18635 0.5829 0.0
H2366 H 0.05422 0.21899 0.52644 0.0
H2367 H 0.07297 0.16557 0.55775 0.0
H2368 H 0.05085 0.25712 0.57329 0.0
H2369 H 0.08293 0.31145 0.59228 0.0
H2370 H 0.02644 0.27885 0.55423 0.0
H2371 H 0.05779 0.33226 0.57298 0.0
H2372 H 0.01102 0.25997 0.62995 0.0
H2373 H 0.01175 0.205 0.59317 0.0
H2374 H 0.12996 0.23784 0.51101 0.0
H2375 H 0.09317 0.29281 0.51174 0.0
Li2376 Li 0.76651 0.11417 0.60507 0.0
Li2377 Li 0.73128 0.10509 0.61416 0.0
Li2378 Li 0.75565 0.07853 0.60311 0.0
Li2379 Li 0.74214 0.10313 0.57852 0.0
C2380 C 0.77327 0.09118 0.64015 0.0
N2381 N 0.80606 0.08096 0.66477 0.0
C2382 C 0.77155 0.09251 0.66141 0.0
C2383 C 0.79166 0.08469 0.6314 0.0
C2384 C 0.78831 0.08727 0.67361 0.0
C2385 C 0.80806 0.07957 0.64411 0.0
C2386 C 0.72452 0.14017 0.59117 0.0
C2387 C 0.68973 0.14413 0.57956 0.0
N2388 N 0.69173 0.1648 0.58096 0.0
C2389 C 0.72624 0.16143 0.59251 0.0
C2390 C 0.70613 0.13142 0.58467 0.0
C2391 C 0.70949 0.17363 0.58727 0.0
C2392 C 0.8017 0.13584 0.59477 0.0
N2393 N 0.78829 0.13244 0.61027 0.0
C2394 C 0.80512 0.15721 0.63125 0.0
C2395 C 0.7897 0.14266 0.62833 0.0
C2396 C 0.81922 0.16097 0.61548 0.0
C2397 C 0.8175 0.14995 0.59714 0.0
H2398 H 0.7998 0.12794 0.58037 0.0
H2399 H 0.77861 0.1398 0.64028 0.0
C2400 C 0.69609 0.09479 0.63583 0.0
N2401 N 0.7095 0.11028 0.63243 0.0
C2402 C 0.68029 0.09715 0.64993 0.0
C2403 C 0.69267 0.13127 0.6572 0.0
C2404 C 0.70809 0.12835 0.64265 0.0
C2405 C 0.67857 0.1155 0.66096 0.0
H2406 H 0.69798 0.08039 0.62793 0.0
H2407 H 0.71918 0.1403 0.63978 0.0
C2408 C 0.78267 0.08407 0.56879 0.0
N2409 N 0.80644 0.06274 0.54104 0.0
C2410 C 0.77349 0.07333 0.55274 0.0
C2411 C 0.804 0.08409 0.5706 0.0
C2412 C 0.78575 0.06261 0.5389 0.0
C2413 C 0.81573 0.07317 0.55646 0.0
C2414 C 0.71511 0.06881 0.58406 0.0
C2415 C 0.72429 0.05275 0.57332 0.0
C2416 C 0.69378 0.07063 0.58408 0.0
C2417 C 0.71202 0.03892 0.56261 0.0
C2418 C 0.68204 0.05649 0.57317 0.0
N2419 N 0.69133 0.04107 0.56274 0.0
C2420 C 0.74825 0.04021 0.61924 0.0
C2421 C 0.77833 0.04066 0.59901 0.0
C2422 C 0.74963 0.01903 0.62151 0.0
N2423 N 0.7622 0.05048 0.60776 0.0
C2424 C 0.78022 0.01945 0.60073 0.0
C2425 C 0.7655 0.00834 0.61175 0.0
H2426 H 0.73553 0.04842 0.62593 0.0
H2427 H 0.78941 0.04908 0.59018 0.0
C2428 C 0.74954 0.11926 0.54019 0.0
N2429 N 0.73558 0.10777 0.55046 0.0
C2430 C 0.74816 0.12152 0.51902 0.0
C2431 C 0.71757 0.10075 0.51943 0.0
C2432 C 0.71945 0.09902 0.54065 0.0
C2433 C 0.73229 0.11177 0.50833 0.0
H2434 H 0.76226 0.12595 0.54841 0.0
H2435 H 0.70837 0.0902 0.54906 0.0
O2436 O 0.75703 0.09645 0.62805 0.0
O2437 O 0.74076 0.12807 0.59643 0.0
O2438 O 0.77098 0.09484 0.58247 0.0
O2439 O 0.7268 0.08248 0.59482 0.0
H2440 H 0.75741 0.09758 0.6684 0.0
H2441 H 0.79327 0.08361 0.615 0.0
H2442 H 0.7872 0.08824 0.69009 0.0
H2443 H 0.82238 0.07451 0.63753 0.0
H2444 H 0.67541 0.13756 0.57449 0.0
H2445 H 0.74038 0.16842 0.59758 0.0
H2446 H 0.70452 0.11503 0.58359 0.0
H2447 H 0.71059 0.19011 0.58824 0.0
H2448 H 0.80595 0.16551 0.64557 0.0
H2449 H 0.82781 0.15275 0.58447 0.0
H2450 H 0.66998 0.08448 0.65274 0.0
H2451 H 0.69184 0.14559 0.66549 0.0
H2452 H 0.75709 0.0733 0.55085 0.0
H2453 H 0.81144 0.09228 0.5829 0.0
H2454 H 0.77881 0.05423 0.52644 0.0
H2455 H 0.83223 0.07298 0.55776 0.0
H2456 H 0.74068 0.05086 0.57329 0.0
H2457 H 0.68634 0.08293 0.59227 0.0
H2458 H 0.71895 0.02645 0.55423 0.0
H2459 H 0.66555 0.05779 0.57298 0.0
H2460 H 0.73783 0.01102 0.62995 0.0
H2461 H 0.7928 0.01176 0.59317 0.0
H2462 H 0.75995 0.12996 0.51101 0.0
H2463 H 0.70499 0.09318 0.51174 0.0
Li2464 Li 0.91927 0.24215 0.39467 0.0
Li2465 Li 0.89467 0.25566 0.41926 0.0
Li2466 Li 0.88363 0.23129 0.3927 0.0
Li2467 Li 0.89271 0.26651 0.38362 0.0
C2468 C 0.91372 0.21512 0.42898 0.0
N2469 N 0.93504 0.19134 0.45673 0.0
C2470 C 0.92446 0.2243 0.44504 0.0
C2471 C 0.9137 0.19379 0.42717 0.0
C2472 C 0.93517 0.21203 0.45887 0.0
C2473 C 0.92462 0.18205 0.4413 0.0
C2474 C 0.92899 0.28268 0.41372 0.0
C2475 C 0.94132 0.31574 0.42462 0.0
N2476 N 0.95674 0.30645 0.43505 0.0
C2477 C 0.94504 0.2735 0.42447 0.0
C2478 C 0.92718 0.30401 0.4137 0.0
C2479 C 0.95888 0.28576 0.43518 0.0
C2480 C 0.95759 0.24955 0.37854 0.0
N2481 N 0.94732 0.23559 0.39002 0.0
C2482 C 0.97835 0.21758 0.39705 0.0
C2483 C 0.95714 0.21946 0.39877 0.0
C2484 C 0.98946 0.2323 0.38603 0.0
C2485 C 0.97877 0.24817 0.37627 0.0
H2486 H 0.94938 0.26227 0.37185 0.0
H2487 H 0.94872 0.20838 0.4076 0.0
C2488 C 0.87854 0.24826 0.45759 0.0
N2489 N 0.89003 0.26222 0.44732 0.0
C2490 C 0.87628 0.24964 0.47876 0.0
C2491 C 0.89705 0.28023 0.47834 0.0
C2492 C 0.89877 0.27835 0.45713 0.0
C2493 C 0.88603 0.26551 0.48945 0.0
H2494 H 0.87185 0.23554 0.44937 0.0
H2495 H 0.9076 0.28942 0.44871 0.0
C2496 C 0.90661 0.22453 0.35763 0.0
N2497 N 0.91683 0.19174 0.333 0.0
C2498 C 0.90528 0.22625 0.33637 0.0
C2499 C 0.91311 0.20614 0.36637 0.0
C2500 C 0.91051 0.20949 0.32417 0.0
C2501 C 0.91822 0.18974 0.35367 0.0
C2502 C 0.85763 0.27328 0.40661 0.0
C2503 C 0.83637 0.27156 0.40528 0.0
C2504 C 0.86638 0.29167 0.4131 0.0
C2505 C 0.82418 0.28831 0.41052 0.0
C2506 C 0.85368 0.30807 0.41822 0.0
N2507 N 0.83301 0.30607 0.41683 0.0
C2508 C 0.86196 0.1961 0.40301 0.0
C2509 C 0.85514 0.2081 0.36945 0.0
C2510 C 0.84785 0.1803 0.40064 0.0
N2511 N 0.86536 0.20951 0.38751 0.0
C2512 C 0.84059 0.19268 0.36652 0.0
C2513 C 0.83682 0.17858 0.3823 0.0
H2514 H 0.86985 0.19799 0.41741 0.0
H2515 H 0.858 0.21919 0.3575 0.0
C2516 C 0.90301 0.30171 0.36195 0.0
N2517 N 0.88752 0.2883 0.36535 0.0
C2518 C 0.90065 0.3175 0.34785 0.0
C2519 C 0.86653 0.30512 0.34058 0.0
C2520 C 0.86945 0.28971 0.35513 0.0
C2521 C 0.8823 0.31923 0.33682 0.0
H2522 H 0.91741 0.29982 0.36985 0.0
H2523 H 0.8575 0.27862 0.358 0.0
O2524 O 0.90296 0.22681 0.41531 0.0
O2525 O 0.91531 0.27099 0.40295 0.0
O2526 O 0.90135 0.24076 0.36973 0.0
O2527 O 0.86973 0.25704 0.40135 0.0
H2528 H 0.92449 0.2407 0.44694 0.0
H2529 H 0.90551 0.18635 0.41486 0.0
H2530 H 0.94356 0.21896 0.47135 0.0
H2531 H 0.92481 0.16556 0.44 0.0
H2532 H 0.94003 0.33224 0.42481 0.0
H2533 H 0.94693 0.2571 0.4245 0.0
H2534 H 0.91488 0.31145 0.40551 0.0
H2535 H 0.97135 0.27882 0.44356 0.0
H2536 H 0.98604 0.205 0.40461 0.0
H2537 H 0.98677 0.25996 0.36783 0.0
H2538 H 0.86784 0.23784 0.48677 0.0
H2539 H 0.90461 0.29281 0.48603 0.0
H2540 H 0.9002 0.24039 0.32938 0.0
H2541 H 0.91419 0.20453 0.38277 0.0
H2542 H 0.90954 0.2106 0.30768 0.0
H2543 H 0.92329 0.17542 0.36024 0.0
H2544 H 0.82938 0.25742 0.40022 0.0
H2545 H 0.88278 0.29328 0.41418 0.0
H2546 H 0.80769 0.28721 0.40956 0.0
H2547 H 0.86025 0.32239 0.42328 0.0
H2548 H 0.84504 0.16999 0.41331 0.0
H2549 H 0.83229 0.19184 0.3522 0.0
H2550 H 0.91331 0.32782 0.34504 0.0
H2551 H 0.85221 0.30596 0.33229 0.0
Li2552 Li 0.75565 0.91927 0.39467 0.0
Li2553 Li 0.74214 0.89467 0.41926 0.0
Li2554 Li 0.76651 0.88363 0.3927 0.0
Li2555 Li 0.73128 0.89271 0.38362 0.0
C2556 C 0.78267 0.91373 0.42898 0.0
N2557 N 0.80645 0.93505 0.45673 0.0
C2558 C 0.77349 0.92447 0.44504 0.0
C2559 C 0.804 0.91371 0.42717 0.0
C2560 C 0.78576 0.93518 0.45887 0.0
C2561 C 0.81574 0.92463 0.44131 0.0
C2562 C 0.71511 0.92899 0.41372 0.0
C2563 C 0.68205 0.94132 0.42462 0.0
N2564 N 0.69134 0.95674 0.43504 0.0
C2565 C 0.7243 0.94505 0.42446 0.0
C2566 C 0.69379 0.92718 0.4137 0.0
C2567 C 0.71203 0.95888 0.43517 0.0
C2568 C 0.74825 0.9576 0.37854 0.0
N2569 N 0.76221 0.94733 0.39002 0.0
C2570 C 0.78022 0.97836 0.39705 0.0
C2571 C 0.77833 0.95714 0.39877 0.0
C2572 C 0.7655 0.98946 0.38603 0.0
C2573 C 0.74963 0.97877 0.37627 0.0
H2574 H 0.73553 0.94938 0.37185 0.0
H2575 H 0.78941 0.94873 0.4076 0.0
C2576 C 0.74954 0.87855 0.45759 0.0
N2577 N 0.73558 0.89003 0.44732 0.0
C2578 C 0.74816 0.87628 0.47876 0.0
C2579 C 0.71757 0.89705 0.47834 0.0
C2580 C 0.71945 0.89878 0.45713 0.0
C2581 C 0.73229 0.88604 0.48945 0.0
H2582 H 0.76226 0.87186 0.44937 0.0
H2583 H 0.70837 0.9076 0.44872 0.0
C2584 C 0.77327 0.90662 0.35763 0.0
N2585 N 0.80606 0.91684 0.333 0.0
C2586 C 0.77155 0.90529 0.33637 0.0
C2587 C 0.79166 0.91312 0.36637 0.0
C2588 C 0.78831 0.91052 0.32417 0.0
C2589 C 0.80806 0.91823 0.35367 0.0
C2590 C 0.72452 0.85764 0.40661 0.0
C2591 C 0.72624 0.83637 0.40528 0.0
C2592 C 0.70613 0.86638 0.4131 0.0
C2593 C 0.70949 0.82418 0.41051 0.0
C2594 C 0.68973 0.85367 0.41822 0.0
N2595 N 0.69173 0.83301 0.41683 0.0
C2596 C 0.8017 0.86196 0.40301 0.0
C2597 C 0.7897 0.85514 0.36945 0.0
C2598 C 0.8175 0.84786 0.40064 0.0
N2599 N 0.78829 0.86536 0.38751 0.0
C2600 C 0.80512 0.84059 0.36653 0.0
C2601 C 0.81922 0.83683 0.3823 0.0
H2602 H 0.79981 0.86986 0.41741 0.0
H2603 H 0.77861 0.85801 0.3575 0.0
C2604 C 0.69609 0.90301 0.36195 0.0
N2605 N 0.7095 0.88752 0.36535 0.0
C2606 C 0.68029 0.90065 0.34785 0.0
C2607 C 0.69267 0.86653 0.34058 0.0
C2608 C 0.70809 0.86945 0.35513 0.0
C2609 C 0.67857 0.8823 0.33682 0.0
H2610 H 0.69798 0.91741 0.36985 0.0
H2611 H 0.71918 0.8575 0.358 0.0
O2612 O 0.77098 0.90296 0.41531 0.0
O2613 O 0.72681 0.91532 0.40295 0.0
O2614 O 0.75703 0.90135 0.36973 0.0
O2615 O 0.74076 0.86974 0.40135 0.0
H2616 H 0.7571 0.9245 0.44693 0.0
H2617 H 0.81144 0.90552 0.41487 0.0
H2618 H 0.77882 0.94357 0.47134 0.0
H2619 H 0.83224 0.92482 0.44001 0.0
H2620 H 0.66555 0.94002 0.42481 0.0
H2621 H 0.74069 0.94694 0.42449 0.0
H2622 H 0.68635 0.91488 0.40551 0.0
H2623 H 0.71897 0.97135 0.44356 0.0
H2624 H 0.7928 0.98605 0.40461 0.0
H2625 H 0.73783 0.98678 0.36783 0.0
H2626 H 0.75996 0.86784 0.48677 0.0
H2627 H 0.70499 0.90462 0.48603 0.0
H2628 H 0.75741 0.90022 0.32938 0.0
H2629 H 0.79327 0.9142 0.38277 0.0
H2630 H 0.7872 0.90956 0.30769 0.0
H2631 H 0.82238 0.92329 0.36024 0.0
H2632 H 0.74038 0.82939 0.40021 0.0
H2633 H 0.70452 0.88278 0.41418 0.0
H2634 H 0.71059 0.80769 0.40955 0.0
H2635 H 0.67541 0.86025 0.42328 0.0
H2636 H 0.82781 0.84505 0.41331 0.0
H2637 H 0.80596 0.8323 0.3522 0.0
H2638 H 0.66998 0.91332 0.34504 0.0
H2639 H 0.69184 0.85221 0.33229 0.0
Li2640 Li 0.07853 0.75565 0.39467 0.0
Li2641 Li 0.10312 0.74214 0.41926 0.0
Li2642 Li 0.11416 0.76651 0.3927 0.0
Li2643 Li 0.10508 0.73129 0.38362 0.0
C2644 C 0.08407 0.78268 0.42898 0.0
N2645 N 0.06274 0.80646 0.45673 0.0
C2646 C 0.07332 0.7735 0.44504 0.0
C2647 C 0.08409 0.80401 0.42717 0.0
C2648 C 0.06261 0.78576 0.45887 0.0
C2649 C 0.07317 0.81574 0.44131 0.0
C2650 C 0.0688 0.71512 0.41372 0.0
C2651 C 0.05648 0.68205 0.42461 0.0
N2652 N 0.04106 0.69134 0.43504 0.0
C2653 C 0.05275 0.7243 0.42446 0.0
C2654 C 0.07062 0.69379 0.4137 0.0
C2655 C 0.03891 0.71203 0.43517 0.0
C2656 C 0.0402 0.74825 0.37854 0.0
N2657 N 0.05047 0.76221 0.39002 0.0
C2658 C 0.01944 0.78022 0.39705 0.0
C2659 C 0.04065 0.77834 0.39877 0.0
C2660 C 0.00833 0.7655 0.38603 0.0
C2661 C 0.01903 0.74963 0.37627 0.0
H2662 H 0.04842 0.73553 0.37185 0.0
H2663 H 0.04907 0.78942 0.40759 0.0
C2664 C 0.11925 0.74954 0.45759 0.0
N2665 N 0.10777 0.73559 0.44731 0.0
C2666 C 0.12152 0.74816 0.47876 0.0
C2667 C 0.10074 0.71757 0.47834 0.0
C2668 C 0.09902 0.71946 0.45713 0.0
C2669 C 0.11176 0.73229 0.48945 0.0
H2670 H 0.12594 0.76226 0.44937 0.0
H2671 H 0.09019 0.70838 0.44871 0.0
C2672 C 0.09118 0.77328 0.35763 0.0
N2673 N 0.08096 0.80607 0.333 0.0
C2674 C 0.09251 0.77155 0.33637 0.0
C2675 C 0.08468 0.79167 0.36637 0.0
C2676 C 0.08727 0.78831 0.32417 0.0
C2677 C 0.07957 0.80807 0.35367 0.0
C2678 C 0.14016 0.72452 0.40661 0.0
C2679 C 0.16142 0.72625 0.40527 0.0
C2680 C 0.13141 0.70613 0.41311 0.0
C2681 C 0.17362 0.70949 0.41051 0.0
C2682 C 0.14412 0.68973 0.41822 0.0
N2683 N 0.16479 0.69173 0.41682 0.0
C2684 C 0.13583 0.8017 0.40301 0.0
C2685 C 0.14266 0.7897 0.36945 0.0
C2686 C 0.14994 0.8175 0.40064 0.0
N2687 N 0.13243 0.7883 0.38751 0.0
C2688 C 0.15721 0.80512 0.36652 0.0
C2689 C 0.16097 0.81923 0.38229 0.0
H2690 H 0.12794 0.79981 0.41741 0.0
H2691 H 0.13979 0.77861 0.3575 0.0
C2692 C 0.09478 0.69609 0.36195 0.0
N2693 N 0.11028 0.7095 0.36535 0.0
C2694 C 0.09715 0.6803 0.34784 0.0
C2695 C 0.13126 0.69268 0.34058 0.0
C2696 C 0.12834 0.7081 0.35513 0.0
C2697 C 0.11549 0.67857 0.33682 0.0
H2698 H 0.08038 0.69799 0.36985 0.0
H2699 H 0.14029 0.71919 0.358 0.0
O2700 O 0.09483 0.77099 0.41531 0.0
O2701 O 0.08248 0.72681 0.40295 0.0
O2702 O 0.09644 0.75704 0.36973 0.0
O2703 O 0.12806 0.74076 0.40134 0.0
H2704 H 0.0733 0.7571 0.44693 0.0
H2705 H 0.09228 0.81145 0.41487 0.0
H2706 H 0.05423 0.77883 0.47134 0.0
H2707 H 0.07298 0.83224 0.44001 0.0
H2708 H 0.05778 0.66555 0.42481 0.0
H2709 H 0.05086 0.7407 0.42449 0.0
H2710 H 0.08292 0.68635 0.40551 0.0
H2711 H 0.02644 0.71897 0.44356 0.0
H2712 H 0.01175 0.79281 0.40461 0.0
H2713 H 0.01102 0.73784 0.36783 0.0
H2714 H 0.12996 0.75996 0.48677 0.0
H2715 H 0.09318 0.70499 0.48603 0.0
H2716 H 0.09758 0.75742 0.32938 0.0
H2717 H 0.0836 0.79328 0.38277 0.0
H2718 H 0.08824 0.7872 0.30769 0.0
H2719 H 0.0745 0.82239 0.36024 0.0
H2720 H 0.16841 0.74038 0.4002 0.0
H2721 H 0.11502 0.70452 0.41419 0.0
H2722 H 0.1901 0.7106 0.40954 0.0
H2723 H 0.13755 0.67541 0.42328 0.0
H2724 H 0.15274 0.82781 0.41331 0.0
H2725 H 0.1655 0.80596 0.3522 0.0
H2726 H 0.08448 0.66999 0.34504 0.0
H2727 H 0.14558 0.69184 0.33229 0.0
Li2728 Li 0.25565 0.10313 0.41926 0.0
Li2729 Li 0.24214 0.07853 0.39466 0.0
Li2730 Li 0.26651 0.10509 0.38362 0.0
Li2731 Li 0.23129 0.11417 0.3927 0.0
C2732 C 0.28269 0.06881 0.41371 0.0
N2733 N 0.30649 0.04107 0.43502 0.0
C2734 C 0.27352 0.05275 0.42445 0.0
C2735 C 0.30402 0.07064 0.41369 0.0
C2736 C 0.2858 0.03892 0.43515 0.0
C2737 C 0.31576 0.05651 0.4246 0.0
C2738 C 0.21513 0.08407 0.42899 0.0
C2739 C 0.18207 0.07316 0.44133 0.0
N2740 N 0.19137 0.06273 0.45674 0.0
C2741 C 0.22432 0.07332 0.44503 0.0
C2742 C 0.1938 0.08408 0.42719 0.0
C2743 C 0.21207 0.0626 0.45887 0.0
C2744 C 0.24826 0.11926 0.45758 0.0
N2745 N 0.26221 0.10777 0.44731 0.0
C2746 C 0.28022 0.10074 0.47835 0.0
C2747 C 0.27834 0.09902 0.45713 0.0
C2748 C 0.2655 0.11176 0.48945 0.0
C2749 C 0.24964 0.12152 0.47876 0.0
H2750 H 0.23554 0.12595 0.44937 0.0
H2751 H 0.28941 0.09019 0.44872 0.0
C2752 C 0.24955 0.04021 0.37854 0.0
N2753 N 0.23559 0.05048 0.39002 0.0
C2754 C 0.24816 0.01903 0.37627 0.0
C2755 C 0.21757 0.01945 0.39704 0.0
C2756 C 0.21945 0.04066 0.39876 0.0
C2757 C 0.23229 0.00834 0.38603 0.0
H2758 H 0.26227 0.04842 0.37185 0.0
H2759 H 0.20838 0.04908 0.40759 0.0
C2760 C 0.27327 0.14017 0.4066 0.0
N2761 N 0.30606 0.1648 0.41681 0.0
C2762 C 0.27155 0.16143 0.40525 0.0
C2763 C 0.29166 0.13143 0.41311 0.0
C2764 C 0.2883 0.17363 0.41049 0.0
C2765 C 0.30806 0.14414 0.41822 0.0
C2766 C 0.22452 0.09118 0.35763 0.0
C2767 C 0.22624 0.09249 0.33637 0.0
C2768 C 0.20613 0.08469 0.36638 0.0
C2769 C 0.20949 0.08725 0.32417 0.0
C2770 C 0.18973 0.07957 0.35368 0.0
N2771 N 0.19173 0.08095 0.33301 0.0
C2772 C 0.3017 0.09479 0.36195 0.0
C2773 C 0.2897 0.12835 0.35513 0.0
C2774 C 0.3175 0.09715 0.34784 0.0
N2775 N 0.28829 0.11028 0.36535 0.0
C2776 C 0.30512 0.13127 0.34058 0.0
C2777 C 0.31922 0.1155 0.33682 0.0
H2778 H 0.29981 0.08039 0.36984 0.0
H2779 H 0.27861 0.1403 0.358 0.0
C2780 C 0.19609 0.13584 0.40301 0.0
N2781 N 0.2095 0.13244 0.38751 0.0
C2782 C 0.18029 0.14994 0.40064 0.0
C2783 C 0.19267 0.15721 0.36653 0.0
C2784 C 0.20809 0.14266 0.36945 0.0
C2785 C 0.17857 0.16097 0.3823 0.0
H2786 H 0.19798 0.12794 0.41741 0.0
H2787 H 0.21918 0.1398 0.3575 0.0
O2788 O 0.27099 0.08248 0.40295 0.0
O2789 O 0.22681 0.09484 0.41531 0.0
O2790 O 0.25704 0.12807 0.40134 0.0
O2791 O 0.24076 0.09645 0.36973 0.0
H2792 H 0.25712 0.05084 0.42448 0.0
H2793 H 0.31145 0.08295 0.4055 0.0
H2794 H 0.27887 0.02644 0.44353 0.0
H2795 H 0.33226 0.05782 0.42479 0.0
H2796 H 0.16558 0.07297 0.44005 0.0
H2797 H 0.24072 0.07329 0.44691 0.0
H2798 H 0.18635 0.09228 0.4149 0.0
H2799 H 0.21901 0.05421 0.47133 0.0
H2800 H 0.2928 0.09318 0.48604 0.0
H2801 H 0.23784 0.12997 0.48677 0.0
H2802 H 0.25996 0.01102 0.36783 0.0
H2803 H 0.20499 0.01176 0.4046 0.0
H2804 H 0.25741 0.16842 0.40017 0.0
H2805 H 0.29327 0.11503 0.4142 0.0
H2806 H 0.2872 0.19012 0.40951 0.0
H2807 H 0.32238 0.13757 0.42329 0.0
H2808 H 0.24038 0.09755 0.32938 0.0
H2809 H 0.20452 0.08363 0.38278 0.0
H2810 H 0.21059 0.0882 0.30769 0.0
H2811 H 0.1754 0.07452 0.36025 0.0
H2812 H 0.32781 0.08448 0.34504 0.0
H2813 H 0.30596 0.14559 0.33229 0.0
H2814 H 0.16998 0.15275 0.41331 0.0
H2815 H 0.19184 0.16551 0.35221 0.0
Li2816 Li 0.57853 0.89467 0.74213 0.0
Li2817 Li 0.60312 0.91927 0.75564 0.0
Li2818 Li 0.61416 0.89271 0.73128 0.0
Li2819 Li 0.60508 0.88363 0.7665 0.0
C2820 C 0.58407 0.92899 0.7151 0.0
N2821 N 0.56275 0.95673 0.69132 0.0
C2822 C 0.57333 0.94505 0.72428 0.0
C2823 C 0.58409 0.92717 0.69378 0.0
C2824 C 0.56262 0.95888 0.71201 0.0
C2825 C 0.57318 0.94131 0.68203 0.0
C2826 C 0.5688 0.91373 0.78266 0.0
C2827 C 0.55647 0.92463 0.81572 0.0
N2828 N 0.54105 0.93506 0.80643 0.0
C2829 C 0.55275 0.92448 0.77348 0.0
C2830 C 0.57061 0.91371 0.80399 0.0
C2831 C 0.53891 0.93519 0.78574 0.0
C2832 C 0.5402 0.87855 0.74953 0.0
N2833 N 0.55047 0.89003 0.73558 0.0
C2834 C 0.51944 0.89706 0.71756 0.0
C2835 C 0.54065 0.89878 0.71945 0.0
C2836 C 0.50833 0.88604 0.73229 0.0
C2837 C 0.51903 0.87628 0.74815 0.0
H2838 H 0.54842 0.87185 0.76225 0.0
H2839 H 0.54907 0.9076 0.70837 0.0
C2840 C 0.61925 0.9576 0.74824 0.0
N2841 N 0.60777 0.94733 0.7622 0.0
C2842 C 0.62151 0.97877 0.74962 0.0
C2843 C 0.60074 0.97836 0.78021 0.0
C2844 C 0.59902 0.95714 0.77833 0.0
C2845 C 0.61176 0.98946 0.76549 0.0
H2846 H 0.62594 0.94938 0.73552 0.0
H2847 H 0.5902 0.94873 0.78941 0.0
C2848 C 0.59118 0.85763 0.72451 0.0
N2849 N 0.58097 0.833 0.69173 0.0
C2850 C 0.59252 0.83637 0.72624 0.0
C2851 C 0.58468 0.86638 0.70612 0.0
C2852 C 0.58729 0.82417 0.70948 0.0
C2853 C 0.57957 0.85367 0.68973 0.0
C2854 C 0.64016 0.90662 0.77327 0.0
C2855 C 0.66142 0.9053 0.77154 0.0
C2856 C 0.63141 0.91311 0.79165 0.0
C2857 C 0.67362 0.91054 0.7883 0.0
C2858 C 0.64412 0.91823 0.80805 0.0
N2859 N 0.66478 0.91684 0.80605 0.0
C2860 C 0.63583 0.90302 0.69608 0.0
C2861 C 0.64266 0.86945 0.70808 0.0
C2862 C 0.64994 0.90065 0.68029 0.0
N2863 N 0.63243 0.88752 0.70949 0.0
C2864 C 0.65721 0.86653 0.69266 0.0
C2865 C 0.66097 0.8823 0.67856 0.0
H2866 H 0.62794 0.91742 0.69798 0.0
H2867 H 0.63979 0.8575 0.71917 0.0
C2868 C 0.59478 0.86197 0.80169 0.0
N2869 N 0.61028 0.86536 0.78829 0.0
C2870 C 0.59715 0.84786 0.81749 0.0
C2871 C 0.63126 0.84059 0.80511 0.0
C2872 C 0.62834 0.85514 0.78969 0.0
C2873 C 0.61549 0.83683 0.81921 0.0
H2874 H 0.58038 0.86986 0.7998 0.0
H2875 H 0.64029 0.85801 0.7786 0.0
O2876 O 0.59483 0.91532 0.7268 0.0
O2877 O 0.58248 0.90296 0.77098 0.0
O2878 O 0.59644 0.86974 0.74075 0.0
O2879 O 0.62806 0.90136 0.75703 0.0
H2880 H 0.5733 0.94695 0.74067 0.0
H2881 H 0.59228 0.91486 0.68634 0.0
H2882 H 0.55424 0.97136 0.71894 0.0
H2883 H 0.57299 0.94 0.66554 0.0
H2884 H 0.55776 0.92483 0.83222 0.0
H2885 H 0.55086 0.92451 0.75708 0.0
H2886 H 0.58291 0.90552 0.81144 0.0
H2887 H 0.52645 0.94358 0.7788 0.0
H2888 H 0.51175 0.90462 0.70498 0.0
H2889 H 0.51102 0.86784 0.75995 0.0
H2890 H 0.62995 0.98678 0.73782 0.0
H2891 H 0.59318 0.98605 0.79279 0.0
H2892 H 0.5976 0.82939 0.74037 0.0
H2893 H 0.58359 0.88277 0.70451 0.0
H2894 H 0.58826 0.80769 0.71059 0.0
H2895 H 0.5745 0.86024 0.67541 0.0
H2896 H 0.66841 0.90023 0.7574 0.0
H2897 H 0.61501 0.91419 0.79327 0.0
H2898 H 0.6901 0.90958 0.78719 0.0
H2899 H 0.63754 0.92329 0.82238 0.0
H2900 H 0.65275 0.91332 0.66998 0.0
H2901 H 0.6655 0.85221 0.69183 0.0
H2902 H 0.58448 0.84505 0.8278 0.0
H2903 H 0.64558 0.8323 0.80595 0.0
Li2904 Li 0.10508 0.61417 0.73128 0.0
Li2905 Li 0.11416 0.60509 0.7665 0.0
Li2906 Li 0.10312 0.57853 0.74214 0.0
Li2907 Li 0.07853 0.60313 0.75564 0.0
C2908 C 0.14016 0.59118 0.72451 0.0
N2909 N 0.16479 0.58097 0.69173 0.0
C2910 C 0.16142 0.59252 0.72624 0.0
C2911 C 0.13141 0.58469 0.70613 0.0
C2912 C 0.17362 0.58728 0.70948 0.0
C2913 C 0.14412 0.57957 0.68973 0.0
C2914 C 0.09118 0.64017 0.77327 0.0
C2915 C 0.07957 0.64413 0.80805 0.0
N2916 N 0.08096 0.6648 0.80605 0.0
C2917 C 0.09251 0.66143 0.77154 0.0
C2918 C 0.08468 0.63142 0.79166 0.0
C2919 C 0.08727 0.67363 0.7883 0.0
C2920 C 0.09478 0.63584 0.69609 0.0
N2921 N 0.11028 0.63244 0.70949 0.0
C2922 C 0.13126 0.65721 0.69267 0.0
C2923 C 0.12834 0.64266 0.70809 0.0
C2924 C 0.11549 0.66097 0.67856 0.0
C2925 C 0.09715 0.64995 0.68029 0.0
H2926 H 0.08038 0.62794 0.69798 0.0
H2927 H 0.14029 0.63979 0.71917 0.0
C2928 C 0.13583 0.59479 0.80169 0.0
N2929 N 0.13243 0.61028 0.78829 0.0
C2930 C 0.14994 0.59715 0.81749 0.0
C2931 C 0.15721 0.63127 0.80511 0.0
C2932 C 0.14266 0.62835 0.78969 0.0
C2933 C 0.16097 0.6155 0.81921 0.0
H2934 H 0.12794 0.58039 0.7998 0.0
H2935 H 0.13979 0.6403 0.7786 0.0
C2936 C 0.0688 0.58408 0.71511 0.0
N2937 N 0.04105 0.56275 0.69133 0.0
C2938 C 0.05275 0.57333 0.72429 0.0
C2939 C 0.07061 0.58409 0.69378 0.0
C2940 C 0.03891 0.56262 0.71203 0.0
C2941 C 0.05648 0.57318 0.68205 0.0
C2942 C 0.08407 0.56881 0.78267 0.0
C2943 C 0.07332 0.55276 0.77349 0.0
C2944 C 0.08409 0.57062 0.804 0.0
C2945 C 0.06261 0.53892 0.78576 0.0
C2946 C 0.07317 0.55648 0.81573 0.0
N2947 N 0.06274 0.54106 0.80645 0.0
C2948 C 0.11925 0.54021 0.74954 0.0
C2949 C 0.09901 0.54066 0.71945 0.0
C2950 C 0.12151 0.51903 0.74816 0.0
N2951 N 0.10776 0.55048 0.73558 0.0
C2952 C 0.10074 0.51945 0.71757 0.0
C2953 C 0.11176 0.50834 0.73229 0.0
H2954 H 0.12594 0.54842 0.76226 0.0
H2955 H 0.09019 0.54908 0.70837 0.0
C2956 C 0.0402 0.61926 0.74824 0.0
N2957 N 0.05047 0.60777 0.7622 0.0
C2958 C 0.01903 0.62152 0.74963 0.0
C2959 C 0.01944 0.60075 0.78022 0.0
C2960 C 0.04066 0.59903 0.77833 0.0
C2961 C 0.00833 0.61177 0.76549 0.0
H2962 H 0.04841 0.62595 0.73553 0.0
H2963 H 0.04907 0.5902 0.78941 0.0
O2964 O 0.12806 0.59645 0.74075 0.0
O2965 O 0.09644 0.62807 0.75703 0.0
O2966 O 0.08248 0.59484 0.7268 0.0
O2967 O 0.09483 0.58249 0.77098 0.0
H2968 H 0.16841 0.59759 0.74037 0.0
H2969 H 0.11502 0.5836 0.70451 0.0
H2970 H 0.1901 0.58825 0.71059 0.0
H2971 H 0.13755 0.57451 0.67541 0.0
H2972 H 0.07451 0.63756 0.82238 0.0
H2973 H 0.09758 0.66842 0.7574 0.0
H2974 H 0.0836 0.61503 0.79327 0.0
H2975 H 0.08824 0.69011 0.78719 0.0
H2976 H 0.14558 0.6655 0.69183 0.0
H2977 H 0.08448 0.65275 0.66998 0.0
H2978 H 0.15274 0.58448 0.8278 0.0
H2979 H 0.1655 0.64559 0.80595 0.0
H2980 H 0.05085 0.5733 0.74069 0.0
H2981 H 0.08292 0.59229 0.68634 0.0
H2982 H 0.02644 0.55424 0.71896 0.0
H2983 H 0.05778 0.57299 0.66555 0.0
H2984 H 0.07329 0.55086 0.75709 0.0
H2985 H 0.09228 0.58293 0.81144 0.0
H2986 H 0.05423 0.52645 0.77882 0.0
H2987 H 0.07298 0.55778 0.83223 0.0
H2988 H 0.12995 0.51102 0.75995 0.0
H2989 H 0.09317 0.51176 0.70499 0.0
H2990 H 0.01102 0.62996 0.73783 0.0
H2991 H 0.01175 0.59319 0.7928 0.0
Li2992 Li 0.38363 0.10509 0.73128 0.0
Li2993 Li 0.39271 0.11417 0.7665 0.0
Li2994 Li 0.41927 0.10313 0.74213 0.0
Li2995 Li 0.39467 0.07853 0.75564 0.0
C2996 C 0.40662 0.14016 0.72451 0.0
N2997 N 0.41684 0.16479 0.69172 0.0
C2998 C 0.40529 0.16143 0.72623 0.0
C2999 C 0.41311 0.13142 0.70612 0.0
C3000 C 0.41053 0.17362 0.70948 0.0
C3001 C 0.41823 0.14412 0.68972 0.0
C3002 C 0.35763 0.09119 0.77326 0.0
C3003 C 0.35367 0.07957 0.80805 0.0
N3004 N 0.333 0.08097 0.80605 0.0
C3005 C 0.33637 0.09253 0.77154 0.0
C3006 C 0.36637 0.08468 0.79165 0.0
C3007 C 0.32417 0.08729 0.7883 0.0
C3008 C 0.36196 0.09479 0.69608 0.0
N3009 N 0.36536 0.11028 0.70949 0.0
C3010 C 0.34059 0.13127 0.69266 0.0
C3011 C 0.35514 0.12835 0.70808 0.0
C3012 C 0.33683 0.1155 0.67856 0.0
C3013 C 0.34785 0.09715 0.68029 0.0
H3014 H 0.36986 0.08039 0.69798 0.0
H3015 H 0.358 0.1403 0.71917 0.0
C3016 C 0.40301 0.13584 0.80169 0.0
N3017 N 0.38752 0.13244 0.78828 0.0
C3018 C 0.40065 0.14995 0.81749 0.0
C3019 C 0.36653 0.15721 0.80511 0.0
C3020 C 0.36945 0.14266 0.78969 0.0
C3021 C 0.3823 0.16097 0.81921 0.0
H3022 H 0.41741 0.12795 0.7998 0.0
H3023 H 0.3575 0.13979 0.77861 0.0
C3024 C 0.41373 0.06881 0.71511 0.0
N3025 N 0.43506 0.04106 0.69134 0.0
C3026 C 0.42448 0.05276 0.7243 0.0
C3027 C 0.41371 0.07061 0.69378 0.0
C3028 C 0.43519 0.03892 0.71204 0.0
C3029 C 0.42463 0.05647 0.68205 0.0
C3030 C 0.42899 0.08408 0.78267 0.0
C3031 C 0.44505 0.07333 0.7735 0.0
C3032 C 0.42717 0.0841 0.804 0.0
C3033 C 0.45888 0.06263 0.78577 0.0
C3034 C 0.44131 0.07318 0.81574 0.0
N3035 N 0.45673 0.06276 0.80646 0.0
C3036 C 0.45759 0.11925 0.74954 0.0
C3037 C 0.45714 0.09903 0.71945 0.0
C3038 C 0.47877 0.12152 0.74815 0.0
N3039 N 0.44732 0.10777 0.73558 0.0
C3040 C 0.47835 0.10075 0.71756 0.0
C3041 C 0.48946 0.11177 0.73228 0.0
H3042 H 0.44938 0.12594 0.76225 0.0
H3043 H 0.44872 0.0902 0.70837 0.0
C3044 C 0.37854 0.04021 0.74824 0.0
N3045 N 0.39003 0.05048 0.7622 0.0
C3046 C 0.37628 0.01903 0.74962 0.0
C3047 C 0.39705 0.01945 0.78021 0.0
C3048 C 0.39878 0.04066 0.77833 0.0
C3049 C 0.38603 0.00834 0.76549 0.0
H3050 H 0.37185 0.04842 0.73552 0.0
H3051 H 0.4076 0.04908 0.7894 0.0
O3052 O 0.40135 0.12807 0.74075 0.0
O3053 O 0.36973 0.09645 0.75703 0.0
O3054 O 0.40296 0.08248 0.7268 0.0
O3055 O 0.41531 0.09484 0.77098 0.0
H3056 H 0.40022 0.16842 0.74037 0.0
H3057 H 0.41418 0.11502 0.70451 0.0
H3058 H 0.40957 0.19011 0.71059 0.0
H3059 H 0.42328 0.13755 0.6754 0.0
H3060 H 0.36024 0.0745 0.82237 0.0
H3061 H 0.32938 0.0976 0.7574 0.0
H3062 H 0.38277 0.0836 0.79326 0.0
H3063 H 0.30769 0.08826 0.78719 0.0
H3064 H 0.33229 0.14559 0.69183 0.0
H3065 H 0.34505 0.08448 0.66997 0.0
H3066 H 0.41332 0.15275 0.8278 0.0
H3067 H 0.35221 0.1655 0.80595 0.0
H3068 H 0.4245 0.05087 0.7407 0.0
H3069 H 0.40551 0.08291 0.68634 0.0
H3070 H 0.44357 0.02645 0.71898 0.0
H3071 H 0.42482 0.05777 0.66555 0.0
H3072 H 0.44694 0.07331 0.7571 0.0
H3073 H 0.41486 0.09229 0.81144 0.0
H3074 H 0.47135 0.05425 0.77883 0.0
H3075 H 0.44 0.07299 0.83224 0.0
H3076 H 0.48678 0.12996 0.75995 0.0
H3077 H 0.48604 0.09319 0.70498 0.0
H3078 H 0.36784 0.01102 0.73783 0.0
H3079 H 0.40462 0.01176 0.79279 0.0
Li3080 Li 0.89467 0.41927 0.74214 0.0
Li3081 Li 0.91927 0.39467 0.75564 0.0
Li3082 Li 0.89271 0.38363 0.73128 0.0
Li3083 Li 0.88363 0.39271 0.7665 0.0
C3084 C 0.92898 0.41372 0.7151 0.0
N3085 N 0.95672 0.43504 0.6913 0.0
C3086 C 0.94505 0.42446 0.72427 0.0
C3087 C 0.92716 0.4137 0.69378 0.0
C3088 C 0.95888 0.43517 0.712 0.0
C3089 C 0.94129 0.42461 0.68203 0.0
C3090 C 0.91373 0.429 0.78266 0.0
C3091 C 0.92464 0.44134 0.81572 0.0
N3092 N 0.93507 0.45675 0.80642 0.0
C3093 C 0.92448 0.44504 0.77347 0.0
C3094 C 0.91371 0.4272 0.80399 0.0
C3095 C 0.9352 0.45888 0.78573 0.0
C3096 C 0.87854 0.4576 0.74954 0.0
N3097 N 0.89003 0.44733 0.73558 0.0
C3098 C 0.89706 0.47836 0.71757 0.0
C3099 C 0.89878 0.45714 0.71945 0.0
C3100 C 0.88604 0.48946 0.73229 0.0
C3101 C 0.87628 0.47877 0.74816 0.0
H3102 H 0.87185 0.44938 0.76225 0.0
H3103 H 0.90761 0.44873 0.70838 0.0
C3104 C 0.95759 0.37855 0.74824 0.0
N3105 N 0.94732 0.39003 0.7622 0.0
C3106 C 0.97877 0.37628 0.74962 0.0
C3107 C 0.97835 0.39705 0.78022 0.0
C3108 C 0.95714 0.39877 0.77833 0.0
C3109 C 0.98946 0.38604 0.76549 0.0
H3110 H 0.94938 0.37186 0.73552 0.0
H3111 H 0.94872 0.4076 0.78941 0.0
C3112 C 0.85763 0.40661 0.72452 0.0
N3113 N 0.83299 0.41682 0.69173 0.0
C3114 C 0.83637 0.40526 0.72624 0.0
C3115 C 0.86637 0.41312 0.70613 0.0
C3116 C 0.82417 0.4105 0.70948 0.0
C3117 C 0.85366 0.41823 0.68973 0.0
C3118 C 0.90662 0.35764 0.77327 0.0
C3119 C 0.9053 0.33638 0.77154 0.0
C3120 C 0.9131 0.36639 0.79166 0.0
C3121 C 0.91054 0.32418 0.7883 0.0
C3122 C 0.91822 0.35368 0.80806 0.0
N3123 N 0.91685 0.33302 0.80606 0.0
C3124 C 0.90301 0.36196 0.69609 0.0
C3125 C 0.86945 0.35514 0.70809 0.0
C3126 C 0.90065 0.34785 0.68029 0.0
N3127 N 0.88751 0.36536 0.70949 0.0
C3128 C 0.86653 0.34059 0.69266 0.0
C3129 C 0.8823 0.33683 0.67857 0.0
H3130 H 0.91741 0.36985 0.69799 0.0
H3131 H 0.8575 0.35801 0.71917 0.0
C3132 C 0.86196 0.40302 0.8017 0.0
N3133 N 0.86536 0.38752 0.78829 0.0
C3134 C 0.84785 0.40065 0.81749 0.0
C3135 C 0.84058 0.36654 0.80511 0.0
C3136 C 0.85514 0.36946 0.78969 0.0
C3137 C 0.83683 0.38231 0.81922 0.0
H3138 H 0.86986 0.41741 0.7998 0.0
H3139 H 0.858 0.35751 0.7786 0.0
O3140 O 0.91531 0.40296 0.7268 0.0
O3141 O 0.90296 0.41532 0.77098 0.0
O3142 O 0.86973 0.40135 0.74075 0.0
O3143 O 0.90135 0.36973 0.75703 0.0
H3144 H 0.94695 0.42449 0.74067 0.0
H3145 H 0.91485 0.40551 0.68634 0.0
H3146 H 0.97136 0.44354 0.71892 0.0
H3147 H 0.93998 0.4248 0.66553 0.0
H3148 H 0.92483 0.44005 0.83222 0.0
H3149 H 0.92451 0.44692 0.75707 0.0
H3150 H 0.90552 0.4149 0.81144 0.0
H3151 H 0.94359 0.47134 0.77878 0.0
H3152 H 0.90462 0.48605 0.70499 0.0
H3153 H 0.86783 0.48678 0.75995 0.0
H3154 H 0.98678 0.36784 0.73783 0.0
H3155 H 0.98604 0.40461 0.7928 0.0
H3156 H 0.82938 0.40019 0.74038 0.0
H3157 H 0.88277 0.41422 0.70452 0.0
H3158 H 0.80768 0.40952 0.71059 0.0
H3159 H 0.86023 0.4233 0.67541 0.0
H3160 H 0.90024 0.32938 0.75741 0.0
H3161 H 0.91417 0.38279 0.79327 0.0
H3162 H 0.90959 0.3077 0.78719 0.0
H3163 H 0.92328 0.36026 0.82238 0.0
H3164 H 0.91332 0.34505 0.66998 0.0
H3165 H 0.8522 0.3323 0.69183 0.0
H3166 H 0.84505 0.41332 0.82781 0.0
H3167 H 0.83229 0.35221 0.80595 0.0
Li3168 Li 0.60508 0.11417 0.23128 0.0
Li3169 Li 0.61416 0.10509 0.2665 0.0
Li3170 Li 0.60312 0.07853 0.24214 0.0
Li3171 Li 0.57853 0.10313 0.25564 0.0
C3172 C 0.64016 0.09119 0.22452 0.0
N3173 N 0.66479 0.08098 0.19173 0.0
C3174 C 0.66142 0.09253 0.22624 0.0
C3175 C 0.63142 0.08468 0.20613 0.0
C3176 C 0.67362 0.0873 0.20948 0.0
C3177 C 0.64413 0.07957 0.18973 0.0
C3178 C 0.59118 0.14017 0.27327 0.0
C3179 C 0.57957 0.14412 0.30806 0.0
N3180 N 0.58095 0.16479 0.30606 0.0
C3181 C 0.5925 0.16143 0.27154 0.0
C3182 C 0.58469 0.13142 0.29166 0.0
C3183 C 0.58726 0.17362 0.2883 0.0
C3184 C 0.59478 0.13584 0.19609 0.0
N3185 N 0.61028 0.13244 0.20949 0.0
C3186 C 0.63126 0.15721 0.19266 0.0
C3187 C 0.62834 0.14266 0.20808 0.0
C3188 C 0.61549 0.16097 0.17856 0.0
C3189 C 0.59715 0.14995 0.18029 0.0
H3190 H 0.58038 0.12795 0.19798 0.0
H3191 H 0.64029 0.13979 0.21917 0.0
C3192 C 0.63583 0.09479 0.3017 0.0
N3193 N 0.63243 0.11028 0.28829 0.0
C3194 C 0.64994 0.09715 0.31749 0.0
C3195 C 0.65721 0.13127 0.30511 0.0
C3196 C 0.64266 0.12835 0.28969 0.0
C3197 C 0.66097 0.1155 0.31921 0.0
H3198 H 0.62793 0.08039 0.2998 0.0
H3199 H 0.63979 0.1403 0.2786 0.0
C3200 C 0.56881 0.08408 0.21511 0.0
N3201 N 0.54106 0.06276 0.19131 0.0
C3202 C 0.55274 0.07334 0.22428 0.0
C3203 C 0.57063 0.0841 0.19378 0.0
C3204 C 0.53891 0.06263 0.21201 0.0
C3205 C 0.55649 0.07319 0.18203 0.0
C3206 C 0.58406 0.06881 0.28266 0.0
C3207 C 0.57331 0.05276 0.27348 0.0
C3208 C 0.58408 0.07061 0.30399 0.0
C3209 C 0.5626 0.03892 0.28574 0.0
C3210 C 0.57316 0.05647 0.31572 0.0
N3211 N 0.56273 0.04106 0.30643 0.0
C3212 C 0.61925 0.04021 0.24954 0.0
C3213 C 0.59901 0.04066 0.21945 0.0
C3214 C 0.62151 0.01903 0.24816 0.0
N3215 N 0.60776 0.05048 0.23558 0.0
C3216 C 0.60073 0.01945 0.21757 0.0
C3217 C 0.61175 0.00834 0.23229 0.0
H3218 H 0.62594 0.04842 0.26225 0.0
H3219 H 0.59019 0.04907 0.20838 0.0
C3220 C 0.5402 0.11926 0.24824 0.0
N3221 N 0.55047 0.10777 0.2622 0.0
C3222 C 0.51903 0.12152 0.24962 0.0
C3223 C 0.51944 0.10075 0.28022 0.0
C3224 C 0.54066 0.09903 0.27833 0.0
C3225 C 0.50833 0.11177 0.26549 0.0
H3226 H 0.54841 0.12594 0.23552 0.0
H3227 H 0.54907 0.09021 0.28941 0.0
O3228 O 0.62806 0.09645 0.24075 0.0
O3229 O 0.59644 0.12807 0.25703 0.0
O3230 O 0.58248 0.09484 0.2268 0.0
O3231 O 0.59483 0.08248 0.27098 0.0
H3232 H 0.66841 0.09761 0.24037 0.0
H3233 H 0.61502 0.08359 0.20452 0.0
H3234 H 0.69011 0.08827 0.21059 0.0
H3235 H 0.63756 0.0745 0.17541 0.0
H3236 H 0.57451 0.13755 0.32238 0.0
H3237 H 0.59756 0.16842 0.2574 0.0
H3238 H 0.58361 0.11502 0.29327 0.0
H3239 H 0.58822 0.19011 0.28719 0.0
H3240 H 0.64559 0.1655 0.19183 0.0
H3241 H 0.58447 0.15275 0.16998 0.0
H3242 H 0.65274 0.08448 0.32781 0.0
H3243 H 0.6655 0.14559 0.30595 0.0
H3244 H 0.55084 0.07331 0.24067 0.0
H3245 H 0.58294 0.09229 0.18634 0.0
H3246 H 0.52644 0.05425 0.21894 0.0
H3247 H 0.5578 0.07299 0.16554 0.0
H3248 H 0.57328 0.05088 0.25708 0.0
H3249 H 0.59228 0.08291 0.31144 0.0
H3250 H 0.55421 0.02646 0.27879 0.0
H3251 H 0.57297 0.05776 0.33222 0.0
H3252 H 0.62996 0.01102 0.25995 0.0
H3253 H 0.59317 0.01175 0.20499 0.0
H3254 H 0.51102 0.12996 0.23783 0.0
H3255 H 0.51175 0.09319 0.2928 0.0
Li3256 Li 0.88363 0.60509 0.23128 0.0
Li3257 Li 0.89271 0.61417 0.2665 0.0
Li3258 Li 0.91927 0.60313 0.24213 0.0
Li3259 Li 0.89467 0.57853 0.25564 0.0
C3260 C 0.90662 0.64017 0.22451 0.0
N3261 N 0.91684 0.66479 0.19172 0.0
C3262 C 0.90529 0.66143 0.22623 0.0
C3263 C 0.91311 0.63142 0.20612 0.0
C3264 C 0.91052 0.67362 0.20948 0.0
C3265 C 0.91823 0.64412 0.18972 0.0
C3266 C 0.85763 0.59119 0.27326 0.0
C3267 C 0.85367 0.57957 0.30805 0.0
N3268 N 0.833 0.58097 0.30605 0.0
C3269 C 0.83637 0.59252 0.27154 0.0
C3270 C 0.86638 0.58468 0.29165 0.0
C3271 C 0.82417 0.58729 0.28829 0.0
C3272 C 0.86196 0.59479 0.19608 0.0
N3273 N 0.86536 0.61028 0.20949 0.0
C3274 C 0.84059 0.63127 0.19266 0.0
C3275 C 0.85514 0.62835 0.20808 0.0
C3276 C 0.83682 0.6155 0.17856 0.0
C3277 C 0.84785 0.59715 0.18029 0.0
H3278 H 0.86986 0.58039 0.19798 0.0
H3279 H 0.858 0.6403 0.21917 0.0
C3280 C 0.90301 0.63584 0.30169 0.0
N3281 N 0.88752 0.63244 0.28828 0.0
C3282 C 0.90065 0.64995 0.31749 0.0
C3283 C 0.86653 0.65721 0.30511 0.0
C3284 C 0.86945 0.64266 0.28969 0.0
C3285 C 0.8823 0.66097 0.31921 0.0
H3286 H 0.91741 0.62794 0.2998 0.0
H3287 H 0.8575 0.63979 0.2786 0.0
C3288 C 0.91372 0.56881 0.21511 0.0
N3289 N 0.93505 0.54106 0.19134 0.0
C3290 C 0.92447 0.55276 0.22429 0.0
C3291 C 0.91371 0.57062 0.19378 0.0
C3292 C 0.93518 0.53892 0.21203 0.0
C3293 C 0.92463 0.55648 0.18205 0.0
C3294 C 0.92899 0.58408 0.28267 0.0
C3295 C 0.94504 0.57333 0.27349 0.0
C3296 C 0.92717 0.58409 0.304 0.0
C3297 C 0.95888 0.56262 0.28576 0.0
C3298 C 0.94131 0.57318 0.31574 0.0
N3299 N 0.95673 0.56275 0.30645 0.0
C3300 C 0.95759 0.61925 0.24953 0.0
C3301 C 0.95714 0.59902 0.21945 0.0
C3302 C 0.97877 0.62152 0.24815 0.0
N3303 N 0.94732 0.60777 0.23558 0.0
C3304 C 0.97835 0.60075 0.21756 0.0
C3305 C 0.98946 0.61176 0.23229 0.0
H3306 H 0.94938 0.62595 0.26225 0.0
H3307 H 0.94872 0.5902 0.20837 0.0
C3308 C 0.87854 0.54021 0.24824 0.0
N3309 N 0.89003 0.55048 0.2622 0.0
C3310 C 0.87628 0.51903 0.24962 0.0
C3311 C 0.89705 0.51945 0.28021 0.0
C3312 C 0.89878 0.54066 0.27833 0.0
C3313 C 0.88603 0.50834 0.26549 0.0
H3314 H 0.87185 0.54842 0.23552 0.0
H3315 H 0.9076 0.54908 0.28941 0.0
O3316 O 0.90135 0.62807 0.24075 0.0
O3317 O 0.86973 0.59645 0.25703 0.0
O3318 O 0.90296 0.58248 0.2268 0.0
O3319 O 0.91531 0.59484 0.27098 0.0
H3320 H 0.90022 0.66842 0.24037 0.0
H3321 H 0.91419 0.61502 0.20451 0.0
H3322 H 0.90956 0.69011 0.21059 0.0
H3323 H 0.92329 0.63755 0.1754 0.0
H3324 H 0.86024 0.57451 0.32237 0.0
H3325 H 0.82938 0.5976 0.2574 0.0
H3326 H 0.88277 0.5836 0.29326 0.0
H3327 H 0.80769 0.58826 0.28719 0.0
H3328 H 0.83229 0.64559 0.19183 0.0
H3329 H 0.84505 0.58448 0.16997 0.0
H3330 H 0.91332 0.65275 0.3278 0.0
H3331 H 0.85221 0.6655 0.30595 0.0
H3332 H 0.9245 0.55087 0.24069 0.0
H3333 H 0.90551 0.58292 0.18634 0.0
H3334 H 0.94357 0.52645 0.21897 0.0
H3335 H 0.92482 0.55777 0.16555 0.0
H3336 H 0.94694 0.5733 0.2571 0.0
H3337 H 0.91487 0.59229 0.31144 0.0
H3338 H 0.97135 0.55424 0.27883 0.0
H3339 H 0.94001 0.57299 0.33223 0.0
H3340 H 0.98678 0.62996 0.25995 0.0
H3341 H 0.98604 0.59318 0.20498 0.0
H3342 H 0.86784 0.51102 0.23782 0.0
H3343 H 0.90462 0.51176 0.29279 0.0
Li3344 Li 0.39467 0.91927 0.24214 0.0
Li3345 Li 0.41927 0.89467 0.25565 0.0
Li3346 Li 0.39271 0.88363 0.23128 0.0
Li3347 Li 0.38363 0.89271 0.2665 0.0
C3348 C 0.42898 0.91372 0.2151 0.0
N3349 N 0.45673 0.93503 0.19131 0.0
C3350 C 0.44505 0.92446 0.22427 0.0
C3351 C 0.42716 0.9137 0.19378 0.0
C3352 C 0.45888 0.93516 0.212 0.0
C3353 C 0.44129 0.92461 0.18203 0.0
C3354 C 0.41373 0.929 0.28266 0.0
C3355 C 0.42464 0.94134 0.31572 0.0
N3356 N 0.43507 0.95675 0.30642 0.0
C3357 C 0.42448 0.94504 0.27347 0.0
C3358 C 0.41371 0.9272 0.30399 0.0
C3359 C 0.4352 0.95888 0.28573 0.0
C3360 C 0.37854 0.9576 0.24954 0.0
N3361 N 0.39003 0.94733 0.23558 0.0
C3362 C 0.39706 0.97836 0.21757 0.0
C3363 C 0.39878 0.95714 0.21945 0.0
C3364 C 0.38604 0.98946 0.23229 0.0
C3365 C 0.37628 0.97877 0.24816 0.0
H3366 H 0.37185 0.94938 0.26225 0.0
H3367 H 0.40761 0.94873 0.20838 0.0
C3368 C 0.45759 0.87855 0.24824 0.0
N3369 N 0.44732 0.89003 0.2622 0.0
C3370 C 0.47877 0.87628 0.24963 0.0
C3371 C 0.47835 0.89705 0.28022 0.0
C3372 C 0.45714 0.89877 0.27833 0.0
C3373 C 0.48946 0.88603 0.2655 0.0
H3374 H 0.44938 0.87186 0.23552 0.0
H3375 H 0.44872 0.90759 0.28941 0.0
C3376 C 0.35763 0.90661 0.22452 0.0
N3377 N 0.333 0.91682 0.19173 0.0
C3378 C 0.33637 0.90527 0.22624 0.0
C3379 C 0.36637 0.91312 0.20613 0.0
C3380 C 0.32417 0.9105 0.20948 0.0
C3381 C 0.35366 0.91823 0.18973 0.0
C3382 C 0.40662 0.85764 0.27327 0.0
C3383 C 0.4053 0.83638 0.27154 0.0
C3384 C 0.4131 0.86639 0.29166 0.0
C3385 C 0.41055 0.82418 0.2883 0.0
C3386 C 0.41822 0.85368 0.30806 0.0
N3387 N 0.41685 0.83302 0.30606 0.0
C3388 C 0.40301 0.86196 0.19609 0.0
C3389 C 0.36945 0.85514 0.20809 0.0
C3390 C 0.40065 0.84785 0.18029 0.0
N3391 N 0.38751 0.86536 0.20949 0.0
C3392 C 0.36653 0.84059 0.19266 0.0
C3393 C 0.3823 0.83683 0.17857 0.0
H3394 H 0.41741 0.86985 0.19799 0.0
H3395 H 0.3575 0.85801 0.21917 0.0
C3396 C 0.36196 0.90302 0.3017 0.0
N3397 N 0.36536 0.88752 0.28829 0.0
C3398 C 0.34785 0.90065 0.31749 0.0
C3399 C 0.34058 0.86654 0.30511 0.0
C3400 C 0.35514 0.86946 0.28969 0.0
C3401 C 0.33683 0.88231 0.31922 0.0
H3402 H 0.36986 0.91741 0.2998 0.0
H3403 H 0.358 0.85751 0.2786 0.0
O3404 O 0.41531 0.90296 0.2268 0.0
O3405 O 0.40296 0.91532 0.27098 0.0
O3406 O 0.36973 0.90136 0.24075 0.0
O3407 O 0.40135 0.86973 0.25703 0.0
H3408 H 0.44695 0.92449 0.24067 0.0
H3409 H 0.41485 0.90551 0.18634 0.0
H3410 H 0.47136 0.94354 0.21892 0.0
H3411 H 0.43998 0.9248 0.16553 0.0
H3412 H 0.42483 0.94005 0.33222 0.0
H3413 H 0.42451 0.94692 0.25707 0.0
H3414 H 0.40552 0.9149 0.31144 0.0
H3415 H 0.44359 0.97134 0.27878 0.0
H3416 H 0.40462 0.98605 0.20499 0.0
H3417 H 0.36783 0.98678 0.25995 0.0
H3418 H 0.48678 0.86784 0.23783 0.0
H3419 H 0.48604 0.90461 0.2928 0.0
H3420 H 0.32938 0.90019 0.24038 0.0
H3421 H 0.38277 0.91422 0.20452 0.0
H3422 H 0.30768 0.90952 0.21059 0.0
H3423 H 0.36023 0.9233 0.17541 0.0
H3424 H 0.40024 0.82938 0.2574 0.0
H3425 H 0.41417 0.88279 0.29327 0.0
H3426 H 0.40959 0.8077 0.28719 0.0
H3427 H 0.42328 0.86026 0.32238 0.0
H3428 H 0.41332 0.84505 0.16998 0.0
H3429 H 0.3522 0.8323 0.19183 0.0
H3430 H 0.34505 0.91332 0.32781 0.0
H3431 H 0.33229 0.85221 0.30595 0.0
Li3432 Li 0.07853 0.39467 0.24213 0.0
Li3433 Li 0.10312 0.41927 0.25564 0.0
Li3434 Li 0.11417 0.39271 0.23128 0.0
Li3435 Li 0.10508 0.38363 0.2665 0.0
C3436 C 0.08408 0.42899 0.2151 0.0
N3437 N 0.06276 0.45673 0.1913 0.0
C3438 C 0.07333 0.44505 0.22427 0.0
C3439 C 0.08409 0.42716 0.19377 0.0
C3440 C 0.06263 0.45888 0.21199 0.0
C3441 C 0.07318 0.4413 0.18203 0.0
C3442 C 0.0688 0.41373 0.28266 0.0
C3443 C 0.05646 0.42464 0.31571 0.0
N3444 N 0.04104 0.43507 0.30642 0.0
C3445 C 0.05275 0.42448 0.27347 0.0
C3446 C 0.0706 0.41372 0.30399 0.0
C3447 C 0.03891 0.4352 0.28572 0.0
C3448 C 0.0402 0.37854 0.24953 0.0
N3449 N 0.05047 0.39003 0.23558 0.0
C3450 C 0.01944 0.39706 0.21756 0.0
C3451 C 0.04065 0.39878 0.21945 0.0
C3452 C 0.00833 0.38604 0.23229 0.0
C3453 C 0.01903 0.37628 0.24815 0.0
H3454 H 0.04842 0.37185 0.26225 0.0
H3455 H 0.04907 0.40761 0.20837 0.0
C3456 C 0.11925 0.4576 0.24824 0.0
N3457 N 0.10777 0.44733 0.2622 0.0
C3458 C 0.12151 0.47877 0.24962 0.0
C3459 C 0.10074 0.47835 0.28021 0.0
C3460 C 0.09902 0.45714 0.27833 0.0
C3461 C 0.11176 0.48946 0.26549 0.0
H3462 H 0.12594 0.44938 0.23552 0.0
H3463 H 0.0902 0.44872 0.28941 0.0
C3464 C 0.09118 0.35763 0.22451 0.0
N3465 N 0.08098 0.333 0.19173 0.0
C3466 C 0.09253 0.33637 0.22624 0.0
C3467 C 0.08468 0.36637 0.20613 0.0
C3468 C 0.0873 0.32417 0.20948 0.0
C3469 C 0.07957 0.35366 0.18973 0.0
C3470 C 0.14016 0.40662 0.27327 0.0
C3471 C 0.16142 0.40531 0.27154 0.0
C3472 C 0.13141 0.41311 0.29166 0.0
C3473 C 0.17361 0.41055 0.2883 0.0
C3474 C 0.14411 0.41823 0.30806 0.0
N3475 N 0.16478 0.41685 0.30606 0.0
C3476 C 0.13584 0.40302 0.19609 0.0
C3477 C 0.14265 0.36945 0.20808 0.0
C3478 C 0.14994 0.40065 0.18029 0.0
N3479 N 0.13244 0.38752 0.20949 0.0
C3480 C 0.15721 0.36653 0.19266 0.0
C3481 C 0.16097 0.3823 0.17856 0.0
H3482 H 0.12794 0.41742 0.19798 0.0
H3483 H 0.13979 0.3575 0.21917 0.0
C3484 C 0.09478 0.36197 0.30169 0.0
N3485 N 0.11028 0.36536 0.28829 0.0
C3486 C 0.09715 0.34786 0.31749 0.0
C3487 C 0.13126 0.34059 0.30511 0.0
C3488 C 0.12834 0.35514 0.28969 0.0
C3489 C 0.11549 0.33683 0.31921 0.0
H3490 H 0.08038 0.36986 0.2998 0.0
H3491 H 0.14029 0.358 0.2786 0.0
O3492 O 0.09483 0.41532 0.2268 0.0
O3493 O 0.08248 0.40296 0.27098 0.0
O3494 O 0.09644 0.36974 0.24075 0.0
O3495 O 0.12806 0.40135 0.25703 0.0
H3496 H 0.07331 0.44695 0.24066 0.0
H3497 H 0.09228 0.41485 0.18634 0.0
H3498 H 0.05425 0.47136 0.21892 0.0
H3499 H 0.07299 0.43999 0.16553 0.0
H3500 H 0.05775 0.42483 0.33221 0.0
H3501 H 0.05087 0.42451 0.25707 0.0
H3502 H 0.0829 0.40552 0.31144 0.0
H3503 H 0.02645 0.44359 0.27878 0.0
H3504 H 0.01175 0.40462 0.20498 0.0
H3505 H 0.01102 0.36784 0.25995 0.0
H3506 H 0.12995 0.48678 0.23782 0.0
H3507 H 0.09318 0.48604 0.2928 0.0
H3508 H 0.09761 0.32939 0.24037 0.0
H3509 H 0.08358 0.38277 0.20452 0.0
H3510 H 0.08827 0.30769 0.21059 0.0
H3511 H 0.0745 0.36023 0.17541 0.0
H3512 H 0.16841 0.40024 0.2574 0.0
H3513 H 0.11501 0.41418 0.29327 0.0
H3514 H 0.1901 0.4096 0.28719 0.0
H3515 H 0.13754 0.42329 0.32238 0.0
H3516 H 0.15275 0.41332 0.16998 0.0
H3517 H 0.1655 0.35221 0.19183 0.0
H3518 H 0.08448 0.34506 0.3278 0.0
H3519 H 0.14558 0.3323 0.30595 0.0
Li3520 Li 0.75565 0.60313 0.91926 0.0
Li3521 Li 0.74214 0.57853 0.89466 0.0
Li3522 Li 0.76651 0.60509 0.88362 0.0
Li3523 Li 0.73129 0.61417 0.8927 0.0
C3524 C 0.78269 0.56881 0.91371 0.0
N3525 N 0.80649 0.54107 0.93502 0.0
C3526 C 0.77352 0.55275 0.92445 0.0
C3527 C 0.80402 0.57064 0.91369 0.0
C3528 C 0.7858 0.53892 0.93515 0.0
C3529 C 0.81576 0.55651 0.9246 0.0
C3530 C 0.71513 0.58407 0.92899 0.0
C3531 C 0.68207 0.57316 0.94133 0.0
N3532 N 0.69137 0.56273 0.95674 0.0
C3533 C 0.72432 0.57331 0.94503 0.0
C3534 C 0.6938 0.58408 0.92719 0.0
C3535 C 0.71207 0.5626 0.95887 0.0
C3536 C 0.74825 0.61926 0.95758 0.0
N3537 N 0.76221 0.60777 0.94732 0.0
C3538 C 0.78022 0.60074 0.97835 0.0
C3539 C 0.77834 0.59902 0.95713 0.0
C3540 C 0.7655 0.61176 0.98945 0.0
C3541 C 0.74963 0.62152 0.97876 0.0
H3542 H 0.73554 0.62595 0.94937 0.0
H3543 H 0.78941 0.59019 0.94872 0.0
C3544 C 0.74955 0.54021 0.87854 0.0
N3545 N 0.73559 0.55048 0.89002 0.0
C3546 C 0.74816 0.51903 0.87627 0.0
C3547 C 0.71757 0.51945 0.89704 0.0
C3548 C 0.71945 0.54066 0.89876 0.0
C3549 C 0.73229 0.50834 0.88602 0.0
H3550 H 0.76227 0.54842 0.87185 0.0
H3551 H 0.70837 0.54908 0.90758 0.0
C3552 C 0.77327 0.64017 0.9066 0.0
N3553 N 0.80606 0.6648 0.91681 0.0
C3554 C 0.77155 0.66143 0.90525 0.0
C3555 C 0.79166 0.63143 0.91311 0.0
C3556 C 0.7883 0.67363 0.91048 0.0
C3557 C 0.80806 0.64414 0.91822 0.0
C3558 C 0.72452 0.59118 0.85763 0.0
C3559 C 0.72624 0.59249 0.83637 0.0
C3560 C 0.70613 0.58469 0.86638 0.0
C3561 C 0.70949 0.58725 0.82417 0.0
C3562 C 0.68973 0.57957 0.85368 0.0
N3563 N 0.69173 0.58095 0.83301 0.0
C3564 C 0.8017 0.59479 0.86195 0.0
C3565 C 0.7897 0.62835 0.85513 0.0
C3566 C 0.8175 0.59715 0.84784 0.0
N3567 N 0.78829 0.61028 0.86535 0.0
C3568 C 0.80512 0.63127 0.84058 0.0
C3569 C 0.81922 0.6155 0.83682 0.0
H3570 H 0.7998 0.58039 0.86984 0.0
H3571 H 0.77861 0.6403 0.858 0.0
C3572 C 0.69609 0.63584 0.90301 0.0
N3573 N 0.7095 0.63244 0.88751 0.0
C3574 C 0.68029 0.64994 0.90064 0.0
C3575 C 0.69267 0.65721 0.86653 0.0
C3576 C 0.70809 0.64266 0.86945 0.0
C3577 C 0.67857 0.66097 0.8823 0.0
H3578 H 0.69798 0.62794 0.91741 0.0
H3579 H 0.71918 0.6398 0.8575 0.0
O3580 O 0.77099 0.58248 0.90295 0.0
O3581 O 0.72681 0.59484 0.91531 0.0
O3582 O 0.75704 0.62807 0.90135 0.0
O3583 O 0.74076 0.59645 0.86973 0.0
H3584 H 0.75712 0.55084 0.92448 0.0
H3585 H 0.81145 0.58295 0.9055 0.0
H3586 H 0.77887 0.52644 0.94353 0.0
H3587 H 0.83226 0.55782 0.92479 0.0
H3588 H 0.66558 0.57297 0.94005 0.0
H3589 H 0.74072 0.57329 0.94691 0.0
H3590 H 0.68635 0.59228 0.9149 0.0
H3591 H 0.71901 0.55421 0.97133 0.0
H3592 H 0.7928 0.59317 0.98604 0.0
H3593 H 0.73784 0.62997 0.98677 0.0
H3594 H 0.75996 0.51102 0.86783 0.0
H3595 H 0.70499 0.51176 0.9046 0.0
H3596 H 0.75741 0.66842 0.90017 0.0
H3597 H 0.79327 0.61503 0.91421 0.0
H3598 H 0.7872 0.69012 0.9095 0.0
H3599 H 0.82238 0.63757 0.92329 0.0
H3600 H 0.74038 0.59755 0.82938 0.0
H3601 H 0.70451 0.58363 0.88278 0.0
H3602 H 0.71059 0.5882 0.80769 0.0
H3603 H 0.6754 0.57452 0.86025 0.0
H3604 H 0.82781 0.58448 0.84504 0.0
H3605 H 0.80596 0.6456 0.83229 0.0
H3606 H 0.66998 0.65275 0.91331 0.0
H3607 H 0.69184 0.66551 0.85221 0.0
Li3608 Li 0.76651 0.39271 0.11416 0.0
Li3609 Li 0.73129 0.38363 0.10507 0.0
Li3610 Li 0.75565 0.39468 0.07852 0.0
Li3611 Li 0.74214 0.41927 0.10311 0.0
C3612 C 0.77327 0.35763 0.09117 0.0
N3613 N 0.80606 0.333 0.08097 0.0
C3614 C 0.77155 0.33637 0.09253 0.0
C3615 C 0.79166 0.36637 0.08467 0.0
C3616 C 0.78831 0.32417 0.08729 0.0
C3617 C 0.80806 0.35366 0.07956 0.0
C3618 C 0.72452 0.40662 0.14015 0.0
C3619 C 0.68973 0.41823 0.1441 0.0
N3620 N 0.69173 0.41685 0.16477 0.0
C3621 C 0.72624 0.40531 0.16141 0.0
C3622 C 0.70613 0.41311 0.1314 0.0
C3623 C 0.70949 0.41055 0.1736 0.0
C3624 C 0.8017 0.40302 0.13583 0.0
N3625 N 0.78829 0.38752 0.13243 0.0
C3626 C 0.80512 0.36653 0.1572 0.0
C3627 C 0.7897 0.36945 0.14265 0.0
C3628 C 0.81922 0.3823 0.16096 0.0
C3629 C 0.8175 0.40065 0.14994 0.0
H3630 H 0.7998 0.41742 0.12793 0.0
H3631 H 0.77861 0.3575 0.13978 0.0
C3632 C 0.69609 0.36197 0.09477 0.0
N3633 N 0.7095 0.36536 0.11027 0.0
C3634 C 0.68029 0.34786 0.09714 0.0
C3635 C 0.69268 0.34059 0.13125 0.0
C3636 C 0.70809 0.35514 0.12833 0.0
C3637 C 0.67857 0.33683 0.11548 0.0
H3638 H 0.69798 0.36987 0.08037 0.0
H3639 H 0.71918 0.358 0.14028 0.0
C3640 C 0.78269 0.42899 0.08407 0.0
N3641 N 0.80649 0.45673 0.06276 0.0
C3642 C 0.77352 0.44506 0.07333 0.0
C3643 C 0.80402 0.42716 0.08409 0.0
C3644 C 0.7858 0.45889 0.06263 0.0
C3645 C 0.81576 0.4413 0.07318 0.0
C3646 C 0.71513 0.41373 0.06879 0.0
C3647 C 0.72432 0.42449 0.05275 0.0
C3648 C 0.6938 0.41372 0.07059 0.0
C3649 C 0.71207 0.4352 0.03891 0.0
C3650 C 0.68207 0.42464 0.05644 0.0
N3651 N 0.69137 0.43507 0.04103 0.0
C3652 C 0.74825 0.37855 0.04019 0.0
C3653 C 0.77834 0.39879 0.04065 0.0
C3654 C 0.74964 0.37628 0.01902 0.0
N3655 N 0.76221 0.39003 0.05046 0.0
C3656 C 0.78022 0.39706 0.01943 0.0
C3657 C 0.7655 0.38604 0.00833 0.0
H3658 H 0.73554 0.37185 0.04841 0.0
H3659 H 0.78941 0.40761 0.04906 0.0
C3660 C 0.74955 0.4576 0.11924 0.0
N3661 N 0.73559 0.44733 0.10776 0.0
C3662 C 0.74816 0.47877 0.12151 0.0
C3663 C 0.71757 0.47836 0.10074 0.0
C3664 C 0.71945 0.45714 0.09901 0.0
C3665 C 0.73229 0.48946 0.11175 0.0
H3666 H 0.76227 0.44938 0.12593 0.0
H3667 H 0.70837 0.44872 0.09019 0.0
O3668 O 0.75704 0.36974 0.09643 0.0
O3669 O 0.74076 0.40136 0.12805 0.0
O3670 O 0.77099 0.41532 0.09483 0.0
O3671 O 0.72681 0.40297 0.08247 0.0
H3672 H 0.75741 0.32939 0.09761 0.0
H3673 H 0.79327 0.38277 0.08357 0.0
H3674 H 0.7872 0.30769 0.08828 0.0
H3675 H 0.82238 0.36023 0.07449 0.0
H3676 H 0.6754 0.42328 0.13753 0.0
H3677 H 0.74038 0.40025 0.1684 0.0
H3678 H 0.70452 0.41418 0.115 0.0
H3679 H 0.71059 0.4096 0.19009 0.0
H3680 H 0.80596 0.35221 0.16549 0.0
H3681 H 0.82781 0.41332 0.15274 0.0
H3682 H 0.66998 0.34506 0.08447 0.0
H3683 H 0.69184 0.33229 0.14557 0.0
H3684 H 0.75712 0.44696 0.0733 0.0
H3685 H 0.81145 0.41485 0.09228 0.0
H3686 H 0.77887 0.47136 0.05425 0.0
H3687 H 0.83226 0.43999 0.07299 0.0
H3688 H 0.74072 0.42452 0.05087 0.0
H3689 H 0.68635 0.40552 0.08288 0.0
H3690 H 0.71901 0.44359 0.02645 0.0
H3691 H 0.66558 0.42483 0.05773 0.0
H3692 H 0.73784 0.36784 0.01101 0.0
H3693 H 0.7928 0.40463 0.01174 0.0
H3694 H 0.75996 0.48678 0.12994 0.0
H3695 H 0.70499 0.48604 0.09318 0.0
Li3696 Li 0.60508 0.76652 0.11416 0.0
Li3697 Li 0.61416 0.73129 0.10508 0.0
Li3698 Li 0.60312 0.75566 0.07852 0.0
Li3699 Li 0.57853 0.74215 0.10311 0.0
C3700 C 0.64016 0.77328 0.09117 0.0
N3701 N 0.66478 0.80607 0.08095 0.0
C3702 C 0.66142 0.77156 0.0925 0.0
C3703 C 0.63141 0.79167 0.08468 0.0
C3704 C 0.67362 0.78832 0.08726 0.0
C3705 C 0.64412 0.80807 0.07956 0.0
C3706 C 0.59118 0.72453 0.14015 0.0
C3707 C 0.57957 0.68974 0.14411 0.0
N3708 N 0.58097 0.69174 0.16478 0.0
C3709 C 0.59252 0.72625 0.16141 0.0
C3710 C 0.58468 0.70614 0.13141 0.0
C3711 C 0.58728 0.70949 0.17361 0.0
C3712 C 0.59478 0.80171 0.13582 0.0
N3713 N 0.61027 0.7883 0.13243 0.0
C3714 C 0.63126 0.80513 0.1572 0.0
C3715 C 0.62834 0.78971 0.14265 0.0
C3716 C 0.61549 0.81923 0.16096 0.0
C3717 C 0.59714 0.81751 0.14993 0.0
H3718 H 0.58038 0.79982 0.12793 0.0
H3719 H 0.64029 0.77862 0.13978 0.0
C3720 C 0.63583 0.6961 0.09477 0.0
N3721 N 0.63243 0.70951 0.11027 0.0
C3722 C 0.64994 0.6803 0.09714 0.0
C3723 C 0.65721 0.69268 0.13125 0.0
C3724 C 0.64265 0.7081 0.12833 0.0
C3725 C 0.66097 0.67858 0.11548 0.0
H3726 H 0.62794 0.69799 0.08037 0.0
H3727 H 0.63979 0.71919 0.14028 0.0
C3728 C 0.5688 0.78268 0.08406 0.0
N3729 N 0.54105 0.80645 0.06273 0.0
C3730 C 0.55275 0.7735 0.07331 0.0
C3731 C 0.57061 0.80401 0.08408 0.0
C3732 C 0.53891 0.78576 0.0626 0.0
C3733 C 0.55647 0.81574 0.07316 0.0
C3734 C 0.58407 0.71512 0.0688 0.0
C3735 C 0.57333 0.7243 0.05274 0.0
C3736 C 0.58409 0.69379 0.07061 0.0
C3737 C 0.56262 0.71203 0.03891 0.0
C3738 C 0.57318 0.68205 0.05648 0.0
N3739 N 0.56275 0.69134 0.04105 0.0
C3740 C 0.61925 0.74826 0.04019 0.0
C3741 C 0.59902 0.77835 0.04065 0.0
C3742 C 0.62151 0.74964 0.01902 0.0
N3743 N 0.60776 0.76222 0.05046 0.0
C3744 C 0.60074 0.78023 0.01943 0.0
C3745 C 0.61176 0.76551 0.00833 0.0
H3746 H 0.62594 0.73554 0.04841 0.0
H3747 H 0.59019 0.78943 0.04906 0.0
C3748 C 0.5402 0.74955 0.11924 0.0
N3749 N 0.55047 0.73559 0.10776 0.0
C3750 C 0.51903 0.74817 0.12151 0.0
C3751 C 0.51944 0.71758 0.10073 0.0
C3752 C 0.54065 0.71946 0.09901 0.0
C3753 C 0.50833 0.7323 0.11175 0.0
H3754 H 0.54841 0.76227 0.12593 0.0
H3755 H 0.54907 0.70839 0.09018 0.0
O3756 O 0.62806 0.75704 0.09643 0.0
O3757 O 0.59644 0.74076 0.12805 0.0
O3758 O 0.58248 0.77099 0.09482 0.0
O3759 O 0.59483 0.72682 0.08247 0.0
H3760 H 0.66841 0.75742 0.09757 0.0
H3761 H 0.61501 0.79328 0.0836 0.0
H3762 H 0.6901 0.78721 0.08822 0.0
H3763 H 0.63754 0.82239 0.0745 0.0
H3764 H 0.5745 0.67542 0.13754 0.0
H3765 H 0.59759 0.74039 0.1684 0.0
H3766 H 0.58359 0.70453 0.11501 0.0
H3767 H 0.58826 0.7106 0.19009 0.0
H3768 H 0.64558 0.80596 0.16549 0.0
H3769 H 0.58447 0.82782 0.15274 0.0
H3770 H 0.65275 0.66999 0.08447 0.0
H3771 H 0.6655 0.69184 0.14558 0.0
H3772 H 0.55086 0.7571 0.07328 0.0
H3773 H 0.58291 0.81145 0.09227 0.0
H3774 H 0.52645 0.77882 0.05421 0.0
H3775 H 0.55776 0.83224 0.07297 0.0
H3776 H 0.5733 0.7407 0.05084 0.0
H3777 H 0.59228 0.68635 0.08292 0.0
H3778 H 0.55424 0.71896 0.02643 0.0
H3779 H 0.57298 0.66556 0.05778 0.0
H3780 H 0.62995 0.73784 0.01101 0.0
H3781 H 0.59318 0.79281 0.01174 0.0
H3782 H 0.51102 0.75996 0.12995 0.0
H3783 H 0.51175 0.705 0.09317 0.0
Li3784 Li 0.2665 0.61417 0.10507 0.0
Li3785 Li 0.23128 0.60509 0.11416 0.0
Li3786 Li 0.25565 0.57853 0.10311 0.0
Li3787 Li 0.24214 0.60313 0.07852 0.0
C3788 C 0.27327 0.59118 0.14015 0.0
N3789 N 0.30606 0.58097 0.16478 0.0
C3790 C 0.27155 0.59252 0.16141 0.0
C3791 C 0.29166 0.58468 0.13141 0.0
C3792 C 0.2883 0.58729 0.17361 0.0
C3793 C 0.30806 0.57957 0.14411 0.0
C3794 C 0.22452 0.64017 0.09117 0.0
C3795 C 0.18973 0.64413 0.07956 0.0
N3796 N 0.19173 0.66479 0.08095 0.0
C3797 C 0.22624 0.66143 0.0925 0.0
C3798 C 0.20613 0.63142 0.08467 0.0
C3799 C 0.20948 0.67363 0.08726 0.0
C3800 C 0.3017 0.63584 0.09477 0.0
N3801 N 0.28829 0.63244 0.11027 0.0
C3802 C 0.30512 0.65721 0.13125 0.0
C3803 C 0.2897 0.64266 0.12833 0.0
C3804 C 0.31922 0.66097 0.11548 0.0
C3805 C 0.31749 0.64995 0.09714 0.0
H3806 H 0.2998 0.62794 0.08037 0.0
H3807 H 0.27861 0.63979 0.14028 0.0
C3808 C 0.19609 0.59479 0.13582 0.0
N3809 N 0.2095 0.61028 0.13243 0.0
C3810 C 0.18029 0.59715 0.14993 0.0
C3811 C 0.19267 0.63127 0.1572 0.0
C3812 C 0.20809 0.62835 0.14265 0.0
C3813 C 0.17857 0.6155 0.16096 0.0
H3814 H 0.19798 0.58039 0.12793 0.0
H3815 H 0.21918 0.6403 0.13978 0.0
C3816 C 0.28267 0.58408 0.06879 0.0
N3817 N 0.30646 0.56275 0.04105 0.0
C3818 C 0.2735 0.57333 0.05274 0.0
C3819 C 0.304 0.58409 0.07061 0.0
C3820 C 0.28576 0.56262 0.0389 0.0
C3821 C 0.31574 0.57318 0.05647 0.0
C3822 C 0.21512 0.56881 0.08406 0.0
C3823 C 0.2243 0.55276 0.07331 0.0
C3824 C 0.19379 0.57062 0.08408 0.0
C3825 C 0.21203 0.53892 0.0626 0.0
C3826 C 0.18205 0.55648 0.07316 0.0
N3827 N 0.19134 0.54106 0.06273 0.0
C3828 C 0.24825 0.54021 0.11924 0.0
C3829 C 0.27833 0.54066 0.09901 0.0
C3830 C 0.24963 0.51903 0.12151 0.0
N3831 N 0.2622 0.55048 0.10776 0.0
C3832 C 0.28022 0.51945 0.10073 0.0
C3833 C 0.2655 0.50834 0.11175 0.0
H3834 H 0.23553 0.54842 0.12593 0.0
H3835 H 0.28941 0.54908 0.09018 0.0
C3836 C 0.24954 0.61926 0.04019 0.0
N3837 N 0.23558 0.60777 0.05046 0.0
C3838 C 0.24816 0.62152 0.01902 0.0
C3839 C 0.21757 0.60075 0.01943 0.0
C3840 C 0.21945 0.59903 0.04065 0.0
C3841 C 0.23229 0.61177 0.00833 0.0
H3842 H 0.26226 0.62595 0.04841 0.0
H3843 H 0.20837 0.5902 0.04906 0.0
O3844 O 0.25703 0.59645 0.12805 0.0
O3845 O 0.24075 0.62807 0.09643 0.0
O3846 O 0.27098 0.59484 0.08247 0.0
O3847 O 0.2268 0.58248 0.09482 0.0
H3848 H 0.25741 0.59759 0.1684 0.0
H3849 H 0.29327 0.5836 0.11501 0.0
H3850 H 0.2872 0.58825 0.19009 0.0
H3851 H 0.32238 0.57451 0.13754 0.0
H3852 H 0.1754 0.63755 0.0745 0.0
H3853 H 0.24038 0.66842 0.09757 0.0
H3854 H 0.20452 0.61502 0.0836 0.0
H3855 H 0.21059 0.69011 0.08823 0.0
H3856 H 0.30596 0.6655 0.14557 0.0
H3857 H 0.32781 0.65275 0.08447 0.0
H3858 H 0.16998 0.58448 0.15274 0.0
H3859 H 0.19184 0.64559 0.16549 0.0
H3860 H 0.2571 0.5733 0.05084 0.0
H3861 H 0.31144 0.59229 0.08292 0.0
H3862 H 0.27883 0.55424 0.02643 0.0
H3863 H 0.33224 0.57299 0.05777 0.0
H3864 H 0.2407 0.55087 0.07328 0.0
H3865 H 0.18634 0.58292 0.09227 0.0
H3866 H 0.21897 0.52645 0.05422 0.0
H3867 H 0.16555 0.55778 0.07297 0.0
H3868 H 0.23783 0.51102 0.12995 0.0
H3869 H 0.2928 0.51176 0.09317 0.0
H3870 H 0.25995 0.62996 0.01101 0.0
H3871 H 0.20498 0.59319 0.01174 0.0
Li3872 Li 0.38363 0.26651 0.10507 0.0
Li3873 Li 0.39271 0.23129 0.11416 0.0
Li3874 Li 0.41927 0.25565 0.10311 0.0
Li3875 Li 0.39467 0.24214 0.07852 0.0
C3876 C 0.40662 0.27328 0.14015 0.0
N3877 N 0.41684 0.30607 0.16477 0.0
C3878 C 0.40529 0.27155 0.16141 0.0
C3879 C 0.41311 0.29167 0.1314 0.0
C3880 C 0.41053 0.28831 0.17361 0.0
C3881 C 0.41823 0.30807 0.14411 0.0
C3882 C 0.35763 0.22452 0.09117 0.0
C3883 C 0.35367 0.18973 0.07956 0.0
N3884 N 0.333 0.19173 0.08096 0.0
C3885 C 0.33637 0.22625 0.09251 0.0
C3886 C 0.36638 0.20613 0.08467 0.0
C3887 C 0.32417 0.20949 0.08727 0.0
C3888 C 0.36196 0.30171 0.09477 0.0
N3889 N 0.36536 0.2883 0.11027 0.0
C3890 C 0.34059 0.30512 0.13125 0.0
C3891 C 0.35514 0.2897 0.12833 0.0
C3892 C 0.33682 0.31923 0.11548 0.0
C3893 C 0.34785 0.3175 0.09714 0.0
H3894 H 0.36986 0.29981 0.08037 0.0
H3895 H 0.358 0.27862 0.14028 0.0
C3896 C 0.40301 0.1961 0.13583 0.0
N3897 N 0.38752 0.2095 0.13243 0.0
C3898 C 0.40065 0.1803 0.14994 0.0
C3899 C 0.36653 0.19268 0.1572 0.0
C3900 C 0.36945 0.2081 0.14265 0.0
C3901 C 0.3823 0.17858 0.16096 0.0
H3902 H 0.41741 0.19799 0.12793 0.0
H3903 H 0.3575 0.21918 0.13978 0.0
C3904 C 0.41372 0.28267 0.06879 0.0
N3905 N 0.43506 0.30645 0.04104 0.0
C3906 C 0.42447 0.27349 0.05274 0.0
C3907 C 0.41371 0.304 0.0706 0.0
C3908 C 0.43519 0.28575 0.03891 0.0
C3909 C 0.42463 0.31574 0.05646 0.0
C3910 C 0.42899 0.21512 0.08406 0.0
C3911 C 0.44505 0.22429 0.07332 0.0
C3912 C 0.42717 0.19379 0.08408 0.0
C3913 C 0.45888 0.21202 0.06261 0.0
C3914 C 0.44131 0.18205 0.07317 0.0
N3915 N 0.45673 0.19133 0.06274 0.0
C3916 C 0.45759 0.24825 0.11924 0.0
C3917 C 0.45714 0.27834 0.09901 0.0
C3918 C 0.47877 0.24964 0.12151 0.0
N3919 N 0.44732 0.26221 0.10776 0.0
C3920 C 0.47835 0.28023 0.10073 0.0
C3921 C 0.48946 0.2655 0.11175 0.0
H3922 H 0.44938 0.23553 0.12593 0.0
H3923 H 0.44872 0.28942 0.09019 0.0
C3924 C 0.37854 0.24954 0.04019 0.0
N3925 N 0.39003 0.23559 0.05046 0.0
C3926 C 0.37628 0.24816 0.01902 0.0
C3927 C 0.39705 0.21757 0.01943 0.0
C3928 C 0.39878 0.21946 0.04065 0.0
C3929 C 0.38603 0.23229 0.00833 0.0
H3930 H 0.37185 0.26226 0.04841 0.0
H3931 H 0.4076 0.20838 0.04906 0.0
O3932 O 0.40135 0.25704 0.12805 0.0
O3933 O 0.36973 0.24076 0.09643 0.0
O3934 O 0.40296 0.27099 0.08247 0.0
O3935 O 0.41531 0.22681 0.09482 0.0
H3936 H 0.40022 0.25742 0.1684 0.0
H3937 H 0.41419 0.29328 0.115 0.0
H3938 H 0.40957 0.2872 0.19009 0.0
H3939 H 0.42329 0.32239 0.13753 0.0
H3940 H 0.36024 0.17541 0.07449 0.0
H3941 H 0.32938 0.24038 0.09758 0.0
H3942 H 0.38277 0.20452 0.08359 0.0
H3943 H 0.30769 0.2106 0.08825 0.0
H3944 H 0.33229 0.30596 0.14557 0.0
H3945 H 0.34505 0.32781 0.08447 0.0
H3946 H 0.41332 0.16999 0.15274 0.0
H3947 H 0.35221 0.19184 0.16549 0.0
H3948 H 0.4245 0.25709 0.05085 0.0
H3949 H 0.40551 0.31145 0.0829 0.0
H3950 H 0.44357 0.27881 0.02644 0.0
H3951 H 0.42482 0.33224 0.05775 0.0
H3952 H 0.44694 0.24069 0.07329 0.0
H3953 H 0.41486 0.18635 0.09228 0.0
H3954 H 0.47135 0.21896 0.05423 0.0
H3955 H 0.44 0.16555 0.07298 0.0
H3956 H 0.48678 0.23784 0.12995 0.0
H3957 H 0.48604 0.29281 0.09317 0.0
H3958 H 0.36783 0.25996 0.01101 0.0
H3959 H 0.40462 0.20499 0.01174 0.0
Li3960 Li 0.25565 0.41927 0.89467 0.0
Li3961 Li 0.24214 0.39467 0.91926 0.0
Li3962 Li 0.26651 0.38363 0.8927 0.0
Li3963 Li 0.23128 0.39271 0.88362 0.0
C3964 C 0.28268 0.41372 0.92898 0.0
N3965 N 0.30646 0.43505 0.95673 0.0
C3966 C 0.2735 0.42447 0.94504 0.0
C3967 C 0.304 0.41371 0.92717 0.0
C3968 C 0.28577 0.43518 0.95887 0.0
C3969 C 0.31574 0.42462 0.9413 0.0
C3970 C 0.21512 0.42899 0.91372 0.0
C3971 C 0.18206 0.44133 0.92462 0.0
N3972 N 0.19135 0.45675 0.93505 0.0
C3973 C 0.2243 0.44505 0.92447 0.0
C3974 C 0.19379 0.42719 0.9137 0.0
C3975 C 0.21204 0.45888 0.93518 0.0
C3976 C 0.24825 0.4576 0.87854 0.0
N3977 N 0.26221 0.44733 0.89002 0.0
C3978 C 0.28022 0.47836 0.89705 0.0
C3979 C 0.27833 0.45714 0.89877 0.0
C3980 C 0.2655 0.48946 0.88603 0.0
C3981 C 0.24963 0.47877 0.87627 0.0
H3982 H 0.23553 0.44938 0.87185 0.0
H3983 H 0.28941 0.44873 0.9076 0.0
C3984 C 0.24954 0.37855 0.95759 0.0
N3985 N 0.23558 0.39003 0.94732 0.0
C3986 C 0.24816 0.37628 0.97876 0.0
C3987 C 0.21757 0.39705 0.97834 0.0
C3988 C 0.21945 0.39878 0.95713 0.0
C3989 C 0.23229 0.38604 0.98945 0.0
H3990 H 0.26226 0.37186 0.94937 0.0
H3991 H 0.20837 0.4076 0.94871 0.0
C3992 C 0.27327 0.40662 0.85763 0.0
N3993 N 0.30606 0.41683 0.833 0.0
C3994 C 0.27155 0.40528 0.83637 0.0
C3995 C 0.29166 0.41312 0.86637 0.0
C3996 C 0.2883 0.41052 0.82417 0.0
C3997 C 0.30806 0.41823 0.85367 0.0
C3998 C 0.22452 0.35764 0.90661 0.0
C3999 C 0.22624 0.33637 0.90528 0.0
C4000 C 0.20613 0.36638 0.9131 0.0
C4001 C 0.20948 0.32418 0.91052 0.0
C4002 C 0.18973 0.35368 0.91822 0.0
N4003 N 0.19173 0.33301 0.91683 0.0
C4004 C 0.3017 0.36196 0.90301 0.0
C4005 C 0.2897 0.35514 0.86945 0.0
C4006 C 0.31749 0.34785 0.90064 0.0
N4007 N 0.28829 0.36536 0.88751 0.0
C4008 C 0.30512 0.34059 0.86652 0.0
C4009 C 0.31922 0.33683 0.8823 0.0
H4010 H 0.2998 0.36986 0.91741 0.0
H4011 H 0.27861 0.35801 0.8575 0.0
C4012 C 0.19609 0.40301 0.86196 0.0
N4013 N 0.2095 0.38752 0.86535 0.0
C4014 C 0.18029 0.40065 0.84785 0.0
C4015 C 0.19267 0.36653 0.84058 0.0
C4016 C 0.20809 0.36945 0.85513 0.0
C4017 C 0.17857 0.3823 0.83682 0.0
H4018 H 0.19798 0.41741 0.86985 0.0
H4019 H 0.21918 0.35751 0.858 0.0
O4020 O 0.27098 0.40296 0.91531 0.0
O4021 O 0.2268 0.41532 0.90296 0.0
O4022 O 0.25703 0.40136 0.86973 0.0
O4023 O 0.24076 0.36974 0.90135 0.0
H4024 H 0.2571 0.4245 0.94694 0.0
H4025 H 0.31144 0.40551 0.91486 0.0
H4026 H 0.27883 0.44356 0.97135 0.0
H4027 H 0.33224 0.42481 0.94 0.0
H4028 H 0.16556 0.44003 0.92481 0.0
H4029 H 0.2407 0.44693 0.9245 0.0
H4030 H 0.18634 0.41489 0.90551 0.0
H4031 H 0.21898 0.47135 0.94357 0.0
H4032 H 0.2928 0.48605 0.90461 0.0
H4033 H 0.23783 0.48678 0.86783 0.0
H4034 H 0.25996 0.36784 0.98677 0.0
H4035 H 0.20498 0.40461 0.98603 0.0
H4036 H 0.25741 0.40021 0.82938 0.0
H4037 H 0.29327 0.4142 0.88277 0.0
H4038 H 0.2872 0.40955 0.80768 0.0
H4039 H 0.32238 0.4233 0.86024 0.0
H4040 H 0.24038 0.32938 0.90022 0.0
H4041 H 0.20452 0.38278 0.91418 0.0
H4042 H 0.21059 0.30769 0.90956 0.0
H4043 H 0.1754 0.36025 0.92328 0.0
H4044 H 0.32781 0.34505 0.91331 0.0
H4045 H 0.30596 0.3323 0.8522 0.0
H4046 H 0.16998 0.41332 0.84504 0.0
H4047 H 0.19184 0.35221 0.83229 0.0
Li4048 Li 0.57853 0.25565 0.89466 0.0
Li4049 Li 0.60312 0.24214 0.91926 0.0
Li4050 Li 0.61416 0.26651 0.8927 0.0
Li4051 Li 0.60508 0.23129 0.88362 0.0
C4052 C 0.58407 0.28268 0.92898 0.0
N4053 N 0.56275 0.30646 0.95673 0.0
C4054 C 0.57332 0.2735 0.94504 0.0
C4055 C 0.58409 0.30401 0.92717 0.0
C4056 C 0.56262 0.28577 0.95887 0.0
C4057 C 0.57317 0.31575 0.94131 0.0
C4058 C 0.5688 0.21512 0.91372 0.0
C4059 C 0.55647 0.18206 0.92462 0.0
N4060 N 0.54105 0.19134 0.93504 0.0
C4061 C 0.55275 0.2243 0.92446 0.0
C4062 C 0.57061 0.19379 0.9137 0.0
C4063 C 0.53891 0.21204 0.93517 0.0
C4064 C 0.5402 0.24825 0.87854 0.0
N4065 N 0.55047 0.26221 0.89002 0.0
C4066 C 0.51944 0.28022 0.89705 0.0
C4067 C 0.54065 0.27834 0.89877 0.0
C4068 C 0.50833 0.2655 0.88603 0.0
C4069 C 0.51903 0.24964 0.87627 0.0
H4070 H 0.54841 0.23554 0.87185 0.0
H4071 H 0.54907 0.28942 0.90759 0.0
C4072 C 0.61925 0.24954 0.95759 0.0
N4073 N 0.60777 0.23559 0.94731 0.0
C4074 C 0.62152 0.24816 0.97876 0.0
C4075 C 0.60074 0.21757 0.97834 0.0
C4076 C 0.59902 0.21946 0.95713 0.0
C4077 C 0.61176 0.23229 0.98945 0.0
H4078 H 0.62594 0.26226 0.94937 0.0
H4079 H 0.59019 0.20838 0.94871 0.0
C4080 C 0.59118 0.27328 0.85763 0.0
N4081 N 0.58096 0.30607 0.833 0.0
C4082 C 0.59251 0.27155 0.83637 0.0
C4083 C 0.58468 0.29167 0.86637 0.0
C4084 C 0.58728 0.28831 0.82417 0.0
C4085 C 0.57957 0.30807 0.85367 0.0
C4086 C 0.64016 0.22452 0.90661 0.0
C4087 C 0.66142 0.22625 0.90528 0.0
C4088 C 0.63141 0.20613 0.9131 0.0
C4089 C 0.67362 0.20949 0.91052 0.0
C4090 C 0.64412 0.18973 0.91822 0.0
N4091 N 0.66479 0.19173 0.91683 0.0
C4092 C 0.63583 0.3017 0.90301 0.0
C4093 C 0.64266 0.2897 0.86944 0.0
C4094 C 0.64994 0.3175 0.90064 0.0
N4095 N 0.63243 0.2883 0.88751 0.0
C4096 C 0.65721 0.30512 0.86652 0.0
C4097 C 0.66097 0.31922 0.88229 0.0
H4098 H 0.62794 0.29981 0.91741 0.0
H4099 H 0.63979 0.27861 0.8575 0.0
C4100 C 0.59478 0.19609 0.86195 0.0
N4101 N 0.61028 0.2095 0.86535 0.0
C4102 C 0.59715 0.1803 0.84784 0.0
C4103 C 0.63126 0.19268 0.84058 0.0
C4104 C 0.62834 0.2081 0.85513 0.0
C4105 C 0.61549 0.17857 0.83682 0.0
H4106 H 0.58038 0.19799 0.86985 0.0
H4107 H 0.64029 0.21919 0.858 0.0
O4108 O 0.59483 0.27099 0.91531 0.0
O4109 O 0.58248 0.22681 0.90295 0.0
O4110 O 0.59644 0.25704 0.86973 0.0
O4111 O 0.62806 0.24076 0.90134 0.0
H4112 H 0.5733 0.2571 0.94693 0.0
H4113 H 0.59228 0.31145 0.91486 0.0
H4114 H 0.55423 0.27883 0.97134 0.0
H4115 H 0.57298 0.33224 0.94001 0.0
H4116 H 0.55777 0.16556 0.92481 0.0
H4117 H 0.55086 0.2407 0.92449 0.0
H4118 H 0.58292 0.18635 0.90551 0.0
H4119 H 0.52644 0.21898 0.94356 0.0
H4120 H 0.51175 0.29281 0.90461 0.0
H4121 H 0.51102 0.23784 0.86783 0.0
H4122 H 0.62996 0.25996 0.98677 0.0
H4123 H 0.59318 0.20499 0.98603 0.0
H4124 H 0.59759 0.25742 0.82938 0.0
H4125 H 0.5836 0.29328 0.88277 0.0
H4126 H 0.58824 0.2872 0.80768 0.0
H4127 H 0.5745 0.32239 0.86024 0.0
H4128 H 0.66841 0.24038 0.90021 0.0
H4129 H 0.61502 0.20452 0.91418 0.0
H4130 H 0.6901 0.2106 0.90955 0.0
H4131 H 0.63755 0.17541 0.92328 0.0
H4132 H 0.65275 0.32781 0.91331 0.0
H4133 H 0.6655 0.30596 0.8522 0.0
H4134 H 0.58448 0.16999 0.84504 0.0
H4135 H 0.64558 0.19184 0.83229 0.0
Li4136 Li 0.39467 0.75566 0.91926 0.0
Li4137 Li 0.41927 0.74215 0.89467 0.0
Li4138 Li 0.39271 0.76651 0.88362 0.0
Li4139 Li 0.38363 0.73129 0.8927 0.0
C4140 C 0.42899 0.78268 0.91372 0.0
N4141 N 0.45674 0.80647 0.93504 0.0
C4142 C 0.44504 0.77351 0.92446 0.0
C4143 C 0.42717 0.80401 0.9137 0.0
C4144 C 0.45888 0.78577 0.93517 0.0
C4145 C 0.44131 0.81575 0.92461 0.0
C4146 C 0.41372 0.71513 0.92899 0.0
C4147 C 0.42462 0.68206 0.94132 0.0
N4148 N 0.43505 0.69135 0.95674 0.0
C4149 C 0.42447 0.72431 0.94504 0.0
C4150 C 0.41371 0.6938 0.92718 0.0
C4151 C 0.43518 0.71204 0.95887 0.0
C4152 C 0.37854 0.74826 0.95759 0.0
N4153 N 0.39003 0.76222 0.94732 0.0
C4154 C 0.39705 0.78023 0.97834 0.0
C4155 C 0.39878 0.77835 0.95713 0.0
C4156 C 0.38603 0.76551 0.98945 0.0
C4157 C 0.37628 0.74964 0.97876 0.0
H4158 H 0.37185 0.73554 0.94937 0.0
H4159 H 0.4076 0.78942 0.94872 0.0
C4160 C 0.45759 0.74955 0.87854 0.0
N4161 N 0.44732 0.73559 0.89002 0.0
C4162 C 0.47877 0.74817 0.87627 0.0
C4163 C 0.47835 0.71758 0.89705 0.0
C4164 C 0.45714 0.71946 0.89877 0.0
C4165 C 0.48946 0.7323 0.88603 0.0
H4166 H 0.44938 0.76227 0.87185 0.0
H4167 H 0.44872 0.70838 0.90759 0.0
C4168 C 0.35763 0.77328 0.90661 0.0
N4169 N 0.333 0.80607 0.91682 0.0
C4170 C 0.33637 0.77156 0.90527 0.0
C4171 C 0.36638 0.79167 0.91311 0.0
C4172 C 0.32417 0.78831 0.91051 0.0
C4173 C 0.35367 0.80807 0.91822 0.0
C4174 C 0.40662 0.72452 0.85763 0.0
C4175 C 0.40529 0.72625 0.83637 0.0
C4176 C 0.41311 0.70613 0.86638 0.0
C4177 C 0.41053 0.70949 0.82417 0.0
C4178 C 0.41823 0.68973 0.85367 0.0
N4179 N 0.41684 0.69173 0.833 0.0
C4180 C 0.40301 0.80171 0.86195 0.0
C4181 C 0.36945 0.78971 0.85513 0.0
C4182 C 0.40065 0.8175 0.84784 0.0
N4183 N 0.38752 0.7883 0.86535 0.0
C4184 C 0.36653 0.80513 0.84058 0.0
C4185 C 0.3823 0.81923 0.83682 0.0
H4186 H 0.41741 0.79981 0.86985 0.0
H4187 H 0.3575 0.77862 0.858 0.0
C4188 C 0.36196 0.6961 0.90301 0.0
N4189 N 0.36536 0.7095 0.88751 0.0
C4190 C 0.34785 0.6803 0.90064 0.0
C4191 C 0.34059 0.69268 0.86653 0.0
C4192 C 0.35514 0.7081 0.86945 0.0
C4193 C 0.33682 0.67858 0.8823 0.0
H4194 H 0.36986 0.69799 0.91741 0.0
H4195 H 0.358 0.71919 0.8575 0.0
O4196 O 0.41531 0.77099 0.90295 0.0
O4197 O 0.40296 0.72681 0.91531 0.0
O4198 O 0.36973 0.75704 0.90135 0.0
O4199 O 0.40135 0.74076 0.86973 0.0
H4200 H 0.44694 0.75711 0.92449 0.0
H4201 H 0.41487 0.81145 0.9055 0.0
H4202 H 0.47135 0.77884 0.94355 0.0
H4203 H 0.44001 0.83225 0.9248 0.0
H4204 H 0.42481 0.66556 0.94002 0.0
H4205 H 0.4245 0.74071 0.94693 0.0
H4206 H 0.40551 0.68635 0.91487 0.0
H4207 H 0.44357 0.71898 0.97134 0.0
H4208 H 0.40462 0.79281 0.98603 0.0
H4209 H 0.36783 0.73784 0.98677 0.0
H4210 H 0.48678 0.75996 0.86783 0.0
H4211 H 0.48604 0.70499 0.90461 0.0
H4212 H 0.32938 0.75742 0.9002 0.0
H4213 H 0.38277 0.79328 0.91419 0.0
H4214 H 0.30769 0.7872 0.90954 0.0
H4215 H 0.36024 0.82239 0.92328 0.0
H4216 H 0.40022 0.74039 0.82938 0.0
H4217 H 0.41419 0.70452 0.88277 0.0
H4218 H 0.40956 0.7106 0.80769 0.0
H4219 H 0.42329 0.67541 0.86024 0.0
H4220 H 0.41332 0.82782 0.84504 0.0
H4221 H 0.35221 0.80596 0.83229 0.0
H4222 H 0.34505 0.66999 0.91331 0.0
H4223 H 0.33229 0.69184 0.8522 0.0
loop_
_geom_bond_atom_site_label_1
_geom_bond_atom_site_label_2
_geom_bond_distance
_geom_bond_site_symmetry_2
_ccdc_geom_bond_type
Li0 N17 1.990 . S
Li0 O60 1.956 . S
Li0 O61 1.970 . S
Li0 O62 1.961 . S
Li1 N25 1.990 . S
Li1 O60 1.970 . S
Li1 O61 1.956 . S
Li1 O63 1.961 . S
Li2 N47 1.990 . S
Li2 O60 1.961 . S
Li2 O62 1.956 . S
Li2 O63 1.970 . S
Li3 N53 1.990 . S
Li3 O61 1.961 . S
Li3 O62 1.970 . S
Li3 O63 1.956 . S
C4 C6 1.348 . S
C4 C7 1.356 . S
C4 O60 1.325 . S
N5 C8 1.314 . S
N5 C9 1.279 . S
C6 C4 1.348 . S
C6 C8 1.353 . S
C6 H64 0.929 . S
C7 C4 1.356 . S
C7 C9 1.358 . S
C7 H65 0.930 . S
C8 N5 1.314 . S
C8 C6 1.353 . S
C8 H66 0.930 . S
C9 N5 1.279 . S
C9 C7 1.358 . S
C9 H67 0.930 . S
C10 C13 1.348 . S
C10 C14 1.356 . S
C10 O61 1.325 . S
C11 N12 1.279 . S
C11 C14 1.358 . S
C11 H68 0.930 . S
N12 C11 1.279 . S
N12 C15 1.314 . S
C13 C10 1.348 . S
C13 C15 1.353 . S
C13 H69 0.929 . S
C14 C10 1.356 . S
C14 C11 1.358 . S
C14 H70 0.930 . S
C15 N12 1.314 . S
C15 C13 1.353 . S
C15 H71 0.930 . S
C16 N17 1.314 . S
C16 C21 1.353 . S
C16 H22 0.930 . S
N17 Li0 1.990 . S
N17 C16 1.314 . S
N17 C19 1.279 . S
C18 C19 1.358 . S
C18 C20 1.356 . S
C18 H72 0.930 . S
C19 N17 1.279 . S
C19 C18 1.358 . S
C19 H23 0.930 . S
C20 C18 1.356 . S
C20 C21 1.348 . S
C21 C16 1.353 . S
C21 C20 1.348 . S
C21 H73 0.929 . S
H22 C16 0.930 . S
H23 C19 0.930 . S
C24 N25 1.314 . S
C24 C26 1.353 . S
C24 H30 0.930 . S
N25 Li1 1.990 . S
N25 C24 1.314 . S
N25 C28 1.279 . S
C26 C24 1.353 . S
C26 C29 1.348 . S
C26 H74 0.929 . S
C27 C28 1.358 . S
C27 C29 1.356 . S
C27 H75 0.930 . S
C28 N25 1.279 . S
C28 C27 1.358 . S
C28 H31 0.930 . S
C29 C26 1.348 . S
C29 C27 1.356 . S
H30 C24 0.930 . S
H31 C28 0.930 . S
C32 C34 1.348 . S
C32 C35 1.356 . S
C32 O62 1.325 . S
N33 C36 1.314 . S
N33 C37 1.279 . S
C34 C32 1.348 . S
C34 C36 1.353 . S
C34 H76 0.929 . S
C35 C32 1.356 . S
C35 C37 1.358 . S
C35 H77 0.930 . S
C36 N33 1.314 . S
C36 C34 1.353 . S
C36 H78 0.930 . S
C37 N33 1.279 . S
C37 C35 1.358 . S
C37 H79 0.930 . S
C38 C39 1.348 . S
C38 C40 1.356 . S
C38 O63 1.325 . S
C39 C38 1.348 . S
C39 C41 1.353 . S
C39 H80 0.929 . S
C40 C38 1.356 . S
C40 C42 1.358 . S
C40 H81 0.930 . S
C41 C39 1.353 . S
C41 N43 1.314 . S
C41 H82 0.930 . S
C42 C40 1.358 . S
C42 N43 1.279 . S
C42 H83 0.930 . S
N43 C41 1.314 . S
N43 C42 1.279 . S
C44 C46 1.353 . S
C44 N47 1.314 . S
C44 H50 0.930 . S
C45 N47 1.279 . S
C45 C48 1.358 . S
C45 H51 0.930 . S
C46 C44 1.353 . S
C46 C49 1.348 . S
C46 H84 0.929 . S
N47 Li2 1.990 . S
N47 C44 1.314 . S
N47 C45 1.279 . S
C48 C45 1.358 . S
C48 C49 1.356 . S
C48 H85 0.930 . S
C49 C46 1.348 . S
C49 C48 1.356 . S
H50 C44 0.930 . S
H51 C45 0.930 . S
C52 N53 1.314 . S
C52 C54 1.353 . S
C52 H58 0.930 . S
N53 Li3 1.990 . S
N53 C52 1.314 . S
N53 C56 1.279 . S
C54 C52 1.353 . S
C54 C57 1.348 . S
C54 H86 0.929 . S
C55 C56 1.358 . S
C55 C57 1.356 . S
C55 H87 0.930 . S
C56 N53 1.279 . S
C56 C55 1.358 . S
C56 H59 0.930 . S
C57 C54 1.348 . S
C57 C55 1.356 . S
H58 C52 0.930 . S
H59 C56 0.930 . S
O60 Li0 1.956 . S
O60 Li1 1.970 . S
O60 Li2 1.961 . S
O60 C4 1.325 . S
O61 Li0 1.970 . S
O61 Li1 1.956 . S
O61 Li3 1.961 . S
O61 C10 1.325 . S
O62 Li0 1.961 . S
O62 Li2 1.956 . S
O62 Li3 1.970 . S
O62 C32 1.325 . S
O63 Li1 1.961 . S
O63 Li2 1.970 . S
O63 Li3 1.956 . S
O63 C38 1.325 . S
H64 C6 0.929 . S
H65 C7 0.930 . S
H66 C8 0.930 . S
H67 C9 0.930 . S
H68 C11 0.930 . S
H69 C13 0.929 . S
H70 C14 0.930 . S
H71 C15 0.930 . S
H72 C18 0.930 . S
H73 C21 0.929 . S
H74 C26 0.929 . S
H75 C27 0.930 . S
H76 C34 0.929 . S
H77 C35 0.930 . S
H78 C36 0.930 . S
H79 C37 0.930 . S
H80 C39 0.929 . S
H81 C40 0.930 . S
H82 C41 0.930 . S
H83 C42 0.930 . S
H84 C46 0.929 . S
H85 C48 0.930 . S
H86 C54 0.929 . S
H87 C55 0.930 . S
Li88 N105 1.990 . S
Li88 O148 1.956 . S
Li88 O149 1.970 . S
Li88 O150 1.961 . S
Li89 N113 1.990 . S
Li89 O148 1.970 . S
Li89 O149 1.956 . S
Li89 O151 1.961 . S
Li90 N135 1.990 . S
Li90 O148 1.961 . S
Li90 O150 1.956 . S
Li90 O151 1.970 . S
Li91 N141 1.990 . S
Li91 O149 1.961 . S
Li91 O150 1.970 . S
Li91 O151 1.956 . S
C92 C94 1.348 . S
C92 C95 1.356 . S
C92 O148 1.325 . S
N93 C96 1.314 . S
N93 C97 1.279 . S
C94 C92 1.348 . S
C94 C96 1.353 . S
C94 H152 0.929 . S
C95 C92 1.356 . S
C95 C97 1.358 . S
C95 H153 0.930 . S
C96 N93 1.314 . S
C96 C94 1.353 . S
C96 H154 0.930 . S
C97 N93 1.279 . S
C97 C95 1.358 . S
C97 H155 0.930 . S
C98 C101 1.348 . S
C98 C102 1.356 . S
C98 O149 1.325 . S
C99 N100 1.279 . S
C99 C102 1.358 . S
C99 H156 0.930 . S
N100 C99 1.279 . S
N100 C103 1.314 . S
C101 C98 1.348 . S
C101 C103 1.353 . S
C101 H157 0.929 . S
C102 C98 1.356 . S
C102 C99 1.358 . S
C102 H158 0.930 . S
C103 N100 1.314 . S
C103 C101 1.353 . S
C103 H159 0.930 . S
C104 N105 1.314 . S
C104 C109 1.353 . S
C104 H110 0.930 . S
N105 Li88 1.990 . S
N105 C104 1.314 . S
N105 C107 1.279 . S
C106 C107 1.358 . S
C106 C108 1.356 . S
C106 H160 0.930 . S
C107 N105 1.279 . S
C107 C106 1.358 . S
C107 H111 0.930 . S
C108 C106 1.356 . S
C108 C109 1.348 . S
C109 C104 1.353 . S
C109 C108 1.348 . S
C109 H161 0.929 . S
H110 C104 0.930 . S
H111 C107 0.930 . S
C112 N113 1.314 . S
C112 C114 1.353 . S
C112 H118 0.930 . S
N113 Li89 1.990 . S
N113 C112 1.314 . S
N113 C116 1.279 . S
C114 C112 1.353 . S
C114 C117 1.348 . S
C114 H162 0.929 . S
C115 C116 1.358 . S
C115 C117 1.356 . S
C115 H163 0.930 . S
C116 N113 1.279 . S
C116 C115 1.358 . S
C116 H119 0.930 . S
C117 C114 1.348 . S
C117 C115 1.356 . S
H118 C112 0.930 . S
H119 C116 0.930 . S
C120 C122 1.348 . S
C120 C123 1.356 . S
C120 O150 1.325 . S
N121 C124 1.314 . S
N121 C125 1.279 . S
C122 C120 1.348 . S
C122 C124 1.353 . S
C122 H164 0.929 . S
C123 C120 1.356 . S
C123 C125 1.358 . S
C123 H165 0.930 . S
C124 N121 1.314 . S
C124 C122 1.353 . S
C124 H166 0.930 . S
C125 N121 1.279 . S
C125 C123 1.358 . S
C125 H167 0.930 . S
C126 C127 1.348 . S
C126 C128 1.356 . S
C126 O151 1.325 . S
C127 C126 1.348 . S
C127 C129 1.353 . S
C127 H168 0.929 . S
C128 C126 1.356 . S
C128 C130 1.358 . S
C128 H169 0.930 . S
C129 C127 1.353 . S
C129 N131 1.314 . S
C129 H170 0.930 . S
C130 C128 1.358 . S
C130 N131 1.279 . S
C130 H171 0.930 . S
N131 C129 1.314 . S
N131 C130 1.279 . S
C132 C134 1.353 . S
C132 N135 1.314 . S
C132 H138 0.930 . S
C133 N135 1.279 . S
C133 C136 1.358 . S
C133 H139 0.930 . S
C134 C132 1.353 . S
C134 C137 1.348 . S
C134 H172 0.929 . S
N135 Li90 1.990 . S
N135 C132 1.314 . S
N135 C133 1.279 . S
C136 C133 1.358 . S
C136 C137 1.356 . S
C136 H173 0.930 . S
C137 C134 1.348 . S
C137 C136 1.356 . S
H138 C132 0.930 . S
H139 C133 0.930 . S
C140 N141 1.314 . S
C140 C142 1.353 . S
C140 H146 0.930 . S
N141 Li91 1.990 . S
N141 C140 1.314 . S
N141 C144 1.279 . S
C142 C140 1.353 . S
C142 C145 1.348 . S
C142 H174 0.929 . S
C143 C144 1.358 . S
C143 C145 1.356 . S
C143 H175 0.930 . S
C144 N141 1.279 . S
C144 C143 1.358 . S
C144 H147 0.930 . S
C145 C142 1.348 . S
C145 C143 1.356 . S
H146 C140 0.930 . S
H147 C144 0.930 . S
O148 Li88 1.956 . S
O148 Li89 1.970 . S
O148 Li90 1.961 . S
O148 C92 1.325 . S
O149 Li88 1.970 . S
O149 Li89 1.956 . S
O149 Li91 1.961 . S
O149 C98 1.325 . S
O150 Li88 1.961 . S
O150 Li90 1.956 . S
O150 Li91 1.970 . S
O150 C120 1.325 . S
O151 Li89 1.961 . S
O151 Li90 1.970 . S
O151 Li91 1.956 . S
O151 C126 1.325 . S
H152 C94 0.929 . S
H153 C95 0.930 . S
H154 C96 0.930 . S
H155 C97 0.930 . S
H156 C99 0.930 . S
H157 C101 0.929 . S
H158 C102 0.930 . S
H159 C103 0.930 . S
H160 C106 0.930 . S
H161 C109 0.929 . S
H162 C114 0.929 . S
H163 C115 0.930 . S
H164 C122 0.929 . S
H165 C123 0.930 . S
H166 C124 0.930 . S
H167 C125 0.930 . S
H168 C127 0.929 . S
H169 C128 0.930 . S
H170 C129 0.930 . S
H171 C130 0.930 . S
H172 C134 0.929 . S
H173 C136 0.930 . S
H174 C142 0.929 . S
H175 C143 0.930 . S
Li176 N193 1.990 . S
Li176 O236 1.956 . S
Li176 O237 1.970 . S
Li176 O238 1.961 . S
Li177 N201 1.990 . S
Li177 O236 1.970 . S
Li177 O237 1.956 . S
Li177 O239 1.961 . S
Li178 N223 1.990 . S
Li178 O236 1.961 . S
Li178 O238 1.956 . S
Li178 O239 1.970 . S
Li179 N229 1.990 . S
Li179 O237 1.961 . S
Li179 O238 1.970 . S
Li179 O239 1.956 . S
C180 C182 1.348 . S
C180 C183 1.356 . S
C180 O236 1.325 . S
N181 C184 1.314 . S
N181 C185 1.279 . S
C182 C180 1.348 . S
C182 C184 1.353 . S
C182 H240 0.929 . S
C183 C180 1.356 . S
C183 C185 1.358 . S
C183 H241 0.930 . S
C184 N181 1.314 . S
C184 C182 1.353 . S
C184 H242 0.930 . S
C185 N181 1.279 . S
C185 C183 1.358 . S
C185 H243 0.930 . S
C186 C189 1.348 . S
C186 C190 1.356 . S
C186 O237 1.325 . S
C187 N188 1.279 . S
C187 C190 1.358 . S
C187 H244 0.930 . S
N188 C187 1.279 . S
N188 C191 1.314 . S
C189 C186 1.348 . S
C189 C191 1.353 . S
C189 H245 0.929 . S
C190 C186 1.356 . S
C190 C187 1.358 . S
C190 H246 0.930 . S
C191 N188 1.314 . S
C191 C189 1.353 . S
C191 H247 0.930 . S
C192 N193 1.314 . S
C192 C197 1.353 . S
C192 H198 0.930 . S
N193 Li176 1.990 . S
N193 C192 1.314 . S
N193 C195 1.279 . S
C194 C195 1.358 . S
C194 C196 1.356 . S
C194 H248 0.930 . S
C195 N193 1.279 . S
C195 C194 1.358 . S
C195 H199 0.930 . S
C196 C194 1.356 . S
C196 C197 1.348 . S
C197 C192 1.353 . S
C197 C196 1.348 . S
C197 H249 0.929 . S
H198 C192 0.930 . S
H199 C195 0.930 . S
C200 N201 1.314 . S
C200 C202 1.353 . S
C200 H206 0.930 . S
N201 Li177 1.990 . S
N201 C200 1.314 . S
N201 C204 1.279 . S
C202 C200 1.353 . S
C202 C205 1.348 . S
C202 H250 0.929 . S
C203 C204 1.358 . S
C203 C205 1.356 . S
C203 H251 0.930 . S
C204 N201 1.279 . S
C204 C203 1.358 . S
C204 H207 0.930 . S
C205 C202 1.348 . S
C205 C203 1.356 . S
H206 C200 0.930 . S
H207 C204 0.930 . S
C208 C210 1.348 . S
C208 C211 1.356 . S
C208 O238 1.325 . S
N209 C212 1.314 . S
N209 C213 1.279 . S
C210 C208 1.348 . S
C210 C212 1.353 . S
C210 H252 0.929 . S
C211 C208 1.356 . S
C211 C213 1.358 . S
C211 H253 0.930 . S
C212 N209 1.314 . S
C212 C210 1.353 . S
C212 H254 0.930 . S
C213 N209 1.279 . S
C213 C211 1.358 . S
C213 H255 0.930 . S
C214 C215 1.348 . S
C214 C216 1.356 . S
C214 O239 1.325 . S
C215 C214 1.348 . S
C215 C217 1.353 . S
C215 H256 0.929 . S
C216 C214 1.356 . S
C216 C218 1.358 . S
C216 H257 0.930 . S
C217 C215 1.353 . S
C217 N219 1.314 . S
C217 H258 0.930 . S
C218 C216 1.358 . S
C218 N219 1.279 . S
C218 H259 0.930 . S
N219 C217 1.314 . S
N219 C218 1.279 . S
C220 C222 1.353 . S
C220 N223 1.314 . S
C220 H226 0.930 . S
C221 N223 1.279 . S
C221 C224 1.358 . S
C221 H227 0.930 . S
C222 C220 1.353 . S
C222 C225 1.348 . S
C222 H260 0.929 . S
N223 Li178 1.990 . S
N223 C220 1.314 . S
N223 C221 1.279 . S
C224 C221 1.358 . S
C224 C225 1.356 . S
C224 H261 0.930 . S
C225 C222 1.348 . S
C225 C224 1.356 . S
H226 C220 0.930 . S
H227 C221 0.930 . S
C228 N229 1.314 . S
C228 C230 1.353 . S
C228 H234 0.930 . S
N229 Li179 1.990 . S
N229 C228 1.314 . S
N229 C232 1.279 . S
C230 C228 1.353 . S
C230 C233 1.348 . S
C230 H262 0.929 . S
C231 C232 1.358 . S
C231 C233 1.356 . S
C231 H263 0.930 . S
C232 N229 1.279 . S
C232 C231 1.358 . S
C232 H235 0.930 . S
C233 C230 1.348 . S
C233 C231 1.356 . S
H234 C228 0.930 . S
H235 C232 0.930 . S
O236 Li176 1.956 . S
O236 Li177 1.970 . S
O236 Li178 1.961 . S
O236 C180 1.325 . S
O237 Li176 1.970 . S
O237 Li177 1.956 . S
O237 Li179 1.961 . S
O237 C186 1.325 . S
O238 Li176 1.961 . S
O238 Li178 1.956 . S
O238 Li179 1.970 . S
O238 C208 1.325 . S
O239 Li177 1.961 . S
O239 Li178 1.970 . S
O239 Li179 1.956 . S
O239 C214 1.325 . S
H240 C182 0.929 . S
H241 C183 0.930 . S
H242 C184 0.930 . S
H243 C185 0.930 . S
H244 C187 0.930 . S
H245 C189 0.929 . S
H246 C190 0.930 . S
H247 C191 0.930 . S
H248 C194 0.930 . S
H249 C197 0.929 . S
H250 C202 0.929 . S
H251 C203 0.930 . S
H252 C210 0.929 . S
H253 C211 0.930 . S
H254 C212 0.930 . S
H255 C213 0.930 . S
H256 C215 0.929 . S
H257 C216 0.930 . S
H258 C217 0.930 . S
H259 C218 0.930 . S
H260 C222 0.929 . S
H261 C224 0.930 . S
H262 C230 0.929 . S
H263 C231 0.930 . S
Li264 N281 1.990 . S
Li264 O324 1.956 . S
Li264 O325 1.970 . S
Li264 O326 1.961 . S
Li265 N289 1.990 . S
Li265 O324 1.970 . S
Li265 O325 1.956 . S
Li265 O327 1.961 . S
Li266 N311 1.990 . S
Li266 O324 1.961 . S
Li266 O326 1.956 . S
Li266 O327 1.970 . S
Li267 N317 1.990 . S
Li267 O325 1.961 . S
Li267 O326 1.970 . S
Li267 O327 1.956 . S
C268 C270 1.348 . S
C268 C271 1.356 . S
C268 O324 1.325 . S
N269 C272 1.314 . S
N269 C273 1.279 . S
C270 C268 1.348 . S
C270 C272 1.353 . S
C270 H328 0.929 . S
C271 C268 1.356 . S
C271 C273 1.358 . S
C271 H329 0.930 . S
C272 N269 1.314 . S
C272 C270 1.353 . S
C272 H330 0.930 . S
C273 N269 1.279 . S
C273 C271 1.358 . S
C273 H331 0.930 . S
C274 C277 1.348 . S
C274 C278 1.356 . S
C274 O325 1.325 . S
C275 N276 1.279 . S
C275 C278 1.358 . S
C275 H332 0.930 . S
N276 C275 1.279 . S
N276 C279 1.314 . S
C277 C274 1.348 . S
C277 C279 1.353 . S
C277 H333 0.929 . S
C278 C274 1.356 . S
C278 C275 1.358 . S
C278 H334 0.930 . S
C279 N276 1.314 . S
C279 C277 1.353 . S
C279 H335 0.930 . S
C280 N281 1.314 . S
C280 C285 1.353 . S
C280 H286 0.930 . S
N281 Li264 1.990 . S
N281 C280 1.314 . S
N281 C283 1.279 . S
C282 C283 1.358 . S
C282 C284 1.356 . S
C282 H336 0.930 . S
C283 N281 1.279 . S
C283 C282 1.358 . S
C283 H287 0.930 . S
C284 C282 1.356 . S
C284 C285 1.348 . S
C285 C280 1.353 . S
C285 C284 1.348 . S
C285 H337 0.929 . S
H286 C280 0.930 . S
H287 C283 0.930 . S
C288 N289 1.314 . S
C288 C290 1.353 . S
C288 H294 0.930 . S
N289 Li265 1.990 . S
N289 C288 1.314 . S
N289 C292 1.279 . S
C290 C288 1.353 . S
C290 C293 1.348 . S
C290 H338 0.929 . S
C291 C292 1.358 . S
C291 C293 1.356 . S
C291 H339 0.930 . S
C292 N289 1.279 . S
C292 C291 1.358 . S
C292 H295 0.930 . S
C293 C290 1.348 . S
C293 C291 1.356 . S
H294 C288 0.930 . S
H295 C292 0.930 . S
C296 C298 1.348 . S
C296 C299 1.356 . S
C296 O326 1.325 . S
N297 C300 1.314 . S
N297 C301 1.279 . S
C298 C296 1.348 . S
C298 C300 1.353 . S
C298 H340 0.929 . S
C299 C296 1.356 . S
C299 C301 1.358 . S
C299 H341 0.930 . S
C300 N297 1.314 . S
C300 C298 1.353 . S
C300 H342 0.930 . S
C301 N297 1.279 . S
C301 C299 1.358 . S
C301 H343 0.930 . S
C302 C303 1.348 . S
C302 C304 1.356 . S
C302 O327 1.325 . S
C303 C302 1.348 . S
C303 C305 1.353 . S
C303 H344 0.929 . S
C304 C302 1.356 . S
C304 C306 1.358 . S
C304 H345 0.930 . S
C305 C303 1.353 . S
C305 N307 1.314 . S
C305 H346 0.930 . S
C306 C304 1.358 . S
C306 N307 1.279 . S
C306 H347 0.930 . S
N307 C305 1.314 . S
N307 C306 1.279 . S
C308 C310 1.353 . S
C308 N311 1.314 . S
C308 H314 0.930 . S
C309 N311 1.279 . S
C309 C312 1.358 . S
C309 H315 0.930 . S
C310 C308 1.353 . S
C310 C313 1.348 . S
C310 H348 0.929 . S
N311 Li266 1.990 . S
N311 C308 1.314 . S
N311 C309 1.279 . S
C312 C309 1.358 . S
C312 C313 1.356 . S
C312 H349 0.930 . S
C313 C310 1.348 . S
C313 C312 1.356 . S
H314 C308 0.930 . S
H315 C309 0.930 . S
C316 N317 1.314 . S
C316 C318 1.353 . S
C316 H322 0.930 . S
N317 Li267 1.990 . S
N317 C316 1.314 . S
N317 C320 1.279 . S
C318 C316 1.353 . S
C318 C321 1.348 . S
C318 H350 0.929 . S
C319 C320 1.358 . S
C319 C321 1.356 . S
C319 H351 0.930 . S
C320 N317 1.279 . S
C320 C319 1.358 . S
C320 H323 0.930 . S
C321 C318 1.348 . S
C321 C319 1.356 . S
H322 C316 0.930 . S
H323 C320 0.930 . S
O324 Li264 1.956 . S
O324 Li265 1.970 . S
O324 Li266 1.961 . S
O324 C268 1.325 . S
O325 Li264 1.970 . S
O325 Li265 1.956 . S
O325 Li267 1.961 . S
O325 C274 1.325 . S
O326 Li264 1.961 . S
O326 Li266 1.956 . S
O326 Li267 1.970 . S
O326 C296 1.325 . S
O327 Li265 1.961 . S
O327 Li266 1.970 . S
O327 Li267 1.956 . S
O327 C302 1.325 . S
H328 C270 0.929 . S
H329 C271 0.930 . S
H330 C272 0.930 . S
H331 C273 0.930 . S
H332 C275 0.930 . S
H333 C277 0.929 . S
H334 C278 0.930 . S
H335 C279 0.930 . S
H336 C282 0.930 . S
H337 C285 0.929 . S
H338 C290 0.929 . S
H339 C291 0.930 . S
H340 C298 0.929 . S
H341 C299 0.930 . S
H342 C300 0.930 . S
H343 C301 0.930 . S
H344 C303 0.929 . S
H345 C304 0.930 . S
H346 C305 0.930 . S
H347 C306 0.930 . S
H348 C310 0.929 . S
H349 C312 0.930 . S
H350 C318 0.929 . S
H351 C319 0.930 . S
Li352 N369 1.990 . S
Li352 O412 1.956 . S
Li352 O413 1.970 . S
Li352 O414 1.961 . S
Li353 N377 1.990 . S
Li353 O412 1.970 . S
Li353 O413 1.956 . S
Li353 O415 1.961 . S
Li354 N399 1.990 . S
Li354 O412 1.961 . S
Li354 O414 1.956 . S
Li354 O415 1.970 . S
Li355 N405 1.990 . S
Li355 O413 1.961 . S
Li355 O414 1.970 . S
Li355 O415 1.956 . S
C356 C358 1.348 . S
C356 C359 1.356 . S
C356 O412 1.325 . S
N357 C360 1.314 . S
N357 C361 1.279 . S
C358 C356 1.348 . S
C358 C360 1.353 . S
C358 H416 0.929 . S
C359 C356 1.356 . S
C359 C361 1.358 . S
C359 H417 0.930 . S
C360 N357 1.314 . S
C360 C358 1.353 . S
C360 H418 0.930 . S
C361 N357 1.279 . S
C361 C359 1.358 . S
C361 H419 0.930 . S
C362 C365 1.348 . S
C362 C366 1.356 . S
C362 O413 1.325 . S
C363 N364 1.279 . S
C363 C366 1.358 . S
C363 H420 0.930 . S
N364 C363 1.279 . S
N364 C367 1.314 . S
C365 C362 1.348 . S
C365 C367 1.353 . S
C365 H421 0.929 . S
C366 C362 1.356 . S
C366 C363 1.358 . S
C366 H422 0.930 . S
C367 N364 1.314 . S
C367 C365 1.353 . S
C367 H423 0.930 . S
C368 N369 1.314 . S
C368 C373 1.353 . S
C368 H374 0.930 . S
N369 Li352 1.990 . S
N369 C368 1.314 . S
N369 C371 1.279 . S
C370 C371 1.358 . S
C370 C372 1.356 . S
C370 H424 0.930 . S
C371 N369 1.279 . S
C371 C370 1.358 . S
C371 H375 0.930 . S
C372 C370 1.356 . S
C372 C373 1.348 . S
C373 C368 1.353 . S
C373 C372 1.348 . S
C373 H425 0.929 . S
H374 C368 0.930 . S
H375 C371 0.930 . S
C376 N377 1.314 . S
C376 C378 1.353 . S
C376 H382 0.930 . S
N377 Li353 1.990 . S
N377 C376 1.314 . S
N377 C380 1.279 . S
C378 C376 1.353 . S
C378 C381 1.348 . S
C378 H426 0.929 . S
C379 C380 1.358 . S
C379 C381 1.356 . S
C379 H427 0.930 . S
C380 N377 1.279 . S
C380 C379 1.358 . S
C380 H383 0.930 . S
C381 C378 1.348 . S
C381 C379 1.356 . S
H382 C376 0.930 . S
H383 C380 0.930 . S
C384 C386 1.348 . S
C384 C387 1.356 . S
C384 O414 1.325 . S
N385 C388 1.314 . S
N385 C389 1.279 . S
C386 C384 1.348 . S
C386 C388 1.353 . S
C386 H428 0.929 . S
C387 C384 1.356 . S
C387 C389 1.358 . S
C387 H429 0.930 . S
C388 N385 1.314 . S
C388 C386 1.353 . S
C388 H430 0.930 . S
C389 N385 1.279 . S
C389 C387 1.358 . S
C389 H431 0.930 . S
C390 C391 1.348 . S
C390 C392 1.356 . S
C390 O415 1.325 . S
C391 C390 1.348 . S
C391 C393 1.353 . S
C391 H432 0.929 . S
C392 C390 1.356 . S
C392 C394 1.358 . S
C392 H433 0.930 . S
C393 C391 1.353 . S
C393 N395 1.314 . S
C393 H434 0.930 . S
C394 C392 1.358 . S
C394 N395 1.279 . S
C394 H435 0.930 . S
N395 C393 1.314 . S
N395 C394 1.279 . S
C396 C398 1.353 . S
C396 N399 1.314 . S
C396 H402 0.930 . S
C397 N399 1.279 . S
C397 C400 1.358 . S
C397 H403 0.930 . S
C398 C396 1.353 . S
C398 C401 1.348 . S
C398 H436 0.929 . S
N399 Li354 1.990 . S
N399 C396 1.314 . S
N399 C397 1.279 . S
C400 C397 1.358 . S
C400 C401 1.356 . S
C400 H437 0.930 . S
C401 C398 1.348 . S
C401 C400 1.356 . S
H402 C396 0.930 . S
H403 C397 0.930 . S
C404 N405 1.314 . S
C404 C406 1.353 . S
C404 H410 0.930 . S
N405 Li355 1.990 . S
N405 C404 1.314 . S
N405 C408 1.279 . S
C406 C404 1.353 . S
C406 C409 1.348 . S
C406 H438 0.929 . S
C407 C408 1.358 . S
C407 C409 1.356 . S
C407 H439 0.930 . S
C408 N405 1.279 . S
C408 C407 1.358 . S
C408 H411 0.930 . S
C409 C406 1.348 . S
C409 C407 1.356 . S
H410 C404 0.930 . S
H411 C408 0.930 . S
O412 Li352 1.956 . S
O412 Li353 1.970 . S
O412 Li354 1.961 . S
O412 C356 1.325 . S
O413 Li352 1.970 . S
O413 Li353 1.956 . S
O413 Li355 1.961 . S
O413 C362 1.325 . S
O414 Li352 1.961 . S
O414 Li354 1.956 . S
O414 Li355 1.970 . S
O414 C384 1.325 . S
O415 Li353 1.961 . S
O415 Li354 1.970 . S
O415 Li355 1.956 . S
O415 C390 1.325 . S
H416 C358 0.929 . S
H417 C359 0.930 . S
H418 C360 0.930 . S
H419 C361 0.930 . S
H420 C363 0.930 . S
H421 C365 0.929 . S
H422 C366 0.930 . S
H423 C367 0.930 . S
H424 C370 0.930 . S
H425 C373 0.929 . S
H426 C378 0.929 . S
H427 C379 0.930 . S
H428 C386 0.929 . S
H429 C387 0.930 . S
H430 C388 0.930 . S
H431 C389 0.930 . S
H432 C391 0.929 . S
H433 C392 0.930 . S
H434 C393 0.930 . S
H435 C394 0.930 . S
H436 C398 0.929 . S
H437 C400 0.930 . S
H438 C406 0.929 . S
H439 C407 0.930 . S
Li440 N457 1.990 . S
Li440 O500 1.956 . S
Li440 O501 1.970 . S
Li440 O502 1.961 . S
Li441 N465 1.990 . S
Li441 O500 1.970 . S
Li441 O501 1.956 . S
Li441 O503 1.961 . S
Li442 N487 1.990 . S
Li442 O500 1.961 . S
Li442 O502 1.956 . S
Li442 O503 1.970 . S
Li443 N493 1.990 . S
Li443 O501 1.961 . S
Li443 O502 1.970 . S
Li443 O503 1.956 . S
C444 C446 1.348 . S
C444 C447 1.356 . S
C444 O500 1.325 . S
N445 C448 1.314 . S
N445 C449 1.279 . S
C446 C444 1.348 . S
C446 C448 1.353 . S
C446 H504 0.929 . S
C447 C444 1.356 . S
C447 C449 1.358 . S
C447 H505 0.930 . S
C448 N445 1.314 . S
C448 C446 1.353 . S
C448 H506 0.930 . S
C449 N445 1.279 . S
C449 C447 1.358 . S
C449 H507 0.930 . S
C450 C453 1.348 . S
C450 C454 1.356 . S
C450 O501 1.325 . S
C451 N452 1.279 . S
C451 C454 1.358 . S
C451 H508 0.930 . S
N452 C451 1.279 . S
N452 C455 1.314 . S
C453 C450 1.348 . S
C453 C455 1.353 . S
C453 H509 0.929 . S
C454 C450 1.356 . S
C454 C451 1.358 . S
C454 H510 0.930 . S
C455 N452 1.314 . S
C455 C453 1.353 . S
C455 H511 0.930 . S
C456 N457 1.314 . S
C456 C461 1.353 . S
C456 H462 0.930 . S
N457 Li440 1.990 . S
N457 C456 1.314 . S
N457 C459 1.279 . S
C458 C459 1.358 . S
C458 C460 1.356 . S
C458 H512 0.930 . S
C459 N457 1.279 . S
C459 C458 1.358 . S
C459 H463 0.930 . S
C460 C458 1.356 . S
C460 C461 1.348 . S
C461 C456 1.353 . S
C461 C460 1.348 . S
C461 H513 0.929 . S
H462 C456 0.930 . S
H463 C459 0.930 . S
C464 N465 1.314 . S
C464 C466 1.353 . S
C464 H470 0.930 . S
N465 Li441 1.990 . S
N465 C464 1.314 . S
N465 C468 1.279 . S
C466 C464 1.353 . S
C466 C469 1.348 . S
C466 H514 0.929 . S
C467 C468 1.358 . S
C467 C469 1.356 . S
C467 H515 0.930 . S
C468 N465 1.279 . S
C468 C467 1.358 . S
C468 H471 0.930 . S
C469 C466 1.348 . S
C469 C467 1.356 . S
H470 C464 0.930 . S
H471 C468 0.930 . S
C472 C474 1.348 . S
C472 C475 1.356 . S
C472 O502 1.325 . S
N473 C476 1.314 . S
N473 C477 1.279 . S
C474 C472 1.348 . S
C474 C476 1.353 . S
C474 H516 0.929 . S
C475 C472 1.356 . S
C475 C477 1.358 . S
C475 H517 0.930 . S
C476 N473 1.314 . S
C476 C474 1.353 . S
C476 H518 0.930 . S
C477 N473 1.279 . S
C477 C475 1.358 . S
C477 H519 0.930 . S
C478 C479 1.348 . S
C478 C480 1.356 . S
C478 O503 1.325 . S
C479 C478 1.348 . S
C479 C481 1.353 . S
C479 H520 0.929 . S
C480 C478 1.356 . S
C480 C482 1.358 . S
C480 H521 0.930 . S
C481 C479 1.353 . S
C481 N483 1.314 . S
C481 H522 0.930 . S
C482 C480 1.358 . S
C482 N483 1.279 . S
C482 H523 0.930 . S
N483 C481 1.314 . S
N483 C482 1.279 . S
C484 C486 1.353 . S
C484 N487 1.314 . S
C484 H490 0.930 . S
C485 N487 1.279 . S
C485 C488 1.358 . S
C485 H491 0.930 . S
C486 C484 1.353 . S
C486 C489 1.348 . S
C486 H524 0.929 . S
N487 Li442 1.990 . S
N487 C484 1.314 . S
N487 C485 1.279 . S
C488 C485 1.358 . S
C488 C489 1.356 . S
C488 H525 0.930 . S
C489 C486 1.348 . S
C489 C488 1.356 . S
H490 C484 0.930 . S
H491 C485 0.930 . S
C492 N493 1.314 . S
C492 C494 1.353 . S
C492 H498 0.930 . S
N493 Li443 1.990 . S
N493 C492 1.314 . S
N493 C496 1.279 . S
C494 C492 1.353 . S
C494 C497 1.348 . S
C494 H526 0.929 . S
C495 C496 1.358 . S
C495 C497 1.356 . S
C495 H527 0.930 . S
C496 N493 1.279 . S
C496 C495 1.358 . S
C496 H499 0.930 . S
C497 C494 1.348 . S
C497 C495 1.356 . S
H498 C492 0.930 . S
H499 C496 0.930 . S
O500 Li440 1.956 . S
O500 Li441 1.970 . S
O500 Li442 1.961 . S
O500 C444 1.325 . S
O501 Li440 1.970 . S
O501 Li441 1.956 . S
O501 Li443 1.961 . S
O501 C450 1.325 . S
O502 Li440 1.961 . S
O502 Li442 1.956 . S
O502 Li443 1.970 . S
O502 C472 1.325 . S
O503 Li441 1.961 . S
O503 Li442 1.970 . S
O503 Li443 1.956 . S
O503 C478 1.325 . S
H504 C446 0.929 . S
H505 C447 0.930 . S
H506 C448 0.930 . S
H507 C449 0.930 . S
H508 C451 0.930 . S
H509 C453 0.929 . S
H510 C454 0.930 . S
H511 C455 0.930 . S
H512 C458 0.930 . S
H513 C461 0.929 . S
H514 C466 0.929 . S
H515 C467 0.930 . S
H516 C474 0.929 . S
H517 C475 0.930 . S
H518 C476 0.930 . S
H519 C477 0.930 . S
H520 C479 0.929 . S
H521 C480 0.930 . S
H522 C481 0.930 . S
H523 C482 0.930 . S
H524 C486 0.929 . S
H525 C488 0.930 . S
H526 C494 0.929 . S
H527 C495 0.930 . S
Li528 N545 1.990 . S
Li528 O588 1.956 . S
Li528 O589 1.970 . S
Li528 O590 1.961 . S
Li529 N553 1.990 . S
Li529 O588 1.970 . S
Li529 O589 1.956 . S
Li529 O591 1.961 . S
Li530 N575 1.990 . S
Li530 O588 1.961 . S
Li530 O590 1.956 . S
Li530 O591 1.970 . S
Li531 N581 1.990 . S
Li531 O589 1.961 . S
Li531 O590 1.970 . S
Li531 O591 1.956 . S
C532 C534 1.348 . S
C532 C535 1.356 . S
C532 O588 1.325 . S
N533 C536 1.314 . S
N533 C537 1.279 . S
C534 C532 1.348 . S
C534 C536 1.353 . S
C534 H592 0.929 . S
C535 C532 1.356 . S
C535 C537 1.358 . S
C535 H593 0.930 . S
C536 N533 1.314 . S
C536 C534 1.353 . S
C536 H594 0.930 . S
C537 N533 1.279 . S
C537 C535 1.358 . S
C537 H595 0.930 . S
C538 C541 1.348 . S
C538 C542 1.356 . S
C538 O589 1.325 . S
C539 N540 1.279 . S
C539 C542 1.358 . S
C539 H596 0.930 . S
N540 C539 1.279 . S
N540 C543 1.314 . S
C541 C538 1.348 . S
C541 C543 1.353 . S
C541 H597 0.929 . S
C542 C538 1.356 . S
C542 C539 1.358 . S
C542 H598 0.930 . S
C543 N540 1.314 . S
C543 C541 1.353 . S
C543 H599 0.930 . S
C544 N545 1.314 . S
C544 C549 1.353 . S
C544 H550 0.930 . S
N545 Li528 1.990 . S
N545 C544 1.314 . S
N545 C547 1.279 . S
C546 C547 1.358 . S
C546 C548 1.356 . S
C546 H600 0.930 . S
C547 N545 1.279 . S
C547 C546 1.358 . S
C547 H551 0.930 . S
C548 C546 1.356 . S
C548 C549 1.348 . S
C549 C544 1.353 . S
C549 C548 1.348 . S
C549 H601 0.929 . S
H550 C544 0.930 . S
H551 C547 0.930 . S
C552 N553 1.314 . S
C552 C554 1.353 . S
C552 H558 0.930 . S
N553 Li529 1.990 . S
N553 C552 1.314 . S
N553 C556 1.279 . S
C554 C552 1.353 . S
C554 C557 1.348 . S
C554 H602 0.929 . S
C555 C556 1.358 . S
C555 C557 1.356 . S
C555 H603 0.930 . S
C556 N553 1.279 . S
C556 C555 1.358 . S
C556 H559 0.930 . S
C557 C554 1.348 . S
C557 C555 1.356 . S
H558 C552 0.930 . S
H559 C556 0.930 . S
C560 C562 1.348 . S
C560 C563 1.356 . S
C560 O590 1.325 . S
N561 C564 1.314 . S
N561 C565 1.279 . S
C562 C560 1.348 . S
C562 C564 1.353 . S
C562 H604 0.929 . S
C563 C560 1.356 . S
C563 C565 1.358 . S
C563 H605 0.930 . S
C564 N561 1.314 . S
C564 C562 1.353 . S
C564 H606 0.930 . S
C565 N561 1.279 . S
C565 C563 1.358 . S
C565 H607 0.930 . S
C566 C567 1.348 . S
C566 C568 1.356 . S
C566 O591 1.325 . S
C567 C566 1.348 . S
C567 C569 1.353 . S
C567 H608 0.929 . S
C568 C566 1.356 . S
C568 C570 1.358 . S
C568 H609 0.930 . S
C569 C567 1.353 . S
C569 N571 1.314 . S
C569 H610 0.930 . S
C570 C568 1.358 . S
C570 N571 1.279 . S
C570 H611 0.930 . S
N571 C569 1.314 . S
N571 C570 1.279 . S
C572 C574 1.353 . S
C572 N575 1.314 . S
C572 H578 0.930 . S
C573 N575 1.279 . S
C573 C576 1.358 . S
C573 H579 0.930 . S
C574 C572 1.353 . S
C574 C577 1.348 . S
C574 H612 0.929 . S
N575 Li530 1.990 . S
N575 C572 1.314 . S
N575 C573 1.279 . S
C576 C573 1.358 . S
C576 C577 1.356 . S
C576 H613 0.930 . S
C577 C574 1.348 . S
C577 C576 1.356 . S
H578 C572 0.930 . S
H579 C573 0.930 . S
C580 N581 1.314 . S
C580 C582 1.353 . S
C580 H586 0.930 . S
N581 Li531 1.990 . S
N581 C580 1.314 . S
N581 C584 1.279 . S
C582 C580 1.353 . S
C582 C585 1.348 . S
C582 H614 0.929 . S
C583 C584 1.358 . S
C583 C585 1.356 . S
C583 H615 0.930 . S
C584 N581 1.279 . S
C584 C583 1.358 . S
C584 H587 0.930 . S
C585 C582 1.348 . S
C585 C583 1.356 . S
H586 C580 0.930 . S
H587 C584 0.930 . S
O588 Li528 1.956 . S
O588 Li529 1.970 . S
O588 Li530 1.961 . S
O588 C532 1.325 . S
O589 Li528 1.970 . S
O589 Li529 1.956 . S
O589 Li531 1.961 . S
O589 C538 1.325 . S
O590 Li528 1.961 . S
O590 Li530 1.956 . S
O590 Li531 1.970 . S
O590 C560 1.325 . S
O591 Li529 1.961 . S
O591 Li530 1.970 . S
O591 Li531 1.956 . S
O591 C566 1.325 . S
H592 C534 0.929 . S
H593 C535 0.930 . S
H594 C536 0.930 . S
H595 C537 0.930 . S
H596 C539 0.930 . S
H597 C541 0.929 . S
H598 C542 0.930 . S
H599 C543 0.930 . S
H600 C546 0.930 . S
H601 C549 0.929 . S
H602 C554 0.929 . S
H603 C555 0.930 . S
H604 C562 0.929 . S
H605 C563 0.930 . S
H606 C564 0.930 . S
H607 C565 0.930 . S
H608 C567 0.929 . S
H609 C568 0.930 . S
H610 C569 0.930 . S
H611 C570 0.930 . S
H612 C574 0.929 . S
H613 C576 0.930 . S
H614 C582 0.929 . S
H615 C583 0.930 . S
Li616 N633 1.990 . S
Li616 O676 1.956 . S
Li616 O677 1.970 . S
Li616 O678 1.961 . S
Li617 N641 1.990 . S
Li617 O676 1.970 . S
Li617 O677 1.956 . S
Li617 O679 1.961 . S
Li618 N663 1.990 . S
Li618 O676 1.961 . S
Li618 O678 1.956 . S
Li618 O679 1.970 . S
Li619 N669 1.990 . S
Li619 O677 1.961 . S
Li619 O678 1.970 . S
Li619 O679 1.956 . S
C620 C622 1.348 . S
C620 C623 1.356 . S
C620 O676 1.325 . S
N621 C624 1.314 . S
N621 C625 1.279 . S
C622 C620 1.348 . S
C622 C624 1.353 . S
C622 H680 0.929 . S
C623 C620 1.356 . S
C623 C625 1.358 . S
C623 H681 0.930 . S
C624 N621 1.314 . S
C624 C622 1.353 . S
C624 H682 0.930 . S
C625 N621 1.279 . S
C625 C623 1.358 . S
C625 H683 0.930 . S
C626 C629 1.348 . S
C626 C630 1.356 . S
C626 O677 1.325 . S
C627 N628 1.279 . S
C627 C630 1.358 . S
C627 H684 0.930 . S
N628 C627 1.279 . S
N628 C631 1.314 . S
C629 C626 1.348 . S
C629 C631 1.353 . S
C629 H685 0.929 . S
C630 C626 1.356 . S
C630 C627 1.358 . S
C630 H686 0.930 . S
C631 N628 1.314 . S
C631 C629 1.353 . S
C631 H687 0.930 . S
C632 N633 1.314 . S
C632 C637 1.353 . S
C632 H638 0.930 . S
N633 Li616 1.990 . S
N633 C632 1.314 . S
N633 C635 1.279 . S
C634 C635 1.358 . S
C634 C636 1.356 . S
C634 H688 0.930 . S
C635 N633 1.279 . S
C635 C634 1.358 . S
C635 H639 0.930 . S
C636 C634 1.356 . S
C636 C637 1.348 . S
C637 C632 1.353 . S
C637 C636 1.348 . S
C637 H689 0.929 . S
H638 C632 0.930 . S
H639 C635 0.930 . S
C640 N641 1.314 . S
C640 C642 1.353 . S
C640 H646 0.930 . S
N641 Li617 1.990 . S
N641 C640 1.314 . S
N641 C644 1.279 . S
C642 C640 1.353 . S
C642 C645 1.348 . S
C642 H690 0.929 . S
C643 C644 1.358 . S
C643 C645 1.356 . S
C643 H691 0.930 . S
C644 N641 1.279 . S
C644 C643 1.358 . S
C644 H647 0.930 . S
C645 C642 1.348 . S
C645 C643 1.356 . S
H646 C640 0.930 . S
H647 C644 0.930 . S
C648 C650 1.348 . S
C648 C651 1.356 . S
C648 O678 1.325 . S
N649 C652 1.314 . S
N649 C653 1.279 . S
C650 C648 1.348 . S
C650 C652 1.353 . S
C650 H692 0.929 . S
C651 C648 1.356 . S
C651 C653 1.358 . S
C651 H693 0.930 . S
C652 N649 1.314 . S
C652 C650 1.353 . S
C652 H694 0.930 . S
C653 N649 1.279 . S
C653 C651 1.358 . S
C653 H695 0.930 . S
C654 C655 1.348 . S
C654 C656 1.356 . S
C654 O679 1.325 . S
C655 C654 1.348 . S
C655 C657 1.353 . S
C655 H696 0.929 . S
C656 C654 1.356 . S
C656 C658 1.358 . S
C656 H697 0.930 . S
C657 C655 1.353 . S
C657 N659 1.314 . S
C657 H698 0.930 . S
C658 C656 1.358 . S
C658 N659 1.279 . S
C658 H699 0.930 . S
N659 C657 1.314 . S
N659 C658 1.279 . S
C660 C662 1.353 . S
C660 N663 1.314 . S
C660 H666 0.930 . S
C661 N663 1.279 . S
C661 C664 1.358 . S
C661 H667 0.930 . S
C662 C660 1.353 . S
C662 C665 1.348 . S
C662 H700 0.929 . S
N663 Li618 1.990 . S
N663 C660 1.314 . S
N663 C661 1.279 . S
C664 C661 1.358 . S
C664 C665 1.356 . S
C664 H701 0.930 . S
C665 C662 1.348 . S
C665 C664 1.356 . S
H666 C660 0.930 . S
H667 C661 0.930 . S
C668 N669 1.314 . S
C668 C670 1.353 . S
C668 H674 0.930 . S
N669 Li619 1.990 . S
N669 C668 1.314 . S
N669 C672 1.279 . S
C670 C668 1.353 . S
C670 C673 1.348 . S
C670 H702 0.929 . S
C671 C672 1.358 . S
C671 C673 1.356 . S
C671 H703 0.930 . S
C672 N669 1.279 . S
C672 C671 1.358 . S
C672 H675 0.930 . S
C673 C670 1.348 . S
C673 C671 1.356 . S
H674 C668 0.930 . S
H675 C672 0.930 . S
O676 Li616 1.956 . S
O676 Li617 1.970 . S
O676 Li618 1.961 . S
O676 C620 1.325 . S
O677 Li616 1.970 . S
O677 Li617 1.956 . S
O677 Li619 1.961 . S
O677 C626 1.325 . S
O678 Li616 1.961 . S
O678 Li618 1.956 . S
O678 Li619 1.970 . S
O678 C648 1.325 . S
O679 Li617 1.961 . S
O679 Li618 1.970 . S
O679 Li619 1.956 . S
O679 C654 1.325 . S
H680 C622 0.929 . S
H681 C623 0.930 . S
H682 C624 0.930 . S
H683 C625 0.930 . S
H684 C627 0.930 . S
H685 C629 0.929 . S
H686 C630 0.930 . S
H687 C631 0.930 . S
H688 C634 0.930 . S
H689 C637 0.929 . S
H690 C642 0.929 . S
H691 C643 0.930 . S
H692 C650 0.929 . S
H693 C651 0.930 . S
H694 C652 0.930 . S
H695 C653 0.930 . S
H696 C655 0.929 . S
H697 C656 0.930 . S
H698 C657 0.930 . S
H699 C658 0.930 . S
H700 C662 0.929 . S
H701 C664 0.930 . S
H702 C670 0.929 . S
H703 C671 0.930 . S
Li704 N721 1.990 . S
Li704 O764 1.956 . S
Li704 O765 1.970 . S
Li704 O766 1.961 . S
Li705 N729 1.990 . S
Li705 O764 1.970 . S
Li705 O765 1.956 . S
Li705 O767 1.961 . S
Li706 N751 1.990 . S
Li706 O764 1.961 . S
Li706 O766 1.956 . S
Li706 O767 1.970 . S
Li707 N757 1.990 . S
Li707 O765 1.961 . S
Li707 O766 1.970 . S
Li707 O767 1.956 . S
C708 C710 1.348 . S
C708 C711 1.356 . S
C708 O764 1.325 . S
N709 C712 1.314 . S
N709 C713 1.279 . S
C710 C708 1.348 . S
C710 C712 1.353 . S
C710 H768 0.929 . S
C711 C708 1.356 . S
C711 C713 1.358 . S
C711 H769 0.930 . S
C712 N709 1.314 . S
C712 C710 1.353 . S
C712 H770 0.930 . S
C713 N709 1.279 . S
C713 C711 1.358 . S
C713 H771 0.930 . S
C714 C717 1.348 . S
C714 C718 1.356 . S
C714 O765 1.325 . S
C715 N716 1.279 . S
C715 C718 1.358 . S
C715 H772 0.930 . S
N716 C715 1.279 . S
N716 C719 1.314 . S
C717 C714 1.348 . S
C717 C719 1.353 . S
C717 H773 0.929 . S
C718 C714 1.356 . S
C718 C715 1.358 . S
C718 H774 0.930 . S
C719 N716 1.314 . S
C719 C717 1.353 . S
C719 H775 0.930 . S
C720 N721 1.314 . S
C720 C725 1.353 . S
C720 H726 0.930 . S
N721 Li704 1.990 . S
N721 C720 1.314 . S
N721 C723 1.279 . S
C722 C723 1.358 . S
C722 C724 1.356 . S
C722 H776 0.930 . S
C723 N721 1.279 . S
C723 C722 1.358 . S
C723 H727 0.930 . S
C724 C722 1.356 . S
C724 C725 1.348 . S
C725 C720 1.353 . S
C725 C724 1.348 . S
C725 H777 0.929 . S
H726 C720 0.930 . S
H727 C723 0.930 . S
C728 N729 1.314 . S
C728 C730 1.353 . S
C728 H734 0.930 . S
N729 Li705 1.990 . S
N729 C728 1.314 . S
N729 C732 1.279 . S
C730 C728 1.353 . S
C730 C733 1.348 . S
C730 H778 0.929 . S
C731 C732 1.358 . S
C731 C733 1.356 . S
C731 H779 0.930 . S
C732 N729 1.279 . S
C732 C731 1.358 . S
C732 H735 0.930 . S
C733 C730 1.348 . S
C733 C731 1.356 . S
H734 C728 0.930 . S
H735 C732 0.930 . S
C736 C738 1.348 . S
C736 C739 1.356 . S
C736 O766 1.325 . S
N737 C740 1.314 . S
N737 C741 1.279 . S
C738 C736 1.348 . S
C738 C740 1.353 . S
C738 H780 0.929 . S
C739 C736 1.356 . S
C739 C741 1.358 . S
C739 H781 0.930 . S
C740 N737 1.314 . S
C740 C738 1.353 . S
C740 H782 0.930 . S
C741 N737 1.279 . S
C741 C739 1.358 . S
C741 H783 0.930 . S
C742 C743 1.348 . S
C742 C744 1.356 . S
C742 O767 1.325 . S
C743 C742 1.348 . S
C743 C745 1.353 . S
C743 H784 0.929 . S
C744 C742 1.356 . S
C744 C746 1.358 . S
C744 H785 0.930 . S
C745 C743 1.353 . S
C745 N747 1.314 . S
C745 H786 0.930 . S
C746 C744 1.358 . S
C746 N747 1.279 . S
C746 H787 0.930 . S
N747 C745 1.314 . S
N747 C746 1.279 . S
C748 C750 1.353 . S
C748 N751 1.314 . S
C748 H754 0.930 . S
C749 N751 1.279 . S
C749 C752 1.358 . S
C749 H755 0.930 . S
C750 C748 1.353 . S
C750 C753 1.348 . S
C750 H788 0.929 . S
N751 Li706 1.990 . S
N751 C748 1.314 . S
N751 C749 1.279 . S
C752 C749 1.358 . S
C752 C753 1.356 . S
C752 H789 0.930 . S
C753 C750 1.348 . S
C753 C752 1.356 . S
H754 C748 0.930 . S
H755 C749 0.930 . S
C756 N757 1.314 . S
C756 C758 1.353 . S
C756 H762 0.930 . S
N757 Li707 1.990 . S
N757 C756 1.314 . S
N757 C760 1.279 . S
C758 C756 1.353 . S
C758 C761 1.348 . S
C758 H790 0.929 . S
C759 C760 1.358 . S
C759 C761 1.356 . S
C759 H791 0.930 . S
C760 N757 1.279 . S
C760 C759 1.358 . S
C760 H763 0.930 . S
C761 C758 1.348 . S
C761 C759 1.356 . S
H762 C756 0.930 . S
H763 C760 0.930 . S
O764 Li704 1.956 . S
O764 Li705 1.970 . S
O764 Li706 1.961 . S
O764 C708 1.325 . S
O765 Li704 1.970 . S
O765 Li705 1.956 . S
O765 Li707 1.961 . S
O765 C714 1.325 . S
O766 Li704 1.961 . S
O766 Li706 1.956 . S
O766 Li707 1.970 . S
O766 C736 1.325 . S
O767 Li705 1.961 . S
O767 Li706 1.970 . S
O767 Li707 1.956 . S
O767 C742 1.325 . S
H768 C710 0.929 . S
H769 C711 0.930 . S
H770 C712 0.930 . S
H771 C713 0.930 . S
H772 C715 0.930 . S
H773 C717 0.929 . S
H774 C718 0.930 . S
H775 C719 0.930 . S
H776 C722 0.930 . S
H777 C725 0.929 . S
H778 C730 0.929 . S
H779 C731 0.930 . S
H780 C738 0.929 . S
H781 C739 0.930 . S
H782 C740 0.930 . S
H783 C741 0.930 . S
H784 C743 0.929 . S
H785 C744 0.930 . S
H786 C745 0.930 . S
H787 C746 0.930 . S
H788 C750 0.929 . S
H789 C752 0.930 . S
H790 C758 0.929 . S
H791 C759 0.930 . S
Li792 N809 1.990 . S
Li792 O852 1.956 . S
Li792 O853 1.970 . S
Li792 O854 1.961 . S
Li793 N817 1.990 . S
Li793 O852 1.970 . S
Li793 O853 1.956 . S
Li793 O855 1.961 . S
Li794 N839 1.990 . S
Li794 O852 1.961 . S
Li794 O854 1.956 . S
Li794 O855 1.970 . S
Li795 N845 1.990 . S
Li795 O853 1.961 . S
Li795 O854 1.970 . S
Li795 O855 1.956 . S
C796 C798 1.348 . S
C796 C799 1.356 . S
C796 O852 1.325 . S
N797 C800 1.314 . S
N797 C801 1.279 . S
C798 C796 1.348 . S
C798 C800 1.353 . S
C798 H856 0.929 . S
C799 C796 1.356 . S
C799 C801 1.358 . S
C799 H857 0.930 . S
C800 N797 1.314 . S
C800 C798 1.353 . S
C800 H858 0.930 . S
C801 N797 1.279 . S
C801 C799 1.358 . S
C801 H859 0.930 . S
C802 C805 1.348 . S
C802 C806 1.356 . S
C802 O853 1.325 . S
C803 N804 1.279 . S
C803 C806 1.358 . S
C803 H860 0.930 . S
N804 C803 1.279 . S
N804 C807 1.314 . S
C805 C802 1.348 . S
C805 C807 1.353 . S
C805 H861 0.929 . S
C806 C802 1.356 . S
C806 C803 1.358 . S
C806 H862 0.930 . S
C807 N804 1.314 . S
C807 C805 1.353 . S
C807 H863 0.930 . S
C808 N809 1.314 . S
C808 C813 1.353 . S
C808 H814 0.930 . S
N809 Li792 1.990 . S
N809 C808 1.314 . S
N809 C811 1.279 . S
C810 C811 1.358 . S
C810 C812 1.356 . S
C810 H864 0.930 . S
C811 N809 1.279 . S
C811 C810 1.358 . S
C811 H815 0.930 . S
C812 C810 1.356 . S
C812 C813 1.348 . S
C813 C808 1.353 . S
C813 C812 1.348 . S
C813 H865 0.929 . S
H814 C808 0.930 . S
H815 C811 0.930 . S
C816 N817 1.314 . S
C816 C818 1.353 . S
C816 H822 0.930 . S
N817 Li793 1.990 . S
N817 C816 1.314 . S
N817 C820 1.279 . S
C818 C816 1.353 . S
C818 C821 1.348 . S
C818 H866 0.929 . S
C819 C820 1.358 . S
C819 C821 1.356 . S
C819 H867 0.930 . S
C820 N817 1.279 . S
C820 C819 1.358 . S
C820 H823 0.930 . S
C821 C818 1.348 . S
C821 C819 1.356 . S
H822 C816 0.930 . S
H823 C820 0.930 . S
C824 C826 1.348 . S
C824 C827 1.356 . S
C824 O854 1.325 . S
N825 C828 1.314 . S
N825 C829 1.279 . S
C826 C824 1.348 . S
C826 C828 1.353 . S
C826 H868 0.929 . S
C827 C824 1.356 . S
C827 C829 1.358 . S
C827 H869 0.930 . S
C828 N825 1.314 . S
C828 C826 1.353 . S
C828 H870 0.930 . S
C829 N825 1.279 . S
C829 C827 1.358 . S
C829 H871 0.930 . S
C830 C831 1.348 . S
C830 C832 1.356 . S
C830 O855 1.325 . S
C831 C830 1.348 . S
C831 C833 1.353 . S
C831 H872 0.929 . S
C832 C830 1.356 . S
C832 C834 1.358 . S
C832 H873 0.930 . S
C833 C831 1.353 . S
C833 N835 1.314 . S
C833 H874 0.930 . S
C834 C832 1.358 . S
C834 N835 1.279 . S
C834 H875 0.930 . S
N835 C833 1.314 . S
N835 C834 1.279 . S
C836 C838 1.353 . S
C836 N839 1.314 . S
C836 H842 0.930 . S
C837 N839 1.279 . S
C837 C840 1.358 . S
C837 H843 0.930 . S
C838 C836 1.353 . S
C838 C841 1.348 . S
C838 H876 0.929 . S
N839 Li794 1.990 . S
N839 C836 1.314 . S
N839 C837 1.279 . S
C840 C837 1.358 . S
C840 C841 1.356 . S
C840 H877 0.930 . S
C841 C838 1.348 . S
C841 C840 1.356 . S
H842 C836 0.930 . S
H843 C837 0.930 . S
C844 N845 1.314 . S
C844 C846 1.353 . S
C844 H850 0.930 . S
N845 Li795 1.990 . S
N845 C844 1.314 . S
N845 C848 1.279 . S
C846 C844 1.353 . S
C846 C849 1.348 . S
C846 H878 0.929 . S
C847 C848 1.358 . S
C847 C849 1.356 . S
C847 H879 0.930 . S
C848 N845 1.279 . S
C848 C847 1.358 . S
C848 H851 0.930 . S
C849 C846 1.348 . S
C849 C847 1.356 . S
H850 C844 0.930 . S
H851 C848 0.930 . S
O852 Li792 1.956 . S
O852 Li793 1.970 . S
O852 Li794 1.961 . S
O852 C796 1.325 . S
O853 Li792 1.970 . S
O853 Li793 1.956 . S
O853 Li795 1.961 . S
O853 C802 1.325 . S
O854 Li792 1.961 . S
O854 Li794 1.956 . S
O854 Li795 1.970 . S
O854 C824 1.325 . S
O855 Li793 1.961 . S
O855 Li794 1.970 . S
O855 Li795 1.956 . S
O855 C830 1.325 . S
H856 C798 0.929 . S
H857 C799 0.930 . S
H858 C800 0.930 . S
H859 C801 0.930 . S
H860 C803 0.930 . S
H861 C805 0.929 . S
H862 C806 0.930 . S
H863 C807 0.930 . S
H864 C810 0.930 . S
H865 C813 0.929 . S
H866 C818 0.929 . S
H867 C819 0.930 . S
H868 C826 0.929 . S
H869 C827 0.930 . S
H870 C828 0.930 . S
H871 C829 0.930 . S
H872 C831 0.929 . S
H873 C832 0.930 . S
H874 C833 0.930 . S
H875 C834 0.930 . S
H876 C838 0.929 . S
H877 C840 0.930 . S
H878 C846 0.929 . S
H879 C847 0.930 . S
Li880 N897 1.990 . S
Li880 O940 1.956 . S
Li880 O941 1.970 . S
Li880 O942 1.961 . S
Li881 N905 1.990 . S
Li881 O940 1.970 . S
Li881 O941 1.956 . S
Li881 O943 1.961 . S
Li882 N927 1.990 . S
Li882 O940 1.961 . S
Li882 O942 1.956 . S
Li882 O943 1.970 . S
Li883 N933 1.990 . S
Li883 O941 1.961 . S
Li883 O942 1.970 . S
Li883 O943 1.956 . S
C884 C886 1.348 . S
C884 C887 1.356 . S
C884 O940 1.325 . S
N885 C888 1.314 . S
N885 C889 1.279 . S
C886 C884 1.348 . S
C886 C888 1.353 . S
C886 H944 0.929 . S
C887 C884 1.356 . S
C887 C889 1.358 . S
C887 H945 0.930 . S
C888 N885 1.314 . S
C888 C886 1.353 . S
C888 H946 0.930 . S
C889 N885 1.279 . S
C889 C887 1.358 . S
C889 H947 0.930 . S
C890 C893 1.348 . S
C890 C894 1.356 . S
C890 O941 1.325 . S
C891 N892 1.279 . S
C891 C894 1.358 . S
C891 H948 0.930 . S
N892 C891 1.279 . S
N892 C895 1.314 . S
C893 C890 1.348 . S
C893 C895 1.353 . S
C893 H949 0.929 . S
C894 C890 1.356 . S
C894 C891 1.358 . S
C894 H950 0.930 . S
C895 N892 1.314 . S
C895 C893 1.353 . S
C895 H951 0.930 . S
C896 N897 1.314 . S
C896 C901 1.353 . S
C896 H902 0.930 . S
N897 Li880 1.990 . S
N897 C896 1.314 . S
N897 C899 1.279 . S
C898 C899 1.358 . S
C898 C900 1.356 . S
C898 H952 0.930 . S
C899 N897 1.279 . S
C899 C898 1.358 . S
C899 H903 0.930 . S
C900 C898 1.356 . S
C900 C901 1.348 . S
C901 C896 1.353 . S
C901 C900 1.348 . S
C901 H953 0.929 . S
H902 C896 0.930 . S
H903 C899 0.930 . S
C904 N905 1.314 . S
C904 C906 1.353 . S
C904 H910 0.930 . S
N905 Li881 1.990 . S
N905 C904 1.314 . S
N905 C908 1.279 . S
C906 C904 1.353 . S
C906 C909 1.348 . S
C906 H954 0.929 . S
C907 C908 1.358 . S
C907 C909 1.356 . S
C907 H955 0.930 . S
C908 N905 1.279 . S
C908 C907 1.358 . S
C908 H911 0.930 . S
C909 C906 1.348 . S
C909 C907 1.356 . S
H910 C904 0.930 . S
H911 C908 0.930 . S
C912 C914 1.348 . S
C912 C915 1.356 . S
C912 O942 1.325 . S
N913 C916 1.314 . S
N913 C917 1.279 . S
C914 C912 1.348 . S
C914 C916 1.353 . S
C914 H956 0.929 . S
C915 C912 1.356 . S
C915 C917 1.358 . S
C915 H957 0.930 . S
C916 N913 1.314 . S
C916 C914 1.353 . S
C916 H958 0.930 . S
C917 N913 1.279 . S
C917 C915 1.358 . S
C917 H959 0.930 . S
C918 C919 1.348 . S
C918 C920 1.356 . S
C918 O943 1.325 . S
C919 C918 1.348 . S
C919 C921 1.353 . S
C919 H960 0.929 . S
C920 C918 1.356 . S
C920 C922 1.358 . S
C920 H961 0.930 . S
C921 C919 1.353 . S
C921 N923 1.314 . S
C921 H962 0.930 . S
C922 C920 1.358 . S
C922 N923 1.279 . S
C922 H963 0.930 . S
N923 C921 1.314 . S
N923 C922 1.279 . S
C924 C926 1.353 . S
C924 N927 1.314 . S
C924 H930 0.930 . S
C925 N927 1.279 . S
C925 C928 1.358 . S
C925 H931 0.930 . S
C926 C924 1.353 . S
C926 C929 1.348 . S
C926 H964 0.929 . S
N927 Li882 1.990 . S
N927 C924 1.314 . S
N927 C925 1.279 . S
C928 C925 1.358 . S
C928 C929 1.356 . S
C928 H965 0.930 . S
C929 C926 1.348 . S
C929 C928 1.356 . S
H930 C924 0.930 . S
H931 C925 0.930 . S
C932 N933 1.314 . S
C932 C934 1.353 . S
C932 H938 0.930 . S
N933 Li883 1.990 . S
N933 C932 1.314 . S
N933 C936 1.279 . S
C934 C932 1.353 . S
C934 C937 1.348 . S
C934 H966 0.929 . S
C935 C936 1.358 . S
C935 C937 1.356 . S
C935 H967 0.930 . S
C936 N933 1.279 . S
C936 C935 1.358 . S
C936 H939 0.930 . S
C937 C934 1.348 . S
C937 C935 1.356 . S
H938 C932 0.930 . S
H939 C936 0.930 . S
O940 Li880 1.956 . S
O940 Li881 1.970 . S
O940 Li882 1.961 . S
O940 C884 1.325 . S
O941 Li880 1.970 . S
O941 Li881 1.956 . S
O941 Li883 1.961 . S
O941 C890 1.325 . S
O942 Li880 1.961 . S
O942 Li882 1.956 . S
O942 Li883 1.970 . S
O942 C912 1.325 . S
O943 Li881 1.961 . S
O943 Li882 1.970 . S
O943 Li883 1.956 . S
O943 C918 1.325 . S
H944 C886 0.929 . S
H945 C887 0.930 . S
H946 C888 0.930 . S
H947 C889 0.930 . S
H948 C891 0.930 . S
H949 C893 0.929 . S
H950 C894 0.930 . S
H951 C895 0.930 . S
H952 C898 0.930 . S
H953 C901 0.929 . S
H954 C906 0.929 . S
H955 C907 0.930 . S
H956 C914 0.929 . S
H957 C915 0.930 . S
H958 C916 0.930 . S
H959 C917 0.930 . S
H960 C919 0.929 . S
H961 C920 0.930 . S
H962 C921 0.930 . S
H963 C922 0.930 . S
H964 C926 0.929 . S
H965 C928 0.930 . S
H966 C934 0.929 . S
H967 C935 0.930 . S
Li968 N985 1.990 . S
Li968 O1028 1.956 . S
Li968 O1029 1.970 . S
Li968 O1030 1.961 . S
Li969 N993 1.990 . S
Li969 O1028 1.970 . S
Li969 O1029 1.956 . S
Li969 O1031 1.961 . S
Li970 N1015 1.990 . S
Li970 O1028 1.961 . S
Li970 O1030 1.956 . S
Li970 O1031 1.970 . S
Li971 N1021 1.990 . S
Li971 O1029 1.961 . S
Li971 O1030 1.970 . S
Li971 O1031 1.956 . S
C972 C974 1.348 . S
C972 C975 1.356 . S
C972 O1028 1.325 . S
N973 C976 1.314 . S
N973 C977 1.279 . S
C974 C972 1.348 . S
C974 C976 1.353 . S
C974 H1032 0.929 . S
C975 C972 1.356 . S
C975 C977 1.358 . S
C975 H1033 0.930 . S
C976 N973 1.314 . S
C976 C974 1.353 . S
C976 H1034 0.930 . S
C977 N973 1.279 . S
C977 C975 1.358 . S
C977 H1035 0.930 . S
C978 C981 1.348 . S
C978 C982 1.356 . S
C978 O1029 1.325 . S
C979 N980 1.279 . S
C979 C982 1.358 . S
C979 H1036 0.930 . S
N980 C979 1.279 . S
N980 C983 1.314 . S
C981 C978 1.348 . S
C981 C983 1.353 . S
C981 H1037 0.929 . S
C982 C978 1.356 . S
C982 C979 1.358 . S
C982 H1038 0.930 . S
C983 N980 1.314 . S
C983 C981 1.353 . S
C983 H1039 0.930 . S
C984 N985 1.314 . S
C984 C989 1.353 . S
C984 H990 0.930 . S
N985 Li968 1.990 . S
N985 C984 1.314 . S
N985 C987 1.279 . S
C986 C987 1.358 . S
C986 C988 1.356 . S
C986 H1040 0.930 . S
C987 N985 1.279 . S
C987 C986 1.358 . S
C987 H991 0.930 . S
C988 C986 1.356 . S
C988 C989 1.348 . S
C989 C984 1.353 . S
C989 C988 1.348 . S
C989 H1041 0.929 . S
H990 C984 0.930 . S
H991 C987 0.930 . S
C992 N993 1.314 . S
C992 C994 1.353 . S
C992 H998 0.930 . S
N993 Li969 1.990 . S
N993 C992 1.314 . S
N993 C996 1.279 . S
C994 C992 1.353 . S
C994 C997 1.348 . S
C994 H1042 0.929 . S
C995 C996 1.358 . S
C995 C997 1.356 . S
C995 H1043 0.930 . S
C996 N993 1.279 . S
C996 C995 1.358 . S
C996 H999 0.930 . S
C997 C994 1.348 . S
C997 C995 1.356 . S
H998 C992 0.930 . S
H999 C996 0.930 . S
C1000 C1002 1.348 . S
C1000 C1003 1.356 . S
C1000 O1030 1.325 . S
N1001 C1004 1.314 . S
N1001 C1005 1.279 . S
C1002 C1000 1.348 . S
C1002 C1004 1.353 . S
C1002 H1044 0.929 . S
C1003 C1000 1.356 . S
C1003 C1005 1.358 . S
C1003 H1045 0.930 . S
C1004 N1001 1.314 . S
C1004 C1002 1.353 . S
C1004 H1046 0.930 . S
C1005 N1001 1.279 . S
C1005 C1003 1.358 . S
C1005 H1047 0.930 . S
C1006 C1007 1.348 . S
C1006 C1008 1.356 . S
C1006 O1031 1.325 . S
C1007 C1006 1.348 . S
C1007 C1009 1.353 . S
C1007 H1048 0.929 . S
C1008 C1006 1.356 . S
C1008 C1010 1.358 . S
C1008 H1049 0.930 . S
C1009 C1007 1.353 . S
C1009 N1011 1.314 . S
C1009 H1050 0.930 . S
C1010 C1008 1.358 . S
C1010 N1011 1.279 . S
C1010 H1051 0.930 . S
N1011 C1009 1.314 . S
N1011 C1010 1.279 . S
C1012 C1014 1.353 . S
C1012 N1015 1.314 . S
C1012 H1018 0.930 . S
C1013 N1015 1.279 . S
C1013 C1016 1.358 . S
C1013 H1019 0.930 . S
C1014 C1012 1.353 . S
C1014 C1017 1.348 . S
C1014 H1052 0.929 . S
N1015 Li970 1.990 . S
N1015 C1012 1.314 . S
N1015 C1013 1.279 . S
C1016 C1013 1.358 . S
C1016 C1017 1.356 . S
C1016 H1053 0.930 . S
C1017 C1014 1.348 . S
C1017 C1016 1.356 . S
H1018 C1012 0.930 . S
H1019 C1013 0.930 . S
C1020 N1021 1.314 . S
C1020 C1022 1.353 . S
C1020 H1026 0.930 . S
N1021 Li971 1.990 . S
N1021 C1020 1.314 . S
N1021 C1024 1.279 . S
C1022 C1020 1.353 . S
C1022 C1025 1.348 . S
C1022 H1054 0.929 . S
C1023 C1024 1.358 . S
C1023 C1025 1.356 . S
C1023 H1055 0.930 . S
C1024 N1021 1.279 . S
C1024 C1023 1.358 . S
C1024 H1027 0.930 . S
C1025 C1022 1.348 . S
C1025 C1023 1.356 . S
H1026 C1020 0.930 . S
H1027 C1024 0.930 . S
O1028 Li968 1.956 . S
O1028 Li969 1.970 . S
O1028 Li970 1.961 . S
O1028 C972 1.325 . S
O1029 Li968 1.970 . S
O1029 Li969 1.956 . S
O1029 Li971 1.961 . S
O1029 C978 1.325 . S
O1030 Li968 1.961 . S
O1030 Li970 1.956 . S
O1030 Li971 1.970 . S
O1030 C1000 1.325 . S
O1031 Li969 1.961 . S
O1031 Li970 1.970 . S
O1031 Li971 1.956 . S
O1031 C1006 1.325 . S
H1032 C974 0.929 . S
H1033 C975 0.930 . S
H1034 C976 0.930 . S
H1035 C977 0.930 . S
H1036 C979 0.930 . S
H1037 C981 0.929 . S
H1038 C982 0.930 . S
H1039 C983 0.930 . S
H1040 C986 0.930 . S
H1041 C989 0.929 . S
H1042 C994 0.929 . S
H1043 C995 0.930 . S
H1044 C1002 0.929 . S
H1045 C1003 0.930 . S
H1046 C1004 0.930 . S
H1047 C1005 0.930 . S
H1048 C1007 0.929 . S
H1049 C1008 0.930 . S
H1050 C1009 0.930 . S
H1051 C1010 0.930 . S
H1052 C1014 0.929 . S
H1053 C1016 0.930 . S
H1054 C1022 0.929 . S
H1055 C1023 0.930 . S
Li1056 N1073 1.990 . S
Li1056 O1116 1.956 . S
Li1056 O1117 1.970 . S
Li1056 O1118 1.961 . S
Li1057 N1081 1.990 . S
Li1057 O1116 1.970 . S
Li1057 O1117 1.956 . S
Li1057 O1119 1.961 . S
Li1058 N1103 1.990 . S
Li1058 O1116 1.961 . S
Li1058 O1118 1.956 . S
Li1058 O1119 1.970 . S
Li1059 N1109 1.990 . S
Li1059 O1117 1.961 . S
Li1059 O1118 1.970 . S
Li1059 O1119 1.956 . S
C1060 C1062 1.348 . S
C1060 C1063 1.356 . S
C1060 O1116 1.325 . S
N1061 C1064 1.314 . S
N1061 C1065 1.279 . S
C1062 C1060 1.348 . S
C1062 C1064 1.353 . S
C1062 H1120 0.929 . S
C1063 C1060 1.356 . S
C1063 C1065 1.358 . S
C1063 H1121 0.930 . S
C1064 N1061 1.314 . S
C1064 C1062 1.353 . S
C1064 H1122 0.930 . S
C1065 N1061 1.279 . S
C1065 C1063 1.358 . S
C1065 H1123 0.930 . S
C1066 C1069 1.348 . S
C1066 C1070 1.356 . S
C1066 O1117 1.325 . S
C1067 N1068 1.279 . S
C1067 C1070 1.358 . S
C1067 H1124 0.930 . S
N1068 C1067 1.279 . S
N1068 C1071 1.314 . S
C1069 C1066 1.348 . S
C1069 C1071 1.353 . S
C1069 H1125 0.929 . S
C1070 C1066 1.356 . S
C1070 C1067 1.358 . S
C1070 H1126 0.930 . S
C1071 N1068 1.314 . S
C1071 C1069 1.353 . S
C1071 H1127 0.930 . S
C1072 N1073 1.314 . S
C1072 C1077 1.353 . S
C1072 H1078 0.930 . S
N1073 Li1056 1.990 . S
N1073 C1072 1.314 . S
N1073 C1075 1.279 . S
C1074 C1075 1.358 . S
C1074 C1076 1.356 . S
C1074 H1128 0.930 . S
C1075 N1073 1.279 . S
C1075 C1074 1.358 . S
C1075 H1079 0.930 . S
C1076 C1074 1.356 . S
C1076 C1077 1.348 . S
C1077 C1072 1.353 . S
C1077 C1076 1.348 . S
C1077 H1129 0.929 . S
H1078 C1072 0.930 . S
H1079 C1075 0.930 . S
C1080 N1081 1.314 . S
C1080 C1082 1.353 . S
C1080 H1086 0.930 . S
N1081 Li1057 1.990 . S
N1081 C1080 1.314 . S
N1081 C1084 1.279 . S
C1082 C1080 1.353 . S
C1082 C1085 1.348 . S
C1082 H1130 0.929 . S
C1083 C1084 1.358 . S
C1083 C1085 1.356 . S
C1083 H1131 0.930 . S
C1084 N1081 1.279 . S
C1084 C1083 1.358 . S
C1084 H1087 0.930 . S
C1085 C1082 1.348 . S
C1085 C1083 1.356 . S
H1086 C1080 0.930 . S
H1087 C1084 0.930 . S
C1088 C1090 1.348 . S
C1088 C1091 1.356 . S
C1088 O1118 1.325 . S
N1089 C1092 1.314 . S
N1089 C1093 1.279 . S
C1090 C1088 1.348 . S
C1090 C1092 1.353 . S
C1090 H1132 0.929 . S
C1091 C1088 1.356 . S
C1091 C1093 1.358 . S
C1091 H1133 0.930 . S
C1092 N1089 1.314 . S
C1092 C1090 1.353 . S
C1092 H1134 0.930 . S
C1093 N1089 1.279 . S
C1093 C1091 1.358 . S
C1093 H1135 0.930 . S
C1094 C1095 1.348 . S
C1094 C1096 1.356 . S
C1094 O1119 1.325 . S
C1095 C1094 1.348 . S
C1095 C1097 1.353 . S
C1095 H1136 0.929 . S
C1096 C1094 1.356 . S
C1096 C1098 1.358 . S
C1096 H1137 0.930 . S
C1097 C1095 1.353 . S
C1097 N1099 1.314 . S
C1097 H1138 0.930 . S
C1098 C1096 1.358 . S
C1098 N1099 1.279 . S
C1098 H1139 0.930 . S
N1099 C1097 1.314 . S
N1099 C1098 1.279 . S
C1100 C1102 1.353 . S
C1100 N1103 1.314 . S
C1100 H1106 0.930 . S
C1101 N1103 1.279 . S
C1101 C1104 1.358 . S
C1101 H1107 0.930 . S
C1102 C1100 1.353 . S
C1102 C1105 1.348 . S
C1102 H1140 0.929 . S
N1103 Li1058 1.990 . S
N1103 C1100 1.314 . S
N1103 C1101 1.279 . S
C1104 C1101 1.358 . S
C1104 C1105 1.356 . S
C1104 H1141 0.930 . S
C1105 C1102 1.348 . S
C1105 C1104 1.356 . S
H1106 C1100 0.930 . S
H1107 C1101 0.930 . S
C1108 N1109 1.314 . S
C1108 C1110 1.353 . S
C1108 H1114 0.930 . S
N1109 Li1059 1.990 . S
N1109 C1108 1.314 . S
N1109 C1112 1.279 . S
C1110 C1108 1.353 . S
C1110 C1113 1.348 . S
C1110 H1142 0.929 . S
C1111 C1112 1.358 . S
C1111 C1113 1.356 . S
C1111 H1143 0.930 . S
C1112 N1109 1.279 . S
C1112 C1111 1.358 . S
C1112 H1115 0.930 . S
C1113 C1110 1.348 . S
C1113 C1111 1.356 . S
H1114 C1108 0.930 . S
H1115 C1112 0.930 . S
O1116 Li1056 1.956 . S
O1116 Li1057 1.970 . S
O1116 Li1058 1.961 . S
O1116 C1060 1.325 . S
O1117 Li1056 1.970 . S
O1117 Li1057 1.956 . S
O1117 Li1059 1.961 . S
O1117 C1066 1.325 . S
O1118 Li1056 1.961 . S
O1118 Li1058 1.956 . S
O1118 Li1059 1.970 . S
O1118 C1088 1.325 . S
O1119 Li1057 1.961 . S
O1119 Li1058 1.970 . S
O1119 Li1059 1.956 . S
O1119 C1094 1.325 . S
H1120 C1062 0.929 . S
H1121 C1063 0.930 . S
H1122 C1064 0.930 . S
H1123 C1065 0.930 . S
H1124 C1067 0.930 . S
H1125 C1069 0.929 . S
H1126 C1070 0.930 . S
H1127 C1071 0.930 . S
H1128 C1074 0.930 . S
H1129 C1077 0.929 . S
H1130 C1082 0.929 . S
H1131 C1083 0.930 . S
H1132 C1090 0.929 . S
H1133 C1091 0.930 . S
H1134 C1092 0.930 . S
H1135 C1093 0.930 . S
H1136 C1095 0.929 . S
H1137 C1096 0.930 . S
H1138 C1097 0.930 . S
H1139 C1098 0.930 . S
H1140 C1102 0.929 . S
H1141 C1104 0.930 . S
H1142 C1110 0.929 . S
H1143 C1111 0.930 . S
Li1144 N1161 1.990 . S
Li1144 O1204 1.956 . S
Li1144 O1205 1.970 . S
Li1144 O1206 1.961 . S
Li1145 N1169 1.990 . S
Li1145 O1204 1.970 . S
Li1145 O1205 1.956 . S
Li1145 O1207 1.961 . S
Li1146 N1191 1.990 . S
Li1146 O1204 1.961 . S
Li1146 O1206 1.956 . S
Li1146 O1207 1.970 . S
Li1147 N1197 1.990 . S
Li1147 O1205 1.961 . S
Li1147 O1206 1.970 . S
Li1147 O1207 1.956 . S
C1148 C1150 1.348 . S
C1148 C1151 1.356 . S
C1148 O1204 1.325 . S
N1149 C1152 1.314 . S
N1149 C1153 1.279 . S
C1150 C1148 1.348 . S
C1150 C1152 1.353 . S
C1150 H1208 0.929 . S
C1151 C1148 1.356 . S
C1151 C1153 1.358 . S
C1151 H1209 0.930 . S
C1152 N1149 1.314 . S
C1152 C1150 1.353 . S
C1152 H1210 0.930 . S
C1153 N1149 1.279 . S
C1153 C1151 1.358 . S
C1153 H1211 0.930 . S
C1154 C1157 1.348 . S
C1154 C1158 1.356 . S
C1154 O1205 1.325 . S
C1155 N1156 1.279 . S
C1155 C1158 1.358 . S
C1155 H1212 0.930 . S
N1156 C1155 1.279 . S
N1156 C1159 1.314 . S
C1157 C1154 1.348 . S
C1157 C1159 1.353 . S
C1157 H1213 0.929 . S
C1158 C1154 1.356 . S
C1158 C1155 1.358 . S
C1158 H1214 0.930 . S
C1159 N1156 1.314 . S
C1159 C1157 1.353 . S
C1159 H1215 0.930 . S
C1160 N1161 1.314 . S
C1160 C1165 1.353 . S
C1160 H1166 0.930 . S
N1161 Li1144 1.990 . S
N1161 C1160 1.314 . S
N1161 C1163 1.279 . S
C1162 C1163 1.358 . S
C1162 C1164 1.356 . S
C1162 H1216 0.930 . S
C1163 N1161 1.279 . S
C1163 C1162 1.358 . S
C1163 H1167 0.930 . S
C1164 C1162 1.356 . S
C1164 C1165 1.348 . S
C1165 C1160 1.353 . S
C1165 C1164 1.348 . S
C1165 H1217 0.929 . S
H1166 C1160 0.930 . S
H1167 C1163 0.930 . S
C1168 N1169 1.314 . S
C1168 C1170 1.353 . S
C1168 H1174 0.930 . S
N1169 Li1145 1.990 . S
N1169 C1168 1.314 . S
N1169 C1172 1.279 . S
C1170 C1168 1.353 . S
C1170 C1173 1.348 . S
C1170 H1218 0.929 . S
C1171 C1172 1.358 . S
C1171 C1173 1.356 . S
C1171 H1219 0.930 . S
C1172 N1169 1.279 . S
C1172 C1171 1.358 . S
C1172 H1175 0.930 . S
C1173 C1170 1.348 . S
C1173 C1171 1.356 . S
H1174 C1168 0.930 . S
H1175 C1172 0.930 . S
C1176 C1178 1.348 . S
C1176 C1179 1.356 . S
C1176 O1206 1.325 . S
N1177 C1180 1.314 . S
N1177 C1181 1.279 . S
C1178 C1176 1.348 . S
C1178 C1180 1.353 . S
C1178 H1220 0.929 . S
C1179 C1176 1.356 . S
C1179 C1181 1.358 . S
C1179 H1221 0.930 . S
C1180 N1177 1.314 . S
C1180 C1178 1.353 . S
C1180 H1222 0.930 . S
C1181 N1177 1.279 . S
C1181 C1179 1.358 . S
C1181 H1223 0.930 . S
C1182 C1183 1.348 . S
C1182 C1184 1.356 . S
C1182 O1207 1.325 . S
C1183 C1182 1.348 . S
C1183 C1185 1.353 . S
C1183 H1224 0.929 . S
C1184 C1182 1.356 . S
C1184 C1186 1.358 . S
C1184 H1225 0.930 . S
C1185 C1183 1.353 . S
C1185 N1187 1.314 . S
C1185 H1226 0.930 . S
C1186 C1184 1.358 . S
C1186 N1187 1.279 . S
C1186 H1227 0.930 . S
N1187 C1185 1.314 . S
N1187 C1186 1.279 . S
C1188 C1190 1.353 . S
C1188 N1191 1.314 . S
C1188 H1194 0.930 . S
C1189 N1191 1.279 . S
C1189 C1192 1.358 . S
C1189 H1195 0.930 . S
C1190 C1188 1.353 . S
C1190 C1193 1.348 . S
C1190 H1228 0.929 . S
N1191 Li1146 1.990 . S
N1191 C1188 1.314 . S
N1191 C1189 1.279 . S
C1192 C1189 1.358 . S
C1192 C1193 1.356 . S
C1192 H1229 0.930 . S
C1193 C1190 1.348 . S
C1193 C1192 1.356 . S
H1194 C1188 0.930 . S
H1195 C1189 0.930 . S
C1196 N1197 1.314 . S
C1196 C1198 1.353 . S
C1196 H1202 0.930 . S
N1197 Li1147 1.990 . S
N1197 C1196 1.314 . S
N1197 C1200 1.279 . S
C1198 C1196 1.353 . S
C1198 C1201 1.348 . S
C1198 H1230 0.929 . S
C1199 C1200 1.358 . S
C1199 C1201 1.356 . S
C1199 H1231 0.930 . S
C1200 N1197 1.279 . S
C1200 C1199 1.358 . S
C1200 H1203 0.930 . S
C1201 C1198 1.348 . S
C1201 C1199 1.356 . S
H1202 C1196 0.930 . S
H1203 C1200 0.930 . S
O1204 Li1144 1.956 . S
O1204 Li1145 1.970 . S
O1204 Li1146 1.961 . S
O1204 C1148 1.325 . S
O1205 Li1144 1.970 . S
O1205 Li1145 1.956 . S
O1205 Li1147 1.961 . S
O1205 C1154 1.325 . S
O1206 Li1144 1.961 . S
O1206 Li1146 1.956 . S
O1206 Li1147 1.970 . S
O1206 C1176 1.325 . S
O1207 Li1145 1.961 . S
O1207 Li1146 1.970 . S
O1207 Li1147 1.956 . S
O1207 C1182 1.325 . S
H1208 C1150 0.929 . S
H1209 C1151 0.930 . S
H1210 C1152 0.930 . S
H1211 C1153 0.930 . S
H1212 C1155 0.930 . S
H1213 C1157 0.929 . S
H1214 C1158 0.930 . S
H1215 C1159 0.930 . S
H1216 C1162 0.930 . S
H1217 C1165 0.929 . S
H1218 C1170 0.929 . S
H1219 C1171 0.930 . S
H1220 C1178 0.929 . S
H1221 C1179 0.930 . S
H1222 C1180 0.930 . S
H1223 C1181 0.930 . S
H1224 C1183 0.929 . S
H1225 C1184 0.930 . S
H1226 C1185 0.930 . S
H1227 C1186 0.930 . S
H1228 C1190 0.929 . S
H1229 C1192 0.930 . S
H1230 C1198 0.929 . S
H1231 C1199 0.930 . S
Li1232 N1249 1.990 . S
Li1232 O1292 1.956 . S
Li1232 O1293 1.970 . S
Li1232 O1294 1.961 . S
Li1233 N1257 1.990 . S
Li1233 O1292 1.970 . S
Li1233 O1293 1.956 . S
Li1233 O1295 1.961 . S
Li1234 N1279 1.990 . S
Li1234 O1292 1.961 . S
Li1234 O1294 1.956 . S
Li1234 O1295 1.970 . S
Li1235 N1285 1.990 . S
Li1235 O1293 1.961 . S
Li1235 O1294 1.970 . S
Li1235 O1295 1.956 . S
C1236 C1238 1.348 . S
C1236 C1239 1.356 . S
C1236 O1292 1.325 . S
N1237 C1240 1.314 . S
N1237 C1241 1.279 . S
C1238 C1236 1.348 . S
C1238 C1240 1.353 . S
C1238 H1296 0.929 . S
C1239 C1236 1.356 . S
C1239 C1241 1.358 . S
C1239 H1297 0.930 . S
C1240 N1237 1.314 . S
C1240 C1238 1.353 . S
C1240 H1298 0.930 . S
C1241 N1237 1.279 . S
C1241 C1239 1.358 . S
C1241 H1299 0.930 . S
C1242 C1245 1.348 . S
C1242 C1246 1.356 . S
C1242 O1293 1.325 . S
C1243 N1244 1.279 . S
C1243 C1246 1.358 . S
C1243 H1300 0.930 . S
N1244 C1243 1.279 . S
N1244 C1247 1.314 . S
C1245 C1242 1.348 . S
C1245 C1247 1.353 . S
C1245 H1301 0.929 . S
C1246 C1242 1.356 . S
C1246 C1243 1.358 . S
C1246 H1302 0.930 . S
C1247 N1244 1.314 . S
C1247 C1245 1.353 . S
C1247 H1303 0.930 . S
C1248 N1249 1.314 . S
C1248 C1253 1.353 . S
C1248 H1254 0.930 . S
N1249 Li1232 1.990 . S
N1249 C1248 1.314 . S
N1249 C1251 1.279 . S
C1250 C1251 1.358 . S
C1250 C1252 1.356 . S
C1250 H1304 0.930 . S
C1251 N1249 1.279 . S
C1251 C1250 1.358 . S
C1251 H1255 0.930 . S
C1252 C1250 1.356 . S
C1252 C1253 1.348 . S
C1253 C1248 1.353 . S
C1253 C1252 1.348 . S
C1253 H1305 0.929 . S
H1254 C1248 0.930 . S
H1255 C1251 0.930 . S
C1256 N1257 1.314 . S
C1256 C1258 1.353 . S
C1256 H1262 0.930 . S
N1257 Li1233 1.990 . S
N1257 C1256 1.314 . S
N1257 C1260 1.279 . S
C1258 C1256 1.353 . S
C1258 C1261 1.348 . S
C1258 H1306 0.929 . S
C1259 C1260 1.358 . S
C1259 C1261 1.356 . S
C1259 H1307 0.930 . S
C1260 N1257 1.279 . S
C1260 C1259 1.358 . S
C1260 H1263 0.930 . S
C1261 C1258 1.348 . S
C1261 C1259 1.356 . S
H1262 C1256 0.930 . S
H1263 C1260 0.930 . S
C1264 C1266 1.348 . S
C1264 C1267 1.356 . S
C1264 O1294 1.325 . S
N1265 C1268 1.314 . S
N1265 C1269 1.279 . S
C1266 C1264 1.348 . S
C1266 C1268 1.353 . S
C1266 H1308 0.929 . S
C1267 C1264 1.356 . S
C1267 C1269 1.358 . S
C1267 H1309 0.930 . S
C1268 N1265 1.314 . S
C1268 C1266 1.353 . S
C1268 H1310 0.930 . S
C1269 N1265 1.279 . S
C1269 C1267 1.358 . S
C1269 H1311 0.930 . S
C1270 C1271 1.348 . S
C1270 C1272 1.356 . S
C1270 O1295 1.325 . S
C1271 C1270 1.348 . S
C1271 C1273 1.353 . S
C1271 H1312 0.929 . S
C1272 C1270 1.356 . S
C1272 C1274 1.358 . S
C1272 H1313 0.930 . S
C1273 C1271 1.353 . S
C1273 N1275 1.314 . S
C1273 H1314 0.930 . S
C1274 C1272 1.358 . S
C1274 N1275 1.279 . S
C1274 H1315 0.930 . S
N1275 C1273 1.314 . S
N1275 C1274 1.279 . S
C1276 C1278 1.353 . S
C1276 N1279 1.314 . S
C1276 H1282 0.930 . S
C1277 N1279 1.279 . S
C1277 C1280 1.358 . S
C1277 H1283 0.930 . S
C1278 C1276 1.353 . S
C1278 C1281 1.348 . S
C1278 H1316 0.929 . S
N1279 Li1234 1.990 . S
N1279 C1276 1.314 . S
N1279 C1277 1.279 . S
C1280 C1277 1.358 . S
C1280 C1281 1.356 . S
C1280 H1317 0.930 . S
C1281 C1278 1.348 . S
C1281 C1280 1.356 . S
H1282 C1276 0.930 . S
H1283 C1277 0.930 . S
C1284 N1285 1.314 . S
C1284 C1286 1.353 . S
C1284 H1290 0.930 . S
N1285 Li1235 1.990 . S
N1285 C1284 1.314 . S
N1285 C1288 1.279 . S
C1286 C1284 1.353 . S
C1286 C1289 1.348 . S
C1286 H1318 0.929 . S
C1287 C1288 1.358 . S
C1287 C1289 1.356 . S
C1287 H1319 0.930 . S
C1288 N1285 1.279 . S
C1288 C1287 1.358 . S
C1288 H1291 0.930 . S
C1289 C1286 1.348 . S
C1289 C1287 1.356 . S
H1290 C1284 0.930 . S
H1291 C1288 0.930 . S
O1292 Li1232 1.956 . S
O1292 Li1233 1.970 . S
O1292 Li1234 1.961 . S
O1292 C1236 1.325 . S
O1293 Li1232 1.970 . S
O1293 Li1233 1.956 . S
O1293 Li1235 1.961 . S
O1293 C1242 1.325 . S
O1294 Li1232 1.961 . S
O1294 Li1234 1.956 . S
O1294 Li1235 1.970 . S
O1294 C1264 1.325 . S
O1295 Li1233 1.961 . S
O1295 Li1234 1.970 . S
O1295 Li1235 1.956 . S
O1295 C1270 1.325 . S
H1296 C1238 0.929 . S
H1297 C1239 0.930 . S
H1298 C1240 0.930 . S
H1299 C1241 0.930 . S
H1300 C1243 0.930 . S
H1301 C1245 0.929 . S
H1302 C1246 0.930 . S
H1303 C1247 0.930 . S
H1304 C1250 0.930 . S
H1305 C1253 0.929 . S
H1306 C1258 0.929 . S
H1307 C1259 0.930 . S
H1308 C1266 0.929 . S
H1309 C1267 0.930 . S
H1310 C1268 0.930 . S
H1311 C1269 0.930 . S
H1312 C1271 0.929 . S
H1313 C1272 0.930 . S
H1314 C1273 0.930 . S
H1315 C1274 0.930 . S
H1316 C1278 0.929 . S
H1317 C1280 0.930 . S
H1318 C1286 0.929 . S
H1319 C1287 0.930 . S
Li1320 N1337 1.990 . S
Li1320 O1380 1.956 . S
Li1320 O1381 1.970 . S
Li1320 O1382 1.961 . S
Li1321 N1345 1.990 . S
Li1321 O1380 1.970 . S
Li1321 O1381 1.956 . S
Li1321 O1383 1.961 . S
Li1322 N1367 1.990 . S
Li1322 O1380 1.961 . S
Li1322 O1382 1.956 . S
Li1322 O1383 1.970 . S
Li1323 N1373 1.990 . S
Li1323 O1381 1.961 . S
Li1323 O1382 1.970 . S
Li1323 O1383 1.956 . S
C1324 C1326 1.348 . S
C1324 C1327 1.356 . S
C1324 O1380 1.325 . S
N1325 C1328 1.314 . S
N1325 C1329 1.279 . S
C1326 C1324 1.348 . S
C1326 C1328 1.353 . S
C1326 H1384 0.929 . S
C1327 C1324 1.356 . S
C1327 C1329 1.358 . S
C1327 H1385 0.930 . S
C1328 N1325 1.314 . S
C1328 C1326 1.353 . S
C1328 H1386 0.930 . S
C1329 N1325 1.279 . S
C1329 C1327 1.358 . S
C1329 H1387 0.930 . S
C1330 C1333 1.348 . S
C1330 C1334 1.356 . S
C1330 O1381 1.325 . S
C1331 N1332 1.279 . S
C1331 C1334 1.358 . S
C1331 H1388 0.930 . S
N1332 C1331 1.279 . S
N1332 C1335 1.314 . S
C1333 C1330 1.348 . S
C1333 C1335 1.353 . S
C1333 H1389 0.929 . S
C1334 C1330 1.356 . S
C1334 C1331 1.358 . S
C1334 H1390 0.930 . S
C1335 N1332 1.314 . S
C1335 C1333 1.353 . S
C1335 H1391 0.930 . S
C1336 N1337 1.314 . S
C1336 C1341 1.353 . S
C1336 H1342 0.930 . S
N1337 Li1320 1.990 . S
N1337 C1336 1.314 . S
N1337 C1339 1.279 . S
C1338 C1339 1.358 . S
C1338 C1340 1.356 . S
C1338 H1392 0.930 . S
C1339 N1337 1.279 . S
C1339 C1338 1.358 . S
C1339 H1343 0.930 . S
C1340 C1338 1.356 . S
C1340 C1341 1.348 . S
C1341 C1336 1.353 . S
C1341 C1340 1.348 . S
C1341 H1393 0.929 . S
H1342 C1336 0.930 . S
H1343 C1339 0.930 . S
C1344 N1345 1.314 . S
C1344 C1346 1.353 . S
C1344 H1350 0.930 . S
N1345 Li1321 1.990 . S
N1345 C1344 1.314 . S
N1345 C1348 1.279 . S
C1346 C1344 1.353 . S
C1346 C1349 1.348 . S
C1346 H1394 0.929 . S
C1347 C1348 1.358 . S
C1347 C1349 1.356 . S
C1347 H1395 0.930 . S
C1348 N1345 1.279 . S
C1348 C1347 1.358 . S
C1348 H1351 0.930 . S
C1349 C1346 1.348 . S
C1349 C1347 1.356 . S
H1350 C1344 0.930 . S
H1351 C1348 0.930 . S
C1352 C1354 1.348 . S
C1352 C1355 1.356 . S
C1352 O1382 1.325 . S
N1353 C1356 1.314 . S
N1353 C1357 1.279 . S
C1354 C1352 1.348 . S
C1354 C1356 1.353 . S
C1354 H1396 0.929 . S
C1355 C1352 1.356 . S
C1355 C1357 1.358 . S
C1355 H1397 0.930 . S
C1356 N1353 1.314 . S
C1356 C1354 1.353 . S
C1356 H1398 0.930 . S
C1357 N1353 1.279 . S
C1357 C1355 1.358 . S
C1357 H1399 0.930 . S
C1358 C1359 1.348 . S
C1358 C1360 1.356 . S
C1358 O1383 1.325 . S
C1359 C1358 1.348 . S
C1359 C1361 1.353 . S
C1359 H1400 0.929 . S
C1360 C1358 1.356 . S
C1360 C1362 1.358 . S
C1360 H1401 0.930 . S
C1361 C1359 1.353 . S
C1361 N1363 1.314 . S
C1361 H1402 0.930 . S
C1362 C1360 1.358 . S
C1362 N1363 1.279 . S
C1362 H1403 0.930 . S
N1363 C1361 1.314 . S
N1363 C1362 1.279 . S
C1364 C1366 1.353 . S
C1364 N1367 1.314 . S
C1364 H1370 0.930 . S
C1365 N1367 1.279 . S
C1365 C1368 1.358 . S
C1365 H1371 0.930 . S
C1366 C1364 1.353 . S
C1366 C1369 1.348 . S
C1366 H1404 0.929 . S
N1367 Li1322 1.990 . S
N1367 C1364 1.314 . S
N1367 C1365 1.279 . S
C1368 C1365 1.358 . S
C1368 C1369 1.356 . S
C1368 H1405 0.930 . S
C1369 C1366 1.348 . S
C1369 C1368 1.356 . S
H1370 C1364 0.930 . S
H1371 C1365 0.930 . S
C1372 N1373 1.314 . S
C1372 C1374 1.353 . S
C1372 H1378 0.930 . S
N1373 Li1323 1.990 . S
N1373 C1372 1.314 . S
N1373 C1376 1.279 . S
C1374 C1372 1.353 . S
C1374 C1377 1.348 . S
C1374 H1406 0.929 . S
C1375 C1376 1.358 . S
C1375 C1377 1.356 . S
C1375 H1407 0.930 . S
C1376 N1373 1.279 . S
C1376 C1375 1.358 . S
C1376 H1379 0.930 . S
C1377 C1374 1.348 . S
C1377 C1375 1.356 . S
H1378 C1372 0.930 . S
H1379 C1376 0.930 . S
O1380 Li1320 1.956 . S
O1380 Li1321 1.970 . S
O1380 Li1322 1.961 . S
O1380 C1324 1.325 . S
O1381 Li1320 1.970 . S
O1381 Li1321 1.956 . S
O1381 Li1323 1.961 . S
O1381 C1330 1.325 . S
O1382 Li1320 1.961 . S
O1382 Li1322 1.956 . S
O1382 Li1323 1.970 . S
O1382 C1352 1.325 . S
O1383 Li1321 1.961 . S
O1383 Li1322 1.970 . S
O1383 Li1323 1.956 . S
O1383 C1358 1.325 . S
H1384 C1326 0.929 . S
H1385 C1327 0.930 . S
H1386 C1328 0.930 . S
H1387 C1329 0.930 . S
H1388 C1331 0.930 . S
H1389 C1333 0.929 . S
H1390 C1334 0.930 . S
H1391 C1335 0.930 . S
H1392 C1338 0.930 . S
H1393 C1341 0.929 . S
H1394 C1346 0.929 . S
H1395 C1347 0.930 . S
H1396 C1354 0.929 . S
H1397 C1355 0.930 . S
H1398 C1356 0.930 . S
H1399 C1357 0.930 . S
H1400 C1359 0.929 . S
H1401 C1360 0.930 . S
H1402 C1361 0.930 . S
H1403 C1362 0.930 . S
H1404 C1366 0.929 . S
H1405 C1368 0.930 . S
H1406 C1374 0.929 . S
H1407 C1375 0.930 . S
Li1408 N1425 1.990 . S
Li1408 O1468 1.956 . S
Li1408 O1469 1.970 . S
Li1408 O1470 1.961 . S
Li1409 N1433 1.990 . S
Li1409 O1468 1.970 . S
Li1409 O1469 1.956 . S
Li1409 O1471 1.961 . S
Li1410 N1455 1.990 . S
Li1410 O1468 1.961 . S
Li1410 O1470 1.956 . S
Li1410 O1471 1.970 . S
Li1411 N1461 1.990 . S
Li1411 O1469 1.961 . S
Li1411 O1470 1.970 . S
Li1411 O1471 1.956 . S
C1412 C1414 1.348 . S
C1412 C1415 1.356 . S
C1412 O1468 1.325 . S
N1413 C1416 1.314 . S
N1413 C1417 1.279 . S
C1414 C1412 1.348 . S
C1414 C1416 1.353 . S
C1414 H1472 0.929 . S
C1415 C1412 1.356 . S
C1415 C1417 1.358 . S
C1415 H1473 0.930 . S
C1416 N1413 1.314 . S
C1416 C1414 1.353 . S
C1416 H1474 0.930 . S
C1417 N1413 1.279 . S
C1417 C1415 1.358 . S
C1417 H1475 0.930 . S
C1418 C1421 1.348 . S
C1418 C1422 1.356 . S
C1418 O1469 1.325 . S
C1419 N1420 1.279 . S
C1419 C1422 1.358 . S
C1419 H1476 0.930 . S
N1420 C1419 1.279 . S
N1420 C1423 1.314 . S
C1421 C1418 1.348 . S
C1421 C1423 1.353 . S
C1421 H1477 0.929 . S
C1422 C1418 1.356 . S
C1422 C1419 1.358 . S
C1422 H1478 0.930 . S
C1423 N1420 1.314 . S
C1423 C1421 1.353 . S
C1423 H1479 0.930 . S
C1424 N1425 1.314 . S
C1424 C1429 1.353 . S
C1424 H1430 0.930 . S
N1425 Li1408 1.990 . S
N1425 C1424 1.314 . S
N1425 C1427 1.279 . S
C1426 C1427 1.358 . S
C1426 C1428 1.356 . S
C1426 H1480 0.930 . S
C1427 N1425 1.279 . S
C1427 C1426 1.358 . S
C1427 H1431 0.930 . S
C1428 C1426 1.356 . S
C1428 C1429 1.348 . S
C1429 C1424 1.353 . S
C1429 C1428 1.348 . S
C1429 H1481 0.929 . S
H1430 C1424 0.930 . S
H1431 C1427 0.930 . S
C1432 N1433 1.314 . S
C1432 C1434 1.353 . S
C1432 H1438 0.930 . S
N1433 Li1409 1.990 . S
N1433 C1432 1.314 . S
N1433 C1436 1.279 . S
C1434 C1432 1.353 . S
C1434 C1437 1.348 . S
C1434 H1482 0.929 . S
C1435 C1436 1.358 . S
C1435 C1437 1.356 . S
C1435 H1483 0.930 . S
C1436 N1433 1.279 . S
C1436 C1435 1.358 . S
C1436 H1439 0.930 . S
C1437 C1434 1.348 . S
C1437 C1435 1.356 . S
H1438 C1432 0.930 . S
H1439 C1436 0.930 . S
C1440 C1442 1.348 . S
C1440 C1443 1.356 . S
C1440 O1470 1.325 . S
N1441 C1444 1.314 . S
N1441 C1445 1.279 . S
C1442 C1440 1.348 . S
C1442 C1444 1.353 . S
C1442 H1484 0.929 . S
C1443 C1440 1.356 . S
C1443 C1445 1.358 . S
C1443 H1485 0.930 . S
C1444 N1441 1.314 . S
C1444 C1442 1.353 . S
C1444 H1486 0.930 . S
C1445 N1441 1.279 . S
C1445 C1443 1.358 . S
C1445 H1487 0.930 . S
C1446 C1447 1.348 . S
C1446 C1448 1.356 . S
C1446 O1471 1.325 . S
C1447 C1446 1.348 . S
C1447 C1449 1.353 . S
C1447 H1488 0.929 . S
C1448 C1446 1.356 . S
C1448 C1450 1.358 . S
C1448 H1489 0.930 . S
C1449 C1447 1.353 . S
C1449 N1451 1.314 . S
C1449 H1490 0.930 . S
C1450 C1448 1.358 . S
C1450 N1451 1.279 . S
C1450 H1491 0.930 . S
N1451 C1449 1.314 . S
N1451 C1450 1.279 . S
C1452 C1454 1.353 . S
C1452 N1455 1.314 . S
C1452 H1458 0.930 . S
C1453 N1455 1.279 . S
C1453 C1456 1.358 . S
C1453 H1459 0.930 . S
C1454 C1452 1.353 . S
C1454 C1457 1.348 . S
C1454 H1492 0.929 . S
N1455 Li1410 1.990 . S
N1455 C1452 1.314 . S
N1455 C1453 1.279 . S
C1456 C1453 1.358 . S
C1456 C1457 1.356 . S
C1456 H1493 0.930 . S
C1457 C1454 1.348 . S
C1457 C1456 1.356 . S
H1458 C1452 0.930 . S
H1459 C1453 0.930 . S
C1460 N1461 1.314 . S
C1460 C1462 1.353 . S
C1460 H1466 0.930 . S
N1461 Li1411 1.990 . S
N1461 C1460 1.314 . S
N1461 C1464 1.279 . S
C1462 C1460 1.353 . S
C1462 C1465 1.348 . S
C1462 H1494 0.929 . S
C1463 C1464 1.358 . S
C1463 C1465 1.356 . S
C1463 H1495 0.930 . S
C1464 N1461 1.279 . S
C1464 C1463 1.358 . S
C1464 H1467 0.930 . S
C1465 C1462 1.348 . S
C1465 C1463 1.356 . S
H1466 C1460 0.930 . S
H1467 C1464 0.930 . S
O1468 Li1408 1.956 . S
O1468 Li1409 1.970 . S
O1468 Li1410 1.961 . S
O1468 C1412 1.325 . S
O1469 Li1408 1.970 . S
O1469 Li1409 1.956 . S
O1469 Li1411 1.961 . S
O1469 C1418 1.325 . S
O1470 Li1408 1.961 . S
O1470 Li1410 1.956 . S
O1470 Li1411 1.970 . S
O1470 C1440 1.325 . S
O1471 Li1409 1.961 . S
O1471 Li1410 1.970 . S
O1471 Li1411 1.956 . S
O1471 C1446 1.325 . S
H1472 C1414 0.929 . S
H1473 C1415 0.930 . S
H1474 C1416 0.930 . S
H1475 C1417 0.930 . S
H1476 C1419 0.930 . S
H1477 C1421 0.929 . S
H1478 C1422 0.930 . S
H1479 C1423 0.930 . S
H1480 C1426 0.930 . S
H1481 C1429 0.929 . S
H1482 C1434 0.929 . S
H1483 C1435 0.930 . S
H1484 C1442 0.929 . S
H1485 C1443 0.930 . S
H1486 C1444 0.930 . S
H1487 C1445 0.930 . S
H1488 C1447 0.929 . S
H1489 C1448 0.930 . S
H1490 C1449 0.930 . S
H1491 C1450 0.930 . S
H1492 C1454 0.929 . S
H1493 C1456 0.930 . S
H1494 C1462 0.929 . S
H1495 C1463 0.930 . S
Li1496 N1513 1.990 . S
Li1496 O1556 1.956 . S
Li1496 O1557 1.970 . S
Li1496 O1558 1.961 . S
Li1497 N1521 1.990 . S
Li1497 O1556 1.970 . S
Li1497 O1557 1.956 . S
Li1497 O1559 1.961 . S
Li1498 N1543 1.990 . S
Li1498 O1556 1.961 . S
Li1498 O1558 1.956 . S
Li1498 O1559 1.970 . S
Li1499 N1549 1.990 . S
Li1499 O1557 1.961 . S
Li1499 O1558 1.970 . S
Li1499 O1559 1.956 . S
C1500 C1502 1.348 . S
C1500 C1503 1.356 . S
C1500 O1556 1.325 . S
N1501 C1504 1.314 . S
N1501 C1505 1.279 . S
C1502 C1500 1.348 . S
C1502 C1504 1.353 . S
C1502 H1560 0.929 . S
C1503 C1500 1.356 . S
C1503 C1505 1.358 . S
C1503 H1561 0.930 . S
C1504 N1501 1.314 . S
C1504 C1502 1.353 . S
C1504 H1562 0.930 . S
C1505 N1501 1.279 . S
C1505 C1503 1.358 . S
C1505 H1563 0.930 . S
C1506 C1509 1.348 . S
C1506 C1510 1.356 . S
C1506 O1557 1.325 . S
C1507 N1508 1.279 . S
C1507 C1510 1.358 . S
C1507 H1564 0.930 . S
N1508 C1507 1.279 . S
N1508 C1511 1.314 . S
C1509 C1506 1.348 . S
C1509 C1511 1.353 . S
C1509 H1565 0.929 . S
C1510 C1506 1.356 . S
C1510 C1507 1.358 . S
C1510 H1566 0.930 . S
C1511 N1508 1.314 . S
C1511 C1509 1.353 . S
C1511 H1567 0.930 . S
C1512 N1513 1.314 . S
C1512 C1517 1.353 . S
C1512 H1518 0.930 . S
N1513 Li1496 1.990 . S
N1513 C1512 1.314 . S
N1513 C1515 1.279 . S
C1514 C1515 1.358 . S
C1514 C1516 1.356 . S
C1514 H1568 0.930 . S
C1515 N1513 1.279 . S
C1515 C1514 1.358 . S
C1515 H1519 0.930 . S
C1516 C1514 1.356 . S
C1516 C1517 1.348 . S
C1517 C1512 1.353 . S
C1517 C1516 1.348 . S
C1517 H1569 0.929 . S
H1518 C1512 0.930 . S
H1519 C1515 0.930 . S
C1520 N1521 1.314 . S
C1520 C1522 1.353 . S
C1520 H1526 0.930 . S
N1521 Li1497 1.990 . S
N1521 C1520 1.314 . S
N1521 C1524 1.279 . S
C1522 C1520 1.353 . S
C1522 C1525 1.348 . S
C1522 H1570 0.929 . S
C1523 C1524 1.358 . S
C1523 C1525 1.356 . S
C1523 H1571 0.930 . S
C1524 N1521 1.279 . S
C1524 C1523 1.358 . S
C1524 H1527 0.930 . S
C1525 C1522 1.348 . S
C1525 C1523 1.356 . S
H1526 C1520 0.930 . S
H1527 C1524 0.930 . S
C1528 C1530 1.348 . S
C1528 C1531 1.356 . S
C1528 O1558 1.325 . S
N1529 C1532 1.314 . S
N1529 C1533 1.279 . S
C1530 C1528 1.348 . S
C1530 C1532 1.353 . S
C1530 H1572 0.929 . S
C1531 C1528 1.356 . S
C1531 C1533 1.358 . S
C1531 H1573 0.930 . S
C1532 N1529 1.314 . S
C1532 C1530 1.353 . S
C1532 H1574 0.930 . S
C1533 N1529 1.279 . S
C1533 C1531 1.358 . S
C1533 H1575 0.930 . S
C1534 C1535 1.348 . S
C1534 C1536 1.356 . S
C1534 O1559 1.325 . S
C1535 C1534 1.348 . S
C1535 C1537 1.353 . S
C1535 H1576 0.929 . S
C1536 C1534 1.356 . S
C1536 C1538 1.358 . S
C1536 H1577 0.930 . S
C1537 C1535 1.353 . S
C1537 N1539 1.314 . S
C1537 H1578 0.930 . S
C1538 C1536 1.358 . S
C1538 N1539 1.279 . S
C1538 H1579 0.930 . S
N1539 C1537 1.314 . S
N1539 C1538 1.279 . S
C1540 C1542 1.353 . S
C1540 N1543 1.314 . S
C1540 H1546 0.930 . S
C1541 N1543 1.279 . S
C1541 C1544 1.358 . S
C1541 H1547 0.930 . S
C1542 C1540 1.353 . S
C1542 C1545 1.348 . S
C1542 H1580 0.929 . S
N1543 Li1498 1.990 . S
N1543 C1540 1.314 . S
N1543 C1541 1.279 . S
C1544 C1541 1.358 . S
C1544 C1545 1.356 . S
C1544 H1581 0.930 . S
C1545 C1542 1.348 . S
C1545 C1544 1.356 . S
H1546 C1540 0.930 . S
H1547 C1541 0.930 . S
C1548 N1549 1.314 . S
C1548 C1550 1.353 . S
C1548 H1554 0.930 . S
N1549 Li1499 1.990 . S
N1549 C1548 1.314 . S
N1549 C1552 1.279 . S
C1550 C1548 1.353 . S
C1550 C1553 1.348 . S
C1550 H1582 0.929 . S
C1551 C1552 1.358 . S
C1551 C1553 1.356 . S
C1551 H1583 0.930 . S
C1552 N1549 1.279 . S
C1552 C1551 1.358 . S
C1552 H1555 0.930 . S
C1553 C1550 1.348 . S
C1553 C1551 1.356 . S
H1554 C1548 0.930 . S
H1555 C1552 0.930 . S
O1556 Li1496 1.956 . S
O1556 Li1497 1.970 . S
O1556 Li1498 1.961 . S
O1556 C1500 1.325 . S
O1557 Li1496 1.970 . S
O1557 Li1497 1.956 . S
O1557 Li1499 1.961 . S
O1557 C1506 1.325 . S
O1558 Li1496 1.961 . S
O1558 Li1498 1.956 . S
O1558 Li1499 1.970 . S
O1558 C1528 1.325 . S
O1559 Li1497 1.961 . S
O1559 Li1498 1.970 . S
O1559 Li1499 1.956 . S
O1559 C1534 1.325 . S
H1560 C1502 0.929 . S
H1561 C1503 0.930 . S
H1562 C1504 0.930 . S
H1563 C1505 0.930 . S
H1564 C1507 0.930 . S
H1565 C1509 0.929 . S
H1566 C1510 0.930 . S
H1567 C1511 0.930 . S
H1568 C1514 0.930 . S
H1569 C1517 0.929 . S
H1570 C1522 0.929 . S
H1571 C1523 0.930 . S
H1572 C1530 0.929 . S
H1573 C1531 0.930 . S
H1574 C1532 0.930 . S
H1575 C1533 0.930 . S
H1576 C1535 0.929 . S
H1577 C1536 0.930 . S
H1578 C1537 0.930 . S
H1579 C1538 0.930 . S
H1580 C1542 0.929 . S
H1581 C1544 0.930 . S
H1582 C1550 0.929 . S
H1583 C1551 0.930 . S
Li1584 N1601 1.990 . S
Li1584 O1644 1.956 . S
Li1584 O1645 1.970 . S
Li1584 O1646 1.961 . S
Li1585 N1609 1.990 . S
Li1585 O1644 1.970 . S
Li1585 O1645 1.956 . S
Li1585 O1647 1.961 . S
Li1586 N1631 1.990 . S
Li1586 O1644 1.961 . S
Li1586 O1646 1.956 . S
Li1586 O1647 1.970 . S
Li1587 N1637 1.990 . S
Li1587 O1645 1.961 . S
Li1587 O1646 1.970 . S
Li1587 O1647 1.956 . S
C1588 C1590 1.348 . S
C1588 C1591 1.356 . S
C1588 O1644 1.325 . S
N1589 C1592 1.314 . S
N1589 C1593 1.279 . S
C1590 C1588 1.348 . S
C1590 C1592 1.353 . S
C1590 H1648 0.929 . S
C1591 C1588 1.356 . S
C1591 C1593 1.358 . S
C1591 H1649 0.930 . S
C1592 N1589 1.314 . S
C1592 C1590 1.353 . S
C1592 H1650 0.930 . S
C1593 N1589 1.279 . S
C1593 C1591 1.358 . S
C1593 H1651 0.930 . S
C1594 C1597 1.348 . S
C1594 C1598 1.356 . S
C1594 O1645 1.325 . S
C1595 N1596 1.279 . S
C1595 C1598 1.358 . S
C1595 H1652 0.930 . S
N1596 C1595 1.279 . S
N1596 C1599 1.314 . S
C1597 C1594 1.348 . S
C1597 C1599 1.353 . S
C1597 H1653 0.929 . S
C1598 C1594 1.356 . S
C1598 C1595 1.358 . S
C1598 H1654 0.930 . S
C1599 N1596 1.314 . S
C1599 C1597 1.353 . S
C1599 H1655 0.930 . S
C1600 N1601 1.314 . S
C1600 C1605 1.353 . S
C1600 H1606 0.930 . S
N1601 Li1584 1.990 . S
N1601 C1600 1.314 . S
N1601 C1603 1.279 . S
C1602 C1603 1.358 . S
C1602 C1604 1.356 . S
C1602 H1656 0.930 . S
C1603 N1601 1.279 . S
C1603 C1602 1.358 . S
C1603 H1607 0.930 . S
C1604 C1602 1.356 . S
C1604 C1605 1.348 . S
C1605 C1600 1.353 . S
C1605 C1604 1.348 . S
C1605 H1657 0.929 . S
H1606 C1600 0.930 . S
H1607 C1603 0.930 . S
C1608 N1609 1.314 . S
C1608 C1610 1.353 . S
C1608 H1614 0.930 . S
N1609 Li1585 1.990 . S
N1609 C1608 1.314 . S
N1609 C1612 1.279 . S
C1610 C1608 1.353 . S
C1610 C1613 1.348 . S
C1610 H1658 0.929 . S
C1611 C1612 1.358 . S
C1611 C1613 1.356 . S
C1611 H1659 0.930 . S
C1612 N1609 1.279 . S
C1612 C1611 1.358 . S
C1612 H1615 0.930 . S
C1613 C1610 1.348 . S
C1613 C1611 1.356 . S
H1614 C1608 0.930 . S
H1615 C1612 0.930 . S
C1616 C1618 1.348 . S
C1616 C1619 1.356 . S
C1616 O1646 1.325 . S
N1617 C1620 1.314 . S
N1617 C1621 1.279 . S
C1618 C1616 1.348 . S
C1618 C1620 1.353 . S
C1618 H1660 0.929 . S
C1619 C1616 1.356 . S
C1619 C1621 1.358 . S
C1619 H1661 0.930 . S
C1620 N1617 1.314 . S
C1620 C1618 1.353 . S
C1620 H1662 0.930 . S
C1621 N1617 1.279 . S
C1621 C1619 1.358 . S
C1621 H1663 0.930 . S
C1622 C1623 1.348 . S
C1622 C1624 1.356 . S
C1622 O1647 1.325 . S
C1623 C1622 1.348 . S
C1623 C1625 1.353 . S
C1623 H1664 0.929 . S
C1624 C1622 1.356 . S
C1624 C1626 1.358 . S
C1624 H1665 0.930 . S
C1625 C1623 1.353 . S
C1625 N1627 1.314 . S
C1625 H1666 0.930 . S
C1626 C1624 1.358 . S
C1626 N1627 1.279 . S
C1626 H1667 0.930 . S
N1627 C1625 1.314 . S
N1627 C1626 1.279 . S
C1628 C1630 1.353 . S
C1628 N1631 1.314 . S
C1628 H1634 0.930 . S
C1629 N1631 1.279 . S
C1629 C1632 1.358 . S
C1629 H1635 0.930 . S
C1630 C1628 1.353 . S
C1630 C1633 1.348 . S
C1630 H1668 0.929 . S
N1631 Li1586 1.990 . S
N1631 C1628 1.314 . S
N1631 C1629 1.279 . S
C1632 C1629 1.358 . S
C1632 C1633 1.356 . S
C1632 H1669 0.930 . S
C1633 C1630 1.348 . S
C1633 C1632 1.356 . S
H1634 C1628 0.930 . S
H1635 C1629 0.930 . S
C1636 N1637 1.314 . S
C1636 C1638 1.353 . S
C1636 H1642 0.930 . S
N1637 Li1587 1.990 . S
N1637 C1636 1.314 . S
N1637 C1640 1.279 . S
C1638 C1636 1.353 . S
C1638 C1641 1.348 . S
C1638 H1670 0.929 . S
C1639 C1640 1.358 . S
C1639 C1641 1.356 . S
C1639 H1671 0.930 . S
C1640 N1637 1.279 . S
C1640 C1639 1.358 . S
C1640 H1643 0.930 . S
C1641 C1638 1.348 . S
C1641 C1639 1.356 . S
H1642 C1636 0.930 . S
H1643 C1640 0.930 . S
O1644 Li1584 1.956 . S
O1644 Li1585 1.970 . S
O1644 Li1586 1.961 . S
O1644 C1588 1.325 . S
O1645 Li1584 1.970 . S
O1645 Li1585 1.956 . S
O1645 Li1587 1.961 . S
O1645 C1594 1.325 . S
O1646 Li1584 1.961 . S
O1646 Li1586 1.956 . S
O1646 Li1587 1.970 . S
O1646 C1616 1.325 . S
O1647 Li1585 1.961 . S
O1647 Li1586 1.970 . S
O1647 Li1587 1.956 . S
O1647 C1622 1.325 . S
H1648 C1590 0.929 . S
H1649 C1591 0.930 . S
H1650 C1592 0.930 . S
H1651 C1593 0.930 . S
H1652 C1595 0.930 . S
H1653 C1597 0.929 . S
H1654 C1598 0.930 . S
H1655 C1599 0.930 . S
H1656 C1602 0.930 . S
H1657 C1605 0.929 . S
H1658 C1610 0.929 . S
H1659 C1611 0.930 . S
H1660 C1618 0.929 . S
H1661 C1619 0.930 . S
H1662 C1620 0.930 . S
H1663 C1621 0.930 . S
H1664 C1623 0.929 . S
H1665 C1624 0.930 . S
H1666 C1625 0.930 . S
H1667 C1626 0.930 . S
H1668 C1630 0.929 . S
H1669 C1632 0.930 . S
H1670 C1638 0.929 . S
H1671 C1639 0.930 . S
Li1672 N1689 1.990 . S
Li1672 O1732 1.956 . S
Li1672 O1733 1.970 . S
Li1672 O1734 1.961 . S
Li1673 N1697 1.990 . S
Li1673 O1732 1.970 . S
Li1673 O1733 1.956 . S
Li1673 O1735 1.961 . S
Li1674 N1719 1.990 . S
Li1674 O1732 1.961 . S
Li1674 O1734 1.956 . S
Li1674 O1735 1.970 . S
Li1675 N1725 1.990 . S
Li1675 O1733 1.961 . S
Li1675 O1734 1.970 . S
Li1675 O1735 1.956 . S
C1676 C1678 1.348 . S
C1676 C1679 1.356 . S
C1676 O1732 1.325 . S
N1677 C1680 1.314 . S
N1677 C1681 1.279 . S
C1678 C1676 1.348 . S
C1678 C1680 1.353 . S
C1678 H1736 0.929 . S
C1679 C1676 1.356 . S
C1679 C1681 1.358 . S
C1679 H1737 0.930 . S
C1680 N1677 1.314 . S
C1680 C1678 1.353 . S
C1680 H1738 0.930 . S
C1681 N1677 1.279 . S
C1681 C1679 1.358 . S
C1681 H1739 0.930 . S
C1682 C1685 1.348 . S
C1682 C1686 1.356 . S
C1682 O1733 1.325 . S
C1683 N1684 1.279 . S
C1683 C1686 1.358 . S
C1683 H1740 0.930 . S
N1684 C1683 1.279 . S
N1684 C1687 1.314 . S
C1685 C1682 1.348 . S
C1685 C1687 1.353 . S
C1685 H1741 0.929 . S
C1686 C1682 1.356 . S
C1686 C1683 1.358 . S
C1686 H1742 0.930 . S
C1687 N1684 1.314 . S
C1687 C1685 1.353 . S
C1687 H1743 0.930 . S
C1688 N1689 1.314 . S
C1688 C1693 1.353 . S
C1688 H1694 0.930 . S
N1689 Li1672 1.990 . S
N1689 C1688 1.314 . S
N1689 C1691 1.279 . S
C1690 C1691 1.358 . S
C1690 C1692 1.356 . S
C1690 H1744 0.930 . S
C1691 N1689 1.279 . S
C1691 C1690 1.358 . S
C1691 H1695 0.930 . S
C1692 C1690 1.356 . S
C1692 C1693 1.348 . S
C1693 C1688 1.353 . S
C1693 C1692 1.348 . S
C1693 H1745 0.929 . S
H1694 C1688 0.930 . S
H1695 C1691 0.930 . S
C1696 N1697 1.314 . S
C1696 C1698 1.353 . S
C1696 H1702 0.930 . S
N1697 Li1673 1.990 . S
N1697 C1696 1.314 . S
N1697 C1700 1.279 . S
C1698 C1696 1.353 . S
C1698 C1701 1.348 . S
C1698 H1746 0.929 . S
C1699 C1700 1.358 . S
C1699 C1701 1.356 . S
C1699 H1747 0.930 . S
C1700 N1697 1.279 . S
C1700 C1699 1.358 . S
C1700 H1703 0.930 . S
C1701 C1698 1.348 . S
C1701 C1699 1.356 . S
H1702 C1696 0.930 . S
H1703 C1700 0.930 . S
C1704 C1706 1.348 . S
C1704 C1707 1.356 . S
C1704 O1734 1.325 . S
N1705 C1708 1.314 . S
N1705 C1709 1.279 . S
C1706 C1704 1.348 . S
C1706 C1708 1.353 . S
C1706 H1748 0.929 . S
C1707 C1704 1.356 . S
C1707 C1709 1.358 . S
C1707 H1749 0.930 . S
C1708 N1705 1.314 . S
C1708 C1706 1.353 . S
C1708 H1750 0.930 . S
C1709 N1705 1.279 . S
C1709 C1707 1.358 . S
C1709 H1751 0.930 . S
C1710 C1711 1.348 . S
C1710 C1712 1.356 . S
C1710 O1735 1.325 . S
C1711 C1710 1.348 . S
C1711 C1713 1.353 . S
C1711 H1752 0.929 . S
C1712 C1710 1.356 . S
C1712 C1714 1.358 . S
C1712 H1753 0.930 . S
C1713 C1711 1.353 . S
C1713 N1715 1.314 . S
C1713 H1754 0.930 . S
C1714 C1712 1.358 . S
C1714 N1715 1.279 . S
C1714 H1755 0.930 . S
N1715 C1713 1.314 . S
N1715 C1714 1.279 . S
C1716 C1718 1.353 . S
C1716 N1719 1.314 . S
C1716 H1722 0.930 . S
C1717 N1719 1.279 . S
C1717 C1720 1.358 . S
C1717 H1723 0.930 . S
C1718 C1716 1.353 . S
C1718 C1721 1.348 . S
C1718 H1756 0.929 . S
N1719 Li1674 1.990 . S
N1719 C1716 1.314 . S
N1719 C1717 1.279 . S
C1720 C1717 1.358 . S
C1720 C1721 1.356 . S
C1720 H1757 0.930 . S
C1721 C1718 1.348 . S
C1721 C1720 1.356 . S
H1722 C1716 0.930 . S
H1723 C1717 0.930 . S
C1724 N1725 1.314 . S
C1724 C1726 1.353 . S
C1724 H1730 0.930 . S
N1725 Li1675 1.990 . S
N1725 C1724 1.314 . S
N1725 C1728 1.279 . S
C1726 C1724 1.353 . S
C1726 C1729 1.348 . S
C1726 H1758 0.929 . S
C1727 C1728 1.358 . S
C1727 C1729 1.356 . S
C1727 H1759 0.930 . S
C1728 N1725 1.279 . S
C1728 C1727 1.358 . S
C1728 H1731 0.930 . S
C1729 C1726 1.348 . S
C1729 C1727 1.356 . S
H1730 C1724 0.930 . S
H1731 C1728 0.930 . S
O1732 Li1672 1.956 . S
O1732 Li1673 1.970 . S
O1732 Li1674 1.961 . S
O1732 C1676 1.325 . S
O1733 Li1672 1.970 . S
O1733 Li1673 1.956 . S
O1733 Li1675 1.961 . S
O1733 C1682 1.325 . S
O1734 Li1672 1.961 . S
O1734 Li1674 1.956 . S
O1734 Li1675 1.970 . S
O1734 C1704 1.325 . S
O1735 Li1673 1.961 . S
O1735 Li1674 1.970 . S
O1735 Li1675 1.956 . S
O1735 C1710 1.325 . S
H1736 C1678 0.929 . S
H1737 C1679 0.930 . S
H1738 C1680 0.930 . S
H1739 C1681 0.930 . S
H1740 C1683 0.930 . S
H1741 C1685 0.929 . S
H1742 C1686 0.930 . S
H1743 C1687 0.930 . S
H1744 C1690 0.930 . S
H1745 C1693 0.929 . S
H1746 C1698 0.929 . S
H1747 C1699 0.930 . S
H1748 C1706 0.929 . S
H1749 C1707 0.930 . S
H1750 C1708 0.930 . S
H1751 C1709 0.930 . S
H1752 C1711 0.929 . S
H1753 C1712 0.930 . S
H1754 C1713 0.930 . S
H1755 C1714 0.930 . S
H1756 C1718 0.929 . S
H1757 C1720 0.930 . S
H1758 C1726 0.929 . S
H1759 C1727 0.930 . S
Li1760 N1777 1.990 . S
Li1760 O1820 1.956 . S
Li1760 O1821 1.970 . S
Li1760 O1822 1.961 . S
Li1761 N1785 1.990 . S
Li1761 O1820 1.970 . S
Li1761 O1821 1.956 . S
Li1761 O1823 1.961 . S
Li1762 N1807 1.990 . S
Li1762 O1820 1.961 . S
Li1762 O1822 1.956 . S
Li1762 O1823 1.970 . S
Li1763 N1813 1.990 . S
Li1763 O1821 1.961 . S
Li1763 O1822 1.970 . S
Li1763 O1823 1.956 . S
C1764 C1766 1.348 . S
C1764 C1767 1.356 . S
C1764 O1820 1.325 . S
N1765 C1768 1.314 . S
N1765 C1769 1.279 . S
C1766 C1764 1.348 . S
C1766 C1768 1.353 . S
C1766 H1824 0.929 . S
C1767 C1764 1.356 . S
C1767 C1769 1.358 . S
C1767 H1825 0.930 . S
C1768 N1765 1.314 . S
C1768 C1766 1.353 . S
C1768 H1826 0.930 . S
C1769 N1765 1.279 . S
C1769 C1767 1.358 . S
C1769 H1827 0.930 . S
C1770 C1773 1.348 . S
C1770 C1774 1.356 . S
C1770 O1821 1.325 . S
C1771 N1772 1.279 . S
C1771 C1774 1.358 . S
C1771 H1828 0.930 . S
N1772 C1771 1.279 . S
N1772 C1775 1.314 . S
C1773 C1770 1.348 . S
C1773 C1775 1.353 . S
C1773 H1829 0.929 . S
C1774 C1770 1.356 . S
C1774 C1771 1.358 . S
C1774 H1830 0.930 . S
C1775 N1772 1.314 . S
C1775 C1773 1.353 . S
C1775 H1831 0.930 . S
C1776 N1777 1.314 . S
C1776 C1781 1.353 . S
C1776 H1782 0.930 . S
N1777 Li1760 1.990 . S
N1777 C1776 1.314 . S
N1777 C1779 1.279 . S
C1778 C1779 1.358 . S
C1778 C1780 1.356 . S
C1778 H1832 0.930 . S
C1779 N1777 1.279 . S
C1779 C1778 1.358 . S
C1779 H1783 0.930 . S
C1780 C1778 1.356 . S
C1780 C1781 1.348 . S
C1781 C1776 1.353 . S
C1781 C1780 1.348 . S
C1781 H1833 0.929 . S
H1782 C1776 0.930 . S
H1783 C1779 0.930 . S
C1784 N1785 1.314 . S
C1784 C1786 1.353 . S
C1784 H1790 0.930 . S
N1785 Li1761 1.990 . S
N1785 C1784 1.314 . S
N1785 C1788 1.279 . S
C1786 C1784 1.353 . S
C1786 C1789 1.348 . S
C1786 H1834 0.929 . S
C1787 C1788 1.358 . S
C1787 C1789 1.356 . S
C1787 H1835 0.930 . S
C1788 N1785 1.279 . S
C1788 C1787 1.358 . S
C1788 H1791 0.930 . S
C1789 C1786 1.348 . S
C1789 C1787 1.356 . S
H1790 C1784 0.930 . S
H1791 C1788 0.930 . S
C1792 C1794 1.348 . S
C1792 C1795 1.356 . S
C1792 O1822 1.325 . S
N1793 C1796 1.314 . S
N1793 C1797 1.279 . S
C1794 C1792 1.348 . S
C1794 C1796 1.353 . S
C1794 H1836 0.929 . S
C1795 C1792 1.356 . S
C1795 C1797 1.358 . S
C1795 H1837 0.930 . S
C1796 N1793 1.314 . S
C1796 C1794 1.353 . S
C1796 H1838 0.930 . S
C1797 N1793 1.279 . S
C1797 C1795 1.358 . S
C1797 H1839 0.930 . S
C1798 C1799 1.348 . S
C1798 C1800 1.356 . S
C1798 O1823 1.325 . S
C1799 C1798 1.348 . S
C1799 C1801 1.353 . S
C1799 H1840 0.929 . S
C1800 C1798 1.356 . S
C1800 C1802 1.358 . S
C1800 H1841 0.930 . S
C1801 C1799 1.353 . S
C1801 N1803 1.314 . S
C1801 H1842 0.930 . S
C1802 C1800 1.358 . S
C1802 N1803 1.279 . S
C1802 H1843 0.930 . S
N1803 C1801 1.314 . S
N1803 C1802 1.279 . S
C1804 C1806 1.353 . S
C1804 N1807 1.314 . S
C1804 H1810 0.930 . S
C1805 N1807 1.279 . S
C1805 C1808 1.358 . S
C1805 H1811 0.930 . S
C1806 C1804 1.353 . S
C1806 C1809 1.348 . S
C1806 H1844 0.929 . S
N1807 Li1762 1.990 . S
N1807 C1804 1.314 . S
N1807 C1805 1.279 . S
C1808 C1805 1.358 . S
C1808 C1809 1.356 . S
C1808 H1845 0.930 . S
C1809 C1806 1.348 . S
C1809 C1808 1.356 . S
H1810 C1804 0.930 . S
H1811 C1805 0.930 . S
C1812 N1813 1.314 . S
C1812 C1814 1.353 . S
C1812 H1818 0.930 . S
N1813 Li1763 1.990 . S
N1813 C1812 1.314 . S
N1813 C1816 1.279 . S
C1814 C1812 1.353 . S
C1814 C1817 1.348 . S
C1814 H1846 0.929 . S
C1815 C1816 1.358 . S
C1815 C1817 1.356 . S
C1815 H1847 0.930 . S
C1816 N1813 1.279 . S
C1816 C1815 1.358 . S
C1816 H1819 0.930 . S
C1817 C1814 1.348 . S
C1817 C1815 1.356 . S
H1818 C1812 0.930 . S
H1819 C1816 0.930 . S
O1820 Li1760 1.956 . S
O1820 Li1761 1.970 . S
O1820 Li1762 1.961 . S
O1820 C1764 1.325 . S
O1821 Li1760 1.970 . S
O1821 Li1761 1.956 . S
O1821 Li1763 1.961 . S
O1821 C1770 1.325 . S
O1822 Li1760 1.961 . S
O1822 Li1762 1.956 . S
O1822 Li1763 1.970 . S
O1822 C1792 1.325 . S
O1823 Li1761 1.961 . S
O1823 Li1762 1.970 . S
O1823 Li1763 1.956 . S
O1823 C1798 1.325 . S
H1824 C1766 0.929 . S
H1825 C1767 0.930 . S
H1826 C1768 0.930 . S
H1827 C1769 0.930 . S
H1828 C1771 0.930 . S
H1829 C1773 0.929 . S
H1830 C1774 0.930 . S
H1831 C1775 0.930 . S
H1832 C1778 0.930 . S
H1833 C1781 0.929 . S
H1834 C1786 0.929 . S
H1835 C1787 0.930 . S
H1836 C1794 0.929 . S
H1837 C1795 0.930 . S
H1838 C1796 0.930 . S
H1839 C1797 0.930 . S
H1840 C1799 0.929 . S
H1841 C1800 0.930 . S
H1842 C1801 0.930 . S
H1843 C1802 0.930 . S
H1844 C1806 0.929 . S
H1845 C1808 0.930 . S
H1846 C1814 0.929 . S
H1847 C1815 0.930 . S
Li1848 N1865 1.990 . S
Li1848 O1908 1.956 . S
Li1848 O1909 1.970 . S
Li1848 O1910 1.961 . S
Li1849 N1873 1.990 . S
Li1849 O1908 1.970 . S
Li1849 O1909 1.956 . S
Li1849 O1911 1.961 . S
Li1850 N1895 1.990 . S
Li1850 O1908 1.961 . S
Li1850 O1910 1.956 . S
Li1850 O1911 1.970 . S
Li1851 N1901 1.990 . S
Li1851 O1909 1.961 . S
Li1851 O1910 1.970 . S
Li1851 O1911 1.956 . S
C1852 C1854 1.348 . S
C1852 C1855 1.356 . S
C1852 O1908 1.325 . S
N1853 C1856 1.314 . S
N1853 C1857 1.279 . S
C1854 C1852 1.348 . S
C1854 C1856 1.353 . S
C1854 H1912 0.929 . S
C1855 C1852 1.356 . S
C1855 C1857 1.358 . S
C1855 H1913 0.930 . S
C1856 N1853 1.314 . S
C1856 C1854 1.353 . S
C1856 H1914 0.930 . S
C1857 N1853 1.279 . S
C1857 C1855 1.358 . S
C1857 H1915 0.930 . S
C1858 C1861 1.348 . S
C1858 C1862 1.356 . S
C1858 O1909 1.325 . S
C1859 N1860 1.279 . S
C1859 C1862 1.358 . S
C1859 H1916 0.930 . S
N1860 C1859 1.279 . S
N1860 C1863 1.314 . S
C1861 C1858 1.348 . S
C1861 C1863 1.353 . S
C1861 H1917 0.929 . S
C1862 C1858 1.356 . S
C1862 C1859 1.358 . S
C1862 H1918 0.930 . S
C1863 N1860 1.314 . S
C1863 C1861 1.353 . S
C1863 H1919 0.930 . S
C1864 N1865 1.314 . S
C1864 C1869 1.353 . S
C1864 H1870 0.930 . S
N1865 Li1848 1.990 . S
N1865 C1864 1.314 . S
N1865 C1867 1.279 . S
C1866 C1867 1.358 . S
C1866 C1868 1.356 . S
C1866 H1920 0.930 . S
C1867 N1865 1.279 . S
C1867 C1866 1.358 . S
C1867 H1871 0.930 . S
C1868 C1866 1.356 . S
C1868 C1869 1.348 . S
C1869 C1864 1.353 . S
C1869 C1868 1.348 . S
C1869 H1921 0.929 . S
H1870 C1864 0.930 . S
H1871 C1867 0.930 . S
C1872 N1873 1.314 . S
C1872 C1874 1.353 . S
C1872 H1878 0.930 . S
N1873 Li1849 1.990 . S
N1873 C1872 1.314 . S
N1873 C1876 1.279 . S
C1874 C1872 1.353 . S
C1874 C1877 1.348 . S
C1874 H1922 0.929 . S
C1875 C1876 1.358 . S
C1875 C1877 1.356 . S
C1875 H1923 0.930 . S
C1876 N1873 1.279 . S
C1876 C1875 1.358 . S
C1876 H1879 0.930 . S
C1877 C1874 1.348 . S
C1877 C1875 1.356 . S
H1878 C1872 0.930 . S
H1879 C1876 0.930 . S
C1880 C1882 1.348 . S
C1880 C1883 1.356 . S
C1880 O1910 1.325 . S
N1881 C1884 1.314 . S
N1881 C1885 1.279 . S
C1882 C1880 1.348 . S
C1882 C1884 1.353 . S
C1882 H1924 0.929 . S
C1883 C1880 1.356 . S
C1883 C1885 1.358 . S
C1883 H1925 0.930 . S
C1884 N1881 1.314 . S
C1884 C1882 1.353 . S
C1884 H1926 0.930 . S
C1885 N1881 1.279 . S
C1885 C1883 1.358 . S
C1885 H1927 0.930 . S
C1886 C1887 1.348 . S
C1886 C1888 1.356 . S
C1886 O1911 1.325 . S
C1887 C1886 1.348 . S
C1887 C1889 1.353 . S
C1887 H1928 0.929 . S
C1888 C1886 1.356 . S
C1888 C1890 1.358 . S
C1888 H1929 0.930 . S
C1889 C1887 1.353 . S
C1889 N1891 1.314 . S
C1889 H1930 0.930 . S
C1890 C1888 1.358 . S
C1890 N1891 1.279 . S
C1890 H1931 0.930 . S
N1891 C1889 1.314 . S
N1891 C1890 1.279 . S
C1892 C1894 1.353 . S
C1892 N1895 1.314 . S
C1892 H1898 0.930 . S
C1893 N1895 1.279 . S
C1893 C1896 1.358 . S
C1893 H1899 0.930 . S
C1894 C1892 1.353 . S
C1894 C1897 1.348 . S
C1894 H1932 0.929 . S
N1895 Li1850 1.990 . S
N1895 C1892 1.314 . S
N1895 C1893 1.279 . S
C1896 C1893 1.358 . S
C1896 C1897 1.356 . S
C1896 H1933 0.930 . S
C1897 C1894 1.348 . S
C1897 C1896 1.356 . S
H1898 C1892 0.930 . S
H1899 C1893 0.930 . S
C1900 N1901 1.314 . S
C1900 C1902 1.353 . S
C1900 H1906 0.930 . S
N1901 Li1851 1.990 . S
N1901 C1900 1.314 . S
N1901 C1904 1.279 . S
C1902 C1900 1.353 . S
C1902 C1905 1.348 . S
C1902 H1934 0.929 . S
C1903 C1904 1.358 . S
C1903 C1905 1.356 . S
C1903 H1935 0.930 . S
C1904 N1901 1.279 . S
C1904 C1903 1.358 . S
C1904 H1907 0.930 . S
C1905 C1902 1.348 . S
C1905 C1903 1.356 . S
H1906 C1900 0.930 . S
H1907 C1904 0.930 . S
O1908 Li1848 1.956 . S
O1908 Li1849 1.970 . S
O1908 Li1850 1.961 . S
O1908 C1852 1.325 . S
O1909 Li1848 1.970 . S
O1909 Li1849 1.956 . S
O1909 Li1851 1.961 . S
O1909 C1858 1.325 . S
O1910 Li1848 1.961 . S
O1910 Li1850 1.956 . S
O1910 Li1851 1.970 . S
O1910 C1880 1.325 . S
O1911 Li1849 1.961 . S
O1911 Li1850 1.970 . S
O1911 Li1851 1.956 . S
O1911 C1886 1.325 . S
H1912 C1854 0.929 . S
H1913 C1855 0.930 . S
H1914 C1856 0.930 . S
H1915 C1857 0.930 . S
H1916 C1859 0.930 . S
H1917 C1861 0.929 . S
H1918 C1862 0.930 . S
H1919 C1863 0.930 . S
H1920 C1866 0.930 . S
H1921 C1869 0.929 . S
H1922 C1874 0.929 . S
H1923 C1875 0.930 . S
H1924 C1882 0.929 . S
H1925 C1883 0.930 . S
H1926 C1884 0.930 . S
H1927 C1885 0.930 . S
H1928 C1887 0.929 . S
H1929 C1888 0.930 . S
H1930 C1889 0.930 . S
H1931 C1890 0.930 . S
H1932 C1894 0.929 . S
H1933 C1896 0.930 . S
H1934 C1902 0.929 . S
H1935 C1903 0.930 . S
Li1936 N1953 1.990 . S
Li1936 O1996 1.956 . S
Li1936 O1997 1.970 . S
Li1936 O1998 1.961 . S
Li1937 N1961 1.990 . S
Li1937 O1996 1.970 . S
Li1937 O1997 1.956 . S
Li1937 O1999 1.961 . S
Li1938 N1983 1.990 . S
Li1938 O1996 1.961 . S
Li1938 O1998 1.956 . S
Li1938 O1999 1.970 . S
Li1939 N1989 1.990 . S
Li1939 O1997 1.961 . S
Li1939 O1998 1.970 . S
Li1939 O1999 1.956 . S
C1940 C1942 1.348 . S
C1940 C1943 1.356 . S
C1940 O1996 1.325 . S
N1941 C1944 1.314 . S
N1941 C1945 1.279 . S
C1942 C1940 1.348 . S
C1942 C1944 1.353 . S
C1942 H2000 0.929 . S
C1943 C1940 1.356 . S
C1943 C1945 1.358 . S
C1943 H2001 0.930 . S
C1944 N1941 1.314 . S
C1944 C1942 1.353 . S
C1944 H2002 0.930 . S
C1945 N1941 1.279 . S
C1945 C1943 1.358 . S
C1945 H2003 0.930 . S
C1946 C1949 1.348 . S
C1946 C1950 1.356 . S
C1946 O1997 1.325 . S
C1947 N1948 1.279 . S
C1947 C1950 1.358 . S
C1947 H2004 0.930 . S
N1948 C1947 1.279 . S
N1948 C1951 1.314 . S
C1949 C1946 1.348 . S
C1949 C1951 1.353 . S
C1949 H2005 0.929 . S
C1950 C1946 1.356 . S
C1950 C1947 1.358 . S
C1950 H2006 0.930 . S
C1951 N1948 1.314 . S
C1951 C1949 1.353 . S
C1951 H2007 0.930 . S
C1952 N1953 1.314 . S
C1952 C1957 1.353 . S
C1952 H1958 0.930 . S
N1953 Li1936 1.990 . S
N1953 C1952 1.314 . S
N1953 C1955 1.279 . S
C1954 C1955 1.358 . S
C1954 C1956 1.356 . S
C1954 H2008 0.930 . S
C1955 N1953 1.279 . S
C1955 C1954 1.358 . S
C1955 H1959 0.930 . S
C1956 C1954 1.356 . S
C1956 C1957 1.348 . S
C1957 C1952 1.353 . S
C1957 C1956 1.348 . S
C1957 H2009 0.929 . S
H1958 C1952 0.930 . S
H1959 C1955 0.930 . S
C1960 N1961 1.314 . S
C1960 C1962 1.353 . S
C1960 H1966 0.930 . S
N1961 Li1937 1.990 . S
N1961 C1960 1.314 . S
N1961 C1964 1.279 . S
C1962 C1960 1.353 . S
C1962 C1965 1.348 . S
C1962 H2010 0.929 . S
C1963 C1964 1.358 . S
C1963 C1965 1.356 . S
C1963 H2011 0.930 . S
C1964 N1961 1.279 . S
C1964 C1963 1.358 . S
C1964 H1967 0.930 . S
C1965 C1962 1.348 . S
C1965 C1963 1.356 . S
H1966 C1960 0.930 . S
H1967 C1964 0.930 . S
C1968 C1970 1.348 . S
C1968 C1971 1.356 . S
C1968 O1998 1.325 . S
N1969 C1972 1.314 . S
N1969 C1973 1.279 . S
C1970 C1968 1.348 . S
C1970 C1972 1.353 . S
C1970 H2012 0.929 . S
C1971 C1968 1.356 . S
C1971 C1973 1.358 . S
C1971 H2013 0.930 . S
C1972 N1969 1.314 . S
C1972 C1970 1.353 . S
C1972 H2014 0.930 . S
C1973 N1969 1.279 . S
C1973 C1971 1.358 . S
C1973 H2015 0.930 . S
C1974 C1975 1.348 . S
C1974 C1976 1.356 . S
C1974 O1999 1.325 . S
C1975 C1974 1.348 . S
C1975 C1977 1.353 . S
C1975 H2016 0.929 . S
C1976 C1974 1.356 . S
C1976 C1978 1.358 . S
C1976 H2017 0.930 . S
C1977 C1975 1.353 . S
C1977 N1979 1.314 . S
C1977 H2018 0.930 . S
C1978 C1976 1.358 . S
C1978 N1979 1.279 . S
C1978 H2019 0.930 . S
N1979 C1977 1.314 . S
N1979 C1978 1.279 . S
C1980 C1982 1.353 . S
C1980 N1983 1.314 . S
C1980 H1986 0.930 . S
C1981 N1983 1.279 . S
C1981 C1984 1.358 . S
C1981 H1987 0.930 . S
C1982 C1980 1.353 . S
C1982 C1985 1.348 . S
C1982 H2020 0.929 . S
N1983 Li1938 1.990 . S
N1983 C1980 1.314 . S
N1983 C1981 1.279 . S
C1984 C1981 1.358 . S
C1984 C1985 1.356 . S
C1984 H2021 0.930 . S
C1985 C1982 1.348 . S
C1985 C1984 1.356 . S
H1986 C1980 0.930 . S
H1987 C1981 0.930 . S
C1988 N1989 1.314 . S
C1988 C1990 1.353 . S
C1988 H1994 0.930 . S
N1989 Li1939 1.990 . S
N1989 C1988 1.314 . S
N1989 C1992 1.279 . S
C1990 C1988 1.353 . S
C1990 C1993 1.348 . S
C1990 H2022 0.929 . S
C1991 C1992 1.358 . S
C1991 C1993 1.356 . S
C1991 H2023 0.930 . S
C1992 N1989 1.279 . S
C1992 C1991 1.358 . S
C1992 H1995 0.930 . S
C1993 C1990 1.348 . S
C1993 C1991 1.356 . S
H1994 C1988 0.930 . S
H1995 C1992 0.930 . S
O1996 Li1936 1.956 . S
O1996 Li1937 1.970 . S
O1996 Li1938 1.961 . S
O1996 C1940 1.325 . S
O1997 Li1936 1.970 . S
O1997 Li1937 1.956 . S
O1997 Li1939 1.961 . S
O1997 C1946 1.325 . S
O1998 Li1936 1.961 . S
O1998 Li1938 1.956 . S
O1998 Li1939 1.970 . S
O1998 C1968 1.325 . S
O1999 Li1937 1.961 . S
O1999 Li1938 1.970 . S
O1999 Li1939 1.956 . S
O1999 C1974 1.325 . S
H2000 C1942 0.929 . S
H2001 C1943 0.930 . S
H2002 C1944 0.930 . S
H2003 C1945 0.930 . S
H2004 C1947 0.930 . S
H2005 C1949 0.929 . S
H2006 C1950 0.930 . S
H2007 C1951 0.930 . S
H2008 C1954 0.930 . S
H2009 C1957 0.929 . S
H2010 C1962 0.929 . S
H2011 C1963 0.930 . S
H2012 C1970 0.929 . S
H2013 C1971 0.930 . S
H2014 C1972 0.930 . S
H2015 C1973 0.930 . S
H2016 C1975 0.929 . S
H2017 C1976 0.930 . S
H2018 C1977 0.930 . S
H2019 C1978 0.930 . S
H2020 C1982 0.929 . S
H2021 C1984 0.930 . S
H2022 C1990 0.929 . S
H2023 C1991 0.930 . S
Li2024 N2041 1.990 . S
Li2024 O2084 1.956 . S
Li2024 O2085 1.970 . S
Li2024 O2086 1.961 . S
Li2025 N2049 1.990 . S
Li2025 O2084 1.970 . S
Li2025 O2085 1.956 . S
Li2025 O2087 1.961 . S
Li2026 N2071 1.990 . S
Li2026 O2084 1.961 . S
Li2026 O2086 1.956 . S
Li2026 O2087 1.970 . S
Li2027 N2077 1.990 . S
Li2027 O2085 1.961 . S
Li2027 O2086 1.970 . S
Li2027 O2087 1.956 . S
C2028 C2030 1.348 . S
C2028 C2031 1.356 . S
C2028 O2084 1.325 . S
N2029 C2032 1.314 . S
N2029 C2033 1.279 . S
C2030 C2028 1.348 . S
C2030 C2032 1.353 . S
C2030 H2088 0.929 . S
C2031 C2028 1.356 . S
C2031 C2033 1.358 . S
C2031 H2089 0.930 . S
C2032 N2029 1.314 . S
C2032 C2030 1.353 . S
C2032 H2090 0.930 . S
C2033 N2029 1.279 . S
C2033 C2031 1.358 . S
C2033 H2091 0.930 . S
C2034 C2037 1.348 . S
C2034 C2038 1.356 . S
C2034 O2085 1.325 . S
C2035 N2036 1.279 . S
C2035 C2038 1.358 . S
C2035 H2092 0.930 . S
N2036 C2035 1.279 . S
N2036 C2039 1.314 . S
C2037 C2034 1.348 . S
C2037 C2039 1.353 . S
C2037 H2093 0.929 . S
C2038 C2034 1.356 . S
C2038 C2035 1.358 . S
C2038 H2094 0.930 . S
C2039 N2036 1.314 . S
C2039 C2037 1.353 . S
C2039 H2095 0.930 . S
C2040 N2041 1.314 . S
C2040 C2045 1.353 . S
C2040 H2046 0.930 . S
N2041 Li2024 1.990 . S
N2041 C2040 1.314 . S
N2041 C2043 1.279 . S
C2042 C2043 1.358 . S
C2042 C2044 1.356 . S
C2042 H2096 0.930 . S
C2043 N2041 1.279 . S
C2043 C2042 1.358 . S
C2043 H2047 0.930 . S
C2044 C2042 1.356 . S
C2044 C2045 1.348 . S
C2045 C2040 1.353 . S
C2045 C2044 1.348 . S
C2045 H2097 0.929 . S
H2046 C2040 0.930 . S
H2047 C2043 0.930 . S
C2048 N2049 1.314 . S
C2048 C2050 1.353 . S
C2048 H2054 0.930 . S
N2049 Li2025 1.990 . S
N2049 C2048 1.314 . S
N2049 C2052 1.279 . S
C2050 C2048 1.353 . S
C2050 C2053 1.348 . S
C2050 H2098 0.929 . S
C2051 C2052 1.358 . S
C2051 C2053 1.356 . S
C2051 H2099 0.930 . S
C2052 N2049 1.279 . S
C2052 C2051 1.358 . S
C2052 H2055 0.930 . S
C2053 C2050 1.348 . S
C2053 C2051 1.356 . S
H2054 C2048 0.930 . S
H2055 C2052 0.930 . S
C2056 C2058 1.348 . S
C2056 C2059 1.356 . S
C2056 O2086 1.325 . S
N2057 C2060 1.314 . S
N2057 C2061 1.279 . S
C2058 C2056 1.348 . S
C2058 C2060 1.353 . S
C2058 H2100 0.929 . S
C2059 C2056 1.356 . S
C2059 C2061 1.358 . S
C2059 H2101 0.930 . S
C2060 N2057 1.314 . S
C2060 C2058 1.353 . S
C2060 H2102 0.930 . S
C2061 N2057 1.279 . S
C2061 C2059 1.358 . S
C2061 H2103 0.930 . S
C2062 C2063 1.348 . S
C2062 C2064 1.356 . S
C2062 O2087 1.325 . S
C2063 C2062 1.348 . S
C2063 C2065 1.353 . S
C2063 H2104 0.929 . S
C2064 C2062 1.356 . S
C2064 C2066 1.358 . S
C2064 H2105 0.930 . S
C2065 C2063 1.353 . S
C2065 N2067 1.314 . S
C2065 H2106 0.930 . S
C2066 C2064 1.358 . S
C2066 N2067 1.279 . S
C2066 H2107 0.930 . S
N2067 C2065 1.314 . S
N2067 C2066 1.279 . S
C2068 C2070 1.353 . S
C2068 N2071 1.314 . S
C2068 H2074 0.930 . S
C2069 N2071 1.279 . S
C2069 C2072 1.358 . S
C2069 H2075 0.930 . S
C2070 C2068 1.353 . S
C2070 C2073 1.348 . S
C2070 H2108 0.929 . S
N2071 Li2026 1.990 . S
N2071 C2068 1.314 . S
N2071 C2069 1.279 . S
C2072 C2069 1.358 . S
C2072 C2073 1.356 . S
C2072 H2109 0.930 . S
C2073 C2070 1.348 . S
C2073 C2072 1.356 . S
H2074 C2068 0.930 . S
H2075 C2069 0.930 . S
C2076 N2077 1.314 . S
C2076 C2078 1.353 . S
C2076 H2082 0.930 . S
N2077 Li2027 1.990 . S
N2077 C2076 1.314 . S
N2077 C2080 1.279 . S
C2078 C2076 1.353 . S
C2078 C2081 1.348 . S
C2078 H2110 0.929 . S
C2079 C2080 1.358 . S
C2079 C2081 1.356 . S
C2079 H2111 0.930 . S
C2080 N2077 1.279 . S
C2080 C2079 1.358 . S
C2080 H2083 0.930 . S
C2081 C2078 1.348 . S
C2081 C2079 1.356 . S
H2082 C2076 0.930 . S
H2083 C2080 0.930 . S
O2084 Li2024 1.956 . S
O2084 Li2025 1.970 . S
O2084 Li2026 1.961 . S
O2084 C2028 1.325 . S
O2085 Li2024 1.970 . S
O2085 Li2025 1.956 . S
O2085 Li2027 1.961 . S
O2085 C2034 1.325 . S
O2086 Li2024 1.961 . S
O2086 Li2026 1.956 . S
O2086 Li2027 1.970 . S
O2086 C2056 1.325 . S
O2087 Li2025 1.961 . S
O2087 Li2026 1.970 . S
O2087 Li2027 1.956 . S
O2087 C2062 1.325 . S
H2088 C2030 0.929 . S
H2089 C2031 0.930 . S
H2090 C2032 0.930 . S
H2091 C2033 0.930 . S
H2092 C2035 0.930 . S
H2093 C2037 0.929 . S
H2094 C2038 0.930 . S
H2095 C2039 0.930 . S
H2096 C2042 0.930 . S
H2097 C2045 0.929 . S
H2098 C2050 0.929 . S
H2099 C2051 0.930 . S
H2100 C2058 0.929 . S
H2101 C2059 0.930 . S
H2102 C2060 0.930 . S
H2103 C2061 0.930 . S
H2104 C2063 0.929 . S
H2105 C2064 0.930 . S
H2106 C2065 0.930 . S
H2107 C2066 0.930 . S
H2108 C2070 0.929 . S
H2109 C2072 0.930 . S
H2110 C2078 0.929 . S
H2111 C2079 0.930 . S
Li2112 N2129 1.990 . S
Li2112 O2172 1.956 . S
Li2112 O2173 1.970 . S
Li2112 O2174 1.961 . S
Li2113 N2137 1.990 . S
Li2113 O2172 1.970 . S
Li2113 O2173 1.956 . S
Li2113 O2175 1.961 . S
Li2114 N2159 1.990 . S
Li2114 O2172 1.961 . S
Li2114 O2174 1.956 . S
Li2114 O2175 1.970 . S
Li2115 N2165 1.990 . S
Li2115 O2173 1.961 . S
Li2115 O2174 1.970 . S
Li2115 O2175 1.956 . S
C2116 C2118 1.348 . S
C2116 C2119 1.356 . S
C2116 O2172 1.325 . S
N2117 C2120 1.314 . S
N2117 C2121 1.279 . S
C2118 C2116 1.348 . S
C2118 C2120 1.353 . S
C2118 H2176 0.929 . S
C2119 C2116 1.356 . S
C2119 C2121 1.358 . S
C2119 H2177 0.930 . S
C2120 N2117 1.314 . S
C2120 C2118 1.353 . S
C2120 H2178 0.930 . S
C2121 N2117 1.279 . S
C2121 C2119 1.358 . S
C2121 H2179 0.930 . S
C2122 C2125 1.348 . S
C2122 C2126 1.356 . S
C2122 O2173 1.325 . S
C2123 N2124 1.279 . S
C2123 C2126 1.358 . S
C2123 H2180 0.930 . S
N2124 C2123 1.279 . S
N2124 C2127 1.314 . S
C2125 C2122 1.348 . S
C2125 C2127 1.353 . S
C2125 H2181 0.929 . S
C2126 C2122 1.356 . S
C2126 C2123 1.358 . S
C2126 H2182 0.930 . S
C2127 N2124 1.314 . S
C2127 C2125 1.353 . S
C2127 H2183 0.930 . S
C2128 N2129 1.314 . S
C2128 C2133 1.353 . S
C2128 H2134 0.930 . S
N2129 Li2112 1.990 . S
N2129 C2128 1.314 . S
N2129 C2131 1.279 . S
C2130 C2131 1.358 . S
C2130 C2132 1.356 . S
C2130 H2184 0.930 . S
C2131 N2129 1.279 . S
C2131 C2130 1.358 . S
C2131 H2135 0.930 . S
C2132 C2130 1.356 . S
C2132 C2133 1.348 . S
C2133 C2128 1.353 . S
C2133 C2132 1.348 . S
C2133 H2185 0.929 . S
H2134 C2128 0.930 . S
H2135 C2131 0.930 . S
C2136 N2137 1.314 . S
C2136 C2138 1.353 . S
C2136 H2142 0.930 . S
N2137 Li2113 1.990 . S
N2137 C2136 1.314 . S
N2137 C2140 1.279 . S
C2138 C2136 1.353 . S
C2138 C2141 1.348 . S
C2138 H2186 0.929 . S
C2139 C2140 1.358 . S
C2139 C2141 1.356 . S
C2139 H2187 0.930 . S
C2140 N2137 1.279 . S
C2140 C2139 1.358 . S
C2140 H2143 0.930 . S
C2141 C2138 1.348 . S
C2141 C2139 1.356 . S
H2142 C2136 0.930 . S
H2143 C2140 0.930 . S
C2144 C2146 1.348 . S
C2144 C2147 1.356 . S
C2144 O2174 1.325 . S
N2145 C2148 1.314 . S
N2145 C2149 1.279 . S
C2146 C2144 1.348 . S
C2146 C2148 1.353 . S
C2146 H2188 0.929 . S
C2147 C2144 1.356 . S
C2147 C2149 1.358 . S
C2147 H2189 0.930 . S
C2148 N2145 1.314 . S
C2148 C2146 1.353 . S
C2148 H2190 0.930 . S
C2149 N2145 1.279 . S
C2149 C2147 1.358 . S
C2149 H2191 0.930 . S
C2150 C2151 1.348 . S
C2150 C2152 1.356 . S
C2150 O2175 1.325 . S
C2151 C2150 1.348 . S
C2151 C2153 1.353 . S
C2151 H2192 0.929 . S
C2152 C2150 1.356 . S
C2152 C2154 1.358 . S
C2152 H2193 0.930 . S
C2153 C2151 1.353 . S
C2153 N2155 1.314 . S
C2153 H2194 0.930 . S
C2154 C2152 1.358 . S
C2154 N2155 1.279 . S
C2154 H2195 0.930 . S
N2155 C2153 1.314 . S
N2155 C2154 1.279 . S
C2156 C2158 1.353 . S
C2156 N2159 1.314 . S
C2156 H2162 0.930 . S
C2157 N2159 1.279 . S
C2157 C2160 1.358 . S
C2157 H2163 0.930 . S
C2158 C2156 1.353 . S
C2158 C2161 1.348 . S
C2158 H2196 0.929 . S
N2159 Li2114 1.990 . S
N2159 C2156 1.314 . S
N2159 C2157 1.279 . S
C2160 C2157 1.358 . S
C2160 C2161 1.356 . S
C2160 H2197 0.930 . S
C2161 C2158 1.348 . S
C2161 C2160 1.356 . S
H2162 C2156 0.930 . S
H2163 C2157 0.930 . S
C2164 N2165 1.314 . S
C2164 C2166 1.353 . S
C2164 H2170 0.930 . S
N2165 Li2115 1.990 . S
N2165 C2164 1.314 . S
N2165 C2168 1.279 . S
C2166 C2164 1.353 . S
C2166 C2169 1.348 . S
C2166 H2198 0.929 . S
C2167 C2168 1.358 . S
C2167 C2169 1.356 . S
C2167 H2199 0.930 . S
C2168 N2165 1.279 . S
C2168 C2167 1.358 . S
C2168 H2171 0.930 . S
C2169 C2166 1.348 . S
C2169 C2167 1.356 . S
H2170 C2164 0.930 . S
H2171 C2168 0.930 . S
O2172 Li2112 1.956 . S
O2172 Li2113 1.970 . S
O2172 Li2114 1.961 . S
O2172 C2116 1.325 . S
O2173 Li2112 1.970 . S
O2173 Li2113 1.956 . S
O2173 Li2115 1.961 . S
O2173 C2122 1.325 . S
O2174 Li2112 1.961 . S
O2174 Li2114 1.956 . S
O2174 Li2115 1.970 . S
O2174 C2144 1.325 . S
O2175 Li2113 1.961 . S
O2175 Li2114 1.970 . S
O2175 Li2115 1.956 . S
O2175 C2150 1.325 . S
H2176 C2118 0.929 . S
H2177 C2119 0.930 . S
H2178 C2120 0.930 . S
H2179 C2121 0.930 . S
H2180 C2123 0.930 . S
H2181 C2125 0.929 . S
H2182 C2126 0.930 . S
H2183 C2127 0.930 . S
H2184 C2130 0.930 . S
H2185 C2133 0.929 . S
H2186 C2138 0.929 . S
H2187 C2139 0.930 . S
H2188 C2146 0.929 . S
H2189 C2147 0.930 . S
H2190 C2148 0.930 . S
H2191 C2149 0.930 . S
H2192 C2151 0.929 . S
H2193 C2152 0.930 . S
H2194 C2153 0.930 . S
H2195 C2154 0.930 . S
H2196 C2158 0.929 . S
H2197 C2160 0.930 . S
H2198 C2166 0.929 . S
H2199 C2167 0.930 . S
Li2200 N2217 1.990 . S
Li2200 O2260 1.956 . S
Li2200 O2261 1.970 . S
Li2200 O2262 1.961 . S
Li2201 N2225 1.990 . S
Li2201 O2260 1.970 . S
Li2201 O2261 1.956 . S
Li2201 O2263 1.961 . S
Li2202 N2247 1.990 . S
Li2202 O2260 1.961 . S
Li2202 O2262 1.956 . S
Li2202 O2263 1.970 . S
Li2203 N2253 1.990 . S
Li2203 O2261 1.961 . S
Li2203 O2262 1.970 . S
Li2203 O2263 1.956 . S
C2204 C2206 1.348 . S
C2204 C2207 1.356 . S
C2204 O2260 1.325 . S
N2205 C2208 1.314 . S
N2205 C2209 1.279 . S
C2206 C2204 1.348 . S
C2206 C2208 1.353 . S
C2206 H2264 0.929 . S
C2207 C2204 1.356 . S
C2207 C2209 1.358 . S
C2207 H2265 0.930 . S
C2208 N2205 1.314 . S
C2208 C2206 1.353 . S
C2208 H2266 0.930 . S
C2209 N2205 1.279 . S
C2209 C2207 1.358 . S
C2209 H2267 0.930 . S
C2210 C2213 1.348 . S
C2210 C2214 1.356 . S
C2210 O2261 1.325 . S
C2211 N2212 1.279 . S
C2211 C2214 1.358 . S
C2211 H2268 0.930 . S
N2212 C2211 1.279 . S
N2212 C2215 1.314 . S
C2213 C2210 1.348 . S
C2213 C2215 1.353 . S
C2213 H2269 0.929 . S
C2214 C2210 1.356 . S
C2214 C2211 1.358 . S
C2214 H2270 0.930 . S
C2215 N2212 1.314 . S
C2215 C2213 1.353 . S
C2215 H2271 0.930 . S
C2216 N2217 1.314 . S
C2216 C2221 1.353 . S
C2216 H2222 0.930 . S
N2217 Li2200 1.990 . S
N2217 C2216 1.314 . S
N2217 C2219 1.279 . S
C2218 C2219 1.358 . S
C2218 C2220 1.356 . S
C2218 H2272 0.930 . S
C2219 N2217 1.279 . S
C2219 C2218 1.358 . S
C2219 H2223 0.930 . S
C2220 C2218 1.356 . S
C2220 C2221 1.348 . S
C2221 C2216 1.353 . S
C2221 C2220 1.348 . S
C2221 H2273 0.929 . S
H2222 C2216 0.930 . S
H2223 C2219 0.930 . S
C2224 N2225 1.314 . S
C2224 C2226 1.353 . S
C2224 H2230 0.930 . S
N2225 Li2201 1.990 . S
N2225 C2224 1.314 . S
N2225 C2228 1.279 . S
C2226 C2224 1.353 . S
C2226 C2229 1.348 . S
C2226 H2274 0.929 . S
C2227 C2228 1.358 . S
C2227 C2229 1.356 . S
C2227 H2275 0.930 . S
C2228 N2225 1.279 . S
C2228 C2227 1.358 . S
C2228 H2231 0.930 . S
C2229 C2226 1.348 . S
C2229 C2227 1.356 . S
H2230 C2224 0.930 . S
H2231 C2228 0.930 . S
C2232 C2234 1.348 . S
C2232 C2235 1.356 . S
C2232 O2262 1.325 . S
N2233 C2236 1.314 . S
N2233 C2237 1.279 . S
C2234 C2232 1.348 . S
C2234 C2236 1.353 . S
C2234 H2276 0.929 . S
C2235 C2232 1.356 . S
C2235 C2237 1.358 . S
C2235 H2277 0.930 . S
C2236 N2233 1.314 . S
C2236 C2234 1.353 . S
C2236 H2278 0.930 . S
C2237 N2233 1.279 . S
C2237 C2235 1.358 . S
C2237 H2279 0.930 . S
C2238 C2239 1.348 . S
C2238 C2240 1.356 . S
C2238 O2263 1.325 . S
C2239 C2238 1.348 . S
C2239 C2241 1.353 . S
C2239 H2280 0.929 . S
C2240 C2238 1.356 . S
C2240 C2242 1.358 . S
C2240 H2281 0.930 . S
C2241 C2239 1.353 . S
C2241 N2243 1.314 . S
C2241 H2282 0.930 . S
C2242 C2240 1.358 . S
C2242 N2243 1.279 . S
C2242 H2283 0.930 . S
N2243 C2241 1.314 . S
N2243 C2242 1.279 . S
C2244 C2246 1.353 . S
C2244 N2247 1.314 . S
C2244 H2250 0.930 . S
C2245 N2247 1.279 . S
C2245 C2248 1.358 . S
C2245 H2251 0.930 . S
C2246 C2244 1.353 . S
C2246 C2249 1.348 . S
C2246 H2284 0.929 . S
N2247 Li2202 1.990 . S
N2247 C2244 1.314 . S
N2247 C2245 1.279 . S
C2248 C2245 1.358 . S
C2248 C2249 1.356 . S
C2248 H2285 0.930 . S
C2249 C2246 1.348 . S
C2249 C2248 1.356 . S
H2250 C2244 0.930 . S
H2251 C2245 0.930 . S
C2252 N2253 1.314 . S
C2252 C2254 1.353 . S
C2252 H2258 0.930 . S
N2253 Li2203 1.990 . S
N2253 C2252 1.314 . S
N2253 C2256 1.279 . S
C2254 C2252 1.353 . S
C2254 C2257 1.348 . S
C2254 H2286 0.929 . S
C2255 C2256 1.358 . S
C2255 C2257 1.356 . S
C2255 H2287 0.930 . S
C2256 N2253 1.279 . S
C2256 C2255 1.358 . S
C2256 H2259 0.930 . S
C2257 C2254 1.348 . S
C2257 C2255 1.356 . S
H2258 C2252 0.930 . S
H2259 C2256 0.930 . S
O2260 Li2200 1.956 . S
O2260 Li2201 1.970 . S
O2260 Li2202 1.961 . S
O2260 C2204 1.325 . S
O2261 Li2200 1.970 . S
O2261 Li2201 1.956 . S
O2261 Li2203 1.961 . S
O2261 C2210 1.325 . S
O2262 Li2200 1.961 . S
O2262 Li2202 1.956 . S
O2262 Li2203 1.970 . S
O2262 C2232 1.325 . S
O2263 Li2201 1.961 . S
O2263 Li2202 1.970 . S
O2263 Li2203 1.956 . S
O2263 C2238 1.325 . S
H2264 C2206 0.929 . S
H2265 C2207 0.930 . S
H2266 C2208 0.930 . S
H2267 C2209 0.930 . S
H2268 C2211 0.930 . S
H2269 C2213 0.929 . S
H2270 C2214 0.930 . S
H2271 C2215 0.930 . S
H2272 C2218 0.930 . S
H2273 C2221 0.929 . S
H2274 C2226 0.929 . S
H2275 C2227 0.930 . S
H2276 C2234 0.929 . S
H2277 C2235 0.930 . S
H2278 C2236 0.930 . S
H2279 C2237 0.930 . S
H2280 C2239 0.929 . S
H2281 C2240 0.930 . S
H2282 C2241 0.930 . S
H2283 C2242 0.930 . S
H2284 C2246 0.929 . S
H2285 C2248 0.930 . S
H2286 C2254 0.929 . S
H2287 C2255 0.930 . S
Li2288 N2305 1.990 . S
Li2288 O2348 1.956 . S
Li2288 O2349 1.970 . S
Li2288 O2350 1.961 . S
Li2289 N2313 1.990 . S
Li2289 O2348 1.970 . S
Li2289 O2349 1.956 . S
Li2289 O2351 1.961 . S
Li2290 N2335 1.990 . S
Li2290 O2348 1.961 . S
Li2290 O2350 1.956 . S
Li2290 O2351 1.970 . S
Li2291 N2341 1.990 . S
Li2291 O2349 1.961 . S
Li2291 O2350 1.970 . S
Li2291 O2351 1.956 . S
C2292 C2294 1.348 . S
C2292 C2295 1.356 . S
C2292 O2348 1.325 . S
N2293 C2296 1.314 . S
N2293 C2297 1.279 . S
C2294 C2292 1.348 . S
C2294 C2296 1.353 . S
C2294 H2352 0.929 . S
C2295 C2292 1.356 . S
C2295 C2297 1.358 . S
C2295 H2353 0.930 . S
C2296 N2293 1.314 . S
C2296 C2294 1.353 . S
C2296 H2354 0.930 . S
C2297 N2293 1.279 . S
C2297 C2295 1.358 . S
C2297 H2355 0.930 . S
C2298 C2301 1.348 . S
C2298 C2302 1.356 . S
C2298 O2349 1.325 . S
C2299 N2300 1.279 . S
C2299 C2302 1.358 . S
C2299 H2356 0.930 . S
N2300 C2299 1.279 . S
N2300 C2303 1.314 . S
C2301 C2298 1.348 . S
C2301 C2303 1.353 . S
C2301 H2357 0.929 . S
C2302 C2298 1.356 . S
C2302 C2299 1.358 . S
C2302 H2358 0.930 . S
C2303 N2300 1.314 . S
C2303 C2301 1.353 . S
C2303 H2359 0.930 . S
C2304 N2305 1.314 . S
C2304 C2309 1.353 . S
C2304 H2310 0.930 . S
N2305 Li2288 1.990 . S
N2305 C2304 1.314 . S
N2305 C2307 1.279 . S
C2306 C2307 1.358 . S
C2306 C2308 1.356 . S
C2306 H2360 0.930 . S
C2307 N2305 1.279 . S
C2307 C2306 1.358 . S
C2307 H2311 0.930 . S
C2308 C2306 1.356 . S
C2308 C2309 1.348 . S
C2309 C2304 1.353 . S
C2309 C2308 1.348 . S
C2309 H2361 0.929 . S
H2310 C2304 0.930 . S
H2311 C2307 0.930 . S
C2312 N2313 1.314 . S
C2312 C2314 1.353 . S
C2312 H2318 0.930 . S
N2313 Li2289 1.990 . S
N2313 C2312 1.314 . S
N2313 C2316 1.279 . S
C2314 C2312 1.353 . S
C2314 C2317 1.348 . S
C2314 H2362 0.929 . S
C2315 C2316 1.358 . S
C2315 C2317 1.356 . S
C2315 H2363 0.930 . S
C2316 N2313 1.279 . S
C2316 C2315 1.358 . S
C2316 H2319 0.930 . S
C2317 C2314 1.348 . S
C2317 C2315 1.356 . S
H2318 C2312 0.930 . S
H2319 C2316 0.930 . S
C2320 C2322 1.348 . S
C2320 C2323 1.356 . S
C2320 O2350 1.325 . S
N2321 C2324 1.314 . S
N2321 C2325 1.279 . S
C2322 C2320 1.348 . S
C2322 C2324 1.353 . S
C2322 H2364 0.929 . S
C2323 C2320 1.356 . S
C2323 C2325 1.358 . S
C2323 H2365 0.930 . S
C2324 N2321 1.314 . S
C2324 C2322 1.353 . S
C2324 H2366 0.930 . S
C2325 N2321 1.279 . S
C2325 C2323 1.358 . S
C2325 H2367 0.930 . S
C2326 C2327 1.348 . S
C2326 C2328 1.356 . S
C2326 O2351 1.325 . S
C2327 C2326 1.348 . S
C2327 C2329 1.353 . S
C2327 H2368 0.929 . S
C2328 C2326 1.356 . S
C2328 C2330 1.358 . S
C2328 H2369 0.930 . S
C2329 C2327 1.353 . S
C2329 N2331 1.314 . S
C2329 H2370 0.930 . S
C2330 C2328 1.358 . S
C2330 N2331 1.279 . S
C2330 H2371 0.930 . S
N2331 C2329 1.314 . S
N2331 C2330 1.279 . S
C2332 C2334 1.353 . S
C2332 N2335 1.314 . S
C2332 H2338 0.930 . S
C2333 N2335 1.279 . S
C2333 C2336 1.358 . S
C2333 H2339 0.930 . S
C2334 C2332 1.353 . S
C2334 C2337 1.348 . S
C2334 H2372 0.929 . S
N2335 Li2290 1.990 . S
N2335 C2332 1.314 . S
N2335 C2333 1.279 . S
C2336 C2333 1.358 . S
C2336 C2337 1.356 . S
C2336 H2373 0.930 . S
C2337 C2334 1.348 . S
C2337 C2336 1.356 . S
H2338 C2332 0.930 . S
H2339 C2333 0.930 . S
C2340 N2341 1.314 . S
C2340 C2342 1.353 . S
C2340 H2346 0.930 . S
N2341 Li2291 1.990 . S
N2341 C2340 1.314 . S
N2341 C2344 1.279 . S
C2342 C2340 1.353 . S
C2342 C2345 1.348 . S
C2342 H2374 0.929 . S
C2343 C2344 1.358 . S
C2343 C2345 1.356 . S
C2343 H2375 0.930 . S
C2344 N2341 1.279 . S
C2344 C2343 1.358 . S
C2344 H2347 0.930 . S
C2345 C2342 1.348 . S
C2345 C2343 1.356 . S
H2346 C2340 0.930 . S
H2347 C2344 0.930 . S
O2348 Li2288 1.956 . S
O2348 Li2289 1.970 . S
O2348 Li2290 1.961 . S
O2348 C2292 1.325 . S
O2349 Li2288 1.970 . S
O2349 Li2289 1.956 . S
O2349 Li2291 1.961 . S
O2349 C2298 1.325 . S
O2350 Li2288 1.961 . S
O2350 Li2290 1.956 . S
O2350 Li2291 1.970 . S
O2350 C2320 1.325 . S
O2351 Li2289 1.961 . S
O2351 Li2290 1.970 . S
O2351 Li2291 1.956 . S
O2351 C2326 1.325 . S
H2352 C2294 0.929 . S
H2353 C2295 0.930 . S
H2354 C2296 0.930 . S
H2355 C2297 0.930 . S
H2356 C2299 0.930 . S
H2357 C2301 0.929 . S
H2358 C2302 0.930 . S
H2359 C2303 0.930 . S
H2360 C2306 0.930 . S
H2361 C2309 0.929 . S
H2362 C2314 0.929 . S
H2363 C2315 0.930 . S
H2364 C2322 0.929 . S
H2365 C2323 0.930 . S
H2366 C2324 0.930 . S
H2367 C2325 0.930 . S
H2368 C2327 0.929 . S
H2369 C2328 0.930 . S
H2370 C2329 0.930 . S
H2371 C2330 0.930 . S
H2372 C2334 0.929 . S
H2373 C2336 0.930 . S
H2374 C2342 0.929 . S
H2375 C2343 0.930 . S
Li2376 N2393 1.990 . S
Li2376 O2436 1.956 . S
Li2376 O2437 1.970 . S
Li2376 O2438 1.961 . S
Li2377 N2401 1.990 . S
Li2377 O2436 1.970 . S
Li2377 O2437 1.956 . S
Li2377 O2439 1.961 . S
Li2378 N2423 1.990 . S
Li2378 O2436 1.961 . S
Li2378 O2438 1.956 . S
Li2378 O2439 1.970 . S
Li2379 N2429 1.990 . S
Li2379 O2437 1.961 . S
Li2379 O2438 1.970 . S
Li2379 O2439 1.956 . S
C2380 C2382 1.348 . S
C2380 C2383 1.356 . S
C2380 O2436 1.325 . S
N2381 C2384 1.314 . S
N2381 C2385 1.279 . S
C2382 C2380 1.348 . S
C2382 C2384 1.353 . S
C2382 H2440 0.929 . S
C2383 C2380 1.356 . S
C2383 C2385 1.358 . S
C2383 H2441 0.930 . S
C2384 N2381 1.314 . S
C2384 C2382 1.353 . S
C2384 H2442 0.930 . S
C2385 N2381 1.279 . S
C2385 C2383 1.358 . S
C2385 H2443 0.930 . S
C2386 C2389 1.348 . S
C2386 C2390 1.356 . S
C2386 O2437 1.325 . S
C2387 N2388 1.279 . S
C2387 C2390 1.358 . S
C2387 H2444 0.930 . S
N2388 C2387 1.279 . S
N2388 C2391 1.314 . S
C2389 C2386 1.348 . S
C2389 C2391 1.353 . S
C2389 H2445 0.929 . S
C2390 C2386 1.356 . S
C2390 C2387 1.358 . S
C2390 H2446 0.930 . S
C2391 N2388 1.314 . S
C2391 C2389 1.353 . S
C2391 H2447 0.930 . S
C2392 N2393 1.314 . S
C2392 C2397 1.353 . S
C2392 H2398 0.930 . S
N2393 Li2376 1.990 . S
N2393 C2392 1.314 . S
N2393 C2395 1.279 . S
C2394 C2395 1.358 . S
C2394 C2396 1.356 . S
C2394 H2448 0.930 . S
C2395 N2393 1.279 . S
C2395 C2394 1.358 . S
C2395 H2399 0.930 . S
C2396 C2394 1.356 . S
C2396 C2397 1.348 . S
C2397 C2392 1.353 . S
C2397 C2396 1.348 . S
C2397 H2449 0.929 . S
H2398 C2392 0.930 . S
H2399 C2395 0.930 . S
C2400 N2401 1.314 . S
C2400 C2402 1.353 . S
C2400 H2406 0.930 . S
N2401 Li2377 1.990 . S
N2401 C2400 1.314 . S
N2401 C2404 1.279 . S
C2402 C2400 1.353 . S
C2402 C2405 1.348 . S
C2402 H2450 0.929 . S
C2403 C2404 1.358 . S
C2403 C2405 1.356 . S
C2403 H2451 0.930 . S
C2404 N2401 1.279 . S
C2404 C2403 1.358 . S
C2404 H2407 0.930 . S
C2405 C2402 1.348 . S
C2405 C2403 1.356 . S
H2406 C2400 0.930 . S
H2407 C2404 0.930 . S
C2408 C2410 1.348 . S
C2408 C2411 1.356 . S
C2408 O2438 1.325 . S
N2409 C2412 1.314 . S
N2409 C2413 1.279 . S
C2410 C2408 1.348 . S
C2410 C2412 1.353 . S
C2410 H2452 0.929 . S
C2411 C2408 1.356 . S
C2411 C2413 1.358 . S
C2411 H2453 0.930 . S
C2412 N2409 1.314 . S
C2412 C2410 1.353 . S
C2412 H2454 0.930 . S
C2413 N2409 1.279 . S
C2413 C2411 1.358 . S
C2413 H2455 0.930 . S
C2414 C2415 1.348 . S
C2414 C2416 1.356 . S
C2414 O2439 1.325 . S
C2415 C2414 1.348 . S
C2415 C2417 1.353 . S
C2415 H2456 0.929 . S
C2416 C2414 1.356 . S
C2416 C2418 1.358 . S
C2416 H2457 0.930 . S
C2417 C2415 1.353 . S
C2417 N2419 1.314 . S
C2417 H2458 0.930 . S
C2418 C2416 1.358 . S
C2418 N2419 1.279 . S
C2418 H2459 0.930 . S
N2419 C2417 1.314 . S
N2419 C2418 1.279 . S
C2420 C2422 1.353 . S
C2420 N2423 1.314 . S
C2420 H2426 0.930 . S
C2421 N2423 1.279 . S
C2421 C2424 1.358 . S
C2421 H2427 0.930 . S
C2422 C2420 1.353 . S
C2422 C2425 1.348 . S
C2422 H2460 0.929 . S
N2423 Li2378 1.990 . S
N2423 C2420 1.314 . S
N2423 C2421 1.279 . S
C2424 C2421 1.358 . S
C2424 C2425 1.356 . S
C2424 H2461 0.930 . S
C2425 C2422 1.348 . S
C2425 C2424 1.356 . S
H2426 C2420 0.930 . S
H2427 C2421 0.930 . S
C2428 N2429 1.314 . S
C2428 C2430 1.353 . S
C2428 H2434 0.930 . S
N2429 Li2379 1.990 . S
N2429 C2428 1.314 . S
N2429 C2432 1.279 . S
C2430 C2428 1.353 . S
C2430 C2433 1.348 . S
C2430 H2462 0.929 . S
C2431 C2432 1.358 . S
C2431 C2433 1.356 . S
C2431 H2463 0.930 . S
C2432 N2429 1.279 . S
C2432 C2431 1.358 . S
C2432 H2435 0.930 . S
C2433 C2430 1.348 . S
C2433 C2431 1.356 . S
H2434 C2428 0.930 . S
H2435 C2432 0.930 . S
O2436 Li2376 1.956 . S
O2436 Li2377 1.970 . S
O2436 Li2378 1.961 . S
O2436 C2380 1.325 . S
O2437 Li2376 1.970 . S
O2437 Li2377 1.956 . S
O2437 Li2379 1.961 . S
O2437 C2386 1.325 . S
O2438 Li2376 1.961 . S
O2438 Li2378 1.956 . S
O2438 Li2379 1.970 . S
O2438 C2408 1.325 . S
O2439 Li2377 1.961 . S
O2439 Li2378 1.970 . S
O2439 Li2379 1.956 . S
O2439 C2414 1.325 . S
H2440 C2382 0.929 . S
H2441 C2383 0.930 . S
H2442 C2384 0.930 . S
H2443 C2385 0.930 . S
H2444 C2387 0.930 . S
H2445 C2389 0.929 . S
H2446 C2390 0.930 . S
H2447 C2391 0.930 . S
H2448 C2394 0.930 . S
H2449 C2397 0.929 . S
H2450 C2402 0.929 . S
H2451 C2403 0.930 . S
H2452 C2410 0.929 . S
H2453 C2411 0.930 . S
H2454 C2412 0.930 . S
H2455 C2413 0.930 . S
H2456 C2415 0.929 . S
H2457 C2416 0.930 . S
H2458 C2417 0.930 . S
H2459 C2418 0.930 . S
H2460 C2422 0.929 . S
H2461 C2424 0.930 . S
H2462 C2430 0.929 . S
H2463 C2431 0.930 . S
Li2464 N2481 1.990 . S
Li2464 O2524 1.956 . S
Li2464 O2525 1.970 . S
Li2464 O2526 1.961 . S
Li2465 N2489 1.990 . S
Li2465 O2524 1.970 . S
Li2465 O2525 1.956 . S
Li2465 O2527 1.961 . S
Li2466 N2511 1.990 . S
Li2466 O2524 1.961 . S
Li2466 O2526 1.956 . S
Li2466 O2527 1.970 . S
Li2467 N2517 1.990 . S
Li2467 O2525 1.961 . S
Li2467 O2526 1.970 . S
Li2467 O2527 1.956 . S
C2468 C2470 1.348 . S
C2468 C2471 1.356 . S
C2468 O2524 1.325 . S
N2469 C2472 1.314 . S
N2469 C2473 1.279 . S
C2470 C2468 1.348 . S
C2470 C2472 1.353 . S
C2470 H2528 0.929 . S
C2471 C2468 1.356 . S
C2471 C2473 1.358 . S
C2471 H2529 0.930 . S
C2472 N2469 1.314 . S
C2472 C2470 1.353 . S
C2472 H2530 0.930 . S
C2473 N2469 1.279 . S
C2473 C2471 1.358 . S
C2473 H2531 0.930 . S
C2474 C2477 1.348 . S
C2474 C2478 1.356 . S
C2474 O2525 1.325 . S
C2475 N2476 1.279 . S
C2475 C2478 1.358 . S
C2475 H2532 0.930 . S
N2476 C2475 1.279 . S
N2476 C2479 1.314 . S
C2477 C2474 1.348 . S
C2477 C2479 1.353 . S
C2477 H2533 0.929 . S
C2478 C2474 1.356 . S
C2478 C2475 1.358 . S
C2478 H2534 0.930 . S
C2479 N2476 1.314 . S
C2479 C2477 1.353 . S
C2479 H2535 0.930 . S
C2480 N2481 1.314 . S
C2480 C2485 1.353 . S
C2480 H2486 0.930 . S
N2481 Li2464 1.990 . S
N2481 C2480 1.314 . S
N2481 C2483 1.279 . S
C2482 C2483 1.358 . S
C2482 C2484 1.356 . S
C2482 H2536 0.930 . S
C2483 N2481 1.279 . S
C2483 C2482 1.358 . S
C2483 H2487 0.930 . S
C2484 C2482 1.356 . S
C2484 C2485 1.348 . S
C2485 C2480 1.353 . S
C2485 C2484 1.348 . S
C2485 H2537 0.929 . S
H2486 C2480 0.930 . S
H2487 C2483 0.930 . S
C2488 N2489 1.314 . S
C2488 C2490 1.353 . S
C2488 H2494 0.930 . S
N2489 Li2465 1.990 . S
N2489 C2488 1.314 . S
N2489 C2492 1.279 . S
C2490 C2488 1.353 . S
C2490 C2493 1.348 . S
C2490 H2538 0.929 . S
C2491 C2492 1.358 . S
C2491 C2493 1.356 . S
C2491 H2539 0.930 . S
C2492 N2489 1.279 . S
C2492 C2491 1.358 . S
C2492 H2495 0.930 . S
C2493 C2490 1.348 . S
C2493 C2491 1.356 . S
H2494 C2488 0.930 . S
H2495 C2492 0.930 . S
C2496 C2498 1.348 . S
C2496 C2499 1.356 . S
C2496 O2526 1.325 . S
N2497 C2500 1.314 . S
N2497 C2501 1.279 . S
C2498 C2496 1.348 . S
C2498 C2500 1.353 . S
C2498 H2540 0.929 . S
C2499 C2496 1.356 . S
C2499 C2501 1.358 . S
C2499 H2541 0.930 . S
C2500 N2497 1.314 . S
C2500 C2498 1.353 . S
C2500 H2542 0.930 . S
C2501 N2497 1.279 . S
C2501 C2499 1.358 . S
C2501 H2543 0.930 . S
C2502 C2503 1.348 . S
C2502 C2504 1.356 . S
C2502 O2527 1.325 . S
C2503 C2502 1.348 . S
C2503 C2505 1.353 . S
C2503 H2544 0.929 . S
C2504 C2502 1.356 . S
C2504 C2506 1.358 . S
C2504 H2545 0.930 . S
C2505 C2503 1.353 . S
C2505 N2507 1.314 . S
C2505 H2546 0.930 . S
C2506 C2504 1.358 . S
C2506 N2507 1.279 . S
C2506 H2547 0.930 . S
N2507 C2505 1.314 . S
N2507 C2506 1.279 . S
C2508 C2510 1.353 . S
C2508 N2511 1.314 . S
C2508 H2514 0.930 . S
C2509 N2511 1.279 . S
C2509 C2512 1.358 . S
C2509 H2515 0.930 . S
C2510 C2508 1.353 . S
C2510 C2513 1.348 . S
C2510 H2548 0.929 . S
N2511 Li2466 1.990 . S
N2511 C2508 1.314 . S
N2511 C2509 1.279 . S
C2512 C2509 1.358 . S
C2512 C2513 1.356 . S
C2512 H2549 0.930 . S
C2513 C2510 1.348 . S
C2513 C2512 1.356 . S
H2514 C2508 0.930 . S
H2515 C2509 0.930 . S
C2516 N2517 1.314 . S
C2516 C2518 1.353 . S
C2516 H2522 0.930 . S
N2517 Li2467 1.990 . S
N2517 C2516 1.314 . S
N2517 C2520 1.279 . S
C2518 C2516 1.353 . S
C2518 C2521 1.348 . S
C2518 H2550 0.929 . S
C2519 C2520 1.358 . S
C2519 C2521 1.356 . S
C2519 H2551 0.930 . S
C2520 N2517 1.279 . S
C2520 C2519 1.358 . S
C2520 H2523 0.930 . S
C2521 C2518 1.348 . S
C2521 C2519 1.356 . S
H2522 C2516 0.930 . S
H2523 C2520 0.930 . S
O2524 Li2464 1.956 . S
O2524 Li2465 1.970 . S
O2524 Li2466 1.961 . S
O2524 C2468 1.325 . S
O2525 Li2464 1.970 . S
O2525 Li2465 1.956 . S
O2525 Li2467 1.961 . S
O2525 C2474 1.325 . S
O2526 Li2464 1.961 . S
O2526 Li2466 1.956 . S
O2526 Li2467 1.970 . S
O2526 C2496 1.325 . S
O2527 Li2465 1.961 . S
O2527 Li2466 1.970 . S
O2527 Li2467 1.956 . S
O2527 C2502 1.325 . S
H2528 C2470 0.929 . S
H2529 C2471 0.930 . S
H2530 C2472 0.930 . S
H2531 C2473 0.930 . S
H2532 C2475 0.930 . S
H2533 C2477 0.929 . S
H2534 C2478 0.930 . S
H2535 C2479 0.930 . S
H2536 C2482 0.930 . S
H2537 C2485 0.929 . S
H2538 C2490 0.929 . S
H2539 C2491 0.930 . S
H2540 C2498 0.929 . S
H2541 C2499 0.930 . S
H2542 C2500 0.930 . S
H2543 C2501 0.930 . S
H2544 C2503 0.929 . S
H2545 C2504 0.930 . S
H2546 C2505 0.930 . S
H2547 C2506 0.930 . S
H2548 C2510 0.929 . S
H2549 C2512 0.930 . S
H2550 C2518 0.929 . S
H2551 C2519 0.930 . S
Li2552 N2569 1.990 . S
Li2552 O2612 1.956 . S
Li2552 O2613 1.970 . S
Li2552 O2614 1.961 . S
Li2553 N2577 1.990 . S
Li2553 O2612 1.970 . S
Li2553 O2613 1.956 . S
Li2553 O2615 1.961 . S
Li2554 N2599 1.990 . S
Li2554 O2612 1.961 . S
Li2554 O2614 1.956 . S
Li2554 O2615 1.970 . S
Li2555 N2605 1.990 . S
Li2555 O2613 1.961 . S
Li2555 O2614 1.970 . S
Li2555 O2615 1.956 . S
C2556 C2558 1.348 . S
C2556 C2559 1.356 . S
C2556 O2612 1.325 . S
N2557 C2560 1.314 . S
N2557 C2561 1.279 . S
C2558 C2556 1.348 . S
C2558 C2560 1.353 . S
C2558 H2616 0.929 . S
C2559 C2556 1.356 . S
C2559 C2561 1.358 . S
C2559 H2617 0.930 . S
C2560 N2557 1.314 . S
C2560 C2558 1.353 . S
C2560 H2618 0.930 . S
C2561 N2557 1.279 . S
C2561 C2559 1.358 . S
C2561 H2619 0.930 . S
C2562 C2565 1.348 . S
C2562 C2566 1.356 . S
C2562 O2613 1.325 . S
C2563 N2564 1.279 . S
C2563 C2566 1.358 . S
C2563 H2620 0.930 . S
N2564 C2563 1.279 . S
N2564 C2567 1.314 . S
C2565 C2562 1.348 . S
C2565 C2567 1.353 . S
C2565 H2621 0.929 . S
C2566 C2562 1.356 . S
C2566 C2563 1.358 . S
C2566 H2622 0.930 . S
C2567 N2564 1.314 . S
C2567 C2565 1.353 . S
C2567 H2623 0.930 . S
C2568 N2569 1.314 . S
C2568 C2573 1.353 . S
C2568 H2574 0.930 . S
N2569 Li2552 1.990 . S
N2569 C2568 1.314 . S
N2569 C2571 1.279 . S
C2570 C2571 1.358 . S
C2570 C2572 1.356 . S
C2570 H2624 0.930 . S
C2571 N2569 1.279 . S
C2571 C2570 1.358 . S
C2571 H2575 0.930 . S
C2572 C2570 1.356 . S
C2572 C2573 1.348 . S
C2573 C2568 1.353 . S
C2573 C2572 1.348 . S
C2573 H2625 0.929 . S
H2574 C2568 0.930 . S
H2575 C2571 0.930 . S
C2576 N2577 1.314 . S
C2576 C2578 1.353 . S
C2576 H2582 0.930 . S
N2577 Li2553 1.990 . S
N2577 C2576 1.314 . S
N2577 C2580 1.279 . S
C2578 C2576 1.353 . S
C2578 C2581 1.348 . S
C2578 H2626 0.929 . S
C2579 C2580 1.358 . S
C2579 C2581 1.356 . S
C2579 H2627 0.930 . S
C2580 N2577 1.279 . S
C2580 C2579 1.358 . S
C2580 H2583 0.930 . S
C2581 C2578 1.348 . S
C2581 C2579 1.356 . S
H2582 C2576 0.930 . S
H2583 C2580 0.930 . S
C2584 C2586 1.348 . S
C2584 C2587 1.356 . S
C2584 O2614 1.325 . S
N2585 C2588 1.314 . S
N2585 C2589 1.279 . S
C2586 C2584 1.348 . S
C2586 C2588 1.353 . S
C2586 H2628 0.929 . S
C2587 C2584 1.356 . S
C2587 C2589 1.358 . S
C2587 H2629 0.930 . S
C2588 N2585 1.314 . S
C2588 C2586 1.353 . S
C2588 H2630 0.930 . S
C2589 N2585 1.279 . S
C2589 C2587 1.358 . S
C2589 H2631 0.930 . S
C2590 C2591 1.348 . S
C2590 C2592 1.356 . S
C2590 O2615 1.325 . S
C2591 C2590 1.348 . S
C2591 C2593 1.353 . S
C2591 H2632 0.929 . S
C2592 C2590 1.356 . S
C2592 C2594 1.358 . S
C2592 H2633 0.930 . S
C2593 C2591 1.353 . S
C2593 N2595 1.314 . S
C2593 H2634 0.930 . S
C2594 C2592 1.358 . S
C2594 N2595 1.279 . S
C2594 H2635 0.930 . S
N2595 C2593 1.314 . S
N2595 C2594 1.279 . S
C2596 C2598 1.353 . S
C2596 N2599 1.314 . S
C2596 H2602 0.930 . S
C2597 N2599 1.279 . S
C2597 C2600 1.358 . S
C2597 H2603 0.930 . S
C2598 C2596 1.353 . S
C2598 C2601 1.348 . S
C2598 H2636 0.929 . S
N2599 Li2554 1.990 . S
N2599 C2596 1.314 . S
N2599 C2597 1.279 . S
C2600 C2597 1.358 . S
C2600 C2601 1.356 . S
C2600 H2637 0.930 . S
C2601 C2598 1.348 . S
C2601 C2600 1.356 . S
H2602 C2596 0.930 . S
H2603 C2597 0.930 . S
C2604 N2605 1.314 . S
C2604 C2606 1.353 . S
C2604 H2610 0.930 . S
N2605 Li2555 1.990 . S
N2605 C2604 1.314 . S
N2605 C2608 1.279 . S
C2606 C2604 1.353 . S
C2606 C2609 1.348 . S
C2606 H2638 0.929 . S
C2607 C2608 1.358 . S
C2607 C2609 1.356 . S
C2607 H2639 0.930 . S
C2608 N2605 1.279 . S
C2608 C2607 1.358 . S
C2608 H2611 0.930 . S
C2609 C2606 1.348 . S
C2609 C2607 1.356 . S
H2610 C2604 0.930 . S
H2611 C2608 0.930 . S
O2612 Li2552 1.956 . S
O2612 Li2553 1.970 . S
O2612 Li2554 1.961 . S
O2612 C2556 1.325 . S
O2613 Li2552 1.970 . S
O2613 Li2553 1.956 . S
O2613 Li2555 1.961 . S
O2613 C2562 1.325 . S
O2614 Li2552 1.961 . S
O2614 Li2554 1.956 . S
O2614 Li2555 1.970 . S
O2614 C2584 1.325 . S
O2615 Li2553 1.961 . S
O2615 Li2554 1.970 . S
O2615 Li2555 1.956 . S
O2615 C2590 1.325 . S
H2616 C2558 0.929 . S
H2617 C2559 0.930 . S
H2618 C2560 0.930 . S
H2619 C2561 0.930 . S
H2620 C2563 0.930 . S
H2621 C2565 0.929 . S
H2622 C2566 0.930 . S
H2623 C2567 0.930 . S
H2624 C2570 0.930 . S
H2625 C2573 0.929 . S
H2626 C2578 0.929 . S
H2627 C2579 0.930 . S
H2628 C2586 0.929 . S
H2629 C2587 0.930 . S
H2630 C2588 0.930 . S
H2631 C2589 0.930 . S
H2632 C2591 0.929 . S
H2633 C2592 0.930 . S
H2634 C2593 0.930 . S
H2635 C2594 0.930 . S
H2636 C2598 0.929 . S
H2637 C2600 0.930 . S
H2638 C2606 0.929 . S
H2639 C2607 0.930 . S
Li2640 N2657 1.990 . S
Li2640 O2700 1.956 . S
Li2640 O2701 1.970 . S
Li2640 O2702 1.961 . S
Li2641 N2665 1.990 . S
Li2641 O2700 1.970 . S
Li2641 O2701 1.956 . S
Li2641 O2703 1.961 . S
Li2642 N2687 1.990 . S
Li2642 O2700 1.961 . S
Li2642 O2702 1.956 . S
Li2642 O2703 1.970 . S
Li2643 N2693 1.990 . S
Li2643 O2701 1.961 . S
Li2643 O2702 1.970 . S
Li2643 O2703 1.956 . S
C2644 C2646 1.348 . S
C2644 C2647 1.356 . S
C2644 O2700 1.325 . S
N2645 C2648 1.314 . S
N2645 C2649 1.279 . S
C2646 C2644 1.348 . S
C2646 C2648 1.353 . S
C2646 H2704 0.929 . S
C2647 C2644 1.356 . S
C2647 C2649 1.358 . S
C2647 H2705 0.930 . S
C2648 N2645 1.314 . S
C2648 C2646 1.353 . S
C2648 H2706 0.930 . S
C2649 N2645 1.279 . S
C2649 C2647 1.358 . S
C2649 H2707 0.930 . S
C2650 C2653 1.348 . S
C2650 C2654 1.356 . S
C2650 O2701 1.325 . S
C2651 N2652 1.279 . S
C2651 C2654 1.358 . S
C2651 H2708 0.930 . S
N2652 C2651 1.279 . S
N2652 C2655 1.314 . S
C2653 C2650 1.348 . S
C2653 C2655 1.353 . S
C2653 H2709 0.929 . S
C2654 C2650 1.356 . S
C2654 C2651 1.358 . S
C2654 H2710 0.930 . S
C2655 N2652 1.314 . S
C2655 C2653 1.353 . S
C2655 H2711 0.930 . S
C2656 N2657 1.314 . S
C2656 C2661 1.353 . S
C2656 H2662 0.930 . S
N2657 Li2640 1.990 . S
N2657 C2656 1.314 . S
N2657 C2659 1.279 . S
C2658 C2659 1.358 . S
C2658 C2660 1.356 . S
C2658 H2712 0.930 . S
C2659 N2657 1.279 . S
C2659 C2658 1.358 . S
C2659 H2663 0.930 . S
C2660 C2658 1.356 . S
C2660 C2661 1.348 . S
C2661 C2656 1.353 . S
C2661 C2660 1.348 . S
C2661 H2713 0.929 . S
H2662 C2656 0.930 . S
H2663 C2659 0.930 . S
C2664 N2665 1.314 . S
C2664 C2666 1.353 . S
C2664 H2670 0.930 . S
N2665 Li2641 1.990 . S
N2665 C2664 1.314 . S
N2665 C2668 1.279 . S
C2666 C2664 1.353 . S
C2666 C2669 1.348 . S
C2666 H2714 0.929 . S
C2667 C2668 1.358 . S
C2667 C2669 1.356 . S
C2667 H2715 0.930 . S
C2668 N2665 1.279 . S
C2668 C2667 1.358 . S
C2668 H2671 0.930 . S
C2669 C2666 1.348 . S
C2669 C2667 1.356 . S
H2670 C2664 0.930 . S
H2671 C2668 0.930 . S
C2672 C2674 1.348 . S
C2672 C2675 1.356 . S
C2672 O2702 1.325 . S
N2673 C2676 1.314 . S
N2673 C2677 1.279 . S
C2674 C2672 1.348 . S
C2674 C2676 1.353 . S
C2674 H2716 0.929 . S
C2675 C2672 1.356 . S
C2675 C2677 1.358 . S
C2675 H2717 0.930 . S
C2676 N2673 1.314 . S
C2676 C2674 1.353 . S
C2676 H2718 0.930 . S
C2677 N2673 1.279 . S
C2677 C2675 1.358 . S
C2677 H2719 0.930 . S
C2678 C2679 1.348 . S
C2678 C2680 1.356 . S
C2678 O2703 1.325 . S
C2679 C2678 1.348 . S
C2679 C2681 1.353 . S
C2679 H2720 0.929 . S
C2680 C2678 1.356 . S
C2680 C2682 1.358 . S
C2680 H2721 0.930 . S
C2681 C2679 1.353 . S
C2681 N2683 1.314 . S
C2681 H2722 0.930 . S
C2682 C2680 1.358 . S
C2682 N2683 1.279 . S
C2682 H2723 0.930 . S
N2683 C2681 1.314 . S
N2683 C2682 1.279 . S
C2684 C2686 1.353 . S
C2684 N2687 1.314 . S
C2684 H2690 0.930 . S
C2685 N2687 1.279 . S
C2685 C2688 1.358 . S
C2685 H2691 0.930 . S
C2686 C2684 1.353 . S
C2686 C2689 1.348 . S
C2686 H2724 0.929 . S
N2687 Li2642 1.990 . S
N2687 C2684 1.314 . S
N2687 C2685 1.279 . S
C2688 C2685 1.358 . S
C2688 C2689 1.356 . S
C2688 H2725 0.930 . S
C2689 C2686 1.348 . S
C2689 C2688 1.356 . S
H2690 C2684 0.930 . S
H2691 C2685 0.930 . S
C2692 N2693 1.314 . S
C2692 C2694 1.353 . S
C2692 H2698 0.930 . S
N2693 Li2643 1.990 . S
N2693 C2692 1.314 . S
N2693 C2696 1.279 . S
C2694 C2692 1.353 . S
C2694 C2697 1.348 . S
C2694 H2726 0.929 . S
C2695 C2696 1.358 . S
C2695 C2697 1.356 . S
C2695 H2727 0.930 . S
C2696 N2693 1.279 . S
C2696 C2695 1.358 . S
C2696 H2699 0.930 . S
C2697 C2694 1.348 . S
C2697 C2695 1.356 . S
H2698 C2692 0.930 . S
H2699 C2696 0.930 . S
O2700 Li2640 1.956 . S
O2700 Li2641 1.970 . S
O2700 Li2642 1.961 . S
O2700 C2644 1.325 . S
O2701 Li2640 1.970 . S
O2701 Li2641 1.956 . S
O2701 Li2643 1.961 . S
O2701 C2650 1.325 . S
O2702 Li2640 1.961 . S
O2702 Li2642 1.956 . S
O2702 Li2643 1.970 . S
O2702 C2672 1.325 . S
O2703 Li2641 1.961 . S
O2703 Li2642 1.970 . S
O2703 Li2643 1.956 . S
O2703 C2678 1.325 . S
H2704 C2646 0.929 . S
H2705 C2647 0.930 . S
H2706 C2648 0.930 . S
H2707 C2649 0.930 . S
H2708 C2651 0.930 . S
H2709 C2653 0.929 . S
H2710 C2654 0.930 . S
H2711 C2655 0.930 . S
H2712 C2658 0.930 . S
H2713 C2661 0.929 . S
H2714 C2666 0.929 . S
H2715 C2667 0.930 . S
H2716 C2674 0.929 . S
H2717 C2675 0.930 . S
H2718 C2676 0.930 . S
H2719 C2677 0.930 . S
H2720 C2679 0.929 . S
H2721 C2680 0.930 . S
H2722 C2681 0.930 . S
H2723 C2682 0.930 . S
H2724 C2686 0.929 . S
H2725 C2688 0.930 . S
H2726 C2694 0.929 . S
H2727 C2695 0.930 . S
Li2728 N2745 1.990 . S
Li2728 O2788 1.956 . S
Li2728 O2789 1.970 . S
Li2728 O2790 1.961 . S
Li2729 N2753 1.990 . S
Li2729 O2788 1.970 . S
Li2729 O2789 1.956 . S
Li2729 O2791 1.961 . S
Li2730 N2775 1.990 . S
Li2730 O2788 1.961 . S
Li2730 O2790 1.956 . S
Li2730 O2791 1.970 . S
Li2731 N2781 1.990 . S
Li2731 O2789 1.961 . S
Li2731 O2790 1.970 . S
Li2731 O2791 1.956 . S
C2732 C2734 1.348 . S
C2732 C2735 1.356 . S
C2732 O2788 1.325 . S
N2733 C2736 1.314 . S
N2733 C2737 1.279 . S
C2734 C2732 1.348 . S
C2734 C2736 1.353 . S
C2734 H2792 0.929 . S
C2735 C2732 1.356 . S
C2735 C2737 1.358 . S
C2735 H2793 0.930 . S
C2736 N2733 1.314 . S
C2736 C2734 1.353 . S
C2736 H2794 0.930 . S
C2737 N2733 1.279 . S
C2737 C2735 1.358 . S
C2737 H2795 0.930 . S
C2738 C2741 1.348 . S
C2738 C2742 1.356 . S
C2738 O2789 1.325 . S
C2739 N2740 1.279 . S
C2739 C2742 1.358 . S
C2739 H2796 0.930 . S
N2740 C2739 1.279 . S
N2740 C2743 1.314 . S
C2741 C2738 1.348 . S
C2741 C2743 1.353 . S
C2741 H2797 0.929 . S
C2742 C2738 1.356 . S
C2742 C2739 1.358 . S
C2742 H2798 0.930 . S
C2743 N2740 1.314 . S
C2743 C2741 1.353 . S
C2743 H2799 0.930 . S
C2744 N2745 1.314 . S
C2744 C2749 1.353 . S
C2744 H2750 0.930 . S
N2745 Li2728 1.990 . S
N2745 C2744 1.314 . S
N2745 C2747 1.279 . S
C2746 C2747 1.358 . S
C2746 C2748 1.356 . S
C2746 H2800 0.930 . S
C2747 N2745 1.279 . S
C2747 C2746 1.358 . S
C2747 H2751 0.930 . S
C2748 C2746 1.356 . S
C2748 C2749 1.348 . S
C2749 C2744 1.353 . S
C2749 C2748 1.348 . S
C2749 H2801 0.929 . S
H2750 C2744 0.930 . S
H2751 C2747 0.930 . S
C2752 N2753 1.314 . S
C2752 C2754 1.353 . S
C2752 H2758 0.930 . S
N2753 Li2729 1.990 . S
N2753 C2752 1.314 . S
N2753 C2756 1.279 . S
C2754 C2752 1.353 . S
C2754 C2757 1.348 . S
C2754 H2802 0.929 . S
C2755 C2756 1.358 . S
C2755 C2757 1.356 . S
C2755 H2803 0.930 . S
C2756 N2753 1.279 . S
C2756 C2755 1.358 . S
C2756 H2759 0.930 . S
C2757 C2754 1.348 . S
C2757 C2755 1.356 . S
H2758 C2752 0.930 . S
H2759 C2756 0.930 . S
C2760 C2762 1.348 . S
C2760 C2763 1.356 . S
C2760 O2790 1.325 . S
N2761 C2764 1.314 . S
N2761 C2765 1.279 . S
C2762 C2760 1.348 . S
C2762 C2764 1.353 . S
C2762 H2804 0.929 . S
C2763 C2760 1.356 . S
C2763 C2765 1.358 . S
C2763 H2805 0.930 . S
C2764 N2761 1.314 . S
C2764 C2762 1.353 . S
C2764 H2806 0.930 . S
C2765 N2761 1.279 . S
C2765 C2763 1.358 . S
C2765 H2807 0.930 . S
C2766 C2767 1.348 . S
C2766 C2768 1.356 . S
C2766 O2791 1.325 . S
C2767 C2766 1.348 . S
C2767 C2769 1.353 . S
C2767 H2808 0.929 . S
C2768 C2766 1.356 . S
C2768 C2770 1.358 . S
C2768 H2809 0.930 . S
C2769 C2767 1.353 . S
C2769 N2771 1.314 . S
C2769 H2810 0.930 . S
C2770 C2768 1.358 . S
C2770 N2771 1.279 . S
C2770 H2811 0.930 . S
N2771 C2769 1.314 . S
N2771 C2770 1.279 . S
C2772 C2774 1.353 . S
C2772 N2775 1.314 . S
C2772 H2778 0.930 . S
C2773 N2775 1.279 . S
C2773 C2776 1.358 . S
C2773 H2779 0.930 . S
C2774 C2772 1.353 . S
C2774 C2777 1.348 . S
C2774 H2812 0.929 . S
N2775 Li2730 1.990 . S
N2775 C2772 1.314 . S
N2775 C2773 1.279 . S
C2776 C2773 1.358 . S
C2776 C2777 1.356 . S
C2776 H2813 0.930 . S
C2777 C2774 1.348 . S
C2777 C2776 1.356 . S
H2778 C2772 0.930 . S
H2779 C2773 0.930 . S
C2780 N2781 1.314 . S
C2780 C2782 1.353 . S
C2780 H2786 0.930 . S
N2781 Li2731 1.990 . S
N2781 C2780 1.314 . S
N2781 C2784 1.279 . S
C2782 C2780 1.353 . S
C2782 C2785 1.348 . S
C2782 H2814 0.929 . S
C2783 C2784 1.358 . S
C2783 C2785 1.356 . S
C2783 H2815 0.930 . S
C2784 N2781 1.279 . S
C2784 C2783 1.358 . S
C2784 H2787 0.930 . S
C2785 C2782 1.348 . S
C2785 C2783 1.356 . S
H2786 C2780 0.930 . S
H2787 C2784 0.930 . S
O2788 Li2728 1.956 . S
O2788 Li2729 1.970 . S
O2788 Li2730 1.961 . S
O2788 C2732 1.325 . S
O2789 Li2728 1.970 . S
O2789 Li2729 1.956 . S
O2789 Li2731 1.961 . S
O2789 C2738 1.325 . S
O2790 Li2728 1.961 . S
O2790 Li2730 1.956 . S
O2790 Li2731 1.970 . S
O2790 C2760 1.325 . S
O2791 Li2729 1.961 . S
O2791 Li2730 1.970 . S
O2791 Li2731 1.956 . S
O2791 C2766 1.325 . S
H2792 C2734 0.929 . S
H2793 C2735 0.930 . S
H2794 C2736 0.930 . S
H2795 C2737 0.930 . S
H2796 C2739 0.930 . S
H2797 C2741 0.929 . S
H2798 C2742 0.930 . S
H2799 C2743 0.930 . S
H2800 C2746 0.930 . S
H2801 C2749 0.929 . S
H2802 C2754 0.929 . S
H2803 C2755 0.930 . S
H2804 C2762 0.929 . S
H2805 C2763 0.930 . S
H2806 C2764 0.930 . S
H2807 C2765 0.930 . S
H2808 C2767 0.929 . S
H2809 C2768 0.930 . S
H2810 C2769 0.930 . S
H2811 C2770 0.930 . S
H2812 C2774 0.929 . S
H2813 C2776 0.930 . S
H2814 C2782 0.929 . S
H2815 C2783 0.930 . S
Li2816 N2833 1.990 . S
Li2816 O2876 1.956 . S
Li2816 O2877 1.970 . S
Li2816 O2878 1.961 . S
Li2817 N2841 1.990 . S
Li2817 O2876 1.970 . S
Li2817 O2877 1.956 . S
Li2817 O2879 1.961 . S
Li2818 N2863 1.990 . S
Li2818 O2876 1.961 . S
Li2818 O2878 1.956 . S
Li2818 O2879 1.970 . S
Li2819 N2869 1.990 . S
Li2819 O2877 1.961 . S
Li2819 O2878 1.970 . S
Li2819 O2879 1.956 . S
C2820 C2822 1.348 . S
C2820 C2823 1.356 . S
C2820 O2876 1.325 . S
N2821 C2824 1.314 . S
N2821 C2825 1.279 . S
C2822 C2820 1.348 . S
C2822 C2824 1.353 . S
C2822 H2880 0.929 . S
C2823 C2820 1.356 . S
C2823 C2825 1.358 . S
C2823 H2881 0.930 . S
C2824 N2821 1.314 . S
C2824 C2822 1.353 . S
C2824 H2882 0.930 . S
C2825 N2821 1.279 . S
C2825 C2823 1.358 . S
C2825 H2883 0.930 . S
C2826 C2829 1.348 . S
C2826 C2830 1.356 . S
C2826 O2877 1.325 . S
C2827 N2828 1.279 . S
C2827 C2830 1.358 . S
C2827 H2884 0.930 . S
N2828 C2827 1.279 . S
N2828 C2831 1.314 . S
C2829 C2826 1.348 . S
C2829 C2831 1.353 . S
C2829 H2885 0.929 . S
C2830 C2826 1.356 . S
C2830 C2827 1.358 . S
C2830 H2886 0.930 . S
C2831 N2828 1.314 . S
C2831 C2829 1.353 . S
C2831 H2887 0.930 . S
C2832 N2833 1.314 . S
C2832 C2837 1.353 . S
C2832 H2838 0.930 . S
N2833 Li2816 1.990 . S
N2833 C2832 1.314 . S
N2833 C2835 1.279 . S
C2834 C2835 1.358 . S
C2834 C2836 1.356 . S
C2834 H2888 0.930 . S
C2835 N2833 1.279 . S
C2835 C2834 1.358 . S
C2835 H2839 0.930 . S
C2836 C2834 1.356 . S
C2836 C2837 1.348 . S
C2837 C2832 1.353 . S
C2837 C2836 1.348 . S
C2837 H2889 0.929 . S
H2838 C2832 0.930 . S
H2839 C2835 0.930 . S
C2840 N2841 1.314 . S
C2840 C2842 1.353 . S
C2840 H2846 0.930 . S
N2841 Li2817 1.990 . S
N2841 C2840 1.314 . S
N2841 C2844 1.279 . S
C2842 C2840 1.353 . S
C2842 C2845 1.348 . S
C2842 H2890 0.929 . S
C2843 C2844 1.358 . S
C2843 C2845 1.356 . S
C2843 H2891 0.930 . S
C2844 N2841 1.279 . S
C2844 C2843 1.358 . S
C2844 H2847 0.930 . S
C2845 C2842 1.348 . S
C2845 C2843 1.356 . S
H2846 C2840 0.930 . S
H2847 C2844 0.930 . S
C2848 C2850 1.348 . S
C2848 C2851 1.356 . S
C2848 O2878 1.325 . S
N2849 C2852 1.314 . S
N2849 C2853 1.279 . S
C2850 C2848 1.348 . S
C2850 C2852 1.353 . S
C2850 H2892 0.929 . S
C2851 C2848 1.356 . S
C2851 C2853 1.358 . S
C2851 H2893 0.930 . S
C2852 N2849 1.314 . S
C2852 C2850 1.353 . S
C2852 H2894 0.930 . S
C2853 N2849 1.279 . S
C2853 C2851 1.358 . S
C2853 H2895 0.930 . S
C2854 C2855 1.348 . S
C2854 C2856 1.356 . S
C2854 O2879 1.325 . S
C2855 C2854 1.348 . S
C2855 C2857 1.353 . S
C2855 H2896 0.929 . S
C2856 C2854 1.356 . S
C2856 C2858 1.358 . S
C2856 H2897 0.930 . S
C2857 C2855 1.353 . S
C2857 N2859 1.314 . S
C2857 H2898 0.930 . S
C2858 C2856 1.358 . S
C2858 N2859 1.279 . S
C2858 H2899 0.930 . S
N2859 C2857 1.314 . S
N2859 C2858 1.279 . S
C2860 C2862 1.353 . S
C2860 N2863 1.314 . S
C2860 H2866 0.930 . S
C2861 N2863 1.279 . S
C2861 C2864 1.358 . S
C2861 H2867 0.930 . S
C2862 C2860 1.353 . S
C2862 C2865 1.348 . S
C2862 H2900 0.929 . S
N2863 Li2818 1.990 . S
N2863 C2860 1.314 . S
N2863 C2861 1.279 . S
C2864 C2861 1.358 . S
C2864 C2865 1.356 . S
C2864 H2901 0.930 . S
C2865 C2862 1.348 . S
C2865 C2864 1.356 . S
H2866 C2860 0.930 . S
H2867 C2861 0.930 . S
C2868 N2869 1.314 . S
C2868 C2870 1.353 . S
C2868 H2874 0.930 . S
N2869 Li2819 1.990 . S
N2869 C2868 1.314 . S
N2869 C2872 1.279 . S
C2870 C2868 1.353 . S
C2870 C2873 1.348 . S
C2870 H2902 0.929 . S
C2871 C2872 1.358 . S
C2871 C2873 1.356 . S
C2871 H2903 0.930 . S
C2872 N2869 1.279 . S
C2872 C2871 1.358 . S
C2872 H2875 0.930 . S
C2873 C2870 1.348 . S
C2873 C2871 1.356 . S
H2874 C2868 0.930 . S
H2875 C2872 0.930 . S
O2876 Li2816 1.956 . S
O2876 Li2817 1.970 . S
O2876 Li2818 1.961 . S
O2876 C2820 1.325 . S
O2877 Li2816 1.970 . S
O2877 Li2817 1.956 . S
O2877 Li2819 1.961 . S
O2877 C2826 1.325 . S
O2878 Li2816 1.961 . S
O2878 Li2818 1.956 . S
O2878 Li2819 1.970 . S
O2878 C2848 1.325 . S
O2879 Li2817 1.961 . S
O2879 Li2818 1.970 . S
O2879 Li2819 1.956 . S
O2879 C2854 1.325 . S
H2880 C2822 0.929 . S
H2881 C2823 0.930 . S
H2882 C2824 0.930 . S
H2883 C2825 0.930 . S
H2884 C2827 0.930 . S
H2885 C2829 0.929 . S
H2886 C2830 0.930 . S
H2887 C2831 0.930 . S
H2888 C2834 0.930 . S
H2889 C2837 0.929 . S
H2890 C2842 0.929 . S
H2891 C2843 0.930 . S
H2892 C2850 0.929 . S
H2893 C2851 0.930 . S
H2894 C2852 0.930 . S
H2895 C2853 0.930 . S
H2896 C2855 0.929 . S
H2897 C2856 0.930 . S
H2898 C2857 0.930 . S
H2899 C2858 0.930 . S
H2900 C2862 0.929 . S
H2901 C2864 0.930 . S
H2902 C2870 0.929 . S
H2903 C2871 0.930 . S
Li2904 N2921 1.990 . S
Li2904 O2964 1.956 . S
Li2904 O2965 1.970 . S
Li2904 O2966 1.961 . S
Li2905 N2929 1.990 . S
Li2905 O2964 1.970 . S
Li2905 O2965 1.956 . S
Li2905 O2967 1.961 . S
Li2906 N2951 1.990 . S
Li2906 O2964 1.961 . S
Li2906 O2966 1.956 . S
Li2906 O2967 1.970 . S
Li2907 N2957 1.990 . S
Li2907 O2965 1.961 . S
Li2907 O2966 1.970 . S
Li2907 O2967 1.956 . S
C2908 C2910 1.348 . S
C2908 C2911 1.356 . S
C2908 O2964 1.325 . S
N2909 C2912 1.314 . S
N2909 C2913 1.279 . S
C2910 C2908 1.348 . S
C2910 C2912 1.353 . S
C2910 H2968 0.929 . S
C2911 C2908 1.356 . S
C2911 C2913 1.358 . S
C2911 H2969 0.930 . S
C2912 N2909 1.314 . S
C2912 C2910 1.353 . S
C2912 H2970 0.930 . S
C2913 N2909 1.279 . S
C2913 C2911 1.358 . S
C2913 H2971 0.930 . S
C2914 C2917 1.348 . S
C2914 C2918 1.356 . S
C2914 O2965 1.325 . S
C2915 N2916 1.279 . S
C2915 C2918 1.358 . S
C2915 H2972 0.930 . S
N2916 C2915 1.279 . S
N2916 C2919 1.314 . S
C2917 C2914 1.348 . S
C2917 C2919 1.353 . S
C2917 H2973 0.929 . S
C2918 C2914 1.356 . S
C2918 C2915 1.358 . S
C2918 H2974 0.930 . S
C2919 N2916 1.314 . S
C2919 C2917 1.353 . S
C2919 H2975 0.930 . S
C2920 N2921 1.314 . S
C2920 C2925 1.353 . S
C2920 H2926 0.930 . S
N2921 Li2904 1.990 . S
N2921 C2920 1.314 . S
N2921 C2923 1.279 . S
C2922 C2923 1.358 . S
C2922 C2924 1.356 . S
C2922 H2976 0.930 . S
C2923 N2921 1.279 . S
C2923 C2922 1.358 . S
C2923 H2927 0.930 . S
C2924 C2922 1.356 . S
C2924 C2925 1.348 . S
C2925 C2920 1.353 . S
C2925 C2924 1.348 . S
C2925 H2977 0.929 . S
H2926 C2920 0.930 . S
H2927 C2923 0.930 . S
C2928 N2929 1.314 . S
C2928 C2930 1.353 . S
C2928 H2934 0.930 . S
N2929 Li2905 1.990 . S
N2929 C2928 1.314 . S
N2929 C2932 1.279 . S
C2930 C2928 1.353 . S
C2930 C2933 1.348 . S
C2930 H2978 0.929 . S
C2931 C2932 1.358 . S
C2931 C2933 1.356 . S
C2931 H2979 0.930 . S
C2932 N2929 1.279 . S
C2932 C2931 1.358 . S
C2932 H2935 0.930 . S
C2933 C2930 1.348 . S
C2933 C2931 1.356 . S
H2934 C2928 0.930 . S
H2935 C2932 0.930 . S
C2936 C2938 1.348 . S
C2936 C2939 1.356 . S
C2936 O2966 1.325 . S
N2937 C2940 1.314 . S
N2937 C2941 1.279 . S
C2938 C2936 1.348 . S
C2938 C2940 1.353 . S
C2938 H2980 0.929 . S
C2939 C2936 1.356 . S
C2939 C2941 1.358 . S
C2939 H2981 0.930 . S
C2940 N2937 1.314 . S
C2940 C2938 1.353 . S
C2940 H2982 0.930 . S
C2941 N2937 1.279 . S
C2941 C2939 1.358 . S
C2941 H2983 0.930 . S
C2942 C2943 1.348 . S
C2942 C2944 1.356 . S
C2942 O2967 1.325 . S
C2943 C2942 1.348 . S
C2943 C2945 1.353 . S
C2943 H2984 0.929 . S
C2944 C2942 1.356 . S
C2944 C2946 1.358 . S
C2944 H2985 0.930 . S
C2945 C2943 1.353 . S
C2945 N2947 1.314 . S
C2945 H2986 0.930 . S
C2946 C2944 1.358 . S
C2946 N2947 1.279 . S
C2946 H2987 0.930 . S
N2947 C2945 1.314 . S
N2947 C2946 1.279 . S
C2948 C2950 1.353 . S
C2948 N2951 1.314 . S
C2948 H2954 0.930 . S
C2949 N2951 1.279 . S
C2949 C2952 1.358 . S
C2949 H2955 0.930 . S
C2950 C2948 1.353 . S
C2950 C2953 1.348 . S
C2950 H2988 0.929 . S
N2951 Li2906 1.990 . S
N2951 C2948 1.314 . S
N2951 C2949 1.279 . S
C2952 C2949 1.358 . S
C2952 C2953 1.356 . S
C2952 H2989 0.930 . S
C2953 C2950 1.348 . S
C2953 C2952 1.356 . S
H2954 C2948 0.930 . S
H2955 C2949 0.930 . S
C2956 N2957 1.314 . S
C2956 C2958 1.353 . S
C2956 H2962 0.930 . S
N2957 Li2907 1.990 . S
N2957 C2956 1.314 . S
N2957 C2960 1.279 . S
C2958 C2956 1.353 . S
C2958 C2961 1.348 . S
C2958 H2990 0.929 . S
C2959 C2960 1.358 . S
C2959 C2961 1.356 . S
C2959 H2991 0.930 . S
C2960 N2957 1.279 . S
C2960 C2959 1.358 . S
C2960 H2963 0.930 . S
C2961 C2958 1.348 . S
C2961 C2959 1.356 . S
H2962 C2956 0.930 . S
H2963 C2960 0.930 . S
O2964 Li2904 1.956 . S
O2964 Li2905 1.970 . S
O2964 Li2906 1.961 . S
O2964 C2908 1.325 . S
O2965 Li2904 1.970 . S
O2965 Li2905 1.956 . S
O2965 Li2907 1.961 . S
O2965 C2914 1.325 . S
O2966 Li2904 1.961 . S
O2966 Li2906 1.956 . S
O2966 Li2907 1.970 . S
O2966 C2936 1.325 . S
O2967 Li2905 1.961 . S
O2967 Li2906 1.970 . S
O2967 Li2907 1.956 . S
O2967 C2942 1.325 . S
H2968 C2910 0.929 . S
H2969 C2911 0.930 . S
H2970 C2912 0.930 . S
H2971 C2913 0.930 . S
H2972 C2915 0.930 . S
H2973 C2917 0.929 . S
H2974 C2918 0.930 . S
H2975 C2919 0.930 . S
H2976 C2922 0.930 . S
H2977 C2925 0.929 . S
H2978 C2930 0.929 . S
H2979 C2931 0.930 . S
H2980 C2938 0.929 . S
H2981 C2939 0.930 . S
H2982 C2940 0.930 . S
H2983 C2941 0.930 . S
H2984 C2943 0.929 . S
H2985 C2944 0.930 . S
H2986 C2945 0.930 . S
H2987 C2946 0.930 . S
H2988 C2950 0.929 . S
H2989 C2952 0.930 . S
H2990 C2958 0.929 . S
H2991 C2959 0.930 . S
Li2992 N3009 1.990 . S
Li2992 O3052 1.956 . S
Li2992 O3053 1.970 . S
Li2992 O3054 1.961 . S
Li2993 N3017 1.990 . S
Li2993 O3052 1.970 . S
Li2993 O3053 1.956 . S
Li2993 O3055 1.961 . S
Li2994 N3039 1.990 . S
Li2994 O3052 1.961 . S
Li2994 O3054 1.956 . S
Li2994 O3055 1.970 . S
Li2995 N3045 1.990 . S
Li2995 O3053 1.961 . S
Li2995 O3054 1.970 . S
Li2995 O3055 1.956 . S
C2996 C2998 1.348 . S
C2996 C2999 1.356 . S
C2996 O3052 1.325 . S
N2997 C3000 1.314 . S
N2997 C3001 1.279 . S
C2998 C2996 1.348 . S
C2998 C3000 1.353 . S
C2998 H3056 0.929 . S
C2999 C2996 1.356 . S
C2999 C3001 1.358 . S
C2999 H3057 0.930 . S
C3000 N2997 1.314 . S
C3000 C2998 1.353 . S
C3000 H3058 0.930 . S
C3001 N2997 1.279 . S
C3001 C2999 1.358 . S
C3001 H3059 0.930 . S
C3002 C3005 1.348 . S
C3002 C3006 1.356 . S
C3002 O3053 1.325 . S
C3003 N3004 1.279 . S
C3003 C3006 1.358 . S
C3003 H3060 0.930 . S
N3004 C3003 1.279 . S
N3004 C3007 1.314 . S
C3005 C3002 1.348 . S
C3005 C3007 1.353 . S
C3005 H3061 0.929 . S
C3006 C3002 1.356 . S
C3006 C3003 1.358 . S
C3006 H3062 0.930 . S
C3007 N3004 1.314 . S
C3007 C3005 1.353 . S
C3007 H3063 0.930 . S
C3008 N3009 1.314 . S
C3008 C3013 1.353 . S
C3008 H3014 0.930 . S
N3009 Li2992 1.990 . S
N3009 C3008 1.314 . S
N3009 C3011 1.279 . S
C3010 C3011 1.358 . S
C3010 C3012 1.356 . S
C3010 H3064 0.930 . S
C3011 N3009 1.279 . S
C3011 C3010 1.358 . S
C3011 H3015 0.930 . S
C3012 C3010 1.356 . S
C3012 C3013 1.348 . S
C3013 C3008 1.353 . S
C3013 C3012 1.348 . S
C3013 H3065 0.929 . S
H3014 C3008 0.930 . S
H3015 C3011 0.930 . S
C3016 N3017 1.314 . S
C3016 C3018 1.353 . S
C3016 H3022 0.930 . S
N3017 Li2993 1.990 . S
N3017 C3016 1.314 . S
N3017 C3020 1.279 . S
C3018 C3016 1.353 . S
C3018 C3021 1.348 . S
C3018 H3066 0.929 . S
C3019 C3020 1.358 . S
C3019 C3021 1.356 . S
C3019 H3067 0.930 . S
C3020 N3017 1.279 . S
C3020 C3019 1.358 . S
C3020 H3023 0.930 . S
C3021 C3018 1.348 . S
C3021 C3019 1.356 . S
H3022 C3016 0.930 . S
H3023 C3020 0.930 . S
C3024 C3026 1.348 . S
C3024 C3027 1.356 . S
C3024 O3054 1.325 . S
N3025 C3028 1.314 . S
N3025 C3029 1.279 . S
C3026 C3024 1.348 . S
C3026 C3028 1.353 . S
C3026 H3068 0.929 . S
C3027 C3024 1.356 . S
C3027 C3029 1.358 . S
C3027 H3069 0.930 . S
C3028 N3025 1.314 . S
C3028 C3026 1.353 . S
C3028 H3070 0.930 . S
C3029 N3025 1.279 . S
C3029 C3027 1.358 . S
C3029 H3071 0.930 . S
C3030 C3031 1.348 . S
C3030 C3032 1.356 . S
C3030 O3055 1.325 . S
C3031 C3030 1.348 . S
C3031 C3033 1.353 . S
C3031 H3072 0.929 . S
C3032 C3030 1.356 . S
C3032 C3034 1.358 . S
C3032 H3073 0.930 . S
C3033 C3031 1.353 . S
C3033 N3035 1.314 . S
C3033 H3074 0.930 . S
C3034 C3032 1.358 . S
C3034 N3035 1.279 . S
C3034 H3075 0.930 . S
N3035 C3033 1.314 . S
N3035 C3034 1.279 . S
C3036 C3038 1.353 . S
C3036 N3039 1.314 . S
C3036 H3042 0.930 . S
C3037 N3039 1.279 . S
C3037 C3040 1.358 . S
C3037 H3043 0.930 . S
C3038 C3036 1.353 . S
C3038 C3041 1.348 . S
C3038 H3076 0.929 . S
N3039 Li2994 1.990 . S
N3039 C3036 1.314 . S
N3039 C3037 1.279 . S
C3040 C3037 1.358 . S
C3040 C3041 1.356 . S
C3040 H3077 0.930 . S
C3041 C3038 1.348 . S
C3041 C3040 1.356 . S
H3042 C3036 0.930 . S
H3043 C3037 0.930 . S
C3044 N3045 1.314 . S
C3044 C3046 1.353 . S
C3044 H3050 0.930 . S
N3045 Li2995 1.990 . S
N3045 C3044 1.314 . S
N3045 C3048 1.279 . S
C3046 C3044 1.353 . S
C3046 C3049 1.348 . S
C3046 H3078 0.929 . S
C3047 C3048 1.358 . S
C3047 C3049 1.356 . S
C3047 H3079 0.930 . S
C3048 N3045 1.279 . S
C3048 C3047 1.358 . S
C3048 H3051 0.930 . S
C3049 C3046 1.348 . S
C3049 C3047 1.356 . S
H3050 C3044 0.930 . S
H3051 C3048 0.930 . S
O3052 Li2992 1.956 . S
O3052 Li2993 1.970 . S
O3052 Li2994 1.961 . S
O3052 C2996 1.325 . S
O3053 Li2992 1.970 . S
O3053 Li2993 1.956 . S
O3053 Li2995 1.961 . S
O3053 C3002 1.325 . S
O3054 Li2992 1.961 . S
O3054 Li2994 1.956 . S
O3054 Li2995 1.970 . S
O3054 C3024 1.325 . S
O3055 Li2993 1.961 . S
O3055 Li2994 1.970 . S
O3055 Li2995 1.956 . S
O3055 C3030 1.325 . S
H3056 C2998 0.929 . S
H3057 C2999 0.930 . S
H3058 C3000 0.930 . S
H3059 C3001 0.930 . S
H3060 C3003 0.930 . S
H3061 C3005 0.929 . S
H3062 C3006 0.930 . S
H3063 C3007 0.930 . S
H3064 C3010 0.930 . S
H3065 C3013 0.929 . S
H3066 C3018 0.929 . S
H3067 C3019 0.930 . S
H3068 C3026 0.929 . S
H3069 C3027 0.930 . S
H3070 C3028 0.930 . S
H3071 C3029 0.930 . S
H3072 C3031 0.929 . S
H3073 C3032 0.930 . S
H3074 C3033 0.930 . S
H3075 C3034 0.930 . S
H3076 C3038 0.929 . S
H3077 C3040 0.930 . S
H3078 C3046 0.929 . S
H3079 C3047 0.930 . S
Li3080 N3097 1.990 . S
Li3080 O3140 1.956 . S
Li3080 O3141 1.970 . S
Li3080 O3142 1.961 . S
Li3081 N3105 1.990 . S
Li3081 O3140 1.970 . S
Li3081 O3141 1.956 . S
Li3081 O3143 1.961 . S
Li3082 N3127 1.990 . S
Li3082 O3140 1.961 . S
Li3082 O3142 1.956 . S
Li3082 O3143 1.970 . S
Li3083 N3133 1.990 . S
Li3083 O3141 1.961 . S
Li3083 O3142 1.970 . S
Li3083 O3143 1.956 . S
C3084 C3086 1.348 . S
C3084 C3087 1.356 . S
C3084 O3140 1.325 . S
N3085 C3088 1.314 . S
N3085 C3089 1.279 . S
C3086 C3084 1.348 . S
C3086 C3088 1.353 . S
C3086 H3144 0.929 . S
C3087 C3084 1.356 . S
C3087 C3089 1.358 . S
C3087 H3145 0.930 . S
C3088 N3085 1.314 . S
C3088 C3086 1.353 . S
C3088 H3146 0.930 . S
C3089 N3085 1.279 . S
C3089 C3087 1.358 . S
C3089 H3147 0.930 . S
C3090 C3093 1.348 . S
C3090 C3094 1.356 . S
C3090 O3141 1.325 . S
C3091 N3092 1.279 . S
C3091 C3094 1.358 . S
C3091 H3148 0.930 . S
N3092 C3091 1.279 . S
N3092 C3095 1.314 . S
C3093 C3090 1.348 . S
C3093 C3095 1.353 . S
C3093 H3149 0.929 . S
C3094 C3090 1.356 . S
C3094 C3091 1.358 . S
C3094 H3150 0.930 . S
C3095 N3092 1.314 . S
C3095 C3093 1.353 . S
C3095 H3151 0.930 . S
C3096 N3097 1.314 . S
C3096 C3101 1.353 . S
C3096 H3102 0.930 . S
N3097 Li3080 1.990 . S
N3097 C3096 1.314 . S
N3097 C3099 1.279 . S
C3098 C3099 1.358 . S
C3098 C3100 1.356 . S
C3098 H3152 0.930 . S
C3099 N3097 1.279 . S
C3099 C3098 1.358 . S
C3099 H3103 0.930 . S
C3100 C3098 1.356 . S
C3100 C3101 1.348 . S
C3101 C3096 1.353 . S
C3101 C3100 1.348 . S
C3101 H3153 0.929 . S
H3102 C3096 0.930 . S
H3103 C3099 0.930 . S
C3104 N3105 1.314 . S
C3104 C3106 1.353 . S
C3104 H3110 0.930 . S
N3105 Li3081 1.990 . S
N3105 C3104 1.314 . S
N3105 C3108 1.279 . S
C3106 C3104 1.353 . S
C3106 C3109 1.348 . S
C3106 H3154 0.929 . S
C3107 C3108 1.358 . S
C3107 C3109 1.356 . S
C3107 H3155 0.930 . S
C3108 N3105 1.279 . S
C3108 C3107 1.358 . S
C3108 H3111 0.930 . S
C3109 C3106 1.348 . S
C3109 C3107 1.356 . S
H3110 C3104 0.930 . S
H3111 C3108 0.930 . S
C3112 C3114 1.348 . S
C3112 C3115 1.356 . S
C3112 O3142 1.325 . S
N3113 C3116 1.314 . S
N3113 C3117 1.279 . S
C3114 C3112 1.348 . S
C3114 C3116 1.353 . S
C3114 H3156 0.929 . S
C3115 C3112 1.356 . S
C3115 C3117 1.358 . S
C3115 H3157 0.930 . S
C3116 N3113 1.314 . S
C3116 C3114 1.353 . S
C3116 H3158 0.930 . S
C3117 N3113 1.279 . S
C3117 C3115 1.358 . S
C3117 H3159 0.930 . S
C3118 C3119 1.348 . S
C3118 C3120 1.356 . S
C3118 O3143 1.325 . S
C3119 C3118 1.348 . S
C3119 C3121 1.353 . S
C3119 H3160 0.929 . S
C3120 C3118 1.356 . S
C3120 C3122 1.358 . S
C3120 H3161 0.930 . S
C3121 C3119 1.353 . S
C3121 N3123 1.314 . S
C3121 H3162 0.930 . S
C3122 C3120 1.358 . S
C3122 N3123 1.279 . S
C3122 H3163 0.930 . S
N3123 C3121 1.314 . S
N3123 C3122 1.279 . S
C3124 C3126 1.353 . S
C3124 N3127 1.314 . S
C3124 H3130 0.930 . S
C3125 N3127 1.279 . S
C3125 C3128 1.358 . S
C3125 H3131 0.930 . S
C3126 C3124 1.353 . S
C3126 C3129 1.348 . S
C3126 H3164 0.929 . S
N3127 Li3082 1.990 . S
N3127 C3124 1.314 . S
N3127 C3125 1.279 . S
C3128 C3125 1.358 . S
C3128 C3129 1.356 . S
C3128 H3165 0.930 . S
C3129 C3126 1.348 . S
C3129 C3128 1.356 . S
H3130 C3124 0.930 . S
H3131 C3125 0.930 . S
C3132 N3133 1.314 . S
C3132 C3134 1.353 . S
C3132 H3138 0.930 . S
N3133 Li3083 1.990 . S
N3133 C3132 1.314 . S
N3133 C3136 1.279 . S
C3134 C3132 1.353 . S
C3134 C3137 1.348 . S
C3134 H3166 0.929 . S
C3135 C3136 1.358 . S
C3135 C3137 1.356 . S
C3135 H3167 0.930 . S
C3136 N3133 1.279 . S
C3136 C3135 1.358 . S
C3136 H3139 0.930 . S
C3137 C3134 1.348 . S
C3137 C3135 1.356 . S
H3138 C3132 0.930 . S
H3139 C3136 0.930 . S
O3140 Li3080 1.956 . S
O3140 Li3081 1.970 . S
O3140 Li3082 1.961 . S
O3140 C3084 1.325 . S
O3141 Li3080 1.970 . S
O3141 Li3081 1.956 . S
O3141 Li3083 1.961 . S
O3141 C3090 1.325 . S
O3142 Li3080 1.961 . S
O3142 Li3082 1.956 . S
O3142 Li3083 1.970 . S
O3142 C3112 1.325 . S
O3143 Li3081 1.961 . S
O3143 Li3082 1.970 . S
O3143 Li3083 1.956 . S
O3143 C3118 1.325 . S
H3144 C3086 0.929 . S
H3145 C3087 0.930 . S
H3146 C3088 0.930 . S
H3147 C3089 0.930 . S
H3148 C3091 0.930 . S
H3149 C3093 0.929 . S
H3150 C3094 0.930 . S
H3151 C3095 0.930 . S
H3152 C3098 0.930 . S
H3153 C3101 0.929 . S
H3154 C3106 0.929 . S
H3155 C3107 0.930 . S
H3156 C3114 0.929 . S
H3157 C3115 0.930 . S
H3158 C3116 0.930 . S
H3159 C3117 0.930 . S
H3160 C3119 0.929 . S
H3161 C3120 0.930 . S
H3162 C3121 0.930 . S
H3163 C3122 0.930 . S
H3164 C3126 0.929 . S
H3165 C3128 0.930 . S
H3166 C3134 0.929 . S
H3167 C3135 0.930 . S
Li3168 N3185 1.990 . S
Li3168 O3228 1.956 . S
Li3168 O3229 1.970 . S
Li3168 O3230 1.961 . S
Li3169 N3193 1.990 . S
Li3169 O3228 1.970 . S
Li3169 O3229 1.956 . S
Li3169 O3231 1.961 . S
Li3170 N3215 1.990 . S
Li3170 O3228 1.961 . S
Li3170 O3230 1.956 . S
Li3170 O3231 1.970 . S
Li3171 N3221 1.990 . S
Li3171 O3229 1.961 . S
Li3171 O3230 1.970 . S
Li3171 O3231 1.956 . S
C3172 C3174 1.348 . S
C3172 C3175 1.356 . S
C3172 O3228 1.325 . S
N3173 C3176 1.314 . S
N3173 C3177 1.279 . S
C3174 C3172 1.348 . S
C3174 C3176 1.353 . S
C3174 H3232 0.929 . S
C3175 C3172 1.356 . S
C3175 C3177 1.358 . S
C3175 H3233 0.930 . S
C3176 N3173 1.314 . S
C3176 C3174 1.353 . S
C3176 H3234 0.930 . S
C3177 N3173 1.279 . S
C3177 C3175 1.358 . S
C3177 H3235 0.930 . S
C3178 C3181 1.348 . S
C3178 C3182 1.356 . S
C3178 O3229 1.325 . S
C3179 N3180 1.279 . S
C3179 C3182 1.358 . S
C3179 H3236 0.930 . S
N3180 C3179 1.279 . S
N3180 C3183 1.314 . S
C3181 C3178 1.348 . S
C3181 C3183 1.353 . S
C3181 H3237 0.929 . S
C3182 C3178 1.356 . S
C3182 C3179 1.358 . S
C3182 H3238 0.930 . S
C3183 N3180 1.314 . S
C3183 C3181 1.353 . S
C3183 H3239 0.930 . S
C3184 N3185 1.314 . S
C3184 C3189 1.353 . S
C3184 H3190 0.930 . S
N3185 Li3168 1.990 . S
N3185 C3184 1.314 . S
N3185 C3187 1.279 . S
C3186 C3187 1.358 . S
C3186 C3188 1.356 . S
C3186 H3240 0.930 . S
C3187 N3185 1.279 . S
C3187 C3186 1.358 . S
C3187 H3191 0.930 . S
C3188 C3186 1.356 . S
C3188 C3189 1.348 . S
C3189 C3184 1.353 . S
C3189 C3188 1.348 . S
C3189 H3241 0.929 . S
H3190 C3184 0.930 . S
H3191 C3187 0.930 . S
C3192 N3193 1.314 . S
C3192 C3194 1.353 . S
C3192 H3198 0.930 . S
N3193 Li3169 1.990 . S
N3193 C3192 1.314 . S
N3193 C3196 1.279 . S
C3194 C3192 1.353 . S
C3194 C3197 1.348 . S
C3194 H3242 0.929 . S
C3195 C3196 1.358 . S
C3195 C3197 1.356 . S
C3195 H3243 0.930 . S
C3196 N3193 1.279 . S
C3196 C3195 1.358 . S
C3196 H3199 0.930 . S
C3197 C3194 1.348 . S
C3197 C3195 1.356 . S
H3198 C3192 0.930 . S
H3199 C3196 0.930 . S
C3200 C3202 1.348 . S
C3200 C3203 1.356 . S
C3200 O3230 1.325 . S
N3201 C3204 1.314 . S
N3201 C3205 1.279 . S
C3202 C3200 1.348 . S
C3202 C3204 1.353 . S
C3202 H3244 0.929 . S
C3203 C3200 1.356 . S
C3203 C3205 1.358 . S
C3203 H3245 0.930 . S
C3204 N3201 1.314 . S
C3204 C3202 1.353 . S
C3204 H3246 0.930 . S
C3205 N3201 1.279 . S
C3205 C3203 1.358 . S
C3205 H3247 0.930 . S
C3206 C3207 1.348 . S
C3206 C3208 1.356 . S
C3206 O3231 1.325 . S
C3207 C3206 1.348 . S
C3207 C3209 1.353 . S
C3207 H3248 0.929 . S
C3208 C3206 1.356 . S
C3208 C3210 1.358 . S
C3208 H3249 0.930 . S
C3209 C3207 1.353 . S
C3209 N3211 1.314 . S
C3209 H3250 0.930 . S
C3210 C3208 1.358 . S
C3210 N3211 1.279 . S
C3210 H3251 0.930 . S
N3211 C3209 1.314 . S
N3211 C3210 1.279 . S
C3212 C3214 1.353 . S
C3212 N3215 1.314 . S
C3212 H3218 0.930 . S
C3213 N3215 1.279 . S
C3213 C3216 1.358 . S
C3213 H3219 0.930 . S
C3214 C3212 1.353 . S
C3214 C3217 1.348 . S
C3214 H3252 0.929 . S
N3215 Li3170 1.990 . S
N3215 C3212 1.314 . S
N3215 C3213 1.279 . S
C3216 C3213 1.358 . S
C3216 C3217 1.356 . S
C3216 H3253 0.930 . S
C3217 C3214 1.348 . S
C3217 C3216 1.356 . S
H3218 C3212 0.930 . S
H3219 C3213 0.930 . S
C3220 N3221 1.314 . S
C3220 C3222 1.353 . S
C3220 H3226 0.930 . S
N3221 Li3171 1.990 . S
N3221 C3220 1.314 . S
N3221 C3224 1.279 . S
C3222 C3220 1.353 . S
C3222 C3225 1.348 . S
C3222 H3254 0.929 . S
C3223 C3224 1.358 . S
C3223 C3225 1.356 . S
C3223 H3255 0.930 . S
C3224 N3221 1.279 . S
C3224 C3223 1.358 . S
C3224 H3227 0.930 . S
C3225 C3222 1.348 . S
C3225 C3223 1.356 . S
H3226 C3220 0.930 . S
H3227 C3224 0.930 . S
O3228 Li3168 1.956 . S
O3228 Li3169 1.970 . S
O3228 Li3170 1.961 . S
O3228 C3172 1.325 . S
O3229 Li3168 1.970 . S
O3229 Li3169 1.956 . S
O3229 Li3171 1.961 . S
O3229 C3178 1.325 . S
O3230 Li3168 1.961 . S
O3230 Li3170 1.956 . S
O3230 Li3171 1.970 . S
O3230 C3200 1.325 . S
O3231 Li3169 1.961 . S
O3231 Li3170 1.970 . S
O3231 Li3171 1.956 . S
O3231 C3206 1.325 . S
H3232 C3174 0.929 . S
H3233 C3175 0.930 . S
H3234 C3176 0.930 . S
H3235 C3177 0.930 . S
H3236 C3179 0.930 . S
H3237 C3181 0.929 . S
H3238 C3182 0.930 . S
H3239 C3183 0.930 . S
H3240 C3186 0.930 . S
H3241 C3189 0.929 . S
H3242 C3194 0.929 . S
H3243 C3195 0.930 . S
H3244 C3202 0.929 . S
H3245 C3203 0.930 . S
H3246 C3204 0.930 . S
H3247 C3205 0.930 . S
H3248 C3207 0.929 . S
H3249 C3208 0.930 . S
H3250 C3209 0.930 . S
H3251 C3210 0.930 . S
H3252 C3214 0.929 . S
H3253 C3216 0.930 . S
H3254 C3222 0.929 . S
H3255 C3223 0.930 . S
Li3256 N3273 1.990 . S
Li3256 O3316 1.956 . S
Li3256 O3317 1.970 . S
Li3256 O3318 1.961 . S
Li3257 N3281 1.990 . S
Li3257 O3316 1.970 . S
Li3257 O3317 1.956 . S
Li3257 O3319 1.961 . S
Li3258 N3303 1.990 . S
Li3258 O3316 1.961 . S
Li3258 O3318 1.956 . S
Li3258 O3319 1.970 . S
Li3259 N3309 1.990 . S
Li3259 O3317 1.961 . S
Li3259 O3318 1.970 . S
Li3259 O3319 1.956 . S
C3260 C3262 1.348 . S
C3260 C3263 1.356 . S
C3260 O3316 1.325 . S
N3261 C3264 1.314 . S
N3261 C3265 1.279 . S
C3262 C3260 1.348 . S
C3262 C3264 1.353 . S
C3262 H3320 0.929 . S
C3263 C3260 1.356 . S
C3263 C3265 1.358 . S
C3263 H3321 0.930 . S
C3264 N3261 1.314 . S
C3264 C3262 1.353 . S
C3264 H3322 0.930 . S
C3265 N3261 1.279 . S
C3265 C3263 1.358 . S
C3265 H3323 0.930 . S
C3266 C3269 1.348 . S
C3266 C3270 1.356 . S
C3266 O3317 1.325 . S
C3267 N3268 1.279 . S
C3267 C3270 1.358 . S
C3267 H3324 0.930 . S
N3268 C3267 1.279 . S
N3268 C3271 1.314 . S
C3269 C3266 1.348 . S
C3269 C3271 1.353 . S
C3269 H3325 0.929 . S
C3270 C3266 1.356 . S
C3270 C3267 1.358 . S
C3270 H3326 0.930 . S
C3271 N3268 1.314 . S
C3271 C3269 1.353 . S
C3271 H3327 0.930 . S
C3272 N3273 1.314 . S
C3272 C3277 1.353 . S
C3272 H3278 0.930 . S
N3273 Li3256 1.990 . S
N3273 C3272 1.314 . S
N3273 C3275 1.279 . S
C3274 C3275 1.358 . S
C3274 C3276 1.356 . S
C3274 H3328 0.930 . S
C3275 N3273 1.279 . S
C3275 C3274 1.358 . S
C3275 H3279 0.930 . S
C3276 C3274 1.356 . S
C3276 C3277 1.348 . S
C3277 C3272 1.353 . S
C3277 C3276 1.348 . S
C3277 H3329 0.929 . S
H3278 C3272 0.930 . S
H3279 C3275 0.930 . S
C3280 N3281 1.314 . S
C3280 C3282 1.353 . S
C3280 H3286 0.930 . S
N3281 Li3257 1.990 . S
N3281 C3280 1.314 . S
N3281 C3284 1.279 . S
C3282 C3280 1.353 . S
C3282 C3285 1.348 . S
C3282 H3330 0.929 . S
C3283 C3284 1.358 . S
C3283 C3285 1.356 . S
C3283 H3331 0.930 . S
C3284 N3281 1.279 . S
C3284 C3283 1.358 . S
C3284 H3287 0.930 . S
C3285 C3282 1.348 . S
C3285 C3283 1.356 . S
H3286 C3280 0.930 . S
H3287 C3284 0.930 . S
C3288 C3290 1.348 . S
C3288 C3291 1.356 . S
C3288 O3318 1.325 . S
N3289 C3292 1.314 . S
N3289 C3293 1.279 . S
C3290 C3288 1.348 . S
C3290 C3292 1.353 . S
C3290 H3332 0.929 . S
C3291 C3288 1.356 . S
C3291 C3293 1.358 . S
C3291 H3333 0.930 . S
C3292 N3289 1.314 . S
C3292 C3290 1.353 . S
C3292 H3334 0.930 . S
C3293 N3289 1.279 . S
C3293 C3291 1.358 . S
C3293 H3335 0.930 . S
C3294 C3295 1.348 . S
C3294 C3296 1.356 . S
C3294 O3319 1.325 . S
C3295 C3294 1.348 . S
C3295 C3297 1.353 . S
C3295 H3336 0.929 . S
C3296 C3294 1.356 . S
C3296 C3298 1.358 . S
C3296 H3337 0.930 . S
C3297 C3295 1.353 . S
C3297 N3299 1.314 . S
C3297 H3338 0.930 . S
C3298 C3296 1.358 . S
C3298 N3299 1.279 . S
C3298 H3339 0.930 . S
N3299 C3297 1.314 . S
N3299 C3298 1.279 . S
C3300 C3302 1.353 . S
C3300 N3303 1.314 . S
C3300 H3306 0.930 . S
C3301 N3303 1.279 . S
C3301 C3304 1.358 . S
C3301 H3307 0.930 . S
C3302 C3300 1.353 . S
C3302 C3305 1.348 . S
C3302 H3340 0.929 . S
N3303 Li3258 1.990 . S
N3303 C3300 1.314 . S
N3303 C3301 1.279 . S
C3304 C3301 1.358 . S
C3304 C3305 1.356 . S
C3304 H3341 0.930 . S
C3305 C3302 1.348 . S
C3305 C3304 1.356 . S
H3306 C3300 0.930 . S
H3307 C3301 0.930 . S
C3308 N3309 1.314 . S
C3308 C3310 1.353 . S
C3308 H3314 0.930 . S
N3309 Li3259 1.990 . S
N3309 C3308 1.314 . S
N3309 C3312 1.279 . S
C3310 C3308 1.353 . S
C3310 C3313 1.348 . S
C3310 H3342 0.929 . S
C3311 C3312 1.358 . S
C3311 C3313 1.356 . S
C3311 H3343 0.930 . S
C3312 N3309 1.279 . S
C3312 C3311 1.358 . S
C3312 H3315 0.930 . S
C3313 C3310 1.348 . S
C3313 C3311 1.356 . S
H3314 C3308 0.930 . S
H3315 C3312 0.930 . S
O3316 Li3256 1.956 . S
O3316 Li3257 1.970 . S
O3316 Li3258 1.961 . S
O3316 C3260 1.325 . S
O3317 Li3256 1.970 . S
O3317 Li3257 1.956 . S
O3317 Li3259 1.961 . S
O3317 C3266 1.325 . S
O3318 Li3256 1.961 . S
O3318 Li3258 1.956 . S
O3318 Li3259 1.970 . S
O3318 C3288 1.325 . S
O3319 Li3257 1.961 . S
O3319 Li3258 1.970 . S
O3319 Li3259 1.956 . S
O3319 C3294 1.325 . S
H3320 C3262 0.929 . S
H3321 C3263 0.930 . S
H3322 C3264 0.930 . S
H3323 C3265 0.930 . S
H3324 C3267 0.930 . S
H3325 C3269 0.929 . S
H3326 C3270 0.930 . S
H3327 C3271 0.930 . S
H3328 C3274 0.930 . S
H3329 C3277 0.929 . S
H3330 C3282 0.929 . S
H3331 C3283 0.930 . S
H3332 C3290 0.929 . S
H3333 C3291 0.930 . S
H3334 C3292 0.930 . S
H3335 C3293 0.930 . S
H3336 C3295 0.929 . S
H3337 C3296 0.930 . S
H3338 C3297 0.930 . S
H3339 C3298 0.930 . S
H3340 C3302 0.929 . S
H3341 C3304 0.930 . S
H3342 C3310 0.929 . S
H3343 C3311 0.930 . S
Li3344 N3361 1.990 . S
Li3344 O3404 1.956 . S
Li3344 O3405 1.970 . S
Li3344 O3406 1.961 . S
Li3345 N3369 1.990 . S
Li3345 O3404 1.970 . S
Li3345 O3405 1.956 . S
Li3345 O3407 1.961 . S
Li3346 N3391 1.990 . S
Li3346 O3404 1.961 . S
Li3346 O3406 1.956 . S
Li3346 O3407 1.970 . S
Li3347 N3397 1.990 . S
Li3347 O3405 1.961 . S
Li3347 O3406 1.970 . S
Li3347 O3407 1.956 . S
C3348 C3350 1.348 . S
C3348 C3351 1.356 . S
C3348 O3404 1.325 . S
N3349 C3352 1.314 . S
N3349 C3353 1.279 . S
C3350 C3348 1.348 . S
C3350 C3352 1.353 . S
C3350 H3408 0.929 . S
C3351 C3348 1.356 . S
C3351 C3353 1.358 . S
C3351 H3409 0.930 . S
C3352 N3349 1.314 . S
C3352 C3350 1.353 . S
C3352 H3410 0.930 . S
C3353 N3349 1.279 . S
C3353 C3351 1.358 . S
C3353 H3411 0.930 . S
C3354 C3357 1.348 . S
C3354 C3358 1.356 . S
C3354 O3405 1.325 . S
C3355 N3356 1.279 . S
C3355 C3358 1.358 . S
C3355 H3412 0.930 . S
N3356 C3355 1.279 . S
N3356 C3359 1.314 . S
C3357 C3354 1.348 . S
C3357 C3359 1.353 . S
C3357 H3413 0.929 . S
C3358 C3354 1.356 . S
C3358 C3355 1.358 . S
C3358 H3414 0.930 . S
C3359 N3356 1.314 . S
C3359 C3357 1.353 . S
C3359 H3415 0.930 . S
C3360 N3361 1.314 . S
C3360 C3365 1.353 . S
C3360 H3366 0.930 . S
N3361 Li3344 1.990 . S
N3361 C3360 1.314 . S
N3361 C3363 1.279 . S
C3362 C3363 1.358 . S
C3362 C3364 1.356 . S
C3362 H3416 0.930 . S
C3363 N3361 1.279 . S
C3363 C3362 1.358 . S
C3363 H3367 0.930 . S
C3364 C3362 1.356 . S
C3364 C3365 1.348 . S
C3365 C3360 1.353 . S
C3365 C3364 1.348 . S
C3365 H3417 0.929 . S
H3366 C3360 0.930 . S
H3367 C3363 0.930 . S
C3368 N3369 1.314 . S
C3368 C3370 1.353 . S
C3368 H3374 0.930 . S
N3369 Li3345 1.990 . S
N3369 C3368 1.314 . S
N3369 C3372 1.279 . S
C3370 C3368 1.353 . S
C3370 C3373 1.348 . S
C3370 H3418 0.929 . S
C3371 C3372 1.358 . S
C3371 C3373 1.356 . S
C3371 H3419 0.930 . S
C3372 N3369 1.279 . S
C3372 C3371 1.358 . S
C3372 H3375 0.930 . S
C3373 C3370 1.348 . S
C3373 C3371 1.356 . S
H3374 C3368 0.930 . S
H3375 C3372 0.930 . S
C3376 C3378 1.348 . S
C3376 C3379 1.356 . S
C3376 O3406 1.325 . S
N3377 C3380 1.314 . S
N3377 C3381 1.279 . S
C3378 C3376 1.348 . S
C3378 C3380 1.353 . S
C3378 H3420 0.929 . S
C3379 C3376 1.356 . S
C3379 C3381 1.358 . S
C3379 H3421 0.930 . S
C3380 N3377 1.314 . S
C3380 C3378 1.353 . S
C3380 H3422 0.930 . S
C3381 N3377 1.279 . S
C3381 C3379 1.358 . S
C3381 H3423 0.930 . S
C3382 C3383 1.348 . S
C3382 C3384 1.356 . S
C3382 O3407 1.325 . S
C3383 C3382 1.348 . S
C3383 C3385 1.353 . S
C3383 H3424 0.929 . S
C3384 C3382 1.356 . S
C3384 C3386 1.358 . S
C3384 H3425 0.930 . S
C3385 C3383 1.353 . S
C3385 N3387 1.314 . S
C3385 H3426 0.930 . S
C3386 C3384 1.358 . S
C3386 N3387 1.279 . S
C3386 H3427 0.930 . S
N3387 C3385 1.314 . S
N3387 C3386 1.279 . S
C3388 C3390 1.353 . S
C3388 N3391 1.314 . S
C3388 H3394 0.930 . S
C3389 N3391 1.279 . S
C3389 C3392 1.358 . S
C3389 H3395 0.930 . S
C3390 C3388 1.353 . S
C3390 C3393 1.348 . S
C3390 H3428 0.929 . S
N3391 Li3346 1.990 . S
N3391 C3388 1.314 . S
N3391 C3389 1.279 . S
C3392 C3389 1.358 . S
C3392 C3393 1.356 . S
C3392 H3429 0.930 . S
C3393 C3390 1.348 . S
C3393 C3392 1.356 . S
H3394 C3388 0.930 . S
H3395 C3389 0.930 . S
C3396 N3397 1.314 . S
C3396 C3398 1.353 . S
C3396 H3402 0.930 . S
N3397 Li3347 1.990 . S
N3397 C3396 1.314 . S
N3397 C3400 1.279 . S
C3398 C3396 1.353 . S
C3398 C3401 1.348 . S
C3398 H3430 0.929 . S
C3399 C3400 1.358 . S
C3399 C3401 1.356 . S
C3399 H3431 0.930 . S
C3400 N3397 1.279 . S
C3400 C3399 1.358 . S
C3400 H3403 0.930 . S
C3401 C3398 1.348 . S
C3401 C3399 1.356 . S
H3402 C3396 0.930 . S
H3403 C3400 0.930 . S
O3404 Li3344 1.956 . S
O3404 Li3345 1.970 . S
O3404 Li3346 1.961 . S
O3404 C3348 1.325 . S
O3405 Li3344 1.970 . S
O3405 Li3345 1.956 . S
O3405 Li3347 1.961 . S
O3405 C3354 1.325 . S
O3406 Li3344 1.961 . S
O3406 Li3346 1.956 . S
O3406 Li3347 1.970 . S
O3406 C3376 1.325 . S
O3407 Li3345 1.961 . S
O3407 Li3346 1.970 . S
O3407 Li3347 1.956 . S
O3407 C3382 1.325 . S
H3408 C3350 0.929 . S
H3409 C3351 0.930 . S
H3410 C3352 0.930 . S
H3411 C3353 0.930 . S
H3412 C3355 0.930 . S
H3413 C3357 0.929 . S
H3414 C3358 0.930 . S
H3415 C3359 0.930 . S
H3416 C3362 0.930 . S
H3417 C3365 0.929 . S
H3418 C3370 0.929 . S
H3419 C3371 0.930 . S
H3420 C3378 0.929 . S
H3421 C3379 0.930 . S
H3422 C3380 0.930 . S
H3423 C3381 0.930 . S
H3424 C3383 0.929 . S
H3425 C3384 0.930 . S
H3426 C3385 0.930 . S
H3427 C3386 0.930 . S
H3428 C3390 0.929 . S
H3429 C3392 0.930 . S
H3430 C3398 0.929 . S
H3431 C3399 0.930 . S
Li3432 N3449 1.990 . S
Li3432 O3492 1.956 . S
Li3432 O3493 1.970 . S
Li3432 O3494 1.961 . S
Li3433 N3457 1.990 . S
Li3433 O3492 1.970 . S
Li3433 O3493 1.956 . S
Li3433 O3495 1.961 . S
Li3434 N3479 1.990 . S
Li3434 O3492 1.961 . S
Li3434 O3494 1.956 . S
Li3434 O3495 1.970 . S
Li3435 N3485 1.990 . S
Li3435 O3493 1.961 . S
Li3435 O3494 1.970 . S
Li3435 O3495 1.956 . S
C3436 C3438 1.348 . S
C3436 C3439 1.356 . S
C3436 O3492 1.325 . S
N3437 C3440 1.314 . S
N3437 C3441 1.279 . S
C3438 C3436 1.348 . S
C3438 C3440 1.353 . S
C3438 H3496 0.929 . S
C3439 C3436 1.356 . S
C3439 C3441 1.358 . S
C3439 H3497 0.930 . S
C3440 N3437 1.314 . S
C3440 C3438 1.353 . S
C3440 H3498 0.930 . S
C3441 N3437 1.279 . S
C3441 C3439 1.358 . S
C3441 H3499 0.930 . S
C3442 C3445 1.348 . S
C3442 C3446 1.356 . S
C3442 O3493 1.325 . S
C3443 N3444 1.279 . S
C3443 C3446 1.358 . S
C3443 H3500 0.930 . S
N3444 C3443 1.279 . S
N3444 C3447 1.314 . S
C3445 C3442 1.348 . S
C3445 C3447 1.353 . S
C3445 H3501 0.929 . S
C3446 C3442 1.356 . S
C3446 C3443 1.358 . S
C3446 H3502 0.930 . S
C3447 N3444 1.314 . S
C3447 C3445 1.353 . S
C3447 H3503 0.930 . S
C3448 N3449 1.314 . S
C3448 C3453 1.353 . S
C3448 H3454 0.930 . S
N3449 Li3432 1.990 . S
N3449 C3448 1.314 . S
N3449 C3451 1.279 . S
C3450 C3451 1.358 . S
C3450 C3452 1.356 . S
C3450 H3504 0.930 . S
C3451 N3449 1.279 . S
C3451 C3450 1.358 . S
C3451 H3455 0.930 . S
C3452 C3450 1.356 . S
C3452 C3453 1.348 . S
C3453 C3448 1.353 . S
C3453 C3452 1.348 . S
C3453 H3505 0.929 . S
H3454 C3448 0.930 . S
H3455 C3451 0.930 . S
C3456 N3457 1.314 . S
C3456 C3458 1.353 . S
C3456 H3462 0.930 . S
N3457 Li3433 1.990 . S
N3457 C3456 1.314 . S
N3457 C3460 1.279 . S
C3458 C3456 1.353 . S
C3458 C3461 1.348 . S
C3458 H3506 0.929 . S
C3459 C3460 1.358 . S
C3459 C3461 1.356 . S
C3459 H3507 0.930 . S
C3460 N3457 1.279 . S
C3460 C3459 1.358 . S
C3460 H3463 0.930 . S
C3461 C3458 1.348 . S
C3461 C3459 1.356 . S
H3462 C3456 0.930 . S
H3463 C3460 0.930 . S
C3464 C3466 1.348 . S
C3464 C3467 1.356 . S
C3464 O3494 1.325 . S
N3465 C3468 1.314 . S
N3465 C3469 1.279 . S
C3466 C3464 1.348 . S
C3466 C3468 1.353 . S
C3466 H3508 0.929 . S
C3467 C3464 1.356 . S
C3467 C3469 1.358 . S
C3467 H3509 0.930 . S
C3468 N3465 1.314 . S
C3468 C3466 1.353 . S
C3468 H3510 0.930 . S
C3469 N3465 1.279 . S
C3469 C3467 1.358 . S
C3469 H3511 0.930 . S
C3470 C3471 1.348 . S
C3470 C3472 1.356 . S
C3470 O3495 1.325 . S
C3471 C3470 1.348 . S
C3471 C3473 1.353 . S
C3471 H3512 0.929 . S
C3472 C3470 1.356 . S
C3472 C3474 1.358 . S
C3472 H3513 0.930 . S
C3473 C3471 1.353 . S
C3473 N3475 1.314 . S
C3473 H3514 0.930 . S
C3474 C3472 1.358 . S
C3474 N3475 1.279 . S
C3474 H3515 0.930 . S
N3475 C3473 1.314 . S
N3475 C3474 1.279 . S
C3476 C3478 1.353 . S
C3476 N3479 1.314 . S
C3476 H3482 0.930 . S
C3477 N3479 1.279 . S
C3477 C3480 1.358 . S
C3477 H3483 0.930 . S
C3478 C3476 1.353 . S
C3478 C3481 1.348 . S
C3478 H3516 0.929 . S
N3479 Li3434 1.990 . S
N3479 C3476 1.314 . S
N3479 C3477 1.279 . S
C3480 C3477 1.358 . S
C3480 C3481 1.356 . S
C3480 H3517 0.930 . S
C3481 C3478 1.348 . S
C3481 C3480 1.356 . S
H3482 C3476 0.930 . S
H3483 C3477 0.930 . S
C3484 N3485 1.314 . S
C3484 C3486 1.353 . S
C3484 H3490 0.930 . S
N3485 Li3435 1.990 . S
N3485 C3484 1.314 . S
N3485 C3488 1.279 . S
C3486 C3484 1.353 . S
C3486 C3489 1.348 . S
C3486 H3518 0.929 . S
C3487 C3488 1.358 . S
C3487 C3489 1.356 . S
C3487 H3519 0.930 . S
C3488 N3485 1.279 . S
C3488 C3487 1.358 . S
C3488 H3491 0.930 . S
C3489 C3486 1.348 . S
C3489 C3487 1.356 . S
H3490 C3484 0.930 . S
H3491 C3488 0.930 . S
O3492 Li3432 1.956 . S
O3492 Li3433 1.970 . S
O3492 Li3434 1.961 . S
O3492 C3436 1.325 . S
O3493 Li3432 1.970 . S
O3493 Li3433 1.956 . S
O3493 Li3435 1.961 . S
O3493 C3442 1.325 . S
O3494 Li3432 1.961 . S
O3494 Li3434 1.956 . S
O3494 Li3435 1.970 . S
O3494 C3464 1.325 . S
O3495 Li3433 1.961 . S
O3495 Li3434 1.970 . S
O3495 Li3435 1.956 . S
O3495 C3470 1.325 . S
H3496 C3438 0.929 . S
H3497 C3439 0.930 . S
H3498 C3440 0.930 . S
H3499 C3441 0.930 . S
H3500 C3443 0.930 . S
H3501 C3445 0.929 . S
H3502 C3446 0.930 . S
H3503 C3447 0.930 . S
H3504 C3450 0.930 . S
H3505 C3453 0.929 . S
H3506 C3458 0.929 . S
H3507 C3459 0.930 . S
H3508 C3466 0.929 . S
H3509 C3467 0.930 . S
H3510 C3468 0.930 . S
H3511 C3469 0.930 . S
H3512 C3471 0.929 . S
H3513 C3472 0.930 . S
H3514 C3473 0.930 . S
H3515 C3474 0.930 . S
H3516 C3478 0.929 . S
H3517 C3480 0.930 . S
H3518 C3486 0.929 . S
H3519 C3487 0.930 . S
Li3520 N3537 1.990 . S
Li3520 O3580 1.956 . S
Li3520 O3581 1.970 . S
Li3520 O3582 1.961 . S
Li3521 N3545 1.990 . S
Li3521 O3580 1.970 . S
Li3521 O3581 1.956 . S
Li3521 O3583 1.961 . S
Li3522 N3567 1.990 . S
Li3522 O3580 1.961 . S
Li3522 O3582 1.956 . S
Li3522 O3583 1.970 . S
Li3523 N3573 1.990 . S
Li3523 O3581 1.961 . S
Li3523 O3582 1.970 . S
Li3523 O3583 1.956 . S
C3524 C3526 1.348 . S
C3524 C3527 1.356 . S
C3524 O3580 1.325 . S
N3525 C3528 1.314 . S
N3525 C3529 1.279 . S
C3526 C3524 1.348 . S
C3526 C3528 1.353 . S
C3526 H3584 0.929 . S
C3527 C3524 1.356 . S
C3527 C3529 1.358 . S
C3527 H3585 0.930 . S
C3528 N3525 1.314 . S
C3528 C3526 1.353 . S
C3528 H3586 0.930 . S
C3529 N3525 1.279 . S
C3529 C3527 1.358 . S
C3529 H3587 0.930 . S
C3530 C3533 1.348 . S
C3530 C3534 1.356 . S
C3530 O3581 1.325 . S
C3531 N3532 1.279 . S
C3531 C3534 1.358 . S
C3531 H3588 0.930 . S
N3532 C3531 1.279 . S
N3532 C3535 1.314 . S
C3533 C3530 1.348 . S
C3533 C3535 1.353 . S
C3533 H3589 0.929 . S
C3534 C3530 1.356 . S
C3534 C3531 1.358 . S
C3534 H3590 0.930 . S
C3535 N3532 1.314 . S
C3535 C3533 1.353 . S
C3535 H3591 0.930 . S
C3536 N3537 1.314 . S
C3536 C3541 1.353 . S
C3536 H3542 0.930 . S
N3537 Li3520 1.990 . S
N3537 C3536 1.314 . S
N3537 C3539 1.279 . S
C3538 C3539 1.358 . S
C3538 C3540 1.356 . S
C3538 H3592 0.930 . S
C3539 N3537 1.279 . S
C3539 C3538 1.358 . S
C3539 H3543 0.930 . S
C3540 C3538 1.356 . S
C3540 C3541 1.348 . S
C3541 C3536 1.353 . S
C3541 C3540 1.348 . S
C3541 H3593 0.929 . S
H3542 C3536 0.930 . S
H3543 C3539 0.930 . S
C3544 N3545 1.314 . S
C3544 C3546 1.353 . S
C3544 H3550 0.930 . S
N3545 Li3521 1.990 . S
N3545 C3544 1.314 . S
N3545 C3548 1.279 . S
C3546 C3544 1.353 . S
C3546 C3549 1.348 . S
C3546 H3594 0.929 . S
C3547 C3548 1.358 . S
C3547 C3549 1.356 . S
C3547 H3595 0.930 . S
C3548 N3545 1.279 . S
C3548 C3547 1.358 . S
C3548 H3551 0.930 . S
C3549 C3546 1.348 . S
C3549 C3547 1.356 . S
H3550 C3544 0.930 . S
H3551 C3548 0.930 . S
C3552 C3554 1.348 . S
C3552 C3555 1.356 . S
C3552 O3582 1.325 . S
N3553 C3556 1.314 . S
N3553 C3557 1.279 . S
C3554 C3552 1.348 . S
C3554 C3556 1.353 . S
C3554 H3596 0.929 . S
C3555 C3552 1.356 . S
C3555 C3557 1.358 . S
C3555 H3597 0.930 . S
C3556 N3553 1.314 . S
C3556 C3554 1.353 . S
C3556 H3598 0.930 . S
C3557 N3553 1.279 . S
C3557 C3555 1.358 . S
C3557 H3599 0.930 . S
C3558 C3559 1.348 . S
C3558 C3560 1.356 . S
C3558 O3583 1.325 . S
C3559 C3558 1.348 . S
C3559 C3561 1.353 . S
C3559 H3600 0.929 . S
C3560 C3558 1.356 . S
C3560 C3562 1.358 . S
C3560 H3601 0.930 . S
C3561 C3559 1.353 . S
C3561 N3563 1.314 . S
C3561 H3602 0.930 . S
C3562 C3560 1.358 . S
C3562 N3563 1.279 . S
C3562 H3603 0.930 . S
N3563 C3561 1.314 . S
N3563 C3562 1.279 . S
C3564 C3566 1.353 . S
C3564 N3567 1.314 . S
C3564 H3570 0.930 . S
C3565 N3567 1.279 . S
C3565 C3568 1.358 . S
C3565 H3571 0.930 . S
C3566 C3564 1.353 . S
C3566 C3569 1.348 . S
C3566 H3604 0.929 . S
N3567 Li3522 1.990 . S
N3567 C3564 1.314 . S
N3567 C3565 1.279 . S
C3568 C3565 1.358 . S
C3568 C3569 1.356 . S
C3568 H3605 0.930 . S
C3569 C3566 1.348 . S
C3569 C3568 1.356 . S
H3570 C3564 0.930 . S
H3571 C3565 0.930 . S
C3572 N3573 1.314 . S
C3572 C3574 1.353 . S
C3572 H3578 0.930 . S
N3573 Li3523 1.990 . S
N3573 C3572 1.314 . S
N3573 C3576 1.279 . S
C3574 C3572 1.353 . S
C3574 C3577 1.348 . S
C3574 H3606 0.929 . S
C3575 C3576 1.358 . S
C3575 C3577 1.356 . S
C3575 H3607 0.930 . S
C3576 N3573 1.279 . S
C3576 C3575 1.358 . S
C3576 H3579 0.930 . S
C3577 C3574 1.348 . S
C3577 C3575 1.356 . S
H3578 C3572 0.930 . S
H3579 C3576 0.930 . S
O3580 Li3520 1.956 . S
O3580 Li3521 1.970 . S
O3580 Li3522 1.961 . S
O3580 C3524 1.325 . S
O3581 Li3520 1.970 . S
O3581 Li3521 1.956 . S
O3581 Li3523 1.961 . S
O3581 C3530 1.325 . S
O3582 Li3520 1.961 . S
O3582 Li3522 1.956 . S
O3582 Li3523 1.970 . S
O3582 C3552 1.325 . S
O3583 Li3521 1.961 . S
O3583 Li3522 1.970 . S
O3583 Li3523 1.956 . S
O3583 C3558 1.325 . S
H3584 C3526 0.929 . S
H3585 C3527 0.930 . S
H3586 C3528 0.930 . S
H3587 C3529 0.930 . S
H3588 C3531 0.930 . S
H3589 C3533 0.929 . S
H3590 C3534 0.930 . S
H3591 C3535 0.930 . S
H3592 C3538 0.930 . S
H3593 C3541 0.929 . S
H3594 C3546 0.929 . S
H3595 C3547 0.930 . S
H3596 C3554 0.929 . S
H3597 C3555 0.930 . S
H3598 C3556 0.930 . S
H3599 C3557 0.930 . S
H3600 C3559 0.929 . S
H3601 C3560 0.930 . S
H3602 C3561 0.930 . S
H3603 C3562 0.930 . S
H3604 C3566 0.929 . S
H3605 C3568 0.930 . S
H3606 C3574 0.929 . S
H3607 C3575 0.930 . S
Li3608 N3625 1.990 . S
Li3608 O3668 1.956 . S
Li3608 O3669 1.970 . S
Li3608 O3670 1.961 . S
Li3609 N3633 1.990 . S
Li3609 O3668 1.970 . S
Li3609 O3669 1.956 . S
Li3609 O3671 1.961 . S
Li3610 N3655 1.990 . S
Li3610 O3668 1.961 . S
Li3610 O3670 1.956 . S
Li3610 O3671 1.970 . S
Li3611 N3661 1.990 . S
Li3611 O3669 1.961 . S
Li3611 O3670 1.970 . S
Li3611 O3671 1.956 . S
C3612 C3614 1.348 . S
C3612 C3615 1.356 . S
C3612 O3668 1.325 . S
N3613 C3616 1.314 . S
N3613 C3617 1.279 . S
C3614 C3612 1.348 . S
C3614 C3616 1.353 . S
C3614 H3672 0.929 . S
C3615 C3612 1.356 . S
C3615 C3617 1.358 . S
C3615 H3673 0.930 . S
C3616 N3613 1.314 . S
C3616 C3614 1.353 . S
C3616 H3674 0.930 . S
C3617 N3613 1.279 . S
C3617 C3615 1.358 . S
C3617 H3675 0.930 . S
C3618 C3621 1.348 . S
C3618 C3622 1.356 . S
C3618 O3669 1.325 . S
C3619 N3620 1.279 . S
C3619 C3622 1.358 . S
C3619 H3676 0.930 . S
N3620 C3619 1.279 . S
N3620 C3623 1.314 . S
C3621 C3618 1.348 . S
C3621 C3623 1.353 . S
C3621 H3677 0.929 . S
C3622 C3618 1.356 . S
C3622 C3619 1.358 . S
C3622 H3678 0.930 . S
C3623 N3620 1.314 . S
C3623 C3621 1.353 . S
C3623 H3679 0.930 . S
C3624 N3625 1.314 . S
C3624 C3629 1.353 . S
C3624 H3630 0.930 . S
N3625 Li3608 1.990 . S
N3625 C3624 1.314 . S
N3625 C3627 1.279 . S
C3626 C3627 1.358 . S
C3626 C3628 1.356 . S
C3626 H3680 0.930 . S
C3627 N3625 1.279 . S
C3627 C3626 1.358 . S
C3627 H3631 0.930 . S
C3628 C3626 1.356 . S
C3628 C3629 1.348 . S
C3629 C3624 1.353 . S
C3629 C3628 1.348 . S
C3629 H3681 0.929 . S
H3630 C3624 0.930 . S
H3631 C3627 0.930 . S
C3632 N3633 1.314 . S
C3632 C3634 1.353 . S
C3632 H3638 0.930 . S
N3633 Li3609 1.990 . S
N3633 C3632 1.314 . S
N3633 C3636 1.279 . S
C3634 C3632 1.353 . S
C3634 C3637 1.348 . S
C3634 H3682 0.929 . S
C3635 C3636 1.358 . S
C3635 C3637 1.356 . S
C3635 H3683 0.930 . S
C3636 N3633 1.279 . S
C3636 C3635 1.358 . S
C3636 H3639 0.930 . S
C3637 C3634 1.348 . S
C3637 C3635 1.356 . S
H3638 C3632 0.930 . S
H3639 C3636 0.930 . S
C3640 C3642 1.348 . S
C3640 C3643 1.356 . S
C3640 O3670 1.325 . S
N3641 C3644 1.314 . S
N3641 C3645 1.279 . S
C3642 C3640 1.348 . S
C3642 C3644 1.353 . S
C3642 H3684 0.929 . S
C3643 C3640 1.356 . S
C3643 C3645 1.358 . S
C3643 H3685 0.930 . S
C3644 N3641 1.314 . S
C3644 C3642 1.353 . S
C3644 H3686 0.930 . S
C3645 N3641 1.279 . S
C3645 C3643 1.358 . S
C3645 H3687 0.930 . S
C3646 C3647 1.348 . S
C3646 C3648 1.356 . S
C3646 O3671 1.325 . S
C3647 C3646 1.348 . S
C3647 C3649 1.353 . S
C3647 H3688 0.929 . S
C3648 C3646 1.356 . S
C3648 C3650 1.358 . S
C3648 H3689 0.930 . S
C3649 C3647 1.353 . S
C3649 N3651 1.314 . S
C3649 H3690 0.930 . S
C3650 C3648 1.358 . S
C3650 N3651 1.279 . S
C3650 H3691 0.930 . S
N3651 C3649 1.314 . S
N3651 C3650 1.279 . S
C3652 C3654 1.353 . S
C3652 N3655 1.314 . S
C3652 H3658 0.930 . S
C3653 N3655 1.279 . S
C3653 C3656 1.358 . S
C3653 H3659 0.930 . S
C3654 C3652 1.353 . S
C3654 C3657 1.348 . S
C3654 H3692 0.929 . S
N3655 Li3610 1.990 . S
N3655 C3652 1.314 . S
N3655 C3653 1.279 . S
C3656 C3653 1.358 . S
C3656 C3657 1.356 . S
C3656 H3693 0.930 . S
C3657 C3654 1.348 . S
C3657 C3656 1.356 . S
H3658 C3652 0.930 . S
H3659 C3653 0.930 . S
C3660 N3661 1.314 . S
C3660 C3662 1.353 . S
C3660 H3666 0.930 . S
N3661 Li3611 1.990 . S
N3661 C3660 1.314 . S
N3661 C3664 1.279 . S
C3662 C3660 1.353 . S
C3662 C3665 1.348 . S
C3662 H3694 0.929 . S
C3663 C3664 1.358 . S
C3663 C3665 1.356 . S
C3663 H3695 0.930 . S
C3664 N3661 1.279 . S
C3664 C3663 1.358 . S
C3664 H3667 0.930 . S
C3665 C3662 1.348 . S
C3665 C3663 1.356 . S
H3666 C3660 0.930 . S
H3667 C3664 0.930 . S
O3668 Li3608 1.956 . S
O3668 Li3609 1.970 . S
O3668 Li3610 1.961 . S
O3668 C3612 1.325 . S
O3669 Li3608 1.970 . S
O3669 Li3609 1.956 . S
O3669 Li3611 1.961 . S
O3669 C3618 1.325 . S
O3670 Li3608 1.961 . S
O3670 Li3610 1.956 . S
O3670 Li3611 1.970 . S
O3670 C3640 1.325 . S
O3671 Li3609 1.961 . S
O3671 Li3610 1.970 . S
O3671 Li3611 1.956 . S
O3671 C3646 1.325 . S
H3672 C3614 0.929 . S
H3673 C3615 0.930 . S
H3674 C3616 0.930 . S
H3675 C3617 0.930 . S
H3676 C3619 0.930 . S
H3677 C3621 0.929 . S
H3678 C3622 0.930 . S
H3679 C3623 0.930 . S
H3680 C3626 0.930 . S
H3681 C3629 0.929 . S
H3682 C3634 0.929 . S
H3683 C3635 0.930 . S
H3684 C3642 0.929 . S
H3685 C3643 0.930 . S
H3686 C3644 0.930 . S
H3687 C3645 0.930 . S
H3688 C3647 0.929 . S
H3689 C3648 0.930 . S
H3690 C3649 0.930 . S
H3691 C3650 0.930 . S
H3692 C3654 0.929 . S
H3693 C3656 0.930 . S
H3694 C3662 0.929 . S
H3695 C3663 0.930 . S
Li3696 N3713 1.990 . S
Li3696 O3756 1.956 . S
Li3696 O3757 1.970 . S
Li3696 O3758 1.961 . S
Li3697 N3721 1.990 . S
Li3697 O3756 1.970 . S
Li3697 O3757 1.956 . S
Li3697 O3759 1.961 . S
Li3698 N3743 1.990 . S
Li3698 O3756 1.961 . S
Li3698 O3758 1.956 . S
Li3698 O3759 1.970 . S
Li3699 N3749 1.990 . S
Li3699 O3757 1.961 . S
Li3699 O3758 1.970 . S
Li3699 O3759 1.956 . S
C3700 C3702 1.348 . S
C3700 C3703 1.356 . S
C3700 O3756 1.325 . S
N3701 C3704 1.314 . S
N3701 C3705 1.279 . S
C3702 C3700 1.348 . S
C3702 C3704 1.353 . S
C3702 H3760 0.929 . S
C3703 C3700 1.356 . S
C3703 C3705 1.358 . S
C3703 H3761 0.930 . S
C3704 N3701 1.314 . S
C3704 C3702 1.353 . S
C3704 H3762 0.930 . S
C3705 N3701 1.279 . S
C3705 C3703 1.358 . S
C3705 H3763 0.930 . S
C3706 C3709 1.348 . S
C3706 C3710 1.356 . S
C3706 O3757 1.325 . S
C3707 N3708 1.279 . S
C3707 C3710 1.358 . S
C3707 H3764 0.930 . S
N3708 C3707 1.279 . S
N3708 C3711 1.314 . S
C3709 C3706 1.348 . S
C3709 C3711 1.353 . S
C3709 H3765 0.929 . S
C3710 C3706 1.356 . S
C3710 C3707 1.358 . S
C3710 H3766 0.930 . S
C3711 N3708 1.314 . S
C3711 C3709 1.353 . S
C3711 H3767 0.930 . S
C3712 N3713 1.314 . S
C3712 C3717 1.353 . S
C3712 H3718 0.930 . S
N3713 Li3696 1.990 . S
N3713 C3712 1.314 . S
N3713 C3715 1.279 . S
C3714 C3715 1.358 . S
C3714 C3716 1.356 . S
C3714 H3768 0.930 . S
C3715 N3713 1.279 . S
C3715 C3714 1.358 . S
C3715 H3719 0.930 . S
C3716 C3714 1.356 . S
C3716 C3717 1.348 . S
C3717 C3712 1.353 . S
C3717 C3716 1.348 . S
C3717 H3769 0.929 . S
H3718 C3712 0.930 . S
H3719 C3715 0.930 . S
C3720 N3721 1.314 . S
C3720 C3722 1.353 . S
C3720 H3726 0.930 . S
N3721 Li3697 1.990 . S
N3721 C3720 1.314 . S
N3721 C3724 1.279 . S
C3722 C3720 1.353 . S
C3722 C3725 1.348 . S
C3722 H3770 0.929 . S
C3723 C3724 1.358 . S
C3723 C3725 1.356 . S
C3723 H3771 0.930 . S
C3724 N3721 1.279 . S
C3724 C3723 1.358 . S
C3724 H3727 0.930 . S
C3725 C3722 1.348 . S
C3725 C3723 1.356 . S
H3726 C3720 0.930 . S
H3727 C3724 0.930 . S
C3728 C3730 1.348 . S
C3728 C3731 1.356 . S
C3728 O3758 1.325 . S
N3729 C3732 1.314 . S
N3729 C3733 1.279 . S
C3730 C3728 1.348 . S
C3730 C3732 1.353 . S
C3730 H3772 0.929 . S
C3731 C3728 1.356 . S
C3731 C3733 1.358 . S
C3731 H3773 0.930 . S
C3732 N3729 1.314 . S
C3732 C3730 1.353 . S
C3732 H3774 0.930 . S
C3733 N3729 1.279 . S
C3733 C3731 1.358 . S
C3733 H3775 0.930 . S
C3734 C3735 1.348 . S
C3734 C3736 1.356 . S
C3734 O3759 1.325 . S
C3735 C3734 1.348 . S
C3735 C3737 1.353 . S
C3735 H3776 0.929 . S
C3736 C3734 1.356 . S
C3736 C3738 1.358 . S
C3736 H3777 0.930 . S
C3737 C3735 1.353 . S
C3737 N3739 1.314 . S
C3737 H3778 0.930 . S
C3738 C3736 1.358 . S
C3738 N3739 1.279 . S
C3738 H3779 0.930 . S
N3739 C3737 1.314 . S
N3739 C3738 1.279 . S
C3740 C3742 1.353 . S
C3740 N3743 1.314 . S
C3740 H3746 0.930 . S
C3741 N3743 1.279 . S
C3741 C3744 1.358 . S
C3741 H3747 0.930 . S
C3742 C3740 1.353 . S
C3742 C3745 1.348 . S
C3742 H3780 0.929 . S
N3743 Li3698 1.990 . S
N3743 C3740 1.314 . S
N3743 C3741 1.279 . S
C3744 C3741 1.358 . S
C3744 C3745 1.356 . S
C3744 H3781 0.930 . S
C3745 C3742 1.348 . S
C3745 C3744 1.356 . S
H3746 C3740 0.930 . S
H3747 C3741 0.930 . S
C3748 N3749 1.314 . S
C3748 C3750 1.353 . S
C3748 H3754 0.930 . S
N3749 Li3699 1.990 . S
N3749 C3748 1.314 . S
N3749 C3752 1.279 . S
C3750 C3748 1.353 . S
C3750 C3753 1.348 . S
C3750 H3782 0.929 . S
C3751 C3752 1.358 . S
C3751 C3753 1.356 . S
C3751 H3783 0.930 . S
C3752 N3749 1.279 . S
C3752 C3751 1.358 . S
C3752 H3755 0.930 . S
C3753 C3750 1.348 . S
C3753 C3751 1.356 . S
H3754 C3748 0.930 . S
H3755 C3752 0.930 . S
O3756 Li3696 1.956 . S
O3756 Li3697 1.970 . S
O3756 Li3698 1.961 . S
O3756 C3700 1.325 . S
O3757 Li3696 1.970 . S
O3757 Li3697 1.956 . S
O3757 Li3699 1.961 . S
O3757 C3706 1.325 . S
O3758 Li3696 1.961 . S
O3758 Li3698 1.956 . S
O3758 Li3699 1.970 . S
O3758 C3728 1.325 . S
O3759 Li3697 1.961 . S
O3759 Li3698 1.970 . S
O3759 Li3699 1.956 . S
O3759 C3734 1.325 . S
H3760 C3702 0.929 . S
H3761 C3703 0.930 . S
H3762 C3704 0.930 . S
H3763 C3705 0.930 . S
H3764 C3707 0.930 . S
H3765 C3709 0.929 . S
H3766 C3710 0.930 . S
H3767 C3711 0.930 . S
H3768 C3714 0.930 . S
H3769 C3717 0.929 . S
H3770 C3722 0.929 . S
H3771 C3723 0.930 . S
H3772 C3730 0.929 . S
H3773 C3731 0.930 . S
H3774 C3732 0.930 . S
H3775 C3733 0.930 . S
H3776 C3735 0.929 . S
H3777 C3736 0.930 . S
H3778 C3737 0.930 . S
H3779 C3738 0.930 . S
H3780 C3742 0.929 . S
H3781 C3744 0.930 . S
H3782 C3750 0.929 . S
H3783 C3751 0.930 . S
Li3784 N3801 1.990 . S
Li3784 O3844 1.956 . S
Li3784 O3845 1.970 . S
Li3784 O3846 1.961 . S
Li3785 N3809 1.990 . S
Li3785 O3844 1.970 . S
Li3785 O3845 1.956 . S
Li3785 O3847 1.961 . S
Li3786 N3831 1.990 . S
Li3786 O3844 1.961 . S
Li3786 O3846 1.956 . S
Li3786 O3847 1.970 . S
Li3787 N3837 1.990 . S
Li3787 O3845 1.961 . S
Li3787 O3846 1.970 . S
Li3787 O3847 1.956 . S
C3788 C3790 1.348 . S
C3788 C3791 1.356 . S
C3788 O3844 1.325 . S
N3789 C3792 1.314 . S
N3789 C3793 1.279 . S
C3790 C3788 1.348 . S
C3790 C3792 1.353 . S
C3790 H3848 0.929 . S
C3791 C3788 1.356 . S
C3791 C3793 1.358 . S
C3791 H3849 0.930 . S
C3792 N3789 1.314 . S
C3792 C3790 1.353 . S
C3792 H3850 0.930 . S
C3793 N3789 1.279 . S
C3793 C3791 1.358 . S
C3793 H3851 0.930 . S
C3794 C3797 1.348 . S
C3794 C3798 1.356 . S
C3794 O3845 1.325 . S
C3795 N3796 1.279 . S
C3795 C3798 1.358 . S
C3795 H3852 0.930 . S
N3796 C3795 1.279 . S
N3796 C3799 1.314 . S
C3797 C3794 1.348 . S
C3797 C3799 1.353 . S
C3797 H3853 0.929 . S
C3798 C3794 1.356 . S
C3798 C3795 1.358 . S
C3798 H3854 0.930 . S
C3799 N3796 1.314 . S
C3799 C3797 1.353 . S
C3799 H3855 0.930 . S
C3800 N3801 1.314 . S
C3800 C3805 1.353 . S
C3800 H3806 0.930 . S
N3801 Li3784 1.990 . S
N3801 C3800 1.314 . S
N3801 C3803 1.279 . S
C3802 C3803 1.358 . S
C3802 C3804 1.356 . S
C3802 H3856 0.930 . S
C3803 N3801 1.279 . S
C3803 C3802 1.358 . S
C3803 H3807 0.930 . S
C3804 C3802 1.356 . S
C3804 C3805 1.348 . S
C3805 C3800 1.353 . S
C3805 C3804 1.348 . S
C3805 H3857 0.929 . S
H3806 C3800 0.930 . S
H3807 C3803 0.930 . S
C3808 N3809 1.314 . S
C3808 C3810 1.353 . S
C3808 H3814 0.930 . S
N3809 Li3785 1.990 . S
N3809 C3808 1.314 . S
N3809 C3812 1.279 . S
C3810 C3808 1.353 . S
C3810 C3813 1.348 . S
C3810 H3858 0.929 . S
C3811 C3812 1.358 . S
C3811 C3813 1.356 . S
C3811 H3859 0.930 . S
C3812 N3809 1.279 . S
C3812 C3811 1.358 . S
C3812 H3815 0.930 . S
C3813 C3810 1.348 . S
C3813 C3811 1.356 . S
H3814 C3808 0.930 . S
H3815 C3812 0.930 . S
C3816 C3818 1.348 . S
C3816 C3819 1.356 . S
C3816 O3846 1.325 . S
N3817 C3820 1.314 . S
N3817 C3821 1.279 . S
C3818 C3816 1.348 . S
C3818 C3820 1.353 . S
C3818 H3860 0.929 . S
C3819 C3816 1.356 . S
C3819 C3821 1.358 . S
C3819 H3861 0.930 . S
C3820 N3817 1.314 . S
C3820 C3818 1.353 . S
C3820 H3862 0.930 . S
C3821 N3817 1.279 . S
C3821 C3819 1.358 . S
C3821 H3863 0.930 . S
C3822 C3823 1.348 . S
C3822 C3824 1.356 . S
C3822 O3847 1.325 . S
C3823 C3822 1.348 . S
C3823 C3825 1.353 . S
C3823 H3864 0.929 . S
C3824 C3822 1.356 . S
C3824 C3826 1.358 . S
C3824 H3865 0.930 . S
C3825 C3823 1.353 . S
C3825 N3827 1.314 . S
C3825 H3866 0.930 . S
C3826 C3824 1.358 . S
C3826 N3827 1.279 . S
C3826 H3867 0.930 . S
N3827 C3825 1.314 . S
N3827 C3826 1.279 . S
C3828 C3830 1.353 . S
C3828 N3831 1.314 . S
C3828 H3834 0.930 . S
C3829 N3831 1.279 . S
C3829 C3832 1.358 . S
C3829 H3835 0.930 . S
C3830 C3828 1.353 . S
C3830 C3833 1.348 . S
C3830 H3868 0.929 . S
N3831 Li3786 1.990 . S
N3831 C3828 1.314 . S
N3831 C3829 1.279 . S
C3832 C3829 1.358 . S
C3832 C3833 1.356 . S
C3832 H3869 0.930 . S
C3833 C3830 1.348 . S
C3833 C3832 1.356 . S
H3834 C3828 0.930 . S
H3835 C3829 0.930 . S
C3836 N3837 1.314 . S
C3836 C3838 1.353 . S
C3836 H3842 0.930 . S
N3837 Li3787 1.990 . S
N3837 C3836 1.314 . S
N3837 C3840 1.279 . S
C3838 C3836 1.353 . S
C3838 C3841 1.348 . S
C3838 H3870 0.929 . S
C3839 C3840 1.358 . S
C3839 C3841 1.356 . S
C3839 H3871 0.930 . S
C3840 N3837 1.279 . S
C3840 C3839 1.358 . S
C3840 H3843 0.930 . S
C3841 C3838 1.348 . S
C3841 C3839 1.356 . S
H3842 C3836 0.930 . S
H3843 C3840 0.930 . S
O3844 Li3784 1.956 . S
O3844 Li3785 1.970 . S
O3844 Li3786 1.961 . S
O3844 C3788 1.325 . S
O3845 Li3784 1.970 . S
O3845 Li3785 1.956 . S
O3845 Li3787 1.961 . S
O3845 C3794 1.325 . S
O3846 Li3784 1.961 . S
O3846 Li3786 1.956 . S
O3846 Li3787 1.970 . S
O3846 C3816 1.325 . S
O3847 Li3785 1.961 . S
O3847 Li3786 1.970 . S
O3847 Li3787 1.956 . S
O3847 C3822 1.325 . S
H3848 C3790 0.929 . S
H3849 C3791 0.930 . S
H3850 C3792 0.930 . S
H3851 C3793 0.930 . S
H3852 C3795 0.930 . S
H3853 C3797 0.929 . S
H3854 C3798 0.930 . S
H3855 C3799 0.930 . S
H3856 C3802 0.930 . S
H3857 C3805 0.929 . S
H3858 C3810 0.929 . S
H3859 C3811 0.930 . S
H3860 C3818 0.929 . S
H3861 C3819 0.930 . S
H3862 C3820 0.930 . S
H3863 C3821 0.930 . S
H3864 C3823 0.929 . S
H3865 C3824 0.930 . S
H3866 C3825 0.930 . S
H3867 C3826 0.930 . S
H3868 C3830 0.929 . S
H3869 C3832 0.930 . S
H3870 C3838 0.929 . S
H3871 C3839 0.930 . S
Li3872 N3889 1.990 . S
Li3872 O3932 1.956 . S
Li3872 O3933 1.970 . S
Li3872 O3934 1.961 . S
Li3873 N3897 1.990 . S
Li3873 O3932 1.970 . S
Li3873 O3933 1.956 . S
Li3873 O3935 1.961 . S
Li3874 N3919 1.990 . S
Li3874 O3932 1.961 . S
Li3874 O3934 1.956 . S
Li3874 O3935 1.970 . S
Li3875 N3925 1.990 . S
Li3875 O3933 1.961 . S
Li3875 O3934 1.970 . S
Li3875 O3935 1.956 . S
C3876 C3878 1.348 . S
C3876 C3879 1.356 . S
C3876 O3932 1.325 . S
N3877 C3880 1.314 . S
N3877 C3881 1.279 . S
C3878 C3876 1.348 . S
C3878 C3880 1.353 . S
C3878 H3936 0.929 . S
C3879 C3876 1.356 . S
C3879 C3881 1.358 . S
C3879 H3937 0.930 . S
C3880 N3877 1.314 . S
C3880 C3878 1.353 . S
C3880 H3938 0.930 . S
C3881 N3877 1.279 . S
C3881 C3879 1.358 . S
C3881 H3939 0.930 . S
C3882 C3885 1.348 . S
C3882 C3886 1.356 . S
C3882 O3933 1.325 . S
C3883 N3884 1.279 . S
C3883 C3886 1.358 . S
C3883 H3940 0.930 . S
N3884 C3883 1.279 . S
N3884 C3887 1.314 . S
C3885 C3882 1.348 . S
C3885 C3887 1.353 . S
C3885 H3941 0.929 . S
C3886 C3882 1.356 . S
C3886 C3883 1.358 . S
C3886 H3942 0.930 . S
C3887 N3884 1.314 . S
C3887 C3885 1.353 . S
C3887 H3943 0.930 . S
C3888 N3889 1.314 . S
C3888 C3893 1.353 . S
C3888 H3894 0.930 . S
N3889 Li3872 1.990 . S
N3889 C3888 1.314 . S
N3889 C3891 1.279 . S
C3890 C3891 1.358 . S
C3890 C3892 1.356 . S
C3890 H3944 0.930 . S
C3891 N3889 1.279 . S
C3891 C3890 1.358 . S
C3891 H3895 0.930 . S
C3892 C3890 1.356 . S
C3892 C3893 1.348 . S
C3893 C3888 1.353 . S
C3893 C3892 1.348 . S
C3893 H3945 0.929 . S
H3894 C3888 0.930 . S
H3895 C3891 0.930 . S
C3896 N3897 1.314 . S
C3896 C3898 1.353 . S
C3896 H3902 0.930 . S
N3897 Li3873 1.990 . S
N3897 C3896 1.314 . S
N3897 C3900 1.279 . S
C3898 C3896 1.353 . S
C3898 C3901 1.348 . S
C3898 H3946 0.929 . S
C3899 C3900 1.358 . S
C3899 C3901 1.356 . S
C3899 H3947 0.930 . S
C3900 N3897 1.279 . S
C3900 C3899 1.358 . S
C3900 H3903 0.930 . S
C3901 C3898 1.348 . S
C3901 C3899 1.356 . S
H3902 C3896 0.930 . S
H3903 C3900 0.930 . S
C3904 C3906 1.348 . S
C3904 C3907 1.356 . S
C3904 O3934 1.325 . S
N3905 C3908 1.314 . S
N3905 C3909 1.279 . S
C3906 C3904 1.348 . S
C3906 C3908 1.353 . S
C3906 H3948 0.929 . S
C3907 C3904 1.356 . S
C3907 C3909 1.358 . S
C3907 H3949 0.930 . S
C3908 N3905 1.314 . S
C3908 C3906 1.353 . S
C3908 H3950 0.930 . S
C3909 N3905 1.279 . S
C3909 C3907 1.358 . S
C3909 H3951 0.930 . S
C3910 C3911 1.348 . S
C3910 C3912 1.356 . S
C3910 O3935 1.325 . S
C3911 C3910 1.348 . S
C3911 C3913 1.353 . S
C3911 H3952 0.929 . S
C3912 C3910 1.356 . S
C3912 C3914 1.358 . S
C3912 H3953 0.930 . S
C3913 C3911 1.353 . S
C3913 N3915 1.314 . S
C3913 H3954 0.930 . S
C3914 C3912 1.358 . S
C3914 N3915 1.279 . S
C3914 H3955 0.930 . S
N3915 C3913 1.314 . S
N3915 C3914 1.279 . S
C3916 C3918 1.353 . S
C3916 N3919 1.314 . S
C3916 H3922 0.930 . S
C3917 N3919 1.279 . S
C3917 C3920 1.358 . S
C3917 H3923 0.930 . S
C3918 C3916 1.353 . S
C3918 C3921 1.348 . S
C3918 H3956 0.929 . S
N3919 Li3874 1.990 . S
N3919 C3916 1.314 . S
N3919 C3917 1.279 . S
C3920 C3917 1.358 . S
C3920 C3921 1.356 . S
C3920 H3957 0.930 . S
C3921 C3918 1.348 . S
C3921 C3920 1.356 . S
H3922 C3916 0.930 . S
H3923 C3917 0.930 . S
C3924 N3925 1.314 . S
C3924 C3926 1.353 . S
C3924 H3930 0.930 . S
N3925 Li3875 1.990 . S
N3925 C3924 1.314 . S
N3925 C3928 1.279 . S
C3926 C3924 1.353 . S
C3926 C3929 1.348 . S
C3926 H3958 0.929 . S
C3927 C3928 1.358 . S
C3927 C3929 1.356 . S
C3927 H3959 0.930 . S
C3928 N3925 1.279 . S
C3928 C3927 1.358 . S
C3928 H3931 0.930 . S
C3929 C3926 1.348 . S
C3929 C3927 1.356 . S
H3930 C3924 0.930 . S
H3931 C3928 0.930 . S
O3932 Li3872 1.956 . S
O3932 Li3873 1.970 . S
O3932 Li3874 1.961 . S
O3932 C3876 1.325 . S
O3933 Li3872 1.970 . S
O3933 Li3873 1.956 . S
O3933 Li3875 1.961 . S
O3933 C3882 1.325 . S
O3934 Li3872 1.961 . S
O3934 Li3874 1.956 . S
O3934 Li3875 1.970 . S
O3934 C3904 1.325 . S
O3935 Li3873 1.961 . S
O3935 Li3874 1.970 . S
O3935 Li3875 1.956 . S
O3935 C3910 1.325 . S
H3936 C3878 0.929 . S
H3937 C3879 0.930 . S
H3938 C3880 0.930 . S
H3939 C3881 0.930 . S
H3940 C3883 0.930 . S
H3941 C3885 0.929 . S
H3942 C3886 0.930 . S
H3943 C3887 0.930 . S
H3944 C3890 0.930 . S
H3945 C3893 0.929 . S
H3946 C3898 0.929 . S
H3947 C3899 0.930 . S
H3948 C3906 0.929 . S
H3949 C3907 0.930 . S
H3950 C3908 0.930 . S
H3951 C3909 0.930 . S
H3952 C3911 0.929 . S
H3953 C3912 0.930 . S
H3954 C3913 0.930 . S
H3955 C3914 0.930 . S
H3956 C3918 0.929 . S
H3957 C3920 0.930 . S
H3958 C3926 0.929 . S
H3959 C3927 0.930 . S
Li3960 N3977 1.990 . S
Li3960 O4020 1.956 . S
Li3960 O4021 1.970 . S
Li3960 O4022 1.961 . S
Li3961 N3985 1.990 . S
Li3961 O4020 1.970 . S
Li3961 O4021 1.956 . S
Li3961 O4023 1.961 . S
Li3962 N4007 1.990 . S
Li3962 O4020 1.961 . S
Li3962 O4022 1.956 . S
Li3962 O4023 1.970 . S
Li3963 N4013 1.990 . S
Li3963 O4021 1.961 . S
Li3963 O4022 1.970 . S
Li3963 O4023 1.956 . S
C3964 C3966 1.348 . S
C3964 C3967 1.356 . S
C3964 O4020 1.325 . S
N3965 C3968 1.314 . S
N3965 C3969 1.279 . S
C3966 C3964 1.348 . S
C3966 C3968 1.353 . S
C3966 H4024 0.929 . S
C3967 C3964 1.356 . S
C3967 C3969 1.358 . S
C3967 H4025 0.930 . S
C3968 N3965 1.314 . S
C3968 C3966 1.353 . S
C3968 H4026 0.930 . S
C3969 N3965 1.279 . S
C3969 C3967 1.358 . S
C3969 H4027 0.930 . S
C3970 C3973 1.348 . S
C3970 C3974 1.356 . S
C3970 O4021 1.325 . S
C3971 N3972 1.279 . S
C3971 C3974 1.358 . S
C3971 H4028 0.930 . S
N3972 C3971 1.279 . S
N3972 C3975 1.314 . S
C3973 C3970 1.348 . S
C3973 C3975 1.353 . S
C3973 H4029 0.929 . S
C3974 C3970 1.356 . S
C3974 C3971 1.358 . S
C3974 H4030 0.930 . S
C3975 N3972 1.314 . S
C3975 C3973 1.353 . S
C3975 H4031 0.930 . S
C3976 N3977 1.314 . S
C3976 C3981 1.353 . S
C3976 H3982 0.930 . S
N3977 Li3960 1.990 . S
N3977 C3976 1.314 . S
N3977 C3979 1.279 . S
C3978 C3979 1.358 . S
C3978 C3980 1.356 . S
C3978 H4032 0.930 . S
C3979 N3977 1.279 . S
C3979 C3978 1.358 . S
C3979 H3983 0.930 . S
C3980 C3978 1.356 . S
C3980 C3981 1.348 . S
C3981 C3976 1.353 . S
C3981 C3980 1.348 . S
C3981 H4033 0.929 . S
H3982 C3976 0.930 . S
H3983 C3979 0.930 . S
C3984 N3985 1.314 . S
C3984 C3986 1.353 . S
C3984 H3990 0.930 . S
N3985 Li3961 1.990 . S
N3985 C3984 1.314 . S
N3985 C3988 1.279 . S
C3986 C3984 1.353 . S
C3986 C3989 1.348 . S
C3986 H4034 0.929 . S
C3987 C3988 1.358 . S
C3987 C3989 1.356 . S
C3987 H4035 0.930 . S
C3988 N3985 1.279 . S
C3988 C3987 1.358 . S
C3988 H3991 0.930 . S
C3989 C3986 1.348 . S
C3989 C3987 1.356 . S
H3990 C3984 0.930 . S
H3991 C3988 0.930 . S
C3992 C3994 1.348 . S
C3992 C3995 1.356 . S
C3992 O4022 1.325 . S
N3993 C3996 1.314 . S
N3993 C3997 1.279 . S
C3994 C3992 1.348 . S
C3994 C3996 1.353 . S
C3994 H4036 0.929 . S
C3995 C3992 1.356 . S
C3995 C3997 1.358 . S
C3995 H4037 0.930 . S
C3996 N3993 1.314 . S
C3996 C3994 1.353 . S
C3996 H4038 0.930 . S
C3997 N3993 1.279 . S
C3997 C3995 1.358 . S
C3997 H4039 0.930 . S
C3998 C3999 1.348 . S
C3998 C4000 1.356 . S
C3998 O4023 1.325 . S
C3999 C3998 1.348 . S
C3999 C4001 1.353 . S
C3999 H4040 0.929 . S
C4000 C3998 1.356 . S
C4000 C4002 1.358 . S
C4000 H4041 0.930 . S
C4001 C3999 1.353 . S
C4001 N4003 1.314 . S
C4001 H4042 0.930 . S
C4002 C4000 1.358 . S
C4002 N4003 1.279 . S
C4002 H4043 0.930 . S
N4003 C4001 1.314 . S
N4003 C4002 1.279 . S
C4004 C4006 1.353 . S
C4004 N4007 1.314 . S
C4004 H4010 0.930 . S
C4005 N4007 1.279 . S
C4005 C4008 1.358 . S
C4005 H4011 0.930 . S
C4006 C4004 1.353 . S
C4006 C4009 1.348 . S
C4006 H4044 0.929 . S
N4007 Li3962 1.990 . S
N4007 C4004 1.314 . S
N4007 C4005 1.279 . S
C4008 C4005 1.358 . S
C4008 C4009 1.356 . S
C4008 H4045 0.930 . S
C4009 C4006 1.348 . S
C4009 C4008 1.356 . S
H4010 C4004 0.930 . S
H4011 C4005 0.930 . S
C4012 N4013 1.314 . S
C4012 C4014 1.353 . S
C4012 H4018 0.930 . S
N4013 Li3963 1.990 . S
N4013 C4012 1.314 . S
N4013 C4016 1.279 . S
C4014 C4012 1.353 . S
C4014 C4017 1.348 . S
C4014 H4046 0.929 . S
C4015 C4016 1.358 . S
C4015 C4017 1.356 . S
C4015 H4047 0.930 . S
C4016 N4013 1.279 . S
C4016 C4015 1.358 . S
C4016 H4019 0.930 . S
C4017 C4014 1.348 . S
C4017 C4015 1.356 . S
H4018 C4012 0.930 . S
H4019 C4016 0.930 . S
O4020 Li3960 1.956 . S
O4020 Li3961 1.970 . S
O4020 Li3962 1.961 . S
O4020 C3964 1.325 . S
O4021 Li3960 1.970 . S
O4021 Li3961 1.956 . S
O4021 Li3963 1.961 . S
O4021 C3970 1.325 . S
O4022 Li3960 1.961 . S
O4022 Li3962 1.956 . S
O4022 Li3963 1.970 . S
O4022 C3992 1.325 . S
O4023 Li3961 1.961 . S
O4023 Li3962 1.970 . S
O4023 Li3963 1.956 . S
O4023 C3998 1.325 . S
H4024 C3966 0.929 . S
H4025 C3967 0.930 . S
H4026 C3968 0.930 . S
H4027 C3969 0.930 . S
H4028 C3971 0.930 . S
H4029 C3973 0.929 . S
H4030 C3974 0.930 . S
H4031 C3975 0.930 . S
H4032 C3978 0.930 . S
H4033 C3981 0.929 . S
H4034 C3986 0.929 . S
H4035 C3987 0.930 . S
H4036 C3994 0.929 . S
H4037 C3995 0.930 . S
H4038 C3996 0.930 . S
H4039 C3997 0.930 . S
H4040 C3999 0.929 . S
H4041 C4000 0.930 . S
H4042 C4001 0.930 . S
H4043 C4002 0.930 . S
H4044 C4006 0.929 . S
H4045 C4008 0.930 . S
H4046 C4014 0.929 . S
H4047 C4015 0.930 . S
Li4048 N4065 1.990 . S
Li4048 O4108 1.956 . S
Li4048 O4109 1.970 . S
Li4048 O4110 1.961 . S
Li4049 N4073 1.990 . S
Li4049 O4108 1.970 . S
Li4049 O4109 1.956 . S
Li4049 O4111 1.961 . S
Li4050 N4095 1.990 . S
Li4050 O4108 1.961 . S
Li4050 O4110 1.956 . S
Li4050 O4111 1.970 . S
Li4051 N4101 1.990 . S
Li4051 O4109 1.961 . S
Li4051 O4110 1.970 . S
Li4051 O4111 1.956 . S
C4052 C4054 1.348 . S
C4052 C4055 1.356 . S
C4052 O4108 1.325 . S
N4053 C4056 1.314 . S
N4053 C4057 1.279 . S
C4054 C4052 1.348 . S
C4054 C4056 1.353 . S
C4054 H4112 0.929 . S
C4055 C4052 1.356 . S
C4055 C4057 1.358 . S
C4055 H4113 0.930 . S
C4056 N4053 1.314 . S
C4056 C4054 1.353 . S
C4056 H4114 0.930 . S
C4057 N4053 1.279 . S
C4057 C4055 1.358 . S
C4057 H4115 0.930 . S
C4058 C4061 1.348 . S
C4058 C4062 1.356 . S
C4058 O4109 1.325 . S
C4059 N4060 1.279 . S
C4059 C4062 1.358 . S
C4059 H4116 0.930 . S
N4060 C4059 1.279 . S
N4060 C4063 1.314 . S
C4061 C4058 1.348 . S
C4061 C4063 1.353 . S
C4061 H4117 0.929 . S
C4062 C4058 1.356 . S
C4062 C4059 1.358 . S
C4062 H4118 0.930 . S
C4063 N4060 1.314 . S
C4063 C4061 1.353 . S
C4063 H4119 0.930 . S
C4064 N4065 1.314 . S
C4064 C4069 1.353 . S
C4064 H4070 0.930 . S
N4065 Li4048 1.990 . S
N4065 C4064 1.314 . S
N4065 C4067 1.279 . S
C4066 C4067 1.358 . S
C4066 C4068 1.356 . S
C4066 H4120 0.930 . S
C4067 N4065 1.279 . S
C4067 C4066 1.358 . S
C4067 H4071 0.930 . S
C4068 C4066 1.356 . S
C4068 C4069 1.348 . S
C4069 C4064 1.353 . S
C4069 C4068 1.348 . S
C4069 H4121 0.929 . S
H4070 C4064 0.930 . S
H4071 C4067 0.930 . S
C4072 N4073 1.314 . S
C4072 C4074 1.353 . S
C4072 H4078 0.930 . S
N4073 Li4049 1.990 . S
N4073 C4072 1.314 . S
N4073 C4076 1.279 . S
C4074 C4072 1.353 . S
C4074 C4077 1.348 . S
C4074 H4122 0.929 . S
C4075 C4076 1.358 . S
C4075 C4077 1.356 . S
C4075 H4123 0.930 . S
C4076 N4073 1.279 . S
C4076 C4075 1.358 . S
C4076 H4079 0.930 . S
C4077 C4074 1.348 . S
C4077 C4075 1.356 . S
H4078 C4072 0.930 . S
H4079 C4076 0.930 . S
C4080 C4082 1.348 . S
C4080 C4083 1.356 . S
C4080 O4110 1.325 . S
N4081 C4084 1.314 . S
N4081 C4085 1.279 . S
C4082 C4080 1.348 . S
C4082 C4084 1.353 . S
C4082 H4124 0.929 . S
C4083 C4080 1.356 . S
C4083 C4085 1.358 . S
C4083 H4125 0.930 . S
C4084 N4081 1.314 . S
C4084 C4082 1.353 . S
C4084 H4126 0.930 . S
C4085 N4081 1.279 . S
C4085 C4083 1.358 . S
C4085 H4127 0.930 . S
C4086 C4087 1.348 . S
C4086 C4088 1.356 . S
C4086 O4111 1.325 . S
C4087 C4086 1.348 . S
C4087 C4089 1.353 . S
C4087 H4128 0.929 . S
C4088 C4086 1.356 . S
C4088 C4090 1.358 . S
C4088 H4129 0.930 . S
C4089 C4087 1.353 . S
C4089 N4091 1.314 . S
C4089 H4130 0.930 . S
C4090 C4088 1.358 . S
C4090 N4091 1.279 . S
C4090 H4131 0.930 . S
N4091 C4089 1.314 . S
N4091 C4090 1.279 . S
C4092 C4094 1.353 . S
C4092 N4095 1.314 . S
C4092 H4098 0.930 . S
C4093 N4095 1.279 . S
C4093 C4096 1.358 . S
C4093 H4099 0.930 . S
C4094 C4092 1.353 . S
C4094 C4097 1.348 . S
C4094 H4132 0.929 . S
N4095 Li4050 1.990 . S
N4095 C4092 1.314 . S
N4095 C4093 1.279 . S
C4096 C4093 1.358 . S
C4096 C4097 1.356 . S
C4096 H4133 0.930 . S
C4097 C4094 1.348 . S
C4097 C4096 1.356 . S
H4098 C4092 0.930 . S
H4099 C4093 0.930 . S
C4100 N4101 1.314 . S
C4100 C4102 1.353 . S
C4100 H4106 0.930 . S
N4101 Li4051 1.990 . S
N4101 C4100 1.314 . S
N4101 C4104 1.279 . S
C4102 C4100 1.353 . S
C4102 C4105 1.348 . S
C4102 H4134 0.929 . S
C4103 C4104 1.358 . S
C4103 C4105 1.356 . S
C4103 H4135 0.930 . S
C4104 N4101 1.279 . S
C4104 C4103 1.358 . S
C4104 H4107 0.930 . S
C4105 C4102 1.348 . S
C4105 C4103 1.356 . S
H4106 C4100 0.930 . S
H4107 C4104 0.930 . S
O4108 Li4048 1.956 . S
O4108 Li4049 1.970 . S
O4108 Li4050 1.961 . S
O4108 C4052 1.325 . S
O4109 Li4048 1.970 . S
O4109 Li4049 1.956 . S
O4109 Li4051 1.961 . S
O4109 C4058 1.325 . S
O4110 Li4048 1.961 . S
O4110 Li4050 1.956 . S
O4110 Li4051 1.970 . S
O4110 C4080 1.325 . S
O4111 Li4049 1.961 . S
O4111 Li4050 1.970 . S
O4111 Li4051 1.956 . S
O4111 C4086 1.325 . S
H4112 C4054 0.929 . S
H4113 C4055 0.930 . S
H4114 C4056 0.930 . S
H4115 C4057 0.930 . S
H4116 C4059 0.930 . S
H4117 C4061 0.929 . S
H4118 C4062 0.930 . S
H4119 C4063 0.930 . S
H4120 C4066 0.930 . S
H4121 C4069 0.929 . S
H4122 C4074 0.929 . S
H4123 C4075 0.930 . S
H4124 C4082 0.929 . S
H4125 C4083 0.930 . S
H4126 C4084 0.930 . S
H4127 C4085 0.930 . S
H4128 C4087 0.929 . S
H4129 C4088 0.930 . S
H4130 C4089 0.930 . S
H4131 C4090 0.930 . S
H4132 C4094 0.929 . S
H4133 C4096 0.930 . S
H4134 C4102 0.929 . S
H4135 C4103 0.930 . S
Li4136 N4153 1.990 . S
Li4136 O4196 1.956 . S
Li4136 O4197 1.970 . S
Li4136 O4198 1.961 . S
Li4137 N4161 1.990 . S
Li4137 O4196 1.970 . S
Li4137 O4197 1.956 . S
Li4137 O4199 1.961 . S
Li4138 N4183 1.990 . S
Li4138 O4196 1.961 . S
Li4138 O4198 1.956 . S
Li4138 O4199 1.970 . S
Li4139 N4189 1.990 . S
Li4139 O4197 1.961 . S
Li4139 O4198 1.970 . S
Li4139 O4199 1.956 . S
C4140 C4142 1.348 . S
C4140 C4143 1.356 . S
C4140 O4196 1.325 . S
N4141 C4144 1.314 . S
N4141 C4145 1.279 . S
C4142 C4140 1.348 . S
C4142 C4144 1.353 . S
C4142 H4200 0.929 . S
C4143 C4140 1.356 . S
C4143 C4145 1.358 . S
C4143 H4201 0.930 . S
C4144 N4141 1.314 . S
C4144 C4142 1.353 . S
C4144 H4202 0.930 . S
C4145 N4141 1.279 . S
C4145 C4143 1.358 . S
C4145 H4203 0.930 . S
C4146 C4149 1.348 . S
C4146 C4150 1.356 . S
C4146 O4197 1.325 . S
C4147 N4148 1.279 . S
C4147 C4150 1.358 . S
C4147 H4204 0.930 . S
N4148 C4147 1.279 . S
N4148 C4151 1.314 . S
C4149 C4146 1.348 . S
C4149 C4151 1.353 . S
C4149 H4205 0.929 . S
C4150 C4146 1.356 . S
C4150 C4147 1.358 . S
C4150 H4206 0.930 . S
C4151 N4148 1.314 . S
C4151 C4149 1.353 . S
C4151 H4207 0.930 . S
C4152 N4153 1.314 . S
C4152 C4157 1.353 . S
C4152 H4158 0.930 . S
N4153 Li4136 1.990 . S
N4153 C4152 1.314 . S
N4153 C4155 1.279 . S
C4154 C4155 1.358 . S
C4154 C4156 1.356 . S
C4154 H4208 0.930 . S
C4155 N4153 1.279 . S
C4155 C4154 1.358 . S
C4155 H4159 0.930 . S
C4156 C4154 1.356 . S
C4156 C4157 1.348 . S
C4157 C4152 1.353 . S
C4157 C4156 1.348 . S
C4157 H4209 0.929 . S
H4158 C4152 0.930 . S
H4159 C4155 0.930 . S
C4160 N4161 1.314 . S
C4160 C4162 1.353 . S
C4160 H4166 0.930 . S
N4161 Li4137 1.990 . S
N4161 C4160 1.314 . S
N4161 C4164 1.279 . S
C4162 C4160 1.353 . S
C4162 C4165 1.348 . S
C4162 H4210 0.929 . S
C4163 C4164 1.358 . S
C4163 C4165 1.356 . S
C4163 H4211 0.930 . S
C4164 N4161 1.279 . S
C4164 C4163 1.358 . S
C4164 H4167 0.930 . S
C4165 C4162 1.348 . S
C4165 C4163 1.356 . S
H4166 C4160 0.930 . S
H4167 C4164 0.930 . S
C4168 C4170 1.348 . S
C4168 C4171 1.356 . S
C4168 O4198 1.325 . S
N4169 C4172 1.314 . S
N4169 C4173 1.279 . S
C4170 C4168 1.348 . S
C4170 C4172 1.353 . S
C4170 H4212 0.929 . S
C4171 C4168 1.356 . S
C4171 C4173 1.358 . S
C4171 H4213 0.930 . S
C4172 N4169 1.314 . S
C4172 C4170 1.353 . S
C4172 H4214 0.930 . S
C4173 N4169 1.279 . S
C4173 C4171 1.358 . S
C4173 H4215 0.930 . S
C4174 C4175 1.348 . S
C4174 C4176 1.356 . S
C4174 O4199 1.325 . S
C4175 C4174 1.348 . S
C4175 C4177 1.353 . S
C4175 H4216 0.929 . S
C4176 C4174 1.356 . S
C4176 C4178 1.358 . S
C4176 H4217 0.930 . S
C4177 C4175 1.353 . S
C4177 N4179 1.314 . S
C4177 H4218 0.930 . S
C4178 C4176 1.358 . S
C4178 N4179 1.279 . S
C4178 H4219 0.930 . S
N4179 C4177 1.314 . S
N4179 C4178 1.279 . S
C4180 C4182 1.353 . S
C4180 N4183 1.314 . S
C4180 H4186 0.930 . S
C4181 N4183 1.279 . S
C4181 C4184 1.358 . S
C4181 H4187 0.930 . S
C4182 C4180 1.353 . S
C4182 C4185 1.348 . S
C4182 H4220 0.929 . S
N4183 Li4138 1.990 . S
N4183 C4180 1.314 . S
N4183 C4181 1.279 . S
C4184 C4181 1.358 . S
C4184 C4185 1.356 . S
C4184 H4221 0.930 . S
C4185 C4182 1.348 . S
C4185 C4184 1.356 . S
H4186 C4180 0.930 . S
H4187 C4181 0.930 . S
C4188 N4189 1.314 . S
C4188 C4190 1.353 . S
C4188 H4194 0.930 . S
N4189 Li4139 1.990 . S
N4189 C4188 1.314 . S
N4189 C4192 1.279 . S
C4190 C4188 1.353 . S
C4190 C4193 1.348 . S
C4190 H4222 0.929 . S
C4191 C4192 1.358 . S
C4191 C4193 1.356 . S
C4191 H4223 0.930 . S
C4192 N4189 1.279 . S
C4192 C4191 1.358 . S
C4192 H4195 0.930 . S
C4193 C4190 1.348 . S
C4193 C4191 1.356 . S
H4194 C4188 0.930 . S
H4195 C4192 0.930 . S
O4196 Li4136 1.956 . S
O4196 Li4137 1.970 . S
O4196 Li4138 1.961 . S
O4196 C4140 1.325 . S
O4197 Li4136 1.970 . S
O4197 Li4137 1.956 . S
O4197 Li4139 1.961 . S
O4197 C4146 1.325 . S
O4198 Li4136 1.961 . S
O4198 Li4138 1.956 . S
O4198 Li4139 1.970 . S
O4198 C4168 1.325 . S
O4199 Li4137 1.961 . S
O4199 Li4138 1.970 . S
O4199 Li4139 1.956 . S
O4199 C4174 1.325 . S
H4200 C4142 0.929 . S
H4201 C4143 0.930 . S
H4202 C4144 0.930 . S
H4203 C4145 0.930 . S
H4204 C4147 0.930 . S
H4205 C4149 0.929 . S
H4206 C4150 0.930 . S
H4207 C4151 0.930 . S
H4208 C4154 0.930 . S
H4209 C4157 0.929 . S
H4210 C4162 0.929 . S
H4211 C4163 0.930 . S
H4212 C4170 0.929 . S
H4213 C4171 0.930 . S
H4214 C4172 0.930 . S
H4215 C4173 0.930 . S
H4216 C4175 0.929 . S
H4217 C4176 0.930 . S
H4218 C4177 0.930 . S
H4219 C4178 0.930 . S
H4220 C4182 0.929 . S
H4221 C4184 0.930 . S
H4222 C4190 0.929 . S
H4223 C4191 0.930 . S
C3489 C49 0.992 . S
C145 C3197 0.992 . S
C225 C3285 0.992 . S
C3401 C313 0.992 . S
C2924 C381 0.992 . S
C469 C3012 0.992 . S
C548 C3129 0.992 . S
C645 C2865 0.992 . S
C761 C2777 0.992 . S
C2521 C841 0.992 . S
C2609 C909 0.992 . S
C997 C2697 0.992 . S
C1085 C2220 0.992 . S
C1193 C2317 0.992 . S
C2405 C1289 0.992 . S
C2132 C1340 0.992 . S
C1465 C3892 0.992 . S
C4193 C1516 0.992 . S
C4009 C1604 0.992 . S
C4097 C1701 0.992 . S
C3577 C1789 0.992 . S
C3725 C1905 0.992 . S
C1993 C3804 0.992 . S
C3637 C2073 0.992 . S
C2873 C1809 0.992 . S
C1553 C2933 0.992 . S
C3021 C1641 0.992 . S
C3137 C1721 0.992 . S
C2053 C3188 0.992 . S
C3276 C1868 0.992 . S
C1956 C3393 0.992 . S
C1428 C3481 0.992 . S
C3569 C1377 0.992 . S
C1105 C4185 0.992 . S
C4017 C1173 0.992 . S
C1252 C4105 0.992 . S
C821 C3628 0.992 . S
C929 C3716 0.992 . S
C1017 C3813 0.992 . S
C3901 C724 0.992 . S
C2141 C665 0.992 . S
C2513 C108 0.992 . S
C2601 C205 0.992 . S
C2689 C293 0.992 . S
C2785 C29 0.992 . S
C489 C2308 0.992 . S
C2396 C585 0.992 . S
C2229 C401 0.992 . S
C20 C2345 1.327 . S
C2433 C117 1.327 . S
C196 C2161 1.327 . S
C284 C2249 1.327 . S
C409 C2669 1.327 . S
C2748 C497 1.327 . S
C577 C2493 1.327 . S
C2581 C673 1.327 . S
C733 C3225 1.327 . S
C3313 C812 1.327 . S
C937 C3373 1.327 . S
C1025 C3461 1.327 . S
C1113 C2836 1.327 . S
C1164 C2953 1.327 . S
C3041 C1261 1.327 . S
C1369 C3100 1.327 . S
C3833 C1437 1.327 . S
C1545 C3980 1.327 . S
C1633 C4068 1.327 . S
C3549 C1729 1.327 . S
C4165 C1817 1.327 . S
C1877 C3665 1.327 . S
C3753 C1965 1.327 . S
C2044 C3921 1.327 . S
C3745 C1780 1.327 1_554 S
C1525 C3841 1.327 1_556 S
C3929 C1613 1.327 1_554 S
C3657 C1692 1.327 1_554 S
C4077 C2081 1.327 1_556 S
C1897 C3540 1.327 1_554 S
C4156 C1985 1.327 1_556 S
C1457 C3989 1.327 1_554 S
C2961 C1349 1.327 1_455 S
C1076 C3049 1.327 1_565 S
C1201 C3109 1.327 1_455 S
C2845 C1281 1.327 1_565 S
C849 C3452 1.327 1_655 S
C3217 C900 1.327 1_545 S
C988 C3305 1.327 1_455 S
C753 C3364 1.327 1_545 S
C2425 C636 1.327 1_545 S
C137 C2572 1.327 1_545 S
C233 C2660 1.327 1_655 S
C2757 C321 1.327 1_545 S
C57 C2484 1.327 1_455 S
C460 C2257 1.327 1_545 S
C557 C2337 1.327 1_655 S
C372 C2169 1.327 1_455 S
