# Generated by pormake.
# Topology zfk, (5)-cn, num edge types: 1
# Building blocks:
#     Node 0, Type 0, BuildingBlock: XOMCOT_clean_sbu_1, # of connection points: 5
#     Node 1, Type 0, BuildingBlock: XOMCOT_clean_sbu_1, # of connection points: 5
#     Node 2, Type 0, BuildingBlock: XOMCOT_clean_sbu_1, # of connection points: 5
#     Node 3, Type 0, BuildingBlock: XOMCOT_clean_sbu_1, # of connection points: 5
#     Node 4, Type 0, BuildingBlock: XOMCOT_clean_sbu_1, # of connection points: 5
#     Node 5, Type 0, BuildingBlock: XOMCOT_clean_sbu_1, # of connection points: 5
#     Node 6, Type 0, BuildingBlock: XOMCOT_clean_sbu_1, # of connection points: 5
#     Node 7, Type 0, BuildingBlock: XOMCOT_clean_sbu_1, # of connection points: 5
#     Node 8, Type 0, BuildingBlock: XOMCOT_clean_sbu_1, # of connection points: 5
#     Node 9, Type 0, BuildingBlock: XOMCOT_clean_sbu_1, # of connection points: 5
#     Node 10, Type 0, BuildingBlock: XOMCOT_clean_sbu_1, # of connection points: 5
#     Node 11, Type 0, BuildingBlock: XOMCOT_clean_sbu_1, # of connection points: 5
#     Node 12, Type 0, BuildingBlock: XOMCOT_clean_sbu_1, # of connection points: 5
#     Node 13, Type 0, BuildingBlock: XOMCOT_clean_sbu_1, # of connection points: 5
#     Node 14, Type 0, BuildingBlock: XOMCOT_clean_sbu_1, # of connection points: 5
#     Node 15, Type 0, BuildingBlock: XOMCOT_clean_sbu_1, # of connection points: 5
#     Edge 16, Type (0, 0), None
#     Edge 17, Type (0, 0), None
#     Edge 18, Type (0, 0), None
#     Edge 19, Type (0, 0), None
#     Edge 20, Type (0, 0), None
#     Edge 21, Type (0, 0), None
#     Edge 22, Type (0, 0), None
#     Edge 23, Type (0, 0), None
#     Edge 24, Type (0, 0), None
#     Edge 25, Type (0, 0), None
#     Edge 26, Type (0, 0), None
#     Edge 27, Type (0, 0), None
#     Edge 28, Type (0, 0), None
#     Edge 29, Type (0, 0), None
#     Edge 30, Type (0, 0), None
#     Edge 31, Type (0, 0), None
#     Edge 32, Type (0, 0), None
#     Edge 33, Type (0, 0), None
#     Edge 34, Type (0, 0), None
#     Edge 35, Type (0, 0), None
#     Edge 36, Type (0, 0), None
#     Edge 37, Type (0, 0), None
#     Edge 38, Type (0, 0), None
#     Edge 39, Type (0, 0), None
#     Edge 40, Type (0, 0), None
#     Edge 41, Type (0, 0), None
#     Edge 42, Type (0, 0), None
#     Edge 43, Type (0, 0), None
#     Edge 44, Type (0, 0), None
#     Edge 45, Type (0, 0), None
#     Edge 46, Type (0, 0), None
#     Edge 47, Type (0, 0), None
#     Edge 48, Type (0, 0), None
#     Edge 49, Type (0, 0), None
#     Edge 50, Type (0, 0), None
#     Edge 51, Type (0, 0), None
#     Edge 52, Type (0, 0), None
#     Edge 53, Type (0, 0), None
#     Edge 54, Type (0, 0), None
#     Edge 55, Type (0, 0), None
# Relax obj value: 0.344
# Max RMSD: 0.186
# Mean RMSD: 0.186
data_MOF--net-zfk--node1-XOMCOT_clean_sbu_1--edge1-none
_symmetry_space_group_name_H-M    P1
_symmetry_Int_Tables_number       1
_symmetry_cell_setting            triclinic
loop_
_symmetry_equiv_pos_as_xyz
'x, y, z'
_cell_length_a     15.25727
_cell_length_b     15.257201
_cell_length_c     33.189512
_cell_angle_alpha  89.998521
_cell_angle_beta   90.006397
_cell_angle_gamma 89.996754
loop_
_atom_site_label
_atom_site_type_symbol
_atom_site_fract_x
_atom_site_fract_y
_atom_site_fract_z
_atom_type_partial_charge
C0 C 0.8989 0.39113 0.11745 0.0
C1 C 0.87088 0.35293 0.08211 0.0
N2 N 0.83801 0.27314 0.09066 0.0
N3 N 0.88432 0.33597 0.14867 0.0
C4 C 0.84297 0.26656 0.13134 0.0
H5 H 0.93785 0.45017 0.11894 0.0
Co6 Co 0.94349 0.3375 0.20014 0.0
C7 C 0.9228 0.11764 0.21163 0.0
O8 O 0.97216 0.08533 0.24064 0.0
N9 N -0.00377 0.33726 0.25219 0.0
C10 C -0.00513 0.31013 0.31853 0.0
C11 C 0.95659 0.29159 0.28204 0.0
C12 C 0.05872 0.38431 0.27179 0.0
N13 N 0.05879 0.36879 0.31204 0.0
O14 O 0.96781 0.47679 0.19428 0.0
H15 H 0.89906 0.25116 0.27805 0.0
H16 H 0.09915 0.43342 0.25775 0.0
O17 O 0.92799 0.20218 0.20655 0.0
C18 C 0.98138 0.54383 0.21957 0.0
O19 O 0.96841 0.4797 0.19305 0.0
N20 N 0.04758 0.31251 0.17264 0.0
C21 C 0.19688 0.26201 0.13275 0.0
C22 C 0.11953 0.21763 0.12559 0.0
C23 C 0.04639 0.24238 0.14672 0.0
C24 C 0.11985 0.36465 0.17461 0.0
C25 C 0.19569 0.34071 0.15465 0.0
H26 H -0.0096 0.20102 0.14292 0.0
H27 H 0.1215 0.42276 0.19282 0.0
H28 H 0.82853 0.20659 0.1473 0.0
H29 H 0.88512 0.37714 1.05217 0.0
H30 H 0.97393 0.28603 0.34763 0.0
H31 H 0.11849 0.15717 0.10839 0.0
H32 H 0.25496 0.37767 0.16058 0.0
C33 C 0.08326 0.89887 0.61747 0.0
C34 C 0.12145 0.87084 0.58213 0.0
N35 N 0.20126 0.83798 0.59068 0.0
N36 N 0.13843 0.88432 0.64869 0.0
C37 C 0.20785 0.84296 0.63136 0.0
H38 H 0.02422 0.93781 0.61896 0.0
Co39 Co 0.13689 0.94351 0.70015 0.0
C40 C 0.35677 0.92279 0.71164 0.0
O41 O 0.38914 0.97205 0.74066 0.0
N42 N 0.13709 -0.00372 0.7522 0.0
C43 C 0.16413 -0.0051 0.81854 0.0
C44 C 0.18275 0.95666 0.78206 0.0
C45 C 0.08997 0.05873 0.77179 0.0
N46 N 0.10542 0.05879 0.81204 0.0
O47 O -0.00241 0.96783 0.69427 0.0
H48 H 0.22323 0.89916 0.77808 0.0
H49 H 0.04084 0.09914 0.75773 0.0
O50 O 0.27222 0.92806 0.70658 0.0
C51 C 0.9305 0.98134 0.71954 0.0
O52 O -0.00532 0.96844 0.69304 0.0
N53 N 0.16187 0.04759 0.67263 0.0
C54 C 0.21244 0.19686 0.63274 0.0
C55 C 0.25679 0.11949 0.62559 0.0
C56 C 0.232 0.04637 0.64672 0.0
C57 C 0.10975 0.11988 0.67459 0.0
C58 C 0.13373 0.19571 0.65464 0.0
H59 H 0.27334 -0.00963 0.64293 0.0
H60 H 0.05164 0.12155 0.6928 0.0
H61 H 0.26782 0.82854 0.64733 0.0
H62 H 0.09723 0.88505 0.55219 0.0
H63 H 0.18822 0.97399 0.84765 0.0
H64 H 0.31724 0.11843 0.60839 0.0
H65 H 0.09679 0.25501 0.66056 0.0
C66 C 0.57555 0.0831 0.1175 0.0
C67 C 0.60362 0.12123 0.08216 0.0
N68 N 0.63643 0.20106 0.09068 0.0
N69 N 0.59002 0.13833 0.14871 0.0
C70 C 0.63136 0.20774 0.13136 0.0
H71 H 0.53664 0.02404 0.11899 0.0
Co72 Co 0.5308 0.13675 0.20015 0.0
C73 C 0.55154 0.35662 0.21152 0.0
O74 O 0.50293 0.38928 0.24071 0.0
N75 N 0.47803 0.13692 0.25219 0.0
C76 C 0.47959 0.16389 0.31854 0.0
C77 C 0.51783 0.18243 0.28205 0.0
C78 C 0.41542 0.09003 0.27179 0.0
N79 N 0.4155 0.10541 0.31204 0.0
O80 O 0.50678 -0.00257 0.19429 0.0
H81 H 0.57544 0.22274 0.27805 0.0
H82 H 0.37477 0.04112 0.25773 0.0
O83 O 0.54593 0.27208 0.20658 0.0
C84 C 0.49238 0.93068 0.21965 0.0
O85 O 0.50622 -0.00552 0.19305 0.0
N86 N 0.42671 0.16154 0.1726 0.0
C87 C 0.27741 0.21192 0.1327 0.0
C88 C 0.3547 0.25641 0.12557 0.0
C89 C 0.42786 0.23168 0.14668 0.0
C90 C 0.3545 0.1093 0.17454 0.0
C91 C 0.27865 0.13318 0.15457 0.0
H92 H 0.48381 0.27308 0.14289 0.0
H93 H 0.35293 0.05117 0.19274 0.0
H94 H 0.64572 0.26774 0.14731 0.0
H95 H 0.58946 0.09695 1.05222 0.0
H96 H 0.50064 0.18788 0.34765 0.0
H97 H 0.35567 0.31691 0.1084 0.0
H98 H 0.2194 0.09617 0.16048 0.0
C99 C 0.39113 0.57563 0.61751 0.0
C100 C 0.35297 0.6037 0.58216 0.0
N101 N 0.27312 0.63645 0.59069 0.0
N102 N 0.33589 0.59005 0.64871 0.0
C103 C 0.26646 0.63136 0.63137 0.0
H104 H 0.45021 0.53674 0.61899 0.0
Co105 Co 0.33753 0.53073 0.70014 0.0
C106 C 0.11766 0.55158 0.71137 0.0
O107 O 0.08467 0.50371 0.74074 0.0
N108 N 0.33738 0.47788 0.75216 0.0
C109 C 0.31032 0.47945 0.8185 0.0
C110 C 0.29193 0.51777 0.78201 0.0
C111 C 0.3841 0.41514 0.77177 0.0
N112 N 0.36867 0.41522 0.81202 0.0
O113 O 0.47687 0.50695 0.6943 0.0
H114 H 0.25173 0.57546 0.778 0.0
H115 H 0.43289 0.37435 0.75771 0.0
O116 O 0.20219 0.54555 0.70656 0.0
C117 C 0.54335 0.49197 0.71973 0.0
O118 O 0.47984 0.50642 0.69305 0.0
N119 N 0.31291 0.42667 0.67255 0.0
C120 C 0.26255 0.27736 0.63266 0.0
C121 C 0.21807 0.35465 0.62551 0.0
C122 C 0.24279 0.42781 0.64662 0.0
C123 C 0.36519 0.35448 0.67448 0.0
C124 C 0.3413 0.27861 0.65453 0.0
H125 H 0.20135 0.48374 0.64282 0.0
H126 H 0.42333 0.35294 0.69268 0.0
H127 H 0.20645 0.64566 0.64732 0.0
H128 H 0.37726 0.58956 0.55222 0.0
H129 H 0.28639 0.50059 0.8476 0.0
H130 H 0.15757 0.35561 0.60834 0.0
H131 H 0.37832 0.21936 0.66045 0.0
C132 C 0.89899 0.0833 1.03661 0.0
C133 C 0.87105 0.12154 1.07197 0.0
N134 N 0.83824 0.20133 1.06338 0.0
N135 N 0.88434 0.13842 1.00538 0.0
C136 C 0.84301 0.20786 1.0227 0.0
H137 H 0.9379 0.02424 1.03512 0.0
Co138 Co 0.94345 0.13687 0.9539 0.0
C139 C 0.92279 0.35673 0.94232 0.0
O140 O 0.97249 0.38888 0.9134 0.0
N141 N -0.00386 0.13706 0.90184 0.0
C142 C -0.00537 0.16403 0.83549 0.0
C143 C 0.95642 0.18263 0.87198 0.0
C144 C 0.05864 0.09001 0.88225 0.0
N145 N 0.05856 0.10536 0.84199 0.0
O146 O 0.96788 -0.00242 0.95979 0.0
H147 H 0.89889 0.22307 0.87597 0.0
H148 H 0.0992 0.04102 0.89632 0.0
O149 O 0.92781 0.27218 0.94746 0.0
C150 C 0.9815 0.93053 0.93451 0.0
O151 O 0.96849 -0.00533 0.96102 0.0
N152 N 0.04755 0.16197 0.98138 0.0
C153 C 0.1968 0.21258 1.02129 0.0
C154 C 0.11944 0.25695 1.02841 0.0
C155 C 0.04632 0.23213 1.00728 0.0
C156 C 0.11985 0.10985 0.97944 0.0
C157 C 0.19567 0.13385 0.9994 0.0
H158 H -0.00968 0.27348 1.01106 0.0
H159 H 0.12153 0.05171 0.96125 0.0
H160 H 0.82847 0.26779 1.00673 0.0
H161 H 0.88526 0.09734 0.10191 0.0
H162 H 0.97372 0.18813 0.80638 0.0
H163 H 0.11836 0.31741 1.04561 0.0
H164 H 0.25496 0.0969 0.9935 0.0
C165 C 0.39108 0.89893 0.53663 0.0
C166 C 0.35286 0.871 0.57198 0.0
N167 N 0.27305 0.83821 0.56341 0.0
N168 N 0.33595 0.8843 0.5054 0.0
C169 C 0.26651 0.84298 0.52273 0.0
H170 H 0.45014 0.93784 0.53514 0.0
Co171 Co 0.3375 0.94342 0.45392 0.0
C172 C 0.11765 0.92276 0.44237 0.0
O173 O 0.08542 0.97228 0.4134 0.0
N174 N 0.33729 -0.00388 0.40186 0.0
C175 C 0.31026 -0.00535 0.33551 0.0
C176 C 0.2917 0.95641 0.372 0.0
C177 C 0.3843 0.05865 0.38226 0.0
N178 N 0.36891 0.05858 0.34201 0.0
O179 O 0.47678 0.96775 0.4598 0.0
H180 H 0.25128 0.89888 0.376 0.0
H181 H 0.43328 0.09922 0.39632 0.0
O182 O 0.20219 0.92786 0.44748 0.0
C183 C 0.54375 0.98152 0.43449 0.0
O184 O 0.47971 0.96835 0.46104 0.0
N185 N 0.31246 0.04752 0.4814 0.0
C186 C 0.2619 0.19681 0.52129 0.0
C187 C 0.21752 0.11946 0.52842 0.0
C188 C 0.2423 0.04633 0.5073 0.0
C189 C 0.3646 0.11979 0.47946 0.0
C190 C 0.34063 0.19563 0.49941 0.0
H191 H 0.20094 -0.00966 0.51109 0.0
H192 H 0.42274 0.12144 0.46127 0.0
H193 H 0.20657 0.82846 0.50676 0.0
H194 H 0.37707 0.8852 0.60193 0.0
H195 H 0.28615 0.97373 0.30641 0.0
H196 H 0.15705 0.11841 0.54562 0.0
H197 H 0.3776 0.2549 0.4935 0.0
C198 C 0.57563 0.39088 1.03659 0.0
C199 C 0.60362 0.35267 1.07194 0.0
N200 N 0.63623 0.27279 1.06337 0.0
N201 N 0.59004 0.33566 1.00537 0.0
C202 C 0.63129 0.26617 1.02269 0.0
H203 H 0.53682 0.45001 1.0351 0.0
Co204 Co 0.53074 0.33739 0.95393 0.0
C205 C 0.55155 0.11755 0.94274 0.0
O206 O 0.50412 0.08435 0.91327 0.0
N207 N 0.47795 0.33734 0.9019 0.0
C208 C 0.47997 0.31058 0.83553 0.0
C209 C 0.51817 0.29219 0.87205 0.0
C210 C 0.41504 0.38381 0.88228 0.0
N211 N 0.4155 0.36866 0.842 0.0
O212 O 0.50724 0.47676 0.95978 0.0
H213 H 0.57598 0.25217 0.8761 0.0
H214 H 0.3738 0.43219 0.89635 0.0
O215 O 0.54528 0.20207 0.94747 0.0
C216 C 0.49106 0.54275 0.93425 0.0
O217 O 0.50677 0.47979 0.96106 0.0
N218 N 0.42665 0.31292 0.98152 0.0
C219 C 0.27732 0.26268 1.0214 0.0
C220 C 0.35457 0.21814 1.02856 0.0
C221 C 0.42773 0.24278 1.00744 0.0
C222 C 0.35453 0.36529 0.97961 0.0
C223 C 0.27863 0.34145 0.99955 0.0
H224 H 0.48362 0.20128 1.01123 0.0
H225 H 0.35305 0.42347 0.96145 0.0
H226 H 0.64561 0.20618 1.00673 0.0
H227 H 0.58956 0.37697 0.10188 0.0
H228 H 0.50129 0.2868 0.80643 0.0
H229 H 0.3555 0.15763 1.04573 0.0
H230 H 0.21941 0.37852 0.99364 0.0
C231 C 0.08332 0.57555 0.5366 0.0
C232 C 0.12153 0.60354 0.57195 0.0
N233 N 0.20138 0.6362 0.56338 0.0
N234 N 0.13853 0.59001 0.50538 0.0
C235 C 0.20799 0.63129 0.5227 0.0
H236 H 0.02421 0.53672 0.53511 0.0
Co237 Co 0.13682 0.53079 0.45393 0.0
C238 C 0.35669 0.5516 0.44264 0.0
O239 O 0.38965 0.50361 0.41331 0.0
N240 N 0.13689 0.47804 0.40189 0.0
C241 C 0.16376 0.4798 0.33553 0.0
C242 C 0.18228 0.51799 0.37203 0.0
C243 C 0.09009 0.41536 0.38228 0.0
N244 N 0.10535 0.41564 0.34201 0.0
O245 O -0.00252 0.50699 0.4598 0.0
H246 H 0.22255 0.57562 0.37606 0.0
H247 H 0.04138 0.3745 0.39634 0.0
O248 O 0.27216 0.54561 0.44748 0.0
C249 C 0.93096 0.4921 0.43438 0.0
O250 O -0.00549 0.50646 0.46105 0.0
N251 N 0.16148 0.42667 0.48148 0.0
C252 C 0.21182 0.27734 0.52136 0.0
C253 C 0.25633 0.3546 0.52851 0.0
C254 C 0.23163 0.42777 0.5074 0.0
C255 C 0.10919 0.3545 0.47955 0.0
C256 C 0.13306 0.27862 0.4995 0.0
H257 H 0.27309 0.48369 0.51119 0.0
H258 H 0.05103 0.35298 0.46136 0.0
H259 H 0.26797 0.64567 0.50674 0.0
H260 H 0.09725 0.58946 0.60189 0.0
H261 H 0.18773 0.50089 0.30643 0.0
H262 H 0.31684 0.35554 0.54568 0.0
H263 H 0.09602 0.21938 0.49358 0.0
C264 C 0.0759 0.58297 1.03678 0.0
C265 C 0.10392 0.62134 1.07208 0.0
N266 N 0.13682 0.70109 1.06345 0.0
N267 N 0.09051 0.63797 1.0055 0.0
C268 C 0.13192 0.70744 1.02276 0.0
H269 H 0.0369 0.52397 1.03534 0.0
Co270 Co 0.0312 0.63624 0.95406 0.0
C271 C 0.05119 0.85619 0.94274 0.0
O272 O 0.0019 0.88857 0.91372 0.0
N273 N 0.97847 0.6363 0.90201 0.0
C274 C 0.98036 0.66338 0.83567 0.0
C275 C 0.01844 0.68181 0.87221 0.0
C276 C 0.91593 0.58945 0.88233 0.0
N277 N 0.9162 0.60494 0.84207 0.0
O278 O 0.00762 0.49682 0.95991 0.0
H279 H 0.07606 0.72206 0.87629 0.0
H280 H 0.87523 0.54051 0.89634 0.0
O281 O 0.04586 0.77162 0.94766 0.0
C282 C -0.00628 0.43004 0.93452 0.0
O283 O 0.00727 0.49373 0.9612 0.0
N284 N 0.92714 0.66092 0.9816 0.0
C285 C 0.77762 0.71268 1.02089 0.0
C286 C 0.85508 0.75653 1.0283 0.0
C287 C 0.92837 0.7311 1.00751 0.0
C288 C 0.85467 0.60911 0.97948 0.0
C289 C 0.77857 0.63383 0.99907 0.0
H290 H 0.98447 0.7722 1.01146 0.0
H291 H 0.85316 0.55082 0.96138 0.0
H292 H 0.14631 0.76733 1.00673 0.0
H293 H 0.08965 0.59731 0.10205 0.0
H294 H 0.0016 0.68737 0.8066 0.0
H295 H 0.85625 0.81703 1.04547 0.0
H296 H 0.7191 0.5973 0.99299 0.0
C297 C 0.89134 0.07587 0.53676 0.0
C298 C 0.85295 0.10393 0.57205 0.0
N299 N 0.77319 0.13678 0.5634 0.0
N300 N 0.83633 0.09039 0.50547 0.0
C301 C 0.76683 0.13179 0.52271 0.0
H302 H 0.95037 0.0369 0.53535 0.0
Co303 Co 0.83816 0.03107 0.45404 0.0
C304 C 0.61821 0.05104 0.44278 0.0
O305 O 0.58563 0.00206 0.4137 0.0
N306 N 0.83819 0.97833 0.402 0.0
C307 C 0.81119 0.98028 0.33565 0.0
C308 C 0.7927 0.01833 0.37219 0.0
C309 C 0.88506 0.91581 0.38233 0.0
N310 N 0.86964 0.91612 0.34207 0.0
O311 O 0.97759 0.00769 0.45991 0.0
H312 H 0.75241 0.07593 0.37627 0.0
H313 H 0.93397 0.87507 0.39635 0.0
O314 O 0.70276 0.04548 0.44762 0.0
C315 C 0.04431 -0.00637 0.43451 0.0
O316 O 0.9807 0.00735 0.4612 0.0
N317 N 0.81364 0.92698 0.48161 0.0
C318 C 0.76211 0.77739 0.52091 0.0
C319 C 0.71817 0.85481 0.52833 0.0
C320 C 0.74348 0.92813 0.50752 0.0
C321 C 0.86555 0.85458 0.4795 0.0
C322 C 0.84095 0.77845 0.49909 0.0
H323 H 0.7023 0.98419 0.51146 0.0
H324 H 0.92383 0.85314 0.46139 0.0
H325 H 0.70694 0.14613 0.50667 0.0
H326 H 0.877 0.08973 0.60203 0.0
H327 H 0.78721 0.00153 0.30657 0.0
H328 H 0.65767 0.8559 0.54549 0.0
H329 H 0.87756 0.71903 0.49301 0.0
C330 C 0.39821 0.89115 1.03668 0.0
C331 C 0.37008 0.85278 1.07196 0.0
N332 N 0.33752 0.77291 1.06332 0.0
N333 N 0.38403 0.83602 1.00541 0.0
C334 C 0.34275 0.76645 1.02264 0.0
H335 H 0.43701 0.95029 1.03529 0.0
Co336 Co 0.44361 0.83815 0.95404 0.0
C337 C 0.42319 0.61819 0.94344 0.0
O338 O 0.46846 0.58383 0.91354 0.0
N339 N 0.49647 0.83848 0.90204 0.0
C340 C 0.49416 0.8116 0.83569 0.0
C341 C 0.45618 0.79322 0.87225 0.0
C342 C 0.55919 0.88504 0.88235 0.0
N343 N 0.55861 0.86973 0.84208 0.0
O344 O 0.46592 0.97769 0.95989 0.0
H345 H 0.39845 0.75314 0.87637 0.0
H346 H 0.6003 0.93361 0.89636 0.0
O347 O 0.43083 0.7027 0.94757 0.0
C348 C 0.48152 0.04374 0.93433 0.0
O349 O 0.46615 0.98087 0.9612 0.0
N350 N 0.54771 0.81441 0.98175 0.0
C351 C 0.6974 0.76318 1.02101 0.0
C352 C 0.62009 0.71915 1.0285 0.0
C353 C 0.54671 0.74433 1.00772 0.0
C354 C 0.61995 0.86652 0.97964 0.0
C355 C 0.69619 0.84204 0.9992 0.0
H356 H 0.49077 0.70299 1.01168 0.0
H357 H 0.62117 0.92482 0.96153 0.0
H358 H 0.3287 0.70649 1.0066 0.0
H359 H 0.38407 0.87696 0.10194 0.0
H360 H 0.47268 0.78778 0.80662 0.0
H361 H 0.61914 0.65861 1.04565 0.0
H362 H 0.75555 0.8787 0.99309 0.0
C363 C 0.58302 0.39837 0.53674 0.0
C364 C 0.62135 0.37029 0.57204 0.0
N365 N 0.70116 0.33755 0.56342 0.0
N366 N 0.63811 0.38398 0.50548 0.0
C367 C 0.70762 0.34264 0.52273 0.0
H368 H 0.52394 0.43728 0.53531 0.0
Co369 Co 0.63619 0.44339 0.45406 0.0
C370 C 0.85614 0.42323 0.44308 0.0
O371 O 0.88943 0.47062 0.41362 0.0
N372 N 0.63607 0.49615 0.40203 0.0
C373 C 0.66302 0.49395 0.33568 0.0
C374 C 0.6814 0.45593 0.37224 0.0
C375 C 0.58945 0.55883 0.38233 0.0
N376 N 0.60481 0.55834 0.34207 0.0
O377 O 0.49671 0.46628 0.45989 0.0
H378 H 0.72152 0.39822 0.37636 0.0
H379 H 0.54077 0.59984 0.39634 0.0
O380 O 0.7716 0.42964 0.44764 0.0
C381 C 0.43042 0.48138 0.43438 0.0
O382 O 0.49356 0.46656 0.4612 0.0
N383 N 0.66035 0.54749 0.48168 0.0
C384 C 0.71167 0.69712 0.52097 0.0
C385 C 0.75573 0.61979 0.52841 0.0
C386 C 0.73049 0.54642 0.50762 0.0
C387 C 0.60831 0.6198 0.47957 0.0
C388 C 0.63281 0.69598 0.49916 0.0
H389 H 0.77175 0.49042 0.51157 0.0
H390 H 0.55002 0.62112 0.46146 0.0
H391 H 0.76756 0.32841 0.50671 0.0
H392 H 0.59721 0.38441 0.602 0.0
H393 H 0.68688 0.47253 0.30662 0.0
H394 H 0.81627 0.61878 0.54555 0.0
H395 H 0.59614 0.75536 0.49307 0.0
C396 C 0.07578 0.89123 0.11726 0.0
C397 C 0.10377 0.8528 0.08196 0.0
N398 N 0.13655 0.77304 0.09064 0.0
N399 N 0.09038 0.83626 0.14856 0.0
C400 C 0.13174 0.76673 0.13133 0.0
H401 H 0.03685 0.95029 0.11868 0.0
Co402 Co 0.03116 0.83813 0.20002 0.0
C403 C 0.05104 0.6182 0.21136 0.0
O404 O 0.00175 0.58579 0.24037 0.0
N405 N 0.97852 0.8382 0.25208 0.0
C406 C 0.98055 0.81122 0.31844 0.0
C407 C 0.01858 0.79275 0.28189 0.0
C408 C 0.91597 0.88502 0.27176 0.0
N409 N 0.91639 0.86967 0.31203 0.0
O410 O 0.00774 0.97755 0.19414 0.0
H411 H 0.07618 0.75247 0.2778 0.0
H412 H 0.87511 0.93382 0.25774 0.0
O413 O 0.04568 0.70275 0.20645 0.0
C414 C -0.00641 0.04425 0.21954 0.0
O415 O 0.00741 0.98066 0.19284 0.0
N416 N 0.92702 0.81356 0.1725 0.0
C417 C 0.77737 0.7621 0.13321 0.0
C418 C 0.85476 0.7181 0.1258 0.0
C419 C 0.92812 0.74337 0.1466 0.0
C420 C 0.85465 0.86551 0.1746 0.0
C421 C 0.7785 0.84096 0.15502 0.0
H422 H 0.98416 0.70216 0.14265 0.0
H423 H 0.85325 0.92382 0.1927 0.0
H424 H 0.14619 0.70688 0.14739 0.0
H425 H 0.0896 0.87684 1.05198 0.0
H426 H 0.00177 0.7872 0.34751 0.0
H427 H 0.85581 0.65758 0.10864 0.0
H428 H 0.71911 0.87761 0.16109 0.0
C429 C 0.58308 0.07576 0.61724 0.0
C430 C 0.62149 0.10372 0.58193 0.0
N431 N 0.70124 0.13654 0.5906 0.0
N432 N 0.63805 0.09042 0.64853 0.0
C433 C 0.70755 0.1318 0.63129 0.0
H434 H 0.52405 0.0368 0.61868 0.0
Co435 Co 0.63629 0.03123 0.7 0.0
C436 C 0.85621 0.05111 0.71136 0.0
O437 O 0.88851 0.00165 0.74033 0.0
N438 N 0.63633 0.97861 0.75206 0.0
C439 C 0.66344 0.98065 0.8184 0.0
C440 C 0.68179 0.0187 0.78185 0.0
C441 C 0.5896 0.91602 0.77176 0.0
N442 N 0.60504 0.91644 0.81202 0.0
O443 O 0.49687 0.00771 0.69414 0.0
H444 H 0.722 0.07634 0.77775 0.0
H445 H 0.5408 0.87514 0.75775 0.0
O446 O 0.77166 0.0459 0.70641 0.0
C447 C 0.4302 -0.00648 0.71955 0.0
O448 O 0.49376 0.00737 0.69284 0.0
N449 N 0.66093 0.92709 0.67249 0.0
C450 C 0.71246 0.77748 0.6332 0.0
C451 C 0.75643 0.85489 0.6258 0.0
C452 C 0.73111 0.92823 0.64659 0.0
C453 C 0.60902 0.8547 0.6746 0.0
C454 C 0.63361 0.77856 0.65501 0.0
H455 H 0.77228 0.98429 0.64264 0.0
H456 H 0.55072 0.85326 0.6927 0.0
H457 H 0.76741 0.14628 0.64733 0.0
H458 H 0.59745 0.08949 0.55195 0.0
H459 H 0.68747 0.00191 0.84747 0.0
H460 H 0.81693 0.85597 0.60863 0.0
H461 H 0.59698 0.71915 0.66109 0.0
C462 C 0.39853 0.58292 0.11726 0.0
C463 C 0.37054 0.62125 0.08194 0.0
N464 N 0.33781 0.70105 0.09057 0.0
N465 N 0.384 0.63798 0.14853 0.0
C466 C 0.34267 0.70748 0.13126 0.0
H467 H 0.43743 0.52384 0.11871 0.0
Co468 Co 0.44326 0.63611 0.19999 0.0
C469 C 0.4232 0.85606 0.21111 0.0
O470 O 0.47131 0.88897 0.24041 0.0
N471 N 0.49592 0.63603 0.25204 0.0
C472 C 0.4938 0.66308 0.31839 0.0
C473 C 0.45576 0.68143 0.28183 0.0
C474 C 0.55856 0.58937 0.27174 0.0
N475 N 0.55809 0.60476 0.312 0.0
O476 O 0.46636 0.49665 0.19415 0.0
H477 H 0.39809 0.72162 0.27771 0.0
H478 H 0.59956 0.54068 0.25774 0.0
O479 O 0.42918 0.77151 0.2064 0.0
C480 C 0.48106 0.43019 0.21962 0.0
O481 O 0.46666 0.49351 0.19285 0.0
N482 N 0.54741 0.66042 0.17244 0.0
C483 C 0.69707 0.71173 0.13316 0.0
C484 C 0.61974 0.75584 0.12575 0.0
C485 C 0.54636 0.7306 0.14653 0.0
C486 C 0.61972 0.60838 0.17455 0.0
C487 C 0.6959 0.63286 0.15496 0.0
H488 H 0.49036 0.77185 0.14256 0.0
H489 H 0.62105 0.55007 0.19264 0.0
H490 H 0.32828 0.76739 0.14728 0.0
H491 H 0.38469 0.59712 1.05198 0.0
H492 H 0.47249 0.68708 0.34745 0.0
H493 H 0.61876 0.81639 0.10862 0.0
H494 H 0.75527 0.59616 0.16104 0.0
C495 C 0.89125 0.3984 0.61732 0.0
C496 C 0.85287 0.37039 0.58201 0.0
N497 N 0.77303 0.33778 0.59067 0.0
N498 N 0.83619 0.38401 0.6486 0.0
C499 C 0.76663 0.34272 0.63135 0.0
H500 H 0.95037 0.43724 0.61874 0.0
Co501 Co 0.8382 0.44337 0.70002 0.0
C502 C 0.61826 0.42322 0.71099 0.0
O503 O 0.58485 0.47042 0.74049 0.0
N504 N 0.83842 0.49609 0.75206 0.0
C505 C 0.81156 0.49381 0.81842 0.0
C506 C 0.79315 0.45582 0.78186 0.0
C507 C 0.88501 0.55879 0.77175 0.0
N508 N 0.86976 0.55819 0.81202 0.0
O509 O 0.97769 0.46616 0.69416 0.0
H510 H 0.75302 0.39812 0.77774 0.0
H511 H 0.93356 0.59993 0.75773 0.0
O512 O 0.70279 0.42978 0.70647 0.0
C513 C 0.04393 0.48139 0.71968 0.0
O514 O 0.98084 0.46642 0.69285 0.0
N515 N 0.81408 0.54752 0.67241 0.0
C516 C 0.76286 0.69719 0.63312 0.0
C517 C 0.71875 0.61988 0.62569 0.0
C518 C 0.74393 0.54651 0.64649 0.0
C519 C 0.86619 0.61978 0.67451 0.0
C520 C 0.84173 0.69598 0.65492 0.0
H521 H 0.70262 0.49055 0.64254 0.0
H522 H 0.9245 0.62105 0.6926 0.0
H523 H 0.70672 0.32845 0.64739 0.0
H524 H 0.877 0.38444 0.55204 0.0
H525 H 0.78767 0.47243 0.84749 0.0
H526 H 0.65819 0.61893 0.60855 0.0
H527 H 0.87844 0.75533 0.661 0.0
loop_
_geom_bond_atom_site_label_1
_geom_bond_atom_site_label_2
_geom_bond_distance
_geom_bond_site_symmetry_2
_ccdc_geom_bond_type
C0 C1 1.351 . S
C0 N3 1.368 . S
C0 H5 0.931 1_655 S
C1 C0 1.351 . S
C1 N2 1.373 . S
C1 H29 0.930 1_554 S
N2 C1 1.373 . S
N2 C4 1.340 . S
N3 C0 1.368 . S
N3 C4 1.321 . S
N3 Co6 2.135 . S
C4 N2 1.340 . S
C4 N3 1.321 . S
C4 H28 0.930 . S
H5 C0 0.931 1_455 S
Co6 N3 2.135 . S
Co6 N9 2.121 . S
Co6 O14 2.055 . S
Co6 O17 2.039 . S
Co6 N20 2.140 1_655 S
C7 O8 1.227 . S
C7 O17 1.265 . S
O8 C7 1.227 . S
N9 Co6 2.121 . S
N9 C11 1.375 . S
N9 C12 1.313 . S
C10 C11 1.338 1_455 S
C10 N13 1.377 1_455 S
C10 H30 0.930 . S
C11 N9 1.375 . S
C11 C10 1.338 1_655 S
C11 H15 0.931 . S
C12 N9 1.313 . S
C12 N13 1.344 . S
C12 H16 0.930 . S
N13 C10 1.377 1_655 S
N13 C12 1.344 . S
O14 Co6 2.055 . S
O14 C18 1.253 . S
H15 C11 0.931 . S
H16 C12 0.930 . S
O17 Co6 2.039 . S
O17 C7 1.265 . S
C18 O14 1.253 . S
C18 O19 1.227 1_655 S
O19 C18 1.227 1_455 S
N20 Co6 2.140 1_455 S
N20 C23 1.346 . S
N20 C24 1.345 . S
C21 C22 1.387 . S
C21 C25 1.391 . S
C22 C21 1.387 . S
C22 C23 1.369 . S
C22 H31 0.929 . S
C23 N20 1.346 . S
C23 C22 1.369 . S
C23 H26 0.928 . S
C24 N20 1.345 . S
C24 C25 1.371 . S
C24 H27 0.931 . S
C25 C21 1.391 . S
C25 C24 1.371 . S
C25 H32 0.930 . S
H26 C23 0.928 . S
H27 C24 0.931 . S
H28 C4 0.930 . S
H29 C1 0.930 1_556 S
H30 C10 0.930 . S
H31 C22 0.929 . S
H32 C25 0.930 . S
C33 C34 1.351 . S
C33 N36 1.368 . S
C33 H38 0.931 1_565 S
C34 C33 1.351 . S
C34 N35 1.373 . S
C34 H62 0.930 . S
N35 C34 1.373 . S
N35 C37 1.340 . S
N36 C33 1.368 . S
N36 C37 1.321 . S
N36 Co39 2.135 . S
C37 N35 1.340 . S
C37 N36 1.321 . S
C37 H61 0.930 . S
H38 C33 0.931 1_545 S
Co39 N36 2.135 . S
Co39 N42 2.121 . S
Co39 O47 2.055 . S
Co39 O50 2.039 . S
Co39 N53 2.140 1_565 S
C40 O41 1.227 . S
C40 O50 1.265 . S
O41 C40 1.227 . S
N42 Co39 2.121 . S
N42 C44 1.375 . S
N42 C45 1.313 . S
C43 C44 1.338 1_545 S
C43 N46 1.377 1_545 S
C43 H63 0.930 . S
C44 N42 1.375 . S
C44 C43 1.338 1_565 S
C44 H48 0.931 . S
C45 N42 1.313 . S
C45 N46 1.344 . S
C45 H49 0.930 . S
N46 C43 1.377 1_565 S
N46 C45 1.344 . S
O47 Co39 2.055 . S
O47 C51 1.253 1_455 S
H48 C44 0.931 . S
H49 C45 0.930 . S
O50 Co39 2.039 . S
O50 C40 1.265 . S
C51 O47 1.253 1_655 S
C51 O52 1.227 1_565 S
O52 C51 1.227 1_545 S
N53 Co39 2.140 1_545 S
N53 C56 1.346 . S
N53 C57 1.345 . S
C54 C55 1.387 . S
C54 C58 1.391 . S
C55 C54 1.387 . S
C55 C56 1.369 . S
C55 H64 0.929 . S
C56 N53 1.346 . S
C56 C55 1.369 . S
C56 H59 0.928 . S
C57 N53 1.345 . S
C57 C58 1.371 . S
C57 H60 0.931 . S
C58 C54 1.391 . S
C58 C57 1.371 . S
C58 H65 0.930 . S
H59 C56 0.928 . S
H60 C57 0.931 . S
H61 C37 0.930 . S
H62 C34 0.930 . S
H63 C43 0.930 . S
H64 C55 0.929 . S
H65 C58 0.930 . S
C66 C67 1.351 . S
C66 N69 1.368 . S
C66 H71 0.931 . S
C67 C66 1.351 . S
C67 N68 1.373 . S
C67 H95 0.930 1_554 S
N68 C67 1.373 . S
N68 C70 1.340 . S
N69 C66 1.368 . S
N69 C70 1.321 . S
N69 Co72 2.135 . S
C70 N68 1.340 . S
C70 N69 1.321 . S
C70 H94 0.930 . S
H71 C66 0.931 . S
Co72 N69 2.135 . S
Co72 N75 2.121 . S
Co72 O80 2.055 . S
Co72 O83 2.039 . S
Co72 N86 2.140 . S
C73 O74 1.227 . S
C73 O83 1.265 . S
O74 C73 1.227 . S
N75 Co72 2.121 . S
N75 C77 1.375 . S
N75 C78 1.313 . S
C76 C77 1.338 . S
C76 N79 1.377 . S
C76 H96 0.930 . S
C77 N75 1.375 . S
C77 C76 1.338 . S
C77 H81 0.931 . S
C78 N75 1.313 . S
C78 N79 1.344 . S
C78 H82 0.930 . S
N79 C76 1.377 . S
N79 C78 1.344 . S
O80 Co72 2.055 . S
O80 C84 1.253 1_545 S
H81 C77 0.931 . S
H82 C78 0.930 . S
O83 Co72 2.039 . S
O83 C73 1.265 . S
C84 O80 1.253 1_565 S
C84 O85 1.227 . S
O85 C84 1.227 . S
N86 Co72 2.140 . S
N86 C89 1.346 . S
N86 C90 1.345 . S
C87 C88 1.387 . S
C87 C91 1.391 . S
C88 C87 1.387 . S
C88 C89 1.369 . S
C88 H97 0.929 . S
C89 N86 1.346 . S
C89 C88 1.369 . S
C89 H92 0.928 . S
C90 N86 1.345 . S
C90 C91 1.371 . S
C90 H93 0.931 . S
C91 C87 1.391 . S
C91 C90 1.371 . S
C91 H98 0.930 . S
H92 C89 0.928 . S
H93 C90 0.931 . S
H94 C70 0.930 . S
H95 C67 0.930 1_556 S
H96 C76 0.930 . S
H97 C88 0.929 . S
H98 C91 0.930 . S
C99 C100 1.351 . S
C99 N102 1.368 . S
C99 H104 0.931 . S
C100 C99 1.351 . S
C100 N101 1.373 . S
C100 H128 0.930 . S
N101 C100 1.373 . S
N101 C103 1.340 . S
N102 C99 1.368 . S
N102 C103 1.321 . S
N102 Co105 2.135 . S
C103 N101 1.340 . S
C103 N102 1.321 . S
C103 H127 0.930 . S
H104 C99 0.931 . S
Co105 N102 2.135 . S
Co105 N108 2.121 . S
Co105 O113 2.055 . S
Co105 O116 2.039 . S
Co105 N119 2.140 . S
C106 O107 1.227 . S
C106 O116 1.265 . S
O107 C106 1.227 . S
N108 Co105 2.121 . S
N108 C110 1.375 . S
N108 C111 1.313 . S
C109 C110 1.338 . S
C109 N112 1.377 . S
C109 H129 0.930 . S
C110 N108 1.375 . S
C110 C109 1.338 . S
C110 H114 0.931 . S
C111 N108 1.313 . S
C111 N112 1.344 . S
C111 H115 0.930 . S
N112 C109 1.377 . S
N112 C111 1.344 . S
O113 Co105 2.055 . S
O113 C117 1.253 . S
H114 C110 0.931 . S
H115 C111 0.930 . S
O116 Co105 2.039 . S
O116 C106 1.265 . S
C117 O113 1.253 . S
C117 O118 1.227 . S
O118 C117 1.227 . S
N119 Co105 2.140 . S
N119 C122 1.346 . S
N119 C123 1.345 . S
C120 C121 1.387 . S
C120 C124 1.391 . S
C121 C120 1.387 . S
C121 C122 1.369 . S
C121 H130 0.929 . S
C122 N119 1.346 . S
C122 C121 1.369 . S
C122 H125 0.928 . S
C123 N119 1.345 . S
C123 C124 1.371 . S
C123 H126 0.931 . S
C124 C120 1.391 . S
C124 C123 1.371 . S
C124 H131 0.930 . S
H125 C122 0.928 . S
H126 C123 0.931 . S
H127 C103 0.930 . S
H128 C100 0.930 . S
H129 C109 0.930 . S
H130 C121 0.929 . S
H131 C124 0.930 . S
C132 C133 1.351 . S
C132 N135 1.368 . S
C132 H137 0.931 1_655 S
C133 C132 1.351 . S
C133 N134 1.373 . S
C133 H161 0.930 1_556 S
N134 C133 1.373 . S
N134 C136 1.340 . S
N135 C132 1.368 . S
N135 C136 1.321 . S
N135 Co138 2.135 . S
C136 N134 1.340 . S
C136 N135 1.321 . S
C136 H160 0.930 . S
H137 C132 0.931 1_455 S
Co138 N135 2.135 . S
Co138 N141 2.121 . S
Co138 O146 2.055 . S
Co138 O149 2.039 . S
Co138 N152 2.140 1_655 S
C139 O140 1.227 . S
C139 O149 1.265 . S
O140 C139 1.227 . S
N141 Co138 2.121 . S
N141 C143 1.375 . S
N141 C144 1.313 . S
C142 C143 1.338 1_455 S
C142 N145 1.377 1_455 S
C142 H162 0.930 . S
C143 N141 1.375 . S
C143 C142 1.338 1_655 S
C143 H147 0.931 . S
C144 N141 1.313 . S
C144 N145 1.344 . S
C144 H148 0.930 . S
N145 C142 1.377 1_655 S
N145 C144 1.344 . S
O146 Co138 2.055 . S
O146 C150 1.253 1_545 S
H147 C143 0.931 . S
H148 C144 0.930 . S
O149 Co138 2.039 . S
O149 C139 1.265 . S
C150 O146 1.253 1_565 S
C150 O151 1.227 1_655 S
O151 C150 1.227 1_455 S
N152 Co138 2.140 1_455 S
N152 C155 1.346 . S
N152 C156 1.345 . S
C153 C154 1.387 . S
C153 C157 1.391 . S
C154 C153 1.387 . S
C154 C155 1.369 . S
C154 H163 0.929 . S
C155 N152 1.346 . S
C155 C154 1.369 . S
C155 H158 0.928 . S
C156 N152 1.345 . S
C156 C157 1.371 . S
C156 H159 0.931 . S
C157 C153 1.391 . S
C157 C156 1.371 . S
C157 H164 0.930 . S
H158 C155 0.928 . S
H159 C156 0.931 . S
H160 C136 0.930 . S
H161 C133 0.930 1_554 S
H162 C142 0.930 . S
H163 C154 0.929 . S
H164 C157 0.930 . S
C165 C166 1.351 . S
C165 N168 1.368 . S
C165 H170 0.931 1_565 S
C166 C165 1.351 . S
C166 N167 1.373 . S
C166 H194 0.930 . S
N167 C166 1.373 . S
N167 C169 1.340 . S
N168 C165 1.368 . S
N168 C169 1.321 . S
N168 Co171 2.135 . S
C169 N167 1.340 . S
C169 N168 1.321 . S
C169 H193 0.930 . S
H170 C165 0.931 1_545 S
Co171 N168 2.135 . S
Co171 N174 2.121 . S
Co171 O179 2.055 . S
Co171 O182 2.039 . S
Co171 N185 2.140 1_565 S
C172 O173 1.227 . S
C172 O182 1.265 . S
O173 C172 1.227 . S
N174 Co171 2.121 . S
N174 C176 1.375 . S
N174 C177 1.313 . S
C175 C176 1.338 1_545 S
C175 N178 1.377 1_545 S
C175 H195 0.930 . S
C176 N174 1.375 . S
C176 C175 1.338 1_565 S
C176 H180 0.931 . S
C177 N174 1.313 . S
C177 N178 1.344 . S
C177 H181 0.930 . S
N178 C175 1.377 1_565 S
N178 C177 1.344 . S
O179 Co171 2.055 . S
O179 C183 1.253 . S
H180 C176 0.931 . S
H181 C177 0.930 . S
O182 Co171 2.039 . S
O182 C172 1.265 . S
C183 O179 1.253 . S
C183 O184 1.227 1_565 S
O184 C183 1.227 1_545 S
N185 Co171 2.140 1_545 S
N185 C188 1.346 . S
N185 C189 1.345 . S
C186 C187 1.387 . S
C186 C190 1.391 . S
C187 C186 1.387 . S
C187 C188 1.369 . S
C187 H196 0.929 . S
C188 N185 1.346 . S
C188 C187 1.369 . S
C188 H191 0.928 . S
C189 N185 1.345 . S
C189 C190 1.371 . S
C189 H192 0.931 . S
C190 C186 1.391 . S
C190 C189 1.371 . S
C190 H197 0.930 . S
H191 C188 0.928 . S
H192 C189 0.931 . S
H193 C169 0.930 . S
H194 C166 0.930 . S
H195 C175 0.930 . S
H196 C187 0.929 . S
H197 C190 0.930 . S
C198 C199 1.351 . S
C198 N201 1.368 . S
C198 H203 0.931 . S
C199 C198 1.351 . S
C199 N200 1.373 . S
C199 H227 0.930 1_556 S
N200 C199 1.373 . S
N200 C202 1.340 . S
N201 C198 1.368 . S
N201 C202 1.321 . S
N201 Co204 2.135 . S
C202 N200 1.340 . S
C202 N201 1.321 . S
C202 H226 0.930 . S
H203 C198 0.931 . S
Co204 N201 2.135 . S
Co204 N207 2.121 . S
Co204 O212 2.055 . S
Co204 O215 2.039 . S
Co204 N218 2.140 . S
C205 O206 1.227 . S
C205 O215 1.265 . S
O206 C205 1.227 . S
N207 Co204 2.121 . S
N207 C209 1.375 . S
N207 C210 1.313 . S
C208 C209 1.338 . S
C208 N211 1.377 . S
C208 H228 0.930 . S
C209 N207 1.375 . S
C209 C208 1.338 . S
C209 H213 0.931 . S
C210 N207 1.313 . S
C210 N211 1.344 . S
C210 H214 0.930 . S
N211 C208 1.377 . S
N211 C210 1.344 . S
O212 Co204 2.055 . S
O212 C216 1.253 . S
H213 C209 0.931 . S
H214 C210 0.930 . S
O215 Co204 2.039 . S
O215 C205 1.265 . S
C216 O212 1.253 . S
C216 O217 1.227 . S
O217 C216 1.227 . S
N218 Co204 2.140 . S
N218 C221 1.346 . S
N218 C222 1.345 . S
C219 C220 1.387 . S
C219 C223 1.391 . S
C220 C219 1.387 . S
C220 C221 1.369 . S
C220 H229 0.929 . S
C221 N218 1.346 . S
C221 C220 1.369 . S
C221 H224 0.928 . S
C222 N218 1.345 . S
C222 C223 1.371 . S
C222 H225 0.931 . S
C223 C219 1.391 . S
C223 C222 1.371 . S
C223 H230 0.930 . S
H224 C221 0.928 . S
H225 C222 0.931 . S
H226 C202 0.930 . S
H227 C199 0.930 1_554 S
H228 C208 0.930 . S
H229 C220 0.929 . S
H230 C223 0.930 . S
C231 C232 1.351 . S
C231 N234 1.368 . S
C231 H236 0.931 . S
C232 C231 1.351 . S
C232 N233 1.373 . S
C232 H260 0.930 . S
N233 C232 1.373 . S
N233 C235 1.340 . S
N234 C231 1.368 . S
N234 C235 1.321 . S
N234 Co237 2.135 . S
C235 N233 1.340 . S
C235 N234 1.321 . S
C235 H259 0.930 . S
H236 C231 0.931 . S
Co237 N234 2.135 . S
Co237 N240 2.121 . S
Co237 O245 2.055 . S
Co237 O248 2.039 . S
Co237 N251 2.140 . S
C238 O239 1.227 . S
C238 O248 1.265 . S
O239 C238 1.227 . S
N240 Co237 2.121 . S
N240 C242 1.375 . S
N240 C243 1.313 . S
C241 C242 1.338 . S
C241 N244 1.377 . S
C241 H261 0.930 . S
C242 N240 1.375 . S
C242 C241 1.338 . S
C242 H246 0.931 . S
C243 N240 1.313 . S
C243 N244 1.344 . S
C243 H247 0.930 . S
N244 C241 1.377 . S
N244 C243 1.344 . S
O245 Co237 2.055 . S
O245 C249 1.253 1_455 S
H246 C242 0.931 . S
H247 C243 0.930 . S
O248 Co237 2.039 . S
O248 C238 1.265 . S
C249 O245 1.253 1_655 S
C249 O250 1.227 . S
O250 C249 1.227 . S
N251 Co237 2.140 . S
N251 C254 1.346 . S
N251 C255 1.345 . S
C252 C253 1.387 . S
C252 C256 1.391 . S
C253 C252 1.387 . S
C253 C254 1.369 . S
C253 H262 0.929 . S
C254 N251 1.346 . S
C254 C253 1.369 . S
C254 H257 0.928 . S
C255 N251 1.345 . S
C255 C256 1.371 . S
C255 H258 0.931 . S
C256 C252 1.391 . S
C256 C255 1.371 . S
C256 H263 0.930 . S
H257 C254 0.928 . S
H258 C255 0.931 . S
H259 C235 0.930 . S
H260 C232 0.930 . S
H261 C241 0.930 . S
H262 C253 0.929 . S
H263 C256 0.930 . S
C264 C265 1.351 . S
C264 N267 1.368 . S
C264 H269 0.931 1_455 S
C265 C264 1.351 . S
C265 N266 1.373 . S
C265 H293 0.930 1_556 S
N266 C265 1.373 . S
N266 C268 1.340 . S
N267 C264 1.368 . S
N267 C268 1.321 . S
N267 Co270 2.135 . S
C268 N266 1.340 . S
C268 N267 1.321 . S
C268 H292 0.930 . S
H269 C264 0.931 1_655 S
Co270 N267 2.135 . S
Co270 N273 2.121 . S
Co270 O278 2.055 . S
Co270 O281 2.039 . S
Co270 N284 2.140 1_455 S
C271 O272 1.227 . S
C271 O281 1.265 . S
O272 C271 1.227 . S
N273 Co270 2.121 . S
N273 C275 1.375 . S
N273 C276 1.313 . S
C274 C275 1.338 1_655 S
C274 N277 1.377 1_655 S
C274 H294 0.930 . S
C275 N273 1.375 . S
C275 C274 1.338 1_455 S
C275 H279 0.931 . S
C276 N273 1.313 . S
C276 N277 1.344 . S
C276 H280 0.930 . S
N277 C274 1.377 1_455 S
N277 C276 1.344 . S
O278 Co270 2.055 . S
O278 C282 1.253 . S
H279 C275 0.931 . S
H280 C276 0.930 . S
O281 Co270 2.039 . S
O281 C271 1.265 . S
C282 O278 1.253 . S
C282 O283 1.227 1_455 S
O283 C282 1.227 1_655 S
N284 Co270 2.140 1_655 S
N284 C287 1.346 . S
N284 C288 1.345 . S
C285 C286 1.387 . S
C285 C289 1.391 . S
C286 C285 1.387 . S
C286 C287 1.369 . S
C286 H295 0.929 . S
C287 N284 1.346 . S
C287 C286 1.369 . S
C287 H290 0.928 . S
C288 N284 1.345 . S
C288 C289 1.371 . S
C288 H291 0.931 . S
C289 C285 1.391 . S
C289 C288 1.371 . S
C289 H296 0.930 . S
H290 C287 0.928 . S
H291 C288 0.931 . S
H292 C268 0.930 . S
H293 C265 0.930 1_554 S
H294 C274 0.930 . S
H295 C286 0.929 . S
H296 C289 0.930 . S
C297 C298 1.351 . S
C297 N300 1.368 . S
C297 H302 0.931 1_545 S
C298 C297 1.351 . S
C298 N299 1.373 . S
C298 H326 0.930 . S
N299 C298 1.373 . S
N299 C301 1.340 . S
N300 C297 1.368 . S
N300 C301 1.321 . S
N300 Co303 2.135 . S
C301 N299 1.340 . S
C301 N300 1.321 . S
C301 H325 0.930 . S
H302 C297 0.931 1_565 S
Co303 N300 2.135 . S
Co303 N306 2.121 . S
Co303 O311 2.055 . S
Co303 O314 2.039 . S
Co303 N317 2.140 1_545 S
C304 O305 1.227 . S
C304 O314 1.265 . S
O305 C304 1.227 . S
N306 Co303 2.121 . S
N306 C308 1.375 . S
N306 C309 1.313 . S
C307 C308 1.338 1_565 S
C307 N310 1.377 1_565 S
C307 H327 0.930 . S
C308 N306 1.375 . S
C308 C307 1.338 1_545 S
C308 H312 0.931 . S
C309 N306 1.313 . S
C309 N310 1.344 . S
C309 H313 0.930 . S
N310 C307 1.377 1_545 S
N310 C309 1.344 . S
O311 Co303 2.055 . S
O311 C315 1.253 1_655 S
H312 C308 0.931 . S
H313 C309 0.930 . S
O314 Co303 2.039 . S
O314 C304 1.265 . S
C315 O311 1.253 1_455 S
C315 O316 1.227 1_545 S
O316 C315 1.227 1_565 S
N317 Co303 2.140 1_565 S
N317 C320 1.346 . S
N317 C321 1.345 . S
C318 C319 1.387 . S
C318 C322 1.391 . S
C319 C318 1.387 . S
C319 C320 1.369 . S
C319 H328 0.929 . S
C320 N317 1.346 . S
C320 C319 1.369 . S
C320 H323 0.928 . S
C321 N317 1.345 . S
C321 C322 1.371 . S
C321 H324 0.931 . S
C322 C318 1.391 . S
C322 C321 1.371 . S
C322 H329 0.930 . S
H323 C320 0.928 . S
H324 C321 0.931 . S
H325 C301 0.930 . S
H326 C298 0.930 . S
H327 C307 0.930 . S
H328 C319 0.929 . S
H329 C322 0.930 . S
C330 C331 1.351 . S
C330 N333 1.368 . S
C330 H335 0.931 . S
C331 C330 1.351 . S
C331 N332 1.373 . S
C331 H359 0.930 1_556 S
N332 C331 1.373 . S
N332 C334 1.340 . S
N333 C330 1.368 . S
N333 C334 1.321 . S
N333 Co336 2.135 . S
C334 N332 1.340 . S
C334 N333 1.321 . S
C334 H358 0.930 . S
H335 C330 0.931 . S
Co336 N333 2.135 . S
Co336 N339 2.121 . S
Co336 O344 2.055 . S
Co336 O347 2.039 . S
Co336 N350 2.140 . S
C337 O338 1.227 . S
C337 O347 1.265 . S
O338 C337 1.227 . S
N339 Co336 2.121 . S
N339 C341 1.375 . S
N339 C342 1.313 . S
C340 C341 1.338 . S
C340 N343 1.377 . S
C340 H360 0.930 . S
C341 N339 1.375 . S
C341 C340 1.338 . S
C341 H345 0.931 . S
C342 N339 1.313 . S
C342 N343 1.344 . S
C342 H346 0.930 . S
N343 C340 1.377 . S
N343 C342 1.344 . S
O344 Co336 2.055 . S
O344 C348 1.253 1_565 S
H345 C341 0.931 . S
H346 C342 0.930 . S
O347 Co336 2.039 . S
O347 C337 1.265 . S
C348 O344 1.253 1_545 S
C348 O349 1.227 . S
O349 C348 1.227 . S
N350 Co336 2.140 . S
N350 C353 1.346 . S
N350 C354 1.345 . S
C351 C352 1.387 . S
C351 C355 1.391 . S
C352 C351 1.387 . S
C352 C353 1.369 . S
C352 H361 0.929 . S
C353 N350 1.346 . S
C353 C352 1.369 . S
C353 H356 0.928 . S
C354 N350 1.345 . S
C354 C355 1.371 . S
C354 H357 0.931 . S
C355 C351 1.391 . S
C355 C354 1.371 . S
C355 H362 0.930 . S
H356 C353 0.928 . S
H357 C354 0.931 . S
H358 C334 0.930 . S
H359 C331 0.930 1_554 S
H360 C340 0.930 . S
H361 C352 0.929 . S
H362 C355 0.930 . S
C363 C364 1.351 . S
C363 N366 1.368 . S
C363 H368 0.931 . S
C364 C363 1.351 . S
C364 N365 1.373 . S
C364 H392 0.930 . S
N365 C364 1.373 . S
N365 C367 1.340 . S
N366 C363 1.368 . S
N366 C367 1.321 . S
N366 Co369 2.135 . S
C367 N365 1.340 . S
C367 N366 1.321 . S
C367 H391 0.930 . S
H368 C363 0.931 . S
Co369 N366 2.135 . S
Co369 N372 2.121 . S
Co369 O377 2.055 . S
Co369 O380 2.039 . S
Co369 N383 2.140 . S
C370 O371 1.227 . S
C370 O380 1.265 . S
O371 C370 1.227 . S
N372 Co369 2.121 . S
N372 C374 1.375 . S
N372 C375 1.313 . S
C373 C374 1.338 . S
C373 N376 1.377 . S
C373 H393 0.930 . S
C374 N372 1.375 . S
C374 C373 1.338 . S
C374 H378 0.931 . S
C375 N372 1.313 . S
C375 N376 1.344 . S
C375 H379 0.930 . S
N376 C373 1.377 . S
N376 C375 1.344 . S
O377 Co369 2.055 . S
O377 C381 1.253 . S
H378 C374 0.931 . S
H379 C375 0.930 . S
O380 Co369 2.039 . S
O380 C370 1.265 . S
C381 O377 1.253 . S
C381 O382 1.227 . S
O382 C381 1.227 . S
N383 Co369 2.140 . S
N383 C386 1.346 . S
N383 C387 1.345 . S
C384 C385 1.387 . S
C384 C388 1.391 . S
C385 C384 1.387 . S
C385 C386 1.369 . S
C385 H394 0.929 . S
C386 N383 1.346 . S
C386 C385 1.369 . S
C386 H389 0.928 . S
C387 N383 1.345 . S
C387 C388 1.371 . S
C387 H390 0.931 . S
C388 C384 1.391 . S
C388 C387 1.371 . S
C388 H395 0.930 . S
H389 C386 0.928 . S
H390 C387 0.931 . S
H391 C367 0.930 . S
H392 C364 0.930 . S
H393 C373 0.930 . S
H394 C385 0.929 . S
H395 C388 0.930 . S
C396 C397 1.351 . S
C396 N399 1.368 . S
C396 H401 0.931 1_455 S
C397 C396 1.351 . S
C397 N398 1.373 . S
C397 H425 0.930 1_554 S
N398 C397 1.373 . S
N398 C400 1.340 . S
N399 C396 1.368 . S
N399 C400 1.321 . S
N399 Co402 2.135 . S
C400 N398 1.340 . S
C400 N399 1.321 . S
C400 H424 0.930 . S
H401 C396 0.931 1_655 S
Co402 N399 2.135 . S
Co402 N405 2.121 . S
Co402 O410 2.055 . S
Co402 O413 2.039 . S
Co402 N416 2.140 1_455 S
C403 O404 1.227 . S
C403 O413 1.265 . S
O404 C403 1.227 . S
N405 Co402 2.121 . S
N405 C407 1.375 . S
N405 C408 1.313 . S
C406 C407 1.338 1_655 S
C406 N409 1.377 1_655 S
C406 H426 0.930 . S
C407 N405 1.375 . S
C407 C406 1.338 1_455 S
C407 H411 0.931 . S
C408 N405 1.313 . S
C408 N409 1.344 . S
C408 H412 0.930 . S
N409 C406 1.377 1_455 S
N409 C408 1.344 . S
O410 Co402 2.055 . S
O410 C414 1.253 1_565 S
H411 C407 0.931 . S
H412 C408 0.930 . S
O413 Co402 2.039 . S
O413 C403 1.265 . S
C414 O410 1.253 1_545 S
C414 O415 1.227 1_455 S
O415 C414 1.227 1_655 S
N416 Co402 2.140 1_655 S
N416 C419 1.346 . S
N416 C420 1.345 . S
C417 C418 1.387 . S
C417 C421 1.391 . S
C418 C417 1.387 . S
C418 C419 1.369 . S
C418 H427 0.929 . S
C419 N416 1.346 . S
C419 C418 1.369 . S
C419 H422 0.928 . S
C420 N416 1.345 . S
C420 C421 1.371 . S
C420 H423 0.931 . S
C421 C417 1.391 . S
C421 C420 1.371 . S
C421 H428 0.930 . S
H422 C419 0.928 . S
H423 C420 0.931 . S
H424 C400 0.930 . S
H425 C397 0.930 1_556 S
H426 C406 0.930 . S
H427 C418 0.929 . S
H428 C421 0.930 . S
C429 C430 1.351 . S
C429 N432 1.368 . S
C429 H434 0.931 1_545 S
C430 C429 1.351 . S
C430 N431 1.373 . S
C430 H458 0.930 . S
N431 C430 1.373 . S
N431 C433 1.340 . S
N432 C429 1.368 . S
N432 C433 1.321 . S
N432 Co435 2.135 . S
C433 N431 1.340 . S
C433 N432 1.321 . S
C433 H457 0.930 . S
H434 C429 0.931 1_565 S
Co435 N432 2.135 . S
Co435 N438 2.121 . S
Co435 O443 2.055 . S
Co435 O446 2.039 . S
Co435 N449 2.140 1_545 S
C436 O437 1.227 . S
C436 O446 1.265 . S
O437 C436 1.227 . S
N438 Co435 2.121 . S
N438 C440 1.375 . S
N438 C441 1.313 . S
C439 C440 1.338 1_565 S
C439 N442 1.377 1_565 S
C439 H459 0.930 . S
C440 N438 1.375 . S
C440 C439 1.338 1_545 S
C440 H444 0.931 . S
C441 N438 1.313 . S
C441 N442 1.344 . S
C441 H445 0.930 . S
N442 C439 1.377 1_545 S
N442 C441 1.344 . S
O443 Co435 2.055 . S
O443 C447 1.253 . S
H444 C440 0.931 . S
H445 C441 0.930 . S
O446 Co435 2.039 . S
O446 C436 1.265 . S
C447 O443 1.253 . S
C447 O448 1.227 1_545 S
O448 C447 1.227 1_565 S
N449 Co435 2.140 1_565 S
N449 C452 1.346 . S
N449 C453 1.345 . S
C450 C451 1.387 . S
C450 C454 1.391 . S
C451 C450 1.387 . S
C451 C452 1.369 . S
C451 H460 0.929 . S
C452 N449 1.346 . S
C452 C451 1.369 . S
C452 H455 0.928 . S
C453 N449 1.345 . S
C453 C454 1.371 . S
C453 H456 0.931 . S
C454 C450 1.391 . S
C454 C453 1.371 . S
C454 H461 0.930 . S
H455 C452 0.928 . S
H456 C453 0.931 . S
H457 C433 0.930 . S
H458 C430 0.930 . S
H459 C439 0.930 . S
H460 C451 0.929 . S
H461 C454 0.930 . S
C462 C463 1.351 . S
C462 N465 1.368 . S
C462 H467 0.931 . S
C463 C462 1.351 . S
C463 N464 1.373 . S
C463 H491 0.930 1_554 S
N464 C463 1.373 . S
N464 C466 1.340 . S
N465 C462 1.368 . S
N465 C466 1.321 . S
N465 Co468 2.135 . S
C466 N464 1.340 . S
C466 N465 1.321 . S
C466 H490 0.930 . S
H467 C462 0.931 . S
Co468 N465 2.135 . S
Co468 N471 2.121 . S
Co468 O476 2.055 . S
Co468 O479 2.039 . S
Co468 N482 2.140 . S
C469 O470 1.227 . S
C469 O479 1.265 . S
O470 C469 1.227 . S
N471 Co468 2.121 . S
N471 C473 1.375 . S
N471 C474 1.313 . S
C472 C473 1.338 . S
C472 N475 1.377 . S
C472 H492 0.930 . S
C473 N471 1.375 . S
C473 C472 1.338 . S
C473 H477 0.931 . S
C474 N471 1.313 . S
C474 N475 1.344 . S
C474 H478 0.930 . S
N475 C472 1.377 . S
N475 C474 1.344 . S
O476 Co468 2.055 . S
O476 C480 1.253 . S
H477 C473 0.931 . S
H478 C474 0.930 . S
O479 Co468 2.039 . S
O479 C469 1.265 . S
C480 O476 1.253 . S
C480 O481 1.227 . S
O481 C480 1.227 . S
N482 Co468 2.140 . S
N482 C485 1.346 . S
N482 C486 1.345 . S
C483 C484 1.387 . S
C483 C487 1.391 . S
C484 C483 1.387 . S
C484 C485 1.369 . S
C484 H493 0.929 . S
C485 N482 1.346 . S
C485 C484 1.369 . S
C485 H488 0.928 . S
C486 N482 1.345 . S
C486 C487 1.371 . S
C486 H489 0.931 . S
C487 C483 1.391 . S
C487 C486 1.371 . S
C487 H494 0.930 . S
H488 C485 0.928 . S
H489 C486 0.931 . S
H490 C466 0.930 . S
H491 C463 0.930 1_556 S
H492 C472 0.930 . S
H493 C484 0.929 . S
H494 C487 0.930 . S
C495 C496 1.351 . S
C495 N498 1.368 . S
C495 H500 0.931 . S
C496 C495 1.351 . S
C496 N497 1.373 . S
C496 H524 0.930 . S
N497 C496 1.373 . S
N497 C499 1.340 . S
N498 C495 1.368 . S
N498 C499 1.321 . S
N498 Co501 2.135 . S
C499 N497 1.340 . S
C499 N498 1.321 . S
C499 H523 0.930 . S
H500 C495 0.931 . S
Co501 N498 2.135 . S
Co501 N504 2.121 . S
Co501 O509 2.055 . S
Co501 O512 2.039 . S
Co501 N515 2.140 . S
C502 O503 1.227 . S
C502 O512 1.265 . S
O503 C502 1.227 . S
N504 Co501 2.121 . S
N504 C506 1.375 . S
N504 C507 1.313 . S
C505 C506 1.338 . S
C505 N508 1.377 . S
C505 H525 0.930 . S
C506 N504 1.375 . S
C506 C505 1.338 . S
C506 H510 0.931 . S
C507 N504 1.313 . S
C507 N508 1.344 . S
C507 H511 0.930 . S
N508 C505 1.377 . S
N508 C507 1.344 . S
O509 Co501 2.055 . S
O509 C513 1.253 1_655 S
H510 C506 0.931 . S
H511 C507 0.930 . S
O512 Co501 2.039 . S
O512 C502 1.265 . S
C513 O509 1.253 1_455 S
C513 O514 1.227 . S
O514 C513 1.227 . S
N515 Co501 2.140 . S
N515 C518 1.346 . S
N515 C519 1.345 . S
C516 C517 1.387 . S
C516 C520 1.391 . S
C517 C516 1.387 . S
C517 C518 1.369 . S
C517 H526 0.929 . S
C518 N515 1.346 . S
C518 C517 1.369 . S
C518 H521 0.928 . S
C519 N515 1.345 . S
C519 C520 1.371 . S
C519 H522 0.931 . S
C520 C516 1.391 . S
C520 C519 1.371 . S
C520 H527 0.930 . S
H521 C518 0.928 . S
H522 C519 0.931 . S
H523 C499 0.930 . S
H524 C496 0.930 . S
H525 C505 0.930 . S
H526 C517 0.929 . S
H527 C520 0.930 . S
N134 N2 1.909 1_556 S
N167 N35 1.909 . S
N68 N200 1.909 1_554 S
N233 N101 1.909 . S
N398 N266 1.909 1_554 S
N299 N431 1.909 . S
N332 N464 1.909 1_556 S
N365 N497 1.909 . S
C7 C414 3.240 1_655 S
C40 C447 3.241 1_565 S
C480 C73 3.240 . S
C106 C513 3.240 . S
C282 C139 3.241 1_455 S
C315 C172 3.240 1_545 S
C205 C348 3.240 . S
C381 C238 3.240 . S
C271 C150 3.240 1_455 S
C304 C183 3.241 1_545 S
C216 C337 3.240 . S
C370 C249 3.240 . S
C403 C18 3.241 1_455 S
C436 C51 3.240 1_545 S
C469 C84 3.240 . S
C117 C502 3.240 . S
N244 N13 2.902 1_455 S
N46 N145 2.902 1_465 S
N178 N79 2.902 1_565 S
N211 N112 2.903 . S
N277 N508 2.902 1_455 S
N409 N310 2.902 1_465 S
N343 N442 2.902 1_565 S
N475 N376 2.903 . S
C87 C21 1.459 . S
C120 C54 1.459 . S
C153 C219 1.459 . S
C252 C186 1.459 . S
C285 C351 1.459 . S
C384 C318 1.459 . S
C417 C483 1.459 . S
C450 C516 1.459 . S
