# Generated by pormake.
# Topology lvt, (4)-cn, num edge types: 1
# Building blocks:
#     Node 0, Type 0, BuildingBlock: MUDLON_clean_sbu_0, # of connection points: 4
#     Node 1, Type 0, BuildingBlock: MUDLON_clean_sbu_0, # of connection points: 4
#     Node 2, Type 0, BuildingBlock: MUDLON_clean_sbu_0, # of connection points: 4
#     Node 3, Type 0, BuildingBlock: MUDLON_clean_sbu_0, # of connection points: 4
#     Node 4, Type 0, BuildingBlock: MUDLON_clean_sbu_0, # of connection points: 4
#     Node 5, Type 0, BuildingBlock: MUDLON_clean_sbu_0, # of connection points: 4
#     Node 6, Type 0, BuildingBlock: MUDLON_clean_sbu_0, # of connection points: 4
#     Node 7, Type 0, BuildingBlock: MUDLON_clean_sbu_0, # of connection points: 4
#     Edge 8, Type (0, 0), BuildingBlock: XUDNAN_clean_linker_2, # of connection points: 2
#     Edge 9, Type (0, 0), BuildingBlock: XUDNAN_clean_linker_2, # of connection points: 2
#     Edge 10, Type (0, 0), BuildingBlock: XUDNAN_clean_linker_2, # of connection points: 2
#     Edge 11, Type (0, 0), BuildingBlock: XUDNAN_clean_linker_2, # of connection points: 2
#     Edge 12, Type (0, 0), BuildingBlock: XUDNAN_clean_linker_2, # of connection points: 2
#     Edge 13, Type (0, 0), BuildingBlock: XUDNAN_clean_linker_2, # of connection points: 2
#     Edge 14, Type (0, 0), BuildingBlock: XUDNAN_clean_linker_2, # of connection points: 2
#     Edge 15, Type (0, 0), BuildingBlock: XUDNAN_clean_linker_2, # of connection points: 2
#     Edge 16, Type (0, 0), BuildingBlock: XUDNAN_clean_linker_2, # of connection points: 2
#     Edge 17, Type (0, 0), BuildingBlock: XUDNAN_clean_linker_2, # of connection points: 2
#     Edge 18, Type (0, 0), BuildingBlock: XUDNAN_clean_linker_2, # of connection points: 2
#     Edge 19, Type (0, 0), BuildingBlock: XUDNAN_clean_linker_2, # of connection points: 2
#     Edge 20, Type (0, 0), BuildingBlock: XUDNAN_clean_linker_2, # of connection points: 2
#     Edge 21, Type (0, 0), BuildingBlock: XUDNAN_clean_linker_2, # of connection points: 2
#     Edge 22, Type (0, 0), BuildingBlock: XUDNAN_clean_linker_2, # of connection points: 2
#     Edge 23, Type (0, 0), BuildingBlock: XUDNAN_clean_linker_2, # of connection points: 2
# Relax obj value: 0.001
# Max RMSD: 0.037
# Mean RMSD: 0.026
data_MOF--net-lvt--node1-MUDLON_clean_sbu_0--edge1-XUDNAN_clean_linker_2
_symmetry_space_group_name_H-M    P1
_symmetry_Int_Tables_number       1
_symmetry_cell_setting            triclinic
loop_
_symmetry_equiv_pos_as_xyz
'x, y, z'
_cell_length_a     42.054971
_cell_length_b     41.980129
_cell_length_c     9.4257572
_cell_angle_alpha  90.120642
_cell_angle_beta   90.309793
_cell_angle_gamma 90.047227
loop_
_atom_site_label
_atom_site_type_symbol
_atom_site_fract_x
_atom_site_fract_y
_atom_site_fract_z
_atom_type_partial_charge
Mg0 Mg 0.04217 0.02669 0.63898 0.0
C1 C 0.08284 0.07409 0.51128 0.0
O2 O 0.08812 0.07554 0.64873 0.0
C3 C 0.99986 0.97527 0.71214 0.0
O4 O 1.01522 0.9833 0.82867 0.0
C5 C 0.99422 0.07437 0.67312 0.0
O6 O 0.99249 0.06309 0.5431 0.0
O7 O 1.01543 0.06293 0.75586 0.0
O8 O 0.06246 0.05405 0.46518 0.0
O9 O 0.08309 1.00033 0.7241 0.0
C10 C 0.09883 0.98758 0.62348 0.0
O11 O 0.08929 0.9926 0.49248 0.0
O12 O 1.00653 0.98999 0.59796 0.0
Mg13 Mg 0.28827 0.76805 0.00254 0.0
C14 C 0.2361 0.71594 0.10143 0.0
O15 O 0.24965 0.7136 0.22687 0.0
C16 C 0.33161 0.79814 0.22495 0.0
O17 O 0.34578 0.77031 0.21906 0.0
C18 C 0.24792 0.81934 0.91579 0.0
O19 O 0.24018 0.81116 0.04563 0.0
O20 O 0.27013 0.80386 0.85477 0.0
O21 O 0.24716 0.73545 0.01088 0.0
O22 O 0.33146 0.74061 0.95512 0.0
C23 C 0.33134 0.71045 0.97055 0.0
O24 O 0.30408 0.69594 0.991 0.0
O25 O 0.3042 0.80118 0.16835 0.0
Mg26 Mg 0.52202 0.02901 0.01228 0.0
C27 C 0.46812 0.98353 0.07686 0.0
O28 O 0.45667 0.9987 0.96603 0.0
C29 C 0.57198 0.07806 0.09672 0.0
O30 O 0.57152 0.0823 0.95864 0.0
C31 C 0.57343 0.98903 0.91525 0.0
O32 O 0.57574 0.99021 0.05431 0.0
O33 O 0.55133 1.00485 0.85565 0.0
O34 O 0.49547 0.99151 0.12441 0.0
O35 O 0.48687 0.06233 0.93239 0.0
C36 C 0.48312 0.07547 0.81202 0.0
O37 O 0.50267 0.0688 0.7079 0.0
O38 O 0.55384 0.05691 0.15031 0.0
Mg39 Mg 0.27079 0.2798 0.02896 0.0
C40 C 0.22282 0.23 0.04607 0.0
O41 O 0.22514 0.2372 0.91088 0.0
C42 C 0.3242 0.32186 0.07152 0.0
O43 O 0.31469 0.32563 0.93957 0.0
C44 C 0.23066 0.33186 0.08877 0.0
O45 O 0.24092 0.3192 0.20798 0.0
O46 O 0.23965 0.31928 0.97261 0.0
O47 O 0.24038 0.24496 0.13433 0.0
O48 O 0.29783 0.25189 0.87648 0.0
C49 C 0.31275 0.23136 0.95065 0.0
O50 O 0.30789 0.23115 0.08833 0.0
O51 O 0.30892 0.30249 0.14968 0.0
Mg52 Mg 0.77523 0.27423 0.57332 0.0
C53 C 0.81749 0.33012 0.54773 0.0
O54 O 0.81569 0.32518 0.68504 0.0
C55 C 0.72403 0.22751 0.54884 0.0
O56 O 0.73316 0.22779 0.68241 0.0
C57 C 0.82683 0.23777 0.74486 0.0
O58 O 0.81919 0.25766 0.84689 0.0
O59 O 0.81219 0.23938 0.6265 0.0
O60 O 0.80115 0.31235 0.46494 0.0
O61 O 0.75436 0.29453 0.76594 0.0
C62 C 0.73465 0.31689 0.79308 0.0
O63 O 0.72796 0.32237 0.92696 0.0
O64 O 0.73781 0.24657 0.46369 0.0
Mg65 Mg 0.77123 0.7788 0.55937 0.0
C66 C 0.82073 0.82619 0.59327 0.0
O67 O 0.81114 0.82775 0.46052 0.0
C68 C 0.74857 0.71648 0.70963 0.0
O69 O 0.77816 0.70684 0.69956 0.0
C70 C 0.82425 0.74157 0.46219 0.0
O71 O 0.82949 0.74847 0.59627 0.0
O72 O 0.79888 0.75196 0.40411 0.0
O73 O 0.80714 0.80633 0.67514 0.0
O74 O 0.73741 0.81579 0.49835 0.0
C75 C 0.72827 0.82859 0.61386 0.0
O76 O 0.74007 0.81751 0.7334 0.0
O77 O 0.74123 0.74455 0.67078 0.0
Mg78 Mg 0.55447 0.51046 0.15919 0.0
C79 C 0.51177 0.45811 0.22302 0.0
O80 O 0.52405 0.46727 0.34496 0.0
C81 C 0.60958 0.54262 0.02237 0.0
O82 O 0.62183 0.53394 0.14474 0.0
C83 C 0.60353 0.46439 0.22322 0.0
O84 O 0.59614 0.46153 0.08809 0.0
O85 O 0.58936 0.48586 0.29519 0.0
O86 O 0.52097 0.47204 0.1104 0.0
O87 O 0.52413 0.5504 0.22645 0.0
C88 C 0.49811 0.55182 0.15618 0.0
O89 O 0.49137 0.52864 0.06725 0.0
O90 O 0.58152 0.53347 0.9904 0.0
Mg91 Mg 0.03079 0.54097 0.45719 0.0
C92 C 0.98859 0.48671 0.38717 0.0
O93 O 1.00423 0.49227 0.26954 0.0
C94 C 0.0774 0.58266 0.60199 0.0
O95 O 0.07835 0.591 0.46775 0.0
C96 C 0.08403 0.5009 0.37772 0.0
O97 O 0.0812 0.49788 0.51585 0.0
O98 O 0.0654 0.51996 0.31364 0.0
O99 O 0.99549 0.50326 0.4968 0.0
O100 O 1.00388 0.5811 0.3737 0.0
C101 C 0.98437 0.58032 0.27006 0.0
O102 O 0.98176 0.55425 0.19374 0.0
O103 O 0.05831 0.56044 0.63743 0.0
H104 H 0.12804 0.11812 0.58526 0.0
H105 H 0.07877 0.07798 0.2203 0.0
H106 H 0.10955 0.11338 0.06236 0.0
H107 H 0.13122 0.19867 0.46093 0.0
H108 H 0.17029 0.20619 0.53315 0.0
H109 H 0.14458 0.1776 0.61674 0.0
H110 H 0.18808 0.13445 0.59312 0.0
H111 H 0.214 0.16283 0.50927 0.0
H112 H 0.20459 0.12583 0.42112 0.0
H113 H 0.14567 0.1531 0.94529 0.0
H114 H 0.18402 0.1944 0.87536 0.0
H115 H 0.20995 0.20882 0.31765 0.0
C116 C 0.12362 0.11671 0.47201 0.0
C117 C 0.10091 0.09523 0.41498 0.0
C118 C 0.09598 0.0942 0.26633 0.0
C119 C 0.11338 0.11422 0.17599 0.0
C120 C 0.13559 0.13506 0.23599 0.0
C121 C 0.14075 0.13644 0.38064 0.0
C122 C 0.16598 0.16094 0.41845 0.0
C123 C 0.15218 0.18742 0.51286 0.0
C124 C 0.19487 0.14505 0.48966 0.0
C125 C 0.17416 0.17331 0.27218 0.0
C126 C 0.15639 0.15799 0.16861 0.0
C127 C 0.15966 0.16524 0.02545 0.0
C128 C 0.18158 0.18881 0.98702 0.0
C129 C 0.20005 0.20498 0.09106 0.0
C130 C 0.19624 0.19697 0.23565 0.0
H131 H 0.11594 0.95602 0.87001 0.0
H132 H 0.14322 0.96945 0.43072 0.0
H133 H 0.18586 0.92979 0.45907 0.0
H134 H 0.19663 0.94308 0.01262 0.0
H135 H 0.18365 0.91284 0.13493 0.0
H136 H 0.15691 0.94433 0.08355 0.0
H137 H 0.1155 0.90236 0.00134 0.0
H138 H 0.14218 0.87078 0.05159 0.0
H139 H 0.12679 0.8726 0.87294 0.0
H140 H 0.224 0.88615 0.53076 0.0
H141 H 0.25444 0.84226 0.64287 0.0
H142 H 0.20189 0.85682 0.03288 0.0
C143 C 0.13131 0.95108 0.78085 0.0
C144 C 0.12628 0.96603 0.64846 0.0
C145 C 0.14656 0.95838 0.53341 0.0
C146 C 0.17095 0.93587 0.54835 0.0
C147 C 0.17492 0.92107 0.67917 0.0
C148 C 0.15575 0.92842 0.79367 0.0
C149 C 0.16398 0.90779 0.92038 0.0
C150 C 0.17602 0.92823 0.04521 0.0
C151 C 0.13541 0.88716 0.96405 0.0
C152 C 0.19046 0.88761 0.85866 0.0
C153 C 0.19658 0.89571 0.71969 0.0
C154 C 0.21956 0.87973 0.64002 0.0
C155 C 0.23672 0.85481 0.70431 0.0
C156 C 0.23064 0.84602 0.84652 0.0
C157 C 0.20725 0.86287 0.92398 0.0
H158 H 0.40828 0.96315 0.00299 0.0
H159 H 0.48669 0.94232 0.28913 0.0
H160 H 0.45732 0.89544 0.37897 0.0
H161 H 0.34385 0.93825 0.24069 0.0
H162 H 0.32061 0.92152 0.09754 0.0
H163 H 0.34667 0.95478 0.06482 0.0
H164 H 0.37498 0.92269 0.86724 0.0
H165 H 0.34893 0.88949 0.89889 0.0
H166 H 0.3914 0.8841 0.90808 0.0
H167 H 0.42153 0.84742 0.41857 0.0
H168 H 0.38263 0.80319 0.4051 0.0
H169 H 0.32668 0.85696 0.10137 0.0
C170 C 0.41917 0.94906 0.08605 0.0
C171 C 0.44986 0.95657 0.13911 0.0
C172 C 0.4632 0.93722 0.24707 0.0
C173 C 0.44665 0.91053 0.29894 0.0
C174 C 0.4166 0.90363 0.24297 0.0
C175 C 0.40293 0.92251 0.13942 0.0
C176 C 0.37113 0.90913 0.09119 0.0
C177 C 0.34396 0.93231 0.12567 0.0
C178 C 0.37167 0.90086 0.93197 0.0
C179 C 0.36924 0.87938 0.18169 0.0
C180 C 0.39565 0.87663 0.26889 0.0
C181 C 0.40047 0.8497 0.35288 0.0
C182 C 0.37821 0.82471 0.34495 0.0
C183 C 0.35123 0.82687 0.25488 0.0
C184 C 0.34645 0.85498 0.17498 0.0
H185 H 0.34428 0.18517 0.09303 0.0
H186 H 0.33492 0.22689 0.67409 0.0
H187 H 0.3769 0.19024 0.58581 0.0
H188 H 0.42765 0.17746 0.09208 0.0
H189 H 0.42746 0.14055 0.18944 0.0
H190 H 0.39591 0.16889 0.21404 0.0
H191 H 0.35429 0.12557 0.14918 0.0
H192 H 0.38572 0.09704 0.12465 0.0
H193 H 0.35765 0.1044 0.98332 0.0
H194 H 0.4225 0.14915 0.55011 0.0
H195 H 0.46532 0.10867 0.57044 0.0
H196 H 0.44237 0.09612 0.01523 0.0
C197 C 0.35073 0.18665 0.98213 0.0
C198 C 0.33626 0.20891 0.89031 0.0
C199 C 0.34562 0.20991 0.74621 0.0
C200 C 0.36945 0.18923 0.69546 0.0
C201 C 0.38349 0.16779 0.79031 0.0
C202 C 0.37423 0.16647 0.93062 0.0
C203 C 0.39309 0.14224 0.01379 0.0
C204 C 0.41216 0.15826 0.13436 0.0
C205 C 0.37139 0.11574 0.07102 0.0
C206 C 0.41466 0.12996 0.89886 0.0
C207 C 0.409 0.14478 0.77034 0.0
C208 C 0.42693 0.13738 0.65031 0.0
C209 C 0.4512 0.11438 0.66284 0.0
C210 C 0.45722 0.09912 0.79434 0.0
C211 C 0.43844 0.10711 0.91283 0.0
H212 H 0.95849 0.95569 0.50012 0.0
H213 H 0.98399 0.939 0.94081 0.0
H214 H 0.94114 0.89929 0.9595 0.0
H215 H 0.87415 0.94941 0.54708 0.0
H216 H 0.8672 0.92945 0.38025 0.0
H217 H 0.90045 0.9562 0.39974 0.0
H218 H 0.93886 0.91138 0.3208 0.0
H219 H 0.90571 0.88456 0.30048 0.0
H220 H 0.93869 0.87387 0.41362 0.0
H221 H 0.89478 0.86161 0.93232 0.0
H222 H 0.84894 0.82838 0.85765 0.0
H223 H 0.85363 0.86976 0.43643 0.0
C224 C 0.95519 0.94353 0.60012 0.0
C225 C 0.9747 0.95051 0.71874 0.0
C226 C 0.96942 0.93414 0.84811 0.0
C227 C 0.9451 0.91148 0.8601 0.0
C228 C 0.92615 0.90532 0.74175 0.0
C229 C 0.93093 0.92079 0.61412 0.0
C230 C 0.90692 0.90998 0.50369 0.0
C231 C 0.88594 0.93793 0.45488 0.0
C232 C 0.92355 0.89399 0.37721 0.0
C233 C 0.88802 0.88607 0.58922 0.0
C234 C 0.89943 0.88371 0.72635 0.0
C235 C 0.88565 0.8632 0.82498 0.0
C236 C 0.8596 0.84446 0.78187 0.0
C237 C 0.84764 0.84641 0.64144 0.0
C238 C 0.86213 0.86763 0.5447 0.0
H239 H 0.94899 0.1028 0.50862 0.0
H240 H 0.98787 0.10327 0.93609 0.0
H241 H 0.94902 0.14512 0.00326 0.0
H242 H 0.9353 0.18675 0.48125 0.0
H243 H 0.89904 0.18206 0.38044 0.0
H244 H 0.92983 0.15243 0.36843 0.0
H245 H 0.88955 0.10872 0.44068 0.0
H246 H 0.85864 0.13823 0.45315 0.0
H247 H 0.86749 0.1131 0.60304 0.0
H248 H 0.90511 0.18741 0.02088 0.0
H249 H 0.86115 0.22588 0.98831 0.0
H250 H 0.85184 0.19652 0.54825 0.0
C251 C 0.9495 0.1116 0.61672 0.0
C252 C 0.97156 0.09966 0.7173 0.0
C253 C 0.97125 0.11202 0.85724 0.0
C254 C 0.94925 0.13578 0.89615 0.0
C255 C 0.9278 0.14691 0.79384 0.0
C256 C 0.92787 0.13516 0.65688 0.0
C257 C 0.90257 0.15086 0.56597 0.0
C258 C 0.91759 0.16911 0.44174 0.0
C259 C 0.87812 0.12626 0.51264 0.0
C260 C 0.88803 0.17338 0.67297 0.0
C261 C 0.90284 0.17085 0.80384 0.0
C262 C 0.89342 0.18952 0.91878 0.0
C263 C 0.86838 0.21131 0.89915 0.0
C264 C 0.85291 0.21427 0.76572 0.0
C265 C 0.86299 0.19487 0.65172 0.0
H266 H 0.70259 0.21307 0.27521 0.0
H267 H 0.6886 0.18944 0.71917 0.0
H268 H 0.64872 0.14944 0.65147 0.0
H269 H 0.61949 0.20368 0.16792 0.0
H270 H 0.62887 0.18619 -0.00161 0.0
H271 H 0.65615 0.21382 0.08051 0.0
H272 H 0.70102 0.17184 0.06403 0.0
H273 H 0.67377 0.14413 0.98237 0.0
H274 H 0.69517 0.13299 0.14091 0.0
H275 H 0.61118 0.11094 0.53916 0.0
H276 H 0.57717 0.07716 0.38673 0.0
H277 H 0.61427 0.12477 0.01376 0.0
C278 C 0.69097 0.19963 0.35796 0.0
C279 C 0.69893 0.20455 0.50275 0.0
C280 C 0.68317 0.18625 0.60755 0.0
C281 C 0.66036 0.16335 0.57031 0.0
C282 C 0.65331 0.15881 0.42738 0.0
C283 C 0.66797 0.17643 0.32247 0.0
C284 C 0.6559 0.16635 0.17666 0.0
C285 C 0.6391 0.19417 0.10148 0.0
C286 C 0.68309 0.15303 0.08567 0.0
C287 C 0.6324 0.14033 0.21678 0.0
C288 C 0.63135 0.13644 0.36205 0.0
C289 C 0.6117 0.1138 0.42509 0.0
C290 C 0.59246 0.09465 0.33755 0.0
C291 C 0.5929 0.0982 0.18815 0.0
C292 C 0.61327 0.1214 0.12757 0.0
H293 H 0.6218 0.95349 0.02221 0.0
H294 H 0.57475 0.97742 0.62582 0.0
H295 H 0.61075 0.94043 0.498 0.0
H296 H 0.70136 0.94636 0.88397 0.0
H297 H 0.71103 0.91357 -0.00041 0.0
H298 H 0.68259 0.94307 0.05484 0.0
H299 H 0.64084 0.89868 0.0969 0.0
H300 H 0.66908 0.86907 0.04162 0.0
H301 H 0.63092 0.87167 0.95439 0.0
H302 H 0.65201 0.89799 0.41715 0.0
H303 H 0.69279 0.85539 0.39482 0.0
H304 H 0.71049 0.86129 0.84813 0.0
C305 C 0.61907 0.95129 0.90818 0.0
C306 C 0.59544 0.96841 0.83399 0.0
C307 C 0.59275 0.96459 0.68487 0.0
C308 C 0.61311 0.94363 0.61158 0.0
C309 C 0.63599 0.92682 0.68901 0.0
C310 C 0.63897 0.93063 0.83428 0.0
C311 C 0.66449 0.90943 0.89557 0.0
C312 C 0.69146 0.9293 0.96236 0.0
C313 C 0.65048 0.88582 0.00339 0.0
C314 C 0.67536 0.89268 0.76264 0.0
C315 C 0.65896 0.90293 0.64382 0.0
C316 C 0.665 0.88996 0.50977 0.0
C317 C 0.68819 0.86581 0.49796 0.0
C318 C 0.70481 0.85491 0.61964 0.0
C319 C 0.69828 0.8689 0.75269 0.0
H320 H 0.67308 0.55651 0.02226 0.0
H321 H 0.58275 0.58629 0.84217 0.0
H322 H 0.6087 0.63402 0.74166 0.0
H323 H 0.70062 0.63153 0.12456 0.0
H324 H 0.74158 0.62489 0.07771 0.0
H325 H 0.71674 0.59175 0.12598 0.0
H326 H 0.72917 0.56368 0.8876 0.0
H327 H 0.7546 0.59646 0.83969 0.0
H328 H 0.72253 0.58462 0.72332 0.0
H329 H 0.64319 0.68153 0.68634 0.0
H330 H 0.68526 0.72145 0.64666 0.0
H331 H 0.75402 0.65936 0.85119 0.0
C332 C 0.65891 0.57272 0.95897 0.0
C333 C 0.6259 0.56768 0.93972 0.0
C334 C 0.60812 0.58948 0.85689 0.0
C335 C 0.62261 0.6168 0.80042 0.0
C336 C 0.65499 0.62162 0.8257 0.0
C337 C 0.67309 0.5998 0.90006 0.0
C338 C 0.70738 0.6107 0.91318 0.0
C339 C 0.71713 0.61497 0.06965 0.0
C340 C 0.72974 0.58749 0.83633 0.0
C341 C 0.70562 0.64245 0.8374 0.0
C342 C 0.67512 0.6484 0.78885 0.0
C343 C 0.66725 0.67688 0.72185 0.0
C344 C 0.69131 0.69954 0.70085 0.0
C345 C 0.72301 0.69349 0.74515 0.0
C346 C 0.7301 0.66457 0.81507 0.0
H347 H 0.6948 0.36761 0.83436 0.0
H348 H 0.73793 0.31151 0.49956 0.0
H349 H 0.71141 0.34498 0.32074 0.0
H350 H 0.61937 0.37684 0.66398 0.0
H351 H 0.61329 0.41687 0.72782 0.0
H352 H 0.63713 0.38946 0.82933 0.0
H353 H 0.68393 0.4295 0.82641 0.0
H354 H 0.66029 0.45698 0.72409 0.0
H355 H 0.69844 0.44415 0.65909 0.0
H356 H 0.67901 0.38373 0.17798 0.0
H357 H 0.64207 0.4235 0.08051 0.0
H358 H 0.61847 0.45435 0.50731 0.0
C359 C 0.69895 0.36234 0.72342 0.0
C360 C 0.7191 0.33689 0.68186 0.0
C361 C 0.72335 0.33092 0.53532 0.0
C362 C 0.70817 0.34987 0.43254 0.0
C363 C 0.6886 0.37469 0.47765 0.0
C364 C 0.68384 0.38091 0.61969 0.0
C365 C 0.66068 0.4083 0.64023 0.0
C366 C 0.63085 0.39719 0.72002 0.0
C367 C 0.67681 0.43639 0.71697 0.0
C368 C 0.653 0.41647 0.48709 0.0
C369 C 0.66952 0.39683 0.39531 0.0
C370 C 0.66603 0.39923 0.24888 0.0
C371 C 0.64487 0.42198 0.19465 0.0
C372 C 0.62724 0.44217 0.28611 0.0
C373 C 0.6317 0.4395 0.43455 0.0
H374 H 0.85362 0.37219 0.70257 0.0
H375 H 0.8335 0.34224 0.27012 0.0
H376 H 0.8745 0.37964 0.1833 0.0
H377 H 0.86794 0.4559 0.62366 0.0
H378 H 0.89935 0.45953 0.75361 0.0
H379 H 0.86761 0.43137 0.78044 0.0
H380 H 0.90888 0.38603 0.80682 0.0
H381 H 0.94073 0.41397 0.77909 0.0
H382 H 0.93725 0.37924 0.66726 0.0
H383 H 0.91956 0.41811 0.14541 0.0
H384 H 0.96345 0.4568 0.15557 0.0
H385 H 0.95399 0.46276 0.61349 0.0
C386 C 0.85757 0.37364 0.5893 0.0
C387 C 0.84026 0.35419 0.493 0.0
C388 C 0.84631 0.35689 0.34585 0.0
C389 C 0.86962 0.37804 0.29571 0.0
C390 C 0.88655 0.39645 0.39391 0.0
C391 C 0.88063 0.39466 0.53756 0.0
C392 C 0.90244 0.41675 0.62108 0.0
C393 C 0.88318 0.44242 0.69927 0.0
C394 C 0.92357 0.39786 0.72463 0.0
C395 C 0.92185 0.43108 0.502 0.0
C396 C 0.91229 0.41895 0.37198 0.0
C397 C 0.92707 0.42789 0.24653 0.0
C398 C 0.95214 0.44988 0.25378 0.0
C399 C 0.96228 0.46297 0.38548 0.0
C400 C 0.94678 0.45336 0.51123 0.0
H401 H 0.88304 0.72487 0.55401 0.0
H402 H 0.81678 0.71006 0.20569 0.0
H403 H 0.85375 0.67042 0.10122 0.0
H404 H 0.9568 0.71522 0.35216 0.0
H405 H 0.97623 0.69493 0.49695 0.0
H406 H 0.94622 0.72445 0.53273 0.0
H407 H 0.91467 0.68317 0.68026 0.0
H408 H 0.94446 0.65358 0.64491 0.0
H409 H 0.90348 0.64576 0.59994 0.0
H410 H 0.89609 0.62786 0.05165 0.0
H411 H 0.93894 0.58749 0.06078 0.0
H412 H 0.97658 0.6321 0.44202 0.0
C413 C 0.87639 0.71376 0.45434 0.0
C414 C 0.84701 0.72056 0.38781 0.0
C415 C 0.83928 0.70535 0.25791 0.0
C416 C 0.86013 0.68282 0.19806 0.0
C417 C 0.88865 0.67615 0.26887 0.0
C418 C 0.89678 0.69147 0.39378 0.0
C419 C 0.92751 0.67886 0.45553 0.0
C420 C 0.95321 0.70492 0.4595 0.0
C421 C 0.92219 0.66449 0.60384 0.0
C422 C 0.93527 0.65343 0.34767 0.0
C423 C 0.9128 0.65223 0.24009 0.0
C424 C 0.91402 0.62897 0.13427 0.0
C425 C 0.93847 0.60613 0.14035 0.0
C426 C 0.96129 0.60671 0.25159 0.0
C427 C 0.95987 0.63118 0.35432 0.0
H428 H 0.47012 0.44285 0.00587 0.0
H429 H 0.49521 0.41875 0.43992 0.0
H430 H 0.45042 0.38096 0.449 0.0
H431 H 0.38623 0.4411 0.0567 0.0
H432 H 0.37736 0.42418 0.88506 0.0
H433 H 0.41244 0.44825 0.90941 0.0
H434 H 0.44746 0.4022 0.81458 0.0
H435 H 0.41246 0.37807 0.78896 0.0
H436 H 0.44494 0.36347 0.89604 0.0
H437 H 0.4016 0.34681 0.41413 0.0
H438 H 0.35319 0.31819 0.33391 0.0
H439 H 0.35982 0.36498 0.9247 0.0
C440 C 0.46647 0.42928 0.10194 0.0
C441 C 0.48629 0.4337 0.22185 0.0
C442 C 0.48038 0.4158 0.34648 0.0
C443 C 0.45498 0.39422 0.35288 0.0
C444 C 0.43557 0.39077 0.2338 0.0
C445 C 0.44105 0.4077 0.11049 0.0
C446 C 0.41604 0.40024 -0.0009 0.0
C447 C 0.39689 0.43023 0.96036 0.0
C448 C 0.43113 0.38509 0.86689 0.0
C449 C 0.39579 0.37645 0.07895 0.0
C450 C 0.40738 0.3713 0.21422 0.0
C451 C 0.39235 0.35055 0.30809 0.0
C452 C 0.36483 0.33445 0.2619 0.0
C453 C 0.35269 0.33926 0.12318 0.0
C454 C 0.36847 0.36066 0.03142 0.0
H455 H 0.33959 0.64585 0.96236 0.0
H456 H 0.39098 0.73423 0.03079 0.0
H457 H 0.43898 0.70355 0.09853 0.0
H458 H 0.37268 0.60268 0.24919 0.0
H459 H 0.3748 0.56539 0.15452 0.0
H460 H 0.34492 0.59426 0.10752 0.0
H461 H 0.36457 0.59442 0.84732 0.0
H462 H 0.39407 0.56507 0.89288 0.0
H463 H 0.40595 0.602 0.81145 0.0
H464 H 0.48086 0.66208 0.17389 0.0
H465 H 0.51428 0.6142 0.21551 0.0
H466 H 0.43518 0.55397 0.08964 0.0
C467 C 0.36103 0.65882 0.9899 0.0
C468 C 0.36146 0.69248 0.99132 0.0
C469 C 0.39009 0.70846 0.0279 0.0
C470 C 0.41742 0.69121 0.0677 0.0
C471 C 0.41587 0.65799 0.06901 0.0
C472 C 0.38852 0.64202 0.02829 0.0
C473 C 0.39296 0.60629 0.03585 0.0
C474 C 0.36997 0.59129 0.14317 0.0
C475 C 0.38918 0.59106 0.88809 0.0
C476 C 0.42702 0.60451 0.08801 0.0
C477 C 0.43985 0.6345 0.10828 0.0
C478 C 0.47102 0.63851 0.15758 0.0
C479 C 0.48976 0.61121 0.18236 0.0
C480 C 0.47733 0.58038 0.15618 0.0
C481 C 0.44539 0.57722 0.11075 0.0
H482 H 0.20924 0.70911 0.83726 0.0
H483 H 0.2035 0.67268 0.26689 0.0
H484 H 0.16147 0.63491 0.18979 0.0
H485 H 0.12554 0.70397 0.75262 0.0
H486 H 0.13252 0.69213 0.57151 0.0
H487 H 0.16113 0.71671 0.6632 0.0
H488 H 0.20521 0.6755 0.60815 0.0
H489 H 0.1767 0.65071 0.51716 0.0
H490 H 0.19994 0.63461 0.66131 0.0
H491 H 0.12005 0.5997 0.05914 0.0
H492 H 0.08418 0.57154 0.89042 0.0
H493 H 0.1186 0.63154 0.54972 0.0
C494 C 0.19905 0.69342 0.91592 0.0
C495 C 0.20973 0.69405 0.05861 0.0
C496 C 0.19577 0.67277 0.1571 0.0
C497 C 0.17185 0.65119 0.11414 0.0
C498 C 0.16215 0.65104 0.9721 0.0
C499 C 0.1754 0.6717 0.8748 0.0
C500 C 0.16153 0.66659 0.72786 0.0
C501 C 0.14414 0.69664 0.6758 0.0
C502 C 0.18739 0.65623 0.62248 0.0
C503 C 0.13841 0.63976 0.75695 0.0
C504 C 0.13891 0.63102 0.89821 0.0
C505 C 0.11951 0.60648 0.94844 0.0
C506 C 0.09918 0.59059 0.85186 0.0
C507 C 0.09844 0.59923 0.70653 0.0
C508 C 0.11842 0.62421 0.65983 0.0
H509 H 0.21062 0.36224 0.3261 0.0
H510 H 0.20201 0.36474 0.86721 0.0
H511 H 0.16523 0.41083 0.88743 0.0
H512 H 0.13054 0.37908 0.40282 0.0
H513 H 0.13981 0.40273 0.55749 0.0
H514 H 0.16627 0.37139 0.50358 0.0
H515 H 0.21286 0.41176 0.49382 0.0
H516 H 0.18646 0.44326 0.54739 0.0
H517 H 0.20905 0.44704 0.3863 0.0
H518 H 0.12722 0.45613 0.96426 0.0
H519 H 0.09183 0.49435 0.08793 0.0
H520 H 0.12724 0.46029 0.49335 0.0
C521 C 0.20126 0.37244 0.22917 0.0
C522 C 0.20923 0.35985 0.09493 0.0
C523 C 0.19626 0.37403 0.97128 0.0
C524 C 0.1754 0.40022 0.98184 0.0
C525 C 0.16797 0.41189 0.11673 0.0
C526 C 0.18065 0.39832 0.23787 0.0
C527 C 0.16853 0.41421 0.37092 0.0
C528 C 0.15019 0.39044 0.46408 0.0
C529 C 0.19586 0.43001 0.45445 0.0
C530 C 0.14663 0.43875 0.30656 0.0
C531 C 0.14659 0.43736 0.15995 0.0
C532 C 0.12728 0.45745 0.07898 0.0
C533 C 0.10729 0.47912 0.14996 0.0
C534 C 0.10675 0.48034 0.30028 0.0
C535 C 0.12705 0.46009 0.37836 0.0
loop_
_geom_bond_atom_site_label_1
_geom_bond_atom_site_label_2
_geom_bond_distance
_geom_bond_site_symmetry_2
_ccdc_geom_bond_type
Mg0 O7 2.141 1_455 S
Mg0 O8 2.048 . S
Mg0 O9 2.048 1_545 S
Mg0 O12 2.141 1_445 S
C1 O2 1.313 . S
C1 O8 1.195 . S
O2 C1 1.313 . S
C3 O4 1.245 . S
C3 O12 1.289 . S
O4 C3 1.245 . S
C5 O6 1.245 . S
C5 O7 1.289 . S
O6 C5 1.245 . S
O7 Mg0 2.141 1_655 S
O7 C5 1.289 . S
O8 Mg0 2.048 . S
O8 C1 1.195 . S
O9 Mg0 2.048 1_565 S
O9 C10 1.195 . S
C10 O9 1.195 . S
C10 O11 1.313 . S
O11 C10 1.313 . S
O12 Mg0 2.141 1_665 S
O12 C3 1.289 . S
Mg13 O20 2.141 . S
Mg13 O21 2.048 . S
Mg13 O22 2.048 . S
Mg13 O25 2.141 . S
C14 O15 1.313 . S
C14 O21 1.195 . S
O15 C14 1.313 . S
C16 O17 1.245 1_556 S
C16 O25 1.289 . S
O17 C16 1.245 1_554 S
C18 O19 1.245 . S
C18 O20 1.289 . S
O19 C18 1.245 . S
O20 Mg13 2.141 . S
O20 C18 1.289 . S
O21 Mg13 2.048 . S
O21 C14 1.195 . S
O22 Mg13 2.048 . S
O22 C23 1.195 . S
C23 O22 1.195 . S
C23 O24 1.313 . S
O24 C23 1.313 . S
O25 Mg13 2.141 . S
O25 C16 1.289 . S
Mg26 O33 2.141 . S
Mg26 O34 2.048 . S
Mg26 O35 2.048 1_565 S
Mg26 O38 2.141 1_565 S
C27 O28 1.313 1_554 S
C27 O34 1.195 . S
O28 C27 1.313 1_556 S
C29 O30 1.245 . S
C29 O38 1.289 . S
O30 C29 1.245 . S
C31 O32 1.245 1_554 S
C31 O33 1.289 . S
O32 C31 1.245 1_556 S
O33 Mg26 2.141 . S
O33 C31 1.289 . S
O34 Mg26 2.048 . S
O34 C27 1.195 . S
O35 Mg26 2.048 1_545 S
O35 C36 1.195 . S
C36 O35 1.195 . S
C36 O37 1.313 . S
O37 C36 1.313 . S
O38 Mg26 2.141 1_545 S
O38 C29 1.289 . S
Mg39 O46 2.141 . S
Mg39 O47 2.048 . S
Mg39 O48 2.048 . S
Mg39 O51 2.141 . S
C40 O41 1.313 . S
C40 O47 1.195 . S
O41 C40 1.313 . S
C42 O43 1.245 . S
C42 O51 1.289 . S
O43 C42 1.245 . S
C44 O45 1.245 . S
C44 O46 1.289 . S
O45 C44 1.245 . S
O46 Mg39 2.141 . S
O46 C44 1.289 . S
O47 Mg39 2.048 . S
O47 C40 1.195 . S
O48 Mg39 2.048 . S
O48 C49 1.195 . S
C49 O48 1.195 . S
C49 O50 1.313 . S
O50 C49 1.313 . S
O51 Mg39 2.141 . S
O51 C42 1.289 . S
Mg52 O59 2.141 . S
Mg52 O60 2.048 . S
Mg52 O61 2.048 . S
Mg52 O64 2.141 . S
C53 O54 1.313 . S
C53 O60 1.195 . S
O54 C53 1.313 . S
C55 O56 1.245 . S
C55 O64 1.289 . S
O56 C55 1.245 . S
C57 O58 1.245 . S
C57 O59 1.289 . S
O58 C57 1.245 . S
O59 Mg52 2.141 . S
O59 C57 1.289 . S
O60 Mg52 2.048 . S
O60 C53 1.195 . S
O61 Mg52 2.048 . S
O61 C62 1.195 . S
C62 O61 1.195 . S
C62 O63 1.313 . S
O63 C62 1.313 . S
O64 Mg52 2.141 . S
O64 C55 1.289 . S
Mg65 O72 2.141 . S
Mg65 O73 2.048 . S
Mg65 O74 2.048 . S
Mg65 O77 2.141 . S
C66 O67 1.313 . S
C66 O73 1.195 . S
O67 C66 1.313 . S
C68 O69 1.245 . S
C68 O77 1.289 . S
O69 C68 1.245 . S
C70 O71 1.245 . S
C70 O72 1.289 . S
O71 C70 1.245 . S
O72 Mg65 2.141 . S
O72 C70 1.289 . S
O73 Mg65 2.048 . S
O73 C66 1.195 . S
O74 Mg65 2.048 . S
O74 C75 1.195 . S
C75 O74 1.195 . S
C75 O76 1.310 1_556 S
O76 C75 1.310 1_554 S
O77 Mg65 2.141 . S
O77 C68 1.289 . S
Mg78 O85 2.141 . S
Mg78 O86 2.048 . S
Mg78 O87 2.048 . S
Mg78 O90 2.141 . S
C79 O80 1.313 1_554 S
C79 O86 1.195 . S
O80 C79 1.313 1_556 S
C81 O82 1.245 . S
C81 O90 1.289 1_556 S
O82 C81 1.245 . S
C83 O84 1.245 1_554 S
C83 O85 1.289 . S
O84 C83 1.245 1_556 S
O85 Mg78 2.141 . S
O85 C83 1.289 . S
O86 Mg78 2.048 . S
O86 C79 1.195 . S
O87 Mg78 2.048 . S
O87 C88 1.195 1_554 S
C88 O87 1.195 1_556 S
C88 O89 1.313 . S
O89 C88 1.313 . S
O90 Mg78 2.141 . S
O90 C81 1.289 1_554 S
Mg91 O98 2.141 . S
Mg91 O99 2.048 1_455 S
Mg91 O100 2.048 1_455 S
Mg91 O103 2.141 . S
C92 O93 1.313 . S
C92 O99 1.195 . S
O93 C92 1.313 . S
C94 O95 1.245 . S
C94 O103 1.289 . S
O95 C94 1.245 . S
C96 O97 1.245 . S
C96 O98 1.289 . S
O97 C96 1.245 . S
O98 Mg91 2.141 . S
O98 C96 1.289 . S
O99 Mg91 2.048 1_655 S
O99 C92 1.195 . S
O100 Mg91 2.048 1_655 S
O100 C101 1.195 . S
C101 O100 1.195 . S
C101 O102 1.313 . S
O102 C101 1.313 . S
O103 Mg91 2.141 . S
O103 C94 1.289 . S
H104 C116 0.930 . S
H105 C118 0.930 . S
H106 C119 0.930 . S
H107 C123 0.959 . S
H108 C123 0.959 . S
H109 C123 0.961 . S
H110 C124 0.960 . S
H111 C124 0.961 . S
H112 C124 0.959 . S
H113 C127 0.929 . S
H114 C128 0.931 . S
H115 C130 0.930 . S
C116 H104 0.930 . S
C116 C117 1.399 . S
C116 C121 1.399 . S
C117 C116 1.399 . S
C117 C118 1.376 . S
C118 H105 0.930 . S
C118 C117 1.376 . S
C118 C119 1.388 . S
C119 H106 0.930 . S
C119 C118 1.388 . S
C119 C120 1.390 . S
C120 C119 1.390 . S
C120 C121 1.394 . S
C120 C126 1.465 . S
C121 C116 1.399 . S
C121 C120 1.394 . S
C121 C122 1.516 . S
C122 C121 1.516 . S
C122 C123 1.502 . S
C122 C124 1.561 . S
C122 C125 1.526 . S
C123 H107 0.959 . S
C123 H108 0.959 . S
C123 H109 0.961 . S
C123 C122 1.502 . S
C124 H110 0.960 . S
C124 H111 0.961 . S
C124 H112 0.959 . S
C124 C122 1.561 . S
C125 C122 1.526 . S
C125 C126 1.396 . S
C125 C130 1.390 . S
C126 C120 1.465 . S
C126 C125 1.396 . S
C126 C127 1.399 . S
C127 H113 0.929 . S
C127 C126 1.399 . S
C127 C128 1.385 . S
C128 H114 0.931 . S
C128 C127 1.385 . S
C128 C129 1.389 . S
C129 C128 1.389 . S
C129 C130 1.387 . S
C130 H115 0.930 . S
C130 C125 1.390 . S
C130 C129 1.387 . S
H131 C143 0.930 . S
H132 C145 0.930 . S
H133 C146 0.930 . S
H134 C150 0.959 . S
H135 C150 0.959 . S
H136 C150 0.961 . S
H137 C151 0.960 . S
H138 C151 0.961 . S
H139 C151 0.959 . S
H140 C154 0.929 . S
H141 C155 0.931 . S
H142 C157 0.930 . S
C143 H131 0.930 . S
C143 C144 1.399 . S
C143 C148 1.399 . S
C144 C143 1.399 . S
C144 C145 1.376 . S
C145 H132 0.930 . S
C145 C144 1.376 . S
C145 C146 1.388 . S
C146 H133 0.930 . S
C146 C145 1.388 . S
C146 C147 1.390 . S
C147 C146 1.390 . S
C147 C148 1.394 . S
C147 C153 1.465 . S
C148 C143 1.399 . S
C148 C147 1.394 . S
C148 C149 1.516 . S
C149 C148 1.516 . S
C149 C150 1.502 . S
C149 C151 1.561 1_556 S
C149 C152 1.526 . S
C150 H134 0.959 . S
C150 H135 0.959 . S
C150 H136 0.961 . S
C150 C149 1.502 . S
C151 H137 0.960 . S
C151 H138 0.961 . S
C151 H139 0.959 . S
C151 C149 1.561 1_554 S
C152 C149 1.526 . S
C152 C153 1.396 . S
C152 C157 1.390 . S
C153 C147 1.465 . S
C153 C152 1.396 . S
C153 C154 1.399 . S
C154 H140 0.929 . S
C154 C153 1.399 . S
C154 C155 1.385 . S
C155 H141 0.931 . S
C155 C154 1.385 . S
C155 C156 1.389 . S
C156 C155 1.389 . S
C156 C157 1.387 . S
C157 H142 0.930 . S
C157 C152 1.390 . S
C157 C156 1.387 . S
H158 C170 0.930 . S
H159 C172 0.930 . S
H160 C173 0.930 . S
H161 C177 0.959 . S
H162 C177 0.959 . S
H163 C177 0.961 . S
H164 C178 0.960 . S
H165 C178 0.961 . S
H166 C178 0.959 . S
H167 C181 0.929 . S
H168 C182 0.931 . S
H169 C184 0.930 . S
C170 H158 0.930 . S
C170 C171 1.399 1_556 S
C170 C175 1.399 . S
C171 C170 1.399 1_554 S
C171 C172 1.376 . S
C172 H159 0.930 . S
C172 C171 1.376 . S
C172 C173 1.388 . S
C173 H160 0.930 . S
C173 C172 1.388 . S
C173 C174 1.390 . S
C174 C173 1.390 . S
C174 C175 1.394 1_554 S
C174 C180 1.465 . S
C175 C170 1.399 . S
C175 C174 1.394 1_556 S
C175 C176 1.516 . S
C176 C175 1.516 . S
C176 C177 1.502 . S
C176 C178 1.561 . S
C176 C179 1.526 . S
C177 H161 0.959 . S
C177 H162 0.959 . S
C177 H163 0.961 . S
C177 C176 1.502 . S
C178 H164 0.960 . S
C178 H165 0.961 . S
C178 H166 0.959 . S
C178 C176 1.561 . S
C179 C176 1.526 . S
C179 C180 1.396 1_556 S
C179 C184 1.390 . S
C180 C174 1.465 . S
C180 C179 1.396 1_554 S
C180 C181 1.399 . S
C181 H167 0.929 . S
C181 C180 1.399 . S
C181 C182 1.385 . S
C182 H168 0.931 . S
C182 C181 1.385 . S
C182 C183 1.389 1_554 S
C183 C182 1.389 1_556 S
C183 C184 1.387 . S
C184 H169 0.930 . S
C184 C179 1.390 . S
C184 C183 1.387 . S
H185 C197 0.930 . S
H186 C199 0.930 . S
H187 C200 0.930 1_556 S
H188 C204 0.959 . S
H189 C204 0.959 . S
H190 C204 0.961 . S
H191 C205 0.960 . S
H192 C205 0.961 . S
H193 C205 0.959 . S
H194 C208 0.929 1_556 S
H195 C209 0.931 . S
H196 C211 0.930 . S
C197 H185 0.930 . S
C197 C198 1.399 . S
C197 C202 1.399 . S
C198 C197 1.399 . S
C198 C199 1.376 . S
C199 H186 0.930 . S
C199 C198 1.376 . S
C199 C200 1.388 . S
C200 H187 0.930 1_554 S
C200 C199 1.388 . S
C200 C201 1.390 . S
C201 C200 1.390 . S
C201 C202 1.394 . S
C201 C207 1.465 . S
C202 C197 1.399 . S
C202 C201 1.394 . S
C202 C203 1.516 . S
C203 C202 1.516 . S
C203 C204 1.502 . S
C203 C205 1.561 . S
C203 C206 1.526 . S
C204 H188 0.959 . S
C204 H189 0.959 . S
C204 H190 0.961 . S
C204 C203 1.502 . S
C205 H191 0.960 . S
C205 H192 0.961 . S
C205 H193 0.959 . S
C205 C203 1.561 . S
C206 C203 1.526 . S
C206 C207 1.396 . S
C206 C211 1.390 . S
C207 C201 1.465 . S
C207 C206 1.396 . S
C207 C208 1.399 . S
C208 H194 0.929 1_554 S
C208 C207 1.399 . S
C208 C209 1.385 . S
C209 H195 0.931 . S
C209 C208 1.385 . S
C209 C210 1.389 . S
C210 C209 1.389 . S
C210 C211 1.387 . S
C211 H196 0.930 . S
C211 C206 1.390 . S
C211 C210 1.387 . S
H212 C224 0.930 . S
H213 C226 0.930 . S
H214 C227 0.930 . S
H215 C231 0.959 . S
H216 C231 0.959 . S
H217 C231 0.961 . S
H218 C232 0.960 . S
H219 C232 0.961 1_554 S
H220 C232 0.959 . S
H221 C235 0.929 . S
H222 C236 0.931 . S
H223 C238 0.930 . S
C224 H212 0.930 . S
C224 C225 1.399 . S
C224 C229 1.399 . S
C225 C224 1.399 . S
C225 C226 1.376 . S
C226 H213 0.930 . S
C226 C225 1.376 . S
C226 C227 1.388 . S
C227 H214 0.930 . S
C227 C226 1.388 . S
C227 C228 1.390 . S
C228 C227 1.390 . S
C228 C229 1.394 . S
C228 C234 1.465 . S
C229 C224 1.399 . S
C229 C228 1.394 . S
C229 C230 1.516 . S
C230 C229 1.516 . S
C230 C231 1.502 1_556 S
C230 C232 1.561 . S
C230 C233 1.526 . S
C231 H215 0.959 . S
C231 H216 0.959 . S
C231 H217 0.961 . S
C231 C230 1.502 1_554 S
C232 H218 0.960 . S
C232 H219 0.961 1_556 S
C232 H220 0.959 . S
C232 C230 1.561 . S
C233 C230 1.526 . S
C233 C234 1.396 . S
C233 C238 1.390 . S
C234 C228 1.465 . S
C234 C233 1.396 . S
C234 C235 1.399 . S
C235 H221 0.929 . S
C235 C234 1.399 . S
C235 C236 1.385 . S
C236 H222 0.931 . S
C236 C235 1.385 . S
C236 C237 1.389 . S
C237 C236 1.389 . S
C237 C238 1.387 . S
C238 H223 0.930 . S
C238 C233 1.390 . S
C238 C237 1.387 . S
H239 C251 0.930 . S
H240 C253 0.930 . S
H241 C254 0.930 . S
H242 C258 0.959 . S
H243 C258 0.959 . S
H244 C258 0.961 . S
H245 C259 0.960 . S
H246 C259 0.961 . S
H247 C259 0.959 . S
H248 C262 0.929 . S
H249 C263 0.931 . S
H250 C265 0.930 . S
C251 H239 0.930 . S
C251 C252 1.399 . S
C251 C256 1.399 . S
C252 C251 1.399 . S
C252 C253 1.376 . S
C253 H240 0.930 . S
C253 C252 1.376 . S
C253 C254 1.388 . S
C254 H241 0.930 . S
C254 C253 1.388 . S
C254 C255 1.390 . S
C255 C254 1.390 . S
C255 C256 1.394 . S
C255 C261 1.465 . S
C256 C251 1.399 . S
C256 C255 1.394 . S
C256 C257 1.516 . S
C257 C256 1.516 . S
C257 C258 1.502 . S
C257 C259 1.561 . S
C257 C260 1.526 . S
C258 H242 0.959 . S
C258 H243 0.959 . S
C258 H244 0.961 . S
C258 C257 1.502 . S
C259 H245 0.960 . S
C259 H246 0.961 . S
C259 H247 0.959 . S
C259 C257 1.561 . S
C260 C257 1.526 . S
C260 C261 1.396 . S
C260 C265 1.390 . S
C261 C255 1.465 . S
C261 C260 1.396 . S
C261 C262 1.399 . S
C262 H248 0.929 . S
C262 C261 1.399 . S
C262 C263 1.385 . S
C263 H249 0.931 . S
C263 C262 1.385 . S
C263 C264 1.389 . S
C264 C263 1.389 . S
C264 C265 1.387 . S
C265 H250 0.930 . S
C265 C260 1.390 . S
C265 C264 1.387 . S
H266 C278 0.930 . S
H267 C280 0.930 . S
H268 C281 0.930 . S
H269 C285 0.959 . S
H270 C285 0.959 . S
H271 C285 0.961 . S
H272 C286 0.960 1_556 S
H273 C286 0.961 1_556 S
H274 C286 0.959 . S
H275 C289 0.929 . S
H276 C290 0.931 . S
H277 C292 0.930 . S
C278 H266 0.930 . S
C278 C279 1.399 . S
C278 C283 1.399 . S
C279 C278 1.399 . S
C279 C280 1.376 . S
C280 H267 0.930 . S
C280 C279 1.376 . S
C280 C281 1.388 . S
C281 H268 0.930 . S
C281 C280 1.388 . S
C281 C282 1.390 . S
C282 C281 1.390 . S
C282 C283 1.394 . S
C282 C288 1.465 . S
C283 C278 1.399 . S
C283 C282 1.394 . S
C283 C284 1.516 . S
C284 C283 1.516 . S
C284 C285 1.502 . S
C284 C286 1.561 . S
C284 C287 1.526 . S
C285 H269 0.959 . S
C285 H270 0.959 . S
C285 H271 0.961 . S
C285 C284 1.502 . S
C286 H272 0.960 1_554 S
C286 H273 0.961 1_554 S
C286 H274 0.959 . S
C286 C284 1.561 . S
C287 C284 1.526 . S
C287 C288 1.396 . S
C287 C292 1.390 . S
C288 C282 1.465 . S
C288 C287 1.396 . S
C288 C289 1.399 . S
C289 H275 0.929 . S
C289 C288 1.399 . S
C289 C290 1.385 . S
C290 H276 0.931 . S
C290 C289 1.385 . S
C290 C291 1.389 . S
C291 C290 1.389 . S
C291 C292 1.387 . S
C292 H277 0.930 . S
C292 C287 1.390 . S
C292 C291 1.387 . S
H293 C305 0.930 . S
H294 C307 0.930 . S
H295 C308 0.930 . S
H296 C312 0.959 1_556 S
H297 C312 0.959 . S
H298 C312 0.961 . S
H299 C313 0.960 . S
H300 C313 0.961 . S
H301 C313 0.959 . S
H302 C316 0.929 . S
H303 C317 0.931 . S
H304 C319 0.930 1_554 S
C305 H293 0.930 . S
C305 C306 1.399 . S
C305 C310 1.399 . S
C306 C305 1.399 . S
C306 C307 1.376 1_554 S
C307 H294 0.930 . S
C307 C306 1.376 1_556 S
C307 C308 1.388 . S
C308 H295 0.930 . S
C308 C307 1.388 . S
C308 C309 1.390 . S
C309 C308 1.390 . S
C309 C310 1.394 1_556 S
C309 C315 1.465 . S
C310 C305 1.399 . S
C310 C309 1.394 1_554 S
C310 C311 1.516 . S
C311 C310 1.516 . S
C311 C312 1.502 . S
C311 C313 1.561 . S
C311 C314 1.526 . S
C312 H296 0.959 1_554 S
C312 H297 0.959 . S
C312 H298 0.961 . S
C312 C311 1.502 . S
C313 H299 0.960 . S
C313 H300 0.961 . S
C313 H301 0.959 . S
C313 C311 1.561 . S
C314 C311 1.526 . S
C314 C315 1.396 1_554 S
C314 C319 1.390 1_554 S
C315 C309 1.465 . S
C315 C314 1.396 1_556 S
C315 C316 1.399 . S
C316 H302 0.929 . S
C316 C315 1.399 . S
C316 C317 1.385 . S
C317 H303 0.931 . S
C317 C316 1.385 . S
C317 C318 1.389 . S
C318 C317 1.389 . S
C318 C319 1.387 . S
C319 H304 0.930 1_556 S
C319 C314 1.390 1_556 S
C319 C318 1.387 . S
H320 C332 0.930 . S
H321 C334 0.930 . S
H322 C335 0.930 . S
H323 C339 0.959 1_554 S
H324 C339 0.959 . S
H325 C339 0.961 . S
H326 C340 0.960 . S
H327 C340 0.961 . S
H328 C340 0.959 . S
H329 C343 0.929 . S
H330 C344 0.931 . S
H331 C346 0.930 . S
C332 H320 0.930 . S
C332 C333 1.399 . S
C332 C337 1.399 . S
C333 C332 1.399 . S
C333 C334 1.376 . S
C334 H321 0.930 . S
C334 C333 1.376 . S
C334 C335 1.388 . S
C335 H322 0.930 . S
C335 C334 1.388 . S
C335 C336 1.390 . S
C336 C335 1.390 . S
C336 C337 1.394 . S
C336 C342 1.465 . S
C337 C332 1.399 . S
C337 C336 1.394 . S
C337 C338 1.516 . S
C338 C337 1.516 . S
C338 C339 1.502 . S
C338 C340 1.561 . S
C338 C341 1.526 . S
C339 H323 0.959 1_556 S
C339 H324 0.959 . S
C339 H325 0.961 . S
C339 C338 1.502 . S
C340 H326 0.960 . S
C340 H327 0.961 . S
C340 H328 0.959 . S
C340 C338 1.561 . S
C341 C338 1.526 . S
C341 C342 1.396 . S
C341 C346 1.390 . S
C342 C336 1.465 . S
C342 C341 1.396 . S
C342 C343 1.399 . S
C343 H329 0.929 . S
C343 C342 1.399 . S
C343 C344 1.385 . S
C344 H330 0.931 . S
C344 C343 1.385 . S
C344 C345 1.389 . S
C345 C344 1.389 . S
C345 C346 1.387 . S
C346 H331 0.930 . S
C346 C341 1.390 . S
C346 C345 1.387 . S
H347 C359 0.930 . S
H348 C361 0.930 . S
H349 C362 0.930 1_556 S
H350 C366 0.959 . S
H351 C366 0.959 . S
H352 C366 0.961 . S
H353 C367 0.960 . S
H354 C367 0.961 . S
H355 C367 0.959 . S
H356 C370 0.929 . S
H357 C371 0.931 . S
H358 C373 0.930 . S
C359 H347 0.930 . S
C359 C360 1.399 . S
C359 C364 1.399 . S
C360 C359 1.399 . S
C360 C361 1.376 . S
C361 H348 0.930 . S
C361 C360 1.376 . S
C361 C362 1.388 . S
C362 H349 0.930 1_554 S
C362 C361 1.388 . S
C362 C363 1.390 . S
C363 C362 1.390 . S
C363 C364 1.394 . S
C363 C369 1.465 . S
C364 C359 1.399 . S
C364 C363 1.394 . S
C364 C365 1.516 . S
C365 C364 1.516 . S
C365 C366 1.502 . S
C365 C367 1.561 . S
C365 C368 1.526 . S
C366 H350 0.959 . S
C366 H351 0.959 . S
C366 H352 0.961 . S
C366 C365 1.502 . S
C367 H353 0.960 . S
C367 H354 0.961 . S
C367 H355 0.959 . S
C367 C365 1.561 . S
C368 C365 1.526 . S
C368 C369 1.396 . S
C368 C373 1.390 . S
C369 C363 1.465 . S
C369 C368 1.396 . S
C369 C370 1.399 1_554 S
C370 H356 0.929 . S
C370 C369 1.399 1_556 S
C370 C371 1.385 . S
C371 H357 0.931 . S
C371 C370 1.385 . S
C371 C372 1.389 1_556 S
C372 C371 1.389 1_554 S
C372 C373 1.387 . S
C373 H358 0.930 . S
C373 C368 1.390 . S
C373 C372 1.387 . S
H374 C386 0.930 . S
H375 C388 0.930 . S
H376 C389 0.930 . S
H377 C393 0.959 . S
H378 C393 0.959 . S
H379 C393 0.961 . S
H380 C394 0.960 . S
H381 C394 0.961 . S
H382 C394 0.959 . S
H383 C397 0.929 . S
H384 C398 0.931 . S
H385 C400 0.930 . S
C386 H374 0.930 . S
C386 C387 1.399 . S
C386 C391 1.399 . S
C387 C386 1.399 . S
C387 C388 1.376 . S
C388 H375 0.930 . S
C388 C387 1.376 . S
C388 C389 1.388 . S
C389 H376 0.930 . S
C389 C388 1.388 . S
C389 C390 1.390 . S
C390 C389 1.390 . S
C390 C391 1.394 . S
C390 C396 1.465 . S
C391 C386 1.399 . S
C391 C390 1.394 . S
C391 C392 1.516 . S
C392 C391 1.516 . S
C392 C393 1.502 . S
C392 C394 1.561 . S
C392 C395 1.526 . S
C393 H377 0.959 . S
C393 H378 0.959 . S
C393 H379 0.961 . S
C393 C392 1.502 . S
C394 H380 0.960 . S
C394 H381 0.961 . S
C394 H382 0.959 . S
C394 C392 1.561 . S
C395 C392 1.526 . S
C395 C396 1.396 . S
C395 C400 1.390 . S
C396 C390 1.465 . S
C396 C395 1.396 . S
C396 C397 1.399 . S
C397 H383 0.929 . S
C397 C396 1.399 . S
C397 C398 1.385 . S
C398 H384 0.931 . S
C398 C397 1.385 . S
C398 C399 1.389 . S
C399 C398 1.389 . S
C399 C400 1.387 . S
C400 H385 0.930 . S
C400 C395 1.390 . S
C400 C399 1.387 . S
H401 C413 0.930 . S
H402 C415 0.930 . S
H403 C416 0.930 . S
H404 C420 0.959 . S
H405 C420 0.959 . S
H406 C420 0.961 . S
H407 C421 0.960 . S
H408 C421 0.961 . S
H409 C421 0.959 . S
H410 C424 0.929 . S
H411 C425 0.931 . S
H412 C427 0.930 . S
C413 H401 0.930 . S
C413 C414 1.399 . S
C413 C418 1.399 . S
C414 C413 1.399 . S
C414 C415 1.376 . S
C415 H402 0.930 . S
C415 C414 1.376 . S
C415 C416 1.388 . S
C416 H403 0.930 . S
C416 C415 1.388 . S
C416 C417 1.390 . S
C417 C416 1.390 . S
C417 C418 1.394 . S
C417 C423 1.465 . S
C418 C413 1.399 . S
C418 C417 1.394 . S
C418 C419 1.516 . S
C419 C418 1.516 . S
C419 C420 1.502 . S
C419 C421 1.561 . S
C419 C422 1.526 . S
C420 H404 0.959 . S
C420 H405 0.959 . S
C420 H406 0.961 . S
C420 C419 1.502 . S
C421 H407 0.960 . S
C421 H408 0.961 . S
C421 H409 0.959 . S
C421 C419 1.561 . S
C422 C419 1.526 . S
C422 C423 1.396 . S
C422 C427 1.390 . S
C423 C417 1.465 . S
C423 C422 1.396 . S
C423 C424 1.399 . S
C424 H410 0.929 . S
C424 C423 1.399 . S
C424 C425 1.385 . S
C425 H411 0.931 . S
C425 C424 1.385 . S
C425 C426 1.389 . S
C426 C425 1.389 . S
C426 C427 1.387 . S
C427 H412 0.930 . S
C427 C422 1.390 . S
C427 C426 1.387 . S
H428 C440 0.930 . S
H429 C442 0.930 . S
H430 C443 0.930 . S
H431 C447 0.959 . S
H432 C447 0.959 . S
H433 C447 0.961 . S
H434 C448 0.960 . S
H435 C448 0.961 . S
H436 C448 0.959 . S
H437 C451 0.929 . S
H438 C452 0.931 . S
H439 C454 0.930 . S
C440 H428 0.930 . S
C440 C441 1.399 . S
C440 C445 1.399 . S
C441 C440 1.399 . S
C441 C442 1.376 1_554 S
C442 H429 0.930 . S
C442 C441 1.376 1_556 S
C442 C443 1.388 . S
C443 H430 0.930 . S
C443 C442 1.388 . S
C443 C444 1.390 1_556 S
C444 C443 1.390 1_554 S
C444 C445 1.394 . S
C444 C450 1.465 . S
C445 C440 1.399 . S
C445 C444 1.394 . S
C445 C446 1.516 . S
C446 C445 1.516 . S
C446 C447 1.502 . S
C446 C448 1.561 . S
C446 C449 1.526 . S
C447 H431 0.959 . S
C447 H432 0.959 . S
C447 H433 0.961 . S
C447 C446 1.502 . S
C448 H434 0.960 . S
C448 H435 0.961 . S
C448 H436 0.959 . S
C448 C446 1.561 . S
C449 C446 1.526 . S
C449 C450 1.396 . S
C449 C454 1.390 . S
C450 C444 1.465 . S
C450 C449 1.396 . S
C450 C451 1.399 1_554 S
C451 H437 0.929 . S
C451 C450 1.399 1_556 S
C451 C452 1.385 . S
C452 H438 0.931 . S
C452 C451 1.385 . S
C452 C453 1.389 1_556 S
C453 C452 1.389 1_554 S
C453 C454 1.387 . S
C454 H439 0.930 . S
C454 C449 1.390 . S
C454 C453 1.387 . S
H455 C467 0.930 . S
H456 C469 0.930 . S
H457 C470 0.930 1_554 S
H458 C474 0.959 . S
H459 C474 0.959 . S
H460 C474 0.961 . S
H461 C475 0.960 . S
H462 C475 0.961 . S
H463 C475 0.959 . S
H464 C478 0.929 . S
H465 C479 0.931 . S
H466 C481 0.930 . S
C467 H455 0.930 . S
C467 C468 1.399 . S
C467 C472 1.399 . S
C468 C467 1.399 . S
C468 C469 1.376 . S
C469 H456 0.930 . S
C469 C468 1.376 . S
C469 C470 1.388 . S
C470 H457 0.930 1_556 S
C470 C469 1.388 . S
C470 C471 1.390 . S
C471 C470 1.390 . S
C471 C472 1.394 . S
C471 C477 1.465 . S
C472 C467 1.399 . S
C472 C471 1.394 . S
C472 C473 1.516 . S
C473 C472 1.516 . S
C473 C474 1.502 . S
C473 C475 1.561 . S
C473 C476 1.526 . S
C474 H458 0.959 . S
C474 H459 0.959 . S
C474 H460 0.961 . S
C474 C473 1.502 . S
C475 H461 0.960 . S
C475 H462 0.961 . S
C475 H463 0.959 . S
C475 C473 1.561 . S
C476 C473 1.526 . S
C476 C477 1.396 . S
C476 C481 1.390 . S
C477 C471 1.465 . S
C477 C476 1.396 . S
C477 C478 1.399 1_556 S
C478 H464 0.929 . S
C478 C477 1.399 1_554 S
C478 C479 1.385 . S
C479 H465 0.931 . S
C479 C478 1.385 . S
C479 C480 1.389 1_554 S
C480 C479 1.389 1_556 S
C480 C481 1.387 . S
C481 H466 0.930 . S
C481 C476 1.390 . S
C481 C480 1.387 . S
H482 C494 0.930 . S
H483 C496 0.930 . S
H484 C497 0.930 . S
H485 C501 0.959 . S
H486 C501 0.959 . S
H487 C501 0.961 . S
H488 C502 0.960 . S
H489 C502 0.961 . S
H490 C502 0.959 . S
H491 C505 0.929 . S
H492 C506 0.931 . S
H493 C508 0.930 . S
C494 H482 0.930 . S
C494 C495 1.399 . S
C494 C499 1.399 . S
C495 C494 1.399 . S
C495 C496 1.376 . S
C496 H483 0.930 . S
C496 C495 1.376 . S
C496 C497 1.388 . S
C497 H484 0.930 . S
C497 C496 1.388 . S
C497 C498 1.390 . S
C498 C497 1.390 . S
C498 C499 1.394 . S
C498 C504 1.465 . S
C499 C494 1.399 . S
C499 C498 1.394 . S
C499 C500 1.516 . S
C500 C499 1.516 . S
C500 C501 1.502 . S
C500 C502 1.561 . S
C500 C503 1.526 . S
C501 H485 0.959 . S
C501 H486 0.959 . S
C501 H487 0.961 . S
C501 C500 1.502 . S
C502 H488 0.960 . S
C502 H489 0.961 . S
C502 H490 0.959 . S
C502 C500 1.561 . S
C503 C500 1.526 . S
C503 C504 1.396 . S
C503 C508 1.390 . S
C504 C498 1.465 . S
C504 C503 1.396 . S
C504 C505 1.399 . S
C505 H491 0.929 . S
C505 C504 1.399 . S
C505 C506 1.385 . S
C506 H492 0.931 . S
C506 C505 1.385 . S
C506 C507 1.389 . S
C507 C506 1.389 . S
C507 C508 1.387 . S
C508 H493 0.930 . S
C508 C503 1.390 . S
C508 C507 1.387 . S
H509 C521 0.930 . S
H510 C523 0.930 . S
H511 C524 0.930 . S
H512 C528 0.959 . S
H513 C528 0.959 . S
H514 C528 0.961 . S
H515 C529 0.960 . S
H516 C529 0.961 . S
H517 C529 0.959 . S
H518 C532 0.929 . S
H519 C533 0.931 . S
H520 C535 0.930 . S
C521 H509 0.930 . S
C521 C522 1.399 . S
C521 C526 1.399 . S
C522 C521 1.399 . S
C522 C523 1.376 . S
C523 H510 0.930 . S
C523 C522 1.376 . S
C523 C524 1.388 . S
C524 H511 0.930 . S
C524 C523 1.388 . S
C524 C525 1.390 . S
C525 C524 1.390 . S
C525 C526 1.394 . S
C525 C531 1.465 . S
C526 C521 1.399 . S
C526 C525 1.394 . S
C526 C527 1.516 . S
C527 C526 1.516 . S
C527 C528 1.502 . S
C527 C529 1.561 . S
C527 C530 1.526 . S
C528 H512 0.959 . S
C528 H513 0.959 . S
C528 H514 0.961 . S
C528 C527 1.502 . S
C529 H515 0.960 . S
C529 H516 0.961 . S
C529 H517 0.959 . S
C529 C527 1.561 . S
C530 C527 1.526 . S
C530 C531 1.396 . S
C530 C535 1.390 . S
C531 C525 1.465 . S
C531 C530 1.396 . S
C531 C532 1.399 . S
C532 H518 0.929 . S
C532 C531 1.399 . S
C532 C533 1.385 . S
C533 H519 0.931 . S
C533 C532 1.385 . S
C533 C534 1.389 . S
C534 C533 1.389 . S
C534 C535 1.387 . S
C535 H520 0.930 . S
C535 C530 1.390 . S
C535 C534 1.387 . S
C117 C1 1.575 . S
C129 C40 1.543 . S
C144 C10 1.471 . S
C156 C18 1.488 . S
C171 C27 1.473 . S
C183 C16 1.451 . S
C198 C49 1.560 . S
C210 C36 1.519 . S
C225 C3 1.460 . S
C237 C66 1.516 . S
C252 C5 1.450 . S
C264 C57 1.435 . S
C279 C55 1.461 . S
C291 C29 1.479 . S
C306 C31 1.511 . S
C318 C75 1.534 . S
C333 C81 1.426 . S
C345 C68 1.425 . S
C360 C62 1.522 . S
C372 C83 1.509 . S
C387 C53 1.558 . S
C399 C92 1.554 . S
C414 C70 1.465 . S
C426 C101 1.449 . S
C441 C79 1.491 . S
C453 C42 1.509 . S
C468 C23 1.566 . S
C480 C88 1.572 . S
C495 C14 1.518 . S
C507 C94 1.530 . S
C522 C44 1.455 . S
C534 C96 1.471 . S
