# Generated by pormake.
# Topology ske, (6)-cn, num edge types: 1
# Building blocks:
#     Node 0, Type 0, BuildingBlock: BETFAJ_clean_sbu_0, # of connection points: 6
#     Node 1, Type 0, BuildingBlock: BETFAJ_clean_sbu_0, # of connection points: 6
#     Node 2, Type 0, BuildingBlock: BETFAJ_clean_sbu_0, # of connection points: 6
#     Node 3, Type 0, BuildingBlock: BETFAJ_clean_sbu_0, # of connection points: 6
#     Node 4, Type 0, BuildingBlock: BETFAJ_clean_sbu_0, # of connection points: 6
#     Node 5, Type 0, BuildingBlock: BETFAJ_clean_sbu_0, # of connection points: 6
#     Node 6, Type 0, BuildingBlock: BETFAJ_clean_sbu_0, # of connection points: 6
#     Node 7, Type 0, BuildingBlock: BETFAJ_clean_sbu_0, # of connection points: 6
#     Edge 8, Type (0, 0), BuildingBlock: UVAHIK_clean_linker_0, # of connection points: 2
#     Edge 9, Type (0, 0), BuildingBlock: UVAHIK_clean_linker_0, # of connection points: 2
#     Edge 10, Type (0, 0), BuildingBlock: UVAHIK_clean_linker_0, # of connection points: 2
#     Edge 11, Type (0, 0), BuildingBlock: UVAHIK_clean_linker_0, # of connection points: 2
#     Edge 12, Type (0, 0), BuildingBlock: UVAHIK_clean_linker_0, # of connection points: 2
#     Edge 13, Type (0, 0), BuildingBlock: UVAHIK_clean_linker_0, # of connection points: 2
#     Edge 14, Type (0, 0), BuildingBlock: UVAHIK_clean_linker_0, # of connection points: 2
#     Edge 15, Type (0, 0), BuildingBlock: UVAHIK_clean_linker_0, # of connection points: 2
#     Edge 16, Type (0, 0), BuildingBlock: UVAHIK_clean_linker_0, # of connection points: 2
#     Edge 17, Type (0, 0), BuildingBlock: UVAHIK_clean_linker_0, # of connection points: 2
#     Edge 18, Type (0, 0), BuildingBlock: UVAHIK_clean_linker_0, # of connection points: 2
#     Edge 19, Type (0, 0), BuildingBlock: UVAHIK_clean_linker_0, # of connection points: 2
#     Edge 20, Type (0, 0), BuildingBlock: UVAHIK_clean_linker_0, # of connection points: 2
#     Edge 21, Type (0, 0), BuildingBlock: UVAHIK_clean_linker_0, # of connection points: 2
#     Edge 22, Type (0, 0), BuildingBlock: UVAHIK_clean_linker_0, # of connection points: 2
#     Edge 23, Type (0, 0), BuildingBlock: UVAHIK_clean_linker_0, # of connection points: 2
#     Edge 24, Type (0, 0), BuildingBlock: UVAHIK_clean_linker_0, # of connection points: 2
#     Edge 25, Type (0, 0), BuildingBlock: UVAHIK_clean_linker_0, # of connection points: 2
#     Edge 26, Type (0, 0), BuildingBlock: UVAHIK_clean_linker_0, # of connection points: 2
#     Edge 27, Type (0, 0), BuildingBlock: UVAHIK_clean_linker_0, # of connection points: 2
#     Edge 28, Type (0, 0), BuildingBlock: UVAHIK_clean_linker_0, # of connection points: 2
#     Edge 29, Type (0, 0), BuildingBlock: UVAHIK_clean_linker_0, # of connection points: 2
#     Edge 30, Type (0, 0), BuildingBlock: UVAHIK_clean_linker_0, # of connection points: 2
#     Edge 31, Type (0, 0), BuildingBlock: UVAHIK_clean_linker_0, # of connection points: 2
# Relax obj value: 0.204
# Max RMSD: 0.204
# Mean RMSD: 0.197
data_MOF--net-ske--node1-BETFAJ_clean_sbu_0--edge1-UVAHIK_clean_linker_0
_symmetry_space_group_name_H-M    P1
_symmetry_Int_Tables_number       1
_symmetry_cell_setting            triclinic
loop_
_symmetry_equiv_pos_as_xyz
'x, y, z'
_cell_length_a     121.32006
_cell_length_b     38.267533
_cell_length_c     20.243754
_cell_angle_alpha  89.882587
_cell_angle_beta   90.023249
_cell_angle_gamma 84.324117
loop_
_atom_site_label
_atom_site_type_symbol
_atom_site_fract_x
_atom_site_fract_y
_atom_site_fract_z
_atom_type_partial_charge
Sm0 Sm 0.1482 0.25347 0.54006 0.0
Sm1 Sm 0.12366 0.24505 0.54601 0.0
C2 C 0.16864 0.27286 0.54988 0.0
C3 C 0.1793 0.26865 0.58659 0.0
C4 C 0.18426 0.29871 0.6056 0.0
C5 C 0.1949 0.29587 0.63332 0.0
C6 C 0.20091 0.2628 0.64257 0.0
C7 C 0.1958 0.23262 0.6251 0.0
C8 C 0.18513 0.23549 0.59745 0.0
C9 C 0.14339 0.18451 0.53084 0.0
C10 C 0.13658 0.24465 0.68497 0.0
C11 C 0.10317 0.22578 0.54155 0.0
C12 C 0.09154 0.23153 0.5185 0.0
C13 C 0.08553 0.20233 0.51075 0.0
C14 C 0.07409 0.20667 0.4993 0.0
C15 C 0.06834 0.24044 0.49514 0.0
C16 C 0.0745 0.26974 0.50033 0.0
C17 C 0.08597 0.26533 0.5121 0.0
C18 C 0.12859 0.31446 0.54883 0.0
C19 C 0.13549 0.25169 0.40067 0.0
O20 O 0.16004 0.29006 0.57801 0.0
O21 O 0.16604 0.24656 0.51389 0.0
O22 O 0.13864 0.20714 0.56943 0.0
O23 O 0.15141 0.19729 0.49968 0.0
O24 O 0.14447 0.25866 0.65218 0.0
O25 O 0.12854 0.23107 0.65317 0.0
O26 O 0.11096 0.21356 0.50061 0.0
O27 O 0.10651 0.24797 0.5843 0.0
O28 O 0.13324 0.29047 0.51317 0.0
O29 O 0.12052 0.30278 0.5813 0.0
O30 O 0.12752 0.23824 0.43402 0.0
O31 O 0.14356 0.26563 0.43188 0.0
H32 H 0.18002 0.3246 0.59714 0.0
H33 H 0.19857 0.31974 0.64529 0.0
H34 H 0.20007 0.20669 0.63237 0.0
H35 H 0.18155 0.21178 0.58332 0.0
H36 H 0.08962 0.176 0.51633 0.0
H37 H 0.0697 0.18343 0.49661 0.0
H38 H 0.07044 0.29615 0.4963 0.0
H39 H 0.09041 0.28833 0.51809 0.0
Sm40 Sm 0.86806 0.249 0.53948 0.0
Sm41 Sm 0.89261 0.25719 0.54541 0.0
C42 C 0.84758 0.22989 0.54951 0.0
C43 C 0.83689 0.23424 0.58598 0.0
C44 C 0.83261 0.20456 0.61303 0.0
C45 C 0.82195 0.20697 0.64035 0.0
C46 C 0.81522 0.23916 0.6411 0.0
C47 C 0.81965 0.26911 0.61571 0.0
C48 C 0.83034 0.26668 0.5884 0.0
C49 C 0.87292 0.31792 0.53006 0.0
C50 C 0.87972 0.25757 0.68436 0.0
C51 C 0.91312 0.27622 0.54066 0.0
C52 C 0.92479 0.27101 0.51784 0.0
C53 C 0.93012 0.30054 0.49999 0.0
C54 C 0.94158 0.29774 0.48938 0.0
C55 C 0.94803 0.26526 0.49636 0.0
C56 C 0.94258 0.23533 0.51115 0.0
C57 C 0.93109 0.23819 0.52205 0.0
C58 C 0.88761 0.18784 0.54861 0.0
C59 C 0.88076 0.25069 0.40009 0.0
O60 O 0.85618 0.21268 0.57796 0.0
O61 O 0.85023 0.25598 0.5129 0.0
O62 O 0.87767 0.29521 0.56872 0.0
O63 O 0.86489 0.30525 0.49889 0.0
O64 O 0.87181 0.24365 0.65162 0.0
O65 O 0.88777 0.2711 0.65251 0.0
O66 O 0.9053 0.28885 0.50012 0.0
O67 O 0.90979 0.25386 0.5833 0.0
O68 O 0.88298 0.21188 0.51279 0.0
O69 O 0.89569 0.19944 0.5811 0.0
O70 O 0.88875 0.26405 0.43336 0.0
O71 O 0.87268 0.23681 0.43139 0.0
H72 H 0.83743 0.17917 0.61151 0.0
H73 H 0.81894 0.18344 0.66039 0.0
H74 H 0.81473 0.29429 0.61472 0.0
H75 H 0.83333 0.29007 0.56757 0.0
H76 H 0.92548 0.32617 0.49684 0.0
H77 H 0.94544 0.32123 0.47697 0.0
H78 H 0.94726 0.20994 0.51731 0.0
H79 H 0.92722 0.21497 0.53619 0.0
Sm80 Sm 0.12363 0.74533 0.47645 0.0
Sm81 Sm 0.14816 0.75338 0.48243 0.0
C82 C 0.10313 0.72616 0.48101 0.0
C83 C 0.0915 0.73187 0.50396 0.0
C84 C 0.08549 0.70265 0.51187 0.0
C85 C 0.07405 0.70695 0.52322 0.0
C86 C 0.06829 0.7407 0.52712 0.0
C87 C 0.07444 0.77002 0.52177 0.0
C88 C 0.08591 0.76566 0.5101 0.0
C89 C 0.12858 0.81469 0.47337 0.0
C90 C 0.13546 0.75191 0.62177 0.0
C91 C 0.16869 0.77208 0.47242 0.0
C92 C 0.17938 0.76749 0.43591 0.0
C93 C 0.18341 0.79666 0.40534 0.0
C94 C 0.19407 0.79423 0.37792 0.0
C95 C 0.20104 0.76254 0.3806 0.0
C96 C 0.19686 0.73304 0.40956 0.0
C97 C 0.18618 0.73549 0.43696 0.0
C98 C 0.14321 0.68451 0.49207 0.0
C99 C 0.13652 0.74498 0.3375 0.0
O100 O 0.11092 0.71385 0.52199 0.0
O101 O 0.10647 0.7484 0.43819 0.0
O102 O 0.13328 0.79066 0.50898 0.0
O103 O 0.12049 0.80308 0.44106 0.0
O104 O 0.12748 0.73848 0.58851 0.0
O105 O 0.14353 0.76578 0.59042 0.0
O106 O 0.16012 0.78943 0.44396 0.0
O107 O 0.16599 0.74612 0.50916 0.0
O108 O 0.13855 0.7072 0.45307 0.0
O109 O 0.15121 0.69718 0.52352 0.0
O110 O 0.14443 0.75885 0.37029 0.0
O111 O 0.12846 0.73147 0.36933 0.0
H112 H 0.08959 0.67633 0.50649 0.0
H113 H 0.06967 0.68369 0.52603 0.0
H114 H 0.07038 0.79642 0.5256 0.0
H115 H 0.09034 0.78867 0.50398 0.0
H116 H 0.17841 0.82174 0.40417 0.0
H117 H 0.19689 0.81737 0.35512 0.0
H118 H 0.20198 0.70829 0.41329 0.0
H119 H 0.1834 0.71252 0.4606 0.0
Sm120 Sm 0.89256 0.75733 0.47691 0.0
Sm121 Sm 0.86802 0.74906 0.48278 0.0
C122 C 0.91305 0.77656 0.48171 0.0
C123 C 0.92472 0.77128 0.50441 0.0
C124 C 0.93007 0.80077 0.52215 0.0
C125 C 0.94154 0.79792 0.53267 0.0
C126 C 0.94797 0.76545 0.52571 0.0
C127 C 0.94251 0.73555 0.51103 0.0
C128 C 0.93102 0.73846 0.50022 0.0
C129 C 0.88766 0.68794 0.47409 0.0
C130 C 0.88072 0.75067 0.6222 0.0
C131 C 0.84754 0.73003 0.47304 0.0
C132 C 0.83689 0.73428 0.43627 0.0
C133 C 0.83186 0.70425 0.41796 0.0
C134 C 0.82122 0.70719 0.39021 0.0
C135 C 0.81529 0.74032 0.38021 0.0
C136 C 0.82048 0.77046 0.39699 0.0
C137 C 0.83115 0.76749 0.42469 0.0
C138 C 0.87293 0.81796 0.4922 0.0
C139 C 0.87966 0.75775 0.33788 0.0
O140 O 0.90524 0.78887 0.52246 0.0
O141 O 0.90971 0.75441 0.43882 0.0
O142 O 0.88295 0.7119 0.50959 0.0
O143 O 0.89574 0.69963 0.44178 0.0
O144 O 0.88869 0.76412 0.58889 0.0
O145 O 0.87265 0.73676 0.59093 0.0
O146 O 0.85613 0.7126 0.44515 0.0
O147 O 0.85018 0.75639 0.50872 0.0
O148 O 0.8776 0.79534 0.45331 0.0
O149 O 0.86494 0.8052 0.52366 0.0
O150 O 0.87175 0.74381 0.37066 0.0
O151 O 0.88771 0.77126 0.3697 0.0
H152 H 0.92543 0.8264 0.52529 0.0
H153 H 0.94541 0.82139 0.545 0.0
H154 H 0.94719 0.71016 0.50489 0.0
H155 H 0.92714 0.71528 0.48616 0.0
H156 H 0.83604 0.67833 0.42699 0.0
H157 H 0.81749 0.68335 0.37879 0.0
H158 H 0.81627 0.79643 0.38914 0.0
H159 H 0.83479 0.79118 0.43827 0.0
Sm160 Sm 0.64836 0.75201 0.04764 0.0
Sm161 Sm 0.62391 0.74499 0.05514 0.0
C162 C 0.66908 0.76911 0.05652 0.0
C163 C 0.67964 0.76503 0.09434 0.0
C164 C 0.68466 0.79513 0.1125 0.0
C165 C 0.69524 0.79227 0.14096 0.0
C166 C 0.70114 0.75917 0.1518 0.0
C167 C 0.69595 0.72898 0.13525 0.0
C168 C 0.68534 0.73186 0.10688 0.0
C169 C 0.64302 0.68379 0.03567 0.0
C170 C 0.63699 0.7431 0.19329 0.0
C171 C 0.60328 0.72687 0.05149 0.0
C172 C 0.59161 0.73264 0.02914 0.0
C173 C 0.58566 0.70338 0.02047 0.0
C174 C 0.5742 0.70758 1.00973 0.0
C175 C 0.56837 0.74127 1.0072 0.0
C176 C 0.57446 0.77067 0.01334 0.0
C177 C 0.58595 0.7664 0.02442 0.0
C178 C 0.62914 0.81413 0.05848 0.0
C179 C 0.63549 0.75198 0.90898 0.0
O180 O 0.66058 0.78827 0.08177 0.0
O181 O 0.66623 0.74201 0.02373 0.0
O182 O 0.63869 0.70587 0.07675 0.0
O183 O 0.6507 0.69683 1.00192 0.0
O184 O 0.64489 0.75687 0.16021 0.0
O185 O 0.62883 0.73009 0.16169 0.0
O186 O 0.61099 0.71408 1.01052 0.0
O187 O 0.60676 0.74914 0.09363 0.0
O188 O 0.63359 0.79016 0.02205 0.0
O189 O 0.62118 0.80255 0.09202 0.0
O190 O 0.62749 0.73876 0.94257 0.0
O191 O 0.64368 0.76535 0.94007 0.0
H192 H 0.68051 0.82102 0.10273 0.0
H193 H 0.69897 0.81614 0.15219 0.0
H194 H 0.70014 0.70303 0.14375 0.0
H195 H 0.68172 0.70811 0.09345 0.0
H196 H 0.58981 0.67707 0.0248 0.0
H197 H 0.56987 0.68425 1.0063 0.0
H198 H 0.57034 0.79705 1.01057 0.0
H199 H 0.59034 0.78945 0.03117 0.0
Sm200 Sm 0.368 0.75089 0.04707 0.0
Sm201 Sm 0.39247 0.75757 0.05459 0.0
C202 C 0.34724 0.73416 0.05629 0.0
C203 C 0.33665 0.73852 0.09403 0.0
C204 C 0.33272 0.70925 0.12483 0.0
C205 C 0.32213 0.71154 0.15318 0.0
C206 C 0.31512 0.74317 0.15118 0.0
C207 C 0.31921 0.77277 0.12199 0.0
C208 C 0.32981 0.77046 0.09368 0.0
C209 C 0.37342 0.81903 0.03495 0.0
C210 C 0.37941 0.75944 0.19272 0.0
C211 C 0.41312 0.7754 0.05071 0.0
C212 C 0.42483 0.77014 0.02869 0.0
C213 C 0.43021 0.79967 0.01143 0.0
C214 C 0.44169 0.79684 1.00164 0.0
C215 C 0.4481 0.76433 1.00886 0.0
C216 C 0.44262 0.7344 0.02307 0.0
C217 C 0.43111 0.73729 0.03318 0.0
C218 C 0.38714 0.68852 0.05822 0.0
C219 C 0.38086 0.75076 0.90844 0.0
O220 O 0.35572 0.715 0.08188 0.0
O221 O 0.35013 0.76098 0.02264 0.0
O222 O 0.37773 0.79684 0.07608 0.0
O223 O 0.36571 0.80614 1.00124 0.0
O224 O 0.37148 0.74584 0.15966 0.0
O225 O 0.3876 0.77236 0.16111 0.0
O226 O 0.40539 0.78859 1.01008 0.0
O227 O 0.40965 0.75297 0.09271 0.0
O228 O 0.38271 0.71258 0.02169 0.0
O229 O 0.39513 0.69996 0.09172 0.0
O230 O 0.38888 0.76386 0.94196 0.0
O231 O 0.37265 0.73751 0.9396 0.0
H232 H 0.33773 0.68419 0.12545 0.0
H233 H 0.31938 0.68832 0.1761 0.0
H234 H 0.31406 0.79748 0.11873 0.0
H235 H 0.3325 0.79351 0.06982 0.0
H236 H 0.42558 0.82532 1.00811 0.0
H237 H 0.44558 0.82033 0.98969 0.0
H238 H 0.44728 0.70899 0.02936 0.0
H239 H 0.4272 0.71408 0.04692 0.0
Sm240 Sm 0.62391 0.24545 0.9688 0.0
Sm241 Sm 0.64834 0.25237 0.97577 0.0
C242 C 0.60319 0.22808 0.97238 0.0
C243 C 0.59152 0.23367 0.99486 0.0
C244 C 0.5856 0.20432 1.00366 0.0
C245 C 0.57414 0.20837 0.0143 0.0
C246 C 0.56826 0.242 0.01657 0.0
C247 C 0.57432 0.27148 1.01032 0.0
C248 C 0.58581 0.26736 0.99935 0.0
C249 C 0.62925 0.31443 0.96506 0.0
C250 C 0.63556 0.25191 0.11478 0.0
C251 C 0.66898 0.27013 0.96563 0.0
C252 C 0.67959 0.26563 0.92826 0.0
C253 C 0.68382 0.29519 0.9004 0.0
C254 C 0.69443 0.29265 0.87234 0.0
C255 C 0.70115 0.26046 0.87165 0.0
C256 C 0.69676 0.23061 0.89777 0.0
C257 C 0.68613 0.23316 0.92583 0.0
C258 C 0.64318 0.18383 0.98711 0.0
C259 C 0.63686 0.24356 0.83048 0.0
O260 O 0.61091 0.21445 0.01261 0.0
O261 O 0.60669 0.25081 0.93114 0.0
O262 O 0.63362 0.29049 1.00202 0.0
O263 O 0.62145 0.30283 0.9302 0.0
O264 O 0.62751 0.23897 0.0813 0.0
O265 O 0.64376 0.26517 0.08361 0.0
O266 O 0.66043 0.28833 0.93862 0.0
O267 O 0.66621 0.24376 1.00104 0.0
O268 O 0.63864 0.20621 0.947 0.0
O269 O 0.65113 0.19666 0.01883 0.0
O270 O 0.64475 0.25747 0.86333 0.0
O271 O 0.62875 0.23037 0.86236 0.0
H272 H 0.58978 0.17805 0.9995 0.0
H273 H 0.56983 0.18497 0.01784 0.0
H274 H 0.57016 0.29781 0.0129 0.0
H275 H 0.59016 0.29049 0.99249 0.0
H276 H 0.67902 0.3206 0.9019 0.0
H277 H 0.69741 0.3161 0.85176 0.0
H278 H 0.70169 0.20543 0.89881 0.0
H279 H 0.68318 0.20986 0.94728 0.0
Sm280 Sm 0.39221 0.25773 0.96884 0.0
Sm281 Sm 0.36779 0.25053 0.97581 0.0
C282 C 0.41291 0.27529 0.97257 0.0
C283 C 0.42462 0.27017 0.99474 0.0
C284 C 0.42999 0.29978 0.01139 0.0
C285 C 0.44148 0.29704 0.0212 0.0
C286 C 0.44791 0.26453 0.01462 0.0
C287 C 0.44244 0.23454 1.00101 0.0
C288 C 0.43092 0.23734 0.99088 0.0
C289 C 0.38695 0.18869 0.96536 0.0
C290 C 0.38058 0.25105 0.11483 0.0
C291 C 0.34718 0.23252 0.96589 0.0
C292 C 0.33658 0.23709 0.92857 0.0
C293 C 0.33157 0.20723 0.90892 0.0
C294 C 0.32097 0.21041 0.8806 0.0
C295 C 0.31505 0.24361 0.87136 0.0
C296 C 0.32022 0.2736 0.88947 0.0
C297 C 0.33085 0.2704 0.91773 0.0
C298 C 0.37288 0.31914 0.9868 0.0
C299 C 0.37924 0.25959 0.83049 0.0
O300 O 0.40517 0.28888 0.01258 0.0
O301 O 0.40943 0.25258 0.93134 0.0
O302 O 0.38255 0.21254 1.00222 0.0
O303 O 0.39473 0.20042 0.9305 0.0
O304 O 0.3886 0.26411 0.08129 0.0
O305 O 0.37239 0.23769 0.08372 0.0
O306 O 0.35572 0.21448 0.93874 0.0
O307 O 0.34993 0.25891 1.00112 0.0
O308 O 0.37744 0.29683 0.94681 0.0
O309 O 0.36495 0.30622 0.01856 0.0
O310 O 0.37137 0.24557 0.86339 0.0
O311 O 0.38734 0.27284 0.8623 0.0
H312 H 0.42535 0.32543 0.0142 0.0
H313 H 0.44536 0.32059 0.03269 0.0
H314 H 0.44711 0.20912 0.9952 0.0
H315 H 0.42703 0.21406 0.9776 0.0
H316 H 0.33574 0.18123 0.91734 0.0
H317 H 0.31727 0.18667 0.86816 0.0
H318 H 0.31602 0.29963 0.88225 0.0
H319 H 0.33446 0.29397 0.93233 0.0
C320 C 0.22074 0.23526 0.64145 0.0
C321 C 0.21258 0.26001 0.66802 0.0
C322 C 0.23175 0.23351 0.66335 0.0
C323 C 0.25168 0.28592 0.74967 0.0
H324 H 0.26902 0.19581 0.7685 0.0
C325 C 0.29527 0.27158 0.87171 0.0
C326 C 0.30342 0.24674 0.84532 0.0
C327 C 0.28427 0.27352 0.84943 0.0
C328 C 0.26437 0.22126 0.76276 0.0
H329 H 0.20971 0.30176 0.7401 0.0
H330 H 0.22885 0.29864 0.77833 0.0
H331 H 0.24981 0.19817 0.7323 0.0
H332 H 0.3063 0.20511 0.773 0.0
H333 H 0.2872 0.20855 0.73415 0.0
H334 H 0.26624 0.309 0.78019 0.0
C335 C 0.22678 0.28095 0.73958 0.0
C336 C 0.2533 0.22262 0.74196 0.0
C337 C 0.21576 0.28271 0.71766 0.0
C338 C 0.30026 0.2242 0.79536 0.0
C339 C 0.28926 0.22615 0.77307 0.0
C340 C 0.26275 0.28456 0.77048 0.0
C341 C 0.23496 0.25644 0.71254 0.0
C342 C 0.24678 0.25497 0.7351 0.0
C343 C 0.28108 0.25069 0.80004 0.0
C344 C 0.26927 0.25221 0.77735 0.0
H345 H 0.21869 0.21773 0.60238 0.0
H346 H 0.23781 0.21464 0.64051 0.0
H347 H 0.24702 0.31137 0.74395 0.0
H348 H 0.29731 0.28901 0.91097 0.0
H349 H 0.27822 0.29243 0.87218 0.0
C350 C 0.71744 0.22894 0.81053 0.0
C351 C 0.71282 0.25837 0.84622 0.0
C352 C 0.72843 0.22684 0.78815 0.0
C353 C 0.75528 0.26398 0.81759 0.0
H354 H 0.763 0.22449 0.64565 0.0
C355 C 0.79887 0.27051 0.70184 0.0
C356 C 0.80353 0.24117 0.66602 0.0
C357 C 0.78787 0.27253 0.72395 0.0
C358 C 0.76104 0.23522 0.69417 0.0
H359 H 0.71636 0.30853 0.88665 0.0
H360 H 0.73534 0.3052 0.8466 0.0
H361 H 0.74383 0.22803 0.68327 0.0
H362 H 0.80003 0.1911 0.62499 0.0
H363 H 0.78102 0.19427 0.66462 0.0
H364 H 0.77248 0.27116 0.82853 0.0
C365 C 0.73051 0.28351 0.83638 0.0
C366 C 0.75001 0.23726 0.71581 0.0
C367 C 0.71953 0.28564 0.85864 0.0
C368 C 0.79683 0.21392 0.65312 0.0
C369 C 0.78583 0.21596 0.67515 0.0
C370 C 0.76631 0.26194 0.79597 0.0
C371 C 0.73516 0.25404 0.80095 0.0
C372 C 0.74695 0.2517 0.77784 0.0
C373 C 0.78116 0.24531 0.71079 0.0
C374 C 0.76937 0.24754 0.73391 0.0
H375 H 0.71254 0.20753 0.79944 0.0
H376 H 0.73172 0.20356 0.76161 0.0
H377 H 0.75332 0.27472 0.8661 0.0
H378 H 0.80376 0.2919 0.7133 0.0
H379 H 0.78456 0.29574 0.75061 0.0
C380 C 0.29705 0.71664 0.16788 0.0
C381 C 0.30349 0.74492 0.17701 0.0
C382 C 0.28607 0.7185 0.1903 0.0
C383 C 0.26237 0.78228 0.23985 0.0
H384 H 0.25091 0.70009 0.31569 0.0
C385 C 0.21917 0.7889 0.36502 0.0
C386 C 0.21272 0.76066 0.35559 0.0
C387 C 0.23017 0.787 0.34306 0.0
C388 C 0.25391 0.72321 0.2939 0.0
H389 H 0.30333 0.79719 0.21844 0.0
H390 H 0.28423 0.80041 0.25745 0.0
H391 H 0.27013 0.69677 0.27912 0.0
H392 H 0.21292 0.70836 0.31426 0.0
H393 H 0.23206 0.70505 0.27603 0.0
H394 H 0.24615 0.80872 0.25461 0.0
C395 C 0.28763 0.77693 0.23197 0.0
C396 C 0.26497 0.72132 0.2729 0.0
C397 C 0.29862 0.77506 0.20958 0.0
C398 C 0.21763 0.73047 0.32332 0.0
C399 C 0.22865 0.72855 0.30138 0.0
C400 C 0.25131 0.78418 0.26085 0.0
C401 C 0.28117 0.7487 0.2225 0.0
C402 C 0.26938 0.75082 0.24552 0.0
C403 C 0.2351 0.75677 0.31102 0.0
C404 C 0.2469 0.75467 0.2882 0.0
H405 H 0.30039 0.69324 0.14197 0.0
H406 H 0.28135 0.69644 0.18103 0.0
H407 H 0.26537 0.80541 0.21804 0.0
H408 H 0.2158 0.81234 0.39075 0.0
H409 H 0.23489 0.80904 0.35248 0.0
C410 C 0.71596 0.7794 0.22668 0.0
C411 C 0.71277 0.75629 0.17777 0.0
C412 C 0.72696 0.77758 0.24896 0.0
C413 C 0.75339 0.71877 0.25369 0.0
H414 H 0.76648 0.80524 0.28878 0.0
C415 C 0.80039 0.72025 0.30567 0.0
C416 C 0.80362 0.74323 0.3547 0.0
C417 C 0.78938 0.72207 0.2838 0.0
C418 C 0.76294 0.78078 0.27997 0.0
H419 H 0.71885 0.71322 0.11382 0.0
H420 H 0.73793 0.71004 0.15253 0.0
H421 H 0.74726 0.80759 0.25262 0.0
H422 H 0.7976 0.7861 0.41923 0.0
H423 H 0.77847 0.78932 0.38114 0.0
H424 H 0.76908 0.69197 0.28098 0.0
C425 C 0.7319 0.72927 0.17455 0.0
C426 C 0.75188 0.78213 0.25921 0.0
C427 C 0.7209 0.73108 0.15232 0.0
C428 C 0.79551 0.76834 0.38065 0.0
C429 C 0.78449 0.77016 0.35878 0.0
C430 C 0.76446 0.71743 0.27443 0.0
C431 C 0.73511 0.75262 0.22298 0.0
C432 C 0.74692 0.75115 0.24571 0.0
C433 C 0.78124 0.74693 0.31027 0.0
C434 C 0.76941 0.74841 0.28786 0.0
H435 H 0.70993 0.79882 0.24826 0.0
H436 H 0.72904 0.79561 0.28712 0.0
H437 H 0.74985 0.69431 0.24489 0.0
H438 H 0.80641 0.70092 0.28368 0.0
H439 H 0.78727 0.70414 0.24555 0.0
C440 C 0.12327 0.87821 0.4465 0.0
C441 C 0.13017 0.8525 0.48046 0.0
C442 C 0.12451 0.91399 0.45467 0.0
C443 C 0.14469 0.97497 0.50904 0.0
H444 H 0.11878 0.0429 0.5167 0.0
C445 C 0.13298 0.13336 0.56493 0.0
C446 C 0.14142 0.14684 0.52801 0.0
C447 C 0.13138 0.0975 0.56159 0.0
C448 C 0.12611 0.02429 0.51524 0.0
H449 H 0.14386 0.84418 0.54927 0.0
H450 H 0.14602 0.90654 0.56378 0.0
H451 H 0.11649 0.9804 0.50689 0.0
H452 H 0.15466 0.13338 0.45797 0.0
H453 H 0.15187 0.07141 0.45193 0.0
H454 H 0.15431 0.0187 0.51798 0.0
C455 C 0.13968 0.89914 0.53039 0.0
C456 C 0.1248 0.98841 0.5088 0.0
C457 C 0.13842 0.86336 0.52233 0.0
C458 C 0.14814 0.12383 0.48746 0.0
C459 C 0.14658 0.08815 0.48431 0.0
C460 C 0.146 0.01078 0.51522 0.0
C461 C 0.13272 0.92501 0.49685 0.0
C462 C 0.13408 0.96324 0.50524 0.0
C463 C 0.13822 0.07435 0.52151 0.0
C464 C 0.13673 0.03602 0.51791 0.0
H465 H 0.11685 0.8707 0.41371 0.0
H466 H 0.1191 0.93302 0.4272 0.0
H467 H 0.15203 0.95651 0.50594 0.0
H468 H 0.12765 0.15047 0.59648 0.0
H469 H 0.1249 0.08781 0.59122 0.0
C470 C 0.86818 0.37872 0.48679 0.0
C471 C 0.8749 0.3556 0.52737 0.0
C472 C 0.86973 0.41442 0.48383 0.0
C473 C 0.89017 0.47824 0.51542 0.0
H474 H 0.86423 0.54598 0.50606 0.0
C475 C 0.87783 0.63912 0.52291 0.0
C476 C 0.88608 0.65011 0.48114 0.0
C477 C 0.87657 0.60331 0.53087 0.0
C478 C 0.87158 0.52753 0.50918 0.0
H479 H 0.88865 0.35177 0.59607 0.0
H480 H 0.89138 0.41447 0.59113 0.0
H481 H 0.86197 0.48373 0.51777 0.0
H482 H 0.8994 0.63212 0.41445 0.0
H483 H 0.89715 0.56976 0.42777 0.0
H484 H 0.89978 0.52218 0.50741 0.0
C485 C 0.88491 0.40485 0.56134 0.0
C486 C 0.87028 0.49169 0.51517 0.0
C487 C 0.88332 0.36898 0.56449 0.0
C488 C 0.89298 0.6245 0.44717 0.0
C489 C 0.89175 0.5887 0.45524 0.0
C490 C 0.89147 0.51413 0.50917 0.0
C491 C 0.87807 0.42811 0.52125 0.0
C492 C 0.87955 0.46647 0.51787 0.0
C493 C 0.88354 0.57755 0.49733 0.0
C494 C 0.88219 0.5393 0.50559 0.0
H495 H 0.86167 0.36925 0.45715 0.0
H496 H 0.86444 0.43125 0.45144 0.0
H497 H 0.8975 0.45964 0.5169 0.0
H498 H 0.87239 0.65821 0.54984 0.0
H499 H 0.87023 0.5958 0.56417 0.0
C500 C 0.8682 0.87867 0.53541 0.0
C501 C 0.8749 0.85564 0.49478 0.0
C502 C 0.86975 0.91436 0.53831 0.0
C503 C 0.87026 0.99169 0.50677 0.0
H504 H 0.89975 0.02222 0.51488 0.0
C505 C 0.8778 0.13917 0.49945 0.0
C506 C 0.88603 0.15003 0.54146 0.0
C507 C 0.87655 0.10338 0.49135 0.0
C508 C 0.89145 0.01416 0.51301 0.0
H509 H 0.88861 0.85197 0.4259 0.0
H510 H 0.89134 0.91467 0.43076 0.0
H511 H 0.89749 0.95969 0.50523 0.0
H512 H 0.89932 0.13186 0.60843 0.0
H513 H 0.89709 0.06954 0.59484 0.0
H514 H 0.8642 0.04595 0.51592 0.0
C515 C 0.88489 0.90498 0.46062 0.0
C516 C 0.89015 0.97827 0.50668 0.0
C517 C 0.8833 0.8691 0.45753 0.0
C518 C 0.89292 0.12434 0.57553 0.0
C519 C 0.89169 0.08856 0.56731 0.0
C520 C 0.87155 0.02752 0.51283 0.0
C521 C 0.87807 0.92815 0.50077 0.0
C522 C 0.87954 0.9665 0.50413 0.0
C523 C 0.8835 0.07752 0.52498 0.0
C524 C 0.88216 0.03929 0.51657 0.0
H525 H 0.86171 0.86913 0.56516 0.0
H526 H 0.86447 0.93113 0.57074 0.0
H527 H 0.86195 0.98372 0.50411 0.0
H528 H 0.87237 0.15834 0.47243 0.0
H529 H 0.87022 0.09596 0.45787 0.0
C530 C 0.13285 0.63342 0.45729 0.0
C531 C 0.14124 0.64682 0.49465 0.0
C532 C 0.13127 0.59753 0.46037 0.0
C533 C 0.126 0.52412 0.50639 0.0
H534 H 0.15196 0.45647 0.51604 0.0
C535 C 0.12326 0.37793 0.57545 0.0
C536 C 0.13016 0.35229 0.54155 0.0
C537 C 0.12448 0.41372 0.56715 0.0
C538 C 0.14461 0.47489 0.51283 0.0
H539 H 0.15442 0.6332 0.56521 0.0
H540 H 0.15166 0.57119 0.57077 0.0
H541 H 0.1542 0.51873 0.50419 0.0
H542 H 0.14383 0.34413 0.47273 0.0
H543 H 0.14597 0.40654 0.45803 0.0
H544 H 0.11641 0.48014 0.51451 0.0
C545 C 0.14639 0.58801 0.53826 0.0
C546 C 0.14589 0.51074 0.50675 0.0
C547 C 0.14793 0.62371 0.53538 0.0
C548 C 0.13839 0.36324 0.49962 0.0
C549 C 0.13964 0.39905 0.49144 0.0
C550 C 0.12471 0.48822 0.51274 0.0
C551 C 0.13808 0.57429 0.50062 0.0
C552 C 0.13662 0.53593 0.50397 0.0
C553 C 0.13267 0.42484 0.52491 0.0
C554 C 0.134 0.46309 0.51645 0.0
H555 H 0.12754 0.65061 0.42558 0.0
H556 H 0.12482 0.58789 0.43042 0.0
H557 H 0.11867 0.5427 0.50483 0.0
H558 H 0.11686 0.37034 0.60829 0.0
H559 H 0.11907 0.43269 0.59457 0.0
C560 C 0.63649 0.62839 0.08297 0.0
C561 C 0.64057 0.64673 0.02964 0.0
C562 C 0.63509 0.59248 0.07725 0.0
C563 C 0.64323 0.51445 0.96747 0.0
H564 H 0.62133 0.47125 0.07074 0.0
C565 C 0.62717 0.37647 0.9231 0.0
C566 C 0.63077 0.35221 0.9727 0.0
C567 C 0.6284 0.4123 0.93081 0.0
C568 C 0.62749 0.48308 0.04174 0.0
H569 H 0.64583 0.64255 0.92762 0.0
H570 H 0.64275 0.58117 0.91596 0.0
H571 H 0.6229 0.53419 0.08161 0.0
H572 H 0.63839 0.34651 0.06951 0.0
H573 H 0.64018 0.40945 0.08374 0.0
H574 H 0.6474 0.46326 0.92572 0.0
C575 C 0.64116 0.59343 0.96357 0.0
C576 C 0.62848 0.51917 0.04823 0.0
C577 C 0.64282 0.62892 0.9699 0.0
C578 C 0.63558 0.36456 0.03033 0.0
C579 C 0.63656 0.4005 0.03866 0.0
C580 C 0.64206 0.47862 0.96002 0.0
C581 C 0.63749 0.57426 0.01748 0.0
C582 C 0.63638 0.53555 0.01115 0.0
C583 C 0.633 0.42465 0.98891 0.0
C584 C 0.6342 0.46262 0.99715 0.0
H585 H 0.63474 0.64148 0.12975 0.0
H586 H 0.63239 0.57893 0.12039 0.0
H587 H 0.64965 0.52537 0.93924 0.0
H588 H 0.62347 0.3677 0.87815 0.0
H589 H 0.62563 0.43047 0.89173 0.0
C590 C 0.37998 0.87426 0.08242 0.0
C591 C 0.37586 0.85611 0.02905 0.0
C592 C 0.38136 0.9102 0.07685 0.0
C593 C 0.37306 0.98862 0.96784 0.0
H594 H 0.3951 0.03151 0.07028 0.0
C595 C 0.38916 0.12671 0.92366 0.0
C596 C 0.38545 0.15087 0.97299 0.0
C597 C 0.38797 0.09084 0.93136 0.0
C598 C 0.3889 0.01976 0.04152 0.0
H599 H 0.37053 0.86066 0.92714 0.0
H600 H 0.37357 0.92211 0.91576 0.0
H601 H 0.39357 0.9685 0.08095 0.0
H602 H 0.37768 0.15637 0.06932 0.0
H603 H 0.37594 0.09337 0.08353 0.0
H604 H 0.3688 0.03997 0.92655 0.0
C605 C 0.37521 0.90966 0.96327 0.0
C606 C 0.38794 0.98365 0.0479 0.0
C607 C 0.37357 0.87414 0.96944 0.0
C608 C 0.38058 0.1384 0.03035 0.0
C609 C 0.37962 0.10242 0.03867 0.0
C610 C 0.3742 0.02449 0.96053 0.0
C611 C 0.37891 0.92864 0.01722 0.0
C612 C 0.37999 0.96737 1.01108 0.0
C613 C 0.38328 0.07837 0.98918 0.0
C614 C 0.38211 0.04038 0.99736 0.0
H615 H 0.38176 0.861 0.1291 0.0
H616 H 0.38409 0.9236 0.12 0.0
H617 H 0.36661 0.97777 0.93982 0.0
H618 H 0.39292 0.13558 0.87892 0.0
H619 H 0.39081 0.07275 0.89248 0.0
C620 C 0.36801 0.37958 0.03071 0.0
C621 C 0.37486 0.35679 0.99041 0.0
C622 C 0.36957 0.41521 0.03493 0.0
C623 C 0.37023 0.49265 1.00531 0.0
H624 H 0.39963 0.52307 0.0224 0.0
C625 C 0.37771 0.64009 1.00541 0.0
C626 C 0.38562 0.65073 0.04984 0.0
C627 C 0.37655 0.60435 0.99575 0.0
C628 C 0.39135 0.51503 0.018 0.0
H629 H 0.38885 0.35349 0.92361 0.0
H630 H 0.39162 0.41615 0.931 0.0
H631 H 0.39744 0.4606 1.00958 0.0
H632 H 0.39845 0.63219 0.11952 0.0
H633 H 0.39639 0.56991 0.10327 0.0
H634 H 0.3641 0.5468 0.01502 0.0
C635 C 0.38503 0.40628 0.95942 0.0
C636 C 0.39011 0.4792 1.00986 0.0
C637 C 0.38342 0.37045 0.95486 0.0
C638 C 0.3923 0.62484 0.08479 0.0
C639 C 0.39117 0.5891 0.07504 0.0
C640 C 0.37147 0.5284 0.01313 0.0
C641 C 0.37805 0.42918 0.9992 0.0
C642 C 0.37951 0.46748 1.00409 0.0
C643 C 0.3833 0.5783 0.03024 0.0
C644 C 0.38204 0.54014 0.02012 0.0
H645 H 0.36139 0.3699 0.05916 0.0
H646 H 0.36417 0.43179 0.06699 0.0
H647 H 0.36195 0.4847 1.00022 0.0
H648 H 0.37245 0.65939 0.9776 0.0
H649 H 0.37048 0.59713 0.96037 0.0
C650 C 0.63259 0.13263 0.95551 0.0
C651 C 0.6412 0.14617 0.99073 0.0
C652 C 0.63098 0.09678 0.96006 0.0
C653 C 0.62599 0.02367 1.0107 0.0
H654 H 0.65202 0.95611 0.01411 0.0
C655 C 0.62398 0.87772 0.08532 0.0
C656 C 0.63062 0.85197 0.05001 0.0
C657 C 0.62508 0.91351 0.07557 0.0
C658 C 0.64464 0.97449 0.01271 0.0
H659 H 0.65476 0.13283 0.05892 0.0
H660 H 0.652 0.07092 0.06672 0.0
H661 H 0.65413 0.01827 0.99938 0.0
H662 H 0.64366 0.84361 0.97708 0.0
H663 H 0.64557 0.90594 0.9598 0.0
H664 H 0.61651 0.97973 0.02368 0.0
C665 C 0.64655 0.0876 0.03492 0.0
C666 C 0.64586 0.01028 1.00493 0.0
C667 C 0.6481 0.12325 0.03072 0.0
C668 C 0.63845 0.8628 1.00518 0.0
C669 C 0.63956 0.89858 0.9955 0.0
C670 C 0.62477 0.9878 0.01881 0.0
C671 C 0.63802 0.07375 0.99951 0.0
C672 C 0.63657 0.03543 1.00434 0.0
C673 C 0.63286 0.92449 0.03038 0.0
C674 C 0.63409 0.9627 0.0203 0.0
H675 H 0.62712 0.14969 0.92451 0.0
H676 H 0.62435 0.087 0.93191 0.0
H677 H 0.61866 0.04226 1.01092 0.0
H678 H 0.61789 0.87022 0.12038 0.0
H679 H 0.6199 0.93258 0.10412 0.0
C680 C 0.14373 0.26604 0.29113 0.0
C681 C 0.13535 0.25156 0.32714 0.0
C682 C 0.1438 0.26526 0.22199 0.0
C683 C 0.13287 0.21894 0.07882 0.0
H684 H 0.14134 0.29899 0.9801 0.0
C685 C 0.12835 0.22946 0.79413 0.0
C686 C 0.13674 0.24409 0.7585 0.0
C687 C 0.12826 0.22997 0.86331 0.0
C688 C 0.13908 0.27621 1.00683 0.0
H689 H 0.12042 0.22508 0.31806 0.0
H690 H 0.12048 0.22406 0.19751 0.0
H691 H 0.14084 0.3011 0.10038 0.0
H692 H 0.15169 0.27043 0.76826 0.0
H693 H 0.15158 0.27099 0.88877 0.0
H694 H 0.13112 0.19406 0.98522 0.0
C695 C 0.12709 0.23564 0.22283 0.0
C696 C 0.13879 0.27743 0.07596 0.0
C697 C 0.12701 0.23644 0.29208 0.0
C698 C 0.14508 0.25897 0.79394 0.0
C699 C 0.14498 0.25951 0.86317 0.0
C700 C 0.13317 0.21772 1.00967 0.0
C701 C 0.1355 0.24997 0.18681 0.0
C702 C 0.13569 0.2488 0.11298 0.0
C703 C 0.13654 0.24516 0.89884 0.0
C704 C 0.13629 0.24633 0.97267 0.0
H705 H 0.15031 0.27779 0.31631 0.0
H706 H 0.15049 0.27613 0.19613 0.0
H707 H 0.13062 0.19616 0.10557 0.0
H708 H 0.12176 0.21788 0.76863 0.0
H709 H 0.12155 0.21905 0.88892 0.0
C710 C 0.87251 0.23638 0.29064 0.0
C711 C 0.88089 0.2508 0.32656 0.0
C712 C 0.87245 0.23713 0.22149 0.0
C713 C 0.88341 0.28332 0.07799 0.0
H714 H 0.87491 0.20328 0.97992 0.0
C715 C 0.88795 0.27267 0.79345 0.0
C716 C 0.87956 0.25809 0.75788 0.0
C717 C 0.88804 0.27218 0.86263 0.0
C718 C 0.87717 0.22606 1.00646 0.0
H719 H 0.89584 0.27718 0.31735 0.0
H720 H 0.89579 0.27817 0.19679 0.0
H721 H 0.8754 0.20122 0.10023 0.0
H722 H 0.86459 0.23185 0.76775 0.0
H723 H 0.86469 0.23131 0.88826 0.0
H724 H 0.88519 0.30815 0.98418 0.0
C725 C 0.88917 0.26664 0.22217 0.0
C726 C 0.87746 0.22487 0.07561 0.0
C727 C 0.88925 0.26586 0.29142 0.0
C728 C 0.8712 0.24327 0.79338 0.0
C729 C 0.8713 0.24274 0.86262 0.0
C730 C 0.88312 0.28451 1.00882 0.0
C731 C 0.88076 0.25235 0.18623 0.0
C732 C 0.88057 0.25349 0.11239 0.0
C733 C 0.87975 0.25705 0.89823 0.0
C734 C 0.87999 0.25591 0.97206 0.0
H735 H 0.86591 0.22467 0.31588 0.0
H736 H 0.86575 0.22629 0.19568 0.0
H737 H 0.88567 0.30609 0.10455 0.0
H738 H 0.89455 0.28422 0.76791 0.0
H739 H 0.89476 0.28306 0.8882 0.0
C740 C 0.12828 0.72995 0.22839 0.0
C741 C 0.13668 0.74449 0.26398 0.0
C742 C 0.12819 0.73047 0.15921 0.0
C743 C 0.13907 0.77657 0.0154 0.0
H744 H 0.13055 0.69657 0.91731 0.0
C745 C 0.14371 0.76626 0.73119 0.0
C746 C 0.13532 0.75183 0.69529 0.0
C747 C 0.14378 0.76552 0.80034 0.0
C748 C 0.13282 0.71934 0.94387 0.0
H749 H 0.15165 0.7707 0.25415 0.0
H750 H 0.15155 0.77128 0.13364 0.0
H751 H 0.13104 0.69451 0.03767 0.0
H752 H 0.12037 0.72547 0.70456 0.0
H753 H 0.12043 0.72451 0.82512 0.0
H754 H 0.14085 0.80141 0.92164 0.0
C755 C 0.14494 0.75986 0.15926 0.0
C756 C 0.13311 0.71814 0.01303 0.0
C757 C 0.14504 0.75931 0.2285 0.0
C758 C 0.12697 0.7368 0.73046 0.0
C759 C 0.12705 0.73603 0.79971 0.0
C760 C 0.13878 0.77777 0.94625 0.0
C761 C 0.13648 0.74558 0.12363 0.0
C762 C 0.13625 0.74673 0.0498 0.0
C763 C 0.13547 0.75031 0.83563 0.0
C764 C 0.13566 0.74916 0.90947 0.0
H765 H 0.12167 0.71842 0.25391 0.0
H766 H 0.12147 0.71962 0.13363 0.0
H767 H 0.14134 0.79934 0.04195 0.0
H768 H 0.15031 0.77795 0.70592 0.0
H769 H 0.15048 0.77635 0.82613 0.0
C770 C 0.88916 0.76604 0.73079 0.0
C771 C 0.88084 0.75083 0.69573 0.0
C772 C 0.88906 0.76694 0.80003 0.0
C773 C 0.87034 0.76102 0.94407 0.0
H774 H 0.89776 0.74421 0.04262 0.0
C775 C 0.87117 0.74344 0.22886 0.0
C776 C 0.87951 0.75832 0.26435 0.0
C777 C 0.87127 0.74298 0.15962 0.0
C778 C 0.89003 0.7494 0.01594 0.0
H779 H 0.86593 0.72431 0.70653 0.0
H780 H 0.86584 0.72555 0.82677 0.0
H781 H 0.89815 0.74231 0.92228 0.0
H782 H 0.89444 0.78478 0.25431 0.0
H783 H 0.89453 0.78433 0.134 0.0
H784 H 0.86222 0.76809 0.03772 0.0
C785 C 0.87237 0.73727 0.80085 0.0
C786 C 0.89025 0.74829 0.94677 0.0
C787 C 0.87247 0.73635 0.73171 0.0
C788 C 0.88789 0.773 0.22878 0.0
C789 C 0.88799 0.77252 0.1596 0.0
C790 C 0.87011 0.76213 0.01323 0.0
C791 C 0.88063 0.7527 0.83603 0.0
C792 C 0.88041 0.75405 0.90984 0.0
C793 C 0.87971 0.75736 0.12401 0.0
C794 C 0.87995 0.75631 0.05018 0.0
H795 H 0.89572 0.77757 0.70482 0.0
H796 H 0.8955 0.77939 0.82531 0.0
H797 H 0.86261 0.76617 0.91739 0.0
H798 H 0.8646 0.73177 0.25451 0.0
H799 H 0.86483 0.73071 0.13403 0.0
C800 C 0.6455 0.7574 0.30233 0.0
C801 C 0.63717 0.74248 0.26683 0.0
C802 C 0.64536 0.75806 0.37158 0.0
C803 C 0.62644 0.75222 0.51482 0.0
H804 H 0.65375 0.73602 0.6146 0.0
C805 C 0.62703 0.73663 0.80036 0.0
C806 C 0.63533 0.75191 0.83545 0.0
C807 C 0.62717 0.73557 0.73111 0.0
C808 C 0.64605 0.74101 0.58757 0.0
H809 H 0.62224 0.71604 0.27692 0.0
H810 H 0.62208 0.71682 0.39717 0.0
H811 H 0.65428 0.73363 0.49432 0.0
H812 H 0.65023 0.77848 0.82466 0.0
H813 H 0.65039 0.77697 0.70449 0.0
H814 H 0.61821 0.75961 0.60808 0.0
C815 C 0.62864 0.72854 0.37159 0.0
C816 C 0.64636 0.73963 0.51843 0.0
C817 C 0.62878 0.72787 0.30243 0.0
C818 C 0.64371 0.76638 0.79948 0.0
C819 C 0.64385 0.7653 0.73036 0.0
C820 C 0.62613 0.75359 0.58396 0.0
C821 C 0.63688 0.74384 0.4072 0.0
C822 C 0.63656 0.74522 0.48103 0.0
C823 C 0.63563 0.74971 0.69514 0.0
C824 C 0.63593 0.74806 0.62135 0.0
H825 H 0.65208 0.76902 0.27666 0.0
H826 H 0.65179 0.77041 0.39717 0.0
H827 H 0.61874 0.75724 0.48778 0.0
H828 H 0.62047 0.7251 0.82634 0.0
H829 H 0.62076 0.72302 0.70581 0.0
C830 C 0.37262 0.73649 0.79901 0.0
C831 C 0.38103 0.75077 0.83491 0.0
C832 C 0.37251 0.73739 0.72987 0.0
C833 C 0.38338 0.78401 0.58665 0.0
H834 H 0.37462 0.70462 0.48776 0.0
C835 C 0.38764 0.77439 0.30188 0.0
C836 C 0.37922 0.76001 0.26626 0.0
C837 C 0.38776 0.77372 0.37105 0.0
C838 C 0.37695 0.72722 0.51454 0.0
H839 H 0.396 0.77701 0.82568 0.0
H840 H 0.39589 0.77825 0.70508 0.0
H841 H 0.37527 0.70199 0.60801 0.0
H842 H 0.36421 0.734 0.27604 0.0
H843 H 0.36435 0.73315 0.39661 0.0
H844 H 0.38507 0.80923 0.49314 0.0
C845 C 0.38928 0.76671 0.73049 0.0
C846 C 0.37734 0.7257 0.58366 0.0
C847 C 0.38939 0.76577 0.79976 0.0
C848 C 0.37084 0.74527 0.30172 0.0
C849 C 0.37097 0.74456 0.37097 0.0
C850 C 0.383 0.78553 0.51751 0.0
C851 C 0.38081 0.75263 0.69457 0.0
C852 C 0.38055 0.75408 0.62074 0.0
C853 C 0.37947 0.75862 0.40662 0.0
C854 C 0.37977 0.75717 0.48045 0.0
H855 H 0.36601 0.72482 0.82426 0.0
H856 H 0.36578 0.72671 0.70412 0.0
H857 H 0.38572 0.80661 0.61344 0.0
H858 H 0.39426 0.78587 0.27638 0.0
H859 H 0.39451 0.78441 0.39662 0.0
C860 C 0.62701 0.23696 0.22342 0.0
C861 C 0.6354 0.25181 0.18831 0.0
C862 C 0.62712 0.23595 0.29267 0.0
C863 C 0.64599 0.24067 0.43648 0.0
H864 H 0.61868 0.25821 0.53557 0.0
C865 C 0.64541 0.25756 0.72136 0.0
C866 C 0.63702 0.24293 0.75696 0.0
C867 C 0.64528 0.25815 0.65211 0.0
C868 C 0.62638 0.25282 0.50873 0.0
H869 H 0.65044 0.27766 0.19904 0.0
H870 H 0.65056 0.27624 0.31925 0.0
H871 H 0.6182 0.26048 0.41523 0.0
H872 H 0.62199 0.21702 0.74709 0.0
H873 H 0.62184 0.2177 0.62678 0.0
H874 H 0.65416 0.23304 0.52996 0.0
C875 C 0.64396 0.26486 0.29338 0.0
C876 C 0.6261 0.25413 0.43956 0.0
C877 C 0.64385 0.26589 0.22425 0.0
C878 C 0.62858 0.22859 0.72148 0.0
C879 C 0.62844 0.22921 0.65231 0.0
C880 C 0.64626 0.23936 0.50563 0.0
C881 C 0.63564 0.24971 0.32862 0.0
C882 C 0.6359 0.24813 0.40243 0.0
C883 C 0.63675 0.24417 0.6166 0.0
C884 C 0.63646 0.24544 0.54277 0.0
H885 H 0.62039 0.22575 0.19746 0.0
H886 H 0.62063 0.22374 0.31799 0.0
H887 H 0.65369 0.2353 0.40964 0.0
H888 H 0.65203 0.26897 0.74694 0.0
H889 H 0.65175 0.27024 0.62643 0.0
C890 C 0.3891 0.26614 0.22339 0.0
C891 C 0.38073 0.25116 0.18836 0.0
C892 C 0.38899 0.26719 0.29264 0.0
C893 C 0.37013 0.26228 0.43637 0.0
H894 H 0.39744 0.24515 0.5358 0.0
C895 C 0.37071 0.2455 0.72143 0.0
C896 C 0.37908 0.26023 0.75695 0.0
C897 C 0.37085 0.2449 0.65218 0.0
C898 C 0.38974 0.25043 0.50886 0.0
H899 H 0.36574 0.2251 0.19924 0.0
H900 H 0.36561 0.22658 0.31944 0.0
H901 H 0.39793 0.24283 0.41548 0.0
H902 H 0.39408 0.28633 0.74695 0.0
H903 H 0.39423 0.28565 0.62665 0.0
H904 H 0.36194 0.26984 0.52973 0.0
C905 C 0.37219 0.23804 0.29351 0.0
C906 C 0.39002 0.24909 0.43971 0.0
C907 C 0.37231 0.23697 0.22439 0.0
C908 C 0.38751 0.27468 0.7214 0.0
C909 C 0.38764 0.27406 0.65223 0.0
C910 C 0.36984 0.26362 0.50551 0.0
C911 C 0.38049 0.25332 0.32866 0.0
C912 C 0.38022 0.25494 0.40246 0.0
C913 C 0.37935 0.25898 0.6166 0.0
C914 C 0.37965 0.2577 0.54278 0.0
H915 H 0.3957 0.27744 0.19737 0.0
H916 H 0.39545 0.2795 0.31788 0.0
H917 H 0.36242 0.26753 0.40944 0.0
H918 H 0.36411 0.23401 0.74706 0.0
H919 H 0.36439 0.23273 0.62657 0.0
C920 C 0.0503 0.22111 0.45186 0.0
C921 C 0.05594 0.24485 0.48902 0.0
C922 C 0.03869 0.22381 0.44998 0.0
C923 C 0.01387 0.2628 0.54264 0.0
H924 H 0.99806 0.23949 0.38479 0.0
C925 C 0.9662 0.28923 0.52116 0.0
C926 C 0.9604 0.26313 0.492 0.0
C927 C 0.97779 0.28703 0.51915 0.0
C928 C 1.00235 0.24578 0.4295 0.0
H929 H 0.05355 0.2905 0.55275 0.0
H930 H 0.03344 0.29597 0.54753 0.0
H931 H 0.01825 0.2365 0.38327 0.0
H932 H 0.96237 0.21438 0.437 0.0
H933 H 0.98262 0.21049 0.43358 0.0
H934 H 0.99796 0.27237 0.58861 0.0
C935 C 0.03798 0.27471 0.52081 0.0
C936 C 0.01396 0.24403 0.42871 0.0
C937 C 0.04959 0.2719 0.52294 0.0
C938 C 0.96654 0.23485 0.4603 0.0
C939 C 0.97816 0.23279 0.45784 0.0
C940 C 1.00228 0.26475 0.54328 0.0
C941 C 0.03233 0.25046 0.48497 0.0
C942 C 0.01991 0.25254 0.48529 0.0
C943 C 0.98394 0.25875 0.48765 0.0
C944 C 0.99634 0.25631 0.48674 0.0
H945 H 0.05485 0.20019 0.42428 0.0
H946 H 0.03471 0.20442 0.42222 0.0
H947 H 0.0181 0.26882 0.58769 0.0
H948 H 0.96179 0.31116 0.54677 0.0
H949 H 0.98193 0.3077 0.54205 0.0
C950 C 0.96614 0.78942 0.50075 0.0
C951 C 0.96035 0.76329 0.53001 0.0
C952 C 0.97773 0.7872 0.50274 0.0
C953 C 1.00231 0.74583 0.59252 0.0
H954 H 0.01803 0.76908 0.43426 0.0
C955 C 0.05026 0.72128 0.57041 0.0
C956 C 0.0559 0.74507 0.53314 0.0
C957 C 0.03865 0.72396 0.57222 0.0
C958 C 0.01381 0.763 0.47933 0.0
H959 H 0.96232 0.71445 0.58515 0.0
H960 H 0.98258 0.71054 0.58853 0.0
H961 H 0.9979 0.77262 0.4333 0.0
H962 H 0.05349 0.79077 0.46917 0.0
H963 H 0.03337 0.79618 0.47428 0.0
H964 H 0.01822 0.73653 0.6388 0.0
C965 C 0.97811 0.73288 0.56421 0.0
C966 C 1.00222 0.76494 0.47867 0.0
C967 C 0.96649 0.73496 0.56178 0.0
C968 C 0.04953 0.77213 0.49906 0.0
C969 C 0.03792 0.77491 0.50113 0.0
C970 C 0.01392 0.7441 0.59333 0.0
C971 C 0.9839 0.75887 0.53431 0.0
C972 C 0.99629 0.75643 0.53524 0.0
C973 C 0.03229 0.75062 0.53707 0.0
C974 C 0.01986 0.75268 0.53673 0.0
H975 H 0.96173 0.81139 0.47509 0.0
H976 H 0.98187 0.8079 0.47976 0.0
H977 H 0.99802 0.73949 0.63724 0.0
H978 H 0.05482 0.70036 0.59811 0.0
H979 H 0.03467 0.70454 0.60007 0.0
C980 C 0.5496 0.77196 0.03685 0.0
C981 C 0.55597 0.74545 1.00167 0.0
C982 C 0.53799 0.77452 0.03511 0.0
C983 C 0.514 0.74432 0.94208 0.0
H984 H 0.49802 0.7708 0.10301 0.0
C985 C 0.46665 0.73409 0.97316 0.0
C986 C 0.46047 0.76217 1.00522 0.0
C987 C 0.47826 0.73211 0.97102 0.0
C988 C 0.50233 0.76368 0.05741 0.0
H989 H 0.55492 0.70148 0.93518 0.0
H990 H 0.53478 0.70525 0.93383 0.0
H991 H 0.51816 0.76761 0.10191 0.0
H992 H 0.46179 0.80987 0.06114 0.0
H993 H 0.48194 0.80652 0.05707 0.0
H994 H 0.4981 0.73991 0.89808 0.0
C995 C 0.53874 0.72443 0.96226 0.0
C996 C 0.51392 0.76195 0.05667 0.0
C997 C 0.55035 0.72198 0.96372 0.0
C998 C 0.46623 0.7881 0.03524 0.0
C999 C 0.47782 0.78597 0.03358 0.0
C1000 C 0.50239 0.74583 0.94298 0.0
C1001 C 0.53237 0.75054 0.99842 0.0
C1002 C 0.51995 0.75238 0.99893 0.0
C1003 C 0.48401 0.75794 1.00154 0.0
C1004 C 0.4964 0.75568 1.0006 0.0
H1005 H 0.55355 0.79032 0.06729 0.0
H1006 H 0.53343 0.79539 0.06277 0.0
H1007 H 0.51828 0.73735 0.89634 0.0
H1008 H 0.4625 0.71374 0.94925 0.0
H1009 H 0.48275 0.71 0.94635 0.0
C1010 C 0.46648 0.23439 0.05067 0.0
C1011 C 0.46029 0.26244 0.01834 0.0
C1012 C 0.4781 0.23244 0.05283 0.0
C1013 C 0.50217 0.26418 0.96619 0.0
H1014 H 0.51816 0.23744 0.12717 0.0
C1015 C 0.54945 0.27255 0.9867 0.0
C1016 C 0.55585 0.24602 0.02195 0.0
C1017 C 0.53784 0.27503 0.98839 0.0
C1018 C 0.51387 0.24453 0.08146 0.0
H1019 H 0.4616 0.31012 0.96197 0.0
H1020 H 0.48174 0.30683 0.9661 0.0
H1021 H 0.49798 0.23999 0.12549 0.0
H1022 H 0.55483 0.20192 0.08848 0.0
H1023 H 0.53469 0.20556 0.08977 0.0
H1024 H 0.51798 0.26826 0.92168 0.0
C1025 C 0.47764 0.28627 0.98979 0.0
C1026 C 0.50226 0.24603 0.08058 0.0
C1027 C 0.46605 0.28837 0.98809 0.0
C1028 C 0.55025 0.22244 0.05988 0.0
C1029 C 0.53863 0.22481 0.06132 0.0
C1030 C 0.51376 0.26247 0.96692 0.0
C1031 C 0.48384 0.25827 0.02206 0.0
C1032 C 0.49624 0.25603 0.02299 0.0
C1033 C 0.53223 0.25096 0.02511 0.0
C1034 C 0.51981 0.25276 0.02462 0.0
H1035 H 0.46234 0.21404 0.07478 0.0
H1036 H 0.4826 0.21034 0.0777 0.0
H1037 H 0.49784 0.27141 0.92061 0.0
H1038 H 0.55339 0.29101 0.95625 0.0
H1039 H 0.53326 0.29593 0.96069 0.0
loop_
_geom_bond_atom_site_label_1
_geom_bond_atom_site_label_2
_geom_bond_distance
_geom_bond_site_symmetry_2
_ccdc_geom_bond_type
Sm0 C2 2.846 . S
Sm0 O20 2.543 . S
Sm0 O21 2.450 . S
Sm0 O22 2.681 . S
Sm0 O23 2.464 . S
Sm0 O24 2.396 . S
Sm0 O28 2.386 . S
Sm0 O31 2.408 . S
Sm1 C11 2.846 . S
Sm1 O22 2.386 . S
Sm1 O25 2.408 . S
Sm1 O26 2.543 . S
Sm1 O27 2.450 . S
Sm1 O28 2.681 . S
Sm1 O29 2.464 . S
Sm1 O30 2.396 . S
C2 Sm0 2.846 . S
C2 C3 1.506 . S
C2 O20 1.261 . S
C2 O21 1.242 . S
C3 C2 1.506 . S
C3 C4 1.358 . S
C3 C8 1.382 . S
C4 C3 1.358 . S
C4 C5 1.385 . S
C4 H32 0.930 . S
C5 C4 1.385 . S
C5 C6 1.395 . S
C5 H33 0.929 . S
C6 C5 1.395 . S
C6 C7 1.335 . S
C7 C6 1.335 . S
C7 C8 1.398 . S
C7 H34 0.930 . S
C8 C3 1.382 . S
C8 C7 1.398 . S
C8 H35 0.929 . S
C9 O22 1.271 . S
C9 O23 1.251 . S
C10 O24 1.252 . S
C10 O25 1.272 . S
C11 Sm1 2.846 . S
C11 C12 1.506 . S
C11 O26 1.261 . S
C11 O27 1.242 . S
C12 C11 1.506 . S
C12 C13 1.358 . S
C12 C17 1.382 . S
C13 C12 1.358 . S
C13 C14 1.385 . S
C13 H36 0.930 . S
C14 C13 1.385 . S
C14 C15 1.395 . S
C14 H37 0.929 . S
C15 C14 1.395 . S
C15 C16 1.335 . S
C16 C15 1.335 . S
C16 C17 1.398 . S
C16 H38 0.930 . S
C17 C12 1.382 . S
C17 C16 1.398 . S
C17 H39 0.929 . S
C18 O28 1.271 . S
C18 O29 1.251 . S
C19 O30 1.252 . S
C19 O31 1.272 . S
O20 Sm0 2.543 . S
O20 C2 1.261 . S
O21 Sm0 2.450 . S
O21 C2 1.242 . S
O22 Sm0 2.681 . S
O22 Sm1 2.386 . S
O22 C9 1.271 . S
O23 Sm0 2.464 . S
O23 C9 1.251 . S
O24 Sm0 2.396 . S
O24 C10 1.252 . S
O25 Sm1 2.408 . S
O25 C10 1.272 . S
O26 Sm1 2.543 . S
O26 C11 1.261 . S
O27 Sm1 2.450 . S
O27 C11 1.242 . S
O28 Sm0 2.386 . S
O28 Sm1 2.681 . S
O28 C18 1.271 . S
O29 Sm1 2.464 . S
O29 C18 1.251 . S
O30 Sm1 2.396 . S
O30 C19 1.252 . S
O31 Sm0 2.408 . S
O31 C19 1.272 . S
H32 C4 0.930 . S
H33 C5 0.929 . S
H34 C7 0.930 . S
H35 C8 0.929 . S
H36 C13 0.930 . S
H37 C14 0.929 . S
H38 C16 0.930 . S
H39 C17 0.929 . S
Sm40 C42 2.846 . S
Sm40 O60 2.543 . S
Sm40 O61 2.450 . S
Sm40 O62 2.681 . S
Sm40 O63 2.464 . S
Sm40 O64 2.396 . S
Sm40 O68 2.386 . S
Sm40 O71 2.408 . S
Sm41 C51 2.846 . S
Sm41 O62 2.386 . S
Sm41 O65 2.408 . S
Sm41 O66 2.543 . S
Sm41 O67 2.450 . S
Sm41 O68 2.681 . S
Sm41 O69 2.464 . S
Sm41 O70 2.396 . S
C42 Sm40 2.846 . S
C42 C43 1.506 . S
C42 O60 1.261 . S
C42 O61 1.242 . S
C43 C42 1.506 . S
C43 C44 1.358 . S
C43 C48 1.382 . S
C44 C43 1.358 . S
C44 C45 1.385 . S
C44 H72 0.930 . S
C45 C44 1.385 . S
C45 C46 1.395 . S
C45 H73 0.929 . S
C46 C45 1.395 . S
C46 C47 1.335 . S
C47 C46 1.335 . S
C47 C48 1.398 . S
C47 H74 0.930 . S
C48 C43 1.382 . S
C48 C47 1.398 . S
C48 H75 0.929 . S
C49 O62 1.271 . S
C49 O63 1.251 . S
C50 O64 1.252 . S
C50 O65 1.272 . S
C51 Sm41 2.846 . S
C51 C52 1.506 . S
C51 O66 1.261 . S
C51 O67 1.242 . S
C52 C51 1.506 . S
C52 C53 1.358 . S
C52 C57 1.382 . S
C53 C52 1.358 . S
C53 C54 1.385 . S
C53 H76 0.930 . S
C54 C53 1.385 . S
C54 C55 1.395 . S
C54 H77 0.929 . S
C55 C54 1.395 . S
C55 C56 1.335 . S
C56 C55 1.335 . S
C56 C57 1.398 . S
C56 H78 0.930 . S
C57 C52 1.382 . S
C57 C56 1.398 . S
C57 H79 0.929 . S
C58 O68 1.271 . S
C58 O69 1.251 . S
C59 O70 1.252 . S
C59 O71 1.272 . S
O60 Sm40 2.543 . S
O60 C42 1.261 . S
O61 Sm40 2.450 . S
O61 C42 1.242 . S
O62 Sm40 2.681 . S
O62 Sm41 2.386 . S
O62 C49 1.271 . S
O63 Sm40 2.464 . S
O63 C49 1.251 . S
O64 Sm40 2.396 . S
O64 C50 1.252 . S
O65 Sm41 2.408 . S
O65 C50 1.272 . S
O66 Sm41 2.543 . S
O66 C51 1.261 . S
O67 Sm41 2.450 . S
O67 C51 1.242 . S
O68 Sm40 2.386 . S
O68 Sm41 2.681 . S
O68 C58 1.271 . S
O69 Sm41 2.464 . S
O69 C58 1.251 . S
O70 Sm41 2.396 . S
O70 C59 1.252 . S
O71 Sm40 2.408 . S
O71 C59 1.272 . S
H72 C44 0.930 . S
H73 C45 0.929 . S
H74 C47 0.930 . S
H75 C48 0.929 . S
H76 C53 0.930 . S
H77 C54 0.929 . S
H78 C56 0.930 . S
H79 C57 0.929 . S
Sm80 C82 2.846 . S
Sm80 O100 2.543 . S
Sm80 O101 2.450 . S
Sm80 O102 2.681 . S
Sm80 O103 2.464 . S
Sm80 O104 2.396 . S
Sm80 O108 2.386 . S
Sm80 O111 2.408 . S
Sm81 C91 2.846 . S
Sm81 O102 2.386 . S
Sm81 O105 2.408 . S
Sm81 O106 2.543 . S
Sm81 O107 2.450 . S
Sm81 O108 2.681 . S
Sm81 O109 2.464 . S
Sm81 O110 2.396 . S
C82 Sm80 2.846 . S
C82 C83 1.506 . S
C82 O100 1.261 . S
C82 O101 1.242 . S
C83 C82 1.506 . S
C83 C84 1.358 . S
C83 C88 1.382 . S
C84 C83 1.358 . S
C84 C85 1.385 . S
C84 H112 0.930 . S
C85 C84 1.385 . S
C85 C86 1.395 . S
C85 H113 0.929 . S
C86 C85 1.395 . S
C86 C87 1.335 . S
C87 C86 1.335 . S
C87 C88 1.398 . S
C87 H114 0.930 . S
C88 C83 1.382 . S
C88 C87 1.398 . S
C88 H115 0.929 . S
C89 O102 1.271 . S
C89 O103 1.251 . S
C90 O104 1.252 . S
C90 O105 1.272 . S
C91 Sm81 2.846 . S
C91 C92 1.506 . S
C91 O106 1.261 . S
C91 O107 1.242 . S
C92 C91 1.506 . S
C92 C93 1.358 . S
C92 C97 1.382 . S
C93 C92 1.358 . S
C93 C94 1.385 . S
C93 H116 0.930 . S
C94 C93 1.385 . S
C94 C95 1.395 . S
C94 H117 0.929 . S
C95 C94 1.395 . S
C95 C96 1.335 . S
C96 C95 1.335 . S
C96 C97 1.398 . S
C96 H118 0.930 . S
C97 C92 1.382 . S
C97 C96 1.398 . S
C97 H119 0.929 . S
C98 O108 1.271 . S
C98 O109 1.251 . S
C99 O110 1.252 . S
C99 O111 1.272 . S
O100 Sm80 2.543 . S
O100 C82 1.261 . S
O101 Sm80 2.450 . S
O101 C82 1.242 . S
O102 Sm80 2.681 . S
O102 Sm81 2.386 . S
O102 C89 1.271 . S
O103 Sm80 2.464 . S
O103 C89 1.251 . S
O104 Sm80 2.396 . S
O104 C90 1.252 . S
O105 Sm81 2.408 . S
O105 C90 1.272 . S
O106 Sm81 2.543 . S
O106 C91 1.261 . S
O107 Sm81 2.450 . S
O107 C91 1.242 . S
O108 Sm80 2.386 . S
O108 Sm81 2.681 . S
O108 C98 1.271 . S
O109 Sm81 2.464 . S
O109 C98 1.251 . S
O110 Sm81 2.396 . S
O110 C99 1.252 . S
O111 Sm80 2.408 . S
O111 C99 1.272 . S
H112 C84 0.930 . S
H113 C85 0.929 . S
H114 C87 0.930 . S
H115 C88 0.929 . S
H116 C93 0.930 . S
H117 C94 0.929 . S
H118 C96 0.930 . S
H119 C97 0.929 . S
Sm120 C122 2.846 . S
Sm120 O140 2.543 . S
Sm120 O141 2.450 . S
Sm120 O142 2.681 . S
Sm120 O143 2.464 . S
Sm120 O144 2.396 . S
Sm120 O148 2.386 . S
Sm120 O151 2.408 . S
Sm121 C131 2.846 . S
Sm121 O142 2.386 . S
Sm121 O145 2.408 . S
Sm121 O146 2.543 . S
Sm121 O147 2.450 . S
Sm121 O148 2.681 . S
Sm121 O149 2.464 . S
Sm121 O150 2.396 . S
C122 Sm120 2.846 . S
C122 C123 1.506 . S
C122 O140 1.261 . S
C122 O141 1.242 . S
C123 C122 1.506 . S
C123 C124 1.358 . S
C123 C128 1.382 . S
C124 C123 1.358 . S
C124 C125 1.385 . S
C124 H152 0.930 . S
C125 C124 1.385 . S
C125 C126 1.395 . S
C125 H153 0.929 . S
C126 C125 1.395 . S
C126 C127 1.335 . S
C127 C126 1.335 . S
C127 C128 1.398 . S
C127 H154 0.930 . S
C128 C123 1.382 . S
C128 C127 1.398 . S
C128 H155 0.929 . S
C129 O142 1.271 . S
C129 O143 1.251 . S
C130 O144 1.252 . S
C130 O145 1.272 . S
C131 Sm121 2.846 . S
C131 C132 1.506 . S
C131 O146 1.261 . S
C131 O147 1.242 . S
C132 C131 1.506 . S
C132 C133 1.358 . S
C132 C137 1.382 . S
C133 C132 1.358 . S
C133 C134 1.385 . S
C133 H156 0.930 . S
C134 C133 1.385 . S
C134 C135 1.395 . S
C134 H157 0.929 . S
C135 C134 1.395 . S
C135 C136 1.335 . S
C136 C135 1.335 . S
C136 C137 1.398 . S
C136 H158 0.930 . S
C137 C132 1.382 . S
C137 C136 1.398 . S
C137 H159 0.929 . S
C138 O148 1.271 . S
C138 O149 1.251 . S
C139 O150 1.252 . S
C139 O151 1.272 . S
O140 Sm120 2.543 . S
O140 C122 1.261 . S
O141 Sm120 2.450 . S
O141 C122 1.242 . S
O142 Sm120 2.681 . S
O142 Sm121 2.386 . S
O142 C129 1.271 . S
O143 Sm120 2.464 . S
O143 C129 1.251 . S
O144 Sm120 2.396 . S
O144 C130 1.252 . S
O145 Sm121 2.408 . S
O145 C130 1.272 . S
O146 Sm121 2.543 . S
O146 C131 1.261 . S
O147 Sm121 2.450 . S
O147 C131 1.242 . S
O148 Sm120 2.386 . S
O148 Sm121 2.681 . S
O148 C138 1.271 . S
O149 Sm121 2.464 . S
O149 C138 1.251 . S
O150 Sm121 2.396 . S
O150 C139 1.252 . S
O151 Sm120 2.408 . S
O151 C139 1.272 . S
H152 C124 0.930 . S
H153 C125 0.929 . S
H154 C127 0.930 . S
H155 C128 0.929 . S
H156 C133 0.930 . S
H157 C134 0.929 . S
H158 C136 0.930 . S
H159 C137 0.929 . S
Sm160 C162 2.846 1_556 S
Sm160 O180 2.543 1_556 S
Sm160 O181 2.450 1_556 S
Sm160 O182 2.681 . S
Sm160 O183 2.464 . S
Sm160 O184 2.396 1_556 S
Sm160 O188 2.386 1_556 S
Sm160 O191 2.408 . S
Sm161 C171 2.846 1_554 S
Sm161 O182 2.386 1_554 S
Sm161 O185 2.408 . S
Sm161 O186 2.543 1_554 S
Sm161 O187 2.450 1_554 S
Sm161 O188 2.681 . S
Sm161 O189 2.464 . S
Sm161 O190 2.396 1_554 S
C162 Sm160 2.846 1_554 S
C162 C163 1.506 . S
C162 O180 1.261 . S
C162 O181 1.242 . S
C163 C162 1.506 . S
C163 C164 1.358 . S
C163 C168 1.382 . S
C164 C163 1.358 . S
C164 C165 1.385 . S
C164 H192 0.930 . S
C165 C164 1.385 . S
C165 C166 1.395 . S
C165 H193 0.929 . S
C166 C165 1.395 . S
C166 C167 1.335 . S
C167 C166 1.335 . S
C167 C168 1.398 . S
C167 H194 0.930 . S
C168 C163 1.382 . S
C168 C167 1.398 . S
C168 H195 0.929 . S
C169 O182 1.271 . S
C169 O183 1.251 . S
C170 O184 1.252 . S
C170 O185 1.272 . S
C171 Sm161 2.846 1_556 S
C171 C172 1.506 . S
C171 O186 1.261 . S
C171 O187 1.242 . S
C172 C171 1.506 . S
C172 C173 1.358 . S
C172 C177 1.382 . S
C173 C172 1.358 . S
C173 C174 1.385 . S
C173 H196 0.930 . S
C174 C173 1.385 . S
C174 C175 1.395 . S
C174 H197 0.929 . S
C175 C174 1.395 . S
C175 C176 1.335 . S
C176 C175 1.335 . S
C176 C177 1.398 . S
C176 H198 0.930 . S
C177 C172 1.382 . S
C177 C176 1.398 . S
C177 H199 0.929 . S
C178 O188 1.271 . S
C178 O189 1.251 . S
C179 O190 1.252 . S
C179 O191 1.272 . S
O180 Sm160 2.543 1_554 S
O180 C162 1.261 . S
O181 Sm160 2.450 1_554 S
O181 C162 1.242 . S
O182 Sm160 2.681 . S
O182 Sm161 2.386 1_556 S
O182 C169 1.271 . S
O183 Sm160 2.464 . S
O183 C169 1.251 . S
O184 Sm160 2.396 1_554 S
O184 C170 1.252 . S
O185 Sm161 2.408 . S
O185 C170 1.272 . S
O186 Sm161 2.543 1_556 S
O186 C171 1.261 . S
O187 Sm161 2.450 1_556 S
O187 C171 1.242 . S
O188 Sm160 2.386 1_554 S
O188 Sm161 2.681 . S
O188 C178 1.271 . S
O189 Sm161 2.464 . S
O189 C178 1.251 . S
O190 Sm161 2.396 1_556 S
O190 C179 1.252 . S
O191 Sm160 2.408 . S
O191 C179 1.272 . S
H192 C164 0.930 . S
H193 C165 0.929 . S
H194 C167 0.930 . S
H195 C168 0.929 . S
H196 C173 0.930 . S
H197 C174 0.929 . S
H198 C176 0.930 . S
H199 C177 0.929 . S
Sm200 C202 2.846 1_556 S
Sm200 O220 2.543 1_556 S
Sm200 O221 2.450 1_556 S
Sm200 O222 2.681 . S
Sm200 O223 2.464 . S
Sm200 O224 2.396 1_556 S
Sm200 O228 2.386 1_556 S
Sm200 O231 2.408 . S
Sm201 C211 2.846 1_554 S
Sm201 O222 2.386 1_554 S
Sm201 O225 2.408 . S
Sm201 O226 2.543 1_554 S
Sm201 O227 2.450 1_554 S
Sm201 O228 2.681 . S
Sm201 O229 2.464 . S
Sm201 O230 2.396 1_554 S
C202 Sm200 2.846 1_554 S
C202 C203 1.506 . S
C202 O220 1.261 . S
C202 O221 1.242 . S
C203 C202 1.506 . S
C203 C204 1.358 . S
C203 C208 1.382 . S
C204 C203 1.358 . S
C204 C205 1.385 . S
C204 H232 0.930 . S
C205 C204 1.385 . S
C205 C206 1.395 . S
C205 H233 0.929 . S
C206 C205 1.395 . S
C206 C207 1.335 . S
C207 C206 1.335 . S
C207 C208 1.398 . S
C207 H234 0.930 . S
C208 C203 1.382 . S
C208 C207 1.398 . S
C208 H235 0.929 . S
C209 O222 1.271 . S
C209 O223 1.251 . S
C210 O224 1.252 . S
C210 O225 1.272 . S
C211 Sm201 2.846 1_556 S
C211 C212 1.506 . S
C211 O226 1.261 . S
C211 O227 1.242 . S
C212 C211 1.506 . S
C212 C213 1.358 . S
C212 C217 1.382 . S
C213 C212 1.358 . S
C213 C214 1.385 . S
C213 H236 0.930 . S
C214 C213 1.385 . S
C214 C215 1.395 . S
C214 H237 0.929 . S
C215 C214 1.395 . S
C215 C216 1.335 . S
C216 C215 1.335 . S
C216 C217 1.398 . S
C216 H238 0.930 . S
C217 C212 1.382 . S
C217 C216 1.398 . S
C217 H239 0.929 . S
C218 O228 1.271 . S
C218 O229 1.251 . S
C219 O230 1.252 . S
C219 O231 1.272 . S
O220 Sm200 2.543 1_554 S
O220 C202 1.261 . S
O221 Sm200 2.450 1_554 S
O221 C202 1.242 . S
O222 Sm200 2.681 . S
O222 Sm201 2.386 1_556 S
O222 C209 1.271 . S
O223 Sm200 2.464 . S
O223 C209 1.251 . S
O224 Sm200 2.396 1_554 S
O224 C210 1.252 . S
O225 Sm201 2.408 . S
O225 C210 1.272 . S
O226 Sm201 2.543 1_556 S
O226 C211 1.261 . S
O227 Sm201 2.450 1_556 S
O227 C211 1.242 . S
O228 Sm200 2.386 1_554 S
O228 Sm201 2.681 . S
O228 C218 1.271 . S
O229 Sm201 2.464 . S
O229 C218 1.251 . S
O230 Sm201 2.396 1_556 S
O230 C219 1.252 . S
O231 Sm200 2.408 . S
O231 C219 1.272 . S
H232 C204 0.930 . S
H233 C205 0.929 . S
H234 C207 0.930 . S
H235 C208 0.929 . S
H236 C213 0.930 . S
H237 C214 0.929 . S
H238 C216 0.930 . S
H239 C217 0.929 . S
Sm240 C242 2.846 1_556 S
Sm240 O260 2.543 1_556 S
Sm240 O261 2.450 1_556 S
Sm240 O262 2.681 . S
Sm240 O263 2.464 . S
Sm240 O264 2.396 1_556 S
Sm240 O268 2.386 1_556 S
Sm240 O271 2.408 . S
Sm241 C251 2.846 1_554 S
Sm241 O262 2.386 1_554 S
Sm241 O265 2.408 . S
Sm241 O266 2.543 1_554 S
Sm241 O267 2.450 1_554 S
Sm241 O268 2.681 . S
Sm241 O269 2.464 . S
Sm241 O270 2.396 1_554 S
C242 Sm240 2.846 1_554 S
C242 C243 1.506 . S
C242 O260 1.261 . S
C242 O261 1.242 . S
C243 C242 1.506 . S
C243 C244 1.358 . S
C243 C248 1.382 . S
C244 C243 1.358 . S
C244 C245 1.385 . S
C244 H272 0.930 . S
C245 C244 1.385 . S
C245 C246 1.395 . S
C245 H273 0.929 . S
C246 C245 1.395 . S
C246 C247 1.335 . S
C247 C246 1.335 . S
C247 C248 1.398 . S
C247 H274 0.930 . S
C248 C243 1.382 . S
C248 C247 1.398 . S
C248 H275 0.929 . S
C249 O262 1.271 . S
C249 O263 1.251 . S
C250 O264 1.252 . S
C250 O265 1.272 . S
C251 Sm241 2.846 1_556 S
C251 C252 1.506 . S
C251 O266 1.261 . S
C251 O267 1.242 . S
C252 C251 1.506 . S
C252 C253 1.358 . S
C252 C257 1.382 . S
C253 C252 1.358 . S
C253 C254 1.385 . S
C253 H276 0.930 . S
C254 C253 1.385 . S
C254 C255 1.395 . S
C254 H277 0.929 . S
C255 C254 1.395 . S
C255 C256 1.335 . S
C256 C255 1.335 . S
C256 C257 1.398 . S
C256 H278 0.930 . S
C257 C252 1.382 . S
C257 C256 1.398 . S
C257 H279 0.929 . S
C258 O268 1.271 . S
C258 O269 1.251 . S
C259 O270 1.252 . S
C259 O271 1.272 . S
O260 Sm240 2.543 1_554 S
O260 C242 1.261 . S
O261 Sm240 2.450 1_554 S
O261 C242 1.242 . S
O262 Sm240 2.681 . S
O262 Sm241 2.386 1_556 S
O262 C249 1.271 . S
O263 Sm240 2.464 . S
O263 C249 1.251 . S
O264 Sm240 2.396 1_554 S
O264 C250 1.252 . S
O265 Sm241 2.408 . S
O265 C250 1.272 . S
O266 Sm241 2.543 1_556 S
O266 C251 1.261 . S
O267 Sm241 2.450 1_556 S
O267 C251 1.242 . S
O268 Sm240 2.386 1_554 S
O268 Sm241 2.681 . S
O268 C258 1.271 . S
O269 Sm241 2.464 . S
O269 C258 1.251 . S
O270 Sm241 2.396 1_556 S
O270 C259 1.252 . S
O271 Sm240 2.408 . S
O271 C259 1.272 . S
H272 C244 0.930 . S
H273 C245 0.929 . S
H274 C247 0.930 . S
H275 C248 0.929 . S
H276 C253 0.930 . S
H277 C254 0.929 . S
H278 C256 0.930 . S
H279 C257 0.929 . S
Sm280 C282 2.846 1_556 S
Sm280 O300 2.543 1_556 S
Sm280 O301 2.450 1_556 S
Sm280 O302 2.681 . S
Sm280 O303 2.464 . S
Sm280 O304 2.396 1_556 S
Sm280 O308 2.386 1_556 S
Sm280 O311 2.408 . S
Sm281 C291 2.846 1_554 S
Sm281 O302 2.386 1_554 S
Sm281 O305 2.408 . S
Sm281 O306 2.543 1_554 S
Sm281 O307 2.450 1_554 S
Sm281 O308 2.681 . S
Sm281 O309 2.464 . S
Sm281 O310 2.396 1_554 S
C282 Sm280 2.846 1_554 S
C282 C283 1.506 . S
C282 O300 1.261 . S
C282 O301 1.242 . S
C283 C282 1.506 . S
C283 C284 1.358 . S
C283 C288 1.382 . S
C284 C283 1.358 . S
C284 C285 1.385 . S
C284 H312 0.930 . S
C285 C284 1.385 . S
C285 C286 1.395 . S
C285 H313 0.929 . S
C286 C285 1.395 . S
C286 C287 1.335 . S
C287 C286 1.335 . S
C287 C288 1.398 . S
C287 H314 0.930 . S
C288 C283 1.382 . S
C288 C287 1.398 . S
C288 H315 0.929 . S
C289 O302 1.271 . S
C289 O303 1.251 . S
C290 O304 1.252 . S
C290 O305 1.272 . S
C291 Sm281 2.846 1_556 S
C291 C292 1.506 . S
C291 O306 1.261 . S
C291 O307 1.242 . S
C292 C291 1.506 . S
C292 C293 1.358 . S
C292 C297 1.382 . S
C293 C292 1.358 . S
C293 C294 1.385 . S
C293 H316 0.930 . S
C294 C293 1.385 . S
C294 C295 1.395 . S
C294 H317 0.929 . S
C295 C294 1.395 . S
C295 C296 1.335 . S
C296 C295 1.335 . S
C296 C297 1.398 . S
C296 H318 0.930 . S
C297 C292 1.382 . S
C297 C296 1.398 . S
C297 H319 0.929 . S
C298 O308 1.271 . S
C298 O309 1.251 . S
C299 O310 1.252 . S
C299 O311 1.272 . S
O300 Sm280 2.543 1_554 S
O300 C282 1.261 . S
O301 Sm280 2.450 1_554 S
O301 C282 1.242 . S
O302 Sm280 2.681 . S
O302 Sm281 2.386 1_556 S
O302 C289 1.271 . S
O303 Sm280 2.464 . S
O303 C289 1.251 . S
O304 Sm280 2.396 1_554 S
O304 C290 1.252 . S
O305 Sm281 2.408 . S
O305 C290 1.272 . S
O306 Sm281 2.543 1_556 S
O306 C291 1.261 . S
O307 Sm281 2.450 1_556 S
O307 C291 1.242 . S
O308 Sm280 2.386 1_554 S
O308 Sm281 2.681 . S
O308 C298 1.271 . S
O309 Sm281 2.464 . S
O309 C298 1.251 . S
O310 Sm281 2.396 1_556 S
O310 C299 1.252 . S
O311 Sm280 2.408 . S
O311 C299 1.272 . S
H312 C284 0.930 . S
H313 C285 0.929 . S
H314 C287 0.930 . S
H315 C288 0.929 . S
H316 C293 0.930 . S
H317 C294 0.929 . S
H318 C296 0.930 . S
H319 C297 0.929 . S
C320 C321 1.349 . S
C320 C322 1.327 . S
C320 H345 0.950 . S
C321 C320 1.349 . S
C321 C337 1.349 . S
C322 C320 1.327 . S
C322 C341 1.429 . S
C322 H346 0.950 . S
C323 C340 1.574 . S
C323 C342 1.368 . S
C323 H347 0.949 . S
H324 C328 0.949 . S
C325 C326 1.349 . S
C325 C327 1.327 . S
C325 H348 0.950 . S
C326 C325 1.349 . S
C326 C338 1.349 . S
C327 C325 1.327 . S
C327 C343 1.429 . S
C327 H349 0.950 . S
C328 H324 0.949 . S
C328 C336 1.574 . S
C328 C344 1.368 . S
H329 C337 0.950 . S
H330 C335 0.950 . S
H331 C336 0.949 . S
H332 C338 0.950 . S
H333 C339 0.950 . S
H334 C340 0.949 . S
C335 H330 0.950 . S
C335 C337 1.327 . S
C335 C341 1.429 . S
C336 C328 1.574 . S
C336 H331 0.949 . S
C336 C342 1.368 . S
C337 C321 1.349 . S
C337 H329 0.950 . S
C337 C335 1.327 . S
C338 C326 1.349 . S
C338 H332 0.950 . S
C338 C339 1.327 . S
C339 H333 0.950 . S
C339 C338 1.327 . S
C339 C343 1.429 . S
C340 C323 1.574 . S
C340 H334 0.949 . S
C340 C344 1.368 . S
C341 C322 1.429 . S
C341 C335 1.429 . S
C341 C342 1.523 . S
C342 C323 1.368 . S
C342 C336 1.368 . S
C342 C341 1.523 . S
C343 C327 1.429 . S
C343 C339 1.429 . S
C343 C344 1.523 . S
C344 C328 1.368 . S
C344 C340 1.368 . S
C344 C343 1.523 . S
H345 C320 0.950 . S
H346 C322 0.950 . S
H347 C323 0.949 . S
H348 C325 0.950 . S
H349 C327 0.950 . S
C350 C351 1.349 . S
C350 C352 1.327 . S
C350 H375 0.950 . S
C351 C350 1.349 . S
C351 C367 1.349 . S
C352 C350 1.327 . S
C352 C371 1.429 . S
C352 H376 0.950 . S
C353 C370 1.574 . S
C353 C372 1.368 . S
C353 H377 0.949 . S
H354 C358 0.949 . S
C355 C356 1.349 . S
C355 C357 1.327 . S
C355 H378 0.950 . S
C356 C355 1.349 . S
C356 C368 1.349 . S
C357 C355 1.327 . S
C357 C373 1.429 . S
C357 H379 0.950 . S
C358 H354 0.949 . S
C358 C366 1.574 . S
C358 C374 1.368 . S
H359 C367 0.950 . S
H360 C365 0.950 . S
H361 C366 0.949 . S
H362 C368 0.950 . S
H363 C369 0.950 . S
H364 C370 0.949 . S
C365 H360 0.950 . S
C365 C367 1.327 . S
C365 C371 1.429 . S
C366 C358 1.574 . S
C366 H361 0.949 . S
C366 C372 1.368 . S
C367 C351 1.349 . S
C367 H359 0.950 . S
C367 C365 1.327 . S
C368 C356 1.349 . S
C368 H362 0.950 . S
C368 C369 1.327 . S
C369 H363 0.950 . S
C369 C368 1.327 . S
C369 C373 1.429 . S
C370 C353 1.574 . S
C370 H364 0.949 . S
C370 C374 1.368 . S
C371 C352 1.429 . S
C371 C365 1.429 . S
C371 C372 1.523 . S
C372 C353 1.368 . S
C372 C366 1.368 . S
C372 C371 1.523 . S
C373 C357 1.429 . S
C373 C369 1.429 . S
C373 C374 1.523 . S
C374 C358 1.368 . S
C374 C370 1.368 . S
C374 C373 1.523 . S
H375 C350 0.950 . S
H376 C352 0.950 . S
H377 C353 0.949 . S
H378 C355 0.950 . S
H379 C357 0.950 . S
C380 C381 1.349 . S
C380 C382 1.327 . S
C380 H405 0.950 . S
C381 C380 1.349 . S
C381 C397 1.349 . S
C382 C380 1.327 . S
C382 C401 1.429 . S
C382 H406 0.950 . S
C383 C400 1.574 . S
C383 C402 1.368 . S
C383 H407 0.949 . S
H384 C388 0.949 . S
C385 C386 1.349 . S
C385 C387 1.327 . S
C385 H408 0.950 . S
C386 C385 1.349 . S
C386 C398 1.349 . S
C387 C385 1.327 . S
C387 C403 1.429 . S
C387 H409 0.950 . S
C388 H384 0.949 . S
C388 C396 1.574 . S
C388 C404 1.368 . S
H389 C397 0.950 . S
H390 C395 0.950 . S
H391 C396 0.949 . S
H392 C398 0.950 . S
H393 C399 0.950 . S
H394 C400 0.949 . S
C395 H390 0.950 . S
C395 C397 1.327 . S
C395 C401 1.429 . S
C396 C388 1.574 . S
C396 H391 0.949 . S
C396 C402 1.368 . S
C397 C381 1.349 . S
C397 H389 0.950 . S
C397 C395 1.327 . S
C398 C386 1.349 . S
C398 H392 0.950 . S
C398 C399 1.327 . S
C399 H393 0.950 . S
C399 C398 1.327 . S
C399 C403 1.429 . S
C400 C383 1.574 . S
C400 H394 0.949 . S
C400 C404 1.368 . S
C401 C382 1.429 . S
C401 C395 1.429 . S
C401 C402 1.523 . S
C402 C383 1.368 . S
C402 C396 1.368 . S
C402 C401 1.523 . S
C403 C387 1.429 . S
C403 C399 1.429 . S
C403 C404 1.523 . S
C404 C388 1.368 . S
C404 C400 1.368 . S
C404 C403 1.523 . S
H405 C380 0.950 . S
H406 C382 0.950 . S
H407 C383 0.949 . S
H408 C385 0.950 . S
H409 C387 0.950 . S
C410 C411 1.349 . S
C410 C412 1.327 . S
C410 H435 0.950 . S
C411 C410 1.349 . S
C411 C427 1.349 . S
C412 C410 1.327 . S
C412 C431 1.429 . S
C412 H436 0.950 . S
C413 C430 1.574 . S
C413 C432 1.368 . S
C413 H437 0.949 . S
H414 C418 0.949 . S
C415 C416 1.349 . S
C415 C417 1.327 . S
C415 H438 0.950 . S
C416 C415 1.349 . S
C416 C428 1.349 . S
C417 C415 1.327 . S
C417 C433 1.429 . S
C417 H439 0.950 . S
C418 H414 0.949 . S
C418 C426 1.574 . S
C418 C434 1.368 . S
H419 C427 0.950 . S
H420 C425 0.950 . S
H421 C426 0.949 . S
H422 C428 0.950 . S
H423 C429 0.950 . S
H424 C430 0.949 . S
C425 H420 0.950 . S
C425 C427 1.327 . S
C425 C431 1.429 . S
C426 C418 1.574 . S
C426 H421 0.949 . S
C426 C432 1.368 . S
C427 C411 1.349 . S
C427 H419 0.950 . S
C427 C425 1.327 . S
C428 C416 1.349 . S
C428 H422 0.950 . S
C428 C429 1.327 . S
C429 H423 0.950 . S
C429 C428 1.327 . S
C429 C433 1.429 . S
C430 C413 1.574 . S
C430 H424 0.949 . S
C430 C434 1.368 . S
C431 C412 1.429 . S
C431 C425 1.429 . S
C431 C432 1.523 . S
C432 C413 1.368 . S
C432 C426 1.368 . S
C432 C431 1.523 . S
C433 C417 1.429 . S
C433 C429 1.429 . S
C433 C434 1.523 . S
C434 C418 1.368 . S
C434 C430 1.368 . S
C434 C433 1.523 . S
H435 C410 0.950 . S
H436 C412 0.950 . S
H437 C413 0.949 . S
H438 C415 0.950 . S
H439 C417 0.950 . S
C440 C441 1.349 . S
C440 C442 1.327 . S
C440 H465 0.950 . S
C441 C440 1.349 . S
C441 C457 1.349 . S
C442 C440 1.327 . S
C442 C461 1.429 . S
C442 H466 0.950 . S
C443 C460 1.574 1_565 S
C443 C462 1.368 . S
C443 H467 0.949 . S
H444 C448 0.949 . S
C445 C446 1.349 . S
C445 C447 1.327 . S
C445 H468 0.950 . S
C446 C445 1.349 . S
C446 C458 1.349 . S
C447 C445 1.327 . S
C447 C463 1.429 . S
C447 H469 0.950 . S
C448 H444 0.949 . S
C448 C456 1.574 1_545 S
C448 C464 1.368 . S
H449 C457 0.950 . S
H450 C455 0.950 . S
H451 C456 0.949 . S
H452 C458 0.950 . S
H453 C459 0.950 . S
H454 C460 0.949 . S
C455 H450 0.950 . S
C455 C457 1.327 . S
C455 C461 1.429 . S
C456 C448 1.574 1_565 S
C456 H451 0.949 . S
C456 C462 1.368 . S
C457 C441 1.349 . S
C457 H449 0.950 . S
C457 C455 1.327 . S
C458 C446 1.349 . S
C458 H452 0.950 . S
C458 C459 1.327 . S
C459 H453 0.950 . S
C459 C458 1.327 . S
C459 C463 1.429 . S
C460 C443 1.574 1_545 S
C460 H454 0.949 . S
C460 C464 1.368 . S
C461 C442 1.429 . S
C461 C455 1.429 . S
C461 C462 1.523 . S
C462 C443 1.368 . S
C462 C456 1.368 . S
C462 C461 1.523 . S
C463 C447 1.429 . S
C463 C459 1.429 . S
C463 C464 1.523 . S
C464 C448 1.368 . S
C464 C460 1.368 . S
C464 C463 1.523 . S
H465 C440 0.950 . S
H466 C442 0.950 . S
H467 C443 0.949 . S
H468 C445 0.950 . S
H469 C447 0.950 . S
C470 C471 1.349 . S
C470 C472 1.327 . S
C470 H495 0.950 . S
C471 C470 1.349 . S
C471 C487 1.349 . S
C472 C470 1.327 . S
C472 C491 1.429 . S
C472 H496 0.950 . S
C473 C490 1.574 . S
C473 C492 1.368 . S
C473 H497 0.949 . S
H474 C478 0.949 . S
C475 C476 1.349 . S
C475 C477 1.327 . S
C475 H498 0.950 . S
C476 C475 1.349 . S
C476 C488 1.349 . S
C477 C475 1.327 . S
C477 C493 1.429 . S
C477 H499 0.950 . S
C478 H474 0.949 . S
C478 C486 1.574 . S
C478 C494 1.368 . S
H479 C487 0.950 . S
H480 C485 0.950 . S
H481 C486 0.949 . S
H482 C488 0.950 . S
H483 C489 0.950 . S
H484 C490 0.949 . S
C485 H480 0.950 . S
C485 C487 1.327 . S
C485 C491 1.429 . S
C486 C478 1.574 . S
C486 H481 0.949 . S
C486 C492 1.368 . S
C487 C471 1.349 . S
C487 H479 0.950 . S
C487 C485 1.327 . S
C488 C476 1.349 . S
C488 H482 0.950 . S
C488 C489 1.327 . S
C489 H483 0.950 . S
C489 C488 1.327 . S
C489 C493 1.429 . S
C490 C473 1.574 . S
C490 H484 0.949 . S
C490 C494 1.368 . S
C491 C472 1.429 . S
C491 C485 1.429 . S
C491 C492 1.523 . S
C492 C473 1.368 . S
C492 C486 1.368 . S
C492 C491 1.523 . S
C493 C477 1.429 . S
C493 C489 1.429 . S
C493 C494 1.523 . S
C494 C478 1.368 . S
C494 C490 1.368 . S
C494 C493 1.523 . S
H495 C470 0.950 . S
H496 C472 0.950 . S
H497 C473 0.949 . S
H498 C475 0.950 . S
H499 C477 0.950 . S
C500 C501 1.349 . S
C500 C502 1.327 . S
C500 H525 0.950 . S
C501 C500 1.349 . S
C501 C517 1.349 . S
C502 C500 1.327 . S
C502 C521 1.429 . S
C502 H526 0.950 . S
C503 C520 1.574 1_565 S
C503 C522 1.368 . S
C503 H527 0.949 . S
H504 C508 0.949 . S
C505 C506 1.349 . S
C505 C507 1.327 . S
C505 H528 0.950 . S
C506 C505 1.349 . S
C506 C518 1.349 . S
C507 C505 1.327 . S
C507 C523 1.429 . S
C507 H529 0.950 . S
C508 H504 0.949 . S
C508 C516 1.574 1_545 S
C508 C524 1.368 . S
H509 C517 0.950 . S
H510 C515 0.950 . S
H511 C516 0.949 . S
H512 C518 0.950 . S
H513 C519 0.950 . S
H514 C520 0.949 . S
C515 H510 0.950 . S
C515 C517 1.327 . S
C515 C521 1.429 . S
C516 C508 1.574 1_565 S
C516 H511 0.949 . S
C516 C522 1.368 . S
C517 C501 1.349 . S
C517 H509 0.950 . S
C517 C515 1.327 . S
C518 C506 1.349 . S
C518 H512 0.950 . S
C518 C519 1.327 . S
C519 H513 0.950 . S
C519 C518 1.327 . S
C519 C523 1.429 . S
C520 C503 1.574 1_545 S
C520 H514 0.949 . S
C520 C524 1.368 . S
C521 C502 1.429 . S
C521 C515 1.429 . S
C521 C522 1.523 . S
C522 C503 1.368 . S
C522 C516 1.368 . S
C522 C521 1.523 . S
C523 C507 1.429 . S
C523 C519 1.429 . S
C523 C524 1.523 . S
C524 C508 1.368 . S
C524 C520 1.368 . S
C524 C523 1.523 . S
H525 C500 0.950 . S
H526 C502 0.950 . S
H527 C503 0.949 . S
H528 C505 0.950 . S
H529 C507 0.950 . S
C530 C531 1.349 . S
C530 C532 1.327 . S
C530 H555 0.950 . S
C531 C530 1.349 . S
C531 C547 1.349 . S
C532 C530 1.327 . S
C532 C551 1.429 . S
C532 H556 0.950 . S
C533 C550 1.574 . S
C533 C552 1.368 . S
C533 H557 0.949 . S
H534 C538 0.949 . S
C535 C536 1.349 . S
C535 C537 1.327 . S
C535 H558 0.950 . S
C536 C535 1.349 . S
C536 C548 1.349 . S
C537 C535 1.327 . S
C537 C553 1.429 . S
C537 H559 0.950 . S
C538 H534 0.949 . S
C538 C546 1.574 . S
C538 C554 1.368 . S
H539 C547 0.950 . S
H540 C545 0.950 . S
H541 C546 0.949 . S
H542 C548 0.950 . S
H543 C549 0.950 . S
H544 C550 0.949 . S
C545 H540 0.950 . S
C545 C547 1.327 . S
C545 C551 1.429 . S
C546 C538 1.574 . S
C546 H541 0.949 . S
C546 C552 1.368 . S
C547 C531 1.349 . S
C547 H539 0.950 . S
C547 C545 1.327 . S
C548 C536 1.349 . S
C548 H542 0.950 . S
C548 C549 1.327 . S
C549 H543 0.950 . S
C549 C548 1.327 . S
C549 C553 1.429 . S
C550 C533 1.574 . S
C550 H544 0.949 . S
C550 C554 1.368 . S
C551 C532 1.429 . S
C551 C545 1.429 . S
C551 C552 1.523 . S
C552 C533 1.368 . S
C552 C546 1.368 . S
C552 C551 1.523 . S
C553 C537 1.429 . S
C553 C549 1.429 . S
C553 C554 1.523 . S
C554 C538 1.368 . S
C554 C550 1.368 . S
C554 C553 1.523 . S
H555 C530 0.950 . S
H556 C532 0.950 . S
H557 C533 0.949 . S
H558 C535 0.950 . S
H559 C537 0.950 . S
C560 C561 1.349 1_554 S
C560 C562 1.327 . S
C560 H585 0.950 . S
C561 C560 1.349 1_556 S
C561 C577 1.349 . S
C562 C560 1.327 . S
C562 C581 1.429 1_554 S
C562 H586 0.950 . S
C563 C580 1.574 . S
C563 C582 1.368 . S
C563 H587 0.949 . S
H564 C568 0.949 . S
C565 C566 1.349 . S
C565 C567 1.327 . S
C565 H588 0.950 . S
C566 C565 1.349 . S
C566 C578 1.349 1_556 S
C567 C565 1.327 . S
C567 C583 1.429 . S
C567 H589 0.950 . S
C568 H564 0.949 . S
C568 C576 1.574 . S
C568 C584 1.368 1_554 S
H569 C577 0.950 . S
H570 C575 0.950 . S
H571 C576 0.949 . S
H572 C578 0.950 . S
H573 C579 0.950 . S
H574 C580 0.949 . S
C575 H570 0.950 . S
C575 C577 1.327 . S
C575 C581 1.429 . S
C576 C568 1.574 . S
C576 H571 0.949 . S
C576 C582 1.368 1_554 S
C577 C561 1.349 . S
C577 H569 0.950 . S
C577 C575 1.327 . S
C578 C566 1.349 1_554 S
C578 H572 0.950 . S
C578 C579 1.327 . S
C579 H573 0.950 . S
C579 C578 1.327 . S
C579 C583 1.429 1_554 S
C580 C563 1.574 . S
C580 H574 0.949 . S
C580 C584 1.368 . S
C581 C562 1.429 1_556 S
C581 C575 1.429 . S
C581 C582 1.523 . S
C582 C563 1.368 . S
C582 C576 1.368 1_556 S
C582 C581 1.523 . S
C583 C567 1.429 . S
C583 C579 1.429 1_556 S
C583 C584 1.523 . S
C584 C568 1.368 1_556 S
C584 C580 1.368 . S
C584 C583 1.523 . S
H585 C560 0.950 . S
H586 C562 0.950 . S
H587 C563 0.949 . S
H588 C565 0.950 . S
H589 C567 0.950 . S
C590 C591 1.349 1_554 S
C590 C592 1.327 . S
C590 H615 0.950 . S
C591 C590 1.349 1_556 S
C591 C607 1.349 . S
C592 C590 1.327 . S
C592 C611 1.429 1_554 S
C592 H616 0.950 . S
C593 C610 1.574 1_565 S
C593 C612 1.368 . S
C593 H617 0.949 . S
H594 C598 0.949 . S
C595 C596 1.349 . S
C595 C597 1.327 . S
C595 H618 0.950 . S
C596 C595 1.349 . S
C596 C608 1.349 1_556 S
C597 C595 1.327 . S
C597 C613 1.429 . S
C597 H619 0.950 . S
C598 H594 0.949 . S
C598 C606 1.574 1_545 S
C598 C614 1.368 1_554 S
H599 C607 0.950 . S
H600 C605 0.950 . S
H601 C606 0.949 . S
H602 C608 0.950 . S
H603 C609 0.950 . S
H604 C610 0.949 . S
C605 H600 0.950 . S
C605 C607 1.327 . S
C605 C611 1.429 . S
C606 C598 1.574 1_565 S
C606 H601 0.949 . S
C606 C612 1.368 1_554 S
C607 C591 1.349 . S
C607 H599 0.950 . S
C607 C605 1.327 . S
C608 C596 1.349 1_554 S
C608 H602 0.950 . S
C608 C609 1.327 . S
C609 H603 0.950 . S
C609 C608 1.327 . S
C609 C613 1.429 1_554 S
C610 C593 1.574 1_545 S
C610 H604 0.949 . S
C610 C614 1.368 . S
C611 C592 1.429 1_556 S
C611 C605 1.429 . S
C611 C612 1.523 . S
C612 C593 1.368 . S
C612 C606 1.368 1_556 S
C612 C611 1.523 . S
C613 C597 1.429 . S
C613 C609 1.429 1_556 S
C613 C614 1.523 . S
C614 C598 1.368 1_556 S
C614 C610 1.368 . S
C614 C613 1.523 . S
H615 C590 0.950 . S
H616 C592 0.950 . S
H617 C593 0.949 . S
H618 C595 0.950 . S
H619 C597 0.950 . S
C620 C621 1.349 . S
C620 C622 1.327 . S
C620 H645 0.950 . S
C621 C620 1.349 . S
C621 C637 1.349 1_554 S
C622 C620 1.327 . S
C622 C641 1.429 . S
C622 H646 0.950 . S
C623 C640 1.574 . S
C623 C642 1.368 1_556 S
C623 H647 0.949 . S
H624 C628 0.949 . S
C625 C626 1.349 1_556 S
C625 C627 1.327 . S
C625 H648 0.950 . S
C626 C625 1.349 1_554 S
C626 C638 1.349 . S
C627 C625 1.327 . S
C627 C643 1.429 1_556 S
C627 H649 0.950 . S
C628 H624 0.949 . S
C628 C636 1.574 . S
C628 C644 1.368 . S
H629 C637 0.950 . S
H630 C635 0.950 . S
H631 C636 0.949 . S
H632 C638 0.950 . S
H633 C639 0.950 . S
H634 C640 0.949 . S
C635 H630 0.950 . S
C635 C637 1.327 . S
C635 C641 1.429 1_556 S
C636 C628 1.574 . S
C636 H631 0.949 . S
C636 C642 1.368 . S
C637 C621 1.349 1_556 S
C637 H629 0.950 . S
C637 C635 1.327 . S
C638 C626 1.349 . S
C638 H632 0.950 . S
C638 C639 1.327 . S
C639 H633 0.950 . S
C639 C638 1.327 . S
C639 C643 1.429 . S
C640 C623 1.574 . S
C640 H634 0.949 . S
C640 C644 1.368 1_556 S
C641 C622 1.429 . S
C641 C635 1.429 1_554 S
C641 C642 1.523 . S
C642 C623 1.368 1_554 S
C642 C636 1.368 . S
C642 C641 1.523 . S
C643 C627 1.429 1_554 S
C643 C639 1.429 . S
C643 C644 1.523 . S
C644 C628 1.368 . S
C644 C640 1.368 1_554 S
C644 C643 1.523 . S
H645 C620 0.950 . S
H646 C622 0.950 . S
H647 C623 0.949 . S
H648 C625 0.950 . S
H649 C627 0.950 . S
C650 C651 1.349 1_556 S
C650 C652 1.327 . S
C650 H675 0.950 . S
C651 C650 1.349 1_554 S
C651 C667 1.349 . S
C652 C650 1.327 . S
C652 C671 1.429 1_556 S
C652 H676 0.950 . S
C653 C670 1.574 1_545 S
C653 C672 1.368 . S
C653 H677 0.949 . S
H654 C658 0.949 . S
C655 C656 1.349 . S
C655 C657 1.327 . S
C655 H678 0.950 . S
C656 C655 1.349 . S
C656 C668 1.349 1_554 S
C657 C655 1.327 . S
C657 C673 1.429 . S
C657 H679 0.950 . S
C658 H654 0.949 . S
C658 C666 1.574 1_565 S
C658 C674 1.368 1_556 S
H659 C667 0.950 . S
H660 C665 0.950 . S
H661 C666 0.949 . S
H662 C668 0.950 . S
H663 C669 0.950 . S
H664 C670 0.949 . S
C665 H660 0.950 . S
C665 C667 1.327 . S
C665 C671 1.429 . S
C666 C658 1.574 1_545 S
C666 H661 0.949 . S
C666 C672 1.368 1_556 S
C667 C651 1.349 . S
C667 H659 0.950 . S
C667 C665 1.327 . S
C668 C656 1.349 1_556 S
C668 H662 0.950 . S
C668 C669 1.327 . S
C669 H663 0.950 . S
C669 C668 1.327 . S
C669 C673 1.429 1_556 S
C670 C653 1.574 1_565 S
C670 H664 0.949 . S
C670 C674 1.368 . S
C671 C652 1.429 1_554 S
C671 C665 1.429 . S
C671 C672 1.523 . S
C672 C653 1.368 . S
C672 C666 1.368 1_554 S
C672 C671 1.523 . S
C673 C657 1.429 . S
C673 C669 1.429 1_554 S
C673 C674 1.523 . S
C674 C658 1.368 1_554 S
C674 C670 1.368 . S
C674 C673 1.523 . S
H675 C650 0.950 . S
H676 C652 0.950 . S
H677 C653 0.949 . S
H678 C655 0.950 . S
H679 C657 0.950 . S
C680 C681 1.349 . S
C680 C682 1.327 . S
C680 H705 0.950 . S
C681 C680 1.349 . S
C681 C697 1.349 . S
C682 C680 1.327 . S
C682 C701 1.429 . S
C682 H706 0.950 . S
C683 C700 1.574 . S
C683 C702 1.368 1_556 S
C683 H707 0.953 . S
H684 C688 0.949 . S
C685 C686 1.349 . S
C685 C687 1.327 . S
C685 H708 0.950 . S
C686 C685 1.349 . S
C686 C698 1.349 . S
C687 C685 1.327 . S
C687 C703 1.429 . S
C687 H709 0.950 . S
C688 H684 0.949 . S
C688 C696 1.574 . S
C688 C704 1.368 . S
H689 C697 0.950 . S
H690 C695 0.950 . S
H691 C696 0.949 1_554 S
H692 C698 0.950 . S
H693 C699 0.950 . S
H694 C700 0.949 . S
C695 H690 0.950 . S
C695 C697 1.327 . S
C695 C701 1.429 . S
C696 C688 1.574 . S
C696 H691 0.949 1_556 S
C696 C702 1.368 1_556 S
C697 C681 1.349 . S
C697 H689 0.950 . S
C697 C695 1.327 . S
C698 C686 1.349 . S
C698 H692 0.950 . S
C698 C699 1.327 . S
C699 H693 0.950 . S
C699 C698 1.327 . S
C699 C703 1.429 . S
C700 C683 1.574 . S
C700 H694 0.949 . S
C700 C704 1.368 . S
C701 C682 1.429 . S
C701 C695 1.429 . S
C701 C702 1.523 . S
C702 C683 1.368 1_554 S
C702 C696 1.368 1_554 S
C702 C701 1.523 . S
C703 C687 1.429 . S
C703 C699 1.429 . S
C703 C704 1.523 . S
C704 C688 1.368 . S
C704 C700 1.368 . S
C704 C703 1.523 . S
H705 C680 0.950 . S
H706 C682 0.950 . S
H707 C683 0.953 . S
H708 C685 0.950 . S
H709 C687 0.950 . S
C710 C711 1.349 . S
C710 C712 1.327 . S
C710 H735 0.950 . S
C711 C710 1.349 . S
C711 C727 1.349 . S
C712 C710 1.327 . S
C712 C731 1.429 . S
C712 H736 0.950 . S
C713 C730 1.574 . S
C713 C732 1.368 1_556 S
C713 H737 0.952 . S
H714 C718 0.949 . S
C715 C716 1.349 . S
C715 C717 1.327 . S
C715 H738 0.950 . S
C716 C715 1.349 . S
C716 C728 1.349 . S
C717 C715 1.327 . S
C717 C733 1.429 . S
C717 H739 0.950 . S
C718 H714 0.949 . S
C718 C726 1.574 . S
C718 C734 1.368 . S
H719 C727 0.950 . S
H720 C725 0.950 . S
H721 C726 0.949 1_554 S
H722 C728 0.950 . S
H723 C729 0.950 . S
H724 C730 0.949 . S
C725 H720 0.950 . S
C725 C727 1.327 . S
C725 C731 1.429 . S
C726 C718 1.574 . S
C726 H721 0.949 1_556 S
C726 C732 1.368 1_556 S
C727 C711 1.349 . S
C727 H719 0.950 . S
C727 C725 1.327 . S
C728 C716 1.349 . S
C728 H722 0.950 . S
C728 C729 1.327 . S
C729 H723 0.950 . S
C729 C728 1.327 . S
C729 C733 1.429 . S
C730 C713 1.574 . S
C730 H724 0.949 . S
C730 C734 1.368 . S
C731 C712 1.429 . S
C731 C725 1.429 . S
C731 C732 1.523 . S
C732 C713 1.368 1_554 S
C732 C726 1.368 1_554 S
C732 C731 1.523 . S
C733 C717 1.429 . S
C733 C729 1.429 . S
C733 C734 1.523 . S
C734 C718 1.368 . S
C734 C730 1.368 . S
C734 C733 1.523 . S
H735 C710 0.950 . S
H736 C712 0.950 . S
H737 C713 0.952 . S
H738 C715 0.950 . S
H739 C717 0.950 . S
C740 C741 1.349 . S
C740 C742 1.327 . S
C740 H765 0.950 . S
C741 C740 1.349 . S
C741 C757 1.349 . S
C742 C740 1.327 . S
C742 C761 1.429 . S
C742 H766 0.950 . S
C743 C760 1.574 . S
C743 C762 1.368 . S
C743 H767 0.949 . S
H744 C748 0.953 . S
C745 C746 1.349 . S
C745 C747 1.327 . S
C745 H768 0.950 . S
C746 C745 1.349 . S
C746 C758 1.349 . S
C747 C745 1.327 . S
C747 C763 1.429 . S
C747 H769 0.950 . S
C748 H744 0.953 . S
C748 C756 1.574 . S
C748 C764 1.368 1_554 S
H749 C757 0.950 . S
H750 C755 0.950 . S
H751 C756 0.949 . S
H752 C758 0.950 . S
H753 C759 0.950 . S
H754 C760 0.949 1_556 S
C755 H750 0.950 . S
C755 C757 1.327 . S
C755 C761 1.429 . S
C756 C748 1.574 . S
C756 H751 0.949 . S
C756 C762 1.368 . S
C757 C741 1.349 . S
C757 H749 0.950 . S
C757 C755 1.327 . S
C758 C746 1.349 . S
C758 H752 0.950 . S
C758 C759 1.327 . S
C759 H753 0.950 . S
C759 C758 1.327 . S
C759 C763 1.429 . S
C760 C743 1.574 . S
C760 H754 0.949 1_554 S
C760 C764 1.368 1_554 S
C761 C742 1.429 . S
C761 C755 1.429 . S
C761 C762 1.523 . S
C762 C743 1.368 . S
C762 C756 1.368 . S
C762 C761 1.523 . S
C763 C747 1.429 . S
C763 C759 1.429 . S
C763 C764 1.523 . S
C764 C748 1.368 1_556 S
C764 C760 1.368 1_556 S
C764 C763 1.523 . S
H765 C740 0.950 . S
H766 C742 0.950 . S
H767 C743 0.949 . S
H768 C745 0.950 . S
H769 C747 0.950 . S
C770 C771 1.349 . S
C770 C772 1.327 . S
C770 H795 0.950 . S
C771 C770 1.349 . S
C771 C787 1.349 . S
C772 C770 1.327 . S
C772 C791 1.429 . S
C772 H796 0.950 . S
C773 C790 1.574 . S
C773 C792 1.368 1_554 S
C773 H797 0.949 1_554 S
H774 C778 0.949 . S
C775 C776 1.349 . S
C775 C777 1.327 . S
C775 H798 0.950 . S
C776 C775 1.349 . S
C776 C788 1.349 . S
C777 C775 1.327 . S
C777 C793 1.429 . S
C777 H799 0.950 . S
C778 H774 0.949 . S
C778 C786 1.574 . S
C778 C794 1.368 . S
H779 C787 0.950 . S
H780 C785 0.950 . S
H781 C786 0.945 1_556 S
H782 C788 0.950 . S
H783 C789 0.950 . S
H784 C790 0.949 . S
C785 H780 0.950 . S
C785 C787 1.327 . S
C785 C791 1.429 . S
C786 C778 1.574 . S
C786 H781 0.945 1_554 S
C786 C792 1.368 1_554 S
C787 C771 1.349 . S
C787 H779 0.950 . S
C787 C785 1.327 . S
C788 C776 1.349 . S
C788 H782 0.950 . S
C788 C789 1.327 . S
C789 H783 0.950 . S
C789 C788 1.327 . S
C789 C793 1.429 . S
C790 C773 1.574 . S
C790 H784 0.949 . S
C790 C794 1.368 . S
C791 C772 1.429 . S
C791 C785 1.429 . S
C791 C792 1.523 . S
C792 C773 1.368 1_556 S
C792 C786 1.368 1_556 S
C792 C791 1.523 . S
C793 C777 1.429 . S
C793 C789 1.429 . S
C793 C794 1.523 . S
C794 C778 1.368 . S
C794 C790 1.368 . S
C794 C793 1.523 . S
H795 C770 0.950 . S
H796 C772 0.950 . S
H797 C773 0.949 1_556 S
H798 C775 0.950 . S
H799 C777 0.950 . S
C800 C801 1.349 . S
C800 C802 1.327 . S
C800 H825 0.950 . S
C801 C800 1.349 . S
C801 C817 1.349 . S
C802 C800 1.327 . S
C802 C821 1.429 . S
C802 H826 0.950 . S
C803 C820 1.574 . S
C803 C822 1.368 . S
C803 H827 0.949 . S
H804 C808 0.949 . S
C805 C806 1.349 . S
C805 C807 1.327 . S
C805 H828 0.950 . S
C806 C805 1.349 . S
C806 C818 1.349 . S
C807 C805 1.327 . S
C807 C823 1.429 . S
C807 H829 0.950 . S
C808 H804 0.949 . S
C808 C816 1.574 . S
C808 C824 1.368 . S
H809 C817 0.950 . S
H810 C815 0.950 . S
H811 C816 0.949 . S
H812 C818 0.950 . S
H813 C819 0.950 . S
H814 C820 0.949 . S
C815 H810 0.950 . S
C815 C817 1.327 . S
C815 C821 1.429 . S
C816 C808 1.574 . S
C816 H811 0.949 . S
C816 C822 1.368 . S
C817 C801 1.349 . S
C817 H809 0.950 . S
C817 C815 1.327 . S
C818 C806 1.349 . S
C818 H812 0.950 . S
C818 C819 1.327 . S
C819 H813 0.950 . S
C819 C818 1.327 . S
C819 C823 1.429 . S
C820 C803 1.574 . S
C820 H814 0.949 . S
C820 C824 1.368 . S
C821 C802 1.429 . S
C821 C815 1.429 . S
C821 C822 1.523 . S
C822 C803 1.368 . S
C822 C816 1.368 . S
C822 C821 1.523 . S
C823 C807 1.429 . S
C823 C819 1.429 . S
C823 C824 1.523 . S
C824 C808 1.368 . S
C824 C820 1.368 . S
C824 C823 1.523 . S
H825 C800 0.950 . S
H826 C802 0.950 . S
H827 C803 0.949 . S
H828 C805 0.950 . S
H829 C807 0.950 . S
C830 C831 1.349 . S
C830 C832 1.327 . S
C830 H855 0.950 . S
C831 C830 1.349 . S
C831 C847 1.349 . S
C832 C830 1.327 . S
C832 C851 1.429 . S
C832 H856 0.950 . S
C833 C850 1.574 . S
C833 C852 1.368 . S
C833 H857 0.949 . S
H834 C838 0.949 . S
C835 C836 1.349 . S
C835 C837 1.327 . S
C835 H858 0.950 . S
C836 C835 1.349 . S
C836 C848 1.349 . S
C837 C835 1.327 . S
C837 C853 1.429 . S
C837 H859 0.950 . S
C838 H834 0.949 . S
C838 C846 1.574 . S
C838 C854 1.368 . S
H839 C847 0.950 . S
H840 C845 0.950 . S
H841 C846 0.949 . S
H842 C848 0.950 . S
H843 C849 0.950 . S
H844 C850 0.949 . S
C845 H840 0.950 . S
C845 C847 1.327 . S
C845 C851 1.429 . S
C846 C838 1.574 . S
C846 H841 0.949 . S
C846 C852 1.368 . S
C847 C831 1.349 . S
C847 H839 0.950 . S
C847 C845 1.327 . S
C848 C836 1.349 . S
C848 H842 0.950 . S
C848 C849 1.327 . S
C849 H843 0.950 . S
C849 C848 1.327 . S
C849 C853 1.429 . S
C850 C833 1.574 . S
C850 H844 0.949 . S
C850 C854 1.368 . S
C851 C832 1.429 . S
C851 C845 1.429 . S
C851 C852 1.523 . S
C852 C833 1.368 . S
C852 C846 1.368 . S
C852 C851 1.523 . S
C853 C837 1.429 . S
C853 C849 1.429 . S
C853 C854 1.523 . S
C854 C838 1.368 . S
C854 C850 1.368 . S
C854 C853 1.523 . S
H855 C830 0.950 . S
H856 C832 0.950 . S
H857 C833 0.949 . S
H858 C835 0.950 . S
H859 C837 0.950 . S
C860 C861 1.349 . S
C860 C862 1.327 . S
C860 H885 0.950 . S
C861 C860 1.349 . S
C861 C877 1.349 . S
C862 C860 1.327 . S
C862 C881 1.429 . S
C862 H886 0.950 . S
C863 C880 1.574 . S
C863 C882 1.368 . S
C863 H887 0.949 . S
H864 C868 0.949 . S
C865 C866 1.349 . S
C865 C867 1.327 . S
C865 H888 0.950 . S
C866 C865 1.349 . S
C866 C878 1.349 . S
C867 C865 1.327 . S
C867 C883 1.429 . S
C867 H889 0.950 . S
C868 H864 0.949 . S
C868 C876 1.574 . S
C868 C884 1.368 . S
H869 C877 0.950 . S
H870 C875 0.950 . S
H871 C876 0.949 . S
H872 C878 0.950 . S
H873 C879 0.950 . S
H874 C880 0.949 . S
C875 H870 0.950 . S
C875 C877 1.327 . S
C875 C881 1.429 . S
C876 C868 1.574 . S
C876 H871 0.949 . S
C876 C882 1.368 . S
C877 C861 1.349 . S
C877 H869 0.950 . S
C877 C875 1.327 . S
C878 C866 1.349 . S
C878 H872 0.950 . S
C878 C879 1.327 . S
C879 H873 0.950 . S
C879 C878 1.327 . S
C879 C883 1.429 . S
C880 C863 1.574 . S
C880 H874 0.949 . S
C880 C884 1.368 . S
C881 C862 1.429 . S
C881 C875 1.429 . S
C881 C882 1.523 . S
C882 C863 1.368 . S
C882 C876 1.368 . S
C882 C881 1.523 . S
C883 C867 1.429 . S
C883 C879 1.429 . S
C883 C884 1.523 . S
C884 C868 1.368 . S
C884 C880 1.368 . S
C884 C883 1.523 . S
H885 C860 0.950 . S
H886 C862 0.950 . S
H887 C863 0.949 . S
H888 C865 0.950 . S
H889 C867 0.950 . S
C890 C891 1.349 . S
C890 C892 1.327 . S
C890 H915 0.950 . S
C891 C890 1.349 . S
C891 C907 1.349 . S
C892 C890 1.327 . S
C892 C911 1.429 . S
C892 H916 0.950 . S
C893 C910 1.574 . S
C893 C912 1.368 . S
C893 H917 0.949 . S
H894 C898 0.949 . S
C895 C896 1.349 . S
C895 C897 1.327 . S
C895 H918 0.950 . S
C896 C895 1.349 . S
C896 C908 1.349 . S
C897 C895 1.327 . S
C897 C913 1.429 . S
C897 H919 0.950 . S
C898 H894 0.949 . S
C898 C906 1.574 . S
C898 C914 1.368 . S
H899 C907 0.950 . S
H900 C905 0.950 . S
H901 C906 0.949 . S
H902 C908 0.950 . S
H903 C909 0.950 . S
H904 C910 0.949 . S
C905 H900 0.950 . S
C905 C907 1.327 . S
C905 C911 1.429 . S
C906 C898 1.574 . S
C906 H901 0.949 . S
C906 C912 1.368 . S
C907 C891 1.349 . S
C907 H899 0.950 . S
C907 C905 1.327 . S
C908 C896 1.349 . S
C908 H902 0.950 . S
C908 C909 1.327 . S
C909 H903 0.950 . S
C909 C908 1.327 . S
C909 C913 1.429 . S
C910 C893 1.574 . S
C910 H904 0.949 . S
C910 C914 1.368 . S
C911 C892 1.429 . S
C911 C905 1.429 . S
C911 C912 1.523 . S
C912 C893 1.368 . S
C912 C906 1.368 . S
C912 C911 1.523 . S
C913 C897 1.429 . S
C913 C909 1.429 . S
C913 C914 1.523 . S
C914 C898 1.368 . S
C914 C910 1.368 . S
C914 C913 1.523 . S
H915 C890 0.950 . S
H916 C892 0.950 . S
H917 C893 0.949 . S
H918 C895 0.950 . S
H919 C897 0.950 . S
C920 C921 1.349 . S
C920 C922 1.327 . S
C920 H945 0.950 . S
C921 C920 1.349 . S
C921 C937 1.349 . S
C922 C920 1.327 . S
C922 C941 1.429 . S
C922 H946 0.950 . S
C923 C940 1.574 1_455 S
C923 C942 1.368 . S
C923 H947 0.949 . S
H924 C928 0.949 . S
C925 C926 1.349 . S
C925 C927 1.327 . S
C925 H948 0.950 . S
C926 C925 1.349 . S
C926 C938 1.349 . S
C927 C925 1.327 . S
C927 C943 1.429 . S
C927 H949 0.950 . S
C928 H924 0.949 . S
C928 C936 1.574 1_655 S
C928 C944 1.368 . S
H929 C937 0.950 . S
H930 C935 0.950 . S
H931 C936 0.949 . S
H932 C938 0.950 . S
H933 C939 0.950 . S
H934 C940 0.949 . S
C935 H930 0.950 . S
C935 C937 1.327 . S
C935 C941 1.429 . S
C936 C928 1.574 1_455 S
C936 H931 0.949 . S
C936 C942 1.368 . S
C937 C921 1.349 . S
C937 H929 0.950 . S
C937 C935 1.327 . S
C938 C926 1.349 . S
C938 H932 0.950 . S
C938 C939 1.327 . S
C939 H933 0.950 . S
C939 C938 1.327 . S
C939 C943 1.429 . S
C940 C923 1.574 1_655 S
C940 H934 0.949 . S
C940 C944 1.368 . S
C941 C922 1.429 . S
C941 C935 1.429 . S
C941 C942 1.523 . S
C942 C923 1.368 . S
C942 C936 1.368 . S
C942 C941 1.523 . S
C943 C927 1.429 . S
C943 C939 1.429 . S
C943 C944 1.523 . S
C944 C928 1.368 . S
C944 C940 1.368 . S
C944 C943 1.523 . S
H945 C920 0.950 . S
H946 C922 0.950 . S
H947 C923 0.949 . S
H948 C925 0.950 . S
H949 C927 0.950 . S
C950 C951 1.349 . S
C950 C952 1.327 . S
C950 H975 0.950 . S
C951 C950 1.349 . S
C951 C967 1.349 . S
C952 C950 1.327 . S
C952 C971 1.429 . S
C952 H976 0.950 . S
C953 C970 1.574 1_655 S
C953 C972 1.368 . S
C953 H977 0.949 . S
H954 C958 0.949 . S
C955 C956 1.349 . S
C955 C957 1.327 . S
C955 H978 0.950 . S
C956 C955 1.349 . S
C956 C968 1.349 . S
C957 C955 1.327 . S
C957 C973 1.429 . S
C957 H979 0.950 . S
C958 H954 0.949 . S
C958 C966 1.574 1_455 S
C958 C974 1.368 . S
H959 C967 0.950 . S
H960 C965 0.950 . S
H961 C966 0.949 . S
H962 C968 0.950 . S
H963 C969 0.950 . S
H964 C970 0.949 . S
C965 H960 0.950 . S
C965 C967 1.327 . S
C965 C971 1.429 . S
C966 C958 1.574 1_655 S
C966 H961 0.949 . S
C966 C972 1.368 . S
C967 C951 1.349 . S
C967 H959 0.950 . S
C967 C965 1.327 . S
C968 C956 1.349 . S
C968 H962 0.950 . S
C968 C969 1.327 . S
C969 H963 0.950 . S
C969 C968 1.327 . S
C969 C973 1.429 . S
C970 C953 1.574 1_455 S
C970 H964 0.949 . S
C970 C974 1.368 . S
C971 C952 1.429 . S
C971 C965 1.429 . S
C971 C972 1.523 . S
C972 C953 1.368 . S
C972 C966 1.368 . S
C972 C971 1.523 . S
C973 C957 1.429 . S
C973 C969 1.429 . S
C973 C974 1.523 . S
C974 C958 1.368 . S
C974 C970 1.368 . S
C974 C973 1.523 . S
H975 C950 0.950 . S
H976 C952 0.950 . S
H977 C953 0.949 . S
H978 C955 0.950 . S
H979 C957 0.950 . S
C980 C981 1.349 . S
C980 C982 1.327 . S
C980 H1005 0.950 . S
C981 C980 1.349 . S
C981 C997 1.349 . S
C982 C980 1.327 . S
C982 C1001 1.429 . S
C982 H1006 0.950 . S
C983 C1000 1.574 . S
C983 C1002 1.368 . S
C983 H1007 0.949 . S
H984 C988 0.949 . S
C985 C986 1.349 . S
C985 C987 1.327 . S
C985 H1008 0.950 . S
C986 C985 1.349 . S
C986 C998 1.349 . S
C987 C985 1.327 . S
C987 C1003 1.429 . S
C987 H1009 0.950 . S
C988 H984 0.949 . S
C988 C996 1.574 . S
C988 C1004 1.368 . S
H989 C997 0.950 . S
H990 C995 0.950 . S
H991 C996 0.949 . S
H992 C998 0.950 . S
H993 C999 0.950 . S
H994 C1000 0.949 . S
C995 H990 0.950 . S
C995 C997 1.327 . S
C995 C1001 1.429 . S
C996 C988 1.574 . S
C996 H991 0.949 . S
C996 C1002 1.368 . S
C997 C981 1.349 . S
C997 H989 0.950 . S
C997 C995 1.327 . S
C998 C986 1.349 . S
C998 H992 0.950 . S
C998 C999 1.327 . S
C999 H993 0.950 . S
C999 C998 1.327 . S
C999 C1003 1.429 . S
C1000 C983 1.574 . S
C1000 H994 0.949 . S
C1000 C1004 1.368 . S
C1001 C982 1.429 . S
C1001 C995 1.429 . S
C1001 C1002 1.523 . S
C1002 C983 1.368 . S
C1002 C996 1.368 . S
C1002 C1001 1.523 . S
C1003 C987 1.429 . S
C1003 C999 1.429 . S
C1003 C1004 1.523 . S
C1004 C988 1.368 . S
C1004 C1000 1.368 . S
C1004 C1003 1.523 . S
H1005 C980 0.950 . S
H1006 C982 0.950 . S
H1007 C983 0.949 . S
H1008 C985 0.950 . S
H1009 C987 0.950 . S
C1010 C1011 1.349 . S
C1010 C1012 1.327 . S
C1010 H1035 0.950 . S
C1011 C1010 1.349 . S
C1011 C1027 1.349 . S
C1012 C1010 1.327 . S
C1012 C1031 1.429 . S
C1012 H1036 0.950 . S
C1013 C1030 1.574 . S
C1013 C1032 1.368 . S
C1013 H1037 0.949 . S
H1014 C1018 0.949 . S
C1015 C1016 1.349 . S
C1015 C1017 1.327 . S
C1015 H1038 0.950 . S
C1016 C1015 1.349 . S
C1016 C1028 1.349 . S
C1017 C1015 1.327 . S
C1017 C1033 1.429 . S
C1017 H1039 0.950 . S
C1018 H1014 0.949 . S
C1018 C1026 1.574 . S
C1018 C1034 1.368 . S
H1019 C1027 0.950 . S
H1020 C1025 0.950 . S
H1021 C1026 0.949 . S
H1022 C1028 0.950 . S
H1023 C1029 0.950 . S
H1024 C1030 0.949 . S
C1025 H1020 0.950 . S
C1025 C1027 1.327 . S
C1025 C1031 1.429 . S
C1026 C1018 1.574 . S
C1026 H1021 0.949 . S
C1026 C1032 1.368 . S
C1027 C1011 1.349 . S
C1027 H1019 0.950 . S
C1027 C1025 1.327 . S
C1028 C1016 1.349 . S
C1028 H1022 0.950 . S
C1028 C1029 1.327 . S
C1029 H1023 0.950 . S
C1029 C1028 1.327 . S
C1029 C1033 1.429 . S
C1030 C1013 1.574 . S
C1030 H1024 0.949 . S
C1030 C1034 1.368 . S
C1031 C1012 1.429 . S
C1031 C1025 1.429 . S
C1031 C1032 1.523 . S
C1032 C1013 1.368 . S
C1032 C1026 1.368 . S
C1032 C1031 1.523 . S
C1033 C1017 1.429 . S
C1033 C1029 1.429 . S
C1033 C1034 1.523 . S
C1034 C1018 1.368 . S
C1034 C1030 1.368 . S
C1034 C1033 1.523 . S
H1035 C1010 0.950 . S
H1036 C1012 0.950 . S
H1037 C1013 0.949 . S
H1038 C1015 0.950 . S
H1039 C1017 0.950 . S
C321 C6 1.704 . S
C326 C295 1.703 . S
C351 C255 1.703 . S
C356 C46 1.703 . S
C381 C206 1.703 . S
C386 C95 1.703 . S
C411 C166 1.704 . S
C416 C135 1.703 . S
C441 C89 1.535 . S
C446 C9 1.546 . S
C471 C49 1.546 . S
C476 C129 1.535 . S
C501 C138 1.546 . S
C506 C58 1.535 . S
C531 C98 1.546 . S
C536 C18 1.535 . S
C561 C169 1.445 . S
C566 C249 1.445 . S
C591 C209 1.445 . S
C596 C289 1.445 . S
C621 C298 1.444 . S
C626 C218 1.445 . S
C651 C258 1.444 . S
C656 C178 1.445 . S
C681 C19 2.075 . S
C686 C10 2.075 . S
C711 C59 2.075 . S
C716 C50 2.075 . S
C741 C99 2.075 . S
C746 C90 2.075 . S
C771 C130 2.075 . S
C776 C139 2.075 . S
C801 C170 2.075 . S
C806 C179 2.075 . S
C831 C219 2.075 . S
C836 C210 2.075 . S
C861 C250 2.075 . S
C866 C259 2.075 . S
C891 C290 2.075 . S
C896 C299 2.075 . S
C921 C15 2.376 . S
C926 C55 2.376 . S
C951 C126 2.376 . S
C956 C86 2.376 . S
C981 C175 2.378 . S
C986 C215 2.378 . S
C1011 C286 2.378 . S
C1016 C246 2.378 . S
