# Generated by pormake.
# Topology ukf, (4)-cn, num edge types: 1
# Building blocks:
#     Node 0, Type 0, BuildingBlock: NAHDIM_clean_sbu_0, # of connection points: 4
#     Node 1, Type 0, BuildingBlock: NAHDIM_clean_sbu_0, # of connection points: 4
#     Node 2, Type 0, BuildingBlock: NAHDIM_clean_sbu_0, # of connection points: 4
#     Node 3, Type 0, BuildingBlock: NAHDIM_clean_sbu_0, # of connection points: 4
#     Node 4, Type 0, BuildingBlock: NAHDIM_clean_sbu_0, # of connection points: 4
#     Node 5, Type 0, BuildingBlock: NAHDIM_clean_sbu_0, # of connection points: 4
#     Node 6, Type 0, BuildingBlock: NAHDIM_clean_sbu_0, # of connection points: 4
#     Node 7, Type 0, BuildingBlock: NAHDIM_clean_sbu_0, # of connection points: 4
#     Node 8, Type 0, BuildingBlock: NAHDIM_clean_sbu_0, # of connection points: 4
#     Node 9, Type 0, BuildingBlock: NAHDIM_clean_sbu_0, # of connection points: 4
#     Node 10, Type 0, BuildingBlock: NAHDIM_clean_sbu_0, # of connection points: 4
#     Node 11, Type 0, BuildingBlock: NAHDIM_clean_sbu_0, # of connection points: 4
#     Edge 12, Type (0, 0), BuildingBlock: CIFDUS_clean_linker_0, # of connection points: 2
#     Edge 13, Type (0, 0), BuildingBlock: CIFDUS_clean_linker_0, # of connection points: 2
#     Edge 14, Type (0, 0), BuildingBlock: CIFDUS_clean_linker_0, # of connection points: 2
#     Edge 15, Type (0, 0), BuildingBlock: CIFDUS_clean_linker_0, # of connection points: 2
#     Edge 16, Type (0, 0), BuildingBlock: CIFDUS_clean_linker_0, # of connection points: 2
#     Edge 17, Type (0, 0), BuildingBlock: CIFDUS_clean_linker_0, # of connection points: 2
#     Edge 18, Type (0, 0), BuildingBlock: CIFDUS_clean_linker_0, # of connection points: 2
#     Edge 19, Type (0, 0), BuildingBlock: CIFDUS_clean_linker_0, # of connection points: 2
#     Edge 20, Type (0, 0), BuildingBlock: CIFDUS_clean_linker_0, # of connection points: 2
#     Edge 21, Type (0, 0), BuildingBlock: CIFDUS_clean_linker_0, # of connection points: 2
#     Edge 22, Type (0, 0), BuildingBlock: CIFDUS_clean_linker_0, # of connection points: 2
#     Edge 23, Type (0, 0), BuildingBlock: CIFDUS_clean_linker_0, # of connection points: 2
#     Edge 24, Type (0, 0), BuildingBlock: CIFDUS_clean_linker_0, # of connection points: 2
#     Edge 25, Type (0, 0), BuildingBlock: CIFDUS_clean_linker_0, # of connection points: 2
#     Edge 26, Type (0, 0), BuildingBlock: CIFDUS_clean_linker_0, # of connection points: 2
#     Edge 27, Type (0, 0), BuildingBlock: CIFDUS_clean_linker_0, # of connection points: 2
#     Edge 28, Type (0, 0), BuildingBlock: CIFDUS_clean_linker_0, # of connection points: 2
#     Edge 29, Type (0, 0), BuildingBlock: CIFDUS_clean_linker_0, # of connection points: 2
#     Edge 30, Type (0, 0), BuildingBlock: CIFDUS_clean_linker_0, # of connection points: 2
#     Edge 31, Type (0, 0), BuildingBlock: CIFDUS_clean_linker_0, # of connection points: 2
#     Edge 32, Type (0, 0), BuildingBlock: CIFDUS_clean_linker_0, # of connection points: 2
#     Edge 33, Type (0, 0), BuildingBlock: CIFDUS_clean_linker_0, # of connection points: 2
#     Edge 34, Type (0, 0), BuildingBlock: CIFDUS_clean_linker_0, # of connection points: 2
#     Edge 35, Type (0, 0), BuildingBlock: CIFDUS_clean_linker_0, # of connection points: 2
# Relax obj value: 0.169
# Max RMSD: 0.177
# Mean RMSD: 0.169
data_MOF--net-ukf--node1-NAHDIM_clean_sbu_0--edge1-CIFDUS_clean_linker_0
_symmetry_space_group_name_H-M    P1
_symmetry_Int_Tables_number       1
_symmetry_cell_setting            triclinic
loop_
_symmetry_equiv_pos_as_xyz
'x, y, z'
_cell_length_a     28.950378
_cell_length_b     28.631246
_cell_length_c     53.813063
_cell_angle_alpha  89.953622
_cell_angle_beta   89.944943
_cell_angle_gamma 120.30321
loop_
_atom_site_label
_atom_site_type_symbol
_atom_site_fract_x
_atom_site_fract_y
_atom_site_fract_z
_atom_type_partial_charge
C0 C 0.42701 0.33161 0.05196 0.0
O1 O 0.46949 0.32689 0.05508 0.0
O2 O 0.43783 0.22211 0.03347 0.0
Zn3 Zn 0.3823 0.22032 0.05677 0.0
O4 O 0.40077 0.21712 0.09255 0.0
C5 C 0.28899 0.1429 0.02855 0.0
O6 O 0.31112 0.17758 0.0102 0.0
O7 O 0.38111 0.28909 0.05187 0.0
C8 C 0.38336 0.17184 0.10342 0.0
O9 O 0.35539 0.12705 0.09066 0.0
C10 C 0.46611 0.2008 0.03825 0.0
O11 O 0.45895 0.17496 0.05937 0.0
O12 O 0.31139 0.15435 0.04969 0.0
C13 C 0.11101 0.42325 0.3582 0.0
O14 O 0.13792 0.42676 0.33793 0.0
O15 O 0.24925 0.45319 0.36958 0.0
Zn16 Zn 0.18091 0.39018 0.38263 0.0
O17 O 0.18972 0.38251 0.41931 0.0
C18 C 0.18408 0.29276 0.37366 0.0
O19 O 0.19848 0.29974 0.39712 0.0
O20 O 0.12081 0.40594 0.37813 0.0
C21 C 0.18402 0.41278 0.43476 0.0
O22 O 0.17217 0.44865 0.42646 0.0
C23 C 0.25775 0.50125 0.36865 0.0
O24 O 0.2214 0.51162 0.37727 0.0
O25 O 0.17066 0.32453 0.36373 0.0
C26 C 0.86323 0.18767 0.70217 0.0
O27 O 0.87051 0.20101 0.72579 0.0
O28 O 0.76917 0.19024 0.74603 0.0
Zn29 Zn 0.76397 0.18931 0.70839 0.0
O30 O 0.77453 0.2604 0.69612 0.0
C31 C 0.66883 0.08493 0.70852 0.0
O32 O 0.69663 0.07479 0.7247 0.0
O33 O 0.82015 0.17858 0.69169 0.0
C34 C 0.73605 0.26972 0.69523 0.0
O35 O 0.68866 0.23279 0.70334 0.0
C36 C 0.72813 0.18037 0.75877 0.0
O37 O 0.68436 0.17099 0.74718 0.0
O38 O 0.69052 0.13094 0.69805 0.0
C39 C 0.50945 0.64166 0.03926 0.0
O40 O 0.46864 0.6485 0.04379 0.0
O41 O 0.4935 0.74483 0.01514 0.0
Zn42 Zn 0.55805 0.7544 0.03362 0.0
O43 O 0.55647 0.77714 0.06894 0.0
C44 C 0.66356 0.85001 0.02497 0.0
O45 O 0.66607 0.85455 0.04929 0.0
O46 O 0.55458 0.68269 0.03407 0.0
C47 C 0.58045 0.76672 0.08592 0.0
O48 O 0.60725 0.74255 0.07994 0.0
C49 C 0.47216 0.7733 0.01962 0.0
O50 O 0.49253 0.81033 0.03708 0.0
O51 O 0.62291 0.81033 0.01503 0.0
C52 C 0.93112 0.55583 0.38745 0.0
O53 O 0.90641 0.55227 0.40845 0.0
O54 O 0.79431 0.52767 0.35811 0.0
Zn55 Zn 0.86056 0.59226 0.37143 0.0
O56 O 0.84871 0.60433 0.4075 0.0
C57 C 0.86377 0.69232 0.35976 0.0
O58 O 0.85903 0.69383 0.38397 0.0
O59 O 0.92044 0.57515 0.36844 0.0
C60 C 0.80257 0.58113 0.4175 0.0
O61 O 0.76045 0.54869 0.40418 0.0
C62 C 0.77595 0.48021 0.36672 0.0
O63 O 0.80076 0.4723 0.38524 0.0
O64 O 0.87022 0.65521 0.35036 0.0
C65 C 0.16316 0.84715 0.6905 0.0
O66 O 0.15501 0.84838 0.71444 0.0
O67 O 0.22417 0.82366 0.74204 0.0
Zn68 Zn 0.24828 0.82825 0.70661 0.0
O69 O 0.23849 0.75654 0.69585 0.0
C70 C 0.35505 0.88363 0.72317 0.0
O71 O 0.33036 0.85283 0.74243 0.0
O72 O 0.20307 0.84355 0.68322 0.0
C73 C 0.25066 0.7274 0.70896 0.0
O74 O 0.26969 0.74321 0.73145 0.0
C75 C 0.1848 0.7819 0.75154 0.0
O76 O 0.15587 0.73941 0.7375 0.0
O77 O 0.32747 0.88272 0.70458 0.0
C78 C 0.67337 0.57631 0.62931 0.0
O79 O 0.6859 0.54402 0.64105 0.0
O80 O 0.77899 0.55575 0.62504 0.0
Zn81 Zn 0.78109 0.62159 0.61048 0.0
O82 O 0.79122 0.62115 0.57347 0.0
C83 C 0.88941 0.70736 0.61863 0.0
O84 O 0.89712 0.6877 0.59801 0.0
O85 O 0.70882 0.61489 0.61624 0.0
C86 C 0.80994 0.66264 0.55954 0.0
O87 O 0.82531 0.71033 0.56929 0.0
C88 C 0.81586 0.54422 0.62321 0.0
O89 O 0.85933 0.57634 0.61053 0.0
O90 O 0.84208 0.68714 0.62713 0.0
C91 C 0.06211 0.66408 0.96641 0.0
O92 O 0.10714 0.6771 0.97778 0.0
O93 O 0.18975 0.78081 0.96287 0.0
Zn94 Zn 0.1245 0.77111 0.94492 0.0
O95 O 0.137 0.77374 0.90823 0.0
C96 C 0.11896 0.84767 0.97661 0.0
O97 O 0.11851 0.81462 0.9937 0.0
O98 O 0.05956 0.69901 0.95279 0.0
C99 C 0.17419 0.81635 0.8982 0.0
O100 O 0.20472 0.85829 0.91225 0.0
C101 C 0.21701 0.75996 0.95547 0.0
O102 O 0.20202 0.72983 0.93538 0.0
O103 O 0.11668 0.8346 0.95392 0.0
C104 C 0.32363 0.15165 0.30651 0.0
O105 O 0.32724 0.16242 0.28263 0.0
O106 O 0.41425 0.15967 0.26037 0.0
Zn107 Zn 0.42147 0.1506 0.29699 0.0
O108 O 0.48592 0.21663 0.31042 0.0
C109 C 0.48065 0.10065 0.29032 0.0
O110 O 0.5078 0.14676 0.27833 0.0
O111 O 0.35744 0.14135 0.31639 0.0
C112 C 0.50311 0.2127 0.33159 0.0
O113 O 0.47713 0.16682 0.34385 0.0
C114 C 0.43553 0.20549 0.24967 0.0
O115 O 0.46221 0.24966 0.26299 0.0
O116 O 0.43697 0.08985 0.30087 0.0
C117 C 0.357 0.45052 0.62465 0.0
O118 O 0.34452 0.48338 0.61337 0.0
O119 O 0.24419 0.45657 0.64045 0.0
Zn120 Zn 0.24556 0.39257 0.62634 0.0
O121 O 0.23175 0.38974 0.58957 0.0
C122 C 0.14131 0.30076 0.63499 0.0
O123 O 0.13432 0.3108 0.6119 0.0
O124 O 0.31947 0.40499 0.63229 0.0
C125 C 0.23974 0.3604 0.5745 0.0
O126 O 0.25725 0.32915 0.58303 0.0
C127 C 0.21509 0.474 0.63155 0.0
O128 O 0.18511 0.45005 0.61206 0.0
O129 O 0.18756 0.32799 0.64459 0.0
C130 C 0.87226 0.34512 0.95637 0.0
O131 O 0.83187 0.33358 0.94157 0.0
O132 O 0.75103 0.21668 0.97059 0.0
Zn133 Zn 0.82077 0.23141 0.95511 0.0
O134 O 0.81737 0.22625 0.91757 0.0
C135 C 0.82427 0.13228 0.95939 0.0
O136 O 0.81144 0.12711 0.93575 0.0
O137 O 0.87759 0.30668 0.96487 0.0
C138 C 0.77499 0.19529 0.90553 0.0
O139 O 0.73061 0.16367 0.91775 0.0
C140 C 0.71647 0.22822 0.9629 0.0
O141 O 0.72353 0.25282 0.94143 0.0
O142 O 0.8347 0.1756 0.97057 0.0
C143 C 0.70388 0.81367 0.29379 0.0
O144 O 0.70097 0.80549 0.26968 0.0
O145 O 0.61219 0.80534 0.24906 0.0
Zn146 Zn 0.60661 0.81738 0.28559 0.0
O147 O 0.53888 0.75447 0.29936 0.0
C148 C 0.62587 0.92758 0.27868 0.0
O149 O 0.66283 0.93376 0.26266 0.0
O150 O 0.66916 0.82173 0.30434 0.0
C151 C 0.49603 0.75656 0.29994 0.0
O152 O 0.49608 0.79893 0.29054 0.0
C153 C 0.58562 0.81333 0.23252 0.0
O154 O 0.55292 0.8303 0.23922 0.0
O155 O 0.60055 0.88358 0.29072 0.0
H156 H 0.13705 0.89208 0.02271 0.0
H157 H 0.13911 0.93078 0.945 0.0
H158 H 0.18627 0.02703 0.95482 0.0
H159 H 0.23897 0.09986 0.98456 0.0
H160 H 0.23902 0.0606 0.06206 0.0
H161 H 0.17859 0.96521 0.0532 0.0
C162 C 0.1468 0.92147 0.00796 0.0
C163 C 0.13553 0.90421 0.98312 0.0
C164 C 0.17502 0.97685 0.01364 0.0
C165 C 0.14782 0.94288 0.96428 0.0
C166 C 0.17509 -0.00195 0.96985 0.0
C167 C 0.22498 0.07059 -0.00041 0.0
C168 C 0.24445 0.0873 0.02382 0.0
C169 C 0.19085 0.0155 0.99433 0.0
C170 C 0.22533 0.04886 0.04314 0.0
C171 C 0.1908 0.99417 0.03811 0.0
H172 H 0.2213 0.227 0.38849 0.0
H173 H 0.16988 0.2767 0.32342 0.0
H174 H 0.20244 0.23035 0.29683 0.0
H175 H 0.25629 0.18675 0.2919 0.0
H176 H 0.31116 0.14069 0.35699 0.0
H177 H 0.26579 0.17394 0.38367 0.0
C178 C 0.21634 0.22697 0.36852 0.0
C179 C 0.19396 0.25611 0.35798 0.0
C180 C 0.23627 0.2013 0.35329 0.0
C181 C 0.18738 0.25506 0.33206 0.0
C182 C 0.20621 0.22872 0.31681 0.0
C183 C 0.2576 0.18307 0.31192 0.0
C184 C 0.28789 0.16203 0.3224 0.0
C185 C 0.23243 0.20341 0.32719 0.0
C186 C 0.28864 0.15717 0.34838 0.0
C187 C 0.26283 0.17637 0.36369 0.0
H188 H 0.96397 0.21633 0.71734 0.0
H189 H 0.86322 0.17035 0.65227 0.0
H190 H 0.94033 0.1943 0.62578 0.0
H191 H 0.03758 0.23991 0.62068 0.0
H192 H 0.13897 0.28834 0.68553 0.0
H193 H 0.06033 0.25082 0.71242 0.0
C194 C 0.95868 0.21065 0.6974 0.0
C195 C 0.908 0.19258 0.68682 0.0
C196 C 0.00342 0.22532 0.68216 0.0
C197 C 0.90184 0.18484 0.66095 0.0
C198 C 0.94598 0.19865 0.64573 0.0
C199 C 0.04252 0.24141 0.6407 0.0
C200 C 0.09417 0.26783 0.65103 0.0
C201 C 0.9972 0.22076 0.65607 0.0
C202 C 0.09973 0.26869 0.67702 0.0
C203 C 0.05474 0.24748 0.69245 0.0
H204 H 0.7421 0.94983 0.0397 0.0
H205 H 0.67232 0.85135 0.97445 0.0
H206 H 0.72427 0.9299 0.94788 0.0
H207 H 0.77818 0.02826 0.9435 0.0
H208 H 0.844 0.12772 0.00879 0.0
H209 H 0.80595 0.04698 0.0349 0.0
C210 C 0.73902 0.94529 0.01966 0.0
C211 C 0.70256 0.89499 0.00912 0.0
C212 C 0.76803 0.99096 0.00446 0.0
C213 C 0.69946 0.88978 0.98309 0.0
C214 C 0.72912 0.93472 0.96785 0.0
C215 C 0.78529 0.03233 0.96337 0.0
C216 C 0.81301 0.08403 0.97419 0.0
C217 C 0.76185 0.98586 0.97837 0.0
C218 C 0.82221 0.08843 -2e-05 0.0
C219 C 0.80024 0.04226 0.01497 0.0
H220 H 0.77001 0.77783 0.27815 0.0
H221 H 0.72321 0.83102 0.34361 0.0
H222 H 0.7758 0.80515 0.36954 0.0
H223 H 0.82554 0.75741 0.37411 0.0
H224 H 0.86802 0.69928 0.30895 0.0
H225 H 0.82749 0.73808 0.28242 0.0
C226 C 0.77194 0.78458 0.29804 0.0
C227 C 0.74207 0.80567 0.30893 0.0
C228 C 0.80128 0.76845 0.31293 0.0
C229 C 0.74532 0.81435 0.33474 0.0
C230 C 0.77536 0.7995 0.34961 0.0
C231 C 0.82691 0.75404 0.35408 0.0
C232 C 0.84923 0.72483 0.34358 0.0
C233 C 0.8021 0.77499 0.33898 0.0
C234 C 0.85074 0.72116 0.31757 0.0
C235 C 0.82734 0.74314 0.30237 0.0
H236 H 0.99391 0.75911 0.60502 0.0
H237 H 0.88972 0.74175 0.66615 0.0
H238 H 0.96723 0.79165 0.69317 0.0
H239 H 0.06311 0.82845 0.70078 0.0
H240 H 0.16649 0.84208 0.63988 0.0
H241 H 0.09082 0.80623 0.61138 0.0
C242 C 0.98811 0.76692 0.62415 0.0
C243 C 0.93602 0.74585 0.63365 0.0
C244 C 0.03274 0.79467 0.6397 0.0
C245 C 0.92933 0.75708 0.65839 0.0
C246 C 0.97366 0.78546 0.6739 0.0
C247 C 0.06938 0.82469 0.68118 0.0
C248 C 0.12029 0.83708 0.67259 0.0
C249 C 0.02539 0.80272 0.66497 0.0
C250 C 0.12766 0.83228 0.64708 0.0
C251 C 0.08433 0.81155 0.63076 0.0
H252 H 0.64046 0.25615 0.95506 0.0
H253 H 0.68753 0.17197 0.00654 0.0
H254 H 0.61334 0.15453 0.03386 0.0
H255 H 0.53693 0.16566 0.04395 0.0
H256 H 0.49033 0.25094 0.99293 0.0
H257 H 0.5623 0.26519 0.96468 0.0
C258 C 0.63433 0.23373 0.97218 0.0
C259 C 0.66971 0.21564 0.97874 0.0
C260 C 0.59172 0.22412 0.98798 0.0
C261 C 0.66112 0.18664 0.00103 0.0
C262 C 0.61865 0.1766 0.01672 0.0
C263 C 0.54231 0.18715 0.02661 0.0
C264 C 0.50834 0.20731 0.02065 0.0
C265 C 0.584 0.19556 0.0105 0.0
C266 C 0.51595 0.23506 0.99806 0.0
C267 C 0.55715 0.24328 0.98186 0.0
H268 H 0.27622 0.59891 0.35238 0.0
H269 H 0.34915 0.49985 0.35774 0.0
H270 H 0.42938 0.57006 0.33695 0.0
H271 H 0.4786 0.65938 0.31701 0.0
H272 H 0.40414 0.75694 0.31054 0.0
H273 H 0.3247 0.68737 0.33188 0.0
C274 C 0.30979 0.5928 0.34913 0.0
C275 C 0.30683 0.54437 0.3567 0.0
C276 C 0.35543 0.63293 0.33684 0.0
C277 C 0.35042 0.5368 0.35209 0.0
C278 C 0.39631 0.5769 0.34019 0.0
C279 C 0.44498 0.6654 0.32025 0.0
C280 C 0.4474 0.71334 0.31221 0.0
C281 C 0.39919 0.62507 0.33242 0.0
C282 C 0.40336 0.72038 0.31646 0.0
C283 C 0.3579 0.68067 0.32873 0.0
H284 H 0.82376 0.34649 0.6705 0.0
H285 H 0.66534 0.30619 0.69428 0.0
H286 H 0.67638 0.38768 0.67424 0.0
H287 H 0.73013 0.46931 0.64945 0.0
H288 H 0.88807 0.50931 0.62502 0.0
H289 H 0.8779 0.42874 0.64581 0.0
C290 C 0.79173 0.35565 0.67141 0.0
C291 C 0.7438 0.32026 0.68389 0.0
C292 C 0.79811 0.40233 0.65964 0.0
C293 C 0.70262 0.33264 0.68478 0.0
C294 C 0.70886 0.37923 0.67331 0.0
C295 C 0.76242 0.46052 0.64866 0.0
C296 C 0.80978 0.49532 0.63566 0.0
C297 C 0.75629 0.41415 0.66058 0.0
C298 C 0.85114 0.48319 0.63484 0.0
C299 C 0.8454 0.43715 0.64675 0.0
H300 H 0.27682 0.71223 0.94824 0.0
H301 H 0.2636 0.82754 0.99493 0.0
H302 H 0.34139 0.84205 0.01874 0.0
H303 H 0.41304 0.82189 0.02646 0.0
H304 H 0.42541 0.70549 0.98021 0.0
H305 H 0.34812 0.6916 0.95615 0.0
C306 C 0.29099 0.74061 0.96359 0.0
C307 C 0.26441 0.76876 0.96974 0.0
C308 C 0.3356 0.74857 0.97734 0.0
C309 C 0.28322 0.80523 0.98978 0.0
C310 C 0.32776 0.81362 0.00343 0.0
C311 C 0.39889 0.79351 0.01111 0.0
C312 C 0.42509 0.76488 0.00516 0.0
C313 C 0.35423 0.78547 0.99739 0.0
C314 C 0.40604 0.7281 0.98524 0.0
C315 C 0.36182 0.72011 0.97143 0.0
H316 H 0.56356 0.31331 0.31193 0.0
H317 H 0.55505 0.21369 0.37405 0.0
H318 H 0.63913 0.28735 0.39017 0.0
H319 H 0.7154 0.37977 0.38651 0.0
H320 H 0.72299 0.47984 0.32478 0.0
H321 H 0.63899 0.40612 0.30862 0.0
C322 C 0.58001 0.30771 0.32902 0.0
C323 C 0.55308 0.25804 0.34172 0.0
C324 C 0.62832 0.35022 0.33823 0.0
C325 C 0.57491 0.25153 0.36389 0.0
C326 C 0.62307 0.29359 0.37312 0.0
C327 C 0.69879 0.38539 0.36947 0.0
C328 C 0.72552 0.43513 0.35683 0.0
C329 C 0.65022 0.34302 0.36039 0.0
C330 C 0.70321 0.44193 0.33489 0.0
C331 C 0.65517 0.39981 0.32562 0.0
H332 H 0.25905 0.52088 0.67571 0.0
H333 H 0.17109 0.53203 0.61346 0.0
H334 H 0.17329 0.61078 0.63226 0.0
H335 H 0.202 0.67755 0.66587 0.0
H336 H 0.28865 0.66523 0.72841 0.0
H337 H 0.28484 0.58549 0.70998 0.0
C338 C 0.24034 0.54051 0.66623 0.0
C339 C 0.21526 0.52084 0.64314 0.0
C340 C 0.24146 0.58546 0.67719 0.0
C341 C 0.19075 0.54641 0.63123 0.0
C342 C 0.19202 0.59146 0.64196 0.0
C343 C 0.21995 0.65736 0.67551 0.0
C344 C 0.24582 0.67749 0.69842 0.0
C345 C 0.21753 0.61149 0.66485 0.0
C346 C 0.26848 0.65059 0.71076 0.0
C347 C 0.26645 0.60506 0.70021 0.0
H348 H 0.43241 0.2562 0.13569 0.0
H349 H 0.35241 0.08188 0.13184 0.0
H350 H 0.36169 0.07714 0.17667 0.0
H351 H 0.39065 0.12206 0.21699 0.0
H352 H 0.47054 0.29629 0.2211 0.0
H353 H 0.46297 0.30136 0.17609 0.0
C354 C 0.41723 0.21716 0.14462 0.0
C355 C 0.39165 0.16947 0.1304 0.0
C356 C 0.42239 0.21465 0.17046 0.0
C357 C 0.3722 0.11925 0.14231 0.0
C358 C 0.3774 0.11645 0.16797 0.0
C359 C 0.40639 0.1612 0.20808 0.0
C360 C 0.43094 0.20871 0.22243 0.0
C361 C 0.40204 0.16384 0.18223 0.0
C362 C 0.45136 0.25906 0.21052 0.0
C363 C 0.44709 0.26201 0.18478 0.0
H364 H 0.21275 0.34639 0.45777 0.0
H365 H 0.17135 0.46912 0.47239 0.0
H366 H 0.1841 0.46296 0.51679 0.0
H367 H 0.20794 0.4238 0.5514 0.0
H368 H 0.2503 0.30171 0.53709 0.0
H369 H 0.23608 0.30657 0.49262 0.0
C370 C 0.20642 0.37174 0.47067 0.0
C371 C 0.19117 0.40821 0.46172 0.0
C372 C 0.214 0.36817 0.49623 0.0
C373 C 0.18318 0.44075 0.47871 0.0
C374 C 0.19044 0.43727 0.50414 0.0
C375 C 0.214 0.39811 0.5386 0.0
C376 C 0.23023 0.36248 0.5476 0.0
C377 C 0.206 0.40127 0.51309 0.0
C378 C 0.23787 0.32956 0.53069 0.0
C379 C 0.22976 0.33232 0.50525 0.0
H380 H 0.68944 0.15315 0.87457 0.0
H381 H 0.86205 0.23851 0.87473 0.0
H382 H 0.86302 0.24019 0.82932 0.0
H383 H 0.81468 0.21856 0.78946 0.0
H384 H 0.64211 0.13648 0.78974 0.0
H385 H 0.64137 0.13237 0.83499 0.0
C386 C 0.72728 0.17191 0.86468 0.0
C387 C 0.77555 0.19552 0.87803 0.0
C388 C 0.72759 0.17346 0.8386 0.0
C389 C 0.82427 0.22011 0.86491 0.0
C390 C 0.82488 0.22106 0.83893 0.0
C391 C 0.77696 0.19965 0.79944 0.0
C392 C 0.72857 0.1779 0.78623 0.0
C393 C 0.77678 0.19804 0.82557 0.0
C394 C 0.67999 0.15382 0.79944 0.0
C395 C 0.67947 0.15132 0.82534 0.0
H396 H 0.62958 0.7527 0.12584 0.0
H397 H 0.52404 0.81159 0.10498 0.0
H398 H 0.51675 0.83168 0.14842 0.0
H399 H 0.53909 0.83108 0.19243 0.0
H400 H 0.64502 0.77246 0.21306 0.0
H401 H 0.65333 0.75381 0.1696 0.0
C402 C 0.60504 0.77003 0.13075 0.0
C403 C 0.5773 0.78046 0.11216 0.0
C404 C 0.60098 0.78146 0.15575 0.0
C405 C 0.54583 0.8031 0.1189 0.0
C406 C 0.54156 0.81456 0.14375 0.0
C407 C 0.56403 0.81426 0.18743 0.0
C408 C 0.5912 0.80303 0.20603 0.0
C409 C 0.56875 0.80366 0.16235 0.0
C410 C 0.62355 0.78145 0.19917 0.0
C411 C 0.62835 0.77073 0.1743 0.0
H412 H 0.74817 0.57519 0.53119 0.0
H413 H 0.88317 0.73762 0.52767 0.0
H414 H 0.89376 0.72651 0.48327 0.0
H415 H 0.86507 0.66972 0.44559 0.0
H416 H 0.72583 0.50985 0.44883 0.0
H417 H 0.71631 0.52075 0.49323 0.0
C418 C 0.77991 0.60811 0.52067 0.0
C419 C 0.81514 0.65695 0.53262 0.0
C420 C 0.78494 0.60183 0.49516 0.0
C421 C 0.85556 0.69966 0.51878 0.0
C422 C 0.8617 0.69326 0.49346 0.0
C423 C 0.83273 0.63736 0.45608 0.0
C424 C 0.79644 0.58892 0.4441 0.0
C425 C 0.82676 0.64441 0.48148 0.0
C426 C 0.75418 0.54753 0.45771 0.0
C427 C 0.7488 0.55367 0.48308 0.0
H428 H 0.11592 0.73814 0.86427 0.0
H429 H 0.25134 0.90003 0.87103 0.0
H430 H 0.26548 0.90396 0.82619 0.0
H431 H 0.24029 0.8612 0.78527 0.0
H432 H 0.10518 0.6992 0.77836 0.0
H433 H 0.0899 0.69577 0.82315 0.0
C434 C 0.14854 0.77433 0.85596 0.0
C435 C 0.18259 0.81869 0.87101 0.0
C436 C 0.15644 0.77637 0.83016 0.0
C437 C 0.22456 0.86527 0.85991 0.0
C438 C 0.23268 0.86759 0.83425 0.0
C439 C 0.20732 0.82516 0.7935 0.0
C440 C 0.17394 0.7805 0.77846 0.0
C441 C 0.19895 0.82335 0.81923 0.0
C442 C 0.13147 0.73416 0.78948 0.0
C443 C 0.12276 0.73212 0.8151 0.0
H444 H 0.41662 0.54583 0.04365 0.0
H445 H 0.58769 0.61505 0.0378 0.0
H446 H 0.57695 0.52502 0.04099 0.0
H447 H 0.51928 0.42712 0.04606 0.0
H448 H 0.34809 0.35751 0.05129 0.0
H449 H 0.35867 0.44749 0.04764 0.0
C450 C 0.45158 0.54126 0.04307 0.0
C451 C 0.50289 0.5871 0.04059 0.0
C452 C 0.44512 0.48941 0.0448 0.0
C453 C 0.54774 0.58043 0.03968 0.0
C454 C 0.54165 0.52898 0.04154 0.0
C455 C 0.48422 0.43155 0.04639 0.0
C456 C 0.43299 0.38571 0.04906 0.0
C457 C 0.49057 0.48326 0.0442 0.0
C458 C 0.38798 0.39216 0.04927 0.0
C459 C 0.394 0.44358 0.04722 0.0
H460 H 0.97376 0.53758 0.34565 0.0
H461 H 0.96731 0.5206 0.42553 0.0
H462 H 0.02017 0.47631 0.42333 0.0
H463 H 0.06764 0.44177 0.39903 0.0
H464 H 0.07598 0.45891 0.31921 0.0
H465 H 0.02253 0.50317 0.32111 0.0
C466 C 0.98429 0.52456 0.36257 0.0
C467 C 0.96656 0.53253 0.38572 0.0
C468 C 0.01456 0.4986 0.3612 0.0
C469 C 0.98031 0.51504 0.40746 0.0
C470 C 0.01046 0.48952 0.40624 0.0
C471 C 0.05749 0.45475 0.38198 0.0
C472 C 0.0756 0.4467 0.359 0.0
C473 C 0.02748 0.48077 0.38323 0.0
C474 C 0.06242 0.46438 0.33715 0.0
C475 C 0.03201 0.48989 0.33823 0.0
H476 H 0.60431 0.00326 0.73946 0.0
H477 H 0.60275 0.08403 0.67202 0.0
H478 H 0.50522 0.02794 0.67011 0.0
H479 H 0.41999 0.95848 0.68875 0.0
H480 H 0.42297 0.88155 0.75733 0.0
H481 H 0.52019 0.93383 0.75767 0.0
C482 C 0.58276 0.00814 0.72415 0.0
C483 C 0.6107 0.04753 0.70586 0.0
C484 C 0.52679 0.97685 0.72352 0.0
C485 C 0.58208 0.05385 0.68633 0.0
C486 C 0.52633 0.02195 0.68527 0.0
C487 C 0.44196 0.95316 0.70373 0.0
C488 C 0.41414 0.91629 0.72301 0.0
C489 C 0.49817 0.98381 0.70397 0.0
C490 C 0.44323 0.90987 0.74231 0.0
C491 C 0.49894 0.93962 0.74251 0.0
H492 H 0.58641 0.48631 0.64739 0.0
H493 H 0.6335 0.63669 0.60934 0.0
H494 H 0.53965 0.61124 0.60505 0.0
H495 H 0.44444 0.54482 0.61056 0.0
H496 H 0.39731 0.39346 0.64768 0.0
H497 H 0.49125 0.42083 0.65377 0.0
C498 C 0.57628 0.51384 0.63836 0.0
C499 C 0.617 0.56337 0.62868 0.0
C500 C 0.52226 0.49857 0.63559 0.0
C501 C 0.603 0.59833 0.61694 0.0
C502 C 0.54933 0.58373 0.61441 0.0
C503 C 0.45462 0.51777 0.62002 0.0
C504 C 0.41384 0.46704 0.62856 0.0
C505 C 0.50865 0.53366 0.62338 0.0
C506 C 0.42786 0.43263 0.64084 0.0
C507 C 0.48157 0.44829 0.64437 0.0
H508 H 0.06277 0.57611 0.98508 0.0
H509 H 0.96245 0.6241 0.94656 0.0
H510 H 0.89395 0.52937 0.94109 0.0
H511 H 0.86533 0.43337 0.94461 0.0
H512 H 0.966 0.3848 0.98231 0.0
H513 H 0.03166 0.47954 0.99073 0.0
C514 C 0.02564 0.56593 0.97578 0.0
C515 C 0.01793 0.60718 0.96611 0.0
C516 C 0.98676 0.51133 0.9723 0.0
C517 C 0.96956 0.59318 0.95409 0.0
C518 C 0.93041 0.539 0.95087 0.0
C519 C 0.90154 0.4434 0.95474 0.0
C520 C 0.91099 0.40209 0.96259 0.0
C521 C 0.93911 0.49781 0.95943 0.0
C522 C 0.95787 0.41584 0.97594 0.0
C523 C 0.99543 0.47 0.98076 0.0
H524 H 0.53905 0.91738 0.30314 0.0
H525 H 0.67316 0.02839 0.25777 0.0
H526 H 0.64031 0.092 0.25791 0.0
H527 H 0.57199 0.11439 0.26951 0.0
H528 H 0.43667 0.00263 0.31404 0.0
H529 H 0.47162 0.94072 0.31553 0.0
C530 C 0.56144 0.95569 0.29345 0.0
C531 C 0.60856 0.96808 0.28044 0.0
C532 C 0.54189 0.99165 0.29328 0.0
C533 C 0.63681 0.0178 0.2679 0.0
C534 C 0.61797 0.05413 0.26792 0.0
C535 C 0.55006 0.07653 0.2796 0.0
C536 C 0.50161 0.06306 0.29156 0.0
C537 C 0.57025 0.04116 0.28029 0.0
C538 C 0.47392 0.0139 0.30458 0.0
C539 C 0.49393 0.97853 0.30547 0.0
loop_
_geom_bond_atom_site_label_1
_geom_bond_atom_site_label_2
_geom_bond_distance
_geom_bond_site_symmetry_2
_ccdc_geom_bond_type
C0 O1 1.160 . S
C0 O7 1.185 . S
O1 C0 1.160 . S
O2 Zn3 1.899 . S
O2 C10 1.284 . S
Zn3 O2 1.899 . S
Zn3 O4 2.032 . S
Zn3 O7 2.086 . S
Zn3 O12 1.977 . S
O4 Zn3 2.032 . S
O4 C8 1.278 . S
C5 O6 1.203 . S
C5 O12 1.267 . S
O6 C5 1.203 . S
O7 C0 1.185 . S
O7 Zn3 2.086 . S
C8 O4 1.278 . S
C8 O9 1.211 . S
O9 C8 1.211 . S
C10 O2 1.284 . S
C10 O11 1.273 . S
O11 C10 1.273 . S
O12 Zn3 1.977 . S
O12 C5 1.267 . S
C13 O14 1.160 . S
C13 O20 1.185 . S
O14 C13 1.160 . S
O15 Zn16 1.899 . S
O15 C23 1.284 . S
Zn16 O15 1.899 . S
Zn16 O17 2.032 . S
Zn16 O20 2.086 . S
Zn16 O25 1.977 . S
O17 Zn16 2.032 . S
O17 C21 1.278 . S
C18 O19 1.203 . S
C18 O25 1.267 . S
O19 C18 1.203 . S
O20 C13 1.185 . S
O20 Zn16 2.086 . S
C21 O17 1.278 . S
C21 O22 1.211 . S
O22 C21 1.211 . S
C23 O15 1.284 . S
C23 O24 1.273 . S
O24 C23 1.273 . S
O25 Zn16 1.977 . S
O25 C18 1.267 . S
C26 O27 1.160 . S
C26 O33 1.185 . S
O27 C26 1.160 . S
O28 Zn29 1.899 . S
O28 C36 1.284 . S
Zn29 O28 1.899 . S
Zn29 O30 2.032 . S
Zn29 O33 2.086 . S
Zn29 O38 1.977 . S
O30 Zn29 2.032 . S
O30 C34 1.278 . S
C31 O32 1.203 . S
C31 O38 1.267 . S
O32 C31 1.203 . S
O33 C26 1.185 . S
O33 Zn29 2.086 . S
C34 O30 1.278 . S
C34 O35 1.211 . S
O35 C34 1.211 . S
C36 O28 1.284 . S
C36 O37 1.273 . S
O37 C36 1.273 . S
O38 Zn29 1.977 . S
O38 C31 1.267 . S
C39 O40 1.160 . S
C39 O46 1.185 . S
O40 C39 1.160 . S
O41 Zn42 1.899 . S
O41 C49 1.284 . S
Zn42 O41 1.899 . S
Zn42 O43 2.032 . S
Zn42 O46 2.086 . S
Zn42 O51 1.977 . S
O43 Zn42 2.032 . S
O43 C47 1.278 . S
C44 O45 1.203 . S
C44 O51 1.267 . S
O45 C44 1.203 . S
O46 C39 1.185 . S
O46 Zn42 2.086 . S
C47 O43 1.278 . S
C47 O48 1.211 . S
O48 C47 1.211 . S
C49 O41 1.284 . S
C49 O50 1.273 . S
O50 C49 1.273 . S
O51 Zn42 1.977 . S
O51 C44 1.267 . S
C52 O53 1.160 . S
C52 O59 1.185 . S
O53 C52 1.160 . S
O54 Zn55 1.899 . S
O54 C62 1.284 . S
Zn55 O54 1.899 . S
Zn55 O56 2.032 . S
Zn55 O59 2.086 . S
Zn55 O64 1.977 . S
O56 Zn55 2.032 . S
O56 C60 1.278 . S
C57 O58 1.203 . S
C57 O64 1.267 . S
O58 C57 1.203 . S
O59 C52 1.185 . S
O59 Zn55 2.086 . S
C60 O56 1.278 . S
C60 O61 1.211 . S
O61 C60 1.211 . S
C62 O54 1.284 . S
C62 O63 1.273 . S
O63 C62 1.273 . S
O64 Zn55 1.977 . S
O64 C57 1.267 . S
C65 O66 1.160 . S
C65 O72 1.185 . S
O66 C65 1.160 . S
O67 Zn68 1.899 . S
O67 C75 1.284 . S
Zn68 O67 1.899 . S
Zn68 O69 2.032 . S
Zn68 O72 2.086 . S
Zn68 O77 1.977 . S
O69 Zn68 2.032 . S
O69 C73 1.278 . S
C70 O71 1.203 . S
C70 O77 1.267 . S
O71 C70 1.203 . S
O72 C65 1.185 . S
O72 Zn68 2.086 . S
C73 O69 1.278 . S
C73 O74 1.211 . S
O74 C73 1.211 . S
C75 O67 1.284 . S
C75 O76 1.273 . S
O76 C75 1.273 . S
O77 Zn68 1.977 . S
O77 C70 1.267 . S
C78 O79 1.160 . S
C78 O85 1.185 . S
O79 C78 1.160 . S
O80 Zn81 1.899 . S
O80 C88 1.284 . S
Zn81 O80 1.899 . S
Zn81 O82 2.032 . S
Zn81 O85 2.086 . S
Zn81 O90 1.977 . S
O82 Zn81 2.032 . S
O82 C86 1.278 . S
C83 O84 1.203 . S
C83 O90 1.267 . S
O84 C83 1.203 . S
O85 C78 1.185 . S
O85 Zn81 2.086 . S
C86 O82 1.278 . S
C86 O87 1.211 . S
O87 C86 1.211 . S
C88 O80 1.284 . S
C88 O89 1.273 . S
O89 C88 1.273 . S
O90 Zn81 1.977 . S
O90 C83 1.267 . S
C91 O92 1.160 . S
C91 O98 1.185 . S
O92 C91 1.160 . S
O93 Zn94 1.899 . S
O93 C101 1.284 . S
Zn94 O93 1.899 . S
Zn94 O95 2.032 . S
Zn94 O98 2.086 . S
Zn94 O103 1.977 . S
O95 Zn94 2.032 . S
O95 C99 1.278 . S
C96 O97 1.203 . S
C96 O103 1.267 . S
O97 C96 1.203 . S
O98 C91 1.185 . S
O98 Zn94 2.086 . S
C99 O95 1.278 . S
C99 O100 1.211 . S
O100 C99 1.211 . S
C101 O93 1.284 . S
C101 O102 1.273 . S
O102 C101 1.273 . S
O103 Zn94 1.977 . S
O103 C96 1.267 . S
C104 O105 1.160 . S
C104 O111 1.185 . S
O105 C104 1.160 . S
O106 Zn107 1.899 . S
O106 C114 1.284 . S
Zn107 O106 1.899 . S
Zn107 O108 2.032 . S
Zn107 O111 2.086 . S
Zn107 O116 1.977 . S
O108 Zn107 2.032 . S
O108 C112 1.278 . S
C109 O110 1.203 . S
C109 O116 1.267 . S
O110 C109 1.203 . S
O111 C104 1.185 . S
O111 Zn107 2.086 . S
C112 O108 1.278 . S
C112 O113 1.211 . S
O113 C112 1.211 . S
C114 O106 1.284 . S
C114 O115 1.273 . S
O115 C114 1.273 . S
O116 Zn107 1.977 . S
O116 C109 1.267 . S
C117 O118 1.160 . S
C117 O124 1.185 . S
O118 C117 1.160 . S
O119 Zn120 1.899 . S
O119 C127 1.284 . S
Zn120 O119 1.899 . S
Zn120 O121 2.032 . S
Zn120 O124 2.086 . S
Zn120 O129 1.977 . S
O121 Zn120 2.032 . S
O121 C125 1.278 . S
C122 O123 1.203 . S
C122 O129 1.267 . S
O123 C122 1.203 . S
O124 C117 1.185 . S
O124 Zn120 2.086 . S
C125 O121 1.278 . S
C125 O126 1.211 . S
O126 C125 1.211 . S
C127 O119 1.284 . S
C127 O128 1.273 . S
O128 C127 1.273 . S
O129 Zn120 1.977 . S
O129 C122 1.267 . S
C130 O131 1.160 . S
C130 O137 1.185 . S
O131 C130 1.160 . S
O132 Zn133 1.899 . S
O132 C140 1.284 . S
Zn133 O132 1.899 . S
Zn133 O134 2.032 . S
Zn133 O137 2.086 . S
Zn133 O142 1.977 . S
O134 Zn133 2.032 . S
O134 C138 1.278 . S
C135 O136 1.203 . S
C135 O142 1.267 . S
O136 C135 1.203 . S
O137 C130 1.185 . S
O137 Zn133 2.086 . S
C138 O134 1.278 . S
C138 O139 1.211 . S
O139 C138 1.211 . S
C140 O132 1.284 . S
C140 O141 1.273 . S
O141 C140 1.273 . S
O142 Zn133 1.977 . S
O142 C135 1.267 . S
C143 O144 1.160 . S
C143 O150 1.185 . S
O144 C143 1.160 . S
O145 Zn146 1.899 . S
O145 C153 1.284 . S
Zn146 O145 1.899 . S
Zn146 O147 2.032 . S
Zn146 O150 2.086 . S
Zn146 O155 1.977 . S
O147 Zn146 2.032 . S
O147 C151 1.278 . S
C148 O149 1.203 . S
C148 O155 1.267 . S
O149 C148 1.203 . S
O150 C143 1.185 . S
O150 Zn146 2.086 . S
C151 O147 1.278 . S
C151 O152 1.211 . S
O152 C151 1.211 . S
C153 O145 1.284 . S
C153 O154 1.273 . S
O154 C153 1.273 . S
O155 Zn146 1.977 . S
O155 C148 1.267 . S
H156 C162 0.930 . S
H157 C165 0.930 . S
H158 C166 0.930 1_545 S
H159 C167 0.930 . S
H160 C170 0.930 . S
H161 C171 0.930 1_565 S
C162 H156 0.930 . S
C162 C163 1.355 1_554 S
C162 C164 1.415 . S
C163 C162 1.355 1_556 S
C163 C165 1.419 . S
C164 C162 1.415 . S
C164 C169 1.425 1_564 S
C164 C171 1.409 1_565 S
C165 H157 0.930 . S
C165 C163 1.419 . S
C165 C166 1.362 . S
C166 H158 0.930 1_565 S
C166 C165 1.362 . S
C166 C169 1.409 1_565 S
C167 H159 0.930 . S
C167 C168 1.355 1_556 S
C167 C169 1.415 . S
C168 C167 1.355 1_554 S
C168 C170 1.419 . S
C169 C164 1.425 1_546 S
C169 C166 1.409 1_545 S
C169 C167 1.415 . S
C170 H160 0.930 . S
C170 C168 1.419 . S
C170 C171 1.362 . S
C171 H161 0.930 1_545 S
C171 C164 1.409 1_545 S
C171 C170 1.362 . S
H172 C178 0.930 . S
H173 C181 0.930 . S
H174 C182 0.930 . S
H175 C183 0.930 . S
H176 C186 0.930 . S
H177 C187 0.930 . S
C178 H172 0.930 . S
C178 C179 1.355 . S
C178 C180 1.415 . S
C179 C178 1.355 . S
C179 C181 1.419 . S
C180 C178 1.415 . S
C180 C185 1.425 . S
C180 C187 1.409 . S
C181 H173 0.930 . S
C181 C179 1.419 . S
C181 C182 1.362 . S
C182 H174 0.930 . S
C182 C181 1.362 . S
C182 C185 1.409 . S
C183 H175 0.930 . S
C183 C184 1.355 . S
C183 C185 1.415 . S
C184 C183 1.355 . S
C184 C186 1.419 . S
C185 C180 1.425 . S
C185 C182 1.409 . S
C185 C183 1.415 . S
C186 H176 0.930 . S
C186 C184 1.419 . S
C186 C187 1.362 . S
C187 H177 0.930 . S
C187 C180 1.409 . S
C187 C186 1.362 . S
H188 C194 0.930 . S
H189 C197 0.930 . S
H190 C198 0.930 . S
H191 C199 0.930 . S
H192 C202 0.930 . S
H193 C203 0.930 . S
C194 H188 0.930 . S
C194 C195 1.355 . S
C194 C196 1.425 . S
C195 C194 1.355 . S
C195 C197 1.419 . S
C196 C194 1.425 . S
C196 C201 1.427 1_655 S
C196 C203 1.396 1_655 S
C197 H189 0.930 . S
C197 C195 1.419 . S
C197 C198 1.362 . S
C198 H190 0.930 . S
C198 C197 1.362 . S
C198 C201 1.409 1_655 S
C199 H191 0.930 . S
C199 C200 1.355 . S
C199 C201 1.415 . S
C200 C199 1.355 . S
C200 C202 1.419 . S
C201 C196 1.427 1_455 S
C201 C198 1.409 1_455 S
C201 C199 1.415 . S
C202 H192 0.930 . S
C202 C200 1.419 . S
C202 C203 1.362 . S
C203 H193 0.930 . S
C203 C196 1.396 1_455 S
C203 C202 1.362 . S
H204 C210 0.930 . S
H205 C213 0.930 . S
H206 C214 0.930 . S
H207 C215 0.930 . S
H208 C218 0.930 . S
H209 C219 0.930 . S
C210 H204 0.930 . S
C210 C211 1.355 . S
C210 C212 1.415 . S
C211 C210 1.355 . S
C211 C213 1.419 . S
C212 C210 1.415 . S
C212 C217 1.425 1_564 S
C212 C219 1.409 1_565 S
C213 H205 0.930 . S
C213 C211 1.419 . S
C213 C214 1.362 1_554 S
C214 H206 0.930 . S
C214 C213 1.362 1_556 S
C214 C217 1.409 1_565 S
C215 H207 0.930 . S
C215 C216 1.355 . S
C215 C217 1.415 . S
C216 C215 1.355 . S
C216 C218 1.419 . S
C217 C212 1.425 1_546 S
C217 C214 1.409 1_545 S
C217 C215 1.415 . S
C218 H208 0.930 . S
C218 C216 1.419 . S
C218 C219 1.362 1_556 S
C219 H209 0.930 . S
C219 C212 1.409 1_545 S
C219 C218 1.362 1_554 S
H220 C226 0.930 . S
H221 C229 0.930 . S
H222 C230 0.930 . S
H223 C231 0.930 . S
H224 C234 0.930 . S
H225 C235 0.930 . S
C226 H220 0.930 . S
C226 C227 1.355 . S
C226 C228 1.415 . S
C227 C226 1.355 . S
C227 C229 1.419 . S
C228 C226 1.415 . S
C228 C233 1.425 . S
C228 C235 1.409 . S
C229 H221 0.930 . S
C229 C227 1.419 . S
C229 C230 1.362 . S
C230 H222 0.930 . S
C230 C229 1.362 . S
C230 C233 1.409 . S
C231 H223 0.930 . S
C231 C232 1.355 . S
C231 C233 1.415 . S
C232 C231 1.355 . S
C232 C234 1.419 . S
C233 C228 1.425 . S
C233 C230 1.409 . S
C233 C231 1.415 . S
C234 H224 0.930 . S
C234 C232 1.419 . S
C234 C235 1.362 . S
C235 H225 0.930 . S
C235 C228 1.409 . S
C235 C234 1.362 . S
H236 C242 0.930 . S
H237 C245 0.930 . S
H238 C246 0.930 . S
H239 C247 0.930 . S
H240 C250 0.930 . S
H241 C251 0.930 . S
C242 H236 0.930 . S
C242 C243 1.355 . S
C242 C244 1.415 . S
C243 C242 1.355 . S
C243 C245 1.419 . S
C244 C242 1.415 . S
C244 C249 1.427 1_655 S
C244 C251 1.409 1_655 S
C245 H237 0.930 . S
C245 C243 1.419 . S
C245 C246 1.362 . S
C246 H238 0.930 . S
C246 C245 1.362 . S
C246 C249 1.399 1_655 S
C247 H239 0.930 . S
C247 C248 1.355 . S
C247 C249 1.423 . S
C248 C247 1.355 . S
C248 C250 1.419 . S
C249 C244 1.427 1_455 S
C249 C246 1.399 1_455 S
C249 C247 1.423 . S
C250 H240 0.930 . S
C250 C248 1.419 . S
C250 C251 1.362 . S
C251 H241 0.930 . S
C251 C244 1.409 1_455 S
C251 C250 1.362 . S
H252 C258 0.930 . S
H253 C261 0.930 . S
H254 C262 0.930 . S
H255 C263 0.930 . S
H256 C266 0.930 . S
H257 C267 0.930 . S
C258 H252 0.930 . S
C258 C259 1.355 . S
C258 C260 1.415 . S
C259 C258 1.355 . S
C259 C261 1.419 1_556 S
C260 C258 1.415 . S
C260 C265 1.425 1_556 S
C260 C267 1.409 . S
C261 H253 0.930 . S
C261 C259 1.419 1_554 S
C261 C262 1.362 . S
C262 H254 0.930 . S
C262 C261 1.362 . S
C262 C265 1.409 . S
C263 H255 0.930 . S
C263 C264 1.355 . S
C263 C265 1.415 . S
C264 C263 1.355 . S
C264 C266 1.419 1_554 S
C265 C260 1.425 1_554 S
C265 C262 1.409 . S
C265 C263 1.415 . S
C266 H256 0.930 . S
C266 C264 1.419 1_556 S
C266 C267 1.362 . S
C267 H257 0.930 . S
C267 C260 1.409 . S
C267 C266 1.362 . S
H268 C274 0.930 . S
H269 C277 0.930 . S
H270 C278 0.930 . S
H271 C279 0.930 . S
H272 C282 0.930 . S
H273 C283 0.930 . S
C274 H268 0.930 . S
C274 C275 1.355 . S
C274 C276 1.415 . S
C275 C274 1.355 . S
C275 C277 1.419 . S
C276 C274 1.415 . S
C276 C281 1.425 . S
C276 C283 1.409 . S
C277 H269 0.930 . S
C277 C275 1.419 . S
C277 C278 1.362 . S
C278 H270 0.930 . S
C278 C277 1.362 . S
C278 C281 1.409 . S
C279 H271 0.930 . S
C279 C280 1.355 . S
C279 C281 1.415 . S
C280 C279 1.355 . S
C280 C282 1.419 . S
C281 C276 1.425 . S
C281 C278 1.409 . S
C281 C279 1.415 . S
C282 H272 0.930 . S
C282 C280 1.419 . S
C282 C283 1.362 . S
C283 H273 0.930 . S
C283 C276 1.409 . S
C283 C282 1.362 . S
H284 C290 0.930 . S
H285 C293 0.930 . S
H286 C294 0.930 . S
H287 C295 0.930 . S
H288 C298 0.930 . S
H289 C299 0.930 . S
C290 H284 0.930 . S
C290 C291 1.355 . S
C290 C292 1.415 . S
C291 C290 1.355 . S
C291 C293 1.419 . S
C292 C290 1.415 . S
C292 C297 1.425 . S
C292 C299 1.409 . S
C293 H285 0.930 . S
C293 C291 1.419 . S
C293 C294 1.362 . S
C294 H286 0.930 . S
C294 C293 1.362 . S
C294 C297 1.409 . S
C295 H287 0.930 . S
C295 C296 1.355 . S
C295 C297 1.415 . S
C296 C295 1.355 . S
C296 C298 1.419 . S
C297 C292 1.425 . S
C297 C294 1.409 . S
C297 C295 1.415 . S
C298 H288 0.930 . S
C298 C296 1.419 . S
C298 C299 1.362 . S
C299 H289 0.930 . S
C299 C292 1.409 . S
C299 C298 1.362 . S
H300 C306 0.930 . S
H301 C309 0.930 . S
H302 C310 0.930 . S
H303 C311 0.930 . S
H304 C314 0.930 . S
H305 C315 0.930 . S
C306 H300 0.930 . S
C306 C307 1.355 . S
C306 C308 1.415 . S
C307 C306 1.355 . S
C307 C309 1.419 1_556 S
C308 C306 1.415 . S
C308 C313 1.425 1_556 S
C308 C315 1.409 . S
C309 H301 0.930 . S
C309 C307 1.419 1_554 S
C309 C310 1.362 . S
C310 H302 0.930 . S
C310 C309 1.362 . S
C310 C313 1.409 . S
C311 H303 0.930 . S
C311 C312 1.355 . S
C311 C313 1.415 . S
C312 C311 1.355 . S
C312 C314 1.419 1_554 S
C313 C308 1.425 1_554 S
C313 C310 1.409 . S
C313 C311 1.415 . S
C314 H304 0.930 . S
C314 C312 1.419 1_556 S
C314 C315 1.362 . S
C315 H305 0.930 . S
C315 C308 1.409 . S
C315 C314 1.362 . S
H316 C322 0.930 . S
H317 C325 0.930 . S
H318 C326 0.930 . S
H319 C327 0.930 . S
H320 C330 0.930 . S
H321 C331 0.930 . S
C322 H316 0.930 . S
C322 C323 1.355 . S
C322 C324 1.415 . S
C323 C322 1.355 . S
C323 C325 1.419 . S
C324 C322 1.415 . S
C324 C329 1.425 . S
C324 C331 1.409 . S
C325 H317 0.930 . S
C325 C323 1.419 . S
C325 C326 1.362 . S
C326 H318 0.930 . S
C326 C325 1.362 . S
C326 C329 1.409 . S
C327 H319 0.930 . S
C327 C328 1.355 . S
C327 C329 1.415 . S
C328 C327 1.355 . S
C328 C330 1.419 . S
C329 C324 1.425 . S
C329 C326 1.409 . S
C329 C327 1.415 . S
C330 H320 0.930 . S
C330 C328 1.419 . S
C330 C331 1.362 . S
C331 H321 0.930 . S
C331 C324 1.409 . S
C331 C330 1.362 . S
H332 C338 0.930 . S
H333 C341 0.930 . S
H334 C342 0.930 . S
H335 C343 0.930 . S
H336 C346 0.930 . S
H337 C347 0.930 . S
C338 H332 0.930 . S
C338 C339 1.355 . S
C338 C340 1.415 . S
C339 C338 1.355 . S
C339 C341 1.419 . S
C340 C338 1.415 . S
C340 C345 1.425 . S
C340 C347 1.409 . S
C341 H333 0.930 . S
C341 C339 1.419 . S
C341 C342 1.362 . S
C342 H334 0.930 . S
C342 C341 1.362 . S
C342 C345 1.409 . S
C343 H335 0.930 . S
C343 C344 1.355 . S
C343 C345 1.415 . S
C344 C343 1.355 . S
C344 C346 1.419 . S
C345 C340 1.425 . S
C345 C342 1.409 . S
C345 C343 1.415 . S
C346 H336 0.930 . S
C346 C344 1.419 . S
C346 C347 1.362 . S
C347 H337 0.930 . S
C347 C340 1.409 . S
C347 C346 1.362 . S
H348 C354 0.930 . S
H349 C357 0.930 . S
H350 C358 0.930 . S
H351 C359 0.930 . S
H352 C362 0.930 . S
H353 C363 0.930 . S
C354 H348 0.930 . S
C354 C355 1.355 . S
C354 C356 1.415 . S
C355 C354 1.355 . S
C355 C357 1.419 . S
C356 C354 1.415 . S
C356 C361 1.425 . S
C356 C363 1.409 . S
C357 H349 0.930 . S
C357 C355 1.419 . S
C357 C358 1.362 . S
C358 H350 0.930 . S
C358 C357 1.362 . S
C358 C361 1.409 . S
C359 H351 0.930 . S
C359 C360 1.355 . S
C359 C361 1.415 . S
C360 C359 1.355 . S
C360 C362 1.419 . S
C361 C356 1.425 . S
C361 C358 1.409 . S
C361 C359 1.415 . S
C362 H352 0.930 . S
C362 C360 1.419 . S
C362 C363 1.362 . S
C363 H353 0.930 . S
C363 C356 1.409 . S
C363 C362 1.362 . S
H364 C370 0.930 . S
H365 C373 0.930 . S
H366 C374 0.930 . S
H367 C375 0.930 . S
H368 C378 0.930 . S
H369 C379 0.930 . S
C370 H364 0.930 . S
C370 C371 1.355 . S
C370 C372 1.415 . S
C371 C370 1.355 . S
C371 C373 1.419 . S
C372 C370 1.415 . S
C372 C377 1.425 . S
C372 C379 1.409 . S
C373 H365 0.930 . S
C373 C371 1.419 . S
C373 C374 1.362 . S
C374 H366 0.930 . S
C374 C373 1.362 . S
C374 C377 1.409 . S
C375 H367 0.930 . S
C375 C376 1.355 . S
C375 C377 1.415 . S
C376 C375 1.355 . S
C376 C378 1.419 . S
C377 C372 1.425 . S
C377 C374 1.409 . S
C377 C375 1.415 . S
C378 H368 0.930 . S
C378 C376 1.419 . S
C378 C379 1.362 . S
C379 H369 0.930 . S
C379 C372 1.409 . S
C379 C378 1.362 . S
H380 C386 0.930 . S
H381 C389 0.930 . S
H382 C390 0.930 . S
H383 C391 0.930 . S
H384 C394 0.930 . S
H385 C395 0.930 . S
C386 H380 0.930 . S
C386 C387 1.355 . S
C386 C388 1.415 . S
C387 C386 1.355 . S
C387 C389 1.419 . S
C388 C386 1.415 . S
C388 C393 1.425 . S
C388 C395 1.409 . S
C389 H381 0.930 . S
C389 C387 1.419 . S
C389 C390 1.362 . S
C390 H382 0.930 . S
C390 C389 1.362 . S
C390 C393 1.409 . S
C391 H383 0.930 . S
C391 C392 1.355 . S
C391 C393 1.415 . S
C392 C391 1.355 . S
C392 C394 1.419 . S
C393 C388 1.425 . S
C393 C390 1.409 . S
C393 C391 1.415 . S
C394 H384 0.930 . S
C394 C392 1.419 . S
C394 C395 1.362 . S
C395 H385 0.930 . S
C395 C388 1.409 . S
C395 C394 1.362 . S
H396 C402 0.930 . S
H397 C405 0.930 . S
H398 C406 0.930 . S
H399 C407 0.930 . S
H400 C410 0.930 . S
H401 C411 0.930 . S
C402 H396 0.930 . S
C402 C403 1.355 . S
C402 C404 1.415 . S
C403 C402 1.355 . S
C403 C405 1.419 . S
C404 C402 1.415 . S
C404 C409 1.425 . S
C404 C411 1.409 . S
C405 H397 0.930 . S
C405 C403 1.419 . S
C405 C406 1.362 . S
C406 H398 0.930 . S
C406 C405 1.362 . S
C406 C409 1.409 . S
C407 H399 0.930 . S
C407 C408 1.355 . S
C407 C409 1.415 . S
C408 C407 1.355 . S
C408 C410 1.419 . S
C409 C404 1.425 . S
C409 C406 1.409 . S
C409 C407 1.415 . S
C410 H400 0.930 . S
C410 C408 1.419 . S
C410 C411 1.362 . S
C411 H401 0.930 . S
C411 C404 1.409 . S
C411 C410 1.362 . S
H412 C418 0.930 . S
H413 C421 0.930 . S
H414 C422 0.930 . S
H415 C423 0.930 . S
H416 C426 0.930 . S
H417 C427 0.930 . S
C418 H412 0.930 . S
C418 C419 1.355 . S
C418 C420 1.415 . S
C419 C418 1.355 . S
C419 C421 1.419 . S
C420 C418 1.415 . S
C420 C425 1.425 . S
C420 C427 1.409 . S
C421 H413 0.930 . S
C421 C419 1.419 . S
C421 C422 1.362 . S
C422 H414 0.930 . S
C422 C421 1.362 . S
C422 C425 1.409 . S
C423 H415 0.930 . S
C423 C424 1.355 . S
C423 C425 1.415 . S
C424 C423 1.355 . S
C424 C426 1.419 . S
C425 C420 1.425 . S
C425 C422 1.409 . S
C425 C423 1.415 . S
C426 H416 0.930 . S
C426 C424 1.419 . S
C426 C427 1.362 . S
C427 H417 0.930 . S
C427 C420 1.409 . S
C427 C426 1.362 . S
H428 C434 0.930 . S
H429 C437 0.930 . S
H430 C438 0.930 . S
H431 C439 0.930 . S
H432 C442 0.930 . S
H433 C443 0.930 . S
C434 H428 0.930 . S
C434 C435 1.355 . S
C434 C436 1.415 . S
C435 C434 1.355 . S
C435 C437 1.419 . S
C436 C434 1.415 . S
C436 C441 1.425 . S
C436 C443 1.409 . S
C437 H429 0.930 . S
C437 C435 1.419 . S
C437 C438 1.362 . S
C438 H430 0.930 . S
C438 C437 1.362 . S
C438 C441 1.409 . S
C439 H431 0.930 . S
C439 C440 1.355 . S
C439 C441 1.415 . S
C440 C439 1.355 . S
C440 C442 1.419 . S
C441 C436 1.425 . S
C441 C438 1.409 . S
C441 C439 1.415 . S
C442 H432 0.930 . S
C442 C440 1.419 . S
C442 C443 1.362 . S
C443 H433 0.930 . S
C443 C436 1.409 . S
C443 C442 1.362 . S
H444 C450 0.930 . S
H445 C453 0.930 . S
H446 C454 0.930 . S
H447 C455 0.930 . S
H448 C458 0.930 . S
H449 C459 0.930 . S
C450 H444 0.930 . S
C450 C451 1.355 . S
C450 C452 1.415 . S
C451 C450 1.355 . S
C451 C453 1.419 . S
C452 C450 1.415 . S
C452 C457 1.425 . S
C452 C459 1.409 . S
C453 H445 0.930 . S
C453 C451 1.419 . S
C453 C454 1.362 . S
C454 H446 0.930 . S
C454 C453 1.362 . S
C454 C457 1.409 . S
C455 H447 0.930 . S
C455 C456 1.355 . S
C455 C457 1.415 . S
C456 C455 1.355 . S
C456 C458 1.419 . S
C457 C452 1.425 . S
C457 C454 1.409 . S
C457 C455 1.415 . S
C458 H448 0.930 . S
C458 C456 1.419 . S
C458 C459 1.362 . S
C459 H449 0.930 . S
C459 C452 1.409 . S
C459 C458 1.362 . S
H460 C466 0.930 . S
H461 C469 0.930 . S
H462 C470 0.930 . S
H463 C471 0.930 . S
H464 C474 0.930 . S
H465 C475 0.930 . S
C466 H460 0.930 . S
C466 C467 1.355 1_455 S
C466 C468 1.415 . S
C467 C466 1.355 1_655 S
C467 C469 1.419 . S
C468 C466 1.415 . S
C468 C473 1.425 1_455 S
C468 C475 1.409 . S
C469 H461 0.930 . S
C469 C467 1.419 . S
C469 C470 1.362 . S
C470 H462 0.930 . S
C470 C469 1.362 . S
C470 C473 1.409 . S
C471 H463 0.930 . S
C471 C472 1.355 1_655 S
C471 C473 1.415 . S
C472 C471 1.355 1_455 S
C472 C474 1.419 . S
C473 C468 1.425 1_655 S
C473 C470 1.409 . S
C473 C471 1.415 . S
C474 H464 0.930 . S
C474 C472 1.419 . S
C474 C475 1.362 . S
C475 H465 0.930 . S
C475 C468 1.409 . S
C475 C474 1.362 . S
H476 C482 0.930 . S
H477 C485 0.930 . S
H478 C486 0.930 . S
H479 C487 0.930 . S
H480 C490 0.930 . S
H481 C491 0.930 . S
C482 H476 0.930 . S
C482 C483 1.355 1_565 S
C482 C484 1.415 . S
C483 C482 1.355 1_545 S
C483 C485 1.419 . S
C484 C482 1.415 . S
C484 C489 1.425 1_565 S
C484 C491 1.409 . S
C485 H477 0.930 . S
C485 C483 1.419 . S
C485 C486 1.362 . S
C486 H478 0.930 . S
C486 C485 1.362 . S
C486 C489 1.409 . S
C487 H479 0.930 . S
C487 C488 1.355 1_545 S
C487 C489 1.415 . S
C488 C487 1.355 1_565 S
C488 C490 1.419 . S
C489 C484 1.425 1_545 S
C489 C486 1.409 . S
C489 C487 1.415 . S
C490 H480 0.930 . S
C490 C488 1.419 . S
C490 C491 1.362 . S
C491 H481 0.930 . S
C491 C484 1.409 . S
C491 C490 1.362 . S
H492 C498 0.930 . S
H493 C501 0.930 . S
H494 C502 0.930 . S
H495 C503 0.930 . S
H496 C506 0.930 . S
H497 C507 0.930 . S
C498 H492 0.930 . S
C498 C499 1.355 . S
C498 C500 1.415 . S
C499 C498 1.355 . S
C499 C501 1.419 . S
C500 C498 1.415 . S
C500 C505 1.425 . S
C500 C507 1.409 . S
C501 H493 0.930 . S
C501 C499 1.419 . S
C501 C502 1.362 . S
C502 H494 0.930 . S
C502 C501 1.362 . S
C502 C505 1.409 . S
C503 H495 0.930 . S
C503 C504 1.355 . S
C503 C505 1.415 . S
C504 C503 1.355 . S
C504 C506 1.419 . S
C505 C500 1.425 . S
C505 C502 1.409 . S
C505 C503 1.415 . S
C506 H496 0.930 . S
C506 C504 1.419 . S
C506 C507 1.362 . S
C507 H497 0.930 . S
C507 C500 1.409 . S
C507 C506 1.362 . S
H508 C514 0.930 . S
H509 C517 0.930 . S
H510 C518 0.930 . S
H511 C519 0.930 . S
H512 C522 0.930 1_554 S
H513 C523 0.930 1_554 S
C514 H508 0.930 . S
C514 C515 1.355 . S
C514 C516 1.415 . S
C515 C514 1.355 . S
C515 C517 1.419 . S
C516 C514 1.415 . S
C516 C521 1.425 1_455 S
C516 C523 1.409 1_455 S
C517 H509 0.930 . S
C517 C515 1.419 . S
C517 C518 1.362 . S
C518 H510 0.930 . S
C518 C517 1.362 . S
C518 C521 1.409 1_455 S
C519 H511 0.930 . S
C519 C520 1.355 . S
C519 C521 1.415 . S
C520 C519 1.355 . S
C520 C522 1.419 . S
C521 C516 1.425 1_655 S
C521 C518 1.409 1_655 S
C521 C519 1.415 . S
C522 H512 0.930 1_556 S
C522 C520 1.419 . S
C522 C523 1.362 . S
C523 H513 0.930 1_556 S
C523 C516 1.409 1_655 S
C523 C522 1.362 . S
H524 C530 0.930 . S
H525 C533 0.930 . S
H526 C534 0.930 . S
H527 C535 0.930 . S
H528 C538 0.930 . S
H529 C539 0.930 . S
C530 H524 0.930 . S
C530 C531 1.355 . S
C530 C532 1.415 . S
C531 C530 1.355 . S
C531 C533 1.419 1_565 S
C532 C530 1.415 . S
C532 C537 1.425 1_565 S
C532 C539 1.409 . S
C533 H525 0.930 . S
C533 C531 1.419 1_545 S
C533 C534 1.362 . S
C534 H526 0.930 . S
C534 C533 1.362 . S
C534 C537 1.409 . S
C535 H527 0.930 . S
C535 C536 1.355 . S
C535 C537 1.415 . S
C536 C535 1.355 . S
C536 C538 1.419 1_545 S
C537 C532 1.425 1_545 S
C537 C534 1.409 . S
C537 C535 1.415 . S
C538 H528 0.930 . S
C538 C536 1.419 1_565 S
C538 C539 1.362 . S
C539 H529 0.930 . S
C539 C532 1.409 . S
C539 C538 1.362 . S
C163 C96 1.149 . S
C168 C5 1.195 . S
C179 C18 1.372 . S
C184 C104 1.337 . S
C195 C26 1.344 . S
C200 C122 1.369 . S
C211 C44 1.128 . S
C216 C135 1.243 . S
C227 C143 1.371 . S
C232 C57 1.343 . S
C243 C83 1.343 . S
C248 C65 1.372 . S
C259 C140 1.178 . S
C264 C10 1.171 . S
C275 C23 1.228 . S
C280 C151 1.191 . S
C291 C34 1.202 . S
C296 C88 1.201 . S
C307 C101 1.177 . S
C312 C49 1.175 . S
C323 C112 1.187 . S
C328 C62 1.218 . S
C339 C127 1.217 . S
C344 C73 1.187 . S
C355 C8 1.537 . S
C360 C114 1.551 . S
C371 C21 1.554 . S
C376 C125 1.528 . S
C387 C138 1.540 . S
C392 C36 1.539 . S
C403 C47 1.560 . S
C408 C153 1.572 . S
C419 C86 1.520 . S
C424 C60 1.526 . S
C435 C99 1.531 . S
C440 C75 1.540 . S
C451 C39 1.368 . S
C456 C0 1.365 . S
C467 C52 1.234 . S
C472 C13 1.236 . S
C483 C31 1.397 . S
C488 C70 1.354 . S
C499 C78 1.288 . S
C504 C117 1.281 . S
C515 C91 1.290 . S
C520 C130 1.283 . S
C531 C148 1.417 . S
C536 C109 1.466 . S
