# Generated by pormake.
# Topology zff, (5)-cn, num edge types: 1
# Building blocks:
#     Node 0, Type 0, BuildingBlock: XOMCOT_clean_sbu_0, # of connection points: 5
#     Node 1, Type 0, BuildingBlock: XOMCOT_clean_sbu_0, # of connection points: 5
#     Node 2, Type 0, BuildingBlock: XOMCOT_clean_sbu_0, # of connection points: 5
#     Node 3, Type 0, BuildingBlock: XOMCOT_clean_sbu_0, # of connection points: 5
#     Node 4, Type 0, BuildingBlock: XOMCOT_clean_sbu_0, # of connection points: 5
#     Node 5, Type 0, BuildingBlock: XOMCOT_clean_sbu_0, # of connection points: 5
#     Node 6, Type 0, BuildingBlock: XOMCOT_clean_sbu_0, # of connection points: 5
#     Node 7, Type 0, BuildingBlock: XOMCOT_clean_sbu_0, # of connection points: 5
#     Node 8, Type 0, BuildingBlock: XOMCOT_clean_sbu_0, # of connection points: 5
#     Node 9, Type 0, BuildingBlock: XOMCOT_clean_sbu_0, # of connection points: 5
#     Node 10, Type 0, BuildingBlock: XOMCOT_clean_sbu_0, # of connection points: 5
#     Node 11, Type 0, BuildingBlock: XOMCOT_clean_sbu_0, # of connection points: 5
#     Node 12, Type 0, BuildingBlock: XOMCOT_clean_sbu_0, # of connection points: 5
#     Node 13, Type 0, BuildingBlock: XOMCOT_clean_sbu_0, # of connection points: 5
#     Node 14, Type 0, BuildingBlock: XOMCOT_clean_sbu_0, # of connection points: 5
#     Node 15, Type 0, BuildingBlock: XOMCOT_clean_sbu_0, # of connection points: 5
#     Edge 16, Type (0, 0), BuildingBlock: CIFDUS_clean_linker_0, # of connection points: 2
#     Edge 17, Type (0, 0), BuildingBlock: CIFDUS_clean_linker_0, # of connection points: 2
#     Edge 18, Type (0, 0), BuildingBlock: CIFDUS_clean_linker_0, # of connection points: 2
#     Edge 19, Type (0, 0), BuildingBlock: CIFDUS_clean_linker_0, # of connection points: 2
#     Edge 20, Type (0, 0), BuildingBlock: CIFDUS_clean_linker_0, # of connection points: 2
#     Edge 21, Type (0, 0), BuildingBlock: CIFDUS_clean_linker_0, # of connection points: 2
#     Edge 22, Type (0, 0), BuildingBlock: CIFDUS_clean_linker_0, # of connection points: 2
#     Edge 23, Type (0, 0), BuildingBlock: CIFDUS_clean_linker_0, # of connection points: 2
#     Edge 24, Type (0, 0), BuildingBlock: CIFDUS_clean_linker_0, # of connection points: 2
#     Edge 25, Type (0, 0), BuildingBlock: CIFDUS_clean_linker_0, # of connection points: 2
#     Edge 26, Type (0, 0), BuildingBlock: CIFDUS_clean_linker_0, # of connection points: 2
#     Edge 27, Type (0, 0), BuildingBlock: CIFDUS_clean_linker_0, # of connection points: 2
#     Edge 28, Type (0, 0), BuildingBlock: CIFDUS_clean_linker_0, # of connection points: 2
#     Edge 29, Type (0, 0), BuildingBlock: CIFDUS_clean_linker_0, # of connection points: 2
#     Edge 30, Type (0, 0), BuildingBlock: CIFDUS_clean_linker_0, # of connection points: 2
#     Edge 31, Type (0, 0), BuildingBlock: CIFDUS_clean_linker_0, # of connection points: 2
#     Edge 32, Type (0, 0), BuildingBlock: CIFDUS_clean_linker_0, # of connection points: 2
#     Edge 33, Type (0, 0), BuildingBlock: CIFDUS_clean_linker_0, # of connection points: 2
#     Edge 34, Type (0, 0), BuildingBlock: CIFDUS_clean_linker_0, # of connection points: 2
#     Edge 35, Type (0, 0), BuildingBlock: CIFDUS_clean_linker_0, # of connection points: 2
#     Edge 36, Type (0, 0), BuildingBlock: CIFDUS_clean_linker_0, # of connection points: 2
#     Edge 37, Type (0, 0), BuildingBlock: CIFDUS_clean_linker_0, # of connection points: 2
#     Edge 38, Type (0, 0), BuildingBlock: CIFDUS_clean_linker_0, # of connection points: 2
#     Edge 39, Type (0, 0), BuildingBlock: CIFDUS_clean_linker_0, # of connection points: 2
#     Edge 40, Type (0, 0), BuildingBlock: CIFDUS_clean_linker_0, # of connection points: 2
#     Edge 41, Type (0, 0), BuildingBlock: CIFDUS_clean_linker_0, # of connection points: 2
#     Edge 42, Type (0, 0), BuildingBlock: CIFDUS_clean_linker_0, # of connection points: 2
#     Edge 43, Type (0, 0), BuildingBlock: CIFDUS_clean_linker_0, # of connection points: 2
#     Edge 44, Type (0, 0), BuildingBlock: CIFDUS_clean_linker_0, # of connection points: 2
#     Edge 45, Type (0, 0), BuildingBlock: CIFDUS_clean_linker_0, # of connection points: 2
#     Edge 46, Type (0, 0), BuildingBlock: CIFDUS_clean_linker_0, # of connection points: 2
#     Edge 47, Type (0, 0), BuildingBlock: CIFDUS_clean_linker_0, # of connection points: 2
#     Edge 48, Type (0, 0), BuildingBlock: CIFDUS_clean_linker_0, # of connection points: 2
#     Edge 49, Type (0, 0), BuildingBlock: CIFDUS_clean_linker_0, # of connection points: 2
#     Edge 50, Type (0, 0), BuildingBlock: CIFDUS_clean_linker_0, # of connection points: 2
#     Edge 51, Type (0, 0), BuildingBlock: CIFDUS_clean_linker_0, # of connection points: 2
#     Edge 52, Type (0, 0), BuildingBlock: CIFDUS_clean_linker_0, # of connection points: 2
#     Edge 53, Type (0, 0), BuildingBlock: CIFDUS_clean_linker_0, # of connection points: 2
#     Edge 54, Type (0, 0), BuildingBlock: CIFDUS_clean_linker_0, # of connection points: 2
#     Edge 55, Type (0, 0), BuildingBlock: CIFDUS_clean_linker_0, # of connection points: 2
# Relax obj value: 0.153
# Max RMSD: 0.223
# Mean RMSD: 0.223
data_MOF--net-zff--node1-XOMCOT_clean_sbu_0--edge1-CIFDUS_clean_linker_0
_symmetry_space_group_name_H-M    P1
_symmetry_Int_Tables_number       1
_symmetry_cell_setting            triclinic
loop_
_symmetry_equiv_pos_as_xyz
'x, y, z'
_cell_length_a     33.650032
_cell_length_b     33.539793
_cell_length_c     59.529346
_cell_angle_alpha  89.678784
_cell_angle_beta   90.521727
_cell_angle_gamma 89.736881
loop_
_atom_site_label
_atom_site_type_symbol
_atom_site_fract_x
_atom_site_fract_y
_atom_site_fract_z
_atom_type_partial_charge
Co0 Co 0.03344 0.31451 0.38709 0.0
C1 C 0.05019 0.33358 0.33927 0.0
C2 C 0.0012 0.29339 0.34194 0.0
C3 C 0.00755 0.30146 0.31954 0.0
N4 N 0.02807 0.31342 0.35441 0.0
N5 N 0.03846 0.32675 0.31782 0.0
H6 H 0.07472 0.35263 0.34386 0.0
H7 H 0.97808 0.27449 0.3484 0.0
C8 C 0.95482 0.27864 0.39393 0.0
O9 O 0.94208 0.31474 0.39842 0.0
N10 N 0.04023 0.31622 0.41956 0.0
C11 C 0.07552 0.3223 0.42981 0.0
C12 C 0.07058 0.32027 0.45266 0.0
C13 C 0.01411 0.31078 0.43642 0.0
N14 N 0.03195 0.31303 0.4569 0.0
C15 C 0.10692 0.27604 0.37337 0.0
C16 C 0.09485 0.20862 0.39938 0.0
C17 C 0.12813 0.2099 0.38544 0.0
C18 C 0.1345 0.24454 0.37257 0.0
C19 C 0.06808 0.24014 0.39943 0.0
N20 N 0.07368 0.27297 0.38622 0.0
H21 H 0.11227 0.30271 0.36368 0.0
H22 H 0.04287 0.23827 0.41048 0.0
H23 H 0.10324 0.32704 0.42117 0.0
H24 H 0.98287 0.30536 0.43391 0.0
O25 O 0.06536 0.36288 0.38515 0.0
O26 O -0.0001 0.36051 0.38789 0.0
O27 O -0.0087 0.27243 0.38944 0.0
C28 C 0.03158 0.38199 0.38645 0.0
H29 H 0.99004 0.29012 0.30567 0.0
H30 H 0.09402 0.32287 0.46511 0.0
H31 H 0.0895 0.18347 0.41042 0.0
H32 H 0.16013 0.24709 0.36181 0.0
Co33 Co 0.67864 0.02421 0.40944 0.0
C34 C 0.64762 0.05153 0.36556 0.0
C35 C 0.66843 0.99103 0.36385 0.0
C36 C 0.6523 0.00166 0.34326 0.0
N37 N 0.6655 0.02239 0.37776 0.0
N38 N 0.639 0.03965 0.34441 0.0
H39 H 0.64046 0.08063 0.37221 0.0
H40 H 0.68017 0.96205 0.36851 0.0
C41 C 0.71914 0.94913 0.41736 0.0
O42 O 0.69248 0.94501 0.43317 0.0
N43 N 0.69251 0.02697 0.44125 0.0
C44 C 0.72957 0.032 0.44956 0.0
C45 C 0.72843 0.03061 0.47262 0.0
C46 C 0.66932 0.02239 0.45954 0.0
N47 N 0.69056 0.02446 0.47891 0.0
C48 C 0.70731 0.10366 0.41039 0.0
C49 C 0.78196 0.08771 0.39359 0.0
C50 C 0.7738 0.12615 0.40175 0.0
C51 C 0.73513 0.13417 0.40929 0.0
C52 C 0.75263 0.0584 0.39412 0.0
N53 N 0.71656 0.06612 0.4035 0.0
H54 H 0.67863 0.11001 0.41754 0.0
H55 H 0.75976 0.02919 0.3878 0.0
H56 H 0.75602 0.0351 0.43956 0.0
H57 H 0.63775 0.01682 0.45881 0.0
O58 O 0.63128 0.05606 0.41438 0.0
O59 O 0.63425 0.99009 0.41547 0.0
O60 O 0.71953 0.98095 0.4055 0.0
C61 C 0.61287 0.02229 0.41675 0.0
H62 H 0.64912 0.98232 0.32887 0.0
H63 H 0.75388 0.03204 0.48383 0.0
H64 H 0.81109 0.07952 0.38758 0.0
H65 H 0.72635 0.16356 0.41481 0.0
Co66 Co 0.96707 0.67868 0.38378 0.0
C67 C 0.9442 0.6571 0.33745 0.0
C68 C 0.00447 0.67771 0.33924 0.0
C69 C -0.00408 0.66747 0.31735 0.0
N70 N 0.97197 0.67132 0.35176 0.0
N71 N 0.95807 0.65439 0.31626 0.0
H72 H 0.91456 0.64874 0.34252 0.0
H73 H 0.03269 0.68826 0.34562 0.0
C74 C 0.0394 0.72026 0.39443 0.0
O75 O 0.04456 0.69111 0.409 0.0
N76 N 0.96203 0.68695 0.41611 0.0
C77 C 0.95157 0.72176 0.42574 0.0
C78 C 0.95372 0.71773 0.44868 0.0
C79 C 0.97141 0.6624 0.43358 0.0
N80 N 0.96634 0.68054 0.45362 0.0
C81 C 0.88801 0.70928 0.38753 0.0
C82 C 0.90266 0.78146 0.36643 0.0
C83 C 0.86658 0.77629 0.37769 0.0
C84 C 0.85878 0.73898 0.38752 0.0
C85 C 0.93102 0.75094 0.36679 0.0
N86 N 0.92423 0.71637 0.37831 0.0
H87 H 0.88262 0.68148 0.39624 0.0
H88 H 0.95912 0.75585 0.35862 0.0
H89 H 0.94437 0.74897 0.41675 0.0
H90 H 0.98296 0.63246 0.4318 0.0
O91 O 0.93735 0.6294 0.38571 0.0
O92 O 0.00288 0.63466 0.38848 0.0
O93 O 0.00766 0.72192 0.38264 0.0
C94 C 0.97186 0.61186 0.38789 0.0
H95 H 0.01644 0.66829 0.30346 0.0
H96 H 0.94865 0.74113 0.4608 0.0
H97 H 0.90991 0.80957 0.35847 0.0
H98 H 0.83091 0.73327 0.39587 0.0
Co99 Co 0.32042 0.96207 0.40597 0.0
C100 C 0.35436 0.93706 0.36302 0.0
C101 C 0.3349 -0.00192 0.36135 0.0
C102 C 0.35118 0.98789 0.34096 0.0
N103 N 0.33684 0.96607 0.37506 0.0
N104 N 0.36352 0.94953 0.3421 0.0
H105 H 0.36013 0.90736 0.3695 0.0
H106 H 0.32305 0.02691 0.36593 0.0
C107 C 0.24162 0.00466 0.40671 0.0
O108 O 0.22663 0.97523 0.41842 0.0
N109 N 0.30424 0.9575 0.43752 0.0
C110 C 0.27752 0.93223 0.4466 0.0
C111 C 0.2759 0.93801 0.46933 0.0
C112 C 0.3185 0.97827 0.45531 0.0
N113 N 0.30186 0.9668 0.47495 0.0
C114 C 0.29715 0.88032 0.40505 0.0
C115 C 0.22717 0.89206 0.38122 0.0
C116 C 0.23373 0.85531 0.39211 0.0
C117 C 0.27076 0.84874 0.4026 0.0
C118 C 0.25515 0.92235 0.38343 0.0
N119 N 0.28717 0.91747 0.3974 0.0
H120 H 0.32401 0.87566 0.41478 0.0
H121 H 0.24981 0.95039 0.37493 0.0
H122 H 0.25872 0.91182 0.43755 0.0
H123 H 0.34096 0.00104 0.45398 0.0
O124 O 0.36868 0.93324 0.41299 0.0
O125 O 0.36155 -0.00097 0.4141 0.0
O126 O 0.27751 0.00319 0.39999 0.0
C127 C 0.38457 0.96799 0.41641 0.0
H128 H 0.35455 0.0075 0.32661 0.0
H129 H 0.25613 0.92272 0.48068 0.0
H130 H 0.19981 0.89851 0.37221 0.0
H131 H 0.27842 0.82018 0.41006 0.0
Co132 Co 0.02378 0.67305 0.6511 0.0
C133 C 0.03253 0.64169 0.69792 0.0
C134 C 0.00605 0.69991 0.69732 0.0
C135 C 0.01308 0.68888 0.71937 0.0
N136 N 0.01819 0.67029 0.68376 0.0
N137 N 0.03005 0.65231 0.71977 0.0
H138 H 0.04609 0.61426 0.6924 0.0
H139 H -0.00489 0.72864 0.69166 0.0
C140 C 0.96487 0.7361 0.6343 0.0
O141 O 0.98016 0.73615 0.61414 0.0
N142 N 0.0311 0.67381 0.61864 0.0
C143 C 0.06619 0.67808 0.60813 0.0
C144 C 0.06061 0.67246 0.58545 0.0
C145 C 0.00509 0.66337 0.60222 0.0
N146 N 0.0221 0.66362 0.58171 0.0
C147 C 0.09542 0.70534 0.67035 0.0
C148 C 0.08966 0.77856 0.64898 0.0
C149 C 0.11873 0.77299 0.66563 0.0
C150 C 0.12203 0.73563 0.67618 0.0
C151 C 0.06345 0.74795 0.64402 0.0
N152 N 0.06554 0.71232 0.65512 0.0
H153 H 0.09794 0.67669 0.67862 0.0
H154 H 0.04146 0.7533 0.63128 0.0
H155 H 0.09418 0.68448 0.61637 0.0
H156 H 0.97409 0.65679 0.60517 0.0
O157 O 0.05446 0.62412 0.6514 0.0
O158 O 0.98869 0.62926 0.64792 0.0
O159 O 0.98074 0.71574 0.6503 0.0
C160 C 0.02005 0.60667 0.64879 0.0
H161 H 0.00814 0.70751 0.73387 0.0
H162 H 0.08294 0.67585 0.57261 0.0
H163 H 0.0862 0.80692 0.64036 0.0
H164 H 0.14462 0.73005 0.6889 0.0
Co165 Co 0.31175 0.02479 0.67296 0.0
C166 C 0.3289 0.03984 0.72107 0.0
C167 C 0.30791 0.98045 0.71622 0.0
C168 C 0.31972 0.98445 0.73835 0.0
N169 N 0.31237 0.01568 0.70544 0.0
N170 N 0.33324 0.02181 0.74128 0.0
H171 H 0.34058 0.069 0.71749 0.0
H172 H 0.29942 0.95282 0.70829 0.0
C173 C 0.23951 0.97455 0.67963 0.0
O174 O 0.22962 -0.00408 0.69716 0.0
N175 N 0.31316 0.03427 0.64095 0.0
C176 C 0.31819 0.07014 0.63119 0.0
C177 C 0.31811 0.0654 0.6083 0.0
C178 C 0.31051 0.008 0.62394 0.0
N179 N 0.31343 0.0263 0.60365 0.0
C180 C 0.27838 0.10075 0.68672 0.0
C181 C 0.20936 0.09335 0.66158 0.0
C182 C 0.21475 0.12779 0.67443 0.0
C183 C 0.24998 0.13132 0.68709 0.0
C184 C 0.23806 0.0634 0.66202 0.0
N185 N 0.27157 0.06657 0.67503 0.0
H186 H 0.30631 0.1055 0.69511 0.0
H187 H 0.2339 0.03824 0.65103 0.0
H188 H 0.32139 0.09792 0.64015 0.0
H189 H 0.30699 0.97625 0.62646 0.0
O190 O 0.36026 0.05522 0.67606 0.0
O191 O 0.35606 0.98977 0.67072 0.0
O192 O 0.27032 0.98287 0.66828 0.0
C193 C 0.37818 0.02086 0.67374 0.0
H194 H 0.32097 0.9609 0.75085 0.0
H195 H 0.32059 0.08924 0.5961 0.0
H196 H 0.18379 0.08995 0.6506 0.0
H197 H 0.25596 0.15763 0.69698 0.0
Co198 Co 0.95352 0.31341 0.65264 0.0
C199 C 0.94318 0.35212 0.6973 0.0
C200 C 0.96379 0.29176 0.70041 0.0
C201 C 0.95456 0.30562 0.72147 0.0
N202 N 0.95673 0.32088 0.68514 0.0
N203 N 0.94137 0.3435 0.71947 0.0
H204 H 0.93167 0.3795 0.69008 0.0
H205 H 0.97225 0.26149 0.69643 0.0
C206 C 0.02997 0.27661 0.66174 0.0
O207 O 0.03997 0.31253 0.66831 0.0
N208 N 0.94878 0.30609 0.62049 0.0
C209 C 0.91399 0.3049 0.60916 0.0
C210 C 0.92154 0.3034 0.58658 0.0
C211 C 0.9772 0.30597 0.6046 0.0
N212 N 0.96124 0.30413 0.58362 0.0
C213 C 0.87895 0.28602 0.66913 0.0
C214 C 0.88478 0.21022 0.65131 0.0
C215 C 0.85148 0.21998 0.66424 0.0
C216 C 0.84877 0.25859 0.67316 0.0
C217 C 0.91466 0.23817 0.64816 0.0
N218 N 0.91155 0.27534 0.65714 0.0
H219 H 0.87649 0.31576 0.67587 0.0
H220 H 0.94005 0.23021 0.63811 0.0
H221 H 0.88499 0.30641 0.61681 0.0
H222 H 0.00866 0.30807 0.60832 0.0
O223 O 0.92291 0.36227 0.6494 0.0
O224 O 0.98857 0.35697 0.64772 0.0
O225 O -0.00534 0.27009 0.65472 0.0
C226 C 0.95728 0.37952 0.64683 0.0
H227 H 0.95571 0.28848 0.73692 0.0
H228 H 0.89932 0.30371 0.57331 0.0
H229 H 0.88773 0.18136 0.64343 0.0
H230 H 0.8239 0.2675 0.68342 0.0
Co231 Co 0.67244 0.95604 0.67576 0.0
C232 C 0.64791 0.9415 0.72288 0.0
C233 C 0.70785 0.96258 0.72123 0.0
C234 C 0.69947 0.953 0.74324 0.0
N235 N 0.67541 0.95548 0.70842 0.0
N236 N 0.66174 0.93967 0.7442 0.0
H237 H 0.61914 0.93033 0.71788 0.0
H238 H 0.7363 0.97214 0.7149 0.0
C239 C 0.70866 0.03381 0.68195 0.0
O240 O 0.67507 0.04384 0.69148 0.0
N241 N 0.66916 0.95492 0.64333 0.0
C242 C 0.65975 0.92196 0.63166 0.0
C243 C 0.65882 0.93119 0.60923 0.0
C244 C 0.67413 0.98399 0.62781 0.0
N245 N 0.66773 0.97011 0.60674 0.0
C246 C 0.70987 0.88011 0.68588 0.0
C247 C 0.77619 0.89533 0.66007 0.0
C248 C 0.77343 0.8586 0.6712 0.0
C249 C 0.73997 0.85111 0.6845 0.0
C250 C 0.74578 0.92303 0.6618 0.0
N251 N 0.71329 0.91547 0.67462 0.0
H252 H 0.68379 0.87427 0.69583 0.0
H253 H 0.74819 0.95052 0.6524 0.0
H254 H 0.65421 0.89299 0.63904 0.0
H255 H 0.68195 0.01442 0.63178 0.0
O256 O 0.6243 0.92406 0.6765 0.0
O257 O 0.62719 0.99012 0.67637 0.0
O258 O 0.71384 -0.00149 0.67474 0.0
C259 C 0.60563 0.95832 0.67641 0.0
H260 H 0.72 0.95458 0.75731 0.0
H261 H 0.65301 0.91053 0.59569 0.0
H262 H 0.80173 0.9027 0.64992 0.0
H263 H 0.73674 0.82298 0.6933 0.0
Co264 Co 0.52195 0.80578 0.90258 0.0
C265 C 0.53816 0.83563 0.8568 0.0
C266 C 0.47776 0.81704 0.85924 0.0
C267 C 0.48363 0.83302 0.8381 0.0
N268 N 0.51255 0.81717 0.87073 0.0
N269 N 0.52186 0.84459 0.8366 0.0
H270 H 0.56706 0.84596 0.86194 0.0
H271 H 0.44958 0.80755 0.86596 0.0
C272 C 0.47023 0.73877 0.88799 0.0
O273 O 0.4927 0.7344 0.87021 0.0
N274 N 0.53248 0.79659 0.93413 0.0
C275 C 0.56913 0.7957 0.9434 0.0
C276 C 0.56576 0.79124 0.96621 0.0
C277 C 0.50711 0.79315 0.95144 0.0
N278 N 0.52681 0.78987 0.97135 0.0
C279 C 0.59511 0.77283 0.88379 0.0
C280 C 0.58241 0.69715 0.90081 0.0
C281 C 0.61475 0.70357 0.88675 0.0
C282 C 0.62151 0.74202 0.87839 0.0
C283 C 0.55671 0.72837 0.90544 0.0
N284 N 0.56178 0.76521 0.89599 0.0
H285 H 0.60228 0.80263 0.87867 0.0
H286 H 0.53251 0.72275 0.91679 0.0
H287 H 0.5965 0.79859 0.93416 0.0
H288 H 0.47512 0.79433 0.94953 0.0
O289 O 0.55369 0.8539 0.90441 0.0
O290 O 0.48851 0.84946 0.90964 0.0
O291 O 0.47862 0.76479 0.90282 0.0
C292 C 0.51987 0.87161 0.90863 0.0
H293 H 0.46116 0.83664 0.82512 0.0
H294 H 0.59027 0.78923 0.97805 0.0
H295 H 0.57669 0.66801 0.90801 0.0
H296 H 0.64731 0.74831 0.86824 0.0
Co297 Co 0.16601 0.5213 0.88306 0.0
C298 C 0.14664 0.54143 0.8355 0.0
C299 C 0.17059 0.48246 0.83817 0.0
C300 C 0.15893 0.48923 0.81617 0.0
N301 N 0.16437 0.51583 0.85026 0.0
N302 N 0.14366 0.52636 0.81455 0.0
H303 H 0.13371 0.56962 0.84016 0.0
H304 H 0.18062 0.4542 0.84499 0.0
C305 C 0.23883 0.47168 0.87503 0.0
O306 O 0.24865 0.49448 0.85796 0.0
N307 N 0.16522 0.52751 0.9154 0.0
C308 C 0.1569 0.56206 0.92581 0.0
C309 C 0.15625 0.55543 0.94857 0.0
C310 C 0.16961 0.50011 0.93201 0.0
N311 N 0.16413 0.51654 0.95252 0.0
C312 C 0.20225 0.59626 0.86892 0.0
C313 C 0.27093 0.5842 0.89397 0.0
C314 C 0.26861 0.61704 0.87947 0.0
C315 C 0.2335 0.62349 0.8671 0.0
C316 C 0.23946 0.55768 0.89501 0.0
N317 N 0.20641 0.56261 0.88175 0.0
H318 H 0.17488 0.60269 0.86024 0.0
H319 H 0.24201 0.53265 0.90643 0.0
H320 H 0.15145 0.59019 0.91733 0.0
H321 H 0.17593 0.46889 0.92915 0.0
O322 O 0.11726 0.55223 0.88128 0.0
O323 O 0.12222 0.48628 0.8848 0.0
O324 O 0.20768 0.47876 0.88636 0.0
C325 C 0.09976 0.51764 0.88313 0.0
H326 H 0.15948 0.46763 0.80273 0.0
H327 H 0.15094 0.57772 0.9613 0.0
H328 H 0.29734 0.57835 0.90402 0.0
H329 H 0.23015 0.64942 0.85632 0.0
Co330 Co 0.45281 0.16547 0.904 0.0
C331 C 0.43742 0.13929 0.857 0.0
C332 C 0.49708 0.15971 0.86114 0.0
C333 C 0.49247 0.14571 0.83955 0.0
N334 N 0.46199 0.15737 0.87191 0.0
N335 N 0.45486 0.13278 0.83701 0.0
H336 H 0.40812 0.12872 0.86097 0.0
H337 H 0.5248 0.16912 0.8687 0.0
C338 C 0.50256 0.23511 0.89151 0.0
O339 O 0.47972 0.24076 0.87374 0.0
N340 N 0.44351 0.17124 0.93582 0.0
C341 C 0.40761 0.17135 0.94559 0.0
C342 C 0.41281 0.17303 0.96847 0.0
C343 C 0.47018 0.17225 0.95286 0.0
N344 N 0.45218 0.17336 0.97316 0.0
C345 C 0.37986 0.19986 0.88482 0.0
C346 C 0.39133 0.27382 0.90405 0.0
C347 C 0.36042 0.26907 0.88849 0.0
C348 C 0.3541 0.23133 0.87916 0.0
C349 C 0.41652 0.24196 0.90889 0.0
N350 N 0.41225 0.20615 0.89829 0.0
H351 H 0.37327 0.17066 0.8786 0.0
H352 H 0.44019 0.24646 0.92097 0.0
H353 H 0.37953 0.16991 0.93664 0.0
H354 H 0.50196 0.17105 0.95037 0.0
O355 O 0.42168 0.11694 0.9045 0.0
O356 O 0.48698 0.12153 0.91002 0.0
O357 O 0.49532 0.20718 0.90549 0.0
C358 C 0.45576 0.09922 0.90848 0.0
H359 H 0.51556 0.14338 0.82708 0.0
H360 H 0.38916 0.17407 0.98063 0.0
H361 H 0.39679 0.3023 0.91197 0.0
H362 H 0.32935 0.22617 0.8678 0.0
Co363 Co 0.80805 0.45047 0.89093 0.0
C364 C 0.82492 0.427 0.84416 0.0
C365 C 0.80959 0.48873 0.84557 0.0
C366 C 0.82139 0.4799 0.82395 0.0
N367 N 0.81055 0.45509 0.85817 0.0
N368 N 0.83093 0.44085 0.82315 0.0
H369 H 0.83516 0.39809 0.84963 0.0
H370 H 0.80291 0.51816 0.85188 0.0
C371 C 0.73809 0.50213 0.87966 0.0
O372 O 0.72966 0.4797 0.86225 0.0
N373 N 0.80764 0.44491 0.92326 0.0
C374 C 0.81364 0.41015 0.93419 0.0
C375 C 0.81223 0.41689 0.95687 0.0
C376 C 0.80271 0.47257 0.93942 0.0
N377 N 0.80552 0.4561 0.96024 0.0
C378 C 0.77267 0.37401 0.87907 0.0
C379 C 0.7009 0.39037 0.89937 0.0
C380 C 0.70474 0.35561 0.88677 0.0
C381 C 0.74137 0.34694 0.87689 0.0
C382 C 0.73251 0.41669 0.90074 0.0
N383 N 0.76704 0.40975 0.88947 0.0
H384 H 0.80137 0.36563 0.87291 0.0
H385 H 0.729 0.44286 0.91102 0.0
H386 H 0.81852 0.38174 0.92614 0.0
H387 H 0.79769 0.50393 0.93603 0.0
O388 O 0.8564 0.41878 0.89029 0.0
O389 O 0.85232 0.48481 0.89298 0.0
O390 O 0.76727 0.49385 0.89265 0.0
C391 C 0.87437 0.45319 0.89162 0.0
H392 H 0.82404 0.50089 0.81018 0.0
H393 H 0.81519 0.39436 0.96987 0.0
H394 H 0.67337 0.39765 0.90774 0.0
H395 H 0.74587 0.31932 0.8679 0.0
Co396 Co 0.5215 0.17274 0.17116 0.0
C397 C 0.54684 0.14383 0.21551 0.0
C398 C 0.48635 0.16419 0.21663 0.0
C399 C 0.49702 0.1492 0.23755 0.0
N400 N 0.51777 0.16076 0.2029 0.0
N401 N 0.53501 0.13616 0.23671 0.0
H402 H 0.57603 0.13677 0.20915 0.0
H403 H 0.45747 0.17567 0.2117 0.0
C404 C 0.46489 0.24034 0.16047 0.0
O405 O 0.48602 0.25025 0.14293 0.0
N406 N 0.52704 0.18376 0.13898 0.0
C407 C 0.55522 0.20605 0.12892 0.0
C408 C 0.54915 0.20576 0.10614 0.0
C409 C 0.50435 0.16998 0.12178 0.0
N410 N 0.51728 0.18298 0.1015 0.0
C411 C 0.60139 0.20196 0.1766 0.0
C412 C 0.5799 0.27943 0.18649 0.0
C413 C 0.62 0.27124 0.18195 0.0
C414 C 0.63082 0.23124 0.17821 0.0
C415 C 0.55187 0.2492 0.18543 0.0
N416 N 0.56215 0.21186 0.17854 0.0
H417 H 0.60996 0.17191 0.17233 0.0
H418 H 0.52179 0.25679 0.18959 0.0
H419 H 0.57807 0.22301 0.13717 0.0
H420 H 0.4789 0.15088 0.12407 0.0
O421 O 0.55366 0.12494 0.16737 0.0
O422 O 0.48799 0.12834 0.16471 0.0
O423 O 0.47641 0.21257 0.17384 0.0
C424 C 0.51994 0.10665 0.16421 0.0
H425 H 0.47782 0.14668 0.25198 0.0
H426 H 0.5664 0.22233 0.09405 0.0
H427 H 0.56925 0.30925 0.18979 0.0
H428 H 0.66147 0.22264 0.17567 0.0
Co429 Co 0.80423 0.52297 0.15707 0.0
C430 C 0.83574 0.54673 0.20185 0.0
C431 C 0.82154 0.48439 0.20039 0.0
C432 C 0.83513 0.4929 0.22167 0.0
N433 N 0.82156 0.51816 0.18806 0.0
N434 N 0.84398 0.53207 0.22261 0.0
H435 H 0.83915 0.57763 0.19692 0.0
H436 H 0.81234 0.45551 0.19432 0.0
C437 C 0.72576 0.47943 0.16098 0.0
O438 O 0.70532 0.51082 0.15445 0.0
N439 N 0.78696 0.52653 0.12544 0.0
C440 C 0.75309 0.54241 0.11675 0.0
C441 C 0.75226 0.53705 0.09388 0.0
C442 C 0.80589 0.51132 0.10736 0.0
N443 N 0.78549 0.51744 0.08794 0.0
C444 C 0.77007 0.60142 0.15412 0.0
C445 C 0.71613 0.59142 0.1884 0.0
C446 C 0.7127 0.62526 0.1745 0.0
C447 C 0.74144 0.6309 0.15779 0.0
C448 C 0.74462 0.56236 0.18377 0.0
N449 N 0.7689 0.5662 0.16565 0.0
H450 H 0.79135 0.60546 0.1408 0.0
H451 H 0.74576 0.53572 0.19407 0.0
H452 H 0.72988 0.55686 0.12608 0.0
H453 H 0.83408 0.49588 0.10826 0.0
O454 O 0.85108 0.55388 0.15057 0.0
O455 O 0.84684 0.48784 0.149 0.0
O456 O 0.76353 0.48025 0.1627 0.0
C457 C 0.86856 0.51968 0.14718 0.0
H458 H 0.83877 0.47173 0.23534 0.0
H459 H 0.72834 0.54591 0.08263 0.0
H460 H 0.69618 0.58666 0.20231 0.0
H461 H 0.74071 0.65671 0.1468 0.0
Co462 Co 0.45886 0.81039 0.16796 0.0
C463 C 0.43671 0.83727 0.21342 0.0
C464 C 0.49601 0.81414 0.21335 0.0
C465 C 0.48856 0.82991 0.23426 0.0
N466 N 0.463 0.81768 0.20039 0.0
N467 N 0.45129 0.84472 0.23416 0.0
H468 H 0.40847 0.84857 0.20749 0.0
H469 H 0.52449 0.80338 0.20765 0.0
C470 C 0.5039 0.73821 0.183 0.0
O471 O 0.4761 0.73189 0.19796 0.0
N472 N 0.45367 0.805 0.13578 0.0
C473 C 0.41879 0.80882 0.1247 0.0
C474 C 0.42526 0.80479 0.10216 0.0
C475 C 0.48125 0.79916 0.11978 0.0
N476 N 0.46444 0.79864 0.09898 0.0
C477 C 0.38 0.78201 0.17919 0.0
C478 C 0.38998 0.7078 0.15997 0.0
C479 C 0.35313 0.71753 0.16915 0.0
C480 C 0.34816 0.75528 0.17877 0.0
C481 C 0.42064 0.73539 0.16052 0.0
N482 N 0.41617 0.77151 0.17079 0.0
H483 H 0.37466 0.81175 0.18508 0.0
H484 H 0.4476 0.72818 0.1517 0.0
H485 H 0.39052 0.81482 0.13252 0.0
H486 H 0.5127 0.79565 0.12327 0.0
O487 O 0.42861 0.85956 0.1657 0.0
O488 O 0.49433 0.85429 0.16407 0.0
O489 O 0.50103 0.76747 0.16922 0.0
C490 C 0.46299 0.87701 0.16364 0.0
H491 H 0.50982 0.8328 0.24791 0.0
H492 H 0.40291 0.80763 0.08906 0.0
H493 H 0.39457 0.67975 0.15141 0.0
H494 H 0.3197 0.7644 0.18543 0.0
Co495 Co 0.16328 0.46131 0.15099 0.0
C496 C 0.13982 0.43645 0.19731 0.0
C497 C 0.14738 0.49975 0.19377 0.0
C498 C 0.1365 0.49161 0.21547 0.0
N499 N 0.14971 0.46527 0.18241 0.0
N500 N 0.13184 0.45184 0.2178 0.0
H501 H 0.13883 0.40504 0.19326 0.0
H502 H 0.15271 0.52894 0.18664 0.0
C503 C 0.20533 0.53672 0.1476 0.0
O504 O 0.17593 0.54773 0.13427 0.0
N505 N 0.17798 0.45854 0.1194 0.0
C506 C 0.21542 0.45307 0.11207 0.0
C507 C 0.2157 0.45563 0.08904 0.0
C508 C 0.15604 0.46521 0.10054 0.0
N509 N 0.17841 0.46338 0.08174 0.0
C510 C 0.19637 0.38365 0.14606 0.0
C511 C 0.26214 0.39594 0.1734 0.0
C512 C 0.26104 0.36231 0.15954 0.0
C513 C 0.22693 0.35543 0.14646 0.0
C514 C 0.2311 0.42371 0.17228 0.0
N515 N 0.19995 0.41825 0.15779 0.0
H516 H 0.17123 0.37936 0.1349 0.0
H517 H 0.23313 0.45057 0.18216 0.0
H518 H 0.24119 0.44875 0.12281 0.0
H519 H 0.12464 0.47212 0.10047 0.0
O520 O 0.11549 0.43082 0.14559 0.0
O521 O 0.11971 0.49671 0.14398 0.0
O522 O 0.20623 0.50153 0.15574 0.0
C523 C 0.0977 0.46507 0.14275 0.0
H524 H 0.13154 0.51355 0.22843 0.0
H525 H 0.24176 0.45395 0.07855 0.0
H526 H 0.28793 0.40212 0.18381 0.0
H527 H 0.22482 0.32946 0.13578 0.0
H528 H 0.04071 0.56973 0.38771 0.0
H529 H 0.91323 0.556 0.38946 0.0
H530 H 0.92109 0.48352 0.38915 0.0
H531 H 0.96379 0.42474 0.38786 0.0
H532 H 0.09129 0.43757 0.38547 0.0
H533 H 0.08376 0.51034 0.38642 0.0
C534 C 0.01462 0.55089 0.38814 0.0
C535 C 0.97639 0.56814 0.38869 0.0
C536 C 0.01938 0.50935 0.38771 0.0
C537 C 0.94291 0.5434 0.3891 0.0
C538 C 0.94741 0.50202 0.38887 0.0
C539 C 0.99007 0.44335 0.38754 0.0
C540 C 0.02812 0.42584 0.3866 0.0
C541 C 0.98546 0.48478 0.38807 0.0
C542 C 0.06173 0.4504 0.38616 0.0
C543 C 0.0574 0.49191 0.38674 0.0
H544 H 0.57 0.95598 0.42442 0.0
H545 H 0.55897 0.08351 0.41622 0.0
H546 H 0.48655 0.07819 0.41768 0.0
H547 H 0.42672 0.03654 0.41797 0.0
H548 H 0.43841 0.90874 0.42452 0.0
H549 H 0.51051 0.91499 0.42724 0.0
C550 C 0.55179 0.98269 0.42315 0.0
C551 C 0.56966 0.02004 0.42 0.0
C552 C 0.5104 0.97931 0.42363 0.0
C553 C 0.54579 0.0544 0.41857 0.0
C554 C 0.50444 0.05136 0.41935 0.0
C555 C 0.44503 0.01011 0.4203 0.0
C556 C 0.4274 0.97222 0.42088 0.0
C557 C 0.48645 0.01386 0.42139 0.0
C558 C 0.45138 0.93822 0.42391 0.0
C559 C 0.49257 0.94175 0.42541 0.0
H560 H 0.02614 0.41985 0.64575 0.0
H561 H 0.89873 0.43623 0.64427 0.0
H562 H 0.90759 0.50865 0.644 0.0
H563 H 0.95136 0.56632 0.64569 0.0
H564 H 0.07871 0.54992 0.64864 0.0
H565 H 0.06995 0.47757 0.64689 0.0
C566 C 0.00022 0.4392 0.64521 0.0
C567 C 0.96178 0.4229 0.64502 0.0
C568 C 0.00557 0.48043 0.64547 0.0
C569 C 0.92856 0.44824 0.64439 0.0
C570 C 0.93363 0.48951 0.6443 0.0
C571 C 0.9773 0.54699 0.64589 0.0
C572 C 0.01568 0.56326 0.64734 0.0
C573 C 0.97199 0.50579 0.64509 0.0
C574 C 0.04892 0.53793 0.64758 0.0
C575 C 0.0439 0.4967 0.64657 0.0
H576 H 0.56415 0.02652 0.67999 0.0
H577 H 0.54986 0.89919 0.67338 0.0
H578 H 0.47748 0.90787 0.67218 0.0
H579 H 0.41928 0.95184 0.6721 0.0
H580 H 0.43404 0.07914 0.67868 0.0
H581 H 0.50619 0.07017 0.68074 0.0
C582 C 0.54529 0.00053 0.6783 0.0
C583 C 0.56217 0.96222 0.67664 0.0
C584 C 0.50417 0.00582 0.67754 0.0
C585 C 0.5374 0.92892 0.67465 0.0
C586 C 0.49617 0.93392 0.67392 0.0
C587 C 0.43824 0.9777 0.67396 0.0
C588 C 0.42153 0.01618 0.67508 0.0
C589 C 0.47938 0.97227 0.67518 0.0
C590 C 0.44635 0.04931 0.67767 0.0
C591 C 0.48747 0.04416 0.67887 0.0
H592 H 0.45107 0.91232 0.9109 0.0
H593 H 0.57837 0.92818 0.90999 0.0
H594 H 0.56905 0.00068 0.91089 0.0
H595 H 0.52477 0.05854 0.91051 0.0
H596 H 0.39746 0.04255 0.90957 0.0
H597 H 0.40685 0.97009 0.91082 0.0
C598 C 0.47691 0.93153 0.91107 0.0
C599 C 0.51545 0.91505 0.91045 0.0
C600 C 0.47126 0.97278 0.91115 0.0
C601 C 0.5485 0.9403 0.91051 0.0
C602 C 0.54314 0.9816 0.91098 0.0
C603 C 0.49896 0.03929 0.91072 0.0
C604 C 0.46039 0.05573 0.91001 0.0
C605 C 0.50465 -0.00197 0.91109 0.0
C606 C 0.42736 0.03046 0.91012 0.0
C607 C 0.43276 0.98917 0.91083 0.0
H608 H 0.91417 0.52229 0.88986 0.0
H609 H 0.93118 0.39452 0.88996 0.0
H610 H 0.00309 0.40394 0.88675 0.0
H611 H 0.06001 0.44838 0.8841 0.0
H612 H 0.0428 0.57613 0.88374 0.0
H613 H 0.9709 0.56667 0.88666 0.0
C614 C 0.93352 0.49637 0.88927 0.0
C615 C 0.91759 0.45769 0.89028 0.0
C616 C 0.97433 0.50206 0.88725 0.0
C617 C 0.94294 0.42451 0.88931 0.0
C618 C 0.98388 0.42992 0.88743 0.0
C619 C 0.0406 0.47427 0.88463 0.0
C620 C 0.05651 0.51297 0.88381 0.0
C621 C -0.00026 0.46855 0.88639 0.0
C622 C 0.03108 0.54612 0.88436 0.0
C623 C 0.99014 0.54069 0.88608 0.0
H624 H 0.53128 0.91929 0.16264 0.0
H625 H 0.40359 0.93251 0.16049 0.0
H626 H 0.41054 0.005 0.15894 0.0
H627 H 0.45259 0.06407 0.15985 0.0
H628 H 0.58023 0.05143 0.16352 0.0
H629 H 0.57359 0.97874 0.16258 0.0
C630 C 0.50494 0.93801 0.1617 0.0
C631 C 0.46692 0.92063 0.16172 0.0
C632 C 0.50918 0.97954 0.16108 0.0
C633 C 0.43312 0.94522 0.16054 0.0
C634 C 0.4371 0.9866 0.15965 0.0
C635 C 0.47906 0.0455 0.16028 0.0
C636 C 0.5169 0.06305 0.16178 0.0
C637 C 0.47495 0.00401 0.16014 0.0
C638 C 0.55082 0.03857 0.16233 0.0
C639 C 0.547 -0.00292 0.16187 0.0
H640 H 0.91149 0.4521 0.14154 0.0
H641 H 0.92198 0.58029 0.14312 0.0
H642 H -0.00588 0.57449 0.13977 0.0
H643 H 0.05418 0.53292 0.13954 0.0
H644 H 0.04381 0.40468 0.13958 0.0
H645 H 0.97137 0.41061 0.13895 0.0
C646 C 0.9295 0.47882 0.14092 0.0
C647 C 0.91149 0.51658 0.14274 0.0
C648 C 0.97089 0.47522 0.13939 0.0
C649 C 0.93518 0.55089 0.14183 0.0
C650 C 0.97641 0.54759 0.13997 0.0
C651 C 0.03609 0.50624 0.13915 0.0
C652 C 0.05427 0.46841 0.13976 0.0
C653 C -0.00541 0.50989 0.13921 0.0
C654 C 0.03048 0.43414 0.1392 0.0
C655 C 0.98909 0.43752 0.1389 0.0
H656 H 0.08309 0.39345 0.31387 0.0
H657 H 0.03105 0.29811 0.27526 0.0
H658 H 0.05635 0.32766 0.24076 0.0
H659 H 0.09185 0.38199 0.22122 0.0
H660 H 0.1456 0.47544 0.26048 0.0
H661 H 0.12156 0.44488 0.29489 0.0
C662 C 0.07764 0.37864 0.29804 0.0
C663 C 0.05481 0.34355 0.29741 0.0
C664 C 0.09262 0.39558 0.2782 0.0
C665 C 0.04782 0.32545 0.27644 0.0
C666 C 0.06256 0.34222 0.25661 0.0
C667 C 0.09873 0.39535 0.23731 0.0
C668 C 0.12012 0.43134 0.23812 0.0
C669 C 0.08479 0.37748 0.25724 0.0
C670 C 0.1285 0.44829 0.25921 0.0
C671 C 0.11491 0.43071 0.27898 0.0
H672 H 0.52926 0.14567 0.28165 0.0
H673 H 0.59143 0.07955 0.23082 0.0
H674 H 0.62969 0.04428 0.25972 0.0
H675 H 0.64543 0.03165 0.29952 0.0
H676 H 0.58331 0.09724 0.35057 0.0
H677 H 0.54544 0.13324 0.32166 0.0
C678 C 0.55103 0.1234 0.27694 0.0
C679 C 0.55747 0.11547 0.25404 0.0
C680 C 0.57313 0.10315 0.29373 0.0
C681 C 0.5862 0.08679 0.24824 0.0
C682 C 0.60799 0.06637 0.26479 0.0
C683 C 0.62347 0.05366 0.30433 0.0
C684 C 0.61735 0.06164 0.32724 0.0
C685 C 0.60171 0.07426 0.28759 0.0
C686 C 0.58912 0.09078 0.33311 0.0
C687 C 0.5672 0.11123 0.31656 0.0
H688 H 0.8942 0.59464 0.22276 0.0
H689 H 0.8277 0.51666 0.26609 0.0
H690 H 0.85601 0.54894 0.29915 0.0
H691 H 0.90194 0.5973 0.31583 0.0
H692 H 0.96939 0.67491 0.27277 0.0
H693 H 0.93851 0.64501 0.2396 0.0
C694 C 0.88558 0.58512 0.23944 0.0
C695 C 0.85905 0.55312 0.24193 0.0
C696 C 0.90234 0.60362 0.25845 0.0
C697 C 0.8485 0.5408 0.26369 0.0
C698 C 0.86455 0.55936 0.28262 0.0
C699 C 0.90945 0.60809 0.29922 0.0
C700 C 0.938 0.63828 0.29682 0.0
C701 C 0.89185 0.5905 0.28022 0.0
C702 C 0.94786 0.6514 0.27509 0.0
C703 C 0.9301 0.63441 0.25611 0.0
H704 H 0.46063 0.83588 0.27892 0.0
H705 H 0.39984 0.90635 0.22835 0.0
H706 H 0.36716 0.9451 0.25743 0.0
H707 H 0.35532 0.95887 0.29728 0.0
H708 H 0.41618 0.88892 0.34805 0.0
H709 H 0.44917 0.85017 0.31898 0.0
C710 C 0.44042 0.85989 0.27432 0.0
C711 C 0.43254 0.86793 0.25149 0.0
C712 C 0.4216 0.88213 0.29119 0.0
C713 C 0.40595 0.89894 0.24576 0.0
C714 C 0.38741 0.92135 0.2624 0.0
C715 C 0.37605 0.93539 0.30199 0.0
C716 C 0.38316 0.92687 0.32484 0.0
C717 C 0.39491 0.91317 0.28517 0.0
C718 C 0.4097 0.89584 0.33061 0.0
C719 C 0.42879 0.87378 0.31398 0.0
H720 H 0.08385 0.58091 0.81349 0.0
H721 H 0.16289 0.51412 0.77109 0.0
H722 H 0.1341 0.5465 0.7378 0.0
H723 H 0.08798 0.59532 0.72079 0.0
H724 H 0.00807 0.66126 0.76324 0.0
H725 H 0.03629 0.62831 0.79636 0.0
C726 C 0.09505 0.57361 0.79701 0.0
C727 C 0.12578 0.54514 0.79491 0.0
C728 C 0.0783 0.5924 0.77788 0.0
C729 C 0.13915 0.53559 0.77326 0.0
C730 C 0.12279 0.55428 0.75419 0.0
C731 C 0.07621 0.60223 0.73718 0.0
C732 C 0.0458 0.63113 0.73929 0.0
C733 C 0.09243 0.58285 0.75628 0.0
C734 C 0.03172 0.63977 0.76094 0.0
C735 C 0.04776 0.62072 0.77997 0.0
H736 H 0.39671 0.0772 0.83574 0.0
H737 H 0.47347 0.14753 0.79371 0.0
H738 H 0.44282 0.11893 0.76015 0.0
H739 H 0.39355 0.07474 0.74271 0.0
H740 H 0.3165 0.00448 0.78455 0.0
H741 H 0.3479 0.03222 0.81823 0.0
C742 C 0.40654 0.08653 0.81926 0.0
C743 C 0.4373 0.11472 0.8173 0.0
C744 C 0.38871 0.06995 0.79999 0.0
C745 C 0.45018 0.1257 0.79574 0.0
C746 C 0.43248 0.10951 0.77653 0.0
C747 C 0.3833 0.06578 0.75917 0.0
C748 C 0.35237 0.03782 0.76108 0.0
C749 C 0.40158 0.08179 0.77844 0.0
C750 C 0.34031 0.0258 0.78261 0.0
C751 C 0.35816 0.04178 0.80187 0.0
H752 H 0.87265 0.46908 0.78745 0.0
H753 H 0.82621 0.3613 0.81702 0.0
H754 H 0.85731 0.32171 0.78791 0.0
H755 H 0.89803 0.31706 0.75421 0.0
H756 H 0.94296 0.42392 0.72326 0.0
H757 H 0.9117 0.46446 0.75244 0.0
C758 C 0.86897 0.43702 0.78741 0.0
C759 C 0.84747 0.41832 0.80474 0.0
C760 C 0.88676 0.41416 0.77034 0.0
C761 C 0.84327 0.37658 0.80431 0.0
C762 C 0.8609 0.35381 0.78755 0.0
C763 C 0.90136 0.34918 0.75397 0.0
C764 C 0.92323 0.36739 0.73674 0.0
C765 C 0.88301 0.37219 0.77062 0.0
C766 C 0.9263 0.40919 0.73635 0.0
C767 C 0.90847 0.43234 0.75306 0.0
H768 H 0.60088 0.84819 0.82921 0.0
H769 H 0.48735 0.8855 0.80178 0.0
H770 H 0.52088 0.91879 0.77074 0.0
H771 H 0.58264 0.93784 0.75151 0.0
H772 H 0.69576 0.90142 0.77971 0.0
H773 H 0.66212 0.86859 0.8108 0.0
C774 C 0.58328 0.86406 0.81671 0.0
C775 C 0.54145 0.86433 0.81808 0.0
C776 C 0.60276 0.8837 0.79909 0.0
C777 C 0.51945 0.88432 0.8012 0.0
C778 C 0.53866 0.90366 0.78347 0.0
C779 C 0.59992 0.92262 0.76442 0.0
C780 C 0.64175 0.92216 0.76321 0.0
C781 C 0.58031 0.90353 0.78225 0.0
C782 C 0.66366 0.90277 0.7803 0.0
C783 C 0.64439 0.88367 0.79802 0.0
H784 H 0.10837 0.13174 0.38642 0.0
H785 H 0.20992 0.20967 0.3835 0.0
H786 H 0.25446 0.15212 0.38772 0.0
H787 H 0.26407 0.08028 0.39598 0.0
H788 H 0.1613 0.00469 0.4026 0.0
H789 H 0.11766 0.06091 0.39373 0.0
C790 C 0.14026 0.13631 0.38683 0.0
C791 C 0.1557 0.17511 0.38504 0.0
C792 C 0.16545 0.1035 0.39024 0.0
C793 C 0.19715 0.18018 0.3848 0.0
C794 C 0.22264 0.14731 0.38743 0.0
C795 C 0.23213 0.07616 0.39528 0.0
C796 C 0.21586 0.03851 0.40009 0.0
C797 C 0.20706 0.10894 0.39073 0.0
C798 C 0.17448 0.03349 0.39922 0.0
C799 C 0.14952 0.06557 0.39408 0.0
H800 H 0.89052 0.27004 0.42005 0.0
H801 H 0.95577 0.21305 0.36705 0.0
H802 H 0.90463 0.16165 0.36402 0.0
H803 H 0.84006 0.13517 0.37534 0.0
H804 H 0.78029 0.18713 0.43232 0.0
H805 H 0.83 0.23893 0.43429 0.0
C806 C 0.89353 0.24623 0.4079 0.0
C807 C 0.92632 0.24556 0.39354 0.0
C808 C 0.86471 0.2163 0.4067 0.0
C809 C 0.93053 0.21423 0.37818 0.0
C810 C 0.90127 0.18496 0.37641 0.0
C811 C 0.838 0.15717 0.38852 0.0
C812 C 0.80543 0.15721 0.40327 0.0
C813 C 0.868 0.18595 0.39045 0.0
C814 C 0.80372 0.18678 0.42 0.0
C815 C 0.83261 0.21631 0.42144 0.0
H816 H 0.82706 0.79557 0.41557 0.0
H817 H 0.84503 0.83478 0.34727 0.0
H818 H 0.80284 0.89316 0.35378 0.0
H819 H 0.76011 0.93282 0.379 0.0
H820 H 0.74101 0.89103 0.44675 0.0
H821 H 0.78419 0.83388 0.44025 0.0
C822 C 0.82125 0.81644 0.40194 0.0
C823 C 0.83899 0.81055 0.38092 0.0
C824 C 0.79692 0.84971 0.40575 0.0
C825 C 0.83192 0.83864 0.36367 0.0
C826 C 0.80775 0.87202 0.36737 0.0
C827 C 0.76572 0.91132 0.39235 0.0
C828 C 0.74744 0.91619 0.41333 0.0
C829 C 0.79017 0.87795 0.38839 0.0
C830 C 0.7546 0.88791 0.43042 0.0
C831 C 0.77927 0.85517 0.42673 0.0
H832 H 0.10169 0.73397 0.42193 0.0
H833 H 0.05012 0.76977 0.35828 0.0
H834 H 0.10726 0.8128 0.35109 0.0
H835 H 0.17233 0.839 0.36275 0.0
H836 H 0.22009 0.80644 0.42809 0.0
H837 H 0.16473 0.76199 0.43417 0.0
C838 C 0.10287 0.75125 0.40648 0.0
C839 C 0.07189 0.74869 0.39065 0.0
C840 C 0.13551 0.77586 0.40253 0.0
C841 C 0.07361 0.77148 0.3708 0.0
C842 C 0.10636 0.79584 0.36662 0.0
C843 C 0.17061 0.82252 0.37841 0.0
C844 C 0.20098 0.826 0.39474 0.0
C845 C 0.13759 0.7981 0.38235 0.0
C846 C 0.19814 0.8037 0.41479 0.0
C847 C 0.16604 0.77861 0.41852 0.0
H848 H 0.20254 0.92315 0.7078 0.0
H849 H 0.22782 0.94512 0.63792 0.0
H850 H 0.19465 0.88321 0.62752 0.0
H851 H 0.15832 0.82316 0.63824 0.0
H852 H 0.13431 0.79946 0.70805 0.0
H853 H 0.16817 0.86115 0.71869 0.0
C854 C 0.2003 0.91447 0.69031 0.0
C855 C 0.21697 0.93871 0.67359 0.0
C856 C 0.18214 0.8783 0.68452 0.0
C857 C 0.21488 0.9269 0.65102 0.0
C858 C 0.19612 0.8915 0.64508 0.0
C859 C 0.16072 0.83147 0.65579 0.0
C860 C 0.14382 0.80705 0.67234 0.0
C861 C 0.17977 0.86695 0.66169 0.0
C862 C 0.14749 0.81771 0.69505 0.0
C863 C 0.16642 0.85314 0.7011 0.0
H864 H 0.1341 0.12074 0.67117 0.0
H865 H 0.22747 0.20855 0.6753 0.0
H866 H 0.17832 0.26185 0.67238 0.0
H867 H 0.10936 0.28364 0.66741 0.0
H868 H 0.0163 0.19629 0.66049 0.0
H869 H 0.06521 0.14254 0.66498 0.0
C870 C 0.14389 0.15149 0.67118 0.0
C871 C 0.18461 0.1604 0.67352 0.0
C872 C 0.1156 0.18207 0.66873 0.0
C873 C 0.1964 0.20058 0.67398 0.0
C874 C 0.16832 0.23118 0.67205 0.0
C875 C 0.09972 0.25284 0.6669 0.0
C876 C 0.05929 0.24392 0.66368 0.0
C877 C 0.12793 0.22224 0.66928 0.0
C878 C 0.04731 0.20389 0.66287 0.0
C879 C 0.07521 0.1732 0.66552 0.0
H880 H 0.69951 0.11369 0.67951 0.0
H881 H 0.78816 0.02041 0.67817 0.0
H882 H 0.84043 0.07014 0.67356 0.0
H883 H 0.86056 0.13977 0.67003 0.0
H884 H 0.77105 0.23258 0.66758 0.0
H885 H 0.7195 0.18329 0.67423 0.0
C886 C 0.73032 0.10433 0.67833 0.0
C887 C 0.74015 0.06363 0.67932 0.0
C888 C 0.75998 0.13292 0.67516 0.0
C889 C 0.78 0.05168 0.67742 0.0
C890 C 0.80983 0.08005 0.67483 0.0
C891 C 0.82977 0.14933 0.67056 0.0
C892 C 0.81991 0.19001 0.66831 0.0
C893 C 0.8001 0.12072 0.67359 0.0
C894 C 0.77978 0.20167 0.66966 0.0
C895 C 0.75015 0.17344 0.67326 0.0
H896 H 0.92423 0.74586 0.67365 0.0
H897 H 0.9218 0.77725 0.60309 0.0
H898 H 0.86021 0.8138 0.60815 0.0
H899 H 0.80824 0.83867 0.63233 0.0
H900 H 0.81086 0.81202 0.70326 0.0
H901 H 0.87035 0.77046 0.69817 0.0
C902 C 0.91027 0.76079 0.65942 0.0
C903 C 0.92794 0.75905 0.63807 0.0
C904 C 0.87463 0.78214 0.66241 0.0
C905 C 0.90923 0.77832 0.61977 0.0
C906 C 0.8738 0.79912 0.62257 0.0
C907 C 0.82185 0.82384 0.64672 0.0
C908 C 0.8056 0.82884 0.66817 0.0
C909 C 0.85648 0.80144 0.6438 0.0
C910 C 0.82283 0.80852 0.68655 0.0
C911 C 0.85703 0.78516 0.68367 0.0
H912 H 0.64984 0.65323 0.91616 0.0
H913 H 0.63751 0.67818 0.84535 0.0
H914 H 0.6734 0.61641 0.83659 0.0
H915 H 0.706 0.55395 0.8494 0.0
H916 H 0.71972 0.53119 0.92045 0.0
H917 H 0.68472 0.59313 0.92891 0.0
C918 C 0.6553 0.64516 0.89883 0.0
C919 C 0.64106 0.66978 0.88139 0.0
C920 C 0.67549 0.60978 0.89402 0.0
C921 C 0.64857 0.65959 0.85899 0.0
C922 C 0.66866 0.62418 0.85401 0.0
C923 C 0.70085 0.56252 0.86668 0.0
C924 C 0.71474 0.53808 0.8843 0.0
C925 C 0.68168 0.59873 0.87141 0.0
C926 C 0.70894 0.54964 0.90667 0.0
C927 C 0.68913 0.58503 0.9115 0.0
H928 H 0.42412 0.71032 0.85427 0.0
H929 H 0.43286 0.71787 0.92647 0.0
H930 H 0.36976 0.68275 0.93017 0.0
H931 H 0.31272 0.64923 0.91289 0.0
H932 H 0.30269 0.643 0.84074 0.0
H933 H 0.36527 0.6793 0.83691 0.0
C934 C 0.4123 0.70391 0.87078 0.0
C935 C 0.43318 0.71606 0.89008 0.0
C936 C 0.37561 0.68457 0.87276 0.0
C937 C 0.41727 0.70851 0.9114 0.0
C938 C 0.38121 0.68859 0.91352 0.0
C939 C 0.32423 0.65601 0.89634 0.0
C940 C 0.30341 0.64338 0.87712 0.0
C941 C 0.36018 0.6765 0.89432 0.0
C942 C 0.31815 0.65278 0.85575 0.0
C943 C 0.35405 0.67313 0.85358 0.0
H944 H 0.32497 0.32141 0.91628 0.0
H945 H 0.34142 0.2949 0.84621 0.0
H946 H 0.30707 0.35691 0.83561 0.0
H947 H 0.27364 0.41959 0.84655 0.0
H948 H 0.25496 0.44377 0.91675 0.0
H949 H 0.28973 0.38219 0.92714 0.0
C950 C 0.32087 0.32923 0.8987 0.0
C951 C 0.33571 0.3039 0.88203 0.0
C952 C 0.30131 0.36475 0.89282 0.0
C953 C 0.32986 0.31391 0.85929 0.0
C954 C 0.31061 0.34947 0.85326 0.0
C955 C 0.27771 0.41144 0.86408 0.0
C956 C 0.26242 0.43616 0.88091 0.0
C957 C 0.29662 0.37536 0.8699 0.0
C958 C 0.26683 0.42511 0.90357 0.0
C959 C 0.2865 0.38991 0.90951 0.0
H960 H 0.65796 0.32619 0.91945 0.0
H961 H 0.67379 0.3272 0.84768 0.0
H962 H 0.61117 0.29119 0.84263 0.0
H963 H 0.55079 0.26172 0.85873 0.0
H964 H 0.53682 0.25818 0.93066 0.0
H965 H 0.59964 0.29364 0.93564 0.0
C966 C 0.64772 0.31822 0.90274 0.0
C967 C 0.67009 0.32931 0.88394 0.0
C968 C 0.61186 0.29775 0.90002 0.0
C969 C 0.65702 0.31857 0.86236 0.0
C970 C 0.62113 0.2984 0.85948 0.0
C971 C 0.56143 0.26914 0.87545 0.0
C972 C 0.5392 0.25814 0.8943 0.0
C973 C 0.59804 0.2884 0.87818 0.0
C974 C 0.55352 0.2668 0.91593 0.0
C975 C 0.58939 0.28687 0.91878 0.0
H976 H 0.61903 0.34515 0.20185 0.0
H977 H 0.68688 0.2737 0.15542 0.0
H978 H 0.72804 0.33091 0.1468 0.0
H979 H 0.74052 0.40322 0.14918 0.0
H980 H 0.66443 0.47625 0.18993 0.0
H981 H 0.62937 0.41685 0.20312 0.0
C982 C 0.64219 0.34182 0.18949 0.0
C983 C 0.64893 0.30467 0.17915 0.0
C984 C 0.66388 0.37558 0.18318 0.0
C985 C 0.68082 0.30133 0.16405 0.0
C986 C 0.70419 0.33436 0.15876 0.0
C987 C 0.71626 0.40588 0.16097 0.0
C988 C 0.70473 0.44369 0.16858 0.0
C989 C 0.69527 0.37184 0.16773 0.0
C990 C 0.6733 0.44725 0.18374 0.0
C991 C 0.6535 0.41337 0.19134 0.0
H992 H 0.57895 0.75877 0.17187 0.0
H993 H 0.50778 0.65944 0.19366 0.0
H994 H 0.56627 0.61588 0.19316 0.0
H995 H 0.63678 0.60589 0.18561 0.0
H996 H 0.70959 0.70647 0.16711 0.0
H997 H 0.65104 0.74961 0.16694 0.0
C998 C 0.57633 0.72753 0.17642 0.0
C999 C 0.53919 0.7121 0.18258 0.0
C1000 C 0.61024 0.70297 0.17665 0.0
C1001 C 0.53614 0.67185 0.18884 0.0
C1002 C 0.56952 0.64699 0.18854 0.0
C1003 C 0.64029 0.63739 0.18205 0.0
C1004 C 0.67785 0.65265 0.17632 0.0
C1005 C 0.6067 0.66226 0.18249 0.0
C1006 C 0.68113 0.69353 0.1712 0.0
C1007 C 0.64764 0.71836 0.17121 0.0
H1008 H 0.20169 0.61721 0.14369 0.0
H1009 H 0.2783 0.52104 0.16605 0.0
H1010 H 0.32992 0.56893 0.17611 0.0
H1011 H 0.35406 0.63791 0.17729 0.0
H1012 H 0.27734 0.73401 0.15514 0.0
H1013 H 0.22454 0.68638 0.14674 0.0
C1014 C 0.22972 0.60672 0.15072 0.0
C1015 C 0.23637 0.56564 0.15388 0.0
C1016 C 0.25904 0.63441 0.1567 0.0
C1017 C 0.27255 0.55253 0.16336 0.0
C1018 C 0.30205 0.57987 0.16914 0.0
C1019 C 0.32567 0.64838 0.17073 0.0
C1020 C 0.31961 0.68934 0.16676 0.0
C1021 C 0.2957 0.62083 0.16572 0.0
C1022 C 0.28257 0.70265 0.15855 0.0
C1023 C 0.25253 0.67541 0.15354 0.0
H1024 H 0.30818 0.3277 0.19186 0.0
H1025 H 0.29507 0.34265 0.12015 0.0
H1026 H 0.35726 0.30679 0.11422 0.0
H1027 H 0.41617 0.27286 0.12929 0.0
H1028 H 0.42871 0.25407 0.20071 0.0
H1029 H 0.36606 0.28984 0.20697 0.0
C1030 C 0.31896 0.32281 0.17498 0.0
C1031 C 0.29711 0.3376 0.15647 0.0
C1032 C 0.35469 0.3018 0.17167 0.0
C1033 C 0.31115 0.33103 0.13464 0.0
C1034 C 0.34683 0.31082 0.13123 0.0
C1035 C 0.40525 0.27676 0.14623 0.0
C1036 C 0.42712 0.26143 0.16453 0.0
C1037 C 0.36898 0.2964 0.14961 0.0
C1038 C 0.41232 0.26584 0.18637 0.0
C1039 C 0.37657 0.28626 0.18994 0.0
H1040 H 0.06042 0.33897 0.49696 0.0
H1041 H 0.96328 0.27435 0.46656 0.0
H1042 H 0.93363 0.26481 0.50337 0.0
H1043 H 0.93512 0.27467 0.54415 0.0
H1044 H 0.03215 0.33891 0.57469 0.0
H1045 H 0.06287 0.34721 0.5379 0.0
C1046 C 0.03302 0.32239 0.49829 0.0
C1047 C 0.01422 0.30755 0.47877 0.0
C1048 C 0.0163 0.31652 0.51961 0.0
C1049 C 0.97827 0.28673 0.48106 0.0
C1050 C 0.96139 0.28093 0.50219 0.0
C1051 C 0.9629 0.29067 0.54279 0.0
C1052 C 0.98111 0.30636 0.56223 0.0
C1053 C 0.98008 0.29579 0.52156 0.0
C1054 C 0.0176 0.3262 0.56013 0.0
C1055 C 0.03501 0.33126 0.53904 0.0
H1056 H 0.62454 0.95763 0.56945 0.0
H1057 H 0.7203 0.0282 0.59629 0.0
H1058 H 0.73388 0.05458 0.55863 0.0
H1059 H 0.7225 0.05203 0.51761 0.0
H1060 H 0.62816 0.9787 0.49115 0.0
H1061 H 0.6098 0.95917 0.52911 0.0
C1062 C 0.64825 0.97896 0.56705 0.0
C1063 C 0.6718 0.9905 0.58553 0.0
C1064 C 0.65624 -0.00673 0.5454 0.0
C1065 C 0.70176 0.01893 0.58233 0.0
C1066 C 0.7097 0.03371 0.56078 0.0
C1067 C 0.69787 0.03186 0.52016 0.0
C1068 C 0.67707 0.01655 0.50145 0.0
C1069 C 0.68783 0.02019 0.5421 0.0
C1070 C 0.6446 0.99117 0.50512 0.0
C1071 C 0.63423 0.97973 0.52686 0.0
H1072 H 0.05196 0.63286 0.54366 0.0
H1073 H 0.94883 0.69117 0.5709 0.0
H1074 H 0.92022 0.69821 0.53319 0.0
H1075 H 0.92801 0.69434 0.49213 0.0
H1076 H 0.03082 0.63594 0.46471 0.0
H1077 H 0.05598 0.6219 0.5027 0.0
C1078 C 0.02302 0.64665 0.5413 0.0
C1079 C 0.00271 0.6618 0.56003 0.0
C1080 C 0.00687 0.65077 0.51952 0.0
C1081 C 0.96494 0.67906 0.55681 0.0
C1082 C 0.94873 0.68339 0.53522 0.0
C1083 C 0.95566 0.67807 0.49455 0.0
C1084 C 0.97774 0.6665 0.4757 0.0
C1085 C 0.96992 0.67034 0.51642 0.0
C1086 C 0.01323 0.64495 0.47896 0.0
C1087 C 0.02775 0.63724 0.50068 0.0
H1088 H 0.33903 0.05814 0.56443 0.0
H1089 H 0.28251 0.95408 0.59262 0.0
H1090 H 0.27623 0.92554 0.55524 0.0
H1091 H 0.28461 0.931 0.5146 0.0
H1092 H 0.33628 0.03741 0.48615 0.0
H1093 H 0.34666 0.06396 0.52373 0.0
C1094 C 0.32492 0.02941 0.56253 0.0
C1095 C 0.31106 0.00859 0.58156 0.0
C1096 C 0.32053 0.01349 0.54089 0.0
C1097 C 0.29384 0.97083 0.57851 0.0
C1098 C 0.28997 0.95452 0.55704 0.0
C1099 C 0.29773 0.96021 0.51643 0.0
C1100 C 0.30929 0.98213 0.49728 0.0
C1101 C 0.30282 0.97579 0.5381 0.0
C1102 C 0.32728 0.01952 0.50037 0.0
C1103 C 0.33303 0.03492 0.52193 0.0
H1104 H 0.5621 0.81194 1.01029 0.0
H1105 H 0.4543 0.76176 0.98283 0.0
H1106 H 0.42631 0.7579 1.02048 0.0
H1107 H 0.43212 0.76973 0.06095 0.0
H1108 H 0.53951 0.82055 0.08837 0.0
H1109 H 0.56885 0.82146 0.05093 0.0
C1110 C 0.53271 0.79959 1.01247 0.0
C1111 C 0.51036 0.78718 0.99362 0.0
C1112 C 0.51694 0.79721 0.03417 0.0
C1113 C 0.47197 0.77204 0.99691 0.0
C1114 C 0.45606 0.76955 1.01847 0.0
C1115 C 0.4619 0.78117 0.05876 0.0
C1116 C 0.48343 0.79545 0.07745 0.0
C1117 C 0.47819 0.7823 0.03717 0.0
C1118 C 0.52238 0.80916 0.07436 0.0
C1119 C 0.53901 0.81001 0.05291 0.0
H1120 H 0.21069 0.43385 0.04393 0.0
H1121 H 0.12006 0.51399 0.06787 0.0
H1122 H 0.10543 0.53528 0.02936 0.0
H1123 H 0.12198 0.53506 0.98924 0.0
H1124 H 0.21328 0.45606 0.9651 0.0
H1125 H 0.22391 0.43009 1.00326 0.0
C1126 C 0.18767 0.45589 0.0407 0.0
C1127 C 0.16679 0.47257 0.05885 0.0
C1128 C 0.17967 0.46829 1.01848 0.0
C1129 C 0.13644 0.50047 0.05431 0.0
C1130 C 0.12826 0.51289 0.03227 0.0
C1131 C 0.14415 0.51209 0.99233 0.0
C1132 C 0.1672 0.49788 0.97439 0.0
C1133 C 0.15025 0.49762 1.0143 0.0
C1134 C 0.19512 0.46741 0.97857 0.0
C1135 C 0.20136 0.45278 1.00042 0.0
H1136 H 0.55381 0.19147 0.06142 0.0
H1137 H 0.44218 0.15839 0.09137 0.0
H1138 H 0.41285 0.15031 0.05406 0.0
H1139 H 0.41809 0.15525 1.01312 0.0
H1140 H 0.52837 0.19364 0.98348 0.0
H1141 H 0.55886 0.19708 1.02064 0.0
C1142 C 0.52292 0.18293 0.05996 0.0
C1143 C 0.50029 0.176 0.07944 0.0
C1144 C 0.50591 0.17932 0.03845 0.0
C1145 C 0.46059 0.16374 0.07687 0.0
C1146 C 0.44365 0.15937 0.05547 0.0
C1147 C 0.44866 0.1648 1.01463 0.0
C1148 C 0.47062 0.17438 0.99523 0.0
C1149 C 0.4659 0.16758 0.03616 0.0
C1150 C 0.5106 0.1857 0.99786 0.0
C1151 C 0.5281 0.18792 1.0192 0.0
H1152 H 0.83868 0.4325 0.99947 0.0
H1153 H 0.76288 0.52283 0.96975 0.0
H1154 H 0.7515 0.55141 1.00692 0.0
H1155 H 0.7604 0.54835 0.04807 0.0
H1156 H 0.83375 0.45537 0.07739 0.0
H1157 H 0.84873 0.4303 0.04014 0.0
C1158 C 0.81944 0.45829 1.00106 0.0
C1159 C 0.80127 0.47514 0.98181 0.0
C1160 C 0.81254 0.47407 1.02246 0.0
C1161 C 0.77739 0.50932 0.98422 0.0
C1162 C 0.77065 0.5255 1.00551 0.0
C1163 C 0.77949 0.52248 0.04637 0.0
C1164 C 0.79571 0.50379 0.0657 0.0
C1165 C 0.78758 0.50772 1.02479 0.0
C1166 C 0.8211 0.47077 0.06298 0.0
C1167 C 0.82952 0.45616 0.04162 0.0
loop_
_geom_bond_atom_site_label_1
_geom_bond_atom_site_label_2
_geom_bond_distance
_geom_bond_site_symmetry_2
_ccdc_geom_bond_type
Co0 N4 2.148 . S
Co0 N10 2.128 . S
Co0 N20 2.194 . S
Co0 O25 2.351 . S
Co0 O26 2.155 . S
Co0 O27 2.096 1_455 S
C1 N4 1.301 . S
C1 N5 1.328 . S
C1 H6 0.930 . S
C2 C3 1.333 . S
C2 N4 1.317 . S
C2 H7 0.930 1_455 S
C3 C2 1.333 . S
C3 N5 1.350 . S
C3 H29 0.931 1_455 S
N4 Co0 2.148 . S
N4 C1 1.301 . S
N4 C2 1.317 . S
N5 C1 1.328 . S
N5 C3 1.350 . S
H6 C1 0.930 . S
H7 C2 0.930 1_655 S
C8 O9 1.224 . S
C8 O27 1.247 . S
O9 C8 1.224 . S
N10 Co0 2.128 . S
N10 C11 1.355 . S
N10 C13 1.326 . S
C11 N10 1.355 . S
C11 C12 1.363 . S
C11 H23 0.929 . S
C12 C11 1.363 . S
C12 N14 1.375 . S
C12 H30 0.931 . S
C13 N10 1.326 . S
C13 N14 1.354 . S
C13 H24 0.910 1_455 S
N14 C12 1.375 . S
N14 C13 1.354 . S
C15 C18 1.365 . S
C15 N20 1.328 . S
C15 H21 0.929 . S
C16 C17 1.362 . S
C16 C19 1.378 . S
C16 H31 0.929 . S
C17 C16 1.362 . S
C17 C18 1.366 . S
C18 C15 1.365 . S
C18 C17 1.366 . S
C18 H32 0.930 . S
C19 C16 1.378 . S
C19 N20 1.315 . S
C19 H22 0.930 . S
N20 Co0 2.194 . S
N20 C15 1.328 . S
N20 C19 1.315 . S
H21 C15 0.929 . S
H22 C19 0.930 . S
H23 C11 0.929 . S
H24 C13 0.910 1_655 S
O25 Co0 2.351 . S
O25 C28 1.244 . S
O26 Co0 2.155 . S
O26 C28 1.240 . S
O27 Co0 2.096 1_655 S
O27 C8 1.247 . S
C28 O25 1.244 . S
C28 O26 1.240 . S
H29 C3 0.931 1_655 S
H30 C12 0.931 . S
H31 C16 0.929 . S
H32 C18 0.930 . S
Co33 N37 2.148 . S
Co33 N43 2.128 . S
Co33 N53 2.194 . S
Co33 O58 2.351 . S
Co33 O59 2.155 . S
Co33 O60 2.096 1_545 S
C34 N37 1.301 . S
C34 N38 1.328 . S
C34 H39 0.930 . S
C35 C36 1.333 . S
C35 N37 1.317 . S
C35 H40 0.930 1_545 S
C36 C35 1.333 . S
C36 N38 1.350 . S
C36 H62 0.931 1_545 S
N37 Co33 2.148 . S
N37 C34 1.301 . S
N37 C35 1.317 . S
N38 C34 1.328 . S
N38 C36 1.350 . S
H39 C34 0.930 . S
H40 C35 0.930 1_565 S
C41 O42 1.224 . S
C41 O60 1.247 . S
O42 C41 1.224 . S
N43 Co33 2.128 . S
N43 C44 1.355 . S
N43 C46 1.326 . S
C44 N43 1.355 . S
C44 C45 1.363 . S
C44 H56 0.929 . S
C45 C44 1.363 . S
C45 N47 1.375 . S
C45 H63 0.931 . S
C46 N43 1.326 . S
C46 N47 1.354 . S
C46 H57 0.910 1_545 S
N47 C45 1.375 . S
N47 C46 1.354 . S
C48 C51 1.365 . S
C48 N53 1.328 . S
C48 H54 0.929 . S
C49 C50 1.362 . S
C49 C52 1.378 . S
C49 H64 0.929 . S
C50 C49 1.362 . S
C50 C51 1.366 . S
C51 C48 1.365 . S
C51 C50 1.366 . S
C51 H65 0.930 . S
C52 C49 1.378 . S
C52 N53 1.315 . S
C52 H55 0.930 . S
N53 Co33 2.194 . S
N53 C48 1.328 . S
N53 C52 1.315 . S
H54 C48 0.929 . S
H55 C52 0.930 . S
H56 C44 0.929 . S
H57 C46 0.910 1_565 S
O58 Co33 2.351 . S
O58 C61 1.244 . S
O59 Co33 2.155 . S
O59 C61 1.240 . S
O60 Co33 2.096 1_565 S
O60 C41 1.247 . S
C61 O58 1.244 . S
C61 O59 1.240 . S
H62 C36 0.931 1_565 S
H63 C45 0.931 . S
H64 C49 0.929 . S
H65 C51 0.930 . S
Co66 N70 2.148 . S
Co66 N76 2.128 . S
Co66 N86 2.194 . S
Co66 O91 2.351 . S
Co66 O92 2.155 . S
Co66 O93 2.096 1_655 S
C67 N70 1.301 . S
C67 N71 1.328 . S
C67 H72 0.930 . S
C68 C69 1.333 . S
C68 N70 1.317 . S
C68 H73 0.930 1_655 S
C69 C68 1.333 . S
C69 N71 1.350 . S
C69 H95 0.931 1_655 S
N70 Co66 2.148 . S
N70 C67 1.301 . S
N70 C68 1.317 . S
N71 C67 1.328 . S
N71 C69 1.350 . S
H72 C67 0.930 . S
H73 C68 0.930 1_455 S
C74 O75 1.224 . S
C74 O93 1.247 . S
O75 C74 1.224 . S
N76 Co66 2.128 . S
N76 C77 1.355 . S
N76 C79 1.326 . S
C77 N76 1.355 . S
C77 C78 1.363 . S
C77 H89 0.929 . S
C78 C77 1.363 . S
C78 N80 1.375 . S
C78 H96 0.931 . S
C79 N76 1.326 . S
C79 N80 1.354 . S
C79 H90 0.910 1_655 S
N80 C78 1.375 . S
N80 C79 1.354 . S
C81 C84 1.365 . S
C81 N86 1.328 . S
C81 H87 0.929 . S
C82 C83 1.362 . S
C82 C85 1.378 . S
C82 H97 0.929 . S
C83 C82 1.362 . S
C83 C84 1.366 . S
C84 C81 1.365 . S
C84 C83 1.366 . S
C84 H98 0.930 . S
C85 C82 1.378 . S
C85 N86 1.315 . S
C85 H88 0.930 . S
N86 Co66 2.194 . S
N86 C81 1.328 . S
N86 C85 1.315 . S
H87 C81 0.929 . S
H88 C85 0.930 . S
H89 C77 0.929 . S
H90 C79 0.910 1_455 S
O91 Co66 2.351 . S
O91 C94 1.244 . S
O92 Co66 2.155 . S
O92 C94 1.240 . S
O93 Co66 2.096 1_455 S
O93 C74 1.247 . S
C94 O91 1.244 . S
C94 O92 1.240 . S
H95 C69 0.931 1_455 S
H96 C78 0.931 . S
H97 C82 0.929 . S
H98 C84 0.930 . S
Co99 N103 2.148 . S
Co99 N109 2.128 . S
Co99 N119 2.194 . S
Co99 O124 2.351 . S
Co99 O125 2.155 . S
Co99 O126 2.096 1_565 S
C100 N103 1.301 . S
C100 N104 1.328 . S
C100 H105 0.930 . S
C101 C102 1.333 . S
C101 N103 1.317 . S
C101 H106 0.930 1_565 S
C102 C101 1.333 . S
C102 N104 1.350 . S
C102 H128 0.931 1_565 S
N103 Co99 2.148 . S
N103 C100 1.301 . S
N103 C101 1.317 . S
N104 C100 1.328 . S
N104 C102 1.350 . S
H105 C100 0.930 . S
H106 C101 0.930 1_545 S
C107 O108 1.224 . S
C107 O126 1.247 . S
O108 C107 1.224 . S
N109 Co99 2.128 . S
N109 C110 1.355 . S
N109 C112 1.326 . S
C110 N109 1.355 . S
C110 C111 1.363 . S
C110 H122 0.929 . S
C111 C110 1.363 . S
C111 N113 1.375 . S
C111 H129 0.931 . S
C112 N109 1.326 . S
C112 N113 1.354 . S
C112 H123 0.910 1_565 S
N113 C111 1.375 . S
N113 C112 1.354 . S
C114 C117 1.365 . S
C114 N119 1.328 . S
C114 H120 0.929 . S
C115 C116 1.362 . S
C115 C118 1.378 . S
C115 H130 0.929 . S
C116 C115 1.362 . S
C116 C117 1.366 . S
C117 C114 1.365 . S
C117 C116 1.366 . S
C117 H131 0.930 . S
C118 C115 1.378 . S
C118 N119 1.315 . S
C118 H121 0.930 . S
N119 Co99 2.194 . S
N119 C114 1.328 . S
N119 C118 1.315 . S
H120 C114 0.929 . S
H121 C118 0.930 . S
H122 C110 0.929 . S
H123 C112 0.910 1_545 S
O124 Co99 2.351 . S
O124 C127 1.244 . S
O125 Co99 2.155 . S
O125 C127 1.240 . S
O126 Co99 2.096 1_545 S
O126 C107 1.247 . S
C127 O124 1.244 . S
C127 O125 1.240 . S
H128 C102 0.931 1_545 S
H129 C111 0.931 . S
H130 C115 0.929 . S
H131 C117 0.930 . S
Co132 N136 2.148 . S
Co132 N142 2.128 . S
Co132 N152 2.194 . S
Co132 O157 2.351 . S
Co132 O158 2.155 . S
Co132 O159 2.096 1_455 S
C133 N136 1.301 . S
C133 N137 1.328 . S
C133 H138 0.930 . S
C134 C135 1.333 . S
C134 N136 1.317 . S
C134 H139 0.930 1_455 S
C135 C134 1.333 . S
C135 N137 1.350 . S
C135 H161 0.931 1_455 S
N136 Co132 2.148 . S
N136 C133 1.301 . S
N136 C134 1.317 . S
N137 C133 1.328 . S
N137 C135 1.350 . S
H138 C133 0.930 . S
H139 C134 0.930 1_655 S
C140 O141 1.224 . S
C140 O159 1.247 . S
O141 C140 1.224 . S
N142 Co132 2.128 . S
N142 C143 1.355 . S
N142 C145 1.326 . S
C143 N142 1.355 . S
C143 C144 1.363 . S
C143 H155 0.929 . S
C144 C143 1.363 . S
C144 N146 1.375 . S
C144 H162 0.931 . S
C145 N142 1.326 . S
C145 N146 1.354 . S
C145 H156 0.910 1_455 S
N146 C144 1.375 . S
N146 C145 1.354 . S
C147 C150 1.365 . S
C147 N152 1.328 . S
C147 H153 0.929 . S
C148 C149 1.362 . S
C148 C151 1.378 . S
C148 H163 0.929 . S
C149 C148 1.362 . S
C149 C150 1.366 . S
C150 C147 1.365 . S
C150 C149 1.366 . S
C150 H164 0.930 . S
C151 C148 1.378 . S
C151 N152 1.315 . S
C151 H154 0.930 . S
N152 Co132 2.194 . S
N152 C147 1.328 . S
N152 C151 1.315 . S
H153 C147 0.929 . S
H154 C151 0.930 . S
H155 C143 0.929 . S
H156 C145 0.910 1_655 S
O157 Co132 2.351 . S
O157 C160 1.244 . S
O158 Co132 2.155 . S
O158 C160 1.240 . S
O159 Co132 2.096 1_655 S
O159 C140 1.247 . S
C160 O157 1.244 . S
C160 O158 1.240 . S
H161 C135 0.931 1_655 S
H162 C144 0.931 . S
H163 C148 0.929 . S
H164 C150 0.930 . S
Co165 N169 2.148 . S
Co165 N175 2.128 . S
Co165 N185 2.194 . S
Co165 O190 2.351 . S
Co165 O191 2.155 . S
Co165 O192 2.096 1_545 S
C166 N169 1.301 . S
C166 N170 1.328 . S
C166 H171 0.930 . S
C167 C168 1.333 . S
C167 N169 1.317 . S
C167 H172 0.930 1_545 S
C168 C167 1.333 . S
C168 N170 1.350 . S
C168 H194 0.931 1_545 S
N169 Co165 2.148 . S
N169 C166 1.301 . S
N169 C167 1.317 . S
N170 C166 1.328 . S
N170 C168 1.350 . S
H171 C166 0.930 . S
H172 C167 0.930 1_565 S
C173 O174 1.224 . S
C173 O192 1.247 . S
O174 C173 1.224 . S
N175 Co165 2.128 . S
N175 C176 1.355 . S
N175 C178 1.326 . S
C176 N175 1.355 . S
C176 C177 1.363 . S
C176 H188 0.929 . S
C177 C176 1.363 . S
C177 N179 1.375 . S
C177 H195 0.931 . S
C178 N175 1.326 . S
C178 N179 1.354 . S
C178 H189 0.910 1_545 S
N179 C177 1.375 . S
N179 C178 1.354 . S
C180 C183 1.365 . S
C180 N185 1.328 . S
C180 H186 0.929 . S
C181 C182 1.362 . S
C181 C184 1.378 . S
C181 H196 0.929 . S
C182 C181 1.362 . S
C182 C183 1.366 . S
C183 C180 1.365 . S
C183 C182 1.366 . S
C183 H197 0.930 . S
C184 C181 1.378 . S
C184 N185 1.315 . S
C184 H187 0.930 . S
N185 Co165 2.194 . S
N185 C180 1.328 . S
N185 C184 1.315 . S
H186 C180 0.929 . S
H187 C184 0.930 . S
H188 C176 0.929 . S
H189 C178 0.910 1_565 S
O190 Co165 2.351 . S
O190 C193 1.244 . S
O191 Co165 2.155 . S
O191 C193 1.240 . S
O192 Co165 2.096 1_565 S
O192 C173 1.247 . S
C193 O190 1.244 . S
C193 O191 1.240 . S
H194 C168 0.931 1_565 S
H195 C177 0.931 . S
H196 C181 0.929 . S
H197 C183 0.930 . S
Co198 N202 2.148 . S
Co198 N208 2.128 . S
Co198 N218 2.194 . S
Co198 O223 2.351 . S
Co198 O224 2.155 . S
Co198 O225 2.096 1_655 S
C199 N202 1.301 . S
C199 N203 1.328 . S
C199 H204 0.930 . S
C200 C201 1.333 . S
C200 N202 1.317 . S
C200 H205 0.930 1_655 S
C201 C200 1.333 . S
C201 N203 1.350 . S
C201 H227 0.931 1_655 S
N202 Co198 2.148 . S
N202 C199 1.301 . S
N202 C200 1.317 . S
N203 C199 1.328 . S
N203 C201 1.350 . S
H204 C199 0.930 . S
H205 C200 0.930 1_455 S
C206 O207 1.224 . S
C206 O225 1.247 . S
O207 C206 1.224 . S
N208 Co198 2.128 . S
N208 C209 1.355 . S
N208 C211 1.326 . S
C209 N208 1.355 . S
C209 C210 1.363 . S
C209 H221 0.929 . S
C210 C209 1.363 . S
C210 N212 1.375 . S
C210 H228 0.931 . S
C211 N208 1.326 . S
C211 N212 1.354 . S
C211 H222 0.910 1_655 S
N212 C210 1.375 . S
N212 C211 1.354 . S
C213 C216 1.365 . S
C213 N218 1.328 . S
C213 H219 0.929 . S
C214 C215 1.362 . S
C214 C217 1.378 . S
C214 H229 0.929 . S
C215 C214 1.362 . S
C215 C216 1.366 . S
C216 C213 1.365 . S
C216 C215 1.366 . S
C216 H230 0.930 . S
C217 C214 1.378 . S
C217 N218 1.315 . S
C217 H220 0.930 . S
N218 Co198 2.194 . S
N218 C213 1.328 . S
N218 C217 1.315 . S
H219 C213 0.929 . S
H220 C217 0.930 . S
H221 C209 0.929 . S
H222 C211 0.910 1_455 S
O223 Co198 2.351 . S
O223 C226 1.244 . S
O224 Co198 2.155 . S
O224 C226 1.240 . S
O225 Co198 2.096 1_455 S
O225 C206 1.247 . S
C226 O223 1.244 . S
C226 O224 1.240 . S
H227 C201 0.931 1_455 S
H228 C210 0.931 . S
H229 C214 0.929 . S
H230 C216 0.930 . S
Co231 N235 2.148 . S
Co231 N241 2.128 . S
Co231 N251 2.194 . S
Co231 O256 2.351 . S
Co231 O257 2.155 . S
Co231 O258 2.096 1_565 S
C232 N235 1.301 . S
C232 N236 1.328 . S
C232 H237 0.930 . S
C233 C234 1.333 . S
C233 N235 1.317 . S
C233 H238 0.930 1_565 S
C234 C233 1.333 . S
C234 N236 1.350 . S
C234 H260 0.931 1_565 S
N235 Co231 2.148 . S
N235 C232 1.301 . S
N235 C233 1.317 . S
N236 C232 1.328 . S
N236 C234 1.350 . S
H237 C232 0.930 . S
H238 C233 0.930 1_545 S
C239 O240 1.224 . S
C239 O258 1.247 . S
O240 C239 1.224 . S
N241 Co231 2.128 . S
N241 C242 1.355 . S
N241 C244 1.326 . S
C242 N241 1.355 . S
C242 C243 1.363 . S
C242 H254 0.929 . S
C243 C242 1.363 . S
C243 N245 1.375 . S
C243 H261 0.931 . S
C244 N241 1.326 . S
C244 N245 1.354 . S
C244 H255 0.910 1_565 S
N245 C243 1.375 . S
N245 C244 1.354 . S
C246 C249 1.365 . S
C246 N251 1.328 . S
C246 H252 0.929 . S
C247 C248 1.362 . S
C247 C250 1.378 . S
C247 H262 0.929 . S
C248 C247 1.362 . S
C248 C249 1.366 . S
C249 C246 1.365 . S
C249 C248 1.366 . S
C249 H263 0.930 . S
C250 C247 1.378 . S
C250 N251 1.315 . S
C250 H253 0.930 . S
N251 Co231 2.194 . S
N251 C246 1.328 . S
N251 C250 1.315 . S
H252 C246 0.929 . S
H253 C250 0.930 . S
H254 C242 0.929 . S
H255 C244 0.910 1_545 S
O256 Co231 2.351 . S
O256 C259 1.244 . S
O257 Co231 2.155 . S
O257 C259 1.240 . S
O258 Co231 2.096 1_545 S
O258 C239 1.247 . S
C259 O256 1.244 . S
C259 O257 1.240 . S
H260 C234 0.931 1_545 S
H261 C243 0.931 . S
H262 C247 0.929 . S
H263 C249 0.930 . S
Co264 N268 2.148 . S
Co264 N274 2.128 . S
Co264 N284 2.194 . S
Co264 O289 2.351 . S
Co264 O290 2.155 . S
Co264 O291 2.096 . S
C265 N268 1.301 . S
C265 N269 1.328 . S
C265 H270 0.930 . S
C266 C267 1.333 . S
C266 N268 1.317 . S
C266 H271 0.930 . S
C267 C266 1.333 . S
C267 N269 1.350 . S
C267 H293 0.931 . S
N268 Co264 2.148 . S
N268 C265 1.301 . S
N268 C266 1.317 . S
N269 C265 1.328 . S
N269 C267 1.350 . S
H270 C265 0.930 . S
H271 C266 0.930 . S
C272 O273 1.224 . S
C272 O291 1.247 . S
O273 C272 1.224 . S
N274 Co264 2.128 . S
N274 C275 1.355 . S
N274 C277 1.311 . S
C275 N274 1.355 . S
C275 C276 1.363 . S
C275 H287 0.929 . S
C276 C275 1.363 . S
C276 N278 1.375 . S
C276 H294 0.931 . S
C277 N274 1.311 . S
C277 N278 1.347 . S
C277 H288 0.929 . S
N278 C276 1.375 . S
N278 C277 1.347 . S
C279 C282 1.365 . S
C279 N284 1.328 . S
C279 H285 0.929 . S
C280 C281 1.362 . S
C280 C283 1.378 . S
C280 H295 0.929 . S
C281 C280 1.362 . S
C281 C282 1.366 . S
C282 C279 1.365 . S
C282 C281 1.366 . S
C282 H296 0.930 . S
C283 C280 1.378 . S
C283 N284 1.315 . S
C283 H286 0.930 . S
N284 Co264 2.194 . S
N284 C279 1.328 . S
N284 C283 1.315 . S
H285 C279 0.929 . S
H286 C283 0.930 . S
H287 C275 0.929 . S
H288 C277 0.929 . S
O289 Co264 2.351 . S
O289 C292 1.244 . S
O290 Co264 2.155 . S
O290 C292 1.240 . S
O291 Co264 2.096 . S
O291 C272 1.247 . S
C292 O289 1.244 . S
C292 O290 1.240 . S
H293 C267 0.931 . S
H294 C276 0.931 . S
H295 C280 0.929 . S
H296 C282 0.930 . S
Co297 N301 2.148 . S
Co297 N307 2.128 . S
Co297 N317 2.194 . S
Co297 O322 2.351 . S
Co297 O323 2.155 . S
Co297 O324 2.096 . S
C298 N301 1.301 . S
C298 N302 1.328 . S
C298 H303 0.930 . S
C299 C300 1.333 . S
C299 N301 1.317 . S
C299 H304 0.930 . S
C300 C299 1.333 . S
C300 N302 1.350 . S
C300 H326 0.931 . S
N301 Co297 2.148 . S
N301 C298 1.301 . S
N301 C299 1.317 . S
N302 C298 1.328 . S
N302 C300 1.350 . S
H303 C298 0.930 . S
H304 C299 0.930 . S
C305 O306 1.224 . S
C305 O324 1.247 . S
O306 C305 1.224 . S
N307 Co297 2.128 . S
N307 C308 1.355 . S
N307 C310 1.311 . S
C308 N307 1.355 . S
C308 C309 1.363 . S
C308 H320 0.929 . S
C309 C308 1.363 . S
C309 N311 1.375 . S
C309 H327 0.931 . S
C310 N307 1.311 . S
C310 N311 1.347 . S
C310 H321 0.929 . S
N311 C309 1.375 . S
N311 C310 1.347 . S
C312 C315 1.365 . S
C312 N317 1.328 . S
C312 H318 0.929 . S
C313 C314 1.362 . S
C313 C316 1.378 . S
C313 H328 0.929 . S
C314 C313 1.362 . S
C314 C315 1.366 . S
C315 C312 1.365 . S
C315 C314 1.366 . S
C315 H329 0.930 . S
C316 C313 1.378 . S
C316 N317 1.315 . S
C316 H319 0.930 . S
N317 Co297 2.194 . S
N317 C312 1.328 . S
N317 C316 1.315 . S
H318 C312 0.929 . S
H319 C316 0.930 . S
H320 C308 0.929 . S
H321 C310 0.929 . S
O322 Co297 2.351 . S
O322 C325 1.244 . S
O323 Co297 2.155 . S
O323 C325 1.240 . S
O324 Co297 2.096 . S
O324 C305 1.247 . S
C325 O322 1.244 . S
C325 O323 1.240 . S
H326 C300 0.931 . S
H327 C309 0.931 . S
H328 C313 0.929 . S
H329 C315 0.930 . S
Co330 N334 2.148 . S
Co330 N340 2.128 . S
Co330 N350 2.194 . S
Co330 O355 2.351 . S
Co330 O356 2.155 . S
Co330 O357 2.096 . S
C331 N334 1.301 . S
C331 N335 1.328 . S
C331 H336 0.930 . S
C332 C333 1.333 . S
C332 N334 1.317 . S
C332 H337 0.930 . S
C333 C332 1.333 . S
C333 N335 1.350 . S
C333 H359 0.931 . S
N334 Co330 2.148 . S
N334 C331 1.301 . S
N334 C332 1.317 . S
N335 C331 1.328 . S
N335 C333 1.350 . S
H336 C331 0.930 . S
H337 C332 0.930 . S
C338 O339 1.224 . S
C338 O357 1.247 . S
O339 C338 1.224 . S
N340 Co330 2.128 . S
N340 C341 1.355 . S
N340 C343 1.311 . S
C341 N340 1.355 . S
C341 C342 1.363 . S
C341 H353 0.929 . S
C342 C341 1.363 . S
C342 N344 1.375 . S
C342 H360 0.931 . S
C343 N340 1.311 . S
C343 N344 1.347 . S
C343 H354 0.929 . S
N344 C342 1.375 . S
N344 C343 1.347 . S
C345 C348 1.365 . S
C345 N350 1.328 . S
C345 H351 0.929 . S
C346 C347 1.362 . S
C346 C349 1.378 . S
C346 H361 0.929 . S
C347 C346 1.362 . S
C347 C348 1.366 . S
C348 C345 1.365 . S
C348 C347 1.366 . S
C348 H362 0.930 . S
C349 C346 1.378 . S
C349 N350 1.315 . S
C349 H352 0.930 . S
N350 Co330 2.194 . S
N350 C345 1.328 . S
N350 C349 1.315 . S
H351 C345 0.929 . S
H352 C349 0.930 . S
H353 C341 0.929 . S
H354 C343 0.929 . S
O355 Co330 2.351 . S
O355 C358 1.244 . S
O356 Co330 2.155 . S
O356 C358 1.240 . S
O357 Co330 2.096 . S
O357 C338 1.247 . S
C358 O355 1.244 . S
C358 O356 1.240 . S
H359 C333 0.931 . S
H360 C342 0.931 . S
H361 C346 0.929 . S
H362 C348 0.930 . S
Co363 N367 2.148 . S
Co363 N373 2.128 . S
Co363 N383 2.194 . S
Co363 O388 2.351 . S
Co363 O389 2.155 . S
Co363 O390 2.096 . S
C364 N367 1.301 . S
C364 N368 1.328 . S
C364 H369 0.930 . S
C365 C366 1.333 . S
C365 N367 1.317 . S
C365 H370 0.930 . S
C366 C365 1.333 . S
C366 N368 1.350 . S
C366 H392 0.931 . S
N367 Co363 2.148 . S
N367 C364 1.301 . S
N367 C365 1.317 . S
N368 C364 1.328 . S
N368 C366 1.350 . S
H369 C364 0.930 . S
H370 C365 0.930 . S
C371 O372 1.224 . S
C371 O390 1.247 . S
O372 C371 1.224 . S
N373 Co363 2.128 . S
N373 C374 1.355 . S
N373 C376 1.311 . S
C374 N373 1.355 . S
C374 C375 1.363 . S
C374 H386 0.929 . S
C375 C374 1.363 . S
C375 N377 1.375 . S
C375 H393 0.931 . S
C376 N373 1.311 . S
C376 N377 1.347 . S
C376 H387 0.929 . S
N377 C375 1.375 . S
N377 C376 1.347 . S
C378 C381 1.365 . S
C378 N383 1.328 . S
C378 H384 0.929 . S
C379 C380 1.362 . S
C379 C382 1.378 . S
C379 H394 0.929 . S
C380 C379 1.362 . S
C380 C381 1.366 . S
C381 C378 1.365 . S
C381 C380 1.366 . S
C381 H395 0.930 . S
C382 C379 1.378 . S
C382 N383 1.315 . S
C382 H385 0.930 . S
N383 Co363 2.194 . S
N383 C378 1.328 . S
N383 C382 1.315 . S
H384 C378 0.929 . S
H385 C382 0.930 . S
H386 C374 0.929 . S
H387 C376 0.929 . S
O388 Co363 2.351 . S
O388 C391 1.244 . S
O389 Co363 2.155 . S
O389 C391 1.240 . S
O390 Co363 2.096 . S
O390 C371 1.247 . S
C391 O388 1.244 . S
C391 O389 1.240 . S
H392 C366 0.931 . S
H393 C375 0.931 . S
H394 C379 0.929 . S
H395 C381 0.930 . S
Co396 N400 2.148 . S
Co396 N406 2.128 . S
Co396 N416 2.194 . S
Co396 O421 2.351 . S
Co396 O422 2.155 . S
Co396 O423 2.096 . S
C397 N400 1.301 . S
C397 N401 1.328 . S
C397 H402 0.930 . S
C398 C399 1.333 . S
C398 N400 1.317 . S
C398 H403 0.930 . S
C399 C398 1.333 . S
C399 N401 1.350 . S
C399 H425 0.931 . S
N400 Co396 2.148 . S
N400 C397 1.301 . S
N400 C398 1.317 . S
N401 C397 1.328 . S
N401 C399 1.350 . S
H402 C397 0.930 . S
H403 C398 0.930 . S
C404 O405 1.224 . S
C404 O423 1.247 . S
O405 C404 1.224 . S
N406 Co396 2.128 . S
N406 C407 1.355 . S
N406 C409 1.311 . S
C407 N406 1.355 . S
C407 C408 1.363 . S
C407 H419 0.929 . S
C408 C407 1.363 . S
C408 N410 1.375 . S
C408 H426 0.931 . S
C409 N406 1.311 . S
C409 N410 1.347 . S
C409 H420 0.929 . S
N410 C408 1.375 . S
N410 C409 1.347 . S
C411 C414 1.365 . S
C411 N416 1.328 . S
C411 H417 0.929 . S
C412 C413 1.362 . S
C412 C415 1.378 . S
C412 H427 0.929 . S
C413 C412 1.362 . S
C413 C414 1.366 . S
C414 C411 1.365 . S
C414 C413 1.366 . S
C414 H428 0.930 . S
C415 C412 1.378 . S
C415 N416 1.315 . S
C415 H418 0.930 . S
N416 Co396 2.194 . S
N416 C411 1.328 . S
N416 C415 1.315 . S
H417 C411 0.929 . S
H418 C415 0.930 . S
H419 C407 0.929 . S
H420 C409 0.929 . S
O421 Co396 2.351 . S
O421 C424 1.244 . S
O422 Co396 2.155 . S
O422 C424 1.240 . S
O423 Co396 2.096 . S
O423 C404 1.247 . S
C424 O421 1.244 . S
C424 O422 1.240 . S
H425 C399 0.931 . S
H426 C408 0.931 . S
H427 C412 0.929 . S
H428 C414 0.930 . S
Co429 N433 2.148 . S
Co429 N439 2.128 . S
Co429 N449 2.194 . S
Co429 O454 2.351 . S
Co429 O455 2.155 . S
Co429 O456 2.096 . S
C430 N433 1.301 . S
C430 N434 1.328 . S
C430 H435 0.930 . S
C431 C432 1.333 . S
C431 N433 1.317 . S
C431 H436 0.930 . S
C432 C431 1.333 . S
C432 N434 1.350 . S
C432 H458 0.931 . S
N433 Co429 2.148 . S
N433 C430 1.301 . S
N433 C431 1.317 . S
N434 C430 1.328 . S
N434 C432 1.350 . S
H435 C430 0.930 . S
H436 C431 0.930 . S
C437 O438 1.224 . S
C437 O456 1.247 . S
O438 C437 1.224 . S
N439 Co429 2.128 . S
N439 C440 1.355 . S
N439 C442 1.311 . S
C440 N439 1.355 . S
C440 C441 1.363 . S
C440 H452 0.929 . S
C441 C440 1.363 . S
C441 N443 1.375 . S
C441 H459 0.931 . S
C442 N439 1.311 . S
C442 N443 1.347 . S
C442 H453 0.929 . S
N443 C441 1.375 . S
N443 C442 1.347 . S
C444 C447 1.365 . S
C444 N449 1.328 . S
C444 H450 0.929 . S
C445 C446 1.362 . S
C445 C448 1.378 . S
C445 H460 0.929 . S
C446 C445 1.362 . S
C446 C447 1.366 . S
C447 C444 1.365 . S
C447 C446 1.366 . S
C447 H461 0.930 . S
C448 C445 1.378 . S
C448 N449 1.315 . S
C448 H451 0.930 . S
N449 Co429 2.194 . S
N449 C444 1.328 . S
N449 C448 1.315 . S
H450 C444 0.929 . S
H451 C448 0.930 . S
H452 C440 0.929 . S
H453 C442 0.929 . S
O454 Co429 2.351 . S
O454 C457 1.244 . S
O455 Co429 2.155 . S
O455 C457 1.240 . S
O456 Co429 2.096 . S
O456 C437 1.247 . S
C457 O454 1.244 . S
C457 O455 1.240 . S
H458 C432 0.931 . S
H459 C441 0.931 . S
H460 C445 0.929 . S
H461 C447 0.930 . S
Co462 N466 2.148 . S
Co462 N472 2.128 . S
Co462 N482 2.194 . S
Co462 O487 2.351 . S
Co462 O488 2.155 . S
Co462 O489 2.096 . S
C463 N466 1.301 . S
C463 N467 1.328 . S
C463 H468 0.930 . S
C464 C465 1.333 . S
C464 N466 1.317 . S
C464 H469 0.930 . S
C465 C464 1.333 . S
C465 N467 1.350 . S
C465 H491 0.931 . S
N466 Co462 2.148 . S
N466 C463 1.301 . S
N466 C464 1.317 . S
N467 C463 1.328 . S
N467 C465 1.350 . S
H468 C463 0.930 . S
H469 C464 0.930 . S
C470 O471 1.224 . S
C470 O489 1.247 . S
O471 C470 1.224 . S
N472 Co462 2.128 . S
N472 C473 1.355 . S
N472 C475 1.311 . S
C473 N472 1.355 . S
C473 C474 1.363 . S
C473 H485 0.929 . S
C474 C473 1.363 . S
C474 N476 1.375 . S
C474 H492 0.931 . S
C475 N472 1.311 . S
C475 N476 1.347 . S
C475 H486 0.929 . S
N476 C474 1.375 . S
N476 C475 1.347 . S
C477 C480 1.365 . S
C477 N482 1.328 . S
C477 H483 0.929 . S
C478 C479 1.362 . S
C478 C481 1.378 . S
C478 H493 0.929 . S
C479 C478 1.362 . S
C479 C480 1.366 . S
C480 C477 1.365 . S
C480 C479 1.366 . S
C480 H494 0.930 . S
C481 C478 1.378 . S
C481 N482 1.315 . S
C481 H484 0.930 . S
N482 Co462 2.194 . S
N482 C477 1.328 . S
N482 C481 1.315 . S
H483 C477 0.929 . S
H484 C481 0.930 . S
H485 C473 0.929 . S
H486 C475 0.929 . S
O487 Co462 2.351 . S
O487 C490 1.244 . S
O488 Co462 2.155 . S
O488 C490 1.240 . S
O489 Co462 2.096 . S
O489 C470 1.247 . S
C490 O487 1.244 . S
C490 O488 1.240 . S
H491 C465 0.931 . S
H492 C474 0.931 . S
H493 C478 0.929 . S
H494 C480 0.930 . S
Co495 N499 2.148 . S
Co495 N505 2.128 . S
Co495 N515 2.194 . S
Co495 O520 2.351 . S
Co495 O521 2.155 . S
Co495 O522 2.096 . S
C496 N499 1.301 . S
C496 N500 1.328 . S
C496 H501 0.930 . S
C497 C498 1.333 . S
C497 N499 1.317 . S
C497 H502 0.930 . S
C498 C497 1.333 . S
C498 N500 1.350 . S
C498 H524 0.931 . S
N499 Co495 2.148 . S
N499 C496 1.301 . S
N499 C497 1.317 . S
N500 C496 1.328 . S
N500 C498 1.350 . S
H501 C496 0.930 . S
H502 C497 0.930 . S
C503 O504 1.224 . S
C503 O522 1.247 . S
O504 C503 1.224 . S
N505 Co495 2.128 . S
N505 C506 1.355 . S
N505 C508 1.311 . S
C506 N505 1.355 . S
C506 C507 1.363 . S
C506 H518 0.929 . S
C507 C506 1.363 . S
C507 N509 1.375 . S
C507 H525 0.931 . S
C508 N505 1.311 . S
C508 N509 1.347 . S
C508 H519 0.929 . S
N509 C507 1.375 . S
N509 C508 1.347 . S
C510 C513 1.365 . S
C510 N515 1.328 . S
C510 H516 0.929 . S
C511 C512 1.362 . S
C511 C514 1.378 . S
C511 H526 0.929 . S
C512 C511 1.362 . S
C512 C513 1.366 . S
C513 C510 1.365 . S
C513 C512 1.366 . S
C513 H527 0.930 . S
C514 C511 1.378 . S
C514 N515 1.315 . S
C514 H517 0.930 . S
N515 Co495 2.194 . S
N515 C510 1.328 . S
N515 C514 1.315 . S
H516 C510 0.929 . S
H517 C514 0.930 . S
H518 C506 0.929 . S
H519 C508 0.929 . S
O520 Co495 2.351 . S
O520 C523 1.244 . S
O521 Co495 2.155 . S
O521 C523 1.240 . S
O522 Co495 2.096 . S
O522 C503 1.247 . S
C523 O520 1.244 . S
C523 O521 1.240 . S
H524 C498 0.931 . S
H525 C507 0.931 . S
H526 C511 0.929 . S
H527 C513 0.930 . S
H528 C534 0.930 . S
H529 C537 0.930 . S
H530 C538 0.930 . S
H531 C539 0.930 . S
H532 C542 0.930 . S
H533 C543 0.930 . S
C534 H528 0.930 . S
C534 C535 1.355 . S
C534 C536 1.415 . S
C535 C534 1.355 . S
C535 C537 1.419 . S
C536 C534 1.415 . S
C536 C541 1.425 1_655 S
C536 C543 1.409 . S
C537 H529 0.930 . S
C537 C535 1.419 . S
C537 C538 1.362 1_655 S
C538 H530 0.930 . S
C538 C537 1.362 1_455 S
C538 C541 1.409 . S
C539 H531 0.930 . S
C539 C540 1.355 . S
C539 C541 1.415 . S
C540 C539 1.355 . S
C540 C542 1.419 . S
C541 C536 1.425 1_455 S
C541 C538 1.409 . S
C541 C539 1.415 . S
C542 H532 0.930 . S
C542 C540 1.419 . S
C542 C543 1.362 1_455 S
C543 H533 0.930 . S
C543 C536 1.409 . S
C543 C542 1.362 1_655 S
H544 C550 0.930 1_565 S
H545 C553 0.930 . S
H546 C554 0.930 . S
H547 C555 0.930 1_545 S
H548 C558 0.930 . S
H549 C559 0.930 . S
C550 H544 0.930 1_545 S
C550 C551 1.355 . S
C550 C552 1.415 1_545 S
C551 C550 1.355 . S
C551 C553 1.419 . S
C552 C550 1.415 1_565 S
C552 C557 1.425 1_565 S
C552 C559 1.409 . S
C553 H545 0.930 . S
C553 C551 1.419 . S
C553 C554 1.362 . S
C554 H546 0.930 . S
C554 C553 1.362 . S
C554 C557 1.409 . S
C555 H547 0.930 1_565 S
C555 C556 1.355 . S
C555 C557 1.415 1_565 S
C556 C555 1.355 . S
C556 C558 1.419 . S
C557 C552 1.425 1_545 S
C557 C554 1.409 . S
C557 C555 1.415 1_545 S
C558 H548 0.930 . S
C558 C556 1.419 . S
C558 C559 1.362 . S
C559 H549 0.930 . S
C559 C552 1.409 . S
C559 C558 1.362 . S
H560 C566 0.930 . S
H561 C569 0.930 . S
H562 C570 0.930 . S
H563 C571 0.930 . S
H564 C574 0.930 . S
H565 C575 0.930 . S
C566 H560 0.930 . S
C566 C567 1.355 . S
C566 C568 1.419 . S
C567 C566 1.355 . S
C567 C569 1.419 . S
C568 C566 1.419 . S
C568 C573 1.425 1_655 S
C568 C575 1.405 1_655 S
C569 H561 0.930 . S
C569 C567 1.419 . S
C569 C570 1.362 . S
C570 H562 0.930 . S
C570 C569 1.362 . S
C570 C573 1.405 1_655 S
C571 H563 0.930 . S
C571 C572 1.355 . S
C571 C573 1.419 . S
C572 C571 1.355 . S
C572 C574 1.419 . S
C573 C568 1.425 1_455 S
C573 C570 1.405 1_455 S
C573 C571 1.419 . S
C574 H564 0.930 . S
C574 C572 1.419 . S
C574 C575 1.362 . S
C575 H565 0.930 . S
C575 C568 1.405 1_455 S
C575 C574 1.362 . S
H576 C582 0.930 . S
H577 C585 0.930 . S
H578 C586 0.930 . S
H579 C587 0.930 . S
H580 C590 0.930 . S
H581 C591 0.930 . S
C582 H576 0.930 . S
C582 C583 1.355 . S
C582 C584 1.415 . S
C583 C582 1.355 . S
C583 C585 1.419 . S
C584 C582 1.415 . S
C584 C589 1.425 1_565 S
C584 C591 1.409 1_565 S
C585 H577 0.930 . S
C585 C583 1.419 . S
C585 C586 1.362 . S
C586 H578 0.930 . S
C586 C585 1.362 . S
C586 C589 1.409 1_565 S
C587 H579 0.930 . S
C587 C588 1.355 . S
C587 C589 1.415 . S
C588 C587 1.355 . S
C588 C590 1.419 . S
C589 C584 1.425 1_545 S
C589 C586 1.409 1_545 S
C589 C587 1.415 . S
C590 H580 0.930 . S
C590 C588 1.419 . S
C590 C591 1.362 . S
C591 H581 0.930 . S
C591 C584 1.409 1_545 S
C591 C590 1.362 . S
H592 C598 0.930 . S
H593 C601 0.930 . S
H594 C602 0.930 . S
H595 C603 0.930 . S
H596 C606 0.930 . S
H597 C607 0.930 . S
C598 H592 0.930 . S
C598 C599 1.355 . S
C598 C600 1.415 . S
C599 C598 1.355 . S
C599 C601 1.419 . S
C600 C598 1.415 . S
C600 C605 1.425 1_565 S
C600 C607 1.409 . S
C601 H593 0.930 . S
C601 C599 1.419 . S
C601 C602 1.362 1_565 S
C602 H594 0.930 . S
C602 C601 1.362 1_545 S
C602 C605 1.409 . S
C603 H595 0.930 . S
C603 C604 1.355 . S
C603 C605 1.415 . S
C604 C603 1.355 . S
C604 C606 1.419 . S
C605 C600 1.425 1_545 S
C605 C602 1.409 . S
C605 C603 1.415 . S
C606 H596 0.930 . S
C606 C604 1.419 . S
C606 C607 1.362 1_545 S
C607 H597 0.930 . S
C607 C600 1.409 . S
C607 C606 1.362 1_565 S
H608 C614 0.930 . S
H609 C617 0.930 . S
H610 C618 0.930 . S
H611 C619 0.930 . S
H612 C622 0.930 . S
H613 C623 0.930 . S
C614 H608 0.930 . S
C614 C615 1.355 . S
C614 C616 1.415 1_655 S
C615 C614 1.355 . S
C615 C617 1.419 . S
C616 C614 1.415 1_455 S
C616 C621 1.425 1_455 S
C616 C623 1.409 . S
C617 H609 0.930 . S
C617 C615 1.419 . S
C617 C618 1.362 . S
C618 H610 0.930 . S
C618 C617 1.362 . S
C618 C621 1.409 . S
C619 H611 0.930 . S
C619 C620 1.355 . S
C619 C621 1.415 1_455 S
C620 C619 1.355 . S
C620 C622 1.419 . S
C621 C616 1.425 1_655 S
C621 C618 1.409 . S
C621 C619 1.415 1_655 S
C622 H612 0.930 . S
C622 C620 1.419 . S
C622 C623 1.362 . S
C623 H613 0.930 . S
C623 C616 1.409 . S
C623 C622 1.362 . S
H624 C630 0.930 . S
H625 C633 0.930 . S
H626 C634 0.930 1_545 S
H627 C635 0.930 . S
H628 C638 0.930 . S
H629 C639 0.930 1_565 S
C630 H624 0.930 . S
C630 C631 1.355 . S
C630 C632 1.415 . S
C631 C630 1.355 . S
C631 C633 1.419 . S
C632 C630 1.415 . S
C632 C637 1.425 1_565 S
C632 C639 1.409 1_565 S
C633 H625 0.930 . S
C633 C631 1.419 . S
C633 C634 1.362 . S
C634 H626 0.930 1_565 S
C634 C633 1.362 . S
C634 C637 1.409 1_565 S
C635 H627 0.930 . S
C635 C636 1.355 . S
C635 C637 1.415 . S
C636 C635 1.355 . S
C636 C638 1.419 . S
C637 C632 1.425 1_545 S
C637 C634 1.409 1_545 S
C637 C635 1.415 . S
C638 H628 0.930 . S
C638 C636 1.419 . S
C638 C639 1.362 . S
C639 H629 0.930 1_545 S
C639 C632 1.409 1_545 S
C639 C638 1.362 . S
H640 C646 0.930 . S
H641 C649 0.930 . S
H642 C650 0.930 . S
H643 C651 0.930 . S
H644 C654 0.930 . S
H645 C655 0.930 . S
C646 H640 0.930 . S
C646 C647 1.355 . S
C646 C648 1.415 . S
C647 C646 1.355 . S
C647 C649 1.419 . S
C648 C646 1.415 . S
C648 C653 1.425 1_655 S
C648 C655 1.409 . S
C649 H641 0.930 . S
C649 C647 1.419 . S
C649 C650 1.362 1_655 S
C650 H642 0.930 . S
C650 C649 1.362 1_455 S
C650 C653 1.409 . S
C651 H643 0.930 . S
C651 C652 1.355 . S
C651 C653 1.415 . S
C652 C651 1.355 . S
C652 C654 1.419 . S
C653 C648 1.425 1_455 S
C653 C650 1.409 . S
C653 C651 1.415 . S
C654 H644 0.930 . S
C654 C652 1.419 . S
C654 C655 1.362 1_455 S
C655 H645 0.930 . S
C655 C648 1.409 . S
C655 C654 1.362 1_655 S
H656 C662 0.930 . S
H657 C665 0.930 . S
H658 C666 0.930 . S
H659 C667 0.930 . S
H660 C670 0.930 . S
H661 C671 0.930 . S
C662 H656 0.930 . S
C662 C663 1.355 . S
C662 C664 1.415 . S
C663 C662 1.355 . S
C663 C665 1.419 . S
C664 C662 1.415 . S
C664 C669 1.425 . S
C664 C671 1.409 . S
C665 H657 0.930 . S
C665 C663 1.419 . S
C665 C666 1.362 . S
C666 H658 0.930 . S
C666 C665 1.362 . S
C666 C669 1.409 . S
C667 H659 0.930 . S
C667 C668 1.355 . S
C667 C669 1.415 . S
C668 C667 1.355 . S
C668 C670 1.419 . S
C669 C664 1.425 . S
C669 C666 1.409 . S
C669 C667 1.415 . S
C670 H660 0.930 . S
C670 C668 1.419 . S
C670 C671 1.362 . S
C671 H661 0.930 . S
C671 C664 1.409 . S
C671 C670 1.362 . S
H672 C678 0.930 . S
H673 C681 0.930 . S
H674 C682 0.930 . S
H675 C683 0.930 . S
H676 C686 0.930 . S
H677 C687 0.930 . S
C678 H672 0.930 . S
C678 C679 1.355 . S
C678 C680 1.415 . S
C679 C678 1.355 . S
C679 C681 1.419 . S
C680 C678 1.415 . S
C680 C685 1.425 . S
C680 C687 1.409 . S
C681 H673 0.930 . S
C681 C679 1.419 . S
C681 C682 1.362 . S
C682 H674 0.930 . S
C682 C681 1.362 . S
C682 C685 1.409 . S
C683 H675 0.930 . S
C683 C684 1.355 . S
C683 C685 1.415 . S
C684 C683 1.355 . S
C684 C686 1.419 . S
C685 C680 1.425 . S
C685 C682 1.409 . S
C685 C683 1.415 . S
C686 H676 0.930 . S
C686 C684 1.419 . S
C686 C687 1.362 . S
C687 H677 0.930 . S
C687 C680 1.409 . S
C687 C686 1.362 . S
H688 C694 0.930 . S
H689 C697 0.930 . S
H690 C698 0.930 . S
H691 C699 0.930 . S
H692 C702 0.930 . S
H693 C703 0.930 . S
C694 H688 0.930 . S
C694 C695 1.355 . S
C694 C696 1.415 . S
C695 C694 1.355 . S
C695 C697 1.419 . S
C696 C694 1.415 . S
C696 C701 1.425 . S
C696 C703 1.409 . S
C697 H689 0.930 . S
C697 C695 1.419 . S
C697 C698 1.362 . S
C698 H690 0.930 . S
C698 C697 1.362 . S
C698 C701 1.409 . S
C699 H691 0.930 . S
C699 C700 1.355 . S
C699 C701 1.415 . S
C700 C699 1.355 . S
C700 C702 1.419 . S
C701 C696 1.425 . S
C701 C698 1.409 . S
C701 C699 1.415 . S
C702 H692 0.930 . S
C702 C700 1.419 . S
C702 C703 1.362 . S
C703 H693 0.930 . S
C703 C696 1.409 . S
C703 C702 1.362 . S
H704 C710 0.930 . S
H705 C713 0.930 . S
H706 C714 0.930 . S
H707 C715 0.930 . S
H708 C718 0.930 . S
H709 C719 0.930 . S
C710 H704 0.930 . S
C710 C711 1.355 . S
C710 C712 1.415 . S
C711 C710 1.355 . S
C711 C713 1.419 . S
C712 C710 1.415 . S
C712 C717 1.425 . S
C712 C719 1.409 . S
C713 H705 0.930 . S
C713 C711 1.419 . S
C713 C714 1.362 . S
C714 H706 0.930 . S
C714 C713 1.362 . S
C714 C717 1.409 . S
C715 H707 0.930 . S
C715 C716 1.355 . S
C715 C717 1.415 . S
C716 C715 1.355 . S
C716 C718 1.419 . S
C717 C712 1.425 . S
C717 C714 1.409 . S
C717 C715 1.415 . S
C718 H708 0.930 . S
C718 C716 1.419 . S
C718 C719 1.362 . S
C719 H709 0.930 . S
C719 C712 1.409 . S
C719 C718 1.362 . S
H720 C726 0.930 . S
H721 C729 0.930 . S
H722 C730 0.930 . S
H723 C731 0.930 . S
H724 C734 0.930 . S
H725 C735 0.930 . S
C726 H720 0.930 . S
C726 C727 1.355 . S
C726 C728 1.415 . S
C727 C726 1.355 . S
C727 C729 1.419 . S
C728 C726 1.415 . S
C728 C733 1.425 . S
C728 C735 1.409 . S
C729 H721 0.930 . S
C729 C727 1.419 . S
C729 C730 1.362 . S
C730 H722 0.930 . S
C730 C729 1.362 . S
C730 C733 1.409 . S
C731 H723 0.930 . S
C731 C732 1.355 . S
C731 C733 1.415 . S
C732 C731 1.355 . S
C732 C734 1.419 . S
C733 C728 1.425 . S
C733 C730 1.409 . S
C733 C731 1.415 . S
C734 H724 0.930 . S
C734 C732 1.419 . S
C734 C735 1.362 . S
C735 H725 0.930 . S
C735 C728 1.409 . S
C735 C734 1.362 . S
H736 C742 0.930 . S
H737 C745 0.930 . S
H738 C746 0.930 . S
H739 C747 0.930 . S
H740 C750 0.930 . S
H741 C751 0.930 . S
C742 H736 0.930 . S
C742 C743 1.355 . S
C742 C744 1.415 . S
C743 C742 1.355 . S
C743 C745 1.419 . S
C744 C742 1.415 . S
C744 C749 1.425 . S
C744 C751 1.409 . S
C745 H737 0.930 . S
C745 C743 1.419 . S
C745 C746 1.362 . S
C746 H738 0.930 . S
C746 C745 1.362 . S
C746 C749 1.409 . S
C747 H739 0.930 . S
C747 C748 1.355 . S
C747 C749 1.415 . S
C748 C747 1.355 . S
C748 C750 1.419 . S
C749 C744 1.425 . S
C749 C746 1.409 . S
C749 C747 1.415 . S
C750 H740 0.930 . S
C750 C748 1.419 . S
C750 C751 1.362 . S
C751 H741 0.930 . S
C751 C744 1.409 . S
C751 C750 1.362 . S
H752 C758 0.930 . S
H753 C761 0.930 . S
H754 C762 0.930 . S
H755 C763 0.930 . S
H756 C766 0.930 . S
H757 C767 0.930 . S
C758 H752 0.930 . S
C758 C759 1.355 . S
C758 C760 1.415 . S
C759 C758 1.355 . S
C759 C761 1.419 . S
C760 C758 1.415 . S
C760 C765 1.425 . S
C760 C767 1.409 . S
C761 H753 0.930 . S
C761 C759 1.419 . S
C761 C762 1.362 . S
C762 H754 0.930 . S
C762 C761 1.362 . S
C762 C765 1.409 . S
C763 H755 0.930 . S
C763 C764 1.355 . S
C763 C765 1.415 . S
C764 C763 1.355 . S
C764 C766 1.419 . S
C765 C760 1.425 . S
C765 C762 1.409 . S
C765 C763 1.415 . S
C766 H756 0.930 . S
C766 C764 1.419 . S
C766 C767 1.362 . S
C767 H757 0.930 . S
C767 C760 1.409 . S
C767 C766 1.362 . S
H768 C774 0.930 . S
H769 C777 0.930 . S
H770 C778 0.930 . S
H771 C779 0.930 . S
H772 C782 0.930 . S
H773 C783 0.930 . S
C774 H768 0.930 . S
C774 C775 1.355 . S
C774 C776 1.415 . S
C775 C774 1.355 . S
C775 C777 1.419 . S
C776 C774 1.415 . S
C776 C781 1.425 . S
C776 C783 1.409 . S
C777 H769 0.930 . S
C777 C775 1.419 . S
C777 C778 1.362 . S
C778 H770 0.930 . S
C778 C777 1.362 . S
C778 C781 1.409 . S
C779 H771 0.930 . S
C779 C780 1.355 . S
C779 C781 1.415 . S
C780 C779 1.355 . S
C780 C782 1.419 . S
C781 C776 1.425 . S
C781 C778 1.409 . S
C781 C779 1.415 . S
C782 H772 0.930 . S
C782 C780 1.419 . S
C782 C783 1.362 . S
C783 H773 0.930 . S
C783 C776 1.409 . S
C783 C782 1.362 . S
H784 C790 0.930 . S
H785 C793 0.930 . S
H786 C794 0.930 . S
H787 C795 0.930 . S
H788 C798 0.930 . S
H789 C799 0.930 . S
C790 H784 0.930 . S
C790 C791 1.355 . S
C790 C792 1.415 . S
C791 C790 1.355 . S
C791 C793 1.419 . S
C792 C790 1.415 . S
C792 C797 1.425 . S
C792 C799 1.409 . S
C793 H785 0.930 . S
C793 C791 1.419 . S
C793 C794 1.362 . S
C794 H786 0.930 . S
C794 C793 1.362 . S
C794 C797 1.409 . S
C795 H787 0.930 . S
C795 C796 1.355 . S
C795 C797 1.415 . S
C796 C795 1.355 . S
C796 C798 1.419 . S
C797 C792 1.425 . S
C797 C794 1.409 . S
C797 C795 1.415 . S
C798 H788 0.930 . S
C798 C796 1.419 . S
C798 C799 1.362 . S
C799 H789 0.930 . S
C799 C792 1.409 . S
C799 C798 1.362 . S
H800 C806 0.930 . S
H801 C809 0.930 . S
H802 C810 0.930 . S
H803 C811 0.930 . S
H804 C814 0.930 . S
H805 C815 0.930 . S
C806 H800 0.930 . S
C806 C807 1.355 . S
C806 C808 1.415 . S
C807 C806 1.355 . S
C807 C809 1.419 . S
C808 C806 1.415 . S
C808 C813 1.425 . S
C808 C815 1.409 . S
C809 H801 0.930 . S
C809 C807 1.419 . S
C809 C810 1.362 . S
C810 H802 0.930 . S
C810 C809 1.362 . S
C810 C813 1.409 . S
C811 H803 0.930 . S
C811 C812 1.355 . S
C811 C813 1.415 . S
C812 C811 1.355 . S
C812 C814 1.419 . S
C813 C808 1.425 . S
C813 C810 1.409 . S
C813 C811 1.415 . S
C814 H804 0.930 . S
C814 C812 1.419 . S
C814 C815 1.362 . S
C815 H805 0.930 . S
C815 C808 1.409 . S
C815 C814 1.362 . S
H816 C822 0.930 . S
H817 C825 0.930 . S
H818 C826 0.930 . S
H819 C827 0.930 . S
H820 C830 0.930 . S
H821 C831 0.930 . S
C822 H816 0.930 . S
C822 C823 1.355 . S
C822 C824 1.415 . S
C823 C822 1.355 . S
C823 C825 1.419 . S
C824 C822 1.415 . S
C824 C829 1.425 . S
C824 C831 1.409 . S
C825 H817 0.930 . S
C825 C823 1.419 . S
C825 C826 1.362 . S
C826 H818 0.930 . S
C826 C825 1.362 . S
C826 C829 1.409 . S
C827 H819 0.930 . S
C827 C828 1.355 . S
C827 C829 1.415 . S
C828 C827 1.355 . S
C828 C830 1.419 . S
C829 C824 1.425 . S
C829 C826 1.409 . S
C829 C827 1.415 . S
C830 H820 0.930 . S
C830 C828 1.419 . S
C830 C831 1.362 . S
C831 H821 0.930 . S
C831 C824 1.409 . S
C831 C830 1.362 . S
H832 C838 0.930 . S
H833 C841 0.930 . S
H834 C842 0.930 . S
H835 C843 0.930 . S
H836 C846 0.930 . S
H837 C847 0.930 . S
C838 H832 0.930 . S
C838 C839 1.355 . S
C838 C840 1.415 . S
C839 C838 1.355 . S
C839 C841 1.419 . S
C840 C838 1.415 . S
C840 C845 1.425 . S
C840 C847 1.409 . S
C841 H833 0.930 . S
C841 C839 1.419 . S
C841 C842 1.362 . S
C842 H834 0.930 . S
C842 C841 1.362 . S
C842 C845 1.409 . S
C843 H835 0.930 . S
C843 C844 1.355 . S
C843 C845 1.415 . S
C844 C843 1.355 . S
C844 C846 1.419 . S
C845 C840 1.425 . S
C845 C842 1.409 . S
C845 C843 1.415 . S
C846 H836 0.930 . S
C846 C844 1.419 . S
C846 C847 1.362 . S
C847 H837 0.930 . S
C847 C840 1.409 . S
C847 C846 1.362 . S
H848 C854 0.930 . S
H849 C857 0.930 . S
H850 C858 0.930 . S
H851 C859 0.930 . S
H852 C862 0.930 . S
H853 C863 0.930 . S
C854 H848 0.930 . S
C854 C855 1.355 . S
C854 C856 1.415 . S
C855 C854 1.355 . S
C855 C857 1.419 . S
C856 C854 1.415 . S
C856 C861 1.425 . S
C856 C863 1.409 . S
C857 H849 0.930 . S
C857 C855 1.419 . S
C857 C858 1.362 . S
C858 H850 0.930 . S
C858 C857 1.362 . S
C858 C861 1.409 . S
C859 H851 0.930 . S
C859 C860 1.355 . S
C859 C861 1.415 . S
C860 C859 1.355 . S
C860 C862 1.419 . S
C861 C856 1.425 . S
C861 C858 1.409 . S
C861 C859 1.415 . S
C862 H852 0.930 . S
C862 C860 1.419 . S
C862 C863 1.362 . S
C863 H853 0.930 . S
C863 C856 1.409 . S
C863 C862 1.362 . S
H864 C870 0.930 . S
H865 C873 0.930 . S
H866 C874 0.930 . S
H867 C875 0.930 . S
H868 C878 0.930 . S
H869 C879 0.930 . S
C870 H864 0.930 . S
C870 C871 1.355 . S
C870 C872 1.415 . S
C871 C870 1.355 . S
C871 C873 1.419 . S
C872 C870 1.415 . S
C872 C877 1.425 . S
C872 C879 1.409 . S
C873 H865 0.930 . S
C873 C871 1.419 . S
C873 C874 1.362 . S
C874 H866 0.930 . S
C874 C873 1.362 . S
C874 C877 1.409 . S
C875 H867 0.930 . S
C875 C876 1.355 . S
C875 C877 1.415 . S
C876 C875 1.355 . S
C876 C878 1.419 . S
C877 C872 1.425 . S
C877 C874 1.409 . S
C877 C875 1.415 . S
C878 H868 0.930 . S
C878 C876 1.419 . S
C878 C879 1.362 . S
C879 H869 0.930 . S
C879 C872 1.409 . S
C879 C878 1.362 . S
H880 C886 0.930 . S
H881 C889 0.930 . S
H882 C890 0.930 . S
H883 C891 0.930 . S
H884 C894 0.930 . S
H885 C895 0.930 . S
C886 H880 0.930 . S
C886 C887 1.355 . S
C886 C888 1.415 . S
C887 C886 1.355 . S
C887 C889 1.419 . S
C888 C886 1.415 . S
C888 C893 1.425 . S
C888 C895 1.409 . S
C889 H881 0.930 . S
C889 C887 1.419 . S
C889 C890 1.362 . S
C890 H882 0.930 . S
C890 C889 1.362 . S
C890 C893 1.409 . S
C891 H883 0.930 . S
C891 C892 1.355 . S
C891 C893 1.415 . S
C892 C891 1.355 . S
C892 C894 1.419 . S
C893 C888 1.425 . S
C893 C890 1.409 . S
C893 C891 1.415 . S
C894 H884 0.930 . S
C894 C892 1.419 . S
C894 C895 1.362 . S
C895 H885 0.930 . S
C895 C888 1.409 . S
C895 C894 1.362 . S
H896 C902 0.930 . S
H897 C905 0.930 . S
H898 C906 0.930 . S
H899 C907 0.930 . S
H900 C910 0.930 . S
H901 C911 0.930 . S
C902 H896 0.930 . S
C902 C903 1.355 . S
C902 C904 1.415 . S
C903 C902 1.355 . S
C903 C905 1.419 . S
C904 C902 1.415 . S
C904 C909 1.425 . S
C904 C911 1.409 . S
C905 H897 0.930 . S
C905 C903 1.419 . S
C905 C906 1.362 . S
C906 H898 0.930 . S
C906 C905 1.362 . S
C906 C909 1.409 . S
C907 H899 0.930 . S
C907 C908 1.355 . S
C907 C909 1.415 . S
C908 C907 1.355 . S
C908 C910 1.419 . S
C909 C904 1.425 . S
C909 C906 1.409 . S
C909 C907 1.415 . S
C910 H900 0.930 . S
C910 C908 1.419 . S
C910 C911 1.362 . S
C911 H901 0.930 . S
C911 C904 1.409 . S
C911 C910 1.362 . S
H912 C918 0.930 . S
H913 C921 0.930 . S
H914 C922 0.930 . S
H915 C923 0.930 . S
H916 C926 0.930 . S
H917 C927 0.930 . S
C918 H912 0.930 . S
C918 C919 1.355 . S
C918 C920 1.415 . S
C919 C918 1.355 . S
C919 C921 1.419 . S
C920 C918 1.415 . S
C920 C925 1.425 . S
C920 C927 1.409 . S
C921 H913 0.930 . S
C921 C919 1.419 . S
C921 C922 1.362 . S
C922 H914 0.930 . S
C922 C921 1.362 . S
C922 C925 1.409 . S
C923 H915 0.930 . S
C923 C924 1.355 . S
C923 C925 1.415 . S
C924 C923 1.355 . S
C924 C926 1.419 . S
C925 C920 1.425 . S
C925 C922 1.409 . S
C925 C923 1.415 . S
C926 H916 0.930 . S
C926 C924 1.419 . S
C926 C927 1.362 . S
C927 H917 0.930 . S
C927 C920 1.409 . S
C927 C926 1.362 . S
H928 C934 0.930 . S
H929 C937 0.930 . S
H930 C938 0.930 . S
H931 C939 0.930 . S
H932 C942 0.930 . S
H933 C943 0.930 . S
C934 H928 0.930 . S
C934 C935 1.355 . S
C934 C936 1.415 . S
C935 C934 1.355 . S
C935 C937 1.419 . S
C936 C934 1.415 . S
C936 C941 1.425 . S
C936 C943 1.409 . S
C937 H929 0.930 . S
C937 C935 1.419 . S
C937 C938 1.362 . S
C938 H930 0.930 . S
C938 C937 1.362 . S
C938 C941 1.409 . S
C939 H931 0.930 . S
C939 C940 1.355 . S
C939 C941 1.415 . S
C940 C939 1.355 . S
C940 C942 1.419 . S
C941 C936 1.425 . S
C941 C938 1.409 . S
C941 C939 1.415 . S
C942 H932 0.930 . S
C942 C940 1.419 . S
C942 C943 1.362 . S
C943 H933 0.930 . S
C943 C936 1.409 . S
C943 C942 1.362 . S
H944 C950 0.930 . S
H945 C953 0.930 . S
H946 C954 0.930 . S
H947 C955 0.930 . S
H948 C958 0.930 . S
H949 C959 0.930 . S
C950 H944 0.930 . S
C950 C951 1.355 . S
C950 C952 1.415 . S
C951 C950 1.355 . S
C951 C953 1.419 . S
C952 C950 1.415 . S
C952 C957 1.425 . S
C952 C959 1.409 . S
C953 H945 0.930 . S
C953 C951 1.419 . S
C953 C954 1.362 . S
C954 H946 0.930 . S
C954 C953 1.362 . S
C954 C957 1.409 . S
C955 H947 0.930 . S
C955 C956 1.355 . S
C955 C957 1.415 . S
C956 C955 1.355 . S
C956 C958 1.419 . S
C957 C952 1.425 . S
C957 C954 1.409 . S
C957 C955 1.415 . S
C958 H948 0.930 . S
C958 C956 1.419 . S
C958 C959 1.362 . S
C959 H949 0.930 . S
C959 C952 1.409 . S
C959 C958 1.362 . S
H960 C966 0.930 . S
H961 C969 0.930 . S
H962 C970 0.930 . S
H963 C971 0.930 . S
H964 C974 0.930 . S
H965 C975 0.930 . S
C966 H960 0.930 . S
C966 C967 1.355 . S
C966 C968 1.415 . S
C967 C966 1.355 . S
C967 C969 1.419 . S
C968 C966 1.415 . S
C968 C973 1.425 . S
C968 C975 1.409 . S
C969 H961 0.930 . S
C969 C967 1.419 . S
C969 C970 1.362 . S
C970 H962 0.930 . S
C970 C969 1.362 . S
C970 C973 1.409 . S
C971 H963 0.930 . S
C971 C972 1.355 . S
C971 C973 1.415 . S
C972 C971 1.355 . S
C972 C974 1.419 . S
C973 C968 1.425 . S
C973 C970 1.409 . S
C973 C971 1.415 . S
C974 H964 0.930 . S
C974 C972 1.419 . S
C974 C975 1.362 . S
C975 H965 0.930 . S
C975 C968 1.409 . S
C975 C974 1.362 . S
H976 C982 0.930 . S
H977 C985 0.930 . S
H978 C986 0.930 . S
H979 C987 0.930 . S
H980 C990 0.930 . S
H981 C991 0.930 . S
C982 H976 0.930 . S
C982 C983 1.355 . S
C982 C984 1.415 . S
C983 C982 1.355 . S
C983 C985 1.419 . S
C984 C982 1.415 . S
C984 C989 1.425 . S
C984 C991 1.409 . S
C985 H977 0.930 . S
C985 C983 1.419 . S
C985 C986 1.362 . S
C986 H978 0.930 . S
C986 C985 1.362 . S
C986 C989 1.409 . S
C987 H979 0.930 . S
C987 C988 1.355 . S
C987 C989 1.415 . S
C988 C987 1.355 . S
C988 C990 1.419 . S
C989 C984 1.425 . S
C989 C986 1.409 . S
C989 C987 1.415 . S
C990 H980 0.930 . S
C990 C988 1.419 . S
C990 C991 1.362 . S
C991 H981 0.930 . S
C991 C984 1.409 . S
C991 C990 1.362 . S
H992 C998 0.930 . S
H993 C1001 0.930 . S
H994 C1002 0.930 . S
H995 C1003 0.930 . S
H996 C1006 0.930 . S
H997 C1007 0.930 . S
C998 H992 0.930 . S
C998 C999 1.355 . S
C998 C1000 1.415 . S
C999 C998 1.355 . S
C999 C1001 1.419 . S
C1000 C998 1.415 . S
C1000 C1005 1.425 . S
C1000 C1007 1.409 . S
C1001 H993 0.930 . S
C1001 C999 1.419 . S
C1001 C1002 1.362 . S
C1002 H994 0.930 . S
C1002 C1001 1.362 . S
C1002 C1005 1.409 . S
C1003 H995 0.930 . S
C1003 C1004 1.355 . S
C1003 C1005 1.415 . S
C1004 C1003 1.355 . S
C1004 C1006 1.419 . S
C1005 C1000 1.425 . S
C1005 C1002 1.409 . S
C1005 C1003 1.415 . S
C1006 H996 0.930 . S
C1006 C1004 1.419 . S
C1006 C1007 1.362 . S
C1007 H997 0.930 . S
C1007 C1000 1.409 . S
C1007 C1006 1.362 . S
H1008 C1014 0.930 . S
H1009 C1017 0.930 . S
H1010 C1018 0.930 . S
H1011 C1019 0.930 . S
H1012 C1022 0.930 . S
H1013 C1023 0.930 . S
C1014 H1008 0.930 . S
C1014 C1015 1.355 . S
C1014 C1016 1.415 . S
C1015 C1014 1.355 . S
C1015 C1017 1.419 . S
C1016 C1014 1.415 . S
C1016 C1021 1.425 . S
C1016 C1023 1.409 . S
C1017 H1009 0.930 . S
C1017 C1015 1.419 . S
C1017 C1018 1.362 . S
C1018 H1010 0.930 . S
C1018 C1017 1.362 . S
C1018 C1021 1.409 . S
C1019 H1011 0.930 . S
C1019 C1020 1.355 . S
C1019 C1021 1.415 . S
C1020 C1019 1.355 . S
C1020 C1022 1.419 . S
C1021 C1016 1.425 . S
C1021 C1018 1.409 . S
C1021 C1019 1.415 . S
C1022 H1012 0.930 . S
C1022 C1020 1.419 . S
C1022 C1023 1.362 . S
C1023 H1013 0.930 . S
C1023 C1016 1.409 . S
C1023 C1022 1.362 . S
H1024 C1030 0.930 . S
H1025 C1033 0.930 . S
H1026 C1034 0.930 . S
H1027 C1035 0.930 . S
H1028 C1038 0.930 . S
H1029 C1039 0.930 . S
C1030 H1024 0.930 . S
C1030 C1031 1.355 . S
C1030 C1032 1.415 . S
C1031 C1030 1.355 . S
C1031 C1033 1.419 . S
C1032 C1030 1.415 . S
C1032 C1037 1.425 . S
C1032 C1039 1.409 . S
C1033 H1025 0.930 . S
C1033 C1031 1.419 . S
C1033 C1034 1.362 . S
C1034 H1026 0.930 . S
C1034 C1033 1.362 . S
C1034 C1037 1.409 . S
C1035 H1027 0.930 . S
C1035 C1036 1.355 . S
C1035 C1037 1.415 . S
C1036 C1035 1.355 . S
C1036 C1038 1.419 . S
C1037 C1032 1.425 . S
C1037 C1034 1.409 . S
C1037 C1035 1.415 . S
C1038 H1028 0.930 . S
C1038 C1036 1.419 . S
C1038 C1039 1.362 . S
C1039 H1029 0.930 . S
C1039 C1032 1.409 . S
C1039 C1038 1.362 . S
H1040 C1046 0.930 . S
H1041 C1049 0.930 . S
H1042 C1050 0.930 . S
H1043 C1051 0.930 . S
H1044 C1054 0.930 . S
H1045 C1055 0.930 . S
C1046 H1040 0.930 . S
C1046 C1047 1.351 1_655 S
C1046 C1048 1.415 . S
C1047 C1046 1.351 1_455 S
C1047 C1049 1.424 . S
C1048 C1046 1.415 . S
C1048 C1053 1.425 1_655 S
C1048 C1055 1.409 . S
C1049 H1041 0.930 . S
C1049 C1047 1.424 . S
C1049 C1050 1.362 . S
C1050 H1042 0.930 . S
C1050 C1049 1.362 . S
C1050 C1053 1.409 . S
C1051 H1043 0.930 . S
C1051 C1052 1.351 1_455 S
C1051 C1053 1.415 . S
C1052 C1051 1.351 1_655 S
C1052 C1054 1.424 . S
C1053 C1048 1.425 1_455 S
C1053 C1050 1.409 . S
C1053 C1051 1.415 . S
C1054 H1044 0.930 . S
C1054 C1052 1.424 . S
C1054 C1055 1.362 . S
C1055 H1045 0.930 . S
C1055 C1048 1.409 . S
C1055 C1054 1.362 . S
H1056 C1062 0.930 . S
H1057 C1065 0.930 . S
H1058 C1066 0.930 . S
H1059 C1067 0.930 . S
H1060 C1070 0.930 . S
H1061 C1071 0.930 . S
C1062 H1056 0.930 . S
C1062 C1063 1.355 1_545 S
C1062 C1064 1.415 . S
C1063 C1062 1.355 1_565 S
C1063 C1065 1.419 . S
C1064 C1062 1.415 . S
C1064 C1069 1.425 1_545 S
C1064 C1071 1.409 . S
C1065 H1057 0.930 . S
C1065 C1063 1.419 . S
C1065 C1066 1.362 . S
C1066 H1058 0.930 . S
C1066 C1065 1.362 . S
C1066 C1069 1.409 . S
C1067 H1059 0.930 . S
C1067 C1068 1.355 1_565 S
C1067 C1069 1.415 . S
C1068 C1067 1.355 1_545 S
C1068 C1070 1.419 . S
C1069 C1064 1.425 1_565 S
C1069 C1066 1.409 . S
C1069 C1067 1.415 . S
C1070 H1060 0.930 . S
C1070 C1068 1.419 . S
C1070 C1071 1.362 . S
C1071 H1061 0.930 . S
C1071 C1064 1.409 . S
C1071 C1070 1.362 . S
H1072 C1078 0.930 . S
H1073 C1081 0.930 . S
H1074 C1082 0.930 . S
H1075 C1083 0.930 . S
H1076 C1086 0.930 . S
H1077 C1087 0.930 . S
C1078 H1072 0.930 . S
C1078 C1079 1.355 1_455 S
C1078 C1080 1.415 . S
C1079 C1078 1.355 1_655 S
C1079 C1081 1.419 . S
C1080 C1078 1.415 . S
C1080 C1085 1.425 1_455 S
C1080 C1087 1.409 . S
C1081 H1073 0.930 . S
C1081 C1079 1.419 . S
C1081 C1082 1.362 . S
C1082 H1074 0.930 . S
C1082 C1081 1.362 . S
C1082 C1085 1.409 . S
C1083 H1075 0.930 . S
C1083 C1084 1.355 1_655 S
C1083 C1085 1.415 . S
C1084 C1083 1.355 1_455 S
C1084 C1086 1.419 . S
C1085 C1080 1.425 1_655 S
C1085 C1082 1.409 . S
C1085 C1083 1.415 . S
C1086 H1076 0.930 . S
C1086 C1084 1.419 . S
C1086 C1087 1.362 . S
C1087 H1077 0.930 . S
C1087 C1080 1.409 . S
C1087 C1086 1.362 . S
H1088 C1094 0.930 . S
H1089 C1097 0.930 . S
H1090 C1098 0.930 . S
H1091 C1099 0.930 . S
H1092 C1102 0.930 . S
H1093 C1103 0.930 . S
C1094 H1088 0.930 . S
C1094 C1095 1.355 1_565 S
C1094 C1096 1.415 . S
C1095 C1094 1.355 1_545 S
C1095 C1097 1.419 . S
C1096 C1094 1.415 . S
C1096 C1101 1.425 1_565 S
C1096 C1103 1.409 . S
C1097 H1089 0.930 . S
C1097 C1095 1.419 . S
C1097 C1098 1.362 . S
C1098 H1090 0.930 . S
C1098 C1097 1.362 . S
C1098 C1101 1.409 . S
C1099 H1091 0.930 . S
C1099 C1100 1.355 1_545 S
C1099 C1101 1.415 . S
C1100 C1099 1.355 1_565 S
C1100 C1102 1.419 . S
C1101 C1096 1.425 1_545 S
C1101 C1098 1.409 . S
C1101 C1099 1.415 . S
C1102 H1092 0.930 . S
C1102 C1100 1.419 . S
C1102 C1103 1.362 . S
C1103 H1093 0.930 . S
C1103 C1096 1.409 . S
C1103 C1102 1.362 . S
H1104 C1110 0.930 . S
H1105 C1113 0.930 . S
H1106 C1114 0.930 . S
H1107 C1115 0.930 . S
H1108 C1118 0.930 . S
H1109 C1119 0.930 . S
C1110 H1104 0.930 . S
C1110 C1111 1.355 . S
C1110 C1112 1.415 . S
C1111 C1110 1.355 . S
C1111 C1113 1.419 . S
C1112 C1110 1.415 . S
C1112 C1117 1.425 1_556 S
C1112 C1119 1.409 1_556 S
C1113 H1105 0.930 . S
C1113 C1111 1.419 . S
C1113 C1114 1.362 . S
C1114 H1106 0.930 . S
C1114 C1113 1.362 . S
C1114 C1117 1.409 1_556 S
C1115 H1107 0.930 . S
C1115 C1116 1.355 . S
C1115 C1117 1.415 . S
C1116 C1115 1.355 . S
C1116 C1118 1.419 . S
C1117 C1112 1.425 1_554 S
C1117 C1114 1.409 1_554 S
C1117 C1115 1.415 . S
C1118 H1108 0.930 . S
C1118 C1116 1.419 . S
C1118 C1119 1.362 . S
C1119 H1109 0.930 . S
C1119 C1112 1.409 1_554 S
C1119 C1118 1.362 . S
H1120 C1126 0.930 . S
H1121 C1129 0.930 . S
H1122 C1130 0.930 . S
H1123 C1131 0.930 . S
H1124 C1134 0.930 . S
H1125 C1135 0.930 . S
C1126 H1120 0.930 . S
C1126 C1127 1.355 . S
C1126 C1128 1.415 . S
C1127 C1126 1.355 . S
C1127 C1129 1.419 . S
C1128 C1126 1.415 . S
C1128 C1133 1.425 1_554 S
C1128 C1135 1.409 1_554 S
C1129 H1121 0.930 . S
C1129 C1127 1.419 . S
C1129 C1130 1.362 . S
C1130 H1122 0.930 . S
C1130 C1129 1.362 . S
C1130 C1133 1.409 1_554 S
C1131 H1123 0.930 . S
C1131 C1132 1.355 . S
C1131 C1133 1.415 . S
C1132 C1131 1.355 . S
C1132 C1134 1.419 . S
C1133 C1128 1.425 1_556 S
C1133 C1130 1.409 1_556 S
C1133 C1131 1.415 . S
C1134 H1124 0.930 . S
C1134 C1132 1.419 . S
C1134 C1135 1.362 . S
C1135 H1125 0.930 . S
C1135 C1128 1.409 1_556 S
C1135 C1134 1.362 . S
H1136 C1142 0.930 . S
H1137 C1145 0.930 . S
H1138 C1146 0.930 . S
H1139 C1147 0.930 . S
H1140 C1150 0.930 . S
H1141 C1151 0.930 . S
C1142 H1136 0.930 . S
C1142 C1143 1.355 . S
C1142 C1144 1.415 . S
C1143 C1142 1.355 . S
C1143 C1145 1.419 . S
C1144 C1142 1.415 . S
C1144 C1149 1.425 1_554 S
C1144 C1151 1.409 1_554 S
C1145 H1137 0.930 . S
C1145 C1143 1.419 . S
C1145 C1146 1.362 . S
C1146 H1138 0.930 . S
C1146 C1145 1.362 . S
C1146 C1149 1.409 1_554 S
C1147 H1139 0.930 . S
C1147 C1148 1.355 . S
C1147 C1149 1.415 . S
C1148 C1147 1.355 . S
C1148 C1150 1.419 . S
C1149 C1144 1.425 1_556 S
C1149 C1146 1.409 1_556 S
C1149 C1147 1.415 . S
C1150 H1140 0.930 . S
C1150 C1148 1.419 . S
C1150 C1151 1.362 . S
C1151 H1141 0.930 . S
C1151 C1144 1.409 1_556 S
C1151 C1150 1.362 . S
H1152 C1158 0.930 . S
H1153 C1161 0.930 . S
H1154 C1162 0.930 . S
H1155 C1163 0.930 . S
H1156 C1166 0.930 . S
H1157 C1167 0.930 . S
C1158 H1152 0.930 . S
C1158 C1159 1.355 . S
C1158 C1160 1.415 . S
C1159 C1158 1.355 . S
C1159 C1161 1.419 . S
C1160 C1158 1.415 . S
C1160 C1165 1.425 1_556 S
C1160 C1167 1.409 1_556 S
C1161 H1153 0.930 . S
C1161 C1159 1.419 . S
C1161 C1162 1.362 . S
C1162 H1154 0.930 . S
C1162 C1161 1.362 . S
C1162 C1165 1.409 1_556 S
C1163 H1155 0.930 . S
C1163 C1164 1.355 . S
C1163 C1165 1.415 . S
C1164 C1163 1.355 . S
C1164 C1166 1.419 . S
C1165 C1160 1.425 1_554 S
C1165 C1162 1.409 1_554 S
C1165 C1163 1.415 . S
C1166 H1156 0.930 . S
C1166 C1164 1.419 . S
C1166 C1167 1.362 . S
C1167 H1157 0.930 . S
C1167 C1160 1.409 1_554 S
C1167 C1166 1.362 . S
C535 C94 0.907 . S
C540 C28 0.902 . S
C551 C61 1.029 . S
C556 C127 1.026 . S
C567 C226 0.963 . S
C572 C160 0.951 . S
C583 C259 0.980 . S
C588 C193 0.991 . S
C599 C292 1.028 . S
C604 C358 1.025 . S
C615 C391 0.899 . S
C620 C325 0.901 . S
C631 C490 1.015 . S
C636 C424 1.021 . S
C647 C457 1.029 . S
C652 C523 1.027 . S
C663 N5 1.733 . S
C668 N500 1.740 . S
C679 N401 1.741 . S
C684 N38 1.729 . S
C695 N434 1.734 . S
C700 N71 1.739 . S
C711 N467 1.729 . S
C716 N104 1.741 . S
C727 N302 1.737 . S
C732 N137 1.737 . S
C743 N335 1.734 . S
C748 N170 1.739 . S
C759 N368 1.741 . S
C764 N203 1.732 . S
C775 N269 1.730 . S
C780 N236 1.741 . S
C791 C17 1.509 . S
C796 C107 1.528 . S
C807 C8 1.529 . S
C812 C50 1.508 . S
C823 C83 1.440 . S
C828 C41 1.523 . S
C839 C74 1.532 . S
C844 C116 1.456 . S
C855 C173 1.519 . S
C860 C149 1.450 . S
C871 C182 1.504 . S
C876 C206 1.531 . S
C887 C239 1.524 . S
C892 C215 1.508 . S
C903 C140 1.527 . S
C908 C248 1.442 . S
C919 C281 1.484 . S
C924 C371 1.518 . S
C935 C272 1.518 . S
C940 C314 1.490 . S
C951 C347 1.463 . S
C956 C305 1.517 . S
C967 C380 1.505 . S
C972 C338 1.522 . S
C983 C413 1.510 . S
C988 C437 1.526 . S
C999 C470 1.520 . S
C1004 C446 1.498 . S
C1015 C503 1.534 . S
C1020 C479 1.486 . S
C1031 C512 1.441 . S
C1036 C404 1.526 . S
C1047 N14 1.524 . S
C1052 N212 1.565 . S
C1063 N245 1.521 . S
C1068 N47 1.496 . S
C1079 N146 1.573 1_655 S
C1084 N80 1.570 1_455 S
C1095 N179 1.529 . S
C1100 N113 1.498 . S
C1111 N278 1.531 . S
C1116 N476 1.499 . S
C1127 N509 1.530 . S
C1132 N311 1.569 . S
C1143 N410 1.538 . S
C1148 N344 1.501 . S
C1159 N377 1.501 . S
C1164 N443 1.504 . S
