# Generated by pormake.
# Topology wkc, (5)-cn, num edge types: 1
# Building blocks:
#     Node 0, Type 0, BuildingBlock: XOMCOT_clean_sbu_1, # of connection points: 5
#     Node 1, Type 0, BuildingBlock: XOMCOT_clean_sbu_1, # of connection points: 5
#     Node 2, Type 0, BuildingBlock: XOMCOT_clean_sbu_1, # of connection points: 5
#     Node 3, Type 0, BuildingBlock: XOMCOT_clean_sbu_1, # of connection points: 5
#     Node 4, Type 0, BuildingBlock: XOMCOT_clean_sbu_1, # of connection points: 5
#     Node 5, Type 0, BuildingBlock: XOMCOT_clean_sbu_1, # of connection points: 5
#     Node 6, Type 0, BuildingBlock: XOMCOT_clean_sbu_1, # of connection points: 5
#     Node 7, Type 0, BuildingBlock: XOMCOT_clean_sbu_1, # of connection points: 5
#     Node 8, Type 0, BuildingBlock: XOMCOT_clean_sbu_1, # of connection points: 5
#     Node 9, Type 0, BuildingBlock: XOMCOT_clean_sbu_1, # of connection points: 5
#     Node 10, Type 0, BuildingBlock: XOMCOT_clean_sbu_1, # of connection points: 5
#     Node 11, Type 0, BuildingBlock: XOMCOT_clean_sbu_1, # of connection points: 5
#     Edge 12, Type (0, 0), BuildingBlock: TEMPAE_clean_linker_10, # of connection points: 2
#     Edge 13, Type (0, 0), BuildingBlock: TEMPAE_clean_linker_10, # of connection points: 2
#     Edge 14, Type (0, 0), BuildingBlock: TEMPAE_clean_linker_10, # of connection points: 2
#     Edge 15, Type (0, 0), BuildingBlock: TEMPAE_clean_linker_10, # of connection points: 2
#     Edge 16, Type (0, 0), BuildingBlock: TEMPAE_clean_linker_10, # of connection points: 2
#     Edge 17, Type (0, 0), BuildingBlock: TEMPAE_clean_linker_10, # of connection points: 2
#     Edge 18, Type (0, 0), BuildingBlock: TEMPAE_clean_linker_10, # of connection points: 2
#     Edge 19, Type (0, 0), BuildingBlock: TEMPAE_clean_linker_10, # of connection points: 2
#     Edge 20, Type (0, 0), BuildingBlock: TEMPAE_clean_linker_10, # of connection points: 2
#     Edge 21, Type (0, 0), BuildingBlock: TEMPAE_clean_linker_10, # of connection points: 2
#     Edge 22, Type (0, 0), BuildingBlock: TEMPAE_clean_linker_10, # of connection points: 2
#     Edge 23, Type (0, 0), BuildingBlock: TEMPAE_clean_linker_10, # of connection points: 2
#     Edge 24, Type (0, 0), BuildingBlock: TEMPAE_clean_linker_10, # of connection points: 2
#     Edge 25, Type (0, 0), BuildingBlock: TEMPAE_clean_linker_10, # of connection points: 2
#     Edge 26, Type (0, 0), BuildingBlock: TEMPAE_clean_linker_10, # of connection points: 2
#     Edge 27, Type (0, 0), BuildingBlock: TEMPAE_clean_linker_10, # of connection points: 2
#     Edge 28, Type (0, 0), BuildingBlock: TEMPAE_clean_linker_10, # of connection points: 2
#     Edge 29, Type (0, 0), BuildingBlock: TEMPAE_clean_linker_10, # of connection points: 2
#     Edge 30, Type (0, 0), BuildingBlock: TEMPAE_clean_linker_10, # of connection points: 2
#     Edge 31, Type (0, 0), BuildingBlock: TEMPAE_clean_linker_10, # of connection points: 2
#     Edge 32, Type (0, 0), BuildingBlock: TEMPAE_clean_linker_10, # of connection points: 2
#     Edge 33, Type (0, 0), BuildingBlock: TEMPAE_clean_linker_10, # of connection points: 2
#     Edge 34, Type (0, 0), BuildingBlock: TEMPAE_clean_linker_10, # of connection points: 2
#     Edge 35, Type (0, 0), BuildingBlock: TEMPAE_clean_linker_10, # of connection points: 2
#     Edge 36, Type (0, 0), BuildingBlock: TEMPAE_clean_linker_10, # of connection points: 2
#     Edge 37, Type (0, 0), BuildingBlock: TEMPAE_clean_linker_10, # of connection points: 2
#     Edge 38, Type (0, 0), BuildingBlock: TEMPAE_clean_linker_10, # of connection points: 2
#     Edge 39, Type (0, 0), BuildingBlock: TEMPAE_clean_linker_10, # of connection points: 2
#     Edge 40, Type (0, 0), BuildingBlock: TEMPAE_clean_linker_10, # of connection points: 2
#     Edge 41, Type (0, 0), BuildingBlock: TEMPAE_clean_linker_10, # of connection points: 2
# Relax obj value: 0.260
# Max RMSD: 0.215
# Mean RMSD: 0.215
data_MOF--net-wkc--node1-XOMCOT_clean_sbu_1--edge1-TEMPAE_clean_linker_10
_symmetry_space_group_name_H-M    P1
_symmetry_Int_Tables_number       1
_symmetry_cell_setting            triclinic
loop_
_symmetry_equiv_pos_as_xyz
'x, y, z'
_cell_length_a     38.326426
_cell_length_b     38.342017
_cell_length_c     47.43254
_cell_angle_alpha  90.119367
_cell_angle_beta   90.050573
_cell_angle_gamma 119.9277
loop_
_atom_site_label
_atom_site_type_symbol
_atom_site_fract_x
_atom_site_fract_y
_atom_site_fract_z
_atom_type_partial_charge
C0 C 0.32281 0.48516 0.04375 0.0
C1 C 0.32479 0.51704 0.05845 0.0
N2 N 0.29396 0.52213 0.05012 0.0
N3 N 0.29068 0.46985 0.0264 0.0
C4 C 0.27368 0.493 0.03067 0.0
H5 H 0.34401 0.47437 0.04504 0.0
Co6 Co 0.27904 0.43016 0.99937 0.0
C7 C 0.19211 0.37431 0.00785 0.0
O8 O 0.20053 0.34503 0.00667 0.0
N9 N 0.26961 0.39178 0.97026 0.0
C10 C 0.24479 0.34908 0.93384 0.0
C11 C 0.23714 0.37115 0.9533 0.0
C12 C 0.29767 0.38426 0.95878 0.0
N13 N 0.28298 0.35756 0.93735 0.0
O14 O 0.28514 0.46818 0.97095 0.0
H15 H 0.20985 0.3728 0.95416 0.0
H16 H 0.32876 0.39868 0.96554 0.0
O17 O 0.22033 0.41071 0.00367 0.0
C18 C 0.32148 0.48623 0.96243 0.0
O19 O 0.3464 0.47525 0.97261 0.0
N20 N 0.27616 0.39446 0.02857 0.0
C21 C 0.27782 0.34861 0.07407 0.0
C22 C 0.25551 0.36847 0.07553 0.0
C23 C 0.25522 0.39124 0.05274 0.0
C24 C 0.29906 0.37638 0.02725 0.0
C25 C 0.29937 0.35246 0.04927 0.0
H26 H 0.23889 0.40733 0.05495 0.0
H27 H 0.3187 0.38147 0.00979 0.0
H28 H 0.24821 0.48985 0.01869 0.0
H29 H 0.34759 0.53547 0.07376 0.0
H30 H 0.22436 0.32935 0.91777 0.0
H31 H 0.23961 0.36795 0.09451 0.0
H32 H 0.31733 0.33802 0.04702 0.0
C33 C 0.83615 0.30234 0.21817 0.0
C34 C 0.80526 0.30169 0.23329 0.0
N35 N 0.77005 0.27473 0.22129 0.0
N36 N 0.82064 0.27555 0.19686 0.0
C37 C 0.78032 0.25929 0.19922 0.0
H38 H 0.86792 0.3224 0.22178 0.0
Co39 Co 0.84949 0.26898 0.1678 0.0
C40 C 0.81926 0.18134 0.16536 0.0
O41 O 0.85602 0.18972 0.15902 0.0
N42 N 0.8789 0.26385 0.13713 0.0
C43 C 0.89029 0.2512 0.09315 0.0
C44 C 0.86143 0.2427 0.11337 0.0
C45 C 0.91861 0.28539 0.13046 0.0
N46 N 0.9263 0.27819 0.10393 0.0
O47 O 0.81655 0.2772 0.14126 0.0
H48 H 0.82932 0.22353 0.11048 0.0
H49 H 0.94146 0.30813 0.14372 0.0
O50 O 0.8118 0.21023 0.16836 0.0
C51 C 0.8356 0.31275 0.13142 0.0
O52 O 0.87325 0.33631 0.13907 0.0
N53 N 0.8832 0.26455 0.19499 0.0
C54 C 0.93352 0.27109 0.23987 0.0
C55 C 0.89502 0.23731 0.23722 0.0
C56 C 0.86998 0.23509 0.21507 0.0
C57 C 0.91999 0.29822 0.19794 0.0
C58 C 0.94602 0.30169 0.21971 0.0
H59 H 0.83913 0.21105 0.21551 0.0
H60 H 0.92811 0.32389 0.18457 0.0
H61 H 0.75905 0.23755 0.18441 0.0
H62 H 0.80865 0.3213 0.2508 0.0
H63 H 0.88505 0.23912 0.07194 0.0
H64 H 0.8833 0.21401 0.25314 0.0
H65 H 0.97503 0.3289 0.22137 0.0
C66 C 0.54178 0.83111 0.37749 0.0
C67 C 0.51049 0.80105 0.39236 0.0
N68 N 0.5016 0.76533 0.3809 0.0
N69 N 0.55302 0.81452 0.35691 0.0
C70 C 0.52797 0.77445 0.35945 0.0
H71 H 0.55417 0.86307 0.38067 0.0
Co72 Co 0.58918 0.84182 0.32805 0.0
C73 C 0.64376 0.80797 0.32668 0.0
O74 O 0.67303 0.84395 0.31976 0.0
N75 N 0.62444 0.86968 0.29757 0.0
C76 C 0.64813 0.87945 0.2536 0.0
C77 C 0.62721 0.85125 0.27402 0.0
C78 C 0.64376 0.90928 0.29061 0.0
N79 N 0.65842 0.91597 0.26406 0.0
O80 O 0.5478 0.80976 0.30136 0.0
H81 H 0.61311 0.81899 0.27137 0.0
H82 H 0.64467 0.93275 0.30364 0.0
O83 O 0.60796 0.8022 0.32943 0.0
C84 C 0.5326 0.82979 0.29095 0.0
O85 O 0.54786 0.86775 0.29818 0.0
N86 N 0.62761 0.87484 0.35538 0.0
C87 C 0.67089 0.92401 0.40099 0.0
C88 C 0.66581 0.88537 0.39795 0.0
C89 C 0.64302 0.86086 0.3756 0.0
C90 C 0.63166 0.91205 0.35833 0.0
C91 C 0.65366 0.93735 0.38063 0.0
H92 H 0.6356 0.82984 0.37605 0.0
H93 H 0.61495 0.92096 0.34466 0.0
H94 H 0.52819 0.75256 0.34512 0.0
H95 H 0.49403 0.80541 0.40923 0.0
H96 H 0.65427 0.87343 0.23241 0.0
H97 H 0.67772 0.87331 0.41343 0.0
H98 H 0.65482 0.96603 0.38285 0.0
C99 C 0.71179 0.54461 0.55865 0.0
C100 C 0.71135 0.51348 0.57344 0.0
N101 N 0.73809 0.50479 0.56153 0.0
N102 N 0.73896 0.55571 0.53771 0.0
C103 C 0.75447 0.53107 0.54002 0.0
H104 H 0.6924 0.5572 0.56215 0.0
Co105 Co 0.74798 0.59116 0.50831 0.0
C106 C 0.83639 0.64321 0.50893 0.0
O107 O 0.83051 0.67362 0.50398 0.0
N108 N 0.75573 0.62521 0.47692 0.0
C109 C 0.77375 0.65004 0.43338 0.0
C110 C 0.78173 0.63196 0.45554 0.0
C111 C 0.73104 0.63797 0.46639 0.0
N112 N 0.7419 0.6539 0.44034 0.0
O113 O 0.73458 0.54802 0.48216 0.0
H114 H 0.8037 0.62213 0.45524 0.0
H115 H 0.70321 0.63225 0.47599 0.0
O116 O 0.80599 0.60738 0.50922 0.0
C117 C 0.69648 0.53085 0.47902 0.0
O118 O 0.6771 0.54576 0.49283 0.0
N119 N 0.75707 0.63178 0.53518 0.0
C120 C 0.75718 0.67981 0.57995 0.0
C121 C 0.78341 0.66419 0.57995 0.0
C122 C 0.78269 0.64011 0.55756 0.0
C123 C 0.73085 0.64601 0.53529 0.0
C124 C 0.73152 0.67129 0.55668 0.0
H125 H 0.80079 0.62584 0.55934 0.0
H126 H 0.70697 0.63542 0.52014 0.0
H127 H 0.77638 0.53157 0.52542 0.0
H128 H 0.69123 0.49712 0.59059 0.0
H129 H 0.78936 0.65855 0.41338 0.0
H130 H 0.80261 0.66823 0.59786 0.0
H131 H 0.71042 0.68223 0.55553 0.0
C132 C 0.18705 0.71466 0.7294 0.0
C133 C 0.21808 0.71583 0.74476 0.0
N134 N 0.25299 0.73998 0.73136 0.0
N135 N 0.20227 0.7383 0.70653 0.0
C136 C 0.24245 0.75324 0.70826 0.0
H137 H 0.15532 0.69646 0.73402 0.0
Co138 Co 0.17336 0.74338 0.67676 0.0
C139 C 0.20935 0.83152 0.66996 0.0
O140 O 0.17328 0.82511 0.66343 0.0
N141 N 0.14416 0.74709 0.64547 0.0
C142 C 0.13389 0.757 0.60058 0.0
C143 C 0.16232 0.76554 0.62116 0.0
C144 C 0.10435 0.72686 0.63874 0.0
N145 N 0.09736 0.73252 0.61162 0.0
O146 O 0.2019 0.72783 0.65103 0.0
H147 H 0.19456 0.78285 0.61819 0.0
H148 H 0.08082 0.70613 0.65252 0.0
O149 O 0.21438 0.80125 0.67407 0.0
C150 C 0.18366 0.68946 0.65082 0.0
O151 O 0.15183 0.67018 0.66702 0.0
N152 N 0.14331 0.75454 0.70324 0.0
C153 C 0.09933 0.75546 0.74995 0.0
C154 C 0.13863 0.78694 0.74542 0.0
C155 C 0.1604 0.7855 0.72232 0.0
C156 C 0.10526 0.72348 0.70766 0.0
C157 C 0.08239 0.72376 0.73043 0.0
H158 H 0.192 0.80751 0.7215 0.0
H159 H 0.09394 0.69642 0.69518 0.0
H160 H 0.26335 0.77249 0.69233 0.0
H161 H 0.21486 0.69844 0.76351 0.0
H162 H 0.13974 0.76728 0.57895 0.0
H163 H 0.15329 0.81131 0.76051 0.0
H164 H 0.05295 0.69778 0.73398 0.0
C165 C 0.47967 0.1664 0.8927 0.0
C166 C 0.51025 0.19405 0.90954 0.0
N167 N 0.52317 0.23102 0.89883 0.0
N168 N 0.47294 0.18578 0.87156 0.0
C169 C 0.49988 0.22513 0.87588 0.0
H170 H 0.46473 0.13411 0.89509 0.0
Co171 Co 0.43987 0.16246 0.84018 0.0
C172 C 0.39506 0.2078 0.83388 0.0
O173 O 0.3648 0.17685 0.82144 0.0
N174 N 0.40788 0.13848 0.80747 0.0
C175 C 0.39123 0.13166 0.76185 0.0
C176 C 0.41123 0.15859 0.78331 0.0
C177 C 0.38588 0.09914 0.79983 0.0
N178 N 0.37539 0.09419 0.77226 0.0
O179 O 0.4853 0.19322 0.81629 0.0
H180 H 0.42887 0.19093 0.78109 0.0
H181 H 0.37994 0.07428 0.81339 0.0
O182 O 0.42621 0.2058 0.84117 0.0
C183 C 0.50205 0.17219 0.81186 0.0
O184 O 0.4862 0.13653 0.82369 0.0
N185 N 0.39705 0.12987 0.86445 0.0
C186 C 0.3509 0.0803 0.90855 0.0
C187 C 0.35456 0.11819 0.90472 0.0
C188 C 0.37841 0.14288 0.88281 0.0
C189 C 0.39281 0.09265 0.8676 0.0
C190 C 0.36941 0.06714 0.88916 0.0
H191 H 0.38432 0.17336 0.88251 0.0
H192 H 0.41065 0.08403 0.85484 0.0
H193 H 0.50406 0.2487 0.86142 0.0
H194 H 0.52282 0.18725 0.92774 0.0
H195 H 0.38952 0.13911 0.74008 0.0
H196 H 0.34181 0.12995 0.91981 0.0
H197 H 0.3678 0.03828 0.89162 0.0
C198 C 0.54606 0.71178 0.78611 0.0
C199 C 0.51348 0.70778 0.77117 0.0
N200 N 0.50501 0.73608 0.78026 0.0
N201 N 0.55838 0.74274 0.80433 0.0
C202 C 0.53283 0.75696 0.80032 0.0
H203 H 0.55909 0.69249 0.78457 0.0
Co204 Co 0.59629 0.7556 0.83279 0.0
C205 C 0.64942 0.84302 0.82527 0.0
O206 O 0.67985 0.8366 0.82834 0.0
N207 N 0.63243 0.76595 0.86329 0.0
C208 C 0.67069 0.78908 0.90196 0.0
C209 C 0.65123 0.79778 0.88101 0.0
C210 C 0.63833 0.73737 0.87548 0.0
N211 N 0.66237 0.7509 0.89841 0.0
O212 O 0.55557 0.74712 0.85968 0.0
H213 H 0.64985 0.82518 0.87968 0.0
H214 H 0.62471 0.70671 0.86789 0.0
O215 O 0.61337 0.81358 0.82841 0.0
C216 C 0.53674 0.71004 0.86642 0.0
O217 O 0.54833 0.68597 0.85551 0.0
N218 N 0.63514 0.76093 0.80511 0.0
C219 C 0.68373 0.76067 0.76087 0.0
C220 C 0.66227 0.78132 0.75836 0.0
C221 C 0.63837 0.78112 0.78057 0.0
C222 C 0.65564 0.74048 0.80775 0.0
C223 C 0.68089 0.74096 0.78638 0.0
H224 H 0.62103 0.79602 0.77747 0.0
H225 H 0.65156 0.72201 0.82573 0.0
H226 H 0.53306 0.78045 0.81315 0.0
H227 H 0.4967 0.68507 0.75536 0.0
H228 H 0.68853 0.80886 0.91896 0.0
H229 H 0.66214 0.79597 0.73891 0.0
H230 H 0.69692 0.72472 0.78964 0.0
C231 C 0.84404 0.52583 0.95136 0.0
C232 C 0.81462 0.4917 0.93832 0.0
N233 N 0.77882 0.48263 0.94946 0.0
N234 N 0.82704 0.53902 0.97047 0.0
C235 C 0.78724 0.51143 0.96902 0.0
H236 H 0.87574 0.53872 0.9474 0.0
Co237 Co 0.85024 0.58128 0.99743 0.0
C238 C 0.7963 0.59864 0.96318 0.0
O239 O 0.80878 0.5868 0.94129 0.0
N240 N 0.87319 0.62123 0.02503 0.0
C241 C 0.88235 0.6564 0.06436 0.0
C242 C 0.85476 0.63277 0.04403 0.0
C243 C 0.91181 0.63847 0.03395 0.0
N244 N 0.91817 0.65985 0.05791 0.0
O245 O 0.81493 0.54365 0.02491 0.0
H246 H 0.82287 0.62258 0.04411 0.0
H247 H 0.93413 0.63291 0.02425 0.0
O248 O 0.80997 0.59795 0.9878 0.0
C249 C 0.83328 0.53109 0.04061 0.0
O250 O 0.87247 0.54739 0.03803 0.0
N251 N 0.88765 0.61775 0.97123 0.0
C252 C 0.94365 0.66336 0.93001 0.0
C253 C 0.91515 0.67363 0.93928 0.0
C254 C 0.88824 0.6512 0.96067 0.0
C255 C 0.91867 0.61118 0.96543 0.0
C256 C 0.94659 0.63307 0.94452 0.0
H257 H 0.86763 0.66053 0.96824 0.0
H258 H 0.92097 0.58781 0.97657 0.0
H259 H 0.76476 0.51265 0.98212 0.0
H260 H 0.81949 0.47409 0.9226 0.0
H261 H 0.87627 0.66894 0.08294 0.0
H262 H 0.91267 0.69784 0.92957 0.0
H263 H 0.96973 0.62575 0.93941 0.0
C264 C 0.29399 0.82734 0.10612 0.0
C265 C 0.29338 0.79674 0.09062 0.0
N266 N 0.26994 0.76169 0.104 0.0
N267 N 0.27056 0.81183 0.12909 0.0
C268 C 0.25645 0.77173 0.12729 0.0
H269 H 0.31198 0.85907 0.10153 0.0
Co270 Co 0.26614 0.84115 0.15907 0.0
C271 C 0.17884 0.8114 0.16463 0.0
O272 O 0.1882 0.84812 0.172 0.0
N273 N 0.26353 0.87102 0.19054 0.0
C274 C 0.25447 0.88256 0.23537 0.0
C275 C 0.2445 0.85363 0.21489 0.0
C276 C 0.28533 0.91082 0.19711 0.0
N277 N 0.28029 0.91858 0.22419 0.0
O278 O 0.27632 0.80864 0.18466 0.0
H279 H 0.22577 0.82153 0.21793 0.0
H280 H 0.3067 0.93369 0.18326 0.0
O281 O 0.20722 0.80347 0.16027 0.0
C282 C 0.31294 0.82751 0.19255 0.0
O283 O 0.33632 0.86447 0.18365 0.0
N284 N 0.25955 0.87453 0.13275 0.0
C285 C 0.26249 0.92329 0.08792 0.0
C286 C 0.22876 0.88511 0.09192 0.0
C287 C 0.22845 0.86077 0.11382 0.0
C288 C 0.29284 0.91131 0.12886 0.0
C289 C 0.2947 0.93644 0.10695 0.0
H290 H 0.20444 0.82993 0.11395 0.0
H291 H 0.31956 0.91986 0.14126 0.0
H292 H 0.23783 0.75055 0.14331 0.0
H293 H 0.31086 0.80037 0.07183 0.0
H294 H 0.24419 0.87736 0.25701 0.0
H295 H 0.20357 0.87319 0.0774 0.0
H296 H 0.32232 0.9647 0.10385 0.0
C297 C 0.47947 0.30638 0.27593 0.0
C298 C 0.51007 0.30765 0.26004 0.0
N299 N 0.51984 0.28116 0.27087 0.0
N300 N 0.46968 0.27896 0.29658 0.0
C301 C 0.49473 0.26402 0.29295 0.0
H302 H 0.46616 0.32528 0.27328 0.0
Co303 Co 0.43487 0.27095 0.32665 0.0
C304 C 0.38018 0.18296 0.32445 0.0
O305 O 0.35045 0.19029 0.32825 0.0
N306 N 0.40195 0.26519 0.35835 0.0
C307 C 0.3691 0.24626 0.39931 0.0
C308 C 0.3866 0.23584 0.37803 0.0
C309 C 0.39608 0.29446 0.3696 0.0
N310 N 0.37489 0.28323 0.39394 0.0
O311 O 0.47805 0.28262 0.35251 0.0
H312 H 0.38939 0.20917 0.37783 0.0
H313 H 0.40836 0.32414 0.36059 0.0
O314 O 0.41661 0.21233 0.32548 0.0
C315 C 0.50162 0.32066 0.35244 0.0
O316 O 0.49218 0.3428 0.33656 0.0
N317 N 0.39379 0.26297 0.30014 0.0
C318 C 0.34598 0.26385 0.25559 0.0
C319 C 0.36363 0.23945 0.25438 0.0
C320 C 0.38724 0.2394 0.27677 0.0
C321 C 0.37626 0.28635 0.30173 0.0
C322 C 0.35135 0.28623 0.28026 0.0
H323 H 0.40251 0.2223 0.27435 0.0
H324 H 0.3832 0.30735 0.31862 0.0
H325 H 0.49622 0.24289 0.30731 0.0
H326 H 0.52473 0.32738 0.24235 0.0
H327 H 0.35464 0.22855 0.41787 0.0
H328 H 0.36155 0.22241 0.23561 0.0
H329 H 0.33811 0.30528 0.28253 0.0
C330 C 0.1785 0.47492 0.43466 0.0
C331 C 0.20731 0.50551 0.41855 0.0
N332 N 0.24372 0.51651 0.42967 0.0
N333 N 0.19657 0.46631 0.45581 0.0
C334 C 0.23633 0.49231 0.45218 0.0
H335 H 0.1464 0.46132 0.43171 0.0
Co336 Co 0.17237 0.43159 0.48647 0.0
C337 C 0.24829 0.42507 0.49399 0.0
O338 O 0.26422 0.45062 0.51502 0.0
N339 N 0.14787 0.39767 0.51738 0.0
C340 C 0.13612 0.36552 0.55832 0.0
C341 C 0.16449 0.38618 0.53783 0.0
C342 C 0.10945 0.38366 0.52595 0.0
N343 N 0.10149 0.36395 0.55079 0.0
O344 O 0.20302 0.47565 0.51184 0.0
H345 H 0.1955 0.39335 0.53848 0.0
H346 H 0.08813 0.38932 0.51482 0.0
O347 O 0.21419 0.41699 0.4839 0.0
C348 C 0.18457 0.49558 0.51319 0.0
O349 O 0.15125 0.48248 0.49845 0.0
N350 N 0.13953 0.38956 0.46175 0.0
C351 C 0.08891 0.33858 0.41967 0.0
C352 C 0.12342 0.33722 0.42773 0.0
C353 C 0.14822 0.36273 0.44911 0.0
C354 C 0.10461 0.3891 0.45558 0.0
C355 C 0.07892 0.36401 0.43456 0.0
H356 H 0.17465 0.36123 0.45473 0.0
H357 H 0.0979 0.41024 0.46591 0.0
H358 H 0.25929 0.49516 0.46678 0.0
H359 H 0.20176 0.51928 0.40049 0.0
H360 H 0.1407 0.35285 0.5774 0.0
H361 H 0.13172 0.31737 0.41712 0.0
H362 H 0.05277 0.36633 0.42892 0.0
C363 C 0.72148 0.18527 0.59827 0.0
C364 C 0.72013 0.21573 0.584 0.0
N365 N 0.74373 0.25059 0.59769 0.0
N366 N 0.74608 0.20082 0.62079 0.0
C367 C 0.75948 0.24076 0.6197 0.0
H368 H 0.70364 0.15357 0.59343 0.0
Co369 Co 0.7514 0.17229 0.65086 0.0
C370 C 0.83926 0.203 0.65393 0.0
O371 O 0.83106 0.16654 0.66098 0.0
N372 N 0.75554 0.14378 0.68225 0.0
C373 C 0.7675 0.13476 0.72696 0.0
C374 C 0.7765 0.16245 0.70583 0.0
C375 C 0.73362 0.10449 0.68991 0.0
N376 N 0.74042 0.09829 0.71693 0.0
O377 O 0.74187 0.20511 0.67691 0.0
H378 H 0.79582 0.19465 0.70796 0.0
H379 H 0.71103 0.08097 0.67693 0.0
O380 O 0.81021 0.21018 0.65074 0.0
C381 C 0.70452 0.19413 0.67646 0.0
O382 O 0.68078 0.16497 0.6592 0.0
N383 N 0.75636 0.13795 0.62461 0.0
C384 C 0.74716 0.08734 0.57933 0.0
C385 C 0.78226 0.12476 0.58218 0.0
C386 C 0.78582 0.15011 0.60455 0.0
C387 C 0.72198 0.10169 0.62188 0.0
C388 C 0.71704 0.07562 0.59976 0.0
H389 H 0.81063 0.18055 0.60406 0.0
H390 H 0.69663 0.09445 0.63539 0.0
H391 H 0.77776 0.26168 0.63606 0.0
H392 H 0.70171 0.21218 0.56572 0.0
H393 H 0.77923 0.1411 0.74826 0.0
H394 H 0.80536 0.13565 0.5661 0.0
H395 H 0.68894 0.04744 0.59785 0.0
C396 C 0.36038 0.24846 0.8332 0.0
C397 C 0.388 0.23955 0.846 0.0
C398 C 0.34745 0.2726 0.84689 0.0
C399 C 0.36131 0.28703 0.87453 0.0
C400 C 0.39071 0.27973 0.88699 0.0
C401 C 0.40424 0.25672 0.87236 0.0
C402 C 0.31732 0.28088 0.83231 0.0
C403 C 0.40564 0.29355 0.91664 0.0
C404 C 0.33968 0.3651 0.90814 0.0
C405 C 0.30325 0.34043 0.922 0.0
C406 C 0.35889 0.34831 0.89236 0.0
C407 C 0.34195 0.3059 0.89134 0.0
C408 C 0.30562 0.28106 0.90603 0.0
C409 C 0.28639 0.29862 0.92071 0.0
C410 C 0.39673 0.37582 0.87629 0.0
C411 C 0.28703 0.23584 0.9063 0.0
H412 H 0.34792 0.23553 0.81275 0.0
H413 H 0.42545 0.24983 0.88249 0.0
H414 H 0.28742 0.26305 0.8424 0.0
H415 H 0.32632 0.31313 0.83439 0.0
H416 H 0.31419 0.27289 0.80956 0.0
H417 H 0.43143 0.28926 0.92218 0.0
H418 H 0.41497 0.32575 0.91942 0.0
H419 H 0.38082 0.27615 0.93173 0.0
H420 H 0.35245 0.39746 0.90908 0.0
H421 H 0.25838 0.27973 0.93169 0.0
H422 H 0.39184 0.36856 0.85346 0.0
H423 H 0.42174 0.37109 0.88312 0.0
H424 H 0.40608 0.40807 0.87927 0.0
H425 H 0.27769 0.2237 0.88466 0.0
H426 H 0.26028 0.22106 0.92028 0.0
H427 H 0.3095 0.22757 0.9135 0.0
C428 C 0.12155 0.32416 0.02101 0.0
C429 C 0.15161 0.36466 0.01822 0.0
C430 C 0.0848 0.31317 0.03425 0.0
C431 C 0.07736 0.34338 0.04484 0.0
C432 C 0.10684 0.38447 0.04109 0.0
C433 C 0.14372 0.39467 0.02789 0.0
C434 C 0.05446 0.269 0.03779 0.0
C435 C 0.09988 0.41761 0.05174 0.0
C436 C 0.96667 0.30529 0.06048 0.0
C437 C 0.96461 0.29741 0.0895 0.0
C438 C 1.00353 0.3224 0.04595 0.0
C439 C 0.03924 0.3313 0.06065 0.0
C440 C 0.0375 0.32445 0.09012 0.0
C441 C 1.0003 0.30789 0.10419 0.0
C442 C 1.00403 0.32976 0.01466 0.0
C443 C 0.07464 0.3329 0.1066 0.0
H444 H 0.12711 0.30065 0.01351 0.0
H445 H 0.16677 0.42602 0.02597 0.0
H446 H 0.04926 0.26157 0.06055 0.0
H447 H 0.02517 0.26202 0.02837 0.0
H448 H 0.06448 0.24924 0.02782 0.0
H449 H 0.12438 0.44792 0.04544 0.0
H450 H 0.07083 0.41329 0.0436 0.0
H451 H 0.09789 0.41646 0.07508 0.0
H452 H 0.93935 0.29801 0.04909 0.0
H453 H 0.99888 0.30172 0.12657 0.0
H454 H 1.01088 0.30873 0.00307 0.0
H455 H 0.02805 0.36078 0.00948 0.0
H456 H 0.97476 0.32544 0.00694 0.0
H457 H 0.08535 0.31228 0.09944 0.0
H458 H 0.0689 0.32884 0.12964 0.0
H459 H 0.09927 0.36408 0.10269 0.0
C460 C 0.80203 0.11093 0.17705 0.0
C461 C 0.79034 0.14029 0.17589 0.0
C462 C 0.77824 0.07399 0.19065 0.0
C463 C 0.74134 0.06564 0.20313 0.0
C464 C 0.72834 0.09428 0.20092 0.0
C465 C 0.7531 0.13137 0.18748 0.0
C466 C 0.79346 0.04453 0.19262 0.0
C467 C 0.68886 0.08624 0.21349 0.0
C468 C 0.67024 0.95523 0.22028 0.0
C469 C 0.67768 0.95378 0.24911 0.0
C470 C 0.68947 0.99167 0.20529 0.0
C471 C 0.71742 0.02752 0.21933 0.0
C472 C 0.72457 0.02633 0.24856 0.0
C473 C 0.70435 0.98956 0.26313 0.0
C474 C 0.68038 0.99167 0.17432 0.0
C475 C 0.75458 0.06367 0.26428 0.0
H476 H 0.83066 0.11732 0.16818 0.0
H477 H 0.74374 0.15378 0.18676 0.0
H478 H 0.79816 0.03982 0.21507 0.0
H479 H 0.77082 0.0149 0.18387 0.0
H480 H 0.82227 0.05508 0.18116 0.0
H481 H 0.68147 0.10996 0.20797 0.0
H482 H 0.66407 0.05672 0.2061 0.0
H483 H 0.69024 0.08471 0.23679 0.0
H484 H 0.64909 0.92779 0.20946 0.0
H485 H 0.7103 0.98852 0.28535 0.0
H486 H 0.70768 0.99942 0.16174 0.0
H487 H 0.67192 0.01489 0.16991 0.0
H488 H 0.65564 0.96199 0.16704 0.0
H489 H 0.7851 0.07488 0.25536 0.0
H490 H 0.75554 0.05807 0.28716 0.0
H491 H 0.74704 0.0879 0.26166 0.0
C492 C 0.70946 0.69513 0.43488 0.0
C493 C 0.7223 0.66996 0.42303 0.0
C494 C 0.69346 0.71385 0.41793 0.0
C495 C 0.68919 0.70635 0.38848 0.0
C496 C 0.70026 0.6793 0.37666 0.0
C497 C 0.71724 0.6619 0.394 0.0
C498 C 0.68295 0.74316 0.43137 0.0
C499 C 0.6952 0.66957 0.34556 0.0
C500 C 0.62494 0.74147 0.34951 0.0
C501 C 0.6545 0.77877 0.33886 0.0
C502 C 0.63567 0.71663 0.36471 0.0
C503 C 0.67687 0.72978 0.36986 0.0
C504 C 0.70674 0.76672 0.35832 0.0
C505 C 0.69523 0.79042 0.34274 0.0
C506 C 0.60292 0.67697 0.37603 0.0
C507 C 0.751 0.78227 0.36355 0.0
H508 H 0.71359 0.7015 0.45729 0.0
H509 H 0.72663 0.64197 0.3849 0.0
H510 H 0.70289 0.77378 0.42287 0.0
H511 H 0.65155 0.73487 0.4261 0.0
H512 H 0.68626 0.74426 0.45467 0.0
H513 H 0.70078 0.64453 0.34025 0.0
H514 H 0.66434 0.66126 0.33861 0.0
H515 H 0.71654 0.69651 0.33338 0.0
H516 H 0.59341 0.73212 0.34664 0.0
H517 H 0.71844 0.81912 0.33467 0.0
H518 H 0.60203 0.67851 0.39935 0.0
H519 H 0.60929 0.65251 0.37066 0.0
H520 H 0.57278 0.669 0.3676 0.0
H521 H 0.75737 0.78692 0.3865 0.0
H522 H 0.77051 0.81117 0.35257 0.0
H523 H 0.75937 0.75988 0.35639 0.0
C524 C 0.05711 0.70367 0.56823 0.0
C525 C 0.05926 0.71422 0.5968 0.0
C526 C 0.02081 0.68797 0.55302 0.0
C527 C 0.98576 0.68323 0.56653 0.0
C528 C 0.98749 0.69279 0.5956 0.0
C529 C 0.0241 0.70785 0.61042 0.0
C530 C 0.02027 0.67754 0.52225 0.0
C531 C 0.95104 0.68872 0.61078 0.0
C532 C 0.90777 0.69193 0.52206 0.0
C533 C 0.87613 0.6519 0.5205 0.0
C534 C 0.94359 0.70226 0.53659 0.0
C535 C 0.94844 0.67183 0.54974 0.0
C536 C 0.91738 0.6311 0.54727 0.0
C537 C 0.88152 0.62162 0.5328 0.0
C538 C 0.97573 0.74606 0.53868 0.0
C539 C 0.92157 0.59768 0.5606 0.0
H540 H 0.08397 0.70779 0.5577 0.0
H541 H 0.02564 0.7161 0.63243 0.0
H542 H 0.99504 0.64674 0.51794 0.0
H543 H 0.01532 0.69859 0.50911 0.0
H544 H 0.04887 0.67927 0.51557 0.0
H545 H 0.95656 0.69497 0.63372 0.0
H546 H 0.9425 0.71005 0.60166 0.0
H547 H 0.92503 0.65796 0.60788 0.0
H548 H 0.90413 0.71565 0.51265 0.0
H549 H 0.85727 0.59064 0.53187 0.0
H550 H 1.00467 0.75042 0.53036 0.0
H551 H 0.98073 0.75563 0.56112 0.0
H552 H 0.96764 0.76603 0.52688 0.0
H553 H 0.95012 0.59946 0.55383 0.0
H554 H 0.89611 0.56744 0.55507 0.0
H555 H 0.92285 0.60106 0.58387 0.0
C556 C 0.23131 0.90389 0.6794 0.0
C557 C 0.23989 0.87231 0.68031 0.0
C558 C 0.2557 0.94053 0.6934 0.0
C559 C 0.29006 0.94627 0.7085 0.0
C560 C 0.30022 0.9154 0.70827 0.0
C561 C 0.27495 0.87874 0.6943 0.0
C562 C 0.24355 0.97244 0.69311 0.0
C563 C 0.33695 0.9205 0.72368 0.0
C564 C 0.36548 0.05487 0.72851 0.0
C565 C 0.35506 0.05678 0.75662 0.0
C566 C 0.3456 0.01884 0.71291 0.0
C567 C 0.31401 0.98386 0.72551 0.0
C568 C 0.30368 0.98548 0.75401 0.0
C569 C 0.32452 0.02178 0.76925 0.0
C570 C 0.35809 0.01834 0.6828 0.0
C571 C 0.26984 0.94913 0.76819 0.0
H572 H 0.20443 0.89947 0.66864 0.0
H573 H 0.28192 0.85462 0.69525 0.0
H574 H 0.23627 0.97745 0.71485 0.0
H575 H 0.26885 1.00143 0.68559 0.0
H576 H 0.21694 0.96404 0.67944 0.0
H577 H 0.34283 0.89542 0.7193 0.0
H578 H 0.36388 0.94928 0.71762 0.0
H579 H 0.33275 0.92179 0.74672 0.0
H580 H 0.38954 0.08157 0.71876 0.0
H581 H 0.31619 0.02312 0.79088 0.0
H582 H 0.33295 0.01239 0.66833 0.0
H583 H 0.36496 0.99368 0.67976 0.0
H584 H 0.38491 0.04724 0.67667 0.0
H585 H 0.24109 0.94009 0.75704 0.0
H586 H 0.26635 0.9549 0.79069 0.0
H587 H 0.27527 0.92333 0.76699 0.0
C588 C 0.75724 0.63202 0.97987 0.0
C589 C 0.77247 0.61899 0.95786 0.0
C590 C 0.73653 0.65308 0.97415 0.0
C591 C 0.73166 0.66188 0.94586 0.0
C592 C 0.74676 0.64849 0.92368 0.0
C593 C 0.76652 0.62702 0.92992 0.0
C594 C 0.72017 0.6662 0.99833 0.0
C595 C 0.74281 0.65753 0.89321 0.0
C596 C 0.65421 0.68788 0.91861 0.0
C597 C 0.67785 0.7295 0.91435 0.0
C598 C 0.6705 0.66585 0.93104 0.0
C599 C 0.71169 0.68577 0.93887 0.0
C600 C 0.73512 0.72814 0.93593 0.0
C601 C 0.71781 0.7495 0.92394 0.0
C602 C 0.64417 0.62091 0.9343 0.0
C603 C 0.77927 0.75058 0.94353 0.0
H604 H 0.76163 0.62595 0.00149 0.0
H605 H 0.77818 0.61731 0.91266 0.0
H606 H 0.73549 0.69953 0.99913 0.0
H607 H 0.6876 0.65504 0.9951 0.0
H608 H 0.72437 0.6551 0.01896 0.0
H609 H 0.7566 0.64532 0.87845 0.0
H610 H 0.71059 0.64451 0.88754 0.0
H611 H 0.75753 0.69055 0.89007 0.0
H612 H 0.62311 0.67241 0.91166 0.0
H613 H 0.73624 0.7816 0.92054 0.0
H614 H 0.64857 0.6112 0.95538 0.0
H615 H 0.6527 0.60535 0.91831 0.0
H616 H 0.61175 0.611 0.93149 0.0
H617 H 0.78413 0.74178 0.96479 0.0
H618 H 0.79207 0.78373 0.94311 0.0
H619 H 0.79617 0.74261 0.9283 0.0
C620 C 0.12599 0.74503 0.14397 0.0
C621 C 0.13758 0.78401 0.15351 0.0
C622 C 0.08898 0.72148 0.1299 0.0
C623 C 0.06341 0.73765 0.12465 0.0
C624 C 0.0745 0.7765 0.13494 0.0
C625 C 0.11102 0.79887 0.1495 0.0
C626 C 0.07777 0.67976 0.11997 0.0
C627 C 0.04868 0.79534 0.12942 0.0
C628 C 0.9921 0.70073 0.06156 0.0
C629 C 0.95453 0.67843 0.07459 0.0
C630 C 0.02781 0.71963 0.07755 0.0
C631 C 0.02601 0.71514 0.10728 0.0
C632 C 0.98814 0.69148 0.12043 0.0
C633 C 0.95283 0.67391 0.10397 0.0
C634 C 0.06734 0.74541 0.06269 0.0
C635 C 0.9849 0.68499 0.15191 0.0
H636 H 0.14622 0.73324 0.14692 0.0
H637 H 0.11952 0.82896 0.15661 0.0
H638 H 0.04665 0.65777 0.12663 0.0
H639 H 0.07843 0.67909 0.0966 0.0
H640 H 0.09861 0.66995 0.12826 0.0
H641 H 0.06114 0.82553 0.13932 0.0
H642 H 0.04612 0.79845 0.10636 0.0
H643 H 0.0178 0.77573 0.13757 0.0
H644 H 0.99335 0.70424 0.03886 0.0
H645 H 0.92382 0.65606 0.11401 0.0
H646 H 0.08871 0.7347 0.06758 0.0
H647 H 0.08112 0.77691 0.07037 0.0
H648 H 0.0637 0.74526 0.03944 0.0
H649 H 1.00529 0.67394 0.15892 0.0
H650 H 0.95372 0.66307 0.15859 0.0
H651 H 0.99451 0.71396 0.16291 0.0
C652 C 0.32986 0.11183 0.31208 0.0
C653 C 0.37032 0.14262 0.31336 0.0
C654 C 0.3183 0.07545 0.29796 0.0
C655 C 0.34787 0.06905 0.28495 0.0
C656 C 0.38903 0.09921 0.28719 0.0
C657 C 0.39977 0.13573 0.30125 0.0
C658 C 0.27408 0.04439 0.2961 0.0
C659 C 0.42159 0.09338 0.27402 0.0
C660 C 0.31102 0.95902 0.26728 0.0
C661 C 0.3003 0.95689 0.23875 0.0
C662 C 0.3286 0.99571 0.28217 0.0
C663 C 0.33503 0.0312 0.2684 0.0
C664 C 0.3253 0.02942 0.23937 0.0
C665 C 0.3084 0.9924 0.22487 0.0
C666 C 0.33913 0.99624 0.3129 0.0
C667 C 0.33104 0.06629 0.22391 0.0
H668 H 0.30676 0.11661 0.3214 0.0
H669 H 0.43107 0.15931 0.30195 0.0
H670 H 0.26438 0.03924 0.27369 0.0
H671 H 0.2687 0.01525 0.30471 0.0
H672 H 0.25488 0.05364 0.30777 0.0
H673 H 0.45224 0.11824 0.27938 0.0
H674 H 0.41873 0.0645 0.28109 0.0
H675 H 0.41815 0.09175 0.25076 0.0
H676 H 0.30557 0.93185 0.27801 0.0
H677 H 0.30005 0.99091 0.20288 0.0
H678 H 0.31881 1.00225 0.32608 0.0
H679 H 0.37036 0.02079 0.31702 0.0
H680 H 0.33637 0.96726 0.3197 0.0
H681 H 0.31065 0.07618 0.23289 0.0
H682 H 0.32466 0.06062 0.201 0.0
H683 H 0.36231 0.09145 0.22671 0.0
C684 C 0.29955 0.40209 0.49511 0.0
C685 C 0.2707 0.40717 0.48031 0.0
C686 C 0.31942 0.38358 0.48227 0.0
C687 C 0.31039 0.37005 0.45393 0.0
C688 C 0.28211 0.37622 0.43872 0.0
C689 C 0.26288 0.39482 0.45201 0.0
C690 C 0.34949 0.37778 0.4992 0.0
C691 C 0.27165 0.36261 0.40845 0.0
C692 C 0.38012 0.34766 0.40953 0.0
C693 C 0.36048 0.30542 0.41039 0.0
C694 C 0.36497 0.3692 0.4243 0.0
C695 C 0.32915 0.34811 0.44029 0.0
C696 C 0.30972 0.30558 0.44174 0.0
C697 C 0.32557 0.28486 0.42686 0.0
C698 C 0.38682 0.41452 0.42229 0.0
C699 C 0.27134 0.28178 0.45832 0.0
H700 H 0.306 0.41181 0.51691 0.0
H701 H 0.24177 0.39994 0.44005 0.0
H702 H 0.33852 0.34517 0.50171 0.0
H703 H 0.37864 0.39098 0.48788 0.0
H704 H 0.35473 0.39175 0.52046 0.0
H705 H 0.24952 0.37022 0.39943 0.0
H706 H 0.29922 0.37679 0.3953 0.0
H707 H 0.25885 0.32955 0.40704 0.0
H708 H 0.4074 0.36399 0.39729 0.0
H709 H 0.30979 0.2523 0.42745 0.0
H710 H 0.39324 0.42807 0.44369 0.0
H711 H 0.36746 0.42422 0.41143 0.0
H712 H 0.41563 0.42662 0.41058 0.0
H713 H 0.27567 0.29301 0.48035 0.0
H714 H 0.26114 0.24911 0.4587 0.0
H715 H 0.24709 0.28585 0.4489 0.0
C716 C 0.8907 0.2709 0.63472 0.0
C717 C 0.87987 0.23139 0.64232 0.0
C718 C 0.9274 0.29604 0.62084 0.0
C719 C 0.95346 0.28104 0.61378 0.0
C720 C 0.9429 0.24143 0.62182 0.0
C721 C 0.90666 0.2174 0.63622 0.0
C722 C 0.93794 0.33839 0.61328 0.0
C723 C 0.96927 0.22382 0.61435 0.0
C724 C 0.02711 0.32494 0.5524 0.0
C725 C 0.0642 0.34579 0.56643 0.0
C726 C 0.99073 0.30465 0.5675 0.0
C727 C 0.99133 0.30598 0.5974 0.0
C728 C 0.02864 0.32851 0.6116 0.0
C729 C 0.06459 0.34768 0.59598 0.0
C730 C 0.95182 0.28034 0.55147 0.0
C731 C 0.0307 0.33158 0.64336 0.0
H732 H 0.87025 0.282 0.63927 0.0
H733 H 0.89864 0.18688 0.64172 0.0
H734 H 0.9684 0.36014 0.62136 0.0
H735 H 0.93874 0.34167 0.59003 0.0
H736 H 0.91598 0.34648 0.62196 0.0
H737 H 0.95681 0.19253 0.62211 0.0
H738 H 0.97266 0.22378 0.59111 0.0
H739 H 0.9998 0.24258 0.62341 0.0
H740 H 0.02672 0.32322 0.52959 0.0
H741 H 0.09315 0.36428 0.60689 0.0
H742 H 0.92963 0.28942 0.55779 0.0
H743 H 0.93864 0.24799 0.5567 0.0
H744 H 0.95617 0.28392 0.52828 0.0
H745 H 1.00928 0.3408 0.65131 0.0
H746 H 0.06141 0.35348 0.65103 0.0
H747 H 0.02176 0.30171 0.65256 0.0
C748 C 0.62695 0.88702 0.8008 0.0
C749 C 0.6576 0.8821 0.81301 0.0
C750 C 0.6361 0.92217 0.78558 0.0
C751 C 0.67683 0.9529 0.78233 0.0
C752 C 0.70761 0.94859 0.7955 0.0
C753 C 0.69762 0.91353 0.81074 0.0
C754 C 0.60234 0.92587 0.77227 0.0
C755 C 0.75143 0.9804 0.79263 0.0
C756 C 0.71276 0.02475 0.71981 0.0
C757 C 0.7209 0.06106 0.73256 0.0
C758 C 0.69683 0.98889 0.73549 0.0
C759 C 0.68802 0.98916 0.76451 0.0
C760 C 0.69424 0.02537 0.77708 0.0
C761 C 0.71098 0.06091 0.76106 0.0
C762 C 0.69133 0.95118 0.72131 0.0
C763 C 0.68456 0.02694 0.80773 0.0
H764 H 0.59597 0.86288 0.80228 0.0
H765 H 0.72159 0.91025 0.82018 0.0
H766 H 0.60479 0.95504 0.77814 0.0
H767 H 0.60463 0.92539 0.74898 0.0
H768 H 0.57222 0.90108 0.77867 0.0
H769 H 0.77168 0.9728 0.80459 0.0
H770 H 0.76026 0.98409 0.77008 0.0
H771 H 0.75625 0.00983 0.80028 0.0
H772 H 0.72051 0.02481 0.69784 0.0
H773 H 0.71651 0.08876 0.77086 0.0
H774 H 0.66045 0.92579 0.725 0.0
H775 H 0.71263 0.94268 0.73059 0.0
H776 H 0.69668 0.95513 0.69823 0.0
H777 H 0.65384 1.00207 0.81266 0.0
H778 H 0.68651 0.05598 0.81342 0.0
H779 H 0.70595 0.0229 0.82121 0.0
C780 C 0.26143 0.69544 0.11745 0.0
C781 C 0.26548 0.72308 0.09655 0.0
C782 C 0.26198 0.66 0.11052 0.0
C783 C 0.26673 0.65198 0.08202 0.0
C784 C 0.26898 0.67887 0.06074 0.0
C785 C 0.26826 0.71395 0.06826 0.0
C786 C 0.25944 0.63213 0.13386 0.0
C787 C 0.27402 0.67156 0.0301 0.0
C788 C 0.31891 0.59188 0.06637 0.0
C789 C 0.28666 0.55419 0.05851 0.0
C790 C 0.31267 0.62362 0.07435 0.0
C791 C 0.27312 0.61768 0.07462 0.0
C792 C 0.24031 0.57962 0.06693 0.0
C793 C 0.2475 0.54839 0.05883 0.0
C794 C 0.34861 0.66378 0.08207 0.0
C795 C 0.19768 0.57197 0.06715 0.0
H796 H 0.25966 0.70234 0.13937 0.0
H797 H 0.27071 0.73479 0.05195 0.0
H798 H 0.23674 0.60057 0.12862 0.0
H799 H 0.2889 0.63348 0.13617 0.0
H800 H 0.25145 0.64021 0.15442 0.0
H801 H 0.27227 0.69368 0.01594 0.0
H802 H 0.30368 0.67358 0.02704 0.0
H803 H 0.25057 0.64084 0.02367 0.0
H804 H 0.34931 0.59689 0.06573 0.0
H805 H 0.22242 0.51926 0.05304 0.0
H806 H 0.34481 0.6728 0.10358 0.0
H807 H 0.35091 0.68726 0.06732 0.0
H808 H 0.3773 0.66322 0.08139 0.0
H809 H 0.19023 0.57869 0.08834 0.0
H810 H 0.17539 0.54037 0.06151 0.0
H811 H 0.1947 0.59233 0.052 0.0
C812 C 0.70071 0.25751 0.20794 0.0
C813 C 0.73064 0.26822 0.22861 0.0
C814 C 0.66384 0.25531 0.21434 0.0
C815 C 0.65675 0.26422 0.24204 0.0
C816 C 0.68613 0.27338 0.26323 0.0
C817 C 0.72257 0.27513 0.25628 0.0
C818 C 0.63324 0.24526 0.19115 0.0
C819 C 0.67987 0.28312 0.29302 0.0
C820 C 0.58855 0.30881 0.25193 0.0
C821 C 0.5534 0.27616 0.26277 0.0
C822 C 0.62204 0.30506 0.24477 0.0
C823 C 0.62041 0.26762 0.24835 0.0
C824 C 0.58479 0.23429 0.25886 0.0
C825 C 0.55178 0.23903 0.26612 0.0
C826 C 0.65955 0.34152 0.23395 0.0
C827 C 0.58169 0.19377 0.26265 0.0
H828 H 0.70668 0.25247 0.18646 0.0
H829 H 0.74517 0.28268 0.27249 0.0
H830 H 0.60299 0.22165 0.19823 0.0
H831 H 0.63116 0.27236 0.18593 0.0
H832 H 0.64124 0.23469 0.17168 0.0
H833 H 0.70437 0.2869 0.30746 0.0
H834 H 0.67856 0.31139 0.29316 0.0
H835 H 0.65076 0.25896 0.30137 0.0
H836 H 0.59031 0.33774 0.24972 0.0
H837 H 0.52456 0.21363 0.27424 0.0
H838 H 0.668 0.33482 0.21311 0.0
H839 H 0.68504 0.34928 0.24856 0.0
H840 H 0.65561 0.3682 0.23177 0.0
H841 H 0.58867 0.18377 0.24252 0.0
H842 H 0.55128 0.17042 0.26976 0.0
H843 H 0.60418 0.19613 0.27841 0.0
C844 C 0.45136 0.71937 0.41525 0.0
C845 C 0.46768 0.72655 0.38799 0.0
C846 C 0.41612 0.68339 0.42189 0.0
C847 C 0.39675 0.65356 0.40083 0.0
C848 C 0.41389 0.65985 0.37358 0.0
C849 C 0.44906 0.69629 0.36745 0.0
C850 C 0.39884 0.67794 0.45122 0.0
C851 C 0.39426 0.62872 0.35057 0.0
C852 C 0.31776 0.54912 0.42561 0.0
C853 C 0.282 0.55 0.42127 0.0
C854 C 0.35533 0.58219 0.41843 0.0
C855 C 0.35718 0.61712 0.4069 0.0
C856 C 0.32112 0.61797 0.40217 0.0
C857 C 0.28404 0.5844 0.40931 0.0
C858 C 0.39305 0.57993 0.42346 0.0
C859 C 0.32176 0.65475 0.39018 0.0
H860 H 0.4659 0.74222 0.43138 0.0
H861 H 0.46106 0.7016 0.34626 0.0
H862 H 0.36897 0.67595 0.4502 0.0
H863 H 0.3942 0.64938 0.46045 0.0
H864 H 0.41858 0.70311 0.46555 0.0
H865 H 0.4133 0.63646 0.33139 0.0
H866 H 0.38787 0.59877 0.35819 0.0
H867 H 0.36503 0.62611 0.34466 0.0
H868 H 0.31631 0.52244 0.43454 0.0
H869 H 0.25663 0.58556 0.40627 0.0
H870 H 0.41243 0.60302 0.43916 0.0
H871 H 0.41062 0.58654 0.40366 0.0
H872 H 0.38634 0.54991 0.43126 0.0
H873 H 0.33851 0.68072 0.40463 0.0
H874 H 0.29101 0.65014 0.38701 0.0
H875 H 0.3377 0.66288 0.36966 0.0
C876 C 0.73484 0.45373 0.59494 0.0
C877 C 0.74404 0.47129 0.56806 0.0
C878 C 0.73757 0.41928 0.60091 0.0
C879 C 0.75004 0.40206 0.57954 0.0
C880 C 0.76078 0.42043 0.5527 0.0
C881 C 0.7575 0.45464 0.54725 0.0
C882 C 0.7258 0.40054 0.6298 0.0
C883 C 0.77427 0.40305 0.52934 0.0
C884 C 0.78089 0.32496 0.59936 0.0
C885 C 0.74585 0.28872 0.59282 0.0
C886 C 0.78285 0.3622 0.59516 0.0
C887 C 0.74877 0.36309 0.58446 0.0
C888 C 0.71325 0.32655 0.57803 0.0
C889 C 0.7123 0.2899 0.5822 0.0
C890 C 0.82137 0.40055 0.60199 0.0
C891 C 0.67611 0.32612 0.56687 0.0
H892 H 0.72507 0.46667 0.61129 0.0
H893 H 0.76418 0.4674 0.5263 0.0
H894 H 0.69861 0.37029 0.62809 0.0
H895 H 0.75019 0.39641 0.63885 0.0
H896 H 0.71927 0.41902 0.64462 0.0
H897 H 0.78491 0.42283 0.51051 0.0
H898 H 0.79892 0.39816 0.53685 0.0
H899 H 0.74889 0.37332 0.52288 0.0
H900 H 0.80691 0.32413 0.60746 0.0
H901 H 0.68485 0.26201 0.57767 0.0
H902 H 0.81551 0.41825 0.6179 0.0
H903 H 0.83292 0.41942 0.58281 0.0
H904 H 0.84511 0.3947 0.61024 0.0
H905 H 0.66614 0.3415 0.58199 0.0
H906 H 0.65076 0.2951 0.56322 0.0
H907 H 0.68311 0.34288 0.54671 0.0
C908 C 0.321 0.75367 0.71755 0.0
C909 C 0.29226 0.74594 0.73857 0.0
C910 C 0.35779 0.75574 0.72401 0.0
C911 C 0.36607 0.74983 0.75214 0.0
C912 C 0.33791 0.74358 0.77361 0.0
C913 C 0.30146 0.74181 0.76658 0.0
C914 C 0.38704 0.76254 0.7005 0.0
C915 C 0.34561 0.73724 0.80389 0.0
C916 C 0.43454 0.70608 0.7642 0.0
C917 C 0.47068 0.74 0.77259 0.0
C918 C 0.4005 0.70902 0.75733 0.0
C919 C 0.40254 0.74688 0.75878 0.0
C920 C 0.439 0.78137 0.76701 0.0
C921 C 0.4726 0.77749 0.77392 0.0
C922 C 0.36214 0.67142 0.74887 0.0
C923 C 0.44243 0.82229 0.76863 0.0
H924 H 0.31417 0.75652 0.69582 0.0
H925 H 0.27984 0.7366 0.78303 0.0
H926 H 0.41764 0.78707 0.70621 0.0
H927 H 0.38894 0.73488 0.69721 0.0
H928 H 0.37792 0.77035 0.6803 0.0
H929 H 0.32198 0.73542 0.81835 0.0
H930 H 0.34666 0.70892 0.80565 0.0
H931 H 0.37524 0.76212 0.811 0.0
H932 H 0.43254 0.6769 0.7636 0.0
H933 H 0.50054 0.80385 0.78014 0.0
H934 H 0.35226 0.6754 0.72772 0.0
H935 H 0.33777 0.66584 0.76393 0.0
H936 H 0.36574 0.64441 0.74832 0.0
H937 H 0.43464 0.8301 0.74795 0.0
H938 H 0.47318 0.84628 0.77471 0.0
H939 H 0.42069 0.82179 0.78428 0.0
C940 C 0.73292 0.43111 0.91557 0.0
C941 C 0.74011 0.44837 0.94258 0.0
C942 C 0.69618 0.39671 0.9088 0.0
C943 C 0.66569 0.37906 0.92951 0.0
C944 C 0.67236 0.39678 0.95665 0.0
C945 C 0.70949 0.4312 0.96286 0.0
C946 C 0.69034 0.37875 0.87962 0.0
C947 C 0.64067 0.37881 0.97934 0.0
C948 C 0.55994 0.30523 0.90327 0.0
C949 C 0.55796 0.26813 0.90775 0.0
C950 C 0.59439 0.3416 0.91091 0.0
C951 C 0.62778 0.34086 0.92309 0.0
C952 C 0.6257 0.30347 0.92801 0.0
C953 C 0.59086 0.26765 0.92035 0.0
C954 C 0.59529 0.38084 0.90558 0.0
C955 C 0.66075 0.30131 0.9407 0.0
H956 H 0.75613 0.44454 0.89965 0.0
H957 H 0.7149 0.44401 0.98386 0.0
H958 H 0.68578 0.34786 0.88102 0.0
H959 H 0.66297 0.3763 0.86971 0.0
H960 H 0.71648 0.39688 0.86564 0.0
H961 H 0.64953 0.39761 0.99874 0.0
H962 H 0.61174 0.37512 0.97148 0.0
H963 H 0.63532 0.34845 0.98493 0.0
H964 H 0.53446 0.30577 0.89384 0.0
H965 H 0.5899 0.23923 0.92349 0.0
H966 H 0.6193 0.39903 0.89016 0.0
H967 H 0.60258 0.39863 0.92537 0.0
H968 H 0.56616 0.37621 0.89727 0.0
H969 H 0.68717 0.31624 0.9265 0.0
H970 H 0.65372 0.26983 0.94423 0.0
H971 H 0.66957 0.31761 0.96113 0.0
C972 C 0.33142 0.30786 0.2244 0.0
C973 C 0.32661 0.26976 0.23014 0.0
C974 C 0.31766 0.31557 0.19913 0.0
C975 C 0.29974 0.28487 0.17854 0.0
C976 C 0.29333 0.24595 0.18442 0.0
C977 C 0.30637 0.23871 0.21031 0.0
C978 C 0.32435 0.35734 0.19389 0.0
C979 C 0.2748 0.2126 0.16279 0.0
C980 C 0.24923 0.3075 0.11814 0.0
C981 C 0.28139 0.32719 0.09916 0.0
C982 C 0.25407 0.29188 0.14366 0.0
C983 C 0.29163 0.29511 0.15001 0.0
C984 C 0.3233 0.31243 0.13016 0.0
C985 C 0.31802 0.32876 0.10522 0.0
C986 C 0.21977 0.27411 0.16448 0.0
C987 C 0.36364 0.31577 0.13593 0.0
H988 H 0.34767 0.33252 0.23903 0.0
H989 H 0.30166 0.20894 0.21464 0.0
H990 H 0.34785 0.37247 0.17754 0.0
H991 H 0.29636 0.35572 0.18591 0.0
H992 H 0.33413 0.37626 0.21324 0.0
H993 H 0.26767 0.18301 0.17173 0.0
H994 H 0.24684 0.21014 0.15398 0.0
H995 H 0.2961 0.21965 0.14503 0.0
H996 H 0.22048 0.30519 0.11345 0.0
H997 H 0.3434 0.34435 0.09114 0.0
H998 H 0.22741 0.29469 0.18282 0.0
H999 H 0.21493 0.24492 0.17257 0.0
H1000 H 0.19118 0.26946 0.15509 0.0
H1001 H 0.37945 0.33825 0.15287 0.0
H1002 H 0.3832 0.32519 0.11696 0.0
H1003 H 0.35958 0.28655 0.14336 0.0
C1004 C 0.08589 0.3195 0.36895 0.0
C1005 C 0.06565 0.31724 0.39411 0.0
C1006 C 0.06494 0.30663 0.3433 0.0
C1007 C 0.02282 0.29118 0.34288 0.0
C1008 C 1.00187 0.28593 0.36851 0.0
C1009 C 0.02357 0.29906 0.39384 0.0
C1010 C 0.08835 0.31257 0.31645 0.0
C1011 C 0.9569 0.26921 0.36899 0.0
C1012 C 0.97767 0.31364 0.27925 0.0
C1013 C 0.95844 0.27642 0.26526 0.0
C1014 C 0.99928 0.31885 0.30421 0.0
C1015 C 1.00163 0.28599 0.31561 0.0
C1016 C 0.98286 0.24846 0.30143 0.0
C1017 C 0.96139 0.24409 0.27639 0.0
C1018 C 0.01882 0.35939 0.31874 0.0
C1019 C 0.98491 0.21286 0.31293 0.0
H1020 H 0.11845 0.33378 0.36896 0.0
H1021 H 1.00776 0.29668 0.41332 0.0
H1022 H 0.07299 0.28558 0.30272 0.0
H1023 H 0.09006 0.33829 0.30458 0.0
H1024 H 0.11952 0.31895 0.32068 0.0
H1025 H 0.94456 0.26215 0.39072 0.0
H1026 H 0.94984 0.29159 0.35981 0.0
H1027 H 0.94133 0.24151 0.35596 0.0
H1028 H 0.97484 0.33852 0.27115 0.0
H1029 H 0.94678 0.21533 0.26555 0.0
H1030 H 0.05145 0.37069 0.32179 0.0
H1031 H 1.00538 0.35641 0.33993 0.0
H1032 H 0.01522 0.38216 0.30663 0.0
H1033 H 0.01674 0.22092 0.31618 0.0
H1034 H 0.97025 0.18629 0.29871 0.0
H1035 H 0.96992 0.20434 0.33379 0.0
C1036 C 0.68199 0.9295 0.4533 0.0
C1037 C 0.68966 0.9483 0.42686 0.0
C1038 C 0.69563 0.95212 0.47822 0.0
C1039 C 0.71692 0.99462 0.47674 0.0
C1040 C 0.72628 0.01383 0.45014 0.0
C1041 C 0.71271 0.99042 0.4255 0.0
C1042 C 0.68529 0.93051 0.50619 0.0
C1043 C 0.74879 0.05913 0.44773 0.0
C1044 C 0.70337 0.0491 0.53872 0.0
C1045 C 0.73973 0.06306 0.55337 0.0
C1046 C 0.69588 0.0272 0.51363 0.0
C1047 C 0.7254 0.01877 0.50299 0.0
C1048 C 0.76223 0.03277 0.51766 0.0
C1049 C 0.7691 0.05507 0.54264 0.0
C1050 C 0.65639 0.0132 0.49845 0.0
C1051 C 0.79415 0.02392 0.50707 0.0
H1052 H 0.66368 0.89706 0.45474 0.0
H1053 H 0.71932 1.00518 0.40516 0.0
H1054 H 0.71229 0.94276 0.51996 0.0
H1055 H 0.6625 0.93537 0.51716 0.0
H1056 H 0.67296 0.8976 0.50366 0.0
H1057 H 0.75699 0.06933 0.42559 0.0
H1058 H 0.72979 0.07115 0.45601 0.0
H1059 H 0.77665 0.07234 0.46065 0.0
H1060 H 0.68096 0.05599 0.54665 0.0
H1061 H 0.79724 0.0659 0.55398 0.0
H1062 H 0.63962 0.97988 0.49692 0.0
H1063 H 0.66206 0.02512 0.47663 0.0
H1064 H 0.637 0.02299 0.50927 0.0
H1065 H 0.78179 0.9909 0.50597 0.0
H1066 H 0.82129 0.03728 0.5208 0.0
H1067 H 0.80332 0.03582 0.4854 0.0
C1068 C 0.71502 0.69434 0.61318 0.0
C1069 C 0.75303 0.70038 0.60544 0.0
C1070 C 0.70952 0.71021 0.63828 0.0
C1071 C 0.74249 0.73156 0.65677 0.0
C1072 C 0.78118 0.73888 0.64893 0.0
C1073 C 0.7861 0.72363 0.62319 0.0
C1074 C 0.66784 0.70235 0.64561 0.0
C1075 C 0.81692 0.76098 0.66834 0.0
C1076 C 0.72249 0.78648 0.7155 0.0
C1077 C 0.70525 0.75624 0.7361 0.0
C1078 C 0.73685 0.77984 0.68998 0.0
C1079 C 0.73505 0.74253 0.6853 0.0
C1080 C 0.72089 0.71324 0.70687 0.0
C1081 C 0.70557 0.72014 0.73174 0.0
C1082 C 0.75126 0.81163 0.66734 0.0
C1083 C 0.71934 0.67337 0.70296 0.0
H1084 H 0.68888 0.6757 0.60027 0.0
H1085 H 0.81575 0.7292 0.61731 0.0
H1086 H 0.6557 0.68093 0.66347 0.0
H1087 H 0.66899 0.73063 0.65237 0.0
H1088 H 0.64658 0.68944 0.62758 0.0
H1089 H 0.84568 0.76824 0.65787 0.0
H1090 H 0.81907 0.7893 0.67609 0.0
H1091 H 0.81299 0.74204 0.68705 0.0
H1092 H 0.72354 0.81495 0.71883 0.0
H1093 H 0.69195 0.69613 0.74706 0.0
H1094 H 0.72836 0.80149 0.65029 0.0
H1095 H 0.77962 0.81622 0.65776 0.0
H1096 H 0.75624 0.84092 0.67558 0.0
H1097 H 0.69505 0.65451 0.6878 0.0
H1098 H 0.71335 0.65656 0.72308 0.0
H1099 H 0.7481 0.67794 0.69409 0.0
C1100 C 0.09891 0.75799 0.80254 0.0
C1101 C 0.07839 0.7522 0.77692 0.0
C1102 C 0.07833 0.74872 0.8283 0.0
C1103 C 0.03625 0.73348 0.82841 0.0
C1104 C 0.01582 0.73005 0.80276 0.0
C1105 C 0.03712 0.73922 0.77726 0.0
C1106 C 0.10116 0.75246 0.85515 0.0
C1107 C 0.97105 0.71444 0.80207 0.0
C1108 C 0.97594 0.65868 0.88551 0.0
C1109 C 0.96864 0.68235 0.90456 0.0
C1110 C 0.99811 0.67514 0.86085 0.0
C1111 C 0.01297 0.71627 0.85474 0.0
C1112 C 1.00572 0.74047 0.87373 0.0
C1113 C 0.98377 0.72326 0.89852 0.0
C1114 C 1.00538 0.64832 0.84121 0.0
C1115 C 0.02097 0.7844 0.86777 0.0
H1116 H 0.13072 0.7675 0.8024 0.0
H1117 H 0.02128 0.73505 0.75748 0.0
H1118 H 0.09341 0.76783 0.87177 0.0
H1119 H 0.09247 0.72198 0.86306 0.0
H1120 H 0.13427 0.76933 0.85192 0.0
H1121 H 0.96075 0.71864 0.7811 0.0
H1122 H 0.95471 0.68184 0.80707 0.0
H1123 H 0.96262 0.72984 0.81825 0.0
H1124 H 0.96362 0.62687 0.88959 0.0
H1125 H 0.97862 0.7419 0.9132 0.0
H1126 H 0.03817 0.66097 0.83796 0.0
H1127 H 0.99177 0.64694 0.82029 0.0
H1128 H 0.99251 0.61718 0.84938 0.0
H1129 H 0.05425 0.80072 0.8659 0.0
H1130 H 1.0124 0.79899 0.88452 0.0
H1131 H 1.00877 0.78762 0.84734 0.0
C1132 C 0.28636 0.98912 0.06307 0.0
C1133 C 0.26652 0.94694 0.0621 0.0
C1134 C 0.29562 0.01185 0.03823 0.0
C1135 C 0.28452 0.99186 0.01184 0.0
C1136 C 0.26213 0.94935 0.01083 0.0
C1137 C 0.25364 0.9274 0.03593 0.0
C1138 C 0.31955 0.05718 0.04016 0.0
C1139 C 0.24956 0.92691 0.98311 0.0
C1140 C 0.29596 0.05114 0.94487 0.0
C1141 C 0.33285 0.05708 0.93465 0.0
C1142 C 0.27965 0.02997 0.97007 0.0
C1143 C 0.30106 0.01494 0.98539 0.0
C1144 C 0.33848 0.02127 0.97524 0.0
C1145 C 0.35385 0.04218 0.95001 0.0
C1146 C 0.23952 0.02345 0.98019 0.0
C1147 C 0.36245 1.00604 0.99107 0.0
H1148 H 0.29582 1.00443 0.08323 0.0
H1149 H 0.2388 0.89487 0.0348 0.0
H1150 H 0.35059 0.06795 0.03245 0.0
H1151 H 0.30602 0.07085 0.02659 0.0
H1152 H 0.32137 0.06812 0.06212 0.0
H1153 H 0.2276 0.89441 0.98602 0.0
H1154 H 0.23599 0.94004 0.96906 0.0
H1155 H 0.27647 0.9297 0.97224 0.0
H1156 H 0.27975 0.06271 0.93301 0.0
H1157 H 0.38284 0.04755 0.94253 0.0
H1158 H 0.24265 0.03614 0.00169 0.0
H1159 H 0.21767 0.99073 0.98156 0.0
H1160 H 0.22695 0.03752 0.96603 0.0
H1161 H 0.36912 0.01873 0.01273 0.0
H1162 H 0.39135 0.01407 0.98049 0.0
H1163 H 0.34458 0.97281 0.99304 0.0
C1164 C 0.3404 0.55748 0.95341 0.0
C1165 C 0.33805 0.52171 0.944 0.0
C1166 C 0.36747 0.59457 0.94085 0.0
C1167 C 0.39229 0.59549 0.91837 0.0
C1168 C 0.38683 0.55877 0.90717 0.0
C1169 C 0.36015 0.52241 0.92038 0.0
C1170 C 0.37213 0.63285 0.95339 0.0
C1171 C 0.41198 0.55803 0.88292 0.0
C1172 C 0.46364 0.68418 0.8731 0.0
C1173 C 0.50074 0.69219 0.88432 0.0
C1174 C 0.42729 0.65514 0.88553 0.0
C1175 C 0.42845 0.6339 0.90962 0.0
C1176 C 0.46603 0.64506 0.92248 0.0
C1177 C 0.50172 0.67373 0.90944 0.0
C1178 C 0.38804 0.6445 0.87123 0.0
C1179 C 0.46887 0.62377 0.94839 0.0
H1180 H 0.32379 0.55692 0.97207 0.0
H1181 H 0.35849 0.49468 0.91334 0.0
H1182 H 0.39891 0.64659 0.96741 0.0
H1183 H 0.37695 0.65502 0.93669 0.0
H1184 H 0.34541 0.62706 0.96607 0.0
H1185 H 0.4004 0.52717 0.87439 0.0
H1186 H 0.41273 0.57779 0.86561 0.0
H1187 H 0.44341 0.5696 0.89019 0.0
H1188 H 0.46301 0.69794 0.85329 0.0
H1189 H 0.53053 0.67961 0.9178 0.0
H1190 H 0.36416 0.63803 0.88695 0.0
H1191 H 0.37804 0.61697 0.85828 0.0
H1192 H 0.39123 0.66903 0.85713 0.0
H1193 H 0.44663 0.62102 0.96445 0.0
H1194 H 0.49941 0.63971 0.95798 0.0
H1195 H 0.46189 0.59288 0.94257 0.0
C1196 C 0.82799 0.49268 0.08352 0.0
C1197 C 0.81181 0.49413 0.05743 0.0
C1198 C 0.81832 0.4558 0.09587 0.0
C1199 C 0.79252 0.41951 0.08135 0.0
C1200 C 0.77242 0.4208 0.05659 0.0
C1201 C 0.78229 0.45833 0.04488 0.0
C1202 C 0.83975 0.45607 0.12268 0.0
C1203 C 0.74404 0.38295 0.04074 0.0
C1204 C 0.83782 0.35301 0.09037 0.0
C1205 C 0.81639 0.32967 0.11351 0.0
C1206 C 0.82718 0.37923 0.07754 0.0
C1207 C 0.79479 0.38287 0.08862 0.0
C1208 C 0.77056 0.35639 0.11026 0.0
C1209 C 0.78164 0.32983 0.12248 0.0
C1210 C 0.85344 0.40611 0.0541 0.0
C1211 C 0.73541 0.35869 0.12238 0.0
H1212 H 0.85075 0.52048 0.0932 0.0
H1213 H 0.76994 0.45947 0.02454 0.0
H1214 H 0.81863 0.43275 0.13749 0.0
H1215 H 0.86389 0.4491 0.11761 0.0
H1216 H 0.8537 0.48578 0.13346 0.0
H1217 H 0.72313 0.38766 0.02713 0.0
H1218 H 0.76173 0.37407 0.02699 0.0
H1219 H 0.72623 0.35771 0.0554 0.0
H1220 H 0.86461 0.35264 0.08345 0.0
H1221 H 0.76523 0.3119 0.14058 0.0
H1222 H 0.87216 0.43726 0.06221 0.0
H1223 H 0.8347 0.40703 0.0366 0.0
H1224 H 0.87384 0.39591 0.04553 0.0
H1225 H 0.7466 0.38312 0.13835 0.0
H1226 H 0.71375 0.33009 0.1329 0.0
H1227 H 0.71937 0.36566 0.10581 0.0
C1228 C 0.49677 0.83187 0.24841 0.0
C1229 C 0.4967 0.81142 0.27278 0.0
C1230 C 0.46075 0.82258 0.23475 0.0
C1231 C 0.42361 0.79281 0.24627 0.0
C1232 C 0.42367 0.7696 0.26949 0.0
C1233 C 0.46047 0.7791 0.28247 0.0
C1234 C 0.46237 0.84754 0.20965 0.0
C1235 C 0.38492 0.73746 0.28234 0.0
C1236 C 0.34978 0.8292 0.23553 0.0
C1237 C 0.33055 0.80927 0.21067 0.0
C1238 C 0.377 0.8206 0.24921 0.0
C1239 C 0.38601 0.79213 0.2372 0.0
C1240 C 0.36386 0.76931 0.21342 0.0
C1241 C 0.33612 0.77813 0.2004 0.0
C1242 C 0.39915 0.84511 0.27487 0.0
C1243 C 0.37222 0.73853 0.20004 0.0
H1244 H 0.52494 0.85689 0.24102 0.0
H1245 H 0.4605 0.7636 0.30157 0.0
H1246 H 0.44199 0.82807 0.19268 0.0
H1247 H 0.45212 0.86882 0.21606 0.0
H1248 H 0.4933 0.86523 0.20097 0.0
H1249 H 0.38984 0.71624 0.29538 0.0
H1250 H 0.37231 0.75187 0.2961 0.0
H1251 H 0.36222 0.72023 0.26581 0.0
H1252 H 0.34544 0.85342 0.24328 0.0
H1253 H 0.3215 0.7631 0.18089 0.0
H1254 H 0.43048 0.86758 0.26895 0.0
H1255 H 0.40071 0.82554 0.29142 0.0
H1256 H 0.38458 0.86143 0.28389 0.0
H1257 H 0.39944 0.75415 0.18662 0.0
H1258 H 0.34673 0.71712 0.18654 0.0
H1259 H 0.37819 0.72135 0.21627 0.0
C1260 C 0.53954 0.32981 0.39762 0.0
C1261 C 0.53857 0.34124 0.36975 0.0
C1262 C 0.57069 0.35587 0.41602 0.0
C1263 C 0.60124 0.39388 0.40611 0.0
C1264 C 0.6025 0.40321 0.37715 0.0
C1265 C 0.57108 0.37686 0.3594 0.0
C1266 C 0.56859 0.34445 0.44662 0.0
C1267 C 0.63446 0.44309 0.36547 0.0
C1268 C 0.63376 0.48479 0.45316 0.0
C1269 C 0.67325 0.49529 0.46058 0.0
C1270 C 0.60997 0.45129 0.43619 0.0
C1271 C 0.62576 0.42708 0.42638 0.0
C1272 C 0.66539 0.43689 0.43418 0.0
C1273 C 0.6889 0.4712 0.45105 0.0
C1274 C 0.56811 0.44247 0.4282 0.0
C1275 C 0.68304 0.4115 0.42444 0.0
H1276 H 0.51447 0.30222 0.40565 0.0
H1277 H 0.57067 0.38542 0.33767 0.0
H1278 H 0.59907 0.35413 0.45513 0.0
H1279 H 0.55571 0.35988 0.45905 0.0
H1280 H 0.54924 0.31149 0.4497 0.0
H1281 H 0.63531 0.44284 0.34206 0.0
H1282 H 0.62806 0.46707 0.37224 0.0
H1283 H 0.66464 0.45106 0.37368 0.0
H1284 H 0.62136 0.50322 0.46033 0.0
H1285 H 0.71924 0.47891 0.45698 0.0
H1286 H 0.54554 0.41136 0.4344 0.0
H1287 H 0.56601 0.44468 0.405 0.0
H1288 H 0.55995 0.46357 0.43833 0.0
H1289 H 0.66171 0.37921 0.4286 0.0
H1290 H 0.71214 0.42018 0.43501 0.0
H1291 H 0.68812 0.41485 0.40135 0.0
C1292 C 0.22551 0.54095 0.55343 0.0
C1293 C 0.19797 0.53168 0.53128 0.0
C1294 C 0.23289 0.57185 0.57284 0.0
C1295 C 0.21199 0.59352 0.57003 0.0
C1296 C 0.18658 0.58616 0.54646 0.0
C1297 C 0.18006 0.55556 0.52741 0.0
C1298 C 0.26102 0.57951 0.59728 0.0
C1299 C 0.16354 0.60832 0.5425 0.0
C1300 C 0.17327 0.62374 0.63331 0.0
C1301 C 0.19554 0.66593 0.63222 0.0
C1302 C 0.18022 0.59994 0.61428 0.0
C1303 C 0.21065 0.61861 0.59365 0.0
C1304 C 0.23515 0.66114 0.59355 0.0
C1305 C 0.22712 0.68441 0.61275 0.0
C1306 C 0.15305 0.55477 0.61514 0.0
C1307 C 0.26851 0.68214 0.57234 0.0
H1308 H 0.2398 0.52292 0.55638 0.0
H1309 H 0.15937 0.54924 0.51001 0.0
H1310 H 0.27982 0.61225 0.60152 0.0
H1311 H 0.24317 0.5653 0.61654 0.0
H1312 H 0.28104 0.56679 0.59338 0.0
H1313 H 0.14814 0.60184 0.52171 0.0
H1314 H 0.14046 0.59929 0.55927 0.0
H1315 H 0.184 0.64125 0.54437 0.0
H1316 H 0.14913 0.60901 0.64848 0.0
H1317 H 0.24479 0.71697 0.61197 0.0
H1318 H 0.17117 0.53954 0.61556 0.0
H1319 H 0.13413 0.54457 0.59583 0.0
H1320 H 0.13285 0.54484 0.63378 0.0
H1321 H 0.28547 0.66587 0.56964 0.0
H1322 H 0.28983 0.71372 0.57864 0.0
H1323 H 0.25541 0.68253 0.55156 0.0
C1324 C 0.65127 0.21054 0.68736 0.0
C1325 C 0.68615 0.21036 0.69598 0.0
C1326 C 0.62628 0.21473 0.70694 0.0
C1327 C 0.63631 0.2185 0.73594 0.0
C1328 C 0.67386 0.22292 0.74435 0.0
C1329 C 0.69852 0.21881 0.72416 0.0
C1330 C 0.58683 0.21017 0.69685 0.0
C1331 C 0.68602 0.22767 0.77497 0.0
C1332 C 0.56228 0.22613 0.78595 0.0
C1333 C 0.53727 0.18556 0.79309 0.0
C1334 C 0.59588 0.23792 0.76824 0.0
C1335 C 0.60392 0.2083 0.7571 0.0
C1336 C 0.57878 0.16741 0.76449 0.0
C1337 C 0.5461 0.15669 0.78248 0.0
C1338 C 0.62251 0.28184 0.76126 0.0
C1339 C 0.58566 0.1346 0.75281 0.0
H1340 H 0.64203 0.20463 0.66543 0.0
H1341 H 0.72555 0.21876 0.73085 0.0
H1342 H 0.56211 0.17937 0.70179 0.0
H1343 H 0.58013 0.23177 0.70773 0.0
H1344 H 0.58686 0.21481 0.67373 0.0
H1345 H 0.71892 0.23977 0.77744 0.0
H1346 H 0.67756 0.24789 0.78603 0.0
H1347 H 0.67003 0.19786 0.78543 0.0
H1348 H 0.55581 0.24859 0.79435 0.0
H1349 H 0.52686 0.12525 0.78779 0.0
H1350 H 0.62079 0.28664 0.73837 0.0
H1351 H 0.65436 0.29139 0.76615 0.0
H1352 H 0.61384 0.30139 0.7731 0.0
H1353 H 0.58297 0.13364 0.72949 0.0
H1354 H 0.56381 0.1044 0.76116 0.0
H1355 H 0.6165 0.14096 0.75805 0.0
loop_
_geom_bond_atom_site_label_1
_geom_bond_atom_site_label_2
_geom_bond_distance
_geom_bond_site_symmetry_2
_ccdc_geom_bond_type
C0 C1 1.351 . S
C0 N3 1.368 . S
C0 H5 0.931 . S
C1 C0 1.351 . S
C1 N2 1.373 . S
C1 H29 0.930 . S
N2 C1 1.373 . S
N2 C4 1.340 . S
N3 C0 1.368 . S
N3 C4 1.321 . S
N3 Co6 2.135 1_554 S
C4 N2 1.340 . S
C4 N3 1.321 . S
C4 H28 0.930 . S
H5 C0 0.931 . S
Co6 N3 2.135 1_556 S
Co6 N9 2.121 . S
Co6 O14 2.055 . S
Co6 O17 2.039 . S
Co6 N20 2.140 1_556 S
C7 O8 1.227 . S
C7 O17 1.265 1_554 S
O8 C7 1.227 . S
N9 Co6 2.121 . S
N9 C11 1.375 . S
N9 C12 1.313 . S
C10 C11 1.338 . S
C10 N13 1.377 . S
C10 H30 0.930 . S
C11 N9 1.375 . S
C11 C10 1.338 . S
C11 H15 0.931 1_556 S
C12 N9 1.313 . S
C12 N13 1.344 . S
C12 H16 0.930 . S
N13 C10 1.377 . S
N13 C12 1.344 . S
O14 Co6 2.055 . S
O14 C18 1.253 . S
H15 C11 0.931 1_554 S
H16 C12 0.930 . S
O17 Co6 2.039 . S
O17 C7 1.265 1_556 S
C18 O14 1.253 . S
C18 O19 1.227 . S
O19 C18 1.227 . S
N20 Co6 2.140 1_554 S
N20 C23 1.346 . S
N20 C24 1.345 . S
C21 C22 1.387 . S
C21 C25 1.391 . S
C22 C21 1.387 . S
C22 C23 1.369 . S
C22 H31 0.929 . S
C23 N20 1.346 . S
C23 C22 1.369 . S
C23 H26 0.928 . S
C24 N20 1.345 . S
C24 C25 1.371 . S
C24 H27 0.931 . S
C25 C21 1.391 . S
C25 C24 1.371 . S
C25 H32 0.930 . S
H26 C23 0.928 . S
H27 C24 0.931 . S
H28 C4 0.930 . S
H29 C1 0.930 . S
H30 C10 0.930 . S
H31 C22 0.929 . S
H32 C25 0.930 . S
C33 C34 1.351 . S
C33 N36 1.368 . S
C33 H38 0.931 . S
C34 C33 1.351 . S
C34 N35 1.373 . S
C34 H62 0.930 . S
N35 C34 1.373 . S
N35 C37 1.340 . S
N36 C33 1.368 . S
N36 C37 1.321 . S
N36 Co39 2.135 . S
C37 N35 1.340 . S
C37 N36 1.321 . S
C37 H61 0.930 . S
H38 C33 0.931 . S
Co39 N36 2.135 . S
Co39 N42 2.121 . S
Co39 O47 2.055 . S
Co39 O50 2.039 . S
Co39 N53 2.140 . S
C40 O41 1.227 . S
C40 O50 1.265 . S
O41 C40 1.227 . S
N42 Co39 2.121 . S
N42 C44 1.375 . S
N42 C45 1.313 . S
C43 C44 1.338 . S
C43 N46 1.377 . S
C43 H63 0.930 . S
C44 N42 1.375 . S
C44 C43 1.338 . S
C44 H48 0.931 . S
C45 N42 1.313 . S
C45 N46 1.344 . S
C45 H49 0.930 . S
N46 C43 1.377 . S
N46 C45 1.344 . S
O47 Co39 2.055 . S
O47 C51 1.253 . S
H48 C44 0.931 . S
H49 C45 0.930 . S
O50 Co39 2.039 . S
O50 C40 1.265 . S
C51 O47 1.253 . S
C51 O52 1.227 . S
O52 C51 1.227 . S
N53 Co39 2.140 . S
N53 C56 1.346 . S
N53 C57 1.345 . S
C54 C55 1.387 . S
C54 C58 1.391 . S
C55 C54 1.387 . S
C55 C56 1.369 . S
C55 H64 0.929 . S
C56 N53 1.346 . S
C56 C55 1.369 . S
C56 H59 0.928 . S
C57 N53 1.345 . S
C57 C58 1.371 . S
C57 H60 0.931 . S
C58 C54 1.391 . S
C58 C57 1.371 . S
C58 H65 0.930 . S
H59 C56 0.928 . S
H60 C57 0.931 . S
H61 C37 0.930 . S
H62 C34 0.930 . S
H63 C43 0.930 . S
H64 C55 0.929 . S
H65 C58 0.930 . S
C66 C67 1.351 . S
C66 N69 1.368 . S
C66 H71 0.931 . S
C67 C66 1.351 . S
C67 N68 1.373 . S
C67 H95 0.930 . S
N68 C67 1.373 . S
N68 C70 1.340 . S
N69 C66 1.368 . S
N69 C70 1.321 . S
N69 Co72 2.135 . S
C70 N68 1.340 . S
C70 N69 1.321 . S
C70 H94 0.930 . S
H71 C66 0.931 . S
Co72 N69 2.135 . S
Co72 N75 2.121 . S
Co72 O80 2.055 . S
Co72 O83 2.039 . S
Co72 N86 2.140 . S
C73 O74 1.227 . S
C73 O83 1.265 . S
O74 C73 1.227 . S
N75 Co72 2.121 . S
N75 C77 1.375 . S
N75 C78 1.313 . S
C76 C77 1.338 . S
C76 N79 1.377 . S
C76 H96 0.930 . S
C77 N75 1.375 . S
C77 C76 1.338 . S
C77 H81 0.931 . S
C78 N75 1.313 . S
C78 N79 1.344 . S
C78 H82 0.930 . S
N79 C76 1.377 . S
N79 C78 1.344 . S
O80 Co72 2.055 . S
O80 C84 1.253 . S
H81 C77 0.931 . S
H82 C78 0.930 . S
O83 Co72 2.039 . S
O83 C73 1.265 . S
C84 O80 1.253 . S
C84 O85 1.227 . S
O85 C84 1.227 . S
N86 Co72 2.140 . S
N86 C89 1.346 . S
N86 C90 1.345 . S
C87 C88 1.387 . S
C87 C91 1.391 . S
C88 C87 1.387 . S
C88 C89 1.369 . S
C88 H97 0.929 . S
C89 N86 1.346 . S
C89 C88 1.369 . S
C89 H92 0.928 . S
C90 N86 1.345 . S
C90 C91 1.371 . S
C90 H93 0.931 . S
C91 C87 1.391 . S
C91 C90 1.371 . S
C91 H98 0.930 . S
H92 C89 0.928 . S
H93 C90 0.931 . S
H94 C70 0.930 . S
H95 C67 0.930 . S
H96 C76 0.930 . S
H97 C88 0.929 . S
H98 C91 0.930 . S
C99 C100 1.351 . S
C99 N102 1.368 . S
C99 H104 0.931 . S
C100 C99 1.351 . S
C100 N101 1.373 . S
C100 H128 0.930 . S
N101 C100 1.373 . S
N101 C103 1.340 . S
N102 C99 1.368 . S
N102 C103 1.321 . S
N102 Co105 2.135 . S
C103 N101 1.340 . S
C103 N102 1.321 . S
C103 H127 0.930 . S
H104 C99 0.931 . S
Co105 N102 2.135 . S
Co105 N108 2.121 . S
Co105 O113 2.055 . S
Co105 O116 2.039 . S
Co105 N119 2.140 . S
C106 O107 1.227 . S
C106 O116 1.265 . S
O107 C106 1.227 . S
N108 Co105 2.121 . S
N108 C110 1.375 . S
N108 C111 1.313 . S
C109 C110 1.338 . S
C109 N112 1.377 . S
C109 H129 0.930 . S
C110 N108 1.375 . S
C110 C109 1.338 . S
C110 H114 0.931 . S
C111 N108 1.313 . S
C111 N112 1.344 . S
C111 H115 0.930 . S
N112 C109 1.377 . S
N112 C111 1.344 . S
O113 Co105 2.055 . S
O113 C117 1.253 . S
H114 C110 0.931 . S
H115 C111 0.930 . S
O116 Co105 2.039 . S
O116 C106 1.265 . S
C117 O113 1.253 . S
C117 O118 1.227 . S
O118 C117 1.227 . S
N119 Co105 2.140 . S
N119 C122 1.346 . S
N119 C123 1.345 . S
C120 C121 1.387 . S
C120 C124 1.391 . S
C121 C120 1.387 . S
C121 C122 1.369 . S
C121 H130 0.929 . S
C122 N119 1.346 . S
C122 C121 1.369 . S
C122 H125 0.928 . S
C123 N119 1.345 . S
C123 C124 1.371 . S
C123 H126 0.931 . S
C124 C120 1.391 . S
C124 C123 1.371 . S
C124 H131 0.930 . S
H125 C122 0.928 . S
H126 C123 0.931 . S
H127 C103 0.930 . S
H128 C100 0.930 . S
H129 C109 0.930 . S
H130 C121 0.929 . S
H131 C124 0.930 . S
C132 C133 1.351 . S
C132 N135 1.368 . S
C132 H137 0.931 . S
C133 C132 1.351 . S
C133 N134 1.373 . S
C133 H161 0.930 . S
N134 C133 1.373 . S
N134 C136 1.340 . S
N135 C132 1.368 . S
N135 C136 1.321 . S
N135 Co138 2.135 . S
C136 N134 1.340 . S
C136 N135 1.321 . S
C136 H160 0.930 . S
H137 C132 0.931 . S
Co138 N135 2.135 . S
Co138 N141 2.121 . S
Co138 O146 2.055 . S
Co138 O149 2.039 . S
Co138 N152 2.140 . S
C139 O140 1.227 . S
C139 O149 1.265 . S
O140 C139 1.227 . S
N141 Co138 2.121 . S
N141 C143 1.375 . S
N141 C144 1.313 . S
C142 C143 1.338 . S
C142 N145 1.377 . S
C142 H162 0.930 . S
C143 N141 1.375 . S
C143 C142 1.338 . S
C143 H147 0.931 . S
C144 N141 1.313 . S
C144 N145 1.344 . S
C144 H148 0.930 . S
N145 C142 1.377 . S
N145 C144 1.344 . S
O146 Co138 2.055 . S
O146 C150 1.253 . S
H147 C143 0.931 . S
H148 C144 0.930 . S
O149 Co138 2.039 . S
O149 C139 1.265 . S
C150 O146 1.253 . S
C150 O151 1.227 . S
O151 C150 1.227 . S
N152 Co138 2.140 . S
N152 C155 1.346 . S
N152 C156 1.345 . S
C153 C154 1.387 . S
C153 C157 1.391 . S
C154 C153 1.387 . S
C154 C155 1.369 . S
C154 H163 0.929 . S
C155 N152 1.346 . S
C155 C154 1.369 . S
C155 H158 0.928 . S
C156 N152 1.345 . S
C156 C157 1.371 . S
C156 H159 0.931 . S
C157 C153 1.391 . S
C157 C156 1.371 . S
C157 H164 0.930 . S
H158 C155 0.928 . S
H159 C156 0.931 . S
H160 C136 0.930 . S
H161 C133 0.930 . S
H162 C142 0.930 . S
H163 C154 0.929 . S
H164 C157 0.930 . S
C165 C166 1.351 . S
C165 N168 1.368 . S
C165 H170 0.931 . S
C166 C165 1.351 . S
C166 N167 1.373 . S
C166 H194 0.930 . S
N167 C166 1.373 . S
N167 C169 1.340 . S
N168 C165 1.368 . S
N168 C169 1.321 . S
N168 Co171 2.135 . S
C169 N167 1.340 . S
C169 N168 1.321 . S
C169 H193 0.930 . S
H170 C165 0.931 . S
Co171 N168 2.135 . S
Co171 N174 2.121 . S
Co171 O179 2.055 . S
Co171 O182 2.039 . S
Co171 N185 2.140 . S
C172 O173 1.227 . S
C172 O182 1.265 . S
O173 C172 1.227 . S
N174 Co171 2.121 . S
N174 C176 1.375 . S
N174 C177 1.313 . S
C175 C176 1.338 . S
C175 N178 1.377 . S
C175 H195 0.930 . S
C176 N174 1.375 . S
C176 C175 1.338 . S
C176 H180 0.931 . S
C177 N174 1.313 . S
C177 N178 1.344 . S
C177 H181 0.930 . S
N178 C175 1.377 . S
N178 C177 1.344 . S
O179 Co171 2.055 . S
O179 C183 1.253 . S
H180 C176 0.931 . S
H181 C177 0.930 . S
O182 Co171 2.039 . S
O182 C172 1.265 . S
C183 O179 1.253 . S
C183 O184 1.227 . S
O184 C183 1.227 . S
N185 Co171 2.140 . S
N185 C188 1.346 . S
N185 C189 1.345 . S
C186 C187 1.387 . S
C186 C190 1.391 . S
C187 C186 1.387 . S
C187 C188 1.369 . S
C187 H196 0.929 . S
C188 N185 1.346 . S
C188 C187 1.369 . S
C188 H191 0.928 . S
C189 N185 1.345 . S
C189 C190 1.371 . S
C189 H192 0.931 . S
C190 C186 1.391 . S
C190 C189 1.371 . S
C190 H197 0.930 . S
H191 C188 0.928 . S
H192 C189 0.931 . S
H193 C169 0.930 . S
H194 C166 0.930 . S
H195 C175 0.930 . S
H196 C187 0.929 . S
H197 C190 0.930 . S
C198 C199 1.351 . S
C198 N201 1.368 . S
C198 H203 0.931 . S
C199 C198 1.351 . S
C199 N200 1.373 . S
C199 H227 0.930 . S
N200 C199 1.373 . S
N200 C202 1.340 . S
N201 C198 1.368 . S
N201 C202 1.321 . S
N201 Co204 2.135 . S
C202 N200 1.340 . S
C202 N201 1.321 . S
C202 H226 0.930 . S
H203 C198 0.931 . S
Co204 N201 2.135 . S
Co204 N207 2.121 . S
Co204 O212 2.055 . S
Co204 O215 2.039 . S
Co204 N218 2.140 . S
C205 O206 1.227 . S
C205 O215 1.265 . S
O206 C205 1.227 . S
N207 Co204 2.121 . S
N207 C209 1.375 . S
N207 C210 1.313 . S
C208 C209 1.338 . S
C208 N211 1.377 . S
C208 H228 0.930 . S
C209 N207 1.375 . S
C209 C208 1.338 . S
C209 H213 0.931 . S
C210 N207 1.313 . S
C210 N211 1.344 . S
C210 H214 0.930 . S
N211 C208 1.377 . S
N211 C210 1.344 . S
O212 Co204 2.055 . S
O212 C216 1.253 . S
H213 C209 0.931 . S
H214 C210 0.930 . S
O215 Co204 2.039 . S
O215 C205 1.265 . S
C216 O212 1.253 . S
C216 O217 1.227 . S
O217 C216 1.227 . S
N218 Co204 2.140 . S
N218 C221 1.346 . S
N218 C222 1.345 . S
C219 C220 1.387 . S
C219 C223 1.391 . S
C220 C219 1.387 . S
C220 C221 1.369 . S
C220 H229 0.929 . S
C221 N218 1.346 . S
C221 C220 1.369 . S
C221 H224 0.928 . S
C222 N218 1.345 . S
C222 C223 1.371 . S
C222 H225 0.931 . S
C223 C219 1.391 . S
C223 C222 1.371 . S
C223 H230 0.930 . S
H224 C221 0.928 . S
H225 C222 0.931 . S
H226 C202 0.930 . S
H227 C199 0.930 . S
H228 C208 0.930 . S
H229 C220 0.929 . S
H230 C223 0.930 . S
C231 C232 1.351 . S
C231 N234 1.368 . S
C231 H236 0.931 . S
C232 C231 1.351 . S
C232 N233 1.373 . S
C232 H260 0.930 . S
N233 C232 1.373 . S
N233 C235 1.340 . S
N234 C231 1.368 . S
N234 C235 1.321 . S
N234 Co237 2.135 . S
C235 N233 1.340 . S
C235 N234 1.321 . S
C235 H259 0.930 . S
H236 C231 0.931 . S
Co237 N234 2.135 . S
Co237 N240 2.121 1_556 S
Co237 O245 2.055 1_556 S
Co237 O248 2.039 1_556 S
Co237 N251 2.140 . S
C238 O239 1.227 . S
C238 O248 1.265 1_556 S
O239 C238 1.227 . S
N240 Co237 2.121 1_554 S
N240 C242 1.375 . S
N240 C243 1.313 . S
C241 C242 1.338 . S
C241 N244 1.377 . S
C241 H261 0.930 . S
C242 N240 1.375 . S
C242 C241 1.338 . S
C242 H246 0.931 1_554 S
C243 N240 1.313 . S
C243 N244 1.344 . S
C243 H247 0.930 . S
N244 C241 1.377 . S
N244 C243 1.344 . S
O245 Co237 2.055 1_554 S
O245 C249 1.253 . S
H246 C242 0.931 1_556 S
H247 C243 0.930 . S
O248 Co237 2.039 1_554 S
O248 C238 1.265 1_554 S
C249 O245 1.253 . S
C249 O250 1.227 . S
O250 C249 1.227 . S
N251 Co237 2.140 . S
N251 C254 1.346 . S
N251 C255 1.345 . S
C252 C253 1.387 . S
C252 C256 1.391 . S
C253 C252 1.387 . S
C253 C254 1.369 . S
C253 H262 0.929 . S
C254 N251 1.346 . S
C254 C253 1.369 . S
C254 H257 0.928 . S
C255 N251 1.345 . S
C255 C256 1.371 . S
C255 H258 0.931 . S
C256 C252 1.391 . S
C256 C255 1.371 . S
C256 H263 0.930 . S
H257 C254 0.928 . S
H258 C255 0.931 . S
H259 C235 0.930 . S
H260 C232 0.930 . S
H261 C241 0.930 . S
H262 C253 0.929 . S
H263 C256 0.930 . S
C264 C265 1.351 . S
C264 N267 1.368 . S
C264 H269 0.931 . S
C265 C264 1.351 . S
C265 N266 1.373 . S
C265 H293 0.930 . S
N266 C265 1.373 . S
N266 C268 1.340 . S
N267 C264 1.368 . S
N267 C268 1.321 . S
N267 Co270 2.135 . S
C268 N266 1.340 . S
C268 N267 1.321 . S
C268 H292 0.930 . S
H269 C264 0.931 . S
Co270 N267 2.135 . S
Co270 N273 2.121 . S
Co270 O278 2.055 . S
Co270 O281 2.039 . S
Co270 N284 2.140 . S
C271 O272 1.227 . S
C271 O281 1.265 . S
O272 C271 1.227 . S
N273 Co270 2.121 . S
N273 C275 1.375 . S
N273 C276 1.313 . S
C274 C275 1.338 . S
C274 N277 1.377 . S
C274 H294 0.930 . S
C275 N273 1.375 . S
C275 C274 1.338 . S
C275 H279 0.931 . S
C276 N273 1.313 . S
C276 N277 1.344 . S
C276 H280 0.930 . S
N277 C274 1.377 . S
N277 C276 1.344 . S
O278 Co270 2.055 . S
O278 C282 1.253 . S
H279 C275 0.931 . S
H280 C276 0.930 . S
O281 Co270 2.039 . S
O281 C271 1.265 . S
C282 O278 1.253 . S
C282 O283 1.227 . S
O283 C282 1.227 . S
N284 Co270 2.140 . S
N284 C287 1.346 . S
N284 C288 1.345 . S
C285 C286 1.387 . S
C285 C289 1.391 . S
C286 C285 1.387 . S
C286 C287 1.369 . S
C286 H295 0.929 . S
C287 N284 1.346 . S
C287 C286 1.369 . S
C287 H290 0.928 . S
C288 N284 1.345 . S
C288 C289 1.371 . S
C288 H291 0.931 . S
C289 C285 1.391 . S
C289 C288 1.371 . S
C289 H296 0.930 . S
H290 C287 0.928 . S
H291 C288 0.931 . S
H292 C268 0.930 . S
H293 C265 0.930 . S
H294 C274 0.930 . S
H295 C286 0.929 . S
H296 C289 0.930 . S
C297 C298 1.351 . S
C297 N300 1.368 . S
C297 H302 0.931 . S
C298 C297 1.351 . S
C298 N299 1.373 . S
C298 H326 0.930 . S
N299 C298 1.373 . S
N299 C301 1.340 . S
N300 C297 1.368 . S
N300 C301 1.321 . S
N300 Co303 2.135 . S
C301 N299 1.340 . S
C301 N300 1.321 . S
C301 H325 0.930 . S
H302 C297 0.931 . S
Co303 N300 2.135 . S
Co303 N306 2.121 . S
Co303 O311 2.055 . S
Co303 O314 2.039 . S
Co303 N317 2.140 . S
C304 O305 1.227 . S
C304 O314 1.265 . S
O305 C304 1.227 . S
N306 Co303 2.121 . S
N306 C308 1.375 . S
N306 C309 1.313 . S
C307 C308 1.338 . S
C307 N310 1.377 . S
C307 H327 0.930 . S
C308 N306 1.375 . S
C308 C307 1.338 . S
C308 H312 0.931 . S
C309 N306 1.313 . S
C309 N310 1.344 . S
C309 H313 0.930 . S
N310 C307 1.377 . S
N310 C309 1.344 . S
O311 Co303 2.055 . S
O311 C315 1.253 . S
H312 C308 0.931 . S
H313 C309 0.930 . S
O314 Co303 2.039 . S
O314 C304 1.265 . S
C315 O311 1.253 . S
C315 O316 1.227 . S
O316 C315 1.227 . S
N317 Co303 2.140 . S
N317 C320 1.346 . S
N317 C321 1.345 . S
C318 C319 1.387 . S
C318 C322 1.391 . S
C319 C318 1.387 . S
C319 C320 1.369 . S
C319 H328 0.929 . S
C320 N317 1.346 . S
C320 C319 1.369 . S
C320 H323 0.928 . S
C321 N317 1.345 . S
C321 C322 1.371 . S
C321 H324 0.931 . S
C322 C318 1.391 . S
C322 C321 1.371 . S
C322 H329 0.930 . S
H323 C320 0.928 . S
H324 C321 0.931 . S
H325 C301 0.930 . S
H326 C298 0.930 . S
H327 C307 0.930 . S
H328 C319 0.929 . S
H329 C322 0.930 . S
C330 C331 1.351 . S
C330 N333 1.368 . S
C330 H335 0.931 . S
C331 C330 1.351 . S
C331 N332 1.373 . S
C331 H359 0.930 . S
N332 C331 1.373 . S
N332 C334 1.340 . S
N333 C330 1.368 . S
N333 C334 1.321 . S
N333 Co336 2.135 . S
C334 N332 1.340 . S
C334 N333 1.321 . S
C334 H358 0.930 . S
H335 C330 0.931 . S
Co336 N333 2.135 . S
Co336 N339 2.121 . S
Co336 O344 2.055 . S
Co336 O347 2.039 . S
Co336 N350 2.140 . S
C337 O338 1.227 . S
C337 O347 1.265 . S
O338 C337 1.227 . S
N339 Co336 2.121 . S
N339 C341 1.375 . S
N339 C342 1.313 . S
C340 C341 1.338 . S
C340 N343 1.377 . S
C340 H360 0.930 . S
C341 N339 1.375 . S
C341 C340 1.338 . S
C341 H345 0.931 . S
C342 N339 1.313 . S
C342 N343 1.344 . S
C342 H346 0.930 . S
N343 C340 1.377 . S
N343 C342 1.344 . S
O344 Co336 2.055 . S
O344 C348 1.253 . S
H345 C341 0.931 . S
H346 C342 0.930 . S
O347 Co336 2.039 . S
O347 C337 1.265 . S
C348 O344 1.253 . S
C348 O349 1.227 . S
O349 C348 1.227 . S
N350 Co336 2.140 . S
N350 C353 1.346 . S
N350 C354 1.345 . S
C351 C352 1.387 . S
C351 C355 1.391 . S
C352 C351 1.387 . S
C352 C353 1.369 . S
C352 H361 0.929 . S
C353 N350 1.346 . S
C353 C352 1.369 . S
C353 H356 0.928 . S
C354 N350 1.345 . S
C354 C355 1.371 . S
C354 H357 0.931 . S
C355 C351 1.391 . S
C355 C354 1.371 . S
C355 H362 0.930 . S
H356 C353 0.928 . S
H357 C354 0.931 . S
H358 C334 0.930 . S
H359 C331 0.930 . S
H360 C340 0.930 . S
H361 C352 0.929 . S
H362 C355 0.930 . S
C363 C364 1.351 . S
C363 N366 1.368 . S
C363 H368 0.931 . S
C364 C363 1.351 . S
C364 N365 1.373 . S
C364 H392 0.930 . S
N365 C364 1.373 . S
N365 C367 1.340 . S
N366 C363 1.368 . S
N366 C367 1.321 . S
N366 Co369 2.135 . S
C367 N365 1.340 . S
C367 N366 1.321 . S
C367 H391 0.930 . S
H368 C363 0.931 . S
Co369 N366 2.135 . S
Co369 N372 2.121 . S
Co369 O377 2.055 . S
Co369 O380 2.039 . S
Co369 N383 2.140 . S
C370 O371 1.227 . S
C370 O380 1.265 . S
O371 C370 1.227 . S
N372 Co369 2.121 . S
N372 C374 1.375 . S
N372 C375 1.313 . S
C373 C374 1.338 . S
C373 N376 1.377 . S
C373 H393 0.930 . S
C374 N372 1.375 . S
C374 C373 1.338 . S
C374 H378 0.931 . S
C375 N372 1.313 . S
C375 N376 1.344 . S
C375 H379 0.930 . S
N376 C373 1.377 . S
N376 C375 1.344 . S
O377 Co369 2.055 . S
O377 C381 1.253 . S
H378 C374 0.931 . S
H379 C375 0.930 . S
O380 Co369 2.039 . S
O380 C370 1.265 . S
C381 O377 1.253 . S
C381 O382 1.227 . S
O382 C381 1.227 . S
N383 Co369 2.140 . S
N383 C386 1.346 . S
N383 C387 1.345 . S
C384 C385 1.387 . S
C384 C388 1.391 . S
C385 C384 1.387 . S
C385 C386 1.369 . S
C385 H394 0.929 . S
C386 N383 1.346 . S
C386 C385 1.369 . S
C386 H389 0.928 . S
C387 N383 1.345 . S
C387 C388 1.371 . S
C387 H390 0.931 . S
C388 C384 1.391 . S
C388 C387 1.371 . S
C388 H395 0.930 . S
H389 C386 0.928 . S
H390 C387 0.931 . S
H391 C367 0.930 . S
H392 C364 0.930 . S
H393 C373 0.930 . S
H394 C385 0.929 . S
H395 C388 0.930 . S
C396 C397 1.391 . S
C396 C398 1.394 . S
C396 H412 0.931 . S
C397 C396 1.391 . S
C397 C401 1.376 . S
C398 C396 1.394 . S
C398 C399 1.369 . S
C398 C402 1.531 . S
C399 C398 1.369 . S
C399 C400 1.410 . S
C399 C407 1.503 . S
C400 C399 1.410 . S
C400 C401 1.392 . S
C400 C403 1.511 . S
C401 C397 1.376 . S
C401 C400 1.392 . S
C401 H413 0.929 . S
C402 C398 1.531 . S
C402 H414 0.960 . S
C402 H415 0.962 . S
C402 H416 0.960 . S
C403 C400 1.511 . S
C403 H417 0.961 . S
C403 H418 0.961 . S
C403 H419 0.961 . S
C404 C405 1.370 . S
C404 C406 1.363 . S
C404 H420 0.931 . S
C405 C404 1.370 . S
C405 C409 1.408 . S
C406 C404 1.363 . S
C406 C407 1.370 . S
C406 C410 1.524 . S
C407 C399 1.503 . S
C407 C406 1.370 . S
C407 C408 1.403 . S
C408 C407 1.403 . S
C408 C409 1.404 . S
C408 C411 1.539 . S
C409 C405 1.408 . S
C409 C408 1.404 . S
C409 H421 0.930 . S
C410 C406 1.524 . S
C410 H422 0.956 . S
C410 H423 0.961 . S
C410 H424 0.961 . S
C411 C408 1.539 . S
C411 H425 0.958 . S
C411 H426 0.961 . S
C411 H427 0.960 . S
H412 C396 0.931 . S
H413 C401 0.929 . S
H414 C402 0.960 . S
H415 C402 0.962 . S
H416 C402 0.960 . S
H417 C403 0.961 . S
H418 C403 0.961 . S
H419 C403 0.961 . S
H420 C404 0.931 . S
H421 C409 0.930 . S
H422 C410 0.956 . S
H423 C410 0.961 . S
H424 C410 0.961 . S
H425 C411 0.958 . S
H426 C411 0.961 . S
H427 C411 0.960 . S
C428 C429 1.391 . S
C428 C430 1.394 . S
C428 H444 0.931 . S
C429 C428 1.391 . S
C429 C433 1.376 . S
C430 C428 1.394 . S
C430 C431 1.369 . S
C430 C434 1.531 . S
C431 C430 1.369 . S
C431 C432 1.410 . S
C431 C439 1.503 . S
C432 C431 1.410 . S
C432 C433 1.392 . S
C432 C435 1.511 . S
C433 C429 1.376 . S
C433 C432 1.392 . S
C433 H445 0.929 1_554 S
C434 C430 1.531 . S
C434 H446 0.960 . S
C434 H447 0.962 . S
C434 H448 0.960 . S
C435 C432 1.511 . S
C435 H449 0.961 1_554 S
C435 H450 0.961 . S
C435 H451 0.961 . S
C436 C437 1.370 . S
C436 C438 1.363 1_655 S
C436 H452 0.931 . S
C437 C436 1.370 . S
C437 C441 1.403 1_655 S
C438 C436 1.363 1_455 S
C438 C439 1.370 . S
C438 C442 1.524 . S
C439 C431 1.503 . S
C439 C438 1.370 . S
C439 C440 1.403 . S
C440 C439 1.403 . S
C440 C441 1.427 . S
C440 C443 1.539 . S
C441 C437 1.403 1_455 S
C441 C440 1.427 . S
C441 H453 0.913 1_455 S
C442 C438 1.524 . S
C442 H454 0.956 . S
C442 H455 0.961 . S
C442 H456 0.961 . S
C443 C440 1.539 . S
C443 H457 0.958 . S
C443 H458 0.961 . S
C443 H459 0.960 . S
H444 C428 0.931 . S
H445 C433 0.929 1_556 S
H446 C434 0.960 . S
H447 C434 0.962 . S
H448 C434 0.960 . S
H449 C435 0.961 1_556 S
H450 C435 0.961 . S
H451 C435 0.961 . S
H452 C436 0.931 . S
H453 C441 0.913 1_655 S
H454 C442 0.956 . S
H455 C442 0.961 . S
H456 C442 0.961 . S
H457 C443 0.958 . S
H458 C443 0.961 . S
H459 C443 0.960 . S
C460 C461 1.391 . S
C460 C462 1.394 . S
C460 H476 0.931 . S
C461 C460 1.391 . S
C461 C465 1.376 . S
C462 C460 1.394 . S
C462 C463 1.369 . S
C462 C466 1.531 . S
C463 C462 1.369 . S
C463 C464 1.410 . S
C463 C471 1.503 . S
C464 C463 1.410 . S
C464 C465 1.392 . S
C464 C467 1.511 . S
C465 C461 1.376 . S
C465 C464 1.392 . S
C465 H477 0.929 . S
C466 C462 1.531 . S
C466 H478 0.960 . S
C466 H479 0.962 . S
C466 H480 0.960 . S
C467 C464 1.511 . S
C467 H481 0.961 . S
C467 H482 0.961 . S
C467 H483 0.961 . S
C468 C469 1.370 . S
C468 C470 1.363 1_565 S
C468 H484 0.931 . S
C469 C468 1.370 . S
C469 C473 1.408 1_565 S
C470 C468 1.363 1_545 S
C470 C471 1.370 . S
C470 C474 1.524 . S
C471 C463 1.503 . S
C471 C470 1.370 . S
C471 C472 1.403 . S
C472 C471 1.403 . S
C472 C473 1.404 . S
C472 C475 1.539 . S
C473 C469 1.408 1_545 S
C473 C472 1.404 . S
C473 H485 0.930 1_545 S
C474 C470 1.524 . S
C474 H486 0.956 . S
C474 H487 0.961 . S
C474 H488 0.994 . S
C475 C472 1.539 . S
C475 H489 0.958 . S
C475 H490 0.961 . S
C475 H491 0.960 . S
H476 C460 0.931 . S
H477 C465 0.929 . S
H478 C466 0.960 . S
H479 C466 0.962 . S
H480 C466 0.960 . S
H481 C467 0.961 . S
H482 C467 0.961 . S
H483 C467 0.961 . S
H484 C468 0.931 . S
H485 C473 0.930 1_565 S
H486 C474 0.956 . S
H487 C474 0.961 . S
H488 C474 0.994 . S
H489 C475 0.958 . S
H490 C475 0.961 . S
H491 C475 0.960 . S
C492 C493 1.391 . S
C492 C494 1.394 . S
C492 H508 0.931 . S
C493 C492 1.391 . S
C493 C497 1.376 . S
C494 C492 1.394 . S
C494 C495 1.369 . S
C494 C498 1.531 . S
C495 C494 1.369 . S
C495 C496 1.410 . S
C495 C503 1.503 . S
C496 C495 1.410 . S
C496 C497 1.392 . S
C496 C499 1.511 . S
C497 C493 1.376 . S
C497 C496 1.392 . S
C497 H509 0.929 . S
C498 C494 1.531 . S
C498 H510 0.960 . S
C498 H511 0.962 . S
C498 H512 0.960 . S
C499 C496 1.511 . S
C499 H513 0.961 . S
C499 H514 0.961 . S
C499 H515 0.961 . S
C500 C501 1.370 . S
C500 C502 1.363 . S
C500 H516 0.931 . S
C501 C500 1.370 . S
C501 C505 1.408 . S
C502 C500 1.363 . S
C502 C503 1.370 . S
C502 C506 1.524 . S
C503 C495 1.503 . S
C503 C502 1.370 . S
C503 C504 1.403 . S
C504 C503 1.403 . S
C504 C505 1.404 . S
C504 C507 1.539 . S
C505 C501 1.408 . S
C505 C504 1.404 . S
C505 H517 0.930 . S
C506 C502 1.524 . S
C506 H518 0.956 . S
C506 H519 0.961 . S
C506 H520 0.961 . S
C507 C504 1.539 . S
C507 H521 0.958 . S
C507 H522 0.961 . S
C507 H523 0.960 . S
H508 C492 0.931 . S
H509 C497 0.929 . S
H510 C498 0.960 . S
H511 C498 0.962 . S
H512 C498 0.960 . S
H513 C499 0.961 . S
H514 C499 0.961 . S
H515 C499 0.961 . S
H516 C500 0.931 . S
H517 C505 0.930 . S
H518 C506 0.956 . S
H519 C506 0.961 . S
H520 C506 0.961 . S
H521 C507 0.958 . S
H522 C507 0.961 . S
H523 C507 0.960 . S
C524 C525 1.391 . S
C524 C526 1.394 1_455 S
C524 H540 0.931 . S
C525 C524 1.391 . S
C525 C529 1.376 1_455 S
C526 C524 1.394 1_655 S
C526 C527 1.369 . S
C526 C530 1.531 . S
C527 C526 1.369 . S
C527 C528 1.410 . S
C527 C535 1.503 . S
C528 C527 1.410 . S
C528 C529 1.392 . S
C528 C531 1.511 . S
C529 C525 1.376 1_655 S
C529 C528 1.392 . S
C529 H541 0.929 . S
C530 C526 1.531 . S
C530 H542 0.960 . S
C530 H543 0.962 . S
C530 H544 0.960 1_655 S
C531 C528 1.511 . S
C531 H545 0.961 . S
C531 H546 0.961 . S
C531 H547 0.961 . S
C532 C533 1.370 . S
C532 C534 1.363 . S
C532 H548 0.931 . S
C533 C532 1.370 . S
C533 C537 1.408 . S
C534 C532 1.363 . S
C534 C535 1.370 . S
C534 C538 1.524 . S
C535 C527 1.503 . S
C535 C534 1.370 . S
C535 C536 1.403 . S
C536 C535 1.403 . S
C536 C537 1.404 . S
C536 C539 1.539 . S
C537 C533 1.408 . S
C537 C536 1.404 . S
C537 H549 0.930 . S
C538 C534 1.524 . S
C538 H550 0.956 . S
C538 H551 0.961 . S
C538 H552 0.961 . S
C539 C536 1.539 . S
C539 H553 0.958 . S
C539 H554 0.961 . S
C539 H555 0.960 . S
H540 C524 0.931 . S
H541 C529 0.929 . S
H542 C530 0.960 . S
H543 C530 0.962 . S
H544 C530 0.960 1_455 S
H545 C531 0.961 . S
H546 C531 0.961 . S
H547 C531 0.961 . S
H548 C532 0.931 . S
H549 C537 0.930 . S
H550 C538 0.956 . S
H551 C538 0.961 . S
H552 C538 0.961 . S
H553 C539 0.958 . S
H554 C539 0.961 . S
H555 C539 0.960 . S
C556 C557 1.391 . S
C556 C558 1.394 . S
C556 H572 0.931 . S
C557 C556 1.391 . S
C557 C561 1.376 . S
C558 C556 1.394 . S
C558 C559 1.369 . S
C558 C562 1.531 . S
C559 C558 1.369 . S
C559 C560 1.410 . S
C559 C567 1.503 . S
C560 C559 1.410 . S
C560 C561 1.392 . S
C560 C563 1.511 . S
C561 C557 1.376 . S
C561 C560 1.392 . S
C561 H573 0.929 . S
C562 C558 1.531 . S
C562 H574 0.960 . S
C562 H575 0.962 . S
C562 H576 0.960 . S
C563 C560 1.511 . S
C563 H577 0.961 . S
C563 H578 0.961 . S
C563 H579 0.961 . S
C564 C565 1.370 . S
C564 C566 1.363 1_545 S
C564 H580 0.931 . S
C565 C564 1.370 . S
C565 C569 1.408 1_545 S
C566 C564 1.363 1_565 S
C566 C567 1.370 . S
C566 C570 1.524 . S
C567 C559 1.503 . S
C567 C566 1.370 . S
C567 C568 1.403 . S
C568 C567 1.403 . S
C568 C569 1.404 . S
C568 C571 1.539 . S
C569 C565 1.408 1_565 S
C569 C568 1.404 . S
C569 H581 0.930 . S
C570 C566 1.524 . S
C570 H582 0.956 . S
C570 H583 0.961 . S
C570 H584 0.961 1_565 S
C571 C568 1.539 . S
C571 H585 0.958 . S
C571 H586 0.961 . S
C571 H587 0.960 . S
H572 C556 0.931 . S
H573 C561 0.929 . S
H574 C562 0.960 . S
H575 C562 0.962 . S
H576 C562 0.960 . S
H577 C563 0.961 . S
H578 C563 0.961 . S
H579 C563 0.961 . S
H580 C564 0.931 . S
H581 C569 0.930 . S
H582 C570 0.956 . S
H583 C570 0.961 . S
H584 C570 0.961 1_545 S
H585 C571 0.958 . S
H586 C571 0.961 . S
H587 C571 0.960 . S
C588 C589 1.391 . S
C588 C590 1.394 . S
C588 H604 0.931 1_556 S
C589 C588 1.391 . S
C589 C593 1.376 . S
C590 C588 1.394 . S
C590 C591 1.369 . S
C590 C594 1.531 . S
C591 C590 1.369 . S
C591 C592 1.410 . S
C591 C599 1.503 . S
C592 C591 1.410 . S
C592 C593 1.392 . S
C592 C595 1.511 . S
C593 C589 1.376 . S
C593 C592 1.392 . S
C593 H605 0.929 . S
C594 C590 1.531 . S
C594 H606 0.960 . S
C594 H607 0.962 . S
C594 H608 0.960 1_556 S
C595 C592 1.511 . S
C595 H609 0.961 . S
C595 H610 0.961 . S
C595 H611 0.961 . S
C596 C597 1.370 . S
C596 C598 1.363 . S
C596 H612 0.931 . S
C597 C596 1.370 . S
C597 C601 1.408 . S
C598 C596 1.363 . S
C598 C599 1.370 . S
C598 C602 1.524 . S
C599 C591 1.503 . S
C599 C598 1.370 . S
C599 C600 1.403 . S
C600 C599 1.403 . S
C600 C601 1.404 . S
C600 C603 1.539 . S
C601 C597 1.408 . S
C601 C600 1.404 . S
C601 H613 0.930 . S
C602 C598 1.524 . S
C602 H614 0.956 . S
C602 H615 0.961 . S
C602 H616 0.961 . S
C603 C600 1.539 . S
C603 H617 0.958 . S
C603 H618 0.961 . S
C603 H619 0.960 . S
H604 C588 0.931 1_554 S
H605 C593 0.929 . S
H606 C594 0.960 . S
H607 C594 0.962 . S
H608 C594 0.960 1_554 S
H609 C595 0.961 . S
H610 C595 0.961 . S
H611 C595 0.961 . S
H612 C596 0.931 . S
H613 C601 0.930 . S
H614 C602 0.956 . S
H615 C602 0.961 . S
H616 C602 0.961 . S
H617 C603 0.958 . S
H618 C603 0.961 . S
H619 C603 0.960 . S
C620 C621 1.391 . S
C620 C622 1.394 . S
C620 H636 0.931 . S
C621 C620 1.391 . S
C621 C625 1.376 . S
C622 C620 1.394 . S
C622 C623 1.369 . S
C622 C626 1.531 . S
C623 C622 1.369 . S
C623 C624 1.410 . S
C623 C631 1.503 . S
C624 C623 1.410 . S
C624 C625 1.392 . S
C624 C627 1.511 . S
C625 C621 1.376 . S
C625 C624 1.392 . S
C625 H637 0.929 . S
C626 C622 1.531 . S
C626 H638 0.960 . S
C626 H639 0.962 . S
C626 H640 0.960 . S
C627 C624 1.511 . S
C627 H641 0.961 . S
C627 H642 0.961 . S
C627 H643 0.961 . S
C628 C629 1.370 1_455 S
C628 C630 1.363 . S
C628 H644 0.931 . S
C629 C628 1.370 1_655 S
C629 C633 1.408 . S
C630 C628 1.363 . S
C630 C631 1.370 . S
C630 C634 1.524 . S
C631 C623 1.503 . S
C631 C630 1.370 . S
C631 C632 1.403 . S
C632 C631 1.403 . S
C632 C633 1.404 1_455 S
C632 C635 1.539 1_455 S
C633 C629 1.408 . S
C633 C632 1.404 1_655 S
C633 H645 0.930 . S
C634 C630 1.524 . S
C634 H646 0.956 . S
C634 H647 0.961 . S
C634 H648 0.961 . S
C635 C632 1.539 1_655 S
C635 H649 0.958 . S
C635 H650 0.961 . S
C635 H651 0.960 1_655 S
H636 C620 0.931 . S
H637 C625 0.929 . S
H638 C626 0.960 . S
H639 C626 0.962 . S
H640 C626 0.960 . S
H641 C627 0.961 . S
H642 C627 0.961 . S
H643 C627 0.961 . S
H644 C628 0.931 . S
H645 C633 0.930 . S
H646 C634 0.956 . S
H647 C634 0.961 . S
H648 C634 0.961 . S
H649 C635 0.958 . S
H650 C635 0.961 . S
H651 C635 0.960 1_455 S
C652 C653 1.391 . S
C652 C654 1.394 . S
C652 H668 0.931 . S
C653 C652 1.391 . S
C653 C657 1.376 . S
C654 C652 1.394 . S
C654 C655 1.369 . S
C654 C658 1.531 . S
C655 C654 1.369 . S
C655 C656 1.410 . S
C655 C663 1.503 . S
C656 C655 1.410 . S
C656 C657 1.392 . S
C656 C659 1.511 . S
C657 C653 1.376 . S
C657 C656 1.392 . S
C657 H669 0.929 . S
C658 C654 1.531 . S
C658 H670 0.960 . S
C658 H671 0.962 . S
C658 H672 0.960 . S
C659 C656 1.511 . S
C659 H673 0.961 . S
C659 H674 0.961 . S
C659 H675 0.961 . S
C660 C661 1.370 . S
C660 C662 1.363 1_565 S
C660 H676 0.931 . S
C661 C660 1.370 . S
C661 C665 1.408 . S
C662 C660 1.363 1_545 S
C662 C663 1.370 . S
C662 C666 1.524 . S
C663 C655 1.503 . S
C663 C662 1.370 . S
C663 C664 1.403 . S
C664 C663 1.403 . S
C664 C665 1.404 1_545 S
C664 C667 1.539 . S
C665 C661 1.408 . S
C665 C664 1.404 1_565 S
C665 H677 0.930 . S
C666 C662 1.524 . S
C666 H678 0.956 . S
C666 H679 0.961 . S
C666 H680 0.961 . S
C667 C664 1.539 . S
C667 H681 0.958 . S
C667 H682 0.961 . S
C667 H683 0.960 . S
H668 C652 0.931 . S
H669 C657 0.929 . S
H670 C658 0.960 . S
H671 C658 0.962 . S
H672 C658 0.960 . S
H673 C659 0.961 . S
H674 C659 0.961 . S
H675 C659 0.961 . S
H676 C660 0.931 . S
H677 C665 0.930 . S
H678 C666 0.956 . S
H679 C666 0.961 . S
H680 C666 0.961 . S
H681 C667 0.958 . S
H682 C667 0.961 . S
H683 C667 0.960 . S
C684 C685 1.391 . S
C684 C686 1.394 . S
C684 H700 0.931 . S
C685 C684 1.391 . S
C685 C689 1.376 . S
C686 C684 1.394 . S
C686 C687 1.369 . S
C686 C690 1.531 . S
C687 C686 1.369 . S
C687 C688 1.410 . S
C687 C695 1.503 . S
C688 C687 1.410 . S
C688 C689 1.392 . S
C688 C691 1.511 . S
C689 C685 1.376 . S
C689 C688 1.392 . S
C689 H701 0.929 . S
C690 C686 1.531 . S
C690 H702 0.960 . S
C690 H703 0.962 . S
C690 H704 0.960 . S
C691 C688 1.511 . S
C691 H705 0.961 . S
C691 H706 0.961 . S
C691 H707 0.961 . S
C692 C693 1.370 . S
C692 C694 1.363 . S
C692 H708 0.931 . S
C693 C692 1.370 . S
C693 C697 1.408 . S
C694 C692 1.363 . S
C694 C695 1.370 . S
C694 C698 1.524 . S
C695 C687 1.503 . S
C695 C694 1.370 . S
C695 C696 1.403 . S
C696 C695 1.403 . S
C696 C697 1.404 . S
C696 C699 1.539 . S
C697 C693 1.408 . S
C697 C696 1.404 . S
C697 H709 0.930 . S
C698 C694 1.524 . S
C698 H710 0.956 . S
C698 H711 0.961 . S
C698 H712 0.961 . S
C699 C696 1.539 . S
C699 H713 0.958 . S
C699 H714 0.961 . S
C699 H715 0.960 . S
H700 C684 0.931 . S
H701 C689 0.929 . S
H702 C690 0.960 . S
H703 C690 0.962 . S
H704 C690 0.960 . S
H705 C691 0.961 . S
H706 C691 0.961 . S
H707 C691 0.961 . S
H708 C692 0.931 . S
H709 C697 0.930 . S
H710 C698 0.956 . S
H711 C698 0.961 . S
H712 C698 0.961 . S
H713 C699 0.958 . S
H714 C699 0.961 . S
H715 C699 0.960 . S
C716 C717 1.391 . S
C716 C718 1.394 . S
C716 H732 0.931 . S
C717 C716 1.391 . S
C717 C721 1.376 . S
C718 C716 1.394 . S
C718 C719 1.369 . S
C718 C722 1.531 . S
C719 C718 1.369 . S
C719 C720 1.410 . S
C719 C727 1.503 . S
C720 C719 1.410 . S
C720 C721 1.392 . S
C720 C723 1.511 . S
C721 C717 1.376 . S
C721 C720 1.392 . S
C721 H733 0.929 . S
C722 C718 1.531 . S
C722 H734 0.960 . S
C722 H735 0.962 . S
C722 H736 0.960 . S
C723 C720 1.511 . S
C723 H737 0.961 . S
C723 H738 0.961 . S
C723 H739 0.961 . S
C724 C725 1.370 . S
C724 C726 1.363 1_455 S
C724 H740 0.931 . S
C725 C724 1.370 . S
C725 C729 1.408 . S
C726 C724 1.363 1_655 S
C726 C727 1.370 . S
C726 C730 1.524 . S
C727 C719 1.503 . S
C727 C726 1.370 . S
C727 C728 1.403 . S
C728 C727 1.403 . S
C728 C729 1.404 1_655 S
C728 C731 1.539 . S
C729 C725 1.408 . S
C729 C728 1.404 1_455 S
C729 H741 0.930 . S
C730 C726 1.524 . S
C730 H742 0.956 . S
C730 H743 0.961 . S
C730 H744 0.961 . S
C731 C728 1.539 . S
C731 H745 0.958 . S
C731 H746 0.961 . S
C731 H747 0.960 . S
H732 C716 0.931 . S
H733 C721 0.929 . S
H734 C722 0.960 . S
H735 C722 0.962 . S
H736 C722 0.960 . S
H737 C723 0.961 . S
H738 C723 0.961 . S
H739 C723 0.961 . S
H740 C724 0.931 . S
H741 C729 0.930 . S
H742 C730 0.956 . S
H743 C730 0.961 . S
H744 C730 0.961 . S
H745 C731 0.958 . S
H746 C731 0.961 . S
H747 C731 0.960 . S
C748 C749 1.391 . S
C748 C750 1.394 . S
C748 H764 0.931 . S
C749 C748 1.391 . S
C749 C753 1.376 . S
C750 C748 1.394 . S
C750 C751 1.369 . S
C750 C754 1.531 . S
C751 C750 1.369 . S
C751 C752 1.410 . S
C751 C759 1.503 . S
C752 C751 1.410 . S
C752 C753 1.392 . S
C752 C755 1.511 . S
C753 C749 1.376 . S
C753 C752 1.392 . S
C753 H765 0.929 . S
C754 C750 1.531 . S
C754 H766 0.960 . S
C754 H767 0.962 . S
C754 H768 0.960 . S
C755 C752 1.511 . S
C755 H769 0.961 . S
C755 H770 0.961 . S
C755 H771 0.961 . S
C756 C757 1.370 . S
C756 C758 1.363 1_545 S
C756 H772 0.931 . S
C757 C756 1.370 . S
C757 C761 1.408 . S
C758 C756 1.363 1_565 S
C758 C759 1.370 . S
C758 C762 1.524 . S
C759 C751 1.503 . S
C759 C758 1.370 . S
C759 C760 1.403 . S
C760 C759 1.403 . S
C760 C761 1.404 1_565 S
C760 C763 1.539 . S
C761 C757 1.408 . S
C761 C760 1.404 1_545 S
C761 H773 0.930 . S
C762 C758 1.524 . S
C762 H774 0.956 . S
C762 H775 0.961 . S
C762 H776 0.961 . S
C763 C760 1.539 . S
C763 H777 0.958 . S
C763 H778 0.961 . S
C763 H779 0.960 . S
H764 C748 0.931 . S
H765 C753 0.929 . S
H766 C754 0.960 . S
H767 C754 0.962 . S
H768 C754 0.960 . S
H769 C755 0.961 . S
H770 C755 0.961 . S
H771 C755 0.961 . S
H772 C756 0.931 . S
H773 C761 0.930 . S
H774 C762 0.956 . S
H775 C762 0.961 . S
H776 C762 0.961 . S
H777 C763 0.958 . S
H778 C763 0.961 . S
H779 C763 0.960 . S
C780 C781 1.391 . S
C780 C782 1.394 . S
C780 H796 0.931 . S
C781 C780 1.391 . S
C781 C785 1.376 . S
C782 C780 1.394 . S
C782 C783 1.369 . S
C782 C786 1.531 . S
C783 C782 1.369 . S
C783 C784 1.410 . S
C783 C791 1.503 . S
C784 C783 1.410 . S
C784 C785 1.392 . S
C784 C787 1.511 . S
C785 C781 1.376 . S
C785 C784 1.392 . S
C785 H797 0.929 . S
C786 C782 1.531 . S
C786 H798 0.960 . S
C786 H799 0.962 . S
C786 H800 0.960 . S
C787 C784 1.511 . S
C787 H801 0.961 . S
C787 H802 0.961 . S
C787 H803 0.961 . S
C788 C789 1.370 . S
C788 C790 1.363 . S
C788 H804 0.931 . S
C789 C788 1.370 . S
C789 C793 1.408 . S
C790 C788 1.363 . S
C790 C791 1.370 . S
C790 C794 1.524 . S
C791 C783 1.503 . S
C791 C790 1.370 . S
C791 C792 1.403 . S
C792 C791 1.403 . S
C792 C793 1.404 . S
C792 C795 1.539 . S
C793 C789 1.408 . S
C793 C792 1.404 . S
C793 H805 0.930 . S
C794 C790 1.524 . S
C794 H806 0.956 . S
C794 H807 0.961 . S
C794 H808 0.961 . S
C795 C792 1.539 . S
C795 H809 0.958 . S
C795 H810 0.961 . S
C795 H811 0.960 . S
H796 C780 0.931 . S
H797 C785 0.929 . S
H798 C786 0.960 . S
H799 C786 0.962 . S
H800 C786 0.960 . S
H801 C787 0.961 . S
H802 C787 0.961 . S
H803 C787 0.961 . S
H804 C788 0.931 . S
H805 C793 0.930 . S
H806 C794 0.956 . S
H807 C794 0.961 . S
H808 C794 0.961 . S
H809 C795 0.958 . S
H810 C795 0.961 . S
H811 C795 0.960 . S
C812 C813 1.391 . S
C812 C814 1.394 . S
C812 H828 0.931 . S
C813 C812 1.391 . S
C813 C817 1.376 . S
C814 C812 1.394 . S
C814 C815 1.369 . S
C814 C818 1.531 . S
C815 C814 1.369 . S
C815 C816 1.410 . S
C815 C823 1.503 . S
C816 C815 1.410 . S
C816 C817 1.392 . S
C816 C819 1.511 . S
C817 C813 1.376 . S
C817 C816 1.392 . S
C817 H829 0.929 . S
C818 C814 1.531 . S
C818 H830 0.960 . S
C818 H831 0.962 . S
C818 H832 0.960 . S
C819 C816 1.511 . S
C819 H833 0.961 . S
C819 H834 0.961 . S
C819 H835 0.961 . S
C820 C821 1.370 . S
C820 C822 1.363 . S
C820 H836 0.931 . S
C821 C820 1.370 . S
C821 C825 1.408 . S
C822 C820 1.363 . S
C822 C823 1.370 . S
C822 C826 1.524 . S
C823 C815 1.503 . S
C823 C822 1.370 . S
C823 C824 1.403 . S
C824 C823 1.403 . S
C824 C825 1.404 . S
C824 C827 1.539 . S
C825 C821 1.408 . S
C825 C824 1.404 . S
C825 H837 0.930 . S
C826 C822 1.524 . S
C826 H838 0.956 . S
C826 H839 0.961 . S
C826 H840 0.961 . S
C827 C824 1.539 . S
C827 H841 0.958 . S
C827 H842 0.961 . S
C827 H843 0.960 . S
H828 C812 0.931 . S
H829 C817 0.929 . S
H830 C818 0.960 . S
H831 C818 0.962 . S
H832 C818 0.960 . S
H833 C819 0.961 . S
H834 C819 0.961 . S
H835 C819 0.961 . S
H836 C820 0.931 . S
H837 C825 0.930 . S
H838 C826 0.956 . S
H839 C826 0.961 . S
H840 C826 0.961 . S
H841 C827 0.958 . S
H842 C827 0.961 . S
H843 C827 0.960 . S
C844 C845 1.391 . S
C844 C846 1.394 . S
C844 H860 0.931 . S
C845 C844 1.391 . S
C845 C849 1.376 . S
C846 C844 1.394 . S
C846 C847 1.369 . S
C846 C850 1.531 . S
C847 C846 1.369 . S
C847 C848 1.410 . S
C847 C855 1.503 . S
C848 C847 1.410 . S
C848 C849 1.392 . S
C848 C851 1.511 . S
C849 C845 1.376 . S
C849 C848 1.392 . S
C849 H861 0.929 . S
C850 C846 1.531 . S
C850 H862 0.960 . S
C850 H863 0.962 . S
C850 H864 0.960 . S
C851 C848 1.511 . S
C851 H865 0.961 . S
C851 H866 0.961 . S
C851 H867 0.961 . S
C852 C853 1.370 . S
C852 C854 1.363 . S
C852 H868 0.931 . S
C853 C852 1.370 . S
C853 C857 1.408 . S
C854 C852 1.363 . S
C854 C855 1.370 . S
C854 C858 1.524 . S
C855 C847 1.503 . S
C855 C854 1.370 . S
C855 C856 1.403 . S
C856 C855 1.403 . S
C856 C857 1.404 . S
C856 C859 1.539 . S
C857 C853 1.408 . S
C857 C856 1.404 . S
C857 H869 0.930 . S
C858 C854 1.524 . S
C858 H870 0.956 . S
C858 H871 0.961 . S
C858 H872 0.961 . S
C859 C856 1.539 . S
C859 H873 0.958 . S
C859 H874 0.961 . S
C859 H875 0.960 . S
H860 C844 0.931 . S
H861 C849 0.929 . S
H862 C850 0.960 . S
H863 C850 0.962 . S
H864 C850 0.960 . S
H865 C851 0.961 . S
H866 C851 0.961 . S
H867 C851 0.961 . S
H868 C852 0.931 . S
H869 C857 0.930 . S
H870 C858 0.956 . S
H871 C858 0.961 . S
H872 C858 0.961 . S
H873 C859 0.958 . S
H874 C859 0.961 . S
H875 C859 0.960 . S
C876 C877 1.391 . S
C876 C878 1.394 . S
C876 H892 0.931 . S
C877 C876 1.391 . S
C877 C881 1.376 . S
C878 C876 1.394 . S
C878 C879 1.369 . S
C878 C882 1.531 . S
C879 C878 1.369 . S
C879 C880 1.410 . S
C879 C887 1.503 . S
C880 C879 1.410 . S
C880 C881 1.392 . S
C880 C883 1.511 . S
C881 C877 1.376 . S
C881 C880 1.392 . S
C881 H893 0.929 . S
C882 C878 1.531 . S
C882 H894 0.960 . S
C882 H895 0.962 . S
C882 H896 0.960 . S
C883 C880 1.511 . S
C883 H897 0.961 . S
C883 H898 0.961 . S
C883 H899 0.961 . S
C884 C885 1.370 . S
C884 C886 1.363 . S
C884 H900 0.931 . S
C885 C884 1.370 . S
C885 C889 1.408 . S
C886 C884 1.363 . S
C886 C887 1.370 . S
C886 C890 1.524 . S
C887 C879 1.503 . S
C887 C886 1.370 . S
C887 C888 1.403 . S
C888 C887 1.403 . S
C888 C889 1.404 . S
C888 C891 1.539 . S
C889 C885 1.408 . S
C889 C888 1.404 . S
C889 H901 0.930 . S
C890 C886 1.524 . S
C890 H902 0.956 . S
C890 H903 0.961 . S
C890 H904 0.961 . S
C891 C888 1.539 . S
C891 H905 0.958 . S
C891 H906 0.961 . S
C891 H907 0.960 . S
H892 C876 0.931 . S
H893 C881 0.929 . S
H894 C882 0.960 . S
H895 C882 0.962 . S
H896 C882 0.960 . S
H897 C883 0.961 . S
H898 C883 0.961 . S
H899 C883 0.961 . S
H900 C884 0.931 . S
H901 C889 0.930 . S
H902 C890 0.956 . S
H903 C890 0.961 . S
H904 C890 0.961 . S
H905 C891 0.958 . S
H906 C891 0.961 . S
H907 C891 0.960 . S
C908 C909 1.391 . S
C908 C910 1.394 . S
C908 H924 0.931 . S
C909 C908 1.391 . S
C909 C913 1.376 . S
C910 C908 1.394 . S
C910 C911 1.369 . S
C910 C914 1.531 . S
C911 C910 1.369 . S
C911 C912 1.410 . S
C911 C919 1.503 . S
C912 C911 1.410 . S
C912 C913 1.392 . S
C912 C915 1.511 . S
C913 C909 1.376 . S
C913 C912 1.392 . S
C913 H925 0.929 . S
C914 C910 1.531 . S
C914 H926 0.960 . S
C914 H927 0.962 . S
C914 H928 0.960 . S
C915 C912 1.511 . S
C915 H929 0.961 . S
C915 H930 0.961 . S
C915 H931 0.961 . S
C916 C917 1.370 . S
C916 C918 1.363 . S
C916 H932 0.931 . S
C917 C916 1.370 . S
C917 C921 1.408 . S
C918 C916 1.363 . S
C918 C919 1.370 . S
C918 C922 1.524 . S
C919 C911 1.503 . S
C919 C918 1.370 . S
C919 C920 1.403 . S
C920 C919 1.403 . S
C920 C921 1.404 . S
C920 C923 1.539 . S
C921 C917 1.408 . S
C921 C920 1.404 . S
C921 H933 0.930 . S
C922 C918 1.524 . S
C922 H934 0.956 . S
C922 H935 0.961 . S
C922 H936 0.961 . S
C923 C920 1.539 . S
C923 H937 0.958 . S
C923 H938 0.961 . S
C923 H939 0.960 . S
H924 C908 0.931 . S
H925 C913 0.929 . S
H926 C914 0.960 . S
H927 C914 0.962 . S
H928 C914 0.960 . S
H929 C915 0.961 . S
H930 C915 0.961 . S
H931 C915 0.961 . S
H932 C916 0.931 . S
H933 C921 0.930 . S
H934 C922 0.956 . S
H935 C922 0.961 . S
H936 C922 0.961 . S
H937 C923 0.958 . S
H938 C923 0.961 . S
H939 C923 0.960 . S
C940 C941 1.391 . S
C940 C942 1.394 . S
C940 H956 0.931 . S
C941 C940 1.391 . S
C941 C945 1.376 . S
C942 C940 1.394 . S
C942 C943 1.369 . S
C942 C946 1.531 . S
C943 C942 1.369 . S
C943 C944 1.410 . S
C943 C951 1.503 . S
C944 C943 1.410 . S
C944 C945 1.392 . S
C944 C947 1.511 . S
C945 C941 1.376 . S
C945 C944 1.392 . S
C945 H957 0.929 . S
C946 C942 1.531 . S
C946 H958 0.960 . S
C946 H959 0.962 . S
C946 H960 0.960 . S
C947 C944 1.511 . S
C947 H961 0.961 . S
C947 H962 0.961 . S
C947 H963 0.961 . S
C948 C949 1.370 . S
C948 C950 1.363 . S
C948 H964 0.931 . S
C949 C948 1.370 . S
C949 C953 1.408 . S
C950 C948 1.363 . S
C950 C951 1.370 . S
C950 C954 1.524 . S
C951 C943 1.503 . S
C951 C950 1.370 . S
C951 C952 1.403 . S
C952 C951 1.403 . S
C952 C953 1.404 . S
C952 C955 1.539 . S
C953 C949 1.408 . S
C953 C952 1.404 . S
C953 H965 0.930 . S
C954 C950 1.524 . S
C954 H966 0.956 . S
C954 H967 0.961 . S
C954 H968 0.961 . S
C955 C952 1.539 . S
C955 H969 0.958 . S
C955 H970 0.961 . S
C955 H971 0.960 . S
H956 C940 0.931 . S
H957 C945 0.929 . S
H958 C946 0.960 . S
H959 C946 0.962 . S
H960 C946 0.960 . S
H961 C947 0.961 . S
H962 C947 0.961 . S
H963 C947 0.961 . S
H964 C948 0.931 . S
H965 C953 0.930 . S
H966 C954 0.956 . S
H967 C954 0.961 . S
H968 C954 0.961 . S
H969 C955 0.958 . S
H970 C955 0.961 . S
H971 C955 0.960 . S
C972 C973 1.391 . S
C972 C974 1.394 . S
C972 H988 0.931 . S
C973 C972 1.391 . S
C973 C977 1.376 . S
C974 C972 1.394 . S
C974 C975 1.369 . S
C974 C978 1.531 . S
C975 C974 1.369 . S
C975 C976 1.410 . S
C975 C983 1.503 . S
C976 C975 1.410 . S
C976 C977 1.392 . S
C976 C979 1.511 . S
C977 C973 1.376 . S
C977 C976 1.392 . S
C977 H989 0.929 . S
C978 C974 1.531 . S
C978 H990 0.960 . S
C978 H991 0.962 . S
C978 H992 0.960 . S
C979 C976 1.511 . S
C979 H993 0.961 . S
C979 H994 0.961 . S
C979 H995 0.961 . S
C980 C981 1.370 . S
C980 C982 1.363 . S
C980 H996 0.931 . S
C981 C980 1.370 . S
C981 C985 1.408 . S
C982 C980 1.363 . S
C982 C983 1.370 . S
C982 C986 1.524 . S
C983 C975 1.503 . S
C983 C982 1.370 . S
C983 C984 1.403 . S
C984 C983 1.403 . S
C984 C985 1.404 . S
C984 C987 1.539 . S
C985 C981 1.408 . S
C985 C984 1.404 . S
C985 H997 0.930 . S
C986 C982 1.524 . S
C986 H998 0.956 . S
C986 H999 0.961 . S
C986 H1000 0.961 . S
C987 C984 1.539 . S
C987 H1001 0.958 . S
C987 H1002 0.961 . S
C987 H1003 0.960 . S
H988 C972 0.931 . S
H989 C977 0.929 . S
H990 C978 0.960 . S
H991 C978 0.962 . S
H992 C978 0.960 . S
H993 C979 0.961 . S
H994 C979 0.961 . S
H995 C979 0.961 . S
H996 C980 0.931 . S
H997 C985 0.930 . S
H998 C986 0.956 . S
H999 C986 0.961 . S
H1000 C986 0.961 . S
H1001 C987 0.958 . S
H1002 C987 0.961 . S
H1003 C987 0.960 . S
C1004 C1005 1.391 . S
C1004 C1006 1.394 . S
C1004 H1020 0.931 . S
C1005 C1004 1.391 . S
C1005 C1009 1.376 . S
C1006 C1004 1.394 . S
C1006 C1007 1.369 . S
C1006 C1010 1.531 . S
C1007 C1006 1.369 . S
C1007 C1008 1.410 1_455 S
C1007 C1015 1.503 1_455 S
C1008 C1007 1.410 1_655 S
C1008 C1009 1.392 1_655 S
C1008 C1011 1.511 . S
C1009 C1005 1.376 . S
C1009 C1008 1.392 1_455 S
C1009 H1021 0.929 . S
C1010 C1006 1.531 . S
C1010 H1022 0.960 . S
C1010 H1023 0.962 . S
C1010 H1024 0.960 . S
C1011 C1008 1.511 . S
C1011 H1025 0.961 . S
C1011 H1026 0.961 . S
C1011 H1027 0.961 . S
C1012 C1013 1.370 . S
C1012 C1014 1.363 . S
C1012 H1028 0.931 . S
C1013 C1012 1.370 . S
C1013 C1017 1.408 . S
C1014 C1012 1.363 . S
C1014 C1015 1.370 . S
C1014 C1018 1.524 . S
C1015 C1007 1.503 1_655 S
C1015 C1014 1.370 . S
C1015 C1016 1.403 . S
C1016 C1015 1.403 . S
C1016 C1017 1.404 . S
C1016 C1019 1.539 . S
C1017 C1013 1.408 . S
C1017 C1016 1.404 . S
C1017 H1029 0.930 . S
C1018 C1014 1.524 . S
C1018 H1030 0.956 1_655 S
C1018 H1031 0.961 . S
C1018 H1032 0.961 . S
C1019 C1016 1.539 . S
C1019 H1033 0.958 1_655 S
C1019 H1034 0.961 . S
C1019 H1035 0.960 . S
H1020 C1004 0.931 . S
H1021 C1009 0.929 . S
H1022 C1010 0.960 . S
H1023 C1010 0.962 . S
H1024 C1010 0.960 . S
H1025 C1011 0.961 . S
H1026 C1011 0.961 . S
H1027 C1011 0.961 . S
H1028 C1012 0.931 . S
H1029 C1017 0.930 . S
H1030 C1018 0.956 1_455 S
H1031 C1018 0.961 . S
H1032 C1018 0.961 . S
H1033 C1019 0.958 1_455 S
H1034 C1019 0.961 . S
H1035 C1019 0.960 . S
C1036 C1037 1.391 . S
C1036 C1038 1.394 . S
C1036 H1052 0.931 . S
C1037 C1036 1.391 . S
C1037 C1041 1.376 . S
C1038 C1036 1.394 . S
C1038 C1039 1.369 . S
C1038 C1042 1.531 . S
C1039 C1038 1.369 . S
C1039 C1040 1.410 1_565 S
C1039 C1047 1.503 1_565 S
C1040 C1039 1.410 1_545 S
C1040 C1041 1.392 1_545 S
C1040 C1043 1.511 . S
C1041 C1037 1.376 . S
C1041 C1040 1.392 1_565 S
C1041 H1053 0.929 . S
C1042 C1038 1.531 . S
C1042 H1054 0.960 . S
C1042 H1055 0.962 . S
C1042 H1056 0.960 . S
C1043 C1040 1.511 . S
C1043 H1057 0.961 . S
C1043 H1058 0.961 . S
C1043 H1059 0.961 . S
C1044 C1045 1.370 . S
C1044 C1046 1.363 . S
C1044 H1060 0.931 . S
C1045 C1044 1.370 . S
C1045 C1049 1.408 . S
C1046 C1044 1.363 . S
C1046 C1047 1.370 . S
C1046 C1050 1.524 . S
C1047 C1039 1.503 1_545 S
C1047 C1046 1.370 . S
C1047 C1048 1.403 . S
C1048 C1047 1.403 . S
C1048 C1049 1.404 . S
C1048 C1051 1.539 1_545 S
C1049 C1045 1.408 . S
C1049 C1048 1.404 . S
C1049 H1061 0.930 . S
C1050 C1046 1.524 . S
C1050 H1062 0.956 . S
C1050 H1063 0.961 . S
C1050 H1064 0.961 . S
C1051 C1048 1.539 1_565 S
C1051 H1065 0.958 . S
C1051 H1066 0.962 . S
C1051 H1067 0.960 . S
H1052 C1036 0.931 . S
H1053 C1041 0.929 . S
H1054 C1042 0.960 . S
H1055 C1042 0.962 . S
H1056 C1042 0.960 . S
H1057 C1043 0.961 . S
H1058 C1043 0.961 . S
H1059 C1043 0.961 . S
H1060 C1044 0.931 . S
H1061 C1049 0.930 . S
H1062 C1050 0.956 . S
H1063 C1050 0.961 . S
H1064 C1050 0.961 . S
H1065 C1051 0.958 . S
H1066 C1051 0.962 . S
H1067 C1051 0.960 . S
C1068 C1069 1.391 . S
C1068 C1070 1.394 . S
C1068 H1084 0.931 . S
C1069 C1068 1.391 . S
C1069 C1073 1.376 . S
C1070 C1068 1.394 . S
C1070 C1071 1.369 . S
C1070 C1074 1.531 . S
C1071 C1070 1.369 . S
C1071 C1072 1.410 . S
C1071 C1079 1.503 . S
C1072 C1071 1.410 . S
C1072 C1073 1.392 . S
C1072 C1075 1.511 . S
C1073 C1069 1.376 . S
C1073 C1072 1.392 . S
C1073 H1085 0.929 . S
C1074 C1070 1.531 . S
C1074 H1086 0.960 . S
C1074 H1087 0.962 . S
C1074 H1088 0.960 . S
C1075 C1072 1.511 . S
C1075 H1089 0.961 . S
C1075 H1090 0.961 . S
C1075 H1091 0.961 . S
C1076 C1077 1.370 . S
C1076 C1078 1.363 . S
C1076 H1092 0.931 . S
C1077 C1076 1.370 . S
C1077 C1081 1.408 . S
C1078 C1076 1.363 . S
C1078 C1079 1.370 . S
C1078 C1082 1.524 . S
C1079 C1071 1.503 . S
C1079 C1078 1.370 . S
C1079 C1080 1.403 . S
C1080 C1079 1.403 . S
C1080 C1081 1.404 . S
C1080 C1083 1.539 . S
C1081 C1077 1.408 . S
C1081 C1080 1.404 . S
C1081 H1093 0.930 . S
C1082 C1078 1.524 . S
C1082 H1094 0.956 . S
C1082 H1095 0.961 . S
C1082 H1096 0.961 . S
C1083 C1080 1.539 . S
C1083 H1097 0.958 . S
C1083 H1098 0.961 . S
C1083 H1099 0.960 . S
H1084 C1068 0.931 . S
H1085 C1073 0.929 . S
H1086 C1074 0.960 . S
H1087 C1074 0.962 . S
H1088 C1074 0.960 . S
H1089 C1075 0.961 . S
H1090 C1075 0.961 . S
H1091 C1075 0.961 . S
H1092 C1076 0.931 . S
H1093 C1081 0.930 . S
H1094 C1082 0.956 . S
H1095 C1082 0.961 . S
H1096 C1082 0.961 . S
H1097 C1083 0.958 . S
H1098 C1083 0.961 . S
H1099 C1083 0.960 . S
C1100 C1101 1.391 . S
C1100 C1102 1.394 . S
C1100 H1116 0.931 . S
C1101 C1100 1.391 . S
C1101 C1105 1.376 . S
C1102 C1100 1.394 . S
C1102 C1103 1.369 . S
C1102 C1106 1.531 . S
C1103 C1102 1.369 . S
C1103 C1104 1.410 . S
C1103 C1111 1.503 1_455 S
C1104 C1103 1.410 . S
C1104 C1105 1.392 . S
C1104 C1107 1.511 1_455 S
C1105 C1101 1.376 . S
C1105 C1104 1.392 . S
C1105 H1117 0.929 . S
C1106 C1102 1.531 . S
C1106 H1118 0.960 . S
C1106 H1119 0.962 . S
C1106 H1120 0.960 . S
C1107 C1104 1.511 1_655 S
C1107 H1121 0.961 . S
C1107 H1122 0.961 . S
C1107 H1123 0.961 . S
C1108 C1109 1.370 . S
C1108 C1110 1.363 . S
C1108 H1124 0.931 . S
C1109 C1108 1.370 . S
C1109 C1113 1.408 . S
C1110 C1108 1.363 . S
C1110 C1111 1.370 . S
C1110 C1114 1.524 . S
C1111 C1103 1.503 1_655 S
C1111 C1110 1.370 . S
C1111 C1112 1.403 . S
C1112 C1111 1.403 . S
C1112 C1113 1.404 . S
C1112 C1115 1.539 1_655 S
C1113 C1109 1.408 . S
C1113 C1112 1.404 . S
C1113 H1125 0.930 . S
C1114 C1110 1.524 . S
C1114 H1126 0.956 . S
C1114 H1127 0.961 . S
C1114 H1128 0.961 . S
C1115 C1112 1.539 1_455 S
C1115 H1129 0.958 . S
C1115 H1130 0.961 . S
C1115 H1131 0.960 . S
H1116 C1100 0.931 . S
H1117 C1105 0.929 . S
H1118 C1106 0.960 . S
H1119 C1106 0.962 . S
H1120 C1106 0.960 . S
H1121 C1107 0.961 . S
H1122 C1107 0.961 . S
H1123 C1107 0.961 . S
H1124 C1108 0.931 . S
H1125 C1113 0.930 . S
H1126 C1114 0.956 . S
H1127 C1114 0.961 . S
H1128 C1114 0.961 . S
H1129 C1115 0.958 . S
H1130 C1115 0.961 . S
H1131 C1115 0.960 . S
C1132 C1133 1.391 . S
C1132 C1134 1.394 1_565 S
C1132 H1148 0.931 . S
C1133 C1132 1.391 . S
C1133 C1137 1.376 . S
C1134 C1132 1.394 1_545 S
C1134 C1135 1.369 1_545 S
C1134 C1138 1.531 . S
C1135 C1134 1.369 1_565 S
C1135 C1136 1.410 . S
C1135 C1143 1.503 1_564 S
C1136 C1135 1.410 . S
C1136 C1137 1.392 . S
C1136 C1139 1.511 1_554 S
C1137 C1133 1.376 . S
C1137 C1136 1.392 . S
C1137 H1149 0.929 . S
C1138 C1134 1.531 . S
C1138 H1150 0.960 . S
C1138 H1151 0.962 . S
C1138 H1152 0.960 . S
C1139 C1136 1.511 1_556 S
C1139 H1153 0.961 . S
C1139 H1154 0.961 . S
C1139 H1155 0.961 . S
C1140 C1141 1.370 . S
C1140 C1142 1.363 . S
C1140 H1156 0.931 . S
C1141 C1140 1.370 . S
C1141 C1145 1.408 . S
C1142 C1140 1.363 . S
C1142 C1143 1.370 . S
C1142 C1146 1.524 1_545 S
C1143 C1135 1.503 1_546 S
C1143 C1142 1.370 . S
C1143 C1144 1.403 . S
C1144 C1143 1.403 . S
C1144 C1145 1.404 . S
C1144 C1147 1.539 1_556 S
C1145 C1141 1.408 . S
C1145 C1144 1.404 . S
C1145 H1157 0.930 . S
C1146 C1142 1.524 1_565 S
C1146 H1158 0.956 . S
C1146 H1159 0.961 . S
C1146 H1160 0.961 . S
C1147 C1144 1.539 1_554 S
C1147 H1161 0.958 . S
C1147 H1162 0.961 1_554 S
C1147 H1163 0.960 . S
H1148 C1132 0.931 . S
H1149 C1137 0.929 . S
H1150 C1138 0.960 . S
H1151 C1138 0.962 . S
H1152 C1138 0.960 . S
H1153 C1139 0.961 . S
H1154 C1139 0.961 . S
H1155 C1139 0.961 . S
H1156 C1140 0.931 . S
H1157 C1145 0.930 . S
H1158 C1146 0.956 . S
H1159 C1146 0.961 . S
H1160 C1146 0.961 . S
H1161 C1147 0.958 . S
H1162 C1147 0.961 1_556 S
H1163 C1147 0.960 . S
C1164 C1165 1.391 . S
C1164 C1166 1.394 . S
C1164 H1180 0.931 . S
C1165 C1164 1.391 . S
C1165 C1169 1.376 . S
C1166 C1164 1.394 . S
C1166 C1167 1.369 . S
C1166 C1170 1.531 . S
C1167 C1166 1.369 . S
C1167 C1168 1.410 . S
C1167 C1175 1.503 . S
C1168 C1167 1.410 . S
C1168 C1169 1.392 . S
C1168 C1171 1.511 . S
C1169 C1165 1.376 . S
C1169 C1168 1.392 . S
C1169 H1181 0.929 . S
C1170 C1166 1.531 . S
C1170 H1182 0.960 . S
C1170 H1183 0.962 . S
C1170 H1184 0.960 . S
C1171 C1168 1.511 . S
C1171 H1185 0.961 . S
C1171 H1186 0.961 . S
C1171 H1187 0.961 . S
C1172 C1173 1.370 . S
C1172 C1174 1.363 . S
C1172 H1188 0.931 . S
C1173 C1172 1.370 . S
C1173 C1177 1.408 . S
C1174 C1172 1.363 . S
C1174 C1175 1.370 . S
C1174 C1178 1.524 . S
C1175 C1167 1.503 . S
C1175 C1174 1.370 . S
C1175 C1176 1.403 . S
C1176 C1175 1.403 . S
C1176 C1177 1.404 . S
C1176 C1179 1.539 . S
C1177 C1173 1.408 . S
C1177 C1176 1.404 . S
C1177 H1189 0.930 . S
C1178 C1174 1.524 . S
C1178 H1190 0.956 . S
C1178 H1191 0.961 . S
C1178 H1192 0.961 . S
C1179 C1176 1.539 . S
C1179 H1193 0.958 . S
C1179 H1194 0.961 . S
C1179 H1195 0.960 . S
H1180 C1164 0.931 . S
H1181 C1169 0.929 . S
H1182 C1170 0.960 . S
H1183 C1170 0.962 . S
H1184 C1170 0.960 . S
H1185 C1171 0.961 . S
H1186 C1171 0.961 . S
H1187 C1171 0.961 . S
H1188 C1172 0.931 . S
H1189 C1177 0.930 . S
H1190 C1178 0.956 . S
H1191 C1178 0.961 . S
H1192 C1178 0.961 . S
H1193 C1179 0.958 . S
H1194 C1179 0.961 . S
H1195 C1179 0.960 . S
C1196 C1197 1.391 . S
C1196 C1198 1.394 . S
C1196 H1212 0.931 . S
C1197 C1196 1.391 . S
C1197 C1201 1.376 . S
C1198 C1196 1.394 . S
C1198 C1199 1.369 . S
C1198 C1202 1.531 . S
C1199 C1198 1.369 . S
C1199 C1200 1.410 . S
C1199 C1207 1.503 . S
C1200 C1199 1.410 . S
C1200 C1201 1.392 . S
C1200 C1203 1.511 . S
C1201 C1197 1.376 . S
C1201 C1200 1.392 . S
C1201 H1213 0.929 . S
C1202 C1198 1.531 . S
C1202 H1214 0.960 . S
C1202 H1215 0.962 . S
C1202 H1216 0.960 . S
C1203 C1200 1.511 . S
C1203 H1217 0.961 . S
C1203 H1218 0.961 . S
C1203 H1219 0.961 . S
C1204 C1205 1.370 . S
C1204 C1206 1.363 . S
C1204 H1220 0.931 . S
C1205 C1204 1.370 . S
C1205 C1209 1.408 . S
C1206 C1204 1.363 . S
C1206 C1207 1.370 . S
C1206 C1210 1.524 . S
C1207 C1199 1.503 . S
C1207 C1206 1.370 . S
C1207 C1208 1.403 . S
C1208 C1207 1.403 . S
C1208 C1209 1.404 . S
C1208 C1211 1.539 . S
C1209 C1205 1.408 . S
C1209 C1208 1.404 . S
C1209 H1221 0.930 . S
C1210 C1206 1.524 . S
C1210 H1222 0.956 . S
C1210 H1223 0.961 . S
C1210 H1224 0.961 . S
C1211 C1208 1.539 . S
C1211 H1225 0.958 . S
C1211 H1226 0.961 . S
C1211 H1227 0.960 . S
H1212 C1196 0.931 . S
H1213 C1201 0.929 . S
H1214 C1202 0.960 . S
H1215 C1202 0.962 . S
H1216 C1202 0.960 . S
H1217 C1203 0.961 . S
H1218 C1203 0.961 . S
H1219 C1203 0.961 . S
H1220 C1204 0.931 . S
H1221 C1209 0.930 . S
H1222 C1210 0.956 . S
H1223 C1210 0.961 . S
H1224 C1210 0.961 . S
H1225 C1211 0.958 . S
H1226 C1211 0.961 . S
H1227 C1211 0.960 . S
C1228 C1229 1.391 . S
C1228 C1230 1.394 . S
C1228 H1244 0.931 . S
C1229 C1228 1.391 . S
C1229 C1233 1.376 . S
C1230 C1228 1.394 . S
C1230 C1231 1.369 . S
C1230 C1234 1.531 . S
C1231 C1230 1.369 . S
C1231 C1232 1.410 . S
C1231 C1239 1.503 . S
C1232 C1231 1.410 . S
C1232 C1233 1.392 . S
C1232 C1235 1.511 . S
C1233 C1229 1.376 . S
C1233 C1232 1.392 . S
C1233 H1245 0.929 . S
C1234 C1230 1.531 . S
C1234 H1246 0.960 . S
C1234 H1247 0.962 . S
C1234 H1248 0.960 . S
C1235 C1232 1.511 . S
C1235 H1249 0.961 . S
C1235 H1250 0.961 . S
C1235 H1251 0.961 . S
C1236 C1237 1.370 . S
C1236 C1238 1.363 . S
C1236 H1252 0.931 . S
C1237 C1236 1.370 . S
C1237 C1241 1.408 . S
C1238 C1236 1.363 . S
C1238 C1239 1.370 . S
C1238 C1242 1.524 . S
C1239 C1231 1.503 . S
C1239 C1238 1.370 . S
C1239 C1240 1.403 . S
C1240 C1239 1.403 . S
C1240 C1241 1.404 . S
C1240 C1243 1.539 . S
C1241 C1237 1.408 . S
C1241 C1240 1.404 . S
C1241 H1253 0.930 . S
C1242 C1238 1.524 . S
C1242 H1254 0.956 . S
C1242 H1255 0.961 . S
C1242 H1256 0.961 . S
C1243 C1240 1.539 . S
C1243 H1257 0.958 . S
C1243 H1258 0.961 . S
C1243 H1259 0.960 . S
H1244 C1228 0.931 . S
H1245 C1233 0.929 . S
H1246 C1234 0.960 . S
H1247 C1234 0.962 . S
H1248 C1234 0.960 . S
H1249 C1235 0.961 . S
H1250 C1235 0.961 . S
H1251 C1235 0.961 . S
H1252 C1236 0.931 . S
H1253 C1241 0.930 . S
H1254 C1242 0.956 . S
H1255 C1242 0.961 . S
H1256 C1242 0.961 . S
H1257 C1243 0.958 . S
H1258 C1243 0.961 . S
H1259 C1243 0.960 . S
C1260 C1261 1.391 . S
C1260 C1262 1.394 . S
C1260 H1276 0.931 . S
C1261 C1260 1.391 . S
C1261 C1265 1.376 . S
C1262 C1260 1.394 . S
C1262 C1263 1.369 . S
C1262 C1266 1.531 . S
C1263 C1262 1.369 . S
C1263 C1264 1.410 . S
C1263 C1271 1.503 . S
C1264 C1263 1.410 . S
C1264 C1265 1.392 . S
C1264 C1267 1.511 . S
C1265 C1261 1.376 . S
C1265 C1264 1.392 . S
C1265 H1277 0.929 . S
C1266 C1262 1.531 . S
C1266 H1278 0.960 . S
C1266 H1279 0.962 . S
C1266 H1280 0.960 . S
C1267 C1264 1.511 . S
C1267 H1281 0.961 . S
C1267 H1282 0.961 . S
C1267 H1283 0.961 . S
C1268 C1269 1.370 . S
C1268 C1270 1.363 . S
C1268 H1284 0.931 . S
C1269 C1268 1.370 . S
C1269 C1273 1.408 . S
C1270 C1268 1.363 . S
C1270 C1271 1.370 . S
C1270 C1274 1.524 . S
C1271 C1263 1.503 . S
C1271 C1270 1.370 . S
C1271 C1272 1.403 . S
C1272 C1271 1.403 . S
C1272 C1273 1.404 . S
C1272 C1275 1.539 . S
C1273 C1269 1.408 . S
C1273 C1272 1.404 . S
C1273 H1285 0.930 . S
C1274 C1270 1.524 . S
C1274 H1286 0.956 . S
C1274 H1287 0.961 . S
C1274 H1288 0.961 . S
C1275 C1272 1.539 . S
C1275 H1289 0.958 . S
C1275 H1290 0.961 . S
C1275 H1291 0.960 . S
H1276 C1260 0.931 . S
H1277 C1265 0.929 . S
H1278 C1266 0.960 . S
H1279 C1266 0.962 . S
H1280 C1266 0.960 . S
H1281 C1267 0.961 . S
H1282 C1267 0.961 . S
H1283 C1267 0.961 . S
H1284 C1268 0.931 . S
H1285 C1273 0.930 . S
H1286 C1274 0.956 . S
H1287 C1274 0.961 . S
H1288 C1274 0.961 . S
H1289 C1275 0.958 . S
H1290 C1275 0.961 . S
H1291 C1275 0.960 . S
C1292 C1293 1.391 . S
C1292 C1294 1.394 . S
C1292 H1308 0.931 . S
C1293 C1292 1.391 . S
C1293 C1297 1.376 . S
C1294 C1292 1.394 . S
C1294 C1295 1.369 . S
C1294 C1298 1.531 . S
C1295 C1294 1.369 . S
C1295 C1296 1.410 . S
C1295 C1303 1.503 . S
C1296 C1295 1.410 . S
C1296 C1297 1.392 . S
C1296 C1299 1.511 . S
C1297 C1293 1.376 . S
C1297 C1296 1.392 . S
C1297 H1309 0.929 . S
C1298 C1294 1.531 . S
C1298 H1310 0.960 . S
C1298 H1311 0.962 . S
C1298 H1312 0.960 . S
C1299 C1296 1.511 . S
C1299 H1313 0.961 . S
C1299 H1314 0.961 . S
C1299 H1315 0.961 . S
C1300 C1301 1.370 . S
C1300 C1302 1.363 . S
C1300 H1316 0.931 . S
C1301 C1300 1.370 . S
C1301 C1305 1.408 . S
C1302 C1300 1.363 . S
C1302 C1303 1.370 . S
C1302 C1306 1.524 . S
C1303 C1295 1.503 . S
C1303 C1302 1.370 . S
C1303 C1304 1.403 . S
C1304 C1303 1.403 . S
C1304 C1305 1.404 . S
C1304 C1307 1.539 . S
C1305 C1301 1.408 . S
C1305 C1304 1.404 . S
C1305 H1317 0.930 . S
C1306 C1302 1.524 . S
C1306 H1318 0.956 . S
C1306 H1319 0.961 . S
C1306 H1320 0.961 . S
C1307 C1304 1.539 . S
C1307 H1321 0.958 . S
C1307 H1322 0.961 . S
C1307 H1323 0.960 . S
H1308 C1292 0.931 . S
H1309 C1297 0.929 . S
H1310 C1298 0.960 . S
H1311 C1298 0.962 . S
H1312 C1298 0.960 . S
H1313 C1299 0.961 . S
H1314 C1299 0.961 . S
H1315 C1299 0.961 . S
H1316 C1300 0.931 . S
H1317 C1305 0.930 . S
H1318 C1306 0.956 . S
H1319 C1306 0.961 . S
H1320 C1306 0.961 . S
H1321 C1307 0.958 . S
H1322 C1307 0.961 . S
H1323 C1307 0.960 . S
C1324 C1325 1.391 . S
C1324 C1326 1.394 . S
C1324 H1340 0.931 . S
C1325 C1324 1.391 . S
C1325 C1329 1.376 . S
C1326 C1324 1.394 . S
C1326 C1327 1.369 . S
C1326 C1330 1.531 . S
C1327 C1326 1.369 . S
C1327 C1328 1.410 . S
C1327 C1335 1.503 . S
C1328 C1327 1.410 . S
C1328 C1329 1.392 . S
C1328 C1331 1.511 . S
C1329 C1325 1.376 . S
C1329 C1328 1.392 . S
C1329 H1341 0.929 . S
C1330 C1326 1.531 . S
C1330 H1342 0.960 . S
C1330 H1343 0.962 . S
C1330 H1344 0.960 . S
C1331 C1328 1.511 . S
C1331 H1345 0.961 . S
C1331 H1346 0.961 . S
C1331 H1347 0.961 . S
C1332 C1333 1.370 . S
C1332 C1334 1.363 . S
C1332 H1348 0.931 . S
C1333 C1332 1.370 . S
C1333 C1337 1.408 . S
C1334 C1332 1.363 . S
C1334 C1335 1.370 . S
C1334 C1338 1.524 . S
C1335 C1327 1.503 . S
C1335 C1334 1.370 . S
C1335 C1336 1.403 . S
C1336 C1335 1.403 . S
C1336 C1337 1.404 . S
C1336 C1339 1.539 . S
C1337 C1333 1.408 . S
C1337 C1336 1.404 . S
C1337 H1349 0.930 . S
C1338 C1334 1.524 . S
C1338 H1350 0.956 . S
C1338 H1351 0.961 . S
C1338 H1352 0.961 . S
C1339 C1336 1.539 . S
C1339 H1353 0.958 . S
C1339 H1354 0.961 . S
C1339 H1355 0.960 . S
H1340 C1324 0.931 . S
H1341 C1329 0.929 . S
H1342 C1330 0.960 . S
H1343 C1330 0.962 . S
H1344 C1330 0.960 . S
H1345 C1331 0.961 . S
H1346 C1331 0.961 . S
H1347 C1331 0.961 . S
H1348 C1332 0.931 . S
H1349 C1337 0.930 . S
H1350 C1338 0.956 . S
H1351 C1338 0.961 . S
H1352 C1338 0.961 . S
H1353 C1339 0.958 . S
H1354 C1339 0.961 . S
H1355 C1339 0.960 . S
C397 C172 1.414 . S
C405 N13 1.533 . S
C429 C7 1.423 . S
C437 N46 1.535 . S
C461 C40 1.420 . S
C469 N79 1.535 . S
C493 N112 1.528 . S
C501 C73 1.445 . S
C525 N145 1.539 . S
C533 C106 1.455 . S
C557 C139 1.405 . S
C565 N178 1.533 . S
C589 C238 1.459 . S
C597 N211 1.537 . S
C621 C271 1.481 . S
C629 N244 1.539 . S
C653 C304 1.438 . S
C661 N277 1.537 . S
C685 C337 1.423 . S
C693 N310 1.533 . S
C717 C370 1.447 . S
C725 N343 1.535 . S
C749 C205 1.452 . S
C757 N376 1.538 . S
C781 N266 1.263 . S
C789 N2 1.284 . S
C813 N35 1.298 . S
C821 N299 1.255 . S
C845 N68 1.224 . S
C853 N332 1.272 . S
C877 N101 1.269 . S
C885 N365 1.251 . S
C909 N134 1.304 . S
C917 N200 1.264 . S
C941 N233 1.264 . S
C949 N167 1.251 . S
C973 C318 1.174 . S
C981 C21 1.172 . S
C1005 C351 1.153 . S
C1013 C54 1.162 . S
C1037 C87 1.152 . S
C1045 C384 1.163 . S
C1069 C120 1.164 . S
C1077 C219 1.171 . S
C1101 C153 1.152 . S
C1109 C252 1.164 . S
C1133 C285 1.176 . S
C1141 C186 1.170 . S
C1165 C18 1.024 . S
C1173 C216 1.041 . S
C1197 C249 1.060 . S
C1205 C51 1.033 . S
C1229 C84 1.071 . S
C1237 C282 1.024 . S
C1261 C315 1.067 . S
C1269 C117 1.029 . S
C1293 C348 1.017 . S
C1301 C150 1.051 . S
C1325 C381 1.025 . S
C1333 C183 1.040 . S
