# Generated by pormake.
# Topology yfh, (5)-cn, num edge types: 1
# Building blocks:
#     Node 0, Type 0, BuildingBlock: BEQFEK_clean_sbu_0, # of connection points: 5
#     Node 1, Type 0, BuildingBlock: BEQFEK_clean_sbu_0, # of connection points: 5
#     Node 2, Type 0, BuildingBlock: BEQFEK_clean_sbu_0, # of connection points: 5
#     Node 3, Type 0, BuildingBlock: BEQFEK_clean_sbu_0, # of connection points: 5
#     Node 4, Type 0, BuildingBlock: BEQFEK_clean_sbu_0, # of connection points: 5
#     Node 5, Type 0, BuildingBlock: BEQFEK_clean_sbu_0, # of connection points: 5
#     Node 6, Type 0, BuildingBlock: BEQFEK_clean_sbu_0, # of connection points: 5
#     Node 7, Type 0, BuildingBlock: BEQFEK_clean_sbu_0, # of connection points: 5
#     Edge 8, Type (0, 0), BuildingBlock: EZIPEK_clean_linker_0, # of connection points: 2
#     Edge 9, Type (0, 0), BuildingBlock: EZIPEK_clean_linker_0, # of connection points: 2
#     Edge 10, Type (0, 0), BuildingBlock: EZIPEK_clean_linker_0, # of connection points: 2
#     Edge 11, Type (0, 0), BuildingBlock: EZIPEK_clean_linker_0, # of connection points: 2
#     Edge 12, Type (0, 0), BuildingBlock: EZIPEK_clean_linker_0, # of connection points: 2
#     Edge 13, Type (0, 0), BuildingBlock: EZIPEK_clean_linker_0, # of connection points: 2
#     Edge 14, Type (0, 0), BuildingBlock: EZIPEK_clean_linker_0, # of connection points: 2
#     Edge 15, Type (0, 0), BuildingBlock: EZIPEK_clean_linker_0, # of connection points: 2
#     Edge 16, Type (0, 0), BuildingBlock: EZIPEK_clean_linker_0, # of connection points: 2
#     Edge 17, Type (0, 0), BuildingBlock: EZIPEK_clean_linker_0, # of connection points: 2
#     Edge 18, Type (0, 0), BuildingBlock: EZIPEK_clean_linker_0, # of connection points: 2
#     Edge 19, Type (0, 0), BuildingBlock: EZIPEK_clean_linker_0, # of connection points: 2
#     Edge 20, Type (0, 0), BuildingBlock: EZIPEK_clean_linker_0, # of connection points: 2
#     Edge 21, Type (0, 0), BuildingBlock: EZIPEK_clean_linker_0, # of connection points: 2
#     Edge 22, Type (0, 0), BuildingBlock: EZIPEK_clean_linker_0, # of connection points: 2
#     Edge 23, Type (0, 0), BuildingBlock: EZIPEK_clean_linker_0, # of connection points: 2
#     Edge 24, Type (0, 0), BuildingBlock: EZIPEK_clean_linker_0, # of connection points: 2
#     Edge 25, Type (0, 0), BuildingBlock: EZIPEK_clean_linker_0, # of connection points: 2
#     Edge 26, Type (0, 0), BuildingBlock: EZIPEK_clean_linker_0, # of connection points: 2
#     Edge 27, Type (0, 0), BuildingBlock: EZIPEK_clean_linker_0, # of connection points: 2
# Relax obj value: 0.490
# Max RMSD: 0.268
# Mean RMSD: 0.268
data_MOF--net-yfh--node1-BEQFEK_clean_sbu_0--edge1-EZIPEK_clean_linker_0
_symmetry_space_group_name_H-M    P1
_symmetry_Int_Tables_number       1
_symmetry_cell_setting            triclinic
loop_
_symmetry_equiv_pos_as_xyz
'x, y, z'
_cell_length_a     22.055834
_cell_length_b     22.053379
_cell_length_c     45.406369
_cell_angle_alpha  89.66293
_cell_angle_beta   89.841783
_cell_angle_gamma 89.9689
loop_
_atom_site_label
_atom_site_type_symbol
_atom_site_fract_x
_atom_site_fract_y
_atom_site_fract_z
_atom_type_partial_charge
Co0 Co 0.24524 0.9751 0.0541 0.0
Co1 Co 0.37294 0.96129 0.08219 0.0
C2 C 0.29426 0.07423 0.08835 0.0
O3 O 0.24756 0.04993 0.07726 0.0
O4 O 0.34412 0.04542 0.08989 0.0
C5 C 0.11609 0.98849 0.04445 0.0
O6 O 0.11084 0.9892 0.07327 0.0
C7 C 0.43809 0.94542 0.13723 0.0
C8 C 0.53397 0.94184 0.1232 0.0
C9 C 0.49648 0.93843 0.14773 0.0
N10 N 0.44047 0.95117 0.10779 0.0
N11 N 0.49798 0.94985 0.09952 0.0
C12 C 0.38074 0.94539 0.155 0.0
H13 H 0.34029 0.94729 0.14063 0.0
H14 H 0.37904 0.90452 0.16935 0.0
H15 H 0.37999 0.98534 0.16967 0.0
C16 C 0.22679 0.85506 0.08327 0.0
N17 N 0.25903 0.90583 0.07785 0.0
N18 N 0.31381 0.89942 0.08899 0.0
C19 C 0.3185 0.84365 0.10111 0.0
C20 C 0.26338 0.8145 0.09837 0.0
C21 C 0.16443 0.84345 0.07191 0.0
H22 H 0.13181 0.87313 0.08357 0.0
H23 H 0.1508 0.79546 0.07527 0.0
H24 H 0.16293 0.85481 0.04813 0.0
O25 O 0.30753 0.97795 0.02231 0.0
O26 O 0.39826 0.95623 0.04079 0.0
H27 H 0.37658 0.76586 0.10672 0.0
H28 H 0.37994 0.82022 0.13571 0.0
C29 C 0.37631 0.81516 0.11152 0.0
H30 H 0.41599 0.83667 0.10073 0.0
H31 H 0.51262 0.95391 0.07772 0.0
O32 O 0.16712 0.97665 0.03282 0.0
C33 C 0.36408 0.96785 0.01894 0.0
Co34 Co 0.51403 0.73402 0.29868 0.0
Co35 Co 0.52965 0.85762 0.33132 0.0
C36 C 0.4157 0.77906 0.33585 0.0
O37 O 0.43664 0.73551 0.32064 0.0
O38 O 0.44618 0.82711 0.34027 0.0
C39 C 0.50347 0.60629 0.28208 0.0
O40 O 0.476 0.5989 0.30756 0.0
C41 C 0.52858 0.92035 0.38728 0.0
C42 C 0.5924 0.99601 0.37986 0.0
C43 C 0.55917 0.96638 0.40157 0.0
N44 N 0.54482 0.92107 0.35872 0.0
N45 N 0.58171 0.96745 0.35423 0.0
C46 C 0.48741 0.87392 0.4008 0.0
H47 H 0.44158 0.8785 0.39106 0.0
H48 H 0.50473 0.82795 0.39564 0.0
H49 H 0.48345 0.87939 0.425 0.0
C50 C 0.6309 0.70824 0.32849 0.0
N51 N 0.58162 0.74317 0.32378 0.0
N52 N 0.58985 0.7963 0.33622 0.0
C53 C 0.64554 0.7974 0.34841 0.0
C54 C 0.67268 0.74146 0.34439 0.0
C55 C 0.64006 0.64654 0.31579 0.0
H56 H 0.63893 0.64966 0.2914 0.0
H57 H 0.60251 0.61649 0.32301 0.0
H58 H 0.68397 0.62658 0.32278 0.0
O59 O 0.51424 0.80008 0.26886 0.0
O60 O 0.5339 0.88813 0.29037 0.0
H61 H 0.67918 0.88689 0.34087 0.0
H62 H 0.72286 0.84377 0.36735 0.0
C63 C 0.67648 0.85339 0.35915 0.0
H64 H 0.64992 0.87383 0.37705 0.0
H65 H 0.6023 0.97746 0.33405 0.0
O66 O 0.52102 0.65925 0.27508 0.0
C67 C 0.52398 0.85698 0.26735 0.0
Co68 Co 0.74256 0.03181 0.54971 0.0
Co69 Co 0.61975 0.03735 0.58415 0.0
C70 C 0.7105 0.93463 0.59181 0.0
O71 O 0.74914 0.95778 0.57424 0.0
O72 O 0.66004 0.96046 0.59706 0.0
C73 C 0.86153 0.00593 0.52834 0.0
O74 O 0.86758 0.97727 0.55357 0.0
C75 C 0.56057 0.05543 0.64003 0.0
C76 C 0.46327 0.05902 0.62866 0.0
C77 C 0.50346 0.06327 0.652 0.0
N78 N 0.55485 0.04813 0.6109 0.0
N79 N 0.49659 0.04955 0.60417 0.0
C80 C 0.61998 0.05593 0.65595 0.0
H81 H 0.65823 0.06213 0.64034 0.0
H82 H 0.62038 0.09226 0.67277 0.0
H83 H 0.6263 0.0119 0.66747 0.0
C84 C 0.75733 0.15343 0.57634 0.0
N85 N 0.72642 0.10153 0.57227 0.0
N86 N 0.67264 0.10603 0.58473 0.0
C87 C 0.66671 0.16221 0.59598 0.0
C88 C 0.72037 0.19367 0.59146 0.0
C89 C 0.82031 0.16439 0.56531 0.0
H90 H 0.84868 0.12367 0.56949 0.0
H91 H 0.84083 0.20466 0.57593 0.0
H92 H 0.81885 0.17199 0.54114 0.0
O93 O 0.67596 0.0198 0.5212 0.0
O94 O 0.58709 0.02673 0.54424 0.0
H95 H 0.60729 0.23677 0.6062 0.0
H96 H 0.61084 0.17829 0.63369 0.0
C97 C 0.61009 0.18696 0.60962 0.0
H98 H 0.56951 0.16511 0.60003 0.0
H99 H 0.47965 0.04473 0.58287 0.0
O100 O 0.81518 0.03902 0.52411 0.0
C101 C 0.61828 0.01971 0.52094 0.0
Co102 Co 0.4814 0.26029 0.80698 0.0
Co103 Co 0.46249 0.13178 0.83541 0.0
C104 C 0.57387 0.20774 0.84621 0.0
O105 O 0.55475 0.25301 0.83152 0.0
O106 O 0.54346 0.1591 0.84843 0.0
C107 C 0.48773 0.39424 0.79246 0.0
O108 O 0.47496 0.4092 0.81972 0.0
C109 C 0.44335 0.06229 0.88859 0.0
C110 C 0.43239 0.96837 0.87282 0.0
C111 C 0.43309 0.00347 0.89808 0.0
N112 N 0.44707 0.06247 0.85912 0.0
N113 N 0.44117 0.00616 0.84974 0.0
C114 C 0.44975 0.11777 0.90723 0.0
H115 H 0.44326 0.15953 0.89393 0.0
H116 H 0.41684 0.11655 0.92577 0.0
H117 H 0.49609 0.11912 0.91662 0.0
C118 C 0.35789 0.27934 0.83423 0.0
N119 N 0.40874 0.24672 0.82924 0.0
N120 N 0.40102 0.19172 0.84029 0.0
C121 C 0.34486 0.18746 0.85189 0.0
C122 C 0.31635 0.24284 0.84891 0.0
C123 C 0.3473 0.34262 0.82357 0.0
H124 H 0.36809 0.34897 0.80155 0.0
H125 H 0.36857 0.37463 0.83918 0.0
H126 H 0.2981 0.35301 0.82244 0.0
O127 O 0.48529 0.19932 0.77507 0.0
O128 O 0.4647 0.10835 0.79384 0.0
H129 H 0.33376 0.09057 0.85097 0.0
H130 H 0.26632 0.13201 0.86116 0.0
C131 C 0.31642 0.13025 0.86325 0.0
H132 H 0.32726 0.12468 0.88693 0.0
H133 H 0.44319 0.99354 0.82763 0.0
O134 O 0.48798 0.33868 0.78508 0.0
C135 C 0.47652 0.14263 0.77196 0.0
Co136 Co 0.7337 0.5283 0.68001 0.0
Co137 Co 0.85574 0.5366 0.64466 0.0
C138 C 0.76606 0.43415 0.63676 0.0
O139 O 0.72776 0.45645 0.65461 0.0
O140 O 0.81633 0.46021 0.6314 0.0
C141 C 0.60451 0.52503 0.6993 0.0
O142 O 0.58724 0.5367 0.67221 0.0
C143 C 0.91816 0.55533 0.58899 0.0
C144 C 0.01471 0.55546 0.6019 0.0
C145 C 0.97641 0.56088 0.57786 0.0
N146 N 0.92164 0.54815 0.61829 0.0
N147 N 0.97944 0.54765 0.6259 0.0
C148 C 0.85994 0.5568 0.5721 0.0
H149 H 0.82101 0.56576 0.58696 0.0
H150 H 0.86208 0.59168 0.5544 0.0
H151 H 0.85262 0.5121 0.56163 0.0
C152 C 0.71876 0.65369 0.65442 0.0
N153 N 0.74891 0.60085 0.65801 0.0
N154 N 0.80207 0.60508 0.64473 0.0
C155 C 0.80809 0.66141 0.63338 0.0
C156 C 0.75526 0.69359 0.63857 0.0
C157 C 0.65654 0.66596 0.66604 0.0
H158 H 0.62299 0.64329 0.65169 0.0
H159 H 0.64647 0.71526 0.66621 0.0
H160 H 0.65202 0.6471 0.68863 0.0
O161 O 0.80097 0.51521 0.70822 0.0
O162 O 0.88881 0.52414 0.68442 0.0
H163 H 0.86743 0.73559 0.62202 0.0
H164 H 0.86258 0.67687 0.59505 0.0
C165 C 0.86427 0.68576 0.61902 0.0
H166 H 0.90513 0.66387 0.62845 0.0
H167 H 0.99482 0.542 0.64746 0.0
O168 O 0.66057 0.52622 0.70571 0.0
C169 C 0.85865 0.51558 0.70794 0.0
Co170 Co 0.97736 0.23234 0.93262 0.0
Co171 Co 0.96059 0.35425 0.89768 0.0
C172 C 0.07337 0.27415 0.89329 0.0
O173 O 0.05314 0.23187 0.90974 0.0
O174 O 0.04295 0.32207 0.88809 0.0
C175 C 0.99172 0.10752 0.9543 0.0
O176 O 0.01958 0.09686 0.92924 0.0
C177 C 0.95806 0.41495 0.84072 0.0
C178 C 0.89476 0.49093 0.84828 0.0
C179 C 0.92654 0.46078 0.82641 0.0
N180 N 0.94364 0.41637 0.86949 0.0
N181 N 0.90708 0.4629 0.87403 0.0
C182 C -0.00115 0.36848 0.82717 0.0
H183 H 0.04513 0.37351 0.83633 0.0
H184 H 0.98227 0.32247 0.83304 0.0
H185 H 0.00148 0.37352 0.80289 0.0
C186 C 0.85873 0.20587 0.90516 0.0
N187 N 0.90829 0.24081 0.90858 0.0
N188 N 0.89961 0.29327 0.89524 0.0
C189 C 0.84339 0.2939 0.88368 0.0
C190 C 0.81627 0.23844 0.88916 0.0
C191 C 0.85056 0.14462 0.91884 0.0
H192 H 0.85058 0.14906 0.94317 0.0
H193 H 0.88924 0.11515 0.91262 0.0
H194 H 0.80741 0.12335 0.91178 0.0
O195 O 0.98064 0.30044 0.96043 0.0
O196 O 0.96042 0.38774 0.9379 0.0
H197 H 0.81156 0.38465 0.88871 0.0
H198 H 0.76549 0.33929 0.86445 0.0
C199 C 0.81255 0.34904 0.87157 0.0
H200 H 0.83824 0.36674 0.85259 0.0
H201 H 0.88792 0.47349 0.89441 0.0
O202 O 0.97151 0.16054 0.95873 0.0
C203 C 0.97228 0.35752 0.96115 0.0
Co204 Co 0.26161 0.47201 0.18071 0.0
Co205 Co 0.14323 0.45989 0.14362 0.0
C206 C 0.22173 0.57034 0.14014 0.0
O207 O 0.26064 0.54815 0.15774 0.0
O208 O 0.17414 0.54144 0.13314 0.0
C209 C 0.39082 0.47766 0.19362 0.0
O210 O 0.40037 0.46799 0.16547 0.0
C211 C 0.07704 0.4436 0.08868 0.0
C212 C 0.98226 0.43661 0.10431 0.0
C213 C 0.01795 0.43582 0.07915 0.0
N214 N 0.07654 0.44715 0.11817 0.0
N215 N 0.01973 0.44376 0.12738 0.0
C216 C 0.13308 0.44849 0.07011 0.0
H217 H 0.17433 0.4416 0.08362 0.0
H218 H 0.13165 0.4152 0.05188 0.0
H219 H 0.13555 0.49453 0.06024 0.0
C220 C 0.28824 0.35382 0.15324 0.0
N221 N 0.25388 0.4039 0.15591 0.0
N222 N 0.20484 0.39874 0.1398 0.0
C223 C 0.20727 0.3455 0.12549 0.0
C224 C 0.26301 0.317 0.13122 0.0
C225 C 0.32959 0.33535 0.17786 0.0
H226 H 0.3163 0.35933 0.19828 0.0
H227 H 0.37695 0.34851 0.1728 0.0
H228 H 0.32618 0.28614 0.18262 0.0
O229 O 0.19568 0.47361 0.20964 0.0
O230 O 0.11056 0.46179 0.18425 0.0
H231 H 0.1549 0.26608 0.11408 0.0
H232 H 0.1485 0.32855 0.08866 0.0
C233 C 0.15233 0.31621 0.11223 0.0
H234 H 0.11072 0.33185 0.12365 0.0
H235 H 0.00651 0.44631 0.14943 0.0
O236 O 0.33726 0.4754 0.20386 0.0
C237 C 0.13844 0.46815 0.20848 0.0
Co238 Co 0.01064 0.75638 0.42414 0.0
Co239 Co 0.02976 0.63035 0.39429 0.0
C240 C 0.91618 0.70678 0.38631 0.0
O241 O 0.93639 0.75166 0.40058 0.0
O242 O 0.94656 0.65816 0.38356 0.0
C243 C 0.98682 0.88274 0.43521 0.0
O244 O 0.98022 0.88813 0.40657 0.0
C245 C 0.03145 0.56237 0.33989 0.0
C246 C 0.0996 0.49121 0.34858 0.0
C247 C 0.06521 0.51745 0.32637 0.0
N248 N 0.04737 0.56474 0.36842 0.0
N249 N 0.08656 0.52069 0.37375 0.0
C250 C 0.98768 0.60517 0.32554 0.0
H251 H 0.94209 0.59861 0.3354 0.0
H252 H 0.00206 0.65253 0.32973 0.0
H253 H 0.98427 0.59745 0.30148 0.0
C254 C 0.13019 0.78133 0.39583 0.0
N255 N 0.08101 0.74635 0.40079 0.0
N256 N 0.09015 0.69234 0.38931 0.0
C257 C 0.14631 0.69092 0.37747 0.0
C258 C 0.17286 0.74734 0.38064 0.0
C259 C 0.13782 0.84417 0.40736 0.0
H260 H 0.12812 0.8445 0.43135 0.0
H261 H 0.10454 0.87456 0.39647 0.0
H262 H 0.18433 0.86153 0.40322 0.0
O263 O 0.0082 0.6928 0.45513 0.0
O264 O 0.02955 0.60294 0.43571 0.0
H265 H 0.18072 0.60227 0.38638 0.0
H266 H 0.2246 0.6441 0.35945 0.0
C267 C 0.17809 0.6346 0.36762 0.0
H268 H 0.15231 0.61291 0.3499 0.0
H269 H 0.10743 0.51336 0.39407 0.0
O270 O 0.00612 0.83325 0.44606 0.0
C271 C 0.01718 0.63597 0.45784 0.0
C272 C 0.03627 0.06558 0.03001 0.0
C273 C 0.06606 0.0093 0.02499 0.0
C274 C 0.02132 0.00507 0.97553 0.0
C275 C 0.99818 0.06437 0.97977 0.0
N276 N 0.95098 0.12824 0.01622 0.0
N277 N 0.06944 0.91634 -0.00256 0.0
C278 C 0.99456 0.08712 0.00879 0.0
C279 C 0.05275 0.97588 -0.0009 0.0
N280 N 0.05082 0.10137 0.05342 0.0
N281 N 0.01273 0.97702 0.94917 0.0
H282 H 0.08999 0.89375 0.015 0.0
H283 H 0.05837 0.88799 0.98004 0.0
H284 H 0.98263 0.9941 0.93347 0.0
H285 H 0.03448 0.93718 0.94298 0.0
H286 H 0.03407 0.14533 0.05571 0.0
H287 H 0.08374 0.09044 0.06891 0.0
H288 H 0.94477 0.14346 0.03772 0.0
H289 H 0.91582 0.13965 0.00188 0.0
C290 C 0.44551 0.46894 0.24162 0.0
C291 C 0.44017 0.49734 0.21355 0.0
C292 C 0.51254 0.57431 0.22924 0.0
C293 C 0.50076 0.55817 0.25889 0.0
N294 N 0.47835 0.47694 0.29267 0.0
N295 N 0.47075 0.57884 0.18041 0.0
C296 C 0.47452 0.50076 0.26493 0.0
C297 C 0.47559 0.54957 0.2069 0.0
N298 N 0.4231 0.41171 0.24557 0.0
N299 N 0.55958 0.61208 0.22246 0.0
H300 H 0.44343 0.56413 0.16326 0.0
H301 H 0.49066 0.62094 0.17633 0.0
H302 H 0.59062 0.62597 0.23836 0.0
H303 H 0.57244 0.62215 0.20087 0.0
H304 H 0.42658 0.38688 0.26502 0.0
H305 H 0.40449 0.38709 0.22826 0.0
H306 H 0.45508 0.43857 0.29983 0.0
H307 H 0.50724 0.49529 0.30845 0.0
C308 C 0.98658 0.96255 0.47444 0.0
C309 C 0.95394 0.92385 0.45531 0.0
C310 C 0.86091 0.94058 0.48368 0.0
C311 C 0.89291 0.98112 0.50223 0.0
N312 N 0.98273 0.03851 0.51307 0.0
N313 N 0.85796 0.88509 0.43795 0.0
C314 C 0.95481 0.9946 0.49689 0.0
C315 C 0.89033 0.91634 0.45857 0.0
N316 N 0.0481 0.96728 0.47152 0.0
N317 N 0.80369 0.92172 0.49117 0.0
H318 H 0.87763 0.86342 0.41999 0.0
H319 H 0.81076 0.88473 0.43725 0.0
H320 H 0.78034 0.93696 0.50968 0.0
H321 H 0.7811 0.88661 0.4806 0.0
H322 H 0.07576 0.98909 0.48667 0.0
H323 H 0.07199 0.94675 0.45439 0.0
H324 H 0.02615 0.05467 0.50863 0.0
H325 H 0.96051 0.06212 0.52978 0.0
C326 C 0.56971 0.52316 0.75174 0.0
C327 C 0.56105 0.50351 0.72235 0.0
C328 C 0.48426 0.43218 0.74053 0.0
C329 C 0.50506 0.44042 0.76978 0.0
N330 N 0.57469 0.4919 0.80262 0.0
N331 N 0.51335 0.43127 0.68942 0.0
C332 C 0.54889 0.48623 0.77546 0.0
C333 C 0.51834 0.45661 0.7167 0.0
N334 N 0.59836 0.57688 0.75699 0.0
N335 N 0.43216 0.40051 0.7355 0.0
H336 H 0.53913 0.44425 0.67127 0.0
H337 H 0.48747 0.3926 0.68553 0.0
H338 H 0.40516 0.38372 0.7526 0.0
H339 H 0.41246 0.39733 0.71471 0.0
H340 H 0.6015 0.59573 0.77793 0.0
H341 H 0.61259 0.60562 0.73998 0.0
H342 H 0.6115 0.52032 0.80655 0.0
H343 H 0.56389 0.4646 0.82062 0.0
C344 C 0.36482 0.95562 0.93626 0.0
C345 C 0.42076 0.98349 0.92875 0.0
C346 C 0.44326 0.99789 0.98094 0.0
C347 C 0.38864 0.96728 0.98848 0.0
N348 N 0.31066 0.8974 0.97304 0.0
N349 N 0.52164 0.01086 0.94403 0.0
C350 C 0.35371 0.93967 0.96603 0.0
C351 C 0.46289 0.99779 0.95116 0.0
N352 N 0.32057 0.94765 0.91564 0.0
N353 N 0.47437 0.03061 0.0014 0.0
H354 H 0.53762 0.00951 0.92238 0.0
H355 H 0.55535 0.01668 0.95981 0.0
H356 H 0.46032 0.03531 0.02317 0.0
H357 H 0.511 0.05834 -0.0041 0.0
H358 H 0.27693 0.93319 0.92108 0.0
H359 H 0.32504 0.96107 0.89373 0.0
H360 H 0.28748 0.8726 0.95717 0.0
H361 H 0.30359 0.88197 -0.00545 0.0
C362 C 0.5566 0.8533 0.21473 0.0
C363 C 0.52672 0.88532 0.23761 0.0
C364 C 0.49695 0.96269 0.20158 0.0
C365 C 0.51403 0.92331 0.17843 0.0
N366 N 0.55302 0.82538 0.16355 0.0
N367 N 0.46108 0.96853 0.25175 0.0
C368 C 0.54257 0.86723 0.18505 0.0
C369 C 0.49551 0.9401 0.23093 0.0
N370 N 0.59912 0.81025 0.2213 0.0
N371 N 0.48251 0.02168 0.19556 0.0
H372 H 0.45584 0.9524 0.2732 0.0
H373 H 0.43281 0.00507 0.24682 0.0
H374 H 0.48429 0.03971 0.17426 0.0
H375 H 0.47476 0.05368 0.21195 0.0
H376 H 0.62549 0.78914 0.20526 0.0
H377 H 0.61308 0.80114 0.24283 0.0
H378 H 0.56792 0.78147 0.16815 0.0
H379 H 0.54122 0.83196 0.14157 0.0
C380 C 0.54964 0.03608 0.44485 0.0
C381 C 0.56382 0.97762 0.43374 0.0
C382 C 0.591 0.94418 0.48348 0.0
C383 C 0.58823 0.00479 0.49304 0.0
N384 N 0.56631 0.10992 0.48347 0.0
N385 N 0.60727 0.87783 0.44247 0.0
C386 C 0.56727 0.05124 0.47401 0.0
C387 C 0.58631 0.93176 0.45308 0.0
N388 N 0.5184 0.0765 0.42774 0.0
N389 N 0.59824 0.89844 0.5036 0.0
H390 H 0.60609 0.86616 0.4204 0.0
H391 H 0.63083 0.84651 0.45536 0.0
H392 H 0.60023 0.90658 0.52619 0.0
H393 H 0.59526 0.85267 0.4982 0.0
H394 H 0.50216 0.11778 0.4355 0.0
H395 H 0.50363 0.06623 0.40653 0.0
H396 H 0.55833 0.14681 0.46959 0.0
H397 H 0.57674 0.12184 0.50509 0.0
C398 C 0.50988 0.06367 0.73517 0.0
C399 C 0.47727 0.11749 0.74177 0.0
C400 C 0.46094 0.13574 0.68925 0.0
C401 C 0.48917 0.07954 0.68282 0.0
N402 N 0.5239 0.98214 0.70038 0.0
N403 N 0.40471 0.19271 0.72539 0.0
C404 C 0.50821 0.04084 0.70605 0.0
C405 C 0.44736 0.14979 0.7189 0.0
N406 N 0.5455 0.03629 0.75593 0.0
N407 N 0.45006 0.17738 0.66748 0.0
H408 H 0.39068 0.20189 0.74687 0.0
H409 H 0.37823 0.21376 0.70933 0.0
H410 H 0.46172 0.17062 0.6455 0.0
H411 H 0.43521 0.22132 0.67183 0.0
H412 H 0.57454 0.0004 0.75108 0.0
H413 H 0.55115 0.05312 0.77714 0.0
H414 H 0.53303 0.95058 0.71696 0.0
H415 H 0.52165 0.96362 0.67931 0.0
C416 C 0.8966 0.42637 0.7754 0.0
C417 C 0.92013 0.47208 0.79425 0.0
C418 C 0.91246 0.54652 0.75405 0.0
C419 C 0.89027 0.5003 0.7355 0.0
N420 N 0.88092 0.39405 0.72516 0.0
N421 N 0.96537 0.57109 0.79919 0.0
C422 C 0.88914 0.43942 0.74511 0.0
C423 C 0.93287 0.53084 0.7828 0.0
N424 N 0.87719 0.37199 0.78645 0.0
N425 N 0.91197 0.60544 0.7446 0.0
H426 H 0.9823 0.56036 0.82002 0.0
H427 H 0.98057 0.61266 0.79107 0.0
H428 H 0.89936 0.61785 0.72326 0.0
H429 H 0.92084 0.64204 0.75831 0.0
H430 H 0.85312 0.34061 0.77403 0.0
H431 H 0.88016 0.35996 0.8085 0.0
H432 H 0.885 0.34821 0.73051 0.0
H433 H 0.87702 0.40265 0.70262 0.0
C434 C 0.00787 0.43998 -0.0041 0.0
C435 C 0.97347 0.38677 -0.00956 0.0
C436 C 0.96607 0.36695 0.04324 0.0
C437 C 0.99758 0.4217 0.04889 0.0
N438 N 0.02956 0.51967 0.03078 0.0
N439 N 0.90073 0.31442 0.00937 0.0
C440 C 0.0123 0.46141 0.02525 0.0
C441 C 0.94605 0.35531 0.01432 0.0
N442 N 0.03951 0.46798 0.97379 0.0
N443 N 0.95871 0.32389 0.06473 0.0
H444 H 0.8829 0.3069 0.98843 0.0
H445 H 0.87635 0.29373 0.02637 0.0
H446 H 0.97626 0.32794 0.08589 0.0
H447 H 0.94107 0.28098 0.06047 0.0
H448 H 0.07009 0.50305 0.97764 0.0
H449 H 0.03971 0.45303 0.9521 0.0
H450 H 0.03591 0.55189 0.01417 0.0
H451 H 0.03123 0.53718 0.05207 0.0
C452 C 0.10021 0.54103 0.24478 0.0
C453 C 0.10419 0.48025 0.2356 0.0
C454 C 0.06533 0.44631 0.28339 0.0
C455 C 0.07301 0.50608 0.29434 0.0
N456 N 0.10831 0.60916 0.28555 0.0
N457 N 0.09192 0.37373 0.24541 0.0
C458 C 0.09248 0.55349 0.27502 0.0
C459 C 0.0865 0.43235 0.25458 0.0
N460 N 0.1048 0.58696 0.22455 0.0
N461 N 0.03696 0.40339 0.30031 0.0
H462 H 0.10497 0.36263 0.22399 0.0
H463 H 0.08649 0.33645 0.25935 0.0
H464 H 0.01968 0.41265 0.32122 0.0
H465 H 0.02548 0.36055 0.29259 0.0
H466 H 0.09662 0.63226 0.22964 0.0
H467 H 0.11027 0.57892 0.20206 0.0
H468 H 0.12968 0.64215 0.2727 0.0
H469 H 0.10556 0.62107 0.30755 0.0
C470 C 0.0441 0.64092 0.51104 0.0
C471 C 0.01476 0.60956 0.48791 0.0
C472 C 0.97562 0.53641 0.52395 0.0
C473 C 0.99411 0.57513 0.54707 0.0
N474 N 0.03779 0.67092 0.56191 0.0
N475 N 0.94443 0.53114 0.4731 0.0
C476 C 0.02664 0.62905 0.54052 0.0
C477 C 0.97874 0.55777 0.49442 0.0
N478 N 0.08938 0.68138 0.50489 0.0
N479 N 0.95608 0.47896 0.53011 0.0
H480 H 0.94297 0.54653 0.45138 0.0
H481 H 0.91279 0.49727 0.47769 0.0
H482 H 0.95498 0.46136 0.55149 0.0
H483 H 0.9471 0.44713 0.51382 0.0
H484 H 0.11557 0.70154 0.5212 0.0
H485 H 0.10537 0.6892 0.48354 0.0
H486 H 0.05601 0.71355 0.55732 0.0
H487 H 0.02316 0.66607 0.58362 0.0
C488 C 0.24171 0.64317 0.09859 0.0
C489 C 0.23022 0.63291 0.129 0.0
C490 C 0.23233 0.74243 0.13818 0.0
C491 C 0.24871 0.75219 0.10834 0.0
N492 N 0.27473 0.71353 0.06044 0.0
N493 N 0.218 0.67113 0.17843 0.0
C494 C 0.25455 0.70304 0.08853 0.0
C495 C 0.22657 0.68213 0.14901 0.0
N496 N 0.24042 0.59564 0.07937 0.0
N497 N 0.22066 0.79109 0.1559 0.0
H498 H 0.20937 0.62813 0.18711 0.0
H499 H 0.22253 0.70396 0.19464 0.0
H500 H 0.22515 0.83593 0.14878 0.0
H501 H 0.20219 0.7876 0.17695 0.0
H502 H 0.24107 0.60075 0.05658 0.0
H503 H 0.23531 0.55066 0.08612 0.0
H504 H 0.28678 0.67939 0.04583 0.0
H505 H 0.28316 0.75692 0.05213 0.0
C506 C 0.84516 0.73476 0.34554 0.0
C507 C 0.85433 0.70996 0.37407 0.0
C508 C 0.74498 0.6936 0.37989 0.0
C509 C 0.73536 0.72432 0.3528 0.0
N510 N 0.77413 0.77491 0.30954 0.0
N511 N 0.81472 0.66839 0.4194 0.0
C512 C 0.78495 0.7446 0.33536 0.0
C513 C 0.80472 0.68954 0.39144 0.0
N514 N 0.89416 0.74831 0.32819 0.0
N515 N 0.69687 0.66801 0.39441 0.0
H516 H 0.858 0.66302 0.42828 0.0
H517 H 0.78038 0.65942 0.43456 0.0
H518 H 0.65239 0.67117 0.38681 0.0
H519 H 0.70113 0.63975 0.41272 0.0
H520 H 0.89121 0.76055 0.30609 0.0
H521 H 0.93876 0.74376 0.33547 0.0
H522 H 0.80736 0.79738 0.29739 0.0
H523 H 0.7308 0.77988 0.30068 0.0
C524 C 0.73724 0.30533 0.58283 0.0
C525 C 0.73538 0.25512 0.60256 0.0
C526 C 0.75724 0.32205 0.64419 0.0
C527 C 0.75516 0.37278 0.62478 0.0
N528 N 0.73858 0.415 0.57648 0.0
N529 N 0.74002 0.21457 0.65198 0.0
C530 C 0.74442 0.36502 0.59425 0.0
C531 C 0.74439 0.26322 0.63324 0.0
N532 N 0.73203 0.29579 0.55321 0.0
N533 N 0.7741 0.32992 0.67291 0.0
H534 H 0.73613 0.16994 0.64478 0.0
H535 H 0.73729 0.21827 0.67478 0.0
H536 H 0.78237 0.37231 0.68206 0.0
H537 H 0.78402 0.2945 0.68735 0.0
H538 H 0.73956 0.32901 0.53727 0.0
H539 H 0.72323 0.25332 0.54423 0.0
H540 H 0.72489 0.41353 0.5546 0.0
H541 H 0.74373 0.45918 0.58418 0.0
C542 C 0.24527 0.27386 0.88912 0.0
C543 C 0.25436 0.25793 0.85921 0.0
C544 C 0.14453 0.25145 0.85169 0.0
C545 C 0.13548 0.26942 0.88131 0.0
N546 N 0.17533 0.30796 0.92691 0.0
N547 N 0.21454 0.24039 0.81067 0.0
C548 C 0.18536 0.28366 0.89966 0.0
C549 C 0.20445 0.24971 0.84002 0.0
N550 N 0.29392 0.27792 0.90763 0.0
N551 N 0.09598 0.23371 0.83516 0.0
H552 H 0.25792 0.23738 0.80158 0.0
H553 H 0.18036 0.24015 0.79491 0.0
H554 H 0.05155 0.23451 0.84308 0.0
H555 H 0.09975 0.21414 0.81444 0.0
H556 H 0.29005 0.28169 0.9304 0.0
H557 H 0.3387 0.27405 0.90042 0.0
H558 H 0.20952 0.32552 0.94011 0.0
H559 H 0.13202 0.3149 0.93556 0.0
C560 C 0.74097 0.80583 0.64639 0.0
C561 C 0.74034 0.75526 0.62713 0.0
C562 C 0.71813 0.82229 0.58509 0.0
C563 C 0.72168 0.87315 0.60407 0.0
N564 N 0.7409 0.91566 0.65182 0.0
N565 N 0.73159 0.71406 0.57823 0.0
C566 C 0.73384 0.86552 0.63455 0.0
C567 C 0.72977 0.7632 0.5965 0.0
N568 N 0.74853 0.79657 0.67597 0.0
N569 N 0.70129 0.83044 0.55634 0.0
H570 H 0.73451 0.66948 0.58588 0.0
H571 H 0.73287 0.71707 0.55537 0.0
H572 H 0.6945 0.87302 0.54685 0.0
H573 H 0.69047 0.79531 0.54211 0.0
H574 H 0.74337 0.8301 0.69178 0.0
H575 H 0.75708 0.75398 0.68515 0.0
H576 H 0.75521 0.91442 0.67361 0.0
H577 H 0.73586 0.95979 0.64379 0.0
C578 C 0.68523 0.19041 0.84128 0.0
C579 C 0.63542 0.20949 0.85878 0.0
C580 C 0.70412 0.23946 0.89839 0.0
C581 C 0.75391 0.22074 0.8808 0.0
N582 N 0.79282 0.16746 0.83867 0.0
N583 N 0.59488 0.24065 0.9056 0.0
C584 C 0.74466 0.19252 0.85324 0.0
C585 C 0.64408 0.23034 0.88793 0.0
N586 N 0.67576 0.17218 0.81291 0.0
N587 N 0.71452 0.26781 0.9246 0.0
H588 H 0.55035 0.23542 0.89832 0.0
H589 H 0.59785 0.25012 0.92797 0.0
H590 H 0.75779 0.27247 0.93353 0.0
H591 H 0.68092 0.2892 0.93687 0.0
H592 H 0.71045 0.16442 0.79781 0.0
H593 H 0.63268 0.16808 0.8037 0.0
H594 H 0.78869 0.14101 0.81989 0.0
H595 H 0.83702 0.16891 0.84676 0.0
C596 C 0.2664 0.24576 0.08729 0.0
C597 C 0.28642 0.26053 0.11601 0.0
C598 C 0.32185 0.15766 0.12353 0.0
C599 C 0.29243 0.13902 0.0973 0.0
N600 N 0.24617 0.16833 0.05089 0.0
N601 N 0.38094 0.24106 0.14012 0.0
C602 C 0.26757 0.18403 0.07802 0.0
C603 C 0.32779 0.22008 0.12914 0.0
N604 N 0.25392 0.29171 0.06792 0.0
N605 N 0.3441 0.11672 0.14335 0.0
H606 H 0.39432 0.28571 0.13611 0.0
H607 H 0.41486 0.21218 0.14795 0.0
H608 H 0.33737 0.07018 0.14144 0.0
H609 H 0.36377 0.1304 0.16312 0.0
H610 H 0.24354 0.28549 0.04581 0.0
H611 H 0.26033 0.33712 0.07349 0.0
H612 H 0.21942 0.19673 0.03795 0.0
H613 H 0.25464 0.1265 0.04118 0.0
C614 C 0.30356 0.79341 0.33095 0.0
C615 C 0.35373 0.77466 0.34827 0.0
C616 C 0.28541 0.74555 0.38873 0.0
C617 C 0.23529 0.76435 0.37139 0.0
N618 N 0.19564 0.81536 0.32858 0.0
N619 N 0.39482 0.74 0.39449 0.0
C620 C 0.24416 0.79134 0.34328 0.0
C621 C 0.34533 0.75306 0.37751 0.0
N622 N 0.31273 0.81145 0.30239 0.0
N623 N 0.27527 0.71857 0.41549 0.0
H624 H 0.43908 0.74151 0.38637 0.0
H625 H 0.39274 0.73061 0.41694 0.0
H626 H 0.23226 0.71549 0.42501 0.0
H627 H 0.30865 0.69709 0.42788 0.0
H628 H 0.27797 0.8193 0.28741 0.0
H629 H 0.35573 0.81522 0.29292 0.0
H630 H 0.19921 0.84086 0.30931 0.0
H631 H 0.15152 0.81381 0.33688 0.0
loop_
_geom_bond_atom_site_label_1
_geom_bond_atom_site_label_2
_geom_bond_distance
_geom_bond_site_symmetry_2
_ccdc_geom_bond_type
Co0 O3 1.970 . S
Co0 N17 1.988 . S
Co0 O25 1.967 . S
Co0 O32 1.920 . S
Co1 O4 1.966 . S
Co1 N10 2.022 . S
Co1 N18 1.993 1_545 S
Co1 O26 1.941 . S
C2 O3 1.258 . S
C2 O4 1.263 . S
O3 Co0 1.970 . S
O3 C2 1.258 . S
O4 Co1 1.966 . S
O4 C2 1.263 . S
C5 O6 1.235 . S
C5 O32 1.289 . S
O6 C5 1.235 . S
C7 C9 1.400 1_545 S
C7 N10 1.351 . S
C7 C12 1.501 . S
C8 C9 1.387 . S
C8 N11 1.341 . S
C9 C7 1.400 1_565 S
C9 C8 1.387 . S
N10 Co1 2.022 . S
N10 C7 1.351 . S
N10 N11 1.365 1_545 S
N11 C8 1.341 . S
N11 N10 1.365 1_565 S
N11 H31 0.862 . S
C12 C7 1.501 . S
C12 H13 0.961 . S
C12 H14 0.961 . S
C12 H15 0.960 . S
H13 C12 0.961 . S
H14 C12 0.961 . S
H15 C12 0.960 . S
C16 N17 1.343 1_565 S
C16 C20 1.401 . S
C16 C21 1.499 . S
N17 Co0 1.988 . S
N17 C16 1.343 1_545 S
N17 N18 1.388 1_545 S
N18 Co1 1.993 1_565 S
N18 N17 1.388 1_565 S
N18 C19 1.346 . S
C19 N18 1.346 . S
C19 C20 1.396 . S
C19 C29 1.510 . S
C20 C16 1.401 . S
C20 C19 1.396 . S
C21 C16 1.499 . S
C21 H22 0.959 . S
C21 H23 0.960 . S
C21 H24 0.961 . S
H22 C21 0.959 . S
H23 C21 0.960 . S
H24 C21 0.961 . S
O25 Co0 1.967 . S
O25 C33 1.258 . S
O26 Co1 1.941 . S
O26 C33 1.266 . S
H27 C29 0.959 . S
H28 C29 0.961 . S
C29 C19 1.510 . S
C29 H27 0.959 . S
C29 H28 0.961 . S
C29 H30 0.960 . S
H30 C29 0.960 . S
H31 N11 0.862 . S
O32 Co0 1.920 . S
O32 C5 1.289 . S
C33 O25 1.258 . S
C33 O26 1.266 . S
Co34 O37 1.970 . S
Co34 N51 1.989 . S
Co34 O59 1.967 . S
Co34 O66 1.920 . S
Co35 O38 1.966 . S
Co35 N44 2.022 . S
Co35 N52 1.993 . S
Co35 O60 1.941 . S
C36 O37 1.258 . S
C36 O38 1.263 . S
O37 Co34 1.970 . S
O37 C36 1.258 . S
O38 Co35 1.966 . S
O38 C36 1.263 . S
C39 O40 1.235 . S
C39 O66 1.289 . S
O40 C39 1.235 . S
C41 C43 1.400 . S
C41 N44 1.351 . S
C41 C46 1.501 . S
C42 C43 1.387 . S
C42 N45 1.341 . S
C43 C41 1.400 . S
C43 C42 1.387 . S
N44 Co35 2.022 . S
N44 C41 1.351 . S
N44 N45 1.365 . S
N45 C42 1.341 . S
N45 N44 1.365 . S
N45 H65 0.862 . S
C46 C41 1.501 . S
C46 H47 0.961 . S
C46 H48 0.961 . S
C46 H49 0.960 . S
H47 C46 0.961 . S
H48 C46 0.961 . S
H49 C46 0.960 . S
C50 N51 1.342 . S
C50 C54 1.401 . S
C50 C55 1.499 . S
N51 Co34 1.989 . S
N51 C50 1.342 . S
N51 N52 1.388 . S
N52 Co35 1.993 . S
N52 N51 1.388 . S
N52 C53 1.346 . S
C53 N52 1.346 . S
C53 C54 1.396 . S
C53 C63 1.510 . S
C54 C50 1.401 . S
C54 C53 1.396 . S
C55 C50 1.499 . S
C55 H56 0.959 . S
C55 H57 0.960 . S
C55 H58 0.961 . S
H56 C55 0.959 . S
H57 C55 0.960 . S
H58 C55 0.961 . S
O59 Co34 1.967 . S
O59 C67 1.258 . S
O60 Co35 1.941 . S
O60 C67 1.266 . S
H61 C63 0.959 . S
H62 C63 0.961 . S
C63 C53 1.510 . S
C63 H61 0.959 . S
C63 H62 0.961 . S
C63 H64 0.960 . S
H64 C63 0.960 . S
H65 N45 0.862 . S
O66 Co34 1.920 . S
O66 C39 1.289 . S
C67 O59 1.258 . S
C67 O60 1.266 . S
Co68 O71 1.970 . S
Co68 N85 1.989 . S
Co68 O93 1.967 . S
Co68 O100 1.920 . S
Co69 O72 1.966 . S
Co69 N78 2.022 . S
Co69 N86 1.993 1_565 S
Co69 O94 1.941 . S
C70 O71 1.258 . S
C70 O72 1.263 . S
O71 Co68 1.970 . S
O71 C70 1.258 . S
O72 Co69 1.966 . S
O72 C70 1.263 . S
C73 O74 1.235 . S
C73 O100 1.289 . S
O74 C73 1.235 . S
C75 C77 1.400 1_565 S
C75 N78 1.351 . S
C75 C80 1.501 . S
C76 C77 1.387 . S
C76 N79 1.341 . S
C77 C75 1.400 1_545 S
C77 C76 1.387 . S
N78 Co69 2.022 . S
N78 C75 1.351 . S
N78 N79 1.365 1_565 S
N79 C76 1.341 . S
N79 N78 1.365 1_545 S
N79 H99 0.862 . S
C80 C75 1.501 . S
C80 H81 0.961 . S
C80 H82 0.961 . S
C80 H83 0.960 . S
H81 C80 0.961 . S
H82 C80 0.961 . S
H83 C80 0.960 . S
C84 N85 1.342 1_545 S
C84 C88 1.401 . S
C84 C89 1.499 . S
N85 Co68 1.989 . S
N85 C84 1.342 1_565 S
N85 N86 1.388 1_565 S
N86 Co69 1.993 1_545 S
N86 N85 1.388 1_545 S
N86 C87 1.346 . S
C87 N86 1.346 . S
C87 C88 1.396 . S
C87 C97 1.510 . S
C88 C84 1.401 . S
C88 C87 1.396 . S
C89 C84 1.499 . S
C89 H90 0.959 . S
C89 H91 0.960 . S
C89 H92 0.961 . S
H90 C89 0.959 . S
H91 C89 0.960 . S
H92 C89 0.961 . S
O93 Co68 1.967 . S
O93 C101 1.258 . S
O94 Co69 1.941 . S
O94 C101 1.266 . S
H95 C97 0.959 . S
H96 C97 0.961 . S
C97 C87 1.510 . S
C97 H95 0.959 . S
C97 H96 0.961 . S
C97 H98 0.960 . S
H98 C97 0.960 . S
H99 N79 0.862 . S
O100 Co68 1.920 . S
O100 C73 1.289 . S
C101 O93 1.258 . S
C101 O94 1.266 . S
Co102 O105 1.970 . S
Co102 N119 1.989 . S
Co102 O127 1.967 . S
Co102 O134 1.920 . S
Co103 O106 1.966 . S
Co103 N112 2.022 . S
Co103 N120 1.993 . S
Co103 O128 1.941 . S
C104 O105 1.258 . S
C104 O106 1.263 . S
O105 Co102 1.970 . S
O105 C104 1.258 . S
O106 Co103 1.966 . S
O106 C104 1.263 . S
C107 O108 1.235 . S
C107 O134 1.289 . S
O108 C107 1.235 . S
C109 C111 1.400 . S
C109 N112 1.351 . S
C109 C114 1.501 . S
C110 C111 1.387 . S
C110 N113 1.341 . S
C111 C109 1.400 . S
C111 C110 1.387 . S
N112 Co103 2.022 . S
N112 C109 1.351 . S
N112 N113 1.365 . S
N113 C110 1.341 . S
N113 N112 1.365 . S
N113 H133 0.862 . S
C114 C109 1.501 . S
C114 H115 0.961 . S
C114 H116 0.961 . S
C114 H117 0.960 . S
H115 C114 0.961 . S
H116 C114 0.961 . S
H117 C114 0.960 . S
C118 N119 1.342 . S
C118 C122 1.401 . S
C118 C123 1.499 . S
N119 Co102 1.989 . S
N119 C118 1.342 . S
N119 N120 1.388 . S
N120 Co103 1.993 . S
N120 N119 1.388 . S
N120 C121 1.346 . S
C121 N120 1.346 . S
C121 C122 1.396 . S
C121 C131 1.510 . S
C122 C118 1.401 . S
C122 C121 1.396 . S
C123 C118 1.499 . S
C123 H124 0.959 . S
C123 H125 0.960 . S
C123 H126 0.961 . S
H124 C123 0.959 . S
H125 C123 0.960 . S
H126 C123 0.961 . S
O127 Co102 1.967 . S
O127 C135 1.258 . S
O128 Co103 1.941 . S
O128 C135 1.266 . S
H129 C131 0.959 . S
H130 C131 0.961 . S
C131 C121 1.510 . S
C131 H129 0.959 . S
C131 H130 0.961 . S
C131 H132 0.960 . S
H132 C131 0.960 . S
H133 N113 0.862 . S
O134 Co102 1.920 . S
O134 C107 1.289 . S
C135 O127 1.258 . S
C135 O128 1.266 . S
Co136 O139 1.970 . S
Co136 N153 1.989 . S
Co136 O161 1.967 . S
Co136 O168 1.920 . S
Co137 O140 1.966 . S
Co137 N146 2.022 . S
Co137 N154 1.993 . S
Co137 O162 1.941 . S
C138 O139 1.258 . S
C138 O140 1.263 . S
O139 Co136 1.970 . S
O139 C138 1.258 . S
O140 Co137 1.966 . S
O140 C138 1.263 . S
C141 O142 1.235 . S
C141 O168 1.289 . S
O142 C141 1.235 . S
C143 C145 1.400 . S
C143 N146 1.351 . S
C143 C148 1.501 . S
C144 C145 1.387 . S
C144 N147 1.341 . S
C145 C143 1.400 . S
C145 C144 1.387 . S
N146 Co137 2.022 . S
N146 C143 1.351 . S
N146 N147 1.365 . S
N147 C144 1.341 . S
N147 N146 1.365 . S
N147 H167 0.862 . S
C148 C143 1.501 . S
C148 H149 0.961 . S
C148 H150 0.961 . S
C148 H151 0.960 . S
H149 C148 0.961 . S
H150 C148 0.961 . S
H151 C148 0.960 . S
C152 N153 1.342 . S
C152 C156 1.401 . S
C152 C157 1.499 . S
N153 Co136 1.989 . S
N153 C152 1.342 . S
N153 N154 1.388 . S
N154 Co137 1.993 . S
N154 N153 1.388 . S
N154 C155 1.346 . S
C155 N154 1.346 . S
C155 C156 1.396 . S
C155 C165 1.510 . S
C156 C152 1.401 . S
C156 C155 1.396 . S
C157 C152 1.499 . S
C157 H158 0.959 . S
C157 H159 0.960 . S
C157 H160 0.961 . S
H158 C157 0.959 . S
H159 C157 0.960 . S
H160 C157 0.961 . S
O161 Co136 1.967 . S
O161 C169 1.258 . S
O162 Co137 1.941 . S
O162 C169 1.266 . S
H163 C165 0.959 . S
H164 C165 0.961 . S
C165 C155 1.510 . S
C165 H163 0.959 . S
C165 H164 0.961 . S
C165 H166 0.960 . S
H166 C165 0.960 . S
H167 N147 0.862 . S
O168 Co136 1.920 . S
O168 C141 1.289 . S
C169 O161 1.258 . S
C169 O162 1.266 . S
Co170 O173 1.970 . S
Co170 N187 1.988 . S
Co170 O195 1.967 . S
Co170 O202 1.920 . S
Co171 O174 1.966 . S
Co171 N180 2.022 . S
Co171 N188 1.993 1_455 S
Co171 O196 1.941 . S
C172 O173 1.258 . S
C172 O174 1.263 . S
O173 Co170 1.970 . S
O173 C172 1.258 . S
O174 Co171 1.966 . S
O174 C172 1.263 . S
C175 O176 1.235 . S
C175 O202 1.289 . S
O176 C175 1.235 . S
C177 C179 1.400 1_455 S
C177 N180 1.351 . S
C177 C182 1.501 . S
C178 C179 1.387 . S
C178 N181 1.341 . S
C179 C177 1.400 1_655 S
C179 C178 1.387 . S
N180 Co171 2.022 . S
N180 C177 1.351 . S
N180 N181 1.365 1_455 S
N181 C178 1.341 . S
N181 N180 1.365 1_655 S
N181 H201 0.862 . S
C182 C177 1.501 . S
C182 H183 0.961 . S
C182 H184 0.961 . S
C182 H185 0.960 . S
H183 C182 0.961 . S
H184 C182 0.961 . S
H185 C182 0.960 . S
C186 N187 1.343 1_655 S
C186 C190 1.401 . S
C186 C191 1.499 . S
N187 Co170 1.988 . S
N187 C186 1.343 1_455 S
N187 N188 1.388 1_455 S
N188 Co171 1.993 1_655 S
N188 N187 1.388 1_655 S
N188 C189 1.346 . S
C189 N188 1.346 . S
C189 C190 1.396 . S
C189 C199 1.510 . S
C190 C186 1.401 . S
C190 C189 1.396 . S
C191 C186 1.499 . S
C191 H192 0.959 . S
C191 H193 0.960 . S
C191 H194 0.961 . S
H192 C191 0.959 . S
H193 C191 0.960 . S
H194 C191 0.961 . S
O195 Co170 1.967 . S
O195 C203 1.258 . S
O196 Co171 1.941 . S
O196 C203 1.266 . S
H197 C199 0.959 . S
H198 C199 0.961 . S
C199 C189 1.510 . S
C199 H197 0.959 . S
C199 H198 0.961 . S
C199 H200 0.960 . S
H200 C199 0.960 . S
H201 N181 0.862 . S
O202 Co170 1.920 . S
O202 C175 1.289 . S
C203 O195 1.258 . S
C203 O196 1.266 . S
Co204 O207 1.970 . S
Co204 N221 1.989 . S
Co204 O229 1.967 . S
Co204 O236 1.920 . S
Co205 O208 1.966 . S
Co205 N214 2.022 . S
Co205 N222 1.993 . S
Co205 O230 1.941 . S
C206 O207 1.258 . S
C206 O208 1.263 . S
O207 Co204 1.970 . S
O207 C206 1.258 . S
O208 Co205 1.966 . S
O208 C206 1.263 . S
C209 O210 1.235 . S
C209 O236 1.289 . S
O210 C209 1.235 . S
C211 C213 1.400 . S
C211 N214 1.351 . S
C211 C216 1.501 . S
C212 C213 1.387 . S
C212 N215 1.341 . S
C213 C211 1.400 . S
C213 C212 1.387 . S
N214 Co205 2.022 . S
N214 C211 1.351 . S
N214 N215 1.365 . S
N215 C212 1.341 . S
N215 N214 1.365 . S
N215 H235 0.862 . S
C216 C211 1.501 . S
C216 H217 0.961 . S
C216 H218 0.961 . S
C216 H219 0.960 . S
H217 C216 0.961 . S
H218 C216 0.961 . S
H219 C216 0.960 . S
C220 N221 1.342 . S
C220 C224 1.401 . S
C220 C225 1.499 . S
N221 Co204 1.989 . S
N221 C220 1.342 . S
N221 N222 1.388 . S
N222 Co205 1.993 . S
N222 N221 1.388 . S
N222 C223 1.346 . S
C223 N222 1.346 . S
C223 C224 1.396 . S
C223 C233 1.510 . S
C224 C220 1.401 . S
C224 C223 1.396 . S
C225 C220 1.499 . S
C225 H226 0.959 . S
C225 H227 0.960 . S
C225 H228 0.961 . S
H226 C225 0.959 . S
H227 C225 0.960 . S
H228 C225 0.961 . S
O229 Co204 1.967 . S
O229 C237 1.258 . S
O230 Co205 1.941 . S
O230 C237 1.266 . S
H231 C233 0.959 . S
H232 C233 0.961 . S
C233 C223 1.510 . S
C233 H231 0.959 . S
C233 H232 0.961 . S
C233 H234 0.960 . S
H234 C233 0.960 . S
H235 N215 0.862 . S
O236 Co204 1.920 . S
O236 C209 1.289 . S
C237 O229 1.258 . S
C237 O230 1.266 . S
Co238 O241 1.970 . S
Co238 N255 1.989 . S
Co238 O263 1.967 . S
Co238 O270 1.920 . S
Co239 O242 1.966 . S
Co239 N248 2.022 . S
Co239 N256 1.993 1_655 S
Co239 O264 1.941 . S
C240 O241 1.258 . S
C240 O242 1.263 . S
O241 Co238 1.970 . S
O241 C240 1.258 . S
O242 Co239 1.966 . S
O242 C240 1.263 . S
C243 O244 1.235 . S
C243 O270 1.289 . S
O244 C243 1.235 . S
C245 C247 1.400 1_655 S
C245 N248 1.351 . S
C245 C250 1.501 . S
C246 C247 1.387 . S
C246 N249 1.341 . S
C247 C245 1.400 1_455 S
C247 C246 1.387 . S
N248 Co239 2.022 . S
N248 C245 1.351 . S
N248 N249 1.365 1_655 S
N249 C246 1.341 . S
N249 N248 1.365 1_455 S
N249 H269 0.862 . S
C250 C245 1.501 . S
C250 H251 0.961 . S
C250 H252 0.961 . S
C250 H253 0.960 . S
H251 C250 0.961 . S
H252 C250 0.961 . S
H253 C250 0.960 . S
C254 N255 1.342 1_455 S
C254 C258 1.401 . S
C254 C259 1.499 . S
N255 Co238 1.989 . S
N255 C254 1.342 1_655 S
N255 N256 1.388 1_655 S
N256 Co239 1.993 1_455 S
N256 N255 1.388 1_455 S
N256 C257 1.346 . S
C257 N256 1.346 . S
C257 C258 1.396 . S
C257 C267 1.510 . S
C258 C254 1.401 . S
C258 C257 1.396 . S
C259 C254 1.499 . S
C259 H260 0.959 . S
C259 H261 0.960 . S
C259 H262 0.961 . S
H260 C259 0.959 . S
H261 C259 0.960 . S
H262 C259 0.961 . S
O263 Co238 1.967 . S
O263 C271 1.258 . S
O264 Co239 1.941 . S
O264 C271 1.266 . S
H265 C267 0.959 . S
H266 C267 0.961 . S
C267 C257 1.510 . S
C267 H265 0.959 . S
C267 H266 0.961 . S
C267 H268 0.960 . S
H268 C267 0.960 . S
H269 N249 0.862 . S
O270 Co238 1.920 . S
O270 C243 1.289 . S
C271 O263 1.258 . S
C271 O264 1.266 . S
C272 C273 1.363 . S
C272 C278 1.376 1_554 S
C272 N280 1.356 . S
C273 C272 1.363 . S
C273 C279 1.366 . S
C274 C275 1.363 . S
C274 C279 1.376 1_556 S
C274 N281 1.356 . S
C275 C274 1.363 . S
C275 C278 1.366 . S
N276 C278 1.357 . S
N276 H288 0.984 1_556 S
N276 H289 0.985 . S
N277 C279 1.357 . S
N277 H282 0.984 . S
N277 H283 0.985 1_544 S
C278 C272 1.376 1_556 S
C278 C275 1.366 . S
C278 N276 1.357 . S
C279 C273 1.366 . S
C279 C274 1.376 1_554 S
C279 N277 1.357 . S
N280 C272 1.356 . S
N280 H286 0.984 . S
N280 H287 0.984 . S
N281 C274 1.356 . S
N281 H284 0.984 . S
N281 H285 0.985 . S
H282 N277 0.984 . S
H283 N277 0.985 1_566 S
H284 N281 0.984 . S
H285 N281 0.985 . S
H286 N280 0.984 . S
H287 N280 0.984 . S
H288 N276 0.984 1_554 S
H289 N276 0.985 . S
C290 C291 1.363 . S
C290 C296 1.379 . S
C290 N298 1.356 . S
C291 C290 1.363 . S
C291 C297 1.363 . S
C292 C293 1.363 . S
C292 C297 1.379 . S
C292 N299 1.356 . S
C293 C292 1.363 . S
C293 C296 1.363 . S
N294 C296 1.356 . S
N294 H306 0.984 . S
N294 H307 0.985 . S
N295 C297 1.356 . S
N295 H300 0.984 . S
N295 H301 0.985 . S
C296 C290 1.379 . S
C296 C293 1.363 . S
C296 N294 1.356 . S
C297 C291 1.363 . S
C297 C292 1.379 . S
C297 N295 1.356 . S
N298 C290 1.356 . S
N298 H304 0.984 . S
N298 H305 0.984 . S
N299 C292 1.356 . S
N299 H302 0.984 . S
N299 H303 0.985 . S
H300 N295 0.984 . S
H301 N295 0.985 . S
H302 N299 0.984 . S
H303 N299 0.985 . S
H304 N298 0.984 . S
H305 N298 0.984 . S
H306 N294 0.984 . S
H307 N294 0.985 . S
C308 C309 1.363 . S
C308 C314 1.379 . S
C308 N316 1.356 . S
C309 C308 1.363 . S
C309 C315 1.363 . S
C310 C311 1.363 . S
C310 C315 1.379 . S
C310 N317 1.356 . S
C311 C310 1.363 . S
C311 C314 1.363 . S
N312 C314 1.356 . S
N312 H324 0.984 . S
N312 H325 0.985 . S
N313 C315 1.356 . S
N313 H318 0.984 . S
N313 H319 0.985 . S
C314 C308 1.379 . S
C314 C311 1.363 . S
C314 N312 1.356 . S
C315 C309 1.363 . S
C315 C310 1.379 . S
C315 N313 1.356 . S
N316 C308 1.356 . S
N316 H322 0.984 . S
N316 H323 0.984 . S
N317 C310 1.356 . S
N317 H320 0.984 . S
N317 H321 0.985 . S
H318 N313 0.984 . S
H319 N313 0.985 . S
H320 N317 0.984 . S
H321 N317 0.985 . S
H322 N316 0.984 . S
H323 N316 0.984 . S
H324 N312 0.984 . S
H325 N312 0.985 . S
C326 C327 1.363 . S
C326 C332 1.379 . S
C326 N334 1.356 . S
C327 C326 1.363 . S
C327 C333 1.363 . S
C328 C329 1.363 . S
C328 C333 1.379 . S
C328 N335 1.356 . S
C329 C328 1.363 . S
C329 C332 1.363 . S
N330 C332 1.356 . S
N330 H342 0.984 . S
N330 H343 0.985 . S
N331 C333 1.356 . S
N331 H336 0.984 . S
N331 H337 0.985 . S
C332 C326 1.379 . S
C332 C329 1.363 . S
C332 N330 1.356 . S
C333 C327 1.363 . S
C333 C328 1.379 . S
C333 N331 1.356 . S
N334 C326 1.356 . S
N334 H340 0.984 . S
N334 H341 0.984 . S
N335 C328 1.356 . S
N335 H338 0.984 . S
N335 H339 0.985 . S
H336 N331 0.984 . S
H337 N331 0.985 . S
H338 N335 0.984 . S
H339 N335 0.985 . S
H340 N334 0.984 . S
H341 N334 0.984 . S
H342 N330 0.984 . S
H343 N330 0.985 . S
C344 C345 1.363 1_554 S
C344 C350 1.379 . S
C344 N352 1.354 1_544 S
C345 C344 1.363 1_556 S
C345 C351 1.363 1_556 S
C346 C347 1.363 . S
C346 C351 1.379 . S
C346 N353 1.356 . S
C347 C346 1.363 . S
C347 C350 1.363 . S
N348 C350 1.356 . S
N348 H360 0.984 . S
N348 H361 0.985 . S
N349 C351 1.356 1_556 S
N349 H354 0.984 . S
N349 H355 0.985 . S
C350 C344 1.379 . S
C350 C347 1.363 . S
C350 N348 1.356 . S
C351 C345 1.363 1_554 S
C351 C346 1.379 . S
C351 N349 1.356 1_554 S
N352 C344 1.354 1_566 S
N352 H358 0.987 . S
N352 H359 0.984 . S
N353 C346 1.356 . S
N353 H356 0.984 . S
N353 H357 0.985 . S
H354 N349 0.984 . S
H355 N349 0.985 . S
H356 N353 0.984 . S
H357 N353 0.985 . S
H358 N352 0.987 . S
H359 N352 0.984 . S
H360 N348 0.984 . S
H361 N348 0.985 . S
C362 C363 1.363 . S
C362 C368 1.379 . S
C362 N370 1.356 . S
C363 C362 1.363 . S
C363 C369 1.363 1_565 S
C364 C365 1.363 1_545 S
C364 C369 1.379 . S
C364 N371 1.356 . S
C365 C364 1.363 1_565 S
C365 C368 1.363 . S
N366 C368 1.356 . S
N366 H378 0.984 . S
N366 H379 0.985 . S
N367 C369 1.356 . S
N367 H372 0.984 . S
N367 H373 0.985 . S
C368 C362 1.379 . S
C368 C365 1.363 . S
C368 N366 1.356 . S
C369 C363 1.363 1_545 S
C369 C364 1.379 . S
C369 N367 1.356 . S
N370 C362 1.356 . S
N370 H376 0.984 . S
N370 H377 0.984 . S
N371 C364 1.356 . S
N371 H374 0.984 . S
N371 H375 0.985 . S
H372 N367 0.984 . S
H373 N367 0.985 . S
H374 N371 0.984 . S
H375 N371 0.985 . S
H376 N370 0.984 . S
H377 N370 0.984 . S
H378 N366 0.984 . S
H379 N366 0.985 . S
C380 C381 1.363 . S
C380 C386 1.379 . S
C380 N388 1.356 1_565 S
C381 C380 1.363 . S
C381 C387 1.363 . S
C382 C383 1.363 . S
C382 C387 1.379 . S
C382 N389 1.356 . S
C383 C382 1.363 . S
C383 C386 1.363 . S
N384 C386 1.353 1_545 S
N384 H396 0.991 . S
N384 H397 0.982 1_545 S
N385 C387 1.356 . S
N385 H390 0.984 . S
N385 H391 0.985 . S
C386 C380 1.379 . S
C386 C383 1.363 . S
C386 N384 1.353 1_565 S
C387 C381 1.363 . S
C387 C382 1.379 . S
C387 N385 1.356 . S
N388 C380 1.356 1_545 S
N388 H394 0.984 . S
N388 H395 0.984 . S
N389 C382 1.356 . S
N389 H392 0.984 . S
N389 H393 0.985 . S
H390 N385 0.984 . S
H391 N385 0.985 . S
H392 N389 0.984 . S
H393 N389 0.985 . S
H394 N388 0.984 . S
H395 N388 0.984 . S
H396 N384 0.991 . S
H397 N384 0.982 1_565 S
C398 C399 1.363 1_565 S
C398 C404 1.379 . S
C398 N406 1.356 . S
C399 C398 1.363 1_545 S
C399 C405 1.363 . S
C400 C401 1.363 . S
C400 C405 1.379 . S
C400 N407 1.356 . S
C401 C400 1.363 . S
C401 C404 1.363 1_545 S
N402 C404 1.356 . S
N402 H414 0.984 . S
N402 H415 0.985 . S
N403 C405 1.356 . S
N403 H408 0.984 . S
N403 H409 0.985 . S
C404 C398 1.379 . S
C404 C401 1.363 1_565 S
C404 N402 1.356 . S
C405 C399 1.363 . S
C405 C400 1.379 . S
C405 N403 1.356 . S
N406 C398 1.356 . S
N406 H412 0.984 . S
N406 H413 0.984 . S
N407 C400 1.356 . S
N407 H410 0.984 . S
N407 H411 0.985 . S
H408 N403 0.984 . S
H409 N403 0.985 . S
H410 N407 0.984 . S
H411 N407 0.985 . S
H412 N406 0.984 . S
H413 N406 0.984 . S
H414 N402 0.984 . S
H415 N402 0.985 . S
C416 C417 1.363 . S
C416 C422 1.379 . S
C416 N424 1.356 1_655 S
C417 C416 1.363 . S
C417 C423 1.363 . S
C418 C419 1.363 . S
C418 C423 1.379 . S
C418 N425 1.356 . S
C419 C418 1.363 . S
C419 C422 1.363 . S
N420 C422 1.356 . S
N420 H432 0.984 1_655 S
N420 H433 0.985 . S
N421 C423 1.356 . S
N421 H426 0.984 . S
N421 H427 0.985 . S
C422 C416 1.379 . S
C422 C419 1.363 . S
C422 N420 1.356 . S
C423 C417 1.363 . S
C423 C418 1.379 . S
C423 N421 1.356 . S
N424 C416 1.356 1_455 S
N424 H430 0.984 . S
N424 H431 0.984 . S
N425 C418 1.356 . S
N425 H428 0.984 . S
N425 H429 0.985 . S
H426 N421 0.984 . S
H427 N421 0.985 . S
H428 N425 0.984 . S
H429 N425 0.985 . S
H430 N424 0.984 . S
H431 N424 0.984 . S
H432 N420 0.984 1_455 S
H433 N420 0.985 . S
C434 C435 1.363 . S
C434 C440 1.379 . S
C434 N442 1.356 . S
C435 C434 1.363 . S
C435 C441 1.363 . S
C436 C437 1.363 1_556 S
C436 C441 1.379 . S
C436 N443 1.356 1_556 S
C437 C436 1.363 1_554 S
C437 C440 1.363 1_554 S
N438 C440 1.356 1_554 S
N438 H450 0.988 . S
N438 H451 0.985 . S
N439 C441 1.356 . S
N439 H444 0.984 . S
N439 H445 0.985 . S
C440 C434 1.379 . S
C440 C437 1.363 1_556 S
C440 N438 1.356 1_556 S
C441 C435 1.363 . S
C441 C436 1.379 . S
C441 N439 1.356 . S
N442 C434 1.356 . S
N442 H448 0.984 . S
N442 H449 0.984 . S
N443 C436 1.356 1_554 S
N443 H446 0.984 . S
N443 H447 0.985 1_455 S
H444 N439 0.984 . S
H445 N439 0.985 . S
H446 N443 0.984 . S
H447 N443 0.985 1_655 S
H448 N442 0.984 . S
H449 N442 0.984 . S
H450 N438 0.988 . S
H451 N438 0.985 . S
C452 C453 1.363 . S
C452 C458 1.379 . S
C452 N460 1.356 . S
C453 C452 1.363 . S
C453 C459 1.363 . S
C454 C455 1.363 1_655 S
C454 C459 1.379 1_655 S
C454 N461 1.356 . S
C455 C454 1.363 1_455 S
C455 C458 1.363 . S
N456 C458 1.356 . S
N456 H468 0.984 . S
N456 H469 0.985 . S
N457 C459 1.358 . S
N457 H462 0.991 . S
N457 H463 0.977 1_455 S
C458 C452 1.379 . S
C458 C455 1.363 . S
C458 N456 1.356 . S
C459 C453 1.363 . S
C459 C454 1.379 1_455 S
C459 N457 1.358 . S
N460 C452 1.356 . S
N460 H466 0.984 . S
N460 H467 0.984 . S
N461 C454 1.356 . S
N461 H464 0.984 . S
N461 H465 0.985 . S
H462 N457 0.991 . S
H463 N457 0.977 1_655 S
H464 N461 0.984 . S
H465 N461 0.985 . S
H466 N460 0.984 . S
H467 N460 0.984 . S
H468 N456 0.984 . S
H469 N456 0.985 . S
C470 C471 1.363 . S
C470 C476 1.379 . S
C470 N478 1.356 . S
C471 C470 1.363 . S
C471 C477 1.363 . S
C472 C473 1.363 . S
C472 C477 1.379 . S
C472 N479 1.356 . S
C473 C472 1.363 . S
C473 C476 1.363 . S
N474 C476 1.356 . S
N474 H486 0.984 1_655 S
N474 H487 0.985 . S
N475 C477 1.356 . S
N475 H480 0.984 . S
N475 H481 0.985 . S
C476 C470 1.379 . S
C476 C473 1.363 . S
C476 N474 1.356 . S
C477 C471 1.363 . S
C477 C472 1.379 . S
C477 N475 1.356 . S
N478 C470 1.356 . S
N478 H484 0.984 . S
N478 H485 0.984 . S
N479 C472 1.356 . S
N479 H482 0.984 . S
N479 H483 0.985 . S
H480 N475 0.984 . S
H481 N475 0.985 . S
H482 N479 0.984 . S
H483 N479 0.985 . S
H484 N478 0.984 . S
H485 N478 0.984 . S
H486 N474 0.984 1_455 S
H487 N474 0.985 . S
C488 C489 1.363 . S
C488 C494 1.379 . S
C488 N496 1.356 . S
C489 C488 1.363 . S
C489 C495 1.363 . S
C490 C491 1.363 . S
C490 C495 1.379 . S
C490 N497 1.356 . S
C491 C490 1.363 . S
C491 C494 1.363 . S
N492 C494 1.356 . S
N492 H504 0.984 . S
N492 H505 0.985 . S
N493 C495 1.356 . S
N493 H498 0.984 . S
N493 H499 0.985 . S
C494 C488 1.379 . S
C494 C491 1.363 . S
C494 N492 1.356 . S
C495 C489 1.363 . S
C495 C490 1.379 . S
C495 N493 1.356 . S
N496 C488 1.356 . S
N496 H502 0.984 . S
N496 H503 0.984 . S
N497 C490 1.356 . S
N497 H500 0.984 . S
N497 H501 0.985 . S
H498 N493 0.984 . S
H499 N493 0.985 . S
H500 N497 0.984 . S
H501 N497 0.985 . S
H502 N496 0.984 . S
H503 N496 0.984 . S
H504 N492 0.984 . S
H505 N492 0.985 . S
C506 C507 1.363 . S
C506 C512 1.379 . S
C506 N514 1.356 . S
C507 C506 1.363 . S
C507 C513 1.363 . S
C508 C509 1.363 . S
C508 C513 1.379 . S
C508 N515 1.356 . S
C509 C508 1.363 . S
C509 C512 1.363 . S
N510 C512 1.356 . S
N510 H522 0.984 . S
N510 H523 0.985 . S
N511 C513 1.356 . S
N511 H516 0.984 . S
N511 H517 0.985 . S
C512 C506 1.379 . S
C512 C509 1.363 . S
C512 N510 1.356 . S
C513 C507 1.363 . S
C513 C508 1.379 . S
C513 N511 1.356 . S
N514 C506 1.356 . S
N514 H520 0.984 . S
N514 H521 0.984 . S
N515 C508 1.356 . S
N515 H518 0.984 . S
N515 H519 0.985 . S
H516 N511 0.984 . S
H517 N511 0.985 . S
H518 N515 0.984 . S
H519 N515 0.985 . S
H520 N514 0.984 . S
H521 N514 0.984 . S
H522 N510 0.984 . S
H523 N510 0.985 . S
C524 C525 1.363 . S
C524 C530 1.379 . S
C524 N532 1.356 . S
C525 C524 1.363 . S
C525 C531 1.363 . S
C526 C527 1.363 . S
C526 C531 1.379 . S
C526 N533 1.356 . S
C527 C526 1.363 . S
C527 C530 1.363 . S
N528 C530 1.356 . S
N528 H540 0.984 . S
N528 H541 0.985 . S
N529 C531 1.356 . S
N529 H534 0.984 . S
N529 H535 0.985 . S
C530 C524 1.379 . S
C530 C527 1.363 . S
C530 N528 1.356 . S
C531 C525 1.363 . S
C531 C526 1.379 . S
C531 N529 1.356 . S
N532 C524 1.356 . S
N532 H538 0.984 . S
N532 H539 0.984 . S
N533 C526 1.356 . S
N533 H536 0.984 . S
N533 H537 0.985 . S
H534 N529 0.984 . S
H535 N529 0.985 . S
H536 N533 0.984 . S
H537 N533 0.985 . S
H538 N532 0.984 . S
H539 N532 0.984 . S
H540 N528 0.984 . S
H541 N528 0.985 . S
C542 C543 1.363 . S
C542 C548 1.379 . S
C542 N550 1.356 . S
C543 C542 1.363 . S
C543 C549 1.363 . S
C544 C545 1.363 . S
C544 C549 1.379 . S
C544 N551 1.356 . S
C545 C544 1.363 . S
C545 C548 1.363 . S
N546 C548 1.356 . S
N546 H558 0.984 . S
N546 H559 0.985 . S
N547 C549 1.356 . S
N547 H552 0.984 . S
N547 H553 0.985 . S
C548 C542 1.379 . S
C548 C545 1.363 . S
C548 N546 1.356 . S
C549 C543 1.363 . S
C549 C544 1.379 . S
C549 N547 1.356 . S
N550 C542 1.356 . S
N550 H556 0.984 . S
N550 H557 0.984 . S
N551 C544 1.356 . S
N551 H554 0.984 . S
N551 H555 0.985 . S
H552 N547 0.984 . S
H553 N547 0.985 . S
H554 N551 0.984 . S
H555 N551 0.985 . S
H556 N550 0.984 . S
H557 N550 0.984 . S
H558 N546 0.984 . S
H559 N546 0.985 . S
C560 C561 1.363 . S
C560 C566 1.379 . S
C560 N568 1.356 . S
C561 C560 1.363 . S
C561 C567 1.363 . S
C562 C563 1.363 . S
C562 C567 1.379 . S
C562 N569 1.356 . S
C563 C562 1.363 . S
C563 C566 1.363 . S
N564 C566 1.356 . S
N564 H576 0.984 . S
N564 H577 0.985 . S
N565 C567 1.356 . S
N565 H570 0.984 . S
N565 H571 0.985 . S
C566 C560 1.379 . S
C566 C563 1.363 . S
C566 N564 1.356 . S
C567 C561 1.363 . S
C567 C562 1.379 . S
C567 N565 1.356 . S
N568 C560 1.356 . S
N568 H574 0.984 . S
N568 H575 0.984 . S
N569 C562 1.356 . S
N569 H572 0.984 . S
N569 H573 0.985 . S
H570 N565 0.984 . S
H571 N565 0.985 . S
H572 N569 0.984 . S
H573 N569 0.985 . S
H574 N568 0.984 . S
H575 N568 0.984 . S
H576 N564 0.984 . S
H577 N564 0.985 . S
C578 C579 1.363 . S
C578 C584 1.379 . S
C578 N586 1.356 . S
C579 C578 1.363 . S
C579 C585 1.363 . S
C580 C581 1.363 . S
C580 C585 1.379 . S
C580 N587 1.356 . S
C581 C580 1.363 . S
C581 C584 1.363 . S
N582 C584 1.356 . S
N582 H594 0.984 . S
N582 H595 0.985 . S
N583 C585 1.356 . S
N583 H588 0.984 . S
N583 H589 0.985 . S
C584 C578 1.379 . S
C584 C581 1.363 . S
C584 N582 1.356 . S
C585 C579 1.363 . S
C585 C580 1.379 . S
C585 N583 1.356 . S
N586 C578 1.356 . S
N586 H592 0.984 . S
N586 H593 0.984 . S
N587 C580 1.356 . S
N587 H590 0.984 . S
N587 H591 0.985 . S
H588 N583 0.984 . S
H589 N583 0.985 . S
H590 N587 0.984 . S
H591 N587 0.985 . S
H592 N586 0.984 . S
H593 N586 0.984 . S
H594 N582 0.984 . S
H595 N582 0.985 . S
C596 C597 1.363 . S
C596 C602 1.379 . S
C596 N604 1.356 . S
C597 C596 1.363 . S
C597 C603 1.363 . S
C598 C599 1.363 . S
C598 C603 1.379 . S
C598 N605 1.356 . S
C599 C598 1.363 . S
C599 C602 1.363 . S
N600 C602 1.356 . S
N600 H612 0.984 . S
N600 H613 0.985 . S
N601 C603 1.356 . S
N601 H606 0.984 . S
N601 H607 0.985 . S
C602 C596 1.379 . S
C602 C599 1.363 . S
C602 N600 1.356 . S
C603 C597 1.363 . S
C603 C598 1.379 . S
C603 N601 1.356 . S
N604 C596 1.356 . S
N604 H610 0.984 . S
N604 H611 0.984 . S
N605 C598 1.356 . S
N605 H608 0.984 . S
N605 H609 0.985 . S
H606 N601 0.984 . S
H607 N601 0.985 . S
H608 N605 0.984 . S
H609 N605 0.985 . S
H610 N604 0.984 . S
H611 N604 0.984 . S
H612 N600 0.984 . S
H613 N600 0.985 . S
C614 C615 1.363 . S
C614 C620 1.379 . S
C614 N622 1.356 . S
C615 C614 1.363 . S
C615 C621 1.363 . S
C616 C617 1.363 . S
C616 C621 1.379 . S
C616 N623 1.356 . S
C617 C616 1.363 . S
C617 C620 1.363 . S
N618 C620 1.356 . S
N618 H630 0.984 . S
N618 H631 0.985 . S
N619 C621 1.356 . S
N619 H624 0.984 . S
N619 H625 0.985 . S
C620 C614 1.379 . S
C620 C617 1.363 . S
C620 N618 1.356 . S
C621 C615 1.363 . S
C621 C616 1.379 . S
C621 N619 1.356 . S
N622 C614 1.356 . S
N622 H628 0.984 . S
N622 H629 0.984 . S
N623 C616 1.356 . S
N623 H626 0.984 . S
N623 H627 0.985 . S
H624 N619 0.984 . S
H625 N619 0.985 . S
H626 N623 0.984 . S
H627 N623 0.985 . S
H628 N622 0.984 . S
H629 N622 0.984 . S
H630 N618 0.984 . S
H631 N618 0.985 . S
C273 C5 0.923 . S
C275 C175 0.923 . S
C291 C209 0.923 . S
C293 C39 0.923 . S
C309 C243 0.923 . S
C311 C73 0.923 . S
C327 C141 0.923 . S
C329 C107 0.923 . S
C345 C111 1.210 . S
C347 C33 1.160 . S
C363 C67 1.160 . S
C365 C9 1.210 . S
C381 C43 1.210 . S
C383 C101 1.160 . S
C399 C135 1.160 . S
C401 C77 1.210 . S
C417 C179 1.210 . S
C419 C169 1.160 . S
C435 C203 1.160 . S
C437 C213 1.210 . S
C453 C237 1.160 . S
C455 C247 1.210 . S
C471 C271 1.160 . S
C473 C145 1.210 . S
C489 C206 1.351 . S
C491 C20 1.384 . S
C507 C240 1.351 . S
C509 C54 1.384 . S
C525 C88 1.384 . S
C527 C138 1.351 . S
C543 C122 1.384 . S
C545 C172 1.351 . S
C561 C156 1.384 . S
C563 C70 1.351 . S
C579 C104 1.351 . S
C581 C190 1.384 . S
C597 C224 1.384 . S
C599 C2 1.351 . S
C615 C36 1.351 . S
C617 C258 1.384 . S
