# Generated by pormake.
# Topology snz, (6)-cn, num edge types: 1
# Building blocks:
#     Node 0, Type 0, BuildingBlock: KUMJIN_clean_sbu_1, # of connection points: 6
#     Node 1, Type 0, BuildingBlock: KUMJIN_clean_sbu_1, # of connection points: 6
#     Node 2, Type 0, BuildingBlock: KUMJIN_clean_sbu_1, # of connection points: 6
#     Node 3, Type 0, BuildingBlock: KUMJIN_clean_sbu_1, # of connection points: 6
#     Node 4, Type 0, BuildingBlock: KUMJIN_clean_sbu_1, # of connection points: 6
#     Node 5, Type 0, BuildingBlock: KUMJIN_clean_sbu_1, # of connection points: 6
#     Node 6, Type 0, BuildingBlock: KUMJIN_clean_sbu_1, # of connection points: 6
#     Node 7, Type 0, BuildingBlock: KUMJIN_clean_sbu_1, # of connection points: 6
#     Node 8, Type 0, BuildingBlock: KUMJIN_clean_sbu_1, # of connection points: 6
#     Edge 9, Type (0, 0), BuildingBlock: ZUJKAS_clean_linker_0, # of connection points: 2
#     Edge 10, Type (0, 0), BuildingBlock: ZUJKAS_clean_linker_0, # of connection points: 2
#     Edge 11, Type (0, 0), BuildingBlock: ZUJKAS_clean_linker_0, # of connection points: 2
#     Edge 12, Type (0, 0), BuildingBlock: ZUJKAS_clean_linker_0, # of connection points: 2
#     Edge 13, Type (0, 0), BuildingBlock: ZUJKAS_clean_linker_0, # of connection points: 2
#     Edge 14, Type (0, 0), BuildingBlock: ZUJKAS_clean_linker_0, # of connection points: 2
#     Edge 15, Type (0, 0), BuildingBlock: ZUJKAS_clean_linker_0, # of connection points: 2
#     Edge 16, Type (0, 0), BuildingBlock: ZUJKAS_clean_linker_0, # of connection points: 2
#     Edge 17, Type (0, 0), BuildingBlock: ZUJKAS_clean_linker_0, # of connection points: 2
#     Edge 18, Type (0, 0), BuildingBlock: ZUJKAS_clean_linker_0, # of connection points: 2
#     Edge 19, Type (0, 0), BuildingBlock: ZUJKAS_clean_linker_0, # of connection points: 2
#     Edge 20, Type (0, 0), BuildingBlock: ZUJKAS_clean_linker_0, # of connection points: 2
#     Edge 21, Type (0, 0), BuildingBlock: ZUJKAS_clean_linker_0, # of connection points: 2
#     Edge 22, Type (0, 0), BuildingBlock: ZUJKAS_clean_linker_0, # of connection points: 2
#     Edge 23, Type (0, 0), BuildingBlock: ZUJKAS_clean_linker_0, # of connection points: 2
#     Edge 24, Type (0, 0), BuildingBlock: ZUJKAS_clean_linker_0, # of connection points: 2
#     Edge 25, Type (0, 0), BuildingBlock: ZUJKAS_clean_linker_0, # of connection points: 2
#     Edge 26, Type (0, 0), BuildingBlock: ZUJKAS_clean_linker_0, # of connection points: 2
#     Edge 27, Type (0, 0), BuildingBlock: ZUJKAS_clean_linker_0, # of connection points: 2
#     Edge 28, Type (0, 0), BuildingBlock: ZUJKAS_clean_linker_0, # of connection points: 2
#     Edge 29, Type (0, 0), BuildingBlock: ZUJKAS_clean_linker_0, # of connection points: 2
#     Edge 30, Type (0, 0), BuildingBlock: ZUJKAS_clean_linker_0, # of connection points: 2
#     Edge 31, Type (0, 0), BuildingBlock: ZUJKAS_clean_linker_0, # of connection points: 2
#     Edge 32, Type (0, 0), BuildingBlock: ZUJKAS_clean_linker_0, # of connection points: 2
#     Edge 33, Type (0, 0), BuildingBlock: ZUJKAS_clean_linker_0, # of connection points: 2
#     Edge 34, Type (0, 0), BuildingBlock: ZUJKAS_clean_linker_0, # of connection points: 2
#     Edge 35, Type (0, 0), BuildingBlock: ZUJKAS_clean_linker_0, # of connection points: 2
# Relax obj value: 0.171
# Max RMSD: 0.155
# Mean RMSD: 0.106
data_MOF--net-snz--node1-KUMJIN_clean_sbu_1--edge1-ZUJKAS_clean_linker_0
_symmetry_space_group_name_H-M    P1
_symmetry_Int_Tables_number       1
_symmetry_cell_setting            triclinic
loop_
_symmetry_equiv_pos_as_xyz
'x, y, z'
_cell_length_a     80.510361
_cell_length_b     67.908442
_cell_length_c     21.128249
_cell_angle_alpha  96.022025
_cell_angle_beta   96.07575
_cell_angle_gamma 120.59743
loop_
_atom_site_label
_atom_site_type_symbol
_atom_site_fract_x
_atom_site_fract_y
_atom_site_fract_z
_atom_type_partial_charge
Eu0 Eu 0.01125 0.49452 0.19539 0.0
C1 C 0.10068 0.5324 0.1915 0.0
N2 N 0.08459 0.51213 0.15863 0.0
C3 C 0.10025 0.51482 0.06666 0.0
C4 C 0.11697 0.54513 0.16191 0.0
C5 C 0.08458 0.50264 0.09826 0.0
C6 C 0.11637 0.53635 0.09819 0.0
C7 C 0.1186 0.55964 0.29309 0.0
C8 C 0.1015 0.5396 0.25644 0.0
C9 C 0.13444 0.57292 0.26286 0.0
C10 C 0.13361 0.56571 0.19743 0.0
Eu11 Eu 0.0586 0.49351 0.21582 0.0
N12 N 0.08584 0.52667 0.28438 0.0
C13 C 0.11929 0.56571 0.35915 0.0
C14 C 0.08698 0.53163 0.3497 0.0
C15 C 0.1035 0.55148 0.38769 0.0
H16 H 0.07261 0.4855 0.07451 0.0
H17 H 0.10408 0.55572 0.43903 0.0
H18 H 0.99592 0.48613 0.33753 0.0
H19 H 0.97026 0.44432 0.95047 0.0
H20 H 0.07501 0.52057 0.37244 0.0
H21 H 0.13209 0.58108 0.38876 0.0
H22 H 0.9962 0.47789 1.02842 0.0
H23 H 0.1 0.50743 1.01837 0.0
H24 H 0.14755 0.58857 0.29 0.0
H25 H 0.14616 0.57583 0.17523 0.0
H26 H 0.96828 0.4571 0.38066 0.0
H27 H 0.1286 0.54562 0.07384 0.0
H28 H 0.94314 0.4117 0.98753 0.0
N29 N 0.98551 0.46683 0.24096 0.0
C30 C 0.97014 0.44828 0.19917 0.0
C31 C 0.96879 0.45415 0.32974 0.0
C32 C 0.95387 0.43122 0.22201 0.0
C33 C 0.98468 0.47042 0.30509 0.0
C34 C 0.95344 0.43428 0.2882 0.0
N35 N 0.98575 0.46402 0.11212 0.0
C36 C 0.98534 0.46359 1.04701 0.0
C37 C 0.9546 0.42735 0.08901 0.0
C38 C 0.97039 0.44663 0.1332 0.0
C39 C 0.95492 0.42628 1.02283 0.0
C40 C 0.97023 0.4446 1.00178 0.0
H41 H 0.9411 0.42171 0.30743 0.0
H42 H 0.92586 0.3986 0.19498 0.0
H43 H 0.92665 0.39498 0.07863 0.0
O44 O 0.98975 0.50297 0.15815 0.0
O45 O 0.01037 0.46072 0.20379 0.0
O46 O 0.03274 0.46454 0.14297 0.0
O47 O 0.007 0.51887 0.25716 0.0
O48 O 0.02498 0.5028 0.10047 0.0
O49 O 0.04637 0.48946 0.10396 0.0
O50 O 0.05445 0.46331 0.25789 0.0
O51 O 0.06154 0.52916 0.24928 0.0
O52 O 0.0376 0.52708 0.17648 0.0
O53 O 0.08101 0.48421 0.22311 0.0
O54 O 0.04363 0.48588 0.30804 0.0
O55 O 0.0271 0.50502 0.30476 0.0
C56 C 0.01583 0.45136 0.15953 0.0
C57 C 0.98329 0.52915 0.22216 0.0
C58 C 0.96981 0.55081 0.17941 0.0
C59 C 0.96542 0.5549 0.24025 0.0
C60 C 0.97897 0.53331 0.28293 0.0
C61 C 0.9699 0.54602 0.29169 0.0
C62 C 0.97851 0.53767 0.17047 0.0
C63 C 0.03583 0.49646 0.07023 0.0
C64 C 0.99338 0.51665 0.21256 0.0
C65 C 0.93837 0.41192 0.17818 0.0
C66 C 0.93881 0.4099 0.11194 0.0
C67 C 0.05428 0.53969 0.21736 0.0
C68 C 0.07048 0.44459 0.2174 0.0
C69 C 0.07966 0.41502 0.22093 0.0
C70 C 0.07059 0.40602 0.1552 0.0
C71 C 0.06145 0.43485 0.15238 0.0
C72 C 0.0797 0.4347 0.25177 0.0
C73 C 0.06158 0.41577 0.12161 0.0
C74 C 0.0349 0.49522 0.33856 0.0
C75 C 0.07102 0.46571 0.24751 0.0
H76 H 0.95846 0.56482 0.24779 0.0
H77 H 0.98255 0.5267 0.32334 0.0
H78 H 0.96645 0.54914 0.33843 0.0
H79 H 0.98218 0.53478 0.12382 0.0
H80 H 0.07069 0.39151 0.12898 0.0
H81 H 0.05454 0.44226 0.12507 0.0
H82 H 0.08671 0.4422 0.30205 0.0
H83 H 0.05477 0.40858 0.0711 0.0
Eu84 Eu 0.56741 0.51145 0.10953 0.0
C85 C 0.61221 0.45671 0.15178 0.0
N86 N 0.61566 0.47708 0.18491 0.0
C87 C 0.62819 0.46996 0.2828 0.0
C88 C 0.61629 0.44192 0.18372 0.0
C89 C 0.62401 0.48406 0.24941 0.0
C90 C 0.62425 0.44875 0.24993 0.0
C91 C 0.60038 0.42902 0.05099 0.0
C92 C 0.60469 0.45057 0.0857 0.0
C93 C 0.60448 0.41441 0.08269 0.0
C94 C 0.61249 0.42088 0.14878 0.0
Eu95 Eu 0.61053 0.50135 0.1226 0.0
N96 N 0.601 0.46514 0.05578 0.0
C97 C 0.59169 0.42249 0.98552 0.0
C98 C 0.59163 0.45812 0.99245 0.0
C99 C 0.58703 0.43695 0.95646 0.0
H100 H 0.6281 0.50086 0.27568 0.0
H101 H 0.57956 0.43162 0.90648 0.0
H102 H 0.54425 0.49913 0.95545 0.0
H103 H 0.57607 0.57705 0.30585 0.0
H104 H 0.58648 0.46788 0.96984 0.0
H105 H 0.58803 0.40604 0.95749 0.0
H106 H 0.57353 0.541 0.25724 0.0
H107 H 0.63475 0.47566 0.33376 0.0
H108 H 0.60138 0.39794 0.05655 0.0
H109 H 0.61559 0.40942 0.17255 0.0
H110 H 0.53493 0.51843 0.87849 0.0
H111 H 0.62765 0.43792 0.27592 0.0
H112 H 0.57182 0.60167 0.23552 0.0
N113 N 0.55709 0.52811 1.03311 0.0
C114 C 0.55959 0.54915 0.05506 0.0
C115 C 0.54207 0.52739 0.92782 0.0
C116 C 0.55404 0.56056 1.01333 0.0
C117 C 0.54751 0.51661 0.97134 0.0
C118 C 0.54566 0.54964 0.94861 0.0
N119 N 0.56942 0.54566 0.16006 0.0
C120 C 0.57214 0.55171 0.22582 0.0
C121 C 0.56669 0.57875 0.14652 0.0
C122 C 0.56582 0.55812 0.12071 0.0
C123 C 0.571 0.58595 0.21385 0.0
C124 C 0.57339 0.57211 0.25369 0.0
H125 H 0.54116 0.55781 0.91507 0.0
H126 H 0.55208 0.59099 1.00668 0.0
H127 H 0.56323 0.60695 0.12348 0.0
O128 O 0.5459 0.4814 0.14655 0.0
O129 O 0.59703 0.54242 0.16292 0.0
O130 O 0.61766 0.53796 0.1064 0.0
O131 O 0.53745 0.50354 0.1048 0.0
O132 O 0.57622 0.50925 0.21703 0.0
O133 O 0.60414 0.50749 0.22608 0.0
O134 O 0.63747 0.50467 0.09675 0.0
O135 O 0.57952 0.47021 0.12227 0.0
O136 O 0.56329 0.47904 0.04815 0.0
O137 O 0.63849 0.52442 0.18672 0.0
O138 O 0.60511 0.50731 1.01648 0.0
O139 O 0.57828 0.51199 1.00845 0.0
C140 C 0.61319 0.55179 0.13887 0.0
C141 C 0.51256 0.4646 0.09906 0.0
C142 C 0.4787 0.43666 0.10671 0.0
C143 C 0.47499 0.42746 1.04034 0.0
C144 C 0.50863 0.4553 1.03306 0.0
C145 C 0.4899 0.4367 1.00396 0.0
C146 C 0.49768 0.4552 0.13574 0.0
C147 C 0.5904 0.50854 0.25317 0.0
C148 C 0.53169 0.48493 0.13003 0.0
C149 C 0.55609 0.58187 1.03812 0.0
C150 C 0.56241 0.59095 0.10463 0.0
C151 C 0.5645 0.46315 0.07514 0.0
C152 C 0.6686 0.53839 0.15071 0.0
C153 C 0.69627 0.56053 0.0983 0.0
C154 C 0.70792 0.57354 0.15908 0.0
C155 C 0.68059 0.55146 0.21112 0.0
C156 C 0.67659 0.54276 0.09407 0.0
C157 C 0.70011 0.56893 0.21517 0.0
C158 C 0.592 0.51032 0.98125 0.0
C159 C 0.64843 0.51942 0.15024 0.0
H160 H 0.46046 0.41348 1.01614 0.0
H161 H 0.51994 0.46263 1.00407 0.0
H162 H 0.48684 0.42965 0.95285 0.0
H163 H 0.5009 0.46249 0.18684 0.0
H164 H 0.72323 0.58698 0.16319 0.0
H165 H 0.67488 0.54794 0.25552 0.0
H166 H 0.66767 0.53252 1.04725 0.0
H167 H 0.70925 0.57877 0.26195 0.0
Eu168 Eu 0.59696 0.10393 1.04453 0.0
C169 C 0.54432 0.99512 0.96638 0.0
N170 N 0.54361 0.01183 0.93794 0.0
C171 C 0.53711 0.98933 0.83266 0.0
C172 C 0.54202 0.97515 0.92855 0.0
C173 C 0.5394 0.00875 0.87182 0.0
C174 C 0.5387 0.97261 0.86108 0.0
C175 C 0.5459 0.9795 0.06357 0.0
C176 C 0.54642 0.99739 1.0334 0.0
C177 C 0.54443 0.96015 1.02619 0.0
C178 C 0.54253 0.958 0.95889 0.0
Eu179 Eu 0.54808 0.0444 1.00932 0.0
N180 N 0.54813 0.01652 0.06881 0.0
C181 C 0.54638 0.98127 0.13035 0.0
C182 C 0.54732 0.01747 0.13332 0.0
C183 C 0.54678 1.00016 0.16514 0.0
H184 H 0.53702 0.02067 0.84834 0.0
H185 H 0.54645 1.00128 0.21643 0.0
H186 H 0.62232 0.12027 0.19769 0.0
H187 H 0.58554 0.15732 0.89009 0.0
H188 H 0.54644 0.03102 0.16078 0.0
H189 H 0.54595 0.96787 0.15515 0.0
H190 H 0.58562 0.12276 0.91479 0.0
H191 H 0.53383 0.9871 0.78045 0.0
H192 H 0.5443 0.94646 0.04874 0.0
H193 H 0.54095 0.94269 0.93055 0.0
H194 H 0.63528 0.15289 0.28959 0.0
H195 H 0.53674 0.95747 0.83048 0.0
H196 H 0.59592 0.19055 0.97806 0.0
N197 N 0.61083 0.13479 0.13483 0.0
C198 C 0.60972 0.15366 0.12603 0.0
C199 C 0.62796 0.15322 0.24407 0.0
C200 C 0.61745 0.17298 0.17681 0.0
C201 C 0.62038 0.13465 0.19207 0.0
C202 C 0.62629 0.17236 0.23668 0.0
N203 N 0.5955 0.13588 1.01615 0.0
C204 C 0.59016 0.13705 0.95371 0.0
C205 C 0.60224 0.1745 0.05273 0.0
C206 C 0.60209 0.15436 0.06478 0.0
C207 C 0.59594 0.17536 0.98929 0.0
C208 C 0.5901 0.15666 0.93947 0.0
H209 H 0.63239 0.18686 0.27684 0.0
H210 H 0.62249 0.20753 0.20425 0.0
H211 H 0.60927 0.2089 0.09553 0.0
O212 O 0.6167 0.09877 0.98993 0.0
O213 O 0.56843 0.10591 1.03309 0.0
O214 O 0.54543 0.0718 0.9654 0.0
O215 O 0.62789 0.13121 0.05506 0.0
O216 O 0.5873 0.08893 0.93248 0.0
O217 O 0.55527 0.05772 0.91082 0.0
O218 O 0.52253 0.03987 0.05214 0.0
O219 O 0.57609 0.04293 1.01509 0.0
O220 O 0.59908 0.07576 0.08781 0.0
O221 O 0.5186 0.01747 0.96247 0.0
O222 O 0.55632 0.06485 0.11757 0.0
O223 O 0.5899 0.08898 0.14087 0.0
C224 C 0.55101 0.09281 0.99406 0.0
C225 C 0.65049 0.11937 1.0411 0.0
C226 C 0.68372 0.1281 1.0313 0.0
C227 C 0.68593 0.12353 0.09406 0.0
C228 C 0.6532 0.1147 0.1032 0.0
C229 C 0.67078 0.11675 0.12932 0.0
C230 C 0.66573 0.12576 1.00464 0.0
C231 C 0.57134 0.07286 0.88988 0.0
C232 C 0.63228 0.11894 1.01668 0.0
C233 C 0.61674 0.1926 0.16571 0.0
C234 C 0.60921 0.19338 0.10379 0.0
C235 C 0.59268 0.05462 0.05731 0.0
C236 C 0.48868 0.00954 0.99782 0.0
C237 C 0.45848 1.00011 1.03688 0.0
C238 C 0.44755 0.98524 0.97727 0.0
C239 C 0.47734 0.99446 0.93873 0.0
C240 C 0.47916 0.01217 1.04748 0.0
C241 C 0.45694 0.9824 0.92873 0.0
C242 C 0.57298 0.07701 0.16151 0.0
C243 C 0.51029 0.02262 1.00512 0.0
H244 H 0.69941 0.12498 0.11578 0.0
H245 H 0.64176 0.1097 0.13185 0.0
H246 H 0.67273 0.11323 0.17746 0.0
H247 H 0.66383 0.12952 0.95673 0.0
H248 H 0.43163 0.97554 0.96858 0.0
H249 H 0.48422 0.99207 0.8997 0.0
H250 H 0.48766 0.02362 0.09342 0.0
H251 H 0.44837 0.97083 0.88309 0.0
Eu252 Eu 0.71383 0.85437 0.23392 0.0
C253 C 0.80331 0.90405 0.25582 0.0
N254 N 0.78823 0.88575 0.2125 0.0
C255 C 0.80534 0.90013 0.12555 0.0
C256 C 0.81961 0.9218 0.23479 0.0
C257 C 0.78939 0.88318 0.14843 0.0
C258 C 0.82041 0.91969 0.16878 0.0
C259 C 0.81812 0.92397 0.36713 0.0
C260 C 0.80271 0.9048 0.32149 0.0
C261 C 0.83394 0.94204 0.34603 0.0
C262 C 0.83478 0.94084 0.28012 0.0
Eu263 Eu 0.76302 0.85611 0.25501 0.0
N264 N 0.78746 0.88668 0.34086 0.0
C265 C 0.81744 0.92428 0.43294 0.0
C266 C 0.78768 0.88636 0.40567 0.0
C267 C 0.80227 0.90529 0.45224 0.0
H268 H 0.77846 0.8677 0.11476 0.0
H269 H 0.80203 0.90495 0.50326 0.0
H270 H 0.70039 0.86519 0.37259 0.0
H271 H 0.66739 0.7889 1.01699 0.0
H272 H 0.77719 0.87149 0.42315 0.0
H273 H 0.82889 0.93876 0.46928 0.0
H274 H 0.6966 0.82495 0.07959 0.0
H275 H 0.80613 0.89791 0.07469 0.0
H276 H 0.84583 0.95681 0.3805 0.0
H277 H 0.84733 0.95465 0.26473 0.0
H278 H 0.67348 0.84465 0.43238 0.0
H279 H 0.83281 0.93277 0.15094 0.0
H280 H 0.64001 0.76444 0.07091 0.0
N281 N 0.68817 0.83703 0.29286 0.0
C282 C 0.67213 0.81626 0.2628 0.0
C283 C 0.67303 0.83631 0.38514 0.0
C284 C 0.6561 0.80425 0.29412 0.0
C285 C 0.6884 0.84772 0.35171 0.0
C286 C 0.65695 0.81429 0.35667 0.0
N287 N 0.68638 0.82035 0.16896 0.0
C288 C 0.68486 0.81434 0.10383 0.0
C289 C 0.65394 0.78731 0.16449 0.0
C290 C 0.67106 0.80788 0.19873 0.0
C291 C 0.65286 0.7802 0.09877 0.0
C292 C 0.66829 0.79394 0.06815 0.0
H293 H 0.64494 0.80561 0.38232 0.0
H294 H 0.6271 0.77356 0.28473 0.0
H295 H 0.62522 0.7587 0.17126 0.0
O296 O 0.71817 0.88432 0.19023 0.0
O297 O 0.71195 0.81925 0.20198 0.0
O298 O 0.73732 0.82213 0.27081 0.0
O299 O 0.69158 0.86405 0.22558 0.0
O300 O 0.7277 0.86064 0.1397 0.0
O301 O 0.74735 0.84526 0.14557 0.0
O302 O 0.78657 0.85058 0.28914 0.0
O303 O 0.76167 0.88824 0.24313 0.0
O304 O 0.73962 0.88367 0.30601 0.0
O305 O 0.76921 0.83395 0.1926 0.0
O306 O 0.74911 0.84708 0.34945 0.0
O307 O 0.72585 0.85775 0.34506 0.0
C308 C 0.72019 0.80927 0.23193 0.0
C309 C 0.70218 0.90377 0.22682 0.0
C310 C 0.69177 0.93214 0.21962 0.0
C311 C 0.70315 0.9441 0.28143 0.0
C312 C 0.71327 0.91619 0.28854 0.0
C313 C 0.71376 0.93619 0.31545 0.0
C314 C 0.69131 0.9118 0.19224 0.0
C315 C 0.73785 0.85303 0.11073 0.0
C316 C 0.70163 0.88221 0.19988 0.0
C317 C 0.63946 0.78314 0.26122 0.0
C318 C 0.63837 0.77471 0.19654 0.0
C319 C 0.75619 0.89728 0.28808 0.0
C320 C 0.78414 0.81569 0.24117 0.0
C321 C 0.79041 0.79176 0.30533 0.0
C322 C 0.78828 0.77743 0.2482 0.0
C323 C 0.78228 0.8014 0.18438 0.0
C324 C 0.78831 0.81085 0.30172 0.0
C325 C 0.78426 0.78229 0.188 0.0
C326 C 0.73733 0.852 0.37906 0.0
C327 C 0.78328 0.83653 0.23592 0.0
H328 H 0.70373 0.95962 0.30367 0.0
H329 H 0.72149 0.91032 0.31613 0.0
H330 H 0.72237 0.9456 0.36319 0.0
H331 H 0.68256 0.90229 0.14469 0.0
H332 H 0.79037 0.76293 0.25023 0.0
H333 H 0.77959 0.80522 0.1372 0.0
H334 H 0.79028 0.82204 0.34602 0.0
H335 H 0.78304 0.77149 0.14412 0.0
Eu336 Eu 0.15935 0.84494 0.33344 0.0
C337 C 0.21691 0.80589 0.38635 0.0
N338 N 0.21784 0.8249 0.4186 0.0
C339 C 0.2323 0.82066 0.51763 0.0
C340 C 0.22385 0.79358 0.41877 0.0
C341 C 0.22534 0.83235 0.48349 0.0
C342 C 0.2316 0.80122 0.48512 0.0
C343 C 0.20742 0.77861 0.28632 0.0
C344 C 0.20887 0.79859 0.32084 0.0
C345 C 0.2146 0.76658 0.31818 0.0
C346 C 0.22279 0.77405 0.38423 0.0
Eu347 Eu 0.20674 0.84457 0.35679 0.0
N348 N 0.20159 0.81027 0.29163 0.0
C349 C 0.19841 0.77098 0.22107 0.0
C350 C 0.19264 0.80261 0.2279 0.0
C351 C 0.19089 0.78296 0.1919 0.0
H352 H 0.22666 0.84787 0.50867 0.0
H353 H 0.18366 0.77704 0.14158 0.0
H354 H 0.14755 0.84889 0.17721 0.0
H355 H 0.17004 0.90247 0.55759 0.0
H356 H 0.18643 0.81107 0.20411 0.0
H357 H 0.19695 0.75569 0.19306 0.0
H358 H 0.16836 0.86942 0.49346 0.0
H359 H 0.23838 0.82681 0.56888 0.0
H360 H 0.21366 0.7513 0.29232 0.0
H361 H 0.22813 0.76447 0.4083 0.0
H362 H 0.14201 0.87457 0.11781 0.0
H363 H 0.23709 0.79225 0.51165 0.0
H364 H 0.16411 0.92944 0.50378 0.0
N365 N 0.1547 0.86953 0.27047 0.0
C366 C 0.15512 0.88804 0.3041 0.0
C367 C 0.14601 0.87882 0.17013 0.0
C368 C 0.15133 0.90291 0.27147 0.0
C369 C 0.14974 0.86454 0.20427 0.0
C370 C 0.14692 0.89818 0.20381 0.0
N371 N 0.16272 0.87753 0.40192 0.0
C372 C 0.16634 0.88105 0.46808 0.0
C373 C 0.15946 0.91114 0.40718 0.0
C374 C 0.15908 0.89205 0.37139 0.0
C375 C 0.16362 0.91495 0.47474 0.0
C376 C 0.16706 0.89984 0.50524 0.0
H377 H 0.14383 0.90911 0.1772 0.0
H378 H 0.14886 0.93335 0.28277 0.0
H379 H 0.15608 0.94063 0.40156 0.0
O380 O 0.13254 0.82961 0.37687 0.0
O381 O 0.18791 0.88105 0.34149 0.0
O382 O 0.20721 0.87518 0.41211 0.0
O383 O 0.13072 0.82871 0.27264 0.0
O384 O 0.16575 0.83592 0.436 0.0
O385 O 0.19908 0.85063 0.45842 0.0
O386 O 0.22966 0.86444 0.30171 0.0
O387 O 0.18009 0.80849 0.35763 0.0
O388 O 0.15508 0.80921 0.29757 0.0
O389 O 0.23754 0.86452 0.40261 0.0
O390 O 0.19907 0.85228 0.25356 0.0
O391 O 0.1658 0.83586 0.23301 0.0
C392 C 0.20426 0.88961 0.38399 0.0
C393 C 0.09981 0.81111 0.30839 0.0
C394 C 0.06905 0.79366 0.34797 0.0
C395 C 0.05872 0.78775 0.28427 0.0
C396 C 0.08926 0.80504 0.24481 0.0
C397 C 0.06882 0.79339 0.23298 0.0
C398 C 0.08961 0.80524 0.35981 0.0
C399 C 0.18204 0.84259 0.47896 0.0
C400 C 0.12134 0.82336 0.32021 0.0
C401 C 0.15176 0.92183 0.30711 0.0
C402 C 0.15582 0.92594 0.37473 0.0
C403 C 0.16202 0.79756 0.32438 0.0
C404 C 0.26134 0.87104 0.33838 0.0
C405 C 0.2937 0.89098 0.30991 0.0
C406 C 0.2966 0.87337 0.32681 0.0
C407 C 0.26437 0.85346 0.3549 0.0
C408 C 0.27601 0.88972 0.31533 0.0
C409 C 0.28193 0.85463 0.34894 0.0
C410 C 0.18257 0.84487 0.21129 0.0
C411 C 0.24392 0.87145 0.3505 0.0
H412 H 0.04282 0.77855 0.27416 0.0
H413 H 0.09678 0.80926 0.20411 0.0
H414 H 0.0608 0.7887 0.18395 0.0
H415 H 0.09761 0.80989 0.40898 0.0
H416 H 0.31025 0.87419 0.32294 0.0
H417 H 0.25343 0.83912 0.3737 0.0
H418 H 0.27389 0.90352 0.30321 0.0
H419 H 0.28426 0.84114 0.36225 0.0
Eu420 Eu 0.22283 0.30569 0.43794 0.0
C421 C 0.16092 0.19473 0.32513 0.0
N422 N 0.15963 0.21349 0.31648 0.0
C423 C 0.14124 0.19433 0.20889 0.0
C424 C 0.1528 0.17518 0.27485 0.0
C425 C 0.14919 0.2131 0.2605 0.0
C426 C 0.14331 0.17542 0.21573 0.0
C427 C 0.16871 0.17413 0.3984 0.0
C428 C 0.16893 0.19428 0.38607 0.0
C429 C 0.16155 0.15511 0.34762 0.0
C430 C 0.15369 0.15567 0.28592 0.0
Eu431 Eu 0.17483 0.24509 0.4051 0.0
N432 N 0.17565 0.21287 0.43443 0.0
C433 C 0.17495 0.17332 0.46195 0.0
C434 C 0.18083 0.2117 0.49705 0.0
C435 C 0.18073 0.19204 0.51162 0.0
H436 H 0.14721 0.22748 0.25529 0.0
H437 H 0.18516 0.19136 0.56113 0.0
H438 H 0.24891 0.32945 0.58929 0.0
H439 H 0.19957 0.34515 0.26131 0.0
H440 H 0.18536 0.22602 0.5359 0.0
H441 H 0.17488 0.15809 0.47343 0.0
H442 H 0.20413 0.31507 0.2977 0.0
H443 H 0.1334 0.19437 0.16407 0.0
H444 H 0.16148 0.13961 0.35604 0.0
H445 H 0.1477 0.1406 0.2477 0.0
H446 H 0.26068 0.3649 0.6704 0.0
H447 H 0.13693 0.16077 0.17591 0.0
H448 H 0.20986 0.38115 0.33764 0.0
N449 N 0.23536 0.3393 0.51785 0.0
C450 C 0.23234 0.35617 0.50081 0.0
C451 C 0.2526 0.36258 0.62311 0.0
C452 C 0.23927 0.37696 0.54518 0.0
C453 C 0.24569 0.3424 0.57741 0.0
C454 C 0.24926 0.37986 0.60712 0.0
N455 N 0.21693 0.33318 0.39542 0.0
C456 C 0.20897 0.33052 0.33225 0.0
C457 C 0.22074 0.37101 0.41831 0.0
C458 C 0.22317 0.3532 0.43783 0.0
C459 C 0.21202 0.36791 0.35431 0.0
C460 C 0.20622 0.34764 0.31108 0.0
H461 H 0.2548 0.39558 0.64247 0.0
H462 H 0.24165 0.41043 0.55964 0.0
H463 H 0.22541 0.4052 0.44871 0.0
O464 O 0.24408 0.30313 0.38611 0.0
O465 O 0.19384 0.30374 0.44291 0.0
O466 O 0.17285 0.27339 0.36209 0.0
O467 O 0.25252 0.33548 0.44806 0.0
O468 O 0.21324 0.28903 0.32709 0.0
O469 O 0.18215 0.25602 0.30422 0.0
O470 O 0.15576 0.2522 0.4585 0.0
O471 O 0.20357 0.24393 0.42254 0.0
O472 O 0.22787 0.27968 0.48245 0.0
O473 O 0.14413 0.21822 0.40134 0.0
O474 O 0.18591 0.2608 0.51636 0.0
O475 O 0.21708 0.29404 0.539 0.0
C476 C 0.17801 0.29332 0.39771 0.0
C477 C 0.27782 0.32881 0.4331 0.0
C478 C 0.31104 0.34249 0.41516 0.0
C479 C 0.31623 0.34028 0.47837 0.0
C480 C 0.28336 0.32736 0.49681 0.0
C481 C 0.30239 0.33264 0.51887 0.0
C482 C 0.29172 0.33639 0.39223 0.0
C483 C 0.1979 0.27206 0.2839 0.0
C484 C 0.25821 0.32455 0.41052 0.0
C485 C 0.23646 0.3944 0.52611 0.0
C486 C 0.22724 0.39144 0.4629 0.0
C487 C 0.22132 0.25772 0.45928 0.0
C488 C 0.12132 0.22993 0.4139 0.0
C489 C 0.08853 0.2214 0.42935 0.0
C490 C 0.08429 0.22233 0.36388 0.0
C491 C 0.11668 0.23123 0.3492 0.0
C492 C 0.10724 0.22537 0.45444 0.0
C493 C 0.0983 0.22741 0.32446 0.0
C494 C 0.20141 0.27769 0.55929 0.0
C495 C 0.14014 0.23152 0.4372 0.0
H496 H 0.33109 0.34492 0.4967 0.0
H497 H 0.27303 0.32246 0.52967 0.0
H498 H 0.30655 0.33131 0.56792 0.0
H499 H 0.28772 0.33834 0.34365 0.0
H500 H 0.0701 0.2193 0.34326 0.0
H501 H 0.12718 0.23483 0.31741 0.0
H502 H 0.1106 0.22424 0.50448 0.0
H503 H 0.09483 0.22818 0.27421 0.0
Eu504 Eu 0.3726 0.16518 0.79589 0.0
C505 C 0.44149 0.18863 0.66568 0.0
N506 N 0.43502 0.2029 0.68548 0.0
C507 C 0.46807 0.23438 0.7266 0.0
C508 C 0.46171 0.19669 0.67857 0.0
C509 C 0.44794 0.22573 0.71277 0.0
C510 C 0.47496 0.21973 0.71017 0.0
C511 C 0.43459 0.15137 0.60978 0.0
C512 C 0.42786 0.16595 0.63189 0.0
C513 C 0.4546 0.15908 0.62526 0.0
C514 C 0.4681 0.18165 0.65945 0.0
Eu515 Eu 0.40094 0.18658 0.65887 0.0
N516 N 0.40842 0.15879 0.61662 0.0
C517 C 0.42116 0.12981 0.5701 0.0
C518 C 0.39586 0.13886 0.57233 0.0
C519 C 0.40186 0.12382 0.54999 0.0
H520 H 0.44283 0.23738 0.72331 0.0
H521 H 0.39169 0.10783 0.51599 0.0
H522 H 0.33292 0.11084 0.74901 0.0
H523 H 0.37628 0.24425 0.91261 0.0
H524 H 0.38138 0.13464 0.55161 0.0
H525 H 0.4258 0.11819 0.55197 0.0
H526 H 0.38948 0.21977 0.88632 0.0
H527 H 0.47826 0.25239 0.74936 0.0
H528 H 0.4599 0.14794 0.60927 0.0
H529 H 0.48354 0.18746 0.66977 0.0
H530 H 0.29692 0.09185 0.72551 0.0
H531 H 0.49059 0.22651 0.72096 0.0
H532 H 0.34087 0.22886 0.88013 0.0
N533 N 0.33808 0.14488 0.77567 0.0
C534 C 0.33006 0.15786 0.79055 0.0
C535 C 0.30606 0.11045 0.74306 0.0
C536 C 0.30948 0.14756 0.77879 0.0
C537 C 0.32649 0.12134 0.75547 0.0
C538 C 0.29752 0.12366 0.75378 0.0
N539 N 0.36238 0.19112 0.83104 0.0
C540 C 0.37427 0.21296 0.8676 0.0
C541 C 0.33422 0.19499 0.83424 0.0
C542 C 0.34247 0.18155 0.81784 0.0
C543 C 0.34668 0.21804 0.86649 0.0
C544 C 0.36669 0.22685 0.88454 0.0
H545 H 0.28166 0.11515 0.74394 0.0
H546 H 0.28571 0.15374 0.78276 0.0
H547 H 0.30729 0.19514 0.8315 0.0
O548 O 0.37541 0.14207 0.85455 0.0
O549 O 0.35523 0.16802 0.70646 0.0
O550 O 0.37899 0.19831 0.6692 0.0
O551 O 0.36165 0.16011 0.88678 0.0
O552 O 0.40232 0.20102 0.82965 0.0
O553 O 0.40839 0.21676 0.73704 0.0
O554 O 0.40226 0.21307 0.60519 0.0
O555 O 0.41748 0.18362 0.75058 0.0
O556 O 0.39282 0.15153 0.77675 0.0
O557 O 0.41265 0.19157 0.56957 0.0
O558 O 0.37073 0.15176 0.62433 0.0
O559 O 0.36372 0.13489 0.71505 0.0
C560 C 0.36075 0.18617 0.67792 0.0
C561 C 0.3774 0.15066 0.9656 0.0
C562 C 0.40523 0.17481 0.05313 0.0
C563 C 0.3965 0.15713 0.09024 0.0
C564 C 0.36868 0.13376 1.00377 0.0
C565 C 0.37825 0.13702 0.06608 0.0
C566 C 0.39545 0.17142 0.99042 0.0
C567 C 0.41141 0.21922 0.80044 0.0
C568 C 0.36737 0.14614 0.89985 0.0
C569 C 0.30147 0.1613 0.79241 0.0
C570 C 0.31378 0.18491 0.81998 0.0
C571 C 0.41153 0.16449 0.77465 0.0
C572 C 0.39866 0.20347 0.49337 0.0
C573 C 0.37097 0.17888 0.40566 0.0
C574 C 0.37972 0.19628 0.3678 0.0
C575 C 0.40737 0.22022 0.45477 0.0
C576 C 0.38063 0.18265 0.46874 0.0
C577 C 0.39787 0.21659 0.39197 0.0
C578 C 0.36114 0.13329 0.65188 0.0
C579 C 0.40899 0.20738 0.55829 0.0
H580 H 0.40333 0.15917 0.13934 0.0
H581 H 0.35453 0.11797 0.98514 0.0
H582 H 0.37147 0.12404 0.09592 0.0
H583 H 0.40173 0.18483 0.96136 0.0
H584 H 0.37301 0.19384 0.31822 0.0
H585 H 0.42154 0.236 0.4731 0.0
H586 H 0.3744 0.16931 0.49805 0.0
H587 H 0.40468 0.22936 0.3616 0.0
Eu588 Eu 0.87922 0.1896 0.65535 0.0
C589 C 0.92479 0.14855 0.77673 0.0
N590 N 0.90528 0.1381 0.7534 0.0
C591 C 0.90472 0.10538 0.69588 0.0
C592 C 0.93529 0.13821 0.75765 0.0
C593 C 0.89498 0.11644 0.71558 0.0
C594 C 0.92501 0.11643 0.71634 0.0
C595 C 0.95451 0.18098 0.84432 0.0
C596 C 0.9342 0.16965 0.81969 0.0
C597 C 0.96521 0.17122 0.82346 0.0
C598 C 0.95561 0.14984 0.78046 0.0
Eu599 Eu 0.88983 0.15788 0.78709 0.0
N600 N 0.92339 0.17859 0.83936 0.0
C601 C 0.96338 0.20149 0.89045 0.0
C602 C 0.93174 0.19755 0.88819 0.0
C603 C 0.95188 0.20957 0.91328 0.0
H604 H 0.87928 0.10782 0.70038 0.0
H605 H 0.95848 0.22489 0.95091 0.0
H606 H 0.89689 0.24358 0.74201 0.0
H607 H 0.8051 0.12667 0.52228 0.0
H608 H 0.92303 0.20342 0.90914 0.0
H609 H 0.97895 0.21075 0.9104 0.0
H610 H 0.84071 0.14345 0.55585 0.0
H611 H 0.89657 0.08836 0.66496 0.0
H612 H 0.98085 0.17982 0.84142 0.0
H613 H 0.96399 0.14232 0.76572 0.0
H614 H 0.88409 0.26645 0.79044 0.0
H615 H 0.93255 0.10789 0.70071 0.0
H616 H 0.7896 0.14731 0.56578 0.0
N617 N 0.8687 0.21408 0.70029 0.0
C618 C 0.84917 0.20596 0.68438 0.0
C619 C 0.87405 0.24928 0.76163 0.0
C620 C 0.84122 0.21883 0.70913 0.0
C621 C 0.88125 0.23595 0.73549 0.0
C622 C 0.85391 0.24053 0.74923 0.0
N623 N 0.84519 0.1729 0.6191 0.0
C624 C 0.83407 0.15248 0.57556 0.0
C625 C 0.81685 0.17604 0.6238 0.0
C626 C 0.83712 0.18494 0.6418 0.0
C627 C 0.80523 0.15475 0.58069 0.0
C628 C 0.81392 0.14301 0.55615 0.0
H629 H 0.8484 0.25097 0.76914 0.0
H630 H 0.81463 0.21948 0.71101 0.0
H631 H 0.79328 0.18193 0.63663 0.0
O632 O 0.87557 0.18602 0.55068 0.0
O633 O 0.85508 0.16638 0.70784 0.0
O634 O 0.87184 0.17422 0.80948 0.0
O635 O 0.89226 0.22042 0.60962 0.0
O636 O 0.87424 0.15387 0.61531 0.0
O637 O 0.86466 0.13567 0.7023 0.0
O638 O 0.89204 0.14548 0.87687 0.0
O639 O 0.90411 0.16157 0.69802 0.0
O640 O 0.91046 0.19695 0.6806 0.0
O641 O 0.86544 0.12554 0.80475 0.0
O642 O 0.8969 0.19468 0.82682 0.0
O643 O 0.90455 0.2133 0.73941 0.0
C644 C 0.8559 0.16935 0.77052 0.0
C645 C 0.90586 0.21194 0.52553 0.0
C646 C 0.92146 0.19329 0.47596 0.0
C647 C 0.93301 0.21368 0.45108 0.0
C648 C 0.91659 0.23158 0.49823 0.0
C649 C 0.93091 0.2329 0.46379 0.0
C650 C 0.91049 0.19458 0.5215 0.0
C651 C 0.86508 0.13479 0.6401 0.0
C652 C 0.88868 0.20787 0.55335 0.0
C653 C 0.82099 0.20988 0.69213 0.0
C654 C 0.80883 0.18854 0.64959 0.0
C655 C 0.91552 0.18138 0.68046 0.0
C656 C 0.86203 0.1313 0.91127 0.0
C657 C 0.85549 0.15685 0.97986 0.0
C658 C 0.83973 0.13683 0.99579 0.0
C659 C 0.84648 0.11171 0.92765 0.0
C660 C 0.86601 0.15355 0.93572 0.0
C661 C 0.83523 0.11452 0.96944 0.0
C662 C 0.90565 0.21385 0.80221 0.0
C663 C 0.87347 0.12918 0.86485 0.0
H664 H 0.94228 0.21426 0.41696 0.0
H665 H 0.91365 0.2455 0.50237 0.0
H666 H 0.93923 0.24802 0.4423 0.0
H667 H 0.9029 0.18003 0.54571 0.0
H668 H 0.8314 0.13817 1.03112 0.0
H669 H 0.84301 0.09439 0.90794 0.0
H670 H 0.87787 0.16842 0.92151 0.0
H671 H 0.82328 0.09941 0.98277 0.0
Eu672 Eu 0.89184 0.70016 0.79653 0.0
C673 C 0.83435 0.59807 0.64274 0.0
N674 N 0.85363 0.60829 0.66995 0.0
C675 C 0.84686 0.57425 0.71329 0.0
C676 C 0.82049 0.57539 0.65086 0.0
C677 C 0.86007 0.59676 0.70441 0.0
C678 C 0.82698 0.56352 0.68647 0.0
C679 C 0.80842 0.59997 0.57927 0.0
C680 C 0.82842 0.61047 0.6077 0.0
C681 C 0.7946 0.57754 0.58815 0.0
C682 C 0.80061 0.56529 0.6237 0.0
Eu683 Eu 0.87498 0.64548 0.64813 0.0
N684 N 0.84212 0.63219 0.59904 0.0
C685 C 0.80288 0.61196 0.54088 0.0
C686 C 0.83685 0.64286 0.55669 0.0
C687 C 0.81721 0.6333 0.52868 0.0
H688 H 0.87546 0.60491 0.72424 0.0
H689 H 0.81321 0.64213 0.49612 0.0
H690 H 0.88675 0.73912 0.72705 0.0
H691 H 0.95854 0.70825 0.92883 0.0
H692 H 0.84762 0.65815 0.54108 0.0
H693 H 0.78769 0.60446 0.51824 0.0
H694 H 0.92338 0.68984 0.8915 0.0
H695 H 0.85203 0.56517 0.74059 0.0
H696 H 0.77922 0.56934 0.56675 0.0
H697 H 0.78977 0.54792 0.62961 0.0
H698 H 0.90764 0.77915 0.70726 0.0
H699 H 0.81677 0.54607 0.69354 0.0
H700 H 0.98151 0.74713 0.90645 0.0
N701 N 0.91071 0.73788 0.77418 0.0
C702 C 0.93037 0.74943 0.7971 0.0
C703 C 0.91423 0.77095 0.73217 0.0
C704 C 0.94281 0.77233 0.78732 0.0
C705 C 0.90248 0.74826 0.74267 0.0
C706 C 0.93449 0.78304 0.75448 0.0
N707 N 0.92576 0.71597 0.83846 0.0
C708 C 0.93293 0.70576 0.8761 0.0
C709 C 0.95853 0.74988 0.85301 0.0
C710 C 0.93811 0.73811 0.82926 0.0
C711 C 0.96594 0.73865 0.88739 0.0
C712 C 0.95305 0.71664 0.89969 0.0
H713 H 0.94356 0.80065 0.74634 0.0
H714 H 0.97286 0.80144 0.80338 0.0
H715 H 0.98661 0.78185 0.86097 0.0
O716 O 0.88565 0.69985 0.89417 0.0
O717 O 0.90818 0.70787 0.71275 0.0
O718 O 0.90699 0.67357 0.68478 0.0
O719 O 0.8858 0.72573 0.84291 0.0
O720 O 0.89242 0.66899 0.82556 0.0
O721 O 0.89912 0.65657 0.73229 0.0
O722 O 0.88208 0.64421 0.55206 0.0
O723 O 0.85888 0.63792 0.73283 0.0
O724 O 0.86019 0.67217 0.75747 0.0
O725 O 0.88049 0.61864 0.60756 0.0
O726 O 0.87575 0.67731 0.62002 0.0
O727 O 0.86802 0.69018 0.71116 0.0
C728 C 0.91512 0.69602 0.68601 0.0
C729 C 0.89927 0.73753 0.95416 0.0
C730 C 0.9244 0.74833 0.04848 0.0
C731 C 0.92037 0.76512 0.07531 0.0
C732 C 0.89484 0.75343 0.9824 0.0
C733 C 0.90604 0.76799 1.04157 0.0
C734 C 0.91553 0.73729 0.98382 0.0
C735 C 0.89712 0.65553 0.79262 0.0
C736 C 0.88582 0.71926 0.89838 0.0
C737 C 0.9631 0.78384 0.81038 0.0
C738 C 0.97093 0.77264 0.84303 0.0
C739 C 0.85264 0.65026 0.76172 0.0
C740 C 0.86913 0.60644 0.49481 0.0
C741 C 0.8456 0.59721 0.39778 0.0
C742 C 0.85166 0.58293 0.36757 0.0
C743 C 0.87559 0.59303 0.46398 0.0
C744 C 0.8524 0.60557 0.46455 0.0
C745 C 0.86609 0.58027 0.40147 0.0
C746 C 0.87054 0.69058 0.65089 0.0
C747 C 0.88171 0.62477 0.55141 0.0
H748 H 0.92698 0.77492 0.12402 0.0
H749 H 0.88252 0.75419 0.95961 0.0
H750 H 0.90262 0.78029 0.06369 0.0
H751 H 0.9194 0.72598 0.95902 0.0
H752 H 0.84676 0.57545 0.31653 0.0
H753 H 0.88835 0.59319 0.48693 0.0
H754 H 0.84699 0.61496 0.49041 0.0
H755 H 0.87117 0.57006 0.3771 0.0
H756 H 0.03542 0.52795 0.99217 0.0
H757 H 0.03487 0.52752 0.87498 0.0
H758 H 0.03381 0.46326 0.85379 0.0
H759 H 0.03508 0.46418 0.97117 0.0
H760 H 0.05763 0.53012 0.78548 0.0
H761 H 0.99077 0.44362 0.70171 0.0
H762 H 0.9983 0.45795 0.78539 0.0
H763 H 0.00907 0.44223 0.75411 0.0
C764 C 0.0351 0.5136 0.96317 0.0
C765 C 0.03542 0.49619 0.99468 0.0
C766 C 0.03479 0.51335 0.89442 0.0
C767 C 0.034 0.49518 0.85093 0.0
C768 C 0.0341 0.47762 0.88253 0.0
H769 H 0.03729 0.46541 0.41899 0.0
H770 H 0.0364 0.46519 0.53529 0.0
C771 C 0.03502 0.47825 0.95157 0.0
C772 C 0.03345 0.49487 0.77482 0.0
H773 H 0.00963 0.46034 0.62117 0.0
C774 C 0.04692 0.51469 0.75036 0.0
C775 C 0.01972 0.47526 0.72477 0.0
C776 C 1.0035 0.45363 0.74247 0.0
C777 C 0.04743 0.51523 0.68198 0.0
C778 C 0.03391 0.49554 0.63207 0.0
C779 C 0.02035 0.47574 0.65638 0.0
C780 C 0.0338 0.49529 0.55624 0.0
C781 C 0.0632 0.53708 0.66377 0.0
C782 C 0.03224 0.51177 0.5233 0.0
C783 C 0.03229 0.51157 0.45474 0.0
C784 C 0.03437 0.4952 0.41364 0.0
C785 C 0.03587 0.47868 0.44648 0.0
C786 C 0.0353 0.47851 0.51467 0.0
H787 H 0.07543 0.54826 0.70535 0.0
H788 H 0.06926 0.53286 0.62324 0.0
H789 H 0.05678 0.54722 0.6477 0.0
H790 H 0.0307 0.52496 0.55063 0.0
H791 H 0.03093 0.52471 0.43396 0.0
H792 H 0.58476 0.53687 0.89914 0.0
H793 H 0.58503 0.53692 0.78226 0.0
H794 H 0.59867 0.48335 0.77064 0.0
H795 H 0.59995 0.48456 0.88727 0.0
H796 H 0.61366 0.54557 0.69897 0.0
H797 H 0.55237 0.4547 0.61585 0.0
H798 H 0.55804 0.4696 0.69829 0.0
H799 H 0.57211 0.45754 0.67244 0.0
C800 C 0.58785 0.525 0.87232 0.0
C801 C 0.59206 0.5105 0.90621 0.0
C802 C 0.58802 0.52503 0.80393 0.0
C803 C 0.59153 0.50983 0.76357 0.0
C804 C 0.59557 0.49524 0.79735 0.0
H805 H 0.5928 0.47834 0.33125 0.0
H806 H 0.59313 0.47858 0.4483 0.0
C807 C 0.59624 0.49592 0.86602 0.0
C808 C 0.59132 0.50943 0.68814 0.0
H809 H 0.56997 0.47367 0.53573 0.0
C810 C 0.60388 0.52972 0.66391 0.0
C811 C 0.57903 0.48909 0.63883 0.0
C812 C 0.56448 0.4665 0.65724 0.0
C813 C 0.60474 0.53016 0.59589 0.0
C814 C 0.5922 0.50991 0.54637 0.0
C815 C 0.57972 0.48957 0.57069 0.0
C816 C 0.59185 0.50959 0.47081 0.0
C817 C 0.62001 0.55251 0.57827 0.0
C818 C 0.59072 0.52649 0.43899 0.0
C819 C 0.59022 0.52612 0.3705 0.0
C820 C 0.59099 0.50897 0.32829 0.0
C821 C 0.59225 0.49211 0.35991 0.0
C822 C 0.59236 0.4922 0.42835 0.0
H823 H 0.6325 0.56336 0.61938 0.0
H824 H 0.62588 0.5491 0.53595 0.0
H825 H 0.6133 0.56272 0.56598 0.0
H826 H 0.58991 0.54013 0.4671 0.0
H827 H 0.58959 0.53984 0.35092 0.0
H828 H 0.58259 0.05059 0.79797 0.0
H829 H 0.58318 0.05172 0.68197 0.0
H830 H 0.5592 0.09569 0.6909 0.0
H831 H 0.55942 0.0952 0.80689 0.0
H832 H 0.56404 0.03949 0.57075 0.0
H833 H 0.59448 0.13322 0.58676 0.0
H834 H 0.59293 0.12067 0.65836 0.0
H835 H 0.57194 0.12031 0.61668 0.0
C836 C 0.57758 0.06077 0.77577 0.0
C837 C 0.57112 0.07297 0.81499 0.0
C838 C 0.57786 0.06141 0.70764 0.0
C839 C 0.57184 0.07444 0.67318 0.0
C840 C 0.56492 0.08615 0.71268 0.0
H841 H 0.5539 0.09003 0.24795 0.0
H842 H 0.55413 0.0896 0.3648 0.0
C843 C 0.56473 0.08559 0.78078 0.0
C844 C 0.57238 0.07522 0.59774 0.0
H845 H 0.5808 0.1104 0.48071 0.0
C846 C 0.56791 0.0553 0.55236 0.0
C847 C 0.5775 0.09539 0.56865 0.0
C848 C 0.5847 0.11865 0.61013 0.0
C849 C 0.56785 0.05476 0.48338 0.0
C850 C 0.57244 0.07474 0.45426 0.0
C851 C 0.57698 0.09466 0.49945 0.0
C852 C 0.57263 0.07531 0.37881 0.0
C853 C 0.56223 0.03211 0.44172 0.0
C854 C 0.58318 0.06804 0.34243 0.0
C855 C 0.58347 0.06889 0.27438 0.0
C856 C 0.57287 0.07658 0.23657 0.0
C857 C 0.56225 0.08375 0.27266 0.0
C858 C 0.56242 0.08353 0.3412 0.0
H859 H 0.55357 0.01703 0.46521 0.0
H860 H 0.55352 0.02941 0.39375 0.0
H861 H 0.57578 0.03246 0.43392 0.0
H862 H 0.59167 0.0619 0.36697 0.0
H863 H 0.59193 0.06308 0.25085 0.0
H864 H 0.75363 0.83479 0.46864 0.0
H865 H 0.7539 0.83527 0.58547 0.0
H866 H 0.72311 0.87162 0.58377 0.0
H867 H 0.72235 0.87048 0.46754 0.0
H868 H 0.76749 0.86022 0.6971 0.0
H869 H 0.69006 0.83257 0.69109 0.0
H870 H 0.69943 0.83236 0.61759 0.0
H871 H 0.70286 0.859 0.66056 0.0
C872 C 0.74661 0.8427 0.49236 0.0
C873 C 0.73754 0.85211 0.45453 0.0
C874 C 0.74682 0.84305 0.5611 0.0
C875 C 0.73792 0.85277 0.59788 0.0
C876 C 0.72938 0.86276 0.56011 0.0
H877 H 0.72265 0.87076 1.02068 0.0
H878 H 0.72353 0.87112 0.90486 0.0
C879 C 0.72907 0.86227 0.49149 0.0
C880 C 0.73799 0.85285 0.67382 0.0
H881 H 0.71009 0.84621 0.7947 0.0
C882 C 0.75469 0.85693 0.71732 0.0
C883 C 0.72178 0.8488 0.70521 0.0
C884 C 0.70246 0.84271 0.66624 0.0
C885 C 0.7558 0.85761 0.78669 0.0
C886 C 0.73953 0.85348 0.81791 0.0
C887 C 0.72289 0.84947 0.77447 0.0
C888 C 0.73935 0.85338 0.8936 0.0
C889 C 0.7751 0.86381 0.82605 0.0
C890 C 0.74756 0.84312 0.93173 0.0
C891 C 0.74712 0.84302 0.9999 0.0
C892 C 0.73824 0.85292 1.0357 0.0
C893 C 0.72977 0.86285 0.99761 0.0
C894 C 0.73026 0.86302 0.92949 0.0
H895 H 0.78754 0.87404 0.80141 0.0
H896 H 0.778 0.8741 0.87469 0.0
H897 H 0.77477 0.84758 0.83194 0.0
H898 H 0.75413 0.83453 0.90868 0.0
H899 H 0.75373 0.8348 1.0246 0.0
H900 H 0.15031 0.82645 0.54889 0.0
H901 H 0.15041 0.82728 0.66596 0.0
H902 H 0.21313 0.85925 0.70136 0.0
H903 H 0.21307 0.85927 0.58583 0.0
H904 H 0.15662 0.80988 0.76149 0.0
H905 H 0.21606 0.90115 0.84661 0.0
H906 H 0.20577 0.88955 0.76182 0.0
H907 H 0.22441 0.88524 0.80107 0.0
C908 C 0.16427 0.83384 0.58114 0.0
C909 C 0.18168 0.84267 0.55411 0.0
C910 C 0.16435 0.8343 0.64987 0.0
C911 C 0.18184 0.84386 0.69733 0.0
C912 C 0.19916 0.85239 0.66987 0.0
H913 H 0.21394 0.86373 0.14022 0.0
H914 H 0.2133 0.86289 1.02307 0.0
C915 C 0.19909 0.85199 0.60147 0.0
C916 C 0.18192 0.84436 0.77326 0.0
H917 H 0.20654 0.87784 0.92738 0.0
C918 C 0.16762 0.82499 0.79703 0.0
C919 C 0.19594 0.86362 0.82382 0.0
C920 C 0.21129 0.88615 0.80722 0.0
C921 C 0.16726 0.82397 0.86521 0.0
C922 C 0.18132 0.84322 0.91594 0.0
C923 C 0.19556 0.86265 0.89202 0.0
C924 C 0.18166 0.84364 0.99213 0.0
C925 C 0.15193 0.80132 0.88125 0.0
C926 C 0.16443 0.83356 1.02023 0.0
C927 C 0.16482 0.83361 0.08865 0.0
C928 C 0.18248 0.84455 0.13578 0.0
C929 C 0.19979 0.85503 0.10824 0.0
C930 C 0.19939 0.85462 1.03937 0.0
H931 H 0.14715 0.78644 0.84144 0.0
H932 H 0.15746 0.79771 0.9262 0.0
H933 H 0.13878 0.80215 0.88759 0.0
H934 H 0.15022 0.82565 0.98937 0.0
H935 H 0.15086 0.82474 0.10441 0.0
H936 H 0.23095 0.30595 0.67129 0.0
H937 H 0.23004 0.30457 0.78691 0.0
H938 H 0.16982 0.24798 0.7367 0.0
H939 H 0.171 0.24878 0.62183 0.0
H940 H 0.21545 0.31194 0.88028 0.0
H941 H 0.1813 0.21725 0.86123 0.0
H942 H 0.18934 0.23115 0.79315 0.0
H943 H 0.16587 0.22402 0.81308 0.0
C944 C 0.21746 0.29295 0.68417 0.0
C945 C 0.20115 0.27733 0.63386 0.0
C946 C 0.21689 0.29215 0.752 0.0
C947 C 0.20001 0.27564 0.77488 0.0
C948 C 0.18359 0.26045 0.72431 0.0
H949 H 0.16836 0.24368 0.17167 0.0
H950 H 0.16902 0.24512 0.05613 0.0
C951 C 0.1842 0.26112 0.65669 0.0
C952 C 0.19953 0.27477 0.84982 0.0
H953 H 0.18327 0.23789 0.96196 0.0
C954 C 0.20845 0.29553 0.8972 0.0
C955 C 0.19046 0.25382 0.87643 0.0
C956 C 0.18137 0.23032 0.83352 0.0
C957 C 0.20823 0.29601 0.96583 0.0
C958 C 0.19927 0.27506 0.99255 0.0
C959 C 0.19028 0.2543 0.94509 0.0
C960 C 0.19895 0.2742 0.06764 0.0
C961 C 0.21711 0.31949 1.00854 0.0
C962 C 0.2154 0.28948 0.11807 0.0
C963 C 0.21497 0.28871 0.18583 0.0
C964 C 0.19816 0.27233 0.20903 0.0
C965 C 0.18181 0.25671 0.15875 0.0
C966 C 0.18221 0.25757 0.09084 0.0
H967 H 0.21691 0.3324 0.9807 0.0
H968 H 0.20916 0.31854 0.04905 0.0
H969 H 0.23268 0.32607 1.02875 0.0
H970 H 0.22907 0.30212 0.10545 0.0
H971 H 0.22816 0.30118 0.22052 0.0
H972 H 0.33522 0.1675 0.33297 0.0
H973 H 0.32971 0.14699 0.22407 0.0
H974 H 0.35871 0.11408 0.29259 0.0
H975 H 0.36548 0.13467 0.40296 0.0
H976 H 0.38878 0.14956 0.3016 0.0
H977 H 0.35715 0.16929 0.09454 0.0
H978 H 0.34584 0.17333 0.15863 0.0
H979 H 0.34157 0.14465 0.12937 0.0
C980 C 0.3402 0.15545 0.32584 0.0
C981 C 0.35374 0.15575 0.37432 0.0
C982 C 0.33785 0.14446 0.26289 0.0
C983 C 0.35074 0.13668 0.25175 0.0
C984 C 0.3531 0.12542 0.30132 0.0
H985 H 0.44111 0.18545 0.12314 0.0
H986 H 0.44547 0.20321 0.23411 0.0
C987 C 0.35676 0.13699 0.36521 0.0
C988 C 0.36972 0.1546 0.23263 0.0
H989 H 0.38702 0.20139 0.15822 0.0
C990 C 0.388 0.16054 0.26937 0.0
C991 C 0.37018 0.16958 0.19001 0.0
C992 C 0.35259 0.16363 0.14051 0.0
C993 C 0.4056 0.18149 0.27025 0.0
C994 C 0.40604 0.19652 0.22788 0.0
C995 C 0.38779 0.1905 0.1908 0.0
C996 C 0.42502 0.21459 0.20926 0.0
C997 C 0.4232 0.18741 0.31964 0.0
C998 C 0.42278 0.22671 0.16199 0.0
C999 C 0.41964 0.21639 0.09703 0.0
C1000 C 0.42267 0.19772 0.08497 0.0
C1001 C 0.4361 0.19738 0.13238 0.0
C1002 C 0.43787 0.2069 0.19655 0.0
H1003 H 0.41866 0.1819 0.36576 0.0
H1004 H 0.42984 0.17754 0.30166 0.0
H1005 H 0.43432 0.20636 0.33043 0.0
H1006 H 0.41694 0.23771 0.17252 0.0
H1007 H 0.41109 0.2193 0.06029 0.0
H1008 H 0.88616 0.15052 0.46684 0.0
H1009 H 0.86802 0.13474 0.35859 0.0
H1010 H 0.92176 0.16183 0.28526 0.0
H1011 H 0.94035 0.17962 0.39326 0.0
H1012 H 0.89667 0.19006 0.34892 0.0
H1013 H 0.86996 0.12377 0.12318 0.0
H1014 H 0.86627 0.11549 0.20153 0.0
H1015 H 0.89031 0.12861 0.18183 0.0
C1016 C 0.89458 0.15248 0.42894 0.0
C1017 C 0.91485 0.16975 0.43801 0.0
C1018 C 0.88383 0.14278 0.36605 0.0
C1019 C 0.89374 0.14954 0.31445 0.0
C1020 C 0.91389 0.15798 0.32525 0.0
H1021 H 0.89397 0.19599 1.00462 0.0
H1022 H 0.9081 0.21525 0.11482 0.0
C1023 C 0.92466 0.1684 0.388 0.0
C1024 C 0.88758 0.16119 0.27128 0.0
H1025 H 0.87329 0.15971 0.11369 0.0
C1026 C 0.89127 0.18336 0.29741 0.0
C1027 C 0.8808 0.15245 0.20475 0.0
C1028 C 0.8765 0.12875 0.1756 0.0
C1029 C 0.88903 0.19743 0.25769 0.0
C1030 C 0.88273 0.18891 0.19084 0.0
C1031 C 0.87836 0.16637 0.16522 0.0
C1032 C 0.88016 0.20248 0.14491 0.0
C1033 C 0.89408 0.2215 0.28643 0.0
C1034 C 0.86057 0.19548 0.12309 0.0
C1035 C 0.85201 0.18414 0.05888 0.0
C1036 C 0.86348 0.18055 1.01882 0.0
C1037 C 0.88409 0.19609 1.03531 0.0
C1038 C 0.89248 0.20777 0.09917 0.0
H1039 H 0.89803 0.2252 0.34015 0.0
H1040 H 0.90666 0.23457 0.26693 0.0
H1041 H 0.88146 0.22355 0.27197 0.0
H1042 H 0.85101 0.19342 0.15758 0.0
H1043 H 0.83616 0.17461 1.04527 0.0
H1044 H 0.82588 0.58434 0.26918 0.0
H1045 H 0.83813 0.61328 0.19963 0.0
H1046 H 0.86039 0.66815 0.36541 0.0
H1047 H 0.84931 0.64036 0.43478 0.0
H1048 H 0.85536 0.67801 0.22217 0.0
H1049 H 0.90026 0.63942 0.28778 0.0
H1050 H 0.8745 0.62008 0.25513 0.0
H1051 H 0.8822 0.63799 0.33381 0.0
C1052 C 0.83279 0.60249 0.29096 0.0
C1053 C 0.83883 0.60989 0.35859 0.0
C1054 C 0.83949 0.61902 0.25073 0.0
C1055 C 0.85128 0.64272 0.27853 0.0
C1056 C 0.85191 0.64983 0.34354 0.0
H1057 H 0.94407 0.76358 0.1787 0.0
H1058 H 0.93043 0.73593 0.25094 0.0
C1059 C 0.84549 0.63342 0.38362 0.0
C1060 C 0.86798 0.65818 0.24955 0.0
H1061 H 0.91392 0.6706 0.23239 0.0
C1062 C 0.86812 0.6764 0.22397 0.0
C1063 C 0.88475 0.65618 0.25385 0.0
C1064 C 0.88561 0.63747 0.28434 0.0
C1065 C 0.88455 0.69245 0.20066 0.0
C1066 C 0.90129 0.69038 0.20476 0.0
C1067 C 0.90115 0.67222 0.23055 0.0
C1068 C 0.91795 0.70561 0.17526 0.0
C1069 C 0.88373 0.71117 0.17016 0.0
C1070 C 0.91822 0.69759 0.11205 0.0
C1071 C 0.92575 0.71336 0.07048 0.0
C1072 C 0.93173 0.73694 0.09146 0.0
C1073 C 0.93707 0.74526 0.1589 0.0
C1074 C 0.92958 0.72948 0.20085 0.0
H1075 H 0.86896 0.70894 0.16536 0.0
H1076 H 0.89453 0.7285 0.20032 0.0
H1077 H 0.88764 0.71105 0.12133 0.0
H1078 H 0.91011 0.6791 0.09224 0.0
H1079 H 0.9235 0.70591 1.02038 0.0
H1080 H 0.18485 0.33431 0.46568 0.0
H1081 H 0.16859 0.35556 0.44305 0.0
H1082 H 0.12858 0.30063 0.28303 0.0
H1083 H 0.14551 0.27962 0.30337 0.0
H1084 H 0.16174 0.36878 0.31057 0.0
H1085 H 0.09466 0.31396 0.40921 0.0
H1086 H 0.1176 0.31571 0.4348 0.0
H1087 H 0.10289 0.29927 0.35693 0.0
C1088 C 0.17275 0.32672 0.42509 0.0
C1089 C 0.16682 0.30528 0.38573 0.0
C1090 C 0.16336 0.33895 0.41245 0.0
C1091 C 0.14731 0.32982 0.36132 0.0
C1092 C 0.14092 0.30811 0.32286 0.0
H1093 H 0.06578 0.36837 0.21025 0.0
H1094 H 0.0828 0.34964 0.24894 0.0
C1095 C 0.15062 0.29605 0.33465 0.0
C1096 C 0.13751 0.3432 0.34802 0.0
H1097 H 0.09561 0.34382 0.35889 0.0
C1098 C 0.14729 0.36338 0.32124 0.0
C1099 C 0.11872 0.33631 0.36223 0.0
C1100 C 0.10777 0.31522 0.39276 0.0
C1101 C 0.13856 0.37629 0.30616 0.0
C1102 C 0.11963 0.36936 0.32002 0.0
C1103 C 0.11006 0.34937 0.3481 0.0
C1104 C 0.10888 0.38139 0.30125 0.0
C1105 C 0.14945 0.39668 0.27293 0.0
C1106 C 0.11729 0.40565 0.31939 0.0
C1107 C 0.10757 0.41663 0.29616 0.0
C1108 C 0.08909 0.4036 0.2546 0.0
C1109 C 0.08021 0.3792 0.24046 0.0
C1110 C 0.08993 0.36833 0.26314 0.0
H1111 H 0.16099 0.39587 0.25036 0.0
H1112 H 0.13927 0.39739 0.23477 0.0
H1113 H 0.15676 0.41307 0.30919 0.0
H1114 H 0.13155 0.41623 0.35064 0.0
H1115 H 0.11489 0.43539 0.30871 0.0
H1116 H 0.65142 0.58062 0.11505 0.0
H1117 H 0.67123 0.62355 0.13256 0.0
H1118 H 0.62292 0.62616 0.19383 0.0
H1119 H 0.60446 0.58438 0.18274 0.0
H1120 H 0.67219 0.65747 0.08961 0.0
H1121 H 0.66088 0.67252 0.33772 0.0
H1122 H 0.65281 0.64375 0.29624 0.0
H1123 H 0.63744 0.65583 0.28525 0.0
C1124 C 0.6451 0.59036 0.13312 0.0
C1125 C 0.62595 0.57836 0.14747 0.0
C1126 C 0.65651 0.61518 0.14304 0.0
C1127 C 0.64918 0.62901 0.16705 0.0
C1128 C 0.62981 0.6168 0.17861 0.0
H1129 H 0.68061 0.7749 0.19757 0.0
H1130 H 0.66484 0.73249 0.18225 0.0
C1131 C 0.61881 0.59233 0.17068 0.0
C1132 C 0.66121 0.65581 0.17882 0.0
H1133 H 0.67116 0.70491 0.28247 0.0
C1134 C 0.67204 0.66765 0.13238 0.0
C1135 C 0.6617 0.67001 0.23489 0.0
C1136 C 0.65277 0.65985 0.29156 0.0
C1137 C 0.68234 0.69238 0.13909 0.0
C1138 C 0.68183 0.70624 0.19321 0.0
C1139 C 0.67141 0.6946 0.24019 0.0
C1140 C 0.69183 0.73267 0.20173 0.0
C1141 C 0.6935 0.70367 0.08739 0.0
C1142 C 0.71243 0.74763 0.21864 0.0
C1143 C 0.7215 0.7722 0.22848 0.0
C1144 C 0.71036 0.78283 0.22066 0.0
C1145 C 0.6898 0.76777 0.20323 0.0
C1146 C 0.68071 0.74325 0.19467 0.0
H1147 H 0.6907 0.69068 1.04457 0.0
H1148 H 0.68946 0.716 0.07147 0.0
H1149 H 0.70948 0.71382 0.1077 0.0
H1150 H 0.72157 0.7403 0.22507 0.0
H1151 H 0.73735 0.7829 0.24179 0.0
H1152 H 0.45891 0.98807 0.15602 0.0
H1153 H 0.433 0.97847 0.22052 0.0
H1154 H 0.40672 1.00456 0.0919 0.0
H1155 H 0.43273 0.01457 1.02854 0.0
H1156 H 0.40038 0.01015 0.21833 0.0
H1157 H 0.38152 0.92015 0.12519 0.0
H1158 H 0.40529 0.93828 0.17606 0.0
H1159 H 0.40036 0.94519 0.09908 0.0
C1160 C 0.4481 0.9927 0.14348 0.0
C1161 C 0.44758 1.00178 0.0871 0.0
C1162 C 0.43322 0.98703 0.17986 0.0
C1163 C 0.41766 0.99021 0.15977 0.0
C1164 C 0.41849 1.00178 0.10793 0.0
H1165 H 0.29731 0.89554 0.18571 0.0
H1166 H 0.32682 0.92372 0.14813 0.0
C1167 C 0.43333 1.00749 0.07178 0.0
C1168 C 0.3991 0.97824 0.18485 0.0
H1169 H 0.36086 0.924 0.18905 0.0
C1170 C 0.39177 0.99133 0.21243 0.0
C1171 C 0.38762 0.95363 0.17515 0.0
C1172 C 0.39395 0.93843 0.14172 0.0
C1173 C 0.37334 0.98039 0.23142 0.0
C1174 C 0.36219 0.95585 0.22312 0.0
C1175 C 0.36948 0.94284 0.19528 0.0
C1176 C 0.34312 0.9429 0.24435 0.0
C1177 C 0.36574 0.99505 0.25876 0.0
C1178 C 0.34233 0.94488 0.3106 0.0
C1179 C 0.32555 0.92876 0.33192 0.0
C1180 C 0.30941 0.91061 0.28716 0.0
C1181 C 0.30964 0.90957 0.22073 0.0
C1182 C 0.32643 0.92561 0.19942 0.0
H1183 H 0.3735 0.01273 0.24652 0.0
H1184 H 0.34975 0.98662 0.24039 0.0
H1185 H 0.36807 0.99696 0.3123 0.0
H1186 H 0.35514 0.95783 0.34606 0.0
H1187 H 0.32558 0.92965 0.38343 0.0
H1188 H 0.51163 0.06697 0.94018 0.0
H1189 H 0.48899 0.07964 0.90788 0.0
H1190 H 0.53534 0.15108 0.97588 0.0
H1191 H 0.55803 0.13837 1.01134 0.0
H1192 H 0.48225 0.11759 0.99868 0.0
H1193 H 0.50635 0.13643 0.76365 0.0
H1194 H 0.50781 0.11463 0.80184 0.0
H1195 H 0.5246 0.14485 0.8352 0.0
C1196 C 0.51722 0.08547 0.94864 0.0
C1197 C 0.53715 0.10155 0.97765 0.0
C1198 C 0.50404 0.09272 0.92997 0.0
C1199 C 0.51018 0.11645 0.93831 0.0
C1200 C 0.52998 0.13264 0.96812 0.0
H1201 H 0.45235 0.19069 0.80309 0.0
H1202 H 0.47544 0.17892 0.83966 0.0
C1203 C 0.54312 0.12533 0.98824 0.0
C1204 C 0.49595 0.12401 0.915 0.0
H1205 H 0.48155 0.14317 0.78757 0.0
C1206 C 0.48218 0.1232 0.95253 0.0
C1207 C 0.49542 0.13129 0.85457 0.0
C1208 C 0.50923 0.13187 0.81089 0.0
C1209 C 0.46842 0.12964 0.93205 0.0
C1210 C 0.46784 0.13689 0.87135 0.0
C1211 C 0.48167 0.13773 0.83397 0.0
C1212 C 0.45327 0.14386 0.8465 0.0
C1213 C 0.45484 0.12916 0.97664 0.0
C1214 C 0.43271 0.12829 0.83637 0.0
C1215 C 0.41935 0.13491 0.81347 0.0
C1216 C 0.42593 0.15743 0.79983 0.0
C1217 C 0.44648 0.17302 0.81067 0.0
C1218 C 0.45983 0.16629 0.8325 0.0
H1219 H 0.46019 0.12901 1.02716 0.0
H1220 H 0.45319 0.14444 0.9767 0.0
H1221 H 0.44011 0.11318 0.95954 0.0
H1222 H 0.42687 0.11077 0.84549 0.0
H1223 H 0.40375 0.1222 0.80609 0.0
H1224 H 0.93647 0.25412 0.78073 0.0
H1225 H 0.95282 0.29316 0.84627 0.0
H1226 H 0.91534 0.26595 0.98608 0.0
H1227 H 0.89925 0.22659 0.9211 0.0
H1228 H 0.93876 0.32006 0.87824 0.0
H1229 H 0.96745 0.30423 0.10545 0.0
H1230 H 0.9574 0.28325 1.03087 0.0
H1231 H 0.94134 0.28589 0.07947 0.0
C1232 C 0.93187 0.25637 0.82592 0.0
C1233 C 0.91662 0.23715 0.84582 0.0
C1234 C 0.94119 0.2788 0.86334 0.0
C1235 C 0.93559 0.28275 0.92187 0.0
C1236 C 0.92039 0.2635 0.94215 0.0
H1237 H 0.9833 0.41561 0.19508 0.0
H1238 H 0.96212 0.37508 0.13762 0.0
C1239 C 0.91114 0.24093 0.90487 0.0
C1240 C 0.94541 0.30712 0.95994 0.0
H1241 H 0.97228 0.34167 0.10736 0.0
C1242 C 0.94607 0.3247 0.92836 0.0
C1243 C 0.95488 0.31342 1.02572 0.0
C1244 C 0.95542 0.29578 0.06233 0.0
C1245 C 0.956 0.34816 0.96006 0.0
C1246 C 0.9659 0.35452 1.0252 0.0
C1247 C 0.96477 0.33691 0.05747 0.0
C1248 C 0.97831 0.37945 0.05943 0.0
C1249 C 0.95568 0.36593 0.92351 0.0
C1250 C 0.99461 0.39555 1.03527 0.0
C1251 C 0.00664 0.41873 0.06779 0.0
C1252 C 1.0028 0.42654 0.12567 0.0
C1253 C 0.98657 0.41036 0.15025 0.0
C1254 C 0.97449 0.38711 0.11755 0.0
H1255 H 0.94308 0.35766 0.88223 0.0
H1256 H 0.95484 0.37928 0.95581 0.0
H1257 H 0.96938 0.37487 0.90365 0.0
H1258 H 0.99822 0.39011 0.99144 0.0
H1259 H 0.01901 0.43057 1.04736 0.0
H1260 H 0.83289 0.66927 0.81041 0.0
H1261 H 0.80266 0.64958 0.85331 0.0
H1262 H 0.80116 0.58495 0.81549 0.0
H1263 H 0.83209 0.60483 0.77661 0.0
H1264 H 0.7662 0.61294 0.79352 0.0
H1265 H 0.79648 0.5908 1.0043 0.0
H1266 H 0.81189 0.61107 0.95689 0.0
H1267 H 0.79961 0.58025 0.92774 0.0
C1268 C 0.82621 0.65089 0.81153 0.0
C1269 C 0.83469 0.63846 0.78905 0.0
C1270 C 0.80889 0.63967 0.83571 0.0
C1271 C 0.79977 0.61588 0.83765 0.0
C1272 C 0.80814 0.6034 0.81507 0.0
H1273 H 0.69987 0.53039 1.01403 0.0
H1274 H 0.72202 0.54088 0.93531 0.0
C1275 C 0.82566 0.61471 0.79197 0.0
C1276 C 0.78161 0.60429 0.86417 0.0
H1277 H 0.76244 0.57606 0.98642 0.0
C1278 C 0.76528 0.60472 0.83544 0.0
C1279 C 0.78062 0.59377 0.91905 0.0
C1280 C 0.79812 0.59409 0.95426 0.0
C1281 C 0.74795 0.59503 0.8607 0.0
C1282 C 0.74702 0.58464 0.9157 0.0
C1283 C 0.76317 0.58372 0.94345 0.0
C1284 C 0.73046 0.57703 0.95032 0.0
C1285 C 0.7309 0.59628 0.82914 0.0
C1286 C 0.7276 0.5938 0.98307 0.0
C1287 C 0.71515 0.5879 1.02801 0.0
C1288 C 0.70538 0.56516 1.04055 0.0
C1289 C 0.70712 0.54796 1.00438 0.0
C1290 C 0.71975 0.55393 0.95976 0.0
H1291 H 0.73188 0.59896 0.77835 0.0
H1292 H 0.71671 0.58018 0.82953 0.0
H1293 H 0.73099 0.6112 0.8566 0.0
H1294 H 0.73603 0.6118 0.97729 0.0
H1295 H 0.71403 0.6014 0.05577 0.0
H1296 H 0.89843 0.64991 0.91981 0.0
H1297 H 0.91314 0.63042 0.97275 0.0
H1298 H 0.92703 0.613 0.7915 0.0
H1299 H 0.9135 0.63306 0.73943 0.0
H1300 H 0.90273 0.58458 0.94229 0.0
H1301 H 0.97952 0.64392 0.91141 0.0
H1302 H 0.96082 0.65105 0.8984 0.0
H1303 H 0.96173 0.63119 0.83755 0.0
C1304 C 0.90477 0.64208 0.89162 0.0
C1305 C 0.905 0.64327 0.82584 0.0
C1306 C 0.91311 0.63098 0.92168 0.0
C1307 C 0.92151 0.62083 0.88597 0.0
C1308 C 0.92115 0.62136 0.82009 0.0
H1309 H 0.9511 0.52811 0.0558 0.0
H1310 H 0.94152 0.54373 0.96906 0.0
C1311 C 0.91323 0.63273 0.79047 0.0
C1312 C 0.93019 0.60904 0.91701 0.0
H1313 H 0.97308 0.61058 0.95554 0.0
C1314 C 0.91807 0.59015 0.94506 0.0
C1315 C 0.95016 0.61634 0.91929 0.0
C1316 C 0.96387 0.63685 0.89052 0.0
C1317 C 0.92561 0.5788 0.97796 0.0
C1318 C 0.94567 0.58645 0.98175 0.0
C1319 C 0.95765 0.60474 0.95152 0.0
C1320 C 0.95493 0.57826 1.02636 0.0
C1321 C 0.91234 0.55953 1.01135 0.0
C1322 C 0.96619 0.5929 0.08564 0.0
C1323 C 0.97147 0.58406 0.13505 0.0
C1324 C 0.96565 0.56053 0.12538 0.0
C1325 C 0.95558 0.54629 0.0643 0.0
C1326 C 0.9502 0.55514 1.01487 0.0
H1327 H 0.89771 0.55753 1.00945 0.0
H1328 H 0.91016 0.5428 0.98758 0.0
H1329 H 0.91919 0.56296 0.06289 0.0
H1330 H 0.96992 0.61082 0.09488 0.0
H1331 H 0.97966 0.59542 0.18133 0.0
H1332 H 0.55797 0.42507 0.13067 0.0
H1333 H 0.53295 0.38357 0.09068 0.0
H1334 H 0.51215 0.40088 0.92198 0.0
H1335 H 0.53696 0.44228 0.96167 0.0
H1336 H 0.48353 0.36513 1.02921 0.0
H1337 H 0.52769 0.34307 0.88469 0.0
H1338 H 0.53911 0.36486 0.95803 0.0
H1339 H 0.52991 0.37098 0.88668 0.0
C1340 C 0.54809 0.42012 0.08505 0.0
C1341 C 0.54951 0.43742 0.05021 0.0
C1342 C 0.53369 0.39624 0.06211 0.0
C1343 C 0.52036 0.38874 1.00314 0.0
C1344 C 0.52201 0.40592 0.96772 0.0
H1345 H 0.4249 0.26045 0.75694 0.0
H1346 H 0.45092 0.29981 0.80945 0.0
C1347 C 0.53628 0.42977 0.99079 0.0
C1348 C 0.50463 0.36319 0.97877 0.0
H1349 H 0.49459 0.31353 0.87888 0.0
C1350 C 0.48608 0.35384 0.99696 0.0
C1351 C 0.50762 0.34816 0.93611 0.0
C1352 C 0.52712 0.35705 0.91493 0.0
C1353 C 0.47066 0.3303 0.97344 0.0
C1354 C 0.47357 0.3153 0.93033 0.0
C1355 C 0.49216 0.32465 0.91232 0.0
C1356 C 0.45708 0.29055 0.89982 0.0
C1357 C 0.45101 0.32166 0.9932 0.0
C1358 C 0.45122 0.2716 0.93277 0.0
C1359 C 0.43609 0.24856 0.90232 0.0
C1360 C 0.42634 0.24375 0.83783 0.0
C1361 C 0.43199 0.263 0.80616 0.0
C1362 C 0.44704 0.28579 0.83627 0.0
H1363 H 0.4508 0.33538 1.02612 0.0
H1364 H 0.43947 0.31539 0.94942 0.0
H1365 H 0.44726 0.30667 1.01794 0.0
H1366 H 0.45856 0.27455 0.9819 0.0
H1367 H 0.43238 0.23448 0.92876 0.0
H1368 H 0.85394 0.18832 0.88915 0.0
H1369 H 0.82437 0.18215 0.92973 0.0
H1370 H 0.78827 0.13661 0.74933 0.0
H1371 H 0.81755 0.14213 0.7097 0.0
H1372 H 0.79435 0.19069 0.87162 0.0
H1373 H 0.76299 0.09765 0.8887 0.0
H1374 H 0.78861 0.117 0.88616 0.0
H1375 H 0.77044 0.10539 0.81331 0.0
C1376 C 0.83966 0.17671 0.85867 0.0
C1377 C 0.83813 0.16557 0.79641 0.0
C1378 C 0.82277 0.17335 0.88164 0.0
C1379 C 0.80397 0.15867 0.84298 0.0
C1380 C 0.80249 0.14771 0.78064 0.0
H1381 H 0.68366 0.10916 0.90921 0.0
H1382 H 0.71231 0.11759 0.85918 0.0
C1383 C 0.81932 0.15106 0.75778 0.0
C1384 C 0.78589 0.15493 0.86709 0.0
H1385 H 0.74304 0.11313 0.90576 0.0
C1386 C 0.78318 0.17375 0.87936 0.0
C1387 C 0.77112 0.13279 0.87656 0.0
C1388 C 0.77339 0.11203 0.86606 0.0
C1389 C 0.76612 0.17101 0.9001 0.0
C1390 C 0.75144 0.14891 0.91054 0.0
C1391 C 0.75412 0.13006 0.89771 0.0
C1392 C 0.73373 0.14517 0.93774 0.0
C1393 C 0.76382 0.19176 0.9092 0.0
C1394 C 0.73599 0.15789 0.99832 0.0
C1395 C 0.71966 0.15306 1.02684 0.0
C1396 C 0.70052 0.13535 0.99571 0.0
C1397 C 0.69813 0.1231 0.93411 0.0
C1398 C 0.71455 0.12781 0.90573 0.0
H1399 H 0.77248 0.20462 0.87936 0.0
H1400 H 0.74819 0.18648 0.89628 0.0
H1401 H 0.76932 0.20058 0.96074 0.0
H1402 H 0.7505 0.17105 1.0249 0.0
H1403 H 0.72206 0.16281 0.07437 0.0
H1404 H 0.62868 0.06517 1.02906 0.0
H1405 H 0.64594 0.04441 0.04851 0.0
H1406 H 0.5996 0.99758 0.14058 0.0
H1407 H 0.58303 0.01889 0.1231 0.0
H1408 H 0.66063 0.0353 0.1584 0.0
H1409 H 0.60155 0.95146 1.00809 0.0
H1410 H 0.60204 0.97826 1.00634 0.0
H1411 H 0.59298 0.96218 0.06999 0.0
C1412 C 0.62223 0.05048 0.05359 0.0
C1413 C 0.604 0.04313 0.07251 0.0
C1414 C 0.63209 0.0385 0.06454 0.0
C1415 C 0.62387 0.01873 0.09421 0.0
C1416 C 0.60604 0.01209 0.11535 0.0
H1417 H 0.65405 0.92071 0.22342 0.0
H1418 H 0.63815 0.94156 0.18876 0.0
C1419 C 0.59638 0.02417 0.10487 0.0
C1420 C 0.63391 1.00525 0.10422 0.0
H1421 H 0.62641 0.9503 0.07694 0.0
C1422 C 0.65318 0.01675 0.13999 0.0
C1423 C 0.62439 0.98095 0.08043 0.0
C1424 C 0.60418 0.96751 1.03853 0.0
C1425 C 0.66276 1.00468 0.15466 0.0
C1426 C 0.6531 0.98028 0.1318 0.0
C1427 C 0.63396 0.96887 0.09498 0.0
C1428 C 0.66226 0.9662 0.14747 0.0
C1429 C 0.68291 0.01816 0.19692 0.0
C1430 C 0.68089 0.9722 0.13387 0.0
C1431 C 0.68996 0.96017 0.15366 0.0
C1432 C 0.68053 0.94146 0.18635 0.0
C1433 C 0.66156 0.93473 0.19725 0.0
C1434 C 0.65251 0.94682 0.17776 0.0
H1435 H 0.68587 0.03475 0.22503 0.0
H1436 H 0.68465 0.00779 0.23139 0.0
H1437 H 0.69415 0.02255 0.16587 0.0
H1438 H 0.68866 0.98654 0.10907 0.0
H1439 H 0.70469 0.96603 0.14537 0.0
H1440 H 0.17341 0.76652 0.35072 0.0
H1441 H 0.15434 0.72412 0.32821 0.0
H1442 H 0.10266 0.72493 0.25537 0.0
H1443 H 0.12227 0.76752 0.2725 0.0
H1444 H 0.1276 0.69303 0.37127 0.0
H1445 H 0.09238 0.67623 0.11607 0.0
H1446 H 0.11136 0.70505 0.15742 0.0
H1447 H 0.08634 0.69302 0.16903 0.0
C1448 C 0.15813 0.75783 0.3282 0.0
C1449 C 0.14979 0.771 0.31197 0.0
C1450 C 0.14699 0.73321 0.31584 0.0
C1451 C 0.12678 0.72042 0.28806 0.0
C1452 C 0.11824 0.73362 0.2739 0.0
H1453 H 0.03839 0.56693 0.19633 0.0
H1454 H 0.05488 0.60958 0.21474 0.0
C1455 C 0.12955 0.75832 0.28463 0.0
C1456 C 0.11491 0.69367 0.27714 0.0
H1457 H 0.08123 0.64357 0.16766 0.0
C1458 C 0.11762 0.68242 0.32624 0.0
C1459 C 0.10137 0.67901 0.21912 0.0
C1460 C 0.0978 0.68892 0.16222 0.0
C1461 C 0.10758 0.65779 0.31956 0.0
C1462 C 0.09437 0.64314 0.26118 0.0
C1463 C 0.09128 0.6543 0.21248 0.0
C1464 C 0.08398 0.61651 0.24955 0.0
C1465 C 0.11097 0.64784 0.37669 0.0
C1466 C 0.09441 0.6053 0.26157 0.0
C1467 C 0.08482 0.58077 0.2524 0.0
C1468 C 0.0645 0.56616 0.2287 0.0
C1469 C 0.05407 0.57729 0.2147 0.0
C1470 C 0.06359 0.60192 0.22518 0.0
H1471 H 0.11555 0.66021 0.42298 0.0
H1472 H 0.09757 0.63123 0.37982 0.0
H1473 H 0.12299 0.64459 0.37171 0.0
H1474 H 0.11017 0.6155 0.27762 0.0
H1475 H 0.09352 0.57329 0.26279 0.0
H1476 H 0.47097 0.4613 0.19782 0.0
H1477 H 0.44329 0.44621 0.25512 0.0
H1478 H 0.42208 0.37643 0.15749 0.0
H1479 H 0.45001 0.39123 0.10168 0.0
H1480 H 0.40386 0.42199 0.19449 0.0
H1481 H 0.41869 0.3688 0.34596 0.0
H1482 H 0.43735 0.39088 0.3102 0.0
H1483 H 0.41979 0.36261 0.26231 0.0
C1484 C 0.46065 0.44269 0.18954 0.0
C1485 C 0.46266 0.42746 0.14485 0.0
C1486 C 0.44478 0.43412 0.22206 0.0
C1487 C 0.43072 0.41019 0.21089 0.0
C1488 C 0.43292 0.39492 0.16756 0.0
H1489 H 0.31928 0.3198 0.32146 0.0
H1490 H 0.34767 0.33705 0.26663 0.0
C1491 C 0.44876 0.40344 0.13505 0.0
C1492 C 0.41293 0.40128 0.24049 0.0
H1493 H 0.38639 0.36217 0.33307 0.0
C1494 C 0.40008 0.40904 0.22525 0.0
C1495 C 0.40807 0.38441 0.28053 0.0
C1496 C 0.42178 0.37633 0.30131 0.0
C1497 C 0.38217 0.39981 0.24726 0.0
C1498 C 0.37714 0.38261 0.28631 0.0
C1499 C 0.39016 0.37514 0.3024 0.0
C1500 C 0.35878 0.37254 0.31292 0.0
C1501 C 0.36858 0.40811 0.2271 0.0
C1502 C 0.3555 0.3868 0.35624 0.0
C1503 C 0.33938 0.37697 0.38733 0.0
C1504 C 0.32633 0.35278 0.37558 0.0
C1505 C 0.32916 0.33853 0.33069 0.0
C1506 C 0.34534 0.34836 0.29968 0.0
H1507 H 0.37195 0.41622 0.18344 0.0
H1508 H 0.353 0.39355 0.21687 0.0
H1509 H 0.37037 0.42143 0.26704 0.0
H1510 H 0.36584 0.40542 0.36809 0.0
H1511 H 0.33745 0.38817 0.42224 0.0
H1512 H 0.83352 0.6807 0.62929 0.0
H1513 H 0.82191 0.70417 0.58448 0.0
H1514 H 0.88078 0.75314 0.55873 0.0
H1515 H 0.8918 0.72806 0.59695 0.0
H1516 H 0.83061 0.7452 0.63035 0.0
H1517 H 0.85188 0.74636 0.38844 0.0
H1518 H 0.85308 0.72764 0.44064 0.0
H1519 H 0.87239 0.75787 0.4535 0.0
C1520 C 0.8437 0.69602 0.61146 0.0
C1521 C 0.86331 0.70251 0.61459 0.0
C1522 C 0.8372 0.70959 0.587 0.0
C1523 C 0.85045 0.73034 0.56782 0.0
C1524 C 0.87017 0.73684 0.5712 0.0
H1525 H 0.82285 0.8226 0.39503 0.0
H1526 H 0.8383 0.81283 0.48237 0.0
C1527 C 0.87645 0.7226 0.59288 0.0
C1528 C 0.84343 0.74513 0.54554 0.0
H1529 H 0.83906 0.76962 0.4172 0.0
C1530 C 0.83255 0.75065 0.58385 0.0
C1531 C 0.84601 0.75223 0.48493 0.0
C1532 C 0.85629 0.74553 0.43926 0.0
C1533 C 0.82342 0.76215 0.56163 0.0
C1534 C 0.82588 0.76892 0.50102 0.0
C1535 C 0.83759 0.76461 0.46438 0.0
C1536 C 0.81418 0.77714 0.46886 0.0
C1537 C 0.81059 0.76621 0.60137 0.0
C1538 C 0.79524 0.76046 0.43484 0.0
C1539 C 0.78662 0.76581 0.38431 0.0
C1540 C 0.79679 0.78797 0.36814 0.0
C1541 C 0.81477 0.80541 0.40704 0.0
C1542 C 0.82354 0.79994 0.457 0.0
H1543 H 0.81237 0.76289 0.65129 0.0
H1544 H 0.81405 0.78436 0.60393 0.0
H1545 H 0.79498 0.75438 0.57752 0.0
H1546 H 0.78802 0.74269 0.44298 0.0
H1547 H 0.77269 0.75222 0.35488 0.0
H1548 H 0.32191 0.11656 0.61199 0.0
H1549 H 0.29528 0.07633 0.56637 0.0
H1550 H 0.33797 0.0563 0.55492 0.0
H1551 H 0.36427 0.09599 0.60579 0.0
H1552 H 0.28213 0.04658 0.46384 0.0
H1553 H 0.30466 1.00602 0.63924 0.0
H1554 H 0.31661 0.03715 0.64773 0.0
H1555 H 0.32359 0.02119 0.59431 0.0
C1556 C 0.32562 0.10357 0.59938 0.0
C1557 C 0.3454 0.1098 0.61222 0.0
C1558 C 0.31027 0.08035 0.57317 0.0
C1559 C 0.31408 0.06239 0.5582 0.0
C1560 C 0.33406 0.06904 0.568 0.0
H1561 H 0.24426 0.91117 0.40798 0.0
H1562 H 0.26933 0.95224 0.44579 0.0
C1563 C 0.34933 0.09211 0.59583 0.0
C1564 C 0.29731 0.0371 0.5324 0.0
H1565 H 0.2802 0.98029 0.54839 0.0
C1566 C 0.28178 0.03217 0.48283 0.0
C1567 C 0.29622 0.0177 0.55648 0.0
C1568 C 0.31105 0.02078 0.6128 0.0
C1569 C 0.26601 0.00908 0.45572 0.0
C1570 C 0.26517 0.98966 0.47884 0.0
C1571 C 0.28055 0.99465 0.52912 0.0
C1572 C 0.24908 0.96418 0.45135 0.0
C1573 C 0.25076 1.00596 0.40094 0.0
C1574 C 0.22878 0.95615 0.44019 0.0
C1575 C 0.21426 0.93238 0.41556 0.0
C1576 C 0.21937 0.91549 0.40376 0.0
C1577 C 0.23956 0.92343 0.41595 0.0
C1578 C 0.25406 0.94718 0.43832 0.0
H1579 H 0.25655 0.02111 0.37588 0.0
H1580 H 0.24552 0.99002 0.36463 0.0
H1581 H 0.23806 1.00456 0.42082 0.0
H1582 H 0.22396 0.9681 0.45183 0.0
H1583 H 0.19901 0.92716 0.40815 0.0
H1584 H 0.94909 0.22354 0.68255 0.0
H1585 H 0.97981 0.23063 0.64945 0.0
H1586 H 0.95469 0.15671 0.59656 0.0
H1587 H 0.92401 0.14953 0.62893 0.0
H1588 H 1.00402 0.2053 0.69413 0.0
H1589 H 0.97528 0.19246 0.43244 0.0
H1590 H 0.96628 0.20259 0.49504 0.0
H1591 H 0.95953 0.17272 0.48034 0.0
C1592 C 0.95012 0.20879 0.66391 0.0
C1593 C 0.93411 0.18594 0.65919 0.0
C1594 C 0.96775 0.21287 0.64543 0.0
C1595 C 0.96971 0.19421 0.62113 0.0
C1596 C 0.95368 0.17141 0.61575 0.0
H1597 H 0.05226 0.18197 0.41075 0.0
H1598 H 0.02461 0.17528 0.46345 0.0
C1599 C 0.93612 0.16733 0.63448 0.0
C1600 C 0.98806 0.19844 0.59816 0.0
H1601 H 0.00664 0.19841 0.45988 0.0
C1602 C 1.00468 0.20392 0.64297 0.0
C1603 C 0.98894 0.19648 0.53155 0.0
C1604 C 0.97165 0.19084 0.48166 0.0
C1605 C 0.02195 0.20709 0.62263 0.0
C1606 C 0.02284 0.20522 0.55561 0.0
C1607 C 0.00617 0.19985 0.51118 0.0
C1608 C 0.04062 0.20841 0.52969 0.0
C1609 C 0.03883 0.21166 0.67305 0.0
C1610 C 0.05919 0.22908 0.54976 0.0
C1611 C 0.07519 0.23273 0.52023 0.0
C1612 C 0.07293 0.21597 0.46927 0.0
C1613 C 0.05453 0.19513 0.45029 0.0
C1614 C 0.03866 0.19136 0.48023 0.0
H1615 H 0.03392 0.20593 0.71856 0.0
H1616 H 0.04613 0.20262 0.65503 0.0
H1617 H 0.04982 0.23063 0.68483 0.0
H1618 H 0.06115 0.24287 0.58633 0.0
H1619 H 0.08905 0.24917 0.53488 0.0
H1620 H 0.36772 0.22712 0.63865 0.0
H1621 H 0.34406 0.23801 0.60093 0.0
H1622 H 0.29648 0.17143 0.62316 0.0
H1623 H 0.32 0.16031 0.659 0.0
H1624 H 0.31345 0.22004 0.4967 0.0
H1625 H 0.28247 0.21407 0.7204 0.0
H1626 H 0.30493 0.21443 0.71746 0.0
H1627 H 0.28157 0.18796 0.68796 0.0
C1628 C 0.35222 0.2147 0.63558 0.0
C1629 C 0.34605 0.19285 0.6536 0.0
C1630 C 0.33856 0.22102 0.61385 0.0
C1631 C 0.31814 0.20589 0.60981 0.0
C1632 C 0.31198 0.18394 0.62701 0.0
H1633 H 0.21349 0.2118 0.44497 0.0
H1634 H 0.23579 0.19856 0.48046 0.0
C1635 C 0.3256 0.17754 0.64804 0.0
C1636 C 0.30339 0.21276 0.58669 0.0
H1637 H 0.2656 0.21852 0.62889 0.0
C1638 C 0.30304 0.21965 0.52595 0.0
C1639 C 0.28961 0.21266 0.62406 0.0
C1640 C 0.28971 0.20712 0.69134 0.0
C1641 C 0.2894 0.22578 0.50172 0.0
C1642 C 0.27547 0.2253 0.53861 0.0
C1643 C 0.27588 0.21862 0.59949 0.0
C1644 C 0.26132 0.23305 0.51643 0.0
C1645 C 0.28988 0.23276 0.43626 0.0
C1646 C 0.26775 0.25683 0.52442 0.0
C1647 C 0.25478 0.26436 0.50611 0.0
C1648 C 0.23481 0.2486 0.47749 0.0
C1649 C 0.22847 0.22469 0.46775 0.0
C1650 C 0.24139 0.21705 0.4878 0.0
H1651 H 0.2998 0.22969 0.40983 0.0
H1652 H 0.27487 0.22291 0.40635 0.0
H1653 H 0.295 0.25155 0.44248 0.0
H1654 H 0.28291 0.26977 0.54573 0.0
H1655 H 0.26052 0.28278 0.51459 0.0
H1656 H 0.75293 0.91799 0.40035 0.0
H1657 H 0.77358 0.95858 0.45555 0.0
H1658 H 0.80986 0.97319 0.3098 0.0
H1659 H 0.78831 0.93302 0.25167 0.0
H1660 H 0.81151 0.98488 0.51099 0.0
H1661 H 0.79894 0.02413 0.30767 0.0
H1662 H 0.7848 0.99323 0.30644 0.0
H1663 H 0.80917 1.00669 0.28825 0.0
C1664 C 0.76517 0.92988 0.3795 0.0
C1665 C 0.76898 0.9221 0.32153 0.0
C1666 C 0.77709 0.95312 0.4115 0.0
C1667 C 0.79321 0.96925 0.38663 0.0
C1668 C 0.79728 0.9614 0.32939 0.0
H1669 H 0.87421 0.12059 0.52911 0.0
H1670 H 0.85836 0.0807 0.4673 0.0
C1671 C 0.7851 0.93824 0.29663 0.0
C1672 C 0.80551 0.99417 0.4207 0.0
H1673 H 0.82141 0.05013 0.40125 0.0
C1674 C 0.81365 0.99911 0.48683 0.0
C1675 C 0.80857 0.01295 0.38944 0.0
C1676 C 0.79978 0.00904 0.31922 0.0
C1677 C 0.82452 0.02206 0.52242 0.0
C1678 C 0.82707 0.04074 0.49157 0.0
C1679 C 0.81945 0.0359 0.42508 0.0
C1680 C 0.83666 0.06517 0.52802 0.0
C1681 C 0.8333 0.02603 0.59272 0.0
C1682 C 0.82949 0.06999 0.58157 0.0
C1683 C 0.83849 0.09268 0.61655 0.0
C1684 C 0.85469 0.11131 0.59829 0.0
C1685 C 0.86153 0.10671 0.54352 0.0
C1686 C 0.85259 0.08386 0.50865 0.0
H1687 H 0.83584 0.01193 0.60266 0.0
H1688 H 0.84745 0.04296 0.60736 0.0
H1689 H 0.82293 0.02603 0.62338 0.0
H1690 H 0.81688 0.05615 0.59649 0.0
H1691 H 0.83276 0.09563 0.65831 0.0
H1692 H 0.94301 0.68488 0.6975 0.0
H1693 H 0.97499 0.70523 0.66502 0.0
H1694 H 0.96253 0.75569 0.60265 0.0
H1695 H 0.93087 0.73597 0.63802 0.0
H1696 H 0.98014 0.70955 0.54594 0.0
H1697 H 0.0179 0.79766 0.69601 0.0
H1698 H 0.99595 0.77347 0.71329 0.0
H1699 H 0.99429 0.78964 0.65312 0.0
C1700 C 0.94725 0.70049 0.67754 0.0
C1701 C 0.93459 0.70888 0.66955 0.0
C1702 C 0.96551 0.71213 0.65943 0.0
C1703 C 0.97122 0.73214 0.63244 0.0
C1704 C 0.95865 0.74071 0.62528 0.0
H1705 H 0.04081 0.80223 0.37329 0.0
H1706 H 0.02032 0.78855 0.4554 0.0
C1707 C 0.94053 0.72932 0.64469 0.0
C1708 C 0.9893 0.74248 0.6052 0.0
H1709 H 0.0299 0.79422 0.59722 0.0
C1710 C 0.99128 0.72797 0.55824 0.0
C1711 C 1.00377 0.76648 0.62156 0.0
C1712 C 1.00297 0.78263 0.67427 0.0
C1713 C 0.00676 0.73708 0.52421 0.0
C1714 C 0.02061 0.76128 0.53809 0.0
C1715 C 0.01919 0.77565 0.58709 0.0
C1716 C 0.03496 0.77219 0.49613 0.0
C1717 C 0.00754 0.72102 0.47106 0.0
C1718 C 0.05019 0.76792 0.49348 0.0
C1719 C 0.06185 0.77564 0.4465 0.0
C1720 C 0.05826 0.78758 0.40179 0.0
C1721 C 0.0436 0.79275 0.40674 0.0
C1722 C 0.03206 0.78516 0.45379 0.0
H1723 H 0.99414 0.70327 0.46079 0.0
H1724 H 0.00929 0.72819 0.42568 0.0
H1725 H 0.02042 0.71948 0.4857 0.0
H1726 H 0.05258 0.75796 0.52617 0.0
H1727 H 0.07309 0.77147 0.44338 0.0
loop_
_geom_bond_atom_site_label_1
_geom_bond_atom_site_label_2
_geom_bond_distance
_geom_bond_site_symmetry_2
_ccdc_geom_bond_type
Eu0 N29 2.600 . S
Eu0 N35 2.562 . S
Eu0 O44 2.462 . S
Eu0 O45 2.373 . S
Eu0 O47 2.432 . S
Eu0 O48 2.291 1_655 S
Eu0 O52 2.335 1_655 S
Eu0 O55 2.372 1_655 S
Eu0 C64 2.787 . S
C1 N2 1.365 . S
C1 C4 1.405 . S
C1 C8 1.448 . S
N2 C1 1.365 . S
N2 C5 1.319 . S
N2 Eu11 2.600 . S
C3 C5 1.397 . S
C3 C6 1.367 . S
C3 H23 0.931 1_554 S
C4 C1 1.405 . S
C4 C6 1.403 . S
C4 C10 1.439 . S
C5 N2 1.319 . S
C5 C3 1.397 . S
C5 H16 0.930 . S
C6 C3 1.367 . S
C6 C4 1.403 . S
C6 H27 0.929 . S
C7 C8 1.430 . S
C7 C9 1.387 . S
C7 C13 1.404 . S
C8 C1 1.448 . S
C8 C7 1.430 . S
C8 N12 1.351 . S
C9 C7 1.387 . S
C9 C10 1.374 . S
C9 H24 0.931 . S
C10 C4 1.439 . S
C10 C9 1.374 . S
C10 H25 0.931 . S
Eu11 N2 2.600 . S
Eu11 N12 2.562 . S
Eu11 O46 2.335 . S
Eu11 O49 2.372 . S
Eu11 O50 2.462 . S
Eu11 O51 2.373 . S
Eu11 O53 2.432 . S
Eu11 O54 2.291 . S
Eu11 C75 2.787 . S
N12 C8 1.351 . S
N12 Eu11 2.562 . S
N12 C14 1.325 . S
C13 C7 1.404 . S
C13 C15 1.366 . S
C13 H21 0.930 . S
C14 N12 1.325 . S
C14 C15 1.416 . S
C14 H20 0.929 . S
C15 C13 1.366 . S
C15 C14 1.416 . S
C15 H17 0.930 . S
H16 C5 0.930 . S
H17 C15 0.930 . S
H18 C33 0.930 . S
H19 C40 0.930 . S
H20 C14 0.929 . S
H21 C13 0.930 . S
H22 C36 0.929 . S
H23 C3 0.931 1_556 S
H24 C9 0.931 . S
H25 C10 0.931 . S
H26 C31 0.931 . S
H27 C6 0.929 . S
H28 C39 0.930 . S
N29 Eu0 2.600 . S
N29 C30 1.365 . S
N29 C33 1.319 . S
C30 N29 1.365 . S
C30 C32 1.405 . S
C30 C38 1.448 . S
C31 H26 0.931 . S
C31 C33 1.397 . S
C31 C34 1.367 . S
C32 C30 1.405 . S
C32 C34 1.403 . S
C32 C65 1.439 . S
C33 H18 0.930 . S
C33 N29 1.319 . S
C33 C31 1.397 . S
C34 C31 1.367 . S
C34 C32 1.403 . S
C34 H41 0.929 . S
N35 Eu0 2.562 . S
N35 C36 1.325 1_554 S
N35 C38 1.351 . S
C36 H22 0.929 . S
C36 N35 1.325 1_556 S
C36 C40 1.416 . S
C37 C38 1.430 . S
C37 C39 1.404 1_554 S
C37 C66 1.387 . S
C38 C30 1.448 . S
C38 N35 1.351 . S
C38 C37 1.430 . S
C39 H28 0.930 . S
C39 C37 1.404 1_556 S
C39 C40 1.366 . S
C40 H19 0.930 . S
C40 C36 1.416 . S
C40 C39 1.366 . S
H41 C34 0.929 . S
H42 C65 0.931 . S
H43 C66 0.931 . S
O44 Eu0 2.462 . S
O44 C64 1.252 . S
O45 Eu0 2.373 . S
O45 C56 1.249 . S
O46 Eu11 2.335 . S
O46 C56 1.264 1_455 S
O47 Eu0 2.432 . S
O47 C64 1.268 . S
O48 Eu0 2.291 1_455 S
O48 C63 1.255 . S
O49 Eu11 2.372 . S
O49 C63 1.257 . S
O50 Eu11 2.462 . S
O50 C75 1.252 . S
O51 Eu11 2.373 . S
O51 C67 1.249 . S
O52 Eu0 2.335 1_455 S
O52 C67 1.264 . S
O53 Eu11 2.432 . S
O53 C75 1.268 . S
O54 Eu11 2.291 . S
O54 C74 1.255 . S
O55 Eu0 2.372 1_455 S
O55 C74 1.257 . S
C56 O45 1.249 . S
C56 O46 1.264 1_655 S
C57 C60 1.382 . S
C57 C62 1.390 . S
C57 C64 1.506 . S
C58 C59 1.398 . S
C58 C62 1.392 . S
C59 C58 1.398 . S
C59 C61 1.372 . S
C59 H76 0.931 . S
C60 C57 1.382 . S
C60 C61 1.390 . S
C60 H77 0.931 . S
C61 C59 1.372 . S
C61 C60 1.390 . S
C61 H78 0.929 . S
C62 C57 1.390 . S
C62 C58 1.392 . S
C62 H79 0.930 . S
C63 O48 1.255 . S
C63 O49 1.257 . S
C64 Eu0 2.787 . S
C64 O44 1.252 . S
C64 O47 1.268 . S
C64 C57 1.506 . S
C65 C32 1.439 . S
C65 H42 0.931 . S
C65 C66 1.374 . S
C66 C37 1.387 . S
C66 H43 0.931 . S
C66 C65 1.374 . S
C67 O51 1.249 . S
C67 O52 1.264 . S
C68 C71 1.382 . S
C68 C72 1.390 . S
C68 C75 1.506 . S
C69 C70 1.398 . S
C69 C72 1.392 . S
C70 C69 1.398 . S
C70 C73 1.372 . S
C70 H80 0.931 . S
C71 C68 1.382 . S
C71 C73 1.390 . S
C71 H81 0.931 . S
C72 C68 1.390 . S
C72 C69 1.392 . S
C72 H82 0.930 . S
C73 C70 1.372 . S
C73 C71 1.390 . S
C73 H83 0.929 . S
C74 O54 1.255 . S
C74 O55 1.257 . S
C75 Eu11 2.787 . S
C75 O50 1.252 . S
C75 O53 1.268 . S
C75 C68 1.506 . S
H76 C59 0.931 . S
H77 C60 0.931 . S
H78 C61 0.929 . S
H79 C62 0.930 . S
H80 C70 0.931 . S
H81 C71 0.931 . S
H82 C72 0.930 . S
H83 C73 0.929 . S
Eu84 N113 2.600 . S
Eu84 N119 2.562 . S
Eu84 O128 2.462 . S
Eu84 O129 2.373 . S
Eu84 O131 2.432 . S
Eu84 O132 2.291 . S
Eu84 O136 2.335 . S
Eu84 O139 2.372 1_554 S
Eu84 C148 2.787 . S
C85 N86 1.365 . S
C85 C88 1.405 . S
C85 C92 1.448 . S
N86 C85 1.365 . S
N86 C89 1.319 . S
N86 Eu95 2.600 . S
C87 C89 1.397 . S
C87 C90 1.367 . S
C87 H107 0.931 . S
C88 C85 1.405 . S
C88 C90 1.403 . S
C88 C94 1.439 . S
C89 N86 1.319 . S
C89 C87 1.397 . S
C89 H100 0.930 . S
C90 C87 1.367 . S
C90 C88 1.403 . S
C90 H111 0.929 . S
C91 C92 1.427 1_556 S
C91 C93 1.383 1_556 S
C91 C97 1.411 . S
C92 C85 1.448 . S
C92 C91 1.427 1_554 S
C92 N96 1.351 . S
C93 C91 1.383 1_554 S
C93 C94 1.374 . S
C93 H108 0.931 . S
C94 C88 1.439 . S
C94 C93 1.374 . S
C94 H109 0.931 . S
Eu95 N86 2.600 . S
Eu95 N96 2.562 . S
Eu95 O130 2.335 . S
Eu95 O133 2.372 . S
Eu95 O134 2.462 . S
Eu95 O135 2.373 . S
Eu95 O137 2.432 . S
Eu95 O138 2.291 1_554 S
Eu95 C159 2.787 . S
N96 C92 1.351 . S
N96 Eu95 2.562 . S
N96 C98 1.325 1_554 S
C97 C91 1.411 . S
C97 C99 1.366 . S
C97 H105 0.930 . S
C98 N96 1.325 1_556 S
C98 C99 1.416 . S
C98 H104 0.929 . S
C99 C97 1.366 . S
C99 C98 1.416 . S
C99 H101 0.930 . S
H100 C89 0.930 . S
H101 C99 0.930 . S
H102 C117 0.930 . S
H103 C124 0.930 . S
H104 C98 0.929 . S
H105 C97 0.930 . S
H106 C120 0.929 . S
H107 C87 0.931 . S
H108 C93 0.931 . S
H109 C94 0.931 . S
H110 C115 0.931 . S
H111 C90 0.929 . S
H112 C123 0.930 . S
N113 Eu84 2.600 . S
N113 C114 1.365 . S
N113 C117 1.319 1_554 S
C114 N113 1.365 . S
C114 C116 1.405 . S
C114 C122 1.448 . S
C115 H110 0.931 . S
C115 C117 1.397 . S
C115 C118 1.367 . S
C116 C114 1.405 . S
C116 C118 1.403 1_554 S
C116 C149 1.439 . S
C117 H102 0.930 . S
C117 N113 1.319 1_556 S
C117 C115 1.397 . S
C118 C115 1.367 . S
C118 C116 1.403 1_556 S
C118 H125 0.929 . S
N119 Eu84 2.562 . S
N119 C120 1.325 . S
N119 C122 1.351 . S
C120 H106 0.929 . S
C120 N119 1.325 . S
C120 C124 1.416 . S
C121 C122 1.430 . S
C121 C123 1.404 . S
C121 C150 1.387 . S
C122 C114 1.448 . S
C122 N119 1.351 . S
C122 C121 1.430 . S
C123 H112 0.930 . S
C123 C121 1.404 . S
C123 C124 1.366 . S
C124 H103 0.930 . S
C124 C120 1.416 . S
C124 C123 1.366 . S
H125 C118 0.929 . S
H126 C149 0.931 . S
H127 C150 0.931 . S
O128 Eu84 2.462 . S
O128 C148 1.252 . S
O129 Eu84 2.373 . S
O129 C140 1.249 . S
O130 Eu95 2.335 . S
O130 C140 1.264 . S
O131 Eu84 2.432 . S
O131 C148 1.268 . S
O132 Eu84 2.291 . S
O132 C147 1.255 . S
O133 Eu95 2.372 . S
O133 C147 1.257 . S
O134 Eu95 2.462 . S
O134 C159 1.252 . S
O135 Eu95 2.373 . S
O135 C151 1.249 . S
O136 Eu84 2.335 . S
O136 C151 1.264 . S
O137 Eu95 2.432 . S
O137 C159 1.268 . S
O138 Eu95 2.291 1_556 S
O138 C158 1.255 . S
O139 Eu84 2.372 1_556 S
O139 C158 1.257 . S
C140 O129 1.249 . S
C140 O130 1.264 . S
C141 C144 1.382 . S
C141 C146 1.390 . S
C141 C148 1.506 . S
C142 C143 1.398 . S
C142 C146 1.392 . S
C143 C142 1.398 . S
C143 C145 1.372 . S
C143 H160 0.931 . S
C144 C141 1.382 . S
C144 C145 1.390 . S
C144 H161 0.931 1_554 S
C145 C143 1.372 . S
C145 C144 1.390 . S
C145 H162 0.929 . S
C146 C141 1.390 . S
C146 C142 1.392 . S
C146 H163 0.930 . S
C147 O132 1.255 . S
C147 O133 1.257 . S
C148 Eu84 2.787 . S
C148 O128 1.252 . S
C148 O131 1.268 . S
C148 C141 1.506 . S
C149 C116 1.439 . S
C149 H126 0.931 . S
C149 C150 1.374 . S
C150 C121 1.387 . S
C150 H127 0.931 . S
C150 C149 1.374 . S
C151 O135 1.249 . S
C151 O136 1.264 . S
C152 C155 1.382 . S
C152 C156 1.390 . S
C152 C159 1.506 . S
C153 C154 1.398 . S
C153 C156 1.392 . S
C154 C153 1.398 . S
C154 C157 1.372 . S
C154 H164 0.931 . S
C155 C152 1.382 . S
C155 C157 1.390 . S
C155 H165 0.931 . S
C156 C152 1.390 . S
C156 C153 1.392 . S
C156 H166 0.930 1_554 S
C157 C154 1.372 . S
C157 C155 1.390 . S
C157 H167 0.929 . S
C158 O138 1.255 . S
C158 O139 1.257 . S
C159 Eu95 2.787 . S
C159 O134 1.252 . S
C159 O137 1.268 . S
C159 C152 1.506 . S
H160 C143 0.931 . S
H161 C144 0.931 1_556 S
H162 C145 0.929 . S
H163 C146 0.930 . S
H164 C154 0.931 . S
H165 C155 0.931 . S
H166 C156 0.930 1_556 S
H167 C157 0.929 . S
Eu168 N197 2.600 . S
Eu168 N203 2.562 1_554 S
Eu168 O212 2.462 1_554 S
Eu168 O213 2.373 . S
Eu168 O215 2.432 . S
Eu168 O216 2.291 1_554 S
Eu168 O220 2.335 . S
Eu168 O223 2.372 . S
Eu168 C232 2.787 . S
C169 N170 1.365 . S
C169 C172 1.405 . S
C169 C176 1.448 1_556 S
N170 C169 1.365 . S
N170 C173 1.319 . S
N170 Eu179 2.600 1_565 S
C171 C173 1.397 . S
C171 C174 1.367 . S
C171 H191 0.931 . S
C172 C169 1.405 . S
C172 C174 1.403 . S
C172 C178 1.439 . S
C173 N170 1.319 . S
C173 C171 1.397 . S
C173 H184 0.930 1_565 S
C174 C171 1.367 . S
C174 C172 1.403 . S
C174 H195 0.929 . S
C175 C176 1.430 . S
C175 C177 1.387 1_554 S
C175 C181 1.404 . S
C176 C169 1.448 1_554 S
C176 C175 1.430 . S
C176 N180 1.349 1_565 S
C177 C175 1.387 1_556 S
C177 C178 1.374 . S
C177 H192 0.931 1_556 S
C178 C172 1.439 . S
C178 C177 1.374 . S
C178 H193 0.931 . S
Eu179 N170 2.600 1_545 S
Eu179 N180 2.564 1_556 S
Eu179 O214 2.335 . S
Eu179 O217 2.372 . S
Eu179 O218 2.462 1_556 S
Eu179 O219 2.373 . S
Eu179 O221 2.432 . S
Eu179 O222 2.291 1_556 S
Eu179 C243 2.787 1_556 S
N180 C176 1.349 1_545 S
N180 Eu179 2.564 1_554 S
N180 C182 1.324 . S
C181 C175 1.404 . S
C181 C183 1.366 . S
C181 H189 0.930 . S
C182 N180 1.324 . S
C182 C183 1.416 1_545 S
C182 H188 0.929 . S
C183 C181 1.366 . S
C183 C182 1.416 1_565 S
C183 H185 0.930 . S
H184 C173 0.930 1_545 S
H185 C183 0.930 . S
H186 C201 0.930 . S
H187 C208 0.930 . S
H188 C182 0.929 . S
H189 C181 0.930 . S
H190 C204 0.929 . S
H191 C171 0.931 . S
H192 C177 0.931 1_554 S
H193 C178 0.931 . S
H194 C199 0.931 . S
H195 C174 0.929 . S
H196 C207 0.930 . S
N197 Eu168 2.600 . S
N197 C198 1.365 . S
N197 C201 1.319 . S
C198 N197 1.365 . S
C198 C200 1.405 . S
C198 C206 1.448 . S
C199 H194 0.931 . S
C199 C201 1.397 . S
C199 C202 1.367 . S
C200 C198 1.405 . S
C200 C202 1.403 . S
C200 C233 1.439 . S
C201 H186 0.930 . S
C201 N197 1.319 . S
C201 C199 1.397 . S
C202 C199 1.367 . S
C202 C200 1.403 . S
C202 H209 0.929 . S
N203 Eu168 2.562 1_556 S
N203 C204 1.325 . S
N203 C206 1.351 1_556 S
C204 H190 0.929 . S
C204 N203 1.325 . S
C204 C208 1.416 . S
C205 C206 1.430 1_556 S
C205 C207 1.404 . S
C205 C234 1.387 1_556 S
C206 C198 1.448 . S
C206 N203 1.351 1_554 S
C206 C205 1.430 1_554 S
C207 H196 0.930 . S
C207 C205 1.404 . S
C207 C208 1.366 . S
C208 H187 0.930 . S
C208 C204 1.416 . S
C208 C207 1.366 . S
H209 C202 0.929 . S
H210 C233 0.931 . S
H211 C234 0.931 . S
O212 Eu168 2.462 1_556 S
O212 C232 1.252 1_556 S
O213 Eu168 2.373 . S
O213 C224 1.249 . S
O214 Eu179 2.335 . S
O214 C224 1.264 1_556 S
O215 Eu168 2.432 . S
O215 C232 1.268 . S
O216 Eu168 2.291 1_556 S
O216 C231 1.255 . S
O217 Eu179 2.372 . S
O217 C231 1.257 . S
O218 Eu179 2.462 1_554 S
O218 C243 1.252 . S
O219 Eu179 2.373 . S
O219 C235 1.249 1_556 S
O220 Eu168 2.335 . S
O220 C235 1.264 . S
O221 Eu179 2.432 . S
O221 C243 1.268 1_556 S
O222 Eu179 2.291 1_554 S
O222 C242 1.255 . S
O223 Eu168 2.372 . S
O223 C242 1.257 . S
C224 O213 1.249 . S
C224 O214 1.264 1_554 S
C225 C228 1.382 . S
C225 C230 1.390 1_554 S
C225 C232 1.506 . S
C226 C227 1.398 1_556 S
C226 C230 1.392 . S
C227 C226 1.398 1_554 S
C227 C229 1.372 . S
C227 H244 0.931 . S
C228 C225 1.382 . S
C228 C229 1.390 . S
C228 H245 0.931 . S
C229 C227 1.372 . S
C229 C228 1.390 . S
C229 H246 0.929 . S
C230 C225 1.390 1_556 S
C230 C226 1.392 . S
C230 H247 0.930 . S
C231 O216 1.255 . S
C231 O217 1.257 . S
C232 Eu168 2.787 . S
C232 O212 1.252 1_554 S
C232 O215 1.268 . S
C232 C225 1.506 . S
C233 C200 1.439 . S
C233 H210 0.931 . S
C233 C234 1.374 . S
C234 C205 1.387 1_554 S
C234 H211 0.931 . S
C234 C233 1.374 . S
C235 O219 1.249 1_554 S
C235 O220 1.264 . S
C236 C239 1.382 1_544 S
C236 C240 1.390 . S
C236 C243 1.506 . S
C237 C238 1.395 1_545 S
C237 C240 1.389 . S
C238 C237 1.395 1_565 S
C238 C241 1.372 1_554 S
C238 H248 0.931 . S
C239 C236 1.382 1_566 S
C239 C241 1.390 . S
C239 H249 0.931 . S
C240 C236 1.390 . S
C240 C237 1.389 . S
C240 H250 0.930 . S
C241 C238 1.372 1_556 S
C241 C239 1.390 . S
C241 H251 0.929 . S
C242 O222 1.255 . S
C242 O223 1.257 . S
C243 Eu179 2.787 1_554 S
C243 O218 1.252 . S
C243 O221 1.268 1_554 S
C243 C236 1.506 . S
H244 C227 0.931 . S
H245 C228 0.931 . S
H246 C229 0.929 . S
H247 C230 0.930 . S
H248 C238 0.931 . S
H249 C239 0.931 . S
H250 C240 0.930 . S
H251 C241 0.929 . S
Eu252 N281 2.600 . S
Eu252 N287 2.562 . S
Eu252 O296 2.462 . S
Eu252 O297 2.373 . S
Eu252 O299 2.432 . S
Eu252 O300 2.291 . S
Eu252 O304 2.335 . S
Eu252 O307 2.372 . S
Eu252 C316 2.787 . S
C253 N254 1.365 . S
C253 C256 1.405 . S
C253 C260 1.448 . S
N254 C253 1.365 . S
N254 C257 1.319 . S
N254 Eu263 2.600 . S
C255 C257 1.397 . S
C255 C258 1.367 . S
C255 H275 0.931 . S
C256 C253 1.405 . S
C256 C258 1.403 . S
C256 C262 1.439 . S
C257 N254 1.319 . S
C257 C255 1.397 . S
C257 H268 0.930 . S
C258 C255 1.367 . S
C258 C256 1.403 . S
C258 H279 0.929 . S
C259 C260 1.430 . S
C259 C261 1.387 . S
C259 C265 1.404 . S
C260 C253 1.448 . S
C260 C259 1.430 . S
C260 N264 1.351 . S
C261 C259 1.387 . S
C261 C262 1.374 . S
C261 H276 0.931 . S
C262 C256 1.439 . S
C262 C261 1.374 . S
C262 H277 0.931 . S
Eu263 N254 2.600 . S
Eu263 N264 2.562 . S
Eu263 O298 2.335 . S
Eu263 O301 2.372 . S
Eu263 O302 2.462 . S
Eu263 O303 2.373 . S
Eu263 O305 2.432 . S
Eu263 O306 2.291 . S
Eu263 C327 2.787 . S
N264 C260 1.351 . S
N264 Eu263 2.562 . S
N264 C266 1.325 . S
C265 C259 1.404 . S
C265 C267 1.366 . S
C265 H273 0.930 . S
C266 N264 1.325 . S
C266 C267 1.416 . S
C266 H272 0.929 . S
C267 C265 1.366 . S
C267 C266 1.416 . S
C267 H269 0.930 . S
H268 C257 0.930 . S
H269 C267 0.930 . S
H270 C285 0.930 . S
H271 C292 0.930 1_556 S
H272 C266 0.929 . S
H273 C265 0.930 . S
H274 C288 0.929 . S
H275 C255 0.931 . S
H276 C261 0.931 . S
H277 C262 0.931 . S
H278 C283 0.931 . S
H279 C258 0.929 . S
H280 C291 0.930 . S
N281 Eu252 2.600 . S
N281 C282 1.365 . S
N281 C285 1.319 . S
C282 N281 1.365 . S
C282 C284 1.405 . S
C282 C290 1.448 . S
C283 H278 0.931 . S
C283 C285 1.397 . S
C283 C286 1.367 . S
C284 C282 1.405 . S
C284 C286 1.403 . S
C284 C317 1.439 . S
C285 H270 0.930 . S
C285 N281 1.319 . S
C285 C283 1.397 . S
C286 C283 1.367 . S
C286 C284 1.403 . S
C286 H293 0.929 . S
N287 Eu252 2.562 . S
N287 C288 1.325 . S
N287 C290 1.351 . S
C288 H274 0.929 . S
C288 N287 1.325 . S
C288 C292 1.416 . S
C289 C290 1.430 . S
C289 C291 1.404 . S
C289 C318 1.387 . S
C290 C282 1.448 . S
C290 N287 1.351 . S
C290 C289 1.430 . S
C291 H280 0.930 . S
C291 C289 1.404 . S
C291 C292 1.366 . S
C292 H271 0.930 1_554 S
C292 C288 1.416 . S
C292 C291 1.366 . S
H293 C286 0.929 . S
H294 C317 0.931 . S
H295 C318 0.931 . S
O296 Eu252 2.462 . S
O296 C316 1.252 . S
O297 Eu252 2.373 . S
O297 C308 1.249 . S
O298 Eu263 2.335 . S
O298 C308 1.264 . S
O299 Eu252 2.432 . S
O299 C316 1.268 . S
O300 Eu252 2.291 . S
O300 C315 1.255 . S
O301 Eu263 2.372 . S
O301 C315 1.257 . S
O302 Eu263 2.462 . S
O302 C327 1.252 . S
O303 Eu263 2.373 . S
O303 C319 1.249 . S
O304 Eu252 2.335 . S
O304 C319 1.264 . S
O305 Eu263 2.432 . S
O305 C327 1.268 . S
O306 Eu263 2.291 . S
O306 C326 1.255 . S
O307 Eu252 2.372 . S
O307 C326 1.257 . S
C308 O297 1.249 . S
C308 O298 1.264 . S
C309 C312 1.382 . S
C309 C314 1.390 . S
C309 C316 1.506 . S
C310 C311 1.398 . S
C310 C314 1.392 . S
C311 C310 1.398 . S
C311 C313 1.372 . S
C311 H328 0.931 . S
C312 C309 1.382 . S
C312 C313 1.390 . S
C312 H329 0.931 . S
C313 C311 1.372 . S
C313 C312 1.390 . S
C313 H330 0.929 . S
C314 C309 1.390 . S
C314 C310 1.392 . S
C314 H331 0.930 . S
C315 O300 1.255 . S
C315 O301 1.257 . S
C316 Eu252 2.787 . S
C316 O296 1.252 . S
C316 O299 1.268 . S
C316 C309 1.506 . S
C317 C284 1.439 . S
C317 H294 0.931 . S
C317 C318 1.374 . S
C318 C289 1.387 . S
C318 H295 0.931 . S
C318 C317 1.374 . S
C319 O303 1.249 . S
C319 O304 1.264 . S
C320 C323 1.382 . S
C320 C324 1.390 . S
C320 C327 1.506 . S
C321 C322 1.398 . S
C321 C324 1.392 . S
C322 C321 1.398 . S
C322 C325 1.372 . S
C322 H332 0.931 . S
C323 C320 1.382 . S
C323 C325 1.390 . S
C323 H333 0.931 . S
C324 C320 1.390 . S
C324 C321 1.392 . S
C324 H334 0.930 . S
C325 C322 1.372 . S
C325 C323 1.390 . S
C325 H335 0.929 . S
C326 O306 1.255 . S
C326 O307 1.257 . S
C327 Eu263 2.787 . S
C327 O302 1.252 . S
C327 O305 1.268 . S
C327 C320 1.506 . S
H328 C311 0.931 . S
H329 C312 0.931 . S
H330 C313 0.929 . S
H331 C314 0.930 . S
H332 C322 0.931 . S
H333 C323 0.931 . S
H334 C324 0.930 . S
H335 C325 0.929 . S
Eu336 N365 2.600 . S
Eu336 N371 2.562 . S
Eu336 O380 2.462 . S
Eu336 O381 2.373 . S
Eu336 O383 2.432 . S
Eu336 O384 2.291 . S
Eu336 O388 2.335 . S
Eu336 O391 2.372 . S
Eu336 C400 2.787 . S
C337 N338 1.365 . S
C337 C340 1.405 . S
C337 C344 1.448 . S
N338 C337 1.365 . S
N338 C341 1.319 . S
N338 Eu347 2.600 . S
C339 C341 1.397 . S
C339 C342 1.367 . S
C339 H359 0.931 . S
C340 C337 1.405 . S
C340 C342 1.403 . S
C340 C346 1.439 . S
C341 N338 1.319 . S
C341 C339 1.397 . S
C341 H352 0.930 . S
C342 C339 1.367 . S
C342 C340 1.403 . S
C342 H363 0.929 . S
C343 C344 1.430 . S
C343 C345 1.387 . S
C343 C349 1.404 . S
C344 C337 1.448 . S
C344 C343 1.430 . S
C344 N348 1.351 . S
C345 C343 1.387 . S
C345 C346 1.374 . S
C345 H360 0.931 . S
C346 C340 1.439 . S
C346 C345 1.374 . S
C346 H361 0.931 . S
Eu347 N338 2.600 . S
Eu347 N348 2.562 . S
Eu347 O382 2.335 . S
Eu347 O385 2.372 . S
Eu347 O386 2.462 . S
Eu347 O387 2.373 . S
Eu347 O389 2.432 . S
Eu347 O390 2.291 . S
Eu347 C411 2.787 . S
N348 C344 1.351 . S
N348 Eu347 2.562 . S
N348 C350 1.325 . S
C349 C343 1.404 . S
C349 C351 1.366 . S
C349 H357 0.930 . S
C350 N348 1.325 . S
C350 C351 1.416 . S
C350 H356 0.929 . S
C351 C349 1.366 . S
C351 C350 1.416 . S
C351 H353 0.930 . S
H352 C341 0.930 . S
H353 C351 0.930 . S
H354 C369 0.930 . S
H355 C376 0.930 . S
H356 C350 0.929 . S
H357 C349 0.930 . S
H358 C372 0.929 . S
H359 C339 0.931 . S
H360 C345 0.931 . S
H361 C346 0.931 . S
H362 C367 0.931 . S
H363 C342 0.929 . S
H364 C375 0.930 . S
N365 Eu336 2.600 . S
N365 C366 1.365 . S
N365 C369 1.319 . S
C366 N365 1.365 . S
C366 C368 1.405 . S
C366 C374 1.448 . S
C367 H362 0.931 . S
C367 C369 1.397 . S
C367 C370 1.367 . S
C368 C366 1.405 . S
C368 C370 1.403 . S
C368 C401 1.439 . S
C369 H354 0.930 . S
C369 N365 1.319 . S
C369 C367 1.397 . S
C370 C367 1.367 . S
C370 C368 1.403 . S
C370 H377 0.929 . S
N371 Eu336 2.562 . S
N371 C372 1.325 . S
N371 C374 1.351 . S
C372 H358 0.929 . S
C372 N371 1.325 . S
C372 C376 1.416 . S
C373 C374 1.430 . S
C373 C375 1.404 . S
C373 C402 1.387 . S
C374 C366 1.448 . S
C374 N371 1.351 . S
C374 C373 1.430 . S
C375 H364 0.930 . S
C375 C373 1.404 . S
C375 C376 1.366 . S
C376 H355 0.930 . S
C376 C372 1.416 . S
C376 C375 1.366 . S
H377 C370 0.929 . S
H378 C401 0.931 . S
H379 C402 0.931 . S
O380 Eu336 2.462 . S
O380 C400 1.252 . S
O381 Eu336 2.373 . S
O381 C392 1.249 . S
O382 Eu347 2.335 . S
O382 C392 1.264 . S
O383 Eu336 2.432 . S
O383 C400 1.268 . S
O384 Eu336 2.291 . S
O384 C399 1.255 . S
O385 Eu347 2.372 . S
O385 C399 1.257 . S
O386 Eu347 2.462 . S
O386 C411 1.252 . S
O387 Eu347 2.373 . S
O387 C403 1.249 . S
O388 Eu336 2.335 . S
O388 C403 1.264 . S
O389 Eu347 2.432 . S
O389 C411 1.268 . S
O390 Eu347 2.291 . S
O390 C410 1.255 . S
O391 Eu336 2.372 . S
O391 C410 1.257 . S
C392 O381 1.249 . S
C392 O382 1.264 . S
C393 C396 1.382 . S
C393 C398 1.390 . S
C393 C400 1.506 . S
C394 C395 1.398 . S
C394 C398 1.392 . S
C395 C394 1.398 . S
C395 C397 1.372 . S
C395 H412 0.931 . S
C396 C393 1.382 . S
C396 C397 1.390 . S
C396 H413 0.931 . S
C397 C395 1.372 . S
C397 C396 1.390 . S
C397 H414 0.929 . S
C398 C393 1.390 . S
C398 C394 1.392 . S
C398 H415 0.930 . S
C399 O384 1.255 . S
C399 O385 1.257 . S
C400 Eu336 2.787 . S
C400 O380 1.252 . S
C400 O383 1.268 . S
C400 C393 1.506 . S
C401 C368 1.439 . S
C401 H378 0.931 . S
C401 C402 1.374 . S
C402 C373 1.387 . S
C402 H379 0.931 . S
C402 C401 1.374 . S
C403 O387 1.249 . S
C403 O388 1.264 . S
C404 C407 1.382 . S
C404 C408 1.390 . S
C404 C411 1.506 . S
C405 C406 1.398 . S
C405 C408 1.392 . S
C406 C405 1.398 . S
C406 C409 1.372 . S
C406 H416 0.931 . S
C407 C404 1.382 . S
C407 C409 1.390 . S
C407 H417 0.931 . S
C408 C404 1.390 . S
C408 C405 1.392 . S
C408 H418 0.930 . S
C409 C406 1.372 . S
C409 C407 1.390 . S
C409 H419 0.929 . S
C410 O390 1.255 . S
C410 O391 1.257 . S
C411 Eu347 2.787 . S
C411 O386 1.252 . S
C411 O389 1.268 . S
C411 C404 1.506 . S
H412 C395 0.931 . S
H413 C396 0.931 . S
H414 C397 0.929 . S
H415 C398 0.930 . S
H416 C406 0.931 . S
H417 C407 0.931 . S
H418 C408 0.930 . S
H419 C409 0.929 . S
Eu420 N449 2.600 . S
Eu420 N455 2.562 . S
Eu420 O464 2.462 . S
Eu420 O465 2.373 . S
Eu420 O467 2.432 . S
Eu420 O468 2.291 . S
Eu420 O472 2.335 . S
Eu420 O475 2.372 . S
Eu420 C484 2.787 . S
C421 N422 1.365 . S
C421 C424 1.405 . S
C421 C428 1.448 . S
N422 C421 1.365 . S
N422 C425 1.319 . S
N422 Eu431 2.600 . S
C423 C425 1.397 . S
C423 C426 1.367 . S
C423 H443 0.931 . S
C424 C421 1.405 . S
C424 C426 1.403 . S
C424 C430 1.439 . S
C425 N422 1.319 . S
C425 C423 1.397 . S
C425 H436 0.930 . S
C426 C423 1.367 . S
C426 C424 1.403 . S
C426 H447 0.929 . S
C427 C428 1.430 . S
C427 C429 1.387 . S
C427 C433 1.404 . S
C428 C421 1.448 . S
C428 C427 1.430 . S
C428 N432 1.351 . S
C429 C427 1.387 . S
C429 C430 1.374 . S
C429 H444 0.931 . S
C430 C424 1.439 . S
C430 C429 1.374 . S
C430 H445 0.931 . S
Eu431 N422 2.600 . S
Eu431 N432 2.562 . S
Eu431 O466 2.335 . S
Eu431 O469 2.372 . S
Eu431 O470 2.462 . S
Eu431 O471 2.373 . S
Eu431 O473 2.432 . S
Eu431 O474 2.291 . S
Eu431 C495 2.787 . S
N432 C428 1.351 . S
N432 Eu431 2.562 . S
N432 C434 1.325 . S
C433 C427 1.404 . S
C433 C435 1.366 . S
C433 H441 0.930 . S
C434 N432 1.325 . S
C434 C435 1.416 . S
C434 H440 0.929 . S
C435 C433 1.366 . S
C435 C434 1.416 . S
C435 H437 0.930 . S
H436 C425 0.930 . S
H437 C435 0.930 . S
H438 C453 0.930 . S
H439 C460 0.930 . S
H440 C434 0.929 . S
H441 C433 0.930 . S
H442 C456 0.929 . S
H443 C423 0.931 . S
H444 C429 0.931 . S
H445 C430 0.931 . S
H446 C451 0.931 . S
H447 C426 0.929 . S
H448 C459 0.930 . S
N449 Eu420 2.600 . S
N449 C450 1.365 . S
N449 C453 1.319 . S
C450 N449 1.365 . S
C450 C452 1.405 . S
C450 C458 1.448 . S
C451 H446 0.931 . S
C451 C453 1.397 . S
C451 C454 1.367 . S
C452 C450 1.405 . S
C452 C454 1.403 . S
C452 C485 1.439 . S
C453 H438 0.930 . S
C453 N449 1.319 . S
C453 C451 1.397 . S
C454 C451 1.367 . S
C454 C452 1.403 . S
C454 H461 0.929 . S
N455 Eu420 2.562 . S
N455 C456 1.325 . S
N455 C458 1.351 . S
C456 H442 0.929 . S
C456 N455 1.325 . S
C456 C460 1.416 . S
C457 C458 1.430 . S
C457 C459 1.404 . S
C457 C486 1.387 . S
C458 C450 1.448 . S
C458 N455 1.351 . S
C458 C457 1.430 . S
C459 H448 0.930 . S
C459 C457 1.404 . S
C459 C460 1.366 . S
C460 H439 0.930 . S
C460 C456 1.416 . S
C460 C459 1.366 . S
H461 C454 0.929 . S
H462 C485 0.931 . S
H463 C486 0.931 . S
O464 Eu420 2.462 . S
O464 C484 1.252 . S
O465 Eu420 2.373 . S
O465 C476 1.249 . S
O466 Eu431 2.335 . S
O466 C476 1.264 . S
O467 Eu420 2.432 . S
O467 C484 1.268 . S
O468 Eu420 2.291 . S
O468 C483 1.255 . S
O469 Eu431 2.372 . S
O469 C483 1.257 . S
O470 Eu431 2.462 . S
O470 C495 1.252 . S
O471 Eu431 2.373 . S
O471 C487 1.249 . S
O472 Eu420 2.335 . S
O472 C487 1.264 . S
O473 Eu431 2.432 . S
O473 C495 1.268 . S
O474 Eu431 2.291 . S
O474 C494 1.255 . S
O475 Eu420 2.372 . S
O475 C494 1.257 . S
C476 O465 1.249 . S
C476 O466 1.264 . S
C477 C480 1.382 . S
C477 C482 1.390 . S
C477 C484 1.506 . S
C478 C479 1.398 . S
C478 C482 1.392 . S
C479 C478 1.398 . S
C479 C481 1.372 . S
C479 H496 0.931 . S
C480 C477 1.382 . S
C480 C481 1.390 . S
C480 H497 0.931 . S
C481 C479 1.372 . S
C481 C480 1.390 . S
C481 H498 0.929 . S
C482 C477 1.390 . S
C482 C478 1.392 . S
C482 H499 0.930 . S
C483 O468 1.255 . S
C483 O469 1.257 . S
C484 Eu420 2.787 . S
C484 O464 1.252 . S
C484 O467 1.268 . S
C484 C477 1.506 . S
C485 C452 1.439 . S
C485 H462 0.931 . S
C485 C486 1.374 . S
C486 C457 1.387 . S
C486 H463 0.931 . S
C486 C485 1.374 . S
C487 O471 1.249 . S
C487 O472 1.264 . S
C488 C491 1.382 . S
C488 C492 1.390 . S
C488 C495 1.506 . S
C489 C490 1.398 . S
C489 C492 1.392 . S
C490 C489 1.398 . S
C490 C493 1.372 . S
C490 H500 0.931 . S
C491 C488 1.382 . S
C491 C493 1.390 . S
C491 H501 0.931 . S
C492 C488 1.390 . S
C492 C489 1.392 . S
C492 H502 0.930 . S
C493 C490 1.372 . S
C493 C491 1.390 . S
C493 H503 0.929 . S
C494 O474 1.255 . S
C494 O475 1.257 . S
C495 Eu431 2.787 . S
C495 O470 1.252 . S
C495 O473 1.268 . S
C495 C488 1.506 . S
H496 C479 0.931 . S
H497 C480 0.931 . S
H498 C481 0.929 . S
H499 C482 0.930 . S
H500 C490 0.931 . S
H501 C491 0.931 . S
H502 C492 0.930 . S
H503 C493 0.929 . S
Eu504 N533 2.600 . S
Eu504 N539 2.562 . S
Eu504 O548 2.462 . S
Eu504 O549 2.373 . S
Eu504 O551 2.432 . S
Eu504 O552 2.291 . S
Eu504 O556 2.335 . S
Eu504 O559 2.372 . S
Eu504 C568 2.787 . S
C505 N506 1.365 . S
C505 C508 1.405 . S
C505 C512 1.448 . S
N506 C505 1.365 . S
N506 C509 1.319 . S
N506 Eu515 2.600 . S
C507 C509 1.397 . S
C507 C510 1.367 . S
C507 H527 0.931 . S
C508 C505 1.405 . S
C508 C510 1.403 . S
C508 C514 1.439 . S
C509 N506 1.319 . S
C509 C507 1.397 . S
C509 H520 0.930 . S
C510 C507 1.367 . S
C510 C508 1.403 . S
C510 H531 0.929 . S
C511 C512 1.430 . S
C511 C513 1.387 . S
C511 C517 1.404 . S
C512 C505 1.448 . S
C512 C511 1.430 . S
C512 N516 1.351 . S
C513 C511 1.387 . S
C513 C514 1.374 . S
C513 H528 0.931 . S
C514 C508 1.439 . S
C514 C513 1.374 . S
C514 H529 0.931 . S
Eu515 N506 2.600 . S
Eu515 N516 2.562 . S
Eu515 O550 2.335 . S
Eu515 O553 2.372 . S
Eu515 O554 2.462 . S
Eu515 O555 2.373 . S
Eu515 O557 2.432 . S
Eu515 O558 2.291 . S
Eu515 C579 2.787 . S
N516 C512 1.351 . S
N516 Eu515 2.562 . S
N516 C518 1.325 . S
C517 C511 1.404 . S
C517 C519 1.366 . S
C517 H525 0.930 . S
C518 N516 1.325 . S
C518 C519 1.416 . S
C518 H524 0.929 . S
C519 C517 1.366 . S
C519 C518 1.416 . S
C519 H521 0.930 . S
H520 C509 0.930 . S
H521 C519 0.930 . S
H522 C537 0.930 . S
H523 C544 0.930 . S
H524 C518 0.929 . S
H525 C517 0.930 . S
H526 C540 0.929 . S
H527 C507 0.931 . S
H528 C513 0.931 . S
H529 C514 0.931 . S
H530 C535 0.931 . S
H531 C510 0.929 . S
H532 C543 0.930 . S
N533 Eu504 2.600 . S
N533 C534 1.365 . S
N533 C537 1.319 . S
C534 N533 1.365 . S
C534 C536 1.405 . S
C534 C542 1.448 . S
C535 H530 0.931 . S
C535 C537 1.397 . S
C535 C538 1.367 . S
C536 C534 1.405 . S
C536 C538 1.403 . S
C536 C569 1.439 . S
C537 H522 0.930 . S
C537 N533 1.319 . S
C537 C535 1.397 . S
C538 C535 1.367 . S
C538 C536 1.403 . S
C538 H545 0.929 . S
N539 Eu504 2.562 . S
N539 C540 1.325 . S
N539 C542 1.351 . S
C540 H526 0.929 . S
C540 N539 1.325 . S
C540 C544 1.416 . S
C541 C542 1.430 . S
C541 C543 1.404 . S
C541 C570 1.387 . S
C542 C534 1.448 . S
C542 N539 1.351 . S
C542 C541 1.430 . S
C543 H532 0.930 . S
C543 C541 1.404 . S
C543 C544 1.366 . S
C544 H523 0.930 . S
C544 C540 1.416 . S
C544 C543 1.366 . S
H545 C538 0.929 . S
H546 C569 0.931 . S
H547 C570 0.931 . S
O548 Eu504 2.462 . S
O548 C568 1.252 . S
O549 Eu504 2.373 . S
O549 C560 1.249 . S
O550 Eu515 2.335 . S
O550 C560 1.264 . S
O551 Eu504 2.432 . S
O551 C568 1.268 . S
O552 Eu504 2.291 . S
O552 C567 1.255 . S
O553 Eu515 2.372 . S
O553 C567 1.257 . S
O554 Eu515 2.462 . S
O554 C579 1.252 . S
O555 Eu515 2.373 . S
O555 C571 1.249 . S
O556 Eu504 2.335 . S
O556 C571 1.264 . S
O557 Eu515 2.432 . S
O557 C579 1.268 . S
O558 Eu515 2.291 . S
O558 C578 1.255 . S
O559 Eu504 2.372 . S
O559 C578 1.257 . S
C560 O549 1.249 . S
C560 O550 1.264 . S
C561 C564 1.382 . S
C561 C566 1.390 . S
C561 C568 1.506 . S
C562 C563 1.398 . S
C562 C566 1.392 1_554 S
C563 C562 1.398 . S
C563 C565 1.372 . S
C563 H580 0.931 . S
C564 C561 1.382 . S
C564 C565 1.390 1_556 S
C564 H581 0.931 . S
C565 C563 1.372 . S
C565 C564 1.390 1_554 S
C565 H582 0.929 . S
C566 C561 1.390 . S
C566 C562 1.392 1_556 S
C566 H583 0.930 . S
C567 O552 1.255 . S
C567 O553 1.257 . S
C568 Eu504 2.787 . S
C568 O548 1.252 . S
C568 O551 1.268 . S
C568 C561 1.506 . S
C569 C536 1.439 . S
C569 H546 0.931 . S
C569 C570 1.374 . S
C570 C541 1.387 . S
C570 H547 0.931 . S
C570 C569 1.374 . S
C571 O555 1.249 . S
C571 O556 1.264 . S
C572 C575 1.382 . S
C572 C576 1.390 . S
C572 C579 1.506 . S
C573 C574 1.398 . S
C573 C576 1.392 . S
C574 C573 1.398 . S
C574 C577 1.372 . S
C574 H584 0.931 . S
C575 C572 1.382 . S
C575 C577 1.390 . S
C575 H585 0.931 . S
C576 C572 1.390 . S
C576 C573 1.392 . S
C576 H586 0.930 . S
C577 C574 1.372 . S
C577 C575 1.390 . S
C577 H587 0.929 . S
C578 O558 1.255 . S
C578 O559 1.257 . S
C579 Eu515 2.787 . S
C579 O554 1.252 . S
C579 O557 1.268 . S
C579 C572 1.506 . S
H580 C563 0.931 . S
H581 C564 0.931 . S
H582 C565 0.929 . S
H583 C566 0.930 . S
H584 C574 0.931 . S
H585 C575 0.931 . S
H586 C576 0.930 . S
H587 C577 0.929 . S
Eu588 N617 2.600 . S
Eu588 N623 2.562 . S
Eu588 O632 2.462 . S
Eu588 O633 2.373 . S
Eu588 O635 2.432 . S
Eu588 O636 2.291 . S
Eu588 O640 2.335 . S
Eu588 O643 2.372 . S
Eu588 C652 2.787 . S
C589 N590 1.365 . S
C589 C592 1.405 . S
C589 C596 1.448 . S
N590 C589 1.365 . S
N590 C593 1.319 . S
N590 Eu599 2.600 . S
C591 C593 1.397 . S
C591 C594 1.367 . S
C591 H611 0.931 . S
C592 C589 1.405 . S
C592 C594 1.403 . S
C592 C598 1.439 . S
C593 N590 1.319 . S
C593 C591 1.397 . S
C593 H604 0.930 . S
C594 C591 1.367 . S
C594 C592 1.403 . S
C594 H615 0.929 . S
C595 C596 1.430 . S
C595 C597 1.387 . S
C595 C601 1.404 . S
C596 C589 1.448 . S
C596 C595 1.430 . S
C596 N600 1.351 . S
C597 C595 1.387 . S
C597 C598 1.374 . S
C597 H612 0.931 . S
C598 C592 1.439 . S
C598 C597 1.374 . S
C598 H613 0.931 . S
Eu599 N590 2.600 . S
Eu599 N600 2.562 . S
Eu599 O634 2.335 . S
Eu599 O637 2.372 . S
Eu599 O638 2.462 . S
Eu599 O639 2.373 . S
Eu599 O641 2.432 . S
Eu599 O642 2.291 . S
Eu599 C663 2.787 . S
N600 C596 1.351 . S
N600 Eu599 2.562 . S
N600 C602 1.325 . S
C601 C595 1.404 . S
C601 C603 1.366 . S
C601 H609 0.930 . S
C602 N600 1.325 . S
C602 C603 1.416 . S
C602 H608 0.929 . S
C603 C601 1.366 . S
C603 C602 1.416 . S
C603 H605 0.930 . S
H604 C593 0.930 . S
H605 C603 0.930 . S
H606 C621 0.930 . S
H607 C628 0.930 . S
H608 C602 0.929 . S
H609 C601 0.930 . S
H610 C624 0.929 . S
H611 C591 0.931 . S
H612 C597 0.931 . S
H613 C598 0.931 . S
H614 C619 0.931 . S
H615 C594 0.929 . S
H616 C627 0.930 . S
N617 Eu588 2.600 . S
N617 C618 1.365 . S
N617 C621 1.319 . S
C618 N617 1.365 . S
C618 C620 1.405 . S
C618 C626 1.448 . S
C619 H614 0.931 . S
C619 C621 1.397 . S
C619 C622 1.367 . S
C620 C618 1.405 . S
C620 C622 1.403 . S
C620 C653 1.439 . S
C621 H606 0.930 . S
C621 N617 1.319 . S
C621 C619 1.397 . S
C622 C619 1.367 . S
C622 C620 1.403 . S
C622 H629 0.929 . S
N623 Eu588 2.562 . S
N623 C624 1.325 . S
N623 C626 1.351 . S
C624 H610 0.929 . S
C624 N623 1.325 . S
C624 C628 1.416 . S
C625 C626 1.430 . S
C625 C627 1.404 . S
C625 C654 1.387 . S
C626 C618 1.448 . S
C626 N623 1.351 . S
C626 C625 1.430 . S
C627 H616 0.930 . S
C627 C625 1.404 . S
C627 C628 1.366 . S
C628 H607 0.930 . S
C628 C624 1.416 . S
C628 C627 1.366 . S
H629 C622 0.929 . S
H630 C653 0.931 . S
H631 C654 0.931 . S
O632 Eu588 2.462 . S
O632 C652 1.252 . S
O633 Eu588 2.373 . S
O633 C644 1.249 . S
O634 Eu599 2.335 . S
O634 C644 1.264 . S
O635 Eu588 2.432 . S
O635 C652 1.268 . S
O636 Eu588 2.291 . S
O636 C651 1.255 . S
O637 Eu599 2.372 . S
O637 C651 1.257 . S
O638 Eu599 2.462 . S
O638 C663 1.252 . S
O639 Eu599 2.373 . S
O639 C655 1.249 . S
O640 Eu588 2.335 . S
O640 C655 1.264 . S
O641 Eu599 2.432 . S
O641 C663 1.268 . S
O642 Eu599 2.291 . S
O642 C662 1.255 . S
O643 Eu588 2.372 . S
O643 C662 1.257 . S
C644 O633 1.249 . S
C644 O634 1.264 . S
C645 C648 1.382 . S
C645 C650 1.390 . S
C645 C652 1.506 . S
C646 C647 1.398 . S
C646 C650 1.392 . S
C647 C646 1.398 . S
C647 C649 1.372 . S
C647 H664 0.931 . S
C648 C645 1.382 . S
C648 C649 1.390 . S
C648 H665 0.931 . S
C649 C647 1.372 . S
C649 C648 1.390 . S
C649 H666 0.929 . S
C650 C645 1.390 . S
C650 C646 1.392 . S
C650 H667 0.930 . S
C651 O636 1.255 . S
C651 O637 1.257 . S
C652 Eu588 2.787 . S
C652 O632 1.252 . S
C652 O635 1.268 . S
C652 C645 1.506 . S
C653 C620 1.439 . S
C653 H630 0.931 . S
C653 C654 1.374 . S
C654 C625 1.387 . S
C654 H631 0.931 . S
C654 C653 1.374 . S
C655 O639 1.249 . S
C655 O640 1.264 . S
C656 C659 1.382 . S
C656 C660 1.390 . S
C656 C663 1.506 . S
C657 C658 1.398 . S
C657 C660 1.392 1_554 S
C658 C657 1.398 . S
C658 C661 1.372 1_554 S
C658 H668 0.931 . S
C659 C656 1.382 . S
C659 C661 1.390 . S
C659 H669 0.931 . S
C660 C656 1.390 . S
C660 C657 1.392 1_556 S
C660 H670 0.930 . S
C661 C658 1.372 1_556 S
C661 C659 1.390 . S
C661 H671 0.928 1_556 S
C662 O642 1.255 . S
C662 O643 1.257 . S
C663 Eu599 2.787 . S
C663 O638 1.252 . S
C663 O641 1.268 . S
C663 C656 1.506 . S
H664 C647 0.931 . S
H665 C648 0.931 . S
H666 C649 0.929 . S
H667 C650 0.930 . S
H668 C658 0.931 . S
H669 C659 0.931 . S
H670 C660 0.930 . S
H671 C661 0.928 1_554 S
Eu672 N701 2.600 . S
Eu672 N707 2.562 . S
Eu672 O716 2.462 . S
Eu672 O717 2.373 . S
Eu672 O719 2.432 . S
Eu672 O720 2.291 . S
Eu672 O724 2.335 . S
Eu672 O727 2.372 . S
Eu672 C736 2.787 . S
C673 N674 1.365 . S
C673 C676 1.405 . S
C673 C680 1.448 . S
N674 C673 1.365 . S
N674 C677 1.319 . S
N674 Eu683 2.600 . S
C675 C677 1.397 . S
C675 C678 1.367 . S
C675 H695 0.931 . S
C676 C673 1.405 . S
C676 C678 1.403 . S
C676 C682 1.439 . S
C677 N674 1.319 . S
C677 C675 1.397 . S
C677 H688 0.930 . S
C678 C675 1.367 . S
C678 C676 1.403 . S
C678 H699 0.929 . S
C679 C680 1.430 . S
C679 C681 1.387 . S
C679 C685 1.404 . S
C680 C673 1.448 . S
C680 C679 1.430 . S
C680 N684 1.351 . S
C681 C679 1.387 . S
C681 C682 1.374 . S
C681 H696 0.931 . S
C682 C676 1.439 . S
C682 C681 1.374 . S
C682 H697 0.931 . S
Eu683 N674 2.600 . S
Eu683 N684 2.562 . S
Eu683 O718 2.335 . S
Eu683 O721 2.372 . S
Eu683 O722 2.462 . S
Eu683 O723 2.373 . S
Eu683 O725 2.432 . S
Eu683 O726 2.291 . S
Eu683 C747 2.787 . S
N684 C680 1.351 . S
N684 Eu683 2.562 . S
N684 C686 1.325 . S
C685 C679 1.404 . S
C685 C687 1.366 . S
C685 H693 0.930 . S
C686 N684 1.325 . S
C686 C687 1.416 . S
C686 H692 0.929 . S
C687 C685 1.366 . S
C687 C686 1.416 . S
C687 H689 0.930 . S
H688 C677 0.930 . S
H689 C687 0.930 . S
H690 C705 0.930 . S
H691 C712 0.930 . S
H692 C686 0.929 . S
H693 C685 0.930 . S
H694 C708 0.929 . S
H695 C675 0.931 . S
H696 C681 0.931 . S
H697 C682 0.931 . S
H698 C703 0.931 . S
H699 C678 0.929 . S
H700 C711 0.930 . S
N701 Eu672 2.600 . S
N701 C702 1.365 . S
N701 C705 1.319 . S
C702 N701 1.365 . S
C702 C704 1.405 . S
C702 C710 1.448 . S
C703 H698 0.931 . S
C703 C705 1.397 . S
C703 C706 1.367 . S
C704 C702 1.405 . S
C704 C706 1.403 . S
C704 C737 1.439 . S
C705 H690 0.930 . S
C705 N701 1.319 . S
C705 C703 1.397 . S
C706 C703 1.367 . S
C706 C704 1.403 . S
C706 H713 0.929 . S
N707 Eu672 2.562 . S
N707 C708 1.325 . S
N707 C710 1.351 . S
C708 H694 0.929 . S
C708 N707 1.325 . S
C708 C712 1.416 . S
C709 C710 1.430 . S
C709 C711 1.404 . S
C709 C738 1.387 . S
C710 C702 1.448 . S
C710 N707 1.351 . S
C710 C709 1.430 . S
C711 H700 0.930 . S
C711 C709 1.404 . S
C711 C712 1.366 . S
C712 H691 0.930 . S
C712 C708 1.416 . S
C712 C711 1.366 . S
H713 C706 0.929 . S
H714 C737 0.931 . S
H715 C738 0.931 . S
O716 Eu672 2.462 . S
O716 C736 1.252 . S
O717 Eu672 2.373 . S
O717 C728 1.249 . S
O718 Eu683 2.335 . S
O718 C728 1.264 . S
O719 Eu672 2.432 . S
O719 C736 1.268 . S
O720 Eu672 2.291 . S
O720 C735 1.255 . S
O721 Eu683 2.372 . S
O721 C735 1.257 . S
O722 Eu683 2.462 . S
O722 C747 1.252 . S
O723 Eu683 2.373 . S
O723 C739 1.249 . S
O724 Eu672 2.335 . S
O724 C739 1.264 . S
O725 Eu683 2.432 . S
O725 C747 1.268 . S
O726 Eu683 2.291 . S
O726 C746 1.255 . S
O727 Eu672 2.372 . S
O727 C746 1.257 . S
C728 O717 1.249 . S
C728 O718 1.264 . S
C729 C732 1.382 . S
C729 C734 1.390 . S
C729 C736 1.506 . S
C730 C731 1.398 . S
C730 C734 1.392 1_554 S
C731 C730 1.398 . S
C731 C733 1.372 . S
C731 H748 0.931 . S
C732 C729 1.382 . S
C732 C733 1.390 1_556 S
C732 H749 0.931 . S
C733 C731 1.372 . S
C733 C732 1.390 1_554 S
C733 H750 0.929 . S
C734 C729 1.390 . S
C734 C730 1.392 1_556 S
C734 H751 0.930 . S
C735 O720 1.255 . S
C735 O721 1.257 . S
C736 Eu672 2.787 . S
C736 O716 1.252 . S
C736 O719 1.268 . S
C736 C729 1.506 . S
C737 C704 1.439 . S
C737 H714 0.931 . S
C737 C738 1.374 . S
C738 C709 1.387 . S
C738 H715 0.931 . S
C738 C737 1.374 . S
C739 O723 1.249 . S
C739 O724 1.264 . S
C740 C743 1.382 . S
C740 C744 1.390 . S
C740 C747 1.506 . S
C741 C742 1.398 . S
C741 C744 1.392 . S
C742 C741 1.398 . S
C742 C745 1.372 . S
C742 H752 0.931 . S
C743 C740 1.382 . S
C743 C745 1.390 . S
C743 H753 0.931 . S
C744 C740 1.390 . S
C744 C741 1.392 . S
C744 H754 0.930 . S
C745 C742 1.372 . S
C745 C743 1.390 . S
C745 H755 0.929 . S
C746 O726 1.255 . S
C746 O727 1.257 . S
C747 Eu683 2.787 . S
C747 O722 1.252 . S
C747 O725 1.268 . S
C747 C740 1.506 . S
H748 C731 0.931 . S
H749 C732 0.931 . S
H750 C733 0.929 . S
H751 C734 0.930 . S
H752 C742 0.931 . S
H753 C743 0.931 . S
H754 C744 0.930 . S
H755 C745 0.929 . S
H756 C764 0.929 . S
H757 C766 0.930 . S
H758 C768 0.930 . S
H759 C771 0.929 . S
H760 C774 0.930 . S
H761 C776 0.960 . S
H762 C776 0.960 . S
H763 C776 0.960 . S
C764 H756 0.929 . S
C764 C765 1.377 . S
C764 C766 1.384 . S
C765 C764 1.377 . S
C765 C771 1.390 . S
C766 H757 0.930 . S
C766 C764 1.384 . S
C766 C767 1.372 . S
C767 C766 1.372 . S
C767 C768 1.400 . S
C767 C772 1.490 . S
C768 H758 0.930 . S
C768 C767 1.400 . S
C768 C771 1.386 . S
H769 C785 0.930 . S
H770 C786 0.931 . S
C771 H759 0.929 . S
C771 C765 1.390 . S
C771 C768 1.386 . S
C772 C767 1.490 . S
C772 C774 1.395 . S
C772 C775 1.437 . S
H773 C779 0.930 1_655 S
C774 H760 0.930 . S
C774 C772 1.395 . S
C774 C777 1.403 . S
C775 C772 1.437 . S
C775 C776 1.478 1_455 S
C775 C779 1.415 . S
C776 H761 0.960 . S
C776 H762 0.960 . S
C776 H763 0.960 . S
C776 C775 1.478 1_655 S
C777 C774 1.403 . S
C777 C778 1.392 . S
C777 C781 1.495 . S
C778 C777 1.392 . S
C778 C779 1.385 . S
C778 C780 1.478 . S
C779 H773 0.930 1_455 S
C779 C775 1.415 . S
C779 C778 1.385 . S
C780 C778 1.478 . S
C780 C782 1.381 . S
C780 C786 1.383 . S
C781 C777 1.495 . S
C781 H787 0.959 . S
C781 H788 0.961 . S
C781 H789 0.960 . S
C782 C780 1.381 . S
C782 C783 1.394 . S
C782 H790 0.930 . S
C783 C782 1.394 . S
C783 C784 1.383 . S
C783 H791 0.929 . S
C784 C783 1.383 . S
C784 C785 1.377 . S
C785 H769 0.930 . S
C785 C784 1.377 . S
C785 C786 1.379 . S
C786 H770 0.931 . S
C786 C780 1.383 . S
C786 C785 1.379 . S
H787 C781 0.959 . S
H788 C781 0.961 . S
H789 C781 0.960 . S
H790 C782 0.930 . S
H791 C783 0.929 . S
H792 C800 0.929 . S
H793 C802 0.930 . S
H794 C804 0.930 . S
H795 C807 0.929 . S
H796 C810 0.930 . S
H797 C812 0.960 . S
H798 C812 0.960 . S
H799 C812 0.960 . S
C800 H792 0.929 . S
C800 C801 1.377 . S
C800 C802 1.384 . S
C801 C800 1.377 . S
C801 C807 1.390 . S
C802 H793 0.930 . S
C802 C800 1.384 . S
C802 C803 1.372 . S
C803 C802 1.372 . S
C803 C804 1.400 . S
C803 C808 1.490 . S
C804 H794 0.930 . S
C804 C803 1.400 . S
C804 C807 1.386 . S
H805 C821 0.930 . S
H806 C822 0.931 . S
C807 H795 0.929 . S
C807 C801 1.390 . S
C807 C804 1.386 . S
C808 C803 1.490 . S
C808 C810 1.395 . S
C808 C811 1.403 . S
H809 C815 0.930 . S
C810 H796 0.930 . S
C810 C808 1.395 . S
C810 C813 1.403 . S
C811 C808 1.403 . S
C811 C812 1.524 . S
C811 C815 1.400 . S
C812 H797 0.960 . S
C812 H798 0.960 . S
C812 H799 0.960 . S
C812 C811 1.524 . S
C813 C810 1.403 . S
C813 C814 1.392 . S
C813 C817 1.495 . S
C814 C813 1.392 . S
C814 C815 1.385 . S
C814 C816 1.478 . S
C815 H809 0.930 . S
C815 C811 1.400 . S
C815 C814 1.385 . S
C816 C814 1.478 . S
C816 C818 1.381 . S
C816 C822 1.383 . S
C817 C813 1.495 . S
C817 H823 0.959 . S
C817 H824 0.961 . S
C817 H825 0.960 . S
C818 C816 1.381 . S
C818 C819 1.394 . S
C818 H826 0.930 . S
C819 C818 1.394 . S
C819 C820 1.383 . S
C819 H827 0.929 . S
C820 C819 1.383 . S
C820 C821 1.377 . S
C821 H805 0.930 . S
C821 C820 1.377 . S
C821 C822 1.379 . S
C822 H806 0.931 . S
C822 C816 1.383 . S
C822 C821 1.379 . S
H823 C817 0.959 . S
H824 C817 0.961 . S
H825 C817 0.960 . S
H826 C818 0.930 . S
H827 C819 0.929 . S
H828 C836 0.929 . S
H829 C838 0.930 . S
H830 C840 0.930 . S
H831 C843 0.929 . S
H832 C846 0.930 . S
H833 C848 0.960 . S
H834 C848 0.960 . S
H835 C848 0.960 . S
C836 H828 0.929 . S
C836 C837 1.377 . S
C836 C838 1.384 . S
C837 C836 1.377 . S
C837 C843 1.390 . S
C838 H829 0.930 . S
C838 C836 1.384 . S
C838 C839 1.372 . S
C839 C838 1.372 . S
C839 C840 1.400 . S
C839 C844 1.490 . S
C840 H830 0.930 . S
C840 C839 1.400 . S
C840 C843 1.386 . S
H841 C857 0.930 . S
H842 C858 0.931 . S
C843 H831 0.929 . S
C843 C837 1.390 . S
C843 C840 1.386 . S
C844 C839 1.490 . S
C844 C846 1.395 . S
C844 C847 1.403 . S
H845 C851 0.930 . S
C846 H832 0.930 . S
C846 C844 1.395 . S
C846 C849 1.403 . S
C847 C844 1.403 . S
C847 C848 1.524 . S
C847 C851 1.400 . S
C848 H833 0.960 . S
C848 H834 0.960 . S
C848 H835 0.960 . S
C848 C847 1.524 . S
C849 C846 1.403 . S
C849 C850 1.392 . S
C849 C853 1.495 . S
C850 C849 1.392 . S
C850 C851 1.385 . S
C850 C852 1.478 . S
C851 H845 0.930 . S
C851 C847 1.400 . S
C851 C850 1.385 . S
C852 C850 1.478 . S
C852 C854 1.381 . S
C852 C858 1.383 . S
C853 C849 1.495 . S
C853 H859 0.959 . S
C853 H860 0.961 . S
C853 H861 0.960 . S
C854 C852 1.381 . S
C854 C855 1.394 . S
C854 H862 0.930 . S
C855 C854 1.394 . S
C855 C856 1.383 . S
C855 H863 0.929 . S
C856 C855 1.383 . S
C856 C857 1.377 . S
C857 H841 0.930 . S
C857 C856 1.377 . S
C857 C858 1.379 . S
C858 H842 0.931 . S
C858 C852 1.383 . S
C858 C857 1.379 . S
H859 C853 0.959 . S
H860 C853 0.961 . S
H861 C853 0.960 . S
H862 C854 0.930 . S
H863 C855 0.929 . S
H864 C872 0.929 . S
H865 C874 0.930 . S
H866 C876 0.930 . S
H867 C879 0.929 . S
H868 C882 0.930 . S
H869 C884 0.960 . S
H870 C884 0.960 . S
H871 C884 0.960 . S
C872 H864 0.929 . S
C872 C873 1.377 . S
C872 C874 1.384 . S
C873 C872 1.377 . S
C873 C879 1.390 . S
C874 H865 0.930 . S
C874 C872 1.384 . S
C874 C875 1.372 . S
C875 C874 1.372 . S
C875 C876 1.400 . S
C875 C880 1.490 . S
C876 H866 0.930 . S
C876 C875 1.400 . S
C876 C879 1.386 . S
H877 C893 0.930 . S
H878 C894 0.931 . S
C879 H867 0.929 . S
C879 C873 1.390 . S
C879 C876 1.386 . S
C880 C875 1.490 . S
C880 C882 1.395 . S
C880 C883 1.403 . S
H881 C887 0.930 . S
C882 H868 0.930 . S
C882 C880 1.395 . S
C882 C885 1.403 . S
C883 C880 1.403 . S
C883 C884 1.524 . S
C883 C887 1.400 . S
C884 H869 0.960 . S
C884 H870 0.960 . S
C884 H871 0.960 . S
C884 C883 1.524 . S
C885 C882 1.403 . S
C885 C886 1.392 . S
C885 C889 1.495 . S
C886 C885 1.392 . S
C886 C887 1.385 . S
C886 C888 1.478 . S
C887 H881 0.930 . S
C887 C883 1.400 . S
C887 C886 1.385 . S
C888 C886 1.478 . S
C888 C890 1.381 . S
C888 C894 1.383 . S
C889 C885 1.495 . S
C889 H895 0.959 . S
C889 H896 0.961 . S
C889 H897 0.960 . S
C890 C888 1.381 . S
C890 C891 1.394 . S
C890 H898 0.930 . S
C891 C890 1.394 . S
C891 C892 1.383 . S
C891 H899 0.929 . S
C892 C891 1.383 . S
C892 C893 1.377 . S
C893 H877 0.930 . S
C893 C892 1.377 . S
C893 C894 1.379 . S
C894 H878 0.931 . S
C894 C888 1.383 . S
C894 C893 1.379 . S
H895 C889 0.959 . S
H896 C889 0.961 . S
H897 C889 0.960 . S
H898 C890 0.930 . S
H899 C891 0.929 . S
H900 C908 0.929 . S
H901 C910 0.930 . S
H902 C912 0.930 . S
H903 C915 0.929 . S
H904 C918 0.930 . S
H905 C920 0.960 . S
H906 C920 0.960 . S
H907 C920 0.960 . S
C908 H900 0.929 . S
C908 C909 1.377 . S
C908 C910 1.384 . S
C909 C908 1.377 . S
C909 C915 1.390 . S
C910 H901 0.930 . S
C910 C908 1.384 . S
C910 C911 1.372 . S
C911 C910 1.372 . S
C911 C912 1.400 . S
C911 C916 1.490 . S
C912 H902 0.930 . S
C912 C911 1.400 . S
C912 C915 1.386 . S
H913 C929 0.930 . S
H914 C930 0.931 . S
C915 H903 0.929 . S
C915 C909 1.390 . S
C915 C912 1.386 . S
C916 C911 1.490 . S
C916 C918 1.395 . S
C916 C919 1.403 . S
H917 C923 0.930 . S
C918 H904 0.930 . S
C918 C916 1.395 . S
C918 C921 1.403 . S
C919 C916 1.403 . S
C919 C920 1.524 . S
C919 C923 1.400 . S
C920 H905 0.960 . S
C920 H906 0.960 . S
C920 H907 0.960 . S
C920 C919 1.524 . S
C921 C918 1.403 . S
C921 C922 1.392 . S
C921 C925 1.495 . S
C922 C921 1.392 . S
C922 C923 1.385 . S
C922 C924 1.478 . S
C923 H917 0.930 . S
C923 C919 1.400 . S
C923 C922 1.385 . S
C924 C922 1.478 . S
C924 C926 1.381 . S
C924 C930 1.383 . S
C925 C921 1.495 . S
C925 H931 0.959 . S
C925 H932 0.961 . S
C925 H933 0.960 . S
C926 C924 1.381 . S
C926 C927 1.394 . S
C926 H934 0.930 . S
C927 C926 1.394 . S
C927 C928 1.383 1_556 S
C927 H935 0.929 1_556 S
C928 C927 1.383 1_554 S
C928 C929 1.377 . S
C929 H913 0.930 . S
C929 C928 1.377 . S
C929 C930 1.379 1_554 S
C930 H914 0.931 . S
C930 C924 1.383 . S
C930 C929 1.379 1_556 S
H931 C925 0.959 . S
H932 C925 0.961 . S
H933 C925 0.960 . S
H934 C926 0.930 . S
H935 C927 0.929 1_554 S
H936 C944 0.929 . S
H937 C946 0.930 . S
H938 C948 0.930 . S
H939 C951 0.929 . S
H940 C954 0.930 . S
H941 C956 0.960 . S
H942 C956 0.960 . S
H943 C956 0.960 . S
C944 H936 0.929 . S
C944 C945 1.377 . S
C944 C946 1.384 . S
C945 C944 1.377 . S
C945 C951 1.390 . S
C946 H937 0.930 . S
C946 C944 1.384 . S
C946 C947 1.372 . S
C947 C946 1.372 . S
C947 C948 1.400 . S
C947 C952 1.490 . S
C948 H938 0.930 . S
C948 C947 1.400 . S
C948 C951 1.386 . S
H949 C965 0.930 . S
H950 C966 0.931 . S
C951 H939 0.929 . S
C951 C945 1.390 . S
C951 C948 1.386 . S
C952 C947 1.490 . S
C952 C954 1.395 . S
C952 C955 1.403 . S
H953 C959 0.930 . S
C954 H940 0.930 . S
C954 C952 1.395 . S
C954 C957 1.403 . S
C955 C952 1.403 . S
C955 C956 1.524 . S
C955 C959 1.400 . S
C956 H941 0.960 . S
C956 H942 0.960 . S
C956 H943 0.960 . S
C956 C955 1.524 . S
C957 C954 1.403 . S
C957 C958 1.392 . S
C957 C961 1.495 . S
C958 C957 1.392 . S
C958 C959 1.385 . S
C958 C960 1.478 . S
C959 H953 0.930 . S
C959 C955 1.400 . S
C959 C958 1.385 . S
C960 C958 1.478 . S
C960 C962 1.381 1_556 S
C960 C966 1.383 . S
C961 C957 1.495 . S
C961 H967 0.959 . S
C961 H968 0.961 . S
C961 H969 0.960 . S
C962 C960 1.381 1_554 S
C962 C963 1.394 . S
C962 H970 0.930 . S
C963 C962 1.394 . S
C963 C964 1.383 . S
C963 H971 0.929 . S
C964 C963 1.383 . S
C964 C965 1.377 . S
C965 H949 0.930 . S
C965 C964 1.377 . S
C965 C966 1.379 1_554 S
C966 H950 0.931 . S
C966 C960 1.383 . S
C966 C965 1.379 1_556 S
H967 C961 0.959 . S
H968 C961 0.961 . S
H969 C961 0.960 . S
H970 C962 0.930 . S
H971 C963 0.929 . S
H972 C980 0.929 . S
H973 C982 0.930 . S
H974 C984 0.930 . S
H975 C987 0.929 . S
H976 C990 0.930 . S
H977 C992 0.960 . S
H978 C992 0.960 . S
H979 C992 0.960 . S
C980 H972 0.929 . S
C980 C981 1.377 . S
C980 C982 1.384 . S
C981 C980 1.377 . S
C981 C987 1.390 . S
C982 H973 0.930 . S
C982 C980 1.384 . S
C982 C983 1.372 . S
C983 C982 1.372 . S
C983 C984 1.400 . S
C983 C988 1.490 . S
C984 H974 0.930 . S
C984 C983 1.400 . S
C984 C987 1.386 . S
H985 C1001 0.930 . S
H986 C1002 0.931 . S
C987 H975 0.929 . S
C987 C981 1.390 . S
C987 C984 1.386 . S
C988 C983 1.490 . S
C988 C990 1.395 . S
C988 C991 1.403 . S
H989 C995 0.930 . S
C990 H976 0.930 . S
C990 C988 1.395 . S
C990 C993 1.403 . S
C991 C988 1.403 . S
C991 C992 1.524 . S
C991 C995 1.400 . S
C992 H977 0.960 . S
C992 H978 0.960 . S
C992 H979 0.960 . S
C992 C991 1.524 . S
C993 C990 1.403 . S
C993 C994 1.392 . S
C993 C997 1.495 . S
C994 C993 1.392 . S
C994 C995 1.385 . S
C994 C996 1.478 . S
C995 H989 0.930 . S
C995 C991 1.400 . S
C995 C994 1.385 . S
C996 C994 1.478 . S
C996 C998 1.381 . S
C996 C1002 1.383 . S
C997 C993 1.495 . S
C997 H1003 0.959 . S
C997 H1004 0.961 . S
C997 H1005 0.960 . S
C998 C996 1.381 . S
C998 C999 1.394 . S
C998 H1006 0.930 . S
C999 C998 1.394 . S
C999 C1000 1.383 1_554 S
C999 H1007 0.929 . S
C1000 C999 1.383 1_556 S
C1000 C1001 1.377 . S
C1001 H985 0.930 . S
C1001 C1000 1.377 . S
C1001 C1002 1.379 1_556 S
C1002 H986 0.931 . S
C1002 C996 1.383 . S
C1002 C1001 1.379 1_554 S
H1003 C997 0.959 . S
H1004 C997 0.961 . S
H1005 C997 0.960 . S
H1006 C998 0.930 . S
H1007 C999 0.929 . S
H1008 C1016 0.929 . S
H1009 C1018 0.930 . S
H1010 C1020 0.930 . S
H1011 C1023 0.929 . S
H1012 C1026 0.930 . S
H1013 C1028 0.960 . S
H1014 C1028 0.960 . S
H1015 C1028 0.960 . S
C1016 H1008 0.929 . S
C1016 C1017 1.377 . S
C1016 C1018 1.384 . S
C1017 C1016 1.377 . S
C1017 C1023 1.390 . S
C1018 H1009 0.930 . S
C1018 C1016 1.384 . S
C1018 C1019 1.372 . S
C1019 C1018 1.372 . S
C1019 C1020 1.400 . S
C1019 C1024 1.490 . S
C1020 H1010 0.930 . S
C1020 C1019 1.400 . S
C1020 C1023 1.386 . S
H1021 C1037 0.930 . S
H1022 C1038 0.931 . S
C1023 H1011 0.929 . S
C1023 C1017 1.390 . S
C1023 C1020 1.386 . S
C1024 C1019 1.490 . S
C1024 C1026 1.395 . S
C1024 C1027 1.403 . S
H1025 C1031 0.930 . S
C1026 H1012 0.930 . S
C1026 C1024 1.395 . S
C1026 C1029 1.403 . S
C1027 C1024 1.403 . S
C1027 C1028 1.524 . S
C1027 C1031 1.400 . S
C1028 H1013 0.960 . S
C1028 H1014 0.960 . S
C1028 H1015 0.960 . S
C1028 C1027 1.524 . S
C1029 C1026 1.403 . S
C1029 C1030 1.392 . S
C1029 C1033 1.495 . S
C1030 C1029 1.392 . S
C1030 C1031 1.385 . S
C1030 C1032 1.478 . S
C1031 H1025 0.930 . S
C1031 C1027 1.400 . S
C1031 C1030 1.385 . S
C1032 C1030 1.478 . S
C1032 C1034 1.381 . S
C1032 C1038 1.383 . S
C1033 C1029 1.495 . S
C1033 H1039 0.959 . S
C1033 H1040 0.961 . S
C1033 H1041 0.960 . S
C1034 C1032 1.381 . S
C1034 C1035 1.394 1_554 S
C1034 H1042 0.930 . S
C1035 C1034 1.394 1_556 S
C1035 C1036 1.383 . S
C1035 H1043 0.929 . S
C1036 C1035 1.383 . S
C1036 C1037 1.377 . S
C1037 H1021 0.930 . S
C1037 C1036 1.377 . S
C1037 C1038 1.379 1_556 S
C1038 H1022 0.931 . S
C1038 C1032 1.383 . S
C1038 C1037 1.379 1_554 S
H1039 C1033 0.959 . S
H1040 C1033 0.961 . S
H1041 C1033 0.960 . S
H1042 C1034 0.930 . S
H1043 C1035 0.929 . S
H1044 C1052 0.929 . S
H1045 C1054 0.930 . S
H1046 C1056 0.930 . S
H1047 C1059 0.929 . S
H1048 C1062 0.930 . S
H1049 C1064 0.960 . S
H1050 C1064 0.960 . S
H1051 C1064 0.960 . S
C1052 H1044 0.929 . S
C1052 C1053 1.377 . S
C1052 C1054 1.384 . S
C1053 C1052 1.377 . S
C1053 C1059 1.390 . S
C1054 H1045 0.930 . S
C1054 C1052 1.384 . S
C1054 C1055 1.372 . S
C1055 C1054 1.372 . S
C1055 C1056 1.400 . S
C1055 C1060 1.490 . S
C1056 H1046 0.930 . S
C1056 C1055 1.400 . S
C1056 C1059 1.386 . S
H1057 C1073 0.930 . S
H1058 C1074 0.931 . S
C1059 H1047 0.929 . S
C1059 C1053 1.390 . S
C1059 C1056 1.386 . S
C1060 C1055 1.490 . S
C1060 C1062 1.395 . S
C1060 C1063 1.403 . S
H1061 C1067 0.930 . S
C1062 H1048 0.930 . S
C1062 C1060 1.395 . S
C1062 C1065 1.403 . S
C1063 C1060 1.403 . S
C1063 C1064 1.524 . S
C1063 C1067 1.400 . S
C1064 H1049 0.960 . S
C1064 H1050 0.960 . S
C1064 H1051 0.960 . S
C1064 C1063 1.524 . S
C1065 C1062 1.403 . S
C1065 C1066 1.392 . S
C1065 C1069 1.495 . S
C1066 C1065 1.392 . S
C1066 C1067 1.385 . S
C1066 C1068 1.478 . S
C1067 H1061 0.930 . S
C1067 C1063 1.400 . S
C1067 C1066 1.385 . S
C1068 C1066 1.478 . S
C1068 C1070 1.381 . S
C1068 C1074 1.383 . S
C1069 C1065 1.495 . S
C1069 H1075 0.959 . S
C1069 H1076 0.961 . S
C1069 H1077 0.960 . S
C1070 C1068 1.381 . S
C1070 C1071 1.394 1_554 S
C1070 H1078 0.930 . S
C1071 C1070 1.394 1_556 S
C1071 C1072 1.383 . S
C1071 H1079 0.929 . S
C1072 C1071 1.383 . S
C1072 C1073 1.377 1_556 S
C1073 H1057 0.930 . S
C1073 C1072 1.377 1_554 S
C1073 C1074 1.379 . S
C1074 H1058 0.931 . S
C1074 C1068 1.383 . S
C1074 C1073 1.379 . S
H1075 C1069 0.959 . S
H1076 C1069 0.961 . S
H1077 C1069 0.960 . S
H1078 C1070 0.930 . S
H1079 C1071 0.929 . S
H1080 C1088 0.929 . S
H1081 C1090 0.930 . S
H1082 C1092 0.930 . S
H1083 C1095 0.929 . S
H1084 C1098 0.930 . S
H1085 C1100 0.960 . S
H1086 C1100 0.960 . S
H1087 C1100 0.960 . S
C1088 H1080 0.929 . S
C1088 C1089 1.377 . S
C1088 C1090 1.384 . S
C1089 C1088 1.377 . S
C1089 C1095 1.390 . S
C1090 H1081 0.930 . S
C1090 C1088 1.384 . S
C1090 C1091 1.372 . S
C1091 C1090 1.372 . S
C1091 C1092 1.400 . S
C1091 C1096 1.490 . S
C1092 H1082 0.930 . S
C1092 C1091 1.400 . S
C1092 C1095 1.386 . S
H1093 C1109 0.930 . S
H1094 C1110 0.931 . S
C1095 H1083 0.929 . S
C1095 C1089 1.390 . S
C1095 C1092 1.386 . S
C1096 C1091 1.490 . S
C1096 C1098 1.395 . S
C1096 C1099 1.403 . S
H1097 C1103 0.930 . S
C1098 H1084 0.930 . S
C1098 C1096 1.395 . S
C1098 C1101 1.403 . S
C1099 C1096 1.403 . S
C1099 C1100 1.524 . S
C1099 C1103 1.400 . S
C1100 H1085 0.960 . S
C1100 H1086 0.960 . S
C1100 H1087 0.960 . S
C1100 C1099 1.524 . S
C1101 C1098 1.403 . S
C1101 C1102 1.392 . S
C1101 C1105 1.495 . S
C1102 C1101 1.392 . S
C1102 C1103 1.385 . S
C1102 C1104 1.478 . S
C1103 H1097 0.930 . S
C1103 C1099 1.400 . S
C1103 C1102 1.385 . S
C1104 C1102 1.478 . S
C1104 C1106 1.381 . S
C1104 C1110 1.383 . S
C1105 C1101 1.495 . S
C1105 H1111 0.959 . S
C1105 H1112 0.961 . S
C1105 H1113 0.960 . S
C1106 C1104 1.381 . S
C1106 C1107 1.394 . S
C1106 H1114 0.930 . S
C1107 C1106 1.394 . S
C1107 C1108 1.383 . S
C1107 H1115 0.929 . S
C1108 C1107 1.383 . S
C1108 C1109 1.377 . S
C1109 H1093 0.930 . S
C1109 C1108 1.377 . S
C1109 C1110 1.379 . S
C1110 H1094 0.931 . S
C1110 C1104 1.383 . S
C1110 C1109 1.379 . S
H1111 C1105 0.959 . S
H1112 C1105 0.961 . S
H1113 C1105 0.960 . S
H1114 C1106 0.930 . S
H1115 C1107 0.929 . S
H1116 C1124 0.929 . S
H1117 C1126 0.930 . S
H1118 C1128 0.930 . S
H1119 C1131 0.929 . S
H1120 C1134 0.930 . S
H1121 C1136 0.960 . S
H1122 C1136 0.960 . S
H1123 C1136 0.960 . S
C1124 H1116 0.929 . S
C1124 C1125 1.377 . S
C1124 C1126 1.384 . S
C1125 C1124 1.377 . S
C1125 C1131 1.390 . S
C1126 H1117 0.930 . S
C1126 C1124 1.384 . S
C1126 C1127 1.372 . S
C1127 C1126 1.372 . S
C1127 C1128 1.400 . S
C1127 C1132 1.490 . S
C1128 H1118 0.930 . S
C1128 C1127 1.400 . S
C1128 C1131 1.386 . S
H1129 C1145 0.930 . S
H1130 C1146 0.931 . S
C1131 H1119 0.929 . S
C1131 C1125 1.390 . S
C1131 C1128 1.386 . S
C1132 C1127 1.490 . S
C1132 C1134 1.395 . S
C1132 C1135 1.403 . S
H1133 C1139 0.930 . S
C1134 H1120 0.930 . S
C1134 C1132 1.395 . S
C1134 C1137 1.403 . S
C1135 C1132 1.403 . S
C1135 C1136 1.524 . S
C1135 C1139 1.400 . S
C1136 H1121 0.960 . S
C1136 H1122 0.960 . S
C1136 H1123 0.960 . S
C1136 C1135 1.524 . S
C1137 C1134 1.403 . S
C1137 C1138 1.392 . S
C1137 C1141 1.495 . S
C1138 C1137 1.392 . S
C1138 C1139 1.385 . S
C1138 C1140 1.478 . S
C1139 H1133 0.930 . S
C1139 C1135 1.400 . S
C1139 C1138 1.385 . S
C1140 C1138 1.478 . S
C1140 C1142 1.381 . S
C1140 C1146 1.383 . S
C1141 C1137 1.495 . S
C1141 H1147 0.959 . S
C1141 H1148 0.961 . S
C1141 H1149 0.960 . S
C1142 C1140 1.381 . S
C1142 C1143 1.394 . S
C1142 H1150 0.930 . S
C1143 C1142 1.394 . S
C1143 C1144 1.383 . S
C1143 H1151 0.929 . S
C1144 C1143 1.383 . S
C1144 C1145 1.377 . S
C1145 H1129 0.930 . S
C1145 C1144 1.377 . S
C1145 C1146 1.379 . S
C1146 H1130 0.931 . S
C1146 C1140 1.383 . S
C1146 C1145 1.379 . S
H1147 C1141 0.959 . S
H1148 C1141 0.961 . S
H1149 C1141 0.960 . S
H1150 C1142 0.930 . S
H1151 C1143 0.929 . S
H1152 C1160 0.929 1_545 S
H1153 C1162 0.930 . S
H1154 C1164 0.930 . S
H1155 C1167 0.929 . S
H1156 C1170 0.930 . S
H1157 C1172 0.960 . S
H1158 C1172 0.960 . S
H1159 C1172 0.960 . S
C1160 H1152 0.929 1_565 S
C1160 C1161 1.377 . S
C1160 C1162 1.384 . S
C1161 C1160 1.377 . S
C1161 C1167 1.390 . S
C1162 H1153 0.930 . S
C1162 C1160 1.384 . S
C1162 C1163 1.372 . S
C1163 C1162 1.372 . S
C1163 C1164 1.400 . S
C1163 C1168 1.490 . S
C1164 H1154 0.930 . S
C1164 C1163 1.400 . S
C1164 C1167 1.386 . S
H1165 C1181 0.930 . S
H1166 C1182 0.931 . S
C1167 H1155 0.929 . S
C1167 C1161 1.390 . S
C1167 C1164 1.386 . S
C1168 C1163 1.490 . S
C1168 C1170 1.395 . S
C1168 C1171 1.403 . S
H1169 C1175 0.930 . S
C1170 H1156 0.930 . S
C1170 C1168 1.395 . S
C1170 C1173 1.403 . S
C1171 C1168 1.403 . S
C1171 C1172 1.524 . S
C1171 C1175 1.400 . S
C1172 H1157 0.960 . S
C1172 H1158 0.960 . S
C1172 H1159 0.960 . S
C1172 C1171 1.524 . S
C1173 C1170 1.403 . S
C1173 C1174 1.392 . S
C1173 C1177 1.495 . S
C1174 C1173 1.392 . S
C1174 C1175 1.385 . S
C1174 C1176 1.478 . S
C1175 H1169 0.930 . S
C1175 C1171 1.400 . S
C1175 C1174 1.385 . S
C1176 C1174 1.478 . S
C1176 C1178 1.381 . S
C1176 C1182 1.383 . S
C1177 C1173 1.495 . S
C1177 H1183 0.959 . S
C1177 H1184 0.961 . S
C1177 H1185 0.960 . S
C1178 C1176 1.381 . S
C1178 C1179 1.394 . S
C1178 H1186 0.930 . S
C1179 C1178 1.394 . S
C1179 C1180 1.383 . S
C1179 H1187 0.929 . S
C1180 C1179 1.383 . S
C1180 C1181 1.377 . S
C1181 H1165 0.930 . S
C1181 C1180 1.377 . S
C1181 C1182 1.379 . S
C1182 H1166 0.931 . S
C1182 C1176 1.383 . S
C1182 C1181 1.379 . S
H1183 C1177 0.959 . S
H1184 C1177 0.961 . S
H1185 C1177 0.960 . S
H1186 C1178 0.930 . S
H1187 C1179 0.929 . S
H1188 C1196 0.929 . S
H1189 C1198 0.930 . S
H1190 C1200 0.930 . S
H1191 C1203 0.929 . S
H1192 C1206 0.930 . S
H1193 C1208 0.960 . S
H1194 C1208 0.960 . S
H1195 C1208 0.960 . S
C1196 H1188 0.929 . S
C1196 C1197 1.377 . S
C1196 C1198 1.384 . S
C1197 C1196 1.377 . S
C1197 C1203 1.390 . S
C1198 H1189 0.930 . S
C1198 C1196 1.384 . S
C1198 C1199 1.372 . S
C1199 C1198 1.372 . S
C1199 C1200 1.400 . S
C1199 C1204 1.490 . S
C1200 H1190 0.930 . S
C1200 C1199 1.400 . S
C1200 C1203 1.386 . S
H1201 C1217 0.930 . S
H1202 C1218 0.931 . S
C1203 H1191 0.929 . S
C1203 C1197 1.390 . S
C1203 C1200 1.386 . S
C1204 C1199 1.490 . S
C1204 C1206 1.395 . S
C1204 C1207 1.403 . S
H1205 C1211 0.930 . S
C1206 H1192 0.930 . S
C1206 C1204 1.395 . S
C1206 C1209 1.403 . S
C1207 C1204 1.403 . S
C1207 C1208 1.524 . S
C1207 C1211 1.400 . S
C1208 H1193 0.960 . S
C1208 H1194 0.960 . S
C1208 H1195 0.960 . S
C1208 C1207 1.524 . S
C1209 C1206 1.403 . S
C1209 C1210 1.392 . S
C1209 C1213 1.495 . S
C1210 C1209 1.392 . S
C1210 C1211 1.385 . S
C1210 C1212 1.478 . S
C1211 H1205 0.930 . S
C1211 C1207 1.400 . S
C1211 C1210 1.385 . S
C1212 C1210 1.478 . S
C1212 C1214 1.381 . S
C1212 C1218 1.383 . S
C1213 C1209 1.495 . S
C1213 H1219 0.959 . S
C1213 H1220 0.961 . S
C1213 H1221 0.960 . S
C1214 C1212 1.381 . S
C1214 C1215 1.394 . S
C1214 H1222 0.930 . S
C1215 C1214 1.394 . S
C1215 C1216 1.383 . S
C1215 H1223 0.929 . S
C1216 C1215 1.383 . S
C1216 C1217 1.377 . S
C1217 H1201 0.930 . S
C1217 C1216 1.377 . S
C1217 C1218 1.379 . S
C1218 H1202 0.931 . S
C1218 C1212 1.383 . S
C1218 C1217 1.379 . S
H1219 C1213 0.959 . S
H1220 C1213 0.961 . S
H1221 C1213 0.960 . S
H1222 C1214 0.930 . S
H1223 C1215 0.929 . S
H1224 C1232 0.929 . S
H1225 C1234 0.930 . S
H1226 C1236 0.930 . S
H1227 C1239 0.929 . S
H1228 C1242 0.930 . S
H1229 C1244 0.960 1_554 S
H1230 C1244 0.960 . S
H1231 C1244 0.960 . S
C1232 H1224 0.929 . S
C1232 C1233 1.377 . S
C1232 C1234 1.384 . S
C1233 C1232 1.377 . S
C1233 C1239 1.390 . S
C1234 H1225 0.930 . S
C1234 C1232 1.384 . S
C1234 C1235 1.372 . S
C1235 C1234 1.372 . S
C1235 C1236 1.400 . S
C1235 C1240 1.490 . S
C1236 H1226 0.930 . S
C1236 C1235 1.400 . S
C1236 C1239 1.386 . S
H1237 C1253 0.930 . S
H1238 C1254 0.931 . S
C1239 H1227 0.929 . S
C1239 C1233 1.390 . S
C1239 C1236 1.386 . S
C1240 C1235 1.490 . S
C1240 C1242 1.395 . S
C1240 C1243 1.403 . S
H1241 C1247 0.930 1_554 S
C1242 H1228 0.930 . S
C1242 C1240 1.395 . S
C1242 C1245 1.403 . S
C1243 C1240 1.403 . S
C1243 C1244 1.524 . S
C1243 C1247 1.400 . S
C1244 H1229 0.960 1_556 S
C1244 H1230 0.960 . S
C1244 H1231 0.960 . S
C1244 C1243 1.524 . S
C1245 C1242 1.403 . S
C1245 C1246 1.392 . S
C1245 C1249 1.495 . S
C1246 C1245 1.392 . S
C1246 C1247 1.385 . S
C1246 C1248 1.478 . S
C1247 H1241 0.930 1_556 S
C1247 C1243 1.400 . S
C1247 C1246 1.385 . S
C1248 C1246 1.478 . S
C1248 C1250 1.381 . S
C1248 C1254 1.383 1_556 S
C1249 C1245 1.495 . S
C1249 H1255 0.959 . S
C1249 H1256 0.961 . S
C1249 H1257 0.960 . S
C1250 C1248 1.381 . S
C1250 C1251 1.394 1_556 S
C1250 H1258 0.930 . S
C1251 C1250 1.394 1_554 S
C1251 C1252 1.383 . S
C1251 H1259 0.929 1_655 S
C1252 C1251 1.383 . S
C1252 C1253 1.377 . S
C1253 H1237 0.930 . S
C1253 C1252 1.377 . S
C1253 C1254 1.379 . S
C1254 H1238 0.931 . S
C1254 C1248 1.383 1_554 S
C1254 C1253 1.379 . S
H1255 C1249 0.959 . S
H1256 C1249 0.961 . S
H1257 C1249 0.960 . S
H1258 C1250 0.930 . S
H1259 C1251 0.929 1_455 S
H1260 C1268 0.929 . S
H1261 C1270 0.930 . S
H1262 C1272 0.930 . S
H1263 C1275 0.929 . S
H1264 C1278 0.930 . S
H1265 C1280 0.960 . S
H1266 C1280 0.960 . S
H1267 C1280 0.960 . S
C1268 H1260 0.929 . S
C1268 C1269 1.377 . S
C1268 C1270 1.384 . S
C1269 C1268 1.377 . S
C1269 C1275 1.390 . S
C1270 H1261 0.930 . S
C1270 C1268 1.384 . S
C1270 C1271 1.372 . S
C1271 C1270 1.372 . S
C1271 C1272 1.400 . S
C1271 C1276 1.490 . S
C1272 H1262 0.930 . S
C1272 C1271 1.400 . S
C1272 C1275 1.386 . S
H1273 C1289 0.930 . S
H1274 C1290 0.931 . S
C1275 H1263 0.929 . S
C1275 C1269 1.390 . S
C1275 C1272 1.386 . S
C1276 C1271 1.490 . S
C1276 C1278 1.395 . S
C1276 C1279 1.403 . S
H1277 C1283 0.930 . S
C1278 H1264 0.930 . S
C1278 C1276 1.395 . S
C1278 C1281 1.403 . S
C1279 C1276 1.403 . S
C1279 C1280 1.524 . S
C1279 C1283 1.400 . S
C1280 H1265 0.960 . S
C1280 H1266 0.960 . S
C1280 H1267 0.960 . S
C1280 C1279 1.524 . S
C1281 C1278 1.403 . S
C1281 C1282 1.392 . S
C1281 C1285 1.495 . S
C1282 C1281 1.392 . S
C1282 C1283 1.385 . S
C1282 C1284 1.478 . S
C1283 H1277 0.930 . S
C1283 C1279 1.400 . S
C1283 C1282 1.385 . S
C1284 C1282 1.478 . S
C1284 C1286 1.381 . S
C1284 C1290 1.383 . S
C1285 C1281 1.495 . S
C1285 H1291 0.959 . S
C1285 H1292 0.961 . S
C1285 H1293 0.960 . S
C1286 C1284 1.381 . S
C1286 C1287 1.394 . S
C1286 H1294 0.930 . S
C1287 C1286 1.394 . S
C1287 C1288 1.383 . S
C1287 H1295 0.929 . S
C1288 C1287 1.383 . S
C1288 C1289 1.377 . S
C1289 H1273 0.930 . S
C1289 C1288 1.377 . S
C1289 C1290 1.379 . S
C1290 H1274 0.931 . S
C1290 C1284 1.383 . S
C1290 C1289 1.379 . S
H1291 C1285 0.959 . S
H1292 C1285 0.961 . S
H1293 C1285 0.960 . S
H1294 C1286 0.930 . S
H1295 C1287 0.929 . S
H1296 C1304 0.929 . S
H1297 C1306 0.930 . S
H1298 C1308 0.930 . S
H1299 C1311 0.929 . S
H1300 C1314 0.930 . S
H1301 C1316 0.960 . S
H1302 C1316 0.960 . S
H1303 C1316 0.960 . S
C1304 H1296 0.929 . S
C1304 C1305 1.377 . S
C1304 C1306 1.384 . S
C1305 C1304 1.377 . S
C1305 C1311 1.390 . S
C1306 H1297 0.930 . S
C1306 C1304 1.384 . S
C1306 C1307 1.372 . S
C1307 C1306 1.372 . S
C1307 C1308 1.400 . S
C1307 C1312 1.490 . S
C1308 H1298 0.930 . S
C1308 C1307 1.400 . S
C1308 C1311 1.386 . S
H1309 C1325 0.930 . S
H1310 C1326 0.931 . S
C1311 H1299 0.929 . S
C1311 C1305 1.390 . S
C1311 C1308 1.386 . S
C1312 C1307 1.490 . S
C1312 C1314 1.395 . S
C1312 C1315 1.403 . S
H1313 C1319 0.930 . S
C1314 H1300 0.930 . S
C1314 C1312 1.395 . S
C1314 C1317 1.403 . S
C1315 C1312 1.403 . S
C1315 C1316 1.524 . S
C1315 C1319 1.400 . S
C1316 H1301 0.960 . S
C1316 H1302 0.960 . S
C1316 H1303 0.960 . S
C1316 C1315 1.524 . S
C1317 C1314 1.403 . S
C1317 C1318 1.392 . S
C1317 C1321 1.495 . S
C1318 C1317 1.392 . S
C1318 C1319 1.385 . S
C1318 C1320 1.478 . S
C1319 H1313 0.930 . S
C1319 C1315 1.400 . S
C1319 C1318 1.385 . S
C1320 C1318 1.478 . S
C1320 C1322 1.381 1_556 S
C1320 C1326 1.383 . S
C1321 C1317 1.495 . S
C1321 H1327 0.959 . S
C1321 H1328 0.961 . S
C1321 H1329 0.975 . S
C1322 C1320 1.381 1_554 S
C1322 C1323 1.394 . S
C1322 H1330 0.930 . S
C1323 C1322 1.394 . S
C1323 C1324 1.383 . S
C1323 H1331 0.929 . S
C1324 C1323 1.383 . S
C1324 C1325 1.377 1_554 S
C1325 H1309 0.930 . S
C1325 C1324 1.377 1_556 S
C1325 C1326 1.379 . S
C1326 H1310 0.931 . S
C1326 C1320 1.383 . S
C1326 C1325 1.379 . S
H1327 C1321 0.959 . S
H1328 C1321 0.961 . S
H1329 C1321 0.975 . S
H1330 C1322 0.930 . S
H1331 C1323 0.929 . S
H1332 C1340 0.929 . S
H1333 C1342 0.930 . S
H1334 C1344 0.930 . S
H1335 C1347 0.929 . S
H1336 C1350 0.930 . S
H1337 C1352 0.960 . S
H1338 C1352 0.960 . S
H1339 C1352 0.960 . S
C1340 H1332 0.929 . S
C1340 C1341 1.377 . S
C1340 C1342 1.384 . S
C1341 C1340 1.377 . S
C1341 C1347 1.390 1_554 S
C1342 H1333 0.930 . S
C1342 C1340 1.384 . S
C1342 C1343 1.372 1_554 S
C1343 C1342 1.372 1_556 S
C1343 C1344 1.400 . S
C1343 C1348 1.490 . S
C1344 H1334 0.930 . S
C1344 C1343 1.400 . S
C1344 C1347 1.386 . S
H1345 C1361 0.930 . S
H1346 C1362 0.931 . S
C1347 H1335 0.929 . S
C1347 C1341 1.390 1_556 S
C1347 C1344 1.386 . S
C1348 C1343 1.490 . S
C1348 C1350 1.395 . S
C1348 C1351 1.403 . S
H1349 C1355 0.930 . S
C1350 H1336 0.930 . S
C1350 C1348 1.395 . S
C1350 C1353 1.403 . S
C1351 C1348 1.403 . S
C1351 C1352 1.524 . S
C1351 C1355 1.400 . S
C1352 H1337 0.960 . S
C1352 H1338 0.960 . S
C1352 H1339 0.960 . S
C1352 C1351 1.524 . S
C1353 C1350 1.403 . S
C1353 C1354 1.392 . S
C1353 C1357 1.495 . S
C1354 C1353 1.392 . S
C1354 C1355 1.385 . S
C1354 C1356 1.478 . S
C1355 H1349 0.930 . S
C1355 C1351 1.400 . S
C1355 C1354 1.385 . S
C1356 C1354 1.478 . S
C1356 C1358 1.381 . S
C1356 C1362 1.383 . S
C1357 C1353 1.495 . S
C1357 H1363 0.959 . S
C1357 H1364 0.961 . S
C1357 H1365 0.960 . S
C1358 C1356 1.381 . S
C1358 C1359 1.394 . S
C1358 H1366 0.930 . S
C1359 C1358 1.394 . S
C1359 C1360 1.383 . S
C1359 H1367 0.929 . S
C1360 C1359 1.383 . S
C1360 C1361 1.377 . S
C1361 H1345 0.930 . S
C1361 C1360 1.377 . S
C1361 C1362 1.379 . S
C1362 H1346 0.931 . S
C1362 C1356 1.383 . S
C1362 C1361 1.379 . S
H1363 C1357 0.959 . S
H1364 C1357 0.961 . S
H1365 C1357 0.960 . S
H1366 C1358 0.930 . S
H1367 C1359 0.929 . S
H1368 C1376 0.929 . S
H1369 C1378 0.930 . S
H1370 C1380 0.930 . S
H1371 C1383 0.929 . S
H1372 C1386 0.930 . S
H1373 C1388 0.960 . S
H1374 C1388 0.960 . S
H1375 C1388 0.960 . S
C1376 H1368 0.929 . S
C1376 C1377 1.377 . S
C1376 C1378 1.384 . S
C1377 C1376 1.377 . S
C1377 C1383 1.390 . S
C1378 H1369 0.930 . S
C1378 C1376 1.384 . S
C1378 C1379 1.372 . S
C1379 C1378 1.372 . S
C1379 C1380 1.400 . S
C1379 C1384 1.490 . S
C1380 H1370 0.930 . S
C1380 C1379 1.400 . S
C1380 C1383 1.386 . S
H1381 C1397 0.930 . S
H1382 C1398 0.931 . S
C1383 H1371 0.929 . S
C1383 C1377 1.390 . S
C1383 C1380 1.386 . S
C1384 C1379 1.490 . S
C1384 C1386 1.395 . S
C1384 C1387 1.403 . S
H1385 C1391 0.930 . S
C1386 H1372 0.930 . S
C1386 C1384 1.395 . S
C1386 C1389 1.403 . S
C1387 C1384 1.403 . S
C1387 C1388 1.524 . S
C1387 C1391 1.400 . S
C1388 H1373 0.960 . S
C1388 H1374 0.960 . S
C1388 H1375 0.960 . S
C1388 C1387 1.524 . S
C1389 C1386 1.403 . S
C1389 C1390 1.392 . S
C1389 C1393 1.495 . S
C1390 C1389 1.392 . S
C1390 C1391 1.385 . S
C1390 C1392 1.478 . S
C1391 H1385 0.930 . S
C1391 C1387 1.400 . S
C1391 C1390 1.385 . S
C1392 C1390 1.478 . S
C1392 C1394 1.381 . S
C1392 C1398 1.383 . S
C1393 C1389 1.495 . S
C1393 H1399 0.959 . S
C1393 H1400 0.961 . S
C1393 H1401 0.960 . S
C1394 C1392 1.381 . S
C1394 C1395 1.394 . S
C1394 H1402 0.930 . S
C1395 C1394 1.394 . S
C1395 C1396 1.383 . S
C1395 H1403 0.929 . S
C1396 C1395 1.383 . S
C1396 C1397 1.377 . S
C1397 H1381 0.930 . S
C1397 C1396 1.377 . S
C1397 C1398 1.379 . S
C1398 H1382 0.931 . S
C1398 C1392 1.383 . S
C1398 C1397 1.379 . S
H1399 C1393 0.959 . S
H1400 C1393 0.961 . S
H1401 C1393 0.960 . S
H1402 C1394 0.930 . S
H1403 C1395 0.929 . S
H1404 C1412 0.929 1_556 S
H1405 C1414 0.930 . S
H1406 C1416 0.965 . S
H1407 C1419 0.929 . S
H1408 C1422 0.930 . S
H1409 C1424 0.960 . S
H1410 C1424 0.960 . S
H1411 C1424 0.960 1_554 S
C1412 H1404 0.929 1_554 S
C1412 C1413 1.377 . S
C1412 C1414 1.384 . S
C1413 C1412 1.377 . S
C1413 C1419 1.390 . S
C1414 H1405 0.930 . S
C1414 C1412 1.384 . S
C1414 C1415 1.372 . S
C1415 C1414 1.372 . S
C1415 C1416 1.405 1_545 S
C1415 C1420 1.490 1_545 S
C1416 H1406 0.965 . S
C1416 C1415 1.405 1_565 S
C1416 C1419 1.347 1_565 S
H1417 C1433 0.930 . S
H1418 C1434 0.931 . S
C1419 H1407 0.929 . S
C1419 C1413 1.390 . S
C1419 C1416 1.347 1_545 S
C1420 C1415 1.490 1_565 S
C1420 C1422 1.395 1_565 S
C1420 C1423 1.403 . S
H1421 C1427 0.930 . S
C1422 H1408 0.930 . S
C1422 C1420 1.395 1_545 S
C1422 C1425 1.403 1_545 S
C1423 C1420 1.403 . S
C1423 C1424 1.524 1_554 S
C1423 C1427 1.400 . S
C1424 H1409 0.960 . S
C1424 H1410 0.960 . S
C1424 H1411 0.960 1_556 S
C1424 C1423 1.524 1_556 S
C1425 C1422 1.403 1_565 S
C1425 C1426 1.392 . S
C1425 C1429 1.495 1_565 S
C1426 C1425 1.392 . S
C1426 C1427 1.385 . S
C1426 C1428 1.478 . S
C1427 H1421 0.930 . S
C1427 C1423 1.400 . S
C1427 C1426 1.385 . S
C1428 C1426 1.478 . S
C1428 C1430 1.381 . S
C1428 C1434 1.383 . S
C1429 C1425 1.495 1_545 S
C1429 H1435 0.959 . S
C1429 H1436 0.961 . S
C1429 H1437 0.960 . S
C1430 C1428 1.381 . S
C1430 C1431 1.394 . S
C1430 H1438 0.930 . S
C1431 C1430 1.394 . S
C1431 C1432 1.383 . S
C1431 H1439 0.929 . S
C1432 C1431 1.383 . S
C1432 C1433 1.377 . S
C1433 H1417 0.930 . S
C1433 C1432 1.377 . S
C1433 C1434 1.379 . S
C1434 H1418 0.931 . S
C1434 C1428 1.383 . S
C1434 C1433 1.379 . S
H1435 C1429 0.959 . S
H1436 C1429 0.961 . S
H1437 C1429 0.960 . S
H1438 C1430 0.930 . S
H1439 C1431 0.929 . S
H1440 C1448 0.929 . S
H1441 C1450 0.930 . S
H1442 C1452 0.930 . S
H1443 C1455 0.929 . S
H1444 C1458 0.930 . S
H1445 C1460 0.960 . S
H1446 C1460 0.960 . S
H1447 C1460 0.960 . S
C1448 H1440 0.929 . S
C1448 C1449 1.377 . S
C1448 C1450 1.384 . S
C1449 C1448 1.377 . S
C1449 C1455 1.390 . S
C1450 H1441 0.930 . S
C1450 C1448 1.384 . S
C1450 C1451 1.372 . S
C1451 C1450 1.372 . S
C1451 C1452 1.400 . S
C1451 C1456 1.490 . S
C1452 H1442 0.930 . S
C1452 C1451 1.400 . S
C1452 C1455 1.386 . S
H1453 C1469 0.930 . S
H1454 C1470 0.931 . S
C1455 H1443 0.929 . S
C1455 C1449 1.390 . S
C1455 C1452 1.386 . S
C1456 C1451 1.490 . S
C1456 C1458 1.395 . S
C1456 C1459 1.403 . S
H1457 C1463 0.930 . S
C1458 H1444 0.930 . S
C1458 C1456 1.395 . S
C1458 C1461 1.403 . S
C1459 C1456 1.403 . S
C1459 C1460 1.524 . S
C1459 C1463 1.400 . S
C1460 H1445 0.960 . S
C1460 H1446 0.960 . S
C1460 H1447 0.960 . S
C1460 C1459 1.524 . S
C1461 C1458 1.403 . S
C1461 C1462 1.392 . S
C1461 C1465 1.495 . S
C1462 C1461 1.392 . S
C1462 C1463 1.385 . S
C1462 C1464 1.478 . S
C1463 H1457 0.930 . S
C1463 C1459 1.400 . S
C1463 C1462 1.385 . S
C1464 C1462 1.478 . S
C1464 C1466 1.381 . S
C1464 C1470 1.383 . S
C1465 C1461 1.495 . S
C1465 H1471 0.959 . S
C1465 H1472 0.961 . S
C1465 H1473 0.960 . S
C1466 C1464 1.381 . S
C1466 C1467 1.394 . S
C1466 H1474 0.930 . S
C1467 C1466 1.394 . S
C1467 C1468 1.383 . S
C1467 H1475 0.929 . S
C1468 C1467 1.383 . S
C1468 C1469 1.377 . S
C1469 H1453 0.930 . S
C1469 C1468 1.377 . S
C1469 C1470 1.379 . S
C1470 H1454 0.931 . S
C1470 C1464 1.383 . S
C1470 C1469 1.379 . S
H1471 C1465 0.959 . S
H1472 C1465 0.961 . S
H1473 C1465 0.960 . S
H1474 C1466 0.930 . S
H1475 C1467 0.929 . S
H1476 C1484 0.929 . S
H1477 C1486 0.930 . S
H1478 C1488 0.930 . S
H1479 C1491 0.929 . S
H1480 C1494 0.930 . S
H1481 C1496 0.960 . S
H1482 C1496 0.960 . S
H1483 C1496 0.960 . S
C1484 H1476 0.929 . S
C1484 C1485 1.377 . S
C1484 C1486 1.384 . S
C1485 C1484 1.377 . S
C1485 C1491 1.390 . S
C1486 H1477 0.930 . S
C1486 C1484 1.384 . S
C1486 C1487 1.372 . S
C1487 C1486 1.372 . S
C1487 C1488 1.400 . S
C1487 C1492 1.490 . S
C1488 H1478 0.930 . S
C1488 C1487 1.400 . S
C1488 C1491 1.386 . S
H1489 C1505 0.930 . S
H1490 C1506 0.931 . S
C1491 H1479 0.929 . S
C1491 C1485 1.390 . S
C1491 C1488 1.386 . S
C1492 C1487 1.490 . S
C1492 C1494 1.395 . S
C1492 C1495 1.403 . S
H1493 C1499 0.930 . S
C1494 H1480 0.930 . S
C1494 C1492 1.395 . S
C1494 C1497 1.403 . S
C1495 C1492 1.403 . S
C1495 C1496 1.524 . S
C1495 C1499 1.400 . S
C1496 H1481 0.960 . S
C1496 H1482 0.960 . S
C1496 H1483 0.960 . S
C1496 C1495 1.524 . S
C1497 C1494 1.403 . S
C1497 C1498 1.392 . S
C1497 C1501 1.495 . S
C1498 C1497 1.392 . S
C1498 C1499 1.385 . S
C1498 C1500 1.478 . S
C1499 H1493 0.930 . S
C1499 C1495 1.400 . S
C1499 C1498 1.385 . S
C1500 C1498 1.478 . S
C1500 C1502 1.381 . S
C1500 C1506 1.383 . S
C1501 C1497 1.495 . S
C1501 H1507 0.959 . S
C1501 H1508 0.961 . S
C1501 H1509 0.960 . S
C1502 C1500 1.381 . S
C1502 C1503 1.394 . S
C1502 H1510 0.930 . S
C1503 C1502 1.394 . S
C1503 C1504 1.383 . S
C1503 H1511 0.929 . S
C1504 C1503 1.383 . S
C1504 C1505 1.377 . S
C1505 H1489 0.930 . S
C1505 C1504 1.377 . S
C1505 C1506 1.379 . S
C1506 H1490 0.931 . S
C1506 C1500 1.383 . S
C1506 C1505 1.379 . S
H1507 C1501 0.959 . S
H1508 C1501 0.961 . S
H1509 C1501 0.960 . S
H1510 C1502 0.930 . S
H1511 C1503 0.929 . S
H1512 C1520 0.929 . S
H1513 C1522 0.930 . S
H1514 C1524 0.930 . S
H1515 C1527 0.929 . S
H1516 C1530 0.930 . S
H1517 C1532 0.960 . S
H1518 C1532 0.960 . S
H1519 C1532 0.960 . S
C1520 H1512 0.929 . S
C1520 C1521 1.377 . S
C1520 C1522 1.384 . S
C1521 C1520 1.377 . S
C1521 C1527 1.390 . S
C1522 H1513 0.930 . S
C1522 C1520 1.384 . S
C1522 C1523 1.372 . S
C1523 C1522 1.372 . S
C1523 C1524 1.400 . S
C1523 C1528 1.490 . S
C1524 H1514 0.930 . S
C1524 C1523 1.400 . S
C1524 C1527 1.386 . S
H1525 C1541 0.930 . S
H1526 C1542 0.931 . S
C1527 H1515 0.929 . S
C1527 C1521 1.390 . S
C1527 C1524 1.386 . S
C1528 C1523 1.490 . S
C1528 C1530 1.395 . S
C1528 C1531 1.403 . S
H1529 C1535 0.930 . S
C1530 H1516 0.930 . S
C1530 C1528 1.395 . S
C1530 C1533 1.403 . S
C1531 C1528 1.403 . S
C1531 C1532 1.524 . S
C1531 C1535 1.400 . S
C1532 H1517 0.960 . S
C1532 H1518 0.960 . S
C1532 H1519 0.960 . S
C1532 C1531 1.524 . S
C1533 C1530 1.403 . S
C1533 C1534 1.392 . S
C1533 C1537 1.495 . S
C1534 C1533 1.392 . S
C1534 C1535 1.385 . S
C1534 C1536 1.478 . S
C1535 H1529 0.930 . S
C1535 C1531 1.400 . S
C1535 C1534 1.385 . S
C1536 C1534 1.478 . S
C1536 C1538 1.381 . S
C1536 C1542 1.383 . S
C1537 C1533 1.495 . S
C1537 H1543 0.959 . S
C1537 H1544 0.961 . S
C1537 H1545 0.960 . S
C1538 C1536 1.381 . S
C1538 C1539 1.394 . S
C1538 H1546 0.930 . S
C1539 C1538 1.394 . S
C1539 C1540 1.383 . S
C1539 H1547 0.929 . S
C1540 C1539 1.383 . S
C1540 C1541 1.377 . S
C1541 H1525 0.930 . S
C1541 C1540 1.377 . S
C1541 C1542 1.379 . S
C1542 H1526 0.931 . S
C1542 C1536 1.383 . S
C1542 C1541 1.379 . S
H1543 C1537 0.959 . S
H1544 C1537 0.961 . S
H1545 C1537 0.960 . S
H1546 C1538 0.930 . S
H1547 C1539 0.929 . S
H1548 C1556 0.929 . S
H1549 C1558 0.930 . S
H1550 C1560 0.930 . S
H1551 C1563 0.929 . S
H1552 C1566 0.930 . S
H1553 C1568 0.960 1_565 S
H1554 C1568 0.960 . S
H1555 C1568 0.960 . S
C1556 H1548 0.929 . S
C1556 C1557 1.377 . S
C1556 C1558 1.384 . S
C1557 C1556 1.377 . S
C1557 C1563 1.390 . S
C1558 H1549 0.930 . S
C1558 C1556 1.384 . S
C1558 C1559 1.372 . S
C1559 C1558 1.372 . S
C1559 C1560 1.400 . S
C1559 C1564 1.490 . S
C1560 H1550 0.930 . S
C1560 C1559 1.400 . S
C1560 C1563 1.386 . S
H1561 C1577 0.930 . S
H1562 C1578 0.931 . S
C1563 H1551 0.929 . S
C1563 C1557 1.390 . S
C1563 C1560 1.386 . S
C1564 C1559 1.490 . S
C1564 C1566 1.395 . S
C1564 C1567 1.403 . S
H1565 C1571 0.930 . S
C1566 H1552 0.930 . S
C1566 C1564 1.395 . S
C1566 C1569 1.403 . S
C1567 C1564 1.403 . S
C1567 C1568 1.524 . S
C1567 C1571 1.400 1_545 S
C1568 H1553 0.960 1_545 S
C1568 H1554 0.960 . S
C1568 H1555 0.960 . S
C1568 C1567 1.524 . S
C1569 C1566 1.403 . S
C1569 C1570 1.392 1_545 S
C1569 C1573 1.495 . S
C1570 C1569 1.392 1_565 S
C1570 C1571 1.385 . S
C1570 C1572 1.478 . S
C1571 H1565 0.930 . S
C1571 C1567 1.400 1_565 S
C1571 C1570 1.385 . S
C1572 C1570 1.478 . S
C1572 C1574 1.381 . S
C1572 C1578 1.383 . S
C1573 C1569 1.495 . S
C1573 H1579 0.959 . S
C1573 H1580 0.961 1_545 S
C1573 H1581 0.960 1_545 S
C1574 C1572 1.381 . S
C1574 C1575 1.394 . S
C1574 H1582 0.930 . S
C1575 C1574 1.394 . S
C1575 C1576 1.383 . S
C1575 H1583 0.929 . S
C1576 C1575 1.383 . S
C1576 C1577 1.377 . S
C1577 H1561 0.930 . S
C1577 C1576 1.377 . S
C1577 C1578 1.379 . S
C1578 H1562 0.931 . S
C1578 C1572 1.383 . S
C1578 C1577 1.379 . S
H1579 C1573 0.959 . S
H1580 C1573 0.961 1_565 S
H1581 C1573 0.960 1_565 S
H1582 C1574 0.930 . S
H1583 C1575 0.929 . S
H1584 C1592 0.929 . S
H1585 C1594 0.930 . S
H1586 C1596 0.930 . S
H1587 C1599 0.929 . S
H1588 C1602 0.930 . S
H1589 C1604 0.960 . S
H1590 C1604 0.960 . S
H1591 C1604 0.960 . S
C1592 H1584 0.929 . S
C1592 C1593 1.377 . S
C1592 C1594 1.384 . S
C1593 C1592 1.377 . S
C1593 C1599 1.390 . S
C1594 H1585 0.930 . S
C1594 C1592 1.384 . S
C1594 C1595 1.372 . S
C1595 C1594 1.372 . S
C1595 C1596 1.400 . S
C1595 C1600 1.490 . S
C1596 H1586 0.930 . S
C1596 C1595 1.400 . S
C1596 C1599 1.386 . S
H1597 C1613 0.930 . S
H1598 C1614 0.931 . S
C1599 H1587 0.929 . S
C1599 C1593 1.390 . S
C1599 C1596 1.386 . S
C1600 C1595 1.490 . S
C1600 C1602 1.395 . S
C1600 C1603 1.403 . S
H1601 C1607 0.944 . S
C1602 H1588 0.930 . S
C1602 C1600 1.395 . S
C1602 C1605 1.403 1_655 S
C1603 C1600 1.403 . S
C1603 C1604 1.524 . S
C1603 C1607 1.342 1_655 S
C1604 H1589 0.960 . S
C1604 H1590 0.960 . S
C1604 H1591 0.960 . S
C1604 C1603 1.524 . S
C1605 C1602 1.403 1_455 S
C1605 C1606 1.392 . S
C1605 C1609 1.495 . S
C1606 C1605 1.392 . S
C1606 C1607 1.432 . S
C1606 C1608 1.478 . S
C1607 H1601 0.944 . S
C1607 C1603 1.342 1_455 S
C1607 C1606 1.432 . S
C1608 C1606 1.478 . S
C1608 C1610 1.381 . S
C1608 C1614 1.383 . S
C1609 C1605 1.495 . S
C1609 H1615 0.959 . S
C1609 H1616 0.961 . S
C1609 H1617 0.960 . S
C1610 C1608 1.381 . S
C1610 C1611 1.394 . S
C1610 H1618 0.930 . S
C1611 C1610 1.394 . S
C1611 C1612 1.383 . S
C1611 H1619 0.929 . S
C1612 C1611 1.383 . S
C1612 C1613 1.377 . S
C1613 H1597 0.930 . S
C1613 C1612 1.377 . S
C1613 C1614 1.379 . S
C1614 H1598 0.931 . S
C1614 C1608 1.383 . S
C1614 C1613 1.379 . S
H1615 C1609 0.959 . S
H1616 C1609 0.961 . S
H1617 C1609 0.960 . S
H1618 C1610 0.930 . S
H1619 C1611 0.929 . S
H1620 C1628 0.929 . S
H1621 C1630 0.930 . S
H1622 C1632 0.930 . S
H1623 C1635 0.929 . S
H1624 C1638 0.930 . S
H1625 C1640 0.960 . S
H1626 C1640 0.960 . S
H1627 C1640 0.960 . S
C1628 H1620 0.929 . S
C1628 C1629 1.377 . S
C1628 C1630 1.384 . S
C1629 C1628 1.377 . S
C1629 C1635 1.390 . S
C1630 H1621 0.930 . S
C1630 C1628 1.384 . S
C1630 C1631 1.372 . S
C1631 C1630 1.372 . S
C1631 C1632 1.400 . S
C1631 C1636 1.490 . S
C1632 H1622 0.930 . S
C1632 C1631 1.400 . S
C1632 C1635 1.386 . S
H1633 C1649 0.930 . S
H1634 C1650 0.931 . S
C1635 H1623 0.929 . S
C1635 C1629 1.390 . S
C1635 C1632 1.386 . S
C1636 C1631 1.490 . S
C1636 C1638 1.395 . S
C1636 C1639 1.403 . S
H1637 C1643 0.930 . S
C1638 H1624 0.930 . S
C1638 C1636 1.395 . S
C1638 C1641 1.403 . S
C1639 C1636 1.403 . S
C1639 C1640 1.524 . S
C1639 C1643 1.400 . S
C1640 H1625 0.960 . S
C1640 H1626 0.960 . S
C1640 H1627 0.960 . S
C1640 C1639 1.524 . S
C1641 C1638 1.403 . S
C1641 C1642 1.392 . S
C1641 C1645 1.495 . S
C1642 C1641 1.392 . S
C1642 C1643 1.385 . S
C1642 C1644 1.478 . S
C1643 H1637 0.930 . S
C1643 C1639 1.400 . S
C1643 C1642 1.385 . S
C1644 C1642 1.478 . S
C1644 C1646 1.381 . S
C1644 C1650 1.383 . S
C1645 C1641 1.495 . S
C1645 H1651 0.959 . S
C1645 H1652 0.961 . S
C1645 H1653 0.960 . S
C1646 C1644 1.381 . S
C1646 C1647 1.394 . S
C1646 H1654 0.930 . S
C1647 C1646 1.394 . S
C1647 C1648 1.383 . S
C1647 H1655 0.929 . S
C1648 C1647 1.383 . S
C1648 C1649 1.377 . S
C1649 H1633 0.930 . S
C1649 C1648 1.377 . S
C1649 C1650 1.379 . S
C1650 H1634 0.931 . S
C1650 C1644 1.383 . S
C1650 C1649 1.379 . S
H1651 C1645 0.959 . S
H1652 C1645 0.961 . S
H1653 C1645 0.960 . S
H1654 C1646 0.930 . S
H1655 C1647 0.929 . S
H1656 C1664 0.929 . S
H1657 C1666 0.930 . S
H1658 C1668 0.930 . S
H1659 C1671 0.929 . S
H1660 C1674 0.930 . S
H1661 C1676 0.960 . S
H1662 C1676 0.960 . S
H1663 C1676 0.960 . S
C1664 H1656 0.929 . S
C1664 C1665 1.377 . S
C1664 C1666 1.384 . S
C1665 C1664 1.377 . S
C1665 C1671 1.390 . S
C1666 H1657 0.930 . S
C1666 C1664 1.384 . S
C1666 C1667 1.372 . S
C1667 C1666 1.372 . S
C1667 C1668 1.400 . S
C1667 C1672 1.490 . S
C1668 H1658 0.930 . S
C1668 C1667 1.400 . S
C1668 C1671 1.386 . S
H1669 C1685 0.930 . S
H1670 C1686 0.931 . S
C1671 H1659 0.929 . S
C1671 C1665 1.390 . S
C1671 C1668 1.386 . S
C1672 C1667 1.490 . S
C1672 C1674 1.395 . S
C1672 C1675 1.403 1_565 S
H1673 C1679 0.930 . S
C1674 H1660 0.930 . S
C1674 C1672 1.395 . S
C1674 C1677 1.403 1_565 S
C1675 C1672 1.403 1_545 S
C1675 C1676 1.524 . S
C1675 C1679 1.400 . S
C1676 H1661 0.960 . S
C1676 H1662 0.960 . S
C1676 H1663 0.960 . S
C1676 C1675 1.524 . S
C1677 C1674 1.403 1_545 S
C1677 C1678 1.392 . S
C1677 C1681 1.495 . S
C1678 C1677 1.392 . S
C1678 C1679 1.385 . S
C1678 C1680 1.478 . S
C1679 H1673 0.930 . S
C1679 C1675 1.400 . S
C1679 C1678 1.385 . S
C1680 C1678 1.478 . S
C1680 C1682 1.381 . S
C1680 C1686 1.383 . S
C1681 C1677 1.495 . S
C1681 H1687 0.959 1_545 S
C1681 H1688 0.961 . S
C1681 H1689 0.960 . S
C1682 C1680 1.381 . S
C1682 C1683 1.394 . S
C1682 H1690 0.930 . S
C1683 C1682 1.394 . S
C1683 C1684 1.383 . S
C1683 H1691 0.929 . S
C1684 C1683 1.383 . S
C1684 C1685 1.377 . S
C1685 H1669 0.930 . S
C1685 C1684 1.377 . S
C1685 C1686 1.379 . S
C1686 H1670 0.931 . S
C1686 C1680 1.383 . S
C1686 C1685 1.379 . S
H1687 C1681 0.959 1_565 S
H1688 C1681 0.961 . S
H1689 C1681 0.960 . S
H1690 C1682 0.930 . S
H1691 C1683 0.929 . S
H1692 C1700 0.929 . S
H1693 C1702 0.930 . S
H1694 C1704 0.930 . S
H1695 C1707 0.929 . S
H1696 C1710 0.930 . S
H1697 C1712 0.960 . S
H1698 C1712 0.960 . S
H1699 C1712 0.960 . S
C1700 H1692 0.929 . S
C1700 C1701 1.377 . S
C1700 C1702 1.384 . S
C1701 C1700 1.377 . S
C1701 C1707 1.390 . S
C1702 H1693 0.930 . S
C1702 C1700 1.384 . S
C1702 C1703 1.372 . S
C1703 C1702 1.372 . S
C1703 C1704 1.400 . S
C1703 C1708 1.490 . S
C1704 H1694 0.930 . S
C1704 C1703 1.400 . S
C1704 C1707 1.386 . S
H1705 C1721 0.930 . S
H1706 C1722 0.931 . S
C1707 H1695 0.929 . S
C1707 C1701 1.390 . S
C1707 C1704 1.386 . S
C1708 C1703 1.490 . S
C1708 C1710 1.395 . S
C1708 C1711 1.403 . S
H1709 C1715 0.930 . S
C1710 H1696 0.930 . S
C1710 C1708 1.395 . S
C1710 C1713 1.403 . S
C1711 C1708 1.403 . S
C1711 C1712 1.524 . S
C1711 C1715 1.400 1_655 S
C1712 H1697 0.960 . S
C1712 H1698 0.960 . S
C1712 H1699 0.960 . S
C1712 C1711 1.524 . S
C1713 C1710 1.403 . S
C1713 C1714 1.392 1_655 S
C1713 C1717 1.495 . S
C1714 C1713 1.392 1_455 S
C1714 C1715 1.385 . S
C1714 C1716 1.478 . S
C1715 H1709 0.930 . S
C1715 C1711 1.400 1_455 S
C1715 C1714 1.385 . S
C1716 C1714 1.478 . S
C1716 C1718 1.381 . S
C1716 C1722 1.383 . S
C1717 C1713 1.495 . S
C1717 H1723 0.959 . S
C1717 H1724 0.961 . S
C1717 H1725 0.960 1_655 S
C1718 C1716 1.381 . S
C1718 C1719 1.394 . S
C1718 H1726 0.930 . S
C1719 C1718 1.394 . S
C1719 C1720 1.383 . S
C1719 H1727 0.929 . S
C1720 C1719 1.383 . S
C1720 C1721 1.377 . S
C1721 H1705 0.930 . S
C1721 C1720 1.377 . S
C1721 C1722 1.379 . S
C1722 H1706 0.931 . S
C1722 C1716 1.383 . S
C1722 C1721 1.379 . S
H1723 C1717 0.959 . S
H1724 C1717 0.961 . S
H1725 C1717 0.960 1_455 S
H1726 C1718 0.930 . S
H1727 C1719 0.929 . S
C765 C63 3.393 1_556 S
C784 C74 3.386 . S
C801 C158 3.403 . S
C820 C147 3.391 . S
C837 C231 3.425 . S
C856 C242 3.417 . S
C873 C326 3.393 . S
C892 C315 3.384 1_556 S
C909 C399 3.404 . S
C928 C410 3.392 . S
C945 C494 3.421 . S
C964 C483 3.413 . S
C981 C573 2.246 . S
C1000 C562 2.275 1_556 S
C1017 C646 2.253 . S
C1036 C657 2.286 1_556 S
C1053 C741 1.916 . S
C1072 C730 1.901 1_556 S
C1089 C476 1.720 . S
C1108 C69 1.419 . S
C1125 C140 2.129 . S
C1144 C308 2.131 . S
C1161 C237 1.164 1_565 S
C1180 C405 1.149 . S
C1197 C224 2.155 1_556 S
C1216 C571 2.151 . S
C1233 C662 1.426 . S
C1252 C56 1.425 . S
C1269 C739 1.237 . S
C1288 C153 1.224 1_556 S
C1305 C735 0.933 . S
C1324 C58 0.861 . S
C1341 C151 1.746 . S
C1360 C567 1.726 . S
C1377 C644 1.666 . S
C1396 C226 1.585 . S
C1413 C235 1.720 . S
C1432 C310 1.452 . S
C1449 C403 2.128 . S
C1468 C67 2.130 . S
C1485 C142 1.164 . S
C1504 C478 1.166 . S
C1521 C746 0.935 . S
C1540 C321 0.957 . S
C1557 C578 1.721 . S
C1576 C392 1.749 . S
C1593 C655 1.669 . S
C1612 C489 1.612 . S
C1629 C560 2.158 . S
C1648 C487 2.155 . S
C1665 C319 1.438 . S
C1684 C651 1.412 . S
C1701 C728 1.242 . S
C1720 C394 1.182 . S
