# Generated by pormake.
# Topology ukg, (4)-cn, num edge types: 1
# Building blocks:
#     Node 0, Type 0, BuildingBlock: CEKHIL_clean_sbu_0, # of connection points: 4
#     Node 1, Type 0, BuildingBlock: CEKHIL_clean_sbu_0, # of connection points: 4
#     Node 2, Type 0, BuildingBlock: CEKHIL_clean_sbu_0, # of connection points: 4
#     Node 3, Type 0, BuildingBlock: CEKHIL_clean_sbu_0, # of connection points: 4
#     Node 4, Type 0, BuildingBlock: CEKHIL_clean_sbu_0, # of connection points: 4
#     Node 5, Type 0, BuildingBlock: CEKHIL_clean_sbu_0, # of connection points: 4
#     Node 6, Type 0, BuildingBlock: CEKHIL_clean_sbu_0, # of connection points: 4
#     Node 7, Type 0, BuildingBlock: CEKHIL_clean_sbu_0, # of connection points: 4
#     Edge 8, Type (0, 0), BuildingBlock: ZUJKAS_clean_linker_0, # of connection points: 2
#     Edge 9, Type (0, 0), BuildingBlock: ZUJKAS_clean_linker_0, # of connection points: 2
#     Edge 10, Type (0, 0), BuildingBlock: ZUJKAS_clean_linker_0, # of connection points: 2
#     Edge 11, Type (0, 0), BuildingBlock: ZUJKAS_clean_linker_0, # of connection points: 2
#     Edge 12, Type (0, 0), BuildingBlock: ZUJKAS_clean_linker_0, # of connection points: 2
#     Edge 13, Type (0, 0), BuildingBlock: ZUJKAS_clean_linker_0, # of connection points: 2
#     Edge 14, Type (0, 0), BuildingBlock: ZUJKAS_clean_linker_0, # of connection points: 2
#     Edge 15, Type (0, 0), BuildingBlock: ZUJKAS_clean_linker_0, # of connection points: 2
#     Edge 16, Type (0, 0), BuildingBlock: ZUJKAS_clean_linker_0, # of connection points: 2
#     Edge 17, Type (0, 0), BuildingBlock: ZUJKAS_clean_linker_0, # of connection points: 2
#     Edge 18, Type (0, 0), BuildingBlock: ZUJKAS_clean_linker_0, # of connection points: 2
#     Edge 19, Type (0, 0), BuildingBlock: ZUJKAS_clean_linker_0, # of connection points: 2
#     Edge 20, Type (0, 0), BuildingBlock: ZUJKAS_clean_linker_0, # of connection points: 2
#     Edge 21, Type (0, 0), BuildingBlock: ZUJKAS_clean_linker_0, # of connection points: 2
#     Edge 22, Type (0, 0), BuildingBlock: ZUJKAS_clean_linker_0, # of connection points: 2
#     Edge 23, Type (0, 0), BuildingBlock: ZUJKAS_clean_linker_0, # of connection points: 2
# Relax obj value: 0.123
# Max RMSD: 0.207
# Mean RMSD: 0.203
data_MOF--net-ukg--node1-CEKHIL_clean_sbu_0--edge1-ZUJKAS_clean_linker_0
_symmetry_space_group_name_H-M    P1
_symmetry_Int_Tables_number       1
_symmetry_cell_setting            triclinic
loop_
_symmetry_equiv_pos_as_xyz
'x, y, z'
_cell_length_a     39.34338
_cell_length_b     38.81376
_cell_length_c     48.65703
_cell_angle_alpha  89.958271
_cell_angle_beta   90.024418
_cell_angle_gamma 89.788262
loop_
_atom_site_label
_atom_site_type_symbol
_atom_site_fract_x
_atom_site_fract_y
_atom_site_fract_z
_atom_type_partial_charge
Co0 Co 0.02315 0.63664 0.15029 0.0
O1 O 0.03676 0.59595 0.13062 0.0
O2 O 0.02066 0.64504 0.11121 0.0
C3 C 0.98749 0.61082 0.1801 0.0
O4 O 0.00597 0.68315 0.16358 0.0
Co5 Co 0.04022 0.64509 0.21225 0.0
O6 O 0.00574 0.68247 0.20979 0.0
C7 C 0.09342 0.6582 0.1708 0.0
C8 C 0.03025 0.61314 0.10831 0.0
C9 C 0.99762 0.69624 0.1869 0.0
O10 O 0.07157 0.65359 0.15145 0.0
O11 O 0.08654 0.65357 0.19627 0.0
O12 O 0.97772 0.61809 0.15528 0.0
O13 O 0.01944 0.61556 0.18505 0.0
Co14 Co 0.34639 0.51467 0.64738 0.0
O15 O 0.38912 0.52269 0.62987 0.0
O16 O 0.34172 0.50956 0.60772 0.0
C17 C 0.36574 0.47909 0.68011 0.0
O18 O 0.29798 0.50379 0.66014 0.0
Co19 Co 0.3393 0.54102 0.70757 0.0
O20 O 0.2973 0.51308 0.70588 0.0
C21 C 0.33424 0.59032 0.66195 0.0
C22 C 0.37409 0.5166 0.60674 0.0
C23 C 0.2833 0.50226 0.68386 0.0
O24 O 0.33508 0.56518 0.64477 0.0
O25 O 0.33853 0.58636 0.68784 0.0
O26 O 0.35902 0.4674 0.65574 0.0
O27 O 0.3649 0.51218 0.68279 0.0
Co28 Co 0.47269 0.85932 0.15376 0.0
O29 O 0.4653 0.90166 0.13431 0.0
O30 O 0.47663 0.85153 0.11454 0.0
C31 C 0.50944 0.87991 0.18505 0.0
O32 O 0.48327 0.81095 0.16733 0.0
Co33 Co 0.44997 0.85373 0.21468 0.0
O34 O 0.47525 0.80947 0.21312 0.0
C35 C 0.39889 0.84642 0.17086 0.0
C36 C 0.47108 0.88446 0.11194 0.0
C37 C 0.48494 0.79553 0.1907 0.0
O38 O 0.42256 0.84833 0.15267 0.0
O39 O 0.40423 0.85085 0.19658 0.0
O40 O 0.51972 0.87147 0.16065 0.0
O41 O 0.47689 0.87981 0.18878 0.0
Co42 Co 0.15027 0.97754 0.64903 0.0
O43 O 0.10718 0.96951 0.63204 0.0
O44 O 0.15387 0.98369 0.60943 0.0
C45 C 0.13072 0.01194 0.68256 0.0
O46 O 0.19886 0.98888 0.66091 0.0
Co47 Co 0.15991 0.95044 0.70876 0.0
O48 O 0.20239 0.9775 0.70627 0.0
C49 C 0.16372 0.90191 0.66254 0.0
C50 C 0.1215 0.9766 0.6088 0.0
C51 C 0.21502 0.98923 0.684 0.0
O52 O 0.16222 0.92727 0.64556 0.0
O53 O 0.16011 0.90549 0.68853 0.0
O54 O 0.137 0.02435 0.65832 0.0
O55 O 0.13262 0.97884 0.68478 0.0
Co56 Co 0.96624 0.32639 0.85133 0.0
O57 O 0.92819 0.3145 0.87399 0.0
O58 O 0.9258 0.35014 0.83848 0.0
C59 C 0.98362 0.27174 0.84485 0.0
O60 O 0.0003 0.3432 0.82247 0.0
Co61 Co 0.03964 0.30875 0.8708 0.0
O62 O 0.05115 0.31942 0.83214 0.0
C63 C 0.00294 0.36817 0.89497 0.0
C64 C 0.90979 0.333 0.85748 0.0
C65 C 0.03153 0.33648 0.81628 0.0
O66 O 0.97885 0.36504 0.87719 0.0
O67 O 0.02763 0.3467 0.89704 0.0
O68 O 0.95937 0.28472 0.83005 0.0
O69 O 0.99462 0.291 0.86458 0.0
Co70 Co 0.63633 0.47522 0.34488 0.0
O71 O 0.59472 0.46439 0.36318 0.0
O72 O 0.64179 0.48063 0.38442 0.0
C73 C 0.61372 0.50971 0.3125 0.0
O74 O 0.68355 0.48903 0.33133 0.0
Co75 Co 0.64294 0.44924 0.28439 0.0
O76 O 0.68525 0.47681 0.28598 0.0
C77 C 0.65185 0.40047 0.32989 0.0
C78 C 0.60993 0.47168 0.38601 0.0
C79 C 0.69861 0.4892 0.30775 0.0
O80 O 0.65125 0.42561 0.34707 0.0
O81 O 0.64534 0.40395 0.30426 0.0
O82 O 0.6202 0.52155 0.33687 0.0
O83 O 0.61686 0.47676 0.30975 0.0
Co84 Co 0.53571 0.16832 0.85034 0.0
O85 O 0.57415 0.18428 0.87076 0.0
O86 O 0.57683 0.14614 0.83699 0.0
C87 C 0.51395 0.22089 0.84171 0.0
O88 O 0.50062 0.14741 0.82409 0.0
Co89 Co 0.4634 0.18292 0.87398 0.0
O90 O 0.44912 0.16709 0.83713 0.0
C91 C 0.50578 0.12778 0.89813 0.0
C92 C 0.5927 0.16534 0.85477 0.0
C93 C 0.46827 0.15079 0.82041 0.0
O94 O 0.52751 0.1309 0.87849 0.0
O95 O 0.48034 0.1481 0.90121 0.0
O96 O 0.53829 0.20853 0.82669 0.0
O97 O 0.50611 0.20282 0.86309 0.0
Co98 Co 0.86748 0.02383 0.34054 0.0
O99 O 0.90976 0.03431 0.35804 0.0
O100 O 0.86312 0.01864 0.38012 0.0
C101 C 0.88866 0.98897 0.30784 0.0
O102 O 0.81979 0.01004 0.3282 0.0
Co103 Co 0.85856 0.04961 0.2802 0.0
O104 O 0.81526 0.02387 0.28323 0.0
C105 C 0.85094 0.09854 0.32564 0.0
C106 C 0.89515 0.027 0.38115 0.0
C107 C 0.80329 0.0109 0.3053 0.0
O108 O 0.85276 0.0735 0.34288 0.0
O109 O 0.85632 0.09499 0.29985 0.0
O110 O 0.88309 0.97745 0.33246 0.0
O111 O 0.88565 0.02194 0.3049 0.0
H112 H 0.96385 0.42717 0.89213 0.0
H113 H 0.9678 0.47823 0.92176 0.0
H114 H 0.04608 0.42822 0.96949 0.0
H115 H 0.0428 0.37777 0.94011 0.0
H116 H 0.95851 0.48513 0.97793 0.0
H117 H 0.09036 0.51945 0.95058 0.0
H118 H 0.06545 0.48966 0.93048 0.0
H119 H 0.08737 0.47523 0.96093 0.0
C120 C 0.98189 0.42708 0.90896 0.0
C121 C 0.00327 0.39847 0.91352 0.0
C122 C 0.98417 0.4563 0.92578 0.0
C123 C 0.00791 0.45735 0.94732 0.0
C124 C 0.02838 0.42842 0.95243 0.0
H125 H 0.05704 0.55035 0.09596 0.0
H126 H 0.05123 0.5184 0.05298 0.0
C127 C 0.02625 0.39943 0.93567 0.0
C128 C 0.01089 0.48793 0.96538 0.0
H129 H 0.06999 0.54093 0.99436 0.0
C130 C 0.98263 0.49797 0.98108 0.0
C131 C 0.04235 0.50485 0.96927 0.0
C132 C 0.07299 0.49699 0.95168 0.0
C133 C 0.9857 0.52267 0.002 0.0
C134 C 0.01777 0.53765 0.00717 0.0
C135 C 0.0455 0.52916 0.99041 0.0
C136 C 0.02382 0.5589 0.03185 0.0
C137 C 0.95523 0.53114 0.01959 0.0
C138 C 0.01112 0.59262 0.03382 0.0
C139 C 0.01464 0.61112 0.05835 0.0
C140 C 0.03067 0.59596 0.08124 0.0
C141 C 0.04448 0.56268 0.07873 0.0
C142 C 0.0412 0.54439 0.05421 0.0
H143 H 0.93261 0.5156 0.01398 0.0
H144 H 0.9613 0.52658 0.04159 0.0
H145 H 0.9487 0.55883 0.01722 0.0
H146 H 0.99781 0.60425 0.01665 0.0
H147 H 0.00368 0.6367 0.05971 0.0
H148 H 0.43129 0.55263 0.59664 0.0
H149 H 0.47068 0.54561 0.55838 0.0
H150 H 0.40363 0.47082 0.52177 0.0
H151 H 0.36339 0.47862 0.55992 0.0
H152 H 0.50374 0.48676 0.54649 0.0
H153 H 0.42861 0.52894 0.45589 0.0
H154 H 0.41547 0.53801 0.49069 0.0
H155 H 0.40833 0.49614 0.476 0.0
C156 C 0.42456 0.53523 0.58013 0.0
C157 C 0.39429 0.51616 0.5812 0.0
C158 C 0.44717 0.53116 0.55832 0.0
C159 C 0.44017 0.50776 0.53716 0.0
C160 C 0.40931 0.48952 0.53761 0.0
H161 H 0.55363 0.43459 0.39718 0.0
H162 H 0.51468 0.44172 0.43574 0.0
C163 C 0.38633 0.49395 0.55938 0.0
C164 C 0.46647 0.50084 0.51596 0.0
H165 H 0.48149 0.5016 0.44691 0.0
C166 C 0.49892 0.49013 0.5247 0.0
C167 C 0.46018 0.50524 0.48757 0.0
C168 C 0.42637 0.51802 0.47693 0.0
C169 C 0.52507 0.48321 0.50583 0.0
C170 C 0.51873 0.4875 0.47745 0.0
C171 C 0.4863 0.49825 0.4687 0.0
C172 C 0.54494 0.48039 0.45623 0.0
C173 C 0.55897 0.47065 0.51643 0.0
C174 C 0.57553 0.49903 0.45532 0.0
C175 C 0.59823 0.49461 0.43336 0.0
C176 C 0.59027 0.47194 0.41184 0.0
C177 C 0.56036 0.45236 0.41345 0.0
C178 C 0.538 0.45648 0.43542 0.0
H179 H 0.55696 0.46021 0.53764 0.0
H180 H 0.56969 0.45035 0.50287 0.0
H181 H 0.57704 0.49252 0.51688 0.0
H182 H 0.58116 0.51807 0.47091 0.0
H183 H 0.6209 0.51032 0.43243 0.0
H184 H 0.49844 0.86034 0.06362 0.0
H185 H 0.51184 0.89454 0.02244 0.0
H186 H 0.46516 0.98371 0.05963 0.0
H187 H 0.452 0.95014 0.10057 0.0
H188 H 0.46912 0.93728 0.98608 0.0
H189 H 0.56487 0.01285 0.04345 0.0
H190 H 0.54887 0.97202 0.05564 0.0
H191 H 0.52456 0.01087 0.06065 0.0
C192 C 0.49058 0.88709 0.06277 0.0
C193 C 0.4745 0.90268 0.08542 0.0
C194 C 0.49835 0.90657 0.03932 0.0
C195 C 0.49018 0.94179 0.03836 0.0
C196 C 0.47235 0.95674 0.06027 0.0
H197 H 0.47413 0.12055 0.94756 0.0
H198 H 0.47627 0.07144 0.97871 0.0
C199 C 0.4647 0.93745 0.0836 0.0
C200 C 0.50096 0.96377 0.01511 0.0
H201 H 0.5434 0.03849 0.00182 0.0
C202 C 0.48603 0.95893 0.98922 0.0
C203 C 0.52331 0.99177 0.01927 0.0
C204 C 0.54162 -0.00295 0.04619 0.0
C205 C 0.49085 0.98302 0.96799 0.0
C206 C 0.51111 0.01236 0.97294 0.0
C207 C 0.52779 0.01595 -0.0018 0.0
C208 C 0.51128 0.04191 0.95381 0.0
C209 C 0.47264 0.97829 0.941 0.0
C210 C 0.53079 0.04165 0.92969 0.0
C211 C 0.52985 0.06995 0.91177 0.0
C212 C 0.50915 0.09869 0.9177 0.0
C213 C 0.49017 0.09883 0.9422 0.0
C214 C 0.49135 0.0708 0.96008 0.0
H215 H 0.45778 0.95402 0.94038 0.0
H216 H 0.45514 0.00034 0.93738 0.0
H217 H 0.49139 0.97797 0.92395 0.0
H218 H 0.54649 0.01955 0.92469 0.0
H219 H 0.5447 0.06899 0.89305 0.0
H220 H 0.9589 0.05161 0.3886 0.0
H221 H 0.99618 0.04286 0.42799 0.0
H222 H 0.91551 0.99066 0.47097 0.0
H223 H 0.87784 -0.00103 0.43116 0.0
H224 H 0.99083 0.06196 0.48312 0.0
H225 H 0.99359 0.9196 0.47041 0.0
H226 H 0.97704 0.94814 0.44429 0.0
H227 H 0.95205 0.93842 0.47417 0.0
C228 C 0.94888 0.03853 0.4065 0.0
C229 C 0.91549 0.02569 0.40669 0.0
C230 C 0.97027 0.03358 0.42901 0.0
C231 C 0.95884 0.01556 0.45216 0.0
C232 C 0.92501 0.00407 0.45303 0.0
H233 H 0.0573 0.95296 0.60215 0.0
H234 H 0.01941 0.96199 0.56321 0.0
C235 C 0.90343 0.0091 0.43042 0.0
C236 C 0.98298 0.00811 0.47481 0.0
H237 H 0.02424 0.94252 0.50788 0.0
C238 C 0.99816 0.03586 0.48856 0.0
C239 C 0.99266 0.97403 0.48167 0.0
C240 C 0.97827 0.94327 0.46676 0.0
C241 C 0.0224 0.03045 0.50933 0.0
C242 C 0.03214 -0.00363 0.51613 0.0
C243 C 0.0169 0.96862 0.50243 0.0
C244 C 0.05655 0.98896 0.5386 0.0
C245 C 0.03677 0.06118 0.52427 0.0
C246 C 0.09045 0.00022 0.53735 0.0
C247 C 0.11239 0.99501 0.5597 0.0
C248 C 0.10063 0.9785 0.58356 0.0
C249 C 0.06711 0.96601 0.58415 0.0
C250 C 0.04536 0.9711 0.56189 0.0
H251 H 0.02145 0.08485 0.52064 0.0
H252 H 0.03799 0.05626 0.54674 0.0
H253 H 0.063 0.06603 0.51688 0.0
H254 H 0.09972 0.01353 0.51929 0.0
H255 H 0.13808 0.00487 0.55866 0.0
H256 H 0.11333 0.6873 0.12202 0.0
H257 H 0.16603 0.71862 0.11283 0.0
H258 H 0.20207 0.69426 0.19426 0.0
H259 H 0.14966 0.66297 0.2037 0.0
H260 H 0.18731 0.7766 0.145 0.0
H261 H 0.28438 0.67267 0.1439 0.0
H262 H 0.23963 0.66449 0.13877 0.0
H263 H 0.25611 0.67088 0.17284 0.0
C264 C 0.13274 0.68796 0.1378 0.0
C265 C 0.12716 0.67268 0.16366 0.0
C266 C 0.16278 0.70599 0.13252 0.0
C267 C 0.18799 0.70856 0.1528 0.0
C268 C 0.18312 0.69217 0.17819 0.0
H269 H 0.3394 0.84992 0.19985 0.0
H270 H 0.28669 0.81928 0.19003 0.0
C271 C 0.15304 0.67441 0.18358 0.0
C272 C 0.21807 0.73078 0.14855 0.0
H273 H 0.30476 0.73018 0.15052 0.0
C274 C 0.21301 0.76644 0.14574 0.0
C275 C 0.25152 0.71742 0.14928 0.0
C276 C 0.25836 0.67923 0.1511 0.0
C277 C 0.24061 0.78928 0.14515 0.0
C278 C 0.27398 0.77606 0.14753 0.0
C279 C 0.27909 0.74027 0.14884 0.0
C280 C 0.3038 0.79883 0.15105 0.0
C281 C 0.23386 0.82741 0.14254 0.0
C282 C 0.33067 0.79801 0.13212 0.0
C283 C 0.36084 0.81572 0.13759 0.0
C284 C 0.36486 0.83401 0.16235 0.0
C285 C 0.3372 0.83608 0.18061 0.0
C286 C 0.30698 0.81868 0.17499 0.0
H287 H 0.20839 0.83266 0.13356 0.0
H288 H 0.23474 0.83933 0.16325 0.0
H289 H 0.25348 0.83995 0.12957 0.0
H290 H 0.32872 0.78268 0.11359 0.0
H291 H 0.38166 0.81337 0.12315 0.0
H292 H 0.33306 0.65094 0.69052 0.0
H293 H 0.30504 0.7044 0.67691 0.0
H294 H 0.28315 0.66152 0.59716 0.0
H295 H 0.31096 0.60759 0.61057 0.0
H296 H 0.31205 0.7515 0.63093 0.0
H297 H 0.18869 0.68123 0.63326 0.0
H298 H 0.22695 0.66335 0.64805 0.0
H299 H 0.22181 0.66464 0.61143 0.0
C300 C 0.32289 0.65297 0.66989 0.0
C301 C 0.32372 0.62471 0.65183 0.0
C302 C 0.30697 0.68361 0.66213 0.0
C303 C 0.29156 0.68654 0.63625 0.0
C304 C 0.29452 0.65945 0.61738 0.0
H305 H 0.18781 0.88571 0.61123 0.0
H306 H 0.21586 0.83203 0.59753 0.0
C307 C 0.31056 0.62873 0.62509 0.0
C308 C 0.2697 0.71667 0.63051 0.0
H309 H 0.18635 0.74136 0.62994 0.0
C310 C 0.28459 0.7494 0.63002 0.0
C311 C 0.23389 0.71356 0.62961 0.0
C312 C 0.21667 0.6789 0.63075 0.0
C313 C 0.26452 0.77932 0.63011 0.0
C314 C 0.2287 0.7762 0.63045 0.0
C315 C 0.21382 0.74348 0.62945 0.0
C316 C 0.20671 0.80622 0.63621 0.0
C317 C 0.28171 0.81397 0.63179 0.0
C318 C 0.19082 0.80863 0.66191 0.0
C319 C 0.17476 0.8391 0.66982 0.0
C320 C 0.17428 0.86773 0.65209 0.0
C321 C 0.18792 0.86425 0.62547 0.0
C322 C 0.2041 0.83369 0.61761 0.0
H323 H 0.30964 0.81159 0.63463 0.0
H324 H 0.2769 0.82855 0.61255 0.0
H325 H 0.27112 0.82921 0.64911 0.0
H326 H 0.19247 0.78755 0.67647 0.0
H327 H 0.16421 0.84072 0.69034 0.0
H328 H 0.63413 0.16481 0.80979 0.0
H329 H 0.6904 0.19188 0.80678 0.0
H330 H 0.68978 0.20844 0.89438 0.0
H331 H 0.63358 0.18208 0.89743 0.0
H332 H 0.69745 0.26486 0.82816 0.0
H333 H 0.7882 0.17147 0.87454 0.0
H334 H 0.74876 0.15837 0.85865 0.0
H335 H 0.74853 0.17692 0.89244 0.0
C336 C 0.64664 0.17299 0.82851 0.0
C337 C 0.62966 0.17124 0.85387 0.0
C338 C 0.67856 0.18875 0.82672 0.0
C339 C 0.69412 0.20217 0.85036 0.0
C340 C 0.67829 0.19801 0.87595 0.0
H341 H 0.86853 0.31661 0.90016 0.0
H342 H 0.8131 0.28878 0.89674 0.0
C343 C 0.64627 0.18284 0.87767 0.0
C344 C 0.72483 0.22392 0.84833 0.0
H345 H 0.80705 0.22916 0.86987 0.0
C346 C 0.72162 0.25702 0.83693 0.0
C347 C 0.75606 0.21362 0.86002 0.0
C348 C 0.76088 0.17806 0.87196 0.0
C349 C 0.74856 0.28071 0.83794 0.0
C350 C 0.77969 0.27065 0.85018 0.0
C351 C 0.78308 0.23707 0.86078 0.0
C352 C 0.80925 0.29421 0.85257 0.0
C353 C 0.74293 0.31662 0.82693 0.0
C354 C 0.82467 0.30832 0.82908 0.0
C355 C 0.85604 0.32507 0.83113 0.0
C356 C 0.87277 0.32723 0.8566 0.0
C357 C 0.85611 0.31544 0.8803 0.0
C358 C 0.82459 0.29924 0.87832 0.0
H359 H 0.71545 0.32314 0.82568 0.0
H360 H 0.75575 0.33612 0.83997 0.0
H361 H 0.75364 0.31834 0.80589 0.0
H362 H 0.81371 0.3043 0.80893 0.0
H363 H 0.86859 0.33335 0.81245 0.0
H364 H 0.63296 0.33614 0.31349 0.0
H365 H 0.66371 0.28227 0.32206 0.0
H366 H 0.73554 0.33714 0.37276 0.0
H367 H 0.70343 0.3902 0.36587 0.0
H368 H 0.72203 0.2703 0.30419 0.0
H369 H 0.73132 0.25233 0.41632 0.0
H370 H 0.70251 0.28324 0.40121 0.0
H371 H 0.74641 0.29426 0.40722 0.0
C372 C 0.65459 0.33629 0.32727 0.0
C373 C 0.66578 0.36717 0.33912 0.0
C374 C 0.67226 0.3056 0.33209 0.0
C375 C 0.70196 0.30542 0.34822 0.0
C376 C 0.71223 0.33612 0.36098 0.0
H377 H 0.86366 0.16304 0.30567 0.0
H378 H 0.83023 0.21517 0.31457 0.0
C379 C 0.69394 0.36659 0.35687 0.0
C380 C 0.72462 0.27469 0.34833 0.0
H381 H 0.77468 0.22389 0.38915 0.0
C382 C 0.73306 0.2599 0.32289 0.0
C383 C 0.73901 0.26079 0.37264 0.0
C384 C 0.729 0.2733 0.40086 0.0
C385 C 0.75563 0.23206 0.32097 0.0
C386 C 0.77186 0.21973 0.34505 0.0
C387 C 0.76296 0.23394 0.37061 0.0
C388 C 0.79668 0.19089 0.34404 0.0
C389 C 0.76099 0.21568 0.29314 0.0
C390 C 0.79101 0.16098 0.35957 0.0
C391 C 0.81091 0.13161 0.35527 0.0
C392 C 0.83643 0.13156 0.33505 0.0
C393 C 0.84386 0.16231 0.32112 0.0
C394 C 0.82454 0.19194 0.32599 0.0
H395 H 0.73929 0.22094 0.2791 0.0
H396 H 0.78412 0.22662 0.28351 0.0
H397 H 0.76423 0.18733 0.29487 0.0
H398 H 0.76991 0.15964 0.37382 0.0
H399 H 0.80456 0.10823 0.36627 0.0
H400 H 0.74398 0.47512 0.26739 0.0
H401 H 0.79993 0.49945 0.26041 0.0
H402 H 0.78931 0.55943 0.33449 0.0
H403 H 0.73227 0.53486 0.3418 0.0
H404 H 0.80999 0.5975 0.28686 0.0
H405 H 0.89022 0.48183 0.30045 0.0
H406 H 0.85426 0.47291 0.27896 0.0
H407 H 0.84769 0.48502 0.31431 0.0
C408 C 0.75341 0.49329 0.28243 0.0
C409 C 0.73348 0.50317 0.30512 0.0
C410 C 0.78568 0.50691 0.27853 0.0
C411 C 0.79906 0.53074 0.29717 0.0
C412 C 0.77954 0.54068 0.32005 0.0
H413 H -4e-05 0.59351 0.23395 0.0
H414 H 0.95781 0.57884 0.26936 0.0
C415 C 0.74705 0.52667 0.32418 0.0
C416 C 0.83217 0.54691 0.29073 0.0
H417 H 0.91133 0.52479 0.26801 0.0
C418 C 0.83255 0.5819 0.28353 0.0
C419 C 0.86181 0.52675 0.2868 0.0
C420 C 0.86362 0.48961 0.29583 0.0
C421 C 0.86058 0.5963 0.26992 0.0
C422 C 0.88858 0.57499 0.26306 0.0
C423 C 0.88962 0.54099 0.27284 0.0
C424 C 0.91437 0.58582 0.24262 0.0
C425 C 0.85928 0.63379 0.26181 0.0
C426 C 0.90394 0.59395 0.21581 0.0
C427 C 0.92779 0.60195 0.19563 0.0
C428 C 0.96268 0.60191 0.20177 0.0
C429 C 0.97322 0.59376 0.22864 0.0
C430 C 0.94922 0.58551 0.24888 0.0
H431 H 0.84322 0.64886 0.27628 0.0
H432 H 0.8851 0.64524 0.26125 0.0
H433 H 0.84783 0.63613 0.24104 0.0
H434 H 0.87726 0.59344 0.2103 0.0
H435 H 0.91881 0.60806 0.17514 0.0
H436 H 0.33807 0.41615 0.68739 0.0
H437 H 0.35158 0.37431 0.7233 0.0
H438 H 0.4213 0.44675 0.75986 0.0
H439 H 0.40609 0.48943 0.72481 0.0
H440 H 0.40955 0.34629 0.72772 0.0
H441 H 0.38224 0.4068 0.82792 0.0
H442 H 0.36647 0.42449 0.79602 0.0
H443 H 0.40889 0.4342 0.80766 0.0
C444 C 0.35572 0.42332 0.70349 0.0
C445 C 0.37138 0.4557 0.70335 0.0
C446 C 0.36331 0.3995 0.72403 0.0
C447 C 0.38728 0.40739 0.74446 0.0
C448 C 0.40203 0.44033 0.74485 0.0
H449 H 0.53432 0.26915 0.80539 0.0
H450 H 0.50023 0.31515 0.78512 0.0
C451 C 0.39368 0.46456 0.72466 0.0
C452 C 0.40049 0.37961 0.76248 0.0
H453 H 0.42442 0.36066 0.8283 0.0
C454 C 0.41207 0.34929 0.74979 0.0
C455 C 0.40356 0.38316 0.79134 0.0
C456 C 0.38925 0.4138 0.80652 0.0
C457 C 0.42803 0.32323 0.76487 0.0
C458 C 0.43367 0.32808 0.79327 0.0
C459 C 0.42057 0.35742 0.80638 0.0
C460 C 0.45516 0.3038 0.80888 0.0
C461 C 0.43934 0.29095 0.75009 0.0
C462 C 0.44154 0.28351 0.83002 0.0
C463 C 0.4612 0.25735 0.84196 0.0
C464 C 0.49449 0.25123 0.83265 0.0
C465 C 0.50855 0.27299 0.81265 0.0
C466 C 0.48914 0.29923 0.80105 0.0
H467 H 0.42432 0.28667 0.73106 0.0
H468 H 0.46642 0.29359 0.74408 0.0
H469 H 0.43691 0.2679 0.76347 0.0
H470 H 0.41537 0.28691 0.8364 0.0
H471 H 0.44987 0.24099 0.85746 0.0
H472 H 0.56582 0.84268 0.19586 0.0
H473 H 0.61152 0.85683 0.22786 0.0
H474 H 0.55547 0.94669 0.25442 0.0
H475 H 0.50866 0.93107 0.22355 0.0
H476 H 0.64835 0.9094 0.22153 0.0
H477 H 0.59503 0.91915 0.32622 0.0
H478 H 0.57212 0.89909 0.29837 0.0
H479 H 0.5713 0.94523 0.30257 0.0
C480 C 0.56294 0.86491 0.20914 0.0
C481 C 0.534 0.88596 0.20728 0.0
C482 C 0.58901 0.87298 0.22744 0.0
C483 C 0.58707 0.90279 0.24374 0.0
C484 C 0.55734 0.92307 0.2427 0.0
H485 H 0.75123 0.03534 0.27477 0.0
H486 H 0.69736 0.00714 0.26488 0.0
C487 C 0.53072 0.91436 0.22489 0.0
C488 C 0.61804 0.9152 0.25821 0.0
H489 H 0.64766 0.95022 0.31811 0.0
C490 C 0.64817 0.91758 0.24284 0.0
C491 C 0.61817 0.92586 0.28607 0.0
C492 C 0.58748 0.92184 0.30431 0.0
C493 C 0.67783 0.93143 0.25409 0.0
C494 C 0.67729 0.94425 0.28124 0.0
C495 C 0.6478 0.94068 0.29717 0.0
C496 C 0.70653 0.96394 0.292 0.0
C497 C 0.70942 0.93306 0.23651 0.0
C498 C 0.72877 0.94972 0.31158 0.0
C499 C 0.75972 0.96606 0.31751 0.0
C500 C 0.76867 -0.00352 0.30362 0.0
C501 C 0.7452 0.01164 0.28547 0.0
C502 C 0.71436 -0.00434 0.27987 0.0
H503 H 0.70837 0.91442 0.21921 0.0
H504 H 0.71178 0.95932 0.22769 0.0
H505 H 0.73255 0.92766 0.2489 0.0
H506 H 0.72308 0.92518 0.3211 0.0
H507 H 0.77741 0.95387 0.33157 0.0
H508 H 0.95243 0.21826 0.82032 0.0
H509 H 0.97892 0.16653 0.80148 0.0
H510 H 0.07633 0.19969 0.8324 0.0
H511 H 0.04938 0.25068 0.85266 0.0
H512 H 0.02266 0.17152 0.76184 0.0
H513 H 0.08293 0.09788 0.84643 0.0
H514 H 0.05175 0.13128 0.85251 0.0
H515 H 0.09545 0.14228 0.84615 0.0
C516 C 0.97934 0.214 0.82371 0.0
C517 C 0.99902 0.23848 0.83762 0.0
C518 C 0.99443 0.18445 0.81301 0.0
C519 C 0.0296 0.17917 0.81554 0.0
C520 C 0.04906 0.20279 0.83069 0.0
H521 H 0.14316 0.08024 0.6873 0.0
H522 H 0.12168 0.11938 0.72258 0.0
C523 C 0.03372 0.23208 0.84203 0.0
C524 C 0.04617 0.1521 0.7988 0.0
H525 H 0.10172 0.08431 0.80062 0.0
C526 C 0.03963 0.15224 0.77045 0.0
C527 C 0.06821 0.12687 0.81002 0.0
C528 C 0.07475 0.12429 0.84049 0.0
C529 C 0.05471 0.12817 0.75293 0.0
C530 C 0.07806 0.10404 0.76388 0.0
C531 C 0.0842 0.10327 0.7923 0.0
C532 C 0.09607 0.07957 0.74576 0.0
C533 C 0.04512 0.12865 0.72286 0.0
C534 C 0.09047 0.04401 0.74815 0.0
C535 C 0.10323 0.02148 0.72822 0.0
C536 C 0.12136 0.03443 0.70562 0.0
C537 C 0.1287 0.06974 0.70427 0.0
C538 C 0.11647 0.09208 0.72437 0.0
H539 H 0.02027 0.14167 0.71944 0.0
H540 H 0.06467 0.14306 0.71115 0.0
H541 H 0.04365 0.10214 0.71439 0.0
H542 H 0.07491 0.03393 0.76464 0.0
H543 H 0.09745 0.99428 0.72975 0.0
H544 H 0.00264 0.38062 0.77812 0.0
H545 H 0.03113 0.4081 0.73895 0.0
H546 H 0.12346 0.35307 0.75868 0.0
H547 H 0.09532 0.32495 0.7966 0.0
H548 H 0.08089 0.45105 0.74077 0.0
H549 H 0.12716 0.34375 0.67805 0.0
H550 H 0.09482 0.33765 0.70392 0.0
H551 H 0.13937 0.33478 0.71273 0.0
C552 C 0.02877 0.37378 0.77364 0.0
C553 C 0.04665 0.35065 0.79067 0.0
C554 C 0.04502 0.3895 0.75122 0.0
C555 C 0.07933 0.38217 0.74537 0.0
C556 C 0.09672 0.35835 0.76196 0.0
H557 H 0.24546 0.49807 0.73045 0.0
H558 H 0.19014 0.47268 0.7367 0.0
C559 C 0.08058 0.34259 0.78407 0.0
C560 C 0.09886 0.40245 0.72479 0.0
H561 H 0.16697 0.3936 0.6819 0.0
C562 C 0.09891 0.43849 0.72717 0.0
C563 C 0.12174 0.38657 0.70616 0.0
C564 C 0.12039 0.34856 0.69988 0.0
C565 C 0.12395 0.45842 0.71426 0.0
C566 C 0.15018 0.44177 0.69935 0.0
C567 C 0.14752 0.40637 0.69401 0.0
C568 C 0.18312 0.45911 0.69394 0.0
C569 C 0.12315 0.49697 0.71808 0.0
C570 C 0.19851 0.45896 0.66784 0.0
C571 C 0.23096 0.47331 0.66413 0.0
C572 C 0.24858 0.48764 0.68656 0.0
C573 C 0.23285 0.48754 0.71255 0.0
C574 C 0.2008 0.47333 0.71617 0.0
H575 H 0.09651 0.50654 0.7189 0.0
H576 H 0.13535 0.5036 0.73795 0.0
H577 H 0.13672 0.51052 0.70126 0.0
H578 H 0.18554 0.44758 0.65045 0.0
H579 H 0.24234 0.47282 0.64388 0.0
H580 H 0.59467 0.49258 0.25999 0.0
H581 H 0.57858 0.53248 0.22284 0.0
H582 H 0.59785 0.61866 0.2765 0.0
H583 H 0.6139 0.57943 0.31327 0.0
H584 H 0.52531 0.57941 0.22533 0.0
H585 H 0.64504 0.64852 0.20602 0.0
H586 H 0.64387 0.60706 0.22297 0.0
H587 H 0.63687 0.64613 0.2422 0.0
C588 C 0.59582 0.52007 0.26364 0.0
C589 C 0.60541 0.53295 0.2895 0.0
C590 C 0.58678 0.54276 0.24243 0.0
C591 C 0.58779 0.5785 0.24676 0.0
C592 C 0.59784 0.59122 0.27246 0.0
H593 H 0.47558 0.74887 0.23162 0.0
H594 H 0.49988 0.69141 0.2355 0.0
C595 C 0.60663 0.56871 0.29358 0.0
C596 C 0.57481 0.60301 0.22597 0.0
H597 H 0.59264 0.68254 0.20013 0.0
C598 C 0.54028 0.60142 0.21894 0.0
C599 C 0.59447 0.63136 0.21712 0.0
C600 C 0.63222 0.63316 0.22224 0.0
C601 C 0.52405 0.6294 0.20621 0.0
C602 C 0.54284 0.65962 0.20078 0.0
C603 C 0.57814 0.65953 0.20474 0.0
C604 C 0.52571 0.69306 0.19625 0.0
C605 C 0.48648 0.62729 0.20038 0.0
C606 C 0.53263 0.7133 0.17303 0.0
C607 C 0.5187 0.74644 0.17073 0.0
C608 C 0.4983 0.75994 0.19193 0.0
C609 C 0.49129 0.73935 0.21498 0.0
C610 C 0.50484 0.7063 0.21709 0.0
H611 H 0.47872 0.60029 0.19622 0.0
H612 H 0.47216 0.63635 0.21866 0.0
H613 H 0.47927 0.64363 0.18254 0.0
H614 H 0.54913 0.70365 0.15694 0.0
H615 H 0.52467 0.76179 0.15279 0.0
H616 H 0.4011 0.13731 0.81492 0.0
H617 H 0.37165 0.11183 0.77638 0.0
H618 H 0.46632 0.10186 0.73236 0.0
H619 H 0.49671 0.12717 0.77178 0.0
H620 H 0.36752 0.13537 0.72264 0.0
H621 H 0.42606 0.00446 0.7281 0.0
H622 H 0.43048 0.03477 0.75597 0.0
H623 H 0.45324 0.04139 0.72448 0.0
C624 C 0.41594 0.12985 0.79713 0.0
C625 C 0.45138 0.13442 0.79649 0.0
C626 C 0.39892 0.11529 0.77499 0.0
C627 C 0.41667 0.10498 0.75142 0.0
C628 C 0.45213 0.10936 0.75046 0.0
H629 H 0.24913 0.02939 0.64596 0.0
H630 H 0.3048 0.05713 0.65202 0.0
C631 C 0.46944 0.12382 0.77296 0.0
C632 C 0.39695 0.08918 0.72869 0.0
H633 H 0.37502 0.01012 0.70392 0.0
C634 C 0.36963 0.10817 0.71777 0.0
C635 C 0.40001 0.0538 0.72225 0.0
C636 C 0.4289 0.03218 0.73328 0.0
C637 C 0.34318 0.092 0.70339 0.0
C638 C 0.34465 0.05596 0.69917 0.0
C639 C 0.37393 0.03772 0.70729 0.0
C640 C 0.31354 0.03599 0.69263 0.0
C641 C 0.31235 0.11301 0.69542 0.0
C642 C 0.30066 0.01391 0.71287 0.0
C643 C 0.26931 -0.00193 0.70944 0.0
C644 C 0.24979 0.00385 0.68563 0.0
C645 C 0.26338 0.02463 0.66463 0.0
C646 C 0.2951 0.04059 0.66811 0.0
H647 H 0.31395 0.14007 0.70272 0.0
H648 H 0.30985 0.11341 0.67271 0.0
H649 H 0.28896 0.10129 0.70404 0.0
H650 H 0.31432 0.00994 0.73197 0.0
H651 H 0.26004 0.98186 0.72593 0.0
H652 H 0.95753 0.72085 0.22788 0.0
H653 H 0.93154 0.77776 0.23124 0.0
H654 H 0.97055 0.80419 0.15117 0.0
H655 H 0.99661 0.74672 0.14747 0.0
H656 H 0.98736 0.8508 0.19587 0.0
H657 H 0.84968 0.82394 0.19138 0.0
H658 H 0.87199 0.7939 0.21297 0.0
H659 H 0.88127 0.79536 0.17676 0.0
C660 C 0.96021 0.73853 0.21079 0.0
C661 C 0.97922 0.72942 0.18748 0.0
C662 C 0.94507 0.77093 0.21262 0.0
C663 C 0.94876 0.79492 0.19127 0.0
C664 C 0.96711 0.78578 0.16767 0.0
H665 H 0.90235 0.00467 0.25379 0.0
H666 H 0.91424 0.96354 0.2164 0.0
C667 C 0.98193 0.75303 0.16562 0.0
C668 C 0.93653 0.83049 0.19565 0.0
H669 H 0.86668 0.87281 0.21971 0.0
C670 C 0.96081 0.85627 0.20009 0.0
C671 C 0.90189 0.83746 0.20087 0.0
C672 C 0.87466 0.81126 0.19497 0.0
C673 C 0.9518 0.88743 0.21282 0.0
C674 C 0.91769 0.89272 0.22091 0.0
C675 C 0.89287 0.86853 0.2136 0.0
C676 C 0.90888 0.91839 0.24213 0.0
C677 C 0.97925 0.91287 0.22012 0.0
C678 C 0.90171 0.90647 0.26866 0.0
C679 C 0.89513 0.92959 0.28981 0.0
C680 C 0.89546 0.96522 0.28486 0.0
C681 C 0.90212 0.97731 0.25814 0.0
C682 C 0.90887 0.95395 0.23684 0.0
H683 H 0.00469 0.90455 0.21271 0.0
H684 H 0.97319 0.93834 0.21093 0.0
H685 H 0.98038 0.91622 0.24277 0.0
H686 H 0.90178 0.8791 0.27314 0.0
H687 H 0.88995 0.91942 0.31011 0.0
loop_
_geom_bond_atom_site_label_1
_geom_bond_atom_site_label_2
_geom_bond_distance
_geom_bond_site_symmetry_2
_ccdc_geom_bond_type
Co0 O1 2.216 . S
Co0 O2 2.091 . S
Co0 O4 2.004 1_455 S
Co0 O10 2.021 . S
Co0 O12 2.137 1_455 S
Co0 O13 2.244 . S
O1 Co0 2.216 . S
O1 C8 1.247 . S
O2 Co0 2.091 . S
O2 C8 1.261 . S
C3 O12 1.247 . S
C3 O13 1.272 1_655 S
O4 Co0 2.004 1_655 S
O4 C9 1.256 1_655 S
Co5 O6 2.061 . S
Co5 O11 2.052 . S
Co5 O13 2.135 . S
O6 Co5 2.061 . S
O6 C9 1.247 . S
C7 O10 1.238 . S
C7 O11 1.241 . S
C8 O1 1.247 . S
C8 O2 1.261 . S
C9 O4 1.256 1_455 S
C9 O6 1.247 . S
O10 Co0 2.021 . S
O10 C7 1.238 . S
O11 Co5 2.052 . S
O11 C7 1.241 . S
O12 Co0 2.137 1_655 S
O12 C3 1.247 . S
O13 Co0 2.244 . S
O13 C3 1.272 1_455 S
O13 Co5 2.135 . S
Co14 O15 2.216 . S
Co14 O16 2.091 . S
Co14 O18 2.004 . S
Co14 O24 2.021 . S
Co14 O26 2.137 . S
Co14 O27 2.244 . S
O15 Co14 2.216 . S
O15 C22 1.247 . S
O16 Co14 2.091 . S
O16 C22 1.261 . S
C17 O26 1.247 . S
C17 O27 1.272 . S
O18 Co14 2.004 . S
O18 C23 1.259 . S
Co19 O20 2.061 . S
Co19 O25 2.052 . S
Co19 O27 2.135 . S
O20 Co19 2.061 . S
O20 C23 1.235 . S
C21 O24 1.238 . S
C21 O25 1.241 . S
C22 O15 1.247 . S
C22 O16 1.261 . S
C23 O18 1.259 . S
C23 O20 1.235 . S
O24 Co14 2.021 . S
O24 C21 1.238 . S
O25 Co19 2.052 . S
O25 C21 1.241 . S
O26 Co14 2.137 . S
O26 C17 1.247 . S
O27 Co14 2.244 . S
O27 C17 1.272 . S
O27 Co19 2.135 . S
Co28 O29 2.216 . S
Co28 O30 2.091 . S
Co28 O32 2.004 . S
Co28 O38 2.021 . S
Co28 O40 2.137 . S
Co28 O41 2.244 . S
O29 Co28 2.216 . S
O29 C36 1.247 . S
O30 Co28 2.091 . S
O30 C36 1.261 . S
C31 O40 1.247 . S
C31 O41 1.272 . S
O32 Co28 2.004 . S
O32 C37 1.259 . S
Co33 O34 2.061 . S
Co33 O39 2.052 . S
Co33 O41 2.135 . S
O34 Co33 2.061 . S
O34 C37 1.235 . S
C35 O38 1.238 . S
C35 O39 1.241 . S
C36 O29 1.247 . S
C36 O30 1.261 . S
C37 O32 1.259 . S
C37 O34 1.235 . S
O38 Co28 2.021 . S
O38 C35 1.238 . S
O39 Co33 2.052 . S
O39 C35 1.241 . S
O40 Co28 2.137 . S
O40 C31 1.247 . S
O41 Co28 2.244 . S
O41 C31 1.272 . S
O41 Co33 2.135 . S
Co42 O43 2.216 . S
Co42 O44 2.091 . S
Co42 O46 2.004 1_565 S
Co42 O52 2.021 . S
Co42 O54 2.137 1_565 S
Co42 O55 2.244 . S
O43 Co42 2.216 . S
O43 C50 1.247 . S
O44 Co42 2.091 . S
O44 C50 1.261 . S
C45 O54 1.247 . S
C45 O55 1.272 1_545 S
O46 Co42 2.004 1_545 S
O46 C51 1.259 . S
Co47 O48 2.061 . S
Co47 O53 2.052 . S
Co47 O55 2.135 . S
O48 Co47 2.061 . S
O48 C51 1.235 1_565 S
C49 O52 1.238 . S
C49 O53 1.241 . S
C50 O43 1.247 . S
C50 O44 1.261 . S
C51 O46 1.259 . S
C51 O48 1.235 1_545 S
O52 Co42 2.021 . S
O52 C49 1.238 . S
O53 Co47 2.052 . S
O53 C49 1.241 . S
O54 Co42 2.137 1_545 S
O54 C45 1.247 . S
O55 Co42 2.244 . S
O55 C45 1.272 1_565 S
O55 Co47 2.135 . S
Co56 O57 2.216 . S
Co56 O58 2.091 . S
Co56 O60 2.008 . S
Co56 O66 2.021 . S
Co56 O68 2.137 . S
Co56 O69 2.244 1_655 S
O57 Co56 2.216 . S
O57 C64 1.247 . S
O58 Co56 2.091 . S
O58 C64 1.261 . S
C59 O68 1.247 1_455 S
C59 O69 1.272 . S
O60 Co56 2.008 . S
O60 C65 1.253 1_655 S
Co61 O62 2.061 . S
Co61 O67 2.052 . S
Co61 O69 2.135 . S
O62 Co61 2.061 . S
O62 C65 1.235 . S
C63 O66 1.238 . S
C63 O67 1.241 1_655 S
C64 O57 1.247 . S
C64 O58 1.261 . S
C65 O60 1.253 1_455 S
C65 O62 1.235 . S
O66 Co56 2.021 . S
O66 C63 1.238 . S
O67 Co61 2.052 . S
O67 C63 1.241 1_455 S
O68 Co56 2.137 . S
O68 C59 1.247 1_655 S
O69 Co56 2.244 1_455 S
O69 C59 1.272 . S
O69 Co61 2.135 . S
Co70 O71 2.216 . S
Co70 O72 2.091 . S
Co70 O74 2.004 . S
Co70 O80 2.021 . S
Co70 O82 2.137 . S
Co70 O83 2.244 . S
O71 Co70 2.216 . S
O71 C78 1.247 . S
O72 Co70 2.091 . S
O72 C78 1.261 . S
C73 O82 1.247 . S
C73 O83 1.272 . S
O74 Co70 2.004 . S
O74 C79 1.259 . S
Co75 O76 2.061 . S
Co75 O81 2.052 . S
Co75 O83 2.135 . S
O76 Co75 2.061 . S
O76 C79 1.235 . S
C77 O80 1.238 . S
C77 O81 1.241 . S
C78 O71 1.247 . S
C78 O72 1.261 . S
C79 O74 1.259 . S
C79 O76 1.235 . S
O80 Co70 2.021 . S
O80 C77 1.238 . S
O81 Co75 2.052 . S
O81 C77 1.241 . S
O82 Co70 2.137 . S
O82 C73 1.247 . S
O83 Co70 2.244 . S
O83 C73 1.272 . S
O83 Co75 2.135 . S
Co84 O85 2.216 . S
Co84 O86 2.091 . S
Co84 O88 2.004 . S
Co84 O94 2.021 . S
Co84 O96 2.137 . S
Co84 O97 2.244 . S
O85 Co84 2.216 . S
O85 C92 1.247 . S
O86 Co84 2.091 . S
O86 C92 1.261 . S
C87 O96 1.247 . S
C87 O97 1.272 . S
O88 Co84 2.004 . S
O88 C93 1.259 . S
Co89 O90 2.061 . S
Co89 O95 2.052 . S
Co89 O97 2.135 . S
O90 Co89 2.061 . S
O90 C93 1.235 . S
C91 O94 1.238 . S
C91 O95 1.241 . S
C92 O85 1.247 . S
C92 O86 1.261 . S
C93 O88 1.259 . S
C93 O90 1.235 . S
O94 Co84 2.021 . S
O94 C91 1.238 . S
O95 Co89 2.052 . S
O95 C91 1.241 . S
O96 Co84 2.137 . S
O96 C87 1.247 . S
O97 Co84 2.244 . S
O97 C87 1.272 . S
O97 Co89 2.135 . S
Co98 O99 2.216 . S
Co98 O100 2.091 . S
Co98 O102 2.004 1_545 S
Co98 O108 2.021 . S
Co98 O110 2.137 1_545 S
Co98 O111 2.244 . S
O99 Co98 2.216 . S
O99 C106 1.247 . S
O100 Co98 2.091 . S
O100 C106 1.261 . S
C101 O110 1.247 . S
C101 O111 1.272 1_565 S
O102 Co98 2.004 1_565 S
O102 C107 1.259 . S
Co103 O104 2.061 . S
Co103 O109 2.052 . S
Co103 O111 2.135 . S
O104 Co103 2.061 . S
O104 C107 1.235 1_545 S
C105 O108 1.238 . S
C105 O109 1.241 . S
C106 O99 1.247 . S
C106 O100 1.261 . S
C107 O102 1.259 . S
C107 O104 1.235 1_565 S
O108 Co98 2.021 . S
O108 C105 1.238 . S
O109 Co103 2.052 . S
O109 C105 1.241 . S
O110 Co98 2.137 1_565 S
O110 C101 1.247 . S
O111 Co98 2.244 . S
O111 C101 1.272 1_545 S
O111 Co103 2.135 . S
H112 C120 0.929 . S
H113 C122 0.928 1_455 S
H114 C124 0.930 . S
H115 C127 0.929 . S
H116 C130 0.930 . S
H117 C132 0.960 1_554 S
H118 C132 0.960 . S
H119 C132 0.960 . S
C120 H112 0.929 . S
C120 C121 1.377 . S
C120 C122 1.385 . S
C121 C120 1.377 . S
C121 C127 1.390 . S
C122 H113 0.928 1_655 S
C122 C120 1.385 . S
C122 C123 1.372 . S
C123 C122 1.372 . S
C123 C124 1.400 . S
C123 C128 1.490 1_655 S
C124 H114 0.930 . S
C124 C123 1.400 . S
C124 C127 1.386 . S
H125 C141 0.930 . S
H126 C142 0.931 1_655 S
C127 H115 0.929 . S
C127 C121 1.390 . S
C127 C124 1.386 . S
C128 C123 1.490 1_455 S
C128 C130 1.395 1_455 S
C128 C131 1.403 . S
H129 C135 0.930 . S
C130 H116 0.930 . S
C130 C128 1.395 1_655 S
C130 C133 1.403 . S
C131 C128 1.403 . S
C131 C132 1.524 . S
C131 C135 1.400 1_556 S
C132 H117 0.960 1_556 S
C132 H118 0.960 . S
C132 H119 0.960 . S
C132 C131 1.524 . S
C133 C130 1.403 . S
C133 C134 1.392 1_656 S
C133 C137 1.495 . S
C134 C133 1.392 1_454 S
C134 C135 1.385 . S
C134 C136 1.478 . S
C135 H129 0.930 . S
C135 C131 1.400 1_554 S
C135 C134 1.385 . S
C136 C134 1.478 . S
C136 C138 1.381 . S
C136 C142 1.383 . S
C137 C133 1.495 . S
C137 H143 0.959 . S
C137 H144 0.961 1_556 S
C137 H145 0.960 . S
C138 C136 1.381 . S
C138 C139 1.394 . S
C138 H146 0.930 . S
C139 C138 1.394 . S
C139 C140 1.383 . S
C139 H147 0.929 . S
C140 C139 1.383 . S
C140 C141 1.377 . S
C141 H125 0.930 . S
C141 C140 1.377 . S
C141 C142 1.379 . S
C142 H126 0.931 1_455 S
C142 C136 1.383 . S
C142 C141 1.379 . S
H143 C137 0.959 . S
H144 C137 0.961 1_554 S
H145 C137 0.960 . S
H146 C138 0.930 . S
H147 C139 0.929 . S
H148 C156 0.929 . S
H149 C158 0.930 . S
H150 C160 0.930 . S
H151 C163 0.929 . S
H152 C166 0.930 . S
H153 C168 0.960 . S
H154 C168 0.960 . S
H155 C168 0.960 . S
C156 H148 0.929 . S
C156 C157 1.377 . S
C156 C158 1.384 . S
C157 C156 1.377 . S
C157 C163 1.390 . S
C158 H149 0.930 . S
C158 C156 1.384 . S
C158 C159 1.372 . S
C159 C158 1.372 . S
C159 C160 1.400 . S
C159 C164 1.490 . S
C160 H150 0.930 . S
C160 C159 1.400 . S
C160 C163 1.386 . S
H161 C177 0.930 . S
H162 C178 0.931 . S
C163 H151 0.929 . S
C163 C157 1.390 . S
C163 C160 1.386 . S
C164 C159 1.490 . S
C164 C166 1.395 . S
C164 C167 1.403 . S
H165 C171 0.930 . S
C166 H152 0.930 . S
C166 C164 1.395 . S
C166 C169 1.403 . S
C167 C164 1.403 . S
C167 C168 1.524 . S
C167 C171 1.400 . S
C168 H153 0.960 . S
C168 H154 0.960 . S
C168 H155 0.960 . S
C168 C167 1.524 . S
C169 C166 1.403 . S
C169 C170 1.392 . S
C169 C173 1.495 . S
C170 C169 1.392 . S
C170 C171 1.385 . S
C170 C172 1.478 . S
C171 H165 0.930 . S
C171 C167 1.400 . S
C171 C170 1.385 . S
C172 C170 1.478 . S
C172 C174 1.381 . S
C172 C178 1.383 . S
C173 C169 1.495 . S
C173 H179 0.959 . S
C173 H180 0.961 . S
C173 H181 0.960 . S
C174 C172 1.381 . S
C174 C175 1.394 . S
C174 H182 0.930 . S
C175 C174 1.394 . S
C175 C176 1.383 . S
C175 H183 0.929 . S
C176 C175 1.383 . S
C176 C177 1.377 . S
C177 H161 0.930 . S
C177 C176 1.377 . S
C177 C178 1.379 . S
C178 H162 0.931 . S
C178 C172 1.383 . S
C178 C177 1.379 . S
H179 C173 0.959 . S
H180 C173 0.961 . S
H181 C173 0.960 . S
H182 C174 0.930 . S
H183 C175 0.929 . S
H184 C192 0.929 . S
H185 C194 0.930 . S
H186 C196 0.930 . S
H187 C199 0.929 . S
H188 C202 0.930 . S
H189 C204 0.960 . S
H190 C204 0.960 . S
H191 C204 0.960 . S
C192 H184 0.929 . S
C192 C193 1.377 . S
C192 C194 1.384 . S
C193 C192 1.377 . S
C193 C199 1.390 . S
C194 H185 0.930 . S
C194 C192 1.384 . S
C194 C195 1.372 . S
C195 C194 1.372 . S
C195 C196 1.400 . S
C195 C200 1.490 . S
C196 H186 0.930 . S
C196 C195 1.400 . S
C196 C199 1.386 . S
H197 C213 0.930 . S
H198 C214 0.931 . S
C199 H187 0.929 . S
C199 C193 1.390 . S
C199 C196 1.386 . S
C200 C195 1.490 . S
C200 C202 1.395 1_554 S
C200 C203 1.403 1_565 S
H201 C207 0.930 1_554 S
C202 H188 0.930 . S
C202 C200 1.395 1_556 S
C202 C205 1.403 . S
C203 C200 1.403 1_545 S
C203 C204 1.524 . S
C203 C207 1.400 1_554 S
C204 H189 0.960 . S
C204 H190 0.960 . S
C204 H191 0.960 . S
C204 C203 1.524 . S
C205 C202 1.403 . S
C205 C206 1.392 1_565 S
C205 C209 1.495 . S
C206 C205 1.392 1_545 S
C206 C207 1.385 . S
C206 C208 1.478 . S
C207 H201 0.930 1_556 S
C207 C203 1.400 1_556 S
C207 C206 1.385 . S
C208 C206 1.478 . S
C208 C210 1.381 . S
C208 C214 1.383 . S
C209 C205 1.495 . S
C209 H215 0.959 . S
C209 H216 0.961 . S
C209 H217 0.960 . S
C210 C208 1.381 . S
C210 C211 1.394 . S
C210 H218 0.930 . S
C211 C210 1.394 . S
C211 C212 1.383 . S
C211 H219 0.929 . S
C212 C211 1.383 . S
C212 C213 1.377 . S
C213 H197 0.930 . S
C213 C212 1.377 . S
C213 C214 1.379 . S
C214 H198 0.931 . S
C214 C208 1.383 . S
C214 C213 1.379 . S
H215 C209 0.959 . S
H216 C209 0.961 . S
H217 C209 0.960 . S
H218 C210 0.930 . S
H219 C211 0.929 . S
H220 C228 0.929 . S
H221 C230 0.930 . S
H222 C232 0.930 . S
H223 C235 0.929 1_565 S
H224 C238 0.930 . S
H225 C240 0.960 . S
H226 C240 0.960 . S
H227 C240 0.960 . S
C228 H220 0.929 . S
C228 C229 1.377 . S
C228 C230 1.384 . S
C229 C228 1.377 . S
C229 C235 1.390 . S
C230 H221 0.930 . S
C230 C228 1.384 . S
C230 C231 1.372 . S
C231 C230 1.372 . S
C231 C232 1.400 1_545 S
C231 C236 1.490 . S
C232 H222 0.930 . S
C232 C231 1.400 1_565 S
C232 C235 1.386 1_565 S
H233 C249 0.930 . S
H234 C250 0.931 . S
C235 H223 0.929 1_545 S
C235 C229 1.390 . S
C235 C232 1.386 1_545 S
C236 C231 1.490 . S
C236 C238 1.395 . S
C236 C239 1.403 1_545 S
H237 C243 0.930 . S
C238 H224 0.930 . S
C238 C236 1.395 . S
C238 C241 1.403 1_655 S
C239 C236 1.403 1_565 S
C239 C240 1.524 . S
C239 C243 1.400 1_655 S
C240 H225 0.960 . S
C240 H226 0.960 . S
C240 H227 0.960 . S
C240 C239 1.524 . S
C241 C238 1.403 1_455 S
C241 C242 1.392 . S
C241 C245 1.495 . S
C242 C241 1.392 . S
C242 C243 1.385 1_545 S
C242 C244 1.478 1_545 S
C243 H237 0.930 . S
C243 C239 1.400 1_455 S
C243 C242 1.385 1_565 S
C244 C242 1.478 1_565 S
C244 C246 1.381 1_565 S
C244 C250 1.383 . S
C245 C241 1.495 . S
C245 H251 0.959 . S
C245 H252 0.961 . S
C245 H253 0.960 . S
C246 C244 1.381 1_545 S
C246 C247 1.394 1_545 S
C246 H254 0.930 . S
C247 C246 1.394 1_565 S
C247 C248 1.383 . S
C247 H255 0.932 . S
C248 C247 1.383 . S
C248 C249 1.377 . S
C249 H233 0.930 . S
C249 C248 1.377 . S
C249 C250 1.379 . S
C250 H234 0.931 . S
C250 C244 1.383 . S
C250 C249 1.379 . S
H251 C245 0.959 . S
H252 C245 0.961 . S
H253 C245 0.960 . S
H254 C246 0.930 . S
H255 C247 0.932 . S
H256 C264 0.929 . S
H257 C266 0.930 . S
H258 C268 0.930 . S
H259 C271 0.929 . S
H260 C274 0.930 . S
H261 C276 0.960 . S
H262 C276 0.960 . S
H263 C276 0.960 . S
C264 H256 0.929 . S
C264 C265 1.377 . S
C264 C266 1.384 . S
C265 C264 1.377 . S
C265 C271 1.390 . S
C266 H257 0.930 . S
C266 C264 1.384 . S
C266 C267 1.372 . S
C267 C266 1.372 . S
C267 C268 1.400 . S
C267 C272 1.490 . S
C268 H258 0.930 . S
C268 C267 1.400 . S
C268 C271 1.386 . S
H269 C285 0.930 . S
H270 C286 0.931 . S
C271 H259 0.929 . S
C271 C265 1.390 . S
C271 C268 1.386 . S
C272 C267 1.490 . S
C272 C274 1.395 . S
C272 C275 1.403 . S
H273 C279 0.930 . S
C274 H260 0.930 . S
C274 C272 1.395 . S
C274 C277 1.403 . S
C275 C272 1.403 . S
C275 C276 1.524 . S
C275 C279 1.400 . S
C276 H261 0.960 . S
C276 H262 0.960 . S
C276 H263 0.960 . S
C276 C275 1.524 . S
C277 C274 1.403 . S
C277 C278 1.392 . S
C277 C281 1.495 . S
C278 C277 1.392 . S
C278 C279 1.385 . S
C278 C280 1.478 . S
C279 H273 0.930 . S
C279 C275 1.400 . S
C279 C278 1.385 . S
C280 C278 1.478 . S
C280 C282 1.381 . S
C280 C286 1.383 . S
C281 C277 1.495 . S
C281 H287 0.959 . S
C281 H288 0.961 . S
C281 H289 0.960 . S
C282 C280 1.381 . S
C282 C283 1.394 . S
C282 H290 0.930 . S
C283 C282 1.394 . S
C283 C284 1.383 . S
C283 H291 0.929 . S
C284 C283 1.383 . S
C284 C285 1.377 . S
C285 H269 0.930 . S
C285 C284 1.377 . S
C285 C286 1.379 . S
C286 H270 0.931 . S
C286 C280 1.383 . S
C286 C285 1.379 . S
H287 C281 0.959 . S
H288 C281 0.961 . S
H289 C281 0.960 . S
H290 C282 0.930 . S
H291 C283 0.929 . S
H292 C300 0.929 . S
H293 C302 0.930 . S
H294 C304 0.930 . S
H295 C307 0.929 . S
H296 C310 0.930 . S
H297 C312 0.960 . S
H298 C312 0.960 . S
H299 C312 0.960 . S
C300 H292 0.929 . S
C300 C301 1.377 . S
C300 C302 1.384 . S
C301 C300 1.377 . S
C301 C307 1.390 . S
C302 H293 0.930 . S
C302 C300 1.384 . S
C302 C303 1.372 . S
C303 C302 1.372 . S
C303 C304 1.400 . S
C303 C308 1.490 . S
C304 H294 0.930 . S
C304 C303 1.400 . S
C304 C307 1.386 . S
H305 C321 0.930 . S
H306 C322 0.931 . S
C307 H295 0.929 . S
C307 C301 1.390 . S
C307 C304 1.386 . S
C308 C303 1.490 . S
C308 C310 1.395 . S
C308 C311 1.403 . S
H309 C315 0.930 . S
C310 H296 0.930 . S
C310 C308 1.395 . S
C310 C313 1.403 . S
C311 C308 1.403 . S
C311 C312 1.524 . S
C311 C315 1.400 . S
C312 H297 0.960 . S
C312 H298 0.960 . S
C312 H299 0.960 . S
C312 C311 1.524 . S
C313 C310 1.403 . S
C313 C314 1.392 . S
C313 C317 1.495 . S
C314 C313 1.392 . S
C314 C315 1.385 . S
C314 C316 1.478 . S
C315 H309 0.930 . S
C315 C311 1.400 . S
C315 C314 1.385 . S
C316 C314 1.478 . S
C316 C318 1.381 . S
C316 C322 1.383 . S
C317 C313 1.495 . S
C317 H323 0.959 . S
C317 H324 0.961 . S
C317 H325 0.960 . S
C318 C316 1.381 . S
C318 C319 1.394 . S
C318 H326 0.930 . S
C319 C318 1.394 . S
C319 C320 1.383 . S
C319 H327 0.929 . S
C320 C319 1.383 . S
C320 C321 1.377 . S
C321 H305 0.930 . S
C321 C320 1.377 . S
C321 C322 1.379 . S
C322 H306 0.931 . S
C322 C316 1.383 . S
C322 C321 1.379 . S
H323 C317 0.959 . S
H324 C317 0.961 . S
H325 C317 0.960 . S
H326 C318 0.930 . S
H327 C319 0.929 . S
H328 C336 0.929 . S
H329 C338 0.930 . S
H330 C340 0.930 . S
H331 C343 0.929 . S
H332 C346 0.930 . S
H333 C348 0.960 . S
H334 C348 0.960 . S
H335 C348 0.960 . S
C336 H328 0.929 . S
C336 C337 1.377 . S
C336 C338 1.384 . S
C337 C336 1.377 . S
C337 C343 1.390 . S
C338 H329 0.930 . S
C338 C336 1.384 . S
C338 C339 1.372 . S
C339 C338 1.372 . S
C339 C340 1.400 . S
C339 C344 1.490 . S
C340 H330 0.930 . S
C340 C339 1.400 . S
C340 C343 1.386 . S
H341 C357 0.930 . S
H342 C358 0.931 . S
C343 H331 0.929 . S
C343 C337 1.390 . S
C343 C340 1.386 . S
C344 C339 1.490 . S
C344 C346 1.395 . S
C344 C347 1.403 . S
H345 C351 0.930 . S
C346 H332 0.930 . S
C346 C344 1.395 . S
C346 C349 1.403 . S
C347 C344 1.403 . S
C347 C348 1.524 . S
C347 C351 1.400 . S
C348 H333 0.960 . S
C348 H334 0.960 . S
C348 H335 0.960 . S
C348 C347 1.524 . S
C349 C346 1.403 . S
C349 C350 1.392 . S
C349 C353 1.495 . S
C350 C349 1.392 . S
C350 C351 1.385 . S
C350 C352 1.478 . S
C351 H345 0.930 . S
C351 C347 1.400 . S
C351 C350 1.385 . S
C352 C350 1.478 . S
C352 C354 1.381 . S
C352 C358 1.383 . S
C353 C349 1.495 . S
C353 H359 0.959 . S
C353 H360 0.961 . S
C353 H361 0.960 . S
C354 C352 1.381 . S
C354 C355 1.394 . S
C354 H362 0.930 . S
C355 C354 1.394 . S
C355 C356 1.383 . S
C355 H363 0.929 . S
C356 C355 1.383 . S
C356 C357 1.377 . S
C357 H341 0.930 . S
C357 C356 1.377 . S
C357 C358 1.379 . S
C358 H342 0.931 . S
C358 C352 1.383 . S
C358 C357 1.379 . S
H359 C353 0.959 . S
H360 C353 0.961 . S
H361 C353 0.960 . S
H362 C354 0.930 . S
H363 C355 0.929 . S
H364 C372 0.929 . S
H365 C374 0.930 . S
H366 C376 0.930 . S
H367 C379 0.929 . S
H368 C382 0.930 . S
H369 C384 0.960 . S
H370 C384 0.960 . S
H371 C384 0.960 . S
C372 H364 0.929 . S
C372 C373 1.377 . S
C372 C374 1.384 . S
C373 C372 1.377 . S
C373 C379 1.390 . S
C374 H365 0.930 . S
C374 C372 1.384 . S
C374 C375 1.372 . S
C375 C374 1.372 . S
C375 C376 1.400 . S
C375 C380 1.490 . S
C376 H366 0.930 . S
C376 C375 1.400 . S
C376 C379 1.386 . S
H377 C393 0.930 . S
H378 C394 0.931 . S
C379 H367 0.929 . S
C379 C373 1.390 . S
C379 C376 1.386 . S
C380 C375 1.490 . S
C380 C382 1.395 . S
C380 C383 1.403 . S
H381 C387 0.930 . S
C382 H368 0.930 . S
C382 C380 1.395 . S
C382 C385 1.403 . S
C383 C380 1.403 . S
C383 C384 1.524 . S
C383 C387 1.400 . S
C384 H369 0.960 . S
C384 H370 0.960 . S
C384 H371 0.960 . S
C384 C383 1.524 . S
C385 C382 1.403 . S
C385 C386 1.392 . S
C385 C389 1.495 . S
C386 C385 1.392 . S
C386 C387 1.385 . S
C386 C388 1.478 . S
C387 H381 0.930 . S
C387 C383 1.400 . S
C387 C386 1.385 . S
C388 C386 1.478 . S
C388 C390 1.381 . S
C388 C394 1.383 . S
C389 C385 1.495 . S
C389 H395 0.959 . S
C389 H396 0.961 . S
C389 H397 0.960 . S
C390 C388 1.381 . S
C390 C391 1.394 . S
C390 H398 0.930 . S
C391 C390 1.394 . S
C391 C392 1.383 . S
C391 H399 0.929 . S
C392 C391 1.383 . S
C392 C393 1.377 . S
C393 H377 0.930 . S
C393 C392 1.377 . S
C393 C394 1.379 . S
C394 H378 0.931 . S
C394 C388 1.383 . S
C394 C393 1.379 . S
H395 C389 0.959 . S
H396 C389 0.961 . S
H397 C389 0.960 . S
H398 C390 0.930 . S
H399 C391 0.929 . S
H400 C408 0.929 . S
H401 C410 0.930 . S
H402 C412 0.930 . S
H403 C415 0.929 . S
H404 C418 0.930 . S
H405 C420 0.960 . S
H406 C420 0.960 . S
H407 C420 0.960 . S
C408 H400 0.929 . S
C408 C409 1.377 . S
C408 C410 1.384 . S
C409 C408 1.377 . S
C409 C415 1.390 . S
C410 H401 0.930 . S
C410 C408 1.384 . S
C410 C411 1.372 . S
C411 C410 1.372 . S
C411 C412 1.400 . S
C411 C416 1.490 . S
C412 H402 0.930 . S
C412 C411 1.400 . S
C412 C415 1.386 . S
H413 C429 0.930 . S
H414 C430 0.931 . S
C415 H403 0.929 . S
C415 C409 1.390 . S
C415 C412 1.386 . S
C416 C411 1.490 . S
C416 C418 1.395 . S
C416 C419 1.403 . S
H417 C423 0.930 . S
C418 H404 0.930 . S
C418 C416 1.395 . S
C418 C421 1.403 . S
C419 C416 1.403 . S
C419 C420 1.524 . S
C419 C423 1.400 . S
C420 H405 0.960 . S
C420 H406 0.960 . S
C420 H407 0.960 . S
C420 C419 1.524 . S
C421 C418 1.403 . S
C421 C422 1.392 . S
C421 C425 1.495 . S
C422 C421 1.392 . S
C422 C423 1.385 . S
C422 C424 1.478 . S
C423 H417 0.930 . S
C423 C419 1.400 . S
C423 C422 1.385 . S
C424 C422 1.478 . S
C424 C426 1.381 . S
C424 C430 1.383 . S
C425 C421 1.495 . S
C425 H431 0.959 . S
C425 H432 0.961 . S
C425 H433 0.960 . S
C426 C424 1.381 . S
C426 C427 1.394 . S
C426 H434 0.930 . S
C427 C426 1.394 . S
C427 C428 1.383 . S
C427 H435 0.929 . S
C428 C427 1.383 . S
C428 C429 1.377 . S
C429 H413 0.930 . S
C429 C428 1.377 . S
C429 C430 1.379 . S
C430 H414 0.931 . S
C430 C424 1.383 . S
C430 C429 1.379 . S
H431 C425 0.959 . S
H432 C425 0.961 . S
H433 C425 0.960 . S
H434 C426 0.930 . S
H435 C427 0.929 . S
H436 C444 0.929 . S
H437 C446 0.930 . S
H438 C448 0.930 . S
H439 C451 0.929 . S
H440 C454 0.930 . S
H441 C456 0.960 . S
H442 C456 0.960 . S
H443 C456 0.960 . S
C444 H436 0.929 . S
C444 C445 1.377 . S
C444 C446 1.384 . S
C445 C444 1.377 . S
C445 C451 1.390 . S
C446 H437 0.930 . S
C446 C444 1.384 . S
C446 C447 1.372 . S
C447 C446 1.372 . S
C447 C448 1.400 . S
C447 C452 1.490 . S
C448 H438 0.930 . S
C448 C447 1.400 . S
C448 C451 1.386 . S
H449 C465 0.930 . S
H450 C466 0.931 . S
C451 H439 0.929 . S
C451 C445 1.390 . S
C451 C448 1.386 . S
C452 C447 1.490 . S
C452 C454 1.395 . S
C452 C455 1.403 . S
H453 C459 0.930 . S
C454 H440 0.930 . S
C454 C452 1.395 . S
C454 C457 1.403 . S
C455 C452 1.403 . S
C455 C456 1.524 . S
C455 C459 1.400 . S
C456 H441 0.960 . S
C456 H442 0.960 . S
C456 H443 0.960 . S
C456 C455 1.524 . S
C457 C454 1.403 . S
C457 C458 1.392 . S
C457 C461 1.495 . S
C458 C457 1.392 . S
C458 C459 1.385 . S
C458 C460 1.478 . S
C459 H453 0.930 . S
C459 C455 1.400 . S
C459 C458 1.385 . S
C460 C458 1.478 . S
C460 C462 1.381 . S
C460 C466 1.383 . S
C461 C457 1.495 . S
C461 H467 0.959 . S
C461 H468 0.961 . S
C461 H469 0.960 . S
C462 C460 1.381 . S
C462 C463 1.394 . S
C462 H470 0.930 . S
C463 C462 1.394 . S
C463 C464 1.383 . S
C463 H471 0.929 . S
C464 C463 1.383 . S
C464 C465 1.377 . S
C465 H449 0.930 . S
C465 C464 1.377 . S
C465 C466 1.379 . S
C466 H450 0.931 . S
C466 C460 1.383 . S
C466 C465 1.379 . S
H467 C461 0.959 . S
H468 C461 0.961 . S
H469 C461 0.960 . S
H470 C462 0.930 . S
H471 C463 0.929 . S
H472 C480 0.929 . S
H473 C482 0.930 . S
H474 C484 0.930 . S
H475 C487 0.929 . S
H476 C490 0.930 . S
H477 C492 0.960 . S
H478 C492 0.960 . S
H479 C492 0.960 . S
C480 H472 0.929 . S
C480 C481 1.377 . S
C480 C482 1.384 . S
C481 C480 1.377 . S
C481 C487 1.390 . S
C482 H473 0.930 . S
C482 C480 1.384 . S
C482 C483 1.372 . S
C483 C482 1.372 . S
C483 C484 1.400 . S
C483 C488 1.490 . S
C484 H474 0.930 . S
C484 C483 1.400 . S
C484 C487 1.386 . S
H485 C501 0.930 . S
H486 C502 0.931 1_545 S
C487 H475 0.929 . S
C487 C481 1.390 . S
C487 C484 1.386 . S
C488 C483 1.490 . S
C488 C490 1.395 . S
C488 C491 1.403 . S
H489 C495 0.930 . S
C490 H476 0.930 . S
C490 C488 1.395 . S
C490 C493 1.403 . S
C491 C488 1.403 . S
C491 C492 1.524 . S
C491 C495 1.400 . S
C492 H477 0.960 . S
C492 H478 0.960 . S
C492 H479 0.960 . S
C492 C491 1.524 . S
C493 C490 1.403 . S
C493 C494 1.392 . S
C493 C497 1.495 . S
C494 C493 1.392 . S
C494 C495 1.385 . S
C494 C496 1.478 . S
C495 H489 0.930 . S
C495 C491 1.400 . S
C495 C494 1.385 . S
C496 C494 1.478 . S
C496 C498 1.381 . S
C496 C502 1.383 . S
C497 C493 1.495 . S
C497 H503 0.959 . S
C497 H504 0.961 . S
C497 H505 0.960 . S
C498 C496 1.381 . S
C498 C499 1.394 . S
C498 H506 0.930 . S
C499 C498 1.394 . S
C499 C500 1.383 . S
C499 H507 0.929 . S
C500 C499 1.383 . S
C500 C501 1.377 1_565 S
C501 H485 0.930 . S
C501 C500 1.377 1_545 S
C501 C502 1.379 1_545 S
C502 H486 0.931 1_565 S
C502 C496 1.383 . S
C502 C501 1.379 1_565 S
H503 C497 0.959 . S
H504 C497 0.961 . S
H505 C497 0.960 . S
H506 C498 0.930 . S
H507 C499 0.929 . S
H508 C516 0.929 . S
H509 C518 0.930 1_655 S
H510 C520 0.930 . S
H511 C523 0.929 . S
H512 C526 0.930 . S
H513 C528 0.960 . S
H514 C528 0.960 . S
H515 C528 0.960 . S
C516 H508 0.929 . S
C516 C517 1.377 1_655 S
C516 C518 1.384 1_655 S
C517 C516 1.377 1_455 S
C517 C523 1.390 . S
C518 H509 0.930 1_455 S
C518 C516 1.384 1_455 S
C518 C519 1.372 . S
C519 C518 1.372 . S
C519 C520 1.400 . S
C519 C524 1.490 . S
C520 H510 0.930 . S
C520 C519 1.400 . S
C520 C523 1.386 . S
H521 C537 0.930 . S
H522 C538 0.931 . S
C523 H511 0.929 . S
C523 C517 1.390 . S
C523 C520 1.386 . S
C524 C519 1.490 . S
C524 C526 1.395 . S
C524 C527 1.403 . S
H525 C531 0.930 . S
C526 H512 0.930 . S
C526 C524 1.395 . S
C526 C529 1.403 . S
C527 C524 1.403 . S
C527 C528 1.524 . S
C527 C531 1.400 . S
C528 H513 0.960 . S
C528 H514 0.960 . S
C528 H515 0.960 . S
C528 C527 1.524 . S
C529 C526 1.403 . S
C529 C530 1.392 . S
C529 C533 1.495 . S
C530 C529 1.392 . S
C530 C531 1.385 . S
C530 C532 1.478 . S
C531 H525 0.930 . S
C531 C527 1.400 . S
C531 C530 1.385 . S
C532 C530 1.478 . S
C532 C534 1.381 . S
C532 C538 1.383 . S
C533 C529 1.495 . S
C533 H539 0.959 . S
C533 H540 0.961 . S
C533 H541 0.960 . S
C534 C532 1.381 . S
C534 C535 1.394 . S
C534 H542 0.930 . S
C535 C534 1.394 . S
C535 C536 1.383 . S
C535 H543 0.929 . S
C536 C535 1.383 . S
C536 C537 1.377 . S
C537 H521 0.930 . S
C537 C536 1.377 . S
C537 C538 1.379 . S
C538 H522 0.931 . S
C538 C532 1.383 . S
C538 C537 1.379 . S
H539 C533 0.959 . S
H540 C533 0.961 . S
H541 C533 0.960 . S
H542 C534 0.930 . S
H543 C535 0.929 . S
H544 C552 0.929 . S
H545 C554 0.930 . S
H546 C556 0.930 . S
H547 C559 0.929 . S
H548 C562 0.930 . S
H549 C564 0.960 . S
H550 C564 0.960 . S
H551 C564 0.960 . S
C552 H544 0.929 . S
C552 C553 1.377 . S
C552 C554 1.384 . S
C553 C552 1.377 . S
C553 C559 1.390 . S
C554 H545 0.930 . S
C554 C552 1.384 . S
C554 C555 1.372 . S
C555 C554 1.372 . S
C555 C556 1.400 . S
C555 C560 1.490 . S
C556 H546 0.930 . S
C556 C555 1.400 . S
C556 C559 1.386 . S
H557 C573 0.930 . S
H558 C574 0.931 . S
C559 H547 0.929 . S
C559 C553 1.390 . S
C559 C556 1.386 . S
C560 C555 1.490 . S
C560 C562 1.395 . S
C560 C563 1.403 . S
H561 C567 0.930 . S
C562 H548 0.930 . S
C562 C560 1.395 . S
C562 C565 1.403 . S
C563 C560 1.403 . S
C563 C564 1.524 . S
C563 C567 1.400 . S
C564 H549 0.960 . S
C564 H550 0.960 . S
C564 H551 0.960 . S
C564 C563 1.524 . S
C565 C562 1.403 . S
C565 C566 1.392 . S
C565 C569 1.495 . S
C566 C565 1.392 . S
C566 C567 1.385 . S
C566 C568 1.478 . S
C567 H561 0.930 . S
C567 C563 1.400 . S
C567 C566 1.385 . S
C568 C566 1.478 . S
C568 C570 1.381 . S
C568 C574 1.383 . S
C569 C565 1.495 . S
C569 H575 0.959 . S
C569 H576 0.961 . S
C569 H577 0.960 . S
C570 C568 1.381 . S
C570 C571 1.394 . S
C570 H578 0.930 . S
C571 C570 1.394 . S
C571 C572 1.383 . S
C571 H579 0.929 . S
C572 C571 1.383 . S
C572 C573 1.377 . S
C573 H557 0.930 . S
C573 C572 1.377 . S
C573 C574 1.379 . S
C574 H558 0.931 . S
C574 C568 1.383 . S
C574 C573 1.379 . S
H575 C569 0.959 . S
H576 C569 0.961 . S
H577 C569 0.960 . S
H578 C570 0.930 . S
H579 C571 0.929 . S
H580 C588 0.929 . S
H581 C590 0.930 . S
H582 C592 0.930 . S
H583 C595 0.929 . S
H584 C598 0.930 . S
H585 C600 0.960 . S
H586 C600 0.960 . S
H587 C600 0.960 . S
C588 H580 0.929 . S
C588 C589 1.377 . S
C588 C590 1.384 . S
C589 C588 1.377 . S
C589 C595 1.390 . S
C590 H581 0.930 . S
C590 C588 1.384 . S
C590 C591 1.372 . S
C591 C590 1.372 . S
C591 C592 1.400 . S
C591 C596 1.490 . S
C592 H582 0.930 . S
C592 C591 1.400 . S
C592 C595 1.386 . S
H593 C609 0.930 . S
H594 C610 0.931 . S
C595 H583 0.929 . S
C595 C589 1.390 . S
C595 C592 1.386 . S
C596 C591 1.490 . S
C596 C598 1.395 . S
C596 C599 1.403 . S
H597 C603 0.930 . S
C598 H584 0.930 . S
C598 C596 1.395 . S
C598 C601 1.403 . S
C599 C596 1.403 . S
C599 C600 1.524 . S
C599 C603 1.400 . S
C600 H585 0.960 . S
C600 H586 0.960 . S
C600 H587 0.960 . S
C600 C599 1.524 . S
C601 C598 1.403 . S
C601 C602 1.392 . S
C601 C605 1.495 . S
C602 C601 1.392 . S
C602 C603 1.385 . S
C602 C604 1.478 . S
C603 H597 0.930 . S
C603 C599 1.400 . S
C603 C602 1.385 . S
C604 C602 1.478 . S
C604 C606 1.381 . S
C604 C610 1.383 . S
C605 C601 1.495 . S
C605 H611 0.959 . S
C605 H612 0.961 . S
C605 H613 0.960 . S
C606 C604 1.381 . S
C606 C607 1.394 . S
C606 H614 0.930 . S
C607 C606 1.394 . S
C607 C608 1.383 . S
C607 H615 0.929 . S
C608 C607 1.383 . S
C608 C609 1.377 . S
C609 H593 0.930 . S
C609 C608 1.377 . S
C609 C610 1.379 . S
C610 H594 0.931 . S
C610 C604 1.383 . S
C610 C609 1.379 . S
H611 C605 0.959 . S
H612 C605 0.961 . S
H613 C605 0.960 . S
H614 C606 0.930 . S
H615 C607 0.929 . S
H616 C624 0.929 . S
H617 C626 0.930 . S
H618 C628 0.930 . S
H619 C631 0.929 . S
H620 C634 0.930 . S
H621 C636 0.960 . S
H622 C636 0.960 . S
H623 C636 0.960 . S
C624 H616 0.929 . S
C624 C625 1.377 . S
C624 C626 1.384 . S
C625 C624 1.377 . S
C625 C631 1.390 . S
C626 H617 0.930 . S
C626 C624 1.384 . S
C626 C627 1.372 . S
C627 C626 1.372 . S
C627 C628 1.400 . S
C627 C632 1.490 . S
C628 H618 0.930 . S
C628 C627 1.400 . S
C628 C631 1.386 . S
H629 C645 0.930 . S
H630 C646 0.931 . S
C631 H619 0.929 . S
C631 C625 1.390 . S
C631 C628 1.386 . S
C632 C627 1.490 . S
C632 C634 1.395 . S
C632 C635 1.403 . S
H633 C639 0.930 . S
C634 H620 0.930 . S
C634 C632 1.395 . S
C634 C637 1.403 . S
C635 C632 1.403 . S
C635 C636 1.524 . S
C635 C639 1.400 . S
C636 H621 0.960 . S
C636 H622 0.960 . S
C636 H623 0.960 . S
C636 C635 1.524 . S
C637 C634 1.403 . S
C637 C638 1.392 . S
C637 C641 1.495 . S
C638 C637 1.392 . S
C638 C639 1.385 . S
C638 C640 1.478 . S
C639 H633 0.930 . S
C639 C635 1.400 . S
C639 C638 1.385 . S
C640 C638 1.478 . S
C640 C642 1.381 . S
C640 C646 1.383 . S
C641 C637 1.495 . S
C641 H647 0.959 . S
C641 H648 0.961 . S
C641 H649 0.960 . S
C642 C640 1.381 . S
C642 C643 1.385 1_545 S
C642 H650 0.930 . S
C643 C642 1.385 1_565 S
C643 C644 1.374 1_565 S
C643 H651 0.948 . S
C644 C643 1.374 1_545 S
C644 C645 1.377 . S
C645 H629 0.930 . S
C645 C644 1.377 . S
C645 C646 1.379 . S
C646 H630 0.931 . S
C646 C640 1.383 . S
C646 C645 1.379 . S
H647 C641 0.959 . S
H648 C641 0.961 . S
H649 C641 0.960 . S
H650 C642 0.930 . S
H651 C643 0.948 . S
H652 C660 0.919 1_455 S
H653 C662 0.930 . S
H654 C664 0.930 . S
H655 C667 0.929 . S
H656 C670 0.950 . S
H657 C672 0.960 . S
H658 C672 0.960 . S
H659 C672 0.960 . S
C660 H652 0.919 1_655 S
C660 C661 1.382 . S
C660 C662 1.390 . S
C661 C660 1.382 . S
C661 C667 1.390 . S
C662 H653 0.930 . S
C662 C660 1.390 . S
C662 C663 1.372 . S
C663 C662 1.372 . S
C663 C664 1.400 . S
C663 C668 1.490 . S
C664 H654 0.930 . S
C664 C663 1.400 . S
C664 C667 1.386 . S
H665 C681 0.930 . S
H666 C682 0.931 . S
C667 H655 0.929 . S
C667 C661 1.390 . S
C667 C664 1.386 . S
C668 C663 1.490 . S
C668 C670 1.395 . S
C668 C671 1.403 . S
H669 C675 0.930 . S
C670 H656 0.950 . S
C670 C668 1.395 . S
C670 C673 1.403 . S
C671 C668 1.403 . S
C671 C672 1.524 . S
C671 C675 1.400 . S
C672 H657 0.960 . S
C672 H658 0.960 . S
C672 H659 0.960 . S
C672 C671 1.524 . S
C673 C670 1.403 . S
C673 C674 1.392 . S
C673 C677 1.495 . S
C674 C673 1.392 . S
C674 C675 1.385 . S
C674 C676 1.478 . S
C675 H669 0.930 . S
C675 C671 1.400 . S
C675 C674 1.385 . S
C676 C674 1.478 . S
C676 C678 1.381 . S
C676 C682 1.383 . S
C677 C673 1.495 . S
C677 H683 0.959 1_655 S
C677 H684 0.961 . S
C677 H685 0.960 . S
C678 C676 1.381 . S
C678 C679 1.394 . S
C678 H686 0.930 . S
C679 C678 1.394 . S
C679 C680 1.383 . S
C679 H687 0.929 . S
C680 C679 1.383 . S
C680 C681 1.377 . S
C681 H665 0.930 . S
C681 C680 1.377 . S
C681 C682 1.379 . S
C682 H666 0.931 . S
C682 C676 1.383 . S
C682 C681 1.379 . S
H683 C677 0.959 1_455 S
H684 C677 0.961 . S
H685 C677 0.960 . S
H686 C678 0.930 . S
H687 C679 0.929 . S
C121 C63 1.573 . S
C140 C8 1.604 . S
C157 C22 1.627 . S
C176 C78 1.620 . S
C193 C36 1.606 . S
C212 C91 1.567 . S
C229 C106 1.622 . S
C248 C50 1.614 . S
C265 C7 1.458 . S
C284 C35 1.474 . S
C301 C21 1.362 . S
C320 C49 1.343 . S
C337 C92 1.335 . S
C356 C64 1.346 . S
C373 C77 1.342 . S
C392 C105 1.315 . S
C409 C79 0.889 . S
C428 C3 0.863 . S
C445 C17 0.783 . S
C464 C87 0.751 . S
C481 C31 0.900 . S
C500 C107 0.856 . S
C517 C59 0.792 . S
C536 C45 0.778 . S
C553 C65 0.808 . S
C572 C23 0.823 . S
C589 C73 0.843 . S
C608 C37 0.886 . S
C625 C93 0.818 . S
C644 C51 0.776 . S
C661 C9 0.825 1_655 S
C680 C101 0.873 . S
