# Generated by pormake.
# Topology zff, (5)-cn, num edge types: 1
# Building blocks:
#     Node 0, Type 0, BuildingBlock: BEQFEK_clean_sbu_0, # of connection points: 5
#     Node 1, Type 0, BuildingBlock: BEQFEK_clean_sbu_0, # of connection points: 5
#     Node 2, Type 0, BuildingBlock: BEQFEK_clean_sbu_0, # of connection points: 5
#     Node 3, Type 0, BuildingBlock: BEQFEK_clean_sbu_0, # of connection points: 5
#     Node 4, Type 0, BuildingBlock: BEQFEK_clean_sbu_0, # of connection points: 5
#     Node 5, Type 0, BuildingBlock: BEQFEK_clean_sbu_0, # of connection points: 5
#     Node 6, Type 0, BuildingBlock: BEQFEK_clean_sbu_0, # of connection points: 5
#     Node 7, Type 0, BuildingBlock: BEQFEK_clean_sbu_0, # of connection points: 5
#     Node 8, Type 0, BuildingBlock: BEQFEK_clean_sbu_0, # of connection points: 5
#     Node 9, Type 0, BuildingBlock: BEQFEK_clean_sbu_0, # of connection points: 5
#     Node 10, Type 0, BuildingBlock: BEQFEK_clean_sbu_0, # of connection points: 5
#     Node 11, Type 0, BuildingBlock: BEQFEK_clean_sbu_0, # of connection points: 5
#     Node 12, Type 0, BuildingBlock: BEQFEK_clean_sbu_0, # of connection points: 5
#     Node 13, Type 0, BuildingBlock: BEQFEK_clean_sbu_0, # of connection points: 5
#     Node 14, Type 0, BuildingBlock: BEQFEK_clean_sbu_0, # of connection points: 5
#     Node 15, Type 0, BuildingBlock: BEQFEK_clean_sbu_0, # of connection points: 5
#     Edge 16, Type (0, 0), None
#     Edge 17, Type (0, 0), None
#     Edge 18, Type (0, 0), None
#     Edge 19, Type (0, 0), None
#     Edge 20, Type (0, 0), None
#     Edge 21, Type (0, 0), None
#     Edge 22, Type (0, 0), None
#     Edge 23, Type (0, 0), None
#     Edge 24, Type (0, 0), None
#     Edge 25, Type (0, 0), None
#     Edge 26, Type (0, 0), None
#     Edge 27, Type (0, 0), None
#     Edge 28, Type (0, 0), None
#     Edge 29, Type (0, 0), None
#     Edge 30, Type (0, 0), None
#     Edge 31, Type (0, 0), None
#     Edge 32, Type (0, 0), None
#     Edge 33, Type (0, 0), None
#     Edge 34, Type (0, 0), None
#     Edge 35, Type (0, 0), None
#     Edge 36, Type (0, 0), None
#     Edge 37, Type (0, 0), None
#     Edge 38, Type (0, 0), None
#     Edge 39, Type (0, 0), None
#     Edge 40, Type (0, 0), None
#     Edge 41, Type (0, 0), None
#     Edge 42, Type (0, 0), None
#     Edge 43, Type (0, 0), None
#     Edge 44, Type (0, 0), None
#     Edge 45, Type (0, 0), None
#     Edge 46, Type (0, 0), None
#     Edge 47, Type (0, 0), None
#     Edge 48, Type (0, 0), None
#     Edge 49, Type (0, 0), None
#     Edge 50, Type (0, 0), None
#     Edge 51, Type (0, 0), None
#     Edge 52, Type (0, 0), None
#     Edge 53, Type (0, 0), None
#     Edge 54, Type (0, 0), None
#     Edge 55, Type (0, 0), None
# Relax obj value: 0.043
# Max RMSD: 0.080
# Mean RMSD: 0.080
data_MOF--net-zff--node1-BEQFEK_clean_sbu_0--edge1-none
_symmetry_space_group_name_H-M    P1
_symmetry_Int_Tables_number       1
_symmetry_cell_setting            triclinic
loop_
_symmetry_equiv_pos_as_xyz
'x, y, z'
_cell_length_a     17.902185
_cell_length_b     17.897359
_cell_length_c     42.456462
_cell_angle_alpha  91.399541
_cell_angle_beta   88.558571
_cell_angle_gamma 90.086305
loop_
_atom_site_label
_atom_site_type_symbol
_atom_site_fract_x
_atom_site_fract_y
_atom_site_fract_z
_atom_type_partial_charge
Co0 Co -4e-05 0.25253 0.42653 0.0
Co1 Co 0.0106 0.26045 0.35222 0.0
C2 C 0.11379 0.16371 0.38523 0.0
O3 O 0.08469 0.18627 0.41168 0.0
O4 O 0.09134 0.18783 0.35927 0.0
C5 C 0.98414 0.22129 0.49351 0.0
O6 O 0.98449 0.15016 0.48516 0.0
C7 C 0.08442 0.30588 0.29364 0.0
C8 C -0.00944 0.3477 0.26645 0.0
C9 C 0.06793 0.3446 0.26681 0.0
N10 N 0.01987 0.28825 0.30878 0.0
N11 N 0.96387 0.31136 0.29182 0.0
C12 C 0.16013 0.29527 0.30705 0.0
H13 H 0.15799 0.30657 0.33287 0.0
H14 H 0.20248 0.33184 0.29568 0.0
H15 H 0.17724 0.23616 0.30307 0.0
C16 C 0.98758 0.41348 0.42068 0.0
N17 N 0.00337 0.34541 0.40812 0.0
N18 N 0.01836 0.35038 0.37781 0.0
C19 C 0.01782 0.42346 0.37061 0.0
C20 C -0.00377 0.4654 0.3973 0.0
C21 C 0.9527 0.42595 0.45281 0.0
H22 H 0.9122 0.38058 0.45789 0.0
H23 H -0.00311 0.4247 0.47065 0.0
H24 H 0.92303 0.48027 0.45487 0.0
O25 O 0.90847 0.20273 0.41529 0.0
O26 O 0.91147 0.20638 0.36275 0.0
H27 H -0.00081 0.43939 0.32168 0.0
H28 H 0.04888 0.51523 0.34059 0.0
C29 C 0.04145 0.4537 0.33937 0.0
H30 H 0.09558 0.42878 0.33174 0.0
H31 H 0.90776 0.30816 0.29893 0.0
O32 O -0.00572 0.27054 0.47287 0.0
C33 C 0.87973 0.18744 0.38891 0.0
Co34 Co 0.72629 0.0233 0.42791 0.0
Co35 Co 0.71686 0.03274 0.35385 0.0
C36 C 0.81507 0.13638 0.38938 0.0
O37 O 0.79311 0.1095 0.41577 0.0
O38 O 0.78993 0.11208 0.36338 0.0
C39 C 0.75671 0.98409 0.49254 0.0
O40 O 0.8255 0.97099 0.48248 0.0
C41 C 0.67101 0.10756 0.29738 0.0
C42 C 0.63951 0.01351 0.26592 0.0
C43 C 0.6379 0.09077 0.26899 0.0
N44 N 0.69044 0.04323 0.31077 0.0
N45 N 0.67331 0.9872 0.29141 0.0
C46 C 0.67691 0.18303 0.31314 0.0
H47 H 0.67036 0.1784 0.33908 0.0
H48 H 0.63463 0.22211 0.30429 0.0
H49 H 0.73328 0.20622 0.30793 0.0
C50 C 0.56462 0.00863 0.4218 0.0
N51 N 0.63252 0.02618 0.40972 0.0
N52 N 0.6274 0.04004 0.37962 0.0
C53 C 0.55458 0.03745 0.37219 0.0
C54 C 0.51279 0.01529 0.39838 0.0
C55 C 0.55264 0.97326 0.45313 0.0
H56 H 0.59827 0.933 0.45715 0.0
H57 H 0.55386 0.01719 0.47201 0.0
H58 H 0.49863 0.94297 0.45456 0.0
O59 O 0.77604 0.93349 0.41311 0.0
O60 O 0.7694 0.93349 0.36074 0.0
H61 H 0.54124 0.0186 0.32263 0.0
H62 H 0.46288 0.0655 0.34221 0.0
C63 C 0.52458 0.06006 0.34125 0.0
H64 H 0.54757 0.11523 0.33507 0.0
H65 H 0.67957 0.93092 0.29664 0.0
O66 O 0.70972 0.0116 0.47413 0.0
C67 C 0.78962 0.9033 0.38626 0.0
Co68 Co 0.95701 0.76325 0.42678 0.0
Co69 Co 0.94043 0.73318 0.35355 0.0
C70 C 0.84071 0.83921 0.3857 0.0
O71 O 0.8713 0.82311 0.41158 0.0
O72 O 0.86143 0.80882 0.35959 0.0
C73 C 0.96224 0.73344 0.49581 0.0
O74 O 0.94185 0.6641 0.49022 0.0
C75 C 0.87324 0.66798 0.29607 0.0
C76 C 0.9706 0.6096 0.27413 0.0
C77 C 0.89395 0.61744 0.27211 0.0
N78 N 0.93485 0.68795 0.31195 0.0
N79 N -0.00697 0.65427 0.29809 0.0
C80 C 0.79528 0.68933 0.3061 0.0
H81 H 0.79089 0.69692 0.33208 0.0
H82 H 0.75437 0.64675 0.29804 0.0
H83 H 0.78138 0.74338 0.29542 0.0
C84 C -0.01114 0.59983 0.42039 0.0
N85 N 0.95818 0.66429 0.41113 0.0
N86 N 0.92947 0.65348 0.38317 0.0
C87 C 0.93153 0.57991 0.37594 0.0
C88 C 0.97157 0.54405 0.39853 0.0
C89 C 0.04832 0.59554 0.44448 0.0
H90 H 0.06627 0.65235 0.45216 0.0
H91 H 0.02743 0.56446 0.46515 0.0
H92 H 0.09728 0.56435 0.43443 0.0
O93 O 0.04394 0.80826 0.41031 0.0
O94 O 0.0412 0.78877 0.3584 0.0
H95 H 0.91597 0.54032 0.32852 0.0
H96 H 0.87056 0.48471 0.35777 0.0
C97 C 0.88496 0.54278 0.35126 0.0
H98 H 0.83267 0.5746 0.34841 0.0
H99 H 0.04724 0.65713 0.30652 0.0
O100 O 0.96677 0.77923 0.47348 0.0
C101 C 0.07274 0.81533 0.3831 0.0
Co102 Co 0.21461 0.98209 0.42572 0.0
Co103 Co 0.24432 0.96302 0.3522 0.0
C104 C 0.13718 0.86599 0.38181 0.0
O105 O 0.15374 0.8994 0.40765 0.0
O106 O 0.16814 0.88339 0.35581 0.0
C107 C 0.2436 0.97166 0.49415 0.0
O108 O 0.31078 0.94627 0.48704 0.0
C109 C 0.30982 0.89402 0.29352 0.0
C110 C 0.3706 -0.0102 0.27345 0.0
C111 C 0.36144 0.91314 0.27003 0.0
N112 N 0.29057 0.95644 0.31039 0.0
N113 N 0.32579 0.01365 0.29762 0.0
C114 C 0.2874 0.81662 0.30244 0.0
H115 H 0.2802 0.81314 0.32837 0.0
H116 H 0.32921 0.77483 0.29369 0.0
H117 H 0.23295 0.8031 0.29173 0.0
C118 C 0.37806 0.00808 0.42105 0.0
N119 N 0.31319 0.97997 0.41046 0.0
N120 N 0.32398 0.95159 0.38185 0.0
C121 C 0.39787 0.95182 0.37514 0.0
C122 C 0.43411 -0.00972 0.39902 0.0
C123 C 0.38297 0.06469 0.4475 0.0
H124 H 0.32642 0.08461 0.45498 0.0
H125 H 0.41027 0.0399 0.46789 0.0
H126 H 0.41768 0.11285 0.43998 0.0
O127 O 0.17251 0.07187 0.41246 0.0
O128 O 0.18821 0.06457 0.36024 0.0
H129 H 0.43714 0.93589 0.32733 0.0
H130 H 0.49261 0.89035 0.35562 0.0
C131 C 0.43463 0.90505 0.34947 0.0
H132 H 0.40244 0.8529 0.34559 0.0
H133 H 0.32387 0.06813 0.30695 0.0
O134 O 0.19877 0.98601 0.47246 0.0
C135 C 0.16413 0.09877 0.38557 0.0
Co136 Co 0.02256 0.72855 0.59227 0.0
Co137 Co 0.03185 0.71908 0.66632 0.0
C138 C 0.13558 0.81727 0.63086 0.0
O139 O 0.1087 0.79537 0.60448 0.0
O140 O 0.11125 0.7921 0.65687 0.0
C141 C 0.98159 0.75781 0.52784 0.0
O142 O 0.96546 0.8258 0.53813 0.0
C143 C 0.10607 0.67323 0.72292 0.0
C144 C 0.01171 0.64117 0.75414 0.0
C145 C 0.08899 0.63983 0.75125 0.0
N146 N 0.04189 0.69256 0.70941 0.0
N147 N 0.98567 0.6751 0.72863 0.0
C148 C 0.18171 0.67953 0.70734 0.0
H149 H 0.1775 0.67304 0.68139 0.0
H150 H 0.22084 0.63739 0.71628 0.0
H151 H 0.20455 0.736 0.71262 0.0
C152 C 0.00738 0.56689 0.5985 0.0
N153 N 0.02521 0.63478 0.6105 0.0
N154 N 0.03935 0.62966 0.64057 0.0
C155 C 0.03677 0.55685 0.64803 0.0
C156 C 0.01419 0.51506 0.62192 0.0
C157 C 0.9717 0.55495 0.56725 0.0
H158 H 0.93194 0.60097 0.56316 0.0
H159 H 0.01553 0.55543 0.5483 0.0
H160 H 0.94083 0.50125 0.56601 0.0
O161 O 0.93265 0.77828 0.60692 0.0
O162 O 0.93267 0.77164 0.65929 0.0
H163 H 0.01877 0.54313 0.69762 0.0
H164 H 0.06582 0.46513 0.67786 0.0
C165 C 0.06004 0.52681 0.67888 0.0
H166 H 0.11515 0.55012 0.68491 0.0
H167 H 0.92946 0.6812 0.72328 0.0
O168 O 0.01148 0.71182 0.54605 0.0
C169 C 0.90246 0.79183 0.63378 0.0
Co170 Co 0.25159 0.00245 0.59397 0.0
Co171 Co 0.25981 0.01253 0.66824 0.0
C172 C 0.16298 0.11599 0.63566 0.0
O173 O 0.1854 0.08694 0.60918 0.0
O174 O 0.18721 0.09348 0.66159 0.0
C175 C 0.22039 0.98469 0.5272 0.0
O176 O 0.14955 0.98111 0.53583 0.0
C177 C 0.30541 0.08441 0.72724 0.0
C178 C 0.34916 0.98961 0.75336 0.0
C179 C 0.34517 0.06699 0.75367 0.0
N180 N 0.28815 0.02037 0.71164 0.0
N181 N 0.31242 0.96377 0.72797 0.0
C182 C 0.29355 0.1607 0.71455 0.0
H183 H 0.30426 0.16 0.6887 0.0
H184 H 0.32986 0.20294 0.72612 0.0
H185 H 0.23432 0.17691 0.71894 0.0
C186 C 0.41247 0.98959 0.59971 0.0
N187 N 0.34445 0.00553 0.61228 0.0
N188 N 0.3495 0.02094 0.64254 0.0
C189 C 0.42258 0.02077 0.64966 0.0
C190 C 0.46445 -0.0013 0.62302 0.0
C191 C 0.42483 0.95432 0.56765 0.0
H192 H 0.37894 0.91446 0.56253 0.0
H193 H 0.42448 -0.00156 0.54974 0.0
H194 H 0.47872 0.92388 0.56576 0.0
O195 O 0.20194 0.91074 0.60495 0.0
O196 O 0.20565 0.91353 0.65749 0.0
H197 H 0.43973 0.00355 0.69861 0.0
H198 H 0.51429 0.0541 0.67924 0.0
C199 C 0.45291 0.04567 0.68071 0.0
H200 H 0.4271 0.09947 0.68822 0.0
H201 H 0.30974 0.90795 0.72038 0.0
O202 O 0.26948 -0.00214 0.54762 0.0
C203 C 0.18669 0.88189 0.63132 0.0
Co204 Co 0.98154 0.21668 0.59503 0.0
Co205 Co 0.96235 0.24646 0.66857 0.0
C206 C 0.86539 0.13927 0.63886 0.0
O207 O 0.89877 0.15583 0.613 0.0
O208 O 0.8828 0.17021 0.66485 0.0
C209 C 0.97037 0.24455 0.52652 0.0
O210 O 0.94259 0.31088 0.53348 0.0
C211 C 0.89272 0.31174 0.72718 0.0
C212 C -0.0117 0.37218 0.74752 0.0
C213 C 0.9116 0.36313 0.75077 0.0
N214 N 0.95531 0.29254 0.7104 0.0
N215 N 0.01239 0.32755 0.72334 0.0
C216 C 0.81544 0.28945 0.71809 0.0
H217 H 0.81228 0.28245 0.69214 0.0
H218 H 0.7736 0.33126 0.72681 0.0
H219 H 0.80174 0.23492 0.72871 0.0
C220 C 0.00658 0.38026 0.59935 0.0
N221 N 0.97911 0.31531 0.61017 0.0
N222 N 0.95128 0.32617 0.63888 0.0
C223 C 0.95135 0.40012 0.64548 0.0
C224 C -0.01087 0.43638 0.62139 0.0
C225 C 0.06208 0.3853 0.57248 0.0
H226 H 0.08281 0.32888 0.56524 0.0
H227 H 0.03588 0.41123 0.55209 0.0
H228 H 0.10982 0.42125 0.5794 0.0
O229 O 0.07115 0.17474 0.6085 0.0
O230 O 0.06389 0.19039 0.66071 0.0
H231 H 0.93643 0.43893 0.69339 0.0
H232 H 0.89065 0.495 0.66535 0.0
C233 C 0.90521 0.43687 0.67136 0.0
H234 H 0.85297 0.40489 0.67535 0.0
H235 H 0.06697 0.3256 0.71413 0.0
O236 O 0.98637 0.20059 0.54832 0.0
C237 C 0.09806 0.16634 0.63537 0.0
Co238 Co 0.7623 0.95957 0.59365 0.0
Co239 Co 0.7326 0.94256 0.66699 0.0
C240 C 0.83837 0.84289 0.63437 0.0
O241 O 0.82214 0.8735 0.6085 0.0
O242 O 0.80816 0.86364 0.6605 0.0
C243 C 0.73275 0.96402 0.52457 0.0
O244 O 0.66423 0.94089 0.53005 0.0
C245 C 0.66805 0.87357 0.72419 0.0
C246 C 0.61184 0.97063 0.74738 0.0
C247 C 0.61872 0.89372 0.74866 0.0
N248 N 0.68829 0.93575 0.70873 0.0
N249 N 0.65594 -0.00629 0.72333 0.0
C250 C 0.68815 0.79579 0.7134 0.0
H251 H 0.69564 0.79272 0.68739 0.0
H252 H 0.64493 0.75512 0.7211 0.0
H253 H 0.74194 0.78036 0.72391 0.0
C254 C 0.59885 -0.00937 0.59989 0.0
N255 N 0.66337 0.96055 0.60937 0.0
N256 N 0.65255 0.93261 0.63749 0.0
C257 C 0.57897 0.93473 0.6447 0.0
C258 C 0.54307 0.97396 0.62186 0.0
C259 C 0.5944 0.04895 0.57529 0.0
H260 H 0.65114 0.06742 0.56775 0.0
H261 H 0.56435 0.02664 0.55461 0.0
H262 H 0.5622 0.09785 0.58478 0.0
O263 O 0.80744 0.0462 0.61039 0.0
O264 O 0.78816 0.04332 0.66232 0.0
H265 H 0.54107 0.92116 0.69247 0.0
H266 H 0.48334 0.87598 0.6639 0.0
C267 C 0.54191 0.88952 0.66987 0.0
H268 H 0.57283 0.83669 0.67271 0.0
H269 H 0.65929 0.04837 0.71539 0.0
O270 O 0.77808 0.97045 0.54698 0.0
C271 C 0.81465 0.0749 0.63761 0.0
Co272 Co 0.49998 0.7525 0.92653 0.0
Co273 Co 0.51063 0.76046 0.85223 0.0
C274 C 0.61381 0.66369 0.88523 0.0
O275 O 0.58471 0.68624 0.91168 0.0
O276 O 0.59136 0.68782 0.85927 0.0
C277 C 0.48411 0.72123 0.99351 0.0
O278 O 0.48442 0.65011 0.98516 0.0
C279 C 0.58456 0.80603 0.7937 0.0
C280 C 0.49077 0.84791 0.76648 0.0
C281 C 0.56813 0.84495 0.76692 0.0
N282 N 0.51997 0.7883 0.80879 0.0
N283 N 0.46402 0.81144 0.7918 0.0
C284 C 0.66023 0.79538 0.80714 0.0
H285 H 0.65803 0.80668 0.83296 0.0
H286 H 0.70264 0.83192 0.79579 0.0
H287 H 0.67731 0.73625 0.80317 0.0
C288 C 0.4876 0.91346 0.9207 0.0
N289 N 0.50339 0.8454 0.90813 0.0
N290 N 0.51838 0.85039 0.87783 0.0
C291 C 0.51784 0.92347 0.87064 0.0
C292 C 0.49625 0.9654 0.89733 0.0
C293 C 0.45273 0.92591 0.95284 0.0
H294 H 0.41222 0.88054 0.95791 0.0
H295 H 0.49692 0.92463 0.97068 0.0
H296 H 0.42306 0.98023 0.95491 0.0
O297 O 0.4085 0.70271 0.91528 0.0
O298 O 0.41148 0.70639 0.86274 0.0
H299 H 0.49924 0.93943 0.8217 0.0
H300 H 0.54885 0.0153 0.84064 0.0
C301 C 0.54148 0.95376 0.8394 0.0
H302 H 0.59563 0.92889 0.83178 0.0
H303 H 0.40788 0.80815 0.79887 0.0
O304 O 0.4943 0.77048 0.97287 0.0
C305 C 0.37975 0.68744 0.8889 0.0
Co306 Co 0.2263 0.52331 0.92791 0.0
Co307 Co 0.21683 0.53275 0.85385 0.0
C308 C 0.31508 0.63638 0.88937 0.0
O309 O 0.29312 0.60951 0.91577 0.0
O310 O 0.28993 0.61207 0.86338 0.0
C311 C 0.25676 0.48408 0.99254 0.0
O312 O 0.32556 0.47099 0.98248 0.0
C313 C 0.17084 0.60772 0.79746 0.0
C314 C 0.13924 0.51376 0.76595 0.0
C315 C 0.13751 0.59099 0.76911 0.0
N316 N 0.19036 0.54334 0.81078 0.0
N317 N 0.17318 0.48737 0.79139 0.0
C318 C 0.17682 0.68313 0.81326 0.0
H319 H 0.17021 0.67842 0.83919 0.0
H320 H 0.1346 0.7223 0.80442 0.0
H321 H 0.23322 0.70625 0.80808 0.0
C322 C 0.06462 0.50864 0.92182 0.0
N323 N 0.13251 0.52619 0.90974 0.0
N324 N 0.12737 0.54005 0.87963 0.0
C325 C 0.05455 0.53745 0.87222 0.0
C326 C 0.01278 0.51529 0.89841 0.0
C327 C 0.05266 0.47329 0.95316 0.0
H328 H 0.09828 0.43302 0.95717 0.0
H329 H 0.05391 0.51723 0.97204 0.0
H330 H -0.00135 0.44302 0.9546 0.0
O331 O 0.27604 0.4335 0.9131 0.0
O332 O 0.26937 0.43348 0.86073 0.0
H333 H 0.04119 0.51863 0.82266 0.0
H334 H 0.9628 0.56544 0.84225 0.0
C335 C 0.0245 0.56005 0.84128 0.0
H336 H 0.04743 0.61526 0.83511 0.0
H337 H 0.17953 0.43107 0.79657 0.0
O338 O 0.20976 0.51159 0.97413 0.0
C339 C 0.28961 0.4033 0.88625 0.0
Co340 Co 0.45698 0.26326 0.92678 0.0
Co341 Co 0.4404 0.23313 0.85355 0.0
C342 C 0.34068 0.33921 0.88569 0.0
O343 O 0.37127 0.32311 0.91157 0.0
O344 O 0.36141 0.3088 0.85959 0.0
C345 C 0.46221 0.23349 0.99581 0.0
O346 O 0.4418 0.16415 0.99023 0.0
C347 C 0.37308 0.16785 0.79613 0.0
C348 C 0.47038 0.10938 0.77416 0.0
C349 C 0.39371 0.11716 0.77222 0.0
N350 N 0.43475 0.18786 0.81196 0.0
N351 N 0.49289 0.15413 0.79808 0.0
C352 C 0.29516 0.18928 0.80618 0.0
H353 H 0.29081 0.1968 0.83216 0.0
H354 H 0.25418 0.14679 0.79811 0.0
H355 H 0.28134 0.24339 0.79553 0.0
C356 C 0.48884 0.09984 0.92041 0.0
N357 N 0.45815 0.16429 0.91115 0.0
N358 N 0.42944 0.15345 0.8832 0.0
C359 C 0.43149 0.07988 0.87597 0.0
C360 C 0.47155 0.04404 0.89857 0.0
C361 C 0.5483 0.09557 0.9445 0.0
H362 H 0.56625 0.15239 0.95218 0.0
H363 H 0.52742 0.06449 0.96518 0.0
H364 H 0.59727 0.06439 0.93445 0.0
O365 O 0.54391 0.30825 0.9103 0.0
O366 O 0.54119 0.28871 0.85839 0.0
H367 H 0.41588 0.0402 0.82857 0.0
H368 H 0.37049 0.98465 0.85785 0.0
C369 C 0.38489 0.04271 0.85132 0.0
H370 H 0.33259 0.07452 0.84847 0.0
H371 H 0.54714 0.15704 0.80647 0.0
O372 O 0.46676 0.27927 0.97348 0.0
C373 C 0.57272 0.31529 0.88309 0.0
Co374 Co 0.71458 0.48205 0.92572 0.0
Co375 Co 0.74435 0.46297 0.85221 0.0
C376 C 0.63717 0.36595 0.88181 0.0
O377 O 0.65372 0.39936 0.90765 0.0
O378 O 0.66814 0.38335 0.85581 0.0
C379 C 0.74354 0.47163 0.99415 0.0
O380 O 0.81073 0.44626 0.98704 0.0
C381 C 0.80994 0.39388 0.79357 0.0
C382 C 0.87079 0.48961 0.77349 0.0
C383 C 0.86171 0.41294 0.77013 0.0
N384 N 0.79065 0.45634 0.8104 0.0
N385 N 0.8259 0.51353 0.79763 0.0
C386 C 0.78745 0.31651 0.8025 0.0
H387 H 0.78028 0.31305 0.82844 0.0
H388 H 0.82922 0.27466 0.79375 0.0
H389 H 0.73298 0.30304 0.79182 0.0
C390 C 0.87803 0.50806 0.92107 0.0
N391 N 0.81317 0.47993 0.91048 0.0
N392 N 0.82399 0.45153 0.88188 0.0
C393 C 0.89788 0.45176 0.87518 0.0
C394 C 0.9341 0.49025 0.89906 0.0
C395 C 0.88292 0.56469 0.94752 0.0
H396 H 0.82636 0.58459 0.955 0.0
H397 H 0.91024 0.53992 0.96791 0.0
H398 H 0.91761 0.61286 0.93999 0.0
O399 O 0.6725 0.57183 0.91245 0.0
O400 O 0.68824 0.56454 0.86024 0.0
H401 H 0.93725 0.43576 0.82738 0.0
H402 H -0.00736 0.39024 0.85571 0.0
C403 C 0.93468 0.40495 0.84953 0.0
H404 H 0.90249 0.3528 0.84565 0.0
H405 H 0.82394 0.56803 0.80692 0.0
O406 O 0.69871 0.48597 0.97246 0.0
C407 C 0.66414 0.59873 0.88556 0.0
Co408 Co 0.52257 0.22856 0.09227 0.0
Co409 Co 0.53186 0.21905 0.16632 0.0
C410 C 0.63558 0.31728 0.13087 0.0
O411 O 0.60871 0.29538 0.10448 0.0
O412 O 0.61124 0.2921 0.15687 0.0
C413 C 0.48158 0.25786 0.02785 0.0
O414 O 0.46545 0.32585 0.03813 0.0
C415 C 0.60623 0.17307 0.22285 0.0
C416 C 0.51197 0.1409 0.25412 0.0
C417 C 0.58922 0.13944 0.25112 0.0
N418 N 0.54199 0.19248 0.2094 0.0
N419 N 0.48584 0.17497 0.22866 0.0
C420 C 0.68181 0.17943 0.20723 0.0
H421 H 0.67753 0.17289 0.18128 0.0
H422 H 0.72103 0.13736 0.21615 0.0
H423 H 0.70459 0.23595 0.21247 0.0
C424 C 0.50739 0.0669 0.09847 0.0
N425 N 0.52522 0.13477 0.11048 0.0
N426 N 0.53935 0.12963 0.14055 0.0
C427 C 0.53677 0.05681 0.148 0.0
C428 C 0.51419 0.01505 0.12189 0.0
C429 C 0.47173 0.05497 0.06722 0.0
H430 H 0.43195 0.10099 0.06314 0.0
H431 H 0.51556 0.05549 0.04827 0.0
H432 H 0.44087 0.00126 0.06597 0.0
O433 O 0.43266 0.27828 0.10694 0.0
O434 O 0.43266 0.27161 0.15931 0.0
H435 H 0.5188 0.04307 0.19759 0.0
H436 H 0.56576 0.96504 0.17782 0.0
C437 C 0.56004 0.02673 0.17884 0.0
H438 H 0.61518 0.04998 0.18487 0.0
H439 H 0.42961 0.18115 0.22335 0.0
O440 O 0.51146 0.21186 0.04605 0.0
C441 C 0.40245 0.29181 0.13379 0.0
Co442 Co 0.75156 0.50247 0.09397 0.0
Co443 Co 0.75982 0.51256 0.16824 0.0
C444 C 0.66295 0.61601 0.13566 0.0
O445 O 0.68537 0.58696 0.10918 0.0
O446 O 0.68719 0.5935 0.16159 0.0
C447 C 0.72033 0.48466 0.0272 0.0
O448 O 0.6495 0.48105 0.03584 0.0
C449 C 0.80555 0.58455 0.22718 0.0
C450 C 0.84937 0.4898 0.25333 0.0
C451 C 0.8455 0.56719 0.25357 0.0
N452 N 0.7882 0.52047 0.21163 0.0
N453 N 0.81249 0.46391 0.22799 0.0
C454 C 0.79364 0.6608 0.21447 0.0
H455 H 0.80437 0.66005 0.18861 0.0
H456 H 0.82993 0.7031 0.22602 0.0
H457 H 0.73441 0.67699 0.21883 0.0
C458 C 0.91244 0.48961 0.09968 0.0
N459 N 0.84444 0.50556 0.11227 0.0
N460 N 0.8495 0.52097 0.14253 0.0
C461 C 0.92259 0.5208 0.14963 0.0
C462 C 0.96445 0.49872 0.12298 0.0
C463 C 0.92478 0.45435 0.06762 0.0
H464 H 0.87889 0.41449 0.06251 0.0
H465 H 0.92442 0.49846 0.04971 0.0
H466 H 0.97868 0.42391 0.06573 0.0
O467 O 0.70192 0.41077 0.10496 0.0
O468 O 0.70565 0.41355 0.1575 0.0
H469 H 0.93977 0.5036 0.19858 0.0
H470 H 0.01436 0.55409 0.17919 0.0
C471 C 0.95297 0.5457 0.18067 0.0
H472 H 0.9272 0.59953 0.18818 0.0
H473 H 0.80973 0.40806 0.22044 0.0
O474 O 0.76942 0.49788 0.04762 0.0
C475 C 0.68669 0.38191 0.13133 0.0
Co476 Co 0.4815 0.71665 0.09502 0.0
Co477 Co 0.46229 0.74649 0.16857 0.0
C478 C 0.36535 0.63926 0.13887 0.0
O479 O 0.39872 0.65581 0.11301 0.0
O480 O 0.38275 0.67022 0.16486 0.0
C481 C 0.47034 0.7445 0.02652 0.0
O482 O 0.44258 0.81083 0.03348 0.0
C483 C 0.39258 0.81186 0.22713 0.0
C484 C 0.48811 0.87238 0.24748 0.0
C485 C 0.4114 0.8634 0.25067 0.0
N486 N 0.45521 0.79262 0.21039 0.0
N487 N 0.51226 0.82766 0.22334 0.0
C488 C 0.31533 0.78951 0.21802 0.0
H489 H 0.31219 0.78253 0.19207 0.0
H490 H 0.27344 0.83126 0.22674 0.0
H491 H 0.30167 0.73495 0.22862 0.0
C492 C 0.50656 0.88023 0.09933 0.0
N493 N 0.47907 0.81529 0.11015 0.0
N494 N 0.45122 0.82618 0.13885 0.0
C495 C 0.45129 0.90013 0.14544 0.0
C496 C 0.4891 0.93637 0.12136 0.0
C497 C 0.56207 0.88525 0.07246 0.0
H498 H 0.58278 0.82882 0.06522 0.0
H499 H 0.5359 0.91121 0.05207 0.0
H500 H 0.60983 0.92118 0.07939 0.0
O501 O 0.57111 0.67473 0.1085 0.0
O502 O 0.56385 0.69042 0.16071 0.0
H503 H 0.43631 0.93903 0.19334 0.0
H504 H 0.39055 -0.00496 0.16527 0.0
C505 C 0.40511 0.93692 0.1713 0.0
H506 H 0.35288 0.90495 0.17529 0.0
H507 H 0.56687 0.82567 0.21416 0.0
O508 O 0.48632 0.70053 0.04831 0.0
C509 C 0.59802 0.66636 0.13538 0.0
Co510 Co 0.2623 0.45954 0.09365 0.0
Co511 Co 0.23255 0.44253 0.16698 0.0
C512 C 0.33836 0.34287 0.13437 0.0
O513 O 0.32214 0.37347 0.10851 0.0
O514 O 0.30814 0.36362 0.16051 0.0
C515 C 0.2328 0.46399 0.02456 0.0
O516 O 0.16429 0.44085 0.03005 0.0
C517 C 0.16792 0.37341 0.22413 0.0
C518 C 0.11162 0.4704 0.24735 0.0
C519 C 0.11842 0.39347 0.24855 0.0
N520 N 0.1882 0.43565 0.20872 0.0
N521 N 0.1558 0.49357 0.22334 0.0
C522 C 0.1881 0.29567 0.21331 0.0
H523 H 0.19552 0.29265 0.1873 0.0
H524 H 0.14497 0.25493 0.22103 0.0
H525 H 0.24196 0.28032 0.22379 0.0
C526 C 0.09886 0.49062 0.09986 0.0
N527 N 0.16337 0.46052 0.10935 0.0
N528 N 0.15252 0.43257 0.13747 0.0
C529 C 0.07893 0.43469 0.14467 0.0
C530 C 0.04306 0.47394 0.12182 0.0
C531 C 0.09443 0.54893 0.07527 0.0
H532 H 0.15118 0.56739 0.06773 0.0
H533 H 0.06438 0.52662 0.05459 0.0
H534 H 0.06223 0.59784 0.08475 0.0
O535 O 0.30743 0.54617 0.1104 0.0
O536 O 0.2881 0.54331 0.16233 0.0
H537 H 0.04095 0.42107 0.19242 0.0
H538 H 0.98327 0.37593 0.16382 0.0
C539 C 0.04183 0.38945 0.16982 0.0
H540 H 0.07274 0.33662 0.17265 0.0
H541 H 0.1592 0.54826 0.21544 0.0
O542 O 0.27812 0.47044 0.04698 0.0
C543 C 0.31461 0.57488 0.13762 0.0
loop_
_geom_bond_atom_site_label_1
_geom_bond_atom_site_label_2
_geom_bond_distance
_geom_bond_site_symmetry_2
_ccdc_geom_bond_type
Co0 O3 1.970 . S
Co0 N17 1.989 . S
Co0 O25 1.967 1_455 S
Co0 O32 1.920 1_455 S
Co1 O4 1.966 . S
Co1 N10 2.022 . S
Co1 N18 1.993 . S
Co1 O26 1.941 1_455 S
C2 O3 1.258 . S
C2 O4 1.263 . S
O3 Co0 1.970 . S
O3 C2 1.258 . S
O4 Co1 1.966 . S
O4 C2 1.263 . S
C5 O6 1.235 . S
C5 O32 1.289 1_455 S
O6 C5 1.235 . S
C7 C9 1.400 . S
C7 N10 1.351 . S
C7 C12 1.501 . S
C8 C9 1.387 . S
C8 N11 1.341 . S
C9 C7 1.400 . S
C9 C8 1.387 . S
N10 Co1 2.022 . S
N10 C7 1.351 . S
N10 N11 1.365 . S
N11 C8 1.341 . S
N11 N10 1.365 . S
N11 H31 0.862 1_455 S
C12 C7 1.501 . S
C12 H13 0.961 . S
C12 H14 0.961 . S
C12 H15 0.960 . S
H13 C12 0.961 . S
H14 C12 0.961 . S
H15 C12 0.960 . S
C16 N17 1.342 . S
C16 C20 1.401 . S
C16 C21 1.499 1_455 S
N17 Co0 1.989 . S
N17 C16 1.342 . S
N17 N18 1.388 . S
N18 Co1 1.993 . S
N18 N17 1.388 . S
N18 C19 1.346 . S
C19 N18 1.346 . S
C19 C20 1.396 . S
C19 C29 1.510 . S
C20 C16 1.401 . S
C20 C19 1.396 . S
C21 C16 1.499 1_655 S
C21 H22 0.959 . S
C21 H23 0.960 1_655 S
C21 H24 0.961 . S
H22 C21 0.959 . S
H23 C21 0.960 1_455 S
H24 C21 0.961 . S
O25 Co0 1.967 1_655 S
O25 C33 1.258 . S
O26 Co1 1.941 1_655 S
O26 C33 1.266 . S
H27 C29 0.959 . S
H28 C29 0.961 . S
C29 C19 1.510 . S
C29 H27 0.959 . S
C29 H28 0.961 . S
C29 H30 0.960 . S
H30 C29 0.960 . S
H31 N11 0.862 1_655 S
O32 Co0 1.920 1_655 S
O32 C5 1.289 1_655 S
C33 O25 1.258 . S
C33 O26 1.266 . S
Co34 O37 1.970 . S
Co34 N51 1.989 . S
Co34 O59 1.967 1_545 S
Co34 O66 1.920 1_545 S
Co35 O38 1.966 . S
Co35 N44 2.022 . S
Co35 N52 1.993 . S
Co35 O60 1.941 1_545 S
C36 O37 1.258 . S
C36 O38 1.263 . S
O37 Co34 1.970 . S
O37 C36 1.258 . S
O38 Co35 1.966 . S
O38 C36 1.263 . S
C39 O40 1.235 . S
C39 O66 1.289 1_545 S
O40 C39 1.235 . S
C41 C43 1.400 . S
C41 N44 1.351 . S
C41 C46 1.501 . S
C42 C43 1.387 . S
C42 N45 1.341 . S
C43 C41 1.400 . S
C43 C42 1.387 . S
N44 Co35 2.022 . S
N44 C41 1.351 . S
N44 N45 1.365 . S
N45 C42 1.341 . S
N45 N44 1.365 . S
N45 H65 0.862 1_545 S
C46 C41 1.501 . S
C46 H47 0.961 . S
C46 H48 0.961 . S
C46 H49 0.960 . S
H47 C46 0.961 . S
H48 C46 0.961 . S
H49 C46 0.960 . S
C50 N51 1.342 . S
C50 C54 1.401 . S
C50 C55 1.499 1_545 S
N51 Co34 1.989 . S
N51 C50 1.342 . S
N51 N52 1.388 . S
N52 Co35 1.993 . S
N52 N51 1.388 . S
N52 C53 1.346 . S
C53 N52 1.346 . S
C53 C54 1.396 . S
C53 C63 1.510 . S
C54 C50 1.401 . S
C54 C53 1.396 . S
C55 C50 1.499 1_565 S
C55 H56 0.959 . S
C55 H57 0.960 1_565 S
C55 H58 0.961 . S
H56 C55 0.959 . S
H57 C55 0.960 1_545 S
H58 C55 0.961 . S
O59 Co34 1.967 1_565 S
O59 C67 1.258 . S
O60 Co35 1.941 1_565 S
O60 C67 1.266 . S
H61 C63 0.959 . S
H62 C63 0.961 . S
C63 C53 1.510 . S
C63 H61 0.959 . S
C63 H62 0.961 . S
C63 H64 0.960 . S
H64 C63 0.960 . S
H65 N45 0.862 1_565 S
O66 Co34 1.920 1_565 S
O66 C39 1.289 1_565 S
C67 O59 1.258 . S
C67 O60 1.266 . S
Co68 O71 1.970 . S
Co68 N85 1.989 . S
Co68 O93 1.967 1_655 S
Co68 O100 1.920 1_655 S
Co69 O72 1.966 . S
Co69 N78 2.022 . S
Co69 N86 1.993 . S
Co69 O94 1.941 1_655 S
C70 O71 1.258 . S
C70 O72 1.263 . S
O71 Co68 1.970 . S
O71 C70 1.258 . S
O72 Co69 1.966 . S
O72 C70 1.263 . S
C73 O74 1.235 . S
C73 O100 1.289 1_655 S
O74 C73 1.235 . S
C75 C77 1.400 . S
C75 N78 1.351 . S
C75 C80 1.501 . S
C76 C77 1.387 . S
C76 N79 1.341 . S
C77 C75 1.400 . S
C77 C76 1.387 . S
N78 Co69 2.022 . S
N78 C75 1.351 . S
N78 N79 1.365 . S
N79 C76 1.341 . S
N79 N78 1.365 . S
N79 H99 0.862 1_655 S
C80 C75 1.501 . S
C80 H81 0.961 . S
C80 H82 0.961 . S
C80 H83 0.960 . S
H81 C80 0.961 . S
H82 C80 0.961 . S
H83 C80 0.960 . S
C84 N85 1.342 . S
C84 C88 1.401 . S
C84 C89 1.499 1_655 S
N85 Co68 1.989 . S
N85 C84 1.342 . S
N85 N86 1.388 . S
N86 Co69 1.993 . S
N86 N85 1.388 . S
N86 C87 1.346 . S
C87 N86 1.346 . S
C87 C88 1.396 . S
C87 C97 1.510 . S
C88 C84 1.401 . S
C88 C87 1.396 . S
C89 C84 1.499 1_455 S
C89 H90 0.959 . S
C89 H91 0.960 1_455 S
C89 H92 0.961 . S
H90 C89 0.959 . S
H91 C89 0.960 1_655 S
H92 C89 0.961 . S
O93 Co68 1.967 1_455 S
O93 C101 1.258 . S
O94 Co69 1.941 1_455 S
O94 C101 1.266 . S
H95 C97 0.959 . S
H96 C97 0.961 . S
C97 C87 1.510 . S
C97 H95 0.959 . S
C97 H96 0.961 . S
C97 H98 0.960 . S
H98 C97 0.960 . S
H99 N79 0.862 1_455 S
O100 Co68 1.920 1_455 S
O100 C73 1.289 1_455 S
C101 O93 1.258 . S
C101 O94 1.266 . S
Co102 O105 1.970 . S
Co102 N119 1.989 . S
Co102 O127 1.967 1_565 S
Co102 O134 1.920 1_565 S
Co103 O106 1.966 . S
Co103 N112 2.022 . S
Co103 N120 1.993 . S
Co103 O128 1.941 1_565 S
C104 O105 1.258 . S
C104 O106 1.263 . S
O105 Co102 1.970 . S
O105 C104 1.258 . S
O106 Co103 1.966 . S
O106 C104 1.263 . S
C107 O108 1.235 . S
C107 O134 1.289 1_565 S
O108 C107 1.235 . S
C109 C111 1.400 . S
C109 N112 1.351 . S
C109 C114 1.501 . S
C110 C111 1.387 . S
C110 N113 1.341 . S
C111 C109 1.400 . S
C111 C110 1.387 . S
N112 Co103 2.022 . S
N112 C109 1.351 . S
N112 N113 1.365 . S
N113 C110 1.341 . S
N113 N112 1.365 . S
N113 H133 0.862 1_565 S
C114 C109 1.501 . S
C114 H115 0.961 . S
C114 H116 0.961 . S
C114 H117 0.960 . S
H115 C114 0.961 . S
H116 C114 0.961 . S
H117 C114 0.960 . S
C118 N119 1.342 . S
C118 C122 1.401 . S
C118 C123 1.499 1_565 S
N119 Co102 1.989 . S
N119 C118 1.342 . S
N119 N120 1.388 . S
N120 Co103 1.993 . S
N120 N119 1.388 . S
N120 C121 1.346 . S
C121 N120 1.346 . S
C121 C122 1.396 . S
C121 C131 1.510 . S
C122 C118 1.401 . S
C122 C121 1.396 . S
C123 C118 1.499 1_545 S
C123 H124 0.959 . S
C123 H125 0.960 1_545 S
C123 H126 0.961 . S
H124 C123 0.959 . S
H125 C123 0.960 1_565 S
H126 C123 0.961 . S
O127 Co102 1.967 1_545 S
O127 C135 1.258 . S
O128 Co103 1.941 1_545 S
O128 C135 1.266 . S
H129 C131 0.959 . S
H130 C131 0.961 . S
C131 C121 1.510 . S
C131 H129 0.959 . S
C131 H130 0.961 . S
C131 H132 0.960 . S
H132 C131 0.960 . S
H133 N113 0.862 1_545 S
O134 Co102 1.920 1_545 S
O134 C107 1.289 1_545 S
C135 O127 1.258 . S
C135 O128 1.266 . S
Co136 O139 1.970 . S
Co136 N153 1.989 . S
Co136 O161 1.967 1_455 S
Co136 O168 1.920 1_455 S
Co137 O140 1.966 . S
Co137 N146 2.022 . S
Co137 N154 1.993 . S
Co137 O162 1.941 1_455 S
C138 O139 1.258 . S
C138 O140 1.263 . S
O139 Co136 1.970 . S
O139 C138 1.258 . S
O140 Co137 1.966 . S
O140 C138 1.263 . S
C141 O142 1.235 . S
C141 O168 1.289 1_455 S
O142 C141 1.235 . S
C143 C145 1.400 . S
C143 N146 1.351 . S
C143 C148 1.501 . S
C144 C145 1.387 . S
C144 N147 1.341 . S
C145 C143 1.400 . S
C145 C144 1.387 . S
N146 Co137 2.022 . S
N146 C143 1.351 . S
N146 N147 1.365 . S
N147 C144 1.341 . S
N147 N146 1.365 . S
N147 H167 0.862 1_455 S
C148 C143 1.501 . S
C148 H149 0.961 . S
C148 H150 0.961 . S
C148 H151 0.960 . S
H149 C148 0.961 . S
H150 C148 0.961 . S
H151 C148 0.960 . S
C152 N153 1.342 . S
C152 C156 1.401 . S
C152 C157 1.499 1_455 S
N153 Co136 1.989 . S
N153 C152 1.342 . S
N153 N154 1.388 . S
N154 Co137 1.993 . S
N154 N153 1.388 . S
N154 C155 1.346 . S
C155 N154 1.346 . S
C155 C156 1.396 . S
C155 C165 1.510 . S
C156 C152 1.401 . S
C156 C155 1.396 . S
C157 C152 1.499 1_655 S
C157 H158 0.959 . S
C157 H159 0.960 1_655 S
C157 H160 0.961 . S
H158 C157 0.959 . S
H159 C157 0.960 1_455 S
H160 C157 0.961 . S
O161 Co136 1.967 1_655 S
O161 C169 1.258 . S
O162 Co137 1.941 1_655 S
O162 C169 1.266 . S
H163 C165 0.959 . S
H164 C165 0.961 . S
C165 C155 1.510 . S
C165 H163 0.959 . S
C165 H164 0.961 . S
C165 H166 0.960 . S
H166 C165 0.960 . S
H167 N147 0.862 1_655 S
O168 Co136 1.920 1_655 S
O168 C141 1.289 1_655 S
C169 O161 1.258 . S
C169 O162 1.266 . S
Co170 O173 1.970 . S
Co170 N187 1.989 . S
Co170 O195 1.967 1_545 S
Co170 O202 1.920 1_545 S
Co171 O174 1.966 . S
Co171 N180 2.022 . S
Co171 N188 1.993 . S
Co171 O196 1.941 1_545 S
C172 O173 1.258 . S
C172 O174 1.263 . S
O173 Co170 1.970 . S
O173 C172 1.258 . S
O174 Co171 1.966 . S
O174 C172 1.263 . S
C175 O176 1.235 . S
C175 O202 1.289 1_545 S
O176 C175 1.235 . S
C177 C179 1.400 . S
C177 N180 1.351 . S
C177 C182 1.501 . S
C178 C179 1.387 . S
C178 N181 1.341 . S
C179 C177 1.400 . S
C179 C178 1.387 . S
N180 Co171 2.022 . S
N180 C177 1.351 . S
N180 N181 1.365 . S
N181 C178 1.341 . S
N181 N180 1.365 . S
N181 H201 0.862 1_545 S
C182 C177 1.501 . S
C182 H183 0.961 . S
C182 H184 0.961 . S
C182 H185 0.960 . S
H183 C182 0.961 . S
H184 C182 0.961 . S
H185 C182 0.960 . S
C186 N187 1.342 . S
C186 C190 1.401 . S
C186 C191 1.499 1_545 S
N187 Co170 1.989 . S
N187 C186 1.342 . S
N187 N188 1.388 . S
N188 Co171 1.993 . S
N188 N187 1.388 . S
N188 C189 1.346 . S
C189 N188 1.346 . S
C189 C190 1.396 . S
C189 C199 1.510 . S
C190 C186 1.401 . S
C190 C189 1.396 . S
C191 C186 1.499 1_565 S
C191 H192 0.959 . S
C191 H193 0.960 1_565 S
C191 H194 0.961 . S
H192 C191 0.959 . S
H193 C191 0.960 1_545 S
H194 C191 0.961 . S
O195 Co170 1.967 1_565 S
O195 C203 1.258 . S
O196 Co171 1.941 1_565 S
O196 C203 1.266 . S
H197 C199 0.959 . S
H198 C199 0.961 . S
C199 C189 1.510 . S
C199 H197 0.959 . S
C199 H198 0.961 . S
C199 H200 0.960 . S
H200 C199 0.960 . S
H201 N181 0.862 1_565 S
O202 Co170 1.920 1_565 S
O202 C175 1.289 1_565 S
C203 O195 1.258 . S
C203 O196 1.266 . S
Co204 O207 1.970 . S
Co204 N221 1.989 . S
Co204 O229 1.967 1_655 S
Co204 O236 1.920 1_655 S
Co205 O208 1.966 . S
Co205 N214 2.022 . S
Co205 N222 1.993 . S
Co205 O230 1.941 1_655 S
C206 O207 1.258 . S
C206 O208 1.263 . S
O207 Co204 1.970 . S
O207 C206 1.258 . S
O208 Co205 1.966 . S
O208 C206 1.263 . S
C209 O210 1.235 . S
C209 O236 1.289 1_655 S
O210 C209 1.235 . S
C211 C213 1.400 . S
C211 N214 1.351 . S
C211 C216 1.501 . S
C212 C213 1.387 . S
C212 N215 1.341 . S
C213 C211 1.400 . S
C213 C212 1.387 . S
N214 Co205 2.022 . S
N214 C211 1.351 . S
N214 N215 1.365 . S
N215 C212 1.341 . S
N215 N214 1.365 . S
N215 H235 0.862 1_655 S
C216 C211 1.501 . S
C216 H217 0.961 . S
C216 H218 0.961 . S
C216 H219 0.960 . S
H217 C216 0.961 . S
H218 C216 0.961 . S
H219 C216 0.960 . S
C220 N221 1.342 . S
C220 C224 1.401 . S
C220 C225 1.499 1_655 S
N221 Co204 1.989 . S
N221 C220 1.342 . S
N221 N222 1.388 . S
N222 Co205 1.993 . S
N222 N221 1.388 . S
N222 C223 1.346 . S
C223 N222 1.346 . S
C223 C224 1.396 . S
C223 C233 1.510 . S
C224 C220 1.401 . S
C224 C223 1.396 . S
C225 C220 1.499 1_455 S
C225 H226 0.959 . S
C225 H227 0.960 1_455 S
C225 H228 0.961 . S
H226 C225 0.959 . S
H227 C225 0.960 1_655 S
H228 C225 0.961 . S
O229 Co204 1.967 1_455 S
O229 C237 1.258 . S
O230 Co205 1.941 1_455 S
O230 C237 1.266 . S
H231 C233 0.959 . S
H232 C233 0.961 . S
C233 C223 1.510 . S
C233 H231 0.959 . S
C233 H232 0.961 . S
C233 H234 0.960 . S
H234 C233 0.960 . S
H235 N215 0.862 1_455 S
O236 Co204 1.920 1_455 S
O236 C209 1.289 1_455 S
C237 O229 1.258 . S
C237 O230 1.266 . S
Co238 O241 1.970 . S
Co238 N255 1.989 . S
Co238 O263 1.967 1_565 S
Co238 O270 1.920 1_565 S
Co239 O242 1.966 . S
Co239 N248 2.022 . S
Co239 N256 1.993 . S
Co239 O264 1.941 1_565 S
C240 O241 1.258 . S
C240 O242 1.263 . S
O241 Co238 1.970 . S
O241 C240 1.258 . S
O242 Co239 1.966 . S
O242 C240 1.263 . S
C243 O244 1.235 . S
C243 O270 1.289 1_565 S
O244 C243 1.235 . S
C245 C247 1.400 . S
C245 N248 1.351 . S
C245 C250 1.501 . S
C246 C247 1.387 . S
C246 N249 1.341 . S
C247 C245 1.400 . S
C247 C246 1.387 . S
N248 Co239 2.022 . S
N248 C245 1.351 . S
N248 N249 1.365 . S
N249 C246 1.341 . S
N249 N248 1.365 . S
N249 H269 0.862 1_565 S
C250 C245 1.501 . S
C250 H251 0.961 . S
C250 H252 0.961 . S
C250 H253 0.960 . S
H251 C250 0.961 . S
H252 C250 0.961 . S
H253 C250 0.960 . S
C254 N255 1.342 . S
C254 C258 1.401 . S
C254 C259 1.499 1_565 S
N255 Co238 1.989 . S
N255 C254 1.342 . S
N255 N256 1.388 . S
N256 Co239 1.993 . S
N256 N255 1.388 . S
N256 C257 1.346 . S
C257 N256 1.346 . S
C257 C258 1.396 . S
C257 C267 1.510 . S
C258 C254 1.401 . S
C258 C257 1.396 . S
C259 C254 1.499 1_545 S
C259 H260 0.959 . S
C259 H261 0.960 1_545 S
C259 H262 0.961 . S
H260 C259 0.959 . S
H261 C259 0.960 1_565 S
H262 C259 0.961 . S
O263 Co238 1.967 1_545 S
O263 C271 1.258 . S
O264 Co239 1.941 1_545 S
O264 C271 1.266 . S
H265 C267 0.959 . S
H266 C267 0.961 . S
C267 C257 1.510 . S
C267 H265 0.959 . S
C267 H266 0.961 . S
C267 H268 0.960 . S
H268 C267 0.960 . S
H269 N249 0.862 1_545 S
O270 Co238 1.920 1_545 S
O270 C243 1.289 1_545 S
C271 O263 1.258 . S
C271 O264 1.266 . S
Co272 O275 1.970 . S
Co272 N289 1.989 . S
Co272 O297 1.967 . S
Co272 O304 1.920 . S
Co273 O276 1.966 . S
Co273 N282 2.022 . S
Co273 N290 1.993 . S
Co273 O298 1.941 . S
C274 O275 1.258 . S
C274 O276 1.263 . S
O275 Co272 1.970 . S
O275 C274 1.258 . S
O276 Co273 1.966 . S
O276 C274 1.263 . S
C277 O278 1.235 . S
C277 O304 1.289 . S
O278 C277 1.235 . S
C279 C281 1.400 . S
C279 N282 1.351 . S
C279 C284 1.501 . S
C280 C281 1.387 . S
C280 N283 1.341 . S
C281 C279 1.400 . S
C281 C280 1.387 . S
N282 Co273 2.022 . S
N282 C279 1.351 . S
N282 N283 1.365 . S
N283 C280 1.341 . S
N283 N282 1.365 . S
N283 H303 0.862 . S
C284 C279 1.501 . S
C284 H285 0.961 . S
C284 H286 0.961 . S
C284 H287 0.960 . S
H285 C284 0.961 . S
H286 C284 0.961 . S
H287 C284 0.960 . S
C288 N289 1.342 . S
C288 C292 1.401 . S
C288 C293 1.499 . S
N289 Co272 1.989 . S
N289 C288 1.342 . S
N289 N290 1.388 . S
N290 Co273 1.993 . S
N290 N289 1.388 . S
N290 C291 1.346 . S
C291 N290 1.346 . S
C291 C292 1.396 . S
C291 C301 1.510 . S
C292 C288 1.401 . S
C292 C291 1.396 . S
C293 C288 1.499 . S
C293 H294 0.959 . S
C293 H295 0.960 . S
C293 H296 0.961 . S
H294 C293 0.959 . S
H295 C293 0.960 . S
H296 C293 0.961 . S
O297 Co272 1.967 . S
O297 C305 1.258 . S
O298 Co273 1.941 . S
O298 C305 1.266 . S
H299 C301 0.959 . S
H300 C301 0.961 . S
C301 C291 1.510 . S
C301 H299 0.959 . S
C301 H300 0.961 . S
C301 H302 0.960 . S
H302 C301 0.960 . S
H303 N283 0.862 . S
O304 Co272 1.920 . S
O304 C277 1.289 . S
C305 O297 1.258 . S
C305 O298 1.266 . S
Co306 O309 1.970 . S
Co306 N323 1.989 . S
Co306 O331 1.967 . S
Co306 O338 1.920 . S
Co307 O310 1.966 . S
Co307 N316 2.022 . S
Co307 N324 1.993 . S
Co307 O332 1.941 . S
C308 O309 1.258 . S
C308 O310 1.263 . S
O309 Co306 1.970 . S
O309 C308 1.258 . S
O310 Co307 1.966 . S
O310 C308 1.263 . S
C311 O312 1.235 . S
C311 O338 1.289 . S
O312 C311 1.235 . S
C313 C315 1.400 . S
C313 N316 1.351 . S
C313 C318 1.501 . S
C314 C315 1.387 . S
C314 N317 1.341 . S
C315 C313 1.400 . S
C315 C314 1.387 . S
N316 Co307 2.022 . S
N316 C313 1.351 . S
N316 N317 1.365 . S
N317 C314 1.341 . S
N317 N316 1.365 . S
N317 H337 0.862 . S
C318 C313 1.501 . S
C318 H319 0.961 . S
C318 H320 0.961 . S
C318 H321 0.960 . S
H319 C318 0.961 . S
H320 C318 0.961 . S
H321 C318 0.960 . S
C322 N323 1.342 . S
C322 C326 1.401 . S
C322 C327 1.499 . S
N323 Co306 1.989 . S
N323 C322 1.342 . S
N323 N324 1.388 . S
N324 Co307 1.993 . S
N324 N323 1.388 . S
N324 C325 1.346 . S
C325 N324 1.346 . S
C325 C326 1.396 . S
C325 C335 1.510 . S
C326 C322 1.401 . S
C326 C325 1.396 . S
C327 C322 1.499 . S
C327 H328 0.959 . S
C327 H329 0.960 . S
C327 H330 0.961 . S
H328 C327 0.959 . S
H329 C327 0.960 . S
H330 C327 0.961 . S
O331 Co306 1.967 . S
O331 C339 1.258 . S
O332 Co307 1.941 . S
O332 C339 1.266 . S
H333 C335 0.959 . S
H334 C335 0.961 . S
C335 C325 1.510 . S
C335 H333 0.959 . S
C335 H334 0.961 . S
C335 H336 0.960 . S
H336 C335 0.960 . S
H337 N317 0.862 . S
O338 Co306 1.920 . S
O338 C311 1.289 . S
C339 O331 1.258 . S
C339 O332 1.266 . S
Co340 O343 1.970 . S
Co340 N357 1.989 . S
Co340 O365 1.967 . S
Co340 O372 1.920 . S
Co341 O344 1.966 . S
Co341 N350 2.022 . S
Co341 N358 1.993 . S
Co341 O366 1.941 . S
C342 O343 1.258 . S
C342 O344 1.263 . S
O343 Co340 1.970 . S
O343 C342 1.258 . S
O344 Co341 1.966 . S
O344 C342 1.263 . S
C345 O346 1.235 . S
C345 O372 1.289 . S
O346 C345 1.235 . S
C347 C349 1.400 . S
C347 N350 1.351 . S
C347 C352 1.501 . S
C348 C349 1.387 . S
C348 N351 1.341 . S
C349 C347 1.400 . S
C349 C348 1.387 . S
N350 Co341 2.022 . S
N350 C347 1.351 . S
N350 N351 1.365 . S
N351 C348 1.341 . S
N351 N350 1.365 . S
N351 H371 0.862 . S
C352 C347 1.501 . S
C352 H353 0.961 . S
C352 H354 0.961 . S
C352 H355 0.960 . S
H353 C352 0.961 . S
H354 C352 0.961 . S
H355 C352 0.960 . S
C356 N357 1.342 . S
C356 C360 1.401 . S
C356 C361 1.499 . S
N357 Co340 1.989 . S
N357 C356 1.342 . S
N357 N358 1.388 . S
N358 Co341 1.993 . S
N358 N357 1.388 . S
N358 C359 1.346 . S
C359 N358 1.346 . S
C359 C360 1.396 . S
C359 C369 1.510 . S
C360 C356 1.401 . S
C360 C359 1.396 . S
C361 C356 1.499 . S
C361 H362 0.959 . S
C361 H363 0.960 . S
C361 H364 0.961 . S
H362 C361 0.959 . S
H363 C361 0.960 . S
H364 C361 0.961 . S
O365 Co340 1.967 . S
O365 C373 1.258 . S
O366 Co341 1.941 . S
O366 C373 1.266 . S
H367 C369 0.959 . S
H368 C369 0.961 . S
C369 C359 1.510 . S
C369 H367 0.959 . S
C369 H368 0.961 . S
C369 H370 0.960 . S
H370 C369 0.960 . S
H371 N351 0.862 . S
O372 Co340 1.920 . S
O372 C345 1.289 . S
C373 O365 1.258 . S
C373 O366 1.266 . S
Co374 O377 1.970 . S
Co374 N391 1.989 . S
Co374 O399 1.967 . S
Co374 O406 1.920 . S
Co375 O378 1.966 . S
Co375 N384 2.022 . S
Co375 N392 1.993 . S
Co375 O400 1.941 . S
C376 O377 1.258 . S
C376 O378 1.263 . S
O377 Co374 1.970 . S
O377 C376 1.258 . S
O378 Co375 1.966 . S
O378 C376 1.263 . S
C379 O380 1.235 . S
C379 O406 1.289 . S
O380 C379 1.235 . S
C381 C383 1.400 . S
C381 N384 1.351 . S
C381 C386 1.501 . S
C382 C383 1.387 . S
C382 N385 1.341 . S
C383 C381 1.400 . S
C383 C382 1.387 . S
N384 Co375 2.022 . S
N384 C381 1.351 . S
N384 N385 1.365 . S
N385 C382 1.341 . S
N385 N384 1.365 . S
N385 H405 0.862 . S
C386 C381 1.501 . S
C386 H387 0.961 . S
C386 H388 0.961 . S
C386 H389 0.960 . S
H387 C386 0.961 . S
H388 C386 0.961 . S
H389 C386 0.960 . S
C390 N391 1.342 . S
C390 C394 1.401 . S
C390 C395 1.499 . S
N391 Co374 1.989 . S
N391 C390 1.342 . S
N391 N392 1.388 . S
N392 Co375 1.993 . S
N392 N391 1.388 . S
N392 C393 1.346 . S
C393 N392 1.346 . S
C393 C394 1.396 . S
C393 C403 1.510 . S
C394 C390 1.401 . S
C394 C393 1.396 . S
C395 C390 1.499 . S
C395 H396 0.959 . S
C395 H397 0.960 . S
C395 H398 0.961 . S
H396 C395 0.959 . S
H397 C395 0.960 . S
H398 C395 0.961 . S
O399 Co374 1.967 . S
O399 C407 1.258 . S
O400 Co375 1.941 . S
O400 C407 1.266 . S
H401 C403 0.959 . S
H402 C403 0.961 . S
C403 C393 1.510 . S
C403 H401 0.959 . S
C403 H402 0.961 . S
C403 H404 0.960 . S
H404 C403 0.960 . S
H405 N385 0.862 . S
O406 Co374 1.920 . S
O406 C379 1.289 . S
C407 O399 1.258 . S
C407 O400 1.266 . S
Co408 O411 1.970 . S
Co408 N425 1.989 . S
Co408 O433 1.967 . S
Co408 O440 1.920 . S
Co409 O412 1.966 . S
Co409 N418 2.022 . S
Co409 N426 1.993 . S
Co409 O434 1.941 . S
C410 O411 1.258 . S
C410 O412 1.263 . S
O411 Co408 1.970 . S
O411 C410 1.258 . S
O412 Co409 1.966 . S
O412 C410 1.263 . S
C413 O414 1.235 . S
C413 O440 1.289 . S
O414 C413 1.235 . S
C415 C417 1.400 . S
C415 N418 1.351 . S
C415 C420 1.501 . S
C416 C417 1.387 . S
C416 N419 1.341 . S
C417 C415 1.400 . S
C417 C416 1.387 . S
N418 Co409 2.022 . S
N418 C415 1.351 . S
N418 N419 1.365 . S
N419 C416 1.341 . S
N419 N418 1.365 . S
N419 H439 0.862 . S
C420 C415 1.501 . S
C420 H421 0.961 . S
C420 H422 0.961 . S
C420 H423 0.960 . S
H421 C420 0.961 . S
H422 C420 0.961 . S
H423 C420 0.960 . S
C424 N425 1.342 . S
C424 C428 1.401 . S
C424 C429 1.499 . S
N425 Co408 1.989 . S
N425 C424 1.342 . S
N425 N426 1.388 . S
N426 Co409 1.993 . S
N426 N425 1.388 . S
N426 C427 1.346 . S
C427 N426 1.346 . S
C427 C428 1.396 . S
C427 C437 1.510 . S
C428 C424 1.401 . S
C428 C427 1.396 . S
C429 C424 1.499 . S
C429 H430 0.959 . S
C429 H431 0.960 . S
C429 H432 0.961 . S
H430 C429 0.959 . S
H431 C429 0.960 . S
H432 C429 0.961 . S
O433 Co408 1.967 . S
O433 C441 1.258 . S
O434 Co409 1.941 . S
O434 C441 1.266 . S
H435 C437 0.959 . S
H436 C437 0.961 . S
C437 C427 1.510 . S
C437 H435 0.959 . S
C437 H436 0.961 . S
C437 H438 0.960 . S
H438 C437 0.960 . S
H439 N419 0.862 . S
O440 Co408 1.920 . S
O440 C413 1.289 . S
C441 O433 1.258 . S
C441 O434 1.266 . S
Co442 O445 1.970 . S
Co442 N459 1.989 . S
Co442 O467 1.967 . S
Co442 O474 1.920 . S
Co443 O446 1.966 . S
Co443 N452 2.022 . S
Co443 N460 1.993 . S
Co443 O468 1.941 . S
C444 O445 1.258 . S
C444 O446 1.263 . S
O445 Co442 1.970 . S
O445 C444 1.258 . S
O446 Co443 1.966 . S
O446 C444 1.263 . S
C447 O448 1.235 . S
C447 O474 1.289 . S
O448 C447 1.235 . S
C449 C451 1.400 . S
C449 N452 1.351 . S
C449 C454 1.501 . S
C450 C451 1.387 . S
C450 N453 1.341 . S
C451 C449 1.400 . S
C451 C450 1.387 . S
N452 Co443 2.022 . S
N452 C449 1.351 . S
N452 N453 1.365 . S
N453 C450 1.341 . S
N453 N452 1.365 . S
N453 H473 0.862 . S
C454 C449 1.501 . S
C454 H455 0.961 . S
C454 H456 0.961 . S
C454 H457 0.960 . S
H455 C454 0.961 . S
H456 C454 0.961 . S
H457 C454 0.960 . S
C458 N459 1.342 . S
C458 C462 1.401 . S
C458 C463 1.499 . S
N459 Co442 1.989 . S
N459 C458 1.342 . S
N459 N460 1.388 . S
N460 Co443 1.993 . S
N460 N459 1.388 . S
N460 C461 1.346 . S
C461 N460 1.346 . S
C461 C462 1.396 . S
C461 C471 1.510 . S
C462 C458 1.401 . S
C462 C461 1.396 . S
C463 C458 1.499 . S
C463 H464 0.959 . S
C463 H465 0.960 . S
C463 H466 0.961 . S
H464 C463 0.959 . S
H465 C463 0.960 . S
H466 C463 0.961 . S
O467 Co442 1.967 . S
O467 C475 1.258 . S
O468 Co443 1.941 . S
O468 C475 1.266 . S
H469 C471 0.959 . S
H470 C471 0.961 . S
C471 C461 1.510 . S
C471 H469 0.959 . S
C471 H470 0.961 . S
C471 H472 0.960 . S
H472 C471 0.960 . S
H473 N453 0.862 . S
O474 Co442 1.920 . S
O474 C447 1.289 . S
C475 O467 1.258 . S
C475 O468 1.266 . S
Co476 O479 1.970 . S
Co476 N493 1.989 . S
Co476 O501 1.967 . S
Co476 O508 1.920 . S
Co477 O480 1.966 . S
Co477 N486 2.022 . S
Co477 N494 1.993 . S
Co477 O502 1.941 . S
C478 O479 1.258 . S
C478 O480 1.263 . S
O479 Co476 1.970 . S
O479 C478 1.258 . S
O480 Co477 1.966 . S
O480 C478 1.263 . S
C481 O482 1.235 . S
C481 O508 1.289 . S
O482 C481 1.235 . S
C483 C485 1.400 . S
C483 N486 1.351 . S
C483 C488 1.501 . S
C484 C485 1.387 . S
C484 N487 1.341 . S
C485 C483 1.400 . S
C485 C484 1.387 . S
N486 Co477 2.022 . S
N486 C483 1.351 . S
N486 N487 1.365 . S
N487 C484 1.341 . S
N487 N486 1.365 . S
N487 H507 0.862 . S
C488 C483 1.501 . S
C488 H489 0.961 . S
C488 H490 0.961 . S
C488 H491 0.960 . S
H489 C488 0.961 . S
H490 C488 0.961 . S
H491 C488 0.960 . S
C492 N493 1.342 . S
C492 C496 1.401 . S
C492 C497 1.499 . S
N493 Co476 1.989 . S
N493 C492 1.342 . S
N493 N494 1.388 . S
N494 Co477 1.993 . S
N494 N493 1.388 . S
N494 C495 1.346 . S
C495 N494 1.346 . S
C495 C496 1.396 . S
C495 C505 1.510 . S
C496 C492 1.401 . S
C496 C495 1.396 . S
C497 C492 1.499 . S
C497 H498 0.959 . S
C497 H499 0.960 . S
C497 H500 0.961 . S
H498 C497 0.959 . S
H499 C497 0.960 . S
H500 C497 0.961 . S
O501 Co476 1.967 . S
O501 C509 1.258 . S
O502 Co477 1.941 . S
O502 C509 1.266 . S
H503 C505 0.959 . S
H504 C505 0.961 . S
C505 C495 1.510 . S
C505 H503 0.959 . S
C505 H504 0.961 . S
C505 H506 0.960 . S
H506 C505 0.960 . S
H507 N487 0.862 . S
O508 Co476 1.920 . S
O508 C481 1.289 . S
C509 O501 1.258 . S
C509 O502 1.266 . S
Co510 O513 1.970 . S
Co510 N527 1.989 . S
Co510 O535 1.967 . S
Co510 O542 1.920 . S
Co511 O514 1.966 . S
Co511 N520 2.022 . S
Co511 N528 1.993 . S
Co511 O536 1.941 . S
C512 O513 1.258 . S
C512 O514 1.263 . S
O513 Co510 1.970 . S
O513 C512 1.258 . S
O514 Co511 1.966 . S
O514 C512 1.263 . S
C515 O516 1.235 . S
C515 O542 1.289 . S
O516 C515 1.235 . S
C517 C519 1.400 . S
C517 N520 1.351 . S
C517 C522 1.501 . S
C518 C519 1.387 . S
C518 N521 1.341 . S
C519 C517 1.400 . S
C519 C518 1.387 . S
N520 Co511 2.022 . S
N520 C517 1.351 . S
N520 N521 1.365 . S
N521 C518 1.341 . S
N521 N520 1.365 . S
N521 H541 0.862 . S
C522 C517 1.501 . S
C522 H523 0.961 . S
C522 H524 0.961 . S
C522 H525 0.960 . S
H523 C522 0.961 . S
H524 C522 0.961 . S
H525 C522 0.960 . S
C526 N527 1.342 . S
C526 C530 1.401 . S
C526 C531 1.499 . S
N527 Co510 1.989 . S
N527 C526 1.342 . S
N527 N528 1.388 . S
N528 Co511 1.993 . S
N528 N527 1.388 . S
N528 C529 1.346 . S
C529 N528 1.346 . S
C529 C530 1.396 . S
C529 C539 1.510 . S
C530 C526 1.401 . S
C530 C529 1.396 . S
C531 C526 1.499 . S
C531 H532 0.959 . S
C531 H533 0.960 . S
C531 H534 0.961 . S
H532 C531 0.959 . S
H533 C531 0.960 . S
H534 C531 0.961 . S
O535 Co510 1.967 . S
O535 C543 1.258 . S
O536 Co511 1.941 . S
O536 C543 1.266 . S
H537 C539 0.959 . S
H538 C539 0.961 . S
C539 C529 1.510 . S
C539 H537 0.959 . S
C539 H538 0.961 . S
C539 H540 0.960 . S
H540 C539 0.960 . S
H541 N521 0.862 . S
O542 Co510 1.920 . S
O542 C515 1.289 . S
C543 O535 1.258 . S
C543 O536 1.266 . S
C88 C20 1.154 1_655 S
C54 C122 1.154 1_545 S
C224 C156 1.154 1_655 S
C258 C190 1.154 1_565 S
C292 C360 1.154 1_565 S
C394 C326 1.154 1_655 S
C496 C428 1.154 1_565 S
C462 C530 1.154 1_655 S
C9 C519 1.862 . S
C417 C43 1.862 . S
C451 C77 1.862 . S
C485 C111 1.862 . S
C315 C145 1.862 . S
C349 C179 1.862 . S
C383 C213 1.862 . S
C281 C247 1.862 . S
C2 C135 1.540 . S
C33 C36 1.540 . S
C70 C67 1.540 . S
C101 C104 1.540 . S
C203 C138 1.540 . S
C172 C237 1.540 . S
C271 C206 1.540 . S
C169 C240 1.540 . S
C274 C407 1.540 . S
C305 C308 1.540 . S
C342 C339 1.540 . S
C376 C373 1.540 . S
C410 C475 1.540 . S
C509 C444 1.540 . S
C543 C478 1.540 . S
C512 C441 1.540 . S
C5 C209 2.075 1_455 S
C243 C39 2.075 1_565 S
C141 C73 2.075 1_455 S
C175 C107 2.075 1_545 S
C277 C481 2.075 1_556 S
C515 C311 2.075 1_554 S
C413 C345 2.075 1_554 S
C379 C447 2.075 1_556 S
