# Generated by pormake.
# Topology irl, (4)-cn, num edge types: 1
# Building blocks:
#     Node 0, Type 0, BuildingBlock: QUQFOY_clean_sbu_3, # of connection points: 4
#     Node 1, Type 0, BuildingBlock: QUQFOY_clean_sbu_3, # of connection points: 4
#     Node 2, Type 0, BuildingBlock: QUQFOY_clean_sbu_3, # of connection points: 4
#     Node 3, Type 0, BuildingBlock: QUQFOY_clean_sbu_3, # of connection points: 4
#     Node 4, Type 0, BuildingBlock: QUQFOY_clean_sbu_3, # of connection points: 4
#     Node 5, Type 0, BuildingBlock: QUQFOY_clean_sbu_3, # of connection points: 4
#     Node 6, Type 0, BuildingBlock: QUQFOY_clean_sbu_3, # of connection points: 4
#     Node 7, Type 0, BuildingBlock: QUQFOY_clean_sbu_3, # of connection points: 4
#     Edge 8, Type (0, 0), BuildingBlock: ZUJKAS_clean_linker_0, # of connection points: 2
#     Edge 9, Type (0, 0), BuildingBlock: ZUJKAS_clean_linker_0, # of connection points: 2
#     Edge 10, Type (0, 0), BuildingBlock: ZUJKAS_clean_linker_0, # of connection points: 2
#     Edge 11, Type (0, 0), BuildingBlock: ZUJKAS_clean_linker_0, # of connection points: 2
#     Edge 12, Type (0, 0), BuildingBlock: ZUJKAS_clean_linker_0, # of connection points: 2
#     Edge 13, Type (0, 0), BuildingBlock: ZUJKAS_clean_linker_0, # of connection points: 2
#     Edge 14, Type (0, 0), BuildingBlock: ZUJKAS_clean_linker_0, # of connection points: 2
#     Edge 15, Type (0, 0), BuildingBlock: ZUJKAS_clean_linker_0, # of connection points: 2
#     Edge 16, Type (0, 0), BuildingBlock: ZUJKAS_clean_linker_0, # of connection points: 2
#     Edge 17, Type (0, 0), BuildingBlock: ZUJKAS_clean_linker_0, # of connection points: 2
#     Edge 18, Type (0, 0), BuildingBlock: ZUJKAS_clean_linker_0, # of connection points: 2
#     Edge 19, Type (0, 0), BuildingBlock: ZUJKAS_clean_linker_0, # of connection points: 2
#     Edge 20, Type (0, 0), BuildingBlock: ZUJKAS_clean_linker_0, # of connection points: 2
#     Edge 21, Type (0, 0), BuildingBlock: ZUJKAS_clean_linker_0, # of connection points: 2
#     Edge 22, Type (0, 0), BuildingBlock: ZUJKAS_clean_linker_0, # of connection points: 2
#     Edge 23, Type (0, 0), BuildingBlock: ZUJKAS_clean_linker_0, # of connection points: 2
# Relax obj value: 0.063
# Max RMSD: 0.124
# Mean RMSD: 0.124
data_MOF--net-irl--node1-QUQFOY_clean_sbu_3--edge1-ZUJKAS_clean_linker_0
_symmetry_space_group_name_H-M    P1
_symmetry_Int_Tables_number       1
_symmetry_cell_setting            triclinic
loop_
_symmetry_equiv_pos_as_xyz
'x, y, z'
_cell_length_a     44.902318
_cell_length_b     58.155401
_cell_length_c     36.95899
_cell_angle_alpha  90.003201
_cell_angle_beta   89.970095
_cell_angle_gamma 90.02981
loop_
_atom_site_label
_atom_site_type_symbol
_atom_site_fract_x
_atom_site_fract_y
_atom_site_fract_z
_atom_type_partial_charge
C0 C 0.00901 0.20393 0.9325 0.0
O1 O 0.98552 0.20133 0.9512 0.0
Cd2 Cd 0.9884 0.1867 0.01218 0.0
O3 O 0.03442 0.19961 0.946 0.0
Cd4 Cd 0.06056 0.18798 0.00084 0.0
C5 C 0.02671 0.13588 -0.00415 0.0
O6 O 0.02717 0.207 0.04302 0.0
O7 O 0.06108 0.18503 0.06598 0.0
O8 O 0.09198 0.21973 0.98401 0.0
C9 C 0.03917 0.1984 0.07101 0.0
O10 O 0.003 0.14661 0.00446 0.0
C11 C 0.11651 0.2091 0.98688 0.0
O12 O 0.05118 0.14666 -0.00896 0.0
O13 O 0.11528 0.18808 -0.00363 0.0
C14 C -0.00042 0.81882 0.92757 0.0
O15 O 0.02411 0.81926 0.94459 0.0
Cd16 Cd 0.02527 0.83564 0.00431 0.0
O17 O 0.97592 0.82622 0.94242 0.0
Cd18 Cd 0.95588 0.84141 -0.00108 0.0
C19 C 0.99642 0.88999 -0.00909 0.0
O20 O 0.98613 0.81697 0.03795 0.0
O21 O 0.96015 0.8435 0.06413 0.0
O22 O 0.91783 0.81419 0.98246 0.0
C23 C 0.9768 0.826 0.06704 0.0
O24 O 0.01877 0.87728 -0.00204 0.0
C25 C 0.8957 0.82682 0.98999 0.0
O26 O 0.97048 0.88131 0.98784 0.0
O27 O 0.90133 0.84693 0.0017 0.0
C28 C 0.99001 0.79015 0.55633 0.0
O29 O 0.9692 0.79384 0.53387 0.0
Cd30 Cd 0.98255 0.81061 0.47616 0.0
O31 O 0.01662 0.79591 0.54905 0.0
Cd32 Cd 0.04948 0.81272 0.50417 0.0
C33 C 0.01117 0.86271 0.50416 0.0
O34 O 0.02687 0.79161 0.45446 0.0
O35 O 0.05931 0.8176 0.44026 0.0
O36 O 0.08111 0.78349 0.52964 0.0
C37 C 0.04237 0.80137 0.4302 0.0
O38 O 0.99112 0.85154 0.48724 0.0
C39 C 0.10487 0.79525 0.52969 0.0
O40 O 0.03427 0.85259 0.51632 0.0
O41 O 0.10306 0.81583 0.51827 0.0
C42 C 0.99503 0.1794 0.55683 0.0
O43 O 0.01561 0.17558 0.53405 0.0
Cd44 Cd 0.00284 0.15892 0.47621 0.0
O45 O 0.96824 0.17399 0.54974 0.0
Cd46 Cd 0.93536 0.15761 0.50417 0.0
C47 C 0.97283 0.1071 0.50326 0.0
O48 O 0.95915 0.17892 0.45564 0.0
O49 O 0.92483 0.15487 0.43977 0.0
O50 O 0.90389 0.18666 0.53075 0.0
C51 C 0.9431 0.17047 0.43075 0.0
O52 O 0.99331 0.11812 0.48687 0.0
C53 C 0.87995 0.17514 0.52956 0.0
O54 O 0.94977 0.11742 0.51515 0.0
O55 O 0.88169 0.15475 0.51726 0.0
C56 C 0.50343 0.7158 0.94191 0.0
O57 O 0.48002 0.71213 0.96032 0.0
Cd58 Cd 0.48317 0.69395 0.0191 0.0
O59 O 0.52884 0.71049 0.95445 0.0
Cd60 Cd 0.55461 0.695 0.00698 0.0
C61 C 0.51974 0.64373 -0.00456 0.0
O62 O 0.52237 0.71161 0.05336 0.0
O63 O 0.55594 0.68731 0.0708 0.0
O64 O 0.58764 0.72694 -0.0039 0.0
C65 C 0.53492 0.70086 0.0791 0.0
O66 O 0.49643 0.65408 0.00648 0.0
C67 C 0.61161 0.71542 -0.00325 0.0
O68 O 0.54414 0.65464 -0.00907 0.0
O69 O 0.60927 0.69387 0.00197 0.0
C70 C 0.49979 0.32472 0.93381 0.0
O71 O 0.52211 0.32578 0.95479 0.0
Cd72 Cd 0.51628 0.34534 0.01198 0.0
O73 O 0.47483 0.33288 0.94367 0.0
Cd74 Cd 0.44782 0.35057 -0.00636 0.0
C75 C 0.48921 0.39877 0.98695 0.0
O76 O 0.47327 0.32881 0.04095 0.0
O77 O 0.44288 0.3555 0.05835 0.0
O78 O 0.41335 0.32185 0.9729 0.0
C79 C 0.45994 0.33898 0.06668 0.0
O80 O 0.51026 0.3864 -0.00058 0.0
C81 C 0.39001 0.33394 0.97574 0.0
O82 O 0.4638 0.38999 0.98021 0.0
O83 O 0.39332 0.35459 0.98639 0.0
C84 C 0.49274 0.28438 0.56949 0.0
O85 O 0.4697 0.28768 0.5503 0.0
Cd86 Cd 0.47489 0.30713 0.4925 0.0
O87 O 0.51806 0.29131 0.55879 0.0
Cd88 Cd 0.54568 0.30989 0.51059 0.0
C89 C 0.50532 0.35893 0.52017 0.0
O90 O 0.5178 0.29201 0.46145 0.0
O91 O 0.5512 0.31726 0.44699 0.0
O92 O 0.58033 0.28002 0.52638 0.0
C93 C 0.53132 0.30318 0.43687 0.0
O94 O 0.48362 0.34748 0.50713 0.0
C95 C 0.60319 0.29277 0.52814 0.0
O96 O 0.53034 0.3493 0.52636 0.0
O97 O 0.59954 0.31405 0.52151 0.0
C98 C 0.48977 0.67664 0.57396 0.0
O99 O 0.51106 0.67469 0.55156 0.0
Cd100 Cd 0.5021 0.65653 0.49395 0.0
O101 O 0.46374 0.66986 0.5656 0.0
Cd102 Cd 0.4332 0.65383 0.51707 0.0
C103 C 0.47205 0.60408 0.51966 0.0
O104 O 0.45871 0.67507 0.46973 0.0
O105 O 0.42573 0.65042 0.45208 0.0
O106 O 0.40062 0.68312 0.54053 0.0
C107 C 0.44426 0.66603 0.44392 0.0
O108 O 0.49337 0.61568 0.50603 0.0
C109 C 0.37686 0.67139 0.53914 0.0
O110 O 0.4476 0.6138 0.52827 0.0
O111 O 0.37912 0.65079 0.5279 0.0
H112 H 0.95357 0.92333 0.98483 0.0
H113 H 0.96093 0.96502 0.98238 0.0
H114 H 0.05603 0.9554 0.98704 0.0
H115 H 0.04902 0.91375 0.98945 0.0
H116 H 0.99255 0.99124 0.03732 0.0
H117 H 0.04281 0.00035 0.90045 0.0
H118 H 0.02141 0.9754 0.91367 0.0
H119 H 0.05896 0.97884 0.92938 0.0
C120 C 0.97608 0.93004 0.98496 0.0
C121 C 0.0007 0.91517 0.98736 0.0
C122 C 0.98022 0.95386 0.9836 0.0
C123 C 0.00902 0.96322 0.98416 0.0
C124 C 0.03365 0.94847 0.98602 0.0
H125 H 0.07315 0.10537 0.98804 0.0
H126 H 0.07009 0.06325 0.98539 0.0
C127 C 0.02955 0.92467 0.9876 0.0
C128 C 0.01322 0.98846 0.98496 0.0
H129 H 0.04087 0.03382 0.93679 0.0
C130 C 0.00304 0.00058 0.01532 0.0
C131 C 0.02726 0.00047 0.95641 0.0
C132 C 0.0381 0.98821 0.92295 0.0
C133 C 0.00655 0.02449 0.01797 0.0
C134 C 0.01996 0.03664 0.98904 0.0
C135 C 0.03057 0.02446 0.95888 0.0
C136 C 0.02201 0.06208 0.98912 0.0
C137 C 0.99624 0.03645 0.05199 0.0
C138 C 0.996 0.07532 -0.00885 0.0
C139 C -0.00234 0.09924 -0.00715 0.0
C140 C 0.0254 0.11051 -0.00788 0.0
C141 C 0.05145 0.09724 0.98879 0.0
C142 C 0.04975 0.07319 0.98728 0.0
H143 H 0.99493 0.02436 0.07521 0.0
H144 H 0.01138 0.05081 0.05931 0.0
H145 H 0.97364 0.04361 0.0475 0.0
H146 H 0.97433 0.06713 -0.00834 0.0
H147 H 0.97709 0.10888 -0.00507 0.0
H148 H 0.03719 0.89043 0.55526 0.0
H149 H 0.0294 0.93179 0.56409 0.0
H150 H 0.97008 0.93295 0.47228 0.0
H151 H 0.97664 0.89168 0.46446 0.0
H152 H 0.0417 0.96703 0.5244 0.0
H153 H 0.91991 0.96655 0.54273 0.0
H154 H 0.94154 0.94042 0.54279 0.0
H155 H 0.92929 0.95301 0.50073 0.0
C156 C 0.02232 0.89953 0.53717 0.0
C157 C 0.00729 0.88777 0.5094 0.0
C158 C 0.01785 0.92314 0.54225 0.0
C159 C -0.0015 0.93544 0.51946 0.0
C160 C 0.98418 0.92377 0.49113 0.0
H161 H 0.00706 0.07786 0.46364 0.0
H162 H 0.01328 0.03658 0.47171 0.0
C163 C 0.98818 0.90016 0.48647 0.0
C164 C 0.9944 0.96067 0.52385 0.0
H165 H 0.94143 0.00277 0.52383 0.0
C166 C 0.01975 0.97481 0.52484 0.0
C167 C 0.96582 0.97094 0.52546 0.0
C168 C 0.93766 0.95688 0.52831 0.0
C169 C 0.0173 0.99887 0.52544 0.0
C170 C 0.98872 0.00913 0.5235 0.0
C171 C 0.96337 0.995 0.52452 0.0
C172 C 0.98466 0.03433 0.51879 0.0
C173 C 0.04544 0.01295 0.5283 0.0
C174 C 0.96528 0.04676 0.54139 0.0
C175 C 0.961 0.07038 0.53615 0.0
C176 C 0.97626 0.08201 0.50842 0.0
C177 C 0.99534 0.06948 0.48561 0.0
C178 C -0.00085 0.04586 0.49043 0.0
H179 H 0.06313 0.00335 0.54291 0.0
H180 H 0.05394 0.0167 0.50072 0.0
H181 H 0.04149 0.02946 0.54258 0.0
H182 H 0.9536 0.03821 0.56324 0.0
H183 H 0.94616 0.07959 0.55414 0.0
H184 H 0.47201 0.61542 0.00585 0.0
H185 H 0.46986 0.57376 -0.00106 0.0
H186 H 0.56133 0.57296 0.96369 0.0
H187 H 0.56394 0.61492 0.97068 0.0
H188 H 0.50922 0.54447 0.92155 0.0
H189 H 0.52503 0.52997 0.0693 0.0
H190 H 0.49995 0.5525 0.05552 0.0
H191 H 0.53904 0.55529 0.04662 0.0
C192 C 0.49171 0.60652 -0.00362 0.0
C193 C 0.51824 0.61857 0.98902 0.0
C194 C 0.49036 0.58269 -0.00757 0.0
C195 C 0.51543 0.5704 0.98092 0.0
C196 C 0.54176 0.58227 0.97257 0.0
H197 H 0.53987 0.42311 0.00151 0.0
H198 H 0.54754 0.46453 -0.00341 0.0
C199 C 0.5432 0.6062 0.97667 0.0
C200 C 0.51424 0.54504 0.97943 0.0
H201 H 0.51297 0.49762 0.03369 0.0
C202 C 0.51024 0.53414 0.94594 0.0
C203 C 0.51566 0.53177 0.01136 0.0
C204 C 0.52031 0.54284 0.04785 0.0
C205 C 0.50706 0.51012 0.94369 0.0
C206 C 0.50771 0.49689 0.97579 0.0
C207 C 0.51237 0.50784 0.00915 0.0
C208 C 0.50354 0.47162 0.97566 0.0
C209 C 0.50319 0.49907 0.90708 0.0
C210 C 0.47622 0.46187 0.9654 0.0
C211 C 0.47165 0.43812 0.96829 0.0
C212 C 0.49434 0.42375 0.9816 0.0
C213 C 0.52187 0.43361 -0.00884 0.0
C214 C 0.52635 0.4573 0.98837 0.0
H215 H 0.50997 0.5108 0.88481 0.0
H216 H 0.51641 0.48298 0.90515 0.0
H217 H 0.47938 0.49458 0.90317 0.0
H218 H 0.45815 0.47269 0.9561 0.0
H219 H 0.45017 0.43112 0.96076 0.0
H220 H 0.54644 0.39006 0.54567 0.0
H221 H 0.5404 0.43181 0.55129 0.0
H222 H 0.44964 0.4261 0.51437 0.0
H223 H 0.45535 0.3846 0.50856 0.0
H224 H 0.4854 0.45842 0.47597 0.0
H225 H 0.49113 0.47075 0.62505 0.0
H226 H 0.52033 0.4537 0.60526 0.0
H227 H 0.48271 0.44329 0.60456 0.0
C228 C 0.52509 0.39765 0.53917 0.0
C229 C 0.50143 0.38394 0.52653 0.0
C230 C 0.52164 0.42149 0.54257 0.0
C231 C 0.4945 0.43197 0.53349 0.0
C232 C 0.47073 0.41831 0.52162 0.0
H233 H 0.4331 0.57351 0.55098 0.0
H234 H 0.43875 0.53168 0.55598 0.0
C235 C 0.47409 0.39456 0.51831 0.0
C236 C 0.49133 0.45731 0.53375 0.0
H237 H 0.49023 0.50447 0.58887 0.0
C238 C 0.48642 0.46849 0.50065 0.0
C239 C 0.49244 0.47032 0.56604 0.0
C240 C 0.49671 0.45898 0.60236 0.0
C241 C 0.48295 0.49242 0.4989 0.0
C242 C 0.48462 0.50548 0.53106 0.0
C243 C 0.48912 0.49433 0.56428 0.0
C244 C 0.48203 0.53082 0.53034 0.0
C245 C 0.4773 0.50359 0.4627 0.0
C246 C 0.50473 0.54409 0.51481 0.0
C247 C 0.50165 0.5679 0.51196 0.0
C248 C 0.47572 0.57893 0.52453 0.0
C249 C 0.45328 0.56558 0.54088 0.0
C250 C 0.45648 0.54171 0.54387 0.0
H251 H 0.47106 0.49082 0.44166 0.0
H252 H 0.45928 0.5166 0.46489 0.0
H253 H 0.49781 0.51257 0.45365 0.0
H254 H 0.52469 0.53595 0.50445 0.0
H255 H 0.51944 0.5776 0.49934 0.0
H256 H 0.0623 0.1839 0.13494 0.0
H257 H 0.03804 0.18391 0.19399 0.0
H258 H 0.96173 0.2183 0.14842 0.0
H259 H 0.98601 0.21856 0.08887 0.0
H260 H 0.98176 0.23472 0.21987 0.0
H261 H 0.9655 0.14035 0.21213 0.0
H262 H 0.00313 0.14919 0.20328 0.0
H263 H 0.97387 0.15774 0.17293 0.0
C264 C 0.04049 0.19169 0.13747 0.0
C265 C 0.02588 0.20098 0.10723 0.0
C266 C 0.02666 0.19163 0.17118 0.0
C267 C -0.00203 0.20072 0.1752 0.0
C268 C 0.98385 0.21109 0.14559 0.0
H269 H 0.90751 0.15927 0.37359 0.0
H270 H 0.91461 0.16987 0.31013 0.0
C271 C -0.00227 0.21121 0.11171 0.0
C272 C 0.98251 0.19823 0.21014 0.0
H273 H 0.96103 0.15738 0.27075 0.0
C274 C 0.97672 0.21788 0.23092 0.0
C275 C 0.97539 0.17625 0.22394 0.0
C276 C 0.97949 0.15467 0.20179 0.0
C277 C 0.96568 0.21598 0.26632 0.0
C278 C 0.96091 0.19386 0.28119 0.0
C279 C 0.96495 0.17433 0.25946 0.0
C280 C 0.95416 0.19024 0.31991 0.0
C281 C 0.95966 0.23763 0.28756 0.0
C282 C 0.97397 0.19828 0.3464 0.0
C283 C 0.9699 0.19234 0.38262 0.0
C284 C 0.94623 0.17795 0.39286 0.0
C285 C 0.92606 0.17029 0.36643 0.0
C286 C 0.92999 0.1764 0.33023 0.0
H287 H 0.95412 0.2522 0.26931 0.0
H288 H 0.94108 0.2352 0.30704 0.0
H289 H 0.97996 0.24243 0.30291 0.0
H290 H 0.99326 0.20841 0.33892 0.0
H291 H 0.98586 0.19843 0.40241 0.0
H292 H 0.01246 0.76482 0.40117 0.0
H293 H 0.005 0.75637 0.33688 0.0
H294 H 0.0571 0.81614 0.30868 0.0
H295 H 0.06545 0.82417 0.37244 0.0
H296 H 0.97593 0.78196 0.2914 0.0
H297 H 0.08899 0.77152 0.23675 0.0
H298 H 0.0815 0.77053 0.28475 0.0
H299 H 0.08758 0.79767 0.26223 0.0
C300 C 0.02274 0.77589 0.38117 0.0
C301 C 0.03945 0.79519 0.39174 0.0
C302 C 0.01856 0.77099 0.34452 0.0
C303 C 0.03099 0.78534 0.31796 0.0
C304 C 0.04814 0.80435 0.3286 0.0
H305 H 0.9632 0.84379 0.13301 0.0
H306 H 0.97535 0.82793 0.19215 0.0
C307 C 0.05259 0.80911 0.36512 0.0
C308 C 0.02297 0.78254 0.27941 0.0
H309 H 0.05223 0.78826 0.19479 0.0
C310 C 0.99265 0.78267 0.27023 0.0
C311 C 0.04466 0.78283 0.25164 0.0
C312 C 0.07747 0.78034 0.25945 0.0
C313 C 0.98353 0.78543 0.2343 0.0
C314 C 0.0053 0.78878 0.20717 0.0
C315 C 0.03554 0.78628 0.2158 0.0
C316 C -0.00268 0.79761 0.17101 0.0
C317 C 0.95063 0.78563 0.22599 0.0
C318 C 0.00664 0.78625 0.13951 0.0
C319 C 0.0001 0.7955 0.10554 0.0
C320 C 0.98425 0.81628 0.1027 0.0
C321 C 0.97522 0.82767 0.13432 0.0
C322 C 0.98189 0.8185 0.16814 0.0
H323 H 0.93816 0.77456 0.24527 0.0
H324 H 0.94201 0.80342 0.22892 0.0
H325 H 0.94608 0.77962 0.19802 0.0
H326 H 0.01892 0.77026 0.14124 0.0
H327 H 0.00736 0.78637 0.08156 0.0
H328 H 0.94201 0.79873 0.5997 0.0
H329 H 0.94075 0.79324 0.66557 0.0
H330 H 0.0236 0.75593 0.66032 0.0
H331 H 0.02527 0.7617 0.5949 0.0
H332 H 0.95195 0.75327 0.72044 0.0
H333 H 0.0391 0.82122 0.70944 0.0
H334 H 0.0141 0.81456 0.67271 0.0
H335 H 0.04458 0.79568 0.68285 0.0
C336 C 0.95925 0.78856 0.61248 0.0
C337 C 0.98398 0.78095 0.59259 0.0
C338 C 0.95852 0.78543 0.65 0.0
C339 C 0.98233 0.77448 0.66756 0.0
C340 C 0.00518 0.76453 0.6471 0.0
H341 H 0.04402 0.79847 0.88789 0.0
H342 H 0.04033 0.78318 0.82627 0.0
C343 C 0.00612 0.76789 0.60985 0.0
C344 C 0.98643 0.77746 0.70678 0.0
H345 H 0.02646 0.80878 0.76767 0.0
C346 C 0.96831 0.76526 0.73094 0.0
C347 C 0.00791 0.7931 0.72009 0.0
C348 C 0.02746 0.80706 0.69505 0.0
C349 C 0.97105 0.76846 0.76844 0.0
C350 C 0.99202 0.78459 0.78168 0.0
C351 C 0.01056 0.79633 0.75741 0.0
C352 C 0.99352 0.79123 0.82019 0.0
C353 C 0.95155 0.75458 0.79349 0.0
C354 C 0.96852 0.80095 0.8369 0.0
C355 C 0.97056 0.8097 0.87187 0.0
C356 C -0.00223 0.80915 0.89071 0.0
C357 C 0.02279 0.79922 0.87404 0.0
C358 C 0.02067 0.79037 0.83898 0.0
H359 H 0.9445 0.73817 0.78068 0.0
H360 H 0.96317 0.75065 0.81927 0.0
H361 H 0.93115 0.76457 0.79983 0.0
H362 H 0.94761 0.80243 0.82248 0.0
H363 H 0.95084 0.81726 0.88386 0.0
H364 H 0.05368 0.22074 0.89036 0.0
H365 H 0.05369 0.22469 0.82456 0.0
H366 H 0.96118 0.20494 0.82141 0.0
H367 H 0.96082 0.20103 0.88745 0.0
H368 H 0.00852 0.17607 0.78228 0.0
H369 H 0.00877 0.26956 0.74906 0.0
H370 H 0.03126 0.25955 0.78628 0.0
H371 H 0.99148 0.25848 0.78969 0.0
C372 C 0.03313 0.21773 0.87577 0.0
C373 C 0.0073 0.21031 0.89396 0.0
C374 C 0.03317 0.22015 0.83825 0.0
C375 C 0.00744 0.21517 0.81842 0.0
C376 C 0.98116 0.20902 0.83654 0.0
H377 H 0.95659 0.20252 0.60002 0.0
H378 H 0.96439 0.21441 0.66255 0.0
C379 C 0.981 0.20679 0.87417 0.0
C380 C 0.00923 0.21299 0.77884 0.0
H381 H 0.01302 0.2435 0.70015 0.0
C382 C 0.00964 0.19077 0.76426 0.0
C383 C 0.01095 0.23229 0.7558 0.0
C384 C 0.0105 0.2564 0.77075 0.0
C385 C 0.01121 0.18727 0.72688 0.0
C386 C 0.01254 0.20655 0.70368 0.0
C387 C 0.01244 0.22883 0.71824 0.0
C388 C 0.0104 0.20356 0.66424 0.0
C389 C 0.01045 0.16303 0.71229 0.0
C390 C 0.03412 0.19422 0.64434 0.0
C391 C 0.02978 0.18742 0.60841 0.0
C392 C 0.00157 0.18965 0.59238 0.0
C393 C 0.97847 0.2003 0.61187 0.0
C394 C 0.98291 0.20728 0.64746 0.0
H395 H 0.00641 0.15009 0.73387 0.0
H396 H 0.99274 0.16133 0.69149 0.0
H397 H 0.03206 0.15904 0.69911 0.0
H398 H 0.05548 0.19123 0.65711 0.0
H399 H 0.04794 0.17931 0.59394 0.0
H400 H 0.48203 0.71851 0.10355 0.0
H401 H 0.46238 0.71636 0.16543 0.0
H402 H 0.54386 0.68417 0.20082 0.0
H403 H 0.5633 0.6858 0.1393 0.0
H404 H 0.49358 0.65987 0.21927 0.0
H405 H 0.48305 0.75191 0.25815 0.0
H406 H 0.46545 0.74388 0.21633 0.0
H407 H 0.50527 0.74256 0.22017 0.0
C408 C 0.49588 0.71133 0.1247 0.0
C409 C 0.5241 0.7022 0.11666 0.0
C410 C 0.48469 0.71019 0.16 0.0
C411 C 0.50177 0.70021 0.18764 0.0
C412 C 0.53035 0.6919 0.17981 0.0
H413 H 0.48803 0.69408 0.41801 0.0
H414 H 0.49865 0.70331 0.35476 0.0
C415 C 0.5414 0.69285 0.14466 0.0
C416 C 0.48935 0.69662 0.2242 0.0
H417 H 0.46546 0.72437 0.30018 0.0
C418 C 0.48729 0.67396 0.23695 0.0
C419 C 0.48134 0.71507 0.24707 0.0
C420 C 0.48405 0.73976 0.23498 0.0
C421 C 0.47808 0.6692 0.27233 0.0
C422 C 0.46995 0.68763 0.29525 0.0
C423 C 0.4715 0.71031 0.28234 0.0
C424 C 0.46167 0.68367 0.3334 0.0
C425 C 0.47828 0.64456 0.28525 0.0
C426 C 0.43699 0.66999 0.34225 0.0
C427 C 0.43108 0.66445 0.37829 0.0
C428 C 0.44955 0.67279 0.40603 0.0
C429 C 0.4735 0.68731 0.39718 0.0
C430 C 0.47952 0.69268 0.36111 0.0
H431 H 0.49168 0.6333 0.26723 0.0
H432 H 0.48738 0.64332 0.31311 0.0
H433 H 0.45514 0.63788 0.28559 0.0
H434 H 0.42263 0.66325 0.32123 0.0
H435 H 0.41225 0.65346 0.38437 0.0
H436 H 0.56233 0.31932 0.37923 0.0
H437 H 0.54606 0.32104 0.31635 0.0
H438 H 0.46466 0.28595 0.34459 0.0
H439 H 0.48108 0.28377 0.40789 0.0
H440 H 0.49076 0.2716 0.27735 0.0
H441 H 0.47954 0.36629 0.28771 0.0
H442 H 0.51569 0.3561 0.30078 0.0
H443 H 0.48351 0.34801 0.32688 0.0
C444 C 0.54109 0.31175 0.37206 0.0
C445 C 0.52276 0.30168 0.39849 0.0
C446 C 0.53182 0.3128 0.33617 0.0
C447 C 0.50393 0.30407 0.32615 0.0
C448 C 0.48619 0.29291 0.35201 0.0
H449 H 0.42586 0.35128 0.12442 0.0
H450 H 0.43265 0.34014 0.18759 0.0
C451 C 0.49558 0.29169 0.38805 0.0
C452 C 0.49292 0.30783 0.28903 0.0
H453 H 0.47887 0.35047 0.22823 0.0
C454 C 0.48781 0.28879 0.26658 0.0
C455 C 0.48853 0.33029 0.27545 0.0
C456 C 0.4918 0.35134 0.29905 0.0
C457 C 0.47961 0.29171 0.23022 0.0
C458 C 0.47711 0.31424 0.21605 0.0
C459 C 0.48108 0.3332 0.23902 0.0
C460 C 0.47125 0.31882 0.17735 0.0
C461 C 0.47365 0.27069 0.20744 0.0
C462 C 0.49067 0.31047 0.15063 0.0
C463 C 0.48669 0.31665 0.11445 0.0
C464 C 0.46355 0.33164 0.10456 0.0
C465 C 0.444 0.33981 0.1313 0.0
C466 C 0.44778 0.3334 0.16735 0.0
H467 H 0.467 0.25579 0.22445 0.0
H468 H 0.45586 0.27396 0.18723 0.0
H469 H 0.4943 0.26589 0.19277 0.0
H470 H 0.50944 0.29972 0.15786 0.0
H471 H 0.50217 0.3102 0.09439 0.0
H472 H 0.54605 0.29916 0.90609 0.0
H473 H 0.5479 0.27999 0.84693 0.0
H474 H 0.46 0.30547 0.82238 0.0
H475 H 0.45765 0.32411 0.88113 0.0
H476 H 0.46787 0.25947 0.80283 0.0
H477 H 0.55991 0.31547 0.75267 0.0
H478 H 0.56706 0.29927 0.79313 0.0
H479 H 0.53979 0.32184 0.79369 0.0
C480 C 0.52717 0.30067 0.88802 0.0
C481 C 0.50183 0.31332 0.89818 0.0
C482 C 0.52825 0.2897 0.85432 0.0
C483 C 0.50414 0.29147 0.83028 0.0
C484 C 0.47876 0.3038 0.84064 0.0
H485 H 0.44638 0.2874 0.61721 0.0
H486 H 0.44955 0.28103 0.68252 0.0
C487 C 0.47757 0.31459 0.87419 0.0
C488 C 0.50544 0.28178 0.79337 0.0
H489 H 0.53718 0.29108 0.71099 0.0
C490 C 0.48336 0.26603 0.78278 0.0
C491 C 0.52571 0.29035 0.76741 0.0
C492 C 0.54937 0.30777 0.77704 0.0
C493 C 0.48013 0.25944 0.74646 0.0
C494 C 0.4993 0.26907 0.72024 0.0
C495 C 0.52251 0.28369 0.73122 0.0
C496 C 0.49404 0.26663 0.68093 0.0
C497 C 0.45581 0.24274 0.7364 0.0
C498 C 0.51754 0.25995 0.6583 0.0
C499 C 0.51593 0.26393 0.6212 0.0
C500 C 0.49071 0.27455 0.60611 0.0
C501 C 0.46598 0.27908 0.62818 0.0
C502 C 0.46774 0.27533 0.6655 0.0
H503 H 0.45031 0.2312 0.75941 0.0
H504 H 0.43538 0.25249 0.72936 0.0
H505 H 0.46227 0.2321 0.71272 0.0
H506 H 0.53801 0.25323 0.66967 0.0
H507 H 0.53522 0.26008 0.60464 0.0
H508 H 0.54779 0.73524 0.90227 0.0
H509 H 0.54864 0.74076 0.83685 0.0
H510 H 0.45665 0.71968 0.83068 0.0
H511 H 0.45547 0.7145 0.8963 0.0
H512 H 0.5406 0.7032 0.79513 0.0
H513 H 0.45994 0.77024 0.75483 0.0
H514 H 0.47433 0.76795 0.80035 0.0
H515 H 0.44401 0.74992 0.78581 0.0
C516 C 0.52747 0.73243 0.88711 0.0
C517 C 0.50165 0.72411 0.90427 0.0
C518 C 0.52799 0.73569 0.84976 0.0
C519 C 0.50273 0.7307 0.82894 0.0
C520 C 0.47624 0.72408 0.84632 0.0
H521 H 0.44984 0.67957 0.62909 0.0
H522 H 0.45692 0.69673 0.68842 0.0
C523 C 0.47562 0.72098 0.88381 0.0
C524 C 0.50557 0.72823 0.78929 0.0
H525 H 0.47168 0.74152 0.70949 0.0
C526 C 0.52605 0.71199 0.77622 0.0
C527 C 0.48654 0.73969 0.76483 0.0
C528 C 0.46518 0.7581 0.77714 0.0
C529 C 0.52657 0.70566 0.73968 0.0
C530 C 0.5064 0.71622 0.71551 0.0
C531 C 0.48709 0.73344 0.72817 0.0
C532 C 0.5023 0.70747 0.67833 0.0
C533 C 0.54723 0.68662 0.7278 0.0
C534 C 0.5255 0.70798 0.65286 0.0
C535 C 0.52167 0.69786 0.61882 0.0
C536 C 0.49446 0.68734 0.60976 0.0
C537 C 0.47113 0.68742 0.63516 0.0
C538 C 0.47505 0.69737 0.66906 0.0
H539 H 0.55765 0.67764 0.75112 0.0
H540 H 0.53507 0.67374 0.71125 0.0
H541 H 0.56531 0.69396 0.7109 0.0
H542 H 0.54659 0.71599 0.65942 0.0
H543 H 0.53993 0.6983 0.59968 0.0
H544 H 0.33526 0.3509 -0.00508 0.0
H545 H 0.28739 0.33055 -0.00832 0.0
H546 H 0.33051 0.27313 0.93971 0.0
H547 H 0.37819 0.29321 0.94275 0.0
H548 H 0.27268 0.28656 0.9098 0.0
H549 H 0.27336 0.2731 0.05894 0.0
H550 H 0.27797 0.30224 0.04357 0.0
H551 H 0.30628 0.28133 0.03403 0.0
C552 C 0.3344 0.33411 0.98227 0.0
C553 C 0.36047 0.32354 0.96941 0.0
C554 C 0.30714 0.32249 0.98061 0.0
C555 C 0.30564 0.30026 0.96591 0.0
C556 C 0.33131 0.29024 0.95127 0.0
H557 H 0.17307 0.19369 0.00064 0.0
H558 H 0.21974 0.21518 -0.00698 0.0
C559 C 0.35851 0.30173 0.95312 0.0
C560 C 0.27786 0.28671 0.96769 0.0
H561 H 0.23178 0.25904 0.02684 0.0
C562 C 0.2636 0.28059 0.93533 0.0
C563 C 0.26658 0.27863 0.00107 0.0
C564 C 0.28187 0.28395 0.03645 0.0
C565 C 0.23792 0.26682 0.93555 0.0
C566 C 0.22631 0.25915 0.96899 0.0
C567 C 0.24081 0.26502 0.00129 0.0
C568 C 0.19855 0.24559 0.97125 0.0
C569 C 0.22362 0.26033 0.90007 0.0
C570 C 0.17138 0.25564 0.96153 0.0
C571 C 0.14483 0.24353 0.966 0.0
C572 C 0.14497 0.22112 0.98032 0.0
C573 C 0.1723 0.2109 0.98946 0.0
C574 C 0.19891 0.22313 0.98517 0.0
H575 H 0.23897 0.263 0.87686 0.0
H576 H 0.21636 0.24207 0.90038 0.0
H577 H 0.20361 0.27119 0.89572 0.0
H578 H 0.17065 0.27309 0.95128 0.0
H579 H 0.12414 0.25189 0.9587 0.0
H580 H 0.66723 0.69717 0.00702 0.0
H581 H 0.71509 0.71746 0.00332 0.0
H582 H 0.66944 0.77984 0.9735 0.0
H583 H 0.62168 0.75985 0.97715 0.0
H584 H 0.72213 0.76766 0.93012 0.0
H585 H 0.74125 0.76803 0.0789 0.0
H586 H 0.73219 0.7407 0.05889 0.0
H587 H 0.70494 0.76326 0.05923 0.0
C588 C 0.66743 0.71517 -0.00051 0.0
C589 C 0.64072 0.72695 -0.00741 0.0
C590 C 0.69471 0.72673 -0.00246 0.0
C591 C 0.69562 0.75016 0.98853 0.0
C592 C 0.6691 0.76177 0.98064 0.0
H593 H 0.84395 0.84551 0.01623 0.0
H594 H 0.79394 0.82841 0.01398 0.0
C595 C 0.64187 0.75031 0.98281 0.0
C596 C 0.72415 0.76278 0.9878 0.0
H597 H 0.77998 0.78263 0.04206 0.0
C598 C 0.73481 0.77098 0.95454 0.0
C599 C 0.74026 0.76733 0.01984 0.0
C600 C 0.72909 0.75956 0.05636 0.0
C601 C 0.76168 0.78323 0.95239 0.0
C602 C 0.77819 0.78725 0.98432 0.0
C603 C 0.76719 0.77948 0.01767 0.0
C604 C 0.80769 0.79847 0.9835 0.0
C605 C 0.77221 0.79184 0.91607 0.0
C606 C 0.83175 0.78726 0.96707 0.0
C607 C 0.86018 0.79685 0.96849 0.0
C608 C 0.86507 0.81787 0.98637 0.0
C609 C 0.8408 0.82936 0.00215 0.0
C610 C 0.81231 0.81961 0.00096 0.0
H611 H 0.7539 0.79215 0.89587 0.0
H612 H 0.78174 0.8094 0.91845 0.0
H613 H 0.78995 0.78028 0.90577 0.0
H614 H 0.82866 0.77078 0.95393 0.0
H615 H 0.87843 0.78758 0.95605 0.0
H616 H 0.16127 0.81167 0.51806 0.0
H617 H 0.20818 0.79089 0.52769 0.0
H618 H 0.15969 0.73401 0.57391 0.0
H619 H 0.11288 0.75452 0.56443 0.0
H620 H 0.21641 0.74743 0.6105 0.0
H621 H 0.22443 0.73245 0.46197 0.0
H622 H 0.21917 0.76173 0.47638 0.0
H623 H 0.19016 0.74101 0.48371 0.0
C624 C 0.16069 0.79492 0.53087 0.0
C625 C 0.13343 0.7846 0.54012 0.0
C626 C 0.18743 0.78308 0.53624 0.0
C627 C 0.1872 0.76087 0.55111 0.0
C628 C 0.16022 0.75112 0.56232 0.0
H629 H 0.32102 0.65457 0.52536 0.0
H630 H 0.27365 0.67506 0.53258 0.0
C631 C 0.13353 0.76284 0.55676 0.0
C632 C 0.21464 0.74694 0.5523 0.0
H633 H 0.26359 0.71829 0.49803 0.0
C634 C 0.22684 0.74107 0.58599 0.0
C635 C 0.2277 0.73838 0.52022 0.0
C636 C 0.21468 0.7435 0.48345 0.0
C637 C 0.25228 0.72712 0.58836 0.0
C638 C 0.26568 0.71896 0.55621 0.0
C639 C 0.25317 0.72457 0.5226 0.0
C640 C 0.29348 0.70539 0.55647 0.0
C641 C 0.26448 0.72101 0.62513 0.0
C642 C 0.32011 0.7156 0.56795 0.0
C643 C 0.34709 0.70403 0.56372 0.0
C644 C 0.34791 0.68206 0.54786 0.0
C645 C 0.32105 0.67145 0.53776 0.0
C646 C 0.29403 0.68312 0.5418 0.0
H647 H 0.24775 0.7238 0.64685 0.0
H648 H 0.27185 0.70279 0.62588 0.0
H649 H 0.28408 0.73202 0.631 0.0
H650 H 0.32018 0.73291 0.57878 0.0
H651 H 0.36741 0.71265 0.57182 0.0
H652 H 0.61475 0.2499 0.55374 0.0
H653 H 0.66326 0.23192 0.56263 0.0
H654 H 0.70676 0.29471 0.53 0.0
H655 H 0.65804 0.31299 0.52098 0.0
H656 H 0.72418 0.25395 0.49156 0.0
H657 H 0.72872 0.24178 0.64046 0.0
H658 H 0.69453 0.2326 0.61971 0.0
H659 H 0.70448 0.26253 0.61907 0.0
C660 C 0.63462 0.26002 0.54888 0.0
C661 C 0.63263 0.28283 0.53649 0.0
C662 C 0.6623 0.24976 0.55427 0.0
C663 C 0.6885 0.26208 0.54737 0.0
C664 C 0.68669 0.28502 0.53574 0.0
H665 H 0.87137 0.21569 0.56483 0.0
H666 H 0.82447 0.23651 0.5724 0.0
C667 C 0.65892 0.29541 0.53061 0.0
C668 C 0.7175 0.25018 0.54895 0.0
H669 H 0.76389 0.22049 0.60529 0.0
C670 C 0.73303 0.24682 0.51646 0.0
C671 C 0.72888 0.24094 0.58152 0.0
C672 C 0.71347 0.24478 0.61727 0.0
C673 C 0.75931 0.23387 0.5155 0.0
C674 C 0.77013 0.22398 0.54782 0.0
C675 C 0.75515 0.22787 0.58053 0.0
C676 C 0.79749 0.20998 0.54785 0.0
C677 C 0.77534 0.23072 0.47994 0.0
C678 C 0.79749 0.1879 0.53257 0.0
C679 C 0.82421 0.17588 0.52836 0.0
C680 C 0.85126 0.18592 0.53912 0.0
C681 C 0.85088 0.20757 0.55608 0.0
C682 C 0.82416 0.21948 0.56052 0.0
H683 H 0.7665 0.24226 0.45852 0.0
H684 H 0.79953 0.23409 0.48327 0.0
H685 H 0.7727 0.21267 0.47075 0.0
H686 H 0.77696 0.18035 0.52277 0.0
H687 H 0.82383 0.15924 0.51519 0.0
loop_
_geom_bond_atom_site_label_1
_geom_bond_atom_site_label_2
_geom_bond_distance
_geom_bond_site_symmetry_2
_ccdc_geom_bond_type
C0 O1 1.335 . S
C0 O3 1.160 . S
O1 C0 1.335 . S
O1 Cd2 2.214 1_456 S
Cd2 O1 2.214 1_654 S
Cd2 O6 2.273 1_655 S
Cd2 O10 2.277 1_655 S
O3 C0 1.160 . S
O3 Cd4 2.203 1_556 S
Cd4 O3 2.203 1_554 S
Cd4 O6 2.411 . S
Cd4 O7 2.333 . S
Cd4 O8 2.352 . S
Cd4 O12 2.277 . S
Cd4 O13 2.356 . S
C5 O10 1.209 . S
C5 O12 1.226 . S
O6 Cd2 2.273 1_455 S
O6 Cd4 2.411 . S
O6 C9 1.320 . S
O7 Cd4 2.333 . S
O7 C9 1.214 . S
O8 Cd4 2.352 . S
O8 C11 1.258 . S
C9 O6 1.320 . S
C9 O7 1.214 . S
O10 Cd2 2.277 1_455 S
O10 C5 1.209 . S
C11 O8 1.258 . S
C11 O13 1.282 . S
O12 Cd4 2.277 . S
O12 C5 1.226 . S
O13 Cd4 2.356 . S
O13 C11 1.282 . S
C14 O15 1.335 . S
C14 O17 1.160 . S
O15 C14 1.335 . S
O15 Cd16 2.214 1_656 S
Cd16 O15 2.214 1_454 S
Cd16 O20 2.273 1_455 S
Cd16 O24 2.277 1_455 S
O17 C14 1.160 . S
O17 Cd18 2.203 1_556 S
Cd18 O17 2.203 1_554 S
Cd18 O20 2.411 . S
Cd18 O21 2.333 . S
Cd18 O22 2.352 . S
Cd18 O26 2.277 . S
Cd18 O27 2.356 . S
C19 O24 1.209 . S
C19 O26 1.226 . S
O20 Cd16 2.273 1_655 S
O20 Cd18 2.411 . S
O20 C23 1.320 . S
O21 Cd18 2.333 . S
O21 C23 1.214 . S
O22 Cd18 2.352 . S
O22 C25 1.258 . S
C23 O20 1.320 . S
C23 O21 1.214 . S
O24 Cd16 2.277 1_655 S
O24 C19 1.209 . S
C25 O22 1.258 . S
C25 O27 1.282 . S
O26 Cd18 2.277 . S
O26 C19 1.226 . S
O27 Cd18 2.356 . S
O27 C25 1.282 . S
C28 O29 1.335 . S
C28 O31 1.160 . S
O29 C28 1.335 . S
O29 Cd30 2.214 1_455 S
Cd30 O29 2.214 1_655 S
Cd30 O34 2.273 1_655 S
Cd30 O38 2.277 1_655 S
O31 C28 1.160 . S
O31 Cd32 2.203 . S
Cd32 O31 2.203 . S
Cd32 O34 2.411 . S
Cd32 O35 2.333 . S
Cd32 O36 2.352 . S
Cd32 O40 2.277 . S
Cd32 O41 2.356 . S
C33 O38 1.209 . S
C33 O40 1.226 . S
O34 Cd30 2.273 1_455 S
O34 Cd32 2.411 . S
O34 C37 1.320 . S
O35 Cd32 2.333 . S
O35 C37 1.214 . S
O36 Cd32 2.352 . S
O36 C39 1.258 . S
C37 O34 1.320 . S
C37 O35 1.214 . S
O38 Cd30 2.277 1_455 S
O38 C33 1.209 . S
C39 O36 1.258 . S
C39 O41 1.282 . S
O40 Cd32 2.277 . S
O40 C33 1.226 . S
O41 Cd32 2.356 . S
O41 C39 1.282 . S
C42 O43 1.335 . S
C42 O45 1.160 . S
O43 C42 1.335 . S
O43 Cd44 2.214 1_655 S
Cd44 O43 2.214 1_455 S
Cd44 O48 2.273 1_455 S
Cd44 O52 2.277 1_455 S
O45 C42 1.160 . S
O45 Cd46 2.203 . S
Cd46 O45 2.203 . S
Cd46 O48 2.411 . S
Cd46 O49 2.333 . S
Cd46 O50 2.352 . S
Cd46 O54 2.277 . S
Cd46 O55 2.356 . S
C47 O52 1.209 . S
C47 O54 1.226 . S
O48 Cd44 2.273 1_655 S
O48 Cd46 2.411 . S
O48 C51 1.320 . S
O49 Cd46 2.333 . S
O49 C51 1.214 . S
O50 Cd46 2.352 . S
O50 C53 1.258 . S
C51 O48 1.320 . S
C51 O49 1.214 . S
O52 Cd44 2.277 1_655 S
O52 C47 1.209 . S
C53 O50 1.258 . S
C53 O55 1.282 . S
O54 Cd46 2.277 . S
O54 C47 1.226 . S
O55 Cd46 2.356 . S
O55 C53 1.282 . S
C56 O57 1.306 . S
C56 O59 1.160 . S
O57 C56 1.306 . S
O57 Cd58 2.228 1_556 S
Cd58 O57 2.228 1_554 S
Cd58 O62 2.273 . S
Cd58 O66 2.277 . S
O59 C56 1.160 . S
O59 Cd60 2.203 1_556 S
Cd60 O59 2.203 1_554 S
Cd60 O62 2.411 . S
Cd60 O63 2.333 . S
Cd60 O64 2.352 . S
Cd60 O68 2.277 . S
Cd60 O69 2.356 . S
C61 O66 1.209 . S
C61 O68 1.226 . S
O62 Cd58 2.273 . S
O62 Cd60 2.411 . S
O62 C65 1.320 . S
O63 Cd60 2.333 . S
O63 C65 1.214 . S
O64 Cd60 2.352 . S
O64 C67 1.258 . S
C65 O62 1.320 . S
C65 O63 1.214 . S
O66 Cd58 2.277 . S
O66 C61 1.209 . S
C67 O64 1.258 . S
C67 O69 1.282 . S
O68 Cd60 2.277 . S
O68 C61 1.226 . S
O69 Cd60 2.356 . S
O69 C67 1.282 . S
C70 O71 1.306 . S
C70 O73 1.160 . S
O71 C70 1.306 . S
O71 Cd72 2.228 1_556 S
Cd72 O71 2.228 1_554 S
Cd72 O76 2.273 . S
Cd72 O80 2.277 . S
O73 C70 1.160 . S
O73 Cd74 2.203 1_556 S
Cd74 O73 2.203 1_554 S
Cd74 O76 2.411 . S
Cd74 O77 2.333 . S
Cd74 O78 2.352 . S
Cd74 O82 2.277 . S
Cd74 O83 2.356 . S
C75 O80 1.209 . S
C75 O82 1.226 . S
O76 Cd72 2.273 . S
O76 Cd74 2.411 . S
O76 C79 1.320 . S
O77 Cd74 2.333 . S
O77 C79 1.214 . S
O78 Cd74 2.352 . S
O78 C81 1.258 . S
C79 O76 1.320 . S
C79 O77 1.214 . S
O80 Cd72 2.277 . S
O80 C75 1.209 . S
C81 O78 1.258 . S
C81 O83 1.282 . S
O82 Cd74 2.277 . S
O82 C75 1.226 . S
O83 Cd74 2.356 . S
O83 C81 1.282 . S
C84 O85 1.306 . S
C84 O87 1.160 . S
O85 C84 1.306 . S
O85 Cd86 2.228 . S
Cd86 O85 2.228 . S
Cd86 O90 2.273 . S
Cd86 O94 2.277 . S
O87 C84 1.160 . S
O87 Cd88 2.203 . S
Cd88 O87 2.203 . S
Cd88 O90 2.411 . S
Cd88 O91 2.333 . S
Cd88 O92 2.352 . S
Cd88 O96 2.277 . S
Cd88 O97 2.356 . S
C89 O94 1.209 . S
C89 O96 1.226 . S
O90 Cd86 2.273 . S
O90 Cd88 2.411 . S
O90 C93 1.320 . S
O91 Cd88 2.333 . S
O91 C93 1.214 . S
O92 Cd88 2.352 . S
O92 C95 1.258 . S
C93 O90 1.320 . S
C93 O91 1.214 . S
O94 Cd86 2.277 . S
O94 C89 1.209 . S
C95 O92 1.258 . S
C95 O97 1.282 . S
O96 Cd88 2.277 . S
O96 C89 1.226 . S
O97 Cd88 2.356 . S
O97 C95 1.282 . S
C98 O99 1.306 . S
C98 O101 1.160 . S
O99 C98 1.306 . S
O99 Cd100 2.228 . S
Cd100 O99 2.228 . S
Cd100 O104 2.273 . S
Cd100 O108 2.277 . S
O101 C98 1.160 . S
O101 Cd102 2.203 . S
Cd102 O101 2.203 . S
Cd102 O104 2.411 . S
Cd102 O105 2.333 . S
Cd102 O106 2.352 . S
Cd102 O110 2.277 . S
Cd102 O111 2.356 . S
C103 O108 1.209 . S
C103 O110 1.226 . S
O104 Cd100 2.273 . S
O104 Cd102 2.411 . S
O104 C107 1.320 . S
O105 Cd102 2.333 . S
O105 C107 1.214 . S
O106 Cd102 2.352 . S
O106 C109 1.258 . S
C107 O104 1.320 . S
C107 O105 1.214 . S
O108 Cd100 2.277 . S
O108 C103 1.209 . S
C109 O106 1.258 . S
C109 O111 1.282 . S
O110 Cd102 2.277 . S
O110 C103 1.226 . S
O111 Cd102 2.356 . S
O111 C109 1.282 . S
H112 C120 0.929 . S
H113 C122 0.930 . S
H114 C124 0.930 . S
H115 C127 0.929 1_455 S
H116 C130 0.930 . S
H117 C132 0.960 . S
H118 C132 0.960 1_655 S
H119 C132 0.960 . S
C120 H112 0.929 . S
C120 C121 1.377 . S
C120 C122 1.384 . S
C121 C120 1.377 . S
C121 C127 1.390 . S
C122 H113 0.930 . S
C122 C120 1.384 . S
C122 C123 1.372 . S
C123 C122 1.372 . S
C123 C124 1.400 1_655 S
C123 C128 1.490 . S
C124 H114 0.930 . S
C124 C123 1.400 1_455 S
C124 C127 1.386 1_455 S
H125 C141 0.930 . S
H126 C142 0.931 . S
C127 H115 0.929 1_655 S
C127 C121 1.390 . S
C127 C124 1.386 1_655 S
C128 C123 1.490 . S
C128 C130 1.395 . S
C128 C131 1.403 1_654 S
H129 C135 0.930 . S
C130 H116 0.930 . S
C130 C128 1.395 . S
C130 C133 1.403 1_565 S
C131 C128 1.403 1_456 S
C131 C132 1.524 . S
C131 C135 1.400 1_565 S
C132 H117 0.960 . S
C132 H118 0.960 1_455 S
C132 H119 0.960 . S
C132 C131 1.524 . S
C133 C130 1.403 1_545 S
C133 C134 1.392 1_655 S
C133 C137 1.495 . S
C134 C133 1.392 1_455 S
C134 C135 1.385 1_554 S
C134 C136 1.478 . S
C135 H129 0.930 . S
C135 C131 1.400 1_545 S
C135 C134 1.385 1_556 S
C136 C134 1.478 . S
C136 C138 1.381 1_455 S
C136 C142 1.383 . S
C137 C133 1.495 . S
C137 H143 0.959 . S
C137 H144 0.961 . S
C137 H145 0.960 . S
C138 C136 1.381 1_655 S
C138 C139 1.392 1_655 S
C138 H146 0.930 . S
C139 C138 1.392 1_455 S
C139 C140 1.392 . S
C139 H147 0.923 1_455 S
C140 C139 1.392 . S
C140 C141 1.377 . S
C141 H125 0.930 . S
C141 C140 1.377 . S
C141 C142 1.379 . S
C142 H126 0.931 . S
C142 C136 1.383 . S
C142 C141 1.379 . S
H143 C137 0.959 . S
H144 C137 0.961 . S
H145 C137 0.960 . S
H146 C138 0.930 . S
H147 C139 0.923 1_655 S
H148 C156 0.929 . S
H149 C158 0.930 . S
H150 C160 0.923 1_655 S
H151 C163 0.929 . S
H152 C166 0.930 . S
H153 C168 0.960 . S
H154 C168 0.960 . S
H155 C168 0.960 . S
C156 H148 0.929 . S
C156 C157 1.377 . S
C156 C158 1.384 . S
C157 C156 1.377 . S
C157 C163 1.390 . S
C158 H149 0.930 . S
C158 C156 1.384 . S
C158 C159 1.372 . S
C159 C158 1.372 . S
C159 C160 1.400 . S
C159 C164 1.490 . S
C160 H150 0.923 1_455 S
C160 C159 1.400 . S
C160 C163 1.386 . S
H161 C177 0.930 . S
H162 C178 0.931 . S
C163 H151 0.929 . S
C163 C157 1.390 . S
C163 C160 1.386 . S
C164 C159 1.490 . S
C164 C166 1.395 . S
C164 C167 1.403 1_455 S
H165 C171 0.930 . S
C166 H152 0.930 . S
C166 C164 1.395 . S
C166 C169 1.403 1_565 S
C167 C164 1.403 1_655 S
C167 C168 1.524 . S
C167 C171 1.400 1_565 S
C168 H153 0.960 . S
C168 H154 0.960 . S
C168 H155 0.960 . S
C168 C167 1.524 . S
C169 C166 1.403 1_545 S
C169 C170 1.392 1_455 S
C169 C173 1.495 . S
C170 C169 1.392 1_655 S
C170 C171 1.385 . S
C170 C172 1.478 . S
C171 H165 0.930 . S
C171 C167 1.400 1_545 S
C171 C170 1.385 . S
C172 C170 1.478 . S
C172 C174 1.381 . S
C172 C178 1.383 . S
C173 C169 1.495 . S
C173 H179 0.959 . S
C173 H180 0.961 . S
C173 H181 0.960 . S
C174 C172 1.381 . S
C174 C175 1.394 . S
C174 H182 0.919 1_655 S
C175 C174 1.394 . S
C175 C176 1.383 . S
C175 H183 0.929 . S
C176 C175 1.383 . S
C176 C177 1.377 . S
C177 H161 0.930 . S
C177 C176 1.377 . S
C177 C178 1.379 . S
C178 H162 0.931 . S
C178 C172 1.383 . S
C178 C177 1.379 . S
H179 C173 0.959 . S
H180 C173 0.961 . S
H181 C173 0.960 . S
H182 C174 0.919 1_455 S
H183 C175 0.929 . S
H184 C192 0.929 . S
H185 C194 0.930 . S
H186 C196 0.930 . S
H187 C199 0.929 . S
H188 C202 0.930 . S
H189 C204 0.960 . S
H190 C204 0.960 . S
H191 C204 0.960 . S
C192 H184 0.929 . S
C192 C193 1.377 1_556 S
C192 C194 1.384 . S
C193 C192 1.377 1_554 S
C193 C199 1.390 . S
C194 H185 0.930 . S
C194 C192 1.384 . S
C194 C195 1.372 1_556 S
C195 C194 1.372 1_554 S
C195 C196 1.400 . S
C195 C200 1.490 . S
C196 H186 0.930 . S
C196 C195 1.400 . S
C196 C199 1.386 . S
H197 C213 0.930 . S
H198 C214 0.931 . S
C199 H187 0.929 . S
C199 C193 1.390 . S
C199 C196 1.386 . S
C200 C195 1.490 . S
C200 C202 1.395 1_554 S
C200 C203 1.403 . S
H201 C207 0.930 . S
C202 H188 0.930 . S
C202 C200 1.395 1_556 S
C202 C205 1.403 . S
C203 C200 1.403 . S
C203 C204 1.524 . S
C203 C207 1.400 . S
C204 H189 0.960 . S
C204 H190 0.960 . S
C204 H191 0.960 . S
C204 C203 1.524 . S
C205 C202 1.403 . S
C205 C206 1.392 1_556 S
C205 C209 1.495 . S
C206 C205 1.392 1_554 S
C206 C207 1.385 . S
C206 C208 1.478 . S
C207 H201 0.930 . S
C207 C203 1.400 . S
C207 C206 1.385 . S
C208 C206 1.478 . S
C208 C210 1.381 1_554 S
C208 C214 1.383 . S
C209 C205 1.495 . S
C209 H215 0.959 . S
C209 H216 0.961 . S
C209 H217 0.960 . S
C210 C208 1.381 1_556 S
C210 C211 1.394 . S
C210 H218 0.930 . S
C211 C210 1.394 . S
C211 C212 1.383 1_556 S
C211 H219 0.929 . S
C212 C211 1.383 1_554 S
C212 C213 1.377 . S
C213 H197 0.930 . S
C213 C212 1.377 . S
C213 C214 1.379 . S
C214 H198 0.931 . S
C214 C208 1.383 . S
C214 C213 1.379 . S
H215 C209 0.959 . S
H216 C209 0.961 . S
H217 C209 0.960 . S
H218 C210 0.930 . S
H219 C211 0.929 . S
H220 C228 0.929 . S
H221 C230 0.930 . S
H222 C232 0.930 . S
H223 C235 0.929 . S
H224 C238 0.930 . S
H225 C240 0.960 . S
H226 C240 0.960 . S
H227 C240 0.960 . S
C228 H220 0.929 . S
C228 C229 1.377 . S
C228 C230 1.384 . S
C229 C228 1.377 . S
C229 C235 1.390 . S
C230 H221 0.930 . S
C230 C228 1.384 . S
C230 C231 1.372 . S
C231 C230 1.372 . S
C231 C232 1.400 . S
C231 C236 1.490 . S
C232 H222 0.930 . S
C232 C231 1.400 . S
C232 C235 1.386 . S
H233 C249 0.930 . S
H234 C250 0.931 . S
C235 H223 0.929 . S
C235 C229 1.390 . S
C235 C232 1.386 . S
C236 C231 1.490 . S
C236 C238 1.395 . S
C236 C239 1.403 . S
H237 C243 0.930 . S
C238 H224 0.930 . S
C238 C236 1.395 . S
C238 C241 1.403 . S
C239 C236 1.403 . S
C239 C240 1.524 . S
C239 C243 1.400 . S
C240 H225 0.960 . S
C240 H226 0.960 . S
C240 H227 0.960 . S
C240 C239 1.524 . S
C241 C238 1.403 . S
C241 C242 1.392 . S
C241 C245 1.495 . S
C242 C241 1.392 . S
C242 C243 1.385 . S
C242 C244 1.478 . S
C243 H237 0.930 . S
C243 C239 1.400 . S
C243 C242 1.385 . S
C244 C242 1.478 . S
C244 C246 1.381 . S
C244 C250 1.383 . S
C245 C241 1.495 . S
C245 H251 0.959 . S
C245 H252 0.961 . S
C245 H253 0.960 . S
C246 C244 1.381 . S
C246 C247 1.394 . S
C246 H254 0.930 . S
C247 C246 1.394 . S
C247 C248 1.383 . S
C247 H255 0.929 . S
C248 C247 1.383 . S
C248 C249 1.377 . S
C249 H233 0.930 . S
C249 C248 1.377 . S
C249 C250 1.379 . S
C250 H234 0.931 . S
C250 C244 1.383 . S
C250 C249 1.379 . S
H251 C245 0.959 . S
H252 C245 0.961 . S
H253 C245 0.960 . S
H254 C246 0.930 . S
H255 C247 0.929 . S
H256 C264 0.929 . S
H257 C266 0.930 . S
H258 C268 0.930 . S
H259 C271 0.951 . S
H260 C274 0.930 . S
H261 C276 0.960 . S
H262 C276 0.960 . S
H263 C276 0.960 . S
C264 H256 0.929 . S
C264 C265 1.377 . S
C264 C266 1.384 . S
C265 C264 1.377 . S
C265 C271 1.364 1_455 S
C266 H257 0.930 . S
C266 C264 1.384 . S
C266 C267 1.372 . S
C267 C266 1.372 . S
C267 C268 1.400 1_455 S
C267 C272 1.490 . S
C268 H258 0.930 . S
C268 C267 1.400 1_655 S
C268 C271 1.391 . S
H269 C285 0.930 . S
H270 C286 0.931 . S
C271 H259 0.951 . S
C271 C265 1.364 1_655 S
C271 C268 1.391 . S
C272 C267 1.490 . S
C272 C274 1.395 1_455 S
C272 C275 1.403 . S
H273 C279 0.930 . S
C274 H260 0.930 . S
C274 C272 1.395 1_655 S
C274 C277 1.403 . S
C275 C272 1.403 . S
C275 C276 1.524 . S
C275 C279 1.400 . S
C276 H261 0.960 . S
C276 H262 0.960 . S
C276 H263 0.960 . S
C276 C275 1.524 . S
C277 C274 1.403 . S
C277 C278 1.392 . S
C277 C281 1.495 . S
C278 C277 1.392 . S
C278 C279 1.385 1_655 S
C278 C280 1.478 . S
C279 H273 0.930 . S
C279 C275 1.400 . S
C279 C278 1.385 1_455 S
C280 C278 1.478 . S
C280 C282 1.381 1_655 S
C280 C286 1.383 . S
C281 C277 1.495 . S
C281 H287 0.959 . S
C281 H288 0.961 . S
C281 H289 0.960 . S
C282 C280 1.381 1_455 S
C282 C283 1.394 . S
C282 H290 0.930 . S
C283 C282 1.394 . S
C283 C284 1.383 1_455 S
C283 H291 0.929 . S
C284 C283 1.383 1_655 S
C284 C285 1.377 . S
C285 H269 0.930 . S
C285 C284 1.377 . S
C285 C286 1.379 . S
C286 H270 0.931 . S
C286 C280 1.383 . S
C286 C285 1.379 . S
H287 C281 0.959 . S
H288 C281 0.961 . S
H289 C281 0.960 . S
H290 C282 0.930 . S
H291 C283 0.929 . S
H292 C300 0.929 . S
H293 C302 0.930 . S
H294 C304 0.930 1_655 S
H295 C307 0.929 . S
H296 C310 0.930 . S
H297 C312 0.960 . S
H298 C312 0.960 . S
H299 C312 0.960 . S
C300 H292 0.929 . S
C300 C301 1.377 . S
C300 C302 1.384 . S
C301 C300 1.377 . S
C301 C307 1.390 . S
C302 H293 0.930 . S
C302 C300 1.384 . S
C302 C303 1.372 . S
C303 C302 1.372 . S
C303 C304 1.400 . S
C303 C308 1.490 . S
C304 H294 0.930 1_455 S
C304 C303 1.400 . S
C304 C307 1.386 . S
H305 C321 0.930 . S
H306 C322 0.931 . S
C307 H295 0.929 . S
C307 C301 1.390 . S
C307 C304 1.386 . S
C308 C303 1.490 . S
C308 C310 1.395 1_455 S
C308 C311 1.403 . S
H309 C315 0.930 . S
C310 H296 0.930 . S
C310 C308 1.395 1_655 S
C310 C313 1.403 . S
C311 C308 1.403 . S
C311 C312 1.524 . S
C311 C315 1.400 . S
C312 H297 0.960 . S
C312 H298 0.960 . S
C312 H299 0.960 . S
C312 C311 1.524 . S
C313 C310 1.403 . S
C313 C314 1.392 . S
C313 C317 1.495 . S
C314 C313 1.392 . S
C314 C315 1.385 1_655 S
C314 C316 1.478 . S
C315 H309 0.930 . S
C315 C311 1.400 . S
C315 C314 1.385 1_455 S
C316 C314 1.478 . S
C316 C318 1.381 . S
C316 C322 1.383 . S
C317 C313 1.495 . S
C317 H323 0.959 . S
C317 H324 0.961 . S
C317 H325 0.960 . S
C318 C316 1.381 . S
C318 C319 1.394 . S
C318 H326 0.930 1_655 S
C319 C318 1.394 . S
C319 C320 1.383 . S
C319 H327 0.929 1_655 S
C320 C319 1.383 . S
C320 C321 1.377 . S
C321 H305 0.930 . S
C321 C320 1.377 . S
C321 C322 1.379 . S
C322 H306 0.931 . S
C322 C316 1.383 . S
C322 C321 1.379 . S
H323 C317 0.959 . S
H324 C317 0.961 . S
H325 C317 0.960 . S
H326 C318 0.930 1_455 S
H327 C319 0.929 1_455 S
H328 C336 0.929 1_655 S
H329 C338 0.930 . S
H330 C340 0.930 . S
H331 C343 0.929 . S
H332 C346 0.930 . S
H333 C348 0.960 . S
H334 C348 0.960 . S
H335 C348 0.960 . S
C336 H328 0.929 1_455 S
C336 C337 1.377 . S
C336 C338 1.384 1_455 S
C337 C336 1.377 . S
C337 C343 1.390 . S
C338 H329 0.930 . S
C338 C336 1.384 1_655 S
C338 C339 1.372 1_655 S
C339 C338 1.372 1_455 S
C339 C340 1.400 . S
C339 C344 1.490 . S
C340 H330 0.930 . S
C340 C339 1.400 . S
C340 C343 1.386 . S
H341 C357 0.930 1_455 S
H342 C358 0.931 1_455 S
C343 H331 0.929 . S
C343 C337 1.390 . S
C343 C340 1.386 . S
C344 C339 1.490 . S
C344 C346 1.395 1_455 S
C344 C347 1.403 . S
H345 C351 0.930 . S
C346 H332 0.930 . S
C346 C344 1.395 1_655 S
C346 C349 1.403 . S
C347 C344 1.403 . S
C347 C348 1.524 . S
C347 C351 1.400 . S
C348 H333 0.960 . S
C348 H334 0.960 . S
C348 H335 0.960 . S
C348 C347 1.524 . S
C349 C346 1.403 . S
C349 C350 1.392 . S
C349 C353 1.495 . S
C350 C349 1.392 . S
C350 C351 1.385 1_655 S
C350 C352 1.478 . S
C351 H345 0.930 . S
C351 C347 1.400 . S
C351 C350 1.385 1_455 S
C352 C350 1.478 . S
C352 C354 1.381 . S
C352 C358 1.383 . S
C353 C349 1.495 . S
C353 H359 0.959 . S
C353 H360 0.961 . S
C353 H361 0.960 . S
C354 C352 1.381 . S
C354 C355 1.394 . S
C354 H362 0.930 . S
C355 C354 1.394 . S
C355 C356 1.383 . S
C355 H363 0.929 . S
C356 C355 1.383 . S
C356 C357 1.377 . S
C357 H341 0.930 1_655 S
C357 C356 1.377 . S
C357 C358 1.379 . S
C358 H342 0.931 1_655 S
C358 C352 1.383 . S
C358 C357 1.379 . S
H359 C353 0.959 . S
H360 C353 0.961 . S
H361 C353 0.960 . S
H362 C354 0.930 . S
H363 C355 0.929 . S
H364 C372 0.929 . S
H365 C374 0.930 . S
H366 C376 0.930 . S
H367 C379 0.929 . S
H368 C382 0.930 . S
H369 C384 0.960 . S
H370 C384 0.960 1_455 S
H371 C384 0.960 . S
C372 H364 0.929 . S
C372 C373 1.377 . S
C372 C374 1.384 . S
C373 C372 1.377 . S
C373 C379 1.390 1_455 S
C374 H365 0.930 . S
C374 C372 1.384 . S
C374 C375 1.372 . S
C375 C374 1.372 . S
C375 C376 1.400 1_455 S
C375 C380 1.490 . S
C376 H366 0.930 . S
C376 C375 1.400 1_655 S
C376 C379 1.386 . S
H377 C393 0.930 . S
H378 C394 0.931 . S
C379 H367 0.929 . S
C379 C373 1.390 1_655 S
C379 C376 1.386 . S
C380 C375 1.490 . S
C380 C382 1.395 . S
C380 C383 1.403 1_455 S
H381 C387 0.930 . S
C382 H368 0.930 . S
C382 C380 1.395 . S
C382 C385 1.403 . S
C383 C380 1.403 1_655 S
C383 C384 1.524 . S
C383 C387 1.400 . S
C384 H369 0.960 . S
C384 H370 0.960 1_655 S
C384 H371 0.960 . S
C384 C383 1.524 . S
C385 C382 1.403 . S
C385 C386 1.392 1_455 S
C385 C389 1.495 . S
C386 C385 1.392 1_655 S
C386 C387 1.385 . S
C386 C388 1.478 . S
C387 H381 0.930 . S
C387 C383 1.400 . S
C387 C386 1.385 . S
C388 C386 1.478 . S
C388 C390 1.381 1_655 S
C388 C394 1.383 . S
C389 C385 1.495 . S
C389 H395 0.959 . S
C389 H396 0.979 . S
C389 H397 0.960 . S
C390 C388 1.381 1_455 S
C390 C391 1.394 . S
C390 H398 0.930 . S
C391 C390 1.394 . S
C391 C392 1.383 1_455 S
C391 H399 0.929 . S
C392 C391 1.383 1_655 S
C392 C393 1.377 . S
C393 H377 0.930 . S
C393 C392 1.377 . S
C393 C394 1.379 . S
C394 H378 0.931 . S
C394 C388 1.383 . S
C394 C393 1.379 . S
H395 C389 0.959 . S
H396 C389 0.979 . S
H397 C389 0.960 . S
H398 C390 0.930 . S
H399 C391 0.929 . S
H400 C408 0.929 . S
H401 C410 0.930 . S
H402 C412 0.930 . S
H403 C415 0.929 . S
H404 C418 0.930 . S
H405 C420 0.960 . S
H406 C420 0.960 . S
H407 C420 0.960 . S
C408 H400 0.929 . S
C408 C409 1.377 . S
C408 C410 1.384 . S
C409 C408 1.377 . S
C409 C415 1.390 . S
C410 H401 0.930 . S
C410 C408 1.384 . S
C410 C411 1.372 . S
C411 C410 1.372 . S
C411 C412 1.400 . S
C411 C416 1.490 . S
C412 H402 0.930 . S
C412 C411 1.400 . S
C412 C415 1.386 . S
H413 C429 0.930 . S
H414 C430 0.931 . S
C415 H403 0.929 . S
C415 C409 1.390 . S
C415 C412 1.386 . S
C416 C411 1.490 . S
C416 C418 1.395 . S
C416 C419 1.403 . S
H417 C423 0.930 . S
C418 H404 0.930 . S
C418 C416 1.395 . S
C418 C421 1.403 . S
C419 C416 1.403 . S
C419 C420 1.524 . S
C419 C423 1.400 . S
C420 H405 0.960 . S
C420 H406 0.960 . S
C420 H407 0.960 . S
C420 C419 1.524 . S
C421 C418 1.403 . S
C421 C422 1.392 . S
C421 C425 1.495 . S
C422 C421 1.392 . S
C422 C423 1.385 . S
C422 C424 1.478 . S
C423 H417 0.930 . S
C423 C419 1.400 . S
C423 C422 1.385 . S
C424 C422 1.478 . S
C424 C426 1.381 . S
C424 C430 1.383 . S
C425 C421 1.495 . S
C425 H431 0.959 . S
C425 H432 0.961 . S
C425 H433 0.960 . S
C426 C424 1.381 . S
C426 C427 1.394 . S
C426 H434 0.930 . S
C427 C426 1.394 . S
C427 C428 1.383 . S
C427 H435 0.929 . S
C428 C427 1.383 . S
C428 C429 1.377 . S
C429 H413 0.930 . S
C429 C428 1.377 . S
C429 C430 1.379 . S
C430 H414 0.931 . S
C430 C424 1.383 . S
C430 C429 1.379 . S
H431 C425 0.959 . S
H432 C425 0.961 . S
H433 C425 0.960 . S
H434 C426 0.930 . S
H435 C427 0.929 . S
H436 C444 0.929 . S
H437 C446 0.930 . S
H438 C448 0.930 . S
H439 C451 0.929 . S
H440 C454 0.930 . S
H441 C456 0.960 . S
H442 C456 0.960 . S
H443 C456 0.960 . S
C444 H436 0.929 . S
C444 C445 1.377 . S
C444 C446 1.384 . S
C445 C444 1.377 . S
C445 C451 1.390 . S
C446 H437 0.930 . S
C446 C444 1.384 . S
C446 C447 1.372 . S
C447 C446 1.372 . S
C447 C448 1.400 . S
C447 C452 1.490 . S
C448 H438 0.930 . S
C448 C447 1.400 . S
C448 C451 1.386 . S
H449 C465 0.930 . S
H450 C466 0.931 . S
C451 H439 0.929 . S
C451 C445 1.390 . S
C451 C448 1.386 . S
C452 C447 1.490 . S
C452 C454 1.395 . S
C452 C455 1.403 . S
H453 C459 0.930 . S
C454 H440 0.930 . S
C454 C452 1.395 . S
C454 C457 1.403 . S
C455 C452 1.403 . S
C455 C456 1.524 . S
C455 C459 1.400 . S
C456 H441 0.960 . S
C456 H442 0.960 . S
C456 H443 0.960 . S
C456 C455 1.524 . S
C457 C454 1.403 . S
C457 C458 1.392 . S
C457 C461 1.495 . S
C458 C457 1.392 . S
C458 C459 1.385 . S
C458 C460 1.478 . S
C459 H453 0.930 . S
C459 C455 1.400 . S
C459 C458 1.385 . S
C460 C458 1.478 . S
C460 C462 1.381 . S
C460 C466 1.383 . S
C461 C457 1.495 . S
C461 H467 0.959 . S
C461 H468 0.961 . S
C461 H469 0.960 . S
C462 C460 1.381 . S
C462 C463 1.394 . S
C462 H470 0.930 . S
C463 C462 1.394 . S
C463 C464 1.383 . S
C463 H471 0.929 . S
C464 C463 1.383 . S
C464 C465 1.377 . S
C465 H449 0.930 . S
C465 C464 1.377 . S
C465 C466 1.379 . S
C466 H450 0.931 . S
C466 C460 1.383 . S
C466 C465 1.379 . S
H467 C461 0.959 . S
H468 C461 0.961 . S
H469 C461 0.960 . S
H470 C462 0.930 . S
H471 C463 0.929 . S
H472 C480 0.929 . S
H473 C482 0.930 . S
H474 C484 0.930 . S
H475 C487 0.929 . S
H476 C490 0.930 . S
H477 C492 0.960 . S
H478 C492 0.960 . S
H479 C492 0.960 . S
C480 H472 0.929 . S
C480 C481 1.377 . S
C480 C482 1.384 . S
C481 C480 1.377 . S
C481 C487 1.390 . S
C482 H473 0.930 . S
C482 C480 1.384 . S
C482 C483 1.372 . S
C483 C482 1.372 . S
C483 C484 1.400 . S
C483 C488 1.490 . S
C484 H474 0.930 . S
C484 C483 1.400 . S
C484 C487 1.386 . S
H485 C501 0.930 . S
H486 C502 0.931 . S
C487 H475 0.929 . S
C487 C481 1.390 . S
C487 C484 1.386 . S
C488 C483 1.490 . S
C488 C490 1.395 . S
C488 C491 1.403 . S
H489 C495 0.930 . S
C490 H476 0.930 . S
C490 C488 1.395 . S
C490 C493 1.403 . S
C491 C488 1.403 . S
C491 C492 1.524 . S
C491 C495 1.400 . S
C492 H477 0.960 . S
C492 H478 0.960 . S
C492 H479 0.960 . S
C492 C491 1.524 . S
C493 C490 1.403 . S
C493 C494 1.392 . S
C493 C497 1.495 . S
C494 C493 1.392 . S
C494 C495 1.385 . S
C494 C496 1.478 . S
C495 H489 0.930 . S
C495 C491 1.400 . S
C495 C494 1.385 . S
C496 C494 1.478 . S
C496 C498 1.381 . S
C496 C502 1.383 . S
C497 C493 1.495 . S
C497 H503 0.959 . S
C497 H504 0.961 . S
C497 H505 0.960 . S
C498 C496 1.381 . S
C498 C499 1.394 . S
C498 H506 0.930 . S
C499 C498 1.394 . S
C499 C500 1.383 . S
C499 H507 0.929 . S
C500 C499 1.383 . S
C500 C501 1.377 . S
C501 H485 0.930 . S
C501 C500 1.377 . S
C501 C502 1.379 . S
C502 H486 0.931 . S
C502 C496 1.383 . S
C502 C501 1.379 . S
H503 C497 0.959 . S
H504 C497 0.961 . S
H505 C497 0.960 . S
H506 C498 0.930 . S
H507 C499 0.929 . S
H508 C516 0.929 . S
H509 C518 0.930 . S
H510 C520 0.930 . S
H511 C523 0.929 . S
H512 C526 0.930 . S
H513 C528 0.960 . S
H514 C528 0.960 . S
H515 C528 0.960 . S
C516 H508 0.929 . S
C516 C517 1.377 . S
C516 C518 1.384 . S
C517 C516 1.377 . S
C517 C523 1.390 . S
C518 H509 0.930 . S
C518 C516 1.384 . S
C518 C519 1.372 . S
C519 C518 1.372 . S
C519 C520 1.400 . S
C519 C524 1.490 . S
C520 H510 0.930 . S
C520 C519 1.400 . S
C520 C523 1.386 . S
H521 C537 0.930 . S
H522 C538 0.931 . S
C523 H511 0.929 . S
C523 C517 1.390 . S
C523 C520 1.386 . S
C524 C519 1.490 . S
C524 C526 1.395 . S
C524 C527 1.403 . S
H525 C531 0.930 . S
C526 H512 0.930 . S
C526 C524 1.395 . S
C526 C529 1.403 . S
C527 C524 1.403 . S
C527 C528 1.524 . S
C527 C531 1.400 . S
C528 H513 0.960 . S
C528 H514 0.960 . S
C528 H515 0.960 . S
C528 C527 1.524 . S
C529 C526 1.403 . S
C529 C530 1.392 . S
C529 C533 1.495 . S
C530 C529 1.392 . S
C530 C531 1.385 . S
C530 C532 1.478 . S
C531 H525 0.930 . S
C531 C527 1.400 . S
C531 C530 1.385 . S
C532 C530 1.478 . S
C532 C534 1.381 . S
C532 C538 1.383 . S
C533 C529 1.495 . S
C533 H539 0.959 . S
C533 H540 0.961 . S
C533 H541 0.960 . S
C534 C532 1.381 . S
C534 C535 1.394 . S
C534 H542 0.930 . S
C535 C534 1.394 . S
C535 C536 1.383 . S
C535 H543 0.929 . S
C536 C535 1.383 . S
C536 C537 1.377 . S
C537 H521 0.930 . S
C537 C536 1.377 . S
C537 C538 1.379 . S
C538 H522 0.931 . S
C538 C532 1.383 . S
C538 C537 1.379 . S
H539 C533 0.959 . S
H540 C533 0.961 . S
H541 C533 0.960 . S
H542 C534 0.930 . S
H543 C535 0.929 . S
H544 C552 0.929 . S
H545 C554 0.930 . S
H546 C556 0.930 . S
H547 C559 0.929 . S
H548 C562 0.930 . S
H549 C564 0.960 . S
H550 C564 0.960 . S
H551 C564 0.960 . S
C552 H544 0.929 . S
C552 C553 1.377 . S
C552 C554 1.384 . S
C553 C552 1.377 . S
C553 C559 1.390 1_554 S
C554 H545 0.930 . S
C554 C552 1.384 . S
C554 C555 1.372 . S
C555 C554 1.372 . S
C555 C556 1.400 1_554 S
C555 C560 1.490 . S
C556 H546 0.930 . S
C556 C555 1.400 1_556 S
C556 C559 1.386 . S
H557 C573 0.930 . S
H558 C574 0.931 . S
C559 H547 0.929 . S
C559 C553 1.390 1_556 S
C559 C556 1.386 . S
C560 C555 1.490 . S
C560 C562 1.395 . S
C560 C563 1.403 . S
H561 C567 0.930 . S
C562 H548 0.930 . S
C562 C560 1.395 . S
C562 C565 1.403 . S
C563 C560 1.403 . S
C563 C564 1.524 . S
C563 C567 1.400 . S
C564 H549 0.960 . S
C564 H550 0.960 . S
C564 H551 0.960 . S
C564 C563 1.524 . S
C565 C562 1.403 . S
C565 C566 1.392 . S
C565 C569 1.495 . S
C566 C565 1.392 . S
C566 C567 1.385 . S
C566 C568 1.478 . S
C567 H561 0.930 . S
C567 C563 1.400 . S
C567 C566 1.385 . S
C568 C566 1.478 . S
C568 C570 1.381 . S
C568 C574 1.383 1_554 S
C569 C565 1.495 . S
C569 H575 0.959 . S
C569 H576 0.961 1_554 S
C569 H577 0.960 . S
C570 C568 1.381 . S
C570 C571 1.394 . S
C570 H578 0.930 . S
C571 C570 1.394 . S
C571 C572 1.383 . S
C571 H579 0.929 . S
C572 C571 1.383 . S
C572 C573 1.377 1_554 S
C573 H557 0.930 . S
C573 C572 1.377 1_556 S
C573 C574 1.379 . S
C574 H558 0.931 . S
C574 C568 1.383 1_556 S
C574 C573 1.379 . S
H575 C569 0.959 . S
H576 C569 0.961 1_556 S
H577 C569 0.960 . S
H578 C570 0.930 . S
H579 C571 0.929 . S
H580 C588 0.929 . S
H581 C590 0.930 . S
H582 C592 0.930 1_556 S
H583 C595 0.929 1_556 S
H584 C598 0.930 . S
H585 C600 0.960 . S
H586 C600 0.960 . S
H587 C600 0.960 . S
C588 H580 0.929 . S
C588 C589 1.377 . S
C588 C590 1.384 . S
C589 C588 1.377 . S
C589 C595 1.390 . S
C590 H581 0.930 . S
C590 C588 1.384 . S
C590 C591 1.372 . S
C591 C590 1.372 . S
C591 C592 1.400 . S
C591 C596 1.490 . S
C592 H582 0.930 1_554 S
C592 C591 1.400 . S
C592 C595 1.386 . S
H593 C609 0.932 . S
H594 C610 0.931 . S
C595 H583 0.929 1_554 S
C595 C589 1.390 . S
C595 C592 1.386 . S
C596 C591 1.490 . S
C596 C598 1.395 1_554 S
C596 C599 1.403 . S
H597 C603 0.930 . S
C598 H584 0.930 . S
C598 C596 1.395 1_556 S
C598 C601 1.403 . S
C599 C596 1.403 . S
C599 C600 1.524 . S
C599 C603 1.400 . S
C600 H585 0.960 . S
C600 H586 0.960 . S
C600 H587 0.960 . S
C600 C599 1.524 . S
C601 C598 1.403 . S
C601 C602 1.392 1_556 S
C601 C605 1.495 . S
C602 C601 1.392 1_554 S
C602 C603 1.385 . S
C602 C604 1.478 . S
C603 H597 0.930 . S
C603 C599 1.400 . S
C603 C602 1.385 . S
C604 C602 1.478 . S
C604 C606 1.381 . S
C604 C610 1.383 1_554 S
C605 C601 1.495 . S
C605 H611 0.959 . S
C605 H612 0.961 . S
C605 H613 0.960 . S
C606 C604 1.381 . S
C606 C607 1.394 . S
C606 H614 0.930 . S
C607 C606 1.394 . S
C607 C608 1.383 . S
C607 H615 0.929 . S
C608 C607 1.383 . S
C608 C609 1.374 1_554 S
C609 H593 0.932 . S
C609 C608 1.374 1_556 S
C609 C610 1.380 . S
C610 H594 0.931 . S
C610 C604 1.383 1_556 S
C610 C609 1.380 . S
H611 C605 0.959 . S
H612 C605 0.961 . S
H613 C605 0.960 . S
H614 C606 0.930 . S
H615 C607 0.929 . S
H616 C624 0.929 . S
H617 C626 0.930 . S
H618 C628 0.930 . S
H619 C631 0.929 . S
H620 C634 0.930 . S
H621 C636 0.960 . S
H622 C636 0.960 . S
H623 C636 0.960 . S
C624 H616 0.929 . S
C624 C625 1.377 . S
C624 C626 1.384 . S
C625 C624 1.377 . S
C625 C631 1.390 . S
C626 H617 0.930 . S
C626 C624 1.384 . S
C626 C627 1.372 . S
C627 C626 1.372 . S
C627 C628 1.400 . S
C627 C632 1.490 . S
C628 H618 0.930 . S
C628 C627 1.400 . S
C628 C631 1.386 . S
H629 C645 0.930 . S
H630 C646 0.931 . S
C631 H619 0.929 . S
C631 C625 1.390 . S
C631 C628 1.386 . S
C632 C627 1.490 . S
C632 C634 1.395 . S
C632 C635 1.403 . S
H633 C639 0.930 . S
C634 H620 0.930 . S
C634 C632 1.395 . S
C634 C637 1.403 . S
C635 C632 1.403 . S
C635 C636 1.524 . S
C635 C639 1.400 . S
C636 H621 0.960 . S
C636 H622 0.960 . S
C636 H623 0.960 . S
C636 C635 1.524 . S
C637 C634 1.403 . S
C637 C638 1.392 . S
C637 C641 1.495 . S
C638 C637 1.392 . S
C638 C639 1.385 . S
C638 C640 1.478 . S
C639 H633 0.930 . S
C639 C635 1.400 . S
C639 C638 1.385 . S
C640 C638 1.478 . S
C640 C642 1.381 . S
C640 C646 1.383 . S
C641 C637 1.495 . S
C641 H647 0.959 . S
C641 H648 0.961 . S
C641 H649 0.960 . S
C642 C640 1.381 . S
C642 C643 1.394 . S
C642 H650 0.930 . S
C643 C642 1.394 . S
C643 C644 1.383 . S
C643 H651 0.929 . S
C644 C643 1.383 . S
C644 C645 1.377 . S
C645 H629 0.930 . S
C645 C644 1.377 . S
C645 C646 1.379 . S
C646 H630 0.931 . S
C646 C640 1.383 . S
C646 C645 1.379 . S
H647 C641 0.959 . S
H648 C641 0.961 . S
H649 C641 0.960 . S
H650 C642 0.930 . S
H651 C643 0.929 . S
H652 C660 0.929 . S
H653 C662 0.930 . S
H654 C664 0.930 . S
H655 C667 0.929 . S
H656 C670 0.930 . S
H657 C672 0.960 . S
H658 C672 0.960 . S
H659 C672 0.960 . S
C660 H652 0.929 . S
C660 C661 1.377 . S
C660 C662 1.384 . S
C661 C660 1.377 . S
C661 C667 1.390 . S
C662 H653 0.930 . S
C662 C660 1.384 . S
C662 C663 1.372 . S
C663 C662 1.372 . S
C663 C664 1.400 . S
C663 C668 1.490 . S
C664 H654 0.930 . S
C664 C663 1.400 . S
C664 C667 1.386 . S
H665 C681 0.930 . S
H666 C682 0.931 . S
C667 H655 0.929 . S
C667 C661 1.390 . S
C667 C664 1.386 . S
C668 C663 1.490 . S
C668 C670 1.395 . S
C668 C671 1.403 . S
H669 C675 0.930 . S
C670 H656 0.930 . S
C670 C668 1.395 . S
C670 C673 1.403 . S
C671 C668 1.403 . S
C671 C672 1.524 . S
C671 C675 1.400 . S
C672 H657 0.960 . S
C672 H658 0.960 . S
C672 H659 0.960 . S
C672 C671 1.524 . S
C673 C670 1.403 . S
C673 C674 1.392 . S
C673 C677 1.495 . S
C674 C673 1.392 . S
C674 C675 1.385 . S
C674 C676 1.478 . S
C675 H669 0.930 . S
C675 C671 1.400 . S
C675 C674 1.385 . S
C676 C674 1.478 . S
C676 C678 1.381 . S
C676 C682 1.383 . S
C677 C673 1.495 . S
C677 H683 0.959 . S
C677 H684 0.961 . S
C677 H685 0.960 . S
C678 C676 1.381 . S
C678 C679 1.394 . S
C678 H686 0.930 . S
C679 C678 1.394 . S
C679 C680 1.383 . S
C679 H687 0.929 . S
C680 C679 1.383 . S
C680 C681 1.377 . S
C681 H665 0.930 . S
C681 C680 1.377 . S
C681 C682 1.379 . S
C682 H666 0.931 . S
C682 C676 1.383 . S
C682 C681 1.379 . S
H683 C677 0.959 . S
H684 C677 0.961 . S
H685 C677 0.960 . S
H686 C678 0.930 . S
H687 C679 0.929 . S
C121 C19 1.505 . S
C140 C5 1.499 . S
C157 C33 1.503 . S
C176 C47 1.495 . S
C193 C61 1.503 . S
C212 C75 1.498 . S
C229 C89 1.505 . S
C248 C103 1.503 . S
C265 C9 1.143 . S
C284 C51 1.153 . S
C301 C37 1.144 . S
C320 C23 1.142 . S
C337 C28 1.175 . S
C356 C14 1.176 . S
C373 C0 1.181 . S
C392 C42 1.159 . S
C409 C65 1.153 . S
C428 C107 1.143 . S
C445 C93 1.142 . S
C464 C79 1.159 . S
C481 C70 1.181 . S
C500 C84 1.192 . S
C517 C56 1.183 . S
C536 C98 1.177 . S
C553 C81 1.510 . S
C572 C11 1.514 . S
C589 C67 1.509 . S
C608 C25 1.513 . S
C625 C39 1.510 . S
C644 C109 1.514 . S
C661 C95 1.511 . S
C680 C53 1.502 . S
