# Generated by pormake.
# Topology uos, (4)-cn, num edge types: 1
# Building blocks:
#     Node 0, Type 0, BuildingBlock: TATPOV_clean_sbu_0, # of connection points: 4
#     Node 1, Type 0, BuildingBlock: TATPOV_clean_sbu_0, # of connection points: 4
#     Node 2, Type 0, BuildingBlock: TATPOV_clean_sbu_0, # of connection points: 4
#     Node 3, Type 0, BuildingBlock: TATPOV_clean_sbu_0, # of connection points: 4
#     Node 4, Type 0, BuildingBlock: TATPOV_clean_sbu_0, # of connection points: 4
#     Node 5, Type 0, BuildingBlock: TATPOV_clean_sbu_0, # of connection points: 4
#     Node 6, Type 0, BuildingBlock: TATPOV_clean_sbu_0, # of connection points: 4
#     Node 7, Type 0, BuildingBlock: TATPOV_clean_sbu_0, # of connection points: 4
#     Node 8, Type 0, BuildingBlock: TATPOV_clean_sbu_0, # of connection points: 4
#     Node 9, Type 0, BuildingBlock: TATPOV_clean_sbu_0, # of connection points: 4
#     Node 10, Type 0, BuildingBlock: TATPOV_clean_sbu_0, # of connection points: 4
#     Node 11, Type 0, BuildingBlock: TATPOV_clean_sbu_0, # of connection points: 4
#     Node 12, Type 0, BuildingBlock: TATPOV_clean_sbu_0, # of connection points: 4
#     Node 13, Type 0, BuildingBlock: TATPOV_clean_sbu_0, # of connection points: 4
#     Node 14, Type 0, BuildingBlock: TATPOV_clean_sbu_0, # of connection points: 4
#     Node 15, Type 0, BuildingBlock: TATPOV_clean_sbu_0, # of connection points: 4
#     Node 16, Type 0, BuildingBlock: TATPOV_clean_sbu_0, # of connection points: 4
#     Node 17, Type 0, BuildingBlock: TATPOV_clean_sbu_0, # of connection points: 4
#     Node 18, Type 0, BuildingBlock: TATPOV_clean_sbu_0, # of connection points: 4
#     Node 19, Type 0, BuildingBlock: TATPOV_clean_sbu_0, # of connection points: 4
#     Node 20, Type 0, BuildingBlock: TATPOV_clean_sbu_0, # of connection points: 4
#     Node 21, Type 0, BuildingBlock: TATPOV_clean_sbu_0, # of connection points: 4
#     Node 22, Type 0, BuildingBlock: TATPOV_clean_sbu_0, # of connection points: 4
#     Node 23, Type 0, BuildingBlock: TATPOV_clean_sbu_0, # of connection points: 4
#     Node 24, Type 0, BuildingBlock: TATPOV_clean_sbu_0, # of connection points: 4
#     Node 25, Type 0, BuildingBlock: TATPOV_clean_sbu_0, # of connection points: 4
#     Node 26, Type 0, BuildingBlock: TATPOV_clean_sbu_0, # of connection points: 4
#     Node 27, Type 0, BuildingBlock: TATPOV_clean_sbu_0, # of connection points: 4
#     Node 28, Type 0, BuildingBlock: TATPOV_clean_sbu_0, # of connection points: 4
#     Node 29, Type 0, BuildingBlock: TATPOV_clean_sbu_0, # of connection points: 4
#     Node 30, Type 0, BuildingBlock: TATPOV_clean_sbu_0, # of connection points: 4
#     Node 31, Type 0, BuildingBlock: TATPOV_clean_sbu_0, # of connection points: 4
#     Edge 32, Type (0, 0), BuildingBlock: AJUNOK_clean_linker_0, # of connection points: 2
#     Edge 33, Type (0, 0), BuildingBlock: AJUNOK_clean_linker_0, # of connection points: 2
#     Edge 34, Type (0, 0), BuildingBlock: AJUNOK_clean_linker_0, # of connection points: 2
#     Edge 35, Type (0, 0), BuildingBlock: AJUNOK_clean_linker_0, # of connection points: 2
#     Edge 36, Type (0, 0), BuildingBlock: AJUNOK_clean_linker_0, # of connection points: 2
#     Edge 37, Type (0, 0), BuildingBlock: AJUNOK_clean_linker_0, # of connection points: 2
#     Edge 38, Type (0, 0), BuildingBlock: AJUNOK_clean_linker_0, # of connection points: 2
#     Edge 39, Type (0, 0), BuildingBlock: AJUNOK_clean_linker_0, # of connection points: 2
#     Edge 40, Type (0, 0), BuildingBlock: AJUNOK_clean_linker_0, # of connection points: 2
#     Edge 41, Type (0, 0), BuildingBlock: AJUNOK_clean_linker_0, # of connection points: 2
#     Edge 42, Type (0, 0), BuildingBlock: AJUNOK_clean_linker_0, # of connection points: 2
#     Edge 43, Type (0, 0), BuildingBlock: AJUNOK_clean_linker_0, # of connection points: 2
#     Edge 44, Type (0, 0), BuildingBlock: AJUNOK_clean_linker_0, # of connection points: 2
#     Edge 45, Type (0, 0), BuildingBlock: AJUNOK_clean_linker_0, # of connection points: 2
#     Edge 46, Type (0, 0), BuildingBlock: AJUNOK_clean_linker_0, # of connection points: 2
#     Edge 47, Type (0, 0), BuildingBlock: AJUNOK_clean_linker_0, # of connection points: 2
#     Edge 48, Type (0, 0), BuildingBlock: AJUNOK_clean_linker_0, # of connection points: 2
#     Edge 49, Type (0, 0), BuildingBlock: AJUNOK_clean_linker_0, # of connection points: 2
#     Edge 50, Type (0, 0), BuildingBlock: AJUNOK_clean_linker_0, # of connection points: 2
#     Edge 51, Type (0, 0), BuildingBlock: AJUNOK_clean_linker_0, # of connection points: 2
#     Edge 52, Type (0, 0), BuildingBlock: AJUNOK_clean_linker_0, # of connection points: 2
#     Edge 53, Type (0, 0), BuildingBlock: AJUNOK_clean_linker_0, # of connection points: 2
#     Edge 54, Type (0, 0), BuildingBlock: AJUNOK_clean_linker_0, # of connection points: 2
#     Edge 55, Type (0, 0), BuildingBlock: AJUNOK_clean_linker_0, # of connection points: 2
#     Edge 56, Type (0, 0), BuildingBlock: AJUNOK_clean_linker_0, # of connection points: 2
#     Edge 57, Type (0, 0), BuildingBlock: AJUNOK_clean_linker_0, # of connection points: 2
#     Edge 58, Type (0, 0), BuildingBlock: AJUNOK_clean_linker_0, # of connection points: 2
#     Edge 59, Type (0, 0), BuildingBlock: AJUNOK_clean_linker_0, # of connection points: 2
#     Edge 60, Type (0, 0), BuildingBlock: AJUNOK_clean_linker_0, # of connection points: 2
#     Edge 61, Type (0, 0), BuildingBlock: AJUNOK_clean_linker_0, # of connection points: 2
#     Edge 62, Type (0, 0), BuildingBlock: AJUNOK_clean_linker_0, # of connection points: 2
#     Edge 63, Type (0, 0), BuildingBlock: AJUNOK_clean_linker_0, # of connection points: 2
#     Edge 64, Type (0, 0), BuildingBlock: AJUNOK_clean_linker_0, # of connection points: 2
#     Edge 65, Type (0, 0), BuildingBlock: AJUNOK_clean_linker_0, # of connection points: 2
#     Edge 66, Type (0, 0), BuildingBlock: AJUNOK_clean_linker_0, # of connection points: 2
#     Edge 67, Type (0, 0), BuildingBlock: AJUNOK_clean_linker_0, # of connection points: 2
#     Edge 68, Type (0, 0), BuildingBlock: AJUNOK_clean_linker_0, # of connection points: 2
#     Edge 69, Type (0, 0), BuildingBlock: AJUNOK_clean_linker_0, # of connection points: 2
#     Edge 70, Type (0, 0), BuildingBlock: AJUNOK_clean_linker_0, # of connection points: 2
#     Edge 71, Type (0, 0), BuildingBlock: AJUNOK_clean_linker_0, # of connection points: 2
#     Edge 72, Type (0, 0), BuildingBlock: AJUNOK_clean_linker_0, # of connection points: 2
#     Edge 73, Type (0, 0), BuildingBlock: AJUNOK_clean_linker_0, # of connection points: 2
#     Edge 74, Type (0, 0), BuildingBlock: AJUNOK_clean_linker_0, # of connection points: 2
#     Edge 75, Type (0, 0), BuildingBlock: AJUNOK_clean_linker_0, # of connection points: 2
#     Edge 76, Type (0, 0), BuildingBlock: AJUNOK_clean_linker_0, # of connection points: 2
#     Edge 77, Type (0, 0), BuildingBlock: AJUNOK_clean_linker_0, # of connection points: 2
#     Edge 78, Type (0, 0), BuildingBlock: AJUNOK_clean_linker_0, # of connection points: 2
#     Edge 79, Type (0, 0), BuildingBlock: AJUNOK_clean_linker_0, # of connection points: 2
#     Edge 80, Type (0, 0), BuildingBlock: AJUNOK_clean_linker_0, # of connection points: 2
#     Edge 81, Type (0, 0), BuildingBlock: AJUNOK_clean_linker_0, # of connection points: 2
#     Edge 82, Type (0, 0), BuildingBlock: AJUNOK_clean_linker_0, # of connection points: 2
#     Edge 83, Type (0, 0), BuildingBlock: AJUNOK_clean_linker_0, # of connection points: 2
#     Edge 84, Type (0, 0), BuildingBlock: AJUNOK_clean_linker_0, # of connection points: 2
#     Edge 85, Type (0, 0), BuildingBlock: AJUNOK_clean_linker_0, # of connection points: 2
#     Edge 86, Type (0, 0), BuildingBlock: AJUNOK_clean_linker_0, # of connection points: 2
#     Edge 87, Type (0, 0), BuildingBlock: AJUNOK_clean_linker_0, # of connection points: 2
#     Edge 88, Type (0, 0), BuildingBlock: AJUNOK_clean_linker_0, # of connection points: 2
#     Edge 89, Type (0, 0), BuildingBlock: AJUNOK_clean_linker_0, # of connection points: 2
#     Edge 90, Type (0, 0), BuildingBlock: AJUNOK_clean_linker_0, # of connection points: 2
#     Edge 91, Type (0, 0), BuildingBlock: AJUNOK_clean_linker_0, # of connection points: 2
#     Edge 92, Type (0, 0), BuildingBlock: AJUNOK_clean_linker_0, # of connection points: 2
#     Edge 93, Type (0, 0), BuildingBlock: AJUNOK_clean_linker_0, # of connection points: 2
#     Edge 94, Type (0, 0), BuildingBlock: AJUNOK_clean_linker_0, # of connection points: 2
#     Edge 95, Type (0, 0), BuildingBlock: AJUNOK_clean_linker_0, # of connection points: 2
# Relax obj value: 0.054
# Max RMSD: 0.083
# Mean RMSD: 0.083
data_MOF--net-uos--node1-TATPOV_clean_sbu_0--edge1-AJUNOK_clean_linker_0
_symmetry_space_group_name_H-M    P1
_symmetry_Int_Tables_number       1
_symmetry_cell_setting            triclinic
loop_
_symmetry_equiv_pos_as_xyz
'x, y, z'
_cell_length_a     61.533424
_cell_length_b     61.58912
_cell_length_c     17.892497
_cell_angle_alpha  90.001149
_cell_angle_beta   90.036425
_cell_angle_gamma 89.978076
loop_
_atom_site_label
_atom_site_type_symbol
_atom_site_fract_x
_atom_site_fract_y
_atom_site_fract_z
_atom_type_partial_charge
Zn0 Zn 0.16504 0.18048 0.25091 0.0
Zn1 Zn 0.15671 0.15526 0.13962 0.0
O2 O 0.15692 0.18553 0.08792 0.0
O3 O 0.1679 0.20568 0.18249 0.0
O4 O 0.14666 0.13465 0.05818 0.0
O5 O 0.13792 0.17536 0.30717 0.0
O6 O 0.13356 0.15006 0.222 0.0
C7 C 0.1628 0.2038 0.11439 0.0
C8 C 0.1981 0.14877 0.23099 0.0
O9 O 0.18744 0.14473 0.17129 0.0
O10 O 0.19105 0.16269 0.27692 0.0
C11 C 0.15268 0.1359 0.9903 0.0
O12 O 0.16695 0.15078 0.97151 0.0
C13 C 0.12765 0.15909 0.28298 0.0
Zn14 Zn 0.06404 0.91289 0.49797 0.0
Zn15 Zn 0.08914 0.9042 0.38623 0.0
O16 O 0.05927 0.90626 0.33304 0.0
O17 O 0.0398 0.91883 0.4269 0.0
O18 O 0.10984 0.8934 0.30612 0.0
O19 O 0.06661 0.88457 0.54985 0.0
O20 O 0.09216 0.88001 0.46554 0.0
C21 C 0.04149 0.91375 0.35869 0.0
C22 C 0.09785 0.94392 0.48427 0.0
O23 O 0.10097 0.93411 0.42223 0.0
O24 O 0.08374 0.9369 0.52956 0.0
C25 C 0.10761 0.89691 0.23648 0.0
O26 O 0.09161 0.9094 0.21374 0.0
C27 C 0.08229 0.87364 0.5243 0.0
Zn28 Zn 0.32298 0.81432 0.75331 0.0
Zn29 Zn 0.33307 0.83581 0.63891 0.0
O30 O 0.33021 0.80488 0.59361 0.0
O31 O 0.31411 0.78934 0.68946 0.0
O32 O 0.344 0.85461 0.55396 0.0
O33 O 0.35175 0.81489 0.80343 0.0
O34 O 0.35753 0.83954 0.71712 0.0
C35 C 0.32041 0.78869 0.62227 0.0
C36 C 0.29388 0.8487 0.73455 0.0
O37 O 0.30348 0.84935 0.67126 0.0
O38 O 0.30078 0.836 0.78467 0.0
C39 C 0.33837 0.85238 0.48599 0.0
O40 O 0.32399 0.83744 0.46879 0.0
C41 C 0.36347 0.8298 0.77668 0.0
Zn42 Zn 0.42216 0.06876 0.00521 0.0
Zn43 Zn 0.40006 0.08034 0.89311 0.0
O44 O 0.43061 0.07762 0.84509 0.0
O45 O 0.44671 0.06056 0.93796 0.0
O46 O 0.38109 0.09273 0.8108 0.0
O47 O 0.42202 0.09677 0.05984 0.0
O48 O 0.39736 0.10403 0.9746 0.0
C49 C 0.44693 0.06746 0.87141 0.0
C50 C 0.38743 0.04018 0.98417 0.0
O51 O 0.38648 0.05045 0.92216 0.0
O52 O 0.40041 0.04647 0.03441 0.0
C53 C 0.38226 0.08706 0.74257 0.0
O54 O 0.39589 0.07158 0.72376 0.0
C55 C 0.40737 0.10911 0.03463 0.0
Zn56 Zn 0.17762 0.81122 0.75184 0.0
Zn57 Zn 0.1644 0.83219 0.86092 0.0
O58 O 0.16659 0.80112 0.90551 0.0
O59 O 0.18653 0.78653 0.81694 0.0
O60 O 0.15157 0.8505 0.94422 0.0
O61 O 0.15003 0.81011 0.69481 0.0
O62 O 0.14134 0.83509 0.7771 0.0
C63 C 0.17781 0.78529 0.88073 0.0
C64 C 0.20495 0.84633 0.77434 0.0
O65 O 0.19428 0.8466 0.83561 0.0
O66 O 0.19924 0.83353 0.72283 0.0
C67 C 0.1576 0.84922 0.01211 0.0
O68 O 0.17337 0.83577 0.02963 0.0
C69 C 0.13717 0.82472 0.71695 0.0
Zn70 Zn 0.42801 0.92389 0.00569 0.0
Zn71 Zn 0.40416 0.91061 0.11262 0.0
O72 O 0.43421 0.91255 0.16454 0.0
O73 O 0.45172 0.93095 0.07814 0.0
O74 O 0.38442 0.89752 0.19115 0.0
O75 O 0.42814 0.89628 0.94785 0.0
O76 O 0.40263 0.88776 0.0285 0.0
C77 C 0.45101 0.92286 0.14306 0.0
C78 C 0.39213 0.95155 0.02465 0.0
O79 O 0.39016 0.94036 0.08442 0.0
O80 O 0.40643 0.94644 0.97714 0.0
C81 C 0.38536 0.90233 0.26018 0.0
O82 O 0.39932 0.91716 0.2822 0.0
C83 C 0.41332 0.88354 0.96912 0.0
Zn84 Zn 0.31872 0.18151 0.26095 0.0
Zn85 Zn 0.32908 0.15775 0.37018 0.0
O86 O 0.32942 0.18826 0.41974 0.0
O87 O 0.31286 0.20622 0.32996 0.0
O88 O 0.34002 0.13719 0.45044 0.0
O89 O 0.34648 0.1794 0.20507 0.0
O90 O 0.352 0.15342 0.28695 0.0
C91 C 0.3205 0.20555 0.39552 0.0
C92 C 0.28786 0.14869 0.27972 0.0
O93 O 0.29819 0.14652 0.34127 0.0
O94 O 0.29471 0.16181 0.2309 0.0
C95 C 0.3364 0.13937 0.52 0.0
O96 O 0.3242 0.1556 0.5427 0.0
C97 C 0.35753 0.16339 0.22735 0.0
Zn98 Zn 0.06192 0.06307 0.51335 0.0
Zn99 Zn 0.08721 0.07518 0.62134 0.0
O100 O 0.05705 0.07618 0.67221 0.0
O101 O 0.03757 0.05946 0.58661 0.0
O102 O 0.10771 0.08743 0.69949 0.0
O103 O 0.06514 0.09011 0.45331 0.0
O104 O 0.09031 0.09762 0.53677 0.0
C105 C 0.03919 0.06778 0.65101 0.0
C106 C 0.09574 0.03281 0.53606 0.0
O107 O 0.09899 0.0443 0.59452 0.0
O108 O 0.08145 0.03844 0.48917 0.0
C109 C 0.10589 0.08393 0.76925 0.0
O110 O 0.09062 0.07066 0.79269 0.0
C111 C 0.08032 0.10219 0.47628 0.0
Zn112 Zn 0.81443 0.82399 0.72587 0.0
Zn113 Zn 0.82959 0.84086 0.84097 0.0
O114 O 0.82465 0.80919 0.8758 0.0
O115 O 0.8039 0.79826 0.78322 0.0
O116 O 0.84498 0.85459 0.92947 0.0
O117 O 0.84148 0.8226 0.66614 0.0
O118 O 0.85218 0.84444 0.75596 0.0
C119 C 0.8122 0.79498 0.84686 0.0
C120 C 0.78963 0.86008 0.76381 0.0
O121 O 0.80062 0.85784 0.82402 0.0
O122 O 0.79441 0.8487 0.70742 0.0
C123 C 0.83618 0.86455 0.98393 0.0
O124 O 0.81497 0.86695 0.98476 0.0
C125 C 0.8554 0.83558 0.69239 0.0
Zn126 Zn 0.93183 0.07996 0.50362 0.0
Zn127 Zn 0.90542 0.08557 0.61683 0.0
O128 O 0.9354 0.08484 0.67032 0.0
O129 O 0.95678 0.07854 0.57381 0.0
O130 O 0.88397 0.09438 0.69735 0.0
O131 O 0.92487 0.10713 0.45022 0.0
O132 O 0.89993 0.10952 0.53769 0.0
C133 C 0.95422 0.08141 0.64317 0.0
C134 C 0.90093 0.04529 0.51968 0.0
O135 O 0.89573 0.05529 0.57958 0.0
O136 O 0.91528 0.05308 0.47675 0.0
C137 C 0.88551 0.08986 0.7665 0.0
O138 O 0.90173 0.07766 0.78937 0.0
C139 C 0.90843 0.11653 0.47726 0.0
Zn140 Zn 0.66266 0.17681 0.25435 0.0
Zn141 Zn 0.65251 0.1525 0.36359 0.0
O142 O 0.65374 0.18282 0.41467 0.0
O143 O 0.66878 0.20141 0.32323 0.0
O144 O 0.6414 0.13245 0.44524 0.0
O145 O 0.63478 0.17488 0.19938 0.0
O146 O 0.62909 0.14895 0.28132 0.0
C147 C 0.66221 0.20026 0.39002 0.0
C148 C 0.69315 0.14306 0.27052 0.0
O149 O 0.68278 0.14032 0.33169 0.0
O150 O 0.68653 0.15694 0.22373 0.0
C151 C 0.64695 0.13425 0.5135 0.0
O152 O 0.66131 0.1491 0.53185 0.0
C153 C 0.62357 0.15903 0.22188 0.0
Zn154 Zn 0.56255 0.91585 0.01713 0.0
Zn155 Zn 0.58543 0.90742 0.13168 0.0
O156 O 0.55472 0.90951 0.17944 0.0
O157 O 0.53748 0.92324 0.08243 0.0
O158 O 0.6055 0.89737 0.21506 0.0
O159 O 0.56456 0.8871 0.96791 0.0
O160 O 0.5895 0.88277 0.05443 0.0
C161 C 0.53773 0.91784 0.15056 0.0
C162 C 0.59564 0.94682 0.03289 0.0
O163 O 0.59755 0.9373 0.09607 0.0
O164 O 0.58273 0.93924 0.9845 0.0
C165 C 0.60182 0.89947 0.28464 0.0
O166 O 0.5842 0.90976 0.30621 0.0
C167 C 0.57996 0.87614 0.99532 0.0
Zn168 Zn 0.81081 0.17788 0.23802 0.0
Zn169 Zn 0.82411 0.15245 0.13594 0.0
O170 O 0.82522 0.18256 0.08471 0.0
O171 O 0.80577 0.2017 0.16378 0.0
O172 O 0.83687 0.13239 0.05732 0.0
O173 O 0.83779 0.17671 0.29927 0.0
O174 O 0.84604 0.14997 0.22278 0.0
C175 C 0.81557 0.20015 0.10192 0.0
C176 C 0.78185 0.14317 0.22028 0.0
O177 O 0.79322 0.14021 0.16136 0.0
O178 O 0.78714 0.15778 0.26634 0.0
C179 C 0.83166 0.13393 0.98868 0.0
O180 O 0.81668 0.14808 0.96943 0.0
C181 C 0.85001 0.16107 0.28149 0.0
Zn182 Zn 0.55913 0.06419 0.99956 0.0
Zn183 Zn 0.58153 0.07567 0.88811 0.0
O184 O 0.55083 0.07373 0.84053 0.0
O185 O 0.53457 0.05627 0.932 0.0
O186 O 0.60091 0.08794 0.80667 0.0
O187 O 0.55939 0.09228 0.05385 0.0
O188 O 0.58431 0.09933 0.96941 0.0
C189 C 0.53434 0.0637 0.86613 0.0
C190 C 0.59399 0.03564 0.98031 0.0
O191 O 0.59509 0.04575 0.91801 0.0
O192 O 0.58071 0.04188 0.02963 0.0
C193 C 0.59892 0.08427 0.73705 0.0
O194 O 0.58375 0.07079 0.71433 0.0
C195 C 0.57417 0.10452 0.02899 0.0
Zn196 Zn 0.67697 0.81671 0.7695 0.0
Zn197 Zn 0.66194 0.83736 0.65998 0.0
O198 O 0.66644 0.80671 0.61407 0.0
O199 O 0.68668 0.79259 0.70289 0.0
O200 O 0.6476 0.8548 0.57735 0.0
O201 O 0.64954 0.81445 0.82741 0.0
O202 O 0.63894 0.83839 0.74406 0.0
C203 C 0.67829 0.79129 0.63852 0.0
C204 C 0.70164 0.85411 0.746 0.0
O205 O 0.6905 0.85405 0.68569 0.0
O206 O 0.69744 0.84038 0.79642 0.0
C207 C 0.65456 0.85528 0.51043 0.0
O208 O 0.67224 0.84436 0.49376 0.0
C209 C 0.63564 0.828 0.80478 0.0
Zn210 Zn 0.93012 0.92343 0.4731 0.0
Zn211 Zn 0.90694 0.91529 0.36214 0.0
O212 O 0.93791 0.91401 0.3161 0.0
O213 O 0.95567 0.92957 0.40829 0.0
O214 O 0.88677 0.90745 0.27631 0.0
O215 O 0.92689 0.89496 0.52345 0.0
O216 O 0.90069 0.89145 0.44103 0.0
C217 C 0.95529 0.92224 0.34235 0.0
C218 C 0.89915 0.95577 0.45841 0.0
O219 O 0.89713 0.94634 0.39516 0.0
O220 O 0.9114 0.94764 0.50766 0.0
C221 C 0.89182 0.89229 0.23121 0.0
O222 O 0.91036 0.88207 0.24074 0.0
C223 C 0.91044 0.88483 0.49985 0.0
Zn224 Zn 0.67327 0.67682 0.7625 0.0
Zn225 Zn 0.6612 0.65651 0.64914 0.0
O226 O 0.66566 0.6875 0.60568 0.0
O227 O 0.68413 0.70124 0.69961 0.0
O228 O 0.64898 0.63869 0.56343 0.0
O229 O 0.64461 0.67872 0.81298 0.0
O230 O 0.6366 0.65448 0.72736 0.0
C231 C 0.67692 0.70284 0.63366 0.0
C232 C 0.69958 0.64057 0.7443 0.0
O233 O 0.68989 0.64084 0.68106 0.0
O234 O 0.69365 0.6536 0.79481 0.0
C235 C 0.65448 0.64101 0.49536 0.0
O236 O 0.66949 0.65535 0.47857 0.0
C237 C 0.6316 0.66483 0.78671 0.0
Zn238 Zn 0.5702 0.42814 1.00165 0.0
Zn239 Zn 0.59255 0.41612 0.89248 0.0
O240 O 0.56159 0.41678 0.84566 0.0
O241 O 0.54512 0.43491 0.9351 0.0
O242 O 0.6117 0.40326 0.81116 0.0
O243 O 0.57116 0.40099 0.06078 0.0
O244 O 0.59654 0.39378 0.97814 0.0
C245 C 0.5449 0.42671 0.87034 0.0
C246 C 0.60397 0.45755 0.97809 0.0
O247 O 0.60519 0.44688 0.9169 0.0
O248 O 0.59114 0.45128 0.02874 0.0
C249 C 0.60993 0.4077 0.74196 0.0
O250 O 0.59552 0.4222 0.72097 0.0
C251 C 0.58666 0.38919 0.03889 0.0
Zn252 Zn 0.83168 0.307 0.25142 0.0
Zn253 Zn 0.83763 0.3333 0.13779 0.0
O254 O 0.83609 0.3033 0.08508 0.0
O255 O 0.8297 0.28201 0.18168 0.0
O256 O 0.84677 0.35412 0.05541 0.0
O257 O 0.85909 0.31346 0.30412 0.0
O258 O 0.86197 0.33825 0.21632 0.0
C259 C 0.83243 0.28455 0.11225 0.0
C260 C 0.79753 0.33859 0.23591 0.0
O261 O 0.80749 0.34356 0.17566 0.0
O262 O 0.80509 0.32405 0.27859 0.0
C263 C 0.84165 0.35186 0.98691 0.0
O264 O 0.82867 0.33587 0.9679 0.0
C265 C 0.86889 0.32959 0.27668 0.0
Zn266 Zn 0.92219 0.57271 0.48993 0.0
Zn267 Zn 0.90015 0.58163 0.37837 0.0
O268 O 0.93114 0.57949 0.33246 0.0
O269 O 0.94713 0.56332 0.42725 0.0
O270 O 0.88074 0.59021 0.29104 0.0
O271 O 0.92195 0.60177 0.53696 0.0
O272 O 0.89598 0.6067 0.45464 0.0
C273 C 0.94759 0.56986 0.36035 0.0
C274 C 0.88904 0.54273 0.47926 0.0
O275 O 0.88784 0.55183 0.41516 0.0
O276 O 0.90155 0.55058 0.52825 0.0
C277 C 0.88663 0.60501 0.24574 0.0
O278 O 0.90553 0.61447 0.25623 0.0
C279 C 0.90637 0.61304 0.51254 0.0
Zn280 Zn 0.67323 0.31081 0.26175 0.0
Zn281 Zn 0.66474 0.33528 0.37582 0.0
O282 O 0.66218 0.30472 0.42399 0.0
O283 O 0.67468 0.28527 0.32995 0.0
O284 O 0.65467 0.35634 0.45609 0.0
O285 O 0.64654 0.31741 0.20394 0.0
O286 O 0.64233 0.34172 0.29266 0.0
C287 C 0.6682 0.28657 0.39685 0.0
C288 C 0.70734 0.34051 0.28876 0.0
O289 O 0.69648 0.34417 0.34834 0.0
O290 O 0.69991 0.32779 0.23958 0.0
C291 C 0.65659 0.35362 0.52625 0.0
O292 O 0.66693 0.33638 0.55098 0.0
C293 C 0.63638 0.33346 0.23055 0.0
Zn294 Zn 0.92873 0.42741 0.50956 0.0
Zn295 Zn 0.90583 0.41348 0.61576 0.0
O296 O 0.93634 0.41518 0.66514 0.0
O297 O 0.95278 0.43494 0.57994 0.0
O298 O 0.88655 0.39974 0.69481 0.0
O299 O 0.92957 0.4003 0.44972 0.0
O300 O 0.90408 0.39111 0.52967 0.0
C301 C 0.95284 0.42598 0.64352 0.0
C302 C 0.89268 0.45436 0.52986 0.0
O303 O 0.89145 0.44339 0.59037 0.0
O304 O 0.90669 0.44939 0.48126 0.0
C305 C 0.88779 0.4039 0.76433 0.0
O306 O 0.9019 0.41846 0.78728 0.0
C307 C 0.9148 0.38737 0.46992 0.0
Zn308 Zn 0.81298 0.67559 0.73807 0.0
Zn309 Zn 0.82761 0.65908 0.85249 0.0
O310 O 0.82302 0.69109 0.88496 0.0
O311 O 0.80167 0.70132 0.79311 0.0
O312 O 0.84241 0.64537 0.94268 0.0
O313 O 0.84021 0.67756 0.67968 0.0
O314 O 0.85048 0.65512 0.76834 0.0
C315 C 0.81038 0.70512 0.85573 0.0
C316 C 0.78802 0.63976 0.773 0.0
O317 O 0.79855 0.64219 0.83406 0.0
O318 O 0.79333 0.65088 0.71662 0.0
C319 C 0.83335 0.6342 0.99375 0.0
O320 O 0.81236 0.63053 0.98974 0.0
C321 C 0.85395 0.6643 0.70543 0.0
Zn322 Zn 0.56344 0.57448 0.00925 0.0
Zn323 Zn 0.58706 0.58605 0.1181 0.0
O324 O 0.55688 0.58353 0.16924 0.0
O325 O 0.53962 0.56633 0.07927 0.0
O326 O 0.60694 0.59815 0.19852 0.0
O327 O 0.56316 0.60273 0.95556 0.0
O328 O 0.58898 0.60975 0.03676 0.0
C329 C 0.54017 0.57348 0.14548 0.0
C330 C 0.59889 0.5462 0.02378 0.0
O331 O 0.60081 0.55652 0.08543 0.0
O332 O 0.58481 0.55219 0.97665 0.0
C333 C 0.60542 0.5936 0.26766 0.0
O334 O 0.59061 0.57958 0.28927 0.0
C335 C 0.57831 0.61489 0.97814 0.0
Zn336 Zn 0.3251 0.31577 0.25439 0.0
Zn337 Zn 0.3345 0.33985 0.3664 0.0
O338 O 0.333 0.30957 0.41713 0.0
O339 O 0.31881 0.29119 0.32347 0.0
O340 O 0.3455 0.3602 0.44755 0.0
O341 O 0.35334 0.31793 0.20173 0.0
O342 O 0.35857 0.3432 0.28656 0.0
C343 C 0.32479 0.29218 0.39099 0.0
C344 C 0.29432 0.34929 0.27019 0.0
O345 O 0.30428 0.3518 0.33237 0.0
O346 O 0.30131 0.33567 0.22315 0.0
C347 C 0.34288 0.3573 0.51737 0.0
O348 O 0.33123 0.3407 0.54011 0.0
C349 C 0.36462 0.33336 0.22732 0.0
Zn350 Zn 0.42975 0.57336 0.00868 0.0
Zn351 Zn 0.40586 0.58308 0.12088 0.0
O352 O 0.43619 0.58174 0.17138 0.0
O353 O 0.4544 0.56724 0.07793 0.0
O354 O 0.38559 0.59422 0.20151 0.0
O355 O 0.42739 0.6015 0.95517 0.0
O356 O 0.40233 0.60688 0.04059 0.0
C357 C 0.45352 0.57337 0.14529 0.0
C358 C 0.39623 0.54266 0.02674 0.0
O359 O 0.39376 0.55291 0.08827 0.0
O360 O 0.40975 0.54949 0.97906 0.0
C361 C 0.38732 0.59016 0.27093 0.0
O362 O 0.40271 0.57691 0.29362 0.0
C363 C 0.412 0.61281 0.98093 0.0
Zn364 Zn 0.17281 0.67033 0.74805 0.0
Zn365 Zn 0.16032 0.64998 0.85944 0.0
O366 O 0.16318 0.68124 0.90193 0.0
O367 O 0.18219 0.69547 0.81032 0.0
O368 O 0.1483 0.63302 0.94794 0.0
O369 O 0.14506 0.6709 0.6923 0.0
O370 O 0.13682 0.64625 0.77648 0.0
C371 C 0.17427 0.69688 0.87527 0.0
C372 C 0.20059 0.63568 0.77099 0.0
O373 O 0.19027 0.63573 0.833 0.0
O374 O 0.19444 0.64804 0.71883 0.0
C375 C 0.16034 0.62565 0.99997 0.0
O376 O 0.18144 0.62861 0.99558 0.0
C377 C 0.13242 0.65627 0.71572 0.0
Zn378 Zn 0.06348 0.41958 0.50131 0.0
Zn379 Zn 0.08785 0.41149 0.61405 0.0
O380 O 0.05742 0.41322 0.66454 0.0
O381 O 0.03859 0.42566 0.56892 0.0
O382 O 0.10834 0.40128 0.69605 0.0
O383 O 0.06651 0.39119 0.45031 0.0
O384 O 0.09187 0.38714 0.5356 0.0
C385 C 0.03978 0.42059 0.63724 0.0
C386 C 0.09664 0.45107 0.51508 0.0
O387 O 0.09964 0.44141 0.57749 0.0
O388 O 0.08285 0.4437 0.46924 0.0
C389 C 0.10555 0.40415 0.76581 0.0
O390 O 0.08875 0.41555 0.78846 0.0
C391 C 0.08232 0.38056 0.47647 0.0
Zn392 Zn 0.31657 0.67613 0.75567 0.0
Zn393 Zn 0.32967 0.65411 0.64633 0.0
O394 O 0.32712 0.68489 0.59959 0.0
O395 O 0.30807 0.70055 0.68841 0.0
O396 O 0.34239 0.63555 0.56347 0.0
O397 O 0.34447 0.67671 0.81157 0.0
O398 O 0.35298 0.65171 0.72912 0.0
C399 C 0.31625 0.70104 0.62363 0.0
C400 C 0.28934 0.64042 0.73525 0.0
O401 O 0.30012 0.6395 0.67428 0.0
O402 O 0.29472 0.654 0.78483 0.0
C403 C 0.33695 0.63749 0.49518 0.0
O404 O 0.32182 0.65162 0.47736 0.0
C405 C 0.35729 0.66212 0.78904 0.0
Zn406 Zn 0.06334 0.56876 0.47953 0.0
Zn407 Zn 0.08371 0.57983 0.36909 0.0
O408 O 0.05186 0.57863 0.32983 0.0
O409 O 0.03761 0.55933 0.42051 0.0
O410 O 0.10025 0.59073 0.27803 0.0
O411 O 0.06347 0.59691 0.53292 0.0
O412 O 0.08949 0.60298 0.45175 0.0
C413 C 0.036 0.56784 0.35652 0.0
C414 C 0.09712 0.53987 0.45901 0.0
O415 O 0.09694 0.54941 0.39553 0.0
O416 O 0.08522 0.54696 0.51099 0.0
C417 C 0.12043 0.58765 0.26664 0.0
O418 O 0.13169 0.57677 0.31656 0.0
C419 C 0.07942 0.60819 0.51166 0.0
Zn420 Zn 0.17527 0.31292 0.24228 0.0
Zn421 Zn 0.16288 0.3375 0.13634 0.0
O422 O 0.16221 0.30711 0.08615 0.0
O423 O 0.1801 0.28845 0.17104 0.0
O424 O 0.15062 0.35753 0.05646 0.0
O425 O 0.14827 0.31495 0.30264 0.0
O426 O 0.14069 0.34089 0.22231 0.0
C427 C 0.1714 0.28961 0.10715 0.0
C428 C 0.20516 0.34673 0.2215 0.0
O429 O 0.19379 0.34956 0.16244 0.0
O430 O 0.19946 0.33268 0.26899 0.0
C431 C 0.15655 0.35671 0.98839 0.0
O432 O 0.17193 0.34299 0.96941 0.0
C433 C 0.13635 0.33058 0.2824 0.0
Zn434 Zn 0.43187 0.42525 1.0002 0.0
Zn435 Zn 0.40976 0.41324 0.89064 0.0
O436 O 0.44067 0.41496 0.84379 0.0
O437 O 0.45661 0.43324 0.93404 0.0
O438 O 0.39075 0.40084 0.80813 0.0
O439 O 0.4319 0.39761 0.05678 0.0
O440 O 0.40641 0.39029 0.97463 0.0
C441 C 0.45705 0.4253 0.86893 0.0
C442 C 0.39714 0.45369 0.9797 0.0
O443 O 0.39621 0.44337 0.91778 0.0
O444 O 0.41027 0.44759 0.02972 0.0
C445 C 0.39151 0.40704 0.74033 0.0
O446 O 0.40487 0.4228 0.72216 0.0
C447 C 0.41661 0.38557 0.0347 0.0
C448 C 0.25124 0.13999 0.32946 0.0
C449 C 0.26582 0.13975 0.26924 0.0
C450 C 0.22878 0.14031 0.31673 0.0
C451 C 0.22025 0.14019 0.24353 0.0
H452 H 0.25709 0.14238 0.38598 0.0
H453 H 0.21811 0.14264 0.36424 0.0
S454 S 0.25178 0.13346 0.06874 0.0
N455 N 0.27034 0.13479 0.13531 0.0
N456 N 0.22807 0.13526 0.11147 0.0
C457 C 0.23461 0.1367 0.18385 0.0
C458 C 0.25748 0.13654 0.19677 0.0
C459 C 0.10837 0.98055 0.43917 0.0
C460 C 0.10684 0.96576 0.49859 0.0
C461 C 0.10767 0.00294 0.45264 0.0
C462 C 0.10566 0.01118 0.52584 0.0
H463 H 0.1075 0.97492 0.38187 0.0
H464 H 0.1065 0.01377 0.40507 0.0
S465 S 0.10765 0.97914 0.70077 0.0
N466 N 0.10822 0.96081 0.63341 0.0
N467 N 0.10698 0.00298 0.65853 0.0
C468 C 0.10761 -0.00334 0.5858 0.0
C469 C 0.10816 0.97385 0.57213 0.0
C470 C 0.23539 0.85895 0.69434 0.0
C471 C 0.22637 0.85698 0.7665 0.0
C472 C 0.25792 0.85961 0.68379 0.0
C473 C 0.27207 0.8583 0.7452 0.0
H474 H 0.22512 0.85753 0.64535 0.0
H475 H 0.26414 0.85846 0.6273 0.0
S476 S 0.2565 0.86084 0.94533 0.0
N477 N 0.23313 0.85956 0.90008 0.0
N478 N 0.27555 0.86099 0.88036 0.0
C479 C 0.26318 0.86027 0.81745 0.0
C480 C 0.24022 0.8596 0.82817 0.0
C481 C 0.37849 0.00409 0.93117 0.0
C482 C 0.3781 0.01822 0.99266 0.0
C483 C 0.38002 0.98161 0.94197 0.0
C484 C 0.38105 0.97266 0.01445 0.0
H485 H 0.38043 0.0104 0.87504 0.0
H486 H 0.38276 0.97144 0.89346 0.0
S487 S 0.37313 0.00252 0.19206 0.0
N488 N 0.37318 0.02156 0.12703 0.0
N489 N 0.37607 0.97925 0.14727 0.0
C490 C 0.37683 0.98635 0.07541 0.0
C491 C 0.37535 0.00924 0.06443 0.0
C492 C 0.75525 0.86898 0.82867 0.0
C493 C 0.76797 0.87046 0.76381 0.0
C494 C 0.73263 0.86702 0.82335 0.0
C495 C 0.72218 0.86648 0.75312 0.0
H496 H 0.7628 0.86627 0.88258 0.0
H497 H 0.72366 0.86324 0.87382 0.0
S498 S 0.74774 0.8789 0.57067 0.0
N499 N 0.76818 0.87827 0.63055 0.0
N500 N 0.72562 0.8743 0.62042 0.0
C501 C 0.73432 0.87241 0.68995 0.0
C502 C 0.75734 0.87452 0.69545 0.0
C503 C 0.89286 0.99332 0.41295 0.0
C504 C 0.89124 0.97808 0.47094 0.0
C505 C 0.89371 0.01557 0.4288 0.0
C506 C 0.89271 0.02326 0.50295 0.0
H507 H 0.89578 0.98804 0.35607 0.0
H508 H 0.89693 0.02669 0.38318 0.0
S509 S 0.88279 0.99 0.67207 0.0
N510 N 0.88446 0.9722 0.60328 0.0
N511 N 0.88585 0.0141 0.63296 0.0
C512 C 0.88809 0.00835 0.56005 0.0
C513 C 0.88743 0.98567 0.54399 0.0
C514 C 0.72322 0.13322 0.18406 0.0
C515 C 0.71489 0.13349 0.25756 0.0
C516 C 0.74566 0.13296 0.17072 0.0
C517 C 0.76036 0.13306 0.2306 0.0
H518 H 0.71244 0.13549 0.13679 0.0
H519 H 0.75138 0.13537 0.11406 0.0
S520 S 0.74691 0.12714 0.43157 0.0
N521 N 0.72307 0.12877 0.3895 0.0
N522 N 0.76528 0.12834 0.3644 0.0
C523 C 0.75223 0.12984 0.30329 0.0
C524 C 0.7294 0.13 0.31687 0.0
C525 C 0.60442 -0.00064 0.93172 0.0
C526 C 0.60419 0.01417 0.99125 0.0
C527 C 0.60462 0.97696 0.94553 0.0
C528 C 0.60466 0.96876 0.0192 0.0
H529 H 0.60182 0.0049 0.87494 0.0
H530 H 0.60248 0.96609 0.89848 0.0
S531 S 0.61121 0.00118 0.19225 0.0
N532 N 0.60941 0.01938 0.12476 0.0
N533 N 0.60977 0.97726 0.15077 0.0
C534 C 0.60808 0.98343 0.07807 0.0
C535 C 0.60781 0.00623 0.064 0.0
C536 C 0.73411 0.62619 0.69178 0.0
C537 C 0.72073 0.62947 0.75429 0.0
C538 C 0.75675 0.62577 0.6997 0.0
C539 C 0.76661 0.62881 0.77019 0.0
H540 H 0.72737 0.62674 0.63585 0.0
H541 H 0.76652 0.62587 0.64933 0.0
S542 S 0.73827 0.62892 0.9528 0.0
N543 N 0.71855 0.62876 0.89014 0.0
N544 N 0.76118 0.62843 0.90475 0.0
C545 C 0.75333 0.62769 0.83379 0.0
C546 C 0.73026 0.62797 0.8258 0.0
C547 C 0.61143 0.49399 0.92532 0.0
C548 C 0.61302 0.47962 0.98587 0.0
C549 C 0.60975 0.5164 0.93758 0.0
C550 C 0.60971 0.52506 0.01064 0.0
H551 H 0.60873 0.48787 0.86931 0.0
H552 H 0.6062 0.52673 0.89008 0.0
S553 S 0.62072 0.49451 0.18498 0.0
N554 N 0.61995 0.47577 0.11899 0.0
N555 N 0.61679 0.51792 0.14208 0.0
C556 C 0.61501 0.51115 0.07005 0.0
C557 C 0.61667 0.48834 0.05755 0.0
C558 C 0.73833 0.35022 0.20636 0.0
C559 C 0.72996 0.34803 0.27933 0.0
C560 C 0.76075 0.3498 0.19284 0.0
C561 C 0.77548 0.34688 0.25188 0.0
H562 H 0.72743 0.35045 0.15877 0.0
H563 H 0.76635 0.34956 0.13545 0.0
S564 S 0.76215 0.34541 0.45408 0.0
N565 N 0.7383 0.3468 0.41198 0.0
N566 N 0.78049 0.34581 0.38673 0.0
C567 C 0.76745 0.34735 0.32559 0.0
C568 C 0.74463 0.34803 0.33936 0.0
C569 C 0.88121 0.49007 0.58023 0.0
C570 C 0.8815 0.47536 0.52041 0.0
C571 C 0.88049 0.51247 0.56678 0.0
C572 C 0.88006 0.52076 0.49321 0.0
H573 H 0.88425 0.48448 0.63671 0.0
H574 H 0.88267 0.52331 0.6139 0.0
S575 S 0.87316 0.48842 0.32014 0.0
N576 N 0.87568 0.47018 0.38725 0.0
N577 N 0.87434 0.51231 0.36185 0.0
C578 C 0.87654 0.5061 0.43435 0.0
C579 C 0.87731 0.48331 0.44807 0.0
C580 C 0.25771 0.35922 0.31749 0.0
C581 C 0.27234 0.35824 0.25747 0.0
C582 C 0.23527 0.35839 0.30474 0.0
C583 C 0.22679 0.35673 0.23168 0.0
H584 H 0.26354 0.35804 0.37451 0.0
H585 H 0.2246 0.35683 0.35262 0.0
S586 S 0.25829 0.36031 0.05586 0.0
N587 N 0.27684 0.36062 0.12263 0.0
N588 N 0.23458 0.35906 0.09886 0.0
C589 C 0.24112 0.35925 0.1714 0.0
C590 C 0.26399 0.35998 0.18434 0.0
C591 C 0.38689 0.51221 0.94125 0.0
C592 C 0.38692 0.52079 0.01439 0.0
C593 C 0.3869 0.48976 0.9288 0.0
C594 C 0.38702 0.47525 0.98925 0.0
H595 H 0.38915 0.52283 0.89358 0.0
H596 H 0.38945 0.4839 0.87238 0.0
S597 S 0.38013 0.48937 0.18939 0.0
N598 N 0.38176 0.51305 0.14643 0.0
N599 N 0.38175 0.47079 0.12306 0.0
C600 C 0.38344 0.48361 0.06149 0.0
C601 C 0.38337 0.50647 0.07415 0.0
C602 C 0.25896 0.62833 0.81682 0.0
C603 C 0.26823 0.62922 0.74475 0.0
C604 C 0.23643 0.62678 0.82651 0.0
C605 C 0.22255 0.62615 0.76431 0.0
H606 H 0.26891 0.63124 0.8658 0.0
H607 H 0.22988 0.6289 0.88223 0.0
S608 S 0.23915 0.62021 0.56607 0.0
N609 N 0.26222 0.62352 0.61188 0.0
N610 N 0.21982 0.62049 0.63009 0.0
C611 C 0.23186 0.62305 0.69319 0.0
C612 C 0.25481 0.62463 0.68331 0.0
C613 C 0.10507 0.48074 0.4252 0.0
C614 C 0.10592 0.47277 0.49913 0.0
C615 C 0.1055 0.50306 0.4104 0.0
C616 C 0.10671 0.51808 0.46919 0.0
H617 H 0.10189 0.46979 0.37905 0.0
H618 H 0.10229 0.5085 0.35386 0.0
S619 S 0.11622 0.50546 0.66932 0.0
N620 N 0.11325 0.48149 0.62924 0.0
N621 N 0.11412 0.52351 0.60141 0.0
C622 C 0.11111 0.51023 0.5416 0.0
C623 C 0.11071 0.48749 0.55668 0.0
C624 C 0.12682 0.10619 0.95423 0.0
C625 C 0.14238 0.12174 0.93268 0.0
C626 C 0.11563 0.09368 0.9012 0.0
C627 C 0.11944 0.09615 0.82408 0.0
H628 H 0.12288 0.10386 0.01268 0.0
H629 H 0.10354 0.08228 0.9211 0.0
S630 S 0.15953 0.13366 0.7378 0.0
N631 N 0.16177 0.13815 0.82842 0.0
N632 N 0.14076 0.11471 0.72894 0.0
C633 C 0.13545 0.11117 0.80167 0.0
C634 C 0.14689 0.12392 0.85581 0.0
C635 C 0.12984 0.87696 0.05019 0.0
C636 C 0.14614 0.86205 0.0708 0.0
C637 C 0.11792 0.88848 0.10399 0.0
C638 C 0.12171 0.8856 0.18098 0.0
H639 H 0.12598 0.87962 0.99183 0.0
H640 H 0.10537 0.89947 0.08474 0.0
S641 S 0.1632 0.84914 0.26512 0.0
N642 N 0.16593 0.84559 0.17418 0.0
N643 N 0.14355 0.86715 0.2751 0.0
C644 C 0.13832 0.87111 0.20254 0.0
C645 C 0.1505 0.85938 0.14761 0.0
C646 C 0.37558 0.89368 0.39288 0.0
C647 C 0.37204 0.8903 0.31601 0.0
C648 C 0.36435 0.88165 0.44704 0.0
C649 C 0.34899 0.86572 0.42689 0.0
H650 H 0.38744 0.90546 0.41176 0.0
H651 H 0.36801 0.88472 0.5053 0.0
S652 S 0.33271 0.85136 0.23305 0.0
N653 N 0.35132 0.8704 0.22248 0.0
N654 N 0.33021 0.84786 0.32409 0.0
C655 C 0.34484 0.86255 0.35019 0.0
C656 C 0.35635 0.87479 0.29491 0.0
C657 C 0.35657 0.11687 0.70568 0.0
C658 C 0.36956 0.09903 0.68473 0.0
C659 C 0.34557 0.12942 0.65228 0.0
C660 C 0.34706 0.12476 0.57541 0.0
H661 H 0.35515 0.1215 0.76387 0.0
H662 H 0.33616 0.14318 0.67164 0.0
S663 S 0.37766 0.07888 0.49096 0.0
N664 N 0.38232 0.07667 0.58149 0.0
N665 N 0.3617 0.10024 0.48133 0.0
C666 C 0.35947 0.10658 0.55369 0.0
C667 C 0.37068 0.09375 0.60819 0.0
C668 C 0.87189 0.86624 0.05113 0.0
C669 C 0.84988 0.87244 0.04705 0.0
C670 C 0.88519 0.8728 0.11062 0.0
C671 C 0.87719 0.88604 0.1685 0.0
H672 H 0.87896 0.85599 0.00839 0.0
H673 H 0.90195 0.86741 0.11093 0.0
S674 S 0.82083 0.90716 0.18436 0.0
N675 N 0.82072 0.89285 0.10633 0.0
N676 N 0.84578 0.9053 0.21777 0.0
C677 C 0.85528 0.89261 0.16493 0.0
C678 C 0.84163 0.88577 0.10445 0.0
C679 C 0.86099 0.10762 0.95211 0.0
C680 C 0.84381 0.12143 0.93081 0.0
C681 C 0.87392 0.09704 0.89875 0.0
C682 C 0.8703 0.0998 0.8216 0.0
H683 H 0.86486 0.10527 0.01062 0.0
H684 H 0.8872 0.087 0.91844 0.0
S685 S 0.82635 0.1329 0.7358 0.0
N686 N 0.8231 0.13627 0.82661 0.0
N687 N 0.84736 0.11647 0.72664 0.0
C688 C 0.85269 0.11297 0.79941 0.0
C689 C 0.83948 0.12373 0.85382 0.0
C690 C 0.6091 0.09306 0.60459 0.0
C691 C 0.61251 0.09622 0.68166 0.0
C692 C 0.62062 0.10506 0.55096 0.0
C693 C 0.63612 0.12076 0.57186 0.0
H694 H 0.59714 0.08146 0.58515 0.0
H695 H 0.61704 0.10217 0.49252 0.0
S696 S 0.65203 0.13466 0.76653 0.0
N697 N 0.63322 0.11578 0.77614 0.0
N698 N 0.65483 0.13823 0.67564 0.0
C699 C 0.64013 0.12371 0.64877 0.0
C700 C 0.62836 0.1115 0.70348 0.0
C701 C 0.62346 0.87912 0.47139 0.0
C702 C 0.6422 0.86729 0.45177 0.0
C703 C 0.61086 0.88979 0.41729 0.0
C704 C 0.61638 0.8891 0.34095 0.0
H705 H 0.61824 0.88 0.52911 0.0
H706 H 0.59646 0.89838 0.43568 0.0
S707 S 0.6644 0.86109 0.25977 0.0
N708 N 0.66605 0.85612 0.35024 0.0
N709 N 0.6424 0.87609 0.24876 0.0
C710 C 0.63534 0.87769 0.32054 0.0
C711 C 0.64822 0.86684 0.37577 0.0
C712 C 0.62715 0.61307 0.45536 0.0
C713 C 0.64318 0.62837 0.43579 0.0
C714 C 0.61543 0.60165 0.40076 0.0
C715 C 0.61913 0.60504 0.32399 0.0
H716 H 0.62336 0.61 0.51352 0.0
H717 H 0.60309 0.59032 0.41923 0.0
S718 S 0.66002 0.64258 0.24243 0.0
N719 N 0.66266 0.64572 0.33358 0.0
N720 N 0.64065 0.62434 0.2312 0.0
C721 C 0.63544 0.61996 0.30346 0.0
C722 C 0.64744 0.63157 0.35918 0.0
C723 C 0.63636 0.37812 0.70894 0.0
C724 C 0.62284 0.39531 0.68566 0.0
C725 C 0.64755 0.36514 0.6572 0.0
C726 C 0.64579 0.36876 0.57972 0.0
H727 H 0.63805 0.3743 0.76775 0.0
H728 H 0.65737 0.35191 0.67841 0.0
S729 S 0.61353 0.41252 0.48909 0.0
N730 N 0.60914 0.41585 0.57935 0.0
N731 N 0.63011 0.39154 0.48236 0.0
C732 C 0.63282 0.3863 0.55559 0.0
C733 C 0.62139 0.39953 0.60838 0.0
C734 C 0.87825 0.39428 0.89663 0.0
C735 C 0.87458 0.39146 0.81953 0.0
C736 C 0.86716 0.38183 0.95005 0.0
C737 C 0.85184 0.36598 0.92892 0.0
H738 H 0.89014 0.40594 0.91622 0.0
H739 H 0.87099 0.38443 0.00846 0.0
S740 S 0.83502 0.35317 0.73428 0.0
N741 N 0.8536 0.37229 0.7249 0.0
N742 N 0.83277 0.34896 0.82504 0.0
C743 C 0.84749 0.36343 0.85205 0.0
C744 C 0.85883 0.37612 0.79754 0.0
C745 C 0.88092 0.62583 0.12699 0.0
C746 C 0.87258 0.61171 0.18184 0.0
C747 C 0.8682 0.63276 0.06647 0.0
C748 C 0.84645 0.62604 0.05809 0.0
H749 H 0.8975 0.63164 0.13053 0.0
H750 H 0.87551 0.64367 0.02623 0.0
S751 S 0.8167 0.58893 0.18589 0.0
N752 N 0.84112 0.59107 0.22341 0.0
N753 N 0.81718 0.60417 0.11001 0.0
C754 C 0.83787 0.61184 0.11237 0.0
C755 C 0.85092 0.60466 0.17399 0.0
C756 C 0.3526 0.36674 0.64969 0.0
C757 C 0.35432 0.37134 0.57281 0.0
C758 C 0.36433 0.37861 0.70313 0.0
C759 C 0.37831 0.39567 0.68229 0.0
H760 H 0.34239 0.35358 0.66905 0.0
H761 H 0.3626 0.37409 0.76133 0.0
S762 S 0.38785 0.41511 0.48837 0.0
N763 N 0.37057 0.39482 0.47874 0.0
N764 N 0.39252 0.41711 0.57896 0.0
C765 C 0.37977 0.40085 0.6057 0.0
C766 C 0.36782 0.38872 0.55114 0.0
C767 C 0.36413 0.60917 0.45708 0.0
C768 C 0.3485 0.62478 0.43642 0.0
C769 C 0.37617 0.59777 0.40328 0.0
C770 C 0.37319 0.60147 0.3263 0.0
H771 H 0.36736 0.60585 0.51549 0.0
H772 H 0.38818 0.58619 0.42256 0.0
S773 S 0.33371 0.64008 0.24195 0.0
N774 N 0.33025 0.64286 0.33291 0.0
N775 N 0.35284 0.62152 0.23206 0.0
C776 C 0.35726 0.6167 0.30465 0.0
C777 C 0.34496 0.62831 0.35954 0.0
C778 C 0.1281 0.61696 0.08071 0.0
C779 C 0.15054 0.61501 0.06678 0.0
C780 C 0.11858 0.608 0.14498 0.0
C781 C 0.13102 0.59653 0.19811 0.0
H782 H 0.11778 0.62582 0.04228 0.0
H783 H 0.10128 0.61024 0.15313 0.0
S784 S 0.19034 0.58564 0.18593 0.0
N785 N 0.18485 0.59995 0.11026 0.0
N786 N 0.16702 0.58305 0.23055 0.0
C787 C 0.15343 0.59406 0.1841 0.0
C788 C 0.16315 0.6033 0.11872 0.0
C789 C 0.11532 0.39477 0.8982 0.0
C790 C 0.11998 0.39322 0.82132 0.0
C791 C 0.12753 0.38336 0.95161 0.0
C792 C 0.145 0.36988 0.93068 0.0
H793 H 0.10181 0.40454 0.91757 0.0
H794 H 0.12291 0.38486 0.00978 0.0
S795 S 0.16494 0.36126 0.73685 0.0
N796 N 0.14409 0.37788 0.72728 0.0
N797 N 0.167 0.35653 0.82737 0.0
C798 C 0.1503 0.3687 0.85413 0.0
C799 C 0.13783 0.38032 0.79964 0.0
C800 C 0.14803 0.25969 0.06389 0.0
C801 C 0.16881 0.26918 0.06587 0.0
C802 C 0.14568 0.23701 0.0657 0.0
C803 C 0.16404 0.22347 0.06852 0.0
H804 H 0.13372 0.26966 0.0722 0.0
H805 H 0.12966 0.2303 0.07554 0.0
S806 S 0.2215 0.24049 0.05347 0.0
N807 N 0.20766 0.26348 0.05472 0.0
N808 N 0.2032 0.2209 0.05682 0.0
C809 C 0.18458 0.23277 0.05751 0.0
C810 C 0.18699 0.25574 0.05648 0.0
C811 C 0.98978 0.93878 0.30409 0.0
C812 C 0.97624 0.92042 0.30372 0.0
C813 C 0.01236 0.93652 0.30846 0.0
C814 C 0.02194 0.91586 0.31251 0.0
H815 H 0.98283 0.95482 0.31135 0.0
H816 H 0.02205 0.9509 0.31895 0.0
S817 S 0.99386 0.86304 0.29448 0.0
N818 N 0.9741 0.88121 0.29233 0.0
N819 N 0.01673 0.87698 0.30095 0.0
C820 C 0.00886 0.89759 0.2999 0.0
C821 C 0.98581 0.89988 0.29521 0.0
C822 C 0.33687 0.75538 0.56982 0.0
C823 C 0.31814 0.76789 0.583 0.0
C824 C 0.33576 0.73258 0.5703 0.0
C825 C 0.31593 0.72198 0.58428 0.0
H826 H 0.35271 0.76305 0.56928 0.0
H827 H 0.35081 0.72344 0.57002 0.0
S828 S 0.26178 0.74767 0.60099 0.0
N829 N 0.27886 0.76825 0.59391 0.0
N830 N 0.27678 0.7255 0.59497 0.0
C831 C 0.29681 0.73437 0.58539 0.0
C832 C 0.29793 0.75742 0.58475 0.0
C833 C 0.47977 0.08431 0.81689 0.0
C834 C 0.46745 0.06549 0.8302 0.0
C835 C 0.50259 0.0833 0.8151 0.0
C836 C 0.51339 0.06346 0.82682 0.0
H837 H 0.47203 0.10011 0.81811 0.0
H838 H 0.51167 0.09837 0.81513 0.0
S839 S 0.48808 0.00917 0.84274 0.0
N840 N 0.46736 0.02619 0.83866 0.0
N841 N 0.51015 0.02429 0.83543 0.0
C842 C 0.50109 0.0443 0.82779 0.0
C843 C 0.47803 0.04533 0.82956 0.0
C844 C 0.19706 0.75146 0.91156 0.0
C845 C 0.17799 0.76389 0.91729 0.0
C846 C 0.19612 0.72881 0.90945 0.0
C847 C 0.17609 0.71794 0.91344 0.0
H848 H 0.21244 0.75928 0.8994 0.0
H849 H 0.2108 0.71991 0.89592 0.0
S850 S 0.1223 0.74294 0.94767 0.0
N851 N 0.13916 0.76374 0.94174 0.0
N852 N 0.13741 0.72092 0.93809 0.0
C853 C 0.15742 0.73 0.93101 0.0
C854 C 0.15837 0.75317 0.93301 0.0
C855 C 0.48165 0.90252 0.19849 0.0
C856 C 0.47135 0.92259 0.18601 0.0
C857 C 0.50444 0.90118 0.20104 0.0
C858 C 0.51723 0.91988 0.19162 0.0
H859 H 0.47238 0.88759 0.1955 0.0
H860 H 0.51195 0.88526 0.19964 0.0
S861 S 0.49765 0.97656 0.17927 0.0
N862 N 0.47528 0.96174 0.18105 0.0
N863 N 0.51803 0.95921 0.18632 0.0
C864 C 0.50695 0.94019 0.19206 0.0
C865 C 0.4839 0.94156 0.18909 0.0
C866 C 0.30235 0.23875 0.43837 0.0
C867 C 0.32137 0.22614 0.43676 0.0
C868 C 0.30348 0.26142 0.43723 0.0
C869 C 0.32365 0.27204 0.43454 0.0
H870 H 0.28665 0.23113 0.43021 0.0
H871 H 0.28862 0.2705 0.42815 0.0
S872 S 0.37786 0.2464 0.44877 0.0
N873 N 0.36068 0.22578 0.44789 0.0
N874 N 0.36279 0.2686 0.44563 0.0
C875 C 0.34258 0.25974 0.44542 0.0
C876 C 0.34143 0.23659 0.44665 0.0
C877 C 0.98818 0.09637 0.6936 0.0
C878 C 0.97353 0.07891 0.69026 0.0
C879 C 0.01068 0.09263 0.69536 0.0
C880 C 0.0189 0.07135 0.69232 0.0
H881 H 0.98244 0.11279 0.68423 0.0
H882 H 0.0215 0.10634 0.68763 0.0
S883 S 0.98706 0.02052 0.70272 0.0
N884 N 0.96858 0.03998 0.70057 0.0
N885 N 0.01087 0.03291 0.70171 0.0
C886 C 0.00438 0.054 0.70106 0.0
C887 C 0.98157 0.05783 0.70061 0.0
C888 C 0.82754 0.73871 0.90531 0.0
C889 C 0.80858 0.72732 0.88543 0.0
C890 C 0.82804 0.76151 0.90264 0.0
C891 C 0.80958 0.77329 0.88004 0.0
H892 H 0.84264 0.73004 0.91432 0.0
H893 H 0.84349 0.76968 0.90985 0.0
S894 S 0.75464 0.75113 0.84353 0.0
N895 N 0.76995 0.72953 0.85865 0.0
N896 N 0.77089 0.77227 0.85347 0.0
C897 C 0.78987 0.76216 0.87091 0.0
C898 C 0.78936 0.73911 0.87373 0.0
C899 C 0.68331 0.23048 0.44157 0.0
C900 C 0.66301 0.22028 0.43431 0.0
C901 C 0.68488 0.25313 0.4436 0.0
C902 C 0.66618 0.26613 0.43827 0.0
H903 H 0.69811 0.2211 0.43542 0.0
H904 H 0.70084 0.26044 0.43887 0.0
S905 S 0.6092 0.24704 0.43673 0.0
N906 N 0.62383 0.22453 0.43658 0.0
N907 N 0.62678 0.2673 0.44024 0.0
C908 C 0.64578 0.25608 0.44319 0.0
C909 C 0.64418 0.23297 0.44119 0.0
C910 C 0.84616 0.25012 0.06159 0.0
C911 C 0.82925 0.26542 0.06498 0.0
C912 C 0.84157 0.22782 0.059 0.0
C913 C 0.81995 0.22044 0.06155 0.0
H914 H 0.86279 0.25519 0.0714 0.0
H915 H 0.85486 0.21648 0.06658 0.0
S916 S 0.77036 0.25426 0.05037 0.0
N917 N 0.79054 0.27192 0.05367 0.0
N918 N 0.78183 0.23 0.05114 0.0
C919 C 0.80318 0.23564 0.05269 0.0
C920 C 0.80788 0.25825 0.05387 0.0
C921 C 0.69863 0.73547 0.60707 0.0
C922 C 0.67902 0.72414 0.59713 0.0
C923 C 0.69896 0.75815 0.60857 0.0
C924 C 0.67968 0.77016 0.60025 0.0
H925 H 0.71327 0.7268 0.62281 0.0
H926 H 0.71386 0.76619 0.62525 0.0
S927 S 0.62535 0.74817 0.55338 0.0
N928 N 0.64085 0.72646 0.56353 0.0
N929 N 0.64145 0.76931 0.56634 0.0
C930 C 0.66074 0.75914 0.57828 0.0
C931 C 0.66041 0.73594 0.57672 0.0
C932 C 0.51202 0.44609 0.83007 0.0
C933 C 0.52401 0.42668 0.83049 0.0
C934 C 0.48931 0.44574 0.82949 0.0
C935 C 0.47796 0.42595 0.82938 0.0
H936 H 0.52014 0.46146 0.83973 0.0
H937 H 0.48068 0.46084 0.83881 0.0
S938 S 0.50191 0.37106 0.812 0.0
N939 N 0.5231 0.3875 0.816 0.0
N940 N 0.48019 0.38682 0.81498 0.0
C941 C 0.48971 0.4067 0.81782 0.0
C942 C 0.51293 0.40707 0.81839 0.0
C943 C 0.97974 0.54857 0.32572 0.0
C944 C 0.96848 0.56836 0.3211 0.0
C945 C 0.00243 0.54809 0.32547 0.0
C946 C 0.01451 0.56739 0.32056 0.0
H947 H 0.97106 0.53374 0.33879 0.0
H948 H 0.01051 0.53288 0.338 0.0
S949 S 0.99256 0.62265 0.2898 0.0
N950 N 0.97079 0.6071 0.2975 0.0
N951 N 0.0137 0.60622 0.29684 0.0
C952 C 0.00347 0.5868 0.30445 0.0
C953 C 0.98026 0.58728 0.30475 0.0
C954 C 0.98662 0.44396 0.68325 0.0
C955 C 0.97376 0.42511 0.68326 0.0
C956 C 0.0093 0.44254 0.68214 0.0
C957 C 0.0197 0.42225 0.68104 0.0
H958 H 0.97917 0.45969 0.6741 0.0
H959 H 0.01855 0.45722 0.67187 0.0
S960 S 0.99346 0.36852 0.69996 0.0
N961 N 0.97301 0.38591 0.69785 0.0
N962 N 0.01583 0.38329 0.69527 0.0
C963 C 0.00718 0.40358 0.69343 0.0
C964 C 0.98401 0.40501 0.69479 0.0
C965 C 0.48538 0.59209 0.19851 0.0
C966 C 0.47383 0.57263 0.18815 0.0
C967 C 0.50822 0.5921 0.19858 0.0
C968 C 0.51981 0.57266 0.18806 0.0
H969 H 0.47695 0.60752 0.19571 0.0
H970 H 0.51661 0.60755 0.19585 0.0
S971 S 0.49686 0.5172 0.18029 0.0
N972 N 0.47543 0.53331 0.18425 0.0
N973 N 0.51828 0.53333 0.1842 0.0
C974 C 0.50839 0.55298 0.19054 0.0
C975 C 0.48529 0.55297 0.19059 0.0
C976 C 0.09859 0.13148 0.30255 0.0
C977 C 0.11156 0.14826 0.33166 0.0
C978 C 0.08705 0.11757 0.34992 0.0
C979 C 0.0884 0.11978 0.42804 0.0
H980 H 0.09825 0.12831 0.24299 0.0
H981 H 0.07828 0.10412 0.32522 0.0
S982 S 0.11697 0.16321 0.53224 0.0
N983 N 0.12254 0.16811 0.44358 0.0
N984 N 0.1012 0.14155 0.53224 0.0
C985 C 0.0998 0.1375 0.45769 0.0
C986 C 0.11127 0.1519 0.40953 0.0
C987 C 0.08939 0.85735 0.64893 0.0
C988 C 0.09196 0.8564 0.57081 0.0
C989 C 0.10308 0.84561 0.6964 0.0
C990 C 0.11951 0.83222 0.66738 0.0
H991 H 0.07799 0.86861 0.67398 0.0
H992 H 0.10163 0.84808 0.75615 0.0
S993 S 0.12958 0.82051 0.46655 0.0
N994 N 0.10972 0.83853 0.46638 0.0
N995 N 0.13523 0.81597 0.55541 0.0
C996 C 0.12055 0.8292 0.58934 0.0
C997 C 0.10681 0.84144 0.54103 0.0
C998 C 0.39238 0.84957 0.94836 0.0
C999 C 0.40589 0.86591 0.91944 0.0
C1000 C 0.38035 0.83617 0.90087 0.0
C1001 C 0.38112 0.83892 0.8228 0.0
H1002 H 0.38998 0.84804 0.00813 0.0
H1003 H 0.36899 0.8249 0.92601 0.0
S1004 S 0.41755 0.87608 0.71874 0.0
N1005 N 0.42227 0.88153 0.80763 0.0
N1006 N 0.3992 0.85653 0.71842 0.0
C1007 C 0.39632 0.85354 0.79304 0.0
C1008 C 0.40885 0.86701 0.84143 0.0
C1009 C 0.40112 0.12525 0.16002 0.0
C1010 C 0.39914 0.1269 0.08185 0.0
C1011 C 0.38879 0.13843 0.20741 0.0
C1012 C 0.37435 0.15395 0.17829 0.0
H1013 H 0.41092 0.11256 0.18501 0.0
H1014 H 0.38963 0.13552 0.26707 0.0
S1015 S 0.3669 0.16773 0.97765 0.0
N1016 N 0.38429 0.14732 0.97752 0.0
N1017 N 0.36139 0.17254 0.06642 0.0
C1018 C 0.37407 0.15738 0.10038 0.0
C1019 C 0.38639 0.1437 0.05212 0.0
C1020 C 0.88333 0.8553 0.51823 0.0
C1021 C 0.90039 0.86792 0.54717 0.0
C1022 C 0.86996 0.84315 0.5655 0.0
C1023 C 0.87298 0.84347 0.6435 0.0
H1024 H 0.87945 0.8558 0.45918 0.0
H1025 H 0.85618 0.83483 0.54103 0.0
S1026 S 0.91789 0.87028 0.746 0.0
N1027 N 0.92172 0.87713 0.65779 0.0
N1028 N 0.89615 0.8546 0.7465 0.0
C1029 C 0.89118 0.85428 0.67246 0.0
C1030 C 0.90504 0.86642 0.62425 0.0
C1031 C 0.88524 0.14259 0.30469 0.0
C1032 C 0.86734 0.15405 0.33289 0.0
C1033 C 0.89978 0.13217 0.35276 0.0
C1034 C 0.89662 0.13243 0.43075 0.0
H1035 H 0.8875 0.14083 0.24493 0.0
H1036 H 0.91264 0.12254 0.32801 0.0
S1037 S 0.85392 0.16278 0.53299 0.0
N1038 N 0.84864 0.16733 0.44385 0.0
N1039 N 0.87579 0.14724 0.53431 0.0
C1040 C 0.87975 0.14524 0.45989 0.0
C1041 C 0.86513 0.15619 0.41088 0.0
C1042 C 0.59209 0.13439 0.20156 0.0
C1043 C 0.60675 0.1497 0.17256 0.0
C1044 C 0.5799 0.1211 0.15407 0.0
C1045 C 0.58226 0.12243 0.07596 0.0
H1046 H 0.591 0.1317 0.26129 0.0
H1047 H 0.56992 0.10857 0.17905 0.0
S1048 S 0.61525 0.1626 0.97171 0.0
N1049 N 0.62035 0.16774 0.06057 0.0
N1050 N 0.59771 0.14233 0.97155 0.0
C1051 C 0.59522 0.13904 0.04619 0.0
C1052 C 0.60739 0.15283 0.09451 0.0
C1053 C 0.60049 0.84699 0.82526 0.0
C1054 C 0.6177 0.83466 0.85453 0.0
C1055 C 0.58662 0.85862 0.87237 0.0
C1056 C 0.58977 0.85862 0.95033 0.0
H1057 H 0.5986 0.84888 0.76539 0.0
H1058 H 0.57464 0.86916 0.84681 0.0
S1059 S 0.62932 0.82507 0.05572 0.0
N1060 N 0.63465 0.81999 0.967 0.0
N1061 N 0.60876 0.8423 0.05538 0.0
C1062 C 0.60531 0.84445 0.98068 0.0
C1063 C 0.61926 0.83232 0.93274 0.0
C1064 C 0.60144 0.64746 0.9586 0.0
C1065 C 0.58647 0.63245 0.92951 0.0
C1066 C 0.61449 0.65988 0.91118 0.0
C1067 C 0.61325 0.65742 0.83307 0.0
H1068 H 0.60424 0.64848 0.01829 0.0
H1069 H 0.62695 0.66994 0.93628 0.0
S1070 S 0.57305 0.6244 0.72888 0.0
N1071 N 0.56819 0.61901 0.81771 0.0
N1072 N 0.59318 0.64211 0.72868 0.0
C1073 C 0.5966 0.64448 0.80331 0.0
C1074 C 0.58305 0.63204 0.85161 0.0
C1075 C 0.62078 0.34221 0.10583 0.0
C1076 C 0.62 0.34458 0.18406 0.0
C1077 C 0.60883 0.3559 0.05896 0.0
C1078 C 0.59538 0.37218 0.08862 0.0
H1079 H 0.63176 0.33065 0.08022 0.0
H1080 H 0.61091 0.35435 0.99906 0.0
S1081 S 0.58503 0.38273 0.29001 0.0
N1082 N 0.60289 0.36273 0.28934 0.0
N1083 N 0.58005 0.38829 0.20137 0.0
C1084 C 0.593 0.37347 0.16684 0.0
C1085 C 0.60543 0.35972 0.21457 0.0
C1086 C 0.8959 0.35228 0.44825 0.0
C1087 C 0.90783 0.36978 0.41939 0.0
C1088 C 0.88501 0.33795 0.40074 0.0
C1089 C 0.88528 0.3409 0.32266 0.0
H1090 H 0.89403 0.35029 0.50807 0.0
H1091 H 0.87497 0.32551 0.42598 0.0
S1092 S 0.91713 0.38205 0.21862 0.0
N1093 N 0.92181 0.38753 0.30752 0.0
N1094 N 0.90084 0.36076 0.21825 0.0
C1095 C 0.89868 0.35717 0.29284 0.0
C1096 C 0.9101 0.37159 0.34126 0.0
C1097 C 0.86808 0.65665 0.57812 0.0
C1098 C 0.87134 0.65629 0.65601 0.0
C1099 C 0.88089 0.644 0.53052 0.0
C1100 C 0.89759 0.63084 0.55906 0.0
H1101 H 0.85441 0.66528 0.5541 0.0
H1102 H 0.87669 0.64343 0.47173 0.0
S1103 S 0.91601 0.62862 0.75695 0.0
N1104 N 0.89467 0.64485 0.75812 0.0
N1105 N 0.91926 0.62144 0.66877 0.0
C1106 C 0.90271 0.6325 0.63578 0.0
C1107 C 0.8894 0.64512 0.68433 0.0
C1108 C 0.38142 0.33973 0.10297 0.0
C1109 C 0.38218 0.34252 0.18104 0.0
C1110 C 0.394 0.35265 0.05556 0.0
C1111 C 0.40806 0.3685 0.08458 0.0
H1112 H 0.36979 0.32873 0.0778 0.0
H1113 H 0.39173 0.35107 0.99574 0.0
S1114 S 0.41922 0.37896 0.2856 0.0
N1115 N 0.40033 0.35994 0.28565 0.0
N1116 N 0.42443 0.38399 0.19677 0.0
C1117 C 0.41072 0.36978 0.16276 0.0
C1118 C 0.39762 0.35684 0.21099 0.0
C1119 C 0.40479 0.62894 0.85609 0.0
C1120 C 0.40248 0.6301 0.93425 0.0
C1121 C 0.39119 0.64085 0.80883 0.0
C1122 C 0.37508 0.6546 0.83808 0.0
H1123 H 0.4159 0.61741 0.83093 0.0
H1124 H 0.39241 0.63821 0.7491 0.0
S1125 S 0.36594 0.66701 0.03894 0.0
N1126 N 0.38543 0.64859 0.03885 0.0
N1127 N 0.36007 0.67143 0.95018 0.0
C1128 C 0.37437 0.65783 0.91606 0.0
C1129 C 0.38803 0.64542 0.96418 0.0
C1130 C 0.11791 0.65039 0.58753 0.0
C1131 C 0.11524 0.64816 0.66535 0.0
C1132 C 0.10506 0.63861 0.5374 0.0
C1133 C 0.08882 0.62447 0.56321 0.0
H1134 H 0.13107 0.66006 0.56497 0.0
H1135 H 0.10872 0.63967 0.47829 0.0
S1136 S 0.0725 0.61638 0.76146 0.0
N1137 N 0.09331 0.63323 0.76563 0.0
N1138 N 0.06864 0.61144 0.67175 0.0
C1139 C 0.0845 0.62387 0.64072 0.0
C1140 C 0.09789 0.63559 0.69176 0.0
C1141 C 0.10266 0.35191 0.30465 0.0
C1142 C 0.11942 0.33885 0.33326 0.0
C1143 C 0.0892 0.36381 0.35237 0.0
C1144 C 0.09234 0.36341 0.43034 0.0
H1145 H 0.10064 0.35383 0.24485 0.0
H1146 H 0.07739 0.37465 0.32737 0.0
S1147 S 0.13163 0.32908 0.53387 0.0
N1148 N 0.13653 0.32391 0.44491 0.0
N1149 N 0.11144 0.34674 0.53449 0.0
C1150 C 0.10778 0.349 0.45995 0.0
C1151 C 0.12128 0.33659 0.41138 0.0
loop_
_geom_bond_atom_site_label_1
_geom_bond_atom_site_label_2
_geom_bond_distance
_geom_bond_site_symmetry_2
_ccdc_geom_bond_type
Zn0 O3 2.031 . S
Zn0 O5 2.049 . S
Zn0 O10 2.067 . S
Zn1 O2 1.962 . S
Zn1 O4 1.986 . S
Zn1 O6 1.996 . S
Zn1 O9 1.943 . S
O2 Zn1 1.962 . S
O2 C7 1.254 . S
O3 Zn0 2.031 . S
O3 C7 1.269 . S
O4 Zn1 1.986 . S
O4 C11 1.262 . S
O5 Zn0 2.049 . S
O5 C13 1.260 . S
O6 Zn1 1.996 . S
O6 C13 1.257 . S
C7 O2 1.254 . S
C7 O3 1.269 . S
C8 O9 1.249 . S
C8 O10 1.270 . S
O9 Zn1 1.943 . S
O9 C8 1.249 . S
O10 Zn0 2.067 . S
O10 C8 1.270 . S
C11 O4 1.262 . S
C11 O12 1.232 1_554 S
O12 C11 1.232 1_556 S
C13 O5 1.260 . S
C13 O6 1.257 . S
Zn14 O17 2.031 . S
Zn14 O19 2.049 . S
Zn14 O24 2.067 . S
Zn15 O16 1.962 . S
Zn15 O18 1.986 . S
Zn15 O20 1.996 . S
Zn15 O23 1.943 . S
O16 Zn15 1.962 . S
O16 C21 1.254 . S
O17 Zn14 2.031 . S
O17 C21 1.269 . S
O18 Zn15 1.986 . S
O18 C25 1.262 . S
O19 Zn14 2.049 . S
O19 C27 1.260 . S
O20 Zn15 1.996 . S
O20 C27 1.257 . S
C21 O16 1.254 . S
C21 O17 1.269 . S
C22 O23 1.249 . S
C22 O24 1.270 . S
O23 Zn15 1.943 . S
O23 C22 1.249 . S
O24 Zn14 2.067 . S
O24 C22 1.270 . S
C25 O18 1.262 . S
C25 O26 1.232 . S
O26 C25 1.232 . S
C27 O19 1.260 . S
C27 O20 1.257 . S
Zn28 O31 2.031 . S
Zn28 O33 2.049 . S
Zn28 O38 2.067 . S
Zn29 O30 1.962 . S
Zn29 O32 1.986 . S
Zn29 O34 1.996 . S
Zn29 O37 1.943 . S
O30 Zn29 1.962 . S
O30 C35 1.254 . S
O31 Zn28 2.031 . S
O31 C35 1.269 . S
O32 Zn29 1.986 . S
O32 C39 1.262 . S
O33 Zn28 2.049 . S
O33 C41 1.260 . S
O34 Zn29 1.996 . S
O34 C41 1.257 . S
C35 O30 1.254 . S
C35 O31 1.269 . S
C36 O37 1.249 . S
C36 O38 1.270 . S
O37 Zn29 1.943 . S
O37 C36 1.249 . S
O38 Zn28 2.067 . S
O38 C36 1.270 . S
C39 O32 1.262 . S
C39 O40 1.232 . S
O40 C39 1.232 . S
C41 O33 1.260 . S
C41 O34 1.257 . S
Zn42 O45 2.031 1_554 S
Zn42 O47 2.049 . S
Zn42 O52 2.067 . S
Zn43 O44 1.962 . S
Zn43 O46 1.986 . S
Zn43 O48 1.996 . S
Zn43 O51 1.943 . S
O44 Zn43 1.962 . S
O44 C49 1.254 . S
O45 Zn42 2.031 1_556 S
O45 C49 1.269 . S
O46 Zn43 1.986 . S
O46 C53 1.262 . S
O47 Zn42 2.049 . S
O47 C55 1.260 . S
O48 Zn43 1.996 . S
O48 C55 1.257 1_556 S
C49 O44 1.254 . S
C49 O45 1.269 . S
C50 O51 1.249 . S
C50 O52 1.270 1_556 S
O51 Zn43 1.943 . S
O51 C50 1.249 . S
O52 Zn42 2.067 . S
O52 C50 1.270 1_554 S
C53 O46 1.262 . S
C53 O54 1.232 . S
O54 C53 1.232 . S
C55 O47 1.260 . S
C55 O48 1.257 1_554 S
Zn56 O59 2.031 . S
Zn56 O61 2.049 . S
Zn56 O66 2.067 . S
Zn57 O58 1.962 . S
Zn57 O60 1.986 . S
Zn57 O62 1.996 . S
Zn57 O65 1.943 . S
O58 Zn57 1.962 . S
O58 C63 1.254 . S
O59 Zn56 2.031 . S
O59 C63 1.269 . S
O60 Zn57 1.986 . S
O60 C67 1.262 . S
O61 Zn56 2.049 . S
O61 C69 1.260 . S
O62 Zn57 1.996 . S
O62 C69 1.257 . S
C63 O58 1.254 . S
C63 O59 1.269 . S
C64 O65 1.249 . S
C64 O66 1.270 . S
O65 Zn57 1.943 . S
O65 C64 1.249 . S
O66 Zn56 2.067 . S
O66 C64 1.270 . S
C67 O60 1.262 . S
C67 O68 1.232 1_556 S
O68 C67 1.232 1_554 S
C69 O61 1.260 . S
C69 O62 1.257 . S
Zn70 O73 2.031 1_556 S
Zn70 O75 2.049 . S
Zn70 O80 2.067 . S
Zn71 O72 1.962 . S
Zn71 O74 1.986 . S
Zn71 O76 1.996 . S
Zn71 O79 1.943 . S
O72 Zn71 1.962 . S
O72 C77 1.254 . S
O73 Zn70 2.031 1_554 S
O73 C77 1.269 . S
O74 Zn71 1.986 . S
O74 C81 1.262 . S
O75 Zn70 2.049 . S
O75 C83 1.260 . S
O76 Zn71 1.996 . S
O76 C83 1.257 1_554 S
C77 O72 1.254 . S
C77 O73 1.269 . S
C78 O79 1.249 . S
C78 O80 1.270 1_554 S
O79 Zn71 1.943 . S
O79 C78 1.249 . S
O80 Zn70 2.067 . S
O80 C78 1.270 1_556 S
C81 O74 1.262 . S
C81 O82 1.232 . S
O82 C81 1.232 . S
C83 O75 1.260 . S
C83 O76 1.257 1_556 S
Zn84 O87 2.031 . S
Zn84 O89 2.049 . S
Zn84 O94 2.067 . S
Zn85 O86 1.962 . S
Zn85 O88 1.986 . S
Zn85 O90 1.996 . S
Zn85 O93 1.943 . S
O86 Zn85 1.962 . S
O86 C91 1.254 . S
O87 Zn84 2.031 . S
O87 C91 1.269 . S
O88 Zn85 1.986 . S
O88 C95 1.262 . S
O89 Zn84 2.049 . S
O89 C97 1.260 . S
O90 Zn85 1.996 . S
O90 C97 1.257 . S
C91 O86 1.254 . S
C91 O87 1.269 . S
C92 O93 1.249 . S
C92 O94 1.270 . S
O93 Zn85 1.943 . S
O93 C92 1.249 . S
O94 Zn84 2.067 . S
O94 C92 1.270 . S
C95 O88 1.262 . S
C95 O96 1.232 . S
O96 C95 1.232 . S
C97 O89 1.260 . S
C97 O90 1.257 . S
Zn98 O101 2.031 . S
Zn98 O103 2.049 . S
Zn98 O108 2.067 . S
Zn99 O100 1.962 . S
Zn99 O102 1.986 . S
Zn99 O104 1.996 . S
Zn99 O107 1.943 . S
O100 Zn99 1.962 . S
O100 C105 1.254 . S
O101 Zn98 2.031 . S
O101 C105 1.269 . S
O102 Zn99 1.986 . S
O102 C109 1.262 . S
O103 Zn98 2.049 . S
O103 C111 1.260 . S
O104 Zn99 1.996 . S
O104 C111 1.257 . S
C105 O100 1.254 . S
C105 O101 1.269 . S
C106 O107 1.249 . S
C106 O108 1.270 . S
O107 Zn99 1.943 . S
O107 C106 1.249 . S
O108 Zn98 2.067 . S
O108 C106 1.270 . S
C109 O102 1.262 . S
C109 O110 1.232 . S
O110 C109 1.232 . S
C111 O103 1.260 . S
C111 O104 1.257 . S
Zn112 O115 2.031 . S
Zn112 O117 2.049 . S
Zn112 O122 2.067 . S
Zn113 O114 1.962 . S
Zn113 O116 1.986 . S
Zn113 O118 1.996 . S
Zn113 O121 1.943 . S
O114 Zn113 1.962 . S
O114 C119 1.254 . S
O115 Zn112 2.031 . S
O115 C119 1.269 . S
O116 Zn113 1.986 . S
O116 C123 1.262 . S
O117 Zn112 2.049 . S
O117 C125 1.260 . S
O118 Zn113 1.996 . S
O118 C125 1.257 . S
C119 O114 1.254 . S
C119 O115 1.269 . S
C120 O121 1.249 . S
C120 O122 1.270 . S
O121 Zn113 1.943 . S
O121 C120 1.249 . S
O122 Zn112 2.067 . S
O122 C120 1.270 . S
C123 O116 1.262 . S
C123 O124 1.232 1_556 S
O124 C123 1.232 1_554 S
C125 O117 1.260 . S
C125 O118 1.257 . S
Zn126 O129 2.031 . S
Zn126 O131 2.049 . S
Zn126 O136 2.067 . S
Zn127 O128 1.962 . S
Zn127 O130 1.986 . S
Zn127 O132 1.996 . S
Zn127 O135 1.943 . S
O128 Zn127 1.962 . S
O128 C133 1.254 . S
O129 Zn126 2.031 . S
O129 C133 1.269 . S
O130 Zn127 1.986 . S
O130 C137 1.262 . S
O131 Zn126 2.049 . S
O131 C139 1.260 . S
O132 Zn127 1.996 . S
O132 C139 1.257 . S
C133 O128 1.254 . S
C133 O129 1.269 . S
C134 O135 1.249 . S
C134 O136 1.270 . S
O135 Zn127 1.943 . S
O135 C134 1.249 . S
O136 Zn126 2.067 . S
O136 C134 1.270 . S
C137 O130 1.262 . S
C137 O138 1.232 . S
O138 C137 1.232 . S
C139 O131 1.260 . S
C139 O132 1.257 . S
Zn140 O143 2.031 . S
Zn140 O145 2.049 . S
Zn140 O150 2.067 . S
Zn141 O142 1.962 . S
Zn141 O144 1.986 . S
Zn141 O146 1.996 . S
Zn141 O149 1.943 . S
O142 Zn141 1.962 . S
O142 C147 1.254 . S
O143 Zn140 2.031 . S
O143 C147 1.269 . S
O144 Zn141 1.986 . S
O144 C151 1.262 . S
O145 Zn140 2.049 . S
O145 C153 1.260 . S
O146 Zn141 1.996 . S
O146 C153 1.257 . S
C147 O142 1.254 . S
C147 O143 1.269 . S
C148 O149 1.249 . S
C148 O150 1.270 . S
O149 Zn141 1.943 . S
O149 C148 1.249 . S
O150 Zn140 2.067 . S
O150 C148 1.270 . S
C151 O144 1.262 . S
C151 O152 1.232 . S
O152 C151 1.232 . S
C153 O145 1.260 . S
C153 O146 1.257 . S
Zn154 O157 2.031 1_556 S
Zn154 O159 2.049 . S
Zn154 O164 2.067 . S
Zn155 O156 1.962 . S
Zn155 O158 1.986 . S
Zn155 O160 1.996 . S
Zn155 O163 1.943 . S
O156 Zn155 1.962 . S
O156 C161 1.254 . S
O157 Zn154 2.031 1_554 S
O157 C161 1.269 . S
O158 Zn155 1.986 . S
O158 C165 1.262 . S
O159 Zn154 2.049 . S
O159 C167 1.260 . S
O160 Zn155 1.996 . S
O160 C167 1.257 1_554 S
C161 O156 1.254 . S
C161 O157 1.269 . S
C162 O163 1.249 . S
C162 O164 1.270 1_554 S
O163 Zn155 1.943 . S
O163 C162 1.249 . S
O164 Zn154 2.067 . S
O164 C162 1.270 1_556 S
C165 O158 1.262 . S
C165 O166 1.232 . S
O166 C165 1.232 . S
C167 O159 1.260 . S
C167 O160 1.257 1_556 S
Zn168 O171 2.031 . S
Zn168 O173 2.049 . S
Zn168 O178 2.067 . S
Zn169 O170 1.962 . S
Zn169 O172 1.986 . S
Zn169 O174 1.996 . S
Zn169 O177 1.943 . S
O170 Zn169 1.962 . S
O170 C175 1.254 . S
O171 Zn168 2.031 . S
O171 C175 1.269 . S
O172 Zn169 1.986 . S
O172 C179 1.262 . S
O173 Zn168 2.049 . S
O173 C181 1.260 . S
O174 Zn169 1.996 . S
O174 C181 1.257 . S
C175 O170 1.254 . S
C175 O171 1.269 . S
C176 O177 1.249 . S
C176 O178 1.270 . S
O177 Zn169 1.943 . S
O177 C176 1.249 . S
O178 Zn168 2.067 . S
O178 C176 1.270 . S
C179 O172 1.262 . S
C179 O180 1.232 1_554 S
O180 C179 1.232 1_556 S
C181 O173 1.260 . S
C181 O174 1.257 . S
Zn182 O185 2.031 1_554 S
Zn182 O187 2.049 . S
Zn182 O192 2.067 . S
Zn183 O184 1.962 . S
Zn183 O186 1.986 . S
Zn183 O188 1.996 . S
Zn183 O191 1.943 . S
O184 Zn183 1.962 . S
O184 C189 1.254 . S
O185 Zn182 2.031 1_556 S
O185 C189 1.269 . S
O186 Zn183 1.986 . S
O186 C193 1.262 . S
O187 Zn182 2.049 . S
O187 C195 1.260 . S
O188 Zn183 1.996 . S
O188 C195 1.257 1_556 S
C189 O184 1.254 . S
C189 O185 1.269 . S
C190 O191 1.249 . S
C190 O192 1.270 1_556 S
O191 Zn183 1.943 . S
O191 C190 1.249 . S
O192 Zn182 2.067 . S
O192 C190 1.270 1_554 S
C193 O186 1.262 . S
C193 O194 1.232 . S
O194 C193 1.232 . S
C195 O187 1.260 . S
C195 O188 1.257 1_554 S
Zn196 O199 2.031 . S
Zn196 O201 2.049 . S
Zn196 O206 2.067 . S
Zn197 O198 1.962 . S
Zn197 O200 1.986 . S
Zn197 O202 1.996 . S
Zn197 O205 1.943 . S
O198 Zn197 1.962 . S
O198 C203 1.254 . S
O199 Zn196 2.031 . S
O199 C203 1.269 . S
O200 Zn197 1.986 . S
O200 C207 1.262 . S
O201 Zn196 2.049 . S
O201 C209 1.260 . S
O202 Zn197 1.996 . S
O202 C209 1.257 . S
C203 O198 1.254 . S
C203 O199 1.269 . S
C204 O205 1.249 . S
C204 O206 1.270 . S
O205 Zn197 1.943 . S
O205 C204 1.249 . S
O206 Zn196 2.067 . S
O206 C204 1.270 . S
C207 O200 1.262 . S
C207 O208 1.232 . S
O208 C207 1.232 . S
C209 O201 1.260 . S
C209 O202 1.257 . S
Zn210 O213 2.031 . S
Zn210 O215 2.049 . S
Zn210 O220 2.067 . S
Zn211 O212 1.962 . S
Zn211 O214 1.986 . S
Zn211 O216 1.996 . S
Zn211 O219 1.943 . S
O212 Zn211 1.962 . S
O212 C217 1.254 . S
O213 Zn210 2.031 . S
O213 C217 1.269 . S
O214 Zn211 1.986 . S
O214 C221 1.262 . S
O215 Zn210 2.049 . S
O215 C223 1.260 . S
O216 Zn211 1.996 . S
O216 C223 1.257 . S
C217 O212 1.254 . S
C217 O213 1.269 . S
C218 O219 1.249 . S
C218 O220 1.270 . S
O219 Zn211 1.943 . S
O219 C218 1.249 . S
O220 Zn210 2.067 . S
O220 C218 1.270 . S
C221 O214 1.262 . S
C221 O222 1.232 . S
O222 C221 1.232 . S
C223 O215 1.260 . S
C223 O216 1.257 . S
Zn224 O227 2.031 . S
Zn224 O229 2.049 . S
Zn224 O234 2.067 . S
Zn225 O226 1.962 . S
Zn225 O228 1.986 . S
Zn225 O230 1.996 . S
Zn225 O233 1.943 . S
O226 Zn225 1.962 . S
O226 C231 1.254 . S
O227 Zn224 2.031 . S
O227 C231 1.269 . S
O228 Zn225 1.986 . S
O228 C235 1.262 . S
O229 Zn224 2.049 . S
O229 C237 1.260 . S
O230 Zn225 1.996 . S
O230 C237 1.257 . S
C231 O226 1.254 . S
C231 O227 1.269 . S
C232 O233 1.249 . S
C232 O234 1.270 . S
O233 Zn225 1.943 . S
O233 C232 1.249 . S
O234 Zn224 2.067 . S
O234 C232 1.270 . S
C235 O228 1.262 . S
C235 O236 1.232 . S
O236 C235 1.232 . S
C237 O229 1.260 . S
C237 O230 1.257 . S
Zn238 O241 2.031 1_554 S
Zn238 O243 2.049 . S
Zn238 O248 2.067 . S
Zn239 O240 1.962 . S
Zn239 O242 1.986 . S
Zn239 O244 1.996 . S
Zn239 O247 1.943 . S
O240 Zn239 1.962 . S
O240 C245 1.254 . S
O241 Zn238 2.031 1_556 S
O241 C245 1.269 . S
O242 Zn239 1.986 . S
O242 C249 1.262 . S
O243 Zn238 2.049 . S
O243 C251 1.260 . S
O244 Zn239 1.996 . S
O244 C251 1.257 1_556 S
C245 O240 1.254 . S
C245 O241 1.269 . S
C246 O247 1.249 . S
C246 O248 1.270 1_556 S
O247 Zn239 1.943 . S
O247 C246 1.249 . S
O248 Zn238 2.067 . S
O248 C246 1.270 1_554 S
C249 O242 1.262 . S
C249 O250 1.232 . S
O250 C249 1.232 . S
C251 O243 1.260 . S
C251 O244 1.257 1_554 S
Zn252 O255 2.031 . S
Zn252 O257 2.049 . S
Zn252 O262 2.067 . S
Zn253 O254 1.962 . S
Zn253 O256 1.986 . S
Zn253 O258 1.996 . S
Zn253 O261 1.943 . S
O254 Zn253 1.962 . S
O254 C259 1.254 . S
O255 Zn252 2.031 . S
O255 C259 1.269 . S
O256 Zn253 1.986 . S
O256 C263 1.262 . S
O257 Zn252 2.049 . S
O257 C265 1.260 . S
O258 Zn253 1.996 . S
O258 C265 1.257 . S
C259 O254 1.254 . S
C259 O255 1.269 . S
C260 O261 1.249 . S
C260 O262 1.270 . S
O261 Zn253 1.943 . S
O261 C260 1.249 . S
O262 Zn252 2.067 . S
O262 C260 1.270 . S
C263 O256 1.262 . S
C263 O264 1.232 1_554 S
O264 C263 1.232 1_556 S
C265 O257 1.260 . S
C265 O258 1.257 . S
Zn266 O269 2.031 . S
Zn266 O271 2.049 . S
Zn266 O276 2.067 . S
Zn267 O268 1.962 . S
Zn267 O270 1.986 . S
Zn267 O272 1.996 . S
Zn267 O275 1.943 . S
O268 Zn267 1.962 . S
O268 C273 1.254 . S
O269 Zn266 2.031 . S
O269 C273 1.269 . S
O270 Zn267 1.986 . S
O270 C277 1.262 . S
O271 Zn266 2.049 . S
O271 C279 1.260 . S
O272 Zn267 1.996 . S
O272 C279 1.257 . S
C273 O268 1.254 . S
C273 O269 1.269 . S
C274 O275 1.249 . S
C274 O276 1.270 . S
O275 Zn267 1.943 . S
O275 C274 1.249 . S
O276 Zn266 2.067 . S
O276 C274 1.270 . S
C277 O270 1.262 . S
C277 O278 1.232 . S
O278 C277 1.232 . S
C279 O271 1.260 . S
C279 O272 1.257 . S
Zn280 O283 2.031 . S
Zn280 O285 2.049 . S
Zn280 O290 2.067 . S
Zn281 O282 1.962 . S
Zn281 O284 1.986 . S
Zn281 O286 1.996 . S
Zn281 O289 1.943 . S
O282 Zn281 1.962 . S
O282 C287 1.254 . S
O283 Zn280 2.031 . S
O283 C287 1.269 . S
O284 Zn281 1.986 . S
O284 C291 1.262 . S
O285 Zn280 2.049 . S
O285 C293 1.260 . S
O286 Zn281 1.996 . S
O286 C293 1.257 . S
C287 O282 1.254 . S
C287 O283 1.269 . S
C288 O289 1.249 . S
C288 O290 1.270 . S
O289 Zn281 1.943 . S
O289 C288 1.249 . S
O290 Zn280 2.067 . S
O290 C288 1.270 . S
C291 O284 1.262 . S
C291 O292 1.232 . S
O292 C291 1.232 . S
C293 O285 1.260 . S
C293 O286 1.257 . S
Zn294 O297 2.031 . S
Zn294 O299 2.049 . S
Zn294 O304 2.067 . S
Zn295 O296 1.962 . S
Zn295 O298 1.986 . S
Zn295 O300 1.996 . S
Zn295 O303 1.943 . S
O296 Zn295 1.962 . S
O296 C301 1.254 . S
O297 Zn294 2.031 . S
O297 C301 1.269 . S
O298 Zn295 1.986 . S
O298 C305 1.262 . S
O299 Zn294 2.049 . S
O299 C307 1.260 . S
O300 Zn295 1.996 . S
O300 C307 1.257 . S
C301 O296 1.254 . S
C301 O297 1.269 . S
C302 O303 1.249 . S
C302 O304 1.270 . S
O303 Zn295 1.943 . S
O303 C302 1.249 . S
O304 Zn294 2.067 . S
O304 C302 1.270 . S
C305 O298 1.262 . S
C305 O306 1.232 . S
O306 C305 1.232 . S
C307 O299 1.260 . S
C307 O300 1.257 . S
Zn308 O311 2.031 . S
Zn308 O313 2.049 . S
Zn308 O318 2.067 . S
Zn309 O310 1.962 . S
Zn309 O312 1.986 . S
Zn309 O314 1.996 . S
Zn309 O317 1.943 . S
O310 Zn309 1.962 . S
O310 C315 1.254 . S
O311 Zn308 2.031 . S
O311 C315 1.269 . S
O312 Zn309 1.986 . S
O312 C319 1.262 . S
O313 Zn308 2.049 . S
O313 C321 1.260 . S
O314 Zn309 1.996 . S
O314 C321 1.257 . S
C315 O310 1.254 . S
C315 O311 1.269 . S
C316 O317 1.249 . S
C316 O318 1.270 . S
O317 Zn309 1.943 . S
O317 C316 1.249 . S
O318 Zn308 2.067 . S
O318 C316 1.270 . S
C319 O312 1.262 . S
C319 O320 1.232 1_556 S
O320 C319 1.232 1_554 S
C321 O313 1.260 . S
C321 O314 1.257 . S
Zn322 O325 2.031 1_556 S
Zn322 O327 2.049 . S
Zn322 O332 2.067 . S
Zn323 O324 1.962 . S
Zn323 O326 1.986 . S
Zn323 O328 1.996 . S
Zn323 O331 1.943 . S
O324 Zn323 1.962 . S
O324 C329 1.254 . S
O325 Zn322 2.031 1_554 S
O325 C329 1.269 . S
O326 Zn323 1.986 . S
O326 C333 1.262 . S
O327 Zn322 2.049 . S
O327 C335 1.260 . S
O328 Zn323 1.996 . S
O328 C335 1.257 1_554 S
C329 O324 1.254 . S
C329 O325 1.269 . S
C330 O331 1.249 . S
C330 O332 1.270 1_554 S
O331 Zn323 1.943 . S
O331 C330 1.249 . S
O332 Zn322 2.067 . S
O332 C330 1.270 1_556 S
C333 O326 1.262 . S
C333 O334 1.232 . S
O334 C333 1.232 . S
C335 O327 1.260 . S
C335 O328 1.257 1_556 S
Zn336 O339 2.031 . S
Zn336 O341 2.049 . S
Zn336 O346 2.067 . S
Zn337 O338 1.962 . S
Zn337 O340 1.986 . S
Zn337 O342 1.996 . S
Zn337 O345 1.943 . S
O338 Zn337 1.962 . S
O338 C343 1.254 . S
O339 Zn336 2.031 . S
O339 C343 1.269 . S
O340 Zn337 1.986 . S
O340 C347 1.262 . S
O341 Zn336 2.049 . S
O341 C349 1.260 . S
O342 Zn337 1.996 . S
O342 C349 1.257 . S
C343 O338 1.254 . S
C343 O339 1.269 . S
C344 O345 1.249 . S
C344 O346 1.270 . S
O345 Zn337 1.943 . S
O345 C344 1.249 . S
O346 Zn336 2.067 . S
O346 C344 1.270 . S
C347 O340 1.262 . S
C347 O348 1.232 . S
O348 C347 1.232 . S
C349 O341 1.260 . S
C349 O342 1.257 . S
Zn350 O353 2.031 1_556 S
Zn350 O355 2.049 . S
Zn350 O360 2.067 . S
Zn351 O352 1.962 . S
Zn351 O354 1.986 . S
Zn351 O356 1.996 . S
Zn351 O359 1.943 . S
O352 Zn351 1.962 . S
O352 C357 1.254 . S
O353 Zn350 2.031 1_554 S
O353 C357 1.269 . S
O354 Zn351 1.986 . S
O354 C361 1.262 . S
O355 Zn350 2.049 . S
O355 C363 1.260 . S
O356 Zn351 1.996 . S
O356 C363 1.257 1_554 S
C357 O352 1.254 . S
C357 O353 1.269 . S
C358 O359 1.249 . S
C358 O360 1.270 1_554 S
O359 Zn351 1.943 . S
O359 C358 1.249 . S
O360 Zn350 2.067 . S
O360 C358 1.270 1_556 S
C361 O354 1.262 . S
C361 O362 1.232 . S
O362 C361 1.232 . S
C363 O355 1.260 . S
C363 O356 1.257 1_556 S
Zn364 O367 2.031 . S
Zn364 O369 2.049 . S
Zn364 O374 2.067 . S
Zn365 O366 1.962 . S
Zn365 O368 1.986 . S
Zn365 O370 1.996 . S
Zn365 O373 1.943 . S
O366 Zn365 1.962 . S
O366 C371 1.254 . S
O367 Zn364 2.031 . S
O367 C371 1.269 . S
O368 Zn365 1.986 . S
O368 C375 1.262 . S
O369 Zn364 2.049 . S
O369 C377 1.260 . S
O370 Zn365 1.996 . S
O370 C377 1.257 . S
C371 O366 1.254 . S
C371 O367 1.269 . S
C372 O373 1.249 . S
C372 O374 1.270 . S
O373 Zn365 1.943 . S
O373 C372 1.249 . S
O374 Zn364 2.067 . S
O374 C372 1.270 . S
C375 O368 1.262 . S
C375 O376 1.232 1_556 S
O376 C375 1.232 1_554 S
C377 O369 1.260 . S
C377 O370 1.257 . S
Zn378 O381 2.031 . S
Zn378 O383 2.049 . S
Zn378 O388 2.067 . S
Zn379 O380 1.962 . S
Zn379 O382 1.986 . S
Zn379 O384 1.996 . S
Zn379 O387 1.943 . S
O380 Zn379 1.962 . S
O380 C385 1.254 . S
O381 Zn378 2.031 . S
O381 C385 1.269 . S
O382 Zn379 1.986 . S
O382 C389 1.262 . S
O383 Zn378 2.049 . S
O383 C391 1.260 . S
O384 Zn379 1.996 . S
O384 C391 1.257 . S
C385 O380 1.254 . S
C385 O381 1.269 . S
C386 O387 1.249 . S
C386 O388 1.270 . S
O387 Zn379 1.943 . S
O387 C386 1.249 . S
O388 Zn378 2.067 . S
O388 C386 1.270 . S
C389 O382 1.262 . S
C389 O390 1.232 . S
O390 C389 1.232 . S
C391 O383 1.260 . S
C391 O384 1.257 . S
Zn392 O395 2.031 . S
Zn392 O397 2.049 . S
Zn392 O402 2.067 . S
Zn393 O394 1.962 . S
Zn393 O396 1.986 . S
Zn393 O398 1.996 . S
Zn393 O401 1.943 . S
O394 Zn393 1.962 . S
O394 C399 1.254 . S
O395 Zn392 2.031 . S
O395 C399 1.269 . S
O396 Zn393 1.986 . S
O396 C403 1.262 . S
O397 Zn392 2.049 . S
O397 C405 1.260 . S
O398 Zn393 1.996 . S
O398 C405 1.257 . S
C399 O394 1.254 . S
C399 O395 1.269 . S
C400 O401 1.249 . S
C400 O402 1.270 . S
O401 Zn393 1.943 . S
O401 C400 1.249 . S
O402 Zn392 2.067 . S
O402 C400 1.270 . S
C403 O396 1.262 . S
C403 O404 1.232 . S
O404 C403 1.232 . S
C405 O397 1.260 . S
C405 O398 1.257 . S
Zn406 O409 2.031 . S
Zn406 O411 2.049 . S
Zn406 O416 2.067 . S
Zn407 O408 1.962 . S
Zn407 O410 1.986 . S
Zn407 O412 1.996 . S
Zn407 O415 1.943 . S
O408 Zn407 1.962 . S
O408 C413 1.254 . S
O409 Zn406 2.031 . S
O409 C413 1.269 . S
O410 Zn407 1.986 . S
O410 C417 1.262 . S
O411 Zn406 2.049 . S
O411 C419 1.260 . S
O412 Zn407 1.996 . S
O412 C419 1.257 . S
C413 O408 1.254 . S
C413 O409 1.269 . S
C414 O415 1.249 . S
C414 O416 1.270 . S
O415 Zn407 1.943 . S
O415 C414 1.249 . S
O416 Zn406 2.067 . S
O416 C414 1.270 . S
C417 O410 1.262 . S
C417 O418 1.232 . S
O418 C417 1.232 . S
C419 O411 1.260 . S
C419 O412 1.257 . S
Zn420 O423 2.031 . S
Zn420 O425 2.049 . S
Zn420 O430 2.067 . S
Zn421 O422 1.962 . S
Zn421 O424 1.986 . S
Zn421 O426 1.996 . S
Zn421 O429 1.943 . S
O422 Zn421 1.962 . S
O422 C427 1.254 . S
O423 Zn420 2.031 . S
O423 C427 1.269 . S
O424 Zn421 1.986 . S
O424 C431 1.262 . S
O425 Zn420 2.049 . S
O425 C433 1.260 . S
O426 Zn421 1.996 . S
O426 C433 1.257 . S
C427 O422 1.254 . S
C427 O423 1.269 . S
C428 O429 1.249 . S
C428 O430 1.270 . S
O429 Zn421 1.943 . S
O429 C428 1.249 . S
O430 Zn420 2.067 . S
O430 C428 1.270 . S
C431 O424 1.262 . S
C431 O432 1.232 1_554 S
O432 C431 1.232 1_556 S
C433 O425 1.260 . S
C433 O426 1.257 . S
Zn434 O437 2.031 1_554 S
Zn434 O439 2.049 . S
Zn434 O444 2.067 . S
Zn435 O436 1.962 . S
Zn435 O438 1.986 . S
Zn435 O440 1.996 . S
Zn435 O443 1.943 . S
O436 Zn435 1.962 . S
O436 C441 1.254 . S
O437 Zn434 2.031 1_556 S
O437 C441 1.269 . S
O438 Zn435 1.986 . S
O438 C445 1.262 . S
O439 Zn434 2.049 . S
O439 C447 1.260 . S
O440 Zn435 1.996 . S
O440 C447 1.257 1_556 S
C441 O436 1.254 . S
C441 O437 1.269 . S
C442 O443 1.249 . S
C442 O444 1.270 1_556 S
O443 Zn435 1.943 . S
O443 C442 1.249 . S
O444 Zn434 2.067 . S
O444 C442 1.270 1_554 S
C445 O438 1.262 . S
C445 O446 1.232 . S
O446 C445 1.232 . S
C447 O439 1.260 . S
C447 O440 1.257 1_554 S
C448 C449 1.369 . S
C448 C450 1.419 . S
C448 H452 0.930 . S
C449 C448 1.369 . S
C449 C458 1.429 . S
C450 C448 1.419 . S
C450 C451 1.363 . S
C450 H453 0.929 . S
C451 C450 1.363 . S
C451 C457 1.428 . S
H452 C448 0.930 . S
H453 C450 0.929 . S
S454 N455 1.613 . S
S454 N456 1.610 . S
N455 S454 1.613 . S
N455 C458 1.350 . S
N456 S454 1.610 . S
N456 C457 1.351 . S
C457 C451 1.428 . S
C457 N456 1.351 . S
C457 C458 1.434 . S
C458 C449 1.429 . S
C458 N455 1.350 . S
C458 C457 1.434 . S
C459 C460 1.369 . S
C459 C461 1.419 1_565 S
C459 H463 0.930 . S
C460 C459 1.369 . S
C460 C469 1.429 . S
C461 C459 1.419 1_545 S
C461 C462 1.363 . S
C461 H464 0.929 . S
C462 C461 1.363 . S
C462 C468 1.428 . S
H463 C459 0.930 . S
H464 C461 0.929 . S
S465 N466 1.613 . S
S465 N467 1.574 1_565 S
N466 S465 1.613 . S
N466 C469 1.350 . S
N467 S465 1.574 1_545 S
N467 C468 1.354 . S
C468 C462 1.428 . S
C468 N467 1.354 . S
C468 C469 1.434 1_545 S
C469 C460 1.429 . S
C469 N466 1.350 . S
C469 C468 1.434 1_565 S
C470 C471 1.369 . S
C470 C472 1.419 . S
C470 H474 0.930 . S
C471 C470 1.369 . S
C471 C480 1.429 . S
C472 C470 1.419 . S
C472 C473 1.363 . S
C472 H475 0.929 . S
C473 C472 1.363 . S
C473 C479 1.428 . S
H474 C470 0.930 . S
H475 C472 0.929 . S
S476 N477 1.613 . S
S476 N478 1.610 . S
N477 S476 1.613 . S
N477 C480 1.350 . S
N478 S476 1.610 . S
N478 C479 1.351 . S
C479 C473 1.428 . S
C479 N478 1.351 . S
C479 C480 1.434 . S
C480 C471 1.429 . S
C480 N477 1.350 . S
C480 C479 1.434 . S
C481 C482 1.368 . S
C481 C483 1.420 1_545 S
C481 H485 0.929 1_545 S
C482 C481 1.368 . S
C482 C491 1.429 1_556 S
C483 C481 1.420 1_565 S
C483 C484 1.363 1_556 S
C483 H486 0.929 . S
C484 C483 1.363 1_554 S
C484 C490 1.396 1_565 S
H485 C481 0.929 1_565 S
H486 C483 0.929 . S
S487 N488 1.613 . S
S487 N489 1.610 . S
N488 S487 1.613 . S
N488 C491 1.350 . S
N489 S487 1.610 . S
N489 C490 1.357 . S
C490 C484 1.396 1_545 S
C490 N489 1.357 . S
C490 C491 1.465 . S
C491 C482 1.429 1_554 S
C491 N488 1.350 . S
C491 C490 1.465 . S
C492 C493 1.369 . S
C492 C494 1.419 . S
C492 H496 0.930 . S
C493 C492 1.369 . S
C493 C502 1.429 . S
C494 C492 1.419 . S
C494 C495 1.363 . S
C494 H497 0.929 . S
C495 C494 1.363 . S
C495 C501 1.428 . S
H496 C492 0.930 . S
H497 C494 0.929 . S
S498 N499 1.613 . S
S498 N500 1.610 . S
N499 S498 1.613 . S
N499 C502 1.350 . S
N500 S498 1.610 . S
N500 C501 1.351 . S
C501 C495 1.428 . S
C501 N500 1.351 . S
C501 C502 1.434 . S
C502 C493 1.429 . S
C502 N499 1.350 . S
C502 C501 1.434 . S
C503 C504 1.369 . S
C503 C505 1.419 1_565 S
C503 H507 0.930 . S
C504 C503 1.369 . S
C504 C513 1.429 . S
C505 C503 1.419 1_545 S
C505 C506 1.363 . S
C505 H508 0.929 . S
C506 C505 1.363 . S
C506 C512 1.428 . S
H507 C503 0.930 . S
H508 C505 0.929 . S
S509 N510 1.613 . S
S509 N511 1.610 1_565 S
N510 S509 1.613 . S
N510 C513 1.350 . S
N511 S509 1.610 1_545 S
N511 C512 1.351 . S
C512 C506 1.428 . S
C512 N511 1.351 . S
C512 C513 1.434 1_545 S
C513 C504 1.429 . S
C513 N510 1.350 . S
C513 C512 1.434 1_565 S
C514 C515 1.369 . S
C514 C516 1.419 . S
C514 H518 0.930 . S
C515 C514 1.369 . S
C515 C524 1.429 . S
C516 C514 1.419 . S
C516 C517 1.363 . S
C516 H519 0.929 . S
C517 C516 1.363 . S
C517 C523 1.428 . S
H518 C514 0.930 . S
H519 C516 0.929 . S
S520 N521 1.613 . S
S520 N522 1.610 . S
N521 S520 1.613 . S
N521 C524 1.350 . S
N522 S520 1.610 . S
N522 C523 1.351 . S
C523 C517 1.428 . S
C523 N522 1.351 . S
C523 C524 1.434 . S
C524 C515 1.429 . S
C524 N521 1.350 . S
C524 C523 1.434 . S
C525 C526 1.405 . S
C525 C527 1.384 1_545 S
C525 H529 0.930 . S
C526 C525 1.405 . S
C526 C535 1.429 1_556 S
C527 C525 1.384 1_565 S
C527 C528 1.363 1_556 S
C527 H530 0.929 . S
C528 C527 1.363 1_554 S
C528 C534 1.433 1_565 S
H529 C525 0.930 . S
H530 C527 0.929 . S
S531 N532 1.613 . S
S531 N533 1.610 . S
N532 S531 1.613 . S
N532 C535 1.350 . S
N533 S531 1.610 . S
N533 C534 1.350 . S
C534 C528 1.433 1_545 S
C534 N533 1.350 . S
C534 C535 1.429 . S
C535 C526 1.429 1_554 S
C535 N532 1.350 . S
C535 C534 1.429 . S
C536 C537 1.369 . S
C536 C538 1.419 . S
C536 H540 0.930 . S
C537 C536 1.369 . S
C537 C546 1.429 . S
C538 C536 1.419 . S
C538 C539 1.363 . S
C538 H541 0.929 . S
C539 C538 1.363 . S
C539 C545 1.428 . S
H540 C536 0.930 . S
H541 C538 0.929 . S
S542 N543 1.613 . S
S542 N544 1.610 . S
N543 S542 1.613 . S
N543 C546 1.350 . S
N544 S542 1.610 . S
N544 C545 1.351 . S
C545 C539 1.428 . S
C545 N544 1.351 . S
C545 C546 1.434 . S
C546 C537 1.429 . S
C546 N543 1.350 . S
C546 C545 1.434 . S
C547 C548 1.369 . S
C547 C549 1.419 . S
C547 H551 0.930 . S
C548 C547 1.369 . S
C548 C557 1.429 1_556 S
C549 C547 1.419 . S
C549 C550 1.363 1_556 S
C549 H552 0.929 . S
C550 C549 1.363 1_554 S
C550 C556 1.428 . S
H551 C547 0.930 . S
H552 C549 0.929 . S
S553 N554 1.613 . S
S553 N555 1.610 . S
N554 S553 1.613 . S
N554 C557 1.350 . S
N555 S553 1.610 . S
N555 C556 1.351 . S
C556 C550 1.428 . S
C556 N555 1.351 . S
C556 C557 1.434 . S
C557 C548 1.429 1_554 S
C557 N554 1.350 . S
C557 C556 1.434 . S
C558 C559 1.369 . S
C558 C560 1.419 . S
C558 H562 0.930 . S
C559 C558 1.369 . S
C559 C568 1.429 . S
C560 C558 1.419 . S
C560 C561 1.363 . S
C560 H563 0.929 . S
C561 C560 1.363 . S
C561 C567 1.428 . S
H562 C558 0.930 . S
H563 C560 0.929 . S
S564 N565 1.613 . S
S564 N566 1.610 . S
N565 S564 1.613 . S
N565 C568 1.350 . S
N566 S564 1.610 . S
N566 C567 1.351 . S
C567 C561 1.428 . S
C567 N566 1.351 . S
C567 C568 1.434 . S
C568 C559 1.429 . S
C568 N565 1.350 . S
C568 C567 1.434 . S
C569 C570 1.369 . S
C569 C571 1.419 . S
C569 H573 0.930 . S
C570 C569 1.369 . S
C570 C579 1.429 . S
C571 C569 1.419 . S
C571 C572 1.363 . S
C571 H574 0.929 . S
C572 C571 1.363 . S
C572 C578 1.428 . S
H573 C569 0.930 . S
H574 C571 0.929 . S
S575 N576 1.613 . S
S575 N577 1.610 . S
N576 S575 1.613 . S
N576 C579 1.350 . S
N577 S575 1.610 . S
N577 C578 1.351 . S
C578 C572 1.428 . S
C578 N577 1.351 . S
C578 C579 1.434 . S
C579 C570 1.429 . S
C579 N576 1.350 . S
C579 C578 1.434 . S
C580 C581 1.369 . S
C580 C582 1.419 . S
C580 H584 0.930 . S
C581 C580 1.369 . S
C581 C590 1.429 . S
C582 C580 1.419 . S
C582 C583 1.363 . S
C582 H585 0.929 . S
C583 C582 1.363 . S
C583 C589 1.428 . S
H584 C580 0.930 . S
H585 C582 0.929 . S
S586 N587 1.613 . S
S586 N588 1.610 . S
N587 S586 1.613 . S
N587 C590 1.350 . S
N588 S586 1.610 . S
N588 C589 1.351 . S
C589 C583 1.428 . S
C589 N588 1.351 . S
C589 C590 1.434 . S
C590 C581 1.429 . S
C590 N587 1.350 . S
C590 C589 1.434 . S
C591 C592 1.369 1_556 S
C591 C593 1.419 . S
C591 H595 0.930 . S
C592 C591 1.369 1_554 S
C592 C601 1.429 . S
C593 C591 1.419 . S
C593 C594 1.363 . S
C593 H596 0.929 . S
C594 C593 1.363 . S
C594 C600 1.428 1_556 S
H595 C591 0.930 . S
H596 C593 0.929 . S
S597 N598 1.613 . S
S597 N599 1.610 . S
N598 S597 1.613 . S
N598 C601 1.350 . S
N599 S597 1.610 . S
N599 C600 1.351 . S
C600 C594 1.428 1_554 S
C600 N599 1.351 . S
C600 C601 1.434 . S
C601 C592 1.429 . S
C601 N598 1.350 . S
C601 C600 1.434 . S
C602 C603 1.369 . S
C602 C604 1.419 . S
C602 H606 0.930 . S
C603 C602 1.369 . S
C603 C612 1.429 . S
C604 C602 1.419 . S
C604 C605 1.363 . S
C604 H607 0.929 . S
C605 C604 1.363 . S
C605 C611 1.428 . S
H606 C602 0.930 . S
H607 C604 0.929 . S
S608 N609 1.613 . S
S608 N610 1.610 . S
N609 S608 1.613 . S
N609 C612 1.350 . S
N610 S608 1.610 . S
N610 C611 1.351 . S
C611 C605 1.428 . S
C611 N610 1.351 . S
C611 C612 1.434 . S
C612 C603 1.429 . S
C612 N609 1.350 . S
C612 C611 1.434 . S
C613 C614 1.369 . S
C613 C615 1.419 . S
C613 H617 0.930 . S
C614 C613 1.369 . S
C614 C623 1.429 . S
C615 C613 1.419 . S
C615 C616 1.363 . S
C615 H618 0.929 . S
C616 C615 1.363 . S
C616 C622 1.428 . S
H617 C613 0.930 . S
H618 C615 0.929 . S
S619 N620 1.613 . S
S619 N621 1.610 . S
N620 S619 1.613 . S
N620 C623 1.350 . S
N621 S619 1.610 . S
N621 C622 1.351 . S
C622 C616 1.428 . S
C622 N621 1.351 . S
C622 C623 1.434 . S
C623 C614 1.429 . S
C623 N620 1.350 . S
C623 C622 1.434 . S
C624 C625 1.369 . S
C624 C626 1.419 . S
C624 H628 0.930 . S
C625 C624 1.369 . S
C625 C634 1.429 . S
C626 C624 1.419 . S
C626 C627 1.363 . S
C626 H629 0.929 . S
C627 C626 1.363 . S
C627 C633 1.428 . S
H628 C624 0.930 . S
H629 C626 0.929 . S
S630 N631 1.613 . S
S630 N632 1.610 . S
N631 S630 1.613 . S
N631 C634 1.350 . S
N632 S630 1.610 . S
N632 C633 1.351 . S
C633 C627 1.428 . S
C633 N632 1.351 . S
C633 C634 1.434 . S
C634 C625 1.429 . S
C634 N631 1.350 . S
C634 C633 1.434 . S
C635 C636 1.369 . S
C635 C637 1.419 . S
C635 H639 0.930 . S
C636 C635 1.369 . S
C636 C645 1.429 . S
C637 C635 1.419 . S
C637 C638 1.363 . S
C637 H640 0.929 . S
C638 C637 1.363 . S
C638 C644 1.428 . S
H639 C635 0.930 . S
H640 C637 0.929 . S
S641 N642 1.613 . S
S641 N643 1.610 . S
N642 S641 1.613 . S
N642 C645 1.350 . S
N643 S641 1.610 . S
N643 C644 1.351 . S
C644 C638 1.428 . S
C644 N643 1.351 . S
C644 C645 1.434 . S
C645 C636 1.429 . S
C645 N642 1.350 . S
C645 C644 1.434 . S
C646 C647 1.369 . S
C646 C648 1.419 . S
C646 H650 0.930 . S
C647 C646 1.369 . S
C647 C656 1.429 . S
C648 C646 1.419 . S
C648 C649 1.363 . S
C648 H651 0.929 . S
C649 C648 1.363 . S
C649 C655 1.428 . S
H650 C646 0.930 . S
H651 C648 0.929 . S
S652 N653 1.613 . S
S652 N654 1.610 . S
N653 S652 1.613 . S
N653 C656 1.350 . S
N654 S652 1.610 . S
N654 C655 1.351 . S
C655 C649 1.428 . S
C655 N654 1.351 . S
C655 C656 1.434 . S
C656 C647 1.429 . S
C656 N653 1.350 . S
C656 C655 1.434 . S
C657 C658 1.369 . S
C657 C659 1.419 . S
C657 H661 0.930 . S
C658 C657 1.369 . S
C658 C667 1.429 . S
C659 C657 1.419 . S
C659 C660 1.363 . S
C659 H662 0.929 . S
C660 C659 1.363 . S
C660 C666 1.428 . S
H661 C657 0.930 . S
H662 C659 0.929 . S
S663 N664 1.613 . S
S663 N665 1.610 . S
N664 S663 1.613 . S
N664 C667 1.350 . S
N665 S663 1.610 . S
N665 C666 1.351 . S
C666 C660 1.428 . S
C666 N665 1.351 . S
C666 C667 1.434 . S
C667 C658 1.429 . S
C667 N664 1.350 . S
C667 C666 1.434 . S
C668 C669 1.369 . S
C668 C670 1.419 . S
C668 H672 0.930 . S
C669 C668 1.369 . S
C669 C678 1.429 . S
C670 C668 1.419 . S
C670 C671 1.363 . S
C670 H673 0.929 . S
C671 C670 1.363 . S
C671 C677 1.428 . S
H672 C668 0.930 . S
H673 C670 0.929 . S
S674 N675 1.613 . S
S674 N676 1.610 . S
N675 S674 1.613 . S
N675 C678 1.350 . S
N676 S674 1.610 . S
N676 C677 1.351 . S
C677 C671 1.428 . S
C677 N676 1.351 . S
C677 C678 1.434 . S
C678 C669 1.429 . S
C678 N675 1.350 . S
C678 C677 1.434 . S
C679 C680 1.369 . S
C679 C681 1.419 . S
C679 H683 0.930 . S
C680 C679 1.369 . S
C680 C689 1.429 . S
C681 C679 1.419 . S
C681 C682 1.363 . S
C681 H684 0.929 . S
C682 C681 1.363 . S
C682 C688 1.428 . S
H683 C679 0.930 . S
H684 C681 0.929 . S
S685 N686 1.613 . S
S685 N687 1.610 . S
N686 S685 1.613 . S
N686 C689 1.350 . S
N687 S685 1.610 . S
N687 C688 1.351 . S
C688 C682 1.428 . S
C688 N687 1.351 . S
C688 C689 1.434 . S
C689 C680 1.429 . S
C689 N686 1.350 . S
C689 C688 1.434 . S
C690 C691 1.369 . S
C690 C692 1.419 . S
C690 H694 0.930 . S
C691 C690 1.369 . S
C691 C700 1.429 . S
C692 C690 1.419 . S
C692 C693 1.363 . S
C692 H695 0.929 . S
C693 C692 1.363 . S
C693 C699 1.428 . S
H694 C690 0.930 . S
H695 C692 0.929 . S
S696 N697 1.613 . S
S696 N698 1.610 . S
N697 S696 1.613 . S
N697 C700 1.350 . S
N698 S696 1.610 . S
N698 C699 1.351 . S
C699 C693 1.428 . S
C699 N698 1.351 . S
C699 C700 1.434 . S
C700 C691 1.429 . S
C700 N697 1.350 . S
C700 C699 1.434 . S
C701 C702 1.369 . S
C701 C703 1.419 . S
C701 H705 0.930 . S
C702 C701 1.369 . S
C702 C711 1.429 . S
C703 C701 1.419 . S
C703 C704 1.363 . S
C703 H706 0.929 . S
C704 C703 1.363 . S
C704 C710 1.428 . S
H705 C701 0.930 . S
H706 C703 0.929 . S
S707 N708 1.613 . S
S707 N709 1.610 . S
N708 S707 1.613 . S
N708 C711 1.350 . S
N709 S707 1.610 . S
N709 C710 1.351 . S
C710 C704 1.428 . S
C710 N709 1.351 . S
C710 C711 1.434 . S
C711 C702 1.429 . S
C711 N708 1.350 . S
C711 C710 1.434 . S
C712 C713 1.369 . S
C712 C714 1.419 . S
C712 H716 0.930 . S
C713 C712 1.369 . S
C713 C722 1.429 . S
C714 C712 1.419 . S
C714 C715 1.363 . S
C714 H717 0.929 . S
C715 C714 1.363 . S
C715 C721 1.428 . S
H716 C712 0.930 . S
H717 C714 0.929 . S
S718 N719 1.613 . S
S718 N720 1.610 . S
N719 S718 1.613 . S
N719 C722 1.350 . S
N720 S718 1.610 . S
N720 C721 1.351 . S
C721 C715 1.428 . S
C721 N720 1.351 . S
C721 C722 1.434 . S
C722 C713 1.429 . S
C722 N719 1.350 . S
C722 C721 1.434 . S
C723 C724 1.369 . S
C723 C725 1.419 . S
C723 H727 0.930 . S
C724 C723 1.369 . S
C724 C733 1.429 . S
C725 C723 1.419 . S
C725 C726 1.363 . S
C725 H728 0.929 . S
C726 C725 1.363 . S
C726 C732 1.428 . S
H727 C723 0.930 . S
H728 C725 0.929 . S
S729 N730 1.613 . S
S729 N731 1.610 . S
N730 S729 1.613 . S
N730 C733 1.350 . S
N731 S729 1.610 . S
N731 C732 1.351 . S
C732 C726 1.428 . S
C732 N731 1.351 . S
C732 C733 1.434 . S
C733 C724 1.429 . S
C733 N730 1.350 . S
C733 C732 1.434 . S
C734 C735 1.369 . S
C734 C736 1.419 . S
C734 H738 0.930 . S
C735 C734 1.369 . S
C735 C744 1.429 . S
C736 C734 1.419 . S
C736 C737 1.363 . S
C736 H739 0.929 . S
C737 C736 1.363 . S
C737 C743 1.428 . S
H738 C734 0.930 . S
H739 C736 0.929 . S
S740 N741 1.613 . S
S740 N742 1.610 . S
N741 S740 1.613 . S
N741 C744 1.350 . S
N742 S740 1.610 . S
N742 C743 1.351 . S
C743 C737 1.428 . S
C743 N742 1.351 . S
C743 C744 1.434 . S
C744 C735 1.429 . S
C744 N741 1.350 . S
C744 C743 1.434 . S
C745 C746 1.369 . S
C745 C747 1.419 . S
C745 H749 0.930 . S
C746 C745 1.369 . S
C746 C755 1.429 . S
C747 C745 1.419 . S
C747 C748 1.363 . S
C747 H750 0.929 . S
C748 C747 1.363 . S
C748 C754 1.428 . S
H749 C745 0.930 . S
H750 C747 0.929 . S
S751 N752 1.613 . S
S751 N753 1.610 . S
N752 S751 1.613 . S
N752 C755 1.350 . S
N753 S751 1.610 . S
N753 C754 1.351 . S
C754 C748 1.428 . S
C754 N753 1.351 . S
C754 C755 1.434 . S
C755 C746 1.429 . S
C755 N752 1.350 . S
C755 C754 1.434 . S
C756 C757 1.369 . S
C756 C758 1.419 . S
C756 H760 0.930 . S
C757 C756 1.369 . S
C757 C766 1.429 . S
C758 C756 1.419 . S
C758 C759 1.363 . S
C758 H761 0.929 . S
C759 C758 1.363 . S
C759 C765 1.428 . S
H760 C756 0.930 . S
H761 C758 0.929 . S
S762 N763 1.613 . S
S762 N764 1.610 . S
N763 S762 1.613 . S
N763 C766 1.350 . S
N764 S762 1.610 . S
N764 C765 1.351 . S
C765 C759 1.428 . S
C765 N764 1.351 . S
C765 C766 1.434 . S
C766 C757 1.429 . S
C766 N763 1.350 . S
C766 C765 1.434 . S
C767 C768 1.369 . S
C767 C769 1.419 . S
C767 H771 0.930 . S
C768 C767 1.369 . S
C768 C777 1.429 . S
C769 C767 1.419 . S
C769 C770 1.363 . S
C769 H772 0.929 . S
C770 C769 1.363 . S
C770 C776 1.428 . S
H771 C767 0.930 . S
H772 C769 0.929 . S
S773 N774 1.613 . S
S773 N775 1.610 . S
N774 S773 1.613 . S
N774 C777 1.350 . S
N775 S773 1.610 . S
N775 C776 1.351 . S
C776 C770 1.428 . S
C776 N775 1.351 . S
C776 C777 1.434 . S
C777 C768 1.429 . S
C777 N774 1.350 . S
C777 C776 1.434 . S
C778 C779 1.369 . S
C778 C780 1.419 . S
C778 H782 0.930 . S
C779 C778 1.369 . S
C779 C788 1.429 . S
C780 C778 1.419 . S
C780 C781 1.363 . S
C780 H783 0.929 . S
C781 C780 1.363 . S
C781 C787 1.428 . S
H782 C778 0.930 . S
H783 C780 0.929 . S
S784 N785 1.613 . S
S784 N786 1.610 . S
N785 S784 1.613 . S
N785 C788 1.350 . S
N786 S784 1.610 . S
N786 C787 1.351 . S
C787 C781 1.428 . S
C787 N786 1.351 . S
C787 C788 1.434 . S
C788 C779 1.429 . S
C788 N785 1.350 . S
C788 C787 1.434 . S
C789 C790 1.369 . S
C789 C791 1.419 . S
C789 H793 0.930 . S
C790 C789 1.369 . S
C790 C799 1.429 . S
C791 C789 1.419 . S
C791 C792 1.363 . S
C791 H794 0.929 . S
C792 C791 1.363 . S
C792 C798 1.428 . S
H793 C789 0.930 . S
H794 C791 0.929 . S
S795 N796 1.613 . S
S795 N797 1.610 . S
N796 S795 1.613 . S
N796 C799 1.350 . S
N797 S795 1.610 . S
N797 C798 1.351 . S
C798 C792 1.428 . S
C798 N797 1.351 . S
C798 C799 1.434 . S
C799 C790 1.429 . S
C799 N796 1.350 . S
C799 C798 1.434 . S
C800 C801 1.369 . S
C800 C802 1.419 . S
C800 H804 0.930 . S
C801 C800 1.369 . S
C801 C810 1.429 . S
C802 C800 1.419 . S
C802 C803 1.363 . S
C802 H805 0.929 . S
C803 C802 1.363 . S
C803 C809 1.428 . S
H804 C800 0.930 . S
H805 C802 0.929 . S
S806 N807 1.613 1_556 S
S806 N808 1.610 1_556 S
N807 S806 1.613 1_554 S
N807 C810 1.350 . S
N808 S806 1.610 1_554 S
N808 C809 1.351 . S
C809 C803 1.428 . S
C809 N808 1.351 . S
C809 C810 1.434 . S
C810 C801 1.429 . S
C810 N807 1.350 . S
C810 C809 1.434 . S
C811 C812 1.369 . S
C811 C813 1.419 1_655 S
C811 H815 0.930 . S
C812 C811 1.369 . S
C812 C821 1.429 . S
C813 C811 1.419 1_455 S
C813 C814 1.363 . S
C813 H816 0.929 . S
C814 C813 1.363 . S
C814 C820 1.428 . S
H815 C811 0.930 . S
H816 C813 0.929 . S
S817 N818 1.617 1_455 S
S817 N819 1.606 . S
N818 S817 1.617 1_655 S
N818 C821 1.350 . S
N819 S817 1.606 . S
N819 C820 1.351 . S
C820 C814 1.428 . S
C820 N819 1.351 . S
C820 C821 1.434 1_455 S
C821 C812 1.429 . S
C821 N818 1.350 . S
C821 C820 1.434 1_655 S
C822 C823 1.369 . S
C822 C824 1.419 . S
C822 H826 0.930 . S
C823 C822 1.369 . S
C823 C832 1.429 . S
C824 C822 1.419 . S
C824 C825 1.363 . S
C824 H827 0.929 . S
C825 C824 1.363 . S
C825 C831 1.428 . S
H826 C822 0.930 . S
H827 C824 0.929 . S
S828 N829 1.613 . S
S828 N830 1.610 . S
N829 S828 1.613 . S
N829 C832 1.350 . S
N830 S828 1.610 . S
N830 C831 1.351 . S
C831 C825 1.428 . S
C831 N830 1.351 . S
C831 C832 1.434 . S
C832 C823 1.429 . S
C832 N829 1.350 . S
C832 C831 1.434 . S
C833 C834 1.369 . S
C833 C835 1.419 . S
C833 H837 0.930 . S
C834 C833 1.369 . S
C834 C843 1.429 . S
C835 C833 1.419 . S
C835 C836 1.363 . S
C835 H838 0.929 . S
C836 C835 1.363 . S
C836 C842 1.428 . S
H837 C833 0.930 . S
H838 C835 0.929 . S
S839 N840 1.613 . S
S839 N841 1.610 . S
N840 S839 1.613 . S
N840 C843 1.350 . S
N841 S839 1.610 . S
N841 C842 1.351 . S
C842 C836 1.428 . S
C842 N841 1.351 . S
C842 C843 1.434 . S
C843 C834 1.429 . S
C843 N840 1.350 . S
C843 C842 1.434 . S
C844 C845 1.369 . S
C844 C846 1.419 . S
C844 H848 0.930 . S
C845 C844 1.369 . S
C845 C854 1.429 . S
C846 C844 1.419 . S
C846 C847 1.363 . S
C846 H849 0.929 . S
C847 C846 1.363 . S
C847 C853 1.428 . S
H848 C844 0.930 . S
H849 C846 0.929 . S
S850 N851 1.613 . S
S850 N852 1.610 . S
N851 S850 1.613 . S
N851 C854 1.350 . S
N852 S850 1.610 . S
N852 C853 1.351 . S
C853 C847 1.428 . S
C853 N852 1.351 . S
C853 C854 1.434 . S
C854 C845 1.429 . S
C854 N851 1.350 . S
C854 C853 1.434 . S
C855 C856 1.369 . S
C855 C857 1.419 . S
C855 H859 0.930 . S
C856 C855 1.369 . S
C856 C865 1.429 . S
C857 C855 1.419 . S
C857 C858 1.363 . S
C857 H860 0.929 . S
C858 C857 1.363 . S
C858 C864 1.428 . S
H859 C855 0.930 . S
H860 C857 0.929 . S
S861 N862 1.613 . S
S861 N863 1.610 . S
N862 S861 1.613 . S
N862 C865 1.350 . S
N863 S861 1.610 . S
N863 C864 1.351 . S
C864 C858 1.428 . S
C864 N863 1.351 . S
C864 C865 1.434 . S
C865 C856 1.429 . S
C865 N862 1.350 . S
C865 C864 1.434 . S
C866 C867 1.369 . S
C866 C868 1.419 . S
C866 H870 0.930 . S
C867 C866 1.369 . S
C867 C876 1.429 . S
C868 C866 1.419 . S
C868 C869 1.363 . S
C868 H871 0.929 . S
C869 C868 1.363 . S
C869 C875 1.428 . S
H870 C866 0.930 . S
H871 C868 0.929 . S
S872 N873 1.613 . S
S872 N874 1.610 . S
N873 S872 1.613 . S
N873 C876 1.350 . S
N874 S872 1.610 . S
N874 C875 1.351 . S
C875 C869 1.428 . S
C875 N874 1.351 . S
C875 C876 1.434 . S
C876 C867 1.429 . S
C876 N873 1.350 . S
C876 C875 1.434 . S
C877 C878 1.369 . S
C877 C879 1.419 1_655 S
C877 H881 0.930 . S
C878 C877 1.369 . S
C878 C887 1.429 . S
C879 C877 1.419 1_455 S
C879 C880 1.363 . S
C879 H882 0.929 . S
C880 C879 1.363 . S
C880 C886 1.428 . S
H881 C877 0.930 . S
H882 C879 0.929 . S
S883 N884 1.617 1_455 S
S883 N885 1.606 . S
N884 S883 1.617 1_655 S
N884 C887 1.350 . S
N885 S883 1.606 . S
N885 C886 1.351 . S
C886 C880 1.428 . S
C886 N885 1.351 . S
C886 C887 1.434 1_455 S
C887 C878 1.429 . S
C887 N884 1.350 . S
C887 C886 1.434 1_655 S
C888 C889 1.369 . S
C888 C890 1.419 . S
C888 H892 0.930 . S
C889 C888 1.369 . S
C889 C898 1.429 . S
C890 C888 1.419 . S
C890 C891 1.363 . S
C890 H893 0.929 . S
C891 C890 1.363 . S
C891 C897 1.428 . S
H892 C888 0.930 . S
H893 C890 0.929 . S
S894 N895 1.613 . S
S894 N896 1.610 . S
N895 S894 1.613 . S
N895 C898 1.350 . S
N896 S894 1.610 . S
N896 C897 1.351 . S
C897 C891 1.428 . S
C897 N896 1.351 . S
C897 C898 1.434 . S
C898 C889 1.429 . S
C898 N895 1.350 . S
C898 C897 1.434 . S
C899 C900 1.369 . S
C899 C901 1.419 . S
C899 H903 0.930 . S
C900 C899 1.369 . S
C900 C909 1.429 . S
C901 C899 1.419 . S
C901 C902 1.363 . S
C901 H904 0.929 . S
C902 C901 1.363 . S
C902 C908 1.428 . S
H903 C899 0.930 . S
H904 C901 0.929 . S
S905 N906 1.613 . S
S905 N907 1.610 . S
N906 S905 1.613 . S
N906 C909 1.350 . S
N907 S905 1.610 . S
N907 C908 1.351 . S
C908 C902 1.428 . S
C908 N907 1.351 . S
C908 C909 1.434 . S
C909 C900 1.429 . S
C909 N906 1.350 . S
C909 C908 1.434 . S
C910 C911 1.369 . S
C910 C912 1.419 . S
C910 H914 0.930 . S
C911 C910 1.369 . S
C911 C920 1.429 . S
C912 C910 1.419 . S
C912 C913 1.363 . S
C912 H915 0.929 . S
C913 C912 1.363 . S
C913 C919 1.428 . S
H914 C910 0.930 . S
H915 C912 0.929 . S
S916 N917 1.613 . S
S916 N918 1.610 . S
N917 S916 1.613 . S
N917 C920 1.350 . S
N918 S916 1.610 . S
N918 C919 1.351 . S
C919 C913 1.428 . S
C919 N918 1.351 . S
C919 C920 1.434 . S
C920 C911 1.429 . S
C920 N917 1.350 . S
C920 C919 1.434 . S
C921 C922 1.369 . S
C921 C923 1.419 . S
C921 H925 0.930 . S
C922 C921 1.369 . S
C922 C931 1.429 . S
C923 C921 1.419 . S
C923 C924 1.363 . S
C923 H926 0.929 . S
C924 C923 1.363 . S
C924 C930 1.428 . S
H925 C921 0.930 . S
H926 C923 0.929 . S
S927 N928 1.613 . S
S927 N929 1.610 . S
N928 S927 1.613 . S
N928 C931 1.350 . S
N929 S927 1.610 . S
N929 C930 1.351 . S
C930 C924 1.428 . S
C930 N929 1.351 . S
C930 C931 1.434 . S
C931 C922 1.429 . S
C931 N928 1.350 . S
C931 C930 1.434 . S
C932 C933 1.369 . S
C932 C934 1.419 . S
C932 H936 0.930 . S
C933 C932 1.369 . S
C933 C942 1.429 . S
C934 C932 1.419 . S
C934 C935 1.363 . S
C934 H937 0.929 . S
C935 C934 1.363 . S
C935 C941 1.428 . S
H936 C932 0.930 . S
H937 C934 0.929 . S
S938 N939 1.613 . S
S938 N940 1.610 . S
N939 S938 1.613 . S
N939 C942 1.350 1_554 S
N940 S938 1.610 . S
N940 C941 1.351 1_554 S
C941 C935 1.428 . S
C941 N940 1.351 1_556 S
C941 C942 1.434 . S
C942 C933 1.429 . S
C942 N939 1.350 1_556 S
C942 C941 1.434 . S
C943 C944 1.369 . S
C943 C945 1.419 1_655 S
C943 H947 0.930 . S
C944 C943 1.369 . S
C944 C953 1.429 . S
C945 C943 1.419 1_455 S
C945 C946 1.363 . S
C945 H948 0.929 . S
C946 C945 1.363 . S
C946 C952 1.428 . S
H947 C943 0.930 . S
H948 C945 0.929 . S
S949 N950 1.617 1_455 S
S949 N951 1.606 . S
N950 S949 1.617 1_655 S
N950 C953 1.350 . S
N951 S949 1.606 . S
N951 C952 1.351 . S
C952 C946 1.428 . S
C952 N951 1.351 . S
C952 C953 1.434 1_455 S
C953 C944 1.429 . S
C953 N950 1.350 . S
C953 C952 1.434 1_655 S
C954 C955 1.369 . S
C954 C956 1.419 1_655 S
C954 H958 0.930 . S
C955 C954 1.369 . S
C955 C964 1.429 . S
C956 C954 1.419 1_455 S
C956 C957 1.363 . S
C956 H959 0.929 . S
C957 C956 1.363 . S
C957 C963 1.428 . S
H958 C954 0.930 . S
H959 C956 0.929 . S
S960 N961 1.617 1_455 S
S960 N962 1.606 . S
N961 S960 1.617 1_655 S
N961 C964 1.350 . S
N962 S960 1.606 . S
N962 C963 1.351 . S
C963 C957 1.428 . S
C963 N962 1.351 . S
C963 C964 1.434 1_455 S
C964 C955 1.429 . S
C964 N961 1.350 . S
C964 C963 1.434 1_655 S
C965 C966 1.369 . S
C965 C967 1.419 . S
C965 H969 0.930 . S
C966 C965 1.369 . S
C966 C975 1.429 . S
C967 C965 1.419 . S
C967 C968 1.363 . S
C967 H970 0.929 . S
C968 C967 1.363 . S
C968 C974 1.428 . S
H969 C965 0.930 . S
H970 C967 0.929 . S
S971 N972 1.613 . S
S971 N973 1.610 . S
N972 S971 1.613 . S
N972 C975 1.350 . S
N973 S971 1.610 . S
N973 C974 1.351 . S
C974 C968 1.428 . S
C974 N973 1.351 . S
C974 C975 1.434 . S
C975 C966 1.429 . S
C975 N972 1.350 . S
C975 C974 1.434 . S
C976 C977 1.369 . S
C976 C978 1.419 . S
C976 H980 0.930 . S
C977 C976 1.369 . S
C977 C986 1.429 . S
C978 C976 1.419 . S
C978 C979 1.363 . S
C978 H981 0.929 . S
C979 C978 1.363 . S
C979 C985 1.428 . S
H980 C976 0.930 . S
H981 C978 0.929 . S
S982 N983 1.613 . S
S982 N984 1.610 . S
N983 S982 1.613 . S
N983 C986 1.350 . S
N984 S982 1.610 . S
N984 C985 1.351 . S
C985 C979 1.428 . S
C985 N984 1.351 . S
C985 C986 1.434 . S
C986 C977 1.429 . S
C986 N983 1.350 . S
C986 C985 1.434 . S
C987 C988 1.369 . S
C987 C989 1.419 . S
C987 H991 0.930 . S
C988 C987 1.369 . S
C988 C997 1.429 . S
C989 C987 1.419 . S
C989 C990 1.363 . S
C989 H992 0.929 . S
C990 C989 1.363 . S
C990 C996 1.428 . S
H991 C987 0.930 . S
H992 C989 0.929 . S
S993 N994 1.613 . S
S993 N995 1.610 . S
N994 S993 1.613 . S
N994 C997 1.350 . S
N995 S993 1.610 . S
N995 C996 1.351 . S
C996 C990 1.428 . S
C996 N995 1.351 . S
C996 C997 1.434 . S
C997 C988 1.429 . S
C997 N994 1.350 . S
C997 C996 1.434 . S
C998 C999 1.369 . S
C998 C1000 1.419 . S
C998 H1002 0.930 . S
C999 C998 1.369 . S
C999 C1008 1.429 . S
C1000 C998 1.419 . S
C1000 C1001 1.363 . S
C1000 H1003 0.929 . S
C1001 C1000 1.363 . S
C1001 C1007 1.428 . S
H1002 C998 0.930 . S
H1003 C1000 0.929 . S
S1004 N1005 1.613 . S
S1004 N1006 1.610 . S
N1005 S1004 1.613 . S
N1005 C1008 1.350 . S
N1006 S1004 1.610 . S
N1006 C1007 1.351 . S
C1007 C1001 1.428 . S
C1007 N1006 1.351 . S
C1007 C1008 1.434 . S
C1008 C999 1.429 . S
C1008 N1005 1.350 . S
C1008 C1007 1.434 . S
C1009 C1010 1.369 . S
C1009 C1011 1.419 . S
C1009 H1013 0.930 . S
C1010 C1009 1.369 . S
C1010 C1019 1.429 . S
C1011 C1009 1.419 . S
C1011 C1012 1.363 . S
C1011 H1014 0.929 . S
C1012 C1011 1.363 . S
C1012 C1018 1.428 . S
H1013 C1009 0.930 . S
H1014 C1011 0.929 . S
S1015 N1016 1.613 1_554 S
S1015 N1017 1.610 . S
N1016 S1015 1.613 1_556 S
N1016 C1019 1.350 1_556 S
N1017 S1015 1.610 . S
N1017 C1018 1.351 . S
C1018 C1012 1.428 . S
C1018 N1017 1.351 . S
C1018 C1019 1.434 . S
C1019 C1010 1.429 . S
C1019 N1016 1.350 1_554 S
C1019 C1018 1.434 . S
C1020 C1021 1.369 . S
C1020 C1022 1.419 . S
C1020 H1024 0.930 . S
C1021 C1020 1.369 . S
C1021 C1030 1.429 . S
C1022 C1020 1.419 . S
C1022 C1023 1.363 . S
C1022 H1025 0.929 . S
C1023 C1022 1.363 . S
C1023 C1029 1.428 . S
H1024 C1020 0.930 . S
H1025 C1022 0.929 . S
S1026 N1027 1.613 . S
S1026 N1028 1.610 . S
N1027 S1026 1.613 . S
N1027 C1030 1.350 . S
N1028 S1026 1.610 . S
N1028 C1029 1.351 . S
C1029 C1023 1.428 . S
C1029 N1028 1.351 . S
C1029 C1030 1.434 . S
C1030 C1021 1.429 . S
C1030 N1027 1.350 . S
C1030 C1029 1.434 . S
C1031 C1032 1.369 . S
C1031 C1033 1.419 . S
C1031 H1035 0.930 . S
C1032 C1031 1.369 . S
C1032 C1041 1.429 . S
C1033 C1031 1.419 . S
C1033 C1034 1.363 . S
C1033 H1036 0.929 . S
C1034 C1033 1.363 . S
C1034 C1040 1.428 . S
H1035 C1031 0.930 . S
H1036 C1033 0.929 . S
S1037 N1038 1.613 . S
S1037 N1039 1.610 . S
N1038 S1037 1.613 . S
N1038 C1041 1.350 . S
N1039 S1037 1.610 . S
N1039 C1040 1.351 . S
C1040 C1034 1.428 . S
C1040 N1039 1.351 . S
C1040 C1041 1.434 . S
C1041 C1032 1.429 . S
C1041 N1038 1.350 . S
C1041 C1040 1.434 . S
C1042 C1043 1.369 . S
C1042 C1044 1.419 . S
C1042 H1046 0.930 . S
C1043 C1042 1.369 . S
C1043 C1052 1.429 . S
C1044 C1042 1.419 . S
C1044 C1045 1.363 . S
C1044 H1047 0.929 . S
C1045 C1044 1.363 . S
C1045 C1051 1.428 . S
H1046 C1042 0.930 . S
H1047 C1044 0.929 . S
S1048 N1049 1.613 . S
S1048 N1050 1.610 1_554 S
N1049 S1048 1.613 . S
N1049 C1052 1.350 . S
N1050 S1048 1.610 1_556 S
N1050 C1051 1.351 1_556 S
C1051 C1045 1.428 . S
C1051 N1050 1.351 1_554 S
C1051 C1052 1.434 . S
C1052 C1043 1.429 . S
C1052 N1049 1.350 . S
C1052 C1051 1.434 . S
C1053 C1054 1.369 . S
C1053 C1055 1.419 . S
C1053 H1057 0.930 . S
C1054 C1053 1.369 . S
C1054 C1063 1.429 . S
C1055 C1053 1.419 . S
C1055 C1056 1.363 . S
C1055 H1058 0.929 . S
C1056 C1055 1.363 . S
C1056 C1062 1.428 . S
H1057 C1053 0.930 . S
H1058 C1055 0.929 . S
S1059 N1060 1.613 . S
S1059 N1061 1.610 . S
N1060 S1059 1.613 . S
N1060 C1063 1.350 . S
N1061 S1059 1.610 . S
N1061 C1062 1.351 . S
C1062 C1056 1.428 . S
C1062 N1061 1.351 . S
C1062 C1063 1.434 . S
C1063 C1054 1.429 . S
C1063 N1060 1.350 . S
C1063 C1062 1.434 . S
C1064 C1065 1.369 . S
C1064 C1066 1.419 . S
C1064 H1068 0.930 . S
C1065 C1064 1.369 . S
C1065 C1074 1.429 . S
C1066 C1064 1.419 . S
C1066 C1067 1.363 . S
C1066 H1069 0.929 . S
C1067 C1066 1.363 . S
C1067 C1073 1.428 . S
H1068 C1064 0.930 . S
H1069 C1066 0.929 . S
S1070 N1071 1.613 . S
S1070 N1072 1.610 . S
N1071 S1070 1.613 . S
N1071 C1074 1.350 . S
N1072 S1070 1.610 . S
N1072 C1073 1.351 . S
C1073 C1067 1.428 . S
C1073 N1072 1.351 . S
C1073 C1074 1.434 . S
C1074 C1065 1.429 . S
C1074 N1071 1.350 . S
C1074 C1073 1.434 . S
C1075 C1076 1.369 . S
C1075 C1077 1.419 . S
C1075 H1079 0.930 . S
C1076 C1075 1.369 . S
C1076 C1085 1.429 . S
C1077 C1075 1.419 . S
C1077 C1078 1.363 . S
C1077 H1080 0.929 . S
C1078 C1077 1.363 . S
C1078 C1084 1.428 . S
H1079 C1075 0.930 . S
H1080 C1077 0.929 . S
S1081 N1082 1.613 . S
S1081 N1083 1.610 . S
N1082 S1081 1.613 . S
N1082 C1085 1.350 . S
N1083 S1081 1.610 . S
N1083 C1084 1.351 . S
C1084 C1078 1.428 . S
C1084 N1083 1.351 . S
C1084 C1085 1.434 . S
C1085 C1076 1.429 . S
C1085 N1082 1.350 . S
C1085 C1084 1.434 . S
C1086 C1087 1.369 . S
C1086 C1088 1.419 . S
C1086 H1090 0.930 . S
C1087 C1086 1.369 . S
C1087 C1096 1.429 . S
C1088 C1086 1.419 . S
C1088 C1089 1.363 . S
C1088 H1091 0.929 . S
C1089 C1088 1.363 . S
C1089 C1095 1.428 . S
H1090 C1086 0.930 . S
H1091 C1088 0.929 . S
S1092 N1093 1.613 . S
S1092 N1094 1.610 . S
N1093 S1092 1.613 . S
N1093 C1096 1.350 . S
N1094 S1092 1.610 . S
N1094 C1095 1.351 . S
C1095 C1089 1.428 . S
C1095 N1094 1.351 . S
C1095 C1096 1.434 . S
C1096 C1087 1.429 . S
C1096 N1093 1.350 . S
C1096 C1095 1.434 . S
C1097 C1098 1.369 . S
C1097 C1099 1.419 . S
C1097 H1101 0.930 . S
C1098 C1097 1.369 . S
C1098 C1107 1.429 . S
C1099 C1097 1.419 . S
C1099 C1100 1.363 . S
C1099 H1102 0.929 . S
C1100 C1099 1.363 . S
C1100 C1106 1.428 . S
H1101 C1097 0.930 . S
H1102 C1099 0.929 . S
S1103 N1104 1.613 . S
S1103 N1105 1.610 . S
N1104 S1103 1.613 . S
N1104 C1107 1.350 . S
N1105 S1103 1.610 . S
N1105 C1106 1.351 . S
C1106 C1100 1.428 . S
C1106 N1105 1.351 . S
C1106 C1107 1.434 . S
C1107 C1098 1.429 . S
C1107 N1104 1.350 . S
C1107 C1106 1.434 . S
C1108 C1109 1.369 . S
C1108 C1110 1.419 . S
C1108 H1112 0.930 . S
C1109 C1108 1.369 . S
C1109 C1118 1.429 . S
C1110 C1108 1.419 . S
C1110 C1111 1.363 . S
C1110 H1113 0.929 . S
C1111 C1110 1.363 . S
C1111 C1117 1.428 . S
H1112 C1108 0.930 . S
H1113 C1110 0.929 . S
S1114 N1115 1.613 . S
S1114 N1116 1.610 . S
N1115 S1114 1.613 . S
N1115 C1118 1.350 . S
N1116 S1114 1.610 . S
N1116 C1117 1.351 . S
C1117 C1111 1.428 . S
C1117 N1116 1.351 . S
C1117 C1118 1.434 . S
C1118 C1109 1.429 . S
C1118 N1115 1.350 . S
C1118 C1117 1.434 . S
C1119 C1120 1.369 . S
C1119 C1121 1.419 . S
C1119 H1123 0.930 . S
C1120 C1119 1.369 . S
C1120 C1129 1.429 . S
C1121 C1119 1.419 . S
C1121 C1122 1.363 . S
C1121 H1124 0.929 . S
C1122 C1121 1.363 . S
C1122 C1128 1.428 . S
H1123 C1119 0.930 . S
H1124 C1121 0.929 . S
S1125 N1126 1.613 . S
S1125 N1127 1.610 . S
N1126 S1125 1.613 . S
N1126 C1129 1.350 . S
N1127 S1125 1.610 . S
N1127 C1128 1.351 . S
C1128 C1122 1.428 . S
C1128 N1127 1.351 . S
C1128 C1129 1.434 . S
C1129 C1120 1.429 . S
C1129 N1126 1.350 . S
C1129 C1128 1.434 . S
C1130 C1131 1.369 . S
C1130 C1132 1.419 . S
C1130 H1134 0.930 . S
C1131 C1130 1.369 . S
C1131 C1140 1.429 . S
C1132 C1130 1.419 . S
C1132 C1133 1.363 . S
C1132 H1135 0.929 . S
C1133 C1132 1.363 . S
C1133 C1139 1.428 . S
H1134 C1130 0.930 . S
H1135 C1132 0.929 . S
S1136 N1137 1.613 . S
S1136 N1138 1.610 . S
N1137 S1136 1.613 . S
N1137 C1140 1.350 . S
N1138 S1136 1.610 . S
N1138 C1139 1.351 . S
C1139 C1133 1.428 . S
C1139 N1138 1.351 . S
C1139 C1140 1.434 . S
C1140 C1131 1.429 . S
C1140 N1137 1.350 . S
C1140 C1139 1.434 . S
C1141 C1142 1.369 . S
C1141 C1143 1.419 . S
C1141 H1145 0.930 . S
C1142 C1141 1.369 . S
C1142 C1151 1.429 . S
C1143 C1141 1.419 . S
C1143 C1144 1.363 . S
C1143 H1146 0.929 . S
C1144 C1143 1.363 . S
C1144 C1150 1.428 . S
H1145 C1141 0.930 . S
H1146 C1143 0.929 . S
S1147 N1148 1.613 . S
S1147 N1149 1.610 . S
N1148 S1147 1.613 . S
N1148 C1151 1.350 . S
N1149 S1147 1.610 . S
N1149 C1150 1.351 . S
C1150 C1144 1.428 . S
C1150 N1149 1.351 . S
C1150 C1151 1.434 . S
C1151 C1142 1.429 . S
C1151 N1148 1.350 . S
C1151 C1150 1.434 . S
C449 C92 1.403 . S
C451 C8 1.403 . S
C460 C22 1.397 . S
C462 C106 1.408 . S
C471 C64 1.406 . S
C473 C36 1.401 . S
C482 C50 1.397 . S
C484 C78 1.408 . S
C493 C120 1.404 . S
C495 C204 1.403 . S
C504 C218 1.400 . S
C506 C134 1.405 . S
C515 C148 1.409 . S
C517 C176 1.398 . S
C526 C190 1.396 . S
C528 C162 1.408 . S
C537 C232 1.398 . S
C539 C316 1.407 . S
C548 C246 1.397 . S
C550 C330 1.407 . S
C559 C288 1.406 . S
C561 C260 1.401 . S
C570 C302 1.401 . S
C572 C274 1.404 . S
C581 C344 1.399 . S
C583 C428 1.407 . S
C592 C358 1.409 . S
C594 C442 1.398 . S
C603 C400 1.409 . S
C605 C372 1.398 . S
C614 C386 1.407 . S
C616 C414 1.400 . S
C625 C11 1.589 1_556 S
C627 C109 1.589 . S
C636 C67 1.589 1_554 S
C638 C25 1.589 . S
C647 C81 1.589 . S
C649 C39 1.590 . S
C658 C53 1.590 . S
C660 C95 1.590 . S
C669 C123 1.591 1_554 S
C671 C221 1.591 . S
C680 C179 1.590 1_556 S
C682 C137 1.589 . S
C691 C193 1.588 . S
C693 C151 1.588 . S
C702 C207 1.591 . S
C704 C165 1.590 . S
C713 C235 1.588 . S
C715 C333 1.588 . S
C724 C249 1.590 . S
C726 C291 1.589 . S
C735 C305 1.588 . S
C737 C263 1.589 1_556 S
C746 C277 1.591 . S
C748 C319 1.591 1_554 S
C757 C347 1.589 . S
C759 C445 1.590 . S
C768 C403 1.589 . S
C770 C361 1.588 . S
C779 C375 1.591 1_554 S
C781 C417 1.591 . S
C790 C389 1.590 . S
C792 C431 1.591 1_556 S
C801 C427 1.492 . S
C803 C7 1.492 . S
C812 C217 1.488 . S
C814 C21 1.489 . S
C823 C35 1.488 . S
C825 C399 1.489 . S
C834 C49 1.489 . S
C836 C189 1.490 . S
C845 C63 1.488 . S
C847 C371 1.488 . S
C856 C77 1.488 . S
C858 C161 1.489 . S
C867 C91 1.488 . S
C869 C343 1.488 . S
C878 C133 1.492 . S
C880 C105 1.492 . S
C889 C315 1.488 . S
C891 C119 1.488 . S
C900 C147 1.488 . S
C902 C287 1.488 . S
C911 C259 1.488 . S
C913 C175 1.489 . S
C922 C231 1.492 . S
C924 C203 1.492 . S
C933 C245 1.488 . S
C935 C441 1.488 . S
C944 C273 1.489 . S
C946 C413 1.489 . S
C955 C301 1.490 . S
C957 C385 1.490 . S
C966 C357 1.492 . S
C968 C329 1.491 . S
C977 C13 1.033 . S
C979 C111 1.044 . S
C988 C27 1.048 . S
C990 C69 1.034 . S
C999 C83 1.041 . S
C1001 C41 1.045 . S
C1010 C55 1.050 . S
C1012 C97 1.035 . S
C1021 C223 1.037 . S
C1023 C125 1.046 . S
C1032 C181 1.038 . S
C1034 C139 1.045 . S
C1043 C153 1.033 . S
C1045 C195 1.046 . S
C1054 C209 1.038 . S
C1056 C167 1.046 . S
C1065 C335 1.032 . S
C1067 C237 1.047 . S
C1076 C293 1.044 . S
C1078 C251 1.043 . S
C1087 C307 1.035 . S
C1089 C265 1.048 . S
C1098 C321 1.042 . S
C1100 C279 1.037 . S
C1109 C349 1.043 . S
C1111 C447 1.043 . S
C1120 C363 1.048 . S
C1122 C405 1.035 . S
C1131 C377 1.050 . S
C1133 C419 1.034 . S
C1142 C433 1.036 . S
C1144 C391 1.047 . S
