# Generated by pormake.
# Topology wje, (4)-cn, num edge types: 1
# Building blocks:
#     Node 0, Type 0, BuildingBlock: AZAVOO_clean_sbu_0, # of connection points: 4
#     Node 1, Type 0, BuildingBlock: AZAVOO_clean_sbu_0, # of connection points: 4
#     Node 2, Type 0, BuildingBlock: AZAVOO_clean_sbu_0, # of connection points: 4
#     Node 3, Type 0, BuildingBlock: AZAVOO_clean_sbu_0, # of connection points: 4
#     Node 4, Type 0, BuildingBlock: AZAVOO_clean_sbu_0, # of connection points: 4
#     Node 5, Type 0, BuildingBlock: AZAVOO_clean_sbu_0, # of connection points: 4
#     Node 6, Type 0, BuildingBlock: AZAVOO_clean_sbu_0, # of connection points: 4
#     Node 7, Type 0, BuildingBlock: AZAVOO_clean_sbu_0, # of connection points: 4
#     Node 8, Type 0, BuildingBlock: AZAVOO_clean_sbu_0, # of connection points: 4
#     Node 9, Type 0, BuildingBlock: AZAVOO_clean_sbu_0, # of connection points: 4
#     Node 10, Type 0, BuildingBlock: AZAVOO_clean_sbu_0, # of connection points: 4
#     Node 11, Type 0, BuildingBlock: AZAVOO_clean_sbu_0, # of connection points: 4
#     Edge 12, Type (0, 0), BuildingBlock: AJUNOK_clean_linker_0, # of connection points: 2
#     Edge 13, Type (0, 0), BuildingBlock: AJUNOK_clean_linker_0, # of connection points: 2
#     Edge 14, Type (0, 0), BuildingBlock: AJUNOK_clean_linker_0, # of connection points: 2
#     Edge 15, Type (0, 0), BuildingBlock: AJUNOK_clean_linker_0, # of connection points: 2
#     Edge 16, Type (0, 0), BuildingBlock: AJUNOK_clean_linker_0, # of connection points: 2
#     Edge 17, Type (0, 0), BuildingBlock: AJUNOK_clean_linker_0, # of connection points: 2
#     Edge 18, Type (0, 0), BuildingBlock: AJUNOK_clean_linker_0, # of connection points: 2
#     Edge 19, Type (0, 0), BuildingBlock: AJUNOK_clean_linker_0, # of connection points: 2
#     Edge 20, Type (0, 0), BuildingBlock: AJUNOK_clean_linker_0, # of connection points: 2
#     Edge 21, Type (0, 0), BuildingBlock: AJUNOK_clean_linker_0, # of connection points: 2
#     Edge 22, Type (0, 0), BuildingBlock: AJUNOK_clean_linker_0, # of connection points: 2
#     Edge 23, Type (0, 0), BuildingBlock: AJUNOK_clean_linker_0, # of connection points: 2
#     Edge 24, Type (0, 0), BuildingBlock: AJUNOK_clean_linker_0, # of connection points: 2
#     Edge 25, Type (0, 0), BuildingBlock: AJUNOK_clean_linker_0, # of connection points: 2
#     Edge 26, Type (0, 0), BuildingBlock: AJUNOK_clean_linker_0, # of connection points: 2
#     Edge 27, Type (0, 0), BuildingBlock: AJUNOK_clean_linker_0, # of connection points: 2
#     Edge 28, Type (0, 0), BuildingBlock: AJUNOK_clean_linker_0, # of connection points: 2
#     Edge 29, Type (0, 0), BuildingBlock: AJUNOK_clean_linker_0, # of connection points: 2
#     Edge 30, Type (0, 0), BuildingBlock: AJUNOK_clean_linker_0, # of connection points: 2
#     Edge 31, Type (0, 0), BuildingBlock: AJUNOK_clean_linker_0, # of connection points: 2
#     Edge 32, Type (0, 0), BuildingBlock: AJUNOK_clean_linker_0, # of connection points: 2
#     Edge 33, Type (0, 0), BuildingBlock: AJUNOK_clean_linker_0, # of connection points: 2
#     Edge 34, Type (0, 0), BuildingBlock: AJUNOK_clean_linker_0, # of connection points: 2
#     Edge 35, Type (0, 0), BuildingBlock: AJUNOK_clean_linker_0, # of connection points: 2
# Relax obj value: 0.154
# Max RMSD: 0.138
# Mean RMSD: 0.137
data_MOF--net-wje--node1-AZAVOO_clean_sbu_0--edge1-AJUNOK_clean_linker_0
_symmetry_space_group_name_H-M    P1
_symmetry_Int_Tables_number       1
_symmetry_cell_setting            triclinic
loop_
_symmetry_equiv_pos_as_xyz
'x, y, z'
_cell_length_a     32.820361
_cell_length_b     32.927986
_cell_length_c     21.45234
_cell_angle_alpha  89.906504
_cell_angle_beta   90.214283
_cell_angle_gamma 120.03065
loop_
_atom_site_label
_atom_site_type_symbol
_atom_site_fract_x
_atom_site_fract_y
_atom_site_fract_z
_atom_type_partial_charge
Mg0 Mg 0.32783 0.99159 0.2121 0.0
O1 O 0.33219 -0.00197 0.31792 0.0
O2 O 0.39708 0.06312 0.34741 0.0
Mg3 Mg 0.43484 0.09941 0.25671 0.0
C4 C 0.35918 0.02529 0.36032 0.0
C5 C 0.24745 0.8924 0.22157 0.0
O6 O 0.27942 0.88825 0.19016 0.0
O7 O 0.30646 0.04737 0.20079 0.0
O8 O 0.3743 0.11155 0.22659 0.0
O9 O 0.36905 0.95539 0.21938 0.0
O10 O 0.40189 0.03195 0.20531 0.0
C11 C 0.33143 0.09165 0.20854 0.0
C12 C 0.40672 0.99599 0.21545 0.0
O13 O 0.25288 0.93302 0.22928 0.0
Mg14 Mg 0.36418 0.33498 0.5523 0.0
O15 O 0.35651 0.34441 0.65556 0.0
O16 O 0.35448 0.40968 0.67516 0.0
Mg17 Mg 0.36223 0.44403 0.57942 0.0
C18 C 0.35366 0.37244 0.69353 0.0
C19 C 0.36962 0.25758 0.62113 0.0
O20 O 0.40687 0.29665 0.63924 0.0
O21 O 0.28744 0.31419 0.53183 0.0
O22 O 0.29163 0.38367 0.54474 0.0
O23 O 0.44247 0.37716 0.56399 0.0
O24 O 0.39868 0.40835 0.54011 0.0
C25 C 0.26886 0.34022 0.53041 0.0
C26 C 0.43952 0.41437 0.55412 0.0
O27 O 0.34388 0.25968 0.5782 0.0
Mg28 Mg 0.99021 0.33143 0.89769 0.0
O29 O 0.98429 0.33342 0.00282 0.0
O30 O 0.91687 0.32792 0.03273 0.0
Mg31 Mg 0.87881 0.32533 0.94137 0.0
C32 C 0.95655 0.33153 0.04532 0.0
C33 C 0.08508 0.35537 0.9506 0.0
O34 O 0.07828 0.39043 0.96389 0.0
O35 O 0.93635 0.2524 0.8934 0.0
O36 O 0.87046 0.25391 0.91582 0.0
O37 O 0.02164 0.40907 0.89204 0.0
O38 O 0.9452 0.36009 0.88715 0.0
C39 C 0.89172 0.23182 0.90068 0.0
C40 C 0.97955 0.4027 0.88801 0.0
O41 O 0.05401 0.32164 0.91797 0.0
Mg42 Mg 0.66649 0.00962 0.24368 0.0
O43 O 0.65233 0.99638 0.3476 0.0
O44 O 0.58249 0.93327 0.36668 0.0
Mg45 Mg 0.55392 0.90161 0.27013 0.0
C46 C 0.6207 0.96869 0.38509 0.0
C47 C 0.74147 0.09325 0.31288 0.0
O48 O 0.70135 0.09045 0.32765 0.0
O49 O 0.68563 0.9518 0.2361 0.0
O50 O 0.61524 0.88832 0.25277 0.0
O51 O 0.6276 0.04912 0.24203 0.0
O52 O 0.59306 0.9725 0.22736 0.0
C53 C 0.6592 0.90747 0.24152 0.0
C54 C 0.5893 0.00939 0.2347 0.0
O55 O 0.74131 0.06497 0.27231 0.0
Mg56 Mg 0.68118 0.67757 0.57899 0.0
O57 O 0.68963 0.67487 0.68384 0.0
O58 O 0.69162 0.611 0.71214 0.0
Mg59 Mg 0.68278 0.5708 0.6209 0.0
C60 C 0.69296 0.64934 0.72578 0.0
C61 C 0.66937 0.7638 0.57404 0.0
O62 O 0.6356 0.7342 0.53694 0.0
O63 O 0.7573 0.69751 0.5609 0.0
O64 O 0.75369 0.62931 0.58334 0.0
O65 O 0.60348 0.6373 0.5884 0.0
O66 O 0.64656 0.60387 0.57296 0.0
C67 C 0.77616 0.67183 0.56456 0.0
C68 C 0.60565 0.5994 0.58146 0.0
O69 O 0.69883 0.75279 0.59477 0.0
Mg70 Mg 0.94874 0.63951 0.87467 0.0
O71 O 0.96835 0.64441 0.9777 0.0
O72 O 0.03523 0.64318 0.98922 0.0
Mg73 Mg 0.05745 0.63392 0.89124 0.0
C74 C 0.00063 0.64552 0.01204 0.0
C75 C 0.85536 0.63465 0.92332 0.0
O76 O 0.83954 0.58946 0.91753 0.0
O77 O 0.0081 0.7158 0.85415 0.0
O78 O 0.0705 0.70538 0.85876 0.0
O79 O 0.9105 0.56028 0.88336 0.0
O80 O 0.98467 0.60324 0.85596 0.0
C81 C 0.05222 0.73097 0.84804 0.0
C82 C 0.94986 0.56258 0.86884 0.0
O83 O 0.89689 0.6633 0.90474 0.0
Mg84 Mg 0.01909 0.66228 0.42329 0.0
O85 O 0.00455 0.65305 0.31874 0.0
O86 O 0.93501 0.59009 0.29966 0.0
Mg87 Mg 0.90556 0.55678 0.39489 0.0
C88 C 0.97288 0.62561 0.28075 0.0
C89 C 0.11424 0.73771 0.37493 0.0
O90 O 0.11716 0.69942 0.3748 0.0
O91 O 0.96641 0.68705 0.43978 0.0
O92 O 0.89861 0.61967 0.42651 0.0
O93 O 0.05195 0.61764 0.41857 0.0
O94 O 0.97671 0.58891 0.43868 0.0
C95 C 0.92155 0.66326 0.44019 0.0
C96 C 0.01123 0.58148 0.42965 0.0
O97 O 0.07761 0.73594 0.39743 0.0
Mg98 Mg 0.31327 0.98998 0.76531 0.0
O99 O 0.31826 0.98648 0.66009 0.0
O100 O 0.32238 0.9238 0.63134 0.0
Mg101 Mg 0.31808 0.88516 0.72272 0.0
C102 C 0.32218 0.96148 0.61807 0.0
C103 C 0.32909 0.08919 0.75864 0.0
O104 O 0.36314 0.0939 0.79571 0.0
O105 O 0.23545 0.93241 0.76727 0.0
O106 O 0.24286 0.87038 0.74302 0.0
O107 O 0.3913 0.02788 0.76835 0.0
O108 O 0.34793 0.95093 0.77776 0.0
C109 C 0.21763 0.8884 0.75805 0.0
C110 C 0.38906 0.98767 0.77302 0.0
O111 O 0.297 0.04809 0.74396 0.0
Mg112 Mg 0.33283 0.34865 0.10175 0.0
O113 O 0.34188 0.34628 0.99745 0.0
O114 O 0.40721 0.34461 0.97549 0.0
Mg115 Mg 0.44028 0.34396 0.06969 0.0
C116 C 0.37057 0.34578 0.95827 0.0
C117 C 0.25469 0.36728 0.05601 0.0
O118 O 0.29258 0.40895 0.05412 0.0
O119 O 0.30911 0.27075 0.11431 0.0
O120 O 0.37715 0.27252 0.096 0.0
O121 O 0.37859 0.42674 0.09673 0.0
O122 O 0.40625 0.3792 0.11572 0.0
C123 C 0.33356 0.25049 0.11032 0.0
C124 C 0.41443 0.42105 0.10525 0.0
O125 O 0.25798 0.33304 0.07767 0.0
Mg126 Mg 0.00181 0.32393 0.4493 0.0
O127 O 0.00193 0.33031 0.34364 0.0
O128 O 0.06251 0.39819 0.31259 0.0
Mg129 Mg 0.10299 0.43516 0.4012 0.0
C130 C 0.02534 0.35934 0.30075 0.0
C131 C 0.90489 0.23551 0.4459 0.0
O132 O 0.89684 0.26406 0.47952 0.0
O133 O 0.06215 0.3081 0.4498 0.0
O134 O 0.1219 0.37805 0.42165 0.0
O135 O 0.96022 0.36025 0.45311 0.0
O136 O 0.03782 0.39754 0.4576 0.0
C137 C 0.10566 0.33538 0.43798 0.0
C138 C -0.00037 0.39956 0.45428 0.0
O139 O 0.94707 0.24775 0.43227 0.0
Mg140 Mg 0.6368 0.97418 0.78299 0.0
O141 O 0.6451 0.99468 0.68114 0.0
O142 O 0.64103 0.05907 0.6629 0.0
Mg143 Mg 0.63718 0.08485 0.76124 0.0
C144 C 0.64484 0.02447 0.64382 0.0
C145 C 0.63321 0.89623 0.7053 0.0
O146 O 0.59676 0.89983 0.68789 0.0
O147 O 0.7134 0.02992 0.80379 0.0
O148 O 0.7094 0.09516 0.78981 0.0
O149 O 0.55857 0.93629 0.77172 0.0
O150 O 0.60001 0.01135 0.79659 0.0
C151 C 0.73242 0.07451 0.80339 0.0
C152 C 0.55992 0.97564 0.78153 0.0
O153 O 0.65757 0.9204 0.75175 0.0
Mg154 Mg 0.67831 0.65873 0.13715 0.0
O155 O 0.69141 0.67079 0.03134 0.0
O156 O 0.62952 0.67459 0.99408 0.0
Mg157 Mg 0.57658 0.66141 0.0712 0.0
C158 C 0.66883 0.67609 0.98629 0.0
C159 C 0.79409 0.69274 0.13421 0.0
O160 O 0.83253 0.71222 0.16839 0.0
O161 O 0.69297 0.73352 0.15496 0.0
O162 O 0.62772 0.73076 0.11875 0.0
O163 O 0.64068 0.5804 0.12292 0.0
O164 O 0.60587 0.6228 0.12021 0.0
C165 C 0.66778 0.75241 0.14553 0.0
C166 C 0.60268 0.58245 0.11404 0.0
O167 O 0.75572 0.68459 0.15946 0.0
C168 C 0.31331 0.12818 0.12005 0.0
C169 C 0.31443 0.12247 0.1849 0.0
C170 C 0.31422 0.16803 0.09501 0.0
C171 C 0.31482 0.20251 0.13412 0.0
H172 H 0.31657 0.10424 0.08862 0.0
H173 H 0.31824 0.17373 0.04511 0.0
S174 S 0.31185 0.20054 0.30675 0.0
N175 N 0.31223 0.15218 0.28741 0.0
N176 N 0.31167 0.22604 0.2404 0.0
C177 C 0.31119 0.19473 0.19878 0.0
C178 C 0.31161 0.15489 0.22425 0.0
C179 C 0.18221 0.30729 0.53869 0.0
C180 C 0.22244 0.32309 0.50143 0.0
C181 C 0.14141 0.30566 0.51498 0.0
C182 C 0.14035 0.321 0.45397 0.0
H183 H 0.18353 0.29968 0.58757 0.0
H184 H 0.1124 0.29685 0.54646 0.0
S185 S 0.23479 0.35991 0.33612 0.0
N186 N 0.25703 0.34916 0.39905 0.0
N187 N 0.18104 0.34752 0.35514 0.0
C188 C 0.17908 0.33325 0.41509 0.0
C189 C 0.22007 0.33404 0.43878 0.0
C190 C 0.81619 0.1362 0.78943 0.0
C191 C 0.78024 0.10405 0.8286 0.0
C192 C 0.85664 0.17489 0.8143 0.0
C193 C 0.86158 0.18325 0.87896 0.0
H194 H 0.81136 0.13344 0.73931 0.0
H195 H 0.88165 0.201 0.78248 0.0
S196 S 0.77941 0.10702 1.00115 0.0
N197 N 0.75432 0.08037 0.93504 0.0
N198 N 0.82931 0.15426 0.98158 0.0
C199 C 0.82756 0.14949 0.91858 0.0
C200 C 0.78703 0.10954 0.89338 0.0
C201 C 0.69101 0.83664 0.13684 0.0
C202 C 0.68087 0.7978 0.17453 0.0
C203 C 0.68975 0.87553 0.16135 0.0
C204 C 0.67685 0.87591 0.22371 0.0
H205 H 0.69683 0.83559 0.08732 0.0
H206 H 0.69444 0.90331 0.12988 0.0
S207 S 0.65097 0.78446 0.34247 0.0
N208 N 0.6619 0.76389 0.2783 0.0
N209 N 0.65744 0.83604 0.32362 0.0
C210 C 0.66963 0.83864 0.26266 0.0
C211 C 0.67214 0.79971 0.23817 0.0
C212 C 0.85844 0.68391 0.4369 0.0
C213 C 0.89485 0.68277 0.46995 0.0
C214 C 0.82264 0.68681 0.46851 0.0
C215 C 0.82152 0.68709 0.53404 0.0
H216 H 0.85574 0.679 0.38681 0.0
H217 H 0.79325 0.68399 0.44178 0.0
S218 S 0.91075 0.68865 0.64143 0.0
N219 N 0.93017 0.68678 0.57113 0.0
N220 N 0.86144 0.68975 0.63056 0.0
C221 C 0.85935 0.68923 0.56728 0.0
C222 C 0.8965 0.68771 0.5351 0.0
C223 C 0.14275 0.8145 0.73695 0.0
C224 C 0.16757 0.85542 0.77293 0.0
C225 C 0.1014 0.77588 0.75913 0.0
C226 C 0.08344 0.77656 0.81827 0.0
H227 H 0.15724 0.81101 0.6933 0.0
H228 H 0.08557 0.74378 0.73204 0.0
S229 S 0.13208 0.87672 0.92798 0.0
N230 N 0.16851 0.896 0.86807 0.0
N231 N 0.09098 0.82262 0.91014 0.0
C232 C 0.10552 0.81843 0.85255 0.0
C233 C 0.14756 0.85818 0.82965 0.0
C234 C 0.49338 0.03747 0.1958 0.0
C235 C 0.45355 0.00091 0.22494 0.0
C236 C 0.53745 0.04043 0.20044 0.0
C237 C 0.54312 0.007 0.2344 0.0
H238 H 0.49022 0.06314 0.16771 0.0
H239 H 0.56701 0.06831 0.1758 0.0
S240 S 0.45176 0.91028 0.32951 0.0
N241 N 0.42374 0.93412 0.2951 0.0
N242 N 0.5067 0.94069 0.30522 0.0
C243 C 0.50415 0.97203 0.26669 0.0
C244 C 0.45928 0.96874 0.26161 0.0
C245 C 0.56313 0.51206 0.59503 0.0
C246 C 0.56234 0.55292 0.57809 0.0
C247 C 0.52312 0.46751 0.58783 0.0
C248 C 0.481 0.46206 0.56247 0.0
H249 H 0.59484 0.51443 0.614 0.0
H250 H 0.52544 0.43712 0.60189 0.0
S251 S 0.4621 0.55826 0.50633 0.0
N252 N 0.51654 0.58525 0.53331 0.0
N253 N 0.44217 0.5018 0.51729 0.0
C254 C 0.48007 0.50279 0.54465 0.0
C255 C 0.52049 0.54812 0.55315 0.0
C256 C 0.92403 0.47993 0.90282 0.0
C257 C 0.95657 0.5212 0.87168 0.0
C258 C 0.93134 0.44142 0.90791 0.0
C259 C 0.9717 0.44311 0.88271 0.0
H260 H 0.89303 0.47752 0.92412 0.0
H261 H 0.90568 0.4106 0.93277 0.0
S262 S 0.06487 0.5406 0.79069 0.0
N263 N 0.02846 0.55929 0.81018 0.0
N264 N 0.04284 0.48799 0.82199 0.0
C265 C 0.00392 0.48369 0.85048 0.0
C266 C 0.99616 0.52242 0.84432 0.0
C267 C 0.04658 0.52987 0.43117 0.0
C268 C 0.00604 0.53408 0.43389 0.0
C269 C 0.04415 0.48651 0.43842 0.0
C270 C 0.00088 0.44505 0.44734 0.0
H271 H 0.08099 0.56054 0.4245 0.0
H272 H 0.07668 0.48588 0.43734 0.0
S273 S 0.884 0.43651 0.45982 0.0
N274 N 0.92117 0.49286 0.44862 0.0
N275 N 0.91628 0.41096 0.45959 0.0
C276 C 0.95989 0.44853 0.44996 0.0
C277 C 0.96245 0.49302 0.44382 0.0
C278 C 0.47402 0.94263 0.8002 0.0
C279 C 0.51654 0.97874 0.77571 0.0
C280 C 0.43261 0.94521 0.79799 0.0
C281 C 0.43223 0.98404 0.77113 0.0
H282 H 0.473 0.91261 0.8226 0.0
H283 H 0.40099 0.91714 0.81885 0.0
S284 S 0.53201 0.08356 0.69018 0.0
N285 N 0.55382 0.05114 0.71617 0.0
N286 N 0.4767 0.05678 0.71332 0.0
C287 C 0.47397 0.01933 0.74398 0.0
C288 C 0.51597 0.0165 0.74596 0.0
C289 C 0.49959 0.45938 0.13438 0.0
C290 C 0.46327 0.46077 0.10106 0.0
C291 C 0.54541 0.49818 0.13553 0.0
C292 C 0.55658 0.53962 0.10313 0.0
H293 H 0.49218 0.42879 0.16181 0.0
H294 H 0.57168 0.49645 0.16434 0.0
S295 S 0.47671 0.55701 0.99769 0.0
N296 N 0.4431 0.50444 0.02797 0.0
N297 N 0.52947 0.57653 0.02845 0.0
C298 C 0.52144 0.54005 0.06591 0.0
C299 C 0.47469 0.50082 0.06531 0.0
C300 C 0.13822 0.81186 0.31517 0.0
C301 C 0.14975 0.77941 0.34062 0.0
C302 C 0.16982 0.84836 0.27622 0.0
C303 C 0.21365 0.85318 0.26091 0.0
H304 H 0.10413 0.80835 0.32401 0.0
H305 H 0.15961 0.87247 0.25719 0.0
S306 S 0.26316 0.78139 0.32241 0.0
N307 N 0.20993 0.75744 0.35261 0.0
N308 N 0.2688 0.82537 0.27914 0.0
C309 C 0.22616 0.82196 0.28781 0.0
C310 C 0.19434 0.78526 0.32778 0.0
C311 C 0.37755 0.21615 0.71351 0.0
C312 C 0.35608 0.21353 0.65556 0.0
C313 C 0.3667 0.17581 0.74765 0.0
C314 C 0.33391 0.13094 0.72548 0.0
H315 H 0.40333 0.24972 0.73288 0.0
H316 H 0.38504 0.17992 0.79135 0.0
S317 S 0.26685 0.10458 0.57683 0.0
N318 N 0.2995 0.16235 0.57797 0.0
N319 N 0.27913 0.08618 0.6421 0.0
C320 C 0.3111 0.12767 0.6683 0.0
C321 C 0.32221 0.16901 0.63336 0.0
C322 C 0.20244 0.39971 0.03234 0.0
C323 C 0.20985 0.36128 0.03102 0.0
C324 C 0.16217 0.39703 0.00599 0.0
C325 C 0.12758 0.35596 0.97623 0.0
H326 H 0.22804 0.43237 0.05409 0.0
H327 H 0.15848 0.42788 0.00886 0.0
S328 S 0.13097 0.24558 0.95835 0.0
N329 N 0.17979 0.28084 0.99689 0.0
N330 N 0.10388 0.27583 0.94648 0.0
C331 C 0.13457 0.31712 0.97421 0.0
C332 C 0.17565 0.31974 1.00192 0.0
C333 C 0.81926 0.17832 0.43729 0.0
C334 C 0.86502 0.19484 0.41478 0.0
C335 C 0.77993 0.14492 0.40431 0.0
C336 C 0.78459 0.12655 0.34728 0.0
H337 H 0.81358 0.19213 0.48014 0.0
H338 H 0.74547 0.13389 0.42358 0.0
S339 S 0.8967 0.15701 0.2685 0.0
N340 N 0.91297 0.18932 0.33241 0.0
N341 N 0.83864 0.12619 0.27046 0.0
C342 C 0.83014 0.14143 0.32506 0.0
C343 C 0.87045 0.17563 0.3588 0.0
C344 C 0.68526 0.81966 0.66225 0.0
C345 C 0.66624 0.80311 0.60246 0.0
C346 C 0.67549 0.85073 0.69487 0.0
C347 C 0.64632 0.86629 0.66886 0.0
H348 H 0.7061 0.80691 0.68534 0.0
H349 H 0.68952 0.86125 0.74156 0.0
S350 S 0.59481 0.83986 0.50926 0.0
N351 N 0.62189 0.80921 0.51562 0.0
N352 N 0.60345 0.86742 0.57643 0.0
C353 C 0.62958 0.85229 0.60752 0.0
C354 C 0.63961 0.82081 0.57442 0.0
C355 C 0.77492 0.63307 0.05112 0.0
C356 C 0.79756 0.68036 0.06921 0.0
C357 C 0.79105 0.61877 0.99959 0.0
C358 C 0.83034 0.65138 0.96465 0.0
H359 H 0.74762 0.60654 0.08019 0.0
H360 H 0.77492 0.58155 0.99035 0.0
S361 S 0.8939 0.7807 0.98536 0.0
N362 N 0.85546 0.76047 0.04288 0.0
N363 N 0.88517 0.73418 0.94541 0.0
C364 C 0.84926 0.69936 0.97813 0.0
C365 C 0.83308 0.71369 0.03074 0.0
C366 C 0.32585 0.96204 0.44091 0.0
C367 C 0.34787 0.01014 0.42613 0.0
C368 C 0.31739 0.94654 0.50296 0.0
C369 C 0.32961 0.97843 0.55262 0.0
H370 H 0.31622 0.93615 0.40429 0.0
H371 H 0.30118 0.90927 0.51203 0.0
S372 S 0.38599 0.10807 0.53858 0.0
N373 N 0.38061 0.08946 0.46595 0.0
N374 N 0.36381 0.06055 0.58249 0.0
C375 C 0.35052 0.02662 0.53832 0.0
C376 C 0.35994 0.04241 0.47515 0.0
C377 C 0.38363 0.33524 0.84612 0.0
C378 C 0.36265 0.3499 0.89102 0.0
C379 C 0.37915 0.34144 0.7824 0.0
C380 C 0.35429 0.36338 0.761 0.0
H381 H 0.404 0.31911 0.86024 0.0
H382 H 0.39667 0.33026 0.74978 0.0
S383 S 0.29084 0.40627 0.85905 0.0
N384 N 0.31417 0.38561 0.90934 0.0
N385 N 0.30677 0.39804 0.7894 0.0
C386 C 0.33242 0.3775 0.80516 0.0
C387 C 0.33626 0.37047 0.87015 0.0
C388 C 0.03763 0.372 0.18583 0.0
C389 C 0.00706 0.34918 0.23591 0.0
C390 C 0.02089 0.36533 0.12443 0.0
C391 C 0.97275 0.33635 0.1107 0.0
H392 H 0.07485 0.39539 0.19404 0.0
H393 H 0.04582 0.38395 0.08752 0.0
S394 S 0.8781 0.26695 0.22429 0.0
N395 N 0.92625 0.29477 0.26721 0.0
N396 N 0.8949 0.28322 0.15163 0.0
C397 C 0.94177 0.31284 0.16003 0.0
C398 C 0.95891 0.31891 0.22262 0.0
C399 C 0.60235 0.00254 0.47659 0.0
C400 C 0.62692 0.98177 0.45117 0.0
C401 C 0.61031 0.01884 0.53829 0.0
C402 C 0.64255 0.01412 0.57661 0.0
H403 H 0.57713 0.00656 0.44838 0.0
H404 H 0.58993 0.03371 0.55672 0.0
S405 S 0.71691 0.96368 0.53045 0.0
N406 N 0.68614 0.95926 0.46711 0.0
N407 N 0.69992 0.98804 0.58404 0.0
C408 C 0.66761 0.99371 0.55123 0.0
C409 C 0.66015 0.97806 0.48813 0.0
C410 C 0.70156 0.64782 0.90282 0.0
C411 C 0.68462 0.6776 0.92143 0.0
C412 C 0.70605 0.64025 0.8394 0.0
C413 C 0.69446 0.66275 0.79237 0.0
H414 H 0.70845 0.62788 0.93725 0.0
H415 H 0.71711 0.61532 0.82724 0.0
S416 S 0.65538 0.74976 0.81797 0.0
N417 N 0.66101 0.73343 0.88874 0.0
N418 N 0.67019 0.72025 0.76992 0.0
C419 C 0.68097 0.69544 0.81089 0.0
C420 C 0.67584 0.70257 0.87531 0.0
C421 C 0.94267 0.61488 0.17105 0.0
C422 C 0.98105 0.63424 0.21267 0.0
C423 C 0.94944 0.62037 0.10641 0.0
C424 C 0.99491 0.64459 0.08064 0.0
H425 H 0.907 0.59501 0.18845 0.0
H426 H 0.91874 0.60409 0.07634 0.0
S427 S 0.10729 0.70447 0.16894 0.0
N428 N 0.06635 0.681 0.22319 0.0
N429 N 0.07887 0.69015 0.10163 0.0
C430 C 0.03361 0.66501 0.12155 0.0
C431 C 0.02673 0.6602 0.18752 0.0
loop_
_geom_bond_atom_site_label_1
_geom_bond_atom_site_label_2
_geom_bond_distance
_geom_bond_site_symmetry_2
_ccdc_geom_bond_type
Mg0 O1 2.028 . S
Mg0 O7 1.986 1_565 S
Mg0 O9 2.114 . S
Mg0 O10 2.251 1_565 S
Mg0 O13 2.010 . S
O1 Mg0 2.028 . S
O1 C4 1.250 1_565 S
O2 Mg3 2.028 . S
O2 C4 1.248 . S
Mg3 O2 2.028 . S
Mg3 O8 2.032 . S
Mg3 O10 2.079 . S
C4 O1 1.250 1_545 S
C4 O2 1.248 . S
C5 O6 1.264 . S
C5 O13 1.249 . S
O6 C5 1.264 . S
O7 Mg0 1.986 1_545 S
O7 C11 1.246 . S
O8 Mg3 2.032 . S
O8 C11 1.259 . S
O9 Mg0 2.114 . S
O9 C12 1.252 . S
O10 Mg0 2.251 1_545 S
O10 Mg3 2.079 . S
O10 C12 1.273 1_545 S
C11 O7 1.246 . S
C11 O8 1.259 . S
C12 O9 1.252 . S
C12 O10 1.273 1_565 S
O13 Mg0 2.010 . S
O13 C5 1.249 . S
Mg14 O15 2.028 . S
Mg14 O21 1.986 . S
Mg14 O23 2.114 . S
Mg14 O24 2.251 . S
Mg14 O27 2.010 . S
O15 Mg14 2.028 . S
O15 C18 1.250 . S
O16 Mg17 2.028 . S
O16 C18 1.248 . S
Mg17 O16 2.028 . S
Mg17 O22 2.032 . S
Mg17 O24 2.079 . S
C18 O15 1.250 . S
C18 O16 1.248 . S
C19 O20 1.264 . S
C19 O27 1.249 . S
O20 C19 1.264 . S
O21 Mg14 1.986 . S
O21 C25 1.246 . S
O22 Mg17 2.032 . S
O22 C25 1.259 . S
O23 Mg14 2.114 . S
O23 C26 1.252 . S
O24 Mg14 2.251 . S
O24 Mg17 2.079 . S
O24 C26 1.273 . S
C25 O21 1.246 . S
C25 O22 1.259 . S
C26 O23 1.252 . S
C26 O24 1.273 . S
O27 Mg14 2.010 . S
O27 C19 1.249 . S
Mg28 O29 2.028 1_556 S
Mg28 O35 1.986 1_455 S
Mg28 O37 2.114 . S
Mg28 O38 2.251 1_455 S
Mg28 O41 2.010 . S
O29 Mg28 2.028 1_554 S
O29 C32 1.250 1_455 S
O30 Mg31 2.028 1_554 S
O30 C32 1.248 . S
Mg31 O30 2.028 1_556 S
Mg31 O36 2.032 . S
Mg31 O38 2.079 . S
C32 O29 1.250 1_655 S
C32 O30 1.248 . S
C33 O34 1.264 . S
C33 O41 1.249 . S
O34 C33 1.264 . S
O35 Mg28 1.986 1_655 S
O35 C39 1.246 . S
O36 Mg31 2.032 . S
O36 C39 1.259 . S
O37 Mg28 2.114 . S
O37 C40 1.252 . S
O38 Mg28 2.251 1_655 S
O38 Mg31 2.079 . S
O38 C40 1.273 1_655 S
C39 O35 1.246 . S
C39 O36 1.259 . S
C40 O37 1.252 . S
C40 O38 1.273 1_455 S
O41 Mg28 2.010 . S
O41 C33 1.249 . S
Mg42 O43 2.028 . S
Mg42 O49 1.986 1_545 S
Mg42 O51 2.114 . S
Mg42 O52 2.251 1_545 S
Mg42 O55 2.010 . S
O43 Mg42 2.028 . S
O43 C46 1.250 1_545 S
O44 Mg45 2.028 . S
O44 C46 1.248 . S
Mg45 O44 2.028 . S
Mg45 O50 2.032 . S
Mg45 O52 2.079 . S
C46 O43 1.250 1_565 S
C46 O44 1.248 . S
C47 O48 1.264 . S
C47 O55 1.249 . S
O48 C47 1.264 . S
O49 Mg42 1.986 1_565 S
O49 C53 1.246 . S
O50 Mg45 2.032 . S
O50 C53 1.259 . S
O51 Mg42 2.114 . S
O51 C54 1.252 . S
O52 Mg42 2.251 1_565 S
O52 Mg45 2.079 . S
O52 C54 1.273 1_565 S
C53 O49 1.246 . S
C53 O50 1.259 . S
C54 O51 1.252 . S
C54 O52 1.273 1_545 S
O55 Mg42 2.010 . S
O55 C47 1.249 . S
Mg56 O57 2.028 . S
Mg56 O63 1.986 . S
Mg56 O65 2.114 . S
Mg56 O66 2.251 . S
Mg56 O69 2.010 . S
O57 Mg56 2.028 . S
O57 C60 1.250 . S
O58 Mg59 2.028 . S
O58 C60 1.248 . S
Mg59 O58 2.028 . S
Mg59 O64 2.032 . S
Mg59 O66 2.079 . S
C60 O57 1.250 . S
C60 O58 1.248 . S
C61 O62 1.264 . S
C61 O69 1.249 . S
O62 C61 1.264 . S
O63 Mg56 1.986 . S
O63 C67 1.246 . S
O64 Mg59 2.032 . S
O64 C67 1.259 . S
O65 Mg56 2.114 . S
O65 C68 1.252 . S
O66 Mg56 2.251 . S
O66 Mg59 2.079 . S
O66 C68 1.273 . S
C67 O63 1.246 . S
C67 O64 1.259 . S
C68 O65 1.252 . S
C68 O66 1.273 . S
O69 Mg56 2.010 . S
O69 C61 1.249 . S
Mg70 O71 2.028 1_556 S
Mg70 O77 1.986 1_655 S
Mg70 O79 2.114 . S
Mg70 O80 2.251 1_655 S
Mg70 O83 2.010 . S
O71 Mg70 2.028 1_554 S
O71 C74 1.250 1_655 S
O72 Mg73 2.028 1_554 S
O72 C74 1.248 . S
Mg73 O72 2.028 1_556 S
Mg73 O78 2.032 . S
Mg73 O80 2.079 . S
C74 O71 1.250 1_455 S
C74 O72 1.248 . S
C75 O76 1.264 . S
C75 O83 1.249 . S
O76 C75 1.264 . S
O77 Mg70 1.986 1_455 S
O77 C81 1.246 . S
O78 Mg73 2.032 . S
O78 C81 1.259 . S
O79 Mg70 2.114 . S
O79 C82 1.252 . S
O80 Mg70 2.251 1_455 S
O80 Mg73 2.079 . S
O80 C82 1.273 1_455 S
C81 O77 1.246 . S
C81 O78 1.259 . S
C82 O79 1.252 . S
C82 O80 1.273 1_655 S
O83 Mg70 2.010 . S
O83 C75 1.249 . S
Mg84 O85 2.028 . S
Mg84 O91 1.986 1_455 S
Mg84 O93 2.114 . S
Mg84 O94 2.251 1_455 S
Mg84 O97 2.010 . S
O85 Mg84 2.028 . S
O85 C88 1.250 1_455 S
O86 Mg87 2.028 . S
O86 C88 1.248 . S
Mg87 O86 2.028 . S
Mg87 O92 2.032 . S
Mg87 O94 2.079 . S
C88 O85 1.250 1_655 S
C88 O86 1.248 . S
C89 O90 1.264 . S
C89 O97 1.249 . S
O90 C89 1.264 . S
O91 Mg84 1.986 1_655 S
O91 C95 1.246 . S
O92 Mg87 2.032 . S
O92 C95 1.259 . S
O93 Mg84 2.114 . S
O93 C96 1.252 . S
O94 Mg84 2.251 1_655 S
O94 Mg87 2.079 . S
O94 C96 1.273 1_655 S
C95 O91 1.246 . S
C95 O92 1.259 . S
C96 O93 1.252 . S
C96 O94 1.273 1_455 S
O97 Mg84 2.010 . S
O97 C89 1.249 . S
Mg98 O99 2.028 . S
Mg98 O105 1.986 1_545 S
Mg98 O107 2.114 . S
Mg98 O108 2.251 1_545 S
Mg98 O111 2.010 . S
O99 Mg98 2.028 . S
O99 C102 1.250 1_545 S
O100 Mg101 2.028 . S
O100 C102 1.248 . S
Mg101 O100 2.028 . S
Mg101 O106 2.032 . S
Mg101 O108 2.079 . S
C102 O99 1.250 1_565 S
C102 O100 1.248 . S
C103 O104 1.264 . S
C103 O111 1.249 . S
O104 C103 1.264 . S
O105 Mg98 1.986 1_565 S
O105 C109 1.246 . S
O106 Mg101 2.032 . S
O106 C109 1.259 . S
O107 Mg98 2.114 . S
O107 C110 1.252 . S
O108 Mg98 2.251 1_565 S
O108 Mg101 2.079 . S
O108 C110 1.273 1_565 S
C109 O105 1.246 . S
C109 O106 1.259 . S
C110 O107 1.252 . S
C110 O108 1.273 1_545 S
O111 Mg98 2.010 . S
O111 C103 1.249 . S
Mg112 O113 2.028 1_554 S
Mg112 O119 1.986 . S
Mg112 O121 2.114 . S
Mg112 O122 2.251 . S
Mg112 O125 2.010 . S
O113 Mg112 2.028 1_556 S
O113 C116 1.250 . S
O114 Mg115 2.028 1_556 S
O114 C116 1.248 . S
Mg115 O114 2.028 1_554 S
Mg115 O120 2.032 . S
Mg115 O122 2.079 . S
C116 O113 1.250 . S
C116 O114 1.248 . S
C117 O118 1.264 . S
C117 O125 1.249 . S
O118 C117 1.264 . S
O119 Mg112 1.986 . S
O119 C123 1.246 . S
O120 Mg115 2.032 . S
O120 C123 1.259 . S
O121 Mg112 2.114 . S
O121 C124 1.252 . S
O122 Mg112 2.251 . S
O122 Mg115 2.079 . S
O122 C124 1.273 . S
C123 O119 1.246 . S
C123 O120 1.259 . S
C124 O121 1.252 . S
C124 O122 1.273 . S
O125 Mg112 2.010 . S
O125 C117 1.249 . S
Mg126 O127 2.028 . S
Mg126 O133 1.986 1_655 S
Mg126 O135 2.114 . S
Mg126 O136 2.251 1_655 S
Mg126 O139 2.010 . S
O127 Mg126 2.028 . S
O127 C130 1.250 1_655 S
O128 Mg129 2.028 . S
O128 C130 1.248 . S
Mg129 O128 2.028 . S
Mg129 O134 2.032 . S
Mg129 O136 2.079 . S
C130 O127 1.250 1_455 S
C130 O128 1.248 . S
C131 O132 1.264 . S
C131 O139 1.249 . S
O132 C131 1.264 . S
O133 Mg126 1.986 1_455 S
O133 C137 1.246 . S
O134 Mg129 2.032 . S
O134 C137 1.259 . S
O135 Mg126 2.114 . S
O135 C138 1.252 . S
O136 Mg126 2.251 1_455 S
O136 Mg129 2.079 . S
O136 C138 1.273 1_455 S
C137 O133 1.246 . S
C137 O134 1.259 . S
C138 O135 1.252 . S
C138 O136 1.273 1_655 S
O139 Mg126 2.010 . S
O139 C131 1.249 . S
Mg140 O141 2.028 . S
Mg140 O147 1.986 1_565 S
Mg140 O149 2.114 . S
Mg140 O150 2.251 1_565 S
Mg140 O153 2.010 . S
O141 Mg140 2.028 . S
O141 C144 1.250 1_565 S
O142 Mg143 2.028 . S
O142 C144 1.248 . S
Mg143 O142 2.028 . S
Mg143 O148 2.032 . S
Mg143 O150 2.079 . S
C144 O141 1.250 1_545 S
C144 O142 1.248 . S
C145 O146 1.264 . S
C145 O153 1.249 . S
O146 C145 1.264 . S
O147 Mg140 1.986 1_545 S
O147 C151 1.246 . S
O148 Mg143 2.032 . S
O148 C151 1.259 . S
O149 Mg140 2.114 . S
O149 C152 1.252 . S
O150 Mg140 2.251 1_545 S
O150 Mg143 2.079 . S
O150 C152 1.273 1_545 S
C151 O147 1.246 . S
C151 O148 1.259 . S
C152 O149 1.252 . S
C152 O150 1.273 1_565 S
O153 Mg140 2.010 . S
O153 C145 1.249 . S
Mg154 O155 2.028 1_554 S
Mg154 O161 1.986 . S
Mg154 O163 2.114 . S
Mg154 O164 2.251 . S
Mg154 O167 2.010 . S
O155 Mg154 2.028 1_556 S
O155 C158 1.250 . S
O156 Mg157 2.028 1_556 S
O156 C158 1.248 . S
Mg157 O156 2.028 1_554 S
Mg157 O162 2.032 . S
Mg157 O164 2.079 . S
C158 O155 1.250 . S
C158 O156 1.248 . S
C159 O160 1.264 . S
C159 O167 1.249 . S
O160 C159 1.264 . S
O161 Mg154 1.986 . S
O161 C165 1.246 . S
O162 Mg157 2.032 . S
O162 C165 1.259 . S
O163 Mg154 2.114 . S
O163 C166 1.252 . S
O164 Mg154 2.251 . S
O164 Mg157 2.079 . S
O164 C166 1.273 . S
C165 O161 1.246 . S
C165 O162 1.259 . S
C166 O163 1.252 . S
C166 O164 1.273 . S
O167 Mg154 2.010 . S
O167 C159 1.249 . S
C168 C169 1.369 . S
C168 C170 1.419 . S
C168 H172 0.930 . S
C169 C168 1.369 . S
C169 C178 1.429 . S
C170 C168 1.419 . S
C170 C171 1.363 . S
C170 H173 0.929 . S
C171 C170 1.363 . S
C171 C177 1.428 . S
H172 C168 0.930 . S
H173 C170 0.929 . S
S174 N175 1.613 . S
S174 N176 1.610 . S
N175 S174 1.613 . S
N175 C178 1.350 . S
N176 S174 1.610 . S
N176 C177 1.351 . S
C177 C171 1.428 . S
C177 N176 1.351 . S
C177 C178 1.434 . S
C178 C169 1.429 . S
C178 N175 1.350 . S
C178 C177 1.434 . S
C179 C180 1.369 . S
C179 C181 1.419 . S
C179 H183 0.930 . S
C180 C179 1.369 . S
C180 C189 1.429 . S
C181 C179 1.419 . S
C181 C182 1.363 . S
C181 H184 0.929 . S
C182 C181 1.363 . S
C182 C188 1.428 . S
H183 C179 0.930 . S
H184 C181 0.929 . S
S185 N186 1.613 . S
S185 N187 1.610 . S
N186 S185 1.613 . S
N186 C189 1.350 . S
N187 S185 1.610 . S
N187 C188 1.351 . S
C188 C182 1.428 . S
C188 N187 1.351 . S
C188 C189 1.434 . S
C189 C180 1.429 . S
C189 N186 1.350 . S
C189 C188 1.434 . S
C190 C191 1.369 . S
C190 C192 1.419 . S
C190 H194 0.930 . S
C191 C190 1.369 . S
C191 C200 1.429 . S
C192 C190 1.419 . S
C192 C193 1.363 . S
C192 H195 0.929 . S
C193 C192 1.363 . S
C193 C199 1.428 . S
H194 C190 0.930 . S
H195 C192 0.929 . S
S196 N197 1.613 . S
S196 N198 1.610 . S
N197 S196 1.613 . S
N197 C200 1.350 . S
N198 S196 1.610 . S
N198 C199 1.351 . S
C199 C193 1.428 . S
C199 N198 1.351 . S
C199 C200 1.434 . S
C200 C191 1.429 . S
C200 N197 1.350 . S
C200 C199 1.434 . S
C201 C202 1.369 . S
C201 C203 1.419 . S
C201 H205 0.930 . S
C202 C201 1.369 . S
C202 C211 1.429 . S
C203 C201 1.419 . S
C203 C204 1.363 . S
C203 H206 0.929 . S
C204 C203 1.363 . S
C204 C210 1.428 . S
H205 C201 0.930 . S
H206 C203 0.929 . S
S207 N208 1.613 . S
S207 N209 1.610 . S
N208 S207 1.613 . S
N208 C211 1.350 . S
N209 S207 1.610 . S
N209 C210 1.351 . S
C210 C204 1.428 . S
C210 N209 1.351 . S
C210 C211 1.434 . S
C211 C202 1.429 . S
C211 N208 1.350 . S
C211 C210 1.434 . S
C212 C213 1.369 . S
C212 C214 1.419 . S
C212 H216 0.930 . S
C213 C212 1.369 . S
C213 C222 1.429 . S
C214 C212 1.419 . S
C214 C215 1.363 . S
C214 H217 0.929 . S
C215 C214 1.363 . S
C215 C221 1.428 . S
H216 C212 0.930 . S
H217 C214 0.929 . S
S218 N219 1.613 . S
S218 N220 1.610 . S
N219 S218 1.613 . S
N219 C222 1.350 . S
N220 S218 1.610 . S
N220 C221 1.351 . S
C221 C215 1.428 . S
C221 N220 1.351 . S
C221 C222 1.434 . S
C222 C213 1.429 . S
C222 N219 1.350 . S
C222 C221 1.434 . S
C223 C224 1.369 . S
C223 C225 1.419 . S
C223 H227 0.930 . S
C224 C223 1.369 . S
C224 C233 1.429 . S
C225 C223 1.419 . S
C225 C226 1.363 . S
C225 H228 0.929 . S
C226 C225 1.363 . S
C226 C232 1.428 . S
H227 C223 0.930 . S
H228 C225 0.929 . S
S229 N230 1.613 . S
S229 N231 1.610 . S
N230 S229 1.613 . S
N230 C233 1.350 . S
N231 S229 1.610 . S
N231 C232 1.351 . S
C232 C226 1.428 . S
C232 N231 1.351 . S
C232 C233 1.434 . S
C233 C224 1.429 . S
C233 N230 1.350 . S
C233 C232 1.434 . S
C234 C235 1.369 1_545 S
C234 C236 1.419 . S
C234 H238 0.930 . S
C235 C234 1.369 1_565 S
C235 C244 1.429 . S
C236 C234 1.419 . S
C236 C237 1.388 . S
C236 H239 0.929 . S
C237 C236 1.388 . S
C237 C243 1.418 1_545 S
H238 C234 0.930 . S
H239 C236 0.929 . S
S240 N241 1.613 . S
S240 N242 1.610 . S
N241 S240 1.613 . S
N241 C244 1.350 . S
N242 S240 1.610 . S
N242 C243 1.351 . S
C243 C237 1.418 1_565 S
C243 N242 1.351 . S
C243 C244 1.434 . S
C244 C235 1.429 . S
C244 N241 1.350 . S
C244 C243 1.434 . S
C245 C246 1.369 . S
C245 C247 1.419 . S
C245 H249 0.930 . S
C246 C245 1.369 . S
C246 C255 1.429 . S
C247 C245 1.419 . S
C247 C248 1.363 . S
C247 H250 0.929 . S
C248 C247 1.363 . S
C248 C254 1.428 . S
H249 C245 0.930 . S
H250 C247 0.929 . S
S251 N252 1.613 . S
S251 N253 1.610 . S
N252 S251 1.613 . S
N252 C255 1.350 . S
N253 S251 1.610 . S
N253 C254 1.351 . S
C254 C248 1.428 . S
C254 N253 1.351 . S
C254 C255 1.434 . S
C255 C246 1.429 . S
C255 N252 1.350 . S
C255 C254 1.434 . S
C256 C257 1.375 . S
C256 C258 1.419 . S
C256 H260 0.930 . S
C257 C256 1.375 . S
C257 C266 1.411 1_655 S
C258 C256 1.419 . S
C258 C259 1.363 1_655 S
C258 H261 0.929 . S
C259 C258 1.363 1_455 S
C259 C265 1.428 . S
H260 C256 0.930 . S
H261 C258 0.929 . S
S262 N263 1.613 . S
S262 N264 1.610 . S
N263 S262 1.613 . S
N263 C266 1.350 . S
N264 S262 1.610 . S
N264 C265 1.351 . S
C265 C259 1.428 . S
C265 N264 1.351 . S
C265 C266 1.434 . S
C266 C257 1.411 1_455 S
C266 N263 1.350 . S
C266 C265 1.434 . S
C267 C268 1.378 . S
C267 C269 1.419 . S
C267 H271 0.930 . S
C268 C267 1.378 . S
C268 C277 1.427 1_455 S
C269 C267 1.419 . S
C269 C270 1.363 1_455 S
C269 H272 0.929 . S
C270 C269 1.363 1_655 S
C270 C276 1.428 . S
H271 C267 0.930 . S
H272 C269 0.929 . S
S273 N274 1.613 . S
S273 N275 1.610 . S
N274 S273 1.613 . S
N274 C277 1.350 . S
N275 S273 1.610 . S
N275 C276 1.351 . S
C276 C270 1.428 . S
C276 N275 1.351 . S
C276 C277 1.434 . S
C277 C268 1.427 1_655 S
C277 N274 1.350 . S
C277 C276 1.434 . S
C278 C279 1.372 . S
C278 C280 1.419 . S
C278 H282 0.930 . S
C279 C278 1.372 . S
C279 C288 1.420 1_565 S
C280 C278 1.419 . S
C280 C281 1.363 1_565 S
C280 H283 0.929 . S
C281 C280 1.363 1_545 S
C281 C287 1.428 . S
H282 C278 0.930 . S
H283 C280 0.929 . S
S284 N285 1.613 . S
S284 N286 1.610 . S
N285 S284 1.613 . S
N285 C288 1.350 . S
N286 S284 1.610 . S
N286 C287 1.351 . S
C287 C281 1.428 . S
C287 N286 1.351 . S
C287 C288 1.434 . S
C288 C279 1.420 1_545 S
C288 N285 1.350 . S
C288 C287 1.434 . S
C289 C290 1.369 . S
C289 C291 1.419 . S
C289 H293 0.930 . S
C290 C289 1.369 . S
C290 C299 1.429 . S
C291 C289 1.419 . S
C291 C292 1.363 . S
C291 H294 0.929 . S
C292 C291 1.363 . S
C292 C298 1.428 . S
H293 C289 0.930 . S
H294 C291 0.929 . S
S295 N296 1.613 . S
S295 N297 1.610 . S
N296 S295 1.613 . S
N296 C299 1.350 1_556 S
N297 S295 1.610 . S
N297 C298 1.351 1_556 S
C298 C292 1.428 . S
C298 N297 1.351 1_554 S
C298 C299 1.434 . S
C299 C290 1.429 . S
C299 N296 1.350 1_554 S
C299 C298 1.434 . S
C300 C301 1.369 . S
C300 C302 1.419 . S
C300 H304 0.930 . S
C301 C300 1.369 . S
C301 C310 1.429 . S
C302 C300 1.419 . S
C302 C303 1.363 . S
C302 H305 0.929 . S
C303 C302 1.363 . S
C303 C309 1.428 . S
H304 C300 0.930 . S
H305 C302 0.929 . S
S306 N307 1.613 . S
S306 N308 1.610 . S
N307 S306 1.613 . S
N307 C310 1.350 . S
N308 S306 1.610 . S
N308 C309 1.351 . S
C309 C303 1.428 . S
C309 N308 1.351 . S
C309 C310 1.434 . S
C310 C301 1.429 . S
C310 N307 1.350 . S
C310 C309 1.434 . S
C311 C312 1.369 . S
C311 C313 1.419 . S
C311 H315 0.930 . S
C312 C311 1.369 . S
C312 C321 1.429 . S
C313 C311 1.419 . S
C313 C314 1.363 . S
C313 H316 0.929 . S
C314 C313 1.363 . S
C314 C320 1.428 . S
H315 C311 0.930 . S
H316 C313 0.929 . S
S317 N318 1.613 . S
S317 N319 1.610 . S
N318 S317 1.613 . S
N318 C321 1.350 . S
N319 S317 1.610 . S
N319 C320 1.351 . S
C320 C314 1.428 . S
C320 N319 1.351 . S
C320 C321 1.434 . S
C321 C312 1.429 . S
C321 N318 1.350 . S
C321 C320 1.434 . S
C322 C323 1.369 . S
C322 C324 1.419 . S
C322 H326 0.930 . S
C323 C322 1.369 . S
C323 C332 1.429 1_554 S
C324 C322 1.419 . S
C324 C325 1.363 1_554 S
C324 H327 0.929 . S
C325 C324 1.363 1_556 S
C325 C331 1.428 . S
H326 C322 0.930 . S
H327 C324 0.929 . S
S328 N329 1.613 . S
S328 N330 1.610 . S
N329 S328 1.613 . S
N329 C332 1.350 . S
N330 S328 1.610 . S
N330 C331 1.351 . S
C331 C325 1.428 . S
C331 N330 1.351 . S
C331 C332 1.434 . S
C332 C323 1.429 1_556 S
C332 N329 1.350 . S
C332 C331 1.434 . S
C333 C334 1.369 . S
C333 C335 1.419 . S
C333 H337 0.930 . S
C334 C333 1.369 . S
C334 C343 1.429 . S
C335 C333 1.419 . S
C335 C336 1.363 . S
C335 H338 0.929 . S
C336 C335 1.363 . S
C336 C342 1.428 . S
H337 C333 0.930 . S
H338 C335 0.929 . S
S339 N340 1.613 . S
S339 N341 1.610 . S
N340 S339 1.613 . S
N340 C343 1.350 . S
N341 S339 1.610 . S
N341 C342 1.351 . S
C342 C336 1.428 . S
C342 N341 1.351 . S
C342 C343 1.434 . S
C343 C334 1.429 . S
C343 N340 1.350 . S
C343 C342 1.434 . S
C344 C345 1.369 . S
C344 C346 1.419 . S
C344 H348 0.930 . S
C345 C344 1.369 . S
C345 C354 1.429 . S
C346 C344 1.419 . S
C346 C347 1.363 . S
C346 H349 0.929 . S
C347 C346 1.363 . S
C347 C353 1.428 . S
H348 C344 0.930 . S
H349 C346 0.929 . S
S350 N351 1.613 . S
S350 N352 1.610 . S
N351 S350 1.613 . S
N351 C354 1.350 . S
N352 S350 1.610 . S
N352 C353 1.351 . S
C353 C347 1.428 . S
C353 N352 1.351 . S
C353 C354 1.434 . S
C354 C345 1.429 . S
C354 N351 1.350 . S
C354 C353 1.434 . S
C355 C356 1.369 . S
C355 C357 1.419 1_554 S
C355 H359 0.930 . S
C356 C355 1.369 . S
C356 C365 1.429 . S
C357 C355 1.419 1_556 S
C357 C358 1.363 . S
C357 H360 0.929 . S
C358 C357 1.363 . S
C358 C364 1.428 . S
H359 C355 0.930 . S
H360 C357 0.929 . S
S361 N362 1.613 1_556 S
S361 N363 1.610 . S
N362 S361 1.613 1_554 S
N362 C365 1.350 . S
N363 S361 1.610 . S
N363 C364 1.351 . S
C364 C358 1.428 . S
C364 N363 1.351 . S
C364 C365 1.434 1_556 S
C365 C356 1.429 . S
C365 N362 1.350 . S
C365 C364 1.434 1_554 S
C366 C367 1.369 1_565 S
C366 C368 1.419 . S
C366 H370 0.930 . S
C367 C366 1.369 1_545 S
C367 C376 1.429 . S
C368 C366 1.419 . S
C368 C369 1.363 . S
C368 H371 0.929 . S
C369 C368 1.363 . S
C369 C375 1.428 1_565 S
H370 C366 0.930 . S
H371 C368 0.929 . S
S372 N373 1.613 . S
S372 N374 1.610 . S
N373 S372 1.613 . S
N373 C376 1.350 . S
N374 S372 1.610 . S
N374 C375 1.351 . S
C375 C369 1.428 1_545 S
C375 N374 1.351 . S
C375 C376 1.434 . S
C376 C367 1.429 . S
C376 N373 1.350 . S
C376 C375 1.434 . S
C377 C378 1.369 . S
C377 C379 1.419 . S
C377 H381 0.930 . S
C378 C377 1.369 . S
C378 C387 1.429 . S
C379 C377 1.419 . S
C379 C380 1.363 . S
C379 H382 0.929 . S
C380 C379 1.363 . S
C380 C386 1.428 . S
H381 C377 0.930 . S
H382 C379 0.929 . S
S383 N384 1.613 . S
S383 N385 1.610 . S
N384 S383 1.613 . S
N384 C387 1.350 . S
N385 S383 1.610 . S
N385 C386 1.351 . S
C386 C380 1.428 . S
C386 N385 1.351 . S
C386 C387 1.434 . S
C387 C378 1.429 . S
C387 N384 1.350 . S
C387 C386 1.434 . S
C388 C389 1.369 . S
C388 C390 1.419 . S
C388 H392 0.930 . S
C389 C388 1.369 . S
C389 C398 1.429 1_455 S
C390 C388 1.419 . S
C390 C391 1.363 1_455 S
C390 H393 0.929 . S
C391 C390 1.363 1_655 S
C391 C397 1.428 . S
H392 C388 0.930 . S
H393 C390 0.929 . S
S394 N395 1.613 . S
S394 N396 1.610 . S
N395 S394 1.613 . S
N395 C398 1.350 . S
N396 S394 1.610 . S
N396 C397 1.351 . S
C397 C391 1.428 . S
C397 N396 1.351 . S
C397 C398 1.434 . S
C398 C389 1.429 1_655 S
C398 N395 1.350 . S
C398 C397 1.434 . S
C399 C400 1.369 1_545 S
C399 C401 1.419 . S
C399 H403 0.930 . S
C400 C399 1.369 1_565 S
C400 C409 1.429 . S
C401 C399 1.419 . S
C401 C402 1.363 . S
C401 H404 0.929 . S
C402 C401 1.363 . S
C402 C408 1.428 1_545 S
H403 C399 0.930 . S
H404 C401 0.929 . S
S405 N406 1.613 . S
S405 N407 1.610 . S
N406 S405 1.613 . S
N406 C409 1.350 . S
N407 S405 1.610 . S
N407 C408 1.351 . S
C408 C402 1.428 1_565 S
C408 N407 1.351 . S
C408 C409 1.434 . S
C409 C400 1.429 . S
C409 N406 1.350 . S
C409 C408 1.434 . S
C410 C411 1.369 . S
C410 C412 1.419 . S
C410 H414 0.930 . S
C411 C410 1.369 . S
C411 C420 1.429 . S
C412 C410 1.419 . S
C412 C413 1.363 . S
C412 H415 0.929 . S
C413 C412 1.363 . S
C413 C419 1.428 . S
H414 C410 0.930 . S
H415 C412 0.929 . S
S416 N417 1.613 . S
S416 N418 1.610 . S
N417 S416 1.613 . S
N417 C420 1.350 . S
N418 S416 1.610 . S
N418 C419 1.351 . S
C419 C413 1.428 . S
C419 N418 1.351 . S
C419 C420 1.434 . S
C420 C411 1.429 . S
C420 N417 1.350 . S
C420 C419 1.434 . S
C421 C422 1.369 . S
C421 C423 1.419 . S
C421 H425 0.930 . S
C422 C421 1.369 . S
C422 C431 1.429 1_655 S
C423 C421 1.419 . S
C423 C424 1.363 1_655 S
C423 H426 0.929 . S
C424 C423 1.363 1_455 S
C424 C430 1.428 . S
H425 C421 0.930 . S
H426 C423 0.929 . S
S427 N428 1.613 . S
S427 N429 1.610 . S
N428 S427 1.613 . S
N428 C431 1.350 . S
N429 S427 1.610 . S
N429 C430 1.351 . S
C430 C424 1.428 . S
C430 N429 1.351 . S
C430 C431 1.434 . S
C431 C422 1.429 1_455 S
C431 N428 1.350 . S
C431 C430 1.434 . S
C169 C11 1.700 . S
C171 C123 1.694 . S
C180 C25 1.697 . S
C182 C137 1.693 . S
C191 C151 1.679 . S
C193 C39 1.672 . S
C202 C165 1.696 . S
C204 C53 1.693 . S
C213 C95 1.699 . S
C215 C67 1.690 . S
C224 C109 1.680 . S
C226 C81 1.674 . S
C235 C12 1.468 . S
C237 C54 1.458 . S
C246 C68 1.460 . S
C248 C26 1.460 . S
C257 C82 1.461 . S
C259 C40 1.446 . S
C268 C96 1.461 . S
C270 C138 1.472 . S
C279 C152 1.453 . S
C281 C110 1.444 . S
C290 C124 1.459 . S
C292 C166 1.459 . S
C301 C89 1.500 . S
C303 C5 1.506 . S
C312 C19 1.492 . S
C314 C103 1.496 . S
C323 C117 1.494 . S
C325 C33 1.491 . S
C334 C131 1.506 . S
C336 C47 1.503 . S
C345 C61 1.490 . S
C347 C145 1.496 . S
C356 C159 1.495 . S
C358 C75 1.493 . S
C367 C4 1.103 . S
C369 C102 1.104 . S
C378 C116 1.106 . S
C380 C18 1.107 . S
C389 C130 1.103 . S
C391 C32 1.106 . S
C400 C46 1.105 . S
C402 C144 1.105 . S
C411 C158 1.102 . S
C413 C60 1.102 . S
C422 C88 1.102 . S
C424 C74 1.106 . S
