# Generated by pormake.
# Topology bcu, (8)-cn, num edge types: 1
# Building blocks:
#     Node 0, Type 0, BuildingBlock: VETTIZ_charged_sbu_0, # of connection points: 8
#     Node 1, Type 0, BuildingBlock: VETTIZ_charged_sbu_0, # of connection points: 8
#     Edge 2, Type (0, 0), BuildingBlock: UKIBUN_clean_linker_0, # of connection points: 2
#     Edge 3, Type (0, 0), BuildingBlock: UKIBUN_clean_linker_0, # of connection points: 2
#     Edge 4, Type (0, 0), BuildingBlock: UKIBUN_clean_linker_0, # of connection points: 2
#     Edge 5, Type (0, 0), BuildingBlock: UKIBUN_clean_linker_0, # of connection points: 2
#     Edge 6, Type (0, 0), BuildingBlock: UKIBUN_clean_linker_0, # of connection points: 2
#     Edge 7, Type (0, 0), BuildingBlock: UKIBUN_clean_linker_0, # of connection points: 2
#     Edge 8, Type (0, 0), BuildingBlock: UKIBUN_clean_linker_0, # of connection points: 2
#     Edge 9, Type (0, 0), BuildingBlock: UKIBUN_clean_linker_0, # of connection points: 2
# Relax obj value: 0.000
# Max RMSD: 0.009
# Mean RMSD: 0.009
data_MOF--net-bcu--node1-VETTIZ_charged_sbu_0--edge1-UKIBUN_clean_linker_0
_symmetry_space_group_name_H-M    P1
_symmetry_Int_Tables_number       1
_symmetry_cell_setting            triclinic
loop_
_symmetry_equiv_pos_as_xyz
'x, y, z'
_cell_length_a     31.401492
_cell_length_b     31.608985
_cell_length_c     31.187866
_cell_angle_alpha  89.941223
_cell_angle_beta   89.922471
_cell_angle_gamma 90.118559
loop_
_atom_site_label
_atom_site_type_symbol
_atom_site_fract_x
_atom_site_fract_y
_atom_site_fract_z
_atom_type_partial_charge
Fe0 Fe -0.00595 0.90732 -0.00215 0.0
O1 O -0.00407 0.97042 0.02082 0.0
Fe2 Fe 0.99253 0.99493 0.90964 0.0
Fe3 Fe -0.00564 -0.00424 0.08422 0.0
O4 O -0.00612 0.97011 0.97345 0.0
O5 O 0.99039 0.02045 0.97321 0.0
O6 O 0.99279 0.02068 0.02062 0.0
Fe7 Fe 0.9918 0.08355 0.99685 0.0
C8 C 0.92961 0.92039 0.07393 0.0
O9 O 0.04169 0.90179 0.04149 0.0
O10 O 0.04206 0.95264 0.09097 0.0
O11 O 0.04062 0.0878 0.95365 0.0
O12 O 0.04291 0.03683 0.90402 0.0
O13 O 0.0394 0.95049 0.90337 0.0
O14 O 0.04297 0.90201 0.95531 0.0
O15 O 0.04319 0.03794 0.08948 0.0
O16 O 0.03932 0.08978 0.04114 0.0
C17 C 0.05621 0.91831 0.92068 0.0
O18 O 0.94458 0.08855 0.95299 0.0
O19 O 0.94563 0.03886 0.90248 0.0
O20 O 0.94471 0.90266 0.04078 0.0
O21 O 0.94534 0.95363 0.0902 0.0
C22 C 0.057 0.91922 0.07453 0.0
C23 C 0.0563 0.07243 0.07351 0.0
C24 C 0.92937 0.07133 0.07377 0.0
O25 O 0.94679 0.03908 0.09017 0.0
O26 O 0.94224 0.08885 0.03953 0.0
C27 C 0.05718 0.07065 0.92088 0.0
O28 O 0.94203 0.95332 0.90444 0.0
O29 O 0.94684 0.90216 0.95375 0.0
C30 C 0.93014 0.0719 0.91918 0.0
C31 C 0.92913 0.91923 0.92174 0.0
Fe32 Fe 0.49219 0.58142 0.49761 0.0
O33 O 0.4673 0.51831 0.49873 0.0
Fe34 Fe 0.5829 0.49697 0.49542 0.0
Fe35 Fe 0.40418 0.49448 0.49802 0.0
O36 O 0.51905 0.51907 0.49652 0.0
O37 O 0.51961 0.47344 0.49477 0.0
O38 O 0.46787 0.47265 0.49684 0.0
Fe39 Fe 0.4944 0.41042 0.49586 0.0
C40 C 0.41594 0.56982 0.56193 0.0
O41 O 0.44958 0.58722 0.44776 0.0
O42 O 0.39879 0.53762 0.44968 0.0
O43 O 0.53571 0.40517 0.44574 0.0
O44 O 0.58909 0.45198 0.44862 0.0
O45 O 0.5868 0.53858 0.44502 0.0
O46 O 0.53602 0.58791 0.44977 0.0
O47 O 0.39919 0.45241 0.44878 0.0
O48 O 0.45014 0.40332 0.44849 0.0
C49 C 0.56836 0.57179 0.43191 0.0
O50 O 0.5392 0.4043 0.54327 0.0
O51 O 0.58813 0.45571 0.54583 0.0
O52 O 0.44831 0.58779 0.54585 0.0
O53 O 0.39905 0.53671 0.54686 0.0
C54 C 0.41623 0.5698 0.43304 0.0
C55 C 0.4168 0.41992 0.43325 0.0
C56 C 0.41877 0.41898 0.56149 0.0
O57 O 0.39962 0.45112 0.5468 0.0
O58 O 0.4526 0.40398 0.54548 0.0
C59 C 0.57023 0.42064 0.43183 0.0
O60 O 0.5879 0.54133 0.54275 0.0
O61 O 0.53435 0.58732 0.5474 0.0
C62 C 0.57153 0.42187 0.55992 0.0
C63 C 0.56952 0.57242 0.56041 0.0
C64 C 0.09846 0.13875 0.08567 0.0
C65 C 0.08779 0.09728 0.09839 0.0
C66 C 0.12014 0.1657 0.11364 0.0
C67 C 0.19861 0.27396 0.22467 0.0
C68 C 0.37907 0.35402 0.41472 0.0
C69 C 0.39165 0.395 0.40276 0.0
C70 C 0.34852 0.33229 0.3909 0.0
C71 C 0.22867 0.24417 0.30358 0.0
H72 H 0.08819 0.15117 0.05501 0.0
H73 H 0.12658 0.19801 0.10389 0.0
H74 H 0.18774 0.28555 0.19387 0.0
H75 H 0.39116 0.33972 0.44385 0.0
H76 H 0.33808 0.30131 0.40155 0.0
H77 H 0.24071 0.23209 0.33374 0.0
C78 C 0.10211 0.08252 0.13851 0.0
C79 C 0.1238 0.10956 0.16639 0.0
C80 C 0.20298 0.21827 0.27805 0.0
C81 C 0.37451 0.41343 0.36563 0.0
C82 C 0.34448 0.39121 0.34122 0.0
C83 C 0.22427 0.29985 0.25018 0.0
C84 C 0.13177 0.15151 0.15447 0.0
C85 C 0.15087 0.18028 0.1845 0.0
C86 C 0.16686 0.2045 0.20956 0.0
C87 C 0.18868 0.23281 0.23814 0.0
H88 H 0.0947 0.05078 0.14937 0.0
H89 H 0.13308 0.09809 0.19777 0.0
H90 H 0.19548 0.18649 0.28879 0.0
H91 H 0.38356 0.4452 0.3562 0.0
H92 H 0.33114 0.40585 0.31284 0.0
H93 H 0.23289 0.33112 0.23878 0.0
C94 C 0.33076 0.35098 0.35443 0.0
C95 C 0.29795 0.32895 0.33129 0.0
C96 C 0.27057 0.30943 0.31283 0.0
C97 C 0.24009 0.2847 0.28925 0.0
C98 C 0.86049 0.11164 0.08014 0.0
C99 C 0.89598 0.09235 0.09933 0.0
C100 C 0.82964 0.13151 0.10571 0.0
C101 C 0.71403 0.21366 0.21087 0.0
C102 C 0.62862 0.37073 0.41826 0.0
C103 C 0.59449 0.39432 0.40196 0.0
C104 C 0.64885 0.34062 0.3928 0.0
C105 C 0.73213 0.2226 0.29827 0.0
H106 H 0.85639 0.11087 0.04567 0.0
H107 H 0.80217 0.14587 0.09062 0.0
H108 H 0.70706 0.21094 0.17696 0.0
H109 H 0.63855 0.37449 0.45132 0.0
H110 H 0.67449 0.32202 0.40633 0.0
H111 H 0.73978 0.22633 0.33193 0.0
C112 C 0.90054 0.09407 0.14413 0.0
C113 C 0.87022 0.1144 0.16942 0.0
C114 C 0.75786 0.19685 0.27251 0.0
C115 C 0.58123 0.38811 0.35948 0.0
C116 C 0.60204 0.35828 0.33366 0.0
C117 C 0.68836 0.23934 0.23657 0.0
C118 C 0.8345 0.13288 0.15045 0.0
C119 C 0.80338 0.15348 0.17722 0.0
C120 C 0.77819 0.17037 0.20089 0.0
C121 C 0.74932 0.19299 0.22853 0.0
H122 H 0.92806 0.08023 0.15965 0.0
H123 H 0.8747 0.11565 0.20385 0.0
H124 H 0.78503 0.18101 0.28662 0.0
H125 H 0.55457 0.40572 0.34664 0.0
H126 H 0.59152 0.35358 0.30094 0.0
H127 H 0.66194 0.25612 0.22215 0.0
C128 C 0.63546 0.33401 0.35057 0.0
C129 C 0.65602 0.30198 0.32514 0.0
C130 C 0.67421 0.27483 0.30512 0.0
C131 C 0.6978 0.24456 0.28012 0.0
C132 C 0.88423 0.91104 0.13951 0.0
C133 C 0.89406 0.89934 0.09705 0.0
C134 C 0.85295 0.88932 0.16265 0.0
C135 C 0.73602 0.80066 0.25722 0.0
C136 C 0.5938 0.58803 0.35732 0.0
C137 C 0.59086 0.59857 0.40091 0.0
C138 C 0.61386 0.61595 0.32868 0.0
C139 C 0.69609 0.72979 0.22135 0.0
H140 H 0.9013 0.93643 0.1553 0.0
H141 H 0.84633 0.89852 0.19546 0.0
H142 H 0.7518 0.8277 0.27153 0.0
H143 H 0.57995 0.5589 0.34544 0.0
H144 H 0.61547 0.60798 0.29493 0.0
H145 H 0.68127 0.70211 0.20729 0.0
C146 C 0.87146 0.86564 0.07822 0.0
C147 C 0.83997 0.8441 0.1014 0.0
C148 C 0.72184 0.75571 0.19586 0.0
C149 C 0.6089 0.63646 0.4157 0.0
C150 C 0.6292 0.66395 0.38732 0.0
C151 C 0.71024 0.77469 0.28276 0.0
C152 C 0.83075 0.85584 0.14369 0.0
C153 C 0.79894 0.83329 0.16793 0.0
C154 C 0.77239 0.81471 0.18863 0.0
C155 C 0.7425 0.79074 0.21389 0.0
H156 H 0.87828 0.85569 0.04571 0.0
H157 H 0.82307 0.8181 0.08643 0.0
H158 H 0.72657 0.74772 0.16241 0.0
H159 H 0.60713 0.64484 0.44935 0.0
H160 H 0.64283 0.69312 0.39941 0.0
H161 H 0.70643 0.78196 0.3165 0.0
C162 C 0.63129 0.65411 0.34369 0.0
C163 C 0.65121 0.68359 0.31476 0.0
C164 C 0.66823 0.70935 0.29194 0.0
C165 C 0.69089 0.73873 0.26501 0.0
C166 C 0.08628 0.89587 0.14454 0.0
C167 C 0.08815 0.89476 0.09952 0.0
C168 C 0.10838 0.8661 0.16885 0.0
C169 C 0.18934 0.74833 0.26669 0.0
C170 C 0.39262 0.58721 0.35803 0.0
C171 C 0.39014 0.59375 0.40249 0.0
C172 C 0.36368 0.60753 0.33061 0.0
C173 C 0.24648 0.692 0.22825 0.0
H174 H 0.06562 0.91801 0.16096 0.0
H175 H 0.10505 0.86632 0.20344 0.0
H176 H 0.16779 0.7705 0.28187 0.0
H177 H 0.4162 0.56595 0.34474 0.0
H178 H 0.36558 0.60209 0.29636 0.0
H179 H 0.26892 0.67079 0.213 0.0
C180 C 0.11468 0.86502 0.07932 0.0
C181 C 0.13727 0.83556 0.10379 0.0
C182 C 0.22067 0.71772 0.20276 0.0
C183 C 0.35886 0.62081 0.41909 0.0
C184 C 0.33004 0.64084 0.39187 0.0
C185 C 0.21521 0.72257 0.29223 0.0
C186 C 0.13318 0.83535 0.14854 0.0
C187 C 0.15351 0.80313 0.17375 0.0
C188 C 0.1702 0.7765 0.19564 0.0
C189 C 0.1927 0.74656 0.2219 0.0
H190 H 0.11666 0.86353 0.04466 0.0
H191 H 0.15676 0.81215 0.08775 0.0
H192 H 0.22355 0.71606 0.16818 0.0
H193 H 0.35615 0.62569 0.45337 0.0
H194 H 0.30581 0.66119 0.40549 0.0
H195 H 0.21327 0.72515 0.32683 0.0
C196 C 0.33202 0.63404 0.34761 0.0
C197 C 0.30115 0.65419 0.32023 0.0
C198 C 0.27453 0.67185 0.29886 0.0
C199 C 0.24449 0.69496 0.27302 0.0
C200 C 0.11376 0.86372 0.91544 0.0
C201 C 0.08746 0.89386 0.89547 0.0
C202 C 0.13657 0.83457 0.89076 0.0
C203 C 0.22003 0.71744 0.791 0.0
C204 C 0.35942 0.62162 0.57514 0.0
C205 C 0.38995 0.59399 0.59208 0.0
C206 C 0.33041 0.64172 0.60207 0.0
C207 C 0.21529 0.72335 0.70155 0.0
H208 H 0.11542 0.86167 0.95009 0.0
H209 H 0.15579 0.81084 0.90666 0.0
H210 H 0.22263 0.71535 0.82558 0.0
H211 H 0.35734 0.62676 0.54084 0.0
H212 H 0.30662 0.66245 0.58827 0.0
H213 H 0.21366 0.72633 0.66697 0.0
C214 C 0.08621 0.89565 0.85042 0.0
C215 C 0.10859 0.86623 0.8259 0.0
C216 C 0.18953 0.7491 0.72719 0.0
C217 C 0.39172 0.587 0.63645 0.0
C218 C 0.36268 0.60746 0.66358 0.0
C219 C 0.24574 0.69172 0.7654 0.0
C220 C 0.13303 0.83507 0.84599 0.0
C221 C 0.15341 0.80306 0.82052 0.0
C222 C 0.17014 0.77664 0.79841 0.0
C223 C 0.19255 0.74679 0.77199 0.0
H224 H 0.06592 0.91813 0.83404 0.0
H225 H 0.10573 0.86702 0.79128 0.0
H226 H 0.16835 0.77167 0.71211 0.0
H227 H 0.41482 0.56531 0.64988 0.0
H228 H 0.36398 0.6017 0.69781 0.0
H229 H 0.26784 0.67009 0.78054 0.0
C230 C 0.33165 0.63445 0.64628 0.0
C231 C 0.30065 0.65459 0.67341 0.0
C232 C 0.27403 0.67217 0.69477 0.0
C233 C 0.24408 0.69522 0.72067 0.0
C234 C 0.39555 0.34941 0.58969 0.0
C235 C 0.3975 0.39354 0.59482 0.0
C236 C 0.37477 0.32424 0.6199 0.0
C237 C 0.29225 0.2215 0.73167 0.0
C238 C 0.10137 0.13614 0.91073 0.0
C239 C 0.09265 0.0938 0.8994 0.0
C240 C 0.13265 0.15938 0.88918 0.0
C241 C 0.2491 0.25519 0.8024 0.0
H242 H 0.40956 0.3344 0.56183 0.0
H243 H 0.37337 0.29031 0.61508 0.0
H244 H 0.30834 0.20825 0.70402 0.0
H245 H 0.08346 0.15177 0.93582 0.0
H246 H 0.13832 0.19201 0.89823 0.0
H247 H 0.23209 0.26871 0.82934 0.0
C248 C 0.3779 0.41223 0.63059 0.0
C249 C 0.35761 0.38678 0.66134 0.0
C250 C 0.27474 0.28134 0.77694 0.0
C251 C 0.1164 0.07532 0.86598 0.0
C252 C 0.148 0.09866 0.8446 0.0
C253 C 0.26662 0.19533 0.75715 0.0
C254 C 0.35612 0.34272 0.65602 0.0
C255 C 0.33535 0.31612 0.68718 0.0
C256 C 0.31832 0.2926 0.7124 0.0
C257 C 0.29572 0.26474 0.74106 0.0
H258 H 0.37879 0.44622 0.63499 0.0
H259 H 0.34308 0.40144 0.68912 0.0
H260 H 0.2772 0.31471 0.78454 0.0
H261 H 0.11046 0.04297 0.85621 0.0
H262 H 0.16586 0.08393 0.8189 0.0
H263 H 0.26326 0.16221 0.74887 0.0
C264 C 0.15612 0.14077 0.85611 0.0
C265 C 0.18803 0.16522 0.83378 0.0
C266 C 0.21456 0.18631 0.81557 0.0
C267 C 0.24434 0.21227 0.7921 0.0
C268 C 0.88577 0.13661 0.90883 0.0
C269 C 0.89885 0.09653 0.8942 0.0
C270 C 0.86432 0.1642 0.88148 0.0
C271 C 0.78605 0.27495 0.77273 0.0
C272 C 0.61186 0.35706 0.57727 0.0
C273 C 0.59696 0.39687 0.59037 0.0
C274 C 0.64183 0.3353 0.60181 0.0
C275 C 0.76093 0.24777 0.69117 0.0
H276 H 0.89398 0.14762 0.94066 0.0
H277 H 0.85605 0.19554 0.89276 0.0
H278 H 0.795 0.28547 0.80454 0.0
H279 H 0.60189 0.3437 0.54689 0.0
H280 H 0.65398 0.3053 0.59033 0.0
H281 H 0.75086 0.23665 0.65992 0.0
C282 C 0.88713 0.08351 0.85271 0.0
C283 C 0.86559 0.11119 0.82544 0.0
C284 C 0.78674 0.22192 0.71658 0.0
C285 C 0.61138 0.41401 0.62929 0.0
C286 C 0.64084 0.39171 0.65437 0.0
C287 C 0.76027 0.3008 0.74733 0.0
C288 C 0.85526 0.15195 0.8394 0.0
C289 C 0.8363 0.18158 0.81026 0.0
C290 C 0.82041 0.20646 0.78588 0.0
C291 C 0.79856 0.2351 0.75776 0.0
H292 H 0.89647 0.05284 0.84047 0.0
H293 H 0.85826 0.10125 0.79303 0.0
H294 H 0.79626 0.19114 0.70468 0.0
H295 H 0.60051 0.44482 0.63978 0.0
H296 H 0.65199 0.40538 0.68418 0.0
H297 H 0.74969 0.33098 0.75982 0.0
C298 C 0.65682 0.35272 0.64015 0.0
C299 C 0.68926 0.33079 0.66404 0.0
C300 C 0.71639 0.31139 0.68302 0.0
C301 C 0.74688 0.2869 0.70688 0.0
C302 C 0.57524 0.63138 0.6143 0.0
C303 C 0.59176 0.59398 0.59633 0.0
C304 C 0.59785 0.65324 0.64597 0.0
C305 C 0.68996 0.74362 0.76378 0.0
C306 C 0.90882 0.85184 0.88763 0.0
C307 C 0.89736 0.8932 0.89927 0.0
C308 C 0.87957 0.82513 0.86775 0.0
C309 C 0.77188 0.71736 0.78688 0.0
H310 H 0.54517 0.64423 0.60344 0.0
H311 H 0.58478 0.68223 0.65897 0.0
H312 H 0.65853 0.75439 0.75458 0.0
H313 H 0.94066 0.84019 0.89389 0.0
H314 H 0.88925 0.7934 0.85896 0.0
H315 H 0.80375 0.70712 0.79515 0.0
C316 C 0.63117 0.57872 0.61138 0.0
C317 C 0.65368 0.60063 0.64303 0.0
C318 C 0.74634 0.69137 0.76117 0.0
C319 C 0.85606 0.9077 0.89045 0.0
C320 C 0.82641 0.88054 0.87094 0.0
C321 C 0.71546 0.76956 0.78946 0.0
C322 C 0.63718 0.63801 0.66032 0.0
C323 C 0.66096 0.66102 0.69223 0.0
C324 C 0.68092 0.68023 0.71894 0.0
C325 C 0.7056 0.70481 0.7489 0.0
H326 H 0.64502 0.55014 0.59832 0.0
H327 H 0.68415 0.58855 0.65374 0.0
H328 H 0.75881 0.66142 0.74994 0.0
H329 H 0.84656 0.9394 0.89944 0.0
H330 H 0.79441 0.89174 0.86479 0.0
H331 H 0.70339 0.8 0.79973 0.0
C332 C 0.83816 0.83913 0.8597 0.0
C333 C 0.80822 0.81072 0.83973 0.0
C334 C 0.78442 0.78572 0.82296 0.0
C335 C 0.75677 0.75689 0.80042 0.0
loop_
_geom_bond_atom_site_label_1
_geom_bond_atom_site_label_2
_geom_bond_distance
_geom_bond_site_symmetry_2
_ccdc_geom_bond_type
Fe0 O1 1.886 . S
Fe0 O4 1.715 1_554 S
Fe0 O9 2.077 . S
Fe0 O14 1.935 1_554 S
Fe0 O20 2.077 1_455 S
Fe0 O29 1.935 1_454 S
O1 Fe0 1.886 . S
O1 Fe3 1.715 1_565 S
Fe2 O4 1.905 . S
Fe2 O5 1.696 1_565 S
Fe2 O12 1.921 1_565 S
Fe2 O13 2.094 . S
Fe2 O19 1.921 1_465 S
Fe2 O28 2.094 1_455 S
Fe3 O1 1.715 1_545 S
Fe3 O6 1.886 . S
Fe3 O10 1.935 1_545 S
Fe3 O15 2.077 . S
Fe3 O21 1.935 1_445 S
Fe3 O25 2.077 1_455 S
O4 Fe0 1.715 1_556 S
O4 Fe2 1.905 . S
O5 Fe2 1.696 1_545 S
O5 Fe7 1.905 . S
O6 Fe3 1.886 . S
O6 Fe7 1.696 1_554 S
Fe7 O5 1.905 . S
Fe7 O6 1.696 1_556 S
Fe7 O11 2.094 . S
Fe7 O16 1.921 1_556 S
Fe7 O18 2.094 1_455 S
Fe7 O26 1.921 1_456 S
C8 O20 1.381 . S
C8 O21 1.421 . S
O9 Fe0 2.077 . S
O9 C22 1.381 . S
O10 Fe3 1.935 1_565 S
O10 C22 1.421 . S
O11 Fe7 2.094 . S
O11 C27 1.381 . S
O12 Fe2 1.921 1_545 S
O12 C27 1.421 . S
O13 Fe2 2.094 . S
O13 C17 1.381 . S
O14 Fe0 1.935 1_556 S
O14 C17 1.421 . S
O15 Fe3 2.077 . S
O15 C23 1.381 . S
O16 Fe7 1.921 1_554 S
O16 C23 1.421 . S
C17 O13 1.381 . S
C17 O14 1.421 . S
O18 Fe7 2.094 1_655 S
O18 C30 1.381 . S
O19 Fe2 1.921 1_645 S
O19 C30 1.421 . S
O20 Fe0 2.077 1_655 S
O20 C8 1.381 . S
O21 Fe3 1.935 1_665 S
O21 C8 1.421 . S
C22 O9 1.381 . S
C22 O10 1.421 . S
C23 O15 1.381 . S
C23 O16 1.421 . S
C24 O25 1.381 . S
C24 O26 1.421 . S
O25 Fe3 2.077 1_655 S
O25 C24 1.381 . S
O26 Fe7 1.921 1_654 S
O26 C24 1.421 . S
C27 O11 1.381 . S
C27 O12 1.421 . S
O28 Fe2 2.094 1_655 S
O28 C31 1.381 . S
O29 Fe0 1.935 1_656 S
O29 C31 1.421 . S
C30 O18 1.381 . S
C30 O19 1.421 . S
C31 O28 1.381 . S
C31 O29 1.421 . S
Fe32 O33 1.886 . S
Fe32 O36 1.715 . S
Fe32 O41 2.077 . S
Fe32 O46 1.935 . S
Fe32 O52 2.077 . S
Fe32 O61 1.935 . S
O33 Fe32 1.886 . S
O33 Fe35 1.715 . S
Fe34 O36 1.886 . S
Fe34 O37 1.715 . S
Fe34 O44 1.935 . S
Fe34 O45 2.077 . S
Fe34 O51 1.935 . S
Fe34 O60 2.077 . S
Fe35 O33 1.715 . S
Fe35 O38 1.886 . S
Fe35 O42 1.935 . S
Fe35 O47 2.077 . S
Fe35 O53 1.935 . S
Fe35 O57 2.077 . S
O36 Fe32 1.715 . S
O36 Fe34 1.886 . S
O37 Fe34 1.715 . S
O37 Fe39 1.886 . S
O38 Fe35 1.886 . S
O38 Fe39 1.715 . S
Fe39 O37 1.886 . S
Fe39 O38 1.715 . S
Fe39 O43 2.077 . S
Fe39 O48 1.935 . S
Fe39 O50 2.077 . S
Fe39 O58 1.935 . S
C40 O52 1.381 . S
C40 O53 1.421 . S
O41 Fe32 2.077 . S
O41 C54 1.381 . S
O42 Fe35 1.935 . S
O42 C54 1.421 . S
O43 Fe39 2.077 . S
O43 C59 1.381 . S
O44 Fe34 1.935 . S
O44 C59 1.421 . S
O45 Fe34 2.077 . S
O45 C49 1.381 . S
O46 Fe32 1.935 . S
O46 C49 1.421 . S
O47 Fe35 2.077 . S
O47 C55 1.381 . S
O48 Fe39 1.935 . S
O48 C55 1.421 . S
C49 O45 1.381 . S
C49 O46 1.421 . S
O50 Fe39 2.077 . S
O50 C62 1.381 . S
O51 Fe34 1.935 . S
O51 C62 1.421 . S
O52 Fe32 2.077 . S
O52 C40 1.381 . S
O53 Fe35 1.935 . S
O53 C40 1.421 . S
C54 O41 1.381 . S
C54 O42 1.421 . S
C55 O47 1.381 . S
C55 O48 1.421 . S
C56 O57 1.381 . S
C56 O58 1.421 . S
O57 Fe35 2.077 . S
O57 C56 1.381 . S
O58 Fe39 1.935 . S
O58 C56 1.421 . S
C59 O43 1.381 . S
C59 O44 1.421 . S
O60 Fe34 2.077 . S
O60 C63 1.381 . S
O61 Fe32 1.935 . S
O61 C63 1.421 . S
C62 O50 1.381 . S
C62 O51 1.421 . S
C63 O60 1.381 . S
C63 O61 1.421 . S
C64 C65 1.420 . S
C64 C66 1.385 . S
C64 H72 0.928 . S
C65 C64 1.420 . S
C65 C78 1.420 . S
C66 C64 1.385 . S
C66 H73 0.929 . S
C66 C84 1.407 . S
C67 H74 0.928 . S
C67 C83 1.374 . S
C67 C87 1.388 . S
C68 C69 1.420 . S
C68 C70 1.385 . S
C68 H75 0.928 . S
C69 C68 1.420 . S
C69 C81 1.420 . S
C70 C68 1.385 . S
C70 H76 0.929 . S
C70 C94 1.407 . S
C71 H77 0.928 . S
C71 C80 1.374 . S
C71 C97 1.388 . S
H72 C64 0.928 . S
H73 C66 0.929 . S
H74 C67 0.928 . S
H75 C68 0.928 . S
H76 C70 0.929 . S
H77 C71 0.928 . S
C78 C65 1.420 . S
C78 C79 1.385 . S
C78 H88 0.928 . S
C79 C78 1.385 . S
C79 C84 1.407 . S
C79 H89 0.929 . S
C80 C71 1.374 . S
C80 C87 1.388 . S
C80 H90 0.928 . S
C81 C69 1.420 . S
C81 C82 1.385 . S
C81 H91 0.928 . S
C82 C81 1.385 . S
C82 H92 0.929 . S
C82 C94 1.407 . S
C83 C67 1.374 . S
C83 H93 0.928 . S
C83 C97 1.388 . S
C84 C66 1.407 . S
C84 C79 1.407 . S
C84 C85 1.428 . S
C85 C84 1.428 . S
C85 C86 1.230 . S
C86 C85 1.230 . S
C86 C87 1.405 . S
C87 C67 1.388 . S
C87 C80 1.388 . S
C87 C86 1.405 . S
H88 C78 0.928 . S
H89 C79 0.929 . S
H90 C80 0.928 . S
H91 C81 0.928 . S
H92 C82 0.929 . S
H93 C83 0.928 . S
C94 C70 1.407 . S
C94 C82 1.407 . S
C94 C95 1.428 . S
C95 C94 1.428 . S
C95 C96 1.230 . S
C96 C95 1.230 . S
C96 C97 1.405 . S
C97 C71 1.388 . S
C97 C83 1.388 . S
C97 C96 1.405 . S
C98 C99 1.420 . S
C98 C100 1.385 . S
C98 H106 0.928 . S
C99 C98 1.420 . S
C99 C112 1.420 . S
C100 C98 1.385 . S
C100 H107 0.929 . S
C100 C118 1.407 . S
C101 H108 0.928 . S
C101 C117 1.374 . S
C101 C121 1.388 . S
C102 C103 1.420 . S
C102 C104 1.385 . S
C102 H109 0.928 . S
C103 C102 1.420 . S
C103 C115 1.420 . S
C104 C102 1.385 . S
C104 H110 0.929 . S
C104 C128 1.407 . S
C105 H111 0.928 . S
C105 C114 1.374 . S
C105 C131 1.388 . S
H106 C98 0.928 . S
H107 C100 0.929 . S
H108 C101 0.928 . S
H109 C102 0.928 . S
H110 C104 0.929 . S
H111 C105 0.928 . S
C112 C99 1.420 . S
C112 C113 1.385 . S
C112 H122 0.928 . S
C113 C112 1.385 . S
C113 C118 1.407 . S
C113 H123 0.929 . S
C114 C105 1.374 . S
C114 C121 1.388 . S
C114 H124 0.928 . S
C115 C103 1.420 . S
C115 C116 1.385 . S
C115 H125 0.928 . S
C116 C115 1.385 . S
C116 H126 0.929 . S
C116 C128 1.407 . S
C117 C101 1.374 . S
C117 H127 0.928 . S
C117 C131 1.388 . S
C118 C100 1.407 . S
C118 C113 1.407 . S
C118 C119 1.428 . S
C119 C118 1.428 . S
C119 C120 1.230 . S
C120 C119 1.230 . S
C120 C121 1.405 . S
C121 C101 1.388 . S
C121 C114 1.388 . S
C121 C120 1.405 . S
H122 C112 0.928 . S
H123 C113 0.929 . S
H124 C114 0.928 . S
H125 C115 0.928 . S
H126 C116 0.929 . S
H127 C117 0.928 . S
C128 C104 1.407 . S
C128 C116 1.407 . S
C128 C129 1.428 . S
C129 C128 1.428 . S
C129 C130 1.230 . S
C130 C129 1.230 . S
C130 C131 1.405 . S
C131 C105 1.388 . S
C131 C117 1.388 . S
C131 C130 1.405 . S
C132 C133 1.420 . S
C132 C134 1.385 . S
C132 H140 0.928 . S
C133 C132 1.420 . S
C133 C146 1.420 . S
C134 C132 1.385 . S
C134 H141 0.929 . S
C134 C152 1.407 . S
C135 H142 0.928 . S
C135 C151 1.374 . S
C135 C155 1.388 . S
C136 C137 1.420 . S
C136 C138 1.385 . S
C136 H143 0.928 . S
C137 C136 1.420 . S
C137 C149 1.420 . S
C138 C136 1.385 . S
C138 H144 0.929 . S
C138 C162 1.407 . S
C139 H145 0.928 . S
C139 C148 1.374 . S
C139 C165 1.388 . S
H140 C132 0.928 . S
H141 C134 0.929 . S
H142 C135 0.928 . S
H143 C136 0.928 . S
H144 C138 0.929 . S
H145 C139 0.928 . S
C146 C133 1.420 . S
C146 C147 1.385 . S
C146 H156 0.928 . S
C147 C146 1.385 . S
C147 C152 1.407 . S
C147 H157 0.929 . S
C148 C139 1.374 . S
C148 C155 1.388 . S
C148 H158 0.928 . S
C149 C137 1.420 . S
C149 C150 1.385 . S
C149 H159 0.928 . S
C150 C149 1.385 . S
C150 H160 0.929 . S
C150 C162 1.407 . S
C151 C135 1.374 . S
C151 H161 0.928 . S
C151 C165 1.388 . S
C152 C134 1.407 . S
C152 C147 1.407 . S
C152 C153 1.428 . S
C153 C152 1.428 . S
C153 C154 1.230 . S
C154 C153 1.230 . S
C154 C155 1.405 . S
C155 C135 1.388 . S
C155 C148 1.388 . S
C155 C154 1.405 . S
H156 C146 0.928 . S
H157 C147 0.929 . S
H158 C148 0.928 . S
H159 C149 0.928 . S
H160 C150 0.929 . S
H161 C151 0.928 . S
C162 C138 1.407 . S
C162 C150 1.407 . S
C162 C163 1.428 . S
C163 C162 1.428 . S
C163 C164 1.230 . S
C164 C163 1.230 . S
C164 C165 1.405 . S
C165 C139 1.388 . S
C165 C151 1.388 . S
C165 C164 1.405 . S
C166 C167 1.420 . S
C166 C168 1.385 . S
C166 H174 0.928 . S
C167 C166 1.420 . S
C167 C180 1.420 . S
C168 C166 1.385 . S
C168 H175 0.929 . S
C168 C186 1.407 . S
C169 H176 0.928 . S
C169 C185 1.374 . S
C169 C189 1.388 . S
C170 C171 1.420 . S
C170 C172 1.385 . S
C170 H177 0.928 . S
C171 C170 1.420 . S
C171 C183 1.420 . S
C172 C170 1.385 . S
C172 H178 0.929 . S
C172 C196 1.407 . S
C173 H179 0.928 . S
C173 C182 1.374 . S
C173 C199 1.388 . S
H174 C166 0.928 . S
H175 C168 0.929 . S
H176 C169 0.928 . S
H177 C170 0.928 . S
H178 C172 0.929 . S
H179 C173 0.928 . S
C180 C167 1.420 . S
C180 C181 1.385 . S
C180 H190 0.928 . S
C181 C180 1.385 . S
C181 C186 1.407 . S
C181 H191 0.929 . S
C182 C173 1.374 . S
C182 C189 1.388 . S
C182 H192 0.928 . S
C183 C171 1.420 . S
C183 C184 1.385 . S
C183 H193 0.928 . S
C184 C183 1.385 . S
C184 H194 0.929 . S
C184 C196 1.407 . S
C185 C169 1.374 . S
C185 H195 0.928 . S
C185 C199 1.388 . S
C186 C168 1.407 . S
C186 C181 1.407 . S
C186 C187 1.428 . S
C187 C186 1.428 . S
C187 C188 1.230 . S
C188 C187 1.230 . S
C188 C189 1.405 . S
C189 C169 1.388 . S
C189 C182 1.388 . S
C189 C188 1.405 . S
H190 C180 0.928 . S
H191 C181 0.929 . S
H192 C182 0.928 . S
H193 C183 0.928 . S
H194 C184 0.929 . S
H195 C185 0.928 . S
C196 C172 1.407 . S
C196 C184 1.407 . S
C196 C197 1.428 . S
C197 C196 1.428 . S
C197 C198 1.230 . S
C198 C197 1.230 . S
C198 C199 1.405 . S
C199 C173 1.388 . S
C199 C185 1.388 . S
C199 C198 1.405 . S
C200 C201 1.420 . S
C200 C202 1.385 . S
C200 H208 0.928 . S
C201 C200 1.420 . S
C201 C214 1.420 . S
C202 C200 1.385 . S
C202 H209 0.929 . S
C202 C220 1.407 . S
C203 H210 0.928 . S
C203 C219 1.374 . S
C203 C223 1.388 . S
C204 C205 1.420 . S
C204 C206 1.385 . S
C204 H211 0.928 . S
C205 C204 1.420 . S
C205 C217 1.420 . S
C206 C204 1.385 . S
C206 H212 0.929 . S
C206 C230 1.407 . S
C207 H213 0.928 . S
C207 C216 1.374 . S
C207 C233 1.388 . S
H208 C200 0.928 . S
H209 C202 0.929 . S
H210 C203 0.928 . S
H211 C204 0.928 . S
H212 C206 0.929 . S
H213 C207 0.928 . S
C214 C201 1.420 . S
C214 C215 1.385 . S
C214 H224 0.928 . S
C215 C214 1.385 . S
C215 C220 1.407 . S
C215 H225 0.929 . S
C216 C207 1.374 . S
C216 C223 1.388 . S
C216 H226 0.928 . S
C217 C205 1.420 . S
C217 C218 1.385 . S
C217 H227 0.928 . S
C218 C217 1.385 . S
C218 H228 0.929 . S
C218 C230 1.407 . S
C219 C203 1.374 . S
C219 H229 0.928 . S
C219 C233 1.388 . S
C220 C202 1.407 . S
C220 C215 1.407 . S
C220 C221 1.428 . S
C221 C220 1.428 . S
C221 C222 1.230 . S
C222 C221 1.230 . S
C222 C223 1.405 . S
C223 C203 1.388 . S
C223 C216 1.388 . S
C223 C222 1.405 . S
H224 C214 0.928 . S
H225 C215 0.929 . S
H226 C216 0.928 . S
H227 C217 0.928 . S
H228 C218 0.929 . S
H229 C219 0.928 . S
C230 C206 1.407 . S
C230 C218 1.407 . S
C230 C231 1.428 . S
C231 C230 1.428 . S
C231 C232 1.230 . S
C232 C231 1.230 . S
C232 C233 1.405 . S
C233 C207 1.388 . S
C233 C219 1.388 . S
C233 C232 1.405 . S
C234 C235 1.420 . S
C234 C236 1.385 . S
C234 H242 0.928 . S
C235 C234 1.420 . S
C235 C248 1.420 . S
C236 C234 1.385 . S
C236 H243 0.929 . S
C236 C254 1.407 . S
C237 H244 0.928 . S
C237 C253 1.374 . S
C237 C257 1.388 . S
C238 C239 1.420 . S
C238 C240 1.385 . S
C238 H245 0.928 . S
C239 C238 1.420 . S
C239 C251 1.420 . S
C240 C238 1.385 . S
C240 H246 0.929 . S
C240 C264 1.407 . S
C241 H247 0.928 . S
C241 C250 1.374 . S
C241 C267 1.388 . S
H242 C234 0.928 . S
H243 C236 0.929 . S
H244 C237 0.928 . S
H245 C238 0.928 . S
H246 C240 0.929 . S
H247 C241 0.928 . S
C248 C235 1.420 . S
C248 C249 1.385 . S
C248 H258 0.928 . S
C249 C248 1.385 . S
C249 C254 1.407 . S
C249 H259 0.929 . S
C250 C241 1.374 . S
C250 C257 1.388 . S
C250 H260 0.928 . S
C251 C239 1.420 . S
C251 C252 1.385 . S
C251 H261 0.928 . S
C252 C251 1.385 . S
C252 H262 0.929 . S
C252 C264 1.407 . S
C253 C237 1.374 . S
C253 H263 0.928 . S
C253 C267 1.388 . S
C254 C236 1.407 . S
C254 C249 1.407 . S
C254 C255 1.428 . S
C255 C254 1.428 . S
C255 C256 1.230 . S
C256 C255 1.230 . S
C256 C257 1.405 . S
C257 C237 1.388 . S
C257 C250 1.388 . S
C257 C256 1.405 . S
H258 C248 0.928 . S
H259 C249 0.929 . S
H260 C250 0.928 . S
H261 C251 0.928 . S
H262 C252 0.929 . S
H263 C253 0.928 . S
C264 C240 1.407 . S
C264 C252 1.407 . S
C264 C265 1.428 . S
C265 C264 1.428 . S
C265 C266 1.230 . S
C266 C265 1.230 . S
C266 C267 1.405 . S
C267 C241 1.388 . S
C267 C253 1.388 . S
C267 C266 1.405 . S
C268 C269 1.420 . S
C268 C270 1.385 . S
C268 H276 0.928 . S
C269 C268 1.420 . S
C269 C282 1.420 . S
C270 C268 1.385 . S
C270 H277 0.929 . S
C270 C288 1.407 . S
C271 H278 0.928 . S
C271 C287 1.374 . S
C271 C291 1.388 . S
C272 C273 1.420 . S
C272 C274 1.385 . S
C272 H279 0.928 . S
C273 C272 1.420 . S
C273 C285 1.420 . S
C274 C272 1.385 . S
C274 H280 0.929 . S
C274 C298 1.407 . S
C275 H281 0.928 . S
C275 C284 1.374 . S
C275 C301 1.388 . S
H276 C268 0.928 . S
H277 C270 0.929 . S
H278 C271 0.928 . S
H279 C272 0.928 . S
H280 C274 0.929 . S
H281 C275 0.928 . S
C282 C269 1.420 . S
C282 C283 1.385 . S
C282 H292 0.928 . S
C283 C282 1.385 . S
C283 C288 1.407 . S
C283 H293 0.929 . S
C284 C275 1.374 . S
C284 C291 1.388 . S
C284 H294 0.928 . S
C285 C273 1.420 . S
C285 C286 1.385 . S
C285 H295 0.928 . S
C286 C285 1.385 . S
C286 H296 0.929 . S
C286 C298 1.407 . S
C287 C271 1.374 . S
C287 H297 0.928 . S
C287 C301 1.388 . S
C288 C270 1.407 . S
C288 C283 1.407 . S
C288 C289 1.428 . S
C289 C288 1.428 . S
C289 C290 1.230 . S
C290 C289 1.230 . S
C290 C291 1.405 . S
C291 C271 1.388 . S
C291 C284 1.388 . S
C291 C290 1.405 . S
H292 C282 0.928 . S
H293 C283 0.929 . S
H294 C284 0.928 . S
H295 C285 0.928 . S
H296 C286 0.929 . S
H297 C287 0.928 . S
C298 C274 1.407 . S
C298 C286 1.407 . S
C298 C299 1.428 . S
C299 C298 1.428 . S
C299 C300 1.230 . S
C300 C299 1.230 . S
C300 C301 1.405 . S
C301 C275 1.388 . S
C301 C287 1.388 . S
C301 C300 1.405 . S
C302 C303 1.420 . S
C302 C304 1.385 . S
C302 H310 0.928 . S
C303 C302 1.420 . S
C303 C316 1.420 . S
C304 C302 1.385 . S
C304 H311 0.929 . S
C304 C322 1.407 . S
C305 H312 0.928 . S
C305 C321 1.374 . S
C305 C325 1.388 . S
C306 C307 1.420 . S
C306 C308 1.385 . S
C306 H313 0.928 . S
C307 C306 1.420 . S
C307 C319 1.420 . S
C308 C306 1.385 . S
C308 H314 0.929 . S
C308 C332 1.407 . S
C309 H315 0.928 . S
C309 C318 1.374 . S
C309 C335 1.388 . S
H310 C302 0.928 . S
H311 C304 0.929 . S
H312 C305 0.928 . S
H313 C306 0.928 . S
H314 C308 0.929 . S
H315 C309 0.928 . S
C316 C303 1.420 . S
C316 C317 1.385 . S
C316 H326 0.928 . S
C317 C316 1.385 . S
C317 C322 1.407 . S
C317 H327 0.929 . S
C318 C309 1.374 . S
C318 C325 1.388 . S
C318 H328 0.928 . S
C319 C307 1.420 . S
C319 C320 1.385 . S
C319 H329 0.928 . S
C320 C319 1.385 . S
C320 H330 0.929 . S
C320 C332 1.407 . S
C321 C305 1.374 . S
C321 H331 0.928 . S
C321 C335 1.388 . S
C322 C304 1.407 . S
C322 C317 1.407 . S
C322 C323 1.428 . S
C323 C322 1.428 . S
C323 C324 1.230 . S
C324 C323 1.230 . S
C324 C325 1.405 . S
C325 C305 1.388 . S
C325 C318 1.388 . S
C325 C324 1.405 . S
H326 C316 0.928 . S
H327 C317 0.929 . S
H328 C318 0.928 . S
H329 C319 0.928 . S
H330 C320 0.929 . S
H331 C321 0.928 . S
C332 C308 1.407 . S
C332 C320 1.407 . S
C332 C333 1.428 . S
C333 C332 1.428 . S
C333 C334 1.230 . S
C334 C333 1.230 . S
C334 C335 1.405 . S
C335 C309 1.388 . S
C335 C321 1.388 . S
C335 C334 1.405 . S
C65 C23 1.438 . S
C69 C55 1.441 . S
C99 C24 1.462 . S
C103 C59 1.448 . S
C133 C8 1.463 . S
C137 C49 1.453 . S
C167 C22 1.441 . S
C171 C54 1.447 . S
C201 C17 1.438 . S
C205 C40 1.451 . S
C235 C56 1.458 . S
C239 C27 1.462 . S
C269 C30 1.439 . S
C273 C62 1.445 . S
C303 C63 1.464 . S
C307 C31 1.459 . S
