# Generated by pormake.
# Topology unn, (4)-cn, num edge types: 1
# Building blocks:
#     Node 0, Type 0, BuildingBlock: CEKHIL_clean_sbu_0, # of connection points: 4
#     Node 1, Type 0, BuildingBlock: CEKHIL_clean_sbu_0, # of connection points: 4
#     Node 2, Type 0, BuildingBlock: CEKHIL_clean_sbu_0, # of connection points: 4
#     Node 3, Type 0, BuildingBlock: CEKHIL_clean_sbu_0, # of connection points: 4
#     Node 4, Type 0, BuildingBlock: CEKHIL_clean_sbu_0, # of connection points: 4
#     Node 5, Type 0, BuildingBlock: CEKHIL_clean_sbu_0, # of connection points: 4
#     Node 6, Type 0, BuildingBlock: CEKHIL_clean_sbu_0, # of connection points: 4
#     Node 7, Type 0, BuildingBlock: CEKHIL_clean_sbu_0, # of connection points: 4
#     Node 8, Type 0, BuildingBlock: CEKHIL_clean_sbu_0, # of connection points: 4
#     Node 9, Type 0, BuildingBlock: CEKHIL_clean_sbu_0, # of connection points: 4
#     Node 10, Type 0, BuildingBlock: CEKHIL_clean_sbu_0, # of connection points: 4
#     Node 11, Type 0, BuildingBlock: CEKHIL_clean_sbu_0, # of connection points: 4
#     Node 12, Type 0, BuildingBlock: CEKHIL_clean_sbu_0, # of connection points: 4
#     Node 13, Type 0, BuildingBlock: CEKHIL_clean_sbu_0, # of connection points: 4
#     Node 14, Type 0, BuildingBlock: CEKHIL_clean_sbu_0, # of connection points: 4
#     Node 15, Type 0, BuildingBlock: CEKHIL_clean_sbu_0, # of connection points: 4
#     Node 16, Type 0, BuildingBlock: CEKHIL_clean_sbu_0, # of connection points: 4
#     Node 17, Type 0, BuildingBlock: CEKHIL_clean_sbu_0, # of connection points: 4
#     Edge 18, Type (0, 0), BuildingBlock: KIFKEQ_clean_linker_1, # of connection points: 2
#     Edge 19, Type (0, 0), BuildingBlock: KIFKEQ_clean_linker_1, # of connection points: 2
#     Edge 20, Type (0, 0), BuildingBlock: KIFKEQ_clean_linker_1, # of connection points: 2
#     Edge 21, Type (0, 0), BuildingBlock: KIFKEQ_clean_linker_1, # of connection points: 2
#     Edge 22, Type (0, 0), BuildingBlock: KIFKEQ_clean_linker_1, # of connection points: 2
#     Edge 23, Type (0, 0), BuildingBlock: KIFKEQ_clean_linker_1, # of connection points: 2
#     Edge 24, Type (0, 0), BuildingBlock: KIFKEQ_clean_linker_1, # of connection points: 2
#     Edge 25, Type (0, 0), BuildingBlock: KIFKEQ_clean_linker_1, # of connection points: 2
#     Edge 26, Type (0, 0), BuildingBlock: KIFKEQ_clean_linker_1, # of connection points: 2
#     Edge 27, Type (0, 0), BuildingBlock: KIFKEQ_clean_linker_1, # of connection points: 2
#     Edge 28, Type (0, 0), BuildingBlock: KIFKEQ_clean_linker_1, # of connection points: 2
#     Edge 29, Type (0, 0), BuildingBlock: KIFKEQ_clean_linker_1, # of connection points: 2
#     Edge 30, Type (0, 0), BuildingBlock: KIFKEQ_clean_linker_1, # of connection points: 2
#     Edge 31, Type (0, 0), BuildingBlock: KIFKEQ_clean_linker_1, # of connection points: 2
#     Edge 32, Type (0, 0), BuildingBlock: KIFKEQ_clean_linker_1, # of connection points: 2
#     Edge 33, Type (0, 0), BuildingBlock: KIFKEQ_clean_linker_1, # of connection points: 2
#     Edge 34, Type (0, 0), BuildingBlock: KIFKEQ_clean_linker_1, # of connection points: 2
#     Edge 35, Type (0, 0), BuildingBlock: KIFKEQ_clean_linker_1, # of connection points: 2
#     Edge 36, Type (0, 0), BuildingBlock: KIFKEQ_clean_linker_1, # of connection points: 2
#     Edge 37, Type (0, 0), BuildingBlock: KIFKEQ_clean_linker_1, # of connection points: 2
#     Edge 38, Type (0, 0), BuildingBlock: KIFKEQ_clean_linker_1, # of connection points: 2
#     Edge 39, Type (0, 0), BuildingBlock: KIFKEQ_clean_linker_1, # of connection points: 2
#     Edge 40, Type (0, 0), BuildingBlock: KIFKEQ_clean_linker_1, # of connection points: 2
#     Edge 41, Type (0, 0), BuildingBlock: KIFKEQ_clean_linker_1, # of connection points: 2
#     Edge 42, Type (0, 0), BuildingBlock: KIFKEQ_clean_linker_1, # of connection points: 2
#     Edge 43, Type (0, 0), BuildingBlock: KIFKEQ_clean_linker_1, # of connection points: 2
#     Edge 44, Type (0, 0), BuildingBlock: KIFKEQ_clean_linker_1, # of connection points: 2
#     Edge 45, Type (0, 0), BuildingBlock: KIFKEQ_clean_linker_1, # of connection points: 2
#     Edge 46, Type (0, 0), BuildingBlock: KIFKEQ_clean_linker_1, # of connection points: 2
#     Edge 47, Type (0, 0), BuildingBlock: KIFKEQ_clean_linker_1, # of connection points: 2
#     Edge 48, Type (0, 0), BuildingBlock: KIFKEQ_clean_linker_1, # of connection points: 2
#     Edge 49, Type (0, 0), BuildingBlock: KIFKEQ_clean_linker_1, # of connection points: 2
#     Edge 50, Type (0, 0), BuildingBlock: KIFKEQ_clean_linker_1, # of connection points: 2
#     Edge 51, Type (0, 0), BuildingBlock: KIFKEQ_clean_linker_1, # of connection points: 2
#     Edge 52, Type (0, 0), BuildingBlock: KIFKEQ_clean_linker_1, # of connection points: 2
#     Edge 53, Type (0, 0), BuildingBlock: KIFKEQ_clean_linker_1, # of connection points: 2
# Relax obj value: 0.130
# Max RMSD: 0.232
# Mean RMSD: 0.225
data_MOF--net-unn--node1-CEKHIL_clean_sbu_0--edge1-KIFKEQ_clean_linker_1
_symmetry_space_group_name_H-M    P1
_symmetry_Int_Tables_number       1
_symmetry_cell_setting            triclinic
loop_
_symmetry_equiv_pos_as_xyz
'x, y, z'
_cell_length_a     46.859005
_cell_length_b     46.769618
_cell_length_c     38.250321
_cell_angle_alpha  90.332799
_cell_angle_beta   89.859816
_cell_angle_gamma 120.42538
loop_
_atom_site_label
_atom_site_type_symbol
_atom_site_fract_x
_atom_site_fract_y
_atom_site_fract_z
_atom_type_partial_charge
Co0 Co 0.06749 0.79361 0.24194 0.0
O1 O 0.02013 0.77129 0.2374 0.0
O2 O 0.05374 0.81534 0.20689 0.0
C3 C 0.06942 0.79337 0.30038 0.0
O4 O 0.11905 0.82214 0.24383 0.0
Co5 Co 0.09161 0.74783 0.27254 0.0
O6 O 0.1343 0.79043 0.27404 0.0
C7 C 0.06222 0.73456 0.20342 0.0
C8 C 0.02334 0.79182 0.21325 0.0
C9 C 0.14121 0.8178 0.25966 0.0
O10 O 0.06835 0.76462 0.20359 0.0
O11 O 0.06672 0.72117 0.23025 0.0
O12 O 0.0663 0.81624 0.28467 0.0
O13 O 0.06629 0.76958 0.28053 0.0
Co14 Co 0.32325 0.34917 0.22645 0.0
O15 O 0.30716 0.37536 0.24857 0.0
O16 O 0.27467 0.32404 0.23003 0.0
C17 C 0.35777 0.38949 0.19076 0.0
O18 O 0.3338 0.3161 0.20062 0.0
Co19 Co 0.39787 0.37314 0.23663 0.0
O20 O 0.38957 0.34199 0.19755 0.0
C21 C 0.35122 0.34075 0.29456 0.0
C22 C 0.27754 0.35059 0.24484 0.0
C23 C 0.36097 0.31844 0.18871 0.0
O24 O 0.32701 0.33265 0.27347 0.0
O25 O 0.38158 0.35905 0.28567 0.0
O26 O 0.32687 0.37085 0.18229 0.0
O27 O 0.36615 0.38529 0.22155 0.0
Co28 Co 0.66055 0.91081 0.2257 0.0
O29 O 0.6314 0.86488 0.23717 0.0
O30 O 0.68155 0.89497 0.25888 0.0
C31 C 0.65413 0.90785 0.16784 0.0
O32 O 0.69685 0.96018 0.21697 0.0
Co33 Co 0.62441 0.94607 0.19613 0.0
O34 O 0.67035 0.98209 0.18794 0.0
C35 C 0.62705 0.93988 0.27149 0.0
C36 C 0.6539 0.86645 0.25784 0.0
C37 C 0.69665 0.98436 0.20041 0.0
O38 O 0.64313 0.92474 0.26628 0.0
O39 O 0.61591 0.94981 0.24681 0.0
O40 O 0.67367 0.89914 0.1822 0.0
O41 O 0.63441 0.91104 0.18912 0.0
Co42 Co 0.08353 0.35641 0.73197 0.0
O43 O 0.12266 0.38848 0.75653 0.0
O44 O 0.1128 0.33857 0.74343 0.0
C45 C 0.08783 0.39234 0.69089 0.0
O46 O 0.04385 0.31811 0.70443 0.0
Co47 Co 0.02623 0.3722 0.73041 0.0
O48 O 1.00838 0.33669 0.69466 0.0
C49 C 0.03819 0.34492 0.79418 0.0
C50 C 0.13296 0.36767 0.75706 0.0
C51 C 1.01761 0.31561 0.68961 0.0
O52 O 0.05926 0.34003 0.77761 0.0
O53 O 0.02443 0.36 0.78085 0.0
O54 O 0.10426 0.377 0.68789 0.0
O55 O 0.07203 0.38798 0.71984 0.0
Co56 Co 0.77274 0.76185 0.7501 0.0
O57 O 0.79468 0.73791 0.73735 0.0
O58 O 0.79908 0.77986 0.70707 0.0
C59 C 0.78489 0.76754 0.8072 0.0
O60 O 0.75239 0.79199 0.75868 0.0
Co61 Co 0.71273 0.72471 0.80108 0.0
O62 O 0.71949 0.76989 0.8061 0.0
C63 C 0.70535 0.70392 0.72811 0.0
C64 C 0.80632 0.75643 0.71008 0.0
C65 C 0.73452 0.79329 0.78413 0.0
O66 O 0.73366 0.72944 0.72135 0.0
O67 O 0.69292 0.69603 0.75874 0.0
O68 O 0.80657 0.78825 0.78511 0.0
O69 O 0.75952 0.74222 0.79347 0.0
Co70 Co 0.26409 0.94786 0.76012 0.0
O71 O 0.29352 0.99402 0.74989 0.0
O72 O 0.24157 0.96664 0.73299 0.0
C73 C 0.27896 0.95142 0.81617 0.0
O74 O 0.22751 0.89894 0.76932 0.0
Co75 Co 0.29905 0.90862 0.77847 0.0
O76 O 0.25432 0.87645 0.79651 0.0
C77 C 0.30048 0.92998 0.70676 0.0
C78 C 0.26993 0.99451 0.73321 0.0
C79 C 0.2277 0.87547 0.78727 0.0
O80 O 0.27735 0.93571 0.71519 0.0
O81 O 0.31537 0.92183 0.72909 0.0
O82 O 0.25671 0.95875 0.80715 0.0
O83 O 0.29389 0.94604 0.7908 0.0
Co84 Co 0.75008 0.0862 0.54039 0.0
O85 O 0.70423 0.05576 0.52985 0.0
O86 O 0.72767 0.10961 0.523 0.0
C87 C 0.75011 0.06435 0.59184 0.0
O88 O 0.79848 0.12373 0.5515 0.0
Co89 Co 0.79292 0.05352 0.54142 0.0
O90 O 0.82658 0.09697 0.56081 0.0
C91 C 0.75728 0.05291 0.47947 0.0
C92 C 0.70114 0.0803 0.51993 0.0
C93 C 0.82484 0.12332 0.5616 0.0
O94 O 0.76118 0.08025 0.49147 0.0
O95 O 0.76682 0.03597 0.49681 0.0
O96 O 0.74036 0.08578 0.58936 0.0
O97 O 0.75516 0.05356 0.56267 0.0
Co98 Co 1.00101 0.67085 0.55745 0.0
O99 O 0.03058 0.65554 0.54337 0.0
O100 O 0.9883 0.64842 0.51161 0.0
C101 C 0.99278 0.6517 0.6122 0.0
O102 O 0.96537 0.68398 0.56651 0.0
Co103 Co 0.02799 0.72543 0.61576 0.0
O104 O 0.98173 0.71583 0.61553 0.0
C105 C 0.05261 0.74371 0.54459 0.0
C106 C 1.01361 0.64413 0.51494 0.0
C107 C 0.96062 0.70011 0.59149 0.0
O108 O 0.03096 0.7144 0.53442 0.0
O109 O 0.05733 0.75322 0.57651 0.0
O110 O 0.97593 0.6321 0.58656 0.0
O111 O 1.01672 0.68065 0.6033 0.0
Co112 Co 0.3771 0.28734 0.5976 0.0
O113 O 0.39791 0.33394 0.58789 0.0
O114 O 0.41752 0.30303 0.56862 0.0
C115 C 0.36864 0.29176 0.65459 0.0
O116 O 0.35904 0.23711 0.60596 0.0
Co117 Co 0.30312 0.25741 0.6169 0.0
O118 O 0.30746 0.21831 0.62737 0.0
C119 C 0.32268 0.27321 0.54465 0.0
C120 C 0.42014 0.33224 0.56973 0.0
C121 C 0.33143 0.21388 0.61938 0.0
O122 O 0.35084 0.27737 0.55361 0.0
O123 O 0.30022 0.26858 0.56672 0.0
O124 O 0.39695 0.29635 0.64374 0.0
O125 O 0.34837 0.28909 0.6302 0.0
Co126 Co 0.73254 0.69921 0.07855 0.0
O127 O 0.68639 0.68048 0.0667 0.0
O128 O 0.72047 0.67097 0.03618 0.0
C129 C 0.72464 0.68803 0.13591 0.0
O130 O 0.78249 0.71514 0.0859 0.0
Co131 Co 0.76204 0.76138 0.12732 0.0
O132 O 0.80107 0.75574 0.12702 0.0
C133 C 0.75379 0.76949 0.05338 0.0
C134 C 0.69057 0.66599 0.04001 0.0
C135 C 0.80544 0.73662 0.10665 0.0
O136 O 0.744 0.73867 0.04876 0.0
O137 O 0.76121 0.78396 0.08316 0.0
O138 O 0.72149 0.66539 0.11382 0.0
O139 O 0.72844 0.71494 0.1222 0.0
Co140 Co 0.43634 0.106 0.071 0.0
O141 O 0.45793 0.08025 0.06736 0.0
O142 O 0.46631 0.11946 0.03029 0.0
C143 C 0.44342 0.11617 0.12841 0.0
O144 O 0.41751 0.138 0.07019 0.0
Co145 Co 0.37144 0.07348 0.11596 0.0
O146 O 0.3761 0.11759 0.11023 0.0
C147 C 0.37068 0.04673 0.04693 0.0
C148 C 0.47247 0.09619 0.03926 0.0
C149 C 0.39529 0.14003 0.08889 0.0
O150 O 0.39943 0.07197 0.04098 0.0
O151 O 0.35567 0.04116 0.07622 0.0
O152 O 0.46752 0.13441 0.10714 0.0
O153 O 0.41861 0.09033 0.11468 0.0
Co154 Co 0.92433 0.27652 0.09028 0.0
O155 O 0.95509 0.3223 0.07988 0.0
O156 O 0.9028 0.29693 0.06422 0.0
C157 C 0.93903 0.27894 0.14635 0.0
O158 O 0.88664 0.22821 0.09941 0.0
Co159 Co 0.9581 0.23572 0.10677 0.0
O160 O 0.91211 0.20064 0.11752 0.0
C161 C 0.95998 0.25882 0.03609 0.0
C162 C 0.93184 0.324 0.06385 0.0
C163 C 0.88604 0.20196 0.11149 0.0
O164 O 0.93635 0.26368 0.04493 0.0
O165 O 0.97536 0.25102 0.05811 0.0
O166 O 0.91789 0.28776 0.13735 0.0
O167 O 0.95347 0.27311 0.12076 0.0
Co168 Co 0.40413 0.46774 0.9066 0.0
O169 O 0.3568 0.43913 0.90424 0.0
O170 O 0.3847 0.48125 0.86893 0.0
C171 C 0.40855 0.47431 0.96453 0.0
O172 O 0.45468 0.50237 0.90523 0.0
Co173 Co 0.43949 0.43447 0.94341 0.0
O174 O 0.47882 0.47897 0.93618 0.0
C175 C 0.40532 0.4087 0.87762 0.0
C176 C 0.3562 0.45566 0.87764 0.0
C177 C 0.48036 0.50335 0.91966 0.0
O178 O 0.40856 0.43733 0.87265 0.0
O179 O 0.41324 0.40078 0.90641 0.0
O180 O 0.40019 0.49234 0.94631 0.0
O181 O 0.40881 0.4505 0.94777 0.0
Co182 Co 0.65327 1.01231 0.88228 0.0
O183 O 0.6418 0.0451 0.89528 0.0
O184 O 0.60898 0.99178 0.90417 0.0
C185 C 0.67199 0.03088 0.82878 0.0
O186 O 0.65958 0.97228 0.8693 0.0
Co187 Co 0.7288 0.03988 0.87091 0.0
O188 O 0.71159 0.99648 0.84735 0.0
C189 C 0.70267 0.02714 0.94198 0.0
C190 C 0.61393 0.02182 0.90726 0.0
C191 C 0.6832 0.97098 0.85254 0.0
O192 O 0.6736 0.01648 0.92943 0.0
O193 O 0.72881 0.03887 0.92324 0.0
O194 O 0.64037 1.01255 0.83421 0.0
O195 O 0.69025 0.04182 0.85646 0.0
Co196 Co 1.00113 0.58753 0.91205 0.0
O197 O 0.96983 0.54394 0.9289 0.0
O198 O 0.0237 0.5665 0.93464 0.0
C199 C 0.978 0.58137 0.85918 0.0
O200 O 0.03965 0.63325 0.89468 0.0
Co201 Co 0.97105 0.63269 0.89834 0.0
O202 O 1.01362 0.65917 0.87349 0.0
C203 C 0.98544 0.623 0.9702 0.0
C204 C 0.99418 0.54096 0.93987 0.0
C205 C 0.03957 0.65713 0.8773 0.0
O206 O 0.99956 0.60749 0.95823 0.0
O207 O 0.96995 0.63282 0.95075 0.0
O208 O 0.99755 0.56983 0.86509 0.0
O209 O 0.96968 0.59181 0.88651 0.0
Co210 Co 0.4275 0.02065 0.40334 0.0
O211 O 0.46849 0.04773 0.42765 0.0
O212 O 0.45043 0.99578 0.41368 0.0
C213 C 0.43864 0.0596 0.36309 0.0
O214 O 0.38468 0.98706 0.37589 0.0
Co215 Co 0.37946 0.04833 0.40259 0.0
O216 O 0.35863 0.01554 0.36438 0.0
C217 C 0.38441 0.01517 0.46568 0.0
C218 C 0.47401 0.02346 0.42716 0.0
C219 C 0.36178 0.99022 0.36008 0.0
O220 O 0.40309 1.00701 0.44902 0.0
O221 O 0.37431 0.03367 0.45265 0.0
O222 O 0.44969 0.03935 0.35951 0.0
O223 O 0.42353 0.05742 0.39209 0.0
Co224 Co 0.10487 0.44612 0.39355 0.0
O225 O 0.12134 0.41591 0.39116 0.0
O226 O 0.13708 0.4579 0.35528 0.0
C227 C 0.10873 0.45387 0.45139 0.0
O228 O 0.09199 0.48252 0.39143 0.0
Co229 Co 0.03728 0.41848 0.43289 0.0
O230 O 0.04608 0.46406 0.42513 0.0
C231 C 0.04052 0.38948 0.36666 0.0
C232 C 0.13877 0.43189 0.36428 0.0
C233 C 0.06924 0.48634 0.40659 0.0
O234 O 0.06828 0.41605 0.36084 0.0
O235 O 0.02527 0.38376 0.39585 0.0
O236 O 0.13499 0.4706 0.4322 0.0
O237 O 0.08327 0.43052 0.43558 0.0
Co238 Co 0.60516 0.62348 0.43397 0.0
O239 O 0.62717 0.67058 0.42636 0.0
O240 O 0.57799 0.63541 0.405 0.0
C241 C 0.61681 0.62663 0.49107 0.0
O242 O 0.57587 0.57234 0.43988 0.0
Co243 Co 0.65227 0.59755 0.45366 0.0
O244 O 0.60993 0.55587 0.4621 0.0
C245 C 0.65443 0.62242 0.38372 0.0
C246 C 0.60256 0.666 0.40727 0.0
C247 C 0.58116 0.54988 0.45323 0.0
O248 O 0.62596 0.61896 0.39006 0.0
O249 O 0.67129 0.61784 0.40694 0.0
O250 O 0.59145 0.62861 0.48066 0.0
O251 O 0.6359 0.62684 0.46659 0.0
H252 H 0.04816 0.75499 0.1426 0.0
H253 H 0.04492 0.66981 0.19048 0.0
H254 H 0.02483 0.72339 0.08946 0.0
H255 H 0.02068 0.63776 0.13695 0.0
H256 H 0.02226 0.61266 0.01848 0.0
H257 H 0.03747 0.63629 0.07689 0.0
H258 H 0.97422 0.67806 0.06576 0.0
H259 H 0.95961 0.65521 0.00684 0.0
C260 C 0.04246 0.72945 0.14187 0.0
C261 C 0.04877 0.71506 0.17081 0.0
C262 C 0.02863 0.71119 0.11143 0.0
C263 C 0.02059 0.67796 0.10906 0.0
C264 C 0.02678 0.6634 0.13794 0.0
C265 C 0.04069 0.68175 0.16858 0.0
C266 C 1.01117 0.62649 0.02859 0.0
C267 C 0.99018 0.63256 0.00764 0.0
C268 C 0.01979 0.63987 0.06224 0.0
C269 C 1.00748 0.65949 0.07574 0.0
C270 C 0.98472 0.66367 0.05574 0.0
C271 C 0.9762 0.65042 0.02202 0.0
H272 H 0.37753 0.49059 0.01402 0.0
H273 H 0.45575 0.46866 -0.00098 0.0
H274 H 0.37883 0.4824 0.07673 0.0
H275 H 0.45889 0.4628 0.06173 0.0
H276 H 0.39196 0.37936 0.14073 0.0
H277 H 0.41819 0.41445 0.09058 0.0
H278 H 0.40061 0.4895 0.13507 0.0
H279 H 0.37362 0.45337 0.18533 0.0
C280 C 0.39602 0.48554 0.02441 0.0
C281 C 0.41589 0.4793 0.00194 0.0
C282 C 0.39703 0.48111 0.06036 0.0
C283 C 0.41841 0.47103 0.07409 0.0
C284 C 0.44149 0.46957 0.0518 0.0
C285 C 0.43976 0.47298 0.0159 0.0
C286 C 0.39501 0.40392 0.14036 0.0
C287 C 0.38116 0.414 0.16652 0.0
C288 C 0.41018 0.42423 0.11172 0.0
C289 C 0.41136 0.45483 0.10869 0.0
C290 C 0.39982 0.46599 0.13654 0.0
C291 C 0.38462 0.44553 0.16529 0.0
H292 H 0.6142 0.91748 0.12401 0.0
H293 H 0.7146 0.9388 0.13717 0.0
H294 H 0.63078 0.95199 0.07191 0.0
H295 H 0.73185 0.97514 0.08684 0.0
H296 H 0.73993 1.00414 0.9706 0.0
H297 H 0.72992 0.97625 0.02648 0.0
H298 H 0.65927 1.00666 0.05294 0.0
H299 H 0.66787 0.03257 -0.00418 0.0
C300 C 0.63975 0.92943 0.11553 0.0
C301 C 0.66293 0.92501 0.13408 0.0
C302 C 0.64949 0.94975 0.08613 0.0
C303 C 0.68284 0.9668 0.0753 0.0
C304 C 0.70592 0.96208 0.09394 0.0
C305 C 0.69599 0.94109 0.12275 0.0
C306 C 0.72305 1.00569 0.98887 0.0
C307 C 0.70446 0.0202 0.97898 0.0
C308 C 0.71716 0.9896 0.02094 0.0
C309 C 0.69307 0.98838 0.04395 0.0
C310 C 0.67706 1.00598 0.03534 0.0
C311 C 0.68235 0.02134 0.00293 0.0
H312 H 0.71873 0.07322 0.44691 0.0
H313 H 0.7464 0.99803 0.44268 0.0
H314 H 0.67656 0.04341 0.40274 0.0
H315 H 0.7056 0.96923 0.39703 0.0
H316 H 0.62091 0.90837 0.33293 0.0
H317 H 0.64799 0.93636 0.38722 0.0
H318 H 0.66969 0.03008 0.34273 0.0
H319 H 0.64102 1.0017 0.28946 0.0
C320 C 0.71627 0.05063 0.4361 0.0
C321 C 0.73591 0.03793 0.44846 0.0
C322 C 0.69196 0.03348 0.41078 0.0
C323 C 0.68715 1.00354 0.39673 0.0
C324 C 0.70775 0.9916 0.40811 0.0
C325 C 0.73165 1.00844 0.43384 0.0
C326 C 0.63 0.93469 0.33557 0.0
C327 C 0.62926 0.95297 0.30699 0.0
C328 C 0.6461 0.95087 0.36635 0.0
C329 C 0.66232 0.98566 0.36874 0.0
C330 C 0.65775 1.00331 0.34179 0.0
C331 C 0.64103 0.98698 0.31124 0.0
H332 H 0.10444 0.74884 0.50842 0.0
H333 H 0.03963 0.7888 0.51721 0.0
H334 H 0.12041 0.77184 0.44971 0.0
H335 H 0.05413 0.81054 0.45805 0.0
H336 H 0.08006 0.84214 0.34733 0.0
H337 H 0.08943 0.84252 0.41028 0.0
H338 H 0.08501 0.7482 0.40019 0.0
H339 H 0.0766 0.74836 0.33778 0.0
C340 C 0.09481 0.76387 0.49824 0.0
C341 C 0.07107 0.76737 0.51699 0.0
C342 C 0.10354 0.77664 0.46453 0.0
C343 C 0.08784 0.79221 0.44886 0.0
C344 C 0.06681 0.79881 0.4693 0.0
C345 C 0.05848 0.78643 0.50322 0.0
C346 C 0.08154 0.82177 0.35866 0.0
C347 C 0.07719 0.795 0.33784 0.0
C348 C 0.08696 0.82201 0.39463 0.0
C349 C 0.08809 0.79548 0.4103 0.0
C350 C 0.08503 0.76943 0.38902 0.0
C351 C 0.07972 0.76925 0.35321 0.0
H352 H 0.28709 0.29732 0.5118 0.0
H353 H 0.34794 0.25381 0.49253 0.0
H354 H 0.29051 0.31131 0.44949 0.0
H355 H 0.3511 0.26742 0.43097 0.0
H356 H 0.39439 0.34459 0.34473 0.0
H357 H 0.38175 0.32399 0.40427 0.0
H358 H 0.27803 0.28811 0.38643 0.0
H359 H 0.29055 0.30899 0.32659 0.0
C360 C 0.30031 0.28991 0.49412 0.0
C361 C 0.31765 0.27497 0.50694 0.0
C362 C 0.30236 0.29798 0.4586 0.0
C363 C 0.32172 0.29109 0.43574 0.0
C364 C 0.33671 0.27373 0.44822 0.0
C365 C 0.33473 0.26581 0.48341 0.0
C366 C 0.36887 0.33232 0.35336 0.0
C367 C 0.34349 0.32825 0.33078 0.0
C368 C 0.36161 0.32036 0.38742 0.0
C369 C 0.32885 0.30416 0.39974 0.0
C370 C 0.30346 0.30053 0.37751 0.0
C371 C 0.31068 0.31232 0.34324 0.0
H372 H 0.99908 0.35466 0.83995 0.0
H373 H 0.05474 0.30431 0.82929 0.0
H374 H 0.9805 0.33043 0.89735 0.0
H375 H 0.03537 0.27941 0.88677 0.0
H376 H 0.02024 0.27417 0.00873 0.0
H377 H 0.0401 0.29368 0.94949 0.0
H378 H 0.94328 0.27612 0.92117 0.0
H379 H 0.92377 0.25749 0.98015 0.0
C380 C 1.00732 0.33835 0.84977 0.0
C381 C 0.02827 0.33131 0.82986 0.0
C382 C 0.99644 0.32425 0.88262 0.0
C383 C 1.00607 0.3026 0.89636 0.0
C384 C 0.02761 0.29607 0.87689 0.0
C385 C 0.03862 0.31029 0.84394 0.0
C386 C 1.00309 0.2739 0.98961 0.0
C387 C 0.97059 0.26471 -0.00082 0.0
C388 C 1.01446 0.28509 0.95572 0.0
C389 C 0.99342 0.28707 0.93092 0.0
C390 C 0.96034 0.27576 0.93998 0.0
C391 C 0.9491 0.26485 0.97373 0.0
H392 H 0.70806 0.76505 0.00777 0.0
H393 H 0.81315 0.81404 0.02644 0.0
H394 H 0.71817 0.7748 0.94521 0.0
H395 H 0.82342 0.82285 0.96359 0.0
H396 H 0.74575 0.72597 0.8574 0.0
H397 H 0.73904 0.73956 0.91688 0.0
H398 H 0.81606 0.84129 0.90101 0.0
H399 H 0.82281 0.82754 0.84047 0.0
C400 C 0.73335 0.77959 -0.00143 0.0
C401 C 0.75986 0.7888 0.02154 0.0
C402 C 0.73917 0.78485 0.96283 0.0
C403 C 0.77151 0.79864 0.94969 0.0
C404 C 0.79827 0.8121 0.97311 0.0
C405 C 0.79242 0.80723 0.00905 0.0
C406 C 0.76137 0.75124 0.86649 0.0
C407 C 0.78469 0.77571 0.84434 0.0
C408 C 0.75722 0.75915 0.90042 0.0
C409 C 0.77632 0.79173 0.91311 0.0
C410 C 0.80071 0.81611 0.89155 0.0
C411 C 0.80476 0.80817 0.85719 0.0
H412 H 0.39521 0.01661 0.0065 0.0
H413 H 0.30903 0.02566 0.0225 0.0
H414 H 0.3698 0.98254 0.9547 0.0
H415 H 0.28461 0.9945 0.96907 0.0
H416 H 0.24106 0.93537 0.87457 0.0
H417 H 0.26043 0.94843 0.93484 0.0
H418 H 0.36145 0.9906 0.89835 0.0
H419 H 0.34144 0.97466 0.83906 0.0
C420 C 0.37072 1.01116 -0.00129 0.0
C421 C 0.35399 0.02372 0.01796 0.0
C422 C 0.35622 0.99193 0.96889 0.0
C423 C 0.32528 0.9861 0.95697 0.0
C424 C 0.30813 0.99776 0.97741 0.0
C425 C 0.32218 0.01597 0.00791 0.0
C426 C 0.2673 0.94667 0.87989 0.0
C427 C 0.28988 0.95437 0.85249 0.0
C428 C 0.27852 0.95451 0.91431 0.0
C429 C 0.31267 0.97138 0.92175 0.0
C430 C 0.33497 0.97727 0.89416 0.0
C431 C 0.32359 0.96838 0.85995 0.0
H432 H 0.35984 0.94196 0.67967 0.0
H433 H 0.26598 0.93171 0.65062 0.0
H434 H 0.38075 0.96132 0.62069 0.0
H435 H 0.28657 0.95033 0.59194 0.0
H436 H 0.3469 0.02801 0.51089 0.0
H437 H 0.32659 1.00402 0.56816 0.0
H438 H 0.3752 0.94677 0.55807 0.0
H439 H 0.39624 0.97129 0.50089 0.0
C440 C 0.34345 0.94307 0.66052 0.0
C441 C 0.31142 0.93567 0.66991 0.0
C442 C 0.35542 0.9542 0.62678 0.0
C443 C 0.33549 0.95797 0.60193 0.0
C444 C 0.30281 0.94854 0.61079 0.0
C445 C 0.29095 0.93762 0.64437 0.0
C446 C 0.35339 1.01039 0.52081 0.0
C447 C 0.37311 1.00152 0.50115 0.0
C448 C 0.34152 0.99644 0.55357 0.0
C449 C 0.34897 0.97318 0.56743 0.0
C450 C 0.36917 0.96472 0.54814 0.0
C451 C 0.38112 0.97873 0.51532 0.0
H452 H 0.03853 0.37938 0.64564 0.0
H453 H 0.13905 0.45187 0.67266 0.0
H454 H 0.0446 0.40638 0.59012 0.0
H455 H 0.14505 0.48078 0.6177 0.0
H456 H 0.15838 0.4714 0.49807 0.0
H457 H 0.15285 0.46761 0.5613 0.0
H458 H 0.05235 0.4479 0.55224 0.0
H459 H 0.05739 0.44903 0.48892 0.0
C460 C 0.06142 0.4021 0.64026 0.0
C461 C 0.08833 0.41367 0.66302 0.0
C462 C 0.06502 0.41785 0.60841 0.0
C463 C 0.09559 0.44567 0.59902 0.0
C464 C 0.12146 0.459 0.62365 0.0
C465 C 0.11799 0.44275 0.65521 0.0
C466 C 0.13543 0.46699 0.5098 0.0
C467 C 0.10807 0.4597 0.48892 0.0
C468 C 0.13224 0.46509 0.54611 0.0
C469 C 0.10179 0.45665 0.56202 0.0
C470 C 0.07575 0.45329 0.5409 0.0
C471 C 0.07865 0.45413 0.50463 0.0
H472 H 0.67631 0.64183 0.51808 0.0
H473 H 0.57703 0.6157 0.54757 0.0
H474 H 0.69348 0.65317 0.57864 0.0
H475 H 0.59358 0.62508 0.60894 0.0
H476 H 0.64935 0.69741 0.70048 0.0
H477 H 0.62393 0.67099 0.64497 0.0
H478 H 0.69331 0.63601 0.63509 0.0
H479 H 0.71996 0.66474 0.68937 0.0
C480 C 0.65793 0.63766 0.53774 0.0
C481 C 0.6255 0.62837 0.5282 0.0
C482 C 0.66767 0.64387 0.57265 0.0
C483 C 0.64499 0.64028 0.5989 0.0
C484 C 0.61191 0.62886 0.5894 0.0
C485 C 0.60234 0.62327 0.55431 0.0
C486 C 0.65859 0.68352 0.68652 0.0
C487 C 0.68647 0.68303 0.69863 0.0
C488 C 0.64398 0.66816 0.65486 0.0
C489 C 0.65677 0.6516 0.63517 0.0
C490 C 0.68334 0.64925 0.64897 0.0
C491 C 0.69841 0.66534 0.68015 0.0
H492 H 0.40077 0.34791 0.87409 0.0
H493 H 0.37937 0.41393 0.81595 0.0
H494 H 0.38157 0.30928 0.82475 0.0
H495 H 0.36105 0.37588 0.76671 0.0
H496 H 0.32069 0.30153 0.68341 0.0
H497 H 0.32101 0.32172 0.74264 0.0
H498 H 0.4062 0.31306 0.76783 0.0
H499 H 0.40539 0.29238 0.70935 0.0
C500 C 0.39188 0.35414 0.8509 0.0
C501 C 0.39235 0.38437 0.84863 0.0
C502 C 0.38079 0.33197 0.82272 0.0
C503 C 0.3699 0.33957 0.79182 0.0
C504 C 0.36887 0.36904 0.79028 0.0
C505 C 0.37994 0.39116 0.81836 0.0
C506 C 0.33881 0.30303 0.70202 0.0
C507 C 0.36347 0.29615 0.6917 0.0
C508 C 0.33911 0.31473 0.7358 0.0
C509 C 0.36401 0.31957 0.75965 0.0
C510 C 0.38661 0.30954 0.7502 0.0
C511 C 0.38633 0.29794 0.71653 0.0
H512 H 0.79364 0.07593 0.64424 0.0
H513 H 0.69209 0.01407 0.61229 0.0
H514 H 0.77785 0.05932 0.70502 0.0
H515 H 0.67552 0.99929 0.67232 0.0
H516 H 0.73009 0.07858 0.8011 0.0
H517 H 0.75321 0.07746 0.74442 0.0
H518 H 0.67083 0.97809 0.72642 0.0
H519 H 0.64661 0.9809 0.78153 0.0
C520 C 0.76815 0.05779 0.65028 0.0
C521 C 0.74393 0.04609 0.62419 0.0
C522 C 0.75892 0.04872 0.68502 0.0
C523 C 0.72522 0.02886 0.69393 0.0
C524 C 0.7017 0.01446 0.66689 0.0
C525 C 0.71109 0.02292 0.63229 0.0
C526 C 0.71695 0.05677 0.78465 0.0
C527 C 0.68616 0.03039 0.79482 0.0
C528 C 0.73045 0.0557 0.75247 0.0
C529 C 0.71383 0.02769 0.73044 0.0
C530 C 0.68387 1.0005 0.74197 0.0
C531 C 0.66988 1.00212 0.7735 0.0
H532 H 0.95607 0.6227 0.83742 0.0
H533 H 0.98592 0.55442 0.79985 0.0
H534 H 0.95526 0.63982 0.77716 0.0
H535 H 0.98407 0.57076 0.73994 0.0
H536 H 0.95129 0.58938 0.6354 0.0
H537 H 0.94102 0.57026 0.69578 0.0
H538 H 1.00595 0.67045 0.73194 0.0
H539 H 1.01664 0.68976 0.67129 0.0
C540 C 0.96187 0.61096 0.81633 0.0
C541 C 0.97157 0.58763 0.82325 0.0
C542 C 0.96147 0.62081 0.78199 0.0
C543 C 0.96977 0.60667 0.75419 0.0
C544 C 0.97743 0.58188 0.76101 0.0
C545 C 0.97855 0.57261 0.79525 0.0
C546 C 0.96314 0.60741 0.65622 0.0
C547 C 0.98504 0.64099 0.64876 0.0
C548 C 0.9572 0.59644 0.69067 0.0
C549 C 0.97268 0.61894 0.71825 0.0
C550 C 0.99351 0.65276 0.71097 0.0
C551 C 0.99983 0.6637 0.67639 0.0
H552 H 0.63419 0.65036 0.33498 0.0
H553 H 0.70625 0.62014 0.35265 0.0
H554 H 0.65653 0.66935 0.27696 0.0
H555 H 0.72878 0.63947 0.29398 0.0
H556 H 0.72012 0.63519 0.17043 0.0
H557 H 0.70744 0.62166 0.23213 0.0
H558 H 0.70839 0.71357 0.24868 0.0
H559 H 0.72093 0.72709 0.18686 0.0
C560 C 0.65477 0.64765 0.32646 0.0
C561 C 0.66824 0.63338 0.34832 0.0
C562 C 0.66782 0.65895 0.29333 0.0
C563 C 0.69451 0.65608 0.2811 0.0
C564 C 0.70812 0.64188 0.30284 0.0
C565 C 0.69526 0.63085 0.33633 0.0
C566 C 0.71807 0.65271 0.18735 0.0
C567 C 0.72108 0.68199 0.17384 0.0
C568 C 0.71103 0.64505 0.22269 0.0
C569 C 0.70669 0.66644 0.24504 0.0
C570 C 0.71124 0.69647 0.23185 0.0
C571 C 0.71851 0.70425 0.19655 0.0
H572 H 0.49645 0.1603 0.1676 0.0
H573 H 0.39159 0.08972 0.1733 0.0
H574 H 0.49899 0.16355 0.23149 0.0
H575 H 0.39411 0.09265 0.23645 0.0
H576 H 0.48894 0.08551 0.31725 0.0
H577 H 0.49347 0.11616 0.26482 0.0
H578 H 0.40611 0.11942 0.29478 0.0
H579 H 0.40165 0.08829 0.34797 0.0
C580 C 0.47384 0.14624 0.18245 0.0
C581 C 0.44406 0.12392 0.16574 0.0
C582 C 0.47525 0.14823 0.21892 0.0
C583 C 0.44686 0.12796 0.23893 0.0
C584 C 0.4164 0.10871 0.22187 0.0
C585 C 0.41505 0.1066 0.18559 0.0
C586 C 0.47116 0.09349 0.31309 0.0
C587 C 0.44441 0.08385 0.3359 0.0
C588 C 0.47407 0.11158 0.2833 0.0
C589 C 0.44995 0.11995 0.27551 0.0
C590 C 0.42491 0.11306 0.30013 0.0
C591 C 0.42226 0.09521 0.33038 0.0
H592 H 0.0676 0.39009 0.30327 0.0
H593 H 0.97946 0.33295 0.36555 0.0
H594 H 0.04124 0.35262 0.25435 0.0
H595 H 0.95332 0.29491 0.31651 0.0
H596 H 0.90889 0.28556 0.20371 0.0
H597 H 0.9329 0.30365 0.26143 0.0
H598 H 1.01778 0.29673 0.22952 0.0
H599 H 0.99379 0.27908 0.17113 0.0
C600 C 0.04271 0.36932 0.30668 0.0
C601 C 0.02532 0.365 0.33804 0.0
C602 C 0.02779 0.34751 0.27876 0.0
C603 C 0.99516 0.32086 0.28157 0.0
C604 C 0.97839 0.31545 0.31353 0.0
C605 C 0.99334 0.3373 0.34154 0.0
C606 C 0.93231 0.28712 0.20925 0.0
C607 C 0.9499 0.28173 0.18283 0.0
C608 C 0.94595 0.29721 0.24246 0.0
C609 C 0.97748 0.30212 0.24981 0.0
C610 C 0.99367 0.29367 0.22431 0.0
C611 C 0.97991 0.28345 0.19101 0.0
H612 H 0.33295 0.99874 0.30283 0.0
H613 H 0.32928 0.92165 0.36737 0.0
H614 H 0.2818 0.9586 0.27402 0.0
H615 H 0.27758 0.88102 0.33833 0.0
H616 H 0.19538 0.81118 0.26468 0.0
H617 H 0.25061 0.85154 0.28483 0.0
H618 H 0.22304 0.92669 0.28747 0.0
H619 H 0.16716 0.8858 0.26713 0.0
C620 C 0.32153 0.97297 0.31046 0.0
C621 C 0.3355 0.96356 0.33754 0.0
C622 C 0.29183 0.94995 0.29411 0.0
C623 C 0.2749 0.91648 0.30405 0.0
C624 C 0.28982 0.90654 0.32974 0.0
C625 C 0.31971 0.92978 0.3463 0.0
C626 C 0.20111 0.83646 0.26897 0.0
C627 C 0.17651 0.84507 0.26417 0.0
C628 C 0.23289 0.85961 0.28096 0.0
C629 C 0.24151 0.89244 0.28848 0.0
C630 C 0.21753 0.90168 0.28188 0.0
C631 C 0.18543 0.8783 0.26992 0.0
H632 H 0.24958 0.33426 0.30909 0.0
H633 H 0.24616 0.37829 0.21188 0.0
H634 H 0.21556 0.35378 0.33674 0.0
H635 H 0.21097 0.39706 0.23886 0.0
H636 H 0.18343 0.46046 0.30953 0.0
H637 H 0.21337 0.43742 0.2787 0.0
H638 H 0.16416 0.34956 0.34261 0.0
H639 H 0.13572 0.37294 0.37383 0.0
C640 C 0.24023 0.34688 0.29325 0.0
C641 C 0.24954 0.35375 0.25806 0.0
C642 C 0.22085 0.35838 0.30911 0.0
C643 C 0.21032 0.37727 0.29023 0.0
C644 C 0.21883 0.38309 0.25454 0.0
C645 C 0.23842 0.37172 0.23878 0.0
C646 C 0.1792 0.43631 0.31699 0.0
C647 C 0.15741 0.41885 0.34449 0.0
C648 C 0.19614 0.42286 0.29911 0.0
C649 C 0.1915 0.39148 0.3081 0.0
C650 C 0.16918 0.37399 0.33523 0.0
C651 C 0.15263 0.38748 0.35315 0.0
H652 H 0.69513 0.85801 0.30329 0.0
H653 H 0.59559 0.80803 0.2624 0.0
H654 H 0.68121 0.80935 0.33906 0.0
H655 H 0.58133 0.76034 0.29868 0.0
H656 H 0.57339 0.66573 0.34435 0.0
H657 H 0.58648 0.71374 0.30784 0.0
H658 H 0.6519 0.7791 0.38838 0.0
H659 H 0.63966 0.73129 0.42385 0.0
C660 C 0.67031 0.83675 0.30197 0.0
C661 C 0.64664 0.8371 0.27977 0.0
C662 C 0.66212 0.8088 0.32272 0.0
C663 C 0.62994 0.78049 0.32207 0.0
C664 C 0.60646 0.78108 0.29972 0.0
C665 C 0.61468 0.80877 0.27893 0.0
C666 C 0.59005 0.6904 0.35443 0.0
C667 C 0.6053 0.69456 0.38712 0.0
C668 C 0.59776 0.71809 0.33345 0.0
C669 C 0.62072 0.75072 0.34474 0.0
C670 C 0.63486 0.75464 0.3781 0.0
C671 C 0.62743 0.72708 0.39877 0.0
H672 H 0.70107 0.0441 0.20174 0.0
H673 H 0.76047 0.99905 0.18336 0.0
H674 H 0.74449 0.09614 0.17891 0.0
H675 H 0.80557 0.05242 0.16197 0.0
H676 H 0.86541 0.1394 0.08933 0.0
H677 H 0.82161 0.08769 0.11395 0.0
H678 H 0.79491 0.1437 0.18339 0.0
H679 H 0.83784 0.19525 0.15711 0.0
C680 C 0.72397 0.04559 0.19364 0.0
C681 C 0.72715 0.01719 0.19443 0.0
C682 C 0.74916 0.07578 0.18057 0.0
C683 C 0.77885 0.079 0.168 0.0
C684 C 0.78287 0.051 0.17058 0.0
C685 C 0.75729 0.02043 0.18356 0.0
C686 C 0.84939 0.1405 0.10911 0.0
C687 C 0.85453 0.1714 0.12062 0.0
C688 C 0.82467 0.1108 0.12388 0.0
C689 C 0.80465 0.11098 0.1513 0.0
C690 C 0.80928 0.14207 0.16211 0.0
C691 C 0.83376 0.17183 0.14684 0.0
H692 H 0.82364 0.69123 0.12488 0.0
H693 H 0.86341 0.79336 0.09601 0.0
H694 H 0.87841 0.70448 0.14607 0.0
H695 H 0.91779 0.80694 0.11756 0.0
H696 H 1.01854 0.81964 0.1507 0.0
H697 H 0.9679 0.80384 0.11697 0.0
H698 H 0.90957 0.7333 0.19688 0.0
H699 H 0.95932 0.74864 0.2298 0.0
C700 C 0.84436 0.7162 0.12173 0.0
C701 C 0.83923 0.7411 0.10828 0.0
C702 C 0.87572 0.72407 0.13452 0.0
C703 C 0.90273 0.75706 0.13426 0.0
C704 C 0.89797 0.78131 0.1182 0.0
C705 C 0.86669 0.77347 0.10564 0.0
C706 C 0.99484 0.80099 0.16109 0.0
C707 C 0.99325 0.78559 0.19312 0.0
C708 C 0.96574 0.79174 0.14169 0.0
C709 C 0.93435 0.76672 0.15373 0.0
C710 C 0.93305 0.75188 0.186 0.0
C711 C 0.96183 0.76111 0.20523 0.0
H712 H 0.40602 0.3287 0.13834 0.0
H713 H 0.31731 0.25039 0.18574 0.0
H714 H 0.41403 0.28809 0.10674 0.0
H715 H 0.32559 0.20924 0.15431 0.0
H716 H 0.33806 0.14034 0.08177 0.0
H717 H 0.32707 0.18382 0.10028 0.0
H718 H 0.43158 0.24933 0.1186 0.0
H719 H 0.44239 0.20563 0.09939 0.0
C720 C 0.38788 0.30268 0.14173 0.0
C721 C 0.36101 0.29292 0.16484 0.0
C722 C 0.39271 0.27929 0.12372 0.0
C723 C 0.3709 0.24514 0.12816 0.0
C724 C 0.34294 0.23528 0.14988 0.0
C725 C 0.33801 0.25887 0.16793 0.0
C726 C 0.35885 0.16449 0.08849 0.0
C727 C 0.39121 0.16963 0.08849 0.0
C728 C 0.35246 0.18929 0.09979 0.0
C729 C 0.37823 0.22013 0.1117 0.0
C730 C 0.41096 0.22607 0.10946 0.0
C731 C 0.41735 0.20112 0.09803 0.0
H732 H 0.83409 0.18551 0.57975 0.0
H733 H 0.88432 0.12943 0.57838 0.0
H734 H 0.88249 0.23141 0.60887 0.0
H735 H 0.93176 0.17457 0.607 0.0
H736 H 0.99659 0.24843 0.69483 0.0
H737 H 0.95034 0.20278 0.66282 0.0
H738 H 0.94027 0.27371 0.60029 0.0
H739 H 0.98593 0.31875 0.63203 0.0
C740 C 0.85536 0.18298 0.5852 0.0
C741 C 0.85481 0.15343 0.5765 0.0
C742 C 0.88323 0.20931 0.60199 0.0
C743 C 0.91121 0.20676 0.61074 0.0
C744 C 0.9107 0.17745 0.60147 0.0
C745 C 0.88323 0.15147 0.58463 0.0
C746 C 0.98508 0.25418 0.67362 0.0
C747 C 0.99519 0.28735 0.66607 0.0
C748 C 0.95829 0.22802 0.65538 0.0
C749 C 0.94091 0.23439 0.62919 0.0
C750 C 0.95222 0.26761 0.62073 0.0
C751 C 0.97884 0.29352 0.63875 0.0
H752 H 0.94715 0.74558 0.56383 0.0
H753 H 0.90726 0.66025 0.63072 0.0
H754 H 0.90624 0.75906 0.58608 0.0
H755 H 0.86734 0.6739 0.65408 0.0
H756 H 0.78994 0.69534 0.68755 0.0
H757 H 0.8211 0.67877 0.65026 0.0
H758 H 0.89583 0.78179 0.63634 0.0
H759 H 0.86308 0.79826 0.67248 0.0
C760 C 0.92863 0.72888 0.5822 0.0
C761 C 0.92962 0.70113 0.59457 0.0
C762 C 0.90562 0.73703 0.59567 0.0
C763 C 0.88329 0.71789 0.62232 0.0
C764 C 0.88339 0.68912 0.63321 0.0
C765 C 0.9062 0.68096 0.61959 0.0
C766 C 0.81281 0.71452 0.67606 0.0
C767 C 0.82413 0.74813 0.68319 0.0
C768 C 0.83096 0.70498 0.65482 0.0
C769 C 0.86166 0.72871 0.64059 0.0
C770 C 0.8723 0.76259 0.64645 0.0
C771 C 0.85359 0.77218 0.66729 0.0
H772 H 0.23862 1.00217 0.67554 0.0
H773 H 0.31877 0.05722 0.74799 0.0
H774 H 0.25599 0.05304 0.6423 0.0
H775 H 0.33532 0.10794 0.71614 0.0
H776 H 0.37534 0.19447 0.64264 0.0
H777 H 0.36066 0.1402 0.66691 0.0
H778 H 0.25802 0.10332 0.64111 0.0
H779 H 0.27293 0.15627 0.61576 0.0
C780 C 0.25952 0.0252 0.68476 0.0
C781 C 0.27709 0.02549 0.71458 0.0
C782 C 0.26969 0.05455 0.66565 0.0
C783 C 0.29749 0.0851 0.67608 0.0
C784 C 0.31447 0.08516 0.70639 0.0
C785 C 0.30459 0.05593 0.72509 0.0
C786 C 0.34988 0.17438 0.64121 0.0
C787 C 0.3254 0.17994 0.6273 0.0
C788 C 0.34121 0.1433 0.65573 0.0
C789 C 0.30783 0.11701 0.65676 0.0
C790 C 0.28392 0.12232 0.64085 0.0
C791 C 0.29256 0.15307 0.62635 0.0
H792 H 0.20966 0.85472 0.85364 0.0
H793 H 0.1779 0.82702 0.74705 0.0
H794 H 0.16634 0.80047 0.87361 0.0
H795 H 0.13527 0.77188 0.76645 0.0
H796 H 0.04227 0.68637 0.81582 0.0
H797 H 0.08562 0.73898 0.79387 0.0
H798 H 0.1496 0.74441 0.87806 0.0
H799 H 0.10474 0.69178 0.90122 0.0
C800 C 0.19285 0.83707 0.8345 0.0
C801 C 0.19667 0.84548 0.79885 0.0
C802 C 0.16836 0.80556 0.84587 0.0
C803 C 0.14718 0.78102 0.82185 0.0
C804 C 0.15057 0.78988 0.78608 0.0
C805 C 0.17489 0.8217 0.77478 0.0
C806 C 0.06579 0.69848 0.82948 0.0
C807 C 0.06984 0.68471 0.86049 0.0
C808 C 0.09093 0.72888 0.81668 0.0
C809 C 0.12143 0.74678 0.83417 0.0
C810 C 0.12629 0.73202 0.86413 0.0
C811 C 0.1008 0.7014 0.87717 0.0
H812 H 0.1608 0.33016 0.7786 0.0
H813 H 0.18218 0.43094 0.76788 0.0
H814 H 0.21585 0.35103 0.8049 0.0
H815 H 0.23624 0.45148 0.79389 0.0
H816 H 0.34349 0.48195 0.81863 0.0
H817 H 0.29109 0.45914 0.78634 0.0
H818 H 0.24503 0.37791 0.85912 0.0
H819 H 0.29683 0.40034 0.8909 0.0
C820 C 0.1772 0.35665 0.78157 0.0
C821 C 0.16677 0.37872 0.77128 0.0
C822 C 0.20874 0.3687 0.79681 0.0
C823 C 0.23077 0.40312 0.80163 0.0
C824 C 0.22044 0.42496 0.79035 0.0
C825 C 0.18907 0.413 0.77564 0.0
C826 C 0.32215 0.45932 0.82775 0.0
C827 C 0.32456 0.44331 0.85763 0.0
C828 C 0.29202 0.44613 0.80924 0.0
C829 C 0.26357 0.41643 0.81993 0.0
C830 C 0.26628 0.40041 0.8496 0.0
C831 C 0.29613 0.41364 0.86813 0.0
H832 H 0.71776 0.82699 0.73669 0.0
H833 H 0.73857 0.82338 0.84574 0.0
H834 H 0.69842 0.8657 0.75084 0.0
H835 H 0.72022 0.86224 0.85991 0.0
H836 H 0.66117 0.91064 0.88524 0.0
H837 H 0.6726 0.8672 0.86611 0.0
H838 H 0.71322 0.91971 0.76945 0.0
H839 H 0.70113 0.96203 0.78825 0.0
C840 C 0.71913 0.83523 0.76348 0.0
C841 C 0.73 0.82231 0.78999 0.0
C842 C 0.70771 0.85719 0.77179 0.0
C843 C 0.70694 0.86681 0.8068 0.0
C844 C 0.71927 0.85483 0.83287 0.0
C845 C 0.73043 0.83293 0.82463 0.0
C846 C 0.67121 0.91206 0.85935 0.0
C847 C 0.67974 0.93964 0.83813 0.0
C848 C 0.6785 0.88753 0.84856 0.0
C849 C 0.69455 0.89002 0.81631 0.0
C850 C 0.70076 0.91646 0.79423 0.0
C851 C 0.69359 0.94082 0.80502 0.0
H852 H 0.43654 0.39566 0.58298 0.0
H853 H 0.45952 0.33791 0.51229 0.0
H854 H 0.47172 0.44535 0.55 0.0
H855 H 0.49485 0.38827 0.4783 0.0
H856 H 0.58415 0.49336 0.45326 0.0
H857 H 0.54535 0.4401 0.47867 0.0
H858 H 0.47661 0.47431 0.49757 0.0
H859 H 0.51637 0.52847 0.47283 0.0
C860 C 0.44919 0.3935 0.56026 0.0
C861 C 0.4451 0.36252 0.55046 0.0
C862 C 0.46918 0.42219 0.54095 0.0
C863 C 0.48591 0.42118 0.51086 0.0
C864 C 0.4825 0.39028 0.50133 0.0
C865 C 0.46235 0.36131 0.52089 0.0
C866 C 0.56049 0.48943 0.46224 0.0
C867 C 0.55358 0.51549 0.46108 0.0
C868 C 0.53805 0.4586 0.47678 0.0
C869 C 0.50779 0.45262 0.49086 0.0
C870 C 0.49993 0.47803 0.48774 0.0
C871 C 0.5225 0.50904 0.47301 0.0
H872 H 0.65532 0.02349 0.48826 0.0
H873 H 0.67366 0.12068 0.51687 0.0
H874 H 0.60151 1.00896 0.46507 0.0
H875 H 0.6186 0.10563 0.4954 0.0
H876 H 0.53099 0.08231 0.42753 0.0
H877 H 0.58518 0.09613 0.44807 0.0
H878 H 0.54707 0.99361 0.47603 0.0
H879 H 0.49247 0.97953 0.45332 0.0
C880 C 0.64771 0.04181 0.48982 0.0
C881 C 0.66898 0.07338 0.50445 0.0
C882 C 0.61645 0.03327 0.47674 0.0
C883 C 0.60493 0.05578 0.47834 0.0
C884 C 0.62641 0.08756 0.49293 0.0
C885 C 0.65812 0.09634 0.50546 0.0
C886 C 0.53403 0.06253 0.43798 0.0
C887 C 0.50712 0.02973 0.43887 0.0
C888 C 0.56536 0.07063 0.4502 0.0
C889 C 0.57106 0.04634 0.46447 0.0
C890 C 0.54413 1.01321 0.46498 0.0
C891 C 0.51262 1.00497 0.45206 0.0
H892 H 0.02661 0.50132 0.37492 0.0
H893 H 0.11106 0.54144 0.44336 0.0
H894 H 1.01497 0.54439 0.39362 0.0
H895 H 0.09878 0.5833 0.46389 0.0
H896 H 0.07597 0.66035 0.49715 0.0
H897 H 0.09389 0.62919 0.46146 0.0
H898 H 0.99155 0.55616 0.44032 0.0
H899 H 0.97403 0.589 0.47438 0.0
C900 C 0.04352 0.5203 0.39294 0.0
C901 C 0.07035 0.51858 0.40685 0.0
C902 C 0.03637 0.54459 0.40446 0.0
C903 C 0.05536 0.56737 0.43102 0.0
C904 C 0.08359 0.56684 0.44314 0.0
C905 C 0.091 0.54289 0.43111 0.0
C906 C 0.05732 0.63794 0.48424 0.0
C907 C 0.02355 0.62713 0.48868 0.0
C908 C 0.0676 0.61972 0.46398 0.0
C909 C 0.0444 0.58944 0.4482 0.0
C910 C 1.01048 0.5794 0.45148 0.0
C911 C 1.00023 0.59818 0.47117 0.0
H912 H 0.54007 0.50861 0.90987 0.0
H913 H 0.49565 0.56681 0.93748 0.0
H914 H 0.59255 0.55085 0.93417 0.0
H915 H 0.54889 0.61031 0.96075 0.0
H916 H 0.62663 0.65041 0.04828 0.0
H917 H 0.57911 0.61701 0.01151 0.0
H918 H 0.64129 0.60222 0.93885 0.0
H919 H 0.68924 0.63525 0.9769 0.0
C920 C 0.54195 0.53127 0.91973 0.0
C921 C 0.51351 0.53425 0.92152 0.0
C922 C 0.57227 0.55566 0.9339 0.0
C923 C 0.57532 0.58405 0.9504 0.0
C924 C 0.54757 0.58848 0.94922 0.0
C925 C 0.51705 0.56386 0.93507 0.0
C926 C 0.63042 0.64018 0.02442 0.0
C927 C 0.66203 0.64551 0.01587 0.0
C928 C 0.60293 0.62117 0.00289 0.0
C929 C 0.60583 0.60677 0.97167 0.0
C930 C 0.63765 0.61246 0.96275 0.0
C931 C 0.66533 0.63151 0.98457 0.0
H932 H 0.55603 0.98207 0.94454 0.0
H933 H 0.61891 0.0823 0.90851 0.0
H934 H 0.52071 0.99946 0.97427 0.0
H935 H 0.58455 0.09968 0.93843 0.0
H936 H 0.5021 0.11833 0.97432 0.0
H937 H 0.53328 0.09853 0.94042 0.0
H938 H 0.52057 0.03099 0.02356 0.0
H939 H 0.48919 0.05016 0.05673 0.0
C940 C 0.56225 1.00769 0.94277 0.0
C941 C 0.59045 0.03066 0.9241 0.0
C942 C 0.54215 0.01784 0.96005 0.0
C943 C 0.54962 0.05119 0.959 0.0
C944 C 0.57746 0.07379 0.93964 0.0
C945 C 0.59746 0.06373 0.92259 0.0
C946 C 0.5061 0.09937 0.98536 0.0
C947 C 0.49312 0.08607 0.01841 0.0
C948 C 0.52405 0.08794 0.96594 0.0
C949 C 0.52951 0.06285 0.97899 0.0
C950 C 0.51652 0.04976 0.0121 0.0
C951 C 0.49869 0.06113 0.03139 0.0
H952 H 0.03157 0.52994 0.98824 0.0
H953 H 0.94003 0.48025 0.93039 0.0
H954 H 1.0157 0.47823 0.01911 0.0
H955 H 0.92486 0.42854 0.95941 0.0
H956 H 0.88975 0.34468 0.0382 0.0
H957 H 0.90542 0.39733 0.00948 0.0
H958 H 1.00855 0.42584 0.01715 0.0
H959 H 0.99294 0.37456 0.04704 0.0
C960 C 1.00836 0.50786 0.98168 0.0
C961 C 0.98713 0.50935 0.95687 0.0
C962 C 0.99913 0.478 -0.00068 0.0
C963 C 0.96864 0.44867 -0.0078 0.0
C964 C 0.94801 0.45035 0.96663 0.0
C965 C 0.95696 0.48015 0.94957 0.0
C966 C 0.9157 0.36229 0.03375 0.0
C967 C 0.93995 0.35526 0.04515 0.0
C968 C 0.92486 0.39257 0.01704 0.0
C969 C 0.95852 0.41645 0.01076 0.0
C970 C 0.98252 0.40893 0.02197 0.0
C971 C 0.97343 0.37908 0.039 0.0
loop_
_geom_bond_atom_site_label_1
_geom_bond_atom_site_label_2
_geom_bond_distance
_geom_bond_site_symmetry_2
_ccdc_geom_bond_type
Co0 O1 2.216 1_455 S
Co0 O2 2.091 1_455 S
Co0 O4 2.004 . S
Co0 O10 2.021 . S
Co0 O12 2.137 1_455 S
Co0 O13 2.244 . S
O1 Co0 2.216 1_655 S
O1 C8 1.247 . S
O2 Co0 2.091 1_655 S
O2 C8 1.261 . S
C3 O12 1.247 . S
C3 O13 1.272 1_655 S
O4 Co0 2.004 . S
O4 C9 1.259 . S
Co5 O6 2.061 . S
Co5 O11 2.052 . S
Co5 O13 2.135 . S
O6 Co5 2.061 . S
O6 C9 1.235 . S
C7 O10 1.238 . S
C7 O11 1.241 . S
C8 O1 1.247 . S
C8 O2 1.261 . S
C9 O4 1.259 . S
C9 O6 1.235 . S
O10 Co0 2.021 . S
O10 C7 1.238 . S
O11 Co5 2.052 . S
O11 C7 1.241 . S
O12 Co0 2.137 1_655 S
O12 C3 1.247 . S
O13 Co0 2.244 . S
O13 C3 1.272 1_455 S
O13 Co5 2.135 . S
Co14 O15 2.216 . S
Co14 O16 2.091 . S
Co14 O18 2.004 . S
Co14 O24 2.021 . S
Co14 O26 2.137 . S
Co14 O27 2.244 . S
O15 Co14 2.216 . S
O15 C22 1.247 . S
O16 Co14 2.091 . S
O16 C22 1.261 . S
C17 O26 1.247 . S
C17 O27 1.272 . S
O18 Co14 2.004 . S
O18 C23 1.259 . S
Co19 O20 2.061 . S
Co19 O25 2.052 . S
Co19 O27 2.135 . S
O20 Co19 2.061 . S
O20 C23 1.235 . S
C21 O24 1.238 . S
C21 O25 1.241 . S
C22 O15 1.247 . S
C22 O16 1.261 . S
C23 O18 1.259 . S
C23 O20 1.235 . S
O24 Co14 2.021 . S
O24 C21 1.238 . S
O25 Co19 2.052 . S
O25 C21 1.241 . S
O26 Co14 2.137 . S
O26 C17 1.247 . S
O27 Co14 2.244 . S
O27 C17 1.272 . S
O27 Co19 2.135 . S
Co28 O29 2.216 1_545 S
Co28 O30 2.091 1_545 S
Co28 O32 2.004 . S
Co28 O38 2.021 . S
Co28 O40 2.137 1_545 S
Co28 O41 2.244 . S
O29 Co28 2.216 1_565 S
O29 C36 1.247 . S
O30 Co28 2.091 1_565 S
O30 C36 1.261 . S
C31 O40 1.247 . S
C31 O41 1.272 1_565 S
O32 Co28 2.004 . S
O32 C37 1.259 . S
Co33 O34 2.061 . S
Co33 O39 2.052 . S
Co33 O41 2.135 . S
O34 Co33 2.061 . S
O34 C37 1.235 . S
C35 O38 1.238 . S
C35 O39 1.241 . S
C36 O29 1.247 . S
C36 O30 1.261 . S
C37 O32 1.259 . S
C37 O34 1.235 . S
O38 Co28 2.021 . S
O38 C35 1.238 . S
O39 Co33 2.052 . S
O39 C35 1.241 . S
O40 Co28 2.137 1_565 S
O40 C31 1.247 . S
O41 Co28 2.244 . S
O41 C31 1.272 1_545 S
O41 Co33 2.135 . S
Co42 O43 2.216 . S
Co42 O44 2.091 . S
Co42 O46 2.004 1_455 S
Co42 O52 2.021 1_455 S
Co42 O54 2.137 . S
Co42 O55 2.244 . S
O43 Co42 2.216 . S
O43 C50 1.247 . S
O44 Co42 2.091 . S
O44 C50 1.261 . S
C45 O54 1.247 . S
C45 O55 1.272 . S
O46 Co42 2.004 1_655 S
O46 C51 1.259 . S
Co47 O48 2.061 . S
Co47 O53 2.052 . S
Co47 O55 2.135 1_655 S
O48 Co47 2.061 . S
O48 C51 1.235 . S
C49 O52 1.238 . S
C49 O53 1.241 . S
C50 O43 1.247 . S
C50 O44 1.261 . S
C51 O46 1.259 . S
C51 O48 1.235 . S
O52 Co42 2.021 1_655 S
O52 C49 1.238 . S
O53 Co47 2.052 . S
O53 C49 1.241 . S
O54 Co42 2.137 . S
O54 C45 1.247 . S
O55 Co42 2.244 . S
O55 C45 1.272 . S
O55 Co47 2.135 1_455 S
Co56 O57 2.216 . S
Co56 O58 2.091 . S
Co56 O60 2.004 . S
Co56 O66 2.021 . S
Co56 O68 2.137 . S
Co56 O69 2.244 . S
O57 Co56 2.216 . S
O57 C64 1.247 . S
O58 Co56 2.091 . S
O58 C64 1.261 . S
C59 O68 1.247 . S
C59 O69 1.272 . S
O60 Co56 2.004 . S
O60 C65 1.259 . S
Co61 O62 2.061 . S
Co61 O67 2.052 . S
Co61 O69 2.135 . S
O62 Co61 2.061 . S
O62 C65 1.235 . S
C63 O66 1.238 . S
C63 O67 1.241 . S
C64 O57 1.247 . S
C64 O58 1.261 . S
C65 O60 1.259 . S
C65 O62 1.235 . S
O66 Co56 2.021 . S
O66 C63 1.238 . S
O67 Co61 2.052 . S
O67 C63 1.241 . S
O68 Co56 2.137 . S
O68 C59 1.247 . S
O69 Co56 2.244 . S
O69 C59 1.272 . S
O69 Co61 2.135 . S
Co70 O71 2.216 . S
Co70 O72 2.091 . S
Co70 O74 2.004 1_545 S
Co70 O80 2.021 1_545 S
Co70 O82 2.137 . S
Co70 O83 2.244 . S
O71 Co70 2.216 . S
O71 C78 1.247 . S
O72 Co70 2.091 . S
O72 C78 1.261 . S
C73 O82 1.247 . S
C73 O83 1.272 . S
O74 Co70 2.004 1_565 S
O74 C79 1.259 . S
Co75 O76 2.061 . S
Co75 O81 2.052 . S
Co75 O83 2.135 1_565 S
O76 Co75 2.061 . S
O76 C79 1.235 . S
C77 O80 1.238 . S
C77 O81 1.241 . S
C78 O71 1.247 . S
C78 O72 1.261 . S
C79 O74 1.259 . S
C79 O76 1.235 . S
O80 Co70 2.021 1_565 S
O80 C77 1.238 . S
O81 Co75 2.052 . S
O81 C77 1.241 . S
O82 Co70 2.137 . S
O82 C73 1.247 . S
O83 Co70 2.244 . S
O83 C73 1.272 . S
O83 Co75 2.135 1_545 S
Co84 O85 2.216 . S
Co84 O86 2.091 . S
Co84 O88 2.004 . S
Co84 O94 2.021 . S
Co84 O96 2.137 . S
Co84 O97 2.244 . S
O85 Co84 2.216 . S
O85 C92 1.247 . S
O86 Co84 2.091 . S
O86 C92 1.261 . S
C87 O96 1.247 . S
C87 O97 1.272 . S
O88 Co84 2.004 . S
O88 C93 1.259 . S
Co89 O90 2.061 . S
Co89 O95 2.052 . S
Co89 O97 2.135 . S
O90 Co89 2.061 . S
O90 C93 1.235 . S
C91 O94 1.238 . S
C91 O95 1.241 . S
C92 O85 1.247 . S
C92 O86 1.261 . S
C93 O88 1.259 . S
C93 O90 1.235 . S
O94 Co84 2.021 . S
O94 C91 1.238 . S
O95 Co89 2.052 . S
O95 C91 1.241 . S
O96 Co84 2.137 . S
O96 C87 1.247 . S
O97 Co84 2.244 . S
O97 C87 1.272 . S
O97 Co89 2.135 . S
Co98 O99 2.216 . S
Co98 O100 2.091 . S
Co98 O102 2.004 . S
Co98 O108 2.021 . S
Co98 O110 2.137 . S
Co98 O111 2.244 . S
O99 Co98 2.216 . S
O99 C106 1.247 . S
O100 Co98 2.091 . S
O100 C106 1.261 . S
C101 O110 1.247 . S
C101 O111 1.272 . S
O102 Co98 2.004 . S
O102 C107 1.259 . S
Co103 O104 2.061 . S
Co103 O109 2.052 . S
Co103 O111 2.135 . S
O104 Co103 2.061 . S
O104 C107 1.235 . S
C105 O108 1.238 . S
C105 O109 1.241 . S
C106 O99 1.247 . S
C106 O100 1.261 . S
C107 O102 1.259 . S
C107 O104 1.235 . S
O108 Co98 2.021 . S
O108 C105 1.238 . S
O109 Co103 2.052 . S
O109 C105 1.241 . S
O110 Co98 2.137 . S
O110 C101 1.247 . S
O111 Co98 2.244 . S
O111 C101 1.272 . S
O111 Co103 2.135 . S
Co112 O113 2.216 . S
Co112 O114 2.091 . S
Co112 O116 2.004 . S
Co112 O122 2.021 . S
Co112 O124 2.137 . S
Co112 O125 2.244 . S
O113 Co112 2.216 . S
O113 C120 1.247 . S
O114 Co112 2.091 . S
O114 C120 1.261 . S
C115 O124 1.247 . S
C115 O125 1.272 . S
O116 Co112 2.004 . S
O116 C121 1.259 . S
Co117 O118 2.061 . S
Co117 O123 2.052 . S
Co117 O125 2.135 . S
O118 Co117 2.061 . S
O118 C121 1.235 . S
C119 O122 1.238 . S
C119 O123 1.241 . S
C120 O113 1.247 . S
C120 O114 1.261 . S
C121 O116 1.259 . S
C121 O118 1.235 . S
O122 Co112 2.021 . S
O122 C119 1.238 . S
O123 Co117 2.052 . S
O123 C119 1.241 . S
O124 Co112 2.137 . S
O124 C115 1.247 . S
O125 Co112 2.244 . S
O125 C115 1.272 . S
O125 Co117 2.135 . S
Co126 O127 2.216 . S
Co126 O128 2.091 . S
Co126 O130 2.004 . S
Co126 O136 2.021 . S
Co126 O138 2.137 . S
Co126 O139 2.244 . S
O127 Co126 2.216 . S
O127 C134 1.247 . S
O128 Co126 2.091 . S
O128 C134 1.261 . S
C129 O138 1.247 . S
C129 O139 1.272 . S
O130 Co126 2.004 . S
O130 C135 1.259 . S
Co131 O132 2.061 . S
Co131 O137 2.052 . S
Co131 O139 2.135 . S
O132 Co131 2.061 . S
O132 C135 1.235 . S
C133 O136 1.238 . S
C133 O137 1.241 . S
C134 O127 1.247 . S
C134 O128 1.261 . S
C135 O130 1.259 . S
C135 O132 1.235 . S
O136 Co126 2.021 . S
O136 C133 1.238 . S
O137 Co131 2.052 . S
O137 C133 1.241 . S
O138 Co126 2.137 . S
O138 C129 1.247 . S
O139 Co126 2.244 . S
O139 C129 1.272 . S
O139 Co131 2.135 . S
Co140 O141 2.216 . S
Co140 O142 2.091 . S
Co140 O144 2.004 . S
Co140 O150 2.021 . S
Co140 O152 2.137 . S
Co140 O153 2.244 . S
O141 Co140 2.216 . S
O141 C148 1.247 . S
O142 Co140 2.091 . S
O142 C148 1.261 . S
C143 O152 1.247 . S
C143 O153 1.272 . S
O144 Co140 2.004 . S
O144 C149 1.259 . S
Co145 O146 2.061 . S
Co145 O151 2.052 . S
Co145 O153 2.135 . S
O146 Co145 2.061 . S
O146 C149 1.235 . S
C147 O150 1.238 . S
C147 O151 1.241 . S
C148 O141 1.247 . S
C148 O142 1.261 . S
C149 O144 1.259 . S
C149 O146 1.235 . S
O150 Co140 2.021 . S
O150 C147 1.238 . S
O151 Co145 2.052 . S
O151 C147 1.241 . S
O152 Co140 2.137 . S
O152 C143 1.247 . S
O153 Co140 2.244 . S
O153 C143 1.272 . S
O153 Co145 2.135 . S
Co154 O155 2.216 . S
Co154 O156 2.091 . S
Co154 O158 2.004 . S
Co154 O164 2.021 . S
Co154 O166 2.137 . S
Co154 O167 2.244 . S
O155 Co154 2.216 . S
O155 C162 1.247 . S
O156 Co154 2.091 . S
O156 C162 1.261 . S
C157 O166 1.247 . S
C157 O167 1.272 . S
O158 Co154 2.004 . S
O158 C163 1.259 . S
Co159 O160 2.061 . S
Co159 O165 2.052 . S
Co159 O167 2.135 . S
O160 Co159 2.061 . S
O160 C163 1.235 . S
C161 O164 1.238 . S
C161 O165 1.241 . S
C162 O155 1.247 . S
C162 O156 1.261 . S
C163 O158 1.259 . S
C163 O160 1.235 . S
O164 Co154 2.021 . S
O164 C161 1.238 . S
O165 Co159 2.052 . S
O165 C161 1.241 . S
O166 Co154 2.137 . S
O166 C157 1.247 . S
O167 Co154 2.244 . S
O167 C157 1.272 . S
O167 Co159 2.135 . S
Co168 O169 2.216 . S
Co168 O170 2.091 . S
Co168 O172 2.004 . S
Co168 O178 2.021 . S
Co168 O180 2.137 . S
Co168 O181 2.244 . S
O169 Co168 2.216 . S
O169 C176 1.247 . S
O170 Co168 2.091 . S
O170 C176 1.261 . S
C171 O180 1.247 . S
C171 O181 1.272 . S
O172 Co168 2.004 . S
O172 C177 1.259 . S
Co173 O174 2.061 . S
Co173 O179 2.052 . S
Co173 O181 2.135 . S
O174 Co173 2.061 . S
O174 C177 1.235 . S
C175 O178 1.238 . S
C175 O179 1.241 . S
C176 O169 1.247 . S
C176 O170 1.261 . S
C177 O172 1.259 . S
C177 O174 1.235 . S
O178 Co168 2.021 . S
O178 C175 1.238 . S
O179 Co173 2.052 . S
O179 C175 1.241 . S
O180 Co168 2.137 . S
O180 C171 1.247 . S
O181 Co168 2.244 . S
O181 C171 1.272 . S
O181 Co173 2.135 . S
Co182 O183 2.216 . S
Co182 O184 2.091 . S
Co182 O186 2.004 . S
Co182 O192 2.021 . S
Co182 O194 2.137 . S
Co182 O195 2.244 . S
O183 Co182 2.216 . S
O183 C190 1.247 . S
O184 Co182 2.091 . S
O184 C190 1.261 . S
C185 O194 1.247 . S
C185 O195 1.272 . S
O186 Co182 2.004 . S
O186 C191 1.259 . S
Co187 O188 2.061 . S
Co187 O193 2.052 . S
Co187 O195 2.135 . S
O188 Co187 2.061 . S
O188 C191 1.235 . S
C189 O192 1.238 . S
C189 O193 1.241 . S
C190 O183 1.247 . S
C190 O184 1.261 . S
C191 O186 1.259 . S
C191 O188 1.235 . S
O192 Co182 2.021 . S
O192 C189 1.238 . S
O193 Co187 2.052 . S
O193 C189 1.241 . S
O194 Co182 2.137 . S
O194 C185 1.247 . S
O195 Co182 2.244 . S
O195 C185 1.272 . S
O195 Co187 2.135 . S
Co196 O197 2.216 . S
Co196 O198 2.091 . S
Co196 O200 2.004 . S
Co196 O206 2.021 . S
Co196 O208 2.137 . S
Co196 O209 2.244 . S
O197 Co196 2.216 . S
O197 C204 1.247 . S
O198 Co196 2.091 . S
O198 C204 1.261 . S
C199 O208 1.247 . S
C199 O209 1.272 . S
O200 Co196 2.004 . S
O200 C205 1.259 . S
Co201 O202 2.061 . S
Co201 O207 2.052 . S
Co201 O209 2.135 . S
O202 Co201 2.061 . S
O202 C205 1.235 . S
C203 O206 1.238 . S
C203 O207 1.241 . S
C204 O197 1.247 . S
C204 O198 1.261 . S
C205 O200 1.259 . S
C205 O202 1.235 . S
O206 Co196 2.021 . S
O206 C203 1.238 . S
O207 Co201 2.052 . S
O207 C203 1.241 . S
O208 Co196 2.137 . S
O208 C199 1.247 . S
O209 Co196 2.244 . S
O209 C199 1.272 . S
O209 Co201 2.135 . S
Co210 O211 2.216 . S
Co210 O212 2.091 . S
Co210 O214 2.004 . S
Co210 O220 2.021 . S
Co210 O222 2.137 . S
Co210 O223 2.244 . S
O211 Co210 2.216 . S
O211 C218 1.247 . S
O212 Co210 2.091 . S
O212 C218 1.261 . S
C213 O222 1.247 . S
C213 O223 1.272 . S
O214 Co210 2.004 . S
O214 C219 1.259 . S
Co215 O216 2.061 . S
Co215 O221 2.052 . S
Co215 O223 2.135 . S
O216 Co215 2.061 . S
O216 C219 1.235 . S
C217 O220 1.238 . S
C217 O221 1.241 . S
C218 O211 1.247 . S
C218 O212 1.261 . S
C219 O214 1.259 . S
C219 O216 1.235 . S
O220 Co210 2.021 . S
O220 C217 1.238 . S
O221 Co215 2.052 . S
O221 C217 1.241 . S
O222 Co210 2.137 . S
O222 C213 1.247 . S
O223 Co210 2.244 . S
O223 C213 1.272 . S
O223 Co215 2.135 . S
Co224 O225 2.216 . S
Co224 O226 2.091 . S
Co224 O228 2.004 . S
Co224 O234 2.021 . S
Co224 O236 2.137 . S
Co224 O237 2.244 . S
O225 Co224 2.216 . S
O225 C232 1.247 . S
O226 Co224 2.091 . S
O226 C232 1.261 . S
C227 O236 1.247 . S
C227 O237 1.272 . S
O228 Co224 2.004 . S
O228 C233 1.259 . S
Co229 O230 2.061 . S
Co229 O235 2.052 . S
Co229 O237 2.135 . S
O230 Co229 2.061 . S
O230 C233 1.235 . S
C231 O234 1.238 . S
C231 O235 1.241 . S
C232 O225 1.247 . S
C232 O226 1.261 . S
C233 O228 1.259 . S
C233 O230 1.235 . S
O234 Co224 2.021 . S
O234 C231 1.238 . S
O235 Co229 2.052 . S
O235 C231 1.241 . S
O236 Co224 2.137 . S
O236 C227 1.247 . S
O237 Co224 2.244 . S
O237 C227 1.272 . S
O237 Co229 2.135 . S
Co238 O239 2.216 . S
Co238 O240 2.091 . S
Co238 O242 2.004 . S
Co238 O248 2.021 . S
Co238 O250 2.137 . S
Co238 O251 2.244 . S
O239 Co238 2.216 . S
O239 C246 1.247 . S
O240 Co238 2.091 . S
O240 C246 1.261 . S
C241 O250 1.247 . S
C241 O251 1.272 . S
O242 Co238 2.004 . S
O242 C247 1.259 . S
Co243 O244 2.061 . S
Co243 O249 2.052 . S
Co243 O251 2.135 . S
O244 Co243 2.061 . S
O244 C247 1.235 . S
C245 O248 1.238 . S
C245 O249 1.241 . S
C246 O239 1.247 . S
C246 O240 1.261 . S
C247 O242 1.259 . S
C247 O244 1.235 . S
O248 Co238 2.021 . S
O248 C245 1.238 . S
O249 Co243 2.052 . S
O249 C245 1.241 . S
O250 Co238 2.137 . S
O250 C241 1.247 . S
O251 Co238 2.244 . S
O251 C241 1.272 . S
O251 Co243 2.135 . S
H252 C260 0.950 . S
H253 C265 0.950 . S
H254 C262 0.950 . S
H255 C264 0.950 . S
H256 C266 0.950 . S
H257 C268 0.950 . S
H258 C270 0.950 . S
H259 C271 0.950 1_556 S
C260 H252 0.950 . S
C260 C261 1.386 . S
C260 C262 1.391 . S
C261 C260 1.386 . S
C261 C265 1.393 . S
C262 H254 0.950 . S
C262 C260 1.391 . S
C262 C263 1.400 . S
C263 C262 1.400 . S
C263 C264 1.398 . S
C263 C269 1.491 . S
C264 H255 0.950 . S
C264 C263 1.398 . S
C264 C265 1.391 . S
C265 H253 0.950 . S
C265 C261 1.393 . S
C265 C264 1.391 . S
C266 H256 0.950 . S
C266 C267 1.368 1_554 S
C266 C268 1.391 . S
C267 C266 1.368 1_556 S
C267 C271 1.384 1_556 S
C268 H257 0.950 . S
C268 C266 1.391 . S
C268 C269 1.400 . S
C269 C263 1.491 . S
C269 C268 1.400 . S
C269 C270 1.398 . S
C270 H258 0.950 . S
C270 C269 1.398 . S
C270 C271 1.391 . S
C271 H259 0.950 1_554 S
C271 C267 1.384 1_554 S
C271 C270 1.391 . S
H272 C280 0.950 . S
H273 C285 0.950 1_556 S
H274 C282 0.950 . S
H275 C284 0.950 . S
H276 C286 0.950 . S
H277 C288 0.950 . S
H278 C290 0.950 . S
H279 C291 0.950 . S
C280 H272 0.950 . S
C280 C281 1.386 1_554 S
C280 C282 1.391 . S
C281 C280 1.386 1_556 S
C281 C285 1.393 1_556 S
C282 H274 0.950 . S
C282 C280 1.391 . S
C282 C283 1.400 . S
C283 C282 1.400 . S
C283 C284 1.398 . S
C283 C289 1.491 . S
C284 H275 0.950 . S
C284 C283 1.398 . S
C284 C285 1.391 . S
C285 H273 0.950 1_554 S
C285 C281 1.393 1_554 S
C285 C284 1.391 . S
C286 H276 0.950 . S
C286 C287 1.386 . S
C286 C288 1.391 . S
C287 C286 1.386 . S
C287 C291 1.393 . S
C288 H277 0.950 . S
C288 C286 1.391 . S
C288 C289 1.400 . S
C289 C283 1.491 . S
C289 C288 1.400 . S
C289 C290 1.398 . S
C290 H278 0.950 . S
C290 C289 1.398 . S
C290 C291 1.391 . S
C291 H279 0.950 . S
C291 C287 1.393 . S
C291 C290 1.391 . S
H292 C300 0.950 . S
H293 C305 0.950 . S
H294 C302 0.950 . S
H295 C304 0.932 1_545 S
H296 C306 0.950 1_556 S
H297 C308 0.950 1_545 S
H298 C310 0.950 . S
H299 C311 0.950 . S
C300 H292 0.950 . S
C300 C301 1.386 . S
C300 C302 1.391 . S
C301 C300 1.386 . S
C301 C305 1.393 1_565 S
C302 H294 0.950 . S
C302 C300 1.391 . S
C302 C303 1.400 . S
C303 C302 1.400 . S
C303 C304 1.416 . S
C303 C309 1.491 . S
C304 H295 0.932 1_565 S
C304 C303 1.416 . S
C304 C305 1.391 1_565 S
C305 H293 0.950 . S
C305 C301 1.393 1_545 S
C305 C304 1.391 1_545 S
C306 H296 0.950 1_554 S
C306 C307 1.386 1_554 S
C306 C308 1.391 . S
C307 C306 1.386 1_556 S
C307 C311 1.393 1_556 S
C308 H297 0.950 1_565 S
C308 C306 1.391 . S
C308 C309 1.400 . S
C309 C303 1.491 . S
C309 C308 1.400 . S
C309 C310 1.398 . S
C310 H298 0.950 . S
C310 C309 1.398 . S
C310 C311 1.391 . S
C311 H299 0.950 . S
C311 C307 1.393 1_554 S
C311 C310 1.391 . S
H312 C320 0.950 . S
H313 C325 0.950 . S
H314 C322 0.950 . S
H315 C324 0.950 . S
H316 C326 0.950 . S
H317 C328 0.950 . S
H318 C330 0.950 . S
H319 C331 0.950 . S
C320 H312 0.950 . S
C320 C321 1.386 . S
C320 C322 1.391 . S
C321 C320 1.386 . S
C321 C325 1.393 . S
C322 H314 0.950 . S
C322 C320 1.391 . S
C322 C323 1.400 . S
C323 C322 1.400 . S
C323 C324 1.398 . S
C323 C329 1.491 . S
C324 H315 0.950 . S
C324 C323 1.398 . S
C324 C325 1.391 . S
C325 H313 0.950 . S
C325 C321 1.393 . S
C325 C324 1.391 . S
C326 H316 0.950 . S
C326 C327 1.386 . S
C326 C328 1.391 . S
C327 C326 1.386 . S
C327 C331 1.393 . S
C328 H317 0.950 . S
C328 C326 1.391 . S
C328 C329 1.400 . S
C329 C323 1.491 . S
C329 C328 1.400 . S
C329 C330 1.398 . S
C330 H318 0.950 . S
C330 C329 1.398 . S
C330 C331 1.391 . S
C331 H319 0.950 . S
C331 C327 1.393 . S
C331 C330 1.391 . S
H332 C340 0.950 . S
H333 C345 0.950 . S
H334 C342 0.950 1_455 S
H335 C344 0.950 . S
H336 C346 0.950 . S
H337 C348 0.950 . S
H338 C350 0.950 . S
H339 C351 0.950 . S
C340 H332 0.950 . S
C340 C341 1.386 . S
C340 C342 1.391 . S
C341 C340 1.386 . S
C341 C345 1.393 . S
C342 H334 0.950 1_655 S
C342 C340 1.391 . S
C342 C343 1.400 . S
C343 C342 1.400 . S
C343 C344 1.398 . S
C343 C349 1.491 . S
C344 H335 0.950 . S
C344 C343 1.398 . S
C344 C345 1.391 . S
C345 H333 0.950 . S
C345 C341 1.393 . S
C345 C344 1.391 . S
C346 H336 0.950 . S
C346 C347 1.386 . S
C346 C348 1.391 . S
C347 C346 1.386 . S
C347 C351 1.393 1_655 S
C348 H337 0.950 . S
C348 C346 1.391 . S
C348 C349 1.400 . S
C349 C343 1.491 . S
C349 C348 1.400 . S
C349 C350 1.398 1_655 S
C350 H338 0.950 . S
C350 C349 1.398 1_455 S
C350 C351 1.391 . S
C351 H339 0.950 . S
C351 C347 1.393 1_455 S
C351 C350 1.391 . S
H352 C360 0.950 . S
H353 C365 0.950 . S
H354 C362 0.950 . S
H355 C364 0.950 . S
H356 C366 0.950 . S
H357 C368 0.950 . S
H358 C370 0.950 . S
H359 C371 0.950 . S
C360 H352 0.950 . S
C360 C361 1.386 . S
C360 C362 1.391 . S
C361 C360 1.386 . S
C361 C365 1.393 . S
C362 H354 0.950 . S
C362 C360 1.391 . S
C362 C363 1.400 . S
C363 C362 1.400 . S
C363 C364 1.398 . S
C363 C369 1.491 . S
C364 H355 0.950 . S
C364 C363 1.398 . S
C364 C365 1.391 . S
C365 H353 0.950 . S
C365 C361 1.393 . S
C365 C364 1.391 . S
C366 H356 0.950 . S
C366 C367 1.386 . S
C366 C368 1.391 . S
C367 C366 1.386 . S
C367 C371 1.393 . S
C368 H357 0.950 . S
C368 C366 1.391 . S
C368 C369 1.400 . S
C369 C363 1.491 . S
C369 C368 1.400 . S
C369 C370 1.398 . S
C370 H358 0.950 . S
C370 C369 1.398 . S
C370 C371 1.391 . S
C371 H359 0.950 . S
C371 C367 1.393 . S
C371 C370 1.391 . S
H372 C380 0.950 . S
H373 C385 0.950 . S
H374 C382 0.950 . S
H375 C384 0.950 1_455 S
H376 C386 0.933 1_554 S
H377 C388 0.950 1_455 S
H378 C390 0.950 . S
H379 C391 0.950 . S
C380 H372 0.950 . S
C380 C381 1.386 . S
C380 C382 1.391 . S
C381 C380 1.386 . S
C381 C385 1.393 1_655 S
C382 H374 0.950 . S
C382 C380 1.391 . S
C382 C383 1.400 . S
C383 C382 1.400 . S
C383 C384 1.398 . S
C383 C389 1.491 . S
C384 H375 0.950 1_655 S
C384 C383 1.398 . S
C384 C385 1.391 1_655 S
C385 H373 0.950 . S
C385 C381 1.393 1_455 S
C385 C384 1.391 1_455 S
C386 H376 0.933 1_556 S
C386 C387 1.386 . S
C386 C388 1.391 . S
C387 C386 1.386 . S
C387 C391 1.393 . S
C388 H377 0.950 1_655 S
C388 C386 1.391 . S
C388 C389 1.400 . S
C389 C383 1.491 . S
C389 C388 1.400 . S
C389 C390 1.398 . S
C390 H378 0.950 . S
C390 C389 1.398 . S
C390 C391 1.391 . S
C391 H379 0.950 . S
C391 C387 1.393 . S
C391 C390 1.391 . S
H392 C400 0.950 . S
H393 C405 0.950 1_554 S
H394 C402 0.950 . S
H395 C404 0.950 . S
H396 C406 0.950 . S
H397 C408 0.950 . S
H398 C410 0.950 . S
H399 C411 0.950 . S
C400 H392 0.950 . S
C400 C401 1.386 1_556 S
C400 C402 1.391 . S
C401 C400 1.386 1_554 S
C401 C405 1.393 1_554 S
C402 H394 0.950 . S
C402 C400 1.391 . S
C402 C403 1.400 . S
C403 C402 1.400 . S
C403 C404 1.398 . S
C403 C409 1.491 . S
C404 H395 0.950 . S
C404 C403 1.398 . S
C404 C405 1.391 . S
C405 H393 0.950 1_556 S
C405 C401 1.393 1_556 S
C405 C404 1.391 . S
C406 H396 0.950 . S
C406 C407 1.386 . S
C406 C408 1.391 . S
C407 C406 1.386 . S
C407 C411 1.393 . S
C408 H397 0.950 . S
C408 C406 1.391 . S
C408 C409 1.400 . S
C409 C403 1.491 . S
C409 C408 1.400 . S
C409 C410 1.398 . S
C410 H398 0.950 . S
C410 C409 1.398 . S
C410 C411 1.391 . S
C411 H399 0.950 . S
C411 C407 1.393 . S
C411 C410 1.391 . S
H412 C420 0.950 . S
H413 C425 0.926 1_554 S
H414 C422 0.950 . S
H415 C424 0.950 . S
H416 C426 0.950 . S
H417 C428 0.950 . S
H418 C430 0.950 . S
H419 C431 0.950 . S
C420 H412 0.950 . S
C420 C421 1.386 1_556 S
C420 C422 1.391 . S
C421 C420 1.386 1_554 S
C421 C425 1.391 1_554 S
C422 H414 0.950 . S
C422 C420 1.391 . S
C422 C423 1.400 . S
C423 C422 1.400 . S
C423 C424 1.398 . S
C423 C429 1.491 . S
C424 H415 0.950 . S
C424 C423 1.398 . S
C424 C425 1.417 . S
C425 H413 0.926 1_556 S
C425 C421 1.391 1_556 S
C425 C424 1.417 . S
C426 H416 0.950 . S
C426 C427 1.386 . S
C426 C428 1.391 . S
C427 C426 1.386 . S
C427 C431 1.393 . S
C428 H417 0.950 . S
C428 C426 1.391 . S
C428 C429 1.400 . S
C429 C423 1.491 . S
C429 C428 1.400 . S
C429 C430 1.398 . S
C430 H418 0.950 . S
C430 C429 1.398 . S
C430 C431 1.391 . S
C431 H419 0.950 . S
C431 C427 1.393 . S
C431 C430 1.391 . S
H432 C440 0.950 1_545 S
H433 C445 0.950 . S
H434 C442 0.950 . S
H435 C444 0.950 . S
H436 C446 0.950 . S
H437 C448 0.950 . S
H438 C450 0.950 . S
H439 C451 0.950 . S
C440 H432 0.950 1_565 S
C440 C441 1.386 . S
C440 C442 1.391 . S
C441 C440 1.386 . S
C441 C445 1.393 . S
C442 H434 0.950 . S
C442 C440 1.391 . S
C442 C443 1.400 . S
C443 C442 1.400 . S
C443 C444 1.398 . S
C443 C449 1.491 . S
C444 H435 0.950 . S
C444 C443 1.398 . S
C444 C445 1.391 . S
C445 H433 0.950 . S
C445 C441 1.393 . S
C445 C444 1.391 . S
C446 H436 0.950 . S
C446 C447 1.386 . S
C446 C448 1.391 . S
C447 C446 1.386 . S
C447 C451 1.393 . S
C448 H437 0.950 . S
C448 C446 1.391 . S
C448 C449 1.400 . S
C449 C443 1.491 . S
C449 C448 1.400 . S
C449 C450 1.398 . S
C450 H438 0.950 . S
C450 C449 1.398 . S
C450 C451 1.391 . S
C451 H439 0.950 . S
C451 C447 1.393 . S
C451 C450 1.391 . S
H452 C460 0.950 . S
H453 C465 0.950 . S
H454 C462 0.950 . S
H455 C464 0.950 . S
H456 C466 0.950 . S
H457 C468 0.950 . S
H458 C470 0.950 . S
H459 C471 0.950 . S
C460 H452 0.950 . S
C460 C461 1.386 . S
C460 C462 1.391 . S
C461 C460 1.386 . S
C461 C465 1.393 . S
C462 H454 0.950 . S
C462 C460 1.391 . S
C462 C463 1.400 . S
C463 C462 1.400 . S
C463 C464 1.398 . S
C463 C469 1.491 . S
C464 H455 0.950 . S
C464 C463 1.398 . S
C464 C465 1.391 . S
C465 H453 0.950 . S
C465 C461 1.393 . S
C465 C464 1.391 . S
C466 H456 0.950 . S
C466 C467 1.386 . S
C466 C468 1.391 . S
C467 C466 1.386 . S
C467 C471 1.393 . S
C468 H457 0.950 . S
C468 C466 1.391 . S
C468 C469 1.400 . S
C469 C463 1.491 . S
C469 C468 1.400 . S
C469 C470 1.398 . S
C470 H458 0.950 . S
C470 C469 1.398 . S
C470 C471 1.391 . S
C471 H459 0.950 . S
C471 C467 1.393 . S
C471 C470 1.391 . S
H472 C480 0.950 . S
H473 C485 0.950 . S
H474 C482 0.950 . S
H475 C484 0.950 . S
H476 C486 0.950 . S
H477 C488 0.950 . S
H478 C490 0.950 . S
H479 C491 0.950 . S
C480 H472 0.950 . S
C480 C481 1.386 . S
C480 C482 1.391 . S
C481 C480 1.386 . S
C481 C485 1.393 . S
C482 H474 0.950 . S
C482 C480 1.391 . S
C482 C483 1.400 . S
C483 C482 1.400 . S
C483 C484 1.398 . S
C483 C489 1.491 . S
C484 H475 0.950 . S
C484 C483 1.398 . S
C484 C485 1.391 . S
C485 H473 0.950 . S
C485 C481 1.393 . S
C485 C484 1.391 . S
C486 H476 0.950 . S
C486 C487 1.386 . S
C486 C488 1.391 . S
C487 C486 1.386 . S
C487 C491 1.393 . S
C488 H477 0.950 . S
C488 C486 1.391 . S
C488 C489 1.400 . S
C489 C483 1.491 . S
C489 C488 1.400 . S
C489 C490 1.398 . S
C490 H478 0.950 . S
C490 C489 1.398 . S
C490 C491 1.391 . S
C491 H479 0.950 . S
C491 C487 1.393 . S
C491 C490 1.391 . S
H492 C500 0.950 . S
H493 C505 0.950 . S
H494 C502 0.950 . S
H495 C504 0.950 . S
H496 C506 0.950 . S
H497 C508 0.950 . S
H498 C510 0.950 . S
H499 C511 0.950 . S
C500 H492 0.950 . S
C500 C501 1.386 . S
C500 C502 1.391 . S
C501 C500 1.386 . S
C501 C505 1.393 . S
C502 H494 0.950 . S
C502 C500 1.391 . S
C502 C503 1.400 . S
C503 C502 1.400 . S
C503 C504 1.398 . S
C503 C509 1.491 . S
C504 H495 0.950 . S
C504 C503 1.398 . S
C504 C505 1.391 . S
C505 H493 0.950 . S
C505 C501 1.393 . S
C505 C504 1.391 . S
C506 H496 0.950 . S
C506 C507 1.386 . S
C506 C508 1.391 . S
C507 C506 1.386 . S
C507 C511 1.393 . S
C508 H497 0.950 . S
C508 C506 1.391 . S
C508 C509 1.400 . S
C509 C503 1.491 . S
C509 C508 1.400 . S
C509 C510 1.398 . S
C510 H498 0.950 . S
C510 C509 1.398 . S
C510 C511 1.391 . S
C511 H499 0.950 . S
C511 C507 1.393 . S
C511 C510 1.391 . S
H512 C520 0.950 . S
H513 C525 0.950 . S
H514 C522 0.945 1_565 S
H515 C524 0.950 . S
H516 C526 0.950 . S
H517 C528 0.950 . S
H518 C530 0.950 . S
H519 C531 0.950 . S
C520 H512 0.950 . S
C520 C521 1.386 . S
C520 C522 1.394 . S
C521 C520 1.386 . S
C521 C525 1.393 . S
C522 H514 0.945 1_545 S
C522 C520 1.394 . S
C522 C523 1.403 . S
C523 C522 1.403 . S
C523 C524 1.398 . S
C523 C529 1.505 . S
C524 H515 0.950 . S
C524 C523 1.398 . S
C524 C525 1.391 . S
C525 H513 0.950 . S
C525 C521 1.393 . S
C525 C524 1.391 . S
C526 H516 0.950 . S
C526 C527 1.386 1_545 S
C526 C528 1.391 . S
C527 C526 1.386 1_565 S
C527 C531 1.393 . S
C528 H517 0.950 . S
C528 C526 1.391 . S
C528 C529 1.415 . S
C529 C523 1.505 . S
C529 C528 1.415 . S
C529 C530 1.369 1_545 S
C530 H518 0.950 . S
C530 C529 1.369 1_565 S
C530 C531 1.391 . S
C531 H519 0.950 . S
C531 C527 1.393 . S
C531 C530 1.391 . S
H532 C540 0.950 . S
H533 C545 0.950 . S
H534 C542 0.950 . S
H535 C544 0.950 . S
H536 C546 0.950 . S
H537 C548 0.950 . S
H538 C550 0.950 . S
H539 C551 0.950 1_455 S
C540 H532 0.950 . S
C540 C541 1.386 . S
C540 C542 1.391 . S
C541 C540 1.386 . S
C541 C545 1.393 . S
C542 H534 0.950 . S
C542 C540 1.391 . S
C542 C543 1.400 . S
C543 C542 1.400 . S
C543 C544 1.398 . S
C543 C549 1.491 . S
C544 H535 0.950 . S
C544 C543 1.398 . S
C544 C545 1.391 . S
C545 H533 0.950 . S
C545 C541 1.393 . S
C545 C544 1.391 . S
C546 H536 0.950 . S
C546 C547 1.386 . S
C546 C548 1.391 . S
C547 C546 1.386 . S
C547 C551 1.393 . S
C548 H537 0.950 . S
C548 C546 1.391 . S
C548 C549 1.400 1_655 S
C549 C543 1.491 . S
C549 C548 1.400 1_455 S
C549 C550 1.398 . S
C550 H538 0.950 . S
C550 C549 1.398 . S
C550 C551 1.391 1_455 S
C551 H539 0.950 1_655 S
C551 C547 1.393 . S
C551 C550 1.391 1_655 S
H552 C560 0.950 . S
H553 C565 0.950 . S
H554 C562 0.950 . S
H555 C564 0.950 . S
H556 C566 0.950 . S
H557 C568 0.950 . S
H558 C570 0.950 . S
H559 C571 0.950 . S
C560 H552 0.950 . S
C560 C561 1.386 . S
C560 C562 1.391 . S
C561 C560 1.386 . S
C561 C565 1.393 . S
C562 H554 0.950 . S
C562 C560 1.391 . S
C562 C563 1.400 . S
C563 C562 1.400 . S
C563 C564 1.398 . S
C563 C569 1.491 . S
C564 H555 0.950 . S
C564 C563 1.398 . S
C564 C565 1.391 . S
C565 H553 0.950 . S
C565 C561 1.393 . S
C565 C564 1.391 . S
C566 H556 0.950 . S
C566 C567 1.386 . S
C566 C568 1.391 . S
C567 C566 1.386 . S
C567 C571 1.393 . S
C568 H557 0.950 . S
C568 C566 1.391 . S
C568 C569 1.400 . S
C569 C563 1.491 . S
C569 C568 1.400 . S
C569 C570 1.398 . S
C570 H558 0.950 . S
C570 C569 1.398 . S
C570 C571 1.391 . S
C571 H559 0.950 . S
C571 C567 1.393 . S
C571 C570 1.391 . S
H572 C580 0.950 . S
H573 C585 0.955 . S
H574 C582 0.950 . S
H575 C584 0.950 . S
H576 C586 0.950 . S
H577 C588 0.950 . S
H578 C590 0.950 . S
H579 C591 0.950 1_545 S
C580 H572 0.950 . S
C580 C581 1.386 . S
C580 C582 1.391 . S
C581 C580 1.386 . S
C581 C585 1.393 . S
C582 H574 0.950 . S
C582 C580 1.391 . S
C582 C583 1.400 . S
C583 C582 1.400 . S
C583 C584 1.398 1_545 S
C583 C589 1.491 1_545 S
C584 H575 0.950 . S
C584 C583 1.398 1_565 S
C584 C585 1.391 1_565 S
C585 H573 0.955 . S
C585 C581 1.393 . S
C585 C584 1.391 1_545 S
C586 H576 0.950 . S
C586 C587 1.386 . S
C586 C588 1.391 . S
C587 C586 1.386 . S
C587 C591 1.393 . S
C588 H577 0.950 . S
C588 C586 1.391 . S
C588 C589 1.400 . S
C589 C583 1.491 1_565 S
C589 C588 1.400 . S
C589 C590 1.398 1_565 S
C590 H578 0.950 . S
C590 C589 1.398 1_545 S
C590 C591 1.391 1_545 S
C591 H579 0.950 1_565 S
C591 C587 1.393 . S
C591 C590 1.391 1_565 S
H592 C600 0.950 . S
H593 C605 0.950 . S
H594 C602 0.950 . S
H595 C604 0.950 1_655 S
H596 C606 0.950 . S
H597 C608 0.950 . S
H598 C610 0.950 . S
H599 C611 0.950 1_455 S
C600 H592 0.950 . S
C600 C601 1.386 . S
C600 C602 1.391 . S
C601 C600 1.386 . S
C601 C605 1.393 . S
C602 H594 0.950 . S
C602 C600 1.391 . S
C602 C603 1.400 . S
C603 C602 1.400 . S
C603 C604 1.398 . S
C603 C609 1.491 1_455 S
C604 H595 0.950 1_455 S
C604 C603 1.398 . S
C604 C605 1.391 . S
C605 H593 0.950 . S
C605 C601 1.393 . S
C605 C604 1.391 . S
C606 H596 0.950 . S
C606 C607 1.386 . S
C606 C608 1.391 . S
C607 C606 1.386 . S
C607 C611 1.393 . S
C608 H597 0.950 . S
C608 C606 1.391 . S
C608 C609 1.399 . S
C609 C603 1.491 1_655 S
C609 C608 1.399 . S
C609 C610 1.399 1_655 S
C610 H598 0.950 . S
C610 C609 1.399 1_455 S
C610 C611 1.391 1_455 S
C611 H599 0.950 1_655 S
C611 C607 1.393 . S
C611 C610 1.391 1_655 S
H612 C620 0.950 . S
H613 C625 0.950 . S
H614 C622 0.950 . S
H615 C624 0.950 . S
H616 C626 0.950 . S
H617 C628 0.950 . S
H618 C630 0.950 . S
H619 C631 0.950 . S
C620 H612 0.950 . S
C620 C621 1.386 . S
C620 C622 1.391 . S
C621 C620 1.386 . S
C621 C625 1.393 . S
C622 H614 0.950 . S
C622 C620 1.391 . S
C622 C623 1.400 . S
C623 C622 1.400 . S
C623 C624 1.398 . S
C623 C629 1.491 . S
C624 H615 0.950 . S
C624 C623 1.398 . S
C624 C625 1.391 . S
C625 H613 0.950 . S
C625 C621 1.393 . S
C625 C624 1.391 . S
C626 H616 0.950 . S
C626 C627 1.386 . S
C626 C628 1.391 . S
C627 C626 1.386 . S
C627 C631 1.393 . S
C628 H617 0.950 . S
C628 C626 1.391 . S
C628 C629 1.400 . S
C629 C623 1.491 . S
C629 C628 1.400 . S
C629 C630 1.398 . S
C630 H618 0.950 . S
C630 C629 1.398 . S
C630 C631 1.391 . S
C631 H619 0.950 . S
C631 C627 1.393 . S
C631 C630 1.391 . S
H632 C640 0.950 . S
H633 C645 0.950 . S
H634 C642 0.950 . S
H635 C644 0.950 . S
H636 C646 0.950 . S
H637 C648 0.950 . S
H638 C650 0.950 . S
H639 C651 0.950 . S
C640 H632 0.950 . S
C640 C641 1.386 . S
C640 C642 1.391 . S
C641 C640 1.386 . S
C641 C645 1.393 . S
C642 H634 0.950 . S
C642 C640 1.391 . S
C642 C643 1.400 . S
C643 C642 1.400 . S
C643 C644 1.398 . S
C643 C649 1.491 . S
C644 H635 0.950 . S
C644 C643 1.398 . S
C644 C645 1.391 . S
C645 H633 0.950 . S
C645 C641 1.393 . S
C645 C644 1.391 . S
C646 H636 0.950 . S
C646 C647 1.386 . S
C646 C648 1.391 . S
C647 C646 1.386 . S
C647 C651 1.393 . S
C648 H637 0.950 . S
C648 C646 1.391 . S
C648 C649 1.400 . S
C649 C643 1.491 . S
C649 C648 1.400 . S
C649 C650 1.398 . S
C650 H638 0.950 . S
C650 C649 1.398 . S
C650 C651 1.391 . S
C651 H639 0.950 . S
C651 C647 1.393 . S
C651 C650 1.391 . S
H652 C660 0.950 . S
H653 C665 0.950 . S
H654 C662 0.950 . S
H655 C664 0.950 . S
H656 C666 0.950 . S
H657 C668 0.950 . S
H658 C670 0.950 . S
H659 C671 0.950 . S
C660 H652 0.950 . S
C660 C661 1.386 . S
C660 C662 1.391 . S
C661 C660 1.386 . S
C661 C665 1.393 . S
C662 H654 0.950 . S
C662 C660 1.391 . S
C662 C663 1.400 . S
C663 C662 1.400 . S
C663 C664 1.398 . S
C663 C669 1.491 . S
C664 H655 0.950 . S
C664 C663 1.398 . S
C664 C665 1.391 . S
C665 H653 0.950 . S
C665 C661 1.393 . S
C665 C664 1.391 . S
C666 H656 0.950 . S
C666 C667 1.386 . S
C666 C668 1.391 . S
C667 C666 1.386 . S
C667 C671 1.393 . S
C668 H657 0.950 . S
C668 C666 1.391 . S
C668 C669 1.400 . S
C669 C663 1.491 . S
C669 C668 1.400 . S
C669 C670 1.398 . S
C670 H658 0.950 . S
C670 C669 1.398 . S
C670 C671 1.391 . S
C671 H659 0.950 . S
C671 C667 1.393 . S
C671 C670 1.391 . S
H672 C680 0.950 . S
H673 C685 0.950 . S
H674 C682 0.950 . S
H675 C684 0.950 . S
H676 C686 0.950 . S
H677 C688 0.950 . S
H678 C690 0.950 . S
H679 C691 0.950 . S
C680 H672 0.950 . S
C680 C681 1.386 . S
C680 C682 1.391 . S
C681 C680 1.386 . S
C681 C685 1.393 . S
C682 H674 0.950 . S
C682 C680 1.391 . S
C682 C683 1.400 . S
C683 C682 1.400 . S
C683 C684 1.398 . S
C683 C689 1.491 . S
C684 H675 0.950 . S
C684 C683 1.398 . S
C684 C685 1.391 . S
C685 H673 0.950 . S
C685 C681 1.393 . S
C685 C684 1.391 . S
C686 H676 0.950 . S
C686 C687 1.386 . S
C686 C688 1.391 . S
C687 C686 1.386 . S
C687 C691 1.393 . S
C688 H677 0.950 . S
C688 C686 1.391 . S
C688 C689 1.400 . S
C689 C683 1.491 . S
C689 C688 1.400 . S
C689 C690 1.398 . S
C690 H678 0.950 . S
C690 C689 1.398 . S
C690 C691 1.391 . S
C691 H679 0.950 . S
C691 C687 1.393 . S
C691 C690 1.391 . S
H692 C700 0.950 . S
H693 C705 0.950 . S
H694 C702 0.950 . S
H695 C704 0.950 . S
H696 C706 0.950 . S
H697 C708 0.950 . S
H698 C710 0.950 . S
H699 C711 0.950 . S
C700 H692 0.950 . S
C700 C701 1.386 . S
C700 C702 1.391 . S
C701 C700 1.386 . S
C701 C705 1.393 . S
C702 H694 0.950 . S
C702 C700 1.391 . S
C702 C703 1.400 . S
C703 C702 1.400 . S
C703 C704 1.398 . S
C703 C709 1.491 . S
C704 H695 0.950 . S
C704 C703 1.398 . S
C704 C705 1.391 . S
C705 H693 0.950 . S
C705 C701 1.393 . S
C705 C704 1.391 . S
C706 H696 0.950 . S
C706 C707 1.386 . S
C706 C708 1.391 . S
C707 C706 1.386 . S
C707 C711 1.393 . S
C708 H697 0.950 . S
C708 C706 1.391 . S
C708 C709 1.400 . S
C709 C703 1.491 . S
C709 C708 1.400 . S
C709 C710 1.398 . S
C710 H698 0.950 . S
C710 C709 1.398 . S
C710 C711 1.391 . S
C711 H699 0.950 . S
C711 C707 1.393 . S
C711 C710 1.391 . S
H712 C720 0.950 . S
H713 C725 0.950 . S
H714 C722 0.950 . S
H715 C724 0.950 . S
H716 C726 0.950 . S
H717 C728 0.950 . S
H718 C730 0.950 . S
H719 C731 0.950 . S
C720 H712 0.950 . S
C720 C721 1.386 . S
C720 C722 1.391 . S
C721 C720 1.386 . S
C721 C725 1.393 . S
C722 H714 0.950 . S
C722 C720 1.391 . S
C722 C723 1.400 . S
C723 C722 1.400 . S
C723 C724 1.398 . S
C723 C729 1.491 . S
C724 H715 0.950 . S
C724 C723 1.398 . S
C724 C725 1.391 . S
C725 H713 0.950 . S
C725 C721 1.393 . S
C725 C724 1.391 . S
C726 H716 0.950 . S
C726 C727 1.386 . S
C726 C728 1.391 . S
C727 C726 1.386 . S
C727 C731 1.393 . S
C728 H717 0.950 . S
C728 C726 1.391 . S
C728 C729 1.400 . S
C729 C723 1.491 . S
C729 C728 1.400 . S
C729 C730 1.398 . S
C730 H718 0.950 . S
C730 C729 1.398 . S
C730 C731 1.391 . S
C731 H719 0.950 . S
C731 C727 1.393 . S
C731 C730 1.391 . S
H732 C740 0.950 . S
H733 C745 0.950 . S
H734 C742 0.950 . S
H735 C744 0.950 . S
H736 C746 0.950 . S
H737 C748 0.950 . S
H738 C750 0.950 . S
H739 C751 0.950 . S
C740 H732 0.950 . S
C740 C741 1.386 . S
C740 C742 1.391 . S
C741 C740 1.386 . S
C741 C745 1.393 . S
C742 H734 0.950 . S
C742 C740 1.391 . S
C742 C743 1.400 . S
C743 C742 1.400 . S
C743 C744 1.398 . S
C743 C749 1.491 . S
C744 H735 0.950 . S
C744 C743 1.398 . S
C744 C745 1.391 . S
C745 H733 0.950 . S
C745 C741 1.393 . S
C745 C744 1.391 . S
C746 H736 0.950 . S
C746 C747 1.386 . S
C746 C748 1.391 . S
C747 C746 1.386 . S
C747 C751 1.393 . S
C748 H737 0.950 . S
C748 C746 1.391 . S
C748 C749 1.400 . S
C749 C743 1.491 . S
C749 C748 1.400 . S
C749 C750 1.398 . S
C750 H738 0.950 . S
C750 C749 1.398 . S
C750 C751 1.391 . S
C751 H739 0.950 . S
C751 C747 1.393 . S
C751 C750 1.391 . S
H752 C760 0.950 . S
H753 C765 0.950 . S
H754 C762 0.950 . S
H755 C764 0.950 . S
H756 C766 0.950 . S
H757 C768 0.950 . S
H758 C770 0.950 . S
H759 C771 0.950 . S
C760 H752 0.950 . S
C760 C761 1.386 . S
C760 C762 1.391 . S
C761 C760 1.386 . S
C761 C765 1.393 . S
C762 H754 0.950 . S
C762 C760 1.391 . S
C762 C763 1.400 . S
C763 C762 1.400 . S
C763 C764 1.398 . S
C763 C769 1.491 . S
C764 H755 0.950 . S
C764 C763 1.398 . S
C764 C765 1.391 . S
C765 H753 0.950 . S
C765 C761 1.393 . S
C765 C764 1.391 . S
C766 H756 0.950 . S
C766 C767 1.386 . S
C766 C768 1.391 . S
C767 C766 1.386 . S
C767 C771 1.393 . S
C768 H757 0.950 . S
C768 C766 1.391 . S
C768 C769 1.400 . S
C769 C763 1.491 . S
C769 C768 1.400 . S
C769 C770 1.398 . S
C770 H758 0.950 . S
C770 C769 1.398 . S
C770 C771 1.391 . S
C771 H759 0.950 . S
C771 C767 1.393 . S
C771 C770 1.391 . S
H772 C780 0.950 . S
H773 C785 0.950 . S
H774 C782 0.950 . S
H775 C784 0.950 . S
H776 C786 0.950 . S
H777 C788 0.950 . S
H778 C790 0.950 . S
H779 C791 0.950 . S
C780 H772 0.950 . S
C780 C781 1.386 . S
C780 C782 1.391 . S
C781 C780 1.386 . S
C781 C785 1.393 . S
C782 H774 0.950 . S
C782 C780 1.391 . S
C782 C783 1.400 . S
C783 C782 1.400 . S
C783 C784 1.398 . S
C783 C789 1.491 . S
C784 H775 0.950 . S
C784 C783 1.398 . S
C784 C785 1.391 . S
C785 H773 0.950 . S
C785 C781 1.393 . S
C785 C784 1.391 . S
C786 H776 0.950 . S
C786 C787 1.386 . S
C786 C788 1.391 . S
C787 C786 1.386 . S
C787 C791 1.393 . S
C788 H777 0.950 . S
C788 C786 1.391 . S
C788 C789 1.400 . S
C789 C783 1.491 . S
C789 C788 1.400 . S
C789 C790 1.398 . S
C790 H778 0.950 . S
C790 C789 1.398 . S
C790 C791 1.391 . S
C791 H779 0.950 . S
C791 C787 1.393 . S
C791 C790 1.391 . S
H792 C800 0.950 . S
H793 C805 0.950 . S
H794 C802 0.950 . S
H795 C804 0.950 . S
H796 C806 0.950 . S
H797 C808 0.950 . S
H798 C810 0.950 . S
H799 C811 0.950 . S
C800 H792 0.950 . S
C800 C801 1.386 . S
C800 C802 1.391 . S
C801 C800 1.386 . S
C801 C805 1.393 . S
C802 H794 0.950 . S
C802 C800 1.391 . S
C802 C803 1.400 . S
C803 C802 1.400 . S
C803 C804 1.398 . S
C803 C809 1.491 . S
C804 H795 0.950 . S
C804 C803 1.398 . S
C804 C805 1.391 . S
C805 H793 0.950 . S
C805 C801 1.393 . S
C805 C804 1.391 . S
C806 H796 0.950 . S
C806 C807 1.386 . S
C806 C808 1.391 . S
C807 C806 1.386 . S
C807 C811 1.393 . S
C808 H797 0.950 . S
C808 C806 1.391 . S
C808 C809 1.400 . S
C809 C803 1.491 . S
C809 C808 1.400 . S
C809 C810 1.398 . S
C810 H798 0.950 . S
C810 C809 1.398 . S
C810 C811 1.391 . S
C811 H799 0.950 . S
C811 C807 1.393 . S
C811 C810 1.391 . S
H812 C820 0.950 . S
H813 C825 0.950 . S
H814 C822 0.950 . S
H815 C824 0.950 . S
H816 C826 0.950 . S
H817 C828 0.950 . S
H818 C830 0.950 . S
H819 C831 0.950 . S
C820 H812 0.950 . S
C820 C821 1.386 . S
C820 C822 1.391 . S
C821 C820 1.386 . S
C821 C825 1.393 . S
C822 H814 0.950 . S
C822 C820 1.391 . S
C822 C823 1.400 . S
C823 C822 1.400 . S
C823 C824 1.398 . S
C823 C829 1.491 . S
C824 H815 0.950 . S
C824 C823 1.398 . S
C824 C825 1.391 . S
C825 H813 0.950 . S
C825 C821 1.393 . S
C825 C824 1.391 . S
C826 H816 0.950 . S
C826 C827 1.386 . S
C826 C828 1.391 . S
C827 C826 1.386 . S
C827 C831 1.393 . S
C828 H817 0.950 . S
C828 C826 1.391 . S
C828 C829 1.400 . S
C829 C823 1.491 . S
C829 C828 1.400 . S
C829 C830 1.398 . S
C830 H818 0.950 . S
C830 C829 1.398 . S
C830 C831 1.391 . S
C831 H819 0.950 . S
C831 C827 1.393 . S
C831 C830 1.391 . S
H832 C840 0.950 . S
H833 C845 0.950 . S
H834 C842 0.950 . S
H835 C844 0.950 . S
H836 C846 0.950 . S
H837 C848 0.950 . S
H838 C850 0.950 . S
H839 C851 0.950 . S
C840 H832 0.950 . S
C840 C841 1.386 . S
C840 C842 1.391 . S
C841 C840 1.386 . S
C841 C845 1.393 . S
C842 H834 0.950 . S
C842 C840 1.391 . S
C842 C843 1.400 . S
C843 C842 1.400 . S
C843 C844 1.398 . S
C843 C849 1.491 . S
C844 H835 0.950 . S
C844 C843 1.398 . S
C844 C845 1.391 . S
C845 H833 0.950 . S
C845 C841 1.393 . S
C845 C844 1.391 . S
C846 H836 0.950 . S
C846 C847 1.386 . S
C846 C848 1.391 . S
C847 C846 1.386 . S
C847 C851 1.393 . S
C848 H837 0.950 . S
C848 C846 1.391 . S
C848 C849 1.400 . S
C849 C843 1.491 . S
C849 C848 1.400 . S
C849 C850 1.398 . S
C850 H838 0.950 . S
C850 C849 1.398 . S
C850 C851 1.391 . S
C851 H839 0.950 . S
C851 C847 1.393 . S
C851 C850 1.391 . S
H852 C860 0.950 . S
H853 C865 0.950 . S
H854 C862 0.950 . S
H855 C864 0.950 . S
H856 C866 0.950 . S
H857 C868 0.950 . S
H858 C870 0.950 . S
H859 C871 0.950 . S
C860 H852 0.950 . S
C860 C861 1.386 . S
C860 C862 1.391 . S
C861 C860 1.386 . S
C861 C865 1.393 . S
C862 H854 0.950 . S
C862 C860 1.391 . S
C862 C863 1.400 . S
C863 C862 1.400 . S
C863 C864 1.398 . S
C863 C869 1.491 . S
C864 H855 0.950 . S
C864 C863 1.398 . S
C864 C865 1.391 . S
C865 H853 0.950 . S
C865 C861 1.393 . S
C865 C864 1.391 . S
C866 H856 0.950 . S
C866 C867 1.386 . S
C866 C868 1.391 . S
C867 C866 1.386 . S
C867 C871 1.393 . S
C868 H857 0.950 . S
C868 C866 1.391 . S
C868 C869 1.400 . S
C869 C863 1.491 . S
C869 C868 1.400 . S
C869 C870 1.398 . S
C870 H858 0.950 . S
C870 C869 1.398 . S
C870 C871 1.391 . S
C871 H859 0.950 . S
C871 C867 1.393 . S
C871 C870 1.391 . S
H872 C880 0.950 . S
H873 C885 0.950 . S
H874 C882 0.950 . S
H875 C884 0.950 . S
H876 C886 0.950 . S
H877 C888 0.950 . S
H878 C890 0.950 1_545 S
H879 C891 0.950 . S
C880 H872 0.950 . S
C880 C881 1.386 . S
C880 C882 1.391 . S
C881 C880 1.386 . S
C881 C885 1.393 . S
C882 H874 0.950 . S
C882 C880 1.391 . S
C882 C883 1.400 . S
C883 C882 1.400 . S
C883 C884 1.398 . S
C883 C889 1.491 1_545 S
C884 H875 0.950 . S
C884 C883 1.398 . S
C884 C885 1.391 . S
C885 H873 0.950 . S
C885 C881 1.393 . S
C885 C884 1.391 . S
C886 H876 0.950 . S
C886 C887 1.386 . S
C886 C888 1.391 . S
C887 C886 1.386 . S
C887 C891 1.393 . S
C888 H877 0.950 . S
C888 C886 1.391 . S
C888 C889 1.400 . S
C889 C883 1.491 1_565 S
C889 C888 1.400 . S
C889 C890 1.398 . S
C890 H878 0.950 1_565 S
C890 C889 1.398 . S
C890 C891 1.391 . S
C891 H879 0.950 . S
C891 C887 1.393 . S
C891 C890 1.391 . S
H892 C900 0.950 . S
H893 C905 0.950 . S
H894 C902 0.950 1_655 S
H895 C904 0.950 . S
H896 C906 0.950 . S
H897 C908 0.950 . S
H898 C910 0.950 . S
H899 C911 0.950 . S
C900 H892 0.950 . S
C900 C901 1.386 . S
C900 C902 1.391 . S
C901 C900 1.386 . S
C901 C905 1.393 . S
C902 H894 0.950 1_455 S
C902 C900 1.391 . S
C902 C903 1.400 . S
C903 C902 1.400 . S
C903 C904 1.398 . S
C903 C909 1.518 . S
C904 H895 0.950 . S
C904 C903 1.398 . S
C904 C905 1.391 . S
C905 H893 0.950 . S
C905 C901 1.393 . S
C905 C904 1.391 . S
C906 H896 0.950 . S
C906 C907 1.386 . S
C906 C908 1.391 1_655 S
C907 C906 1.386 . S
C907 C911 1.393 . S
C908 H897 0.950 . S
C908 C906 1.391 1_455 S
C908 C909 1.396 . S
C909 C903 1.518 . S
C909 C908 1.396 . S
C909 C910 1.375 1_455 S
C910 H898 0.950 . S
C910 C909 1.375 1_655 S
C910 C911 1.391 . S
C911 H899 0.950 . S
C911 C907 1.393 . S
C911 C910 1.391 . S
H912 C920 0.950 . S
H913 C925 0.950 1_554 S
H914 C922 0.950 . S
H915 C924 0.950 . S
H916 C926 0.950 . S
H917 C928 0.950 . S
H918 C930 0.950 . S
H919 C931 0.950 1_556 S
C920 H912 0.950 . S
C920 C921 1.386 . S
C920 C922 1.391 . S
C921 C920 1.386 . S
C921 C925 1.393 . S
C922 H914 0.950 . S
C922 C920 1.391 . S
C922 C923 1.400 . S
C923 C922 1.400 . S
C923 C924 1.398 1_556 S
C923 C929 1.491 1_556 S
C924 H915 0.950 . S
C924 C923 1.398 1_554 S
C924 C925 1.391 1_554 S
C925 H913 0.950 1_556 S
C925 C921 1.393 . S
C925 C924 1.391 1_556 S
C926 H916 0.950 . S
C926 C927 1.386 . S
C926 C928 1.391 . S
C927 C926 1.386 . S
C927 C931 1.393 . S
C928 H917 0.950 . S
C928 C926 1.391 . S
C928 C929 1.400 . S
C929 C923 1.491 1_554 S
C929 C928 1.400 . S
C929 C930 1.398 1_554 S
C930 H918 0.950 . S
C930 C929 1.398 1_556 S
C930 C931 1.391 1_556 S
C931 H919 0.950 1_554 S
C931 C927 1.393 . S
C931 C930 1.391 1_554 S
H932 C940 0.950 1_554 S
H933 C945 0.950 . S
H934 C942 0.950 . S
H935 C944 0.972 . S
H936 C946 0.950 1_556 S
H937 C948 0.950 . S
H938 C950 0.950 1_565 S
H939 C951 0.950 . S
C940 H932 0.950 1_556 S
C940 C941 1.386 . S
C940 C942 1.391 1_556 S
C941 C940 1.386 . S
C941 C945 1.393 . S
C942 H934 0.950 . S
C942 C940 1.391 1_554 S
C942 C943 1.400 1_554 S
C943 C942 1.400 1_556 S
C943 C944 1.400 1_565 S
C943 C949 1.491 1_566 S
C944 H935 0.972 . S
C944 C943 1.400 1_545 S
C944 C945 1.367 1_545 S
C945 H933 0.950 . S
C945 C941 1.393 . S
C945 C944 1.367 1_565 S
C946 H936 0.950 1_554 S
C946 C947 1.386 . S
C946 C948 1.391 1_554 S
C947 C946 1.386 . S
C947 C951 1.393 . S
C948 H937 0.950 . S
C948 C946 1.391 1_556 S
C948 C949 1.400 1_556 S
C949 C943 1.491 1_544 S
C949 C948 1.400 1_554 S
C949 C950 1.398 . S
C950 H938 0.950 1_545 S
C950 C949 1.398 . S
C950 C951 1.391 . S
C951 H939 0.950 . S
C951 C947 1.393 . S
C951 C950 1.391 . S
H952 C960 0.950 . S
H953 C965 0.950 . S
H954 C962 0.950 . S
H955 C964 0.950 1_655 S
H956 C966 0.950 . S
H957 C968 0.950 . S
H958 C970 0.950 . S
H959 C971 0.950 . S
C960 H952 0.950 . S
C960 C961 1.386 . S
C960 C962 1.391 . S
C961 C960 1.386 . S
C961 C965 1.393 . S
C962 H954 0.950 . S
C962 C960 1.391 . S
C962 C963 1.400 . S
C963 C962 1.400 . S
C963 C964 1.398 . S
C963 C969 1.491 1_456 S
C964 H955 0.950 1_455 S
C964 C963 1.398 . S
C964 C965 1.391 . S
C965 H953 0.950 . S
C965 C961 1.393 . S
C965 C964 1.391 . S
C966 H956 0.950 . S
C966 C967 1.386 . S
C966 C968 1.391 . S
C967 C966 1.386 . S
C967 C971 1.393 . S
C968 H957 0.950 . S
C968 C966 1.391 . S
C968 C969 1.400 . S
C969 C963 1.491 1_654 S
C969 C968 1.400 . S
C969 C970 1.398 1_655 S
C970 H958 0.950 . S
C970 C969 1.398 1_455 S
C970 C971 1.391 1_455 S
C971 H959 0.950 . S
C971 C967 1.393 . S
C971 C970 1.391 1_655 S
C261 C7 1.141 . S
C267 C203 1.171 . S
C281 C171 1.119 . S
C287 C17 1.120 . S
C301 C31 1.142 . S
C307 C189 1.123 . S
C321 C91 1.139 . S
C327 C35 1.143 . S
C341 C105 1.142 . S
C347 C3 1.138 . S
C361 C119 1.157 . S
C367 C21 1.155 . S
C381 C49 1.160 . S
C387 C161 1.160 1_556 S
C401 C133 1.129 . S
C407 C59 1.153 . S
C421 C147 1.132 . S
C427 C73 1.144 . S
C441 C77 1.142 . S
C447 C217 1.144 . S
C461 C45 1.114 . S
C467 C227 1.118 . S
C481 C241 1.142 . S
C487 C63 1.120 . S
C501 C175 1.117 . S
C507 C115 1.139 . S
C521 C87 1.124 . S
C527 C185 1.120 . S
C541 C199 1.113 . S
C547 C101 1.115 . S
C561 C245 1.129 . S
C567 C129 1.125 . S
C581 C143 1.117 . S
C587 C213 1.113 . S
C601 C231 1.118 . S
C607 C157 1.135 . S
C621 C219 1.599 . S
C627 C9 1.596 . S
C641 C22 1.670 . S
C647 C232 1.672 . S
C661 C36 1.711 . S
C667 C246 1.713 . S
C681 C37 1.619 . S
C687 C163 1.616 . S
C701 C135 1.615 . S
C707 C8 1.736 . S
C721 C23 1.568 . S
C727 C149 1.569 . S
C741 C93 1.553 . S
C747 C51 1.557 . S
C761 C107 1.571 . S
C767 C64 1.685 . S
C781 C78 1.757 . S
C787 C121 1.629 . S
C801 C79 1.610 . S
C807 C205 1.613 . S
C821 C50 1.701 . S
C827 C176 1.703 . S
C841 C65 1.560 . S
C847 C191 1.564 . S
C861 C120 1.740 . S
C867 C247 1.620 . S
C881 C92 1.719 . S
C887 C218 1.716 . S
C901 C233 1.543 . S
C907 C106 1.665 . S
C921 C177 1.577 . S
C927 C134 1.691 . S
C941 C190 1.668 . S
C947 C148 1.670 . S
C961 C204 1.742 . S
C967 C162 1.741 . S
