# Generated by pormake.
# Topology smu, (6)-cn, num edge types: 1
# Building blocks:
#     Node 0, Type 0, BuildingBlock: PAMTOO_clean_sbu_0, # of connection points: 6
#     Node 1, Type 0, BuildingBlock: PAMTOO_clean_sbu_0, # of connection points: 6
#     Node 2, Type 0, BuildingBlock: PAMTOO_clean_sbu_0, # of connection points: 6
#     Node 3, Type 0, BuildingBlock: PAMTOO_clean_sbu_0, # of connection points: 6
#     Node 4, Type 0, BuildingBlock: PAMTOO_clean_sbu_0, # of connection points: 6
#     Node 5, Type 0, BuildingBlock: PAMTOO_clean_sbu_0, # of connection points: 6
#     Edge 6, Type (0, 0), BuildingBlock: ZUJKAS_clean_linker_0, # of connection points: 2
#     Edge 7, Type (0, 0), BuildingBlock: ZUJKAS_clean_linker_0, # of connection points: 2
#     Edge 8, Type (0, 0), BuildingBlock: ZUJKAS_clean_linker_0, # of connection points: 2
#     Edge 9, Type (0, 0), BuildingBlock: ZUJKAS_clean_linker_0, # of connection points: 2
#     Edge 10, Type (0, 0), BuildingBlock: ZUJKAS_clean_linker_0, # of connection points: 2
#     Edge 11, Type (0, 0), BuildingBlock: ZUJKAS_clean_linker_0, # of connection points: 2
#     Edge 12, Type (0, 0), BuildingBlock: ZUJKAS_clean_linker_0, # of connection points: 2
#     Edge 13, Type (0, 0), BuildingBlock: ZUJKAS_clean_linker_0, # of connection points: 2
#     Edge 14, Type (0, 0), BuildingBlock: ZUJKAS_clean_linker_0, # of connection points: 2
#     Edge 15, Type (0, 0), BuildingBlock: ZUJKAS_clean_linker_0, # of connection points: 2
#     Edge 16, Type (0, 0), BuildingBlock: ZUJKAS_clean_linker_0, # of connection points: 2
#     Edge 17, Type (0, 0), BuildingBlock: ZUJKAS_clean_linker_0, # of connection points: 2
#     Edge 18, Type (0, 0), BuildingBlock: ZUJKAS_clean_linker_0, # of connection points: 2
#     Edge 19, Type (0, 0), BuildingBlock: ZUJKAS_clean_linker_0, # of connection points: 2
#     Edge 20, Type (0, 0), BuildingBlock: ZUJKAS_clean_linker_0, # of connection points: 2
#     Edge 21, Type (0, 0), BuildingBlock: ZUJKAS_clean_linker_0, # of connection points: 2
#     Edge 22, Type (0, 0), BuildingBlock: ZUJKAS_clean_linker_0, # of connection points: 2
#     Edge 23, Type (0, 0), BuildingBlock: ZUJKAS_clean_linker_0, # of connection points: 2
# Relax obj value: 0.210
# Max RMSD: 0.298
# Mean RMSD: 0.298
data_MOF--net-smu--node1-PAMTOO_clean_sbu_0--edge1-ZUJKAS_clean_linker_0
_symmetry_space_group_name_H-M    P1
_symmetry_Int_Tables_number       1
_symmetry_cell_setting            triclinic
loop_
_symmetry_equiv_pos_as_xyz
'x, y, z'
_cell_length_a     47.721684
_cell_length_b     47.761364
_cell_length_c     36.363968
_cell_angle_alpha  90.036987
_cell_angle_beta   90.130728
_cell_angle_gamma 120.0713
loop_
_atom_site_label
_atom_site_type_symbol
_atom_site_fract_x
_atom_site_fract_y
_atom_site_fract_z
_atom_type_partial_charge
Dy0 Dy 0.37016 0.08503 0.26378 0.0
Dy1 Dy 0.3135 0.10399 0.27944 0.0
C2 C 0.33649 0.07344 0.34201 0.0
O3 O 0.323 0.04075 0.24777 0.0
O4 O 0.2892 0.05043 0.28405 0.0
O5 O 0.4058 0.07476 0.28641 0.0
O6 O 0.40118 0.07649 0.22741 0.0
O7 O 0.30993 0.09208 0.21936 0.0
O8 O 0.36196 0.10285 0.21042 0.0
O9 O 0.35749 0.14879 0.26074 0.0
O10 O 0.39431 0.13634 0.2839 0.0
O11 O 0.3 0.13573 0.30654 0.0
O12 O 0.26444 0.09486 0.27451 0.0
C13 C 0.29463 0.03111 0.26331 0.0
O14 O 0.34667 0.0613 0.3165 0.0
O15 O 0.3308 0.09707 0.33446 0.0
C16 C 0.45364 0.09397 0.25167 0.0
C17 C 0.52212 0.1283 0.25064 0.0
C18 C 0.505 0.14128 0.26849 0.0
C19 C 0.47108 0.12433 0.26888 0.0
C20 C 0.47057 0.08131 0.23313 0.0
C21 C 0.50446 0.09831 0.23253 0.0
C22 C 0.41804 0.07451 0.2545 0.0
C23 C 0.33344 0.09576 0.19741 0.0
C24 C 0.38678 0.15787 0.27261 0.0
C25 C 0.25568 0.13926 0.28136 0.0
C26 C 0.2256 0.17554 0.26325 0.0
C27 C 0.25922 0.18888 0.25865 0.0
C28 C 0.27417 0.17086 0.26759 0.0
C29 C 0.22219 0.1258 0.28532 0.0
C30 C 0.2073 0.14367 0.27644 0.0
C31 C 0.27037 0.12019 0.29396 0.0
H32 H 0.51783 0.16448 0.28229 0.0
H33 H 0.4585 0.13466 0.28322 0.0
H34 H 0.45756 0.05789 0.21978 0.0
H35 H 0.51685 0.08747 0.21885 0.0
H36 H 0.27397 0.21325 0.2483 0.0
H37 H 0.30011 0.18174 0.26426 0.0
H38 H 0.20754 0.10156 0.29617 0.0
H39 H 0.18152 0.13278 0.28106 0.0
Dy40 Dy 0.7281 0.64784 0.26558 0.0
Dy41 Dy 0.80743 0.6964 0.26276 0.0
C42 C 0.76747 0.68229 0.33785 0.0
O43 O 0.73661 0.69852 0.27312 0.0
O44 O 0.7876 0.728 0.24741 0.0
O45 O 0.6832 0.62229 0.2959 0.0
O46 O 0.68345 0.61578 0.23713 0.0
O47 O 0.79179 0.68518 0.20345 0.0
O48 O 0.73798 0.66973 0.20993 0.0
O49 O 0.79591 0.64888 0.28642 0.0
O50 O 0.75079 0.61769 0.25294 0.0
O51 O 0.85321 0.70085 0.24726 0.0
O52 O 0.85208 0.73897 0.27881 0.0
C53 C 0.76077 0.72583 0.26005 0.0
O54 O 0.74574 0.65439 0.32371 0.0
O55 O 0.79143 0.70393 0.31785 0.0
C56 C 0.64602 0.57056 0.27119 0.0
C57 C 0.60667 0.50241 0.27539 0.0
C58 C 0.63596 0.51877 0.29527 0.0
C59 C 0.65551 0.5525 0.29308 0.0
C60 C 0.61689 0.55442 0.25145 0.0
C61 C 0.59747 0.52076 0.25341 0.0
C62 C 0.66658 0.60594 0.26723 0.0
C63 C 0.76374 0.67904 0.18942 0.0
C64 C 0.77656 0.62143 0.27016 0.0
C65 C 0.90107 0.75336 0.2458 0.0
C66 C 0.96646 0.79734 0.22803 0.0
C67 C 0.95186 0.76472 0.21726 0.0
C68 C 0.91957 0.74296 0.22619 0.0
C69 C 0.91504 0.78639 0.25447 0.0
C70 C 0.94733 0.80814 0.24559 0.0
C71 C 0.87014 0.72916 0.26288 0.0
H72 H 0.64372 0.50557 0.31276 0.0
H73 H 0.67807 0.56442 0.30833 0.0
H74 H 0.60932 0.56786 0.23406 0.0
H75 H 0.57551 0.50911 0.2371 0.0
H76 H 0.96593 0.75552 0.20401 0.0
H77 H 0.90972 0.7176 0.2196 0.0
H78 H 0.9016 0.79521 0.26984 0.0
H79 H 0.95772 0.83322 0.25376 0.0
Dy80 Dy 0.93953 0.29444 0.27043 0.0
Dy81 Dy 0.90907 0.21555 0.26426 0.0
C82 C 0.93533 0.25293 0.34164 0.0
O83 O 0.98269 0.28757 0.26223 0.0
O84 O 0.96056 0.23369 0.27839 0.0
O85 O 0.94704 0.33549 0.30296 0.0
O86 O 0.96269 0.34224 0.24626 0.0
O87 O 0.93236 0.23586 0.21003 0.0
O88 O 0.92878 0.2819 0.21086 0.0
O89 O 0.87311 0.22843 0.24339 0.0
O90 O 0.88625 0.27066 0.28145 0.0
O91 O 0.90708 0.17196 0.24436 0.0
O92 O 0.86655 0.16922 0.27477 0.0
C93 C 0.98562 0.26219 0.27067 0.0
O94 O 0.95115 0.28052 0.32409 0.0
O95 O 0.91372 0.22605 0.32513 0.0
C96 C 0.94252 0.37509 0.26967 0.0
C97 C 0.91059 0.41129 0.2635 0.0
C98 C 0.93723 0.42127 0.28738 0.0
C99 C 0.95302 0.40338 0.29035 0.0
C100 C 0.91604 0.36494 0.24572 0.0
C101 C 0.90031 0.38295 0.24252 0.0
C102 C 0.95805 0.35543 0.27532 0.0
C103 C 0.93441 0.26118 0.19327 0.0
C104 C 0.86468 0.24659 0.26161 0.0
C105 C 0.87103 0.1217 0.27402 0.0
C106 C 0.85256 0.05708 0.29154 0.0
C107 C 0.88524 0.08007 0.28474 0.0
C108 C 0.89439 0.11206 0.27596 0.0
C109 C 0.83874 0.09921 0.28264 0.0
C110 C 0.82959 0.06729 0.29137 0.0
C111 C 0.87842 0.15316 0.25829 0.0
H112 H 0.94548 0.44254 0.30452 0.0
H113 H 0.97312 0.41134 0.30937 0.0
H114 H 0.9073 0.34293 0.22977 0.0
H115 H 0.88017 0.37468 0.22355 0.0
H116 H 0.90362 0.0731 0.28519 0.0
H117 H 0.91948 0.12884 0.26938 0.0
H118 H 0.82018 0.10591 0.28088 0.0
H119 H 0.80419 0.05024 0.29598 0.0
Dy120 Dy 0.08574 0.36716 0.76027 0.0
Dy121 Dy 0.11654 0.31918 0.76987 0.0
C122 C 0.08898 0.32719 0.69099 0.0
O123 O 0.04188 0.31689 0.76447 0.0
O124 O 0.06506 0.28431 0.75835 0.0
O125 O 0.07877 0.40063 0.72721 0.0
O126 O 0.06341 0.39291 0.78397 0.0
O127 O 0.09155 0.31602 0.82272 0.0
O128 O 0.09467 0.36534 0.8205 0.0
O129 O 0.15187 0.36891 0.7892 0.0
O130 O 0.13881 0.39569 0.74793 0.0
O131 O 0.12116 0.28146 0.79699 0.0
O132 O 0.15719 0.3128 0.75702 0.0
C133 C 0.03973 0.28823 0.76093 0.0
O134 O 0.0748 0.34139 0.70704 0.0
O135 O 0.10919 0.32045 0.70851 0.0
C136 C 0.08545 0.4459 0.76025 0.0
C137 C 0.11759 0.51403 0.76741 0.0
C138 C 0.1353 0.49799 0.7624 0.0
C139 C 0.1194 0.46429 0.75899 0.0
C140 C 0.06768 0.46161 0.76581 0.0
C141 C 0.08356 0.49533 0.76944 0.0
C142 C 0.06854 0.41057 0.7547 0.0
C143 C 0.08888 0.33921 0.83864 0.0
C144 C 0.16033 0.39452 0.76915 0.0
C145 C 0.15482 0.26246 0.77143 0.0
C146 C 0.1796 0.22002 0.76456 0.0
C147 C 0.16101 0.21831 0.79527 0.0
C148 C 0.14879 0.2393 0.79865 0.0
C149 C 0.17199 0.26313 0.73973 0.0
C150 C 0.1841 0.24191 0.73623 0.0
C151 C 0.14795 0.28868 0.77992 0.0
H152 H 0.16144 0.51149 0.76025 0.0
H153 H 0.13362 0.45263 0.75476 0.0
H154 H 0.04148 0.44782 0.76705 0.0
H155 H 0.06913 0.50672 0.77394 0.0
H156 H 0.15672 0.20134 0.81726 0.0
H157 H 0.13595 0.23846 0.82355 0.0
H158 H 0.17734 0.28096 0.71845 0.0
H159 H 0.1984 0.24378 0.71229 0.0
Dy160 Dy 0.30108 0.9336 0.77903 0.0
Dy161 Dy 0.22241 0.9041 0.77469 0.0
C162 C 0.26644 0.92895 0.70148 0.0
O163 O 0.29406 0.97697 0.78286 0.0
O164 O 0.24282 0.95511 0.75718 0.0
O165 O 0.34755 0.95091 0.75309 0.0
O166 O 0.34363 0.9462 0.8121 0.0
O167 O 0.23814 0.92994 0.82858 0.0
O168 O 0.28347 0.92605 0.83706 0.0
O169 O 0.23326 0.86784 0.7991 0.0
O170 O 0.27781 0.88085 0.76554 0.0
O171 O 0.17853 0.90133 0.7944 0.0
O172 O 0.176 0.86498 0.75615 0.0
C173 C 0.27038 0.98006 0.76802 0.0
O174 O 0.29239 0.94407 0.72218 0.0
O175 O 0.23785 0.90816 0.7153 0.0
C176 C 0.37997 0.93358 0.78308 0.0
C177 C 0.41471 0.90007 0.78227 0.0
C178 C 0.38335 0.88589 0.76719 0.0
C179 C 0.3661 0.90244 0.76773 0.0
C180 C 0.41112 0.94775 0.79832 0.0
C181 C 0.42835 0.93114 0.79799 0.0
C182 C 0.36199 0.9512 0.78361 0.0
C183 C 0.26163 0.93254 0.8497 0.0
C184 C 0.25214 0.85917 0.78301 0.0
C185 C 0.12773 0.86878 0.76384 0.0
C186 C 0.06114 0.84488 0.75169 0.0
C187 C 0.07698 0.86511 0.78182 0.0
C188 C 0.1099 0.87696 0.78779 0.0
C189 C 0.11234 0.85 0.73247 0.0
C190 C 0.07929 0.83835 0.72628 0.0
C191 C 0.15988 0.87493 0.77602 0.0
H192 H 0.37202 0.86185 0.75531 0.0
H193 H 0.34192 0.89094 0.75611 0.0
H194 H 0.42217 0.97172 0.81037 0.0
H195 H 0.45256 0.94284 0.80951 0.0
H196 H 0.06359 0.87081 0.80156 0.0
H197 H 0.12097 0.89104 0.81242 0.0
H198 H 0.12536 0.84297 0.71375 0.0
H199 H 0.06756 0.82274 0.70286 0.0
Dy200 Dy 0.65238 0.72038 0.76145 0.0
Dy201 Dy 0.70257 0.79947 0.7612 0.0
C202 C 0.68177 0.75845 0.68559 0.0
O203 O 0.70268 0.72702 0.76335 0.0
O204 O 0.7323 0.77911 0.74032 0.0
O205 O 0.61981 0.67643 0.73224 0.0
O206 O 0.62536 0.67526 0.79104 0.0
O207 O 0.71173 0.78148 0.81406 0.0
O208 O 0.66189 0.73617 0.82036 0.0
O209 O 0.65585 0.78786 0.78748 0.0
O210 O 0.62299 0.74436 0.75264 0.0
O211 O 0.74691 0.84335 0.77567 0.0
O212 O 0.70645 0.84578 0.75143 0.0
C213 C 0.72942 0.75107 0.74912 0.0
O214 O 0.6711 0.7316 0.70442 0.0
O215 O 0.6901 0.78645 0.70144 0.0
C216 C 0.57344 0.64062 0.7655 0.0
C217 C 0.50497 0.60529 0.76778 0.0
C218 C 0.52245 0.59216 0.75104 0.0
C219 C 0.55629 0.60964 0.74998 0.0
C220 C 0.55628 0.65397 0.78223 0.0
C221 C 0.52239 0.63642 0.78351 0.0
C222 C 0.60897 0.65934 0.76207 0.0
C223 C 0.6903 0.75731 0.83398 0.0
C224 C 0.62781 0.76959 0.77176 0.0
C225 C 0.75867 0.89379 0.74768 0.0
C226 C 0.79871 0.96009 0.73048 0.0
C227 C 0.81088 0.9435 0.75097 0.0
C228 C 0.79105 0.91078 0.75958 0.0
C229 C 0.74704 0.90985 0.72538 0.0
C230 C 0.76686 0.94261 0.71682 0.0
C231 C 0.73597 0.86202 0.76426 0.0
H232 H 0.50999 0.5686 0.73799 0.0
H233 H 0.5691 0.59913 0.7365 0.0
H234 H 0.56908 0.67804 0.79406 0.0
H235 H 0.50987 0.64721 0.797 0.0
H236 H 0.83515 0.95625 0.7623 0.0
H237 H 0.80058 0.8993 0.77734 0.0
H238 H 0.72211 0.89762 0.71604 0.0
H239 H 0.75688 0.95454 0.70055 0.0
H240 H 0.31302 0.9519 0.89676 0.0
H241 H 0.3225 0.98104 0.95498 0.0
H242 H 0.22966 0.97512 0.94538 0.0
H243 H 0.2199 0.94605 0.88699 0.0
H244 H 0.32077 0.04266 0.9618 0.0
H245 H 0.23376 0.94367 0.05302 0.0
H246 H 0.24919 0.9358 1.01131 0.0
H247 H 0.21914 0.94779 1.00882 0.0
C248 C 0.29433 0.95628 0.90724 0.0
C249 C 0.26564 0.94653 0.88715 0.0
C250 C 0.29989 0.97309 0.94046 0.0
C251 C 0.27676 0.98014 0.9545 0.0
C252 C 0.2477 0.96967 0.93515 0.0
H253 H 0.27576 0.07382 0.16076 0.0
H254 H 0.2616 0.0491 0.09961 0.0
C255 C 0.24219 0.95305 0.90176 0.0
C256 C 0.28379 0.99983 0.98844 0.0
H257 H 0.2629 0.99586 0.07879 0.0
C258 C 0.30812 0.0325 0.98741 0.0
C259 C 0.26695 0.98657 0.02159 0.0
C260 C 0.24089 0.95149 0.02412 0.0
C261 C 0.31618 0.05232 0.01877 0.0
C262 C 0.30005 0.03884 0.05234 0.0
C263 C 0.27526 1.00625 0.05311 0.0
C264 C 0.30957 0.05747 0.08744 0.0
C265 C 0.34159 0.08758 0.0154 0.0
C266 C 0.3414 0.07102 0.10076 0.0
C267 C 0.34967 0.08549 0.13553 0.0
C268 C 0.32617 0.08635 0.15807 0.0
C269 C 0.29456 0.07381 0.14413 0.0
C270 C 0.28635 0.05946 0.10922 0.0
H271 H 0.34329 0.0963 0.98673 0.0
H272 H 0.33641 0.10292 0.0339 0.0
H273 H 0.36555 0.09073 0.02296 0.0
H274 H 0.3596 0.06915 0.08497 0.0
H275 H 0.37417 0.09457 0.14537 0.0
H276 H 0.65113 0.70645 0.64035 0.0
H277 H 0.66813 0.69959 0.57942 0.0
H278 H 0.74492 0.7992 0.58038 0.0
H279 H 0.72806 0.80624 0.64196 0.0
H280 H 0.67657 0.73219 0.51142 0.0
H281 H 0.79209 0.74675 0.56658 0.0
H282 H 0.75898 0.7402 0.59608 0.0
H283 H 0.78416 0.77915 0.57568 0.0
C284 C 0.67131 0.72712 0.62739 0.0
C285 C 0.68833 0.75687 0.64605 0.0
C286 C 0.68102 0.72312 0.59254 0.0
C287 C 0.70814 0.74867 0.57563 0.0
C288 C 0.72421 0.779 0.59322 0.0
H289 H 0.80382 0.74003 0.37387 0.0
H290 H 0.79065 0.7576 0.43123 0.0
C291 C 0.71432 0.78311 0.62818 0.0
C292 C 0.72007 0.74259 0.54048 0.0
H293 H 0.78138 0.73424 0.50366 0.0
C294 C 0.6996 0.73289 0.50962 0.0
C295 C 0.75011 0.74343 0.53822 0.0
C296 C 0.77262 0.75271 0.57088 0.0
C297 C 0.70817 0.72372 0.47667 0.0
C298 C 0.73773 0.72356 0.47475 0.0
C299 C 0.75865 0.73415 0.50527 0.0
C300 C 0.747 0.71202 0.44143 0.0
C301 C 0.68554 0.71444 0.44413 0.0
C302 C 0.72751 0.68014 0.42878 0.0
C303 C 0.73499 0.66993 0.39601 0.0
C304 C 0.76227 0.69136 0.37529 0.0
C305 C 0.78262 0.72282 0.38905 0.0
C306 C 0.77509 0.73299 0.42182 0.0
H307 H 0.66886 0.72423 0.44665 0.0
H308 H 0.69924 0.7233 0.41803 0.0
H309 H 0.67062 0.68768 0.44257 0.0
H310 H 0.70611 0.66329 0.44392 0.0
H311 H 0.7188 0.64553 0.38641 0.0
H312 H 0.95016 0.22493 0.14864 0.0
H313 H 0.9765 0.2398 0.08863 0.0
H314 H 0.97384 0.32867 0.09108 0.0
H315 H 0.94712 0.31389 0.15105 0.0
H316 H 0.9573 0.29735 0.02217 0.0
H317 H 0.07183 0.30931 0.07557 0.0
H318 H 0.03661 0.27081 0.08475 0.0
H319 H 0.04049 0.30679 0.10543 0.0
C320 C 0.95482 0.24751 0.13634 0.0
C321 C 0.94665 0.26829 0.1549 0.0
C322 C 0.97015 0.25608 0.10211 0.0
C323 C 0.97782 0.28569 0.08576 0.0
C324 C 0.96841 0.30584 0.10336 0.0
H325 H 0.07454 0.37883 0.8795 0.0
H326 H 0.04883 0.36772 0.94006 0.0
C327 C 0.95305 0.29729 0.13763 0.0
C328 C 0.99608 0.29579 0.05061 0.0
H329 H 0.06745 0.31197 1.01074 0.0
C330 C 0.98147 0.30078 0.01969 0.0
C331 C 0.02767 0.30034 0.04747 0.0
C332 C 0.04526 0.29685 0.08012 0.0
C333 C 0.99719 0.30922 0.98543 0.0
C334 C 0.02863 0.3134 0.9822 0.0
C335 C 0.04337 0.30877 1.01325 0.0
C336 C 0.04614 0.3214 0.94654 0.0
C337 C 0.97958 0.31258 0.95273 0.0
C338 C 0.05441 0.29972 0.93073 0.0
C339 C 0.06934 0.3061 0.89629 0.0
C340 C 0.0765 0.33443 0.87694 0.0
C341 C 0.06932 0.35674 0.89352 0.0
C342 C 0.05435 0.3503 0.92802 0.0
H343 H 0.95315 0.30127 0.95778 0.0
H344 H 0.98922 0.33863 0.94697 0.0
H345 H 0.98331 0.30134 0.92787 0.0
H346 H 0.04852 0.27737 0.94463 0.0
H347 H 0.07453 0.28837 0.88448 0.0
H348 H 0.32302 0.01236 0.35794 0.0
H349 H 0.30534 0.9837 0.41614 0.0
H350 H 0.31187 0.0685 0.46685 0.0
H351 H 0.32822 0.09698 0.40777 0.0
H352 H 0.33458 0.9933 0.47762 0.0
H353 H 0.22511 1.00213 0.50331 0.0
H354 H 0.24612 0.0133 0.4599 0.0
H355 H 0.26036 0.04127 0.49798 0.0
C356 C 0.32072 0.02502 0.38143 0.0
C357 C 0.32718 0.05706 0.37824 0.0
C358 C 0.31044 1.00848 0.41476 0.0
C359 C 0.30667 0.02361 0.44595 0.0
C360 C 0.31359 0.05585 0.44302 0.0
H361 H 0.32102 0.97472 0.6676 0.0
H362 H 0.32751 0.99421 0.6051 0.0
C363 C 0.32334 0.07229 0.40934 0.0
C364 C 0.29724 1.00598 0.48171 0.0
H365 H 0.2455 0.98594 0.55462 0.0
C366 C 0.31483 0.99146 0.49416 0.0
C367 C 0.27102 1.0028 0.50317 0.0
C368 C 0.24935 0.01539 0.49022 0.0
C369 C 0.30775 0.97488 0.52775 0.0
C370 C 0.2831 0.97371 0.55041 0.0
C371 C 0.26463 0.98713 0.53748 0.0
C372 C 0.27809 0.96103 0.58866 0.0
C373 C 0.32681 0.95872 0.53851 0.0
C374 C 0.24769 0.93639 0.60094 0.0
C375 C 0.24363 0.92523 0.63741 0.0
C376 C 0.26993 0.93863 0.66213 0.0
C377 C 0.30018 0.96337 0.64949 0.0
C378 C 0.30408 0.97456 0.61347 0.0
H379 H 0.33562 0.95171 0.51386 0.0
H380 H 0.34835 0.97594 0.55475 0.0
H381 H 0.31209 0.93678 0.55537 0.0
H382 H 0.22718 0.92578 0.58232 0.0
H383 H 0.21996 0.9064 0.64627 0.0
H384 H 0.74943 0.79104 0.86808 0.0
H385 H 0.76607 0.77848 0.92654 0.0
H386 H 0.669 0.69933 0.94323 0.0
H387 H 0.65223 0.71127 0.88451 0.0
H388 H 0.7458 0.77572 0.99765 0.0
H389 H 0.72203 0.65475 0.9533 0.0
H390 H 0.72276 0.68405 0.92142 0.0
H391 H 0.68726 0.6596 0.94863 0.0
C392 C 0.73149 0.77109 0.88427 0.0
C393 C 0.69949 0.75204 0.87137 0.0
C394 C 0.74112 0.7639 0.9177 0.0
C395 C 0.71901 0.73748 0.9389 0.0
C396 C 0.68673 0.71928 0.92688 0.0
H397 H 0.70875 0.65344 0.14835 0.0
H398 H 0.70189 0.66847 0.08634 0.0
C399 C 0.6771 0.72635 0.8934 0.0
C400 C 0.72966 0.72889 0.97353 0.0
H401 H 0.73136 0.66649 0.01751 0.0
C402 C 0.74301 0.75197 1.00185 0.0
C403 C 0.72631 0.69798 0.9789 0.0
C404 C 0.71413 0.67278 0.94882 0.0
C405 C 0.7517 0.7445 0.03592 0.0
C406 C 0.74726 0.71323 0.04167 0.0
C407 C 0.73475 0.69045 1.01304 0.0
C408 C 0.75269 0.70281 0.07821 0.0
C409 C 0.76431 0.76962 0.06608 0.0
C410 C 0.78377 0.71644 0.09392 0.0
C411 C 0.78787 0.70766 0.12955 0.0
C412 C 0.76089 0.68531 0.15001 0.0
C413 C 0.73005 0.6709 0.13349 0.0
C414 C 0.72604 0.67943 0.09798 0.0
H415 H 0.76172 0.79086 0.05908 0.0
H416 H 0.7513 0.75899 0.0922 0.0
H417 H 0.79036 0.77821 0.07079 0.0
H418 H 0.80473 0.73425 0.0789 0.0
H419 H 0.8119 0.71928 0.14154 0.0
H420 H 0.93491 0.2029 0.37974 0.0
H421 H 0.95874 0.20598 0.44089 0.0
H422 H 0.98204 0.30528 0.45114 0.0
H423 H 0.9588 0.30253 0.39049 0.0
H424 H 0.02831 0.25716 0.46132 0.0
H425 H 0.93397 0.25811 0.5493 0.0
H426 H 0.92559 0.24092 0.50354 0.0
H427 H 0.94507 0.28399 0.50969 0.0
C428 C 0.94451 0.22512 0.39544 0.0
C429 C 0.94485 0.25243 0.38039 0.0
C430 C 0.95834 0.22693 0.43017 0.0
C431 C 0.97207 0.25585 0.45055 0.0
C432 C 0.9714 0.28268 0.43601 0.0
H433 H 0.073 0.35748 0.63938 0.0
H434 H 0.0458 0.33579 0.58079 0.0
C435 C 0.95808 0.28105 0.40132 0.0
C436 C 0.98853 0.25914 0.48636 0.0
H437 H 0.98627 0.27837 0.57627 0.0
C438 C 0.01891 0.26112 0.48672 0.0
C439 C 0.97621 0.26435 0.51933 0.0
C440 C 0.94328 0.26149 0.52072 0.0
C441 C 0.03819 0.27023 0.51878 0.0
C442 C 0.02652 0.2771 0.5513 0.0
C443 C 0.99535 0.27332 0.55129 0.0
C444 C 0.04704 0.29124 0.58468 0.0
C445 C 0.0716 0.27428 0.51711 0.0
C446 C 0.05789 0.2739 0.60596 0.0
C447 C 0.07396 0.28655 0.63961 0.0
C448 C 0.07899 0.31651 0.65252 0.0
C449 C 0.06944 0.33432 0.63023 0.0
C450 C 0.05374 0.32188 0.59676 0.0
H451 H 0.07896 0.27297 0.48849 0.0
H452 H 0.08971 0.29784 0.52932 0.0
H453 H 0.07199 0.25483 0.53336 0.0
H454 H 0.05264 0.25002 0.59745 0.0
H455 H 0.08058 0.27207 0.65648 0.0
H456 H 0.56425 0.13666 0.19486 0.0
H457 H 0.62326 0.16136 0.1986 0.0
H458 H 0.62069 0.18307 0.31318 0.0
H459 H 0.56167 0.15809 0.30985 0.0
H460 H 0.67287 0.22736 0.2239 0.0
H461 H 0.66616 0.12698 0.30832 0.0
H462 H 0.63218 0.12273 0.28182 0.0
H463 H 0.64311 0.14502 0.32421 0.0
C464 C 0.57623 0.1467 0.22087 0.0
C465 C 0.55819 0.14524 0.25211 0.0
C466 C 0.60996 0.16098 0.22288 0.0
C467 C 0.62629 0.17381 0.25623 0.0
C468 C 0.60851 0.17311 0.28724 0.0
H469 H 0.83775 0.281 0.29079 0.0
H470 H 0.78031 0.26582 0.29024 0.0
C471 C 0.57481 0.15902 0.2852 0.0
C472 C 0.66175 0.18675 0.25883 0.0
H473 H 0.71816 0.17033 0.29479 0.0
C474 C 0.68285 0.21507 0.23958 0.0
C475 C 0.67462 0.17048 0.27909 0.0
C476 C 0.65296 0.13948 0.2994 0.0
C477 C 0.71655 0.22748 0.24 0.0
C478 C 0.72937 0.21114 0.26019 0.0
C479 C 0.70826 0.18294 0.27957 0.0
C480 C 0.76437 0.2215 0.25957 0.0
C481 C 0.73818 0.25741 0.21802 0.0
C482 C 0.77437 0.20162 0.24264 0.0
C483 C 0.80698 0.2102 0.24282 0.0
C484 C 0.83039 0.23879 0.26027 0.0
C485 C 0.82037 0.25886 0.27709 0.0
C486 C 0.7876 0.25029 0.27668 0.0
H487 H 0.72414 0.2645 0.19968 0.0
H488 H 0.75279 0.27779 0.2371 0.0
H489 H 0.75523 0.25347 0.20105 0.0
H490 H 0.75685 0.17928 0.22936 0.0
H491 H 0.8137 0.19406 0.22969 0.0
H492 H 0.54024 0.46616 0.27573 0.0
H493 H 0.50625 0.40728 0.2754 0.0
H494 H 0.59134 0.39778 0.27955 0.0
H495 H 0.62577 0.45676 0.2787 0.0
H496 H 0.51129 0.36323 0.22041 0.0
H497 H 0.53 0.33949 0.36576 0.0
H498 H 0.53669 0.37844 0.35077 0.0
H499 H 0.56528 0.36595 0.33916 0.0
C500 C 0.55187 0.45167 0.27628 0.0
C501 C 0.58588 0.46641 0.27708 0.0
C502 C 0.53234 0.41797 0.27634 0.0
C503 C 0.54627 0.3982 0.2777 0.0
C504 C 0.58011 0.41264 0.27897 0.0
H505 H 0.45191 0.18641 0.28768 0.0
H506 H 0.49213 0.24433 0.28751 0.0
C507 C 0.59973 0.4464 0.27863 0.0
C508 C 0.52526 0.36249 0.27652 0.0
H509 H 0.49645 0.29423 0.3289 0.0
C510 C 0.50808 0.34809 0.24407 0.0
C511 C 0.52143 0.34283 0.30731 0.0
C512 C 0.53912 0.35728 0.3429 0.0
C513 C 0.48697 0.31453 0.24161 0.0
C514 C 0.48219 0.2949 0.27282 0.0
C515 C 0.49999 0.30925 0.30504 0.0
C516 C 0.45791 0.2597 0.27296 0.0
C517 C 0.47032 0.30042 0.20539 0.0
C518 C 0.42521 0.24906 0.26547 0.0
C519 C 0.40227 0.21607 0.26533 0.0
C520 C 0.41138 0.19288 0.27318 0.0
C521 C 0.44406 0.20358 0.28143 0.0
C522 C 0.46708 0.23669 0.28136 0.0
H523 H 0.48404 0.3163 0.18198 0.0
H524 H 0.46732 0.27609 0.20067 0.0
H525 H 0.44598 0.29807 0.20555 0.0
H526 H 0.41734 0.26633 0.25992 0.0
H527 H 0.37729 0.2088 0.25926 0.0
H528 H 0.9369 0.47721 0.26561 0.0
H529 H 0.90864 0.50789 0.26509 0.0
H530 H 0.81728 0.41934 0.25316 0.0
H531 H 0.84519 0.38822 0.2557 0.0
H532 H 0.87127 0.51346 0.21326 0.0
H533 H 0.79869 0.46032 0.33976 0.0
H534 H 0.83168 0.45411 0.32699 0.0
H535 H 0.79287 0.43127 0.30488 0.0
C536 C 0.91075 0.46412 0.26342 0.0
C537 C 0.89338 0.43012 0.26112 0.0
C538 C 0.89462 0.48178 0.26279 0.0
C539 C 0.86075 0.46594 0.25975 0.0
C540 C 0.84335 0.43209 0.25639 0.0
H541 H 0.74201 0.55985 0.24141 0.0
H542 H 0.75937 0.51936 0.23739 0.0
C543 C 0.85945 0.41435 0.2573 0.0
C544 C 0.844 0.48514 0.25983 0.0
H545 H 0.78941 0.49778 0.30721 0.0
C546 C 0.85324 0.50985 0.23368 0.0
C547 C 0.82046 0.48049 0.28655 0.0
C548 C 0.81049 0.45532 0.31636 0.0
C549 C 0.84 0.5303 0.23388 0.0
C550 C 0.81691 0.52593 0.26083 0.0
C551 C 0.80696 0.50079 0.28641 0.0
C552 C 0.80523 0.54923 0.26477 0.0
C553 C 0.85123 0.557 0.2058 0.0
C554 C 0.82508 0.57903 0.28199 0.0
C555 C 0.81526 0.60201 0.2845 0.0
C556 C 0.78537 0.59572 0.26967 0.0
C557 C 0.76517 0.56547 0.25305 0.0
C558 C 0.77501 0.54233 0.25073 0.0
H559 H 0.86577 0.55442 0.18363 0.0
H560 H 0.83012 0.55727 0.19328 0.0
H561 H 0.86637 0.58068 0.21962 0.0
H562 H 0.84845 0.58469 0.29305 0.0
H563 H 0.8315 0.625 0.29745 0.0
H564 H 0.17553 0.55533 0.80138 0.0
H565 H 0.20347 0.61439 0.80397 0.0
H566 H 0.12565 0.61363 0.74267 0.0
H567 H 0.09829 0.55473 0.73838 0.0
H568 H 0.18482 0.65958 0.71751 0.0
H569 H 0.17996 0.66812 0.86941 0.0
H570 H 0.19929 0.64631 0.85379 0.0
H571 H 0.15689 0.63045 0.84487 0.0
C572 C 0.16443 0.56768 0.78815 0.0
C573 C 0.13447 0.55009 0.76983 0.0
C574 C 0.1803 0.60149 0.79006 0.0
C575 C 0.16643 0.61847 0.77406 0.0
C576 C 0.13674 0.60106 0.75544 0.0
H577 H 0.19854 0.8088 0.8137 0.0
H578 H 0.18122 0.75144 0.81113 0.0
C579 C 0.12094 0.5673 0.75335 0.0
C580 C 0.18276 0.65437 0.7764 0.0
H581 H 0.20891 0.71735 0.83699 0.0
C582 C 0.19022 0.67225 0.74363 0.0
C583 C 0.18957 0.67086 0.8105 0.0
C584 C 0.18078 0.653 0.84667 0.0
C585 C 0.20387 0.70605 0.74401 0.0
C586 C 0.21089 0.72255 0.77812 0.0
C587 C 0.20384 0.70472 0.81087 0.0
C588 C 0.22285 0.75787 0.78053 0.0
C589 C 0.20947 0.72361 0.7079 0.0
C590 C 0.25242 0.78081 0.76473 0.0
C591 C 0.26244 0.81388 0.76599 0.0
C592 C 0.24313 0.82456 0.78335 0.0
C593 C 0.21404 0.80153 0.80004 0.0
C594 C 0.20406 0.76863 0.79865 0.0
H595 H 0.19624 0.70676 0.68488 0.0
H596 H 0.20171 0.74196 0.70952 0.0
H597 H 0.23569 0.73632 0.70138 0.0
H598 H 0.26767 0.77314 0.75125 0.0
H599 H 0.28507 0.83098 0.75307 0.0
H600 H 0.42049 0.86623 0.72485 0.0
H601 H 0.45215 0.83873 0.72271 0.0
H602 H 0.4831 0.86764 0.83468 0.0
H603 H 0.45116 0.89482 0.83723 0.0
H604 H 0.52049 0.86887 0.73484 0.0
H605 H 0.45061 0.76891 0.83325 0.0
H606 H 0.43398 0.79146 0.81159 0.0
H607 H 0.46139 0.80855 0.84978 0.0
C608 C 0.43367 0.86634 0.7492 0.0
C609 C 0.43327 0.88267 0.78125 0.0
C610 C 0.45184 0.85074 0.74787 0.0
C611 C 0.46962 0.85081 0.77867 0.0
C612 C 0.46913 0.86687 0.81078 0.0
H613 H 0.63373 0.82486 0.80109 0.0
H614 H 0.59354 0.84218 0.80165 0.0
C615 C 0.45115 0.88267 0.81207 0.0
C616 C 0.49013 0.83564 0.77661 0.0
H617 H 0.5022 0.77721 0.81506 0.0
C618 C 0.51634 0.84866 0.75214 0.0
C619 C 0.48448 0.8091 0.79901 0.0
C620 C 0.45593 0.79342 0.8247 0.0
C621 C 0.5377 0.83654 0.75036 0.0
C622 C 0.53276 0.81082 0.77373 0.0
C623 C 0.50597 0.79706 0.79734 0.0
C624 C 0.55615 0.79906 0.775 0.0
C625 C 0.56563 0.85149 0.72376 0.0
C626 C 0.54812 0.76868 0.76052 0.0
C627 C 0.57115 0.75865 0.76 0.0
C628 C 0.60244 0.77876 0.77431 0.0
C629 C 0.60991 0.80874 0.78981 0.0
C630 C 0.58702 0.81878 0.79007 0.0
H631 H 0.56238 0.86646 0.70266 0.0
H632 H 0.58833 0.86726 0.73913 0.0
H633 H 0.56854 0.83246 0.70968 0.0
H634 H 0.52431 0.75309 0.7489 0.0
H635 H 0.56459 0.73538 0.74801 0.0
H636 H 0.19003 0.44766 0.72386 0.0
H637 H 0.24783 0.48876 0.72236 0.0
H638 H 0.2656 0.44248 0.81397 0.0
H639 H 0.20829 0.4015 0.81568 0.0
H640 H 0.29708 0.51342 0.81773 0.0
H641 H 0.31845 0.46636 0.68688 0.0
H642 H 0.2859 0.47512 0.68754 0.0
H643 H 0.28313 0.44261 0.71492 0.0
C644 C 0.20621 0.44641 0.74385 0.0
C645 C 0.19456 0.42113 0.76969 0.0
C646 C 0.23922 0.46983 0.74287 0.0
C647 C 0.26101 0.46843 0.76783 0.0
C648 C 0.24921 0.44394 0.79442 0.0
H649 H 0.46498 0.5399 0.77717 0.0
H650 H 0.40585 0.50919 0.77595 0.0
C651 C 0.2164 0.42048 0.79527 0.0
C652 C 0.29634 0.49155 0.76572 0.0
H653 H 0.36371 0.5098 0.71529 0.0
C654 C 0.31165 0.51297 0.79515 0.0
C655 C 0.31525 0.49054 0.73641 0.0
C656 C 0.30006 0.46735 0.70465 0.0
C657 C 0.34548 0.53319 0.79621 0.0
C658 C 0.3644 0.5319 0.7671 0.0
C659 C 0.34906 0.51079 0.73747 0.0
C660 C 0.40029 0.55099 0.76788 0.0
C661 C 0.36095 0.55502 0.82897 0.0
C662 C 0.41678 0.5847 0.76357 0.0
C663 C 0.4507 0.60238 0.76377 0.0
C664 C 0.4688 0.58667 0.76838 0.0
C665 C 0.452 0.55283 0.77293 0.0
C666 C 0.41815 0.53521 0.77247 0.0
H667 H 0.34335 0.54996 0.85149 0.0
H668 H 0.38118 0.55218 0.83976 0.0
H669 H 0.37118 0.58059 0.8204 0.0
H670 H 0.40341 0.59729 0.75959 0.0
H671 H 0.46269 0.62828 0.75958 0.0
H672 H 0.24798 0.23959 0.27944 0.0
H673 H 0.218 0.26873 0.27534 0.0
H674 H 0.13626 0.1839 0.22895 0.0
H675 H 0.16651 0.15525 0.23123 0.0
H676 H 0.14466 0.23951 0.19726 0.0
H677 H 0.14771 0.2496 0.34996 0.0
H678 H 0.18636 0.26835 0.32748 0.0
H679 H 0.16087 0.2251 0.32616 0.0
C680 C 0.22392 0.22739 0.26754 0.0
C681 C 0.20945 0.19485 0.25626 0.0
C682 C 0.20667 0.24398 0.26561 0.0
C683 C 0.17457 0.22824 0.25271 0.0
C684 C 0.16088 0.19649 0.23932 0.0
H685 H 1.00204 0.22121 0.30307 0.0
H686 H 0.05261 0.22086 0.29783 0.0
C687 C 0.17812 0.18001 0.24098 0.0
C688 C 0.15405 0.24345 0.25549 0.0
H689 H 0.1158 0.26602 0.31814 0.0
C690 C 0.13875 0.24589 0.22359 0.0
C691 C 0.14624 0.25157 0.28996 0.0
C692 C 0.1609 0.24836 0.32543 0.0
C693 C 0.11465 0.25458 0.22541 0.0
C694 C 0.10606 0.26155 0.26003 0.0
C695 C 0.12264 0.26087 0.29164 0.0
C696 C 0.07664 0.26429 0.26486 0.0
C697 C 0.09708 0.25414 0.19066 0.0
C698 C 0.07352 0.28934 0.24875 0.0
C699 C 0.04432 0.28962 0.25167 0.0
C700 C 0.01789 0.26477 0.27066 0.0
C701 C 0.02173 0.24055 0.28789 0.0
C702 C 0.05073 0.24036 0.28507 0.0
H703 H 0.10369 0.24395 0.16693 0.0
H704 H 0.07048 0.23965 0.19472 0.0
H705 H 0.10327 0.2792 0.18367 0.0
H706 H 0.09342 0.30833 0.23348 0.0
H707 H 0.04211 0.30861 0.23811 0.0
H708 H 1.00801 0.83968 0.27913 0.0
H709 H 0.06686 0.87275 0.27574 0.0
H710 H 0.06509 0.83642 0.16672 0.0
H711 H 1.00576 0.8034 0.16959 0.0
H712 H 0.11076 0.84664 0.26152 0.0
H713 H 0.12105 0.93842 0.15947 0.0
H714 H 0.08462 0.91479 0.18591 0.0
H715 H 0.09458 0.89618 0.14931 0.0
C716 C 0.01997 0.83913 0.25408 0.0
C717 C 1.00209 0.81908 0.22449 0.0
C718 C 0.05366 0.85783 0.25236 0.0
C719 C 0.07027 0.85709 0.22097 0.0
C720 C 0.05265 0.83747 0.19111 0.0
H721 H 0.27943 0.99551 0.19969 0.0
H722 H 0.22711 0.94723 0.18489 0.0
C723 C 0.01882 0.81855 0.19287 0.0
C724 C 0.10612 0.8765 0.22041 0.0
H725 H 0.16896 0.94709 0.18787 0.0
C726 C 0.12359 0.86834 0.24499 0.0
C727 C 0.1228 0.90451 0.19848 0.0
C728 C 0.10499 0.91429 0.17182 0.0
C729 C 0.15716 0.88831 0.2495 0.0
C730 C 0.17354 0.91755 0.22949 0.0
C731 C 0.15638 0.92467 0.20321 0.0
C732 C 0.20695 0.94316 0.23922 0.0
C733 C 0.17462 0.87832 0.27642 0.0
C734 C 0.21314 0.95648 0.27473 0.0
C735 C 0.24273 0.98383 0.28311 0.0
C736 C 0.26683 0.99853 0.25617 0.0
C737 C 0.26143 0.98431 0.22111 0.0
C738 C 0.23151 0.95694 0.21258 0.0
H739 H 0.1623 0.85156 0.2789 0.0
H740 H 0.20015 0.88758 0.26813 0.0
H741 H 0.17449 0.88823 0.304 0.0
H742 H 0.19441 0.94679 0.29551 0.0
H743 H 0.2462 0.99439 0.31031 0.0
H744 H 0.80651 0.0125 0.3382 0.0
H745 H 0.78572 0.95401 0.33988 0.0
H746 H 0.85301 0.9641 0.25492 0.0
H747 H 0.87359 0.0222 0.2527 0.0
H748 H 0.75719 0.90956 0.28146 0.0
H749 H 0.86702 0.91089 0.33326 0.0
H750 H 0.86152 0.94555 0.33681 0.0
H751 H 0.87522 0.93701 0.29443 0.0
C752 C 0.81699 1.00227 0.32002 0.0
C753 C 0.8419 0.02213 0.29547 0.0
C754 C 0.80512 0.96888 0.32108 0.0
C755 C 0.81811 0.9548 0.29787 0.0
C756 C 0.84314 0.97457 0.27367 0.0
H757 H 0.7931 0.77897 0.21721 0.0
H758 H 0.80182 0.83302 0.22915 0.0
C759 C 0.85498 1.00785 0.27255 0.0
C760 C 0.80476 0.91931 0.29744 0.0
H761 H 0.82754 0.86219 0.30299 0.0
C762 C 0.77234 0.89904 0.28682 0.0
C763 C 0.82453 0.90567 0.3047 0.0
C764 C 0.85891 0.92587 0.31831 0.0
C765 C 0.75979 0.86571 0.28111 0.0
C766 C 0.78018 0.85254 0.28635 0.0
C767 C 0.81206 0.87251 0.2987 0.0
C768 C 0.77015 0.81876 0.27633 0.0
C769 C 0.72542 0.84503 0.2678 0.0
C770 C 0.74854 0.79263 0.29826 0.0
C771 C 0.74334 0.76147 0.29139 0.0
C772 C 0.75999 0.75629 0.26272 0.0
C773 C 0.78008 0.78225 0.23963 0.0
C774 C 0.78512 0.81315 0.2464 0.0
H775 H 0.71343 0.85945 0.26244 0.0
H776 H 0.725 0.83217 0.24217 0.0
H777 H 0.71121 0.82642 0.2888 0.0
H778 H 0.737 0.79661 0.32171 0.0
H779 H 0.72802 0.74199 0.30987 0.0
H780 H 0.21386 0.21225 0.81957 0.0
H781 H 0.23961 0.17911 0.81925 0.0
H782 H 0.20762 0.15016 0.70746 0.0
H783 H 0.18231 0.18393 0.70743 0.0
H784 H 0.21116 0.11556 0.81191 0.0
H785 H 0.30062 0.17238 0.70004 0.0
H786 H 0.27972 0.1914 0.72001 0.0
H787 H 0.2603 0.16059 0.6853 0.0
C788 C 0.21239 0.19888 0.79486 0.0
C789 C 0.1959 0.2005 0.76356 0.0
C790 C 0.22728 0.18011 0.79466 0.0
C791 C 0.22601 0.16249 0.76319 0.0
C792 C 0.20972 0.16421 0.73175 0.0
H793 H 0.24388 0.99936 0.71507 0.0
H794 H 0.23958 0.04819 0.7147 0.0
C795 C 0.19506 0.18331 0.73181 0.0
C796 C 0.23958 0.14049 0.76437 0.0
H797 H 0.28884 0.11929 0.7189 0.0
C798 C 0.22858 0.11676 0.79194 0.0
C799 C 0.2624 0.14211 0.73838 0.0
C800 C 0.27671 0.16821 0.7095 0.0
C801 C 0.23865 0.09379 0.7933 0.0
C802 C 0.26049 0.09467 0.76652 0.0
C803 C 0.2722 0.11884 0.73949 0.0
C804 C 0.26828 0.06841 0.76392 0.0
C805 C 0.22475 0.06777 0.82236 0.0
C806 C 0.28693 0.06426 0.79102 0.0
C807 C 0.28965 0.03636 0.79117 0.0
C808 C 0.2734 0.01222 0.76445 0.0
C809 C 0.2564 0.01747 0.7362 0.0
C810 C 0.25402 0.04538 0.73584 0.0
H811 H 0.20524 0.06829 0.83842 0.0
H812 H 0.21483 0.04351 0.80953 0.0
H813 H 0.24425 0.07117 0.84169 0.0
H814 H 0.29821 0.08193 0.81285 0.0
H815 H 0.30276 0.0328 0.81333 0.0
H816 H 0.02431 0.84189 0.69215 0.0
H817 H 0.9651 0.81768 0.68989 0.0
H818 H 0.95864 0.78586 0.80216 0.0
H819 H 0.01751 0.81077 0.80483 0.0
H820 H 0.91401 0.75641 0.69986 0.0
H821 H 0.91363 0.83783 0.80842 0.0
H822 H 0.95041 0.84422 0.78701 0.0
H823 H 0.93205 0.815 0.82332 0.0
C824 C 1.01012 0.82965 0.71622 0.0
C825 C 0.02541 0.82872 0.74887 0.0
C826 C 0.97639 0.81581 0.71493 0.0
C827 C 0.95753 0.80064 0.74617 0.0
C828 C 0.97275 0.7983 0.77812 0.0
H829 H 0.75218 0.72134 0.79457 0.0
H830 H 0.80635 0.72709 0.79247 0.0
C831 C 1.00635 0.81247 0.77958 0.0
C832 C 0.92209 0.78807 0.74587 0.0
H833 H 0.86251 0.79491 0.78957 0.0
C834 C 0.90274 0.76482 0.71946 0.0
C835 C 0.90741 0.79917 0.77139 0.0
C836 C 0.92697 0.82565 0.79888 0.0
C837 C 0.86908 0.75229 0.71806 0.0
C838 C 0.85455 0.76325 0.74374 0.0
C839 C 0.87377 0.78617 0.77034 0.0
C840 C 0.82002 0.75397 0.74147 0.0
C841 C 0.84922 0.72754 0.68915 0.0
C842 C 0.80974 0.76662 0.71313 0.0
C843 C 0.7792 0.76375 0.71455 0.0
C844 C 0.75833 0.74791 0.74416 0.0
C845 C 0.76773 0.73333 0.77127 0.0
C846 C 0.79861 0.73669 0.77016 0.0
H847 H 0.86271 0.71667 0.67642 0.0
H848 H 0.82639 0.70796 0.70116 0.0
H849 H 0.84265 0.73936 0.66717 0.0
H850 H 0.82607 0.78041 0.69107 0.0
H851 H 0.77244 0.77517 0.69329 0.0
H852 H 0.02471 0.23039 0.78954 0.0
H853 H 0.97526 0.17863 0.7807 0.0
H854 H 0.9332 0.22585 0.71946 0.0
H855 H 0.98321 0.27843 0.72851 0.0
H856 H 0.90696 0.15908 0.79766 0.0
H857 H 0.93402 0.15422 0.64945 0.0
H858 H 0.96511 0.18063 0.68145 0.0
H859 H 0.93469 0.18984 0.66708 0.0
C860 C 1.00481 0.2299 0.77457 0.0
C861 C 1.00781 0.25837 0.75952 0.0
C862 C 0.97655 0.20031 0.76962 0.0
C863 C 0.95076 0.19839 0.74916 0.0
C864 C 0.95301 0.2269 0.73518 0.0
H865 H 0.77797 1.00396 0.73688 0.0
H866 H 0.81091 0.06301 0.73716 0.0
C867 C 0.98139 0.25685 0.74056 0.0
C868 C 0.92263 0.16598 0.74135 0.0
H869 H 0.89265 0.10653 0.67592 0.0
C870 C 0.90321 0.14773 0.77087 0.0
C871 C 0.9183 0.15124 0.70647 0.0
C872 C 0.9391 0.16977 0.67415 0.0
C873 C 0.88043 0.1147 0.76683 0.0
C874 C 0.87685 0.09964 0.73223 0.0
C875 C 0.8954 0.11821 0.70234 0.0
C876 C 0.85616 0.06412 0.72762 0.0
C877 C 0.86173 0.09574 0.80012 0.0
C878 C 0.87053 0.0452 0.72073 0.0
C879 C 0.85175 0.01143 0.72024 0.0
C880 C 0.81818 0.99591 0.72644 0.0
C881 C 0.80369 0.01506 0.73165 0.0
C882 C 0.82251 0.04884 0.73219 0.0
H883 H 0.87127 0.10978 0.82601 0.0
H884 H 0.83601 0.08919 0.79714 0.0
H885 H 0.86251 0.07296 0.80252 0.0
H886 H 0.89648 0.05656 0.71699 0.0
H887 H 0.86362 0.99745 0.71569 0.0
loop_
_geom_bond_atom_site_label_1
_geom_bond_atom_site_label_2
_geom_bond_distance
_geom_bond_site_symmetry_2
_ccdc_geom_bond_type
Dy0 O3 2.307 . S
Dy0 O5 2.395 . S
Dy0 O6 2.379 . S
Dy0 O8 2.339 . S
Dy0 O10 2.298 . S
Dy0 O14 2.275 . S
Dy0 C22 2.738 . S
Dy1 O4 2.298 . S
Dy1 O7 2.275 . S
Dy1 O9 2.307 . S
Dy1 O11 2.395 . S
Dy1 O12 2.379 . S
Dy1 O15 2.339 . S
Dy1 C31 2.738 . S
C2 O14 1.254 . S
C2 O15 1.257 . S
O3 Dy0 2.307 . S
O3 C13 1.266 . S
O4 Dy1 2.298 . S
O4 C13 1.236 . S
O5 Dy0 2.395 . S
O5 C22 1.255 . S
O6 Dy0 2.379 . S
O6 C22 1.249 . S
O7 Dy1 2.275 . S
O7 C23 1.254 . S
O8 Dy0 2.339 . S
O8 C23 1.257 . S
O9 Dy1 2.307 . S
O9 C24 1.266 . S
O10 Dy0 2.298 . S
O10 C24 1.236 . S
O11 Dy1 2.395 . S
O11 C31 1.255 . S
O12 Dy1 2.379 . S
O12 C31 1.249 . S
C13 O3 1.266 . S
C13 O4 1.236 . S
O14 Dy0 2.275 . S
O14 C2 1.254 . S
O15 Dy1 2.339 . S
O15 C2 1.257 . S
C16 C19 1.344 . S
C16 C20 1.328 . S
C16 C22 1.516 . S
C17 C18 1.304 . S
C17 C21 1.323 . S
C18 C17 1.304 . S
C18 C19 1.371 . S
C18 H32 0.930 . S
C19 C16 1.344 . S
C19 C18 1.371 . S
C19 H33 0.931 . S
C20 C16 1.328 . S
C20 C21 1.433 . S
C20 H34 0.931 . S
C21 C17 1.323 . S
C21 C20 1.433 . S
C21 H35 0.933 . S
C22 Dy0 2.738 . S
C22 O5 1.255 . S
C22 O6 1.249 . S
C22 C16 1.516 . S
C23 O7 1.254 . S
C23 O8 1.257 . S
C24 O9 1.266 . S
C24 O10 1.236 . S
C25 C28 1.344 . S
C25 C29 1.328 . S
C25 C31 1.516 . S
C26 C27 1.304 . S
C26 C30 1.323 . S
C27 C26 1.304 . S
C27 C28 1.371 . S
C27 H36 0.930 . S
C28 C25 1.344 . S
C28 C27 1.371 . S
C28 H37 0.931 . S
C29 C25 1.328 . S
C29 C30 1.433 . S
C29 H38 0.931 . S
C30 C26 1.323 . S
C30 C29 1.433 . S
C30 H39 0.933 . S
C31 Dy1 2.738 . S
C31 O11 1.255 . S
C31 O12 1.249 . S
C31 C25 1.516 . S
H32 C18 0.930 . S
H33 C19 0.931 . S
H34 C20 0.931 . S
H35 C21 0.933 . S
H36 C27 0.930 . S
H37 C28 0.931 . S
H38 C29 0.931 . S
H39 C30 0.933 . S
Dy40 O43 2.307 . S
Dy40 O45 2.395 . S
Dy40 O46 2.379 . S
Dy40 O48 2.339 . S
Dy40 O50 2.298 . S
Dy40 O54 2.275 . S
Dy40 C62 2.738 . S
Dy41 O44 2.298 . S
Dy41 O47 2.275 . S
Dy41 O49 2.307 . S
Dy41 O51 2.395 . S
Dy41 O52 2.379 . S
Dy41 O55 2.339 . S
Dy41 C71 2.738 . S
C42 O54 1.254 . S
C42 O55 1.257 . S
O43 Dy40 2.307 . S
O43 C53 1.266 . S
O44 Dy41 2.298 . S
O44 C53 1.236 . S
O45 Dy40 2.395 . S
O45 C62 1.255 . S
O46 Dy40 2.379 . S
O46 C62 1.249 . S
O47 Dy41 2.275 . S
O47 C63 1.254 . S
O48 Dy40 2.339 . S
O48 C63 1.257 . S
O49 Dy41 2.307 . S
O49 C64 1.266 . S
O50 Dy40 2.298 . S
O50 C64 1.236 . S
O51 Dy41 2.395 . S
O51 C71 1.255 . S
O52 Dy41 2.379 . S
O52 C71 1.249 . S
C53 O43 1.266 . S
C53 O44 1.236 . S
O54 Dy40 2.275 . S
O54 C42 1.254 . S
O55 Dy41 2.339 . S
O55 C42 1.257 . S
C56 C59 1.344 . S
C56 C60 1.328 . S
C56 C62 1.516 . S
C57 C58 1.304 . S
C57 C61 1.323 . S
C58 C57 1.304 . S
C58 C59 1.371 . S
C58 H72 0.930 . S
C59 C56 1.344 . S
C59 C58 1.371 . S
C59 H73 0.931 . S
C60 C56 1.328 . S
C60 C61 1.433 . S
C60 H74 0.931 . S
C61 C57 1.323 . S
C61 C60 1.433 . S
C61 H75 0.933 . S
C62 Dy40 2.738 . S
C62 O45 1.255 . S
C62 O46 1.249 . S
C62 C56 1.516 . S
C63 O47 1.254 . S
C63 O48 1.257 . S
C64 O49 1.266 . S
C64 O50 1.236 . S
C65 C68 1.344 . S
C65 C69 1.328 . S
C65 C71 1.516 . S
C66 C67 1.304 . S
C66 C70 1.323 . S
C67 C66 1.304 . S
C67 C68 1.371 . S
C67 H76 0.930 . S
C68 C65 1.344 . S
C68 C67 1.371 . S
C68 H77 0.931 . S
C69 C65 1.328 . S
C69 C70 1.433 . S
C69 H78 0.931 . S
C70 C66 1.323 . S
C70 C69 1.433 . S
C70 H79 0.933 . S
C71 Dy41 2.738 . S
C71 O51 1.255 . S
C71 O52 1.249 . S
C71 C65 1.516 . S
H72 C58 0.930 . S
H73 C59 0.931 . S
H74 C60 0.931 . S
H75 C61 0.933 . S
H76 C67 0.930 . S
H77 C68 0.931 . S
H78 C69 0.931 . S
H79 C70 0.933 . S
Dy80 O83 2.307 . S
Dy80 O85 2.395 . S
Dy80 O86 2.379 . S
Dy80 O88 2.339 . S
Dy80 O90 2.298 . S
Dy80 O94 2.275 . S
Dy80 C102 2.738 . S
Dy81 O84 2.298 . S
Dy81 O87 2.275 . S
Dy81 O89 2.307 . S
Dy81 O91 2.395 . S
Dy81 O92 2.379 . S
Dy81 O95 2.339 . S
Dy81 C111 2.738 . S
C82 O94 1.254 . S
C82 O95 1.257 . S
O83 Dy80 2.307 . S
O83 C93 1.266 . S
O84 Dy81 2.298 . S
O84 C93 1.236 . S
O85 Dy80 2.395 . S
O85 C102 1.255 . S
O86 Dy80 2.379 . S
O86 C102 1.249 . S
O87 Dy81 2.275 . S
O87 C103 1.254 . S
O88 Dy80 2.339 . S
O88 C103 1.257 . S
O89 Dy81 2.307 . S
O89 C104 1.266 . S
O90 Dy80 2.298 . S
O90 C104 1.236 . S
O91 Dy81 2.395 . S
O91 C111 1.255 . S
O92 Dy81 2.379 . S
O92 C111 1.249 . S
C93 O83 1.266 . S
C93 O84 1.236 . S
O94 Dy80 2.275 . S
O94 C82 1.254 . S
O95 Dy81 2.339 . S
O95 C82 1.257 . S
C96 C99 1.344 . S
C96 C100 1.328 . S
C96 C102 1.516 . S
C97 C98 1.304 . S
C97 C101 1.323 . S
C98 C97 1.304 . S
C98 C99 1.371 . S
C98 H112 0.930 . S
C99 C96 1.344 . S
C99 C98 1.371 . S
C99 H113 0.931 . S
C100 C96 1.328 . S
C100 C101 1.433 . S
C100 H114 0.931 . S
C101 C97 1.323 . S
C101 C100 1.433 . S
C101 H115 0.933 . S
C102 Dy80 2.738 . S
C102 O85 1.255 . S
C102 O86 1.249 . S
C102 C96 1.516 . S
C103 O87 1.254 . S
C103 O88 1.257 . S
C104 O89 1.266 . S
C104 O90 1.236 . S
C105 C108 1.344 . S
C105 C109 1.328 . S
C105 C111 1.516 . S
C106 C107 1.304 . S
C106 C110 1.323 . S
C107 C106 1.304 . S
C107 C108 1.371 . S
C107 H116 0.930 . S
C108 C105 1.344 . S
C108 C107 1.371 . S
C108 H117 0.931 . S
C109 C105 1.328 . S
C109 C110 1.433 . S
C109 H118 0.931 . S
C110 C106 1.323 . S
C110 C109 1.433 . S
C110 H119 0.933 . S
C111 Dy81 2.738 . S
C111 O91 1.255 . S
C111 O92 1.249 . S
C111 C105 1.516 . S
H112 C98 0.930 . S
H113 C99 0.931 . S
H114 C100 0.931 . S
H115 C101 0.933 . S
H116 C107 0.930 . S
H117 C108 0.931 . S
H118 C109 0.931 . S
H119 C110 0.933 . S
Dy120 O123 2.307 . S
Dy120 O125 2.395 . S
Dy120 O126 2.379 . S
Dy120 O128 2.339 . S
Dy120 O130 2.298 . S
Dy120 O134 2.275 . S
Dy120 C142 2.738 . S
Dy121 O124 2.298 . S
Dy121 O127 2.275 . S
Dy121 O129 2.307 . S
Dy121 O131 2.395 . S
Dy121 O132 2.379 . S
Dy121 O135 2.339 . S
Dy121 C151 2.738 . S
C122 O134 1.254 . S
C122 O135 1.257 . S
O123 Dy120 2.307 . S
O123 C133 1.266 . S
O124 Dy121 2.298 . S
O124 C133 1.236 . S
O125 Dy120 2.395 . S
O125 C142 1.255 . S
O126 Dy120 2.379 . S
O126 C142 1.249 . S
O127 Dy121 2.275 . S
O127 C143 1.254 . S
O128 Dy120 2.339 . S
O128 C143 1.257 . S
O129 Dy121 2.307 . S
O129 C144 1.266 . S
O130 Dy120 2.298 . S
O130 C144 1.236 . S
O131 Dy121 2.395 . S
O131 C151 1.255 . S
O132 Dy121 2.379 . S
O132 C151 1.249 . S
C133 O123 1.266 . S
C133 O124 1.236 . S
O134 Dy120 2.275 . S
O134 C122 1.254 . S
O135 Dy121 2.339 . S
O135 C122 1.257 . S
C136 C139 1.344 . S
C136 C140 1.328 . S
C136 C142 1.516 . S
C137 C138 1.304 . S
C137 C141 1.323 . S
C138 C137 1.304 . S
C138 C139 1.371 . S
C138 H152 0.930 . S
C139 C136 1.344 . S
C139 C138 1.371 . S
C139 H153 0.931 . S
C140 C136 1.328 . S
C140 C141 1.433 . S
C140 H154 0.931 . S
C141 C137 1.323 . S
C141 C140 1.433 . S
C141 H155 0.933 . S
C142 Dy120 2.738 . S
C142 O125 1.255 . S
C142 O126 1.249 . S
C142 C136 1.516 . S
C143 O127 1.254 . S
C143 O128 1.257 . S
C144 O129 1.266 . S
C144 O130 1.236 . S
C145 C148 1.344 . S
C145 C149 1.328 . S
C145 C151 1.516 . S
C146 C147 1.304 . S
C146 C150 1.323 . S
C147 C146 1.304 . S
C147 C148 1.371 . S
C147 H156 0.930 . S
C148 C145 1.344 . S
C148 C147 1.371 . S
C148 H157 0.931 . S
C149 C145 1.328 . S
C149 C150 1.433 . S
C149 H158 0.931 . S
C150 C146 1.323 . S
C150 C149 1.433 . S
C150 H159 0.933 . S
C151 Dy121 2.738 . S
C151 O131 1.255 . S
C151 O132 1.249 . S
C151 C145 1.516 . S
H152 C138 0.930 . S
H153 C139 0.931 . S
H154 C140 0.931 . S
H155 C141 0.933 . S
H156 C147 0.930 . S
H157 C148 0.931 . S
H158 C149 0.931 . S
H159 C150 0.933 . S
Dy160 O163 2.307 . S
Dy160 O165 2.395 . S
Dy160 O166 2.379 . S
Dy160 O168 2.339 . S
Dy160 O170 2.298 . S
Dy160 O174 2.275 . S
Dy160 C182 2.738 . S
Dy161 O164 2.298 . S
Dy161 O167 2.275 . S
Dy161 O169 2.307 . S
Dy161 O171 2.395 . S
Dy161 O172 2.379 . S
Dy161 O175 2.339 . S
Dy161 C191 2.738 . S
C162 O174 1.254 . S
C162 O175 1.257 . S
O163 Dy160 2.307 . S
O163 C173 1.266 . S
O164 Dy161 2.298 . S
O164 C173 1.236 . S
O165 Dy160 2.395 . S
O165 C182 1.255 . S
O166 Dy160 2.379 . S
O166 C182 1.249 . S
O167 Dy161 2.275 . S
O167 C183 1.254 . S
O168 Dy160 2.339 . S
O168 C183 1.257 . S
O169 Dy161 2.307 . S
O169 C184 1.266 . S
O170 Dy160 2.298 . S
O170 C184 1.236 . S
O171 Dy161 2.395 . S
O171 C191 1.255 . S
O172 Dy161 2.379 . S
O172 C191 1.249 . S
C173 O163 1.266 . S
C173 O164 1.236 . S
O174 Dy160 2.275 . S
O174 C162 1.254 . S
O175 Dy161 2.339 . S
O175 C162 1.257 . S
C176 C179 1.344 . S
C176 C180 1.328 . S
C176 C182 1.516 . S
C177 C178 1.304 . S
C177 C181 1.323 . S
C178 C177 1.304 . S
C178 C179 1.371 . S
C178 H192 0.930 . S
C179 C176 1.344 . S
C179 C178 1.371 . S
C179 H193 0.931 . S
C180 C176 1.328 . S
C180 C181 1.433 . S
C180 H194 0.931 . S
C181 C177 1.323 . S
C181 C180 1.433 . S
C181 H195 0.933 . S
C182 Dy160 2.738 . S
C182 O165 1.255 . S
C182 O166 1.249 . S
C182 C176 1.516 . S
C183 O167 1.254 . S
C183 O168 1.257 . S
C184 O169 1.266 . S
C184 O170 1.236 . S
C185 C188 1.344 . S
C185 C189 1.328 . S
C185 C191 1.516 . S
C186 C187 1.304 . S
C186 C190 1.323 . S
C187 C186 1.304 . S
C187 C188 1.371 . S
C187 H196 0.930 . S
C188 C185 1.344 . S
C188 C187 1.371 . S
C188 H197 0.931 . S
C189 C185 1.328 . S
C189 C190 1.433 . S
C189 H198 0.931 . S
C190 C186 1.323 . S
C190 C189 1.433 . S
C190 H199 0.933 . S
C191 Dy161 2.738 . S
C191 O171 1.255 . S
C191 O172 1.249 . S
C191 C185 1.516 . S
H192 C178 0.930 . S
H193 C179 0.931 . S
H194 C180 0.931 . S
H195 C181 0.933 . S
H196 C187 0.930 . S
H197 C188 0.931 . S
H198 C189 0.931 . S
H199 C190 0.933 . S
Dy200 O203 2.307 . S
Dy200 O205 2.395 . S
Dy200 O206 2.379 . S
Dy200 O208 2.339 . S
Dy200 O210 2.298 . S
Dy200 O214 2.275 . S
Dy200 C222 2.738 . S
Dy201 O204 2.298 . S
Dy201 O207 2.275 . S
Dy201 O209 2.307 . S
Dy201 O211 2.395 . S
Dy201 O212 2.379 . S
Dy201 O215 2.339 . S
Dy201 C231 2.738 . S
C202 O214 1.254 . S
C202 O215 1.257 . S
O203 Dy200 2.307 . S
O203 C213 1.266 . S
O204 Dy201 2.298 . S
O204 C213 1.236 . S
O205 Dy200 2.395 . S
O205 C222 1.255 . S
O206 Dy200 2.379 . S
O206 C222 1.249 . S
O207 Dy201 2.275 . S
O207 C223 1.254 . S
O208 Dy200 2.339 . S
O208 C223 1.257 . S
O209 Dy201 2.307 . S
O209 C224 1.266 . S
O210 Dy200 2.298 . S
O210 C224 1.236 . S
O211 Dy201 2.395 . S
O211 C231 1.255 . S
O212 Dy201 2.379 . S
O212 C231 1.249 . S
C213 O203 1.266 . S
C213 O204 1.236 . S
O214 Dy200 2.275 . S
O214 C202 1.254 . S
O215 Dy201 2.339 . S
O215 C202 1.257 . S
C216 C219 1.344 . S
C216 C220 1.328 . S
C216 C222 1.516 . S
C217 C218 1.304 . S
C217 C221 1.323 . S
C218 C217 1.304 . S
C218 C219 1.371 . S
C218 H232 0.930 . S
C219 C216 1.344 . S
C219 C218 1.371 . S
C219 H233 0.931 . S
C220 C216 1.328 . S
C220 C221 1.433 . S
C220 H234 0.931 . S
C221 C217 1.323 . S
C221 C220 1.433 . S
C221 H235 0.933 . S
C222 Dy200 2.738 . S
C222 O205 1.255 . S
C222 O206 1.249 . S
C222 C216 1.516 . S
C223 O207 1.254 . S
C223 O208 1.257 . S
C224 O209 1.266 . S
C224 O210 1.236 . S
C225 C228 1.344 . S
C225 C229 1.328 . S
C225 C231 1.516 . S
C226 C227 1.304 . S
C226 C230 1.323 . S
C227 C226 1.304 . S
C227 C228 1.371 . S
C227 H236 0.930 . S
C228 C225 1.344 . S
C228 C227 1.371 . S
C228 H237 0.931 . S
C229 C225 1.328 . S
C229 C230 1.433 . S
C229 H238 0.931 . S
C230 C226 1.323 . S
C230 C229 1.433 . S
C230 H239 0.933 . S
C231 Dy201 2.738 . S
C231 O211 1.255 . S
C231 O212 1.249 . S
C231 C225 1.516 . S
H232 C218 0.930 . S
H233 C219 0.931 . S
H234 C220 0.931 . S
H235 C221 0.933 . S
H236 C227 0.930 . S
H237 C228 0.931 . S
H238 C229 0.931 . S
H239 C230 0.933 . S
H240 C248 0.929 . S
H241 C250 0.930 . S
H242 C252 0.930 . S
H243 C255 0.929 . S
H244 C258 0.930 . S
H245 C260 0.960 . S
H246 C260 0.960 . S
H247 C260 0.960 1_556 S
C248 H240 0.929 . S
C248 C249 1.377 . S
C248 C250 1.384 . S
C249 C248 1.377 . S
C249 C255 1.390 . S
C250 H241 0.930 . S
C250 C248 1.384 . S
C250 C251 1.372 . S
C251 C250 1.372 . S
C251 C252 1.400 . S
C251 C256 1.490 . S
C252 H242 0.930 . S
C252 C251 1.400 . S
C252 C255 1.386 . S
H253 C269 0.930 . S
H254 C270 0.931 . S
C255 H243 0.929 . S
C255 C249 1.390 . S
C255 C252 1.386 . S
C256 C251 1.490 . S
C256 C258 1.395 1_565 S
C256 C259 1.399 1_556 S
H257 C263 0.930 . S
C258 H244 0.930 . S
C258 C256 1.395 1_545 S
C258 C261 1.403 . S
C259 C256 1.399 1_554 S
C259 C260 1.524 . S
C259 C263 1.403 . S
C260 H245 0.960 . S
C260 H246 0.960 . S
C260 H247 0.960 1_554 S
C260 C259 1.524 . S
C261 C258 1.403 . S
C261 C262 1.392 1_556 S
C261 C265 1.495 . S
C262 C261 1.392 1_554 S
C262 C263 1.385 1_545 S
C262 C264 1.478 . S
C263 H257 0.930 . S
C263 C259 1.403 . S
C263 C262 1.385 1_565 S
C264 C262 1.478 . S
C264 C266 1.381 . S
C264 C270 1.383 . S
C265 C261 1.495 . S
C265 H271 0.959 . S
C265 H272 0.961 . S
C265 H273 0.960 1_556 S
C266 C264 1.381 . S
C266 C267 1.394 . S
C266 H274 0.930 . S
C267 C266 1.394 . S
C267 C268 1.383 . S
C267 H275 0.929 . S
C268 C267 1.383 . S
C268 C269 1.377 . S
C269 H253 0.930 . S
C269 C268 1.377 . S
C269 C270 1.379 . S
C270 H254 0.931 . S
C270 C264 1.383 . S
C270 C269 1.379 . S
H271 C265 0.959 . S
H272 C265 0.961 . S
H273 C265 0.960 1_554 S
H274 C266 0.930 . S
H275 C267 0.929 . S
H276 C284 0.929 . S
H277 C286 0.930 . S
H278 C288 0.930 . S
H279 C291 0.929 . S
H280 C294 0.930 . S
H281 C296 0.960 . S
H282 C296 0.960 . S
H283 C296 0.960 . S
C284 H276 0.929 . S
C284 C285 1.377 . S
C284 C286 1.384 . S
C285 C284 1.377 . S
C285 C291 1.390 . S
C286 H277 0.930 . S
C286 C284 1.384 . S
C286 C287 1.372 . S
C287 C286 1.372 . S
C287 C288 1.400 . S
C287 C292 1.490 . S
C288 H278 0.930 . S
C288 C287 1.400 . S
C288 C291 1.386 . S
H289 C305 0.930 . S
H290 C306 0.931 . S
C291 H279 0.929 . S
C291 C285 1.390 . S
C291 C288 1.386 . S
C292 C287 1.490 . S
C292 C294 1.395 . S
C292 C295 1.403 . S
H293 C299 0.930 . S
C294 H280 0.930 . S
C294 C292 1.395 . S
C294 C297 1.403 . S
C295 C292 1.403 . S
C295 C296 1.524 . S
C295 C299 1.400 . S
C296 H281 0.960 . S
C296 H282 0.960 . S
C296 H283 0.960 . S
C296 C295 1.524 . S
C297 C294 1.403 . S
C297 C298 1.392 . S
C297 C301 1.495 . S
C298 C297 1.392 . S
C298 C299 1.385 . S
C298 C300 1.478 . S
C299 H293 0.930 . S
C299 C295 1.400 . S
C299 C298 1.385 . S
C300 C298 1.478 . S
C300 C302 1.381 . S
C300 C306 1.383 . S
C301 C297 1.495 . S
C301 H307 0.959 . S
C301 H308 0.961 . S
C301 H309 0.960 . S
C302 C300 1.381 . S
C302 C303 1.394 . S
C302 H310 0.930 . S
C303 C302 1.394 . S
C303 C304 1.383 . S
C303 H311 0.929 . S
C304 C303 1.383 . S
C304 C305 1.377 . S
C305 H289 0.930 . S
C305 C304 1.377 . S
C305 C306 1.379 . S
C306 H290 0.931 . S
C306 C300 1.383 . S
C306 C305 1.379 . S
H307 C301 0.959 . S
H308 C301 0.961 . S
H309 C301 0.960 . S
H310 C302 0.930 . S
H311 C303 0.929 . S
H312 C320 0.929 . S
H313 C322 0.930 . S
H314 C324 0.930 . S
H315 C327 0.929 . S
H316 C330 0.930 . S
H317 C332 0.960 . S
H318 C332 0.960 . S
H319 C332 0.960 . S
C320 H312 0.929 . S
C320 C321 1.377 . S
C320 C322 1.384 . S
C321 C320 1.377 . S
C321 C327 1.390 . S
C322 H313 0.930 . S
C322 C320 1.384 . S
C322 C323 1.372 . S
C323 C322 1.372 . S
C323 C324 1.400 . S
C323 C328 1.490 . S
C324 H314 0.930 . S
C324 C323 1.400 . S
C324 C327 1.386 . S
H325 C341 0.930 . S
H326 C342 0.931 . S
C327 H315 0.929 . S
C327 C321 1.390 . S
C327 C324 1.386 . S
C328 C323 1.490 . S
C328 C330 1.395 1_554 S
C328 C331 1.403 1_655 S
H329 C335 0.930 . S
C330 H316 0.930 . S
C330 C328 1.395 1_556 S
C330 C333 1.403 . S
C331 C328 1.403 1_455 S
C331 C332 1.524 . S
C331 C335 1.400 1_554 S
C332 H317 0.960 . S
C332 H318 0.960 . S
C332 H319 0.960 . S
C332 C331 1.524 . S
C333 C330 1.403 . S
C333 C334 1.392 1_655 S
C333 C337 1.495 . S
C334 C333 1.392 1_455 S
C334 C335 1.385 . S
C334 C336 1.478 . S
C335 H329 0.930 . S
C335 C331 1.400 1_556 S
C335 C334 1.385 . S
C336 C334 1.478 . S
C336 C338 1.381 . S
C336 C342 1.383 . S
C337 C333 1.495 . S
C337 H343 0.959 . S
C337 H344 0.961 . S
C337 H345 0.960 . S
C338 C336 1.381 . S
C338 C339 1.394 . S
C338 H346 0.930 . S
C339 C338 1.394 . S
C339 C340 1.383 . S
C339 H347 0.929 . S
C340 C339 1.383 . S
C340 C341 1.377 . S
C341 H325 0.930 . S
C341 C340 1.377 . S
C341 C342 1.379 . S
C342 H326 0.931 . S
C342 C336 1.383 . S
C342 C341 1.379 . S
H343 C337 0.959 . S
H344 C337 0.961 . S
H345 C337 0.960 . S
H346 C338 0.930 . S
H347 C339 0.929 . S
H348 C356 0.929 . S
H349 C358 0.930 . S
H350 C360 0.930 . S
H351 C363 0.929 . S
H352 C366 0.930 . S
H353 C368 0.960 . S
H354 C368 0.960 . S
H355 C368 0.960 . S
C356 H348 0.929 . S
C356 C357 1.377 . S
C356 C358 1.384 . S
C357 C356 1.377 . S
C357 C363 1.390 . S
C358 H349 0.930 . S
C358 C356 1.384 . S
C358 C359 1.372 . S
C359 C358 1.372 . S
C359 C360 1.400 . S
C359 C364 1.490 . S
C360 H350 0.930 . S
C360 C359 1.400 . S
C360 C363 1.386 . S
H361 C377 0.930 . S
H362 C378 0.931 . S
C363 H351 0.929 . S
C363 C357 1.390 . S
C363 C360 1.386 . S
C364 C359 1.490 . S
C364 C366 1.395 1_545 S
C364 C367 1.403 . S
H365 C371 0.930 . S
C366 H352 0.930 . S
C366 C364 1.395 1_565 S
C366 C369 1.403 . S
C367 C364 1.403 . S
C367 C368 1.524 . S
C367 C371 1.400 . S
C368 H353 0.960 . S
C368 H354 0.960 . S
C368 H355 0.960 . S
C368 C367 1.524 . S
C369 C366 1.403 . S
C369 C370 1.392 . S
C369 C373 1.495 . S
C370 C369 1.392 . S
C370 C371 1.385 1_565 S
C370 C372 1.478 . S
C371 H365 0.930 . S
C371 C367 1.400 . S
C371 C370 1.385 1_545 S
C372 C370 1.478 . S
C372 C374 1.381 . S
C372 C378 1.383 . S
C373 C369 1.495 . S
C373 H379 0.959 . S
C373 H380 0.961 . S
C373 H381 0.960 . S
C374 C372 1.381 . S
C374 C375 1.394 . S
C374 H382 0.930 . S
C375 C374 1.394 . S
C375 C376 1.383 . S
C375 H383 0.929 . S
C376 C375 1.383 . S
C376 C377 1.377 . S
C377 H361 0.930 . S
C377 C376 1.377 . S
C377 C378 1.379 . S
C378 H362 0.931 . S
C378 C372 1.383 . S
C378 C377 1.379 . S
H379 C373 0.959 . S
H380 C373 0.961 . S
H381 C373 0.960 . S
H382 C374 0.930 . S
H383 C375 0.929 . S
H384 C392 0.929 . S
H385 C394 0.930 . S
H386 C396 0.930 . S
H387 C399 0.929 . S
H388 C402 0.930 . S
H389 C404 0.960 . S
H390 C404 0.960 . S
H391 C404 0.960 . S
C392 H384 0.929 . S
C392 C393 1.377 . S
C392 C394 1.384 . S
C393 C392 1.377 . S
C393 C399 1.390 . S
C394 H385 0.930 . S
C394 C392 1.384 . S
C394 C395 1.372 . S
C395 C394 1.372 . S
C395 C396 1.400 . S
C395 C400 1.490 . S
C396 H386 0.930 . S
C396 C395 1.400 . S
C396 C399 1.386 . S
H397 C413 0.930 . S
H398 C414 0.931 . S
C399 H387 0.929 . S
C399 C393 1.390 . S
C399 C396 1.386 . S
C400 C395 1.490 . S
C400 C402 1.395 1_556 S
C400 C403 1.403 . S
H401 C407 0.930 . S
C402 H388 0.930 . S
C402 C400 1.395 1_554 S
C402 C405 1.403 . S
C403 C400 1.403 . S
C403 C404 1.524 . S
C403 C407 1.400 1_556 S
C404 H389 0.960 . S
C404 H390 0.960 . S
C404 H391 0.960 . S
C404 C403 1.524 . S
C405 C402 1.403 . S
C405 C406 1.392 . S
C405 C409 1.495 . S
C406 C405 1.392 . S
C406 C407 1.385 . S
C406 C408 1.478 . S
C407 H401 0.930 . S
C407 C403 1.400 1_554 S
C407 C406 1.385 . S
C408 C406 1.478 . S
C408 C410 1.381 . S
C408 C414 1.383 . S
C409 C405 1.495 . S
C409 H415 0.959 . S
C409 H416 0.961 . S
C409 H417 0.960 . S
C410 C408 1.381 . S
C410 C411 1.394 . S
C410 H418 0.930 . S
C411 C410 1.394 . S
C411 C412 1.383 . S
C411 H419 0.929 . S
C412 C411 1.383 . S
C412 C413 1.377 . S
C413 H397 0.930 . S
C413 C412 1.377 . S
C413 C414 1.379 . S
C414 H398 0.931 . S
C414 C408 1.383 . S
C414 C413 1.379 . S
H415 C409 0.959 . S
H416 C409 0.961 . S
H417 C409 0.960 . S
H418 C410 0.930 . S
H419 C411 0.929 . S
H420 C428 0.929 . S
H421 C430 0.930 . S
H422 C432 0.930 . S
H423 C435 0.929 . S
H424 C438 0.930 . S
H425 C440 0.960 . S
H426 C440 0.960 . S
H427 C440 0.960 . S
C428 H420 0.929 . S
C428 C429 1.377 . S
C428 C430 1.384 . S
C429 C428 1.377 . S
C429 C435 1.390 . S
C430 H421 0.930 . S
C430 C428 1.384 . S
C430 C431 1.372 . S
C431 C430 1.372 . S
C431 C432 1.400 . S
C431 C436 1.490 . S
C432 H422 0.930 . S
C432 C431 1.400 . S
C432 C435 1.386 . S
H433 C449 0.930 . S
H434 C450 0.931 . S
C435 H423 0.929 . S
C435 C429 1.390 . S
C435 C432 1.386 . S
C436 C431 1.490 . S
C436 C438 1.395 1_655 S
C436 C439 1.403 . S
H437 C443 0.934 . S
C438 H424 0.930 . S
C438 C436 1.395 1_455 S
C438 C441 1.403 . S
C439 C436 1.403 . S
C439 C440 1.524 . S
C439 C443 1.405 . S
C440 H425 0.960 . S
C440 H426 0.960 . S
C440 H427 0.960 . S
C440 C439 1.524 . S
C441 C438 1.403 . S
C441 C442 1.392 . S
C441 C445 1.495 . S
C442 C441 1.392 . S
C442 C443 1.377 1_455 S
C442 C444 1.478 . S
C443 H437 0.934 . S
C443 C439 1.405 . S
C443 C442 1.377 1_655 S
C444 C442 1.478 . S
C444 C446 1.381 . S
C444 C450 1.383 . S
C445 C441 1.495 . S
C445 H451 0.959 . S
C445 H452 0.961 . S
C445 H453 0.960 . S
C446 C444 1.381 . S
C446 C447 1.394 . S
C446 H454 0.930 . S
C447 C446 1.394 . S
C447 C448 1.383 . S
C447 H455 0.929 . S
C448 C447 1.383 . S
C448 C449 1.377 . S
C449 H433 0.930 . S
C449 C448 1.377 . S
C449 C450 1.379 . S
C450 H434 0.931 . S
C450 C444 1.383 . S
C450 C449 1.379 . S
H451 C445 0.959 . S
H452 C445 0.961 . S
H453 C445 0.960 . S
H454 C446 0.930 . S
H455 C447 0.929 . S
H456 C464 0.929 . S
H457 C466 0.930 . S
H458 C468 0.930 . S
H459 C471 0.929 . S
H460 C474 0.930 . S
H461 C476 0.960 . S
H462 C476 0.960 . S
H463 C476 0.960 . S
C464 H456 0.929 . S
C464 C465 1.377 . S
C464 C466 1.384 . S
C465 C464 1.377 . S
C465 C471 1.390 . S
C466 H457 0.930 . S
C466 C464 1.384 . S
C466 C467 1.372 . S
C467 C466 1.372 . S
C467 C468 1.400 . S
C467 C472 1.490 . S
C468 H458 0.930 . S
C468 C467 1.400 . S
C468 C471 1.386 . S
H469 C485 0.930 . S
H470 C486 0.931 . S
C471 H459 0.929 . S
C471 C465 1.390 . S
C471 C468 1.386 . S
C472 C467 1.490 . S
C472 C474 1.395 . S
C472 C475 1.403 . S
H473 C479 0.930 . S
C474 H460 0.930 . S
C474 C472 1.395 . S
C474 C477 1.403 . S
C475 C472 1.403 . S
C475 C476 1.524 . S
C475 C479 1.400 . S
C476 H461 0.960 . S
C476 H462 0.960 . S
C476 H463 0.960 . S
C476 C475 1.524 . S
C477 C474 1.403 . S
C477 C478 1.392 . S
C477 C481 1.495 . S
C478 C477 1.392 . S
C478 C479 1.385 . S
C478 C480 1.478 . S
C479 H473 0.930 . S
C479 C475 1.400 . S
C479 C478 1.385 . S
C480 C478 1.478 . S
C480 C482 1.381 . S
C480 C486 1.383 . S
C481 C477 1.495 . S
C481 H487 0.959 . S
C481 H488 0.961 . S
C481 H489 0.960 . S
C482 C480 1.381 . S
C482 C483 1.394 . S
C482 H490 0.930 . S
C483 C482 1.394 . S
C483 C484 1.383 . S
C483 H491 0.929 . S
C484 C483 1.383 . S
C484 C485 1.377 . S
C485 H469 0.930 . S
C485 C484 1.377 . S
C485 C486 1.379 . S
C486 H470 0.931 . S
C486 C480 1.383 . S
C486 C485 1.379 . S
H487 C481 0.959 . S
H488 C481 0.961 . S
H489 C481 0.960 . S
H490 C482 0.930 . S
H491 C483 0.929 . S
H492 C500 0.929 . S
H493 C502 0.930 . S
H494 C504 0.930 . S
H495 C507 0.929 . S
H496 C510 0.930 . S
H497 C512 0.960 . S
H498 C512 0.960 . S
H499 C512 0.960 . S
C500 H492 0.929 . S
C500 C501 1.377 . S
C500 C502 1.384 . S
C501 C500 1.377 . S
C501 C507 1.390 . S
C502 H493 0.930 . S
C502 C500 1.384 . S
C502 C503 1.372 . S
C503 C502 1.372 . S
C503 C504 1.400 . S
C503 C508 1.490 . S
C504 H494 0.930 . S
C504 C503 1.400 . S
C504 C507 1.386 . S
H505 C521 0.930 . S
H506 C522 0.931 . S
C507 H495 0.929 . S
C507 C501 1.390 . S
C507 C504 1.386 . S
C508 C503 1.490 . S
C508 C510 1.395 . S
C508 C511 1.403 . S
H509 C515 0.930 . S
C510 H496 0.930 . S
C510 C508 1.395 . S
C510 C513 1.403 . S
C511 C508 1.403 . S
C511 C512 1.524 . S
C511 C515 1.400 . S
C512 H497 0.960 . S
C512 H498 0.960 . S
C512 H499 0.960 . S
C512 C511 1.524 . S
C513 C510 1.403 . S
C513 C514 1.392 . S
C513 C517 1.495 . S
C514 C513 1.392 . S
C514 C515 1.385 . S
C514 C516 1.478 . S
C515 H509 0.930 . S
C515 C511 1.400 . S
C515 C514 1.385 . S
C516 C514 1.478 . S
C516 C518 1.381 . S
C516 C522 1.383 . S
C517 C513 1.495 . S
C517 H523 0.959 . S
C517 H524 0.961 . S
C517 H525 0.960 . S
C518 C516 1.381 . S
C518 C519 1.394 . S
C518 H526 0.930 . S
C519 C518 1.394 . S
C519 C520 1.383 . S
C519 H527 0.929 . S
C520 C519 1.383 . S
C520 C521 1.377 . S
C521 H505 0.930 . S
C521 C520 1.377 . S
C521 C522 1.379 . S
C522 H506 0.931 . S
C522 C516 1.383 . S
C522 C521 1.379 . S
H523 C517 0.959 . S
H524 C517 0.961 . S
H525 C517 0.960 . S
H526 C518 0.930 . S
H527 C519 0.929 . S
H528 C536 0.929 . S
H529 C538 0.930 . S
H530 C540 0.930 . S
H531 C543 0.929 . S
H532 C546 0.930 . S
H533 C548 0.960 . S
H534 C548 0.960 . S
H535 C548 0.960 . S
C536 H528 0.929 . S
C536 C537 1.377 . S
C536 C538 1.384 . S
C537 C536 1.377 . S
C537 C543 1.390 . S
C538 H529 0.930 . S
C538 C536 1.384 . S
C538 C539 1.372 . S
C539 C538 1.372 . S
C539 C540 1.400 . S
C539 C544 1.490 . S
C540 H530 0.930 . S
C540 C539 1.400 . S
C540 C543 1.386 . S
H541 C557 0.930 . S
H542 C558 0.931 . S
C543 H531 0.929 . S
C543 C537 1.390 . S
C543 C540 1.386 . S
C544 C539 1.490 . S
C544 C546 1.395 . S
C544 C547 1.403 . S
H545 C551 0.930 . S
C546 H532 0.930 . S
C546 C544 1.395 . S
C546 C549 1.403 . S
C547 C544 1.403 . S
C547 C548 1.524 . S
C547 C551 1.400 . S
C548 H533 0.960 . S
C548 H534 0.960 . S
C548 H535 0.960 . S
C548 C547 1.524 . S
C549 C546 1.403 . S
C549 C550 1.392 . S
C549 C553 1.495 . S
C550 C549 1.392 . S
C550 C551 1.385 . S
C550 C552 1.478 . S
C551 H545 0.930 . S
C551 C547 1.400 . S
C551 C550 1.385 . S
C552 C550 1.478 . S
C552 C554 1.381 . S
C552 C558 1.383 . S
C553 C549 1.495 . S
C553 H559 0.959 . S
C553 H560 0.961 . S
C553 H561 0.960 . S
C554 C552 1.381 . S
C554 C555 1.394 . S
C554 H562 0.930 . S
C555 C554 1.394 . S
C555 C556 1.383 . S
C555 H563 0.929 . S
C556 C555 1.383 . S
C556 C557 1.377 . S
C557 H541 0.930 . S
C557 C556 1.377 . S
C557 C558 1.379 . S
C558 H542 0.931 . S
C558 C552 1.383 . S
C558 C557 1.379 . S
H559 C553 0.959 . S
H560 C553 0.961 . S
H561 C553 0.960 . S
H562 C554 0.930 . S
H563 C555 0.929 . S
H564 C572 0.929 . S
H565 C574 0.930 . S
H566 C576 0.930 . S
H567 C579 0.929 . S
H568 C582 0.930 . S
H569 C584 0.960 . S
H570 C584 0.960 . S
H571 C584 0.960 . S
C572 H564 0.929 . S
C572 C573 1.377 . S
C572 C574 1.384 . S
C573 C572 1.377 . S
C573 C579 1.390 . S
C574 H565 0.930 . S
C574 C572 1.384 . S
C574 C575 1.372 . S
C575 C574 1.372 . S
C575 C576 1.400 . S
C575 C580 1.490 . S
C576 H566 0.930 . S
C576 C575 1.400 . S
C576 C579 1.386 . S
H577 C593 0.930 . S
H578 C594 0.931 . S
C579 H567 0.929 . S
C579 C573 1.390 . S
C579 C576 1.386 . S
C580 C575 1.490 . S
C580 C582 1.395 . S
C580 C583 1.403 . S
H581 C587 0.930 . S
C582 H568 0.930 . S
C582 C580 1.395 . S
C582 C585 1.403 . S
C583 C580 1.403 . S
C583 C584 1.524 . S
C583 C587 1.400 . S
C584 H569 0.960 . S
C584 H570 0.960 . S
C584 H571 0.960 . S
C584 C583 1.524 . S
C585 C582 1.403 . S
C585 C586 1.392 . S
C585 C589 1.495 . S
C586 C585 1.392 . S
C586 C587 1.385 . S
C586 C588 1.478 . S
C587 H581 0.930 . S
C587 C583 1.400 . S
C587 C586 1.385 . S
C588 C586 1.478 . S
C588 C590 1.381 . S
C588 C594 1.383 . S
C589 C585 1.495 . S
C589 H595 0.959 . S
C589 H596 0.961 . S
C589 H597 0.960 . S
C590 C588 1.381 . S
C590 C591 1.394 . S
C590 H598 0.930 . S
C591 C590 1.394 . S
C591 C592 1.383 . S
C591 H599 0.929 . S
C592 C591 1.383 . S
C592 C593 1.377 . S
C593 H577 0.930 . S
C593 C592 1.377 . S
C593 C594 1.379 . S
C594 H578 0.931 . S
C594 C588 1.383 . S
C594 C593 1.379 . S
H595 C589 0.959 . S
H596 C589 0.961 . S
H597 C589 0.960 . S
H598 C590 0.930 . S
H599 C591 0.929 . S
H600 C608 0.929 . S
H601 C610 0.930 . S
H602 C612 0.930 . S
H603 C615 0.929 . S
H604 C618 0.930 . S
H605 C620 0.960 . S
H606 C620 0.960 . S
H607 C620 0.960 . S
C608 H600 0.929 . S
C608 C609 1.377 . S
C608 C610 1.384 . S
C609 C608 1.377 . S
C609 C615 1.390 . S
C610 H601 0.930 . S
C610 C608 1.384 . S
C610 C611 1.372 . S
C611 C610 1.372 . S
C611 C612 1.400 . S
C611 C616 1.490 . S
C612 H602 0.930 . S
C612 C611 1.400 . S
C612 C615 1.386 . S
H613 C629 0.930 . S
H614 C630 0.931 . S
C615 H603 0.929 . S
C615 C609 1.390 . S
C615 C612 1.386 . S
C616 C611 1.490 . S
C616 C618 1.395 . S
C616 C619 1.403 . S
H617 C623 0.930 . S
C618 H604 0.930 . S
C618 C616 1.395 . S
C618 C621 1.403 . S
C619 C616 1.403 . S
C619 C620 1.524 . S
C619 C623 1.400 . S
C620 H605 0.960 . S
C620 H606 0.960 . S
C620 H607 0.960 . S
C620 C619 1.524 . S
C621 C618 1.403 . S
C621 C622 1.392 . S
C621 C625 1.495 . S
C622 C621 1.392 . S
C622 C623 1.385 . S
C622 C624 1.478 . S
C623 H617 0.930 . S
C623 C619 1.400 . S
C623 C622 1.385 . S
C624 C622 1.478 . S
C624 C626 1.381 . S
C624 C630 1.383 . S
C625 C621 1.495 . S
C625 H631 0.959 . S
C625 H632 0.961 . S
C625 H633 0.960 . S
C626 C624 1.381 . S
C626 C627 1.394 . S
C626 H634 0.930 . S
C627 C626 1.394 . S
C627 C628 1.383 . S
C627 H635 0.929 . S
C628 C627 1.383 . S
C628 C629 1.377 . S
C629 H613 0.930 . S
C629 C628 1.377 . S
C629 C630 1.379 . S
C630 H614 0.931 . S
C630 C624 1.383 . S
C630 C629 1.379 . S
H631 C625 0.959 . S
H632 C625 0.961 . S
H633 C625 0.960 . S
H634 C626 0.930 . S
H635 C627 0.929 . S
H636 C644 0.929 . S
H637 C646 0.930 . S
H638 C648 0.930 . S
H639 C651 0.929 . S
H640 C654 0.930 . S
H641 C656 0.960 . S
H642 C656 0.960 . S
H643 C656 0.960 . S
C644 H636 0.929 . S
C644 C645 1.377 . S
C644 C646 1.384 . S
C645 C644 1.377 . S
C645 C651 1.390 . S
C646 H637 0.930 . S
C646 C644 1.384 . S
C646 C647 1.372 . S
C647 C646 1.372 . S
C647 C648 1.400 . S
C647 C652 1.490 . S
C648 H638 0.930 . S
C648 C647 1.400 . S
C648 C651 1.386 . S
H649 C665 0.930 . S
H650 C666 0.931 . S
C651 H639 0.929 . S
C651 C645 1.390 . S
C651 C648 1.386 . S
C652 C647 1.490 . S
C652 C654 1.395 . S
C652 C655 1.403 . S
H653 C659 0.930 . S
C654 H640 0.930 . S
C654 C652 1.395 . S
C654 C657 1.403 . S
C655 C652 1.403 . S
C655 C656 1.524 . S
C655 C659 1.400 . S
C656 H641 0.960 . S
C656 H642 0.960 . S
C656 H643 0.960 . S
C656 C655 1.524 . S
C657 C654 1.403 . S
C657 C658 1.392 . S
C657 C661 1.495 . S
C658 C657 1.392 . S
C658 C659 1.385 . S
C658 C660 1.478 . S
C659 H653 0.930 . S
C659 C655 1.400 . S
C659 C658 1.385 . S
C660 C658 1.478 . S
C660 C662 1.381 . S
C660 C666 1.383 . S
C661 C657 1.495 . S
C661 H667 0.959 . S
C661 H668 0.961 . S
C661 H669 0.960 . S
C662 C660 1.381 . S
C662 C663 1.394 . S
C662 H670 0.930 . S
C663 C662 1.394 . S
C663 C664 1.383 . S
C663 H671 0.929 . S
C664 C663 1.383 . S
C664 C665 1.377 . S
C665 H649 0.930 . S
C665 C664 1.377 . S
C665 C666 1.379 . S
C666 H650 0.931 . S
C666 C660 1.383 . S
C666 C665 1.379 . S
H667 C661 0.959 . S
H668 C661 0.961 . S
H669 C661 0.960 . S
H670 C662 0.930 . S
H671 C663 0.929 . S
H672 C680 0.929 . S
H673 C682 0.930 . S
H674 C684 0.930 . S
H675 C687 0.929 . S
H676 C690 0.930 . S
H677 C692 0.960 . S
H678 C692 0.960 . S
H679 C692 0.960 . S
C680 H672 0.929 . S
C680 C681 1.377 . S
C680 C682 1.384 . S
C681 C680 1.377 . S
C681 C687 1.390 . S
C682 H673 0.930 . S
C682 C680 1.384 . S
C682 C683 1.372 . S
C683 C682 1.372 . S
C683 C684 1.400 . S
C683 C688 1.490 . S
C684 H674 0.930 . S
C684 C683 1.400 . S
C684 C687 1.386 . S
H685 C701 0.930 . S
H686 C702 0.956 . S
C687 H675 0.929 . S
C687 C681 1.390 . S
C687 C684 1.386 . S
C688 C683 1.490 . S
C688 C690 1.395 . S
C688 C691 1.403 . S
H689 C695 0.930 . S
C690 H676 0.930 . S
C690 C688 1.395 . S
C690 C693 1.403 . S
C691 C688 1.403 . S
C691 C692 1.524 . S
C691 C695 1.400 . S
C692 H677 0.960 . S
C692 H678 0.960 . S
C692 H679 0.960 . S
C692 C691 1.524 . S
C693 C690 1.403 . S
C693 C694 1.392 . S
C693 C697 1.495 1_455 S
C694 C693 1.392 . S
C694 C695 1.385 . S
C694 C696 1.478 . S
C695 H689 0.930 . S
C695 C691 1.400 . S
C695 C694 1.385 . S
C696 C694 1.478 . S
C696 C698 1.381 1_455 S
C696 C702 1.396 . S
C697 C693 1.495 1_655 S
C697 H703 0.959 . S
C697 H704 0.961 . S
C697 H705 0.960 . S
C698 C696 1.381 1_655 S
C698 C699 1.394 . S
C698 H706 0.930 . S
C699 C698 1.394 . S
C699 C700 1.383 . S
C699 H707 0.929 . S
C700 C699 1.383 . S
C700 C701 1.377 . S
C701 H685 0.930 . S
C701 C700 1.377 . S
C701 C702 1.342 1_655 S
C702 H686 0.956 . S
C702 C696 1.396 . S
C702 C701 1.342 1_455 S
H703 C697 0.959 . S
H704 C697 0.961 . S
H705 C697 0.960 . S
H706 C698 0.930 . S
H707 C699 0.929 . S
H708 C716 0.929 . S
H709 C718 0.930 . S
H710 C720 0.930 . S
H711 C723 0.929 . S
H712 C726 0.930 . S
H713 C728 0.960 1_545 S
H714 C728 0.960 . S
H715 C728 0.960 . S
C716 H708 0.929 . S
C716 C717 1.377 . S
C716 C718 1.384 1_655 S
C717 C716 1.377 . S
C717 C723 1.390 . S
C718 H709 0.930 . S
C718 C716 1.384 1_455 S
C718 C719 1.372 . S
C719 C718 1.372 . S
C719 C720 1.400 . S
C719 C724 1.490 . S
C720 H710 0.930 . S
C720 C719 1.400 . S
C720 C723 1.386 1_455 S
H721 C737 0.930 . S
H722 C738 0.931 . S
C723 H711 0.929 . S
C723 C717 1.390 . S
C723 C720 1.386 1_655 S
C724 C719 1.490 . S
C724 C726 1.395 . S
C724 C727 1.403 . S
H725 C731 0.930 1_545 S
C726 H712 0.930 . S
C726 C724 1.395 . S
C726 C729 1.403 . S
C727 C724 1.403 . S
C727 C728 1.524 . S
C727 C731 1.400 . S
C728 H713 0.960 1_565 S
C728 H714 0.960 . S
C728 H715 0.960 . S
C728 C727 1.524 . S
C729 C726 1.403 . S
C729 C730 1.392 . S
C729 C733 1.495 . S
C730 C729 1.392 . S
C730 C731 1.385 . S
C730 C732 1.478 . S
C731 H725 0.930 1_565 S
C731 C727 1.400 . S
C731 C730 1.385 . S
C732 C730 1.478 . S
C732 C734 1.381 . S
C732 C738 1.383 1_565 S
C733 C729 1.495 . S
C733 H739 0.959 . S
C733 H740 0.961 . S
C733 H741 0.960 . S
C734 C732 1.381 . S
C734 C735 1.394 1_565 S
C734 H742 0.930 . S
C735 C734 1.394 1_545 S
C735 C736 1.383 . S
C735 H743 0.929 . S
C736 C735 1.383 . S
C736 C737 1.377 . S
C737 H721 0.930 . S
C737 C736 1.377 . S
C737 C738 1.379 . S
C738 H722 0.931 . S
C738 C732 1.383 1_545 S
C738 C737 1.379 . S
H739 C733 0.959 . S
H740 C733 0.961 . S
H741 C733 0.960 . S
H742 C734 0.930 . S
H743 C735 0.929 . S
H744 C752 0.929 . S
H745 C754 0.930 . S
H746 C756 0.930 . S
H747 C759 0.929 . S
H748 C762 0.930 . S
H749 C764 0.960 . S
H750 C764 0.960 . S
H751 C764 0.960 . S
C752 H744 0.929 . S
C752 C753 1.377 . S
C752 C754 1.384 1_545 S
C753 C752 1.377 . S
C753 C759 1.390 . S
C754 H745 0.930 . S
C754 C752 1.384 1_565 S
C754 C755 1.372 . S
C755 C754 1.372 . S
C755 C756 1.400 . S
C755 C760 1.490 . S
C756 H746 0.930 . S
C756 C755 1.400 . S
C756 C759 1.386 1_565 S
H757 C773 0.930 . S
H758 C774 0.931 . S
C759 H747 0.929 . S
C759 C753 1.390 . S
C759 C756 1.386 1_545 S
C760 C755 1.490 . S
C760 C762 1.395 . S
C760 C763 1.403 . S
H761 C767 0.930 . S
C762 H748 0.930 . S
C762 C760 1.395 . S
C762 C765 1.403 . S
C763 C760 1.403 . S
C763 C764 1.524 . S
C763 C767 1.400 . S
C764 H749 0.960 . S
C764 H750 0.960 . S
C764 H751 0.960 . S
C764 C763 1.524 . S
C765 C762 1.403 . S
C765 C766 1.392 . S
C765 C769 1.495 . S
C766 C765 1.392 . S
C766 C767 1.385 . S
C766 C768 1.478 . S
C767 H761 0.930 . S
C767 C763 1.400 . S
C767 C766 1.385 . S
C768 C766 1.478 . S
C768 C770 1.381 . S
C768 C774 1.383 . S
C769 C765 1.495 . S
C769 H775 0.959 . S
C769 H776 0.961 . S
C769 H777 0.960 . S
C770 C768 1.381 . S
C770 C771 1.394 . S
C770 H778 0.930 . S
C771 C770 1.394 . S
C771 C772 1.383 . S
C771 H779 0.929 . S
C772 C771 1.383 . S
C772 C773 1.377 . S
C773 H757 0.930 . S
C773 C772 1.377 . S
C773 C774 1.379 . S
C774 H758 0.931 . S
C774 C768 1.383 . S
C774 C773 1.379 . S
H775 C769 0.959 . S
H776 C769 0.961 . S
H777 C769 0.960 . S
H778 C770 0.930 . S
H779 C771 0.929 . S
H780 C788 0.929 . S
H781 C790 0.930 . S
H782 C792 0.930 . S
H783 C795 0.929 . S
H784 C798 0.930 . S
H785 C800 0.960 . S
H786 C800 0.960 . S
H787 C800 0.960 . S
C788 H780 0.929 . S
C788 C789 1.377 . S
C788 C790 1.384 . S
C789 C788 1.377 . S
C789 C795 1.390 . S
C790 H781 0.930 . S
C790 C788 1.384 . S
C790 C791 1.372 . S
C791 C790 1.372 . S
C791 C792 1.400 . S
C791 C796 1.490 . S
C792 H782 0.930 . S
C792 C791 1.400 . S
C792 C795 1.386 . S
H793 C809 0.930 . S
H794 C810 0.931 . S
C795 H783 0.929 . S
C795 C789 1.390 . S
C795 C792 1.386 . S
C796 C791 1.490 . S
C796 C798 1.395 . S
C796 C799 1.403 . S
H797 C803 0.930 . S
C798 H784 0.930 . S
C798 C796 1.395 . S
C798 C801 1.403 . S
C799 C796 1.403 . S
C799 C800 1.524 . S
C799 C803 1.400 . S
C800 H785 0.960 . S
C800 H786 0.960 . S
C800 H787 0.960 . S
C800 C799 1.524 . S
C801 C798 1.403 . S
C801 C802 1.392 . S
C801 C805 1.495 1_545 S
C802 C801 1.392 . S
C802 C803 1.385 . S
C802 C804 1.478 . S
C803 H797 0.930 . S
C803 C799 1.400 . S
C803 C802 1.385 . S
C804 C802 1.478 . S
C804 C806 1.381 1_545 S
C804 C810 1.383 1_545 S
C805 C801 1.495 1_565 S
C805 H811 0.959 . S
C805 H812 0.961 . S
C805 H813 0.960 . S
C806 C804 1.381 1_565 S
C806 C807 1.394 . S
C806 H814 0.930 1_565 S
C807 C806 1.394 . S
C807 C808 1.383 . S
C807 H815 0.929 . S
C808 C807 1.383 . S
C808 C809 1.377 . S
C809 H793 0.930 . S
C809 C808 1.377 . S
C809 C810 1.379 . S
C810 H794 0.931 . S
C810 C804 1.383 1_565 S
C810 C809 1.379 . S
H811 C805 0.959 . S
H812 C805 0.961 . S
H813 C805 0.960 . S
H814 C806 0.930 1_545 S
H815 C807 0.929 . S
H816 C824 0.929 . S
H817 C826 0.930 . S
H818 C828 0.930 . S
H819 C831 0.929 . S
H820 C834 0.930 . S
H821 C836 0.960 . S
H822 C836 0.960 . S
H823 C836 0.960 . S
C824 H816 0.929 . S
C824 C825 1.377 . S
C824 C826 1.384 1_455 S
C825 C824 1.377 . S
C825 C831 1.390 . S
C826 H817 0.930 . S
C826 C824 1.384 1_655 S
C826 C827 1.372 . S
C827 C826 1.372 . S
C827 C828 1.400 . S
C827 C832 1.490 . S
C828 H818 0.930 . S
C828 C827 1.400 . S
C828 C831 1.386 1_655 S
H829 C845 0.930 . S
H830 C846 0.931 . S
C831 H819 0.929 . S
C831 C825 1.390 . S
C831 C828 1.386 1_455 S
C832 C827 1.490 . S
C832 C834 1.395 . S
C832 C835 1.403 . S
H833 C839 0.930 . S
C834 H820 0.930 . S
C834 C832 1.395 . S
C834 C837 1.403 . S
C835 C832 1.403 . S
C835 C836 1.524 . S
C835 C839 1.400 . S
C836 H821 0.960 . S
C836 H822 0.960 . S
C836 H823 0.960 . S
C836 C835 1.524 . S
C837 C834 1.403 . S
C837 C838 1.392 . S
C837 C841 1.495 . S
C838 C837 1.392 . S
C838 C839 1.385 . S
C838 C840 1.478 . S
C839 H833 0.930 . S
C839 C835 1.400 . S
C839 C838 1.385 . S
C840 C838 1.478 . S
C840 C842 1.381 . S
C840 C846 1.383 . S
C841 C837 1.495 . S
C841 H847 0.959 . S
C841 H848 0.961 . S
C841 H849 0.960 . S
C842 C840 1.381 . S
C842 C843 1.394 . S
C842 H850 0.930 . S
C843 C842 1.394 . S
C843 C844 1.383 . S
C843 H851 0.929 . S
C844 C843 1.383 . S
C844 C845 1.377 . S
C845 H829 0.930 . S
C845 C844 1.377 . S
C845 C846 1.379 . S
C846 H830 0.931 . S
C846 C840 1.383 . S
C846 C845 1.379 . S
H847 C841 0.959 . S
H848 C841 0.961 . S
H849 C841 0.960 . S
H850 C842 0.930 . S
H851 C843 0.929 . S
H852 C860 0.929 . S
H853 C862 0.930 . S
H854 C864 0.930 . S
H855 C867 0.959 . S
H856 C870 0.930 . S
H857 C872 0.960 . S
H858 C872 0.960 . S
H859 C872 0.960 . S
C860 H852 0.929 . S
C860 C861 1.377 . S
C860 C862 1.384 . S
C861 C860 1.377 . S
C861 C867 1.358 1_455 S
C862 H853 0.930 . S
C862 C860 1.384 . S
C862 C863 1.372 1_455 S
C863 C862 1.372 1_655 S
C863 C864 1.400 . S
C863 C868 1.490 . S
C864 H854 0.930 . S
C864 C863 1.400 . S
C864 C867 1.389 . S
H865 C881 0.927 . S
H866 C882 0.931 . S
C867 H855 0.959 . S
C867 C861 1.358 1_655 S
C867 C864 1.389 . S
C868 C863 1.490 . S
C868 C870 1.395 . S
C868 C871 1.403 . S
H869 C875 0.930 . S
C870 H856 0.930 . S
C870 C868 1.395 . S
C870 C873 1.403 . S
C871 C868 1.403 . S
C871 C872 1.524 . S
C871 C875 1.400 . S
C872 H857 0.960 . S
C872 H858 0.960 . S
C872 H859 0.960 . S
C872 C871 1.524 . S
C873 C870 1.403 . S
C873 C874 1.392 . S
C873 C877 1.495 . S
C874 C873 1.392 . S
C874 C875 1.385 . S
C874 C876 1.478 . S
C875 H869 0.930 . S
C875 C871 1.400 . S
C875 C874 1.385 . S
C876 C874 1.478 . S
C876 C878 1.381 . S
C876 C882 1.383 . S
C877 C873 1.495 . S
C877 H883 0.959 . S
C877 H884 0.961 . S
C877 H885 0.960 . S
C878 C876 1.381 . S
C878 C879 1.394 1_545 S
C878 H886 0.930 . S
C879 C878 1.394 1_565 S
C879 C880 1.383 . S
C879 H887 0.929 . S
C880 C879 1.383 . S
C880 C881 1.400 . S
C881 H865 0.927 . S
C881 C880 1.400 . S
C881 C882 1.359 1_565 S
C882 H866 0.931 . S
C882 C876 1.383 . S
C882 C881 1.359 1_545 S
H883 C877 0.959 . S
H884 C877 0.961 . S
H885 C877 0.960 . S
H886 C878 0.930 . S
H887 C879 0.929 . S
C249 C183 2.296 . S
C268 C23 2.297 . S
C285 C202 2.480 . S
C304 C42 2.474 . S
C321 C103 2.298 . S
C340 C143 2.268 . S
C357 C2 2.477 . S
C376 C162 2.497 . S
C393 C223 2.296 . S
C412 C63 2.273 . S
C429 C82 2.483 . S
C448 C122 2.474 . S
C465 C17 1.771 . S
C484 C104 1.781 . S
C501 C57 1.771 . S
C520 C24 1.772 . S
C537 C97 1.767 . S
C556 C64 1.752 . S
C573 C137 1.765 . S
C592 C184 1.779 . S
C609 C177 1.764 . S
C628 C224 1.761 . S
C645 C144 1.777 . S
C664 C217 1.768 . S
C681 C26 0.819 . S
C700 C93 0.785 . S
C717 C66 0.825 . S
C736 C13 0.855 . S
C753 C106 0.826 . S
C772 C53 0.853 . S
C789 C146 0.817 . S
C808 C173 0.793 . S
C825 C186 0.826 . S
C844 C213 0.852 . S
C861 C133 0.813 . S
C880 C226 0.826 . S
