# Generated by pormake.
# Topology uko, (4)-cn, num edge types: 1
# Building blocks:
#     Node 0, Type 0, BuildingBlock: QUQFOY_clean_sbu_1, # of connection points: 4
#     Node 1, Type 0, BuildingBlock: QUQFOY_clean_sbu_1, # of connection points: 4
#     Node 2, Type 0, BuildingBlock: QUQFOY_clean_sbu_1, # of connection points: 4
#     Node 3, Type 0, BuildingBlock: QUQFOY_clean_sbu_1, # of connection points: 4
#     Node 4, Type 0, BuildingBlock: QUQFOY_clean_sbu_1, # of connection points: 4
#     Node 5, Type 0, BuildingBlock: QUQFOY_clean_sbu_1, # of connection points: 4
#     Node 6, Type 0, BuildingBlock: QUQFOY_clean_sbu_1, # of connection points: 4
#     Node 7, Type 0, BuildingBlock: QUQFOY_clean_sbu_1, # of connection points: 4
#     Node 8, Type 0, BuildingBlock: QUQFOY_clean_sbu_1, # of connection points: 4
#     Node 9, Type 0, BuildingBlock: QUQFOY_clean_sbu_1, # of connection points: 4
#     Node 10, Type 0, BuildingBlock: QUQFOY_clean_sbu_1, # of connection points: 4
#     Node 11, Type 0, BuildingBlock: QUQFOY_clean_sbu_1, # of connection points: 4
#     Node 12, Type 0, BuildingBlock: QUQFOY_clean_sbu_1, # of connection points: 4
#     Node 13, Type 0, BuildingBlock: QUQFOY_clean_sbu_1, # of connection points: 4
#     Node 14, Type 0, BuildingBlock: QUQFOY_clean_sbu_1, # of connection points: 4
#     Node 15, Type 0, BuildingBlock: QUQFOY_clean_sbu_1, # of connection points: 4
#     Node 16, Type 0, BuildingBlock: QUQFOY_clean_sbu_1, # of connection points: 4
#     Node 17, Type 0, BuildingBlock: QUQFOY_clean_sbu_1, # of connection points: 4
#     Node 18, Type 0, BuildingBlock: QUQFOY_clean_sbu_1, # of connection points: 4
#     Node 19, Type 0, BuildingBlock: QUQFOY_clean_sbu_1, # of connection points: 4
#     Node 20, Type 0, BuildingBlock: QUQFOY_clean_sbu_1, # of connection points: 4
#     Node 21, Type 0, BuildingBlock: QUQFOY_clean_sbu_1, # of connection points: 4
#     Node 22, Type 0, BuildingBlock: QUQFOY_clean_sbu_1, # of connection points: 4
#     Node 23, Type 0, BuildingBlock: QUQFOY_clean_sbu_1, # of connection points: 4
#     Node 24, Type 0, BuildingBlock: QUQFOY_clean_sbu_1, # of connection points: 4
#     Node 25, Type 0, BuildingBlock: QUQFOY_clean_sbu_1, # of connection points: 4
#     Node 26, Type 0, BuildingBlock: QUQFOY_clean_sbu_1, # of connection points: 4
#     Node 27, Type 0, BuildingBlock: QUQFOY_clean_sbu_1, # of connection points: 4
#     Node 28, Type 0, BuildingBlock: QUQFOY_clean_sbu_1, # of connection points: 4
#     Node 29, Type 0, BuildingBlock: QUQFOY_clean_sbu_1, # of connection points: 4
#     Node 30, Type 0, BuildingBlock: QUQFOY_clean_sbu_1, # of connection points: 4
#     Node 31, Type 0, BuildingBlock: QUQFOY_clean_sbu_1, # of connection points: 4
#     Node 32, Type 0, BuildingBlock: QUQFOY_clean_sbu_1, # of connection points: 4
#     Node 33, Type 0, BuildingBlock: QUQFOY_clean_sbu_1, # of connection points: 4
#     Node 34, Type 0, BuildingBlock: QUQFOY_clean_sbu_1, # of connection points: 4
#     Node 35, Type 0, BuildingBlock: QUQFOY_clean_sbu_1, # of connection points: 4
#     Node 36, Type 0, BuildingBlock: QUQFOY_clean_sbu_1, # of connection points: 4
#     Node 37, Type 0, BuildingBlock: QUQFOY_clean_sbu_1, # of connection points: 4
#     Node 38, Type 0, BuildingBlock: QUQFOY_clean_sbu_1, # of connection points: 4
#     Node 39, Type 0, BuildingBlock: QUQFOY_clean_sbu_1, # of connection points: 4
#     Node 40, Type 0, BuildingBlock: QUQFOY_clean_sbu_1, # of connection points: 4
#     Node 41, Type 0, BuildingBlock: QUQFOY_clean_sbu_1, # of connection points: 4
#     Node 42, Type 0, BuildingBlock: QUQFOY_clean_sbu_1, # of connection points: 4
#     Node 43, Type 0, BuildingBlock: QUQFOY_clean_sbu_1, # of connection points: 4
#     Node 44, Type 0, BuildingBlock: QUQFOY_clean_sbu_1, # of connection points: 4
#     Node 45, Type 0, BuildingBlock: QUQFOY_clean_sbu_1, # of connection points: 4
#     Node 46, Type 0, BuildingBlock: QUQFOY_clean_sbu_1, # of connection points: 4
#     Node 47, Type 0, BuildingBlock: QUQFOY_clean_sbu_1, # of connection points: 4
#     Edge 48, Type (0, 0), BuildingBlock: KIFKEQ_clean_linker_1, # of connection points: 2
#     Edge 49, Type (0, 0), BuildingBlock: KIFKEQ_clean_linker_1, # of connection points: 2
#     Edge 50, Type (0, 0), BuildingBlock: KIFKEQ_clean_linker_1, # of connection points: 2
#     Edge 51, Type (0, 0), BuildingBlock: KIFKEQ_clean_linker_1, # of connection points: 2
#     Edge 52, Type (0, 0), BuildingBlock: KIFKEQ_clean_linker_1, # of connection points: 2
#     Edge 53, Type (0, 0), BuildingBlock: KIFKEQ_clean_linker_1, # of connection points: 2
#     Edge 54, Type (0, 0), BuildingBlock: KIFKEQ_clean_linker_1, # of connection points: 2
#     Edge 55, Type (0, 0), BuildingBlock: KIFKEQ_clean_linker_1, # of connection points: 2
#     Edge 56, Type (0, 0), BuildingBlock: KIFKEQ_clean_linker_1, # of connection points: 2
#     Edge 57, Type (0, 0), BuildingBlock: KIFKEQ_clean_linker_1, # of connection points: 2
#     Edge 58, Type (0, 0), BuildingBlock: KIFKEQ_clean_linker_1, # of connection points: 2
#     Edge 59, Type (0, 0), BuildingBlock: KIFKEQ_clean_linker_1, # of connection points: 2
#     Edge 60, Type (0, 0), BuildingBlock: KIFKEQ_clean_linker_1, # of connection points: 2
#     Edge 61, Type (0, 0), BuildingBlock: KIFKEQ_clean_linker_1, # of connection points: 2
#     Edge 62, Type (0, 0), BuildingBlock: KIFKEQ_clean_linker_1, # of connection points: 2
#     Edge 63, Type (0, 0), BuildingBlock: KIFKEQ_clean_linker_1, # of connection points: 2
#     Edge 64, Type (0, 0), BuildingBlock: KIFKEQ_clean_linker_1, # of connection points: 2
#     Edge 65, Type (0, 0), BuildingBlock: KIFKEQ_clean_linker_1, # of connection points: 2
#     Edge 66, Type (0, 0), BuildingBlock: KIFKEQ_clean_linker_1, # of connection points: 2
#     Edge 67, Type (0, 0), BuildingBlock: KIFKEQ_clean_linker_1, # of connection points: 2
#     Edge 68, Type (0, 0), BuildingBlock: KIFKEQ_clean_linker_1, # of connection points: 2
#     Edge 69, Type (0, 0), BuildingBlock: KIFKEQ_clean_linker_1, # of connection points: 2
#     Edge 70, Type (0, 0), BuildingBlock: KIFKEQ_clean_linker_1, # of connection points: 2
#     Edge 71, Type (0, 0), BuildingBlock: KIFKEQ_clean_linker_1, # of connection points: 2
#     Edge 72, Type (0, 0), BuildingBlock: KIFKEQ_clean_linker_1, # of connection points: 2
#     Edge 73, Type (0, 0), BuildingBlock: KIFKEQ_clean_linker_1, # of connection points: 2
#     Edge 74, Type (0, 0), BuildingBlock: KIFKEQ_clean_linker_1, # of connection points: 2
#     Edge 75, Type (0, 0), BuildingBlock: KIFKEQ_clean_linker_1, # of connection points: 2
#     Edge 76, Type (0, 0), BuildingBlock: KIFKEQ_clean_linker_1, # of connection points: 2
#     Edge 77, Type (0, 0), BuildingBlock: KIFKEQ_clean_linker_1, # of connection points: 2
#     Edge 78, Type (0, 0), BuildingBlock: KIFKEQ_clean_linker_1, # of connection points: 2
#     Edge 79, Type (0, 0), BuildingBlock: KIFKEQ_clean_linker_1, # of connection points: 2
#     Edge 80, Type (0, 0), BuildingBlock: KIFKEQ_clean_linker_1, # of connection points: 2
#     Edge 81, Type (0, 0), BuildingBlock: KIFKEQ_clean_linker_1, # of connection points: 2
#     Edge 82, Type (0, 0), BuildingBlock: KIFKEQ_clean_linker_1, # of connection points: 2
#     Edge 83, Type (0, 0), BuildingBlock: KIFKEQ_clean_linker_1, # of connection points: 2
#     Edge 84, Type (0, 0), BuildingBlock: KIFKEQ_clean_linker_1, # of connection points: 2
#     Edge 85, Type (0, 0), BuildingBlock: KIFKEQ_clean_linker_1, # of connection points: 2
#     Edge 86, Type (0, 0), BuildingBlock: KIFKEQ_clean_linker_1, # of connection points: 2
#     Edge 87, Type (0, 0), BuildingBlock: KIFKEQ_clean_linker_1, # of connection points: 2
#     Edge 88, Type (0, 0), BuildingBlock: KIFKEQ_clean_linker_1, # of connection points: 2
#     Edge 89, Type (0, 0), BuildingBlock: KIFKEQ_clean_linker_1, # of connection points: 2
#     Edge 90, Type (0, 0), BuildingBlock: KIFKEQ_clean_linker_1, # of connection points: 2
#     Edge 91, Type (0, 0), BuildingBlock: KIFKEQ_clean_linker_1, # of connection points: 2
#     Edge 92, Type (0, 0), BuildingBlock: KIFKEQ_clean_linker_1, # of connection points: 2
#     Edge 93, Type (0, 0), BuildingBlock: KIFKEQ_clean_linker_1, # of connection points: 2
#     Edge 94, Type (0, 0), BuildingBlock: KIFKEQ_clean_linker_1, # of connection points: 2
#     Edge 95, Type (0, 0), BuildingBlock: KIFKEQ_clean_linker_1, # of connection points: 2
#     Edge 96, Type (0, 0), BuildingBlock: KIFKEQ_clean_linker_1, # of connection points: 2
#     Edge 97, Type (0, 0), BuildingBlock: KIFKEQ_clean_linker_1, # of connection points: 2
#     Edge 98, Type (0, 0), BuildingBlock: KIFKEQ_clean_linker_1, # of connection points: 2
#     Edge 99, Type (0, 0), BuildingBlock: KIFKEQ_clean_linker_1, # of connection points: 2
#     Edge 100, Type (0, 0), BuildingBlock: KIFKEQ_clean_linker_1, # of connection points: 2
#     Edge 101, Type (0, 0), BuildingBlock: KIFKEQ_clean_linker_1, # of connection points: 2
#     Edge 102, Type (0, 0), BuildingBlock: KIFKEQ_clean_linker_1, # of connection points: 2
#     Edge 103, Type (0, 0), BuildingBlock: KIFKEQ_clean_linker_1, # of connection points: 2
#     Edge 104, Type (0, 0), BuildingBlock: KIFKEQ_clean_linker_1, # of connection points: 2
#     Edge 105, Type (0, 0), BuildingBlock: KIFKEQ_clean_linker_1, # of connection points: 2
#     Edge 106, Type (0, 0), BuildingBlock: KIFKEQ_clean_linker_1, # of connection points: 2
#     Edge 107, Type (0, 0), BuildingBlock: KIFKEQ_clean_linker_1, # of connection points: 2
#     Edge 108, Type (0, 0), BuildingBlock: KIFKEQ_clean_linker_1, # of connection points: 2
#     Edge 109, Type (0, 0), BuildingBlock: KIFKEQ_clean_linker_1, # of connection points: 2
#     Edge 110, Type (0, 0), BuildingBlock: KIFKEQ_clean_linker_1, # of connection points: 2
#     Edge 111, Type (0, 0), BuildingBlock: KIFKEQ_clean_linker_1, # of connection points: 2
#     Edge 112, Type (0, 0), BuildingBlock: KIFKEQ_clean_linker_1, # of connection points: 2
#     Edge 113, Type (0, 0), BuildingBlock: KIFKEQ_clean_linker_1, # of connection points: 2
#     Edge 114, Type (0, 0), BuildingBlock: KIFKEQ_clean_linker_1, # of connection points: 2
#     Edge 115, Type (0, 0), BuildingBlock: KIFKEQ_clean_linker_1, # of connection points: 2
#     Edge 116, Type (0, 0), BuildingBlock: KIFKEQ_clean_linker_1, # of connection points: 2
#     Edge 117, Type (0, 0), BuildingBlock: KIFKEQ_clean_linker_1, # of connection points: 2
#     Edge 118, Type (0, 0), BuildingBlock: KIFKEQ_clean_linker_1, # of connection points: 2
#     Edge 119, Type (0, 0), BuildingBlock: KIFKEQ_clean_linker_1, # of connection points: 2
#     Edge 120, Type (0, 0), BuildingBlock: KIFKEQ_clean_linker_1, # of connection points: 2
#     Edge 121, Type (0, 0), BuildingBlock: KIFKEQ_clean_linker_1, # of connection points: 2
#     Edge 122, Type (0, 0), BuildingBlock: KIFKEQ_clean_linker_1, # of connection points: 2
#     Edge 123, Type (0, 0), BuildingBlock: KIFKEQ_clean_linker_1, # of connection points: 2
#     Edge 124, Type (0, 0), BuildingBlock: KIFKEQ_clean_linker_1, # of connection points: 2
#     Edge 125, Type (0, 0), BuildingBlock: KIFKEQ_clean_linker_1, # of connection points: 2
#     Edge 126, Type (0, 0), BuildingBlock: KIFKEQ_clean_linker_1, # of connection points: 2
#     Edge 127, Type (0, 0), BuildingBlock: KIFKEQ_clean_linker_1, # of connection points: 2
#     Edge 128, Type (0, 0), BuildingBlock: KIFKEQ_clean_linker_1, # of connection points: 2
#     Edge 129, Type (0, 0), BuildingBlock: KIFKEQ_clean_linker_1, # of connection points: 2
#     Edge 130, Type (0, 0), BuildingBlock: KIFKEQ_clean_linker_1, # of connection points: 2
#     Edge 131, Type (0, 0), BuildingBlock: KIFKEQ_clean_linker_1, # of connection points: 2
#     Edge 132, Type (0, 0), BuildingBlock: KIFKEQ_clean_linker_1, # of connection points: 2
#     Edge 133, Type (0, 0), BuildingBlock: KIFKEQ_clean_linker_1, # of connection points: 2
#     Edge 134, Type (0, 0), BuildingBlock: KIFKEQ_clean_linker_1, # of connection points: 2
#     Edge 135, Type (0, 0), BuildingBlock: KIFKEQ_clean_linker_1, # of connection points: 2
#     Edge 136, Type (0, 0), BuildingBlock: KIFKEQ_clean_linker_1, # of connection points: 2
#     Edge 137, Type (0, 0), BuildingBlock: KIFKEQ_clean_linker_1, # of connection points: 2
#     Edge 138, Type (0, 0), BuildingBlock: KIFKEQ_clean_linker_1, # of connection points: 2
#     Edge 139, Type (0, 0), BuildingBlock: KIFKEQ_clean_linker_1, # of connection points: 2
#     Edge 140, Type (0, 0), BuildingBlock: KIFKEQ_clean_linker_1, # of connection points: 2
#     Edge 141, Type (0, 0), BuildingBlock: KIFKEQ_clean_linker_1, # of connection points: 2
#     Edge 142, Type (0, 0), BuildingBlock: KIFKEQ_clean_linker_1, # of connection points: 2
#     Edge 143, Type (0, 0), BuildingBlock: KIFKEQ_clean_linker_1, # of connection points: 2
# Relax obj value: 0.233
# Max RMSD: 0.112
# Mean RMSD: 0.112
data_MOF--net-uko--node1-QUQFOY_clean_sbu_1--edge1-KIFKEQ_clean_linker_1
_symmetry_space_group_name_H-M    P1
_symmetry_Int_Tables_number       1
_symmetry_cell_setting            triclinic
loop_
_symmetry_equiv_pos_as_xyz
'x, y, z'
_cell_length_a     57.731467
_cell_length_b     57.729462
_cell_length_c     57.734304
_cell_angle_alpha  90.00026
_cell_angle_beta   90.000058
_cell_angle_gamma 90.003777
loop_
_atom_site_label
_atom_site_type_symbol
_atom_site_fract_x
_atom_site_fract_y
_atom_site_fract_z
_atom_type_partial_charge
O0 O 0.01794 0.36008 0.27799 0.0
Cd1 Cd 0.00447 0.36834 0.24611 0.0
Cd2 Cd 0.04532 0.3945 0.24293 0.0
O3 O 0.05169 0.37757 0.27386 0.0
O4 O 0.98348 0.3422 0.23804 0.0
O5 O 0.01658 0.34898 0.21984 0.0
C6 C 0.9988 0.33571 0.22309 0.0
C7 C 0.07792 0.40387 0.22076 0.0
C8 C 0.03805 0.36484 0.28552 0.0
C9 C 0.9982 0.419 0.24123 0.0
O10 O 0.02018 0.41973 0.24134 0.0
O11 O 0.98748 0.39982 0.24265 0.0
O12 O 0.07351 0.41395 0.24012 0.0
O13 O 0.06398 0.38775 0.21399 0.0
O14 O 0.98149 0.1414 0.27675 0.0
Cd15 Cd 0.99514 0.13372 0.24482 0.0
Cd16 Cd 0.95424 0.10764 0.24081 0.0
O17 O 0.94777 0.12399 0.27206 0.0
O18 O 0.01613 0.16 0.23724 0.0
O19 O 0.98314 0.15343 0.21877 0.0
C20 C 0.00089 0.16667 0.22229 0.0
C21 C 0.92153 0.09839 0.21867 0.0
C22 C 0.96133 0.1365 0.28407 0.0
C23 C 0.00145 0.08317 0.23888 0.0
O24 O 0.97947 0.08248 0.2387 0.0
O25 O 0.01215 0.1023 0.24094 0.0
O26 O 0.92613 0.08807 0.23786 0.0
O27 O 0.93535 0.11467 0.21204 0.0
O28 O 0.01787 0.63829 0.21882 0.0
Cd29 Cd 0.00416 0.63271 0.2511 0.0
Cd30 Cd 0.04581 0.6091 0.25872 0.0
O31 O 0.05275 0.62538 0.22745 0.0
O32 O 0.98364 0.65952 0.25807 0.0
O33 O 0.0169 0.65312 0.27618 0.0
C34 C 0.99923 0.66644 0.27257 0.0
C35 C 0.07873 0.6003 0.28083 0.0
C36 C 0.03896 0.63521 0.21339 0.0
C37 C 0.99923 0.58283 0.25991 0.0
O38 O 0.02122 0.58313 0.2608 0.0
O39 O 0.98783 0.60135 0.25664 0.0
O40 O 0.07417 0.58991 0.26169 0.0
O41 O 0.0647 0.61637 0.28751 0.0
O42 O 0.98345 0.86193 0.21903 0.0
Cd43 Cd 0.99689 0.86933 0.2511 0.0
Cd44 Cd 0.9558 0.89491 0.25539 0.0
O45 O 0.9495 0.87878 0.22401 0.0
O46 O 0.01781 0.84298 0.25863 0.0
O47 O 0.98462 0.84937 0.27681 0.0
C48 C 0.00238 0.83614 0.27331 0.0
C49 C 0.92295 0.9035 0.27755 0.0
C50 C 0.9632 0.86662 0.21182 0.0
C51 C 0.00275 0.91983 0.25761 0.0
O52 O 0.98076 0.92031 0.25775 0.0
O53 O 0.01365 0.90083 0.25541 0.0
O54 O 0.92748 0.91413 0.25852 0.0
O55 O 0.93695 0.88732 0.28403 0.0
O56 O 0.27685 0.01858 0.36181 0.0
Cd57 Cd 0.24533 0.00382 0.36914 0.0
Cd58 Cd 0.24061 0.04412 0.39593 0.0
O59 O 0.272 0.05173 0.38027 0.0
O60 O 0.23838 0.98327 0.34232 0.0
O61 O 0.21895 0.01553 0.34967 0.0
C62 C 0.22299 0.99823 0.33601 0.0
C63 C 0.21722 0.07558 0.40596 0.0
C64 C 0.28404 0.03865 0.36729 0.0
C65 C 0.23954 0.99624 0.41937 0.0
O66 O 0.23875 0.01818 0.42034 0.0
O67 O 0.24202 0.98587 0.40011 0.0
O68 O 0.23598 0.07086 0.41698 0.0
O69 O 0.21188 0.06288 0.38835 0.0
O70 O 0.72152 0.48404 0.36478 0.0
Cd71 Cd 0.75367 0.49782 0.37103 0.0
Cd72 Cd 0.76078 0.45649 0.39495 0.0
O73 O 0.72985 0.44926 0.37816 0.0
O74 O 0.76126 0.51814 0.34424 0.0
O75 O 0.7792 0.48492 0.35128 0.0
C76 C 0.77591 0.5025 0.33776 0.0
C77 C 0.78333 0.42394 0.40394 0.0
C78 C 0.71601 0.46298 0.3679 0.0
C79 C 0.7613 0.50311 0.42107 0.0
O80 O 0.76218 0.48112 0.42093 0.0
O81 O 0.75848 0.51439 0.40238 0.0
O82 O 0.76397 0.42812 0.4141 0.0
O83 O 0.78996 0.43813 0.38799 0.0
O84 O 0.2768 0.98483 0.14138 0.0
Cd85 Cd 0.24474 0.99818 0.13372 0.0
Cd86 Cd 0.24134 0.95748 0.10715 0.0
O87 O 0.27246 0.95118 0.12375 0.0
O88 O 0.23678 0.01868 0.16028 0.0
O89 O 0.21886 0.98549 0.15323 0.0
C90 C 0.22211 0.00307 0.16674 0.0
C91 C 0.21974 0.92461 0.09732 0.0
C92 C 0.28429 0.96475 0.1364 0.0
C93 C 0.23904 0.00491 0.0832 0.0
O94 O 0.23922 0.98294 0.08227 0.0
O95 O 0.24074 0.01546 0.10245 0.0
O96 O 0.23895 0.92957 0.08722 0.0
O97 O 0.21277 0.93816 0.11368 0.0
O98 O 0.7255 0.51861 0.14283 0.0
Cd99 Cd 0.75727 0.50465 0.13518 0.0
Cd100 Cd 0.76162 0.54561 0.10907 0.0
O101 O 0.73066 0.55245 0.12579 0.0
O102 O 0.76443 0.48358 0.16151 0.0
O103 O 0.78328 0.51639 0.1551 0.0
C104 C 0.7794 0.49873 0.16835 0.0
C105 C 0.78387 0.57812 0.09935 0.0
C106 C 0.71849 0.53893 0.13818 0.0
C107 C 0.76282 0.49833 0.08462 0.0
O108 O 0.76312 0.52031 0.08394 0.0
O109 O 0.76094 0.48762 0.10376 0.0
O110 O 0.76451 0.5736 0.08933 0.0
O111 O 0.79063 0.56433 0.11561 0.0
O112 O 0.36216 0.28005 0.0169 0.0
Cd113 Cd 0.36743 0.24763 0.00342 0.0
Cd114 Cd 0.39111 0.24021 0.04496 0.0
O115 O 0.37489 0.27151 0.05188 0.0
O116 O 0.34041 0.24073 0.98315 0.0
O117 O 0.34688 0.22285 0.01651 0.0
C118 C 0.33345 0.22645 0.99893 0.0
C119 C 0.39999 0.21803 0.07782 0.0
C120 C 0.3652 0.28557 0.03797 0.0
C121 C 0.41725 0.23877 0.99833 0.0
O122 O 0.41703 0.23813 0.02032 0.0
O123 O 0.39866 0.24183 0.98696 0.0
O124 O 0.41035 0.2372 0.0733 0.0
O125 O 0.38389 0.21138 0.06381 0.0
O126 O 0.36075 0.72578 0.48149 0.0
Cd127 Cd 0.36695 0.75724 0.49681 0.0
Cd128 Cd 0.39486 0.76286 0.45705 0.0
O129 O 0.37993 0.73125 0.44886 0.0
O130 O 0.33968 0.76277 0.5172 0.0
O131 O 0.34665 0.78316 0.48546 0.0
C132 C 0.33294 0.77822 0.50249 0.0
C133 C 0.40531 0.78634 0.42577 0.0
C134 C 0.36684 0.71887 0.46151 0.0
C135 C 0.41692 0.76396 0.50564 0.0
O136 O 0.41846 0.76505 0.48374 0.0
O137 O 0.39744 0.76098 0.51545 0.0
O138 O 0.4166 0.76786 0.4309 0.0
O139 O 0.3873 0.79141 0.438 0.0
O140 O 0.63431 0.78133 0.48622 0.0
Cd141 Cd 0.62897 0.74968 0.50146 0.0
Cd142 Cd 0.60409 0.74093 0.46085 0.0
O143 O 0.61945 0.77227 0.4522 0.0
O144 O 0.65638 0.74347 0.52144 0.0
O145 O 0.64893 0.72398 0.48921 0.0
C146 C 0.66279 0.72828 0.5063 0.0
C147 C 0.59451 0.71704 0.42955 0.0
C148 C 0.63015 0.78645 0.46523 0.0
C149 C 0.57934 0.74118 0.50837 0.0
O150 O 0.57911 0.7393 0.48645 0.0
O151 O 0.59814 0.74511 0.51911 0.0
O152 O 0.58324 0.7357 0.43403 0.0
O153 O 0.61203 0.71199 0.44246 0.0
O154 O 0.13656 0.71891 0.51417 0.0
Cd155 Cd 0.13016 0.75106 0.50047 0.0
Cd156 Cd 0.10628 0.75814 0.54194 0.0
O157 O 0.12339 0.72738 0.54899 0.0
O158 O 0.15708 0.7591 0.48046 0.0
O159 O 0.14961 0.77657 0.51384 0.0
C160 C 0.16333 0.77356 0.49637 0.0
C161 C 0.09696 0.7802 0.57471 0.0
C162 C 0.13364 0.71352 0.53529 0.0
C163 C 0.08012 0.75878 0.49533 0.0
O164 O 0.08034 0.75961 0.51732 0.0
O165 O 0.09875 0.75593 0.48397 0.0
O166 O 0.08701 0.76079 0.57028 0.0
O167 O 0.11288 0.78717 0.56065 0.0
O168 O 0.98663 0.63554 0.71955 0.0
Cd169 Cd 0.00077 0.62997 0.75163 0.0
Cd170 Cd 0.95955 0.60554 0.75956 0.0
O171 O 0.952 0.62231 0.72871 0.0
O172 O 0.02079 0.6572 0.7585 0.0
O173 O 0.98778 0.65011 0.7768 0.0
C174 C 0.00511 0.66383 0.77303 0.0
C175 C 0.92693 0.5961 0.78183 0.0
C176 C 0.96545 0.63242 0.71452 0.0
C177 C 0.0066 0.58008 0.76005 0.0
O178 O 0.98462 0.58 0.7611 0.0
O179 O 0.01767 0.59884 0.75687 0.0
O180 O 0.93148 0.5859 0.76258 0.0
O181 O 0.94084 0.61225 0.78857 0.0
O182 O 0.01496 0.86236 0.71906 0.0
Cd183 Cd 0.00102 0.86771 0.75128 0.0
Cd184 Cd 0.04199 0.89274 0.75865 0.0
O185 O 0.04949 0.87621 0.72766 0.0
O186 O 0.98122 0.84032 0.75815 0.0
O187 O 0.01424 0.84759 0.77636 0.0
C188 C 0.99697 0.83377 0.77263 0.0
C189 C 0.07454 0.90269 0.78079 0.0
C190 C 0.03599 0.86588 0.71367 0.0
C191 C 0.99461 0.91753 0.75961 0.0
O192 O 0.0166 0.91793 0.76037 0.0
O193 O 0.98376 0.89862 0.75663 0.0
O194 O 0.06978 0.91278 0.76153 0.0
O195 O 0.06092 0.8863 0.78757 0.0
O196 O 0.9849 0.36047 0.77784 0.0
Cd197 Cd 0.99956 0.36716 0.74616 0.0
Cd198 Cd 0.95963 0.39474 0.74141 0.0
O199 O 0.95201 0.37935 0.7729 0.0
O200 O 0.01957 0.33989 0.73949 0.0
O201 O 0.98728 0.34749 0.72021 0.0
C202 C 0.00434 0.33357 0.72439 0.0
C203 C 0.92792 0.40521 0.71859 0.0
C204 C 0.96493 0.36628 0.78501 0.0
C205 C 0.00799 0.41717 0.73969 0.0
O206 O 0.98607 0.41855 0.73904 0.0
O207 O 0.01802 0.39775 0.74233 0.0
O208 O 0.93326 0.41633 0.73712 0.0
O209 O 0.9402 0.38735 0.71311 0.0
O210 O 0.01439 0.13553 0.78098 0.0
Cd211 Cd 0.99964 0.13037 0.74908 0.0
Cd212 Cd 0.04003 0.10523 0.74093 0.0
O213 O 0.04839 0.12031 0.77247 0.0
O214 O 0.98018 0.15802 0.74236 0.0
O215 O 0.01267 0.15 0.72352 0.0
C216 C 0.99569 0.16411 0.72741 0.0
C217 C 0.07145 0.09568 0.71724 0.0
C218 C 0.03524 0.13111 0.78645 0.0
C219 C 0.99234 0.08091 0.74036 0.0
O220 O 0.01428 0.08047 0.73883 0.0
O221 O 0.98171 0.09977 0.7442 0.0
O222 O 0.06676 0.08426 0.73576 0.0
O223 O 0.05868 0.11333 0.71224 0.0
O224 O 0.72005 0.98624 0.63575 0.0
Cd225 Cd 0.7516 0.00169 0.63063 0.0
Cd226 Cd 0.76097 0.96116 0.60586 0.0
O227 O 0.72973 0.95225 0.62123 0.0
O228 O 0.75774 0.02139 0.65825 0.0
O229 O 0.77724 0.98922 0.65049 0.0
C230 C 0.77288 0.00614 0.66454 0.0
C231 C 0.78476 0.92993 0.59592 0.0
C232 C 0.71529 0.96514 0.63173 0.0
C233 C 0.76036 0.00871 0.58116 0.0
O234 O 0.76244 0.98682 0.58097 0.0
O235 O 0.7562 0.01945 0.5999 0.0
O236 O 0.76607 0.93453 0.58476 0.0
O237 O 0.78992 0.9427 0.61352 0.0
O238 O 0.28338 0.51614 0.63617 0.0
Cd239 Cd 0.25129 0.50248 0.62935 0.0
Cd240 Cd 0.24491 0.54377 0.60516 0.0
O241 O 0.27546 0.55096 0.62263 0.0
O242 O 0.24315 0.48227 0.65607 0.0
O243 O 0.2255 0.51556 0.64865 0.0
C244 C 0.2285 0.49801 0.66228 0.0
C245 C 0.22235 0.5762 0.59588 0.0
C246 C 0.28902 0.53719 0.63318 0.0
C247 C 0.2446 0.49712 0.57918 0.0
O248 O 0.24395 0.51912 0.57922 0.0
O249 O 0.24692 0.48586 0.59794 0.0
O250 O 0.2419 0.57218 0.58602 0.0
O251 O 0.21556 0.56195 0.6117 0.0
O252 O 0.72115 0.0157 0.86404 0.0
Cd253 Cd 0.75314 0.00102 0.86864 0.0
Cd254 Cd 0.76129 0.04124 0.89433 0.0
O255 O 0.72969 0.04965 0.87936 0.0
O256 O 0.75917 0.98159 0.84081 0.0
O257 O 0.77827 0.01402 0.84845 0.0
C258 C 0.77398 0.9971 0.83438 0.0
C259 C 0.78476 0.07278 0.9042 0.0
C260 C 0.71566 0.03651 0.86859 0.0
C261 C 0.76211 0.99319 0.91801 0.0
O262 O 0.7635 0.01513 0.91876 0.0
O263 O 0.75836 0.9828 0.89899 0.0
O264 O 0.76631 0.06778 0.91559 0.0
O265 O 0.78986 0.06022 0.88643 0.0
O266 O 0.27627 0.48298 0.85831 0.0
Cd267 Cd 0.24443 0.49715 0.86525 0.0
Cd268 Cd 0.23976 0.45656 0.89227 0.0
O269 O 0.27101 0.44958 0.87617 0.0
O270 O 0.23788 0.51796 0.83855 0.0
O271 O 0.21868 0.48537 0.84501 0.0
C272 C 0.2229 0.50286 0.83164 0.0
C273 C 0.21778 0.42397 0.90228 0.0
C274 C 0.28329 0.46281 0.86358 0.0
C275 C 0.2381 0.50439 0.91564 0.0
O276 O 0.23769 0.48243 0.91676 0.0
O277 O 0.2404 0.51472 0.89633 0.0
O278 O 0.23685 0.42899 0.91261 0.0
O279 O 0.21112 0.43734 0.88564 0.0
O280 O 0.63719 0.71913 0.98761 0.0
Cd281 Cd 0.63269 0.75115 0.0023 0.0
Cd282 Cd 0.60755 0.75984 0.96188 0.0
O283 O 0.62225 0.72811 0.95361 0.0
O284 O 0.66065 0.75752 0.02143 0.0
O285 O 0.65262 0.77624 0.98886 0.0
C286 C 0.66686 0.7722 0.00571 0.0
C287 C 0.59778 0.78306 0.93017 0.0
C288 C 0.63276 0.71387 0.96671 0.0
C289 C 0.58349 0.76098 0.00974 0.0
O290 O 0.58303 0.76251 0.98781 0.0
O291 O 0.60229 0.7567 0.02033 0.0
O292 O 0.58629 0.76472 0.93534 0.0
O293 O 0.6156 0.78817 0.94265 0.0
O294 O 0.63648 0.28203 0.51579 0.0
Cd295 Cd 0.63099 0.24997 0.50156 0.0
Cd296 Cd 0.60644 0.24207 0.54264 0.0
O297 O 0.62313 0.27291 0.55038 0.0
O298 O 0.65825 0.24322 0.48154 0.0
O299 O 0.65116 0.22479 0.51448 0.0
C300 C 0.6649 0.22865 0.49718 0.0
C301 C 0.59693 0.21948 0.57502 0.0
C302 C 0.63326 0.2871 0.53694 0.0
C303 C 0.58106 0.24188 0.49558 0.0
O304 O 0.58091 0.24082 0.51756 0.0
O305 O 0.59988 0.24489 0.48457 0.0
O306 O 0.58677 0.23879 0.57066 0.0
O307 O 0.61312 0.21288 0.56108 0.0
O308 O 0.3629 0.22337 0.51652 0.0
Cd309 Cd 0.36814 0.25525 0.50177 0.0
Cd310 Cd 0.39338 0.26325 0.54237 0.0
O311 O 0.37779 0.23192 0.55066 0.0
O312 O 0.34059 0.26174 0.48209 0.0
O313 O 0.34826 0.28075 0.51456 0.0
C314 C 0.33428 0.27669 0.49751 0.0
C315 C 0.4037 0.28645 0.57394 0.0
C316 C 0.36705 0.21795 0.53743 0.0
C317 C 0.41769 0.26359 0.49461 0.0
O318 O 0.41811 0.26504 0.51655 0.0
O319 O 0.3988 0.26001 0.48393 0.0
O320 O 0.41464 0.26772 0.56899 0.0
O321 O 0.38606 0.29195 0.56137 0.0
O322 O 0.86529 0.28034 0.48592 0.0
Cd323 Cd 0.86967 0.2483 0.50061 0.0
Cd324 Cd 0.89546 0.24011 0.46017 0.0
O325 O 0.88063 0.27181 0.45198 0.0
O326 O 0.84187 0.24264 0.52024 0.0
O327 O 0.84905 0.22336 0.48783 0.0
C328 C 0.83515 0.22787 0.50483 0.0
C329 C 0.90535 0.21698 0.42839 0.0
C330 C 0.86991 0.28585 0.46513 0.0
C331 C 0.91906 0.23886 0.50827 0.0
O332 O 0.91978 0.23753 0.48632 0.0
O333 O 0.90009 0.24277 0.51869 0.0
O334 O 0.91681 0.23531 0.43364 0.0
O335 O 0.88754 0.2118 0.44085 0.0
O336 O 0.52052 0.85747 0.77885 0.0
Cd337 Cd 0.50662 0.8644 0.74689 0.0
Cd338 Cd 0.54737 0.89066 0.74215 0.0
O339 O 0.55427 0.87459 0.77344 0.0
O340 O 0.48578 0.83779 0.74009 0.0
O341 O 0.5186 0.84416 0.72124 0.0
C342 C 0.50101 0.83085 0.72525 0.0
C343 C 0.57982 0.90024 0.71978 0.0
C344 C 0.5408 0.86238 0.78583 0.0
C345 C 0.49995 0.91478 0.74046 0.0
O346 O 0.52192 0.9156 0.74019 0.0
O347 O 0.48935 0.89561 0.74263 0.0
O348 O 0.57521 0.91055 0.73897 0.0
O349 O 0.56617 0.88376 0.71328 0.0
O350 O 0.48671 0.63481 0.78468 0.0
Cd351 Cd 0.50064 0.62831 0.75264 0.0
Cd352 Cd 0.4593 0.60434 0.74543 0.0
O353 O 0.45198 0.62138 0.7762 0.0
O354 O 0.52094 0.65507 0.74488 0.0
O355 O 0.48776 0.64784 0.72694 0.0
C356 C 0.50531 0.66141 0.73016 0.0
C357 C 0.42683 0.59555 0.72271 0.0
C358 C 0.46559 0.63177 0.79004 0.0
C359 C 0.50592 0.57823 0.74507 0.0
O360 O 0.48393 0.57836 0.74409 0.0
O361 O 0.51718 0.59691 0.74797 0.0
O362 O 0.43084 0.58533 0.74207 0.0
O363 O 0.44117 0.61142 0.71617 0.0
O364 O 0.51689 0.135 0.71947 0.0
Cd365 Cd 0.5033 0.12866 0.75166 0.0
Cd366 Cd 0.54493 0.10557 0.75901 0.0
O367 O 0.5519 0.12242 0.72806 0.0
O368 O 0.48302 0.15537 0.75962 0.0
O369 O 0.51649 0.14829 0.7771 0.0
C370 C 0.49886 0.16181 0.77407 0.0
C371 C 0.57765 0.09712 0.78153 0.0
C372 C 0.53805 0.13231 0.71409 0.0
C373 C 0.49877 0.07864 0.7596 0.0
O374 O 0.52076 0.07917 0.7605 0.0
O375 O 0.48718 0.09711 0.75665 0.0
O376 O 0.57361 0.08689 0.76218 0.0
O377 O 0.56323 0.11285 0.78817 0.0
O378 O 0.48372 0.35891 0.72453 0.0
Cd379 Cd 0.49858 0.36514 0.75622 0.0
Cd380 Cd 0.45853 0.39281 0.7615 0.0
O381 O 0.45105 0.37812 0.72964 0.0
O382 O 0.51894 0.33797 0.7622 0.0
O383 O 0.48685 0.34494 0.78204 0.0
C384 C 0.50403 0.33129 0.77748 0.0
C385 C 0.42662 0.40331 0.78407 0.0
C386 C 0.46385 0.36509 0.71737 0.0
C387 C 0.50701 0.41504 0.76365 0.0
O388 O 0.48509 0.41642 0.76453 0.0
O389 O 0.51699 0.3957 0.7604 0.0
O390 O 0.43233 0.41462 0.76577 0.0
O391 O 0.43864 0.38525 0.78946 0.0
O392 O 0.7814 0.51646 0.86481 0.0
Cd393 Cd 0.74921 0.50277 0.87101 0.0
Cd394 Cd 0.74208 0.54421 0.89467 0.0
O395 O 0.77293 0.55139 0.87771 0.0
O396 O 0.74153 0.48255 0.84416 0.0
O397 O 0.72378 0.51586 0.85127 0.0
C398 C 0.72701 0.49831 0.83769 0.0
C399 C 0.71958 0.57674 0.90381 0.0
C400 C 0.78684 0.53758 0.86767 0.0
C401 C 0.74162 0.49773 0.92104 0.0
O402 O 0.74084 0.51972 0.92076 0.0
O403 O 0.74431 0.48631 0.90242 0.0
O404 O 0.73904 0.57261 0.91378 0.0
O405 O 0.71284 0.56255 0.88791 0.0
O406 O 0.21809 0.98585 0.86369 0.0
Cd407 Cd 0.25007 1.00014 0.86962 0.0
Cd408 Cd 0.25797 0.95876 0.89371 0.0
O409 O 0.22713 0.95118 0.87693 0.0
O410 O 0.25712 0.02049 0.84269 0.0
O411 O 0.27557 0.98754 0.84963 0.0
C412 C 0.27189 0.00502 0.83608 0.0
C413 C 0.28051 0.92633 0.90313 0.0
C414 C 0.21299 0.96467 0.86679 0.0
C415 C 0.25813 0.00554 0.91961 0.0
O416 O 0.25928 0.98357 0.91948 0.0
O417 O 0.25498 0.01678 0.90096 0.0
O418 O 0.26112 0.9306 0.91318 0.0
O419 O 0.28718 0.94035 0.88705 0.0
O420 O 0.77826 0.48454 0.64236 0.0
Cd421 Cd 0.74637 0.4984 0.63496 0.0
Cd422 Cd 0.74195 0.45761 0.60869 0.0
O423 O 0.77306 0.45082 0.6251 0.0
O424 O 0.73907 0.51913 0.66153 0.0
O425 O 0.72049 0.48623 0.65478 0.0
C426 C 0.72423 0.50378 0.66822 0.0
C427 C 0.71988 0.425 0.59901 0.0
C428 C 0.78529 0.46428 0.6375 0.0
C429 C 0.74046 0.50497 0.58448 0.0
O430 O 0.74018 0.48299 0.5837 0.0
O431 O 0.74248 0.51561 0.60365 0.0
O432 O 0.7391 0.42972 0.58882 0.0
O433 O 0.71314 0.43867 0.61537 0.0
O434 O 0.22165 0.01916 0.63971 0.0
Cd435 Cd 0.25381 0.00578 0.63267 0.0
Cd436 Cd 0.258 0.0467 0.60665 0.0
O437 O 0.2266 0.05307 0.62278 0.0
O438 O 0.26101 0.98503 0.65926 0.0
O439 O 0.27923 0.01821 0.65294 0.0
C440 C 0.27553 0.00055 0.66625 0.0
C441 C 0.28012 0.07955 0.59783 0.0
C442 C 0.21441 0.03937 0.63494 0.0
C443 C 0.26042 0.99948 0.58219 0.0
O444 O 0.2604 0.02147 0.58149 0.0
O445 O 0.25835 0.98878 0.60133 0.0
O446 O 0.26111 0.07489 0.58722 0.0
O447 O 0.28662 0.06567 0.61411 0.0
O448 O 0.85967 0.77907 0.51844 0.0
Cd449 Cd 0.86632 0.7469 0.50486 0.0
Cd450 Cd 0.89322 0.74269 0.54522 0.0
O451 O 0.87728 0.77407 0.552 0.0
O452 O 0.83933 0.73983 0.48457 0.0
O453 O 0.84621 0.72149 0.51757 0.0
C454 C 0.83261 0.72525 0.50015 0.0
C455 C 0.90294 0.72049 0.57772 0.0
C456 C 0.86488 0.7863 0.53855 0.0
C457 C 0.91662 0.7403 0.49751 0.0
O458 O 0.91779 0.74039 0.51947 0.0
O459 O 0.89728 0.74231 0.48718 0.0
O460 O 0.91336 0.73956 0.5729 0.0
O461 O 0.88631 0.71401 0.56425 0.0
O462 O 0.85919 0.22359 0.982 0.0
Cd463 Cd 0.86634 0.25498 0.99711 0.0
Cd464 Cd 0.89357 0.25997 0.95702 0.0
O465 O 0.87813 0.22854 0.94914 0.0
O466 O 0.83952 0.26143 0.0178 0.0
O467 O 0.8467 0.28143 0.98585 0.0
C468 C 0.83311 0.27704 0.00312 0.0
C469 C 0.90392 0.28341 0.92572 0.0
C470 C 0.86496 0.21645 0.962 0.0
C471 C 0.91649 0.2608 0.00517 0.0
O472 O 0.91768 0.26181 0.98325 0.0
O473 O 0.89714 0.25814 0.01532 0.0
O474 O 0.91496 0.2647 0.93057 0.0
O475 O 0.88613 0.28869 0.93819 0.0
O476 O 0.13511 0.27996 0.98479 0.0
Cd477 Cd 0.12953 0.24788 0.99896 0.0
Cd478 Cd 0.10568 0.23974 0.95749 0.0
O479 O 0.12234 0.27069 0.95002 0.0
O480 O 0.15648 0.24122 0.0194 0.0
O481 O 0.14994 0.22271 0.98639 0.0
C482 C 0.16338 0.22661 0.00391 0.0
C483 C 0.09651 0.2173 0.92489 0.0
C484 C 0.13219 0.28497 0.96358 0.0
C485 C 0.07962 0.23939 0.00422 0.0
O486 O 0.07981 0.23828 0.98224 0.0
O487 O 0.09824 0.24261 0.0155 0.0
O488 O 0.08634 0.23661 0.92924 0.0
O489 O 0.11255 0.21062 0.93896 0.0
O490 O 0.63936 0.22092 0.01852 0.0
Cd491 Cd 0.6314 0.25283 0.00498 0.0
Cd492 Cd 0.60527 0.25649 0.04555 0.0
O493 O 0.62174 0.22536 0.05215 0.0
O494 O 0.65777 0.26099 0.98433 0.0
O495 O 0.6506 0.27904 0.01743 0.0
C496 C 0.66407 0.27588 0.9998 0.0
C497 C 0.59626 0.27901 0.07802 0.0
C498 C 0.63441 0.21349 0.03863 0.0
C499 C 0.58085 0.25812 0.99842 0.0
O500 O 0.58005 0.25823 0.02039 0.0
O501 O 0.60005 0.25639 0.98779 0.0
O502 O 0.58587 0.25979 0.07372 0.0
O503 O 0.61247 0.28545 0.06402 0.0
O504 O 0.48313 0.13657 0.22103 0.0
Cd505 Cd 0.49839 0.13202 0.25277 0.0
Cd506 Cd 0.45807 0.10626 0.26152 0.0
O507 O 0.4493 0.1212 0.23001 0.0
O508 O 0.51827 0.15971 0.25812 0.0
O509 O 0.48623 0.15262 0.27803 0.0
C510 C 0.50321 0.16644 0.27324 0.0
C511 C 0.42679 0.09634 0.28533 0.0
C512 C 0.46225 0.13198 0.21581 0.0
C513 C 0.50614 0.08255 0.26176 0.0
O514 O 0.48422 0.08186 0.26346 0.0
O515 O 0.51652 0.10155 0.2578 0.0
O516 O 0.43161 0.08495 0.26683 0.0
O517 O 0.43937 0.11414 0.29028 0.0
O518 O 0.5153 0.36525 0.22054 0.0
Cd519 Cd 0.50154 0.37079 0.25279 0.0
Cd520 Cd 0.54306 0.39488 0.26028 0.0
O521 O 0.55019 0.378 0.22938 0.0
O522 O 0.48132 0.3437 0.25967 0.0
O523 O 0.51459 0.35034 0.27768 0.0
C524 C 0.4971 0.33679 0.27397 0.0
C525 C 0.57589 0.40411 0.28233 0.0
C526 C 0.53647 0.36811 0.2153 0.0
C527 C 0.49624 0.42074 0.26121 0.0
O528 O 0.51823 0.42065 0.26194 0.0
O529 O 0.48497 0.40206 0.25829 0.0
O530 O 0.57133 0.41427 0.26306 0.0
O531 O 0.56189 0.38809 0.28919 0.0
O532 O 0.48491 0.86298 0.27684 0.0
Cd533 Cd 0.49957 0.87005 0.24523 0.0
Cd534 Cd 0.45944 0.8975 0.24074 0.0
O535 O 0.45204 0.88199 0.27223 0.0
O536 O 0.51994 0.84305 0.23844 0.0
O537 O 0.48766 0.85041 0.21905 0.0
C538 C 0.50488 0.83667 0.22319 0.0
C539 C 0.42757 0.90769 0.21799 0.0
C540 C 0.46499 0.86878 0.28417 0.0
C541 C 0.50766 0.92024 0.23914 0.0
O542 O 0.48573 0.92151 0.23841 0.0
O543 O 0.51777 0.90085 0.24173 0.0
O544 O 0.43285 0.91885 0.23651 0.0
O545 O 0.44004 0.88998 0.21246 0.0
O546 O 0.51816 0.6412 0.27871 0.0
Cd547 Cd 0.5039 0.63408 0.24691 0.0
Cd548 Cd 0.54388 0.60668 0.243 0.0
O549 O 0.55102 0.62207 0.2746 0.0
O550 O 0.48375 0.66112 0.23964 0.0
O551 O 0.51627 0.65347 0.22076 0.0
C552 C 0.49904 0.6673 0.22452 0.0
C553 C 0.57579 0.5967 0.22025 0.0
C554 C 0.53794 0.63532 0.28635 0.0
C555 C 0.49575 0.58392 0.24091 0.0
O556 O 0.51769 0.58261 0.24049 0.0
O557 O 0.48564 0.60333 0.24327 0.0
O558 O 0.57055 0.58545 0.23873 0.0
O559 O 0.5633 0.61442 0.21479 0.0
O560 O 0.21956 0.48728 0.13498 0.0
Cd561 Cd 0.25155 0.50138 0.12873 0.0
Cd562 Cd 0.25932 0.45991 0.10485 0.0
O563 O 0.22858 0.45256 0.12189 0.0
O564 O 0.25904 0.52157 0.15564 0.0
O565 O 0.27707 0.48843 0.14842 0.0
C566 C 0.27365 0.50588 0.16208 0.0
C567 C 0.28141 0.42714 0.09555 0.0
C568 C 0.21449 0.46608 0.13207 0.0
C569 C 0.25945 0.50659 0.07874 0.0
O570 O 0.26065 0.48462 0.07896 0.0
O571 O 0.25631 0.51791 0.09735 0.0
O572 O 0.26209 0.43165 0.08548 0.0
O573 O 0.28833 0.44118 0.11151 0.0
O574 O 0.78006 0.01357 0.1355 0.0
Cd575 Cd 0.74844 0.99827 0.1303 0.0
Cd576 Cd 0.73972 0.0387 0.1049 0.0
O577 O 0.771 0.04744 0.12028 0.0
O578 O 0.74237 0.97846 0.15785 0.0
O579 O 0.72276 0.01059 0.15025 0.0
C580 C 0.72717 0.99361 0.16421 0.0
C581 C 0.71611 0.07008 0.09492 0.0
C582 C 0.78515 0.03453 0.13115 0.0
C583 C 0.73995 0.99088 0.08075 0.0
O584 O 0.73806 0.01279 0.08026 0.0
O585 O 0.7439 0.98034 0.09965 0.0
O586 O 0.73473 0.06531 0.08371 0.0
O587 O 0.7109 0.05736 0.11255 0.0
O588 O 0.22329 0.51872 0.36167 0.0
Cd589 Cd 0.25518 0.5038 0.36619 0.0
Cd590 Cd 0.26391 0.54443 0.39128 0.0
O591 O 0.23227 0.55283 0.37639 0.0
O592 O 0.26082 0.48393 0.33859 0.0
O593 O 0.28031 0.51626 0.34564 0.0
C594 C 0.27576 0.49917 0.33185 0.0
C595 C 0.28734 0.57594 0.4013 0.0
C596 C 0.21803 0.53965 0.36596 0.0
C597 C 0.2646 0.4966 0.41552 0.0
O598 O 0.26616 0.51854 0.41591 0.0
O599 O 0.26053 0.48594 0.39672 0.0
O600 O 0.26882 0.57096 0.41256 0.0
O601 O 0.2925 0.56345 0.3835 0.0
O602 O 0.77906 0.98336 0.36237 0.0
Cd603 Cd 0.74682 0.99712 0.36793 0.0
Cd604 Cd 0.73966 0.95608 0.39259 0.0
O605 O 0.77048 0.9486 0.37566 0.0
O606 O 0.73984 0.01707 0.3407 0.0
O607 O 0.72177 0.98392 0.34777 0.0
C608 C 0.72544 0.00127 0.33405 0.0
C609 C 0.71718 0.92363 0.40219 0.0
C610 C 0.78443 0.96226 0.36549 0.0
C611 C 0.73897 0.00322 0.41782 0.0
O612 O 0.73833 0.98122 0.4181 0.0
O613 O 0.74158 0.01419 0.39893 0.0
O614 O 0.73656 0.92801 0.41222 0.0
O615 O 0.71047 0.93757 0.38604 0.0
O616 O 0.13872 0.22341 0.48579 0.0
Cd617 Cd 0.13149 0.25501 0.50036 0.0
Cd618 Cd 0.10391 0.25917 0.46044 0.0
O619 O 0.1196 0.2278 0.45296 0.0
O620 O 0.15857 0.26206 0.52051 0.0
O621 O 0.15087 0.28124 0.48818 0.0
C622 C 0.16477 0.27725 0.50531 0.0
C623 C 0.09391 0.28213 0.42867 0.0
C624 C 0.13294 0.216 0.4659 0.0
C625 C 0.08132 0.26074 0.50869 0.0
O626 O 0.07992 0.26134 0.48676 0.0
O627 O 0.10077 0.2584 0.51871 0.0
O628 O 0.08268 0.26359 0.43377 0.0
O629 O 0.11155 0.28757 0.44128 0.0
O630 O 0.13801 0.78127 0.01299 0.0
Cd631 Cd 0.13279 0.74917 0.99876 0.0
Cd632 Cd 0.10781 0.74114 0.03972 0.0
O633 O 0.12421 0.77215 0.04741 0.0
O634 O 0.16021 0.74255 0.97895 0.0
O635 O 0.15297 0.72407 0.01182 0.0
C636 C 0.1668 0.72799 0.99462 0.0
C637 C 0.09792 0.71905 0.07233 0.0
C638 C 0.13448 0.78636 0.03409 0.0
C639 C 0.08305 0.74045 0.99228 0.0
O640 O 0.08267 0.73935 0.01426 0.0
O641 O 0.10191 0.74381 0.98147 0.0
O642 O 0.08769 0.73819 0.06745 0.0
O643 O 0.11435 0.7123 0.05875 0.0
O644 O 0.86605 0.71936 0.01337 0.0
Cd645 Cd 0.87067 0.75108 0.99808 0.0
Cd646 Cd 0.89617 0.76022 0.03817 0.0
O647 O 0.88125 0.72878 0.04714 0.0
O648 O 0.8427 0.75709 0.97886 0.0
O649 O 0.8508 0.7765 0.011 0.0
C650 C 0.83654 0.77211 0.99427 0.0
C651 C 0.90615 0.78414 0.06928 0.0
C652 C 0.87055 0.71441 0.03433 0.0
C653 C 0.91993 0.76024 0.99015 0.0
O654 O 0.92057 0.7621 0.01206 0.0
O655 O 0.901 0.75605 0.97977 0.0
O656 O 0.91753 0.76562 0.06454 0.0
O657 O 0.88832 0.78904 0.05672 0.0
O658 O 0.36469 0.78356 0.98574 0.0
Cd659 Cd 0.37025 0.75142 0.99979 0.0
Cd660 Cd 0.39522 0.74398 0.95903 0.0
O661 O 0.37859 0.77486 0.95125 0.0
O662 O 0.34285 0.74428 0.01946 0.0
O663 O 0.35046 0.72612 0.98649 0.0
C664 C 0.33653 0.72971 0.00369 0.0
C665 C 0.40479 0.72117 0.92684 0.0
C666 C 0.36817 0.78886 0.96469 0.0
C667 C 0.42007 0.74337 0.00634 0.0
O668 O 0.4205 0.74253 0.98435 0.0
O669 O 0.40113 0.74628 0.01715 0.0
O670 O 0.415 0.74048 0.93111 0.0
O671 O 0.38849 0.71474 0.94073 0.0
H672 H 0.96739 0.1901 0.19809 0.0
H673 H 0.03706 0.19701 0.22448 0.0
H674 H 0.96647 0.23161 0.18987 0.0
H675 H 0.03601 0.23834 0.21666 0.0
H676 H 0.03247 0.31252 0.19891 0.0
H677 H 0.03346 0.27108 0.19032 0.0
H678 H 0.9637 0.26413 0.21647 0.0
H679 H 0.96259 0.30539 0.22465 0.0
C680 C 0.98273 0.20033 0.20158 0.0
C681 C 0.00219 0.19028 0.21223 0.0
C682 C 0.98213 0.22417 0.19702 0.0
C683 C 0.00103 0.23842 0.2029 0.0
C684 C 0.02118 0.22796 0.21174 0.0
C685 C 0.02174 0.20419 0.21637 0.0
C686 C 0.0171 0.30226 0.20217 0.0
C687 C 0.99756 0.31221 0.21276 0.0
C688 C 0.01774 0.27846 0.1974 0.0
C689 C 0.99879 0.26416 0.20301 0.0
C690 C 0.97857 0.27455 0.21176 0.0
C691 C 0.97797 0.29827 0.2166 0.0
H692 H 0.03305 0.68985 0.29634 0.0
H693 H 0.96343 0.69721 0.26994 0.0
H694 H 0.03427 0.73136 0.30453 0.0
H695 H 0.96477 0.73855 0.27774 0.0
H696 H 0.96858 0.81253 0.2969 0.0
H697 H 0.96741 0.77093 0.30461 0.0
H698 H 0.03712 0.76421 0.27828 0.0
H699 H 0.03841 0.80564 0.27096 0.0
C700 C 0.0178 0.70019 0.2928 0.0
C701 C 0.99824 0.69025 0.28222 0.0
C702 C 0.01856 0.72403 0.29734 0.0
C703 C 0.99974 0.73839 0.29153 0.0
C704 C 0.97954 0.72807 0.28263 0.0
C705 C 0.97882 0.70431 0.27801 0.0
C706 C 0.98389 0.80227 0.2934 0.0
C707 C 0.00349 0.81238 0.28304 0.0
C708 C 0.98315 0.77839 0.29765 0.0
C709 C 0.00203 0.76413 0.29176 0.0
C710 C 0.0223 0.7746 0.28319 0.0
C711 C 0.023 0.79842 0.27886 0.0
H712 H 0.19882 0.96867 0.18978 0.0
H713 H 0.22364 0.03881 0.19765 0.0
H714 H 0.19088 0.96689 0.23131 0.0
H715 H 0.21607 0.03693 0.23901 0.0
H716 H 0.19815 0.0317 0.31322 0.0
H717 H 0.18972 0.0332 0.27176 0.0
H718 H 0.2178 0.96431 0.2637 0.0
H719 H 0.22586 0.9627 0.30497 0.0
C720 C 0.20201 0.98392 0.20023 0.0
C721 C 0.21214 0.00379 0.19043 0.0
C722 C 0.19762 0.98283 0.22408 0.0
C723 C 0.20313 0.00163 0.2386 0.0
C724 C 0.21144 0.02215 0.22841 0.0
C725 C 0.21592 0.0232 0.20463 0.0
C726 C 0.20189 0.01662 0.3027 0.0
C727 C 0.21294 0.99719 0.31237 0.0
C728 C 0.19721 0.01755 0.2789 0.0
C729 C 0.20336 0.99901 0.2643 0.0
C730 C 0.21266 0.97887 0.27437 0.0
C731 C 0.21743 0.97798 0.29809 0.0
H732 H 0.8032 0.53229 0.19209 0.0
H733 H 0.77644 0.46275 0.19887 0.0
H734 H 0.81035 0.53354 0.23378 0.0
H735 H 0.78322 0.46412 0.24038 0.0
H736 H 0.79992 0.4684 0.31502 0.0
H737 H 0.80893 0.46691 0.27369 0.0
H738 H 0.78286 0.53658 0.26563 0.0
H739 H 0.77422 0.53818 0.30679 0.0
C740 C 0.79941 0.51705 0.20234 0.0
C741 C 0.78897 0.49753 0.19218 0.0
C742 C 0.80335 0.51783 0.22628 0.0
C743 C 0.79704 0.49907 0.24053 0.0
C744 C 0.78843 0.47885 0.23 0.0
C745 C 0.78442 0.4781 0.20613 0.0
C746 C 0.79672 0.48362 0.30454 0.0
C747 C 0.78608 0.50331 0.31417 0.0
C748 C 0.80174 0.48271 0.28081 0.0
C749 C 0.79636 0.5015 0.26624 0.0
C750 C 0.78742 0.52183 0.27628 0.0
C751 C 0.78231 0.5227 0.29994 0.0
H752 H 0.30237 0.22913 0.9634 0.0
H753 H 0.31005 0.20338 0.03322 0.0
H754 H 0.26093 0.22188 0.96521 0.0
H755 H 0.26844 0.19577 0.03492 0.0
H756 H 0.19445 0.2298 0.03941 0.0
H757 H 0.23587 0.22248 0.03772 0.0
H758 H 0.22835 0.19524 0.96845 0.0
H759 H 0.18675 0.20291 0.97002 0.0
C760 C 0.29531 0.22132 0.97893 0.0
C761 C 0.30951 0.21712 0.99826 0.0
C762 C 0.2715 0.21703 0.97993 0.0
C763 C 0.26126 0.20848 1.00032 0.0
C764 C 0.27572 0.20269 0.01908 0.0
C765 C 0.29961 0.2069 0.01803 0.0
C766 C 0.20149 0.22172 0.02401 0.0
C767 C 0.1873 0.21722 0.00475 0.0
C768 C 0.22531 0.21739 0.02308 0.0
C769 C 0.23554 0.20851 0.00283 0.0
C770 C 0.22107 0.20242 0.98418 0.0
C771 C 0.19719 0.20666 0.98515 0.0
H772 H 0.30937 0.8023 0.46902 0.0
H773 H 0.30181 0.7738 0.53777 0.0
H774 H 0.2676 0.80897 0.46727 0.0
H775 H 0.26024 0.78016 0.53592 0.0
H776 H 0.18562 0.79705 0.53111 0.0
H777 H 0.22692 0.80607 0.53326 0.0
H778 H 0.23588 0.78122 0.46327 0.0
H779 H 0.19474 0.77252 0.46102 0.0
C780 C 0.29892 0.79802 0.484 0.0
C781 C 0.30891 0.78727 0.50344 0.0
C782 C 0.27494 0.80168 0.48292 0.0
C783 C 0.26049 0.79483 0.50132 0.0
C784 C 0.27079 0.78582 0.52148 0.0
C785 C 0.29469 0.78204 0.5225 0.0
C786 C 0.19629 0.79411 0.51596 0.0
C787 C 0.18691 0.7838 0.49599 0.0
C788 C 0.22 0.79914 0.51726 0.0
C789 C 0.23481 0.79411 0.49855 0.0
C790 C 0.22503 0.7855 0.47796 0.0
C791 C 0.20139 0.78037 0.47671 0.0
H792 H 0.80148 0.72765 0.46466 0.0
H793 H 0.8092 0.70263 0.53473 0.0
H794 H 0.75994 0.72106 0.46681 0.0
H795 H 0.76749 0.69571 0.53679 0.0
H796 H 0.69432 0.73162 0.54137 0.0
H797 H 0.73557 0.72338 0.53943 0.0
H798 H 0.7268 0.69504 0.47075 0.0
H799 H 0.68537 0.70359 0.47259 0.0
C800 C 0.7944 0.72011 0.48032 0.0
C801 C 0.80865 0.71595 0.49962 0.0
C802 C 0.77053 0.71621 0.48152 0.0
C803 C 0.76028 0.70812 0.50209 0.0
C804 C 0.77478 0.70229 0.52081 0.0
C805 C 0.79872 0.70608 0.51956 0.0
C806 C 0.70105 0.72312 0.52605 0.0
C807 C 0.68657 0.71853 0.50703 0.0
C808 C 0.72475 0.71826 0.52499 0.0
C809 C 0.7346 0.70876 0.50482 0.0
C810 C 0.71982 0.70266 0.48641 0.0
C811 C 0.69604 0.70741 0.48753 0.0
H812 H 0.96205 0.802 0.76989 0.0
H813 H 0.03157 0.81111 0.796 0.0
H814 H 0.96461 0.76064 0.7773 0.0
H815 H 0.03403 0.76957 0.80376 0.0
H816 H 0.04008 0.69553 0.77001 0.0
H817 H 0.0376 0.73694 0.7772 0.0
H818 H 0.96832 0.72821 0.80407 0.0
H819 H 0.97069 0.68663 0.79652 0.0
C820 C 0.97768 0.79527 0.77781 0.0
C821 C 0.99671 0.80985 0.78207 0.0
C822 C 0.97911 0.7715 0.7822 0.0
C823 C 0.99964 0.76167 0.79089 0.0
C824 C 0.01808 0.77652 0.79673 0.0
C825 C 0.01661 0.80037 0.79244 0.0
C826 C 0.02451 0.70231 0.77798 0.0
C827 C 0.00548 0.68777 0.78241 0.0
C828 C 0.02312 0.72612 0.78224 0.0
C829 C 0.00264 0.736 0.79097 0.0
C830 C 0.98422 0.72121 0.797 0.0
C831 C 0.98565 0.69734 0.79283 0.0
H832 H 0.03016 0.18604 0.70319 0.0
H833 H 0.961 0.19614 0.72988 0.0
H834 H 0.03276 0.22739 0.69446 0.0
H835 H 0.9637 0.23731 0.72147 0.0
H836 H 0.96993 0.31079 0.70087 0.0
H837 H 0.96739 0.26914 0.69378 0.0
H838 H 0.03671 0.26047 0.72057 0.0
H839 H 0.03935 0.30195 0.72734 0.0
C840 C 0.0153 0.19695 0.70667 0.0
C841 C 0.99547 0.18782 0.71749 0.0
C842 C 0.01685 0.22068 0.70181 0.0
C843 C 0.99856 0.23575 0.70751 0.0
C844 C 0.97807 0.22625 0.71666 0.0
C845 C 0.97657 0.2026 0.72163 0.0
C846 C 0.98488 0.30008 0.7046 0.0
C847 C 0.00474 0.30967 0.71494 0.0
C848 C 0.98335 0.27617 0.7007 0.0
C849 C 0.00172 0.26138 0.7069 0.0
C850 C 0.02228 0.27129 0.71543 0.0
C851 C 0.02375 0.29513 0.71944 0.0
H852 H 0.7709 0.96239 0.80242 0.0
H853 H 0.79712 0.03185 0.81175 0.0
H854 H 0.77797 0.96523 0.761 0.0
H855 H 0.80445 0.0346 0.77014 0.0
H856 H 0.76954 0.04083 0.6965 0.0
H857 H 0.77714 0.03817 0.73784 0.0
H858 H 0.80486 0.96932 0.72842 0.0
H859 H 0.79699 0.97189 0.68691 0.0
C860 C 0.77876 0.97806 0.79572 0.0
C861 C 0.78318 0.99699 0.81038 0.0
C862 C 0.78295 0.97964 0.77192 0.0
C863 C 0.79155 1.00025 0.76216 0.0
C864 C 0.79752 0.0186 0.77706 0.0
C865 C 0.79346 0.01696 0.80094 0.0
C866 C 0.77778 0.02533 0.70312 0.0
C867 C 0.78239 0.00647 0.68842 0.0
C868 C 0.78227 0.02384 0.72687 0.0
C869 C 0.79138 0.00342 0.73653 0.0
C870 C 0.79754 0.98518 0.72157 0.0
C871 C 0.79317 0.98672 0.69775 0.0
H872 H 0.22647 0.53858 0.80089 0.0
H873 H 0.1993 0.46922 0.80781 0.0
H874 H 0.22021 0.53696 0.75931 0.0
H875 H 0.19267 0.46772 0.76603 0.0
H876 H 0.20433 0.53233 0.68452 0.0
H877 H 0.19484 0.53409 0.72574 0.0
H878 H 0.2205 0.46435 0.7345 0.0
H879 H 0.22962 0.46248 0.69345 0.0
C880 C 0.21852 0.52322 0.79363 0.0
C881 C 0.21369 0.50391 0.80766 0.0
C882 C 0.2148 0.52233 0.76972 0.0
C883 C 0.20621 0.50208 0.75922 0.0
C884 C 0.19965 0.48344 0.77351 0.0
C885 C 0.20329 0.48437 0.7975 0.0
C886 C 0.20734 0.51715 0.69513 0.0
C887 C 0.218 0.49736 0.68573 0.0
C888 C 0.20205 0.51822 0.7188 0.0
C889 C 0.20717 0.49949 0.73353 0.0
C890 C 0.21613 0.47906 0.72371 0.0
C891 C 0.22151 0.47803 0.70012 0.0
H892 H 0.68887 0.79549 0.97067 0.0
H893 H 0.69929 0.76935 0.03999 0.0
H894 H 0.73038 0.80311 0.96737 0.0
H895 H 0.74063 0.77667 0.0366 0.0
H896 H 0.8041 0.76867 0.96004 0.0
H897 H 0.76276 0.77604 0.96331 0.0
H898 H 0.77302 0.80368 0.03207 0.0
H899 H 0.81453 0.79602 0.02889 0.0
C900 C 0.6999 0.7919 0.98541 0.0
C901 C 0.69079 0.78156 0.0055 0.0
C902 C 0.72372 0.79612 0.98345 0.0
C903 C 0.73891 0.79025 0.0016 0.0
C904 C 0.72949 0.78158 0.02233 0.0
C905 C 0.70573 0.77725 0.02424 0.0
C906 C 0.79766 0.77685 0.97566 0.0
C907 C 0.8126 0.78148 0.99431 0.0
C908 C 0.77391 0.7812 0.97749 0.0
C909 C 0.76449 0.79022 0.99807 0.0
C910 C 0.77968 0.79642 0.01611 0.0
C911 C 0.8035 0.79218 0.01422 0.0
H912 H 0.6878 0.20537 0.53167 0.0
H913 H 0.69651 0.23152 0.46212 0.0
H914 H 0.72938 0.1978 0.53396 0.0
H915 H 0.73793 0.22425 0.46451 0.0
H916 H 0.81207 0.20454 0.47048 0.0
H917 H 0.77042 0.1973 0.46817 0.0
H918 H 0.76194 0.22466 0.53728 0.0
H919 H 0.80342 0.23161 0.53969 0.0
C920 C 0.69847 0.20898 0.51666 0.0
C921 C 0.68885 0.2193 0.4968 0.0
C922 C 0.72234 0.20479 0.51804 0.0
C923 C 0.73708 0.21068 0.49954 0.0
C924 C 0.72714 0.21933 0.47904 0.0
C925 C 0.70334 0.22363 0.47771 0.0
C926 C 0.8014 0.20843 0.48541 0.0
C927 C 0.81106 0.21889 0.50518 0.0
C928 C 0.77749 0.20443 0.48402 0.0
C929 C 0.76276 0.21064 0.50243 0.0
C930 C 0.77272 0.21949 0.52283 0.0
C931 C 0.79655 0.22361 0.52417 0.0
H932 H 0.19628 0.27468 0.54045 0.0
H933 H 0.18737 0.30115 0.47105 0.0
H934 H 0.23766 0.28207 0.53802 0.0
H935 H 0.22893 0.30886 0.46872 0.0
H936 H 0.3025 0.27389 0.46263 0.0
H937 H 0.2612 0.28169 0.46512 0.0
H938 H 0.27037 0.30869 0.53429 0.0
H939 H 0.31185 0.30058 0.53189 0.0
C940 C 0.20305 0.28271 0.5249 0.0
C941 C 0.18853 0.28703 0.50583 0.0
C942 C 0.22683 0.28707 0.52354 0.0
C943 C 0.23671 0.2958 0.50305 0.0
C944 C 0.22192 0.30181 0.48463 0.0
C945 C 0.19806 0.29755 0.48603 0.0
C946 C 0.29584 0.28202 0.47817 0.0
C947 C 0.31046 0.28633 0.49716 0.0
C948 C 0.27211 0.28663 0.47956 0.0
C949 C 0.26237 0.29559 0.50002 0.0
C950 C 0.27726 0.30148 0.5184 0.0
C951 C 0.30107 0.29698 0.51696 0.0
H952 H 0.46517 0.8002 0.72845 0.0
H953 H 0.53476 0.807 0.70183 0.0
H954 H 0.4667 0.75863 0.72204 0.0
H955 H 0.53617 0.76524 0.69505 0.0
H956 H 0.5409 0.69249 0.73173 0.0
H957 H 0.53922 0.73359 0.72279 0.0
H958 H 0.46966 0.72515 0.69655 0.0
H959 H 0.47123 0.68388 0.70587 0.0
C960 C 0.48057 0.79291 0.72059 0.0
C961 C 0.49995 0.8069 0.71596 0.0
C962 C 0.48141 0.76901 0.71678 0.0
C963 C 0.50169 0.75849 0.70831 0.0
C964 C 0.52042 0.77274 0.70195 0.0
C965 C 0.51954 0.79672 0.70567 0.0
C966 C 0.52543 0.69925 0.72354 0.0
C967 C 0.50609 0.68493 0.71981 0.0
C968 C 0.52451 0.72287 0.71826 0.0
C969 C 0.50419 0.73279 0.70918 0.0
C970 C 0.48545 0.71813 0.70385 0.0
C971 C 0.48641 0.69443 0.70905 0.0
H972 H 0.47042 0.30782 0.80148 0.0
H973 H 0.53951 0.30031 0.77379 0.0
H974 H 0.46882 0.26612 0.80862 0.0
H975 H 0.53781 0.25881 0.78059 0.0
H976 H 0.53325 0.18437 0.79781 0.0
H977 H 0.53507 0.22572 0.80668 0.0
H978 H 0.46522 0.23414 0.78121 0.0
H979 H 0.4633 0.19295 0.7727 0.0
C980 C 0.4855 0.2974 0.79747 0.0
C981 C 0.50499 0.30736 0.7868 0.0
C982 C 0.48451 0.27346 0.80141 0.0
C983 C 0.50306 0.25903 0.7949 0.0
C984 C 0.52325 0.26934 0.78599 0.0
C985 C 0.52419 0.29319 0.78195 0.0
C986 C 0.51806 0.19494 0.79471 0.0
C987 C 0.49823 0.1854 0.78427 0.0
C988 C 0.51916 0.21867 0.79966 0.0
C989 C 0.50042 0.23334 0.79438 0.0
C990 C 0.47995 0.2234 0.78567 0.0
C991 C 0.47888 0.19973 0.78064 0.0
H992 H 0.70306 0.53258 0.81512 0.0
H993 H 0.72888 0.4629 0.80641 0.0
H994 H 0.69429 0.53443 0.77376 0.0
H995 H 0.72049 0.46487 0.76522 0.0
H996 H 0.72702 0.53942 0.69915 0.0
H997 H 0.72012 0.53759 0.74063 0.0
H998 H 0.69326 0.46815 0.73321 0.0
H999 H 0.70055 0.46985 0.69156 0.0
C1000 C 0.70635 0.51745 0.80452 0.0
C1001 C 0.71694 0.49769 0.81404 0.0
C1002 C 0.70146 0.51858 0.78077 0.0
C1003 C 0.70695 0.49992 0.76606 0.0
C1004 C 0.71585 0.47952 0.77597 0.0
C1005 C 0.72081 0.47843 0.79965 0.0
C1006 C 0.71908 0.52396 0.70623 0.0
C1007 C 0.71464 0.50467 0.69205 0.0
C1008 C 0.71499 0.52295 0.73008 0.0
C1009 C 0.70641 0.50259 0.74036 0.0
C1010 C 0.70024 0.48396 0.7259 0.0
C1011 C 0.70425 0.485 0.70198 0.0
H1012 H 0.27281 0.96473 0.69699 0.0
H1013 H 0.29837 0.03471 0.69009 0.0
H1014 H 0.27926 0.9664 0.73855 0.0
H1015 H 0.30518 0.03627 0.73183 0.0
H1016 H 0.29621 0.9712 0.81324 0.0
H1017 H 0.30496 0.96971 0.77185 0.0
H1018 H 0.27765 0.03889 0.76371 0.0
H1019 H 0.26926 0.0405 0.80493 0.0
C1020 C 0.28044 0.98026 0.70425 0.0
C1021 C 0.28478 0.99969 0.69022 0.0
C1022 C 0.28427 0.98118 0.72814 0.0
C1023 C 0.29247 0.00159 0.73864 0.0
C1024 C 0.2985 0.02041 0.72436 0.0
C1025 C 0.29477 0.01945 0.70039 0.0
C1026 C 0.29266 0.98633 0.80272 0.0
C1027 C 0.28179 0.00588 0.81237 0.0
C1028 C 0.29753 0.9854 0.77895 0.0
C1029 C 0.29176 0.00406 0.76435 0.0
C1030 C 0.28252 0.02426 0.77438 0.0
C1031 C 0.27756 0.02514 0.79808 0.0
H1032 H 0.68698 0.29964 0.03395 0.0
H1033 H 0.69467 0.27483 0.96379 0.0
H1034 H 0.72839 0.30825 0.03538 0.0
H1035 H 0.73591 0.28309 0.96532 0.0
H1036 H 0.80244 0.27387 0.03892 0.0
H1037 H 0.76109 0.28161 0.03768 0.0
H1038 H 0.76835 0.30997 0.96883 0.0
H1039 H 0.80989 0.30189 0.96996 0.0
C1040 C 0.69735 0.2966 0.01862 0.0
C1041 C 0.68756 0.28626 0.99886 0.0
C1042 C 0.72113 0.30138 0.0195 0.0
C1043 C 0.73558 0.29606 0.00059 0.0
C1044 C 0.72536 0.28757 0.98017 0.0
C1045 C 0.70166 0.28269 0.97933 0.0
C1046 C 0.79536 0.28231 0.02373 0.0
C1047 C 0.80944 0.28696 0.00442 0.0
C1048 C 0.7716 0.28689 0.02307 0.0
C1049 C 0.76129 0.29616 0.00303 0.0
C1050 C 0.77568 0.3025 0.98439 0.0
C1051 C 0.79953 0.29802 0.98511 0.0
H1052 H 0.46168 0.30554 0.2714 0.0
H1053 H 0.53173 0.31337 0.2965 0.0
H1054 H 0.4638 0.26403 0.27825 0.0
H1055 H 0.53375 0.27169 0.30365 0.0
H1056 H 0.46945 0.18964 0.29729 0.0
H1057 H 0.46762 0.23126 0.30489 0.0
H1058 H 0.53631 0.23937 0.27637 0.0
H1059 H 0.53824 0.19793 0.26906 0.0
C1060 C 0.47733 0.2985 0.27898 0.0
C1061 C 0.49663 0.31277 0.28313 0.0
C1062 C 0.47851 0.27464 0.28303 0.0
C1063 C 0.49905 0.26444 0.29126 0.0
C1064 C 0.51779 0.27895 0.29698 0.0
C1065 C 0.51656 0.30288 0.29304 0.0
C1066 C 0.4844 0.20022 0.29322 0.0
C1067 C 0.5039 0.19048 0.28235 0.0
C1068 C 0.48328 0.22411 0.29742 0.0
C1069 C 0.50171 0.23873 0.29101 0.0
C1070 C 0.52186 0.22867 0.28172 0.0
C1071 C 0.52292 0.20486 0.27739 0.0
H1072 H 0.5403 0.80551 0.22602 0.0
H1073 H 0.47098 0.8137 0.19911 0.0
H1074 H 0.53837 0.76412 0.21862 0.0
H1075 H 0.46915 0.77211 0.19137 0.0
H1076 H 0.46364 0.69856 0.22656 0.0
H1077 H 0.46569 0.73982 0.21847 0.0
H1078 H 0.53518 0.73133 0.19208 0.0
H1079 H 0.53323 0.68988 0.20049 0.0
C1080 C 0.52488 0.79858 0.2179 0.0
C1081 C 0.50569 0.8129 0.21345 0.0
C1082 C 0.52381 0.77478 0.21351 0.0
C1083 C 0.50348 0.76469 0.20465 0.0
C1084 C 0.48494 0.77929 0.19853 0.0
C1085 C 0.48606 0.80316 0.2028 0.0
C1086 C 0.47916 0.70535 0.21848 0.0
C1087 C 0.49838 0.69094 0.21446 0.0
C1088 C 0.48029 0.72906 0.21371 0.0
C1089 C 0.50071 0.739 0.20487 0.0
C1090 C 0.51931 0.72429 0.1992 0.0
C1091 C 0.51813 0.70049 0.20387 0.0
H1092 H 0.27191 0.46412 0.30038 0.0
H1093 H 0.29948 0.53317 0.30868 0.0
H1094 H 0.27886 0.46625 0.25891 0.0
H1095 H 0.30675 0.53521 0.26702 0.0
H1096 H 0.29723 0.47142 0.1847 0.0
H1097 H 0.30547 0.4693 0.22616 0.0
H1098 H 0.27959 0.53897 0.23476 0.0
H1099 H 0.27168 0.5412 0.19346 0.0
C1100 C 0.28004 0.47954 0.29344 0.0
C1101 C 0.28486 0.49858 0.30783 0.0
C1102 C 0.28417 0.48072 0.26961 0.0
C1103 C 0.29314 0.50102 0.25955 0.0
C1104 C 0.29952 0.51945 0.27418 0.0
C1105 C 0.2955 0.51821 0.29808 0.0
C1106 C 0.29391 0.48652 0.19534 0.0
C1107 C 0.28353 0.50638 0.1858 0.0
C1108 C 0.29848 0.48523 0.21914 0.0
C1109 C 0.29291 0.50384 0.23387 0.0
C1110 C 0.28426 0.52435 0.22397 0.0
C1111 C 0.27959 0.52559 0.20024 0.0
H1112 H 0.7027 0.02753 0.18672 0.0
H1113 H 0.73068 0.95877 0.19597 0.0
H1114 H 0.69456 0.02973 0.2282 0.0
H1115 H 0.72285 0.96106 0.23728 0.0
H1116 H 0.70272 0.96647 0.31106 0.0
H1117 H 0.69549 0.96404 0.26943 0.0
H1118 H 0.72096 0.03389 0.26104 0.0
H1119 H 0.72787 0.03642 0.3025 0.0
C1120 C 0.70659 0.01266 0.19748 0.0
C1121 C 0.71759 0.99307 0.18806 0.0
C1122 C 0.70207 0.01399 0.22129 0.0
C1123 C 0.70829 0.99569 0.23615 0.0
C1124 C 0.71765 0.97543 0.22639 0.0
C1125 C 0.72228 0.97415 0.20265 0.0
C1126 C 0.70616 0.98154 0.30042 0.0
C1127 C 0.71613 0.00155 0.31009 0.0
C1128 C 0.70217 0.98008 0.27652 0.0
C1129 C 0.70792 0.99865 0.26181 0.0
C1130 C 0.71616 0.01929 0.2718 0.0
C1131 C 0.72025 0.02071 0.29563 0.0
H1132 H 0.1895 0.70458 0.02915 0.0
H1133 H 0.19865 0.73117 0.95982 0.0
H1134 H 0.23111 0.69727 0.03177 0.0
H1135 H 0.24008 0.72421 0.96255 0.0
H1136 H 0.31431 0.70604 0.96901 0.0
H1137 H 0.27287 0.69787 0.96634 0.0
H1138 H 0.26329 0.72432 0.03566 0.0
H1139 H 0.30457 0.73214 0.03845 0.0
C1140 C 0.20027 0.70834 0.01425 0.0
C1141 C 0.19077 0.71872 0.99437 0.0
C1142 C 0.22416 0.7043 0.01583 0.0
C1143 C 0.23902 0.71043 0.9975 0.0
C1144 C 0.22921 0.71911 0.97696 0.0
C1145 C 0.20539 0.72323 0.97543 0.0
C1146 C 0.30346 0.70951 0.98392 0.0
C1147 C 0.31273 0.72001 0.00385 0.0
C1148 C 0.27966 0.70498 0.98231 0.0
C1149 C 0.26466 0.71071 0.00066 0.0
C1150 C 0.27428 0.71952 0.02124 0.0
C1151 C 0.29801 0.72414 0.0228 0.0
H1152 H 0.12004 0.30961 0.40005 0.0
H1153 H 0.04997 0.28748 0.41371 0.0
H1154 H 0.10665 0.33073 0.36582 0.0
H1155 H 0.03629 0.30961 0.38076 0.0
H1156 H 0.02167 0.32591 0.3062 0.0
H1157 H 0.03578 0.30727 0.34103 0.0
H1158 H 0.08615 0.36205 0.35004 0.0
H1159 H 0.07275 0.37997 0.31415 0.0
C1160 C 0.10174 0.30962 0.39591 0.0
C1161 C 0.08607 0.29668 0.40923 0.0
C1162 C 0.09399 0.32182 0.3764 0.0
C1163 C 0.07036 0.32166 0.3702 0.0
C1164 C 0.05468 0.30956 0.3844 0.0
C1165 C 0.06249 0.29699 0.40345 0.0
C1166 C 0.03567 0.33405 0.31569 0.0
C1167 C 0.04604 0.35444 0.3075 0.0
C1168 C 0.04372 0.32343 0.33582 0.0
C1169 C 0.06203 0.33321 0.34865 0.0
C1170 C 0.07225 0.35381 0.34053 0.0
C1171 C 0.06447 0.3642 0.32005 0.0
H1172 H 0.87899 0.19049 0.39902 0.0
H1173 H 0.94935 0.21065 0.41409 0.0
H1174 H 0.89236 0.16975 0.36453 0.0
H1175 H 0.96298 0.18889 0.38086 0.0
H1176 H 0.97807 0.1746 0.30599 0.0
H1177 H 0.9639 0.19249 0.34117 0.0
H1178 H 0.9125 0.13838 0.34811 0.0
H1179 H 0.92602 0.1212 0.31188 0.0
C1180 C 0.89734 0.19009 0.39514 0.0
C1181 C 0.91311 0.20241 0.40893 0.0
C1182 C 0.90507 0.17813 0.37547 0.0
C1183 C 0.92878 0.17791 0.36957 0.0
C1184 C 0.94454 0.18928 0.38426 0.0
C1185 C 0.93677 0.20163 0.40347 0.0
C1186 C 0.96383 0.16643 0.31508 0.0
C1187 C 0.95323 0.14644 0.30622 0.0
C1188 C 0.95574 0.17661 0.33543 0.0
C1189 C 0.93714 0.1668 0.34779 0.0
C1190 C 0.92665 0.14662 0.33898 0.0
C1191 C 0.93449 0.13666 0.3183 0.0
H1192 H 0.11382 0.67655 0.08703 0.0
H1193 H 0.06476 0.73064 0.10353 0.0
H1194 H 0.09958 0.65385 0.12 0.0
H1195 H 0.05097 0.70836 0.1363 0.0
H1196 H 0.01408 0.65512 0.17842 0.0
H1197 H 0.02885 0.6733 0.14341 0.0
H1198 H 0.09865 0.65476 0.16296 0.0
H1199 H 0.08385 0.63607 0.19788 0.0
C1200 C 0.10012 0.68362 0.09771 0.0
C1201 C 0.09036 0.70534 0.09261 0.0
C1202 C 0.09201 0.67067 0.11659 0.0
C1203 C 0.07396 0.6792 0.13058 0.0
C1204 C 0.06452 0.70105 0.12558 0.0
C1205 C 0.07259 0.71392 0.10685 0.0
C1206 C 0.03256 0.6547 0.1752 0.0
C1207 C 0.04779 0.64435 0.1911 0.0
C1208 C 0.04104 0.66523 0.15516 0.0
C1209 C 0.06495 0.66575 0.15058 0.0
C1210 C 0.08013 0.65455 0.16595 0.0
C1211 C 0.07163 0.64395 0.18602 0.0
H1212 H 0.92736 0.88141 0.18442 0.0
H1213 H 0.9805 0.82901 0.1895 0.0
H1214 H 0.91362 0.86397 0.14839 0.0
H1215 H 0.96613 0.81085 0.15455 0.0
H1216 H 0.95032 0.79163 0.08232 0.0
H1217 H 0.9643 0.81414 0.1149 0.0
H1218 H 0.89372 0.83214 0.13262 0.0
H1219 H 0.87996 0.81067 0.09873 0.0
C1220 C 0.93605 0.86613 0.17785 0.0
C1221 C 0.95512 0.85668 0.18966 0.0
C1222 C 0.92807 0.85601 0.1573 0.0
C1223 C 0.93878 0.83601 0.14836 0.0
C1224 C 0.95778 0.82658 0.16041 0.0
C1225 C 0.96599 0.83692 0.18062 0.0
C1226 C 0.93783 0.80058 0.09309 0.0
C1227 C 0.91407 0.79926 0.08823 0.0
C1228 C 0.94581 0.81336 0.11192 0.0
C1229 C 0.93017 0.82461 0.12684 0.0
C1230 C 0.90634 0.82387 0.12149 0.0
C1231 C 0.89838 0.81149 0.10217 0.0
H1232 H 0.30594 0.02251 0.32897 0.0
H1233 H 0.31149 0.07438 0.38258 0.0
H1234 H 0.3408 0.03717 0.31096 0.0
H1235 H 0.34746 0.08846 0.36519 0.0
H1236 H 0.39756 0.12254 0.31218 0.0
H1237 H 0.36351 0.10884 0.33351 0.0
H1238 H 0.38052 0.03833 0.31463 0.0
H1239 H 0.41327 0.05223 0.29232 0.0
C1240 C 0.31489 0.03682 0.33717 0.0
C1241 C 0.30602 0.04719 0.35728 0.0
C1242 C 0.33506 0.04519 0.3269 0.0
C1243 C 0.34728 0.06388 0.33672 0.0
C1244 C 0.33845 0.07421 0.35698 0.0
C1245 C 0.31793 0.06605 0.36705 0.0
C1246 C 0.39393 0.10414 0.31278 0.0
C1247 C 0.40772 0.08846 0.30035 0.0
C1248 C 0.37452 0.09623 0.32507 0.0
C1249 C 0.36891 0.07245 0.32549 0.0
C1250 C 0.38369 0.0568 0.31408 0.0
C1251 C 0.40262 0.06474 0.30141 0.0
H1252 H 0.58974 0.38866 0.32527 0.0
H1253 H 0.60807 0.43624 0.27045 0.0
H1254 H 0.6226 0.40277 0.34823 0.0
H1255 H 0.64071 0.44991 0.29301 0.0
H1256 H 0.68173 0.48766 0.34663 0.0
H1257 H 0.6471 0.47277 0.32784 0.0
H1258 H 0.6657 0.40321 0.34816 0.0
H1259 H 0.70027 0.41814 0.36744 0.0
C1260 C 0.60082 0.40198 0.31808 0.0
C1261 C 0.59623 0.41141 0.2961 0.0
C1262 C 0.61963 0.41002 0.33118 0.0
C1263 C 0.63406 0.42767 0.32254 0.0
C1264 C 0.62963 0.43669 0.3004 0.0
C1265 C 0.61098 0.42869 0.28738 0.0
C1266 C 0.67839 0.46921 0.34731 0.0
C1267 C 0.69393 0.45408 0.35834 0.0
C1268 C 0.65858 0.46066 0.33643 0.0
C1269 C 0.65384 0.43677 0.33624 0.0
C1270 C 0.66883 0.42171 0.34809 0.0
C1271 C 0.68869 0.43028 0.35904 0.0
H1272 H 0.30551 0.98104 0.17509 0.0
H1273 H 0.31258 0.92994 0.12093 0.0
H1274 H 0.3404 0.96666 0.1934 0.0
H1275 H 0.34854 0.91626 0.13852 0.0
H1276 H 0.39854 0.88184 0.19067 0.0
H1277 H 0.36432 0.89557 0.16974 0.0
H1278 H 0.38011 0.96579 0.19074 0.0
H1279 H 0.41305 0.95177 0.21269 0.0
C1280 C 0.31482 0.96699 0.16684 0.0
C1281 C 0.30636 0.95669 0.14653 0.0
C1282 C 0.33499 0.95878 0.17727 0.0
C1283 C 0.34758 0.94037 0.16738 0.0
C1284 C 0.33921 0.93023 0.14685 0.0
C1285 C 0.31869 0.93818 0.13664 0.0
C1286 C 0.39458 0.90018 0.19067 0.0
C1287 C 0.40814 0.91571 0.20353 0.0
C1288 C 0.37508 0.90812 0.17859 0.0
C1289 C 0.36913 0.93182 0.17878 0.0
C1290 C 0.38356 0.94736 0.19078 0.0
C1291 C 0.4026 0.93936 0.20324 0.0
H1292 H 0.60513 0.62266 0.19335 0.0
H1293 H 0.58983 0.55257 0.21432 0.0
H1294 H 0.63926 0.60885 0.17229 0.0
H1295 H 0.62264 0.53852 0.19223 0.0
H1296 H 0.69702 0.52257 0.17666 0.0
H1297 H 0.66231 0.5372 0.19508 0.0
H1298 H 0.655 0.58842 0.14084 0.0
H1299 H 0.69082 0.57445 0.12315 0.0
C1300 C 0.6089 0.60427 0.19309 0.0
C1301 C 0.59516 0.5887 0.2057 0.0
C1302 C 0.62834 0.5963 0.18093 0.0
C1303 C 0.63404 0.57254 0.1808 0.0
C1304 C 0.6194 0.55698 0.19253 0.0
C1305 C 0.60044 0.565 0.20508 0.0
C1306 C 0.68793 0.53687 0.16858 0.0
C1307 C 0.69658 0.54729 0.14841 0.0
C1308 C 0.66787 0.54522 0.17907 0.0
C1309 C 0.65554 0.56391 0.16938 0.0
C1310 C 0.66412 0.57422 0.149 0.0
C1311 C 0.68455 0.56611 0.13874 0.0
H1312 H 0.32406 0.41287 0.11144 0.0
H1313 H 0.26971 0.39531 0.06303 0.0
H1314 H 0.34681 0.37975 0.0976 0.0
H1315 H 0.29207 0.36244 0.04961 0.0
H1316 H 0.34537 0.32037 0.01284 0.0
H1317 H 0.32723 0.35551 0.02733 0.0
H1318 H 0.34587 0.33657 0.09726 0.0
H1319 H 0.36449 0.30147 0.08274 0.0
C1320 C 0.31694 0.40193 0.09797 0.0
C1321 C 0.29514 0.40678 0.08827 0.0
C1322 C 0.32992 0.38297 0.09009 0.0
C1323 C 0.32134 0.36867 0.07231 0.0
C1324 C 0.29941 0.37341 0.06295 0.0
C1325 C 0.2865 0.39219 0.07081 0.0
C1326 C 0.34583 0.32375 0.03129 0.0
C1327 C 0.35616 0.30796 0.04664 0.0
C1328 C 0.33533 0.34386 0.0396 0.0
C1329 C 0.33483 0.34864 0.06347 0.0
C1330 C 0.34605 0.3334 0.07877 0.0
C1331 C 0.35662 0.31324 0.07044 0.0
H1332 H 0.32889 0.69594 0.47704 0.0
H1333 H 0.38291 0.69232 0.4254 0.0
H1334 H 0.31167 0.661 0.46171 0.0
H1335 H 0.36626 0.65626 0.4106 0.0
H1336 H 0.31374 0.60598 0.37551 0.0
H1337 H 0.33469 0.64006 0.3898 0.0
H1338 H 0.31643 0.62133 0.46003 0.0
H1339 H 0.29452 0.58856 0.44559 0.0
C1340 C 0.33736 0.6874 0.46263 0.0
C1341 C 0.35736 0.69683 0.45254 0.0
C1342 C 0.32754 0.66718 0.45387 0.0
C1343 C 0.3377 0.65548 0.43505 0.0
C1344 C 0.35782 0.66487 0.42497 0.0
C1345 C 0.36747 0.68544 0.43354 0.0
C1346 C 0.31441 0.60924 0.39398 0.0
C1347 C 0.30224 0.59498 0.40944 0.0
C1348 C 0.32648 0.62866 0.40221 0.0
C1349 C 0.32691 0.63379 0.42609 0.0
C1350 C 0.31583 0.61852 0.4415 0.0
C1351 C 0.30339 0.59959 0.43326 0.0
H1352 H 0.67391 0.9103 0.38711 0.0
H1353 H 0.72859 0.89177 0.43477 0.0
H1354 H 0.6503 0.87826 0.40205 0.0
H1355 H 0.70536 0.85998 0.4493 0.0
H1356 H 0.65128 0.82162 0.48868 0.0
H1357 H 0.6703 0.85556 0.47257 0.0
H1358 H 0.64952 0.83485 0.40376 0.0
H1359 H 0.63003 0.80091 0.41992 0.0
C1360 C 0.68093 0.89934 0.40062 0.0
C1361 C 0.70306 0.90366 0.40984 0.0
C1362 C 0.66745 0.88101 0.40914 0.0
C1363 C 0.67585 0.86682 0.42709 0.0
C1364 C 0.69816 0.87092 0.43585 0.0
C1365 C 0.71157 0.88908 0.42737 0.0
C1366 C 0.65052 0.82437 0.47013 0.0
C1367 C 0.63936 0.80837 0.45557 0.0
C1368 C 0.66152 0.84378 0.46089 0.0
C1369 C 0.66173 0.84767 0.43686 0.0
C1370 C 0.64961 0.83234 0.42235 0.0
C1371 C 0.63853 0.81286 0.43162 0.0
H1372 H 0.13387 0.6979 0.58014 0.0
H1373 H 0.156 0.67966 0.51095 0.0
H1374 H 0.1539 0.66396 0.59545 0.0
H1375 H 0.17559 0.64562 0.52624 0.0
H1376 H 0.23378 0.60867 0.56387 0.0
H1377 H 0.21038 0.6405 0.54966 0.0
H1378 H 0.15505 0.62084 0.59604 0.0
H1379 H 0.17882 0.58881 0.61067 0.0
C1380 C 0.14272 0.6865 0.56815 0.0
C1381 C 0.14356 0.69166 0.54433 0.0
C1382 C 0.1541 0.667 0.57694 0.0
C1383 C 0.16657 0.65229 0.56209 0.0
C1384 C 0.16652 0.6569 0.53818 0.0
C1385 C 0.15518 0.67635 0.5294 0.0
C1386 C 0.21666 0.61108 0.57114 0.0
C1387 C 0.20813 0.59614 0.58836 0.0
C1388 C 0.20316 0.62926 0.56283 0.0
C1389 C 0.18074 0.633 0.57148 0.0
C1390 C 0.1723 0.61839 0.58907 0.0
C1391 C 0.18587 0.60006 0.59741 0.0
H1392 H 0.98931 0.65371 0.67965 0.0
H1393 H 0.92023 0.63318 0.70003 0.0
H1394 H 0.97351 0.67312 0.64576 0.0
H1395 H 0.9044 0.65307 0.66625 0.0
H1396 H 0.88746 0.67754 0.59142 0.0
H1397 H 0.90249 0.65384 0.6233 0.0
H1398 H 0.95079 0.70827 0.64076 0.0
H1399 H 0.93619 0.73158 0.60904 0.0
C1400 C 0.97077 0.6532 0.67685 0.0
C1401 C 0.95603 0.64209 0.69271 0.0
C1402 C 0.96169 0.66444 0.65747 0.0
C1403 C 0.93767 0.66492 0.65352 0.0
C1404 C 0.92298 0.65293 0.66878 0.0
C1405 C 0.93207 0.64162 0.68819 0.0
C1406 C 0.90122 0.68441 0.60215 0.0
C1407 C 0.9107 0.70638 0.59764 0.0
C1408 C 0.9098 0.67087 0.6204 0.0
C1409 C 0.92804 0.67907 0.63434 0.0
C1410 C 0.93711 0.70122 0.63002 0.0
C1411 C 0.92858 0.71468 0.61192 0.0
H1412 H 0.01184 0.84433 0.67919 0.0
H1413 H 0.08091 0.86619 0.69821 0.0
H1414 H 0.02728 0.82557 0.64478 0.0
H1415 H 0.09639 0.84696 0.66386 0.0
H1416 H 0.11176 0.8235 0.58814 0.0
H1417 H 0.09711 0.84664 0.62064 0.0
H1418 H 0.05078 0.79089 0.63923 0.0
H1419 H 0.065 0.76813 0.60697 0.0
C1420 C 0.03031 0.84527 0.67598 0.0
C1421 C 0.04516 0.85655 0.69161 0.0
C1422 C 0.03917 0.83441 0.6563 0.0
C1423 C 0.0631 0.8345 0.6518 0.0
C1424 C 0.07787 0.84667 0.66683 0.0
C1425 C 0.06899 0.85759 0.68655 0.0
C1426 C 0.09851 0.81623 0.59926 0.0
C1427 C 0.08946 0.79404 0.59491 0.0
C1428 C 0.09016 0.82944 0.61785 0.0
C1429 C 0.07257 0.8207 0.63228 0.0
C1430 C 0.06395 0.79835 0.62812 0.0
C1431 C 0.07226 0.78521 0.60969 0.0
H1432 H 0.98061 0.32781 0.80698 0.0
H1433 H 0.9291 0.38182 0.81217 0.0
H1434 H 0.96519 0.30958 0.84137 0.0
H1435 H 0.91427 0.3642 0.84772 0.0
H1436 H 0.94834 0.28997 0.91313 0.0
H1437 H 0.96318 0.31263 0.88107 0.0
H1438 H 0.89325 0.3325 0.8628 0.0
H1439 H 0.8786 0.31082 0.89623 0.0
C1440 C 0.96623 0.33607 0.81578 0.0
C1441 C 0.95616 0.35633 0.80692 0.0
C1442 C 0.95742 0.32567 0.83568 0.0
C1443 C 0.93858 0.3355 0.84764 0.0
C1444 C 0.92861 0.35596 0.83888 0.0
C1445 C 0.93721 0.36618 0.81861 0.0
C1446 C 0.93616 0.29933 0.90234 0.0
C1447 C 0.91233 0.29846 0.90692 0.0
C1448 C 0.94464 0.31221 0.88381 0.0
C1449 C 0.92943 0.32403 0.86889 0.0
C1450 C 0.90553 0.32376 0.87395 0.0
C1451 C 0.89708 0.31125 0.89299 0.0
H1452 H 0.01135 0.15204 0.82143 0.0
H1453 H 0.08034 0.13072 0.80156 0.0
H1454 H 0.02703 0.17078 0.85571 0.0
H1455 H 0.09607 0.14995 0.83585 0.0
H1456 H 0.11173 0.17405 0.91163 0.0
H1457 H 0.09719 0.15057 0.87929 0.0
H1458 H 0.05032 0.20578 0.86054 0.0
H1459 H 0.06442 0.22887 0.8926 0.0
C1460 C 0.02986 0.1512 0.82444 0.0
C1461 C 0.04461 0.14012 0.80858 0.0
C1462 C 0.03885 0.16205 0.84405 0.0
C1463 C 0.06283 0.16218 0.84827 0.0
C1464 C 0.07752 0.1501 0.83308 0.0
C1465 C 0.06849 0.13917 0.8134 0.0
C1466 C 0.09838 0.18113 0.90051 0.0
C1467 C 0.08913 0.20325 0.90477 0.0
C1468 C 0.0901 0.16772 0.88201 0.0
C1469 C 0.07237 0.1762 0.8676 0.0
C1470 C 0.06359 0.19852 0.87164 0.0
C1471 C 0.07183 0.21184 0.88996 0.0
H1472 H 0.61131 0.93328 0.73089 0.0
H1473 H 0.59317 0.88502 0.6766 0.0
H1474 H 0.64265 0.94824 0.70732 0.0
H1475 H 0.62476 0.90039 0.65266 0.0
H1476 H 0.70166 0.91959 0.63183 0.0
H1477 H 0.66814 0.9029 0.65159 0.0
H1478 H 0.64619 0.97144 0.67201 0.0
H1479 H 0.67971 0.98808 0.65272 0.0
C1480 C 0.61401 0.92583 0.71388 0.0
C1481 C 0.59965 0.90802 0.70557 0.0
C1482 C 0.6319 0.93457 0.70029 0.0
C1483 C 0.63594 0.92577 0.67799 0.0
C1484 C 0.62202 0.90751 0.6698 0.0
C1485 C 0.60396 0.89874 0.68347 0.0
C1486 C 0.68952 0.93112 0.64029 0.0
C1487 C 0.69354 0.95516 0.64097 0.0
C1488 C 0.67028 0.92154 0.65153 0.0
C1489 C 0.65475 0.93583 0.66365 0.0
C1490 C 0.65814 0.95993 0.66324 0.0
C1491 C 0.67731 0.96948 0.65208 0.0
H1492 H 0.39397 0.56384 0.73384 0.0
H1493 H 0.41432 0.61101 0.67937 0.0
H1494 H 0.36192 0.55031 0.71035 0.0
H1495 H 0.38207 0.59705 0.6555 0.0
H1496 H 0.30493 0.58196 0.63393 0.0
H1497 H 0.33893 0.59684 0.65424 0.0
H1498 H 0.35663 0.52729 0.67537 0.0
H1499 H 0.32257 0.51245 0.65553 0.0
C1500 C 0.39163 0.57134 0.7168 0.0
C1501 C 0.40678 0.58845 0.70843 0.0
C1502 C 0.37332 0.56342 0.70325 0.0
C1503 C 0.36965 0.57236 0.68093 0.0
C1504 C 0.38446 0.58986 0.67266 0.0
C1505 C 0.40292 0.59782 0.68629 0.0
C1506 C 0.31621 0.56981 0.64273 0.0
C1507 C 0.31087 0.54603 0.64333 0.0
C1508 C 0.33574 0.57835 0.65427 0.0
C1509 C 0.35029 0.56328 0.66665 0.0
C1510 C 0.34548 0.5394 0.66637 0.0
C1511 C 0.326 0.53088 0.65489 0.0
H1512 H 0.70053 0.08162 0.86901 0.0
H1513 H 0.68064 0.0126 0.8478 0.0
H1514 H 0.66631 0.09734 0.8496 0.0
H1515 H 0.64648 0.02826 0.82886 0.0
H1516 H 0.6105 0.06554 0.77016 0.0
H1517 H 0.64241 0.05167 0.7936 0.0
H1518 H 0.62258 0.09823 0.84871 0.0
H1519 H 0.59035 0.1125 0.82489 0.0
C1520 C 0.6887 0.06977 0.86056 0.0
C1521 C 0.69351 0.04588 0.85966 0.0
C1522 C 0.66907 0.07878 0.84953 0.0
C1523 C 0.65394 0.06407 0.8374 0.0
C1524 C 0.65811 0.04009 0.83763 0.0
C1525 C 0.67766 0.0311 0.84859 0.0
C1526 C 0.61287 0.07294 0.78724 0.0
C1527 C 0.59778 0.09005 0.79572 0.0
C1528 C 0.63111 0.06483 0.80076 0.0
C1529 C 0.63478 0.07357 0.82315 0.0
C1530 C 0.62013 0.09117 0.8315 0.0
C1531 C 0.6017 0.0993 0.8179 0.0
H1532 H 0.30568 0.47883 0.82546 0.0
H1533 H 0.31042 0.42719 0.87937 0.0
H1534 H 0.34062 0.46381 0.80781 0.0
H1535 H 0.34642 0.4128 0.86241 0.0
H1536 H 0.39654 0.37774 0.81053 0.0
H1537 H 0.36232 0.39202 0.83112 0.0
H1538 H 0.3803 0.46214 0.81161 0.0
H1539 H 0.41325 0.44764 0.79002 0.0
C1540 C 0.31448 0.4645 0.8338 0.0
C1541 C 0.30536 0.45426 0.85386 0.0
C1542 C 0.33467 0.45593 0.82375 0.0
C1543 C 0.34663 0.43718 0.83377 0.0
C1544 C 0.33759 0.42705 0.85402 0.0
C1545 C 0.31705 0.4354 0.86386 0.0
C1546 C 0.39307 0.39618 0.8108 0.0
C1547 C 0.40723 0.41157 0.79843 0.0
C1548 C 0.37357 0.40443 0.82268 0.0
C1549 C 0.36822 0.42827 0.82276 0.0
C1550 C 0.38328 0.44363 0.81133 0.0
C1551 C 0.40233 0.43535 0.79907 0.0
H1552 H 0.63202 0.69907 0.92153 0.0
H1553 H 0.65369 0.67863 0.99025 0.0
H1554 H 0.65131 0.66501 0.9054 0.0
H1555 H 0.67252 0.64458 0.97416 0.0
H1556 H 0.73102 0.609 0.93597 0.0
H1557 H 0.70758 0.6406 0.95055 0.0
H1558 H 0.65227 0.62146 0.90395 0.0
H1559 H 0.67608 0.58957 0.88897 0.0
C1560 C 0.64054 0.68714 0.93324 0.0
C1561 C 0.6416 0.69176 0.95716 0.0
C1562 C 0.65151 0.6676 0.92398 0.0
C1563 C 0.66373 0.65234 0.93848 0.0
C1564 C 0.66366 0.65631 0.9625 0.0
C1565 C 0.65276 0.67578 0.97172 0.0
C1566 C 0.7139 0.61146 0.92872 0.0
C1567 C 0.70537 0.59667 0.91137 0.0
C1568 C 0.70038 0.62951 0.93724 0.0
C1569 C 0.67794 0.63329 0.92868 0.0
C1570 C 0.66951 0.61892 0.91088 0.0
C1571 C 0.68311 0.60069 0.90234 0.0
H1572 H 0.6337 0.30181 0.5821 0.0
H1573 H 0.65441 0.32199 0.51301 0.0
H1574 H 0.6532 0.33589 0.59784 0.0
H1575 H 0.67343 0.35614 0.52872 0.0
H1576 H 0.73143 0.39345 0.56615 0.0
H1577 H 0.70846 0.36144 0.55168 0.0
H1578 H 0.65351 0.379 0.59934 0.0
H1579 H 0.67687 0.41121 0.61425 0.0
C1580 C 0.64211 0.31367 0.57023 0.0
C1581 C 0.64275 0.30902 0.54631 0.0
C1582 C 0.65318 0.33324 0.57926 0.0
C1583 C 0.6651 0.34852 0.56455 0.0
C1584 C 0.6648 0.34442 0.54055 0.0
C1585 C 0.65379 0.32489 0.53154 0.0
C1586 C 0.71448 0.39055 0.57365 0.0
C1587 C 0.70594 0.40495 0.59131 0.0
C1588 C 0.70122 0.37227 0.56519 0.0
C1589 C 0.67903 0.36789 0.57412 0.0
C1590 C 0.67058 0.38195 0.59215 0.0
C1591 C 0.68392 0.40038 0.60065 0.0
H1592 H 0.32298 0.09315 0.61376 0.0
H1593 H 0.26885 0.1117 0.56548 0.0
H1594 H 0.34652 0.12554 0.59951 0.0
H1595 H 0.292 0.14386 0.55165 0.0
H1596 H 0.34635 0.18295 0.51339 0.0
H1597 H 0.32729 0.14877 0.52892 0.0
H1598 H 0.34713 0.16889 0.59819 0.0
H1599 H 0.36669 0.20306 0.5826 0.0
C1600 C 0.31605 0.1042 0.60027 0.0
C1601 C 0.29412 0.09977 0.59065 0.0
C1602 C 0.3295 0.12273 0.59214 0.0
C1603 C 0.32125 0.13703 0.57422 0.0
C1604 C 0.2991 0.13284 0.56508 0.0
C1605 C 0.28574 0.11447 0.57316 0.0
C1606 C 0.3469 0.18002 0.53192 0.0
C1607 C 0.35781 0.19591 0.54677 0.0
C1608 C 0.33586 0.16047 0.54083 0.0
C1609 C 0.33538 0.15635 0.56482 0.0
C1610 C 0.34726 0.17158 0.57962 0.0
C1611 C 0.35838 0.19119 0.57068 0.0
H1612 H 0.82661 0.41092 0.3886 0.0
H1613 H 0.77205 0.39162 0.4361 0.0
H1614 H 0.85034 0.37877 0.40312 0.0
H1615 H 0.7954 0.35975 0.45021 0.0
H1616 H 0.84936 0.32102 0.48907 0.0
H1617 H 0.8306 0.35529 0.4734 0.0
H1618 H 0.85109 0.33524 0.40431 0.0
H1619 H 0.87033 0.30094 0.42003 0.0
C1620 C 0.81964 0.39978 0.40198 0.0
C1621 C 0.79751 0.40391 0.41129 0.0
C1622 C 0.83319 0.38139 0.41026 0.0
C1623 C 0.82486 0.36696 0.42805 0.0
C1624 C 0.80255 0.37087 0.43689 0.0
C1625 C 0.78907 0.38908 0.42864 0.0
C1626 C 0.85013 0.32399 0.47056 0.0
C1627 C 0.86109 0.30806 0.45578 0.0
C1628 C 0.83928 0.3436 0.46157 0.0
C1629 C 0.83902 0.34774 0.43758 0.0
C1630 C 0.85103 0.33252 0.42287 0.0
C1631 C 0.86198 0.31284 0.43189 0.0
H1632 H 0.5239 0.82492 0.80869 0.0
H1633 H 0.57672 0.87774 0.81282 0.0
H1634 H 0.53836 0.80751 0.84398 0.0
H1635 H 0.59057 0.86103 0.84917 0.0
H1636 H 0.62414 0.80885 0.9002 0.0
H1637 H 0.61053 0.8295 0.86573 0.0
H1638 H 0.53987 0.81199 0.8836 0.0
H1639 H 0.55368 0.7903 0.9168 0.0
C1640 C 0.53838 0.83307 0.81742 0.0
C1641 C 0.5491 0.85275 0.80803 0.0
C1642 C 0.54663 0.82317 0.83782 0.0
C1643 C 0.56553 0.83296 0.84972 0.0
C1644 C 0.57617 0.85283 0.84039 0.0
C1645 C 0.56814 0.86251 0.81965 0.0
C1646 C 0.60573 0.80961 0.89667 0.0
C1647 C 0.58997 0.79774 0.91084 0.0
C1648 C 0.59787 0.82151 0.87702 0.0
C1649 C 0.57407 0.82212 0.87155 0.0
C1650 C 0.55835 0.81127 0.88668 0.0
C1651 C 0.56624 0.79897 0.90586 0.0
H1652 H 0.48989 0.65369 0.82421 0.0
H1653 H 0.42059 0.63256 0.80523 0.0
H1654 H 0.47456 0.6734 0.85813 0.0
H1655 H 0.40522 0.65275 0.83905 0.0
H1656 H 0.38941 0.67792 0.91394 0.0
H1657 H 0.40405 0.65396 0.88206 0.0
H1658 H 0.45174 0.70846 0.86322 0.0
H1659 H 0.43754 0.73203 0.89492 0.0
C1660 C 0.4714 0.65312 0.82732 0.0
C1661 C 0.45646 0.64174 0.81185 0.0
C1662 C 0.46259 0.66453 0.84672 0.0
C1663 C 0.43863 0.66492 0.85109 0.0
C1664 C 0.42376 0.65269 0.83621 0.0
C1665 C 0.43259 0.64121 0.81677 0.0
C1666 C 0.40297 0.68474 0.90291 0.0
C1667 C 0.41238 0.70681 0.90702 0.0
C1668 C 0.41131 0.67106 0.88466 0.0
C1669 C 0.42926 0.67921 0.87031 0.0
C1670 C 0.43828 0.70145 0.87426 0.0
C1671 C 0.42998 0.71505 0.89236 0.0
H1672 H 0.51321 0.15322 0.67968 0.0
H1673 H 0.58293 0.13345 0.69857 0.0
H1674 H 0.52801 0.17232 0.64517 0.0
H1675 H 0.59776 0.15302 0.66415 0.0
H1676 H 0.61271 0.17658 0.58862 0.0
H1677 H 0.59852 0.15315 0.62109 0.0
H1678 H 0.55037 0.20753 0.63907 0.0
H1679 H 0.56412 0.23057 0.60679 0.0
C1680 C 0.53168 0.15282 0.67643 0.0
C1681 C 0.54689 0.142 0.69204 0.0
C1682 C 0.54018 0.16388 0.65669 0.0
C1683 C 0.56409 0.16445 0.6521 0.0
C1684 C 0.57924 0.15279 0.66716 0.0
C1685 C 0.57073 0.14168 0.68694 0.0
C1686 C 0.59914 0.18348 0.59957 0.0
C1687 C 0.58948 0.20538 0.59507 0.0
C1688 C 0.59105 0.17011 0.61816 0.0
C1689 C 0.57313 0.17838 0.63246 0.0
C1690 C 0.56382 0.20042 0.62809 0.0
C1691 C 0.57187 0.21372 0.60965 0.0
H1692 H 0.47935 0.32706 0.6945 0.0
H1693 H 0.42832 0.38162 0.69041 0.0
H1694 H 0.46414 0.30999 0.65941 0.0
H1695 H 0.4137 0.36516 0.65421 0.0
H1696 H 0.37821 0.3133 0.60379 0.0
H1697 H 0.39262 0.334 0.63795 0.0
H1698 H 0.46265 0.31444 0.61976 0.0
H1699 H 0.44804 0.29275 0.58692 0.0
C1700 C 0.46512 0.33568 0.68582 0.0
C1701 C 0.45513 0.35576 0.69517 0.0
C1702 C 0.45643 0.32595 0.66552 0.0
C1703 C 0.43781 0.3363 0.65366 0.0
C1704 C 0.42789 0.35656 0.66295 0.0
C1705 C 0.43636 0.3661 0.68359 0.0
C1706 C 0.39666 0.31362 0.60719 0.0
C1707 C 0.412 0.30116 0.59306 0.0
C1708 C 0.40497 0.32555 0.62665 0.0
C1709 C 0.42882 0.32558 0.63196 0.0
C1710 C 0.44413 0.31418 0.61682 0.0
C1711 C 0.43579 0.30186 0.59785 0.0
H1712 H 0.91297 0.61186 0.82462 0.0
H1713 H 0.89504 0.56356 0.77029 0.0
H1714 H 0.88015 0.59781 0.84766 0.0
H1715 H 0.86243 0.54995 0.79293 0.0
H1716 H 0.82125 0.51274 0.8468 0.0
H1717 H 0.85592 0.52749 0.82798 0.0
H1718 H 0.83707 0.59724 0.84742 0.0
H1719 H 0.80246 0.58244 0.86673 0.0
C1720 C 0.90199 0.59838 0.81756 0.0
C1721 C 0.90667 0.58875 0.79569 0.0
C1722 C 0.8832 0.59038 0.83071 0.0
C1723 C 0.86888 0.57257 0.82222 0.0
C1724 C 0.87342 0.56331 0.8002 0.0
C1725 C 0.89206 0.57127 0.78713 0.0
C1726 C 0.82455 0.5312 0.84727 0.0
C1727 C 0.80893 0.54642 0.85807 0.0
C1728 C 0.84439 0.53967 0.83638 0.0
C1729 C 0.84907 0.56357 0.83594 0.0
C1730 C 0.83399 0.57873 0.84755 0.0
C1731 C 0.81411 0.57024 0.85851 0.0
H1732 H 0.1782 0.98868 0.84554 0.0
H1733 H 0.19814 0.91956 0.86636 0.0
H1734 H 0.14391 0.97307 0.82668 0.0
H1735 H 0.16394 0.90391 0.84702 0.0
H1736 H 0.08855 0.88756 0.82378 0.0
H1737 H 0.12091 0.90248 0.84692 0.0
H1738 H 0.13812 0.95011 0.79182 0.0
H1739 H 0.10595 0.93563 0.76908 0.0
C1740 C 0.17523 0.97016 0.84621 0.0
C1741 C 0.19107 0.95536 0.85726 0.0
C1742 C 0.15562 0.9612 0.83529 0.0
C1743 C 0.15139 0.93722 0.83508 0.0
C1744 C 0.16667 0.92247 0.84697 0.0
C1745 C 0.18632 0.93145 0.85795 0.0
C1746 C 0.09932 0.90117 0.81666 0.0
C1747 C 0.09462 0.91048 0.79466 0.0
C1748 C 0.11785 0.90968 0.82986 0.0
C1749 C 0.13188 0.92768 0.82131 0.0
C1750 C 0.12734 0.93661 0.79915 0.0
C1751 C 0.10896 0.92815 0.78602 0.0
H1752 H 0.89826 0.37964 0.69169 0.0
H1753 H 0.91442 0.44951 0.71273 0.0
H1754 H 0.86422 0.39386 0.67077 0.0
H1755 H 0.88168 0.46398 0.69078 0.0
H1756 H 0.80722 0.48053 0.67578 0.0
H1757 H 0.84201 0.46566 0.69387 0.0
H1758 H 0.84859 0.41454 0.63944 0.0
H1759 H 0.81272 0.42876 0.62208 0.0
C1760 C 0.89471 0.39807 0.69146 0.0
C1761 C 0.90865 0.41346 0.70406 0.0
C1762 C 0.87531 0.40628 0.67939 0.0
C1763 C 0.86988 0.4301 0.67933 0.0
C1764 C 0.88473 0.44547 0.69103 0.0
C1765 C 0.90365 0.43722 0.70349 0.0
C1766 C 0.81617 0.46621 0.66758 0.0
C1767 C 0.8073 0.45588 0.64747 0.0
C1768 C 0.83628 0.45772 0.67788 0.0
C1769 C 0.8484 0.43897 0.66805 0.0
C1770 C 0.83962 0.42878 0.64771 0.0
C1771 C 0.81916 0.43703 0.63764 0.0
H1772 H 0.0848 0.05162 0.70975 0.0
H1773 H 0.10081 0.12211 0.69082 0.0
H1774 H 0.11749 0.03787 0.68726 0.0
H1775 H 0.13482 0.10858 0.66938 0.0
H1776 H 0.18691 0.07517 0.62013 0.0
H1777 H 0.15081 0.08879 0.63755 0.0
H1778 H 0.15714 0.0363 0.69068 0.0
H1779 H 0.19214 0.02206 0.67255 0.0
C1780 C 0.09552 0.06419 0.70083 0.0
C1781 C 0.09051 0.08792 0.70218 0.0
C1782 C 0.11441 0.05635 0.68807 0.0
C1783 C 0.12925 0.07209 0.67686 0.0
C1784 C 0.12376 0.09589 0.67762 0.0
C1785 C 0.10437 0.10371 0.68999 0.0
C1786 C 0.18036 0.06646 0.63541 0.0
C1787 C 0.19223 0.04742 0.64486 0.0
C1788 C 0.15977 0.07436 0.64551 0.0
C1789 C 0.15084 0.06361 0.6655 0.0
C1790 C 0.16297 0.04467 0.67495 0.0
C1791 C 0.18321 0.03654 0.66462 0.0
H1792 H 0.79196 0.91681 0.55176 0.0
H1793 H 0.81125 0.90038 0.62205 0.0
H1794 H 0.814 0.88393 0.53773 0.0
H1795 H 0.83225 0.8662 0.60824 0.0
H1796 H 0.88051 0.81358 0.57416 0.0
H1797 H 0.86375 0.84989 0.58801 0.0
H1798 H 0.80983 0.84427 0.53626 0.0
H1799 H 0.82728 0.80901 0.52179 0.0
C1800 C 0.80088 0.90598 0.56422 0.0
C1801 C 0.79974 0.91091 0.58797 0.0
C1802 C 0.81338 0.88698 0.55622 0.0
C1803 C 0.82452 0.87196 0.57184 0.0
C1804 C 0.82404 0.8774 0.59565 0.0
C1805 C 0.81193 0.89689 0.60363 0.0
C1806 C 0.8652 0.82032 0.56567 0.0
C1807 C 0.85532 0.80857 0.54677 0.0
C1808 C 0.85548 0.84104 0.5737 0.0
C1809 C 0.83547 0.85023 0.56322 0.0
C1810 C 0.82559 0.83822 0.54442 0.0
C1811 C 0.83552 0.81784 0.53616 0.0
H1812 H 0.79151 0.0865 0.94827 0.0
H1813 H 0.81138 0.10221 0.87797 0.0
H1814 H 0.81338 0.11955 0.96212 0.0
H1815 H 0.83229 0.13656 0.89162 0.0
H1816 H 0.88075 0.18915 0.92637 0.0
H1817 H 0.86378 0.153 0.9122 0.0
H1818 H 0.80903 0.15928 0.96297 0.0
H1819 H 0.8266 0.19433 0.97772 0.0
C1820 C 0.80051 0.09721 0.93575 0.0
C1821 C 0.79957 0.09202 0.91205 0.0
C1822 C 0.81292 0.11631 0.94366 0.0
C1823 C 0.82421 0.13118 0.92799 0.0
C1824 C 0.82393 0.12549 0.90424 0.0
C1825 C 0.81189 0.10591 0.89636 0.0
C1826 C 0.86519 0.1826 0.93456 0.0
C1827 C 0.85515 0.19444 0.95331 0.0
C1828 C 0.85537 0.16197 0.92635 0.0
C1829 C 0.83511 0.15298 0.93653 0.0
C1830 C 0.825 0.16516 0.95508 0.0
C1831 C 0.835 0.18543 0.96349 0.0
H1832 H 0.13329 0.29959 0.91841 0.0
H1833 H 0.15254 0.32015 0.9878 0.0
H1834 H 0.15253 0.33392 0.90295 0.0
H1835 H 0.17129 0.35457 0.97237 0.0
H1836 H 0.22915 0.39305 0.93581 0.0
H1837 H 0.2065 0.36073 0.95011 0.0
H1838 H 0.15218 0.37688 0.90123 0.0
H1839 H 0.17524 0.40936 0.88649 0.0
C1840 C 0.14133 0.31157 0.93039 0.0
C1841 C 0.14161 0.30697 0.95433 0.0
C1842 C 0.15226 0.3313 0.92152 0.0
C1843 C 0.16368 0.3468 0.93641 0.0
C1844 C 0.16305 0.3427 0.96041 0.0
C1845 C 0.15219 0.32301 0.96926 0.0
C1846 C 0.2124 0.38977 0.92802 0.0
C1847 C 0.20396 0.40384 0.91004 0.0
C1848 C 0.19932 0.37131 0.93638 0.0
C1849 C 0.1774 0.36642 0.92703 0.0
C1850 C 0.16904 0.3802 0.90874 0.0
C1851 C 0.18221 0.3988 0.90034 0.0
H1852 H 0.67281 0.19196 0.02208 0.0
H1853 H 0.61912 0.18545 0.07375 0.0
H1854 H 0.69093 0.15691 0.0363 0.0
H1855 H 0.63654 0.14935 0.08731 0.0
H1856 H 0.68904 0.09903 0.12113 0.0
H1857 H 0.66796 0.13327 0.10764 0.0
H1858 H 0.68771 0.11719 0.03714 0.0
H1859 H 0.70981 0.08423 0.05089 0.0
C1860 C 0.66463 0.18275 0.03624 0.0
C1861 C 0.6445 0.19141 0.04673 0.0
C1862 C 0.67495 0.16249 0.04436 0.0
C1863 C 0.66512 0.15 0.06286 0.0
C1864 C 0.64479 0.15859 0.07323 0.0
C1865 C 0.6347 0.17919 0.06536 0.0
C1866 C 0.6887 0.1029 0.10278 0.0
C1867 C 0.70128 0.08929 0.08708 0.0
C1868 C 0.67654 0.12242 0.09498 0.0
C1869 C 0.67639 0.12833 0.07127 0.0
C1870 C 0.68803 0.11378 0.05558 0.0
C1871 C 0.70057 0.09473 0.06342 0.0
H1872 H 0.3846 0.17489 0.09127 0.0
H1873 H 0.43213 0.22962 0.11004 0.0
H1874 H 0.39926 0.15138 0.12354 0.0
H1875 H 0.44637 0.20649 0.14202 0.0
H1876 H 0.48573 0.15258 0.18039 0.0
H1877 H 0.46967 0.1713 0.14629 0.0
H1878 H 0.40082 0.1508 0.16714 0.0
H1879 H 0.41694 0.1316 0.20129 0.0
C1880 C 0.39801 0.18195 0.10233 0.0
C1881 C 0.40731 0.20404 0.098 0.0
C1882 C 0.40636 0.16852 0.12079 0.0
C1883 C 0.42422 0.17696 0.13507 0.0
C1884 C 0.433 0.19926 0.131 0.0
C1885 C 0.42468 0.21261 0.11273 0.0
C1886 C 0.46719 0.1518 0.17764 0.0
C1887 C 0.45261 0.14084 0.19375 0.0
C1888 C 0.45797 0.16264 0.15813 0.0
C1889 C 0.43394 0.16287 0.15426 0.0
C1890 C 0.41941 0.15088 0.16966 0.0
C1891 C 0.42866 0.13996 0.18925 0.0
H1892 H 0.51196 0.34702 0.18077 0.0
H1893 H 0.58149 0.36697 0.20021 0.0
H1894 H 0.52715 0.32739 0.14673 0.0
H1895 H 0.5967 0.34688 0.16624 0.0
H1896 H 0.61217 0.322 0.09109 0.0
H1897 H 0.59784 0.346 0.12308 0.0
H1898 H 0.54963 0.29192 0.14182 0.0
H1899 H 0.56355 0.2683 0.11003 0.0
C1900 C 0.53047 0.34737 0.17772 0.0
C1901 C 0.54552 0.35836 0.19337 0.0
C1902 C 0.53919 0.336 0.15826 0.0
C1903 C 0.56315 0.3353 0.154 0.0
C1904 C 0.57814 0.3472 0.16902 0.0
C1905 C 0.56941 0.35862 0.18853 0.0
C1906 C 0.59858 0.31528 0.10213 0.0
C1907 C 0.58893 0.29331 0.09796 0.0
C1908 C 0.59041 0.32898 0.12043 0.0
C1909 C 0.57239 0.32096 0.13476 0.0
C1910 C 0.56315 0.29883 0.13078 0.0
C1911 C 0.57129 0.28519 0.11264 0.0
H1912 H 0.42941 0.88434 0.31164 0.0
H1913 H 0.48077 0.83023 0.30594 0.0
H1914 H 0.41492 0.86676 0.34735 0.0
H1915 H 0.46569 0.81206 0.34053 0.0
H1916 H 0.44964 0.7928 0.41266 0.0
H1917 H 0.46414 0.81525 0.38028 0.0
H1918 H 0.39403 0.83509 0.3627 0.0
H1919 H 0.37973 0.81361 0.39639 0.0
C1920 C 0.43755 0.86868 0.318 0.0
C1921 C 0.45637 0.85879 0.30611 0.0
C1922 C 0.42915 0.85849 0.33836 0.0
C1923 C 0.43919 0.83803 0.34704 0.0
C1924 C 0.45788 0.82815 0.33489 0.0
C1925 C 0.46649 0.83851 0.31488 0.0
C1926 C 0.43734 0.80211 0.40196 0.0
C1927 C 0.41356 0.80128 0.4068 0.0
C1928 C 0.44562 0.81487 0.38324 0.0
C1929 C 0.43026 0.82663 0.36843 0.0
C1930 C 0.40642 0.8264 0.37376 0.0
C1931 C 0.39817 0.81401 0.39295 0.0
H1932 H 0.55051 0.71017 0.4157 0.0
H1933 H 0.62085 0.68989 0.40072 0.0
H1934 H 0.53679 0.68782 0.38292 0.0
H1935 H 0.60735 0.6685 0.36662 0.0
H1936 H 0.57307 0.61961 0.31431 0.0
H1937 H 0.58684 0.63687 0.35047 0.0
H1938 H 0.53617 0.69159 0.34315 0.0
H1939 H 0.52181 0.67374 0.30809 0.0
C1940 C 0.56306 0.70097 0.40521 0.0
C1941 C 0.58674 0.70194 0.41051 0.0
C1942 C 0.55524 0.68828 0.38626 0.0
C1943 C 0.57097 0.67674 0.37167 0.0
C1944 C 0.59469 0.67704 0.37749 0.0
C1945 C 0.60248 0.68937 0.39692 0.0
C1946 C 0.5648 0.63521 0.32065 0.0
C1947 C 0.54621 0.64519 0.30849 0.0
C1948 C 0.57279 0.64521 0.34128 0.0
C1949 C 0.56254 0.66557 0.34996 0.0
C1950 C 0.54411 0.67557 0.33751 0.0
C1951 C 0.53591 0.66539 0.31723 0.0
H1952 H 0.18024 0.48995 0.15434 0.0
H1953 H 0.1996 0.42098 0.13244 0.0
H1954 H 0.14649 0.47417 0.17402 0.0
H1955 H 0.16594 0.40519 0.15257 0.0
H1956 H 0.09095 0.38898 0.17741 0.0
H1957 H 0.12286 0.40393 0.15369 0.0
H1958 H 0.14174 0.45078 0.2089 0.0
H1959 H 0.11002 0.43624 0.23226 0.0
C1960 C 0.17724 0.47144 0.15358 0.0
C1961 C 0.19277 0.45672 0.142 0.0
C1962 C 0.15795 0.46238 0.16498 0.0
C1963 C 0.15374 0.4384 0.16512 0.0
C1964 C 0.16867 0.42375 0.1527 0.0
C1965 C 0.18801 0.43282 0.14125 0.0
C1966 C 0.10202 0.40239 0.18445 0.0
C1967 C 0.09789 0.4115 0.20665 0.0
C1968 C 0.12027 0.41092 0.17091 0.0
C1969 C 0.13461 0.42875 0.17932 0.0
C1970 C 0.1307 0.43742 0.2017 0.0
C1971 C 0.11259 0.42893 0.21517 0.0
H1972 H 0.82031 0.01138 0.1526 0.0
H1973 H 0.79938 0.07991 0.13081 0.0
H1974 H 0.85399 0.02778 0.17182 0.0
H1975 H 0.83305 0.09637 0.15051 0.0
H1976 H 0.90829 0.11343 0.17539 0.0
H1977 H 0.87643 0.09831 0.15166 0.0
H1978 H 0.85789 0.05129 0.20683 0.0
H1979 H 0.88951 0.06599 0.23019 0.0
C1980 C 0.82296 0.02993 0.15176 0.0
C1981 C 0.80698 0.04434 0.1404 0.0
C1982 C 0.84222 0.03935 0.16288 0.0
C1983 C 0.84595 0.06341 0.16301 0.0
C1984 C 0.83065 0.07776 0.15067 0.0
C1985 C 0.81133 0.06832 0.13947 0.0
C1986 C 0.8973 0.09995 0.18242 0.0
C1987 C 0.90151 0.09081 0.2046 0.0
C1988 C 0.87908 0.09133 0.16886 0.0
C1989 C 0.86489 0.07337 0.17725 0.0
C1990 C 0.86883 0.06474 0.19964 0.0
C1991 C 0.88689 0.07332 0.21311 0.0
H1992 H 0.09255 0.61611 0.3237 0.0
H1993 H 0.11084 0.56803 0.26929 0.0
H1994 H 0.12514 0.60183 0.34699 0.0
H1995 H 0.14313 0.55416 0.2922 0.0
H1996 H 0.18253 0.5157 0.34603 0.0
H1997 H 0.14808 0.53131 0.32757 0.0
H1998 H 0.16873 0.60054 0.34699 0.0
H1999 H 0.20323 0.58487 0.36593 0.0
C2000 C 0.10357 0.60265 0.31667 0.0
C2001 C 0.09902 0.59311 0.29472 0.0
C2002 C 0.12221 0.59451 0.32996 0.0
C2003 C 0.13647 0.57663 0.32155 0.0
C2004 C 0.13215 0.56756 0.29941 0.0
C2005 C 0.1137 0.57567 0.28619 0.0
C2006 C 0.17967 0.53423 0.34662 0.0
C2007 C 0.19581 0.54905 0.35721 0.0
C2008 C 0.15995 0.54319 0.33594 0.0
C2009 C 0.15591 0.56719 0.33548 0.0
C2010 C 0.17137 0.58197 0.34709 0.0
C2011 C 0.19117 0.57298 0.35786 0.0
H2012 H 0.81893 0.98685 0.3445 0.0
H2013 H 0.7997 0.91727 0.36445 0.0
H2014 H 0.85314 0.97181 0.3251 0.0
H2015 H 0.83387 0.90219 0.34457 0.0
H2016 H 0.90952 0.88736 0.32036 0.0
H2017 H 0.8771 0.90133 0.344 0.0
H2018 H 0.85843 0.94933 0.28971 0.0
H2019 H 0.89064 0.93577 0.26646 0.0
C2020 C 0.82205 0.96835 0.34488 0.0
C2021 C 0.80641 0.95325 0.35582 0.0
C2022 C 0.84162 0.95972 0.33365 0.0
C2023 C 0.84601 0.93578 0.333 0.0
C2024 C 0.83099 0.92073 0.34483 0.0
C2025 C 0.81136 0.92938 0.35613 0.0
C2026 C 0.8984 0.90082 0.31351 0.0
C2027 C 0.90273 0.91054 0.29161 0.0
C2028 C 0.87985 0.90879 0.32701 0.0
C2029 C 0.86542 0.92665 0.31884 0.0
C2030 C 0.86953 0.93593 0.29674 0.0
C2031 C 0.88793 0.928 0.28332 0.0
H2032 H 0.11751 0.18811 0.43058 0.0
H2033 H 0.17206 0.19505 0.4813 0.0
H2034 H 0.13564 0.1527 0.416 0.0
H2035 H 0.19077 0.16081 0.46611 0.0
H2036 H 0.21124 0.08901 0.45022 0.0
H2037 H 0.18839 0.12105 0.46478 0.0
H2038 H 0.16731 0.13778 0.39482 0.0
H2039 H 0.1892 0.10436 0.38048 0.0
C2040 C 0.13338 0.18208 0.43856 0.0
C2041 C 0.14323 0.19421 0.45724 0.0
C2042 C 0.14388 0.1619 0.4301 0.0
C2043 C 0.16464 0.15367 0.43994 0.0
C2044 C 0.17448 0.16608 0.45847 0.0
C2045 C 0.1638 0.18589 0.46715 0.0
C2046 C 0.20159 0.09947 0.43797 0.0
C2047 C 0.20218 0.09445 0.41422 0.0
C2048 C 0.1886 0.11799 0.44628 0.0
C2049 C 0.17635 0.13246 0.43098 0.0
C2050 C 0.17638 0.12698 0.40718 0.0
C2051 C 0.18901 0.10795 0.3989 0.0
H2052 H 0.17665 0.91052 0.11205 0.0
H2053 H 0.23193 0.89309 0.06465 0.0
H2054 H 0.15366 0.87821 0.09683 0.0
H2055 H 0.20931 0.86096 0.04987 0.0
H2056 H 0.15593 0.82128 0.01046 0.0
H2057 H 0.17467 0.85546 0.02644 0.0
H2058 H 0.15344 0.83518 0.09525 0.0
H2059 H 0.13422 0.80109 0.07924 0.0
C2060 C 0.18394 0.89974 0.09854 0.0
C2061 C 0.20605 0.90443 0.08948 0.0
C2062 C 0.17081 0.88125 0.08986 0.0
C2063 C 0.17956 0.86724 0.07193 0.0
C2064 C 0.20184 0.87173 0.0633 0.0
C2065 C 0.2149 0.89008 0.07193 0.0
C2066 C 0.15502 0.82418 0.02897 0.0
C2067 C 0.14378 0.8083 0.04358 0.0
C2068 C 0.16587 0.84373 0.03815 0.0
C2069 C 0.16582 0.84783 0.06215 0.0
C2070 C 0.15371 0.83253 0.07668 0.0
C2071 C 0.14279 0.81295 0.06749 0.0
H2072 H 0.87116 0.70041 0.07977 0.0
H2073 H 0.84951 0.67885 0.01139 0.0
H2074 H 0.8518 0.66665 0.09645 0.0
H2075 H 0.83062 0.6451 0.02802 0.0
H2076 H 0.7723 0.60978 0.06664 0.0
H2077 H 0.7956 0.64129 0.05161 0.0
H2078 H 0.8509 0.62322 0.09865 0.0
H2079 H 0.82723 0.59145 0.11409 0.0
C2080 C 0.86262 0.6883 0.06826 0.0
C2081 C 0.86161 0.69251 0.04426 0.0
C2082 C 0.85161 0.66893 0.07783 0.0
C2083 C 0.83939 0.65344 0.06358 0.0
C2084 C 0.83947 0.65701 0.0395 0.0
C2085 C 0.85041 0.67632 0.02996 0.0
C2086 C 0.78939 0.61247 0.07389 0.0
C2087 C 0.79796 0.59802 0.0915 0.0
C2088 C 0.80283 0.63046 0.06512 0.0
C2089 C 0.82523 0.63451 0.07367 0.0
C2090 C 0.83368 0.62048 0.09172 0.0
C2091 C 0.82017 0.60232 0.10053 0.0
H2092 H 0.32387 0.91331 0.88813 0.0
H2093 H 0.2691 0.89421 0.93547 0.0
H2094 H 0.34754 0.88124 0.9029 0.0
H2095 H 0.29238 0.86237 0.94981 0.0
H2096 H 0.34651 0.82337 0.98869 0.0
H2097 H 0.32729 0.85745 0.97309 0.0
H2098 H 0.34842 0.83802 0.90401 0.0
H2099 H 0.3681 0.804 0.91965 0.0
C2100 C 0.31684 0.90222 0.90154 0.0
C2101 C 0.29467 0.90637 0.91071 0.0
C2102 C 0.33036 0.88388 0.90996 0.0
C2103 C 0.32193 0.86949 0.92774 0.0
C2104 C 0.29959 0.87345 0.93649 0.0
C2105 C 0.28616 0.89163 0.92811 0.0
C2106 C 0.3473 0.82644 0.9702 0.0
C2107 C 0.35863 0.81079 0.9554 0.0
C2108 C 0.33617 0.84593 0.96124 0.0
C2109 C 0.33604 0.85023 0.93728 0.0
C2110 C 0.34828 0.83521 0.92255 0.0
C2111 C 0.35947 0.81567 0.93153 0.0
H2112 H 0.00655 0.54814 0.29053 0.0
H2113 H 0.9672 0.56601 0.2296 0.0
H2114 H 0.99574 0.50753 0.28575 0.0
H2115 H 0.95699 0.52502 0.22427 0.0
H2116 H 1.0 0.45272 0.20885 0.0
H2117 H 0.99001 0.49344 0.21466 0.0
H2118 H 0.9611 0.47679 0.28155 0.0
H2119 H 0.97044 0.43576 0.27528 0.0
C2120 C 0.99491 0.54343 0.27658 0.0
C2121 C 0.98762 0.5601 0.26048 0.0
C2122 C 0.98866 0.52022 0.27387 0.0
C2123 C 0.97554 0.51317 0.25463 0.0
C2124 C 0.967 0.53008 0.23932 0.0
C2125 C 0.97274 0.55347 0.24241 0.0
C2126 C 0.99046 0.45764 0.22425 0.0
C2127 C 0.98576 0.44122 0.24153 0.0
C2128 C 0.98473 0.48091 0.22759 0.0
C2129 C 0.97482 0.48823 0.24858 0.0
C2130 C 0.9686 0.47153 0.26518 0.0
C2131 C 0.97381 0.4481 0.26155 0.0
H2132 H 0.99854 0.95386 0.28945 0.0
H2133 H 0.03269 0.93659 0.22533 0.0
H2134 H 0.00887 0.99454 0.28415 0.0
H2135 H 0.04241 0.97761 0.21952 0.0
H2136 H 0.03162 0.06692 0.27121 0.0
H2137 H 0.04203 0.02606 0.27708 0.0
H2138 H 0.00861 0.00846 0.21257 0.0
H2139 H 0.9976 0.04895 0.20722 0.0
C2140 C 0.00909 0.95871 0.2747 0.0
C2141 C 0.01498 0.9422 0.25788 0.0
C2142 C 0.01503 0.98196 0.27166 0.0
C2143 C 0.0264 0.98921 0.2514 0.0
C2144 C 0.03376 0.97242 0.23535 0.0
C2145 C 0.02832 0.94899 0.23871 0.0
C2146 C 0.02741 0.05441 0.25788 0.0
C2147 C 0.01392 0.06094 0.23873 0.0
C2148 C 0.03325 0.03108 0.26127 0.0
C2149 C 0.02614 0.01415 0.24526 0.0
C2150 C 0.01459 0.02116 0.22503 0.0
C2151 C 0.00824 0.0443 0.22196 0.0
H2152 H 0.22945 0.96745 0.56666 0.0
H2153 H 0.29105 0.00494 0.54723 0.0
H2154 H 0.22349 0.95631 0.52601 0.0
H2155 H 0.28563 0.99324 0.50696 0.0
H2156 H 0.20747 0.99787 0.4534 0.0
H2157 H 0.21381 0.98811 0.49406 0.0
H2158 H 0.28045 0.95903 0.47666 0.0
H2159 H 0.27365 0.9682 0.43568 0.0
C2160 C 0.24228 0.97234 0.55387 0.0
C2161 C 0.26074 0.98697 0.55995 0.0
C2162 C 0.23882 0.96607 0.53065 0.0
C2163 C 0.25411 0.97389 0.51337 0.0
C2164 C 0.27374 0.9867 0.51993 0.0
C2165 C 0.27684 0.99345 0.54295 0.0
C2166 C 0.22292 0.98832 0.45814 0.0
C2167 C 0.23999 0.98359 0.4415 0.0
C2168 C 0.22657 0.98272 0.48139 0.0
C2169 C 0.24766 0.97288 0.48851 0.0
C2170 C 0.264 0.96652 0.47159 0.0
C2171 C 0.26006 0.97161 0.44817 0.0
H2172 H 0.70845 0.50277 0.5504 0.0
H2173 H 0.77432 0.53319 0.56807 0.0
H2174 H 0.71467 0.51262 0.50972 0.0
H2175 H 0.78101 0.54237 0.52707 0.0
H2176 H 0.79141 0.49627 0.45627 0.0
H2177 H 0.78595 0.5074 0.49671 0.0
H2178 H 0.72445 0.54553 0.47799 0.0
H2179 H 0.73047 0.53502 0.43717 0.0
C2180 C 0.7238 0.51248 0.54565 0.0
C2181 C 0.74082 0.51744 0.56226 0.0
C2182 C 0.72738 0.51812 0.52239 0.0
C2183 C 0.74835 0.5282 0.51528 0.0
C2184 C 0.76465 0.53473 0.53217 0.0
C2185 C 0.76077 0.52961 0.55558 0.0
C2186 C 0.77731 0.50785 0.46068 0.0
C2187 C 0.76141 0.51488 0.44371 0.0
C2188 C 0.77421 0.51428 0.48379 0.0
C2189 C 0.75477 0.52732 0.49044 0.0
C2190 C 0.73964 0.5356 0.47324 0.0
C2191 C 0.74313 0.52967 0.44994 0.0
H2192 H 0.22658 0.03634 0.93643 0.0
H2193 H 0.28917 0.99963 0.95417 0.0
H2194 H 0.22083 0.04619 0.97744 0.0
H2195 H 0.28394 0.01009 0.9948 0.0
H2196 H 0.27218 0.03403 0.0668 0.0
H2197 H 0.27825 0.04398 0.02588 0.0
H2198 H 0.21247 0.01288 0.00872 0.0
H2199 H 0.20688 0.00231 0.04931 0.0
C2200 C 0.23964 0.03135 0.94895 0.0
C2201 C 0.25833 0.01728 0.94227 0.0
C2202 C 0.23631 0.03688 0.97236 0.0
C2203 C 0.25197 0.02893 0.98925 0.0
C2204 C 0.27177 0.01671 0.98214 0.0
C2205 C 0.27475 0.01067 0.95892 0.0
C2206 C 0.25861 0.03028 0.05438 0.0
C2207 C 0.23901 0.01756 0.06108 0.0
C2208 C 0.26213 0.03584 0.03101 0.0
C2209 C 0.24582 0.0292 0.01418 0.0
C2210 C 0.22517 0.01849 0.02134 0.0
C2211 C 0.22196 0.01242 0.04454 0.0
H2212 H 0.79436 0.50125 0.05017 0.0
H2213 H 0.72938 0.46936 0.06854 0.0
H2214 H 0.78816 0.49081 0.00963 0.0
H2215 H 0.72269 0.45958 0.02767 0.0
H2216 H 0.77303 0.46668 0.9376 0.0
H2217 H 0.77923 0.45698 0.97859 0.0
H2218 H 0.7168 0.49391 0.99662 0.0
H2219 H 0.71115 0.50425 0.95599 0.0
C2220 C 0.77921 0.49115 0.0456 0.0
C2221 C 0.76243 0.48591 0.06238 0.0
C2222 C 0.77565 0.48515 0.02243 0.0
C2223 C 0.75493 0.47442 0.01555 0.0
C2224 C 0.73887 0.46772 0.0326 0.0
C2225 C 0.74274 0.47319 0.05593 0.0
C2226 C 0.76021 0.4719 0.95027 0.0
C2227 C 0.7416 0.48615 0.94377 0.0
C2228 C 0.7638 0.46645 0.97366 0.0
C2229 C 0.74846 0.47466 0.99071 0.0
C2230 C 0.72871 0.48709 0.98382 0.0
C2231 C 0.72549 0.49306 0.96061 0.0
H2232 H 0.45191 0.20806 0.00533 0.0
H2233 H 0.43402 0.26936 0.96658 0.0
H2234 H 0.49255 0.21309 0.99475 0.0
H2235 H 0.47503 0.27495 0.95662 0.0
H2236 H 0.54683 0.29017 0.0006 0.0
H2237 H 0.50623 0.28425 0.9902 0.0
H2238 H 0.52357 0.21799 0.96026 0.0
H2239 H 0.56449 0.22439 0.96999 0.0
C2240 C 0.45663 0.22213 0.99384 0.0
C2241 C 0.43993 0.23827 0.98667 0.0
C2242 C 0.47985 0.22499 0.98772 0.0
C2243 C 0.4869 0.24442 0.97488 0.0
C2244 C 0.46998 0.25975 0.96641 0.0
C2245 C 0.44657 0.25651 0.97201 0.0
C2246 C 0.54209 0.2749 0.99076 0.0
C2247 C 0.55868 0.25783 0.98588 0.0
C2248 C 0.5189 0.27149 0.9848 0.0
C2249 C 0.5118 0.25064 0.97446 0.0
C2250 C 0.52866 0.23426 0.96808 0.0
C2251 C 0.55203 0.23797 0.97352 0.0
H2252 H 0.56325 0.77337 0.53888 0.0
H2253 H 0.54435 0.71041 0.50341 0.0
H2254 H 0.52237 0.7801 0.54855 0.0
H2255 H 0.50382 0.71664 0.51366 0.0
H2256 H 0.4318 0.73074 0.53555 0.0
H2257 H 0.47232 0.72373 0.54644 0.0
H2258 H 0.49181 0.78879 0.51519 0.0
H2259 H 0.45164 0.79532 0.50372 0.0
C2260 C 0.55051 0.76042 0.53417 0.0
C2261 C 0.55685 0.74137 0.52043 0.0
C2262 C 0.52716 0.76432 0.53959 0.0
C2263 C 0.50996 0.7489 0.53184 0.0
C2264 C 0.5167 0.72867 0.52011 0.0
C2265 C 0.53989 0.72511 0.51419 0.0
C2266 C 0.44462 0.74397 0.53198 0.0
C2267 C 0.43871 0.7636 0.5189 0.0
C2268 C 0.46778 0.7399 0.53807 0.0
C2269 C 0.48518 0.75571 0.53164 0.0
C2270 C 0.47876 0.77645 0.52064 0.0
C2271 C 0.45578 0.7802 0.51405 0.0
H2272 H 0.04576 0.78999 0.50132 0.0
H2273 H 0.06301 0.72719 0.46476 0.0
H2274 H 0.00502 0.78486 0.49117 0.0
H2275 H 0.02191 0.72153 0.45523 0.0
H2276 H 0.93279 0.77316 0.46795 0.0
H2277 H 0.97363 0.77904 0.45754 0.0
H2278 H 0.99093 0.71345 0.48894 0.0
H2279 H 0.95044 0.70805 0.49998 0.0
C2280 C 0.04088 0.77555 0.49037 0.0
C2281 C 0.05742 0.75904 0.48371 0.0
C2282 C 0.0176 0.77263 0.4845 0.0
C2283 C 0.01034 0.75278 0.47243 0.0
C2284 C 0.02711 0.73704 0.46442 0.0
C2285 C 0.05058 0.74032 0.46977 0.0
C2286 C 0.94521 0.75958 0.47167 0.0
C2287 C 0.9386 0.7401 0.48462 0.0
C2288 C 0.96854 0.763 0.46584 0.0
C2289 C 0.98539 0.74669 0.47243 0.0
C2290 C 0.97828 0.72614 0.48337 0.0
C2291 C 0.95514 0.72304 0.4897 0.0
H2292 H 0.03619 0.43324 0.77373 0.0
H2293 H 0.00705 0.45095 0.70731 0.0
H2294 H 0.04575 0.47414 0.78038 0.0
H2295 H 0.01724 0.49154 0.71351 0.0
H2296 H 1.00003 0.54498 0.79035 0.0
H2297 H 0.01135 0.50459 0.78505 0.0
H2298 H 0.0495 0.5233 0.72354 0.0
H2299 H 0.03875 0.56407 0.72939 0.0
C2300 C 0.03301 0.44569 0.76006 0.0
C2301 C 0.02104 0.43906 0.73996 0.0
C2302 C 0.03833 0.46907 0.76391 0.0
C2303 C 0.0322 0.48597 0.74747 0.0
C2304 C 0.02243 0.47887 0.72635 0.0
C2305 C 0.0166 0.45566 0.72277 0.0
C2306 C 0.01166 0.54059 0.77629 0.0
C2307 C 0.01859 0.55754 0.76032 0.0
C2308 C 0.0182 0.5175 0.77327 0.0
C2309 C 0.03129 0.51084 0.75387 0.0
C2310 C 0.03952 0.52804 0.73871 0.0
C2311 C 0.03346 0.55132 0.7421 0.0
H2312 H 0.99587 0.04685 0.7084 0.0
H2313 H 0.96306 0.06414 0.77322 0.0
H2314 H 0.98588 0.00613 0.71407 0.0
H2315 H 0.95374 0.02309 0.77938 0.0
H2316 H 0.99992 0.95222 0.79062 0.0
H2317 H 0.98861 0.99264 0.78534 0.0
H2318 H 0.9526 0.9744 0.72243 0.0
H2319 H 0.96328 0.9336 0.72825 0.0
C2320 C 0.98567 0.042 0.72339 0.0
C2321 C 0.9801 0.05854 0.74031 0.0
C2322 C 0.97993 0.01873 0.72664 0.0
C2323 C 0.96909 0.01149 0.74719 0.0
C2324 C 0.96197 0.02829 0.76334 0.0
C2325 C 0.96719 0.05173 0.75976 0.0
C2326 C 0.9887 0.95671 0.77625 0.0
C2327 C 0.98235 0.9399 0.75989 0.0
C2328 C 0.98218 0.97981 0.77325 0.0
C2329 C 0.96975 0.98661 0.75347 0.0
C2330 C 0.96205 0.96953 0.73789 0.0
C2331 C 0.96806 0.94624 0.74126 0.0
H2332 H 0.76958 0.03571 0.43312 0.0
H2333 H 0.70913 0.99677 0.45336 0.0
H2334 H 0.77573 0.0471 0.47368 0.0
H2335 H 0.7147 0.00879 0.49353 0.0
H2336 H 0.7265 0.03668 0.56421 0.0
H2337 H 0.71962 0.04487 0.52305 0.0
H2338 H 0.78581 0.0146 0.50608 0.0
H2339 H 0.79222 0.0057 0.54694 0.0
C2340 C 0.75704 0.03051 0.44607 0.0
C2341 C 0.73887 0.01541 0.44024 0.0
C2342 C 0.7606 0.03694 0.46922 0.0
C2343 C 0.74564 0.02888 0.48667 0.0
C2344 C 0.7263 0.01551 0.4804 0.0
C2345 C 0.72314 0.00857 0.45745 0.0
C2346 C 0.73997 0.03275 0.55176 0.0
C2347 C 0.75992 0.02065 0.55863 0.0
C2348 C 0.73599 0.03731 0.52825 0.0
C2349 C 0.75219 0.03035 0.51145 0.0
C2350 C 0.77318 0.02041 0.51869 0.0
C2351 C 0.77686 0.0153 0.54205 0.0
H2352 H 0.23224 0.46665 0.43213 0.0
H2353 H 0.2963 0.50079 0.44977 0.0
H2354 H 0.22613 0.45709 0.47313 0.0
H2355 H 0.29068 0.49055 0.49044 0.0
H2356 H 0.21384 0.50262 0.54434 0.0
H2357 H 0.21949 0.49193 0.50379 0.0
H2358 H 0.28283 0.4566 0.52189 0.0
H2359 H 0.27662 0.46663 0.56281 0.0
C2360 C 0.24556 0.47104 0.44461 0.0
C2361 C 0.26476 0.48438 0.43791 0.0
C2362 C 0.242 0.46569 0.46802 0.0
C2363 C 0.25794 0.47308 0.48489 0.0
C2364 C 0.27828 0.48439 0.47777 0.0
C2365 C 0.28149 0.49027 0.45453 0.0
C2366 C 0.22839 0.49169 0.53976 0.0
C2367 C 0.24473 0.48531 0.55658 0.0
C2368 C 0.23162 0.48552 0.5166 0.0
C2369 C 0.25159 0.47344 0.50975 0.0
C2370 C 0.26721 0.46577 0.5268 0.0
C2371 C 0.26362 0.47141 0.55015 0.0
H2372 H 0.73034 0.96191 0.93337 0.0
H2373 H 0.79288 0.9977 0.95307 0.0
H2374 H 0.72379 0.95114 0.974 0.0
H2375 H 0.78685 0.9863 0.99334 0.0
H2376 H 0.77298 0.96134 0.06471 0.0
H2377 H 0.7799 0.95184 0.02383 0.0
H2378 H 0.71515 0.98436 0.00545 0.0
H2379 H 0.70873 0.99451 0.046 0.0
C2380 C 0.74325 0.96646 0.9462 0.0
C2381 C 0.76213 0.98058 0.9402 0.0
C2382 C 0.73945 0.9604 0.96941 0.0
C2383 C 0.75482 0.96788 0.98676 0.0
C2384 C 0.77488 0.98005 0.9803 0.0
C2385 C 0.77833 0.98662 0.95728 0.0
C2386 C 0.7598 0.96552 0.05202 0.0
C2387 C 0.7403 0.97859 0.05839 0.0
C2388 C 0.76381 0.9602 0.02867 0.0
C2389 C 0.74806 0.96737 0.01153 0.0
C2390 C 0.72744 0.97837 0.01832 0.0
C2391 C 0.72376 0.98421 0.0415 0.0
H2392 H 0.27117 0.53407 0.93117 0.0
H2393 H 0.20656 0.50179 0.95013 0.0
H2394 H 0.27783 0.54452 0.97187 0.0
H2395 H 0.21271 0.51288 0.99049 0.0
H2396 H 0.22775 0.53736 0.0622 0.0
H2397 H 0.2214 0.54691 0.02121 0.0
H2398 H 0.28424 0.51066 0.00318 0.0
H2399 H 0.29005 0.50047 0.04382 0.0
C2400 C 0.25787 0.5303 0.94386 0.0
C2401 C 0.23831 0.51725 0.93764 0.0
C2402 C 0.26172 0.53616 0.9671 0.0
C2403 C 0.24577 0.52951 0.98427 0.0
C2404 C 0.22514 0.51849 0.97759 0.0
C2405 C 0.2216 0.51212 0.95452 0.0
C2406 C 0.24064 0.53227 0.04954 0.0
C2407 C 0.2594 0.51822 0.05604 0.0
C2408 C 0.23696 0.53764 0.02614 0.0
C2409 C 0.25235 0.52954 0.00909 0.0
C2410 C 0.27227 0.51738 0.01598 0.0
C2411 C 0.27558 0.5115 0.0392 0.0
H2412 H 0.43615 0.77473 0.03768 0.0
H2413 H 0.45463 0.7122 0.00123 0.0
H2414 H 0.47689 0.78023 0.04875 0.0
H2415 H 0.49498 0.71716 0.01293 0.0
H2416 H 0.56622 0.72842 0.03905 0.0
H2417 H 0.52505 0.72278 0.04811 0.0
H2418 H 0.50912 0.78833 0.01592 0.0
H2419 H 0.54996 0.7935 0.0062 0.0
C2420 C 0.44875 0.76162 0.033 0.0
C2421 C 0.44239 0.74303 0.01867 0.0
C2422 C 0.472 0.76481 0.03925 0.0
C2423 C 0.48902 0.74909 0.03174 0.0
C2424 C 0.48218 0.72937 0.01923 0.0
C2425 C 0.45913 0.72655 0.01247 0.0
C2426 C 0.55401 0.74205 0.03488 0.0
C2427 C 0.56114 0.76141 0.022 0.0
C2428 C 0.5305 0.73877 0.03994 0.0
C2429 C 0.51395 0.75512 0.0327 0.0
C2430 C 0.52152 0.7756 0.02196 0.0
C2431 C 0.54486 0.77856 0.01637 0.0
H2432 H 0.45233 0.29489 0.49854 0.0
H2433 H 0.43391 0.23076 0.46497 0.0
H2434 H 0.49293 0.28869 0.48837 0.0
H2435 H 0.47484 0.22405 0.45549 0.0
H2436 H 0.54596 0.21134 0.50105 0.0
H2437 H 0.5055 0.2173 0.49024 0.0
H2438 H 0.52427 0.28024 0.45454 0.0
H2439 H 0.56509 0.27373 0.4647 0.0
C2440 C 0.45691 0.27994 0.48816 0.0
C2441 C 0.44008 0.26337 0.4824 0.0
C2442 C 0.48011 0.27638 0.48231 0.0
C2443 C 0.48699 0.25586 0.47118 0.0
C2444 C 0.46992 0.24006 0.46394 0.0
C2445 C 0.44655 0.24395 0.46925 0.0
C2446 C 0.54156 0.22586 0.49 0.0
C2447 C 0.55855 0.24202 0.48359 0.0
C2448 C 0.51844 0.22926 0.48377 0.0
C2449 C 0.51179 0.24924 0.47157 0.0
C2450 C 0.52901 0.26463 0.46382 0.0
C2451 C 0.55231 0.26086 0.46952 0.0
H2452 H 0.93467 0.27014 0.53995 0.0
H2453 H 0.95396 0.20799 0.50328 0.0
H2454 H 0.97538 0.27642 0.55058 0.0
H2455 H 0.99431 0.21377 0.51446 0.0
H2456 H 0.06597 0.22698 0.53768 0.0
H2457 H 0.02528 0.21992 0.54788 0.0
H2458 H 0.00653 0.28582 0.51797 0.0
H2459 H 0.04688 0.2924 0.50718 0.0
C2460 C 0.94744 0.25724 0.53517 0.0
C2461 C 0.94129 0.23858 0.52083 0.0
C2462 C 0.9707 0.26089 0.54114 0.0
C2463 C 0.98798 0.24559 0.53333 0.0
C2464 C 0.98136 0.22569 0.52097 0.0
C2465 C 0.95828 0.22239 0.51452 0.0
C2466 C 0.05326 0.24036 0.53429 0.0
C2467 C 0.05944 0.26028 0.52178 0.0
C2468 C 0.03001 0.23627 0.53999 0.0
C2469 C 0.01278 0.25232 0.5337 0.0
C2470 C 0.01945 0.27329 0.52331 0.0
C2471 C 0.04253 0.27708 0.51711 0.0
H2472 H 0.5058 0.04397 0.79028 0.0
H2473 H 0.46766 0.06157 0.72851 0.0
H2474 H 0.49558 0.00324 0.78513 0.0
H2475 H 0.45809 0.02047 0.72281 0.0
H2476 H 0.50261 0.94876 0.70838 0.0
H2477 H 0.49206 0.98936 0.71405 0.0
H2478 H 0.46108 0.97211 0.77985 0.0
H2479 H 0.47096 0.93118 0.77369 0.0
C2480 C 0.49453 0.03916 0.77606 0.0
C2481 C 0.48742 0.0558 0.75984 0.0
C2482 C 0.48862 0.01589 0.77313 0.0
C2483 C 0.47604 0.00875 0.75357 0.0
C2484 C 0.46766 0.0256 0.73811 0.0
C2485 C 0.47305 0.04905 0.74141 0.0
C2486 C 0.49253 0.95351 0.72349 0.0
C2487 C 0.4874 0.93695 0.74051 0.0
C2488 C 0.48647 0.97671 0.72674 0.0
C2489 C 0.47579 0.98383 0.74741 0.0
C2490 C 0.46917 0.96699 0.76372 0.0
C2491 C 0.4747 0.94362 0.76015 0.0
H2492 H 0.53782 0.56184 0.77577 0.0
H2493 H 0.49918 0.54335 0.71458 0.0
H2494 H 0.5485 0.52099 0.78128 0.0
H2495 H 0.51044 0.50289 0.71953 0.0
H2496 H 0.50584 0.44841 0.79645 0.0
H2497 H 0.51607 0.48907 0.79082 0.0
H2498 H 0.54508 0.4725 0.72396 0.0
H2499 H 0.53549 0.43151 0.73004 0.0
C2500 C 0.53253 0.5492 0.76296 0.0
C2501 C 0.51771 0.55561 0.74476 0.0
C2502 C 0.53855 0.52588 0.76615 0.0
C2503 C 0.53034 0.50883 0.7508 0.0
C2504 C 0.51728 0.51569 0.73144 0.0
C2505 C 0.51076 0.5388 0.72864 0.0
C2506 C 0.5155 0.4533 0.78112 0.0
C2507 C 0.52006 0.43692 0.76376 0.0
C2508 C 0.52137 0.47655 0.77788 0.0
C2509 C 0.53128 0.48391 0.75691 0.0
C2510 C 0.53755 0.46721 0.74031 0.0
C2511 C 0.5322 0.4438 0.74384 0.0
H2512 H 0.06348 0.26985 0.03649 0.0
H2513 H 0.04435 0.20941 0.99696 0.0
H2514 H 0.02265 0.27585 0.04693 0.0
H2515 H 0.00389 0.21485 0.00799 0.0
H2516 H 0.93242 0.22638 0.033 0.0
H2517 H 0.97329 0.21938 0.04249 0.0
H2518 H 0.99115 0.2863 0.01437 0.0
H2519 H 0.9506 0.29285 0.00423 0.0
C2520 C 0.05069 0.25728 0.03095 0.0
C2521 C 0.05694 0.23918 0.01594 0.0
C2522 C 0.02738 0.26076 0.03683 0.0
C2523 C 0.01016 0.24578 0.02831 0.0
C2524 C 0.01682 0.22648 0.01507 0.0
C2525 C 0.03994 0.2234 0.00868 0.0
C2526 C 0.94498 0.23998 0.02987 0.0
C2527 C 0.93848 0.2602 0.01803 0.0
C2528 C 0.96832 0.23592 0.03515 0.0
C2529 C 0.98533 0.25229 0.02914 0.0
C2530 C 0.97838 0.27351 0.01947 0.0
C2531 C 0.9552 0.27728 0.01366 0.0
H2532 H 0.50135 0.04735 0.29232 0.0
H2533 H 0.53767 0.06724 0.23015 0.0
H2534 H 0.51276 0.0071 0.28626 0.0
H2535 H 0.54852 0.02662 0.22358 0.0
H2536 H 0.50578 0.9547 0.20753 0.0
H2537 H 0.5162 0.99514 0.21418 0.0
H2538 H 0.54652 0.97652 0.27992 0.0
H2539 H 0.5367 0.93575 0.2728 0.0
C2540 C 0.51254 0.04318 0.27783 0.0
C2541 C 0.5187 0.06032 0.26174 0.0
C2542 C 0.51913 0.02016 0.27438 0.0
C2543 C 0.53148 0.01374 0.25441 0.0
C2544 C 0.53909 0.03116 0.23916 0.0
C2545 C 0.533 0.05436 0.24297 0.0
C2546 C 0.51573 0.95911 0.22282 0.0
C2547 C 0.52061 0.9422 0.23957 0.0
C2548 C 0.52171 0.98225 0.22665 0.0
C2549 C 0.53209 0.98896 0.24761 0.0
C2550 C 0.53862 0.97176 0.26358 0.0
C2551 C 0.53314 0.94846 0.25945 0.0
H2552 H 0.46421 0.43707 0.23062 0.0
H2553 H 0.50319 0.45576 0.29154 0.0
H2554 H 0.45387 0.47795 0.22479 0.0
H2555 H 0.49225 0.49627 0.28626 0.0
H2556 H 0.49685 0.55005 0.20862 0.0
H2557 H 0.48655 0.50948 0.21483 0.0
H2558 H 0.45789 0.52697 0.2816 0.0
H2559 H 0.46754 0.56786 0.27495 0.0
C2560 C 0.46963 0.44977 0.24333 0.0
C2561 C 0.48445 0.44338 0.26153 0.0
C2562 C 0.46381 0.47311 0.23994 0.0
C2563 C 0.47222 0.49022 0.2551 0.0
C2564 C 0.48526 0.48343 0.27449 0.0
C2565 C 0.49159 0.46027 0.27749 0.0
C2566 C 0.48726 0.54537 0.22407 0.0
C2567 C 0.48277 0.56199 0.24122 0.0
C2568 C 0.48136 0.52217 0.22764 0.0
C2569 C 0.47149 0.5151 0.24873 0.0
C2570 C 0.46538 0.53203 0.26516 0.0
C2571 C 0.47075 0.55539 0.2613 0.0
H2572 H 0.06712 0.77166 0.9607 0.0
H2573 H 0.0482 0.70962 0.99777 0.0
H2574 H 0.02638 0.77755 0.94992 0.0
H2575 H 0.00783 0.71498 0.98637 0.0
H2576 H 0.93642 0.72712 0.96101 0.0
H2577 H 0.97741 0.72077 0.95157 0.0
H2578 H 0.99468 0.78636 0.983 0.0
H2579 H 0.95403 0.79223 0.9931 0.0
C2580 C 0.05442 0.75872 0.96557 0.0
C2581 C 0.06067 0.74018 0.98003 0.0
C2582 C 0.03116 0.76214 0.95949 0.0
C2583 C 0.01401 0.74669 0.96728 0.0
C2584 C 0.02072 0.72698 0.97987 0.0
C2585 C 0.04379 0.72393 0.98645 0.0
C2586 C 0.94888 0.7406 0.96494 0.0
C2587 C 0.94219 0.76018 0.97771 0.0
C2588 C 0.97229 0.73691 0.95966 0.0
C2589 C 0.98916 0.75307 0.96657 0.0
C2590 C 0.98202 0.77376 0.97721 0.0
C2591 C 0.95878 0.77713 0.98302 0.0
loop_
_geom_bond_atom_site_label_1
_geom_bond_atom_site_label_2
_geom_bond_distance
_geom_bond_site_symmetry_2
_ccdc_geom_bond_type
O0 Cd1 2.223 . S
O0 C8 1.315 . S
Cd1 O0 2.223 . S
Cd1 O4 2.297 . S
Cd1 O5 2.439 . S
Cd1 O11 2.240 . S
Cd2 O3 2.240 . S
Cd2 O10 2.223 . S
Cd2 O12 2.297 . S
Cd2 O13 2.439 . S
O3 Cd2 2.240 . S
O3 C8 1.279 . S
O4 Cd1 2.297 . S
O4 C6 1.247 . S
O5 Cd1 2.439 . S
O5 C6 1.208 . S
C6 O4 1.247 . S
C6 O5 1.208 . S
C7 O12 1.247 . S
C7 O13 1.208 . S
C8 O0 1.315 . S
C8 O3 1.279 . S
C9 O10 1.315 . S
C9 O11 1.279 . S
O10 Cd2 2.223 . S
O10 C9 1.315 . S
O11 Cd1 2.240 . S
O11 C9 1.279 . S
O12 Cd2 2.297 . S
O12 C7 1.247 . S
O13 Cd2 2.439 . S
O13 C7 1.208 . S
O14 Cd15 2.223 . S
O14 C22 1.315 . S
Cd15 O14 2.223 . S
Cd15 O18 2.297 . S
Cd15 O19 2.439 . S
Cd15 O25 2.240 . S
Cd16 O17 2.240 . S
Cd16 O24 2.223 . S
Cd16 O26 2.297 . S
Cd16 O27 2.439 . S
O17 Cd16 2.240 . S
O17 C22 1.279 . S
O18 Cd15 2.297 . S
O18 C20 1.247 . S
O19 Cd15 2.439 . S
O19 C20 1.208 . S
C20 O18 1.247 . S
C20 O19 1.208 . S
C21 O26 1.247 . S
C21 O27 1.208 . S
C22 O14 1.315 . S
C22 O17 1.279 . S
C23 O24 1.315 . S
C23 O25 1.279 . S
O24 Cd16 2.223 . S
O24 C23 1.315 . S
O25 Cd15 2.240 . S
O25 C23 1.279 . S
O26 Cd16 2.297 . S
O26 C21 1.247 . S
O27 Cd16 2.439 . S
O27 C21 1.208 . S
O28 Cd29 2.223 . S
O28 C36 1.315 . S
Cd29 O28 2.223 . S
Cd29 O32 2.297 . S
Cd29 O33 2.439 . S
Cd29 O39 2.240 . S
Cd30 O31 2.240 . S
Cd30 O38 2.223 . S
Cd30 O40 2.297 . S
Cd30 O41 2.439 . S
O31 Cd30 2.240 . S
O31 C36 1.279 . S
O32 Cd29 2.297 . S
O32 C34 1.247 . S
O33 Cd29 2.439 . S
O33 C34 1.208 . S
C34 O32 1.247 . S
C34 O33 1.208 . S
C35 O40 1.247 . S
C35 O41 1.208 . S
C36 O28 1.315 . S
C36 O31 1.279 . S
C37 O38 1.315 . S
C37 O39 1.279 . S
O38 Cd30 2.223 . S
O38 C37 1.315 . S
O39 Cd29 2.240 . S
O39 C37 1.279 . S
O40 Cd30 2.297 . S
O40 C35 1.247 . S
O41 Cd30 2.439 . S
O41 C35 1.208 . S
O42 Cd43 2.223 . S
O42 C50 1.315 . S
Cd43 O42 2.223 . S
Cd43 O46 2.297 . S
Cd43 O47 2.439 . S
Cd43 O53 2.240 . S
Cd44 O45 2.240 . S
Cd44 O52 2.223 . S
Cd44 O54 2.297 . S
Cd44 O55 2.439 . S
O45 Cd44 2.240 . S
O45 C50 1.279 . S
O46 Cd43 2.297 . S
O46 C48 1.247 . S
O47 Cd43 2.439 . S
O47 C48 1.208 . S
C48 O46 1.247 . S
C48 O47 1.208 . S
C49 O54 1.247 . S
C49 O55 1.208 . S
C50 O42 1.315 . S
C50 O45 1.279 . S
C51 O52 1.315 . S
C51 O53 1.279 . S
O52 Cd44 2.223 . S
O52 C51 1.315 . S
O53 Cd43 2.240 . S
O53 C51 1.279 . S
O54 Cd44 2.297 . S
O54 C49 1.247 . S
O55 Cd44 2.439 . S
O55 C49 1.208 . S
O56 Cd57 2.223 . S
O56 C64 1.315 . S
Cd57 O56 2.223 . S
Cd57 O60 2.297 . S
Cd57 O61 2.439 . S
Cd57 O67 2.240 . S
Cd58 O59 2.240 . S
Cd58 O66 2.223 . S
Cd58 O68 2.297 . S
Cd58 O69 2.439 . S
O59 Cd58 2.240 . S
O59 C64 1.279 . S
O60 Cd57 2.297 . S
O60 C62 1.247 . S
O61 Cd57 2.439 . S
O61 C62 1.208 . S
C62 O60 1.247 . S
C62 O61 1.208 . S
C63 O68 1.247 . S
C63 O69 1.208 . S
C64 O56 1.315 . S
C64 O59 1.279 . S
C65 O66 1.315 . S
C65 O67 1.279 . S
O66 Cd58 2.223 . S
O66 C65 1.315 . S
O67 Cd57 2.240 . S
O67 C65 1.279 . S
O68 Cd58 2.297 . S
O68 C63 1.247 . S
O69 Cd58 2.439 . S
O69 C63 1.208 . S
O70 Cd71 2.223 . S
O70 C78 1.315 . S
Cd71 O70 2.223 . S
Cd71 O74 2.297 . S
Cd71 O75 2.439 . S
Cd71 O81 2.240 . S
Cd72 O73 2.240 . S
Cd72 O80 2.223 . S
Cd72 O82 2.297 . S
Cd72 O83 2.439 . S
O73 Cd72 2.240 . S
O73 C78 1.279 . S
O74 Cd71 2.297 . S
O74 C76 1.247 . S
O75 Cd71 2.439 . S
O75 C76 1.208 . S
C76 O74 1.247 . S
C76 O75 1.208 . S
C77 O82 1.247 . S
C77 O83 1.208 . S
C78 O70 1.315 . S
C78 O73 1.279 . S
C79 O80 1.315 . S
C79 O81 1.279 . S
O80 Cd72 2.223 . S
O80 C79 1.315 . S
O81 Cd71 2.240 . S
O81 C79 1.279 . S
O82 Cd72 2.297 . S
O82 C77 1.247 . S
O83 Cd72 2.439 . S
O83 C77 1.208 . S
O84 Cd85 2.223 . S
O84 C92 1.315 . S
Cd85 O84 2.223 . S
Cd85 O88 2.297 . S
Cd85 O89 2.439 . S
Cd85 O95 2.240 . S
Cd86 O87 2.240 . S
Cd86 O94 2.223 . S
Cd86 O96 2.297 . S
Cd86 O97 2.439 . S
O87 Cd86 2.240 . S
O87 C92 1.279 . S
O88 Cd85 2.297 . S
O88 C90 1.247 . S
O89 Cd85 2.439 . S
O89 C90 1.208 . S
C90 O88 1.247 . S
C90 O89 1.208 . S
C91 O96 1.247 . S
C91 O97 1.208 . S
C92 O84 1.315 . S
C92 O87 1.279 . S
C93 O94 1.315 . S
C93 O95 1.279 . S
O94 Cd86 2.223 . S
O94 C93 1.315 . S
O95 Cd85 2.240 . S
O95 C93 1.279 . S
O96 Cd86 2.297 . S
O96 C91 1.247 . S
O97 Cd86 2.439 . S
O97 C91 1.208 . S
O98 Cd99 2.223 . S
O98 C106 1.315 . S
Cd99 O98 2.223 . S
Cd99 O102 2.297 . S
Cd99 O103 2.439 . S
Cd99 O109 2.240 . S
Cd100 O101 2.240 . S
Cd100 O108 2.223 . S
Cd100 O110 2.297 . S
Cd100 O111 2.439 . S
O101 Cd100 2.240 . S
O101 C106 1.279 . S
O102 Cd99 2.297 . S
O102 C104 1.247 . S
O103 Cd99 2.439 . S
O103 C104 1.208 . S
C104 O102 1.247 . S
C104 O103 1.208 . S
C105 O110 1.247 . S
C105 O111 1.208 . S
C106 O98 1.315 . S
C106 O101 1.279 . S
C107 O108 1.315 . S
C107 O109 1.279 . S
O108 Cd100 2.223 . S
O108 C107 1.315 . S
O109 Cd99 2.240 . S
O109 C107 1.279 . S
O110 Cd100 2.297 . S
O110 C105 1.247 . S
O111 Cd100 2.439 . S
O111 C105 1.208 . S
O112 Cd113 2.223 . S
O112 C120 1.315 . S
Cd113 O112 2.223 . S
Cd113 O116 2.297 . S
Cd113 O117 2.439 . S
Cd113 O123 2.240 . S
Cd114 O115 2.240 . S
Cd114 O122 2.223 . S
Cd114 O124 2.297 . S
Cd114 O125 2.439 . S
O115 Cd114 2.240 . S
O115 C120 1.279 . S
O116 Cd113 2.297 . S
O116 C118 1.247 . S
O117 Cd113 2.439 . S
O117 C118 1.208 . S
C118 O116 1.247 . S
C118 O117 1.208 . S
C119 O124 1.247 . S
C119 O125 1.208 . S
C120 O112 1.315 . S
C120 O115 1.279 . S
C121 O122 1.315 . S
C121 O123 1.279 . S
O122 Cd114 2.223 . S
O122 C121 1.315 . S
O123 Cd113 2.240 . S
O123 C121 1.279 . S
O124 Cd114 2.297 . S
O124 C119 1.247 . S
O125 Cd114 2.439 . S
O125 C119 1.208 . S
O126 Cd127 2.223 . S
O126 C134 1.315 . S
Cd127 O126 2.223 . S
Cd127 O130 2.297 . S
Cd127 O131 2.439 . S
Cd127 O137 2.240 . S
Cd128 O129 2.240 . S
Cd128 O136 2.223 . S
Cd128 O138 2.297 . S
Cd128 O139 2.439 . S
O129 Cd128 2.240 . S
O129 C134 1.279 . S
O130 Cd127 2.297 . S
O130 C132 1.247 . S
O131 Cd127 2.439 . S
O131 C132 1.208 . S
C132 O130 1.247 . S
C132 O131 1.208 . S
C133 O138 1.247 . S
C133 O139 1.208 . S
C134 O126 1.315 . S
C134 O129 1.279 . S
C135 O136 1.315 . S
C135 O137 1.279 . S
O136 Cd128 2.223 . S
O136 C135 1.315 . S
O137 Cd127 2.240 . S
O137 C135 1.279 . S
O138 Cd128 2.297 . S
O138 C133 1.247 . S
O139 Cd128 2.439 . S
O139 C133 1.208 . S
O140 Cd141 2.223 . S
O140 C148 1.315 . S
Cd141 O140 2.223 . S
Cd141 O144 2.297 . S
Cd141 O145 2.439 . S
Cd141 O151 2.240 . S
Cd142 O143 2.240 . S
Cd142 O150 2.223 . S
Cd142 O152 2.297 . S
Cd142 O153 2.439 . S
O143 Cd142 2.240 . S
O143 C148 1.279 . S
O144 Cd141 2.297 . S
O144 C146 1.247 . S
O145 Cd141 2.439 . S
O145 C146 1.208 . S
C146 O144 1.247 . S
C146 O145 1.208 . S
C147 O152 1.247 . S
C147 O153 1.208 . S
C148 O140 1.315 . S
C148 O143 1.279 . S
C149 O150 1.315 . S
C149 O151 1.279 . S
O150 Cd142 2.223 . S
O150 C149 1.315 . S
O151 Cd141 2.240 . S
O151 C149 1.279 . S
O152 Cd142 2.297 . S
O152 C147 1.247 . S
O153 Cd142 2.439 . S
O153 C147 1.208 . S
O154 Cd155 2.223 . S
O154 C162 1.315 . S
Cd155 O154 2.223 . S
Cd155 O158 2.297 . S
Cd155 O159 2.439 . S
Cd155 O165 2.240 . S
Cd156 O157 2.240 . S
Cd156 O164 2.223 . S
Cd156 O166 2.297 . S
Cd156 O167 2.439 . S
O157 Cd156 2.240 . S
O157 C162 1.279 . S
O158 Cd155 2.297 . S
O158 C160 1.247 . S
O159 Cd155 2.439 . S
O159 C160 1.208 . S
C160 O158 1.247 . S
C160 O159 1.208 . S
C161 O166 1.247 . S
C161 O167 1.208 . S
C162 O154 1.315 . S
C162 O157 1.279 . S
C163 O164 1.315 . S
C163 O165 1.279 . S
O164 Cd156 2.223 . S
O164 C163 1.315 . S
O165 Cd155 2.240 . S
O165 C163 1.279 . S
O166 Cd156 2.297 . S
O166 C161 1.247 . S
O167 Cd156 2.439 . S
O167 C161 1.208 . S
O168 Cd169 2.223 . S
O168 C176 1.315 . S
Cd169 O168 2.223 . S
Cd169 O172 2.297 . S
Cd169 O173 2.439 . S
Cd169 O179 2.240 . S
Cd170 O171 2.240 . S
Cd170 O178 2.223 . S
Cd170 O180 2.297 . S
Cd170 O181 2.439 . S
O171 Cd170 2.240 . S
O171 C176 1.279 . S
O172 Cd169 2.297 . S
O172 C174 1.247 . S
O173 Cd169 2.439 . S
O173 C174 1.208 . S
C174 O172 1.247 . S
C174 O173 1.208 . S
C175 O180 1.247 . S
C175 O181 1.208 . S
C176 O168 1.315 . S
C176 O171 1.279 . S
C177 O178 1.315 . S
C177 O179 1.279 . S
O178 Cd170 2.223 . S
O178 C177 1.315 . S
O179 Cd169 2.240 . S
O179 C177 1.279 . S
O180 Cd170 2.297 . S
O180 C175 1.247 . S
O181 Cd170 2.439 . S
O181 C175 1.208 . S
O182 Cd183 2.223 . S
O182 C190 1.315 . S
Cd183 O182 2.223 . S
Cd183 O186 2.297 . S
Cd183 O187 2.439 . S
Cd183 O193 2.240 . S
Cd184 O185 2.240 . S
Cd184 O192 2.223 . S
Cd184 O194 2.297 . S
Cd184 O195 2.439 . S
O185 Cd184 2.240 . S
O185 C190 1.279 . S
O186 Cd183 2.297 . S
O186 C188 1.247 . S
O187 Cd183 2.439 . S
O187 C188 1.208 . S
C188 O186 1.247 . S
C188 O187 1.208 . S
C189 O194 1.247 . S
C189 O195 1.208 . S
C190 O182 1.315 . S
C190 O185 1.279 . S
C191 O192 1.315 . S
C191 O193 1.279 . S
O192 Cd184 2.223 . S
O192 C191 1.315 . S
O193 Cd183 2.240 . S
O193 C191 1.279 . S
O194 Cd184 2.297 . S
O194 C189 1.247 . S
O195 Cd184 2.439 . S
O195 C189 1.208 . S
O196 Cd197 2.223 . S
O196 C204 1.315 . S
Cd197 O196 2.223 . S
Cd197 O200 2.297 . S
Cd197 O201 2.439 . S
Cd197 O207 2.240 . S
Cd198 O199 2.240 . S
Cd198 O206 2.223 . S
Cd198 O208 2.297 . S
Cd198 O209 2.439 . S
O199 Cd198 2.240 . S
O199 C204 1.279 . S
O200 Cd197 2.297 . S
O200 C202 1.247 . S
O201 Cd197 2.439 . S
O201 C202 1.208 . S
C202 O200 1.247 . S
C202 O201 1.208 . S
C203 O208 1.247 . S
C203 O209 1.208 . S
C204 O196 1.315 . S
C204 O199 1.279 . S
C205 O206 1.315 . S
C205 O207 1.279 . S
O206 Cd198 2.223 . S
O206 C205 1.315 . S
O207 Cd197 2.240 . S
O207 C205 1.279 . S
O208 Cd198 2.297 . S
O208 C203 1.247 . S
O209 Cd198 2.439 . S
O209 C203 1.208 . S
O210 Cd211 2.223 . S
O210 C218 1.315 . S
Cd211 O210 2.223 . S
Cd211 O214 2.297 . S
Cd211 O215 2.439 . S
Cd211 O221 2.240 . S
Cd212 O213 2.240 . S
Cd212 O220 2.223 . S
Cd212 O222 2.297 . S
Cd212 O223 2.439 . S
O213 Cd212 2.240 . S
O213 C218 1.279 . S
O214 Cd211 2.297 . S
O214 C216 1.247 . S
O215 Cd211 2.439 . S
O215 C216 1.208 . S
C216 O214 1.247 . S
C216 O215 1.208 . S
C217 O222 1.247 . S
C217 O223 1.208 . S
C218 O210 1.315 . S
C218 O213 1.279 . S
C219 O220 1.315 . S
C219 O221 1.279 . S
O220 Cd212 2.223 . S
O220 C219 1.315 . S
O221 Cd211 2.240 . S
O221 C219 1.279 . S
O222 Cd212 2.297 . S
O222 C217 1.247 . S
O223 Cd212 2.439 . S
O223 C217 1.208 . S
O224 Cd225 2.223 . S
O224 C232 1.315 . S
Cd225 O224 2.223 . S
Cd225 O228 2.297 . S
Cd225 O229 2.439 . S
Cd225 O235 2.240 . S
Cd226 O227 2.240 . S
Cd226 O234 2.223 . S
Cd226 O236 2.297 . S
Cd226 O237 2.439 . S
O227 Cd226 2.240 . S
O227 C232 1.279 . S
O228 Cd225 2.297 . S
O228 C230 1.247 . S
O229 Cd225 2.439 . S
O229 C230 1.208 . S
C230 O228 1.247 . S
C230 O229 1.208 . S
C231 O236 1.247 . S
C231 O237 1.208 . S
C232 O224 1.315 . S
C232 O227 1.279 . S
C233 O234 1.315 . S
C233 O235 1.279 . S
O234 Cd226 2.223 . S
O234 C233 1.315 . S
O235 Cd225 2.240 . S
O235 C233 1.279 . S
O236 Cd226 2.297 . S
O236 C231 1.247 . S
O237 Cd226 2.439 . S
O237 C231 1.208 . S
O238 Cd239 2.223 . S
O238 C246 1.315 . S
Cd239 O238 2.223 . S
Cd239 O242 2.297 . S
Cd239 O243 2.439 . S
Cd239 O249 2.240 . S
Cd240 O241 2.240 . S
Cd240 O248 2.223 . S
Cd240 O250 2.297 . S
Cd240 O251 2.439 . S
O241 Cd240 2.240 . S
O241 C246 1.279 . S
O242 Cd239 2.297 . S
O242 C244 1.247 . S
O243 Cd239 2.439 . S
O243 C244 1.208 . S
C244 O242 1.247 . S
C244 O243 1.208 . S
C245 O250 1.247 . S
C245 O251 1.208 . S
C246 O238 1.315 . S
C246 O241 1.279 . S
C247 O248 1.315 . S
C247 O249 1.279 . S
O248 Cd240 2.223 . S
O248 C247 1.315 . S
O249 Cd239 2.240 . S
O249 C247 1.279 . S
O250 Cd240 2.297 . S
O250 C245 1.247 . S
O251 Cd240 2.439 . S
O251 C245 1.208 . S
O252 Cd253 2.223 . S
O252 C260 1.315 . S
Cd253 O252 2.223 . S
Cd253 O256 2.297 . S
Cd253 O257 2.439 . S
Cd253 O263 2.240 . S
Cd254 O255 2.240 . S
Cd254 O262 2.223 . S
Cd254 O264 2.297 . S
Cd254 O265 2.439 . S
O255 Cd254 2.240 . S
O255 C260 1.279 . S
O256 Cd253 2.297 . S
O256 C258 1.247 . S
O257 Cd253 2.439 . S
O257 C258 1.208 . S
C258 O256 1.247 . S
C258 O257 1.208 . S
C259 O264 1.247 . S
C259 O265 1.208 . S
C260 O252 1.315 . S
C260 O255 1.279 . S
C261 O262 1.315 . S
C261 O263 1.279 . S
O262 Cd254 2.223 . S
O262 C261 1.315 . S
O263 Cd253 2.240 . S
O263 C261 1.279 . S
O264 Cd254 2.297 . S
O264 C259 1.247 . S
O265 Cd254 2.439 . S
O265 C259 1.208 . S
O266 Cd267 2.223 . S
O266 C274 1.315 . S
Cd267 O266 2.223 . S
Cd267 O270 2.297 . S
Cd267 O271 2.439 . S
Cd267 O277 2.240 . S
Cd268 O269 2.240 . S
Cd268 O276 2.223 . S
Cd268 O278 2.297 . S
Cd268 O279 2.439 . S
O269 Cd268 2.240 . S
O269 C274 1.279 . S
O270 Cd267 2.297 . S
O270 C272 1.247 . S
O271 Cd267 2.439 . S
O271 C272 1.208 . S
C272 O270 1.247 . S
C272 O271 1.208 . S
C273 O278 1.247 . S
C273 O279 1.208 . S
C274 O266 1.315 . S
C274 O269 1.279 . S
C275 O276 1.315 . S
C275 O277 1.279 . S
O276 Cd268 2.223 . S
O276 C275 1.315 . S
O277 Cd267 2.240 . S
O277 C275 1.279 . S
O278 Cd268 2.297 . S
O278 C273 1.247 . S
O279 Cd268 2.439 . S
O279 C273 1.208 . S
O280 Cd281 2.223 . S
O280 C288 1.315 . S
Cd281 O280 2.223 . S
Cd281 O284 2.297 . S
Cd281 O285 2.439 . S
Cd281 O291 2.240 . S
Cd282 O283 2.240 . S
Cd282 O290 2.223 . S
Cd282 O292 2.297 . S
Cd282 O293 2.439 . S
O283 Cd282 2.240 . S
O283 C288 1.279 . S
O284 Cd281 2.297 . S
O284 C286 1.247 . S
O285 Cd281 2.439 . S
O285 C286 1.208 . S
C286 O284 1.247 . S
C286 O285 1.208 . S
C287 O292 1.247 . S
C287 O293 1.208 . S
C288 O280 1.315 . S
C288 O283 1.279 . S
C289 O290 1.315 . S
C289 O291 1.279 . S
O290 Cd282 2.223 . S
O290 C289 1.315 . S
O291 Cd281 2.240 . S
O291 C289 1.279 . S
O292 Cd282 2.297 . S
O292 C287 1.247 . S
O293 Cd282 2.439 . S
O293 C287 1.208 . S
O294 Cd295 2.223 . S
O294 C302 1.315 . S
Cd295 O294 2.223 . S
Cd295 O298 2.297 . S
Cd295 O299 2.439 . S
Cd295 O305 2.240 . S
Cd296 O297 2.240 . S
Cd296 O304 2.223 . S
Cd296 O306 2.297 . S
Cd296 O307 2.439 . S
O297 Cd296 2.240 . S
O297 C302 1.279 . S
O298 Cd295 2.297 . S
O298 C300 1.247 . S
O299 Cd295 2.439 . S
O299 C300 1.208 . S
C300 O298 1.247 . S
C300 O299 1.208 . S
C301 O306 1.247 . S
C301 O307 1.208 . S
C302 O294 1.315 . S
C302 O297 1.279 . S
C303 O304 1.315 . S
C303 O305 1.279 . S
O304 Cd296 2.223 . S
O304 C303 1.315 . S
O305 Cd295 2.240 . S
O305 C303 1.279 . S
O306 Cd296 2.297 . S
O306 C301 1.247 . S
O307 Cd296 2.439 . S
O307 C301 1.208 . S
O308 Cd309 2.223 . S
O308 C316 1.315 . S
Cd309 O308 2.223 . S
Cd309 O312 2.297 . S
Cd309 O313 2.439 . S
Cd309 O319 2.240 . S
Cd310 O311 2.240 . S
Cd310 O318 2.223 . S
Cd310 O320 2.297 . S
Cd310 O321 2.439 . S
O311 Cd310 2.240 . S
O311 C316 1.279 . S
O312 Cd309 2.297 . S
O312 C314 1.247 . S
O313 Cd309 2.439 . S
O313 C314 1.208 . S
C314 O312 1.247 . S
C314 O313 1.208 . S
C315 O320 1.247 . S
C315 O321 1.208 . S
C316 O308 1.315 . S
C316 O311 1.279 . S
C317 O318 1.315 . S
C317 O319 1.279 . S
O318 Cd310 2.223 . S
O318 C317 1.315 . S
O319 Cd309 2.240 . S
O319 C317 1.279 . S
O320 Cd310 2.297 . S
O320 C315 1.247 . S
O321 Cd310 2.439 . S
O321 C315 1.208 . S
O322 Cd323 2.223 . S
O322 C330 1.315 . S
Cd323 O322 2.223 . S
Cd323 O326 2.297 . S
Cd323 O327 2.439 . S
Cd323 O333 2.240 . S
Cd324 O325 2.240 . S
Cd324 O332 2.223 . S
Cd324 O334 2.297 . S
Cd324 O335 2.439 . S
O325 Cd324 2.240 . S
O325 C330 1.279 . S
O326 Cd323 2.297 . S
O326 C328 1.247 . S
O327 Cd323 2.439 . S
O327 C328 1.208 . S
C328 O326 1.247 . S
C328 O327 1.208 . S
C329 O334 1.247 . S
C329 O335 1.208 . S
C330 O322 1.315 . S
C330 O325 1.279 . S
C331 O332 1.315 . S
C331 O333 1.279 . S
O332 Cd324 2.223 . S
O332 C331 1.315 . S
O333 Cd323 2.240 . S
O333 C331 1.279 . S
O334 Cd324 2.297 . S
O334 C329 1.247 . S
O335 Cd324 2.439 . S
O335 C329 1.208 . S
O336 Cd337 2.223 . S
O336 C344 1.315 . S
Cd337 O336 2.223 . S
Cd337 O340 2.297 . S
Cd337 O341 2.439 . S
Cd337 O347 2.240 . S
Cd338 O339 2.240 . S
Cd338 O346 2.223 . S
Cd338 O348 2.297 . S
Cd338 O349 2.439 . S
O339 Cd338 2.240 . S
O339 C344 1.279 . S
O340 Cd337 2.297 . S
O340 C342 1.247 . S
O341 Cd337 2.439 . S
O341 C342 1.208 . S
C342 O340 1.247 . S
C342 O341 1.208 . S
C343 O348 1.247 . S
C343 O349 1.208 . S
C344 O336 1.315 . S
C344 O339 1.279 . S
C345 O346 1.315 . S
C345 O347 1.279 . S
O346 Cd338 2.223 . S
O346 C345 1.315 . S
O347 Cd337 2.240 . S
O347 C345 1.279 . S
O348 Cd338 2.297 . S
O348 C343 1.247 . S
O349 Cd338 2.439 . S
O349 C343 1.208 . S
O350 Cd351 2.223 . S
O350 C358 1.315 . S
Cd351 O350 2.223 . S
Cd351 O354 2.297 . S
Cd351 O355 2.439 . S
Cd351 O361 2.240 . S
Cd352 O353 2.240 . S
Cd352 O360 2.223 . S
Cd352 O362 2.297 . S
Cd352 O363 2.439 . S
O353 Cd352 2.240 . S
O353 C358 1.279 . S
O354 Cd351 2.297 . S
O354 C356 1.247 . S
O355 Cd351 2.439 . S
O355 C356 1.208 . S
C356 O354 1.247 . S
C356 O355 1.208 . S
C357 O362 1.247 . S
C357 O363 1.208 . S
C358 O350 1.315 . S
C358 O353 1.279 . S
C359 O360 1.315 . S
C359 O361 1.279 . S
O360 Cd352 2.223 . S
O360 C359 1.315 . S
O361 Cd351 2.240 . S
O361 C359 1.279 . S
O362 Cd352 2.297 . S
O362 C357 1.247 . S
O363 Cd352 2.439 . S
O363 C357 1.208 . S
O364 Cd365 2.223 . S
O364 C372 1.315 . S
Cd365 O364 2.223 . S
Cd365 O368 2.297 . S
Cd365 O369 2.439 . S
Cd365 O375 2.240 . S
Cd366 O367 2.240 . S
Cd366 O374 2.223 . S
Cd366 O376 2.297 . S
Cd366 O377 2.439 . S
O367 Cd366 2.240 . S
O367 C372 1.279 . S
O368 Cd365 2.297 . S
O368 C370 1.247 . S
O369 Cd365 2.439 . S
O369 C370 1.208 . S
C370 O368 1.247 . S
C370 O369 1.208 . S
C371 O376 1.247 . S
C371 O377 1.208 . S
C372 O364 1.315 . S
C372 O367 1.279 . S
C373 O374 1.315 . S
C373 O375 1.279 . S
O374 Cd366 2.223 . S
O374 C373 1.315 . S
O375 Cd365 2.240 . S
O375 C373 1.279 . S
O376 Cd366 2.297 . S
O376 C371 1.247 . S
O377 Cd366 2.439 . S
O377 C371 1.208 . S
O378 Cd379 2.223 . S
O378 C386 1.315 . S
Cd379 O378 2.223 . S
Cd379 O382 2.297 . S
Cd379 O383 2.439 . S
Cd379 O389 2.240 . S
Cd380 O381 2.240 . S
Cd380 O388 2.223 . S
Cd380 O390 2.297 . S
Cd380 O391 2.439 . S
O381 Cd380 2.240 . S
O381 C386 1.279 . S
O382 Cd379 2.297 . S
O382 C384 1.247 . S
O383 Cd379 2.439 . S
O383 C384 1.208 . S
C384 O382 1.247 . S
C384 O383 1.208 . S
C385 O390 1.247 . S
C385 O391 1.208 . S
C386 O378 1.315 . S
C386 O381 1.279 . S
C387 O388 1.315 . S
C387 O389 1.279 . S
O388 Cd380 2.223 . S
O388 C387 1.315 . S
O389 Cd379 2.240 . S
O389 C387 1.279 . S
O390 Cd380 2.297 . S
O390 C385 1.247 . S
O391 Cd380 2.439 . S
O391 C385 1.208 . S
O392 Cd393 2.223 . S
O392 C400 1.315 . S
Cd393 O392 2.223 . S
Cd393 O396 2.297 . S
Cd393 O397 2.439 . S
Cd393 O403 2.240 . S
Cd394 O395 2.240 . S
Cd394 O402 2.223 . S
Cd394 O404 2.297 . S
Cd394 O405 2.439 . S
O395 Cd394 2.240 . S
O395 C400 1.279 . S
O396 Cd393 2.297 . S
O396 C398 1.247 . S
O397 Cd393 2.439 . S
O397 C398 1.208 . S
C398 O396 1.247 . S
C398 O397 1.208 . S
C399 O404 1.247 . S
C399 O405 1.208 . S
C400 O392 1.315 . S
C400 O395 1.279 . S
C401 O402 1.315 . S
C401 O403 1.279 . S
O402 Cd394 2.223 . S
O402 C401 1.315 . S
O403 Cd393 2.240 . S
O403 C401 1.279 . S
O404 Cd394 2.297 . S
O404 C399 1.247 . S
O405 Cd394 2.439 . S
O405 C399 1.208 . S
O406 Cd407 2.223 . S
O406 C414 1.315 . S
Cd407 O406 2.223 . S
Cd407 O410 2.297 . S
Cd407 O411 2.439 . S
Cd407 O417 2.240 . S
Cd408 O409 2.240 . S
Cd408 O416 2.223 . S
Cd408 O418 2.297 . S
Cd408 O419 2.439 . S
O409 Cd408 2.240 . S
O409 C414 1.279 . S
O410 Cd407 2.297 . S
O410 C412 1.247 . S
O411 Cd407 2.439 . S
O411 C412 1.208 . S
C412 O410 1.247 . S
C412 O411 1.208 . S
C413 O418 1.247 . S
C413 O419 1.208 . S
C414 O406 1.315 . S
C414 O409 1.279 . S
C415 O416 1.315 . S
C415 O417 1.279 . S
O416 Cd408 2.223 . S
O416 C415 1.315 . S
O417 Cd407 2.240 . S
O417 C415 1.279 . S
O418 Cd408 2.297 . S
O418 C413 1.247 . S
O419 Cd408 2.439 . S
O419 C413 1.208 . S
O420 Cd421 2.223 . S
O420 C428 1.315 . S
Cd421 O420 2.223 . S
Cd421 O424 2.297 . S
Cd421 O425 2.439 . S
Cd421 O431 2.240 . S
Cd422 O423 2.240 . S
Cd422 O430 2.223 . S
Cd422 O432 2.297 . S
Cd422 O433 2.439 . S
O423 Cd422 2.240 . S
O423 C428 1.279 . S
O424 Cd421 2.297 . S
O424 C426 1.247 . S
O425 Cd421 2.439 . S
O425 C426 1.208 . S
C426 O424 1.247 . S
C426 O425 1.208 . S
C427 O432 1.247 . S
C427 O433 1.208 . S
C428 O420 1.315 . S
C428 O423 1.279 . S
C429 O430 1.315 . S
C429 O431 1.279 . S
O430 Cd422 2.223 . S
O430 C429 1.315 . S
O431 Cd421 2.240 . S
O431 C429 1.279 . S
O432 Cd422 2.297 . S
O432 C427 1.247 . S
O433 Cd422 2.439 . S
O433 C427 1.208 . S
O434 Cd435 2.223 . S
O434 C442 1.315 . S
Cd435 O434 2.223 . S
Cd435 O438 2.297 . S
Cd435 O439 2.439 . S
Cd435 O445 2.240 . S
Cd436 O437 2.240 . S
Cd436 O444 2.223 . S
Cd436 O446 2.297 . S
Cd436 O447 2.439 . S
O437 Cd436 2.240 . S
O437 C442 1.279 . S
O438 Cd435 2.297 . S
O438 C440 1.247 . S
O439 Cd435 2.439 . S
O439 C440 1.208 . S
C440 O438 1.247 . S
C440 O439 1.208 . S
C441 O446 1.247 . S
C441 O447 1.208 . S
C442 O434 1.315 . S
C442 O437 1.279 . S
C443 O444 1.315 . S
C443 O445 1.279 . S
O444 Cd436 2.223 . S
O444 C443 1.315 . S
O445 Cd435 2.240 . S
O445 C443 1.279 . S
O446 Cd436 2.297 . S
O446 C441 1.247 . S
O447 Cd436 2.439 . S
O447 C441 1.208 . S
O448 Cd449 2.223 . S
O448 C456 1.315 . S
Cd449 O448 2.223 . S
Cd449 O452 2.297 . S
Cd449 O453 2.439 . S
Cd449 O459 2.240 . S
Cd450 O451 2.240 . S
Cd450 O458 2.223 . S
Cd450 O460 2.297 . S
Cd450 O461 2.439 . S
O451 Cd450 2.240 . S
O451 C456 1.279 . S
O452 Cd449 2.297 . S
O452 C454 1.247 . S
O453 Cd449 2.439 . S
O453 C454 1.208 . S
C454 O452 1.247 . S
C454 O453 1.208 . S
C455 O460 1.247 . S
C455 O461 1.208 . S
C456 O448 1.315 . S
C456 O451 1.279 . S
C457 O458 1.315 . S
C457 O459 1.279 . S
O458 Cd450 2.223 . S
O458 C457 1.315 . S
O459 Cd449 2.240 . S
O459 C457 1.279 . S
O460 Cd450 2.297 . S
O460 C455 1.247 . S
O461 Cd450 2.439 . S
O461 C455 1.208 . S
O462 Cd463 2.223 . S
O462 C470 1.315 . S
Cd463 O462 2.223 . S
Cd463 O466 2.297 . S
Cd463 O467 2.439 . S
Cd463 O473 2.240 . S
Cd464 O465 2.240 . S
Cd464 O472 2.223 . S
Cd464 O474 2.297 . S
Cd464 O475 2.439 . S
O465 Cd464 2.240 . S
O465 C470 1.279 . S
O466 Cd463 2.297 . S
O466 C468 1.247 . S
O467 Cd463 2.439 . S
O467 C468 1.208 . S
C468 O466 1.247 . S
C468 O467 1.208 . S
C469 O474 1.247 . S
C469 O475 1.208 . S
C470 O462 1.315 . S
C470 O465 1.279 . S
C471 O472 1.315 . S
C471 O473 1.279 . S
O472 Cd464 2.223 . S
O472 C471 1.315 . S
O473 Cd463 2.240 . S
O473 C471 1.279 . S
O474 Cd464 2.297 . S
O474 C469 1.247 . S
O475 Cd464 2.439 . S
O475 C469 1.208 . S
O476 Cd477 2.223 . S
O476 C484 1.315 . S
Cd477 O476 2.223 . S
Cd477 O480 2.297 . S
Cd477 O481 2.439 . S
Cd477 O487 2.240 . S
Cd478 O479 2.240 . S
Cd478 O486 2.223 . S
Cd478 O488 2.297 . S
Cd478 O489 2.439 . S
O479 Cd478 2.240 . S
O479 C484 1.279 . S
O480 Cd477 2.297 . S
O480 C482 1.247 . S
O481 Cd477 2.439 . S
O481 C482 1.208 . S
C482 O480 1.247 . S
C482 O481 1.208 . S
C483 O488 1.247 . S
C483 O489 1.208 . S
C484 O476 1.315 . S
C484 O479 1.279 . S
C485 O486 1.315 . S
C485 O487 1.279 . S
O486 Cd478 2.223 . S
O486 C485 1.315 . S
O487 Cd477 2.240 . S
O487 C485 1.279 . S
O488 Cd478 2.297 . S
O488 C483 1.247 . S
O489 Cd478 2.439 . S
O489 C483 1.208 . S
O490 Cd491 2.223 . S
O490 C498 1.315 . S
Cd491 O490 2.223 . S
Cd491 O494 2.297 . S
Cd491 O495 2.439 . S
Cd491 O501 2.240 . S
Cd492 O493 2.240 . S
Cd492 O500 2.223 . S
Cd492 O502 2.297 . S
Cd492 O503 2.439 . S
O493 Cd492 2.240 . S
O493 C498 1.279 . S
O494 Cd491 2.297 . S
O494 C496 1.247 . S
O495 Cd491 2.439 . S
O495 C496 1.208 . S
C496 O494 1.247 . S
C496 O495 1.208 . S
C497 O502 1.247 . S
C497 O503 1.208 . S
C498 O490 1.315 . S
C498 O493 1.279 . S
C499 O500 1.315 . S
C499 O501 1.279 . S
O500 Cd492 2.223 . S
O500 C499 1.315 . S
O501 Cd491 2.240 . S
O501 C499 1.279 . S
O502 Cd492 2.297 . S
O502 C497 1.247 . S
O503 Cd492 2.439 . S
O503 C497 1.208 . S
O504 Cd505 2.223 . S
O504 C512 1.315 . S
Cd505 O504 2.223 . S
Cd505 O508 2.297 . S
Cd505 O509 2.439 . S
Cd505 O515 2.240 . S
Cd506 O507 2.240 . S
Cd506 O514 2.223 . S
Cd506 O516 2.297 . S
Cd506 O517 2.439 . S
O507 Cd506 2.240 . S
O507 C512 1.279 . S
O508 Cd505 2.297 . S
O508 C510 1.247 . S
O509 Cd505 2.439 . S
O509 C510 1.208 . S
C510 O508 1.247 . S
C510 O509 1.208 . S
C511 O516 1.247 . S
C511 O517 1.208 . S
C512 O504 1.315 . S
C512 O507 1.279 . S
C513 O514 1.315 . S
C513 O515 1.279 . S
O514 Cd506 2.223 . S
O514 C513 1.315 . S
O515 Cd505 2.240 . S
O515 C513 1.279 . S
O516 Cd506 2.297 . S
O516 C511 1.247 . S
O517 Cd506 2.439 . S
O517 C511 1.208 . S
O518 Cd519 2.223 . S
O518 C526 1.315 . S
Cd519 O518 2.223 . S
Cd519 O522 2.297 . S
Cd519 O523 2.439 . S
Cd519 O529 2.240 . S
Cd520 O521 2.240 . S
Cd520 O528 2.223 . S
Cd520 O530 2.297 . S
Cd520 O531 2.439 . S
O521 Cd520 2.240 . S
O521 C526 1.279 . S
O522 Cd519 2.297 . S
O522 C524 1.247 . S
O523 Cd519 2.439 . S
O523 C524 1.208 . S
C524 O522 1.247 . S
C524 O523 1.208 . S
C525 O530 1.247 . S
C525 O531 1.208 . S
C526 O518 1.315 . S
C526 O521 1.279 . S
C527 O528 1.315 . S
C527 O529 1.279 . S
O528 Cd520 2.223 . S
O528 C527 1.315 . S
O529 Cd519 2.240 . S
O529 C527 1.279 . S
O530 Cd520 2.297 . S
O530 C525 1.247 . S
O531 Cd520 2.439 . S
O531 C525 1.208 . S
O532 Cd533 2.223 . S
O532 C540 1.315 . S
Cd533 O532 2.223 . S
Cd533 O536 2.297 . S
Cd533 O537 2.439 . S
Cd533 O543 2.240 . S
Cd534 O535 2.240 . S
Cd534 O542 2.223 . S
Cd534 O544 2.297 . S
Cd534 O545 2.439 . S
O535 Cd534 2.240 . S
O535 C540 1.279 . S
O536 Cd533 2.297 . S
O536 C538 1.247 . S
O537 Cd533 2.439 . S
O537 C538 1.208 . S
C538 O536 1.247 . S
C538 O537 1.208 . S
C539 O544 1.247 . S
C539 O545 1.208 . S
C540 O532 1.315 . S
C540 O535 1.279 . S
C541 O542 1.315 . S
C541 O543 1.279 . S
O542 Cd534 2.223 . S
O542 C541 1.315 . S
O543 Cd533 2.240 . S
O543 C541 1.279 . S
O544 Cd534 2.297 . S
O544 C539 1.247 . S
O545 Cd534 2.439 . S
O545 C539 1.208 . S
O546 Cd547 2.223 . S
O546 C554 1.315 . S
Cd547 O546 2.223 . S
Cd547 O550 2.297 . S
Cd547 O551 2.439 . S
Cd547 O557 2.240 . S
Cd548 O549 2.240 . S
Cd548 O556 2.223 . S
Cd548 O558 2.297 . S
Cd548 O559 2.439 . S
O549 Cd548 2.240 . S
O549 C554 1.279 . S
O550 Cd547 2.297 . S
O550 C552 1.247 . S
O551 Cd547 2.439 . S
O551 C552 1.208 . S
C552 O550 1.247 . S
C552 O551 1.208 . S
C553 O558 1.247 . S
C553 O559 1.208 . S
C554 O546 1.315 . S
C554 O549 1.279 . S
C555 O556 1.315 . S
C555 O557 1.279 . S
O556 Cd548 2.223 . S
O556 C555 1.315 . S
O557 Cd547 2.240 . S
O557 C555 1.279 . S
O558 Cd548 2.297 . S
O558 C553 1.247 . S
O559 Cd548 2.439 . S
O559 C553 1.208 . S
O560 Cd561 2.223 . S
O560 C568 1.315 . S
Cd561 O560 2.223 . S
Cd561 O564 2.297 . S
Cd561 O565 2.439 . S
Cd561 O571 2.240 . S
Cd562 O563 2.240 . S
Cd562 O570 2.223 . S
Cd562 O572 2.297 . S
Cd562 O573 2.439 . S
O563 Cd562 2.240 . S
O563 C568 1.279 . S
O564 Cd561 2.297 . S
O564 C566 1.247 . S
O565 Cd561 2.439 . S
O565 C566 1.208 . S
C566 O564 1.247 . S
C566 O565 1.208 . S
C567 O572 1.247 . S
C567 O573 1.208 . S
C568 O560 1.315 . S
C568 O563 1.279 . S
C569 O570 1.315 . S
C569 O571 1.279 . S
O570 Cd562 2.223 . S
O570 C569 1.315 . S
O571 Cd561 2.240 . S
O571 C569 1.279 . S
O572 Cd562 2.297 . S
O572 C567 1.247 . S
O573 Cd562 2.439 . S
O573 C567 1.208 . S
O574 Cd575 2.223 . S
O574 C582 1.315 . S
Cd575 O574 2.223 . S
Cd575 O578 2.297 . S
Cd575 O579 2.439 . S
Cd575 O585 2.240 . S
Cd576 O577 2.240 . S
Cd576 O584 2.223 . S
Cd576 O586 2.297 . S
Cd576 O587 2.439 . S
O577 Cd576 2.240 . S
O577 C582 1.279 . S
O578 Cd575 2.297 . S
O578 C580 1.247 . S
O579 Cd575 2.439 . S
O579 C580 1.208 . S
C580 O578 1.247 . S
C580 O579 1.208 . S
C581 O586 1.247 . S
C581 O587 1.208 . S
C582 O574 1.315 . S
C582 O577 1.279 . S
C583 O584 1.315 . S
C583 O585 1.279 . S
O584 Cd576 2.223 . S
O584 C583 1.315 . S
O585 Cd575 2.240 . S
O585 C583 1.279 . S
O586 Cd576 2.297 . S
O586 C581 1.247 . S
O587 Cd576 2.439 . S
O587 C581 1.208 . S
O588 Cd589 2.223 . S
O588 C596 1.315 . S
Cd589 O588 2.223 . S
Cd589 O592 2.297 . S
Cd589 O593 2.439 . S
Cd589 O599 2.240 . S
Cd590 O591 2.240 . S
Cd590 O598 2.223 . S
Cd590 O600 2.297 . S
Cd590 O601 2.439 . S
O591 Cd590 2.240 . S
O591 C596 1.279 . S
O592 Cd589 2.297 . S
O592 C594 1.247 . S
O593 Cd589 2.439 . S
O593 C594 1.208 . S
C594 O592 1.247 . S
C594 O593 1.208 . S
C595 O600 1.247 . S
C595 O601 1.208 . S
C596 O588 1.315 . S
C596 O591 1.279 . S
C597 O598 1.315 . S
C597 O599 1.279 . S
O598 Cd590 2.223 . S
O598 C597 1.315 . S
O599 Cd589 2.240 . S
O599 C597 1.279 . S
O600 Cd590 2.297 . S
O600 C595 1.247 . S
O601 Cd590 2.439 . S
O601 C595 1.208 . S
O602 Cd603 2.223 . S
O602 C610 1.315 . S
Cd603 O602 2.223 . S
Cd603 O606 2.297 . S
Cd603 O607 2.439 . S
Cd603 O613 2.240 . S
Cd604 O605 2.240 . S
Cd604 O612 2.223 . S
Cd604 O614 2.297 . S
Cd604 O615 2.439 . S
O605 Cd604 2.240 . S
O605 C610 1.279 . S
O606 Cd603 2.297 . S
O606 C608 1.247 . S
O607 Cd603 2.439 . S
O607 C608 1.208 . S
C608 O606 1.247 . S
C608 O607 1.208 . S
C609 O614 1.247 . S
C609 O615 1.208 . S
C610 O602 1.315 . S
C610 O605 1.279 . S
C611 O612 1.315 . S
C611 O613 1.279 . S
O612 Cd604 2.223 . S
O612 C611 1.315 . S
O613 Cd603 2.240 . S
O613 C611 1.279 . S
O614 Cd604 2.297 . S
O614 C609 1.247 . S
O615 Cd604 2.439 . S
O615 C609 1.208 . S
O616 Cd617 2.223 . S
O616 C624 1.315 . S
Cd617 O616 2.223 . S
Cd617 O620 2.297 . S
Cd617 O621 2.439 . S
Cd617 O627 2.240 . S
Cd618 O619 2.240 . S
Cd618 O626 2.223 . S
Cd618 O628 2.297 . S
Cd618 O629 2.439 . S
O619 Cd618 2.240 . S
O619 C624 1.279 . S
O620 Cd617 2.297 . S
O620 C622 1.247 . S
O621 Cd617 2.439 . S
O621 C622 1.208 . S
C622 O620 1.247 . S
C622 O621 1.208 . S
C623 O628 1.247 . S
C623 O629 1.208 . S
C624 O616 1.315 . S
C624 O619 1.279 . S
C625 O626 1.315 . S
C625 O627 1.279 . S
O626 Cd618 2.223 . S
O626 C625 1.315 . S
O627 Cd617 2.240 . S
O627 C625 1.279 . S
O628 Cd618 2.297 . S
O628 C623 1.247 . S
O629 Cd618 2.439 . S
O629 C623 1.208 . S
O630 Cd631 2.223 . S
O630 C638 1.315 . S
Cd631 O630 2.223 . S
Cd631 O634 2.297 . S
Cd631 O635 2.439 . S
Cd631 O641 2.240 . S
Cd632 O633 2.240 . S
Cd632 O640 2.223 . S
Cd632 O642 2.297 . S
Cd632 O643 2.439 . S
O633 Cd632 2.240 . S
O633 C638 1.279 . S
O634 Cd631 2.297 . S
O634 C636 1.247 . S
O635 Cd631 2.439 . S
O635 C636 1.208 . S
C636 O634 1.247 . S
C636 O635 1.208 . S
C637 O642 1.247 . S
C637 O643 1.208 . S
C638 O630 1.315 . S
C638 O633 1.279 . S
C639 O640 1.315 . S
C639 O641 1.279 . S
O640 Cd632 2.223 . S
O640 C639 1.315 . S
O641 Cd631 2.240 . S
O641 C639 1.279 . S
O642 Cd632 2.297 . S
O642 C637 1.247 . S
O643 Cd632 2.439 . S
O643 C637 1.208 . S
O644 Cd645 2.223 . S
O644 C652 1.315 . S
Cd645 O644 2.223 . S
Cd645 O648 2.297 . S
Cd645 O649 2.439 . S
Cd645 O655 2.240 . S
Cd646 O647 2.240 . S
Cd646 O654 2.223 . S
Cd646 O656 2.297 . S
Cd646 O657 2.439 . S
O647 Cd646 2.240 . S
O647 C652 1.279 . S
O648 Cd645 2.297 . S
O648 C650 1.247 . S
O649 Cd645 2.439 . S
O649 C650 1.208 . S
C650 O648 1.247 . S
C650 O649 1.208 . S
C651 O656 1.247 . S
C651 O657 1.208 . S
C652 O644 1.315 . S
C652 O647 1.279 . S
C653 O654 1.315 . S
C653 O655 1.279 . S
O654 Cd646 2.223 . S
O654 C653 1.315 . S
O655 Cd645 2.240 . S
O655 C653 1.279 . S
O656 Cd646 2.297 . S
O656 C651 1.247 . S
O657 Cd646 2.439 . S
O657 C651 1.208 . S
O658 Cd659 2.223 . S
O658 C666 1.315 . S
Cd659 O658 2.223 . S
Cd659 O662 2.297 . S
Cd659 O663 2.439 . S
Cd659 O669 2.240 . S
Cd660 O661 2.240 . S
Cd660 O668 2.223 . S
Cd660 O670 2.297 . S
Cd660 O671 2.439 . S
O661 Cd660 2.240 . S
O661 C666 1.279 . S
O662 Cd659 2.297 . S
O662 C664 1.247 . S
O663 Cd659 2.439 . S
O663 C664 1.208 . S
C664 O662 1.247 . S
C664 O663 1.208 . S
C665 O670 1.247 . S
C665 O671 1.208 . S
C666 O658 1.315 . S
C666 O661 1.279 . S
C667 O668 1.315 . S
C667 O669 1.279 . S
O668 Cd660 2.223 . S
O668 C667 1.315 . S
O669 Cd659 2.240 . S
O669 C667 1.279 . S
O670 Cd660 2.297 . S
O670 C665 1.247 . S
O671 Cd660 2.439 . S
O671 C665 1.208 . S
H672 C680 0.950 . S
H673 C685 0.950 . S
H674 C682 0.950 . S
H675 C684 0.950 . S
H676 C686 0.950 . S
H677 C688 0.950 . S
H678 C690 0.950 . S
H679 C691 0.950 . S
C680 H672 0.950 . S
C680 C681 1.386 . S
C680 C682 1.391 . S
C681 C680 1.386 . S
C681 C685 1.393 1_655 S
C682 H674 0.950 . S
C682 C680 1.391 . S
C682 C683 1.400 . S
C683 C682 1.400 . S
C683 C684 1.398 1_655 S
C683 C689 1.491 1_655 S
C684 H675 0.950 . S
C684 C683 1.398 1_455 S
C684 C685 1.391 . S
C685 H673 0.950 . S
C685 C681 1.393 1_455 S
C685 C684 1.391 . S
C686 H676 0.950 . S
C686 C687 1.386 . S
C686 C688 1.391 . S
C687 C686 1.386 . S
C687 C691 1.393 1_455 S
C688 H677 0.950 . S
C688 C686 1.391 . S
C688 C689 1.400 . S
C689 C683 1.491 1_455 S
C689 C688 1.400 . S
C689 C690 1.398 1_455 S
C690 H678 0.950 . S
C690 C689 1.398 1_655 S
C690 C691 1.391 . S
C691 H679 0.950 . S
C691 C687 1.393 1_655 S
C691 C690 1.391 . S
H692 C700 0.950 . S
H693 C705 0.950 . S
H694 C702 0.950 . S
H695 C704 0.950 . S
H696 C706 0.950 . S
H697 C708 0.950 . S
H698 C710 0.950 . S
H699 C711 0.950 . S
C700 H692 0.950 . S
C700 C701 1.386 . S
C700 C702 1.391 . S
C701 C700 1.386 . S
C701 C705 1.393 1_455 S
C702 H694 0.950 . S
C702 C700 1.391 . S
C702 C703 1.400 . S
C703 C702 1.400 . S
C703 C704 1.398 1_455 S
C703 C709 1.491 1_455 S
C704 H695 0.950 . S
C704 C703 1.398 1_655 S
C704 C705 1.391 . S
C705 H693 0.950 . S
C705 C701 1.393 1_655 S
C705 C704 1.391 . S
C706 H696 0.950 . S
C706 C707 1.386 . S
C706 C708 1.391 . S
C707 C706 1.386 . S
C707 C711 1.393 1_655 S
C708 H697 0.950 . S
C708 C706 1.391 . S
C708 C709 1.400 . S
C709 C703 1.491 1_655 S
C709 C708 1.400 . S
C709 C710 1.398 1_655 S
C710 H698 0.950 . S
C710 C709 1.398 1_455 S
C710 C711 1.391 . S
C711 H699 0.950 . S
C711 C707 1.393 1_455 S
C711 C710 1.391 . S
H712 C720 0.950 . S
H713 C725 0.950 . S
H714 C722 0.950 . S
H715 C724 0.950 . S
H716 C726 0.950 . S
H717 C728 0.950 . S
H718 C730 0.950 . S
H719 C731 0.950 . S
C720 H712 0.950 . S
C720 C721 1.386 . S
C720 C722 1.391 . S
C721 C720 1.386 . S
C721 C725 1.393 1_565 S
C722 H714 0.950 . S
C722 C720 1.391 . S
C722 C723 1.400 . S
C723 C722 1.400 . S
C723 C724 1.398 1_565 S
C723 C729 1.491 1_565 S
C724 H715 0.950 . S
C724 C723 1.398 1_545 S
C724 C725 1.391 . S
C725 H713 0.950 . S
C725 C721 1.393 1_545 S
C725 C724 1.391 . S
C726 H716 0.950 . S
C726 C727 1.386 . S
C726 C728 1.391 . S
C727 C726 1.386 . S
C727 C731 1.393 1_545 S
C728 H717 0.950 . S
C728 C726 1.391 . S
C728 C729 1.400 . S
C729 C723 1.491 1_545 S
C729 C728 1.400 . S
C729 C730 1.398 1_545 S
C730 H718 0.950 . S
C730 C729 1.398 1_565 S
C730 C731 1.391 . S
C731 H719 0.950 . S
C731 C727 1.393 1_565 S
C731 C730 1.391 . S
H732 C740 0.950 . S
H733 C745 0.950 . S
H734 C742 0.950 . S
H735 C744 0.950 . S
H736 C746 0.950 . S
H737 C748 0.950 . S
H738 C750 0.950 . S
H739 C751 0.950 . S
C740 H732 0.950 . S
C740 C741 1.386 . S
C740 C742 1.391 . S
C741 C740 1.386 . S
C741 C745 1.393 . S
C742 H734 0.950 . S
C742 C740 1.391 . S
C742 C743 1.400 . S
C743 C742 1.400 . S
C743 C744 1.398 . S
C743 C749 1.491 . S
C744 H735 0.950 . S
C744 C743 1.398 . S
C744 C745 1.391 . S
C745 H733 0.950 . S
C745 C741 1.393 . S
C745 C744 1.391 . S
C746 H736 0.950 . S
C746 C747 1.386 . S
C746 C748 1.391 . S
C747 C746 1.386 . S
C747 C751 1.393 . S
C748 H737 0.950 . S
C748 C746 1.391 . S
C748 C749 1.400 . S
C749 C743 1.491 . S
C749 C748 1.400 . S
C749 C750 1.398 . S
C750 H738 0.950 . S
C750 C749 1.398 . S
C750 C751 1.391 . S
C751 H739 0.950 . S
C751 C747 1.393 . S
C751 C750 1.391 . S
H752 C760 0.950 . S
H753 C765 0.950 . S
H754 C762 0.950 . S
H755 C764 0.950 . S
H756 C766 0.950 . S
H757 C768 0.950 . S
H758 C770 0.950 . S
H759 C771 0.950 . S
C760 H752 0.950 . S
C760 C761 1.386 1_556 S
C760 C762 1.391 . S
C761 C760 1.386 1_554 S
C761 C765 1.393 . S
C762 H754 0.950 . S
C762 C760 1.391 . S
C762 C763 1.400 1_556 S
C763 C762 1.400 1_554 S
C763 C764 1.398 . S
C763 C769 1.491 1_554 S
C764 H755 0.950 . S
C764 C763 1.398 . S
C764 C765 1.391 . S
C765 H753 0.950 . S
C765 C761 1.393 . S
C765 C764 1.391 . S
C766 H756 0.950 . S
C766 C767 1.386 1_554 S
C766 C768 1.391 . S
C767 C766 1.386 1_556 S
C767 C771 1.393 . S
C768 H757 0.950 . S
C768 C766 1.391 . S
C768 C769 1.400 1_554 S
C769 C763 1.491 1_556 S
C769 C768 1.400 1_556 S
C769 C770 1.398 . S
C770 H758 0.950 . S
C770 C769 1.398 . S
C770 C771 1.391 . S
C771 H759 0.950 . S
C771 C767 1.393 . S
C771 C770 1.391 . S
H772 C780 0.950 . S
H773 C785 0.950 . S
H774 C782 0.950 . S
H775 C784 0.950 . S
H776 C786 0.950 . S
H777 C788 0.950 . S
H778 C790 0.950 . S
H779 C791 0.950 . S
C780 H772 0.950 . S
C780 C781 1.386 . S
C780 C782 1.391 . S
C781 C780 1.386 . S
C781 C785 1.393 . S
C782 H774 0.950 . S
C782 C780 1.391 . S
C782 C783 1.400 . S
C783 C782 1.400 . S
C783 C784 1.398 . S
C783 C789 1.491 . S
C784 H775 0.950 . S
C784 C783 1.398 . S
C784 C785 1.391 . S
C785 H773 0.950 . S
C785 C781 1.393 . S
C785 C784 1.391 . S
C786 H776 0.950 . S
C786 C787 1.386 . S
C786 C788 1.391 . S
C787 C786 1.386 . S
C787 C791 1.393 . S
C788 H777 0.950 . S
C788 C786 1.391 . S
C788 C789 1.400 . S
C789 C783 1.491 . S
C789 C788 1.400 . S
C789 C790 1.398 . S
C790 H778 0.950 . S
C790 C789 1.398 . S
C790 C791 1.391 . S
C791 H779 0.950 . S
C791 C787 1.393 . S
C791 C790 1.391 . S
H792 C800 0.950 . S
H793 C805 0.950 . S
H794 C802 0.950 . S
H795 C804 0.950 . S
H796 C806 0.950 . S
H797 C808 0.950 . S
H798 C810 0.950 . S
H799 C811 0.950 . S
C800 H792 0.950 . S
C800 C801 1.386 . S
C800 C802 1.391 . S
C801 C800 1.386 . S
C801 C805 1.393 . S
C802 H794 0.950 . S
C802 C800 1.391 . S
C802 C803 1.400 . S
C803 C802 1.400 . S
C803 C804 1.398 . S
C803 C809 1.491 . S
C804 H795 0.950 . S
C804 C803 1.398 . S
C804 C805 1.391 . S
C805 H793 0.950 . S
C805 C801 1.393 . S
C805 C804 1.391 . S
C806 H796 0.950 . S
C806 C807 1.386 . S
C806 C808 1.391 . S
C807 C806 1.386 . S
C807 C811 1.393 . S
C808 H797 0.950 . S
C808 C806 1.391 . S
C808 C809 1.400 . S
C809 C803 1.491 . S
C809 C808 1.400 . S
C809 C810 1.398 . S
C810 H798 0.950 . S
C810 C809 1.398 . S
C810 C811 1.391 . S
C811 H799 0.950 . S
C811 C807 1.393 . S
C811 C810 1.391 . S
H812 C820 0.950 . S
H813 C825 0.950 . S
H814 C822 0.950 . S
H815 C824 0.950 . S
H816 C826 0.950 . S
H817 C828 0.950 . S
H818 C830 0.950 . S
H819 C831 0.950 . S
C820 H812 0.950 . S
C820 C821 1.386 1_655 S
C820 C822 1.391 . S
C821 C820 1.386 1_455 S
C821 C825 1.393 . S
C822 H814 0.950 . S
C822 C820 1.391 . S
C822 C823 1.400 1_655 S
C823 C822 1.400 1_455 S
C823 C824 1.398 . S
C823 C829 1.491 1_455 S
C824 H815 0.950 . S
C824 C823 1.398 . S
C824 C825 1.391 . S
C825 H813 0.950 . S
C825 C821 1.393 . S
C825 C824 1.391 . S
C826 H816 0.950 . S
C826 C827 1.386 1_455 S
C826 C828 1.391 . S
C827 C826 1.386 1_655 S
C827 C831 1.393 . S
C828 H817 0.950 . S
C828 C826 1.391 . S
C828 C829 1.400 1_455 S
C829 C823 1.491 1_655 S
C829 C828 1.400 1_655 S
C829 C830 1.398 . S
C830 H818 0.950 . S
C830 C829 1.398 . S
C830 C831 1.391 . S
C831 H819 0.950 . S
C831 C827 1.393 . S
C831 C830 1.391 . S
H832 C840 0.950 . S
H833 C845 0.953 . S
H834 C842 0.950 . S
H835 C844 0.950 . S
H836 C846 0.950 . S
H837 C848 0.950 . S
H838 C850 0.950 . S
H839 C851 0.953 . S
C840 H832 0.950 . S
C840 C841 1.386 . S
C840 C842 1.391 . S
C841 C840 1.386 . S
C841 C845 1.388 1_455 S
C842 H834 0.950 . S
C842 C840 1.391 . S
C842 C843 1.400 . S
C843 C842 1.400 . S
C843 C844 1.398 1_455 S
C843 C849 1.491 1_455 S
C844 H835 0.950 . S
C844 C843 1.398 1_655 S
C844 C845 1.392 . S
C845 H833 0.953 . S
C845 C841 1.388 1_655 S
C845 C844 1.392 . S
C846 H836 0.950 . S
C846 C847 1.386 . S
C846 C848 1.391 . S
C847 C846 1.386 . S
C847 C851 1.388 1_655 S
C848 H837 0.950 . S
C848 C846 1.391 . S
C848 C849 1.400 . S
C849 C843 1.491 1_655 S
C849 C848 1.400 . S
C849 C850 1.398 1_655 S
C850 H838 0.950 . S
C850 C849 1.398 1_455 S
C850 C851 1.392 . S
C851 H839 0.953 . S
C851 C847 1.388 1_455 S
C851 C850 1.392 . S
H852 C860 0.950 . S
H853 C865 0.950 . S
H854 C862 0.950 . S
H855 C864 0.950 . S
H856 C866 0.950 . S
H857 C868 0.950 . S
H858 C870 0.950 . S
H859 C871 0.950 . S
C860 H852 0.950 . S
C860 C861 1.386 1_565 S
C860 C862 1.391 . S
C861 C860 1.386 1_545 S
C861 C865 1.393 . S
C862 H854 0.950 . S
C862 C860 1.391 . S
C862 C863 1.400 1_565 S
C863 C862 1.400 1_545 S
C863 C864 1.398 . S
C863 C869 1.491 1_545 S
C864 H855 0.950 . S
C864 C863 1.398 . S
C864 C865 1.391 . S
C865 H853 0.950 . S
C865 C861 1.393 . S
C865 C864 1.391 . S
C866 H856 0.950 . S
C866 C867 1.386 1_545 S
C866 C868 1.391 . S
C867 C866 1.386 1_565 S
C867 C871 1.393 . S
C868 H857 0.950 . S
C868 C866 1.391 . S
C868 C869 1.400 1_545 S
C869 C863 1.491 1_565 S
C869 C868 1.400 1_565 S
C869 C870 1.398 . S
C870 H858 0.950 . S
C870 C869 1.398 . S
C870 C871 1.391 . S
C871 H859 0.950 . S
C871 C867 1.393 . S
C871 C870 1.391 . S
H872 C880 0.950 . S
H873 C885 0.950 . S
H874 C882 0.950 . S
H875 C884 0.950 . S
H876 C886 0.950 . S
H877 C888 0.950 . S
H878 C890 0.950 . S
H879 C891 0.950 . S
C880 H872 0.950 . S
C880 C881 1.386 . S
C880 C882 1.391 . S
C881 C880 1.386 . S
C881 C885 1.393 . S
C882 H874 0.950 . S
C882 C880 1.391 . S
C882 C883 1.400 . S
C883 C882 1.400 . S
C883 C884 1.398 . S
C883 C889 1.491 . S
C884 H875 0.950 . S
C884 C883 1.398 . S
C884 C885 1.391 . S
C885 H873 0.950 . S
C885 C881 1.393 . S
C885 C884 1.391 . S
C886 H876 0.950 . S
C886 C887 1.386 . S
C886 C888 1.391 . S
C887 C886 1.386 . S
C887 C891 1.393 . S
C888 H877 0.950 . S
C888 C886 1.391 . S
C888 C889 1.400 . S
C889 C883 1.491 . S
C889 C888 1.400 . S
C889 C890 1.398 . S
C890 H878 0.950 . S
C890 C889 1.398 . S
C890 C891 1.391 . S
C891 H879 0.950 . S
C891 C887 1.393 . S
C891 C890 1.391 . S
H892 C900 0.938 1_554 S
H893 C905 0.950 . S
H894 C902 0.950 . S
H895 C904 0.950 . S
H896 C906 0.938 1_556 S
H897 C908 0.950 . S
H898 C910 0.950 . S
H899 C911 0.950 . S
C900 H892 0.938 1_556 S
C900 C901 1.409 . S
C900 C902 1.382 1_556 S
C901 C900 1.409 . S
C901 C905 1.393 . S
C902 H894 0.950 . S
C902 C900 1.382 1_554 S
C902 C903 1.400 1_554 S
C903 C902 1.400 1_556 S
C903 C904 1.398 . S
C903 C909 1.491 1_556 S
C904 H895 0.950 . S
C904 C903 1.398 . S
C904 C905 1.391 . S
C905 H893 0.950 . S
C905 C901 1.393 . S
C905 C904 1.391 . S
C906 H896 0.938 1_554 S
C906 C907 1.409 . S
C906 C908 1.382 1_554 S
C907 C906 1.409 . S
C907 C911 1.393 . S
C908 H897 0.950 . S
C908 C906 1.382 1_556 S
C908 C909 1.400 1_556 S
C909 C903 1.491 1_554 S
C909 C908 1.400 1_554 S
C909 C910 1.398 . S
C910 H898 0.950 . S
C910 C909 1.398 . S
C910 C911 1.391 . S
C911 H899 0.950 . S
C911 C907 1.393 . S
C911 C910 1.391 . S
H912 C920 0.950 . S
H913 C925 0.950 . S
H914 C922 0.950 . S
H915 C924 0.950 . S
H916 C926 0.950 . S
H917 C928 0.950 . S
H918 C930 0.950 . S
H919 C931 0.950 . S
C920 H912 0.950 . S
C920 C921 1.386 . S
C920 C922 1.391 . S
C921 C920 1.386 . S
C921 C925 1.393 . S
C922 H914 0.950 . S
C922 C920 1.391 . S
C922 C923 1.400 . S
C923 C922 1.400 . S
C923 C924 1.398 . S
C923 C929 1.491 . S
C924 H915 0.950 . S
C924 C923 1.398 . S
C924 C925 1.391 . S
C925 H913 0.950 . S
C925 C921 1.393 . S
C925 C924 1.391 . S
C926 H916 0.950 . S
C926 C927 1.386 . S
C926 C928 1.391 . S
C927 C926 1.386 . S
C927 C931 1.393 . S
C928 H917 0.950 . S
C928 C926 1.391 . S
C928 C929 1.400 . S
C929 C923 1.491 . S
C929 C928 1.400 . S
C929 C930 1.398 . S
C930 H918 0.950 . S
C930 C929 1.398 . S
C930 C931 1.391 . S
C931 H919 0.950 . S
C931 C927 1.393 . S
C931 C930 1.391 . S
H932 C940 0.950 . S
H933 C945 0.950 . S
H934 C942 0.950 . S
H935 C944 0.950 . S
H936 C946 0.950 . S
H937 C948 0.950 . S
H938 C950 0.950 . S
H939 C951 0.950 . S
C940 H932 0.950 . S
C940 C941 1.386 . S
C940 C942 1.391 . S
C941 C940 1.386 . S
C941 C945 1.393 . S
C942 H934 0.950 . S
C942 C940 1.391 . S
C942 C943 1.400 . S
C943 C942 1.400 . S
C943 C944 1.398 . S
C943 C949 1.491 . S
C944 H935 0.950 . S
C944 C943 1.398 . S
C944 C945 1.391 . S
C945 H933 0.950 . S
C945 C941 1.393 . S
C945 C944 1.391 . S
C946 H936 0.950 . S
C946 C947 1.386 . S
C946 C948 1.391 . S
C947 C946 1.386 . S
C947 C951 1.393 . S
C948 H937 0.950 . S
C948 C946 1.391 . S
C948 C949 1.400 . S
C949 C943 1.491 . S
C949 C948 1.400 . S
C949 C950 1.398 . S
C950 H938 0.950 . S
C950 C949 1.398 . S
C950 C951 1.391 . S
C951 H939 0.950 . S
C951 C947 1.393 . S
C951 C950 1.391 . S
H952 C960 0.950 . S
H953 C965 0.950 . S
H954 C962 0.950 . S
H955 C964 0.950 . S
H956 C966 0.950 . S
H957 C968 0.950 . S
H958 C970 0.950 . S
H959 C971 0.950 . S
C960 H952 0.950 . S
C960 C961 1.386 . S
C960 C962 1.391 . S
C961 C960 1.386 . S
C961 C965 1.393 . S
C962 H954 0.950 . S
C962 C960 1.391 . S
C962 C963 1.400 . S
C963 C962 1.400 . S
C963 C964 1.398 . S
C963 C969 1.491 . S
C964 H955 0.950 . S
C964 C963 1.398 . S
C964 C965 1.391 . S
C965 H953 0.950 . S
C965 C961 1.393 . S
C965 C964 1.391 . S
C966 H956 0.950 . S
C966 C967 1.386 . S
C966 C968 1.391 . S
C967 C966 1.386 . S
C967 C971 1.393 . S
C968 H957 0.950 . S
C968 C966 1.391 . S
C968 C969 1.400 . S
C969 C963 1.491 . S
C969 C968 1.400 . S
C969 C970 1.398 . S
C970 H958 0.950 . S
C970 C969 1.398 . S
C970 C971 1.391 . S
C971 H959 0.950 . S
C971 C967 1.393 . S
C971 C970 1.391 . S
H972 C980 0.950 . S
H973 C985 0.950 . S
H974 C982 0.950 . S
H975 C984 0.950 . S
H976 C986 0.950 . S
H977 C988 0.950 . S
H978 C990 0.950 . S
H979 C991 0.950 . S
C980 H972 0.950 . S
C980 C981 1.386 . S
C980 C982 1.391 . S
C981 C980 1.386 . S
C981 C985 1.393 . S
C982 H974 0.950 . S
C982 C980 1.391 . S
C982 C983 1.400 . S
C983 C982 1.400 . S
C983 C984 1.398 . S
C983 C989 1.491 . S
C984 H975 0.950 . S
C984 C983 1.398 . S
C984 C985 1.391 . S
C985 H973 0.950 . S
C985 C981 1.393 . S
C985 C984 1.391 . S
C986 H976 0.950 . S
C986 C987 1.386 . S
C986 C988 1.391 . S
C987 C986 1.386 . S
C987 C991 1.393 . S
C988 H977 0.950 . S
C988 C986 1.391 . S
C988 C989 1.400 . S
C989 C983 1.491 . S
C989 C988 1.400 . S
C989 C990 1.398 . S
C990 H978 0.950 . S
C990 C989 1.398 . S
C990 C991 1.391 . S
C991 H979 0.950 . S
C991 C987 1.393 . S
C991 C990 1.391 . S
H992 C1000 0.950 . S
H993 C1005 0.950 . S
H994 C1002 0.950 . S
H995 C1004 0.950 . S
H996 C1006 0.950 . S
H997 C1008 0.950 . S
H998 C1010 0.950 . S
H999 C1011 0.950 . S
C1000 H992 0.950 . S
C1000 C1001 1.386 . S
C1000 C1002 1.391 . S
C1001 C1000 1.386 . S
C1001 C1005 1.393 . S
C1002 H994 0.950 . S
C1002 C1000 1.391 . S
C1002 C1003 1.400 . S
C1003 C1002 1.400 . S
C1003 C1004 1.398 . S
C1003 C1009 1.491 . S
C1004 H995 0.950 . S
C1004 C1003 1.398 . S
C1004 C1005 1.391 . S
C1005 H993 0.950 . S
C1005 C1001 1.393 . S
C1005 C1004 1.391 . S
C1006 H996 0.950 . S
C1006 C1007 1.386 . S
C1006 C1008 1.391 . S
C1007 C1006 1.386 . S
C1007 C1011 1.393 . S
C1008 H997 0.950 . S
C1008 C1006 1.391 . S
C1008 C1009 1.400 . S
C1009 C1003 1.491 . S
C1009 C1008 1.400 . S
C1009 C1010 1.398 . S
C1010 H998 0.950 . S
C1010 C1009 1.398 . S
C1010 C1011 1.391 . S
C1011 H999 0.950 . S
C1011 C1007 1.393 . S
C1011 C1010 1.391 . S
H1012 C1020 0.950 . S
H1013 C1025 0.950 . S
H1014 C1022 0.950 . S
H1015 C1024 0.950 . S
H1016 C1026 0.950 . S
H1017 C1028 0.950 . S
H1018 C1030 0.950 . S
H1019 C1031 0.950 . S
C1020 H1012 0.950 . S
C1020 C1021 1.386 . S
C1020 C1022 1.391 . S
C1021 C1020 1.386 . S
C1021 C1025 1.393 . S
C1022 H1014 0.950 . S
C1022 C1020 1.391 . S
C1022 C1023 1.400 . S
C1023 C1022 1.400 . S
C1023 C1024 1.398 . S
C1023 C1029 1.491 1_545 S
C1024 H1015 0.950 . S
C1024 C1023 1.398 . S
C1024 C1025 1.391 . S
C1025 H1013 0.950 . S
C1025 C1021 1.393 . S
C1025 C1024 1.391 . S
C1026 H1016 0.950 . S
C1026 C1027 1.386 . S
C1026 C1028 1.391 . S
C1027 C1026 1.386 . S
C1027 C1031 1.393 . S
C1028 H1017 0.950 . S
C1028 C1026 1.391 . S
C1028 C1029 1.400 . S
C1029 C1023 1.491 1_565 S
C1029 C1028 1.400 . S
C1029 C1030 1.398 . S
C1030 H1018 0.950 . S
C1030 C1029 1.398 . S
C1030 C1031 1.391 . S
C1031 H1019 0.950 . S
C1031 C1027 1.393 . S
C1031 C1030 1.391 . S
H1032 C1040 0.950 . S
H1033 C1045 0.950 . S
H1034 C1042 0.950 1_556 S
H1035 C1044 0.950 . S
H1036 C1046 0.950 . S
H1037 C1048 0.950 1_554 S
H1038 C1050 0.950 . S
H1039 C1051 0.950 . S
C1040 H1032 0.950 . S
C1040 C1041 1.386 . S
C1040 C1042 1.391 . S
C1041 C1040 1.386 . S
C1041 C1045 1.393 . S
C1042 H1034 0.950 1_554 S
C1042 C1040 1.391 . S
C1042 C1043 1.400 . S
C1043 C1042 1.400 . S
C1043 C1044 1.398 . S
C1043 C1049 1.491 1_554 S
C1044 H1035 0.950 . S
C1044 C1043 1.398 . S
C1044 C1045 1.391 . S
C1045 H1033 0.950 . S
C1045 C1041 1.393 . S
C1045 C1044 1.391 . S
C1046 H1036 0.950 . S
C1046 C1047 1.386 . S
C1046 C1048 1.391 . S
C1047 C1046 1.386 . S
C1047 C1051 1.393 . S
C1048 H1037 0.950 1_556 S
C1048 C1046 1.391 . S
C1048 C1049 1.400 . S
C1049 C1043 1.491 1_556 S
C1049 C1048 1.400 . S
C1049 C1050 1.398 . S
C1050 H1038 0.950 . S
C1050 C1049 1.398 . S
C1050 C1051 1.391 . S
C1051 H1039 0.950 . S
C1051 C1047 1.393 . S
C1051 C1050 1.391 . S
H1052 C1060 0.950 . S
H1053 C1065 0.950 . S
H1054 C1062 0.950 . S
H1055 C1064 0.950 . S
H1056 C1066 0.950 . S
H1057 C1068 0.950 . S
H1058 C1070 0.950 . S
H1059 C1071 0.950 . S
C1060 H1052 0.950 . S
C1060 C1061 1.386 . S
C1060 C1062 1.391 . S
C1061 C1060 1.386 . S
C1061 C1065 1.393 . S
C1062 H1054 0.950 . S
C1062 C1060 1.391 . S
C1062 C1063 1.400 . S
C1063 C1062 1.400 . S
C1063 C1064 1.398 . S
C1063 C1069 1.491 . S
C1064 H1055 0.950 . S
C1064 C1063 1.398 . S
C1064 C1065 1.391 . S
C1065 H1053 0.950 . S
C1065 C1061 1.393 . S
C1065 C1064 1.391 . S
C1066 H1056 0.950 . S
C1066 C1067 1.386 . S
C1066 C1068 1.391 . S
C1067 C1066 1.386 . S
C1067 C1071 1.393 . S
C1068 H1057 0.950 . S
C1068 C1066 1.391 . S
C1068 C1069 1.400 . S
C1069 C1063 1.491 . S
C1069 C1068 1.400 . S
C1069 C1070 1.398 . S
C1070 H1058 0.950 . S
C1070 C1069 1.398 . S
C1070 C1071 1.391 . S
C1071 H1059 0.950 . S
C1071 C1067 1.393 . S
C1071 C1070 1.391 . S
H1072 C1080 0.950 . S
H1073 C1085 0.950 . S
H1074 C1082 0.950 . S
H1075 C1084 0.950 . S
H1076 C1086 0.950 . S
H1077 C1088 0.950 . S
H1078 C1090 0.950 . S
H1079 C1091 0.950 . S
C1080 H1072 0.950 . S
C1080 C1081 1.386 . S
C1080 C1082 1.391 . S
C1081 C1080 1.386 . S
C1081 C1085 1.393 . S
C1082 H1074 0.950 . S
C1082 C1080 1.391 . S
C1082 C1083 1.400 . S
C1083 C1082 1.400 . S
C1083 C1084 1.398 . S
C1083 C1089 1.491 . S
C1084 H1075 0.950 . S
C1084 C1083 1.398 . S
C1084 C1085 1.391 . S
C1085 H1073 0.950 . S
C1085 C1081 1.393 . S
C1085 C1084 1.391 . S
C1086 H1076 0.950 . S
C1086 C1087 1.386 . S
C1086 C1088 1.391 . S
C1087 C1086 1.386 . S
C1087 C1091 1.393 . S
C1088 H1077 0.950 . S
C1088 C1086 1.391 . S
C1088 C1089 1.400 . S
C1089 C1083 1.491 . S
C1089 C1088 1.400 . S
C1089 C1090 1.398 . S
C1090 H1078 0.950 . S
C1090 C1089 1.398 . S
C1090 C1091 1.391 . S
C1091 H1079 0.950 . S
C1091 C1087 1.393 . S
C1091 C1090 1.391 . S
H1092 C1100 0.950 . S
H1093 C1105 0.950 . S
H1094 C1102 0.950 . S
H1095 C1104 0.950 . S
H1096 C1106 0.950 . S
H1097 C1108 0.950 . S
H1098 C1110 0.950 . S
H1099 C1111 0.950 . S
C1100 H1092 0.950 . S
C1100 C1101 1.386 . S
C1100 C1102 1.391 . S
C1101 C1100 1.386 . S
C1101 C1105 1.393 . S
C1102 H1094 0.950 . S
C1102 C1100 1.391 . S
C1102 C1103 1.400 . S
C1103 C1102 1.400 . S
C1103 C1104 1.398 . S
C1103 C1109 1.491 . S
C1104 H1095 0.950 . S
C1104 C1103 1.398 . S
C1104 C1105 1.391 . S
C1105 H1093 0.950 . S
C1105 C1101 1.393 . S
C1105 C1104 1.391 . S
C1106 H1096 0.950 . S
C1106 C1107 1.386 . S
C1106 C1108 1.391 . S
C1107 C1106 1.386 . S
C1107 C1111 1.393 . S
C1108 H1097 0.950 . S
C1108 C1106 1.391 . S
C1108 C1109 1.400 . S
C1109 C1103 1.491 . S
C1109 C1108 1.400 . S
C1109 C1110 1.398 . S
C1110 H1098 0.950 . S
C1110 C1109 1.398 . S
C1110 C1111 1.391 . S
C1111 H1099 0.950 . S
C1111 C1107 1.393 . S
C1111 C1110 1.391 . S
H1112 C1120 0.950 . S
H1113 C1125 0.950 . S
H1114 C1122 0.950 . S
H1115 C1124 0.950 . S
H1116 C1126 0.950 . S
H1117 C1128 0.950 . S
H1118 C1130 0.950 . S
H1119 C1131 0.950 . S
C1120 H1112 0.950 . S
C1120 C1121 1.386 . S
C1120 C1122 1.391 . S
C1121 C1120 1.386 . S
C1121 C1125 1.393 1_545 S
C1122 H1114 0.950 . S
C1122 C1120 1.391 . S
C1122 C1123 1.400 . S
C1123 C1122 1.400 . S
C1123 C1124 1.398 1_545 S
C1123 C1129 1.491 1_545 S
C1124 H1115 0.950 . S
C1124 C1123 1.398 1_565 S
C1124 C1125 1.391 . S
C1125 H1113 0.950 . S
C1125 C1121 1.393 1_565 S
C1125 C1124 1.391 . S
C1126 H1116 0.950 . S
C1126 C1127 1.386 . S
C1126 C1128 1.391 . S
C1127 C1126 1.386 . S
C1127 C1131 1.393 1_565 S
C1128 H1117 0.950 . S
C1128 C1126 1.391 . S
C1128 C1129 1.400 . S
C1129 C1123 1.491 1_565 S
C1129 C1128 1.400 . S
C1129 C1130 1.398 1_565 S
C1130 H1118 0.950 . S
C1130 C1129 1.398 1_545 S
C1130 C1131 1.391 . S
C1131 H1119 0.950 . S
C1131 C1127 1.393 1_545 S
C1131 C1130 1.391 . S
H1132 C1140 0.950 . S
H1133 C1145 0.950 . S
H1134 C1142 0.950 . S
H1135 C1144 0.950 . S
H1136 C1146 0.950 . S
H1137 C1148 0.950 . S
H1138 C1150 0.950 . S
H1139 C1151 0.950 . S
C1140 H1132 0.950 . S
C1140 C1141 1.386 . S
C1140 C1142 1.391 . S
C1141 C1140 1.386 . S
C1141 C1145 1.393 1_554 S
C1142 H1134 0.950 . S
C1142 C1140 1.391 . S
C1142 C1143 1.400 . S
C1143 C1142 1.400 . S
C1143 C1144 1.398 1_554 S
C1143 C1149 1.491 1_554 S
C1144 H1135 0.950 . S
C1144 C1143 1.398 1_556 S
C1144 C1145 1.391 . S
C1145 H1133 0.950 . S
C1145 C1141 1.393 1_556 S
C1145 C1144 1.391 . S
C1146 H1136 0.950 . S
C1146 C1147 1.386 . S
C1146 C1148 1.391 . S
C1147 C1146 1.386 . S
C1147 C1151 1.393 1_556 S
C1148 H1137 0.950 . S
C1148 C1146 1.391 . S
C1148 C1149 1.400 . S
C1149 C1143 1.491 1_556 S
C1149 C1148 1.400 . S
C1149 C1150 1.398 1_556 S
C1150 H1138 0.950 . S
C1150 C1149 1.398 1_554 S
C1150 C1151 1.391 . S
C1151 H1139 0.950 . S
C1151 C1147 1.393 1_554 S
C1151 C1150 1.391 . S
H1152 C1160 0.950 . S
H1153 C1165 0.950 . S
H1154 C1162 0.950 . S
H1155 C1164 0.950 . S
H1156 C1166 0.950 . S
H1157 C1168 0.950 . S
H1158 C1170 0.950 . S
H1159 C1171 0.950 . S
C1160 H1152 0.950 . S
C1160 C1161 1.386 . S
C1160 C1162 1.391 . S
C1161 C1160 1.386 . S
C1161 C1165 1.393 . S
C1162 H1154 0.950 . S
C1162 C1160 1.391 . S
C1162 C1163 1.400 . S
C1163 C1162 1.400 . S
C1163 C1164 1.398 . S
C1163 C1169 1.491 . S
C1164 H1155 0.950 . S
C1164 C1163 1.398 . S
C1164 C1165 1.391 . S
C1165 H1153 0.950 . S
C1165 C1161 1.393 . S
C1165 C1164 1.391 . S
C1166 H1156 0.950 . S
C1166 C1167 1.386 . S
C1166 C1168 1.391 . S
C1167 C1166 1.386 . S
C1167 C1171 1.393 . S
C1168 H1157 0.950 . S
C1168 C1166 1.391 . S
C1168 C1169 1.400 . S
C1169 C1163 1.491 . S
C1169 C1168 1.400 . S
C1169 C1170 1.398 . S
C1170 H1158 0.950 . S
C1170 C1169 1.398 . S
C1170 C1171 1.391 . S
C1171 H1159 0.950 . S
C1171 C1167 1.393 . S
C1171 C1170 1.391 . S
H1172 C1180 0.950 . S
H1173 C1185 0.950 . S
H1174 C1182 0.950 . S
H1175 C1184 0.950 . S
H1176 C1186 0.950 . S
H1177 C1188 0.950 . S
H1178 C1190 0.950 . S
H1179 C1191 0.950 . S
C1180 H1172 0.950 . S
C1180 C1181 1.386 . S
C1180 C1182 1.391 . S
C1181 C1180 1.386 . S
C1181 C1185 1.393 . S
C1182 H1174 0.950 . S
C1182 C1180 1.391 . S
C1182 C1183 1.400 . S
C1183 C1182 1.400 . S
C1183 C1184 1.398 . S
C1183 C1189 1.491 . S
C1184 H1175 0.950 . S
C1184 C1183 1.398 . S
C1184 C1185 1.391 . S
C1185 H1173 0.950 . S
C1185 C1181 1.393 . S
C1185 C1184 1.391 . S
C1186 H1176 0.950 . S
C1186 C1187 1.386 . S
C1186 C1188 1.391 . S
C1187 C1186 1.386 . S
C1187 C1191 1.393 . S
C1188 H1177 0.950 . S
C1188 C1186 1.391 . S
C1188 C1189 1.400 . S
C1189 C1183 1.491 . S
C1189 C1188 1.400 . S
C1189 C1190 1.398 . S
C1190 H1178 0.950 . S
C1190 C1189 1.398 . S
C1190 C1191 1.391 . S
C1191 H1179 0.950 . S
C1191 C1187 1.393 . S
C1191 C1190 1.391 . S
H1192 C1200 0.950 . S
H1193 C1205 0.950 . S
H1194 C1202 0.950 . S
H1195 C1204 0.950 . S
H1196 C1206 0.950 . S
H1197 C1208 0.950 . S
H1198 C1210 0.950 . S
H1199 C1211 0.950 . S
C1200 H1192 0.950 . S
C1200 C1201 1.386 . S
C1200 C1202 1.391 . S
C1201 C1200 1.386 . S
C1201 C1205 1.393 . S
C1202 H1194 0.950 . S
C1202 C1200 1.391 . S
C1202 C1203 1.400 . S
C1203 C1202 1.400 . S
C1203 C1204 1.398 . S
C1203 C1209 1.491 . S
C1204 H1195 0.950 . S
C1204 C1203 1.398 . S
C1204 C1205 1.391 . S
C1205 H1193 0.950 . S
C1205 C1201 1.393 . S
C1205 C1204 1.391 . S
C1206 H1196 0.950 . S
C1206 C1207 1.386 . S
C1206 C1208 1.391 . S
C1207 C1206 1.386 . S
C1207 C1211 1.393 . S
C1208 H1197 0.950 . S
C1208 C1206 1.391 . S
C1208 C1209 1.400 . S
C1209 C1203 1.491 . S
C1209 C1208 1.400 . S
C1209 C1210 1.398 . S
C1210 H1198 0.950 . S
C1210 C1209 1.398 . S
C1210 C1211 1.391 . S
C1211 H1199 0.950 . S
C1211 C1207 1.393 . S
C1211 C1210 1.391 . S
H1212 C1220 0.950 . S
H1213 C1225 0.950 . S
H1214 C1222 0.950 . S
H1215 C1224 0.950 . S
H1216 C1226 0.950 . S
H1217 C1228 0.950 . S
H1218 C1230 0.950 . S
H1219 C1231 0.950 . S
C1220 H1212 0.950 . S
C1220 C1221 1.386 . S
C1220 C1222 1.391 . S
C1221 C1220 1.386 . S
C1221 C1225 1.393 . S
C1222 H1214 0.950 . S
C1222 C1220 1.391 . S
C1222 C1223 1.400 . S
C1223 C1222 1.400 . S
C1223 C1224 1.398 . S
C1223 C1229 1.491 . S
C1224 H1215 0.950 . S
C1224 C1223 1.398 . S
C1224 C1225 1.391 . S
C1225 H1213 0.950 . S
C1225 C1221 1.393 . S
C1225 C1224 1.391 . S
C1226 H1216 0.950 . S
C1226 C1227 1.386 . S
C1226 C1228 1.391 . S
C1227 C1226 1.386 . S
C1227 C1231 1.393 . S
C1228 H1217 0.950 . S
C1228 C1226 1.391 . S
C1228 C1229 1.400 . S
C1229 C1223 1.491 . S
C1229 C1228 1.400 . S
C1229 C1230 1.398 . S
C1230 H1218 0.950 . S
C1230 C1229 1.398 . S
C1230 C1231 1.391 . S
C1231 H1219 0.950 . S
C1231 C1227 1.393 . S
C1231 C1230 1.391 . S
H1232 C1240 0.950 . S
H1233 C1245 0.950 . S
H1234 C1242 0.950 . S
H1235 C1244 0.950 . S
H1236 C1246 0.950 . S
H1237 C1248 0.950 . S
H1238 C1250 0.950 . S
H1239 C1251 0.950 . S
C1240 H1232 0.950 . S
C1240 C1241 1.386 . S
C1240 C1242 1.391 . S
C1241 C1240 1.386 . S
C1241 C1245 1.393 . S
C1242 H1234 0.950 . S
C1242 C1240 1.391 . S
C1242 C1243 1.400 . S
C1243 C1242 1.400 . S
C1243 C1244 1.398 . S
C1243 C1249 1.491 . S
C1244 H1235 0.950 . S
C1244 C1243 1.398 . S
C1244 C1245 1.391 . S
C1245 H1233 0.950 . S
C1245 C1241 1.393 . S
C1245 C1244 1.391 . S
C1246 H1236 0.950 . S
C1246 C1247 1.386 . S
C1246 C1248 1.391 . S
C1247 C1246 1.386 . S
C1247 C1251 1.393 . S
C1248 H1237 0.950 . S
C1248 C1246 1.391 . S
C1248 C1249 1.400 . S
C1249 C1243 1.491 . S
C1249 C1248 1.400 . S
C1249 C1250 1.398 . S
C1250 H1238 0.950 . S
C1250 C1249 1.398 . S
C1250 C1251 1.391 . S
C1251 H1239 0.950 . S
C1251 C1247 1.393 . S
C1251 C1250 1.391 . S
H1252 C1260 0.950 . S
H1253 C1265 0.950 . S
H1254 C1262 0.950 . S
H1255 C1264 0.950 . S
H1256 C1266 0.950 . S
H1257 C1268 0.950 . S
H1258 C1270 0.950 . S
H1259 C1271 0.950 . S
C1260 H1252 0.950 . S
C1260 C1261 1.386 . S
C1260 C1262 1.391 . S
C1261 C1260 1.386 . S
C1261 C1265 1.393 . S
C1262 H1254 0.950 . S
C1262 C1260 1.391 . S
C1262 C1263 1.400 . S
C1263 C1262 1.400 . S
C1263 C1264 1.398 . S
C1263 C1269 1.491 . S
C1264 H1255 0.950 . S
C1264 C1263 1.398 . S
C1264 C1265 1.391 . S
C1265 H1253 0.950 . S
C1265 C1261 1.393 . S
C1265 C1264 1.391 . S
C1266 H1256 0.950 . S
C1266 C1267 1.386 . S
C1266 C1268 1.391 . S
C1267 C1266 1.386 . S
C1267 C1271 1.393 . S
C1268 H1257 0.950 . S
C1268 C1266 1.391 . S
C1268 C1269 1.400 . S
C1269 C1263 1.491 . S
C1269 C1268 1.400 . S
C1269 C1270 1.398 . S
C1270 H1258 0.950 . S
C1270 C1269 1.398 . S
C1270 C1271 1.391 . S
C1271 H1259 0.950 . S
C1271 C1267 1.393 . S
C1271 C1270 1.391 . S
H1272 C1280 0.950 . S
H1273 C1285 0.950 . S
H1274 C1282 0.950 . S
H1275 C1284 0.950 . S
H1276 C1286 0.950 . S
H1277 C1288 0.950 . S
H1278 C1290 0.950 . S
H1279 C1291 0.950 . S
C1280 H1272 0.950 . S
C1280 C1281 1.386 . S
C1280 C1282 1.391 . S
C1281 C1280 1.386 . S
C1281 C1285 1.393 . S
C1282 H1274 0.950 . S
C1282 C1280 1.391 . S
C1282 C1283 1.400 . S
C1283 C1282 1.400 . S
C1283 C1284 1.398 . S
C1283 C1289 1.491 . S
C1284 H1275 0.950 . S
C1284 C1283 1.398 . S
C1284 C1285 1.391 . S
C1285 H1273 0.950 . S
C1285 C1281 1.393 . S
C1285 C1284 1.391 . S
C1286 H1276 0.950 . S
C1286 C1287 1.386 . S
C1286 C1288 1.391 . S
C1287 C1286 1.386 . S
C1287 C1291 1.393 . S
C1288 H1277 0.950 . S
C1288 C1286 1.391 . S
C1288 C1289 1.400 . S
C1289 C1283 1.491 . S
C1289 C1288 1.400 . S
C1289 C1290 1.398 . S
C1290 H1278 0.950 . S
C1290 C1289 1.398 . S
C1290 C1291 1.391 . S
C1291 H1279 0.950 . S
C1291 C1287 1.393 . S
C1291 C1290 1.391 . S
H1292 C1300 0.950 . S
H1293 C1305 0.950 . S
H1294 C1302 0.950 . S
H1295 C1304 0.950 . S
H1296 C1306 0.950 . S
H1297 C1308 0.950 . S
H1298 C1310 0.950 . S
H1299 C1311 0.950 . S
C1300 H1292 0.950 . S
C1300 C1301 1.386 . S
C1300 C1302 1.391 . S
C1301 C1300 1.386 . S
C1301 C1305 1.393 . S
C1302 H1294 0.950 . S
C1302 C1300 1.391 . S
C1302 C1303 1.400 . S
C1303 C1302 1.400 . S
C1303 C1304 1.398 . S
C1303 C1309 1.491 . S
C1304 H1295 0.950 . S
C1304 C1303 1.398 . S
C1304 C1305 1.391 . S
C1305 H1293 0.950 . S
C1305 C1301 1.393 . S
C1305 C1304 1.391 . S
C1306 H1296 0.950 . S
C1306 C1307 1.386 . S
C1306 C1308 1.391 . S
C1307 C1306 1.386 . S
C1307 C1311 1.393 . S
C1308 H1297 0.950 . S
C1308 C1306 1.391 . S
C1308 C1309 1.400 . S
C1309 C1303 1.491 . S
C1309 C1308 1.400 . S
C1309 C1310 1.398 . S
C1310 H1298 0.950 . S
C1310 C1309 1.398 . S
C1310 C1311 1.391 . S
C1311 H1299 0.950 . S
C1311 C1307 1.393 . S
C1311 C1310 1.391 . S
H1312 C1320 0.950 . S
H1313 C1325 0.950 . S
H1314 C1322 0.950 . S
H1315 C1324 0.950 . S
H1316 C1326 0.950 . S
H1317 C1328 0.950 . S
H1318 C1330 0.950 . S
H1319 C1331 0.950 . S
C1320 H1312 0.950 . S
C1320 C1321 1.386 . S
C1320 C1322 1.391 . S
C1321 C1320 1.386 . S
C1321 C1325 1.393 . S
C1322 H1314 0.950 . S
C1322 C1320 1.391 . S
C1322 C1323 1.400 . S
C1323 C1322 1.400 . S
C1323 C1324 1.398 . S
C1323 C1329 1.491 . S
C1324 H1315 0.950 . S
C1324 C1323 1.398 . S
C1324 C1325 1.391 . S
C1325 H1313 0.950 . S
C1325 C1321 1.393 . S
C1325 C1324 1.391 . S
C1326 H1316 0.950 . S
C1326 C1327 1.386 . S
C1326 C1328 1.391 . S
C1327 C1326 1.386 . S
C1327 C1331 1.393 . S
C1328 H1317 0.950 . S
C1328 C1326 1.391 . S
C1328 C1329 1.400 . S
C1329 C1323 1.491 . S
C1329 C1328 1.400 . S
C1329 C1330 1.398 . S
C1330 H1318 0.950 . S
C1330 C1329 1.398 . S
C1330 C1331 1.391 . S
C1331 H1319 0.950 . S
C1331 C1327 1.393 . S
C1331 C1330 1.391 . S
H1332 C1340 0.950 . S
H1333 C1345 0.950 . S
H1334 C1342 0.950 . S
H1335 C1344 0.950 . S
H1336 C1346 0.950 . S
H1337 C1348 0.950 . S
H1338 C1350 0.950 . S
H1339 C1351 0.950 . S
C1340 H1332 0.950 . S
C1340 C1341 1.386 . S
C1340 C1342 1.391 . S
C1341 C1340 1.386 . S
C1341 C1345 1.393 . S
C1342 H1334 0.950 . S
C1342 C1340 1.391 . S
C1342 C1343 1.400 . S
C1343 C1342 1.400 . S
C1343 C1344 1.398 . S
C1343 C1349 1.491 . S
C1344 H1335 0.950 . S
C1344 C1343 1.398 . S
C1344 C1345 1.391 . S
C1345 H1333 0.950 . S
C1345 C1341 1.393 . S
C1345 C1344 1.391 . S
C1346 H1336 0.950 . S
C1346 C1347 1.386 . S
C1346 C1348 1.391 . S
C1347 C1346 1.386 . S
C1347 C1351 1.393 . S
C1348 H1337 0.950 . S
C1348 C1346 1.391 . S
C1348 C1349 1.400 . S
C1349 C1343 1.491 . S
C1349 C1348 1.400 . S
C1349 C1350 1.398 . S
C1350 H1338 0.950 . S
C1350 C1349 1.398 . S
C1350 C1351 1.391 . S
C1351 H1339 0.950 . S
C1351 C1347 1.393 . S
C1351 C1350 1.391 . S
H1352 C1360 0.950 . S
H1353 C1365 0.950 . S
H1354 C1362 0.950 . S
H1355 C1364 0.950 . S
H1356 C1366 0.950 . S
H1357 C1368 0.950 . S
H1358 C1370 0.950 . S
H1359 C1371 0.950 . S
C1360 H1352 0.950 . S
C1360 C1361 1.386 . S
C1360 C1362 1.391 . S
C1361 C1360 1.386 . S
C1361 C1365 1.393 . S
C1362 H1354 0.950 . S
C1362 C1360 1.391 . S
C1362 C1363 1.400 . S
C1363 C1362 1.400 . S
C1363 C1364 1.398 . S
C1363 C1369 1.491 . S
C1364 H1355 0.950 . S
C1364 C1363 1.398 . S
C1364 C1365 1.391 . S
C1365 H1353 0.950 . S
C1365 C1361 1.393 . S
C1365 C1364 1.391 . S
C1366 H1356 0.950 . S
C1366 C1367 1.386 . S
C1366 C1368 1.391 . S
C1367 C1366 1.386 . S
C1367 C1371 1.393 . S
C1368 H1357 0.950 . S
C1368 C1366 1.391 . S
C1368 C1369 1.400 . S
C1369 C1363 1.491 . S
C1369 C1368 1.400 . S
C1369 C1370 1.398 . S
C1370 H1358 0.950 . S
C1370 C1369 1.398 . S
C1370 C1371 1.391 . S
C1371 H1359 0.950 . S
C1371 C1367 1.393 . S
C1371 C1370 1.391 . S
H1372 C1380 0.950 . S
H1373 C1385 0.950 . S
H1374 C1382 0.950 . S
H1375 C1384 0.950 . S
H1376 C1386 0.950 . S
H1377 C1388 0.950 . S
H1378 C1390 0.950 . S
H1379 C1391 0.950 . S
C1380 H1372 0.950 . S
C1380 C1381 1.386 . S
C1380 C1382 1.391 . S
C1381 C1380 1.386 . S
C1381 C1385 1.393 . S
C1382 H1374 0.950 . S
C1382 C1380 1.391 . S
C1382 C1383 1.400 . S
C1383 C1382 1.400 . S
C1383 C1384 1.398 . S
C1383 C1389 1.491 . S
C1384 H1375 0.950 . S
C1384 C1383 1.398 . S
C1384 C1385 1.391 . S
C1385 H1373 0.950 . S
C1385 C1381 1.393 . S
C1385 C1384 1.391 . S
C1386 H1376 0.950 . S
C1386 C1387 1.386 . S
C1386 C1388 1.391 . S
C1387 C1386 1.386 . S
C1387 C1391 1.393 . S
C1388 H1377 0.950 . S
C1388 C1386 1.391 . S
C1388 C1389 1.400 . S
C1389 C1383 1.491 . S
C1389 C1388 1.400 . S
C1389 C1390 1.398 . S
C1390 H1378 0.950 . S
C1390 C1389 1.398 . S
C1390 C1391 1.391 . S
C1391 H1379 0.950 . S
C1391 C1387 1.393 . S
C1391 C1390 1.391 . S
H1392 C1400 0.950 . S
H1393 C1405 0.950 . S
H1394 C1402 0.950 . S
H1395 C1404 0.950 . S
H1396 C1406 0.950 . S
H1397 C1408 0.950 . S
H1398 C1410 0.950 . S
H1399 C1411 0.950 . S
C1400 H1392 0.950 . S
C1400 C1401 1.386 . S
C1400 C1402 1.391 . S
C1401 C1400 1.386 . S
C1401 C1405 1.393 . S
C1402 H1394 0.950 . S
C1402 C1400 1.391 . S
C1402 C1403 1.400 . S
C1403 C1402 1.400 . S
C1403 C1404 1.398 . S
C1403 C1409 1.491 . S
C1404 H1395 0.950 . S
C1404 C1403 1.398 . S
C1404 C1405 1.391 . S
C1405 H1393 0.950 . S
C1405 C1401 1.393 . S
C1405 C1404 1.391 . S
C1406 H1396 0.950 . S
C1406 C1407 1.386 . S
C1406 C1408 1.391 . S
C1407 C1406 1.386 . S
C1407 C1411 1.393 . S
C1408 H1397 0.950 . S
C1408 C1406 1.391 . S
C1408 C1409 1.400 . S
C1409 C1403 1.491 . S
C1409 C1408 1.400 . S
C1409 C1410 1.398 . S
C1410 H1398 0.950 . S
C1410 C1409 1.398 . S
C1410 C1411 1.391 . S
C1411 H1399 0.950 . S
C1411 C1407 1.393 . S
C1411 C1410 1.391 . S
H1412 C1420 0.950 . S
H1413 C1425 0.950 . S
H1414 C1422 0.950 . S
H1415 C1424 0.950 . S
H1416 C1426 0.950 . S
H1417 C1428 0.950 . S
H1418 C1430 0.950 . S
H1419 C1431 0.950 . S
C1420 H1412 0.950 . S
C1420 C1421 1.386 . S
C1420 C1422 1.391 . S
C1421 C1420 1.386 . S
C1421 C1425 1.393 . S
C1422 H1414 0.950 . S
C1422 C1420 1.391 . S
C1422 C1423 1.400 . S
C1423 C1422 1.400 . S
C1423 C1424 1.398 . S
C1423 C1429 1.491 . S
C1424 H1415 0.950 . S
C1424 C1423 1.398 . S
C1424 C1425 1.391 . S
C1425 H1413 0.950 . S
C1425 C1421 1.393 . S
C1425 C1424 1.391 . S
C1426 H1416 0.950 . S
C1426 C1427 1.386 . S
C1426 C1428 1.391 . S
C1427 C1426 1.386 . S
C1427 C1431 1.393 . S
C1428 H1417 0.950 . S
C1428 C1426 1.391 . S
C1428 C1429 1.400 . S
C1429 C1423 1.491 . S
C1429 C1428 1.400 . S
C1429 C1430 1.398 . S
C1430 H1418 0.950 . S
C1430 C1429 1.398 . S
C1430 C1431 1.391 . S
C1431 H1419 0.950 . S
C1431 C1427 1.393 . S
C1431 C1430 1.391 . S
H1432 C1440 0.950 . S
H1433 C1445 0.950 . S
H1434 C1442 0.950 . S
H1435 C1444 0.950 . S
H1436 C1446 0.950 . S
H1437 C1448 0.950 . S
H1438 C1450 0.950 . S
H1439 C1451 0.950 . S
C1440 H1432 0.950 . S
C1440 C1441 1.386 . S
C1440 C1442 1.391 . S
C1441 C1440 1.386 . S
C1441 C1445 1.393 . S
C1442 H1434 0.950 . S
C1442 C1440 1.391 . S
C1442 C1443 1.400 . S
C1443 C1442 1.400 . S
C1443 C1444 1.398 . S
C1443 C1449 1.491 . S
C1444 H1435 0.950 . S
C1444 C1443 1.398 . S
C1444 C1445 1.391 . S
C1445 H1433 0.950 . S
C1445 C1441 1.393 . S
C1445 C1444 1.391 . S
C1446 H1436 0.950 . S
C1446 C1447 1.386 . S
C1446 C1448 1.391 . S
C1447 C1446 1.386 . S
C1447 C1451 1.393 . S
C1448 H1437 0.950 . S
C1448 C1446 1.391 . S
C1448 C1449 1.400 . S
C1449 C1443 1.491 . S
C1449 C1448 1.400 . S
C1449 C1450 1.398 . S
C1450 H1438 0.950 . S
C1450 C1449 1.398 . S
C1450 C1451 1.391 . S
C1451 H1439 0.950 . S
C1451 C1447 1.393 . S
C1451 C1450 1.391 . S
H1452 C1460 0.950 . S
H1453 C1465 0.950 . S
H1454 C1462 0.950 . S
H1455 C1464 0.950 . S
H1456 C1466 0.950 . S
H1457 C1468 0.950 . S
H1458 C1470 0.950 . S
H1459 C1471 0.950 . S
C1460 H1452 0.950 . S
C1460 C1461 1.386 . S
C1460 C1462 1.391 . S
C1461 C1460 1.386 . S
C1461 C1465 1.393 . S
C1462 H1454 0.950 . S
C1462 C1460 1.391 . S
C1462 C1463 1.400 . S
C1463 C1462 1.400 . S
C1463 C1464 1.398 . S
C1463 C1469 1.491 . S
C1464 H1455 0.950 . S
C1464 C1463 1.398 . S
C1464 C1465 1.391 . S
C1465 H1453 0.950 . S
C1465 C1461 1.393 . S
C1465 C1464 1.391 . S
C1466 H1456 0.950 . S
C1466 C1467 1.386 . S
C1466 C1468 1.391 . S
C1467 C1466 1.386 . S
C1467 C1471 1.393 . S
C1468 H1457 0.950 . S
C1468 C1466 1.391 . S
C1468 C1469 1.400 . S
C1469 C1463 1.491 . S
C1469 C1468 1.400 . S
C1469 C1470 1.398 . S
C1470 H1458 0.950 . S
C1470 C1469 1.398 . S
C1470 C1471 1.391 . S
C1471 H1459 0.950 . S
C1471 C1467 1.393 . S
C1471 C1470 1.391 . S
H1472 C1480 0.950 . S
H1473 C1485 0.950 . S
H1474 C1482 0.950 . S
H1475 C1484 0.950 . S
H1476 C1486 0.950 . S
H1477 C1488 0.950 . S
H1478 C1490 0.950 . S
H1479 C1491 0.950 . S
C1480 H1472 0.950 . S
C1480 C1481 1.386 . S
C1480 C1482 1.391 . S
C1481 C1480 1.386 . S
C1481 C1485 1.393 . S
C1482 H1474 0.950 . S
C1482 C1480 1.391 . S
C1482 C1483 1.400 . S
C1483 C1482 1.400 . S
C1483 C1484 1.398 . S
C1483 C1489 1.491 . S
C1484 H1475 0.950 . S
C1484 C1483 1.398 . S
C1484 C1485 1.391 . S
C1485 H1473 0.950 . S
C1485 C1481 1.393 . S
C1485 C1484 1.391 . S
C1486 H1476 0.950 . S
C1486 C1487 1.386 . S
C1486 C1488 1.391 . S
C1487 C1486 1.386 . S
C1487 C1491 1.393 . S
C1488 H1477 0.950 . S
C1488 C1486 1.391 . S
C1488 C1489 1.400 . S
C1489 C1483 1.491 . S
C1489 C1488 1.400 . S
C1489 C1490 1.398 . S
C1490 H1478 0.950 . S
C1490 C1489 1.398 . S
C1490 C1491 1.391 . S
C1491 H1479 0.950 . S
C1491 C1487 1.393 . S
C1491 C1490 1.391 . S
H1492 C1500 0.950 . S
H1493 C1505 0.950 . S
H1494 C1502 0.950 . S
H1495 C1504 0.950 . S
H1496 C1506 0.950 . S
H1497 C1508 0.950 . S
H1498 C1510 0.950 . S
H1499 C1511 0.950 . S
C1500 H1492 0.950 . S
C1500 C1501 1.386 . S
C1500 C1502 1.391 . S
C1501 C1500 1.386 . S
C1501 C1505 1.393 . S
C1502 H1494 0.950 . S
C1502 C1500 1.391 . S
C1502 C1503 1.400 . S
C1503 C1502 1.400 . S
C1503 C1504 1.398 . S
C1503 C1509 1.491 . S
C1504 H1495 0.950 . S
C1504 C1503 1.398 . S
C1504 C1505 1.391 . S
C1505 H1493 0.950 . S
C1505 C1501 1.393 . S
C1505 C1504 1.391 . S
C1506 H1496 0.950 . S
C1506 C1507 1.386 . S
C1506 C1508 1.391 . S
C1507 C1506 1.386 . S
C1507 C1511 1.393 . S
C1508 H1497 0.950 . S
C1508 C1506 1.391 . S
C1508 C1509 1.400 . S
C1509 C1503 1.491 . S
C1509 C1508 1.400 . S
C1509 C1510 1.398 . S
C1510 H1498 0.950 . S
C1510 C1509 1.398 . S
C1510 C1511 1.391 . S
C1511 H1499 0.950 . S
C1511 C1507 1.393 . S
C1511 C1510 1.391 . S
H1512 C1520 0.950 . S
H1513 C1525 0.950 . S
H1514 C1522 0.950 . S
H1515 C1524 0.950 . S
H1516 C1526 0.950 . S
H1517 C1528 0.950 . S
H1518 C1530 0.950 . S
H1519 C1531 0.950 . S
C1520 H1512 0.950 . S
C1520 C1521 1.386 . S
C1520 C1522 1.391 . S
C1521 C1520 1.386 . S
C1521 C1525 1.393 . S
C1522 H1514 0.950 . S
C1522 C1520 1.391 . S
C1522 C1523 1.400 . S
C1523 C1522 1.400 . S
C1523 C1524 1.398 . S
C1523 C1529 1.491 . S
C1524 H1515 0.950 . S
C1524 C1523 1.398 . S
C1524 C1525 1.391 . S
C1525 H1513 0.950 . S
C1525 C1521 1.393 . S
C1525 C1524 1.391 . S
C1526 H1516 0.950 . S
C1526 C1527 1.386 . S
C1526 C1528 1.391 . S
C1527 C1526 1.386 . S
C1527 C1531 1.393 . S
C1528 H1517 0.950 . S
C1528 C1526 1.391 . S
C1528 C1529 1.400 . S
C1529 C1523 1.491 . S
C1529 C1528 1.400 . S
C1529 C1530 1.398 . S
C1530 H1518 0.950 . S
C1530 C1529 1.398 . S
C1530 C1531 1.391 . S
C1531 H1519 0.950 . S
C1531 C1527 1.393 . S
C1531 C1530 1.391 . S
H1532 C1540 0.950 . S
H1533 C1545 0.950 . S
H1534 C1542 0.950 . S
H1535 C1544 0.950 . S
H1536 C1546 0.950 . S
H1537 C1548 0.950 . S
H1538 C1550 0.950 . S
H1539 C1551 0.950 . S
C1540 H1532 0.950 . S
C1540 C1541 1.386 . S
C1540 C1542 1.391 . S
C1541 C1540 1.386 . S
C1541 C1545 1.393 . S
C1542 H1534 0.950 . S
C1542 C1540 1.391 . S
C1542 C1543 1.400 . S
C1543 C1542 1.400 . S
C1543 C1544 1.398 . S
C1543 C1549 1.491 . S
C1544 H1535 0.950 . S
C1544 C1543 1.398 . S
C1544 C1545 1.391 . S
C1545 H1533 0.950 . S
C1545 C1541 1.393 . S
C1545 C1544 1.391 . S
C1546 H1536 0.950 . S
C1546 C1547 1.386 . S
C1546 C1548 1.391 . S
C1547 C1546 1.386 . S
C1547 C1551 1.393 . S
C1548 H1537 0.950 . S
C1548 C1546 1.391 . S
C1548 C1549 1.400 . S
C1549 C1543 1.491 . S
C1549 C1548 1.400 . S
C1549 C1550 1.398 . S
C1550 H1538 0.950 . S
C1550 C1549 1.398 . S
C1550 C1551 1.391 . S
C1551 H1539 0.950 . S
C1551 C1547 1.393 . S
C1551 C1550 1.391 . S
H1552 C1560 0.950 . S
H1553 C1565 0.950 . S
H1554 C1562 0.950 . S
H1555 C1564 0.950 . S
H1556 C1566 0.950 . S
H1557 C1568 0.950 . S
H1558 C1570 0.950 . S
H1559 C1571 0.950 . S
C1560 H1552 0.950 . S
C1560 C1561 1.386 . S
C1560 C1562 1.391 . S
C1561 C1560 1.386 . S
C1561 C1565 1.393 . S
C1562 H1554 0.950 . S
C1562 C1560 1.391 . S
C1562 C1563 1.400 . S
C1563 C1562 1.400 . S
C1563 C1564 1.398 . S
C1563 C1569 1.491 . S
C1564 H1555 0.950 . S
C1564 C1563 1.398 . S
C1564 C1565 1.391 . S
C1565 H1553 0.950 . S
C1565 C1561 1.393 . S
C1565 C1564 1.391 . S
C1566 H1556 0.950 . S
C1566 C1567 1.386 . S
C1566 C1568 1.391 . S
C1567 C1566 1.386 . S
C1567 C1571 1.393 . S
C1568 H1557 0.950 . S
C1568 C1566 1.391 . S
C1568 C1569 1.400 . S
C1569 C1563 1.491 . S
C1569 C1568 1.400 . S
C1569 C1570 1.398 . S
C1570 H1558 0.950 . S
C1570 C1569 1.398 . S
C1570 C1571 1.391 . S
C1571 H1559 0.950 . S
C1571 C1567 1.393 . S
C1571 C1570 1.391 . S
H1572 C1580 0.950 . S
H1573 C1585 0.950 . S
H1574 C1582 0.950 . S
H1575 C1584 0.950 . S
H1576 C1586 0.950 . S
H1577 C1588 0.950 . S
H1578 C1590 0.950 . S
H1579 C1591 0.950 . S
C1580 H1572 0.950 . S
C1580 C1581 1.386 . S
C1580 C1582 1.391 . S
C1581 C1580 1.386 . S
C1581 C1585 1.393 . S
C1582 H1574 0.950 . S
C1582 C1580 1.391 . S
C1582 C1583 1.400 . S
C1583 C1582 1.400 . S
C1583 C1584 1.398 . S
C1583 C1589 1.491 . S
C1584 H1575 0.950 . S
C1584 C1583 1.398 . S
C1584 C1585 1.391 . S
C1585 H1573 0.950 . S
C1585 C1581 1.393 . S
C1585 C1584 1.391 . S
C1586 H1576 0.950 . S
C1586 C1587 1.386 . S
C1586 C1588 1.391 . S
C1587 C1586 1.386 . S
C1587 C1591 1.393 . S
C1588 H1577 0.950 . S
C1588 C1586 1.391 . S
C1588 C1589 1.400 . S
C1589 C1583 1.491 . S
C1589 C1588 1.400 . S
C1589 C1590 1.398 . S
C1590 H1578 0.950 . S
C1590 C1589 1.398 . S
C1590 C1591 1.391 . S
C1591 H1579 0.950 . S
C1591 C1587 1.393 . S
C1591 C1590 1.391 . S
H1592 C1600 0.950 . S
H1593 C1605 0.950 . S
H1594 C1602 0.950 . S
H1595 C1604 0.950 . S
H1596 C1606 0.950 . S
H1597 C1608 0.950 . S
H1598 C1610 0.950 . S
H1599 C1611 0.950 . S
C1600 H1592 0.950 . S
C1600 C1601 1.386 . S
C1600 C1602 1.391 . S
C1601 C1600 1.386 . S
C1601 C1605 1.393 . S
C1602 H1594 0.950 . S
C1602 C1600 1.391 . S
C1602 C1603 1.400 . S
C1603 C1602 1.400 . S
C1603 C1604 1.398 . S
C1603 C1609 1.491 . S
C1604 H1595 0.950 . S
C1604 C1603 1.398 . S
C1604 C1605 1.391 . S
C1605 H1593 0.950 . S
C1605 C1601 1.393 . S
C1605 C1604 1.391 . S
C1606 H1596 0.950 . S
C1606 C1607 1.386 . S
C1606 C1608 1.391 . S
C1607 C1606 1.386 . S
C1607 C1611 1.393 . S
C1608 H1597 0.950 . S
C1608 C1606 1.391 . S
C1608 C1609 1.400 . S
C1609 C1603 1.491 . S
C1609 C1608 1.400 . S
C1609 C1610 1.398 . S
C1610 H1598 0.950 . S
C1610 C1609 1.398 . S
C1610 C1611 1.391 . S
C1611 H1599 0.950 . S
C1611 C1607 1.393 . S
C1611 C1610 1.391 . S
H1612 C1620 0.950 . S
H1613 C1625 0.950 . S
H1614 C1622 0.950 . S
H1615 C1624 0.950 . S
H1616 C1626 0.950 . S
H1617 C1628 0.950 . S
H1618 C1630 0.950 . S
H1619 C1631 0.950 . S
C1620 H1612 0.950 . S
C1620 C1621 1.386 . S
C1620 C1622 1.391 . S
C1621 C1620 1.386 . S
C1621 C1625 1.393 . S
C1622 H1614 0.950 . S
C1622 C1620 1.391 . S
C1622 C1623 1.400 . S
C1623 C1622 1.400 . S
C1623 C1624 1.398 . S
C1623 C1629 1.491 . S
C1624 H1615 0.950 . S
C1624 C1623 1.398 . S
C1624 C1625 1.391 . S
C1625 H1613 0.950 . S
C1625 C1621 1.393 . S
C1625 C1624 1.391 . S
C1626 H1616 0.950 . S
C1626 C1627 1.386 . S
C1626 C1628 1.391 . S
C1627 C1626 1.386 . S
C1627 C1631 1.393 . S
C1628 H1617 0.950 . S
C1628 C1626 1.391 . S
C1628 C1629 1.400 . S
C1629 C1623 1.491 . S
C1629 C1628 1.400 . S
C1629 C1630 1.398 . S
C1630 H1618 0.950 . S
C1630 C1629 1.398 . S
C1630 C1631 1.391 . S
C1631 H1619 0.950 . S
C1631 C1627 1.393 . S
C1631 C1630 1.391 . S
H1632 C1640 0.950 . S
H1633 C1645 0.950 . S
H1634 C1642 0.950 . S
H1635 C1644 0.950 . S
H1636 C1646 0.950 . S
H1637 C1648 0.950 . S
H1638 C1650 0.950 . S
H1639 C1651 0.950 . S
C1640 H1632 0.950 . S
C1640 C1641 1.386 . S
C1640 C1642 1.391 . S
C1641 C1640 1.386 . S
C1641 C1645 1.393 . S
C1642 H1634 0.950 . S
C1642 C1640 1.391 . S
C1642 C1643 1.400 . S
C1643 C1642 1.400 . S
C1643 C1644 1.398 . S
C1643 C1649 1.491 . S
C1644 H1635 0.950 . S
C1644 C1643 1.398 . S
C1644 C1645 1.391 . S
C1645 H1633 0.950 . S
C1645 C1641 1.393 . S
C1645 C1644 1.391 . S
C1646 H1636 0.950 . S
C1646 C1647 1.386 . S
C1646 C1648 1.391 . S
C1647 C1646 1.386 . S
C1647 C1651 1.393 . S
C1648 H1637 0.950 . S
C1648 C1646 1.391 . S
C1648 C1649 1.400 . S
C1649 C1643 1.491 . S
C1649 C1648 1.400 . S
C1649 C1650 1.398 . S
C1650 H1638 0.950 . S
C1650 C1649 1.398 . S
C1650 C1651 1.391 . S
C1651 H1639 0.950 . S
C1651 C1647 1.393 . S
C1651 C1650 1.391 . S
H1652 C1660 0.950 . S
H1653 C1665 0.950 . S
H1654 C1662 0.950 . S
H1655 C1664 0.950 . S
H1656 C1666 0.950 . S
H1657 C1668 0.950 . S
H1658 C1670 0.950 . S
H1659 C1671 0.950 . S
C1660 H1652 0.950 . S
C1660 C1661 1.386 . S
C1660 C1662 1.391 . S
C1661 C1660 1.386 . S
C1661 C1665 1.393 . S
C1662 H1654 0.950 . S
C1662 C1660 1.391 . S
C1662 C1663 1.400 . S
C1663 C1662 1.400 . S
C1663 C1664 1.398 . S
C1663 C1669 1.491 . S
C1664 H1655 0.950 . S
C1664 C1663 1.398 . S
C1664 C1665 1.391 . S
C1665 H1653 0.950 . S
C1665 C1661 1.393 . S
C1665 C1664 1.391 . S
C1666 H1656 0.950 . S
C1666 C1667 1.386 . S
C1666 C1668 1.391 . S
C1667 C1666 1.386 . S
C1667 C1671 1.393 . S
C1668 H1657 0.950 . S
C1668 C1666 1.391 . S
C1668 C1669 1.400 . S
C1669 C1663 1.491 . S
C1669 C1668 1.400 . S
C1669 C1670 1.398 . S
C1670 H1658 0.950 . S
C1670 C1669 1.398 . S
C1670 C1671 1.391 . S
C1671 H1659 0.950 . S
C1671 C1667 1.393 . S
C1671 C1670 1.391 . S
H1672 C1680 0.950 . S
H1673 C1685 0.950 . S
H1674 C1682 0.950 . S
H1675 C1684 0.950 . S
H1676 C1686 0.950 . S
H1677 C1688 0.950 . S
H1678 C1690 0.950 . S
H1679 C1691 0.950 . S
C1680 H1672 0.950 . S
C1680 C1681 1.386 . S
C1680 C1682 1.391 . S
C1681 C1680 1.386 . S
C1681 C1685 1.393 . S
C1682 H1674 0.950 . S
C1682 C1680 1.391 . S
C1682 C1683 1.400 . S
C1683 C1682 1.400 . S
C1683 C1684 1.398 . S
C1683 C1689 1.491 . S
C1684 H1675 0.950 . S
C1684 C1683 1.398 . S
C1684 C1685 1.391 . S
C1685 H1673 0.950 . S
C1685 C1681 1.393 . S
C1685 C1684 1.391 . S
C1686 H1676 0.950 . S
C1686 C1687 1.386 . S
C1686 C1688 1.391 . S
C1687 C1686 1.386 . S
C1687 C1691 1.393 . S
C1688 H1677 0.950 . S
C1688 C1686 1.391 . S
C1688 C1689 1.400 . S
C1689 C1683 1.491 . S
C1689 C1688 1.400 . S
C1689 C1690 1.398 . S
C1690 H1678 0.950 . S
C1690 C1689 1.398 . S
C1690 C1691 1.391 . S
C1691 H1679 0.950 . S
C1691 C1687 1.393 . S
C1691 C1690 1.391 . S
H1692 C1700 0.950 . S
H1693 C1705 0.950 . S
H1694 C1702 0.950 . S
H1695 C1704 0.950 . S
H1696 C1706 0.950 . S
H1697 C1708 0.950 . S
H1698 C1710 0.950 . S
H1699 C1711 0.950 . S
C1700 H1692 0.950 . S
C1700 C1701 1.386 . S
C1700 C1702 1.391 . S
C1701 C1700 1.386 . S
C1701 C1705 1.393 . S
C1702 H1694 0.950 . S
C1702 C1700 1.391 . S
C1702 C1703 1.400 . S
C1703 C1702 1.400 . S
C1703 C1704 1.398 . S
C1703 C1709 1.491 . S
C1704 H1695 0.950 . S
C1704 C1703 1.398 . S
C1704 C1705 1.391 . S
C1705 H1693 0.950 . S
C1705 C1701 1.393 . S
C1705 C1704 1.391 . S
C1706 H1696 0.950 . S
C1706 C1707 1.386 . S
C1706 C1708 1.391 . S
C1707 C1706 1.386 . S
C1707 C1711 1.393 . S
C1708 H1697 0.950 . S
C1708 C1706 1.391 . S
C1708 C1709 1.400 . S
C1709 C1703 1.491 . S
C1709 C1708 1.400 . S
C1709 C1710 1.398 . S
C1710 H1698 0.950 . S
C1710 C1709 1.398 . S
C1710 C1711 1.391 . S
C1711 H1699 0.950 . S
C1711 C1707 1.393 . S
C1711 C1710 1.391 . S
H1712 C1720 0.950 . S
H1713 C1725 0.950 . S
H1714 C1722 0.950 . S
H1715 C1724 0.950 . S
H1716 C1726 0.950 . S
H1717 C1728 0.950 . S
H1718 C1730 0.950 . S
H1719 C1731 0.950 . S
C1720 H1712 0.950 . S
C1720 C1721 1.386 . S
C1720 C1722 1.391 . S
C1721 C1720 1.386 . S
C1721 C1725 1.393 . S
C1722 H1714 0.950 . S
C1722 C1720 1.391 . S
C1722 C1723 1.400 . S
C1723 C1722 1.400 . S
C1723 C1724 1.398 . S
C1723 C1729 1.491 . S
C1724 H1715 0.950 . S
C1724 C1723 1.398 . S
C1724 C1725 1.391 . S
C1725 H1713 0.950 . S
C1725 C1721 1.393 . S
C1725 C1724 1.391 . S
C1726 H1716 0.950 . S
C1726 C1727 1.386 . S
C1726 C1728 1.391 . S
C1727 C1726 1.386 . S
C1727 C1731 1.393 . S
C1728 H1717 0.950 . S
C1728 C1726 1.391 . S
C1728 C1729 1.400 . S
C1729 C1723 1.491 . S
C1729 C1728 1.400 . S
C1729 C1730 1.398 . S
C1730 H1718 0.950 . S
C1730 C1729 1.398 . S
C1730 C1731 1.391 . S
C1731 H1719 0.950 . S
C1731 C1727 1.393 . S
C1731 C1730 1.391 . S
H1732 C1740 0.950 . S
H1733 C1745 0.950 . S
H1734 C1742 0.950 . S
H1735 C1744 0.950 . S
H1736 C1746 0.950 . S
H1737 C1748 0.950 . S
H1738 C1750 0.950 . S
H1739 C1751 0.950 . S
C1740 H1732 0.950 . S
C1740 C1741 1.386 . S
C1740 C1742 1.391 . S
C1741 C1740 1.386 . S
C1741 C1745 1.393 . S
C1742 H1734 0.950 . S
C1742 C1740 1.391 . S
C1742 C1743 1.400 . S
C1743 C1742 1.400 . S
C1743 C1744 1.398 . S
C1743 C1749 1.491 . S
C1744 H1735 0.950 . S
C1744 C1743 1.398 . S
C1744 C1745 1.391 . S
C1745 H1733 0.950 . S
C1745 C1741 1.393 . S
C1745 C1744 1.391 . S
C1746 H1736 0.950 . S
C1746 C1747 1.386 . S
C1746 C1748 1.391 . S
C1747 C1746 1.386 . S
C1747 C1751 1.393 . S
C1748 H1737 0.950 . S
C1748 C1746 1.391 . S
C1748 C1749 1.400 . S
C1749 C1743 1.491 . S
C1749 C1748 1.400 . S
C1749 C1750 1.398 . S
C1750 H1738 0.950 . S
C1750 C1749 1.398 . S
C1750 C1751 1.391 . S
C1751 H1739 0.950 . S
C1751 C1747 1.393 . S
C1751 C1750 1.391 . S
H1752 C1760 0.950 . S
H1753 C1765 0.950 . S
H1754 C1762 0.950 . S
H1755 C1764 0.950 . S
H1756 C1766 0.950 . S
H1757 C1768 0.950 . S
H1758 C1770 0.950 . S
H1759 C1771 0.950 . S
C1760 H1752 0.950 . S
C1760 C1761 1.386 . S
C1760 C1762 1.391 . S
C1761 C1760 1.386 . S
C1761 C1765 1.393 . S
C1762 H1754 0.950 . S
C1762 C1760 1.391 . S
C1762 C1763 1.400 . S
C1763 C1762 1.400 . S
C1763 C1764 1.398 . S
C1763 C1769 1.491 . S
C1764 H1755 0.950 . S
C1764 C1763 1.398 . S
C1764 C1765 1.391 . S
C1765 H1753 0.950 . S
C1765 C1761 1.393 . S
C1765 C1764 1.391 . S
C1766 H1756 0.950 . S
C1766 C1767 1.386 . S
C1766 C1768 1.391 . S
C1767 C1766 1.386 . S
C1767 C1771 1.393 . S
C1768 H1757 0.950 . S
C1768 C1766 1.391 . S
C1768 C1769 1.400 . S
C1769 C1763 1.491 . S
C1769 C1768 1.400 . S
C1769 C1770 1.398 . S
C1770 H1758 0.950 . S
C1770 C1769 1.398 . S
C1770 C1771 1.391 . S
C1771 H1759 0.950 . S
C1771 C1767 1.393 . S
C1771 C1770 1.391 . S
H1772 C1780 0.950 . S
H1773 C1785 0.950 . S
H1774 C1782 0.950 . S
H1775 C1784 0.950 . S
H1776 C1786 0.950 . S
H1777 C1788 0.950 . S
H1778 C1790 0.950 . S
H1779 C1791 0.950 . S
C1780 H1772 0.950 . S
C1780 C1781 1.386 . S
C1780 C1782 1.391 . S
C1781 C1780 1.386 . S
C1781 C1785 1.393 . S
C1782 H1774 0.950 . S
C1782 C1780 1.391 . S
C1782 C1783 1.400 . S
C1783 C1782 1.400 . S
C1783 C1784 1.398 . S
C1783 C1789 1.491 . S
C1784 H1775 0.950 . S
C1784 C1783 1.398 . S
C1784 C1785 1.391 . S
C1785 H1773 0.950 . S
C1785 C1781 1.393 . S
C1785 C1784 1.391 . S
C1786 H1776 0.950 . S
C1786 C1787 1.386 . S
C1786 C1788 1.391 . S
C1787 C1786 1.386 . S
C1787 C1791 1.393 . S
C1788 H1777 0.950 . S
C1788 C1786 1.391 . S
C1788 C1789 1.400 . S
C1789 C1783 1.491 . S
C1789 C1788 1.400 . S
C1789 C1790 1.398 . S
C1790 H1778 0.950 . S
C1790 C1789 1.398 . S
C1790 C1791 1.391 . S
C1791 H1779 0.950 . S
C1791 C1787 1.393 . S
C1791 C1790 1.391 . S
H1792 C1800 0.950 . S
H1793 C1805 0.950 . S
H1794 C1802 0.950 . S
H1795 C1804 0.950 . S
H1796 C1806 0.950 . S
H1797 C1808 0.950 . S
H1798 C1810 0.950 . S
H1799 C1811 0.950 . S
C1800 H1792 0.950 . S
C1800 C1801 1.386 . S
C1800 C1802 1.391 . S
C1801 C1800 1.386 . S
C1801 C1805 1.393 . S
C1802 H1794 0.950 . S
C1802 C1800 1.391 . S
C1802 C1803 1.400 . S
C1803 C1802 1.400 . S
C1803 C1804 1.398 . S
C1803 C1809 1.491 . S
C1804 H1795 0.950 . S
C1804 C1803 1.398 . S
C1804 C1805 1.391 . S
C1805 H1793 0.950 . S
C1805 C1801 1.393 . S
C1805 C1804 1.391 . S
C1806 H1796 0.950 . S
C1806 C1807 1.386 . S
C1806 C1808 1.391 . S
C1807 C1806 1.386 . S
C1807 C1811 1.393 . S
C1808 H1797 0.950 . S
C1808 C1806 1.391 . S
C1808 C1809 1.400 . S
C1809 C1803 1.491 . S
C1809 C1808 1.400 . S
C1809 C1810 1.398 . S
C1810 H1798 0.950 . S
C1810 C1809 1.398 . S
C1810 C1811 1.391 . S
C1811 H1799 0.950 . S
C1811 C1807 1.393 . S
C1811 C1810 1.391 . S
H1812 C1820 0.950 . S
H1813 C1825 0.950 . S
H1814 C1822 0.950 . S
H1815 C1824 0.950 . S
H1816 C1826 0.950 . S
H1817 C1828 0.950 . S
H1818 C1830 0.950 . S
H1819 C1831 0.950 . S
C1820 H1812 0.950 . S
C1820 C1821 1.386 . S
C1820 C1822 1.391 . S
C1821 C1820 1.386 . S
C1821 C1825 1.393 . S
C1822 H1814 0.950 . S
C1822 C1820 1.391 . S
C1822 C1823 1.400 . S
C1823 C1822 1.400 . S
C1823 C1824 1.398 . S
C1823 C1829 1.491 . S
C1824 H1815 0.950 . S
C1824 C1823 1.398 . S
C1824 C1825 1.391 . S
C1825 H1813 0.950 . S
C1825 C1821 1.393 . S
C1825 C1824 1.391 . S
C1826 H1816 0.950 . S
C1826 C1827 1.386 . S
C1826 C1828 1.391 . S
C1827 C1826 1.386 . S
C1827 C1831 1.393 . S
C1828 H1817 0.950 . S
C1828 C1826 1.391 . S
C1828 C1829 1.400 . S
C1829 C1823 1.491 . S
C1829 C1828 1.400 . S
C1829 C1830 1.398 . S
C1830 H1818 0.950 . S
C1830 C1829 1.398 . S
C1830 C1831 1.391 . S
C1831 H1819 0.950 . S
C1831 C1827 1.393 . S
C1831 C1830 1.391 . S
H1832 C1840 0.950 . S
H1833 C1845 0.950 . S
H1834 C1842 0.950 . S
H1835 C1844 0.950 . S
H1836 C1846 0.950 . S
H1837 C1848 0.950 . S
H1838 C1850 0.950 . S
H1839 C1851 0.950 . S
C1840 H1832 0.950 . S
C1840 C1841 1.386 . S
C1840 C1842 1.391 . S
C1841 C1840 1.386 . S
C1841 C1845 1.393 . S
C1842 H1834 0.950 . S
C1842 C1840 1.391 . S
C1842 C1843 1.400 . S
C1843 C1842 1.400 . S
C1843 C1844 1.398 . S
C1843 C1849 1.491 . S
C1844 H1835 0.950 . S
C1844 C1843 1.398 . S
C1844 C1845 1.391 . S
C1845 H1833 0.950 . S
C1845 C1841 1.393 . S
C1845 C1844 1.391 . S
C1846 H1836 0.950 . S
C1846 C1847 1.386 . S
C1846 C1848 1.391 . S
C1847 C1846 1.386 . S
C1847 C1851 1.393 . S
C1848 H1837 0.950 . S
C1848 C1846 1.391 . S
C1848 C1849 1.400 . S
C1849 C1843 1.491 . S
C1849 C1848 1.400 . S
C1849 C1850 1.398 . S
C1850 H1838 0.950 . S
C1850 C1849 1.398 . S
C1850 C1851 1.391 . S
C1851 H1839 0.950 . S
C1851 C1847 1.393 . S
C1851 C1850 1.391 . S
H1852 C1860 0.950 . S
H1853 C1865 0.950 . S
H1854 C1862 0.950 . S
H1855 C1864 0.950 . S
H1856 C1866 0.950 . S
H1857 C1868 0.950 . S
H1858 C1870 0.950 . S
H1859 C1871 0.950 . S
C1860 H1852 0.950 . S
C1860 C1861 1.386 . S
C1860 C1862 1.391 . S
C1861 C1860 1.386 . S
C1861 C1865 1.393 . S
C1862 H1854 0.950 . S
C1862 C1860 1.391 . S
C1862 C1863 1.400 . S
C1863 C1862 1.400 . S
C1863 C1864 1.398 . S
C1863 C1869 1.491 . S
C1864 H1855 0.950 . S
C1864 C1863 1.398 . S
C1864 C1865 1.391 . S
C1865 H1853 0.950 . S
C1865 C1861 1.393 . S
C1865 C1864 1.391 . S
C1866 H1856 0.950 . S
C1866 C1867 1.386 . S
C1866 C1868 1.391 . S
C1867 C1866 1.386 . S
C1867 C1871 1.393 . S
C1868 H1857 0.950 . S
C1868 C1866 1.391 . S
C1868 C1869 1.400 . S
C1869 C1863 1.491 . S
C1869 C1868 1.400 . S
C1869 C1870 1.398 . S
C1870 H1858 0.950 . S
C1870 C1869 1.398 . S
C1870 C1871 1.391 . S
C1871 H1859 0.950 . S
C1871 C1867 1.393 . S
C1871 C1870 1.391 . S
H1872 C1880 0.950 . S
H1873 C1885 0.950 . S
H1874 C1882 0.950 . S
H1875 C1884 0.950 . S
H1876 C1886 0.950 . S
H1877 C1888 0.950 . S
H1878 C1890 0.950 . S
H1879 C1891 0.950 . S
C1880 H1872 0.950 . S
C1880 C1881 1.386 . S
C1880 C1882 1.391 . S
C1881 C1880 1.386 . S
C1881 C1885 1.393 . S
C1882 H1874 0.950 . S
C1882 C1880 1.391 . S
C1882 C1883 1.400 . S
C1883 C1882 1.400 . S
C1883 C1884 1.398 . S
C1883 C1889 1.491 . S
C1884 H1875 0.950 . S
C1884 C1883 1.398 . S
C1884 C1885 1.391 . S
C1885 H1873 0.950 . S
C1885 C1881 1.393 . S
C1885 C1884 1.391 . S
C1886 H1876 0.950 . S
C1886 C1887 1.386 . S
C1886 C1888 1.391 . S
C1887 C1886 1.386 . S
C1887 C1891 1.393 . S
C1888 H1877 0.950 . S
C1888 C1886 1.391 . S
C1888 C1889 1.400 . S
C1889 C1883 1.491 . S
C1889 C1888 1.400 . S
C1889 C1890 1.398 . S
C1890 H1878 0.950 . S
C1890 C1889 1.398 . S
C1890 C1891 1.391 . S
C1891 H1879 0.950 . S
C1891 C1887 1.393 . S
C1891 C1890 1.391 . S
H1892 C1900 0.950 . S
H1893 C1905 0.950 . S
H1894 C1902 0.950 . S
H1895 C1904 0.950 . S
H1896 C1906 0.950 . S
H1897 C1908 0.950 . S
H1898 C1910 0.950 . S
H1899 C1911 0.950 . S
C1900 H1892 0.950 . S
C1900 C1901 1.386 . S
C1900 C1902 1.391 . S
C1901 C1900 1.386 . S
C1901 C1905 1.393 . S
C1902 H1894 0.950 . S
C1902 C1900 1.391 . S
C1902 C1903 1.400 . S
C1903 C1902 1.400 . S
C1903 C1904 1.398 . S
C1903 C1909 1.491 . S
C1904 H1895 0.950 . S
C1904 C1903 1.398 . S
C1904 C1905 1.391 . S
C1905 H1893 0.950 . S
C1905 C1901 1.393 . S
C1905 C1904 1.391 . S
C1906 H1896 0.950 . S
C1906 C1907 1.386 . S
C1906 C1908 1.391 . S
C1907 C1906 1.386 . S
C1907 C1911 1.393 . S
C1908 H1897 0.950 . S
C1908 C1906 1.391 . S
C1908 C1909 1.400 . S
C1909 C1903 1.491 . S
C1909 C1908 1.400 . S
C1909 C1910 1.398 . S
C1910 H1898 0.950 . S
C1910 C1909 1.398 . S
C1910 C1911 1.391 . S
C1911 H1899 0.950 . S
C1911 C1907 1.393 . S
C1911 C1910 1.391 . S
H1912 C1920 0.950 . S
H1913 C1925 0.950 . S
H1914 C1922 0.950 . S
H1915 C1924 0.950 . S
H1916 C1926 0.950 . S
H1917 C1928 0.950 . S
H1918 C1930 0.950 . S
H1919 C1931 0.950 . S
C1920 H1912 0.950 . S
C1920 C1921 1.386 . S
C1920 C1922 1.391 . S
C1921 C1920 1.386 . S
C1921 C1925 1.393 . S
C1922 H1914 0.950 . S
C1922 C1920 1.391 . S
C1922 C1923 1.400 . S
C1923 C1922 1.400 . S
C1923 C1924 1.398 . S
C1923 C1929 1.491 . S
C1924 H1915 0.950 . S
C1924 C1923 1.398 . S
C1924 C1925 1.391 . S
C1925 H1913 0.950 . S
C1925 C1921 1.393 . S
C1925 C1924 1.391 . S
C1926 H1916 0.950 . S
C1926 C1927 1.386 . S
C1926 C1928 1.391 . S
C1927 C1926 1.386 . S
C1927 C1931 1.393 . S
C1928 H1917 0.950 . S
C1928 C1926 1.391 . S
C1928 C1929 1.400 . S
C1929 C1923 1.491 . S
C1929 C1928 1.400 . S
C1929 C1930 1.398 . S
C1930 H1918 0.950 . S
C1930 C1929 1.398 . S
C1930 C1931 1.391 . S
C1931 H1919 0.950 . S
C1931 C1927 1.393 . S
C1931 C1930 1.391 . S
H1932 C1940 0.950 . S
H1933 C1945 0.950 . S
H1934 C1942 0.950 . S
H1935 C1944 0.950 . S
H1936 C1946 0.950 . S
H1937 C1948 0.950 . S
H1938 C1950 0.950 . S
H1939 C1951 0.950 . S
C1940 H1932 0.950 . S
C1940 C1941 1.386 . S
C1940 C1942 1.391 . S
C1941 C1940 1.386 . S
C1941 C1945 1.393 . S
C1942 H1934 0.950 . S
C1942 C1940 1.391 . S
C1942 C1943 1.400 . S
C1943 C1942 1.400 . S
C1943 C1944 1.398 . S
C1943 C1949 1.491 . S
C1944 H1935 0.950 . S
C1944 C1943 1.398 . S
C1944 C1945 1.391 . S
C1945 H1933 0.950 . S
C1945 C1941 1.393 . S
C1945 C1944 1.391 . S
C1946 H1936 0.950 . S
C1946 C1947 1.386 . S
C1946 C1948 1.391 . S
C1947 C1946 1.386 . S
C1947 C1951 1.393 . S
C1948 H1937 0.950 . S
C1948 C1946 1.391 . S
C1948 C1949 1.400 . S
C1949 C1943 1.491 . S
C1949 C1948 1.400 . S
C1949 C1950 1.398 . S
C1950 H1938 0.950 . S
C1950 C1949 1.398 . S
C1950 C1951 1.391 . S
C1951 H1939 0.950 . S
C1951 C1947 1.393 . S
C1951 C1950 1.391 . S
H1952 C1960 0.950 . S
H1953 C1965 0.950 . S
H1954 C1962 0.950 . S
H1955 C1964 0.950 . S
H1956 C1966 0.950 . S
H1957 C1968 0.950 . S
H1958 C1970 0.950 . S
H1959 C1971 0.950 . S
C1960 H1952 0.950 . S
C1960 C1961 1.386 . S
C1960 C1962 1.391 . S
C1961 C1960 1.386 . S
C1961 C1965 1.393 . S
C1962 H1954 0.950 . S
C1962 C1960 1.391 . S
C1962 C1963 1.400 . S
C1963 C1962 1.400 . S
C1963 C1964 1.398 . S
C1963 C1969 1.491 . S
C1964 H1955 0.950 . S
C1964 C1963 1.398 . S
C1964 C1965 1.391 . S
C1965 H1953 0.950 . S
C1965 C1961 1.393 . S
C1965 C1964 1.391 . S
C1966 H1956 0.950 . S
C1966 C1967 1.386 . S
C1966 C1968 1.391 . S
C1967 C1966 1.386 . S
C1967 C1971 1.393 . S
C1968 H1957 0.950 . S
C1968 C1966 1.391 . S
C1968 C1969 1.400 . S
C1969 C1963 1.491 . S
C1969 C1968 1.400 . S
C1969 C1970 1.398 . S
C1970 H1958 0.950 . S
C1970 C1969 1.398 . S
C1970 C1971 1.391 . S
C1971 H1959 0.950 . S
C1971 C1967 1.393 . S
C1971 C1970 1.391 . S
H1972 C1980 0.950 . S
H1973 C1985 0.950 . S
H1974 C1982 0.950 . S
H1975 C1984 0.950 . S
H1976 C1986 0.950 . S
H1977 C1988 0.950 . S
H1978 C1990 0.950 . S
H1979 C1991 0.950 . S
C1980 H1972 0.950 . S
C1980 C1981 1.386 . S
C1980 C1982 1.391 . S
C1981 C1980 1.386 . S
C1981 C1985 1.393 . S
C1982 H1974 0.950 . S
C1982 C1980 1.391 . S
C1982 C1983 1.400 . S
C1983 C1982 1.400 . S
C1983 C1984 1.398 . S
C1983 C1989 1.491 . S
C1984 H1975 0.950 . S
C1984 C1983 1.398 . S
C1984 C1985 1.391 . S
C1985 H1973 0.950 . S
C1985 C1981 1.393 . S
C1985 C1984 1.391 . S
C1986 H1976 0.950 . S
C1986 C1987 1.386 . S
C1986 C1988 1.391 . S
C1987 C1986 1.386 . S
C1987 C1991 1.393 . S
C1988 H1977 0.950 . S
C1988 C1986 1.391 . S
C1988 C1989 1.400 . S
C1989 C1983 1.491 . S
C1989 C1988 1.400 . S
C1989 C1990 1.398 . S
C1990 H1978 0.950 . S
C1990 C1989 1.398 . S
C1990 C1991 1.391 . S
C1991 H1979 0.950 . S
C1991 C1987 1.393 . S
C1991 C1990 1.391 . S
H1992 C2000 0.950 . S
H1993 C2005 0.950 . S
H1994 C2002 0.950 . S
H1995 C2004 0.950 . S
H1996 C2006 0.950 . S
H1997 C2008 0.950 . S
H1998 C2010 0.950 . S
H1999 C2011 0.950 . S
C2000 H1992 0.950 . S
C2000 C2001 1.386 . S
C2000 C2002 1.391 . S
C2001 C2000 1.386 . S
C2001 C2005 1.393 . S
C2002 H1994 0.950 . S
C2002 C2000 1.391 . S
C2002 C2003 1.400 . S
C2003 C2002 1.400 . S
C2003 C2004 1.398 . S
C2003 C2009 1.491 . S
C2004 H1995 0.950 . S
C2004 C2003 1.398 . S
C2004 C2005 1.391 . S
C2005 H1993 0.950 . S
C2005 C2001 1.393 . S
C2005 C2004 1.391 . S
C2006 H1996 0.950 . S
C2006 C2007 1.386 . S
C2006 C2008 1.391 . S
C2007 C2006 1.386 . S
C2007 C2011 1.393 . S
C2008 H1997 0.950 . S
C2008 C2006 1.391 . S
C2008 C2009 1.400 . S
C2009 C2003 1.491 . S
C2009 C2008 1.400 . S
C2009 C2010 1.398 . S
C2010 H1998 0.950 . S
C2010 C2009 1.398 . S
C2010 C2011 1.391 . S
C2011 H1999 0.950 . S
C2011 C2007 1.393 . S
C2011 C2010 1.391 . S
H2012 C2020 0.950 . S
H2013 C2025 0.950 . S
H2014 C2022 0.950 . S
H2015 C2024 0.950 . S
H2016 C2026 0.950 . S
H2017 C2028 0.950 . S
H2018 C2030 0.950 . S
H2019 C2031 0.950 . S
C2020 H2012 0.950 . S
C2020 C2021 1.386 . S
C2020 C2022 1.391 . S
C2021 C2020 1.386 . S
C2021 C2025 1.393 . S
C2022 H2014 0.950 . S
C2022 C2020 1.391 . S
C2022 C2023 1.400 . S
C2023 C2022 1.400 . S
C2023 C2024 1.398 . S
C2023 C2029 1.491 . S
C2024 H2015 0.950 . S
C2024 C2023 1.398 . S
C2024 C2025 1.391 . S
C2025 H2013 0.950 . S
C2025 C2021 1.393 . S
C2025 C2024 1.391 . S
C2026 H2016 0.950 . S
C2026 C2027 1.386 . S
C2026 C2028 1.391 . S
C2027 C2026 1.386 . S
C2027 C2031 1.393 . S
C2028 H2017 0.950 . S
C2028 C2026 1.391 . S
C2028 C2029 1.400 . S
C2029 C2023 1.491 . S
C2029 C2028 1.400 . S
C2029 C2030 1.398 . S
C2030 H2018 0.950 . S
C2030 C2029 1.398 . S
C2030 C2031 1.391 . S
C2031 H2019 0.950 . S
C2031 C2027 1.393 . S
C2031 C2030 1.391 . S
H2032 C2040 0.950 . S
H2033 C2045 0.950 . S
H2034 C2042 0.950 . S
H2035 C2044 0.950 . S
H2036 C2046 0.950 . S
H2037 C2048 0.950 . S
H2038 C2050 0.950 . S
H2039 C2051 0.950 . S
C2040 H2032 0.950 . S
C2040 C2041 1.386 . S
C2040 C2042 1.391 . S
C2041 C2040 1.386 . S
C2041 C2045 1.393 . S
C2042 H2034 0.950 . S
C2042 C2040 1.391 . S
C2042 C2043 1.400 . S
C2043 C2042 1.400 . S
C2043 C2044 1.398 . S
C2043 C2049 1.491 . S
C2044 H2035 0.950 . S
C2044 C2043 1.398 . S
C2044 C2045 1.391 . S
C2045 H2033 0.950 . S
C2045 C2041 1.393 . S
C2045 C2044 1.391 . S
C2046 H2036 0.950 . S
C2046 C2047 1.386 . S
C2046 C2048 1.391 . S
C2047 C2046 1.386 . S
C2047 C2051 1.393 . S
C2048 H2037 0.950 . S
C2048 C2046 1.391 . S
C2048 C2049 1.400 . S
C2049 C2043 1.491 . S
C2049 C2048 1.400 . S
C2049 C2050 1.398 . S
C2050 H2038 0.950 . S
C2050 C2049 1.398 . S
C2050 C2051 1.391 . S
C2051 H2039 0.950 . S
C2051 C2047 1.393 . S
C2051 C2050 1.391 . S
H2052 C2060 0.950 . S
H2053 C2065 0.950 . S
H2054 C2062 0.950 . S
H2055 C2064 0.950 . S
H2056 C2066 0.950 . S
H2057 C2068 0.950 . S
H2058 C2070 0.950 . S
H2059 C2071 0.950 . S
C2060 H2052 0.950 . S
C2060 C2061 1.386 . S
C2060 C2062 1.391 . S
C2061 C2060 1.386 . S
C2061 C2065 1.393 . S
C2062 H2054 0.950 . S
C2062 C2060 1.391 . S
C2062 C2063 1.400 . S
C2063 C2062 1.400 . S
C2063 C2064 1.398 . S
C2063 C2069 1.491 . S
C2064 H2055 0.950 . S
C2064 C2063 1.398 . S
C2064 C2065 1.391 . S
C2065 H2053 0.950 . S
C2065 C2061 1.393 . S
C2065 C2064 1.391 . S
C2066 H2056 0.950 . S
C2066 C2067 1.386 . S
C2066 C2068 1.391 . S
C2067 C2066 1.386 . S
C2067 C2071 1.393 . S
C2068 H2057 0.950 . S
C2068 C2066 1.391 . S
C2068 C2069 1.400 . S
C2069 C2063 1.491 . S
C2069 C2068 1.400 . S
C2069 C2070 1.398 . S
C2070 H2058 0.950 . S
C2070 C2069 1.398 . S
C2070 C2071 1.391 . S
C2071 H2059 0.950 . S
C2071 C2067 1.393 . S
C2071 C2070 1.391 . S
H2072 C2080 0.950 . S
H2073 C2085 0.950 . S
H2074 C2082 0.950 . S
H2075 C2084 0.950 . S
H2076 C2086 0.950 . S
H2077 C2088 0.950 . S
H2078 C2090 0.950 . S
H2079 C2091 0.950 . S
C2080 H2072 0.950 . S
C2080 C2081 1.386 . S
C2080 C2082 1.391 . S
C2081 C2080 1.386 . S
C2081 C2085 1.393 . S
C2082 H2074 0.950 . S
C2082 C2080 1.391 . S
C2082 C2083 1.400 . S
C2083 C2082 1.400 . S
C2083 C2084 1.398 . S
C2083 C2089 1.491 . S
C2084 H2075 0.950 . S
C2084 C2083 1.398 . S
C2084 C2085 1.391 . S
C2085 H2073 0.950 . S
C2085 C2081 1.393 . S
C2085 C2084 1.391 . S
C2086 H2076 0.950 . S
C2086 C2087 1.386 . S
C2086 C2088 1.391 . S
C2087 C2086 1.386 . S
C2087 C2091 1.393 . S
C2088 H2077 0.950 . S
C2088 C2086 1.391 . S
C2088 C2089 1.400 . S
C2089 C2083 1.491 . S
C2089 C2088 1.400 . S
C2089 C2090 1.398 . S
C2090 H2078 0.950 . S
C2090 C2089 1.398 . S
C2090 C2091 1.391 . S
C2091 H2079 0.950 . S
C2091 C2087 1.393 . S
C2091 C2090 1.391 . S
H2092 C2100 0.950 . S
H2093 C2105 0.950 . S
H2094 C2102 0.950 . S
H2095 C2104 0.950 . S
H2096 C2106 0.950 . S
H2097 C2108 0.950 . S
H2098 C2110 0.950 . S
H2099 C2111 0.950 . S
C2100 H2092 0.950 . S
C2100 C2101 1.386 . S
C2100 C2102 1.391 . S
C2101 C2100 1.386 . S
C2101 C2105 1.393 . S
C2102 H2094 0.950 . S
C2102 C2100 1.391 . S
C2102 C2103 1.400 . S
C2103 C2102 1.400 . S
C2103 C2104 1.398 . S
C2103 C2109 1.491 . S
C2104 H2095 0.950 . S
C2104 C2103 1.398 . S
C2104 C2105 1.391 . S
C2105 H2093 0.950 . S
C2105 C2101 1.393 . S
C2105 C2104 1.391 . S
C2106 H2096 0.950 . S
C2106 C2107 1.386 . S
C2106 C2108 1.391 . S
C2107 C2106 1.386 . S
C2107 C2111 1.393 . S
C2108 H2097 0.950 . S
C2108 C2106 1.391 . S
C2108 C2109 1.400 . S
C2109 C2103 1.491 . S
C2109 C2108 1.400 . S
C2109 C2110 1.398 . S
C2110 H2098 0.950 . S
C2110 C2109 1.398 . S
C2110 C2111 1.391 . S
C2111 H2099 0.950 . S
C2111 C2107 1.393 . S
C2111 C2110 1.391 . S
H2112 C2120 0.950 . S
H2113 C2125 0.950 . S
H2114 C2122 0.950 . S
H2115 C2124 0.950 . S
H2116 C2126 0.950 . S
H2117 C2128 0.950 . S
H2118 C2130 0.950 . S
H2119 C2131 0.950 . S
C2120 H2112 0.950 . S
C2120 C2121 1.386 . S
C2120 C2122 1.391 . S
C2121 C2120 1.386 . S
C2121 C2125 1.393 . S
C2122 H2114 0.950 . S
C2122 C2120 1.391 . S
C2122 C2123 1.400 . S
C2123 C2122 1.400 . S
C2123 C2124 1.398 . S
C2123 C2129 1.491 . S
C2124 H2115 0.950 . S
C2124 C2123 1.398 . S
C2124 C2125 1.391 . S
C2125 H2113 0.950 . S
C2125 C2121 1.393 . S
C2125 C2124 1.391 . S
C2126 H2116 0.950 . S
C2126 C2127 1.386 . S
C2126 C2128 1.391 . S
C2127 C2126 1.386 . S
C2127 C2131 1.393 . S
C2128 H2117 0.950 . S
C2128 C2126 1.391 . S
C2128 C2129 1.400 . S
C2129 C2123 1.491 . S
C2129 C2128 1.400 . S
C2129 C2130 1.398 . S
C2130 H2118 0.950 . S
C2130 C2129 1.398 . S
C2130 C2131 1.391 . S
C2131 H2119 0.950 . S
C2131 C2127 1.393 . S
C2131 C2130 1.391 . S
H2132 C2140 0.950 . S
H2133 C2145 0.950 . S
H2134 C2142 0.950 . S
H2135 C2144 0.950 . S
H2136 C2146 0.950 . S
H2137 C2148 0.950 . S
H2138 C2150 0.950 . S
H2139 C2151 0.950 . S
C2140 H2132 0.950 . S
C2140 C2141 1.386 . S
C2140 C2142 1.391 . S
C2141 C2140 1.386 . S
C2141 C2145 1.393 . S
C2142 H2134 0.950 . S
C2142 C2140 1.391 . S
C2142 C2143 1.400 . S
C2143 C2142 1.400 . S
C2143 C2144 1.398 . S
C2143 C2149 1.491 1_565 S
C2144 H2135 0.950 . S
C2144 C2143 1.398 . S
C2144 C2145 1.391 . S
C2145 H2133 0.950 . S
C2145 C2141 1.393 . S
C2145 C2144 1.391 . S
C2146 H2136 0.950 . S
C2146 C2147 1.386 . S
C2146 C2148 1.391 . S
C2147 C2146 1.386 . S
C2147 C2151 1.393 . S
C2148 H2137 0.950 . S
C2148 C2146 1.391 . S
C2148 C2149 1.400 . S
C2149 C2143 1.491 1_545 S
C2149 C2148 1.400 . S
C2149 C2150 1.398 . S
C2150 H2138 0.950 . S
C2150 C2149 1.398 . S
C2150 C2151 1.391 . S
C2151 H2139 0.950 . S
C2151 C2147 1.393 . S
C2151 C2150 1.391 . S
H2152 C2160 0.950 . S
H2153 C2165 0.950 . S
H2154 C2162 0.950 . S
H2155 C2164 0.950 . S
H2156 C2166 0.950 . S
H2157 C2168 0.950 . S
H2158 C2170 0.950 . S
H2159 C2171 0.950 . S
C2160 H2152 0.950 . S
C2160 C2161 1.386 . S
C2160 C2162 1.391 . S
C2161 C2160 1.386 . S
C2161 C2165 1.393 . S
C2162 H2154 0.950 . S
C2162 C2160 1.391 . S
C2162 C2163 1.400 . S
C2163 C2162 1.400 . S
C2163 C2164 1.398 . S
C2163 C2169 1.491 . S
C2164 H2155 0.950 . S
C2164 C2163 1.398 . S
C2164 C2165 1.391 . S
C2165 H2153 0.950 . S
C2165 C2161 1.393 . S
C2165 C2164 1.391 . S
C2166 H2156 0.950 . S
C2166 C2167 1.386 . S
C2166 C2168 1.391 . S
C2167 C2166 1.386 . S
C2167 C2171 1.393 . S
C2168 H2157 0.950 . S
C2168 C2166 1.391 . S
C2168 C2169 1.400 . S
C2169 C2163 1.491 . S
C2169 C2168 1.400 . S
C2169 C2170 1.398 . S
C2170 H2158 0.950 . S
C2170 C2169 1.398 . S
C2170 C2171 1.391 . S
C2171 H2159 0.950 . S
C2171 C2167 1.393 . S
C2171 C2170 1.391 . S
H2172 C2180 0.950 . S
H2173 C2185 0.950 . S
H2174 C2182 0.950 . S
H2175 C2184 0.950 . S
H2176 C2186 0.950 . S
H2177 C2188 0.950 . S
H2178 C2190 0.950 . S
H2179 C2191 0.950 . S
C2180 H2172 0.950 . S
C2180 C2181 1.386 . S
C2180 C2182 1.391 . S
C2181 C2180 1.386 . S
C2181 C2185 1.393 . S
C2182 H2174 0.950 . S
C2182 C2180 1.391 . S
C2182 C2183 1.400 . S
C2183 C2182 1.400 . S
C2183 C2184 1.398 . S
C2183 C2189 1.491 . S
C2184 H2175 0.950 . S
C2184 C2183 1.398 . S
C2184 C2185 1.391 . S
C2185 H2173 0.950 . S
C2185 C2181 1.393 . S
C2185 C2184 1.391 . S
C2186 H2176 0.950 . S
C2186 C2187 1.386 . S
C2186 C2188 1.391 . S
C2187 C2186 1.386 . S
C2187 C2191 1.393 . S
C2188 H2177 0.950 . S
C2188 C2186 1.391 . S
C2188 C2189 1.400 . S
C2189 C2183 1.491 . S
C2189 C2188 1.400 . S
C2189 C2190 1.398 . S
C2190 H2178 0.950 . S
C2190 C2189 1.398 . S
C2190 C2191 1.391 . S
C2191 H2179 0.950 . S
C2191 C2187 1.393 . S
C2191 C2190 1.391 . S
H2192 C2200 0.950 . S
H2193 C2205 0.950 . S
H2194 C2202 0.950 . S
H2195 C2204 0.950 1_554 S
H2196 C2206 0.950 . S
H2197 C2208 0.950 . S
H2198 C2210 0.950 1_556 S
H2199 C2211 0.950 . S
C2200 H2192 0.950 . S
C2200 C2201 1.386 . S
C2200 C2202 1.391 . S
C2201 C2200 1.386 . S
C2201 C2205 1.393 . S
C2202 H2194 0.950 . S
C2202 C2200 1.391 . S
C2202 C2203 1.400 . S
C2203 C2202 1.400 . S
C2203 C2204 1.398 . S
C2203 C2209 1.491 1_556 S
C2204 H2195 0.950 1_556 S
C2204 C2203 1.398 . S
C2204 C2205 1.391 . S
C2205 H2193 0.950 . S
C2205 C2201 1.393 . S
C2205 C2204 1.391 . S
C2206 H2196 0.950 . S
C2206 C2207 1.386 . S
C2206 C2208 1.391 . S
C2207 C2206 1.386 . S
C2207 C2211 1.393 . S
C2208 H2197 0.950 . S
C2208 C2206 1.391 . S
C2208 C2209 1.400 . S
C2209 C2203 1.491 1_554 S
C2209 C2208 1.400 . S
C2209 C2210 1.398 . S
C2210 H2198 0.950 1_554 S
C2210 C2209 1.398 . S
C2210 C2211 1.391 . S
C2211 H2199 0.950 . S
C2211 C2207 1.393 . S
C2211 C2210 1.391 . S
H2212 C2220 0.950 . S
H2213 C2225 0.950 . S
H2214 C2222 0.950 . S
H2215 C2224 0.950 . S
H2216 C2226 0.950 . S
H2217 C2228 0.950 . S
H2218 C2230 0.950 . S
H2219 C2231 0.950 . S
C2220 H2212 0.950 . S
C2220 C2221 1.386 . S
C2220 C2222 1.391 . S
C2221 C2220 1.386 . S
C2221 C2225 1.393 . S
C2222 H2214 0.950 . S
C2222 C2220 1.391 . S
C2222 C2223 1.400 . S
C2223 C2222 1.400 . S
C2223 C2224 1.398 . S
C2223 C2229 1.491 1_554 S
C2224 H2215 0.950 . S
C2224 C2223 1.398 . S
C2224 C2225 1.391 . S
C2225 H2213 0.950 . S
C2225 C2221 1.393 . S
C2225 C2224 1.391 . S
C2226 H2216 0.950 . S
C2226 C2227 1.386 . S
C2226 C2228 1.391 . S
C2227 C2226 1.386 . S
C2227 C2231 1.393 . S
C2228 H2217 0.950 . S
C2228 C2226 1.391 . S
C2228 C2229 1.400 . S
C2229 C2223 1.491 1_556 S
C2229 C2228 1.400 . S
C2229 C2230 1.398 . S
C2230 H2218 0.950 . S
C2230 C2229 1.398 . S
C2230 C2231 1.391 . S
C2231 H2219 0.950 . S
C2231 C2227 1.393 . S
C2231 C2230 1.391 . S
H2232 C2240 0.950 . S
H2233 C2245 0.950 . S
H2234 C2242 0.950 . S
H2235 C2244 0.950 . S
H2236 C2246 0.950 . S
H2237 C2248 0.950 . S
H2238 C2250 0.950 . S
H2239 C2251 0.950 . S
C2240 H2232 0.950 . S
C2240 C2241 1.386 . S
C2240 C2242 1.391 . S
C2241 C2240 1.386 . S
C2241 C2245 1.393 . S
C2242 H2234 0.950 . S
C2242 C2240 1.391 . S
C2242 C2243 1.400 . S
C2243 C2242 1.400 . S
C2243 C2244 1.398 . S
C2243 C2249 1.491 . S
C2244 H2235 0.950 . S
C2244 C2243 1.398 . S
C2244 C2245 1.391 . S
C2245 H2233 0.950 . S
C2245 C2241 1.393 . S
C2245 C2244 1.391 . S
C2246 H2236 0.950 . S
C2246 C2247 1.386 . S
C2246 C2248 1.391 . S
C2247 C2246 1.386 . S
C2247 C2251 1.393 . S
C2248 H2237 0.950 . S
C2248 C2246 1.391 . S
C2248 C2249 1.400 . S
C2249 C2243 1.491 . S
C2249 C2248 1.400 . S
C2249 C2250 1.398 . S
C2250 H2238 0.950 . S
C2250 C2249 1.398 . S
C2250 C2251 1.391 . S
C2251 H2239 0.950 . S
C2251 C2247 1.393 . S
C2251 C2250 1.391 . S
H2252 C2260 0.950 . S
H2253 C2265 0.950 . S
H2254 C2262 0.950 . S
H2255 C2264 0.950 . S
H2256 C2266 0.950 . S
H2257 C2268 0.950 . S
H2258 C2270 0.950 . S
H2259 C2271 0.950 . S
C2260 H2252 0.950 . S
C2260 C2261 1.386 . S
C2260 C2262 1.391 . S
C2261 C2260 1.386 . S
C2261 C2265 1.393 . S
C2262 H2254 0.950 . S
C2262 C2260 1.391 . S
C2262 C2263 1.400 . S
C2263 C2262 1.400 . S
C2263 C2264 1.398 . S
C2263 C2269 1.491 . S
C2264 H2255 0.950 . S
C2264 C2263 1.398 . S
C2264 C2265 1.391 . S
C2265 H2253 0.950 . S
C2265 C2261 1.393 . S
C2265 C2264 1.391 . S
C2266 H2256 0.950 . S
C2266 C2267 1.386 . S
C2266 C2268 1.391 . S
C2267 C2266 1.386 . S
C2267 C2271 1.393 . S
C2268 H2257 0.950 . S
C2268 C2266 1.391 . S
C2268 C2269 1.400 . S
C2269 C2263 1.491 . S
C2269 C2268 1.400 . S
C2269 C2270 1.398 . S
C2270 H2258 0.950 . S
C2270 C2269 1.398 . S
C2270 C2271 1.391 . S
C2271 H2259 0.950 . S
C2271 C2267 1.393 . S
C2271 C2270 1.391 . S
H2272 C2280 0.950 . S
H2273 C2285 0.950 . S
H2274 C2282 0.950 . S
H2275 C2284 0.950 . S
H2276 C2286 0.950 . S
H2277 C2288 0.950 . S
H2278 C2290 0.950 . S
H2279 C2291 0.950 . S
C2280 H2272 0.950 . S
C2280 C2281 1.386 . S
C2280 C2282 1.391 . S
C2281 C2280 1.386 . S
C2281 C2285 1.393 . S
C2282 H2274 0.950 . S
C2282 C2280 1.391 . S
C2282 C2283 1.400 . S
C2283 C2282 1.400 . S
C2283 C2284 1.398 . S
C2283 C2289 1.491 1_455 S
C2284 H2275 0.950 . S
C2284 C2283 1.398 . S
C2284 C2285 1.391 . S
C2285 H2273 0.950 . S
C2285 C2281 1.393 . S
C2285 C2284 1.391 . S
C2286 H2276 0.950 . S
C2286 C2287 1.386 . S
C2286 C2288 1.391 . S
C2287 C2286 1.386 . S
C2287 C2291 1.393 . S
C2288 H2277 0.950 . S
C2288 C2286 1.391 . S
C2288 C2289 1.400 . S
C2289 C2283 1.491 1_655 S
C2289 C2288 1.400 . S
C2289 C2290 1.398 . S
C2290 H2278 0.950 . S
C2290 C2289 1.398 . S
C2290 C2291 1.391 . S
C2291 H2279 0.950 . S
C2291 C2287 1.393 . S
C2291 C2290 1.391 . S
H2292 C2300 0.950 . S
H2293 C2305 0.950 . S
H2294 C2302 0.950 . S
H2295 C2304 0.950 . S
H2296 C2306 0.950 . S
H2297 C2308 0.950 . S
H2298 C2310 0.950 . S
H2299 C2311 0.950 . S
C2300 H2292 0.950 . S
C2300 C2301 1.386 . S
C2300 C2302 1.391 . S
C2301 C2300 1.386 . S
C2301 C2305 1.393 . S
C2302 H2294 0.950 . S
C2302 C2300 1.391 . S
C2302 C2303 1.400 . S
C2303 C2302 1.400 . S
C2303 C2304 1.398 . S
C2303 C2309 1.491 . S
C2304 H2295 0.950 . S
C2304 C2303 1.398 . S
C2304 C2305 1.391 . S
C2305 H2293 0.950 . S
C2305 C2301 1.393 . S
C2305 C2304 1.391 . S
C2306 H2296 0.950 . S
C2306 C2307 1.386 . S
C2306 C2308 1.391 . S
C2307 C2306 1.386 . S
C2307 C2311 1.393 . S
C2308 H2297 0.950 . S
C2308 C2306 1.391 . S
C2308 C2309 1.400 . S
C2309 C2303 1.491 . S
C2309 C2308 1.400 . S
C2309 C2310 1.398 . S
C2310 H2298 0.950 . S
C2310 C2309 1.398 . S
C2310 C2311 1.391 . S
C2311 H2299 0.950 . S
C2311 C2307 1.393 . S
C2311 C2310 1.391 . S
H2312 C2320 0.950 . S
H2313 C2325 0.950 . S
H2314 C2322 0.982 . S
H2315 C2324 0.950 . S
H2316 C2326 0.950 . S
H2317 C2328 0.982 . S
H2318 C2330 0.950 . S
H2319 C2331 0.950 . S
C2320 H2312 0.950 . S
C2320 C2321 1.386 . S
C2320 C2322 1.391 . S
C2321 C2320 1.386 . S
C2321 C2325 1.393 . S
C2322 H2314 0.982 . S
C2322 C2320 1.391 . S
C2322 C2323 1.400 . S
C2323 C2322 1.400 . S
C2323 C2324 1.398 . S
C2323 C2329 1.491 1_545 S
C2324 H2315 0.950 . S
C2324 C2323 1.398 . S
C2324 C2325 1.391 . S
C2325 H2313 0.950 . S
C2325 C2321 1.393 . S
C2325 C2324 1.391 . S
C2326 H2316 0.950 . S
C2326 C2327 1.386 . S
C2326 C2328 1.391 . S
C2327 C2326 1.386 . S
C2327 C2331 1.393 . S
C2328 H2317 0.982 . S
C2328 C2326 1.391 . S
C2328 C2329 1.400 . S
C2329 C2323 1.491 1_565 S
C2329 C2328 1.400 . S
C2329 C2330 1.398 . S
C2330 H2318 0.950 . S
C2330 C2329 1.398 . S
C2330 C2331 1.391 . S
C2331 H2319 0.950 . S
C2331 C2327 1.393 . S
C2331 C2330 1.391 . S
H2332 C2340 0.950 . S
H2333 C2345 0.950 . S
H2334 C2342 0.950 . S
H2335 C2344 0.950 . S
H2336 C2346 0.950 . S
H2337 C2348 0.950 . S
H2338 C2350 0.950 . S
H2339 C2351 0.950 . S
C2340 H2332 0.950 . S
C2340 C2341 1.386 . S
C2340 C2342 1.391 . S
C2341 C2340 1.386 . S
C2341 C2345 1.393 . S
C2342 H2334 0.950 . S
C2342 C2340 1.391 . S
C2342 C2343 1.400 . S
C2343 C2342 1.400 . S
C2343 C2344 1.398 . S
C2343 C2349 1.491 . S
C2344 H2335 0.950 . S
C2344 C2343 1.398 . S
C2344 C2345 1.391 . S
C2345 H2333 0.950 . S
C2345 C2341 1.393 . S
C2345 C2344 1.391 . S
C2346 H2336 0.950 . S
C2346 C2347 1.386 . S
C2346 C2348 1.391 . S
C2347 C2346 1.386 . S
C2347 C2351 1.393 . S
C2348 H2337 0.950 . S
C2348 C2346 1.391 . S
C2348 C2349 1.400 . S
C2349 C2343 1.491 . S
C2349 C2348 1.400 . S
C2349 C2350 1.398 . S
C2350 H2338 0.950 . S
C2350 C2349 1.398 . S
C2350 C2351 1.391 . S
C2351 H2339 0.950 . S
C2351 C2347 1.393 . S
C2351 C2350 1.391 . S
H2352 C2360 0.950 . S
H2353 C2365 0.950 . S
H2354 C2362 0.950 . S
H2355 C2364 0.950 . S
H2356 C2366 0.950 . S
H2357 C2368 0.950 . S
H2358 C2370 0.950 . S
H2359 C2371 0.950 . S
C2360 H2352 0.950 . S
C2360 C2361 1.386 . S
C2360 C2362 1.391 . S
C2361 C2360 1.386 . S
C2361 C2365 1.393 . S
C2362 H2354 0.950 . S
C2362 C2360 1.391 . S
C2362 C2363 1.400 . S
C2363 C2362 1.400 . S
C2363 C2364 1.398 . S
C2363 C2369 1.491 . S
C2364 H2355 0.950 . S
C2364 C2363 1.398 . S
C2364 C2365 1.391 . S
C2365 H2353 0.950 . S
C2365 C2361 1.393 . S
C2365 C2364 1.391 . S
C2366 H2356 0.950 . S
C2366 C2367 1.386 . S
C2366 C2368 1.391 . S
C2367 C2366 1.386 . S
C2367 C2371 1.393 . S
C2368 H2357 0.950 . S
C2368 C2366 1.391 . S
C2368 C2369 1.400 . S
C2369 C2363 1.491 . S
C2369 C2368 1.400 . S
C2369 C2370 1.398 . S
C2370 H2358 0.950 . S
C2370 C2369 1.398 . S
C2370 C2371 1.391 . S
C2371 H2359 0.950 . S
C2371 C2367 1.393 . S
C2371 C2370 1.391 . S
H2372 C2380 0.950 . S
H2373 C2385 0.950 . S
H2374 C2382 0.950 . S
H2375 C2384 0.950 1_554 S
H2376 C2386 0.950 . S
H2377 C2388 0.950 . S
H2378 C2390 0.950 1_556 S
H2379 C2391 0.950 . S
C2380 H2372 0.950 . S
C2380 C2381 1.386 . S
C2380 C2382 1.391 . S
C2381 C2380 1.386 . S
C2381 C2385 1.393 . S
C2382 H2374 0.950 . S
C2382 C2380 1.391 . S
C2382 C2383 1.400 . S
C2383 C2382 1.400 . S
C2383 C2384 1.398 . S
C2383 C2389 1.491 1_556 S
C2384 H2375 0.950 1_556 S
C2384 C2383 1.398 . S
C2384 C2385 1.391 . S
C2385 H2373 0.950 . S
C2385 C2381 1.393 . S
C2385 C2384 1.391 . S
C2386 H2376 0.950 . S
C2386 C2387 1.386 . S
C2386 C2388 1.391 . S
C2387 C2386 1.386 . S
C2387 C2391 1.393 . S
C2388 H2377 0.950 . S
C2388 C2386 1.391 . S
C2388 C2389 1.400 . S
C2389 C2383 1.491 1_554 S
C2389 C2388 1.400 . S
C2389 C2390 1.398 . S
C2390 H2378 0.950 1_554 S
C2390 C2389 1.398 . S
C2390 C2391 1.391 . S
C2391 H2379 0.950 . S
C2391 C2387 1.393 . S
C2391 C2390 1.391 . S
H2392 C2400 0.950 . S
H2393 C2405 0.950 . S
H2394 C2402 0.950 . S
H2395 C2404 0.950 . S
H2396 C2406 0.950 . S
H2397 C2408 0.950 . S
H2398 C2410 0.950 . S
H2399 C2411 0.950 . S
C2400 H2392 0.950 . S
C2400 C2401 1.386 . S
C2400 C2402 1.391 . S
C2401 C2400 1.386 . S
C2401 C2405 1.393 . S
C2402 H2394 0.950 . S
C2402 C2400 1.391 . S
C2402 C2403 1.400 . S
C2403 C2402 1.400 . S
C2403 C2404 1.398 . S
C2403 C2409 1.491 1_556 S
C2404 H2395 0.950 . S
C2404 C2403 1.398 . S
C2404 C2405 1.391 . S
C2405 H2393 0.950 . S
C2405 C2401 1.393 . S
C2405 C2404 1.391 . S
C2406 H2396 0.950 . S
C2406 C2407 1.386 . S
C2406 C2408 1.391 . S
C2407 C2406 1.386 . S
C2407 C2411 1.393 . S
C2408 H2397 0.950 . S
C2408 C2406 1.391 . S
C2408 C2409 1.400 . S
C2409 C2403 1.491 1_554 S
C2409 C2408 1.400 . S
C2409 C2410 1.398 . S
C2410 H2398 0.950 . S
C2410 C2409 1.398 . S
C2410 C2411 1.391 . S
C2411 H2399 0.950 . S
C2411 C2407 1.393 . S
C2411 C2410 1.391 . S
H2412 C2420 0.950 . S
H2413 C2425 0.950 . S
H2414 C2422 0.950 . S
H2415 C2424 0.950 . S
H2416 C2426 0.950 . S
H2417 C2428 0.950 . S
H2418 C2430 0.950 . S
H2419 C2431 0.950 . S
C2420 H2412 0.950 . S
C2420 C2421 1.386 . S
C2420 C2422 1.391 . S
C2421 C2420 1.386 . S
C2421 C2425 1.393 . S
C2422 H2414 0.950 . S
C2422 C2420 1.391 . S
C2422 C2423 1.400 . S
C2423 C2422 1.400 . S
C2423 C2424 1.398 . S
C2423 C2429 1.491 . S
C2424 H2415 0.950 . S
C2424 C2423 1.398 . S
C2424 C2425 1.391 . S
C2425 H2413 0.950 . S
C2425 C2421 1.393 . S
C2425 C2424 1.391 . S
C2426 H2416 0.950 . S
C2426 C2427 1.386 . S
C2426 C2428 1.391 . S
C2427 C2426 1.386 . S
C2427 C2431 1.393 . S
C2428 H2417 0.950 . S
C2428 C2426 1.391 . S
C2428 C2429 1.400 . S
C2429 C2423 1.491 . S
C2429 C2428 1.400 . S
C2429 C2430 1.398 . S
C2430 H2418 0.950 . S
C2430 C2429 1.398 . S
C2430 C2431 1.391 . S
C2431 H2419 0.950 . S
C2431 C2427 1.393 . S
C2431 C2430 1.391 . S
H2432 C2440 0.950 . S
H2433 C2445 0.950 . S
H2434 C2442 0.950 . S
H2435 C2444 0.950 . S
H2436 C2446 0.950 . S
H2437 C2448 0.950 . S
H2438 C2450 0.950 . S
H2439 C2451 0.950 . S
C2440 H2432 0.950 . S
C2440 C2441 1.386 . S
C2440 C2442 1.391 . S
C2441 C2440 1.386 . S
C2441 C2445 1.393 . S
C2442 H2434 0.950 . S
C2442 C2440 1.391 . S
C2442 C2443 1.400 . S
C2443 C2442 1.400 . S
C2443 C2444 1.398 . S
C2443 C2449 1.491 . S
C2444 H2435 0.950 . S
C2444 C2443 1.398 . S
C2444 C2445 1.391 . S
C2445 H2433 0.950 . S
C2445 C2441 1.393 . S
C2445 C2444 1.391 . S
C2446 H2436 0.950 . S
C2446 C2447 1.386 . S
C2446 C2448 1.391 . S
C2447 C2446 1.386 . S
C2447 C2451 1.393 . S
C2448 H2437 0.950 . S
C2448 C2446 1.391 . S
C2448 C2449 1.400 . S
C2449 C2443 1.491 . S
C2449 C2448 1.400 . S
C2449 C2450 1.398 . S
C2450 H2438 0.950 . S
C2450 C2449 1.398 . S
C2450 C2451 1.391 . S
C2451 H2439 0.950 . S
C2451 C2447 1.393 . S
C2451 C2450 1.391 . S
H2452 C2460 0.950 . S
H2453 C2465 0.950 . S
H2454 C2462 0.950 . S
H2455 C2464 0.950 1_455 S
H2456 C2466 0.950 . S
H2457 C2468 0.950 . S
H2458 C2470 0.950 1_655 S
H2459 C2471 0.950 . S
C2460 H2452 0.950 . S
C2460 C2461 1.386 . S
C2460 C2462 1.391 . S
C2461 C2460 1.386 . S
C2461 C2465 1.393 . S
C2462 H2454 0.950 . S
C2462 C2460 1.391 . S
C2462 C2463 1.400 . S
C2463 C2462 1.400 . S
C2463 C2464 1.398 . S
C2463 C2469 1.491 1_655 S
C2464 H2455 0.950 1_655 S
C2464 C2463 1.398 . S
C2464 C2465 1.391 . S
C2465 H2453 0.950 . S
C2465 C2461 1.393 . S
C2465 C2464 1.391 . S
C2466 H2456 0.950 . S
C2466 C2467 1.386 . S
C2466 C2468 1.391 . S
C2467 C2466 1.386 . S
C2467 C2471 1.393 . S
C2468 H2457 0.950 . S
C2468 C2466 1.391 . S
C2468 C2469 1.400 . S
C2469 C2463 1.491 1_455 S
C2469 C2468 1.400 . S
C2469 C2470 1.398 . S
C2470 H2458 0.950 1_455 S
C2470 C2469 1.398 . S
C2470 C2471 1.391 . S
C2471 H2459 0.950 . S
C2471 C2467 1.393 . S
C2471 C2470 1.391 . S
H2472 C2480 0.950 . S
H2473 C2485 0.950 . S
H2474 C2482 0.950 1_565 S
H2475 C2484 0.950 . S
H2476 C2486 0.950 . S
H2477 C2488 0.950 1_545 S
H2478 C2490 0.950 . S
H2479 C2491 0.950 . S
C2480 H2472 0.950 . S
C2480 C2481 1.386 . S
C2480 C2482 1.391 . S
C2481 C2480 1.386 . S
C2481 C2485 1.393 . S
C2482 H2474 0.950 1_545 S
C2482 C2480 1.391 . S
C2482 C2483 1.400 . S
C2483 C2482 1.400 . S
C2483 C2484 1.398 . S
C2483 C2489 1.491 1_545 S
C2484 H2475 0.950 . S
C2484 C2483 1.398 . S
C2484 C2485 1.391 . S
C2485 H2473 0.950 . S
C2485 C2481 1.393 . S
C2485 C2484 1.391 . S
C2486 H2476 0.950 . S
C2486 C2487 1.386 . S
C2486 C2488 1.391 . S
C2487 C2486 1.386 . S
C2487 C2491 1.393 . S
C2488 H2477 0.950 1_565 S
C2488 C2486 1.391 . S
C2488 C2489 1.400 . S
C2489 C2483 1.491 1_565 S
C2489 C2488 1.400 . S
C2489 C2490 1.398 . S
C2490 H2478 0.950 . S
C2490 C2489 1.398 . S
C2490 C2491 1.391 . S
C2491 H2479 0.950 . S
C2491 C2487 1.393 . S
C2491 C2490 1.391 . S
H2492 C2500 0.950 . S
H2493 C2505 0.950 . S
H2494 C2502 0.950 . S
H2495 C2504 0.950 . S
H2496 C2506 0.950 . S
H2497 C2508 0.950 . S
H2498 C2510 0.950 . S
H2499 C2511 0.950 . S
C2500 H2492 0.950 . S
C2500 C2501 1.386 . S
C2500 C2502 1.391 . S
C2501 C2500 1.386 . S
C2501 C2505 1.393 . S
C2502 H2494 0.950 . S
C2502 C2500 1.391 . S
C2502 C2503 1.400 . S
C2503 C2502 1.400 . S
C2503 C2504 1.398 . S
C2503 C2509 1.491 . S
C2504 H2495 0.950 . S
C2504 C2503 1.398 . S
C2504 C2505 1.391 . S
C2505 H2493 0.950 . S
C2505 C2501 1.393 . S
C2505 C2504 1.391 . S
C2506 H2496 0.950 . S
C2506 C2507 1.386 . S
C2506 C2508 1.391 . S
C2507 C2506 1.386 . S
C2507 C2511 1.393 . S
C2508 H2497 0.950 . S
C2508 C2506 1.391 . S
C2508 C2509 1.400 . S
C2509 C2503 1.491 . S
C2509 C2508 1.400 . S
C2509 C2510 1.398 . S
C2510 H2498 0.950 . S
C2510 C2509 1.398 . S
C2510 C2511 1.391 . S
C2511 H2499 0.950 . S
C2511 C2507 1.393 . S
C2511 C2510 1.391 . S
H2512 C2520 0.950 . S
H2513 C2525 0.950 . S
H2514 C2522 0.950 . S
H2515 C2524 0.950 1_655 S
H2516 C2526 0.950 . S
H2517 C2528 0.950 . S
H2518 C2530 0.950 1_455 S
H2519 C2531 0.950 . S
C2520 H2512 0.950 . S
C2520 C2521 1.386 . S
C2520 C2522 1.391 . S
C2521 C2520 1.386 . S
C2521 C2525 1.393 . S
C2522 H2514 0.950 . S
C2522 C2520 1.391 . S
C2522 C2523 1.400 . S
C2523 C2522 1.400 . S
C2523 C2524 1.398 . S
C2523 C2529 1.491 1_455 S
C2524 H2515 0.950 1_455 S
C2524 C2523 1.398 . S
C2524 C2525 1.391 . S
C2525 H2513 0.950 . S
C2525 C2521 1.393 . S
C2525 C2524 1.391 . S
C2526 H2516 0.950 . S
C2526 C2527 1.386 . S
C2526 C2528 1.391 . S
C2527 C2526 1.386 . S
C2527 C2531 1.393 . S
C2528 H2517 0.950 . S
C2528 C2526 1.391 . S
C2528 C2529 1.400 . S
C2529 C2523 1.491 1_655 S
C2529 C2528 1.400 . S
C2529 C2530 1.398 . S
C2530 H2518 0.950 1_655 S
C2530 C2529 1.398 . S
C2530 C2531 1.391 . S
C2531 H2519 0.950 . S
C2531 C2527 1.393 . S
C2531 C2530 1.391 . S
H2532 C2540 0.950 . S
H2533 C2545 0.950 . S
H2534 C2542 0.950 1_565 S
H2535 C2544 0.950 . S
H2536 C2546 0.950 . S
H2537 C2548 0.950 1_545 S
H2538 C2550 0.950 . S
H2539 C2551 0.950 . S
C2540 H2532 0.950 . S
C2540 C2541 1.386 . S
C2540 C2542 1.391 . S
C2541 C2540 1.386 . S
C2541 C2545 1.393 . S
C2542 H2534 0.950 1_545 S
C2542 C2540 1.391 . S
C2542 C2543 1.400 . S
C2543 C2542 1.400 . S
C2543 C2544 1.398 . S
C2543 C2549 1.491 1_545 S
C2544 H2535 0.950 . S
C2544 C2543 1.398 . S
C2544 C2545 1.391 . S
C2545 H2533 0.950 . S
C2545 C2541 1.393 . S
C2545 C2544 1.391 . S
C2546 H2536 0.950 . S
C2546 C2547 1.386 . S
C2546 C2548 1.391 . S
C2547 C2546 1.386 . S
C2547 C2551 1.393 . S
C2548 H2537 0.950 1_565 S
C2548 C2546 1.391 . S
C2548 C2549 1.400 . S
C2549 C2543 1.491 1_565 S
C2549 C2548 1.400 . S
C2549 C2550 1.398 . S
C2550 H2538 0.950 . S
C2550 C2549 1.398 . S
C2550 C2551 1.391 . S
C2551 H2539 0.950 . S
C2551 C2547 1.393 . S
C2551 C2550 1.391 . S
H2552 C2560 0.950 . S
H2553 C2565 0.950 . S
H2554 C2562 0.950 . S
H2555 C2564 0.950 . S
H2556 C2566 0.950 . S
H2557 C2568 0.950 . S
H2558 C2570 0.950 . S
H2559 C2571 0.950 . S
C2560 H2552 0.950 . S
C2560 C2561 1.386 . S
C2560 C2562 1.391 . S
C2561 C2560 1.386 . S
C2561 C2565 1.393 . S
C2562 H2554 0.950 . S
C2562 C2560 1.391 . S
C2562 C2563 1.400 . S
C2563 C2562 1.400 . S
C2563 C2564 1.398 . S
C2563 C2569 1.491 . S
C2564 H2555 0.950 . S
C2564 C2563 1.398 . S
C2564 C2565 1.391 . S
C2565 H2553 0.950 . S
C2565 C2561 1.393 . S
C2565 C2564 1.391 . S
C2566 H2556 0.950 . S
C2566 C2567 1.386 . S
C2566 C2568 1.391 . S
C2567 C2566 1.386 . S
C2567 C2571 1.393 . S
C2568 H2557 0.950 . S
C2568 C2566 1.391 . S
C2568 C2569 1.400 . S
C2569 C2563 1.491 . S
C2569 C2568 1.400 . S
C2569 C2570 1.398 . S
C2570 H2558 0.950 . S
C2570 C2569 1.398 . S
C2570 C2571 1.391 . S
C2571 H2559 0.950 . S
C2571 C2567 1.393 . S
C2571 C2570 1.391 . S
H2572 C2580 0.950 . S
H2573 C2585 0.950 . S
H2574 C2582 0.950 . S
H2575 C2584 0.950 1_655 S
H2576 C2586 0.950 . S
H2577 C2588 0.950 . S
H2578 C2590 0.950 1_455 S
H2579 C2591 0.950 . S
C2580 H2572 0.950 . S
C2580 C2581 1.386 . S
C2580 C2582 1.391 . S
C2581 C2580 1.386 . S
C2581 C2585 1.393 . S
C2582 H2574 0.950 . S
C2582 C2580 1.391 . S
C2582 C2583 1.400 . S
C2583 C2582 1.400 . S
C2583 C2584 1.398 . S
C2583 C2589 1.491 1_455 S
C2584 H2575 0.950 1_455 S
C2584 C2583 1.398 . S
C2584 C2585 1.391 . S
C2585 H2573 0.950 . S
C2585 C2581 1.393 . S
C2585 C2584 1.391 . S
C2586 H2576 0.950 . S
C2586 C2587 1.386 . S
C2586 C2588 1.391 . S
C2587 C2586 1.386 . S
C2587 C2591 1.393 . S
C2588 H2577 0.950 . S
C2588 C2586 1.391 . S
C2588 C2589 1.400 . S
C2589 C2583 1.491 1_655 S
C2589 C2588 1.400 . S
C2589 C2590 1.398 . S
C2590 H2578 0.950 1_655 S
C2590 C2589 1.398 . S
C2590 C2591 1.391 . S
C2591 H2579 0.950 . S
C2591 C2587 1.393 . S
C2591 C2590 1.391 . S
C681 C20 1.934 . S
C687 C6 1.947 . S
C701 C34 1.934 . S
C707 C48 1.945 . S
C721 C90 1.932 . S
C727 C62 1.947 . S
C741 C104 1.932 . S
C747 C76 1.947 . S
C761 C118 1.947 . S
C767 C482 1.934 . S
C781 C132 1.935 . S
C787 C160 1.944 . S
C801 C454 1.947 . S
C807 C146 1.932 . S
C821 C188 1.933 . S
C827 C174 1.946 . S
C841 C216 1.945 . S
C847 C202 1.935 . S
C861 C258 1.936 . S
C867 C230 1.945 . S
C881 C272 1.940 . S
C887 C244 1.942 . S
C901 C286 1.935 . S
C907 C650 1.943 . S
C921 C300 1.943 . S
C927 C328 1.935 . S
C941 C622 1.935 . S
C947 C314 1.946 . S
C961 C342 1.945 . S
C967 C356 1.936 . S
C981 C384 1.932 . S
C987 C370 1.947 . S
C1001 C398 1.939 . S
C1007 C426 1.942 . S
C1021 C440 1.940 . S
C1027 C412 1.938 . S
C1041 C496 1.941 . S
C1047 C468 1.940 . S
C1061 C524 1.942 . S
C1067 C510 1.940 . S
C1081 C538 1.933 . S
C1087 C552 1.946 . S
C1101 C594 1.942 . S
C1107 C566 1.939 . S
C1121 C580 1.945 . S
C1127 C608 1.933 . S
C1141 C636 1.946 . S
C1147 C664 1.933 . S
C1161 C623 1.397 . S
C1167 C8 1.568 . S
C1181 C329 1.395 . S
C1187 C22 1.568 . S
C1201 C637 1.402 . S
C1207 C36 1.570 . S
C1221 C50 1.568 . S
C1227 C651 1.394 . S
C1241 C64 1.569 . S
C1247 C511 1.410 . S
C1261 C525 1.403 . S
C1267 C78 1.570 . S
C1281 C92 1.568 . S
C1287 C539 1.422 . S
C1301 C553 1.398 . S
C1307 C106 1.568 . S
C1321 C567 1.393 . S
C1327 C120 1.570 . S
C1341 C134 1.569 . S
C1347 C595 1.408 . S
C1361 C609 1.400 . S
C1367 C148 1.567 . S
C1381 C162 1.570 . S
C1387 C245 1.395 . S
C1401 C176 1.570 . S
C1407 C455 1.389 . S
C1421 C190 1.570 . S
C1427 C161 1.394 . S
C1441 C204 1.566 . S
C1447 C469 1.411 . S
C1461 C218 1.567 . S
C1467 C483 1.405 . S
C1481 C343 1.389 . S
C1487 C232 1.570 . S
C1501 C357 1.393 . S
C1507 C246 1.568 . S
C1521 C260 1.569 . S
C1527 C371 1.411 . S
C1541 C274 1.569 . S
C1547 C385 1.391 . S
C1561 C288 1.566 . S
C1567 C399 1.430 . S
C1581 C302 1.566 . S
C1587 C427 1.429 . S
C1601 C441 1.422 . S
C1607 C316 1.566 . S
C1621 C77 1.430 . S
C1627 C330 1.566 . S
C1641 C344 1.568 . S
C1647 C287 1.416 . S
C1661 C358 1.566 . S
C1667 C665 1.430 . S
C1681 C372 1.569 . S
C1687 C301 1.405 . S
C1701 C386 1.568 . S
C1707 C315 1.416 . S
C1721 C175 1.411 . S
C1727 C400 1.566 . S
C1741 C414 1.566 . S
C1747 C189 1.429 . S
C1761 C203 1.390 . S
C1767 C428 1.569 . S
C1781 C217 1.428 . S
C1787 C442 1.567 . S
C1801 C231 1.424 . S
C1807 C456 1.567 . S
C1821 C259 1.416 . S
C1827 C470 1.568 . S
C1841 C484 1.570 . S
C1847 C273 1.397 . S
C1861 C498 1.567 . S
C1867 C581 1.425 . S
C1881 C119 1.430 . S
C1887 C512 1.566 . S
C1901 C526 1.570 . S
C1907 C497 1.392 . S
C1921 C540 1.567 . S
C1927 C133 1.428 . S
C1941 C147 1.396 . S
C1947 C554 1.568 . S
C1961 C568 1.567 . S
C1967 C7 1.404 . S
C1981 C582 1.570 . S
C1987 C21 1.389 . S
C2001 C35 1.426 . S
C2007 C596 1.565 . S
C2021 C610 1.570 . S
C2027 C49 1.401 . S
C2041 C624 1.569 . S
C2047 C63 1.413 . S
C2061 C91 1.429 . S
C2067 C638 1.566 . S
C2081 C652 1.566 . S
C2087 C105 1.429 . S
C2101 C413 1.428 . S
C2107 C666 1.567 . S
C2121 C37 1.084 . S
C2127 C9 1.057 . S
C2141 C51 1.074 . S
C2147 C23 1.094 . S
C2161 C443 1.066 . S
C2167 C65 1.071 . S
C2181 C429 1.095 . S
C2187 C79 1.057 . S
C2201 C415 1.061 . S
C2207 C93 1.097 . S
C2221 C107 1.094 . S
C2227 C401 1.075 . S
C2241 C121 1.090 . S
C2247 C499 1.056 . S
C2261 C149 1.067 . S
C2267 C135 1.097 . S
C2281 C163 1.089 . S
C2287 C457 1.081 . S
C2301 C205 1.086 . S
C2307 C177 1.084 . S
C2321 C219 1.058 . S
C2327 C191 1.083 . S
C2341 C611 1.089 . S
C2347 C233 1.056 . S
C2361 C597 1.068 . S
C2367 C247 1.097 . S
C2381 C261 1.096 . S
C2387 C583 1.057 . S
C2401 C275 1.086 . S
C2407 C569 1.057 . S
C2421 C667 1.087 . S
C2427 C289 1.057 . S
C2441 C317 1.059 . S
C2447 C303 1.082 . S
C2461 C331 1.097 . S
C2467 C625 1.066 . S
C2481 C373 1.092 . S
C2487 C345 1.056 . S
C2501 C359 1.074 . S
C2507 C387 1.064 . S
C2521 C485 1.065 . S
C2527 C471 1.097 . S
C2541 C513 1.058 . S
C2547 C541 1.096 . S
C2561 C527 1.091 . S
C2567 C555 1.078 . S
C2581 C639 1.096 . S
C2587 C653 1.069 . S
