# Generated by pormake.
# Topology yfy, (5)-cn, num edge types: 1
# Building blocks:
#     Node 0, Type 0, BuildingBlock: BEQFEK_clean_sbu_0, # of connection points: 5
#     Node 1, Type 0, BuildingBlock: BEQFEK_clean_sbu_0, # of connection points: 5
#     Node 2, Type 0, BuildingBlock: BEQFEK_clean_sbu_0, # of connection points: 5
#     Node 3, Type 0, BuildingBlock: BEQFEK_clean_sbu_0, # of connection points: 5
#     Node 4, Type 0, BuildingBlock: BEQFEK_clean_sbu_0, # of connection points: 5
#     Node 5, Type 0, BuildingBlock: BEQFEK_clean_sbu_0, # of connection points: 5
#     Node 6, Type 0, BuildingBlock: BEQFEK_clean_sbu_0, # of connection points: 5
#     Node 7, Type 0, BuildingBlock: BEQFEK_clean_sbu_0, # of connection points: 5
#     Node 8, Type 0, BuildingBlock: BEQFEK_clean_sbu_0, # of connection points: 5
#     Node 9, Type 0, BuildingBlock: BEQFEK_clean_sbu_0, # of connection points: 5
#     Node 10, Type 0, BuildingBlock: BEQFEK_clean_sbu_0, # of connection points: 5
#     Node 11, Type 0, BuildingBlock: BEQFEK_clean_sbu_0, # of connection points: 5
#     Node 12, Type 0, BuildingBlock: BEQFEK_clean_sbu_0, # of connection points: 5
#     Node 13, Type 0, BuildingBlock: BEQFEK_clean_sbu_0, # of connection points: 5
#     Node 14, Type 0, BuildingBlock: BEQFEK_clean_sbu_0, # of connection points: 5
#     Node 15, Type 0, BuildingBlock: BEQFEK_clean_sbu_0, # of connection points: 5
#     Edge 16, Type (0, 0), BuildingBlock: OJICUG_clean_linker_0, # of connection points: 2
#     Edge 17, Type (0, 0), BuildingBlock: OJICUG_clean_linker_0, # of connection points: 2
#     Edge 18, Type (0, 0), BuildingBlock: OJICUG_clean_linker_0, # of connection points: 2
#     Edge 19, Type (0, 0), BuildingBlock: OJICUG_clean_linker_0, # of connection points: 2
#     Edge 20, Type (0, 0), BuildingBlock: OJICUG_clean_linker_0, # of connection points: 2
#     Edge 21, Type (0, 0), BuildingBlock: OJICUG_clean_linker_0, # of connection points: 2
#     Edge 22, Type (0, 0), BuildingBlock: OJICUG_clean_linker_0, # of connection points: 2
#     Edge 23, Type (0, 0), BuildingBlock: OJICUG_clean_linker_0, # of connection points: 2
#     Edge 24, Type (0, 0), BuildingBlock: OJICUG_clean_linker_0, # of connection points: 2
#     Edge 25, Type (0, 0), BuildingBlock: OJICUG_clean_linker_0, # of connection points: 2
#     Edge 26, Type (0, 0), BuildingBlock: OJICUG_clean_linker_0, # of connection points: 2
#     Edge 27, Type (0, 0), BuildingBlock: OJICUG_clean_linker_0, # of connection points: 2
#     Edge 28, Type (0, 0), BuildingBlock: OJICUG_clean_linker_0, # of connection points: 2
#     Edge 29, Type (0, 0), BuildingBlock: OJICUG_clean_linker_0, # of connection points: 2
#     Edge 30, Type (0, 0), BuildingBlock: OJICUG_clean_linker_0, # of connection points: 2
#     Edge 31, Type (0, 0), BuildingBlock: OJICUG_clean_linker_0, # of connection points: 2
#     Edge 32, Type (0, 0), BuildingBlock: OJICUG_clean_linker_0, # of connection points: 2
#     Edge 33, Type (0, 0), BuildingBlock: OJICUG_clean_linker_0, # of connection points: 2
#     Edge 34, Type (0, 0), BuildingBlock: OJICUG_clean_linker_0, # of connection points: 2
#     Edge 35, Type (0, 0), BuildingBlock: OJICUG_clean_linker_0, # of connection points: 2
#     Edge 36, Type (0, 0), BuildingBlock: OJICUG_clean_linker_0, # of connection points: 2
#     Edge 37, Type (0, 0), BuildingBlock: OJICUG_clean_linker_0, # of connection points: 2
#     Edge 38, Type (0, 0), BuildingBlock: OJICUG_clean_linker_0, # of connection points: 2
#     Edge 39, Type (0, 0), BuildingBlock: OJICUG_clean_linker_0, # of connection points: 2
#     Edge 40, Type (0, 0), BuildingBlock: OJICUG_clean_linker_0, # of connection points: 2
#     Edge 41, Type (0, 0), BuildingBlock: OJICUG_clean_linker_0, # of connection points: 2
#     Edge 42, Type (0, 0), BuildingBlock: OJICUG_clean_linker_0, # of connection points: 2
#     Edge 43, Type (0, 0), BuildingBlock: OJICUG_clean_linker_0, # of connection points: 2
#     Edge 44, Type (0, 0), BuildingBlock: OJICUG_clean_linker_0, # of connection points: 2
#     Edge 45, Type (0, 0), BuildingBlock: OJICUG_clean_linker_0, # of connection points: 2
#     Edge 46, Type (0, 0), BuildingBlock: OJICUG_clean_linker_0, # of connection points: 2
#     Edge 47, Type (0, 0), BuildingBlock: OJICUG_clean_linker_0, # of connection points: 2
#     Edge 48, Type (0, 0), BuildingBlock: OJICUG_clean_linker_0, # of connection points: 2
#     Edge 49, Type (0, 0), BuildingBlock: OJICUG_clean_linker_0, # of connection points: 2
#     Edge 50, Type (0, 0), BuildingBlock: OJICUG_clean_linker_0, # of connection points: 2
#     Edge 51, Type (0, 0), BuildingBlock: OJICUG_clean_linker_0, # of connection points: 2
#     Edge 52, Type (0, 0), BuildingBlock: OJICUG_clean_linker_0, # of connection points: 2
#     Edge 53, Type (0, 0), BuildingBlock: OJICUG_clean_linker_0, # of connection points: 2
#     Edge 54, Type (0, 0), BuildingBlock: OJICUG_clean_linker_0, # of connection points: 2
#     Edge 55, Type (0, 0), BuildingBlock: OJICUG_clean_linker_0, # of connection points: 2
# Relax obj value: 0.054
# Max RMSD: 0.070
# Mean RMSD: 0.070
data_MOF--net-yfy--node1-BEQFEK_clean_sbu_0--edge1-OJICUG_clean_linker_0
_symmetry_space_group_name_H-M    P1
_symmetry_Int_Tables_number       1
_symmetry_cell_setting            triclinic
loop_
_symmetry_equiv_pos_as_xyz
'x, y, z'
_cell_length_a     36.583864
_cell_length_b     36.596559
_cell_length_c     32.656935
_cell_angle_alpha  89.978736
_cell_angle_beta   90.001435
_cell_angle_gamma 90.065627
loop_
_atom_site_label
_atom_site_type_symbol
_atom_site_fract_x
_atom_site_fract_y
_atom_site_fract_z
_atom_type_partial_charge
Co0 Co 0.16047 0.30213 0.34744 0.0
Co1 Co 0.10924 0.3708 0.34052 0.0
C2 C 0.08324 0.29573 0.31789 0.0
O3 O 0.11464 0.28182 0.32391 0.0
O4 O 0.07768 0.32972 0.32292 0.0
C5 C 0.19643 0.23944 0.31477 0.0
O6 O 0.16946 0.24111 0.2883 0.0
C7 C 0.06327 0.42655 0.30112 0.0
C8 C 0.06753 0.47208 0.34533 0.0
C9 C 0.0527 0.4625 0.3078 0.0
N10 N 0.08414 0.41581 0.33278 0.0
N11 N 0.08631 0.44304 0.35924 0.0
C12 C 0.05325 0.40247 0.26574 0.0
H13 H 0.05305 0.37344 0.27486 0.0
H14 H 0.07382 0.40584 0.24106 0.0
H15 H 0.02588 0.40969 0.25354 0.0
C16 C 0.21116 0.35337 0.30393 0.0
N17 N 0.17792 0.34444 0.3191 0.0
N18 N 0.15595 0.37263 0.31508 0.0
C19 C 0.17443 0.40028 0.29718 0.0
C20 C 0.21015 0.38922 0.28973 0.0
C21 C 0.24399 0.32916 0.30663 0.0
H22 H 0.24642 0.31811 0.33815 0.0
H23 H 0.24038 0.30571 0.28549 0.0
H24 H 0.26944 0.34399 0.29847 0.0
O25 O 0.14755 0.31312 0.40623 0.0
O26 O 0.1145 0.36391 0.3997 0.0
H27 H 0.15238 0.45137 0.31708 0.0
H28 H 0.17701 0.45405 0.26917 0.0
C29 C 0.15838 0.43699 0.28797 0.0
H30 H 0.13253 0.43344 0.27086 0.0
H31 H 0.10105 0.44194 0.38658 0.0
O32 O 0.19815 0.26287 0.34355 0.0
C33 C 0.12869 0.33905 0.4218 0.0
Co34 Co 0.89802 0.15993 0.3488 0.0
Co35 Co 0.82938 0.10881 0.33941 0.0
C36 C 0.90393 0.08279 0.31719 0.0
O37 O 0.91778 0.11337 0.3273 0.0
O38 O 0.86961 0.07744 0.31855 0.0
C39 C 0.96368 0.19303 0.3187 0.0
O40 O 0.96367 0.1642 0.29479 0.0
C41 C 0.7723 0.06735 0.29701 0.0
C42 C 0.73016 0.06243 0.34519 0.0
C43 C 0.73756 0.05352 0.30476 0.0
N44 N 0.78438 0.08402 0.33108 0.0
N45 N 0.75912 0.08094 0.35978 0.0
C46 C 0.7945 0.06372 0.25867 0.0
H47 H 0.82373 0.06917 0.2646 0.0
H48 H 0.78505 0.08406 0.23584 0.0
H49 H 0.79128 0.03597 0.24544 0.0
C50 C 0.84873 0.21008 0.30127 0.0
N51 N 0.85634 0.1775 0.31895 0.0
N52 N 0.82758 0.15614 0.31555 0.0
C53 C 0.8006 0.17458 0.29639 0.0
C54 C 0.81312 0.20927 0.28609 0.0
C55 C 0.8754 0.241 0.29854 0.0
H56 H 0.88284 0.25004 0.32988 0.0
H57 H 0.9007 0.23134 0.28333 0.0
H58 H 0.86418 0.26439 0.281 0.0
O59 O 0.88605 0.14746 0.40747 0.0
O60 O 0.83714 0.11193 0.39893 0.0
H61 H 0.75352 0.14739 0.32097 0.0
H62 H 0.74269 0.18332 0.28565 0.0
C63 C 0.76217 0.16087 0.29221 0.0
H64 H 0.76083 0.14073 0.26694 0.0
H65 H 0.76166 0.09153 0.38931 0.0
O66 O 0.9382 0.19694 0.34497 0.0
C67 C 0.86088 0.12688 0.42198 0.0
Co68 Co 0.04061 0.8997 0.347 0.0
Co69 Co 0.09081 0.83081 0.33734 0.0
C70 C 0.11677 0.90557 0.31415 0.0
O71 O 0.0855 0.91948 0.32091 0.0
O72 O 0.12241 0.87161 0.31921 0.0
C73 C 0.99354 0.95366 0.3117 0.0
O74 O 1.00195 0.93706 0.27733 0.0
C75 C 0.13578 0.77472 0.29663 0.0
C76 C 0.13151 0.72908 0.34073 0.0
C77 C 0.14616 0.73866 0.30311 0.0
N78 N 0.11521 0.78552 0.32853 0.0
N79 N 0.11302 0.7582 0.35489 0.0
C80 C 0.14581 0.79886 0.26129 0.0
H81 H 0.14556 0.82791 0.27027 0.0
H82 H 0.12552 0.79518 0.23638 0.0
H83 H 0.17335 0.79189 0.24942 0.0
C84 C 0.98714 0.84792 0.3066 0.0
N85 N 0.02102 0.85745 0.31961 0.0
N86 N 0.04325 0.82971 0.31351 0.0
C87 C 0.02448 0.80215 0.29583 0.0
C88 C 0.9883 0.8126 0.29096 0.0
C89 C 0.95339 0.87013 0.31343 0.0
H90 H 0.95684 0.88827 0.34034 0.0
H91 H 0.94808 0.88707 0.2859 0.0
H92 H 0.92931 0.85212 0.31819 0.0
O93 O 0.05546 0.88836 0.40499 0.0
O94 O 0.08734 0.83706 0.3969 0.0
H95 H 0.04734 0.75061 0.31292 0.0
H96 H 0.02164 0.74937 0.26573 0.0
C97 C 0.04062 0.76594 0.28462 0.0
H98 H 0.06605 0.77029 0.26693 0.0
H99 H 0.09855 0.75932 0.3824 0.0
O100 O 1.0059 0.94149 0.34551 0.0
C101 C 0.07427 0.86201 0.41971 0.0
Co102 Co 0.30135 0.04198 0.34638 0.0
Co103 Co 0.3716 0.09135 0.34252 0.0
C104 C 0.29769 0.1192 0.31724 0.0
O105 O 0.28283 0.08809 0.3222 0.0
O106 O 0.33159 0.12401 0.32402 0.0
C107 C 0.23587 1.00875 0.31507 0.0
O108 O 0.23581 0.03768 0.2913 0.0
C109 C 0.42873 0.13319 0.30116 0.0
C110 C 0.47082 0.13774 0.34945 0.0
C111 C 0.46341 0.14705 0.30913 0.0
N112 N 0.41668 0.11612 0.33499 0.0
N113 N 0.4419 0.11896 0.36377 0.0
C114 C 0.4065 0.13716 0.2629 0.0
H115 H 0.41586 0.11696 0.23989 0.0
H116 H 0.40977 0.165 0.24989 0.0
H117 H 0.37726 0.13173 0.26889 0.0
C118 C 0.35148 0.99146 0.3007 0.0
N119 N 0.34378 0.0239 0.31856 0.0
N120 N 0.37295 0.04487 0.31675 0.0
C121 C 0.40021 0.02635 0.29824 0.0
C122 C 0.38752 0.99201 0.28696 0.0
C123 C 0.32464 0.96083 0.29665 0.0
H124 H 0.31569 0.952 0.32758 0.0
H125 H 0.30015 0.9707 0.27997 0.0
H126 H 0.33643 0.93723 0.27995 0.0
O127 O 0.31161 0.05489 0.40578 0.0
O128 O 0.36389 0.08598 0.40131 0.0
H129 H 0.44714 0.05213 0.32496 0.0
H130 H 0.45817 0.01704 0.28857 0.0
C131 C 0.43891 0.03958 0.29552 0.0
H132 H 0.44104 0.06043 0.27103 0.0
H133 H 0.43935 0.10807 0.39317 0.0
O134 O 0.26118 1.00494 0.34159 0.0
C135 C 0.33787 0.07268 0.42241 0.0
Co136 Co 0.15929 0.89814 0.66016 0.0
Co137 Co 0.10904 0.82919 0.66851 0.0
C138 C 0.08303 0.90371 0.6924 0.0
O139 O 0.11438 0.91767 0.68618 0.0
O140 O 0.07734 0.86983 0.68674 0.0
C141 C 0.20525 0.95197 0.69695 0.0
O142 O 0.19619 0.9349 0.73085 0.0
C143 C 0.06384 0.77301 0.70863 0.0
C144 C 0.0683 0.72741 0.66452 0.0
C145 C 0.05356 0.73692 0.70211 0.0
N146 N 0.08449 0.7839 0.67682 0.0
N147 N 0.08677 0.75663 0.65043 0.0
C148 C 0.05367 0.79706 0.74396 0.0
H149 H 0.05323 0.82606 0.7348 0.0
H150 H 0.07429 0.79394 0.76863 0.0
H151 H 0.02638 0.78959 0.75621 0.0
C152 C 0.21249 0.84613 0.70046 0.0
N153 N 0.17872 0.8557 0.68721 0.0
N154 N 0.15646 0.82783 0.69271 0.0
C155 C 0.17511 0.80011 0.71018 0.0
C156 C 0.21126 0.8106 0.71555 0.0
C157 C 0.24622 0.86866 0.69453 0.0
H158 H 0.24308 0.887 0.66774 0.0
H159 H 0.25095 0.88545 0.7223 0.0
H160 H 0.27049 0.8509 0.6901 0.0
O161 O 0.14476 0.88741 0.6019 0.0
O162 O 0.11291 0.8359 0.60906 0.0
H163 H 0.15229 0.74872 0.69233 0.0
H164 H 0.17771 0.74703 0.73969 0.0
C165 C 0.15887 0.76377 0.72085 0.0
H166 H 0.13336 0.76792 0.73842 0.0
H167 H 0.10134 0.75783 0.62299 0.0
O168 O 0.19382 0.94003 0.66264 0.0
C169 C 0.12609 0.86115 0.58669 0.0
Co170 Co 0.30011 0.15901 0.66176 0.0
Co171 Co 0.36811 0.10722 0.67199 0.0
C172 C 0.2937 0.08197 0.69451 0.0
O173 O 0.28016 0.11245 0.68356 0.0
O174 O 0.32799 0.07644 0.69379 0.0
C175 C 0.23607 0.19328 0.69405 0.0
O176 O 0.23669 0.16488 0.71862 0.0
C177 C 0.42584 0.06487 0.71245 0.0
C178 C 0.46736 0.06158 0.66341 0.0
C179 C 0.46053 0.05154 0.70363 0.0
N180 N 0.41321 0.08238 0.67916 0.0
N181 N 0.4381 0.08025 0.64995 0.0
C182 C 0.40422 0.0599 0.75102 0.0
H183 H 0.37479 0.06462 0.74565 0.0
H184 H 0.41345 0.08005 0.77418 0.0
H185 H 0.40829 0.03201 0.76356 0.0
C186 C 0.35049 0.20935 0.70741 0.0
N187 N 0.34222 0.17645 0.69092 0.0
N188 N 0.37053 0.15466 0.69517 0.0
C189 C 0.39776 0.17303 0.71401 0.0
C190 C 0.38595 0.20822 0.72287 0.0
C191 C 0.32466 0.24099 0.70856 0.0
H192 H 0.29982 0.23304 0.72589 0.0
H193 H 0.3371 0.26529 0.72333 0.0
H194 H 0.31611 0.24793 0.6769 0.0
O195 O 0.3115 0.14651 0.60304 0.0
O196 O 0.3594 0.10997 0.61268 0.0
H197 H 0.44507 0.14565 0.69056 0.0
H198 H 0.45547 0.18044 0.72748 0.0
C199 C 0.43576 0.15857 0.71938 0.0
H200 H 0.43583 0.13772 0.74397 0.0
H201 H 0.43512 0.09162 0.62084 0.0
O202 O 0.26044 0.19637 0.66636 0.0
C203 C 0.33621 0.12514 0.58914 0.0
Co204 Co 0.04195 0.3013 0.66106 0.0
Co205 Co 0.09162 0.37054 0.67081 0.0
C206 C 0.11809 0.29709 0.69589 0.0
O207 O 0.0872 0.28287 0.68759 0.0
O208 O 0.12367 0.33117 0.69145 0.0
C209 C 0.99513 0.2472 0.69719 0.0
O210 O 1.00297 0.26452 0.73129 0.0
C211 C 0.13887 0.42565 0.70781 0.0
C212 C 0.12776 0.47416 0.66941 0.0
C213 C 0.14743 0.46224 0.70305 0.0
N214 N 0.11514 0.41627 0.6783 0.0
N215 N 0.10893 0.44522 0.65511 0.0
C216 C 0.15017 0.40079 0.74193 0.0
H217 H 0.12752 0.38181 0.74965 0.0
H218 H 0.1581 0.41654 0.76958 0.0
H219 H 0.17394 0.3843 0.73176 0.0
C220 C 0.98787 0.35287 0.70075 0.0
N221 N 0.02181 0.3436 0.68776 0.0
N222 N 0.04395 0.37139 0.69423 0.0
C223 C 0.02514 0.39861 0.71239 0.0
C224 C 0.98895 0.38803 0.71689 0.0
C225 C 0.95423 0.33047 0.6938 0.0
H226 H 0.958 0.31194 0.66729 0.0
H227 H 0.94856 0.31394 0.72156 0.0
H228 H 0.93023 0.34837 0.68836 0.0
O229 O 0.05684 0.31189 0.60292 0.0
O230 O 0.08921 0.36285 0.61143 0.0
H231 H 0.04501 0.45193 0.69759 0.0
H232 H 0.02343 0.44898 0.74709 0.0
C233 C 0.04133 0.43446 0.72503 0.0
H234 H 0.06829 0.42994 0.73956 0.0
H235 H 0.09112 0.44542 0.63015 0.0
O236 O 1.00776 0.25894 0.6633 0.0
C237 C 0.07621 0.33797 0.58846 0.0
Co238 Co 0.89901 0.04059 0.66145 0.0
Co239 Co 0.83062 0.09187 0.6712 0.0
C240 C 0.90537 0.11784 0.69292 0.0
O241 O 0.91906 0.08724 0.68273 0.0
O242 O 0.87105 0.12321 0.69186 0.0
C243 C 0.96432 1.00707 0.69184 0.0
O244 O 0.96437 0.0358 0.7159 0.0
C245 C 0.77353 0.1337 0.71317 0.0
C246 C 0.7314 0.13789 0.66489 0.0
C247 C 0.73876 0.1473 0.70519 0.0
N248 N 0.78566 0.11669 0.67934 0.0
N249 N 0.76042 0.11935 0.65059 0.0
C250 C 0.79571 0.13781 0.75146 0.0
H251 H 0.82497 0.13256 0.74555 0.0
H252 H 0.78638 0.11757 0.77448 0.0
H253 H 0.79235 0.16564 0.7644 0.0
C254 C 0.84955 0.99046 0.70891 0.0
N255 N 0.85733 0.02312 0.69148 0.0
N256 N 0.8287 0.04457 0.6951 0.0
C257 C 0.80164 0.02611 0.71419 0.0
C258 C 0.81396 0.99128 0.72415 0.0
C259 C 0.87601 0.9594 0.71126 0.0
H260 H 0.88335 0.95059 0.67982 0.0
H261 H 0.90139 0.96882 0.72655 0.0
H262 H 0.86469 0.93591 0.72859 0.0
O263 O 0.88685 0.05288 0.60277 0.0
O264 O 0.8382 0.08858 0.6117 0.0
H265 H 0.75459 0.05324 0.68965 0.0
H266 H 0.74371 0.01764 0.72537 0.0
C267 C 0.7633 0.03995 0.71848 0.0
H268 H 0.76221 0.06032 0.74355 0.0
H269 H 0.76298 0.10843 0.62122 0.0
O270 O 0.939 1.00344 0.66531 0.0
C271 C 0.86166 0.0735 0.58846 0.0
Co272 Co 0.65939 0.8001 0.84783 0.0
Co273 Co 0.60875 0.86845 0.83722 0.0
C274 C 0.5835 0.7936 0.81387 0.0
O275 O 0.61476 0.78 0.82143 0.0
O276 O 0.57753 0.82756 0.81844 0.0
C277 C 0.70669 0.74658 0.81253 0.0
O278 O 0.69826 0.76338 0.77827 0.0
C279 C 0.56328 0.92465 0.79732 0.0
C280 C 0.56867 0.9703 0.84124 0.0
C281 C 0.55326 0.96077 0.80401 0.0
N282 N 0.5844 0.91376 0.82873 0.0
N283 N 0.58725 0.94108 0.85499 0.0
C284 C 0.55233 0.90054 0.76232 0.0
H285 H 0.55181 0.87158 0.77164 0.0
H286 H 0.57254 0.90349 0.7372 0.0
H287 H 0.52489 0.90811 0.75062 0.0
C288 C 0.71282 0.85221 0.80765 0.0
N289 N 0.67894 0.84245 0.82048 0.0
N290 N 0.65652 0.86995 0.81394 0.0
C291 C 0.67515 0.89756 0.79613 0.0
C292 C 0.71147 0.88742 0.79166 0.0
C293 C 0.74669 0.83026 0.81481 0.0
H294 H 0.74319 0.81208 0.84169 0.0
H295 H 0.75234 0.81337 0.78734 0.0
H296 H 0.77059 0.84846 0.81977 0.0
O297 O 0.64407 0.81122 0.90575 0.0
O298 O 0.61157 0.86199 0.89678 0.0
H299 H 0.65227 0.94931 0.81222 0.0
H300 H 0.67746 0.94972 0.76469 0.0
C301 C 0.65871 0.93346 0.78422 0.0
H302 H 0.6331 0.92867 0.76701 0.0
H303 H 0.60225 0.93988 0.88214 0.0
O304 O 0.69427 0.7585 0.8464 0.0
C305 C 0.6247 0.83736 0.91998 0.0
Co306 Co 0.3987 0.65679 0.84416 0.0
Co307 Co 0.3285 0.60735 0.83926 0.0
C308 C 0.40174 0.57954 0.81339 0.0
O309 O 0.4167 0.6104 0.81998 0.0
O310 O 0.36767 0.57469 0.81901 0.0
C311 C 0.46522 0.68938 0.81396 0.0
O312 O 0.4663 0.65975 0.79134 0.0
C313 C 0.27304 0.56177 0.80136 0.0
C314 C 0.22675 0.56614 0.84459 0.0
C315 C 0.23738 0.55059 0.80782 0.0
N316 N 0.28315 0.58299 0.83284 0.0
N317 N 0.25555 0.58523 0.85886 0.0
C318 C 0.29634 0.55488 0.76451 0.0
H319 H 0.3155 0.57803 0.75966 0.0
H320 H 0.27924 0.55092 0.73679 0.0
H321 H 0.31265 0.52975 0.76965 0.0
C322 C 0.34879 0.70752 0.79836 0.0
N323 N 0.35631 0.67508 0.81633 0.0
N324 N 0.3273 0.65396 0.8137 0.0
C325 C 0.30041 0.67224 0.79425 0.0
C326 C 0.31307 0.70681 0.78354 0.0
C327 C 0.3757 0.73817 0.79482 0.0
H328 H 0.384 0.74712 0.82592 0.0
H329 H 0.40053 0.72824 0.77885 0.0
H330 H 0.36428 0.76168 0.77765 0.0
O331 O 0.38868 0.64402 0.90359 0.0
O332 O 0.33722 0.61185 0.89798 0.0
H333 H 0.2519 0.64895 0.81975 0.0
H334 H 0.2432 0.67908 0.7776 0.0
C335 C 0.2622 0.65808 0.78955 0.0
H336 H 0.2623 0.6343 0.76853 0.0
H337 H 0.25616 0.60038 0.88592 0.0
O338 O 0.43906 0.6937 0.8393 0.0
C339 C 0.36272 0.6254 0.91965 0.0
Co340 Co 0.53955 0.39782 0.84718 0.0
Co341 Co 0.59062 0.32903 0.84065 0.0
C342 C 0.6168 0.40408 0.81787 0.0
O343 O 0.5854 0.41803 0.82371 0.0
O344 O 0.62232 0.3701 0.82309 0.0
C345 C 0.5036 0.45999 0.81341 0.0
O346 O 0.53057 0.45788 0.78699 0.0
C347 C 0.63614 0.27324 0.80088 0.0
C348 C 0.63309 0.22807 0.84573 0.0
C349 C 0.64721 0.23745 0.80777 0.0
N350 N 0.61572 0.28406 0.83287 0.0
N351 N 0.61423 0.25704 0.85968 0.0
C352 C 0.64525 0.29711 0.76502 0.0
H353 H 0.64416 0.32628 0.77342 0.0
H354 H 0.62494 0.29246 0.74033 0.0
H355 H 0.67293 0.29077 0.75308 0.0
C356 C 0.48891 0.34675 0.80349 0.0
N357 N 0.52212 0.35554 0.81884 0.0
N358 N 0.54395 0.32721 0.81516 0.0
C359 C 0.52535 0.29954 0.79744 0.0
C360 C 0.48978 0.31083 0.78958 0.0
C361 C 0.45619 0.37113 0.80575 0.0
H362 H 0.45348 0.38218 0.83724 0.0
H363 H 0.46014 0.39456 0.78464 0.0
H364 H 0.43075 0.35644 0.79724 0.0
O365 O 0.55235 0.38683 0.9061 0.0
O366 O 0.58525 0.33591 0.8998 0.0
H367 H 0.54758 0.24888 0.81848 0.0
H368 H 0.52201 0.24509 0.77128 0.0
C369 C 0.54106 0.26254 0.78906 0.0
H370 H 0.56661 0.26554 0.77125 0.0
H371 H 0.59998 0.25826 0.88733 0.0
O372 O 0.50191 0.43708 0.84275 0.0
C373 C 0.57109 0.36085 0.9218 0.0
Co374 Co 0.80186 0.54006 0.84847 0.0
Co375 Co 0.87056 0.59116 0.83912 0.0
C376 C 0.79602 0.61728 0.81704 0.0
O377 O 0.78214 0.5867 0.8271 0.0
O378 O 0.83036 0.6226 0.81835 0.0
C379 C 0.73623 0.5069 0.81838 0.0
O380 O 0.7362 0.53575 0.79446 0.0
C381 C 0.92784 0.63278 0.79715 0.0
C382 C 0.96988 0.6372 0.84551 0.0
C383 C 0.96261 0.64643 0.80514 0.0
N384 N 0.91562 0.6159 0.83104 0.0
N385 N 0.94081 0.61869 0.85984 0.0
C386 C 0.90575 0.63677 0.75878 0.0
H387 H 0.87647 0.63149 0.76463 0.0
H388 H 0.9151 0.61648 0.73586 0.0
H389 H 0.90917 0.66457 0.74573 0.0
C390 C 0.85105 0.49004 0.80081 0.0
N391 N 0.84348 0.52258 0.81854 0.0
N392 N 0.87227 0.54392 0.81518 0.0
C393 C 0.89924 0.52549 0.79603 0.0
C394 C 0.88667 0.49084 0.78568 0.0
C395 C 0.82435 0.45916 0.798 0.0
H396 H 0.79903 0.4689 0.78287 0.0
H397 H 0.8355 0.43582 0.78034 0.0
H398 H 0.81694 0.44999 0.82932 0.0
O399 O 0.81392 0.5523 0.90713 0.0
O400 O 0.86282 0.58783 0.89855 0.0
H401 H 0.94634 0.55248 0.8208 0.0
H402 H 0.95715 0.51672 0.78531 0.0
C403 C 0.93769 0.53916 0.79196 0.0
H404 H 0.93908 0.55943 0.7668 0.0
H405 H 0.93816 0.60789 0.88928 0.0
O406 O 0.76172 0.50304 0.84466 0.0
C407 C 0.83914 0.5728 0.92161 0.0
Co408 Co 0.65858 0.39921 0.16066 0.0
Co409 Co 0.60812 0.33057 0.17113 0.0
C410 C 0.58276 0.40532 0.19457 0.0
O411 O 0.61401 0.4191 0.18719 0.0
O412 O 0.57687 0.37136 0.18983 0.0
C413 C 0.70558 0.45292 0.19607 0.0
O414 O 0.69693 0.43612 0.23027 0.0
C415 C 0.56294 0.27445 0.21166 0.0
C416 C 0.56852 0.22835 0.16837 0.0
C417 C 0.55325 0.23814 0.20559 0.0
N418 N 0.58381 0.28521 0.17996 0.0
N419 N 0.58673 0.25764 0.15405 0.0
C420 C 0.55195 0.29884 0.24638 0.0
H421 H 0.55013 0.32755 0.23629 0.0
H422 H 0.57285 0.29721 0.27092 0.0
H423 H 0.52507 0.29055 0.25909 0.0
C424 C 0.71213 0.34741 0.20092 0.0
N425 N 0.67825 0.35693 0.18793 0.0
N426 N 0.65592 0.32929 0.19441 0.0
C427 C 0.67462 0.30183 0.21234 0.0
C428 C 0.71088 0.31221 0.21695 0.0
C429 C 0.74593 0.36961 0.19396 0.0
H430 H 0.74248 0.38772 0.16702 0.0
H431 H 0.75133 0.38659 0.22144 0.0
H432 H 0.76994 0.35158 0.1892 0.0
O433 O 0.64307 0.38808 0.10277 0.0
O434 O 0.61083 0.33704 0.11154 0.0
H435 H 0.65181 0.24994 0.19643 0.0
H436 H 0.67704 0.24974 0.24395 0.0
C437 C 0.65826 0.26589 0.22437 0.0
H438 H 0.63267 0.27061 0.24162 0.0
H439 H 0.60162 0.25868 0.12682 0.0
O440 O 0.69339 0.44093 0.1621 0.0
C441 C 0.62376 0.36189 0.08845 0.0
Co442 Co 0.80135 0.65943 0.16054 0.0
Co443 Co 0.86984 0.60831 0.17069 0.0
C444 C 0.79516 0.58227 0.19227 0.0
O445 O 0.78143 0.61282 0.18191 0.0
O446 O 0.82949 0.57694 0.19134 0.0
C447 C 0.73583 0.69275 0.19043 0.0
O448 O 0.73569 0.664 0.21448 0.0
C449 C 0.92693 0.5666 0.21288 0.0
C450 C 0.96917 0.56246 0.16471 0.0
C451 C 0.96171 0.55301 0.20499 0.0
N452 N 0.91486 0.58364 0.17902 0.0
N453 N 0.94018 0.58101 0.15034 0.0
C454 C 0.90467 0.5624 0.2511 0.0
H455 H 0.87542 0.56767 0.24514 0.0
H456 H 0.91397 0.58258 0.2742 0.0
H457 H 0.90801 0.53454 0.264 0.0
C458 C 0.85047 0.70971 0.20798 0.0
N459 N 0.84287 0.67701 0.1906 0.0
N460 N 0.87153 0.65563 0.19445 0.0
C461 C 0.89843 0.67416 0.2137 0.0
C462 C 0.88595 0.70896 0.22348 0.0
C463 C 0.82395 0.74073 0.21003 0.0
H464 H 0.81655 0.74929 0.1785 0.0
H465 H 0.7986 0.73138 0.22545 0.0
H466 H 0.83525 0.76438 0.22709 0.0
O467 O 0.81362 0.64706 0.10203 0.0
O468 O 0.86231 0.61144 0.11116 0.0
H469 H 0.94574 0.64716 0.18966 0.0
H470 H 0.95623 0.68274 0.22556 0.0
C471 C 0.93675 0.66039 0.21842 0.0
H472 H 0.93766 0.63999 0.24346 0.0
H473 H 0.93767 0.59194 0.12096 0.0
O474 O 0.7613 0.69647 0.1641 0.0
C475 C 0.83883 0.62643 0.08784 0.0
Co476 Co 0.54002 0.80251 0.16099 0.0
Co477 Co 0.59146 0.87111 0.16789 0.0
C478 C 0.61714 0.79612 0.19088 0.0
O479 O 0.58573 0.78228 0.18466 0.0
O480 O 0.62288 0.8301 0.18585 0.0
C481 C 0.50412 0.74005 0.19426 0.0
O482 O 0.53108 0.74203 0.22071 0.0
C483 C 0.63772 0.92683 0.20697 0.0
C484 C 0.63211 0.97293 0.16365 0.0
C485 C 0.64759 0.96307 0.20075 0.0
N486 N 0.61652 0.9162 0.17553 0.0
N487 N 0.61361 0.94374 0.14955 0.0
C488 C 0.64869 0.90241 0.2417 0.0
H489 H 0.651 0.8738 0.23141 0.0
H490 H 0.6275 0.9036 0.26597 0.0
H491 H 0.67535 0.91092 0.2548 0.0
C492 C 0.48938 0.85378 0.20427 0.0
N493 N 0.52261 0.84486 0.18914 0.0
N494 N 0.54468 0.873 0.19325 0.0
C495 C 0.52628 0.9006 0.21126 0.0
C496 C 0.49051 0.88958 0.2186 0.0
C497 C 0.45648 0.8296 0.20148 0.0
H498 H 0.45427 0.8183 0.17005 0.0
H499 H 0.45981 0.80632 0.22293 0.0
H500 H 0.43102 0.84454 0.2092 0.0
O501 O 0.55303 0.81335 0.10219 0.0
O502 O 0.58634 0.86404 0.10867 0.0
H503 H 0.54814 0.95201 0.19196 0.0
H504 H 0.52412 0.95392 0.24028 0.0
C505 C 0.54251 0.93718 0.2209 0.0
H506 H 0.56858 0.9334 0.23753 0.0
H507 H 0.59842 0.94279 0.12252 0.0
O508 O 0.50236 0.76322 0.1652 0.0
C509 C 0.57208 0.83918 0.0866 0.0
Co510 Co 0.39911 0.54267 0.16248 0.0
Co511 Co 0.32895 0.59211 0.1675 0.0
C512 C 0.40287 0.6197 0.19268 0.0
O513 O 0.41771 0.58872 0.18689 0.0
O514 O 0.3689 0.62453 0.1865 0.0
C515 C 0.46459 0.50928 0.19355 0.0
O516 O 0.46486 0.53819 0.21734 0.0
C517 C 0.27165 0.6339 0.20876 0.0
C518 C 0.22967 0.63814 0.16034 0.0
C519 C 0.23699 0.64766 0.20062 0.0
N520 N 0.28378 0.61671 0.17506 0.0
N521 N 0.25862 0.61937 0.14621 0.0
C522 C 0.2938 0.63808 0.24706 0.0
H523 H 0.32304 0.63262 0.24121 0.0
H524 H 0.28433 0.61801 0.27019 0.0
H525 H 0.29056 0.66599 0.25983 0.0
C526 C 0.34899 0.49174 0.20779 0.0
N527 N 0.3567 0.52437 0.19028 0.0
N528 N 0.32761 0.54535 0.19263 0.0
C529 C 0.30042 0.52667 0.21116 0.0
C530 C 0.31306 0.49219 0.22187 0.0
C531 C 0.37575 0.46103 0.21123 0.0
H532 H 0.38467 0.4527 0.18013 0.0
H533 H 0.40027 0.47063 0.2281 0.0
H534 H 0.36391 0.43718 0.22748 0.0
O535 O 0.38878 0.55591 0.10318 0.0
O536 O 0.33697 0.58749 0.10867 0.0
H537 H 0.25328 0.55259 0.18524 0.0
H538 H 0.24254 0.51753 0.22184 0.0
C539 C 0.26183 0.54001 0.21454 0.0
H540 H 0.26016 0.56088 0.23903 0.0
H541 H 0.26123 0.60838 0.11688 0.0
O542 O 0.43922 0.50561 0.16707 0.0
C543 C 0.36266 0.57423 0.08707 0.0
C544 C 0.11087 0.37123 0.48601 0.0
C545 C 0.11826 0.33831 0.46552 0.0
H546 H 0.09151 0.39683 0.54078 0.0
C547 C 0.11045 0.30506 0.48528 0.0
H548 H 0.11616 0.39725 0.47132 0.0
C549 C 0.09504 0.30483 0.5246 0.0
C550 C 0.08791 0.33783 0.54512 0.0
H551 H 0.11516 0.2793 0.46984 0.0
H552 H 0.08951 0.27887 0.5393 0.0
C553 C 0.09632 0.37098 0.52553 0.0
C554 C 0.8948 0.09233 0.52461 0.0
C555 C 0.86178 0.08462 0.54489 0.0
H556 H 0.92041 0.11338 0.47026 0.0
C557 C 0.82863 0.09264 0.52511 0.0
H558 H 0.92075 0.08718 0.53951 0.0
C559 C 0.82844 0.1074 0.48562 0.0
C560 C 0.86139 0.11562 0.4655 0.0
H561 H 0.80278 0.08748 0.54025 0.0
H562 H 0.80244 0.11243 0.47077 0.0
C563 C 0.89461 0.10808 0.48543 0.0
C564 C 0.10773 0.89494 0.52315 0.0
C565 C 0.11514 0.86172 0.54312 0.0
H566 H 0.0875 0.92109 0.46882 0.0
C567 C 0.10751 0.82877 0.52275 0.0
H568 H 0.11267 0.92074 0.53845 0.0
C569 C 0.09328 0.82897 0.48307 0.0
C570 C 0.08541 0.86212 0.46323 0.0
H571 H 0.11254 0.80276 0.53757 0.0
H572 H 0.08839 0.80311 0.46785 0.0
C573 C 0.09263 0.89513 0.4837 0.0
C574 C 0.36918 0.10302 0.52714 0.0
C575 C 0.33622 0.11366 0.54568 0.0
H576 H 0.39538 0.0813 0.47386 0.0
C577 C 0.3033 0.10858 0.52417 0.0
H578 H 0.39494 0.10617 0.54316 0.0
C579 C 0.30345 0.09302 0.48487 0.0
C580 C 0.33658 0.08297 0.46619 0.0
H581 H 0.27742 0.11581 0.53808 0.0
H582 H 0.27782 0.08997 0.46861 0.0
C583 C 0.3694 0.0883 0.48771 0.0
C584 C 0.60472 0.8707 0.98271 0.0
C585 C 0.61304 0.83745 0.96334 0.0
H586 H 0.58493 0.89721 0.03677 0.0
C587 C 0.60579 0.80455 0.98406 0.0
H588 H 0.60961 0.89647 0.9673 0.0
C589 C 0.59034 0.80496 0.02336 0.0
C590 C 0.58262 0.8383 0.04291 0.0
H591 H 0.61124 0.77852 0.96952 0.0
H592 H 0.58553 0.77926 0.03894 0.0
C593 C 0.59016 0.87112 0.02224 0.0
C594 C 0.39667 0.60756 0.98365 0.0
C595 C 0.36352 0.6149 0.96344 0.0
H596 H 0.4225 0.5874 0.03835 0.0
C597 C 0.3305 0.607 0.98357 0.0
H598 H 0.42253 0.61264 0.96853 0.0
C599 C 0.33049 0.59249 0.02307 0.0
C600 C 0.36349 0.58478 0.04329 0.0
H601 H 0.30452 0.61192 0.96863 0.0
H602 H 0.30449 0.58741 0.03794 0.0
C603 C 0.39665 0.59233 0.02316 0.0
C604 C 0.5895 0.39481 0.98521 0.0
C605 C 0.58146 0.36159 0.96555 0.0
H606 H 0.61068 0.42096 0.03912 0.0
C607 C 0.58867 0.32866 0.98614 0.0
H608 H 0.58495 0.42058 0.9697 0.0
C609 C 0.60327 0.32887 0.02565 0.0
C610 C 0.61194 0.362 0.04512 0.0
H611 H 0.58321 0.30264 0.97152 0.0
H612 H 0.60794 0.30302 0.04096 0.0
C613 C 0.60496 0.39501 0.02451 0.0
C614 C 0.80554 0.60757 0.02416 0.0
C615 C 0.83864 0.61511 0.04437 0.0
H616 H 0.77975 0.58661 0.96991 0.0
C617 C 0.87172 0.60682 0.02461 0.0
H618 H 0.77964 0.61294 0.03906 0.0
C619 C 0.87178 0.59197 0.98519 0.0
C620 C 0.83875 0.58396 0.96513 0.0
H621 H 0.89762 0.61185 0.03971 0.0
H622 H 0.89773 0.58675 0.97031 0.0
C623 C 0.8056 0.59175 0.98505 0.0
C624 C 0.25897 0.21435 0.32781 0.0
C625 C 0.22369 0.20982 0.3117 0.0
H626 H 0.31061 0.18947 0.34073 0.0
C627 C 0.21429 0.17635 0.2934 0.0
H628 H 0.26705 0.24002 0.34166 0.0
C629 C 0.23901 0.14722 0.29333 0.0
C630 C 0.27394 0.15134 0.31061 0.0
H631 H 0.18728 0.17215 0.28063 0.0
H632 H 0.23044 0.12119 0.28078 0.0
C633 C 0.28402 0.18552 0.32681 0.0
C634 C 0.988 0.25652 0.32778 0.0
C635 C 0.99338 0.22027 0.31515 0.0
H636 H 0.01196 0.30923 0.33706 0.0
C637 C 0.02765 0.21004 0.29941 0.0
H638 H 0.96174 0.26526 0.33954 0.0
C639 C 0.05657 0.23505 0.29841 0.0
C640 C 0.05155 0.27105 0.31218 0.0
H641 H 0.03253 0.18228 0.28929 0.0
H642 H 0.08312 0.22594 0.28786 0.0
C643 C 0.01668 0.28178 0.32587 0.0
C644 C 0.91853 0.02141 0.28679 0.0
C645 C 0.92849 0.05118 0.31159 0.0
H646 H 0.93212 0.96716 0.26664 0.0
C647 C 0.96049 0.04887 0.33529 0.0
H648 H 0.89382 0.0224 0.26855 0.0
C649 C 0.98136 0.01698 0.33548 0.0
C650 C 0.97135 0.9872 0.31095 0.0
H651 H 0.96856 0.07115 0.35519 0.0
H652 H 1.00541 0.01562 0.35478 0.0
C653 C 0.94026 0.98988 0.28585 0.0
C654 C 0.2119 0.94505 0.32365 0.0
C655 C 0.20634 0.98134 0.31122 0.0
H656 H 0.18818 0.89221 0.33276 0.0
C657 C 0.17204 0.99146 0.29548 0.0
H658 H 0.23819 0.9364 0.33541 0.0
C659 C 0.14322 0.96631 0.29438 0.0
C660 C 0.1484 0.93028 0.30805 0.0
H661 H 0.16702 0.01923 0.28549 0.0
H662 H 0.11661 0.97535 0.28394 0.0
C663 C 0.18334 0.91967 0.32163 0.0
C664 C 0.23741 0.04794 0.67548 0.0
C665 C 0.26899 0.0504 0.69987 0.0
H666 H 0.19326 0.01427 0.65456 0.0
C667 C 0.27877 0.02055 0.72464 0.0
H668 H 0.2295 0.07026 0.65557 0.0
C669 C 0.2574 0.98873 0.72472 0.0
C670 C 0.22688 0.98586 0.6988 0.0
H671 H 0.30319 0.02164 0.74338 0.0
H672 H 0.26546 0.96592 0.74382 0.0
C673 C 0.21692 0.01578 0.67446 0.0
C674 C 0.18451 0.28282 0.68826 0.0
C675 C 0.14965 0.27251 0.70244 0.0
H676 H 0.23895 0.26554 0.6735 0.0
C677 C 0.14431 0.2366 0.71648 0.0
H678 H 0.18943 0.31017 0.6768 0.0
C679 C 0.17285 0.21122 0.71504 0.0
C680 C 0.20698 0.22098 0.69851 0.0
H681 H 0.11773 0.22781 0.72733 0.0
H682 H 0.1677 0.18352 0.72524 0.0
C683 C 0.21276 0.25718 0.68583 0.0
C684 C 0.92017 0.1794 0.72286 0.0
C685 C 0.93006 0.14947 0.6983 0.0
H686 H 0.9338 0.23383 0.74249 0.0
C687 C 0.96206 0.15166 0.67456 0.0
H688 H 0.89547 0.17852 0.74112 0.0
C689 C 0.98296 0.18359 0.67408 0.0
C690 C 0.973 0.21355 0.69833 0.0
H691 H 0.97009 0.12926 0.65484 0.0
H692 H 1.00699 0.18485 0.65473 0.0
C693 C 0.94193 0.21098 0.72349 0.0
C694 C 0.01654 0.91796 0.68461 0.0
C695 C 0.05144 0.92839 0.69857 0.0
H696 H 0.96183 0.93492 0.67064 0.0
C697 C 0.05668 0.96427 0.71268 0.0
H698 H 0.01166 0.89062 0.67314 0.0
C699 C 0.02798 0.98948 0.71165 0.0
C700 C 0.99373 0.97958 0.69555 0.0
H701 H 0.08326 0.97317 0.72343 0.0
H702 H 0.03305 0.01715 0.72199 0.0
C703 C 0.9881 0.94342 0.68267 0.0
C704 C 0.71875 0.6831 0.83583 0.0
C705 C 0.72882 0.71302 0.81152 0.0
H706 H 0.73143 0.62878 0.85514 0.0
C707 C 0.75986 0.71043 0.78636 0.0
H708 H 0.69471 0.68439 0.85517 0.0
C709 C 0.78151 0.67884 0.78703 0.0
C710 C 0.7715 0.64894 0.81163 0.0
H711 H 0.76803 0.73326 0.7673 0.0
H712 H 0.80621 0.67791 0.76875 0.0
C713 C 0.73953 0.65117 0.83538 0.0
C714 C 0.51685 0.77908 0.81981 0.0
C715 C 0.55217 0.76856 0.8074 0.0
H716 H 0.46187 0.7621 0.83251 0.0
C717 C 0.55792 0.73235 0.79467 0.0
H718 H 0.51154 0.80668 0.83019 0.0
C719 C 0.52931 0.70695 0.7956 0.0
C720 C 0.49459 0.71701 0.81021 0.0
H721 H 0.58481 0.72336 0.78514 0.0
H722 H 0.53479 0.67906 0.78639 0.0
C723 C 0.48847 0.75347 0.82164 0.0
C724 C 0.48565 0.52278 0.79108 0.0
C725 C 0.47618 0.48936 0.80949 0.0
H726 H 0.46937 0.5778 0.77783 0.0
C727 C 0.44064 0.48464 0.82478 0.0
H728 H 0.51286 0.52709 0.7789 0.0
C729 C 0.4154 0.51327 0.82299 0.0
C730 C 0.42556 0.54746 0.80684 0.0
H731 H 0.43252 0.45899 0.83866 0.0
H732 H 0.38862 0.50922 0.8364 0.0
C733 C 0.46074 0.55173 0.79028 0.0
C734 C 0.71199 0.4434 0.82771 0.0
C735 C 0.70659 0.4796 0.81486 0.0
H736 H 0.68807 0.3907 0.83726 0.0
C737 C 0.67235 0.48973 0.79898 0.0
H738 H 0.73824 0.43474 0.8396 0.0
C739 C 0.64346 0.46468 0.79805 0.0
C740 C 0.64849 0.42874 0.81206 0.0
H741 H 0.66745 0.51744 0.78869 0.0
H742 H 0.61692 0.47372 0.78738 0.0
C743 C 0.68335 0.41811 0.82589 0.0
C744 C 0.71794 0.51637 0.17275 0.0
C745 C 0.72774 0.4865 0.19724 0.0
H746 H 0.73088 0.57067 0.15348 0.0
C747 C 0.75856 0.48917 0.22275 0.0
H748 H 0.69408 0.51503 0.15314 0.0
C749 C 0.78026 0.52077 0.22227 0.0
C750 C 0.77052 0.55062 0.1975 0.0
H751 H 0.76653 0.46637 0.24195 0.0
H752 H 0.80479 0.52174 0.24082 0.0
C753 C 0.73876 0.54833 0.17338 0.0
C754 C 0.67206 0.71021 0.20979 0.0
C755 C 0.70638 0.72019 0.19394 0.0
H756 H 0.61674 0.72648 0.22135 0.0
C757 C 0.71205 0.75637 0.18116 0.0
H758 H 0.66696 0.68251 0.22003 0.0
C759 C 0.6836 0.78181 0.18301 0.0
C760 C 0.64866 0.77134 0.19678 0.0
H761 H 0.73837 0.76492 0.16931 0.0
H762 H 0.68852 0.8092 0.17168 0.0
C763 C 0.64335 0.7354 0.21074 0.0
C764 C 0.4865 0.67689 0.21574 0.0
C765 C 0.4769 0.7104 0.19767 0.0
H766 H 0.47048 0.62164 0.22834 0.0
C767 C 0.44145 0.71493 0.18211 0.0
H768 H 0.51366 0.67271 0.22809 0.0
C769 C 0.41641 0.68607 0.18338 0.0
C770 C 0.42667 0.65184 0.19929 0.0
H771 H 0.43324 0.74063 0.16845 0.0
H772 H 0.38966 0.69002 0.16984 0.0
C773 C 0.46178 0.64771 0.21605 0.0
C774 C 0.55688 0.46625 0.21425 0.0
C775 C 0.55134 0.43021 0.20078 0.0
H776 H 0.53359 0.51937 0.22292 0.0
C777 C 0.51628 0.4198 0.18733 0.0
H778 H 0.58359 0.47514 0.22457 0.0
C779 C 0.48796 0.44539 0.18521 0.0
C780 C 0.49387 0.48167 0.19744 0.0
H781 H 0.51117 0.39234 0.17633 0.0
H782 H 0.46157 0.43688 0.17354 0.0
C783 C 0.52829 0.4916 0.21309 0.0
C784 C 0.28612 0.42875 0.22365 0.0
C785 C 0.29161 0.46292 0.24237 0.0
H786 H 0.25581 0.37826 0.22422 0.0
C787 C 0.27303 0.47078 0.27893 0.0
H788 H 0.2999 0.42219 0.19524 0.0
C789 C 0.24796 0.4459 0.29529 0.0
C790 C 0.2408 0.41265 0.27538 0.0
H791 H 0.2769 0.49685 0.29403 0.0
H792 H 0.23312 0.45323 0.32279 0.0
C793 C 0.2609 0.40373 0.24011 0.0
C794 C 0.77245 0.22992 0.22907 0.0
C795 C 0.7918 0.23839 0.265 0.0
H796 H 0.7319 0.24686 0.18564 0.0
C797 C 0.78738 0.27324 0.28249 0.0
H798 H 0.77555 0.2034 0.21476 0.0
C799 C 0.76252 0.29833 0.26553 0.0
C800 C 0.74151 0.28874 0.23113 0.0
H801 H 0.8017 0.28038 0.31039 0.0
H802 H 0.7583 0.32438 0.28052 0.0
C803 C 0.74752 0.25475 0.21241 0.0
C804 C 0.92624 0.73045 0.28042 0.0
C805 C 0.90726 0.73833 0.24409 0.0
H806 H 0.96657 0.74803 0.32381 0.0
C807 C 0.91205 0.77281 0.22578 0.0
H808 H 0.92285 0.70421 0.29532 0.0
C809 C 0.93693 0.79809 0.24235 0.0
C810 C 0.95759 0.78905 0.27717 0.0
H811 H 0.898 0.77946 0.19755 0.0
H812 H 0.94147 0.82382 0.22675 0.0
C813 C 0.9512 0.75548 0.2967 0.0
C814 C 0.42801 0.97123 0.23007 0.0
C815 C 0.40903 0.96295 0.26627 0.0
H816 H 0.46821 0.95416 0.18639 0.0
C817 C 0.41419 0.92853 0.28452 0.0
H818 H 0.42441 0.99751 0.21533 0.0
C819 C 0.43945 0.90366 0.26798 0.0
C820 C 0.45993 0.91297 0.23307 0.0
H821 H 0.40011 0.92163 0.31266 0.0
H822 H 0.44426 0.87796 0.28352 0.0
C823 C 0.45311 0.94651 0.21362 0.0
C824 C 0.2871 0.7706 0.78112 0.0
C825 C 0.29187 0.73615 0.76279 0.0
H826 H 0.25782 0.82163 0.78008 0.0
C827 C 0.27313 0.72839 0.72627 0.0
H828 H 0.30108 0.7772 0.80941 0.0
C829 C 0.24832 0.75348 0.70987 0.0
C830 C 0.24187 0.787 0.72947 0.0
H831 H 0.27657 0.70219 0.71133 0.0
H832 H 0.23311 0.74612 0.68262 0.0
C833 C 0.26236 0.79593 0.76445 0.0
C834 C 0.41453 0.27095 0.7229 0.0
C835 C 0.40778 0.23752 0.74279 0.0
H836 H 0.44594 0.32076 0.72244 0.0
C837 C 0.42537 0.23037 0.78015 0.0
H838 H 0.40157 0.27695 0.69385 0.0
C839 C 0.45071 0.25512 0.7962 0.0
C840 C 0.45902 0.28759 0.77527 0.0
H841 H 0.42052 0.20488 0.79616 0.0
H842 H 0.46484 0.24828 0.82434 0.0
C843 C 0.43993 0.29588 0.73911 0.0
C844 C 0.95246 0.44549 0.71229 0.0
C845 C 0.95825 0.41141 0.73091 0.0
H846 H 0.92451 0.49686 0.71459 0.0
C847 C 0.93705 0.40172 0.76512 0.0
H848 H 0.96824 0.45345 0.68566 0.0
C849 C 0.91219 0.42681 0.78202 0.0
C850 C 0.90795 0.46173 0.76462 0.0
H851 H 0.94114 0.37561 0.78004 0.0
H852 H 0.89773 0.41963 0.80982 0.0
C853 C 0.92748 0.47028 0.72883 0.0
C854 C 0.76317 0.90197 0.74338 0.0
C855 C 0.74207 0.91116 0.77782 0.0
H856 H 0.80245 0.92044 0.69887 0.0
C857 C 0.74797 0.945 0.79694 0.0
H858 H 0.75901 0.87604 0.72808 0.0
C859 C 0.77297 0.97005 0.78069 0.0
C860 C 0.79244 0.96197 0.74474 0.0
H861 H 0.73227 0.95259 0.82374 0.0
H862 H 0.77603 0.99643 0.79535 0.0
C863 C 0.78805 0.92728 0.72681 0.0
C864 C 0.03352 0.71523 0.77148 0.0
C865 C 0.03154 0.71272 0.72864 0.0
H866 H 0.0127 0.69679 0.82901 0.0
C867 C 1.00878 0.68615 0.71101 0.0
H868 H 0.05242 0.73374 0.78622 0.0
C869 C 0.98695 0.6639 0.73567 0.0
C870 C 0.98698 0.66821 0.77843 0.0
H871 H 1.00753 0.68279 0.67808 0.0
H872 H 0.97052 0.6432 0.721 0.0
C873 C 0.01122 0.69348 0.79609 0.0
C874 C 0.50906 1.00433 0.71122 0.0
C875 C 0.48528 0.02956 0.72958 0.0
H876 H 0.55032 0.96397 0.71995 0.0
C877 C 0.48607 0.03374 0.77234 0.0
H878 H 0.50988 1.00114 0.67826 0.0
C879 C 0.50833 0.01144 0.79636 0.0
C880 C 0.53069 0.98493 0.77808 0.0
H881 H 0.46993 0.05439 0.78746 0.0
H882 H 0.50774 0.01472 0.82932 0.0
C883 C 0.53178 0.98248 0.7352 0.0
C884 C 0.20592 0.47329 0.74009 0.0
C885 C 0.17065 0.48493 0.7295 0.0
H886 H 0.25498 0.48538 0.77331 0.0
C887 C 0.15749 0.5183 0.74457 0.0
H888 H 0.2166 0.4477 0.7285 0.0
C889 C 0.1791 0.53946 0.77064 0.0
C890 C 0.2145 0.52799 0.7809 0.0
H891 H 0.13027 0.52765 0.73677 0.0
H892 H 0.1684 0.56502 0.78229 0.0
C893 C 0.22784 0.49484 0.76539 0.0
C894 C 0.69262 0.18729 0.79915 0.0
C895 C 0.6695 0.21343 0.78136 0.0
H896 H 0.73126 0.14472 0.78946 0.0
C897 C 0.66741 0.21562 0.7385 0.0
H898 H 0.694 0.18416 0.8321 0.0
C899 C 0.68987 0.19398 0.71403 0.0
C900 C 0.71439 0.16911 0.73183 0.0
H901 H 0.64825 0.23371 0.72361 0.0
H902 H 0.68823 0.19702 0.68108 0.0
C903 C 0.7146 0.16512 0.77463 0.0
C904 C 1.00764 0.51297 0.29906 0.0
C905 C 0.03052 0.48659 0.28135 0.0
H906 H 0.96929 0.55578 0.2892 0.0
C907 C 0.03256 0.48424 0.23851 0.0
H908 H 1.00634 0.51619 0.332 0.0
C909 C 1.01026 0.506 0.21396 0.0
C910 C 0.98596 0.53111 0.23168 0.0
H911 H 0.05154 0.4659 0.22371 0.0
H912 H 0.01184 0.50285 0.18102 0.0
C913 C 0.9858 0.53522 0.27446 0.0
C914 C 0.69194 0.01414 0.21015 0.0
C915 C 0.66939 0.98725 0.22749 0.0
H916 H 0.72981 0.05734 0.22063 0.0
C917 C 0.66728 0.98443 0.2703 0.0
H918 H 0.69322 0.01773 0.17725 0.0
C919 C 0.68932 1.0062 0.29516 0.0
C920 C 0.71339 0.03178 0.27779 0.0
H921 H 0.64849 0.96561 0.28479 0.0
H922 H 0.68777 1.00264 0.32805 0.0
C923 C 0.71351 0.0364 0.23507 0.0
C924 C 0.19087 0.68789 0.29442 0.0
C925 C 0.16833 0.71454 0.27666 0.0
H926 H 0.22888 0.64475 0.2847 0.0
C927 C 0.16663 0.7171 0.2338 0.0
H928 H 0.19195 0.68451 0.32736 0.0
C929 C 0.18886 0.69518 0.20933 0.0
C930 C 0.21278 0.66975 0.22715 0.0
H931 H 0.14793 0.73568 0.21891 0.0
H932 H 0.18753 0.69846 0.1764 0.0
C933 C 0.21265 0.66552 0.26992 0.0
C934 C 0.51129 0.19482 0.29986 0.0
C935 C 0.48751 0.16905 0.28235 0.0
H936 H 0.55183 0.23574 0.28969 0.0
C937 C 0.4876 0.16445 0.23964 0.0
H938 H 0.51264 0.19837 0.33276 0.0
C939 C 0.50913 0.18686 0.21484 0.0
C940 C 0.53143 0.2139 0.23228 0.0
H941 H 0.47149 0.14341 0.22513 0.0
H942 H 0.50801 0.18325 0.18194 0.0
C943 C 0.53327 0.21678 0.2751 0.0
loop_
_geom_bond_atom_site_label_1
_geom_bond_atom_site_label_2
_geom_bond_distance
_geom_bond_site_symmetry_2
_ccdc_geom_bond_type
Co0 O3 1.970 . S
Co0 N17 1.989 . S
Co0 O25 1.967 . S
Co0 O32 1.920 . S
Co1 O4 1.966 . S
Co1 N10 2.022 . S
Co1 N18 1.993 . S
Co1 O26 1.941 . S
C2 O3 1.258 . S
C2 O4 1.263 . S
O3 Co0 1.970 . S
O3 C2 1.258 . S
O4 Co1 1.966 . S
O4 C2 1.263 . S
C5 O6 1.235 . S
C5 O32 1.289 . S
O6 C5 1.235 . S
C7 C9 1.400 . S
C7 N10 1.351 . S
C7 C12 1.501 . S
C8 C9 1.387 . S
C8 N11 1.341 . S
C9 C7 1.400 . S
C9 C8 1.387 . S
N10 Co1 2.022 . S
N10 C7 1.351 . S
N10 N11 1.365 . S
N11 C8 1.341 . S
N11 N10 1.365 . S
N11 H31 0.862 . S
C12 C7 1.501 . S
C12 H13 0.961 . S
C12 H14 0.961 . S
C12 H15 0.960 1_455 S
H13 C12 0.961 . S
H14 C12 0.961 . S
H15 C12 0.960 1_655 S
C16 N17 1.342 . S
C16 C20 1.401 . S
C16 C21 1.499 . S
N17 Co0 1.989 . S
N17 C16 1.342 . S
N17 N18 1.388 . S
N18 Co1 1.993 . S
N18 N17 1.388 . S
N18 C19 1.346 . S
C19 N18 1.346 . S
C19 C20 1.396 . S
C19 C29 1.510 . S
C20 C16 1.401 . S
C20 C19 1.396 . S
C21 C16 1.499 . S
C21 H22 0.959 . S
C21 H23 0.960 . S
C21 H24 0.961 . S
H22 C21 0.959 . S
H23 C21 0.960 . S
H24 C21 0.961 . S
O25 Co0 1.967 . S
O25 C33 1.258 . S
O26 Co1 1.941 . S
O26 C33 1.266 . S
H27 C29 0.959 . S
H28 C29 0.961 . S
C29 C19 1.510 . S
C29 H27 0.959 . S
C29 H28 0.961 . S
C29 H30 0.960 . S
H30 C29 0.960 . S
H31 N11 0.862 . S
O32 Co0 1.920 . S
O32 C5 1.289 . S
C33 O25 1.258 . S
C33 O26 1.266 . S
Co34 O37 1.970 . S
Co34 N51 1.989 . S
Co34 O59 1.967 . S
Co34 O66 1.920 . S
Co35 O38 1.966 . S
Co35 N44 2.022 . S
Co35 N52 1.993 . S
Co35 O60 1.941 . S
C36 O37 1.258 . S
C36 O38 1.263 . S
O37 Co34 1.970 . S
O37 C36 1.258 . S
O38 Co35 1.966 . S
O38 C36 1.263 . S
C39 O40 1.235 . S
C39 O66 1.289 . S
O40 C39 1.235 . S
C41 C43 1.400 . S
C41 N44 1.351 . S
C41 C46 1.501 . S
C42 C43 1.387 . S
C42 N45 1.341 . S
C43 C41 1.400 . S
C43 C42 1.387 . S
N44 Co35 2.022 . S
N44 C41 1.351 . S
N44 N45 1.365 . S
N45 C42 1.341 . S
N45 N44 1.365 . S
N45 H65 0.862 . S
C46 C41 1.501 . S
C46 H47 0.961 . S
C46 H48 0.961 . S
C46 H49 0.960 1_545 S
H47 C46 0.961 . S
H48 C46 0.961 . S
H49 C46 0.960 1_565 S
C50 N51 1.342 . S
C50 C54 1.401 . S
C50 C55 1.499 . S
N51 Co34 1.989 . S
N51 C50 1.342 . S
N51 N52 1.388 . S
N52 Co35 1.993 . S
N52 N51 1.388 . S
N52 C53 1.346 . S
C53 N52 1.346 . S
C53 C54 1.396 . S
C53 C63 1.510 . S
C54 C50 1.401 . S
C54 C53 1.396 . S
C55 C50 1.499 . S
C55 H56 0.959 . S
C55 H57 0.960 . S
C55 H58 0.961 . S
H56 C55 0.959 . S
H57 C55 0.960 . S
H58 C55 0.961 . S
O59 Co34 1.967 . S
O59 C67 1.258 . S
O60 Co35 1.941 . S
O60 C67 1.266 . S
H61 C63 0.959 . S
H62 C63 0.961 . S
C63 C53 1.510 . S
C63 H61 0.959 . S
C63 H62 0.961 . S
C63 H64 0.960 . S
H64 C63 0.960 . S
H65 N45 0.862 . S
O66 Co34 1.920 . S
O66 C39 1.289 . S
C67 O59 1.258 . S
C67 O60 1.266 . S
Co68 O71 1.970 . S
Co68 N85 1.989 . S
Co68 O93 1.967 . S
Co68 O100 1.920 1_455 S
Co69 O72 1.966 . S
Co69 N78 2.022 . S
Co69 N86 1.993 . S
Co69 O94 1.941 . S
C70 O71 1.258 . S
C70 O72 1.263 . S
O71 Co68 1.970 . S
O71 C70 1.258 . S
O72 Co69 1.966 . S
O72 C70 1.263 . S
C73 O74 1.235 . S
C73 O100 1.289 . S
O74 C73 1.235 . S
C75 C77 1.400 . S
C75 N78 1.351 . S
C75 C80 1.501 . S
C76 C77 1.387 . S
C76 N79 1.341 . S
C77 C75 1.400 . S
C77 C76 1.387 . S
N78 Co69 2.022 . S
N78 C75 1.351 . S
N78 N79 1.365 . S
N79 C76 1.341 . S
N79 N78 1.365 . S
N79 H99 0.862 . S
C80 C75 1.501 . S
C80 H81 0.961 . S
C80 H82 0.961 . S
C80 H83 0.960 . S
H81 C80 0.961 . S
H82 C80 0.961 . S
H83 C80 0.960 . S
C84 N85 1.342 1_655 S
C84 C88 1.401 . S
C84 C89 1.499 . S
N85 Co68 1.989 . S
N85 C84 1.342 1_455 S
N85 N86 1.388 . S
N86 Co69 1.993 . S
N86 N85 1.388 . S
N86 C87 1.346 . S
C87 N86 1.346 . S
C87 C88 1.396 1_455 S
C87 C97 1.510 . S
C88 C84 1.401 . S
C88 C87 1.396 1_655 S
C89 C84 1.499 . S
C89 H90 0.959 . S
C89 H91 0.960 . S
C89 H92 0.961 . S
H90 C89 0.959 . S
H91 C89 0.960 . S
H92 C89 0.961 . S
O93 Co68 1.967 . S
O93 C101 1.258 . S
O94 Co69 1.941 . S
O94 C101 1.266 . S
H95 C97 0.959 . S
H96 C97 0.961 . S
C97 C87 1.510 . S
C97 H95 0.959 . S
C97 H96 0.961 . S
C97 H98 0.960 . S
H98 C97 0.960 . S
H99 N79 0.862 . S
O100 Co68 1.920 1_655 S
O100 C73 1.289 . S
C101 O93 1.258 . S
C101 O94 1.266 . S
Co102 O105 1.970 . S
Co102 N119 1.989 . S
Co102 O127 1.967 . S
Co102 O134 1.920 1_545 S
Co103 O106 1.966 . S
Co103 N112 2.022 . S
Co103 N120 1.993 . S
Co103 O128 1.941 . S
C104 O105 1.258 . S
C104 O106 1.263 . S
O105 Co102 1.970 . S
O105 C104 1.258 . S
O106 Co103 1.966 . S
O106 C104 1.263 . S
C107 O108 1.235 . S
C107 O134 1.289 . S
O108 C107 1.235 . S
C109 C111 1.400 . S
C109 N112 1.351 . S
C109 C114 1.501 . S
C110 C111 1.387 . S
C110 N113 1.341 . S
C111 C109 1.400 . S
C111 C110 1.387 . S
N112 Co103 2.022 . S
N112 C109 1.351 . S
N112 N113 1.365 . S
N113 C110 1.341 . S
N113 N112 1.365 . S
N113 H133 0.862 . S
C114 C109 1.501 . S
C114 H115 0.961 . S
C114 H116 0.961 . S
C114 H117 0.960 . S
H115 C114 0.961 . S
H116 C114 0.961 . S
H117 C114 0.960 . S
C118 N119 1.342 1_565 S
C118 C122 1.401 . S
C118 C123 1.499 . S
N119 Co102 1.989 . S
N119 C118 1.342 1_545 S
N119 N120 1.388 . S
N120 Co103 1.993 . S
N120 N119 1.388 . S
N120 C121 1.346 . S
C121 N120 1.346 . S
C121 C122 1.396 1_545 S
C121 C131 1.510 . S
C122 C118 1.401 . S
C122 C121 1.396 1_565 S
C123 C118 1.499 . S
C123 H124 0.959 . S
C123 H125 0.960 . S
C123 H126 0.961 . S
H124 C123 0.959 . S
H125 C123 0.960 . S
H126 C123 0.961 . S
O127 Co102 1.967 . S
O127 C135 1.258 . S
O128 Co103 1.941 . S
O128 C135 1.266 . S
H129 C131 0.959 . S
H130 C131 0.961 . S
C131 C121 1.510 . S
C131 H129 0.959 . S
C131 H130 0.961 . S
C131 H132 0.960 . S
H132 C131 0.960 . S
H133 N113 0.862 . S
O134 Co102 1.920 1_565 S
O134 C107 1.289 . S
C135 O127 1.258 . S
C135 O128 1.266 . S
Co136 O139 1.970 . S
Co136 N153 1.989 . S
Co136 O161 1.967 . S
Co136 O168 1.920 . S
Co137 O140 1.966 . S
Co137 N146 2.022 . S
Co137 N154 1.993 . S
Co137 O162 1.941 . S
C138 O139 1.258 . S
C138 O140 1.263 . S
O139 Co136 1.970 . S
O139 C138 1.258 . S
O140 Co137 1.966 . S
O140 C138 1.263 . S
C141 O142 1.235 . S
C141 O168 1.289 . S
O142 C141 1.235 . S
C143 C145 1.400 . S
C143 N146 1.351 . S
C143 C148 1.501 . S
C144 C145 1.387 . S
C144 N147 1.341 . S
C145 C143 1.400 . S
C145 C144 1.387 . S
N146 Co137 2.022 . S
N146 C143 1.351 . S
N146 N147 1.365 . S
N147 C144 1.341 . S
N147 N146 1.365 . S
N147 H167 0.862 . S
C148 C143 1.501 . S
C148 H149 0.961 . S
C148 H150 0.961 . S
C148 H151 0.960 1_455 S
H149 C148 0.961 . S
H150 C148 0.961 . S
H151 C148 0.960 1_655 S
C152 N153 1.342 . S
C152 C156 1.401 . S
C152 C157 1.499 . S
N153 Co136 1.989 . S
N153 C152 1.342 . S
N153 N154 1.388 . S
N154 Co137 1.993 . S
N154 N153 1.388 . S
N154 C155 1.346 . S
C155 N154 1.346 . S
C155 C156 1.396 . S
C155 C165 1.510 . S
C156 C152 1.401 . S
C156 C155 1.396 . S
C157 C152 1.499 . S
C157 H158 0.959 . S
C157 H159 0.960 . S
C157 H160 0.961 . S
H158 C157 0.959 . S
H159 C157 0.960 . S
H160 C157 0.961 . S
O161 Co136 1.967 . S
O161 C169 1.258 . S
O162 Co137 1.941 . S
O162 C169 1.266 . S
H163 C165 0.959 . S
H164 C165 0.961 . S
C165 C155 1.510 . S
C165 H163 0.959 . S
C165 H164 0.961 . S
C165 H166 0.960 . S
H166 C165 0.960 . S
H167 N147 0.862 . S
O168 Co136 1.920 . S
O168 C141 1.289 . S
C169 O161 1.258 . S
C169 O162 1.266 . S
Co170 O173 1.970 . S
Co170 N187 1.989 . S
Co170 O195 1.967 . S
Co170 O202 1.920 . S
Co171 O174 1.966 . S
Co171 N180 2.022 . S
Co171 N188 1.993 . S
Co171 O196 1.941 . S
C172 O173 1.258 . S
C172 O174 1.263 . S
O173 Co170 1.970 . S
O173 C172 1.258 . S
O174 Co171 1.966 . S
O174 C172 1.263 . S
C175 O176 1.235 . S
C175 O202 1.289 . S
O176 C175 1.235 . S
C177 C179 1.400 . S
C177 N180 1.351 . S
C177 C182 1.501 . S
C178 C179 1.387 . S
C178 N181 1.341 . S
C179 C177 1.400 . S
C179 C178 1.387 . S
N180 Co171 2.022 . S
N180 C177 1.351 . S
N180 N181 1.365 . S
N181 C178 1.341 . S
N181 N180 1.365 . S
N181 H201 0.862 . S
C182 C177 1.501 . S
C182 H183 0.961 . S
C182 H184 0.961 . S
C182 H185 0.960 1_545 S
H183 C182 0.961 . S
H184 C182 0.961 . S
H185 C182 0.960 1_565 S
C186 N187 1.342 . S
C186 C190 1.401 . S
C186 C191 1.499 . S
N187 Co170 1.989 . S
N187 C186 1.342 . S
N187 N188 1.388 . S
N188 Co171 1.993 . S
N188 N187 1.388 . S
N188 C189 1.346 . S
C189 N188 1.346 . S
C189 C190 1.396 . S
C189 C199 1.510 . S
C190 C186 1.401 . S
C190 C189 1.396 . S
C191 C186 1.499 . S
C191 H192 0.959 . S
C191 H193 0.960 . S
C191 H194 0.961 . S
H192 C191 0.959 . S
H193 C191 0.960 . S
H194 C191 0.961 . S
O195 Co170 1.967 . S
O195 C203 1.258 . S
O196 Co171 1.941 . S
O196 C203 1.266 . S
H197 C199 0.959 . S
H198 C199 0.961 . S
C199 C189 1.510 . S
C199 H197 0.959 . S
C199 H198 0.961 . S
C199 H200 0.960 . S
H200 C199 0.960 . S
H201 N181 0.862 . S
O202 Co170 1.920 . S
O202 C175 1.289 . S
C203 O195 1.258 . S
C203 O196 1.266 . S
Co204 O207 1.970 . S
Co204 N221 1.989 . S
Co204 O229 1.967 . S
Co204 O236 1.920 1_455 S
Co205 O208 1.966 . S
Co205 N214 2.022 . S
Co205 N222 1.993 . S
Co205 O230 1.941 . S
C206 O207 1.258 . S
C206 O208 1.263 . S
O207 Co204 1.970 . S
O207 C206 1.258 . S
O208 Co205 1.966 . S
O208 C206 1.263 . S
C209 O210 1.235 . S
C209 O236 1.289 . S
O210 C209 1.235 . S
C211 C213 1.400 . S
C211 N214 1.351 . S
C211 C216 1.501 . S
C212 C213 1.387 . S
C212 N215 1.341 . S
C213 C211 1.400 . S
C213 C212 1.387 . S
N214 Co205 2.022 . S
N214 C211 1.351 . S
N214 N215 1.365 . S
N215 C212 1.341 . S
N215 N214 1.365 . S
N215 H235 0.862 . S
C216 C211 1.501 . S
C216 H217 0.961 . S
C216 H218 0.961 . S
C216 H219 0.960 . S
H217 C216 0.961 . S
H218 C216 0.961 . S
H219 C216 0.960 . S
C220 N221 1.342 1_655 S
C220 C224 1.401 . S
C220 C225 1.499 . S
N221 Co204 1.989 . S
N221 C220 1.342 1_455 S
N221 N222 1.388 . S
N222 Co205 1.993 . S
N222 N221 1.388 . S
N222 C223 1.346 . S
C223 N222 1.346 . S
C223 C224 1.396 1_455 S
C223 C233 1.510 . S
C224 C220 1.401 . S
C224 C223 1.396 1_655 S
C225 C220 1.499 . S
C225 H226 0.959 . S
C225 H227 0.960 . S
C225 H228 0.961 . S
H226 C225 0.959 . S
H227 C225 0.960 . S
H228 C225 0.961 . S
O229 Co204 1.967 . S
O229 C237 1.258 . S
O230 Co205 1.941 . S
O230 C237 1.266 . S
H231 C233 0.959 . S
H232 C233 0.961 . S
C233 C223 1.510 . S
C233 H231 0.959 . S
C233 H232 0.961 . S
C233 H234 0.960 . S
H234 C233 0.960 . S
H235 N215 0.862 . S
O236 Co204 1.920 1_655 S
O236 C209 1.289 . S
C237 O229 1.258 . S
C237 O230 1.266 . S
Co238 O241 1.970 . S
Co238 N255 1.989 . S
Co238 O263 1.967 . S
Co238 O270 1.920 1_545 S
Co239 O242 1.966 . S
Co239 N248 2.022 . S
Co239 N256 1.993 . S
Co239 O264 1.941 . S
C240 O241 1.258 . S
C240 O242 1.263 . S
O241 Co238 1.970 . S
O241 C240 1.258 . S
O242 Co239 1.966 . S
O242 C240 1.263 . S
C243 O244 1.235 . S
C243 O270 1.289 . S
O244 C243 1.235 . S
C245 C247 1.400 . S
C245 N248 1.351 . S
C245 C250 1.501 . S
C246 C247 1.387 . S
C246 N249 1.341 . S
C247 C245 1.400 . S
C247 C246 1.387 . S
N248 Co239 2.022 . S
N248 C245 1.351 . S
N248 N249 1.365 . S
N249 C246 1.341 . S
N249 N248 1.365 . S
N249 H269 0.862 . S
C250 C245 1.501 . S
C250 H251 0.961 . S
C250 H252 0.961 . S
C250 H253 0.960 . S
H251 C250 0.961 . S
H252 C250 0.961 . S
H253 C250 0.960 . S
C254 N255 1.342 1_565 S
C254 C258 1.401 . S
C254 C259 1.499 . S
N255 Co238 1.989 . S
N255 C254 1.342 1_545 S
N255 N256 1.388 . S
N256 Co239 1.993 . S
N256 N255 1.388 . S
N256 C257 1.346 . S
C257 N256 1.346 . S
C257 C258 1.396 1_545 S
C257 C267 1.510 . S
C258 C254 1.401 . S
C258 C257 1.396 1_565 S
C259 C254 1.499 . S
C259 H260 0.959 . S
C259 H261 0.960 . S
C259 H262 0.961 . S
H260 C259 0.959 . S
H261 C259 0.960 . S
H262 C259 0.961 . S
O263 Co238 1.967 . S
O263 C271 1.258 . S
O264 Co239 1.941 . S
O264 C271 1.266 . S
H265 C267 0.959 . S
H266 C267 0.961 . S
C267 C257 1.510 . S
C267 H265 0.959 . S
C267 H266 0.961 . S
C267 H268 0.960 . S
H268 C267 0.960 . S
H269 N249 0.862 . S
O270 Co238 1.920 1_565 S
O270 C243 1.289 . S
C271 O263 1.258 . S
C271 O264 1.266 . S
Co272 O275 1.970 . S
Co272 N289 1.989 . S
Co272 O297 1.967 . S
Co272 O304 1.920 . S
Co273 O276 1.966 . S
Co273 N282 2.022 . S
Co273 N290 1.993 . S
Co273 O298 1.941 . S
C274 O275 1.258 . S
C274 O276 1.263 . S
O275 Co272 1.970 . S
O275 C274 1.258 . S
O276 Co273 1.966 . S
O276 C274 1.263 . S
C277 O278 1.235 . S
C277 O304 1.289 . S
O278 C277 1.235 . S
C279 C281 1.400 . S
C279 N282 1.351 . S
C279 C284 1.501 . S
C280 C281 1.387 . S
C280 N283 1.341 . S
C281 C279 1.400 . S
C281 C280 1.387 . S
N282 Co273 2.022 . S
N282 C279 1.351 . S
N282 N283 1.365 . S
N283 C280 1.341 . S
N283 N282 1.365 . S
N283 H303 0.862 . S
C284 C279 1.501 . S
C284 H285 0.961 . S
C284 H286 0.961 . S
C284 H287 0.960 . S
H285 C284 0.961 . S
H286 C284 0.961 . S
H287 C284 0.960 . S
C288 N289 1.342 . S
C288 C292 1.401 . S
C288 C293 1.499 . S
N289 Co272 1.989 . S
N289 C288 1.342 . S
N289 N290 1.388 . S
N290 Co273 1.993 . S
N290 N289 1.388 . S
N290 C291 1.346 . S
C291 N290 1.346 . S
C291 C292 1.396 . S
C291 C301 1.510 . S
C292 C288 1.401 . S
C292 C291 1.396 . S
C293 C288 1.499 . S
C293 H294 0.959 . S
C293 H295 0.960 . S
C293 H296 0.961 . S
H294 C293 0.959 . S
H295 C293 0.960 . S
H296 C293 0.961 . S
O297 Co272 1.967 . S
O297 C305 1.258 . S
O298 Co273 1.941 . S
O298 C305 1.266 . S
H299 C301 0.959 . S
H300 C301 0.961 . S
C301 C291 1.510 . S
C301 H299 0.959 . S
C301 H300 0.961 . S
C301 H302 0.960 . S
H302 C301 0.960 . S
H303 N283 0.862 . S
O304 Co272 1.920 . S
O304 C277 1.289 . S
C305 O297 1.258 . S
C305 O298 1.266 . S
Co306 O309 1.970 . S
Co306 N323 1.989 . S
Co306 O331 1.967 . S
Co306 O338 1.920 . S
Co307 O310 1.966 . S
Co307 N316 2.022 . S
Co307 N324 1.993 . S
Co307 O332 1.941 . S
C308 O309 1.258 . S
C308 O310 1.263 . S
O309 Co306 1.970 . S
O309 C308 1.258 . S
O310 Co307 1.966 . S
O310 C308 1.263 . S
C311 O312 1.235 . S
C311 O338 1.289 . S
O312 C311 1.235 . S
C313 C315 1.400 . S
C313 N316 1.351 . S
C313 C318 1.501 . S
C314 C315 1.387 . S
C314 N317 1.341 . S
C315 C313 1.400 . S
C315 C314 1.387 . S
N316 Co307 2.022 . S
N316 C313 1.351 . S
N316 N317 1.365 . S
N317 C314 1.341 . S
N317 N316 1.365 . S
N317 H337 0.862 . S
C318 C313 1.501 . S
C318 H319 0.961 . S
C318 H320 0.961 . S
C318 H321 0.960 . S
H319 C318 0.961 . S
H320 C318 0.961 . S
H321 C318 0.960 . S
C322 N323 1.342 . S
C322 C326 1.401 . S
C322 C327 1.499 . S
N323 Co306 1.989 . S
N323 C322 1.342 . S
N323 N324 1.388 . S
N324 Co307 1.993 . S
N324 N323 1.388 . S
N324 C325 1.346 . S
C325 N324 1.346 . S
C325 C326 1.396 . S
C325 C335 1.510 . S
C326 C322 1.401 . S
C326 C325 1.396 . S
C327 C322 1.499 . S
C327 H328 0.959 . S
C327 H329 0.960 . S
C327 H330 0.961 . S
H328 C327 0.959 . S
H329 C327 0.960 . S
H330 C327 0.961 . S
O331 Co306 1.967 . S
O331 C339 1.258 . S
O332 Co307 1.941 . S
O332 C339 1.266 . S
H333 C335 0.959 . S
H334 C335 0.961 . S
C335 C325 1.510 . S
C335 H333 0.959 . S
C335 H334 0.961 . S
C335 H336 0.960 . S
H336 C335 0.960 . S
H337 N317 0.862 . S
O338 Co306 1.920 . S
O338 C311 1.289 . S
C339 O331 1.258 . S
C339 O332 1.266 . S
Co340 O343 1.970 . S
Co340 N357 1.989 . S
Co340 O365 1.967 . S
Co340 O372 1.920 . S
Co341 O344 1.966 . S
Co341 N350 2.022 . S
Co341 N358 1.993 . S
Co341 O366 1.941 . S
C342 O343 1.258 . S
C342 O344 1.263 . S
O343 Co340 1.970 . S
O343 C342 1.258 . S
O344 Co341 1.966 . S
O344 C342 1.263 . S
C345 O346 1.235 . S
C345 O372 1.289 . S
O346 C345 1.235 . S
C347 C349 1.400 . S
C347 N350 1.351 . S
C347 C352 1.501 . S
C348 C349 1.387 . S
C348 N351 1.341 . S
C349 C347 1.400 . S
C349 C348 1.387 . S
N350 Co341 2.022 . S
N350 C347 1.351 . S
N350 N351 1.365 . S
N351 C348 1.341 . S
N351 N350 1.365 . S
N351 H371 0.862 . S
C352 C347 1.501 . S
C352 H353 0.961 . S
C352 H354 0.961 . S
C352 H355 0.960 . S
H353 C352 0.961 . S
H354 C352 0.961 . S
H355 C352 0.960 . S
C356 N357 1.342 . S
C356 C360 1.401 . S
C356 C361 1.499 . S
N357 Co340 1.989 . S
N357 C356 1.342 . S
N357 N358 1.388 . S
N358 Co341 1.993 . S
N358 N357 1.388 . S
N358 C359 1.346 . S
C359 N358 1.346 . S
C359 C360 1.396 . S
C359 C369 1.510 . S
C360 C356 1.401 . S
C360 C359 1.396 . S
C361 C356 1.499 . S
C361 H362 0.959 . S
C361 H363 0.960 . S
C361 H364 0.961 . S
H362 C361 0.959 . S
H363 C361 0.960 . S
H364 C361 0.961 . S
O365 Co340 1.967 . S
O365 C373 1.258 . S
O366 Co341 1.941 . S
O366 C373 1.266 . S
H367 C369 0.959 . S
H368 C369 0.961 . S
C369 C359 1.510 . S
C369 H367 0.959 . S
C369 H368 0.961 . S
C369 H370 0.960 . S
H370 C369 0.960 . S
H371 N351 0.862 . S
O372 Co340 1.920 . S
O372 C345 1.289 . S
C373 O365 1.258 . S
C373 O366 1.266 . S
Co374 O377 1.970 . S
Co374 N391 1.989 . S
Co374 O399 1.967 . S
Co374 O406 1.920 . S
Co375 O378 1.966 . S
Co375 N384 2.022 . S
Co375 N392 1.993 . S
Co375 O400 1.941 . S
C376 O377 1.258 . S
C376 O378 1.263 . S
O377 Co374 1.970 . S
O377 C376 1.258 . S
O378 Co375 1.966 . S
O378 C376 1.263 . S
C379 O380 1.235 . S
C379 O406 1.289 . S
O380 C379 1.235 . S
C381 C383 1.400 . S
C381 N384 1.351 . S
C381 C386 1.501 . S
C382 C383 1.387 . S
C382 N385 1.341 . S
C383 C381 1.400 . S
C383 C382 1.387 . S
N384 Co375 2.022 . S
N384 C381 1.351 . S
N384 N385 1.365 . S
N385 C382 1.341 . S
N385 N384 1.365 . S
N385 H405 0.862 . S
C386 C381 1.501 . S
C386 H387 0.961 . S
C386 H388 0.961 . S
C386 H389 0.960 . S
H387 C386 0.961 . S
H388 C386 0.961 . S
H389 C386 0.960 . S
C390 N391 1.342 . S
C390 C394 1.401 . S
C390 C395 1.499 . S
N391 Co374 1.989 . S
N391 C390 1.342 . S
N391 N392 1.388 . S
N392 Co375 1.993 . S
N392 N391 1.388 . S
N392 C393 1.346 . S
C393 N392 1.346 . S
C393 C394 1.396 . S
C393 C403 1.510 . S
C394 C390 1.401 . S
C394 C393 1.396 . S
C395 C390 1.499 . S
C395 H396 0.959 . S
C395 H397 0.960 . S
C395 H398 0.961 . S
H396 C395 0.959 . S
H397 C395 0.960 . S
H398 C395 0.961 . S
O399 Co374 1.967 . S
O399 C407 1.258 . S
O400 Co375 1.941 . S
O400 C407 1.266 . S
H401 C403 0.959 . S
H402 C403 0.961 . S
C403 C393 1.510 . S
C403 H401 0.959 . S
C403 H402 0.961 . S
C403 H404 0.960 . S
H404 C403 0.960 . S
H405 N385 0.862 . S
O406 Co374 1.920 . S
O406 C379 1.289 . S
C407 O399 1.258 . S
C407 O400 1.266 . S
Co408 O411 1.970 . S
Co408 N425 1.989 . S
Co408 O433 1.967 . S
Co408 O440 1.920 . S
Co409 O412 1.966 . S
Co409 N418 2.022 . S
Co409 N426 1.993 . S
Co409 O434 1.941 . S
C410 O411 1.258 . S
C410 O412 1.263 . S
O411 Co408 1.970 . S
O411 C410 1.258 . S
O412 Co409 1.966 . S
O412 C410 1.263 . S
C413 O414 1.235 . S
C413 O440 1.289 . S
O414 C413 1.235 . S
C415 C417 1.400 . S
C415 N418 1.351 . S
C415 C420 1.501 . S
C416 C417 1.387 . S
C416 N419 1.341 . S
C417 C415 1.400 . S
C417 C416 1.387 . S
N418 Co409 2.022 . S
N418 C415 1.351 . S
N418 N419 1.365 . S
N419 C416 1.341 . S
N419 N418 1.365 . S
N419 H439 0.862 . S
C420 C415 1.501 . S
C420 H421 0.961 . S
C420 H422 0.961 . S
C420 H423 0.960 . S
H421 C420 0.961 . S
H422 C420 0.961 . S
H423 C420 0.960 . S
C424 N425 1.342 . S
C424 C428 1.401 . S
C424 C429 1.499 . S
N425 Co408 1.989 . S
N425 C424 1.342 . S
N425 N426 1.388 . S
N426 Co409 1.993 . S
N426 N425 1.388 . S
N426 C427 1.346 . S
C427 N426 1.346 . S
C427 C428 1.396 . S
C427 C437 1.510 . S
C428 C424 1.401 . S
C428 C427 1.396 . S
C429 C424 1.499 . S
C429 H430 0.959 . S
C429 H431 0.960 . S
C429 H432 0.961 . S
H430 C429 0.959 . S
H431 C429 0.960 . S
H432 C429 0.961 . S
O433 Co408 1.967 . S
O433 C441 1.258 . S
O434 Co409 1.941 . S
O434 C441 1.266 . S
H435 C437 0.959 . S
H436 C437 0.961 . S
C437 C427 1.510 . S
C437 H435 0.959 . S
C437 H436 0.961 . S
C437 H438 0.960 . S
H438 C437 0.960 . S
H439 N419 0.862 . S
O440 Co408 1.920 . S
O440 C413 1.289 . S
C441 O433 1.258 . S
C441 O434 1.266 . S
Co442 O445 1.970 . S
Co442 N459 1.989 . S
Co442 O467 1.967 . S
Co442 O474 1.920 . S
Co443 O446 1.966 . S
Co443 N452 2.022 . S
Co443 N460 1.993 . S
Co443 O468 1.941 . S
C444 O445 1.258 . S
C444 O446 1.263 . S
O445 Co442 1.970 . S
O445 C444 1.258 . S
O446 Co443 1.966 . S
O446 C444 1.263 . S
C447 O448 1.235 . S
C447 O474 1.289 . S
O448 C447 1.235 . S
C449 C451 1.400 . S
C449 N452 1.351 . S
C449 C454 1.501 . S
C450 C451 1.387 . S
C450 N453 1.341 . S
C451 C449 1.400 . S
C451 C450 1.387 . S
N452 Co443 2.022 . S
N452 C449 1.351 . S
N452 N453 1.365 . S
N453 C450 1.341 . S
N453 N452 1.365 . S
N453 H473 0.862 . S
C454 C449 1.501 . S
C454 H455 0.961 . S
C454 H456 0.961 . S
C454 H457 0.960 . S
H455 C454 0.961 . S
H456 C454 0.961 . S
H457 C454 0.960 . S
C458 N459 1.342 . S
C458 C462 1.401 . S
C458 C463 1.499 . S
N459 Co442 1.989 . S
N459 C458 1.342 . S
N459 N460 1.388 . S
N460 Co443 1.993 . S
N460 N459 1.388 . S
N460 C461 1.346 . S
C461 N460 1.346 . S
C461 C462 1.396 . S
C461 C471 1.510 . S
C462 C458 1.401 . S
C462 C461 1.396 . S
C463 C458 1.499 . S
C463 H464 0.959 . S
C463 H465 0.960 . S
C463 H466 0.961 . S
H464 C463 0.959 . S
H465 C463 0.960 . S
H466 C463 0.961 . S
O467 Co442 1.967 . S
O467 C475 1.258 . S
O468 Co443 1.941 . S
O468 C475 1.266 . S
H469 C471 0.959 . S
H470 C471 0.961 . S
C471 C461 1.510 . S
C471 H469 0.959 . S
C471 H470 0.961 . S
C471 H472 0.960 . S
H472 C471 0.960 . S
H473 N453 0.862 . S
O474 Co442 1.920 . S
O474 C447 1.289 . S
C475 O467 1.258 . S
C475 O468 1.266 . S
Co476 O479 1.970 . S
Co476 N493 1.989 . S
Co476 O501 1.967 . S
Co476 O508 1.920 . S
Co477 O480 1.966 . S
Co477 N486 2.022 . S
Co477 N494 1.993 . S
Co477 O502 1.941 . S
C478 O479 1.258 . S
C478 O480 1.263 . S
O479 Co476 1.970 . S
O479 C478 1.258 . S
O480 Co477 1.966 . S
O480 C478 1.263 . S
C481 O482 1.235 . S
C481 O508 1.289 . S
O482 C481 1.235 . S
C483 C485 1.400 . S
C483 N486 1.351 . S
C483 C488 1.501 . S
C484 C485 1.387 . S
C484 N487 1.341 . S
C485 C483 1.400 . S
C485 C484 1.387 . S
N486 Co477 2.022 . S
N486 C483 1.351 . S
N486 N487 1.365 . S
N487 C484 1.341 . S
N487 N486 1.365 . S
N487 H507 0.862 . S
C488 C483 1.501 . S
C488 H489 0.961 . S
C488 H490 0.961 . S
C488 H491 0.960 . S
H489 C488 0.961 . S
H490 C488 0.961 . S
H491 C488 0.960 . S
C492 N493 1.342 . S
C492 C496 1.401 . S
C492 C497 1.499 . S
N493 Co476 1.989 . S
N493 C492 1.342 . S
N493 N494 1.388 . S
N494 Co477 1.993 . S
N494 N493 1.388 . S
N494 C495 1.346 . S
C495 N494 1.346 . S
C495 C496 1.396 . S
C495 C505 1.510 . S
C496 C492 1.401 . S
C496 C495 1.396 . S
C497 C492 1.499 . S
C497 H498 0.959 . S
C497 H499 0.960 . S
C497 H500 0.961 . S
H498 C497 0.959 . S
H499 C497 0.960 . S
H500 C497 0.961 . S
O501 Co476 1.967 . S
O501 C509 1.258 . S
O502 Co477 1.941 . S
O502 C509 1.266 . S
H503 C505 0.959 . S
H504 C505 0.961 . S
C505 C495 1.510 . S
C505 H503 0.959 . S
C505 H504 0.961 . S
C505 H506 0.960 . S
H506 C505 0.960 . S
H507 N487 0.862 . S
O508 Co476 1.920 . S
O508 C481 1.289 . S
C509 O501 1.258 . S
C509 O502 1.266 . S
Co510 O513 1.970 . S
Co510 N527 1.989 . S
Co510 O535 1.967 . S
Co510 O542 1.920 . S
Co511 O514 1.966 . S
Co511 N520 2.022 . S
Co511 N528 1.993 . S
Co511 O536 1.941 . S
C512 O513 1.258 . S
C512 O514 1.263 . S
O513 Co510 1.970 . S
O513 C512 1.258 . S
O514 Co511 1.966 . S
O514 C512 1.263 . S
C515 O516 1.235 . S
C515 O542 1.289 . S
O516 C515 1.235 . S
C517 C519 1.400 . S
C517 N520 1.351 . S
C517 C522 1.501 . S
C518 C519 1.387 . S
C518 N521 1.341 . S
C519 C517 1.400 . S
C519 C518 1.387 . S
N520 Co511 2.022 . S
N520 C517 1.351 . S
N520 N521 1.365 . S
N521 C518 1.341 . S
N521 N520 1.365 . S
N521 H541 0.862 . S
C522 C517 1.501 . S
C522 H523 0.961 . S
C522 H524 0.961 . S
C522 H525 0.960 . S
H523 C522 0.961 . S
H524 C522 0.961 . S
H525 C522 0.960 . S
C526 N527 1.342 . S
C526 C530 1.401 . S
C526 C531 1.499 . S
N527 Co510 1.989 . S
N527 C526 1.342 . S
N527 N528 1.388 . S
N528 Co511 1.993 . S
N528 N527 1.388 . S
N528 C529 1.346 . S
C529 N528 1.346 . S
C529 C530 1.396 . S
C529 C539 1.510 . S
C530 C526 1.401 . S
C530 C529 1.396 . S
C531 C526 1.499 . S
C531 H532 0.959 . S
C531 H533 0.960 . S
C531 H534 0.961 . S
H532 C531 0.959 . S
H533 C531 0.960 . S
H534 C531 0.961 . S
O535 Co510 1.967 . S
O535 C543 1.258 . S
O536 Co511 1.941 . S
O536 C543 1.266 . S
H537 C539 0.959 . S
H538 C539 0.961 . S
C539 C529 1.510 . S
C539 H537 0.959 . S
C539 H538 0.961 . S
C539 H540 0.960 . S
H540 C539 0.960 . S
H541 N521 0.862 . S
O542 Co510 1.920 . S
O542 C515 1.289 . S
C543 O535 1.258 . S
C543 O536 1.266 . S
C544 C545 1.387 . S
C544 H548 0.950 . S
C544 C553 1.390 . S
C545 C544 1.387 . S
C545 C547 1.387 . S
H546 C553 0.950 . S
C547 C545 1.387 . S
C547 C549 1.390 . S
C547 H551 0.950 . S
H548 C544 0.950 . S
C549 C547 1.390 . S
C549 C550 1.387 . S
C549 H552 0.950 . S
C550 C549 1.387 . S
C550 C553 1.387 . S
H551 C547 0.950 . S
H552 C549 0.950 . S
C553 C544 1.390 . S
C553 H546 0.950 . S
C553 C550 1.387 . S
C554 C555 1.387 . S
C554 H558 0.950 . S
C554 C563 1.390 . S
C555 C554 1.387 . S
C555 C557 1.387 . S
H556 C563 0.950 . S
C557 C555 1.387 . S
C557 C559 1.390 . S
C557 H561 0.950 . S
H558 C554 0.950 . S
C559 C557 1.390 . S
C559 C560 1.387 . S
C559 H562 0.950 . S
C560 C559 1.387 . S
C560 C563 1.387 . S
H561 C557 0.950 . S
H562 C559 0.950 . S
C563 C554 1.390 . S
C563 H556 0.950 . S
C563 C560 1.387 . S
C564 C565 1.387 . S
C564 H568 0.950 . S
C564 C573 1.390 . S
C565 C564 1.387 . S
C565 C567 1.387 . S
H566 C573 0.950 . S
C567 C565 1.387 . S
C567 C569 1.390 . S
C567 H571 0.950 . S
H568 C564 0.950 . S
C569 C567 1.390 . S
C569 C570 1.387 . S
C569 H572 0.950 . S
C570 C569 1.387 . S
C570 C573 1.387 . S
H571 C567 0.950 . S
H572 C569 0.950 . S
C573 C564 1.390 . S
C573 H566 0.950 . S
C573 C570 1.387 . S
C574 C575 1.387 . S
C574 H578 0.950 . S
C574 C583 1.390 . S
C575 C574 1.387 . S
C575 C577 1.387 . S
H576 C583 0.950 . S
C577 C575 1.387 . S
C577 C579 1.390 . S
C577 H581 0.950 . S
H578 C574 0.950 . S
C579 C577 1.390 . S
C579 C580 1.387 . S
C579 H582 0.950 . S
C580 C579 1.387 . S
C580 C583 1.387 . S
H581 C577 0.950 . S
H582 C579 0.950 . S
C583 C574 1.390 . S
C583 H576 0.950 . S
C583 C580 1.387 . S
C584 C585 1.387 . S
C584 H588 0.950 . S
C584 C593 1.390 1_556 S
C585 C584 1.387 . S
C585 C587 1.387 . S
H586 C593 0.950 . S
C587 C585 1.387 . S
C587 C589 1.390 1_556 S
C587 H591 0.950 . S
H588 C584 0.950 . S
C589 C587 1.390 1_554 S
C589 C590 1.387 . S
C589 H592 0.950 . S
C590 C589 1.387 . S
C590 C593 1.387 . S
H591 C587 0.950 . S
H592 C589 0.950 . S
C593 C584 1.390 1_554 S
C593 H586 0.950 . S
C593 C590 1.387 . S
C594 C595 1.387 . S
C594 H598 0.950 . S
C594 C603 1.390 1_556 S
C595 C594 1.387 . S
C595 C597 1.387 . S
H596 C603 0.950 . S
C597 C595 1.387 . S
C597 C599 1.390 1_556 S
C597 H601 0.950 . S
H598 C594 0.950 . S
C599 C597 1.390 1_554 S
C599 C600 1.387 . S
C599 H602 0.950 . S
C600 C599 1.387 . S
C600 C603 1.387 . S
H601 C597 0.950 . S
H602 C599 0.950 . S
C603 C594 1.390 1_554 S
C603 H596 0.950 . S
C603 C600 1.387 . S
C604 C605 1.387 . S
C604 H608 0.950 . S
C604 C613 1.390 1_556 S
C605 C604 1.387 . S
C605 C607 1.387 . S
H606 C613 0.950 . S
C607 C605 1.387 . S
C607 C609 1.390 1_556 S
C607 H611 0.950 . S
H608 C604 0.950 . S
C609 C607 1.390 1_554 S
C609 C610 1.387 . S
C609 H612 0.950 . S
C610 C609 1.387 . S
C610 C613 1.387 . S
H611 C607 0.950 . S
H612 C609 0.950 . S
C613 C604 1.390 1_554 S
C613 H606 0.950 . S
C613 C610 1.387 . S
C614 C615 1.387 . S
C614 H618 0.950 . S
C614 C623 1.390 1_554 S
C615 C614 1.387 . S
C615 C617 1.387 . S
H616 C623 0.950 . S
C617 C615 1.387 . S
C617 C619 1.390 1_554 S
C617 H621 0.950 . S
H618 C614 0.950 . S
C619 C617 1.390 1_556 S
C619 C620 1.387 . S
C619 H622 0.950 . S
C620 C619 1.387 . S
C620 C623 1.387 . S
H621 C617 0.950 . S
H622 C619 0.950 . S
C623 C614 1.390 1_556 S
C623 H616 0.950 . S
C623 C620 1.387 . S
C624 C625 1.387 . S
C624 H628 0.950 . S
C624 C633 1.390 . S
C625 C624 1.387 . S
C625 C627 1.387 . S
H626 C633 0.950 . S
C627 C625 1.387 . S
C627 C629 1.390 . S
C627 H631 0.950 . S
H628 C624 0.950 . S
C629 C627 1.390 . S
C629 C630 1.387 . S
C629 H632 0.950 . S
C630 C629 1.387 . S
C630 C633 1.387 . S
H631 C627 0.950 . S
H632 C629 0.950 . S
C633 C624 1.390 . S
C633 H626 0.950 . S
C633 C630 1.387 . S
C634 C635 1.387 . S
C634 H638 0.950 . S
C634 C643 1.390 1_655 S
C635 C634 1.387 . S
C635 C637 1.387 1_655 S
H636 C643 0.951 . S
C637 C635 1.387 1_455 S
C637 C639 1.390 . S
C637 H641 0.950 . S
H638 C634 0.950 . S
C639 C637 1.390 . S
C639 C640 1.387 . S
C639 H642 0.950 . S
C640 C639 1.387 . S
C640 C643 1.387 . S
H641 C637 0.950 . S
H642 C639 0.950 . S
C643 C634 1.390 1_455 S
C643 H636 0.951 . S
C643 C640 1.387 . S
C644 C645 1.387 . S
C644 H648 0.950 . S
C644 C653 1.390 1_545 S
C645 C644 1.387 . S
C645 C647 1.387 . S
H646 C653 0.950 . S
C647 C645 1.387 . S
C647 C649 1.390 1_545 S
C647 H651 0.950 . S
H648 C644 0.950 . S
C649 C647 1.390 1_565 S
C649 C650 1.387 . S
C649 H652 0.950 . S
C650 C649 1.387 . S
C650 C653 1.387 . S
H651 C647 0.950 . S
H652 C649 0.950 . S
C653 C644 1.390 1_565 S
C653 H646 0.950 . S
C653 C650 1.387 . S
C654 C655 1.387 . S
C654 H658 0.950 . S
C654 C663 1.390 . S
C655 C654 1.387 . S
C655 C657 1.387 . S
H656 C663 0.950 . S
C657 C655 1.387 . S
C657 C659 1.390 . S
C657 H661 0.950 . S
H658 C654 0.950 . S
C659 C657 1.390 . S
C659 C660 1.387 . S
C659 H662 0.950 . S
C660 C659 1.387 . S
C660 C663 1.387 . S
H661 C657 0.950 . S
H662 C659 0.950 . S
C663 C654 1.390 . S
C663 H656 0.950 . S
C663 C660 1.387 . S
C664 C665 1.387 . S
C664 H668 0.950 . S
C664 C673 1.390 1_545 S
C665 C664 1.387 . S
C665 C667 1.387 . S
H666 C673 0.950 . S
C667 C665 1.387 . S
C667 C669 1.390 1_545 S
C667 H671 0.950 . S
H668 C664 0.950 . S
C669 C667 1.390 1_565 S
C669 C670 1.387 . S
C669 H672 0.950 . S
C670 C669 1.387 . S
C670 C673 1.387 . S
H671 C667 0.950 . S
H672 C669 0.950 . S
C673 C664 1.390 1_565 S
C673 H666 0.950 . S
C673 C670 1.387 . S
C674 C675 1.387 . S
C674 H678 0.950 . S
C674 C683 1.390 . S
C675 C674 1.387 . S
C675 C677 1.387 . S
H676 C683 0.950 . S
C677 C675 1.387 . S
C677 C679 1.390 . S
C677 H681 0.950 . S
H678 C674 0.950 . S
C679 C677 1.390 . S
C679 C680 1.387 . S
C679 H682 0.950 . S
C680 C679 1.387 . S
C680 C683 1.387 . S
H681 C677 0.950 . S
H682 C679 0.950 . S
C683 C674 1.390 . S
C683 H676 0.950 . S
C683 C680 1.387 . S
C684 C685 1.387 . S
C684 H688 0.950 . S
C684 C693 1.390 . S
C685 C684 1.387 . S
C685 C687 1.387 . S
H686 C693 0.950 . S
C687 C685 1.387 . S
C687 C689 1.390 . S
C687 H691 0.950 . S
H688 C684 0.950 . S
C689 C687 1.390 . S
C689 C690 1.387 . S
C689 H692 0.950 . S
C690 C689 1.387 . S
C690 C693 1.387 . S
H691 C687 0.950 . S
H692 C689 0.950 . S
C693 C684 1.390 . S
C693 H686 0.950 . S
C693 C690 1.387 . S
C694 C695 1.387 . S
C694 H698 0.950 . S
C694 C703 1.390 1_455 S
C695 C694 1.387 . S
C695 C697 1.387 . S
H696 C703 0.950 . S
C697 C695 1.387 . S
C697 C699 1.390 1_455 S
C697 H701 0.950 . S
H698 C694 0.950 . S
C699 C697 1.390 1_655 S
C699 C700 1.387 . S
C699 H702 0.950 . S
C700 C699 1.387 . S
C700 C703 1.387 . S
H701 C697 0.950 . S
H702 C699 0.950 . S
C703 C694 1.390 1_655 S
C703 H696 0.950 . S
C703 C700 1.387 . S
C704 C705 1.387 . S
C704 H708 0.950 . S
C704 C713 1.390 . S
C705 C704 1.387 . S
C705 C707 1.387 . S
H706 C713 0.950 . S
C707 C705 1.387 . S
C707 C709 1.390 . S
C707 H711 0.950 . S
H708 C704 0.950 . S
C709 C707 1.390 . S
C709 C710 1.387 . S
C709 H712 0.950 . S
C710 C709 1.387 . S
C710 C713 1.387 . S
H711 C707 0.950 . S
H712 C709 0.950 . S
C713 C704 1.390 . S
C713 H706 0.950 . S
C713 C710 1.387 . S
C714 C715 1.387 . S
C714 H718 0.950 . S
C714 C723 1.390 . S
C715 C714 1.387 . S
C715 C717 1.387 . S
H716 C723 0.950 . S
C717 C715 1.387 . S
C717 C719 1.390 . S
C717 H721 0.950 . S
H718 C714 0.950 . S
C719 C717 1.390 . S
C719 C720 1.387 . S
C719 H722 0.950 . S
C720 C719 1.387 . S
C720 C723 1.387 . S
H721 C717 0.950 . S
H722 C719 0.950 . S
C723 C714 1.390 . S
C723 H716 0.950 . S
C723 C720 1.387 . S
C724 C725 1.387 . S
C724 H728 0.950 . S
C724 C733 1.390 . S
C725 C724 1.387 . S
C725 C727 1.387 . S
H726 C733 0.950 . S
C727 C725 1.387 . S
C727 C729 1.390 . S
C727 H731 0.950 . S
H728 C724 0.950 . S
C729 C727 1.390 . S
C729 C730 1.387 . S
C729 H732 0.950 . S
C730 C729 1.387 . S
C730 C733 1.387 . S
H731 C727 0.950 . S
H732 C729 0.950 . S
C733 C724 1.390 . S
C733 H726 0.950 . S
C733 C730 1.387 . S
C734 C735 1.387 . S
C734 H738 0.950 . S
C734 C743 1.390 . S
C735 C734 1.387 . S
C735 C737 1.387 . S
H736 C743 0.950 . S
C737 C735 1.387 . S
C737 C739 1.390 . S
C737 H741 0.950 . S
H738 C734 0.950 . S
C739 C737 1.390 . S
C739 C740 1.387 . S
C739 H742 0.950 . S
C740 C739 1.387 . S
C740 C743 1.387 . S
H741 C737 0.950 . S
H742 C739 0.950 . S
C743 C734 1.390 . S
C743 H736 0.950 . S
C743 C740 1.387 . S
C744 C745 1.387 . S
C744 H748 0.950 . S
C744 C753 1.390 . S
C745 C744 1.387 . S
C745 C747 1.387 . S
H746 C753 0.950 . S
C747 C745 1.387 . S
C747 C749 1.390 . S
C747 H751 0.950 . S
H748 C744 0.950 . S
C749 C747 1.390 . S
C749 C750 1.387 . S
C749 H752 0.950 . S
C750 C749 1.387 . S
C750 C753 1.387 . S
H751 C747 0.950 . S
H752 C749 0.950 . S
C753 C744 1.390 . S
C753 H746 0.950 . S
C753 C750 1.387 . S
C754 C755 1.387 . S
C754 H758 0.950 . S
C754 C763 1.390 . S
C755 C754 1.387 . S
C755 C757 1.387 . S
H756 C763 0.950 . S
C757 C755 1.387 . S
C757 C759 1.390 . S
C757 H761 0.950 . S
H758 C754 0.950 . S
C759 C757 1.390 . S
C759 C760 1.387 . S
C759 H762 0.950 . S
C760 C759 1.387 . S
C760 C763 1.387 . S
H761 C757 0.950 . S
H762 C759 0.950 . S
C763 C754 1.390 . S
C763 H756 0.950 . S
C763 C760 1.387 . S
C764 C765 1.387 . S
C764 H768 0.950 . S
C764 C773 1.390 . S
C765 C764 1.387 . S
C765 C767 1.387 . S
H766 C773 0.950 . S
C767 C765 1.387 . S
C767 C769 1.390 . S
C767 H771 0.950 . S
H768 C764 0.950 . S
C769 C767 1.390 . S
C769 C770 1.387 . S
C769 H772 0.950 . S
C770 C769 1.387 . S
C770 C773 1.387 . S
H771 C767 0.950 . S
H772 C769 0.950 . S
C773 C764 1.390 . S
C773 H766 0.950 . S
C773 C770 1.387 . S
C774 C775 1.387 . S
C774 H778 0.950 . S
C774 C783 1.390 . S
C775 C774 1.387 . S
C775 C777 1.387 . S
H776 C783 0.950 . S
C777 C775 1.387 . S
C777 C779 1.390 . S
C777 H781 0.950 . S
H778 C774 0.950 . S
C779 C777 1.390 . S
C779 C780 1.387 . S
C779 H782 0.950 . S
C780 C779 1.387 . S
C780 C783 1.387 . S
H781 C777 0.950 . S
H782 C779 0.950 . S
C783 C774 1.390 . S
C783 H776 0.950 . S
C783 C780 1.387 . S
C784 C785 1.387 . S
C784 H788 0.950 . S
C784 C793 1.390 . S
C785 C784 1.387 . S
C785 C787 1.387 . S
H786 C793 0.950 . S
C787 C785 1.387 . S
C787 C789 1.390 . S
C787 H791 0.950 . S
H788 C784 0.950 . S
C789 C787 1.390 . S
C789 C790 1.387 . S
C789 H792 0.950 . S
C790 C789 1.387 . S
C790 C793 1.387 . S
H791 C787 0.950 . S
H792 C789 0.950 . S
C793 C784 1.390 . S
C793 H786 0.950 . S
C793 C790 1.387 . S
C794 C795 1.387 . S
C794 H798 0.950 . S
C794 C803 1.390 . S
C795 C794 1.387 . S
C795 C797 1.387 . S
H796 C803 0.950 . S
C797 C795 1.387 . S
C797 C799 1.390 . S
C797 H801 0.950 . S
H798 C794 0.950 . S
C799 C797 1.390 . S
C799 C800 1.387 . S
C799 H802 0.950 . S
C800 C799 1.387 . S
C800 C803 1.387 . S
H801 C797 0.950 . S
H802 C799 0.950 . S
C803 C794 1.390 . S
C803 H796 0.950 . S
C803 C800 1.387 . S
C804 C805 1.387 . S
C804 H808 0.950 . S
C804 C813 1.390 . S
C805 C804 1.387 . S
C805 C807 1.387 . S
H806 C813 0.950 . S
C807 C805 1.387 . S
C807 C809 1.390 . S
C807 H811 0.950 . S
H808 C804 0.950 . S
C809 C807 1.390 . S
C809 C810 1.387 . S
C809 H812 0.950 . S
C810 C809 1.387 . S
C810 C813 1.387 . S
H811 C807 0.950 . S
H812 C809 0.950 . S
C813 C804 1.390 . S
C813 H806 0.950 . S
C813 C810 1.387 . S
C814 C815 1.387 . S
C814 H818 0.950 . S
C814 C823 1.390 . S
C815 C814 1.387 . S
C815 C817 1.387 . S
H816 C823 0.950 . S
C817 C815 1.387 . S
C817 C819 1.390 . S
C817 H821 0.950 . S
H818 C814 0.950 . S
C819 C817 1.390 . S
C819 C820 1.387 . S
C819 H822 0.950 . S
C820 C819 1.387 . S
C820 C823 1.387 . S
H821 C817 0.950 . S
H822 C819 0.950 . S
C823 C814 1.390 . S
C823 H816 0.950 . S
C823 C820 1.387 . S
C824 C825 1.387 . S
C824 H828 0.950 . S
C824 C833 1.390 . S
C825 C824 1.387 . S
C825 C827 1.387 . S
H826 C833 0.950 . S
C827 C825 1.387 . S
C827 C829 1.390 . S
C827 H831 0.950 . S
H828 C824 0.950 . S
C829 C827 1.390 . S
C829 C830 1.387 . S
C829 H832 0.950 . S
C830 C829 1.387 . S
C830 C833 1.387 . S
H831 C827 0.950 . S
H832 C829 0.950 . S
C833 C824 1.390 . S
C833 H826 0.950 . S
C833 C830 1.387 . S
C834 C835 1.387 . S
C834 H838 0.950 . S
C834 C843 1.390 . S
C835 C834 1.387 . S
C835 C837 1.387 . S
H836 C843 0.950 . S
C837 C835 1.387 . S
C837 C839 1.390 . S
C837 H841 0.950 . S
H838 C834 0.950 . S
C839 C837 1.390 . S
C839 C840 1.387 . S
C839 H842 0.950 . S
C840 C839 1.387 . S
C840 C843 1.387 . S
H841 C837 0.950 . S
H842 C839 0.950 . S
C843 C834 1.390 . S
C843 H836 0.950 . S
C843 C840 1.387 . S
C844 C845 1.387 . S
C844 H848 0.950 . S
C844 C853 1.390 . S
C845 C844 1.387 . S
C845 C847 1.387 . S
H846 C853 0.950 . S
C847 C845 1.387 . S
C847 C849 1.390 . S
C847 H851 0.950 . S
H848 C844 0.950 . S
C849 C847 1.390 . S
C849 C850 1.387 . S
C849 H852 0.950 . S
C850 C849 1.387 . S
C850 C853 1.387 . S
H851 C847 0.950 . S
H852 C849 0.950 . S
C853 C844 1.390 . S
C853 H846 0.950 . S
C853 C850 1.387 . S
C854 C855 1.387 . S
C854 H858 0.950 . S
C854 C863 1.390 . S
C855 C854 1.387 . S
C855 C857 1.387 . S
H856 C863 0.950 . S
C857 C855 1.387 . S
C857 C859 1.390 . S
C857 H861 0.950 . S
H858 C854 0.950 . S
C859 C857 1.390 . S
C859 C860 1.387 . S
C859 H862 0.950 . S
C860 C859 1.387 . S
C860 C863 1.387 . S
H861 C857 0.950 . S
H862 C859 0.950 . S
C863 C854 1.390 . S
C863 H856 0.950 . S
C863 C860 1.387 . S
C864 C865 1.387 . S
C864 H868 0.950 . S
C864 C873 1.390 . S
C865 C864 1.387 . S
C865 C867 1.387 . S
H866 C873 0.950 . S
C867 C865 1.387 . S
C867 C869 1.390 . S
C867 H871 0.950 . S
H868 C864 0.950 . S
C869 C867 1.390 . S
C869 C870 1.387 . S
C869 H872 0.950 . S
C870 C869 1.387 . S
C870 C873 1.387 . S
H871 C867 0.950 . S
H872 C869 0.950 . S
C873 C864 1.390 . S
C873 H866 0.950 . S
C873 C870 1.387 . S
C874 C875 1.387 . S
C874 H878 0.950 . S
C874 C883 1.390 . S
C875 C874 1.387 . S
C875 C877 1.387 1_565 S
H876 C883 0.950 . S
C877 C875 1.387 1_545 S
C877 C879 1.390 1_545 S
C877 H881 0.950 . S
H878 C874 0.950 . S
C879 C877 1.390 1_565 S
C879 C880 1.387 . S
C879 H882 0.950 . S
C880 C879 1.387 . S
C880 C883 1.387 . S
H881 C877 0.950 . S
H882 C879 0.950 . S
C883 C874 1.390 . S
C883 H876 0.950 . S
C883 C880 1.387 . S
C884 C885 1.387 . S
C884 H888 0.950 . S
C884 C893 1.390 . S
C885 C884 1.387 . S
C885 C887 1.387 . S
H886 C893 0.950 . S
C887 C885 1.387 . S
C887 C889 1.390 . S
C887 H891 0.950 . S
H888 C884 0.950 . S
C889 C887 1.390 . S
C889 C890 1.387 . S
C889 H892 0.950 . S
C890 C889 1.387 . S
C890 C893 1.387 . S
H891 C887 0.950 . S
H892 C889 0.950 . S
C893 C884 1.390 . S
C893 H886 0.950 . S
C893 C890 1.387 . S
C894 C895 1.387 . S
C894 H898 0.950 . S
C894 C903 1.390 . S
C895 C894 1.387 . S
C895 C897 1.387 . S
H896 C903 0.950 . S
C897 C895 1.387 . S
C897 C899 1.390 . S
C897 H901 0.950 . S
H898 C894 0.950 . S
C899 C897 1.390 . S
C899 C900 1.387 . S
C899 H902 0.950 . S
C900 C899 1.387 . S
C900 C903 1.387 . S
H901 C897 0.950 . S
H902 C899 0.950 . S
C903 C894 1.390 . S
C903 H896 0.950 . S
C903 C900 1.387 . S
C904 C905 1.387 . S
C904 H908 0.950 . S
C904 C913 1.390 . S
C905 C904 1.387 . S
C905 C907 1.387 . S
H906 C913 0.950 . S
C907 C905 1.387 . S
C907 C909 1.390 . S
C907 H911 0.964 . S
H908 C904 0.950 . S
C909 C907 1.390 . S
C909 C910 1.387 . S
C909 H912 0.950 . S
C910 C909 1.387 . S
C910 C913 1.387 . S
H911 C907 0.964 . S
H912 C909 0.950 . S
C913 C904 1.390 . S
C913 H906 0.950 . S
C913 C910 1.387 . S
C914 C915 1.387 . S
C914 H918 0.950 . S
C914 C923 1.390 1_565 S
C915 C914 1.387 . S
C915 C917 1.387 . S
H916 C923 0.950 . S
C917 C915 1.387 . S
C917 C919 1.390 . S
C917 H921 0.950 . S
H918 C914 0.950 . S
C919 C917 1.390 . S
C919 C920 1.387 . S
C919 H922 0.950 . S
C920 C919 1.387 . S
C920 C923 1.387 1_565 S
H921 C917 0.950 . S
H922 C919 0.950 . S
C923 C914 1.390 1_545 S
C923 H916 0.950 . S
C923 C920 1.387 1_545 S
C924 C925 1.387 . S
C924 H928 0.950 . S
C924 C933 1.390 . S
C925 C924 1.387 . S
C925 C927 1.387 . S
H926 C933 0.950 . S
C927 C925 1.387 . S
C927 C929 1.390 . S
C927 H931 0.950 . S
H928 C924 0.950 . S
C929 C927 1.390 . S
C929 C930 1.387 . S
C929 H932 0.950 . S
C930 C929 1.387 . S
C930 C933 1.387 . S
H931 C927 0.950 . S
H932 C929 0.950 . S
C933 C924 1.390 . S
C933 H926 0.950 . S
C933 C930 1.387 . S
C934 C935 1.387 . S
C934 H938 0.950 . S
C934 C943 1.390 . S
C935 C934 1.387 . S
C935 C937 1.387 . S
H936 C943 0.950 . S
C937 C935 1.387 . S
C937 C939 1.390 . S
C937 H941 0.950 . S
H938 C934 0.950 . S
C939 C937 1.390 . S
C939 C940 1.387 . S
C939 H942 0.950 . S
C940 C939 1.387 . S
C940 C943 1.387 . S
H941 C937 0.950 . S
H942 C939 0.950 . S
C943 C934 1.390 . S
C943 H936 0.950 . S
C943 C940 1.387 . S
C545 C33 1.585 . S
C550 C237 1.585 . S
C555 C271 1.583 . S
C560 C67 1.583 . S
C565 C169 1.583 . S
C570 C101 1.583 . S
C575 C203 1.585 . S
C580 C135 1.585 . S
C585 C305 1.585 . S
C590 C509 1.585 . S
C595 C339 1.583 . S
C600 C543 1.583 . S
C605 C373 1.583 . S
C610 C441 1.583 . S
C615 C475 1.583 . S
C620 C407 1.583 . S
C625 C5 1.473 . S
C630 C104 1.496 . S
C635 C39 1.471 . S
C640 C2 1.495 . S
C645 C36 1.495 . S
C650 C73 1.472 . S
C655 C107 1.472 . S
C660 C70 1.495 . S
C665 C172 1.496 . S
C670 C141 1.474 . S
C675 C206 1.496 . S
C680 C175 1.473 . S
C685 C240 1.495 . S
C690 C209 1.472 . S
C695 C138 1.496 . S
C700 C243 1.473 . S
C705 C277 1.474 . S
C710 C376 1.496 . S
C715 C274 1.496 . S
C720 C311 1.473 . S
C725 C345 1.472 . S
C730 C308 1.496 . S
C735 C379 1.472 . S
C740 C342 1.495 . S
C745 C413 1.473 . S
C750 C444 1.496 . S
C755 C447 1.473 . S
C760 C478 1.496 . S
C765 C481 1.472 . S
C770 C512 1.495 . S
C775 C410 1.496 . S
C780 C515 1.473 . S
C785 C530 1.864 . S
C790 C20 1.865 . S
C795 C54 1.865 . S
C800 C428 1.865 . S
C805 C462 1.865 . S
C810 C88 1.865 . S
C815 C122 1.865 . S
C820 C496 1.865 . S
C825 C326 1.865 . S
C830 C156 1.865 . S
C835 C190 1.864 . S
C840 C360 1.865 . S
C845 C224 1.865 . S
C850 C394 1.865 . S
C855 C292 1.865 . S
C860 C258 1.865 . S
C865 C145 1.187 1_655 S
C870 C383 1.188 . S
C875 C179 1.188 1_565 S
C880 C281 1.187 . S
C885 C213 1.187 . S
C890 C315 1.188 . S
C895 C349 1.187 . S
C900 C247 1.185 . S
C905 C9 1.187 1_655 S
C910 C451 1.186 . S
C915 C485 1.187 . S
C920 C43 1.185 1_565 S
C925 C77 1.187 . S
C930 C519 1.185 . S
C935 C111 1.188 . S
C940 C417 1.187 . S
