# Generated by pormake.
# Topology umj, (4)-cn, num edge types: 1
# Building blocks:
#     Node 0, Type 0, BuildingBlock: QUQFOY_clean_sbu_1, # of connection points: 4
#     Node 1, Type 0, BuildingBlock: QUQFOY_clean_sbu_1, # of connection points: 4
#     Node 2, Type 0, BuildingBlock: QUQFOY_clean_sbu_1, # of connection points: 4
#     Node 3, Type 0, BuildingBlock: QUQFOY_clean_sbu_1, # of connection points: 4
#     Node 4, Type 0, BuildingBlock: QUQFOY_clean_sbu_1, # of connection points: 4
#     Node 5, Type 0, BuildingBlock: QUQFOY_clean_sbu_1, # of connection points: 4
#     Node 6, Type 0, BuildingBlock: QUQFOY_clean_sbu_1, # of connection points: 4
#     Node 7, Type 0, BuildingBlock: QUQFOY_clean_sbu_1, # of connection points: 4
#     Node 8, Type 0, BuildingBlock: QUQFOY_clean_sbu_1, # of connection points: 4
#     Node 9, Type 0, BuildingBlock: QUQFOY_clean_sbu_1, # of connection points: 4
#     Node 10, Type 0, BuildingBlock: QUQFOY_clean_sbu_1, # of connection points: 4
#     Node 11, Type 0, BuildingBlock: QUQFOY_clean_sbu_1, # of connection points: 4
#     Edge 12, Type (0, 0), BuildingBlock: MIFKUJ_clean_linker_0, # of connection points: 2
#     Edge 13, Type (0, 0), BuildingBlock: MIFKUJ_clean_linker_0, # of connection points: 2
#     Edge 14, Type (0, 0), BuildingBlock: MIFKUJ_clean_linker_0, # of connection points: 2
#     Edge 15, Type (0, 0), BuildingBlock: MIFKUJ_clean_linker_0, # of connection points: 2
#     Edge 16, Type (0, 0), BuildingBlock: MIFKUJ_clean_linker_0, # of connection points: 2
#     Edge 17, Type (0, 0), BuildingBlock: MIFKUJ_clean_linker_0, # of connection points: 2
#     Edge 18, Type (0, 0), BuildingBlock: MIFKUJ_clean_linker_0, # of connection points: 2
#     Edge 19, Type (0, 0), BuildingBlock: MIFKUJ_clean_linker_0, # of connection points: 2
#     Edge 20, Type (0, 0), BuildingBlock: MIFKUJ_clean_linker_0, # of connection points: 2
#     Edge 21, Type (0, 0), BuildingBlock: MIFKUJ_clean_linker_0, # of connection points: 2
#     Edge 22, Type (0, 0), BuildingBlock: MIFKUJ_clean_linker_0, # of connection points: 2
#     Edge 23, Type (0, 0), BuildingBlock: MIFKUJ_clean_linker_0, # of connection points: 2
#     Edge 24, Type (0, 0), BuildingBlock: MIFKUJ_clean_linker_0, # of connection points: 2
#     Edge 25, Type (0, 0), BuildingBlock: MIFKUJ_clean_linker_0, # of connection points: 2
#     Edge 26, Type (0, 0), BuildingBlock: MIFKUJ_clean_linker_0, # of connection points: 2
#     Edge 27, Type (0, 0), BuildingBlock: MIFKUJ_clean_linker_0, # of connection points: 2
#     Edge 28, Type (0, 0), BuildingBlock: MIFKUJ_clean_linker_0, # of connection points: 2
#     Edge 29, Type (0, 0), BuildingBlock: MIFKUJ_clean_linker_0, # of connection points: 2
#     Edge 30, Type (0, 0), BuildingBlock: MIFKUJ_clean_linker_0, # of connection points: 2
#     Edge 31, Type (0, 0), BuildingBlock: MIFKUJ_clean_linker_0, # of connection points: 2
#     Edge 32, Type (0, 0), BuildingBlock: MIFKUJ_clean_linker_0, # of connection points: 2
#     Edge 33, Type (0, 0), BuildingBlock: MIFKUJ_clean_linker_0, # of connection points: 2
#     Edge 34, Type (0, 0), BuildingBlock: MIFKUJ_clean_linker_0, # of connection points: 2
#     Edge 35, Type (0, 0), BuildingBlock: MIFKUJ_clean_linker_0, # of connection points: 2
# Relax obj value: 0.073
# Max RMSD: 0.409
# Mean RMSD: 0.258
data_MOF--net-umj--node1-QUQFOY_clean_sbu_1--edge1-MIFKUJ_clean_linker_0
_symmetry_space_group_name_H-M    P1
_symmetry_Int_Tables_number       1
_symmetry_cell_setting            triclinic
loop_
_symmetry_equiv_pos_as_xyz
'x, y, z'
_cell_length_a     38.181409
_cell_length_b     38.369983
_cell_length_c     109.01964
_cell_angle_alpha  91.532722
_cell_angle_beta   85.116297
_cell_angle_gamma 119.75347
loop_
_atom_site_label
_atom_site_type_symbol
_atom_site_fract_x
_atom_site_fract_y
_atom_site_fract_z
_atom_type_partial_charge
O0 O 0.99901 0.22594 0.1032 0.0
Cd1 Cd 0.99267 0.21959 0.08455 0.0
Cd2 Cd 0.0761 0.24161 0.08546 0.0
O3 O 0.06546 0.25345 0.10377 0.0
O4 O 0.95072 0.23477 0.0804 0.0
O5 O 0.0161 0.27092 0.07514 0.0
C6 C 0.98079 0.26737 0.07551 0.0
C7 C 0.12058 0.2858 0.06984 0.0
C8 C 0.03034 0.24167 0.10922 0.0
C9 C 0.01671 0.15802 0.07682 0.0
O10 O 0.05093 0.1824 0.08068 0.0
O11 O 0.98916 0.16767 0.07664 0.0
O12 O 0.13379 0.27057 0.07745 0.0
O13 O 0.0839 0.2784 0.07189 0.0
O14 O 0.73071 0.97892 0.44068 0.0
Cd15 Cd 0.73227 0.97089 0.42192 0.0
Cd16 Cd 0.79102 0.05592 0.42349 0.0
O17 O 0.76436 0.04546 0.44162 0.0
O18 O 0.67603 0.92961 0.4167 0.0
O19 O 0.70518 0.99478 0.41352 0.0
C20 C 0.67399 0.95998 0.41274 0.0
C21 C 0.79094 0.09789 0.40818 0.0
C22 C 0.74306 0.01094 0.44689 0.0
C23 C 0.82012 0.9981 0.41422 0.0
O24 O 0.82788 0.03197 0.41868 0.0
O25 O 0.7835 0.97009 0.41354 0.0
O26 O 0.81793 0.11285 0.41609 0.0
O27 O 0.76363 0.06091 0.40963 0.0
O28 O 0.76453 0.7821 0.77035 0.0
Cd29 Cd 0.75519 0.7851 0.75263 0.0
Cd30 Cd 0.72586 0.83113 0.75864 0.0
O31 O 0.71557 0.79632 0.77509 0.0
O32 O 0.73233 0.73289 0.74285 0.0
O33 O 0.69419 0.75374 0.75315 0.0
C34 C 0.6965 0.72709 0.74631 0.0
C35 C 0.68818 0.82342 0.74153 0.0
C36 C 0.73933 0.78411 0.77832 0.0
C37 C 0.80662 0.87631 0.74836 0.0
O38 O 0.782 0.87915 0.75637 0.0
O39 O 0.79856 0.84176 0.74414 0.0
O40 O 0.68102 0.83768 0.75174 0.0
O41 O 0.71565 0.81332 0.74117 0.0
O42 O 0.99198 0.70922 0.09945 0.0
Cd43 Cd 0.99143 0.70398 0.081 0.0
Cd44 Cd 0.91526 0.68302 0.08384 0.0
O45 O 0.92604 0.66683 0.10123 0.0
O46 O 0.02436 0.67892 0.07325 0.0
O47 O 0.959 0.64452 0.07887 0.0
C48 C 0.99126 0.64459 0.07441 0.0
C49 C 0.88694 0.64933 0.06567 0.0
C50 C 0.95999 0.68591 0.10609 0.0
C51 C 0.96462 0.76388 0.0753 0.0
O52 O 0.93304 0.74175 0.08226 0.0
O53 O 0.98988 0.75188 0.07199 0.0
O54 O 0.86364 0.6478 0.07524 0.0
O55 O 0.92528 0.66807 0.06666 0.0
O56 O 0.23959 0.96021 0.43 0.0
Cd57 Cd 0.24703 0.96491 0.41118 0.0
Cd58 Cd 0.18495 0.88452 0.41432 0.0
O59 O 0.20246 0.89413 0.43247 0.0
O60 O 0.30671 1.00244 0.40588 0.0
O61 O 0.27533 0.9367 0.404 0.0
C62 C 0.30859 0.97038 0.40308 0.0
C63 C 0.18293 0.83834 0.39943 0.0
C64 C 0.22299 0.92909 0.43696 0.0
C65 C 0.16514 0.94497 0.40414 0.0
O66 O 0.15313 0.91126 0.40938 0.0
O67 O 0.20283 0.97091 0.40272 0.0
O68 O 0.15432 0.82725 0.40821 0.0
O69 O 0.21378 0.87362 0.39998 0.0
O70 O 0.26808 0.29675 0.76562 0.0
Cd71 Cd 0.26257 0.30657 0.74763 0.0
Cd72 Cd 0.28312 0.24736 0.74441 0.0
O73 O 0.2993 0.26132 0.7625 0.0
O74 O 0.2822 0.366 0.74517 0.0
O75 O 0.31561 0.33577 0.73777 0.0
C76 C 0.31465 0.36859 0.73953 0.0
C77 C 0.32028 0.24405 0.72664 0.0
C78 C 0.28628 0.27987 0.76975 0.0
C79 C 0.19789 0.22679 0.73988 0.0
O80 O 0.22237 0.21502 0.7423 0.0
O81 O 0.20862 0.26407 0.74028 0.0
O82 O 0.30607 0.21606 0.73502 0.0
O83 O 0.317 0.27536 0.72903 0.0
O84 O 0.69467 0.99743 0.58488 0.0
Cd85 Cd 0.69605 0.00611 0.60358 0.0
Cd86 Cd 0.67411 0.92696 0.60265 0.0
O87 O 0.66005 0.93104 0.58481 0.0
O88 O 0.67954 0.04814 0.60767 0.0
O89 O 0.64127 0.98367 0.61236 0.0
C90 C 0.64505 0.01886 0.61201 0.0
C91 C 0.63507 0.88532 0.61954 0.0
C92 C 0.67606 0.96482 0.57909 0.0
C93 C 0.75835 0.98596 0.60932 0.0
O94 O 0.7346 0.95242 0.60472 0.0
O95 O 0.74716 0.01206 0.61136 0.0
O96 O 0.64855 0.87152 0.6105 0.0
O97 O 0.64042 0.92092 0.61832 0.0
O98 O 0.75272 0.70516 0.90936 0.0
Cd99 Cd 0.74782 0.7004 0.928 0.0
Cd100 Cd 0.80883 0.68388 0.92405 0.0
O101 O 0.78464 0.67016 0.90662 0.0
O102 O 0.68886 0.67712 0.935 0.0
O103 O 0.71985 0.64176 0.93198 0.0
C104 C 0.68716 0.64259 0.93521 0.0
C105 C 0.80775 0.64655 0.94103 0.0
C106 C 0.76575 0.68637 0.90234 0.0
C107 C 0.83295 0.76303 0.93374 0.0
O108 O 0.84457 0.74313 0.92672 0.0
O109 O 0.79517 0.74903 0.93693 0.0
O110 O 0.83252 0.6524 0.93141 0.0
O111 O 0.78268 0.65948 0.94053 0.0
O112 O 0.99053 0.71032 0.24258 0.0
Cd113 Cd 0.99625 0.71133 0.26078 0.0
Cd114 Cd 0.07127 0.7643 0.25674 0.0
O115 O 0.0564 0.73321 0.23961 0.0
O116 O 0.96675 0.65674 0.26979 0.0
O117 O 0.03009 0.68477 0.2619 0.0
C118 C 0.9997 0.65493 0.26767 0.0
C119 C 0.09734 0.75889 0.27518 0.0
C120 C 0.02142 0.7175 0.23538 0.0
C121 C 0.02577 0.80053 0.26557 0.0
O122 O 0.05621 0.80759 0.25818 0.0
O123 O 1.00086 0.76439 0.26934 0.0
O124 O 0.1216 0.77653 0.2655 0.0
O125 O 0.05924 0.74357 0.2742 0.0
O126 O 0.21081 0.9968 0.57365 0.0
Cd127 Cd 0.21533 0.00784 0.59192 0.0
Cd128 Cd 0.23631 0.08156 0.58598 0.0
O129 O 0.25404 0.06097 0.56961 0.0
O130 O 0.23616 0.97712 0.60124 0.0
O131 O 0.2751 0.0386 0.59373 0.0
C132 C 0.27181 0.00843 0.59962 0.0
C133 C 0.27041 0.11752 0.60312 0.0
C134 C 0.23448 0.02464 0.56599 0.0
C135 C 0.15505 0.0376 0.59622 0.0
O136 O 0.17666 0.06369 0.58786 0.0
O137 O 0.16822 0.01638 0.60086 0.0
O138 O 0.27349 0.13667 0.59312 0.0
O139 O 0.24907 0.0791 0.60316 0.0
O140 O 0.25951 0.22104 0.90669 0.0
Cd141 Cd 0.26338 0.21252 0.9249 0.0
Cd142 Cd 0.20737 0.2421 0.92719 0.0
O143 O 0.22928 0.25782 0.90868 0.0
O144 O 0.32175 0.23018 0.9284 0.0
O145 O 0.29027 0.26417 0.93332 0.0
C146 C 0.32305 0.26242 0.9328 0.0
C147 C 0.20678 0.28402 0.94329 0.0
C148 C 0.24726 0.24265 0.90195 0.0
C149 C 0.17787 0.15465 0.93425 0.0
O150 O 0.17028 0.18197 0.93131 0.0
O151 O 0.21429 0.16134 0.93355 0.0
O152 O 0.17924 0.27095 0.93556 0.0
O153 O 0.23529 0.27557 0.94128 0.0
O154 O 0.00585 0.22963 0.24685 0.0
Cd155 Cd 0.01529 0.23575 0.26518 0.0
Cd156 Cd 0.9302 0.17976 0.26634 0.0
O157 O 0.93878 0.19858 0.24787 0.0
O158 O 0.05702 0.29395 0.26862 0.0
O159 O 0.99161 0.26595 0.27387 0.0
C160 C 0.02663 0.29762 0.27319 0.0
C161 C 0.88748 0.18339 0.28254 0.0
C162 C 0.97313 0.21615 0.2416 0.0
C163 C 0.98782 0.15182 0.27376 0.0
O164 O 0.95328 0.14356 0.27055 0.0
O165 O 0.01711 0.18801 0.27342 0.0
O166 O 0.87288 0.1547 0.27472 0.0
O167 O 0.92462 0.21074 0.28048 0.0
H168 H 0.04147 0.24538 0.22597 0.0
H169 H 0.04803 0.25247 0.20373 0.0
H170 H 0.91929 0.20526 0.20376 0.0
H171 H 0.91217 0.19707 0.22628 0.0
H172 H 0.94553 0.17273 0.18587 0.0
H173 H 0.9872 0.30654 0.19873 0.0
H174 H 0.02523 0.36837 0.21037 0.0
H175 H 0.13726 0.38329 0.19306 0.0
H176 H 0.09993 0.32121 0.18145 0.0
H177 H 0.96062 0.22443 0.12315 0.0
H178 H 0.94942 0.2233 0.14549 0.0
H179 H 0.07548 0.26289 0.14867 0.0
H180 H 0.08722 0.2645 0.12616 0.0
H181 H 0.04709 0.30095 0.16487 0.0
H182 H 0.00493 0.16485 0.15301 0.0
H183 H 0.96663 0.10295 0.14143 0.0
H184 H 0.85472 0.09291 0.15694 0.0
H185 H 0.89239 0.15511 0.16849 0.0
C186 C 0.01435 0.2366 0.22133 0.0
C187 C 0.9762 0.22081 0.22799 0.0
C188 C 0.01831 0.24094 0.20855 0.0
C189 C 0.98434 0.23019 0.20205 0.0
C190 C 0.94602 0.21404 0.2086 0.0
C191 C 0.94195 0.20942 0.22147 0.0
C192 C 0.98923 0.23486 0.18839 0.0
C193 C 0.96715 0.20099 0.18129 0.0
C194 C 0.01816 0.2715 0.18237 0.0
C195 C 0.04074 0.30903 0.18928 0.0
C196 C 0.01995 0.32285 0.19747 0.0
C197 C 0.04139 0.35797 0.20405 0.0
C198 C 0.08364 0.3797 0.20247 0.0
C199 C 0.10453 0.36641 0.19428 0.0
C200 C 0.08324 0.33129 0.18768 0.0
C201 C 0.98615 0.23314 0.12855 0.0
C202 C 0.02482 0.24424 0.12281 0.0
C203 C 0.97959 0.23233 0.14136 0.0
C204 C 0.01142 0.24232 0.14877 0.0
C205 C 0.05042 0.25487 0.14312 0.0
C206 C 0.05706 0.25574 0.13025 0.0
C207 C 0.00366 0.23877 0.16241 0.0
C208 C 0.02523 0.27283 0.16948 0.0
C209 C 0.97418 0.20236 0.1684 0.0
C210 C 0.95149 0.16485 0.16152 0.0
C211 C 0.97216 0.14962 0.15388 0.0
C212 C 0.95056 0.11445 0.14733 0.0
C213 C 0.90826 0.09407 0.14842 0.0
C214 C 0.88748 0.10876 0.15609 0.0
C215 C 0.90894 0.14395 0.16265 0.0
H216 H 0.8916 0.06685 0.14335 0.0
H217 H 0.10018 0.40688 0.20758 0.0
H218 H 0.75525 0.07044 0.46361 0.0
H219 H 0.73943 0.06276 0.48598 0.0
H220 H 0.69358 0.93522 0.48322 0.0
H221 H 0.70804 0.9424 0.46099 0.0
H222 H 0.64575 0.94699 0.49894 0.0
H223 H 0.79024 1.00251 0.49279 0.0
H224 H 0.85998 0.05185 0.48506 0.0
H225 H 0.85084 0.14465 0.50549 0.0
H226 H 0.78084 0.09593 0.51322 0.0
H227 H 0.65563 0.90453 0.56209 0.0
H228 H 0.6626 0.91186 0.53957 0.0
H229 H 0.70248 0.03813 0.54298 0.0
H230 H 0.69617 0.03122 0.56529 0.0
H231 H 0.75226 0.02764 0.52699 0.0
H232 H 0.60788 0.97035 0.5338 0.0
H233 H 0.5387 0.91999 0.54166 0.0
H234 H 0.54828 0.82921 0.52016 0.0
H235 H 0.61775 0.87895 0.51229 0.0
C236 C 0.74169 0.04078 0.46777 0.0
C237 C 0.73309 0.00712 0.46046 0.0
C238 C 0.73279 0.0364 0.48058 0.0
C239 C 0.71574 0.99841 0.48636 0.0
C240 C 0.70663 0.96482 0.47904 0.0
C241 C 0.7151 0.96908 0.46627 0.0
C242 C 0.70783 0.99334 0.50003 0.0
C243 C 0.6692 0.96438 0.50506 0.0
C244 C 0.73808 0.01638 0.50809 0.0
C245 C 0.78018 0.04567 0.50347 0.0
C246 C 0.80302 0.0335 0.49556 0.0
C247 C 0.8426 0.06134 0.49119 0.0
C248 C 0.85979 0.10138 0.49475 0.0
C249 C 0.83746 0.11364 0.50272 0.0
C250 C 0.79785 0.08592 0.50711 0.0
C251 C 0.66533 0.9337 0.55803 0.0
C252 C 0.67553 0.96728 0.56552 0.0
C253 C 0.66928 0.93788 0.54515 0.0
C254 C 0.68309 0.97562 0.53954 0.0
C255 C 0.69205 0.00879 0.54704 0.0
C256 C 0.68829 0.0047 0.55984 0.0
C257 C 0.69021 0.98133 0.5259 0.0
C258 C 0.72875 0.01036 0.52087 0.0
C259 C 0.65995 0.9582 0.51786 0.0
C260 C 0.61816 0.9283 0.52255 0.0
C261 C 0.59535 0.93958 0.53082 0.0
C262 C 0.55607 0.91116 0.53526 0.0
C263 C 0.53915 0.8714 0.53144 0.0
C264 C 0.56144 0.86001 0.52313 0.0
C265 C 0.60076 0.88831 0.51867 0.0
H266 H 0.50873 0.84944 0.53488 0.0
H267 H 0.89044 0.12289 0.49136 0.0
H268 H 0.67653 0.75685 0.79663 0.0
H269 H 0.67588 0.73352 0.81747 0.0
H270 H 0.80034 0.76246 0.80998 0.0
H271 H 0.80047 0.78389 0.78919 0.0
H272 H 0.76224 0.69441 0.8211 0.0
H273 H 0.76705 0.82201 0.82856 0.0
H274 H 0.7422 0.87017 0.8277 0.0
H275 H 0.63014 0.78617 0.84743 0.0
H276 H 0.65418 0.73735 0.84829 0.0
H277 H 0.81952 0.69915 0.88229 0.0
H278 H 0.81127 0.71021 0.86091 0.0
H279 H 0.68797 0.68113 0.87136 0.0
H280 H 0.69707 0.67235 0.89273 0.0
H281 H 0.72075 0.74495 0.85865 0.0
H282 H 0.71747 0.61886 0.85243 0.0
H283 H 0.74233 0.57076 0.8534 0.0
H284 H 0.85087 0.65103 0.83142 0.0
H285 H 0.82688 0.69983 0.83044 0.0
C286 C 0.70373 0.75837 0.79949 0.0
C287 C 0.73849 0.77215 0.79124 0.0
C288 C 0.70343 0.74514 0.81143 0.0
C289 C 0.73823 0.74643 0.81542 0.0
C290 C 0.77298 0.76076 0.80718 0.0
C291 C 0.77305 0.7732 0.79527 0.0
C292 C 0.73898 0.73272 0.82806 0.0
C293 C 0.75348 0.70579 0.82931 0.0
C294 C 0.72656 0.74648 0.83884 0.0
C295 C 0.71225 0.77591 0.83837 0.0
C296 C 0.73702 0.81374 0.83264 0.0
C297 C 0.7231 0.84116 0.83217 0.0
C298 C 0.68457 0.83119 0.83748 0.0
C299 C 0.65994 0.79383 0.84331 0.0
C300 C 0.67371 0.7663 0.8438 0.0
C301 C 0.79043 0.69419 0.87991 0.0
C302 C 0.7589 0.68476 0.88913 0.0
C303 C 0.78563 0.7005 0.86768 0.0
C304 C 0.74882 0.69638 0.8644 0.0
C305 C 0.71675 0.68486 0.87358 0.0
C306 C 0.72186 0.67952 0.88579 0.0
C307 C 0.74439 0.70688 0.85171 0.0
C308 C 0.72922 0.73326 0.85046 0.0
C309 C 0.75617 0.69256 0.84093 0.0
C310 C 0.77051 0.66313 0.84145 0.0
C311 C 0.74675 0.62636 0.84787 0.0
C312 C 0.76067 0.59895 0.84841 0.0
C313 C 0.79819 0.60787 0.8425 0.0
C314 C 0.82183 0.64417 0.836 0.0
C315 C 0.80806 0.67169 0.83544 0.0
H316 H 0.80892 0.58662 0.84293 0.0
H317 H 0.67385 0.85246 0.8371 0.0
H318 H 0.02913 0.71159 0.11752 0.0
H319 H 0.03681 0.71 0.13935 0.0
H320 H 0.90716 0.64978 0.14705 0.0
H321 H 0.89908 0.65159 0.12495 0.0
H322 H 0.94523 0.7121 0.16241 0.0
H323 H 0.95896 0.59943 0.14962 0.0
H324 H 0.98531 0.56219 0.13683 0.0
H325 H 0.10541 0.64289 0.14701 0.0
H326 H 0.07989 0.681 0.15972 0.0
H327 H 0.95009 0.67536 0.22483 0.0
H328 H 0.93905 0.6647 0.2031 0.0
H329 H 0.06799 0.72795 0.19374 0.0
H330 H 0.07952 0.7386 0.21573 0.0
H331 H 0.02804 0.66089 0.17938 0.0
H332 H 0.01465 0.7753 0.19126 0.0
H333 H 0.98837 0.81267 0.20401 0.0
H334 H 0.86737 0.72834 0.19539 0.0
H335 H 0.89288 0.69011 0.18272 0.0
C336 C 1.00203 0.69768 0.12379 0.0
C337 C 0.96338 0.68176 0.11942 0.0
C338 C 0.00656 0.69659 0.13632 0.0
C339 C 0.97262 0.67941 0.14489 0.0
C340 C 0.93384 0.66307 0.14061 0.0
C341 C 0.92923 0.66397 0.12797 0.0
C342 C 0.97824 0.68063 0.1583 0.0
C343 C 0.96266 0.70017 0.16615 0.0
C344 C 1.00204 0.66617 0.16317 0.0
C345 C 0.01753 0.64329 0.15555 0.0
C346 C 0.99105 0.60944 0.14905 0.0
C347 C 0.00583 0.58814 0.14183 0.0
C348 C 0.04702 0.60022 0.14109 0.0
C349 C 0.07351 0.63359 0.14759 0.0
C350 C 0.05889 0.65503 0.15481 0.0
C351 C 0.97631 0.68692 0.21821 0.0
C352 C 0.0158 0.70829 0.22208 0.0
C353 C 0.96984 0.68082 0.20574 0.0
C354 C 1.00261 0.69615 0.19674 0.0
C355 C 0.04219 0.71603 0.20052 0.0
C356 C 0.04876 0.72212 0.21309 0.0
C357 C 0.99509 0.69242 0.18343 0.0
C358 C 0.0104 0.67254 0.17562 0.0
C359 C 0.97104 0.70658 0.17858 0.0
C360 C 0.95564 0.72962 0.18614 0.0
C361 C 0.9824 0.76454 0.19216 0.0
C362 C 0.96765 0.78591 0.19936 0.0
C363 C 0.92621 0.77283 0.20054 0.0
C364 C 0.89945 0.7384 0.19448 0.0
C365 C 0.91404 0.71689 0.18728 0.0
H366 H 0.91485 0.78941 0.20611 0.0
H367 H 0.0584 0.58368 0.13549 0.0
H368 H 0.28231 0.07449 0.54645 0.0
H369 H 0.28365 0.05669 0.52471 0.0
H370 H 0.19406 0.93384 0.53401 0.0
H371 H 0.19334 0.95102 0.55564 0.0
H372 H 0.24769 0.93428 0.51737 0.0
H373 H 0.16941 1.00137 0.52175 0.0
H374 H 0.15615 0.05668 0.52741 0.0
H375 H 0.25564 0.13626 0.50225 0.0
H376 H 0.26981 0.08152 0.49656 0.0
H377 H 0.18101 0.87488 0.45626 0.0
H378 H 0.18534 0.88882 0.4784 0.0
H379 H 0.27915 0.01083 0.47008 0.0
H380 H 0.27485 0.99746 0.4482 0.0
H381 H 0.22274 0.00972 0.48628 0.0
H382 H 0.29982 0.9411 0.48166 0.0
H383 H 0.31152 0.88485 0.47597 0.0
H384 H 0.21217 0.80688 0.50144 0.0
H385 H 0.19954 0.86257 0.50717 0.0
C386 C 0.26314 0.04365 0.54387 0.0
C387 C 0.23758 0.01431 0.55282 0.0
C388 C 0.26375 0.03351 0.53142 0.0
C389 C 0.23846 0.99396 0.52765 0.0
C390 C 0.21383 0.96452 0.53663 0.0
C391 C 0.21339 0.97453 0.54904 0.0
C392 C 0.23664 0.98317 0.51437 0.0
C393 C 0.24183 0.95056 0.51059 0.0
C394 C 0.22945 0.00455 0.50544 0.0
C395 C 0.22092 0.03747 0.50883 0.0
C396 C 0.18864 0.03075 0.5175 0.0
C397 C 0.18093 0.06198 0.5207 0.0
C398 C 0.20511 0.09999 0.51522 0.0
C399 C 0.23698 0.10682 0.5065 0.0
C400 C 0.24485 0.0757 0.50328 0.0
C401 C 0.20285 0.9045 0.45917 0.0
C402 C 0.22734 0.93505 0.45042 0.0
C403 C 0.20535 0.91245 0.47183 0.0
C404 C 0.23257 0.95098 0.47593 0.0
C405 C 0.2577 0.98101 0.46718 0.0
C406 C 0.25519 0.97318 0.45463 0.0
C407 C 0.23412 0.96106 0.48925 0.0
C408 C 0.22871 0.99349 0.49304 0.0
C409 C 0.24088 0.93937 0.49817 0.0
C410 C 0.24847 0.90589 0.49475 0.0
C411 C 0.28026 0.91187 0.48597 0.0
C412 C 0.2871 0.88011 0.48275 0.0
C413 C 0.26253 0.84228 0.48831 0.0
C414 C 0.23113 0.83618 0.49713 0.0
C415 C 0.22414 0.86784 0.50037 0.0
H416 H 0.26788 0.81773 0.48581 0.0
H417 H 0.19909 0.12413 0.51771 0.0
H418 H 0.3104 0.23694 0.78327 0.0
H419 H 0.30933 0.23391 0.80576 0.0
H420 H 0.26856 0.32061 0.80915 0.0
H421 H 0.27009 0.32426 0.78684 0.0
H422 H 0.32246 0.33509 0.82558 0.0
H423 H 0.20165 0.22057 0.81267 0.0
H424 H 0.16294 0.15927 0.80087 0.0
H425 H 0.22108 0.10311 0.81737 0.0
H426 H 0.26055 0.16433 0.82915 0.0
H427 H 0.23275 0.29214 0.88785 0.0
H428 H 0.24393 0.30153 0.86538 0.0
H429 H 0.28807 0.21745 0.86296 0.0
H430 H 0.27701 0.20781 0.88521 0.0
H431 H 0.23447 0.20222 0.8461 0.0
H432 H 0.35294 0.31611 0.8599 0.0
H433 H 0.38994 0.37694 0.87205 0.0
H434 H 0.33538 0.43424 0.85417 0.0
H435 H 0.29748 0.37345 0.84206 0.0
C436 C 0.30174 0.25574 0.7888 0.0
C437 C 0.28996 0.28053 0.78323 0.0
C438 C 0.30096 0.25386 0.80166 0.0
C439 C 0.28829 0.27663 0.80917 0.0
C440 C 0.27835 0.3027 0.80359 0.0
C441 C 0.27907 0.30457 0.79079 0.0
C442 C 0.28318 0.27191 0.82283 0.0
C443 C 0.30298 0.30608 0.83007 0.0
C444 C 0.25816 0.23403 0.82872 0.0
C445 C 0.23437 0.19716 0.82168 0.0
C446 C 0.2064 0.19525 0.81371 0.0
C447 C 0.18429 0.16051 0.80704 0.0
C448 C 0.18964 0.12736 0.80834 0.0
C449 C 0.21703 0.12884 0.81635 0.0
C450 C 0.23926 0.16354 0.82303 0.0
C451 C 0.24487 0.27572 0.88253 0.0
C452 C 0.25398 0.24927 0.88838 0.0
C453 C 0.25139 0.28121 0.86969 0.0
C454 C 0.26705 0.26032 0.86249 0.0
C455 C 0.27594 0.23384 0.86831 0.0
C456 C 0.26967 0.22851 0.88108 0.0
C457 C 0.27376 0.26534 0.84886 0.0
C458 C 0.25415 0.23121 0.84162 0.0
C459 C 0.29887 0.30325 0.84301 0.0
C460 C 0.32204 0.34005 0.85016 0.0
C461 C 0.34858 0.34156 0.85862 0.0
C462 C 0.36975 0.37605 0.8655 0.0
C463 C 0.36493 0.40939 0.86391 0.0
C464 C 0.33903 0.40836 0.85541 0.0
C465 C 0.31771 0.3739 0.84853 0.0
H466 H 0.38133 0.43606 0.86925 0.0
H467 H 0.17248 0.10048 0.80317 0.0
H468 H 0.10202 0.32619 0.05389 0.0
H469 H 0.12606 0.34072 0.0322 0.0
H470 H 0.21372 0.30362 0.03695 0.0
H471 H 0.18915 0.28796 0.05878 0.0
H472 H 0.22706 0.3836 0.01829 0.0
H473 H 0.16247 0.23594 0.02641 0.0
H474 H 0.10891 0.17416 0.03714 0.0
H475 H 0.0179 0.19488 0.02392 0.0
H476 H 0.07105 0.25699 0.0132 0.0
H477 H 0.26598 0.32393 0.95875 0.0
H478 H 0.25747 0.33932 0.98019 0.0
H479 H 0.13213 0.30158 0.97625 0.0
H480 H 0.14031 0.28503 0.95469 0.0
H481 H 0.13801 0.26325 0.99489 0.0
H482 H 0.2034 0.4011 0.98229 0.0
H483 H 0.25605 0.46358 0.97176 0.0
H484 H 0.34533 0.46457 0.99342 0.0
H485 H 0.29333 0.40178 1.00398 0.0
C486 C 0.12726 0.3222 0.05046 0.0
C487 C 0.14336 0.30542 0.05803 0.0
C488 C 0.14097 0.33063 0.03805 0.0
C489 C 0.17134 0.32292 0.03301 0.0
C490 C 0.19024 0.3098 0.04074 0.0
C491 C 0.17627 0.301 0.05321 0.0
C492 C 0.17829 0.32252 0.01947 0.0
C493 C 0.20817 0.35723 0.01311 0.0
C494 C 0.15257 0.28855 0.0128 0.0
C495 C 0.12063 0.25119 0.01913 0.0
C496 C 0.13102 0.22742 0.02588 0.0
C497 C 0.10078 0.19234 0.03193 0.0
C498 C 0.06003 0.18067 0.03124 0.0
C499 C 0.04947 0.20399 0.02446 0.0
C500 C 0.07963 0.2391 0.01839 0.0
C501 C 0.23682 0.31988 0.96232 0.0
C502 C 0.2037 0.30295 0.95503 0.0
C503 C 0.23205 0.32891 0.97462 0.0
C504 C 0.19416 0.32165 0.97989 0.0
C505 C 0.16166 0.30736 0.97239 0.0
C506 C 0.16642 0.29823 0.96004 0.0
C507 C 0.18756 0.32431 0.99346 0.0
C508 C 0.15727 0.28988 0.99992 0.0
C509 C 0.21314 0.35863 1.00015 0.0
C510 C 0.24448 0.39653 0.99387 0.0
C511 C 0.23431 0.41447 0.98475 0.0
C512 C 0.26404 0.44998 0.97879 0.0
C513 C 0.30402 0.46799 0.9819 0.0
C514 C 0.31435 0.45058 0.99101 0.0
C515 C 0.28474 0.41506 0.997 0.0
H516 H 0.32699 0.49547 0.97727 0.0
H517 H 0.03667 0.15351 0.03594 0.0
H518 H 0.85526 0.16724 0.39773 0.0
H519 H 0.86309 0.19087 0.37637 0.0
H520 H 0.7406 0.09898 0.37135 0.0
H521 H 0.73219 0.07592 0.39254 0.0
H522 H 0.80859 0.09801 0.35559 0.0
H523 H 0.75291 0.18276 0.36945 0.0
H524 H 0.75076 0.23616 0.38201 0.0
H525 H 0.86977 0.32152 0.36654 0.0
H526 H 0.87288 0.26846 0.35402 0.0
H527 H 0.81317 0.12391 0.29234 0.0
H528 H 0.78642 0.11683 0.31394 0.0
H529 H 0.88712 0.23276 0.32152 0.0
H530 H 0.91268 0.24082 0.30001 0.0
H531 H 0.82665 0.22214 0.33632 0.0
H532 H 0.88939 0.14333 0.32481 0.0
H533 H 0.90011 0.09348 0.31283 0.0
H534 H 0.77959 1.00122 0.32468 0.0
H535 H 0.76796 0.0507 0.33659 0.0
C536 C 0.82957 0.15311 0.39221 0.0
C537 C 0.79328 0.11944 0.39679 0.0
C538 C 0.83412 0.16651 0.38001 0.0
C539 C 0.80247 0.14636 0.3723 0.0
C540 C 0.76536 0.11481 0.37716 0.0
C541 C 0.76068 0.10172 0.3893 0.0
C542 C 0.80948 0.154 0.35882 0.0
C543 C 0.81189 0.12485 0.35133 0.0
C544 C 0.81517 0.18963 0.35338 0.0
C545 C 0.8133 0.22152 0.3609 0.0
C546 C 0.7788 0.21281 0.36882 0.0
C547 C 0.77737 0.24305 0.37591 0.0
C548 C 0.81016 0.28218 0.3751 0.0
C549 C 0.84441 0.29118 0.36717 0.0
C550 C 0.84601 0.26104 0.36007 0.0
C551 C 0.82882 0.1484 0.29853 0.0
C552 C 0.86543 0.18256 0.2945 0.0
C553 C 0.81374 0.14421 0.31091 0.0
C554 C 0.83549 0.1737 0.31947 0.0
C555 C 0.86992 0.20938 0.31517 0.0
C556 C 0.88463 0.21384 0.30282 0.0
C557 C 0.82538 0.16586 0.33299 0.0
C558 C 0.82281 0.19502 0.34051 0.0
C559 C 0.82071 0.13068 0.33856 0.0
C560 C 0.82764 0.1008 0.33147 0.0
C561 C 0.86509 0.11246 0.32479 0.0
C562 C 0.87134 0.08428 0.31802 0.0
C563 C 0.84051 0.04423 0.31797 0.0
C564 C 0.8034 0.03227 0.32471 0.0
C565 C 0.79696 0.06037 0.33147 0.0
H566 H 0.8454 0.02245 0.31272 0.0
H567 H 0.80898 0.30555 0.3806 0.0
H568 H 0.64506 0.86026 0.73569 0.0
H569 H 0.62186 0.86169 0.7154 0.0
H570 H 0.66296 0.78062 0.70159 0.0
H571 H 0.68579 0.77892 0.72161 0.0
H572 H 0.69534 0.84941 0.68761 0.0
H573 H 0.56429 0.74903 0.7052 0.0
H574 H 0.50481 0.72129 0.72037 0.0
H575 H 0.48294 0.81726 0.71204 0.0
H576 H 0.54262 0.84585 0.69692 0.0
H577 H 0.64027 0.82115 0.62761 0.0
H578 H 0.63472 0.80076 0.64908 0.0
H579 H 0.594 0.88392 0.66075 0.0
H580 H 0.59919 0.90428 0.63932 0.0
H581 H 0.55896 0.81469 0.67604 0.0
H582 H 0.69003 0.9166 0.65937 0.0
H583 H 0.74924 0.94576 0.64409 0.0
H584 H 0.77215 0.84964 0.65121 0.0
H585 H 0.71255 0.81947 0.66636 0.0
C586 C 0.64828 0.84211 0.72839 0.0
C587 C 0.66775 0.81993 0.73021 0.0
C588 C 0.63506 0.84295 0.71681 0.0
C589 C 0.64101 0.8215 0.70694 0.0
C590 C 0.65838 0.79768 0.70901 0.0
C591 C 0.67144 0.79679 0.72049 0.0
C592 C 0.63279 0.82632 0.69418 0.0
C593 C 0.66536 0.84125 0.68508 0.0
C594 C 0.59397 0.81688 0.69092 0.0
C595 C 0.55819 0.79984 0.70003 0.0
C596 C 0.54703 0.76445 0.70669 0.0
C597 C 0.51322 0.74851 0.71526 0.0
C598 C 0.49019 0.76758 0.7172 0.0
C599 C 0.50085 0.80256 0.71054 0.0
C600 C 0.53464 0.81862 0.70196 0.0
C601 C 0.62874 0.83406 0.63469 0.0
C602 C 0.62072 0.86474 0.63176 0.0
C603 C 0.62576 0.82252 0.64698 0.0
C604 C 0.61472 0.84142 0.65653 0.0
C605 C 0.60274 0.86906 0.65354 0.0
C606 C 0.60584 0.88072 0.64126 0.0
C607 C 0.62135 0.83681 0.6695 0.0
C608 C 0.58878 0.8225 0.67861 0.0
C609 C 0.66031 0.84714 0.67286 0.0
C610 C 0.69656 0.86554 0.6639 0.0
C611 C 0.70751 0.90151 0.65761 0.0
C612 C 0.74115 0.91824 0.64898 0.0
C613 C 0.76438 0.89951 0.64666 0.0
C614 C 0.75407 0.86408 0.653 0.0
C615 C 0.72037 0.84714 0.66161 0.0
H616 H 0.79041 0.91251 0.63997 0.0
H617 H 0.46402 0.75519 0.72383 0.0
H618 H 0.81345 0.63005 0.05723 0.0
H619 H 0.79545 0.61671 0.03581 0.0
H620 H 0.90895 0.621 0.02516 0.0
H621 H 0.92708 0.63448 0.04635 0.0
H622 H 0.89875 0.67063 0.01105 0.0
H623 H 0.81844 0.53307 0.02501 0.0
H624 H 0.7666 0.47722 0.03831 0.0
H625 H 0.67548 0.50237 0.02775 0.0
H626 H 0.72689 0.55876 0.01451 0.0
H627 H 0.86872 0.63478 0.94816 0.0
H628 H 0.87809 0.62161 0.9692 0.0
H629 H 0.76283 0.61062 0.98189 0.0
H630 H 0.75283 0.62246 0.96098 0.0
H631 H 0.77441 0.56091 0.99481 0.0
H632 H 0.85252 0.70093 0.98304 0.0
H633 H 0.90228 0.75841 0.96984 0.0
H634 H 0.99523 0.73124 0.97681 0.0
H635 H 0.9459 0.67331 0.98995 0.0
C636 C 0.83405 0.62713 0.05037 0.0
C637 C 0.8718 0.63362 0.05348 0.0
C638 C 0.82379 0.61957 0.03812 0.0
C639 C 0.85097 0.61805 0.02883 0.0
C640 C 0.88762 0.62234 0.03211 0.0
C641 C 0.89787 0.62995 0.04427 0.0
C642 C 0.84317 0.61546 0.01556 0.0
C643 C 0.87186 0.6462 0.00749 0.0
C644 C 0.80757 0.58432 0.01092 0.0
C645 C 0.77661 0.5504 0.01886 0.0
C646 C 0.78742 0.52692 0.02561 0.0
C647 C 0.75809 0.49511 0.03312 0.0
C648 C 0.71779 0.48631 0.0339 0.0
C649 C 0.70671 0.50925 0.02714 0.0
C650 C 0.73593 0.54111 0.01963 0.0
C651 C 0.84491 0.62841 0.95537 0.0
C652 C 0.8103 0.63019 0.95291 0.0
C653 C 0.85042 0.62123 0.96743 0.0
C654 C 0.8216 0.61611 0.97722 0.0
C655 C 0.78566 0.61474 0.97456 0.0
C656 C 0.78007 0.62169 0.96256 0.0
C657 C 0.83015 0.61591 0.99032 0.0
C658 C 0.80153 0.58498 0.99837 0.0
C659 C 0.86555 0.64721 0.99503 0.0
C660 C 0.89544 0.68252 0.98735 0.0
C661 C 0.88353 0.70711 0.9817 0.0
C662 C 0.91164 0.73975 0.97423 0.0
C663 C 0.95182 0.74829 0.97243 0.0
C664 C 0.96406 0.72446 0.97818 0.0
C665 C 0.93605 0.69175 0.98565 0.0
H666 H 0.9735 0.77345 0.9666 0.0
H667 H 0.69513 0.46167 0.03972 0.0
H668 H 0.17458 0.80159 0.28298 0.0
H669 H 0.19334 0.8063 0.30428 0.0
H670 H 0.06998 0.7195 0.31622 0.0
H671 H 0.05126 0.71432 0.2952 0.0
H672 H 0.09964 0.79045 0.32925 0.0
H673 H 0.14024 0.69364 0.31612 0.0
H674 H 0.17842 0.66857 0.30293 0.0
H675 H 0.29046 0.76863 0.31274 0.0
H676 H 0.25291 0.79463 0.32585 0.0
H677 H 0.11387 0.77415 0.39174 0.0
H678 H 0.10278 0.75042 0.37059 0.0
H679 H 0.22933 0.82885 0.35968 0.0
H680 H 0.24078 0.85198 0.38078 0.0
H681 H 0.19999 0.76207 0.34596 0.0
H682 H 0.16342 0.86158 0.35772 0.0
H683 H 0.12868 0.89071 0.37072 0.0
H684 H 0.01334 0.79177 0.36277 0.0
H685 H 0.04743 0.76166 0.34989 0.0
C686 C 0.15175 0.78292 0.29012 0.0
C687 C 0.11137 0.75791 0.2874 0.0
C688 C 0.16245 0.78567 0.30228 0.0
C689 C 0.13293 0.76345 0.31186 0.0
C690 C 0.09318 0.73715 0.30902 0.0
C691 C 0.08258 0.73424 0.29695 0.0
C692 C 0.14214 0.7695 0.325 0.0
C693 C 0.12117 0.78367 0.33293 0.0
C694 C 0.17117 0.76194 0.32973 0.0
C695 C 0.19375 0.74632 0.32186 0.0
C696 C 0.17301 0.71051 0.31537 0.0
C697 C 0.19454 0.69608 0.30793 0.0
C698 C 0.23684 0.71705 0.30697 0.0
C699 C 0.25769 0.75245 0.31348 0.0
C700 C 0.2363 0.76703 0.32092 0.0
C701 C 0.1396 0.78524 0.38495 0.0
C702 C 0.17807 0.81538 0.38792 0.0
C703 C 0.13318 0.7719 0.37282 0.0
C704 C 0.16504 0.78867 0.36346 0.0
C705 C 0.20421 0.81569 0.36669 0.0
C706 C 0.21066 0.82894 0.37879 0.0
C707 C 0.15681 0.78217 0.35023 0.0
C708 C 0.17821 0.76846 0.34228 0.0
C709 C 0.12862 0.7908 0.34538 0.0
C710 C 0.10798 0.80914 0.35295 0.0
C711 C 0.13065 0.8459 0.35881 0.0
C712 C 0.11108 0.8626 0.36615 0.0
C713 C 0.06883 0.84305 0.3676 0.0
C714 C 0.04607 0.80684 0.36166 0.0
C715 C 0.06549 0.78993 0.35434 0.0
H716 H 0.05374 0.85602 0.37329 0.0
H717 H 0.25345 0.70583 0.30121 0.0
H718 H 0.30189 0.19737 0.60934 0.0
H719 H 0.3218 0.22613 0.62977 0.0
H720 H 0.29817 0.11111 0.64316 0.0
H721 H 0.27889 0.08258 0.62303 0.0
H722 H 0.25688 0.1433 0.65738 0.0
H723 H 0.39219 0.18435 0.63883 0.0
H724 H 0.44994 0.21967 0.62332 0.0
H725 H 0.45695 0.33201 0.63308 0.0
H726 H 0.39884 0.29724 0.64854 0.0
H727 H 0.31548 0.17535 0.71694 0.0
H728 H 0.31878 0.1604 0.69507 0.0
H729 H 0.35468 0.28267 0.68559 0.0
H730 H 0.35204 0.29805 0.70742 0.0
H731 H 0.39004 0.25216 0.66896 0.0
H732 H 0.25806 0.21551 0.68708 0.0
H733 H 0.19954 0.18371 0.70253 0.0
H734 H 0.18308 0.0675 0.69305 0.0
H735 H 0.24203 0.09867 0.67769 0.0
C736 C 0.30175 0.17855 0.61659 0.0
C737 C 0.28836 0.13762 0.6146 0.0
C738 C 0.31303 0.19494 0.62824 0.0
C739 C 0.31106 0.17059 0.638 0.0
C740 C 0.29954 0.13033 0.63581 0.0
C741 C 0.28853 0.11411 0.62426 0.0
C742 C 0.31821 0.18559 0.65076 0.0
C743 C 0.28613 0.16682 0.65993 0.0
C744 C 0.35591 0.21726 0.65401 0.0
C745 C 0.39088 0.23813 0.64474 0.0
C746 C 0.4058 0.21653 0.63759 0.0
C747 C 0.43865 0.23646 0.62883 0.0
C748 C 0.45702 0.27805 0.62719 0.0
C749 C 0.44264 0.29979 0.63434 0.0
C750 C 0.40977 0.27999 0.64311 0.0
C751 C 0.32538 0.19941 0.71023 0.0
C752 C 0.33294 0.23774 0.71393 0.0
C753 C 0.32698 0.19075 0.69772 0.0
C754 C 0.33601 0.22019 0.68869 0.0
C755 C 0.34736 0.25943 0.69238 0.0
C756 C 0.34578 0.26813 0.70489 0.0
C757 C 0.32905 0.20892 0.67561 0.0
C758 C 0.36085 0.22861 0.66641 0.0
C759 C 0.29079 0.17852 0.67225 0.0
C760 C 0.25483 0.1595 0.68133 0.0
C761 C 0.24218 0.1832 0.68835 0.0
C762 C 0.20893 0.16529 0.69709 0.0
C763 C 0.18778 0.12365 0.69882 0.0
C764 C 0.19963 0.09979 0.69174 0.0
C765 C 0.23296 0.11756 0.68301 0.0
H766 H 0.16215 0.10987 0.70563 0.0
H767 H 0.48246 0.29342 0.6204 0.0
H768 H 0.05383 0.63024 0.06675 0.0
H769 H 0.04958 0.56436 0.06414 0.0
H770 H 0.92055 0.50565 0.07315 0.0
H771 H 0.92436 0.57057 0.07565 0.0
H772 H 0.95783 0.47679 0.087 0.0
H773 H 0.95596 0.50507 0.0444 0.0
H774 H 0.98184 0.54501 0.02508 0.0
H775 H 0.0911 0.53861 0.02453 0.0
H776 H 0.0661 0.49909 0.04396 0.0
H777 H 0.91361 0.27685 0.07835 0.0
H778 H 0.91182 0.33903 0.07525 0.0
H779 H 0.03772 0.39871 0.06157 0.0
H780 H 0.03934 0.3368 0.06424 0.0
H781 H 1.00059 0.42681 0.04951 0.0
H782 H 0.00693 0.40398 0.09221 0.0
H783 H 0.98447 0.36609 0.11192 0.0
H784 H 0.87135 0.36518 0.11287 0.0
H785 H 0.89296 0.40262 0.09306 0.0
C786 C 0.02454 0.60328 0.06799 0.0
C787 C 0.98953 0.60576 0.07149 0.0
C788 C 0.02212 0.56567 0.0665 0.0
C789 C 0.98471 0.53005 0.0685 0.0
C790 C 0.94973 0.53265 0.07162 0.0
C791 C 0.95205 0.56995 0.07303 0.0
C792 C 0.98183 0.48993 0.06805 0.0
C793 C 0.96665 0.46563 0.07875 0.0
C794 C 0.99427 0.47577 0.05739 0.0
C795 C 0.00933 0.49949 0.04571 0.0
C796 C 0.98566 0.51249 0.04022 0.0
C797 C 1.00014 0.53499 0.02924 0.0
C798 C 0.03814 0.54444 0.0236 0.0
C799 C 0.0617 0.53132 0.02892 0.0
C800 C 0.04737 0.50884 0.03991 0.0
C801 C 0.94059 0.30296 0.07441 0.0
C802 C 0.9767 0.30193 0.07168 0.0
C803 C 0.93966 0.33862 0.07273 0.0
C804 C 0.97495 0.37395 0.06845 0.0
C805 C 0.01017 0.37207 0.06494 0.0
C806 C 0.01104 0.33653 0.06653 0.0
C807 C 0.97638 0.41351 0.06847 0.0
C808 C 0.99148 0.43782 0.05774 0.0
C809 C 0.96436 0.42802 0.07916 0.0
C810 C 0.95137 0.40569 0.09109 0.0
C811 C 0.97716 0.39545 0.09658 0.0
C812 C 0.9646 0.37409 0.10778 0.0
C813 C 0.92646 0.36313 0.11363 0.0
C814 C 0.90085 0.37362 0.10831 0.0
C815 C 0.91324 0.39491 0.0971 0.0
H816 H 0.91679 0.3466 0.12229 0.0
H817 H 0.04929 0.56186 0.01509 0.0
H818 H 0.66611 0.0199 0.40306 0.0
H819 H 0.60423 0.01921 0.3989 0.0
H820 H 0.53481 0.89317 0.40844 0.0
H821 H 0.59728 0.89358 0.41282 0.0
H822 H 0.51139 0.92141 0.38648 0.0
H823 H 0.53441 0.94869 0.4295 0.0
H824 H 0.57606 0.98401 0.44662 0.0
H825 H 0.59515 0.09642 0.43282 0.0
H826 H 0.55412 0.06181 0.41549 0.0
H827 H 0.31912 0.9059 0.39874 0.0
H828 H 0.38175 0.90375 0.39775 0.0
H829 H 0.4496 0.03287 0.40007 0.0
H830 H 0.38621 0.03504 0.40165 0.0
H831 H 0.47513 1.0029 0.41536 0.0
H832 H 0.45144 0.97832 0.37296 0.0
H833 H 0.41276 0.94591 0.35505 0.0
H834 H 0.39778 0.83264 0.36636 0.0
H835 H 0.43592 0.86426 0.38444 0.0
C836 C 0.63788 0.99173 0.40412 0.0
C837 C 0.63668 0.9568 0.40839 0.0
C838 C 0.60247 0.99148 0.40173 0.0
C839 C 0.56492 0.95631 0.40348 0.0
C840 C 0.56358 0.92066 0.40703 0.0
C841 C 0.59925 0.92093 0.40953 0.0
C842 C 0.52728 0.95815 0.40254 0.0
C843 C 0.50297 0.93867 0.39288 0.0
C844 C 0.51726 0.98191 0.41064 0.0
C845 C 0.54152 1.00271 0.42113 0.0
C846 C 0.54776 0.98098 0.43006 0.0
C847 C 0.57121 1.00087 0.43981 0.0
C848 C 0.58833 0.04245 0.44079 0.0
C849 C 0.58192 0.06422 0.43204 0.0
C850 C 0.55854 0.04448 0.42226 0.0
C851 C 0.34735 0.93404 0.39883 0.0
C852 C 0.34755 0.97072 0.4003 0.0
C853 C 0.38336 0.93274 0.39818 0.0
C854 C 0.42074 0.96814 0.39869 0.0
C855 C 0.42121 0.00506 0.39966 0.0
C856 C 0.38497 0.00635 0.40048 0.0
C857 C 0.45866 0.9661 0.39925 0.0
C858 C 0.48325 0.98562 0.40888 0.0
C859 C 0.46909 0.94273 0.39102 0.0
C860 C 0.44626 0.92362 0.38012 0.0
C861 C 0.43965 0.94644 0.37168 0.0
C862 C 0.41786 0.92822 0.36149 0.0
C863 C 0.40274 0.88723 0.35959 0.0
C864 C 0.40948 0.86439 0.36785 0.0
C865 C 0.43123 0.88246 0.37807 0.0
H866 H 0.38587 0.87318 0.35169 0.0
H867 H 0.60648 0.05779 0.44834 0.0
H868 H 0.32968 0.44435 0.74597 0.0
H869 H 0.39506 0.50671 0.74392 0.0
H870 H 0.44911 0.44361 0.72437 0.0
H871 H 0.38424 0.3814 0.72644 0.0
H872 H 0.49213 0.48425 0.74294 0.0
H873 H 0.4352 0.51382 0.70995 0.0
H874 H 0.38469 0.52301 0.69997 0.0
H875 H 0.40013 0.6167 0.72513 0.0
H876 H 0.45025 0.60763 0.73539 0.0
H877 H 0.68703 0.65971 0.73376 0.0
H878 H 0.62295 0.59988 0.7294 0.0
H879 H 0.55656 0.6541 0.74695 0.0
H880 H 0.61977 0.71368 0.75103 0.0
H881 H 0.52144 0.61709 0.72741 0.0
H882 H 0.5705 0.58309 0.76187 0.0
H883 H 0.61961 0.57424 0.7728 0.0
H884 H 0.61713 0.48933 0.74592 0.0
H885 H 0.56835 0.49807 0.73474 0.0
C886 C 0.35526 0.44397 0.74098 0.0
C887 C 0.35168 0.4078 0.73642 0.0
C888 C 0.39269 0.47968 0.73982 0.0
C889 C 0.42718 0.47994 0.734 0.0
C890 C 0.4231 0.44422 0.72894 0.0
C891 C 0.38583 0.40864 0.7301 0.0
C892 C 0.46808 0.51639 0.73405 0.0
C893 C 0.4987 0.51313 0.73932 0.0
C894 C 0.47653 0.55439 0.72964 0.0
C895 C 0.44621 0.55975 0.72352 0.0
C896 C 0.42754 0.53611 0.71343 0.0
C897 C 0.39903 0.54135 0.70771 0.0
C898 C 0.38912 0.57034 0.71193 0.0
C899 C 0.40778 0.59421 0.72188 0.0
C900 C 0.43626 0.58904 0.72765 0.0
C901 C 0.65875 0.65891 0.73659 0.0
C902 C 0.65862 0.69135 0.74285 0.0
C903 C 0.62211 0.62464 0.73414 0.0
C904 C 0.58472 0.62214 0.73799 0.0
C905 C 0.5848 0.65511 0.74388 0.0
C906 C 0.62117 0.68918 0.74628 0.0
C907 C 0.54532 0.58495 0.73638 0.0
C908 C 0.51496 0.58807 0.73087 0.0
C909 C 0.53686 0.54685 0.7407 0.0
C910 C 0.5662 0.5416 0.74739 0.0
C911 C 0.58069 0.56278 0.75824 0.0
C912 C 0.60841 0.55774 0.76448 0.0
C913 C 0.62159 0.53134 0.76003 0.0
C914 C 0.60697 0.50984 0.74934 0.0
C915 C 0.57928 0.51481 0.74305 0.0
H916 H 0.64304 0.52746 0.76488 0.0
H917 H 0.36707 0.57437 0.70748 0.0
H918 H 0.34599 0.07462 0.60029 0.0
H919 H 0.40871 0.07853 0.60531 0.0
H920 H 0.3448 0.95159 0.61377 0.0
H921 H 0.28114 0.94734 0.60875 0.0
H922 H 0.4045 0.99834 0.63033 0.0
H923 H 0.39421 0.98135 0.58665 0.0
H924 H 0.38363 0.99723 0.56599 0.0
H925 H 0.48568 0.11603 0.56763 0.0
H926 H 0.4965 0.10104 0.58839 0.0
H927 H 0.57076 0.96272 0.62207 0.0
H928 H 0.50806 0.96505 0.623 0.0
H929 H 0.57407 0.08758 0.60945 0.0
H930 H 0.6372 0.08509 0.6082 0.0
H931 H 0.51314 0.04476 0.59619 0.0
H932 H 0.52638 0.06158 0.63933 0.0
H933 H 0.53709 0.04681 0.66011 0.0
H934 H 0.43089 0.93038 0.65983 0.0
H935 H 0.41982 0.94421 0.63897 0.0
C936 C 0.34501 0.04744 0.60329 0.0
C937 C 0.30858 0.01048 0.60394 0.0
C938 C 0.381 0.04981 0.60617 0.0
C939 C 0.3816 0.01528 0.60972 0.0
C940 C 0.345 0.97859 0.611 0.0
C941 C 0.30871 0.97617 0.60811 0.0
C942 C 0.42094 0.01751 0.61133 0.0
C943 C 0.42814 0.00798 0.62285 0.0
C944 C 0.45216 0.03122 0.60165 0.0
C945 C 0.44592 0.04019 0.58912 0.0
C946 C 0.4142 0.01096 0.58264 0.0
C947 C 0.40819 0.01979 0.57091 0.0
C948 C 0.4339 0.05765 0.56551 0.0
C949 C 0.46576 0.08673 0.57182 0.0
C950 C 0.47186 0.07808 0.58357 0.0
C951 C 0.5722 0.99054 0.61954 0.0
C952 C 0.60905 0.02369 0.61499 0.0
C953 C 0.53619 0.99187 0.62014 0.0
C954 C 0.53616 0.02652 0.61633 0.0
C955 C 0.57326 0.06045 0.61242 0.0
C956 C 0.6094 0.05911 0.61179 0.0
C957 C 0.49711 0.02574 0.61524 0.0
C958 C 0.48979 0.03539 0.60376 0.0
C959 C 0.46596 0.01227 0.62497 0.0
C960 C 0.47247 0.00382 0.63753 0.0
C961 C 0.50548 0.03269 0.64365 0.0
C962 C 0.51158 0.02451 0.65546 0.0
C963 C 0.48474 0.98765 0.66128 0.0
C964 C 0.45167 0.95891 0.65531 0.0
C965 C 0.44545 0.96693 0.6435 0.0
H966 H 0.48951 0.98137 0.67042 0.0
H967 H 0.4292 0.06442 0.55642 0.0
H968 H 0.33111 0.33227 0.94204 0.0
H969 H 0.39323 0.39532 0.94439 0.0
H970 H 0.46376 0.33861 0.93328 0.0
H971 H 0.40111 0.27476 0.93066 0.0
H972 H 0.49152 0.39529 0.95432 0.0
H973 H 0.45741 0.38804 0.91251 0.0
H974 H 0.41206 0.37692 0.89623 0.0
H975 H 0.39305 0.47241 0.91024 0.0
H976 H 0.43784 0.48369 0.92673 0.0
H977 H 0.67879 0.56844 0.93747 0.0
H978 H 0.61679 0.504 0.93929 0.0
H979 H 0.54634 0.56403 0.94121 0.0
H980 H 0.609 0.62933 0.93899 0.0
H981 H 0.51738 0.50494 0.92545 0.0
H982 H 0.55361 0.51468 0.96675 0.0
H983 H 0.59854 0.52596 0.98318 0.0
H984 H 0.61295 0.42644 0.97063 0.0
H985 H 0.56855 0.41489 0.95401 0.0
C986 C 0.35971 0.33279 0.94023 0.0
C987 C 0.36106 0.29837 0.93605 0.0
C988 C 0.39525 0.36902 0.94158 0.0
C989 C 0.43307 0.37178 0.93888 0.0
C990 C 0.43478 0.33706 0.93539 0.0
C991 C 0.399 0.30063 0.93391 0.0
C992 C 0.4704 0.41163 0.939 0.0
C993 C 0.49759 0.41917 0.94792 0.0
C994 C 0.47754 0.44306 0.93087 0.0
C995 C 0.45065 0.43642 0.92094 0.0
C996 C 0.44325 0.40641 0.91219 0.0
C997 C 0.41772 0.40013 0.90291 0.0
C998 C 0.3996 0.42387 0.90222 0.0
C999 C 0.40706 0.454 0.9108 0.0
C1000 C 0.43255 0.46037 0.92011 0.0
C1001 C 0.65019 0.56818 0.93844 0.0
C1002 C 0.64895 0.60421 0.93807 0.0
C1003 C 0.61461 0.5311 0.93956 0.0
C1004 C 0.57668 0.52891 0.94054 0.0
C1005 C 0.57522 0.56488 0.9405 0.0
C1006 C 0.61104 0.60222 0.93931 0.0
C1007 C 0.53893 0.48898 0.94081 0.0
C1008 C 0.51148 0.4813 0.93193 0.0
C1009 C 0.53154 0.45751 0.94902 0.0
C1010 C 0.55798 0.46413 0.95907 0.0
C1011 C 0.56657 0.49536 0.96744 0.0
C1012 C 0.59192 0.50178 0.97679 0.0
C1013 C 0.60867 0.47699 0.97793 0.0
C1014 C 0.59999 0.44564 0.96973 0.0
C1015 C 0.57468 0.43911 0.96035 0.0
H1016 H 0.6283 0.48203 0.98517 0.0
H1017 H 0.37986 0.41898 0.89502 0.0
H1018 H 0.06863 0.65055 0.26713 0.0
H1019 H 0.0756 0.59204 0.27071 0.0
H1020 H 0.94688 0.52091 0.27981 0.0
H1021 H 0.93954 0.57999 0.27625 0.0
H1022 H 0.9933 0.50404 0.29515 0.0
H1023 H 0.98343 0.51499 0.25187 0.0
H1024 H 1.0018 0.54988 0.2317 0.0
H1025 H 0.12316 0.57098 0.23213 0.0
H1026 H 0.10566 0.53674 0.2524 0.0
H1027 H 0.96748 0.31058 0.28409 0.0
H1028 H 0.9671 0.37359 0.28575 0.0
H1029 H 0.092 0.43749 0.27107 0.0
H1030 H 0.09211 0.37366 0.26895 0.0
H1031 H 0.05014 0.46024 0.25931 0.0
H1032 H 0.05982 0.44613 0.30203 0.0
H1033 H 0.04203 0.41157 0.32224 0.0
H1034 H 0.92274 0.39675 0.32317 0.0
H1035 H 0.93962 0.43076 0.30289 0.0
C1036 C 0.04169 0.6226 0.26998 0.0
C1037 C 0.00337 0.61985 0.27124 0.0
C1038 C 0.0458 0.58912 0.27202 0.0
C1039 C 0.01173 0.55191 0.27533 0.0
C1040 C 0.97359 0.54934 0.27722 0.0
C1041 C 0.96941 0.58306 0.27517 0.0
C1042 C 0.01607 0.51556 0.2761 0.0
C1043 C 0.00527 0.4941 0.2873 0.0
C1044 C 0.03282 0.50331 0.26594 0.0
C1045 C 0.04333 0.52365 0.25371 0.0
C1046 C 0.01412 0.52735 0.24771 0.0
C1047 C 0.02436 0.54696 0.23625 0.0
C1048 C 0.06365 0.56273 0.23065 0.0
C1049 C 0.09275 0.55881 0.23648 0.0
C1050 C 0.08268 0.53927 0.24795 0.0
C1051 C 0.99523 0.33805 0.28141 0.0
C1052 C 0.02985 0.33698 0.27634 0.0
C1053 C 0.995 0.37427 0.28245 0.0
C1054 C 0.02959 0.4106 0.27865 0.0
C1055 C 0.06488 0.4099 0.27409 0.0
C1056 C 0.06505 0.37343 0.27296 0.0
C1057 C 0.02745 0.44841 0.27841 0.0
C1058 C 0.03852 0.47019 0.26725 0.0
C1059 C 0.01109 0.46095 0.28863 0.0
C1060 C 1.00092 0.44076 0.30089 0.0
C1061 C 0.02971 0.43528 0.30651 0.0
C1062 C 0.0198 0.41582 0.31798 0.0
C1063 C 0.98125 0.4019 0.32397 0.0
C1064 C 0.95258 0.40753 0.31851 0.0
C1065 C 0.96232 0.42696 0.30704 0.0
H1066 H 0.97363 0.38681 0.33285 0.0
H1067 H 0.07152 0.57791 0.22178 0.0
H1068 H 0.07317 0.13523 0.07124 0.0
H1069 H 0.06227 0.06786 0.06768 0.0
H1070 H 0.93319 0.02114 0.07037 0.0
H1071 H 0.94391 0.08906 0.07415 0.0
H1072 H 0.95394 0.97929 0.08485 0.0
H1073 H 0.9852 0.02463 0.04294 0.0
H1074 H 0.02529 0.07212 0.02581 0.0
H1075 H 0.127 0.05729 0.03159 0.0
H1076 H 0.08783 0.01034 0.04893 0.0
H1077 H 0.90666 0.78304 0.07208 0.0
H1078 H 0.91499 0.84937 0.06884 0.0
H1079 H 0.04474 0.90125 0.06679 0.0
H1080 H 0.03648 0.83406 0.06974 0.0
H1081 H 0.0216 0.93978 0.05088 0.0
H1082 H 0.9941 0.901 0.09365 0.0
H1083 H 0.95663 0.85636 0.1116 0.0
H1084 H 0.85015 0.86128 0.10463 0.0
H1085 H 0.88684 0.90551 0.08652 0.0
C1086 C 0.04237 0.11079 0.07095 0.0
C1087 C 0.00935 0.11757 0.07307 0.0
C1088 C 0.03623 0.07221 0.06881 0.0
C1089 C 0.99694 0.03936 0.06867 0.0
C1090 C 0.96382 0.04607 0.07041 0.0
C1091 C 0.96997 0.0849 0.07251 0.0
C1092 C 0.99074 0.99792 0.06763 0.0
C1093 C 0.96801 0.97041 0.07727 0.0
C1094 C 0.01029 0.98674 0.05797 0.0
C1095 C 0.03362 0.01413 0.04731 0.0
C1096 C 0.01619 0.03165 0.04061 0.0
C1097 C 0.03876 0.05849 0.03086 0.0
C1098 C 0.07869 0.06777 0.02763 0.0
C1099 C 0.09607 0.05009 0.03411 0.0
C1100 C 0.07368 0.02333 0.0439 0.0
C1101 C 0.93706 0.80844 0.07075 0.0
C1102 C 0.97095 0.80342 0.07134 0.0
C1103 C 0.94175 0.8464 0.06891 0.0
C1104 C 0.98044 0.88048 0.06787 0.0
C1105 C 0.01455 0.87539 0.06764 0.0
C1106 C 0.00985 0.83705 0.06933 0.0
C1107 C 0.98466 0.92125 0.06807 0.0
C1108 C 0.00716 0.9486 0.05835 0.0
C1109 C 0.96516 0.93257 0.07771 0.0
C1110 C 0.94311 0.90624 0.08866 0.0
C1111 C 0.96261 0.89233 0.0959 0.0
C1112 C 0.94153 0.86714 0.1061 0.0
C1113 C 0.90101 0.85591 0.10924 0.0
C1114 C 0.88152 0.86995 0.10218 0.0
C1115 C 0.90245 0.89511 0.09195 0.0
H1116 H 0.88473 0.83639 0.11714 0.0
H1117 H 0.09613 0.08861 0.02009 0.0
H1118 H 0.90048 0.05386 0.41291 0.0
H1119 H 0.95811 0.04402 0.40781 0.0
H1120 H 0.87743 0.91881 0.40117 0.0
H1121 H 0.81893 0.9283 0.40653 0.0
H1122 H 0.93495 0.92763 0.41527 0.0
H1123 H 0.93472 0.98609 0.37726 0.0
H1124 H 0.93299 0.03557 0.36372 0.0
H1125 H 0.04429 0.12843 0.37657 0.0
H1126 H 0.04641 0.07963 0.39032 0.0
H1127 H 0.09288 0.89181 0.39582 0.0
H1128 H 0.03492 0.90127 0.39393 0.0
H1129 H 0.10684 0.02618 0.40288 0.0
H1130 H 0.16564 0.01696 0.4045 0.0
H1131 H 0.05211 0.01481 0.38605 0.0
H1132 H 0.04865 0.95787 0.42528 0.0
H1133 H 0.05067 0.90883 0.43896 0.0
H1134 H 0.94571 0.81343 0.42379 0.0
H1135 H 0.94342 0.86187 0.40989 0.0
C1136 C 0.89471 0.02417 0.41028 0.0
C1137 C 0.85482 0.99182 0.41017 0.0
C1138 C 0.92792 0.01869 0.40726 0.0
C1139 C 0.92232 0.98081 0.40393 0.0
C1140 C 0.88257 0.94841 0.40365 0.0
C1141 C 0.84913 0.95389 0.40668 0.0
C1142 C 0.95808 0.97488 0.40155 0.0
C1143 C 0.96013 0.94614 0.40868 0.0
C1144 C 0.99161 0.99977 0.3932 0.0
C1145 C 0.99055 0.02922 0.3849 0.0
C1146 C 0.95868 0.01712 0.37727 0.0
C1147 C 0.95765 0.04504 0.36954 0.0
C1148 C 0.98847 0.08513 0.3693 0.0
C1149 C 0.02043 0.09737 0.37677 0.0
C1150 C 0.02159 0.06957 0.38452 0.0
C1151 C 0.09665 0.92154 0.39713 0.0
C1152 C 0.13367 0.95357 0.40046 0.0
C1153 C 0.06341 0.92687 0.39609 0.0
C1154 C 0.06614 0.96416 0.39859 0.0
C1155 C 0.10393 0.99704 0.40099 0.0
C1156 C 0.13755 0.99181 0.40189 0.0
C1157 C 0.02882 0.96768 0.39979 0.0
C1158 C 0.02662 0.99603 0.39251 0.0
C1159 C 0.99508 0.94251 0.40802 0.0
C1160 C 0.99611 0.91342 0.41647 0.0
C1161 C 0.02616 0.92639 0.42481 0.0
C1162 C 0.02734 0.89872 0.43261 0.0
C1163 C 0.9984 0.85803 0.43222 0.0
C1164 C 0.96814 0.84495 0.42406 0.0
C1165 C 0.96687 0.8725 0.41623 0.0
H1166 H 0.99937 0.83664 0.43826 0.0
H1167 H 0.98761 0.1067 0.36331 0.0
H1168 H 0.17486 0.15233 0.73106 0.0
H1169 H 0.10653 0.09672 0.72962 0.0
H1170 H 0.05795 0.1738 0.74113 0.0
H1171 H 0.12702 0.23001 0.7428 0.0
H1172 H 0.02222 0.10544 0.75456 0.0
H1173 H 0.05157 0.1372 0.71151 0.0
H1174 H 0.09211 0.15244 0.69152 0.0
H1175 H 0.08355 0.03663 0.69217 0.0
H1176 H 0.04351 0.0209 0.71226 0.0
H1177 H 0.82171 0.95333 0.75016 0.0
H1178 H 0.88575 0.0151 0.74579 0.0
H1179 H 0.94283 0.94611 0.73345 0.0
H1180 H 0.878 0.8837 0.73751 0.0
H1181 H 0.97252 0.013 0.7195 0.0
H1182 H 0.95076 0.98369 0.76287 0.0
H1183 H 0.91321 0.96771 0.78337 0.0
H1184 H 0.91069 0.07826 0.78252 0.0
H1185 H 0.94776 0.09464 0.76192 0.0
C1186 C 0.14973 0.15775 0.73314 0.0
C1187 C 0.15642 0.19562 0.73715 0.0
C1188 C 0.11055 0.12586 0.73221 0.0
C1189 C 0.0769 0.13093 0.73519 0.0
C1190 C 0.08344 0.16914 0.73875 0.0
C1191 C 0.12289 0.20132 0.73963 0.0
C1192 C 0.03524 0.09543 0.73562 0.0
C1193 C 0.01101 0.08578 0.74679 0.0
C1194 C 0.0211 0.06883 0.72563 0.0
C1195 C 0.04468 0.07795 0.71344 0.0
C1196 C 0.0585 0.11504 0.70743 0.0
C1197 C 0.08137 0.12376 0.69607 0.0
C1198 C 0.09034 0.0955 0.69057 0.0
C1199 C 0.07645 0.05844 0.69642 0.0
C1200 C 0.05365 0.0496 0.70779 0.0
C1201 C 0.84774 0.95116 0.7464 0.0
C1202 C 0.8448 0.91347 0.74432 0.0
C1203 C 0.88447 0.98663 0.74394 0.0
C1204 C 0.91951 0.98541 0.73957 0.0
C1205 C 0.91631 0.94789 0.73689 0.0
C1206 C 0.87925 0.91221 0.73922 0.0
C1207 C 0.95959 0.02316 0.73844 0.0
C1208 C 0.98356 0.03303 0.7272 0.0
C1209 C 0.97381 0.04989 0.7484 0.0
C1210 C 0.95166 0.04018 0.7608 0.0
C1211 C 0.94193 0.00445 0.76702 0.0
C1212 C 0.92078 0.99534 0.77866 0.0
C1213 C 0.90948 0.0219 0.78423 0.0
C1214 C 0.91941 0.05768 0.77818 0.0
C1215 C 0.94051 0.06691 0.76653 0.0
H1216 H 0.8931 0.0148 0.79324 0.0
H1217 H 0.10815 0.10236 0.6818 0.0
H1218 H 0.81844 0.05031 0.62105 0.0
H1219 H 0.88706 0.0627 0.62368 0.0
H1220 H 0.85962 0.95261 0.60492 0.0
H1221 H 0.79172 0.93943 0.60277 0.0
H1222 H 0.90201 0.95818 0.62215 0.0
H1223 H 0.91273 0.0513 0.59056 0.0
H1224 H 0.90579 0.1071 0.58269 0.0
H1225 H 0.98164 0.18515 0.60976 0.0
H1226 H 0.98865 0.12962 0.61787 0.0
H1227 H 0.10779 0.05348 0.58291 0.0
H1228 H 0.04272 0.04804 0.58931 0.0
H1229 H 0.04693 0.00794 0.62551 0.0
H1230 H 0.11179 0.01149 0.61883 0.0
H1231 H 0.01908 0.08391 0.60456 0.0
H1232 H 0.95058 0.95084 0.63881 0.0
H1233 H 0.9552 0.89059 0.64331 0.0
H1234 H 0.99131 0.88492 0.60525 0.0
H1235 H 0.98649 0.94484 0.60051 0.0
C1236 C 0.82707 0.02867 0.61761 0.0
C1237 C 0.79954 0.99404 0.61163 0.0
C1238 C 0.86633 0.0358 0.61908 0.0
C1239 C 0.87887 0.00878 0.61439 0.0
C1240 C 0.85092 0.97387 0.60872 0.0
C1241 C 0.8119 0.96651 0.60741 0.0
C1242 C 0.92134 0.01695 0.61461 0.0
C1243 C 0.92767 0.98591 0.61842 0.0
C1244 C 0.95504 0.05297 0.60975 0.0
C1245 C 0.95075 0.08625 0.60492 0.0
C1246 C 0.92767 0.0803 0.59488 0.0
C1247 C 0.92377 0.11187 0.59037 0.0
C1248 C 0.94314 0.1496 0.59575 0.0
C1249 C 0.96656 0.15588 0.60563 0.0
C1250 C 0.97051 0.12438 0.61018 0.0
C1251 C 0.09483 0.04328 0.59223 0.0
C1252 C 0.11484 0.03271 0.60035 0.0
C1253 C 0.05763 0.04045 0.59592 0.0
C1254 C 0.03958 0.02756 0.60791 0.0
C1255 C 0.05974 0.01736 0.61614 0.0
C1256 C 0.09681 0.01939 0.61234 0.0
C1257 C 0.99934 0.02425 0.61144 0.0
C1258 C 0.99358 0.05645 0.60851 0.0
C1259 C 0.96585 0.98866 0.61664 0.0
C1260 C 0.96873 0.95259 0.61936 0.0
C1261 C 0.95948 0.93668 0.63141 0.0
C1262 C 0.96212 0.9026 0.634 0.0
C1263 C 0.97372 0.88405 0.62458 0.0
C1264 C 0.98252 0.89942 0.61255 0.0
C1265 C 0.97988 0.93346 0.60991 0.0
H1266 H 0.97576 0.85768 0.62661 0.0
H1267 H 0.9401 0.17401 0.59225 0.0
H1268 H 0.91107 0.78527 0.93646 0.0
H1269 H 0.96657 0.85188 0.94022 0.0
H1270 H 0.88336 0.89758 0.94412 0.0
H1271 H 0.82704 0.83017 0.94021 0.0
H1272 H 0.94767 0.94268 0.9281 0.0
H1273 H 0.9302 0.89187 0.96878 0.0
H1274 H 0.92167 0.84398 0.98496 0.0
H1275 H 0.03827 0.85808 0.97321 0.0
H1276 H 0.04725 0.90555 0.9568 0.0
H1277 H 0.10033 0.13626 0.94117 0.0
H1278 H 0.04071 0.07016 0.94441 0.0
H1279 H 0.11527 0.01502 0.93854 0.0
H1280 H 0.17579 0.08174 0.93537 0.0
H1281 H 0.0529 0.97612 0.95713 0.0
H1282 H 0.06681 0.02078 0.91531 0.0
H1283 H 0.07555 0.06812 0.89891 0.0
H1284 H 0.96499 0.0643 0.91278 0.0
H1285 H 0.95589 0.01734 0.92938 0.0
C1286 C 0.90432 0.80931 0.93829 0.0
C1287 C 0.86462 0.80247 0.93795 0.0
C1288 C 0.93618 0.84743 0.94054 0.0
C1289 C 0.92929 0.87986 0.94253 0.0
C1290 C 0.88941 0.87297 0.94264 0.0
C1291 C 0.85722 0.83446 0.94048 0.0
C1292 C 0.96441 0.9212 0.94337 0.0
C1293 C 0.97015 0.95021 0.93465 0.0
C1294 C 0.99455 0.93076 0.95164 0.0
C1295 C 0.9893 0.90216 0.9615 0.0
C1296 C 0.95391 0.88455 0.96957 0.0
C1297 C 0.94902 0.85752 0.9788 0.0
C1298 C 0.97945 0.84808 0.98013 0.0
C1299 C 0.01478 0.86554 0.9722 0.0
C1300 C 0.0198 0.89253 0.96293 0.0
C1301 C 0.10433 0.11021 0.94069 0.0
C1302 C 0.14294 0.11439 0.93784 0.0
C1303 C 0.07006 0.07233 0.94254 0.0
C1304 C 0.07331 0.03752 0.94149 0.0
C1305 C 0.112 0.04148 0.93934 0.0
C1306 C 0.14657 0.07962 0.93753 0.0
C1307 C 0.03601 0.99731 0.94184 0.0
C1308 C 0.03006 0.96859 0.95071 0.0
C1309 C 0.00562 0.98784 0.93368 0.0
C1310 C 0.0109 0.01589 0.92367 0.0
C1311 C 0.04453 0.03028 0.91492 0.0
C1312 C 0.04952 0.057 0.90558 0.0
C1313 C 0.0209 0.0693 0.90482 0.0
C1314 C 0.98716 0.0548 0.91339 0.0
C1315 C 0.98206 0.02811 0.92276 0.0
H1316 H 0.02482 0.08999 0.89758 0.0
H1317 H 0.97562 0.82718 0.98729 0.0
H1318 H 0.08229 0.87977 0.26377 0.0
H1319 H 0.0738 0.93735 0.26884 0.0
H1320 H 0.9491 0.8582 0.28169 0.0
H1321 H 0.95739 0.79969 0.27655 0.0
H1322 H 0.95796 0.91677 0.26577 0.0
H1323 H 0.01704 0.91277 0.3021 0.0
H1324 H 0.06658 0.90869 0.31422 0.0
H1325 H 0.16164 0.01875 0.29741 0.0
H1326 H 0.11279 0.02321 0.28505 0.0
H1327 H 0.93028 0.07895 0.28325 0.0
H1328 H 0.9359 0.01886 0.28542 0.0
H1329 H 0.06306 0.08634 0.27346 0.0
H1330 H 0.05779 0.14722 0.27155 0.0
H1331 H 0.04897 0.03087 0.29092 0.0
H1332 H 0.99265 0.03101 0.25311 0.0
H1333 H 0.9446 0.03528 0.24032 0.0
H1334 H 0.84589 0.93229 0.25932 0.0
H1335 H 0.89333 0.92775 0.27235 0.0
C1336 C 0.05303 0.87437 0.26777 0.0
C1337 C 0.02042 0.83497 0.2697 0.0
C1338 C 0.04835 0.90749 0.27075 0.0
C1339 C 0.01095 0.90224 0.27576 0.0
C1340 C 0.97833 0.86298 0.27789 0.0
C1341 C 0.98311 0.82958 0.27498 0.0
C1342 C 0.00575 0.93798 0.27793 0.0
C1343 C 0.97722 0.9413 0.27151 0.0
C1344 C 0.03175 0.9706 0.28511 0.0
C1345 C 0.06125 0.96816 0.29258 0.0
C1346 C 0.04856 0.93596 0.30091 0.0
C1347 C 0.07651 0.9336 0.30784 0.0
C1348 C 0.11724 0.9634 0.30657 0.0
C1349 C 0.13008 0.99568 0.29838 0.0
C1350 C 0.10226 0.99816 0.29142 0.0
C1351 C 0.95965 0.08124 0.28127 0.0
C1352 C 0.99353 0.11778 0.27708 0.0
C1353 C 0.96277 0.04675 0.28247 0.0
C1354 C 0.99965 0.04772 0.27929 0.0
C1355 C 0.03419 0.08475 0.27588 0.0
C1356 C 0.03119 0.11956 0.27482 0.0
C1357 C 1.00132 0.00968 0.2787 0.0
C1358 C 0.02931 0.00606 0.28534 0.0
C1359 C 0.97502 0.97679 0.27165 0.0
C1360 C 0.94648 0.97931 0.26378 0.0
C1361 C 0.96066 0.00946 0.25461 0.0
C1362 C 0.93355 0.0119 0.24732 0.0
C1363 C 0.89221 0.98415 0.24903 0.0
C1364 C 0.87791 0.95381 0.25802 0.0
C1365 C 0.9049 0.95128 0.26536 0.0
H1366 H 0.87126 0.98609 0.24337 0.0
H1367 H 0.13884 0.96152 0.31194 0.0
loop_
_geom_bond_atom_site_label_1
_geom_bond_atom_site_label_2
_geom_bond_distance
_geom_bond_site_symmetry_2
_ccdc_geom_bond_type
O0 Cd1 2.223 . S
O0 C8 1.315 1_655 S
Cd1 O0 2.223 . S
Cd1 O4 2.297 . S
Cd1 O5 2.439 . S
Cd1 O11 2.240 . S
Cd2 O3 2.240 . S
Cd2 O10 2.223 . S
Cd2 O12 2.297 . S
Cd2 O13 2.439 . S
O3 Cd2 2.240 . S
O3 C8 1.279 . S
O4 Cd1 2.297 . S
O4 C6 1.247 . S
O5 Cd1 2.439 . S
O5 C6 1.208 . S
C6 O4 1.247 . S
C6 O5 1.208 . S
C7 O12 1.247 . S
C7 O13 1.208 . S
C8 O0 1.315 1_455 S
C8 O3 1.279 . S
C9 O10 1.315 1_655 S
C9 O11 1.279 . S
O10 Cd2 2.223 . S
O10 C9 1.315 1_455 S
O11 Cd1 2.240 . S
O11 C9 1.279 . S
O12 Cd2 2.297 . S
O12 C7 1.247 . S
O13 Cd2 2.439 . S
O13 C7 1.208 . S
O14 Cd15 2.223 . S
O14 C22 1.315 1_565 S
Cd15 O14 2.223 . S
Cd15 O18 2.297 . S
Cd15 O19 2.439 . S
Cd15 O25 2.240 . S
Cd16 O17 2.240 . S
Cd16 O24 2.223 . S
Cd16 O26 2.297 . S
Cd16 O27 2.439 . S
O17 Cd16 2.240 . S
O17 C22 1.279 . S
O18 Cd15 2.297 . S
O18 C20 1.247 . S
O19 Cd15 2.439 . S
O19 C20 1.208 . S
C20 O18 1.247 . S
C20 O19 1.208 . S
C21 O26 1.247 . S
C21 O27 1.208 . S
C22 O14 1.315 1_545 S
C22 O17 1.279 . S
C23 O24 1.315 1_565 S
C23 O25 1.279 . S
O24 Cd16 2.223 . S
O24 C23 1.315 1_545 S
O25 Cd15 2.240 . S
O25 C23 1.279 . S
O26 Cd16 2.297 . S
O26 C21 1.247 . S
O27 Cd16 2.439 . S
O27 C21 1.208 . S
O28 Cd29 2.223 . S
O28 C36 1.315 . S
Cd29 O28 2.223 . S
Cd29 O32 2.297 . S
Cd29 O33 2.439 . S
Cd29 O39 2.240 . S
Cd30 O31 2.240 . S
Cd30 O38 2.223 . S
Cd30 O40 2.297 . S
Cd30 O41 2.439 . S
O31 Cd30 2.240 . S
O31 C36 1.279 . S
O32 Cd29 2.297 . S
O32 C34 1.247 . S
O33 Cd29 2.439 . S
O33 C34 1.208 . S
C34 O32 1.247 . S
C34 O33 1.208 . S
C35 O40 1.247 . S
C35 O41 1.208 . S
C36 O28 1.315 . S
C36 O31 1.279 . S
C37 O38 1.315 . S
C37 O39 1.279 . S
O38 Cd30 2.223 . S
O38 C37 1.315 . S
O39 Cd29 2.240 . S
O39 C37 1.279 . S
O40 Cd30 2.297 . S
O40 C35 1.247 . S
O41 Cd30 2.439 . S
O41 C35 1.208 . S
O42 Cd43 2.223 . S
O42 C50 1.315 . S
Cd43 O42 2.223 . S
Cd43 O46 2.297 . S
Cd43 O47 2.439 . S
Cd43 O53 2.240 . S
Cd44 O45 2.240 . S
Cd44 O52 2.223 . S
Cd44 O54 2.297 . S
Cd44 O55 2.439 . S
O45 Cd44 2.240 . S
O45 C50 1.279 . S
O46 Cd43 2.297 . S
O46 C48 1.247 . S
O47 Cd43 2.439 . S
O47 C48 1.208 . S
C48 O46 1.247 . S
C48 O47 1.208 . S
C49 O54 1.247 . S
C49 O55 1.208 . S
C50 O42 1.315 . S
C50 O45 1.279 . S
C51 O52 1.315 . S
C51 O53 1.279 . S
O52 Cd44 2.223 . S
O52 C51 1.315 . S
O53 Cd43 2.240 . S
O53 C51 1.279 . S
O54 Cd44 2.297 . S
O54 C49 1.247 . S
O55 Cd44 2.439 . S
O55 C49 1.208 . S
O56 Cd57 2.223 . S
O56 C64 1.315 . S
Cd57 O56 2.223 . S
Cd57 O60 2.297 . S
Cd57 O61 2.439 . S
Cd57 O67 2.240 . S
Cd58 O59 2.240 . S
Cd58 O66 2.223 . S
Cd58 O68 2.297 . S
Cd58 O69 2.439 . S
O59 Cd58 2.240 . S
O59 C64 1.279 . S
O60 Cd57 2.297 . S
O60 C62 1.247 . S
O61 Cd57 2.439 . S
O61 C62 1.208 . S
C62 O60 1.247 . S
C62 O61 1.208 . S
C63 O68 1.247 . S
C63 O69 1.208 . S
C64 O56 1.315 . S
C64 O59 1.279 . S
C65 O66 1.315 . S
C65 O67 1.279 . S
O66 Cd58 2.223 . S
O66 C65 1.315 . S
O67 Cd57 2.240 . S
O67 C65 1.279 . S
O68 Cd58 2.297 . S
O68 C63 1.247 . S
O69 Cd58 2.439 . S
O69 C63 1.208 . S
O70 Cd71 2.223 . S
O70 C78 1.315 . S
Cd71 O70 2.223 . S
Cd71 O74 2.297 . S
Cd71 O75 2.439 . S
Cd71 O81 2.240 . S
Cd72 O73 2.240 . S
Cd72 O80 2.223 . S
Cd72 O82 2.297 . S
Cd72 O83 2.439 . S
O73 Cd72 2.240 . S
O73 C78 1.279 . S
O74 Cd71 2.297 . S
O74 C76 1.247 . S
O75 Cd71 2.439 . S
O75 C76 1.208 . S
C76 O74 1.247 . S
C76 O75 1.208 . S
C77 O82 1.247 . S
C77 O83 1.208 . S
C78 O70 1.315 . S
C78 O73 1.279 . S
C79 O80 1.315 . S
C79 O81 1.279 . S
O80 Cd72 2.223 . S
O80 C79 1.315 . S
O81 Cd71 2.240 . S
O81 C79 1.279 . S
O82 Cd72 2.297 . S
O82 C77 1.247 . S
O83 Cd72 2.439 . S
O83 C77 1.208 . S
O84 Cd85 2.223 . S
O84 C92 1.315 1_545 S
Cd85 O84 2.223 . S
Cd85 O88 2.297 . S
Cd85 O89 2.439 . S
Cd85 O95 2.240 . S
Cd86 O87 2.240 . S
Cd86 O94 2.223 . S
Cd86 O96 2.297 . S
Cd86 O97 2.439 . S
O87 Cd86 2.240 . S
O87 C92 1.279 . S
O88 Cd85 2.297 . S
O88 C90 1.247 . S
O89 Cd85 2.439 . S
O89 C90 1.208 . S
C90 O88 1.247 . S
C90 O89 1.208 . S
C91 O96 1.247 . S
C91 O97 1.208 . S
C92 O84 1.315 1_565 S
C92 O87 1.279 . S
C93 O94 1.315 1_545 S
C93 O95 1.279 . S
O94 Cd86 2.223 . S
O94 C93 1.315 1_565 S
O95 Cd85 2.240 . S
O95 C93 1.279 . S
O96 Cd86 2.297 . S
O96 C91 1.247 . S
O97 Cd86 2.439 . S
O97 C91 1.208 . S
O98 Cd99 2.223 . S
O98 C106 1.315 . S
Cd99 O98 2.223 . S
Cd99 O102 2.297 . S
Cd99 O103 2.439 . S
Cd99 O109 2.240 . S
Cd100 O101 2.240 . S
Cd100 O108 2.223 . S
Cd100 O110 2.297 . S
Cd100 O111 2.439 . S
O101 Cd100 2.240 . S
O101 C106 1.279 . S
O102 Cd99 2.297 . S
O102 C104 1.247 . S
O103 Cd99 2.439 . S
O103 C104 1.208 . S
C104 O102 1.247 . S
C104 O103 1.208 . S
C105 O110 1.247 . S
C105 O111 1.208 . S
C106 O98 1.315 . S
C106 O101 1.279 . S
C107 O108 1.315 . S
C107 O109 1.279 . S
O108 Cd100 2.223 . S
O108 C107 1.315 . S
O109 Cd99 2.240 . S
O109 C107 1.279 . S
O110 Cd100 2.297 . S
O110 C105 1.247 . S
O111 Cd100 2.439 . S
O111 C105 1.208 . S
O112 Cd113 2.223 . S
O112 C120 1.315 . S
Cd113 O112 2.223 . S
Cd113 O116 2.297 . S
Cd113 O117 2.439 . S
Cd113 O123 2.240 . S
Cd114 O115 2.240 . S
Cd114 O122 2.223 . S
Cd114 O124 2.297 . S
Cd114 O125 2.439 . S
O115 Cd114 2.240 . S
O115 C120 1.279 . S
O116 Cd113 2.297 . S
O116 C118 1.247 . S
O117 Cd113 2.439 . S
O117 C118 1.208 . S
C118 O116 1.247 . S
C118 O117 1.208 . S
C119 O124 1.247 . S
C119 O125 1.208 . S
C120 O112 1.315 . S
C120 O115 1.279 . S
C121 O122 1.315 . S
C121 O123 1.279 . S
O122 Cd114 2.223 . S
O122 C121 1.315 . S
O123 Cd113 2.240 . S
O123 C121 1.279 . S
O124 Cd114 2.297 . S
O124 C119 1.247 . S
O125 Cd114 2.439 . S
O125 C119 1.208 . S
O126 Cd127 2.223 . S
O126 C134 1.315 . S
Cd127 O126 2.223 . S
Cd127 O130 2.297 . S
Cd127 O131 2.439 . S
Cd127 O137 2.240 . S
Cd128 O129 2.240 . S
Cd128 O136 2.223 . S
Cd128 O138 2.297 . S
Cd128 O139 2.439 . S
O129 Cd128 2.240 . S
O129 C134 1.279 . S
O130 Cd127 2.297 . S
O130 C132 1.247 . S
O131 Cd127 2.439 . S
O131 C132 1.208 . S
C132 O130 1.247 . S
C132 O131 1.208 . S
C133 O138 1.247 . S
C133 O139 1.208 . S
C134 O126 1.315 . S
C134 O129 1.279 . S
C135 O136 1.315 . S
C135 O137 1.279 . S
O136 Cd128 2.223 . S
O136 C135 1.315 . S
O137 Cd127 2.240 . S
O137 C135 1.279 . S
O138 Cd128 2.297 . S
O138 C133 1.247 . S
O139 Cd128 2.439 . S
O139 C133 1.208 . S
O140 Cd141 2.223 . S
O140 C148 1.315 . S
Cd141 O140 2.223 . S
Cd141 O144 2.297 . S
Cd141 O145 2.439 . S
Cd141 O151 2.240 . S
Cd142 O143 2.240 . S
Cd142 O150 2.223 . S
Cd142 O152 2.297 . S
Cd142 O153 2.439 . S
O143 Cd142 2.240 . S
O143 C148 1.279 . S
O144 Cd141 2.297 . S
O144 C146 1.247 . S
O145 Cd141 2.439 . S
O145 C146 1.208 . S
C146 O144 1.247 . S
C146 O145 1.208 . S
C147 O152 1.247 . S
C147 O153 1.208 . S
C148 O140 1.315 . S
C148 O143 1.279 . S
C149 O150 1.315 . S
C149 O151 1.279 . S
O150 Cd142 2.223 . S
O150 C149 1.315 . S
O151 Cd141 2.240 . S
O151 C149 1.279 . S
O152 Cd142 2.297 . S
O152 C147 1.247 . S
O153 Cd142 2.439 . S
O153 C147 1.208 . S
O154 Cd155 2.223 . S
O154 C162 1.315 1_455 S
Cd155 O154 2.223 . S
Cd155 O158 2.297 . S
Cd155 O159 2.439 . S
Cd155 O165 2.240 . S
Cd156 O157 2.240 . S
Cd156 O164 2.223 . S
Cd156 O166 2.297 . S
Cd156 O167 2.439 . S
O157 Cd156 2.240 . S
O157 C162 1.279 . S
O158 Cd155 2.297 . S
O158 C160 1.247 . S
O159 Cd155 2.439 . S
O159 C160 1.208 . S
C160 O158 1.247 . S
C160 O159 1.208 . S
C161 O166 1.247 . S
C161 O167 1.208 . S
C162 O154 1.315 1_655 S
C162 O157 1.279 . S
C163 O164 1.315 1_455 S
C163 O165 1.279 . S
O164 Cd156 2.223 . S
O164 C163 1.315 1_655 S
O165 Cd155 2.240 . S
O165 C163 1.279 . S
O166 Cd156 2.297 . S
O166 C161 1.247 . S
O167 Cd156 2.439 . S
O167 C161 1.208 . S
H168 C186 0.951 . S
H169 C188 0.951 1_455 S
H170 C190 0.950 . S
H171 C191 0.950 . S
H172 C193 0.950 . S
H173 C196 0.950 . S
H174 C197 0.950 . S
H175 C199 0.950 . S
H176 C200 0.950 . S
H177 C201 0.951 . S
H178 C203 0.941 1_655 S
H179 C205 0.950 . S
H180 C206 0.950 . S
H181 C208 0.950 . S
H182 C211 0.950 . S
H183 C212 0.950 . S
H184 C214 0.950 . S
H185 C215 0.950 . S
C186 H168 0.951 . S
C186 C187 1.366 . S
C186 C188 1.388 . S
C187 C186 1.366 . S
C187 C191 1.385 . S
C188 H169 0.951 1_655 S
C188 C186 1.388 . S
C188 C189 1.366 . S
C189 C188 1.366 . S
C189 C190 1.414 . S
C189 C192 1.499 . S
C190 H170 0.950 . S
C190 C189 1.414 . S
C190 C191 1.374 . S
C191 H171 0.950 . S
C191 C187 1.385 . S
C191 C190 1.374 . S
C192 C189 1.499 . S
C192 C193 1.373 . S
C192 C194 1.389 1_655 S
C193 H172 0.950 . S
C193 C192 1.373 . S
C193 C209 1.377 . S
C194 C192 1.389 1_455 S
C194 C195 1.524 . S
C194 C208 1.377 . S
C195 C194 1.524 . S
C195 C196 1.397 . S
C195 C200 1.363 . S
C196 H173 0.950 . S
C196 C195 1.397 . S
C196 C197 1.334 . S
C197 H174 0.950 . S
C197 C196 1.334 . S
C197 C198 1.287 . S
C198 C197 1.287 . S
C198 C199 1.524 . S
C198 H217 0.913 . S
C199 H175 0.950 . S
C199 C198 1.524 . S
C199 C200 1.415 . S
C200 H176 0.950 . S
C200 C195 1.363 . S
C200 C199 1.415 . S
C201 H177 0.951 . S
C201 C202 1.366 . S
C201 C203 1.388 . S
C202 C201 1.366 . S
C202 C206 1.385 . S
C203 H178 0.941 1_455 S
C203 C201 1.388 . S
C203 C204 1.375 . S
C204 C203 1.375 . S
C204 C205 1.414 . S
C204 C207 1.498 . S
C205 H179 0.950 . S
C205 C204 1.414 . S
C205 C206 1.374 . S
C206 H180 0.950 . S
C206 C202 1.385 . S
C206 C205 1.374 . S
C207 C204 1.498 . S
C207 C208 1.397 . S
C207 C209 1.367 1_455 S
C208 H181 0.950 . S
C208 C194 1.377 . S
C208 C207 1.397 . S
C209 C193 1.377 . S
C209 C207 1.367 1_655 S
C209 C210 1.524 . S
C210 C209 1.524 . S
C210 C211 1.397 . S
C210 C215 1.363 . S
C211 H182 0.950 . S
C211 C210 1.397 . S
C211 C212 1.334 . S
C212 H183 0.950 . S
C212 C211 1.334 . S
C212 C213 1.287 . S
C213 C212 1.287 . S
C213 C214 1.524 . S
C213 H216 0.999 . S
C214 H184 0.950 . S
C214 C213 1.524 . S
C214 C215 1.415 . S
C215 H185 0.950 . S
C215 C210 1.363 . S
C215 C214 1.415 . S
H216 C213 0.999 . S
H217 C198 0.913 . S
H218 C236 0.951 . S
H219 C238 0.951 . S
H220 C240 0.950 1_565 S
H221 C241 0.950 . S
H222 C243 0.950 . S
H223 C246 0.950 . S
H224 C247 0.950 . S
H225 C249 0.950 . S
H226 C250 0.950 . S
H227 C251 0.951 . S
H228 C253 0.951 . S
H229 C255 0.950 . S
H230 C256 0.950 . S
H231 C258 0.950 . S
H232 C261 0.950 . S
H233 C262 0.950 . S
H234 C264 0.950 . S
H235 C265 0.950 . S
C236 H218 0.951 . S
C236 C237 1.366 . S
C236 C238 1.388 . S
C237 C236 1.366 . S
C237 C241 1.385 . S
C238 H219 0.951 . S
C238 C236 1.388 . S
C238 C239 1.366 . S
C239 C238 1.366 . S
C239 C240 1.414 . S
C239 C242 1.499 . S
C240 H220 0.950 1_545 S
C240 C239 1.414 . S
C240 C241 1.374 . S
C241 H221 0.950 . S
C241 C237 1.385 . S
C241 C240 1.374 . S
C242 C239 1.499 . S
C242 C243 1.373 1_545 S
C242 C244 1.389 . S
C243 H222 0.950 . S
C243 C242 1.373 1_565 S
C243 C259 1.377 . S
C244 C242 1.389 . S
C244 C245 1.524 . S
C244 C258 1.377 . S
C245 C244 1.524 . S
C245 C246 1.397 . S
C245 C250 1.363 . S
C246 H223 0.950 . S
C246 C245 1.397 . S
C246 C247 1.334 . S
C247 H224 0.950 . S
C247 C246 1.334 . S
C247 C248 1.287 . S
C248 C247 1.287 . S
C248 C249 1.524 . S
C248 H267 0.913 . S
C249 H225 0.950 . S
C249 C248 1.524 . S
C249 C250 1.415 . S
C250 H226 0.950 . S
C250 C245 1.363 . S
C250 C249 1.415 . S
C251 H227 0.951 . S
C251 C252 1.366 . S
C251 C253 1.388 . S
C252 C251 1.366 . S
C252 C256 1.385 . S
C253 H228 0.951 . S
C253 C251 1.388 . S
C253 C254 1.366 . S
C254 C253 1.366 . S
C254 C255 1.414 . S
C254 C257 1.499 . S
C255 H229 0.950 . S
C255 C254 1.414 . S
C255 C256 1.374 . S
C256 H230 0.950 . S
C256 C252 1.385 . S
C256 C255 1.374 . S
C257 C254 1.499 . S
C257 C258 1.373 1_565 S
C257 C259 1.389 . S
C258 H231 0.950 . S
C258 C244 1.377 . S
C258 C257 1.373 1_545 S
C259 C243 1.377 . S
C259 C257 1.389 . S
C259 C260 1.524 . S
C260 C259 1.524 . S
C260 C261 1.397 . S
C260 C265 1.363 . S
C261 H232 0.950 . S
C261 C260 1.397 . S
C261 C262 1.334 . S
C262 H233 0.950 . S
C262 C261 1.334 . S
C262 C263 1.287 . S
C263 C262 1.287 . S
C263 C264 1.524 . S
C263 H266 0.999 . S
C264 H234 0.950 . S
C264 C263 1.524 . S
C264 C265 1.415 . S
C265 H235 0.950 . S
C265 C260 1.363 . S
C265 C264 1.415 . S
H266 C263 0.999 . S
H267 C248 0.913 . S
H268 C286 0.951 . S
H269 C288 0.951 . S
H270 C290 0.950 . S
H271 C291 0.950 . S
H272 C293 0.950 . S
H273 C296 0.950 . S
H274 C297 0.950 . S
H275 C299 0.950 . S
H276 C300 0.950 . S
H277 C301 0.951 . S
H278 C303 0.951 . S
H279 C305 0.950 . S
H280 C306 0.950 . S
H281 C308 0.950 . S
H282 C311 0.950 . S
H283 C312 0.950 . S
H284 C314 0.950 . S
H285 C315 0.950 . S
C286 H268 0.951 . S
C286 C287 1.366 . S
C286 C288 1.388 . S
C287 C286 1.366 . S
C287 C291 1.385 . S
C288 H269 0.951 . S
C288 C286 1.388 . S
C288 C289 1.366 . S
C289 C288 1.366 . S
C289 C290 1.414 . S
C289 C292 1.499 . S
C290 H270 0.950 . S
C290 C289 1.414 . S
C290 C291 1.374 . S
C291 H271 0.950 . S
C291 C287 1.385 . S
C291 C290 1.374 . S
C292 C289 1.499 . S
C292 C293 1.373 . S
C292 C294 1.389 . S
C293 H272 0.950 . S
C293 C292 1.373 . S
C293 C309 1.377 . S
C294 C292 1.389 . S
C294 C295 1.524 . S
C294 C308 1.377 . S
C295 C294 1.524 . S
C295 C296 1.397 . S
C295 C300 1.363 . S
C296 H273 0.950 . S
C296 C295 1.397 . S
C296 C297 1.334 . S
C297 H274 0.950 . S
C297 C296 1.334 . S
C297 C298 1.287 . S
C298 C297 1.287 . S
C298 C299 1.524 . S
C298 H317 0.913 . S
C299 H275 0.950 . S
C299 C298 1.524 . S
C299 C300 1.415 . S
C300 H276 0.950 . S
C300 C295 1.363 . S
C300 C299 1.415 . S
C301 H277 0.951 . S
C301 C302 1.366 . S
C301 C303 1.388 . S
C302 C301 1.366 . S
C302 C306 1.385 . S
C303 H278 0.951 . S
C303 C301 1.388 . S
C303 C304 1.366 . S
C304 C303 1.366 . S
C304 C305 1.414 . S
C304 C307 1.499 . S
C305 H279 0.950 . S
C305 C304 1.414 . S
C305 C306 1.374 . S
C306 H280 0.950 . S
C306 C302 1.385 . S
C306 C305 1.374 . S
C307 C304 1.499 . S
C307 C308 1.373 . S
C307 C309 1.389 . S
C308 H281 0.950 . S
C308 C294 1.377 . S
C308 C307 1.373 . S
C309 C293 1.377 . S
C309 C307 1.389 . S
C309 C310 1.524 . S
C310 C309 1.524 . S
C310 C311 1.397 . S
C310 C315 1.363 . S
C311 H282 0.950 . S
C311 C310 1.397 . S
C311 C312 1.334 . S
C312 H283 0.950 . S
C312 C311 1.334 . S
C312 C313 1.287 . S
C313 C312 1.287 . S
C313 C314 1.524 . S
C313 H316 0.999 . S
C314 H284 0.950 . S
C314 C313 1.524 . S
C314 C315 1.415 . S
C315 H285 0.950 . S
C315 C310 1.363 . S
C315 C314 1.415 . S
H316 C313 0.999 . S
H317 C298 0.913 . S
H318 C336 0.951 . S
H319 C338 0.951 . S
H320 C340 0.950 . S
H321 C341 0.950 . S
H322 C343 0.950 . S
H323 C346 0.950 . S
H324 C347 0.950 . S
H325 C349 0.950 . S
H326 C350 0.950 . S
H327 C351 0.951 . S
H328 C353 0.951 . S
H329 C355 0.950 . S
H330 C356 0.950 . S
H331 C358 0.950 . S
H332 C361 0.950 . S
H333 C362 0.950 . S
H334 C364 0.950 . S
H335 C365 0.950 . S
C336 H318 0.951 . S
C336 C337 1.366 . S
C336 C338 1.388 . S
C337 C336 1.366 . S
C337 C341 1.385 . S
C338 H319 0.951 . S
C338 C336 1.388 . S
C338 C339 1.366 . S
C339 C338 1.366 . S
C339 C340 1.414 . S
C339 C342 1.499 . S
C340 H320 0.950 . S
C340 C339 1.414 . S
C340 C341 1.374 . S
C341 H321 0.950 . S
C341 C337 1.385 . S
C341 C340 1.374 . S
C342 C339 1.499 . S
C342 C343 1.373 . S
C342 C344 1.389 . S
C343 H322 0.950 . S
C343 C342 1.373 . S
C343 C359 1.377 . S
C344 C342 1.389 . S
C344 C345 1.524 1_655 S
C344 C358 1.377 1_655 S
C345 C344 1.524 1_455 S
C345 C346 1.397 1_455 S
C345 C350 1.363 . S
C346 H323 0.950 . S
C346 C345 1.397 1_655 S
C346 C347 1.334 . S
C347 H324 0.950 . S
C347 C346 1.334 . S
C347 C348 1.287 1_655 S
C348 C347 1.287 1_455 S
C348 C349 1.524 . S
C348 H367 0.913 . S
C349 H325 0.950 . S
C349 C348 1.524 . S
C349 C350 1.415 . S
C350 H326 0.950 . S
C350 C345 1.363 . S
C350 C349 1.415 . S
C351 H327 0.951 . S
C351 C352 1.366 . S
C351 C353 1.388 . S
C352 C351 1.366 . S
C352 C356 1.385 . S
C353 H328 0.951 . S
C353 C351 1.388 . S
C353 C354 1.366 . S
C354 C353 1.366 . S
C354 C355 1.414 . S
C354 C357 1.499 . S
C355 H329 0.950 . S
C355 C354 1.414 . S
C355 C356 1.374 . S
C356 H330 0.950 . S
C356 C352 1.385 . S
C356 C355 1.374 . S
C357 C354 1.499 . S
C357 C358 1.373 . S
C357 C359 1.389 1_455 S
C358 H331 0.950 . S
C358 C344 1.377 1_455 S
C358 C357 1.373 . S
C359 C343 1.377 . S
C359 C357 1.389 1_655 S
C359 C360 1.524 . S
C360 C359 1.524 . S
C360 C361 1.397 1_655 S
C360 C365 1.363 . S
C361 H332 0.950 . S
C361 C360 1.397 1_455 S
C361 C362 1.334 . S
C362 H333 0.950 . S
C362 C361 1.334 . S
C362 C363 1.287 1_455 S
C363 C362 1.287 1_655 S
C363 C364 1.524 . S
C363 H366 0.999 . S
C364 H334 0.950 . S
C364 C363 1.524 . S
C364 C365 1.415 . S
C365 H335 0.950 . S
C365 C360 1.363 . S
C365 C364 1.415 . S
H366 C363 0.999 . S
H367 C348 0.913 . S
H368 C386 0.951 . S
H369 C388 0.951 . S
H370 C390 0.950 . S
H371 C391 0.950 . S
H372 C393 0.950 . S
H373 C396 0.950 . S
H374 C397 0.950 . S
H375 C399 0.950 . S
H376 C400 0.950 . S
H377 C401 0.951 . S
H378 C403 0.951 . S
H379 C405 0.950 . S
H380 C406 0.950 . S
H381 C408 0.950 . S
H382 C411 0.950 . S
H383 C412 0.950 . S
H384 C414 0.950 . S
H385 C415 0.950 . S
C386 H368 0.951 . S
C386 C387 1.366 . S
C386 C388 1.388 . S
C387 C386 1.366 . S
C387 C391 1.385 . S
C388 H369 0.951 . S
C388 C386 1.388 . S
C388 C389 1.366 . S
C389 C388 1.366 . S
C389 C390 1.414 . S
C389 C392 1.499 . S
C390 H370 0.950 . S
C390 C389 1.414 . S
C390 C391 1.374 . S
C391 H371 0.950 . S
C391 C387 1.385 . S
C391 C390 1.374 . S
C392 C389 1.499 . S
C392 C393 1.373 1_545 S
C392 C394 1.389 . S
C393 H372 0.950 . S
C393 C392 1.373 1_565 S
C393 C409 1.377 . S
C394 C392 1.389 . S
C394 C395 1.524 . S
C394 C408 1.377 . S
C395 C394 1.524 . S
C395 C396 1.397 . S
C395 C400 1.363 . S
C396 H373 0.950 . S
C396 C395 1.397 . S
C396 C397 1.334 . S
C397 H374 0.950 . S
C397 C396 1.334 . S
C397 C398 1.287 . S
C398 C397 1.287 . S
C398 C399 1.524 . S
C398 H417 0.913 . S
C399 H375 0.950 . S
C399 C398 1.524 . S
C399 C400 1.415 . S
C400 H376 0.950 . S
C400 C395 1.363 . S
C400 C399 1.415 . S
C401 H377 0.951 . S
C401 C402 1.366 . S
C401 C403 1.388 . S
C402 C401 1.366 . S
C402 C406 1.385 . S
C403 H378 0.951 . S
C403 C401 1.388 . S
C403 C404 1.366 . S
C404 C403 1.366 . S
C404 C405 1.414 . S
C404 C407 1.499 . S
C405 H379 0.950 . S
C405 C404 1.414 . S
C405 C406 1.374 . S
C406 H380 0.950 . S
C406 C402 1.385 . S
C406 C405 1.374 . S
C407 C404 1.499 . S
C407 C408 1.373 1_565 S
C407 C409 1.389 . S
C408 H381 0.950 . S
C408 C394 1.377 . S
C408 C407 1.373 1_545 S
C409 C393 1.377 . S
C409 C407 1.389 . S
C409 C410 1.524 . S
C410 C409 1.524 . S
C410 C411 1.397 . S
C410 C415 1.363 . S
C411 H382 0.950 . S
C411 C410 1.397 . S
C411 C412 1.334 . S
C412 H383 0.950 . S
C412 C411 1.334 . S
C412 C413 1.287 . S
C413 C412 1.287 . S
C413 C414 1.524 . S
C413 H416 0.999 . S
C414 H384 0.950 . S
C414 C413 1.524 . S
C414 C415 1.415 . S
C415 H385 0.950 . S
C415 C410 1.363 . S
C415 C414 1.415 . S
H416 C413 0.999 . S
H417 C398 0.913 . S
H418 C436 0.951 . S
H419 C438 0.951 . S
H420 C440 0.950 . S
H421 C441 0.950 . S
H422 C443 0.950 . S
H423 C446 0.950 . S
H424 C447 0.950 . S
H425 C449 0.950 . S
H426 C450 0.950 . S
H427 C451 0.951 . S
H428 C453 0.951 . S
H429 C455 0.950 . S
H430 C456 0.950 . S
H431 C458 0.950 . S
H432 C461 0.950 . S
H433 C462 0.950 . S
H434 C464 0.950 . S
H435 C465 0.950 . S
C436 H418 0.951 . S
C436 C437 1.366 . S
C436 C438 1.388 . S
C437 C436 1.366 . S
C437 C441 1.385 . S
C438 H419 0.951 . S
C438 C436 1.388 . S
C438 C439 1.366 . S
C439 C438 1.366 . S
C439 C440 1.414 . S
C439 C442 1.499 . S
C440 H420 0.950 . S
C440 C439 1.414 . S
C440 C441 1.374 . S
C441 H421 0.950 . S
C441 C437 1.385 . S
C441 C440 1.374 . S
C442 C439 1.499 . S
C442 C443 1.373 . S
C442 C444 1.389 . S
C443 H422 0.950 . S
C443 C442 1.373 . S
C443 C459 1.377 . S
C444 C442 1.389 . S
C444 C445 1.524 . S
C444 C458 1.377 . S
C445 C444 1.524 . S
C445 C446 1.397 . S
C445 C450 1.363 . S
C446 H423 0.950 . S
C446 C445 1.397 . S
C446 C447 1.334 . S
C447 H424 0.950 . S
C447 C446 1.334 . S
C447 C448 1.287 . S
C448 C447 1.287 . S
C448 C449 1.524 . S
C448 H467 0.913 . S
C449 H425 0.950 . S
C449 C448 1.524 . S
C449 C450 1.415 . S
C450 H426 0.950 . S
C450 C445 1.363 . S
C450 C449 1.415 . S
C451 H427 0.951 . S
C451 C452 1.366 . S
C451 C453 1.388 . S
C452 C451 1.366 . S
C452 C456 1.385 . S
C453 H428 0.951 . S
C453 C451 1.388 . S
C453 C454 1.366 . S
C454 C453 1.366 . S
C454 C455 1.414 . S
C454 C457 1.499 . S
C455 H429 0.950 . S
C455 C454 1.414 . S
C455 C456 1.374 . S
C456 H430 0.950 . S
C456 C452 1.385 . S
C456 C455 1.374 . S
C457 C454 1.499 . S
C457 C458 1.373 . S
C457 C459 1.389 . S
C458 H431 0.950 . S
C458 C444 1.377 . S
C458 C457 1.373 . S
C459 C443 1.377 . S
C459 C457 1.389 . S
C459 C460 1.524 . S
C460 C459 1.524 . S
C460 C461 1.397 . S
C460 C465 1.363 . S
C461 H432 0.950 . S
C461 C460 1.397 . S
C461 C462 1.334 . S
C462 H433 0.950 . S
C462 C461 1.334 . S
C462 C463 1.287 . S
C463 C462 1.287 . S
C463 C464 1.524 . S
C463 H466 0.999 . S
C464 H434 0.950 . S
C464 C463 1.524 . S
C464 C465 1.415 . S
C465 H435 0.950 . S
C465 C460 1.363 . S
C465 C464 1.415 . S
H466 C463 0.999 . S
H467 C448 0.913 . S
H468 C486 0.951 . S
H469 C488 0.951 . S
H470 C490 0.950 . S
H471 C491 0.950 . S
H472 C493 0.950 . S
H473 C496 0.950 . S
H474 C497 0.950 . S
H475 C499 0.948 1_655 S
H476 C500 0.950 1_556 S
H477 C501 0.951 . S
H478 C503 0.951 . S
H479 C505 0.950 . S
H480 C506 0.950 . S
H481 C508 0.950 . S
H482 C511 0.950 . S
H483 C512 0.950 . S
H484 C514 0.950 . S
H485 C515 0.884 1_554 S
C486 H468 0.951 . S
C486 C487 1.366 . S
C486 C488 1.388 . S
C487 C486 1.366 . S
C487 C491 1.385 . S
C488 H469 0.951 . S
C488 C486 1.388 . S
C488 C489 1.366 . S
C489 C488 1.366 . S
C489 C490 1.414 . S
C489 C492 1.499 . S
C490 H470 0.950 . S
C490 C489 1.414 . S
C490 C491 1.374 . S
C491 H471 0.950 . S
C491 C487 1.385 . S
C491 C490 1.374 . S
C492 C489 1.499 . S
C492 C493 1.373 . S
C492 C494 1.389 . S
C493 H472 0.950 . S
C493 C492 1.373 . S
C493 C509 1.377 1_554 S
C494 C492 1.389 . S
C494 C495 1.524 . S
C494 C508 1.377 1_554 S
C495 C494 1.524 . S
C495 C496 1.397 . S
C495 C500 1.363 . S
C496 H473 0.950 . S
C496 C495 1.397 . S
C496 C497 1.334 . S
C497 H474 0.950 . S
C497 C496 1.334 . S
C497 C498 1.287 . S
C498 C497 1.287 . S
C498 C499 1.525 . S
C498 H517 0.913 1_455 S
C499 H475 0.948 1_455 S
C499 C498 1.525 . S
C499 C500 1.416 . S
C500 H476 0.950 1_554 S
C500 C495 1.363 . S
C500 C499 1.416 . S
C501 H477 0.951 . S
C501 C502 1.366 . S
C501 C503 1.388 . S
C502 C501 1.366 . S
C502 C506 1.385 . S
C503 H478 0.951 . S
C503 C501 1.388 . S
C503 C504 1.366 . S
C504 C503 1.366 . S
C504 C505 1.414 . S
C504 C507 1.499 . S
C505 H479 0.950 . S
C505 C504 1.414 . S
C505 C506 1.374 . S
C506 H480 0.950 . S
C506 C502 1.385 . S
C506 C505 1.374 . S
C507 C504 1.499 . S
C507 C508 1.373 . S
C507 C509 1.389 . S
C508 H481 0.950 . S
C508 C494 1.377 1_556 S
C508 C507 1.373 . S
C509 C493 1.377 1_556 S
C509 C507 1.389 . S
C509 C510 1.524 . S
C510 C509 1.524 . S
C510 C511 1.397 . S
C510 C515 1.363 . S
C511 H482 0.950 . S
C511 C510 1.397 . S
C511 C512 1.334 . S
C512 H483 0.950 . S
C512 C511 1.334 . S
C512 C513 1.287 . S
C513 C512 1.287 . S
C513 C514 1.524 . S
C513 H516 0.999 . S
C514 H484 0.950 . S
C514 C513 1.524 . S
C514 C515 1.415 . S
C515 H485 0.884 1_556 S
C515 C510 1.363 . S
C515 C514 1.415 . S
H516 C513 0.999 . S
H517 C498 0.913 1_655 S
H518 C536 0.951 . S
H519 C538 0.951 . S
H520 C540 0.950 . S
H521 C541 0.950 . S
H522 C543 0.950 . S
H523 C546 0.950 . S
H524 C547 0.950 . S
H525 C549 0.950 1_455 S
H526 C550 0.950 . S
H527 C551 0.951 . S
H528 C553 0.951 . S
H529 C555 0.950 . S
H530 C556 0.950 . S
H531 C558 0.950 . S
H532 C561 0.950 . S
H533 C562 0.950 . S
H534 C564 0.950 . S
H535 C565 0.950 . S
C536 H518 0.951 . S
C536 C537 1.366 . S
C536 C538 1.388 . S
C537 C536 1.366 . S
C537 C541 1.385 . S
C538 H519 0.951 . S
C538 C536 1.388 . S
C538 C539 1.366 . S
C539 C538 1.366 . S
C539 C540 1.414 . S
C539 C542 1.499 . S
C540 H520 0.950 . S
C540 C539 1.414 . S
C540 C541 1.374 . S
C541 H521 0.950 . S
C541 C537 1.385 . S
C541 C540 1.374 . S
C542 C539 1.499 . S
C542 C543 1.373 . S
C542 C544 1.389 . S
C543 H522 0.950 . S
C543 C542 1.373 . S
C543 C559 1.377 . S
C544 C542 1.389 . S
C544 C545 1.524 . S
C544 C558 1.377 . S
C545 C544 1.524 . S
C545 C546 1.397 . S
C545 C550 1.363 . S
C546 H523 0.950 . S
C546 C545 1.397 . S
C546 C547 1.334 . S
C547 H524 0.950 . S
C547 C546 1.334 . S
C547 C548 1.287 . S
C548 C547 1.287 . S
C548 C549 1.524 . S
C548 H567 0.913 . S
C549 H525 0.950 1_655 S
C549 C548 1.524 . S
C549 C550 1.415 . S
C550 H526 0.950 . S
C550 C545 1.363 . S
C550 C549 1.415 . S
C551 H527 0.951 . S
C551 C552 1.366 . S
C551 C553 1.388 . S
C552 C551 1.366 . S
C552 C556 1.385 . S
C553 H528 0.951 . S
C553 C551 1.388 . S
C553 C554 1.366 . S
C554 C553 1.366 . S
C554 C555 1.414 . S
C554 C557 1.499 . S
C555 H529 0.950 . S
C555 C554 1.414 . S
C555 C556 1.374 . S
C556 H530 0.950 . S
C556 C552 1.385 . S
C556 C555 1.374 . S
C557 C554 1.499 . S
C557 C558 1.373 . S
C557 C559 1.389 . S
C558 H531 0.950 . S
C558 C544 1.377 . S
C558 C557 1.373 . S
C559 C543 1.377 . S
C559 C557 1.389 . S
C559 C560 1.524 . S
C560 C559 1.524 . S
C560 C561 1.397 . S
C560 C565 1.363 . S
C561 H532 0.950 . S
C561 C560 1.397 . S
C561 C562 1.334 1_545 S
C562 H533 0.950 . S
C562 C561 1.334 1_565 S
C562 C563 1.287 . S
C563 C562 1.287 . S
C563 C564 1.524 . S
C563 H566 0.999 . S
C564 H534 0.950 . S
C564 C563 1.524 . S
C564 C565 1.415 1_565 S
C565 H535 0.950 . S
C565 C560 1.363 . S
C565 C564 1.415 1_545 S
H566 C563 0.999 . S
H567 C548 0.913 . S
H568 C586 0.951 . S
H569 C588 0.951 . S
H570 C590 0.950 . S
H571 C591 0.950 . S
H572 C593 0.950 . S
H573 C596 0.950 . S
H574 C597 0.950 . S
H575 C599 0.950 . S
H576 C600 0.950 . S
H577 C601 0.951 . S
H578 C603 0.951 . S
H579 C605 0.950 . S
H580 C606 0.950 . S
H581 C608 0.950 . S
H582 C611 0.950 . S
H583 C612 0.950 . S
H584 C614 0.950 . S
H585 C615 0.950 . S
C586 H568 0.951 . S
C586 C587 1.366 . S
C586 C588 1.388 . S
C587 C586 1.366 . S
C587 C591 1.385 . S
C588 H569 0.951 . S
C588 C586 1.388 . S
C588 C589 1.366 . S
C589 C588 1.366 . S
C589 C590 1.414 . S
C589 C592 1.499 . S
C590 H570 0.950 . S
C590 C589 1.414 . S
C590 C591 1.374 . S
C591 H571 0.950 . S
C591 C587 1.385 . S
C591 C590 1.374 . S
C592 C589 1.499 . S
C592 C593 1.373 . S
C592 C594 1.389 . S
C593 H572 0.950 . S
C593 C592 1.373 . S
C593 C609 1.377 . S
C594 C592 1.389 . S
C594 C595 1.524 . S
C594 C608 1.377 . S
C595 C594 1.524 . S
C595 C596 1.397 . S
C595 C600 1.363 . S
C596 H573 0.950 . S
C596 C595 1.397 . S
C596 C597 1.334 . S
C597 H574 0.950 . S
C597 C596 1.334 . S
C597 C598 1.287 . S
C598 C597 1.287 . S
C598 C599 1.524 . S
C598 H617 0.913 . S
C599 H575 0.950 . S
C599 C598 1.524 . S
C599 C600 1.415 . S
C600 H576 0.950 . S
C600 C595 1.363 . S
C600 C599 1.415 . S
C601 H577 0.951 . S
C601 C602 1.366 . S
C601 C603 1.388 . S
C602 C601 1.366 . S
C602 C606 1.385 . S
C603 H578 0.951 . S
C603 C601 1.388 . S
C603 C604 1.366 . S
C604 C603 1.366 . S
C604 C605 1.414 . S
C604 C607 1.499 . S
C605 H579 0.950 . S
C605 C604 1.414 . S
C605 C606 1.374 . S
C606 H580 0.950 . S
C606 C602 1.385 . S
C606 C605 1.374 . S
C607 C604 1.499 . S
C607 C608 1.373 . S
C607 C609 1.389 . S
C608 H581 0.950 . S
C608 C594 1.377 . S
C608 C607 1.373 . S
C609 C593 1.377 . S
C609 C607 1.389 . S
C609 C610 1.524 1_565 S
C610 C609 1.524 1_545 S
C610 C611 1.397 . S
C610 C615 1.363 . S
C611 H582 0.950 . S
C611 C610 1.397 . S
C611 C612 1.334 . S
C612 H583 0.950 . S
C612 C611 1.334 . S
C612 C613 1.287 . S
C613 C612 1.287 . S
C613 C614 1.524 . S
C613 H616 0.999 . S
C614 H584 0.950 . S
C614 C613 1.524 . S
C614 C615 1.415 . S
C615 H585 0.950 . S
C615 C610 1.363 . S
C615 C614 1.415 . S
H616 C613 0.999 . S
H617 C598 0.913 . S
H618 C636 0.951 . S
H619 C638 0.951 . S
H620 C640 0.950 . S
H621 C641 0.950 . S
H622 C643 0.950 . S
H623 C646 0.950 . S
H624 C647 0.950 . S
H625 C649 0.950 . S
H626 C650 0.950 1_556 S
H627 C651 0.951 . S
H628 C653 0.951 . S
H629 C655 0.950 . S
H630 C656 0.950 . S
H631 C658 0.950 . S
H632 C661 0.950 . S
H633 C662 0.950 . S
H634 C664 0.950 1_455 S
H635 C665 0.950 . S
C636 H618 0.951 . S
C636 C637 1.366 . S
C636 C638 1.388 . S
C637 C636 1.366 . S
C637 C641 1.385 . S
C638 H619 0.951 . S
C638 C636 1.388 . S
C638 C639 1.366 . S
C639 C638 1.366 . S
C639 C640 1.414 . S
C639 C642 1.499 . S
C640 H620 0.950 . S
C640 C639 1.414 . S
C640 C641 1.374 . S
C641 H621 0.950 . S
C641 C637 1.385 . S
C641 C640 1.374 . S
C642 C639 1.499 . S
C642 C643 1.373 . S
C642 C644 1.458 . S
C643 H622 0.950 . S
C643 C642 1.373 . S
C643 C659 1.377 1_554 S
C644 C642 1.458 . S
C644 C645 1.552 . S
C644 C658 1.281 1_554 S
C645 C644 1.552 . S
C645 C646 1.397 . S
C645 C650 1.363 . S
C646 H623 0.950 . S
C646 C645 1.397 . S
C646 C647 1.334 . S
C647 H624 0.950 . S
C647 C646 1.334 . S
C647 C648 1.287 . S
C648 C647 1.287 . S
C648 C649 1.524 . S
C648 H667 0.913 . S
C649 H625 0.950 . S
C649 C648 1.524 . S
C649 C650 1.415 . S
C650 H626 0.950 1_554 S
C650 C645 1.363 . S
C650 C649 1.415 . S
C651 H627 0.951 . S
C651 C652 1.366 . S
C651 C653 1.388 . S
C652 C651 1.366 . S
C652 C656 1.385 . S
C653 H628 0.951 . S
C653 C651 1.388 . S
C653 C654 1.366 . S
C654 C653 1.366 . S
C654 C655 1.414 . S
C654 C657 1.499 . S
C655 H629 0.950 . S
C655 C654 1.414 . S
C655 C656 1.374 . S
C656 H630 0.950 . S
C656 C652 1.385 . S
C656 C655 1.374 . S
C657 C654 1.499 . S
C657 C658 1.373 . S
C657 C659 1.389 . S
C658 H631 0.950 . S
C658 C644 1.281 1_556 S
C658 C657 1.373 . S
C659 C643 1.377 1_556 S
C659 C657 1.389 . S
C659 C660 1.524 . S
C660 C659 1.524 . S
C660 C661 1.397 . S
C660 C665 1.363 . S
C661 H632 0.950 . S
C661 C660 1.397 . S
C661 C662 1.334 . S
C662 H633 0.950 . S
C662 C661 1.334 . S
C662 C663 1.287 . S
C663 C662 1.287 . S
C663 C664 1.524 . S
C663 H666 0.999 1_655 S
C664 H634 0.950 1_655 S
C664 C663 1.524 . S
C664 C665 1.415 . S
C665 H635 0.950 . S
C665 C660 1.363 . S
C665 C664 1.415 . S
H666 C663 0.999 1_455 S
H667 C648 0.913 . S
H668 C686 0.951 . S
H669 C688 0.951 . S
H670 C690 0.950 . S
H671 C691 0.950 . S
H672 C693 0.950 . S
H673 C696 0.950 . S
H674 C697 0.950 . S
H675 C699 0.950 . S
H676 C700 0.950 . S
H677 C701 0.951 . S
H678 C703 0.951 . S
H679 C705 0.950 . S
H680 C706 0.950 . S
H681 C708 0.950 . S
H682 C711 0.950 . S
H683 C712 0.950 . S
H684 C714 0.950 . S
H685 C715 0.950 . S
C686 H668 0.951 . S
C686 C687 1.366 . S
C686 C688 1.388 . S
C687 C686 1.366 . S
C687 C691 1.385 . S
C688 H669 0.951 . S
C688 C686 1.388 . S
C688 C689 1.366 . S
C689 C688 1.366 . S
C689 C690 1.414 . S
C689 C692 1.499 . S
C690 H670 0.950 . S
C690 C689 1.414 . S
C690 C691 1.374 . S
C691 H671 0.950 . S
C691 C687 1.385 . S
C691 C690 1.374 . S
C692 C689 1.499 . S
C692 C693 1.373 . S
C692 C694 1.389 . S
C693 H672 0.950 . S
C693 C692 1.373 . S
C693 C709 1.377 . S
C694 C692 1.389 . S
C694 C695 1.524 . S
C694 C708 1.377 . S
C695 C694 1.524 . S
C695 C696 1.397 . S
C695 C700 1.363 . S
C696 H673 0.950 . S
C696 C695 1.397 . S
C696 C697 1.334 . S
C697 H674 0.950 . S
C697 C696 1.334 . S
C697 C698 1.287 . S
C698 C697 1.287 . S
C698 C699 1.524 . S
C698 H717 0.913 . S
C699 H675 0.950 . S
C699 C698 1.524 . S
C699 C700 1.415 . S
C700 H676 0.950 . S
C700 C695 1.363 . S
C700 C699 1.415 . S
C701 H677 0.951 . S
C701 C702 1.366 . S
C701 C703 1.388 . S
C702 C701 1.366 . S
C702 C706 1.385 . S
C703 H678 0.951 . S
C703 C701 1.388 . S
C703 C704 1.366 . S
C704 C703 1.366 . S
C704 C705 1.414 . S
C704 C707 1.499 . S
C705 H679 0.950 . S
C705 C704 1.414 . S
C705 C706 1.374 . S
C706 H680 0.950 . S
C706 C702 1.385 . S
C706 C705 1.374 . S
C707 C704 1.499 . S
C707 C708 1.373 . S
C707 C709 1.389 . S
C708 H681 0.950 . S
C708 C694 1.377 . S
C708 C707 1.373 . S
C709 C693 1.377 . S
C709 C707 1.389 . S
C709 C710 1.524 . S
C710 C709 1.524 . S
C710 C711 1.397 . S
C710 C715 1.363 . S
C711 H682 0.950 . S
C711 C710 1.397 . S
C711 C712 1.334 . S
C712 H683 0.950 . S
C712 C711 1.334 . S
C712 C713 1.287 . S
C713 C712 1.287 . S
C713 C714 1.524 . S
C713 H716 0.999 . S
C714 H684 0.950 . S
C714 C713 1.524 . S
C714 C715 1.415 . S
C715 H685 0.950 . S
C715 C710 1.363 . S
C715 C714 1.415 . S
H716 C713 0.999 . S
H717 C698 0.913 . S
H718 C736 0.951 . S
H719 C738 0.951 . S
H720 C740 0.950 . S
H721 C741 0.950 . S
H722 C743 0.950 . S
H723 C746 0.950 . S
H724 C747 0.950 . S
H725 C749 0.950 . S
H726 C750 0.950 . S
H727 C751 0.951 . S
H728 C753 0.951 . S
H729 C755 0.950 . S
H730 C756 0.950 . S
H731 C758 0.950 . S
H732 C761 0.950 . S
H733 C762 0.950 . S
H734 C764 0.950 . S
H735 C765 0.950 . S
C736 H718 0.951 . S
C736 C737 1.366 . S
C736 C738 1.388 . S
C737 C736 1.366 . S
C737 C741 1.385 . S
C738 H719 0.951 . S
C738 C736 1.388 . S
C738 C739 1.366 . S
C739 C738 1.366 . S
C739 C740 1.414 . S
C739 C742 1.499 . S
C740 H720 0.950 . S
C740 C739 1.414 . S
C740 C741 1.374 . S
C741 H721 0.950 . S
C741 C737 1.385 . S
C741 C740 1.374 . S
C742 C739 1.499 . S
C742 C743 1.373 . S
C742 C744 1.389 . S
C743 H722 0.950 . S
C743 C742 1.373 . S
C743 C759 1.377 . S
C744 C742 1.389 . S
C744 C745 1.524 . S
C744 C758 1.377 . S
C745 C744 1.524 . S
C745 C746 1.397 . S
C745 C750 1.363 . S
C746 H723 0.950 . S
C746 C745 1.397 . S
C746 C747 1.334 . S
C747 H724 0.950 . S
C747 C746 1.334 . S
C747 C748 1.287 . S
C748 C747 1.287 . S
C748 C749 1.524 . S
C748 H767 0.913 . S
C749 H725 0.950 . S
C749 C748 1.524 . S
C749 C750 1.415 . S
C750 H726 0.950 . S
C750 C745 1.363 . S
C750 C749 1.415 . S
C751 H727 0.951 . S
C751 C752 1.366 . S
C751 C753 1.388 . S
C752 C751 1.366 . S
C752 C756 1.385 . S
C753 H728 0.951 . S
C753 C751 1.388 . S
C753 C754 1.366 . S
C754 C753 1.366 . S
C754 C755 1.414 . S
C754 C757 1.499 . S
C755 H729 0.950 . S
C755 C754 1.414 . S
C755 C756 1.374 . S
C756 H730 0.950 . S
C756 C752 1.385 . S
C756 C755 1.374 . S
C757 C754 1.499 . S
C757 C758 1.373 . S
C757 C759 1.389 . S
C758 H731 0.950 . S
C758 C744 1.377 . S
C758 C757 1.373 . S
C759 C743 1.377 . S
C759 C757 1.389 . S
C759 C760 1.524 . S
C760 C759 1.524 . S
C760 C761 1.397 . S
C760 C765 1.363 . S
C761 H732 0.950 . S
C761 C760 1.397 . S
C761 C762 1.334 . S
C762 H733 0.950 . S
C762 C761 1.334 . S
C762 C763 1.287 . S
C763 C762 1.287 . S
C763 C764 1.524 . S
C763 H766 0.999 . S
C764 H734 0.950 . S
C764 C763 1.524 . S
C764 C765 1.415 . S
C765 H735 0.950 . S
C765 C760 1.363 . S
C765 C764 1.415 . S
H766 C763 0.999 . S
H767 C748 0.913 . S
H768 C786 0.951 . S
H769 C788 0.951 . S
H770 C790 0.950 . S
H771 C791 0.950 . S
H772 C793 0.950 . S
H773 C796 0.950 . S
H774 C797 0.950 . S
H775 C799 0.950 . S
H776 C800 0.950 . S
H777 C801 0.951 . S
H778 C803 0.951 . S
H779 C805 0.949 . S
H780 C806 0.950 1_455 S
H781 C808 0.950 . S
H782 C811 0.950 . S
H783 C812 0.950 . S
H784 C814 0.950 . S
H785 C815 0.950 . S
C786 H768 0.951 . S
C786 C787 1.366 . S
C786 C788 1.388 . S
C787 C786 1.366 . S
C787 C791 1.385 . S
C788 H769 0.951 . S
C788 C786 1.388 . S
C788 C789 1.366 . S
C789 C788 1.366 . S
C789 C790 1.414 . S
C789 C792 1.499 . S
C790 H770 0.950 . S
C790 C789 1.414 . S
C790 C791 1.374 . S
C791 H771 0.950 . S
C791 C787 1.385 . S
C791 C790 1.374 . S
C792 C789 1.499 . S
C792 C793 1.373 . S
C792 C794 1.389 . S
C793 H772 0.950 . S
C793 C792 1.373 . S
C793 C809 1.377 . S
C794 C792 1.389 . S
C794 C795 1.522 1_655 S
C794 C808 1.377 . S
C795 C794 1.522 1_455 S
C795 C796 1.393 1_455 S
C795 C800 1.369 . S
C796 H773 0.950 . S
C796 C795 1.393 1_655 S
C796 C797 1.334 1_655 S
C797 H774 0.950 . S
C797 C796 1.334 1_455 S
C797 C798 1.287 . S
C798 C797 1.287 . S
C798 C799 1.524 . S
C798 H817 0.913 . S
C799 H775 0.950 . S
C799 C798 1.524 . S
C799 C800 1.415 . S
C800 H776 0.950 . S
C800 C795 1.369 . S
C800 C799 1.415 . S
C801 H777 0.951 . S
C801 C802 1.366 . S
C801 C803 1.388 . S
C802 C801 1.366 . S
C802 C806 1.385 . S
C803 H778 0.951 . S
C803 C801 1.388 . S
C803 C804 1.366 . S
C804 C803 1.366 . S
C804 C805 1.414 . S
C804 C807 1.499 . S
C805 H779 0.949 . S
C805 C804 1.414 . S
C805 C806 1.374 . S
C806 H780 0.950 1_655 S
C806 C802 1.385 . S
C806 C805 1.374 . S
C807 C804 1.499 . S
C807 C808 1.373 . S
C807 C809 1.389 . S
C808 H781 0.950 . S
C808 C794 1.377 . S
C808 C807 1.373 . S
C809 C793 1.377 . S
C809 C807 1.389 . S
C809 C810 1.524 . S
C810 C809 1.524 . S
C810 C811 1.397 . S
C810 C815 1.363 . S
C811 H782 0.950 . S
C811 C810 1.397 . S
C811 C812 1.334 . S
C812 H783 0.950 . S
C812 C811 1.334 . S
C812 C813 1.287 . S
C813 C812 1.287 . S
C813 C814 1.524 . S
C813 H816 0.999 . S
C814 H784 0.950 . S
C814 C813 1.524 . S
C814 C815 1.415 . S
C815 H785 0.950 . S
C815 C810 1.363 . S
C815 C814 1.415 . S
H816 C813 0.999 . S
H817 C798 0.913 . S
H818 C836 0.960 . S
H819 C838 0.951 . S
H820 C840 0.950 . S
H821 C841 0.950 . S
H822 C843 0.950 . S
H823 C846 0.950 1_565 S
H824 C847 0.950 . S
H825 C849 0.950 . S
H826 C850 0.950 . S
H827 C851 0.951 . S
H828 C853 0.951 . S
H829 C855 0.950 . S
H830 C856 0.950 . S
H831 C858 0.950 . S
H832 C861 0.950 . S
H833 C862 0.950 . S
H834 C864 0.950 . S
H835 C865 0.950 . S
C836 H818 0.960 . S
C836 C837 1.366 . S
C836 C838 1.388 . S
C837 C836 1.366 . S
C837 C841 1.385 . S
C838 H819 0.951 . S
C838 C836 1.388 . S
C838 C839 1.366 . S
C839 C838 1.366 . S
C839 C840 1.414 . S
C839 C842 1.499 . S
C840 H820 0.950 . S
C840 C839 1.414 . S
C840 C841 1.374 . S
C841 H821 0.950 . S
C841 C837 1.385 . S
C841 C840 1.374 . S
C842 C839 1.499 . S
C842 C843 1.373 . S
C842 C844 1.389 . S
C843 H822 0.950 . S
C843 C842 1.373 . S
C843 C859 1.377 . S
C844 C842 1.389 . S
C844 C845 1.524 1_565 S
C844 C858 1.377 . S
C845 C844 1.524 1_545 S
C845 C846 1.397 . S
C845 C850 1.363 . S
C846 H823 0.950 1_545 S
C846 C845 1.397 . S
C846 C847 1.334 . S
C847 H824 0.950 . S
C847 C846 1.334 . S
C847 C848 1.287 . S
C848 C847 1.287 . S
C848 C849 1.524 . S
C848 H867 0.913 . S
C849 H825 0.950 . S
C849 C848 1.524 . S
C849 C850 1.415 . S
C850 H826 0.950 . S
C850 C845 1.363 . S
C850 C849 1.415 . S
C851 H827 0.951 . S
C851 C852 1.366 . S
C851 C853 1.388 . S
C852 C851 1.366 . S
C852 C856 1.385 . S
C853 H828 0.951 . S
C853 C851 1.388 . S
C853 C854 1.366 . S
C854 C853 1.366 . S
C854 C855 1.414 . S
C854 C857 1.499 . S
C855 H829 0.950 . S
C855 C854 1.414 . S
C855 C856 1.374 . S
C856 H830 0.950 . S
C856 C852 1.385 . S
C856 C855 1.374 . S
C857 C854 1.499 . S
C857 C858 1.373 . S
C857 C859 1.389 . S
C858 H831 0.950 . S
C858 C844 1.377 . S
C858 C857 1.373 . S
C859 C843 1.377 . S
C859 C857 1.389 . S
C859 C860 1.524 . S
C860 C859 1.524 . S
C860 C861 1.397 . S
C860 C865 1.363 . S
C861 H832 0.950 . S
C861 C860 1.397 . S
C861 C862 1.334 . S
C862 H833 0.950 . S
C862 C861 1.334 . S
C862 C863 1.287 . S
C863 C862 1.287 . S
C863 C864 1.524 . S
C863 H866 0.999 . S
C864 H834 0.950 . S
C864 C863 1.524 . S
C864 C865 1.415 . S
C865 H835 0.950 . S
C865 C860 1.363 . S
C865 C864 1.415 . S
H866 C863 0.999 . S
H867 C848 0.913 . S
H868 C886 0.951 . S
H869 C888 0.951 . S
H870 C890 0.950 . S
H871 C891 0.950 . S
H872 C893 0.950 . S
H873 C896 0.950 . S
H874 C897 0.950 . S
H875 C899 0.950 . S
H876 C900 0.950 . S
H877 C901 0.951 . S
H878 C903 0.951 . S
H879 C905 0.950 . S
H880 C906 0.950 . S
H881 C908 0.950 . S
H882 C911 0.950 . S
H883 C912 0.950 . S
H884 C914 0.950 . S
H885 C915 0.950 . S
C886 H868 0.951 . S
C886 C887 1.366 . S
C886 C888 1.388 . S
C887 C886 1.366 . S
C887 C891 1.385 . S
C888 H869 0.951 . S
C888 C886 1.388 . S
C888 C889 1.366 . S
C889 C888 1.366 . S
C889 C890 1.414 . S
C889 C892 1.499 . S
C890 H870 0.950 . S
C890 C889 1.414 . S
C890 C891 1.374 . S
C891 H871 0.950 . S
C891 C887 1.385 . S
C891 C890 1.374 . S
C892 C889 1.499 . S
C892 C893 1.373 . S
C892 C894 1.389 . S
C893 H872 0.950 . S
C893 C892 1.373 . S
C893 C909 1.377 . S
C894 C892 1.389 . S
C894 C895 1.524 . S
C894 C908 1.377 . S
C895 C894 1.524 . S
C895 C896 1.397 . S
C895 C900 1.363 . S
C896 H873 0.950 . S
C896 C895 1.397 . S
C896 C897 1.334 . S
C897 H874 0.950 . S
C897 C896 1.334 . S
C897 C898 1.287 . S
C898 C897 1.287 . S
C898 C899 1.524 . S
C898 H917 0.913 . S
C899 H875 0.950 . S
C899 C898 1.524 . S
C899 C900 1.415 . S
C900 H876 0.950 . S
C900 C895 1.363 . S
C900 C899 1.415 . S
C901 H877 0.951 . S
C901 C902 1.366 . S
C901 C903 1.388 . S
C902 C901 1.366 . S
C902 C906 1.385 . S
C903 H878 0.951 . S
C903 C901 1.388 . S
C903 C904 1.366 . S
C904 C903 1.366 . S
C904 C905 1.414 . S
C904 C907 1.499 . S
C905 H879 0.950 . S
C905 C904 1.414 . S
C905 C906 1.374 . S
C906 H880 0.950 . S
C906 C902 1.385 . S
C906 C905 1.374 . S
C907 C904 1.499 . S
C907 C908 1.373 . S
C907 C909 1.389 . S
C908 H881 0.950 . S
C908 C894 1.377 . S
C908 C907 1.373 . S
C909 C893 1.377 . S
C909 C907 1.389 . S
C909 C910 1.524 . S
C910 C909 1.524 . S
C910 C911 1.397 . S
C910 C915 1.363 . S
C911 H882 0.950 . S
C911 C910 1.397 . S
C911 C912 1.334 . S
C912 H883 0.950 . S
C912 C911 1.334 . S
C912 C913 1.287 . S
C913 C912 1.287 . S
C913 C914 1.524 . S
C913 H916 0.999 . S
C914 H884 0.950 . S
C914 C913 1.524 . S
C914 C915 1.415 . S
C915 H885 0.950 . S
C915 C910 1.363 . S
C915 C914 1.415 . S
H916 C913 0.999 . S
H917 C898 0.913 . S
H918 C936 0.951 . S
H919 C938 0.951 . S
H920 C940 0.950 . S
H921 C941 0.950 . S
H922 C943 0.950 . S
H923 C946 0.950 . S
H924 C947 0.950 . S
H925 C949 0.950 . S
H926 C950 0.950 . S
H927 C951 0.951 1_565 S
H928 C953 0.961 . S
H929 C955 0.950 . S
H930 C956 0.950 . S
H931 C958 0.950 . S
H932 C961 0.950 . S
H933 C962 0.950 . S
H934 C964 0.950 . S
H935 C965 0.950 . S
C936 H918 0.951 . S
C936 C937 1.366 . S
C936 C938 1.388 . S
C937 C936 1.366 . S
C937 C941 1.385 . S
C938 H919 0.951 . S
C938 C936 1.388 . S
C938 C939 1.366 . S
C939 C938 1.366 . S
C939 C940 1.414 . S
C939 C942 1.499 . S
C940 H920 0.950 . S
C940 C939 1.414 . S
C940 C941 1.374 . S
C941 H921 0.950 . S
C941 C937 1.385 . S
C941 C940 1.374 . S
C942 C939 1.499 . S
C942 C943 1.373 . S
C942 C944 1.389 . S
C943 H922 0.950 . S
C943 C942 1.373 . S
C943 C959 1.377 . S
C944 C942 1.389 . S
C944 C945 1.524 . S
C944 C958 1.377 . S
C945 C944 1.524 . S
C945 C946 1.397 . S
C945 C950 1.363 . S
C946 H923 0.950 . S
C946 C945 1.397 . S
C946 C947 1.334 . S
C947 H924 0.950 . S
C947 C946 1.334 . S
C947 C948 1.287 . S
C948 C947 1.287 . S
C948 C949 1.524 . S
C948 H967 0.913 . S
C949 H925 0.950 . S
C949 C948 1.524 . S
C949 C950 1.415 . S
C950 H926 0.950 . S
C950 C945 1.363 . S
C950 C949 1.415 . S
C951 H927 0.951 1_545 S
C951 C952 1.366 . S
C951 C953 1.388 . S
C952 C951 1.366 . S
C952 C956 1.385 . S
C953 H928 0.961 . S
C953 C951 1.388 . S
C953 C954 1.366 . S
C954 C953 1.366 . S
C954 C955 1.414 . S
C954 C957 1.499 . S
C955 H929 0.950 . S
C955 C954 1.414 . S
C955 C956 1.374 . S
C956 H930 0.950 . S
C956 C952 1.385 . S
C956 C955 1.374 . S
C957 C954 1.499 . S
C957 C958 1.373 . S
C957 C959 1.389 . S
C958 H931 0.950 . S
C958 C944 1.377 . S
C958 C957 1.373 . S
C959 C943 1.377 . S
C959 C957 1.389 . S
C959 C960 1.524 . S
C960 C959 1.524 . S
C960 C961 1.397 . S
C960 C965 1.363 1_545 S
C961 H932 0.950 . S
C961 C960 1.397 . S
C961 C962 1.334 . S
C962 H933 0.950 . S
C962 C961 1.334 . S
C962 C963 1.287 . S
C963 C962 1.287 . S
C963 C964 1.524 1_545 S
C963 H966 0.999 1_545 S
C964 H934 0.950 . S
C964 C963 1.524 1_565 S
C964 C965 1.415 . S
C965 H935 0.950 . S
C965 C960 1.363 1_565 S
C965 C964 1.415 . S
H966 C963 0.999 1_565 S
H967 C948 0.913 . S
H968 C986 0.951 . S
H969 C988 0.951 . S
H970 C990 0.950 . S
H971 C991 0.950 . S
H972 C993 0.950 . S
H973 C996 0.950 . S
H974 C997 0.950 . S
H975 C999 0.950 . S
H976 C1000 0.950 . S
H977 C1001 0.951 . S
H978 C1003 0.951 . S
H979 C1005 0.950 . S
H980 C1006 0.950 . S
H981 C1008 0.950 . S
H982 C1011 0.950 . S
H983 C1012 0.950 . S
H984 C1014 0.950 . S
H985 C1015 0.950 . S
C986 H968 0.951 . S
C986 C987 1.366 . S
C986 C988 1.388 . S
C987 C986 1.366 . S
C987 C991 1.385 . S
C988 H969 0.951 . S
C988 C986 1.388 . S
C988 C989 1.366 . S
C989 C988 1.366 . S
C989 C990 1.414 . S
C989 C992 1.499 . S
C990 H970 0.950 . S
C990 C989 1.414 . S
C990 C991 1.374 . S
C991 H971 0.950 . S
C991 C987 1.385 . S
C991 C990 1.374 . S
C992 C989 1.499 . S
C992 C993 1.373 . S
C992 C994 1.389 . S
C993 H972 0.950 . S
C993 C992 1.373 . S
C993 C1009 1.377 . S
C994 C992 1.389 . S
C994 C995 1.524 . S
C994 C1008 1.377 . S
C995 C994 1.524 . S
C995 C996 1.397 . S
C995 C1000 1.363 . S
C996 H973 0.950 . S
C996 C995 1.397 . S
C996 C997 1.334 . S
C997 H974 0.950 . S
C997 C996 1.334 . S
C997 C998 1.287 . S
C998 C997 1.287 . S
C998 C999 1.524 . S
C998 H1017 0.913 . S
C999 H975 0.950 . S
C999 C998 1.524 . S
C999 C1000 1.415 . S
C1000 H976 0.950 . S
C1000 C995 1.363 . S
C1000 C999 1.415 . S
C1001 H977 0.951 . S
C1001 C1002 1.366 . S
C1001 C1003 1.388 . S
C1002 C1001 1.366 . S
C1002 C1006 1.385 . S
C1003 H978 0.951 . S
C1003 C1001 1.388 . S
C1003 C1004 1.366 . S
C1004 C1003 1.366 . S
C1004 C1005 1.414 . S
C1004 C1007 1.499 . S
C1005 H979 0.950 . S
C1005 C1004 1.414 . S
C1005 C1006 1.374 . S
C1006 H980 0.950 . S
C1006 C1002 1.385 . S
C1006 C1005 1.374 . S
C1007 C1004 1.499 . S
C1007 C1008 1.373 . S
C1007 C1009 1.389 . S
C1008 H981 0.950 . S
C1008 C994 1.377 . S
C1008 C1007 1.373 . S
C1009 C993 1.377 . S
C1009 C1007 1.389 . S
C1009 C1010 1.524 . S
C1010 C1009 1.524 . S
C1010 C1011 1.397 . S
C1010 C1015 1.363 . S
C1011 H982 0.950 . S
C1011 C1010 1.397 . S
C1011 C1012 1.334 . S
C1012 H983 0.950 . S
C1012 C1011 1.334 . S
C1012 C1013 1.287 . S
C1013 C1012 1.287 . S
C1013 C1014 1.524 . S
C1013 H1016 0.999 . S
C1014 H984 0.950 . S
C1014 C1013 1.524 . S
C1014 C1015 1.415 . S
C1015 H985 0.950 . S
C1015 C1010 1.363 . S
C1015 C1014 1.415 . S
H1016 C1013 0.999 . S
H1017 C998 0.913 . S
H1018 C1036 0.951 . S
H1019 C1038 0.951 . S
H1020 C1040 0.950 . S
H1021 C1041 0.950 . S
H1022 C1043 0.950 . S
H1023 C1046 0.950 . S
H1024 C1047 0.950 . S
H1025 C1049 0.950 . S
H1026 C1050 0.950 . S
H1027 C1051 0.951 1_655 S
H1028 C1053 0.951 1_655 S
H1029 C1055 0.950 . S
H1030 C1056 0.950 . S
H1031 C1058 0.950 . S
H1032 C1061 0.950 . S
H1033 C1062 0.950 . S
H1034 C1064 0.950 . S
H1035 C1065 0.950 . S
C1036 H1018 0.951 . S
C1036 C1037 1.366 . S
C1036 C1038 1.388 . S
C1037 C1036 1.366 . S
C1037 C1041 1.385 . S
C1038 H1019 0.951 . S
C1038 C1036 1.388 . S
C1038 C1039 1.366 . S
C1039 C1038 1.366 . S
C1039 C1040 1.414 . S
C1039 C1042 1.499 . S
C1040 H1020 0.950 . S
C1040 C1039 1.414 . S
C1040 C1041 1.374 . S
C1041 H1021 0.950 . S
C1041 C1037 1.385 . S
C1041 C1040 1.374 . S
C1042 C1039 1.499 . S
C1042 C1043 1.373 . S
C1042 C1044 1.389 . S
C1043 H1022 0.950 . S
C1043 C1042 1.373 . S
C1043 C1059 1.377 . S
C1044 C1042 1.389 . S
C1044 C1045 1.524 . S
C1044 C1058 1.377 . S
C1045 C1044 1.524 . S
C1045 C1046 1.397 . S
C1045 C1050 1.363 . S
C1046 H1023 0.950 . S
C1046 C1045 1.397 . S
C1046 C1047 1.334 . S
C1047 H1024 0.950 . S
C1047 C1046 1.334 . S
C1047 C1048 1.287 . S
C1048 C1047 1.287 . S
C1048 C1049 1.524 . S
C1048 H1067 0.913 . S
C1049 H1025 0.950 . S
C1049 C1048 1.524 . S
C1049 C1050 1.415 . S
C1050 H1026 0.950 . S
C1050 C1045 1.363 . S
C1050 C1049 1.415 . S
C1051 H1027 0.951 1_455 S
C1051 C1052 1.366 . S
C1051 C1053 1.388 . S
C1052 C1051 1.366 . S
C1052 C1056 1.385 . S
C1053 H1028 0.951 1_455 S
C1053 C1051 1.388 . S
C1053 C1054 1.366 . S
C1054 C1053 1.366 . S
C1054 C1055 1.414 . S
C1054 C1057 1.499 . S
C1055 H1029 0.950 . S
C1055 C1054 1.414 . S
C1055 C1056 1.374 . S
C1056 H1030 0.950 . S
C1056 C1052 1.385 . S
C1056 C1055 1.374 . S
C1057 C1054 1.499 . S
C1057 C1058 1.373 . S
C1057 C1059 1.389 . S
C1058 H1031 0.950 . S
C1058 C1044 1.377 . S
C1058 C1057 1.373 . S
C1059 C1043 1.377 . S
C1059 C1057 1.389 . S
C1059 C1060 1.524 . S
C1060 C1059 1.524 . S
C1060 C1061 1.397 . S
C1060 C1065 1.363 1_455 S
C1061 H1032 0.950 . S
C1061 C1060 1.397 . S
C1061 C1062 1.334 . S
C1062 H1033 0.950 . S
C1062 C1061 1.334 . S
C1062 C1063 1.287 1_455 S
C1063 C1062 1.287 1_655 S
C1063 C1064 1.524 . S
C1063 H1066 0.999 . S
C1064 H1034 0.950 . S
C1064 C1063 1.524 . S
C1064 C1065 1.415 . S
C1065 H1035 0.950 . S
C1065 C1060 1.363 1_655 S
C1065 C1064 1.415 . S
H1066 C1063 0.999 . S
H1067 C1048 0.913 . S
H1068 C1086 0.951 1_455 S
H1069 C1088 0.951 1_455 S
H1070 C1090 0.954 . S
H1071 C1091 0.950 . S
H1072 C1093 0.950 . S
H1073 C1096 0.950 1_655 S
H1074 C1097 0.950 . S
H1075 C1099 0.940 . S
H1076 C1100 0.950 . S
H1077 C1101 0.951 . S
H1078 C1103 0.951 . S
H1079 C1105 0.950 . S
H1080 C1106 0.950 . S
H1081 C1108 0.950 . S
H1082 C1111 0.950 . S
H1083 C1112 0.950 . S
H1084 C1114 0.950 . S
H1085 C1115 0.950 . S
C1086 H1068 0.951 1_655 S
C1086 C1087 1.366 . S
C1086 C1088 1.388 . S
C1087 C1086 1.366 . S
C1087 C1091 1.385 . S
C1088 H1069 0.951 1_655 S
C1088 C1086 1.388 . S
C1088 C1089 1.366 1_545 S
C1089 C1088 1.366 1_565 S
C1089 C1090 1.420 . S
C1089 C1092 1.499 . S
C1090 H1070 0.954 . S
C1090 C1089 1.420 . S
C1090 C1091 1.364 1_565 S
C1091 H1071 0.950 . S
C1091 C1087 1.385 . S
C1091 C1090 1.364 1_545 S
C1092 C1089 1.499 . S
C1092 C1093 1.373 . S
C1092 C1094 1.389 . S
C1093 H1072 0.950 . S
C1093 C1092 1.373 . S
C1093 C1109 1.377 . S
C1094 C1092 1.389 . S
C1094 C1095 1.524 1_655 S
C1094 C1108 1.377 . S
C1095 C1094 1.524 1_455 S
C1095 C1096 1.397 . S
C1095 C1100 1.363 . S
C1096 H1073 0.950 1_455 S
C1096 C1095 1.397 . S
C1096 C1097 1.334 1_565 S
C1097 H1074 0.950 . S
C1097 C1096 1.334 1_545 S
C1097 C1098 1.287 . S
C1098 C1097 1.287 . S
C1098 C1099 1.543 . S
C1098 H1117 0.913 . S
C1099 H1075 0.940 . S
C1099 C1098 1.543 . S
C1099 C1100 1.407 1_545 S
C1100 H1076 0.950 . S
C1100 C1095 1.363 . S
C1100 C1099 1.407 1_565 S
C1101 H1077 0.951 . S
C1101 C1102 1.366 . S
C1101 C1103 1.388 . S
C1102 C1101 1.366 . S
C1102 C1106 1.385 . S
C1103 H1078 0.951 . S
C1103 C1101 1.388 . S
C1103 C1104 1.366 . S
C1104 C1103 1.366 . S
C1104 C1105 1.414 . S
C1104 C1107 1.499 . S
C1105 H1079 0.950 . S
C1105 C1104 1.414 . S
C1105 C1106 1.374 . S
C1106 H1080 0.950 . S
C1106 C1102 1.385 . S
C1106 C1105 1.374 . S
C1107 C1104 1.499 . S
C1107 C1108 1.373 . S
C1107 C1109 1.389 . S
C1108 H1081 0.950 . S
C1108 C1094 1.377 . S
C1108 C1107 1.373 . S
C1109 C1093 1.377 . S
C1109 C1107 1.389 . S
C1109 C1110 1.524 . S
C1110 C1109 1.524 . S
C1110 C1111 1.397 . S
C1110 C1115 1.363 . S
C1111 H1082 0.950 . S
C1111 C1110 1.397 . S
C1111 C1112 1.334 . S
C1112 H1083 0.950 . S
C1112 C1111 1.334 . S
C1112 C1113 1.287 . S
C1113 C1112 1.287 . S
C1113 C1114 1.524 . S
C1113 H1116 0.999 . S
C1114 H1084 0.950 . S
C1114 C1113 1.524 . S
C1114 C1115 1.415 . S
C1115 H1085 0.950 . S
C1115 C1110 1.363 . S
C1115 C1114 1.415 . S
H1116 C1113 0.999 . S
H1117 C1098 0.913 . S
H1118 C1136 0.951 1_545 S
H1119 C1138 0.951 1_545 S
H1120 C1140 0.950 . S
H1121 C1141 0.950 . S
H1122 C1143 0.950 . S
H1123 C1146 0.950 1_565 S
H1124 C1147 0.950 . S
H1125 C1149 0.950 . S
H1126 C1150 0.950 . S
H1127 C1151 0.951 . S
H1128 C1153 0.951 . S
H1129 C1155 0.950 . S
H1130 C1156 0.950 . S
H1131 C1158 0.950 . S
H1132 C1161 0.950 . S
H1133 C1162 0.950 . S
H1134 C1164 0.950 . S
H1135 C1165 0.950 . S
C1136 H1118 0.951 1_565 S
C1136 C1137 1.366 . S
C1136 C1138 1.388 . S
C1137 C1136 1.366 . S
C1137 C1141 1.385 . S
C1138 H1119 0.951 1_565 S
C1138 C1136 1.388 . S
C1138 C1139 1.366 . S
C1139 C1138 1.366 . S
C1139 C1140 1.414 . S
C1139 C1142 1.499 . S
C1140 H1120 0.950 . S
C1140 C1139 1.414 . S
C1140 C1141 1.374 . S
C1141 H1121 0.950 . S
C1141 C1137 1.385 . S
C1141 C1140 1.374 . S
C1142 C1139 1.499 . S
C1142 C1143 1.373 . S
C1142 C1144 1.389 . S
C1143 H1122 0.950 . S
C1143 C1142 1.373 . S
C1143 C1159 1.377 . S
C1144 C1142 1.389 . S
C1144 C1145 1.524 1_565 S
C1144 C1158 1.377 1_655 S
C1145 C1144 1.524 1_545 S
C1145 C1146 1.397 . S
C1145 C1150 1.363 1_655 S
C1146 H1123 0.950 1_545 S
C1146 C1145 1.397 . S
C1146 C1147 1.334 . S
C1147 H1124 0.950 . S
C1147 C1146 1.334 . S
C1147 C1148 1.287 . S
C1148 C1147 1.287 . S
C1148 C1149 1.524 1_655 S
C1148 H1167 0.913 1_655 S
C1149 H1125 0.950 . S
C1149 C1148 1.524 1_455 S
C1149 C1150 1.415 . S
C1150 H1126 0.950 . S
C1150 C1145 1.363 1_455 S
C1150 C1149 1.415 . S
C1151 H1127 0.951 . S
C1151 C1152 1.366 . S
C1151 C1153 1.388 . S
C1152 C1151 1.366 . S
C1152 C1156 1.385 . S
C1153 H1128 0.951 . S
C1153 C1151 1.388 . S
C1153 C1154 1.366 . S
C1154 C1153 1.366 . S
C1154 C1155 1.414 . S
C1154 C1157 1.515 . S
C1155 H1129 0.950 . S
C1155 C1154 1.414 . S
C1155 C1156 1.374 . S
C1156 H1130 0.950 . S
C1156 C1152 1.385 . S
C1156 C1155 1.374 . S
C1157 C1154 1.515 . S
C1157 C1158 1.367 . S
C1157 C1159 1.378 1_455 S
C1158 H1131 0.950 . S
C1158 C1144 1.377 1_455 S
C1158 C1157 1.367 . S
C1159 C1143 1.377 . S
C1159 C1157 1.378 1_655 S
C1159 C1160 1.524 . S
C1160 C1159 1.524 . S
C1160 C1161 1.397 . S
C1160 C1165 1.363 . S
C1161 H1132 0.950 . S
C1161 C1160 1.397 . S
C1161 C1162 1.334 . S
C1162 H1133 0.950 . S
C1162 C1161 1.334 . S
C1162 C1163 1.287 . S
C1163 C1162 1.287 . S
C1163 C1164 1.524 . S
C1163 H1166 0.999 . S
C1164 H1134 0.950 . S
C1164 C1163 1.524 . S
C1164 C1165 1.415 . S
C1165 H1135 0.950 . S
C1165 C1160 1.363 . S
C1165 C1164 1.415 . S
H1166 C1163 0.999 . S
H1167 C1148 0.913 1_455 S
H1168 C1186 0.951 . S
H1169 C1188 0.951 . S
H1170 C1190 0.950 1_655 S
H1171 C1191 0.950 . S
H1172 C1193 0.950 . S
H1173 C1196 0.950 . S
H1174 C1197 0.950 . S
H1175 C1199 0.950 . S
H1176 C1200 0.950 . S
H1177 C1201 0.951 . S
H1178 C1203 0.951 1_545 S
H1179 C1205 0.950 . S
H1180 C1206 0.950 . S
H1181 C1208 0.950 . S
H1182 C1211 0.950 . S
H1183 C1212 0.950 1_565 S
H1184 C1214 0.950 . S
H1185 C1215 0.950 . S
C1186 H1168 0.951 . S
C1186 C1187 1.366 . S
C1186 C1188 1.388 . S
C1187 C1186 1.366 . S
C1187 C1191 1.385 . S
C1188 H1169 0.951 . S
C1188 C1186 1.388 . S
C1188 C1189 1.366 . S
C1189 C1188 1.366 . S
C1189 C1190 1.414 . S
C1189 C1192 1.499 1_455 S
C1190 H1170 0.950 1_455 S
C1190 C1189 1.414 . S
C1190 C1191 1.374 . S
C1191 H1171 0.950 . S
C1191 C1187 1.385 . S
C1191 C1190 1.374 . S
C1192 C1189 1.499 1_655 S
C1192 C1193 1.373 . S
C1192 C1194 1.389 . S
C1193 H1172 0.950 . S
C1193 C1192 1.373 . S
C1193 C1209 1.377 . S
C1194 C1192 1.389 . S
C1194 C1195 1.524 . S
C1194 C1208 1.377 . S
C1195 C1194 1.524 . S
C1195 C1196 1.397 . S
C1195 C1200 1.363 . S
C1196 H1173 0.950 . S
C1196 C1195 1.397 . S
C1196 C1197 1.334 1_655 S
C1197 H1174 0.950 . S
C1197 C1196 1.334 1_455 S
C1197 C1198 1.287 . S
C1198 C1197 1.287 . S
C1198 C1199 1.524 . S
C1198 H1217 0.913 . S
C1199 H1175 0.950 . S
C1199 C1198 1.524 . S
C1199 C1200 1.415 1_455 S
C1200 H1176 0.950 . S
C1200 C1195 1.363 . S
C1200 C1199 1.415 1_655 S
C1201 H1177 0.951 . S
C1201 C1202 1.366 . S
C1201 C1203 1.388 . S
C1202 C1201 1.366 . S
C1202 C1206 1.385 . S
C1203 H1178 0.951 1_565 S
C1203 C1201 1.388 . S
C1203 C1204 1.366 . S
C1204 C1203 1.366 . S
C1204 C1205 1.414 . S
C1204 C1207 1.499 1_565 S
C1205 H1179 0.950 . S
C1205 C1204 1.414 . S
C1205 C1206 1.374 . S
C1206 H1180 0.950 . S
C1206 C1202 1.385 . S
C1206 C1205 1.374 . S
C1207 C1204 1.499 1_545 S
C1207 C1208 1.373 . S
C1207 C1209 1.389 . S
C1208 H1181 0.950 . S
C1208 C1194 1.377 . S
C1208 C1207 1.373 . S
C1209 C1193 1.377 . S
C1209 C1207 1.389 . S
C1209 C1210 1.524 . S
C1210 C1209 1.524 . S
C1210 C1211 1.397 . S
C1210 C1215 1.363 . S
C1211 H1182 0.950 . S
C1211 C1210 1.397 . S
C1211 C1212 1.334 . S
C1212 H1183 0.950 1_545 S
C1212 C1211 1.334 . S
C1212 C1213 1.287 . S
C1213 C1212 1.287 . S
C1213 C1214 1.524 . S
C1213 H1216 0.999 . S
C1214 H1184 0.950 . S
C1214 C1213 1.524 . S
C1214 C1215 1.415 . S
C1215 H1185 0.950 . S
C1215 C1210 1.363 . S
C1215 C1214 1.415 . S
H1216 C1213 0.999 . S
H1217 C1198 0.913 . S
H1218 C1236 0.951 . S
H1219 C1238 0.951 . S
H1220 C1240 0.950 . S
H1221 C1241 0.946 1_565 S
H1222 C1243 0.950 . S
H1223 C1246 0.950 . S
H1224 C1247 0.950 . S
H1225 C1249 0.952 . S
H1226 C1250 0.950 . S
H1227 C1251 0.951 . S
H1228 C1253 0.951 . S
H1229 C1255 0.950 . S
H1230 C1256 0.950 . S
H1231 C1258 0.950 . S
H1232 C1261 0.950 . S
H1233 C1262 0.950 . S
H1234 C1264 0.950 . S
H1235 C1265 0.950 . S
C1236 H1218 0.951 . S
C1236 C1237 1.366 . S
C1236 C1238 1.388 . S
C1237 C1236 1.366 . S
C1237 C1241 1.385 . S
C1238 H1219 0.951 . S
C1238 C1236 1.388 . S
C1238 C1239 1.366 . S
C1239 C1238 1.366 . S
C1239 C1240 1.414 . S
C1239 C1242 1.499 . S
C1240 H1220 0.950 . S
C1240 C1239 1.414 . S
C1240 C1241 1.374 . S
C1241 H1221 0.946 1_545 S
C1241 C1237 1.385 . S
C1241 C1240 1.374 . S
C1242 C1239 1.499 . S
C1242 C1243 1.373 . S
C1242 C1244 1.389 . S
C1243 H1222 0.950 . S
C1243 C1242 1.373 . S
C1243 C1259 1.377 1_655 S
C1244 C1242 1.389 . S
C1244 C1245 1.524 . S
C1244 C1258 1.377 1_655 S
C1245 C1244 1.524 . S
C1245 C1246 1.397 . S
C1245 C1250 1.363 1_655 S
C1246 H1223 0.950 . S
C1246 C1245 1.397 . S
C1246 C1247 1.334 . S
C1247 H1224 0.950 . S
C1247 C1246 1.334 . S
C1247 C1248 1.287 . S
C1248 C1247 1.287 . S
C1248 C1249 1.505 1_655 S
C1248 H1267 0.913 . S
C1249 H1225 0.952 . S
C1249 C1248 1.505 1_455 S
C1249 C1250 1.433 . S
C1250 H1226 0.950 . S
C1250 C1245 1.363 1_455 S
C1250 C1249 1.433 . S
C1251 H1227 0.951 . S
C1251 C1252 1.366 . S
C1251 C1253 1.388 . S
C1252 C1251 1.366 . S
C1252 C1256 1.385 . S
C1253 H1228 0.951 . S
C1253 C1251 1.388 . S
C1253 C1254 1.366 . S
C1254 C1253 1.366 . S
C1254 C1255 1.414 . S
C1254 C1257 1.499 . S
C1255 H1229 0.950 . S
C1255 C1254 1.414 . S
C1255 C1256 1.374 . S
C1256 H1230 0.950 . S
C1256 C1252 1.385 . S
C1256 C1255 1.374 . S
C1257 C1254 1.499 . S
C1257 C1258 1.373 . S
C1257 C1259 1.389 . S
C1258 H1231 0.950 . S
C1258 C1244 1.377 1_455 S
C1258 C1257 1.373 . S
C1259 C1243 1.377 1_455 S
C1259 C1257 1.389 . S
C1259 C1260 1.524 . S
C1260 C1259 1.524 . S
C1260 C1261 1.397 . S
C1260 C1265 1.363 1_445 S
C1261 H1232 0.950 . S
C1261 C1260 1.397 . S
C1261 C1262 1.334 1_545 S
C1262 H1233 0.950 . S
C1262 C1261 1.334 1_565 S
C1262 C1263 1.287 . S
C1263 C1262 1.287 . S
C1263 C1264 1.524 1_455 S
C1263 H1266 0.999 . S
C1264 H1234 0.950 . S
C1264 C1263 1.524 1_655 S
C1264 C1265 1.415 . S
C1265 H1235 0.950 . S
C1265 C1260 1.363 1_665 S
C1265 C1264 1.415 . S
H1266 C1263 0.999 . S
H1267 C1248 0.913 . S
H1268 C1286 0.951 . S
H1269 C1288 0.951 . S
H1270 C1290 0.950 . S
H1271 C1291 0.950 . S
H1272 C1293 0.947 1_655 S
H1273 C1296 0.950 . S
H1274 C1297 0.950 . S
H1275 C1299 0.950 . S
H1276 C1300 0.950 . S
H1277 C1301 0.951 . S
H1278 C1303 0.951 . S
H1279 C1305 0.950 1_565 S
H1280 C1306 0.950 . S
H1281 C1308 0.950 . S
H1282 C1311 0.950 . S
H1283 C1312 0.950 . S
H1284 C1314 0.950 . S
H1285 C1315 0.950 . S
C1286 H1268 0.951 . S
C1286 C1287 1.366 . S
C1286 C1288 1.388 . S
C1287 C1286 1.366 . S
C1287 C1291 1.385 . S
C1288 H1269 0.951 . S
C1288 C1286 1.388 . S
C1288 C1289 1.366 . S
C1289 C1288 1.366 . S
C1289 C1290 1.414 . S
C1289 C1292 1.499 . S
C1290 H1270 0.950 . S
C1290 C1289 1.414 . S
C1290 C1291 1.374 . S
C1291 H1271 0.950 . S
C1291 C1287 1.385 . S
C1291 C1290 1.374 . S
C1292 C1289 1.499 . S
C1292 C1293 1.373 1_655 S
C1292 C1294 1.389 1_655 S
C1293 H1272 0.947 1_455 S
C1293 C1292 1.373 1_455 S
C1293 C1309 1.377 . S
C1294 C1292 1.389 1_455 S
C1294 C1295 1.524 1_455 S
C1294 C1308 1.377 . S
C1295 C1294 1.524 1_655 S
C1295 C1296 1.397 . S
C1295 C1300 1.363 1_655 S
C1296 H1273 0.950 . S
C1296 C1295 1.397 . S
C1296 C1297 1.334 . S
C1297 H1274 0.950 . S
C1297 C1296 1.334 . S
C1297 C1298 1.287 . S
C1298 C1297 1.287 . S
C1298 C1299 1.524 1_655 S
C1298 H1317 0.913 . S
C1299 H1275 0.950 . S
C1299 C1298 1.524 1_455 S
C1299 C1300 1.415 . S
C1300 H1276 0.950 . S
C1300 C1295 1.363 1_455 S
C1300 C1299 1.415 . S
C1301 H1277 0.951 . S
C1301 C1302 1.366 . S
C1301 C1303 1.388 . S
C1302 C1301 1.366 . S
C1302 C1306 1.385 . S
C1303 H1278 0.951 . S
C1303 C1301 1.388 . S
C1303 C1304 1.343 1_545 S
C1304 C1303 1.343 1_565 S
C1304 C1305 1.422 1_565 S
C1304 C1307 1.513 . S
C1305 H1279 0.950 1_545 S
C1305 C1304 1.422 1_545 S
C1305 C1306 1.374 . S
C1306 H1280 0.950 . S
C1306 C1302 1.385 . S
C1306 C1305 1.374 . S
C1307 C1304 1.513 . S
C1307 C1308 1.373 . S
C1307 C1309 1.389 . S
C1308 H1281 0.950 . S
C1308 C1294 1.377 . S
C1308 C1307 1.373 . S
C1309 C1293 1.377 . S
C1309 C1307 1.389 . S
C1309 C1310 1.524 . S
C1310 C1309 1.524 . S
C1310 C1311 1.397 . S
C1310 C1315 1.363 . S
C1311 H1282 0.950 . S
C1311 C1310 1.397 . S
C1311 C1312 1.334 . S
C1312 H1283 0.950 . S
C1312 C1311 1.334 . S
C1312 C1313 1.287 . S
C1313 C1312 1.287 . S
C1313 C1314 1.524 . S
C1313 H1316 0.999 1_565 S
C1314 H1284 0.950 . S
C1314 C1313 1.524 . S
C1314 C1315 1.415 . S
C1315 H1285 0.950 . S
C1315 C1310 1.363 . S
C1315 C1314 1.415 . S
H1316 C1313 0.999 1_545 S
H1317 C1298 0.913 . S
H1318 C1336 0.951 . S
H1319 C1338 0.951 . S
H1320 C1340 0.950 . S
H1321 C1341 0.950 . S
H1322 C1343 0.950 . S
H1323 C1346 0.950 . S
H1324 C1347 0.950 . S
H1325 C1349 0.950 . S
H1326 C1350 0.950 . S
H1327 C1351 0.951 1_655 S
H1328 C1353 0.951 1_655 S
H1329 C1355 0.950 . S
H1330 C1356 0.950 . S
H1331 C1358 0.950 . S
H1332 C1361 0.950 . S
H1333 C1362 0.950 . S
H1334 C1364 0.950 . S
H1335 C1365 0.950 . S
C1336 H1318 0.951 . S
C1336 C1337 1.366 . S
C1336 C1338 1.388 . S
C1337 C1336 1.366 . S
C1337 C1341 1.385 . S
C1338 H1319 0.951 . S
C1338 C1336 1.388 . S
C1338 C1339 1.366 . S
C1339 C1338 1.366 . S
C1339 C1340 1.414 . S
C1339 C1342 1.499 . S
C1340 H1320 0.950 . S
C1340 C1339 1.414 . S
C1340 C1341 1.374 . S
C1341 H1321 0.950 . S
C1341 C1337 1.385 . S
C1341 C1340 1.374 . S
C1342 C1339 1.499 . S
C1342 C1343 1.373 . S
C1342 C1344 1.389 . S
C1343 H1322 0.950 . S
C1343 C1342 1.373 . S
C1343 C1359 1.377 . S
C1344 C1342 1.389 . S
C1344 C1345 1.524 . S
C1344 C1358 1.377 1_565 S
C1345 C1344 1.524 . S
C1345 C1346 1.397 . S
C1345 C1350 1.363 1_565 S
C1346 H1323 0.950 . S
C1346 C1345 1.397 . S
C1346 C1347 1.334 . S
C1347 H1324 0.950 . S
C1347 C1346 1.334 . S
C1347 C1348 1.287 . S
C1348 C1347 1.287 . S
C1348 C1349 1.524 1_565 S
C1348 H1367 0.904 . S
C1349 H1325 0.950 . S
C1349 C1348 1.524 1_545 S
C1349 C1350 1.415 . S
C1350 H1326 0.950 . S
C1350 C1345 1.363 1_545 S
C1350 C1349 1.415 . S
C1351 H1327 0.951 1_455 S
C1351 C1352 1.366 . S
C1351 C1353 1.388 . S
C1352 C1351 1.366 . S
C1352 C1356 1.385 . S
C1353 H1328 0.951 1_455 S
C1353 C1351 1.388 . S
C1353 C1354 1.366 . S
C1354 C1353 1.366 . S
C1354 C1355 1.414 . S
C1354 C1357 1.499 . S
C1355 H1329 0.950 . S
C1355 C1354 1.414 . S
C1355 C1356 1.374 . S
C1356 H1330 0.950 . S
C1356 C1352 1.385 . S
C1356 C1355 1.374 . S
C1357 C1354 1.499 . S
C1357 C1358 1.373 . S
C1357 C1359 1.389 1_545 S
C1358 H1331 0.950 . S
C1358 C1344 1.377 1_545 S
C1358 C1357 1.373 . S
C1359 C1343 1.377 . S
C1359 C1357 1.389 1_565 S
C1359 C1360 1.524 1_455 S
C1360 C1359 1.524 1_655 S
C1360 C1361 1.397 1_665 S
C1360 C1365 1.363 . S
C1361 H1332 0.950 . S
C1361 C1360 1.397 1_445 S
C1361 C1362 1.334 1_455 S
C1362 H1333 0.950 . S
C1362 C1361 1.334 1_655 S
C1362 C1363 1.287 1_545 S
C1363 C1362 1.287 1_565 S
C1363 C1364 1.524 . S
C1363 H1366 0.999 . S
C1364 H1334 0.950 . S
C1364 C1363 1.524 . S
C1364 C1365 1.415 . S
C1365 H1335 0.950 . S
C1365 C1360 1.363 . S
C1365 C1364 1.415 . S
H1366 C1363 0.999 . S
H1367 C1348 0.904 . S
C187 C162 0.851 . S
C202 C8 0.847 . S
C237 C22 0.925 . S
C252 C92 0.914 . S
C287 C36 2.030 . S
C302 C106 2.009 . S
C337 C50 1.805 . S
C352 C120 1.806 . S
C387 C134 1.663 . S
C402 C64 1.636 . S
C437 C78 0.994 . S
C452 C148 0.999 . S
C487 C7 1.224 . S
C502 C147 1.221 . S
C537 C21 1.222 . S
C552 C161 1.222 . S
C587 C35 1.757 . S
C602 C91 1.810 . S
C637 C49 2.285 . S
C652 C105 2.268 . S
C687 C119 2.107 . S
C702 C63 2.109 . S
C737 C133 1.549 . S
C752 C77 1.578 . S
C787 C48 1.400 . S
C802 C6 1.399 . S
C837 C20 1.338 . S
C852 C62 1.338 . S
C887 C76 1.372 . S
C902 C34 1.378 . S
C937 C132 1.400 . S
C952 C90 1.399 . S
C987 C146 1.367 . S
C1002 C104 1.370 . S
C1037 C118 1.356 . S
C1052 C160 1.350 . S
C1087 C9 1.200 . S
C1102 C51 1.200 . S
C1137 C23 1.190 . S
C1152 C65 1.195 . S
C1187 C79 1.264 . S
C1202 C37 1.256 . S
C1237 C93 1.255 . S
C1252 C135 1.248 . S
C1287 C107 1.197 . S
C1302 C149 1.198 . S
C1337 C121 1.214 . S
C1352 C163 1.219 . S
