# Generated by pormake.
# Topology uoc, (4)-cn, num edge types: 1
# Building blocks:
#     Node 0, Type 0, BuildingBlock: QUQFOY_clean_sbu_3, # of connection points: 4
#     Node 1, Type 0, BuildingBlock: QUQFOY_clean_sbu_3, # of connection points: 4
#     Node 2, Type 0, BuildingBlock: QUQFOY_clean_sbu_3, # of connection points: 4
#     Node 3, Type 0, BuildingBlock: QUQFOY_clean_sbu_3, # of connection points: 4
#     Node 4, Type 0, BuildingBlock: QUQFOY_clean_sbu_3, # of connection points: 4
#     Node 5, Type 0, BuildingBlock: QUQFOY_clean_sbu_3, # of connection points: 4
#     Node 6, Type 0, BuildingBlock: QUQFOY_clean_sbu_3, # of connection points: 4
#     Node 7, Type 0, BuildingBlock: QUQFOY_clean_sbu_3, # of connection points: 4
#     Edge 8, Type (0, 0), BuildingBlock: XIVTED_clean_linker_0, # of connection points: 2
#     Edge 9, Type (0, 0), BuildingBlock: XIVTED_clean_linker_0, # of connection points: 2
#     Edge 10, Type (0, 0), BuildingBlock: XIVTED_clean_linker_0, # of connection points: 2
#     Edge 11, Type (0, 0), BuildingBlock: XIVTED_clean_linker_0, # of connection points: 2
#     Edge 12, Type (0, 0), BuildingBlock: XIVTED_clean_linker_0, # of connection points: 2
#     Edge 13, Type (0, 0), BuildingBlock: XIVTED_clean_linker_0, # of connection points: 2
#     Edge 14, Type (0, 0), BuildingBlock: XIVTED_clean_linker_0, # of connection points: 2
#     Edge 15, Type (0, 0), BuildingBlock: XIVTED_clean_linker_0, # of connection points: 2
#     Edge 16, Type (0, 0), BuildingBlock: XIVTED_clean_linker_0, # of connection points: 2
#     Edge 17, Type (0, 0), BuildingBlock: XIVTED_clean_linker_0, # of connection points: 2
#     Edge 18, Type (0, 0), BuildingBlock: XIVTED_clean_linker_0, # of connection points: 2
#     Edge 19, Type (0, 0), BuildingBlock: XIVTED_clean_linker_0, # of connection points: 2
#     Edge 20, Type (0, 0), BuildingBlock: XIVTED_clean_linker_0, # of connection points: 2
#     Edge 21, Type (0, 0), BuildingBlock: XIVTED_clean_linker_0, # of connection points: 2
#     Edge 22, Type (0, 0), BuildingBlock: XIVTED_clean_linker_0, # of connection points: 2
#     Edge 23, Type (0, 0), BuildingBlock: XIVTED_clean_linker_0, # of connection points: 2
# Relax obj value: 0.101
# Max RMSD: 0.112
# Mean RMSD: 0.112
data_MOF--net-uoc--node1-QUQFOY_clean_sbu_3--edge1-XIVTED_clean_linker_0
_symmetry_space_group_name_H-M    P1
_symmetry_Int_Tables_number       1
_symmetry_cell_setting            triclinic
loop_
_symmetry_equiv_pos_as_xyz
'x, y, z'
_cell_length_a     27.477665
_cell_length_b     27.525106
_cell_length_c     58.340165
_cell_angle_alpha  90.111758
_cell_angle_beta   89.868887
_cell_angle_gamma 96.733302
loop_
_atom_site_label
_atom_site_type_symbol
_atom_site_fract_x
_atom_site_fract_y
_atom_site_fract_z
_atom_type_partial_charge
C0 C 0.24515 0.27061 0.04965 0.0
O1 O 0.26861 0.24235 0.06136 0.0
Cd2 Cd 0.2357 0.20855 0.09676 0.0
O3 O 0.20482 0.28298 0.05703 0.0
Cd4 Cd 0.15178 0.27189 0.0909 0.0
C5 C 0.12352 0.15215 0.07983 0.0
O6 O 0.21376 0.27366 0.12095 0.0
O7 O 0.1394 0.24646 0.13046 0.0
O8 O 0.14519 0.35904 0.08935 0.0
C9 C 0.18303 0.26034 0.13663 0.0
O10 O 0.16635 0.14747 0.08717 0.0
C11 C 0.09874 0.35473 0.08872 0.0
O12 O 0.10928 0.19432 0.07801 0.0
O13 O 0.07663 0.31154 0.08905 0.0
C14 C 0.76153 0.7416 0.39004 0.0
O15 O 0.73358 0.7643 0.37777 0.0
Cd16 Cd 0.70269 0.73121 0.34193 0.0
O17 O 0.77503 0.70142 0.3831 0.0
Cd18 Cd 0.76612 0.64778 0.34929 0.0
C19 C 0.64521 0.61923 0.35807 0.0
O20 O 0.7705 0.70988 0.31926 0.0
O21 O 0.74394 0.63585 0.30922 0.0
O22 O 0.85306 0.63919 0.35204 0.0
C23 C 0.75854 0.67943 0.30333 0.0
O24 O 0.6408 0.66183 0.35046 0.0
C25 C 0.84757 0.5928 0.35269 0.0
O26 O 0.6874 0.60544 0.36079 0.0
O27 O 0.80392 0.57178 0.35193 0.0
C28 C 0.24772 0.2375 0.55462 0.0
O29 O 0.2273 0.26461 0.56837 0.0
Cd30 Cd 0.26653 0.28967 0.60393 0.0
O31 O 0.28849 0.22279 0.55974 0.0
Cd32 Cd 0.348 0.22759 0.5911 0.0
C33 C 0.37594 0.34915 0.58554 0.0
O34 O 0.29111 0.21907 0.62348 0.0
O35 O 0.36701 0.24374 0.63114 0.0
O36 O 0.35568 0.14145 0.58476 0.0
C37 C 0.32449 0.22836 0.63838 0.0
O38 O 0.33461 0.35263 0.59494 0.0
C39 C 0.4019 0.14708 0.58238 0.0
O40 O 0.38899 0.30746 0.5808 0.0
O41 O 0.42319 0.19048 0.58381 0.0
C42 C 0.73143 0.74213 0.88865 0.0
O43 O 0.7585 0.72311 0.87435 0.0
Cd44 Cd 0.77855 0.76204 0.83797 0.0
O45 O 0.71571 0.78273 0.88432 0.0
Cd46 Cd 0.71906 0.84487 0.85448 0.0
C47 C 0.84153 0.87038 0.85538 0.0
O48 O 0.7063 0.78957 0.82175 0.0
O49 O 0.73077 0.86541 0.81421 0.0
O50 O 0.63373 0.85168 0.86335 0.0
C51 C 0.71496 0.8231 0.80692 0.0
O52 O 0.84186 0.83109 0.84385 0.0
C53 C 0.63911 0.89772 0.86609 0.0
O54 O 0.80186 0.88235 0.86384 0.0
O55 O 0.68221 0.91952 0.86376 0.0
C56 C 0.73996 0.7647 0.55488 0.0
O57 O 0.7605 0.73744 0.56842 0.0
Cd58 Cd 0.72192 0.71164 0.60407 0.0
O59 O 0.69928 0.77946 0.56025 0.0
Cd60 Cd 0.63996 0.77483 0.59182 0.0
C61 C 0.61184 0.65323 0.58577 0.0
O62 O 0.69723 0.78191 0.62391 0.0
O63 O 0.6212 0.75834 0.63188 0.0
O64 O 0.63262 0.86115 0.58594 0.0
C65 C 0.66411 0.77239 0.63897 0.0
O66 O 0.65331 0.64944 0.59488 0.0
C67 C 0.58644 0.85561 0.58344 0.0
O68 O 0.59878 0.69505 0.5814 0.0
O69 O 0.56503 0.81224 0.58471 0.0
C70 C 0.25785 0.23635 0.88607 0.0
O71 O 0.23078 0.25583 0.87202 0.0
Cd72 Cd 0.20877 0.2168 0.83587 0.0
O73 O 0.27231 0.19513 0.88166 0.0
Cd74 Cd 0.2669 0.13193 0.85209 0.0
C75 C 0.14404 0.10927 0.85341 0.0
O76 O 0.28062 0.18781 0.81984 0.0
O77 O 0.25665 0.11224 0.81152 0.0
O78 O 0.35156 0.12409 0.86154 0.0
C79 C 0.27229 0.1549 0.80466 0.0
O80 O 0.14441 0.14888 0.84213 0.0
C81 C 0.34571 0.07803 0.86404 0.0
O82 O 0.18346 0.09621 0.86152 0.0
O83 O 0.30262 0.05656 0.86121 0.0
C84 C 0.76486 0.72856 0.05195 0.0
O85 O 0.74196 0.7578 0.06348 0.0
Cd86 Cd 0.77544 0.79347 0.09837 0.0
O87 O 0.80541 0.71653 0.05913 0.0
Cd88 Cd 0.85985 0.72977 0.0924 0.0
C89 C 0.88736 0.84945 0.08071 0.0
O90 O 0.79761 0.72844 0.12233 0.0
O91 O 0.8719 0.75459 0.13221 0.0
O92 O 0.86686 0.64274 0.09071 0.0
C93 C 0.82796 0.74135 0.13816 0.0
O94 O 0.84457 0.85428 0.08816 0.0
C95 C 0.9133 0.6472 0.08992 0.0
O96 O 0.90169 0.80728 0.07908 0.0
O97 O 0.93528 0.69045 0.09028 0.0
C98 C 0.22582 0.25896 0.38988 0.0
O99 O 0.25404 0.23609 0.37774 0.0
Cd100 Cd 0.28609 0.26845 0.34195 0.0
O101 O 0.21242 0.29902 0.38284 0.0
Cd102 Cd 0.22179 0.35224 0.34895 0.0
C103 C 0.34254 0.38105 0.35812 0.0
O104 O 0.21908 0.28981 0.31902 0.0
O105 O 0.24503 0.36392 0.30898 0.0
O106 O 0.13468 0.36055 0.35125 0.0
C107 C 0.23157 0.32007 0.3031 0.0
O108 O 0.34725 0.3383 0.35068 0.0
C109 C 0.14007 0.40694 0.35211 0.0
O110 O 0.30025 0.39484 0.3606 0.0
O111 O 0.1837 0.42805 0.35158 0.0
H112 H 0.20453 0.3317 0.02018 0.0
H113 H 0.33193 0.21856 0.9146 0.0
H114 H 0.32256 0.24166 0.02557 0.0
H115 H 0.21206 0.30599 0.90857 0.0
H116 H 0.34272 0.24435 0.95438 0.0
H117 H 0.22064 0.3404 -0.0208 0.0
C118 C 0.23442 0.31443 0.01283 0.0
C119 C 0.26135 0.2847 0.0262 0.0
C120 C 0.31452 0.25858 0.9443 0.0
C121 C 0.27967 0.29427 -0.02071 0.0
C122 C 0.30826 0.24376 0.92159 0.0
C123 C 0.27019 0.25918 0.90849 0.0
C124 C 0.28196 0.28839 0.95411 0.0
C125 C 0.24138 0.29266 0.91821 0.0
C126 C 0.2436 0.31947 -0.01059 0.0
C127 C 0.30022 0.26409 0.01584 0.0
N128 N 0.24719 0.30539 0.94064 0.0
N129 N 0.3076 0.26849 -0.0071 0.0
H130 H 0.71575 0.62992 0.26671 0.0
H131 H 0.87873 0.78325 0.17472 0.0
H132 H 0.81033 0.76072 0.28479 0.0
H133 H 0.7442 0.69435 0.15677 0.0
H134 H 0.85673 0.77361 0.21525 0.0
H135 H 0.72775 0.65061 0.22621 0.0
C136 C 0.73879 0.66316 0.26213 0.0
C137 C 0.76236 0.69355 0.27904 0.0
C138 C 0.83181 0.7567 0.20241 0.0
C139 C 0.77659 0.71707 0.23289 0.0
C140 C 0.84441 0.762 0.17932 0.0
C141 C 0.81335 0.73926 0.16245 0.0
C142 C 0.78833 0.72774 0.20859 0.0
C143 C 0.7692 0.71238 0.16928 0.0
C144 C 0.74543 0.67504 0.23905 0.0
C145 C 0.79156 0.73632 0.27223 0.0
N146 N 0.75826 0.70682 0.19189 0.0
N147 N 0.79841 0.74654 0.24961 0.0
H148 H 0.17488 0.27983 0.53291 0.0
H149 H 0.2531 0.17901 0.41229 0.0
H150 H 0.27401 0.17062 0.52378 0.0
H151 H 0.16769 0.29994 0.42085 0.0
H152 H 0.24263 0.16061 0.45302 0.0
H153 H 0.15374 0.27241 0.49226 0.0
C154 C 0.19147 0.2536 0.52247 0.0
C155 C 0.22718 0.2267 0.53158 0.0
C156 C 0.22554 0.19072 0.44591 0.0
C157 C 0.20345 0.21827 0.48516 0.0
C158 C 0.23149 0.20124 0.42264 0.0
C159 C 0.21233 0.24186 0.41328 0.0
C160 C 0.20053 0.22122 0.4599 0.0
C161 C 0.184 0.26887 0.42744 0.0
C162 C 0.17948 0.24947 0.49926 0.0
C163 C 0.24712 0.19292 0.51734 0.0
N164 N 0.17966 0.25857 0.45014 0.0
N165 N 0.23554 0.19021 0.49476 0.0
H166 H 0.66323 0.74407 0.78647 0.0
H167 H 0.74389 0.82304 0.6594 0.0
H168 H 0.75425 0.87894 0.77139 0.0
H169 H 0.60849 0.73258 0.67447 0.0
H170 H 0.75865 0.83351 0.70063 0.0
H171 H 0.65299 0.72902 0.74526 0.0
C172 C 0.68123 0.77034 0.77447 0.0
C173 C 0.70942 0.8129 0.78225 0.0
C174 C 0.72583 0.81128 0.69484 0.0
C175 C 0.69833 0.7957 0.73537 0.0
C176 C 0.71751 0.80512 0.67139 0.0
C177 C 0.67482 0.77711 0.66361 0.0
C178 C 0.69162 0.78856 0.7105 0.0
C179 C 0.6417 0.75475 0.67981 0.0
C180 C 0.67525 0.76182 0.75104 0.0
C181 C 0.73193 0.84584 0.76605 0.0
N182 N 0.65087 0.76084 0.70254 0.0
N183 N 0.72605 0.83646 0.74332 0.0
H184 H 0.18454 0.23659 0.28424 0.0
H185 H 0.26492 0.30941 0.15602 0.0
H186 H 0.27617 0.36977 0.26693 0.0
H187 H 0.13202 0.21631 0.17259 0.0
H188 H 0.28271 0.31869 0.19703 0.0
H189 H 0.17822 0.21586 0.2434 0.0
C190 C 0.20371 0.26117 0.27186 0.0
C191 C 0.23049 0.30517 0.27887 0.0
C192 C 0.2499 0.29592 0.19162 0.0
C193 C 0.22378 0.28156 0.23242 0.0
C194 C 0.23983 0.29047 0.16828 0.0
C195 C 0.19669 0.26249 0.161 0.0
C196 C 0.21691 0.27267 0.20766 0.0
C197 C 0.16541 0.23866 0.17755 0.0
C198 C 0.19998 0.24941 0.24863 0.0
C199 C 0.25471 0.33574 0.26218 0.0
N200 N 0.17608 0.24439 0.20016 0.0
N201 N 0.25071 0.32339 0.23968 0.0
H202 H 0.81336 0.72323 0.53294 0.0
H203 H 0.73291 0.82118 0.41247 0.0
H204 H 0.71249 0.83077 0.52408 0.0
H205 H 0.82029 0.70186 0.42093 0.0
H206 H 0.7432 0.84019 0.45317 0.0
H207 H 0.83413 0.73043 0.49223 0.0
C208 C 0.79629 0.74905 0.52255 0.0
C209 C 0.76022 0.77552 0.53176 0.0
C210 C 0.76075 0.81031 0.44604 0.0
C211 C 0.78352 0.78367 0.48526 0.0
C212 C 0.7549 0.79945 0.42279 0.0
C213 C 0.7747 0.75908 0.41341 0.0
C214 C 0.78632 0.78043 0.45999 0.0
C215 C 0.80348 0.73269 0.42753 0.0
C216 C 0.80807 0.75306 0.4993 0.0
C217 C 0.73968 0.8088 0.51757 0.0
N218 N 0.80775 0.74333 0.45021 0.0
N219 N 0.75106 0.81137 0.49495 0.0
H220 H 0.38053 0.26582 0.67415 0.0
H221 H 0.23472 0.10014 0.76834 0.0
H222 H 0.24691 0.17316 0.65846 0.0
H223 H 0.32277 0.23572 0.78528 0.0
H224 H 0.24519 0.12006 0.7276 0.0
H225 H 0.36618 0.24932 0.71493 0.0
C226 C 0.34808 0.24216 0.67932 0.0
C227 C 0.31481 0.22078 0.66299 0.0
C228 C 0.26198 0.14548 0.74028 0.0
C229 C 0.29863 0.20136 0.70941 0.0
C230 C 0.25626 0.13406 0.76347 0.0
C231 C 0.27796 0.16639 0.78012 0.0
C232 C 0.29029 0.18904 0.73379 0.0
C233 C 0.30534 0.20991 0.77294 0.0
C234 C 0.33988 0.2329 0.70255 0.0
C235 C 0.27332 0.19048 0.67056 0.0
N236 N 0.31108 0.21983 0.75025 0.0
N237 N 0.2666 0.18124 0.69327 0.0
H238 H 0.80474 0.66603 0.02273 0.0
H239 H 0.65836 0.75833 0.91827 0.0
H240 H 0.68418 0.75277 0.02903 0.0
H241 H 0.78255 0.67689 0.9111 0.0
H242 H 0.65352 0.73728 0.95879 0.0
H243 H 0.78371 0.65108 -0.01745 0.0
C244 C 0.77336 0.68134 0.01577 0.0
C245 C 0.74699 0.71187 0.02909 0.0
C246 C 0.68134 0.72325 0.94832 0.0
C247 C 0.72293 0.695 -0.0169 0.0
C248 C 0.68415 0.73528 0.92517 0.0
C249 C 0.72176 0.72039 0.91149 0.0
C250 C 0.71691 0.69683 0.95793 0.0
C251 C 0.75345 0.68973 0.92116 0.0
C252 C 0.76134 0.67269 -0.00718 0.0
C253 C 0.70616 0.72986 0.01928 0.0
N254 N 0.75101 0.67983 0.94397 0.0
N255 N 0.69591 0.72187 -0.00325 0.0
H256 H 0.02544 0.14699 0.07024 0.0
H257 H 0.98534 0.85443 0.07073 0.0
H258 H 0.14265 0.05667 0.07812 0.0
H259 H 0.86815 0.94488 0.07874 0.0
H260 H 0.04319 0.9282 0.06606 0.0
H261 H 0.96752 0.07313 0.06599 0.0
C262 C 0.03913 0.11168 0.07084 0.0
C263 C 0.08896 0.10805 0.07482 0.0
C264 C 0.00475 0.93184 0.06867 0.0
C265 C 0.02275 0.0234 0.06999 0.0
C266 C 0.97163 0.88974 0.07127 0.0
C267 C 0.92183 0.89345 0.07541 0.0
C268 C 0.98797 0.978 0.07011 0.0
C269 C 0.90626 0.94025 0.07583 0.0
C270 C 0.00598 0.06954 0.06848 0.0
C271 C 0.10452 0.06125 0.07533 0.0
N272 N 0.93926 0.98069 0.07336 0.0
N273 N 0.07149 0.02077 0.07309 0.0
H274 H 0.14014 0.50633 0.35385 0.0
H275 H 0.84737 0.49334 0.35379 0.0
H276 H 0.04297 0.37119 0.35314 0.0
H277 H 0.94463 0.62842 0.35419 0.0
H278 H 0.91858 0.44785 0.35465 0.0
H279 H 0.0689 0.55173 0.35504 0.0
C280 C 0.10382 0.48621 0.35399 0.0
C281 C 0.09746 0.43492 0.35334 0.0
C282 C 0.92435 0.48744 0.3546 0.0
C283 C 0.01577 0.4866 0.35469 0.0
C284 C 0.8837 0.51342 0.35412 0.0
C285 C 0.8901 0.56473 0.35387 0.0
C286 C 0.97173 0.51296 0.35481 0.0
C287 C 0.938 0.58887 0.35433 0.0
C288 C 0.06315 0.51214 0.35467 0.0
C289 C 0.04956 0.41073 0.35359 0.0
N290 N 0.97698 0.56277 0.35473 0.0
N291 N 0.01056 0.43679 0.3542 0.0
H292 H 0.47347 0.3552 0.57475 0.0
H293 H 0.51401 0.64752 0.57581 0.0
H294 H 0.35704 0.44471 0.58706 0.0
H295 H 0.63071 0.55764 0.58629 0.0
H296 H 0.45606 0.57344 0.57226 0.0
H297 H 0.53128 0.42939 0.5713 0.0
C298 C 0.45992 0.39043 0.57649 0.0
C299 C 0.41036 0.39374 0.5814 0.0
C300 C 0.49441 0.57001 0.57519 0.0
C301 C 0.47638 0.47865 0.57741 0.0
C302 C 0.52758 0.61224 0.57712 0.0
C303 C 0.57727 0.60878 0.58155 0.0
C304 C 0.5111 0.524 0.57745 0.0
C305 C 0.59268 0.56205 0.58309 0.0
C306 C 0.49302 0.43272 0.57461 0.0
C307 C 0.39497 0.44042 0.58347 0.0
N308 N 0.55968 0.52146 0.5811 0.0
N309 N 0.42791 0.48107 0.58153 0.0
H310 H 0.63833 0.9965 0.87157 0.0
H311 H 0.34584 0.97898 0.86879 0.0
H312 H 0.543 0.8602 0.87045 0.0
H313 H 0.44138 0.11514 0.87019 0.0
H314 H 0.41732 0.93469 0.87341 0.0
H315 H 0.56642 0.04054 0.87513 0.0
C316 C 0.6023 0.97582 0.87227 0.0
C317 C 0.5966 0.92466 0.87046 0.0
C318 C 0.4226 0.97428 0.87288 0.0
C319 C 0.51416 0.97475 0.8744 0.0
C320 C 0.3818 -0.00044 0.87026 0.0
C321 C 0.38774 0.05077 0.86886 0.0
C322 C 0.46966 0.00042 0.87403 0.0
C323 C 0.43514 0.07561 0.87098 0.0
C324 C 0.56125 0.00097 0.87429 0.0
C325 C 0.54907 0.89971 0.8716 0.0
N326 N 0.4743 0.05018 0.87328 0.0
N327 N 0.50967 0.92502 0.8733 0.0
H328 H 0.87516 0.55104 0.08862 0.0
H329 H 0.13703 0.4509 0.0877 0.0
H330 H 0.01266 0.64473 0.08873 0.0
H331 H -0.00055 0.35737 0.08791 0.0
H332 H 0.09215 0.52234 0.08714 0.0
H333 H 0.9201 0.4797 0.08744 0.0
C334 C 0.91485 0.55662 0.08836 0.0
C335 C 0.94024 0.6039 0.08883 0.0
C336 C 0.07175 0.48621 0.08727 0.0
C337 C 0.99193 0.52234 0.0875 0.0
C338 C 0.09735 0.44538 0.08759 0.0
C339 C 0.0719 0.39811 0.08791 0.0
C340 C 0.0203 0.47976 0.08729 0.0
C341 C 0.02052 0.39315 0.08771 0.0
C342 C 0.94048 0.51584 0.08769 0.0
C343 C 0.99163 0.60893 0.08843 0.0
N344 N 0.9964 0.4335 0.08746 0.0
N345 N 0.0158 0.56861 0.08783 0.0
H346 H 0.34721 0.47924 0.36707 0.0
H347 H 0.64022 0.52136 0.36764 0.0
H348 H 0.4385 0.36282 0.35906 0.0
H349 H 0.54922 0.63751 0.35834 0.0
H350 H 0.56643 0.46311 0.37139 0.0
H351 H 0.42088 0.53766 0.37077 0.0
C352 C 0.3827 0.46584 0.36631 0.0
C353 C 0.38666 0.41605 0.36253 0.0
C354 C 0.56266 0.5014 0.36867 0.0
C355 C 0.47108 0.48284 0.36674 0.0
C356 C 0.60476 0.53475 0.3666 0.0
C357 C 0.60094 0.5844 0.36245 0.0
C358 C 0.51637 0.5178 0.36672 0.0
C359 C 0.55395 0.59954 0.36132 0.0
C360 C 0.42473 0.49928 0.36835 0.0
C361 C 0.43368 0.40089 0.36175 0.0
N362 N 0.51351 0.56633 0.36335 0.0
N363 N 0.47405 0.43418 0.36373 0.0
H364 H 0.50119 0.1474 0.57826 0.0
H365 H 0.48735 0.85535 0.57867 0.0
H366 H 0.36573 0.05052 0.57912 0.0
H367 H 0.62279 0.95218 0.58048 0.0
H368 H 0.44224 0.92641 0.57538 0.0
H369 H 0.54649 0.0763 0.57557 0.0
C370 C 0.48097 0.11118 0.57773 0.0
C371 C 0.42965 0.10482 0.5791 0.0
C372 C 0.48185 0.93211 0.57637 0.0
C373 C 0.48119 0.02334 0.5761 0.0
C374 C 0.50761 0.89155 0.57824 0.0
C375 C 0.55886 0.89791 0.58002 0.0
C376 C 0.50752 0.97936 0.57632 0.0
C377 C 0.58325 0.94562 0.57928 0.0
C378 C 0.50684 0.07061 0.57622 0.0
C379 C 0.40532 0.05709 0.57825 0.0
N380 N 0.55734 0.98454 0.57761 0.0
N381 N 0.43132 0.01817 0.57694 0.0
H382 H 0.87256 0.93072 0.89128 0.0
H383 H 0.07054 0.09585 0.82223 0.0
H384 H 0.91308 0.88778 0.82334 0.0
H385 H 0.11328 0.04722 0.88871 0.0
H386 H 0.99679 0.03653 0.82402 0.0
H387 H 0.94733 0.9899 0.8925 0.0
C388 C 0.89723 0.9337 0.87671 0.0
C389 C 0.88698 0.90434 0.85722 0.0
C390 C 0.02224 0.03929 0.83825 0.0
C391 C 0.97064 0.97221 0.85828 0.0
C392 C 0.06402 0.07316 0.83734 0.0
C393 C 0.09795 0.07623 0.85534 0.0
C394 C 0.01367 0.00937 0.85757 0.0
C395 C 0.088 0.04567 0.87445 0.0
C396 C 0.93966 0.96716 0.87746 0.0
C397 C 0.91994 0.90947 0.83875 0.0
N398 N 0.04635 0.01358 0.87518 0.0
N399 N 0.95997 0.94336 0.83958 0.0
loop_
_geom_bond_atom_site_label_1
_geom_bond_atom_site_label_2
_geom_bond_distance
_geom_bond_site_symmetry_2
_ccdc_geom_bond_type
C0 O1 1.306 . S
C0 O3 1.160 . S
O1 C0 1.306 . S
O1 Cd2 2.228 . S
Cd2 O1 2.228 . S
Cd2 O6 2.273 . S
Cd2 O10 2.277 . S
O3 C0 1.160 . S
O3 Cd4 2.203 . S
Cd4 O3 2.203 . S
Cd4 O6 2.411 . S
Cd4 O7 2.333 . S
Cd4 O8 2.352 . S
Cd4 O12 2.277 . S
Cd4 O13 2.356 . S
C5 O10 1.209 . S
C5 O12 1.226 . S
O6 Cd2 2.273 . S
O6 Cd4 2.411 . S
O6 C9 1.320 . S
O7 Cd4 2.333 . S
O7 C9 1.214 . S
O8 Cd4 2.352 . S
O8 C11 1.258 . S
C9 O6 1.320 . S
C9 O7 1.214 . S
O10 Cd2 2.277 . S
O10 C5 1.209 . S
C11 O8 1.258 . S
C11 O13 1.282 . S
O12 Cd4 2.277 . S
O12 C5 1.226 . S
O13 Cd4 2.356 . S
O13 C11 1.282 . S
C14 O15 1.306 . S
C14 O17 1.160 . S
O15 C14 1.306 . S
O15 Cd16 2.228 . S
Cd16 O15 2.228 . S
Cd16 O20 2.273 . S
Cd16 O24 2.277 . S
O17 C14 1.160 . S
O17 Cd18 2.203 . S
Cd18 O17 2.203 . S
Cd18 O20 2.411 . S
Cd18 O21 2.333 . S
Cd18 O22 2.352 . S
Cd18 O26 2.277 . S
Cd18 O27 2.356 . S
C19 O24 1.209 . S
C19 O26 1.226 . S
O20 Cd16 2.273 . S
O20 Cd18 2.411 . S
O20 C23 1.320 . S
O21 Cd18 2.333 . S
O21 C23 1.214 . S
O22 Cd18 2.352 . S
O22 C25 1.258 . S
C23 O20 1.320 . S
C23 O21 1.214 . S
O24 Cd16 2.277 . S
O24 C19 1.209 . S
C25 O22 1.258 . S
C25 O27 1.282 . S
O26 Cd18 2.277 . S
O26 C19 1.226 . S
O27 Cd18 2.356 . S
O27 C25 1.282 . S
C28 O29 1.306 . S
C28 O31 1.160 . S
O29 C28 1.306 . S
O29 Cd30 2.228 . S
Cd30 O29 2.228 . S
Cd30 O34 2.273 . S
Cd30 O38 2.277 . S
O31 C28 1.160 . S
O31 Cd32 2.203 . S
Cd32 O31 2.203 . S
Cd32 O34 2.411 . S
Cd32 O35 2.333 . S
Cd32 O36 2.352 . S
Cd32 O40 2.277 . S
Cd32 O41 2.356 . S
C33 O38 1.209 . S
C33 O40 1.226 . S
O34 Cd30 2.273 . S
O34 Cd32 2.411 . S
O34 C37 1.320 . S
O35 Cd32 2.333 . S
O35 C37 1.214 . S
O36 Cd32 2.352 . S
O36 C39 1.258 . S
C37 O34 1.320 . S
C37 O35 1.214 . S
O38 Cd30 2.277 . S
O38 C33 1.209 . S
C39 O36 1.258 . S
C39 O41 1.282 . S
O40 Cd32 2.277 . S
O40 C33 1.226 . S
O41 Cd32 2.356 . S
O41 C39 1.282 . S
C42 O43 1.306 . S
C42 O45 1.160 . S
O43 C42 1.306 . S
O43 Cd44 2.228 . S
Cd44 O43 2.228 . S
Cd44 O48 2.273 . S
Cd44 O52 2.277 . S
O45 C42 1.160 . S
O45 Cd46 2.203 . S
Cd46 O45 2.203 . S
Cd46 O48 2.411 . S
Cd46 O49 2.333 . S
Cd46 O50 2.352 . S
Cd46 O54 2.277 . S
Cd46 O55 2.356 . S
C47 O52 1.209 . S
C47 O54 1.226 . S
O48 Cd44 2.273 . S
O48 Cd46 2.411 . S
O48 C51 1.320 . S
O49 Cd46 2.333 . S
O49 C51 1.214 . S
O50 Cd46 2.352 . S
O50 C53 1.258 . S
C51 O48 1.320 . S
C51 O49 1.214 . S
O52 Cd44 2.277 . S
O52 C47 1.209 . S
C53 O50 1.258 . S
C53 O55 1.282 . S
O54 Cd46 2.277 . S
O54 C47 1.226 . S
O55 Cd46 2.356 . S
O55 C53 1.282 . S
C56 O57 1.306 . S
C56 O59 1.160 . S
O57 C56 1.306 . S
O57 Cd58 2.228 . S
Cd58 O57 2.228 . S
Cd58 O62 2.273 . S
Cd58 O66 2.277 . S
O59 C56 1.160 . S
O59 Cd60 2.203 . S
Cd60 O59 2.203 . S
Cd60 O62 2.411 . S
Cd60 O63 2.333 . S
Cd60 O64 2.352 . S
Cd60 O68 2.277 . S
Cd60 O69 2.356 . S
C61 O66 1.209 . S
C61 O68 1.226 . S
O62 Cd58 2.273 . S
O62 Cd60 2.411 . S
O62 C65 1.320 . S
O63 Cd60 2.333 . S
O63 C65 1.214 . S
O64 Cd60 2.352 . S
O64 C67 1.258 . S
C65 O62 1.320 . S
C65 O63 1.214 . S
O66 Cd58 2.277 . S
O66 C61 1.209 . S
C67 O64 1.258 . S
C67 O69 1.282 . S
O68 Cd60 2.277 . S
O68 C61 1.226 . S
O69 Cd60 2.356 . S
O69 C67 1.282 . S
C70 O71 1.306 . S
C70 O73 1.160 . S
O71 C70 1.306 . S
O71 Cd72 2.228 . S
Cd72 O71 2.228 . S
Cd72 O76 2.273 . S
Cd72 O80 2.277 . S
O73 C70 1.160 . S
O73 Cd74 2.203 . S
Cd74 O73 2.203 . S
Cd74 O76 2.411 . S
Cd74 O77 2.333 . S
Cd74 O78 2.352 . S
Cd74 O82 2.277 . S
Cd74 O83 2.356 . S
C75 O80 1.209 . S
C75 O82 1.226 . S
O76 Cd72 2.273 . S
O76 Cd74 2.411 . S
O76 C79 1.320 . S
O77 Cd74 2.333 . S
O77 C79 1.214 . S
O78 Cd74 2.352 . S
O78 C81 1.258 . S
C79 O76 1.320 . S
C79 O77 1.214 . S
O80 Cd72 2.277 . S
O80 C75 1.209 . S
C81 O78 1.258 . S
C81 O83 1.282 . S
O82 Cd74 2.277 . S
O82 C75 1.226 . S
O83 Cd74 2.356 . S
O83 C81 1.282 . S
C84 O85 1.306 . S
C84 O87 1.160 . S
O85 C84 1.306 . S
O85 Cd86 2.228 . S
Cd86 O85 2.228 . S
Cd86 O90 2.273 . S
Cd86 O94 2.277 . S
O87 C84 1.160 . S
O87 Cd88 2.203 . S
Cd88 O87 2.203 . S
Cd88 O90 2.411 . S
Cd88 O91 2.333 . S
Cd88 O92 2.352 . S
Cd88 O96 2.277 . S
Cd88 O97 2.356 . S
C89 O94 1.209 . S
C89 O96 1.226 . S
O90 Cd86 2.273 . S
O90 Cd88 2.411 . S
O90 C93 1.320 . S
O91 Cd88 2.333 . S
O91 C93 1.214 . S
O92 Cd88 2.352 . S
O92 C95 1.258 . S
C93 O90 1.320 . S
C93 O91 1.214 . S
O94 Cd86 2.277 . S
O94 C89 1.209 . S
C95 O92 1.258 . S
C95 O97 1.282 . S
O96 Cd88 2.277 . S
O96 C89 1.226 . S
O97 Cd88 2.356 . S
O97 C95 1.282 . S
C98 O99 1.306 . S
C98 O101 1.160 . S
O99 C98 1.306 . S
O99 Cd100 2.228 . S
Cd100 O99 2.228 . S
Cd100 O104 2.273 . S
Cd100 O108 2.277 . S
O101 C98 1.160 . S
O101 Cd102 2.203 . S
Cd102 O101 2.203 . S
Cd102 O104 2.411 . S
Cd102 O105 2.333 . S
Cd102 O106 2.352 . S
Cd102 O110 2.277 . S
Cd102 O111 2.356 . S
C103 O108 1.209 . S
C103 O110 1.226 . S
O104 Cd100 2.273 . S
O104 Cd102 2.411 . S
O104 C107 1.320 . S
O105 Cd102 2.333 . S
O105 C107 1.214 . S
O106 Cd102 2.352 . S
O106 C109 1.258 . S
C107 O104 1.320 . S
C107 O105 1.214 . S
O108 Cd100 2.277 . S
O108 C103 1.209 . S
C109 O106 1.258 . S
C109 O111 1.282 . S
O110 Cd102 2.277 . S
O110 C103 1.226 . S
O111 Cd102 2.356 . S
O111 C109 1.282 . S
H112 C118 0.930 . S
H113 C122 0.930 . S
H114 C127 0.929 . S
H115 C125 0.929 . S
H116 C120 0.929 . S
H117 C126 0.929 . S
C118 H112 0.930 . S
C118 C119 1.367 . S
C118 C126 1.378 . S
C119 C118 1.367 . S
C119 C127 1.433 . S
C120 H116 0.929 . S
C120 C122 1.378 . S
C120 C124 1.350 . S
C121 C124 1.463 1_554 S
C121 C126 1.350 . S
C121 N129 1.427 . S
C122 H113 0.930 . S
C122 C120 1.378 . S
C122 C123 1.367 . S
C123 C122 1.367 . S
C123 C125 1.433 . S
C124 C120 1.350 . S
C124 C121 1.463 1_556 S
C124 N128 1.427 . S
C125 H115 0.929 . S
C125 C123 1.433 . S
C125 N128 1.384 . S
C126 H117 0.929 . S
C126 C118 1.378 . S
C126 C121 1.350 . S
C127 H114 0.929 . S
C127 C119 1.433 . S
C127 N129 1.384 . S
N128 C124 1.427 . S
N128 C125 1.384 . S
N129 C121 1.427 . S
N129 C127 1.384 . S
H130 C136 0.930 . S
H131 C140 0.930 . S
H132 C145 0.929 . S
H133 C143 0.929 . S
H134 C138 0.929 . S
H135 C144 0.929 . S
C136 H130 0.930 . S
C136 C137 1.367 . S
C136 C144 1.378 . S
C137 C136 1.367 . S
C137 C145 1.433 . S
C138 H134 0.929 . S
C138 C140 1.378 . S
C138 C142 1.350 . S
C139 C142 1.463 . S
C139 C144 1.350 . S
C139 N147 1.427 . S
C140 H131 0.930 . S
C140 C138 1.378 . S
C140 C141 1.367 . S
C141 C140 1.367 . S
C141 C143 1.433 . S
C142 C138 1.350 . S
C142 C139 1.463 . S
C142 N146 1.427 . S
C143 H133 0.929 . S
C143 C141 1.433 . S
C143 N146 1.384 . S
C144 H135 0.929 . S
C144 C136 1.378 . S
C144 C139 1.350 . S
C145 H132 0.929 . S
C145 C137 1.433 . S
C145 N147 1.384 . S
N146 C142 1.427 . S
N146 C143 1.384 . S
N147 C139 1.427 . S
N147 C145 1.384 . S
H148 C154 0.930 . S
H149 C158 0.930 . S
H150 C163 0.929 . S
H151 C161 0.929 . S
H152 C156 0.929 . S
H153 C162 0.929 . S
C154 H148 0.930 . S
C154 C155 1.367 . S
C154 C162 1.378 . S
C155 C154 1.367 . S
C155 C163 1.433 . S
C156 H152 0.929 . S
C156 C158 1.378 . S
C156 C160 1.350 . S
C157 C160 1.463 . S
C157 C162 1.350 . S
C157 N165 1.427 . S
C158 H149 0.930 . S
C158 C156 1.378 . S
C158 C159 1.367 . S
C159 C158 1.367 . S
C159 C161 1.433 . S
C160 C156 1.350 . S
C160 C157 1.463 . S
C160 N164 1.427 . S
C161 H151 0.929 . S
C161 C159 1.433 . S
C161 N164 1.384 . S
C162 H153 0.929 . S
C162 C154 1.378 . S
C162 C157 1.350 . S
C163 H150 0.929 . S
C163 C155 1.433 . S
C163 N165 1.384 . S
N164 C160 1.427 . S
N164 C161 1.384 . S
N165 C157 1.427 . S
N165 C163 1.384 . S
H166 C172 0.930 . S
H167 C176 0.930 . S
H168 C181 0.929 . S
H169 C179 0.929 . S
H170 C174 0.929 . S
H171 C180 0.929 . S
C172 H166 0.930 . S
C172 C173 1.367 . S
C172 C180 1.378 . S
C173 C172 1.367 . S
C173 C181 1.433 . S
C174 H170 0.929 . S
C174 C176 1.378 . S
C174 C178 1.350 . S
C175 C178 1.463 . S
C175 C180 1.350 . S
C175 N183 1.427 . S
C176 H167 0.930 . S
C176 C174 1.378 . S
C176 C177 1.367 . S
C177 C176 1.367 . S
C177 C179 1.433 . S
C178 C174 1.350 . S
C178 C175 1.463 . S
C178 N182 1.427 . S
C179 H169 0.929 . S
C179 C177 1.433 . S
C179 N182 1.384 . S
C180 H171 0.929 . S
C180 C172 1.378 . S
C180 C175 1.350 . S
C181 H168 0.929 . S
C181 C173 1.433 . S
C181 N183 1.384 . S
N182 C178 1.427 . S
N182 C179 1.384 . S
N183 C175 1.427 . S
N183 C181 1.384 . S
H184 C190 0.930 . S
H185 C194 0.930 . S
H186 C199 0.929 . S
H187 C197 0.929 . S
H188 C192 0.929 . S
H189 C198 0.929 . S
C190 H184 0.930 . S
C190 C191 1.367 . S
C190 C198 1.378 . S
C191 C190 1.367 . S
C191 C199 1.433 . S
C192 H188 0.929 . S
C192 C194 1.378 . S
C192 C196 1.350 . S
C193 C196 1.463 . S
C193 C198 1.350 . S
C193 N201 1.427 . S
C194 H185 0.930 . S
C194 C192 1.378 . S
C194 C195 1.367 . S
C195 C194 1.367 . S
C195 C197 1.433 . S
C196 C192 1.350 . S
C196 C193 1.463 . S
C196 N200 1.427 . S
C197 H187 0.929 . S
C197 C195 1.433 . S
C197 N200 1.384 . S
C198 H189 0.929 . S
C198 C190 1.378 . S
C198 C193 1.350 . S
C199 H186 0.929 . S
C199 C191 1.433 . S
C199 N201 1.384 . S
N200 C196 1.427 . S
N200 C197 1.384 . S
N201 C193 1.427 . S
N201 C199 1.384 . S
H202 C208 0.930 . S
H203 C212 0.930 . S
H204 C217 0.929 . S
H205 C215 0.929 . S
H206 C210 0.929 . S
H207 C216 0.929 . S
C208 H202 0.930 . S
C208 C209 1.367 . S
C208 C216 1.378 . S
C209 C208 1.367 . S
C209 C217 1.433 . S
C210 H206 0.929 . S
C210 C212 1.378 . S
C210 C214 1.350 . S
C211 C214 1.463 . S
C211 C216 1.350 . S
C211 N219 1.427 . S
C212 H203 0.930 . S
C212 C210 1.378 . S
C212 C213 1.367 . S
C213 C212 1.367 . S
C213 C215 1.433 . S
C214 C210 1.350 . S
C214 C211 1.463 . S
C214 N218 1.427 . S
C215 H205 0.929 . S
C215 C213 1.433 . S
C215 N218 1.384 . S
C216 H207 0.929 . S
C216 C208 1.378 . S
C216 C211 1.350 . S
C217 H204 0.929 . S
C217 C209 1.433 . S
C217 N219 1.384 . S
N218 C214 1.427 . S
N218 C215 1.384 . S
N219 C211 1.427 . S
N219 C217 1.384 . S
H220 C226 0.930 . S
H221 C230 0.930 . S
H222 C235 0.929 . S
H223 C233 0.929 . S
H224 C228 0.929 . S
H225 C234 0.929 . S
C226 H220 0.930 . S
C226 C227 1.367 . S
C226 C234 1.378 . S
C227 C226 1.367 . S
C227 C235 1.433 . S
C228 H224 0.929 . S
C228 C230 1.378 . S
C228 C232 1.350 . S
C229 C232 1.463 . S
C229 C234 1.350 . S
C229 N237 1.427 . S
C230 H221 0.930 . S
C230 C228 1.378 . S
C230 C231 1.367 . S
C231 C230 1.367 . S
C231 C233 1.433 . S
C232 C228 1.350 . S
C232 C229 1.463 . S
C232 N236 1.427 . S
C233 H223 0.929 . S
C233 C231 1.433 . S
C233 N236 1.384 . S
C234 H225 0.929 . S
C234 C226 1.378 . S
C234 C229 1.350 . S
C235 H222 0.929 . S
C235 C227 1.433 . S
C235 N237 1.384 . S
N236 C232 1.427 . S
N236 C233 1.384 . S
N237 C229 1.427 . S
N237 C235 1.384 . S
H238 C244 0.930 . S
H239 C248 0.930 . S
H240 C253 0.929 . S
H241 C251 0.929 . S
H242 C246 0.929 . S
H243 C252 0.929 . S
C244 H238 0.930 . S
C244 C245 1.367 . S
C244 C252 1.378 . S
C245 C244 1.367 . S
C245 C253 1.433 . S
C246 H242 0.929 . S
C246 C248 1.378 . S
C246 C250 1.350 . S
C247 C250 1.463 1_554 S
C247 C252 1.350 . S
C247 N255 1.427 . S
C248 H239 0.930 . S
C248 C246 1.378 . S
C248 C249 1.367 . S
C249 C248 1.367 . S
C249 C251 1.433 . S
C250 C246 1.350 . S
C250 C247 1.463 1_556 S
C250 N254 1.427 . S
C251 H241 0.929 . S
C251 C249 1.433 . S
C251 N254 1.384 . S
C252 H243 0.929 . S
C252 C244 1.378 . S
C252 C247 1.350 . S
C253 H240 0.929 . S
C253 C245 1.433 . S
C253 N255 1.384 . S
N254 C250 1.427 . S
N254 C251 1.384 . S
N255 C247 1.427 . S
N255 C253 1.384 . S
H256 C262 0.930 . S
H257 C266 0.930 . S
H258 C271 0.929 . S
H259 C269 0.929 . S
H260 C264 0.929 . S
H261 C270 0.929 . S
C262 H256 0.930 . S
C262 C263 1.367 . S
C262 C270 1.378 1_455 S
C263 C262 1.367 . S
C263 C271 1.433 . S
C264 H260 0.929 . S
C264 C266 1.378 1_455 S
C264 C268 1.350 1_455 S
C265 C268 1.463 1_445 S
C265 C270 1.350 1_455 S
C265 N273 1.427 . S
C266 H257 0.930 . S
C266 C264 1.378 1_655 S
C266 C267 1.367 . S
C267 C266 1.367 . S
C267 C269 1.433 . S
C268 C264 1.350 1_655 S
C268 C265 1.463 1_665 S
C268 N272 1.427 . S
C269 H259 0.929 . S
C269 C267 1.433 . S
C269 N272 1.384 . S
C270 H261 0.929 . S
C270 C262 1.378 1_655 S
C270 C265 1.350 1_655 S
C271 H258 0.929 . S
C271 C263 1.433 . S
C271 N273 1.384 . S
N272 C268 1.427 . S
N272 C269 1.384 . S
N273 C265 1.427 . S
N273 C271 1.384 . S
H274 C280 0.930 . S
H275 C284 0.930 . S
H276 C289 0.929 . S
H277 C287 0.929 . S
H278 C282 0.929 . S
H279 C288 0.929 . S
C280 H274 0.930 . S
C280 C281 1.367 . S
C280 C288 1.378 . S
C281 C280 1.367 . S
C281 C289 1.433 . S
C282 H278 0.929 . S
C282 C284 1.378 . S
C282 C286 1.350 . S
C283 C286 1.463 1_455 S
C283 C288 1.350 . S
C283 N291 1.427 . S
C284 H275 0.930 . S
C284 C282 1.378 . S
C284 C285 1.367 . S
C285 C284 1.367 . S
C285 C287 1.433 . S
C286 C282 1.350 . S
C286 C283 1.463 1_655 S
C286 N290 1.427 . S
C287 H277 0.929 . S
C287 C285 1.433 . S
C287 N290 1.384 . S
C288 H279 0.929 . S
C288 C280 1.378 . S
C288 C283 1.350 . S
C289 H276 0.929 . S
C289 C281 1.433 . S
C289 N291 1.384 . S
N290 C286 1.427 . S
N290 C287 1.384 . S
N291 C283 1.427 . S
N291 C289 1.384 . S
H292 C298 0.930 . S
H293 C302 0.930 . S
H294 C307 0.929 . S
H295 C305 0.929 . S
H296 C300 0.929 . S
H297 C306 0.929 . S
C298 H292 0.930 . S
C298 C299 1.367 . S
C298 C306 1.378 . S
C299 C298 1.367 . S
C299 C307 1.433 . S
C300 H296 0.929 . S
C300 C302 1.378 . S
C300 C304 1.350 . S
C301 C304 1.463 . S
C301 C306 1.350 . S
C301 N309 1.427 . S
C302 H293 0.930 . S
C302 C300 1.378 . S
C302 C303 1.367 . S
C303 C302 1.367 . S
C303 C305 1.433 . S
C304 C300 1.350 . S
C304 C301 1.463 . S
C304 N308 1.427 . S
C305 H295 0.929 . S
C305 C303 1.433 . S
C305 N308 1.384 . S
C306 H297 0.929 . S
C306 C298 1.378 . S
C306 C301 1.350 . S
C307 H294 0.929 . S
C307 C299 1.433 . S
C307 N309 1.384 . S
N308 C304 1.427 . S
N308 C305 1.384 . S
N309 C301 1.427 . S
N309 C307 1.384 . S
H310 C316 0.930 . S
H311 C320 0.930 . S
H312 C325 0.929 . S
H313 C323 0.929 . S
H314 C318 0.929 1_565 S
H315 C324 0.929 1_545 S
C316 H310 0.930 . S
C316 C317 1.367 . S
C316 C324 1.378 . S
C317 C316 1.367 . S
C317 C325 1.433 . S
C318 H314 0.929 1_545 S
C318 C320 1.378 . S
C318 C322 1.350 . S
C319 C322 1.463 1_565 S
C319 C324 1.350 . S
C319 N327 1.427 . S
C320 H311 0.930 . S
C320 C318 1.378 . S
C320 C321 1.367 . S
C321 C320 1.367 . S
C321 C323 1.433 . S
C322 C318 1.350 . S
C322 C319 1.463 1_545 S
C322 N326 1.427 . S
C323 H313 0.929 . S
C323 C321 1.433 . S
C323 N326 1.384 . S
C324 H315 0.929 1_565 S
C324 C316 1.378 . S
C324 C319 1.350 . S
C325 H312 0.929 . S
C325 C317 1.433 . S
C325 N327 1.384 . S
N326 C322 1.427 . S
N326 C323 1.384 . S
N327 C319 1.427 . S
N327 C325 1.384 . S
H328 C334 0.930 . S
H329 C338 0.930 . S
H330 C343 0.929 . S
H331 C341 0.929 . S
H332 C336 0.929 . S
H333 C342 0.929 . S
C334 H328 0.930 . S
C334 C335 1.367 . S
C334 C342 1.378 . S
C335 C334 1.367 . S
C335 C343 1.433 . S
C336 H332 0.929 . S
C336 C338 1.378 . S
C336 C340 1.350 . S
C337 C340 1.463 1_655 S
C337 C342 1.350 . S
C337 N345 1.427 . S
C338 H329 0.930 . S
C338 C336 1.378 . S
C338 C339 1.367 . S
C339 C338 1.367 . S
C339 C341 1.433 . S
C340 C336 1.350 . S
C340 C337 1.463 1_455 S
C340 N344 1.427 . S
C341 H331 0.929 . S
C341 C339 1.433 . S
C341 N344 1.384 . S
C342 H333 0.929 . S
C342 C334 1.378 . S
C342 C337 1.350 . S
C343 H330 0.929 . S
C343 C335 1.433 . S
C343 N345 1.384 . S
N344 C340 1.427 . S
N344 C341 1.384 . S
N345 C337 1.427 . S
N345 C343 1.384 . S
H346 C352 0.930 . S
H347 C356 0.930 . S
H348 C361 0.929 . S
H349 C359 0.929 . S
H350 C354 0.929 . S
H351 C360 0.929 . S
C352 H346 0.930 . S
C352 C353 1.367 . S
C352 C360 1.378 . S
C353 C352 1.367 . S
C353 C361 1.433 . S
C354 H350 0.929 . S
C354 C356 1.378 . S
C354 C358 1.350 . S
C355 C358 1.463 . S
C355 C360 1.350 . S
C355 N363 1.427 . S
C356 H347 0.930 . S
C356 C354 1.378 . S
C356 C357 1.367 . S
C357 C356 1.367 . S
C357 C359 1.433 . S
C358 C354 1.350 . S
C358 C355 1.463 . S
C358 N362 1.427 . S
C359 H349 0.929 . S
C359 C357 1.433 . S
C359 N362 1.384 . S
C360 H351 0.929 . S
C360 C352 1.378 . S
C360 C355 1.350 . S
C361 H348 0.929 . S
C361 C353 1.433 . S
C361 N363 1.384 . S
N362 C358 1.427 . S
N362 C359 1.384 . S
N363 C355 1.427 . S
N363 C361 1.384 . S
H364 C370 0.930 . S
H365 C374 0.930 . S
H366 C379 0.929 . S
H367 C377 0.929 . S
H368 C372 0.929 . S
H369 C378 0.929 . S
C370 H364 0.930 . S
C370 C371 1.367 . S
C370 C378 1.378 . S
C371 C370 1.367 . S
C371 C379 1.433 . S
C372 H368 0.929 . S
C372 C374 1.378 . S
C372 C376 1.350 . S
C373 C376 1.463 1_545 S
C373 C378 1.350 . S
C373 N381 1.427 . S
C374 H365 0.930 . S
C374 C372 1.378 . S
C374 C375 1.367 . S
C375 C374 1.367 . S
C375 C377 1.433 . S
C376 C372 1.350 . S
C376 C373 1.463 1_565 S
C376 N380 1.427 . S
C377 H367 0.929 . S
C377 C375 1.433 . S
C377 N380 1.384 . S
C378 H369 0.929 . S
C378 C370 1.378 . S
C378 C373 1.350 . S
C379 H366 0.929 . S
C379 C371 1.433 . S
C379 N381 1.384 . S
N380 C376 1.427 . S
N380 C377 1.384 . S
N381 C373 1.427 . S
N381 C379 1.384 . S
H382 C388 0.930 . S
H383 C392 0.930 . S
H384 C397 0.929 . S
H385 C395 0.929 . S
H386 C390 0.929 . S
H387 C396 0.929 . S
C388 H382 0.930 . S
C388 C389 1.367 . S
C388 C396 1.378 . S
C389 C388 1.367 . S
C389 C397 1.433 . S
C390 H386 0.929 . S
C390 C392 1.378 . S
C390 C394 1.350 . S
C391 C394 1.463 1_665 S
C391 C396 1.350 . S
C391 N399 1.427 . S
C392 H383 0.930 . S
C392 C390 1.378 . S
C392 C393 1.367 . S
C393 C392 1.367 . S
C393 C395 1.433 . S
C394 C390 1.350 . S
C394 C391 1.463 1_445 S
C394 N398 1.427 . S
C395 H385 0.929 . S
C395 C393 1.433 . S
C395 N398 1.384 . S
C396 H387 0.929 . S
C396 C388 1.378 . S
C396 C391 1.350 . S
C397 H384 0.929 . S
C397 C389 1.433 . S
C397 N399 1.384 . S
N398 C394 1.427 . S
N398 C395 1.384 . S
N399 C391 1.427 . S
N399 C397 1.384 . S
C119 C0 1.223 . S
C123 C70 1.221 . S
C137 C23 1.216 . S
C141 C93 1.203 . S
C155 C28 1.218 . S
C159 C98 1.226 . S
C173 C51 1.217 . S
C177 C65 1.210 . S
C191 C107 1.214 . S
C195 C9 1.214 . S
C209 C56 1.218 . S
C213 C14 1.226 . S
C227 C37 1.215 . S
C231 C79 1.203 . S
C245 C84 1.217 . S
C249 C42 1.227 . S
C263 C5 1.573 . S
C267 C89 1.573 . S
C281 C109 1.573 . S
C285 C25 1.570 . S
C299 C33 1.573 . S
C303 C61 1.574 . S
C317 C53 1.573 . S
C321 C81 1.570 . S
C335 C95 1.573 . S
C339 C11 1.576 . S
C353 C103 1.573 . S
C357 C19 1.574 . S
C371 C39 1.569 . S
C375 C67 1.571 . S
C389 C47 1.573 . S
C393 C75 1.575 . S
