# Generated by pormake.
# Topology wlp, (5)-cn, num edge types: 1
# Building blocks:
#     Node 0, Type 0, BuildingBlock: XOMCOT_clean_sbu_1, # of connection points: 5
#     Node 1, Type 0, BuildingBlock: XOMCOT_clean_sbu_1, # of connection points: 5
#     Node 2, Type 0, BuildingBlock: XOMCOT_clean_sbu_1, # of connection points: 5
#     Node 3, Type 0, BuildingBlock: XOMCOT_clean_sbu_1, # of connection points: 5
#     Node 4, Type 0, BuildingBlock: XOMCOT_clean_sbu_1, # of connection points: 5
#     Node 5, Type 0, BuildingBlock: XOMCOT_clean_sbu_1, # of connection points: 5
#     Node 6, Type 0, BuildingBlock: XOMCOT_clean_sbu_1, # of connection points: 5
#     Node 7, Type 0, BuildingBlock: XOMCOT_clean_sbu_1, # of connection points: 5
#     Node 8, Type 0, BuildingBlock: XOMCOT_clean_sbu_1, # of connection points: 5
#     Node 9, Type 0, BuildingBlock: XOMCOT_clean_sbu_1, # of connection points: 5
#     Node 10, Type 0, BuildingBlock: XOMCOT_clean_sbu_1, # of connection points: 5
#     Node 11, Type 0, BuildingBlock: XOMCOT_clean_sbu_1, # of connection points: 5
#     Node 12, Type 0, BuildingBlock: XOMCOT_clean_sbu_1, # of connection points: 5
#     Node 13, Type 0, BuildingBlock: XOMCOT_clean_sbu_1, # of connection points: 5
#     Node 14, Type 0, BuildingBlock: XOMCOT_clean_sbu_1, # of connection points: 5
#     Node 15, Type 0, BuildingBlock: XOMCOT_clean_sbu_1, # of connection points: 5
#     Node 16, Type 0, BuildingBlock: XOMCOT_clean_sbu_1, # of connection points: 5
#     Node 17, Type 0, BuildingBlock: XOMCOT_clean_sbu_1, # of connection points: 5
#     Node 18, Type 0, BuildingBlock: XOMCOT_clean_sbu_1, # of connection points: 5
#     Node 19, Type 0, BuildingBlock: XOMCOT_clean_sbu_1, # of connection points: 5
#     Node 20, Type 0, BuildingBlock: XOMCOT_clean_sbu_1, # of connection points: 5
#     Node 21, Type 0, BuildingBlock: XOMCOT_clean_sbu_1, # of connection points: 5
#     Node 22, Type 0, BuildingBlock: XOMCOT_clean_sbu_1, # of connection points: 5
#     Node 23, Type 0, BuildingBlock: XOMCOT_clean_sbu_1, # of connection points: 5
#     Node 24, Type 0, BuildingBlock: XOMCOT_clean_sbu_1, # of connection points: 5
#     Node 25, Type 0, BuildingBlock: XOMCOT_clean_sbu_1, # of connection points: 5
#     Node 26, Type 0, BuildingBlock: XOMCOT_clean_sbu_1, # of connection points: 5
#     Node 27, Type 0, BuildingBlock: XOMCOT_clean_sbu_1, # of connection points: 5
#     Node 28, Type 0, BuildingBlock: XOMCOT_clean_sbu_1, # of connection points: 5
#     Node 29, Type 0, BuildingBlock: XOMCOT_clean_sbu_1, # of connection points: 5
#     Node 30, Type 0, BuildingBlock: XOMCOT_clean_sbu_1, # of connection points: 5
#     Node 31, Type 0, BuildingBlock: XOMCOT_clean_sbu_1, # of connection points: 5
#     Node 32, Type 0, BuildingBlock: XOMCOT_clean_sbu_1, # of connection points: 5
#     Node 33, Type 0, BuildingBlock: XOMCOT_clean_sbu_1, # of connection points: 5
#     Node 34, Type 0, BuildingBlock: XOMCOT_clean_sbu_1, # of connection points: 5
#     Node 35, Type 0, BuildingBlock: XOMCOT_clean_sbu_1, # of connection points: 5
#     Edge 36, Type (0, 0), BuildingBlock: CIFDUS_clean_linker_0, # of connection points: 2
#     Edge 37, Type (0, 0), BuildingBlock: CIFDUS_clean_linker_0, # of connection points: 2
#     Edge 38, Type (0, 0), BuildingBlock: CIFDUS_clean_linker_0, # of connection points: 2
#     Edge 39, Type (0, 0), BuildingBlock: CIFDUS_clean_linker_0, # of connection points: 2
#     Edge 40, Type (0, 0), BuildingBlock: CIFDUS_clean_linker_0, # of connection points: 2
#     Edge 41, Type (0, 0), BuildingBlock: CIFDUS_clean_linker_0, # of connection points: 2
#     Edge 42, Type (0, 0), BuildingBlock: CIFDUS_clean_linker_0, # of connection points: 2
#     Edge 43, Type (0, 0), BuildingBlock: CIFDUS_clean_linker_0, # of connection points: 2
#     Edge 44, Type (0, 0), BuildingBlock: CIFDUS_clean_linker_0, # of connection points: 2
#     Edge 45, Type (0, 0), BuildingBlock: CIFDUS_clean_linker_0, # of connection points: 2
#     Edge 46, Type (0, 0), BuildingBlock: CIFDUS_clean_linker_0, # of connection points: 2
#     Edge 47, Type (0, 0), BuildingBlock: CIFDUS_clean_linker_0, # of connection points: 2
#     Edge 48, Type (0, 0), BuildingBlock: CIFDUS_clean_linker_0, # of connection points: 2
#     Edge 49, Type (0, 0), BuildingBlock: CIFDUS_clean_linker_0, # of connection points: 2
#     Edge 50, Type (0, 0), BuildingBlock: CIFDUS_clean_linker_0, # of connection points: 2
#     Edge 51, Type (0, 0), BuildingBlock: CIFDUS_clean_linker_0, # of connection points: 2
#     Edge 52, Type (0, 0), BuildingBlock: CIFDUS_clean_linker_0, # of connection points: 2
#     Edge 53, Type (0, 0), BuildingBlock: CIFDUS_clean_linker_0, # of connection points: 2
#     Edge 54, Type (0, 0), BuildingBlock: CIFDUS_clean_linker_0, # of connection points: 2
#     Edge 55, Type (0, 0), BuildingBlock: CIFDUS_clean_linker_0, # of connection points: 2
#     Edge 56, Type (0, 0), BuildingBlock: CIFDUS_clean_linker_0, # of connection points: 2
#     Edge 57, Type (0, 0), BuildingBlock: CIFDUS_clean_linker_0, # of connection points: 2
#     Edge 58, Type (0, 0), BuildingBlock: CIFDUS_clean_linker_0, # of connection points: 2
#     Edge 59, Type (0, 0), BuildingBlock: CIFDUS_clean_linker_0, # of connection points: 2
#     Edge 60, Type (0, 0), BuildingBlock: CIFDUS_clean_linker_0, # of connection points: 2
#     Edge 61, Type (0, 0), BuildingBlock: CIFDUS_clean_linker_0, # of connection points: 2
#     Edge 62, Type (0, 0), BuildingBlock: CIFDUS_clean_linker_0, # of connection points: 2
#     Edge 63, Type (0, 0), BuildingBlock: CIFDUS_clean_linker_0, # of connection points: 2
#     Edge 64, Type (0, 0), BuildingBlock: CIFDUS_clean_linker_0, # of connection points: 2
#     Edge 65, Type (0, 0), BuildingBlock: CIFDUS_clean_linker_0, # of connection points: 2
#     Edge 66, Type (0, 0), BuildingBlock: CIFDUS_clean_linker_0, # of connection points: 2
#     Edge 67, Type (0, 0), BuildingBlock: CIFDUS_clean_linker_0, # of connection points: 2
#     Edge 68, Type (0, 0), BuildingBlock: CIFDUS_clean_linker_0, # of connection points: 2
#     Edge 69, Type (0, 0), BuildingBlock: CIFDUS_clean_linker_0, # of connection points: 2
#     Edge 70, Type (0, 0), BuildingBlock: CIFDUS_clean_linker_0, # of connection points: 2
#     Edge 71, Type (0, 0), BuildingBlock: CIFDUS_clean_linker_0, # of connection points: 2
#     Edge 72, Type (0, 0), BuildingBlock: CIFDUS_clean_linker_0, # of connection points: 2
#     Edge 73, Type (0, 0), BuildingBlock: CIFDUS_clean_linker_0, # of connection points: 2
#     Edge 74, Type (0, 0), BuildingBlock: CIFDUS_clean_linker_0, # of connection points: 2
#     Edge 75, Type (0, 0), BuildingBlock: CIFDUS_clean_linker_0, # of connection points: 2
#     Edge 76, Type (0, 0), BuildingBlock: CIFDUS_clean_linker_0, # of connection points: 2
#     Edge 77, Type (0, 0), BuildingBlock: CIFDUS_clean_linker_0, # of connection points: 2
#     Edge 78, Type (0, 0), BuildingBlock: CIFDUS_clean_linker_0, # of connection points: 2
#     Edge 79, Type (0, 0), BuildingBlock: CIFDUS_clean_linker_0, # of connection points: 2
#     Edge 80, Type (0, 0), BuildingBlock: CIFDUS_clean_linker_0, # of connection points: 2
#     Edge 81, Type (0, 0), BuildingBlock: CIFDUS_clean_linker_0, # of connection points: 2
#     Edge 82, Type (0, 0), BuildingBlock: CIFDUS_clean_linker_0, # of connection points: 2
#     Edge 83, Type (0, 0), BuildingBlock: CIFDUS_clean_linker_0, # of connection points: 2
#     Edge 84, Type (0, 0), BuildingBlock: CIFDUS_clean_linker_0, # of connection points: 2
#     Edge 85, Type (0, 0), BuildingBlock: CIFDUS_clean_linker_0, # of connection points: 2
#     Edge 86, Type (0, 0), BuildingBlock: CIFDUS_clean_linker_0, # of connection points: 2
#     Edge 87, Type (0, 0), BuildingBlock: CIFDUS_clean_linker_0, # of connection points: 2
#     Edge 88, Type (0, 0), BuildingBlock: CIFDUS_clean_linker_0, # of connection points: 2
#     Edge 89, Type (0, 0), BuildingBlock: CIFDUS_clean_linker_0, # of connection points: 2
#     Edge 90, Type (0, 0), BuildingBlock: CIFDUS_clean_linker_0, # of connection points: 2
#     Edge 91, Type (0, 0), BuildingBlock: CIFDUS_clean_linker_0, # of connection points: 2
#     Edge 92, Type (0, 0), BuildingBlock: CIFDUS_clean_linker_0, # of connection points: 2
#     Edge 93, Type (0, 0), BuildingBlock: CIFDUS_clean_linker_0, # of connection points: 2
#     Edge 94, Type (0, 0), BuildingBlock: CIFDUS_clean_linker_0, # of connection points: 2
#     Edge 95, Type (0, 0), BuildingBlock: CIFDUS_clean_linker_0, # of connection points: 2
#     Edge 96, Type (0, 0), BuildingBlock: CIFDUS_clean_linker_0, # of connection points: 2
#     Edge 97, Type (0, 0), BuildingBlock: CIFDUS_clean_linker_0, # of connection points: 2
#     Edge 98, Type (0, 0), BuildingBlock: CIFDUS_clean_linker_0, # of connection points: 2
#     Edge 99, Type (0, 0), BuildingBlock: CIFDUS_clean_linker_0, # of connection points: 2
#     Edge 100, Type (0, 0), BuildingBlock: CIFDUS_clean_linker_0, # of connection points: 2
#     Edge 101, Type (0, 0), BuildingBlock: CIFDUS_clean_linker_0, # of connection points: 2
#     Edge 102, Type (0, 0), BuildingBlock: CIFDUS_clean_linker_0, # of connection points: 2
#     Edge 103, Type (0, 0), BuildingBlock: CIFDUS_clean_linker_0, # of connection points: 2
#     Edge 104, Type (0, 0), BuildingBlock: CIFDUS_clean_linker_0, # of connection points: 2
#     Edge 105, Type (0, 0), BuildingBlock: CIFDUS_clean_linker_0, # of connection points: 2
#     Edge 106, Type (0, 0), BuildingBlock: CIFDUS_clean_linker_0, # of connection points: 2
#     Edge 107, Type (0, 0), BuildingBlock: CIFDUS_clean_linker_0, # of connection points: 2
#     Edge 108, Type (0, 0), BuildingBlock: CIFDUS_clean_linker_0, # of connection points: 2
#     Edge 109, Type (0, 0), BuildingBlock: CIFDUS_clean_linker_0, # of connection points: 2
#     Edge 110, Type (0, 0), BuildingBlock: CIFDUS_clean_linker_0, # of connection points: 2
#     Edge 111, Type (0, 0), BuildingBlock: CIFDUS_clean_linker_0, # of connection points: 2
#     Edge 112, Type (0, 0), BuildingBlock: CIFDUS_clean_linker_0, # of connection points: 2
#     Edge 113, Type (0, 0), BuildingBlock: CIFDUS_clean_linker_0, # of connection points: 2
#     Edge 114, Type (0, 0), BuildingBlock: CIFDUS_clean_linker_0, # of connection points: 2
#     Edge 115, Type (0, 0), BuildingBlock: CIFDUS_clean_linker_0, # of connection points: 2
#     Edge 116, Type (0, 0), BuildingBlock: CIFDUS_clean_linker_0, # of connection points: 2
#     Edge 117, Type (0, 0), BuildingBlock: CIFDUS_clean_linker_0, # of connection points: 2
#     Edge 118, Type (0, 0), BuildingBlock: CIFDUS_clean_linker_0, # of connection points: 2
#     Edge 119, Type (0, 0), BuildingBlock: CIFDUS_clean_linker_0, # of connection points: 2
#     Edge 120, Type (0, 0), BuildingBlock: CIFDUS_clean_linker_0, # of connection points: 2
#     Edge 121, Type (0, 0), BuildingBlock: CIFDUS_clean_linker_0, # of connection points: 2
#     Edge 122, Type (0, 0), BuildingBlock: CIFDUS_clean_linker_0, # of connection points: 2
#     Edge 123, Type (0, 0), BuildingBlock: CIFDUS_clean_linker_0, # of connection points: 2
#     Edge 124, Type (0, 0), BuildingBlock: CIFDUS_clean_linker_0, # of connection points: 2
#     Edge 125, Type (0, 0), BuildingBlock: CIFDUS_clean_linker_0, # of connection points: 2
# Relax obj value: 0.228
# Max RMSD: 0.194
# Mean RMSD: 0.191
data_MOF--net-wlp--node1-XOMCOT_clean_sbu_1--edge1-CIFDUS_clean_linker_0
_symmetry_space_group_name_H-M    P1
_symmetry_Int_Tables_number       1
_symmetry_cell_setting            triclinic
loop_
_symmetry_equiv_pos_as_xyz
'x, y, z'
_cell_length_a     100.31617
_cell_length_b     100.072
_cell_length_c     17.826243
_cell_angle_alpha  89.8641
_cell_angle_beta   90.059542
_cell_angle_gamma 120.20777
loop_
_atom_site_label
_atom_site_type_symbol
_atom_site_fract_x
_atom_site_fract_y
_atom_site_fract_z
_atom_type_partial_charge
C0 C 0.25273 0.17592 0.18518 0.0
C1 C 0.24292 0.16385 0.2303 0.0
N2 N 0.23062 0.15393 0.1891 0.0
N3 N 0.24672 0.17347 0.11558 0.0
C4 C 0.23319 0.16008 0.11973 0.0
H5 H 0.26331 0.18607 0.20255 0.0
Co6 Co 0.2527 0.18785 0.0416 0.0
C7 C 0.25029 0.15829 0.95196 0.0
O8 O 0.24847 0.15023 1.0132 0.0
N9 N 0.25873 0.20259 0.96769 0.0
C10 C 0.27345 0.21902 0.87928 0.0
C11 C 0.2686 0.20482 0.91112 0.0
C12 C 0.25752 0.21535 0.96833 0.0
N13 N 0.26661 0.22569 0.91616 0.0
O14 O 0.25105 0.20256 0.1224 0.0
H15 H 0.27287 0.19713 0.89728 0.0
H16 H 0.2503 0.21714 1.00719 0.0
O17 O 0.25233 0.17219 0.95875 0.0
C18 C 0.23836 0.20091 0.15162 0.0
O19 O 0.22526 0.18939 0.12702 0.0
N20 N 0.27455 0.19609 0.06251 0.0
C21 C 0.30701 0.21078 0.04443 0.0
C22 C 0.29755 0.19453 0.0425 0.0
C23 C 0.28145 0.18747 0.05145 0.0
C24 C 0.28369 0.21169 0.07379 0.0
C25 C 0.29977 0.21923 0.06373 0.0
H26 H 0.27453 0.1751 0.04592 0.0
H27 H 0.27852 0.21874 0.0835 0.0
H28 H 0.22541 0.15492 0.07279 0.0
H29 H 0.245 0.1621 0.28813 0.0
H30 H 0.28163 0.22416 0.83375 0.0
H31 H 0.30241 0.18721 0.03174 0.0
H32 H 0.30622 0.23171 0.06653 0.0
C33 C 0.83114 0.08971 0.16257 0.0
C34 C 0.83755 0.09764 0.22788 0.0
N35 N 0.85163 0.09922 0.23463 0.0
N36 N 0.84146 0.08692 0.12807 0.0
C37 C 0.85374 0.09269 0.1735 0.0
H38 H 0.81977 0.0863 0.14131 0.0
Co39 Co 0.83859 0.07593 0.04307 0.0
C40 C 0.8659 0.0953 0.93457 0.0
O41 O 0.85488 0.09021 0.88426 0.0
N42 N 0.83554 0.0643 0.95825 0.0
C43 C 0.83064 0.05328 0.84626 0.0
C44 C 0.82643 0.06078 0.89697 0.0
C45 C 0.8448 0.05847 0.94411 0.0
N46 N 0.84233 0.05208 0.87593 0.0
O47 O 0.8412 0.05971 0.10745 0.0
H48 H 0.8174 0.06344 0.88816 0.0
H49 H 0.8533 0.05894 0.98311 0.0
O50 O 0.86202 0.09065 1.00454 0.0
C51 C 0.82897 0.05001 0.14589 0.0
O52 O 0.81667 0.05132 0.13746 0.0
N53 N 0.8331 0.08958 0.99298 0.0
C54 C 0.82163 0.10889 0.9456 0.0
C55 C 0.83731 0.11501 0.96294 0.0
C56 C 0.84272 0.10527 0.98808 0.0
C57 C 0.81772 0.08356 0.97967 0.0
C58 C 0.81183 0.09285 0.95431 0.0
H59 H 0.85448 0.11058 1.00759 0.0
H60 H 0.8098 0.07147 0.99136 0.0
H61 H 0.8642 0.09248 0.16099 0.0
H62 H 0.83249 0.10216 0.26655 0.0
H63 H 0.82497 0.04827 0.79352 0.0
H64 H 0.84527 0.12735 0.96086 0.0
H65 H 0.7996 0.08747 0.94298 0.0
C66 C 0.94707 0.7689 0.15771 0.0
C67 C 0.93361 0.76521 0.19389 0.0
N68 N 0.92723 0.7724 0.1576 0.0
N69 N 0.94883 0.77809 0.09851 0.0
C70 C 0.93678 0.7804 0.10127 0.0
H71 H 0.95424 0.76394 0.16943 0.0
Co72 Co 0.96204 0.78259 1.0202 0.0
C73 C 0.93723 0.77441 0.88186 0.0
O74 O 0.93973 0.76398 0.85082 0.0
N75 N 0.97579 0.78748 0.94158 0.0
C76 C 0.98704 0.79192 0.82972 0.0
C77 C 0.97485 0.79102 0.86922 0.0
C78 C 0.98914 0.78742 0.9454 0.0
N79 N 0.99583 0.78947 0.8783 0.0
O80 O 0.97987 0.78724 0.10049 0.0
H81 H 0.96604 0.79292 0.84578 0.0
H82 H 0.99375 0.78529 0.99565 0.0
O83 O 0.94481 0.78116 0.9431 0.0
C84 C 0.98695 0.78262 0.14633 0.0
O85 O 0.98199 0.76775 0.15085 0.0
N86 N 0.95466 0.7603 1.00917 0.0
C87 C 0.94196 0.72793 0.99118 0.0
C88 C 0.93247 0.73442 0.99732 0.0
C89 C 0.939 0.75048 1.00533 0.0
C90 C 0.96401 0.75397 1.00544 0.0
C91 C 0.95795 0.73798 0.99514 0.0
H92 H 0.93124 0.75498 1.00908 0.0
H93 H 0.97627 0.76101 1.01107 0.0
H94 H 0.93429 0.78662 0.05904 0.0
H95 H 0.92843 0.75719 0.24015 0.0
H96 H 0.98931 0.79425 0.77035 0.0
H97 H 0.92005 0.72715 0.99453 0.0
H98 H 0.96574 0.73348 0.99166 0.0
C99 C 0.18042 0.24669 0.44795 0.0
C100 C 0.16713 0.23652 0.41109 0.0
N101 N 0.15713 0.22634 0.4616 0.0
N102 N 0.17862 0.24301 0.52129 0.0
C103 C 0.16446 0.23057 0.52797 0.0
H104 H 0.1908 0.25595 0.42293 0.0
Co105 Co 0.19317 0.25006 0.59337 0.0
C106 C 0.16842 0.24328 0.71749 0.0
O107 O 0.16763 0.22991 0.72813 0.0
N108 N 0.20798 0.25725 0.66749 0.0
C109 C 0.22439 0.27313 0.75325 0.0
C110 C 0.21071 0.2686 0.71691 0.0
C111 C 0.21983 0.25477 0.67622 0.0
N112 N 0.23019 0.2646 0.72612 0.0
O113 O 0.20663 0.24486 0.5161 0.0
H114 H 0.20366 0.27389 0.72323 0.0
H115 H 0.22085 0.24589 0.64694 0.0
O116 O 0.17812 0.2526 0.6674 0.0
C117 C 0.21932 0.24608 0.48843 0.0
O118 O 0.23251 0.25587 0.51991 0.0
N119 N 0.20209 0.27154 0.56031 0.0
C120 C 0.21902 0.30408 0.57641 0.0
C121 C 0.20281 0.29583 0.58162 0.0
C122 C 0.19456 0.27958 0.57277 0.0
C123 C 0.21755 0.27971 0.54527 0.0
C124 C 0.22617 0.29581 0.55355 0.0
H125 H 0.18225 0.27343 0.58229 0.0
H126 H 0.22378 0.27381 0.53555 0.0
H127 H 0.15964 0.22466 0.58044 0.0
H128 H 0.16477 0.23703 0.3522 0.0
H129 H 0.22984 0.28217 0.79487 0.0
H130 H 0.19664 0.30166 0.59775 0.0
H131 H 0.23857 0.30161 0.54643 0.0
C132 C 0.7795 0.93734 0.4173 0.0
C133 C 0.78645 0.93411 0.35933 0.0
N134 N 0.79991 0.93588 0.38468 0.0
N135 N 0.7884 0.94064 0.47899 0.0
C136 C 0.80079 0.9399 0.45709 0.0
H137 H 0.76912 0.93806 0.41343 0.0
Co138 Co 0.78915 0.95109 0.5628 0.0
C139 C 0.7902 0.9222 0.64327 0.0
O140 O 0.79533 0.91841 0.58408 0.0
N141 N 0.79092 0.96193 0.64605 0.0
C142 C 0.79093 0.96691 0.76683 0.0
C143 C 0.7819 0.95839 0.70744 0.0
C144 C 0.80516 0.97216 0.66896 0.0
N145 N 0.8056 0.97537 0.74233 0.0
O146 O 0.79279 0.96976 0.4916 0.0
H147 H 0.76994 0.94933 0.71067 0.0
H148 H 0.8152 0.9762 0.63336 0.0
O149 O 0.78726 0.93346 0.63701 0.0
C150 C 0.80533 0.97888 0.45375 0.0
O151 O 0.81714 0.97676 0.46216 0.0
N152 N 0.76688 0.94215 0.56212 0.0
C153 C 0.73431 0.92807 0.56624 0.0
C154 C 0.74162 0.91921 0.56588 0.0
C155 C 0.75776 0.9264 0.5641 0.0
C156 C 0.76006 0.95105 0.56178 0.0
C157 C 0.74384 0.94426 0.56461 0.0
H158 H 0.76293 0.91919 0.5632 0.0
H159 H 0.76716 0.96352 0.56063 0.0
H160 H 0.8106 0.94291 0.49304 0.0
H161 H 0.78187 0.93052 0.30332 0.0
H162 H 0.78703 0.96669 0.82365 0.0
H163 H 0.7349 0.90671 0.56756 0.0
H164 H 0.73882 0.95164 0.56423 0.0
C165 C 0.0942 0.85355 0.40795 0.0
C166 C 0.09601 0.86599 0.36736 0.0
N167 N 0.09583 0.87632 0.41523 0.0
N168 N 0.09297 0.8561 0.48106 0.0
C169 C 0.09404 0.87003 0.48402 0.0
H170 H 0.0934 0.84313 0.38555 0.0
Co171 Co 0.08676 0.84194 0.5561 0.0
C172 C 0.10354 0.86556 0.68643 0.0
O173 O 0.08985 0.86269 0.70825 0.0
N174 N 0.08059 0.82745 0.63136 0.0
C175 C 0.08146 0.81205 0.71876 0.0
C176 C 0.08979 0.82592 0.68197 0.0
C177 C 0.06687 0.81447 0.63806 0.0
N178 N 0.06712 0.8048 0.68999 0.0
O179 O 0.06831 0.82655 0.48434 0.0
H180 H 0.10192 0.8341 0.68997 0.0
H181 H 0.05672 0.81227 0.6067 0.0
O182 O 0.10429 0.85829 0.62739 0.0
C183 C 0.05829 0.8293 0.45112 0.0
O184 O 0.05911 0.84256 0.46555 0.0
N185 N 0.10002 0.83422 0.52207 0.0
C186 C 0.11805 0.81981 0.52722 0.0
C187 C 0.12489 0.836 0.53232 0.0
C188 C 0.1157 0.84297 0.52935 0.0
C189 C 0.09346 0.8187 0.50848 0.0
C190 C 0.10218 0.8113 0.51179 0.0
H191 H 0.12114 0.85529 0.53804 0.0
H192 H 0.08112 0.81156 0.50239 0.0
H193 H 0.09347 0.87542 0.53556 0.0
H194 H 0.09808 0.86766 0.30755 0.0
H195 H 0.08544 0.80781 0.76446 0.0
H196 H 0.13712 0.84317 0.54317 0.0
H197 H 0.09638 0.79887 0.50518 0.0
C198 C 0.7797 0.84662 0.2403 0.0
C199 C 0.78838 0.85785 0.29197 0.0
N200 N 0.80104 0.86898 0.25699 0.0
N201 N 0.78676 0.85095 0.17317 0.0
C202 C 0.79976 0.86447 0.18521 0.0
H203 H 0.76925 0.83579 0.2514 0.0
Co204 Co 0.78324 0.83871 0.09256 0.0
C205 C 0.78967 0.87026 1.00811 0.0
O206 O 0.78726 0.8761 0.06899 0.0
N207 N 0.77974 0.82608 1.01124 0.0
C208 C 0.77327 0.81609 0.89709 0.0
C209 C 0.77258 0.82611 0.94711 0.0
C210 C 0.78434 0.81574 0.99981 0.0
N211 N 0.78061 0.80958 0.9308 0.0
O212 O 0.80458 0.84119 0.11235 0.0
H213 H 0.76782 0.83352 0.93613 0.0
H214 H 0.79135 0.81361 0.03856 0.0
O215 O 0.78952 0.85715 1.01378 0.0
C216 C 0.80315 0.831 0.16251 0.0
O217 O 0.78905 0.82057 0.18198 0.0
N218 N 0.76211 0.83323 0.09068 0.0
C219 C 0.73022 0.8197 0.11785 0.0
C220 C 0.73902 0.83502 0.09135 0.0
C221 C 0.75497 0.84161 0.07828 0.0
C222 C 0.75366 0.8183 0.11502 0.0
C223 C 0.73784 0.81132 0.12816 0.0
H224 H 0.7614 0.85343 0.06034 0.0
H225 H 0.75938 0.81178 0.12603 0.0
H226 H 0.80834 0.87073 0.1424 0.0
H227 H 0.78537 0.85807 0.35008 0.0
H228 H 0.76967 0.8145 0.83895 0.0
H229 H 0.73376 0.84207 0.08292 0.0
H230 H 0.73168 0.79939 0.14667 0.0
C231 C 0.18764 0.93911 0.25215 0.0
C232 C 0.17808 0.93698 0.31146 0.0
N233 N 0.16582 0.93771 0.28564 0.0
N234 N 0.18126 0.94081 0.189 0.0
C235 C 0.16801 0.93991 0.21094 0.0
H236 H 0.19895 0.94031 0.25577 0.0
Co237 Co 0.19169 0.94967 0.10283 0.0
C238 C 0.17098 0.92896 0.97148 0.0
O239 O 0.18396 0.93074 0.94496 0.0
N240 N 0.203 0.95957 1.01562 0.0
C241 C 0.21955 0.96817 0.9199 0.0
C242 C 0.21269 0.95691 0.97356 0.0
C243 C 0.20405 0.97239 0.98491 0.0
N244 N 0.21419 0.97796 0.92787 0.0
O245 O 0.18842 0.9679 0.12819 0.0
H246 H 0.21484 0.94745 0.98027 0.0
H247 H 0.19771 0.97779 1.00439 0.0
O248 O 0.17161 0.93607 0.0344 0.0
C249 C 0.20002 0.97863 0.16582 0.0
O250 O 0.21251 0.97755 0.1697 0.0
N251 N 0.19748 0.93432 0.09715 0.0
C252 C 0.21033 0.91532 0.12015 0.0
C253 C 0.19466 0.90893 0.10078 0.0
C254 C 0.18836 0.91863 0.09082 0.0
C255 C 0.21244 0.94053 0.11975 0.0
C256 C 0.21912 0.93138 0.13016 0.0
H257 H 0.17613 0.91346 0.08089 0.0
H258 H 0.21923 0.95281 0.13063 0.0
H259 H 0.1607 0.94187 0.17333 0.0
H260 H 0.18007 0.93506 0.36911 0.0
H261 H 0.22829 0.96942 0.88038 0.0
H262 H 0.18728 0.89656 0.0944 0.0
H263 H 0.23102 0.93687 0.14843 0.0
C264 C 0.09671 0.25234 0.26761 0.0
C265 C 0.10008 0.24352 0.31441 0.0
N266 N 0.09809 0.23107 0.27571 0.0
N267 N 0.09288 0.24551 0.19986 0.0
C268 C 0.09386 0.23266 0.20634 0.0
H269 H 0.09649 0.2627 0.2825 0.0
Co270 Co 0.08344 0.24916 0.12203 0.0
C271 C 0.10694 0.25142 0.99622 0.0
O272 O 0.11046 0.26586 0.98764 0.0
N273 N 0.07296 0.25227 0.04352 0.0
C274 C 0.06362 0.25527 0.93598 0.0
C275 C 0.07581 0.25508 0.96948 0.0
C276 C 0.05891 0.25075 0.05319 0.0
N277 N 0.05289 0.25241 0.98858 0.0
O278 O 0.06412 0.22778 0.14337 0.0
H279 H 0.08536 0.25579 0.93918 0.0
H280 H 0.05292 0.24777 0.10638 0.0
O281 O 0.09594 0.24278 0.04415 0.0
C282 C 0.05737 0.2282 0.20548 0.0
O283 O 0.06377 0.24134 0.24221 0.0
N284 N 0.0996 0.27046 0.11906 0.0
C285 C 0.12017 0.3024 0.13871 0.0
C286 C 0.12542 0.29174 0.14155 0.0
C287 C 0.11493 0.27581 0.13276 0.0
C288 C 0.09435 0.28069 0.11937 0.0
C289 C 0.10435 0.29654 0.12773 0.0
H290 H 0.11909 0.26776 0.13754 0.0
H291 H 0.08216 0.27661 0.11674 0.0
H292 H 0.09089 0.22431 0.16176 0.0
H293 H 0.10395 0.2462 0.37199 0.0
H294 H 0.06215 0.25589 0.87613 0.0
H295 H 0.13749 0.29563 0.15111 0.0
H296 H 0.09952 0.30408 0.12884 0.0
C297 C 0.83727 0.76141 0.38022 0.0
C298 C 0.84228 0.76258 0.30777 0.0
N299 N 0.85723 0.77362 0.30594 0.0
N300 N 0.84922 0.77128 0.42364 0.0
C301 C 0.8612 0.77868 0.37686 0.0
H302 H 0.82562 0.75399 0.39996 0.0
Co303 Co 0.84675 0.77556 0.51945 0.0
C304 C 0.87777 0.78847 0.61246 0.0
O305 O 0.87508 0.79857 0.64569 0.0
N306 N 0.8431 0.77951 0.61578 0.0
C307 C 0.8385 0.77799 0.73824 0.0
C308 C 0.84411 0.77309 0.68077 0.0
C309 C 0.83682 0.78811 0.63482 0.0
N310 N 0.83393 0.78742 0.70874 0.0
O311 O 0.85165 0.79692 0.47989 0.0
H312 H 0.84828 0.76504 0.68577 0.0
H313 H 0.83353 0.79404 0.59484 0.0
O314 O 0.86915 0.78087 0.55518 0.0
C315 C 0.83973 0.79634 0.44701 0.0
O316 O 0.82638 0.78361 0.45602 0.0
N317 N 0.83962 0.75457 0.54426 0.0
C318 C 0.82488 0.72256 0.5195 0.0
C319 C 0.84104 0.73176 0.5176 0.0
C320 C 0.84819 0.74773 0.52952 0.0
C321 C 0.82404 0.74567 0.55338 0.0
C322 C 0.81643 0.72964 0.54133 0.0
H323 H 0.8604 0.75465 0.51875 0.0
H324 H 0.81727 0.7512 0.56226 0.0
H325 H 0.87267 0.78737 0.39454 0.0
H326 H 0.83567 0.75559 0.26056 0.0
H327 H 0.8375 0.77457 0.79655 0.0
H328 H 0.84812 0.72684 0.50232 0.0
H329 H 0.80395 0.72315 0.54303 0.0
C330 C 0.26034 0.09287 0.36355 0.0
C331 C 0.25327 0.09523 0.30316 0.0
N332 N 0.2394 0.09283 0.32558 0.0
N333 N 0.25109 0.08934 0.42387 0.0
C334 C 0.23841 0.0893 0.39908 0.0
H335 H 0.27118 0.09298 0.36274 0.0
Co336 Co 0.25255 0.08015 0.50917 0.0
C337 C 0.24459 0.10485 0.5854 0.0
O338 O 0.24598 0.11258 0.52343 0.0
N339 N 0.25395 0.0706 0.59497 0.0
C340 C 0.25851 0.06694 0.7128 0.0
C341 C 0.26023 0.07776 0.66056 0.0
C342 C 0.24865 0.05552 0.60825 0.0
N343 N 0.2512 0.053 0.67958 0.0
O344 O 0.23155 0.06135 0.48155 0.0
H345 H 0.26549 0.09006 0.67018 0.0
H346 H 0.24243 0.04643 0.56783 0.0
O347 O 0.24549 0.09232 0.5811 0.0
C348 C 0.23385 0.05264 0.43503 0.0
O349 O 0.24825 0.05648 0.42254 0.0
N350 N 0.27352 0.09592 0.5209 0.0
C351 C 0.30559 0.11572 0.50974 0.0
C352 C 0.29561 0.12168 0.51732 0.0
C353 C 0.27959 0.11159 0.52245 0.0
C354 C 0.28309 0.09 0.51377 0.0
C355 C 0.29905 0.09961 0.50891 0.0
H356 H 0.27222 0.11648 0.5237 0.0
H357 H 0.27823 0.07764 0.50874 0.0
H358 H 0.22835 0.08602 0.43359 0.0
H359 H 0.25806 0.09863 0.24735 0.0
H360 H 0.26205 0.0691 0.771 0.0
H361 H 0.30009 0.13404 0.5177 0.0
H362 H 0.30614 0.09439 0.50101 0.0
C363 C 0.9473 0.18964 0.4209 0.0
C364 C 0.93494 0.18216 0.37365 0.0
N365 N 0.92607 0.16768 0.39966 0.0
N366 N 0.94616 0.17986 0.47607 0.0
C367 C 0.93321 0.16648 0.46103 0.0
H368 H 0.95573 0.20184 0.41905 0.0
Co369 Co 0.95725 0.18626 0.56307 0.0
C370 C 0.93695 0.16325 0.68852 0.0
O371 O 0.9416 0.17578 0.72895 0.0
N372 N 0.96888 0.19306 0.65015 0.0
C373 C 0.98203 0.19262 0.74945 0.0
C374 C 0.97351 0.18446 0.68848 0.0
C375 C 0.97516 0.20661 0.68757 0.0
N376 N 0.98301 0.20653 0.74858 0.0
O377 O 0.9732 0.18119 0.51822 0.0
H378 H 0.97096 0.17299 0.67243 0.0
H379 H 0.97444 0.21656 0.67046 0.0
O380 O 0.94231 0.1649 0.61986 0.0
C381 C 0.98242 0.19168 0.4702 0.0
O382 O 0.9806 0.20365 0.45975 0.0
N383 N 0.94416 0.19417 0.59185 0.0
C384 C 0.92661 0.20867 0.56593 0.0
C385 C 0.91941 0.19286 0.5845 0.0
C386 C 0.92836 0.1858 0.59668 0.0
C387 C 0.95122 0.2096 0.57654 0.0
C388 C 0.9428 0.2171 0.56601 0.0
H389 H 0.9224 0.17337 0.60142 0.0
H390 H 0.96339 0.2159 0.56353 0.0
H391 H 0.92827 0.15657 0.49811 0.0
H392 H 0.9322 0.18721 0.32661 0.0
H393 H 0.98778 0.18898 0.78901 0.0
H394 H 0.90696 0.18572 0.58353 0.0
H395 H 0.94904 0.22932 0.55256 0.0
C396 C 0.9176 0.51284 0.52377 0.0
C397 C 0.9082 0.50064 0.56926 0.0
N398 N 0.89814 0.48885 0.52566 0.0
N399 N 0.91356 0.50868 0.45185 0.0
C400 C 0.90167 0.49408 0.45452 0.0
H401 H 0.92664 0.52411 0.54186 0.0
Co402 Co 0.9201 0.52159 0.37159 0.0
C403 C 0.91362 0.49738 0.24756 0.0
O404 O 0.9028 0.50007 0.22366 0.0
N405 N 0.92668 0.53469 0.29082 0.0
C406 C 0.93852 0.54675 0.18586 0.0
C407 C 0.93719 0.53622 0.23897 0.0
C408 C 0.92194 0.54442 0.26898 0.0
N409 N 0.92907 0.55199 0.20579 0.0
O410 O 0.91595 0.53674 0.43851 0.0
H411 H 0.94312 0.5297 0.23842 0.0
H412 H 0.91248 0.54496 0.29507 0.0
O413 O 0.92163 0.50502 0.30586 0.0
C414 C 0.91756 0.54982 0.46211 0.0
O415 O 0.92791 0.56263 0.42922 0.0
N416 N 0.9416 0.53055 0.40063 0.0
C417 C 0.97359 0.54319 0.37567 0.0
C418 C 0.96379 0.52727 0.38973 0.0
C419 C 0.94792 0.52122 0.40218 0.0
C420 C 0.95123 0.54624 0.39811 0.0
C421 C 0.96712 0.55274 0.38447 0.0
H422 H 0.94053 0.50882 0.40668 0.0
H423 H 0.94646 0.55376 0.39659 0.0
H424 H 0.89572 0.48743 0.40526 0.0
H425 H 0.9092 0.50023 0.62959 0.0
H426 H 0.9449 0.54941 0.13376 0.0
H427 H 0.96813 0.51934 0.38752 0.0
H428 H 0.97393 0.56508 0.37485 0.0
C429 C 0.52377 0.41884 0.51086 0.0
C430 C 0.53652 0.42084 0.54912 0.0
N431 N 0.54555 0.41854 0.50099 0.0
N432 N 0.52497 0.4155 0.43896 0.0
C433 C 0.53831 0.41546 0.43441 0.0
H434 H 0.51399 0.41914 0.53442 0.0
Co435 Co 0.51008 0.40745 0.36819 0.0
C436 C 0.53484 0.42409 0.24038 0.0
O437 O 0.53517 0.41128 0.22946 0.0
N438 N 0.49465 0.39884 0.29599 0.0
C439 C 0.47186 0.3842 0.24323 0.0
C440 C 0.48078 0.38593 0.30434 0.0
C441 C 0.4939 0.40456 0.22829 0.0
N442 N 0.48011 0.39584 0.19467 0.0
O443 O 0.49589 0.39062 0.44789 0.0
H444 H 0.47724 0.37802 0.35116 0.0
H445 H 0.50345 0.41452 0.20202 0.0
O446 O 0.52541 0.42397 0.29079 0.0
C447 C 0.49897 0.38113 0.48384 0.0
O448 O 0.51214 0.38185 0.46931 0.0
N449 N 0.5024 0.42114 0.39457 0.0
C450 C 0.48903 0.43996 0.38028 0.0
C451 C 0.50511 0.44639 0.37799 0.0
C452 C 0.51156 0.43679 0.38518 0.0
C453 C 0.48692 0.41509 0.40646 0.0
C454 C 0.47999 0.42419 0.39764 0.0
H455 H 0.52389 0.44188 0.37877 0.0
H456 H 0.47957 0.40289 0.417 0.0
H457 H 0.5424 0.41275 0.38378 0.0
H458 H 0.53914 0.42414 0.60743 0.0
H459 H 0.46068 0.37417 0.23188 0.0
H460 H 0.51259 0.45858 0.36631 0.0
H461 H 0.46758 0.41881 0.40222 0.0
C462 C 0.61688 0.11658 0.49496 0.0
C463 C 0.61212 0.12452 0.53981 0.0
N464 N 0.6115 0.13537 0.49747 0.0
N465 N 0.61908 0.12245 0.42502 0.0
C466 C 0.61565 0.13378 0.42805 0.0
H467 H 0.61894 0.10742 0.51232 0.0
Co468 Co 0.6283 0.1192 0.34604 0.0
C469 C 0.60418 0.11292 0.21201 0.0
O470 O 0.60584 0.10177 0.18326 0.0
N471 N 0.63816 0.11643 0.26514 0.0
C472 C 0.64795 0.11802 0.15186 0.0
C473 C 0.63937 0.12218 0.19543 0.0
C474 C 0.64675 0.10954 0.26347 0.0
N475 N 0.65254 0.11 0.19497 0.0
O476 O 0.64584 0.12134 0.4195 0.0
H477 H 0.63495 0.12957 0.17805 0.0
H478 H 0.64972 0.10526 0.31225 0.0
O479 O 0.61177 0.11964 0.27296 0.0
C480 C 0.65373 0.13298 0.4646 0.0
O481 O 0.65061 0.14424 0.46412 0.0
N482 N 0.61557 0.09672 0.35985 0.0
C483 C 0.59794 0.06412 0.34819 0.0
C484 C 0.59106 0.07327 0.33996 0.0
C485 C 0.60001 0.08945 0.34678 0.0
C486 C 0.62185 0.08776 0.37863 0.0
C487 C 0.61345 0.07158 0.37043 0.0
H488 H 0.59432 0.0961 0.34012 0.0
H489 H 0.6335 0.09297 0.39906 0.0
H490 H 0.61621 0.14075 0.38029 0.0
H491 H 0.60871 0.12208 0.59812 0.0
H492 H 0.65163 0.12176 0.09477 0.0
H493 H 0.57894 0.06802 0.32595 0.0
H494 H 0.61906 0.06494 0.38177 0.0
C495 C 0.8643 0.60783 0.75935 0.0
C496 C 0.86004 0.61773 0.72877 0.0
N497 N 0.8463 0.61415 0.75813 0.0
N498 N 0.8531 0.59792 0.80648 0.0
C499 C 0.84226 0.602 0.80399 0.0
H500 H 0.87514 0.60828 0.74967 0.0
Co501 Co 0.85452 0.58474 0.87342 0.0
C502 C 0.83331 0.58124 1.01414 0.0
O503 O 0.84283 0.57943 0.05788 0.0
N504 N 0.85598 0.57165 0.9378 0.0
C505 C 0.85059 0.54915 0.98713 0.0
C506 C 0.84463 0.55693 0.94913 0.0
C507 C 0.8686 0.57269 0.96889 0.0
N508 N 0.86564 0.55918 0.99903 0.0
O509 O 0.87056 0.58312 0.80186 0.0
H510 H 0.83306 0.55199 0.92698 0.0
H511 H 0.88002 0.58264 0.96383 0.0
O512 O 0.83659 0.5837 0.94266 0.0
C513 C 0.8684 0.57059 0.76839 0.0
O514 O 0.85528 0.5578 0.78097 0.0
N515 N 0.87038 0.60368 0.92387 0.0
C516 C 0.8913 0.63483 0.96683 0.0
C517 C 0.87545 0.62784 0.98015 0.0
C518 C 0.86538 0.61267 0.95784 0.0
C519 C 0.88594 0.61023 0.91081 0.0
C520 C 0.89654 0.62571 0.93176 0.0
H521 H 0.8534 0.60905 0.96247 0.0
H522 H 0.8903 0.60387 0.88073 0.0
H523 H 0.8315 0.59612 0.83455 0.0
H524 H 0.86645 0.62679 0.68809 0.0
H525 H 0.84457 0.537 1.00182 0.0
H526 H 0.87056 0.6344 1.00376 0.0
H527 H 0.90868 0.63055 0.91934 0.0
C528 C 0.44706 0.27265 0.79558 0.0
C529 C 0.45068 0.26233 0.76428 0.0
N530 N 0.45939 0.25998 0.81401 0.0
N531 N 0.45333 0.27633 0.86473 0.0
C532 C 0.46086 0.26856 0.87398 0.0
H533 H 0.43999 0.27682 0.77079 0.0
Co534 Co 0.45319 0.28935 0.93384 0.0
C535 C 0.45944 0.27273 0.06646 0.0
O536 O 0.47365 0.28439 0.06991 0.0
N537 N 0.45399 0.30314 1.00308 0.0
C538 C 0.44848 0.31679 0.08157 0.0
C539 C 0.44468 0.30204 0.06026 0.0
C540 C 0.46384 0.31832 0.9939 0.0
N541 N 0.46045 0.32686 0.03893 0.0
O542 O 0.45808 0.30573 0.84705 0.0
H543 H 0.43502 0.29135 0.08055 0.0
H544 H 0.47266 0.32311 0.95101 0.0
O545 O 0.45009 0.27352 1.01855 0.0
C546 C 0.45311 0.31121 0.79452 0.0
O547 O 0.4382 0.30452 0.78287 0.0
N548 N 0.43078 0.27971 0.92642 0.0
C549 C 0.39846 0.26459 0.95049 0.0
C550 C 0.40621 0.25623 0.94516 0.0
C551 C 0.42222 0.26393 0.9334 0.0
C552 C 0.42329 0.28797 0.92628 0.0
C553 C 0.40725 0.2807 0.93877 0.0
H554 H 0.42782 0.25711 0.93361 0.0
H555 H 0.42982 0.30043 0.9217 0.0
H556 H 0.46704 0.26885 0.92419 0.0
H557 H 0.44661 0.2564 0.71118 0.0
H558 H 0.44258 0.31987 0.12281 0.0
H559 H 0.40011 0.24384 0.95403 0.0
H560 H 0.40187 0.28773 0.94116 0.0
C561 C 0.7603 0.19706 0.76354 0.0
C562 C 0.76425 0.21141 0.73643 0.0
N563 N 0.76249 0.21956 0.79191 0.0
N564 N 0.75607 0.19622 0.83572 0.0
C565 C 0.7575 0.21002 0.85146 0.0
H566 H 0.76115 0.18816 0.73355 0.0
Co567 Co 0.7485 0.1803 0.90175 0.0
C568 C 0.7666 0.20251 0.03316 0.0
O569 O 0.75375 0.20225 0.05017 0.0
N570 N 0.74076 0.16422 0.97015 0.0
C571 C 0.74002 0.14639 0.04745 0.0
C572 C 0.74907 0.16108 1.01953 0.0
C573 C 0.72674 0.15144 0.96963 0.0
N574 N 0.7261 0.1403 1.01466 0.0
O575 O 0.72953 0.1678 0.82604 0.0
H576 H 0.76121 0.16857 0.03117 0.0
H577 H 0.71721 0.15019 0.93592 0.0
O578 O 0.76637 0.19414 0.97683 0.0
C579 C 0.72654 0.162 0.75828 0.0
O580 O 0.73773 0.16222 0.7193 0.0
N581 N 0.76051 0.17177 0.86061 0.0
C582 C 0.77616 0.15501 0.86355 0.0
C583 C 0.78427 0.17119 0.87094 0.0
C584 C 0.77623 0.17939 0.86862 0.0
C585 C 0.75291 0.15631 0.8442 0.0
C586 C 0.76047 0.14782 0.84505 0.0
H587 H 0.78249 0.19166 0.88005 0.0
H588 H 0.74052 0.14989 0.83969 0.0
H589 H 0.75553 0.21324 0.90644 0.0
H590 H 0.76936 0.21598 0.6821 0.0
H591 H 0.74344 0.14057 0.08772 0.0
H592 H 0.79645 0.17732 0.88434 0.0
H593 H 0.75375 0.13542 0.83714 0.0
C594 C 0.44251 0.17197 0.57891 0.0
C595 C 0.44837 0.17976 0.64488 0.0
N596 N 0.45927 0.1944 0.62799 0.0
N597 N 0.44947 0.18177 0.52128 0.0
C598 C 0.45958 0.19529 0.55249 0.0
H599 H 0.43452 0.15971 0.57312 0.0
Co600 Co 0.45006 0.17531 0.42794 0.0
C601 C 0.4501 0.19954 0.31953 0.0
O602 O 0.43856 0.18747 0.28766 0.0
N603 N 0.45079 0.16775 0.33214 0.0
C604 C 0.44462 0.15424 0.22597 0.0
C605 C 0.43946 0.16002 0.28104 0.0
C606 C 0.46284 0.16684 0.30485 0.0
N607 N 0.45929 0.15835 0.2418 0.0
O608 O 0.47166 0.17968 0.45517 0.0
H609 H 0.42786 0.15803 0.28394 0.0
H610 H 0.47394 0.17178 0.33179 0.0
O611 O 0.45658 0.19716 0.3779 0.0
C612 C 0.47168 0.16776 0.48436 0.0
O613 O 0.45899 0.15429 0.47804 0.0
N614 N 0.42877 0.16864 0.41844 0.0
C615 C 0.39702 0.15462 0.44831 0.0
C616 C 0.40628 0.1708 0.44323 0.0
C617 C 0.42221 0.1776 0.42991 0.0
C618 C 0.4199 0.15294 0.42376 0.0
C619 C 0.40406 0.14573 0.43663 0.0
H620 H 0.42937 0.19002 0.43394 0.0
H621 H 0.42532 0.14595 0.42083 0.0
H622 H 0.46738 0.20539 0.5201 0.0
H623 H 0.44518 0.17489 0.70066 0.0
H624 H 0.43772 0.14669 0.18091 0.0
H625 H 0.40146 0.17815 0.45424 0.0
H626 H 0.39748 0.13323 0.44011 0.0
C627 C 0.85095 0.27195 0.59427 0.0
C628 C 0.84011 0.27013 0.64674 0.0
N629 N 0.82909 0.27188 0.61204 0.0
N630 N 0.84652 0.27445 0.52698 0.0
C631 C 0.83324 0.27427 0.53933 0.0
H632 H 0.86177 0.27239 0.60515 0.0
Co633 Co 0.85821 0.2832 0.44421 0.0
C634 C 0.83701 0.26188 0.31514 0.0
O635 O 0.84899 0.26081 0.29492 0.0
N636 N 0.87054 0.29295 0.35878 0.0
C637 C 0.88564 0.29954 0.25723 0.0
C638 C 0.87769 0.28821 0.3098 0.0
C639 C 0.87453 0.30727 0.33444 0.0
N640 N 0.88367 0.31148 0.2738 0.0
O641 O 0.85578 0.30192 0.46691 0.0
H642 H 0.87741 0.27729 0.31166 0.0
H643 H 0.87089 0.31468 0.35973 0.0
O644 O 0.83857 0.27062 0.37288 0.0
C645 C 0.86681 0.31132 0.51158 0.0
O646 O 0.87802 0.30842 0.52389 0.0
N647 N 0.86315 0.26715 0.44159 0.0
C648 C 0.87448 0.24708 0.47285 0.0
C649 C 0.85865 0.24127 0.45967 0.0
C650 C 0.85317 0.25153 0.44481 0.0
C651 C 0.87838 0.27289 0.45782 0.0
C652 C 0.88431 0.26315 0.4715 0.0
H653 H 0.8409 0.24698 0.43923 0.0
H654 H 0.886 0.28526 0.46177 0.0
H655 H 0.82743 0.27706 0.49629 0.0
H656 H 0.84049 0.26789 0.70584 0.0
H657 H 0.89266 0.29925 0.21187 0.0
H658 H 0.85056 0.22896 0.46206 0.0
H659 H 0.89647 0.26824 0.48419 0.0
C660 C 0.75015 0.59225 0.54275 0.0
C661 C 0.7628 0.60064 0.5872 0.0
N662 N 0.77461 0.59972 0.55739 0.0
N663 N 0.75399 0.58601 0.48563 0.0
C664 C 0.76888 0.59043 0.49713 0.0
H665 H 0.73945 0.59231 0.54717 0.0
Co666 Co 0.74295 0.5801 0.39838 0.0
C667 C 0.7642 0.5792 0.2742 0.0
O668 O 0.75869 0.58636 0.23404 0.0
N669 N 0.73117 0.57406 0.31236 0.0
C670 C 0.71794 0.55962 0.21525 0.0
C671 C 0.72799 0.56142 0.27172 0.0
C672 C 0.7224 0.57934 0.28178 0.0
N673 N 0.71449 0.57091 0.22211 0.0
O674 O 0.72857 0.55885 0.44398 0.0
H675 H 0.73236 0.55373 0.28382 0.0
H676 H 0.72122 0.58872 0.30385 0.0
O677 O 0.75907 0.57525 0.34313 0.0
C678 C 0.71767 0.55924 0.48189 0.0
O679 O 0.71703 0.57201 0.47863 0.0
N680 N 0.75458 0.60132 0.36781 0.0
C681 C 0.77061 0.63331 0.39821 0.0
C682 C 0.77847 0.62581 0.37365 0.0
C683 C 0.77029 0.60984 0.35922 0.0
C684 C 0.74676 0.6087 0.38713 0.0
C685 C 0.75445 0.6246 0.40103 0.0
H686 H 0.77701 0.60431 0.35071 0.0
H687 H 0.7347 0.602 0.40168 0.0
H688 H 0.77571 0.58804 0.4585 0.0
H689 H 0.76356 0.6079 0.63383 0.0
H690 H 0.71283 0.55025 0.17511 0.0
H691 H 0.79095 0.63187 0.37214 0.0
H692 H 0.74776 0.62977 0.41922 0.0
C693 C 0.51694 0.10373 0.67931 0.0
C694 C 0.52574 0.10992 0.61586 0.0
N695 N 0.53855 0.12327 0.63489 0.0
N696 N 0.5244 0.11299 0.7378 0.0
C697 C 0.53739 0.12472 0.70933 0.0
H698 H 0.50562 0.09351 0.68216 0.0
Co699 Co 0.51676 0.11327 0.82953 0.0
C700 C 0.54477 0.12619 0.94367 0.0
O701 O 0.53987 0.13427 0.9803 0.0
N702 N 0.50855 0.1135 0.92169 0.0
C703 C 0.50065 0.10937 0.04025 0.0
C704 C 0.50876 0.10656 0.98648 0.0
C705 C 0.50007 0.12011 0.93676 0.0
N706 N 0.49517 0.1178 1.0081 0.0
O707 O 0.52046 0.13468 0.80179 0.0
H708 H 0.51446 0.09991 0.99412 0.0
H709 H 0.49765 0.12671 0.89683 0.0
O710 O 0.53778 0.11938 0.88186 0.0
C711 C 0.50906 0.13304 0.76005 0.0
O712 O 0.49717 0.11899 0.75344 0.0
N713 N 0.51074 0.09229 0.84322 0.0
C714 C 0.49795 0.06043 0.82329 0.0
C715 C 0.514 0.07019 0.8287 0.0
C716 C 0.52021 0.08619 0.83788 0.0
C717 C 0.49513 0.08286 0.84198 0.0
C718 C 0.48851 0.06693 0.83257 0.0
H719 H 0.53256 0.0937 0.83491 0.0
H720 H 0.48775 0.08785 0.8436 0.0
H721 H 0.54539 0.13452 0.74262 0.0
H722 H 0.52294 0.10487 0.56043 0.0
H723 H 0.49883 0.10546 0.09797 0.0
H724 H 0.52169 0.06566 0.82076 0.0
H725 H 0.47607 0.05984 0.82923 0.0
C726 C 0.9272 0.4245 0.69892 0.0
C727 C 0.92005 0.42713 0.6399 0.0
N728 N 0.90709 0.42645 0.66562 0.0
N729 N 0.91896 0.42253 0.7617 0.0
C730 C 0.90677 0.42372 0.73992 0.0
H731 H 0.93732 0.42333 0.69559 0.0
Co732 Co 0.92091 0.41381 0.84723 0.0
C733 C 0.91868 0.43299 0.97875 0.0
O734 O 0.92997 0.43167 1.00767 0.0
N735 N 0.92285 0.40395 0.93383 0.0
C736 C 0.9316 0.39645 0.03098 0.0
C737 C 0.93523 0.4078 0.97859 0.0
C738 C 0.9119 0.39009 0.96072 0.0
N739 N 0.91698 0.3853 1.01887 0.0
O740 O 0.90021 0.39488 0.81967 0.0
H741 H 0.94631 0.41824 0.97492 0.0
H742 H 0.9004 0.38338 0.93811 0.0
O743 O 0.9128 0.42595 0.915 0.0
C744 C 0.90233 0.38521 0.77989 0.0
O745 O 0.91653 0.38788 0.7748 0.0
N746 N 0.94151 0.43044 0.85614 0.0
C747 C 0.97284 0.45256 0.83896 0.0
C748 C 0.96201 0.45704 0.85688 0.0
C749 C 0.9463 0.44582 0.86311 0.0
C750 C 0.95184 0.42602 0.83592 0.0
C751 C 0.96751 0.43679 0.8284 0.0
H752 H 0.93803 0.44961 0.87025 0.0
H753 H 0.9478 0.41394 0.82499 0.0
H754 H 0.89745 0.42178 0.7772 0.0
H755 H 0.92418 0.42947 0.58263 0.0
H756 H 0.93924 0.39613 0.07291 0.0
H757 H 0.96555 0.46915 0.86283 0.0
H758 H 0.97538 0.43275 0.814 0.0
C759 C 0.60391 0.49936 0.68186 0.0
C760 C 0.6017 0.48694 0.63984 0.0
N761 N 0.60463 0.47768 0.68356 0.0
N762 N 0.60802 0.49775 0.75168 0.0
C763 C 0.60825 0.48443 0.75132 0.0
H764 H 0.60321 0.50922 0.66212 0.0
Co765 Co 0.6166 0.51251 0.82356 0.0
C766 C 0.59813 0.4942 0.96727 0.0
O767 O 0.59798 0.5067 0.98751 0.0
N768 N 0.62606 0.52824 0.89697 0.0
C769 C 0.63239 0.54783 0.97631 0.0
C770 C 0.62062 0.53614 0.93604 0.0
C771 C 0.64118 0.53554 0.91462 0.0
N772 N 0.64532 0.54749 0.96156 0.0
O773 O 0.6367 0.51211 0.8081 0.0
H774 H 0.60889 0.53385 0.93512 0.0
H775 H 0.6492 0.53218 0.89457 0.0
O776 O 0.60594 0.49494 0.90717 0.0
C777 C 0.64333 0.51909 0.74553 0.0
O778 O 0.63627 0.52461 0.70481 0.0
N779 N 0.5993 0.5153 0.81976 0.0
C780 C 0.5779 0.52522 0.79769 0.0
C781 C 0.57324 0.51039 0.82704 0.0
C782 C 0.5841 0.50551 0.83626 0.0
C783 C 0.60371 0.52919 0.78644 0.0
C784 C 0.5934 0.5345 0.77661 0.0
H785 H 0.58024 0.4939 0.85574 0.0
H786 H 0.61561 0.53648 0.76953 0.0
H787 H 0.61156 0.48005 0.7991 0.0
H788 H 0.59787 0.4847 0.58206 0.0
H789 H 0.63154 0.55601 1.01275 0.0
H790 H 0.5613 0.50257 0.84171 0.0
H791 H 0.59775 0.54602 0.75416 0.0
C792 C 0.61198 0.85591 0.81949 0.0
C793 C 0.61723 0.84717 0.85429 0.0
N794 N 0.60844 0.83249 0.83071 0.0
N795 N 0.60008 0.84666 0.77419 0.0
C796 C 0.59807 0.83249 0.78302 0.0
H797 H 0.61698 0.86827 0.8242 0.0
Co798 Co 0.58996 0.85179 0.70564 0.0
C799 C 0.58977 0.83313 0.55646 0.0
O800 O 0.59136 0.84416 0.5108 0.0
N801 N 0.5791 0.85667 0.63904 0.0
C802 C 0.55781 0.85285 0.58154 0.0
C803 C 0.56652 0.84628 0.60075 0.0
C804 C 0.57767 0.8693 0.64321 0.0
N805 N 0.56477 0.86728 0.60977 0.0
O806 O 0.58749 0.86583 0.78774 0.0
H807 H 0.56303 0.83422 0.59383 0.0
H808 H 0.58488 0.87912 0.6777 0.0
O809 O 0.58948 0.83527 0.62849 0.0
C810 C 0.59242 0.87772 0.83238 0.0
O811 O 0.60724 0.8879 0.83302 0.0
N812 N 0.61034 0.86778 0.66769 0.0
C813 C 0.64214 0.88834 0.63477 0.0
C814 C 0.63554 0.87227 0.62982 0.0
C815 C 0.61993 0.86238 0.64628 0.0
C816 C 0.61642 0.88348 0.67086 0.0
C817 C 0.63217 0.89388 0.65476 0.0
H818 H 0.61605 0.85021 0.64741 0.0
H819 H 0.60946 0.88825 0.68886 0.0
H820 H 0.5895 0.82245 0.75287 0.0
H821 H 0.62672 0.85125 0.89352 0.0
H822 H 0.54685 0.84713 0.55263 0.0
H823 H 0.64255 0.86714 0.61735 0.0
H824 H 0.63653 0.90618 0.65925 0.0
C825 C 0.18802 0.75887 0.83009 0.0
C826 C 0.19839 0.77142 0.87083 0.0
N827 N 0.21233 0.77674 0.83933 0.0
N828 N 0.19553 0.75671 0.77279 0.0
C829 C 0.21039 0.76753 0.78097 0.0
H830 H 0.17566 0.75265 0.83773 0.0
Co831 Co 0.18687 0.74418 0.69262 0.0
C832 C 0.20512 0.76859 0.55679 0.0
O833 O 0.19243 0.76573 0.52176 0.0
N834 N 0.17796 0.73103 0.6122 0.0
C835 C 0.17187 0.71963 0.50057 0.0
C836 C 0.18327 0.73141 0.54209 0.0
C837 C 0.16383 0.71841 0.61306 0.0
N838 N 0.15969 0.71164 0.54599 0.0
O839 O 0.17233 0.72623 0.76958 0.0
H840 H 0.19472 0.73945 0.52209 0.0
H841 H 0.15643 0.71417 0.66147 0.0
O842 O 0.20383 0.7613 0.61962 0.0
C843 C 0.1604 0.71923 0.81414 0.0
O844 O 0.15105 0.72479 0.81939 0.0
N845 N 0.17332 0.75304 0.67866 0.0
C846 C 0.15608 0.76798 0.64792 0.0
C847 C 0.17215 0.77643 0.65721 0.0
C848 C 0.18043 0.76885 0.67273 0.0
C849 C 0.15757 0.74469 0.67318 0.0
C850 C 0.14886 0.75183 0.6571 0.0
H851 H 0.19274 0.77591 0.68014 0.0
H852 H 0.15138 0.73241 0.68117 0.0
H853 H 0.21937 0.76953 0.74129 0.0
H854 H 0.19581 0.77683 0.9167 0.0
H855 H 0.17257 0.71691 0.44248 0.0
H856 H 0.1784 0.78893 0.65356 0.0
H857 H 0.13649 0.74459 0.651 0.0
C858 C 0.28029 0.44658 0.84266 0.0
C859 C 0.27502 0.4538 0.88934 0.0
N860 N 0.273 0.46394 0.84799 0.0
N861 N 0.28131 0.4521 0.77258 0.0
C862 C 0.27682 0.4626 0.77742 0.0
H863 H 0.28364 0.43826 0.85896 0.0
Co864 Co 0.29147 0.45044 0.69336 0.0
C865 C 0.27409 0.4569 0.56508 0.0
O866 O 0.28706 0.46944 0.54743 0.0
N867 N 0.30236 0.44989 0.61279 0.0
C868 C 0.32018 0.45982 0.52447 0.0
C869 C 0.31502 0.46286 0.5897 0.0
C870 C 0.2998 0.43916 0.56017 0.0
N871 N 0.31056 0.44494 0.50604 0.0
O872 O 0.30915 0.45423 0.76987 0.0
H873 H 0.32021 0.47377 0.61924 0.0
H874 H 0.29038 0.42734 0.56105 0.0
O875 O 0.27424 0.44841 0.61998 0.0
C876 C 0.32189 0.45436 0.78591 0.0
O877 O 0.32795 0.44962 0.7346 0.0
N878 N 0.28054 0.42798 0.70384 0.0
C879 C 0.26265 0.39562 0.6802 0.0
C880 C 0.25573 0.40467 0.6916 0.0
C881 C 0.26477 0.42064 0.70301 0.0
C882 C 0.2875 0.41921 0.7025 0.0
C883 C 0.27881 0.40308 0.68935 0.0
H884 H 0.25896 0.42722 0.70791 0.0
H885 H 0.29993 0.42479 0.7045 0.0
H886 H 0.27661 0.46936 0.73038 0.0
H887 H 0.27243 0.45149 0.94851 0.0
H888 H 0.33079 0.46761 0.49543 0.0
H889 H 0.24333 0.39958 0.68956 0.0
H890 H 0.28486 0.39676 0.68223 0.0
C891 C 0.52591 0.91909 0.10144 0.0
C892 C 0.51348 0.90991 0.05688 0.0
N893 N 0.50244 0.89886 0.10034 0.0
N894 N 0.52258 0.91385 0.17255 0.0
C895 C 0.50822 0.90158 0.17035 0.0
H896 H 0.53685 0.92864 0.08293 0.0
Co897 Co 0.53611 0.91909 0.24946 0.0
C898 C 0.50972 0.91013 0.36872 0.0
O899 O 0.50846 0.89644 0.37403 0.0
N900 N 0.55028 0.92446 0.32751 0.0
C901 C 0.5713 0.9303 0.39304 0.0
C902 C 0.56475 0.92687 0.32324 0.0
C903 C 0.54846 0.9267 0.40059 0.0
N904 N 0.56091 0.92986 0.44237 0.0
O905 O 0.55083 0.91612 0.17457 0.0
H906 H 0.57011 0.92554 0.27355 0.0
H907 H 0.53784 0.92483 0.42496 0.0
O908 O 0.52007 0.92015 0.32288 0.0
C909 C 0.54744 0.90336 0.13945 0.0
O910 O 0.53387 0.89118 0.15275 0.0
N911 N 0.54529 0.94102 0.22703 0.0
C912 C 0.56048 0.97379 0.23378 0.0
C913 C 0.54433 0.96461 0.24081 0.0
C914 C 0.53701 0.94836 0.23693 0.0
C915 C 0.56076 0.94977 0.21289 0.0
C916 C 0.56853 0.96599 0.21724 0.0
H917 H 0.52465 0.94172 0.24434 0.0
H918 H 0.56747 0.94431 0.2022 0.0
H919 H 0.50218 0.89463 0.21881 0.0
H920 H 0.51239 0.91159 0.99764 0.0
H921 H 0.58215 0.93108 0.40769 0.0
H922 H 0.53733 0.96987 0.25036 0.0
H923 H 0.58094 0.97221 0.21091 0.0
C924 C 0.11499 0.60774 0.06329 0.0
C925 C 0.12473 0.60651 1.01359 0.0
N926 N 0.13698 0.60795 0.05197 0.0
N927 N 0.12102 0.60975 0.13269 0.0
C928 C 0.13433 0.60974 0.12432 0.0
H929 H 0.10464 0.608 0.04917 0.0
Co930 Co 0.1159 0.61721 0.21336 0.0
C931 C 0.12296 0.59981 0.33857 0.0
O932 O 0.13431 0.61335 0.3598 0.0
N933 N 0.11044 0.62475 0.29418 0.0
C934 C 0.09619 0.62551 0.38748 0.0
C935 C 0.10036 0.61631 0.34898 0.0
C936 C 0.11228 0.63892 0.30059 0.0
N937 N 0.10353 0.63964 0.35589 0.0
O938 O 0.11926 0.63598 0.14352 0.0
H939 H 0.09566 0.60407 0.35799 0.0
H940 H 0.11998 0.64862 0.2657 0.0
O941 O 0.11465 0.59941 0.28156 0.0
C942 C 0.13215 0.64566 0.10988 0.0
O943 O 0.14418 0.64408 0.1228 0.0
N944 N 0.09394 0.60507 0.19109 0.0
C945 C 0.06206 0.59001 0.22382 0.0
C946 C 0.07001 0.58177 0.22182 0.0
C947 C 0.0859 0.58947 0.20458 0.0
C948 C 0.08592 0.61272 0.18266 0.0
C949 C 0.07012 0.60547 0.1993 0.0
H950 H 0.09189 0.58305 0.20832 0.0
H951 H 0.09195 0.62498 0.17134 0.0
H952 H 0.1422 0.61162 0.17002 0.0
H953 H 0.12277 0.60436 0.95398 0.0
H954 H 0.08851 0.62215 0.43529 0.0
H955 H 0.06435 0.56975 0.23872 0.0
H956 H 0.06447 0.61227 0.19704 0.0
C957 C 0.41908 0.51765 0.12337 0.0
C958 C 0.42742 0.53271 0.09928 0.0
N959 N 0.43078 0.54202 0.15937 0.0
N960 N 0.41733 0.51759 0.19828 0.0
C961 C 0.42432 0.53256 0.2182 0.0
H962 H 0.41539 0.50745 0.08929 0.0
Co963 Co 0.40833 0.50108 0.26194 0.0
C964 C 0.42379 0.52205 0.40492 0.0
O965 O 0.41055 0.52071 0.42442 0.0
N966 N 0.39916 0.48439 0.32672 0.0
C967 C 0.39546 0.46542 0.40409 0.0
C968 C 0.40611 0.47976 0.3768 0.0
C969 C 0.38438 0.47295 0.32541 0.0
N970 N 0.38178 0.46107 0.37105 0.0
O971 O 0.39235 0.48842 0.17564 0.0
H972 H 0.41827 0.4861 0.39027 0.0
H973 H 0.37566 0.47348 0.29203 0.0
O974 O 0.42411 0.51455 0.34611 0.0
C975 C 0.3808 0.48971 0.15092 0.0
O976 O 0.37776 0.49941 0.18584 0.0
N977 N 0.42208 0.49384 0.23061 0.0
C978 C 0.4401 0.47938 0.2371 0.0
C979 C 0.44674 0.49542 0.24844 0.0
C980 C 0.43759 0.50242 0.24438 0.0
C981 C 0.41583 0.47864 0.21091 0.0
C982 C 0.42451 0.47121 0.21492 0.0
H983 H 0.44284 0.51459 0.25697 0.0
H984 H 0.40362 0.47167 0.1998 0.0
H985 H 0.42564 0.53662 0.27525 0.0
H986 H 0.43206 0.5365 0.04343 0.0
H987 H 0.39768 0.45877 0.445 0.0
H988 H 0.45882 0.50249 0.26267 0.0
H989 H 0.4186 0.45886 0.20553 0.0
C990 C 0.11221 0.52138 0.90304 0.0
C991 C 0.12133 0.53216 0.95522 0.0
N992 N 0.13466 0.54242 0.92173 0.0
N993 N 0.11973 0.52496 0.8369 0.0
C994 C 0.13328 0.53794 0.84964 0.0
H995 H 0.10125 0.51107 0.91385 0.0
Co996 Co 0.11531 0.51148 0.7596 0.0
C997 C 0.11677 0.53074 0.61697 0.0
O998 O 0.10502 0.51797 0.59164 0.0
N999 N 0.11066 0.49681 0.68189 0.0
C1000 C 0.0986 0.4777 0.59864 0.0
C1001 C 0.0977 0.48878 0.63987 0.0
C1002 C 0.11911 0.49017 0.66487 0.0
N1003 N 0.11201 0.47851 0.61544 0.0
O1004 O 0.136 0.51258 0.7807 0.0
H1005 H 0.08792 0.49053 0.63936 0.0
H1006 H 0.13032 0.49365 0.68812 0.0
O1007 O 0.12296 0.53006 0.68057 0.0
C1008 C 0.13528 0.50512 0.84213 0.0
O1009 O 0.12215 0.49848 0.87881 0.0
N1010 N 0.09497 0.50804 0.75656 0.0
C1011 C 0.06339 0.49736 0.76396 0.0
C1012 C 0.07373 0.51258 0.74088 0.0
C1013 C 0.08965 0.51784 0.73881 0.0
C1014 C 0.0851 0.49374 0.78535 0.0
C1015 C 0.06928 0.48806 0.78798 0.0
H1016 H 0.09758 0.52969 0.72318 0.0
H1017 H 0.08959 0.48646 0.80385 0.0
H1018 H 0.14229 0.54351 0.80795 0.0
H1019 H 0.11832 0.53254 1.01319 0.0
H1020 H 0.08993 0.46947 0.56076 0.0
H1021 H 0.06953 0.52019 0.72366 0.0
H1022 H 0.06166 0.47636 0.8075 0.0
C1023 C 0.52323 0.60349 0.91792 0.0
C1024 C 0.51537 0.60134 0.98432 0.0
N1025 N 0.50108 0.59852 0.9676 0.0
N1026 N 0.51372 0.60167 0.86053 0.0
C1027 C 0.50034 0.59846 0.89223 0.0
H1028 H 0.53543 0.60765 0.91211 0.0
Co1029 Co 0.51958 0.61071 0.76954 0.0
C1030 C 0.49531 0.58926 0.65512 0.0
O1031 O 0.50764 0.59264 0.61553 0.0
N1032 N 0.5256 0.62077 0.6771 0.0
C1033 C 0.53602 0.63225 0.56863 0.0
C1034 C 0.53604 0.62267 0.62393 0.0
C1035 C 0.51929 0.62905 0.65174 0.0
N1036 N 0.52555 0.63631 0.5869 0.0
O1037 O 0.51632 0.62799 0.81272 0.0
H1038 H 0.54358 0.61792 0.62491 0.0
H1039 H 0.51071 0.63041 0.68202 0.0
O1040 O 0.49737 0.59599 0.72067 0.0
C1041 C 0.52863 0.64103 0.82983 0.0
O1042 O 0.54181 0.64364 0.80158 0.0
N1043 N 0.52555 0.59601 0.74378 0.0
C1044 C 0.53787 0.57632 0.73597 0.0
C1045 C 0.52192 0.57026 0.74324 0.0
C1046 C 0.516 0.5803 0.7481 0.0
C1047 C 0.54113 0.60199 0.74218 0.0
C1048 C 0.54749 0.59243 0.73563 0.0
H1049 H 0.50383 0.57542 0.75895 0.0
H1050 H 0.54873 0.61433 0.74805 0.0
H1051 H 0.49066 0.59735 0.86035 0.0
H1052 H 0.52011 0.60271 0.04019 0.0
H1053 H 0.544 0.63691 0.522 0.0
H1054 H 0.51413 0.55788 0.74628 0.0
H1055 H 0.55992 0.5976 0.7334 0.0
C1056 C 0.43709 0.92505 0.91939 0.0
C1057 C 0.44022 0.91886 0.98106 0.0
N1058 N 0.4389 0.90525 0.96096 0.0
N1059 N 0.4341 0.91549 0.8607 0.0
C1060 C 0.43528 0.90358 0.88748 0.0
H1061 H 0.43637 0.93548 0.91806 0.0
Co1062 Co 0.42483 0.91556 0.77281 0.0
C1063 C 0.44799 0.91636 0.65321 0.0
O1064 O 0.44755 0.92848 0.62803 0.0
N1065 N 0.41443 0.91505 0.68548 0.0
C1066 C 0.40323 0.90943 0.57352 0.0
C1067 C 0.4144 0.9093 0.61688 0.0
C1068 C 0.40241 0.91755 0.68365 0.0
N1069 N 0.3957 0.91461 0.6157 0.0
O1070 O 0.40635 0.89453 0.80321 0.0
H1071 H 0.4208 0.90379 0.60051 0.0
H1072 H 0.39806 0.92054 0.73253 0.0
O1073 O 0.4389 0.90871 0.70997 0.0
C1074 C 0.39868 0.89661 0.85681 0.0
O1075 O 0.40378 0.91086 0.8792 0.0
N1076 N 0.44024 0.93679 0.75812 0.0
C1077 C 0.4604 0.96892 0.76935 0.0
C1078 C 0.46596 0.95856 0.77495 0.0
C1079 C 0.45567 0.94255 0.77033 0.0
C1080 C 0.43473 0.94676 0.75339 0.0
C1081 C 0.44454 0.96272 0.75779 0.0
H1082 H 0.46003 0.93476 0.77969 0.0
H1083 H 0.42252 0.94245 0.75154 0.0
H1084 H 0.43281 0.89355 0.85431 0.0
H1085 H 0.44344 0.92409 0.03606 0.0
H1086 H 0.3998 0.90452 0.51794 0.0
H1087 H 0.47807 0.96272 0.78476 0.0
H1088 H 0.4395 0.97008 0.75653 0.0
C1089 C 0.1789 0.43541 0.0429 0.0
C1090 C 0.18768 0.44046 0.97878 0.0
N1091 N 0.20042 0.45414 0.9938 0.0
N1092 N 0.1863 0.44579 0.09781 0.0
C1093 C 0.19926 0.457 0.06645 0.0
H1094 H 0.16765 0.42517 0.04843 0.0
Co1095 Co 0.17908 0.44773 0.18823 0.0
C1096 C 0.20247 0.44864 0.30379 0.0
O1097 O 0.18991 0.43828 0.33845 0.0
N1098 N 0.17171 0.45045 0.27929 0.0
C1099 C 0.17164 0.46182 0.38604 0.0
C1100 C 0.18063 0.46143 0.32965 0.0
C1101 C 0.15715 0.44509 0.30403 0.0
N1102 N 0.15687 0.45155 0.36979 0.0
O1103 O 0.18267 0.46886 0.15372 0.0
H1104 H 0.19284 0.46945 0.32361 0.0
H1105 H 0.14689 0.43757 0.27245 0.0
O1106 O 0.20076 0.45458 0.2413 0.0
C1107 C 0.17278 0.46714 0.10163 0.0
O1108 O 0.16256 0.45295 0.08219 0.0
N1109 N 0.17257 0.42649 0.20852 0.0
C1110 C 0.15936 0.39431 0.19082 0.0
C1111 C 0.17542 0.40398 0.19507 0.0
C1112 C 0.18182 0.42008 0.20218 0.0
C1113 C 0.15695 0.4171 0.20539 0.0
C1114 C 0.15015 0.4011 0.19823 0.0
H1115 H 0.19415 0.42738 0.19618 0.0
H1116 H 0.14965 0.42204 0.19997 0.0
H1117 H 0.20735 0.46739 0.09606 0.0
H1118 H 0.18501 0.43438 0.92583 0.0
H1119 H 0.17551 0.47001 0.4319 0.0
H1120 H 0.18299 0.39932 0.18701 0.0
H1121 H 0.13771 0.39417 0.19362 0.0
C1122 C 0.60516 0.7447 0.07976 0.0
C1123 C 0.60692 0.7517 1.01143 0.0
N1124 N 0.59742 0.75751 1.01003 0.0
N1125 N 0.59504 0.74669 0.12122 0.0
C1126 C 0.59036 0.75437 0.07709 0.0
H1127 H 0.61083 0.73851 0.09817 0.0
Co1128 Co 0.58816 0.73777 0.21164 0.0
C1129 C 0.58529 0.76042 0.3181 0.0
O1130 O 0.59188 0.75543 0.36508 0.0
N1131 N 0.58081 0.72757 0.30302 0.0
C1132 C 0.57707 0.71584 0.41323 0.0
C1133 C 0.58795 0.72552 0.36258 0.0
C1134 C 0.56565 0.71915 0.31965 0.0
N1135 N 0.56306 0.71173 0.38552 0.0
O1136 O 0.56782 0.72261 0.15797 0.0
H1137 H 0.6002 0.7303 0.36913 0.0
H1138 H 0.5565 0.71764 0.28233 0.0
O1139 O 0.58224 0.75451 0.25011 0.0
C1140 C 0.56511 0.70872 0.1428 0.0
O1141 O 0.57355 0.70397 0.17721 0.0
N1142 N 0.60872 0.75081 0.24851 0.0
C1143 C 0.6412 0.76866 0.2445 0.0
C1144 C 0.63214 0.77566 0.23938 0.0
C1145 C 0.61601 0.76658 0.24052 0.0
C1146 C 0.61742 0.74386 0.25436 0.0
C1147 C 0.63359 0.75254 0.25416 0.0
H1148 H 0.60957 0.77224 0.22707 0.0
H1149 H 0.61181 0.73138 0.25288 0.0
H1150 H 0.58219 0.75785 0.09413 0.0
H1151 H 0.61468 0.75269 0.96677 0.0
H1152 H 0.57923 0.71102 0.46314 0.0
H1153 H 0.63744 0.78802 0.2308 0.0
H1154 H 0.64004 0.74654 0.25604 0.0
C1155 C 0.29379 0.86623 0.05803 0.0
C1156 C 0.29009 0.85998 0.98775 0.0
N1157 N 0.28624 0.84505 0.99302 0.0
N1158 N 0.29211 0.85521 0.1071 0.0
C1159 C 0.2876 0.84245 0.06604 0.0
H1160 H 0.29754 0.87808 0.07274 0.0
Co1161 Co 0.29835 0.85966 0.20375 0.0
C1162 C 0.28068 0.82942 0.30296 0.0
O1163 O 0.29332 0.83309 0.34066 0.0
N1164 N 0.3053 0.86541 0.30045 0.0
C1165 C 0.30681 0.8731 0.41846 0.0
C1166 C 0.29702 0.86384 0.36301 0.0
C1167 C 0.31993 0.87574 0.31858 0.0
N1168 N 0.32118 0.8807 0.38988 0.0
O1169 O 0.31593 0.85542 0.17707 0.0
H1170 H 0.28458 0.85719 0.36663 0.0
H1171 H 0.32937 0.88 0.27906 0.0
O1172 O 0.2818 0.83757 0.2437 0.0
C1173 C 0.32596 0.86578 0.13093 0.0
O1174 O 0.32461 0.8779 0.11627 0.0
N1175 N 0.28359 0.866 0.21824 0.0
C1176 C 0.26521 0.87958 0.19879 0.0
C1177 C 0.25884 0.86351 0.19207 0.0
C1178 C 0.26825 0.85694 0.20161 0.0
C1179 C 0.28973 0.88149 0.22912 0.0
C1180 C 0.28074 0.88845 0.22058 0.0
H1181 H 0.26349 0.84481 0.18937 0.0
H1182 H 0.30196 0.88869 0.2397 0.0
H1183 H 0.28477 0.83134 0.08955 0.0
H1184 H 0.28939 0.86567 0.93735 0.0
H1185 H 0.30351 0.87468 0.47405 0.0
H1186 H 0.24699 0.8562 0.17441 0.0
H1187 H 0.28616 0.90085 0.22759 0.0
H1188 H 0.24773 0.13384 0.61245 0.0
H1189 H 0.24199 0.0937 0.7314 0.0
H1190 H 0.2433 0.1064 0.85103 0.0
H1191 H 0.24632 0.12907 0.92412 0.0
H1192 H 0.25254 0.16945 0.80573 0.0
H1193 H 0.25087 0.15662 0.68581 0.0
C1194 C 0.24664 0.1277 0.6643 0.0
C1195 C 0.24459 0.11246 0.66079 0.0
C1196 C 0.2476 0.13529 0.73418 0.0
C1197 C 0.24344 0.10518 0.73026 0.0
C1198 C 0.24425 0.11256 0.79942 0.0
C1199 C 0.24736 0.13521 0.87234 0.0
C1200 C 0.24961 0.15053 0.87604 0.0
C1201 C 0.24638 0.12765 0.80248 0.0
C1202 C 0.25085 0.15788 0.80667 0.0
C1203 C 0.24986 0.15043 0.73738 0.0
H1204 H 0.92911 0.15668 0.83891 0.0
H1205 H 0.91571 0.13523 0.62119 0.0
H1206 H 0.89382 0.11243 0.67925 0.0
H1207 H 0.87725 0.0991 0.79054 0.0
H1208 H 0.89056 0.12035 1.0086 0.0
H1209 H 0.91359 0.14235 0.95218 0.0
C1210 C 0.92155 0.14698 0.80363 0.0
C1211 C 0.92443 0.14802 0.72432 0.0
C1212 C 0.90881 0.13372 0.83802 0.0
C1213 C 0.91423 0.13505 0.68142 0.0
C1214 C 0.90154 0.12194 0.71505 0.0
C1215 C 0.88527 0.10839 0.82663 0.0
C1216 C 0.88186 0.10767 0.9052 0.0
C1217 C 0.89855 0.1212 0.79313 0.0
C1218 C 0.89266 0.12011 0.94918 0.0
C1219 C 0.90585 0.13288 0.91626 0.0
H1220 H 0.89427 0.80009 0.74579 0.0
H1221 H 0.88749 0.76777 0.56982 0.0
H1222 H 0.90459 0.76075 0.63615 0.0
H1223 H 0.92151 0.76339 0.74567 0.0
H1224 H 0.92812 0.79562 0.92183 0.0
H1225 H 0.91127 0.80283 0.85469 0.0
C1226 C 0.89654 0.79156 0.72097 0.0
C1227 C 0.88932 0.78463 0.65092 0.0
C1228 C 0.90646 0.78742 0.76044 0.0
C1229 C 0.89263 0.77349 0.62224 0.0
C1230 C 0.9025 0.76941 0.66082 0.0
C1231 C 0.91933 0.77201 0.77005 0.0
C1232 C 0.92641 0.77885 0.84046 0.0
C1233 C 0.90947 0.77621 0.73028 0.0
C1234 C 0.92312 0.79002 0.86896 0.0
C1235 C 0.91338 0.79419 0.82999 0.0
H1236 H 0.12848 0.2683 0.8872 0.0
H1237 H 0.10796 0.22364 0.99489 0.0
H1238 H 0.12479 0.21744 0.91974 0.0
H1239 H 0.14589 0.22488 0.8236 0.0
H1240 H 0.16604 0.26977 0.71832 0.0
H1241 H 0.14895 0.27555 0.79214 0.0
C1242 C 0.12748 0.25709 0.8949 0.0
C1243 C 0.11656 0.24647 0.94822 0.0
C1244 C 0.13735 0.25365 0.85139 0.0
C1245 C 0.1159 0.23212 0.95525 0.0
C1246 C 0.12568 0.2286 0.91194 0.0
C1247 C 0.14664 0.23599 0.8164 0.0
C1248 C 0.15763 0.24688 0.76399 0.0
C1249 C 0.13655 0.23929 0.85986 0.0
C1250 C 0.15801 0.26109 0.75699 0.0
C1251 C 0.14812 0.26441 0.79968 0.0
H1252 H 0.78562 0.89545 0.97985 0.0
H1253 H 0.7954 0.86366 0.86303 0.0
H1254 H 0.7962 0.87644 0.74377 0.0
H1255 H 0.79418 0.89684 0.67051 0.0
H1256 H 0.78373 0.92813 0.78757 0.0
H1257 H 0.78307 0.91541 0.90661 0.0
C1258 C 0.78801 0.89123 0.92861 0.0
C1259 C 0.7906 0.87839 0.93267 0.0
C1260 C 0.78825 0.89863 0.85899 0.0
C1261 C 0.79347 0.87337 0.86382 0.0
C1262 C 0.79388 0.88075 0.79488 0.0
C1263 C 0.79168 0.90094 0.72179 0.0
C1264 C 0.78896 0.9137 0.71791 0.0
C1265 C 0.79128 0.89341 0.79134 0.0
C1266 C 0.78579 0.91849 0.78666 0.0
C1267 C 0.78547 0.91116 0.85552 0.0
H1268 H 0.16879 0.9128 0.84194 0.0
H1269 H 0.1395 0.91886 0.99851 0.0
H1270 H 0.11675 0.9003 0.92565 0.0
H1271 H 0.10488 0.88196 0.81653 0.0
H1272 H 0.1347 0.8761 0.66246 0.0
H1273 H 0.1572 0.89476 0.73498 0.0
C1274 C 0.15749 0.91022 0.86098 0.0
C1275 C 0.15628 0.91766 0.92729 0.0
C1276 C 0.14434 0.89936 0.81852 0.0
C1277 C 0.1412 0.91369 0.94881 0.0
C1278 C 0.12808 0.90294 0.90664 0.0
C1279 C 0.11628 0.88469 0.79829 0.0
C1280 C 0.11772 0.87727 0.73236 0.0
C1281 C 0.12944 0.89563 0.84124 0.0
C1282 C 0.13285 0.8813 0.71163 0.0
C1283 C 0.14584 0.89209 0.75361 0.0
H1284 H 0.81429 0.92261 0.45 0.0
H1285 H 0.80656 0.93789 0.23669 0.0
H1286 H 0.81295 0.92037 0.17172 0.0
H1287 H 0.81105 0.89523 0.18058 0.0
H1288 H 0.81303 0.87685 0.39626 0.0
H1289 H 0.81932 0.9013 0.45594 0.0
C1290 C 0.81469 0.92261 0.38925 0.0
C1291 C 0.80932 0.9309 0.34787 0.0
C1292 C 0.81709 0.91165 0.35319 0.0
C1293 C 0.81013 0.93109 0.2693 0.0
C1294 C 0.81373 0.92106 0.23239 0.0
C1295 C 0.81359 0.89686 0.24008 0.0
C1296 C 0.81098 0.88422 0.2849 0.0
C1297 C 0.81574 0.91032 0.27421 0.0
C1298 C 0.81454 0.88642 0.36156 0.0
C1299 C 0.81801 0.90032 0.39549 0.0
H1300 H 0.13754 0.92889 0.23027 0.0
H1301 H 0.16345 0.94 0.43663 0.0
H1302 H 0.13974 0.92442 0.50689 0.0
H1303 H 0.11462 0.90079 0.49951 0.0
H1304 H 0.08987 0.88774 0.2903 0.0
H1305 H 0.10974 0.91156 0.23197 0.0
C1306 C 0.13803 0.92847 0.29083 0.0
C1307 C 0.15231 0.93456 0.32759 0.0
C1308 C 0.12444 0.91898 0.33029 0.0
C1309 C 0.15262 0.9345 0.40648 0.0
C1310 C 0.13905 0.92567 0.44681 0.0
C1311 C 0.11316 0.90357 0.44239 0.0
C1312 C 0.10145 0.89224 0.39748 0.0
C1313 C 0.1252 0.91664 0.4081 0.0
C1314 C 0.09927 0.89615 0.3246 0.0
C1315 C 0.11072 0.90966 0.29112 0.0
H1316 H 0.1435 0.21065 0.33653 0.0
H1317 H 0.13403 0.21953 0.56073 0.0
H1318 H 0.10917 0.21563 0.52085 0.0
H1319 H 0.09651 0.22056 0.41565 0.0
H1320 H 0.10892 0.21639 0.18911 0.0
H1321 H 0.12563 0.20713 0.23511 0.0
C1322 C 0.13565 0.21107 0.37697 0.0
C1323 C 0.14091 0.21641 0.4497 0.0
C1324 C 0.12201 0.21013 0.35218 0.0
C1325 C 0.13046 0.21604 0.50336 0.0
C1326 C 0.11629 0.21401 0.48034 0.0
C1327 C 0.10251 0.21712 0.37661 0.0
C1328 C 0.10229 0.22001 0.2998 0.0
C1329 C 0.11288 0.21282 0.40362 0.0
C1330 C 0.10933 0.21475 0.2489 0.0
C1331 C 0.11899 0.20954 0.27521 0.0
H1332 H 0.91934 0.79398 0.15826 0.0
H1333 H 0.90148 0.74495 0.17552 0.0
H1334 H 0.87568 0.74064 0.20207 0.0
H1335 H 0.85995 0.75139 0.24318 0.0
H1336 H 0.87888 0.80063 0.24735 0.0
H1337 H 0.90247 0.80458 0.18587 0.0
C1338 C 0.90966 0.7824 0.16679 0.0
C1339 C 0.91207 0.76982 0.16716 0.0
C1340 C 0.89516 0.78017 0.18482 0.0
C1341 C 0.8997 0.75476 0.17749 0.0
C1342 C 0.88504 0.75231 0.19182 0.0
C1343 C 0.86902 0.76289 0.22736 0.0
C1344 C 0.86798 0.77573 0.24898 0.0
C1345 C 0.88282 0.765 0.19866 0.0
C1346 C 0.87971 0.79069 0.23039 0.0
C1347 C 0.89316 0.7929 0.19646 0.0
H1348 H 0.2206 0.10224 0.38044 0.0
H1349 H 0.23508 0.09069 0.17499 0.0
H1350 H 0.22663 0.1059 0.10339 0.0
H1351 H 0.22453 0.12916 0.10823 0.0
H1352 H 0.21444 0.14349 0.31739 0.0
H1353 H 0.21065 0.11995 0.37818 0.0
C1354 C 0.22128 0.10246 0.31976 0.0
C1355 C 0.22922 0.09613 0.28321 0.0
C1356 C 0.21722 0.11191 0.27983 0.0
C1357 C 0.22966 0.09616 0.20444 0.0
C1358 C 0.2248 0.10482 0.16355 0.0
C1359 C 0.22063 0.12665 0.16596 0.0
C1360 C 0.22043 0.13817 0.20962 0.0
C1361 C 0.21997 0.11388 0.20164 0.0
C1362 C 0.21504 0.13481 0.28374 0.0
C1363 C 0.21313 0.12149 0.31859 0.0
H1364 H 0.86008 0.12821 0.26673 0.0
H1365 H 0.87003 0.09185 0.31109 0.0
H1366 H 0.89411 0.11021 0.37418 0.0
H1367 H 0.91362 0.1371 0.4008 0.0
H1368 H 0.90448 0.17373 0.34665 0.0
H1369 H 0.87874 0.15485 0.30187 0.0
C1370 C 0.86735 0.12434 0.29252 0.0
C1371 C 0.8635 0.1089 0.28546 0.0
C1372 C 0.8814 0.13504 0.32463 0.0
C1373 C 0.87298 0.10381 0.31689 0.0
C1374 C 0.88671 0.11427 0.35206 0.0
C1375 C 0.90587 0.14085 0.37995 0.0
C1376 C 0.91088 0.15665 0.37553 0.0
C1377 C 0.89128 0.12999 0.35365 0.0
C1378 C 0.9009 0.16157 0.34846 0.0
C1379 C 0.88619 0.15081 0.3237 0.0
H1380 H 0.93179 0.44936 0.10835 0.0
H1381 H 0.89742 0.44281 0.94402 0.0
H1382 H 0.89297 0.4617 1.01164 0.0
H1383 H 0.89905 0.48052 0.11799 0.0
H1384 H 0.93393 0.48694 0.27906 0.0
H1385 H 0.93789 0.46785 0.21212 0.0
C1386 C 0.92321 0.45188 0.08652 0.0
C1387 C 0.91491 0.44424 1.01982 0.0
C1388 C 0.92084 0.46295 0.12565 0.0
C1389 C 0.90399 0.44814 0.9944 0.0
C1390 C 0.90148 0.45908 0.03345 0.0
C1391 C 0.90756 0.47781 0.1389 0.0
C1392 C 0.91617 0.48549 0.20501 0.0
C1393 C 0.90986 0.46664 0.09922 0.0
C1394 C 0.92709 0.48152 0.22947 0.0
C1395 C 0.92935 0.47049 0.19079 0.0
H1396 H 0.55508 0.4273 0.12425 0.0
H1397 H 0.54001 0.45399 0.25095 0.0
H1398 H 0.55802 0.47719 0.18049 0.0
H1399 H 0.57817 0.4903 0.08315 0.0
H1400 H 0.59312 0.46399 0.95266 0.0
H1401 H 0.57526 0.4406 0.0239 0.0
C1402 C 0.55564 0.43816 0.13676 0.0
C1403 C 0.54586 0.43854 0.19436 0.0
C1404 C 0.56618 0.45172 0.09499 0.0
C1405 C 0.54708 0.45298 0.20805 0.0
C1406 C 0.55751 0.46638 0.16738 0.0
C1407 C 0.5777 0.47952 0.06977 0.0
C1408 C 0.58743 0.47933 1.01155 0.0
C1409 C 0.56717 0.46596 0.1108 0.0
C1410 C 0.58614 0.46489 0.99646 0.0
C1411 C 0.57579 0.45139 0.03755 0.0
H1412 H 0.55948 0.1367 0.0819 0.0
H1413 H 0.55751 0.10871 0.89392 0.0
H1414 H 0.57507 0.10227 0.95912 0.0
H1415 H 0.5908 0.10397 0.07096 0.0
H1416 H 0.59335 0.13236 0.25824 0.0
H1417 H 0.57601 0.13913 0.19242 0.0
C1418 C 0.56293 0.12927 0.05439 0.0
C1419 C 0.55684 0.12324 0.98168 0.0
C1420 C 0.57324 0.12558 0.09284 0.0
C1421 C 0.56169 0.11359 0.94889 0.0
C1422 C 0.57183 0.10987 0.98666 0.0
C1423 C 0.58764 0.11168 0.09792 0.0
C1424 C 0.59361 0.11753 0.1709 0.0
C1425 C 0.57762 0.11566 0.05895 0.0
C1426 C 0.58919 0.12758 0.203 0.0
C1427 C 0.57917 0.13147 0.16495 0.0
H1428 H 0.77375 0.58438 0.12626 0.0
H1429 H 0.78465 0.57064 0.33643 0.0
H1430 H 0.80634 0.57002 0.27523 0.0
H1431 H 0.82286 0.57401 0.16194 0.0
H1432 H 0.81162 0.58773 0.95253 0.0
H1433 H 0.7897 0.58774 1.01342 0.0
C1434 C 0.78074 0.58114 0.15944 0.0
C1435 C 0.77717 0.5775 0.2373 0.0
C1436 C 0.79336 0.58089 0.12346 0.0
C1437 C 0.7867 0.57339 0.27727 0.0
C1438 C 0.79927 0.57312 0.24186 0.0
C1439 C 0.81565 0.57699 0.12898 0.0
C1440 C 0.81927 0.5809 0.05126 0.0
C1441 C 0.80282 0.57694 0.16497 0.0
C1442 C 0.80946 0.58464 1.01133 0.0
C1443 C 0.79681 0.58466 0.04663 0.0
H1444 H 0.4331 0.20591 0.2199 0.0
H1445 H 0.47641 0.2291 0.33862 0.0
H1446 H 0.48281 0.25336 0.27311 0.0
H1447 H 0.47643 0.26799 0.17761 0.0
H1448 H 0.43277 0.24413 0.06179 0.0
H1449 H 0.42635 0.2204 0.13023 0.0
C1450 C 0.44401 0.21621 0.2323 0.0
C1451 C 0.45425 0.21529 0.28518 0.0
C1452 C 0.44759 0.23018 0.19412 0.0
C1453 C 0.46818 0.22911 0.2993 0.0
C1454 C 0.47186 0.24307 0.26119 0.0
C1455 C 0.46543 0.25765 0.16738 0.0
C1456 C 0.45511 0.2582 0.11335 0.0
C1457 C 0.46172 0.24377 0.20782 0.0
C1458 C 0.44099 0.24442 0.10222 0.0
C1459 C 0.43731 0.23072 0.1416 0.0
H1460 H 0.77019 0.22165 0.155 0.0
H1461 H 0.79631 0.20745 1.01807 0.0
H1462 H 0.81952 0.2243 0.09109 0.0
H1463 H 0.83272 0.24305 0.19365 0.0
H1464 H 0.80711 0.2575 0.33274 0.0
H1465 H 0.78368 0.24075 0.25939 0.0
C1466 C 0.78093 0.22215 0.14074 0.0
C1467 C 0.78114 0.21295 0.07965 0.0
C1468 C 0.79448 0.23205 0.18378 0.0
C1469 C 0.79543 0.21411 0.06365 0.0
C1470 C 0.80883 0.22385 0.10584 0.0
C1471 C 0.82208 0.2427 0.20867 0.0
C1472 C 0.82208 0.2519 0.27015 0.0
C1473 C 0.80855 0.2329 0.16603 0.0
C1474 C 0.80785 0.25087 0.28672 0.0
C1475 C 0.79434 0.24116 0.24436 0.0
H1476 H 0.45064 0.19626 0.76841 0.0
H1477 H 0.486 0.22139 0.60302 0.0
H1478 H 0.49179 0.24578 0.66049 0.0
H1479 H 0.48089 0.25917 0.73159 0.0
H1480 H 0.44502 0.2339 0.89307 0.0
H1481 H 0.44534 0.21014 0.86434 0.0
C1482 C 0.46003 0.20698 0.74656 0.0
C1483 C 0.46708 0.20717 0.67841 0.0
C1484 C 0.4629 0.22089 0.7783 0.0
C1485 C 0.47971 0.2211 0.65284 0.0
C1486 C 0.48305 0.23504 0.68562 0.0
C1487 C 0.47363 0.24851 0.76188 0.0
C1488 C 0.46267 0.24779 0.8122 0.0
C1489 C 0.47373 0.23502 0.74396 0.0
C1490 C 0.45333 0.23428 0.85311 0.0
C1491 C 0.45352 0.22082 0.83662 0.0
H1492 H 0.76178 0.23795 0.68593 0.0
H1493 H 0.78119 0.23844 0.90146 0.0
H1494 H 0.80534 0.26128 0.86622 0.0
H1495 H 0.8228 0.27266 0.75906 0.0
H1496 H 0.80363 0.26797 0.537 0.0
H1497 H 0.77796 0.256 0.58879 0.0
C1498 C 0.77105 0.24372 0.72635 0.0
C1499 C 0.7703 0.23609 0.79344 0.0
C1500 C 0.78534 0.25577 0.70263 0.0
C1501 C 0.78183 0.24382 0.84778 0.0
C1502 C 0.7958 0.25672 0.82698 0.0
C1503 C 0.81306 0.26928 0.72206 0.0
C1504 C 0.81512 0.27016 0.64388 0.0
C1505 C 0.79813 0.26145 0.75174 0.0
C1506 C 0.80247 0.26682 0.59724 0.0
C1507 C 0.78765 0.25992 0.62685 0.0
H1508 H 0.8427 0.62104 0.61806 0.0
H1509 H 0.82701 0.61864 0.84503 0.0
H1510 H 0.80328 0.61706 0.79957 0.0
H1511 H 0.78482 0.60919 0.69659 0.0
H1512 H 0.79991 0.60975 0.46948 0.0
H1513 H 0.82617 0.6192 0.51332 0.0
C1514 C 0.83438 0.62089 0.65734 0.0
C1515 C 0.83618 0.61945 0.73424 0.0
C1516 C 0.8205 0.61907 0.63067 0.0
C1517 C 0.8255 0.61938 0.78527 0.0
C1518 C 0.81194 0.61834 0.75933 0.0
C1519 C 0.79394 0.61182 0.65653 0.0
C1520 C 0.79038 0.60813 0.58066 0.0
C1521 C 0.80888 0.61698 0.68223 0.0
C1522 C 0.8023 0.61178 0.52887 0.0
C1523 C 0.81732 0.61735 0.55371 0.0
H1524 H 0.56721 0.14396 0.68241 0.0
H1525 H 0.54005 0.12433 0.48214 0.0
H1526 H 0.56353 0.13225 0.41037 0.0
H1527 H 0.58969 0.13635 0.41705 0.0
H1528 H 0.61525 0.15155 0.6235 0.0
H1529 H 0.59471 0.15451 0.68013 0.0
C1530 C 0.56629 0.14178 0.62273 0.0
C1531 C 0.55181 0.13261 0.58879 0.0
C1532 C 0.57969 0.14555 0.58317 0.0
C1533 C 0.55104 0.13057 0.51058 0.0
C1534 C 0.56447 0.13516 0.46942 0.0
C1535 C 0.59102 0.14104 0.47312 0.0
C1536 C 0.60354 0.14329 0.51743 0.0
C1537 C 0.57864 0.14136 0.50681 0.0
C1538 C 0.60542 0.14948 0.58962 0.0
C1539 C 0.59364 0.151 0.62191 0.0
H1540 H 0.88944 0.43725 0.72207 0.0
H1541 H 0.90201 0.42409 0.51535 0.0
H1542 H 0.89439 0.44001 0.44449 0.0
H1543 H 0.89312 0.46372 0.44887 0.0
H1544 H 0.88305 0.47846 0.65742 0.0
H1545 H 0.87988 0.45531 0.71978 0.0
C1546 C 0.88994 0.43732 0.66138 0.0
C1547 C 0.89721 0.43035 0.62426 0.0
C1548 C 0.88613 0.44696 0.6215 0.0
C1549 C 0.89726 0.43012 0.54541 0.0
C1550 C 0.89284 0.43917 0.50484 0.0
C1551 C 0.88947 0.4615 0.50699 0.0
C1552 C 0.88918 0.47309 0.54986 0.0
C1553 C 0.88865 0.4487 0.54316 0.0
C1554 C 0.88398 0.46989 0.62443 0.0
C1555 C 0.88228 0.45673 0.66011 0.0
H1556 H 0.55678 0.41404 0.62868 0.0
H1557 H 0.56956 0.43163 0.40383 0.0
H1558 H 0.59544 0.45025 0.44567 0.0
H1559 H 0.60848 0.46783 0.55046 0.0
H1560 H 0.5929 0.45285 0.77626 0.0
H1561 H 0.57484 0.42695 0.73187 0.0
C1562 C 0.56553 0.4215 0.58865 0.0
C1563 C 0.56114 0.42235 0.51491 0.0
C1564 C 0.57989 0.43305 0.61445 0.0
C1565 C 0.57256 0.43126 0.46184 0.0
C1566 C 0.58734 0.44207 0.48599 0.0
C1567 C 0.60159 0.45863 0.58988 0.0
C1568 C 0.60112 0.46232 0.66525 0.0
C1569 C 0.59035 0.44421 0.56311 0.0
C1570 C 0.59296 0.45035 0.71724 0.0
C1571 C 0.58248 0.43555 0.69171 0.0
H1572 H 0.58652 0.82391 0.40568 0.0
H1573 H 0.58915 0.80818 0.62791 0.0
H1574 H 0.58698 0.78467 0.57407 0.0
H1575 H 0.58509 0.76862 0.46478 0.0
H1576 H 0.58251 0.78369 0.2412 0.0
H1577 H 0.58361 0.80697 0.29449 0.0
C1578 C 0.58661 0.81537 0.44283 0.0
C1579 C 0.5881 0.81823 0.52217 0.0
C1580 C 0.58525 0.80154 0.41085 0.0
C1581 C 0.58806 0.80668 0.56764 0.0
C1582 C 0.5868 0.7931 0.53645 0.0
C1583 C 0.58462 0.77686 0.42684 0.0
C1584 C 0.58362 0.77397 0.34777 0.0
C1585 C 0.58546 0.79039 0.45824 0.0
C1586 C 0.58305 0.78512 0.30152 0.0
C1587 C 0.58383 0.79862 0.33245 0.0
H1588 H 0.21088 0.78369 0.41856 0.0
H1589 H 0.23508 0.77889 0.60736 0.0
H1590 H 0.25977 0.79635 0.54592 0.0
H1591 H 0.27493 0.81342 0.43857 0.0
H1592 H 0.25072 0.81828 0.25002 0.0
H1593 H 0.22604 0.80055 0.31066 0.0
C1594 C 0.22151 0.78639 0.44688 0.0
C1595 C 0.22071 0.77967 0.51898 0.0
C1596 C 0.23591 0.79657 0.41051 0.0
C1597 C 0.23493 0.78361 0.55285 0.0
C1598 C 0.2492 0.79369 0.51723 0.0
C1599 C 0.2643 0.81058 0.40986 0.0
C1600 C 0.26511 0.81744 0.33813 0.0
C1601 C 0.24991 0.80029 0.44594 0.0
C1602 C 0.25088 0.81341 0.30406 0.0
C1603 C 0.23661 0.80319 0.33931 0.0
H1604 H 0.27065 0.4718 0.43962 0.0
H1605 H 0.24397 0.43363 0.59005 0.0
H1606 H 0.2204 0.42805 0.52306 0.0
H1607 H 0.20699 0.43394 0.42342 0.0
H1608 H 0.23304 0.47169 0.27012 0.0
H1609 H 0.25696 0.47734 0.33595 0.0
C1610 C 0.2597 0.4622 0.45803 0.0
C1611 C 0.25942 0.45318 0.52127 0.0
C1612 C 0.24593 0.45896 0.41832 0.0
C1613 C 0.24489 0.44083 0.54262 0.0
C1614 C 0.23129 0.43763 0.50395 0.0
C1615 C 0.21783 0.44348 0.4036 0.0
C1616 C 0.21783 0.4524 0.34073 0.0
C1617 C 0.23161 0.44662 0.44194 0.0
C1618 C 0.23233 0.46455 0.31741 0.0
C1619 C 0.2461 0.4678 0.35559 0.0
H1620 H 0.48866 0.89183 0.4805 0.0
H1621 H 0.50675 0.93624 0.37213 0.0
H1622 H 0.48987 0.94165 0.44974 0.0
H1623 H 0.46979 0.93402 0.54711 0.0
H1624 H 0.45141 0.88992 0.65862 0.0
H1625 H 0.46853 0.88434 0.5821 0.0
C1626 C 0.489 0.90276 0.47349 0.0
C1627 C 0.49928 0.91359 0.41871 0.0
C1628 C 0.47911 0.90589 0.51952 0.0
C1629 C 0.49925 0.9276 0.41242 0.0
C1630 C 0.48948 0.93071 0.4573 0.0
C1631 C 0.46936 0.92308 0.55552 0.0
C1632 C 0.45891 0.9124 0.61005 0.0
C1633 C 0.47932 0.91997 0.51089 0.0
C1634 C 0.45906 0.89847 0.61843 0.0
C1635 C 0.46894 0.89527 0.57397 0.0
H1636 H 0.10301 0.53362 0.48842 0.0
H1637 H 0.13929 0.56186 0.64414 0.0
H1638 H 0.14427 0.58508 0.57297 0.0
H1639 H 0.13812 0.59765 0.46611 0.0
H1640 H 0.10134 0.56893 0.31353 0.0
H1641 H 0.09685 0.54593 0.3837 0.0
C1642 C 0.11212 0.5448 0.50746 0.0
C1643 C 0.12081 0.5456 0.57288 0.0
C1644 C 0.11481 0.55821 0.46627 0.0
C1645 C 0.13241 0.5605 0.59483 0.0
C1646 C 0.13522 0.57389 0.55375 0.0
C1647 C 0.12908 0.58638 0.44771 0.0
C1648 C 0.1201 0.58537 0.38299 0.0
C1649 C 0.12648 0.57296 0.48931 0.0
C1650 C 0.1085 0.57042 0.3619 0.0
C1651 C 0.10593 0.55715 0.40247 0.0
H1652 H 0.49098 0.57094 0.53233 0.0
H1653 H 0.46444 0.57849 0.69965 0.0
H1654 H 0.44051 0.5586 0.63887 0.0
H1655 H 0.42689 0.53912 0.5353 0.0
H1656 H 0.45429 0.53194 0.3713 0.0
H1657 H 0.47781 0.55146 0.43351 0.0
C1658 C 0.48003 0.56839 0.55639 0.0
C1659 C 0.47991 0.57666 0.62161 0.0
C1660 C 0.46627 0.55681 0.52108 0.0
C1661 C 0.46527 0.57265 0.65036 0.0
C1662 C 0.45148 0.56117 0.61509 0.0
C1663 C 0.43799 0.5417 0.51307 0.0
C1664 C 0.43845 0.53368 0.44739 0.0
C1665 C 0.45177 0.55316 0.55003 0.0
C1666 C 0.45319 0.53753 0.4209 0.0
C1667 C 0.46678 0.54885 0.45677 0.0
H1668 H 0.14985 0.56974 0.85193 0.0
H1669 H 0.14542 0.54721 0.06388 0.0
H1670 H 0.15313 0.57131 0.13009 0.0
H1671 H 0.1496 0.59368 0.1257 0.0
H1672 H 0.14969 0.61425 0.91323 0.0
H1673 H 0.156 0.59666 0.84889 0.0
C1674 C 0.15141 0.57036 0.91227 0.0
C1675 C 0.14621 0.55671 0.95375 0.0
C1676 C 0.15468 0.58393 0.94974 0.0
C1677 C 0.14873 0.55759 0.03153 0.0
C1678 C 0.15304 0.57134 0.06928 0.0
C1679 C 0.15182 0.59486 0.06586 0.0
C1680 C 0.14817 0.60439 0.02326 0.0
C1681 C 0.15426 0.58396 0.02914 0.0
C1682 C 0.15168 0.60633 0.94633 0.0
C1683 C 0.15519 0.59622 0.90957 0.0
H1684 H 0.43544 0.56642 0.07911 0.0
H1685 H 0.45562 0.5511 0.24708 0.0
H1686 H 0.48136 0.5718 0.21332 0.0
H1687 H 0.49732 0.58792 0.10931 0.0
H1688 H 0.47719 0.60342 0.94098 0.0
H1689 H 0.45223 0.58931 1.00249 0.0
C1690 C 0.44548 0.56821 0.11054 0.0
C1691 C 0.4439 0.55718 0.16331 0.0
C1692 C 0.46021 0.57982 0.08921 0.0
C1693 C 0.45674 0.55949 0.20535 0.0
C1694 C 0.47146 0.5712 0.18544 0.0
C1695 C 0.48766 0.58875 0.08777 0.0
C1696 C 0.48875 0.59566 1.01785 0.0
C1697 C 0.47331 0.58052 0.12316 0.0
C1698 C 0.47631 0.59718 0.99212 0.0
C1699 C 0.46205 0.58924 0.02755 0.0
H1700 H 0.47798 0.89429 0.1796 0.0
H1701 H 0.49166 0.88268 0.97234 0.0
H1702 H 0.4678 0.87809 0.91268 0.0
H1703 H 0.44931 0.88697 0.90952 0.0
H1704 H 0.43795 0.90244 0.11253 0.0
H1705 H 0.45435 0.89563 0.1848 0.0
C1706 C 0.47531 0.88996 0.1226 0.0
C1707 C 0.48665 0.88942 0.07901 0.0
C1708 C 0.46224 0.88861 0.08751 0.0
C1709 C 0.48313 0.88358 1.00575 0.0
C1710 C 0.46959 0.88112 0.97165 0.0
C1711 C 0.44987 0.88827 0.96993 0.0
C1712 C 0.4432 0.89602 1.0052 0.0
C1713 C 0.45993 0.88512 1.01007 0.0
C1714 C 0.44368 0.8972 0.0838 0.0
C1715 C 0.45301 0.89328 0.12509 0.0
H1716 H 0.22944 0.47322 0.03991 0.0
H1717 H 0.20148 0.45416 0.84159 0.0
H1718 H 0.22456 0.46094 0.76813 0.0
H1719 H 0.25052 0.46456 0.77212 0.0
H1720 H 0.27693 0.4795 0.97636 0.0
H1721 H 0.25681 0.4828 0.03568 0.0
C1722 C 0.22834 0.47103 0.98015 0.0
C1723 C 0.21372 0.4625 0.94689 0.0
C1724 C 0.24146 0.47416 0.93975 0.0
C1725 C 0.21261 0.4601 0.869 0.0
C1726 C 0.22579 0.46401 0.82704 0.0
C1727 C 0.25212 0.46922 0.8284 0.0
C1728 C 0.26479 0.47139 0.87114 0.0
C1729 C 0.24003 0.46986 0.86341 0.0
C1730 C 0.26698 0.47749 0.94369 0.0
C1731 C 0.25547 0.47924 0.97745 0.0
H1732 H 0.62196 0.78277 0.95993 0.0
H1733 H 0.5725 0.75559 0.94519 0.0
H1734 H 0.57178 0.77657 0.87758 0.0
H1735 H 0.58494 0.80369 0.84241 0.0
H1736 H 0.63427 0.83188 0.86706 0.0
H1737 H 0.63551 0.80945 0.91284 0.0
C1738 C 0.61115 0.78139 0.9394 0.0
C1739 C 0.5973 0.76791 0.95636 0.0
C1740 C 0.61084 0.79373 0.90479 0.0
C1741 C 0.58321 0.76603 0.93179 0.0
C1742 C 0.58283 0.77799 0.89403 0.0
C1743 C 0.59599 0.80484 0.85613 0.0
C1744 C 0.60947 0.81932 0.85228 0.0
C1745 C 0.59652 0.79208 0.88324 0.0
C1746 C 0.62373 0.82081 0.87127 0.0
C1747 C 0.62444 0.80802 0.89673 0.0
H1748 H 0.24055 0.78157 0.86009 0.0
H1749 H 0.21362 0.80401 0.845 0.0
H1750 H 0.23642 0.82902 0.87279 0.0
H1751 H 0.26254 0.84321 0.92006 0.0
H1752 H 0.2886 0.8203 0.95536 0.0
H1753 H 0.26786 0.79662 0.89805 0.0
C1754 C 0.2399 0.79206 0.86243 0.0
C1755 C 0.2257 0.79125 0.85266 0.0
C1756 C 0.25285 0.80613 0.88104 0.0
C1757 C 0.22457 0.80462 0.85468 0.0
C1758 C 0.23754 0.81881 0.86971 0.0
C1759 C 0.26388 0.83321 0.91236 0.0
C1760 C 0.27687 0.83327 0.94115 0.0
C1761 C 0.25158 0.81957 0.88537 0.0
C1762 C 0.27855 0.82027 0.93295 0.0
C1763 C 0.26669 0.8068 0.90123 0.0
H1764 H 0.24506 0.24763 0.41993 0.0
H1765 H 0.19541 0.22237 0.40468 0.0
H1766 H 0.19705 0.20684 0.30214 0.0
H1767 H 0.2125 0.19993 0.21636 0.0
H1768 H 0.26215 0.22543 0.23113 0.0
H1769 H 0.26049 0.2411 0.33274 0.0
C1770 C 0.23447 0.23877 0.39453 0.0
C1771 C 0.22 0.23643 0.42219 0.0
C1772 C 0.23553 0.22977 0.33453 0.0
C1773 C 0.20669 0.22471 0.38648 0.0
C1774 C 0.20766 0.21574 0.32721 0.0
C1775 C 0.22308 0.20893 0.24127 0.0
C1776 C 0.23757 0.21123 0.21413 0.0
C1777 C 0.22201 0.21807 0.30063 0.0
C1778 C 0.25088 0.22313 0.24896 0.0
C1779 C 0.24989 0.23217 0.30778 0.0
H1780 H 0.80369 0.02966 0.23219 0.0
H1781 H 0.85049 0.04097 0.18772 0.0
H1782 H 0.84724 0.02063 0.27654 0.0
H1783 H 0.83108 0.99931 0.36808 0.0
H1784 H 0.78432 0.98824 0.41171 0.0
H1785 H 0.78767 1.00856 0.32314 0.0
C1786 C 0.81333 0.02781 0.24128 0.0
C1787 C 0.82748 0.0373 0.20122 0.0
C1788 C 0.81133 0.01593 0.2933 0.0
C1789 C 0.83952 0.03425 0.216 0.0
C1790 C 0.8376 0.02247 0.26744 0.0
C1791 C 0.82151 1.00124 0.35878 0.0
C1792 C 0.80729 0.99181 0.39862 0.0
C1793 C 0.82356 1.01318 0.30669 0.0
C1794 C 0.79532 0.99494 0.38369 0.0
C1795 C 0.79729 1.0067 0.33236 0.0
H1796 H 1.00603 0.77627 0.23677 0.0
H1797 H 0.99914 0.81406 0.17494 0.0
H1798 H 1.01994 0.8311 0.26078 0.0
H1799 H 0.04004 0.83556 0.35616 0.0
H1800 H 0.04764 0.79815 0.41619 0.0
H1801 H 0.02694 0.78104 0.32941 0.0
C1802 C 1.00902 0.78826 0.24144 0.0
C1803 C 1.00056 0.79359 0.19771 0.0
C1804 C 0.0213 0.79821 0.29155 0.0
C1805 C 1.00507 0.80932 0.20622 0.0
C1806 C 1.01709 0.81916 0.25604 0.0
C1807 C 0.0373 0.82366 0.35071 0.0
C1808 C 0.04577 0.81841 0.39472 0.0
C1809 C 0.02529 0.81378 0.29947 0.0
C1810 C 0.04169 0.80283 0.38451 0.0
C1811 C 0.0297 0.79295 0.3344 0.0
H1812 H 0.81476 0.77536 0.82652 0.0
H1813 H 0.83428 0.81363 0.67076 0.0
H1814 H 0.81797 0.823 0.72171 0.0
H1815 H 0.79838 0.82041 0.81087 0.0
H1816 H 0.78015 0.7836 0.97339 0.0
H1817 H 0.7957 0.7733 0.91933 0.0
C1818 C 0.81561 0.78587 0.80467 0.0
C1819 C 0.82559 0.79375 0.74475 0.0
C1820 C 0.80628 0.79123 0.83455 0.0
C1821 C 0.82648 0.80727 0.7162 0.0
C1822 C 0.81718 0.81262 0.7452 0.0
C1823 C 0.79763 0.80995 0.83302 0.0
C1824 C 0.788 0.80243 0.89416 0.0
C1825 C 0.80696 0.80461 0.80375 0.0
C1826 C 0.78738 0.78925 0.92512 0.0
C1827 C 0.79632 0.78352 0.89477 0.0
H1828 H 0.22485 0.98484 0.7871 0.0
H1829 H 0.2165 1.00388 0.9866 0.0
H1830 H 0.22759 0.02913 0.92663 0.0
H1831 H 0.23999 0.04582 0.81856 0.0
H1832 H 0.24867 0.02717 0.619 0.0
H1833 H 0.23726 1.00164 0.67822 0.0
C1834 C 0.22552 0.99455 0.81728 0.0
C1835 C 0.21985 0.99253 0.8908 0.0
C1836 C 0.23206 1.00905 0.78283 0.0
C1837 C 0.22055 1.0051 0.92936 0.0
C1838 C 0.22703 0.01957 0.89548 0.0
C1839 C 0.23958 0.0362 0.78861 0.0
C1840 C 0.24524 0.03827 0.71519 0.0
C1841 C 0.23291 0.02168 0.82255 0.0
C1842 C 0.24431 0.02571 0.67577 0.0
C1843 C 0.23782 1.01118 0.7095 0.0
H1844 H 0.98717 0.20602 0.89615 0.0
H1845 H 1.00142 0.23595 0.70286 0.0
H1846 H 0.02343 0.25589 0.77232 0.0
H1847 H 0.04158 0.26164 0.87614 0.0
H1848 H 0.02799 0.2308 0.06599 0.0
H1849 H 1.00253 0.21476 1.01198 0.0
C1850 C 0.9949 0.2171 0.87035 0.0
C1851 C 0.99304 0.21945 0.79445 0.0
C1852 C 1.00771 0.22828 0.90993 0.0
C1853 C 1.00278 0.23391 0.76128 0.0
C1854 C 1.01541 0.24525 0.80079 0.0
C1855 C 0.03287 0.25164 0.90647 0.0
C1856 C 0.0369 0.24695 0.97286 0.0
C1857 C 1.01847 0.24212 0.87344 0.0
C1858 C 0.02537 0.23441 1.01362 0.0
C1859 C 1.01081 0.22513 0.98239 0.0
H1860 H 0.91973 0.57622 0.52846 0.0
H1861 H 0.89187 0.52649 0.53659 0.0
H1862 H 0.875 0.52863 0.6296 0.0
H1863 H 0.86747 0.54448 0.70795 0.0
H1864 H 0.89554 0.5942 0.7028 0.0
H1865 H 0.91272 0.59212 0.61102 0.0
C1866 C 0.91001 0.56575 0.55042 0.0
C1867 C 0.90732 0.55108 0.52348 0.0
C1868 C 0.90022 0.56709 0.60527 0.0
C1869 C 0.89452 0.5379 0.55455 0.0
C1870 C 0.88476 0.53916 0.60828 0.0
C1871 C 0.87737 0.55498 0.68733 0.0
C1872 C 0.8799 0.56961 0.71389 0.0
C1873 C 0.88738 0.55367 0.634 0.0
C1874 C 0.89301 0.58281 0.68509 0.0
C1875 C 0.90291 0.58159 0.63186 0.0
H1876 H 0.44604 0.32854 0.69579 0.0
H1877 H 0.48486 0.32522 0.77585 0.0
H1878 H 0.50186 0.34606 0.68988 0.0
H1879 H 0.50596 0.36503 0.58869 0.0
H1880 H 0.46753 0.3693 0.51152 0.0
H1881 H 0.45045 0.34864 0.59881 0.0
C1882 C 0.45824 0.33234 0.69501 0.0
C1883 C 0.46392 0.32488 0.74356 0.0
C1884 C 0.46816 0.34468 0.64515 0.0
C1885 C 0.4799 0.33041 0.74048 0.0
C1886 C 0.48971 0.34243 0.69067 0.0
C1887 C 0.49385 0.36157 0.59071 0.0
C1888 C 0.48825 0.36902 0.54177 0.0
C1889 C 0.48401 0.34963 0.64222 0.0
C1890 C 0.47242 0.36411 0.54734 0.0
C1891 C 0.46257 0.35214 0.59759 0.0
H1892 H 0.66341 0.14922 0.59816 0.0
H1893 H 0.67391 0.12146 0.45225 0.0
H1894 H 0.69655 0.1275 0.53003 0.0
H1895 H 0.71453 0.14201 0.63628 0.0
H1896 H 0.70307 0.16853 0.78593 0.0
H1897 H 0.67991 0.16159 0.7111 0.0
C1898 C 0.6705 0.14428 0.58338 0.0
C1899 C 0.66663 0.13479 0.51785 0.0
C1900 C 0.68356 0.1477 0.62959 0.0
C1901 C 0.6762 0.12861 0.5015 0.0
C1902 C 0.68932 0.1322 0.54623 0.0
C1903 C 0.70691 0.14618 0.65353 0.0
C1904 C 0.71093 0.15597 0.71813 0.0
C1905 C 0.69329 0.14192 0.60999 0.0
C1906 C 0.70058 0.161 0.73801 0.0
C1907 C 0.68726 0.15706 0.69442 0.0
H1908 H 0.45676 0.14832 0.10052 0.0
H1909 H 0.4813 0.15414 0.30818 0.0
H1910 H 0.49442 0.14162 0.25397 0.0
H1911 H 0.49849 0.12844 0.14828 0.0
H1912 H 0.47307 0.12157 0.94312 0.0
H1913 H 0.46034 0.13469 0.99639 0.0
C1914 C 0.46492 0.14679 0.134 0.0
C1915 C 0.46803 0.1522 0.208 0.0
C1916 C 0.47209 0.13919 0.10337 0.0
C1917 C 0.47885 0.15037 0.25045 0.0
C1918 C 0.48624 0.14302 0.21991 0.0
C1919 C 0.48998 0.12963 0.11597 0.0
C1920 C 0.48668 0.12412 0.04226 0.0
C1921 C 0.48281 0.13724 0.14673 0.0
C1922 C 0.47585 0.1259 0.99995 0.0
C1923 C 0.4686 0.13339 0.03025 0.0
H1924 H 0.91682 0.38008 0.16535 0.0
H1925 H 0.89976 0.35769 0.95234 0.0
H1926 H 0.88804 0.33228 1.01304 0.0
H1927 H 0.88332 0.31654 0.12725 0.0
H1928 H 0.899 0.33906 0.34087 0.0
H1929 H 0.91079 0.36447 0.28002 0.0
C1930 C 0.91048 0.36958 0.13273 0.0
C1931 C 0.90913 0.37057 0.05507 0.0
C1932 C 0.9037 0.35516 0.16804 0.0
C1933 C 0.90077 0.35705 1.01256 0.0
C1934 C 0.89419 0.34259 0.04706 0.0
C1935 C 0.8894 0.32708 0.15979 0.0
C1936 C 0.89055 0.32618 0.23762 0.0
C1937 C 0.89572 0.34152 0.12466 0.0
C1938 C 0.89812 0.33972 0.28056 0.0
C1939 C 0.90481 0.35414 0.24593 0.0
H1940 H 0.65183 0.55912 0.10102 0.0
H1941 H 0.67253 0.5567 0.89355 0.0
H1942 H 0.69729 0.56615 0.95621 0.0
H1943 H 0.71146 0.57047 0.07431 0.0
H1944 H 0.69101 0.57298 0.28182 0.0
H1945 H 0.66774 0.5685 0.21507 0.0
C1946 C 0.66189 0.56115 0.06925 0.0
C1947 C 0.66033 0.55674 0.99369 0.0
C1948 C 0.67601 0.56643 0.10587 0.0
C1949 C 0.67343 0.55951 0.9526 0.0
C1950 C 0.68756 0.56495 0.98824 0.0
C1951 C 0.702 0.5704 0.10407 0.0
C1952 C 0.70263 0.57177 0.18214 0.0
C1953 C 0.68874 0.56767 0.06554 0.0
C1954 C 0.69057 0.5719 0.22131 0.0
C1955 C 0.6773 0.56924 0.18332 0.0
H1956 H 0.59945 0.90322 0.92339 0.0
H1957 H 0.5611 0.85868 0.86253 0.0
H1958 H 0.54447 0.86275 0.94915 0.0
H1959 H 0.54054 0.87866 0.04467 0.0
H1960 H 0.57855 0.92351 0.10395 0.0
H1961 H 0.59525 0.9196 1.01647 0.0
C1962 C 0.58744 0.89432 0.92857 0.0
C1963 C 0.5818 0.88047 0.88502 0.0
C1964 C 0.57773 0.89683 0.97907 0.0
C1965 C 0.56605 0.86937 0.89396 0.0
C1966 C 0.55645 0.87174 0.94411 0.0
C1967 C 0.55249 0.88771 0.03889 0.0
C1968 C 0.55805 0.90149 0.08281 0.0
C1969 C 0.56212 0.88537 0.98741 0.0
C1970 C 0.57367 0.91285 0.07231 0.0
C1971 C 0.5833 0.91055 1.02183 0.0
H1972 H 0.15692 0.66351 1.01537 0.0
H1973 H 0.11293 0.65791 0.0787 0.0
H1974 H 0.11765 0.67944 0.99477 0.0
H1975 H 0.13457 0.70055 0.90382 0.0
H1976 H 0.17824 0.70547 0.83912 0.0
H1977 H 0.1733 0.68382 0.9219 0.0
C1978 C 0.14823 0.66687 1.01125 0.0
C1979 C 0.13444 0.6587 0.05526 0.0
C1980 C 0.15103 0.67938 0.96178 0.0
C1981 C 0.12356 0.66359 0.04687 0.0
C1982 C 0.12633 0.67607 0.99843 0.0
C1983 C 0.14308 0.69694 0.90721 0.0
C1984 C 0.15696 0.7051 0.86362 0.0
C1985 C 0.14007 0.68417 0.95559 0.0
C1986 C 0.16754 0.69979 0.87041 0.0
C1987 C 0.16468 0.68728 0.91845 0.0
H1988 H 0.34817 0.45439 0.8407 0.0
H1989 H 0.31626 0.46951 0.90156 0.0
H1990 H 0.33109 0.48112 1.01633 0.0
H1991 H 0.35361 0.48781 0.09998 0.0
H1992 H 0.38526 0.47224 0.04191 0.0
H1993 H 0.3702 0.46015 0.9278 0.0
C1994 C 0.34431 0.46014 0.87896 0.0
C1995 C 0.33079 0.4609 0.86026 0.0
C1996 C 0.35301 0.46686 0.94649 0.0
C1997 C 0.32636 0.46852 0.91246 0.0
C1998 C 0.33496 0.47527 0.97879 0.0
C1999 C 0.3573 0.48173 0.06291 0.0
C2000 C 0.3709 0.48116 0.08157 0.0
C2001 C 0.34839 0.47463 0.99654 0.0
C2002 C 0.37506 0.47302 0.03109 0.0
C2003 C 0.36636 0.46609 0.965 0.0
H2004 H 0.10748 0.46661 0.47681 0.0
H2005 H 0.12994 0.46969 0.68772 0.0
H2006 H 0.14413 0.45843 0.63089 0.0
H2007 H 0.15314 0.45188 0.51696 0.0
H2008 H 0.13182 0.45008 0.30464 0.0
H2009 H 0.11364 0.45601 0.36644 0.0
C2010 C 0.11517 0.46442 0.5106 0.0
C2011 C 0.11803 0.46933 0.58556 0.0
C2012 C 0.12346 0.45818 0.47722 0.0
C2013 C 0.12797 0.46643 0.62916 0.0
C2014 C 0.136 0.45992 0.59689 0.0
C2015 C 0.14424 0.45243 0.48488 0.0
C2016 C 0.14388 0.45083 0.40678 0.0
C2017 C 0.13432 0.45641 0.52029 0.0
C2018 C 0.13224 0.45128 0.36507 0.0
C2019 C 0.12199 0.45485 0.40024 0.0
H2020 H 0.5235 0.64303 0.44411 0.0
H2021 H 0.52837 0.65989 0.67022 0.0
H2022 H 0.53733 0.68599 0.62392 0.0
H2023 H 0.55023 0.70445 0.52091 0.0
H2024 H 0.54584 0.6877 0.29498 0.0
H2025 H 0.52976 0.66111 0.33824 0.0
C2026 C 0.52595 0.65238 0.48258 0.0
C2027 C 0.52566 0.6498 0.55985 0.0
C2028 C 0.53134 0.66736 0.45552 0.0
C2029 C 0.52862 0.66176 0.61024 0.0
C2030 C 0.53387 0.67669 0.58386 0.0
C2031 C 0.54509 0.69496 0.48127 0.0
C2032 C 0.54935 0.6978 0.40573 0.0
C2033 C 0.53624 0.67974 0.50689 0.0
C2034 C 0.54268 0.68563 0.35371 0.0
C2035 C 0.53367 0.67044 0.37851 0.0
H2036 H 0.32707 0.88248 0.53776 0.0
H2037 H 0.34645 0.90434 0.32516 0.0
H2038 H 0.37163 0.9199 0.38332 0.0
H2039 H 0.38879 0.92341 0.48844 0.0
H2040 H 0.36979 0.9009 0.69939 0.0
H2041 H 0.34363 0.88998 0.64947 0.0
C2042 C 0.3367 0.89095 0.50466 0.0
C2043 C 0.33506 0.89186 0.42687 0.0
C2044 C 0.35117 0.89974 0.53834 0.0
C2045 C 0.34759 0.90298 0.38464 0.0
C2046 C 0.36196 0.91198 0.41792 0.0
C2047 C 0.37883 0.91655 0.52383 0.0
C2048 C 0.38102 0.9127 0.59649 0.0
C2049 C 0.364 0.90987 0.49377 0.0
C2050 C 0.36824 0.90396 0.64307 0.0
C2051 C 0.35333 0.89756 0.6142 0.0
H2052 H 0.24086 0.26814 0.86607 0.0
H2053 H 0.25012 0.2614 0.63785 0.0
H2054 H 0.26737 0.25242 0.68067 0.0
H2055 H 0.27269 0.23937 0.7813 0.0
H2056 H 0.26164 0.24405 1.00988 0.0
H2057 H 0.25261 0.26143 0.96935 0.0
C2058 C 0.24719 0.26531 0.82601 0.0
C2059 C 0.24385 0.26471 0.74944 0.0
C2060 C 0.25646 0.2595 0.8513 0.0
C2061 C 0.25218 0.2613 0.69733 0.0
C2062 C 0.26201 0.2562 0.7218 0.0
C2063 C 0.26891 0.24466 0.82268 0.0
C2064 C 0.26697 0.2398 0.89763 0.0
C2065 C 0.26318 0.25407 0.7986 0.0
C2066 C 0.26245 0.24706 0.95104 0.0
C2067 C 0.25732 0.25701 0.92799 0.0
H2068 H 0.83966 0.02845 0.95462 0.0
H2069 H 0.85417 0.05157 0.74166 0.0
H2070 H 0.84852 0.02739 0.6813 0.0
H2071 H 0.83034 0.99994 0.68337 0.0
H2072 H 0.81055 0.97664 0.8926 0.0
H2073 H 0.82739 1.00035 0.96123 0.0
C2074 C 0.84237 0.02823 0.89588 0.0
C2075 C 0.84677 0.04136 0.85147 0.0
C2076 C 0.83744 1.01406 0.86088 0.0
C2077 C 0.85047 0.04133 0.77582 0.0
C2078 C 0.84702 0.02749 0.74147 0.0
C2079 C 0.83012 0.99981 0.74411 0.0
C2080 C 0.81868 0.98688 0.78286 0.0
C2081 C 0.83899 1.01366 0.78218 0.0
C2082 C 0.81878 0.98677 0.8616 0.0
C2083 C 0.82844 1.00029 0.90073 0.0
H2084 H 0.06124 0.80042 0.8359 0.0
H2085 H 0.04245 0.78213 0.61836 0.0
H2086 H 1.01631 0.77248 0.66565 0.0
H2087 H 1.00057 0.77696 0.75652 0.0
H2088 H 0.02048 0.79867 0.96805 0.0
H2089 H 0.04447 0.79945 0.93622 0.0
C2090 C 0.05135 0.79358 0.80014 0.0
C2091 C 0.05357 0.79252 0.72345 0.0
C2092 C 0.03667 0.78942 0.826 0.0
C2093 C 0.04081 0.78336 0.67746 0.0
C2094 C 0.02596 0.77816 0.70408 0.0
C2095 C 1.01017 0.78171 0.79555 0.0
C2096 C 1.00913 0.78827 0.86291 0.0
C2097 C 0.02399 0.78247 0.77604 0.0
C2098 C 0.02125 0.79382 0.91508 0.0
C2099 C 0.03491 0.79423 0.89708 0.0
H2100 H 0.83325 0.82048 0.45278 0.0
H2101 H 0.8444 0.79465 0.298 0.0
H2102 H 0.83571 0.80416 0.19313 0.0
H2103 H 0.82112 0.8169 0.14592 0.0
H2104 H 0.81176 0.84428 0.2995 0.0
H2105 H 0.82361 0.8375 0.40156 0.0
C2106 C 0.83456 0.81753 0.39586 0.0
C2107 C 0.84014 0.80709 0.3847 0.0
C2108 C 0.82953 0.82326 0.33436 0.0
C2109 C 0.84083 0.803 0.30962 0.0
C2110 C 0.83556 0.80831 0.24903 0.0
C2111 C 0.82238 0.82209 0.20068 0.0
C2112 C 0.81584 0.83169 0.21282 0.0
C2113 C 0.82944 0.81812 0.26049 0.0
C2114 C 0.81707 0.83744 0.28633 0.0
C2115 C 0.82369 0.8333 0.34569 0.0
H2116 H 0.21463 0.02061 0.45601 0.0
H2117 H 0.2285 0.05647 0.28999 0.0
H2118 H 0.21806 0.03705 0.19054 0.0
H2119 H 0.20823 1.00974 0.14758 0.0
H2120 H 0.19275 0.9737 0.31365 0.0
H2121 H 0.20013 0.99285 0.41374 0.0
C2122 C 0.21467 0.0242 0.39856 0.0
C2123 C 0.22204 0.04033 0.38227 0.0
C2124 C 0.20846 1.01271 0.34023 0.0
C2125 C 0.22251 0.04437 0.30592 0.0
C2126 C 0.2167 0.03315 0.24825 0.0
C2127 C 0.20573 1.00593 0.20544 0.0
C2128 C 0.19932 0.98988 0.22151 0.0
C2129 C 0.21002 0.01724 0.26408 0.0
C2130 C 0.19705 0.98566 0.29809 0.0
C2131 C 0.20154 0.99676 0.35604 0.0
H2132 H 0.98743 0.19151 0.31721 0.0
H2133 H 1.00964 0.19616 0.53008 0.0
H2134 H 0.03457 0.20645 0.46618 0.0
H2135 H 0.0508 0.21761 0.35109 0.0
H2136 H 0.02868 0.21126 0.1367 0.0
H2137 H 1.00332 0.19814 0.19872 0.0
C2138 C 0.99759 0.19409 0.34964 0.0
C2139 C 0.99622 0.19246 0.42952 0.0
C2140 C 1.01214 0.20004 0.31168 0.0
C2141 C 1.00989 0.1966 0.46935 0.0
C2142 C 0.02433 0.20278 0.43242 0.0
C2143 C 0.04044 0.21284 0.31716 0.0
C2144 C 0.042 0.21553 0.23798 0.0
C2145 C 0.02571 0.20499 0.35378 0.0
C2146 C 0.02818 0.20939 0.19665 0.0
C2147 C 1.01356 0.20194 0.23274 0.0
H2148 H 0.91043 0.53641 0.09587 0.0
H2149 H 0.93168 0.57991 0.21171 0.0
H2150 H 0.91373 0.58661 0.15197 0.0
H2151 H 0.88989 0.57815 0.0812 0.0
H2152 H 0.86703 0.53332 0.97616 0.0
H2153 H 0.88745 0.52856 1.01922 0.0
C2154 C 0.91138 0.54758 0.10513 0.0
C2155 C 0.9223 0.55789 0.15594 0.0
C2156 C 0.90043 0.55069 0.0752 0.0
C2157 C 0.92342 0.57211 0.17103 0.0
C2158 C 0.91305 0.57575 0.13808 0.0
C2159 C 0.88952 0.56742 0.06749 0.0
C2160 C 0.87707 0.55601 0.02671 0.0
C2161 C 0.90115 0.56482 0.09263 0.0
C2162 C 0.87643 0.54205 1.00916 0.0
C2163 C 0.88815 0.53945 0.03275 0.0
H2164 H 0.4994 0.39651 0.08821 0.0
H2165 H 0.45431 0.39038 0.1176 0.0
H2166 H 0.44282 0.36581 0.05109 0.0
H2167 H 0.4453 0.3425 0.03686 0.0
H2168 H 0.49054 0.34769 0.02485 0.0
H2169 H 0.50246 0.37576 0.0357 0.0
C2170 C 0.48715 0.39019 0.07595 0.0
C2171 C 0.47737 0.39391 0.11547 0.0
C2172 C 0.48069 0.37527 0.04651 0.0
C2173 C 0.4619 0.38689 0.09236 0.0
C2174 C 0.45526 0.37253 0.05684 0.0
C2175 C 0.45774 0.34989 0.03548 0.0
C2176 C 0.46714 0.34325 0.03405 0.0
C2177 C 0.46443 0.3659 0.0426 0.0
C2178 C 0.48321 0.35274 0.02849 0.0
C2179 C 0.48999 0.36873 0.03401 0.0
H2180 H 0.71829 0.12685 0.14941 0.0
H2181 H 0.70312 0.12192 0.91996 0.0
H2182 H 0.67632 0.10598 0.95962 0.0
H2183 H 0.65816 0.10211 0.06054 0.0
H2184 H 0.67416 0.11065 0.28959 0.0
H2185 H 0.69936 0.11567 0.25014 0.0
C2186 C 0.70917 0.12163 0.10798 0.0
C2187 C 0.7124 0.12611 0.03267 0.0
C2188 C 0.69383 0.11336 0.1317 0.0
C2189 C 0.70065 0.11905 0.97884 0.0
C2190 C 0.68536 0.11002 1.00152 0.0
C2191 C 0.66707 0.10459 0.10176 0.0
C2192 C 0.6646 0.10684 0.17688 0.0
C2193 C 0.68185 0.10846 0.07815 0.0
C2194 C 0.67585 0.10928 0.23085 0.0
C2195 C 0.69039 0.1123 0.20827 0.0
H2196 H 0.49264 0.15756 0.46842 0.0
H2197 H 0.47577 0.17734 0.63006 0.0
H2198 H 0.48723 0.16998 0.73184 0.0
H2199 H 0.49886 0.15424 0.77723 0.0
H2200 H 0.51755 0.13643 0.61439 0.0
H2201 H 0.50906 0.14683 0.51273 0.0
C2202 C 0.49208 0.16095 0.52552 0.0
C2203 C 0.4835 0.16846 0.54017 0.0
C2204 C 0.499 0.15679 0.58469 0.0
C2205 C 0.48255 0.17206 0.61568 0.0
C2206 C 0.489 0.16762 0.67456 0.0
C2207 C 0.50183 0.15332 0.71977 0.0
C2208 C 0.50942 0.14482 0.70486 0.0
C2209 C 0.49688 0.15954 0.66028 0.0
C2210 C 0.51233 0.14328 0.62888 0.0
C2211 C 0.50719 0.14906 0.57009 0.0
H2212 H 0.88073 0.3537 0.79823 0.0
H2213 H 0.90004 0.38982 0.63201 0.0
H2214 H 0.8895 0.37054 0.53189 0.0
H2215 H 0.8779 0.34294 0.49017 0.0
H2216 H 0.85718 0.30685 0.65593 0.0
H2217 H 0.86472 0.32617 0.75521 0.0
C2218 C 0.882 0.35744 0.74025 0.0
C2219 C 0.89092 0.37354 0.72399 0.0
C2220 C 0.87573 0.34606 0.68165 0.0
C2221 C 0.8929 0.37776 0.64745 0.0
C2222 C 0.887 0.36661 0.58957 0.0
C2223 C 0.87432 0.33924 0.54748 0.0
C2224 C 0.8664 0.32313 0.56398 0.0
C2225 C 0.87875 0.35065 0.60555 0.0
C2226 C 0.86271 0.31893 0.64003 0.0
C2227 C 0.86728 0.3301 0.69756 0.0
H2228 H 0.65092 0.51279 0.60726 0.0
H2229 H 0.67179 0.53565 0.81488 0.0
H2230 H 0.69716 0.54894 0.75358 0.0
H2231 H 0.71298 0.55701 0.63517 0.0
H2232 H 0.6922 0.53312 0.42945 0.0
H2233 H 0.66764 0.51729 0.49511 0.0
C2234 C 0.6611 0.52018 0.64022 0.0
C2235 C 0.65917 0.52284 0.71701 0.0
C2236 C 0.67584 0.52782 0.60405 0.0
C2237 C 0.67266 0.53291 0.75705 0.0
C2238 C 0.68726 0.54073 0.72126 0.0
C2239 C 0.70329 0.54784 0.60525 0.0
C2240 C 0.70487 0.54609 0.52684 0.0
C2241 C 0.68898 0.53866 0.64409 0.0
C2242 C 0.69178 0.5345 0.4895 0.0
C2243 C 0.67755 0.52556 0.52723 0.0
H2244 H 0.5817 0.89794 0.63586 0.0
H2245 H 0.53545 0.86124 0.58559 0.0
H2246 H 0.52788 0.88032 0.55758 0.0
H2247 H 0.53672 0.90633 0.51207 0.0
H2248 H 0.58389 0.94212 0.54512 0.0
H2249 H 0.58836 0.92477 0.62379 0.0
C2250 C 0.56981 0.89397 0.62141 0.0
C2251 C 0.55937 0.87815 0.60929 0.0
C2252 C 0.56566 0.90497 0.60374 0.0
C2253 C 0.54395 0.87336 0.59157 0.0
C2254 C 0.53955 0.88427 0.57654 0.0
C2255 C 0.54778 0.9106 0.53952 0.0
C2256 C 0.56033 0.92503 0.51867 0.0
C2257 C 0.55064 0.90005 0.57702 0.0
C2258 C 0.57426 0.93076 0.55811 0.0
C2259 C 0.5769 0.92071 0.60144 0.0
H2260 H 0.14382 0.70675 0.41907 0.0
H2261 H 0.14286 0.68734 0.63646 0.0
H2262 H 0.11971 0.66335 0.60232 0.0
H2263 H 0.10469 0.64633 0.50089 0.0
H2264 H 0.10739 0.66464 0.27922 0.0
H2265 H 0.12418 0.69089 0.32526 0.0
C2266 C 0.13835 0.69727 0.4588 0.0
C2267 C 0.14516 0.69843 0.52873 0.0
C2268 C 0.12529 0.68344 0.43818 0.0
C2269 C 0.13785 0.68648 0.58163 0.0
C2270 C 0.12462 0.67281 0.56229 0.0
C2271 C 0.10832 0.65613 0.4636 0.0
C2272 C 0.10561 0.65371 0.38655 0.0
C2273 C 0.11883 0.67089 0.48931 0.0
C2274 C 0.10992 0.66641 0.33865 0.0
C2275 C 0.11969 0.68133 0.36466 0.0
H2276 H 0.35582 0.44915 0.28768 0.0
H2277 H 0.37389 0.44289 0.49623 0.0
H2278 H 0.34809 0.4293 0.54882 0.0
H2279 H 0.32378 0.42939 0.55173 0.0
H2280 H 0.30855 0.44289 0.35578 0.0
H2281 H 0.32907 0.44301 0.28133 0.0
C2282 C 0.35409 0.44464 0.34433 0.0
C2283 C 0.3669 0.4481 0.38982 0.0
C2284 C 0.33946 0.43823 0.3767 0.0
C2285 C 0.36437 0.44105 0.46079 0.0
C2286 C 0.34955 0.43332 0.49125 0.0
C2287 C 0.32449 0.43136 0.4916 0.0
C2288 C 0.31513 0.43647 0.45898 0.0
C2289 C 0.3374 0.43331 0.45236 0.0
C2290 C 0.31585 0.43907 0.38149 0.0
C2291 C 0.32777 0.43944 0.33959 0.0
H2292 H 0.1719 0.47191 0.95018 0.0
H2293 H 0.16824 0.48985 0.16361 0.0
H2294 H 0.15781 0.50452 0.1007 0.0
H2295 H 0.14633 0.50947 0.98648 0.0
H2296 H 0.15102 0.49246 0.77228 0.0
H2297 H 0.16451 0.48055 0.83302 0.0
C2298 C 0.1694 0.4795 0.98289 0.0
C2299 C 0.17129 0.47988 0.06241 0.0
C2300 C 0.16333 0.48799 0.9457 0.0
C2301 C 0.16747 0.48954 0.10296 0.0
C2302 C 0.16124 0.4978 0.06667 0.0
C2303 C 0.15082 0.50366 0.95237 0.0
C2304 C 0.14775 0.50223 0.87367 0.0
C2305 C 0.15868 0.49679 0.98827 0.0
C2306 C 0.15342 0.49424 0.83179 0.0
C2307 C 0.161 0.48719 0.86714 0.0
H2308 H 0.54291 0.67744 0.14083 0.0
H2309 H 0.56621 0.7169 0.99447 0.0
H2310 H 0.55622 0.69983 0.88489 0.0
H2311 H 0.54326 0.67311 0.82957 0.0
H2312 H 0.51794 0.63387 0.97517 0.0
H2313 H 0.52598 0.65116 0.08417 0.0
C2314 C 0.54538 0.68243 0.08499 0.0
C2315 C 0.55525 0.69876 0.0773 0.0
C2316 C 0.53927 0.67239 1.02119 0.0
C2317 C 0.55844 0.70465 1.00353 0.0
C2318 C 0.55283 0.69476 0.94031 0.0
C2319 C 0.53899 0.66832 0.88482 0.0
C2320 C 0.52965 0.65193 0.89261 0.0
C2321 C 0.54352 0.67853 0.94813 0.0
C2322 C 0.5247 0.64623 0.96581 0.0
C2323 C 0.52953 0.65622 0.02882 0.0
H2324 H 0.32984 0.86253 0.97999 0.0
H2325 H 0.35346 0.87111 0.19148 0.0
H2326 H 0.3779 0.87972 0.1251 0.0
H2327 H 0.39337 0.88846 1.00626 0.0
H2328 H 0.36973 0.87916 0.7945 0.0
H2329 H 0.34486 0.86712 0.86047 0.0
C2330 C 0.3402 0.86559 1.01187 0.0
C2331 C 0.33939 0.86554 0.09194 0.0
C2332 C 0.35444 0.87068 0.97252 0.0
C2333 C 0.3533 0.87032 0.13086 0.0
C2334 C 0.36744 0.87554 0.09238 0.0
C2335 C 0.38276 0.88316 0.97407 0.0
C2336 C 0.38374 0.88442 0.89415 0.0
C2337 C 0.36829 0.87621 1.01314 0.0
C2338 C 0.36965 0.87797 0.85494 0.0
C2339 C 0.3553 0.87126 0.89323 0.0
H2340 H 0.33137 0.23941 0.08927 0.0
H2341 H 0.32126 0.20069 0.9456 0.0
H2342 H 0.34801 0.2135 0.90552 0.0
H2343 H 0.37449 0.23597 0.90771 0.0
H2344 H 0.38438 0.27522 0.04601 0.0
H2345 H 0.35761 0.2622 0.08848 0.0
C2346 C 0.33484 0.23372 0.04861 0.0
C2347 C 0.32391 0.21881 1.02184 0.0
C2348 C 0.35037 0.24141 0.02349 0.0
C2349 C 0.32914 0.21185 0.96971 0.0
C2350 C 0.34455 0.2193 0.94563 0.0
C2351 C 0.37085 0.24171 0.94731 0.0
C2352 C 0.38166 0.2567 0.97307 0.0
C2353 C 0.3553 0.2341 0.97188 0.0
C2354 C 0.37645 0.26386 0.02385 0.0
C2355 C 0.36108 0.25633 0.04886 0.0
H2356 H 0.79398 0.10637 0.9838 0.0
H2357 H 0.83537 0.13502 0.85659 0.0
H2358 H 0.82547 0.15207 0.82159 0.0
H2359 H 0.80466 0.15875 0.82547 0.0
H2360 H 0.7633 0.12938 0.95162 0.0
H2361 H 0.77346 0.11274 0.98699 0.0
C2362 C 0.80081 0.11619 0.94748 0.0
C2363 C 0.81544 0.11923 0.92286 0.0
C2364 C 0.79498 0.1259 0.92688 0.0
C2365 C 0.82415 0.13236 0.87731 0.0
C2366 C 0.81845 0.14212 0.85682 0.0
C2367 C 0.79791 0.14873 0.86075 0.0
C2368 C 0.78308 0.14527 0.88464 0.0
C2369 C 0.80385 0.13903 0.88122 0.0
C2370 C 0.77456 0.1322 0.93069 0.0
C2371 C 0.78041 0.12268 0.95152 0.0
H2372 H 0.91589 0.65815 0.88738 0.0
H2373 H 0.88993 0.64974 0.09226 0.0
H2374 H 0.90295 0.67735 0.11722 0.0
H2375 H 0.92061 0.70429 0.07797 0.0
H2376 H 0.94808 0.71316 0.87883 0.0
H2377 H 0.93581 0.68527 0.85514 0.0
C2378 C 0.91329 0.66231 0.93824 0.0
C2379 C 0.90159 0.65166 0.98685 0.0
C2380 C 0.92104 0.67844 0.95312 0.0
C2381 C 0.89852 0.6575 0.05251 0.0
C2382 C 0.90601 0.67338 0.06713 0.0
C2383 C 0.92395 0.7001 0.02958 0.0
C2384 C 0.93516 0.71085 0.97988 0.0
C2385 C 0.91704 0.68401 1.01712 0.0
C2386 C 0.9395 0.70518 0.918 0.0
C2387 C 0.93244 0.6892 0.90437 0.0
H2388 H 0.26666 0.37052 0.70988 0.0
H2389 H 0.23679 0.38274 0.59064 0.0
H2390 H 0.22061 0.35609 0.55116 0.0
H2391 H 0.21469 0.32889 0.54808 0.0
H2392 H 0.24513 0.31685 0.66226 0.0
H2393 H 0.26116 0.34352 0.70395 0.0
C2394 C 0.2567 0.36746 0.67484 0.0
C2395 C 0.253 0.37893 0.6551 0.0
C2396 C 0.24741 0.35193 0.65047 0.0
C2397 C 0.23988 0.37437 0.60948 0.0
C2398 C 0.23059 0.35902 0.58587 0.0
C2399 C 0.2248 0.33208 0.58222 0.0
C2400 C 0.22865 0.32071 0.60108 0.0
C2401 C 0.23417 0.34763 0.60606 0.0
C2402 C 0.24192 0.32526 0.64533 0.0
C2403 C 0.25111 0.34057 0.66978 0.0
H2404 H 0.71509 0.93511 0.64809 0.0
H2405 H 0.71409 0.90315 0.4831 0.0
H2406 H 0.686 0.88891 0.48615 0.0
H2407 H 0.66156 0.88472 0.53808 0.0
H2408 H 0.66202 0.91573 0.70721 0.0
H2409 H 0.69012 0.93123 0.6981 0.0
C2410 C 0.70872 0.92513 0.61225 0.0
C2411 C 0.71691 0.92021 0.56594 0.0
C2412 C 0.69232 0.91675 0.6147 0.0
C2413 C 0.7083 0.90714 0.5203 0.0
C2414 C 0.69214 0.89898 0.52172 0.0
C2415 C 0.66771 0.8948 0.57356 0.0
C2416 C 0.65937 0.89881 0.62383 0.0
C2417 C 0.684 0.90352 0.5694 0.0
C2418 C 0.66784 0.91227 0.66734 0.0
C2419 C 0.68405 0.92112 0.66269 0.0
H2420 H 0.10929 0.79315 0.60704 0.0
H2421 H 0.1475 0.82844 0.48067 0.0
H2422 H 0.16244 0.81572 0.50603 0.0
H2423 H 0.1647 0.7944 0.56343 0.0
H2424 H 0.12668 0.75972 0.69393 0.0
H2425 H 0.11169 0.77213 0.66594 0.0
C2426 C 0.12083 0.798 0.58422 0.0
C2427 C 0.12714 0.81178 0.54142 0.0
C2428 C 0.12945 0.79065 0.59951 0.0
C2429 C 0.14228 0.81797 0.51404 0.0
C2430 C 0.15085 0.81063 0.52837 0.0
C2431 C 0.1532 0.78957 0.5866 0.0
C2432 C 0.14695 0.77592 0.63064 0.0
C2433 C 0.14459 0.79697 0.57126 0.0
C2434 C 0.13186 0.76992 0.65867 0.0
C2435 C 0.12324 0.77713 0.64316 0.0
H2436 H 0.65756 0.79135 0.14049 0.0
H2437 H 0.66346 0.76653 0.32361 0.0
H2438 H 0.69132 0.78049 0.30262 0.0
H2439 H 0.71397 0.79934 0.23119 0.0
H2440 H 0.70811 0.82345 0.04436 0.0
H2441 H 0.68043 0.81056 0.06954 0.0
C2442 C 0.66495 0.78914 0.17652 0.0
C2443 C 0.65833 0.77787 0.23381 0.0
C2444 C 0.68102 0.79713 0.16361 0.0
C2445 C 0.66815 0.77501 0.27886 0.0
C2446 C 0.68412 0.78303 0.26698 0.0
C2447 C 0.70668 0.80171 0.19523 0.0
C2448 C 0.7133 0.81236 0.13534 0.0
C2449 C 0.69067 0.79401 0.20908 0.0
C2450 C 0.70353 0.81549 0.09119 0.0
C2451 C 0.68762 0.808 0.10524 0.0
H2452 H 0.23466 0.87053 0.22598 0.0
H2453 H 0.27581 0.90606 0.11736 0.0
H2454 H 0.26233 0.91953 0.08061 0.0
H2455 H 0.23921 0.92178 0.08088 0.0
H2456 H 0.1979 0.88693 0.19052 0.0
H2457 H 0.21087 0.87247 0.22263 0.0
C2458 C 0.24064 0.88118 0.19397 0.0
C2459 C 0.25639 0.88737 0.17595 0.0
C2460 C 0.23274 0.88897 0.17242 0.0
C2461 C 0.26388 0.90118 0.13412 0.0
C2462 C 0.25612 0.90887 0.11231 0.0
C2463 C 0.23301 0.91105 0.11212 0.0
C2464 C 0.21759 0.90559 0.13367 0.0
C2465 C 0.24062 0.90297 0.13173 0.0
C2466 C 0.20971 0.89142 0.17251 0.0
C2467 C 0.21718 0.8832 0.19156 0.0
H2468 H 0.11949 0.32617 0.06749 0.0
H2469 H 0.14445 0.31708 0.23801 0.0
H2470 H 0.15953 0.34474 0.2665 0.0
H2471 H 0.16432 0.37156 0.24908 0.0
H2472 H 0.1382 0.37973 0.08117 0.0
H2473 H 0.1248 0.35251 0.04687 0.0
C2474 C 0.12819 0.33018 0.11114 0.0
C2475 C 0.13065 0.31941 0.15093 0.0
C2476 C 0.13655 0.34603 0.12848 0.0
C2477 C 0.14231 0.32501 0.20592 0.0
C2478 C 0.15087 0.34086 0.22277 0.0
C2479 C 0.15577 0.36736 0.20469 0.0
C2480 C 0.1521 0.37769 0.16873 0.0
C2481 C 0.14791 0.35149 0.18534 0.0
C2482 C 0.14103 0.37203 0.11103 0.0
C2483 C 0.1334 0.35645 0.09098 0.0
H2484 H 0.79775 0.65835 0.34853 0.0
H2485 H 0.76294 0.64463 0.52034 0.0
H2486 H 0.77647 0.67055 0.57297 0.0
H2487 H 0.7983 0.69729 0.57163 0.0
H2488 H 0.83323 0.71106 0.4005 0.0
H2489 H 0.81987 0.68503 0.34857 0.0
C2490 C 0.79314 0.66098 0.39766 0.0
C2491 C 0.77911 0.64945 0.42914 0.0
C2492 C 0.80114 0.67599 0.42881 0.0
C2493 C 0.77341 0.65325 0.493 0.0
C2494 C 0.78125 0.66809 0.52394 0.0
C2495 C 0.803 0.69464 0.52289 0.0
C2496 C 0.8169 0.70624 0.49085 0.0
C2497 C 0.79512 0.67959 0.49229 0.0
C2498 C 0.82278 0.7024 0.42786 0.0
C2499 C 0.81504 0.68749 0.39739 0.0
H2500 H 0.32892 0.11248 0.56858 0.0
H2501 H 0.32056 0.14202 0.42331 0.0
H2502 H 0.34811 0.15721 0.3942 0.0
H2503 H 0.37451 0.16103 0.40331 0.0
H2504 H 0.38228 0.13099 0.54829 0.0
H2505 H 0.35513 0.11701 0.58269 0.0
C2506 C 0.33309 0.12224 0.53047 0.0
C2507 C 0.32258 0.12598 0.49793 0.0
C2508 C 0.3489 0.13077 0.51299 0.0
C2509 C 0.32833 0.1389 0.44986 0.0
C2510 C 0.34411 0.14754 0.43261 0.0
C2511 C 0.37028 0.15152 0.44294 0.0
C2512 C 0.38047 0.14693 0.47187 0.0
C2513 C 0.3545 0.14344 0.46291 0.0
C2514 C 0.37471 0.13457 0.52337 0.0
C2515 C 0.35916 0.1266 0.54364 0.0
H2516 H 0.90046 0.24857 0.41764 0.0
H2517 H 0.86318 0.2227 0.57254 0.0
H2518 H 0.87557 0.20818 0.61439 0.0
H2519 H 0.89809 0.20401 0.61237 0.0
H2520 H 0.93461 0.22972 0.45238 0.0
H2521 H 0.92161 0.24315 0.40881 0.0
C2522 C 0.89498 0.2397 0.46037 0.0
C2523 C 0.88093 0.23685 0.49213 0.0
C2524 C 0.90221 0.23148 0.4844 0.0
C2525 C 0.87392 0.22511 0.54663 0.0
C2526 C 0.88109 0.21688 0.57106 0.0
C2527 C 0.90316 0.21247 0.56765 0.0
C2528 C 0.91768 0.21609 0.53786 0.0
C2529 C 0.8954 0.22012 0.5412 0.0
C2530 C 0.92385 0.22703 0.47914 0.0
C2531 C 0.91631 0.23466 0.45322 0.0
H2532 H 0.03698 0.56023 0.2115 0.0
H2533 H 0.05113 0.60433 0.31492 0.0
H2534 H 0.02576 0.59394 0.37199 0.0
H2535 H 0.99939 0.57237 0.39392 0.0
H2536 H 0.98478 0.52844 0.28691 0.0
H2537 H 1.01035 0.53856 0.23312 0.0
C2538 C 0.03456 0.56758 0.24665 0.0
C2539 C 0.04611 0.5832 0.25747 0.0
C2540 C 1.01976 0.56148 0.28 0.0
C2541 C 0.04253 0.59242 0.30347 0.0
C2542 C 0.02798 0.58642 0.337 0.0
C2543 C 1.00165 0.56495 0.35851 0.0
C2544 C 0.98984 0.54948 0.34586 0.0
C2545 C 1.01645 0.57098 0.32557 0.0
C2546 C 0.99345 0.54022 0.30013 0.0
C2547 C 1.00816 0.54608 0.26818 0.0
H2548 H 0.46337 0.48623 0.34041 0.0
H2549 H 0.43696 0.4534 0.16666 0.0
H2550 H 0.44902 0.43826 0.19786 0.0
H2551 H 0.46684 0.43381 0.27552 0.0
H2552 H 0.49493 0.46754 0.44153 0.0
H2553 H 0.4827 0.48285 0.41151 0.0
C2554 C 0.46039 0.47594 0.30818 0.0
C2555 C 0.44892 0.47101 0.25169 0.0
C2556 C 0.46769 0.46731 0.32532 0.0
C2557 C 0.44531 0.45744 0.21178 0.0
C2558 C 0.45232 0.44874 0.22924 0.0
C2559 C 0.47024 0.4445 0.30529 0.0
C2560 C 0.48167 0.44941 0.36145 0.0
C2561 C 0.46339 0.45344 0.28643 0.0
C2562 C 0.48615 0.46345 0.39834 0.0
C2563 C 0.47913 0.47221 0.38112 0.0
H2564 H 0.60573 0.04691 0.25866 0.0
H2565 H 0.56981 0.04274 0.4059 0.0
H2566 H 0.55508 1.01478 0.3838 0.0
H2567 H 0.55261 0.99132 0.32446 0.0
H2568 H 0.58767 0.99608 0.16821 0.0
H2569 H 0.60242 0.02368 0.19284 0.0
C2570 C 0.5947 0.03986 0.28614 0.0
C2571 C 0.58898 0.04697 0.3345 0.0
C2572 C 0.5861 0.02377 0.27175 0.0
C2573 C 0.57452 0.03764 0.3685 0.0
C2574 C 0.56609 0.02161 0.35587 0.0
C2575 C 0.56334 0.99832 0.2946 0.0
C2576 C 0.56893 0.99118 0.24511 0.0
C2577 C 0.57174 1.0145 0.30753 0.0
C2578 C 0.58306 1.00081 0.20826 0.0
C2579 C 0.59155 0.01678 0.22182 0.0
H2580 H 0.4592 0.99242 0.69782 0.0
H2581 H 0.48456 0.98391 0.86862 0.0
H2582 H 0.49921 1.01153 0.89719 0.0
H2583 H 0.50344 0.03807 0.88035 0.0
H2584 H 0.47679 0.04577 0.7137 0.0
H2585 H 0.46389 0.01859 0.67824 0.0
C2586 C 0.46789 0.99655 0.74154 0.0
C2587 C 0.47061 0.98596 0.78123 0.0
C2588 C 0.47596 1.01238 0.75926 0.0
C2589 C 0.48224 0.99171 0.83639 0.0
C2590 C 0.49055 1.00754 0.85338 0.0
C2591 C 0.49489 0.03378 0.83595 0.0
C2592 C 0.49094 0.04392 0.80053 0.0
C2593 C 0.48732 0.01797 0.81616 0.0
C2594 C 0.47984 0.03818 0.74295 0.0
C2595 C 0.4725 0.02264 0.7223 0.0
H2596 H 0.9919 0.45372 0.72763 0.0
H2597 H 0.99137 0.47742 0.92826 0.0
H2598 H 1.01934 0.49472 0.91864 0.0
H2599 H 0.04442 0.50151 0.85909 0.0
H2600 H 0.04452 0.47703 0.66089 0.0
H2601 H 1.01635 0.4617 0.6633 0.0
C2602 C 0.99789 0.46269 0.76924 0.0
C2603 C 0.98956 0.46412 0.82919 0.0
C2604 C 1.01395 0.47248 0.76366 0.0
C2605 C 0.99748 0.47605 0.88155 0.0
C2606 C 1.0135 0.48591 0.87626 0.0
C2607 C 0.03817 0.49306 0.81563 0.0
C2608 C 0.04643 0.49045 0.7594 0.0
C2609 C 0.02192 0.48405 0.81834 0.0
C2610 C 0.03833 0.4793 0.70409 0.0
C2611 C 0.02225 0.47048 0.70579 0.0
H2612 H 0.57711 0.54377 0.68673 0.0
H2613 H 0.55419 0.52067 0.89186 0.0
H2614 H 0.53868 0.53324 0.8871 0.0
H2615 H 0.53332 0.5528 0.83078 0.0
H2616 H 0.55805 0.57728 0.63191 0.0
H2617 H 0.57135 0.56246 0.62905 0.0
C2618 C 0.56881 0.5415 0.7309 0.0
C2619 C 0.56707 0.53137 0.7902 0.0
C2620 C 0.56032 0.5492 0.72928 0.0
C2621 C 0.55581 0.52829 0.84522 0.0
C2622 C 0.547 0.53561 0.84294 0.0
C2623 C 0.54147 0.5547 0.78632 0.0
C2624 C 0.54472 0.56614 0.7316 0.0
C2625 C 0.54939 0.54636 0.78611 0.0
C2626 C 0.55543 0.56861 0.67481 0.0
C2627 C 0.56302 0.56013 0.67316 0.0
loop_
_geom_bond_atom_site_label_1
_geom_bond_atom_site_label_2
_geom_bond_distance
_geom_bond_site_symmetry_2
_ccdc_geom_bond_type
C0 C1 1.351 . S
C0 N3 1.368 . S
C0 H5 0.931 . S
C1 C0 1.351 . S
C1 N2 1.373 . S
C1 H29 0.930 . S
N2 C1 1.373 . S
N2 C4 1.340 . S
N3 C0 1.368 . S
N3 C4 1.321 . S
N3 Co6 2.135 . S
C4 N2 1.340 . S
C4 N3 1.321 . S
C4 H28 0.930 . S
H5 C0 0.931 . S
Co6 N3 2.135 . S
Co6 N9 2.121 1_554 S
Co6 O14 2.055 . S
Co6 O17 2.039 1_554 S
Co6 N20 2.140 . S
C7 O8 1.227 . S
C7 O17 1.265 . S
O8 C7 1.227 . S
N9 Co6 2.121 1_556 S
N9 C11 1.375 . S
N9 C12 1.313 . S
C10 C11 1.338 . S
C10 N13 1.377 . S
C10 H30 0.930 . S
C11 N9 1.375 . S
C11 C10 1.338 . S
C11 H15 0.931 . S
C12 N9 1.313 . S
C12 N13 1.344 . S
C12 H16 0.930 . S
N13 C10 1.377 . S
N13 C12 1.344 . S
O14 Co6 2.055 . S
O14 C18 1.253 . S
H15 C11 0.931 . S
H16 C12 0.930 . S
O17 Co6 2.039 1_556 S
O17 C7 1.265 . S
C18 O14 1.253 . S
C18 O19 1.227 . S
O19 C18 1.227 . S
N20 Co6 2.140 . S
N20 C23 1.346 . S
N20 C24 1.345 1_554 S
C21 C22 1.387 1_556 S
C21 C25 1.391 . S
C22 C21 1.387 1_554 S
C22 C23 1.369 . S
C22 H31 0.929 . S
C23 N20 1.346 . S
C23 C22 1.369 . S
C23 H26 0.928 . S
C24 N20 1.345 1_556 S
C24 C25 1.371 . S
C24 H27 0.931 . S
C25 C21 1.391 . S
C25 C24 1.371 . S
C25 H32 0.930 . S
H26 C23 0.928 . S
H27 C24 0.931 . S
H28 C4 0.930 . S
H29 C1 0.930 . S
H30 C10 0.930 . S
H31 C22 0.929 . S
H32 C25 0.930 . S
C33 C34 1.351 . S
C33 N36 1.368 . S
C33 H38 0.931 . S
C34 C33 1.351 . S
C34 N35 1.373 . S
C34 H62 0.930 . S
N35 C34 1.373 . S
N35 C37 1.340 . S
N36 C33 1.368 . S
N36 C37 1.321 . S
N36 Co39 2.135 . S
C37 N35 1.340 . S
C37 N36 1.321 . S
C37 H61 0.930 . S
H38 C33 0.931 . S
Co39 N36 2.135 . S
Co39 N42 2.121 1_554 S
Co39 O47 2.055 . S
Co39 O50 2.039 1_554 S
Co39 N53 2.140 . S
C40 O41 1.227 . S
C40 O50 1.265 . S
O41 C40 1.227 . S
N42 Co39 2.121 1_556 S
N42 C44 1.375 . S
N42 C45 1.313 . S
C43 C44 1.338 . S
C43 N46 1.377 . S
C43 H63 0.930 . S
C44 N42 1.375 . S
C44 C43 1.338 . S
C44 H48 0.931 . S
C45 N42 1.313 . S
C45 N46 1.344 . S
C45 H49 0.930 . S
N46 C43 1.377 . S
N46 C45 1.344 . S
O47 Co39 2.055 . S
O47 C51 1.253 . S
H48 C44 0.931 . S
H49 C45 0.930 . S
O50 Co39 2.039 1_556 S
O50 C40 1.265 . S
C51 O47 1.253 . S
C51 O52 1.227 . S
O52 C51 1.227 . S
N53 Co39 2.140 . S
N53 C56 1.346 . S
N53 C57 1.345 1_554 S
C54 C55 1.387 1_556 S
C54 C58 1.391 . S
C55 C54 1.387 1_554 S
C55 C56 1.369 . S
C55 H64 0.929 . S
C56 N53 1.346 . S
C56 C55 1.369 . S
C56 H59 0.928 . S
C57 N53 1.345 1_556 S
C57 C58 1.371 . S
C57 H60 0.931 . S
C58 C54 1.391 . S
C58 C57 1.371 . S
C58 H65 0.930 . S
H59 C56 0.928 . S
H60 C57 0.931 . S
H61 C37 0.930 . S
H62 C34 0.930 . S
H63 C43 0.930 . S
H64 C55 0.929 . S
H65 C58 0.930 . S
C66 C67 1.351 . S
C66 N69 1.368 . S
C66 H71 0.931 . S
C67 C66 1.351 . S
C67 N68 1.373 . S
C67 H95 0.930 . S
N68 C67 1.373 . S
N68 C70 1.340 . S
N69 C66 1.368 . S
N69 C70 1.321 . S
N69 Co72 2.135 . S
C70 N68 1.340 . S
C70 N69 1.321 . S
C70 H94 0.930 . S
H71 C66 0.931 . S
Co72 N69 2.135 . S
Co72 N75 2.121 1_554 S
Co72 O80 2.055 . S
Co72 O83 2.039 1_554 S
Co72 N86 2.140 . S
C73 O74 1.227 . S
C73 O83 1.265 . S
O74 C73 1.227 . S
N75 Co72 2.121 1_556 S
N75 C77 1.375 . S
N75 C78 1.313 . S
C76 C77 1.338 . S
C76 N79 1.377 . S
C76 H96 0.930 . S
C77 N75 1.375 . S
C77 C76 1.338 . S
C77 H81 0.931 . S
C78 N75 1.313 . S
C78 N79 1.344 . S
C78 H82 0.930 . S
N79 C76 1.377 . S
N79 C78 1.344 . S
O80 Co72 2.055 . S
O80 C84 1.253 . S
H81 C77 0.931 . S
H82 C78 0.930 . S
O83 Co72 2.039 1_556 S
O83 C73 1.265 . S
C84 O80 1.253 . S
C84 O85 1.227 . S
O85 C84 1.227 . S
N86 Co72 2.140 . S
N86 C89 1.346 . S
N86 C90 1.345 1_554 S
C87 C88 1.387 1_556 S
C87 C91 1.391 . S
C88 C87 1.387 1_554 S
C88 C89 1.369 . S
C88 H97 0.929 . S
C89 N86 1.346 . S
C89 C88 1.369 . S
C89 H92 0.928 . S
C90 N86 1.345 1_556 S
C90 C91 1.371 . S
C90 H93 0.931 . S
C91 C87 1.391 . S
C91 C90 1.371 . S
C91 H98 0.930 . S
H92 C89 0.928 . S
H93 C90 0.931 . S
H94 C70 0.930 . S
H95 C67 0.930 . S
H96 C76 0.930 . S
H97 C88 0.929 . S
H98 C91 0.930 . S
C99 C100 1.351 . S
C99 N102 1.368 . S
C99 H104 0.931 . S
C100 C99 1.351 . S
C100 N101 1.373 . S
C100 H128 0.930 . S
N101 C100 1.373 . S
N101 C103 1.340 . S
N102 C99 1.368 . S
N102 C103 1.321 . S
N102 Co105 2.135 . S
C103 N101 1.340 . S
C103 N102 1.321 . S
C103 H127 0.930 . S
H104 C99 0.931 . S
Co105 N102 2.135 . S
Co105 N108 2.121 . S
Co105 O113 2.055 . S
Co105 O116 2.039 . S
Co105 N119 2.140 . S
C106 O107 1.227 . S
C106 O116 1.265 . S
O107 C106 1.227 . S
N108 Co105 2.121 . S
N108 C110 1.375 . S
N108 C111 1.313 . S
C109 C110 1.338 . S
C109 N112 1.377 . S
C109 H129 0.930 . S
C110 N108 1.375 . S
C110 C109 1.338 . S
C110 H114 0.931 . S
C111 N108 1.313 . S
C111 N112 1.344 . S
C111 H115 0.930 . S
N112 C109 1.377 . S
N112 C111 1.344 . S
O113 Co105 2.055 . S
O113 C117 1.253 . S
H114 C110 0.931 . S
H115 C111 0.930 . S
O116 Co105 2.039 . S
O116 C106 1.265 . S
C117 O113 1.253 . S
C117 O118 1.227 . S
O118 C117 1.227 . S
N119 Co105 2.140 . S
N119 C122 1.346 . S
N119 C123 1.345 . S
C120 C121 1.387 . S
C120 C124 1.391 . S
C121 C120 1.387 . S
C121 C122 1.369 . S
C121 H130 0.929 . S
C122 N119 1.346 . S
C122 C121 1.369 . S
C122 H125 0.928 . S
C123 N119 1.345 . S
C123 C124 1.371 . S
C123 H126 0.931 . S
C124 C120 1.391 . S
C124 C123 1.371 . S
C124 H131 0.930 . S
H125 C122 0.928 . S
H126 C123 0.931 . S
H127 C103 0.930 . S
H128 C100 0.930 . S
H129 C109 0.930 . S
H130 C121 0.929 . S
H131 C124 0.930 . S
C132 C133 1.351 . S
C132 N135 1.368 . S
C132 H137 0.931 . S
C133 C132 1.351 . S
C133 N134 1.373 . S
C133 H161 0.930 . S
N134 C133 1.373 . S
N134 C136 1.340 . S
N135 C132 1.368 . S
N135 C136 1.321 . S
N135 Co138 2.135 . S
C136 N134 1.340 . S
C136 N135 1.321 . S
C136 H160 0.930 . S
H137 C132 0.931 . S
Co138 N135 2.135 . S
Co138 N141 2.121 . S
Co138 O146 2.055 . S
Co138 O149 2.039 . S
Co138 N152 2.140 . S
C139 O140 1.227 . S
C139 O149 1.265 . S
O140 C139 1.227 . S
N141 Co138 2.121 . S
N141 C143 1.375 . S
N141 C144 1.313 . S
C142 C143 1.338 . S
C142 N145 1.377 . S
C142 H162 0.930 . S
C143 N141 1.375 . S
C143 C142 1.338 . S
C143 H147 0.931 . S
C144 N141 1.313 . S
C144 N145 1.344 . S
C144 H148 0.930 . S
N145 C142 1.377 . S
N145 C144 1.344 . S
O146 Co138 2.055 . S
O146 C150 1.253 . S
H147 C143 0.931 . S
H148 C144 0.930 . S
O149 Co138 2.039 . S
O149 C139 1.265 . S
C150 O146 1.253 . S
C150 O151 1.227 . S
O151 C150 1.227 . S
N152 Co138 2.140 . S
N152 C155 1.346 . S
N152 C156 1.345 . S
C153 C154 1.387 . S
C153 C157 1.391 . S
C154 C153 1.387 . S
C154 C155 1.369 . S
C154 H163 0.929 . S
C155 N152 1.346 . S
C155 C154 1.369 . S
C155 H158 0.928 . S
C156 N152 1.345 . S
C156 C157 1.371 . S
C156 H159 0.931 . S
C157 C153 1.391 . S
C157 C156 1.371 . S
C157 H164 0.930 . S
H158 C155 0.928 . S
H159 C156 0.931 . S
H160 C136 0.930 . S
H161 C133 0.930 . S
H162 C142 0.930 . S
H163 C154 0.929 . S
H164 C157 0.930 . S
C165 C166 1.351 . S
C165 N168 1.368 . S
C165 H170 0.931 . S
C166 C165 1.351 . S
C166 N167 1.373 . S
C166 H194 0.930 . S
N167 C166 1.373 . S
N167 C169 1.340 . S
N168 C165 1.368 . S
N168 C169 1.321 . S
N168 Co171 2.135 . S
C169 N167 1.340 . S
C169 N168 1.321 . S
C169 H193 0.930 . S
H170 C165 0.931 . S
Co171 N168 2.135 . S
Co171 N174 2.121 . S
Co171 O179 2.055 . S
Co171 O182 2.039 . S
Co171 N185 2.140 . S
C172 O173 1.227 . S
C172 O182 1.265 . S
O173 C172 1.227 . S
N174 Co171 2.121 . S
N174 C176 1.375 . S
N174 C177 1.313 . S
C175 C176 1.338 . S
C175 N178 1.377 . S
C175 H195 0.930 . S
C176 N174 1.375 . S
C176 C175 1.338 . S
C176 H180 0.931 . S
C177 N174 1.313 . S
C177 N178 1.344 . S
C177 H181 0.930 . S
N178 C175 1.377 . S
N178 C177 1.344 . S
O179 Co171 2.055 . S
O179 C183 1.253 . S
H180 C176 0.931 . S
H181 C177 0.930 . S
O182 Co171 2.039 . S
O182 C172 1.265 . S
C183 O179 1.253 . S
C183 O184 1.227 . S
O184 C183 1.227 . S
N185 Co171 2.140 . S
N185 C188 1.346 . S
N185 C189 1.345 . S
C186 C187 1.387 . S
C186 C190 1.391 . S
C187 C186 1.387 . S
C187 C188 1.369 . S
C187 H196 0.929 . S
C188 N185 1.346 . S
C188 C187 1.369 . S
C188 H191 0.928 . S
C189 N185 1.345 . S
C189 C190 1.371 . S
C189 H192 0.931 . S
C190 C186 1.391 . S
C190 C189 1.371 . S
C190 H197 0.930 . S
H191 C188 0.928 . S
H192 C189 0.931 . S
H193 C169 0.930 . S
H194 C166 0.930 . S
H195 C175 0.930 . S
H196 C187 0.929 . S
H197 C190 0.930 . S
C198 C199 1.351 . S
C198 N201 1.368 . S
C198 H203 0.931 . S
C199 C198 1.351 . S
C199 N200 1.373 . S
C199 H227 0.930 . S
N200 C199 1.373 . S
N200 C202 1.340 . S
N201 C198 1.368 . S
N201 C202 1.321 . S
N201 Co204 2.135 . S
C202 N200 1.340 . S
C202 N201 1.321 . S
C202 H226 0.930 . S
H203 C198 0.931 . S
Co204 N201 2.135 . S
Co204 N207 2.121 1_554 S
Co204 O212 2.055 . S
Co204 O215 2.039 1_554 S
Co204 N218 2.140 . S
C205 O206 1.227 . S
C205 O215 1.265 . S
O206 C205 1.227 . S
N207 Co204 2.121 1_556 S
N207 C209 1.375 . S
N207 C210 1.313 . S
C208 C209 1.338 . S
C208 N211 1.377 . S
C208 H228 0.930 . S
C209 N207 1.375 . S
C209 C208 1.338 . S
C209 H213 0.931 . S
C210 N207 1.313 . S
C210 N211 1.344 . S
C210 H214 0.930 . S
N211 C208 1.377 . S
N211 C210 1.344 . S
O212 Co204 2.055 . S
O212 C216 1.253 . S
H213 C209 0.931 . S
H214 C210 0.930 . S
O215 Co204 2.039 1_556 S
O215 C205 1.265 . S
C216 O212 1.253 . S
C216 O217 1.227 . S
O217 C216 1.227 . S
N218 Co204 2.140 . S
N218 C221 1.346 . S
N218 C222 1.345 . S
C219 C220 1.387 . S
C219 C223 1.391 . S
C220 C219 1.387 . S
C220 C221 1.369 . S
C220 H229 0.929 . S
C221 N218 1.346 . S
C221 C220 1.369 . S
C221 H224 0.928 . S
C222 N218 1.345 . S
C222 C223 1.371 . S
C222 H225 0.931 . S
C223 C219 1.391 . S
C223 C222 1.371 . S
C223 H230 0.930 . S
H224 C221 0.928 . S
H225 C222 0.931 . S
H226 C202 0.930 . S
H227 C199 0.930 . S
H228 C208 0.930 . S
H229 C220 0.929 . S
H230 C223 0.930 . S
C231 C232 1.351 . S
C231 N234 1.368 . S
C231 H236 0.931 . S
C232 C231 1.351 . S
C232 N233 1.373 . S
C232 H260 0.930 . S
N233 C232 1.373 . S
N233 C235 1.340 . S
N234 C231 1.368 . S
N234 C235 1.321 . S
N234 Co237 2.135 . S
C235 N233 1.340 . S
C235 N234 1.321 . S
C235 H259 0.930 . S
H236 C231 0.931 . S
Co237 N234 2.135 . S
Co237 N240 2.121 1_554 S
Co237 O245 2.055 . S
Co237 O248 2.039 1_554 S
Co237 N251 2.140 . S
C238 O239 1.227 . S
C238 O248 1.265 . S
O239 C238 1.227 . S
N240 Co237 2.121 1_556 S
N240 C242 1.375 . S
N240 C243 1.313 . S
C241 C242 1.338 . S
C241 N244 1.377 . S
C241 H261 0.930 . S
C242 N240 1.375 . S
C242 C241 1.338 . S
C242 H246 0.931 . S
C243 N240 1.313 . S
C243 N244 1.344 . S
C243 H247 0.930 . S
N244 C241 1.377 . S
N244 C243 1.344 . S
O245 Co237 2.055 . S
O245 C249 1.253 . S
H246 C242 0.931 . S
H247 C243 0.930 . S
O248 Co237 2.039 1_556 S
O248 C238 1.265 . S
C249 O245 1.253 . S
C249 O250 1.227 . S
O250 C249 1.227 . S
N251 Co237 2.140 . S
N251 C254 1.346 . S
N251 C255 1.345 . S
C252 C253 1.387 . S
C252 C256 1.391 . S
C253 C252 1.387 . S
C253 C254 1.369 . S
C253 H262 0.929 . S
C254 N251 1.346 . S
C254 C253 1.369 . S
C254 H257 0.928 . S
C255 N251 1.345 . S
C255 C256 1.371 . S
C255 H258 0.931 . S
C256 C252 1.391 . S
C256 C255 1.371 . S
C256 H263 0.930 . S
H257 C254 0.928 . S
H258 C255 0.931 . S
H259 C235 0.930 . S
H260 C232 0.930 . S
H261 C241 0.930 . S
H262 C253 0.929 . S
H263 C256 0.930 . S
C264 C265 1.351 . S
C264 N267 1.368 . S
C264 H269 0.931 . S
C265 C264 1.351 . S
C265 N266 1.373 . S
C265 H293 0.930 . S
N266 C265 1.373 . S
N266 C268 1.340 . S
N267 C264 1.368 . S
N267 C268 1.321 . S
N267 Co270 2.135 . S
C268 N266 1.340 . S
C268 N267 1.321 . S
C268 H292 0.930 . S
H269 C264 0.931 . S
Co270 N267 2.135 . S
Co270 N273 2.121 1_554 S
Co270 O278 2.055 . S
Co270 O281 2.039 1_554 S
Co270 N284 2.140 . S
C271 O272 1.227 . S
C271 O281 1.265 . S
O272 C271 1.227 . S
N273 Co270 2.121 1_556 S
N273 C275 1.375 . S
N273 C276 1.313 . S
C274 C275 1.338 . S
C274 N277 1.377 . S
C274 H294 0.930 . S
C275 N273 1.375 . S
C275 C274 1.338 . S
C275 H279 0.931 . S
C276 N273 1.313 . S
C276 N277 1.344 . S
C276 H280 0.930 . S
N277 C274 1.377 . S
N277 C276 1.344 . S
O278 Co270 2.055 . S
O278 C282 1.253 . S
H279 C275 0.931 . S
H280 C276 0.930 . S
O281 Co270 2.039 1_556 S
O281 C271 1.265 . S
C282 O278 1.253 . S
C282 O283 1.227 . S
O283 C282 1.227 . S
N284 Co270 2.140 . S
N284 C287 1.346 . S
N284 C288 1.345 . S
C285 C286 1.387 . S
C285 C289 1.391 . S
C286 C285 1.387 . S
C286 C287 1.369 . S
C286 H295 0.929 . S
C287 N284 1.346 . S
C287 C286 1.369 . S
C287 H290 0.928 . S
C288 N284 1.345 . S
C288 C289 1.371 . S
C288 H291 0.931 . S
C289 C285 1.391 . S
C289 C288 1.371 . S
C289 H296 0.930 . S
H290 C287 0.928 . S
H291 C288 0.931 . S
H292 C268 0.930 . S
H293 C265 0.930 . S
H294 C274 0.930 . S
H295 C286 0.929 . S
H296 C289 0.930 . S
C297 C298 1.351 . S
C297 N300 1.368 . S
C297 H302 0.931 . S
C298 C297 1.351 . S
C298 N299 1.373 . S
C298 H326 0.930 . S
N299 C298 1.373 . S
N299 C301 1.340 . S
N300 C297 1.368 . S
N300 C301 1.321 . S
N300 Co303 2.135 . S
C301 N299 1.340 . S
C301 N300 1.321 . S
C301 H325 0.930 . S
H302 C297 0.931 . S
Co303 N300 2.135 . S
Co303 N306 2.121 . S
Co303 O311 2.055 . S
Co303 O314 2.039 . S
Co303 N317 2.140 . S
C304 O305 1.227 . S
C304 O314 1.265 . S
O305 C304 1.227 . S
N306 Co303 2.121 . S
N306 C308 1.375 . S
N306 C309 1.313 . S
C307 C308 1.338 . S
C307 N310 1.377 . S
C307 H327 0.930 . S
C308 N306 1.375 . S
C308 C307 1.338 . S
C308 H312 0.931 . S
C309 N306 1.313 . S
C309 N310 1.344 . S
C309 H313 0.930 . S
N310 C307 1.377 . S
N310 C309 1.344 . S
O311 Co303 2.055 . S
O311 C315 1.253 . S
H312 C308 0.931 . S
H313 C309 0.930 . S
O314 Co303 2.039 . S
O314 C304 1.265 . S
C315 O311 1.253 . S
C315 O316 1.227 . S
O316 C315 1.227 . S
N317 Co303 2.140 . S
N317 C320 1.346 . S
N317 C321 1.345 . S
C318 C319 1.387 . S
C318 C322 1.391 . S
C319 C318 1.387 . S
C319 C320 1.369 . S
C319 H328 0.929 . S
C320 N317 1.346 . S
C320 C319 1.369 . S
C320 H323 0.928 . S
C321 N317 1.345 . S
C321 C322 1.371 . S
C321 H324 0.931 . S
C322 C318 1.391 . S
C322 C321 1.371 . S
C322 H329 0.930 . S
H323 C320 0.928 . S
H324 C321 0.931 . S
H325 C301 0.930 . S
H326 C298 0.930 . S
H327 C307 0.930 . S
H328 C319 0.929 . S
H329 C322 0.930 . S
C330 C331 1.351 . S
C330 N333 1.368 . S
C330 H335 0.931 . S
C331 C330 1.351 . S
C331 N332 1.373 . S
C331 H359 0.930 . S
N332 C331 1.373 . S
N332 C334 1.340 . S
N333 C330 1.368 . S
N333 C334 1.321 . S
N333 Co336 2.135 . S
C334 N332 1.340 . S
C334 N333 1.321 . S
C334 H358 0.930 . S
H335 C330 0.931 . S
Co336 N333 2.135 . S
Co336 N339 2.121 . S
Co336 O344 2.055 . S
Co336 O347 2.039 . S
Co336 N350 2.140 . S
C337 O338 1.227 . S
C337 O347 1.265 . S
O338 C337 1.227 . S
N339 Co336 2.121 . S
N339 C341 1.375 . S
N339 C342 1.313 . S
C340 C341 1.338 . S
C340 N343 1.377 . S
C340 H360 0.930 . S
C341 N339 1.375 . S
C341 C340 1.338 . S
C341 H345 0.931 . S
C342 N339 1.313 . S
C342 N343 1.344 . S
C342 H346 0.930 . S
N343 C340 1.377 . S
N343 C342 1.344 . S
O344 Co336 2.055 . S
O344 C348 1.253 . S
H345 C341 0.931 . S
H346 C342 0.930 . S
O347 Co336 2.039 . S
O347 C337 1.265 . S
C348 O344 1.253 . S
C348 O349 1.227 . S
O349 C348 1.227 . S
N350 Co336 2.140 . S
N350 C353 1.346 . S
N350 C354 1.345 . S
C351 C352 1.387 . S
C351 C355 1.391 . S
C352 C351 1.387 . S
C352 C353 1.369 . S
C352 H361 0.929 . S
C353 N350 1.346 . S
C353 C352 1.369 . S
C353 H356 0.928 . S
C354 N350 1.345 . S
C354 C355 1.371 . S
C354 H357 0.931 . S
C355 C351 1.391 . S
C355 C354 1.371 . S
C355 H362 0.930 . S
H356 C353 0.928 . S
H357 C354 0.931 . S
H358 C334 0.930 . S
H359 C331 0.930 . S
H360 C340 0.930 . S
H361 C352 0.929 . S
H362 C355 0.930 . S
C363 C364 1.351 . S
C363 N366 1.368 . S
C363 H368 0.931 . S
C364 C363 1.351 . S
C364 N365 1.373 . S
C364 H392 0.930 . S
N365 C364 1.373 . S
N365 C367 1.340 . S
N366 C363 1.368 . S
N366 C367 1.321 . S
N366 Co369 2.135 . S
C367 N365 1.340 . S
C367 N366 1.321 . S
C367 H391 0.930 . S
H368 C363 0.931 . S
Co369 N366 2.135 . S
Co369 N372 2.121 . S
Co369 O377 2.055 . S
Co369 O380 2.039 . S
Co369 N383 2.140 . S
C370 O371 1.227 . S
C370 O380 1.265 . S
O371 C370 1.227 . S
N372 Co369 2.121 . S
N372 C374 1.375 . S
N372 C375 1.313 . S
C373 C374 1.338 . S
C373 N376 1.377 . S
C373 H393 0.930 . S
C374 N372 1.375 . S
C374 C373 1.338 . S
C374 H378 0.931 . S
C375 N372 1.313 . S
C375 N376 1.344 . S
C375 H379 0.930 . S
N376 C373 1.377 . S
N376 C375 1.344 . S
O377 Co369 2.055 . S
O377 C381 1.253 . S
H378 C374 0.931 . S
H379 C375 0.930 . S
O380 Co369 2.039 . S
O380 C370 1.265 . S
C381 O377 1.253 . S
C381 O382 1.227 . S
O382 C381 1.227 . S
N383 Co369 2.140 . S
N383 C386 1.346 . S
N383 C387 1.345 . S
C384 C385 1.387 . S
C384 C388 1.391 . S
C385 C384 1.387 . S
C385 C386 1.369 . S
C385 H394 0.929 . S
C386 N383 1.346 . S
C386 C385 1.369 . S
C386 H389 0.928 . S
C387 N383 1.345 . S
C387 C388 1.371 . S
C387 H390 0.931 . S
C388 C384 1.391 . S
C388 C387 1.371 . S
C388 H395 0.930 . S
H389 C386 0.928 . S
H390 C387 0.931 . S
H391 C367 0.930 . S
H392 C364 0.930 . S
H393 C373 0.930 . S
H394 C385 0.929 . S
H395 C388 0.930 . S
C396 C397 1.351 . S
C396 N399 1.368 . S
C396 H401 0.931 . S
C397 C396 1.351 . S
C397 N398 1.373 . S
C397 H425 0.930 . S
N398 C397 1.373 . S
N398 C400 1.340 . S
N399 C396 1.368 . S
N399 C400 1.321 . S
N399 Co402 2.135 . S
C400 N398 1.340 . S
C400 N399 1.321 . S
C400 H424 0.930 . S
H401 C396 0.931 . S
Co402 N399 2.135 . S
Co402 N405 2.121 . S
Co402 O410 2.055 . S
Co402 O413 2.039 . S
Co402 N416 2.140 . S
C403 O404 1.227 . S
C403 O413 1.265 . S
O404 C403 1.227 . S
N405 Co402 2.121 . S
N405 C407 1.375 . S
N405 C408 1.313 . S
C406 C407 1.338 . S
C406 N409 1.377 . S
C406 H426 0.930 . S
C407 N405 1.375 . S
C407 C406 1.338 . S
C407 H411 0.931 . S
C408 N405 1.313 . S
C408 N409 1.344 . S
C408 H412 0.930 . S
N409 C406 1.377 . S
N409 C408 1.344 . S
O410 Co402 2.055 . S
O410 C414 1.253 . S
H411 C407 0.931 . S
H412 C408 0.930 . S
O413 Co402 2.039 . S
O413 C403 1.265 . S
C414 O410 1.253 . S
C414 O415 1.227 . S
O415 C414 1.227 . S
N416 Co402 2.140 . S
N416 C419 1.346 . S
N416 C420 1.345 . S
C417 C418 1.387 . S
C417 C421 1.391 . S
C418 C417 1.387 . S
C418 C419 1.369 . S
C418 H427 0.929 . S
C419 N416 1.346 . S
C419 C418 1.369 . S
C419 H422 0.928 . S
C420 N416 1.345 . S
C420 C421 1.371 . S
C420 H423 0.931 . S
C421 C417 1.391 . S
C421 C420 1.371 . S
C421 H428 0.930 . S
H422 C419 0.928 . S
H423 C420 0.931 . S
H424 C400 0.930 . S
H425 C397 0.930 . S
H426 C406 0.930 . S
H427 C418 0.929 . S
H428 C421 0.930 . S
C429 C430 1.351 . S
C429 N432 1.368 . S
C429 H434 0.931 . S
C430 C429 1.351 . S
C430 N431 1.373 . S
C430 H458 0.930 . S
N431 C430 1.373 . S
N431 C433 1.340 . S
N432 C429 1.368 . S
N432 C433 1.321 . S
N432 Co435 2.135 . S
C433 N431 1.340 . S
C433 N432 1.321 . S
C433 H457 0.930 . S
H434 C429 0.931 . S
Co435 N432 2.135 . S
Co435 N438 2.121 . S
Co435 O443 2.055 . S
Co435 O446 2.039 . S
Co435 N449 2.140 . S
C436 O437 1.227 . S
C436 O446 1.265 . S
O437 C436 1.227 . S
N438 Co435 2.121 . S
N438 C440 1.375 . S
N438 C441 1.313 . S
C439 C440 1.338 . S
C439 N442 1.377 . S
C439 H459 0.930 . S
C440 N438 1.375 . S
C440 C439 1.338 . S
C440 H444 0.931 . S
C441 N438 1.313 . S
C441 N442 1.344 . S
C441 H445 0.930 . S
N442 C439 1.377 . S
N442 C441 1.344 . S
O443 Co435 2.055 . S
O443 C447 1.253 . S
H444 C440 0.931 . S
H445 C441 0.930 . S
O446 Co435 2.039 . S
O446 C436 1.265 . S
C447 O443 1.253 . S
C447 O448 1.227 . S
O448 C447 1.227 . S
N449 Co435 2.140 . S
N449 C452 1.346 . S
N449 C453 1.345 . S
C450 C451 1.387 . S
C450 C454 1.391 . S
C451 C450 1.387 . S
C451 C452 1.369 . S
C451 H460 0.929 . S
C452 N449 1.346 . S
C452 C451 1.369 . S
C452 H455 0.928 . S
C453 N449 1.345 . S
C453 C454 1.371 . S
C453 H456 0.931 . S
C454 C450 1.391 . S
C454 C453 1.371 . S
C454 H461 0.930 . S
H455 C452 0.928 . S
H456 C453 0.931 . S
H457 C433 0.930 . S
H458 C430 0.930 . S
H459 C439 0.930 . S
H460 C451 0.929 . S
H461 C454 0.930 . S
C462 C463 1.351 . S
C462 N465 1.368 . S
C462 H467 0.931 . S
C463 C462 1.351 . S
C463 N464 1.373 . S
C463 H491 0.930 . S
N464 C463 1.373 . S
N464 C466 1.340 . S
N465 C462 1.368 . S
N465 C466 1.321 . S
N465 Co468 2.135 . S
C466 N464 1.340 . S
C466 N465 1.321 . S
C466 H490 0.930 . S
H467 C462 0.931 . S
Co468 N465 2.135 . S
Co468 N471 2.121 . S
Co468 O476 2.055 . S
Co468 O479 2.039 . S
Co468 N482 2.140 . S
C469 O470 1.227 . S
C469 O479 1.265 . S
O470 C469 1.227 . S
N471 Co468 2.121 . S
N471 C473 1.375 . S
N471 C474 1.313 . S
C472 C473 1.338 . S
C472 N475 1.377 . S
C472 H492 0.930 . S
C473 N471 1.375 . S
C473 C472 1.338 . S
C473 H477 0.931 . S
C474 N471 1.313 . S
C474 N475 1.344 . S
C474 H478 0.930 . S
N475 C472 1.377 . S
N475 C474 1.344 . S
O476 Co468 2.055 . S
O476 C480 1.253 . S
H477 C473 0.931 . S
H478 C474 0.930 . S
O479 Co468 2.039 . S
O479 C469 1.265 . S
C480 O476 1.253 . S
C480 O481 1.227 . S
O481 C480 1.227 . S
N482 Co468 2.140 . S
N482 C485 1.346 . S
N482 C486 1.345 . S
C483 C484 1.387 . S
C483 C487 1.391 . S
C484 C483 1.387 . S
C484 C485 1.369 . S
C484 H493 0.929 . S
C485 N482 1.346 . S
C485 C484 1.369 . S
C485 H488 0.928 . S
C486 N482 1.345 . S
C486 C487 1.371 . S
C486 H489 0.931 . S
C487 C483 1.391 . S
C487 C486 1.371 . S
C487 H494 0.930 . S
H488 C485 0.928 . S
H489 C486 0.931 . S
H490 C466 0.930 . S
H491 C463 0.930 . S
H492 C472 0.930 . S
H493 C484 0.929 . S
H494 C487 0.930 . S
C495 C496 1.351 . S
C495 N498 1.368 . S
C495 H500 0.931 . S
C496 C495 1.351 . S
C496 N497 1.373 . S
C496 H524 0.930 . S
N497 C496 1.373 . S
N497 C499 1.340 . S
N498 C495 1.368 . S
N498 C499 1.321 . S
N498 Co501 2.135 . S
C499 N497 1.340 . S
C499 N498 1.321 . S
C499 H523 0.930 . S
H500 C495 0.931 . S
Co501 N498 2.135 . S
Co501 N504 2.121 . S
Co501 O509 2.055 . S
Co501 O512 2.039 . S
Co501 N515 2.140 . S
C502 O503 1.227 . S
C502 O512 1.265 . S
O503 C502 1.227 . S
N504 Co501 2.121 . S
N504 C506 1.375 1_556 S
N504 C507 1.313 . S
C505 C506 1.338 . S
C505 N508 1.377 . S
C505 H525 0.930 . S
C506 N504 1.375 1_554 S
C506 C505 1.338 . S
C506 H510 0.931 . S
C507 N504 1.313 . S
C507 N508 1.344 1_556 S
C507 H511 0.930 . S
N508 C505 1.377 . S
N508 C507 1.344 1_554 S
O509 Co501 2.055 . S
O509 C513 1.253 . S
H510 C506 0.931 . S
H511 C507 0.930 . S
O512 Co501 2.039 . S
O512 C502 1.265 . S
C513 O509 1.253 . S
C513 O514 1.227 . S
O514 C513 1.227 . S
N515 Co501 2.140 . S
N515 C518 1.346 . S
N515 C519 1.345 . S
C516 C517 1.387 . S
C516 C520 1.391 . S
C517 C516 1.387 . S
C517 C518 1.369 . S
C517 H526 0.929 . S
C518 N515 1.346 . S
C518 C517 1.369 . S
C518 H521 0.928 . S
C519 N515 1.345 . S
C519 C520 1.371 . S
C519 H522 0.931 . S
C520 C516 1.391 . S
C520 C519 1.371 . S
C520 H527 0.930 . S
H521 C518 0.928 . S
H522 C519 0.931 . S
H523 C499 0.930 . S
H524 C496 0.930 . S
H525 C505 0.930 . S
H526 C517 0.929 . S
H527 C520 0.930 . S
C528 C529 1.351 . S
C528 N531 1.368 . S
C528 H533 0.931 . S
C529 C528 1.351 . S
C529 N530 1.373 . S
C529 H557 0.930 . S
N530 C529 1.373 . S
N530 C532 1.340 . S
N531 C528 1.368 . S
N531 C532 1.321 . S
N531 Co534 2.135 . S
C532 N530 1.340 . S
C532 N531 1.321 . S
C532 H556 0.930 . S
H533 C528 0.931 . S
Co534 N531 2.135 . S
Co534 N537 2.121 . S
Co534 O542 2.055 . S
Co534 O545 2.039 . S
Co534 N548 2.140 . S
C535 O536 1.227 . S
C535 O545 1.265 . S
O536 C535 1.227 . S
N537 Co534 2.121 . S
N537 C539 1.375 1_556 S
N537 C540 1.313 . S
C538 C539 1.338 . S
C538 N541 1.377 . S
C538 H558 0.930 . S
C539 N537 1.375 1_554 S
C539 C538 1.338 . S
C539 H543 0.931 . S
C540 N537 1.313 . S
C540 N541 1.344 1_556 S
C540 H544 0.930 . S
N541 C538 1.377 . S
N541 C540 1.344 1_554 S
O542 Co534 2.055 . S
O542 C546 1.253 . S
H543 C539 0.931 . S
H544 C540 0.930 . S
O545 Co534 2.039 . S
O545 C535 1.265 . S
C546 O542 1.253 . S
C546 O547 1.227 . S
O547 C546 1.227 . S
N548 Co534 2.140 . S
N548 C551 1.346 . S
N548 C552 1.345 . S
C549 C550 1.387 . S
C549 C553 1.391 . S
C550 C549 1.387 . S
C550 C551 1.369 . S
C550 H559 0.929 . S
C551 N548 1.346 . S
C551 C550 1.369 . S
C551 H554 0.928 . S
C552 N548 1.345 . S
C552 C553 1.371 . S
C552 H555 0.931 . S
C553 C549 1.391 . S
C553 C552 1.371 . S
C553 H560 0.930 . S
H554 C551 0.928 . S
H555 C552 0.931 . S
H556 C532 0.930 . S
H557 C529 0.930 . S
H558 C538 0.930 . S
H559 C550 0.929 . S
H560 C553 0.930 . S
C561 C562 1.351 . S
C561 N564 1.368 . S
C561 H566 0.931 . S
C562 C561 1.351 . S
C562 N563 1.373 . S
C562 H590 0.930 . S
N563 C562 1.373 . S
N563 C565 1.340 . S
N564 C561 1.368 . S
N564 C565 1.321 . S
N564 Co567 2.135 . S
C565 N563 1.340 . S
C565 N564 1.321 . S
C565 H589 0.930 . S
H566 C561 0.931 . S
Co567 N564 2.135 . S
Co567 N570 2.121 . S
Co567 O575 2.055 . S
Co567 O578 2.039 . S
Co567 N581 2.140 . S
C568 O569 1.227 . S
C568 O578 1.265 . S
O569 C568 1.227 . S
N570 Co567 2.121 . S
N570 C572 1.375 1_556 S
N570 C573 1.313 . S
C571 C572 1.338 . S
C571 N574 1.377 . S
C571 H591 0.930 . S
C572 N570 1.375 1_554 S
C572 C571 1.338 . S
C572 H576 0.931 . S
C573 N570 1.313 . S
C573 N574 1.344 1_556 S
C573 H577 0.930 . S
N574 C571 1.377 . S
N574 C573 1.344 1_554 S
O575 Co567 2.055 . S
O575 C579 1.253 . S
H576 C572 0.931 . S
H577 C573 0.930 . S
O578 Co567 2.039 . S
O578 C568 1.265 . S
C579 O575 1.253 . S
C579 O580 1.227 . S
O580 C579 1.227 . S
N581 Co567 2.140 . S
N581 C584 1.346 . S
N581 C585 1.345 . S
C582 C583 1.387 . S
C582 C586 1.391 . S
C583 C582 1.387 . S
C583 C584 1.369 . S
C583 H592 0.929 . S
C584 N581 1.346 . S
C584 C583 1.369 . S
C584 H587 0.928 . S
C585 N581 1.345 . S
C585 C586 1.371 . S
C585 H588 0.931 . S
C586 C582 1.391 . S
C586 C585 1.371 . S
C586 H593 0.930 . S
H587 C584 0.928 . S
H588 C585 0.931 . S
H589 C565 0.930 . S
H590 C562 0.930 . S
H591 C571 0.930 . S
H592 C583 0.929 . S
H593 C586 0.930 . S
C594 C595 1.351 . S
C594 N597 1.368 . S
C594 H599 0.931 . S
C595 C594 1.351 . S
C595 N596 1.373 . S
C595 H623 0.930 . S
N596 C595 1.373 . S
N596 C598 1.340 . S
N597 C594 1.368 . S
N597 C598 1.321 . S
N597 Co600 2.135 . S
C598 N596 1.340 . S
C598 N597 1.321 . S
C598 H622 0.930 . S
H599 C594 0.931 . S
Co600 N597 2.135 . S
Co600 N603 2.121 . S
Co600 O608 2.055 . S
Co600 O611 2.039 . S
Co600 N614 2.140 . S
C601 O602 1.227 . S
C601 O611 1.265 . S
O602 C601 1.227 . S
N603 Co600 2.121 . S
N603 C605 1.375 . S
N603 C606 1.313 . S
C604 C605 1.338 . S
C604 N607 1.377 . S
C604 H624 0.930 . S
C605 N603 1.375 . S
C605 C604 1.338 . S
C605 H609 0.931 . S
C606 N603 1.313 . S
C606 N607 1.344 . S
C606 H610 0.930 . S
N607 C604 1.377 . S
N607 C606 1.344 . S
O608 Co600 2.055 . S
O608 C612 1.253 . S
H609 C605 0.931 . S
H610 C606 0.930 . S
O611 Co600 2.039 . S
O611 C601 1.265 . S
C612 O608 1.253 . S
C612 O613 1.227 . S
O613 C612 1.227 . S
N614 Co600 2.140 . S
N614 C617 1.346 . S
N614 C618 1.345 . S
C615 C616 1.387 . S
C615 C619 1.391 . S
C616 C615 1.387 . S
C616 C617 1.369 . S
C616 H625 0.929 . S
C617 N614 1.346 . S
C617 C616 1.369 . S
C617 H620 0.928 . S
C618 N614 1.345 . S
C618 C619 1.371 . S
C618 H621 0.931 . S
C619 C615 1.391 . S
C619 C618 1.371 . S
C619 H626 0.930 . S
H620 C617 0.928 . S
H621 C618 0.931 . S
H622 C598 0.930 . S
H623 C595 0.930 . S
H624 C604 0.930 . S
H625 C616 0.929 . S
H626 C619 0.930 . S
C627 C628 1.351 . S
C627 N630 1.368 . S
C627 H632 0.931 . S
C628 C627 1.351 . S
C628 N629 1.373 . S
C628 H656 0.930 . S
N629 C628 1.373 . S
N629 C631 1.340 . S
N630 C627 1.368 . S
N630 C631 1.321 . S
N630 Co633 2.135 . S
C631 N629 1.340 . S
C631 N630 1.321 . S
C631 H655 0.930 . S
H632 C627 0.931 . S
Co633 N630 2.135 . S
Co633 N636 2.121 . S
Co633 O641 2.055 . S
Co633 O644 2.039 . S
Co633 N647 2.140 . S
C634 O635 1.227 . S
C634 O644 1.265 . S
O635 C634 1.227 . S
N636 Co633 2.121 . S
N636 C638 1.375 . S
N636 C639 1.313 . S
C637 C638 1.338 . S
C637 N640 1.377 . S
C637 H657 0.930 . S
C638 N636 1.375 . S
C638 C637 1.338 . S
C638 H642 0.931 . S
C639 N636 1.313 . S
C639 N640 1.344 . S
C639 H643 0.930 . S
N640 C637 1.377 . S
N640 C639 1.344 . S
O641 Co633 2.055 . S
O641 C645 1.253 . S
H642 C638 0.931 . S
H643 C639 0.930 . S
O644 Co633 2.039 . S
O644 C634 1.265 . S
C645 O641 1.253 . S
C645 O646 1.227 . S
O646 C645 1.227 . S
N647 Co633 2.140 . S
N647 C650 1.346 . S
N647 C651 1.345 . S
C648 C649 1.387 . S
C648 C652 1.391 . S
C649 C648 1.387 . S
C649 C650 1.369 . S
C649 H658 0.929 . S
C650 N647 1.346 . S
C650 C649 1.369 . S
C650 H653 0.928 . S
C651 N647 1.345 . S
C651 C652 1.371 . S
C651 H654 0.931 . S
C652 C648 1.391 . S
C652 C651 1.371 . S
C652 H659 0.930 . S
H653 C650 0.928 . S
H654 C651 0.931 . S
H655 C631 0.930 . S
H656 C628 0.930 . S
H657 C637 0.930 . S
H658 C649 0.929 . S
H659 C652 0.930 . S
C660 C661 1.351 . S
C660 N663 1.368 . S
C660 H665 0.931 . S
C661 C660 1.351 . S
C661 N662 1.373 . S
C661 H689 0.930 . S
N662 C661 1.373 . S
N662 C664 1.340 . S
N663 C660 1.368 . S
N663 C664 1.321 . S
N663 Co666 2.135 . S
C664 N662 1.340 . S
C664 N663 1.321 . S
C664 H688 0.930 . S
H665 C660 0.931 . S
Co666 N663 2.135 . S
Co666 N669 2.121 . S
Co666 O674 2.055 . S
Co666 O677 2.039 . S
Co666 N680 2.140 . S
C667 O668 1.227 . S
C667 O677 1.265 . S
O668 C667 1.227 . S
N669 Co666 2.121 . S
N669 C671 1.375 . S
N669 C672 1.313 . S
C670 C671 1.338 . S
C670 N673 1.377 . S
C670 H690 0.930 . S
C671 N669 1.375 . S
C671 C670 1.338 . S
C671 H675 0.931 . S
C672 N669 1.313 . S
C672 N673 1.344 . S
C672 H676 0.930 . S
N673 C670 1.377 . S
N673 C672 1.344 . S
O674 Co666 2.055 . S
O674 C678 1.253 . S
H675 C671 0.931 . S
H676 C672 0.930 . S
O677 Co666 2.039 . S
O677 C667 1.265 . S
C678 O674 1.253 . S
C678 O679 1.227 . S
O679 C678 1.227 . S
N680 Co666 2.140 . S
N680 C683 1.346 . S
N680 C684 1.345 . S
C681 C682 1.387 . S
C681 C685 1.391 . S
C682 C681 1.387 . S
C682 C683 1.369 . S
C682 H691 0.929 . S
C683 N680 1.346 . S
C683 C682 1.369 . S
C683 H686 0.928 . S
C684 N680 1.345 . S
C684 C685 1.371 . S
C684 H687 0.931 . S
C685 C681 1.391 . S
C685 C684 1.371 . S
C685 H692 0.930 . S
H686 C683 0.928 . S
H687 C684 0.931 . S
H688 C664 0.930 . S
H689 C661 0.930 . S
H690 C670 0.930 . S
H691 C682 0.929 . S
H692 C685 0.930 . S
C693 C694 1.351 . S
C693 N696 1.368 . S
C693 H698 0.931 . S
C694 C693 1.351 . S
C694 N695 1.373 . S
C694 H722 0.930 . S
N695 C694 1.373 . S
N695 C697 1.340 . S
N696 C693 1.368 . S
N696 C697 1.321 . S
N696 Co699 2.135 . S
C697 N695 1.340 . S
C697 N696 1.321 . S
C697 H721 0.930 . S
H698 C693 0.931 . S
Co699 N696 2.135 . S
Co699 N702 2.121 . S
Co699 O707 2.055 . S
Co699 O710 2.039 . S
Co699 N713 2.140 . S
C700 O701 1.227 . S
C700 O710 1.265 . S
O701 C700 1.227 . S
N702 Co699 2.121 . S
N702 C704 1.362 1_556 S
N702 C705 1.313 . S
C703 C704 1.347 . S
C703 N706 1.377 . S
C703 H723 0.930 . S
C704 N702 1.362 1_554 S
C704 C703 1.347 . S
C704 H708 0.934 . S
C705 N702 1.313 . S
C705 N706 1.344 1_556 S
C705 H709 0.930 . S
N706 C703 1.377 . S
N706 C705 1.344 1_554 S
O707 Co699 2.055 . S
O707 C711 1.253 . S
H708 C704 0.934 . S
H709 C705 0.930 . S
O710 Co699 2.039 . S
O710 C700 1.265 . S
C711 O707 1.253 . S
C711 O712 1.227 . S
O712 C711 1.227 . S
N713 Co699 2.140 . S
N713 C716 1.346 . S
N713 C717 1.345 . S
C714 C715 1.387 . S
C714 C718 1.391 . S
C715 C714 1.387 . S
C715 C716 1.369 . S
C715 H724 0.929 . S
C716 N713 1.346 . S
C716 C715 1.369 . S
C716 H719 0.928 . S
C717 N713 1.345 . S
C717 C718 1.371 . S
C717 H720 0.931 . S
C718 C714 1.391 . S
C718 C717 1.371 . S
C718 H725 0.930 . S
H719 C716 0.928 . S
H720 C717 0.931 . S
H721 C697 0.930 . S
H722 C694 0.930 . S
H723 C703 0.930 . S
H724 C715 0.929 . S
H725 C718 0.930 . S
C726 C727 1.351 . S
C726 N729 1.368 . S
C726 H731 0.931 . S
C727 C726 1.351 . S
C727 N728 1.373 . S
C727 H755 0.930 . S
N728 C727 1.373 . S
N728 C730 1.340 . S
N729 C726 1.368 . S
N729 C730 1.321 . S
N729 Co732 2.135 . S
C730 N728 1.340 . S
C730 N729 1.321 . S
C730 H754 0.930 . S
H731 C726 0.931 . S
Co732 N729 2.135 . S
Co732 N735 2.121 . S
Co732 O740 2.055 . S
Co732 O743 2.039 . S
Co732 N746 2.140 . S
C733 O734 1.227 . S
C733 O743 1.265 . S
O734 C733 1.227 . S
N735 Co732 2.121 . S
N735 C737 1.361 1_556 S
N735 C738 1.313 . S
C736 C737 1.347 . S
C736 N739 1.377 . S
C736 H756 0.930 . S
C737 N735 1.361 1_554 S
C737 C736 1.347 . S
C737 H741 0.935 . S
C738 N735 1.313 . S
C738 N739 1.344 1_556 S
C738 H742 0.930 . S
N739 C736 1.377 . S
N739 C738 1.344 1_554 S
O740 Co732 2.055 . S
O740 C744 1.253 . S
H741 C737 0.935 . S
H742 C738 0.930 . S
O743 Co732 2.039 . S
O743 C733 1.265 . S
C744 O740 1.253 . S
C744 O745 1.227 . S
O745 C744 1.227 . S
N746 Co732 2.140 . S
N746 C749 1.346 . S
N746 C750 1.345 . S
C747 C748 1.387 . S
C747 C751 1.391 . S
C748 C747 1.387 . S
C748 C749 1.369 . S
C748 H757 0.929 . S
C749 N746 1.346 . S
C749 C748 1.369 . S
C749 H752 0.928 . S
C750 N746 1.345 . S
C750 C751 1.371 . S
C750 H753 0.931 . S
C751 C747 1.391 . S
C751 C750 1.371 . S
C751 H758 0.930 . S
H752 C749 0.928 . S
H753 C750 0.931 . S
H754 C730 0.930 . S
H755 C727 0.930 . S
H756 C736 0.930 . S
H757 C748 0.929 . S
H758 C751 0.930 . S
C759 C760 1.351 . S
C759 N762 1.368 . S
C759 H764 0.931 . S
C760 C759 1.351 . S
C760 N761 1.373 . S
C760 H788 0.930 . S
N761 C760 1.373 . S
N761 C763 1.340 . S
N762 C759 1.368 . S
N762 C763 1.321 . S
N762 Co765 2.135 . S
C763 N761 1.340 . S
C763 N762 1.321 . S
C763 H787 0.930 . S
H764 C759 0.931 . S
Co765 N762 2.135 . S
Co765 N768 2.121 . S
Co765 O773 2.055 . S
Co765 O776 2.039 . S
Co765 N779 2.140 . S
C766 O767 1.227 . S
C766 O776 1.265 . S
O767 C766 1.227 . S
N768 Co765 2.121 . S
N768 C770 1.364 1_556 S
N768 C771 1.313 . S
C769 C770 1.345 . S
C769 N772 1.377 . S
C769 H789 0.930 . S
C770 N768 1.364 1_554 S
C770 C769 1.345 . S
C770 H774 0.934 . S
C771 N768 1.313 . S
C771 N772 1.344 1_556 S
C771 H775 0.930 . S
N772 C769 1.377 . S
N772 C771 1.344 1_554 S
O773 Co765 2.055 . S
O773 C777 1.253 . S
H774 C770 0.934 . S
H775 C771 0.930 . S
O776 Co765 2.039 . S
O776 C766 1.265 . S
C777 O773 1.253 . S
C777 O778 1.227 . S
O778 C777 1.227 . S
N779 Co765 2.140 . S
N779 C782 1.346 . S
N779 C783 1.345 . S
C780 C781 1.387 . S
C780 C784 1.391 . S
C781 C780 1.387 . S
C781 C782 1.369 . S
C781 H790 0.929 . S
C782 N779 1.346 . S
C782 C781 1.369 . S
C782 H785 0.928 . S
C783 N779 1.345 . S
C783 C784 1.371 . S
C783 H786 0.931 . S
C784 C780 1.391 . S
C784 C783 1.371 . S
C784 H791 0.930 . S
H785 C782 0.928 . S
H786 C783 0.931 . S
H787 C763 0.930 . S
H788 C760 0.930 . S
H789 C769 0.930 . S
H790 C781 0.929 . S
H791 C784 0.930 . S
C792 C793 1.351 . S
C792 N795 1.368 . S
C792 H797 0.931 . S
C793 C792 1.351 . S
C793 N794 1.373 . S
C793 H821 0.930 . S
N794 C793 1.373 . S
N794 C796 1.340 . S
N795 C792 1.368 . S
N795 C796 1.321 . S
N795 Co798 2.135 . S
C796 N794 1.340 . S
C796 N795 1.321 . S
C796 H820 0.930 . S
H797 C792 0.931 . S
Co798 N795 2.135 . S
Co798 N801 2.121 . S
Co798 O806 2.055 . S
Co798 O809 2.039 . S
Co798 N812 2.140 . S
C799 O800 1.227 . S
C799 O809 1.265 . S
O800 C799 1.227 . S
N801 Co798 2.121 . S
N801 C803 1.375 . S
N801 C804 1.313 . S
C802 C803 1.338 . S
C802 N805 1.377 . S
C802 H822 0.930 . S
C803 N801 1.375 . S
C803 C802 1.338 . S
C803 H807 0.931 . S
C804 N801 1.313 . S
C804 N805 1.344 . S
C804 H808 0.930 . S
N805 C802 1.377 . S
N805 C804 1.344 . S
O806 Co798 2.055 . S
O806 C810 1.253 . S
H807 C803 0.931 . S
H808 C804 0.930 . S
O809 Co798 2.039 . S
O809 C799 1.265 . S
C810 O806 1.253 . S
C810 O811 1.227 . S
O811 C810 1.227 . S
N812 Co798 2.140 . S
N812 C815 1.346 . S
N812 C816 1.345 . S
C813 C814 1.387 . S
C813 C817 1.391 . S
C814 C813 1.387 . S
C814 C815 1.369 . S
C814 H823 0.929 . S
C815 N812 1.346 . S
C815 C814 1.369 . S
C815 H818 0.928 . S
C816 N812 1.345 . S
C816 C817 1.371 . S
C816 H819 0.931 . S
C817 C813 1.391 . S
C817 C816 1.371 . S
C817 H824 0.930 . S
H818 C815 0.928 . S
H819 C816 0.931 . S
H820 C796 0.930 . S
H821 C793 0.930 . S
H822 C802 0.930 . S
H823 C814 0.929 . S
H824 C817 0.930 . S
C825 C826 1.351 . S
C825 N828 1.368 . S
C825 H830 0.931 . S
C826 C825 1.351 . S
C826 N827 1.373 . S
C826 H854 0.930 . S
N827 C826 1.373 . S
N827 C829 1.340 . S
N828 C825 1.368 . S
N828 C829 1.321 . S
N828 Co831 2.135 . S
C829 N827 1.340 . S
C829 N828 1.321 . S
C829 H853 0.930 . S
H830 C825 0.931 . S
Co831 N828 2.135 . S
Co831 N834 2.121 . S
Co831 O839 2.055 . S
Co831 O842 2.039 . S
Co831 N845 2.140 . S
C832 O833 1.227 . S
C832 O842 1.265 . S
O833 C832 1.227 . S
N834 Co831 2.121 . S
N834 C836 1.375 . S
N834 C837 1.313 . S
C835 C836 1.338 . S
C835 N838 1.377 . S
C835 H855 0.930 . S
C836 N834 1.375 . S
C836 C835 1.338 . S
C836 H840 0.931 . S
C837 N834 1.313 . S
C837 N838 1.344 . S
C837 H841 0.930 . S
N838 C835 1.377 . S
N838 C837 1.344 . S
O839 Co831 2.055 . S
O839 C843 1.253 . S
H840 C836 0.931 . S
H841 C837 0.930 . S
O842 Co831 2.039 . S
O842 C832 1.265 . S
C843 O839 1.253 . S
C843 O844 1.227 . S
O844 C843 1.227 . S
N845 Co831 2.140 . S
N845 C848 1.346 . S
N845 C849 1.345 . S
C846 C847 1.387 . S
C846 C850 1.391 . S
C847 C846 1.387 . S
C847 C848 1.369 . S
C847 H856 0.929 . S
C848 N845 1.346 . S
C848 C847 1.369 . S
C848 H851 0.928 . S
C849 N845 1.345 . S
C849 C850 1.371 . S
C849 H852 0.931 . S
C850 C846 1.391 . S
C850 C849 1.371 . S
C850 H857 0.930 . S
H851 C848 0.928 . S
H852 C849 0.931 . S
H853 C829 0.930 . S
H854 C826 0.930 . S
H855 C835 0.930 . S
H856 C847 0.929 . S
H857 C850 0.930 . S
C858 C859 1.351 . S
C858 N861 1.368 . S
C858 H863 0.931 . S
C859 C858 1.351 . S
C859 N860 1.373 . S
C859 H887 0.930 . S
N860 C859 1.373 . S
N860 C862 1.340 . S
N861 C858 1.368 . S
N861 C862 1.321 . S
N861 Co864 2.135 . S
C862 N860 1.340 . S
C862 N861 1.321 . S
C862 H886 0.930 . S
H863 C858 0.931 . S
Co864 N861 2.135 . S
Co864 N867 2.121 . S
Co864 O872 2.055 . S
Co864 O875 2.039 . S
Co864 N878 2.140 . S
C865 O866 1.227 . S
C865 O875 1.265 . S
O866 C865 1.227 . S
N867 Co864 2.121 . S
N867 C869 1.375 . S
N867 C870 1.313 . S
C868 C869 1.338 . S
C868 N871 1.377 . S
C868 H888 0.930 . S
C869 N867 1.375 . S
C869 C868 1.338 . S
C869 H873 0.931 . S
C870 N867 1.313 . S
C870 N871 1.344 . S
C870 H874 0.930 . S
N871 C868 1.377 . S
N871 C870 1.344 . S
O872 Co864 2.055 . S
O872 C876 1.253 . S
H873 C869 0.931 . S
H874 C870 0.930 . S
O875 Co864 2.039 . S
O875 C865 1.265 . S
C876 O872 1.253 . S
C876 O877 1.227 . S
O877 C876 1.227 . S
N878 Co864 2.140 . S
N878 C881 1.346 . S
N878 C882 1.345 . S
C879 C880 1.387 . S
C879 C883 1.391 . S
C880 C879 1.387 . S
C880 C881 1.369 . S
C880 H889 0.929 . S
C881 N878 1.346 . S
C881 C880 1.369 . S
C881 H884 0.928 . S
C882 N878 1.345 . S
C882 C883 1.371 . S
C882 H885 0.931 . S
C883 C879 1.391 . S
C883 C882 1.371 . S
C883 H890 0.930 . S
H884 C881 0.928 . S
H885 C882 0.931 . S
H886 C862 0.930 . S
H887 C859 0.930 . S
H888 C868 0.930 . S
H889 C880 0.929 . S
H890 C883 0.930 . S
C891 C892 1.351 . S
C891 N894 1.368 . S
C891 H896 0.931 . S
C892 C891 1.351 . S
C892 N893 1.373 . S
C892 H920 0.930 1_554 S
N893 C892 1.373 . S
N893 C895 1.340 . S
N894 C891 1.368 . S
N894 C895 1.321 . S
N894 Co897 2.135 . S
C895 N893 1.340 . S
C895 N894 1.321 . S
C895 H919 0.930 . S
H896 C891 0.931 . S
Co897 N894 2.135 . S
Co897 N900 2.121 . S
Co897 O905 2.055 . S
Co897 O908 2.039 . S
Co897 N911 2.140 . S
C898 O899 1.227 . S
C898 O908 1.265 . S
O899 C898 1.227 . S
N900 Co897 2.121 . S
N900 C902 1.375 . S
N900 C903 1.313 . S
C901 C902 1.338 . S
C901 N904 1.377 . S
C901 H921 0.930 . S
C902 N900 1.375 . S
C902 C901 1.338 . S
C902 H906 0.931 . S
C903 N900 1.313 . S
C903 N904 1.344 . S
C903 H907 0.930 . S
N904 C901 1.377 . S
N904 C903 1.344 . S
O905 Co897 2.055 . S
O905 C909 1.253 . S
H906 C902 0.931 . S
H907 C903 0.930 . S
O908 Co897 2.039 . S
O908 C898 1.265 . S
C909 O905 1.253 . S
C909 O910 1.227 . S
O910 C909 1.227 . S
N911 Co897 2.140 . S
N911 C914 1.346 . S
N911 C915 1.345 . S
C912 C913 1.387 . S
C912 C916 1.391 . S
C913 C912 1.387 . S
C913 C914 1.369 . S
C913 H922 0.929 . S
C914 N911 1.346 . S
C914 C913 1.369 . S
C914 H917 0.928 . S
C915 N911 1.345 . S
C915 C916 1.371 . S
C915 H918 0.931 . S
C916 C912 1.391 . S
C916 C915 1.371 . S
C916 H923 0.930 . S
H917 C914 0.928 . S
H918 C915 0.931 . S
H919 C895 0.930 . S
H920 C892 0.930 1_556 S
H921 C901 0.930 . S
H922 C913 0.929 . S
H923 C916 0.930 . S
C924 C925 1.351 . S
C924 N927 1.368 . S
C924 H929 0.931 . S
C925 C924 1.351 . S
C925 N926 1.373 . S
C925 H953 0.930 1_554 S
N926 C925 1.373 . S
N926 C928 1.340 . S
N927 C924 1.368 . S
N927 C928 1.321 . S
N927 Co930 2.135 . S
C928 N926 1.340 . S
C928 N927 1.321 . S
C928 H952 0.930 . S
H929 C924 0.931 . S
Co930 N927 2.135 . S
Co930 N933 2.121 . S
Co930 O938 2.055 . S
Co930 O941 2.039 . S
Co930 N944 2.140 . S
C931 O932 1.227 . S
C931 O941 1.265 . S
O932 C931 1.227 . S
N933 Co930 2.121 . S
N933 C935 1.375 . S
N933 C936 1.313 . S
C934 C935 1.338 . S
C934 N937 1.377 . S
C934 H954 0.930 . S
C935 N933 1.375 . S
C935 C934 1.338 . S
C935 H939 0.931 . S
C936 N933 1.313 . S
C936 N937 1.344 . S
C936 H940 0.930 . S
N937 C934 1.377 . S
N937 C936 1.344 . S
O938 Co930 2.055 . S
O938 C942 1.253 . S
H939 C935 0.931 . S
H940 C936 0.930 . S
O941 Co930 2.039 . S
O941 C931 1.265 . S
C942 O938 1.253 . S
C942 O943 1.227 . S
O943 C942 1.227 . S
N944 Co930 2.140 . S
N944 C947 1.346 . S
N944 C948 1.345 . S
C945 C946 1.387 . S
C945 C949 1.391 . S
C946 C945 1.387 . S
C946 C947 1.369 . S
C946 H955 0.929 . S
C947 N944 1.346 . S
C947 C946 1.369 . S
C947 H950 0.928 . S
C948 N944 1.345 . S
C948 C949 1.371 . S
C948 H951 0.931 . S
C949 C945 1.391 . S
C949 C948 1.371 . S
C949 H956 0.930 . S
H950 C947 0.928 . S
H951 C948 0.931 . S
H952 C928 0.930 . S
H953 C925 0.930 1_556 S
H954 C934 0.930 . S
H955 C946 0.929 . S
H956 C949 0.930 . S
C957 C958 1.351 . S
C957 N960 1.368 . S
C957 H962 0.931 . S
C958 C957 1.351 . S
C958 N959 1.373 . S
C958 H986 0.930 1_554 S
N959 C958 1.373 . S
N959 C961 1.340 . S
N960 C957 1.368 . S
N960 C961 1.321 . S
N960 Co963 2.135 . S
C961 N959 1.340 . S
C961 N960 1.321 . S
C961 H985 0.930 . S
H962 C957 0.931 . S
Co963 N960 2.135 . S
Co963 N966 2.121 . S
Co963 O971 2.055 . S
Co963 O974 2.039 . S
Co963 N977 2.140 . S
C964 O965 1.227 . S
C964 O974 1.265 . S
O965 C964 1.227 . S
N966 Co963 2.121 . S
N966 C968 1.375 . S
N966 C969 1.313 . S
C967 C968 1.338 . S
C967 N970 1.377 . S
C967 H987 0.930 . S
C968 N966 1.375 . S
C968 C967 1.338 . S
C968 H972 0.931 . S
C969 N966 1.313 . S
C969 N970 1.344 . S
C969 H973 0.930 . S
N970 C967 1.377 . S
N970 C969 1.344 . S
O971 Co963 2.055 . S
O971 C975 1.253 . S
H972 C968 0.931 . S
H973 C969 0.930 . S
O974 Co963 2.039 . S
O974 C964 1.265 . S
C975 O971 1.253 . S
C975 O976 1.227 . S
O976 C975 1.227 . S
N977 Co963 2.140 . S
N977 C980 1.346 . S
N977 C981 1.345 . S
C978 C979 1.387 . S
C978 C982 1.391 . S
C979 C978 1.387 . S
C979 C980 1.369 . S
C979 H988 0.929 . S
C980 N977 1.346 . S
C980 C979 1.369 . S
C980 H983 0.928 . S
C981 N977 1.345 . S
C981 C982 1.371 . S
C981 H984 0.931 . S
C982 C978 1.391 . S
C982 C981 1.371 . S
C982 H989 0.930 . S
H983 C980 0.928 . S
H984 C981 0.931 . S
H985 C961 0.930 . S
H986 C958 0.930 1_556 S
H987 C967 0.930 . S
H988 C979 0.929 . S
H989 C982 0.930 . S
C990 C991 1.351 . S
C990 N993 1.368 . S
C990 H995 0.931 . S
C991 C990 1.351 . S
C991 N992 1.373 . S
C991 H1019 0.930 . S
N992 C991 1.373 . S
N992 C994 1.340 . S
N993 C990 1.368 . S
N993 C994 1.321 . S
N993 Co996 2.135 . S
C994 N992 1.340 . S
C994 N993 1.321 . S
C994 H1018 0.930 . S
H995 C990 0.931 . S
Co996 N993 2.135 . S
Co996 N999 2.121 . S
Co996 O1004 2.055 . S
Co996 O1007 2.039 . S
Co996 N1010 2.140 . S
C997 O998 1.227 . S
C997 O1007 1.265 . S
O998 C997 1.227 . S
N999 Co996 2.121 . S
N999 C1001 1.375 . S
N999 C1002 1.313 . S
C1000 C1001 1.338 . S
C1000 N1003 1.377 . S
C1000 H1020 0.930 . S
C1001 N999 1.375 . S
C1001 C1000 1.338 . S
C1001 H1005 0.931 . S
C1002 N999 1.313 . S
C1002 N1003 1.344 . S
C1002 H1006 0.930 . S
N1003 C1000 1.377 . S
N1003 C1002 1.344 . S
O1004 Co996 2.055 . S
O1004 C1008 1.253 . S
H1005 C1001 0.931 . S
H1006 C1002 0.930 . S
O1007 Co996 2.039 . S
O1007 C997 1.265 . S
C1008 O1004 1.253 . S
C1008 O1009 1.227 . S
O1009 C1008 1.227 . S
N1010 Co996 2.140 . S
N1010 C1013 1.346 . S
N1010 C1014 1.345 . S
C1011 C1012 1.387 . S
C1011 C1015 1.391 . S
C1012 C1011 1.387 . S
C1012 C1013 1.369 . S
C1012 H1021 0.929 . S
C1013 N1010 1.346 . S
C1013 C1012 1.369 . S
C1013 H1016 0.928 . S
C1014 N1010 1.345 . S
C1014 C1015 1.371 . S
C1014 H1017 0.931 . S
C1015 C1011 1.391 . S
C1015 C1014 1.371 . S
C1015 H1022 0.930 . S
H1016 C1013 0.928 . S
H1017 C1014 0.931 . S
H1018 C994 0.930 . S
H1019 C991 0.930 . S
H1020 C1000 0.930 . S
H1021 C1012 0.929 . S
H1022 C1015 0.930 . S
C1023 C1024 1.351 . S
C1023 N1026 1.368 . S
C1023 H1028 0.931 . S
C1024 C1023 1.351 . S
C1024 N1025 1.373 . S
C1024 H1052 0.930 . S
N1025 C1024 1.373 . S
N1025 C1027 1.340 . S
N1026 C1023 1.368 . S
N1026 C1027 1.321 . S
N1026 Co1029 2.135 . S
C1027 N1025 1.340 . S
C1027 N1026 1.321 . S
C1027 H1051 0.930 . S
H1028 C1023 0.931 . S
Co1029 N1026 2.135 . S
Co1029 N1032 2.121 . S
Co1029 O1037 2.055 . S
Co1029 O1040 2.039 . S
Co1029 N1043 2.140 . S
C1030 O1031 1.227 . S
C1030 O1040 1.265 . S
O1031 C1030 1.227 . S
N1032 Co1029 2.121 . S
N1032 C1034 1.375 . S
N1032 C1035 1.313 . S
C1033 C1034 1.338 . S
C1033 N1036 1.377 . S
C1033 H1053 0.930 . S
C1034 N1032 1.375 . S
C1034 C1033 1.338 . S
C1034 H1038 0.931 . S
C1035 N1032 1.313 . S
C1035 N1036 1.344 . S
C1035 H1039 0.930 . S
N1036 C1033 1.377 . S
N1036 C1035 1.344 . S
O1037 Co1029 2.055 . S
O1037 C1041 1.253 . S
H1038 C1034 0.931 . S
H1039 C1035 0.930 . S
O1040 Co1029 2.039 . S
O1040 C1030 1.265 . S
C1041 O1037 1.253 . S
C1041 O1042 1.227 . S
O1042 C1041 1.227 . S
N1043 Co1029 2.140 . S
N1043 C1046 1.346 . S
N1043 C1047 1.345 . S
C1044 C1045 1.387 . S
C1044 C1048 1.391 . S
C1045 C1044 1.387 . S
C1045 C1046 1.369 . S
C1045 H1054 0.929 . S
C1046 N1043 1.346 . S
C1046 C1045 1.369 . S
C1046 H1049 0.928 . S
C1047 N1043 1.345 . S
C1047 C1048 1.371 . S
C1047 H1050 0.931 . S
C1048 C1044 1.391 . S
C1048 C1047 1.371 . S
C1048 H1055 0.930 . S
H1049 C1046 0.928 . S
H1050 C1047 0.931 . S
H1051 C1027 0.930 . S
H1052 C1024 0.930 . S
H1053 C1033 0.930 . S
H1054 C1045 0.929 . S
H1055 C1048 0.930 . S
C1056 C1057 1.351 . S
C1056 N1059 1.368 . S
C1056 H1061 0.931 . S
C1057 C1056 1.351 . S
C1057 N1058 1.373 . S
C1057 H1085 0.930 . S
N1058 C1057 1.373 . S
N1058 C1060 1.340 . S
N1059 C1056 1.368 . S
N1059 C1060 1.321 . S
N1059 Co1062 2.135 . S
C1060 N1058 1.340 . S
C1060 N1059 1.321 . S
C1060 H1084 0.930 . S
H1061 C1056 0.931 . S
Co1062 N1059 2.135 . S
Co1062 N1065 2.121 . S
Co1062 O1070 2.055 . S
Co1062 O1073 2.039 . S
Co1062 N1076 2.140 . S
C1063 O1064 1.227 . S
C1063 O1073 1.265 . S
O1064 C1063 1.227 . S
N1065 Co1062 2.121 . S
N1065 C1067 1.375 . S
N1065 C1068 1.313 . S
C1066 C1067 1.338 . S
C1066 N1069 1.377 . S
C1066 H1086 0.930 . S
C1067 N1065 1.375 . S
C1067 C1066 1.338 . S
C1067 H1071 0.931 . S
C1068 N1065 1.313 . S
C1068 N1069 1.344 . S
C1068 H1072 0.930 . S
N1069 C1066 1.377 . S
N1069 C1068 1.344 . S
O1070 Co1062 2.055 . S
O1070 C1074 1.253 . S
H1071 C1067 0.931 . S
H1072 C1068 0.930 . S
O1073 Co1062 2.039 . S
O1073 C1063 1.265 . S
C1074 O1070 1.253 . S
C1074 O1075 1.227 . S
O1075 C1074 1.227 . S
N1076 Co1062 2.140 . S
N1076 C1079 1.346 . S
N1076 C1080 1.345 . S
C1077 C1078 1.387 . S
C1077 C1081 1.391 . S
C1078 C1077 1.387 . S
C1078 C1079 1.369 . S
C1078 H1087 0.929 . S
C1079 N1076 1.346 . S
C1079 C1078 1.369 . S
C1079 H1082 0.928 . S
C1080 N1076 1.345 . S
C1080 C1081 1.371 . S
C1080 H1083 0.931 . S
C1081 C1077 1.391 . S
C1081 C1080 1.371 . S
C1081 H1088 0.930 . S
H1082 C1079 0.928 . S
H1083 C1080 0.931 . S
H1084 C1060 0.930 . S
H1085 C1057 0.930 . S
H1086 C1066 0.930 . S
H1087 C1078 0.929 . S
H1088 C1081 0.930 . S
C1089 C1090 1.351 1_554 S
C1089 N1092 1.368 . S
C1089 H1094 0.931 . S
C1090 C1089 1.351 1_556 S
C1090 N1091 1.373 1_556 S
C1090 H1118 0.930 . S
N1091 C1090 1.373 1_554 S
N1091 C1093 1.340 . S
N1092 C1089 1.368 . S
N1092 C1093 1.321 . S
N1092 Co1095 2.135 . S
C1093 N1091 1.340 . S
C1093 N1092 1.321 . S
C1093 H1117 0.930 . S
H1094 C1089 0.931 . S
Co1095 N1092 2.135 . S
Co1095 N1098 2.121 . S
Co1095 O1103 2.055 . S
Co1095 O1106 2.039 . S
Co1095 N1109 2.140 . S
C1096 O1097 1.227 . S
C1096 O1106 1.265 . S
O1097 C1096 1.227 . S
N1098 Co1095 2.121 . S
N1098 C1100 1.375 . S
N1098 C1101 1.313 . S
C1099 C1100 1.338 . S
C1099 N1102 1.377 . S
C1099 H1119 0.930 . S
C1100 N1098 1.375 . S
C1100 C1099 1.338 . S
C1100 H1104 0.931 . S
C1101 N1098 1.313 . S
C1101 N1102 1.344 . S
C1101 H1105 0.930 . S
N1102 C1099 1.377 . S
N1102 C1101 1.344 . S
O1103 Co1095 2.055 . S
O1103 C1107 1.253 . S
H1104 C1100 0.931 . S
H1105 C1101 0.930 . S
O1106 Co1095 2.039 . S
O1106 C1096 1.265 . S
C1107 O1103 1.253 . S
C1107 O1108 1.227 . S
O1108 C1107 1.227 . S
N1109 Co1095 2.140 . S
N1109 C1112 1.346 . S
N1109 C1113 1.345 . S
C1110 C1111 1.387 . S
C1110 C1114 1.391 . S
C1111 C1110 1.387 . S
C1111 C1112 1.369 . S
C1111 H1120 0.929 . S
C1112 N1109 1.346 . S
C1112 C1111 1.369 . S
C1112 H1115 0.928 . S
C1113 N1109 1.345 . S
C1113 C1114 1.371 . S
C1113 H1116 0.931 . S
C1114 C1110 1.391 . S
C1114 C1113 1.371 . S
C1114 H1121 0.930 . S
H1115 C1112 0.928 . S
H1116 C1113 0.931 . S
H1117 C1093 0.930 . S
H1118 C1090 0.930 . S
H1119 C1099 0.930 . S
H1120 C1111 0.929 . S
H1121 C1114 0.930 . S
C1122 C1123 1.351 1_554 S
C1122 N1125 1.368 . S
C1122 H1127 0.931 . S
C1123 C1122 1.351 1_556 S
C1123 N1124 1.373 1_556 S
C1123 H1151 0.930 . S
N1124 C1123 1.373 1_554 S
N1124 C1126 1.340 . S
N1125 C1122 1.368 . S
N1125 C1126 1.321 . S
N1125 Co1128 2.135 . S
C1126 N1124 1.340 . S
C1126 N1125 1.321 . S
C1126 H1150 0.930 . S
H1127 C1122 0.931 . S
Co1128 N1125 2.135 . S
Co1128 N1131 2.121 . S
Co1128 O1136 2.055 . S
Co1128 O1139 2.039 . S
Co1128 N1142 2.140 . S
C1129 O1130 1.227 . S
C1129 O1139 1.265 . S
O1130 C1129 1.227 . S
N1131 Co1128 2.121 . S
N1131 C1133 1.375 . S
N1131 C1134 1.313 . S
C1132 C1133 1.338 . S
C1132 N1135 1.377 . S
C1132 H1152 0.930 . S
C1133 N1131 1.375 . S
C1133 C1132 1.338 . S
C1133 H1137 0.931 . S
C1134 N1131 1.313 . S
C1134 N1135 1.344 . S
C1134 H1138 0.930 . S
N1135 C1132 1.377 . S
N1135 C1134 1.344 . S
O1136 Co1128 2.055 . S
O1136 C1140 1.253 . S
H1137 C1133 0.931 . S
H1138 C1134 0.930 . S
O1139 Co1128 2.039 . S
O1139 C1129 1.265 . S
C1140 O1136 1.253 . S
C1140 O1141 1.227 . S
O1141 C1140 1.227 . S
N1142 Co1128 2.140 . S
N1142 C1145 1.346 . S
N1142 C1146 1.345 . S
C1143 C1144 1.387 . S
C1143 C1147 1.391 . S
C1144 C1143 1.387 . S
C1144 C1145 1.369 . S
C1144 H1153 0.929 . S
C1145 N1142 1.346 . S
C1145 C1144 1.369 . S
C1145 H1148 0.928 . S
C1146 N1142 1.345 . S
C1146 C1147 1.371 . S
C1146 H1149 0.931 . S
C1147 C1143 1.391 . S
C1147 C1146 1.371 . S
C1147 H1154 0.930 . S
H1148 C1145 0.928 . S
H1149 C1146 0.931 . S
H1150 C1126 0.930 . S
H1151 C1123 0.930 . S
H1152 C1132 0.930 . S
H1153 C1144 0.929 . S
H1154 C1147 0.930 . S
C1155 C1156 1.351 1_554 S
C1155 N1158 1.368 . S
C1155 H1160 0.931 . S
C1156 C1155 1.351 1_556 S
C1156 N1157 1.373 1_556 S
C1156 H1184 0.930 . S
N1157 C1156 1.373 1_554 S
N1157 C1159 1.340 . S
N1158 C1155 1.368 . S
N1158 C1159 1.321 . S
N1158 Co1161 2.135 . S
C1159 N1157 1.340 . S
C1159 N1158 1.321 . S
C1159 H1183 0.930 . S
H1160 C1155 0.931 . S
Co1161 N1158 2.135 . S
Co1161 N1164 2.121 . S
Co1161 O1169 2.055 . S
Co1161 O1172 2.039 . S
Co1161 N1175 2.140 . S
C1162 O1163 1.227 . S
C1162 O1172 1.265 . S
O1163 C1162 1.227 . S
N1164 Co1161 2.121 . S
N1164 C1166 1.375 . S
N1164 C1167 1.313 . S
C1165 C1166 1.338 . S
C1165 N1168 1.377 . S
C1165 H1185 0.930 . S
C1166 N1164 1.375 . S
C1166 C1165 1.338 . S
C1166 H1170 0.931 . S
C1167 N1164 1.313 . S
C1167 N1168 1.344 . S
C1167 H1171 0.930 . S
N1168 C1165 1.377 . S
N1168 C1167 1.344 . S
O1169 Co1161 2.055 . S
O1169 C1173 1.253 . S
H1170 C1166 0.931 . S
H1171 C1167 0.930 . S
O1172 Co1161 2.039 . S
O1172 C1162 1.265 . S
C1173 O1169 1.253 . S
C1173 O1174 1.227 . S
O1174 C1173 1.227 . S
N1175 Co1161 2.140 . S
N1175 C1178 1.346 . S
N1175 C1179 1.345 . S
C1176 C1177 1.387 . S
C1176 C1180 1.391 . S
C1177 C1176 1.387 . S
C1177 C1178 1.369 . S
C1177 H1186 0.929 . S
C1178 N1175 1.346 . S
C1178 C1177 1.369 . S
C1178 H1181 0.928 . S
C1179 N1175 1.345 . S
C1179 C1180 1.371 . S
C1179 H1182 0.931 . S
C1180 C1176 1.391 . S
C1180 C1179 1.371 . S
C1180 H1187 0.930 . S
H1181 C1178 0.928 . S
H1182 C1179 0.931 . S
H1183 C1159 0.930 . S
H1184 C1156 0.930 . S
H1185 C1165 0.930 . S
H1186 C1177 0.929 . S
H1187 C1180 0.930 . S
H1188 C1194 0.930 . S
H1189 C1197 0.930 . S
H1190 C1198 0.930 . S
H1191 C1199 0.930 . S
H1192 C1202 0.930 . S
H1193 C1203 0.930 . S
C1194 H1188 0.930 . S
C1194 C1195 1.355 . S
C1194 C1196 1.415 . S
C1195 C1194 1.355 . S
C1195 C1197 1.419 . S
C1196 C1194 1.415 . S
C1196 C1201 1.425 . S
C1196 C1203 1.409 . S
C1197 H1189 0.930 . S
C1197 C1195 1.419 . S
C1197 C1198 1.362 . S
C1198 H1190 0.930 . S
C1198 C1197 1.362 . S
C1198 C1201 1.409 . S
C1199 H1191 0.930 . S
C1199 C1200 1.355 . S
C1199 C1201 1.415 . S
C1200 C1199 1.355 . S
C1200 C1202 1.419 . S
C1201 C1196 1.425 . S
C1201 C1198 1.409 . S
C1201 C1199 1.415 . S
C1202 H1192 0.930 . S
C1202 C1200 1.419 . S
C1202 C1203 1.362 . S
C1203 H1193 0.930 . S
C1203 C1196 1.409 . S
C1203 C1202 1.362 . S
H1204 C1210 0.930 . S
H1205 C1213 0.930 . S
H1206 C1214 0.930 . S
H1207 C1215 0.930 . S
H1208 C1218 0.930 . S
H1209 C1219 0.930 . S
C1210 H1204 0.930 . S
C1210 C1211 1.355 . S
C1210 C1212 1.415 . S
C1211 C1210 1.355 . S
C1211 C1213 1.419 . S
C1212 C1210 1.415 . S
C1212 C1217 1.425 . S
C1212 C1219 1.409 . S
C1213 H1205 0.930 . S
C1213 C1211 1.419 . S
C1213 C1214 1.362 . S
C1214 H1206 0.930 . S
C1214 C1213 1.362 . S
C1214 C1217 1.409 . S
C1215 H1207 0.930 . S
C1215 C1216 1.355 . S
C1215 C1217 1.415 . S
C1216 C1215 1.355 . S
C1216 C1218 1.419 . S
C1217 C1212 1.425 . S
C1217 C1214 1.409 . S
C1217 C1215 1.415 . S
C1218 H1208 0.930 . S
C1218 C1216 1.419 . S
C1218 C1219 1.362 . S
C1219 H1209 0.930 . S
C1219 C1212 1.409 . S
C1219 C1218 1.362 . S
H1220 C1226 0.930 . S
H1221 C1229 0.930 . S
H1222 C1230 0.930 . S
H1223 C1231 0.930 . S
H1224 C1234 0.930 . S
H1225 C1235 0.930 . S
C1226 H1220 0.930 . S
C1226 C1227 1.355 . S
C1226 C1228 1.415 . S
C1227 C1226 1.355 . S
C1227 C1229 1.419 . S
C1228 C1226 1.415 . S
C1228 C1233 1.425 . S
C1228 C1235 1.409 . S
C1229 H1221 0.930 . S
C1229 C1227 1.419 . S
C1229 C1230 1.362 . S
C1230 H1222 0.930 . S
C1230 C1229 1.362 . S
C1230 C1233 1.409 . S
C1231 H1223 0.930 . S
C1231 C1232 1.355 . S
C1231 C1233 1.415 . S
C1232 C1231 1.355 . S
C1232 C1234 1.419 . S
C1233 C1228 1.425 . S
C1233 C1230 1.409 . S
C1233 C1231 1.415 . S
C1234 H1224 0.930 . S
C1234 C1232 1.419 . S
C1234 C1235 1.362 . S
C1235 H1225 0.930 . S
C1235 C1228 1.409 . S
C1235 C1234 1.362 . S
H1236 C1242 0.930 . S
H1237 C1245 0.930 . S
H1238 C1246 0.930 . S
H1239 C1247 0.930 . S
H1240 C1250 0.930 . S
H1241 C1251 0.930 . S
C1242 H1236 0.930 . S
C1242 C1243 1.355 . S
C1242 C1244 1.415 . S
C1243 C1242 1.355 . S
C1243 C1245 1.419 . S
C1244 C1242 1.415 . S
C1244 C1249 1.425 . S
C1244 C1251 1.409 . S
C1245 H1237 0.930 . S
C1245 C1243 1.419 . S
C1245 C1246 1.362 . S
C1246 H1238 0.930 . S
C1246 C1245 1.362 . S
C1246 C1249 1.409 . S
C1247 H1239 0.930 . S
C1247 C1248 1.355 . S
C1247 C1249 1.415 . S
C1248 C1247 1.355 . S
C1248 C1250 1.419 . S
C1249 C1244 1.425 . S
C1249 C1246 1.409 . S
C1249 C1247 1.415 . S
C1250 H1240 0.930 . S
C1250 C1248 1.419 . S
C1250 C1251 1.362 . S
C1251 H1241 0.930 . S
C1251 C1244 1.409 . S
C1251 C1250 1.362 . S
H1252 C1258 0.930 . S
H1253 C1261 0.930 . S
H1254 C1262 0.930 . S
H1255 C1263 0.930 . S
H1256 C1266 0.930 . S
H1257 C1267 0.930 . S
C1258 H1252 0.930 . S
C1258 C1259 1.355 . S
C1258 C1260 1.415 . S
C1259 C1258 1.355 . S
C1259 C1261 1.419 . S
C1260 C1258 1.415 . S
C1260 C1265 1.425 . S
C1260 C1267 1.409 . S
C1261 H1253 0.930 . S
C1261 C1259 1.419 . S
C1261 C1262 1.362 . S
C1262 H1254 0.930 . S
C1262 C1261 1.362 . S
C1262 C1265 1.409 . S
C1263 H1255 0.930 . S
C1263 C1264 1.355 . S
C1263 C1265 1.415 . S
C1264 C1263 1.355 . S
C1264 C1266 1.419 . S
C1265 C1260 1.425 . S
C1265 C1262 1.409 . S
C1265 C1263 1.415 . S
C1266 H1256 0.930 . S
C1266 C1264 1.419 . S
C1266 C1267 1.362 . S
C1267 H1257 0.930 . S
C1267 C1260 1.409 . S
C1267 C1266 1.362 . S
H1268 C1274 0.930 . S
H1269 C1277 0.930 . S
H1270 C1278 0.930 . S
H1271 C1279 0.930 . S
H1272 C1282 0.930 . S
H1273 C1283 0.930 . S
C1274 H1268 0.930 . S
C1274 C1275 1.355 . S
C1274 C1276 1.415 . S
C1275 C1274 1.355 . S
C1275 C1277 1.419 . S
C1276 C1274 1.415 . S
C1276 C1281 1.425 . S
C1276 C1283 1.409 . S
C1277 H1269 0.930 . S
C1277 C1275 1.419 . S
C1277 C1278 1.362 . S
C1278 H1270 0.930 . S
C1278 C1277 1.362 . S
C1278 C1281 1.409 . S
C1279 H1271 0.930 . S
C1279 C1280 1.355 . S
C1279 C1281 1.415 . S
C1280 C1279 1.355 . S
C1280 C1282 1.419 . S
C1281 C1276 1.425 . S
C1281 C1278 1.409 . S
C1281 C1279 1.415 . S
C1282 H1272 0.930 . S
C1282 C1280 1.419 . S
C1282 C1283 1.362 . S
C1283 H1273 0.930 . S
C1283 C1276 1.409 . S
C1283 C1282 1.362 . S
H1284 C1290 0.930 . S
H1285 C1293 0.930 . S
H1286 C1294 0.930 . S
H1287 C1295 0.930 . S
H1288 C1298 0.930 . S
H1289 C1299 0.930 . S
C1290 H1284 0.930 . S
C1290 C1291 1.355 . S
C1290 C1292 1.415 . S
C1291 C1290 1.355 . S
C1291 C1293 1.419 . S
C1292 C1290 1.415 . S
C1292 C1297 1.425 . S
C1292 C1299 1.409 . S
C1293 H1285 0.930 . S
C1293 C1291 1.419 . S
C1293 C1294 1.362 . S
C1294 H1286 0.930 . S
C1294 C1293 1.362 . S
C1294 C1297 1.409 . S
C1295 H1287 0.930 . S
C1295 C1296 1.355 . S
C1295 C1297 1.415 . S
C1296 C1295 1.355 . S
C1296 C1298 1.419 . S
C1297 C1292 1.425 . S
C1297 C1294 1.409 . S
C1297 C1295 1.415 . S
C1298 H1288 0.930 . S
C1298 C1296 1.419 . S
C1298 C1299 1.362 . S
C1299 H1289 0.930 . S
C1299 C1292 1.409 . S
C1299 C1298 1.362 . S
H1300 C1306 0.930 . S
H1301 C1309 0.930 . S
H1302 C1310 0.930 . S
H1303 C1311 0.930 . S
H1304 C1314 0.930 . S
H1305 C1315 0.930 . S
C1306 H1300 0.930 . S
C1306 C1307 1.355 . S
C1306 C1308 1.415 . S
C1307 C1306 1.355 . S
C1307 C1309 1.419 . S
C1308 C1306 1.415 . S
C1308 C1313 1.425 . S
C1308 C1315 1.409 . S
C1309 H1301 0.930 . S
C1309 C1307 1.419 . S
C1309 C1310 1.362 . S
C1310 H1302 0.930 . S
C1310 C1309 1.362 . S
C1310 C1313 1.409 . S
C1311 H1303 0.930 . S
C1311 C1312 1.355 . S
C1311 C1313 1.415 . S
C1312 C1311 1.355 . S
C1312 C1314 1.419 . S
C1313 C1308 1.425 . S
C1313 C1310 1.409 . S
C1313 C1311 1.415 . S
C1314 H1304 0.930 . S
C1314 C1312 1.419 . S
C1314 C1315 1.362 . S
C1315 H1305 0.930 . S
C1315 C1308 1.409 . S
C1315 C1314 1.362 . S
H1316 C1322 0.930 . S
H1317 C1325 0.930 . S
H1318 C1326 0.930 . S
H1319 C1327 0.930 . S
H1320 C1330 0.930 . S
H1321 C1331 0.930 . S
C1322 H1316 0.930 . S
C1322 C1323 1.355 . S
C1322 C1324 1.415 . S
C1323 C1322 1.355 . S
C1323 C1325 1.419 . S
C1324 C1322 1.415 . S
C1324 C1329 1.425 . S
C1324 C1331 1.409 . S
C1325 H1317 0.930 . S
C1325 C1323 1.419 . S
C1325 C1326 1.362 . S
C1326 H1318 0.930 . S
C1326 C1325 1.362 . S
C1326 C1329 1.409 . S
C1327 H1319 0.930 . S
C1327 C1328 1.355 . S
C1327 C1329 1.415 . S
C1328 C1327 1.355 . S
C1328 C1330 1.419 . S
C1329 C1324 1.425 . S
C1329 C1326 1.409 . S
C1329 C1327 1.415 . S
C1330 H1320 0.930 . S
C1330 C1328 1.419 . S
C1330 C1331 1.362 . S
C1331 H1321 0.930 . S
C1331 C1324 1.409 . S
C1331 C1330 1.362 . S
H1332 C1338 0.930 . S
H1333 C1341 0.930 . S
H1334 C1342 0.930 . S
H1335 C1343 0.930 . S
H1336 C1346 0.930 . S
H1337 C1347 0.930 . S
C1338 H1332 0.930 . S
C1338 C1339 1.355 . S
C1338 C1340 1.415 . S
C1339 C1338 1.355 . S
C1339 C1341 1.419 . S
C1340 C1338 1.415 . S
C1340 C1345 1.425 . S
C1340 C1347 1.409 . S
C1341 H1333 0.930 . S
C1341 C1339 1.419 . S
C1341 C1342 1.362 . S
C1342 H1334 0.930 . S
C1342 C1341 1.362 . S
C1342 C1345 1.409 . S
C1343 H1335 0.930 . S
C1343 C1344 1.355 . S
C1343 C1345 1.415 . S
C1344 C1343 1.355 . S
C1344 C1346 1.419 . S
C1345 C1340 1.425 . S
C1345 C1342 1.409 . S
C1345 C1343 1.415 . S
C1346 H1336 0.930 . S
C1346 C1344 1.419 . S
C1346 C1347 1.362 . S
C1347 H1337 0.930 . S
C1347 C1340 1.409 . S
C1347 C1346 1.362 . S
H1348 C1354 0.930 . S
H1349 C1357 0.930 . S
H1350 C1358 0.930 . S
H1351 C1359 0.930 . S
H1352 C1362 0.930 . S
H1353 C1363 0.930 . S
C1354 H1348 0.930 . S
C1354 C1355 1.355 . S
C1354 C1356 1.415 . S
C1355 C1354 1.355 . S
C1355 C1357 1.419 . S
C1356 C1354 1.415 . S
C1356 C1361 1.425 . S
C1356 C1363 1.409 . S
C1357 H1349 0.930 . S
C1357 C1355 1.419 . S
C1357 C1358 1.362 . S
C1358 H1350 0.930 . S
C1358 C1357 1.362 . S
C1358 C1361 1.409 . S
C1359 H1351 0.930 . S
C1359 C1360 1.355 . S
C1359 C1361 1.415 . S
C1360 C1359 1.355 . S
C1360 C1362 1.419 . S
C1361 C1356 1.425 . S
C1361 C1358 1.409 . S
C1361 C1359 1.415 . S
C1362 H1352 0.930 . S
C1362 C1360 1.419 . S
C1362 C1363 1.362 . S
C1363 H1353 0.930 . S
C1363 C1356 1.409 . S
C1363 C1362 1.362 . S
H1364 C1370 0.930 . S
H1365 C1373 0.930 . S
H1366 C1374 0.930 . S
H1367 C1375 0.930 . S
H1368 C1378 0.930 . S
H1369 C1379 0.930 . S
C1370 H1364 0.930 . S
C1370 C1371 1.355 . S
C1370 C1372 1.415 . S
C1371 C1370 1.355 . S
C1371 C1373 1.419 . S
C1372 C1370 1.415 . S
C1372 C1377 1.425 . S
C1372 C1379 1.409 . S
C1373 H1365 0.930 . S
C1373 C1371 1.419 . S
C1373 C1374 1.362 . S
C1374 H1366 0.930 . S
C1374 C1373 1.362 . S
C1374 C1377 1.409 . S
C1375 H1367 0.930 . S
C1375 C1376 1.355 . S
C1375 C1377 1.415 . S
C1376 C1375 1.355 . S
C1376 C1378 1.419 . S
C1377 C1372 1.425 . S
C1377 C1374 1.409 . S
C1377 C1375 1.415 . S
C1378 H1368 0.930 . S
C1378 C1376 1.419 . S
C1378 C1379 1.362 . S
C1379 H1369 0.930 . S
C1379 C1372 1.409 . S
C1379 C1378 1.362 . S
H1380 C1386 0.930 . S
H1381 C1389 0.930 . S
H1382 C1390 0.930 1_556 S
H1383 C1391 0.930 . S
H1384 C1394 0.930 . S
H1385 C1395 0.930 . S
C1386 H1380 0.930 . S
C1386 C1387 1.355 . S
C1386 C1388 1.415 . S
C1387 C1386 1.355 . S
C1387 C1389 1.419 1_554 S
C1388 C1386 1.415 . S
C1388 C1393 1.425 . S
C1388 C1395 1.409 . S
C1389 H1381 0.930 . S
C1389 C1387 1.419 1_556 S
C1389 C1390 1.362 1_556 S
C1390 H1382 0.930 1_554 S
C1390 C1389 1.362 1_554 S
C1390 C1393 1.409 . S
C1391 H1383 0.930 . S
C1391 C1392 1.355 . S
C1391 C1393 1.415 . S
C1392 C1391 1.355 . S
C1392 C1394 1.419 . S
C1393 C1388 1.425 . S
C1393 C1390 1.409 . S
C1393 C1391 1.415 . S
C1394 H1384 0.930 . S
C1394 C1392 1.419 . S
C1394 C1395 1.362 . S
C1395 H1385 0.930 . S
C1395 C1388 1.409 . S
C1395 C1394 1.362 . S
H1396 C1402 0.930 . S
H1397 C1405 0.930 . S
H1398 C1406 0.930 . S
H1399 C1407 0.930 . S
H1400 C1410 0.930 . S
H1401 C1411 0.930 . S
C1402 H1396 0.930 . S
C1402 C1403 1.355 . S
C1402 C1404 1.415 . S
C1403 C1402 1.355 . S
C1403 C1405 1.419 . S
C1404 C1402 1.415 . S
C1404 C1409 1.425 . S
C1404 C1411 1.409 . S
C1405 H1397 0.930 . S
C1405 C1403 1.419 . S
C1405 C1406 1.362 . S
C1406 H1398 0.930 . S
C1406 C1405 1.362 . S
C1406 C1409 1.409 . S
C1407 H1399 0.930 . S
C1407 C1408 1.355 . S
C1407 C1409 1.415 . S
C1408 C1407 1.355 . S
C1408 C1410 1.419 . S
C1409 C1404 1.425 . S
C1409 C1406 1.409 . S
C1409 C1407 1.415 . S
C1410 H1400 0.930 . S
C1410 C1408 1.419 . S
C1410 C1411 1.362 . S
C1411 H1401 0.930 . S
C1411 C1404 1.409 . S
C1411 C1410 1.362 . S
H1412 C1418 0.930 . S
H1413 C1421 0.930 . S
H1414 C1422 0.930 . S
H1415 C1423 0.930 . S
H1416 C1426 0.930 . S
H1417 C1427 0.930 . S
C1418 H1412 0.930 . S
C1418 C1419 1.355 . S
C1418 C1420 1.415 . S
C1419 C1418 1.355 . S
C1419 C1421 1.419 1_554 S
C1420 C1418 1.415 . S
C1420 C1425 1.425 . S
C1420 C1427 1.409 . S
C1421 H1413 0.930 . S
C1421 C1419 1.419 1_556 S
C1421 C1422 1.362 1_556 S
C1422 H1414 0.930 . S
C1422 C1421 1.362 1_554 S
C1422 C1425 1.409 . S
C1423 H1415 0.930 . S
C1423 C1424 1.355 . S
C1423 C1425 1.415 . S
C1424 C1423 1.355 . S
C1424 C1426 1.419 . S
C1425 C1420 1.425 . S
C1425 C1422 1.409 . S
C1425 C1423 1.415 . S
C1426 H1416 0.930 . S
C1426 C1424 1.419 . S
C1426 C1427 1.362 . S
C1427 H1417 0.930 . S
C1427 C1420 1.409 . S
C1427 C1426 1.362 . S
H1428 C1434 0.930 . S
H1429 C1437 0.930 . S
H1430 C1438 0.930 . S
H1431 C1439 0.930 . S
H1432 C1442 0.930 1_556 S
H1433 C1443 0.930 . S
C1434 H1428 0.930 . S
C1434 C1435 1.355 . S
C1434 C1436 1.415 . S
C1435 C1434 1.355 . S
C1435 C1437 1.419 . S
C1436 C1434 1.415 . S
C1436 C1441 1.425 . S
C1436 C1443 1.409 . S
C1437 H1429 0.930 . S
C1437 C1435 1.419 . S
C1437 C1438 1.362 . S
C1438 H1430 0.930 . S
C1438 C1437 1.362 . S
C1438 C1441 1.409 . S
C1439 H1431 0.930 . S
C1439 C1440 1.355 . S
C1439 C1441 1.415 . S
C1440 C1439 1.355 . S
C1440 C1442 1.419 . S
C1441 C1436 1.425 . S
C1441 C1438 1.409 . S
C1441 C1439 1.415 . S
C1442 H1432 0.930 1_554 S
C1442 C1440 1.419 . S
C1442 C1443 1.362 . S
C1443 H1433 0.930 . S
C1443 C1436 1.409 . S
C1443 C1442 1.362 . S
H1444 C1450 0.930 . S
H1445 C1453 0.930 . S
H1446 C1454 0.930 . S
H1447 C1455 0.930 . S
H1448 C1458 0.930 . S
H1449 C1459 0.930 . S
C1450 H1444 0.930 . S
C1450 C1451 1.355 . S
C1450 C1452 1.415 . S
C1451 C1450 1.355 . S
C1451 C1453 1.419 . S
C1452 C1450 1.415 . S
C1452 C1457 1.425 . S
C1452 C1459 1.409 . S
C1453 H1445 0.930 . S
C1453 C1451 1.419 . S
C1453 C1454 1.362 . S
C1454 H1446 0.930 . S
C1454 C1453 1.362 . S
C1454 C1457 1.409 . S
C1455 H1447 0.930 . S
C1455 C1456 1.355 . S
C1455 C1457 1.415 . S
C1456 C1455 1.355 . S
C1456 C1458 1.419 . S
C1457 C1452 1.425 . S
C1457 C1454 1.409 . S
C1457 C1455 1.415 . S
C1458 H1448 0.930 . S
C1458 C1456 1.419 . S
C1458 C1459 1.362 . S
C1459 H1449 0.930 . S
C1459 C1452 1.409 . S
C1459 C1458 1.362 . S
H1460 C1466 0.930 1_556 S
H1461 C1469 0.930 . S
H1462 C1470 0.930 . S
H1463 C1471 0.930 . S
H1464 C1474 0.930 . S
H1465 C1475 0.930 . S
C1466 H1460 0.930 1_554 S
C1466 C1467 1.355 . S
C1466 C1468 1.415 . S
C1467 C1466 1.355 . S
C1467 C1469 1.419 . S
C1468 C1466 1.415 . S
C1468 C1473 1.425 . S
C1468 C1475 1.409 . S
C1469 H1461 0.930 . S
C1469 C1467 1.419 . S
C1469 C1470 1.362 . S
C1470 H1462 0.930 . S
C1470 C1469 1.362 . S
C1470 C1473 1.409 . S
C1471 H1463 0.930 . S
C1471 C1472 1.355 . S
C1471 C1473 1.415 . S
C1472 C1471 1.355 . S
C1472 C1474 1.419 . S
C1473 C1468 1.425 . S
C1473 C1470 1.409 . S
C1473 C1471 1.415 . S
C1474 H1464 0.930 . S
C1474 C1472 1.419 . S
C1474 C1475 1.362 . S
C1475 H1465 0.930 . S
C1475 C1468 1.409 . S
C1475 C1474 1.362 . S
H1476 C1482 0.930 . S
H1477 C1485 0.930 . S
H1478 C1486 0.930 . S
H1479 C1487 0.930 . S
H1480 C1490 0.930 . S
H1481 C1491 0.930 . S
C1482 H1476 0.930 . S
C1482 C1483 1.355 . S
C1482 C1484 1.415 . S
C1483 C1482 1.355 . S
C1483 C1485 1.419 . S
C1484 C1482 1.415 . S
C1484 C1489 1.425 . S
C1484 C1491 1.409 . S
C1485 H1477 0.930 . S
C1485 C1483 1.419 . S
C1485 C1486 1.362 . S
C1486 H1478 0.930 . S
C1486 C1485 1.362 . S
C1486 C1489 1.409 . S
C1487 H1479 0.930 . S
C1487 C1488 1.355 . S
C1487 C1489 1.415 . S
C1488 C1487 1.355 . S
C1488 C1490 1.419 . S
C1489 C1484 1.425 . S
C1489 C1486 1.409 . S
C1489 C1487 1.415 . S
C1490 H1480 0.930 . S
C1490 C1488 1.419 . S
C1490 C1491 1.362 . S
C1491 H1481 0.930 . S
C1491 C1484 1.409 . S
C1491 C1490 1.362 . S
H1492 C1498 0.930 . S
H1493 C1501 0.930 . S
H1494 C1502 0.930 . S
H1495 C1503 0.930 . S
H1496 C1506 0.930 . S
H1497 C1507 0.930 . S
C1498 H1492 0.930 . S
C1498 C1499 1.355 . S
C1498 C1500 1.415 . S
C1499 C1498 1.355 . S
C1499 C1501 1.419 . S
C1500 C1498 1.415 . S
C1500 C1505 1.425 . S
C1500 C1507 1.409 . S
C1501 H1493 0.930 . S
C1501 C1499 1.419 . S
C1501 C1502 1.362 . S
C1502 H1494 0.930 . S
C1502 C1501 1.362 . S
C1502 C1505 1.409 . S
C1503 H1495 0.930 . S
C1503 C1504 1.355 . S
C1503 C1505 1.415 . S
C1504 C1503 1.355 . S
C1504 C1506 1.419 . S
C1505 C1500 1.425 . S
C1505 C1502 1.409 . S
C1505 C1503 1.415 . S
C1506 H1496 0.930 . S
C1506 C1504 1.419 . S
C1506 C1507 1.362 . S
C1507 H1497 0.930 . S
C1507 C1500 1.409 . S
C1507 C1506 1.362 . S
H1508 C1514 0.930 . S
H1509 C1517 0.930 . S
H1510 C1518 0.930 . S
H1511 C1519 0.930 . S
H1512 C1522 0.930 . S
H1513 C1523 0.930 . S
C1514 H1508 0.930 . S
C1514 C1515 1.355 . S
C1514 C1516 1.415 . S
C1515 C1514 1.355 . S
C1515 C1517 1.419 . S
C1516 C1514 1.415 . S
C1516 C1521 1.425 . S
C1516 C1523 1.409 . S
C1517 H1509 0.930 . S
C1517 C1515 1.419 . S
C1517 C1518 1.362 . S
C1518 H1510 0.930 . S
C1518 C1517 1.362 . S
C1518 C1521 1.409 . S
C1519 H1511 0.930 . S
C1519 C1520 1.355 . S
C1519 C1521 1.415 . S
C1520 C1519 1.355 . S
C1520 C1522 1.419 . S
C1521 C1516 1.425 . S
C1521 C1518 1.409 . S
C1521 C1519 1.415 . S
C1522 H1512 0.930 . S
C1522 C1520 1.419 . S
C1522 C1523 1.362 . S
C1523 H1513 0.930 . S
C1523 C1516 1.409 . S
C1523 C1522 1.362 . S
H1524 C1530 0.930 . S
H1525 C1533 0.930 . S
H1526 C1534 0.930 . S
H1527 C1535 0.930 . S
H1528 C1538 0.930 . S
H1529 C1539 0.930 . S
C1530 H1524 0.930 . S
C1530 C1531 1.355 . S
C1530 C1532 1.415 . S
C1531 C1530 1.355 . S
C1531 C1533 1.419 . S
C1532 C1530 1.415 . S
C1532 C1537 1.425 . S
C1532 C1539 1.409 . S
C1533 H1525 0.930 . S
C1533 C1531 1.419 . S
C1533 C1534 1.362 . S
C1534 H1526 0.930 . S
C1534 C1533 1.362 . S
C1534 C1537 1.409 . S
C1535 H1527 0.930 . S
C1535 C1536 1.355 . S
C1535 C1537 1.415 . S
C1536 C1535 1.355 . S
C1536 C1538 1.419 . S
C1537 C1532 1.425 . S
C1537 C1534 1.409 . S
C1537 C1535 1.415 . S
C1538 H1528 0.930 . S
C1538 C1536 1.419 . S
C1538 C1539 1.362 . S
C1539 H1529 0.930 . S
C1539 C1532 1.409 . S
C1539 C1538 1.362 . S
H1540 C1546 0.930 . S
H1541 C1549 0.930 . S
H1542 C1550 0.930 . S
H1543 C1551 0.930 . S
H1544 C1554 0.930 . S
H1545 C1555 0.930 . S
C1546 H1540 0.930 . S
C1546 C1547 1.355 . S
C1546 C1548 1.415 . S
C1547 C1546 1.355 . S
C1547 C1549 1.419 . S
C1548 C1546 1.415 . S
C1548 C1553 1.425 . S
C1548 C1555 1.409 . S
C1549 H1541 0.930 . S
C1549 C1547 1.419 . S
C1549 C1550 1.362 . S
C1550 H1542 0.930 . S
C1550 C1549 1.362 . S
C1550 C1553 1.409 . S
C1551 H1543 0.930 . S
C1551 C1552 1.355 . S
C1551 C1553 1.415 . S
C1552 C1551 1.355 . S
C1552 C1554 1.419 . S
C1553 C1548 1.425 . S
C1553 C1550 1.409 . S
C1553 C1551 1.415 . S
C1554 H1544 0.930 . S
C1554 C1552 1.419 . S
C1554 C1555 1.362 . S
C1555 H1545 0.930 . S
C1555 C1548 1.409 . S
C1555 C1554 1.362 . S
H1556 C1562 0.930 . S
H1557 C1565 0.930 . S
H1558 C1566 0.930 . S
H1559 C1567 0.930 . S
H1560 C1570 0.930 . S
H1561 C1571 0.930 . S
C1562 H1556 0.930 . S
C1562 C1563 1.355 . S
C1562 C1564 1.415 . S
C1563 C1562 1.355 . S
C1563 C1565 1.419 . S
C1564 C1562 1.415 . S
C1564 C1569 1.425 . S
C1564 C1571 1.409 . S
C1565 H1557 0.930 . S
C1565 C1563 1.419 . S
C1565 C1566 1.362 . S
C1566 H1558 0.930 . S
C1566 C1565 1.362 . S
C1566 C1569 1.409 . S
C1567 H1559 0.930 . S
C1567 C1568 1.355 . S
C1567 C1569 1.415 . S
C1568 C1567 1.355 . S
C1568 C1570 1.419 . S
C1569 C1564 1.425 . S
C1569 C1566 1.409 . S
C1569 C1567 1.415 . S
C1570 H1560 0.930 . S
C1570 C1568 1.419 . S
C1570 C1571 1.362 . S
C1571 H1561 0.930 . S
C1571 C1564 1.409 . S
C1571 C1570 1.362 . S
H1572 C1578 0.930 . S
H1573 C1581 0.930 . S
H1574 C1582 0.930 . S
H1575 C1583 0.930 . S
H1576 C1586 0.930 . S
H1577 C1587 0.930 . S
C1578 H1572 0.930 . S
C1578 C1579 1.355 . S
C1578 C1580 1.415 . S
C1579 C1578 1.355 . S
C1579 C1581 1.419 . S
C1580 C1578 1.415 . S
C1580 C1585 1.425 . S
C1580 C1587 1.409 . S
C1581 H1573 0.930 . S
C1581 C1579 1.419 . S
C1581 C1582 1.362 . S
C1582 H1574 0.930 . S
C1582 C1581 1.362 . S
C1582 C1585 1.409 . S
C1583 H1575 0.930 . S
C1583 C1584 1.355 . S
C1583 C1585 1.415 . S
C1584 C1583 1.355 . S
C1584 C1586 1.419 . S
C1585 C1580 1.425 . S
C1585 C1582 1.409 . S
C1585 C1583 1.415 . S
C1586 H1576 0.930 . S
C1586 C1584 1.419 . S
C1586 C1587 1.362 . S
C1587 H1577 0.930 . S
C1587 C1580 1.409 . S
C1587 C1586 1.362 . S
H1588 C1594 0.930 . S
H1589 C1597 0.930 . S
H1590 C1598 0.930 . S
H1591 C1599 0.930 . S
H1592 C1602 0.930 . S
H1593 C1603 0.930 . S
C1594 H1588 0.930 . S
C1594 C1595 1.355 . S
C1594 C1596 1.415 . S
C1595 C1594 1.355 . S
C1595 C1597 1.419 . S
C1596 C1594 1.415 . S
C1596 C1601 1.425 . S
C1596 C1603 1.409 . S
C1597 H1589 0.930 . S
C1597 C1595 1.419 . S
C1597 C1598 1.362 . S
C1598 H1590 0.930 . S
C1598 C1597 1.362 . S
C1598 C1601 1.409 . S
C1599 H1591 0.930 . S
C1599 C1600 1.355 . S
C1599 C1601 1.415 . S
C1600 C1599 1.355 . S
C1600 C1602 1.419 . S
C1601 C1596 1.425 . S
C1601 C1598 1.409 . S
C1601 C1599 1.415 . S
C1602 H1592 0.930 . S
C1602 C1600 1.419 . S
C1602 C1603 1.362 . S
C1603 H1593 0.930 . S
C1603 C1596 1.409 . S
C1603 C1602 1.362 . S
H1604 C1610 0.930 . S
H1605 C1613 0.930 . S
H1606 C1614 0.930 . S
H1607 C1615 0.930 . S
H1608 C1618 0.930 . S
H1609 C1619 0.930 . S
C1610 H1604 0.930 . S
C1610 C1611 1.355 . S
C1610 C1612 1.415 . S
C1611 C1610 1.355 . S
C1611 C1613 1.419 . S
C1612 C1610 1.415 . S
C1612 C1617 1.425 . S
C1612 C1619 1.409 . S
C1613 H1605 0.930 . S
C1613 C1611 1.419 . S
C1613 C1614 1.362 . S
C1614 H1606 0.930 . S
C1614 C1613 1.362 . S
C1614 C1617 1.409 . S
C1615 H1607 0.930 . S
C1615 C1616 1.355 . S
C1615 C1617 1.415 . S
C1616 C1615 1.355 . S
C1616 C1618 1.419 . S
C1617 C1612 1.425 . S
C1617 C1614 1.409 . S
C1617 C1615 1.415 . S
C1618 H1608 0.930 . S
C1618 C1616 1.419 . S
C1618 C1619 1.362 . S
C1619 H1609 0.930 . S
C1619 C1612 1.409 . S
C1619 C1618 1.362 . S
H1620 C1626 0.930 . S
H1621 C1629 0.930 . S
H1622 C1630 0.930 . S
H1623 C1631 0.930 . S
H1624 C1634 0.930 . S
H1625 C1635 0.930 . S
C1626 H1620 0.930 . S
C1626 C1627 1.355 . S
C1626 C1628 1.415 . S
C1627 C1626 1.355 . S
C1627 C1629 1.419 . S
C1628 C1626 1.415 . S
C1628 C1633 1.425 . S
C1628 C1635 1.409 . S
C1629 H1621 0.930 . S
C1629 C1627 1.419 . S
C1629 C1630 1.362 . S
C1630 H1622 0.930 . S
C1630 C1629 1.362 . S
C1630 C1633 1.409 . S
C1631 H1623 0.930 . S
C1631 C1632 1.355 . S
C1631 C1633 1.415 . S
C1632 C1631 1.355 . S
C1632 C1634 1.419 . S
C1633 C1628 1.425 . S
C1633 C1630 1.409 . S
C1633 C1631 1.415 . S
C1634 H1624 0.930 . S
C1634 C1632 1.419 . S
C1634 C1635 1.362 . S
C1635 H1625 0.930 . S
C1635 C1628 1.409 . S
C1635 C1634 1.362 . S
H1636 C1642 0.930 . S
H1637 C1645 0.930 . S
H1638 C1646 0.930 . S
H1639 C1647 0.930 . S
H1640 C1650 0.930 . S
H1641 C1651 0.930 . S
C1642 H1636 0.930 . S
C1642 C1643 1.355 . S
C1642 C1644 1.415 . S
C1643 C1642 1.355 . S
C1643 C1645 1.419 . S
C1644 C1642 1.415 . S
C1644 C1649 1.425 . S
C1644 C1651 1.409 . S
C1645 H1637 0.930 . S
C1645 C1643 1.419 . S
C1645 C1646 1.362 . S
C1646 H1638 0.930 . S
C1646 C1645 1.362 . S
C1646 C1649 1.409 . S
C1647 H1639 0.930 . S
C1647 C1648 1.355 . S
C1647 C1649 1.415 . S
C1648 C1647 1.355 . S
C1648 C1650 1.419 . S
C1649 C1644 1.425 . S
C1649 C1646 1.409 . S
C1649 C1647 1.415 . S
C1650 H1640 0.930 . S
C1650 C1648 1.419 . S
C1650 C1651 1.362 . S
C1651 H1641 0.930 . S
C1651 C1644 1.409 . S
C1651 C1650 1.362 . S
H1652 C1658 0.930 . S
H1653 C1661 0.930 . S
H1654 C1662 0.930 . S
H1655 C1663 0.930 . S
H1656 C1666 0.930 . S
H1657 C1667 0.930 . S
C1658 H1652 0.930 . S
C1658 C1659 1.355 . S
C1658 C1660 1.415 . S
C1659 C1658 1.355 . S
C1659 C1661 1.419 . S
C1660 C1658 1.415 . S
C1660 C1665 1.425 . S
C1660 C1667 1.409 . S
C1661 H1653 0.930 . S
C1661 C1659 1.419 . S
C1661 C1662 1.362 . S
C1662 H1654 0.930 . S
C1662 C1661 1.362 . S
C1662 C1665 1.409 . S
C1663 H1655 0.930 . S
C1663 C1664 1.355 . S
C1663 C1665 1.415 . S
C1664 C1663 1.355 . S
C1664 C1666 1.419 . S
C1665 C1660 1.425 . S
C1665 C1662 1.409 . S
C1665 C1663 1.415 . S
C1666 H1656 0.930 . S
C1666 C1664 1.419 . S
C1666 C1667 1.362 . S
C1667 H1657 0.930 . S
C1667 C1660 1.409 . S
C1667 C1666 1.362 . S
H1668 C1674 0.930 . S
H1669 C1677 0.930 . S
H1670 C1678 0.930 . S
H1671 C1679 0.930 . S
H1672 C1682 0.930 . S
H1673 C1683 0.930 . S
C1674 H1668 0.930 . S
C1674 C1675 1.355 . S
C1674 C1676 1.415 . S
C1675 C1674 1.355 . S
C1675 C1677 1.419 . S
C1676 C1674 1.415 . S
C1676 C1681 1.425 1_556 S
C1676 C1683 1.409 . S
C1677 H1669 0.930 . S
C1677 C1675 1.419 . S
C1677 C1678 1.362 1_556 S
C1678 H1670 0.930 . S
C1678 C1677 1.362 1_554 S
C1678 C1681 1.409 . S
C1679 H1671 0.930 . S
C1679 C1680 1.355 . S
C1679 C1681 1.415 . S
C1680 C1679 1.355 . S
C1680 C1682 1.419 1_554 S
C1681 C1676 1.425 1_554 S
C1681 C1678 1.409 . S
C1681 C1679 1.415 . S
C1682 H1672 0.930 . S
C1682 C1680 1.419 1_556 S
C1682 C1683 1.362 . S
C1683 H1673 0.930 . S
C1683 C1676 1.409 . S
C1683 C1682 1.362 . S
H1684 C1690 0.930 . S
H1685 C1693 0.930 . S
H1686 C1694 0.930 . S
H1687 C1695 0.930 . S
H1688 C1698 0.930 . S
H1689 C1699 0.930 1_554 S
C1690 H1684 0.930 . S
C1690 C1691 1.355 . S
C1690 C1692 1.415 1_554 S
C1691 C1690 1.355 . S
C1691 C1693 1.419 . S
C1692 C1690 1.415 1_556 S
C1692 C1697 1.425 . S
C1692 C1699 1.409 . S
C1693 H1685 0.930 . S
C1693 C1691 1.419 . S
C1693 C1694 1.362 1_554 S
C1694 H1686 0.930 . S
C1694 C1693 1.362 1_556 S
C1694 C1697 1.409 . S
C1695 H1687 0.930 . S
C1695 C1696 1.355 . S
C1695 C1697 1.415 . S
C1696 C1695 1.355 . S
C1696 C1698 1.419 . S
C1697 C1692 1.425 . S
C1697 C1694 1.409 . S
C1697 C1695 1.415 . S
C1698 H1688 0.930 . S
C1698 C1696 1.419 . S
C1698 C1699 1.362 . S
C1699 H1689 0.930 1_556 S
C1699 C1692 1.409 . S
C1699 C1698 1.362 . S
H1700 C1706 0.930 . S
H1701 C1709 0.930 . S
H1702 C1710 0.930 . S
H1703 C1711 0.930 . S
H1704 C1714 0.930 . S
H1705 C1715 0.930 1_554 S
C1706 H1700 0.930 . S
C1706 C1707 1.355 . S
C1706 C1708 1.415 1_554 S
C1707 C1706 1.355 . S
C1707 C1709 1.419 1_554 S
C1708 C1706 1.415 1_556 S
C1708 C1713 1.425 . S
C1708 C1715 1.409 . S
C1709 H1701 0.930 . S
C1709 C1707 1.419 1_556 S
C1709 C1710 1.362 . S
C1710 H1702 0.930 . S
C1710 C1709 1.362 . S
C1710 C1713 1.409 . S
C1711 H1703 0.930 . S
C1711 C1712 1.355 . S
C1711 C1713 1.415 . S
C1712 C1711 1.355 . S
C1712 C1714 1.419 . S
C1713 C1708 1.425 . S
C1713 C1710 1.409 . S
C1713 C1711 1.415 . S
C1714 H1704 0.930 . S
C1714 C1712 1.419 . S
C1714 C1715 1.362 . S
C1715 H1705 0.930 1_556 S
C1715 C1708 1.409 . S
C1715 C1714 1.362 . S
H1716 C1722 0.930 . S
H1717 C1725 0.934 . S
H1718 C1726 0.930 . S
H1719 C1727 0.930 . S
H1720 C1730 0.930 . S
H1721 C1731 0.930 . S
C1722 H1716 0.930 . S
C1722 C1723 1.355 1_556 S
C1722 C1724 1.415 . S
C1723 C1722 1.355 1_554 S
C1723 C1725 1.419 1_554 S
C1724 C1722 1.415 . S
C1724 C1729 1.425 . S
C1724 C1731 1.409 . S
C1725 H1717 0.934 . S
C1725 C1723 1.419 1_556 S
C1725 C1726 1.362 . S
C1726 H1718 0.930 . S
C1726 C1725 1.362 . S
C1726 C1729 1.409 . S
C1727 H1719 0.930 . S
C1727 C1728 1.355 . S
C1727 C1729 1.415 . S
C1728 C1727 1.355 . S
C1728 C1730 1.419 . S
C1729 C1724 1.425 . S
C1729 C1726 1.409 . S
C1729 C1727 1.415 . S
C1730 H1720 0.930 . S
C1730 C1728 1.419 . S
C1730 C1731 1.362 . S
C1731 H1721 0.930 . S
C1731 C1724 1.409 . S
C1731 C1730 1.362 . S
H1732 C1738 0.930 . S
H1733 C1741 0.930 . S
H1734 C1742 0.930 . S
H1735 C1743 0.930 . S
H1736 C1746 0.930 . S
H1737 C1747 0.930 . S
C1738 H1732 0.930 . S
C1738 C1739 1.355 1_556 S
C1738 C1740 1.415 . S
C1739 C1738 1.355 1_554 S
C1739 C1741 1.419 . S
C1740 C1738 1.415 . S
C1740 C1745 1.425 . S
C1740 C1747 1.409 . S
C1741 H1733 0.930 . S
C1741 C1739 1.419 . S
C1741 C1742 1.362 . S
C1742 H1734 0.930 . S
C1742 C1741 1.362 . S
C1742 C1745 1.409 1_554 S
C1743 H1735 0.930 . S
C1743 C1744 1.355 . S
C1743 C1745 1.415 . S
C1744 C1743 1.355 . S
C1744 C1746 1.419 . S
C1745 C1740 1.425 . S
C1745 C1742 1.409 1_556 S
C1745 C1743 1.415 . S
C1746 H1736 0.930 . S
C1746 C1744 1.419 . S
C1746 C1747 1.362 . S
C1747 H1737 0.930 . S
C1747 C1740 1.409 . S
C1747 C1746 1.362 . S
H1748 C1754 0.930 . S
H1749 C1757 0.930 . S
H1750 C1758 0.930 . S
H1751 C1759 0.932 . S
H1752 C1762 0.930 . S
H1753 C1763 0.930 . S
C1754 H1748 0.930 . S
C1754 C1755 1.355 . S
C1754 C1756 1.415 . S
C1755 C1754 1.355 . S
C1755 C1757 1.419 . S
C1756 C1754 1.415 . S
C1756 C1761 1.425 . S
C1756 C1763 1.409 . S
C1757 H1749 0.930 . S
C1757 C1755 1.419 . S
C1757 C1758 1.362 . S
C1758 H1750 0.930 . S
C1758 C1757 1.362 . S
C1758 C1761 1.409 . S
C1759 H1751 0.932 . S
C1759 C1760 1.355 1_556 S
C1759 C1761 1.415 . S
C1760 C1759 1.355 1_554 S
C1760 C1762 1.419 1_554 S
C1761 C1756 1.425 . S
C1761 C1758 1.409 . S
C1761 C1759 1.415 . S
C1762 H1752 0.930 . S
C1762 C1760 1.419 1_556 S
C1762 C1763 1.362 . S
C1763 H1753 0.930 . S
C1763 C1756 1.409 . S
C1763 C1762 1.362 . S
H1764 C1770 0.930 . S
H1765 C1773 0.930 . S
H1766 C1774 0.930 . S
H1767 C1775 0.930 . S
H1768 C1778 0.930 . S
H1769 C1779 0.930 . S
C1770 H1764 0.930 . S
C1770 C1771 1.355 . S
C1770 C1772 1.415 . S
C1771 C1770 1.355 . S
C1771 C1773 1.419 . S
C1772 C1770 1.415 . S
C1772 C1777 1.425 . S
C1772 C1779 1.409 . S
C1773 H1765 0.930 . S
C1773 C1771 1.419 . S
C1773 C1774 1.362 . S
C1774 H1766 0.930 . S
C1774 C1773 1.362 . S
C1774 C1777 1.409 . S
C1775 H1767 0.930 . S
C1775 C1776 1.355 . S
C1775 C1777 1.415 . S
C1776 C1775 1.355 . S
C1776 C1778 1.419 . S
C1777 C1772 1.425 . S
C1777 C1774 1.409 . S
C1777 C1775 1.415 . S
C1778 H1768 0.930 . S
C1778 C1776 1.419 . S
C1778 C1779 1.362 . S
C1779 H1769 0.930 . S
C1779 C1772 1.409 . S
C1779 C1778 1.362 . S
H1780 C1786 0.930 . S
H1781 C1789 0.930 . S
H1782 C1790 0.930 . S
H1783 C1791 0.930 . S
H1784 C1794 0.930 . S
H1785 C1795 0.930 . S
C1786 H1780 0.930 . S
C1786 C1787 1.355 . S
C1786 C1788 1.415 . S
C1787 C1786 1.355 . S
C1787 C1789 1.419 . S
C1788 C1786 1.415 . S
C1788 C1793 1.425 1_545 S
C1788 C1795 1.409 . S
C1789 H1781 0.930 . S
C1789 C1787 1.419 . S
C1789 C1790 1.362 1_545 S
C1790 H1782 0.930 . S
C1790 C1789 1.362 1_565 S
C1790 C1793 1.409 . S
C1791 H1783 0.930 . S
C1791 C1792 1.355 . S
C1791 C1793 1.415 . S
C1792 C1791 1.355 . S
C1792 C1794 1.419 . S
C1793 C1788 1.425 1_565 S
C1793 C1790 1.409 . S
C1793 C1791 1.415 . S
C1794 H1784 0.930 . S
C1794 C1792 1.419 . S
C1794 C1795 1.362 1_565 S
C1795 H1785 0.930 . S
C1795 C1788 1.409 . S
C1795 C1794 1.362 1_545 S
H1796 C1802 0.930 . S
H1797 C1805 0.930 . S
H1798 C1806 0.930 . S
H1799 C1807 0.930 . S
H1800 C1810 0.930 . S
H1801 C1811 0.930 . S
C1802 H1796 0.930 . S
C1802 C1803 1.355 . S
C1802 C1804 1.441 . S
C1803 C1802 1.355 . S
C1803 C1805 1.419 . S
C1804 C1802 1.441 . S
C1804 C1809 1.467 1_655 S
C1804 C1811 1.365 1_655 S
C1805 H1797 0.930 . S
C1805 C1803 1.419 . S
C1805 C1806 1.362 . S
C1806 H1798 0.930 . S
C1806 C1805 1.362 . S
C1806 C1809 1.365 1_655 S
C1807 H1799 0.930 . S
C1807 C1808 1.355 . S
C1807 C1809 1.441 . S
C1808 C1807 1.355 . S
C1808 C1810 1.419 . S
C1809 C1804 1.467 1_455 S
C1809 C1806 1.365 1_455 S
C1809 C1807 1.441 . S
C1810 H1800 0.930 . S
C1810 C1808 1.419 . S
C1810 C1811 1.362 . S
C1811 H1801 0.930 . S
C1811 C1804 1.365 1_455 S
C1811 C1810 1.362 . S
H1812 C1818 0.930 . S
H1813 C1821 0.930 . S
H1814 C1822 0.930 . S
H1815 C1823 0.930 . S
H1816 C1826 0.930 . S
H1817 C1827 0.930 . S
C1818 H1812 0.930 . S
C1818 C1819 1.355 . S
C1818 C1820 1.415 . S
C1819 C1818 1.355 . S
C1819 C1821 1.419 . S
C1820 C1818 1.415 . S
C1820 C1825 1.425 . S
C1820 C1827 1.409 . S
C1821 H1813 0.930 . S
C1821 C1819 1.419 . S
C1821 C1822 1.362 . S
C1822 H1814 0.930 . S
C1822 C1821 1.362 . S
C1822 C1825 1.409 . S
C1823 H1815 0.930 . S
C1823 C1824 1.355 . S
C1823 C1825 1.415 . S
C1824 C1823 1.355 . S
C1824 C1826 1.419 . S
C1825 C1820 1.425 . S
C1825 C1822 1.409 . S
C1825 C1823 1.415 . S
C1826 H1816 0.930 . S
C1826 C1824 1.419 . S
C1826 C1827 1.362 . S
C1827 H1817 0.930 . S
C1827 C1820 1.409 . S
C1827 C1826 1.362 . S
H1828 C1834 0.930 . S
H1829 C1837 0.930 . S
H1830 C1838 0.930 1_545 S
H1831 C1839 0.930 . S
H1832 C1842 0.930 . S
H1833 C1843 0.930 1_565 S
C1834 H1828 0.930 . S
C1834 C1835 1.355 . S
C1834 C1836 1.415 . S
C1835 C1834 1.355 . S
C1835 C1837 1.419 . S
C1836 C1834 1.415 . S
C1836 C1841 1.425 1_565 S
C1836 C1843 1.396 1_565 S
C1837 H1829 0.930 . S
C1837 C1835 1.419 . S
C1837 C1838 1.375 . S
C1838 H1830 0.930 1_565 S
C1838 C1837 1.375 . S
C1838 C1841 1.397 1_565 S
C1839 H1831 0.930 . S
C1839 C1840 1.355 . S
C1839 C1841 1.415 . S
C1840 C1839 1.355 . S
C1840 C1842 1.419 . S
C1841 C1836 1.425 1_545 S
C1841 C1838 1.397 1_545 S
C1841 C1839 1.415 . S
C1842 H1832 0.930 . S
C1842 C1840 1.419 . S
C1842 C1843 1.376 . S
C1843 H1833 0.930 1_545 S
C1843 C1836 1.396 1_545 S
C1843 C1842 1.376 . S
H1844 C1850 0.930 . S
H1845 C1853 0.930 . S
H1846 C1854 0.930 . S
H1847 C1855 0.930 . S
H1848 C1858 0.930 . S
H1849 C1859 0.930 . S
C1850 H1844 0.930 . S
C1850 C1851 1.355 . S
C1850 C1852 1.415 . S
C1851 C1850 1.355 . S
C1851 C1853 1.419 . S
C1852 C1850 1.415 . S
C1852 C1857 1.425 1_655 S
C1852 C1859 1.409 . S
C1853 H1845 0.930 . S
C1853 C1851 1.419 . S
C1853 C1854 1.362 1_655 S
C1854 H1846 0.930 . S
C1854 C1853 1.362 1_455 S
C1854 C1857 1.409 . S
C1855 H1847 0.930 . S
C1855 C1856 1.355 . S
C1855 C1857 1.415 . S
C1856 C1855 1.355 . S
C1856 C1858 1.419 . S
C1857 C1852 1.425 1_455 S
C1857 C1854 1.409 . S
C1857 C1855 1.415 . S
C1858 H1848 0.930 . S
C1858 C1856 1.419 . S
C1858 C1859 1.362 1_455 S
C1859 H1849 0.930 . S
C1859 C1852 1.409 . S
C1859 C1858 1.362 1_655 S
H1860 C1866 0.930 . S
H1861 C1869 0.930 . S
H1862 C1870 0.930 . S
H1863 C1871 0.930 . S
H1864 C1874 0.930 . S
H1865 C1875 0.930 . S
C1866 H1860 0.930 . S
C1866 C1867 1.355 . S
C1866 C1868 1.415 . S
C1867 C1866 1.355 . S
C1867 C1869 1.419 . S
C1868 C1866 1.415 . S
C1868 C1873 1.425 . S
C1868 C1875 1.409 . S
C1869 H1861 0.930 . S
C1869 C1867 1.419 . S
C1869 C1870 1.362 . S
C1870 H1862 0.930 . S
C1870 C1869 1.362 . S
C1870 C1873 1.409 . S
C1871 H1863 0.930 . S
C1871 C1872 1.355 . S
C1871 C1873 1.415 . S
C1872 C1871 1.355 . S
C1872 C1874 1.419 . S
C1873 C1868 1.425 . S
C1873 C1870 1.409 . S
C1873 C1871 1.415 . S
C1874 H1864 0.930 . S
C1874 C1872 1.419 . S
C1874 C1875 1.362 . S
C1875 H1865 0.930 . S
C1875 C1868 1.409 . S
C1875 C1874 1.362 . S
H1876 C1882 0.930 . S
H1877 C1885 0.930 . S
H1878 C1886 0.930 . S
H1879 C1887 0.930 . S
H1880 C1890 0.930 . S
H1881 C1891 0.930 . S
C1882 H1876 0.930 . S
C1882 C1883 1.355 . S
C1882 C1884 1.415 . S
C1883 C1882 1.355 . S
C1883 C1885 1.419 . S
C1884 C1882 1.415 . S
C1884 C1889 1.425 . S
C1884 C1891 1.409 . S
C1885 H1877 0.930 . S
C1885 C1883 1.419 . S
C1885 C1886 1.362 . S
C1886 H1878 0.930 . S
C1886 C1885 1.362 . S
C1886 C1889 1.409 . S
C1887 H1879 0.930 . S
C1887 C1888 1.355 . S
C1887 C1889 1.415 . S
C1888 C1887 1.355 . S
C1888 C1890 1.419 . S
C1889 C1884 1.425 . S
C1889 C1886 1.409 . S
C1889 C1887 1.415 . S
C1890 H1880 0.930 . S
C1890 C1888 1.419 . S
C1890 C1891 1.362 . S
C1891 H1881 0.930 . S
C1891 C1884 1.409 . S
C1891 C1890 1.362 . S
H1892 C1898 0.930 . S
H1893 C1901 0.930 . S
H1894 C1902 0.930 . S
H1895 C1903 0.930 . S
H1896 C1906 0.930 . S
H1897 C1907 0.930 . S
C1898 H1892 0.930 . S
C1898 C1899 1.355 . S
C1898 C1900 1.415 . S
C1899 C1898 1.355 . S
C1899 C1901 1.419 . S
C1900 C1898 1.415 . S
C1900 C1905 1.425 . S
C1900 C1907 1.409 . S
C1901 H1893 0.930 . S
C1901 C1899 1.419 . S
C1901 C1902 1.362 . S
C1902 H1894 0.930 . S
C1902 C1901 1.362 . S
C1902 C1905 1.409 . S
C1903 H1895 0.930 . S
C1903 C1904 1.355 . S
C1903 C1905 1.415 . S
C1904 C1903 1.355 . S
C1904 C1906 1.419 . S
C1905 C1900 1.425 . S
C1905 C1902 1.409 . S
C1905 C1903 1.415 . S
C1906 H1896 0.930 . S
C1906 C1904 1.419 . S
C1906 C1907 1.362 . S
C1907 H1897 0.930 . S
C1907 C1900 1.409 . S
C1907 C1906 1.362 . S
H1908 C1914 0.930 . S
H1909 C1917 0.930 . S
H1910 C1918 0.930 . S
H1911 C1919 0.930 . S
H1912 C1922 0.930 . S
H1913 C1923 0.930 1_556 S
C1914 H1908 0.930 . S
C1914 C1915 1.355 . S
C1914 C1916 1.415 . S
C1915 C1914 1.355 . S
C1915 C1917 1.419 . S
C1916 C1914 1.415 . S
C1916 C1921 1.425 . S
C1916 C1923 1.409 . S
C1917 H1909 0.930 . S
C1917 C1915 1.419 . S
C1917 C1918 1.362 . S
C1918 H1910 0.930 . S
C1918 C1917 1.362 . S
C1918 C1921 1.409 . S
C1919 H1911 0.930 . S
C1919 C1920 1.355 . S
C1919 C1921 1.415 . S
C1920 C1919 1.355 . S
C1920 C1922 1.419 1_554 S
C1921 C1916 1.425 . S
C1921 C1918 1.409 . S
C1921 C1919 1.415 . S
C1922 H1912 0.930 . S
C1922 C1920 1.419 1_556 S
C1922 C1923 1.362 1_556 S
C1923 H1913 0.930 1_554 S
C1923 C1916 1.409 . S
C1923 C1922 1.362 1_554 S
H1924 C1930 0.930 . S
H1925 C1933 0.921 1_556 S
H1926 C1934 0.930 . S
H1927 C1935 0.930 . S
H1928 C1938 0.930 . S
H1929 C1939 0.930 . S
C1930 H1924 0.930 . S
C1930 C1931 1.355 . S
C1930 C1932 1.415 . S
C1931 C1930 1.355 . S
C1931 C1933 1.422 . S
C1932 C1930 1.415 . S
C1932 C1937 1.425 . S
C1932 C1939 1.409 . S
C1933 H1925 0.921 1_554 S
C1933 C1931 1.422 . S
C1933 C1934 1.368 . S
C1934 H1926 0.930 . S
C1934 C1933 1.368 . S
C1934 C1937 1.409 . S
C1935 H1927 0.930 . S
C1935 C1936 1.355 . S
C1935 C1937 1.415 . S
C1936 C1935 1.355 . S
C1936 C1938 1.419 . S
C1937 C1932 1.425 . S
C1937 C1934 1.409 . S
C1937 C1935 1.415 . S
C1938 H1928 0.930 . S
C1938 C1936 1.419 . S
C1938 C1939 1.362 . S
C1939 H1929 0.930 . S
C1939 C1932 1.409 . S
C1939 C1938 1.362 . S
H1940 C1946 0.930 . S
H1941 C1949 0.930 . S
H1942 C1950 0.930 . S
H1943 C1951 0.930 . S
H1944 C1954 0.930 . S
H1945 C1955 0.930 . S
C1946 H1940 0.930 . S
C1946 C1947 1.355 . S
C1946 C1948 1.415 . S
C1947 C1946 1.355 . S
C1947 C1949 1.419 1_554 S
C1948 C1946 1.415 . S
C1948 C1953 1.425 . S
C1948 C1955 1.409 . S
C1949 H1941 0.930 . S
C1949 C1947 1.419 1_556 S
C1949 C1950 1.362 1_556 S
C1950 H1942 0.930 . S
C1950 C1949 1.362 1_554 S
C1950 C1953 1.409 . S
C1951 H1943 0.930 . S
C1951 C1952 1.355 . S
C1951 C1953 1.415 . S
C1952 C1951 1.355 . S
C1952 C1954 1.419 . S
C1953 C1948 1.425 . S
C1953 C1950 1.409 . S
C1953 C1951 1.415 . S
C1954 H1944 0.930 . S
C1954 C1952 1.419 . S
C1954 C1955 1.362 . S
C1955 H1945 0.930 . S
C1955 C1948 1.409 . S
C1955 C1954 1.362 . S
H1956 C1962 0.930 . S
H1957 C1965 0.930 . S
H1958 C1966 0.930 . S
H1959 C1967 0.930 . S
H1960 C1970 0.930 . S
H1961 C1971 0.930 . S
C1962 H1956 0.930 . S
C1962 C1963 1.355 . S
C1962 C1964 1.415 . S
C1963 C1962 1.355 . S
C1963 C1965 1.419 . S
C1964 C1962 1.415 . S
C1964 C1969 1.425 . S
C1964 C1971 1.409 1_556 S
C1965 H1957 0.930 . S
C1965 C1963 1.419 . S
C1965 C1966 1.362 . S
C1966 H1958 0.930 . S
C1966 C1965 1.362 . S
C1966 C1969 1.409 . S
C1967 H1959 0.930 . S
C1967 C1968 1.355 1_556 S
C1967 C1969 1.415 . S
C1968 C1967 1.355 1_554 S
C1968 C1970 1.419 . S
C1969 C1964 1.425 . S
C1969 C1966 1.409 . S
C1969 C1967 1.415 . S
C1970 H1960 0.930 . S
C1970 C1968 1.419 . S
C1970 C1971 1.362 . S
C1971 H1961 0.930 . S
C1971 C1964 1.409 1_554 S
C1971 C1970 1.362 . S
H1972 C1978 0.930 . S
H1973 C1981 0.930 . S
H1974 C1982 0.930 . S
H1975 C1983 0.930 . S
H1976 C1986 0.930 . S
H1977 C1987 0.930 . S
C1978 H1972 0.930 . S
C1978 C1979 1.355 1_556 S
C1978 C1980 1.415 . S
C1979 C1978 1.355 1_554 S
C1979 C1981 1.419 . S
C1980 C1978 1.415 . S
C1980 C1985 1.425 . S
C1980 C1987 1.409 . S
C1981 H1973 0.930 . S
C1981 C1979 1.419 . S
C1981 C1982 1.362 . S
C1982 H1974 0.930 . S
C1982 C1981 1.362 . S
C1982 C1985 1.409 1_554 S
C1983 H1975 0.930 . S
C1983 C1984 1.355 . S
C1983 C1985 1.415 . S
C1984 C1983 1.355 . S
C1984 C1986 1.419 . S
C1985 C1980 1.425 . S
C1985 C1982 1.409 1_556 S
C1985 C1983 1.415 . S
C1986 H1976 0.930 . S
C1986 C1984 1.419 . S
C1986 C1987 1.362 . S
C1987 H1977 0.930 . S
C1987 C1980 1.409 . S
C1987 C1986 1.362 . S
H1988 C1994 0.930 . S
H1989 C1997 0.930 . S
H1990 C1998 0.930 1_554 S
H1991 C1999 0.930 . S
H1992 C2002 0.930 . S
H1993 C2003 0.930 . S
C1994 H1988 0.930 . S
C1994 C1995 1.355 . S
C1994 C1996 1.415 . S
C1995 C1994 1.355 . S
C1995 C1997 1.419 . S
C1996 C1994 1.415 . S
C1996 C2001 1.425 . S
C1996 C2003 1.409 . S
C1997 H1989 0.930 . S
C1997 C1995 1.419 . S
C1997 C1998 1.362 . S
C1998 H1990 0.930 1_556 S
C1998 C1997 1.362 . S
C1998 C2001 1.409 . S
C1999 H1991 0.930 . S
C1999 C2000 1.355 . S
C1999 C2001 1.415 1_554 S
C2000 C1999 1.355 . S
C2000 C2002 1.419 1_554 S
C2001 C1996 1.425 . S
C2001 C1998 1.409 . S
C2001 C1999 1.415 1_556 S
C2002 H1992 0.930 . S
C2002 C2000 1.419 1_556 S
C2002 C2003 1.362 . S
C2003 H1993 0.930 . S
C2003 C1996 1.409 . S
C2003 C2002 1.362 . S
H2004 C2010 0.930 . S
H2005 C2013 0.930 . S
H2006 C2014 0.930 . S
H2007 C2015 0.930 . S
H2008 C2018 0.930 . S
H2009 C2019 0.930 . S
C2010 H2004 0.930 . S
C2010 C2011 1.355 . S
C2010 C2012 1.415 . S
C2011 C2010 1.355 . S
C2011 C2013 1.419 . S
C2012 C2010 1.415 . S
C2012 C2017 1.425 . S
C2012 C2019 1.409 . S
C2013 H2005 0.930 . S
C2013 C2011 1.419 . S
C2013 C2014 1.362 . S
C2014 H2006 0.930 . S
C2014 C2013 1.362 . S
C2014 C2017 1.409 . S
C2015 H2007 0.930 . S
C2015 C2016 1.355 . S
C2015 C2017 1.415 . S
C2016 C2015 1.355 . S
C2016 C2018 1.419 . S
C2017 C2012 1.425 . S
C2017 C2014 1.409 . S
C2017 C2015 1.415 . S
C2018 H2008 0.930 . S
C2018 C2016 1.419 . S
C2018 C2019 1.362 . S
C2019 H2009 0.930 . S
C2019 C2012 1.409 . S
C2019 C2018 1.362 . S
H2020 C2026 0.930 . S
H2021 C2029 0.930 . S
H2022 C2030 0.930 . S
H2023 C2031 0.930 . S
H2024 C2034 0.930 . S
H2025 C2035 0.930 . S
C2026 H2020 0.930 . S
C2026 C2027 1.355 . S
C2026 C2028 1.415 . S
C2027 C2026 1.355 . S
C2027 C2029 1.419 . S
C2028 C2026 1.415 . S
C2028 C2033 1.425 . S
C2028 C2035 1.409 . S
C2029 H2021 0.930 . S
C2029 C2027 1.419 . S
C2029 C2030 1.362 . S
C2030 H2022 0.930 . S
C2030 C2029 1.362 . S
C2030 C2033 1.409 . S
C2031 H2023 0.930 . S
C2031 C2032 1.355 . S
C2031 C2033 1.415 . S
C2032 C2031 1.355 . S
C2032 C2034 1.419 . S
C2033 C2028 1.425 . S
C2033 C2030 1.409 . S
C2033 C2031 1.415 . S
C2034 H2024 0.930 . S
C2034 C2032 1.419 . S
C2034 C2035 1.362 . S
C2035 H2025 0.930 . S
C2035 C2028 1.409 . S
C2035 C2034 1.362 . S
H2036 C2042 0.930 . S
H2037 C2045 0.930 . S
H2038 C2046 0.930 . S
H2039 C2047 0.930 . S
H2040 C2050 0.930 . S
H2041 C2051 0.930 . S
C2042 H2036 0.930 . S
C2042 C2043 1.355 . S
C2042 C2044 1.415 . S
C2043 C2042 1.355 . S
C2043 C2045 1.419 . S
C2044 C2042 1.415 . S
C2044 C2049 1.425 . S
C2044 C2051 1.409 . S
C2045 H2037 0.930 . S
C2045 C2043 1.419 . S
C2045 C2046 1.362 . S
C2046 H2038 0.930 . S
C2046 C2045 1.362 . S
C2046 C2049 1.409 . S
C2047 H2039 0.930 . S
C2047 C2048 1.355 . S
C2047 C2049 1.415 . S
C2048 C2047 1.355 . S
C2048 C2050 1.419 . S
C2049 C2044 1.425 . S
C2049 C2046 1.409 . S
C2049 C2047 1.415 . S
C2050 H2040 0.930 . S
C2050 C2048 1.419 . S
C2050 C2051 1.362 . S
C2051 H2041 0.930 . S
C2051 C2044 1.409 . S
C2051 C2050 1.362 . S
H2052 C2058 0.930 . S
H2053 C2061 0.930 . S
H2054 C2062 0.930 . S
H2055 C2063 0.930 . S
H2056 C2066 0.930 . S
H2057 C2067 0.930 . S
C2058 H2052 0.930 . S
C2058 C2059 1.355 . S
C2058 C2060 1.415 . S
C2059 C2058 1.355 . S
C2059 C2061 1.419 . S
C2060 C2058 1.415 . S
C2060 C2065 1.425 . S
C2060 C2067 1.409 . S
C2061 H2053 0.930 . S
C2061 C2059 1.419 . S
C2061 C2062 1.362 . S
C2062 H2054 0.930 . S
C2062 C2061 1.362 . S
C2062 C2065 1.409 . S
C2063 H2055 0.930 . S
C2063 C2064 1.355 . S
C2063 C2065 1.415 . S
C2064 C2063 1.355 . S
C2064 C2066 1.419 . S
C2065 C2060 1.425 . S
C2065 C2062 1.409 . S
C2065 C2063 1.415 . S
C2066 H2056 0.930 . S
C2066 C2064 1.419 . S
C2066 C2067 1.362 . S
C2067 H2057 0.930 . S
C2067 C2060 1.409 . S
C2067 C2066 1.362 . S
H2068 C2074 0.930 . S
H2069 C2077 0.930 . S
H2070 C2078 0.930 . S
H2071 C2079 0.930 . S
H2072 C2082 0.930 . S
H2073 C2083 0.930 . S
C2074 H2068 0.930 . S
C2074 C2075 1.355 . S
C2074 C2076 1.465 . S
C2075 C2074 1.355 . S
C2075 C2077 1.419 . S
C2076 C2074 1.465 . S
C2076 C2081 1.359 1_545 S
C2076 C2083 1.395 1_545 S
C2077 H2069 0.930 . S
C2077 C2075 1.419 . S
C2077 C2078 1.362 . S
C2078 H2070 0.930 . S
C2078 C2077 1.362 . S
C2078 C2081 1.395 1_545 S
C2079 H2071 0.930 . S
C2079 C2080 1.355 . S
C2079 C2081 1.466 . S
C2080 C2079 1.355 . S
C2080 C2082 1.419 . S
C2081 C2076 1.359 1_565 S
C2081 C2078 1.395 1_565 S
C2081 C2079 1.466 . S
C2082 H2072 0.930 . S
C2082 C2080 1.419 . S
C2082 C2083 1.362 . S
C2083 H2073 0.930 . S
C2083 C2076 1.395 1_565 S
C2083 C2082 1.362 . S
H2084 C2090 0.930 . S
H2085 C2093 0.930 . S
H2086 C2094 0.930 . S
H2087 C2095 0.930 . S
H2088 C2098 0.930 . S
H2089 C2099 0.930 . S
C2090 H2084 0.930 . S
C2090 C2091 1.355 . S
C2090 C2092 1.415 . S
C2091 C2090 1.355 . S
C2091 C2093 1.419 . S
C2092 C2090 1.415 . S
C2092 C2097 1.425 1_455 S
C2092 C2099 1.409 . S
C2093 H2085 0.930 . S
C2093 C2091 1.419 . S
C2093 C2094 1.362 1_455 S
C2094 H2086 0.930 . S
C2094 C2093 1.362 1_655 S
C2094 C2097 1.409 . S
C2095 H2087 0.930 . S
C2095 C2096 1.355 . S
C2095 C2097 1.415 . S
C2096 C2095 1.355 . S
C2096 C2098 1.419 . S
C2097 C2092 1.425 1_655 S
C2097 C2094 1.409 . S
C2097 C2095 1.415 . S
C2098 H2088 0.930 . S
C2098 C2096 1.419 . S
C2098 C2099 1.362 1_655 S
C2099 H2089 0.930 . S
C2099 C2092 1.409 . S
C2099 C2098 1.362 1_455 S
H2100 C2106 0.930 . S
H2101 C2109 0.930 . S
H2102 C2110 0.930 . S
H2103 C2111 0.930 . S
H2104 C2114 0.930 . S
H2105 C2115 0.930 . S
C2106 H2100 0.930 . S
C2106 C2107 1.355 . S
C2106 C2108 1.415 . S
C2107 C2106 1.355 . S
C2107 C2109 1.419 . S
C2108 C2106 1.415 . S
C2108 C2113 1.425 . S
C2108 C2115 1.409 . S
C2109 H2101 0.930 . S
C2109 C2107 1.419 . S
C2109 C2110 1.362 . S
C2110 H2102 0.930 . S
C2110 C2109 1.362 . S
C2110 C2113 1.409 . S
C2111 H2103 0.930 . S
C2111 C2112 1.355 . S
C2111 C2113 1.415 . S
C2112 C2111 1.355 . S
C2112 C2114 1.419 . S
C2113 C2108 1.425 . S
C2113 C2110 1.409 . S
C2113 C2111 1.415 . S
C2114 H2104 0.930 . S
C2114 C2112 1.419 . S
C2114 C2115 1.362 . S
C2115 H2105 0.930 . S
C2115 C2108 1.409 . S
C2115 C2114 1.362 . S
H2116 C2122 0.930 . S
H2117 C2125 0.930 . S
H2118 C2126 0.930 . S
H2119 C2127 0.930 . S
H2120 C2130 0.930 . S
H2121 C2131 0.930 . S
C2122 H2116 0.930 . S
C2122 C2123 1.355 . S
C2122 C2124 1.380 1_545 S
C2123 C2122 1.355 . S
C2123 C2125 1.419 . S
C2124 C2122 1.380 1_565 S
C2124 C2129 1.465 1_565 S
C2124 C2131 1.428 . S
C2125 H2117 0.930 . S
C2125 C2123 1.419 . S
C2125 C2126 1.362 . S
C2126 H2118 0.930 . S
C2126 C2125 1.362 . S
C2126 C2129 1.428 . S
C2127 H2119 0.930 . S
C2127 C2128 1.355 . S
C2127 C2129 1.380 1_565 S
C2128 C2127 1.355 . S
C2128 C2130 1.419 . S
C2129 C2124 1.465 1_545 S
C2129 C2126 1.428 . S
C2129 C2127 1.380 1_545 S
C2130 H2120 0.930 . S
C2130 C2128 1.419 . S
C2130 C2131 1.362 . S
C2131 H2121 0.930 . S
C2131 C2124 1.428 . S
C2131 C2130 1.362 . S
H2132 C2138 0.930 . S
H2133 C2141 0.930 . S
H2134 C2142 0.930 . S
H2135 C2143 0.930 . S
H2136 C2146 0.930 . S
H2137 C2147 0.930 . S
C2138 H2132 0.930 . S
C2138 C2139 1.355 . S
C2138 C2140 1.415 . S
C2139 C2138 1.355 . S
C2139 C2141 1.419 . S
C2140 C2138 1.415 . S
C2140 C2145 1.425 1_655 S
C2140 C2147 1.409 . S
C2141 H2133 0.930 . S
C2141 C2139 1.419 . S
C2141 C2142 1.362 1_655 S
C2142 H2134 0.930 . S
C2142 C2141 1.362 1_455 S
C2142 C2145 1.409 . S
C2143 H2135 0.930 . S
C2143 C2144 1.355 . S
C2143 C2145 1.415 . S
C2144 C2143 1.355 . S
C2144 C2146 1.419 . S
C2145 C2140 1.425 1_455 S
C2145 C2142 1.409 . S
C2145 C2143 1.415 . S
C2146 H2136 0.930 . S
C2146 C2144 1.419 . S
C2146 C2147 1.362 1_455 S
C2147 H2137 0.930 . S
C2147 C2140 1.409 . S
C2147 C2146 1.362 1_655 S
H2148 C2154 0.930 . S
H2149 C2157 0.930 . S
H2150 C2158 0.930 . S
H2151 C2159 0.930 . S
H2152 C2162 0.930 . S
H2153 C2163 0.930 . S
C2154 H2148 0.930 . S
C2154 C2155 1.355 . S
C2154 C2156 1.415 . S
C2155 C2154 1.355 . S
C2155 C2157 1.419 . S
C2156 C2154 1.415 . S
C2156 C2161 1.425 . S
C2156 C2163 1.409 . S
C2157 H2149 0.930 . S
C2157 C2155 1.419 . S
C2157 C2158 1.362 . S
C2158 H2150 0.930 . S
C2158 C2157 1.362 . S
C2158 C2161 1.409 . S
C2159 H2151 0.930 . S
C2159 C2160 1.355 . S
C2159 C2161 1.415 . S
C2160 C2159 1.355 . S
C2160 C2162 1.419 1_554 S
C2161 C2156 1.425 . S
C2161 C2158 1.409 . S
C2161 C2159 1.415 . S
C2162 H2152 0.930 . S
C2162 C2160 1.419 1_556 S
C2162 C2163 1.362 1_556 S
C2163 H2153 0.930 . S
C2163 C2156 1.409 . S
C2163 C2162 1.362 1_554 S
H2164 C2170 0.930 . S
H2165 C2173 0.930 . S
H2166 C2174 0.930 . S
H2167 C2175 0.930 . S
H2168 C2178 0.930 1_556 S
H2169 C2179 0.930 . S
C2170 H2164 0.930 . S
C2170 C2171 1.355 . S
C2170 C2172 1.415 . S
C2171 C2170 1.355 . S
C2171 C2173 1.419 . S
C2172 C2170 1.415 . S
C2172 C2177 1.425 . S
C2172 C2179 1.409 . S
C2173 H2165 0.930 . S
C2173 C2171 1.419 . S
C2173 C2174 1.362 . S
C2174 H2166 0.930 . S
C2174 C2173 1.362 . S
C2174 C2177 1.409 . S
C2175 H2167 0.930 . S
C2175 C2176 1.355 . S
C2175 C2177 1.415 . S
C2176 C2175 1.355 . S
C2176 C2178 1.419 . S
C2177 C2172 1.425 . S
C2177 C2174 1.409 . S
C2177 C2175 1.415 . S
C2178 H2168 0.930 1_554 S
C2178 C2176 1.419 . S
C2178 C2179 1.362 . S
C2179 H2169 0.930 . S
C2179 C2172 1.409 . S
C2179 C2178 1.362 . S
H2180 C2186 0.930 . S
H2181 C2189 0.930 . S
H2182 C2190 0.930 1_556 S
H2183 C2191 0.930 . S
H2184 C2194 0.930 . S
H2185 C2195 0.930 . S
C2186 H2180 0.930 . S
C2186 C2187 1.355 . S
C2186 C2188 1.415 . S
C2187 C2186 1.355 . S
C2187 C2189 1.419 1_554 S
C2188 C2186 1.415 . S
C2188 C2193 1.425 . S
C2188 C2195 1.409 . S
C2189 H2181 0.930 . S
C2189 C2187 1.419 1_556 S
C2189 C2190 1.362 1_556 S
C2190 H2182 0.930 1_554 S
C2190 C2189 1.362 1_554 S
C2190 C2193 1.409 . S
C2191 H2183 0.930 . S
C2191 C2192 1.355 . S
C2191 C2193 1.415 . S
C2192 C2191 1.355 . S
C2192 C2194 1.419 . S
C2193 C2188 1.425 . S
C2193 C2190 1.409 . S
C2193 C2191 1.415 . S
C2194 H2184 0.930 . S
C2194 C2192 1.419 . S
C2194 C2195 1.362 . S
C2195 H2185 0.930 . S
C2195 C2188 1.409 . S
C2195 C2194 1.362 . S
H2196 C2202 0.930 . S
H2197 C2205 0.930 . S
H2198 C2206 0.930 . S
H2199 C2207 0.930 . S
H2200 C2210 0.930 . S
H2201 C2211 0.930 . S
C2202 H2196 0.930 . S
C2202 C2203 1.355 . S
C2202 C2204 1.415 . S
C2203 C2202 1.355 . S
C2203 C2205 1.419 . S
C2204 C2202 1.415 . S
C2204 C2209 1.425 . S
C2204 C2211 1.409 . S
C2205 H2197 0.930 . S
C2205 C2203 1.419 . S
C2205 C2206 1.362 . S
C2206 H2198 0.930 . S
C2206 C2205 1.362 . S
C2206 C2209 1.409 . S
C2207 H2199 0.930 . S
C2207 C2208 1.355 . S
C2207 C2209 1.415 . S
C2208 C2207 1.355 . S
C2208 C2210 1.419 . S
C2209 C2204 1.425 . S
C2209 C2206 1.409 . S
C2209 C2207 1.415 . S
C2210 H2200 0.930 . S
C2210 C2208 1.419 . S
C2210 C2211 1.362 . S
C2211 H2201 0.930 . S
C2211 C2204 1.409 . S
C2211 C2210 1.362 . S
H2212 C2218 0.930 . S
H2213 C2221 0.930 . S
H2214 C2222 0.930 . S
H2215 C2223 0.930 . S
H2216 C2226 0.930 . S
H2217 C2227 0.930 . S
C2218 H2212 0.930 . S
C2218 C2219 1.355 . S
C2218 C2220 1.415 . S
C2219 C2218 1.355 . S
C2219 C2221 1.419 . S
C2220 C2218 1.415 . S
C2220 C2225 1.425 . S
C2220 C2227 1.409 . S
C2221 H2213 0.930 . S
C2221 C2219 1.419 . S
C2221 C2222 1.362 . S
C2222 H2214 0.930 . S
C2222 C2221 1.362 . S
C2222 C2225 1.409 . S
C2223 H2215 0.930 . S
C2223 C2224 1.355 . S
C2223 C2225 1.415 . S
C2224 C2223 1.355 . S
C2224 C2226 1.419 . S
C2225 C2220 1.425 . S
C2225 C2222 1.409 . S
C2225 C2223 1.415 . S
C2226 H2216 0.930 . S
C2226 C2224 1.419 . S
C2226 C2227 1.362 . S
C2227 H2217 0.930 . S
C2227 C2220 1.409 . S
C2227 C2226 1.362 . S
H2228 C2234 0.930 . S
H2229 C2237 0.930 . S
H2230 C2238 0.930 . S
H2231 C2239 0.930 . S
H2232 C2242 0.930 . S
H2233 C2243 0.930 . S
C2234 H2228 0.930 . S
C2234 C2235 1.355 . S
C2234 C2236 1.415 . S
C2235 C2234 1.355 . S
C2235 C2237 1.419 . S
C2236 C2234 1.415 . S
C2236 C2241 1.425 . S
C2236 C2243 1.409 . S
C2237 H2229 0.930 . S
C2237 C2235 1.419 . S
C2237 C2238 1.362 . S
C2238 H2230 0.930 . S
C2238 C2237 1.362 . S
C2238 C2241 1.409 . S
C2239 H2231 0.930 . S
C2239 C2240 1.355 . S
C2239 C2241 1.415 . S
C2240 C2239 1.355 . S
C2240 C2242 1.419 . S
C2241 C2236 1.425 . S
C2241 C2238 1.409 . S
C2241 C2239 1.415 . S
C2242 H2232 0.930 . S
C2242 C2240 1.419 . S
C2242 C2243 1.362 . S
C2243 H2233 0.930 . S
C2243 C2236 1.409 . S
C2243 C2242 1.362 . S
H2244 C2250 0.930 . S
H2245 C2253 0.930 . S
H2246 C2254 0.930 . S
H2247 C2255 0.930 . S
H2248 C2258 0.930 . S
H2249 C2259 0.930 . S
C2250 H2244 0.930 . S
C2250 C2251 1.355 . S
C2250 C2252 1.415 . S
C2251 C2250 1.355 . S
C2251 C2253 1.419 . S
C2252 C2250 1.415 . S
C2252 C2257 1.425 . S
C2252 C2259 1.409 . S
C2253 H2245 0.930 . S
C2253 C2251 1.419 . S
C2253 C2254 1.362 . S
C2254 H2246 0.930 . S
C2254 C2253 1.362 . S
C2254 C2257 1.409 . S
C2255 H2247 0.930 . S
C2255 C2256 1.355 . S
C2255 C2257 1.415 . S
C2256 C2255 1.355 . S
C2256 C2258 1.419 . S
C2257 C2252 1.425 . S
C2257 C2254 1.409 . S
C2257 C2255 1.415 . S
C2258 H2248 0.930 . S
C2258 C2256 1.419 . S
C2258 C2259 1.362 . S
C2259 H2249 0.930 . S
C2259 C2252 1.409 . S
C2259 C2258 1.362 . S
H2260 C2266 0.930 . S
H2261 C2269 0.930 . S
H2262 C2270 0.930 . S
H2263 C2271 0.930 . S
H2264 C2274 0.930 . S
H2265 C2275 0.930 . S
C2266 H2260 0.930 . S
C2266 C2267 1.355 . S
C2266 C2268 1.415 . S
C2267 C2266 1.355 . S
C2267 C2269 1.419 . S
C2268 C2266 1.415 . S
C2268 C2273 1.425 . S
C2268 C2275 1.409 . S
C2269 H2261 0.930 . S
C2269 C2267 1.419 . S
C2269 C2270 1.362 . S
C2270 H2262 0.930 . S
C2270 C2269 1.362 . S
C2270 C2273 1.409 . S
C2271 H2263 0.930 . S
C2271 C2272 1.355 . S
C2271 C2273 1.415 . S
C2272 C2271 1.355 . S
C2272 C2274 1.419 . S
C2273 C2268 1.425 . S
C2273 C2270 1.409 . S
C2273 C2271 1.415 . S
C2274 H2264 0.930 . S
C2274 C2272 1.419 . S
C2274 C2275 1.362 . S
C2275 H2265 0.930 . S
C2275 C2268 1.409 . S
C2275 C2274 1.362 . S
H2276 C2282 0.930 . S
H2277 C2285 0.930 . S
H2278 C2286 0.930 . S
H2279 C2287 0.930 . S
H2280 C2290 0.930 . S
H2281 C2291 0.930 . S
C2282 H2276 0.930 . S
C2282 C2283 1.355 . S
C2282 C2284 1.415 . S
C2283 C2282 1.355 . S
C2283 C2285 1.419 . S
C2284 C2282 1.415 . S
C2284 C2289 1.425 . S
C2284 C2291 1.409 . S
C2285 H2277 0.930 . S
C2285 C2283 1.419 . S
C2285 C2286 1.362 . S
C2286 H2278 0.930 . S
C2286 C2285 1.362 . S
C2286 C2289 1.409 . S
C2287 H2279 0.930 . S
C2287 C2288 1.355 . S
C2287 C2289 1.415 . S
C2288 C2287 1.355 . S
C2288 C2290 1.419 . S
C2289 C2284 1.425 . S
C2289 C2286 1.409 . S
C2289 C2287 1.415 . S
C2290 H2280 0.930 . S
C2290 C2288 1.419 . S
C2290 C2291 1.362 . S
C2291 H2281 0.930 . S
C2291 C2284 1.409 . S
C2291 C2290 1.362 . S
H2292 C2298 0.930 . S
H2293 C2301 0.930 . S
H2294 C2302 0.930 . S
H2295 C2303 0.930 . S
H2296 C2306 0.930 . S
H2297 C2307 0.930 . S
C2298 H2292 0.930 . S
C2298 C2299 1.355 1_556 S
C2298 C2300 1.415 . S
C2299 C2298 1.355 1_554 S
C2299 C2301 1.419 . S
C2300 C2298 1.415 . S
C2300 C2305 1.425 . S
C2300 C2307 1.409 . S
C2301 H2293 0.930 . S
C2301 C2299 1.419 . S
C2301 C2302 1.362 . S
C2302 H2294 0.930 . S
C2302 C2301 1.362 . S
C2302 C2305 1.409 1_554 S
C2303 H2295 0.930 . S
C2303 C2304 1.355 . S
C2303 C2305 1.415 . S
C2304 C2303 1.355 . S
C2304 C2306 1.419 . S
C2305 C2300 1.425 . S
C2305 C2302 1.409 1_556 S
C2305 C2303 1.415 . S
C2306 H2296 0.930 . S
C2306 C2304 1.419 . S
C2306 C2307 1.362 . S
C2307 H2297 0.930 . S
C2307 C2300 1.409 . S
C2307 C2306 1.362 . S
H2308 C2314 0.930 . S
H2309 C2317 0.930 . S
H2310 C2318 0.930 . S
H2311 C2319 0.930 . S
H2312 C2322 0.930 . S
H2313 C2323 0.930 1_554 S
C2314 H2308 0.930 . S
C2314 C2315 1.355 . S
C2314 C2316 1.415 1_554 S
C2315 C2314 1.355 . S
C2315 C2317 1.419 1_554 S
C2316 C2314 1.415 1_556 S
C2316 C2321 1.425 . S
C2316 C2323 1.409 . S
C2317 H2309 0.930 . S
C2317 C2315 1.419 1_556 S
C2317 C2318 1.362 . S
C2318 H2310 0.930 . S
C2318 C2317 1.362 . S
C2318 C2321 1.409 . S
C2319 H2311 0.930 . S
C2319 C2320 1.355 . S
C2319 C2321 1.415 . S
C2320 C2319 1.355 . S
C2320 C2322 1.419 . S
C2321 C2316 1.425 . S
C2321 C2318 1.409 . S
C2321 C2319 1.415 . S
C2322 H2312 0.930 . S
C2322 C2320 1.419 . S
C2322 C2323 1.362 . S
C2323 H2313 0.930 1_556 S
C2323 C2316 1.409 . S
C2323 C2322 1.362 . S
H2324 C2330 0.930 . S
H2325 C2333 0.930 . S
H2326 C2334 0.930 . S
H2327 C2335 0.930 . S
H2328 C2338 0.930 . S
H2329 C2339 0.930 . S
C2330 H2324 0.930 . S
C2330 C2331 1.355 1_556 S
C2330 C2332 1.415 . S
C2331 C2330 1.355 1_554 S
C2331 C2333 1.419 . S
C2332 C2330 1.415 . S
C2332 C2337 1.425 . S
C2332 C2339 1.409 . S
C2333 H2325 0.930 . S
C2333 C2331 1.419 . S
C2333 C2334 1.362 . S
C2334 H2326 0.930 . S
C2334 C2333 1.362 . S
C2334 C2337 1.409 1_554 S
C2335 H2327 0.930 . S
C2335 C2336 1.355 . S
C2335 C2337 1.415 . S
C2336 C2335 1.355 . S
C2336 C2338 1.419 . S
C2337 C2332 1.425 . S
C2337 C2334 1.409 1_556 S
C2337 C2335 1.415 . S
C2338 H2328 0.930 . S
C2338 C2336 1.419 . S
C2338 C2339 1.362 . S
C2339 H2329 0.930 . S
C2339 C2332 1.409 . S
C2339 C2338 1.362 . S
H2340 C2346 0.930 . S
H2341 C2349 0.930 . S
H2342 C2350 0.930 . S
H2343 C2351 0.930 . S
H2344 C2354 0.930 . S
H2345 C2355 0.930 . S
C2346 H2340 0.930 . S
C2346 C2347 1.355 . S
C2346 C2348 1.415 . S
C2347 C2346 1.355 . S
C2347 C2349 1.419 . S
C2348 C2346 1.415 . S
C2348 C2353 1.425 . S
C2348 C2355 1.409 . S
C2349 H2341 0.930 . S
C2349 C2347 1.419 . S
C2349 C2350 1.362 . S
C2350 H2342 0.930 . S
C2350 C2349 1.362 . S
C2350 C2353 1.409 . S
C2351 H2343 0.930 . S
C2351 C2352 1.355 . S
C2351 C2353 1.415 . S
C2352 C2351 1.355 . S
C2352 C2354 1.419 . S
C2353 C2348 1.425 . S
C2353 C2350 1.409 . S
C2353 C2351 1.415 . S
C2354 H2344 0.930 . S
C2354 C2352 1.419 . S
C2354 C2355 1.362 . S
C2355 H2345 0.930 . S
C2355 C2348 1.409 . S
C2355 C2354 1.362 . S
H2356 C2362 0.933 . S
H2357 C2365 0.930 . S
H2358 C2366 0.930 . S
H2359 C2367 0.930 . S
H2360 C2370 0.930 . S
H2361 C2371 0.930 . S
C2362 H2356 0.933 . S
C2362 C2363 1.355 . S
C2362 C2364 1.415 . S
C2363 C2362 1.355 . S
C2363 C2365 1.419 . S
C2364 C2362 1.415 . S
C2364 C2369 1.425 . S
C2364 C2371 1.409 . S
C2365 H2357 0.930 . S
C2365 C2363 1.419 . S
C2365 C2366 1.362 . S
C2366 H2358 0.930 . S
C2366 C2365 1.362 . S
C2366 C2369 1.409 . S
C2367 H2359 0.930 . S
C2367 C2368 1.355 . S
C2367 C2369 1.415 . S
C2368 C2367 1.355 . S
C2368 C2370 1.419 . S
C2369 C2364 1.425 . S
C2369 C2366 1.409 . S
C2369 C2367 1.415 . S
C2370 H2360 0.930 . S
C2370 C2368 1.419 . S
C2370 C2371 1.362 . S
C2371 H2361 0.930 . S
C2371 C2364 1.409 . S
C2371 C2370 1.362 . S
H2372 C2378 0.930 . S
H2373 C2381 0.930 1_554 S
H2374 C2382 0.930 . S
H2375 C2383 0.930 . S
H2376 C2386 0.930 . S
H2377 C2387 0.930 . S
C2378 H2372 0.930 . S
C2378 C2379 1.355 . S
C2378 C2380 1.415 . S
C2379 C2378 1.355 . S
C2379 C2381 1.419 . S
C2380 C2378 1.415 . S
C2380 C2385 1.425 . S
C2380 C2387 1.409 . S
C2381 H2373 0.930 1_556 S
C2381 C2379 1.419 . S
C2381 C2382 1.362 1_556 S
C2382 H2374 0.930 . S
C2382 C2381 1.362 1_554 S
C2382 C2385 1.409 1_554 S
C2383 H2375 0.930 . S
C2383 C2384 1.355 1_554 S
C2383 C2385 1.415 1_554 S
C2384 C2383 1.355 1_556 S
C2384 C2386 1.419 . S
C2385 C2380 1.425 . S
C2385 C2382 1.409 1_556 S
C2385 C2383 1.415 1_556 S
C2386 H2376 0.930 . S
C2386 C2384 1.419 . S
C2386 C2387 1.362 . S
C2387 H2377 0.930 . S
C2387 C2380 1.409 . S
C2387 C2386 1.362 . S
H2388 C2394 0.930 . S
H2389 C2397 0.930 . S
H2390 C2398 0.930 . S
H2391 C2399 0.930 . S
H2392 C2402 0.930 . S
H2393 C2403 0.930 . S
C2394 H2388 0.930 . S
C2394 C2395 1.355 . S
C2394 C2396 1.415 . S
C2395 C2394 1.355 . S
C2395 C2397 1.419 . S
C2396 C2394 1.415 . S
C2396 C2401 1.425 . S
C2396 C2403 1.409 . S
C2397 H2389 0.930 . S
C2397 C2395 1.419 . S
C2397 C2398 1.362 . S
C2398 H2390 0.930 . S
C2398 C2397 1.362 . S
C2398 C2401 1.409 . S
C2399 H2391 0.930 . S
C2399 C2400 1.355 . S
C2399 C2401 1.415 . S
C2400 C2399 1.355 . S
C2400 C2402 1.419 . S
C2401 C2396 1.425 . S
C2401 C2398 1.409 . S
C2401 C2399 1.415 . S
C2402 H2392 0.930 . S
C2402 C2400 1.419 . S
C2402 C2403 1.362 . S
C2403 H2393 0.930 . S
C2403 C2396 1.409 . S
C2403 C2402 1.362 . S
H2404 C2410 0.930 . S
H2405 C2413 0.930 . S
H2406 C2414 0.930 . S
H2407 C2415 0.930 . S
H2408 C2418 0.930 . S
H2409 C2419 0.930 . S
C2410 H2404 0.930 . S
C2410 C2411 1.355 . S
C2410 C2412 1.415 . S
C2411 C2410 1.355 . S
C2411 C2413 1.419 . S
C2412 C2410 1.415 . S
C2412 C2417 1.425 . S
C2412 C2419 1.409 . S
C2413 H2405 0.930 . S
C2413 C2411 1.419 . S
C2413 C2414 1.362 . S
C2414 H2406 0.930 . S
C2414 C2413 1.362 . S
C2414 C2417 1.409 . S
C2415 H2407 0.930 . S
C2415 C2416 1.355 . S
C2415 C2417 1.415 . S
C2416 C2415 1.355 . S
C2416 C2418 1.419 . S
C2417 C2412 1.425 . S
C2417 C2414 1.409 . S
C2417 C2415 1.415 . S
C2418 H2408 0.930 . S
C2418 C2416 1.419 . S
C2418 C2419 1.362 . S
C2419 H2409 0.930 . S
C2419 C2412 1.409 . S
C2419 C2418 1.362 . S
H2420 C2426 0.930 . S
H2421 C2429 0.930 . S
H2422 C2430 0.930 . S
H2423 C2431 0.930 . S
H2424 C2434 0.930 . S
H2425 C2435 0.930 . S
C2426 H2420 0.930 . S
C2426 C2427 1.355 . S
C2426 C2428 1.415 . S
C2427 C2426 1.355 . S
C2427 C2429 1.419 . S
C2428 C2426 1.415 . S
C2428 C2433 1.425 . S
C2428 C2435 1.409 . S
C2429 H2421 0.930 . S
C2429 C2427 1.419 . S
C2429 C2430 1.362 . S
C2430 H2422 0.930 . S
C2430 C2429 1.362 . S
C2430 C2433 1.409 . S
C2431 H2423 0.930 . S
C2431 C2432 1.355 . S
C2431 C2433 1.415 . S
C2432 C2431 1.355 . S
C2432 C2434 1.419 . S
C2433 C2428 1.425 . S
C2433 C2430 1.409 . S
C2433 C2431 1.415 . S
C2434 H2424 0.930 . S
C2434 C2432 1.419 . S
C2434 C2435 1.362 . S
C2435 H2425 0.930 . S
C2435 C2428 1.409 . S
C2435 C2434 1.362 . S
H2436 C2442 0.930 . S
H2437 C2445 0.930 . S
H2438 C2446 0.930 . S
H2439 C2447 0.930 . S
H2440 C2450 0.930 1_556 S
H2441 C2451 0.930 1_556 S
C2442 H2436 0.930 . S
C2442 C2443 1.355 . S
C2442 C2444 1.415 . S
C2443 C2442 1.355 . S
C2443 C2445 1.419 . S
C2444 C2442 1.415 . S
C2444 C2449 1.425 . S
C2444 C2451 1.409 . S
C2445 H2437 0.930 . S
C2445 C2443 1.419 . S
C2445 C2446 1.362 . S
C2446 H2438 0.930 . S
C2446 C2445 1.362 . S
C2446 C2449 1.409 . S
C2447 H2439 0.930 . S
C2447 C2448 1.355 . S
C2447 C2449 1.415 . S
C2448 C2447 1.355 . S
C2448 C2450 1.419 . S
C2449 C2444 1.425 . S
C2449 C2446 1.409 . S
C2449 C2447 1.415 . S
C2450 H2440 0.930 1_554 S
C2450 C2448 1.419 . S
C2450 C2451 1.362 . S
C2451 H2441 0.930 1_554 S
C2451 C2444 1.409 . S
C2451 C2450 1.362 . S
H2452 C2458 0.930 . S
H2453 C2461 0.930 . S
H2454 C2462 0.930 . S
H2455 C2463 0.930 . S
H2456 C2466 0.930 . S
H2457 C2467 0.930 . S
C2458 H2452 0.930 . S
C2458 C2459 1.355 . S
C2458 C2460 1.415 . S
C2459 C2458 1.355 . S
C2459 C2461 1.419 . S
C2460 C2458 1.415 . S
C2460 C2465 1.425 . S
C2460 C2467 1.409 . S
C2461 H2453 0.930 . S
C2461 C2459 1.419 . S
C2461 C2462 1.362 . S
C2462 H2454 0.930 . S
C2462 C2461 1.362 . S
C2462 C2465 1.409 . S
C2463 H2455 0.930 . S
C2463 C2464 1.355 . S
C2463 C2465 1.415 . S
C2464 C2463 1.355 . S
C2464 C2466 1.419 . S
C2465 C2460 1.425 . S
C2465 C2462 1.409 . S
C2465 C2463 1.415 . S
C2466 H2456 0.930 . S
C2466 C2464 1.419 . S
C2466 C2467 1.362 . S
C2467 H2457 0.930 . S
C2467 C2460 1.409 . S
C2467 C2466 1.362 . S
H2468 C2474 0.930 . S
H2469 C2477 0.930 . S
H2470 C2478 0.930 . S
H2471 C2479 0.930 . S
H2472 C2482 0.930 . S
H2473 C2483 0.930 . S
C2474 H2468 0.930 . S
C2474 C2475 1.355 . S
C2474 C2476 1.415 . S
C2475 C2474 1.355 . S
C2475 C2477 1.419 . S
C2476 C2474 1.415 . S
C2476 C2481 1.425 . S
C2476 C2483 1.409 . S
C2477 H2469 0.930 . S
C2477 C2475 1.419 . S
C2477 C2478 1.362 . S
C2478 H2470 0.930 . S
C2478 C2477 1.362 . S
C2478 C2481 1.409 . S
C2479 H2471 0.930 . S
C2479 C2480 1.355 . S
C2479 C2481 1.415 . S
C2480 C2479 1.355 . S
C2480 C2482 1.419 . S
C2481 C2476 1.425 . S
C2481 C2478 1.409 . S
C2481 C2479 1.415 . S
C2482 H2472 0.930 . S
C2482 C2480 1.419 . S
C2482 C2483 1.362 . S
C2483 H2473 0.930 . S
C2483 C2476 1.409 . S
C2483 C2482 1.362 . S
H2484 C2490 0.930 . S
H2485 C2493 0.930 . S
H2486 C2494 0.930 . S
H2487 C2495 0.930 . S
H2488 C2498 0.930 . S
H2489 C2499 0.930 . S
C2490 H2484 0.930 . S
C2490 C2491 1.355 . S
C2490 C2492 1.415 . S
C2491 C2490 1.355 . S
C2491 C2493 1.419 . S
C2492 C2490 1.415 . S
C2492 C2497 1.425 . S
C2492 C2499 1.409 . S
C2493 H2485 0.930 . S
C2493 C2491 1.419 . S
C2493 C2494 1.362 . S
C2494 H2486 0.930 . S
C2494 C2493 1.362 . S
C2494 C2497 1.409 . S
C2495 H2487 0.930 . S
C2495 C2496 1.355 . S
C2495 C2497 1.415 . S
C2496 C2495 1.355 . S
C2496 C2498 1.419 . S
C2497 C2492 1.425 . S
C2497 C2494 1.409 . S
C2497 C2495 1.415 . S
C2498 H2488 0.930 . S
C2498 C2496 1.419 . S
C2498 C2499 1.362 . S
C2499 H2489 0.930 . S
C2499 C2492 1.409 . S
C2499 C2498 1.362 . S
H2500 C2506 0.930 . S
H2501 C2509 0.930 . S
H2502 C2510 0.930 . S
H2503 C2511 0.930 . S
H2504 C2514 0.930 . S
H2505 C2515 0.930 . S
C2506 H2500 0.930 . S
C2506 C2507 1.355 . S
C2506 C2508 1.415 . S
C2507 C2506 1.355 . S
C2507 C2509 1.419 . S
C2508 C2506 1.415 . S
C2508 C2513 1.425 . S
C2508 C2515 1.409 . S
C2509 H2501 0.930 . S
C2509 C2507 1.419 . S
C2509 C2510 1.362 . S
C2510 H2502 0.930 . S
C2510 C2509 1.362 . S
C2510 C2513 1.409 . S
C2511 H2503 0.930 . S
C2511 C2512 1.355 . S
C2511 C2513 1.415 . S
C2512 C2511 1.355 . S
C2512 C2514 1.419 . S
C2513 C2508 1.425 . S
C2513 C2510 1.409 . S
C2513 C2511 1.415 . S
C2514 H2504 0.930 . S
C2514 C2512 1.419 . S
C2514 C2515 1.362 . S
C2515 H2505 0.930 . S
C2515 C2508 1.409 . S
C2515 C2514 1.362 . S
H2516 C2522 0.930 . S
H2517 C2525 0.930 . S
H2518 C2526 0.930 . S
H2519 C2527 0.930 . S
H2520 C2530 0.930 . S
H2521 C2531 0.930 . S
C2522 H2516 0.930 . S
C2522 C2523 1.355 . S
C2522 C2524 1.415 . S
C2523 C2522 1.355 . S
C2523 C2525 1.419 . S
C2524 C2522 1.415 . S
C2524 C2529 1.425 . S
C2524 C2531 1.409 . S
C2525 H2517 0.930 . S
C2525 C2523 1.419 . S
C2525 C2526 1.362 . S
C2526 H2518 0.930 . S
C2526 C2525 1.362 . S
C2526 C2529 1.409 . S
C2527 H2519 0.930 . S
C2527 C2528 1.355 . S
C2527 C2529 1.415 . S
C2528 C2527 1.355 . S
C2528 C2530 1.419 . S
C2529 C2524 1.425 . S
C2529 C2526 1.409 . S
C2529 C2527 1.415 . S
C2530 H2520 0.930 . S
C2530 C2528 1.419 . S
C2530 C2531 1.362 . S
C2531 H2521 0.930 . S
C2531 C2524 1.409 . S
C2531 C2530 1.362 . S
H2532 C2538 0.930 . S
H2533 C2541 0.930 . S
H2534 C2542 0.930 . S
H2535 C2543 0.930 . S
H2536 C2546 0.930 . S
H2537 C2547 0.930 . S
C2538 H2532 0.930 . S
C2538 C2539 1.355 . S
C2538 C2540 1.462 . S
C2539 C2538 1.355 . S
C2539 C2541 1.419 . S
C2540 C2538 1.462 . S
C2540 C2545 1.418 1_455 S
C2540 C2547 1.369 1_455 S
C2541 H2533 0.930 . S
C2541 C2539 1.419 . S
C2541 C2542 1.362 . S
C2542 H2534 0.930 . S
C2542 C2541 1.362 . S
C2542 C2545 1.368 1_455 S
C2543 H2535 0.930 . S
C2543 C2544 1.355 . S
C2543 C2545 1.463 . S
C2544 C2543 1.355 . S
C2544 C2546 1.419 . S
C2545 C2540 1.418 1_655 S
C2545 C2542 1.368 1_655 S
C2545 C2543 1.463 . S
C2546 H2536 0.930 . S
C2546 C2544 1.419 . S
C2546 C2547 1.362 . S
C2547 H2537 0.930 . S
C2547 C2540 1.369 1_655 S
C2547 C2546 1.362 . S
H2548 C2554 0.930 . S
H2549 C2557 0.930 . S
H2550 C2558 0.930 . S
H2551 C2559 0.930 . S
H2552 C2562 0.930 . S
H2553 C2563 0.930 . S
C2554 H2548 0.930 . S
C2554 C2555 1.355 . S
C2554 C2556 1.415 . S
C2555 C2554 1.355 . S
C2555 C2557 1.419 . S
C2556 C2554 1.415 . S
C2556 C2561 1.425 . S
C2556 C2563 1.409 . S
C2557 H2549 0.930 . S
C2557 C2555 1.419 . S
C2557 C2558 1.362 . S
C2558 H2550 0.930 . S
C2558 C2557 1.362 . S
C2558 C2561 1.409 . S
C2559 H2551 0.930 . S
C2559 C2560 1.355 . S
C2559 C2561 1.415 . S
C2560 C2559 1.355 . S
C2560 C2562 1.419 . S
C2561 C2556 1.425 . S
C2561 C2558 1.409 . S
C2561 C2559 1.415 . S
C2562 H2552 0.930 . S
C2562 C2560 1.419 . S
C2562 C2563 1.362 . S
C2563 H2553 0.930 . S
C2563 C2556 1.409 . S
C2563 C2562 1.362 . S
H2564 C2570 0.930 . S
H2565 C2573 0.930 . S
H2566 C2574 0.930 1_565 S
H2567 C2575 0.930 . S
H2568 C2578 0.930 . S
H2569 C2579 0.930 1_545 S
C2570 H2564 0.930 . S
C2570 C2571 1.355 . S
C2570 C2572 1.415 . S
C2571 C2570 1.355 . S
C2571 C2573 1.419 . S
C2572 C2570 1.415 . S
C2572 C2577 1.425 1_545 S
C2572 C2579 1.409 1_545 S
C2573 H2565 0.930 . S
C2573 C2571 1.419 . S
C2573 C2574 1.362 . S
C2574 H2566 0.930 1_545 S
C2574 C2573 1.362 . S
C2574 C2577 1.409 1_545 S
C2575 H2567 0.930 . S
C2575 C2576 1.355 . S
C2575 C2577 1.415 . S
C2576 C2575 1.355 . S
C2576 C2578 1.419 . S
C2577 C2572 1.425 1_565 S
C2577 C2574 1.409 1_565 S
C2577 C2575 1.415 . S
C2578 H2568 0.930 . S
C2578 C2576 1.419 . S
C2578 C2579 1.362 . S
C2579 H2569 0.930 1_565 S
C2579 C2572 1.409 1_565 S
C2579 C2578 1.362 . S
H2580 C2586 0.930 . S
H2581 C2589 0.930 . S
H2582 C2590 0.930 . S
H2583 C2591 0.930 . S
H2584 C2594 0.930 . S
H2585 C2595 0.930 . S
C2586 H2580 0.930 . S
C2586 C2587 1.355 . S
C2586 C2588 1.457 . S
C2587 C2586 1.355 . S
C2587 C2589 1.419 . S
C2588 C2586 1.457 . S
C2588 C2593 1.435 1_565 S
C2588 C2595 1.365 1_565 S
C2589 H2581 0.930 . S
C2589 C2587 1.419 . S
C2589 C2590 1.362 . S
C2590 H2582 0.930 . S
C2590 C2589 1.362 . S
C2590 C2593 1.364 1_565 S
C2591 H2583 0.930 . S
C2591 C2592 1.355 . S
C2591 C2593 1.458 . S
C2592 C2591 1.355 . S
C2592 C2594 1.419 . S
C2593 C2588 1.435 1_545 S
C2593 C2590 1.364 1_545 S
C2593 C2591 1.458 . S
C2594 H2584 0.930 . S
C2594 C2592 1.419 . S
C2594 C2595 1.362 . S
C2595 H2585 0.930 . S
C2595 C2588 1.365 1_545 S
C2595 C2594 1.362 . S
H2596 C2602 0.930 . S
H2597 C2605 0.930 . S
H2598 C2606 0.930 1_455 S
H2599 C2607 0.930 . S
H2600 C2610 0.930 . S
H2601 C2611 0.930 1_655 S
C2602 H2596 0.930 . S
C2602 C2603 1.355 . S
C2602 C2604 1.415 . S
C2603 C2602 1.355 . S
C2603 C2605 1.419 . S
C2604 C2602 1.415 . S
C2604 C2609 1.425 1_655 S
C2604 C2611 1.409 1_655 S
C2605 H2597 0.930 . S
C2605 C2603 1.419 . S
C2605 C2606 1.362 . S
C2606 H2598 0.930 1_655 S
C2606 C2605 1.362 . S
C2606 C2609 1.409 1_655 S
C2607 H2599 0.930 . S
C2607 C2608 1.355 . S
C2607 C2609 1.415 . S
C2608 C2607 1.355 . S
C2608 C2610 1.419 . S
C2609 C2604 1.425 1_455 S
C2609 C2606 1.409 1_455 S
C2609 C2607 1.415 . S
C2610 H2600 0.930 . S
C2610 C2608 1.419 . S
C2610 C2611 1.362 . S
C2611 H2601 0.930 1_455 S
C2611 C2604 1.409 1_455 S
C2611 C2610 1.362 . S
H2612 C2618 0.930 . S
H2613 C2621 0.930 . S
H2614 C2622 0.930 . S
H2615 C2623 0.930 . S
H2616 C2626 0.930 . S
H2617 C2627 0.930 . S
C2618 H2612 0.930 . S
C2618 C2619 1.355 . S
C2618 C2620 1.415 . S
C2619 C2618 1.355 . S
C2619 C2621 1.419 . S
C2620 C2618 1.415 . S
C2620 C2625 1.425 . S
C2620 C2627 1.409 . S
C2621 H2613 0.930 . S
C2621 C2619 1.419 . S
C2621 C2622 1.362 . S
C2622 H2614 0.930 . S
C2622 C2621 1.362 . S
C2622 C2625 1.409 . S
C2623 H2615 0.930 . S
C2623 C2624 1.355 . S
C2623 C2625 1.415 . S
C2624 C2623 1.355 . S
C2624 C2626 1.419 . S
C2625 C2620 1.425 . S
C2625 C2622 1.409 . S
C2625 C2623 1.415 . S
C2626 H2616 0.930 . S
C2626 C2624 1.419 . S
C2626 C2627 1.362 . S
C2627 H2617 0.930 . S
C2627 C2620 1.409 . S
C2627 C2626 1.362 . S
C1195 C337 2.101 . S
C1200 C7 2.100 . S
C1211 C370 2.094 . S
C1216 C40 2.093 . S
C1227 C304 2.109 . S
C1232 C73 2.067 . S
C1243 C271 2.097 . S
C1248 C106 2.085 . S
C1259 C205 2.100 . S
C1264 C139 2.100 . S
C1275 C238 2.126 . S
C1280 C172 2.064 . S
C1291 N134 0.619 . S
C1296 N200 0.640 . S
C1307 N233 0.666 . S
C1312 N167 0.610 . S
C1323 N101 0.757 . S
C1328 N266 0.694 . S
C1339 N68 0.753 . S
C1344 N299 0.681 . S
C1355 N332 0.684 . S
C1360 N2 0.617 . S
C1371 N35 0.661 . S
C1376 N365 0.718 . S
C1387 C733 2.116 1_554 S
C1392 C403 2.058 . S
C1403 C436 2.052 . S
C1408 C766 2.124 1_554 S
C1419 C700 2.095 1_554 S
C1424 C469 2.090 . S
C1435 C667 2.108 . S
C1440 C502 2.067 1_554 S
C1451 C601 2.128 . S
C1456 C535 2.058 1_554 S
C1467 C568 2.064 1_554 S
C1472 C634 2.127 . S
C1483 N596 0.643 . S
C1488 N530 0.716 . S
C1499 N563 0.658 . S
C1504 N629 0.626 . S
C1515 N497 0.748 . S
C1520 N662 0.722 . S
C1531 N695 0.628 . S
C1536 N464 0.643 . S
C1547 N728 0.635 . S
C1552 N398 0.627 . S
C1563 N431 0.749 . S
C1568 N761 0.719 . S
C1579 C799 2.078 . S
C1584 C1129 2.101 . S
C1595 C832 2.100 . S
C1600 C1162 2.093 . S
C1611 C865 2.073 . S
C1616 C1096 2.105 . S
C1627 C898 2.071 . S
C1632 C1063 2.105 . S
C1643 C997 2.122 . S
C1648 C931 2.074 . S
C1659 C1030 2.098 . S
C1664 C964 2.082 . S
C1675 N992 0.629 . S
C1680 N926 0.640 . S
C1691 N959 0.687 . S
C1696 N1025 0.630 . S
C1707 N893 0.617 . S
C1712 N1058 0.684 . S
C1723 N1091 0.676 . S
C1728 N860 0.613 . S
C1739 N1124 0.730 . S
C1744 N794 0.729 . S
C1755 N827 0.709 . S
C1760 N1157 0.639 . S
C1771 C117 2.246 . S
C1776 C18 2.241 . S
C1787 C51 2.256 . S
C1792 C150 2.243 . S
C1803 C84 2.253 . S
C1808 C183 2.236 . S
C1819 N310 0.993 . S
C1824 N211 1.037 . S
C1835 N244 1.025 . S
C1840 N343 0.970 . S
C1851 N376 1.038 . S
C1856 N277 1.001 . S
C1867 C414 2.240 . S
C1872 C513 2.245 . S
C1883 C546 2.238 . S
C1888 C447 2.249 . S
C1899 C480 2.256 . S
C1904 C579 2.242 . S
C1915 N607 1.032 . S
C1920 N706 1.025 . S
C1931 N739 1.034 . S
C1936 N640 0.985 . S
C1947 N772 1.036 . S
C1952 N673 0.990 . S
C1963 C810 2.257 . S
C1968 C909 2.237 . S
C1979 C942 2.246 . S
C1984 C843 2.254 . S
C1995 C876 2.242 . S
C2000 C975 2.244 . S
C2011 N1003 1.033 . S
C2016 N1102 0.984 . S
C2027 N1036 1.036 . S
C2032 N1135 1.018 . S
C2043 N1168 1.036 . S
C2048 N1069 0.992 . S
C2059 N112 0.596 . S
C2064 N13 0.519 . S
C2075 N46 0.483 . S
C2080 N145 0.575 . S
C2091 N178 0.600 . S
C2096 N79 0.570 . S
C2107 C315 1.816 . S
C2112 C216 1.826 . S
C2123 C348 1.809 . S
C2128 C249 1.841 . S
C2139 C381 1.841 . S
C2144 C282 1.822 . S
C2155 N409 0.602 . S
C2160 N508 0.539 . S
C2171 N442 0.597 . S
C2176 N541 0.520 . S
C2187 N574 0.602 . S
C2192 N475 0.558 . S
C2203 C612 1.810 . S
C2208 C711 1.838 . S
C2219 C744 1.811 . S
C2224 C645 1.843 . S
C2235 C777 1.827 . S
C2240 C678 1.838 . S
C2251 N805 0.539 . S
C2256 N904 0.602 . S
C2267 N838 0.596 . S
C2272 N937 0.579 . S
C2283 N970 0.463 . S
C2288 N871 0.553 . S
C2299 C1107 1.841 . S
C2304 C1008 1.826 . S
C2315 C1140 1.811 . S
C2320 C1041 1.831 . S
C2331 C1173 1.833 . S
C2336 C1074 1.834 . S
C2347 C21 1.484 . S
C2352 C549 1.500 . S
C2363 C54 1.484 . S
C2368 C582 1.500 . S
C2379 C516 1.487 . S
C2384 C87 1.487 . S
C2395 C879 1.483 . S
C2400 C120 1.495 . S
C2411 C153 1.505 . S
C2416 C813 1.515 . S
C2427 C186 1.491 . S
C2432 C846 1.511 . S
C2443 C1143 1.522 . S
C2448 C219 1.509 . S
C2459 C1176 1.500 . S
C2464 C252 1.488 . S
C2475 C285 1.489 . S
C2480 C1110 1.506 . S
C2491 C681 1.491 . S
C2496 C318 1.491 . S
C2507 C351 1.489 . S
C2512 C615 1.505 . S
C2523 C648 1.490 . S
C2528 C384 1.509 . S
C2539 C945 1.492 . S
C2544 C417 1.484 . S
C2555 C978 1.513 . S
C2560 C450 1.509 . S
C2571 C483 1.494 . S
C2576 C912 1.513 . S
C2587 C1077 1.488 . S
C2592 C714 1.499 . S
C2603 C747 1.521 . S
C2608 C1011 1.517 . S
C2619 C780 1.507 . S
C2624 C1044 1.522 . S
