# Generated by pormake.
# Topology whp, (6)-cn, num edge types: 1
# Building blocks:
#     Node 0, Type 0, BuildingBlock: OJICUG_clean_sbu_0, # of connection points: 6
#     Node 1, Type 0, BuildingBlock: OJICUG_clean_sbu_0, # of connection points: 6
#     Node 2, Type 0, BuildingBlock: OJICUG_clean_sbu_0, # of connection points: 6
#     Node 3, Type 0, BuildingBlock: OJICUG_clean_sbu_0, # of connection points: 6
#     Node 4, Type 0, BuildingBlock: OJICUG_clean_sbu_0, # of connection points: 6
#     Node 5, Type 0, BuildingBlock: OJICUG_clean_sbu_0, # of connection points: 6
#     Node 6, Type 0, BuildingBlock: OJICUG_clean_sbu_0, # of connection points: 6
#     Node 7, Type 0, BuildingBlock: OJICUG_clean_sbu_0, # of connection points: 6
#     Node 8, Type 0, BuildingBlock: OJICUG_clean_sbu_0, # of connection points: 6
#     Node 9, Type 0, BuildingBlock: OJICUG_clean_sbu_0, # of connection points: 6
#     Node 10, Type 0, BuildingBlock: OJICUG_clean_sbu_0, # of connection points: 6
#     Node 11, Type 0, BuildingBlock: OJICUG_clean_sbu_0, # of connection points: 6
#     Node 12, Type 0, BuildingBlock: OJICUG_clean_sbu_0, # of connection points: 6
#     Node 13, Type 0, BuildingBlock: OJICUG_clean_sbu_0, # of connection points: 6
#     Node 14, Type 0, BuildingBlock: OJICUG_clean_sbu_0, # of connection points: 6
#     Node 15, Type 0, BuildingBlock: OJICUG_clean_sbu_0, # of connection points: 6
#     Edge 16, Type (0, 0), BuildingBlock: UVAHIK_clean_linker_0, # of connection points: 2
#     Edge 17, Type (0, 0), BuildingBlock: UVAHIK_clean_linker_0, # of connection points: 2
#     Edge 18, Type (0, 0), BuildingBlock: UVAHIK_clean_linker_0, # of connection points: 2
#     Edge 19, Type (0, 0), BuildingBlock: UVAHIK_clean_linker_0, # of connection points: 2
#     Edge 20, Type (0, 0), BuildingBlock: UVAHIK_clean_linker_0, # of connection points: 2
#     Edge 21, Type (0, 0), BuildingBlock: UVAHIK_clean_linker_0, # of connection points: 2
#     Edge 22, Type (0, 0), BuildingBlock: UVAHIK_clean_linker_0, # of connection points: 2
#     Edge 23, Type (0, 0), BuildingBlock: UVAHIK_clean_linker_0, # of connection points: 2
#     Edge 24, Type (0, 0), BuildingBlock: UVAHIK_clean_linker_0, # of connection points: 2
#     Edge 25, Type (0, 0), BuildingBlock: UVAHIK_clean_linker_0, # of connection points: 2
#     Edge 26, Type (0, 0), BuildingBlock: UVAHIK_clean_linker_0, # of connection points: 2
#     Edge 27, Type (0, 0), BuildingBlock: UVAHIK_clean_linker_0, # of connection points: 2
#     Edge 28, Type (0, 0), BuildingBlock: UVAHIK_clean_linker_0, # of connection points: 2
#     Edge 29, Type (0, 0), BuildingBlock: UVAHIK_clean_linker_0, # of connection points: 2
#     Edge 30, Type (0, 0), BuildingBlock: UVAHIK_clean_linker_0, # of connection points: 2
#     Edge 31, Type (0, 0), BuildingBlock: UVAHIK_clean_linker_0, # of connection points: 2
#     Edge 32, Type (0, 0), BuildingBlock: UVAHIK_clean_linker_0, # of connection points: 2
#     Edge 33, Type (0, 0), BuildingBlock: UVAHIK_clean_linker_0, # of connection points: 2
#     Edge 34, Type (0, 0), BuildingBlock: UVAHIK_clean_linker_0, # of connection points: 2
#     Edge 35, Type (0, 0), BuildingBlock: UVAHIK_clean_linker_0, # of connection points: 2
#     Edge 36, Type (0, 0), BuildingBlock: UVAHIK_clean_linker_0, # of connection points: 2
#     Edge 37, Type (0, 0), BuildingBlock: UVAHIK_clean_linker_0, # of connection points: 2
#     Edge 38, Type (0, 0), BuildingBlock: UVAHIK_clean_linker_0, # of connection points: 2
#     Edge 39, Type (0, 0), BuildingBlock: UVAHIK_clean_linker_0, # of connection points: 2
#     Edge 40, Type (0, 0), BuildingBlock: UVAHIK_clean_linker_0, # of connection points: 2
#     Edge 41, Type (0, 0), BuildingBlock: UVAHIK_clean_linker_0, # of connection points: 2
#     Edge 42, Type (0, 0), BuildingBlock: UVAHIK_clean_linker_0, # of connection points: 2
#     Edge 43, Type (0, 0), BuildingBlock: UVAHIK_clean_linker_0, # of connection points: 2
#     Edge 44, Type (0, 0), BuildingBlock: UVAHIK_clean_linker_0, # of connection points: 2
#     Edge 45, Type (0, 0), BuildingBlock: UVAHIK_clean_linker_0, # of connection points: 2
#     Edge 46, Type (0, 0), BuildingBlock: UVAHIK_clean_linker_0, # of connection points: 2
#     Edge 47, Type (0, 0), BuildingBlock: UVAHIK_clean_linker_0, # of connection points: 2
#     Edge 48, Type (0, 0), BuildingBlock: UVAHIK_clean_linker_0, # of connection points: 2
#     Edge 49, Type (0, 0), BuildingBlock: UVAHIK_clean_linker_0, # of connection points: 2
#     Edge 50, Type (0, 0), BuildingBlock: UVAHIK_clean_linker_0, # of connection points: 2
#     Edge 51, Type (0, 0), BuildingBlock: UVAHIK_clean_linker_0, # of connection points: 2
#     Edge 52, Type (0, 0), BuildingBlock: UVAHIK_clean_linker_0, # of connection points: 2
#     Edge 53, Type (0, 0), BuildingBlock: UVAHIK_clean_linker_0, # of connection points: 2
#     Edge 54, Type (0, 0), BuildingBlock: UVAHIK_clean_linker_0, # of connection points: 2
#     Edge 55, Type (0, 0), BuildingBlock: UVAHIK_clean_linker_0, # of connection points: 2
#     Edge 56, Type (0, 0), BuildingBlock: UVAHIK_clean_linker_0, # of connection points: 2
#     Edge 57, Type (0, 0), BuildingBlock: UVAHIK_clean_linker_0, # of connection points: 2
#     Edge 58, Type (0, 0), BuildingBlock: UVAHIK_clean_linker_0, # of connection points: 2
#     Edge 59, Type (0, 0), BuildingBlock: UVAHIK_clean_linker_0, # of connection points: 2
#     Edge 60, Type (0, 0), BuildingBlock: UVAHIK_clean_linker_0, # of connection points: 2
#     Edge 61, Type (0, 0), BuildingBlock: UVAHIK_clean_linker_0, # of connection points: 2
#     Edge 62, Type (0, 0), BuildingBlock: UVAHIK_clean_linker_0, # of connection points: 2
#     Edge 63, Type (0, 0), BuildingBlock: UVAHIK_clean_linker_0, # of connection points: 2
# Relax obj value: 0.276
# Max RMSD: 0.243
# Mean RMSD: 0.243
data_MOF--net-whp--node1-OJICUG_clean_sbu_0--edge1-UVAHIK_clean_linker_0
_symmetry_space_group_name_H-M    P1
_symmetry_Int_Tables_number       1
_symmetry_cell_setting            triclinic
loop_
_symmetry_equiv_pos_as_xyz
'x, y, z'
_cell_length_a     61.035017
_cell_length_b     61.032508
_cell_length_c     38.946501
_cell_angle_alpha  90.002759
_cell_angle_beta   90.034089
_cell_angle_gamma 89.978154
loop_
_atom_site_label
_atom_site_type_symbol
_atom_site_fract_x
_atom_site_fract_y
_atom_site_fract_z
_atom_type_partial_charge
Sc0 Sc 0.29832 0.55131 0.35882 0.0
Sc1 Sc 0.33159 0.51633 0.3098 0.0
Sc2 Sc 0.27604 0.50273 0.32433 0.0
O3 O 0.30196 0.52345 0.33093 0.0
C4 C 0.26942 0.51735 0.40198 0.0
C5 C 0.34545 0.53536 0.38321 0.0
C6 C 0.3157 0.46952 0.33654 0.0
C7 C 0.32973 0.56779 0.29816 0.0
C8 C 0.25366 0.55009 0.3167 0.0
C9 C 0.29842 0.50154 0.25046 0.0
O10 O 0.27975 0.53525 0.39826 0.0
O11 O 0.34958 0.52498 0.35564 0.0
O12 O 0.2953 0.47375 0.33515 0.0
O13 O 0.31661 0.57104 0.323 0.0
O14 O 0.25378 0.52938 0.31261 0.0
O15 O 0.31731 0.50705 0.26124 0.0
O16 O 0.26893 0.56032 0.33205 0.0
O17 O 0.33599 0.54877 0.28923 0.0
O18 O 0.28195 0.49964 0.27018 0.0
O19 O 0.3273 0.54501 0.38855 0.0
O20 O 0.26719 0.50348 0.37789 0.0
O21 O 0.33043 0.48335 0.32872 0.0
Sc22 Sc 0.95266 0.29627 0.86347 0.0
Sc23 Sc 0.98683 0.32935 0.81276 0.0
Sc24 Sc 0.0 0.27344 0.82614 0.0
O25 O 0.97981 0.29968 0.83401 0.0
C26 C 0.98716 0.26701 0.90454 0.0
C27 C 0.96943 0.34332 0.88681 0.0
C28 C 0.03378 0.31248 0.83818 0.0
C29 C 0.93502 0.32801 0.80399 0.0
C30 C 0.95246 0.25175 0.82045 0.0
C31 C 0.00052 0.29646 0.75268 0.0
O32 O 0.96987 0.27851 0.90263 0.0
O33 O 0.97958 0.34748 0.85909 0.0
O34 O 0.02914 0.29217 0.83752 0.0
O35 O 0.93219 0.31437 0.8283 0.0
O36 O 0.9729 0.252 0.81395 0.0
O37 O 0.9946 0.31522 0.76343 0.0
O38 O 0.94301 0.26659 0.83792 0.0
O39 O 0.95389 0.33443 0.79449 0.0
O40 O 0.00307 0.28011 0.7724 0.0
O41 O 0.95952 0.32536 0.89215 0.0
O42 O 0.99958 0.26342 0.87904 0.0
O43 O 0.02025 0.32742 0.82982 0.0
Sc44 Sc 0.22268 0.00036 0.32145 0.0
Sc45 Sc 0.16702 0.98602 0.30821 0.0
Sc46 Sc 0.20049 0.9532 0.36044 0.0
O47 O 0.19675 0.97985 0.32993 0.0
C48 C 0.24531 0.95305 0.31846 0.0
C49 C 0.2001 0.99888 0.24767 0.0
C50 C 0.16937 0.93419 0.30117 0.0
C51 C 0.18286 0.0337 0.33131 0.0
C52 C 0.22883 0.98902 0.40053 0.0
C53 C 0.15315 0.96954 0.3829 0.0
O54 O 0.24489 0.97344 0.3115 0.0
O55 O 0.18128 0.99343 0.25879 0.0
O56 O 0.18277 0.93187 0.32596 0.0
O57 O 0.20328 0.02951 0.33051 0.0
O58 O 0.21795 0.97132 0.39892 0.0
O59 O 0.14876 0.979 0.35463 0.0
O60 O 0.2321 0.00133 0.37476 0.0
O61 O 0.16818 0.01964 0.32417 0.0
O62 O 0.17133 0.96017 0.38877 0.0
O63 O 0.21646 0.00178 0.26729 0.0
O64 O 0.23031 0.94356 0.33549 0.0
O65 O 0.16278 0.95283 0.2909 0.0
Sc66 Sc 0.50042 0.2261 0.82212 0.0
Sc67 Sc 0.51488 0.17046 0.80916 0.0
Sc68 Sc 0.54926 0.2048 0.85714 0.0
O69 O 0.52151 0.20048 0.82936 0.0
C70 C 0.54747 0.24915 0.8145 0.0
C71 C 0.49991 0.20287 0.74889 0.0
C72 C 0.56635 0.17274 0.79772 0.0
C73 C 0.46776 0.18601 0.83493 0.0
C74 C 0.51462 0.23329 0.89979 0.0
C75 C 0.53389 0.15786 0.88291 0.0
O76 O 0.52676 0.24881 0.81036 0.0
O77 O 0.50555 0.18417 0.76028 0.0
O78 O 0.56939 0.18638 0.82194 0.0
O79 O 0.47161 0.20646 0.8329 0.0
O80 O 0.53272 0.2233 0.89607 0.0
O81 O 0.52365 0.15302 0.85551 0.0
O82 O 0.50076 0.23532 0.87563 0.0
O83 O 0.4819 0.17143 0.8278 0.0
O84 O 0.54328 0.17619 0.88746 0.0
O85 O 0.49777 0.21959 0.76806 0.0
O86 O 0.55785 0.23401 0.82987 0.0
O87 O 0.54741 0.16611 0.78897 0.0
Sc88 Sc 0.79208 0.44989 0.13269 0.0
Sc89 Sc 0.82741 0.48413 0.17891 0.0
Sc90 Sc 0.77182 0.49913 0.1679 0.0
O91 O 0.79708 0.47774 0.1599 0.0
C92 C 0.76259 0.4845 0.09122 0.0
C93 C 0.83838 0.46515 0.10435 0.0
C94 C 0.81195 0.53149 0.15415 0.0
C95 C 0.82554 0.43272 0.19019 0.0
C96 C 0.74885 0.4521 0.17744 0.0
C97 C 0.79597 0.49906 0.24038 0.0
O98 O 0.77191 0.46604 0.09514 0.0
O99 O 0.84374 0.47515 0.13177 0.0
O100 O 0.79152 0.52784 0.15706 0.0
O101 O 0.81174 0.42974 0.16621 0.0
O102 O 0.74889 0.47295 0.17964 0.0
O103 O 0.81446 0.49336 0.22825 0.0
O104 O 0.76403 0.44132 0.16286 0.0
O105 O 0.83197 0.45166 0.19918 0.0
O106 O 0.77894 0.50152 0.22194 0.0
O107 O 0.81981 0.45607 0.10026 0.0
O108 O 0.76214 0.499 0.11464 0.0
O109 O 0.82648 0.51713 0.16036 0.0
Sc110 Sc 0.99892 0.77414 0.67052 0.0
Sc111 Sc 0.01326 0.82961 0.68368 0.0
Sc112 Sc 0.04952 0.79426 0.64112 0.0
O113 O 0.02055 0.79936 0.66519 0.0
C114 C 0.04536 0.7507 0.68402 0.0
C115 C 0.99652 0.79746 0.7435 0.0
C116 C 0.06411 0.82784 0.70017 0.0
C117 C 0.96686 0.81431 0.65514 0.0
C118 C 0.01636 0.76566 0.59547 0.0
C119 C 0.03537 0.84062 0.61119 0.0
O120 O 0.02449 0.75064 0.68309 0.0
O121 O 0.00196 0.81626 0.73206 0.0
O122 O 0.06814 0.81385 0.67685 0.0
O123 O 0.97043 0.79392 0.6587 0.0
O124 O 0.03504 0.77393 0.60188 0.0
O125 O 0.02413 0.84601 0.63741 0.0
O126 O 0.00061 0.76587 0.61681 0.0
O127 O 0.98106 0.82884 0.66194 0.0
O128 O 0.04468 0.82205 0.60823 0.0
O129 O 0.99533 0.78051 0.72453 0.0
O130 O 0.05683 0.76629 0.67209 0.0
O131 O 0.04484 0.83438 0.70696 0.0
Sc132 Sc 0.72546 0.99885 0.16722 0.0
Sc133 Sc 0.6703 0.01371 0.18205 0.0
Sc134 Sc 0.705 0.04875 0.13632 0.0
O135 O 0.70025 0.02042 0.16208 0.0
C136 C 0.74833 0.0458 0.1795 0.0
C137 C 0.70304 0.99679 0.24073 0.0
C138 C 0.67139 0.06464 0.19471 0.0
C139 C 0.685 0.96705 0.15354 0.0
C140 C 0.73418 0.01547 0.09229 0.0
C141 C 0.65891 0.0338 0.10807 0.0
O142 O 0.74878 0.02489 0.17852 0.0
O143 O 0.68413 0.00257 0.2302 0.0
O144 O 0.68431 0.06785 0.16965 0.0
O145 O 0.70546 0.97045 0.15638 0.0
O146 O 0.72632 0.03432 0.09851 0.0
O147 O 0.6534 0.02442 0.13601 0.0
O148 O 0.73329 -0.00026 0.1135 0.0
O149 O 0.67062 0.98135 0.16079 0.0
O150 O 0.67779 0.04205 0.10318 0.0
O151 O 0.71966 0.99549 0.22119 0.0
O152 O 0.73242 0.05704 0.16796 0.0
O153 O 0.66624 0.04557 0.20492 0.0
Sc154 Sc 0.44844 0.69887 0.63811 0.0
Sc155 Sc 0.48487 0.6671 0.68719 0.0
Sc156 Sc 0.49805 0.72202 0.66671 0.0
O157 O 0.47715 0.69599 0.66401 0.0
C158 C 0.48108 0.72602 0.58999 0.0
C159 C 0.46559 0.65143 0.61535 0.0
C160 C 0.53192 0.68283 0.66025 0.0
C161 C 0.43317 0.66817 0.6996 0.0
C162 C 0.45111 0.74492 0.67624 0.0
C163 C 0.4997 0.70212 0.74276 0.0
O164 O 0.46351 0.7155 0.59567 0.0
O165 O 0.47799 0.64838 0.64125 0.0
O166 O 0.52669 0.70266 0.65467 0.0
O167 O 0.42932 0.6825 0.67677 0.0
O168 O 0.47191 0.74476 0.67898 0.0
O169 O 0.49216 0.68334 0.7349 0.0
O170 O 0.44035 0.72932 0.66268 0.0
O171 O 0.4523 0.66104 0.70578 0.0
O172 O 0.50311 0.71718 0.72081 0.0
O173 O 0.45401 0.66859 0.61129 0.0
O174 O 0.49539 0.72949 0.61302 0.0
O175 O 0.51865 0.66882 0.67239 0.0
Sc176 Sc 0.72734 0.49846 0.66876 0.0
Sc177 Sc 0.67159 0.48445 0.67892 0.0
Sc178 Sc 0.70679 0.44957 0.63349 0.0
O179 O 0.70193 0.47749 0.66054 0.0
C180 C 0.73703 0.48357 0.59272 0.0
C181 C 0.68769 0.53123 0.65321 0.0
C182 C 0.661 0.46513 0.60425 0.0
C183 C 0.70289 0.49966 0.74073 0.0
C184 C 0.74966 0.45102 0.67885 0.0
C185 C 0.67256 0.43328 0.69071 0.0
O186 O 0.7368 0.49842 0.61553 0.0
O187 O 0.67288 0.51705 0.65869 0.0
O188 O 0.67978 0.45653 0.60002 0.0
O189 O 0.72016 0.50079 0.72259 0.0
O190 O 0.73425 0.44044 0.66448 0.0
O191 O 0.66692 0.45234 0.70041 0.0
O192 O 0.74989 0.47189 0.68079 0.0
O193 O 0.68423 0.49481 0.72823 0.0
O194 O 0.68601 0.43006 0.66629 0.0
O195 O 0.70799 0.52741 0.65772 0.0
O196 O 0.72813 0.46495 0.59674 0.0
O197 O 0.65531 0.47461 0.63197 0.0
Sc198 Sc 0.00089 0.72486 0.16987 0.0
Sc199 Sc 0.01589 0.66932 0.18188 0.0
Sc200 Sc 0.04939 0.70398 0.13293 0.0
O201 O 0.02203 0.6994 0.1616 0.0
C202 C 0.01433 0.7331 0.09204 0.0
C203 C 0.9682 0.6848 0.15806 0.0
C204 C 0.03354 0.65715 0.10701 0.0
C205 C 0.00201 0.70146 0.24308 0.0
C206 C 0.04806 0.74782 0.17692 0.0
C207 C 0.06755 0.67146 0.19095 0.0
O208 O 0.00063 0.73458 0.11651 0.0
O209 O 0.98243 0.67029 0.16516 0.0
O210 O 0.0429 0.6755 0.1023 0.0
O211 O 0.99872 0.71804 0.22401 0.0
O212 O 0.05833 0.73291 0.16081 0.0
O213 O 0.04878 0.66479 0.20031 0.0
O214 O 0.02737 0.74741 0.18145 0.0
O215 O 0.00803 0.68293 0.2315 0.0
O216 O 0.07018 0.68526 0.16685 0.0
O217 O 0.97208 0.70526 0.1594 0.0
O218 O 0.03248 0.7231 0.09498 0.0
O219 O 0.02365 0.65224 0.13472 0.0
Sc220 Sc 0.79699 0.05184 0.63127 0.0
Sc221 Sc 0.83038 0.01739 0.68083 0.0
Sc222 Sc 0.77482 0.0034 0.66687 0.0
O223 O 0.80069 0.02421 0.65972 0.0
C224 C 0.75209 0.05062 0.67306 0.0
C225 C 0.82826 0.06906 0.69141 0.0
C226 C 0.79744 0.00336 0.74062 0.0
C227 C 0.84429 0.03579 0.60739 0.0
C228 C 0.76865 0.01719 0.58859 0.0
C229 C 0.8145 0.9702 0.65543 0.0
O230 O 0.76715 0.06066 0.65694 0.0
O231 O 0.83503 0.05012 0.69987 0.0
O232 O 0.78099 0.00049 0.7211 0.0
O233 O 0.82636 0.0459 0.60233 0.0
O234 O 0.76573 0.0039 0.61331 0.0
O235 O 0.82913 0.98409 0.66345 0.0
O236 O 0.7793 0.03494 0.59179 0.0
O237 O 0.84824 0.02506 0.63465 0.0
O238 O 0.79409 0.97441 0.65615 0.0
O239 O 0.81461 0.07216 0.66721 0.0
O240 O 0.75252 0.03004 0.67844 0.0
O241 O 0.81611 0.00931 0.72964 0.0
Sc242 Sc 0.44738 0.80074 0.13282 0.0
Sc243 Sc 0.48175 0.83208 0.18597 0.0
Sc244 Sc 0.4956 0.77722 0.16634 0.0
O245 O 0.47489 0.80332 0.16181 0.0
C246 C 0.4483 0.75462 0.17107 0.0
C247 C 0.43025 0.82973 0.1961 0.0
C248 C 0.49673 0.79684 0.24193 0.0
C249 C 0.46322 0.84877 0.11381 0.0
C250 C 0.48176 0.77359 0.08799 0.0
C251 C 0.52861 0.81728 0.15781 0.0
O252 O 0.43818 0.77028 0.15645 0.0
O253 O 0.44917 0.83547 0.20636 0.0
O254 O 0.49873 0.78122 0.22065 0.0
O255 O 0.45398 0.83078 0.10607 0.0
O256 O 0.4951 0.77011 0.11239 0.0
O257 O 0.51481 0.8317 0.16715 0.0
O258 O 0.46392 0.78397 0.09195 0.0
O259 O 0.47305 0.85193 0.14216 0.0
O260 O 0.52441 0.79688 0.1572 0.0
O261 O 0.42728 0.81768 0.16985 0.0
O262 O 0.46893 0.75473 0.17599 0.0
O263 O 0.49094 0.81604 0.23318 0.0
Sc264 Sc 0.2242 0.499 0.82461 0.0
Sc265 Sc 0.16833 0.51148 0.80969 0.0
Sc266 Sc 0.20134 0.54764 0.85726 0.0
O267 O 0.19794 0.51933 0.83053 0.0
C268 C 0.23066 0.51449 0.90168 0.0
C269 C 0.18581 0.46431 0.8328 0.0
C270 C 0.15508 0.52951 0.88352 0.0
C271 C 0.20184 0.49884 0.75012 0.0
C272 C 0.24601 0.54649 0.8158 0.0
C273 C 0.16802 0.56334 0.7992 0.0
O274 O 0.23298 0.50025 0.87816 0.0
O275 O 0.17096 0.47759 0.82346 0.0
O276 O 0.17242 0.5409 0.8867 0.0
O277 O 0.21797 0.49572 0.77032 0.0
O278 O 0.23047 0.55689 0.83011 0.0
O279 O 0.16126 0.54417 0.79244 0.0
O280 O 0.24623 0.52572 0.81288 0.0
O281 O 0.18301 0.50495 0.76047 0.0
O282 O 0.18287 0.56707 0.82128 0.0
O283 O 0.2058 0.46968 0.8358 0.0
O284 O 0.22019 0.53226 0.8972 0.0
O285 O 0.151 0.51775 0.85724 0.0
Sc286 Sc 0.94756 0.20223 0.35622 0.0
Sc287 Sc 0.98511 0.17042 0.30939 0.0
Sc288 Sc 0.99621 0.22639 0.32549 0.0
O289 O 0.97628 0.19969 0.33027 0.0
C290 C 0.94844 0.24749 0.3157 0.0
C291 C 0.9339 0.17044 0.29437 0.0
C292 C -6e-05 0.2045 0.25153 0.0
C293 C 0.96451 0.15544 0.38092 0.0
C294 C 0.97962 0.23148 0.40238 0.0
C295 C 0.03063 0.18792 0.33875 0.0
O296 O 0.93833 0.23176 0.33001 0.0
O297 O 0.95335 0.16455 0.28727 0.0
O298 O 0.00059 0.2209 0.2716 0.0
O299 O 0.95378 0.17305 0.38546 0.0
O300 O 0.99384 0.23466 0.37909 0.0
O301 O 0.01751 0.17276 0.33007 0.0
O302 O 0.96219 0.22056 0.39735 0.0
O303 O 0.97617 0.15194 0.35445 0.0
O304 O 0.02572 0.20816 0.33745 0.0
O305 O 0.92943 0.18387 0.31836 0.0
O306 O 0.96921 0.24795 0.3127 0.0
O307 O 0.99503 0.18529 0.26156 0.0
Sc308 Sc 0.2977 0.94802 0.85296 0.0
Sc309 Sc 0.3298 0.98384 0.80369 0.0
Sc310 Sc 0.27466 0.99698 0.8222 0.0
O311 O 0.30071 0.97628 0.82615 0.0
C312 C 0.25247 0.94946 0.81364 0.0
C313 C 0.32892 0.93279 0.79086 0.0
C314 C 0.29489 0.99928 0.74714 0.0
C315 C 0.34463 0.96417 0.87614 0.0
C316 C 0.2692 0.98115 0.89885 0.0
C317 C 0.31462 0.03016 0.83271 0.0
O318 O 0.26876 0.93876 0.8252 0.0
O319 O 0.3338 0.95201 0.78098 0.0
O320 O 0.27878 -0.00015 0.76776 0.0
O321 O 0.32632 0.95529 0.88301 0.0
O322 O 0.26788 0.99613 0.87632 0.0
O323 O 0.32923 0.01622 0.82486 0.0
O324 O 0.27836 0.96281 0.89306 0.0
O325 O 0.34876 0.97368 0.84781 0.0
O326 O 0.29419 0.02611 0.83119 0.0
O327 O 0.31683 0.9291 0.81681 0.0
O328 O 0.25188 0.97034 0.81287 0.0
O329 O 0.31432 0.99467 0.75663 0.0
Sc330 Sc 0.49877 0.27313 0.32227 0.0
Sc331 Sc 0.51206 0.32895 0.30837 0.0
Sc332 Sc 0.54833 0.29494 0.35375 0.0
O333 O 0.51973 0.29899 0.32801 0.0
C334 C 0.51545 0.26592 0.39874 0.0
C335 C 0.46592 0.31266 0.33731 0.0
C336 C 0.53311 0.3418 0.38065 0.0
C337 C 0.49572 0.29641 0.24919 0.0
C338 C 0.54576 0.25043 0.31154 0.0
C339 C 0.56326 0.32745 0.29355 0.0
O340 O 0.50106 0.26375 0.37541 0.0
O341 O 0.47952 0.3274 0.32867 0.0
O342 O 0.54315 0.32371 0.3841 0.0
O343 O 0.49405 0.27983 0.26876 0.0
O344 O 0.55632 0.26564 0.32639 0.0
O345 O 0.54403 0.33416 0.2868 0.0
O346 O 0.52497 0.25068 0.30826 0.0
O347 O 0.50197 0.31513 0.25974 0.0
O348 O 0.56723 0.31332 0.31675 0.0
O349 O 0.4701 0.29227 0.33561 0.0
O350 O 0.53322 0.27634 0.39417 0.0
O351 O 0.52157 0.34641 0.35441 0.0
C352 C 0.3579 0.54572 0.4422 0.0
C353 C 0.36295 0.53779 0.40928 0.0
C354 C 0.37454 0.55093 0.46536 0.0
C355 C 0.41274 0.55562 0.51434 0.0
H356 H 0.45519 0.59521 0.47391 0.0
C357 C 0.46589 0.61169 0.59882 0.0
C358 C 0.46315 0.6338 0.58964 0.0
C359 C 0.45983 0.59503 0.57599 0.0
C360 C 0.44365 0.58396 0.48556 0.0
H361 H 0.38949 0.52782 0.37563 0.0
H362 H 0.41863 0.53713 0.41617 0.0
H363 H 0.4316 0.57337 0.43675 0.0
H364 H 0.45364 0.6558 0.54851 0.0
H365 H 0.44326 0.62691 0.50884 0.0
H366 H 0.42379 0.56734 0.56314 0.0
C367 C 0.40173 0.53939 0.42388 0.0
C368 C 0.43026 0.5713 0.46429 0.0
C369 C 0.38503 0.53399 0.40075 0.0
C370 C 0.45577 0.63891 0.55643 0.0
C371 C 0.45 0.62232 0.53356 0.0
C372 C 0.4262 0.56822 0.53562 0.0
C373 C 0.39665 0.54843 0.4561 0.0
C374 C 0.41401 0.55772 0.47846 0.0
C375 C 0.45129 0.60022 0.54346 0.0
C376 C 0.44112 0.58322 0.5214 0.0
H377 H 0.34107 0.54867 0.44973 0.0
H378 H 0.37006 0.55808 0.48982 0.0
H379 H 0.40056 0.54507 0.52597 0.0
H380 H 0.47153 0.60727 0.62427 0.0
H381 H 0.4611 0.57812 0.5842 0.0
C382 C 0.87755 0.46483 0.08466 0.0
C383 C 0.85516 0.46169 0.07747 0.0
C384 C 0.89353 0.45704 0.06198 0.0
C385 C 0.92359 0.44174 0.00158 0.0
H386 H 0.90948 0.38088 0.98324 0.0
C387 C 0.96502 0.38286 0.90245 0.0
C388 C 0.96647 0.36079 0.91257 0.0
C389 C 0.95618 0.39849 0.92483 0.0
C390 C 0.91378 0.39779 0.98839 0.0
H391 H 0.83202 0.45029 0.03905 0.0
H392 H 0.85987 0.43676 -0.00026 0.0
H393 H 0.88352 0.40358 0.01413 0.0
H394 H 0.96265 0.33829 0.95523 0.0
H395 H 0.94752 0.36554 0.99424 0.0
H396 H 0.95398 0.43565 0.97521 0.0
C397 C 0.86503 0.44484 0.02316 0.0
C398 C 0.89877 0.41087 0.00563 0.0
C399 C 0.8491 0.45258 0.04571 0.0
C400 C 0.96134 0.35511 0.94656 0.0
C401 C 0.95268 0.37069 0.96887 0.0
C402 C 0.93863 0.42861 0.98372 0.0
C403 C 0.88732 0.44605 0.03185 0.0
C404 C 0.90344 0.43296 0.01235 0.0
C405 C 0.94884 0.39219 0.95754 0.0
C406 C 0.93385 0.40646 0.97728 0.0
H407 H 0.88277 0.47193 0.1088 0.0
H408 H 0.91063 0.45815 0.06924 0.0
H409 H 0.92756 0.45874 0.00663 0.0
H410 H 0.9689 0.38769 0.87639 0.0
H411 H 0.95338 0.41498 0.91553 0.0
C412 C 0.03518 0.87955 0.58985 0.0
C413 C 0.03973 0.85721 0.58426 0.0
C414 C 0.04305 0.89547 0.56708 0.0
C415 C 0.05774 0.92408 0.50382 0.0
H416 H 0.12007 0.91446 0.49136 0.0
C417 C 0.11403 0.96333 0.39956 0.0
C418 C 0.13593 0.967 0.40914 0.0
C419 C 0.09909 0.9549 0.42344 0.0
C420 C 0.10274 0.91758 0.4949 0.0
H421 H 0.05421 0.834 0.54857 0.0
H422 H 0.06795 0.8617 0.50929 0.0
H423 H 0.0989 0.88881 0.52542 0.0
H424 H 0.1587 0.96751 0.45187 0.0
H425 H 0.13259 0.95328 0.49353 0.0
H426 H 0.06178 0.95281 0.47242 0.0
C427 C 0.0586 0.86689 0.5315 0.0
C428 C 0.09057 0.90272 0.51404 0.0
C429 C 0.05073 0.85105 0.55406 0.0
C430 C 0.14199 0.96447 0.44369 0.0
C431 C 0.12708 0.9563 0.4675 0.0
C432 C 0.06997 0.93893 0.4841 0.0
C433 C 0.0556 0.88924 0.5385 0.0
C434 C 0.06797 0.90567 0.51846 0.0
C435 C 0.10588 0.95022 0.45715 0.0
C436 C 0.09261 0.93578 0.47953 0.0
H437 H 0.02664 0.88485 0.61276 0.0
H438 H 0.04055 0.91263 0.57297 0.0
H439 H 0.04031 0.92667 0.50701 0.0
H440 H 0.10896 0.96514 0.37305 0.0
H441 H 0.08284 0.95036 0.41479 0.0
C442 C 0.53708 0.11852 0.90091 0.0
C443 C 0.53718 0.14092 0.90949 0.0
C444 C 0.54532 0.10301 0.92404 0.0
C445 C 0.56092 0.07364 0.98539 0.0
H446 H 0.61839 0.09478 0.01221 0.0
C447 C 0.64857 0.04443 0.04841 0.0
C448 C 0.64214 0.03745 0.08127 0.0
C449 C 0.63312 0.05247 0.0253 0.0
C450 C 0.60245 0.08856 0.00474 0.0
H451 H 0.54333 0.1643 0.95034 0.0
H452 H 0.55754 0.13727 0.99053 0.0
H453 H 0.59422 0.1184 0.9794 0.0
H454 H 0.61417 0.0313 0.11432 0.0
H455 H 0.58712 0.04565 0.07375 0.0
H456 H 0.56946 0.04368 0.01134 0.0
C457 C 0.55158 0.13177 0.96577 0.0
C458 C 0.5885 0.10219 0.98636 0.0
C459 C 0.54347 0.14722 0.94275 0.0
C460 C 0.61966 0.0367 0.08927 0.0
C461 C 0.60415 0.04483 0.06605 0.0
C462 C 0.57489 0.05998 0.0044 0.0
C463 C 0.55364 0.10973 0.95597 0.0
C464 C 0.56761 0.09493 0.97654 0.0
C465 C 0.61093 0.05372 0.03456 0.0
C466 C 0.59586 0.06734 0.01392 0.0
H467 H 0.53224 0.11319 0.87549 0.0
H468 H 0.54676 0.08609 0.91593 0.0
H469 H 0.54488 0.06769 0.97794 0.0
H470 H 0.6657 0.04481 0.04116 0.0
H471 H 0.63868 0.05891 0.00089 0.0
C472 C 0.54498 0.35255 0.43939 0.0
C473 C 0.53725 0.3588 0.40686 0.0
C474 C 0.55395 0.36805 0.46153 0.0
C475 C 0.56307 0.42608 0.48113 0.0
H476 H 0.62146 0.40547 0.50382 0.0
C477 C 0.65117 0.45483 0.54418 0.0
C478 C 0.64448 0.46171 0.57697 0.0
C479 C 0.63587 0.44703 0.5206 0.0
C480 C 0.6053 0.4116 0.49741 0.0
H481 H 0.53081 0.38649 0.37339 0.0
H482 H 0.54677 0.4137 0.41235 0.0
H483 H 0.59697 0.38205 0.47131 0.0
H484 H 0.61625 0.46783 0.60947 0.0
H485 H 0.5895 0.45383 0.5682 0.0
H486 H 0.57163 0.4557 0.50793 0.0
C487 C 0.5458 0.39677 0.42054 0.0
C488 C 0.59117 0.39806 0.47921 0.0
C489 C 0.53671 0.38119 0.39828 0.0
C490 C 0.62194 0.46253 0.58447 0.0
C491 C 0.6066 0.45459 0.56082 0.0
C492 C 0.57724 0.43966 0.4999 0.0
C493 C 0.55545 0.3901 0.45158 0.0
C494 C 0.56989 0.40504 0.47109 0.0
C495 C 0.61359 0.44582 0.52934 0.0
C496 C 0.59852 0.4325 0.50809 0.0
H497 H 0.54526 0.33548 0.44699 0.0
H498 H 0.56093 0.36258 0.48565 0.0
H499 H 0.54673 0.43182 0.47499 0.0
H500 H 0.66836 0.45439 0.53733 0.0
H501 H 0.64164 0.44076 0.49618 0.0
C502 C 0.14445 0.53912 0.94324 0.0
C503 C 0.13814 0.53235 0.91022 0.0
C504 C 0.129 0.54757 0.96596 0.0
C505 C 0.09961 0.58512 0.98444 0.0
H506 H 0.04153 0.56657 0.01242 0.0
C507 C 0.04329 0.64631 0.0472 0.0
C508 C 0.0365 0.64017 0.08029 0.0
C509 C 0.05088 0.63061 0.02413 0.0
C510 C 0.0577 0.57188 0.00462 0.0
H511 H 0.11044 0.52692 0.87639 0.0
H512 H 0.08331 0.542 0.91636 0.0
H513 H 0.06509 0.54134 0.97943 0.0
H514 H 0.03025 0.6125 0.11388 0.0
H515 H 0.04384 0.58499 0.07342 0.0
H516 H 0.09259 0.61549 0.0091 0.0
C517 C 0.10022 0.54065 0.92452 0.0
C518 C 0.0711 0.55753 0.98583 0.0
C519 C 0.11575 0.53205 0.90169 0.0
C520 C 0.03548 0.61775 0.08862 0.0
C521 C 0.04319 0.60199 0.06545 0.0
C522 C 0.08624 0.59944 0.00259 0.0
C523 C 0.10697 0.54953 0.95608 0.0
C524 C 0.09228 0.56401 0.97599 0.0
C525 C 0.05193 0.60844 0.03367 0.0
C526 C 0.06518 0.59303 0.01293 0.0
H527 H 0.16155 0.53922 0.95072 0.0
H528 H 0.13453 0.55397 0.99043 0.0
H529 H 0.11574 0.59068 0.97671 0.0
H530 H 0.04389 0.6634 0.03974 0.0
H531 H 0.05715 0.63595 -0.00051 0.0
C532 C 0.95361 0.14247 0.43926 0.0
C533 C 0.96181 0.1377 0.4064 0.0
C534 C 0.94789 0.12562 0.46167 0.0
C535 C 0.92582 0.07087 0.45783 0.0
H536 H 0.9297 0.07522 0.55697 0.0
C537 C 0.85698 0.0464 0.5487 0.0
C538 C 0.86188 0.03824 0.58155 0.0
C539 C 0.87375 0.05192 0.526 0.0
C540 C 0.92881 0.07339 0.52934 0.0
H541 H 0.97169 0.1115 0.37206 0.0
H542 H 0.96137 0.08196 0.41128 0.0
H543 H 0.95309 0.09817 0.52118 0.0
H544 H 0.88823 0.0281 0.61549 0.0
H545 H 0.91758 0.03802 0.57579 0.0
H546 H 0.90075 0.04689 0.466 0.0
C547 C 0.9594 0.09879 0.41955 0.0
C548 C 0.94208 0.08667 0.50888 0.0
C549 C 0.96538 0.1157 0.3972 0.0
C550 C 0.8839 0.03444 0.5904 0.0
C551 C 0.90072 0.04017 0.56776 0.0
C552 C 0.91247 0.05767 0.4783 0.0
C553 C 0.95008 0.10361 0.45165 0.0
C554 C 0.94006 0.08618 0.47296 0.0
C555 C 0.8958 0.04954 0.53572 0.0
C556 C 0.91321 0.05946 0.51424 0.0
H557 H 0.95084 0.15926 0.44722 0.0
H558 H 0.94054 0.12987 0.48609 0.0
H559 H 0.92382 0.07019 0.43021 0.0
H560 H 0.84018 0.04934 0.54095 0.0
H561 H 0.86942 0.0593 0.50163 0.0
C562 C 0.35866 0.96657 0.93598 0.0
C563 C 0.36234 0.96172 0.90133 0.0
C564 C 0.37448 0.96146 0.96062 0.0
C565 C 0.43116 0.93739 0.9713 0.0
H566 H 0.40556 0.91554 0.0557 0.0
C567 C 0.45837 0.86363 0.05463 0.0
C568 C 0.46037 0.86735 0.09009 0.0
C569 C 0.45184 0.88055 0.03278 0.0
C570 C 0.413 0.92195 0.03252 0.0
H571 H 0.38539 0.94844 0.86469 0.0
H572 H 0.41235 0.93795 0.90757 0.0
H573 H 0.38283 0.93544 0.01544 0.0
H574 H 0.45825 0.89182 0.13032 0.0
H575 H 0.44587 0.92122 0.09207 0.0
H576 H 0.46087 0.9216 0.98767 0.0
C577 C 0.39787 0.94662 0.91609 0.0
C578 C 0.40002 0.93355 0.00936 0.0
C579 C 0.38235 0.95246 0.89137 0.0
C580 C 0.45695 0.88857 0.10305 0.0
C581 C 0.44989 0.90535 0.08128 0.0
C582 C 0.44399 0.92519 0.99415 0.0
C583 C 0.39392 0.9505 0.95125 0.0
C584 C 0.40873 0.94105 0.97798 0.0
C585 C 0.44678 0.90128 0.04617 0.0
C586 C 0.43485 0.91711 0.02461 0.0
H587 H 0.34335 0.97396 0.94406 0.0
H588 H 0.37106 0.96549 0.98714 0.0
H589 H 0.43871 0.94333 0.94796 0.0
H590 H 0.46098 0.84743 0.04403 0.0
H591 H 0.4493 0.87704 0.00579 0.0
C592 C 0.31093 0.42867 0.33977 0.0
C593 C 0.32298 0.44762 0.34781 0.0
C594 C 0.31944 0.40789 0.34738 0.0
C595 C 0.36215 0.37941 0.39825 0.0
H596 H 0.37238 0.345 0.31612 0.0
C597 C 0.44299 0.33966 0.36843 0.0
C598 C 0.44435 0.32006 0.34973 0.0
C599 C 0.42271 0.34868 0.37655 0.0
C600 C 0.36917 0.35393 0.33963 0.0
H601 H 0.35254 0.45985 0.37198 0.0
H602 H 0.36714 0.42386 0.38568 0.0
H603 H 0.345 0.37413 0.31532 0.0
H604 H 0.42565 0.29388 0.32626 0.0
H605 H 0.38977 0.31013 0.33975 0.0
H606 H 0.38741 0.36028 0.4218 0.0
C607 C 0.35124 0.42489 0.37342 0.0
C608 C 0.35348 0.37064 0.33915 0.0
C609 C 0.34299 0.44551 0.36524 0.0
C610 C 0.42498 0.30901 0.34076 0.0
C611 C 0.40453 0.31831 0.34838 0.0
C612 C 0.37775 0.36269 0.39876 0.0
C613 C 0.33983 0.40585 0.36392 0.0
C614 C 0.3508 0.38434 0.36783 0.0
C615 C 0.40325 0.33848 0.36578 0.0
C616 C 0.38234 0.35069 0.36881 0.0
H617 H 0.29545 0.42989 0.32628 0.0
H618 H 0.31039 0.39344 0.33968 0.0
H619 H 0.36012 0.38953 0.42088 0.0
H620 H 0.45769 0.34842 0.37587 0.0
H621 H 0.42234 0.36439 0.3895 0.0
C622 C 0.05868 0.33991 0.86466 0.0
C623 C 0.05586 0.31936 0.84913 0.0
C624 C 0.07958 0.34772 0.87204 0.0
C625 C 0.13279 0.3465 0.83472 0.0
H626 H 0.14504 0.38671 0.90946 0.0
C627 C 0.188 0.42875 0.86513 0.0
C628 C 0.17941 0.44132 0.83805 0.0
C629 C 0.18015 0.40749 0.87105 0.0
C630 C 0.14232 0.3751 0.88885 0.0
H631 H 0.07259 0.29031 0.83076 0.0
H632 H 0.1095 0.30441 0.84267 0.0
H633 H 0.11624 0.35922 0.91593 0.0
H634 H 0.15713 0.4413 0.79472 0.0
H635 H 0.14388 0.40429 0.80448 0.0
H636 H 0.15752 0.36369 0.80656 0.0
C637 C 0.0954 0.31428 0.8495 0.0
C638 C 0.12576 0.35948 0.89245 0.0
C639 C 0.07434 0.30625 0.84266 0.0
C640 C 0.16384 0.432 0.81597 0.0
C641 C 0.15647 0.41073 0.82131 0.0
C642 C 0.14923 0.36221 0.83105 0.0
C643 C 0.09819 0.33529 0.86362 0.0
C644 C 0.11996 0.34598 0.86463 0.0
C645 C 0.16419 0.39841 0.84924 0.0
C646 C 0.15317 0.37749 0.85731 0.0
H647 H 0.0447 0.35026 0.87031 0.0
H648 H 0.08118 0.36412 0.88242 0.0
H649 H 0.12868 0.33635 0.81283 0.0
H650 H 0.20005 0.43567 0.88245 0.0
H651 H 0.18617 0.39832 0.89293 0.0
C652 C 0.15567 0.05773 0.36001 0.0
C653 C 0.17543 0.05567 0.34193 0.0
C654 C 0.14743 0.07832 0.36829 0.0
C655 C 0.14391 0.13239 0.33422 0.0
H656 H 0.11237 0.14262 0.41916 0.0
C657 C 0.07147 0.19269 0.34018 0.0
C658 C 0.05261 0.18123 0.35038 0.0
C659 C 0.09231 0.1839 0.34665 0.0
C660 C 0.12137 0.14026 0.39547 0.0
H661 H 0.20248 0.07346 0.31913 0.0
H662 H 0.18748 0.10991 0.33264 0.0
H663 H 0.13999 0.11373 0.4165 0.0
H664 H 0.04057 0.1527 0.37752 0.0
H665 H 0.0766 0.13762 0.38925 0.0
H666 H 0.12396 0.15766 0.31237 0.0
C667 C 0.17866 0.09543 0.34082 0.0
C668 C 0.13717 0.12376 0.39397 0.0
C669 C 0.1872 0.07466 0.33313 0.0
C670 C 0.05487 0.16178 0.36921 0.0
C671 C 0.07555 0.15326 0.37621 0.0
C672 C 0.12802 0.14889 0.3357 0.0
C673 C 0.15858 0.09739 0.35824 0.0
C674 C 0.14762 0.11884 0.36279 0.0
C675 C 0.09448 0.16384 0.36411 0.0
C676 C 0.1157 0.15205 0.36578 0.0
H677 H 0.14635 0.04337 0.36737 0.0
H678 H 0.13175 0.07931 0.38123 0.0
H679 H 0.1517 0.12889 0.30984 0.0
H680 H 0.07009 0.20771 0.32551 0.0
H681 H 0.10664 0.19235 0.33701 0.0
C682 C 0.31067 0.07113 0.83495 0.0
C683 C 0.32213 0.05198 0.84395 0.0
C684 C 0.31966 0.09178 0.84212 0.0
C685 C 0.36273 0.11976 0.89305 0.0
H686 H 0.37415 0.15312 0.81027 0.0
C687 C 0.44435 0.1587 0.86455 0.0
C688 C 0.44597 0.17835 0.84602 0.0
C689 C 0.42396 0.14964 0.87187 0.0
C690 C 0.37063 0.14447 0.83391 0.0
H691 H 0.35104 0.03929 0.86943 0.0
H692 H 0.36644 0.07504 0.8824 0.0
H693 H 0.34623 0.12451 0.80973 0.0
H694 H 0.42755 0.20449 0.82184 0.0
H695 H 0.39152 0.18817 0.83392 0.0
H696 H 0.38819 0.13864 0.91654 0.0
C697 C 0.35066 0.07428 0.86971 0.0
C698 C 0.35463 0.12806 0.83359 0.0
C699 C 0.34195 0.05379 0.86197 0.0
C700 C 0.42671 0.18933 0.83623 0.0
C701 C 0.40616 0.17999 0.84304 0.0
C702 C 0.37866 0.13615 0.89339 0.0
C703 C 0.33991 0.0935 0.85916 0.0
C704 C 0.35145 0.11475 0.8626 0.0
C705 C 0.40465 0.15985 0.86045 0.0
C706 C 0.38364 0.14779 0.86325 0.0
H707 H 0.29537 0.07014 0.82095 0.0
H708 H 0.3111 0.10636 0.83365 0.0
H709 H 0.36033 0.10995 0.91593 0.0
H710 H 0.45894 0.14998 0.87263 0.0
H711 H 0.42342 0.13395 0.88485 0.0
C712 C 0.94442 0.65729 0.12949 0.0
C713 C 0.94629 0.67712 0.1475 0.0
C714 C 0.92391 0.64859 0.12193 0.0
C715 C 0.87021 0.6444 0.15799 0.0
H716 H 0.85936 0.61178 0.07423 0.0
C717 C 0.80878 0.57256 0.15389 0.0
C718 C 0.81963 0.55337 0.14345 0.0
C719 C 0.81816 0.59314 0.14754 0.0
C720 C 0.86193 0.62105 0.09761 0.0
H721 H 0.92821 0.70382 0.17076 0.0
H722 H 0.89195 0.68806 0.1584 0.0
H723 H 0.88813 0.63955 0.07544 0.0
H724 H 0.84781 0.5406 0.11614 0.0
H725 H 0.86392 0.5762 0.10474 0.0
H726 H 0.84516 0.62469 0.18093 0.0
C727 C 0.9065 0.67952 0.14979 0.0
C728 C 0.87836 0.63693 0.09829 0.0
C729 C 0.92717 0.68851 0.15679 0.0
C730 C 0.83918 0.55512 0.12472 0.0
C731 C 0.84829 0.57556 0.11788 0.0
C732 C 0.85377 0.62845 0.15733 0.0
C733 C 0.90474 0.65933 0.13262 0.0
C734 C 0.88346 0.64787 0.129 0.0
C735 C 0.83822 0.59477 0.12996 0.0
C736 C 0.85035 0.61577 0.12767 0.0
H737 H 0.95889 0.64824 0.1218 0.0
H738 H 0.9231 0.63284 0.10914 0.0
H739 H 0.87384 0.65255 0.18204 0.0
H740 H 0.79369 0.57161 0.16845 0.0
H741 H 0.81008 0.6077 0.15716 0.0
C742 C 0.94369 0.84151 0.62461 0.0
C743 C 0.94519 0.82189 0.64324 0.0
C744 C 0.92334 0.85051 0.61676 0.0
C745 C 0.86977 0.8555 0.65384 0.0
H746 H 0.86002 0.89047 0.5721 0.0
C747 C 0.81029 0.92926 0.65285 0.0
C748 C 0.822 0.94834 0.64439 0.0
C749 C 0.81913 0.90856 0.64552 0.0
C750 C 0.86226 0.88052 0.59488 0.0
H751 H 0.92661 0.79571 0.66696 0.0
H752 H 0.89067 0.8119 0.65391 0.0
H753 H 0.88783 0.86171 0.57157 0.0
H754 H 0.85123 0.96089 0.61971 0.0
H755 H 0.86638 0.92508 0.60651 0.0
H756 H 0.84528 0.87541 0.67789 0.0
C757 C 0.90537 0.82012 0.64514 0.0
C758 C 0.87816 0.86409 0.59459 0.0
C759 C 0.92587 0.81086 0.65251 0.0
C760 C 0.84196 0.94644 0.62679 0.0
C761 C 0.85051 0.92592 0.61889 0.0
C762 C 0.8538 0.87194 0.6541 0.0
C763 C 0.90396 0.84026 0.62774 0.0
C764 C 0.88296 0.85232 0.62467 0.0
C765 C 0.83948 0.90675 0.62884 0.0
C766 C 0.85083 0.88542 0.62523 0.0
H767 H 0.95833 0.85028 0.61692 0.0
H768 H 0.92286 0.8662 0.60378 0.0
H769 H 0.87314 0.84673 0.67744 0.0
H770 H 0.79486 0.93033 0.66649 0.0
H771 H 0.81036 0.89402 0.65356 0.0
C772 C 0.5523 0.84547 0.13077 0.0
C773 C 0.55035 0.82489 0.14649 0.0
C774 C 0.57278 0.85358 0.12164 0.0
C775 C 0.62779 0.85422 0.15136 0.0
H776 H 0.63613 0.8893 0.06938 0.0
C777 C 0.68863 0.92614 0.14917 0.0
C778 C 0.6772 0.94553 0.14147 0.0
C779 C 0.67943 0.90572 0.14125 0.0
C780 C 0.63429 0.8793 0.09217 0.0
H781 H 0.56817 0.79631 0.16419 0.0
H782 H 0.60445 0.81104 0.14929 0.0
H783 H 0.60684 0.86209 0.07113 0.0
H784 H 0.64815 0.95892 0.11722 0.0
H785 H 0.63228 0.92362 0.10327 0.0
H786 H 0.65395 0.87278 0.17354 0.0
C787 C 0.58995 0.82061 0.14357 0.0
C788 C 0.61758 0.86374 0.09314 0.0
C789 C 0.56928 0.81224 0.15207 0.0
C790 C 0.65721 0.94423 0.12379 0.0
C791 C 0.64825 0.92398 0.1154 0.0
C792 C 0.64449 0.86988 0.15045 0.0
C793 C 0.59184 0.84144 0.1285 0.0
C794 C 0.61337 0.85203 0.12346 0.0
C795 C 0.65894 0.90449 0.12483 0.0
C796 C 0.64695 0.88349 0.12159 0.0
H797 H 0.53796 0.85548 0.12588 0.0
H798 H 0.57378 0.86984 0.11059 0.0
H799 H 0.62485 0.84542 0.17507 0.0
H800 H 0.7041 0.92674 0.16279 0.0
H801 H 0.68797 0.89093 0.14884 0.0
C802 C 0.56743 0.68387 0.62742 0.0
C803 C 0.55472 0.67569 0.65464 0.0
C804 C 0.58856 0.67559 0.62157 0.0
C805 C 0.62164 0.63826 0.60421 0.0
H806 H 0.65956 0.62442 0.68118 0.0
C807 C 0.66066 0.55551 0.62425 0.0
C808 C 0.68056 0.55322 0.64199 0.0
C809 C 0.65205 0.57621 0.61754 0.0
C810 C 0.64963 0.62857 0.65906 0.0
H811 H 0.55443 0.65351 0.69813 0.0
H812 H 0.59111 0.63949 0.68839 0.0
H813 H 0.63135 0.65236 0.68752 0.0
H814 H 0.70781 0.5708 0.66466 0.0
H815 H 0.69239 0.60727 0.65359 0.0
H816 H 0.63886 0.61328 0.57655 0.0
C817 C 0.58489 0.65211 0.67141 0.0
C818 C 0.63338 0.64448 0.66279 0.0
C819 C 0.56377 0.65994 0.67673 0.0
C820 C 0.69239 0.57211 0.65104 0.0
C821 C 0.68358 0.59294 0.64474 0.0
C822 C 0.63785 0.62224 0.60051 0.0
C823 C 0.59739 0.65956 0.64352 0.0
C824 C 0.61846 0.64854 0.63606 0.0
C825 C 0.66301 0.59514 0.62875 0.0
C826 C 0.65114 0.61636 0.62856 0.0
H827 H 0.56078 0.69603 0.61005 0.0
H828 H 0.59787 0.68145 0.59976 0.0
H829 H 0.61034 0.64109 0.5832 0.0
H830 H 0.6513 0.54124 0.61659 0.0
H831 H 0.63605 0.57727 0.6056 0.0
C832 C 0.24132 0.52741 0.96028 0.0
C833 C 0.24072 0.51052 0.93574 0.0
C834 C 0.25075 0.52393 0.99241 0.0
C835 C 0.26341 0.48116 0.0547 0.0
H836 H 0.29873 0.52689 0.09619 0.0
C837 C 0.31196 0.50299 0.18962 0.0
C838 C 0.29518 0.49807 0.21314 0.0
C839 C 0.3082 0.50147 0.1543 0.0
C840 C 0.28919 0.5138 0.08484 0.0
H841 H 0.2496 0.47665 0.92589 0.0
H842 H 0.26599 0.47056 0.98243 0.0
H843 H 0.28718 0.53038 0.03655 0.0
H844 H 0.26159 0.48672 0.21784 0.0
H845 H 0.25506 0.48426 0.1564 0.0
H846 H 0.26511 0.46477 0.10328 0.0
C847 C 0.25912 0.48649 0.97655 0.0
C848 C 0.28239 0.51591 0.0508 0.0
C849 C 0.2498 0.49002 0.94417 0.0
C850 C 0.27487 0.49075 0.20052 0.0
C851 C 0.27116 0.48914 0.16525 0.0
C852 C 0.27014 0.47908 0.08886 0.0
C853 C 0.25972 0.50345 0.00093 0.0
C854 C 0.26902 0.49987 0.03563 0.0
C855 C 0.28764 0.49488 0.14175 0.0
C856 C 0.28273 0.49561 0.10448 0.0
H857 H 0.23452 0.54342 0.95474 0.0
H858 H 0.25066 0.53721 0.01087 0.0
H859 H 0.25305 0.46858 0.0437 0.0
H860 H 0.32784 0.50859 0.1984 0.0
H861 H 0.32128 0.50577 0.13678 0.0
C862 C 0.99482 0.30771 0.69131 0.0
C863 C 0.00356 0.29296 0.71543 0.0
C864 C 0.99542 0.3028 0.65624 0.0
C865 C 0.99661 0.25455 0.60079 0.0
H866 H 0.00478 0.29637 0.52691 0.0
C867 C 0.00215 0.25337 0.44418 0.0
C868 C 0.98358 0.24045 0.43714 0.0
C869 C 0.00606 0.26111 0.47743 0.0
C870 C 0.00264 0.28451 0.54733 0.0
H871 H 0.0213 0.26235 0.72149 0.0
H872 H 0.02256 0.254 0.66054 0.0
H873 H 0.01062 0.30789 0.58653 0.0
H874 H 0.95433 0.226 0.45949 0.0
H875 H 0.96119 0.23951 0.5171 0.0
H876 H 0.98861 0.23121 0.56193 0.0
C877 C 0.01476 0.26906 0.66872 0.0
C878 C 0.00581 0.29113 0.58137 0.0
C879 C 0.01406 0.27389 0.70365 0.0
C880 C 0.96886 0.23579 0.46392 0.0
C881 C 0.97283 0.24343 0.49704 0.0
C882 C 0.99337 0.248 0.56694 0.0
C883 C 0.00486 0.28311 0.64474 0.0
C884 C 0.00271 0.27621 0.60843 0.0
C885 C 0.99157 0.25595 0.50422 0.0
C886 C 0.99611 0.26294 0.53989 0.0
H887 H 0.98665 0.32256 0.69957 0.0
H888 H 0.98756 0.31389 0.63835 0.0
H889 H 0.99379 0.24274 0.62107 0.0
H890 H 0.01378 0.25732 0.42414 0.0
H891 H 0.02069 0.27065 0.48234 0.0
C892 C 0.24992 0.00529 0.94155 0.0
C893 C 0.25944 0.98498 0.93317 0.0
C894 C 0.24064 0.00871 0.97393 0.0
C895 C 0.21872 0.97907 0.04917 0.0
H896 H 0.23296 0.03223 0.09895 0.0
C897 C 0.22354 0.00896 0.19736 0.0
C898 C 0.20349 0.00106 0.21015 0.0
C899 C 0.22756 0.00946 0.16213 0.0
C900 C 0.2288 0.01733 0.08532 0.0
H901 H 0.26657 0.95233 0.95241 0.0
H902 H 0.25059 0.9584 0.00873 0.0
H903 H 0.24558 0.02772 0.0399 0.0
H904 H 0.17164 0.98819 0.19566 0.0
H905 H 0.17872 0.9891 0.13398 0.0
H906 H 0.20268 0.9683 0.09496 0.0
C907 C 0.25005 0.97158 0.99013 0.0
C908 C 0.23585 0.01483 0.05142 0.0
C909 C 0.25938 0.96818 0.95788 0.0
C910 C 0.18728 0.99432 0.18673 0.0
C911 C 0.19136 0.99474 0.15141 0.0
C912 C 0.21162 0.98159 0.08301 0.0
C913 C 0.24058 0.99187 -0.00147 0.0
C914 C 0.23128 0.99547 0.03325 0.0
C915 C 0.21167 0.00202 0.13878 0.0
C916 C 0.21697 0.00055 0.10168 0.0
H917 H 0.24964 0.01858 0.92314 0.0
H918 H 0.23335 0.02448 0.97962 0.0
H919 H 0.21469 0.9641 0.03564 0.0
H920 H 0.23638 0.01436 0.21459 0.0
H921 H 0.24346 0.01491 0.15326 0.0
C922 C 0.49087 0.24704 0.44118 0.0
C923 C 0.51146 0.25592 0.43279 0.0
C924 C 0.48716 0.23804 0.47368 0.0
C925 C 0.5159 0.21559 0.54918 0.0
H926 H 0.4645 0.23421 0.5999 0.0
C927 C 0.48966 0.22577 0.69795 0.0
C928 C 0.49667 0.20557 0.71144 0.0
C929 C 0.48835 0.22893 0.66253 0.0
C930 C 0.47887 0.2288 0.58597 0.0
H931 H 0.54435 0.26198 0.45189 0.0
H932 H 0.53782 0.24639 0.50833 0.0
H933 H 0.4689 0.24529 0.54 0.0
H934 H 0.50688 0.17254 0.69813 0.0
H935 H 0.50456 0.17815 0.63626 0.0
H936 H 0.52635 0.19987 0.5954 0.0
C937 C 0.52461 0.24622 0.48973 0.0
C938 C 0.4813 0.23497 0.55164 0.0
C939 C 0.52829 0.25533 0.45743 0.0
C940 C 0.50154 0.18836 0.68866 0.0
C941 C 0.5003 0.19157 0.6532 0.0
C942 C 0.51344 0.20935 0.58341 0.0
C943 C 0.50401 0.23756 0.49825 0.0
C944 C 0.5001 0.22886 0.53319 0.0
C945 C 0.49406 0.212 0.63979 0.0
C946 C 0.49515 0.21631 0.60239 0.0
H947 H 0.47754 0.24723 0.42281 0.0
H948 H 0.47115 0.23138 0.47955 0.0
H949 H 0.53043 0.21043 0.53541 0.0
H950 H 0.48569 0.23937 0.71469 0.0
H951 H 0.48373 0.24495 0.65297 0.0
C952 C 0.77698 0.51428 0.2922 0.0
C953 C 0.79389 0.50153 0.27795 0.0
C954 C 0.77396 0.51498 0.32776 0.0
C955 C 0.77713 0.4803 0.40007 0.0
H956 H 0.77728 0.53183 0.45829 0.0
C957 C 0.76 0.47159 0.54359 0.0
C958 C 0.74767 0.48803 0.55961 0.0
C959 C 0.76856 0.47489 0.51083 0.0
C960 C 0.77687 0.51731 0.44236 0.0
H961 H 0.82117 0.47997 0.28974 0.0
H962 H 0.81533 0.48069 0.3518 0.0
H963 H 0.78635 0.53531 0.39731 0.0
H964 H 0.73489 0.52096 0.55468 0.0
H965 H 0.74867 0.52639 0.49649 0.0
H966 H 0.7664 0.46233 0.44373 0.0
C967 C 0.80474 0.49037 0.33539 0.0
C968 C 0.78222 0.51934 0.40757 0.0
C969 C 0.80806 0.49001 0.29996 0.0
C970 C 0.74449 0.50809 0.54279 0.0
C971 C 0.75252 0.5112 0.50951 0.0
C972 C 0.7713 0.47832 0.4345 0.0
C973 C 0.78752 0.50262 0.34946 0.0
C974 C 0.78245 0.5008 0.38631 0.0
C975 C 0.76434 0.49446 0.49282 0.0
C976 C 0.77116 0.49676 0.45626 0.0
H977 H 0.76588 0.5234 0.27584 0.0
H978 H 0.76048 0.52442 0.3382 0.0
H979 H 0.77691 0.46585 0.38389 0.0
H980 H 0.76291 0.45609 0.55637 0.0
H981 H 0.7782 0.46189 0.49947 0.0
C982 C 0.9861 0.77447 0.79431 0.0
C983 C 0.99254 0.79487 0.78086 0.0
C984 C 0.9844 0.77134 0.82972 0.0
C985 C 0.97455 0.77068 0.90618 0.0
H986 H 0.02456 0.79194 0.95779 0.0
C987 C 0.98806 0.75114 0.05083 0.0
C988 C 0.00925 0.7435 0.05856 0.0
C989 C 0.9835 0.76043 0.01871 0.0
C990 C 0.01043 0.78598 0.94376 0.0
H991 H 0.00117 0.8283 0.79431 0.0
H992 H 0.99813 0.82279 0.85614 0.0
H993 H 0.02012 0.80261 0.89795 0.0
H994 H 0.04233 0.74005 0.0387 0.0
H995 H 0.03438 0.75613 0.98314 0.0
H996 H 0.96547 0.75323 0.95176 0.0
C997 C 0.99466 0.80916 0.83917 0.0
C998 C 0.00775 0.79228 0.90957 0.0
C999 C 0.99631 0.81232 0.80371 0.0
C1000 C 0.0258 0.74568 0.03369 0.0
C1001 C 0.02131 0.75509 0.00187 0.0
C1002 C 0.9772 0.76443 0.94049 0.0
C1003 C 0.98911 0.78851 0.85259 0.0
C1004 C 0.99009 0.78426 0.89012 0.0
C1005 C 0.00012 0.7625 0.99394 0.0
C1006 C 0.99551 0.77153 0.95931 0.0
H1007 H 0.98296 0.76066 0.77755 0.0
H1008 H 0.98033 0.75516 0.83919 0.0
H1009 H 0.96064 0.76443 0.89196 0.0
H1010 H 0.97493 0.74969 0.0694 0.0
H1011 H 0.96703 0.76606 0.01329 0.0
C1012 C 0.72475 0.98028 0.28846 0.0
C1013 C 0.70631 0.99222 0.27764 0.0
C1014 C 0.72953 0.97815 0.32328 0.0
C1015 C 0.70845 0.98715 0.41166 0.0
H1016 H 0.76938 0.00077 0.43034 0.0
C1017 C 0.76495 0.02512 0.52598 0.0
C1018 C 0.75979 0.01175 0.55423 0.0
C1019 C 0.7574 0.0199 0.49328 0.0
C1020 C 0.75233 0.9969 0.42554 0.0
H1021 H 0.67768 0.01016 0.29489 0.0
H1022 H 0.68637 0.00692 0.35589 0.0
H1023 H 0.75739 0.99577 0.37145 0.0
H1024 H 0.74217 0.98259 0.57024 0.0
H1025 H 0.72886 0.97351 0.51261 0.0
H1026 H 0.70344 0.98922 0.46612 0.0
C1027 C 0.69696 0.99894 0.33741 0.0
C1028 C 0.74548 0.99377 0.39182 0.0
C1029 C 0.69204 0.0009 0.30246 0.0
C1030 C 0.74651 0.99319 0.54902 0.0
C1031 C 0.73881 0.98803 0.51612 0.0
C1032 C 0.71537 0.99025 0.4456 0.0
C1033 C 0.71613 0.98811 0.34809 0.0
C1034 C 0.72342 0.9892 0.38439 0.0
C1035 C 0.74444 0.00122 0.48792 0.0
C1036 C 0.73729 0.99563 0.4527 0.0
H1037 H 0.73585 0.97303 0.26997 0.0
H1038 H 0.74415 0.96927 0.33074 0.0
H1039 H 0.69138 0.98348 0.40672 0.0
H1040 H 0.77506 0.03958 0.52894 0.0
H1041 H 0.76168 0.03057 0.47209 0.0
C1042 C 0.47403 0.77111 0.02515 0.0
C1043 C 0.48727 0.76546 0.05333 0.0
C1044 C 0.47922 0.76374 0.99233 0.0
C1045 C 0.50136 0.75732 0.92406 0.0
H1046 H 0.51449 0.69597 0.90808 0.0
C1047 C 0.51615 0.72587 0.78816 0.0
C1048 C 0.50405 0.70713 0.77921 0.0
C1049 C 0.51857 0.73186 0.82246 0.0
C1050 C 0.51091 0.71315 0.91222 0.0
H1051 H 0.51631 0.74747 0.06908 0.0
H1052 H 0.52532 0.73456 0.01141 0.0
H1053 H 0.50944 0.70921 0.96685 0.0
H1054 H 0.48598 0.67934 0.79934 0.0
H1055 H 0.48979 0.69012 0.85928 0.0
H1056 H 0.50184 0.76122 0.86967 0.0
C1057 C 0.51091 0.74467 0.01499 0.0
C1058 C 0.50821 0.72075 0.9458 0.0
C1059 C 0.50578 0.75214 0.04792 0.0
C1060 C 0.49534 0.69391 0.8054 0.0
C1061 C 0.49765 0.7 0.83976 0.0
C1062 C 0.50407 0.74977 0.89062 0.0
C1063 C 0.49773 0.75053 0.9869 0.0
C1064 C 0.50293 0.74281 0.9519 0.0
C1065 C 0.50883 0.71934 0.84854 0.0
C1066 C 0.50847 0.72753 0.88429 0.0
H1067 H 0.45965 0.78131 0.02834 0.0
H1068 H 0.46857 0.7682 0.9712 0.0
H1069 H 0.49759 0.77447 0.92811 0.0
H1070 H 0.5234 0.73622 0.76863 0.0
H1071 H 0.52763 0.74662 0.82852 0.0
C1072 C 0.68688 0.49978 0.8002 0.0
C1073 C 0.70484 0.50332 0.77825 0.0
C1074 C 0.68933 0.50156 0.83579 0.0
C1075 C 0.70456 0.48915 0.90751 0.0
H1076 H 0.74337 0.53152 0.95012 0.0
C1077 C 0.74935 0.47212 0.03366 0.0
C1078 C 0.75198 0.48908 0.05775 0.0
C1079 C 0.74002 0.47625 0.00165 0.0
C1080 C 0.73221 0.51978 0.93875 0.0
H1081 H 0.73923 0.51241 0.77663 0.0
H1082 H 0.74348 0.51524 0.83845 0.0
H1083 H 0.73323 0.53576 0.88982 0.0
H1084 H 0.74651 0.52371 0.06712 0.0
H1085 H 0.73024 0.53094 0.01079 0.0
H1086 H 0.70386 0.47295 0.95621 0.0
C1087 C 0.72746 0.51131 0.8282 0.0
C1088 C 0.72658 0.52208 0.90414 0.0
C1089 C 0.72505 0.50948 0.79268 0.0
C1090 C 0.74474 0.51027 0.04916 0.0
C1091 C 0.7355 0.51444 0.0169 0.0
C1092 C 0.71022 0.48684 0.94205 0.0
C1093 C 0.70974 0.507 0.85019 0.0
C1094 C 0.71316 0.50647 0.88792 0.0
C1095 C 0.73312 0.49746 0.99279 0.0
C1096 C 0.72459 0.50178 0.95777 0.0
H1097 H 0.67105 0.49512 0.78999 0.0
H1098 H 0.67531 0.49836 0.85208 0.0
H1099 H 0.69431 0.47676 0.89577 0.0
H1100 H 0.75466 0.45557 0.03935 0.0
H1101 H 0.73875 0.46289 0.98346 0.0
C1102 C 0.01317 0.69166 0.30291 0.0
C1103 C 0.00016 0.7043 0.28065 0.0
C1104 C 0.01331 0.69595 0.33814 0.0
C1105 C 0.98352 0.7181 0.41001 0.0
H1106 H 0.03963 0.73816 0.44443 0.0
C1107 C 0.99278 0.75765 0.5444 0.0
C1108 C 0.01295 0.75566 0.56143 0.0
C1109 C 0.99027 0.74964 0.51096 0.0
C1110 C 0.02392 0.73212 0.4357 0.0
H1111 H 0.97628 0.73058 0.27798 0.0
H1112 H 0.97605 0.73757 0.33996 0.0
H1113 H 0.03639 0.72623 0.38513 0.0
H1114 H 0.04589 0.7427 0.55789 0.0
H1115 H 0.04124 0.72755 0.50067 0.0
H1116 H 0.97106 0.72323 0.46067 0.0
C1117 C 0.9863 0.72457 0.32989 0.0
C1118 C 0.02209 0.72546 0.40156 0.0
C1119 C 0.98652 0.72063 0.29452 0.0
C1120 C 0.03026 0.74473 0.54509 0.0
C1121 C 0.0276 0.73622 0.5121 0.0
C1122 C 0.98543 0.72428 0.44449 0.0
C1123 C 6e-05 0.71258 0.3518 0.0
C1124 C 0.00188 0.71856 0.3884 0.0
C1125 C 0.00774 0.73899 0.49417 0.0
C1126 C 0.00565 0.73155 0.45779 0.0
H1127 H 0.02394 0.67906 0.29295 0.0
H1128 H 0.02405 0.68654 0.35468 0.0
H1129 H 0.96777 0.71275 0.40028 0.0
H1130 H 0.97921 0.76615 0.55643 0.0
H1131 H 0.97482 0.75243 0.49802 0.0
C1132 C 0.74157 0.99193 0.04115 0.0
C1133 C 0.74441 0.01183 0.0586 0.0
C1134 C 0.74962 0.98937 0.00779 0.0
C1135 C 0.76809 0.02314 0.93368 0.0
H1136 H 0.78548 0.96682 0.89638 0.0
C1137 C 0.80773 0.01292 0.80078 0.0
C1138 C 0.79442 0.001 0.77801 0.0
C1139 C 0.80359 0.01249 0.83599 0.0
C1140 C 0.78068 0.9826 0.90667 0.0
H1141 H 0.759 0.04412 0.05619 0.0
H1142 H 0.77422 0.03931 -0.00096 0.0
H1143 H 0.77549 0.96972 0.95706 0.0
H1144 H 0.76708 0.97842 0.7743 0.0
H1145 H 0.76025 0.97725 0.83631 0.0
H1146 H 0.77399 0.03602 0.8834 0.0
C1147 C 0.76487 0.02599 0.01007 0.0
C1148 C 0.7748 0.9843 0.94127 0.0
C1149 C 0.75632 0.02873 0.04296 0.0
C1150 C 0.77752 0.98784 0.79127 0.0
C1151 C 0.77368 0.98706 0.82662 0.0
C1152 C 0.77442 0.02151 0.89942 0.0
C1153 C 0.76113 0.00651 0.99161 0.0
C1154 C 0.76828 0.00459 0.95519 0.0
C1155 C 0.78641 -0.00024 0.84906 0.0
C1156 C 0.78061 0.00124 0.88565 0.0
H1157 H 0.73232 0.9787 0.05271 0.0
H1158 H 0.74614 0.97424 0.99437 0.0
H1159 H 0.7626 0.03892 0.94297 0.0
H1160 H 0.82081 0.02329 0.79131 0.0
H1161 H 0.81354 0.02242 0.85299 0.0
C1162 C 0.49271 0.80626 0.30428 0.0
C1163 C 0.50035 0.79197 0.27864 0.0
C1164 C 0.49398 0.80029 0.33886 0.0
C1165 C 0.50592 0.78641 0.41192 0.0
H1166 H 0.48741 0.7266 0.42907 0.0
C1167 C 0.50378 0.74693 0.54743 0.0
C1168 C 0.48498 0.7345 0.55497 0.0
C1169 C 0.50743 0.75468 0.51417 0.0
C1170 C 0.49255 0.74336 0.4247 0.0
H1171 H 0.51679 0.76096 0.26929 0.0
H1172 H 0.51924 0.75077 0.32947 0.0
H1173 H 0.49146 0.73935 0.37032 0.0
H1174 H 0.45514 0.72072 0.53348 0.0
H1175 H 0.4615 0.73431 0.47576 0.0
H1176 H 0.5063 0.79048 0.46659 0.0
C1177 C 0.51178 0.76631 0.32284 0.0
C1178 C 0.49515 0.75059 0.39106 0.0
C1179 C 0.5104 0.77219 0.28836 0.0
C1180 C 0.46985 0.73015 0.52862 0.0
C1181 C 0.47353 0.73783 0.49546 0.0
C1182 C 0.50336 0.77913 0.44571 0.0
C1183 C 0.50302 0.77999 0.34836 0.0
C1184 C 0.50169 0.77223 0.38429 0.0
C1185 C 0.4924 0.75004 0.48785 0.0
C1186 C 0.49637 0.7576 0.45234 0.0
H1187 H 0.48491 0.82162 0.29762 0.0
H1188 H 0.48697 0.8111 0.35797 0.0
H1189 H 0.51111 0.80313 0.40742 0.0
H1190 H 0.51576 0.75061 0.56713 0.0
H1191 H 0.52219 0.76394 0.50891 0.0
C1192 C 0.18858 0.50085 0.68919 0.0
C1193 C 0.20538 0.496 0.71275 0.0
C1194 C 0.19246 0.49977 0.6539 0.0
C1195 C 0.21117 0.51323 0.58497 0.0
H1196 H 0.24841 0.46933 0.54271 0.0
C1197 C 0.25852 0.52931 0.46091 0.0
C1198 C 0.25945 0.51274 0.43586 0.0
C1199 C 0.24924 0.52523 0.49294 0.0
C1200 C 0.23775 0.48154 0.55404 0.0
H1201 H 0.23919 0.48531 0.71749 0.0
H1202 H 0.24597 0.48369 0.65602 0.0
H1203 H 0.23655 0.46465 0.60223 0.0
H1204 H 0.25131 0.47882 0.42498 0.0
H1205 H 0.23517 0.47168 0.48139 0.0
H1206 H 0.21266 0.53031 0.53709 0.0
C1207 C 0.22974 0.48813 0.66486 0.0
C1208 C 0.23113 0.47897 0.58815 0.0
C1209 C 0.22589 0.48924 0.70014 0.0
C1210 C 0.25083 0.49195 0.44367 0.0
C1211 C 0.24167 0.48782 0.47596 0.0
C1212 C 0.21785 0.51584 0.55099 0.0
C1213 C 0.21319 0.49377 0.64138 0.0
C1214 C 0.21814 0.49502 0.60417 0.0
C1215 C 0.24075 0.50446 0.50084 0.0
C1216 C 0.2316 0.50028 0.53543 0.0
H1217 H 0.17253 0.50596 0.69794 0.0
H1218 H 0.17932 0.50396 0.63638 0.0
H1219 H 0.20132 0.52597 0.59664 0.0
H1220 H 0.26496 0.54553 0.45584 0.0
H1221 H 0.24908 0.53828 0.5118 0.0
C1222 C 0.00525 0.2297 0.20179 0.0
C1223 C 0.00452 0.20823 0.21472 0.0
C1224 C 0.00851 0.23347 0.16692 0.0
C1225 C 0.00193 0.20687 0.08286 0.0
H1226 H 0.02994 0.26043 0.0521 0.0
C1227 C 0.00507 0.23827 0.9409 0.0
C1228 C 0.99336 0.25805 0.93825 0.0
C1229 C 0.01057 0.22983 0.97317 0.0
C1230 C 0.02234 0.24528 0.06036 0.0
H1231 H 0.00737 0.17385 0.20124 0.0
H1232 H 0.01354 0.18048 0.14017 0.0
H1233 H 0.03328 0.2493 0.11206 0.0
H1234 H 0.97877 0.2848 0.96692 0.0
H1235 H 0.98896 0.27034 0.02314 0.0
H1236 H 0.99089 0.20316 0.03086 0.0
C1237 C 0.01116 0.19439 0.15704 0.0
C1238 C 0.02406 0.23898 0.09465 0.0
C1239 C 0.00768 0.19059 0.19203 0.0
C1240 C 0.98764 0.26944 0.96825 0.0
C1241 C 0.99359 0.26129 0.00032 0.0
C1242 C 0.00055 0.21301 0.04837 0.0
C1243 C 0.01139 0.21588 0.14404 0.0
C1244 C 0.01309 0.2202 0.10662 0.0
C1245 C 0.00496 0.2414 0.003 0.0
C1246 C 0.01008 0.23266 0.03727 0.0
H1247 H 0.00272 0.24369 0.21844 0.0
H1248 H 0.00804 0.25022 0.1578 0.0
H1249 H 0.99315 0.19241 0.09119 0.0
H1250 H 0.00961 0.22917 0.9181 0.0
H1251 H 0.01929 0.2144 0.97486 0.0
C1252 C 0.25748 0.00707 0.43698 0.0
C1253 C 0.23757 0.99563 0.43423 0.0
C1254 C 0.26602 0.0123 0.46933 0.0
C1255 C 0.25093 0.02268 0.55768 0.0
H1256 H 0.30466 0.99376 0.58551 0.0
C1257 C 0.26889 0.00407 0.69819 0.0
C1258 C 0.29056 0.00368 0.71038 0.0
C1259 C 0.26454 0.00742 0.66349 0.0
C1260 C 0.28994 0.00244 0.57806 0.0
H1261 H 0.2106 0.98139 0.46277 0.0
H1262 H 0.2252 0.99112 0.51908 0.0
H1263 H 0.2932 0.99256 0.52542 0.0
H1264 H 0.32467 0.00709 0.69565 0.0
H1265 H 0.317 0.01343 0.63489 0.0
H1266 H 0.24738 0.03249 0.61 0.0
C1267 C 0.2343 0.99576 0.49633 0.0
C1268 C 0.28339 0.00168 0.54367 0.0
C1269 C 0.22605 0.99008 0.46419 0.0
C1270 C 0.30779 0.00715 0.68705 0.0
C1271 C 0.3034 0.01072 0.65222 0.0
C1272 C 0.25762 0.02377 0.59187 0.0
C1273 C 0.25443 0.00669 0.49917 0.0
C1274 C 0.26346 0.01114 0.53356 0.0
C1275 C 0.2817 0.01074 0.63999 0.0
C1276 C 0.27675 0.0129 0.60277 0.0
H1277 H 0.26668 0.01146 0.41422 0.0
H1278 H 0.28162 0.02069 0.47109 0.0
H1279 H 0.23557 0.03024 0.55025 0.0
H1280 H 0.2552 0.00128 0.71533 0.0
H1281 H 0.24765 0.00676 0.65499 0.0
C1282 C 0.49046 0.25473 0.94011 0.0
C1283 C 0.50945 0.24219 0.93423 0.0
C1284 C 0.48549 0.26225 0.9732 0.0
C1285 C 0.49592 0.24864 0.06323 0.0
H1286 H 0.48089 0.30901 0.08361 0.0
C1287 C 0.47952 0.27464 0.20119 0.0
C1288 C 0.4911 0.29326 0.21224 0.0
C1289 C 0.47731 0.27008 0.1663 0.0
C1290 C 0.48501 0.29209 0.07823 0.0
H1291 H 0.5383 0.22813 0.95853 0.0
H1292 H 0.52959 0.24114 0.01568 0.0
H1293 H 0.48631 0.2976 0.0238 0.0
H1294 H 0.50831 0.3224 0.19524 0.0
H1295 H 0.50488 0.31412 0.13413 0.0
H1296 H 0.49548 0.2431 0.11725 0.0
C1297 C 0.51846 0.245 0.99487 0.0
C1298 C 0.48793 0.28555 0.04407 0.0
C1299 C 0.52348 0.23766 0.96199 0.0
C1300 C 0.49934 0.30789 0.18754 0.0
C1301 C 0.49727 0.30321 0.15252 0.0
C1302 C 0.49293 0.25511 0.09716 0.0
C1303 C 0.49932 0.25713 0.00092 0.0
C1304 C 0.49388 0.26386 0.0364 0.0
C1305 C 0.4868 0.2839 0.14162 0.0
C1306 C 0.48778 0.27697 0.10515 0.0
H1307 H 0.47934 0.25858 0.91928 0.0
H1308 H 0.47061 0.27157 0.97726 0.0
H1309 H 0.50025 0.23175 0.05799 0.0
H1310 H 0.47261 0.26324 0.21954 0.0
H1311 H 0.46874 0.25533 0.15867 0.0
C1312 C 0.23258 0.58523 0.3124 0.0
C1313 C 0.23479 0.56297 0.30365 0.0
C1314 C 0.2147 0.59742 0.30078 0.0
C1315 C 0.15847 0.59147 0.2665 0.0
H1316 H 0.16675 0.65213 0.23987 0.0
C1317 C 0.10806 0.66454 0.19249 0.0
C1318 C 0.0872 0.66147 0.20701 0.0
C1319 C 0.12624 0.65329 0.20538 0.0
C1320 C 0.16416 0.63517 0.24697 0.0
H1321 H 0.21994 0.53618 0.27537 0.0
H1322 H 0.18892 0.5576 0.25452 0.0
H1323 H 0.19813 0.63045 0.25814 0.0
H1324 H 0.06933 0.64488 0.24758 0.0
H1325 H 0.10112 0.62571 0.27052 0.0
H1326 H 0.12461 0.59598 0.25426 0.0
C1327 C 0.20085 0.56551 0.27096 0.0
C1328 C 0.18213 0.62279 0.25785 0.0
C1329 C 0.21871 0.55325 0.28276 0.0
C1330 C 0.08512 0.64751 0.23556 0.0
C1331 C 0.10332 0.63637 0.24857 0.0
C1332 C 0.14051 0.60382 0.25547 0.0
C1333 C 0.19861 0.58773 0.27991 0.0
C1334 C 0.17951 0.60079 0.26781 0.0
C1335 C 0.12404 0.63882 0.23326 0.0
C1336 C 0.14312 0.62583 0.2456 0.0
H1337 H 0.24455 0.59327 0.32862 0.0
H1338 H 0.21333 0.61438 0.30867 0.0
H1339 H 0.15579 0.57466 0.27436 0.0
H1340 H 0.11029 0.67507 0.17038 0.0
H1341 H 0.14189 0.65541 0.19271 0.0
C1342 C 0.83478 0.10956 0.69539 0.0
C1343 C 0.83802 0.08837 0.70867 0.0
C1344 C 0.84602 0.12745 0.70918 0.0
C1345 C 0.89611 0.14033 0.75824 0.0
H1346 H 0.87 0.19809 0.76492 0.0
C1347 C 0.91702 0.23107 0.81796 0.0
C1348 C 0.93899 0.23326 0.80761 0.0
C1349 C 0.90432 0.21354 0.80642 0.0
C1350 C 0.8775 0.18203 0.7635 0.0
H1351 H 0.85479 0.06964 0.74813 0.0
H1352 H 0.874 0.10091 0.77257 0.0
H1353 H 0.84771 0.16721 0.74619 0.0
H1354 H 0.96471 0.21877 0.77655 0.0
H1355 H 0.94241 0.18837 0.75595 0.0
H1356 H 0.92576 0.15502 0.77627 0.0
C1357 C 0.8632 0.10359 0.75091 0.0
C1358 C 0.86477 0.16437 0.75239 0.0
C1359 C 0.85205 0.08568 0.73702 0.0
C1360 C 0.9479 0.21754 0.78521 0.0
C1361 C 0.93514 0.20004 0.77354 0.0
C1362 C 0.90881 0.15796 0.76944 0.0
C1363 C 0.86067 0.12461 0.7367 0.0
C1364 C 0.87394 0.14331 0.74956 0.0
C1365 C 0.91321 0.19779 0.7841 0.0
C1366 C 0.89969 0.17904 0.77212 0.0
H1367 H 0.82416 0.11226 0.6735 0.0
H1368 H 0.84382 0.14338 0.6974 0.0
H1369 H 0.90379 0.12441 0.75588 0.0
H1370 H 0.90961 0.24278 0.83533 0.0
H1371 H 0.88761 0.21214 0.81548 0.0
C1372 C 0.2663 0.91777 0.31756 0.0
C1373 C 0.2642 0.93968 0.30683 0.0
C1374 C 0.28416 0.90512 0.3072 0.0
C1375 C 0.34048 0.90954 0.27312 0.0
H1376 H 0.33158 0.84848 0.24932 0.0
C1377 C 0.38971 0.83601 0.19968 0.0
C1378 C 0.41078 0.8391 0.21351 0.0
C1379 C 0.37169 0.84709 0.21334 0.0
C1380 C 0.33434 0.86553 0.25573 0.0
H1381 H 0.27926 0.96538 0.27642 0.0
H1382 H 0.31028 0.94315 0.25785 0.0
H1383 H 0.30042 0.8708 0.26669 0.0
H1384 H 0.42914 0.85542 0.25387 0.0
H1385 H 0.3976 0.87438 0.27806 0.0
H1386 H 0.37427 0.90446 0.26106 0.0
C1387 C 0.29825 0.93589 0.27482 0.0
C1388 C 0.31651 0.87827 0.26604 0.0
C1389 C 0.28039 0.9486 0.28531 0.0
C1390 C 0.4132 0.85276 0.24236 0.0
C1391 C 0.39514 0.86378 0.25609 0.0
C1392 C 0.3583 0.89681 0.26272 0.0
C1393 C 0.30035 0.91401 0.2857 0.0
C1394 C 0.31935 0.90045 0.27477 0.0
C1395 C 0.37426 0.86144 0.24127 0.0
C1396 C 0.35544 0.87466 0.25379 0.0
H1397 H 0.25424 0.91034 0.33431 0.0
H1398 H 0.28544 0.88845 0.3165 0.0
H1399 H 0.34329 0.92649 0.28007 0.0
H1400 H 0.3872 0.82566 0.17744 0.0
H1401 H 0.35589 0.84504 0.20109 0.0
C1402 C 0.58241 0.27048 0.81106 0.0
C1403 C 0.56026 0.26814 0.8017 0.0
C1404 C 0.59464 0.28833 0.79964 0.0
C1405 C 0.58939 0.34432 0.76424 0.0
H1406 H 0.65028 0.33511 0.73969 0.0
C1407 C 0.66444 0.39303 0.69233 0.0
C1408 C 0.66171 0.41404 0.70656 0.0
C1409 C 0.65252 0.37523 0.70487 0.0
C1410 C 0.63326 0.33797 0.74618 0.0
H1411 H 0.53368 0.28283 0.77274 0.0
H1412 H 0.55525 0.31388 0.75216 0.0
H1413 H 0.62801 0.30414 0.75753 0.0
H1414 H 0.64484 0.43254 0.74615 0.0
H1415 H 0.62445 0.40134 0.76855 0.0
H1416 H 0.59451 0.37807 0.75178 0.0
C1417 C 0.56301 0.30201 0.76889 0.0
C1418 C 0.62054 0.32023 0.75683 0.0
C1419 C 0.55067 0.28415 0.78053 0.0
C1420 C 0.64728 0.41663 0.73443 0.0
C1421 C 0.63544 0.39877 0.74709 0.0
C1422 C 0.60211 0.36207 0.7534 0.0
C1423 C 0.58516 0.30429 0.77831 0.0
C1424 C 0.59846 0.32317 0.76612 0.0
C1425 C 0.63766 0.37791 0.73213 0.0
C1426 C 0.62422 0.35912 0.74428 0.0
H1427 H 0.59035 0.25861 0.82759 0.0
H1428 H 0.61151 0.28975 0.80799 0.0
H1429 H 0.57252 0.34723 0.77154 0.0
H1430 H 0.6753 0.3904 0.67074 0.0
H1431 H 0.65447 0.35948 0.69243 0.0
C1432 C 0.7323 0.41733 0.19925 0.0
C1433 C 0.72999 0.43966 0.19121 0.0
C1434 C 0.71428 0.40504 0.21 0.0
C1435 C 0.65711 0.41014 0.24242 0.0
H1436 H 0.6532 0.3497 0.21212 0.0
C1437 C 0.57894 0.35852 0.25956 0.0
C1438 C 0.58196 0.33829 0.27624 0.0
C1439 C 0.59688 0.37038 0.24741 0.0
C1440 C 0.65415 0.36652 0.22085 0.0
H1441 H 0.70701 0.46668 0.18849 0.0
H1442 H 0.67537 0.44511 0.20619 0.0
H1443 H 0.68463 0.37188 0.19528 0.0
H1444 H 0.60619 0.31415 0.29154 0.0
H1445 H 0.63754 0.33476 0.26954 0.0
H1446 H 0.62626 0.40478 0.26725 0.0
C1447 C 0.6912 0.43715 0.20502 0.0
C1448 C 0.67221 0.37924 0.21143 0.0
C1449 C 0.70933 0.44954 0.19476 0.0
C1450 C 0.60329 0.3297 0.27892 0.0
C1451 C 0.62123 0.34145 0.26628 0.0
C1452 C 0.63891 0.39751 0.25141 0.0
C1453 C 0.6934 0.41467 0.21247 0.0
C1454 C 0.67401 0.4012 0.22226 0.0
C1455 C 0.61821 0.36214 0.25118 0.0
C1456 C 0.6373 0.37557 0.24082 0.0
H1457 H 0.74807 0.40929 0.19716 0.0
H1458 H 0.71678 0.38795 0.21636 0.0
H1459 H 0.65805 0.42682 0.25179 0.0
H1460 H 0.56277 0.36568 0.25709 0.0
H1461 H 0.59412 0.38619 0.2355 0.0
C1462 C 0.07909 0.73352 0.7085 0.0
C1463 C 0.05711 0.73151 0.6982 0.0
C1464 C 0.09091 0.71522 0.71932 0.0
C1465 C 0.08487 0.65754 0.7483 0.0
H1466 H 0.14589 0.65392 0.72097 0.0
C1467 C 0.13645 0.57923 0.76648 0.0
C1468 C 0.15677 0.58219 0.78292 0.0
C1469 C 0.12452 0.59723 0.75461 0.0
C1470 C 0.12891 0.65479 0.72891 0.0
H1471 H 0.03016 0.70874 0.69181 0.0
H1472 H 0.05097 0.67661 0.70988 0.0
H1473 H 0.12413 0.68567 0.70422 0.0
H1474 H 0.1809 0.60637 0.79838 0.0
H1475 H 0.16014 0.63779 0.77709 0.0
H1476 H 0.08969 0.62637 0.77245 0.0
C1477 C 0.05898 0.69243 0.71022 0.0
C1478 C 0.11643 0.67301 0.7195 0.0
C1479 C 0.04704 0.71084 0.69977 0.0
C1480 C 0.16529 0.60351 0.78593 0.0
C1481 C 0.15345 0.6215 0.77366 0.0
C1482 C 0.0973 0.6392 0.75737 0.0
C1483 C 0.08117 0.69436 0.7197 0.0
C1484 C 0.09428 0.67472 0.7293 0.0
C1485 C 0.13276 0.61855 0.75851 0.0
C1486 C 0.11946 0.63771 0.74793 0.0
H1487 H 0.08726 0.74928 0.708 0.0
H1488 H 0.10776 0.71746 0.72729 0.0
H1489 H 0.06799 0.65841 0.75674 0.0
H1490 H 0.12936 0.56305 0.76376 0.0
H1491 H 0.10873 0.59449 0.74265 0.0
C1492 C 0.76533 0.07975 0.20347 0.0
C1493 C 0.76753 0.05783 0.19301 0.0
C1494 C 0.78362 0.09187 0.2135 0.0
C1495 C 0.84189 0.08665 0.23995 0.0
H1496 H 0.84385 0.14793 0.21356 0.0
C1497 C 0.91903 0.13975 0.25861 0.0
C1498 C 0.91552 0.15951 0.27638 0.0
C1499 C 0.90135 0.1277 0.24588 0.0
C1500 C 0.84347 0.13086 0.22117 0.0
H1501 H 0.79064 0.03128 0.18547 0.0
H1502 H 0.82272 0.05259 0.20215 0.0
H1503 H 0.81233 0.12564 0.1975 0.0
H1504 H 0.89072 0.18269 0.29301 0.0
H1505 H 0.85988 0.16178 0.2702 0.0
H1506 H 0.87328 0.09194 0.26314 0.0
C1507 C 0.80678 0.06033 0.20326 0.0
C1508 C 0.82537 0.11809 0.21218 0.0
C1509 C 0.78839 0.0481 0.19361 0.0
C1510 C 0.894 0.1675 0.27956 0.0
C1511 C 0.87634 0.15558 0.26642 0.0
C1512 C 0.8601 0.09938 0.24857 0.0
C1513 C 0.80465 0.08246 0.2129 0.0
C1514 C 0.82423 0.09587 0.22176 0.0
C1515 C 0.87982 0.13531 0.25022 0.0
C1516 C 0.86098 0.12164 0.23949 0.0
H1517 H 0.74943 0.08766 0.20368 0.0
H1518 H 0.78123 0.10866 0.22164 0.0
H1519 H 0.84147 0.06972 0.24821 0.0
H1520 H 0.93538 0.13307 0.25573 0.0
H1521 H 0.90448 0.11224 0.23312 0.0
C1522 C 0.33131 0.89256 0.77795 0.0
C1523 C 0.33948 0.91392 0.77356 0.0
C1524 C 0.34278 0.87453 0.76495 0.0
C1525 C 0.39819 0.8568 0.7462 0.0
H1526 H 0.37106 0.8104 0.69323 0.0
C1527 C 0.44879 0.78491 0.69075 0.0
C1528 C 0.43874 0.76426 0.6885 0.0
C1529 C 0.43662 0.80337 0.70031 0.0
C1530 C 0.37886 0.823 0.70849 0.0
H1531 H 0.36586 0.93309 0.75132 0.0
H1532 H 0.386 0.90154 0.7292 0.0
H1533 H 0.34939 0.84212 0.71047 0.0
H1534 H 0.40826 0.74662 0.69576 0.0
H1535 H 0.38734 0.77847 0.71384 0.0
H1536 H 0.42742 0.83754 0.74554 0.0
C1537 C 0.37067 0.89883 0.74258 0.0
C1538 C 0.36643 0.84124 0.71812 0.0
C1539 C 0.35904 0.91688 0.75503 0.0
C1540 C 0.41643 0.76236 0.69688 0.0
C1541 C 0.40437 0.78071 0.70698 0.0
C1542 C 0.41054 0.83841 0.73709 0.0
C1543 C 0.36281 0.87749 0.74785 0.0
C1544 C 0.376 0.85832 0.73699 0.0
C1545 C 0.4142 0.80154 0.70841 0.0
C1546 C 0.40107 0.82123 0.71808 0.0
H1547 H 0.31628 0.88973 0.79205 0.0
H1548 H 0.3364 0.85821 0.76943 0.0
H1549 H 0.40588 0.86964 0.76117 0.0
H1550 H 0.46591 0.78694 0.68418 0.0
H1551 H 0.44475 0.81913 0.70057 0.0
C1552 C 0.89466 0.33567 0.80318 0.0
C1553 C 0.91545 0.33831 0.78816 0.0
C1554 C 0.87661 0.34733 0.79082 0.0
C1555 C 0.83859 0.36611 0.7506 0.0
H1556 H 0.84757 0.42621 0.72154 0.0
C1557 C 0.77028 0.41581 0.68525 0.0
C1558 C 0.7684 0.43829 0.69271 0.0
C1559 C 0.7881 0.4037 0.69716 0.0
C1560 C 0.84472 0.40954 0.72992 0.0
H1561 H 0.93327 0.35463 0.7473 0.0
H1562 H 0.90164 0.37449 0.72515 0.0
H1563 H 0.87867 0.40456 0.74115 0.0
H1564 H 0.7838 0.46556 0.71903 0.0
H1565 H 0.81476 0.44423 0.74057 0.0
H1566 H 0.80457 0.37129 0.74054 0.0
C1567 C 0.89943 0.36384 0.74713 0.0
C1568 C 0.86263 0.39698 0.74065 0.0
C1569 C 0.91754 0.3523 0.75965 0.0
C1570 C 0.78476 0.44831 0.71269 0.0
C1571 C 0.80258 0.4361 0.72486 0.0
C1572 C 0.82069 0.3787 0.7401 0.0
C1573 C 0.87881 0.3618 0.76294 0.0
C1574 C 0.8598 0.37508 0.75103 0.0
C1575 C 0.80449 0.41364 0.71714 0.0
C1576 C 0.82352 0.40054 0.72945 0.0
H1577 H 0.89242 0.32516 0.82531 0.0
H1578 H 0.86108 0.34552 0.80393 0.0
H1579 H 0.83579 0.34926 0.75809 0.0
H1580 H 0.75813 0.40752 0.66968 0.0
H1581 H 0.7892 0.38657 0.69011 0.0
C1582 C 0.1459 0.91606 0.25653 0.0
C1583 C 0.1596 0.91432 0.28546 0.0
C1584 C 0.13475 0.89774 0.244 0.0
C1585 C 0.10189 0.86079 0.23819 0.0
H1586 H 0.12813 0.80295 0.23733 0.0
C1587 C 0.05108 0.7827 0.21111 0.0
C1588 C 0.06089 0.76661 0.19033 0.0
C1589 C 0.06333 0.8005 0.22316 0.0
C1590 C 0.12059 0.81901 0.23716 0.0
H1591 H 0.1728 0.8917 0.3232 0.0
H1592 H 0.15314 0.85989 0.30165 0.0
H1593 H 0.14993 0.83436 0.25517 0.0
H1594 H 0.09134 0.75676 0.16591 0.0
H1595 H 0.11241 0.78782 0.18631 0.0
H1596 H 0.07273 0.84554 0.21928 0.0
C1597 C 0.15121 0.87536 0.28836 0.0
C1598 C 0.13303 0.837 0.24776 0.0
C1599 C 0.16246 0.89365 0.30079 0.0
C1600 C 0.08322 0.76873 0.18201 0.0
C1601 C 0.09539 0.78652 0.1939 0.0
C1602 C 0.08947 0.84282 0.22746 0.0
C1603 C 0.13693 0.87725 0.26017 0.0
C1604 C 0.12385 0.85812 0.24837 0.0
C1605 C 0.08563 0.80264 0.2146 0.0
C1606 C 0.09867 0.82171 0.22676 0.0
H1607 H 0.14344 0.93167 0.24388 0.0
H1608 H 0.12425 0.89968 0.22178 0.0
H1609 H 0.09417 0.87676 0.23884 0.0
H1610 H 0.03396 0.78155 0.21817 0.0
H1611 H 0.05537 0.81247 0.23944 0.0
C1612 C 0.73056 0.08556 0.67525 0.0
C1613 C 0.7331 0.06358 0.68544 0.0
C1614 C 0.7126 0.09783 0.68627 0.0
C1615 C 0.68019 0.124 0.72819 0.0
H1616 H 0.62297 0.09683 0.73504 0.0
C1617 C 0.60689 0.16635 0.79429 0.0
C1618 C 0.58577 0.16279 0.78093 0.0
C1619 C 0.62493 0.15508 0.78103 0.0
C1620 C 0.63877 0.10476 0.73288 0.0
H1621 H 0.71873 0.0374 0.71562 0.0
H1622 H 0.68757 0.059 0.73545 0.0
H1623 H 0.65409 0.07529 0.7153 0.0
H1624 H 0.5673 0.14529 0.74198 0.0
H1625 H 0.59884 0.12604 0.71838 0.0
H1626 H 0.66478 0.15361 0.74491 0.0
C1627 C 0.6993 0.06659 0.71834 0.0
C1628 C 0.6567 0.0923 0.72206 0.0
C1629 C 0.71725 0.05423 0.70712 0.0
C1630 C 0.58329 0.14833 0.75309 0.0
C1631 C 0.60136 0.13714 0.73971 0.0
C1632 C 0.66224 0.13648 0.73884 0.0
C1633 C 0.69675 0.08854 0.70799 0.0
C1634 C 0.67765 0.10175 0.71965 0.0
C1635 C 0.62234 0.14007 0.75394 0.0
C1636 C 0.64132 0.12701 0.74144 0.0
H1637 H 0.74233 0.0933 0.65835 0.0
H1638 H 0.71099 0.11455 0.6773 0.0
H1639 H 0.69611 0.13177 0.72702 0.0
H1640 H 0.60945 0.17729 0.81581 0.0
H1641 H 0.64078 0.15759 0.79289 0.0
C1642 C 0.44497 0.71914 0.20332 0.0
C1643 C 0.43545 0.73533 0.18242 0.0
C1644 C 0.43278 0.70094 0.21381 0.0
C1645 C 0.40749 0.65825 0.21663 0.0
H1646 H 0.34648 0.66578 0.24175 0.0
C1647 C 0.35307 0.58444 0.2519 0.0
C1648 C 0.33926 0.58709 0.2805 0.0
C1649 C 0.36366 0.60249 0.23735 0.0
C1650 C 0.36353 0.6634 0.235 0.0
H1651 H 0.40564 0.74491 0.15587 0.0
H1652 H 0.38462 0.71305 0.17358 0.0
H1653 H 0.36773 0.69732 0.22304 0.0
H1654 H 0.3253 0.611 0.31554 0.0
H1655 H 0.34401 0.64227 0.2906 0.0
H1656 H 0.40352 0.62449 0.22989 0.0
C1657 C 0.40136 0.7146 0.18248 0.0
C1658 C 0.37566 0.68145 0.22386 0.0
C1659 C 0.41348 0.73285 0.17218 0.0
C1660 C 0.33576 0.60831 0.29348 0.0
C1661 C 0.34643 0.62632 0.27905 0.0
C1662 C 0.39539 0.64021 0.22793 0.0
C1663 C 0.41083 0.69844 0.20347 0.0
C1664 C 0.39782 0.67913 0.21471 0.0
C1665 C 0.36076 0.6236 0.25112 0.0
C1666 C 0.37329 0.64259 0.23744 0.0
H1667 H 0.4618 0.72057 0.21186 0.0
H1668 H 0.4405 0.68899 0.23044 0.0
H1669 H 0.42443 0.65579 0.20933 0.0
H1670 H 0.35603 0.56837 0.24106 0.0
H1671 H 0.37427 0.59987 0.21544 0.0
C1672 C 0.39336 0.66712 0.71568 0.0
C1673 C 0.41441 0.65778 0.71731 0.0
C1674 C 0.37525 0.65587 0.72879 0.0
C1675 C 0.35603 0.60037 0.74213 0.0
H1676 H 0.31201 0.62621 0.80131 0.0
C1677 C 0.28549 0.54905 0.79873 0.0
C1678 C 0.26501 0.55917 0.80314 0.0
C1679 C 0.30373 0.56134 0.78883 0.0
C1680 C 0.32395 0.61883 0.78433 0.0
H1681 H 0.433 0.62962 0.73513 0.0
H1682 H 0.40133 0.60997 0.7575 0.0
H1683 H 0.34387 0.64779 0.78425 0.0
H1684 H 0.24743 0.58998 0.7995 0.0
H1685 H 0.27898 0.61123 0.78094 0.0
H1686 H 0.33601 0.5717 0.74106 0.0
C1687 C 0.39892 0.62598 0.74608 0.0
C1688 C 0.34225 0.63117 0.77479 0.0
C1689 C 0.41705 0.63733 0.73346 0.0
C1690 C 0.26304 0.58173 0.79664 0.0
C1691 C 0.2812 0.59396 0.78625 0.0
C1692 C 0.33762 0.58813 0.75122 0.0
C1693 C 0.37783 0.63496 0.7433 0.0
C1694 C 0.35849 0.622 0.75376 0.0
C1695 C 0.30185 0.58399 0.78258 0.0
C1696 C 0.32136 0.59715 0.77256 0.0
H1697 H 0.39079 0.68288 0.70352 0.0
H1698 H 0.35912 0.66312 0.72631 0.0
H1699 H 0.36819 0.59304 0.72543 0.0
H1700 H 0.28758 0.53173 0.80384 0.0
H1701 H 0.3194 0.55313 0.78683 0.0
C1702 C 0.83279 0.3923 0.19237 0.0
C1703 C 0.83579 0.41329 0.20651 0.0
C1704 C 0.84417 0.37428 0.20547 0.0
C1705 C 0.86258 0.33667 0.2472 0.0
H1706 H 0.92306 0.34538 0.27448 0.0
C1707 C 0.91307 0.26818 0.31143 0.0
C1708 C 0.93537 0.26627 0.30281 0.0
C1709 C 0.90074 0.28605 0.30015 0.0
C1710 C 0.90626 0.34261 0.26665 0.0
H1711 H 0.85244 0.43155 0.24659 0.0
H1712 H 0.87185 0.40002 0.26997 0.0
H1713 H 0.90155 0.37644 0.25445 0.0
H1714 H 0.96207 0.28161 0.27503 0.0
H1715 H 0.9404 0.31257 0.25465 0.0
H1716 H 0.86752 0.30272 0.25819 0.0
C1717 C 0.86113 0.3976 0.24813 0.0
C1718 C 0.8938 0.3605 0.25567 0.0
C1719 C 0.84985 0.41566 0.23488 0.0
C1720 C 0.94498 0.28261 0.28233 0.0
C1721 C 0.93257 0.30045 0.27081 0.0
C1722 C 0.87508 0.31877 0.25798 0.0
C1723 C 0.85871 0.37674 0.23322 0.0
C1724 C 0.87179 0.35777 0.24579 0.0
C1725 C 0.91031 0.30242 0.27969 0.0
C1726 C 0.89708 0.32149 0.26787 0.0
H1727 H 0.82218 0.38984 0.1704 0.0
H1728 H 0.84208 0.35854 0.19305 0.0
H1729 H 0.84563 0.33397 0.24013 0.0
H1730 H 0.90513 0.25601 0.32738 0.0
H1731 H 0.88376 0.28719 0.308 0.0
C1732 C 0.07997 0.85868 0.73462 0.0
C1733 C 0.08282 0.83846 0.71785 0.0
C1734 C 0.09802 0.8702 0.7473 0.0
C1735 C 0.15537 0.8652 0.77422 0.0
H1736 H 0.16015 0.92562 0.7443 0.0
C1737 C 0.23487 0.91462 0.79368 0.0
C1738 C 0.23307 0.937 0.80175 0.0
C1739 C 0.21642 0.90257 0.78397 0.0
C1740 C 0.15896 0.9089 0.75341 0.0
H1741 H 0.10678 0.81397 0.70292 0.0
H1742 H 0.13826 0.83398 0.72569 0.0
H1743 H 0.12787 0.9043 0.72895 0.0
H1744 H 0.21043 0.96427 0.80592 0.0
H1745 H 0.17817 0.94316 0.78999 0.0
H1746 H 0.1862 0.86979 0.79925 0.0
C1747 C 0.12204 0.84094 0.7287 0.0
C1748 C 0.14046 0.89668 0.7445 0.0
C1749 C 0.10402 0.82953 0.71558 0.0
C1750 C 0.21242 0.9471 0.79959 0.0
C1751 C 0.19391 0.93497 0.79031 0.0
C1752 C 0.17375 0.8775 0.78354 0.0
C1753 C 0.11926 0.86161 0.74394 0.0
C1754 C 0.13854 0.87469 0.75466 0.0
C1755 C 0.19564 0.91251 0.7825 0.0
C1756 C 0.17588 0.89949 0.77306 0.0
H1757 H 0.06389 0.86606 0.73679 0.0
H1758 H 0.09542 0.886 0.75928 0.0
H1759 H 0.15419 0.84832 0.78261 0.0
H1760 H 0.25057 0.90638 0.79479 0.0
H1761 H 0.21853 0.88546 0.77741 0.0
C1762 C 0.66329 0.10485 0.19594 0.0
C1763 C 0.66042 0.08392 0.21034 0.0
C1764 C 0.65117 0.1227 0.20781 0.0
C1765 C 0.63148 0.16026 0.24745 0.0
H1766 H 0.57046 0.15155 0.27152 0.0
C1767 C 0.58057 0.22894 0.30853 0.0
C1768 C 0.55845 0.23128 0.29902 0.0
C1769 C 0.59271 0.21083 0.29794 0.0
C1770 C 0.5874 0.1543 0.26454 0.0
H1771 H 0.64304 0.06559 0.24954 0.0
H1772 H 0.6223 0.09693 0.27091 0.0
H1773 H 0.59259 0.12034 0.25343 0.0
H1774 H 0.53181 0.21629 0.27063 0.0
H1775 H 0.55327 0.18476 0.2513 0.0
H1776 H 0.62618 0.19426 0.25727 0.0
C1777 C 0.63358 0.09939 0.2498 0.0
C1778 C 0.60021 0.13634 0.25469 0.0
C1779 C 0.64563 0.08145 0.23776 0.0
C1780 C 0.54879 0.21499 0.27845 0.0
C1781 C 0.56106 0.19686 0.26757 0.0
C1782 C 0.61867 0.17818 0.25703 0.0
C1783 C 0.63597 0.12017 0.23462 0.0
C1784 C 0.62242 0.13911 0.24604 0.0
C1785 C 0.5832 0.19459 0.2772 0.0
C1786 C 0.5965 0.17545 0.26587 0.0
H1787 H 0.67442 0.10741 0.17467 0.0
H1788 H 0.65327 0.13835 0.19515 0.0
H1789 H 0.64856 0.16301 0.24133 0.0
H1790 H 0.58856 0.24098 0.32469 0.0
H1791 H 0.60953 0.20944 0.30651 0.0
loop_
_geom_bond_atom_site_label_1
_geom_bond_atom_site_label_2
_geom_bond_distance
_geom_bond_site_symmetry_2
_ccdc_geom_bond_type
Sc0 O3 2.025 . S
Sc0 O10 2.105 . S
Sc0 O13 2.105 . S
Sc0 O16 2.105 . S
Sc0 O19 2.105 . S
Sc1 O3 2.025 . S
Sc1 O11 2.105 . S
Sc1 O15 2.105 . S
Sc1 O17 2.105 . S
Sc1 O21 2.105 . S
Sc2 O3 2.025 . S
Sc2 O12 2.105 . S
Sc2 O14 2.105 . S
Sc2 O18 2.105 . S
Sc2 O20 2.105 . S
O3 Sc0 2.025 . S
O3 Sc1 2.025 . S
O3 Sc2 2.025 . S
C4 O10 1.268 . S
C4 O20 1.268 . S
C5 O11 1.268 . S
C5 O19 1.268 . S
C6 O12 1.268 . S
C6 O21 1.268 . S
C7 O13 1.268 . S
C7 O17 1.268 . S
C8 O14 1.268 . S
C8 O16 1.268 . S
C9 O15 1.268 . S
C9 O18 1.268 . S
O10 Sc0 2.105 . S
O10 C4 1.268 . S
O11 Sc1 2.105 . S
O11 C5 1.268 . S
O12 Sc2 2.105 . S
O12 C6 1.268 . S
O13 Sc0 2.105 . S
O13 C7 1.268 . S
O14 Sc2 2.105 . S
O14 C8 1.268 . S
O15 Sc1 2.105 . S
O15 C9 1.268 . S
O16 Sc0 2.105 . S
O16 C8 1.268 . S
O17 Sc1 2.105 . S
O17 C7 1.268 . S
O18 Sc2 2.105 . S
O18 C9 1.268 . S
O19 Sc0 2.105 . S
O19 C5 1.268 . S
O20 Sc2 2.105 . S
O20 C4 1.268 . S
O21 Sc1 2.105 . S
O21 C6 1.268 . S
Sc22 O25 2.025 . S
Sc22 O32 2.105 . S
Sc22 O35 2.105 . S
Sc22 O38 2.105 . S
Sc22 O41 2.105 . S
Sc23 O25 2.025 . S
Sc23 O33 2.105 . S
Sc23 O37 2.105 . S
Sc23 O39 2.105 . S
Sc23 O43 2.102 . S
Sc24 O25 2.025 . S
Sc24 O34 2.105 1_655 S
Sc24 O36 2.105 . S
Sc24 O40 2.105 . S
Sc24 O42 2.105 . S
O25 Sc22 2.025 . S
O25 Sc23 2.025 . S
O25 Sc24 2.025 . S
C26 O32 1.268 . S
C26 O42 1.268 . S
C27 O33 1.268 . S
C27 O41 1.268 . S
C28 O34 1.268 . S
C28 O43 1.270 1_455 S
C29 O35 1.268 . S
C29 O39 1.268 . S
C30 O36 1.268 . S
C30 O38 1.268 . S
C31 O37 1.268 . S
C31 O40 1.268 . S
O32 Sc22 2.105 . S
O32 C26 1.268 . S
O33 Sc23 2.105 . S
O33 C27 1.268 . S
O34 Sc24 2.105 1_455 S
O34 C28 1.268 . S
O35 Sc22 2.105 . S
O35 C29 1.268 . S
O36 Sc24 2.105 . S
O36 C30 1.268 . S
O37 Sc23 2.105 . S
O37 C31 1.268 . S
O38 Sc22 2.105 . S
O38 C30 1.268 . S
O39 Sc23 2.105 . S
O39 C29 1.268 . S
O40 Sc24 2.105 . S
O40 C31 1.268 . S
O41 Sc22 2.105 . S
O41 C27 1.268 . S
O42 Sc24 2.105 . S
O42 C26 1.268 . S
O43 Sc23 2.102 . S
O43 C28 1.270 1_655 S
Sc44 O47 2.025 . S
Sc44 O54 2.105 . S
Sc44 O57 2.105 1_565 S
Sc44 O60 2.105 . S
Sc44 O63 2.105 . S
Sc45 O47 2.025 . S
Sc45 O55 2.105 . S
Sc45 O59 2.105 . S
Sc45 O61 2.102 . S
Sc45 O65 2.105 . S
Sc46 O47 2.025 . S
Sc46 O56 2.105 . S
Sc46 O58 2.105 . S
Sc46 O62 2.105 . S
Sc46 O64 2.105 . S
O47 Sc44 2.025 . S
O47 Sc45 2.025 . S
O47 Sc46 2.025 . S
C48 O54 1.268 . S
C48 O64 1.268 . S
C49 O55 1.268 . S
C49 O63 1.268 . S
C50 O56 1.268 . S
C50 O65 1.268 . S
C51 O57 1.268 . S
C51 O61 1.270 1_545 S
C52 O58 1.268 . S
C52 O60 1.268 . S
C53 O59 1.268 . S
C53 O62 1.268 . S
O54 Sc44 2.105 . S
O54 C48 1.268 . S
O55 Sc45 2.105 . S
O55 C49 1.268 . S
O56 Sc46 2.105 . S
O56 C50 1.268 . S
O57 Sc44 2.105 1_545 S
O57 C51 1.268 . S
O58 Sc46 2.105 . S
O58 C52 1.268 . S
O59 Sc45 2.105 . S
O59 C53 1.268 . S
O60 Sc44 2.105 . S
O60 C52 1.268 . S
O61 Sc45 2.102 . S
O61 C51 1.270 1_565 S
O62 Sc46 2.105 . S
O62 C53 1.268 . S
O63 Sc44 2.105 . S
O63 C49 1.268 . S
O64 Sc46 2.105 . S
O64 C48 1.268 . S
O65 Sc45 2.105 . S
O65 C50 1.268 . S
Sc66 O69 2.025 . S
Sc66 O76 2.105 . S
Sc66 O79 2.105 . S
Sc66 O82 2.105 . S
Sc66 O85 2.105 . S
Sc67 O69 2.025 . S
Sc67 O77 2.105 . S
Sc67 O81 2.105 . S
Sc67 O83 2.105 . S
Sc67 O87 2.105 . S
Sc68 O69 2.025 . S
Sc68 O78 2.105 . S
Sc68 O80 2.105 . S
Sc68 O84 2.105 . S
Sc68 O86 2.105 . S
O69 Sc66 2.025 . S
O69 Sc67 2.025 . S
O69 Sc68 2.025 . S
C70 O76 1.268 . S
C70 O86 1.268 . S
C71 O77 1.268 . S
C71 O85 1.268 . S
C72 O78 1.268 . S
C72 O87 1.268 . S
C73 O79 1.268 . S
C73 O83 1.268 . S
C74 O80 1.268 . S
C74 O82 1.268 . S
C75 O81 1.268 . S
C75 O84 1.268 . S
O76 Sc66 2.105 . S
O76 C70 1.268 . S
O77 Sc67 2.105 . S
O77 C71 1.268 . S
O78 Sc68 2.105 . S
O78 C72 1.268 . S
O79 Sc66 2.105 . S
O79 C73 1.268 . S
O80 Sc68 2.105 . S
O80 C74 1.268 . S
O81 Sc67 2.105 . S
O81 C75 1.268 . S
O82 Sc66 2.105 . S
O82 C74 1.268 . S
O83 Sc67 2.105 . S
O83 C73 1.268 . S
O84 Sc68 2.105 . S
O84 C75 1.268 . S
O85 Sc66 2.105 . S
O85 C71 1.268 . S
O86 Sc68 2.105 . S
O86 C70 1.268 . S
O87 Sc67 2.105 . S
O87 C72 1.268 . S
Sc88 O91 2.025 . S
Sc88 O98 2.105 . S
Sc88 O101 2.105 . S
Sc88 O104 2.105 . S
Sc88 O107 2.105 . S
Sc89 O91 2.025 . S
Sc89 O99 2.105 . S
Sc89 O103 2.105 . S
Sc89 O105 2.105 . S
Sc89 O109 2.105 . S
Sc90 O91 2.025 . S
Sc90 O100 2.105 . S
Sc90 O102 2.105 . S
Sc90 O106 2.105 . S
Sc90 O108 2.105 . S
O91 Sc88 2.025 . S
O91 Sc89 2.025 . S
O91 Sc90 2.025 . S
C92 O98 1.268 . S
C92 O108 1.268 . S
C93 O99 1.268 . S
C93 O107 1.268 . S
C94 O100 1.268 . S
C94 O109 1.268 . S
C95 O101 1.268 . S
C95 O105 1.268 . S
C96 O102 1.268 . S
C96 O104 1.268 . S
C97 O103 1.268 . S
C97 O106 1.268 . S
O98 Sc88 2.105 . S
O98 C92 1.268 . S
O99 Sc89 2.105 . S
O99 C93 1.268 . S
O100 Sc90 2.105 . S
O100 C94 1.268 . S
O101 Sc88 2.105 . S
O101 C95 1.268 . S
O102 Sc90 2.105 . S
O102 C96 1.268 . S
O103 Sc89 2.105 . S
O103 C97 1.268 . S
O104 Sc88 2.105 . S
O104 C96 1.268 . S
O105 Sc89 2.105 . S
O105 C95 1.268 . S
O106 Sc90 2.105 . S
O106 C97 1.268 . S
O107 Sc88 2.105 . S
O107 C93 1.268 . S
O108 Sc90 2.105 . S
O108 C92 1.268 . S
O109 Sc89 2.105 . S
O109 C94 1.268 . S
Sc110 O113 2.025 . S
Sc110 O120 2.105 . S
Sc110 O123 2.105 1_455 S
Sc110 O126 2.105 . S
Sc110 O129 2.105 . S
Sc111 O113 2.025 . S
Sc111 O121 2.105 . S
Sc111 O125 2.105 . S
Sc111 O127 2.102 . S
Sc111 O131 2.105 . S
Sc112 O113 2.025 . S
Sc112 O122 2.105 . S
Sc112 O124 2.105 . S
Sc112 O128 2.105 . S
Sc112 O130 2.105 . S
O113 Sc110 2.025 . S
O113 Sc111 2.025 . S
O113 Sc112 2.025 . S
C114 O120 1.268 . S
C114 O130 1.268 . S
C115 O121 1.268 . S
C115 O129 1.268 . S
C116 O122 1.268 . S
C116 O131 1.268 . S
C117 O123 1.268 . S
C117 O127 1.270 1_655 S
C118 O124 1.268 . S
C118 O126 1.268 . S
C119 O125 1.268 . S
C119 O128 1.268 . S
O120 Sc110 2.105 . S
O120 C114 1.268 . S
O121 Sc111 2.105 . S
O121 C115 1.268 . S
O122 Sc112 2.105 . S
O122 C116 1.268 . S
O123 Sc110 2.105 1_655 S
O123 C117 1.268 . S
O124 Sc112 2.105 . S
O124 C118 1.268 . S
O125 Sc111 2.105 . S
O125 C119 1.268 . S
O126 Sc110 2.105 . S
O126 C118 1.268 . S
O127 Sc111 2.102 . S
O127 C117 1.270 1_455 S
O128 Sc112 2.105 . S
O128 C119 1.268 . S
O129 Sc110 2.105 . S
O129 C115 1.268 . S
O130 Sc112 2.105 . S
O130 C114 1.268 . S
O131 Sc111 2.105 . S
O131 C116 1.268 . S
Sc132 O135 2.025 . S
Sc132 O142 2.105 . S
Sc132 O145 2.105 1_545 S
Sc132 O148 2.105 . S
Sc132 O151 2.105 . S
Sc133 O135 2.025 . S
Sc133 O143 2.105 . S
Sc133 O147 2.105 . S
Sc133 O149 2.102 . S
Sc133 O153 2.105 . S
Sc134 O135 2.025 . S
Sc134 O144 2.105 . S
Sc134 O146 2.105 . S
Sc134 O150 2.105 . S
Sc134 O152 2.105 . S
O135 Sc132 2.025 . S
O135 Sc133 2.025 . S
O135 Sc134 2.025 . S
C136 O142 1.268 . S
C136 O152 1.268 . S
C137 O143 1.268 . S
C137 O151 1.268 . S
C138 O144 1.268 . S
C138 O153 1.268 . S
C139 O145 1.268 . S
C139 O149 1.270 1_565 S
C140 O146 1.268 . S
C140 O148 1.268 . S
C141 O147 1.268 . S
C141 O150 1.268 . S
O142 Sc132 2.105 . S
O142 C136 1.268 . S
O143 Sc133 2.105 . S
O143 C137 1.268 . S
O144 Sc134 2.105 . S
O144 C138 1.268 . S
O145 Sc132 2.105 1_565 S
O145 C139 1.268 . S
O146 Sc134 2.105 . S
O146 C140 1.268 . S
O147 Sc133 2.105 . S
O147 C141 1.268 . S
O148 Sc132 2.105 . S
O148 C140 1.268 . S
O149 Sc133 2.102 . S
O149 C139 1.270 1_545 S
O150 Sc134 2.105 . S
O150 C141 1.268 . S
O151 Sc132 2.105 . S
O151 C137 1.268 . S
O152 Sc134 2.105 . S
O152 C136 1.268 . S
O153 Sc133 2.105 . S
O153 C138 1.268 . S
Sc154 O157 2.025 . S
Sc154 O164 2.105 . S
Sc154 O167 2.105 . S
Sc154 O170 2.105 . S
Sc154 O173 2.105 . S
Sc155 O157 2.025 . S
Sc155 O165 2.105 . S
Sc155 O169 2.105 . S
Sc155 O171 2.105 . S
Sc155 O175 2.105 . S
Sc156 O157 2.025 . S
Sc156 O166 2.105 . S
Sc156 O168 2.105 . S
Sc156 O172 2.105 . S
Sc156 O174 2.105 . S
O157 Sc154 2.025 . S
O157 Sc155 2.025 . S
O157 Sc156 2.025 . S
C158 O164 1.268 . S
C158 O174 1.268 . S
C159 O165 1.268 . S
C159 O173 1.268 . S
C160 O166 1.268 . S
C160 O175 1.268 . S
C161 O167 1.268 . S
C161 O171 1.268 . S
C162 O168 1.268 . S
C162 O170 1.268 . S
C163 O169 1.268 . S
C163 O172 1.268 . S
O164 Sc154 2.105 . S
O164 C158 1.268 . S
O165 Sc155 2.105 . S
O165 C159 1.268 . S
O166 Sc156 2.105 . S
O166 C160 1.268 . S
O167 Sc154 2.105 . S
O167 C161 1.268 . S
O168 Sc156 2.105 . S
O168 C162 1.268 . S
O169 Sc155 2.105 . S
O169 C163 1.268 . S
O170 Sc154 2.105 . S
O170 C162 1.268 . S
O171 Sc155 2.105 . S
O171 C161 1.268 . S
O172 Sc156 2.105 . S
O172 C163 1.268 . S
O173 Sc154 2.105 . S
O173 C159 1.268 . S
O174 Sc156 2.105 . S
O174 C158 1.268 . S
O175 Sc155 2.105 . S
O175 C160 1.268 . S
Sc176 O179 2.025 . S
Sc176 O186 2.105 . S
Sc176 O189 2.105 . S
Sc176 O192 2.105 . S
Sc176 O195 2.105 . S
Sc177 O179 2.025 . S
Sc177 O187 2.105 . S
Sc177 O191 2.105 . S
Sc177 O193 2.105 . S
Sc177 O197 2.105 . S
Sc178 O179 2.025 . S
Sc178 O188 2.105 . S
Sc178 O190 2.105 . S
Sc178 O194 2.105 . S
Sc178 O196 2.105 . S
O179 Sc176 2.025 . S
O179 Sc177 2.025 . S
O179 Sc178 2.025 . S
C180 O186 1.268 . S
C180 O196 1.268 . S
C181 O187 1.268 . S
C181 O195 1.268 . S
C182 O188 1.268 . S
C182 O197 1.268 . S
C183 O189 1.268 . S
C183 O193 1.268 . S
C184 O190 1.268 . S
C184 O192 1.268 . S
C185 O191 1.268 . S
C185 O194 1.268 . S
O186 Sc176 2.105 . S
O186 C180 1.268 . S
O187 Sc177 2.105 . S
O187 C181 1.268 . S
O188 Sc178 2.105 . S
O188 C182 1.268 . S
O189 Sc176 2.105 . S
O189 C183 1.268 . S
O190 Sc178 2.105 . S
O190 C184 1.268 . S
O191 Sc177 2.105 . S
O191 C185 1.268 . S
O192 Sc176 2.105 . S
O192 C184 1.268 . S
O193 Sc177 2.105 . S
O193 C183 1.268 . S
O194 Sc178 2.105 . S
O194 C185 1.268 . S
O195 Sc176 2.105 . S
O195 C181 1.268 . S
O196 Sc178 2.105 . S
O196 C180 1.268 . S
O197 Sc177 2.105 . S
O197 C182 1.268 . S
Sc198 O201 2.025 . S
Sc198 O208 2.105 . S
Sc198 O211 2.105 . S
Sc198 O214 2.105 . S
Sc198 O217 2.105 1_455 S
Sc199 O201 2.025 . S
Sc199 O209 2.102 . S
Sc199 O213 2.105 . S
Sc199 O215 2.105 . S
Sc199 O219 2.105 . S
Sc200 O201 2.025 . S
Sc200 O210 2.105 . S
Sc200 O212 2.105 . S
Sc200 O216 2.105 . S
Sc200 O218 2.105 . S
O201 Sc198 2.025 . S
O201 Sc199 2.025 . S
O201 Sc200 2.025 . S
C202 O208 1.268 . S
C202 O218 1.268 . S
C203 O209 1.270 1_655 S
C203 O217 1.268 . S
C204 O210 1.268 . S
C204 O219 1.268 . S
C205 O211 1.268 . S
C205 O215 1.268 . S
C206 O212 1.268 . S
C206 O214 1.268 . S
C207 O213 1.268 . S
C207 O216 1.268 . S
O208 Sc198 2.105 . S
O208 C202 1.268 . S
O209 Sc199 2.102 . S
O209 C203 1.270 1_455 S
O210 Sc200 2.105 . S
O210 C204 1.268 . S
O211 Sc198 2.105 . S
O211 C205 1.268 . S
O212 Sc200 2.105 . S
O212 C206 1.268 . S
O213 Sc199 2.105 . S
O213 C207 1.268 . S
O214 Sc198 2.105 . S
O214 C206 1.268 . S
O215 Sc199 2.105 . S
O215 C205 1.268 . S
O216 Sc200 2.105 . S
O216 C207 1.268 . S
O217 Sc198 2.105 1_655 S
O217 C203 1.268 . S
O218 Sc200 2.105 . S
O218 C202 1.268 . S
O219 Sc199 2.105 . S
O219 C204 1.268 . S
Sc220 O223 2.025 . S
Sc220 O230 2.105 . S
Sc220 O233 2.105 . S
Sc220 O236 2.105 . S
Sc220 O239 2.105 . S
Sc221 O223 2.025 . S
Sc221 O231 2.105 . S
Sc221 O235 2.102 . S
Sc221 O237 2.105 . S
Sc221 O241 2.105 . S
Sc222 O223 2.025 . S
Sc222 O232 2.105 . S
Sc222 O234 2.105 . S
Sc222 O238 2.105 1_545 S
Sc222 O240 2.105 . S
O223 Sc220 2.025 . S
O223 Sc221 2.025 . S
O223 Sc222 2.025 . S
C224 O230 1.268 . S
C224 O240 1.268 . S
C225 O231 1.268 . S
C225 O239 1.268 . S
C226 O232 1.268 . S
C226 O241 1.268 . S
C227 O233 1.268 . S
C227 O237 1.268 . S
C228 O234 1.268 . S
C228 O236 1.268 . S
C229 O235 1.270 1_565 S
C229 O238 1.268 . S
O230 Sc220 2.105 . S
O230 C224 1.268 . S
O231 Sc221 2.105 . S
O231 C225 1.268 . S
O232 Sc222 2.105 . S
O232 C226 1.268 . S
O233 Sc220 2.105 . S
O233 C227 1.268 . S
O234 Sc222 2.105 . S
O234 C228 1.268 . S
O235 Sc221 2.102 . S
O235 C229 1.270 1_545 S
O236 Sc220 2.105 . S
O236 C228 1.268 . S
O237 Sc221 2.105 . S
O237 C227 1.268 . S
O238 Sc222 2.105 1_565 S
O238 C229 1.268 . S
O239 Sc220 2.105 . S
O239 C225 1.268 . S
O240 Sc222 2.105 . S
O240 C224 1.268 . S
O241 Sc221 2.105 . S
O241 C226 1.268 . S
Sc242 O245 2.025 . S
Sc242 O252 2.105 . S
Sc242 O255 2.105 . S
Sc242 O258 2.105 . S
Sc242 O261 2.105 . S
Sc243 O245 2.025 . S
Sc243 O253 2.105 . S
Sc243 O257 2.105 . S
Sc243 O259 2.105 . S
Sc243 O263 2.105 . S
Sc244 O245 2.025 . S
Sc244 O254 2.105 . S
Sc244 O256 2.105 . S
Sc244 O260 2.105 . S
Sc244 O262 2.105 . S
O245 Sc242 2.025 . S
O245 Sc243 2.025 . S
O245 Sc244 2.025 . S
C246 O252 1.268 . S
C246 O262 1.268 . S
C247 O253 1.268 . S
C247 O261 1.268 . S
C248 O254 1.268 . S
C248 O263 1.268 . S
C249 O255 1.268 . S
C249 O259 1.268 . S
C250 O256 1.268 . S
C250 O258 1.268 . S
C251 O257 1.268 . S
C251 O260 1.268 . S
O252 Sc242 2.105 . S
O252 C246 1.268 . S
O253 Sc243 2.105 . S
O253 C247 1.268 . S
O254 Sc244 2.105 . S
O254 C248 1.268 . S
O255 Sc242 2.105 . S
O255 C249 1.268 . S
O256 Sc244 2.105 . S
O256 C250 1.268 . S
O257 Sc243 2.105 . S
O257 C251 1.268 . S
O258 Sc242 2.105 . S
O258 C250 1.268 . S
O259 Sc243 2.105 . S
O259 C249 1.268 . S
O260 Sc244 2.105 . S
O260 C251 1.268 . S
O261 Sc242 2.105 . S
O261 C247 1.268 . S
O262 Sc244 2.105 . S
O262 C246 1.268 . S
O263 Sc243 2.105 . S
O263 C248 1.268 . S
Sc264 O267 2.025 . S
Sc264 O274 2.105 . S
Sc264 O277 2.105 . S
Sc264 O280 2.105 . S
Sc264 O283 2.105 . S
Sc265 O267 2.025 . S
Sc265 O275 2.105 . S
Sc265 O279 2.105 . S
Sc265 O281 2.105 . S
Sc265 O285 2.105 . S
Sc266 O267 2.025 . S
Sc266 O276 2.105 . S
Sc266 O278 2.105 . S
Sc266 O282 2.105 . S
Sc266 O284 2.105 . S
O267 Sc264 2.025 . S
O267 Sc265 2.025 . S
O267 Sc266 2.025 . S
C268 O274 1.268 . S
C268 O284 1.268 . S
C269 O275 1.268 . S
C269 O283 1.268 . S
C270 O276 1.268 . S
C270 O285 1.268 . S
C271 O277 1.268 . S
C271 O281 1.268 . S
C272 O278 1.268 . S
C272 O280 1.268 . S
C273 O279 1.268 . S
C273 O282 1.268 . S
O274 Sc264 2.105 . S
O274 C268 1.268 . S
O275 Sc265 2.105 . S
O275 C269 1.268 . S
O276 Sc266 2.105 . S
O276 C270 1.268 . S
O277 Sc264 2.105 . S
O277 C271 1.268 . S
O278 Sc266 2.105 . S
O278 C272 1.268 . S
O279 Sc265 2.105 . S
O279 C273 1.268 . S
O280 Sc264 2.105 . S
O280 C272 1.268 . S
O281 Sc265 2.105 . S
O281 C271 1.268 . S
O282 Sc266 2.105 . S
O282 C273 1.268 . S
O283 Sc264 2.105 . S
O283 C269 1.268 . S
O284 Sc266 2.105 . S
O284 C268 1.268 . S
O285 Sc265 2.105 . S
O285 C270 1.268 . S
Sc286 O289 2.025 . S
Sc286 O296 2.105 . S
Sc286 O299 2.105 . S
Sc286 O302 2.105 . S
Sc286 O305 2.105 . S
Sc287 O289 2.025 . S
Sc287 O297 2.105 . S
Sc287 O301 2.102 . S
Sc287 O303 2.105 . S
Sc287 O307 2.105 . S
Sc288 O289 2.025 . S
Sc288 O298 2.105 . S
Sc288 O300 2.105 . S
Sc288 O304 2.105 1_655 S
Sc288 O306 2.105 . S
O289 Sc286 2.025 . S
O289 Sc287 2.025 . S
O289 Sc288 2.025 . S
C290 O296 1.268 . S
C290 O306 1.268 . S
C291 O297 1.268 . S
C291 O305 1.268 . S
C292 O298 1.268 . S
C292 O307 1.268 . S
C293 O299 1.268 . S
C293 O303 1.268 . S
C294 O300 1.268 . S
C294 O302 1.268 . S
C295 O301 1.270 1_455 S
C295 O304 1.268 . S
O296 Sc286 2.105 . S
O296 C290 1.268 . S
O297 Sc287 2.105 . S
O297 C291 1.268 . S
O298 Sc288 2.105 . S
O298 C292 1.268 . S
O299 Sc286 2.105 . S
O299 C293 1.268 . S
O300 Sc288 2.105 . S
O300 C294 1.268 . S
O301 Sc287 2.102 . S
O301 C295 1.270 1_655 S
O302 Sc286 2.105 . S
O302 C294 1.268 . S
O303 Sc287 2.105 . S
O303 C293 1.268 . S
O304 Sc288 2.105 1_455 S
O304 C295 1.268 . S
O305 Sc286 2.105 . S
O305 C291 1.268 . S
O306 Sc288 2.105 . S
O306 C290 1.268 . S
O307 Sc287 2.105 . S
O307 C292 1.268 . S
Sc308 O311 2.025 . S
Sc308 O318 2.105 . S
Sc308 O321 2.105 . S
Sc308 O324 2.105 . S
Sc308 O327 2.105 . S
Sc309 O311 2.025 . S
Sc309 O319 2.105 . S
Sc309 O323 2.102 . S
Sc309 O325 2.105 . S
Sc309 O329 2.105 . S
Sc310 O311 2.025 . S
Sc310 O320 2.105 . S
Sc310 O322 2.105 . S
Sc310 O326 2.105 1_565 S
Sc310 O328 2.105 . S
O311 Sc308 2.025 . S
O311 Sc309 2.025 . S
O311 Sc310 2.025 . S
C312 O318 1.268 . S
C312 O328 1.268 . S
C313 O319 1.268 . S
C313 O327 1.268 . S
C314 O320 1.268 . S
C314 O329 1.268 . S
C315 O321 1.268 . S
C315 O325 1.268 . S
C316 O322 1.268 . S
C316 O324 1.268 . S
C317 O323 1.270 1_545 S
C317 O326 1.268 . S
O318 Sc308 2.105 . S
O318 C312 1.268 . S
O319 Sc309 2.105 . S
O319 C313 1.268 . S
O320 Sc310 2.105 . S
O320 C314 1.268 . S
O321 Sc308 2.105 . S
O321 C315 1.268 . S
O322 Sc310 2.105 . S
O322 C316 1.268 . S
O323 Sc309 2.102 . S
O323 C317 1.270 1_565 S
O324 Sc308 2.105 . S
O324 C316 1.268 . S
O325 Sc309 2.105 . S
O325 C315 1.268 . S
O326 Sc310 2.105 1_545 S
O326 C317 1.268 . S
O327 Sc308 2.105 . S
O327 C313 1.268 . S
O328 Sc310 2.105 . S
O328 C312 1.268 . S
O329 Sc309 2.105 . S
O329 C314 1.268 . S
Sc330 O333 2.025 . S
Sc330 O340 2.105 . S
Sc330 O343 2.105 . S
Sc330 O346 2.105 . S
Sc330 O349 2.105 . S
Sc331 O333 2.025 . S
Sc331 O341 2.105 . S
Sc331 O345 2.105 . S
Sc331 O347 2.105 . S
Sc331 O351 2.105 . S
Sc332 O333 2.025 . S
Sc332 O342 2.105 . S
Sc332 O344 2.105 . S
Sc332 O348 2.105 . S
Sc332 O350 2.105 . S
O333 Sc330 2.025 . S
O333 Sc331 2.025 . S
O333 Sc332 2.025 . S
C334 O340 1.268 . S
C334 O350 1.268 . S
C335 O341 1.268 . S
C335 O349 1.268 . S
C336 O342 1.268 . S
C336 O351 1.268 . S
C337 O343 1.268 . S
C337 O347 1.268 . S
C338 O344 1.268 . S
C338 O346 1.268 . S
C339 O345 1.268 . S
C339 O348 1.268 . S
O340 Sc330 2.105 . S
O340 C334 1.268 . S
O341 Sc331 2.105 . S
O341 C335 1.268 . S
O342 Sc332 2.105 . S
O342 C336 1.268 . S
O343 Sc330 2.105 . S
O343 C337 1.268 . S
O344 Sc332 2.105 . S
O344 C338 1.268 . S
O345 Sc331 2.105 . S
O345 C339 1.268 . S
O346 Sc330 2.105 . S
O346 C338 1.268 . S
O347 Sc331 2.105 . S
O347 C337 1.268 . S
O348 Sc332 2.105 . S
O348 C339 1.268 . S
O349 Sc330 2.105 . S
O349 C335 1.268 . S
O350 Sc332 2.105 . S
O350 C334 1.268 . S
O351 Sc331 2.105 . S
O351 C336 1.268 . S
C352 C353 1.349 . S
C352 C354 1.327 . S
C352 H377 0.950 . S
C353 C352 1.349 . S
C353 C369 1.349 . S
C354 C352 1.327 . S
C354 C373 1.429 . S
C354 H378 0.950 . S
C355 C372 1.574 . S
C355 C374 1.368 . S
C355 H379 0.949 . S
H356 C360 0.949 . S
C357 C358 1.349 . S
C357 C359 1.327 . S
C357 H380 0.950 . S
C358 C357 1.349 . S
C358 C370 1.349 . S
C359 C357 1.327 . S
C359 C375 1.429 . S
C359 H381 0.950 . S
C360 H356 0.949 . S
C360 C368 1.574 . S
C360 C376 1.368 . S
H361 C369 0.950 . S
H362 C367 0.950 . S
H363 C368 0.949 . S
H364 C370 0.950 . S
H365 C371 0.950 . S
H366 C372 0.949 . S
C367 H362 0.950 . S
C367 C369 1.327 . S
C367 C373 1.429 . S
C368 C360 1.574 . S
C368 H363 0.949 . S
C368 C374 1.368 . S
C369 C353 1.349 . S
C369 H361 0.950 . S
C369 C367 1.327 . S
C370 C358 1.349 . S
C370 H364 0.950 . S
C370 C371 1.327 . S
C371 H365 0.950 . S
C371 C370 1.327 . S
C371 C375 1.429 . S
C372 C355 1.574 . S
C372 H366 0.949 . S
C372 C376 1.368 . S
C373 C354 1.429 . S
C373 C367 1.429 . S
C373 C374 1.523 . S
C374 C355 1.368 . S
C374 C368 1.368 . S
C374 C373 1.523 . S
C375 C359 1.429 . S
C375 C371 1.429 . S
C375 C376 1.523 . S
C376 C360 1.368 . S
C376 C372 1.368 . S
C376 C375 1.523 . S
H377 C352 0.950 . S
H378 C354 0.950 . S
H379 C355 0.949 . S
H380 C357 0.950 . S
H381 C359 0.950 . S
C382 C383 1.349 . S
C382 C384 1.327 . S
C382 H407 0.950 . S
C383 C382 1.349 . S
C383 C399 1.349 . S
C384 C382 1.327 . S
C384 C403 1.429 . S
C384 H408 0.950 . S
C385 C402 1.574 . S
C385 C404 1.368 1_556 S
C385 H409 0.949 . S
H386 C390 0.949 . S
C387 C388 1.349 . S
C387 C389 1.327 . S
C387 H410 0.950 . S
C388 C387 1.349 . S
C388 C400 1.349 . S
C389 C387 1.327 . S
C389 C405 1.429 . S
C389 H411 0.950 . S
C390 H386 0.949 . S
C390 C398 1.574 . S
C390 C406 1.368 1_554 S
H391 C399 0.950 . S
H392 C397 0.950 . S
H393 C398 0.949 . S
H394 C400 0.950 . S
H395 C401 0.950 . S
H396 C402 0.949 . S
C397 H392 0.950 . S
C397 C399 1.327 . S
C397 C403 1.429 . S
C398 C390 1.574 . S
C398 H393 0.949 . S
C398 C404 1.368 . S
C399 C383 1.349 . S
C399 H391 0.950 . S
C399 C397 1.327 . S
C400 C388 1.349 . S
C400 H394 0.950 . S
C400 C401 1.327 . S
C401 H395 0.950 . S
C401 C400 1.327 . S
C401 C405 1.429 . S
C402 C385 1.574 . S
C402 H396 0.949 . S
C402 C406 1.368 . S
C403 C384 1.429 . S
C403 C397 1.429 . S
C403 C404 1.523 . S
C404 C385 1.368 1_554 S
C404 C398 1.368 . S
C404 C403 1.523 . S
C405 C389 1.429 . S
C405 C401 1.429 . S
C405 C406 1.523 . S
C406 C390 1.368 1_556 S
C406 C402 1.368 . S
C406 C405 1.523 . S
H407 C382 0.950 . S
H408 C384 0.950 . S
H409 C385 0.949 . S
H410 C387 0.950 . S
H411 C389 0.950 . S
C412 C413 1.349 . S
C412 C414 1.327 . S
C412 H437 0.950 . S
C413 C412 1.349 . S
C413 C429 1.349 . S
C414 C412 1.327 . S
C414 C433 1.429 . S
C414 H438 0.950 . S
C415 C432 1.574 . S
C415 C434 1.368 . S
C415 H439 0.949 . S
H416 C420 0.949 . S
C417 C418 1.349 . S
C417 C419 1.327 . S
C417 H440 0.950 . S
C418 C417 1.349 . S
C418 C430 1.349 . S
C419 C417 1.327 . S
C419 C435 1.429 . S
C419 H441 0.950 . S
C420 H416 0.949 . S
C420 C428 1.574 . S
C420 C436 1.368 . S
H421 C429 0.950 . S
H422 C427 0.950 . S
H423 C428 0.949 . S
H424 C430 0.950 . S
H425 C431 0.950 . S
H426 C432 0.949 . S
C427 H422 0.950 . S
C427 C429 1.327 . S
C427 C433 1.429 . S
C428 C420 1.574 . S
C428 H423 0.949 . S
C428 C434 1.368 . S
C429 C413 1.349 . S
C429 H421 0.950 . S
C429 C427 1.327 . S
C430 C418 1.349 . S
C430 H424 0.950 . S
C430 C431 1.327 . S
C431 H425 0.950 . S
C431 C430 1.327 . S
C431 C435 1.429 . S
C432 C415 1.574 . S
C432 H426 0.949 . S
C432 C436 1.368 . S
C433 C414 1.429 . S
C433 C427 1.429 . S
C433 C434 1.523 . S
C434 C415 1.368 . S
C434 C428 1.368 . S
C434 C433 1.523 . S
C435 C419 1.429 . S
C435 C431 1.429 . S
C435 C436 1.523 . S
C436 C420 1.368 . S
C436 C432 1.368 . S
C436 C435 1.523 . S
H437 C412 0.950 . S
H438 C414 0.950 . S
H439 C415 0.949 . S
H440 C417 0.950 . S
H441 C419 0.950 . S
C442 C443 1.349 . S
C442 C444 1.327 . S
C442 H467 0.950 . S
C443 C442 1.349 . S
C443 C459 1.349 . S
C444 C442 1.327 . S
C444 C463 1.429 . S
C444 H468 0.950 . S
C445 C462 1.574 1_556 S
C445 C464 1.368 . S
C445 H469 0.949 . S
H446 C450 0.949 . S
C447 C448 1.349 . S
C447 C449 1.327 . S
C447 H470 0.950 . S
C448 C447 1.349 . S
C448 C460 1.349 . S
C449 C447 1.327 . S
C449 C465 1.429 . S
C449 H471 0.950 . S
C450 H446 0.949 . S
C450 C458 1.574 1_554 S
C450 C466 1.368 . S
H451 C459 0.950 . S
H452 C457 0.950 . S
H453 C458 0.949 . S
H454 C460 0.950 . S
H455 C461 0.950 . S
H456 C462 0.949 . S
C457 H452 0.950 . S
C457 C459 1.327 . S
C457 C463 1.429 . S
C458 C450 1.574 1_556 S
C458 H453 0.949 . S
C458 C464 1.368 . S
C459 C443 1.349 . S
C459 H451 0.950 . S
C459 C457 1.327 . S
C460 C448 1.349 . S
C460 H454 0.950 . S
C460 C461 1.327 . S
C461 H455 0.950 . S
C461 C460 1.327 . S
C461 C465 1.429 . S
C462 C445 1.574 1_554 S
C462 H456 0.949 . S
C462 C466 1.368 . S
C463 C444 1.429 . S
C463 C457 1.429 . S
C463 C464 1.523 . S
C464 C445 1.368 . S
C464 C458 1.368 . S
C464 C463 1.523 . S
C465 C449 1.429 . S
C465 C461 1.429 . S
C465 C466 1.523 . S
C466 C450 1.368 . S
C466 C462 1.368 . S
C466 C465 1.523 . S
H467 C442 0.950 . S
H468 C444 0.950 . S
H469 C445 0.949 . S
H470 C447 0.950 . S
H471 C449 0.950 . S
C472 C473 1.349 . S
C472 C474 1.327 . S
C472 H497 0.950 . S
C473 C472 1.349 . S
C473 C489 1.349 . S
C474 C472 1.327 . S
C474 C493 1.429 . S
C474 H498 0.950 . S
C475 C492 1.574 . S
C475 C494 1.368 . S
C475 H499 0.949 . S
H476 C480 0.949 . S
C477 C478 1.349 . S
C477 C479 1.327 . S
C477 H500 0.950 . S
C478 C477 1.349 . S
C478 C490 1.349 . S
C479 C477 1.327 . S
C479 C495 1.429 . S
C479 H501 0.950 . S
C480 H476 0.949 . S
C480 C488 1.574 . S
C480 C496 1.368 . S
H481 C489 0.950 . S
H482 C487 0.950 . S
H483 C488 0.949 . S
H484 C490 0.950 . S
H485 C491 0.950 . S
H486 C492 0.949 . S
C487 H482 0.950 . S
C487 C489 1.327 . S
C487 C493 1.429 . S
C488 C480 1.574 . S
C488 H483 0.949 . S
C488 C494 1.368 . S
C489 C473 1.349 . S
C489 H481 0.950 . S
C489 C487 1.327 . S
C490 C478 1.349 . S
C490 H484 0.950 . S
C490 C491 1.327 . S
C491 H485 0.950 . S
C491 C490 1.327 . S
C491 C495 1.429 . S
C492 C475 1.574 . S
C492 H486 0.949 . S
C492 C496 1.368 . S
C493 C474 1.429 . S
C493 C487 1.429 . S
C493 C494 1.523 . S
C494 C475 1.368 . S
C494 C488 1.368 . S
C494 C493 1.523 . S
C495 C479 1.429 . S
C495 C491 1.429 . S
C495 C496 1.523 . S
C496 C480 1.368 . S
C496 C492 1.368 . S
C496 C495 1.523 . S
H497 C472 0.950 . S
H498 C474 0.950 . S
H499 C475 0.949 . S
H500 C477 0.950 . S
H501 C479 0.950 . S
C502 C503 1.349 . S
C502 C504 1.327 . S
C502 H527 0.950 . S
C503 C502 1.349 . S
C503 C519 1.349 . S
C504 C502 1.327 . S
C504 C523 1.429 . S
C504 H528 0.950 . S
C505 C522 1.574 . S
C505 C524 1.368 . S
C505 H529 0.949 . S
H506 C510 0.949 . S
C507 C508 1.349 . S
C507 C509 1.327 . S
C507 H530 0.950 . S
C508 C507 1.349 . S
C508 C520 1.349 . S
C509 C507 1.327 . S
C509 C525 1.429 . S
C509 H531 0.950 . S
C510 H506 0.949 . S
C510 C518 1.574 . S
C510 C526 1.368 . S
H511 C519 0.950 . S
H512 C517 0.950 . S
H513 C518 0.949 . S
H514 C520 0.950 . S
H515 C521 0.950 . S
H516 C522 0.949 . S
C517 H512 0.950 . S
C517 C519 1.327 . S
C517 C523 1.429 . S
C518 C510 1.574 . S
C518 H513 0.949 . S
C518 C524 1.368 1_554 S
C519 C503 1.349 . S
C519 H511 0.950 . S
C519 C517 1.327 . S
C520 C508 1.349 . S
C520 H514 0.950 . S
C520 C521 1.327 . S
C521 H515 0.950 . S
C521 C520 1.327 . S
C521 C525 1.429 . S
C522 C505 1.574 . S
C522 H516 0.949 . S
C522 C526 1.368 1_556 S
C523 C504 1.429 . S
C523 C517 1.429 . S
C523 C524 1.523 . S
C524 C505 1.368 . S
C524 C518 1.368 1_556 S
C524 C523 1.523 . S
C525 C509 1.429 . S
C525 C521 1.429 . S
C525 C526 1.523 . S
C526 C510 1.368 . S
C526 C522 1.368 1_554 S
C526 C525 1.523 . S
H527 C502 0.950 . S
H528 C504 0.950 . S
H529 C505 0.949 . S
H530 C507 0.950 . S
H531 C509 0.950 . S
C532 C533 1.349 . S
C532 C534 1.327 . S
C532 H557 0.950 . S
C533 C532 1.349 . S
C533 C549 1.349 . S
C534 C532 1.327 . S
C534 C553 1.429 . S
C534 H558 0.950 . S
C535 C552 1.574 . S
C535 C554 1.368 . S
C535 H559 0.949 . S
H536 C540 0.949 . S
C537 C538 1.349 . S
C537 C539 1.327 . S
C537 H560 0.950 . S
C538 C537 1.349 . S
C538 C550 1.349 . S
C539 C537 1.327 . S
C539 C555 1.429 . S
C539 H561 0.950 . S
C540 H536 0.949 . S
C540 C548 1.574 . S
C540 C556 1.368 . S
H541 C549 0.950 . S
H542 C547 0.950 . S
H543 C548 0.949 . S
H544 C550 0.950 . S
H545 C551 0.950 . S
H546 C552 0.949 . S
C547 H542 0.950 . S
C547 C549 1.327 . S
C547 C553 1.429 . S
C548 C540 1.574 . S
C548 H543 0.949 . S
C548 C554 1.368 . S
C549 C533 1.349 . S
C549 H541 0.950 . S
C549 C547 1.327 . S
C550 C538 1.349 . S
C550 H544 0.950 . S
C550 C551 1.327 . S
C551 H545 0.950 . S
C551 C550 1.327 . S
C551 C555 1.429 . S
C552 C535 1.574 . S
C552 H546 0.949 . S
C552 C556 1.368 . S
C553 C534 1.429 . S
C553 C547 1.429 . S
C553 C554 1.523 . S
C554 C535 1.368 . S
C554 C548 1.368 . S
C554 C553 1.523 . S
C555 C539 1.429 . S
C555 C551 1.429 . S
C555 C556 1.523 . S
C556 C540 1.368 . S
C556 C552 1.368 . S
C556 C555 1.523 . S
H557 C532 0.950 . S
H558 C534 0.950 . S
H559 C535 0.949 . S
H560 C537 0.950 . S
H561 C539 0.950 . S
C562 C563 1.349 . S
C562 C564 1.327 . S
C562 H587 0.950 . S
C563 C562 1.349 . S
C563 C579 1.349 . S
C564 C562 1.327 . S
C564 C583 1.429 . S
C564 H588 0.950 . S
C565 C582 1.574 . S
C565 C584 1.368 . S
C565 H589 0.949 . S
H566 C570 0.949 . S
C567 C568 1.349 . S
C567 C569 1.327 . S
C567 H590 0.950 . S
C568 C567 1.349 . S
C568 C580 1.349 . S
C569 C567 1.327 . S
C569 C585 1.429 . S
C569 H591 0.950 . S
C570 H566 0.949 . S
C570 C578 1.574 . S
C570 C586 1.368 . S
H571 C579 0.950 . S
H572 C577 0.950 . S
H573 C578 0.949 . S
H574 C580 0.950 . S
H575 C581 0.950 . S
H576 C582 0.949 . S
C577 H572 0.950 . S
C577 C579 1.327 . S
C577 C583 1.429 . S
C578 C570 1.574 . S
C578 H573 0.949 . S
C578 C584 1.368 1_554 S
C579 C563 1.349 . S
C579 H571 0.950 . S
C579 C577 1.327 . S
C580 C568 1.349 . S
C580 H574 0.950 . S
C580 C581 1.327 . S
C581 H575 0.950 . S
C581 C580 1.327 . S
C581 C585 1.429 . S
C582 C565 1.574 . S
C582 H576 0.949 . S
C582 C586 1.368 1_556 S
C583 C564 1.429 . S
C583 C577 1.429 . S
C583 C584 1.523 . S
C584 C565 1.368 . S
C584 C578 1.368 1_556 S
C584 C583 1.523 . S
C585 C569 1.429 . S
C585 C581 1.429 . S
C585 C586 1.523 . S
C586 C570 1.368 . S
C586 C582 1.368 1_554 S
C586 C585 1.523 . S
H587 C562 0.950 . S
H588 C564 0.950 . S
H589 C565 0.949 . S
H590 C567 0.950 . S
H591 C569 0.950 . S
C592 C593 1.349 . S
C592 C594 1.327 . S
C592 H617 0.950 . S
C593 C592 1.349 . S
C593 C609 1.349 . S
C594 C592 1.327 . S
C594 C613 1.429 . S
C594 H618 0.950 . S
C595 C612 1.574 . S
C595 C614 1.368 . S
C595 H619 0.949 . S
H596 C600 0.949 . S
C597 C598 1.349 . S
C597 C599 1.327 . S
C597 H620 0.950 . S
C598 C597 1.349 . S
C598 C610 1.349 . S
C599 C597 1.327 . S
C599 C615 1.429 . S
C599 H621 0.950 . S
C600 H596 0.949 . S
C600 C608 1.574 . S
C600 C616 1.368 . S
H601 C609 0.950 . S
H602 C607 0.950 . S
H603 C608 0.949 . S
H604 C610 0.950 . S
H605 C611 0.950 . S
H606 C612 0.949 . S
C607 H602 0.950 . S
C607 C609 1.327 . S
C607 C613 1.429 . S
C608 C600 1.574 . S
C608 H603 0.949 . S
C608 C614 1.368 . S
C609 C593 1.349 . S
C609 H601 0.950 . S
C609 C607 1.327 . S
C610 C598 1.349 . S
C610 H604 0.950 . S
C610 C611 1.327 . S
C611 H605 0.950 . S
C611 C610 1.327 . S
C611 C615 1.429 . S
C612 C595 1.574 . S
C612 H606 0.949 . S
C612 C616 1.368 . S
C613 C594 1.429 . S
C613 C607 1.429 . S
C613 C614 1.523 . S
C614 C595 1.368 . S
C614 C608 1.368 . S
C614 C613 1.523 . S
C615 C599 1.429 . S
C615 C611 1.429 . S
C615 C616 1.523 . S
C616 C600 1.368 . S
C616 C612 1.368 . S
C616 C615 1.523 . S
H617 C592 0.950 . S
H618 C594 0.950 . S
H619 C595 0.949 . S
H620 C597 0.950 . S
H621 C599 0.950 . S
C622 C623 1.349 . S
C622 C624 1.327 . S
C622 H647 0.950 . S
C623 C622 1.349 . S
C623 C639 1.349 . S
C624 C622 1.327 . S
C624 C643 1.429 . S
C624 H648 0.950 . S
C625 C642 1.574 . S
C625 C644 1.368 . S
C625 H649 0.949 . S
H626 C630 0.949 . S
C627 C628 1.349 . S
C627 C629 1.327 . S
C627 H650 0.950 . S
C628 C627 1.349 . S
C628 C640 1.349 . S
C629 C627 1.327 . S
C629 C645 1.429 . S
C629 H651 0.950 . S
C630 H626 0.949 . S
C630 C638 1.574 . S
C630 C646 1.368 . S
H631 C639 0.950 . S
H632 C637 0.950 . S
H633 C638 0.949 . S
H634 C640 0.950 . S
H635 C641 0.950 . S
H636 C642 0.949 . S
C637 H632 0.950 . S
C637 C639 1.327 . S
C637 C643 1.429 . S
C638 C630 1.574 . S
C638 H633 0.949 . S
C638 C644 1.368 . S
C639 C623 1.349 . S
C639 H631 0.950 . S
C639 C637 1.327 . S
C640 C628 1.349 . S
C640 H634 0.950 . S
C640 C641 1.327 . S
C641 H635 0.950 . S
C641 C640 1.327 . S
C641 C645 1.429 . S
C642 C625 1.574 . S
C642 H636 0.949 . S
C642 C646 1.368 . S
C643 C624 1.429 . S
C643 C637 1.429 . S
C643 C644 1.523 . S
C644 C625 1.368 . S
C644 C638 1.368 . S
C644 C643 1.523 . S
C645 C629 1.429 . S
C645 C641 1.429 . S
C645 C646 1.523 . S
C646 C630 1.368 . S
C646 C642 1.368 . S
C646 C645 1.523 . S
H647 C622 0.950 . S
H648 C624 0.950 . S
H649 C625 0.949 . S
H650 C627 0.950 . S
H651 C629 0.950 . S
C652 C653 1.349 . S
C652 C654 1.327 . S
C652 H677 0.950 . S
C653 C652 1.349 . S
C653 C669 1.349 . S
C654 C652 1.327 . S
C654 C673 1.429 . S
C654 H678 0.950 . S
C655 C672 1.574 . S
C655 C674 1.368 . S
C655 H679 0.949 . S
H656 C660 0.949 . S
C657 C658 1.349 . S
C657 C659 1.327 . S
C657 H680 0.950 . S
C658 C657 1.349 . S
C658 C670 1.349 . S
C659 C657 1.327 . S
C659 C675 1.429 . S
C659 H681 0.950 . S
C660 H656 0.949 . S
C660 C668 1.574 . S
C660 C676 1.368 . S
H661 C669 0.950 . S
H662 C667 0.950 . S
H663 C668 0.949 . S
H664 C670 0.950 . S
H665 C671 0.950 . S
H666 C672 0.949 . S
C667 H662 0.950 . S
C667 C669 1.327 . S
C667 C673 1.429 . S
C668 C660 1.574 . S
C668 H663 0.949 . S
C668 C674 1.368 . S
C669 C653 1.349 . S
C669 H661 0.950 . S
C669 C667 1.327 . S
C670 C658 1.349 . S
C670 H664 0.950 . S
C670 C671 1.327 . S
C671 H665 0.950 . S
C671 C670 1.327 . S
C671 C675 1.429 . S
C672 C655 1.574 . S
C672 H666 0.949 . S
C672 C676 1.368 . S
C673 C654 1.429 . S
C673 C667 1.429 . S
C673 C674 1.523 . S
C674 C655 1.368 . S
C674 C668 1.368 . S
C674 C673 1.523 . S
C675 C659 1.429 . S
C675 C671 1.429 . S
C675 C676 1.523 . S
C676 C660 1.368 . S
C676 C672 1.368 . S
C676 C675 1.523 . S
H677 C652 0.950 . S
H678 C654 0.950 . S
H679 C655 0.949 . S
H680 C657 0.950 . S
H681 C659 0.950 . S
C682 C683 1.349 . S
C682 C684 1.327 . S
C682 H707 0.950 . S
C683 C682 1.349 . S
C683 C699 1.349 . S
C684 C682 1.327 . S
C684 C703 1.429 . S
C684 H708 0.950 . S
C685 C702 1.574 . S
C685 C704 1.368 . S
C685 H709 0.949 . S
H686 C690 0.949 . S
C687 C688 1.349 . S
C687 C689 1.327 . S
C687 H710 0.950 . S
C688 C687 1.349 . S
C688 C700 1.349 . S
C689 C687 1.327 . S
C689 C705 1.429 . S
C689 H711 0.950 . S
C690 H686 0.949 . S
C690 C698 1.574 . S
C690 C706 1.368 . S
H691 C699 0.950 . S
H692 C697 0.950 . S
H693 C698 0.949 . S
H694 C700 0.950 . S
H695 C701 0.950 . S
H696 C702 0.949 . S
C697 H692 0.950 . S
C697 C699 1.327 . S
C697 C703 1.429 . S
C698 C690 1.574 . S
C698 H693 0.949 . S
C698 C704 1.368 . S
C699 C683 1.349 . S
C699 H691 0.950 . S
C699 C697 1.327 . S
C700 C688 1.349 . S
C700 H694 0.950 . S
C700 C701 1.327 . S
C701 H695 0.950 . S
C701 C700 1.327 . S
C701 C705 1.429 . S
C702 C685 1.574 . S
C702 H696 0.949 . S
C702 C706 1.368 . S
C703 C684 1.429 . S
C703 C697 1.429 . S
C703 C704 1.523 . S
C704 C685 1.368 . S
C704 C698 1.368 . S
C704 C703 1.523 . S
C705 C689 1.429 . S
C705 C701 1.429 . S
C705 C706 1.523 . S
C706 C690 1.368 . S
C706 C702 1.368 . S
C706 C705 1.523 . S
H707 C682 0.950 . S
H708 C684 0.950 . S
H709 C685 0.949 . S
H710 C687 0.950 . S
H711 C689 0.950 . S
C712 C713 1.349 . S
C712 C714 1.327 . S
C712 H737 0.950 . S
C713 C712 1.349 . S
C713 C729 1.349 . S
C714 C712 1.327 . S
C714 C733 1.429 . S
C714 H738 0.950 . S
C715 C732 1.574 . S
C715 C734 1.368 . S
C715 H739 0.949 . S
H716 C720 0.949 . S
C717 C718 1.349 . S
C717 C719 1.327 . S
C717 H740 0.950 . S
C718 C717 1.349 . S
C718 C730 1.349 . S
C719 C717 1.327 . S
C719 C735 1.429 . S
C719 H741 0.950 . S
C720 H716 0.949 . S
C720 C728 1.574 . S
C720 C736 1.368 . S
H721 C729 0.950 . S
H722 C727 0.950 . S
H723 C728 0.949 . S
H724 C730 0.950 . S
H725 C731 0.950 . S
H726 C732 0.949 . S
C727 H722 0.950 . S
C727 C729 1.327 . S
C727 C733 1.429 . S
C728 C720 1.574 . S
C728 H723 0.949 . S
C728 C734 1.368 . S
C729 C713 1.349 . S
C729 H721 0.950 . S
C729 C727 1.327 . S
C730 C718 1.349 . S
C730 H724 0.950 . S
C730 C731 1.327 . S
C731 H725 0.950 . S
C731 C730 1.327 . S
C731 C735 1.429 . S
C732 C715 1.574 . S
C732 H726 0.949 . S
C732 C736 1.368 . S
C733 C714 1.429 . S
C733 C727 1.429 . S
C733 C734 1.523 . S
C734 C715 1.368 . S
C734 C728 1.368 . S
C734 C733 1.523 . S
C735 C719 1.429 . S
C735 C731 1.429 . S
C735 C736 1.523 . S
C736 C720 1.368 . S
C736 C732 1.368 . S
C736 C735 1.523 . S
H737 C712 0.950 . S
H738 C714 0.950 . S
H739 C715 0.949 . S
H740 C717 0.950 . S
H741 C719 0.950 . S
C742 C743 1.349 . S
C742 C744 1.327 . S
C742 H767 0.950 . S
C743 C742 1.349 . S
C743 C759 1.349 . S
C744 C742 1.327 . S
C744 C763 1.429 . S
C744 H768 0.950 . S
C745 C762 1.574 . S
C745 C764 1.368 . S
C745 H769 0.949 . S
H746 C750 0.949 . S
C747 C748 1.349 . S
C747 C749 1.327 . S
C747 H770 0.950 . S
C748 C747 1.349 . S
C748 C760 1.349 . S
C749 C747 1.327 . S
C749 C765 1.429 . S
C749 H771 0.950 . S
C750 H746 0.949 . S
C750 C758 1.574 . S
C750 C766 1.368 . S
H751 C759 0.950 . S
H752 C757 0.950 . S
H753 C758 0.949 . S
H754 C760 0.950 . S
H755 C761 0.950 . S
H756 C762 0.949 . S
C757 H752 0.950 . S
C757 C759 1.327 . S
C757 C763 1.429 . S
C758 C750 1.574 . S
C758 H753 0.949 . S
C758 C764 1.368 . S
C759 C743 1.349 . S
C759 H751 0.950 . S
C759 C757 1.327 . S
C760 C748 1.349 . S
C760 H754 0.950 . S
C760 C761 1.327 . S
C761 H755 0.950 . S
C761 C760 1.327 . S
C761 C765 1.429 . S
C762 C745 1.574 . S
C762 H756 0.949 . S
C762 C766 1.368 . S
C763 C744 1.429 . S
C763 C757 1.429 . S
C763 C764 1.523 . S
C764 C745 1.368 . S
C764 C758 1.368 . S
C764 C763 1.523 . S
C765 C749 1.429 . S
C765 C761 1.429 . S
C765 C766 1.523 . S
C766 C750 1.368 . S
C766 C762 1.368 . S
C766 C765 1.523 . S
H767 C742 0.950 . S
H768 C744 0.950 . S
H769 C745 0.949 . S
H770 C747 0.950 . S
H771 C749 0.950 . S
C772 C773 1.349 . S
C772 C774 1.327 . S
C772 H797 0.950 . S
C773 C772 1.349 . S
C773 C789 1.349 . S
C774 C772 1.327 . S
C774 C793 1.429 . S
C774 H798 0.950 . S
C775 C792 1.574 . S
C775 C794 1.368 . S
C775 H799 0.949 . S
H776 C780 0.949 . S
C777 C778 1.349 . S
C777 C779 1.327 . S
C777 H800 0.950 . S
C778 C777 1.349 . S
C778 C790 1.349 . S
C779 C777 1.327 . S
C779 C795 1.429 . S
C779 H801 0.950 . S
C780 H776 0.949 . S
C780 C788 1.574 . S
C780 C796 1.368 . S
H781 C789 0.950 . S
H782 C787 0.950 . S
H783 C788 0.949 . S
H784 C790 0.950 . S
H785 C791 0.950 . S
H786 C792 0.949 . S
C787 H782 0.950 . S
C787 C789 1.327 . S
C787 C793 1.429 . S
C788 C780 1.574 . S
C788 H783 0.949 . S
C788 C794 1.368 . S
C789 C773 1.349 . S
C789 H781 0.950 . S
C789 C787 1.327 . S
C790 C778 1.349 . S
C790 H784 0.950 . S
C790 C791 1.327 . S
C791 H785 0.950 . S
C791 C790 1.327 . S
C791 C795 1.429 . S
C792 C775 1.574 . S
C792 H786 0.949 . S
C792 C796 1.368 . S
C793 C774 1.429 . S
C793 C787 1.429 . S
C793 C794 1.523 . S
C794 C775 1.368 . S
C794 C788 1.368 . S
C794 C793 1.523 . S
C795 C779 1.429 . S
C795 C791 1.429 . S
C795 C796 1.523 . S
C796 C780 1.368 . S
C796 C792 1.368 . S
C796 C795 1.523 . S
H797 C772 0.950 . S
H798 C774 0.950 . S
H799 C775 0.949 . S
H800 C777 0.950 . S
H801 C779 0.950 . S
C802 C803 1.349 . S
C802 C804 1.327 . S
C802 H827 0.950 . S
C803 C802 1.349 . S
C803 C819 1.349 . S
C804 C802 1.327 . S
C804 C823 1.429 . S
C804 H828 0.950 . S
C805 C822 1.574 . S
C805 C824 1.368 . S
C805 H829 0.949 . S
H806 C810 0.949 . S
C807 C808 1.349 . S
C807 C809 1.327 . S
C807 H830 0.950 . S
C808 C807 1.349 . S
C808 C820 1.349 . S
C809 C807 1.327 . S
C809 C825 1.429 . S
C809 H831 0.950 . S
C810 H806 0.949 . S
C810 C818 1.574 . S
C810 C826 1.368 . S
H811 C819 0.950 . S
H812 C817 0.950 . S
H813 C818 0.949 . S
H814 C820 0.950 . S
H815 C821 0.950 . S
H816 C822 0.949 . S
C817 H812 0.950 . S
C817 C819 1.327 . S
C817 C823 1.429 . S
C818 C810 1.574 . S
C818 H813 0.949 . S
C818 C824 1.368 . S
C819 C803 1.349 . S
C819 H811 0.950 . S
C819 C817 1.327 . S
C820 C808 1.349 . S
C820 H814 0.950 . S
C820 C821 1.327 . S
C821 H815 0.950 . S
C821 C820 1.327 . S
C821 C825 1.429 . S
C822 C805 1.574 . S
C822 H816 0.949 . S
C822 C826 1.368 . S
C823 C804 1.429 . S
C823 C817 1.429 . S
C823 C824 1.523 . S
C824 C805 1.368 . S
C824 C818 1.368 . S
C824 C823 1.523 . S
C825 C809 1.429 . S
C825 C821 1.429 . S
C825 C826 1.523 . S
C826 C810 1.368 . S
C826 C822 1.368 . S
C826 C825 1.523 . S
H827 C802 0.950 . S
H828 C804 0.950 . S
H829 C805 0.949 . S
H830 C807 0.950 . S
H831 C809 0.950 . S
C832 C833 1.349 . S
C832 C834 1.327 1_556 S
C832 H857 0.950 . S
C833 C832 1.349 . S
C833 C849 1.349 . S
C834 C832 1.327 1_554 S
C834 C853 1.429 . S
C834 H858 0.950 . S
C835 C852 1.574 . S
C835 C854 1.368 . S
C835 H859 0.949 . S
H836 C840 0.949 . S
C837 C838 1.349 . S
C837 C839 1.327 . S
C837 H860 0.950 . S
C838 C837 1.349 . S
C838 C850 1.349 . S
C839 C837 1.327 . S
C839 C855 1.429 . S
C839 H861 0.950 . S
C840 H836 0.949 . S
C840 C848 1.574 . S
C840 C856 1.368 . S
H841 C849 0.950 . S
H842 C847 0.950 . S
H843 C848 0.949 . S
H844 C850 0.950 . S
H845 C851 0.950 . S
H846 C852 0.949 . S
C847 H842 0.950 . S
C847 C849 1.327 . S
C847 C853 1.429 1_556 S
C848 C840 1.574 . S
C848 H843 0.949 . S
C848 C854 1.368 . S
C849 C833 1.349 . S
C849 H841 0.950 . S
C849 C847 1.327 . S
C850 C838 1.349 . S
C850 H844 0.950 . S
C850 C851 1.327 . S
C851 H845 0.950 . S
C851 C850 1.327 . S
C851 C855 1.429 . S
C852 C835 1.574 . S
C852 H846 0.949 . S
C852 C856 1.368 . S
C853 C834 1.429 . S
C853 C847 1.429 1_554 S
C853 C854 1.523 . S
C854 C835 1.368 . S
C854 C848 1.368 . S
C854 C853 1.523 . S
C855 C839 1.429 . S
C855 C851 1.429 . S
C855 C856 1.523 . S
C856 C840 1.368 . S
C856 C852 1.368 . S
C856 C855 1.523 . S
H857 C832 0.950 . S
H858 C834 0.950 . S
H859 C835 0.949 . S
H860 C837 0.950 . S
H861 C839 0.950 . S
C862 C863 1.349 . S
C862 C864 1.327 . S
C862 H887 0.950 . S
C863 C862 1.349 . S
C863 C879 1.349 1_655 S
C864 C862 1.327 . S
C864 C883 1.429 . S
C864 H888 0.950 . S
C865 C882 1.574 . S
C865 C884 1.368 1_455 S
C865 H889 0.949 . S
H866 C870 0.949 . S
C867 C868 1.349 1_455 S
C867 C869 1.327 . S
C867 H890 0.950 . S
C868 C867 1.349 1_655 S
C868 C880 1.349 . S
C869 C867 1.327 . S
C869 C885 1.429 1_455 S
C869 H891 0.950 . S
C870 H866 0.949 . S
C870 C878 1.574 . S
C870 C886 1.368 . S
H871 C879 0.950 . S
H872 C877 0.950 . S
H873 C878 0.949 . S
H874 C880 0.950 . S
H875 C881 0.950 . S
H876 C882 0.949 . S
C877 H872 0.950 . S
C877 C879 1.327 . S
C877 C883 1.429 1_455 S
C878 C870 1.574 . S
C878 H873 0.949 . S
C878 C884 1.368 . S
C879 C863 1.349 1_455 S
C879 H871 0.950 . S
C879 C877 1.327 . S
C880 C868 1.349 . S
C880 H874 0.950 . S
C880 C881 1.327 . S
C881 H875 0.950 . S
C881 C880 1.327 . S
C881 C885 1.429 . S
C882 C865 1.574 . S
C882 H876 0.949 . S
C882 C886 1.368 1_455 S
C883 C864 1.429 . S
C883 C877 1.429 1_655 S
C883 C884 1.523 . S
C884 C865 1.368 1_655 S
C884 C878 1.368 . S
C884 C883 1.523 . S
C885 C869 1.429 1_655 S
C885 C881 1.429 . S
C885 C886 1.523 . S
C886 C870 1.368 . S
C886 C882 1.368 1_655 S
C886 C885 1.523 . S
H887 C862 0.950 . S
H888 C864 0.950 . S
H889 C865 0.949 . S
H890 C867 0.950 . S
H891 C869 0.950 . S
C892 C893 1.349 . S
C892 C894 1.327 . S
C892 H917 0.950 1_565 S
C893 C892 1.349 . S
C893 C909 1.349 . S
C894 C892 1.327 . S
C894 C913 1.429 1_556 S
C894 H918 0.950 1_565 S
C895 C912 1.574 . S
C895 C914 1.368 . S
C895 H919 0.949 . S
H896 C900 0.961 . S
C897 C898 1.349 . S
C897 C899 1.327 . S
C897 H920 0.950 . S
C898 C897 1.349 . S
C898 C910 1.356 . S
C899 C897 1.327 . S
C899 C915 1.429 . S
C899 H921 0.950 . S
C900 H896 0.961 . S
C900 C908 1.574 . S
C900 C916 1.355 1_545 S
H901 C909 0.950 . S
H902 C907 0.950 . S
H903 C908 0.952 . S
H904 C910 0.943 1_545 S
H905 C911 0.952 1_545 S
H906 C912 0.949 . S
C907 H902 0.950 . S
C907 C909 1.327 1_554 S
C907 C913 1.429 . S
C908 C900 1.574 . S
C908 H903 0.952 . S
C908 C914 1.365 1_545 S
C909 C893 1.349 . S
C909 H901 0.950 . S
C909 C907 1.327 1_556 S
C910 C898 1.356 . S
C910 H904 0.943 1_565 S
C910 C911 1.327 . S
C911 H905 0.952 1_565 S
C911 C910 1.327 . S
C911 C915 1.426 . S
C912 C895 1.574 . S
C912 H906 0.949 . S
C912 C916 1.368 . S
C913 C894 1.429 1_554 S
C913 C907 1.429 . S
C913 C914 1.523 . S
C914 C895 1.368 . S
C914 C908 1.365 1_565 S
C914 C913 1.523 . S
C915 C899 1.429 . S
C915 C911 1.426 . S
C915 C916 1.523 . S
C916 C900 1.355 1_565 S
C916 C912 1.368 . S
C916 C915 1.523 . S
H917 C892 0.950 1_545 S
H918 C894 0.950 1_545 S
H919 C895 0.949 . S
H920 C897 0.950 . S
H921 C899 0.950 . S
C922 C923 1.349 . S
C922 C924 1.327 . S
C922 H947 0.950 . S
C923 C922 1.349 . S
C923 C939 1.349 . S
C924 C922 1.327 . S
C924 C943 1.429 . S
C924 H948 0.950 . S
C925 C942 1.574 . S
C925 C944 1.368 . S
C925 H949 0.949 . S
H926 C930 0.949 . S
C927 C928 1.349 . S
C927 C929 1.327 . S
C927 H950 0.950 . S
C928 C927 1.349 . S
C928 C940 1.349 . S
C929 C927 1.327 . S
C929 C945 1.429 . S
C929 H951 0.950 . S
C930 H926 0.949 . S
C930 C938 1.574 . S
C930 C946 1.368 . S
H931 C939 0.950 . S
H932 C937 0.950 . S
H933 C938 0.949 . S
H934 C940 0.950 . S
H935 C941 0.950 . S
H936 C942 0.949 . S
C937 H932 0.950 . S
C937 C939 1.327 . S
C937 C943 1.429 . S
C938 C930 1.574 . S
C938 H933 0.949 . S
C938 C944 1.368 . S
C939 C923 1.349 . S
C939 H931 0.950 . S
C939 C937 1.327 . S
C940 C928 1.349 . S
C940 H934 0.950 . S
C940 C941 1.327 . S
C941 H935 0.950 . S
C941 C940 1.327 . S
C941 C945 1.429 . S
C942 C925 1.574 . S
C942 H936 0.949 . S
C942 C946 1.368 . S
C943 C924 1.429 . S
C943 C937 1.429 . S
C943 C944 1.523 . S
C944 C925 1.368 . S
C944 C938 1.368 . S
C944 C943 1.523 . S
C945 C929 1.429 . S
C945 C941 1.429 . S
C945 C946 1.523 . S
C946 C930 1.368 . S
C946 C942 1.368 . S
C946 C945 1.523 . S
H947 C922 0.950 . S
H948 C924 0.950 . S
H949 C925 0.949 . S
H950 C927 0.950 . S
H951 C929 0.950 . S
C952 C953 1.349 . S
C952 C954 1.327 . S
C952 H977 0.950 . S
C953 C952 1.349 . S
C953 C969 1.349 . S
C954 C952 1.327 . S
C954 C973 1.429 . S
C954 H978 0.950 . S
C955 C972 1.574 . S
C955 C974 1.368 . S
C955 H979 0.949 . S
H956 C960 0.949 . S
C957 C958 1.349 . S
C957 C959 1.327 . S
C957 H980 0.950 . S
C958 C957 1.349 . S
C958 C970 1.349 . S
C959 C957 1.327 . S
C959 C975 1.429 . S
C959 H981 0.950 . S
C960 H956 0.949 . S
C960 C968 1.574 . S
C960 C976 1.368 . S
H961 C969 0.950 . S
H962 C967 0.950 . S
H963 C968 0.949 . S
H964 C970 0.950 . S
H965 C971 0.950 . S
H966 C972 0.949 . S
C967 H962 0.950 . S
C967 C969 1.327 . S
C967 C973 1.429 . S
C968 C960 1.574 . S
C968 H963 0.949 . S
C968 C974 1.368 . S
C969 C953 1.349 . S
C969 H961 0.950 . S
C969 C967 1.327 . S
C970 C958 1.349 . S
C970 H964 0.950 . S
C970 C971 1.327 . S
C971 H965 0.950 . S
C971 C970 1.327 . S
C971 C975 1.429 . S
C972 C955 1.574 . S
C972 H966 0.949 . S
C972 C976 1.368 . S
C973 C954 1.429 . S
C973 C967 1.429 . S
C973 C974 1.523 . S
C974 C955 1.368 . S
C974 C968 1.368 . S
C974 C973 1.523 . S
C975 C959 1.429 . S
C975 C971 1.429 . S
C975 C976 1.523 . S
C976 C960 1.368 . S
C976 C972 1.368 . S
C976 C975 1.523 . S
H977 C952 0.950 . S
H978 C954 0.950 . S
H979 C955 0.949 . S
H980 C957 0.950 . S
H981 C959 0.950 . S
C982 C983 1.349 . S
C982 C984 1.327 . S
C982 H1007 0.950 . S
C983 C982 1.349 . S
C983 C999 1.349 1_455 S
C984 C982 1.327 . S
C984 C1003 1.429 . S
C984 H1008 0.950 . S
C985 C1002 1.574 . S
C985 C1004 1.368 1_655 S
C985 H1009 0.949 . S
H986 C990 0.949 . S
C987 C988 1.346 . S
C987 C989 1.327 1_455 S
C987 H1010 0.953 1_455 S
C988 C987 1.346 . S
C988 C1000 1.349 . S
C989 C987 1.327 1_655 S
C989 C1005 1.406 1_654 S
C989 H1011 0.974 . S
C990 H986 0.949 . S
C990 C998 1.574 . S
C990 C1006 1.368 . S
H991 C999 0.950 . S
H992 C997 0.950 . S
H993 C998 0.949 . S
H994 C1000 0.950 . S
H995 C1001 0.953 . S
H996 C1002 0.949 . S
C997 H992 0.950 . S
C997 C999 1.327 . S
C997 C1003 1.429 1_655 S
C998 C990 1.574 . S
C998 H993 0.949 . S
C998 C1004 1.368 . S
C999 C983 1.349 1_655 S
C999 H991 0.950 . S
C999 C997 1.327 . S
C1000 C988 1.349 . S
C1000 H994 0.950 . S
C1000 C1001 1.322 1_554 S
C1001 H995 0.953 . S
C1001 C1000 1.322 1_556 S
C1001 C1005 1.431 . S
C1002 C985 1.574 . S
C1002 H996 0.949 . S
C1002 C1006 1.368 1_655 S
C1003 C984 1.429 . S
C1003 C997 1.429 1_455 S
C1003 C1004 1.523 . S
C1004 C985 1.368 1_455 S
C1004 C998 1.368 . S
C1004 C1003 1.523 . S
C1005 C989 1.406 1_456 S
C1005 C1001 1.431 . S
C1005 C1006 1.523 . S
C1006 C990 1.368 . S
C1006 C1002 1.368 1_455 S
C1006 C1005 1.523 . S
H1007 C982 0.950 . S
H1008 C984 0.950 . S
H1009 C985 0.949 . S
H1010 C987 0.953 1_655 S
H1011 C989 0.974 . S
C1012 C1013 1.360 . S
C1012 C1014 1.327 . S
C1012 H1037 0.939 1_545 S
C1013 C1012 1.360 . S
C1013 C1029 1.349 . S
C1014 C1012 1.327 . S
C1014 C1033 1.431 . S
C1014 H1038 0.947 1_545 S
C1015 C1032 1.574 . S
C1015 C1034 1.368 . S
C1015 H1039 0.949 . S
H1016 C1020 0.947 . S
C1017 C1018 1.349 . S
C1017 C1019 1.327 . S
C1017 H1040 0.950 . S
C1018 C1017 1.349 . S
C1018 C1030 1.349 . S
C1019 C1017 1.327 . S
C1019 C1035 1.429 . S
C1019 H1041 0.950 . S
C1020 H1016 0.947 . S
C1020 C1028 1.574 . S
C1020 C1036 1.370 1_565 S
H1021 C1029 0.950 . S
H1022 C1027 0.950 . S
H1023 C1028 0.956 . S
H1024 C1030 0.950 1_565 S
H1025 C1031 0.950 1_565 S
H1026 C1032 0.949 . S
C1027 H1022 0.950 . S
C1027 C1029 1.327 . S
C1027 C1033 1.429 . S
C1028 C1020 1.574 . S
C1028 H1023 0.956 . S
C1028 C1034 1.360 1_565 S
C1029 C1013 1.349 . S
C1029 H1021 0.950 . S
C1029 C1027 1.327 . S
C1030 C1018 1.349 . S
C1030 H1024 0.950 1_545 S
C1030 C1031 1.327 . S
C1031 H1025 0.950 1_545 S
C1031 C1030 1.327 . S
C1031 C1035 1.429 . S
C1032 C1015 1.574 . S
C1032 H1026 0.949 . S
C1032 C1036 1.368 . S
C1033 C1014 1.431 . S
C1033 C1027 1.429 . S
C1033 C1034 1.523 . S
C1034 C1015 1.368 . S
C1034 C1028 1.360 1_545 S
C1034 C1033 1.523 . S
C1035 C1019 1.429 . S
C1035 C1031 1.429 . S
C1035 C1036 1.523 . S
C1036 C1020 1.370 1_545 S
C1036 C1032 1.368 . S
C1036 C1035 1.523 . S
H1037 C1012 0.939 1_565 S
H1038 C1014 0.947 1_565 S
H1039 C1015 0.949 . S
H1040 C1017 0.950 . S
H1041 C1019 0.950 . S
C1042 C1043 1.349 . S
C1042 C1044 1.327 . S
C1042 H1067 0.950 . S
C1043 C1042 1.349 . S
C1043 C1059 1.349 . S
C1044 C1042 1.327 . S
C1044 C1063 1.429 1_554 S
C1044 H1068 0.950 . S
C1045 C1062 1.574 . S
C1045 C1064 1.368 . S
C1045 H1069 0.949 . S
H1046 C1050 0.949 . S
C1047 C1048 1.349 . S
C1047 C1049 1.327 . S
C1047 H1070 0.950 . S
C1048 C1047 1.349 . S
C1048 C1060 1.349 . S
C1049 C1047 1.327 . S
C1049 C1065 1.429 . S
C1049 H1071 0.950 . S
C1050 H1046 0.949 . S
C1050 C1058 1.574 . S
C1050 C1066 1.368 . S
H1051 C1059 0.950 . S
H1052 C1057 0.950 . S
H1053 C1058 0.949 . S
H1054 C1060 0.950 . S
H1055 C1061 0.950 . S
H1056 C1062 0.949 . S
C1057 H1052 0.950 . S
C1057 C1059 1.327 1_556 S
C1057 C1063 1.429 . S
C1058 C1050 1.574 . S
C1058 H1053 0.949 . S
C1058 C1064 1.368 . S
C1059 C1043 1.349 . S
C1059 H1051 0.950 . S
C1059 C1057 1.327 1_554 S
C1060 C1048 1.349 . S
C1060 H1054 0.950 . S
C1060 C1061 1.327 . S
C1061 H1055 0.950 . S
C1061 C1060 1.327 . S
C1061 C1065 1.429 . S
C1062 C1045 1.574 . S
C1062 H1056 0.949 . S
C1062 C1066 1.368 . S
C1063 C1044 1.429 1_556 S
C1063 C1057 1.429 . S
C1063 C1064 1.523 . S
C1064 C1045 1.368 . S
C1064 C1058 1.368 . S
C1064 C1063 1.523 . S
C1065 C1049 1.429 . S
C1065 C1061 1.429 . S
C1065 C1066 1.523 . S
C1066 C1050 1.368 . S
C1066 C1062 1.368 . S
C1066 C1065 1.523 . S
H1067 C1042 0.950 . S
H1068 C1044 0.950 . S
H1069 C1045 0.949 . S
H1070 C1047 0.950 . S
H1071 C1049 0.950 . S
C1072 C1073 1.349 . S
C1072 C1074 1.327 . S
C1072 H1097 0.950 . S
C1073 C1072 1.349 . S
C1073 C1089 1.349 . S
C1074 C1072 1.327 . S
C1074 C1093 1.429 . S
C1074 H1098 0.950 . S
C1075 C1092 1.574 . S
C1075 C1094 1.368 . S
C1075 H1099 0.949 . S
H1076 C1080 0.949 . S
C1077 C1078 1.349 . S
C1077 C1079 1.327 1_554 S
C1077 H1100 0.950 . S
C1078 C1077 1.349 . S
C1078 C1090 1.349 . S
C1079 C1077 1.327 1_556 S
C1079 C1095 1.429 . S
C1079 H1101 0.950 . S
C1080 H1076 0.949 . S
C1080 C1088 1.574 . S
C1080 C1096 1.368 . S
H1081 C1089 0.950 . S
H1082 C1087 0.950 . S
H1083 C1088 0.949 . S
H1084 C1090 0.950 . S
H1085 C1091 0.950 . S
H1086 C1092 0.949 . S
C1087 H1082 0.950 . S
C1087 C1089 1.327 . S
C1087 C1093 1.429 . S
C1088 C1080 1.574 . S
C1088 H1083 0.949 . S
C1088 C1094 1.368 . S
C1089 C1073 1.349 . S
C1089 H1081 0.950 . S
C1089 C1087 1.327 . S
C1090 C1078 1.349 . S
C1090 H1084 0.950 . S
C1090 C1091 1.327 . S
C1091 H1085 0.950 . S
C1091 C1090 1.327 . S
C1091 C1095 1.429 1_554 S
C1092 C1075 1.574 . S
C1092 H1086 0.949 . S
C1092 C1096 1.368 . S
C1093 C1074 1.429 . S
C1093 C1087 1.429 . S
C1093 C1094 1.523 . S
C1094 C1075 1.368 . S
C1094 C1088 1.368 . S
C1094 C1093 1.523 . S
C1095 C1079 1.429 . S
C1095 C1091 1.429 1_556 S
C1095 C1096 1.523 . S
C1096 C1080 1.368 . S
C1096 C1092 1.368 . S
C1096 C1095 1.523 . S
H1097 C1072 0.950 . S
H1098 C1074 0.950 . S
H1099 C1075 0.949 . S
H1100 C1077 0.950 . S
H1101 C1079 0.950 . S
C1102 C1103 1.349 . S
C1102 C1104 1.327 . S
C1102 H1127 0.950 . S
C1103 C1102 1.349 . S
C1103 C1119 1.376 . S
C1104 C1102 1.327 . S
C1104 C1123 1.429 . S
C1104 H1128 0.950 . S
C1105 C1122 1.574 . S
C1105 C1124 1.370 . S
C1105 H1129 0.947 1_455 S
H1106 C1110 0.949 . S
C1107 C1108 1.349 . S
C1107 C1109 1.327 . S
C1107 H1130 0.950 1_455 S
C1108 C1107 1.349 . S
C1108 C1120 1.349 . S
C1109 C1107 1.327 . S
C1109 C1125 1.429 . S
C1109 H1131 0.950 1_455 S
C1110 H1106 0.949 . S
C1110 C1118 1.574 . S
C1110 C1126 1.368 . S
H1111 C1119 0.923 1_655 S
H1112 C1117 0.931 1_655 S
H1113 C1118 0.949 . S
H1114 C1120 0.950 . S
H1115 C1121 0.950 . S
H1116 C1122 0.939 1_655 S
C1117 H1112 0.931 1_455 S
C1117 C1119 1.327 . S
C1117 C1123 1.447 . S
C1118 C1110 1.574 . S
C1118 H1113 0.949 . S
C1118 C1124 1.368 . S
C1119 C1103 1.376 . S
C1119 H1111 0.923 1_455 S
C1119 C1117 1.327 . S
C1120 C1108 1.349 . S
C1120 H1114 0.950 . S
C1120 C1121 1.327 . S
C1121 H1115 0.950 . S
C1121 C1120 1.327 . S
C1121 C1125 1.429 . S
C1122 C1105 1.574 . S
C1122 H1116 0.939 1_455 S
C1122 C1126 1.380 . S
C1123 C1104 1.429 . S
C1123 C1117 1.447 . S
C1123 C1124 1.523 . S
C1124 C1105 1.370 . S
C1124 C1118 1.368 . S
C1124 C1123 1.523 . S
C1125 C1109 1.429 . S
C1125 C1121 1.429 . S
C1125 C1126 1.523 . S
C1126 C1110 1.368 . S
C1126 C1122 1.380 . S
C1126 C1125 1.523 . S
H1127 C1102 0.950 . S
H1128 C1104 0.950 . S
H1129 C1105 0.947 1_655 S
H1130 C1107 0.950 1_655 S
H1131 C1109 0.950 1_655 S
C1132 C1133 1.349 . S
C1132 C1134 1.297 1_554 S
C1132 H1157 0.950 1_545 S
C1133 C1132 1.349 . S
C1133 C1149 1.349 . S
C1134 C1132 1.297 1_556 S
C1134 C1153 1.460 . S
C1134 H1158 0.950 1_545 S
C1135 C1152 1.574 . S
C1135 C1154 1.368 . S
C1135 H1159 0.949 . S
H1136 C1140 0.985 . S
C1137 C1138 1.349 . S
C1137 C1139 1.327 . S
C1137 H1160 0.950 . S
C1138 C1137 1.349 . S
C1138 C1150 1.343 1_545 S
C1139 C1137 1.327 . S
C1139 C1155 1.429 . S
C1139 H1161 0.950 . S
C1140 H1136 0.985 . S
C1140 C1148 1.574 . S
C1140 C1156 1.330 1_565 S
H1141 C1149 0.950 . S
H1142 C1147 0.950 . S
H1143 C1148 0.975 . S
H1144 C1150 0.956 . S
H1145 C1151 0.966 . S
H1146 C1152 0.949 . S
C1147 H1142 0.950 . S
C1147 C1149 1.327 . S
C1147 C1153 1.429 1_554 S
C1148 C1140 1.574 . S
C1148 H1143 0.975 . S
C1148 C1154 1.340 1_565 S
C1149 C1133 1.349 . S
C1149 H1141 0.950 . S
C1149 C1147 1.327 . S
C1150 C1138 1.343 1_565 S
C1150 H1144 0.956 . S
C1150 C1151 1.327 . S
C1151 H1145 0.966 . S
C1151 C1150 1.327 . S
C1151 C1155 1.413 1_565 S
C1152 C1135 1.574 . S
C1152 H1146 0.949 . S
C1152 C1156 1.368 . S
C1153 C1134 1.460 . S
C1153 C1147 1.429 1_556 S
C1153 C1154 1.523 . S
C1154 C1135 1.368 . S
C1154 C1148 1.340 1_545 S
C1154 C1153 1.523 . S
C1155 C1139 1.429 . S
C1155 C1151 1.413 1_545 S
C1155 C1156 1.523 . S
C1156 C1140 1.330 1_545 S
C1156 C1152 1.368 . S
C1156 C1155 1.523 . S
H1157 C1132 0.950 1_565 S
H1158 C1134 0.950 1_565 S
H1159 C1135 0.949 . S
H1160 C1137 0.950 . S
H1161 C1139 0.950 . S
C1162 C1163 1.349 . S
C1162 C1164 1.327 . S
C1162 H1187 0.950 . S
C1163 C1162 1.349 . S
C1163 C1179 1.349 . S
C1164 C1162 1.327 . S
C1164 C1183 1.429 . S
C1164 H1188 0.950 . S
C1165 C1182 1.574 . S
C1165 C1184 1.368 . S
C1165 H1189 0.949 . S
H1166 C1170 0.949 . S
C1167 C1168 1.349 . S
C1167 C1169 1.327 . S
C1167 H1190 0.950 . S
C1168 C1167 1.349 . S
C1168 C1180 1.349 . S
C1169 C1167 1.327 . S
C1169 C1185 1.429 . S
C1169 H1191 0.950 . S
C1170 H1166 0.949 . S
C1170 C1178 1.574 . S
C1170 C1186 1.368 . S
H1171 C1179 0.950 . S
H1172 C1177 0.950 . S
H1173 C1178 0.949 . S
H1174 C1180 0.950 . S
H1175 C1181 0.950 . S
H1176 C1182 0.949 . S
C1177 H1172 0.950 . S
C1177 C1179 1.327 . S
C1177 C1183 1.429 . S
C1178 C1170 1.574 . S
C1178 H1173 0.949 . S
C1178 C1184 1.368 . S
C1179 C1163 1.349 . S
C1179 H1171 0.950 . S
C1179 C1177 1.327 . S
C1180 C1168 1.349 . S
C1180 H1174 0.950 . S
C1180 C1181 1.327 . S
C1181 H1175 0.950 . S
C1181 C1180 1.327 . S
C1181 C1185 1.429 . S
C1182 C1165 1.574 . S
C1182 H1176 0.949 . S
C1182 C1186 1.368 . S
C1183 C1164 1.429 . S
C1183 C1177 1.429 . S
C1183 C1184 1.523 . S
C1184 C1165 1.368 . S
C1184 C1178 1.368 . S
C1184 C1183 1.523 . S
C1185 C1169 1.429 . S
C1185 C1181 1.429 . S
C1185 C1186 1.523 . S
C1186 C1170 1.368 . S
C1186 C1182 1.368 . S
C1186 C1185 1.523 . S
H1187 C1162 0.950 . S
H1188 C1164 0.950 . S
H1189 C1165 0.949 . S
H1190 C1167 0.950 . S
H1191 C1169 0.950 . S
C1192 C1193 1.349 . S
C1192 C1194 1.327 . S
C1192 H1217 0.950 . S
C1193 C1192 1.349 . S
C1193 C1209 1.349 . S
C1194 C1192 1.327 . S
C1194 C1213 1.429 . S
C1194 H1218 0.950 . S
C1195 C1212 1.574 . S
C1195 C1214 1.368 . S
C1195 H1219 0.949 . S
H1196 C1200 0.949 . S
C1197 C1198 1.349 . S
C1197 C1199 1.327 . S
C1197 H1220 0.950 . S
C1198 C1197 1.349 . S
C1198 C1210 1.349 . S
C1199 C1197 1.327 . S
C1199 C1215 1.429 . S
C1199 H1221 0.950 . S
C1200 H1196 0.949 . S
C1200 C1208 1.574 . S
C1200 C1216 1.368 . S
H1201 C1209 0.950 . S
H1202 C1207 0.950 . S
H1203 C1208 0.949 . S
H1204 C1210 0.950 . S
H1205 C1211 0.950 . S
H1206 C1212 0.949 . S
C1207 H1202 0.950 . S
C1207 C1209 1.327 . S
C1207 C1213 1.429 . S
C1208 C1200 1.574 . S
C1208 H1203 0.949 . S
C1208 C1214 1.368 . S
C1209 C1193 1.349 . S
C1209 H1201 0.950 . S
C1209 C1207 1.327 . S
C1210 C1198 1.349 . S
C1210 H1204 0.950 . S
C1210 C1211 1.327 . S
C1211 H1205 0.950 . S
C1211 C1210 1.327 . S
C1211 C1215 1.429 . S
C1212 C1195 1.574 . S
C1212 H1206 0.949 . S
C1212 C1216 1.368 . S
C1213 C1194 1.429 . S
C1213 C1207 1.429 . S
C1213 C1214 1.523 . S
C1214 C1195 1.368 . S
C1214 C1208 1.368 . S
C1214 C1213 1.523 . S
C1215 C1199 1.429 . S
C1215 C1211 1.429 . S
C1215 C1216 1.523 . S
C1216 C1200 1.368 . S
C1216 C1212 1.368 . S
C1216 C1215 1.523 . S
H1217 C1192 0.950 . S
H1218 C1194 0.950 . S
H1219 C1195 0.949 . S
H1220 C1197 0.950 . S
H1221 C1199 0.950 . S
C1222 C1223 1.349 . S
C1222 C1224 1.327 . S
C1222 H1247 0.950 . S
C1223 C1222 1.349 . S
C1223 C1239 1.349 . S
C1224 C1222 1.327 . S
C1224 C1243 1.429 . S
C1224 H1248 0.950 . S
C1225 C1242 1.574 . S
C1225 C1244 1.368 . S
C1225 H1249 0.949 . S
H1226 C1230 0.949 . S
C1227 C1228 1.349 . S
C1227 C1229 1.327 . S
C1227 H1250 0.950 . S
C1228 C1227 1.349 . S
C1228 C1240 1.349 . S
C1229 C1227 1.327 . S
C1229 C1245 1.429 1_556 S
C1229 H1251 0.950 . S
C1230 H1226 0.949 . S
C1230 C1238 1.574 . S
C1230 C1246 1.368 . S
H1231 C1239 0.950 . S
H1232 C1237 0.950 . S
H1233 C1238 0.949 . S
H1234 C1240 0.950 . S
H1235 C1241 0.950 . S
H1236 C1242 0.949 . S
C1237 H1232 0.950 . S
C1237 C1239 1.327 . S
C1237 C1243 1.429 . S
C1238 C1230 1.574 . S
C1238 H1233 0.949 . S
C1238 C1244 1.368 . S
C1239 C1223 1.349 . S
C1239 H1231 0.950 . S
C1239 C1237 1.327 . S
C1240 C1228 1.349 . S
C1240 H1234 0.950 . S
C1240 C1241 1.327 1_556 S
C1241 H1235 0.950 . S
C1241 C1240 1.327 1_554 S
C1241 C1245 1.429 . S
C1242 C1225 1.574 . S
C1242 H1236 0.949 . S
C1242 C1246 1.368 . S
C1243 C1224 1.429 . S
C1243 C1237 1.429 . S
C1243 C1244 1.523 . S
C1244 C1225 1.368 . S
C1244 C1238 1.368 . S
C1244 C1243 1.523 . S
C1245 C1229 1.429 1_554 S
C1245 C1241 1.429 . S
C1245 C1246 1.523 . S
C1246 C1230 1.368 . S
C1246 C1242 1.368 . S
C1246 C1245 1.523 . S
H1247 C1222 0.950 . S
H1248 C1224 0.950 . S
H1249 C1225 0.949 . S
H1250 C1227 0.950 . S
H1251 C1229 0.950 . S
C1252 C1253 1.349 . S
C1252 C1254 1.327 . S
C1252 H1277 0.950 . S
C1253 C1252 1.349 . S
C1253 C1269 1.349 . S
C1254 C1252 1.327 . S
C1254 C1273 1.429 . S
C1254 H1278 0.950 . S
C1255 C1272 1.574 1_565 S
C1255 C1274 1.368 . S
C1255 H1279 0.949 1_565 S
H1256 C1260 0.949 . S
C1257 C1258 1.366 . S
C1257 C1259 1.327 . S
C1257 H1280 0.933 1_565 S
C1258 C1257 1.366 . S
C1258 C1270 1.349 . S
C1259 C1257 1.327 . S
C1259 C1275 1.437 . S
C1259 H1281 0.941 1_565 S
C1260 H1256 0.949 . S
C1260 C1268 1.574 . S
C1260 C1276 1.368 . S
H1261 C1269 0.950 1_545 S
H1262 C1267 0.950 1_545 S
H1263 C1268 0.949 . S
H1264 C1270 0.950 . S
H1265 C1271 0.950 . S
H1266 C1272 0.950 . S
C1267 H1262 0.950 1_565 S
C1267 C1269 1.327 . S
C1267 C1273 1.429 . S
C1268 C1260 1.574 . S
C1268 H1263 0.949 . S
C1268 C1274 1.368 . S
C1269 C1253 1.349 . S
C1269 H1261 0.950 1_565 S
C1269 C1267 1.327 . S
C1270 C1258 1.349 . S
C1270 H1264 0.950 . S
C1270 C1271 1.327 . S
C1271 H1265 0.950 . S
C1271 C1270 1.327 . S
C1271 C1275 1.429 . S
C1272 C1255 1.574 1_545 S
C1272 H1266 0.950 . S
C1272 C1276 1.367 1_545 S
C1273 C1254 1.429 . S
C1273 C1267 1.429 . S
C1273 C1274 1.523 . S
C1274 C1255 1.368 . S
C1274 C1268 1.368 . S
C1274 C1273 1.523 . S
C1275 C1259 1.437 . S
C1275 C1271 1.429 . S
C1275 C1276 1.523 . S
C1276 C1260 1.368 . S
C1276 C1272 1.367 1_565 S
C1276 C1275 1.523 . S
H1277 C1252 0.950 . S
H1278 C1254 0.950 . S
H1279 C1255 0.949 1_545 S
H1280 C1257 0.933 1_545 S
H1281 C1259 0.941 1_545 S
C1282 C1283 1.349 . S
C1282 C1284 1.327 . S
C1282 H1307 0.950 . S
C1283 C1282 1.349 . S
C1283 C1299 1.349 . S
C1284 C1282 1.327 . S
C1284 C1303 1.429 1_556 S
C1284 H1308 0.950 . S
C1285 C1302 1.574 . S
C1285 C1304 1.368 . S
C1285 H1309 0.949 . S
H1286 C1290 0.949 . S
C1287 C1288 1.349 . S
C1287 C1289 1.327 . S
C1287 H1310 0.950 . S
C1288 C1287 1.349 . S
C1288 C1300 1.349 . S
C1289 C1287 1.327 . S
C1289 C1305 1.429 . S
C1289 H1311 0.950 . S
C1290 H1286 0.949 . S
C1290 C1298 1.574 . S
C1290 C1306 1.368 . S
H1291 C1299 0.950 . S
H1292 C1297 0.950 . S
H1293 C1298 0.949 . S
H1294 C1300 0.950 . S
H1295 C1301 0.950 . S
H1296 C1302 0.949 . S
C1297 H1292 0.950 . S
C1297 C1299 1.327 1_554 S
C1297 C1303 1.429 . S
C1298 C1290 1.574 . S
C1298 H1293 0.949 . S
C1298 C1304 1.368 . S
C1299 C1283 1.349 . S
C1299 H1291 0.950 . S
C1299 C1297 1.327 1_556 S
C1300 C1288 1.349 . S
C1300 H1294 0.950 . S
C1300 C1301 1.327 . S
C1301 H1295 0.950 . S
C1301 C1300 1.327 . S
C1301 C1305 1.429 . S
C1302 C1285 1.574 . S
C1302 H1296 0.949 . S
C1302 C1306 1.368 . S
C1303 C1284 1.429 1_554 S
C1303 C1297 1.429 . S
C1303 C1304 1.523 . S
C1304 C1285 1.368 . S
C1304 C1298 1.368 . S
C1304 C1303 1.523 . S
C1305 C1289 1.429 . S
C1305 C1301 1.429 . S
C1305 C1306 1.523 . S
C1306 C1290 1.368 . S
C1306 C1302 1.368 . S
C1306 C1305 1.523 . S
H1307 C1282 0.950 . S
H1308 C1284 0.950 . S
H1309 C1285 0.949 . S
H1310 C1287 0.950 . S
H1311 C1289 0.950 . S
C1312 C1313 1.349 . S
C1312 C1314 1.327 . S
C1312 H1337 0.950 . S
C1313 C1312 1.349 . S
C1313 C1329 1.349 . S
C1314 C1312 1.327 . S
C1314 C1333 1.429 . S
C1314 H1338 0.950 . S
C1315 C1332 1.574 . S
C1315 C1334 1.368 . S
C1315 H1339 0.949 . S
H1316 C1320 0.949 . S
C1317 C1318 1.349 . S
C1317 C1319 1.327 . S
C1317 H1340 0.950 . S
C1318 C1317 1.349 . S
C1318 C1330 1.349 . S
C1319 C1317 1.327 . S
C1319 C1335 1.429 . S
C1319 H1341 0.950 . S
C1320 H1316 0.949 . S
C1320 C1328 1.574 . S
C1320 C1336 1.368 . S
H1321 C1329 0.950 . S
H1322 C1327 0.950 . S
H1323 C1328 0.949 . S
H1324 C1330 0.950 . S
H1325 C1331 0.950 . S
H1326 C1332 0.949 . S
C1327 H1322 0.950 . S
C1327 C1329 1.327 . S
C1327 C1333 1.429 . S
C1328 C1320 1.574 . S
C1328 H1323 0.949 . S
C1328 C1334 1.368 . S
C1329 C1313 1.349 . S
C1329 H1321 0.950 . S
C1329 C1327 1.327 . S
C1330 C1318 1.349 . S
C1330 H1324 0.950 . S
C1330 C1331 1.327 . S
C1331 H1325 0.950 . S
C1331 C1330 1.327 . S
C1331 C1335 1.429 . S
C1332 C1315 1.574 . S
C1332 H1326 0.949 . S
C1332 C1336 1.368 . S
C1333 C1314 1.429 . S
C1333 C1327 1.429 . S
C1333 C1334 1.523 . S
C1334 C1315 1.368 . S
C1334 C1328 1.368 . S
C1334 C1333 1.523 . S
C1335 C1319 1.429 . S
C1335 C1331 1.429 . S
C1335 C1336 1.523 . S
C1336 C1320 1.368 . S
C1336 C1332 1.368 . S
C1336 C1335 1.523 . S
H1337 C1312 0.950 . S
H1338 C1314 0.950 . S
H1339 C1315 0.949 . S
H1340 C1317 0.950 . S
H1341 C1319 0.950 . S
C1342 C1343 1.349 . S
C1342 C1344 1.327 . S
C1342 H1367 0.950 . S
C1343 C1342 1.349 . S
C1343 C1359 1.349 . S
C1344 C1342 1.327 . S
C1344 C1363 1.429 . S
C1344 H1368 0.950 . S
C1345 C1362 1.574 . S
C1345 C1364 1.368 . S
C1345 H1369 0.949 . S
H1346 C1350 0.949 . S
C1347 C1348 1.349 . S
C1347 C1349 1.327 . S
C1347 H1370 0.950 . S
C1348 C1347 1.349 . S
C1348 C1360 1.349 . S
C1349 C1347 1.327 . S
C1349 C1365 1.429 . S
C1349 H1371 0.950 . S
C1350 H1346 0.949 . S
C1350 C1358 1.574 . S
C1350 C1366 1.368 . S
H1351 C1359 0.950 . S
H1352 C1357 0.950 . S
H1353 C1358 0.949 . S
H1354 C1360 0.950 . S
H1355 C1361 0.950 . S
H1356 C1362 0.949 . S
C1357 H1352 0.950 . S
C1357 C1359 1.327 . S
C1357 C1363 1.429 . S
C1358 C1350 1.574 . S
C1358 H1353 0.949 . S
C1358 C1364 1.368 . S
C1359 C1343 1.349 . S
C1359 H1351 0.950 . S
C1359 C1357 1.327 . S
C1360 C1348 1.349 . S
C1360 H1354 0.950 . S
C1360 C1361 1.327 . S
C1361 H1355 0.950 . S
C1361 C1360 1.327 . S
C1361 C1365 1.429 . S
C1362 C1345 1.574 . S
C1362 H1356 0.949 . S
C1362 C1366 1.368 . S
C1363 C1344 1.429 . S
C1363 C1357 1.429 . S
C1363 C1364 1.523 . S
C1364 C1345 1.368 . S
C1364 C1358 1.368 . S
C1364 C1363 1.523 . S
C1365 C1349 1.429 . S
C1365 C1361 1.429 . S
C1365 C1366 1.523 . S
C1366 C1350 1.368 . S
C1366 C1362 1.368 . S
C1366 C1365 1.523 . S
H1367 C1342 0.950 . S
H1368 C1344 0.950 . S
H1369 C1345 0.949 . S
H1370 C1347 0.950 . S
H1371 C1349 0.950 . S
C1372 C1373 1.349 . S
C1372 C1374 1.327 . S
C1372 H1397 0.950 . S
C1373 C1372 1.349 . S
C1373 C1389 1.349 . S
C1374 C1372 1.327 . S
C1374 C1393 1.429 . S
C1374 H1398 0.950 . S
C1375 C1392 1.574 . S
C1375 C1394 1.368 . S
C1375 H1399 0.949 . S
H1376 C1380 0.949 . S
C1377 C1378 1.349 . S
C1377 C1379 1.327 . S
C1377 H1400 0.950 . S
C1378 C1377 1.349 . S
C1378 C1390 1.349 . S
C1379 C1377 1.327 . S
C1379 C1395 1.429 . S
C1379 H1401 0.950 . S
C1380 H1376 0.949 . S
C1380 C1388 1.574 . S
C1380 C1396 1.368 . S
H1381 C1389 0.950 . S
H1382 C1387 0.950 . S
H1383 C1388 0.949 . S
H1384 C1390 0.950 . S
H1385 C1391 0.950 . S
H1386 C1392 0.949 . S
C1387 H1382 0.950 . S
C1387 C1389 1.327 . S
C1387 C1393 1.429 . S
C1388 C1380 1.574 . S
C1388 H1383 0.949 . S
C1388 C1394 1.368 . S
C1389 C1373 1.349 . S
C1389 H1381 0.950 . S
C1389 C1387 1.327 . S
C1390 C1378 1.349 . S
C1390 H1384 0.950 . S
C1390 C1391 1.327 . S
C1391 H1385 0.950 . S
C1391 C1390 1.327 . S
C1391 C1395 1.429 . S
C1392 C1375 1.574 . S
C1392 H1386 0.949 . S
C1392 C1396 1.368 . S
C1393 C1374 1.429 . S
C1393 C1387 1.429 . S
C1393 C1394 1.523 . S
C1394 C1375 1.368 . S
C1394 C1388 1.368 . S
C1394 C1393 1.523 . S
C1395 C1379 1.429 . S
C1395 C1391 1.429 . S
C1395 C1396 1.523 . S
C1396 C1380 1.368 . S
C1396 C1392 1.368 . S
C1396 C1395 1.523 . S
H1397 C1372 0.950 . S
H1398 C1374 0.950 . S
H1399 C1375 0.949 . S
H1400 C1377 0.950 . S
H1401 C1379 0.950 . S
C1402 C1403 1.349 . S
C1402 C1404 1.327 . S
C1402 H1427 0.950 . S
C1403 C1402 1.349 . S
C1403 C1419 1.349 . S
C1404 C1402 1.327 . S
C1404 C1423 1.429 . S
C1404 H1428 0.950 . S
C1405 C1422 1.574 . S
C1405 C1424 1.368 . S
C1405 H1429 0.949 . S
H1406 C1410 0.949 . S
C1407 C1408 1.349 . S
C1407 C1409 1.327 . S
C1407 H1430 0.950 . S
C1408 C1407 1.349 . S
C1408 C1420 1.349 . S
C1409 C1407 1.327 . S
C1409 C1425 1.429 . S
C1409 H1431 0.950 . S
C1410 H1406 0.949 . S
C1410 C1418 1.574 . S
C1410 C1426 1.368 . S
H1411 C1419 0.950 . S
H1412 C1417 0.950 . S
H1413 C1418 0.949 . S
H1414 C1420 0.950 . S
H1415 C1421 0.950 . S
H1416 C1422 0.949 . S
C1417 H1412 0.950 . S
C1417 C1419 1.327 . S
C1417 C1423 1.429 . S
C1418 C1410 1.574 . S
C1418 H1413 0.949 . S
C1418 C1424 1.368 . S
C1419 C1403 1.349 . S
C1419 H1411 0.950 . S
C1419 C1417 1.327 . S
C1420 C1408 1.349 . S
C1420 H1414 0.950 . S
C1420 C1421 1.327 . S
C1421 H1415 0.950 . S
C1421 C1420 1.327 . S
C1421 C1425 1.429 . S
C1422 C1405 1.574 . S
C1422 H1416 0.949 . S
C1422 C1426 1.368 . S
C1423 C1404 1.429 . S
C1423 C1417 1.429 . S
C1423 C1424 1.523 . S
C1424 C1405 1.368 . S
C1424 C1418 1.368 . S
C1424 C1423 1.523 . S
C1425 C1409 1.429 . S
C1425 C1421 1.429 . S
C1425 C1426 1.523 . S
C1426 C1410 1.368 . S
C1426 C1422 1.368 . S
C1426 C1425 1.523 . S
H1427 C1402 0.950 . S
H1428 C1404 0.950 . S
H1429 C1405 0.949 . S
H1430 C1407 0.950 . S
H1431 C1409 0.950 . S
C1432 C1433 1.349 . S
C1432 C1434 1.327 . S
C1432 H1457 0.950 . S
C1433 C1432 1.349 . S
C1433 C1449 1.349 . S
C1434 C1432 1.327 . S
C1434 C1453 1.429 . S
C1434 H1458 0.950 . S
C1435 C1452 1.574 . S
C1435 C1454 1.368 . S
C1435 H1459 0.949 . S
H1436 C1440 0.949 . S
C1437 C1438 1.349 . S
C1437 C1439 1.327 . S
C1437 H1460 0.950 . S
C1438 C1437 1.349 . S
C1438 C1450 1.349 . S
C1439 C1437 1.327 . S
C1439 C1455 1.429 . S
C1439 H1461 0.950 . S
C1440 H1436 0.949 . S
C1440 C1448 1.574 . S
C1440 C1456 1.368 . S
H1441 C1449 0.950 . S
H1442 C1447 0.950 . S
H1443 C1448 0.949 . S
H1444 C1450 0.950 . S
H1445 C1451 0.950 . S
H1446 C1452 0.949 . S
C1447 H1442 0.950 . S
C1447 C1449 1.327 . S
C1447 C1453 1.429 . S
C1448 C1440 1.574 . S
C1448 H1443 0.949 . S
C1448 C1454 1.368 . S
C1449 C1433 1.349 . S
C1449 H1441 0.950 . S
C1449 C1447 1.327 . S
C1450 C1438 1.349 . S
C1450 H1444 0.950 . S
C1450 C1451 1.327 . S
C1451 H1445 0.950 . S
C1451 C1450 1.327 . S
C1451 C1455 1.429 . S
C1452 C1435 1.574 . S
C1452 H1446 0.949 . S
C1452 C1456 1.368 . S
C1453 C1434 1.429 . S
C1453 C1447 1.429 . S
C1453 C1454 1.523 . S
C1454 C1435 1.368 . S
C1454 C1448 1.368 . S
C1454 C1453 1.523 . S
C1455 C1439 1.429 . S
C1455 C1451 1.429 . S
C1455 C1456 1.523 . S
C1456 C1440 1.368 . S
C1456 C1452 1.368 . S
C1456 C1455 1.523 . S
H1457 C1432 0.950 . S
H1458 C1434 0.950 . S
H1459 C1435 0.949 . S
H1460 C1437 0.950 . S
H1461 C1439 0.950 . S
C1462 C1463 1.349 . S
C1462 C1464 1.327 . S
C1462 H1487 0.950 . S
C1463 C1462 1.349 . S
C1463 C1479 1.349 . S
C1464 C1462 1.327 . S
C1464 C1483 1.429 . S
C1464 H1488 0.950 . S
C1465 C1482 1.574 . S
C1465 C1484 1.368 . S
C1465 H1489 0.949 . S
H1466 C1470 0.949 . S
C1467 C1468 1.349 . S
C1467 C1469 1.327 . S
C1467 H1490 0.950 . S
C1468 C1467 1.349 . S
C1468 C1480 1.349 . S
C1469 C1467 1.327 . S
C1469 C1485 1.429 . S
C1469 H1491 0.950 . S
C1470 H1466 0.949 . S
C1470 C1478 1.574 . S
C1470 C1486 1.368 . S
H1471 C1479 0.950 . S
H1472 C1477 0.950 . S
H1473 C1478 0.949 . S
H1474 C1480 0.950 . S
H1475 C1481 0.950 . S
H1476 C1482 0.949 . S
C1477 H1472 0.950 . S
C1477 C1479 1.327 . S
C1477 C1483 1.429 . S
C1478 C1470 1.574 . S
C1478 H1473 0.949 . S
C1478 C1484 1.368 . S
C1479 C1463 1.349 . S
C1479 H1471 0.950 . S
C1479 C1477 1.327 . S
C1480 C1468 1.349 . S
C1480 H1474 0.950 . S
C1480 C1481 1.327 . S
C1481 H1475 0.950 . S
C1481 C1480 1.327 . S
C1481 C1485 1.429 . S
C1482 C1465 1.574 . S
C1482 H1476 0.949 . S
C1482 C1486 1.368 . S
C1483 C1464 1.429 . S
C1483 C1477 1.429 . S
C1483 C1484 1.523 . S
C1484 C1465 1.368 . S
C1484 C1478 1.368 . S
C1484 C1483 1.523 . S
C1485 C1469 1.429 . S
C1485 C1481 1.429 . S
C1485 C1486 1.523 . S
C1486 C1470 1.368 . S
C1486 C1482 1.368 . S
C1486 C1485 1.523 . S
H1487 C1462 0.950 . S
H1488 C1464 0.950 . S
H1489 C1465 0.949 . S
H1490 C1467 0.950 . S
H1491 C1469 0.950 . S
C1492 C1493 1.349 . S
C1492 C1494 1.327 . S
C1492 H1517 0.950 . S
C1493 C1492 1.349 . S
C1493 C1509 1.349 . S
C1494 C1492 1.327 . S
C1494 C1513 1.429 . S
C1494 H1518 0.950 . S
C1495 C1512 1.574 . S
C1495 C1514 1.368 . S
C1495 H1519 0.949 . S
H1496 C1500 0.949 . S
C1497 C1498 1.349 . S
C1497 C1499 1.327 . S
C1497 H1520 0.950 . S
C1498 C1497 1.349 . S
C1498 C1510 1.349 . S
C1499 C1497 1.327 . S
C1499 C1515 1.429 . S
C1499 H1521 0.950 . S
C1500 H1496 0.949 . S
C1500 C1508 1.574 . S
C1500 C1516 1.368 . S
H1501 C1509 0.950 . S
H1502 C1507 0.950 . S
H1503 C1508 0.949 . S
H1504 C1510 0.950 . S
H1505 C1511 0.950 . S
H1506 C1512 0.949 . S
C1507 H1502 0.950 . S
C1507 C1509 1.327 . S
C1507 C1513 1.429 . S
C1508 C1500 1.574 . S
C1508 H1503 0.949 . S
C1508 C1514 1.368 . S
C1509 C1493 1.349 . S
C1509 H1501 0.950 . S
C1509 C1507 1.327 . S
C1510 C1498 1.349 . S
C1510 H1504 0.950 . S
C1510 C1511 1.327 . S
C1511 H1505 0.950 . S
C1511 C1510 1.327 . S
C1511 C1515 1.429 . S
C1512 C1495 1.574 . S
C1512 H1506 0.949 . S
C1512 C1516 1.368 . S
C1513 C1494 1.429 . S
C1513 C1507 1.429 . S
C1513 C1514 1.523 . S
C1514 C1495 1.368 . S
C1514 C1508 1.368 . S
C1514 C1513 1.523 . S
C1515 C1499 1.429 . S
C1515 C1511 1.429 . S
C1515 C1516 1.523 . S
C1516 C1500 1.368 . S
C1516 C1512 1.368 . S
C1516 C1515 1.523 . S
H1517 C1492 0.950 . S
H1518 C1494 0.950 . S
H1519 C1495 0.949 . S
H1520 C1497 0.950 . S
H1521 C1499 0.950 . S
C1522 C1523 1.349 . S
C1522 C1524 1.327 . S
C1522 H1547 0.950 . S
C1523 C1522 1.349 . S
C1523 C1539 1.349 . S
C1524 C1522 1.327 . S
C1524 C1543 1.429 . S
C1524 H1548 0.950 . S
C1525 C1542 1.574 . S
C1525 C1544 1.368 . S
C1525 H1549 0.949 . S
H1526 C1530 0.949 . S
C1527 C1528 1.349 . S
C1527 C1529 1.327 . S
C1527 H1550 0.950 . S
C1528 C1527 1.349 . S
C1528 C1540 1.349 . S
C1529 C1527 1.327 . S
C1529 C1545 1.429 . S
C1529 H1551 0.950 . S
C1530 H1526 0.949 . S
C1530 C1538 1.574 . S
C1530 C1546 1.368 . S
H1531 C1539 0.950 . S
H1532 C1537 0.950 . S
H1533 C1538 0.949 . S
H1534 C1540 0.950 . S
H1535 C1541 0.950 . S
H1536 C1542 0.949 . S
C1537 H1532 0.950 . S
C1537 C1539 1.327 . S
C1537 C1543 1.429 . S
C1538 C1530 1.574 . S
C1538 H1533 0.949 . S
C1538 C1544 1.368 . S
C1539 C1523 1.349 . S
C1539 H1531 0.950 . S
C1539 C1537 1.327 . S
C1540 C1528 1.349 . S
C1540 H1534 0.950 . S
C1540 C1541 1.327 . S
C1541 H1535 0.950 . S
C1541 C1540 1.327 . S
C1541 C1545 1.429 . S
C1542 C1525 1.574 . S
C1542 H1536 0.949 . S
C1542 C1546 1.368 . S
C1543 C1524 1.429 . S
C1543 C1537 1.429 . S
C1543 C1544 1.523 . S
C1544 C1525 1.368 . S
C1544 C1538 1.368 . S
C1544 C1543 1.523 . S
C1545 C1529 1.429 . S
C1545 C1541 1.429 . S
C1545 C1546 1.523 . S
C1546 C1530 1.368 . S
C1546 C1542 1.368 . S
C1546 C1545 1.523 . S
H1547 C1522 0.950 . S
H1548 C1524 0.950 . S
H1549 C1525 0.949 . S
H1550 C1527 0.950 . S
H1551 C1529 0.950 . S
C1552 C1553 1.349 . S
C1552 C1554 1.327 . S
C1552 H1577 0.950 . S
C1553 C1552 1.349 . S
C1553 C1569 1.349 . S
C1554 C1552 1.327 . S
C1554 C1573 1.429 . S
C1554 H1578 0.950 . S
C1555 C1572 1.574 . S
C1555 C1574 1.368 . S
C1555 H1579 0.949 . S
H1556 C1560 0.949 . S
C1557 C1558 1.349 . S
C1557 C1559 1.327 . S
C1557 H1580 0.950 . S
C1558 C1557 1.349 . S
C1558 C1570 1.349 . S
C1559 C1557 1.327 . S
C1559 C1575 1.429 . S
C1559 H1581 0.950 . S
C1560 H1556 0.949 . S
C1560 C1568 1.574 . S
C1560 C1576 1.368 . S
H1561 C1569 0.950 . S
H1562 C1567 0.950 . S
H1563 C1568 0.949 . S
H1564 C1570 0.950 . S
H1565 C1571 0.950 . S
H1566 C1572 0.949 . S
C1567 H1562 0.950 . S
C1567 C1569 1.327 . S
C1567 C1573 1.429 . S
C1568 C1560 1.574 . S
C1568 H1563 0.949 . S
C1568 C1574 1.368 . S
C1569 C1553 1.349 . S
C1569 H1561 0.950 . S
C1569 C1567 1.327 . S
C1570 C1558 1.349 . S
C1570 H1564 0.950 . S
C1570 C1571 1.327 . S
C1571 H1565 0.950 . S
C1571 C1570 1.327 . S
C1571 C1575 1.429 . S
C1572 C1555 1.574 . S
C1572 H1566 0.949 . S
C1572 C1576 1.368 . S
C1573 C1554 1.429 . S
C1573 C1567 1.429 . S
C1573 C1574 1.523 . S
C1574 C1555 1.368 . S
C1574 C1568 1.368 . S
C1574 C1573 1.523 . S
C1575 C1559 1.429 . S
C1575 C1571 1.429 . S
C1575 C1576 1.523 . S
C1576 C1560 1.368 . S
C1576 C1572 1.368 . S
C1576 C1575 1.523 . S
H1577 C1552 0.950 . S
H1578 C1554 0.950 . S
H1579 C1555 0.949 . S
H1580 C1557 0.950 . S
H1581 C1559 0.950 . S
C1582 C1583 1.349 . S
C1582 C1584 1.327 . S
C1582 H1607 0.950 . S
C1583 C1582 1.349 . S
C1583 C1599 1.349 . S
C1584 C1582 1.327 . S
C1584 C1603 1.429 . S
C1584 H1608 0.950 . S
C1585 C1602 1.574 . S
C1585 C1604 1.368 . S
C1585 H1609 0.949 . S
H1586 C1590 0.949 . S
C1587 C1588 1.349 . S
C1587 C1589 1.327 . S
C1587 H1610 0.950 . S
C1588 C1587 1.349 . S
C1588 C1600 1.349 . S
C1589 C1587 1.327 . S
C1589 C1605 1.429 . S
C1589 H1611 0.950 . S
C1590 H1586 0.949 . S
C1590 C1598 1.574 . S
C1590 C1606 1.368 . S
H1591 C1599 0.950 . S
H1592 C1597 0.950 . S
H1593 C1598 0.949 . S
H1594 C1600 0.950 . S
H1595 C1601 0.950 . S
H1596 C1602 0.949 . S
C1597 H1592 0.950 . S
C1597 C1599 1.327 . S
C1597 C1603 1.429 . S
C1598 C1590 1.574 . S
C1598 H1593 0.949 . S
C1598 C1604 1.368 . S
C1599 C1583 1.349 . S
C1599 H1591 0.950 . S
C1599 C1597 1.327 . S
C1600 C1588 1.349 . S
C1600 H1594 0.950 . S
C1600 C1601 1.327 . S
C1601 H1595 0.950 . S
C1601 C1600 1.327 . S
C1601 C1605 1.429 . S
C1602 C1585 1.574 . S
C1602 H1596 0.949 . S
C1602 C1606 1.368 . S
C1603 C1584 1.429 . S
C1603 C1597 1.429 . S
C1603 C1604 1.523 . S
C1604 C1585 1.368 . S
C1604 C1598 1.368 . S
C1604 C1603 1.523 . S
C1605 C1589 1.429 . S
C1605 C1601 1.429 . S
C1605 C1606 1.523 . S
C1606 C1590 1.368 . S
C1606 C1602 1.368 . S
C1606 C1605 1.523 . S
H1607 C1582 0.950 . S
H1608 C1584 0.950 . S
H1609 C1585 0.949 . S
H1610 C1587 0.950 . S
H1611 C1589 0.950 . S
C1612 C1613 1.349 . S
C1612 C1614 1.327 . S
C1612 H1637 0.950 . S
C1613 C1612 1.349 . S
C1613 C1629 1.349 . S
C1614 C1612 1.327 . S
C1614 C1633 1.429 . S
C1614 H1638 0.950 . S
C1615 C1632 1.574 . S
C1615 C1634 1.368 . S
C1615 H1639 0.949 . S
H1616 C1620 0.949 . S
C1617 C1618 1.349 . S
C1617 C1619 1.327 . S
C1617 H1640 0.950 . S
C1618 C1617 1.349 . S
C1618 C1630 1.349 . S
C1619 C1617 1.327 . S
C1619 C1635 1.429 . S
C1619 H1641 0.950 . S
C1620 H1616 0.949 . S
C1620 C1628 1.574 . S
C1620 C1636 1.368 . S
H1621 C1629 0.950 . S
H1622 C1627 0.950 . S
H1623 C1628 0.949 . S
H1624 C1630 0.950 . S
H1625 C1631 0.950 . S
H1626 C1632 0.949 . S
C1627 H1622 0.950 . S
C1627 C1629 1.327 . S
C1627 C1633 1.429 . S
C1628 C1620 1.574 . S
C1628 H1623 0.949 . S
C1628 C1634 1.368 . S
C1629 C1613 1.349 . S
C1629 H1621 0.950 . S
C1629 C1627 1.327 . S
C1630 C1618 1.349 . S
C1630 H1624 0.950 . S
C1630 C1631 1.327 . S
C1631 H1625 0.950 . S
C1631 C1630 1.327 . S
C1631 C1635 1.429 . S
C1632 C1615 1.574 . S
C1632 H1626 0.949 . S
C1632 C1636 1.368 . S
C1633 C1614 1.429 . S
C1633 C1627 1.429 . S
C1633 C1634 1.523 . S
C1634 C1615 1.368 . S
C1634 C1628 1.368 . S
C1634 C1633 1.523 . S
C1635 C1619 1.429 . S
C1635 C1631 1.429 . S
C1635 C1636 1.523 . S
C1636 C1620 1.368 . S
C1636 C1632 1.368 . S
C1636 C1635 1.523 . S
H1637 C1612 0.950 . S
H1638 C1614 0.950 . S
H1639 C1615 0.949 . S
H1640 C1617 0.950 . S
H1641 C1619 0.950 . S
C1642 C1643 1.349 . S
C1642 C1644 1.327 . S
C1642 H1667 0.950 . S
C1643 C1642 1.349 . S
C1643 C1659 1.349 . S
C1644 C1642 1.327 . S
C1644 C1663 1.429 . S
C1644 H1668 0.950 . S
C1645 C1662 1.574 . S
C1645 C1664 1.368 . S
C1645 H1669 0.949 . S
H1646 C1650 0.949 . S
C1647 C1648 1.349 . S
C1647 C1649 1.327 . S
C1647 H1670 0.950 . S
C1648 C1647 1.349 . S
C1648 C1660 1.349 . S
C1649 C1647 1.327 . S
C1649 C1665 1.429 . S
C1649 H1671 0.950 . S
C1650 H1646 0.949 . S
C1650 C1658 1.574 . S
C1650 C1666 1.368 . S
H1651 C1659 0.950 . S
H1652 C1657 0.950 . S
H1653 C1658 0.949 . S
H1654 C1660 0.950 . S
H1655 C1661 0.950 . S
H1656 C1662 0.949 . S
C1657 H1652 0.950 . S
C1657 C1659 1.327 . S
C1657 C1663 1.429 . S
C1658 C1650 1.574 . S
C1658 H1653 0.949 . S
C1658 C1664 1.368 . S
C1659 C1643 1.349 . S
C1659 H1651 0.950 . S
C1659 C1657 1.327 . S
C1660 C1648 1.349 . S
C1660 H1654 0.950 . S
C1660 C1661 1.327 . S
C1661 H1655 0.950 . S
C1661 C1660 1.327 . S
C1661 C1665 1.429 . S
C1662 C1645 1.574 . S
C1662 H1656 0.949 . S
C1662 C1666 1.368 . S
C1663 C1644 1.429 . S
C1663 C1657 1.429 . S
C1663 C1664 1.523 . S
C1664 C1645 1.368 . S
C1664 C1658 1.368 . S
C1664 C1663 1.523 . S
C1665 C1649 1.429 . S
C1665 C1661 1.429 . S
C1665 C1666 1.523 . S
C1666 C1650 1.368 . S
C1666 C1662 1.368 . S
C1666 C1665 1.523 . S
H1667 C1642 0.950 . S
H1668 C1644 0.950 . S
H1669 C1645 0.949 . S
H1670 C1647 0.950 . S
H1671 C1649 0.950 . S
C1672 C1673 1.349 . S
C1672 C1674 1.327 . S
C1672 H1697 0.950 . S
C1673 C1672 1.349 . S
C1673 C1689 1.349 . S
C1674 C1672 1.327 . S
C1674 C1693 1.429 . S
C1674 H1698 0.950 . S
C1675 C1692 1.574 . S
C1675 C1694 1.368 . S
C1675 H1699 0.949 . S
H1676 C1680 0.949 . S
C1677 C1678 1.349 . S
C1677 C1679 1.327 . S
C1677 H1700 0.950 . S
C1678 C1677 1.349 . S
C1678 C1690 1.349 . S
C1679 C1677 1.327 . S
C1679 C1695 1.429 . S
C1679 H1701 0.950 . S
C1680 H1676 0.949 . S
C1680 C1688 1.574 . S
C1680 C1696 1.368 . S
H1681 C1689 0.950 . S
H1682 C1687 0.950 . S
H1683 C1688 0.949 . S
H1684 C1690 0.950 . S
H1685 C1691 0.950 . S
H1686 C1692 0.949 . S
C1687 H1682 0.950 . S
C1687 C1689 1.327 . S
C1687 C1693 1.429 . S
C1688 C1680 1.574 . S
C1688 H1683 0.949 . S
C1688 C1694 1.368 . S
C1689 C1673 1.349 . S
C1689 H1681 0.950 . S
C1689 C1687 1.327 . S
C1690 C1678 1.349 . S
C1690 H1684 0.950 . S
C1690 C1691 1.327 . S
C1691 H1685 0.950 . S
C1691 C1690 1.327 . S
C1691 C1695 1.429 . S
C1692 C1675 1.574 . S
C1692 H1686 0.949 . S
C1692 C1696 1.368 . S
C1693 C1674 1.429 . S
C1693 C1687 1.429 . S
C1693 C1694 1.523 . S
C1694 C1675 1.368 . S
C1694 C1688 1.368 . S
C1694 C1693 1.523 . S
C1695 C1679 1.429 . S
C1695 C1691 1.429 . S
C1695 C1696 1.523 . S
C1696 C1680 1.368 . S
C1696 C1692 1.368 . S
C1696 C1695 1.523 . S
H1697 C1672 0.950 . S
H1698 C1674 0.950 . S
H1699 C1675 0.949 . S
H1700 C1677 0.950 . S
H1701 C1679 0.950 . S
C1702 C1703 1.349 . S
C1702 C1704 1.327 . S
C1702 H1727 0.950 . S
C1703 C1702 1.349 . S
C1703 C1719 1.349 . S
C1704 C1702 1.327 . S
C1704 C1723 1.429 . S
C1704 H1728 0.950 . S
C1705 C1722 1.574 . S
C1705 C1724 1.368 . S
C1705 H1729 0.949 . S
H1706 C1710 0.949 . S
C1707 C1708 1.349 . S
C1707 C1709 1.327 . S
C1707 H1730 0.950 . S
C1708 C1707 1.349 . S
C1708 C1720 1.349 . S
C1709 C1707 1.327 . S
C1709 C1725 1.429 . S
C1709 H1731 0.950 . S
C1710 H1706 0.949 . S
C1710 C1718 1.574 . S
C1710 C1726 1.368 . S
H1711 C1719 0.950 . S
H1712 C1717 0.950 . S
H1713 C1718 0.949 . S
H1714 C1720 0.950 . S
H1715 C1721 0.950 . S
H1716 C1722 0.949 . S
C1717 H1712 0.950 . S
C1717 C1719 1.327 . S
C1717 C1723 1.429 . S
C1718 C1710 1.574 . S
C1718 H1713 0.949 . S
C1718 C1724 1.368 . S
C1719 C1703 1.349 . S
C1719 H1711 0.950 . S
C1719 C1717 1.327 . S
C1720 C1708 1.349 . S
C1720 H1714 0.950 . S
C1720 C1721 1.327 . S
C1721 H1715 0.950 . S
C1721 C1720 1.327 . S
C1721 C1725 1.429 . S
C1722 C1705 1.574 . S
C1722 H1716 0.949 . S
C1722 C1726 1.368 . S
C1723 C1704 1.429 . S
C1723 C1717 1.429 . S
C1723 C1724 1.523 . S
C1724 C1705 1.368 . S
C1724 C1718 1.368 . S
C1724 C1723 1.523 . S
C1725 C1709 1.429 . S
C1725 C1721 1.429 . S
C1725 C1726 1.523 . S
C1726 C1710 1.368 . S
C1726 C1722 1.368 . S
C1726 C1725 1.523 . S
H1727 C1702 0.950 . S
H1728 C1704 0.950 . S
H1729 C1705 0.949 . S
H1730 C1707 0.950 . S
H1731 C1709 0.950 . S
C1732 C1733 1.349 . S
C1732 C1734 1.327 . S
C1732 H1757 0.950 . S
C1733 C1732 1.349 . S
C1733 C1749 1.349 . S
C1734 C1732 1.327 . S
C1734 C1753 1.429 . S
C1734 H1758 0.950 . S
C1735 C1752 1.574 . S
C1735 C1754 1.368 . S
C1735 H1759 0.949 . S
H1736 C1740 0.949 . S
C1737 C1738 1.349 . S
C1737 C1739 1.327 . S
C1737 H1760 0.950 . S
C1738 C1737 1.349 . S
C1738 C1750 1.349 . S
C1739 C1737 1.327 . S
C1739 C1755 1.429 . S
C1739 H1761 0.950 . S
C1740 H1736 0.949 . S
C1740 C1748 1.574 . S
C1740 C1756 1.368 . S
H1741 C1749 0.950 . S
H1742 C1747 0.950 . S
H1743 C1748 0.949 . S
H1744 C1750 0.950 . S
H1745 C1751 0.950 . S
H1746 C1752 0.949 . S
C1747 H1742 0.950 . S
C1747 C1749 1.327 . S
C1747 C1753 1.429 . S
C1748 C1740 1.574 . S
C1748 H1743 0.949 . S
C1748 C1754 1.368 . S
C1749 C1733 1.349 . S
C1749 H1741 0.950 . S
C1749 C1747 1.327 . S
C1750 C1738 1.349 . S
C1750 H1744 0.950 . S
C1750 C1751 1.327 . S
C1751 H1745 0.950 . S
C1751 C1750 1.327 . S
C1751 C1755 1.429 . S
C1752 C1735 1.574 . S
C1752 H1746 0.949 . S
C1752 C1756 1.368 . S
C1753 C1734 1.429 . S
C1753 C1747 1.429 . S
C1753 C1754 1.523 . S
C1754 C1735 1.368 . S
C1754 C1748 1.368 . S
C1754 C1753 1.523 . S
C1755 C1739 1.429 . S
C1755 C1751 1.429 . S
C1755 C1756 1.523 . S
C1756 C1740 1.368 . S
C1756 C1752 1.368 . S
C1756 C1755 1.523 . S
H1757 C1732 0.950 . S
H1758 C1734 0.950 . S
H1759 C1735 0.949 . S
H1760 C1737 0.950 . S
H1761 C1739 0.950 . S
C1762 C1763 1.349 . S
C1762 C1764 1.327 . S
C1762 H1787 0.950 . S
C1763 C1762 1.349 . S
C1763 C1779 1.349 . S
C1764 C1762 1.327 . S
C1764 C1783 1.429 . S
C1764 H1788 0.950 . S
C1765 C1782 1.574 . S
C1765 C1784 1.368 . S
C1765 H1789 0.949 . S
H1766 C1770 0.949 . S
C1767 C1768 1.349 . S
C1767 C1769 1.327 . S
C1767 H1790 0.950 . S
C1768 C1767 1.349 . S
C1768 C1780 1.349 . S
C1769 C1767 1.327 . S
C1769 C1785 1.429 . S
C1769 H1791 0.950 . S
C1770 H1766 0.949 . S
C1770 C1778 1.574 . S
C1770 C1786 1.368 . S
H1771 C1779 0.950 . S
H1772 C1777 0.950 . S
H1773 C1778 0.949 . S
H1774 C1780 0.950 . S
H1775 C1781 0.950 . S
H1776 C1782 0.949 . S
C1777 H1772 0.950 . S
C1777 C1779 1.327 . S
C1777 C1783 1.429 . S
C1778 C1770 1.574 . S
C1778 H1773 0.949 . S
C1778 C1784 1.368 . S
C1779 C1763 1.349 . S
C1779 H1771 0.950 . S
C1779 C1777 1.327 . S
C1780 C1768 1.349 . S
C1780 H1774 0.950 . S
C1780 C1781 1.327 . S
C1781 H1775 0.950 . S
C1781 C1780 1.327 . S
C1781 C1785 1.429 . S
C1782 C1765 1.574 . S
C1782 H1776 0.949 . S
C1782 C1786 1.368 . S
C1783 C1764 1.429 . S
C1783 C1777 1.429 . S
C1783 C1784 1.523 . S
C1784 C1765 1.368 . S
C1784 C1778 1.368 . S
C1784 C1783 1.523 . S
C1785 C1769 1.429 . S
C1785 C1781 1.429 . S
C1785 C1786 1.523 . S
C1786 C1770 1.368 . S
C1786 C1782 1.368 . S
C1786 C1785 1.523 . S
H1787 C1762 0.950 . S
H1788 C1764 0.950 . S
H1789 C1765 0.949 . S
H1790 C1767 0.950 . S
H1791 C1769 0.950 . S
C353 C5 0.715 . S
C358 C159 0.715 . S
C383 C93 0.715 . S
C388 C27 0.715 . S
C413 C119 0.715 . S
C418 C53 0.715 . S
C443 C75 0.715 . S
C448 C141 0.715 . S
C473 C336 0.715 . S
C478 C182 0.715 . S
C503 C270 0.715 . S
C508 C204 0.715 . S
C533 C293 0.715 . S
C538 C227 0.715 . S
C563 C315 0.715 . S
C568 C249 0.715 . S
C593 C6 1.266 . S
C598 C335 1.266 . S
C623 C28 1.266 . S
C628 C269 1.266 . S
C653 C51 1.266 . S
C658 C295 1.266 . S
C683 C317 1.266 . S
C688 C73 1.266 . S
C713 C203 1.266 . S
C718 C94 1.266 . S
C743 C117 1.266 . S
C748 C229 1.266 . S
C773 C251 1.266 . S
C778 C139 1.266 . S
C803 C160 1.266 . S
C808 C181 1.266 . S
C833 C268 1.554 . S
C838 C9 1.584 . S
C863 C31 1.584 . S
C868 C294 1.554 . S
C893 C316 1.554 . S
C898 C49 1.584 . S
C923 C334 1.554 . S
C928 C71 1.584 . S
C953 C97 1.584 . S
C958 C180 1.554 . S
C983 C115 1.584 . S
C988 C202 1.554 . S
C1013 C137 1.584 . S
C1018 C228 1.554 . S
C1043 C250 1.554 . S
C1048 C163 1.584 . S
C1073 C183 1.584 . S
C1078 C92 1.554 . S
C1103 C205 1.584 . S
C1108 C118 1.554 . S
C1133 C140 1.554 . S
C1138 C226 1.584 . S
C1163 C248 1.584 . S
C1168 C158 1.554 . S
C1193 C271 1.584 . S
C1198 C4 1.554 . S
C1223 C292 1.584 . S
C1228 C26 1.554 . S
C1253 C52 1.554 . S
C1258 C314 1.584 . S
C1283 C74 1.554 . S
C1288 C337 1.584 . S
C1313 C8 1.411 . S
C1318 C207 1.344 . S
C1343 C225 1.344 . S
C1348 C30 1.410 . S
C1373 C48 1.410 . S
C1378 C247 1.344 . S
C1403 C70 1.411 . S
C1408 C185 1.344 . S
C1433 C96 1.411 . S
C1438 C339 1.344 . S
C1463 C114 1.410 . S
C1468 C273 1.344 . S
C1493 C136 1.410 . S
C1498 C291 1.344 . S
C1523 C313 1.344 . S
C1528 C162 1.411 . S
C1553 C29 1.344 . S
C1558 C184 1.411 . S
C1583 C50 1.344 . S
C1588 C206 1.410 . S
C1613 C224 1.410 . S
C1618 C72 1.344 . S
C1643 C246 1.411 . S
C1648 C7 1.344 . S
C1673 C161 1.344 . S
C1678 C272 1.411 . S
C1703 C95 1.344 . S
C1708 C290 1.410 . S
C1733 C116 1.344 . S
C1738 C312 1.410 . S
C1763 C138 1.344 . S
C1768 C338 1.411 . S
