# Generated by pormake.
# Topology uop, (4)-cn, num edge types: 1
# Building blocks:
#     Node 0, Type 0, BuildingBlock: ICAMEG_clean_sbu_1, # of connection points: 4
#     Node 1, Type 0, BuildingBlock: ICAMEG_clean_sbu_1, # of connection points: 4
#     Node 2, Type 0, BuildingBlock: ICAMEG_clean_sbu_1, # of connection points: 4
#     Node 3, Type 0, BuildingBlock: ICAMEG_clean_sbu_1, # of connection points: 4
#     Node 4, Type 0, BuildingBlock: ICAMEG_clean_sbu_1, # of connection points: 4
#     Node 5, Type 0, BuildingBlock: ICAMEG_clean_sbu_1, # of connection points: 4
#     Node 6, Type 0, BuildingBlock: ICAMEG_clean_sbu_1, # of connection points: 4
#     Node 7, Type 0, BuildingBlock: ICAMEG_clean_sbu_1, # of connection points: 4
#     Node 8, Type 0, BuildingBlock: ICAMEG_clean_sbu_1, # of connection points: 4
#     Node 9, Type 0, BuildingBlock: ICAMEG_clean_sbu_1, # of connection points: 4
#     Node 10, Type 0, BuildingBlock: ICAMEG_clean_sbu_1, # of connection points: 4
#     Node 11, Type 0, BuildingBlock: ICAMEG_clean_sbu_1, # of connection points: 4
#     Edge 12, Type (0, 0), BuildingBlock: XIVTED_clean_linker_0, # of connection points: 2
#     Edge 13, Type (0, 0), BuildingBlock: XIVTED_clean_linker_0, # of connection points: 2
#     Edge 14, Type (0, 0), BuildingBlock: XIVTED_clean_linker_0, # of connection points: 2
#     Edge 15, Type (0, 0), BuildingBlock: XIVTED_clean_linker_0, # of connection points: 2
#     Edge 16, Type (0, 0), BuildingBlock: XIVTED_clean_linker_0, # of connection points: 2
#     Edge 17, Type (0, 0), BuildingBlock: XIVTED_clean_linker_0, # of connection points: 2
#     Edge 18, Type (0, 0), BuildingBlock: XIVTED_clean_linker_0, # of connection points: 2
#     Edge 19, Type (0, 0), BuildingBlock: XIVTED_clean_linker_0, # of connection points: 2
#     Edge 20, Type (0, 0), BuildingBlock: XIVTED_clean_linker_0, # of connection points: 2
#     Edge 21, Type (0, 0), BuildingBlock: XIVTED_clean_linker_0, # of connection points: 2
#     Edge 22, Type (0, 0), BuildingBlock: XIVTED_clean_linker_0, # of connection points: 2
#     Edge 23, Type (0, 0), BuildingBlock: XIVTED_clean_linker_0, # of connection points: 2
#     Edge 24, Type (0, 0), BuildingBlock: XIVTED_clean_linker_0, # of connection points: 2
#     Edge 25, Type (0, 0), BuildingBlock: XIVTED_clean_linker_0, # of connection points: 2
#     Edge 26, Type (0, 0), BuildingBlock: XIVTED_clean_linker_0, # of connection points: 2
#     Edge 27, Type (0, 0), BuildingBlock: XIVTED_clean_linker_0, # of connection points: 2
#     Edge 28, Type (0, 0), BuildingBlock: XIVTED_clean_linker_0, # of connection points: 2
#     Edge 29, Type (0, 0), BuildingBlock: XIVTED_clean_linker_0, # of connection points: 2
#     Edge 30, Type (0, 0), BuildingBlock: XIVTED_clean_linker_0, # of connection points: 2
#     Edge 31, Type (0, 0), BuildingBlock: XIVTED_clean_linker_0, # of connection points: 2
#     Edge 32, Type (0, 0), BuildingBlock: XIVTED_clean_linker_0, # of connection points: 2
#     Edge 33, Type (0, 0), BuildingBlock: XIVTED_clean_linker_0, # of connection points: 2
#     Edge 34, Type (0, 0), BuildingBlock: XIVTED_clean_linker_0, # of connection points: 2
#     Edge 35, Type (0, 0), BuildingBlock: XIVTED_clean_linker_0, # of connection points: 2
# Relax obj value: 0.105
# Max RMSD: 0.102
# Mean RMSD: 0.102
data_MOF--net-uop--node1-ICAMEG_clean_sbu_1--edge1-XIVTED_clean_linker_0
_symmetry_space_group_name_H-M    P1
_symmetry_Int_Tables_number       1
_symmetry_cell_setting            triclinic
loop_
_symmetry_equiv_pos_as_xyz
'x, y, z'
_cell_length_a     35.585146
_cell_length_b     35.633604
_cell_length_c     43.825103
_cell_angle_alpha  89.998327
_cell_angle_beta   90.004681
_cell_angle_gamma 120.01203
loop_
_atom_site_label
_atom_site_type_symbol
_atom_site_fract_x
_atom_site_fract_y
_atom_site_fract_z
_atom_type_partial_charge
Co0 Co 0.25554 0.44024 0.2442 0.0
Co1 Co 0.24009 0.36811 0.1862 0.0
O2 O 0.23043 0.4119 0.20552 0.0
C3 C 0.28547 0.51118 0.20002 0.0
O4 O 0.29478 0.4877 0.18183 0.0
C5 C 0.14586 0.32535 0.19613 0.0
O6 O 0.15547 0.33976 0.22423 0.0
O7 O 0.23064 0.33613 0.22528 0.0
O8 O 0.24265 0.38412 0.26268 0.0
H9 H 0.30386 0.2708 0.17588 0.0
H10 H 0.18752 0.45239 0.21455 0.0
O11 O 0.26906 0.49698 0.22621 0.0
H12 H 0.1278 0.38848 0.31519 0.0
H13 H 0.28464 0.54698 0.3288 0.0
H14 H 0.31318 0.43365 0.29008 0.0
H15 H 0.20118 0.4046 0.30012 0.0
H16 H 0.25221 0.5094 0.28034 0.0
O17 O 0.17614 0.33318 0.17718 0.0
H18 H 0.29252 0.32669 0.20037 0.0
H19 H 0.20533 0.31487 0.1299 0.0
H20 H 0.34595 0.4701 0.33879 0.0
H21 H 0.11411 0.43711 0.22876 0.0
H22 H 0.33176 0.52725 0.35842 0.0
H23 H 0.08374 0.40477 0.27937 0.0
O24 O 0.31402 0.45149 0.23163 0.0
H25 H 0.206 0.44613 0.10492 0.0
H26 H 0.30819 0.39873 0.13799 0.0
H27 H 0.32222 0.44024 0.0902 0.0
H28 H 0.2709 0.46423 0.07339 0.0
H29 H 0.19336 0.4048 0.15265 0.0
H30 H 0.21545 0.25858 0.10473 0.0
H31 H 0.26515 0.23634 0.1277 0.0
O32 O 0.30392 0.40253 0.19531 0.0
C33 C 0.2334 0.34657 0.25337 0.0
C34 C 0.28224 0.28032 0.16559 0.0
C35 C 0.23256 0.27342 0.12569 0.0
N36 N 0.2486 0.32426 0.16643 0.0
C37 C 0.2758 0.31205 0.1793 0.0
C38 C 0.2269 0.30523 0.14006 0.0
C39 C 0.26047 0.26097 0.13858 0.0
C40 C 0.17466 0.43866 0.23671 0.0
N41 N 0.19863 0.42947 0.25651 0.0
C42 C 0.13302 0.42994 0.24459 0.0
C43 C 0.11598 0.41174 0.27297 0.0
C44 C 0.14067 0.40256 0.29307 0.0
C45 C 0.18215 0.41165 0.28439 0.0
C46 C 0.291 0.52208 0.32051 0.0
C47 C 0.30662 0.45827 0.29861 0.0
C48 C 0.27281 0.50076 0.29306 0.0
N49 N 0.28054 0.46914 0.28254 0.0
C50 C 0.32537 0.47889 0.32614 0.0
C51 C 0.31742 0.51098 0.33713 0.0
C52 C 0.32826 0.43408 0.21291 0.0
C53 C 0.22852 0.43574 0.11196 0.0
C54 C 0.28572 0.40907 0.13083 0.0
C55 C 0.2938 0.43251 0.10373 0.0
C56 C 0.26498 0.44594 0.0943 0.0
N57 N 0.24987 0.39915 0.148 0.0
C58 C 0.22143 0.41216 0.13889 0.0
Co59 Co 0.82538 0.27309 0.57412 0.0
Co60 Co 0.88468 0.25483 0.51957 0.0
O61 O 0.83013 0.24522 0.53721 0.0
C62 C 0.78196 0.2966 0.52699 0.0
O63 O 0.81432 0.30477 0.50863 0.0
C64 C 0.83517 0.16144 0.53271 0.0
O65 O 0.82891 0.1724 0.56002 0.0
O66 O 0.90654 0.24889 0.56003 0.0
O67 O 0.86951 0.2636 0.59505 0.0
H68 H 0.04656 0.32102 0.51265 0.0
H69 H 0.74694 0.20073 0.54584 0.0
O70 O 0.78101 0.28306 0.55398 0.0
H71 H 0.75119 0.15211 0.65048 0.0
H72 H 0.74459 0.30782 0.65318 0.0
H73 H 0.88828 0.33639 0.61823 0.0
H74 H 0.80699 0.22464 0.63288 0.0
H75 H 0.75127 0.27041 0.60791 0.0
O76 O 0.85745 0.19067 0.51309 0.0
H77 H 0.97796 0.3098 0.53481 0.0
H78 H 0.90607 0.21726 0.46615 0.0
H79 H 0.88307 0.37424 0.66379 0.0
H80 H 0.69024 0.12805 0.56254 0.0
H81 H 0.81082 0.36019 0.68144 0.0
H82 H 0.69226 0.10326 0.61517 0.0
O83 O 0.8714 0.3308 0.55948 0.0
H84 H 0.77453 0.2116 0.43554 0.0
H85 H 0.92221 0.31926 0.46905 0.0
H86 H 0.8955 0.32834 0.41922 0.0
H87 H 0.82118 0.27422 0.40216 0.0
H88 H 0.80241 0.20395 0.4853 0.0
H89 H 0.97388 0.2272 0.44336 0.0
H90 H 0.04477 0.27953 0.46658 0.0
O91 O 0.91246 0.31895 0.52607 0.0
C92 C 0.89823 0.25393 0.58753 0.0
C93 C 0.01589 0.29826 0.50225 0.0
C94 C 0.97509 0.24555 0.46339 0.0
N95 N 0.93813 0.26324 0.5016 0.0
C96 C 0.97696 0.29188 0.51463 0.0
C97 C 0.93681 0.24 0.47641 0.0
C98 C 0.01486 0.27493 0.47642 0.0
C99 C 0.74784 0.19028 0.56885 0.0
N100 N 0.78026 0.21687 0.58837 0.0
C101 C 0.71572 0.14905 0.57814 0.0
C102 C 0.71691 0.13514 0.60767 0.0
C103 C 0.74999 0.16252 0.62748 0.0
C104 C 0.78159 0.2035 0.61737 0.0
C105 C 0.77625 0.31418 0.64574 0.0
C106 C 0.8567 0.32977 0.62598 0.0
C107 C 0.78024 0.29314 0.6201 0.0
N108 N 0.82011 0.301 0.61058 0.0
C109 C 0.85396 0.35141 0.65172 0.0
C110 C 0.81342 0.34354 0.6616 0.0
C111 C 0.9037 0.3441 0.54142 0.0
C112 C 0.80702 0.23533 0.44268 0.0
C113 C 0.88979 0.29563 0.46182 0.0
C114 C 0.87488 0.3009 0.43355 0.0
C115 C 0.83319 0.27051 0.42399 0.0
N116 N 0.86396 0.26099 0.48 0.0
C117 C 0.82304 0.23107 0.47078 0.0
Co118 Co 0.56825 0.82286 0.90823 0.0
Co119 Co 0.63416 0.87678 0.84667 0.0
O120 O 0.59443 0.82427 0.86898 0.0
C121 C 0.49453 0.77381 0.86726 0.0
O122 O 0.51508 0.80523 0.84746 0.0
C123 C 0.6831 0.8321 0.85841 0.0
O124 O 0.67057 0.82979 0.88683 0.0
O125 O 0.66835 0.90525 0.88412 0.0
O126 O 0.62448 0.87036 0.9238 0.0
H127 H 0.72103 0.03714 0.82734 0.0
H128 H 0.55983 0.74239 0.88192 0.0
O129 O 0.51135 0.77528 0.89317 0.0
H130 H 0.63316 0.76129 0.98089 0.0
H131 H 0.47017 0.7491 0.99788 0.0
H132 H 0.57363 0.8895 0.95131 0.0
H133 H 0.61058 0.81313 0.96408 0.0
H134 H 0.50495 0.75191 0.94856 0.0
O135 O 0.67208 0.85089 0.83848 0.0
H136 H 0.67041 0.97122 0.8558 0.0
H137 H 0.68386 0.89253 0.78889 0.0
H138 H 0.53991 0.88819 0.00079 0.0
H139 H 0.58153 0.68956 0.89792 0.0
H140 H 0.48775 0.8176 0.02438 0.0
H141 H 0.61866 0.69897 0.94768 0.0
O142 O 0.55212 0.866 0.89409 0.0
H143 H 0.55659 0.75477 0.77185 0.0
H144 H 0.59568 0.90475 0.79749 0.0
H145 H 0.55139 0.87 0.75173 0.0
H146 H 0.53158 0.79448 0.73867 0.0
H147 H 0.60056 0.79063 0.8175 0.0
H148 H 0.73489 0.95762 0.75979 0.0
H149 H 0.75364 0.03056 0.77895 0.0
O150 O 0.59669 0.90297 0.85507 0.0
C151 C 0.6603 0.89971 0.91263 0.0
C152 C 0.71301 0.00554 0.8187 0.0
C153 C 0.72084 0.96091 0.78081 0.0
N154 N 0.67396 0.92811 0.82388 0.0
C155 C 0.68427 0.9681 0.83467 0.0
C156 C 0.69201 0.92419 0.79741 0.0
C157 C 0.73133 0.00182 0.79157 0.0
C158 C 0.57562 0.74647 0.90373 0.0
N159 N 0.58389 0.78077 0.92207 0.0
C160 C 0.58798 0.71655 0.91262 0.0
C161 C 0.60885 0.72188 0.94052 0.0
C162 C 0.61703 0.75686 0.95915 0.0
C163 C 0.60429 0.78617 0.94949 0.0
C164 C 0.49291 0.78005 0.98786 0.0
C165 C 0.55119 0.85866 0.96155 0.0
C166 C 0.51263 0.78185 0.95992 0.0
N167 N 0.54154 0.82083 0.94722 0.0
C168 C 0.5321 0.85812 0.98952 0.0
C169 C 0.5028 0.8185 0.00272 0.0
C170 C 0.5661 0.89556 0.87372 0.0
C171 C 0.56513 0.78774 0.77726 0.0
C172 C 0.58717 0.87187 0.79195 0.0
C173 C 0.56214 0.85239 0.766 0.0
C174 C 0.55105 0.81002 0.75867 0.0
N175 N 0.60089 0.84983 0.81005 0.0
C176 C 0.59018 0.80829 0.803 0.0
Co177 Co 0.72228 0.55022 0.2483 0.0
Co178 Co 0.73995 0.62445 0.19132 0.0
O179 O 0.74833 0.57941 0.20997 0.0
C180 C 0.69164 0.48036 0.20315 0.0
O181 O 0.68313 0.50473 0.18529 0.0
C182 C 0.83421 0.66577 0.2012 0.0
O183 O 0.82467 0.65032 0.22905 0.0
O184 O 0.7501 0.65555 0.23082 0.0
O185 O 0.73633 0.60626 0.2676 0.0
H186 H 0.6797 0.725 0.18326 0.0
H187 H 0.7896 0.53723 0.21838 0.0
O188 O 0.7078 0.49365 0.22953 0.0
H189 H 0.8485 0.59686 0.32008 0.0
H190 H 0.68894 0.43987 0.33105 0.0
H191 H 0.66492 0.55703 0.2943 0.0
H192 H 0.77595 0.58301 0.30478 0.0
H193 H 0.72321 0.47899 0.28341 0.0
O194 O 0.80392 0.65865 0.18245 0.0
H195 H 0.68942 0.66747 0.20669 0.0
H196 H 0.77551 0.67879 0.13555 0.0
H197 H 0.63033 0.51905 0.34222 0.0
H198 H 0.86216 0.55021 0.23282 0.0
H199 H 0.64219 0.45992 0.36083 0.0
H200 H 0.89212 0.58039 0.28396 0.0
O201 O 0.66439 0.54053 0.23561 0.0
H202 H 0.77224 0.5469 0.10868 0.0
H203 H 0.67219 0.59638 0.14296 0.0
H204 H 0.65766 0.55599 0.0946 0.0
H205 H 0.7079 0.53097 0.07718 0.0
H206 H 0.78539 0.58713 0.15698 0.0
H207 H 0.767 0.73669 0.11144 0.0
H208 H 0.71867 0.76003 0.13527 0.0
O209 O 0.67604 0.59093 0.20013 0.0
C210 C 0.74699 0.64441 0.25876 0.0
C211 C 0.70072 0.715 0.17259 0.0
C212 C 0.74977 0.72161 0.1323 0.0
N213 N 0.73266 0.66953 0.17233 0.0
C214 C 0.70623 0.68235 0.18569 0.0
C215 C 0.75452 0.68887 0.14608 0.0
C216 C 0.72263 0.73467 0.14568 0.0
C217 C 0.80228 0.55004 0.24076 0.0
N218 N 0.77856 0.55932 0.26073 0.0
C219 C 0.84344 0.55747 0.24877 0.0
C220 C 0.86026 0.57445 0.27746 0.0
C221 C 0.83582 0.58373 0.29772 0.0
C222 C 0.79481 0.57595 0.28891 0.0
C223 C 0.68358 0.46562 0.3232 0.0
C224 C 0.67052 0.53159 0.30241 0.0
C225 C 0.70284 0.48783 0.29622 0.0
N226 N 0.69631 0.52047 0.28623 0.0
C227 C 0.65074 0.5101 0.32949 0.0
C228 C 0.65737 0.4769 0.33991 0.0
C229 C 0.65098 0.55899 0.21717 0.0
C230 C 0.75019 0.55775 0.11598 0.0
C231 C 0.69419 0.58557 0.13554 0.0
C232 C 0.68583 0.56278 0.10811 0.0
C233 C 0.71405 0.54877 0.09834 0.0
N234 N 0.72973 0.59429 0.15269 0.0
C235 C 0.75757 0.5807 0.14325 0.0
Co236 Co 0.17589 0.73894 0.57068 0.0
Co237 Co 0.12019 0.75369 0.51155 0.0
O238 O 0.17344 0.765 0.53227 0.0
C239 C 0.22325 0.71474 0.52752 0.0
O240 O 0.19179 0.70515 0.50795 0.0
C241 C 0.16708 0.8471 0.52422 0.0
O242 O 0.17047 0.8363 0.55228 0.0
O243 O 0.09381 0.75923 0.55017 0.0
O244 O 0.12956 0.748 0.58818 0.0
H245 H 0.959 0.6833 0.49609 0.0
H246 H 0.25589 0.81108 0.54382 0.0
O247 O 0.22235 0.72927 0.55385 0.0
H248 H 0.24208 0.86318 0.64514 0.0
H249 H 0.25189 0.71061 0.65694 0.0
H250 H 0.11027 0.67684 0.61399 0.0
H251 H 0.18872 0.78952 0.62782 0.0
H252 H 0.2479 0.74451 0.60888 0.0
O253 O 0.14686 0.8177 0.50424 0.0
H254 H 0.02584 0.69672 0.52248 0.0
H255 H 0.10281 0.78959 0.4554 0.0
H256 H 0.11277 0.64249 0.66226 0.0
H257 H 0.31022 0.88487 0.56028 0.0
H258 H 0.18398 0.6593 0.68401 0.0
H259 H 0.30338 0.91141 0.61123 0.0
O260 O 0.13157 0.68034 0.55615 0.0
H261 H 0.23843 0.79797 0.43346 0.0
H262 H 0.08878 0.68833 0.46151 0.0
H263 H 0.12078 0.67919 0.41412 0.0
H264 H 0.19612 0.7343 0.39983 0.0
H265 H 0.2053 0.80567 0.48073 0.0
H266 H 0.0368 0.77746 0.42837 0.0
H267 H 0.96426 0.72385 0.44866 0.0
O268 O 0.09321 0.68982 0.51904 0.0
C269 C 0.10031 0.75559 0.57835 0.0
C270 C 0.99042 0.70664 0.48696 0.0
C271 C 0.03409 0.75953 0.44898 0.0
N272 N 0.06813 0.74362 0.49035 0.0
C273 C 0.02837 0.71426 0.50175 0.0
C274 C 0.07134 0.76633 0.46441 0.0
C275 C 0.9934 0.72943 0.46037 0.0
C276 C 0.25293 0.82228 0.56612 0.0
N277 N 0.21919 0.79603 0.58485 0.0
C278 C 0.28369 0.86414 0.57528 0.0
C279 C 0.2798 0.87903 0.60385 0.0
C280 C 0.2454 0.852 0.62287 0.0
C281 C 0.2152 0.81037 0.61293 0.0
C282 C 0.22067 0.70309 0.64772 0.0
C283 C 0.14138 0.68455 0.62345 0.0
C284 C 0.21821 0.72211 0.62049 0.0
N285 N 0.17889 0.71291 0.60879 0.0
C286 C 0.14259 0.66491 0.65073 0.0
C287 C 0.18255 0.67432 0.6629 0.0
C288 C 0.10098 0.66577 0.53651 0.0
C289 C 0.20553 0.77381 0.43939 0.0
C290 C 0.12161 0.71241 0.45545 0.0
C291 C 0.13953 0.7071 0.42857 0.0
C292 C 0.18179 0.73804 0.42056 0.0
N293 N 0.14507 0.74762 0.47378 0.0
C294 C 0.18653 0.77809 0.46607 0.0
Co295 Co 0.44586 0.16703 0.91227 0.0
Co296 Co 0.37406 0.11551 0.85292 0.0
O297 O 0.41804 0.1672 0.87401 0.0
C298 C 0.51746 0.21066 0.86873 0.0
O299 O 0.49398 0.17907 0.84966 0.0
C300 C 0.33145 0.1663 0.8659 0.0
O301 O 0.34636 0.16999 0.89378 0.0
O302 O 0.34147 0.09041 0.89142 0.0
O303 O 0.38901 0.12314 0.92975 0.0
H304 H 0.27508 0.95572 0.83703 0.0
H305 H 0.45933 0.24957 0.88609 0.0
O306 O 0.50315 0.21108 0.89525 0.0
H307 H 0.39614 0.23939 0.98799 0.0
H308 H 0.55353 0.23665 0.99776 0.0
H309 H 0.43751 0.09899 0.95521 0.0
H310 H 0.41108 0.18261 0.96986 0.0
H311 H 0.51579 0.236 0.95035 0.0
O312 O 0.33952 0.14529 0.84589 0.0
H313 H 0.33119 0.02075 0.86363 0.0
H314 H 0.32186 0.10176 0.7966 0.0
H315 H 0.47408 0.09818 0.00285 0.0
H316 H 0.4453 0.30732 0.90338 0.0
H317 H 0.53267 0.16737 0.02435 0.0
H318 H 0.41331 0.30233 0.95462 0.0
O319 O 0.45624 0.12022 0.89735 0.0
H320 H 0.45414 0.23361 0.77583 0.0
H321 H 0.40482 0.08144 0.80246 0.0
H322 H 0.44721 0.11247 0.75539 0.0
H323 H 0.47218 0.18908 0.74182 0.0
H324 H 0.4119 0.20137 0.82277 0.0
H325 H 0.2654 0.03763 0.76936 0.0
H326 H 0.24179 0.96397 0.78952 0.0
O327 O 0.40773 0.08501 0.85998 0.0
C328 C 0.35138 0.09606 0.91967 0.0
C329 C 0.28521 0.98764 0.82795 0.0
C330 C 0.27973 0.03362 0.79 0.0
N331 N 0.33006 0.06493 0.8315 0.0
C332 C 0.31707 0.02456 0.84286 0.0
C333 C 0.31165 0.0698 0.80553 0.0
C334 C 0.26651 0.99229 0.80131 0.0
C335 C 0.44572 0.24736 0.90851 0.0
N336 N 0.43602 0.21276 0.92695 0.0
C337 C 0.43771 0.28008 0.91814 0.0
C338 C 0.41972 0.27723 0.94688 0.0
C339 C 0.41004 0.24191 0.9656 0.0
C340 C 0.41843 0.20978 0.95518 0.0
C341 C 0.52801 0.2063 0.98864 0.0
C342 C 0.46268 0.12926 0.96461 0.0
C343 C 0.50658 0.20572 0.96178 0.0
N344 N 0.47428 0.16752 0.95017 0.0
C345 C 0.48338 0.12859 0.99152 0.0
C346 C 0.51627 0.16742 0.00356 0.0
C347 C 0.43876 0.09024 0.87741 0.0
C348 C 0.44333 0.20015 0.78144 0.0
C349 C 0.41557 0.11481 0.79671 0.0
C350 C 0.43952 0.13218 0.77001 0.0
C351 C 0.45349 0.17517 0.7624 0.0
N352 N 0.40571 0.13952 0.81525 0.0
C353 C 0.41924 0.18167 0.80793 0.0
Co354 Co 0.56655 0.73934 0.42731 0.0
Co355 Co 0.63422 0.75268 0.48807 0.0
O356 O 0.59288 0.76406 0.46656 0.0
C357 C 0.49275 0.71241 0.4688 0.0
O358 O 0.51393 0.70213 0.48849 0.0
C359 C 0.68063 0.84645 0.47711 0.0
O360 O 0.66738 0.83649 0.44879 0.0
O361 O 0.66832 0.76029 0.45023 0.0
O362 O 0.62323 0.75012 0.4111 0.0
H363 H 0.72597 0.68373 0.50477 0.0
H364 H 0.55594 0.80951 0.45472 0.0
O365 O 0.50925 0.72811 0.4429 0.0
H366 H 0.62669 0.86651 0.35534 0.0
H367 H 0.4664 0.71315 0.33861 0.0
H368 H 0.57361 0.67993 0.38338 0.0
H369 H 0.60674 0.79253 0.37152 0.0
H370 H 0.50134 0.74517 0.38786 0.0
O371 O 0.67064 0.81647 0.49673 0.0
H372 H 0.67341 0.69735 0.47735 0.0
H373 H 0.68428 0.78668 0.54572 0.0
H374 H 0.53976 0.64751 0.33394 0.0
H375 H 0.57497 0.88356 0.43936 0.0
H376 H 0.4857 0.66406 0.31125 0.0
H377 H 0.61079 0.91257 0.3894 0.0
O378 O 0.55237 0.68039 0.4409 0.0
H379 H 0.55481 0.7922 0.56481 0.0
H380 H 0.5982 0.68522 0.53669 0.0
H381 H 0.55419 0.67349 0.58297 0.0
H382 H 0.53222 0.72723 0.59729 0.0
H383 H 0.59855 0.8025 0.51862 0.0
H384 H 0.73723 0.77431 0.5738 0.0
H385 H 0.75826 0.72238 0.55338 0.0
O386 O 0.59842 0.68907 0.47916 0.0
C387 C 0.65972 0.75788 0.42182 0.0
C388 C 0.71695 0.70632 0.51396 0.0
C389 C 0.72332 0.75721 0.55268 0.0
N390 N 0.67553 0.74247 0.51007 0.0
C391 C 0.68711 0.71405 0.49858 0.0
C392 C 0.6934 0.76415 0.53665 0.0
C393 C 0.73509 0.72805 0.54122 0.0
C394 C 0.57119 0.82179 0.43283 0.0
N395 N 0.58022 0.79674 0.41402 0.0
C396 C 0.58202 0.86379 0.42431 0.0
C397 C 0.60217 0.88006 0.39629 0.0
C398 C 0.61114 0.85426 0.37718 0.0
C399 C 0.5999 0.81244 0.38649 0.0
C400 C 0.48996 0.70575 0.34823 0.0
C401 C 0.55034 0.68751 0.37354 0.0
C402 C 0.50977 0.72371 0.37614 0.0
N403 N 0.53972 0.71467 0.38834 0.0
C404 C 0.53118 0.66896 0.34559 0.0
C405 C 0.50082 0.67823 0.33289 0.0
C406 C 0.56773 0.66542 0.46073 0.0
C407 C 0.56429 0.76862 0.55886 0.0
C408 C 0.58873 0.70873 0.54277 0.0
C409 C 0.56387 0.70195 0.56902 0.0
C410 C 0.55158 0.73213 0.57705 0.0
N411 N 0.60112 0.74463 0.52507 0.0
C412 C 0.58922 0.77437 0.53281 0.0
Co413 Co 0.82566 0.54851 0.75616 0.0
Co414 Co 0.88302 0.62496 0.81177 0.0
O415 O 0.82915 0.58016 0.79331 0.0
C416 C 0.78258 0.48079 0.80265 0.0
O417 O 0.81492 0.50506 0.82099 0.0
C418 C 0.83307 0.66844 0.7985 0.0
O419 O 0.82733 0.65162 0.7711 0.0
O420 O 0.90565 0.65371 0.77171 0.0
O421 O 0.86976 0.60284 0.73593 0.0
H422 H 0.04452 0.72167 0.82075 0.0
H423 H 0.74598 0.54049 0.78381 0.0
O424 O 0.78142 0.49354 0.77573 0.0
H425 H 0.75183 0.59562 0.67968 0.0
H426 H 0.74756 0.43433 0.67582 0.0
H427 H 0.88988 0.55003 0.71237 0.0
H428 H 0.80804 0.57961 0.69757 0.0
H429 H 0.75277 0.47718 0.72149 0.0
O430 O 0.85512 0.66133 0.81825 0.0
H431 H 0.97674 0.66441 0.7976 0.0
H432 H 0.90253 0.68251 0.86581 0.0
H433 H 0.88615 0.50823 0.66643 0.0
H434 H 0.68886 0.55573 0.7668 0.0
H435 H 0.8146 0.44975 0.64798 0.0
H436 H 0.69168 0.58367 0.71442 0.0
O437 O 0.87195 0.53728 0.77097 0.0
H438 H 0.77071 0.55501 0.89414 0.0
H439 H 0.91976 0.59744 0.86248 0.0
H440 H 0.89191 0.56016 0.91171 0.0
H441 H 0.81688 0.53871 0.92782 0.0
H442 H 0.79975 0.59206 0.845 0.0
H443 H 0.96949 0.74023 0.8896 0.0
H444 H 0.04113 0.76001 0.86709 0.0
O445 O 0.91156 0.58927 0.80531 0.0
C446 C 0.89806 0.6411 0.74402 0.0
C447 C 0.01351 0.71323 0.83084 0.0
C448 C 0.97139 0.72369 0.86945 0.0
N449 N 0.9358 0.66987 0.83053 0.0
C450 C 0.97505 0.68073 0.81789 0.0
C451 C 0.9336 0.69104 0.85587 0.0
C452 C 0.01158 0.73476 0.85682 0.0
C453 C 0.74723 0.55232 0.7609 0.0
N454 N 0.7803 0.55915 0.74169 0.0
C455 C 0.71488 0.56102 0.75144 0.0
C456 C 0.71651 0.57675 0.72206 0.0
C457 C 0.75027 0.5835 0.70256 0.0
C458 C 0.78209 0.5745 0.71284 0.0
C459 C 0.77892 0.45976 0.68361 0.0
C460 C 0.8586 0.52495 0.70427 0.0
C461 C 0.78207 0.48409 0.70948 0.0
N462 N 0.82157 0.51627 0.71944 0.0
C463 C 0.8567 0.50128 0.67832 0.0
C464 C 0.81655 0.46845 0.66799 0.0
C465 C 0.90366 0.55596 0.78953 0.0
C466 C 0.8035 0.5643 0.88741 0.0
C467 C 0.88706 0.58815 0.86931 0.0
C468 C 0.87149 0.56712 0.89724 0.0
C469 C 0.8294 0.55512 0.90627 0.0
N470 N 0.86147 0.59711 0.85096 0.0
C471 C 0.82018 0.58546 0.85967 0.0
Co472 Co 0.25555 0.81935 0.08948 0.0
Co473 Co 0.24168 0.87646 0.14795 0.0
O474 O 0.23111 0.82285 0.12838 0.0
C475 C 0.28545 0.77775 0.13317 0.0
O476 O 0.29531 0.81064 0.15138 0.0
C477 C 0.14733 0.82617 0.13834 0.0
O478 O 0.1566 0.82131 0.11016 0.0
O479 O 0.23236 0.89956 0.10908 0.0
O480 O 0.24307 0.86307 0.07136 0.0
H481 H 0.30746 0.03765 0.15887 0.0
H482 H 0.18736 0.7395 0.11927 0.0
O483 O 0.2687 0.77565 0.10713 0.0
H484 H 0.12684 0.74473 0.01917 0.0
H485 H 0.28247 0.74107 0.00418 0.0
H486 H 0.31307 0.88333 0.04345 0.0
H487 H 0.20062 0.80138 0.03394 0.0
H488 H 0.25092 0.74655 0.05297 0.0
O489 O 0.17786 0.84821 0.15723 0.0
H490 H 0.29501 0.97026 0.13402 0.0
H491 H 0.20794 0.89529 0.20462 0.0
H492 H 0.34498 0.87931 0.99443 0.0
H493 H 0.11356 0.68196 0.10535 0.0
H494 H 0.32974 0.80777 0.97452 0.0
H495 H 0.08279 0.68446 0.05501 0.0
O496 O 0.31438 0.86608 0.10178 0.0
H497 H 0.20679 0.76356 0.22873 0.0
H498 H 0.31023 0.91281 0.1959 0.0
H499 H 0.32414 0.88458 0.24338 0.0
H500 H 0.2722 0.80944 0.26007 0.0
H501 H 0.19429 0.79298 0.1813 0.0
H502 H 0.21919 0.96186 0.23016 0.0
H503 H 0.26939 0.03369 0.20732 0.0
O504 O 0.30539 0.90511 0.13855 0.0
C505 C 0.23458 0.8918 0.08092 0.0
C506 C 0.28563 0.00656 0.16911 0.0
C507 C 0.23603 0.96401 0.2091 0.0
N508 N 0.25108 0.92895 0.168 0.0
C509 C 0.27856 0.96831 0.15519 0.0
C510 C 0.22972 0.92644 0.19451 0.0
C511 C 0.26422 0.00431 0.19627 0.0
C512 C 0.17432 0.74059 0.09722 0.0
N513 N 0.19829 0.7737 0.07741 0.0
C514 C 0.13246 0.70801 0.08951 0.0
C515 C 0.1152 0.70947 0.06128 0.0
C516 C 0.13988 0.74329 0.04117 0.0
C517 C 0.18159 0.77534 0.04968 0.0
C518 C 0.28928 0.77241 0.01259 0.0
C519 C 0.30606 0.85206 0.03481 0.0
C520 C 0.27159 0.77572 0.04022 0.0
N521 N 0.27989 0.81519 0.0509 0.0
C522 C 0.32432 0.85 0.0071 0.0
C523 C 0.31579 0.80985 0.99595 0.0
C524 C 0.32921 0.8976 0.12061 0.0
C525 C 0.22959 0.7964 0.22175 0.0
C526 C 0.28749 0.88008 0.20301 0.0
C527 C 0.2955 0.86429 0.22994 0.0
C528 C 0.26633 0.82213 0.23929 0.0
N529 N 0.25136 0.85465 0.18594 0.0
C530 C 0.22258 0.8133 0.19498 0.0
Co531 Co 0.44369 0.2726 0.41612 0.0
Co532 Co 0.37422 0.25415 0.47674 0.0
O533 O 0.41693 0.24532 0.45478 0.0
C534 C 0.5166 0.2999 0.45834 0.0
O535 O 0.49411 0.3088 0.47779 0.0
C536 C 0.33006 0.16063 0.46418 0.0
O537 O 0.3439 0.17143 0.43605 0.0
O538 O 0.34045 0.2469 0.43884 0.0
O539 O 0.38658 0.26055 0.39972 0.0
H540 H 0.27809 0.3178 0.49503 0.0
H541 H 0.45646 0.20278 0.44172 0.0
O542 O 0.50126 0.28492 0.43205 0.0
H543 H 0.38922 0.14956 0.34086 0.0
H544 H 0.54747 0.30738 0.32846 0.0
H545 H 0.43507 0.33259 0.37365 0.0
H546 H 0.40627 0.22193 0.35898 0.0
H547 H 0.51149 0.27164 0.37664 0.0
O548 O 0.33915 0.19 0.48415 0.0
H549 H 0.33244 0.30737 0.46721 0.0
H550 H 0.32376 0.21685 0.53385 0.0
H551 H 0.46991 0.36867 0.32528 0.0
H552 H 0.44036 0.13034 0.42442 0.0
H553 H 0.52664 0.35622 0.30242 0.0
H554 H 0.40631 0.10323 0.3737 0.0
O555 O 0.45567 0.33031 0.43114 0.0
H556 H 0.45556 0.21507 0.55208 0.0
H557 H 0.40767 0.31951 0.52685 0.0
H558 H 0.45154 0.33068 0.57312 0.0
H559 H 0.47578 0.27822 0.58598 0.0
H560 H 0.4119 0.20529 0.50593 0.0
H561 H 0.26904 0.22602 0.5623 0.0
H562 H 0.24601 0.27695 0.54295 0.0
O563 O 0.40849 0.31818 0.46929 0.0
C564 C 0.34946 0.25076 0.41045 0.0
C565 C 0.28797 0.29564 0.50375 0.0
C566 C 0.28285 0.24408 0.54148 0.0
N567 N 0.33152 0.26185 0.49905 0.0
C568 C 0.31884 0.28971 0.48815 0.0
C569 C 0.31377 0.23896 0.52525 0.0
C570 C 0.26995 0.27267 0.53062 0.0
C571 C 0.44197 0.19133 0.41952 0.0
N572 N 0.43228 0.21653 0.40138 0.0
C573 C 0.43279 0.15024 0.40989 0.0
C574 C 0.41364 0.13502 0.38145 0.0
C575 C 0.40401 0.16098 0.36302 0.0
C576 C 0.41359 0.20187 0.37343 0.0
C577 C 0.52276 0.31301 0.33817 0.0
C578 C 0.45946 0.32673 0.36369 0.0
C579 C 0.50234 0.29294 0.36547 0.0
N580 N 0.471 0.2998 0.3778 0.0
C581 C 0.47918 0.34736 0.33636 0.0
C582 C 0.51103 0.3404 0.32356 0.0
C583 C 0.4392 0.34343 0.45145 0.0
C584 C 0.44507 0.23807 0.54677 0.0
C585 C 0.41811 0.29655 0.53229 0.0
C586 C 0.44289 0.30301 0.55854 0.0
C587 C 0.45646 0.27355 0.56575 0.0
N588 N 0.40704 0.26165 0.5138 0.0
C589 C 0.42018 0.2326 0.52074 0.0
Co590 Co 0.17656 0.43379 0.76329 0.0
Co591 Co 0.11914 0.36176 0.8212 0.0
O592 O 0.17298 0.40406 0.80133 0.0
C593 C 0.2237 0.50392 0.80758 0.0
O594 O 0.19201 0.48179 0.82692 0.0
C595 C 0.16593 0.31524 0.80813 0.0
O596 O 0.16973 0.33013 0.78026 0.0
O597 O 0.09357 0.3311 0.78204 0.0
O598 O 0.13042 0.37917 0.74485 0.0
H599 H 0.95755 0.27144 0.83465 0.0
H600 H 0.25556 0.43995 0.79073 0.0
O601 O 0.2229 0.48916 0.78102 0.0
H602 H 0.24377 0.37717 0.68849 0.0
H603 H 0.25511 0.54039 0.67872 0.0
H604 H 0.1122 0.4322 0.71961 0.0
H605 H 0.19047 0.39766 0.70572 0.0
H606 H 0.2497 0.50092 0.72628 0.0
O607 O 0.14542 0.32396 0.82819 0.0
H608 H 0.02512 0.32531 0.80928 0.0
H609 H 0.10016 0.3067 0.87655 0.0
H610 H 0.11611 0.47063 0.67183 0.0
H611 H 0.3098 0.42026 0.77437 0.0
H612 H 0.18797 0.52521 0.65112 0.0
H613 H 0.30396 0.38844 0.72296 0.0
O614 O 0.13224 0.44812 0.77777 0.0
H615 H 0.23546 0.4326 0.90096 0.0
H616 H 0.08679 0.39451 0.87143 0.0
H617 H 0.11771 0.43401 0.91953 0.0
H618 H 0.19255 0.45327 0.93457 0.0
H619 H 0.20341 0.39341 0.85296 0.0
H620 H 0.03339 0.25235 0.90255 0.0
H621 H 0.96145 0.23455 0.88165 0.0
O622 O 0.09264 0.39919 0.81397 0.0
C623 C 0.10082 0.34213 0.75403 0.0
C624 C 0.9887 0.27902 0.84404 0.0
C625 C 0.03127 0.26826 0.88212 0.0
N626 N 0.06649 0.31937 0.84157 0.0
C627 C 0.02706 0.30959 0.82983 0.0
C628 C 0.06895 0.29898 0.86727 0.0
C629 C 0.99091 0.2583 0.87039 0.0
C630 C 0.25303 0.42646 0.76823 0.0
N631 N 0.21989 0.41994 0.74919 0.0
C632 C 0.28375 0.41524 0.75913 0.0
C633 C 0.28042 0.39734 0.7303 0.0
C634 C 0.24663 0.39097 0.71096 0.0
C635 C 0.21647 0.4025 0.72086 0.0
C636 C 0.22361 0.51663 0.68749 0.0
C637 C 0.14359 0.45568 0.7106 0.0
C638 C 0.22035 0.49425 0.71444 0.0
N639 N 0.18068 0.46406 0.72556 0.0
C640 C 0.1456 0.47743 0.6836 0.0
C641 C 0.18593 0.50808 0.67201 0.0
C642 C 0.10111 0.43166 0.79698 0.0
C643 C 0.20277 0.42427 0.8947 0.0
C644 C 0.11941 0.40284 0.8778 0.0
C645 C 0.13671 0.42514 0.90509 0.0
C646 C 0.1787 0.43592 0.91352 0.0
N647 N 0.14319 0.39146 0.85949 0.0
C648 C 0.18437 0.40192 0.86761 0.0
Co649 Co 0.72221 0.17783 0.0817 0.0
Co650 Co 0.74027 0.1223 0.13926 0.0
O651 O 0.74872 0.17538 0.12002 0.0
C652 C 0.69235 0.21812 0.12651 0.0
O653 O 0.68381 0.1854 0.14454 0.0
C654 C 0.83449 0.17464 0.12887 0.0
O655 O 0.82474 0.17991 0.10091 0.0
O656 O 0.74988 0.10044 0.09999 0.0
O657 O 0.73563 0.1351 0.06281 0.0
H658 H 0.67965 0.96168 0.14896 0.0
H659 H 0.79023 0.25864 0.11061 0.0
O660 O 0.70831 0.22059 0.10011 0.0
H661 H 0.84753 0.2549 0.00889 0.0
H662 H 0.68781 0.25342 0.99849 0.0
H663 H 0.66385 0.11284 0.0365 0.0
H664 H 0.77506 0.19694 0.02496 0.0
H665 H 0.72308 0.24942 0.04588 0.0
O666 O 0.80433 0.15199 0.14784 0.0
H667 H 0.68934 0.02852 0.12485 0.0
H668 H 0.77625 0.10448 0.19524 0.0
H669 H 0.62823 0.11538 0.98885 0.0
H670 H 0.86274 0.31749 0.0954 0.0
H671 H 0.64 0.18605 0.96963 0.0
H672 H 0.89189 0.31575 0.04425 0.0
O673 O 0.66443 0.13022 0.09497 0.0
H674 H 0.77383 0.23399 0.22071 0.0
H675 H 0.67304 0.08391 0.18804 0.0
H676 H 0.65917 0.11094 0.23611 0.0
H677 H 0.70979 0.18648 0.25272 0.0
H678 H 0.78632 0.20574 0.1727 0.0
H679 H 0.76777 0.03849 0.22003 0.0
H680 H 0.71905 0.96644 0.19691 0.0
O681 O 0.67626 0.09197 0.13078 0.0
C682 C 0.7463 0.10773 0.07196 0.0
C683 C 0.70084 0.99286 0.15932 0.0
C684 C 0.75035 0.03598 0.19918 0.0
N685 N 0.73299 0.07027 0.1588 0.0
C686 C 0.70633 0.0308 0.14583 0.0
C687 C 0.75508 0.07323 0.18503 0.0
C688 C 0.72299 0.99557 0.1862 0.0
C689 C 0.80256 0.25786 0.08822 0.0
N690 N 0.77842 0.22444 0.06867 0.0
C691 C 0.84369 0.29118 0.07978 0.0
C692 C 0.86005 0.29016 0.05109 0.0
C693 C 0.83519 0.25601 0.03125 0.0
C694 C 0.79423 0.22322 0.04049 0.0
C695 C 0.68248 0.22244 0.00661 0.0
C696 C 0.66946 0.14375 0.0281 0.0
C697 C 0.70231 0.21997 0.03345 0.0
N698 N 0.69577 0.18096 0.0438 0.0
C699 C 0.64908 0.14497 0.00118 0.0
C700 C 0.65567 0.18463 0.99042 0.0
C701 C 0.65111 0.09872 0.11371 0.0
C702 C 0.75162 0.20097 0.21376 0.0
C703 C 0.6952 0.11683 0.19511 0.0
C704 C 0.68721 0.13193 0.22237 0.0
C705 C 0.71564 0.17432 0.23169 0.0
N706 N 0.73058 0.14316 0.17767 0.0
C707 C 0.75862 0.18474 0.18667 0.0
H708 H 0.30293 0.76121 0.19079 0.0
H709 H 0.30118 0.54406 0.14206 0.0
H710 H 0.28303 0.71324 0.09825 0.0
H711 H 0.28502 0.57429 0.23488 0.0
H712 H 0.30752 0.61258 0.1255 0.0
H713 H 0.30937 0.69904 0.20716 0.0
C714 C 0.30027 0.7378 0.1739 0.0
C715 C 0.29207 0.74209 0.14319 0.0
C716 C 0.30282 0.60424 0.1495 0.0
C717 C 0.29944 0.67123 0.16169 0.0
C718 C 0.29935 0.56528 0.15896 0.0
C719 C 0.2922 0.55341 0.18982 0.0
C720 C 0.29947 0.63152 0.17112 0.0
C721 C 0.29006 0.58203 0.2108 0.0
C722 C 0.30382 0.70232 0.18325 0.0
C723 C 0.28891 0.71088 0.12223 0.0
N724 N 0.29357 0.61976 0.20104 0.0
N725 N 0.2925 0.67665 0.13189 0.0
H726 H 0.72107 0.30054 0.56216 0.0
H727 H 0.576 0.29417 0.42203 0.0
H728 H 0.76057 0.3056 0.46837 0.0
H729 H 0.55295 0.31687 0.51518 0.0
H730 H 0.64366 0.29823 0.43813 0.0
H731 H 0.65914 0.30631 0.54502 0.0
C732 C 0.71675 0.30298 0.53791 0.0
C733 C 0.74582 0.30232 0.5166 0.0
C734 C 0.62396 0.30267 0.45498 0.0
C735 C 0.67482 0.30882 0.49683 0.0
C736 C 0.58529 0.30023 0.44585 0.0
C737 C 0.55873 0.30495 0.46737 0.0
C738 C 0.63587 0.30944 0.48587 0.0
C739 C 0.57242 0.313 0.49785 0.0
C740 C 0.68145 0.30646 0.52816 0.0
C741 C 0.73887 0.30599 0.48552 0.0
N742 N 0.60992 0.31465 0.50623 0.0
N743 N 0.70376 0.30871 0.47651 0.0
H744 H 0.43749 0.70981 0.90525 0.0
H745 H 0.28438 0.56518 0.77014 0.0
H746 H 0.45577 0.75169 0.81123 0.0
H747 H 0.24834 0.53776 0.86506 0.0
H748 H 0.34834 0.63285 0.78495 0.0
H749 H 0.36903 0.64572 0.89121 0.0
C750 C 0.42703 0.70558 0.88167 0.0
C751 C 0.45239 0.73598 0.85931 0.0
C752 C 0.32634 0.61222 0.80255 0.0
C753 C 0.37431 0.66278 0.84316 0.0
C754 C 0.28989 0.57348 0.79414 0.0
C755 C 0.26117 0.54576 0.81646 0.0
C756 C 0.33444 0.62314 0.83354 0.0
C757 C 0.2697 0.55828 0.84716 0.0
C758 C 0.38789 0.66909 0.87372 0.0
C759 C 0.4372 0.72905 0.82917 0.0
N760 N 0.30586 0.596 0.85485 0.0
N761 N 0.39924 0.69297 0.82194 0.0
H762 H 0.69082 0.41582 0.23703 0.0
H763 H 0.69284 0.28249 0.09251 0.0
H764 H 0.67705 0.44947 0.14466 0.0
H765 H 0.67647 0.23401 0.18474 0.0
H766 H 0.68628 0.34349 0.11105 0.0
H767 H 0.68471 0.34855 0.21832 0.0
C768 C 0.68627 0.40891 0.2128 0.0
C769 C 0.68476 0.43834 0.19229 0.0
C770 C 0.68373 0.31931 0.1272 0.0
C771 C 0.67796 0.3616 0.17077 0.0
C772 C 0.68764 0.28458 0.11666 0.0
C773 C 0.68551 0.25337 0.13719 0.0
C774 C 0.67815 0.3231 0.15852 0.0
C775 C 0.67837 0.25743 0.16816 0.0
C776 C 0.68262 0.37044 0.20217 0.0
C777 C 0.67844 0.42764 0.16122 0.0
N778 N 0.67536 0.29197 0.17795 0.0
N779 N 0.67571 0.39025 0.15133 0.0
H780 H 0.43419 0.71625 0.43068 0.0
H781 H 0.28443 0.71567 0.56541 0.0
H782 H 0.45512 0.69779 0.52524 0.0
H783 H 0.24677 0.70224 0.47058 0.0
H784 H 0.3478 0.71041 0.55109 0.0
H785 H 0.36599 0.7123 0.44474 0.0
C786 C 0.42433 0.71119 0.4544 0.0
C787 C 0.45042 0.70757 0.47689 0.0
C788 C 0.32554 0.70831 0.53343 0.0
C789 C 0.37256 0.70321 0.49309 0.0
C790 C 0.28945 0.7115 0.54155 0.0
C791 C 0.26046 0.70962 0.51909 0.0
C792 C 0.33299 0.7037 0.50259 0.0
C793 C 0.26835 0.70384 0.4886 0.0
C794 C 0.38532 0.70878 0.46238 0.0
C795 C 0.43595 0.70073 0.50721 0.0
N796 N 0.30415 0.70144 0.48119 0.0
N797 N 0.39809 0.69914 0.51448 0.0
H798 H 0.55156 0.22938 0.81115 0.0
H799 H 0.7638 0.44936 0.86107 0.0
H800 H 0.57889 0.27516 0.90423 0.0
H801 H 0.71993 0.41667 0.76787 0.0
H802 H 0.70179 0.38052 0.87763 0.0
H803 H 0.61932 0.29296 0.79523 0.0
C804 C 0.57198 0.25261 0.82827 0.0
C805 C 0.55949 0.2472 0.85901 0.0
C806 C 0.70592 0.38843 0.85355 0.0
C807 C 0.63682 0.31988 0.84099 0.0
C808 C 0.74131 0.42759 0.8441 0.0
C809 C 0.74677 0.4388 0.8131 0.0
C810 C 0.67615 0.36031 0.83179 0.0
C811 C 0.71671 0.40948 0.79205 0.0
C812 C 0.61054 0.28894 0.81916 0.0
C813 C 0.58714 0.2783 0.88023 0.0
N814 N 0.68264 0.37161 0.8018 0.0
N815 N 0.6245 0.31343 0.8708 0.0
H816 H 0.60767 0.6018 0.2015 0.0
H817 H 0.37266 0.39222 0.19772 0.0
H818 H 0.58639 0.47578 0.22741 0.0
H819 H 0.39203 0.51718 0.22463 0.0
H820 H 0.45172 0.42278 0.19749 0.0
H821 H 0.5287 0.57147 0.19898 0.0
C822 C 0.58642 0.56777 0.2065 0.0
C823 C 0.60357 0.54133 0.21489 0.0
C824 C 0.4385 0.44341 0.20335 0.0
C825 C 0.51362 0.50645 0.21146 0.0
C826 C 0.39352 0.4261 0.20335 0.0
C827 C 0.37579 0.45215 0.2114 0.0
C828 C 0.46589 0.48728 0.21065 0.0
C829 C 0.40435 0.49587 0.21857 0.0
C830 C 0.54149 0.55058 0.20516 0.0
C831 C 0.57453 0.49741 0.22115 0.0
N832 N 0.448 0.51216 0.21784 0.0
N833 N 0.53098 0.48126 0.2191 0.0
H834 H 0.12225 0.60365 0.54925 0.0
H835 H 0.88227 0.40724 0.54845 0.0
H836 H 0.0158 0.61969 0.51875 0.0
H837 H 0.99019 0.38867 0.52681 0.0
H838 H 0.93058 0.48577 0.54439 0.0
H839 H 0.07429 0.52485 0.54778 0.0
C840 C 0.08881 0.59058 0.54219 0.0
C841 C 0.07291 0.61822 0.53418 0.0
C842 C 0.94354 0.46442 0.54038 0.0
C843 C 0.01795 0.52836 0.53294 0.0
C844 C 0.91614 0.4197 0.54285 0.0
C845 C 0.93232 0.39144 0.53804 0.0
C846 C 0.98764 0.48103 0.53379 0.0
C847 C 0.97639 0.40931 0.53063 0.0
C848 C 0.06161 0.5457 0.54123 0.0
C849 C 0.02939 0.59955 0.52503 0.0
N850 N 0.0027 0.45306 0.5291 0.0
N851 N 0.00322 0.55573 0.52505 0.0
H852 H 0.39635 0.00655 0.85642 0.0
H853 H 0.48258 0.87207 0.88814 0.0
H854 H 0.52035 0.10576 0.8908 0.0
H855 H 0.60206 0.98004 0.855 0.0
H856 H 0.44902 0.91759 0.88661 0.0
H857 H 0.425 0.95674 0.85325 0.0
C858 C 0.42959 0.01788 0.86321 0.0
C859 C 0.45587 0.06019 0.87422 0.0
C860 C 0.48239 0.93107 0.8793 0.0
C861 C 0.48873 0.00361 0.87049 0.0
C862 C 0.50168 0.90531 0.88041 0.0
C863 C 0.54515 0.92233 0.87161 0.0
C864 C 0.50701 0.97442 0.86992 0.0
C865 C 0.56839 0.96559 0.86176 0.0
C866 C 0.44576 0.98939 0.86158 0.0
C867 C 0.49881 0.07322 0.88258 0.0
N868 N 0.5492 0.99041 0.86162 0.0
N869 N 0.51402 0.04511 0.88034 0.0
H870 H 0.60811 0.61991 0.47637 0.0
H871 H 0.39762 0.38664 0.46999 0.0
H872 H 0.48433 0.60292 0.44823 0.0
H873 H 0.52253 0.4076 0.44087 0.0
H874 H 0.42873 0.46546 0.47412 0.0
H875 H 0.57668 0.54087 0.47564 0.0
C876 C 0.57427 0.59955 0.47034 0.0
C877 C 0.54881 0.61791 0.46218 0.0
C878 C 0.4492 0.45263 0.46692 0.0
C879 C 0.51273 0.52792 0.46182 0.0
C880 C 0.4316 0.4078 0.46466 0.0
C881 C 0.4575 0.39067 0.45487 0.0
C882 C 0.49323 0.48033 0.46017 0.0
C883 C 0.50135 0.41954 0.44821 0.0
C884 C 0.55649 0.55461 0.46978 0.0
C885 C 0.50515 0.59004 0.45442 0.0
N886 N 0.51796 0.46299 0.4512 0.0
N887 N 0.48836 0.54637 0.45461 0.0
H888 H 0.88288 0.47175 0.78172 0.0
H889 H 0.12293 0.51545 0.78525 0.0
H890 H 0.98966 0.59774 0.80562 0.0
H891 H 0.01538 0.3923 0.81339 0.0
H892 H 0.07492 0.54632 0.78611 0.0
H893 H 0.93119 0.44159 0.78652 0.0
C894 C 0.9165 0.49307 0.78795 0.0
C895 C 0.93237 0.53736 0.79319 0.0
C896 C 0.06201 0.51264 0.7923 0.0
C897 C 0.98771 0.50313 0.79833 0.0
C898 C 0.08925 0.49495 0.79169 0.0
C899 C 0.07305 0.4512 0.79919 0.0
C900 C 0.01804 0.48613 0.79971 0.0
C901 C 0.02921 0.42618 0.80753 0.0
C902 C 0.9439 0.47578 0.79086 0.0
C903 C 0.97612 0.56342 0.80145 0.0
N904 N 0.00304 0.44385 0.80716 0.0
N905 N 0.00247 0.54602 0.80339 0.0
H906 H 0.39204 0.87717 0.10824 0.0
H907 H 0.58694 0.11792 0.10344 0.0
H908 H 0.37471 0.98393 0.13544 0.0
H909 H 0.60734 0.01283 0.13001 0.0
H910 H 0.50842 0.06892 0.10728 0.0
H911 H 0.47085 0.92604 0.10849 0.0
C912 C 0.40483 0.9109 0.11426 0.0
C913 C 0.37682 0.92658 0.12178 0.0
C914 C 0.53016 0.05672 0.11236 0.0
C915 C 0.4667 0.98256 0.12163 0.0
C916 C 0.57489 0.0845 0.11 0.0
C917 C 0.60369 0.06935 0.11635 0.0
C918 C 0.51403 0.01321 0.12039 0.0
C919 C 0.58627 0.02583 0.125 0.0
C920 C 0.44972 0.93862 0.11454 0.0
C921 C 0.39515 0.9705 0.1296 0.0
N922 N 0.5425 -0.00091 0.12641 0.0
N923 N 0.43897 0.99713 0.12894 0.0
H924 H 0.2152 0.34566 0.31401 0.0
H925 H 0.34214 0.22737 0.35054 0.0
H926 H 0.24334 0.27577 0.24579 0.0
H927 H 0.28046 0.26302 0.42051 0.0
H928 H 0.29551 0.23319 0.31253 0.0
H929 H 0.22661 0.30463 0.35368 0.0
C930 C 0.22294 0.32104 0.30734 0.0
C931 C 0.22959 0.31499 0.2766 0.0
C932 C 0.29144 0.23886 0.33626 0.0
C933 C 0.24337 0.26839 0.32192 0.0
C934 C 0.3183 0.23581 0.35796 0.0
C935 C 0.31593 0.24588 0.38857 0.0
C936 C 0.26277 0.25313 0.34513 0.0
C937 C 0.28379 0.25565 0.39704 0.0
C938 C 0.2293 0.29747 0.33003 0.0
C939 C 0.23867 0.28204 0.26925 0.0
N940 N 0.25912 0.26009 0.37529 0.0
N941 N 0.24642 0.2607 0.29182 0.0
H942 H 0.87813 0.23973 0.64814 0.0
H943 H 0.11986 0.33617 0.69465 0.0
H944 H 0.9776 0.2593 0.58321 0.0
H945 H 0.01546 0.27991 0.76015 0.0
H946 H 0.06795 0.29864 0.65386 0.0
H947 H 0.92593 0.24467 0.6895 0.0
C948 C 0.90984 0.24449 0.64254 0.0
C949 C 0.92425 0.25005 0.6122 0.0
C950 C 0.05642 0.29366 0.67719 0.0
C951 C 0.97937 0.25616 0.65954 0.0
C952 C 0.08606 0.31524 0.70049 0.0
C953 C 0.07171 0.31192 0.73069 0.0
C954 C 0.01203 0.26943 0.68411 0.0
C955 C 0.02774 0.28374 0.73709 0.0
C956 C 0.93707 0.24705 0.66621 0.0
C957 C 0.96539 0.2554 0.6063 0.0
N958 N -0.00081 0.26435 0.71386 0.0
N959 N 0.99192 0.25924 0.62984 0.0
H960 H 0.72223 0.98408 0.90196 0.0
H961 H 0.74836 0.03251 0.08005 0.0
H962 H 0.67129 0.88639 0.97244 0.0
H963 H 0.75901 0.12345 0.01066 0.0
H964 H 0.74599 0.98367 0.03998 0.0
H965 H 0.76187 0.03911 0.94097 0.0
C966 C 0.72032 0.97403 0.92551 0.0
C967 C 0.6925 0.93088 0.93417 0.0
C968 C 0.74974 0.01475 0.03364 0.0
C969 C 0.7375 0.99333 0.97861 0.0
C970 C 0.75107 0.04263 0.05646 0.0
C971 C 0.75269 0.08161 0.04864 0.0
C972 C 0.75024 0.02609 0.0029 0.0
C973 C 0.75668 0.09327 0.01771 0.0
C974 C 0.7428 0.00544 0.94773 0.0
C975 C 0.69148 0.91953 0.96493 0.0
N976 N 0.75468 0.06531 0.99593 0.0
N977 N 0.71309 0.95072 0.98615 0.0
H978 H 0.72398 0.73818 0.4309 0.0
H979 H 0.74707 0.72092 0.25197 0.0
H980 H 0.66935 0.78411 0.3625 0.0
H981 H 0.7628 0.64152 0.3195 0.0
H982 H 0.74485 0.76627 0.29299 0.0
H983 H 0.76463 0.72598 0.39085 0.0
C984 C 0.72145 0.74682 0.4076 0.0
C985 C 0.69231 0.7609 0.39979 0.0
C986 C 0.74973 0.73943 0.29869 0.0
C987 C 0.73844 0.7471 0.35417 0.0
C988 C 0.75098 0.71352 0.27533 0.0
C989 C 0.75387 0.67665 0.28241 0.0
C990 C 0.75157 0.7284 0.32919 0.0
C991 C 0.75938 0.66896 0.31305 0.0
C992 C 0.74453 0.73974 0.38478 0.0
C993 C 0.69054 0.772 0.36933 0.0
N994 N 0.75739 0.69424 0.33537 0.0
N995 N 0.71272 0.76418 0.34751 0.0
H996 H 0.01563 0.73423 0.57044 0.0
H997 H 0.97594 0.71644 0.74997 0.0
H998 H 0.11711 0.77911 0.63816 0.0
H999 H 0.88047 0.63579 0.68296 0.0
H1000 H 0.02413 0.76009 0.70857 0.0
H1001 H 0.96297 0.71978 0.61115 0.0
C1002 C 0.02701 0.74213 0.59375 0.0
C1003 C 0.07053 0.75679 0.6011 0.0
C1004 C 0.99226 0.7333 0.70305 0.0
C1005 C 0.01079 0.74042 0.64748 0.0
C1006 C 0.96475 0.70837 0.72662 0.0
C1007 C 0.92453 0.67179 0.71986 0.0
C1008 C 0.97924 0.72166 0.67264 0.0
C1009 C 0.91156 0.66312 0.68921 0.0
C1010 C 0.99696 0.73372 0.61694 0.0
C1011 C 0.08363 0.76675 0.63163 0.0
N1012 N 0.93907 0.68757 0.66669 0.0
N1013 N 0.05375 0.75779 0.65379 0.0
H1014 H 0.2469 0.97344 0.08877 0.0
H1015 H 0.27861 0.01711 0.91029 0.0
H1016 H 0.21487 0.87463 0.02046 0.0
H1017 H 0.34827 0.11246 0.98017 0.0
H1018 H 0.23177 0.96687 0.94975 0.0
H1019 H 0.25932 0.02545 0.04818 0.0
C1020 C 0.24133 0.96236 0.06533 0.0
C1021 C 0.23115 0.92002 0.05787 0.0
C1022 C 0.25676 -0.00083 0.95628 0.0
C1023 C 0.24526 0.97915 0.01159 0.0
C1024 C 0.28349 0.02783 0.93382 0.0
C1025 C 0.31812 0.06856 0.94211 0.0
C1026 C 0.26464 0.0116 0.98707 0.0
C1027 C 0.32268 0.08095 0.97288 0.0
C1028 C 0.24854 0.99209 0.0422 0.0
C1029 C 0.22387 0.9073 0.02714 0.0
N1030 N 0.29661 0.05234 0.99432 0.0
N1031 N 0.23181 0.93697 0.00504 0.0
H1032 H 0.90673 0.2166 0.09286 0.0
H1033 H 0.07368 0.295 0.23207 0.0
H1034 H 0.8672 0.18072 0.18647 0.0
H1035 H 0.11319 0.30138 0.13817 0.0
H1036 H 0.99793 0.25716 0.21575 0.0
H1037 H 0.98258 0.25193 0.109 0.0
C1038 C 0.91397 0.21608 0.11682 0.0
C1039 C 0.88051 0.1956 0.13835 0.0
C1040 C 0.02315 0.26665 0.19873 0.0
C1041 C 0.96737 0.23626 0.15697 0.0
C1042 C 0.06645 0.28834 0.208 0.0
C1043 C 0.09988 0.30133 0.18644 0.0
C1044 C 0.01308 0.25824 0.16761 0.0
C1045 C 0.08848 0.29184 0.15558 0.0
C1046 C 0.95731 0.23618 0.12598 0.0
C1047 C 0.89191 0.196 0.16907 0.0
N1048 N 0.04602 0.27106 0.14707 0.0
N1049 N 0.93437 0.21618 0.17747 0.0
H1050 H 0.83218 0.12639 0.47652 0.0
H1051 H 0.70324 0.88056 0.5348 0.0
H1052 H 0.79235 0.09097 0.57015 0.0
H1053 H 0.71542 0.91733 0.43986 0.0
H1054 H 0.74316 0.95744 0.54877 0.0
H1055 H 0.7968 0.04954 0.46326 0.0
C1056 C 0.81617 0.10248 0.49432 0.0
C1057 C 0.81514 0.11514 0.52448 0.0
C1058 C 0.73713 0.94859 0.52489 0.0
C1059 C 0.77466 0.02714 0.50945 0.0
C1060 C 0.71448 0.90476 0.5169 0.0
C1061 C 0.70592 0.89252 0.48613 0.0
C1062 C 0.75159 0.98032 0.50192 0.0
C1063 C 0.72116 0.92525 0.46389 0.0
C1064 C 0.79588 0.05861 0.48671 0.0
C1065 C 0.79385 0.0827 0.54659 0.0
N1066 N 0.74327 0.96761 0.47222 0.0
N1067 N 0.77447 0.04018 0.53863 0.0
H1068 H 0.79018 0.69591 0.76092 0.0
H1069 H 0.71874 0.79714 0.89597 0.0
H1070 H 0.83001 0.70076 0.8546 0.0
H1071 H 0.70386 0.81814 0.80076 0.0
H1072 H 0.75711 0.75928 0.88123 0.0
H1073 H 0.75582 0.73807 0.77505 0.0
C1074 C 0.79182 0.70592 0.78445 0.0
C1075 C 0.81302 0.69477 0.80663 0.0
C1076 C 0.74569 0.77236 0.86355 0.0
C1077 C 0.77353 0.74284 0.82294 0.0
C1078 C 0.7237 0.79397 0.87193 0.0
C1079 C 0.70807 0.81088 0.84955 0.0
C1080 C 0.75177 0.76717 0.83252 0.0
C1081 C 0.71547 0.80572 0.81877 0.0
C1082 C 0.77226 0.73008 0.79247 0.0
C1083 C 0.81408 0.70865 0.83675 0.0
N1084 N 0.73658 0.78409 0.81115 0.0
N1085 N 0.79443 0.73178 0.84403 0.0
H1086 H 0.86648 0.69328 0.14363 0.0
H1087 H 0.11523 0.81761 0.19645 0.0
H1088 H 0.9067 0.69558 0.2369 0.0
H1089 H 0.07484 0.78561 0.1026 0.0
H1090 H 0.03886 0.77985 0.21194 0.0
H1091 H 0.9428 0.73399 0.12838 0.0
C1092 C 0.89133 0.70245 0.16092 0.0
C1093 C 0.88017 0.69095 0.19158 0.0
C1094 C 0.04678 0.78118 0.18796 0.0
C1095 C 0.96754 0.73767 0.1743 0.0
C1096 C 0.09034 0.80285 0.1791 0.0
C1097 C 0.10145 0.80475 0.14818 0.0
C1098 C 0.01411 0.76164 0.16574 0.0
C1099 C 0.06781 0.7849 0.1267 0.0
C1100 C 0.93488 0.72559 0.15218 0.0
C1101 C 0.91378 0.70365 0.21298 0.0
N1102 N 0.02571 0.76427 0.13587 0.0
N1103 N 0.95592 0.7264 0.20395 0.0
H1104 H 0.20668 0.9174 0.56196 0.0
H1105 H 0.29849 0.09017 0.42643 0.0
H1106 H 0.1773 0.88234 0.46705 0.0
H1107 H 0.30334 0.12558 0.52119 0.0
H1108 H 0.25694 0.01382 0.44086 0.0
H1109 H 0.24489 0.99374 0.54744 0.0
C1110 C 0.20809 0.92574 0.53805 0.0
C1111 C 0.18871 0.8934 0.51567 0.0
C1112 C 0.26694 0.03829 0.45847 0.0
C1113 C 0.23276 0.98086 0.49889 0.0
C1114 C 0.29077 0.08192 0.45028 0.0
C1115 C 0.30441 0.11435 0.47265 0.0
C1116 C 0.25699 0.02692 0.4893 0.0
C1117 C 0.29344 0.10168 0.50318 0.0
C1118 C 0.22989 0.96938 0.5298 0.0
C1119 C 0.19166 0.90619 0.48507 0.0
N1120 N 0.27053 0.05895 0.51061 0.0
N1121 N 0.21348 0.94894 0.47756 0.0
H1122 H 0.205 0.28453 0.76993 0.0
H1123 H 0.30101 0.20583 0.90408 0.0
H1124 H 0.17696 0.29025 0.86513 0.0
H1125 H 0.30283 0.17355 0.80932 0.0
H1126 H 0.25865 0.24007 0.89027 0.0
H1127 H 0.24379 0.24677 0.78395 0.0
C1128 C 0.20681 0.27766 0.7938 0.0
C1129 C 0.18765 0.29055 0.81641 0.0
C1130 C 0.26817 0.22535 0.87252 0.0
C1131 C 0.23241 0.24759 0.83261 0.0
C1132 C 0.29247 0.20589 0.88036 0.0
C1133 C 0.30549 0.18677 0.85781 0.0
C1134 C 0.25714 0.22611 0.84187 0.0
C1135 C 0.29345 0.18783 0.82746 0.0
C1136 C 0.22895 0.25604 0.80177 0.0
C1137 C 0.19112 0.2808 0.84695 0.0
N1138 N 0.27011 0.20734 0.82037 0.0
N1139 N 0.21331 0.26011 0.85418 0.0
loop_
_geom_bond_atom_site_label_1
_geom_bond_atom_site_label_2
_geom_bond_distance
_geom_bond_site_symmetry_2
_ccdc_geom_bond_type
Co0 O2 2.143 . S
Co0 O8 2.074 . S
Co0 O11 2.093 . S
Co0 O24 2.097 . S
Co0 N41 2.151 . S
Co0 N49 2.214 . S
Co1 O2 2.160 . S
Co1 O7 2.058 . S
Co1 O17 2.057 . S
Co1 O32 2.037 . S
Co1 N36 2.145 . S
Co1 N57 2.257 . S
O2 Co0 2.143 . S
O2 Co1 2.160 . S
C3 O4 1.278 . S
C3 O11 1.224 . S
O4 C3 1.278 . S
C5 O6 1.245 . S
C5 O17 1.232 . S
O6 C5 1.245 . S
O7 Co1 2.058 . S
O7 C33 1.269 . S
O8 Co0 2.074 . S
O8 C33 1.257 . S
H9 C34 0.930 . S
H10 C40 0.930 . S
O11 Co0 2.093 . S
O11 C3 1.224 . S
H12 C44 0.929 . S
H13 C46 0.930 . S
H14 C47 0.930 . S
H15 C45 0.929 . S
H16 C48 0.928 . S
O17 Co1 2.057 . S
O17 C5 1.232 . S
H18 C37 0.929 . S
H19 C38 0.929 . S
H20 C50 0.931 . S
H21 C42 0.929 . S
H22 C51 0.930 . S
H23 C43 0.931 . S
O24 Co0 2.097 . S
O24 C52 1.214 . S
H25 C53 0.929 . S
H26 C54 0.929 . S
H27 C55 0.930 . S
H28 C56 0.929 . S
H29 C58 0.930 . S
H30 C35 0.930 . S
H31 C39 0.930 . S
O32 Co1 2.037 . S
O32 C52 1.234 . S
C33 O7 1.269 . S
C33 O8 1.257 . S
C34 H9 0.930 . S
C34 C37 1.388 . S
C34 C39 1.418 . S
C35 H30 0.930 . S
C35 C38 1.404 . S
C35 C39 1.353 . S
N36 Co1 2.145 . S
N36 C37 1.397 . S
N36 C38 1.334 . S
C37 H18 0.929 . S
C37 C34 1.388 . S
C37 N36 1.397 . S
C38 H19 0.929 . S
C38 C35 1.404 . S
C38 N36 1.334 . S
C39 H31 0.930 . S
C39 C34 1.418 . S
C39 C35 1.353 . S
C40 H10 0.930 . S
C40 N41 1.330 . S
C40 C42 1.446 . S
N41 Co0 2.151 . S
N41 C40 1.330 . S
N41 C45 1.418 . S
C42 H21 0.929 . S
C42 C40 1.446 . S
C42 C43 1.332 . S
C43 H23 0.931 . S
C43 C42 1.332 . S
C43 C44 1.267 . S
C44 H12 0.929 . S
C44 C43 1.267 . S
C44 C45 1.251 . S
C45 H15 0.929 . S
C45 N41 1.418 . S
C45 C44 1.251 . S
C46 H13 0.930 . S
C46 C48 1.406 . S
C46 C51 1.261 . S
C47 H14 0.930 . S
C47 N49 1.325 . S
C47 C50 1.357 . S
C48 H16 0.928 . S
C48 C46 1.406 . S
C48 N49 1.261 . S
N49 Co0 2.214 . S
N49 C47 1.325 . S
N49 C48 1.261 . S
C50 H20 0.931 . S
C50 C47 1.357 . S
C50 C51 1.312 . S
C51 H22 0.930 . S
C51 C46 1.261 . S
C51 C50 1.312 . S
C52 O24 1.214 . S
C52 O32 1.234 . S
C53 H25 0.929 . S
C53 C56 1.391 . S
C53 C58 1.391 . S
C54 H26 0.929 . S
C54 C55 1.390 . S
C54 N57 1.391 . S
C55 H27 0.930 . S
C55 C54 1.390 . S
C55 C56 1.392 . S
C56 H28 0.929 . S
C56 C53 1.391 . S
C56 C55 1.392 . S
N57 Co1 2.257 . S
N57 C54 1.391 . S
N57 C58 1.388 . S
C58 H29 0.930 . S
C58 C53 1.391 . S
C58 N57 1.388 . S
Co59 O61 2.143 . S
Co59 O67 2.074 . S
Co59 O70 2.093 . S
Co59 O83 2.097 . S
Co59 N100 2.151 . S
Co59 N108 2.214 . S
Co60 O61 2.160 . S
Co60 O66 2.058 . S
Co60 O76 2.057 . S
Co60 O91 2.037 . S
Co60 N95 2.145 . S
Co60 N116 2.257 . S
O61 Co59 2.143 . S
O61 Co60 2.160 . S
C62 O63 1.278 . S
C62 O70 1.224 . S
O63 C62 1.278 . S
C64 O65 1.245 . S
C64 O76 1.232 . S
O65 C64 1.245 . S
O66 Co60 2.058 . S
O66 C92 1.269 . S
O67 Co59 2.074 . S
O67 C92 1.257 . S
H68 C93 0.930 . S
H69 C99 0.930 . S
O70 Co59 2.093 . S
O70 C62 1.224 . S
H71 C103 0.929 . S
H72 C105 0.930 . S
H73 C106 0.930 . S
H74 C104 0.929 . S
H75 C107 0.928 . S
O76 Co60 2.057 . S
O76 C64 1.232 . S
H77 C96 0.929 . S
H78 C97 0.929 . S
H79 C109 0.931 . S
H80 C101 0.929 . S
H81 C110 0.930 . S
H82 C102 0.931 . S
O83 Co59 2.097 . S
O83 C111 1.214 . S
H84 C112 0.929 . S
H85 C113 0.929 . S
H86 C114 0.930 . S
H87 C115 0.929 . S
H88 C117 0.930 . S
H89 C94 0.930 . S
H90 C98 0.930 . S
O91 Co60 2.037 . S
O91 C111 1.234 . S
C92 O66 1.269 . S
C92 O67 1.257 . S
C93 H68 0.930 . S
C93 C96 1.388 . S
C93 C98 1.418 . S
C94 H89 0.930 . S
C94 C97 1.404 1_455 S
C94 C98 1.353 . S
N95 Co60 2.145 . S
N95 C96 1.397 1_655 S
N95 C97 1.334 . S
C96 H77 0.929 . S
C96 C93 1.388 . S
C96 N95 1.397 1_455 S
C97 H78 0.929 . S
C97 C94 1.404 1_655 S
C97 N95 1.334 . S
C98 H90 0.930 . S
C98 C93 1.418 . S
C98 C94 1.353 . S
C99 H69 0.930 . S
C99 N100 1.330 . S
C99 C101 1.446 . S
N100 Co59 2.151 . S
N100 C99 1.330 . S
N100 C104 1.418 . S
C101 H80 0.929 . S
C101 C99 1.446 . S
C101 C102 1.332 . S
C102 H82 0.931 . S
C102 C101 1.332 . S
C102 C103 1.267 . S
C103 H71 0.929 . S
C103 C102 1.267 . S
C103 C104 1.251 . S
C104 H74 0.929 . S
C104 N100 1.418 . S
C104 C103 1.251 . S
C105 H72 0.930 . S
C105 C107 1.406 . S
C105 C110 1.261 . S
C106 H73 0.930 . S
C106 N108 1.325 . S
C106 C109 1.357 . S
C107 H75 0.928 . S
C107 C105 1.406 . S
C107 N108 1.261 . S
N108 Co59 2.214 . S
N108 C106 1.325 . S
N108 C107 1.261 . S
C109 H79 0.931 . S
C109 C106 1.357 . S
C109 C110 1.312 . S
C110 H81 0.930 . S
C110 C105 1.261 . S
C110 C109 1.312 . S
C111 O83 1.214 . S
C111 O91 1.234 . S
C112 H84 0.929 . S
C112 C115 1.391 . S
C112 C117 1.391 . S
C113 H85 0.929 . S
C113 C114 1.390 . S
C113 N116 1.391 . S
C114 H86 0.930 . S
C114 C113 1.390 . S
C114 C115 1.392 . S
C115 H87 0.929 . S
C115 C112 1.391 . S
C115 C114 1.392 . S
N116 Co60 2.257 . S
N116 C113 1.391 . S
N116 C117 1.388 . S
C117 H88 0.930 . S
C117 C112 1.391 . S
C117 N116 1.388 . S
Co118 O120 2.143 . S
Co118 O126 2.074 . S
Co118 O129 2.093 . S
Co118 O142 2.097 . S
Co118 N159 2.151 . S
Co118 N167 2.214 . S
Co119 O120 2.160 . S
Co119 O125 2.058 . S
Co119 O135 2.057 . S
Co119 O150 2.037 . S
Co119 N154 2.145 . S
Co119 N175 2.257 . S
O120 Co118 2.143 . S
O120 Co119 2.160 . S
C121 O122 1.278 . S
C121 O129 1.224 . S
O122 C121 1.278 . S
C123 O124 1.245 . S
C123 O135 1.232 . S
O124 C123 1.245 . S
O125 Co119 2.058 . S
O125 C151 1.269 . S
O126 Co118 2.074 . S
O126 C151 1.257 . S
H127 C152 0.930 . S
H128 C158 0.930 . S
O129 Co118 2.093 . S
O129 C121 1.224 . S
H130 C162 0.929 . S
H131 C164 0.930 . S
H132 C165 0.930 . S
H133 C163 0.929 . S
H134 C166 0.928 . S
O135 Co119 2.057 . S
O135 C123 1.232 . S
H136 C155 0.929 . S
H137 C156 0.929 . S
H138 C168 0.931 . S
H139 C160 0.929 . S
H140 C169 0.930 . S
H141 C161 0.931 . S
O142 Co118 2.097 . S
O142 C170 1.214 . S
H143 C171 0.929 . S
H144 C172 0.929 . S
H145 C173 0.930 . S
H146 C174 0.929 . S
H147 C176 0.930 . S
H148 C153 0.930 . S
H149 C157 0.930 . S
O150 Co119 2.037 . S
O150 C170 1.234 . S
C151 O125 1.269 . S
C151 O126 1.257 . S
C152 H127 0.930 . S
C152 C155 1.388 . S
C152 C157 1.418 . S
C153 H148 0.930 . S
C153 C156 1.404 1_545 S
C153 C157 1.353 . S
N154 Co119 2.145 . S
N154 C155 1.397 1_565 S
N154 C156 1.334 . S
C155 H136 0.929 . S
C155 C152 1.388 . S
C155 N154 1.397 1_545 S
C156 H137 0.929 . S
C156 C153 1.404 1_565 S
C156 N154 1.334 . S
C157 H149 0.930 . S
C157 C152 1.418 . S
C157 C153 1.353 . S
C158 H128 0.930 . S
C158 N159 1.330 . S
C158 C160 1.446 . S
N159 Co118 2.151 . S
N159 C158 1.330 . S
N159 C163 1.418 . S
C160 H139 0.929 . S
C160 C158 1.446 . S
C160 C161 1.332 . S
C161 H141 0.931 . S
C161 C160 1.332 . S
C161 C162 1.267 . S
C162 H130 0.929 . S
C162 C161 1.267 . S
C162 C163 1.251 . S
C163 H133 0.929 . S
C163 N159 1.418 . S
C163 C162 1.251 . S
C164 H131 0.930 . S
C164 C166 1.406 . S
C164 C169 1.261 . S
C165 H132 0.930 . S
C165 N167 1.325 . S
C165 C168 1.357 . S
C166 H134 0.928 . S
C166 C164 1.406 . S
C166 N167 1.261 . S
N167 Co118 2.214 . S
N167 C165 1.325 . S
N167 C166 1.261 . S
C168 H138 0.931 . S
C168 C165 1.357 . S
C168 C169 1.312 . S
C169 H140 0.930 . S
C169 C164 1.261 . S
C169 C168 1.312 . S
C170 O142 1.214 . S
C170 O150 1.234 . S
C171 H143 0.929 . S
C171 C174 1.391 . S
C171 C176 1.391 . S
C172 H144 0.929 . S
C172 C173 1.390 . S
C172 N175 1.391 . S
C173 H145 0.930 . S
C173 C172 1.390 . S
C173 C174 1.392 . S
C174 H146 0.929 . S
C174 C171 1.391 . S
C174 C173 1.392 . S
N175 Co119 2.257 . S
N175 C172 1.391 . S
N175 C176 1.388 . S
C176 H147 0.930 . S
C176 C171 1.391 . S
C176 N175 1.388 . S
Co177 O179 2.143 . S
Co177 O185 2.074 . S
Co177 O188 2.093 . S
Co177 O201 2.097 . S
Co177 N218 2.151 . S
Co177 N226 2.214 . S
Co178 O179 2.160 . S
Co178 O184 2.058 . S
Co178 O194 2.057 . S
Co178 O209 2.037 . S
Co178 N213 2.145 . S
Co178 N234 2.257 . S
O179 Co177 2.143 . S
O179 Co178 2.160 . S
C180 O181 1.278 . S
C180 O188 1.224 . S
O181 C180 1.278 . S
C182 O183 1.245 . S
C182 O194 1.232 . S
O183 C182 1.245 . S
O184 Co178 2.058 . S
O184 C210 1.269 . S
O185 Co177 2.074 . S
O185 C210 1.257 . S
H186 C211 0.930 . S
H187 C217 0.930 . S
O188 Co177 2.093 . S
O188 C180 1.224 . S
H189 C221 0.929 . S
H190 C223 0.930 . S
H191 C224 0.930 . S
H192 C222 0.929 . S
H193 C225 0.928 . S
O194 Co178 2.057 . S
O194 C182 1.232 . S
H195 C214 0.929 . S
H196 C215 0.929 . S
H197 C227 0.931 . S
H198 C219 0.929 . S
H199 C228 0.930 . S
H200 C220 0.931 . S
O201 Co177 2.097 . S
O201 C229 1.214 . S
H202 C230 0.929 . S
H203 C231 0.929 . S
H204 C232 0.930 . S
H205 C233 0.929 . S
H206 C235 0.930 . S
H207 C212 0.930 . S
H208 C216 0.930 . S
O209 Co178 2.037 . S
O209 C229 1.234 . S
C210 O184 1.269 . S
C210 O185 1.257 . S
C211 H186 0.930 . S
C211 C214 1.388 . S
C211 C216 1.418 . S
C212 H207 0.930 . S
C212 C215 1.404 . S
C212 C216 1.353 . S
N213 Co178 2.145 . S
N213 C214 1.397 . S
N213 C215 1.334 . S
C214 H195 0.929 . S
C214 C211 1.388 . S
C214 N213 1.397 . S
C215 H196 0.929 . S
C215 C212 1.404 . S
C215 N213 1.334 . S
C216 H208 0.930 . S
C216 C211 1.418 . S
C216 C212 1.353 . S
C217 H187 0.930 . S
C217 N218 1.330 . S
C217 C219 1.446 . S
N218 Co177 2.151 . S
N218 C217 1.330 . S
N218 C222 1.418 . S
C219 H198 0.929 . S
C219 C217 1.446 . S
C219 C220 1.332 . S
C220 H200 0.931 . S
C220 C219 1.332 . S
C220 C221 1.267 . S
C221 H189 0.929 . S
C221 C220 1.267 . S
C221 C222 1.251 . S
C222 H192 0.929 . S
C222 N218 1.418 . S
C222 C221 1.251 . S
C223 H190 0.930 . S
C223 C225 1.406 . S
C223 C228 1.261 . S
C224 H191 0.930 . S
C224 N226 1.325 . S
C224 C227 1.357 . S
C225 H193 0.928 . S
C225 C223 1.406 . S
C225 N226 1.261 . S
N226 Co177 2.214 . S
N226 C224 1.325 . S
N226 C225 1.261 . S
C227 H197 0.931 . S
C227 C224 1.357 . S
C227 C228 1.312 . S
C228 H199 0.930 . S
C228 C223 1.261 . S
C228 C227 1.312 . S
C229 O201 1.214 . S
C229 O209 1.234 . S
C230 H202 0.929 . S
C230 C233 1.391 . S
C230 C235 1.391 . S
C231 H203 0.929 . S
C231 C232 1.390 . S
C231 N234 1.391 . S
C232 H204 0.930 . S
C232 C231 1.390 . S
C232 C233 1.392 . S
C233 H205 0.929 . S
C233 C230 1.391 . S
C233 C232 1.392 . S
N234 Co178 2.257 . S
N234 C231 1.391 . S
N234 C235 1.388 . S
C235 H206 0.930 . S
C235 C230 1.391 . S
C235 N234 1.388 . S
Co236 O238 2.143 . S
Co236 O244 2.074 . S
Co236 O247 2.093 . S
Co236 O260 2.097 . S
Co236 N277 2.151 . S
Co236 N285 2.214 . S
Co237 O238 2.160 . S
Co237 O243 2.058 . S
Co237 O253 2.057 . S
Co237 O268 2.037 . S
Co237 N272 2.145 . S
Co237 N293 2.257 . S
O238 Co236 2.143 . S
O238 Co237 2.160 . S
C239 O240 1.278 . S
C239 O247 1.224 . S
O240 C239 1.278 . S
C241 O242 1.245 . S
C241 O253 1.232 . S
O242 C241 1.245 . S
O243 Co237 2.058 . S
O243 C269 1.269 . S
O244 Co236 2.074 . S
O244 C269 1.257 . S
H245 C270 0.930 . S
H246 C276 0.930 . S
O247 Co236 2.093 . S
O247 C239 1.224 . S
H248 C280 0.929 . S
H249 C282 0.930 . S
H250 C283 0.930 . S
H251 C281 0.929 . S
H252 C284 0.928 . S
O253 Co237 2.057 . S
O253 C241 1.232 . S
H254 C273 0.929 . S
H255 C274 0.929 . S
H256 C286 0.931 . S
H257 C278 0.929 . S
H258 C287 0.930 . S
H259 C279 0.931 . S
O260 Co236 2.097 . S
O260 C288 1.214 . S
H261 C289 0.929 . S
H262 C290 0.929 . S
H263 C291 0.930 . S
H264 C292 0.929 . S
H265 C294 0.930 . S
H266 C271 0.930 . S
H267 C275 0.930 . S
O268 Co237 2.037 . S
O268 C288 1.234 . S
C269 O243 1.269 . S
C269 O244 1.257 . S
C270 H245 0.930 . S
C270 C273 1.388 . S
C270 C275 1.418 . S
C271 H266 0.930 . S
C271 C274 1.404 1_655 S
C271 C275 1.353 . S
N272 Co237 2.145 . S
N272 C273 1.397 1_455 S
N272 C274 1.334 . S
C273 H254 0.929 . S
C273 C270 1.388 . S
C273 N272 1.397 1_655 S
C274 H255 0.929 . S
C274 C271 1.404 1_455 S
C274 N272 1.334 . S
C275 H267 0.930 . S
C275 C270 1.418 . S
C275 C271 1.353 . S
C276 H246 0.930 . S
C276 N277 1.330 . S
C276 C278 1.446 . S
N277 Co236 2.151 . S
N277 C276 1.330 . S
N277 C281 1.418 . S
C278 H257 0.929 . S
C278 C276 1.446 . S
C278 C279 1.332 . S
C279 H259 0.931 . S
C279 C278 1.332 . S
C279 C280 1.267 . S
C280 H248 0.929 . S
C280 C279 1.267 . S
C280 C281 1.251 . S
C281 H251 0.929 . S
C281 N277 1.418 . S
C281 C280 1.251 . S
C282 H249 0.930 . S
C282 C284 1.406 . S
C282 C287 1.261 . S
C283 H250 0.930 . S
C283 N285 1.325 . S
C283 C286 1.357 . S
C284 H252 0.928 . S
C284 C282 1.406 . S
C284 N285 1.261 . S
N285 Co236 2.214 . S
N285 C283 1.325 . S
N285 C284 1.261 . S
C286 H256 0.931 . S
C286 C283 1.357 . S
C286 C287 1.312 . S
C287 H258 0.930 . S
C287 C282 1.261 . S
C287 C286 1.312 . S
C288 O260 1.214 . S
C288 O268 1.234 . S
C289 H261 0.929 . S
C289 C292 1.391 . S
C289 C294 1.391 . S
C290 H262 0.929 . S
C290 C291 1.390 . S
C290 N293 1.391 . S
C291 H263 0.930 . S
C291 C290 1.390 . S
C291 C292 1.392 . S
C292 H264 0.929 . S
C292 C289 1.391 . S
C292 C291 1.392 . S
N293 Co237 2.257 . S
N293 C290 1.391 . S
N293 C294 1.388 . S
C294 H265 0.930 . S
C294 C289 1.391 . S
C294 N293 1.388 . S
Co295 O297 2.143 . S
Co295 O303 2.074 . S
Co295 O306 2.093 . S
Co295 O319 2.097 . S
Co295 N336 2.151 . S
Co295 N344 2.214 . S
Co296 O297 2.160 . S
Co296 O302 2.058 . S
Co296 O312 2.057 . S
Co296 O327 2.037 . S
Co296 N331 2.145 . S
Co296 N352 2.257 . S
O297 Co295 2.143 . S
O297 Co296 2.160 . S
C298 O299 1.278 . S
C298 O306 1.224 . S
O299 C298 1.278 . S
C300 O301 1.245 . S
C300 O312 1.232 . S
O301 C300 1.245 . S
O302 Co296 2.058 . S
O302 C328 1.269 . S
O303 Co295 2.074 . S
O303 C328 1.257 . S
H304 C329 0.930 . S
H305 C335 0.930 . S
O306 Co295 2.093 . S
O306 C298 1.224 . S
H307 C339 0.929 . S
H308 C341 0.930 . S
H309 C342 0.930 . S
H310 C340 0.929 . S
H311 C343 0.928 . S
O312 Co296 2.057 . S
O312 C300 1.232 . S
H313 C332 0.929 . S
H314 C333 0.929 . S
H315 C345 0.931 . S
H316 C337 0.929 . S
H317 C346 0.930 . S
H318 C338 0.931 . S
O319 Co295 2.097 . S
O319 C347 1.214 . S
H320 C348 0.929 . S
H321 C349 0.929 . S
H322 C350 0.930 . S
H323 C351 0.929 . S
H324 C353 0.930 . S
H325 C330 0.930 . S
H326 C334 0.930 . S
O327 Co296 2.037 . S
O327 C347 1.234 . S
C328 O302 1.269 . S
C328 O303 1.257 . S
C329 H304 0.930 . S
C329 C332 1.388 . S
C329 C334 1.418 . S
C330 H325 0.930 . S
C330 C333 1.404 1_565 S
C330 C334 1.353 . S
N331 Co296 2.145 . S
N331 C332 1.397 1_545 S
N331 C333 1.334 . S
C332 H313 0.929 . S
C332 C329 1.388 . S
C332 N331 1.397 1_565 S
C333 H314 0.929 . S
C333 C330 1.404 1_545 S
C333 N331 1.334 . S
C334 H326 0.930 . S
C334 C329 1.418 . S
C334 C330 1.353 . S
C335 H305 0.930 . S
C335 N336 1.330 . S
C335 C337 1.446 . S
N336 Co295 2.151 . S
N336 C335 1.330 . S
N336 C340 1.418 . S
C337 H316 0.929 . S
C337 C335 1.446 . S
C337 C338 1.332 . S
C338 H318 0.931 . S
C338 C337 1.332 . S
C338 C339 1.267 . S
C339 H307 0.929 . S
C339 C338 1.267 . S
C339 C340 1.251 . S
C340 H310 0.929 . S
C340 N336 1.418 . S
C340 C339 1.251 . S
C341 H308 0.930 . S
C341 C343 1.406 . S
C341 C346 1.261 . S
C342 H309 0.930 . S
C342 N344 1.325 . S
C342 C345 1.357 . S
C343 H311 0.928 . S
C343 C341 1.406 . S
C343 N344 1.261 . S
N344 Co295 2.214 . S
N344 C342 1.325 . S
N344 C343 1.261 . S
C345 H315 0.931 . S
C345 C342 1.357 . S
C345 C346 1.312 . S
C346 H317 0.930 . S
C346 C341 1.261 . S
C346 C345 1.312 . S
C347 O319 1.214 . S
C347 O327 1.234 . S
C348 H320 0.929 . S
C348 C351 1.391 . S
C348 C353 1.391 . S
C349 H321 0.929 . S
C349 C350 1.390 . S
C349 N352 1.391 . S
C350 H322 0.930 . S
C350 C349 1.390 . S
C350 C351 1.392 . S
C351 H323 0.929 . S
C351 C348 1.391 . S
C351 C350 1.392 . S
N352 Co296 2.257 . S
N352 C349 1.391 . S
N352 C353 1.388 . S
C353 H324 0.930 . S
C353 C348 1.391 . S
C353 N352 1.388 . S
Co354 O356 2.143 . S
Co354 O362 2.074 . S
Co354 O365 2.093 . S
Co354 O378 2.097 . S
Co354 N395 2.151 . S
Co354 N403 2.214 . S
Co355 O356 2.160 . S
Co355 O361 2.058 . S
Co355 O371 2.057 . S
Co355 O386 2.037 . S
Co355 N390 2.145 . S
Co355 N411 2.257 . S
O356 Co354 2.143 . S
O356 Co355 2.160 . S
C357 O358 1.278 . S
C357 O365 1.224 . S
O358 C357 1.278 . S
C359 O360 1.245 . S
C359 O371 1.232 . S
O360 C359 1.245 . S
O361 Co355 2.058 . S
O361 C387 1.269 . S
O362 Co354 2.074 . S
O362 C387 1.257 . S
H363 C388 0.930 . S
H364 C394 0.930 . S
O365 Co354 2.093 . S
O365 C357 1.224 . S
H366 C398 0.929 . S
H367 C400 0.930 . S
H368 C401 0.930 . S
H369 C399 0.929 . S
H370 C402 0.928 . S
O371 Co355 2.057 . S
O371 C359 1.232 . S
H372 C391 0.929 . S
H373 C392 0.929 . S
H374 C404 0.931 . S
H375 C396 0.929 . S
H376 C405 0.930 . S
H377 C397 0.931 . S
O378 Co354 2.097 . S
O378 C406 1.214 . S
H379 C407 0.929 . S
H380 C408 0.929 . S
H381 C409 0.930 . S
H382 C410 0.929 . S
H383 C412 0.930 . S
H384 C389 0.930 . S
H385 C393 0.930 . S
O386 Co355 2.037 . S
O386 C406 1.234 . S
C387 O361 1.269 . S
C387 O362 1.257 . S
C388 H363 0.930 . S
C388 C391 1.388 . S
C388 C393 1.418 . S
C389 H384 0.930 . S
C389 C392 1.404 . S
C389 C393 1.353 . S
N390 Co355 2.145 . S
N390 C391 1.397 . S
N390 C392 1.334 . S
C391 H372 0.929 . S
C391 C388 1.388 . S
C391 N390 1.397 . S
C392 H373 0.929 . S
C392 C389 1.404 . S
C392 N390 1.334 . S
C393 H385 0.930 . S
C393 C388 1.418 . S
C393 C389 1.353 . S
C394 H364 0.930 . S
C394 N395 1.330 . S
C394 C396 1.446 . S
N395 Co354 2.151 . S
N395 C394 1.330 . S
N395 C399 1.418 . S
C396 H375 0.929 . S
C396 C394 1.446 . S
C396 C397 1.332 . S
C397 H377 0.931 . S
C397 C396 1.332 . S
C397 C398 1.267 . S
C398 H366 0.929 . S
C398 C397 1.267 . S
C398 C399 1.251 . S
C399 H369 0.929 . S
C399 N395 1.418 . S
C399 C398 1.251 . S
C400 H367 0.930 . S
C400 C402 1.406 . S
C400 C405 1.261 . S
C401 H368 0.930 . S
C401 N403 1.325 . S
C401 C404 1.357 . S
C402 H370 0.928 . S
C402 C400 1.406 . S
C402 N403 1.261 . S
N403 Co354 2.214 . S
N403 C401 1.325 . S
N403 C402 1.261 . S
C404 H374 0.931 . S
C404 C401 1.357 . S
C404 C405 1.312 . S
C405 H376 0.930 . S
C405 C400 1.261 . S
C405 C404 1.312 . S
C406 O378 1.214 . S
C406 O386 1.234 . S
C407 H379 0.929 . S
C407 C410 1.391 . S
C407 C412 1.391 . S
C408 H380 0.929 . S
C408 C409 1.390 . S
C408 N411 1.391 . S
C409 H381 0.930 . S
C409 C408 1.390 . S
C409 C410 1.392 . S
C410 H382 0.929 . S
C410 C407 1.391 . S
C410 C409 1.392 . S
N411 Co355 2.257 . S
N411 C408 1.391 . S
N411 C412 1.388 . S
C412 H383 0.930 . S
C412 C407 1.391 . S
C412 N411 1.388 . S
Co413 O415 2.143 . S
Co413 O421 2.074 . S
Co413 O424 2.093 . S
Co413 O437 2.097 . S
Co413 N454 2.151 . S
Co413 N462 2.214 . S
Co414 O415 2.160 . S
Co414 O420 2.058 . S
Co414 O430 2.057 . S
Co414 O445 2.037 . S
Co414 N449 2.145 . S
Co414 N470 2.257 . S
O415 Co413 2.143 . S
O415 Co414 2.160 . S
C416 O417 1.278 . S
C416 O424 1.224 . S
O417 C416 1.278 . S
C418 O419 1.245 . S
C418 O430 1.232 . S
O419 C418 1.245 . S
O420 Co414 2.058 . S
O420 C446 1.269 . S
O421 Co413 2.074 . S
O421 C446 1.257 . S
H422 C447 0.930 . S
H423 C453 0.930 . S
O424 Co413 2.093 . S
O424 C416 1.224 . S
H425 C457 0.929 . S
H426 C459 0.930 . S
H427 C460 0.930 . S
H428 C458 0.929 . S
H429 C461 0.928 . S
O430 Co414 2.057 . S
O430 C418 1.232 . S
H431 C450 0.929 . S
H432 C451 0.929 . S
H433 C463 0.931 . S
H434 C455 0.929 . S
H435 C464 0.930 . S
H436 C456 0.931 . S
O437 Co413 2.097 . S
O437 C465 1.214 . S
H438 C466 0.929 . S
H439 C467 0.929 . S
H440 C468 0.930 . S
H441 C469 0.929 . S
H442 C471 0.930 . S
H443 C448 0.930 . S
H444 C452 0.930 . S
O445 Co414 2.037 . S
O445 C465 1.234 . S
C446 O420 1.269 . S
C446 O421 1.257 . S
C447 H422 0.930 . S
C447 C450 1.388 . S
C447 C452 1.418 . S
C448 H443 0.930 . S
C448 C451 1.404 1_455 S
C448 C452 1.353 . S
N449 Co414 2.145 . S
N449 C450 1.397 1_655 S
N449 C451 1.334 . S
C450 H431 0.929 . S
C450 C447 1.388 . S
C450 N449 1.397 1_455 S
C451 H432 0.929 . S
C451 C448 1.404 1_655 S
C451 N449 1.334 . S
C452 H444 0.930 . S
C452 C447 1.418 . S
C452 C448 1.353 . S
C453 H423 0.930 . S
C453 N454 1.330 . S
C453 C455 1.446 . S
N454 Co413 2.151 . S
N454 C453 1.330 . S
N454 C458 1.418 . S
C455 H434 0.929 . S
C455 C453 1.446 . S
C455 C456 1.332 . S
C456 H436 0.931 . S
C456 C455 1.332 . S
C456 C457 1.267 . S
C457 H425 0.929 . S
C457 C456 1.267 . S
C457 C458 1.251 . S
C458 H428 0.929 . S
C458 N454 1.418 . S
C458 C457 1.251 . S
C459 H426 0.930 . S
C459 C461 1.406 . S
C459 C464 1.261 . S
C460 H427 0.930 . S
C460 N462 1.325 . S
C460 C463 1.357 . S
C461 H429 0.928 . S
C461 C459 1.406 . S
C461 N462 1.261 . S
N462 Co413 2.214 . S
N462 C460 1.325 . S
N462 C461 1.261 . S
C463 H433 0.931 . S
C463 C460 1.357 . S
C463 C464 1.312 . S
C464 H435 0.930 . S
C464 C459 1.261 . S
C464 C463 1.312 . S
C465 O437 1.214 . S
C465 O445 1.234 . S
C466 H438 0.929 . S
C466 C469 1.391 . S
C466 C471 1.391 . S
C467 H439 0.929 . S
C467 C468 1.390 . S
C467 N470 1.391 . S
C468 H440 0.930 . S
C468 C467 1.390 . S
C468 C469 1.392 . S
C469 H441 0.929 . S
C469 C466 1.391 . S
C469 C468 1.392 . S
N470 Co414 2.257 . S
N470 C467 1.391 . S
N470 C471 1.388 . S
C471 H442 0.930 . S
C471 C466 1.391 . S
C471 N470 1.388 . S
Co472 O474 2.143 . S
Co472 O480 2.074 . S
Co472 O483 2.093 . S
Co472 O496 2.097 . S
Co472 N513 2.151 . S
Co472 N521 2.214 . S
Co473 O474 2.160 . S
Co473 O479 2.058 . S
Co473 O489 2.057 . S
Co473 O504 2.037 . S
Co473 N508 2.145 . S
Co473 N529 2.257 . S
O474 Co472 2.143 . S
O474 Co473 2.160 . S
C475 O476 1.278 . S
C475 O483 1.224 . S
O476 C475 1.278 . S
C477 O478 1.245 . S
C477 O489 1.232 . S
O478 C477 1.245 . S
O479 Co473 2.058 . S
O479 C505 1.269 . S
O480 Co472 2.074 . S
O480 C505 1.257 . S
H481 C506 0.930 . S
H482 C512 0.930 . S
O483 Co472 2.093 . S
O483 C475 1.224 . S
H484 C516 0.929 . S
H485 C518 0.930 . S
H486 C519 0.930 . S
H487 C517 0.929 . S
H488 C520 0.928 . S
O489 Co473 2.057 . S
O489 C477 1.232 . S
H490 C509 0.929 . S
H491 C510 0.929 . S
H492 C522 0.931 . S
H493 C514 0.929 . S
H494 C523 0.930 . S
H495 C515 0.931 . S
O496 Co472 2.097 . S
O496 C524 1.214 . S
H497 C525 0.929 . S
H498 C526 0.929 . S
H499 C527 0.930 . S
H500 C528 0.929 . S
H501 C530 0.930 . S
H502 C507 0.930 . S
H503 C511 0.930 . S
O504 Co473 2.037 . S
O504 C524 1.234 . S
C505 O479 1.269 . S
C505 O480 1.257 . S
C506 H481 0.930 . S
C506 C509 1.388 . S
C506 C511 1.418 . S
C507 H502 0.930 . S
C507 C510 1.404 1_545 S
C507 C511 1.353 . S
N508 Co473 2.145 . S
N508 C509 1.397 1_565 S
N508 C510 1.334 . S
C509 H490 0.929 . S
C509 C506 1.388 . S
C509 N508 1.397 1_545 S
C510 H491 0.929 . S
C510 C507 1.404 1_565 S
C510 N508 1.334 . S
C511 H503 0.930 . S
C511 C506 1.418 . S
C511 C507 1.353 . S
C512 H482 0.930 . S
C512 N513 1.330 . S
C512 C514 1.446 . S
N513 Co472 2.151 . S
N513 C512 1.330 . S
N513 C517 1.418 . S
C514 H493 0.929 . S
C514 C512 1.446 . S
C514 C515 1.332 . S
C515 H495 0.931 . S
C515 C514 1.332 . S
C515 C516 1.267 . S
C516 H484 0.929 . S
C516 C515 1.267 . S
C516 C517 1.251 . S
C517 H487 0.929 . S
C517 N513 1.418 . S
C517 C516 1.251 . S
C518 H485 0.930 . S
C518 C520 1.406 . S
C518 C523 1.261 . S
C519 H486 0.930 . S
C519 N521 1.325 . S
C519 C522 1.357 . S
C520 H488 0.928 . S
C520 C518 1.406 . S
C520 N521 1.261 . S
N521 Co472 2.214 . S
N521 C519 1.325 . S
N521 C520 1.261 . S
C522 H492 0.931 . S
C522 C519 1.357 . S
C522 C523 1.312 . S
C523 H494 0.930 . S
C523 C518 1.261 . S
C523 C522 1.312 . S
C524 O496 1.214 . S
C524 O504 1.234 . S
C525 H497 0.929 . S
C525 C528 1.391 . S
C525 C530 1.391 . S
C526 H498 0.929 . S
C526 C527 1.390 . S
C526 N529 1.391 . S
C527 H499 0.930 . S
C527 C526 1.390 . S
C527 C528 1.392 . S
C528 H500 0.929 . S
C528 C525 1.391 . S
C528 C527 1.392 . S
N529 Co473 2.257 . S
N529 C526 1.391 . S
N529 C530 1.388 . S
C530 H501 0.930 . S
C530 C525 1.391 . S
C530 N529 1.388 . S
Co531 O533 2.143 . S
Co531 O539 2.074 . S
Co531 O542 2.093 . S
Co531 O555 2.097 . S
Co531 N572 2.151 . S
Co531 N580 2.214 . S
Co532 O533 2.160 . S
Co532 O538 2.058 . S
Co532 O548 2.057 . S
Co532 O563 2.037 . S
Co532 N567 2.145 . S
Co532 N588 2.257 . S
O533 Co531 2.143 . S
O533 Co532 2.160 . S
C534 O535 1.278 . S
C534 O542 1.224 . S
O535 C534 1.278 . S
C536 O537 1.245 . S
C536 O548 1.232 . S
O537 C536 1.245 . S
O538 Co532 2.058 . S
O538 C564 1.269 . S
O539 Co531 2.074 . S
O539 C564 1.257 . S
H540 C565 0.930 . S
H541 C571 0.930 . S
O542 Co531 2.093 . S
O542 C534 1.224 . S
H543 C575 0.929 . S
H544 C577 0.930 . S
H545 C578 0.930 . S
H546 C576 0.929 . S
H547 C579 0.928 . S
O548 Co532 2.057 . S
O548 C536 1.232 . S
H549 C568 0.929 . S
H550 C569 0.929 . S
H551 C581 0.931 . S
H552 C573 0.929 . S
H553 C582 0.930 . S
H554 C574 0.931 . S
O555 Co531 2.097 . S
O555 C583 1.214 . S
H556 C584 0.929 . S
H557 C585 0.929 . S
H558 C586 0.930 . S
H559 C587 0.929 . S
H560 C589 0.930 . S
H561 C566 0.930 . S
H562 C570 0.930 . S
O563 Co532 2.037 . S
O563 C583 1.234 . S
C564 O538 1.269 . S
C564 O539 1.257 . S
C565 H540 0.930 . S
C565 C568 1.388 . S
C565 C570 1.418 . S
C566 H561 0.930 . S
C566 C569 1.404 . S
C566 C570 1.353 . S
N567 Co532 2.145 . S
N567 C568 1.397 . S
N567 C569 1.334 . S
C568 H549 0.929 . S
C568 C565 1.388 . S
C568 N567 1.397 . S
C569 H550 0.929 . S
C569 C566 1.404 . S
C569 N567 1.334 . S
C570 H562 0.930 . S
C570 C565 1.418 . S
C570 C566 1.353 . S
C571 H541 0.930 . S
C571 N572 1.330 . S
C571 C573 1.446 . S
N572 Co531 2.151 . S
N572 C571 1.330 . S
N572 C576 1.418 . S
C573 H552 0.929 . S
C573 C571 1.446 . S
C573 C574 1.332 . S
C574 H554 0.931 . S
C574 C573 1.332 . S
C574 C575 1.267 . S
C575 H543 0.929 . S
C575 C574 1.267 . S
C575 C576 1.251 . S
C576 H546 0.929 . S
C576 N572 1.418 . S
C576 C575 1.251 . S
C577 H544 0.930 . S
C577 C579 1.406 . S
C577 C582 1.261 . S
C578 H545 0.930 . S
C578 N580 1.325 . S
C578 C581 1.357 . S
C579 H547 0.928 . S
C579 C577 1.406 . S
C579 N580 1.261 . S
N580 Co531 2.214 . S
N580 C578 1.325 . S
N580 C579 1.261 . S
C581 H551 0.931 . S
C581 C578 1.357 . S
C581 C582 1.312 . S
C582 H553 0.930 . S
C582 C577 1.261 . S
C582 C581 1.312 . S
C583 O555 1.214 . S
C583 O563 1.234 . S
C584 H556 0.929 . S
C584 C587 1.391 . S
C584 C589 1.391 . S
C585 H557 0.929 . S
C585 C586 1.390 . S
C585 N588 1.391 . S
C586 H558 0.930 . S
C586 C585 1.390 . S
C586 C587 1.392 . S
C587 H559 0.929 . S
C587 C584 1.391 . S
C587 C586 1.392 . S
N588 Co532 2.257 . S
N588 C585 1.391 . S
N588 C589 1.388 . S
C589 H560 0.930 . S
C589 C584 1.391 . S
C589 N588 1.388 . S
Co590 O592 2.143 . S
Co590 O598 2.074 . S
Co590 O601 2.093 . S
Co590 O614 2.097 . S
Co590 N631 2.151 . S
Co590 N639 2.214 . S
Co591 O592 2.160 . S
Co591 O597 2.058 . S
Co591 O607 2.057 . S
Co591 O622 2.037 . S
Co591 N626 2.145 . S
Co591 N647 2.257 . S
O592 Co590 2.143 . S
O592 Co591 2.160 . S
C593 O594 1.278 . S
C593 O601 1.224 . S
O594 C593 1.278 . S
C595 O596 1.245 . S
C595 O607 1.232 . S
O596 C595 1.245 . S
O597 Co591 2.058 . S
O597 C623 1.269 . S
O598 Co590 2.074 . S
O598 C623 1.257 . S
H599 C624 0.930 . S
H600 C630 0.930 . S
O601 Co590 2.093 . S
O601 C593 1.224 . S
H602 C634 0.929 . S
H603 C636 0.930 . S
H604 C637 0.930 . S
H605 C635 0.929 . S
H606 C638 0.928 . S
O607 Co591 2.057 . S
O607 C595 1.232 . S
H608 C627 0.929 . S
H609 C628 0.929 . S
H610 C640 0.931 . S
H611 C632 0.929 . S
H612 C641 0.930 . S
H613 C633 0.931 . S
O614 Co590 2.097 . S
O614 C642 1.214 . S
H615 C643 0.929 . S
H616 C644 0.929 . S
H617 C645 0.930 . S
H618 C646 0.929 . S
H619 C648 0.930 . S
H620 C625 0.930 . S
H621 C629 0.930 . S
O622 Co591 2.037 . S
O622 C642 1.234 . S
C623 O597 1.269 . S
C623 O598 1.257 . S
C624 H599 0.930 . S
C624 C627 1.388 . S
C624 C629 1.418 . S
C625 H620 0.930 . S
C625 C628 1.404 1_655 S
C625 C629 1.353 . S
N626 Co591 2.145 . S
N626 C627 1.397 1_455 S
N626 C628 1.334 . S
C627 H608 0.929 . S
C627 C624 1.388 . S
C627 N626 1.397 1_655 S
C628 H609 0.929 . S
C628 C625 1.404 1_455 S
C628 N626 1.334 . S
C629 H621 0.930 . S
C629 C624 1.418 . S
C629 C625 1.353 . S
C630 H600 0.930 . S
C630 N631 1.330 . S
C630 C632 1.446 . S
N631 Co590 2.151 . S
N631 C630 1.330 . S
N631 C635 1.418 . S
C632 H611 0.929 . S
C632 C630 1.446 . S
C632 C633 1.332 . S
C633 H613 0.931 . S
C633 C632 1.332 . S
C633 C634 1.267 . S
C634 H602 0.929 . S
C634 C633 1.267 . S
C634 C635 1.251 . S
C635 H605 0.929 . S
C635 N631 1.418 . S
C635 C634 1.251 . S
C636 H603 0.930 . S
C636 C638 1.406 . S
C636 C641 1.261 . S
C637 H604 0.930 . S
C637 N639 1.325 . S
C637 C640 1.357 . S
C638 H606 0.928 . S
C638 C636 1.406 . S
C638 N639 1.261 . S
N639 Co590 2.214 . S
N639 C637 1.325 . S
N639 C638 1.261 . S
C640 H610 0.931 . S
C640 C637 1.357 . S
C640 C641 1.312 . S
C641 H612 0.930 . S
C641 C636 1.261 . S
C641 C640 1.312 . S
C642 O614 1.214 . S
C642 O622 1.234 . S
C643 H615 0.929 . S
C643 C646 1.391 . S
C643 C648 1.391 . S
C644 H616 0.929 . S
C644 C645 1.390 . S
C644 N647 1.391 . S
C645 H617 0.930 . S
C645 C644 1.390 . S
C645 C646 1.392 . S
C646 H618 0.929 . S
C646 C643 1.391 . S
C646 C645 1.392 . S
N647 Co591 2.257 . S
N647 C644 1.391 . S
N647 C648 1.388 . S
C648 H619 0.930 . S
C648 C643 1.391 . S
C648 N647 1.388 . S
Co649 O651 2.143 . S
Co649 O657 2.074 . S
Co649 O660 2.093 . S
Co649 O673 2.097 . S
Co649 N690 2.151 . S
Co649 N698 2.214 . S
Co650 O651 2.160 . S
Co650 O656 2.058 . S
Co650 O666 2.057 . S
Co650 O681 2.037 . S
Co650 N685 2.145 . S
Co650 N706 2.257 . S
O651 Co649 2.143 . S
O651 Co650 2.160 . S
C652 O653 1.278 . S
C652 O660 1.224 . S
O653 C652 1.278 . S
C654 O655 1.245 . S
C654 O666 1.232 . S
O655 C654 1.245 . S
O656 Co650 2.058 . S
O656 C682 1.269 . S
O657 Co649 2.074 . S
O657 C682 1.257 . S
H658 C683 0.930 . S
H659 C689 0.930 . S
O660 Co649 2.093 . S
O660 C652 1.224 . S
H661 C693 0.929 . S
H662 C695 0.930 . S
H663 C696 0.930 . S
H664 C694 0.929 . S
H665 C697 0.928 . S
O666 Co650 2.057 . S
O666 C654 1.232 . S
H667 C686 0.929 . S
H668 C687 0.929 . S
H669 C699 0.931 . S
H670 C691 0.929 . S
H671 C700 0.930 . S
H672 C692 0.931 . S
O673 Co649 2.097 . S
O673 C701 1.214 . S
H674 C702 0.929 . S
H675 C703 0.929 . S
H676 C704 0.930 . S
H677 C705 0.929 . S
H678 C707 0.930 . S
H679 C684 0.930 . S
H680 C688 0.930 . S
O681 Co650 2.037 . S
O681 C701 1.234 . S
C682 O656 1.269 . S
C682 O657 1.257 . S
C683 H658 0.930 . S
C683 C686 1.388 . S
C683 C688 1.418 . S
C684 H679 0.930 . S
C684 C687 1.404 1_565 S
C684 C688 1.353 . S
N685 Co650 2.145 . S
N685 C686 1.397 1_545 S
N685 C687 1.334 . S
C686 H667 0.929 . S
C686 C683 1.388 . S
C686 N685 1.397 1_565 S
C687 H668 0.929 . S
C687 C684 1.404 1_545 S
C687 N685 1.334 . S
C688 H680 0.930 . S
C688 C683 1.418 . S
C688 C684 1.353 . S
C689 H659 0.930 . S
C689 N690 1.330 . S
C689 C691 1.446 . S
N690 Co649 2.151 . S
N690 C689 1.330 . S
N690 C694 1.418 . S
C691 H670 0.929 . S
C691 C689 1.446 . S
C691 C692 1.332 . S
C692 H672 0.931 . S
C692 C691 1.332 . S
C692 C693 1.267 . S
C693 H661 0.929 . S
C693 C692 1.267 . S
C693 C694 1.251 . S
C694 H664 0.929 . S
C694 N690 1.418 . S
C694 C693 1.251 . S
C695 H662 0.930 . S
C695 C697 1.406 . S
C695 C700 1.261 . S
C696 H663 0.930 . S
C696 N698 1.325 . S
C696 C699 1.357 . S
C697 H665 0.928 . S
C697 C695 1.406 . S
C697 N698 1.261 . S
N698 Co649 2.214 . S
N698 C696 1.325 . S
N698 C697 1.261 . S
C699 H669 0.931 . S
C699 C696 1.357 . S
C699 C700 1.312 . S
C700 H671 0.930 . S
C700 C695 1.261 . S
C700 C699 1.312 . S
C701 O673 1.214 . S
C701 O681 1.234 . S
C702 H674 0.929 . S
C702 C705 1.391 . S
C702 C707 1.391 . S
C703 H675 0.929 . S
C703 C704 1.390 . S
C703 N706 1.391 . S
C704 H676 0.930 . S
C704 C703 1.390 . S
C704 C705 1.392 . S
C705 H677 0.929 . S
C705 C702 1.391 . S
C705 C704 1.392 . S
N706 Co650 2.257 . S
N706 C703 1.391 . S
N706 C707 1.388 . S
C707 H678 0.930 . S
C707 C702 1.391 . S
C707 N706 1.388 . S
H708 C714 0.930 . S
H709 C718 0.930 . S
H710 C723 0.929 . S
H711 C721 0.929 . S
H712 C716 0.929 . S
H713 C722 0.929 . S
C714 H708 0.930 . S
C714 C715 1.367 . S
C714 C722 1.378 . S
C715 C714 1.367 . S
C715 C723 1.433 . S
C716 H712 0.929 . S
C716 C718 1.378 . S
C716 C720 1.350 . S
C717 C720 1.463 . S
C717 C722 1.350 . S
C717 N725 1.427 . S
C718 H709 0.930 . S
C718 C716 1.378 . S
C718 C719 1.367 . S
C719 C718 1.367 . S
C719 C721 1.433 . S
C720 C716 1.350 . S
C720 C717 1.463 . S
C720 N724 1.427 . S
C721 H711 0.929 . S
C721 C719 1.433 . S
C721 N724 1.384 . S
C722 H713 0.929 . S
C722 C714 1.378 . S
C722 C717 1.350 . S
C723 H710 0.929 . S
C723 C715 1.433 . S
C723 N725 1.384 . S
N724 C720 1.427 . S
N724 C721 1.384 . S
N725 C717 1.427 . S
N725 C723 1.384 . S
H726 C732 0.930 . S
H727 C736 0.930 . S
H728 C741 0.929 . S
H729 C739 0.929 . S
H730 C734 0.929 . S
H731 C740 0.929 . S
C732 H726 0.930 . S
C732 C733 1.367 . S
C732 C740 1.378 . S
C733 C732 1.367 . S
C733 C741 1.433 . S
C734 H730 0.929 . S
C734 C736 1.378 . S
C734 C738 1.350 . S
C735 C738 1.463 . S
C735 C740 1.350 . S
C735 N743 1.427 . S
C736 H727 0.930 . S
C736 C734 1.378 . S
C736 C737 1.367 . S
C737 C736 1.367 . S
C737 C739 1.433 . S
C738 C734 1.350 . S
C738 C735 1.463 . S
C738 N742 1.427 . S
C739 H729 0.929 . S
C739 C737 1.433 . S
C739 N742 1.384 . S
C740 H731 0.929 . S
C740 C732 1.378 . S
C740 C735 1.350 . S
C741 H728 0.929 . S
C741 C733 1.433 . S
C741 N743 1.384 . S
N742 C738 1.427 . S
N742 C739 1.384 . S
N743 C735 1.427 . S
N743 C741 1.384 . S
H744 C750 0.930 . S
H745 C754 0.930 . S
H746 C759 0.929 . S
H747 C757 0.929 . S
H748 C752 0.929 . S
H749 C758 0.929 . S
C750 H744 0.930 . S
C750 C751 1.367 . S
C750 C758 1.378 . S
C751 C750 1.367 . S
C751 C759 1.433 . S
C752 H748 0.929 . S
C752 C754 1.378 . S
C752 C756 1.350 . S
C753 C756 1.463 . S
C753 C758 1.350 . S
C753 N761 1.427 . S
C754 H745 0.930 . S
C754 C752 1.378 . S
C754 C755 1.367 . S
C755 C754 1.367 . S
C755 C757 1.433 . S
C756 C752 1.350 . S
C756 C753 1.463 . S
C756 N760 1.427 . S
C757 H747 0.929 . S
C757 C755 1.433 . S
C757 N760 1.384 . S
C758 H749 0.929 . S
C758 C750 1.378 . S
C758 C753 1.350 . S
C759 H746 0.929 . S
C759 C751 1.433 . S
C759 N761 1.384 . S
N760 C756 1.427 . S
N760 C757 1.384 . S
N761 C753 1.427 . S
N761 C759 1.384 . S
H762 C768 0.930 . S
H763 C772 0.930 . S
H764 C777 0.929 . S
H765 C775 0.929 . S
H766 C770 0.929 . S
H767 C776 0.929 . S
C768 H762 0.930 . S
C768 C769 1.367 . S
C768 C776 1.378 . S
C769 C768 1.367 . S
C769 C777 1.433 . S
C770 H766 0.929 . S
C770 C772 1.378 . S
C770 C774 1.350 . S
C771 C774 1.463 . S
C771 C776 1.350 . S
C771 N779 1.427 . S
C772 H763 0.930 . S
C772 C770 1.378 . S
C772 C773 1.367 . S
C773 C772 1.367 . S
C773 C775 1.433 . S
C774 C770 1.350 . S
C774 C771 1.463 . S
C774 N778 1.427 . S
C775 H765 0.929 . S
C775 C773 1.433 . S
C775 N778 1.384 . S
C776 H767 0.929 . S
C776 C768 1.378 . S
C776 C771 1.350 . S
C777 H764 0.929 . S
C777 C769 1.433 . S
C777 N779 1.384 . S
N778 C774 1.427 . S
N778 C775 1.384 . S
N779 C771 1.427 . S
N779 C777 1.384 . S
H780 C786 0.930 . S
H781 C790 0.930 . S
H782 C795 0.929 . S
H783 C793 0.929 . S
H784 C788 0.929 . S
H785 C794 0.929 . S
C786 H780 0.930 . S
C786 C787 1.367 . S
C786 C794 1.378 . S
C787 C786 1.367 . S
C787 C795 1.433 . S
C788 H784 0.929 . S
C788 C790 1.378 . S
C788 C792 1.350 . S
C789 C792 1.463 . S
C789 C794 1.350 . S
C789 N797 1.427 . S
C790 H781 0.930 . S
C790 C788 1.378 . S
C790 C791 1.367 . S
C791 C790 1.367 . S
C791 C793 1.433 . S
C792 C788 1.350 . S
C792 C789 1.463 . S
C792 N796 1.427 . S
C793 H783 0.929 . S
C793 C791 1.433 . S
C793 N796 1.384 . S
C794 H785 0.929 . S
C794 C786 1.378 . S
C794 C789 1.350 . S
C795 H782 0.929 . S
C795 C787 1.433 . S
C795 N797 1.384 . S
N796 C792 1.427 . S
N796 C793 1.384 . S
N797 C789 1.427 . S
N797 C795 1.384 . S
H798 C804 0.930 . S
H799 C808 0.930 . S
H800 C813 0.929 . S
H801 C811 0.929 . S
H802 C806 0.929 . S
H803 C812 0.929 . S
C804 H798 0.930 . S
C804 C805 1.367 . S
C804 C812 1.378 . S
C805 C804 1.367 . S
C805 C813 1.433 . S
C806 H802 0.929 . S
C806 C808 1.378 . S
C806 C810 1.350 . S
C807 C810 1.463 . S
C807 C812 1.350 . S
C807 N815 1.427 . S
C808 H799 0.930 . S
C808 C806 1.378 . S
C808 C809 1.367 . S
C809 C808 1.367 . S
C809 C811 1.433 . S
C810 C806 1.350 . S
C810 C807 1.463 . S
C810 N814 1.427 . S
C811 H801 0.929 . S
C811 C809 1.433 . S
C811 N814 1.384 . S
C812 H803 0.929 . S
C812 C804 1.378 . S
C812 C807 1.350 . S
C813 H800 0.929 . S
C813 C805 1.433 . S
C813 N815 1.384 . S
N814 C810 1.427 . S
N814 C811 1.384 . S
N815 C807 1.427 . S
N815 C813 1.384 . S
H816 C822 0.930 . S
H817 C826 0.930 . S
H818 C831 0.929 . S
H819 C829 0.929 . S
H820 C824 0.929 . S
H821 C830 0.929 . S
C822 H816 0.930 . S
C822 C823 1.367 . S
C822 C830 1.378 . S
C823 C822 1.367 . S
C823 C831 1.433 . S
C824 H820 0.929 . S
C824 C826 1.378 . S
C824 C828 1.350 . S
C825 C828 1.463 . S
C825 C830 1.350 . S
C825 N833 1.427 . S
C826 H817 0.930 . S
C826 C824 1.378 . S
C826 C827 1.367 . S
C827 C826 1.367 . S
C827 C829 1.433 . S
C828 C824 1.350 . S
C828 C825 1.463 . S
C828 N832 1.427 . S
C829 H819 0.929 . S
C829 C827 1.433 . S
C829 N832 1.384 . S
C830 H821 0.929 . S
C830 C822 1.378 . S
C830 C825 1.350 . S
C831 H818 0.929 . S
C831 C823 1.433 . S
C831 N833 1.384 . S
N832 C828 1.427 . S
N832 C829 1.384 . S
N833 C825 1.427 . S
N833 C831 1.384 . S
H834 C840 0.930 . S
H835 C844 0.930 . S
H836 C849 0.929 1_655 S
H837 C847 0.929 1_455 S
H838 C842 0.929 . S
H839 C848 0.929 . S
C840 H834 0.930 . S
C840 C841 1.367 . S
C840 C848 1.378 . S
C841 C840 1.367 . S
C841 C849 1.433 . S
C842 H838 0.929 . S
C842 C844 1.378 . S
C842 C846 1.350 . S
C843 C846 1.463 1_455 S
C843 C848 1.350 . S
C843 N851 1.427 1_455 S
C844 H835 0.930 . S
C844 C842 1.378 . S
C844 C845 1.367 . S
C845 C844 1.367 . S
C845 C847 1.433 . S
C846 C842 1.350 . S
C846 C843 1.463 1_655 S
C846 N850 1.427 1_655 S
C847 H837 0.929 1_655 S
C847 C845 1.433 . S
C847 N850 1.384 1_655 S
C848 H839 0.929 . S
C848 C840 1.378 . S
C848 C843 1.350 . S
C849 H836 0.929 1_455 S
C849 C841 1.433 . S
C849 N851 1.384 1_455 S
N850 C846 1.427 1_455 S
N850 C847 1.384 1_455 S
N851 C843 1.427 1_655 S
N851 C849 1.384 1_655 S
H852 C858 0.930 . S
H853 C862 0.930 . S
H854 C867 0.929 . S
H855 C865 0.929 . S
H856 C860 0.929 . S
H857 C866 0.929 . S
C858 H852 0.930 . S
C858 C859 1.367 . S
C858 C866 1.378 . S
C859 C858 1.367 . S
C859 C867 1.433 . S
C860 H856 0.929 . S
C860 C862 1.378 . S
C860 C864 1.350 . S
C861 C864 1.463 1_545 S
C861 C866 1.350 . S
C861 N869 1.427 . S
C862 H853 0.930 . S
C862 C860 1.378 . S
C862 C863 1.367 . S
C863 C862 1.367 . S
C863 C865 1.433 . S
C864 C860 1.350 . S
C864 C861 1.463 1_565 S
C864 N868 1.427 . S
C865 H855 0.929 . S
C865 C863 1.433 . S
C865 N868 1.384 . S
C866 H857 0.929 . S
C866 C858 1.378 . S
C866 C861 1.350 . S
C867 H854 0.929 . S
C867 C859 1.433 . S
C867 N869 1.384 . S
N868 C864 1.427 . S
N868 C865 1.384 . S
N869 C861 1.427 . S
N869 C867 1.384 . S
H870 C876 0.930 . S
H871 C880 0.930 . S
H872 C885 0.929 . S
H873 C883 0.929 . S
H874 C878 0.929 . S
H875 C884 0.929 . S
C876 H870 0.930 . S
C876 C877 1.367 . S
C876 C884 1.378 . S
C877 C876 1.367 . S
C877 C885 1.433 . S
C878 H874 0.929 . S
C878 C880 1.378 . S
C878 C882 1.350 . S
C879 C882 1.463 . S
C879 C884 1.350 . S
C879 N887 1.427 . S
C880 H871 0.930 . S
C880 C878 1.378 . S
C880 C881 1.367 . S
C881 C880 1.367 . S
C881 C883 1.433 . S
C882 C878 1.350 . S
C882 C879 1.463 . S
C882 N886 1.427 . S
C883 H873 0.929 . S
C883 C881 1.433 . S
C883 N886 1.384 . S
C884 H875 0.929 . S
C884 C876 1.378 . S
C884 C879 1.350 . S
C885 H872 0.929 . S
C885 C877 1.433 . S
C885 N887 1.384 . S
N886 C882 1.427 . S
N886 C883 1.384 . S
N887 C879 1.427 . S
N887 C885 1.384 . S
H888 C894 0.930 . S
H889 C898 0.930 . S
H890 C903 0.929 . S
H891 C901 0.929 . S
H892 C896 0.929 . S
H893 C902 0.929 . S
C894 H888 0.930 . S
C894 C895 1.367 . S
C894 C902 1.378 . S
C895 C894 1.367 . S
C895 C903 1.433 . S
C896 H892 0.929 . S
C896 C898 1.378 . S
C896 C900 1.350 . S
C897 C900 1.463 1_655 S
C897 C902 1.350 . S
C897 N905 1.427 . S
C898 H889 0.930 . S
C898 C896 1.378 . S
C898 C899 1.367 . S
C899 C898 1.367 . S
C899 C901 1.433 . S
C900 C896 1.350 . S
C900 C897 1.463 1_455 S
C900 N904 1.427 . S
C901 H891 0.929 . S
C901 C899 1.433 . S
C901 N904 1.384 . S
C902 H893 0.929 . S
C902 C894 1.378 . S
C902 C897 1.350 . S
C903 H890 0.929 . S
C903 C895 1.433 . S
C903 N905 1.384 . S
N904 C900 1.427 . S
N904 C901 1.384 . S
N905 C897 1.427 . S
N905 C903 1.384 . S
H906 C912 0.930 . S
H907 C916 0.930 . S
H908 C921 0.929 1_545 S
H909 C919 0.929 1_565 S
H910 C914 0.929 . S
H911 C920 0.929 . S
C912 H906 0.930 . S
C912 C913 1.367 . S
C912 C920 1.378 . S
C913 C912 1.367 . S
C913 C921 1.433 . S
C914 H910 0.929 . S
C914 C916 1.378 . S
C914 C918 1.350 . S
C915 C918 1.463 1_565 S
C915 C920 1.350 . S
C915 N923 1.427 1_565 S
C916 H907 0.930 . S
C916 C914 1.378 . S
C916 C917 1.367 . S
C917 C916 1.367 . S
C917 C919 1.433 . S
C918 C914 1.350 . S
C918 C915 1.463 1_545 S
C918 N922 1.427 1_545 S
C919 H909 0.929 1_545 S
C919 C917 1.433 . S
C919 N922 1.384 1_545 S
C920 H911 0.929 . S
C920 C912 1.378 . S
C920 C915 1.350 . S
C921 H908 0.929 1_565 S
C921 C913 1.433 . S
C921 N923 1.384 1_565 S
N922 C918 1.427 1_565 S
N922 C919 1.384 1_565 S
N923 C915 1.427 1_545 S
N923 C921 1.384 1_545 S
H924 C930 0.930 . S
H925 C934 0.930 . S
H926 C939 0.929 . S
H927 C937 0.929 . S
H928 C932 0.929 . S
H929 C938 0.929 . S
C930 H924 0.930 . S
C930 C931 1.367 . S
C930 C938 1.378 . S
C931 C930 1.367 . S
C931 C939 1.433 . S
C932 H928 0.929 . S
C932 C934 1.378 . S
C932 C936 1.350 . S
C933 C936 1.463 . S
C933 C938 1.350 . S
C933 N941 1.427 . S
C934 H925 0.930 . S
C934 C932 1.378 . S
C934 C935 1.367 . S
C935 C934 1.367 . S
C935 C937 1.433 . S
C936 C932 1.350 . S
C936 C933 1.463 . S
C936 N940 1.427 . S
C937 H927 0.929 . S
C937 C935 1.433 . S
C937 N940 1.384 . S
C938 H929 0.929 . S
C938 C930 1.378 . S
C938 C933 1.350 . S
C939 H926 0.929 . S
C939 C931 1.433 . S
C939 N941 1.384 . S
N940 C936 1.427 . S
N940 C937 1.384 . S
N941 C933 1.427 . S
N941 C939 1.384 . S
H942 C948 0.930 . S
H943 C952 0.930 . S
H944 C957 0.929 . S
H945 C955 0.929 . S
H946 C950 0.929 . S
H947 C956 0.929 . S
C948 H942 0.930 . S
C948 C949 1.367 . S
C948 C956 1.378 . S
C949 C948 1.367 . S
C949 C957 1.433 . S
C950 H946 0.929 . S
C950 C952 1.378 . S
C950 C954 1.350 . S
C951 C954 1.463 1_655 S
C951 C956 1.350 . S
C951 N959 1.427 . S
C952 H943 0.930 . S
C952 C950 1.378 . S
C952 C953 1.367 . S
C953 C952 1.367 . S
C953 C955 1.433 . S
C954 C950 1.350 . S
C954 C951 1.463 1_455 S
C954 N958 1.427 . S
C955 H945 0.929 . S
C955 C953 1.433 . S
C955 N958 1.384 . S
C956 H947 0.929 . S
C956 C948 1.378 . S
C956 C951 1.350 . S
C957 H944 0.929 . S
C957 C949 1.433 . S
C957 N959 1.384 . S
N958 C954 1.427 . S
N958 C955 1.384 . S
N959 C951 1.427 . S
N959 C957 1.384 . S
H960 C966 0.944 . S
H961 C970 0.944 . S
H962 C975 0.929 . S
H963 C973 0.929 . S
H964 C968 0.929 . S
H965 C974 0.929 . S
C966 H960 0.944 . S
C966 C967 1.367 . S
C966 C974 1.378 1_565 S
C967 C966 1.367 . S
C967 C975 1.433 . S
C968 H964 0.929 . S
C968 C970 1.378 1_565 S
C968 C972 1.350 1_565 S
C969 C972 1.463 1_566 S
C969 C974 1.350 1_565 S
C969 N977 1.427 . S
C970 H961 0.944 . S
C970 C968 1.378 1_545 S
C970 C971 1.367 . S
C971 C970 1.367 . S
C971 C973 1.433 . S
C972 C968 1.350 1_545 S
C972 C969 1.463 1_544 S
C972 N976 1.427 . S
C973 H963 0.929 . S
C973 C971 1.433 . S
C973 N976 1.384 . S
C974 H965 0.929 . S
C974 C966 1.378 1_545 S
C974 C969 1.350 1_545 S
C975 H962 0.929 . S
C975 C967 1.433 . S
C975 N977 1.384 . S
N976 C972 1.427 . S
N976 C973 1.384 . S
N977 C969 1.427 . S
N977 C975 1.384 . S
H978 C984 0.930 . S
H979 C988 0.930 . S
H980 C993 0.929 . S
H981 C991 0.929 . S
H982 C986 0.929 . S
H983 C992 0.929 . S
C984 H978 0.930 . S
C984 C985 1.367 . S
C984 C992 1.378 . S
C985 C984 1.367 . S
C985 C993 1.433 . S
C986 H982 0.929 . S
C986 C988 1.378 . S
C986 C990 1.350 . S
C987 C990 1.463 . S
C987 C992 1.350 . S
C987 N995 1.427 . S
C988 H979 0.930 . S
C988 C986 1.378 . S
C988 C989 1.367 . S
C989 C988 1.367 . S
C989 C991 1.433 . S
C990 C986 1.350 . S
C990 C987 1.463 . S
C990 N994 1.427 . S
C991 H981 0.929 . S
C991 C989 1.433 . S
C991 N994 1.384 . S
C992 H983 0.929 . S
C992 C984 1.378 . S
C992 C987 1.350 . S
C993 H980 0.929 . S
C993 C985 1.433 . S
C993 N995 1.384 . S
N994 C990 1.427 . S
N994 C991 1.384 . S
N995 C987 1.427 . S
N995 C993 1.384 . S
H996 C1002 0.930 . S
H997 C1006 0.930 . S
H998 C1011 0.929 . S
H999 C1009 0.929 . S
H1000 C1004 0.929 . S
H1001 C1010 0.929 . S
C1002 H996 0.930 . S
C1002 C1003 1.367 . S
C1002 C1010 1.378 . S
C1003 C1002 1.367 . S
C1003 C1011 1.433 . S
C1004 H1000 0.929 . S
C1004 C1006 1.378 . S
C1004 C1008 1.350 . S
C1005 C1008 1.463 1_455 S
C1005 C1010 1.350 . S
C1005 N1013 1.427 . S
C1006 H997 0.930 . S
C1006 C1004 1.378 . S
C1006 C1007 1.367 . S
C1007 C1006 1.367 . S
C1007 C1009 1.433 . S
C1008 C1004 1.350 . S
C1008 C1005 1.463 1_655 S
C1008 N1012 1.427 . S
C1009 H999 0.929 . S
C1009 C1007 1.433 . S
C1009 N1012 1.384 . S
C1010 H1001 0.929 . S
C1010 C1002 1.378 . S
C1010 C1005 1.350 . S
C1011 H998 0.929 . S
C1011 C1003 1.433 . S
C1011 N1013 1.384 . S
N1012 C1008 1.427 . S
N1012 C1009 1.384 . S
N1013 C1005 1.427 . S
N1013 C1011 1.384 . S
H1014 C1020 0.930 1_545 S
H1015 C1024 0.930 1_565 S
H1016 C1029 0.929 . S
H1017 C1027 0.929 . S
H1018 C1022 0.929 . S
H1019 C1028 0.929 . S
C1020 H1014 0.930 1_565 S
C1020 C1021 1.367 . S
C1020 C1028 1.378 1_565 S
C1021 C1020 1.367 . S
C1021 C1029 1.433 . S
C1022 H1018 0.929 . S
C1022 C1024 1.378 1_565 S
C1022 C1026 1.350 1_565 S
C1023 C1026 1.463 1_564 S
C1023 C1028 1.350 1_565 S
C1023 N1031 1.427 . S
C1024 H1015 0.930 1_545 S
C1024 C1022 1.378 1_545 S
C1024 C1025 1.367 . S
C1025 C1024 1.367 . S
C1025 C1027 1.433 . S
C1026 C1022 1.350 1_545 S
C1026 C1023 1.463 1_546 S
C1026 N1030 1.427 . S
C1027 H1017 0.929 . S
C1027 C1025 1.433 . S
C1027 N1030 1.384 . S
C1028 H1019 0.929 . S
C1028 C1020 1.378 1_545 S
C1028 C1023 1.350 1_545 S
C1029 H1016 0.929 . S
C1029 C1021 1.433 . S
C1029 N1031 1.384 . S
N1030 C1026 1.427 . S
N1030 C1027 1.384 . S
N1031 C1023 1.427 . S
N1031 C1029 1.384 . S
H1032 C1038 0.930 . S
H1033 C1042 0.930 . S
H1034 C1047 0.929 . S
H1035 C1045 0.929 . S
H1036 C1040 0.929 . S
H1037 C1046 0.929 . S
C1038 H1032 0.930 . S
C1038 C1039 1.367 . S
C1038 C1046 1.378 . S
C1039 C1038 1.367 . S
C1039 C1047 1.433 . S
C1040 H1036 0.929 . S
C1040 C1042 1.378 . S
C1040 C1044 1.350 . S
C1041 C1044 1.463 1_655 S
C1041 C1046 1.350 . S
C1041 N1049 1.427 . S
C1042 H1033 0.930 . S
C1042 C1040 1.378 . S
C1042 C1043 1.367 . S
C1043 C1042 1.367 . S
C1043 C1045 1.433 . S
C1044 C1040 1.350 . S
C1044 C1041 1.463 1_455 S
C1044 N1048 1.427 . S
C1045 H1035 0.929 . S
C1045 C1043 1.433 . S
C1045 N1048 1.384 . S
C1046 H1037 0.929 . S
C1046 C1038 1.378 . S
C1046 C1041 1.350 . S
C1047 H1034 0.929 . S
C1047 C1039 1.433 . S
C1047 N1049 1.384 . S
N1048 C1044 1.427 . S
N1048 C1045 1.384 . S
N1049 C1041 1.427 . S
N1049 C1047 1.384 . S
H1050 C1056 0.930 . S
H1051 C1060 0.930 . S
H1052 C1065 0.929 . S
H1053 C1063 0.929 . S
H1054 C1058 0.929 . S
H1055 C1064 0.929 . S
C1056 H1050 0.930 . S
C1056 C1057 1.367 . S
C1056 C1064 1.378 . S
C1057 C1056 1.367 . S
C1057 C1065 1.433 . S
C1058 H1054 0.929 . S
C1058 C1060 1.378 . S
C1058 C1062 1.350 . S
C1059 C1062 1.463 1_545 S
C1059 C1064 1.350 . S
C1059 N1067 1.427 . S
C1060 H1051 0.930 . S
C1060 C1058 1.378 . S
C1060 C1061 1.367 . S
C1061 C1060 1.367 . S
C1061 C1063 1.433 . S
C1062 C1058 1.350 . S
C1062 C1059 1.463 1_565 S
C1062 N1066 1.427 . S
C1063 H1053 0.929 . S
C1063 C1061 1.433 . S
C1063 N1066 1.384 . S
C1064 H1055 0.929 . S
C1064 C1056 1.378 . S
C1064 C1059 1.350 . S
C1065 H1052 0.929 . S
C1065 C1057 1.433 . S
C1065 N1067 1.384 . S
N1066 C1062 1.427 . S
N1066 C1063 1.384 . S
N1067 C1059 1.427 . S
N1067 C1065 1.384 . S
H1068 C1074 0.930 . S
H1069 C1078 0.930 . S
H1070 C1083 0.929 . S
H1071 C1081 0.929 . S
H1072 C1076 0.929 . S
H1073 C1082 0.929 . S
C1074 H1068 0.930 . S
C1074 C1075 1.367 . S
C1074 C1082 1.378 . S
C1075 C1074 1.367 . S
C1075 C1083 1.433 . S
C1076 H1072 0.929 . S
C1076 C1078 1.378 . S
C1076 C1080 1.350 . S
C1077 C1080 1.463 . S
C1077 C1082 1.350 . S
C1077 N1085 1.427 . S
C1078 H1069 0.930 . S
C1078 C1076 1.378 . S
C1078 C1079 1.367 . S
C1079 C1078 1.367 . S
C1079 C1081 1.433 . S
C1080 C1076 1.350 . S
C1080 C1077 1.463 . S
C1080 N1084 1.427 . S
C1081 H1071 0.929 . S
C1081 C1079 1.433 . S
C1081 N1084 1.384 . S
C1082 H1073 0.929 . S
C1082 C1074 1.378 . S
C1082 C1077 1.350 . S
C1083 H1070 0.929 . S
C1083 C1075 1.433 . S
C1083 N1085 1.384 . S
N1084 C1080 1.427 . S
N1084 C1081 1.384 . S
N1085 C1077 1.427 . S
N1085 C1083 1.384 . S
H1086 C1092 0.930 . S
H1087 C1096 0.930 . S
H1088 C1101 0.929 . S
H1089 C1099 0.929 . S
H1090 C1094 0.929 . S
H1091 C1100 0.929 . S
C1092 H1086 0.930 . S
C1092 C1093 1.367 . S
C1092 C1100 1.378 . S
C1093 C1092 1.367 . S
C1093 C1101 1.433 . S
C1094 H1090 0.929 . S
C1094 C1096 1.378 . S
C1094 C1098 1.350 . S
C1095 C1098 1.463 1_655 S
C1095 C1100 1.350 . S
C1095 N1103 1.427 . S
C1096 H1087 0.930 . S
C1096 C1094 1.378 . S
C1096 C1097 1.367 . S
C1097 C1096 1.367 . S
C1097 C1099 1.433 . S
C1098 C1094 1.350 . S
C1098 C1095 1.463 1_455 S
C1098 N1102 1.427 . S
C1099 H1089 0.929 . S
C1099 C1097 1.433 . S
C1099 N1102 1.384 . S
C1100 H1091 0.929 . S
C1100 C1092 1.378 . S
C1100 C1095 1.350 . S
C1101 H1088 0.929 . S
C1101 C1093 1.433 . S
C1101 N1103 1.384 . S
N1102 C1098 1.427 . S
N1102 C1099 1.384 . S
N1103 C1095 1.427 . S
N1103 C1101 1.384 . S
H1104 C1110 0.930 . S
H1105 C1114 0.930 . S
H1106 C1119 0.929 . S
H1107 C1117 0.929 . S
H1108 C1112 0.929 . S
H1109 C1118 0.929 . S
C1110 H1104 0.930 . S
C1110 C1111 1.367 . S
C1110 C1118 1.378 . S
C1111 C1110 1.367 . S
C1111 C1119 1.433 . S
C1112 H1108 0.929 . S
C1112 C1114 1.378 . S
C1112 C1116 1.350 . S
C1113 C1116 1.463 1_565 S
C1113 C1118 1.350 . S
C1113 N1121 1.427 . S
C1114 H1105 0.930 . S
C1114 C1112 1.378 . S
C1114 C1115 1.367 . S
C1115 C1114 1.367 . S
C1115 C1117 1.433 . S
C1116 C1112 1.350 . S
C1116 C1113 1.463 1_545 S
C1116 N1120 1.427 . S
C1117 H1107 0.929 . S
C1117 C1115 1.433 . S
C1117 N1120 1.384 . S
C1118 H1109 0.929 . S
C1118 C1110 1.378 . S
C1118 C1113 1.350 . S
C1119 H1106 0.929 . S
C1119 C1111 1.433 . S
C1119 N1121 1.384 . S
N1120 C1116 1.427 . S
N1120 C1117 1.384 . S
N1121 C1113 1.427 . S
N1121 C1119 1.384 . S
H1122 C1128 0.930 . S
H1123 C1132 0.930 . S
H1124 C1137 0.929 . S
H1125 C1135 0.929 . S
H1126 C1130 0.929 . S
H1127 C1136 0.929 . S
C1128 H1122 0.930 . S
C1128 C1129 1.367 . S
C1128 C1136 1.378 . S
C1129 C1128 1.367 . S
C1129 C1137 1.433 . S
C1130 H1126 0.929 . S
C1130 C1132 1.378 . S
C1130 C1134 1.350 . S
C1131 C1134 1.463 . S
C1131 C1136 1.350 . S
C1131 N1139 1.427 . S
C1132 H1123 0.930 . S
C1132 C1130 1.378 . S
C1132 C1133 1.367 . S
C1133 C1132 1.367 . S
C1133 C1135 1.433 . S
C1134 C1130 1.350 . S
C1134 C1131 1.463 . S
C1134 N1138 1.427 . S
C1135 H1125 0.929 . S
C1135 C1133 1.433 . S
C1135 N1138 1.384 . S
C1136 H1127 0.929 . S
C1136 C1128 1.378 . S
C1136 C1131 1.350 . S
C1137 H1124 0.929 . S
C1137 C1129 1.433 . S
C1137 N1139 1.384 . S
N1138 C1134 1.427 . S
N1138 C1135 1.384 . S
N1139 C1131 1.427 . S
N1139 C1137 1.384 . S
C715 C475 1.662 . S
C719 C3 1.658 . S
C733 C62 1.654 . S
C737 C534 1.658 . S
C751 C121 1.655 . S
C755 C593 1.656 . S
C769 C180 1.656 . S
C773 C652 1.655 . S
C787 C357 1.658 . S
C791 C239 1.654 . S
C805 C298 1.662 . S
C809 C416 1.659 . S
C823 C229 1.326 . S
C827 C52 1.333 . S
C841 C288 1.321 . S
C845 C111 1.325 . S
C859 C347 1.325 . S
C863 C170 1.332 . S
C877 C406 1.330 . S
C881 C583 1.335 . S
C895 C465 1.329 . S
C899 C642 1.322 . S
C913 C524 1.322 . S
C917 C701 1.324 . S
C931 C33 1.601 . S
C935 C564 1.602 . S
C949 C92 1.600 . S
C953 C623 1.605 . S
C967 C151 1.603 . S
C971 C682 1.606 . S
C985 C387 1.603 . S
C989 C210 1.606 . S
C1003 C269 1.601 . S
C1007 C446 1.606 . S
C1021 C505 1.605 . S
C1025 C328 1.605 . S
C1039 C654 1.388 . S
C1043 C5 1.391 . S
C1057 C64 1.398 . S
C1061 C359 1.399 . S
C1075 C418 1.388 . S
C1079 C123 1.391 . S
C1093 C182 1.399 . S
C1097 C477 1.394 . S
C1111 C241 1.388 . S
C1115 C536 1.391 . S
C1129 C595 1.388 . S
C1133 C300 1.392 . S
