# Generated by pormake.
# Topology zfw, (5)-cn, num edge types: 1
# Building blocks:
#     Node 0, Type 0, BuildingBlock: XOMCOT_clean_sbu_1, # of connection points: 5
#     Node 1, Type 0, BuildingBlock: XOMCOT_clean_sbu_1, # of connection points: 5
#     Node 2, Type 0, BuildingBlock: XOMCOT_clean_sbu_1, # of connection points: 5
#     Node 3, Type 0, BuildingBlock: XOMCOT_clean_sbu_1, # of connection points: 5
#     Node 4, Type 0, BuildingBlock: XOMCOT_clean_sbu_1, # of connection points: 5
#     Node 5, Type 0, BuildingBlock: XOMCOT_clean_sbu_1, # of connection points: 5
#     Node 6, Type 0, BuildingBlock: XOMCOT_clean_sbu_1, # of connection points: 5
#     Node 7, Type 0, BuildingBlock: XOMCOT_clean_sbu_1, # of connection points: 5
#     Node 8, Type 0, BuildingBlock: XOMCOT_clean_sbu_1, # of connection points: 5
#     Node 9, Type 0, BuildingBlock: XOMCOT_clean_sbu_1, # of connection points: 5
#     Node 10, Type 0, BuildingBlock: XOMCOT_clean_sbu_1, # of connection points: 5
#     Node 11, Type 0, BuildingBlock: XOMCOT_clean_sbu_1, # of connection points: 5
#     Node 12, Type 0, BuildingBlock: XOMCOT_clean_sbu_1, # of connection points: 5
#     Node 13, Type 0, BuildingBlock: XOMCOT_clean_sbu_1, # of connection points: 5
#     Node 14, Type 0, BuildingBlock: XOMCOT_clean_sbu_1, # of connection points: 5
#     Node 15, Type 0, BuildingBlock: XOMCOT_clean_sbu_1, # of connection points: 5
#     Edge 16, Type (0, 0), BuildingBlock: XIVTED_clean_linker_0, # of connection points: 2
#     Edge 17, Type (0, 0), BuildingBlock: XIVTED_clean_linker_0, # of connection points: 2
#     Edge 18, Type (0, 0), BuildingBlock: XIVTED_clean_linker_0, # of connection points: 2
#     Edge 19, Type (0, 0), BuildingBlock: XIVTED_clean_linker_0, # of connection points: 2
#     Edge 20, Type (0, 0), BuildingBlock: XIVTED_clean_linker_0, # of connection points: 2
#     Edge 21, Type (0, 0), BuildingBlock: XIVTED_clean_linker_0, # of connection points: 2
#     Edge 22, Type (0, 0), BuildingBlock: XIVTED_clean_linker_0, # of connection points: 2
#     Edge 23, Type (0, 0), BuildingBlock: XIVTED_clean_linker_0, # of connection points: 2
#     Edge 24, Type (0, 0), BuildingBlock: XIVTED_clean_linker_0, # of connection points: 2
#     Edge 25, Type (0, 0), BuildingBlock: XIVTED_clean_linker_0, # of connection points: 2
#     Edge 26, Type (0, 0), BuildingBlock: XIVTED_clean_linker_0, # of connection points: 2
#     Edge 27, Type (0, 0), BuildingBlock: XIVTED_clean_linker_0, # of connection points: 2
#     Edge 28, Type (0, 0), BuildingBlock: XIVTED_clean_linker_0, # of connection points: 2
#     Edge 29, Type (0, 0), BuildingBlock: XIVTED_clean_linker_0, # of connection points: 2
#     Edge 30, Type (0, 0), BuildingBlock: XIVTED_clean_linker_0, # of connection points: 2
#     Edge 31, Type (0, 0), BuildingBlock: XIVTED_clean_linker_0, # of connection points: 2
#     Edge 32, Type (0, 0), BuildingBlock: XIVTED_clean_linker_0, # of connection points: 2
#     Edge 33, Type (0, 0), BuildingBlock: XIVTED_clean_linker_0, # of connection points: 2
#     Edge 34, Type (0, 0), BuildingBlock: XIVTED_clean_linker_0, # of connection points: 2
#     Edge 35, Type (0, 0), BuildingBlock: XIVTED_clean_linker_0, # of connection points: 2
#     Edge 36, Type (0, 0), BuildingBlock: XIVTED_clean_linker_0, # of connection points: 2
#     Edge 37, Type (0, 0), BuildingBlock: XIVTED_clean_linker_0, # of connection points: 2
#     Edge 38, Type (0, 0), BuildingBlock: XIVTED_clean_linker_0, # of connection points: 2
#     Edge 39, Type (0, 0), BuildingBlock: XIVTED_clean_linker_0, # of connection points: 2
#     Edge 40, Type (0, 0), BuildingBlock: XIVTED_clean_linker_0, # of connection points: 2
#     Edge 41, Type (0, 0), BuildingBlock: XIVTED_clean_linker_0, # of connection points: 2
#     Edge 42, Type (0, 0), BuildingBlock: XIVTED_clean_linker_0, # of connection points: 2
#     Edge 43, Type (0, 0), BuildingBlock: XIVTED_clean_linker_0, # of connection points: 2
#     Edge 44, Type (0, 0), BuildingBlock: XIVTED_clean_linker_0, # of connection points: 2
#     Edge 45, Type (0, 0), BuildingBlock: XIVTED_clean_linker_0, # of connection points: 2
#     Edge 46, Type (0, 0), BuildingBlock: XIVTED_clean_linker_0, # of connection points: 2
#     Edge 47, Type (0, 0), BuildingBlock: XIVTED_clean_linker_0, # of connection points: 2
#     Edge 48, Type (0, 0), BuildingBlock: XIVTED_clean_linker_0, # of connection points: 2
#     Edge 49, Type (0, 0), BuildingBlock: XIVTED_clean_linker_0, # of connection points: 2
#     Edge 50, Type (0, 0), BuildingBlock: XIVTED_clean_linker_0, # of connection points: 2
#     Edge 51, Type (0, 0), BuildingBlock: XIVTED_clean_linker_0, # of connection points: 2
#     Edge 52, Type (0, 0), BuildingBlock: XIVTED_clean_linker_0, # of connection points: 2
#     Edge 53, Type (0, 0), BuildingBlock: XIVTED_clean_linker_0, # of connection points: 2
#     Edge 54, Type (0, 0), BuildingBlock: XIVTED_clean_linker_0, # of connection points: 2
#     Edge 55, Type (0, 0), BuildingBlock: XIVTED_clean_linker_0, # of connection points: 2
# Relax obj value: 0.246
# Max RMSD: 0.199
# Mean RMSD: 0.187
data_MOF--net-zfw--node1-XOMCOT_clean_sbu_1--edge1-XIVTED_clean_linker_0
_symmetry_space_group_name_H-M    P1
_symmetry_Int_Tables_number       1
_symmetry_cell_setting            triclinic
loop_
_symmetry_equiv_pos_as_xyz
'x, y, z'
_cell_length_a     70.662411
_cell_length_b     70.008461
_cell_length_c     17.156601
_cell_angle_alpha  89.972141
_cell_angle_beta   89.951325
_cell_angle_gamma 90.012579
loop_
_atom_site_label
_atom_site_type_symbol
_atom_site_fract_x
_atom_site_fract_y
_atom_site_fract_z
_atom_type_partial_charge
C0 C 0.08728 0.05561 0.34341 0.0
C1 C 0.08771 0.05028 0.42059 0.0
N2 N 0.10461 0.05538 0.45037 0.0
N3 N 0.1038 0.0641 0.32495 0.0
C4 C 0.11427 0.06321 0.39043 0.0
H5 H 0.07523 0.05467 0.30475 0.0
Co6 Co 0.1089 0.07721 0.233 0.0
C7 C 0.12897 0.11106 0.29538 0.0
O8 O 0.11679 0.12216 0.25938 0.0
N9 N 0.11426 0.08918 0.13823 0.0
C10 C 0.12985 0.10137 0.03714 0.0
C11 C 0.12863 0.10083 0.11675 0.0
C12 C 0.1075 0.08229 0.07021 0.0
N13 N 0.11666 0.08955 0.00785 0.0
O14 O 0.12766 0.0587 0.20507 0.0
H15 H 0.13915 0.1069 0.15469 0.0
H16 H 0.09687 0.07119 0.06715 0.0
O17 O 0.12816 0.09289 0.28699 0.0
C18 C 0.12198 0.04194 0.18823 0.0
O19 O 0.1043 0.03733 0.2025 0.0
N20 N 0.08937 0.09518 0.25823 0.0
C21 C 0.06232 0.12324 0.29229 0.0
C22 C 0.07427 0.1161 0.35053 0.0
C23 C 0.08754 0.10207 0.33258 0.0
C24 C 0.07674 0.10078 0.20242 0.0
C25 C 0.06331 0.11499 0.21785 0.0
H26 H 0.09703 0.09752 0.37818 0.0
H27 H 0.07715 0.09456 0.14503 0.0
H28 H 0.12819 0.06946 0.39572 0.0
H29 H 0.07588 0.04476 0.45379 0.0
H30 H 0.14079 0.10849 0.00384 0.0
H31 H 0.07362 0.1215 0.40961 0.0
H32 H 0.05418 0.11981 0.17116 0.0
C33 C 0.27742 0.77972 0.56257 0.0
C34 C 0.28086 0.78197 0.64097 0.0
N35 N 0.2646 0.78733 0.67582 0.0
N36 N 0.25907 0.78361 0.5482 0.0
C37 C 0.25168 0.78838 0.61816 0.0
H38 H 0.28739 0.77456 0.51969 0.0
Co39 Co 0.24626 0.77931 0.4555 0.0
C40 C 0.23076 0.81932 0.45048 0.0
O41 O 0.2422 0.82568 0.39597 0.0
N42 N 0.2334 0.77468 0.3611 0.0
C43 C 0.22198 0.75758 0.26263 0.0
C44 C 0.22504 0.758 0.34151 0.0
C45 C 0.23491 0.78429 0.29283 0.0
N46 N 0.22846 0.774 0.2319 0.0
O47 O 0.26562 0.79304 0.40028 0.0
H48 H 0.223 0.74601 0.38029 0.0
H49 H 0.24272 0.79748 0.28622 0.0
O50 O 0.23179 0.80206 0.47349 0.0
C51 C 0.27604 0.78165 0.36143 0.0
O52 O 0.27247 0.76324 0.36453 0.0
N53 N 0.22827 0.76468 0.50945 0.0
C54 C 0.20366 0.73849 0.57796 0.0
C55 C 0.19698 0.75622 0.55155 0.0
C56 C 0.20952 0.7691 0.51658 0.0
C57 C 0.23508 0.74775 0.53671 0.0
C58 C 0.22301 0.73442 0.57109 0.0
H59 H 0.20396 0.78219 0.49241 0.0
H60 H 0.24991 0.74436 0.52944 0.0
H61 H 0.23677 0.79104 0.62759 0.0
H62 H 0.29407 0.77903 0.67053 0.0
H63 H 0.21709 0.74538 0.22946 0.0
H64 H 0.18208 0.75974 0.55463 0.0
H65 H 0.22872 0.72092 0.59104 0.0
C66 C 0.59027 0.93852 0.83886 0.0
C67 C 0.59143 0.94205 0.91741 0.0
N68 N 0.57517 0.93623 0.95071 0.0
N69 N 0.57343 0.93037 0.82293 0.0
C70 C 0.56439 0.92943 0.89221 0.0
H71 H 0.60162 0.94015 0.79703 0.0
Co72 Co 0.5687 0.91793 0.72954 0.0
C73 C 0.53142 0.90006 0.75716 0.0
O74 O 0.52454 0.90753 0.69289 0.0
N75 N 0.56447 0.90563 0.63575 0.0
C76 C 0.56039 0.88429 0.54156 0.0
C77 C 0.56179 0.88688 0.62094 0.0
C78 C 0.56461 0.91412 0.56535 0.0
N79 N 0.56204 0.9015 0.50717 0.0
O80 O 0.55113 0.93756 0.69841 0.0
H81 H 0.56127 0.87581 0.6649 0.0
H82 H 0.56724 0.9292 0.5567 0.0
O83 O 0.54851 0.90336 0.77679 0.0
C84 C 0.55653 0.95475 0.6883 0.0
O85 O 0.57385 0.95958 0.70762 0.0
N86 N 0.58646 0.89919 0.75791 0.0
C87 C 0.61529 0.87369 0.7988 0.0
C88 C 0.5993 0.87606 0.84658 0.0
C89 C 0.58503 0.88877 0.82495 0.0
C90 C 0.60196 0.89737 0.71118 0.0
C91 C 0.61639 0.88451 0.72985 0.0
H92 H 0.57312 0.89063 0.86359 0.0
H93 H 0.60313 0.90599 0.65906 0.0
H94 H 0.55119 0.92193 0.90136 0.0
H95 H 0.60383 0.94695 0.94861 0.0
H96 H 0.55844 0.87085 0.51142 0.0
H97 H 0.59794 0.86853 0.90142 0.0
H98 H 0.62824 0.8831 0.69029 0.0
C99 C 0.39413 0.259 0.08407 0.0
C100 C 0.38859 0.26025 0.16063 0.0
N101 N 0.39466 0.24449 0.1983 0.0
N102 N 0.40358 0.24252 0.07317 0.0
C103 C 0.40338 0.2338 0.14336 0.0
H104 H 0.39221 0.26983 0.03978 0.0
Co105 Co 0.41613 0.23637 0.98111 0.0
C106 C 0.4492 0.21541 0.04369 0.0
O107 O 0.4606 0.22734 0.0076 0.0
N108 N 0.42748 0.23019 0.88598 0.0
C109 C 0.43827 0.21381 0.78406 0.0
C110 C 0.4386 0.21542 0.8638 0.0
C111 C 0.42023 0.23692 0.81857 0.0
N112 N 0.42655 0.22725 0.75577 0.0
O113 O 0.39741 0.21749 0.95691 0.0
H114 H 0.44501 0.20504 0.90184 0.0
H115 H 0.40916 0.24759 0.81652 0.0
O116 O 0.43126 0.21693 0.03586 0.0
C117 C 0.38066 0.2228 0.94033 0.0
O118 O 0.37592 0.24075 0.95015 0.0
N119 N 0.43436 0.25592 0.00276 0.0
C120 C 0.46078 0.2849 0.03407 0.0
C121 C 0.45459 0.27252 0.09307 0.0
C122 C 0.44149 0.25823 0.07636 0.0
C123 C 0.43934 0.26857 0.94569 0.0
C124 C 0.45276 0.28289 0.95962 0.0
H125 H 0.43752 0.24865 0.12283 0.0
H126 H 0.43302 0.26773 0.8887 0.0
H127 H 0.41088 0.22067 0.1554 0.0
H128 H 0.38139 0.27226 0.18696 0.0
H129 H 0.44521 0.20283 0.7501 0.0
H130 H 0.45973 0.27378 0.15224 0.0
H131 H 0.45691 0.29211 0.91193 0.0
C132 C 0.0811 0.94935 0.61306 0.0
C133 C 0.08132 0.95428 0.53579 0.0
N134 N 0.09607 0.94542 0.50172 0.0
N135 N 0.09573 0.93756 0.62802 0.0
C136 C 0.10479 0.93562 0.55914 0.0
H137 H 0.07007 0.95283 0.6544 0.0
Co138 Co 0.09736 0.92407 0.72083 0.0
C139 C 0.11973 0.88955 0.67221 0.0
O140 O 0.10599 0.87806 0.69286 0.0
N141 N 0.09846 0.91087 0.81753 0.0
C142 C 0.09416 0.89072 0.91689 0.0
C143 C 0.09272 0.89306 0.83781 0.0
C144 C 0.10296 0.91906 0.88649 0.0
N145 N 0.10061 0.90712 0.9473 0.0
O146 O 0.11677 0.94142 0.75739 0.0
H147 H 0.08611 0.88281 0.79979 0.0
H148 H 0.10634 0.93399 0.89332 0.0
O149 O 0.11768 0.90765 0.67808 0.0
C150 C 0.11256 0.95884 0.77046 0.0
O151 O 0.09528 0.96474 0.75636 0.0
N152 N 0.07756 0.90811 0.68531 0.0
C153 C 0.04699 0.885 0.64239 0.0
C154 C 0.06271 0.88719 0.59292 0.0
C155 C 0.07776 0.89888 0.61517 0.0
C156 C 0.06162 0.90779 0.73012 0.0
C157 C 0.04642 0.89592 0.71107 0.0
H158 H 0.08977 0.90014 0.57661 0.0
H159 H 0.06102 0.9162 0.78295 0.0
H160 H 0.1161 0.9255 0.54906 0.0
H161 H 0.0705 0.96235 0.50556 0.0
H162 H 0.08972 0.87832 0.9499 0.0
H163 H 0.06351 0.87987 0.53746 0.0
H164 H 0.03465 0.89499 0.75125 0.0
C165 C 0.41962 0.74149 0.99206 0.0
C166 C 0.41477 0.7389 0.91527 0.0
N167 N 0.41798 0.75542 0.8771 0.0
N168 N 0.42595 0.75948 0.00182 0.0
C169 C 0.42457 0.76771 0.93117 0.0
H170 H 0.4191 0.73081 0.03761 0.0
Co171 Co 0.4351 0.7691 0.09447 0.0
C172 C 0.46607 0.79469 0.04711 0.0
O173 O 0.47679 0.78564 0.09771 0.0
N174 N 0.443 0.77869 0.19048 0.0
C175 C 0.44707 0.7987 0.28993 0.0
C176 C 0.44784 0.79675 0.21046 0.0
C177 C 0.43841 0.77036 0.25877 0.0
N178 N 0.441 0.78208 0.32011 0.0
O179 O 0.41306 0.78476 0.10382 0.0
H180 H 0.44992 0.80847 0.1705 0.0
H181 H 0.43127 0.75673 0.2627 0.0
O182 O 0.44871 0.78976 0.03916 0.0
C183 C 0.39894 0.77509 0.12749 0.0
O184 O 0.40112 0.75676 0.14115 0.0
N185 N 0.45626 0.75227 0.08541 0.0
C186 C 0.48216 0.7227 0.05913 0.0
C187 C 0.47891 0.73662 0.0022 0.0
C188 C 0.46587 0.75115 0.01616 0.0
C189 C 0.45936 0.73879 0.14159 0.0
C190 C 0.47251 0.7241 0.13023 0.0
H191 H 0.46291 0.76104 0.96942 0.0
H192 H 0.45097 0.73856 0.1938 0.0
H193 H 0.42922 0.78211 0.9188 0.0
H194 H 0.4097 0.72578 0.88935 0.0
H195 H 0.44961 0.81171 0.32231 0.0
H196 H 0.48603 0.73601 0.94631 0.0
H197 H 0.47431 0.71333 0.17497 0.0
C198 C 0.5473 0.05673 0.099 0.0
C199 C 0.54169 0.05669 0.02246 0.0
N200 N 0.53769 0.07477 0.00176 0.0
N201 N 0.54672 0.07475 0.12669 0.0
C202 C 0.54054 0.08536 0.06618 0.0
H203 H 0.5526 0.04448 0.13023 0.0
Co204 Co 0.55578 0.08295 0.2225 0.0
C205 C 0.53239 0.11679 0.26689 0.0
O206 O 0.54664 0.1239 0.30658 0.0
N207 N 0.56506 0.09052 0.32009 0.0
C208 C 0.58225 0.09933 0.42263 0.0
C209 C 0.58242 0.09629 0.34329 0.0
C210 C 0.5548 0.08988 0.38643 0.0
N211 N 0.5648 0.09526 0.44942 0.0
O212 O 0.54087 0.06371 0.27371 0.0
H213 H 0.59462 0.09791 0.30605 0.0
H214 H 0.54 0.086 0.38798 0.0
O215 O 0.53444 0.10098 0.23026 0.0
C216 C 0.54982 0.04832 0.28814 0.0
O217 O 0.56747 0.04678 0.26479 0.0
N218 N 0.57155 0.10087 0.17082 0.0
C219 C 0.59858 0.12361 0.09616 0.0
C220 C 0.58012 0.1303 0.10776 0.0
C221 C 0.56681 0.11872 0.14489 0.0
C222 C 0.58914 0.09374 0.15581 0.0
C223 C 0.60301 0.10498 0.11992 0.0
H224 H 0.55269 0.12421 0.15019 0.0
H225 H 0.59256 0.07935 0.17395 0.0
H226 H 0.53906 0.10071 0.06767 0.0
H227 H 0.5422 0.04459 0.98322 0.0
H228 H 0.59419 0.10364 0.45798 0.0
H229 H 0.57605 0.14453 0.08955 0.0
H230 H 0.61703 0.09915 0.11079 0.0
C231 C 0.28142 0.21761 0.34861 0.0
C232 C 0.28123 0.21187 0.27216 0.0
N233 N 0.26335 0.20718 0.25326 0.0
N234 N 0.26374 0.21642 0.3779 0.0
C235 C 0.25309 0.20984 0.31853 0.0
H236 H 0.29354 0.22329 0.37897 0.0
Co237 Co 0.25577 0.2247 0.47478 0.0
C238 C 0.22187 0.20106 0.51444 0.0
O239 O 0.21461 0.21516 0.5552 0.0
N240 N 0.24832 0.23314 0.57372 0.0
C241 C 0.23975 0.24954 0.67905 0.0
C242 C 0.24299 0.25053 0.60001 0.0
C243 C 0.2485 0.22203 0.638 0.0
N244 N 0.24326 0.23155 0.70257 0.0
O245 O 0.27447 0.2088 0.52328 0.0
H246 H 0.24183 0.2633 0.56522 0.0
H247 H 0.25202 0.207 0.63695 0.0
O248 O 0.23765 0.20339 0.47901 0.0
C249 C 0.28998 0.21722 0.53887 0.0
O250 O 0.29206 0.23517 0.51808 0.0
N251 N 0.2384 0.24144 0.42602 0.0
C252 C 0.21602 0.27068 0.36469 0.0
C253 C 0.20907 0.25197 0.3698 0.0
C254 C 0.22052 0.23751 0.4001 0.0
C255 C 0.24589 0.25919 0.41524 0.0
C256 C 0.23485 0.27412 0.38608 0.0
H257 H 0.21481 0.22329 0.40168 0.0
H258 H 0.26033 0.26194 0.4329 0.0
H259 H 0.23795 0.20784 0.32178 0.0
H260 H 0.29302 0.21261 0.2319 0.0
H261 H 0.23576 0.2613 0.71654 0.0
H262 H 0.1947 0.24859 0.35275 0.0
H263 H 0.24094 0.28828 0.38126 0.0
C264 C 0.9012 0.27549 0.42572 0.0
C265 C 0.90021 0.27938 0.34704 0.0
N266 N 0.9178 0.28354 0.32159 0.0
N267 N 0.91931 0.2773 0.44911 0.0
C268 C 0.92898 0.28236 0.38479 0.0
H269 H 0.88966 0.2709 0.46266 0.0
Co270 Co 0.92978 0.27183 0.54483 0.0
C271 C 0.94212 0.31174 0.52299 0.0
O272 O 0.92454 0.31734 0.51325 0.0
N273 N 0.94035 0.26636 0.64072 0.0
C274 C 0.95057 0.25104 0.7456 0.0
C275 C 0.9463 0.2493 0.66777 0.0
C276 C 0.94121 0.27822 0.70234 0.0
N277 N 0.94711 0.2692 0.7672 0.0
O278 O 0.90999 0.28613 0.59505 0.0
H279 H 0.94645 0.2362 0.63438 0.0
H280 H 0.93644 0.29291 0.70071 0.0
O281 O 0.94568 0.29422 0.53704 0.0
C282 C 0.89854 0.27555 0.63278 0.0
O283 O 0.90122 0.25698 0.6329 0.0
N284 N 0.94821 0.25664 0.49644 0.0
C285 C 0.9733 0.22981 0.43463 0.0
C286 C 0.97995 0.24708 0.46618 0.0
C287 C 0.96718 0.26023 0.49753 0.0
C288 C 0.94142 0.24018 0.46474 0.0
C289 C 0.95369 0.22658 0.43339 0.0
H290 H 0.97265 0.27292 0.525 0.0
H291 H 0.92636 0.23736 0.46598 0.0
H292 H 0.94415 0.28451 0.38412 0.0
H293 H 0.88775 0.27814 0.31072 0.0
H294 H 0.95439 0.2395 0.78459 0.0
H295 H 0.99493 0.25032 0.46791 0.0
H296 H 0.94787 0.21336 0.4112 0.0
C297 C 0.78417 0.75207 0.88829 0.0
C298 C 0.78998 0.75268 0.81196 0.0
N299 N 0.78316 0.73711 0.7752 0.0
N300 N 0.7738 0.73618 0.89991 0.0
C301 C 0.7737 0.72716 0.83041 0.0
H302 H 0.78661 0.76294 0.93195 0.0
Co303 Co 0.76098 0.73104 0.9922 0.0
C304 C 0.72683 0.71171 0.93045 0.0
O305 O 0.71606 0.72456 0.96435 0.0
N306 N 0.74939 0.72584 0.08769 0.0
C307 C 0.73745 0.71093 0.19122 0.0
C308 C 0.73698 0.71231 0.11137 0.0
C309 C 0.75747 0.73207 0.15422 0.0
N310 N 0.75049 0.72328 0.21798 0.0
O311 O 0.77866 0.71123 0.0174 0.0
H312 H 0.72939 0.70254 0.07436 0.0
H313 H 0.76944 0.74172 0.15491 0.0
O314 O 0.74481 0.71223 0.93897 0.0
C315 C 0.79567 0.71564 0.03388 0.0
O316 O 0.8014 0.73326 0.02268 0.0
N317 N 0.74381 0.75149 0.96952 0.0
C318 C 0.71872 0.78141 0.93777 0.0
C319 C 0.72441 0.76893 0.87866 0.0
C320 C 0.73692 0.75412 0.89561 0.0
C321 C 0.73921 0.76429 0.02665 0.0
C322 C 0.72634 0.77908 0.01247 0.0
H323 H 0.74045 0.74431 0.8494 0.0
H324 H 0.74541 0.76318 0.08381 0.0
H325 H 0.76555 0.7144 0.819 0.0
H326 H 0.79792 0.76415 0.78511 0.0
H327 H 0.72958 0.70082 0.22629 0.0
H328 H 0.71878 0.77025 0.82019 0.0
H329 H 0.72254 0.78874 0.05925 0.0
C330 C 0.75387 0.24376 0.98501 0.0
C331 C 0.75887 0.24144 0.06182 0.0
N332 N 0.75534 0.25796 0.09942 0.0
N333 N 0.74708 0.26156 0.97477 0.0
C334 C 0.74842 0.26998 0.04504 0.0
H335 H 0.75448 0.23298 0.93994 0.0
Co336 Co 0.73718 0.27062 0.8825 0.0
C337 C 0.70643 0.29629 0.93175 0.0
O338 O 0.69531 0.28692 0.88365 0.0
N339 N 0.7285 0.27963 0.78657 0.0
C340 C 0.72353 0.29905 0.68581 0.0
C341 C 0.72323 0.29749 0.76548 0.0
C342 C 0.73279 0.27102 0.71856 0.0
N343 N 0.7297 0.28238 0.65647 0.0
O344 O 0.75906 0.28634 0.86929 0.0
H345 H 0.72123 0.3094 0.80455 0.0
H346 H 0.7401 0.25747 0.71517 0.0
O347 O 0.72388 0.29151 0.93751 0.0
C348 C 0.77281 0.27677 0.84168 0.0
O349 O 0.77041 0.25853 0.82693 0.0
N350 N 0.71618 0.25374 0.8957 0.0
C351 C 0.69035 0.22439 0.92735 0.0
C352 C 0.6941 0.23852 0.98285 0.0
C353 C 0.7071 0.25292 0.96621 0.0
C354 C 0.71262 0.24004 0.84095 0.0
C355 C 0.69949 0.22545 0.85501 0.0
H356 H 0.71038 0.26303 0.01175 0.0
H357 H 0.7206 0.23958 0.78764 0.0
H358 H 0.74337 0.28425 0.05721 0.0
H359 H 0.76414 0.22846 0.08831 0.0
H360 H 0.72065 0.31187 0.65262 0.0
H361 H 0.68737 0.23819 0.0396 0.0
H362 H 0.69729 0.21452 0.81126 0.0
C363 C 0.88496 0.75286 0.60786 0.0
C364 C 0.88022 0.75374 0.68528 0.0
N365 N 0.88737 0.73821 0.72085 0.0
N366 N 0.89515 0.73691 0.59484 0.0
C367 C 0.89612 0.72805 0.66459 0.0
H368 H 0.88237 0.76383 0.56471 0.0
Co369 Co 0.90776 0.73268 0.50167 0.0
C370 C 0.94167 0.71211 0.5692 0.0
O371 O 0.9531 0.72668 0.56011 0.0
N372 N 0.91973 0.72851 0.40586 0.0
C373 C 0.93948 0.72567 0.3054 0.0
C374 C 0.93817 0.72741 0.38496 0.0
C375 C 0.91019 0.72734 0.33794 0.0
N376 N 0.92184 0.72552 0.27634 0.0
O377 O 0.89026 0.71256 0.47543 0.0
H378 H 0.95007 0.7289 0.42332 0.0
H379 H 0.895 0.72883 0.33326 0.0
O380 O 0.92424 0.71323 0.54966 0.0
C381 C 0.87278 0.71615 0.46446 0.0
O382 O 0.86633 0.73325 0.48106 0.0
N383 N 0.92424 0.75351 0.5248 0.0
C384 C 0.94739 0.78526 0.55016 0.0
C385 C 0.94302 0.7728 0.61141 0.0
C386 C 0.93129 0.75709 0.5977 0.0
C387 C 0.92708 0.76653 0.46658 0.0
C388 C 0.93904 0.78218 0.47733 0.0
H389 H 0.92855 0.74738 0.64526 0.0
H390 H 0.9202 0.76477 0.41083 0.0
H391 H 0.90476 0.71559 0.67582 0.0
H392 H 0.87336 0.76559 0.71441 0.0
H393 H 0.95237 0.72516 0.2713 0.0
H394 H 0.94907 0.77483 0.66879 0.0
H395 H 0.94162 0.79188 0.42925 0.0
C396 C 0.62498 0.55279 0.90707 0.0
C397 C 0.63058 0.55262 0.98359 0.0
N398 N 0.63456 0.57067 0.00479 0.0
N399 N 0.62553 0.57086 0.87984 0.0
C400 C 0.63171 0.58138 0.94061 0.0
H401 H 0.61965 0.5406 0.87551 0.0
Co402 Co 0.61627 0.57895 0.78427 0.0
C403 C 0.63897 0.61307 0.73853 0.0
O404 O 0.62432 0.62007 0.70108 0.0
N405 N 0.60676 0.58634 0.6867 0.0
C406 C 0.58939 0.59477 0.58401 0.0
C407 C 0.58931 0.59184 0.66346 0.0
C408 C 0.61699 0.58577 0.62026 0.0
N409 N 0.60687 0.59087 0.55725 0.0
O410 O 0.63141 0.55996 0.73291 0.0
H411 H 0.5771 0.59334 0.70068 0.0
H412 H 0.63184 0.58209 0.6185 0.0
O413 O 0.63741 0.59722 0.77533 0.0
C414 C 0.62305 0.54435 0.71669 0.0
O415 O 0.60543 0.54201 0.73932 0.0
N416 N 0.6004 0.59674 0.83614 0.0
C417 C 0.57328 0.61971 0.90889 0.0
C418 C 0.59185 0.62622 0.89868 0.0
C419 C 0.6052 0.61453 0.86255 0.0
C420 C 0.58273 0.58971 0.85044 0.0
C421 C 0.56881 0.60108 0.88526 0.0
H422 H 0.61939 0.61991 0.85808 0.0
H423 H 0.57926 0.57534 0.83217 0.0
H424 H 0.63315 0.59672 0.93952 0.0
H425 H 0.63006 0.54045 0.02252 0.0
H426 H 0.57739 0.59883 0.54853 0.0
H427 H 0.59596 0.64044 0.91692 0.0
H428 H 0.5547 0.59537 0.89343 0.0
C429 C 0.09524 0.43502 0.32168 0.0
C430 C 0.09711 0.44023 0.39848 0.0
N431 N 0.081 0.43555 0.43611 0.0
N432 N 0.07806 0.4271 0.31103 0.0
C433 C 0.0696 0.42785 0.38138 0.0
H434 H 0.10593 0.4363 0.27681 0.0
Co435 Co 0.06993 0.41622 0.21857 0.0
C436 C 0.04795 0.38311 0.2772 0.0
O437 O 0.05822 0.37167 0.23358 0.0
N438 N 0.06178 0.40649 0.12333 0.0
C439 C 0.0438 0.39803 0.02261 0.0
C440 C 0.04574 0.39729 0.10222 0.0
C441 C 0.06883 0.41329 0.05577 0.0
N442 N 0.05834 0.4082 -0.00635 0.0
O443 O 0.05201 0.43645 0.20411 0.0
H444 H 0.03503 0.39194 0.1413 0.0
H445 H 0.08059 0.42318 0.05312 0.0
O446 O 0.05075 0.40117 0.27498 0.0
C447 C 0.05842 0.45309 0.19001 0.0
O448 O 0.07675 0.45606 0.19296 0.0
N449 N 0.0886 0.3967 0.2308 0.0
C450 C 0.11803 0.37034 0.25081 0.0
C451 C 0.10563 0.37456 0.31216 0.0
C452 C 0.09116 0.38784 0.30122 0.0
C453 C 0.10102 0.39322 0.17141 0.0
C454 C 0.11558 0.37984 0.17966 0.0
H455 H 0.08195 0.39095 0.34982 0.0
H456 H 0.10014 0.40109 0.1177 0.0
H457 H 0.05583 0.42177 0.39325 0.0
H458 H 0.10959 0.44642 0.42482 0.0
H459 H 0.03208 0.39238 0.98923 0.0
H460 H 0.10704 0.36759 0.36823 0.0
H461 H 0.1252 0.3774 0.13149 0.0
C462 C 0.58973 0.44732 0.12048 0.0
C463 C 0.59136 0.45219 0.04319 0.0
N464 N 0.60795 0.44534 0.01638 0.0
N465 N 0.60527 0.43754 0.14222 0.0
C466 C 0.61624 0.4368 0.07801 0.0
H467 H 0.57754 0.44969 0.15737 0.0
Co468 Co 0.60781 0.42509 0.2365 0.0
C469 C 0.6442 0.40483 0.21393 0.0
O470 O 0.65152 0.41266 0.27662 0.0
N471 N 0.61006 0.41301 0.33138 0.0
C472 C 0.61539 0.39339 0.43036 0.0
C473 C 0.61366 0.39468 0.3505 0.0
C474 C 0.60915 0.4224 0.39946 0.0
N475 N 0.61264 0.41094 0.4608 0.0
O476 O 0.62648 0.44337 0.27022 0.0
H477 H 0.61532 0.38315 0.30911 0.0
H478 H 0.60664 0.4376 0.40329 0.0
O479 O 0.62728 0.40877 0.19378 0.0
C480 C 0.62243 0.46093 0.28013 0.0
O481 O 0.60607 0.46738 0.25522 0.0
N482 N 0.58906 0.40761 0.20597 0.0
C483 C 0.56014 0.38229 0.16687 0.0
C484 C 0.57588 0.38451 0.11798 0.0
C485 C 0.59026 0.39721 0.13878 0.0
C486 C 0.5735 0.40615 0.25267 0.0
C487 C 0.559 0.39331 0.23489 0.0
H488 H 0.60226 0.39878 0.10038 0.0
H489 H 0.57242 0.41487 0.3045 0.0
H490 H 0.62951 0.42915 0.07508 0.0
H491 H 0.58046 0.4588 0.00802 0.0
H492 H 0.61853 0.38058 0.46314 0.0
H493 H 0.5772 0.37627 0.06484 0.0
H494 H 0.54692 0.39215 0.2735 0.0
C495 C 0.084 0.57381 0.69431 0.0
C496 C 0.08267 0.5682 0.61784 0.0
N497 N 0.06511 0.57234 0.59212 0.0
N498 N 0.06738 0.58151 0.71657 0.0
C499 C 0.05602 0.58001 0.65385 0.0
H500 H 0.09657 0.57338 0.73019 0.0
Co501 Co 0.06317 0.59368 0.81085 0.0
C502 C 0.03853 0.6252 0.7469 0.0
O503 O 0.05151 0.63838 0.75652 0.0
N504 N 0.059 0.60497 0.90738 0.0
C505 C 0.05073 0.622 0.01116 0.0
C506 C 0.05274 0.62222 0.93146 0.0
C507 C 0.06099 0.59475 0.97333 0.0
N508 N 0.0558 0.6046 0.03723 0.0
O509 O 0.04598 0.57355 0.84137 0.0
H510 H 0.04957 0.63424 0.8948 0.0
H511 H 0.06558 0.58002 0.97374 0.0
O512 O 0.04157 0.60784 0.76654 0.0
C513 C 0.05213 0.55652 0.84829 0.0
O514 O 0.06974 0.55273 0.82942 0.0
N515 N 0.08117 0.61287 0.78254 0.0
C516 C 0.10959 0.63903 0.74334 0.0
C517 C 0.09677 0.6326 0.68708 0.0
C518 C 0.08277 0.61948 0.70762 0.0
C519 C 0.09418 0.61836 0.83707 0.0
C520 C 0.10822 0.63175 0.81918 0.0
H521 H 0.07287 0.61505 0.66328 0.0
H522 H 0.09393 0.61222 0.89485 0.0
H523 H 0.04172 0.58546 0.65218 0.0
H524 H 0.09422 0.56296 0.58238 0.0
H525 H 0.04584 0.63374 0.04686 0.0
H526 H 0.09735 0.63788 0.62776 0.0
H527 H 0.11821 0.636 0.86377 0.0
H528 H 0.1876 0.19236 0.57805 0.0
H529 H 0.16684 0.1023 0.30447 0.0
H530 H 0.22898 0.17109 0.4143 0.0
H531 H 0.1243 0.14067 0.39347 0.0
H532 H 0.19134 0.12141 0.37122 0.0
H533 H 0.16605 0.16701 0.53859 0.0
C534 C 0.19227 0.18224 0.53436 0.0
C535 C 0.21002 0.18408 0.49841 0.0
C536 C 0.17659 0.1254 0.37687 0.0
C537 C 0.18532 0.15495 0.45313 0.0
C538 C 0.16268 0.11449 0.33941 0.0
C539 C 0.14366 0.12011 0.34335 0.0
C540 C 0.17123 0.14166 0.41957 0.0
C541 C 0.13888 0.13603 0.38857 0.0
C542 C 0.17993 0.16777 0.51188 0.0
C543 C 0.21535 0.17032 0.44295 0.0
N544 N 0.15257 0.14626 0.42483 0.0
N545 N 0.20295 0.1564 0.42131 0.0
H546 H 0.21926 0.85548 0.40519 0.0
H547 H 0.13221 0.85378 0.70041 0.0
H548 H 0.2091 0.81173 0.57776 0.0
H549 H 0.14767 0.90549 0.57892 0.0
H550 H 0.16026 0.83832 0.64991 0.0
H551 H 0.19336 0.8744 0.4626 0.0
C552 C 0.21171 0.8499 0.45522 0.0
C553 C 0.2162 0.83184 0.4859 0.0
C554 C 0.1577 0.85308 0.63429 0.0
C555 C 0.18671 0.85329 0.55129 0.0
C556 C 0.14156 0.86193 0.66295 0.0
C557 C 0.13751 0.88093 0.64351 0.0
C558 C 0.16996 0.86314 0.58472 0.0
C559 C 0.15031 0.8908 0.59534 0.0
C560 C 0.19697 0.86071 0.4879 0.0
C561 C 0.20601 0.82537 0.55101 0.0
N562 N 0.16595 0.88171 0.5668 0.0
N563 N 0.19175 0.836 0.58094 0.0
H564 H 0.54002 0.88521 0.89974 0.0
H565 H 0.45069 0.81493 0.9241 0.0
H566 H 0.49707 0.88363 0.72104 0.0
H567 H 0.49983 0.81208 0.07307 0.0
H568 H 0.46524 0.84205 0.85501 0.0
H569 H 0.523 0.8607 0.97125 0.0
C570 C 0.52697 0.87974 0.87546 0.0
C571 C 0.52012 0.88635 0.80366 0.0
C572 C 0.47275 0.83545 0.90296 0.0
C573 C 0.50041 0.85807 0.88578 0.0
C574 C 0.46446 0.82001 0.94239 0.0
C575 C 0.47408 0.81117 0.00426 0.0
C576 C 0.49065 0.84211 0.92625 0.0
C577 C 0.49189 0.81833 0.02551 0.0
C578 C 0.51722 0.86569 0.91646 0.0
C579 C 0.50292 0.87888 0.77601 0.0
N580 N 0.49954 0.83332 0.98672 0.0
N581 N 0.49369 0.86503 0.81692 0.0
H582 H 0.52442 0.15114 0.33352 0.0
H583 H 0.43791 0.17795 0.0551 0.0
H584 H 0.50299 0.11114 0.16354 0.0
H585 H 0.47971 0.218 0.13744 0.0
H586 H 0.45509 0.15204 0.12244 0.0
H587 H 0.5008 0.17427 0.29157 0.0
C588 C 0.51457 0.14708 0.28809 0.0
C589 C 0.51595 0.12928 0.25093 0.0
C590 C 0.46027 0.16657 0.12638 0.0
C591 C 0.48879 0.15578 0.20296 0.0
C592 C 0.45047 0.18129 0.08854 0.0
C593 C 0.45757 0.2 0.09061 0.0
C594 C 0.47687 0.17084 0.16786 0.0
C595 C 0.47393 0.20369 0.134 0.0
C596 C 0.50111 0.16033 0.26418 0.0
C597 C 0.50256 0.12477 0.19322 0.0
N598 N 0.48301 0.18925 0.17098 0.0
N599 N 0.48962 0.13806 0.17026 0.0
H600 H 0.9477 0.81246 0.66491 0.0
H601 H 0.05012 0.85071 0.56487 0.0
H602 H 0.97828 0.7936 0.46142 0.0
H603 H 0.00879 0.88684 0.67813 0.0
H604 H 0.0253 0.82752 0.53834 0.0
H605 H 0.97141 0.83773 0.68423 0.0
C606 C 0.9594 0.81369 0.62435 0.0
C607 C 0.96108 0.80102 0.56143 0.0
C608 C 0.0217 0.8406 0.56864 0.0
C609 C 0.98822 0.82952 0.58365 0.0
C610 C 0.03585 0.85399 0.58342 0.0
C611 C 0.0317 0.87098 0.62373 0.0
C612 C 0.00327 0.84392 0.59564 0.0
C613 C 0.01289 0.8739 0.64819 0.0
C614 C 0.97282 0.82811 0.63513 0.0
C615 C 0.97643 0.8032 0.51028 0.0
N616 N 0.99942 0.86044 0.63434 0.0
N617 N 0.98953 0.81706 0.52295 0.0
H618 H 0.96951 0.20493 0.31094 0.0
H619 H 0.06941 0.15445 0.38377 0.0
H620 H 0.00773 0.22014 0.49723 0.0
H621 H 0.02599 0.1296 0.23863 0.0
H622 H 0.04812 0.18067 0.41487 0.0
H623 H 0.99115 0.17926 0.27298 0.0
C624 C 0.98241 0.20291 0.34395 0.0
C625 C 0.98674 0.2148 0.40755 0.0
C626 C 0.04321 0.16948 0.37629 0.0
C627 C 0.01168 0.18558 0.36351 0.0
C628 C 0.05533 0.15439 0.35882 0.0
C629 C 0.04944 0.13956 0.30927 0.0
C630 C 0.02503 0.16996 0.34361 0.0
C631 C 0.03121 0.14071 0.27683 0.0
C632 C 0.99478 0.18829 0.32197 0.0
C633 C 0.00387 0.21164 0.44705 0.0
N634 N 0.01963 0.15562 0.29472 0.0
N635 N 0.01566 0.19737 0.42443 0.0
H636 H 0.59563 0.14678 0.96784 0.0
H637 H 0.69118 0.20257 0.05887 0.0
H638 H 0.63461 0.1297 0.14821 0.0
H639 H 0.66138 0.209 0.84117 0.0
H640 H 0.66994 0.17644 0.09421 0.0
H641 H 0.61891 0.17009 0.92114 0.0
C642 C 0.60914 0.14787 -0.00274 0.0
C643 C 0.61318 0.13637 0.06221 0.0
C644 C 0.66808 0.18347 0.0385 0.0
C645 C 0.63977 0.16305 0.00955 0.0
C646 C 0.68011 0.19847 0.01856 0.0
C647 C 0.6779 0.20806 0.94732 0.0
C648 C 0.65353 0.17812 0.9873 0.0
C649 C 0.66354 0.20195 0.89665 0.0
C650 C 0.62243 0.16111 0.97042 0.0
C651 C 0.63097 0.13821 0.09769 0.0
N652 N 0.65175 0.18748 0.91795 0.0
N653 N 0.64352 0.15145 0.07144 0.0
H654 H 0.61252 0.83963 0.87902 0.0
H655 H 0.71919 0.80804 0.82137 0.0
H656 H 0.65366 0.87691 0.77079 0.0
H657 H 0.68575 0.78837 0.01581 0.0
H658 H 0.69427 0.83117 0.78947 0.0
H659 H 0.63814 0.81833 0.91783 0.0
C660 C 0.62688 0.8435 0.86377 0.0
C661 C 0.63078 0.86028 0.8215 0.0
C662 C 0.69247 0.82189 0.83944 0.0
C663 C 0.66017 0.83548 0.86421 0.0
C664 C 0.70662 0.8087 0.85749 0.0
C665 C 0.70447 0.79637 0.92136 0.0
C666 C 0.6759 0.82243 0.88455 0.0
C667 C 0.68797 0.79776 0.96647 0.0
C668 C 0.6415 0.83123 0.88577 0.0
C669 C 0.64977 0.86406 0.80191 0.0
N670 N 0.67419 0.81042 0.94669 0.0
N671 N 0.66371 0.85171 0.82298 0.0
H672 H 0.73676 0.67378 0.92473 0.0
H673 H 0.64637 0.64702 0.66754 0.0
H674 H 0.6958 0.71437 0.83957 0.0
H675 H 0.66951 0.60769 0.83645 0.0
H676 H 0.67092 0.66996 0.70116 0.0
H677 H 0.71812 0.64779 0.8651 0.0
C678 C 0.72407 0.67721 0.89221 0.0
C679 C 0.71764 0.69613 0.88722 0.0
C680 C 0.67076 0.65622 0.73025 0.0
C681 C 0.69664 0.66683 0.81885 0.0
C682 C 0.65675 0.64308 0.71111 0.0
C683 C 0.65565 0.62552 0.75032 0.0
C684 C 0.68386 0.65182 0.78883 0.0
C685 C 0.66972 0.62114 0.80534 0.0
C686 C 0.71344 0.66244 0.85879 0.0
C687 C 0.70109 0.69992 0.8452 0.0
N688 N 0.68319 0.63433 0.82369 0.0
N689 N 0.69117 0.68541 0.81264 0.0
H690 H 0.63456 0.38884 0.07466 0.0
H691 H 0.72284 0.31734 0.05006 0.0
H692 H 0.67817 0.38768 0.25066 0.0
H693 H 0.67237 0.31337 0.90928 0.0
H694 H 0.7089 0.34497 0.11783 0.0
H695 H 0.65068 0.36334 0.00561 0.0
C696 C 0.64755 0.38323 0.09895 0.0
C697 C 0.65486 0.39028 0.16924 0.0
C698 C 0.70096 0.338 0.07201 0.0
C699 C 0.67356 0.3609 0.08981 0.0
C700 C 0.70889 0.32228 0.03331 0.0
C701 C 0.69874 0.31299 0.97404 0.0
C702 C 0.68287 0.34451 0.05052 0.0
C703 C 0.68072 0.31997 0.95476 0.0
C704 C 0.65679 0.36862 0.05932 0.0
C705 C 0.67198 0.38261 0.19684 0.0
N706 N 0.67343 0.33526 -0.00731 0.0
N707 N 0.68073 0.36823 0.15722 0.0
H708 H 0.01539 0.40027 0.33074 0.0
H709 H 0.97987 0.30549 0.54604 0.0
H710 H 0.04625 0.34711 0.33515 0.0
H711 H 0.9408 0.34783 0.4592 0.0
H712 H 0.00612 0.32463 0.49736 0.0
H713 H 0.98961 0.38483 0.40428 0.0
C714 C 0.01682 0.38544 0.3479 0.0
C715 C 0.03285 0.37486 0.32627 0.0
C716 C 0.99181 0.3298 0.48945 0.0
C717 C 0.00376 0.35735 0.41075 0.0
C718 C 0.97678 0.31886 0.51712 0.0
C719 C 0.95804 0.3248 0.50501 0.0
C720 C 0.98817 0.34695 0.44988 0.0
C721 C 0.95501 0.34259 0.46906 0.0
C722 C 0.00212 0.37667 0.38949 0.0
C723 C 0.03403 0.35572 0.34981 0.0
N724 N 0.96993 0.35299 0.44204 0.0
N725 N 0.0197 0.3476 0.39076 0.0
H726 H 0.96408 0.69214 0.47287 0.0
H727 H 0.00323 0.62466 0.81211 0.0
H728 H 0.93963 0.69069 0.70278 0.0
H729 H 0.03356 0.63975 0.60316 0.0
H730 H 0.97509 0.64132 0.76104 0.0
H731 H 0.98434 0.66516 0.50744 0.0
C732 C 0.96272 0.68575 0.53018 0.0
C733 C 0.95031 0.6935 0.58525 0.0
C734 C 0.98777 0.64057 0.72571 0.0
C735 C 0.97376 0.66309 0.62622 0.0
C736 C 0.00371 0.63098 0.75449 0.0
C737 C 0.02055 0.63094 0.71138 0.0
C738 C 0.98884 0.64994 0.6533 0.0
C739 C 0.02075 0.63954 0.63785 0.0
C740 C 0.97432 0.67045 0.55009 0.0
C741 C 0.94904 0.68494 0.65887 0.0
N742 N 0.00517 0.64879 0.6113 0.0
N743 N 0.96089 0.67029 0.67783 0.0
H744 H 0.4648 0.32097 0.96989 0.0
H745 H 0.54569 0.35437 0.26033 0.0
H746 H 0.49072 0.28266 0.13621 0.0
H747 H 0.54069 0.37843 0.02986 0.0
H748 H 0.52143 0.33072 0.22673 0.0
H749 H 0.48902 0.34479 0.00031 0.0
C750 C 0.47556 0.31743 0.01234 0.0
C751 C 0.47551 0.29966 0.05071 0.0
C752 C 0.52565 0.34119 0.18358 0.0
C753 C 0.50292 0.3272 0.0872 0.0
C754 C 0.53937 0.35472 0.20284 0.0
C755 C 0.54516 0.36829 0.14766 0.0
C756 C 0.51741 0.34148 0.10914 0.0
C757 C 0.53665 0.36808 0.07375 0.0
C758 C 0.48931 0.33113 0.02992 0.0
C759 C 0.48974 0.29623 0.10635 0.0
N760 N 0.52308 0.35494 0.0567 0.0
N761 N 0.50274 0.3099 0.12328 0.0
H762 H 0.48198 0.70039 0.92903 0.0
H763 H 0.57569 0.64322 0.03631 0.0
H764 H 0.51027 0.70724 0.14991 0.0
H765 H 0.53768 0.62605 0.85262 0.0
H766 H 0.55252 0.66713 0.07847 0.0
H767 H 0.50296 0.67371 0.89846 0.0
C768 C 0.49267 0.69628 0.97102 0.0
C769 C 0.49453 0.70613 0.04178 0.0
C770 C 0.54917 0.65799 0.02949 0.0
C771 C 0.51858 0.67554 0.00731 0.0
C772 C 0.5624 0.64441 0.00526 0.0
C773 C 0.55861 0.63271 0.94066 0.0
C774 C 0.53217 0.66009 0.98807 0.0
C775 C 0.54112 0.63469 0.90298 0.0
C776 C 0.50454 0.68095 0.95382 0.0
C777 C 0.50839 0.7 0.09471 0.0
N778 N 0.52864 0.64827 0.92667 0.0
N779 N 0.52003 0.68519 0.07608 0.0
H780 H 0.17496 0.74278 0.68452 0.0
H781 H 0.13341 0.63824 0.61805 0.0
H782 H 0.20199 0.70084 0.53783 0.0
H783 H 0.11927 0.67187 0.82044 0.0
H784 H 0.15688 0.66228 0.58085 0.0
H785 H 0.15256 0.71822 0.72871 0.0
C786 C 0.17618 0.7284 0.66178 0.0
C787 C 0.19036 0.72379 0.60768 0.0
C788 C 0.14872 0.66437 0.63362 0.0
C789 C 0.16481 0.69577 0.65726 0.0
C790 C 0.13527 0.65071 0.65462 0.0
C791 C 0.12439 0.65312 0.72229 0.0
C792 C 0.15111 0.68072 0.67996 0.0
C793 C 0.12748 0.66944 0.76805 0.0
C794 C 0.16348 0.7144 0.68724 0.0
C795 C 0.1914 0.70494 0.58027 0.0
N796 N 0.14045 0.68273 0.7457 0.0
N797 N 0.17871 0.69166 0.60489 0.0
H798 H 0.21269 0.30583 0.4324 0.0
H799 H 0.12926 0.34163 0.15246 0.0
H800 H 0.19031 0.27166 0.24459 0.0
H801 H 0.14235 0.36747 0.37419 0.0
H802 H 0.15448 0.31817 0.17447 0.0
H803 H 0.19004 0.33099 0.40017 0.0
C804 C 0.20317 0.30373 0.38368 0.0
C805 C 0.20335 0.2866 0.34123 0.0
C806 C 0.15184 0.32901 0.21817 0.0
C807 C 0.17725 0.31528 0.30451 0.0
C808 C 0.13753 0.34244 0.20548 0.0
C809 C 0.13364 0.35642 0.26184 0.0
C810 C 0.16246 0.32972 0.28729 0.0
C811 C 0.1447 0.35675 0.32974 0.0
C812 C 0.19014 0.31803 0.36573 0.0
C813 C 0.1905 0.28456 0.27936 0.0
N814 N 0.1586 0.34362 0.34052 0.0
N815 N 0.17795 0.29872 0.26289 0.0
H816 H 0.14237 0.05353 0.0616 0.0
H817 H 0.11559 0.99735 0.75977 0.0
H818 H 0.12439 0.00323 0.18639 0.0
H819 H 0.13718 0.94902 0.88764 0.0
H820 H 0.12798 0.0186 0.85996 0.0
H821 H 0.14975 0.03352 0.94823 0.0
C822 C 0.14075 0.03818 0.06625 0.0
C823 C 0.13258 0.02996 0.13287 0.0
C824 C 0.13071 0.00342 0.86488 0.0
C825 C 0.14059 0.00719 0.00369 0.0
C826 C 0.12353 0.99127 0.80777 0.0
C827 C 0.12508 0.97142 0.81624 0.0
C828 C 0.13903 0.9956 0.93201 0.0
C829 C 0.13548 0.96425 0.87947 0.0
C830 C 0.14473 0.02682 0.00127 0.0
C831 C 0.13052 0.01007 0.13565 0.0
N832 N 0.14147 0.97631 0.93658 0.0
N833 N 0.13425 0.99935 0.07149 0.0
H834 H 0.38932 0.80573 0.21873 0.0
H835 H 0.28203 0.77098 0.21282 0.0
H836 H 0.36608 0.76279 0.06669 0.0
H837 H 0.30466 0.80697 0.39378 0.0
H838 H 0.31076 0.77587 0.13667 0.0
H839 H 0.357 0.81375 0.2621 0.0
C840 C 0.37734 0.7985 0.19264 0.0
C841 C 0.38018 0.78358 0.13945 0.0
C842 C 0.30943 0.78299 0.19243 0.0
C843 C 0.34354 0.79242 0.18865 0.0
C844 C 0.293 0.78023 0.23571 0.0
C845 C 0.29122 0.78839 0.30977 0.0
C846 C 0.32443 0.79358 0.22435 0.0
C847 C 0.30565 0.80042 0.33677 0.0
C848 C 0.35897 0.80294 0.21772 0.0
C849 C 0.36438 0.77434 0.10812 0.0
N850 N 0.32193 0.80233 0.29472 0.0
N851 N 0.34677 0.7788 0.13362 0.0
H852 H 0.5551 0.01011 0.2744 0.0
H853 H 0.53384 0.94566 0.56461 0.0
H854 H 0.52693 0.05224 0.41585 0.0
H855 H 0.55535 0.99355 0.69538 0.0
H856 H 0.52453 0.96767 0.4598 0.0
H857 H 0.54817 0.98589 0.37331 0.0
C858 C 0.54705 0.01414 0.32561 0.0
C859 C 0.54177 0.03319 0.33783 0.0
C860 C 0.53076 0.97334 0.51262 0.0
C861 C 0.53422 0.00577 0.4516 0.0
C862 C 0.53598 0.96086 0.57249 0.0
C863 C 0.54569 0.96783 0.63787 0.0
C864 C 0.53491 0.99288 0.51952 0.0
C865 C 0.54812 0.98763 0.64527 0.0
C866 C 0.54301 1.00031 0.38171 0.0
C867 C 0.5314 0.03772 0.40505 0.0
N868 N 0.54293 0.99949 0.58634 0.0
N869 N 0.52854 0.02422 0.46102 0.0
H870 H 0.39104 0.20422 0.80808 0.0
H871 H 0.28468 0.19251 0.66058 0.0
H872 H 0.34288 0.21628 0.95431 0.0
H873 H 0.32803 0.22226 0.53205 0.0
H874 H 0.30794 0.18553 0.76361 0.0
H875 H 0.36943 0.19466 0.70309 0.0
C876 C 0.37595 0.20397 0.8193 0.0
C877 C 0.36863 0.21106 0.88956 0.0
C878 C 0.3124 0.19306 0.71155 0.0
C879 C 0.34406 0.20003 0.77084 0.0
C880 C 0.29919 0.19707 0.65311 0.0
C881 C 0.30441 0.20839 0.58917 0.0
C882 C 0.33101 0.19982 0.70391 0.0
C883 C 0.32343 0.21375 0.58129 0.0
C884 C 0.36368 0.19865 0.75934 0.0
C885 C 0.34898 0.21087 0.90077 0.0
N886 N 0.33605 0.20954 0.63837 0.0
N887 N 0.33731 0.20562 0.84161 0.0
H888 H 0.78401 0.3032 0.73376 0.0
H889 H 0.88974 0.26694 0.78137 0.0
H890 H 0.80437 0.26777 0.92094 0.0
H891 H 0.87152 0.30141 0.58744 0.0
H892 H 0.86022 0.2741 0.84882 0.0
H893 H 0.81697 0.30944 0.69445 0.0
C894 C 0.79548 0.29734 0.76816 0.0
C895 C 0.79168 0.28503 0.83063 0.0
C896 C 0.86268 0.28041 0.79207 0.0
C897 C 0.82909 0.29167 0.78563 0.0
C898 C 0.87956 0.27633 0.75372 0.0
C899 C 0.88283 0.28344 0.67872 0.0
C900 C 0.84869 0.29123 0.75413 0.0
C901 C 0.86938 0.29567 0.64539 0.0
C902 C 0.81424 0.30076 0.74547 0.0
C903 C 0.80685 0.27739 0.87252 0.0
N904 N 0.85263 0.29886 0.68267 0.0
N905 N 0.82487 0.28067 0.84883 0.0
H906 H 0.83363 0.70988 0.02944 0.0
H907 H 0.88493 0.69106 0.35222 0.0
H908 H 0.78349 0.69533 0.15975 0.0
H909 H 0.83436 0.71392 0.45783 0.0
H910 H 0.86599 0.68033 0.24092 0.0
H911 H 0.85303 0.69925 0.13871 0.0
C912 C 0.82676 0.70365 0.07993 0.0
C913 C 0.807 0.70346 0.08583 0.0
C914 C 0.85901 0.68729 0.2894 0.0
C915 C 0.82902 0.69175 0.21197 0.0
C916 C 0.86976 0.69324 0.35333 0.0
C917 C 0.86124 0.70389 0.41311 0.0
C918 C 0.83969 0.69198 0.28601 0.0
C919 C 0.84152 0.70615 0.41187 0.0
C920 C 0.83784 0.69751 0.14235 0.0
C921 C 0.79872 0.69557 0.15289 0.0
N922 N 0.83144 0.70056 0.34854 0.0
N923 N 0.80978 0.69064 0.21458 0.0
H924 H 0.61668 0.50606 0.7135 0.0
H925 H 0.64207 0.44812 0.40752 0.0
H926 H 0.6484 0.55051 0.59846 0.0
H927 H 0.6255 0.49969 0.28786 0.0
H928 H 0.64946 0.46718 0.52346 0.0
H929 H 0.62503 0.48408 0.60815 0.0
C930 C 0.62575 0.51106 0.6668 0.0
C931 C 0.6316 0.53018 0.66372 0.0
C932 C 0.64475 0.47431 0.47088 0.0
C933 C 0.64088 0.5053 0.5427 0.0
C934 C 0.64062 0.4635 0.40459 0.0
C935 C 0.63275 0.47235 0.33866 0.0
C936 C 0.64142 0.49407 0.47009 0.0
C937 C 0.63127 0.49233 0.33803 0.0
C938 C 0.63061 0.49849 0.60705 0.0
C939 C 0.64339 0.53594 0.60218 0.0
N940 N 0.63537 0.50254 0.4032 0.0
N941 N 0.6471 0.52371 0.54242 0.0
H942 H 0.03418 0.56114 0.9879 0.0
H943 H 0.03549 0.44872 0.06415 0.0
H944 H 0.04768 0.51903 0.81334 0.0
H945 H 0.05595 0.49067 0.22734 0.0
H946 H 0.02466 0.47469 0.97858 0.0
H947 H 0.02685 0.53527 0.07994 0.0
C948 C 0.03479 0.54647 0.96795 0.0
C949 C 0.04168 0.54209 0.89339 0.0
C950 C 0.03086 0.47814 0.03456 0.0
C951 C 0.03321 0.51268 -0.00258 0.0
C952 C 0.03688 0.46339 0.08354 0.0
C953 C 0.04659 0.4677 0.15255 0.0
C954 C 0.03434 0.4972 0.05574 0.0
C955 C 0.04851 0.48687 0.17442 0.0
C956 C 0.03072 0.53176 0.02053 0.0
C957 C 0.04248 0.52289 0.8706 0.0
N958 N 0.0426 0.50097 0.12575 0.0
N959 N 0.0385 0.50885 0.92272 0.0
H960 H 0.12532 0.11073 0.88155 0.0
H961 H 0.09254 0.03321 0.57063 0.0
H962 H 0.10468 0.05523 0.95094 0.0
H963 H 0.12603 0.08307 0.51659 0.0
H964 H 0.09624 0.04034 0.71001 0.0
H965 H 0.12451 0.10058 0.74621 0.0
C966 C 0.12065 0.09637 0.86825 0.0
C967 C 0.11506 0.08384 0.92765 0.0
C968 C 0.10296 0.04952 0.66736 0.0
C969 C 0.11396 0.07207 0.77234 0.0
C970 C 0.10085 0.04547 0.58806 0.0
C971 C 0.10894 0.05756 0.53182 0.0
C972 C 0.113 0.06591 0.69007 0.0
C973 C 0.1197 0.07319 0.55741 0.0
C974 C 0.12019 0.09056 0.79091 0.0
C975 C 0.10883 0.06547 0.9069 0.0
N976 N 0.12123 0.077 0.63448 0.0
N977 N 0.10841 0.06012 0.83071 0.0
H978 H 0.24475 0.74815 0.13731 0.0
H979 H 0.23926 0.80979 0.75148 0.0
H980 H 0.22479 0.80625 0.1455 0.0
H981 H 0.28078 0.76554 0.78765 0.0
H982 H 0.23077 0.80791 0.89046 0.0
H983 H 0.2547 0.75298 0.00253 0.0
C984 C 0.24226 0.76188 0.1101 0.0
C985 C 0.2337 0.77677 0.15176 0.0
C986 C 0.24189 0.79882 0.86787 0.0
C987 C 0.24518 0.78246 -0.00219 0.0
C988 C 0.24667 0.79983 0.78884 0.0
C989 C 0.26075 0.78782 0.75818 0.0
C990 C 0.25098 0.78541 0.91579 0.0
C991 C 0.27001 0.7752 0.80892 0.0
C992 C 0.24813 0.7647 0.03359 0.0
C993 C 0.23124 0.79444 0.11467 0.0
N994 N 0.2648 0.77417 0.88494 0.0
N995 N 0.23678 0.79679 0.03916 0.0
H996 H 0.54467 0.94451 0.03936 0.0
H997 H 0.57885 0.88067 0.39446 0.0
H998 H 0.59946 0.91763 0.04408 0.0
H999 H 0.54632 0.9318 0.43438 0.0
H1000 H 0.58134 0.88921 0.25604 0.0
H1001 H 0.54011 0.93559 0.17741 0.0
C1002 C 0.55571 0.93684 0.06991 0.0
C1003 C 0.57255 0.93203 0.03167 0.0
C1004 C 0.57357 0.89848 0.2952 0.0
C1005 C 0.56729 0.92132 0.18647 0.0
C1006 C 0.57204 0.89355 0.37365 0.0
C1007 C 0.56244 0.90562 0.42532 0.0
C1008 C 0.56509 0.91536 0.2683 0.0
C1009 C 0.55398 0.92228 0.39607 0.0
C1010 C 0.55314 0.93177 0.14801 0.0
C1011 C 0.58645 0.92188 0.07254 0.0
N1012 N 0.55542 0.92666 0.31913 0.0
N1013 N 0.58346 0.9167 0.14771 0.0
H1014 H 0.39223 0.27152 0.31207 0.0
H1015 H 0.4235 0.19921 0.6472 0.0
H1016 H 0.39916 0.21087 0.2758 0.0
H1017 H 0.41406 0.25939 0.68459 0.0
H1018 H 0.41277 0.20281 0.51291 0.0
H1019 H 0.3975 0.26684 0.45058 0.0
C1020 C 0.39455 0.25715 0.33304 0.0
C1021 C 0.39543 0.24158 0.28148 0.0
C1022 C 0.41299 0.21523 0.55049 0.0
C1023 C 0.40192 0.23621 0.44084 0.0
C1024 C 0.41929 0.21322 0.62701 0.0
C1025 C 0.41993 0.2291 0.67685 0.0
C1026 C 0.40736 0.23327 0.52336 0.0
C1027 C 0.41378 0.24679 0.64811 0.0
C1028 C 0.39772 0.25452 0.41246 0.0
C1029 C 0.39873 0.22335 0.31286 0.0
N1030 N 0.40788 0.24843 0.57309 0.0
N1031 N 0.40203 0.22119 0.39037 0.0
H1032 H 0.12849 0.94274 0.41788 0.0
H1033 H 0.07624 0.89585 0.05914 0.0
H1034 H 0.06776 0.93873 0.40066 0.0
H1035 H 0.12605 0.93009 0.01916 0.0
H1036 H 0.07617 0.90595 0.19527 0.0
H1037 H 0.13094 0.93348 0.27923 0.0
C1038 C 0.11574 0.94011 0.38457 0.0
C1039 C 0.09791 0.9417 0.4199 0.0
C1040 C 0.08717 0.91119 0.15673 0.0
C1041 C 0.10057 0.93071 0.26428 0.0
C1042 C 0.08731 0.9053 0.07944 0.0
C1043 C 0.10119 0.91215 0.02829 0.0
C1044 C 0.10116 0.9238 0.18337 0.0
C1045 C 0.11507 0.92463 0.05714 0.0
C1046 C 0.11713 0.93488 0.30608 0.0
C1047 C 0.08174 0.93801 0.37512 0.0
N1048 N 0.11479 0.93004 0.1333 0.0
N1049 N 0.08346 0.93249 0.29988 0.0
H1050 H 0.42192 0.72888 0.763 0.0
H1051 H 0.42933 0.80776 0.42864 0.0
H1052 H 0.41312 0.78914 0.80212 0.0
H1053 H 0.44025 0.74776 0.39235 0.0
H1054 H 0.42064 0.80092 0.56328 0.0
H1055 H 0.42503 0.73511 0.62396 0.0
C1056 C 0.42033 0.74339 0.7423 0.0
C1057 C 0.41747 0.75856 0.7944 0.0
C1058 C 0.42488 0.78924 0.5258 0.0
C1059 C 0.4214 0.76583 0.63544 0.0
C1060 C 0.43002 0.79316 0.4491 0.0
C1061 C 0.43571 0.77831 0.39945 0.0
C1062 C 0.42549 0.77034 0.55308 0.0
C1063 C 0.43586 0.7596 0.4286 0.0
C1064 C 0.42227 0.74696 0.66288 0.0
C1065 C 0.41572 0.77709 0.76416 0.0
N1066 N 0.43092 0.75615 0.50369 0.0
N1067 N 0.41787 0.78024 0.68666 0.0
H1068 H 0.57827 0.11665 0.56948 0.0
H1069 H 0.51928 0.05807 0.88241 0.0
H1070 H 0.53625 0.0743 0.51118 0.0
H1071 H 0.55399 0.10656 0.94197 0.0
H1072 H 0.52285 0.0661 0.74455 0.0
H1073 H 0.56787 0.11515 0.7055 0.0
C1074 C 0.56685 0.10709 0.58512 0.0
C1075 C 0.55826 0.09544 0.52883 0.0
C1076 C 0.52942 0.07522 0.78773 0.0
C1077 C 0.54618 0.09376 0.68371 0.0
C1078 C 0.52734 0.07062 0.86621 0.0
C1079 C 0.53644 0.08158 0.92313 0.0
C1080 C 0.54099 0.09068 0.76619 0.0
C1081 C 0.54666 0.0978 0.89971 0.0
C1082 C 0.5608 0.10636 0.66255 0.0
C1083 C 0.54326 0.08359 0.5521 0.0
N1084 N 0.54895 0.10168 0.82276 0.0
N1085 N 0.53784 0.08292 0.62776 0.0
H1086 H 0.26363 0.20192 0.76001 0.0
H1087 H 0.23024 0.22071 0.19603 0.0
H1088 H 0.222 0.24419 0.82404 0.0
H1089 H 0.28051 0.18934 0.13314 0.0
H1090 H 0.22167 0.22269 0.05839 0.0
H1091 H 0.26458 0.19097 0.89414 0.0
C1092 C 0.25448 0.20876 0.80193 0.0
C1093 C 0.24288 0.22418 0.78075 0.0
C1094 C 0.23439 0.21508 0.07486 0.0
C1095 C 0.24405 0.21177 0.9351 0.0
C1096 C 0.23921 0.21377 0.15339 0.0
C1097 C 0.25624 0.20503 0.17554 0.0
C1098 C 0.24669 0.20753 0.01854 0.0
C1099 C 0.26743 0.19646 0.11797 0.0
C1100 C 0.25509 0.20252 0.87876 0.0
C1101 C 0.23144 0.23254 0.83818 0.0
N1102 N 0.26257 0.19811 0.04185 0.0
N1103 N 0.23242 0.22632 0.91306 0.0
H1104 H 0.95221 0.27427 0.26249 0.0
H1105 H 0.92078 0.29364 0.82389 0.0
H1106 H 0.89761 0.29717 0.19906 0.0
H1107 H 0.96921 0.25979 0.88953 0.0
H1108 H 0.91541 0.30132 0.96093 0.0
H1109 H 0.96169 0.27527 0.12658 0.0
C1110 C 0.94228 0.27984 0.22024 0.0
C1111 C 0.924 0.28558 0.24224 0.0
C1112 C 0.92736 0.29244 0.94525 0.0
C1113 C 0.93474 0.28638 0.08587 0.0
C1114 C 0.93055 0.28819 0.86705 0.0
C1115 C 0.94544 0.27599 0.84572 0.0
C1116 C 0.93919 0.28447 0.00223 0.0
C1117 C 0.95747 0.26906 0.904 0.0
C1118 C 0.94769 0.28025 0.14239 0.0
C1119 C 0.91171 0.29234 0.18437 0.0
N1120 N 0.95401 0.27329 0.97981 0.0
N1121 N 0.91726 0.29243 0.10855 0.0
H1122 H 0.77742 0.70341 0.70005 0.0
H1123 H 0.7666 0.75428 0.28493 0.0
H1124 H 0.78703 0.76354 0.65984 0.0
H1125 H 0.75076 0.69577 0.32974 0.0
H1126 H 0.77818 0.75683 0.41866 0.0
H1127 H 0.77175 0.69922 0.56068 0.0
C1128 C 0.77847 0.71571 0.66206 0.0
C1129 C 0.78246 0.7339 0.69226 0.0
C1130 C 0.77221 0.74341 0.39917 0.0
C1131 C 0.77607 0.72919 0.5326 0.0
C1132 C 0.76564 0.74195 0.32281 0.0
C1133 C 0.75748 0.72488 0.29643 0.0
C1134 C 0.77065 0.72766 0.44953 0.0
C1135 C 0.75653 0.70934 0.34809 0.0
C1136 C 0.77527 0.71329 0.58244 0.0
C1137 C 0.78406 0.74923 0.63973 0.0
N1138 N 0.76297 0.71113 0.42226 0.0
N1139 N 0.78069 0.74655 0.56269 0.0
H1140 H 0.73113 0.2478 0.58643 0.0
H1141 H 0.76013 0.29171 0.17363 0.0
H1142 H 0.74061 0.3079 0.54589 0.0
H1143 H 0.75054 0.23163 0.21371 0.0
H1144 H 0.75575 0.29761 0.31268 0.0
H1145 H 0.74061 0.24125 0.45222 0.0
C1146 C 0.73527 0.2596 0.54935 0.0
C1147 C 0.73494 0.27843 0.57721 0.0
C1148 C 0.75478 0.28311 0.29118 0.0
C1149 C 0.74572 0.27108 0.42368 0.0
C1150 C 0.75725 0.27975 0.21185 0.0
C1151 C 0.75549 0.2612 0.18203 0.0
C1152 C 0.75043 0.26779 0.34091 0.0
C1153 C 0.7521 0.24614 0.23421 0.0
C1154 C 0.74065 0.25587 0.47277 0.0
C1155 C 0.74029 0.29322 0.52653 0.0
N1156 N 0.74948 0.2498 0.31109 0.0
N1157 N 0.74542 0.28922 0.45213 0.0
H1158 H 0.89309 0.70641 0.208 0.0
H1159 H 0.89903 0.76572 0.81867 0.0
H1160 H 0.93838 0.7461 0.16282 0.0
H1161 H 0.88367 0.70621 0.80804 0.0
H1162 H 0.90712 0.76185 0.95634 0.0
H1163 H 0.88353 0.70872 0.07002 0.0
C1164 C 0.90097 0.71555 0.1688 0.0
C1165 C 0.91654 0.72603 0.19588 0.0
C1166 C 0.90184 0.74968 0.92397 0.0
C1167 C 0.90556 0.72908 0.04076 0.0
C1168 C 0.89706 0.75192 0.846 0.0
C1169 C 0.89057 0.73626 0.80284 0.0
C1170 C 0.8998 0.73175 0.95922 0.0
C1171 C 0.88861 0.71855 0.84009 0.0
C1172 C 0.89559 0.7168 0.09067 0.0
C1173 C 0.92643 0.73768 0.14353 0.0
N1174 N 0.89312 0.71674 0.91683 0.0
N1175 N 0.92063 0.73908 0.06847 0.0
H1176 H 0.59397 0.61266 0.43748 0.0
H1177 H 0.65263 0.55362 0.12429 0.0
H1178 H 0.63459 0.56894 0.49547 0.0
H1179 H 0.61836 0.60246 0.06505 0.0
H1180 H 0.64878 0.56135 0.26226 0.0
H1181 H 0.60448 0.6111 0.3015 0.0
C1182 C 0.60512 0.60279 0.42168 0.0
C1183 C 0.61335 0.59084 0.47782 0.0
C1184 C 0.64237 0.5706 0.21914 0.0
C1185 C 0.62554 0.58907 0.32317 0.0
C1186 C 0.64461 0.56619 0.14059 0.0
C1187 C 0.63571 0.57732 0.08367 0.0
C1188 C 0.63086 0.58609 0.24077 0.0
C1189 C 0.62554 0.59355 0.10727 0.0
C1190 C 0.61124 0.60202 0.34435 0.0
C1191 C 0.62796 0.57853 0.45454 0.0
N1192 N 0.62311 0.59728 0.18425 0.0
N1193 N 0.63347 0.57785 0.37899 0.0
H1194 H 0.03141 0.41397 0.88327 0.0
H1195 H 0.10751 0.4351 0.55087 0.0
H1196 H 0.09163 0.41644 0.92351 0.0
H1197 H 0.04716 0.43563 0.51138 0.0
H1198 H 0.10177 0.431 0.68956 0.0
H1199 H 0.03669 0.42372 0.74837 0.0
C1200 C 0.04575 0.41648 0.86362 0.0
C1201 C 0.06114 0.41422 0.91442 0.0
C1202 C 0.08976 0.43217 0.65066 0.0
C1203 C 0.06727 0.42561 0.76053 0.0
C1204 C 0.09303 0.43467 0.57128 0.0
C1205 C 0.07779 0.4355 0.51896 0.0
C1206 C 0.07113 0.43037 0.67806 0.0
C1207 C 0.05934 0.43464 0.54925 0.0
C1208 C 0.04875 0.42221 0.7868 0.0
C1209 C 0.07938 0.4181 0.88635 0.0
N1210 N 0.05653 0.43194 0.62675 0.0
N1211 N 0.08196 0.4235 0.81113 0.0
H1212 H 0.63204 0.39317 0.57686 0.0
H1213 H 0.59936 0.46915 0.89718 0.0
H1214 H 0.59728 0.44248 0.52798 0.0
H1215 H 0.62788 0.41626 0.95122 0.0
H1216 H 0.60332 0.46231 0.75836 0.0
H1217 H 0.63467 0.40367 0.71206 0.0
C1218 C 0.62489 0.40613 0.59443 0.0
C1219 C 0.61429 0.41683 0.54087 0.0
C1220 C 0.60889 0.45232 0.8007 0.0
C1221 C 0.61753 0.42913 0.69511 0.0
C1222 C 0.60664 0.45623 0.8798 0.0
C1223 C 0.61307 0.44317 0.93579 0.0
C1224 C 0.61751 0.43514 0.77762 0.0
C1225 C 0.62274 0.42679 0.91028 0.0
C1226 C 0.62656 0.41223 0.67147 0.0
C1227 C 0.60572 0.4338 0.56674 0.0
N1228 N 0.62444 0.42312 0.83299 0.0
N1229 N 0.60746 0.43936 0.64204 0.0
H1230 H 0.03885 0.59603 0.52777 0.0
H1231 H 0.07542 0.57483 0.09905 0.0
H1232 H 0.07818 0.55081 0.47208 0.0
H1233 H 0.03372 0.6178 0.15513 0.0
H1234 H 0.07386 0.56331 0.23274 0.0
H1235 H 0.0335 0.6011 0.38977 0.0
C1236 C 0.04608 0.58684 0.48681 0.0
C1237 C 0.05926 0.57313 0.51187 0.0
C1238 C 0.06496 0.57519 0.21566 0.0
C1239 C 0.05352 0.57931 0.35297 0.0
C1240 C 0.06582 0.58178 0.13915 0.0
C1241 C 0.05484 0.59749 0.11581 0.0
C1242 C 0.05314 0.58443 0.26944 0.0
C1243 C 0.04278 0.60596 0.1708 0.0
C1244 C 0.04313 0.58989 0.40763 0.0
C1245 C 0.06827 0.56184 0.45536 0.0
N1246 N 0.04235 0.59941 0.24519 0.0
N1247 N 0.06544 0.56536 0.37845 0.0
loop_
_geom_bond_atom_site_label_1
_geom_bond_atom_site_label_2
_geom_bond_distance
_geom_bond_site_symmetry_2
_ccdc_geom_bond_type
C0 C1 1.351 . S
C0 N3 1.368 . S
C0 H5 0.931 . S
C1 C0 1.351 . S
C1 N2 1.373 . S
C1 H29 0.930 . S
N2 C1 1.373 . S
N2 C4 1.340 . S
N3 C0 1.368 . S
N3 C4 1.321 . S
N3 Co6 2.135 . S
C4 N2 1.340 . S
C4 N3 1.321 . S
C4 H28 0.930 . S
H5 C0 0.931 . S
Co6 N3 2.135 . S
Co6 N9 2.121 . S
Co6 O14 2.055 . S
Co6 O17 2.039 . S
Co6 N20 2.140 . S
C7 O8 1.227 . S
C7 O17 1.265 . S
O8 C7 1.227 . S
N9 Co6 2.121 . S
N9 C11 1.375 . S
N9 C12 1.313 . S
C10 C11 1.338 . S
C10 N13 1.377 . S
C10 H30 0.930 . S
C11 N9 1.375 . S
C11 C10 1.338 . S
C11 H15 0.931 . S
C12 N9 1.313 . S
C12 N13 1.344 . S
C12 H16 0.930 . S
N13 C10 1.377 . S
N13 C12 1.344 . S
O14 Co6 2.055 . S
O14 C18 1.253 . S
H15 C11 0.931 . S
H16 C12 0.930 . S
O17 Co6 2.039 . S
O17 C7 1.265 . S
C18 O14 1.253 . S
C18 O19 1.227 . S
O19 C18 1.227 . S
N20 Co6 2.140 . S
N20 C23 1.346 . S
N20 C24 1.345 . S
C21 C22 1.387 . S
C21 C25 1.391 . S
C22 C21 1.387 . S
C22 C23 1.369 . S
C22 H31 0.929 . S
C23 N20 1.346 . S
C23 C22 1.369 . S
C23 H26 0.928 . S
C24 N20 1.345 . S
C24 C25 1.371 . S
C24 H27 0.931 . S
C25 C21 1.391 . S
C25 C24 1.371 . S
C25 H32 0.930 . S
H26 C23 0.928 . S
H27 C24 0.931 . S
H28 C4 0.930 . S
H29 C1 0.930 . S
H30 C10 0.930 . S
H31 C22 0.929 . S
H32 C25 0.930 . S
C33 C34 1.351 . S
C33 N36 1.368 . S
C33 H38 0.931 . S
C34 C33 1.351 . S
C34 N35 1.373 . S
C34 H62 0.930 . S
N35 C34 1.373 . S
N35 C37 1.340 . S
N36 C33 1.368 . S
N36 C37 1.321 . S
N36 Co39 2.135 . S
C37 N35 1.340 . S
C37 N36 1.321 . S
C37 H61 0.930 . S
H38 C33 0.931 . S
Co39 N36 2.135 . S
Co39 N42 2.121 . S
Co39 O47 2.055 . S
Co39 O50 2.039 . S
Co39 N53 2.140 . S
C40 O41 1.227 . S
C40 O50 1.265 . S
O41 C40 1.227 . S
N42 Co39 2.121 . S
N42 C44 1.375 . S
N42 C45 1.313 . S
C43 C44 1.338 . S
C43 N46 1.377 . S
C43 H63 0.930 . S
C44 N42 1.375 . S
C44 C43 1.338 . S
C44 H48 0.931 . S
C45 N42 1.313 . S
C45 N46 1.344 . S
C45 H49 0.930 . S
N46 C43 1.377 . S
N46 C45 1.344 . S
O47 Co39 2.055 . S
O47 C51 1.253 . S
H48 C44 0.931 . S
H49 C45 0.930 . S
O50 Co39 2.039 . S
O50 C40 1.265 . S
C51 O47 1.253 . S
C51 O52 1.227 . S
O52 C51 1.227 . S
N53 Co39 2.140 . S
N53 C56 1.346 . S
N53 C57 1.345 . S
C54 C55 1.387 . S
C54 C58 1.391 . S
C55 C54 1.387 . S
C55 C56 1.369 . S
C55 H64 0.929 . S
C56 N53 1.346 . S
C56 C55 1.369 . S
C56 H59 0.928 . S
C57 N53 1.345 . S
C57 C58 1.371 . S
C57 H60 0.931 . S
C58 C54 1.391 . S
C58 C57 1.371 . S
C58 H65 0.930 . S
H59 C56 0.928 . S
H60 C57 0.931 . S
H61 C37 0.930 . S
H62 C34 0.930 . S
H63 C43 0.930 . S
H64 C55 0.929 . S
H65 C58 0.930 . S
C66 C67 1.351 1_556 S
C66 N69 1.368 . S
C66 H71 0.931 . S
C67 C66 1.351 1_554 S
C67 N68 1.373 . S
C67 H95 0.930 . S
N68 C67 1.373 . S
N68 C70 1.340 1_554 S
N69 C66 1.368 . S
N69 C70 1.321 . S
N69 Co72 2.135 . S
C70 N68 1.340 1_556 S
C70 N69 1.321 . S
C70 H94 0.930 . S
H71 C66 0.931 . S
Co72 N69 2.135 . S
Co72 N75 2.121 . S
Co72 O80 2.055 . S
Co72 O83 2.039 . S
Co72 N86 2.140 . S
C73 O74 1.227 . S
C73 O83 1.265 . S
O74 C73 1.227 . S
N75 Co72 2.121 . S
N75 C77 1.375 . S
N75 C78 1.313 . S
C76 C77 1.338 . S
C76 N79 1.377 . S
C76 H96 0.930 . S
C77 N75 1.375 . S
C77 C76 1.338 . S
C77 H81 0.931 . S
C78 N75 1.313 . S
C78 N79 1.344 . S
C78 H82 0.930 . S
N79 C76 1.377 . S
N79 C78 1.344 . S
O80 Co72 2.055 . S
O80 C84 1.253 . S
H81 C77 0.931 . S
H82 C78 0.930 . S
O83 Co72 2.039 . S
O83 C73 1.265 . S
C84 O80 1.253 . S
C84 O85 1.227 . S
O85 C84 1.227 . S
N86 Co72 2.140 . S
N86 C89 1.346 . S
N86 C90 1.345 . S
C87 C88 1.387 . S
C87 C91 1.391 . S
C88 C87 1.387 . S
C88 C89 1.369 . S
C88 H97 0.929 . S
C89 N86 1.346 . S
C89 C88 1.369 . S
C89 H92 0.928 . S
C90 N86 1.345 . S
C90 C91 1.371 . S
C90 H93 0.931 . S
C91 C87 1.391 . S
C91 C90 1.371 . S
C91 H98 0.930 . S
H92 C89 0.928 . S
H93 C90 0.931 . S
H94 C70 0.930 . S
H95 C67 0.930 . S
H96 C76 0.930 . S
H97 C88 0.929 . S
H98 C91 0.930 . S
C99 C100 1.351 . S
C99 N102 1.368 . S
C99 H104 0.931 . S
C100 C99 1.351 . S
C100 N101 1.373 . S
C100 H128 0.930 . S
N101 C100 1.373 . S
N101 C103 1.340 . S
N102 C99 1.368 . S
N102 C103 1.321 . S
N102 Co105 2.135 1_554 S
C103 N101 1.340 . S
C103 N102 1.321 . S
C103 H127 0.930 . S
H104 C99 0.931 . S
Co105 N102 2.135 1_556 S
Co105 N108 2.121 . S
Co105 O113 2.055 . S
Co105 O116 2.039 1_556 S
Co105 N119 2.140 1_556 S
C106 O107 1.227 . S
C106 O116 1.265 . S
O107 C106 1.227 . S
N108 Co105 2.121 . S
N108 C110 1.375 . S
N108 C111 1.313 . S
C109 C110 1.338 . S
C109 N112 1.377 . S
C109 H129 0.930 . S
C110 N108 1.375 . S
C110 C109 1.338 . S
C110 H114 0.931 . S
C111 N108 1.313 . S
C111 N112 1.344 . S
C111 H115 0.930 . S
N112 C109 1.377 . S
N112 C111 1.344 . S
O113 Co105 2.055 . S
O113 C117 1.253 . S
H114 C110 0.931 . S
H115 C111 0.930 . S
O116 Co105 2.039 1_554 S
O116 C106 1.265 . S
C117 O113 1.253 . S
C117 O118 1.227 . S
O118 C117 1.227 . S
N119 Co105 2.140 1_554 S
N119 C122 1.346 . S
N119 C123 1.345 1_554 S
C120 C121 1.387 . S
C120 C124 1.391 1_554 S
C121 C120 1.387 . S
C121 C122 1.369 . S
C121 H130 0.929 . S
C122 N119 1.346 . S
C122 C121 1.369 . S
C122 H125 0.928 . S
C123 N119 1.345 1_556 S
C123 C124 1.371 . S
C123 H126 0.931 . S
C124 C120 1.391 1_556 S
C124 C123 1.371 . S
C124 H131 0.930 . S
H125 C122 0.928 . S
H126 C123 0.931 . S
H127 C103 0.930 . S
H128 C100 0.930 . S
H129 C109 0.930 . S
H130 C121 0.929 . S
H131 C124 0.930 . S
C132 C133 1.351 . S
C132 N135 1.368 . S
C132 H137 0.931 . S
C133 C132 1.351 . S
C133 N134 1.373 . S
C133 H161 0.930 . S
N134 C133 1.373 . S
N134 C136 1.340 . S
N135 C132 1.368 . S
N135 C136 1.321 . S
N135 Co138 2.135 . S
C136 N134 1.340 . S
C136 N135 1.321 . S
C136 H160 0.930 . S
H137 C132 0.931 . S
Co138 N135 2.135 . S
Co138 N141 2.121 . S
Co138 O146 2.055 . S
Co138 O149 2.039 . S
Co138 N152 2.140 . S
C139 O140 1.227 . S
C139 O149 1.265 . S
O140 C139 1.227 . S
N141 Co138 2.121 . S
N141 C143 1.375 . S
N141 C144 1.313 . S
C142 C143 1.338 . S
C142 N145 1.377 . S
C142 H162 0.930 . S
C143 N141 1.375 . S
C143 C142 1.338 . S
C143 H147 0.931 . S
C144 N141 1.313 . S
C144 N145 1.344 . S
C144 H148 0.930 . S
N145 C142 1.377 . S
N145 C144 1.344 . S
O146 Co138 2.055 . S
O146 C150 1.253 . S
H147 C143 0.931 . S
H148 C144 0.930 . S
O149 Co138 2.039 . S
O149 C139 1.265 . S
C150 O146 1.253 . S
C150 O151 1.227 . S
O151 C150 1.227 . S
N152 Co138 2.140 . S
N152 C155 1.346 . S
N152 C156 1.345 . S
C153 C154 1.387 . S
C153 C157 1.391 . S
C154 C153 1.387 . S
C154 C155 1.369 . S
C154 H163 0.929 . S
C155 N152 1.346 . S
C155 C154 1.369 . S
C155 H158 0.928 . S
C156 N152 1.345 . S
C156 C157 1.371 . S
C156 H159 0.931 . S
C157 C153 1.391 . S
C157 C156 1.371 . S
C157 H164 0.930 . S
H158 C155 0.928 . S
H159 C156 0.931 . S
H160 C136 0.930 . S
H161 C133 0.930 . S
H162 C142 0.930 . S
H163 C154 0.929 . S
H164 C157 0.930 . S
C165 C166 1.351 . S
C165 N168 1.368 . S
C165 H170 0.931 . S
C166 C165 1.351 . S
C166 N167 1.373 . S
C166 H194 0.930 . S
N167 C166 1.373 . S
N167 C169 1.340 . S
N168 C165 1.368 . S
N168 C169 1.321 . S
N168 Co171 2.135 1_556 S
C169 N167 1.340 . S
C169 N168 1.321 . S
C169 H193 0.930 . S
H170 C165 0.931 . S
Co171 N168 2.135 1_554 S
Co171 N174 2.121 . S
Co171 O179 2.055 . S
Co171 O182 2.039 1_554 S
Co171 N185 2.140 1_554 S
C172 O173 1.227 . S
C172 O182 1.265 . S
O173 C172 1.227 . S
N174 Co171 2.121 . S
N174 C176 1.375 . S
N174 C177 1.313 . S
C175 C176 1.338 . S
C175 N178 1.377 . S
C175 H195 0.930 . S
C176 N174 1.375 . S
C176 C175 1.338 . S
C176 H180 0.931 . S
C177 N174 1.313 . S
C177 N178 1.344 . S
C177 H181 0.930 . S
N178 C175 1.377 . S
N178 C177 1.344 . S
O179 Co171 2.055 . S
O179 C183 1.253 . S
H180 C176 0.931 . S
H181 C177 0.930 . S
O182 Co171 2.039 1_556 S
O182 C172 1.265 . S
C183 O179 1.253 . S
C183 O184 1.227 . S
O184 C183 1.227 . S
N185 Co171 2.140 1_556 S
N185 C188 1.346 . S
N185 C189 1.345 1_556 S
C186 C187 1.387 . S
C186 C190 1.391 1_556 S
C187 C186 1.387 . S
C187 C188 1.369 . S
C187 H196 0.929 . S
C188 N185 1.346 . S
C188 C187 1.369 . S
C188 H191 0.928 . S
C189 N185 1.345 1_554 S
C189 C190 1.371 . S
C189 H192 0.931 . S
C190 C186 1.391 1_554 S
C190 C189 1.371 . S
C190 H197 0.930 . S
H191 C188 0.928 . S
H192 C189 0.931 . S
H193 C169 0.930 . S
H194 C166 0.930 . S
H195 C175 0.930 . S
H196 C187 0.929 . S
H197 C190 0.930 . S
C198 C199 1.351 1_554 S
C198 N201 1.368 . S
C198 H203 0.931 . S
C199 C198 1.351 1_556 S
C199 N200 1.373 . S
C199 H227 0.930 . S
N200 C199 1.373 . S
N200 C202 1.340 1_556 S
N201 C198 1.368 . S
N201 C202 1.321 . S
N201 Co204 2.135 . S
C202 N200 1.340 1_554 S
C202 N201 1.321 . S
C202 H226 0.930 . S
H203 C198 0.931 . S
Co204 N201 2.135 . S
Co204 N207 2.121 . S
Co204 O212 2.055 . S
Co204 O215 2.039 . S
Co204 N218 2.140 . S
C205 O206 1.227 . S
C205 O215 1.265 . S
O206 C205 1.227 . S
N207 Co204 2.121 . S
N207 C209 1.375 . S
N207 C210 1.313 . S
C208 C209 1.338 . S
C208 N211 1.377 . S
C208 H228 0.930 . S
C209 N207 1.375 . S
C209 C208 1.338 . S
C209 H213 0.931 . S
C210 N207 1.313 . S
C210 N211 1.344 . S
C210 H214 0.930 . S
N211 C208 1.377 . S
N211 C210 1.344 . S
O212 Co204 2.055 . S
O212 C216 1.253 . S
H213 C209 0.931 . S
H214 C210 0.930 . S
O215 Co204 2.039 . S
O215 C205 1.265 . S
C216 O212 1.253 . S
C216 O217 1.227 . S
O217 C216 1.227 . S
N218 Co204 2.140 . S
N218 C221 1.346 . S
N218 C222 1.345 . S
C219 C220 1.387 . S
C219 C223 1.391 . S
C220 C219 1.387 . S
C220 C221 1.369 . S
C220 H229 0.929 . S
C221 N218 1.346 . S
C221 C220 1.369 . S
C221 H224 0.928 . S
C222 N218 1.345 . S
C222 C223 1.371 . S
C222 H225 0.931 . S
C223 C219 1.391 . S
C223 C222 1.371 . S
C223 H230 0.930 . S
H224 C221 0.928 . S
H225 C222 0.931 . S
H226 C202 0.930 . S
H227 C199 0.930 . S
H228 C208 0.930 . S
H229 C220 0.929 . S
H230 C223 0.930 . S
C231 C232 1.351 . S
C231 N234 1.368 . S
C231 H236 0.931 . S
C232 C231 1.351 . S
C232 N233 1.373 . S
C232 H260 0.930 . S
N233 C232 1.373 . S
N233 C235 1.340 . S
N234 C231 1.368 . S
N234 C235 1.321 . S
N234 Co237 2.135 . S
C235 N233 1.340 . S
C235 N234 1.321 . S
C235 H259 0.930 . S
H236 C231 0.931 . S
Co237 N234 2.135 . S
Co237 N240 2.121 . S
Co237 O245 2.055 . S
Co237 O248 2.039 . S
Co237 N251 2.140 . S
C238 O239 1.227 . S
C238 O248 1.265 . S
O239 C238 1.227 . S
N240 Co237 2.121 . S
N240 C242 1.375 . S
N240 C243 1.313 . S
C241 C242 1.338 . S
C241 N244 1.377 . S
C241 H261 0.930 . S
C242 N240 1.375 . S
C242 C241 1.338 . S
C242 H246 0.931 . S
C243 N240 1.313 . S
C243 N244 1.344 . S
C243 H247 0.930 . S
N244 C241 1.377 . S
N244 C243 1.344 . S
O245 Co237 2.055 . S
O245 C249 1.253 . S
H246 C242 0.931 . S
H247 C243 0.930 . S
O248 Co237 2.039 . S
O248 C238 1.265 . S
C249 O245 1.253 . S
C249 O250 1.227 . S
O250 C249 1.227 . S
N251 Co237 2.140 . S
N251 C254 1.346 . S
N251 C255 1.345 . S
C252 C253 1.387 . S
C252 C256 1.391 . S
C253 C252 1.387 . S
C253 C254 1.369 . S
C253 H262 0.929 . S
C254 N251 1.346 . S
C254 C253 1.369 . S
C254 H257 0.928 . S
C255 N251 1.345 . S
C255 C256 1.371 . S
C255 H258 0.931 . S
C256 C252 1.391 . S
C256 C255 1.371 . S
C256 H263 0.930 . S
H257 C254 0.928 . S
H258 C255 0.931 . S
H259 C235 0.930 . S
H260 C232 0.930 . S
H261 C241 0.930 . S
H262 C253 0.929 . S
H263 C256 0.930 . S
C264 C265 1.351 . S
C264 N267 1.368 . S
C264 H269 0.931 . S
C265 C264 1.351 . S
C265 N266 1.373 . S
C265 H293 0.930 . S
N266 C265 1.373 . S
N266 C268 1.340 . S
N267 C264 1.368 . S
N267 C268 1.321 . S
N267 Co270 2.135 . S
C268 N266 1.340 . S
C268 N267 1.321 . S
C268 H292 0.930 . S
H269 C264 0.931 . S
Co270 N267 2.135 . S
Co270 N273 2.121 . S
Co270 O278 2.055 . S
Co270 O281 2.039 . S
Co270 N284 2.140 . S
C271 O272 1.227 . S
C271 O281 1.265 . S
O272 C271 1.227 . S
N273 Co270 2.121 . S
N273 C275 1.375 . S
N273 C276 1.313 . S
C274 C275 1.338 . S
C274 N277 1.377 . S
C274 H294 0.930 . S
C275 N273 1.375 . S
C275 C274 1.338 . S
C275 H279 0.931 . S
C276 N273 1.313 . S
C276 N277 1.344 . S
C276 H280 0.930 . S
N277 C274 1.377 . S
N277 C276 1.344 . S
O278 Co270 2.055 . S
O278 C282 1.253 . S
H279 C275 0.931 . S
H280 C276 0.930 . S
O281 Co270 2.039 . S
O281 C271 1.265 . S
C282 O278 1.253 . S
C282 O283 1.227 . S
O283 C282 1.227 . S
N284 Co270 2.140 . S
N284 C287 1.346 . S
N284 C288 1.345 . S
C285 C286 1.387 . S
C285 C289 1.391 . S
C286 C285 1.387 . S
C286 C287 1.369 . S
C286 H295 0.929 . S
C287 N284 1.346 . S
C287 C286 1.369 . S
C287 H290 0.928 . S
C288 N284 1.345 . S
C288 C289 1.371 . S
C288 H291 0.931 . S
C289 C285 1.391 . S
C289 C288 1.371 . S
C289 H296 0.930 . S
H290 C287 0.928 . S
H291 C288 0.931 . S
H292 C268 0.930 . S
H293 C265 0.930 . S
H294 C274 0.930 . S
H295 C286 0.929 . S
H296 C289 0.930 . S
C297 C298 1.351 . S
C297 N300 1.368 . S
C297 H302 0.931 . S
C298 C297 1.351 . S
C298 N299 1.373 . S
C298 H326 0.930 . S
N299 C298 1.373 . S
N299 C301 1.340 . S
N300 C297 1.368 . S
N300 C301 1.321 . S
N300 Co303 2.135 1_556 S
C301 N299 1.340 . S
C301 N300 1.321 . S
C301 H325 0.930 . S
H302 C297 0.931 . S
Co303 N300 2.135 1_554 S
Co303 N306 2.121 . S
Co303 O311 2.055 . S
Co303 O314 2.039 1_554 S
Co303 N317 2.140 1_554 S
C304 O305 1.227 . S
C304 O314 1.265 . S
O305 C304 1.227 . S
N306 Co303 2.121 . S
N306 C308 1.375 . S
N306 C309 1.313 . S
C307 C308 1.338 . S
C307 N310 1.377 . S
C307 H327 0.930 . S
C308 N306 1.375 . S
C308 C307 1.338 . S
C308 H312 0.931 . S
C309 N306 1.313 . S
C309 N310 1.344 . S
C309 H313 0.930 . S
N310 C307 1.377 . S
N310 C309 1.344 . S
O311 Co303 2.055 . S
O311 C315 1.253 . S
H312 C308 0.931 . S
H313 C309 0.930 . S
O314 Co303 2.039 1_556 S
O314 C304 1.265 . S
C315 O311 1.253 . S
C315 O316 1.227 . S
O316 C315 1.227 . S
N317 Co303 2.140 1_556 S
N317 C320 1.346 . S
N317 C321 1.345 1_556 S
C318 C319 1.387 . S
C318 C322 1.391 1_556 S
C319 C318 1.387 . S
C319 C320 1.369 . S
C319 H328 0.929 . S
C320 N317 1.346 . S
C320 C319 1.369 . S
C320 H323 0.928 . S
C321 N317 1.345 1_554 S
C321 C322 1.371 . S
C321 H324 0.931 . S
C322 C318 1.391 1_554 S
C322 C321 1.371 . S
C322 H329 0.930 . S
H323 C320 0.928 . S
H324 C321 0.931 . S
H325 C301 0.930 . S
H326 C298 0.930 . S
H327 C307 0.930 . S
H328 C319 0.929 . S
H329 C322 0.930 . S
C330 C331 1.351 . S
C330 N333 1.368 . S
C330 H335 0.931 . S
C331 C330 1.351 . S
C331 N332 1.373 . S
C331 H359 0.930 . S
N332 C331 1.373 . S
N332 C334 1.340 . S
N333 C330 1.368 . S
N333 C334 1.321 . S
N333 Co336 2.135 1_554 S
C334 N332 1.340 . S
C334 N333 1.321 . S
C334 H358 0.930 . S
H335 C330 0.931 . S
Co336 N333 2.135 1_556 S
Co336 N339 2.121 . S
Co336 O344 2.055 . S
Co336 O347 2.039 1_556 S
Co336 N350 2.140 1_556 S
C337 O338 1.227 . S
C337 O347 1.265 . S
O338 C337 1.227 . S
N339 Co336 2.121 . S
N339 C341 1.375 . S
N339 C342 1.313 . S
C340 C341 1.338 . S
C340 N343 1.377 . S
C340 H360 0.930 . S
C341 N339 1.375 . S
C341 C340 1.338 . S
C341 H345 0.931 . S
C342 N339 1.313 . S
C342 N343 1.344 . S
C342 H346 0.930 . S
N343 C340 1.377 . S
N343 C342 1.344 . S
O344 Co336 2.055 . S
O344 C348 1.253 . S
H345 C341 0.931 . S
H346 C342 0.930 . S
O347 Co336 2.039 1_554 S
O347 C337 1.265 . S
C348 O344 1.253 . S
C348 O349 1.227 . S
O349 C348 1.227 . S
N350 Co336 2.140 1_554 S
N350 C353 1.346 . S
N350 C354 1.345 1_554 S
C351 C352 1.387 . S
C351 C355 1.391 1_554 S
C352 C351 1.387 . S
C352 C353 1.369 . S
C352 H361 0.929 . S
C353 N350 1.346 . S
C353 C352 1.369 . S
C353 H356 0.928 . S
C354 N350 1.345 1_556 S
C354 C355 1.371 . S
C354 H357 0.931 . S
C355 C351 1.391 1_556 S
C355 C354 1.371 . S
C355 H362 0.930 . S
H356 C353 0.928 . S
H357 C354 0.931 . S
H358 C334 0.930 . S
H359 C331 0.930 . S
H360 C340 0.930 . S
H361 C352 0.929 . S
H362 C355 0.930 . S
C363 C364 1.351 . S
C363 N366 1.368 . S
C363 H368 0.931 . S
C364 C363 1.351 . S
C364 N365 1.373 . S
C364 H392 0.930 . S
N365 C364 1.373 . S
N365 C367 1.340 . S
N366 C363 1.368 . S
N366 C367 1.321 . S
N366 Co369 2.135 . S
C367 N365 1.340 . S
C367 N366 1.321 . S
C367 H391 0.930 . S
H368 C363 0.931 . S
Co369 N366 2.135 . S
Co369 N372 2.121 . S
Co369 O377 2.055 . S
Co369 O380 2.039 . S
Co369 N383 2.140 . S
C370 O371 1.227 . S
C370 O380 1.265 . S
O371 C370 1.227 . S
N372 Co369 2.121 . S
N372 C374 1.375 . S
N372 C375 1.313 . S
C373 C374 1.338 . S
C373 N376 1.377 . S
C373 H393 0.930 . S
C374 N372 1.375 . S
C374 C373 1.338 . S
C374 H378 0.931 . S
C375 N372 1.313 . S
C375 N376 1.344 . S
C375 H379 0.930 . S
N376 C373 1.377 . S
N376 C375 1.344 . S
O377 Co369 2.055 . S
O377 C381 1.253 . S
H378 C374 0.931 . S
H379 C375 0.930 . S
O380 Co369 2.039 . S
O380 C370 1.265 . S
C381 O377 1.253 . S
C381 O382 1.227 . S
O382 C381 1.227 . S
N383 Co369 2.140 . S
N383 C386 1.346 . S
N383 C387 1.345 . S
C384 C385 1.387 . S
C384 C388 1.391 . S
C385 C384 1.387 . S
C385 C386 1.369 . S
C385 H394 0.929 . S
C386 N383 1.346 . S
C386 C385 1.369 . S
C386 H389 0.928 . S
C387 N383 1.345 . S
C387 C388 1.371 . S
C387 H390 0.931 . S
C388 C384 1.391 . S
C388 C387 1.371 . S
C388 H395 0.930 . S
H389 C386 0.928 . S
H390 C387 0.931 . S
H391 C367 0.930 . S
H392 C364 0.930 . S
H393 C373 0.930 . S
H394 C385 0.929 . S
H395 C388 0.930 . S
C396 C397 1.351 1_556 S
C396 N399 1.368 . S
C396 H401 0.931 . S
C397 C396 1.351 1_554 S
C397 N398 1.373 . S
C397 H425 0.930 . S
N398 C397 1.373 . S
N398 C400 1.340 1_554 S
N399 C396 1.368 . S
N399 C400 1.321 . S
N399 Co402 2.135 . S
C400 N398 1.340 1_556 S
C400 N399 1.321 . S
C400 H424 0.930 . S
H401 C396 0.931 . S
Co402 N399 2.135 . S
Co402 N405 2.121 . S
Co402 O410 2.055 . S
Co402 O413 2.039 . S
Co402 N416 2.140 . S
C403 O404 1.227 . S
C403 O413 1.265 . S
O404 C403 1.227 . S
N405 Co402 2.121 . S
N405 C407 1.375 . S
N405 C408 1.313 . S
C406 C407 1.338 . S
C406 N409 1.377 . S
C406 H426 0.930 . S
C407 N405 1.375 . S
C407 C406 1.338 . S
C407 H411 0.931 . S
C408 N405 1.313 . S
C408 N409 1.344 . S
C408 H412 0.930 . S
N409 C406 1.377 . S
N409 C408 1.344 . S
O410 Co402 2.055 . S
O410 C414 1.253 . S
H411 C407 0.931 . S
H412 C408 0.930 . S
O413 Co402 2.039 . S
O413 C403 1.265 . S
C414 O410 1.253 . S
C414 O415 1.227 . S
O415 C414 1.227 . S
N416 Co402 2.140 . S
N416 C419 1.346 . S
N416 C420 1.345 . S
C417 C418 1.387 . S
C417 C421 1.391 . S
C418 C417 1.387 . S
C418 C419 1.369 . S
C418 H427 0.929 . S
C419 N416 1.346 . S
C419 C418 1.369 . S
C419 H422 0.928 . S
C420 N416 1.345 . S
C420 C421 1.371 . S
C420 H423 0.931 . S
C421 C417 1.391 . S
C421 C420 1.371 . S
C421 H428 0.930 . S
H422 C419 0.928 . S
H423 C420 0.931 . S
H424 C400 0.930 . S
H425 C397 0.930 . S
H426 C406 0.930 . S
H427 C418 0.929 . S
H428 C421 0.930 . S
C429 C430 1.351 . S
C429 N432 1.368 . S
C429 H434 0.931 . S
C430 C429 1.351 . S
C430 N431 1.373 . S
C430 H458 0.930 . S
N431 C430 1.373 . S
N431 C433 1.340 . S
N432 C429 1.368 . S
N432 C433 1.321 . S
N432 Co435 2.135 . S
C433 N431 1.340 . S
C433 N432 1.321 . S
C433 H457 0.930 . S
H434 C429 0.931 . S
Co435 N432 2.135 . S
Co435 N438 2.121 . S
Co435 O443 2.055 . S
Co435 O446 2.039 . S
Co435 N449 2.140 . S
C436 O437 1.227 . S
C436 O446 1.265 . S
O437 C436 1.227 . S
N438 Co435 2.121 . S
N438 C440 1.375 . S
N438 C441 1.313 . S
C439 C440 1.338 . S
C439 N442 1.377 . S
C439 H459 0.930 . S
C440 N438 1.375 . S
C440 C439 1.338 . S
C440 H444 0.931 . S
C441 N438 1.313 . S
C441 N442 1.344 . S
C441 H445 0.930 . S
N442 C439 1.377 . S
N442 C441 1.344 . S
O443 Co435 2.055 . S
O443 C447 1.253 . S
H444 C440 0.931 . S
H445 C441 0.930 . S
O446 Co435 2.039 . S
O446 C436 1.265 . S
C447 O443 1.253 . S
C447 O448 1.227 . S
O448 C447 1.227 . S
N449 Co435 2.140 . S
N449 C452 1.346 . S
N449 C453 1.345 . S
C450 C451 1.387 . S
C450 C454 1.391 . S
C451 C450 1.387 . S
C451 C452 1.369 . S
C451 H460 0.929 . S
C452 N449 1.346 . S
C452 C451 1.369 . S
C452 H455 0.928 . S
C453 N449 1.345 . S
C453 C454 1.371 . S
C453 H456 0.931 . S
C454 C450 1.391 . S
C454 C453 1.371 . S
C454 H461 0.930 . S
H455 C452 0.928 . S
H456 C453 0.931 . S
H457 C433 0.930 . S
H458 C430 0.930 . S
H459 C439 0.930 . S
H460 C451 0.929 . S
H461 C454 0.930 . S
C462 C463 1.351 1_554 S
C462 N465 1.368 . S
C462 H467 0.931 . S
C463 C462 1.351 1_556 S
C463 N464 1.373 . S
C463 H491 0.930 . S
N464 C463 1.373 . S
N464 C466 1.340 1_556 S
N465 C462 1.368 . S
N465 C466 1.321 . S
N465 Co468 2.135 . S
C466 N464 1.340 1_554 S
C466 N465 1.321 . S
C466 H490 0.930 . S
H467 C462 0.931 . S
Co468 N465 2.135 . S
Co468 N471 2.121 . S
Co468 O476 2.055 . S
Co468 O479 2.039 . S
Co468 N482 2.140 . S
C469 O470 1.227 . S
C469 O479 1.265 . S
O470 C469 1.227 . S
N471 Co468 2.121 . S
N471 C473 1.375 . S
N471 C474 1.313 . S
C472 C473 1.338 . S
C472 N475 1.377 . S
C472 H492 0.930 . S
C473 N471 1.375 . S
C473 C472 1.338 . S
C473 H477 0.931 . S
C474 N471 1.313 . S
C474 N475 1.344 . S
C474 H478 0.930 . S
N475 C472 1.377 . S
N475 C474 1.344 . S
O476 Co468 2.055 . S
O476 C480 1.253 . S
H477 C473 0.931 . S
H478 C474 0.930 . S
O479 Co468 2.039 . S
O479 C469 1.265 . S
C480 O476 1.253 . S
C480 O481 1.227 . S
O481 C480 1.227 . S
N482 Co468 2.140 . S
N482 C485 1.346 . S
N482 C486 1.345 . S
C483 C484 1.387 . S
C483 C487 1.391 . S
C484 C483 1.387 . S
C484 C485 1.369 . S
C484 H493 0.929 . S
C485 N482 1.346 . S
C485 C484 1.369 . S
C485 H488 0.928 . S
C486 N482 1.345 . S
C486 C487 1.371 . S
C486 H489 0.931 . S
C487 C483 1.391 . S
C487 C486 1.371 . S
C487 H494 0.930 . S
H488 C485 0.928 . S
H489 C486 0.931 . S
H490 C466 0.930 . S
H491 C463 0.930 . S
H492 C472 0.930 . S
H493 C484 0.929 . S
H494 C487 0.930 . S
C495 C496 1.351 . S
C495 N498 1.368 . S
C495 H500 0.931 . S
C496 C495 1.351 . S
C496 N497 1.373 . S
C496 H524 0.930 . S
N497 C496 1.373 . S
N497 C499 1.340 . S
N498 C495 1.368 . S
N498 C499 1.321 . S
N498 Co501 2.135 . S
C499 N497 1.340 . S
C499 N498 1.321 . S
C499 H523 0.930 . S
H500 C495 0.931 . S
Co501 N498 2.135 . S
Co501 N504 2.121 . S
Co501 O509 2.055 . S
Co501 O512 2.039 . S
Co501 N515 2.140 . S
C502 O503 1.227 . S
C502 O512 1.265 . S
O503 C502 1.227 . S
N504 Co501 2.121 . S
N504 C506 1.375 . S
N504 C507 1.313 . S
C505 C506 1.338 . S
C505 N508 1.377 . S
C505 H525 0.930 . S
C506 N504 1.375 . S
C506 C505 1.338 . S
C506 H510 0.931 . S
C507 N504 1.313 . S
C507 N508 1.344 . S
C507 H511 0.930 . S
N508 C505 1.377 . S
N508 C507 1.344 . S
O509 Co501 2.055 . S
O509 C513 1.253 . S
H510 C506 0.931 . S
H511 C507 0.930 . S
O512 Co501 2.039 . S
O512 C502 1.265 . S
C513 O509 1.253 . S
C513 O514 1.227 . S
O514 C513 1.227 . S
N515 Co501 2.140 . S
N515 C518 1.346 . S
N515 C519 1.345 . S
C516 C517 1.387 . S
C516 C520 1.391 . S
C517 C516 1.387 . S
C517 C518 1.369 . S
C517 H526 0.929 . S
C518 N515 1.346 . S
C518 C517 1.369 . S
C518 H521 0.928 . S
C519 N515 1.345 . S
C519 C520 1.371 . S
C519 H522 0.931 . S
C520 C516 1.391 . S
C520 C519 1.371 . S
C520 H527 0.930 . S
H521 C518 0.928 . S
H522 C519 0.931 . S
H523 C499 0.930 . S
H524 C496 0.930 . S
H525 C505 0.930 . S
H526 C517 0.929 . S
H527 C520 0.930 . S
H528 C534 0.930 . S
H529 C538 0.930 . S
H530 C543 0.929 . S
H531 C541 0.929 . S
H532 C536 0.929 . S
H533 C542 0.929 . S
C534 H528 0.930 . S
C534 C535 1.367 . S
C534 C542 1.378 . S
C535 C534 1.367 . S
C535 C543 1.433 . S
C536 H532 0.929 . S
C536 C538 1.378 . S
C536 C540 1.350 . S
C537 C540 1.463 . S
C537 C542 1.350 . S
C537 N545 1.427 . S
C538 H529 0.930 . S
C538 C536 1.378 . S
C538 C539 1.367 . S
C539 C538 1.367 . S
C539 C541 1.433 . S
C540 C536 1.350 . S
C540 C537 1.463 . S
C540 N544 1.427 . S
C541 H531 0.929 . S
C541 C539 1.433 . S
C541 N544 1.384 . S
C542 H533 0.929 . S
C542 C534 1.378 . S
C542 C537 1.350 . S
C543 H530 0.929 . S
C543 C535 1.433 . S
C543 N545 1.384 . S
N544 C540 1.427 . S
N544 C541 1.384 . S
N545 C537 1.427 . S
N545 C543 1.384 . S
H546 C552 0.930 . S
H547 C556 0.930 . S
H548 C561 0.929 . S
H549 C559 0.929 . S
H550 C554 0.929 . S
H551 C560 0.929 . S
C552 H546 0.930 . S
C552 C553 1.367 . S
C552 C560 1.378 . S
C553 C552 1.367 . S
C553 C561 1.433 . S
C554 H550 0.929 . S
C554 C556 1.378 . S
C554 C558 1.350 . S
C555 C558 1.463 . S
C555 C560 1.350 . S
C555 N563 1.427 . S
C556 H547 0.930 . S
C556 C554 1.378 . S
C556 C557 1.367 . S
C557 C556 1.367 . S
C557 C559 1.433 . S
C558 C554 1.350 . S
C558 C555 1.463 . S
C558 N562 1.427 . S
C559 H549 0.929 . S
C559 C557 1.433 . S
C559 N562 1.384 . S
C560 H551 0.929 . S
C560 C552 1.378 . S
C560 C555 1.350 . S
C561 H548 0.929 . S
C561 C553 1.433 . S
C561 N563 1.384 . S
N562 C558 1.427 . S
N562 C559 1.384 . S
N563 C555 1.427 . S
N563 C561 1.384 . S
H564 C570 0.930 . S
H565 C574 0.930 . S
H566 C579 0.929 . S
H567 C577 0.929 . S
H568 C572 0.929 . S
H569 C578 0.928 . S
C570 H564 0.930 . S
C570 C571 1.367 . S
C570 C578 1.378 . S
C571 C570 1.367 . S
C571 C579 1.433 . S
C572 H568 0.929 . S
C572 C574 1.378 . S
C572 C576 1.350 . S
C573 C576 1.463 . S
C573 C578 1.350 . S
C573 N581 1.427 . S
C574 H565 0.930 . S
C574 C572 1.378 . S
C574 C575 1.367 . S
C575 C574 1.367 . S
C575 C577 1.433 1_556 S
C576 C572 1.350 . S
C576 C573 1.463 . S
C576 N580 1.427 . S
C577 H567 0.929 . S
C577 C575 1.433 1_554 S
C577 N580 1.384 1_554 S
C578 H569 0.928 . S
C578 C570 1.378 . S
C578 C573 1.350 . S
C579 H566 0.929 . S
C579 C571 1.433 . S
C579 N581 1.384 . S
N580 C576 1.427 . S
N580 C577 1.384 1_556 S
N581 C573 1.427 . S
N581 C579 1.384 . S
H582 C588 0.930 . S
H583 C592 0.918 1_556 S
H584 C597 0.929 . S
H585 C595 0.929 . S
H586 C590 0.929 1_556 S
H587 C596 0.929 . S
C588 H582 0.930 . S
C588 C589 1.367 . S
C588 C596 1.378 . S
C589 C588 1.367 . S
C589 C597 1.433 . S
C590 H586 0.929 1_554 S
C590 C592 1.381 . S
C590 C594 1.350 . S
C591 C594 1.463 . S
C591 C596 1.350 . S
C591 N599 1.427 . S
C592 H583 0.918 1_554 S
C592 C590 1.381 . S
C592 C593 1.376 . S
C593 C592 1.376 . S
C593 C595 1.433 . S
C594 C590 1.350 . S
C594 C591 1.463 . S
C594 N598 1.427 . S
C595 H585 0.929 . S
C595 C593 1.433 . S
C595 N598 1.384 . S
C596 H587 0.929 . S
C596 C588 1.378 . S
C596 C591 1.350 . S
C597 H584 0.929 . S
C597 C589 1.433 . S
C597 N599 1.384 . S
N598 C594 1.427 . S
N598 C595 1.384 . S
N599 C591 1.427 . S
N599 C597 1.384 . S
H600 C606 0.930 . S
H601 C610 0.930 . S
H602 C615 0.929 . S
H603 C613 0.929 . S
H604 C608 0.929 . S
H605 C614 0.929 . S
C606 H600 0.930 . S
C606 C607 1.367 . S
C606 C614 1.378 . S
C607 C606 1.367 . S
C607 C615 1.433 . S
C608 H604 0.929 . S
C608 C610 1.378 . S
C608 C612 1.350 . S
C609 C612 1.463 1_655 S
C609 C614 1.350 . S
C609 N617 1.427 . S
C610 H601 0.930 . S
C610 C608 1.378 . S
C610 C611 1.367 . S
C611 C610 1.367 . S
C611 C613 1.433 . S
C612 C608 1.350 . S
C612 C609 1.463 1_455 S
C612 N616 1.427 . S
C613 H603 0.929 . S
C613 C611 1.433 . S
C613 N616 1.384 . S
C614 H605 0.929 . S
C614 C606 1.378 . S
C614 C609 1.350 . S
C615 H602 0.929 . S
C615 C607 1.433 . S
C615 N617 1.384 . S
N616 C612 1.427 . S
N616 C613 1.384 . S
N617 C609 1.427 . S
N617 C615 1.384 . S
H618 C624 0.930 . S
H619 C628 0.930 . S
H620 C633 0.929 . S
H621 C631 0.929 . S
H622 C626 0.929 . S
H623 C632 0.929 . S
C624 H618 0.930 . S
C624 C625 1.367 . S
C624 C632 1.378 . S
C625 C624 1.367 . S
C625 C633 1.433 . S
C626 H622 0.929 . S
C626 C628 1.378 . S
C626 C630 1.350 . S
C627 C630 1.463 1_655 S
C627 C632 1.350 . S
C627 N635 1.427 . S
C628 H619 0.930 . S
C628 C626 1.378 . S
C628 C629 1.367 . S
C629 C628 1.367 . S
C629 C631 1.433 . S
C630 C626 1.350 . S
C630 C627 1.463 1_455 S
C630 N634 1.427 . S
C631 H621 0.929 . S
C631 C629 1.433 . S
C631 N634 1.384 . S
C632 H623 0.929 . S
C632 C624 1.378 . S
C632 C627 1.350 . S
C633 H620 0.929 . S
C633 C625 1.433 . S
C633 N635 1.384 . S
N634 C630 1.427 . S
N634 C631 1.384 . S
N635 C627 1.427 . S
N635 C633 1.384 . S
H636 C642 0.930 . S
H637 C646 0.930 . S
H638 C651 0.929 . S
H639 C649 0.929 . S
H640 C644 0.929 . S
H641 C650 0.929 . S
C642 H636 0.930 . S
C642 C643 1.367 . S
C642 C650 1.378 . S
C643 C642 1.367 . S
C643 C651 1.433 . S
C644 H640 0.929 . S
C644 C646 1.378 . S
C644 C648 1.350 . S
C645 C648 1.463 . S
C645 C650 1.350 . S
C645 N653 1.427 . S
C646 H637 0.930 . S
C646 C644 1.378 . S
C646 C647 1.367 . S
C647 C646 1.367 . S
C647 C649 1.433 1_554 S
C648 C644 1.350 . S
C648 C645 1.463 . S
C648 N652 1.427 . S
C649 H639 0.929 . S
C649 C647 1.433 1_556 S
C649 N652 1.384 1_556 S
C650 H641 0.929 . S
C650 C642 1.378 . S
C650 C645 1.350 . S
C651 H638 0.929 . S
C651 C643 1.433 . S
C651 N653 1.384 . S
N652 C648 1.427 . S
N652 C649 1.384 1_554 S
N653 C645 1.427 . S
N653 C651 1.384 . S
H654 C660 0.930 . S
H655 C664 0.930 . S
H656 C669 0.929 . S
H657 C667 0.929 1_554 S
H658 C662 0.929 . S
H659 C668 0.929 . S
C660 H654 0.930 . S
C660 C661 1.367 . S
C660 C668 1.378 . S
C661 C660 1.367 . S
C661 C669 1.433 . S
C662 H658 0.929 . S
C662 C664 1.378 . S
C662 C666 1.350 . S
C663 C666 1.463 . S
C663 C668 1.350 . S
C663 N671 1.427 . S
C664 H655 0.930 . S
C664 C662 1.378 . S
C664 C665 1.367 . S
C665 C664 1.367 . S
C665 C667 1.433 . S
C666 C662 1.350 . S
C666 C663 1.463 . S
C666 N670 1.427 . S
C667 H657 0.929 1_556 S
C667 C665 1.433 . S
C667 N670 1.384 . S
C668 H659 0.929 . S
C668 C660 1.378 . S
C668 C663 1.350 . S
C669 H656 0.929 . S
C669 C661 1.433 . S
C669 N671 1.384 . S
N670 C666 1.427 . S
N670 C667 1.384 . S
N671 C663 1.427 . S
N671 C669 1.384 . S
H672 C678 0.930 1_554 S
H673 C682 0.930 . S
H674 C687 0.929 . S
H675 C685 0.929 . S
H676 C680 0.929 . S
H677 C686 0.929 1_554 S
C678 H672 0.930 1_556 S
C678 C679 1.367 . S
C678 C686 1.378 . S
C679 C678 1.367 . S
C679 C687 1.433 . S
C680 H676 0.929 . S
C680 C682 1.378 . S
C680 C684 1.350 . S
C681 C684 1.463 . S
C681 C686 1.350 . S
C681 N689 1.427 . S
C682 H673 0.930 . S
C682 C680 1.378 . S
C682 C683 1.367 . S
C683 C682 1.367 . S
C683 C685 1.433 . S
C684 C680 1.350 . S
C684 C681 1.463 . S
C684 N688 1.427 . S
C685 H675 0.929 . S
C685 C683 1.433 . S
C685 N688 1.384 . S
C686 H677 0.929 1_556 S
C686 C678 1.378 . S
C686 C681 1.350 . S
C687 H674 0.929 . S
C687 C679 1.433 . S
C687 N689 1.384 . S
N688 C684 1.427 . S
N688 C685 1.384 . S
N689 C681 1.427 . S
N689 C687 1.384 . S
H690 C696 0.930 . S
H691 C700 0.930 . S
H692 C705 0.929 . S
H693 C703 0.929 1_556 S
H694 C698 0.929 . S
H695 C704 0.929 . S
C696 H690 0.930 . S
C696 C697 1.367 . S
C696 C704 1.378 . S
C697 C696 1.367 . S
C697 C705 1.433 . S
C698 H694 0.929 . S
C698 C700 1.378 . S
C698 C702 1.350 . S
C699 C702 1.463 . S
C699 C704 1.350 . S
C699 N707 1.427 . S
C700 H691 0.930 . S
C700 C698 1.378 . S
C700 C701 1.367 . S
C701 C700 1.367 . S
C701 C703 1.433 . S
C702 C698 1.350 . S
C702 C699 1.463 . S
C702 N706 1.427 . S
C703 H693 0.929 1_554 S
C703 C701 1.433 . S
C703 N706 1.384 . S
C704 H695 0.929 . S
C704 C696 1.378 . S
C704 C699 1.350 . S
C705 H692 0.929 . S
C705 C697 1.433 . S
C705 N707 1.384 . S
N706 C702 1.427 . S
N706 C703 1.384 . S
N707 C699 1.427 . S
N707 C705 1.384 . S
H708 C714 0.934 . S
H709 C718 0.930 . S
H710 C723 0.929 . S
H711 C721 0.929 . S
H712 C716 0.929 . S
H713 C722 0.929 . S
C714 H708 0.934 . S
C714 C715 1.367 . S
C714 C722 1.378 1_455 S
C715 C714 1.367 . S
C715 C723 1.433 . S
C716 H712 0.929 . S
C716 C718 1.378 . S
C716 C720 1.350 . S
C717 C720 1.463 . S
C717 C722 1.350 . S
C717 N725 1.427 1_655 S
C718 H709 0.930 . S
C718 C716 1.378 . S
C718 C719 1.367 . S
C719 C718 1.367 . S
C719 C721 1.433 . S
C720 C716 1.350 . S
C720 C717 1.463 . S
C720 N724 1.427 . S
C721 H711 0.929 . S
C721 C719 1.433 . S
C721 N724 1.384 . S
C722 H713 0.929 . S
C722 C714 1.378 1_655 S
C722 C717 1.350 . S
C723 H710 0.929 . S
C723 C715 1.433 . S
C723 N725 1.384 . S
N724 C720 1.427 . S
N724 C721 1.384 . S
N725 C717 1.427 1_455 S
N725 C723 1.384 . S
H726 C732 0.930 . S
H727 C736 0.930 1_655 S
H728 C741 0.929 . S
H729 C739 0.929 . S
H730 C734 0.929 . S
H731 C740 0.929 . S
C732 H726 0.930 . S
C732 C733 1.367 . S
C732 C740 1.378 . S
C733 C732 1.367 . S
C733 C741 1.433 . S
C734 H730 0.929 . S
C734 C736 1.378 1_655 S
C734 C738 1.350 . S
C735 C738 1.463 . S
C735 C740 1.350 . S
C735 N743 1.427 . S
C736 H727 0.930 1_455 S
C736 C734 1.378 1_455 S
C736 C737 1.367 . S
C737 C736 1.367 . S
C737 C739 1.433 . S
C738 C734 1.350 . S
C738 C735 1.463 . S
C738 N742 1.427 1_655 S
C739 H729 0.929 . S
C739 C737 1.433 . S
C739 N742 1.384 . S
C740 H731 0.929 . S
C740 C732 1.378 . S
C740 C735 1.350 . S
C741 H728 0.929 . S
C741 C733 1.433 . S
C741 N743 1.384 . S
N742 C738 1.427 1_455 S
N742 C739 1.384 . S
N743 C735 1.427 . S
N743 C741 1.384 . S
H744 C750 0.930 1_556 S
H745 C754 0.930 . S
H746 C759 0.929 . S
H747 C757 0.929 . S
H748 C752 0.929 . S
H749 C758 0.929 1_556 S
C750 H744 0.930 1_554 S
C750 C751 1.367 . S
C750 C758 1.378 . S
C751 C750 1.367 . S
C751 C759 1.433 . S
C752 H748 0.929 . S
C752 C754 1.378 . S
C752 C756 1.350 . S
C753 C756 1.463 . S
C753 C758 1.350 . S
C753 N761 1.427 . S
C754 H745 0.930 . S
C754 C752 1.378 . S
C754 C755 1.367 . S
C755 C754 1.367 . S
C755 C757 1.433 . S
C756 C752 1.350 . S
C756 C753 1.463 . S
C756 N760 1.427 . S
C757 H747 0.929 . S
C757 C755 1.433 . S
C757 N760 1.384 . S
C758 H749 0.929 1_554 S
C758 C750 1.378 . S
C758 C753 1.350 . S
C759 H746 0.929 . S
C759 C751 1.433 . S
C759 N761 1.384 . S
N760 C756 1.427 . S
N760 C757 1.384 . S
N761 C753 1.427 . S
N761 C759 1.384 . S
H762 C768 0.930 . S
H763 C772 0.930 . S
H764 C777 0.929 . S
H765 C775 0.929 . S
H766 C770 0.929 . S
H767 C776 0.929 . S
C768 H762 0.930 . S
C768 C769 1.367 . S
C768 C776 1.378 . S
C769 C768 1.367 . S
C769 C777 1.433 1_556 S
C770 H766 0.929 . S
C770 C772 1.378 . S
C770 C774 1.350 . S
C771 C774 1.463 . S
C771 C776 1.350 . S
C771 N779 1.427 . S
C772 H763 0.930 . S
C772 C770 1.378 . S
C772 C773 1.367 . S
C773 C772 1.367 . S
C773 C775 1.433 . S
C774 C770 1.350 . S
C774 C771 1.463 . S
C774 N778 1.427 . S
C775 H765 0.929 . S
C775 C773 1.433 . S
C775 N778 1.384 . S
C776 H767 0.929 . S
C776 C768 1.378 . S
C776 C771 1.350 . S
C777 H764 0.929 . S
C777 C769 1.433 1_554 S
C777 N779 1.384 1_554 S
N778 C774 1.427 . S
N778 C775 1.384 . S
N779 C771 1.427 . S
N779 C777 1.384 1_556 S
H780 C786 0.930 . S
H781 C790 0.930 . S
H782 C795 0.929 . S
H783 C793 0.929 . S
H784 C788 0.929 . S
H785 C794 0.929 . S
C786 H780 0.930 . S
C786 C787 1.367 . S
C786 C794 1.378 . S
C787 C786 1.367 . S
C787 C795 1.433 . S
C788 H784 0.929 . S
C788 C790 1.378 . S
C788 C792 1.350 . S
C789 C792 1.463 . S
C789 C794 1.350 . S
C789 N797 1.427 . S
C790 H781 0.930 . S
C790 C788 1.378 . S
C790 C791 1.367 . S
C791 C790 1.367 . S
C791 C793 1.433 . S
C792 C788 1.350 . S
C792 C789 1.463 . S
C792 N796 1.427 . S
C793 H783 0.929 . S
C793 C791 1.433 . S
C793 N796 1.384 . S
C794 H785 0.929 . S
C794 C786 1.378 . S
C794 C789 1.350 . S
C795 H782 0.929 . S
C795 C787 1.433 . S
C795 N797 1.384 . S
N796 C792 1.427 . S
N796 C793 1.384 . S
N797 C789 1.427 . S
N797 C795 1.384 . S
H798 C804 0.930 . S
H799 C808 0.930 . S
H800 C813 0.929 . S
H801 C811 0.929 . S
H802 C806 0.929 . S
H803 C812 0.929 . S
C804 H798 0.930 . S
C804 C805 1.367 . S
C804 C812 1.378 . S
C805 C804 1.367 . S
C805 C813 1.433 . S
C806 H802 0.929 . S
C806 C808 1.378 . S
C806 C810 1.350 . S
C807 C810 1.463 . S
C807 C812 1.350 . S
C807 N815 1.427 . S
C808 H799 0.930 . S
C808 C806 1.378 . S
C808 C809 1.367 . S
C809 C808 1.367 . S
C809 C811 1.433 . S
C810 C806 1.350 . S
C810 C807 1.463 . S
C810 N814 1.427 . S
C811 H801 0.929 . S
C811 C809 1.433 . S
C811 N814 1.384 . S
C812 H803 0.929 . S
C812 C804 1.378 . S
C812 C807 1.350 . S
C813 H800 0.929 . S
C813 C805 1.433 . S
C813 N815 1.384 . S
N814 C810 1.427 . S
N814 C811 1.384 . S
N815 C807 1.427 . S
N815 C813 1.384 . S
H816 C822 0.930 . S
H817 C826 0.930 . S
H818 C831 0.929 . S
H819 C829 0.929 . S
H820 C824 0.929 . S
H821 C830 0.929 . S
C822 H816 0.930 . S
C822 C823 1.367 . S
C822 C830 1.378 . S
C823 C822 1.367 . S
C823 C831 1.433 . S
C824 H820 0.929 . S
C824 C826 1.378 . S
C824 C828 1.350 . S
C825 C828 1.463 1_544 S
C825 C830 1.350 . S
C825 N833 1.427 . S
C826 H817 0.930 . S
C826 C824 1.378 . S
C826 C827 1.367 . S
C827 C826 1.367 . S
C827 C829 1.433 . S
C828 C824 1.350 . S
C828 C825 1.463 1_566 S
C828 N832 1.427 . S
C829 H819 0.929 . S
C829 C827 1.433 . S
C829 N832 1.384 . S
C830 H821 0.929 . S
C830 C822 1.378 . S
C830 C825 1.350 . S
C831 H818 0.929 . S
C831 C823 1.433 . S
C831 N833 1.384 . S
N832 C828 1.427 . S
N832 C829 1.384 . S
N833 C825 1.427 . S
N833 C831 1.384 . S
H834 C840 0.930 . S
H835 C844 0.930 . S
H836 C849 0.929 . S
H837 C847 0.929 . S
H838 C842 0.929 . S
H839 C848 0.929 . S
C840 H834 0.930 . S
C840 C841 1.367 . S
C840 C848 1.378 . S
C841 C840 1.367 . S
C841 C849 1.433 . S
C842 H838 0.929 . S
C842 C844 1.378 . S
C842 C846 1.350 . S
C843 C846 1.463 . S
C843 C848 1.350 . S
C843 N851 1.427 . S
C844 H835 0.930 . S
C844 C842 1.378 . S
C844 C845 1.367 . S
C845 C844 1.367 . S
C845 C847 1.433 . S
C846 C842 1.350 . S
C846 C843 1.463 . S
C846 N850 1.427 . S
C847 H837 0.929 . S
C847 C845 1.433 . S
C847 N850 1.384 . S
C848 H839 0.929 . S
C848 C840 1.378 . S
C848 C843 1.350 . S
C849 H836 0.929 . S
C849 C841 1.433 . S
C849 N851 1.384 . S
N850 C846 1.427 . S
N850 C847 1.384 . S
N851 C843 1.427 . S
N851 C849 1.384 . S
H852 C858 0.930 . S
H853 C862 0.930 . S
H854 C867 0.929 . S
H855 C865 0.929 . S
H856 C860 0.929 1_545 S
H857 C866 0.929 1_565 S
C858 H852 0.930 . S
C858 C859 1.367 . S
C858 C866 1.378 . S
C859 C858 1.367 . S
C859 C867 1.433 . S
C860 H856 0.929 1_565 S
C860 C862 1.378 . S
C860 C864 1.350 . S
C861 C864 1.463 1_545 S
C861 C866 1.350 . S
C861 N869 1.427 . S
C862 H853 0.930 . S
C862 C860 1.378 . S
C862 C863 1.367 . S
C863 C862 1.367 . S
C863 C865 1.433 . S
C864 C860 1.350 . S
C864 C861 1.463 1_565 S
C864 N868 1.427 . S
C865 H855 0.929 . S
C865 C863 1.433 . S
C865 N868 1.384 . S
C866 H857 0.929 1_545 S
C866 C858 1.378 . S
C866 C861 1.350 . S
C867 H854 0.929 . S
C867 C859 1.433 . S
C867 N869 1.384 . S
N868 C864 1.427 . S
N868 C865 1.384 . S
N869 C861 1.427 . S
N869 C867 1.384 . S
H870 C876 0.930 . S
H871 C880 0.930 . S
H872 C885 0.929 . S
H873 C883 0.929 . S
H874 C878 0.929 . S
H875 C884 0.929 . S
C876 H870 0.930 . S
C876 C877 1.367 . S
C876 C884 1.378 . S
C877 C876 1.367 . S
C877 C885 1.433 . S
C878 H874 0.929 . S
C878 C880 1.378 . S
C878 C882 1.350 . S
C879 C882 1.463 . S
C879 C884 1.350 . S
C879 N887 1.427 . S
C880 H871 0.930 . S
C880 C878 1.378 . S
C880 C881 1.367 . S
C881 C880 1.367 . S
C881 C883 1.433 . S
C882 C878 1.350 . S
C882 C879 1.463 . S
C882 N886 1.427 . S
C883 H873 0.929 . S
C883 C881 1.433 . S
C883 N886 1.384 . S
C884 H875 0.929 . S
C884 C876 1.378 . S
C884 C879 1.350 . S
C885 H872 0.929 . S
C885 C877 1.433 . S
C885 N887 1.384 . S
N886 C882 1.427 . S
N886 C883 1.384 . S
N887 C879 1.427 . S
N887 C885 1.384 . S
H888 C894 0.930 . S
H889 C898 0.930 . S
H890 C903 0.929 . S
H891 C901 0.929 . S
H892 C896 0.929 . S
H893 C902 0.929 . S
C894 H888 0.930 . S
C894 C895 1.367 . S
C894 C902 1.378 . S
C895 C894 1.367 . S
C895 C903 1.433 . S
C896 H892 0.929 . S
C896 C898 1.378 . S
C896 C900 1.350 . S
C897 C900 1.463 . S
C897 C902 1.350 . S
C897 N905 1.427 . S
C898 H889 0.930 . S
C898 C896 1.378 . S
C898 C899 1.367 . S
C899 C898 1.367 . S
C899 C901 1.433 . S
C900 C896 1.350 . S
C900 C897 1.463 . S
C900 N904 1.427 . S
C901 H891 0.929 . S
C901 C899 1.433 . S
C901 N904 1.384 . S
C902 H893 0.929 . S
C902 C894 1.378 . S
C902 C897 1.350 . S
C903 H890 0.929 . S
C903 C895 1.433 . S
C903 N905 1.384 . S
N904 C900 1.427 . S
N904 C901 1.384 . S
N905 C897 1.427 . S
N905 C903 1.384 . S
H906 C912 0.930 . S
H907 C916 0.930 . S
H908 C921 0.929 . S
H909 C919 0.929 . S
H910 C914 0.929 . S
H911 C920 0.929 . S
C912 H906 0.930 . S
C912 C913 1.367 . S
C912 C920 1.378 . S
C913 C912 1.367 . S
C913 C921 1.433 . S
C914 H910 0.929 . S
C914 C916 1.378 . S
C914 C918 1.350 . S
C915 C918 1.463 . S
C915 C920 1.350 . S
C915 N923 1.427 . S
C916 H907 0.930 . S
C916 C914 1.378 . S
C916 C917 1.367 . S
C917 C916 1.367 . S
C917 C919 1.433 . S
C918 C914 1.350 . S
C918 C915 1.463 . S
C918 N922 1.427 . S
C919 H909 0.929 . S
C919 C917 1.433 . S
C919 N922 1.384 . S
C920 H911 0.929 . S
C920 C912 1.378 . S
C920 C915 1.350 . S
C921 H908 0.929 . S
C921 C913 1.433 . S
C921 N923 1.384 . S
N922 C918 1.427 . S
N922 C919 1.384 . S
N923 C915 1.427 . S
N923 C921 1.384 . S
H924 C930 0.930 . S
H925 C934 0.930 . S
H926 C939 0.929 . S
H927 C937 0.929 . S
H928 C932 0.929 . S
H929 C938 0.929 . S
C930 H924 0.930 . S
C930 C931 1.367 . S
C930 C938 1.378 . S
C931 C930 1.367 . S
C931 C939 1.433 . S
C932 H928 0.929 . S
C932 C934 1.378 . S
C932 C936 1.350 . S
C933 C936 1.463 . S
C933 C938 1.350 . S
C933 N941 1.427 . S
C934 H925 0.930 . S
C934 C932 1.378 . S
C934 C935 1.367 . S
C935 C934 1.367 . S
C935 C937 1.433 . S
C936 C932 1.350 . S
C936 C933 1.463 . S
C936 N940 1.427 . S
C937 H927 0.929 . S
C937 C935 1.433 . S
C937 N940 1.384 . S
C938 H929 0.929 . S
C938 C930 1.378 . S
C938 C933 1.350 . S
C939 H926 0.929 . S
C939 C931 1.433 . S
C939 N941 1.384 . S
N940 C936 1.427 . S
N940 C937 1.384 . S
N941 C933 1.427 . S
N941 C939 1.384 . S
H942 C948 0.930 . S
H943 C952 0.930 . S
H944 C957 0.929 . S
H945 C955 0.929 . S
H946 C950 0.929 1_556 S
H947 C956 0.929 1_554 S
C948 H942 0.930 . S
C948 C949 1.367 . S
C948 C956 1.378 . S
C949 C948 1.367 . S
C949 C957 1.433 . S
C950 H946 0.929 1_554 S
C950 C952 1.378 . S
C950 C954 1.350 . S
C951 C954 1.463 1_556 S
C951 C956 1.350 . S
C951 N959 1.427 . S
C952 H943 0.930 . S
C952 C950 1.378 . S
C952 C953 1.367 . S
C953 C952 1.367 . S
C953 C955 1.433 . S
C954 C950 1.350 . S
C954 C951 1.463 1_554 S
C954 N958 1.427 . S
C955 H945 0.929 . S
C955 C953 1.433 . S
C955 N958 1.384 . S
C956 H947 0.929 1_556 S
C956 C948 1.378 . S
C956 C951 1.350 . S
C957 H944 0.929 . S
C957 C949 1.433 . S
C957 N959 1.384 . S
N958 C954 1.427 . S
N958 C955 1.384 . S
N959 C951 1.427 . S
N959 C957 1.384 . S
H960 C966 0.930 . S
H961 C970 0.930 . S
H962 C975 0.929 . S
H963 C973 0.929 . S
H964 C968 0.929 . S
H965 C974 0.929 . S
C966 H960 0.930 . S
C966 C967 1.367 . S
C966 C974 1.378 . S
C967 C966 1.367 . S
C967 C975 1.433 . S
C968 H964 0.929 . S
C968 C970 1.378 . S
C968 C972 1.350 . S
C969 C972 1.463 . S
C969 C974 1.350 . S
C969 N977 1.427 . S
C970 H961 0.930 . S
C970 C968 1.378 . S
C970 C971 1.367 . S
C971 C970 1.367 . S
C971 C973 1.433 . S
C972 C968 1.350 . S
C972 C969 1.463 . S
C972 N976 1.427 . S
C973 H963 0.929 . S
C973 C971 1.433 . S
C973 N976 1.384 . S
C974 H965 0.929 . S
C974 C966 1.378 . S
C974 C969 1.350 . S
C975 H962 0.929 . S
C975 C967 1.433 . S
C975 N977 1.384 . S
N976 C972 1.427 . S
N976 C973 1.384 . S
N977 C969 1.427 . S
N977 C975 1.384 . S
H978 C984 0.930 . S
H979 C988 0.930 . S
H980 C993 0.929 . S
H981 C991 0.929 . S
H982 C986 0.929 . S
H983 C992 0.929 . S
C984 H978 0.930 . S
C984 C985 1.367 . S
C984 C992 1.378 . S
C985 C984 1.367 . S
C985 C993 1.433 . S
C986 H982 0.929 . S
C986 C988 1.378 . S
C986 C990 1.350 . S
C987 C990 1.463 1_554 S
C987 C992 1.350 . S
C987 N995 1.427 . S
C988 H979 0.930 . S
C988 C986 1.378 . S
C988 C989 1.367 . S
C989 C988 1.367 . S
C989 C991 1.433 . S
C990 C986 1.350 . S
C990 C987 1.463 1_556 S
C990 N994 1.427 . S
C991 H981 0.929 . S
C991 C989 1.433 . S
C991 N994 1.384 . S
C992 H983 0.929 . S
C992 C984 1.378 . S
C992 C987 1.350 . S
C993 H980 0.929 . S
C993 C985 1.433 . S
C993 N995 1.384 . S
N994 C990 1.427 . S
N994 C991 1.384 . S
N995 C987 1.427 . S
N995 C993 1.384 . S
H996 C1002 0.930 . S
H997 C1006 0.930 . S
H998 C1011 0.929 . S
H999 C1009 0.929 . S
H1000 C1004 0.929 . S
H1001 C1010 0.929 . S
C1002 H996 0.930 . S
C1002 C1003 1.367 . S
C1002 C1010 1.378 . S
C1003 C1002 1.367 . S
C1003 C1011 1.433 . S
C1004 H1000 0.929 . S
C1004 C1006 1.378 . S
C1004 C1008 1.350 . S
C1005 C1008 1.463 . S
C1005 C1010 1.350 . S
C1005 N1013 1.427 . S
C1006 H997 0.930 . S
C1006 C1004 1.378 . S
C1006 C1007 1.367 . S
C1007 C1006 1.367 . S
C1007 C1009 1.433 . S
C1008 C1004 1.350 . S
C1008 C1005 1.463 . S
C1008 N1012 1.427 . S
C1009 H999 0.929 . S
C1009 C1007 1.433 . S
C1009 N1012 1.384 . S
C1010 H1001 0.929 . S
C1010 C1002 1.378 . S
C1010 C1005 1.350 . S
C1011 H998 0.929 . S
C1011 C1003 1.433 . S
C1011 N1013 1.384 . S
N1012 C1008 1.427 . S
N1012 C1009 1.384 . S
N1013 C1005 1.427 . S
N1013 C1011 1.384 . S
H1014 C1020 0.930 . S
H1015 C1024 0.930 . S
H1016 C1029 0.929 . S
H1017 C1027 0.929 . S
H1018 C1022 0.929 . S
H1019 C1028 0.929 . S
C1020 H1014 0.930 . S
C1020 C1021 1.367 . S
C1020 C1028 1.378 . S
C1021 C1020 1.367 . S
C1021 C1029 1.433 . S
C1022 H1018 0.929 . S
C1022 C1024 1.378 . S
C1022 C1026 1.350 . S
C1023 C1026 1.463 . S
C1023 C1028 1.350 . S
C1023 N1031 1.427 . S
C1024 H1015 0.930 . S
C1024 C1022 1.378 . S
C1024 C1025 1.367 . S
C1025 C1024 1.367 . S
C1025 C1027 1.433 . S
C1026 C1022 1.350 . S
C1026 C1023 1.463 . S
C1026 N1030 1.427 . S
C1027 H1017 0.929 . S
C1027 C1025 1.433 . S
C1027 N1030 1.384 . S
C1028 H1019 0.929 . S
C1028 C1020 1.378 . S
C1028 C1023 1.350 . S
C1029 H1016 0.929 . S
C1029 C1021 1.433 . S
C1029 N1031 1.384 . S
N1030 C1026 1.427 . S
N1030 C1027 1.384 . S
N1031 C1023 1.427 . S
N1031 C1029 1.384 . S
H1032 C1038 0.930 . S
H1033 C1042 0.930 . S
H1034 C1047 0.929 . S
H1035 C1045 0.929 . S
H1036 C1040 0.929 . S
H1037 C1046 0.929 . S
C1038 H1032 0.930 . S
C1038 C1039 1.367 . S
C1038 C1046 1.378 . S
C1039 C1038 1.367 . S
C1039 C1047 1.433 . S
C1040 H1036 0.929 . S
C1040 C1042 1.378 . S
C1040 C1044 1.350 . S
C1041 C1044 1.463 . S
C1041 C1046 1.350 . S
C1041 N1049 1.427 . S
C1042 H1033 0.930 . S
C1042 C1040 1.378 . S
C1042 C1043 1.367 . S
C1043 C1042 1.367 . S
C1043 C1045 1.433 . S
C1044 C1040 1.350 . S
C1044 C1041 1.463 . S
C1044 N1048 1.427 . S
C1045 H1035 0.929 . S
C1045 C1043 1.433 . S
C1045 N1048 1.384 . S
C1046 H1037 0.929 . S
C1046 C1038 1.378 . S
C1046 C1041 1.350 . S
C1047 H1034 0.929 . S
C1047 C1039 1.433 . S
C1047 N1049 1.384 . S
N1048 C1044 1.427 . S
N1048 C1045 1.384 . S
N1049 C1041 1.427 . S
N1049 C1047 1.384 . S
H1050 C1056 0.930 . S
H1051 C1060 0.930 . S
H1052 C1065 0.929 . S
H1053 C1063 0.929 . S
H1054 C1058 0.929 . S
H1055 C1064 0.929 . S
C1056 H1050 0.930 . S
C1056 C1057 1.367 . S
C1056 C1064 1.378 . S
C1057 C1056 1.367 . S
C1057 C1065 1.433 . S
C1058 H1054 0.929 . S
C1058 C1060 1.378 . S
C1058 C1062 1.350 . S
C1059 C1062 1.463 . S
C1059 C1064 1.350 . S
C1059 N1067 1.427 . S
C1060 H1051 0.930 . S
C1060 C1058 1.378 . S
C1060 C1061 1.367 . S
C1061 C1060 1.367 . S
C1061 C1063 1.433 . S
C1062 C1058 1.350 . S
C1062 C1059 1.463 . S
C1062 N1066 1.427 . S
C1063 H1053 0.929 . S
C1063 C1061 1.433 . S
C1063 N1066 1.384 . S
C1064 H1055 0.929 . S
C1064 C1056 1.378 . S
C1064 C1059 1.350 . S
C1065 H1052 0.929 . S
C1065 C1057 1.433 . S
C1065 N1067 1.384 . S
N1066 C1062 1.427 . S
N1066 C1063 1.384 . S
N1067 C1059 1.427 . S
N1067 C1065 1.384 . S
H1068 C1074 0.930 . S
H1069 C1078 0.930 . S
H1070 C1083 0.929 . S
H1071 C1081 0.929 . S
H1072 C1076 0.929 . S
H1073 C1082 0.929 . S
C1074 H1068 0.930 . S
C1074 C1075 1.367 . S
C1074 C1082 1.378 . S
C1075 C1074 1.367 . S
C1075 C1083 1.433 . S
C1076 H1072 0.929 . S
C1076 C1078 1.378 . S
C1076 C1080 1.350 . S
C1077 C1080 1.463 . S
C1077 C1082 1.350 . S
C1077 N1085 1.427 . S
C1078 H1069 0.930 . S
C1078 C1076 1.378 . S
C1078 C1079 1.367 . S
C1079 C1078 1.367 . S
C1079 C1081 1.433 . S
C1080 C1076 1.350 . S
C1080 C1077 1.463 . S
C1080 N1084 1.427 . S
C1081 H1071 0.929 . S
C1081 C1079 1.433 . S
C1081 N1084 1.384 . S
C1082 H1073 0.929 . S
C1082 C1074 1.378 . S
C1082 C1077 1.350 . S
C1083 H1070 0.929 . S
C1083 C1075 1.433 . S
C1083 N1085 1.384 . S
N1084 C1080 1.427 . S
N1084 C1081 1.384 . S
N1085 C1077 1.427 . S
N1085 C1083 1.384 . S
H1086 C1092 0.930 . S
H1087 C1096 0.930 . S
H1088 C1101 0.929 . S
H1089 C1099 0.929 . S
H1090 C1094 0.929 . S
H1091 C1100 0.929 . S
C1092 H1086 0.930 . S
C1092 C1093 1.367 . S
C1092 C1100 1.378 . S
C1093 C1092 1.367 . S
C1093 C1101 1.433 . S
C1094 H1090 0.929 . S
C1094 C1096 1.378 . S
C1094 C1098 1.350 . S
C1095 C1098 1.463 1_556 S
C1095 C1100 1.350 . S
C1095 N1103 1.427 . S
C1096 H1087 0.930 . S
C1096 C1094 1.378 . S
C1096 C1097 1.367 . S
C1097 C1096 1.367 . S
C1097 C1099 1.433 . S
C1098 C1094 1.350 . S
C1098 C1095 1.463 1_554 S
C1098 N1102 1.427 . S
C1099 H1089 0.929 . S
C1099 C1097 1.433 . S
C1099 N1102 1.384 . S
C1100 H1091 0.929 . S
C1100 C1092 1.378 . S
C1100 C1095 1.350 . S
C1101 H1088 0.929 . S
C1101 C1093 1.433 . S
C1101 N1103 1.384 . S
N1102 C1098 1.427 . S
N1102 C1099 1.384 . S
N1103 C1095 1.427 . S
N1103 C1101 1.384 . S
H1104 C1110 0.930 . S
H1105 C1114 0.930 . S
H1106 C1119 0.929 . S
H1107 C1117 0.929 . S
H1108 C1112 0.929 . S
H1109 C1118 0.929 . S
C1110 H1104 0.930 . S
C1110 C1111 1.367 . S
C1110 C1118 1.378 . S
C1111 C1110 1.367 . S
C1111 C1119 1.433 . S
C1112 H1108 0.929 . S
C1112 C1114 1.378 . S
C1112 C1116 1.350 . S
C1113 C1116 1.463 1_554 S
C1113 C1118 1.350 . S
C1113 N1121 1.427 . S
C1114 H1105 0.930 . S
C1114 C1112 1.378 . S
C1114 C1115 1.367 . S
C1115 C1114 1.367 . S
C1115 C1117 1.433 . S
C1116 C1112 1.350 . S
C1116 C1113 1.463 1_556 S
C1116 N1120 1.427 . S
C1117 H1107 0.929 . S
C1117 C1115 1.433 . S
C1117 N1120 1.384 . S
C1118 H1109 0.929 . S
C1118 C1110 1.378 . S
C1118 C1113 1.350 . S
C1119 H1106 0.929 . S
C1119 C1111 1.433 . S
C1119 N1121 1.384 . S
N1120 C1116 1.427 . S
N1120 C1117 1.384 . S
N1121 C1113 1.427 . S
N1121 C1119 1.384 . S
H1122 C1128 0.930 . S
H1123 C1132 0.930 . S
H1124 C1137 0.929 . S
H1125 C1135 0.929 . S
H1126 C1130 0.929 . S
H1127 C1136 0.929 . S
C1128 H1122 0.930 . S
C1128 C1129 1.367 . S
C1128 C1136 1.378 . S
C1129 C1128 1.367 . S
C1129 C1137 1.433 . S
C1130 H1126 0.929 . S
C1130 C1132 1.378 . S
C1130 C1134 1.350 . S
C1131 C1134 1.463 . S
C1131 C1136 1.350 . S
C1131 N1139 1.427 . S
C1132 H1123 0.930 . S
C1132 C1130 1.378 . S
C1132 C1133 1.367 . S
C1133 C1132 1.367 . S
C1133 C1135 1.433 . S
C1134 C1130 1.350 . S
C1134 C1131 1.463 . S
C1134 N1138 1.427 . S
C1135 H1125 0.929 . S
C1135 C1133 1.433 . S
C1135 N1138 1.384 . S
C1136 H1127 0.929 . S
C1136 C1128 1.378 . S
C1136 C1131 1.350 . S
C1137 H1124 0.929 . S
C1137 C1129 1.433 . S
C1137 N1139 1.384 . S
N1138 C1134 1.427 . S
N1138 C1135 1.384 . S
N1139 C1131 1.427 . S
N1139 C1137 1.384 . S
H1140 C1146 0.930 . S
H1141 C1150 0.930 . S
H1142 C1155 0.929 . S
H1143 C1153 0.929 . S
H1144 C1148 0.929 . S
H1145 C1154 0.929 . S
C1146 H1140 0.930 . S
C1146 C1147 1.367 . S
C1146 C1154 1.378 . S
C1147 C1146 1.367 . S
C1147 C1155 1.433 . S
C1148 H1144 0.929 . S
C1148 C1150 1.378 . S
C1148 C1152 1.350 . S
C1149 C1152 1.463 . S
C1149 C1154 1.350 . S
C1149 N1157 1.427 . S
C1150 H1141 0.930 . S
C1150 C1148 1.378 . S
C1150 C1151 1.367 . S
C1151 C1150 1.367 . S
C1151 C1153 1.433 . S
C1152 C1148 1.350 . S
C1152 C1149 1.463 . S
C1152 N1156 1.427 . S
C1153 H1143 0.929 . S
C1153 C1151 1.433 . S
C1153 N1156 1.384 . S
C1154 H1145 0.929 . S
C1154 C1146 1.378 . S
C1154 C1149 1.350 . S
C1155 H1142 0.929 . S
C1155 C1147 1.433 . S
C1155 N1157 1.384 . S
N1156 C1152 1.427 . S
N1156 C1153 1.384 . S
N1157 C1149 1.427 . S
N1157 C1155 1.384 . S
H1158 C1164 0.930 . S
H1159 C1168 0.930 . S
H1160 C1173 0.929 . S
H1161 C1171 0.929 . S
H1162 C1166 0.929 . S
H1163 C1172 0.929 . S
C1164 H1158 0.930 . S
C1164 C1165 1.367 . S
C1164 C1172 1.378 . S
C1165 C1164 1.367 . S
C1165 C1173 1.433 . S
C1166 H1162 0.929 . S
C1166 C1168 1.378 . S
C1166 C1170 1.350 . S
C1167 C1170 1.463 1_554 S
C1167 C1172 1.350 . S
C1167 N1175 1.427 . S
C1168 H1159 0.930 . S
C1168 C1166 1.378 . S
C1168 C1169 1.367 . S
C1169 C1168 1.367 . S
C1169 C1171 1.433 . S
C1170 C1166 1.350 . S
C1170 C1167 1.463 1_556 S
C1170 N1174 1.427 . S
C1171 H1161 0.929 . S
C1171 C1169 1.433 . S
C1171 N1174 1.384 . S
C1172 H1163 0.929 . S
C1172 C1164 1.378 . S
C1172 C1167 1.350 . S
C1173 H1160 0.929 . S
C1173 C1165 1.433 . S
C1173 N1175 1.384 . S
N1174 C1170 1.427 . S
N1174 C1171 1.384 . S
N1175 C1167 1.427 . S
N1175 C1173 1.384 . S
H1176 C1182 0.930 . S
H1177 C1186 0.930 . S
H1178 C1191 0.929 . S
H1179 C1189 0.929 . S
H1180 C1184 0.929 . S
H1181 C1190 0.929 . S
C1182 H1176 0.930 . S
C1182 C1183 1.367 . S
C1182 C1190 1.378 . S
C1183 C1182 1.367 . S
C1183 C1191 1.433 . S
C1184 H1180 0.929 . S
C1184 C1186 1.378 . S
C1184 C1188 1.350 . S
C1185 C1188 1.463 . S
C1185 C1190 1.350 . S
C1185 N1193 1.427 . S
C1186 H1177 0.930 . S
C1186 C1184 1.378 . S
C1186 C1187 1.367 . S
C1187 C1186 1.367 . S
C1187 C1189 1.433 . S
C1188 C1184 1.350 . S
C1188 C1185 1.463 . S
C1188 N1192 1.427 . S
C1189 H1179 0.929 . S
C1189 C1187 1.433 . S
C1189 N1192 1.384 . S
C1190 H1181 0.929 . S
C1190 C1182 1.378 . S
C1190 C1185 1.350 . S
C1191 H1178 0.929 . S
C1191 C1183 1.433 . S
C1191 N1193 1.384 . S
N1192 C1188 1.427 . S
N1192 C1189 1.384 . S
N1193 C1185 1.427 . S
N1193 C1191 1.384 . S
H1194 C1200 0.930 . S
H1195 C1204 0.930 . S
H1196 C1209 0.929 . S
H1197 C1207 0.929 . S
H1198 C1202 0.929 . S
H1199 C1208 0.929 . S
C1200 H1194 0.930 . S
C1200 C1201 1.367 . S
C1200 C1208 1.378 . S
C1201 C1200 1.367 . S
C1201 C1209 1.433 . S
C1202 H1198 0.929 . S
C1202 C1204 1.378 . S
C1202 C1206 1.350 . S
C1203 C1206 1.463 . S
C1203 C1208 1.350 . S
C1203 N1211 1.427 . S
C1204 H1195 0.930 . S
C1204 C1202 1.378 . S
C1204 C1205 1.367 . S
C1205 C1204 1.367 . S
C1205 C1207 1.433 . S
C1206 C1202 1.350 . S
C1206 C1203 1.463 . S
C1206 N1210 1.427 . S
C1207 H1197 0.929 . S
C1207 C1205 1.433 . S
C1207 N1210 1.384 . S
C1208 H1199 0.929 . S
C1208 C1200 1.378 . S
C1208 C1203 1.350 . S
C1209 H1196 0.929 . S
C1209 C1201 1.433 . S
C1209 N1211 1.384 . S
N1210 C1206 1.427 . S
N1210 C1207 1.384 . S
N1211 C1203 1.427 . S
N1211 C1209 1.384 . S
H1212 C1218 0.930 . S
H1213 C1222 0.930 . S
H1214 C1227 0.929 . S
H1215 C1225 0.929 . S
H1216 C1220 0.929 . S
H1217 C1226 0.929 . S
C1218 H1212 0.930 . S
C1218 C1219 1.367 . S
C1218 C1226 1.378 . S
C1219 C1218 1.367 . S
C1219 C1227 1.433 . S
C1220 H1216 0.929 . S
C1220 C1222 1.378 . S
C1220 C1224 1.350 . S
C1221 C1224 1.463 . S
C1221 C1226 1.350 . S
C1221 N1229 1.427 . S
C1222 H1213 0.930 . S
C1222 C1220 1.378 . S
C1222 C1223 1.367 . S
C1223 C1222 1.367 . S
C1223 C1225 1.433 . S
C1224 C1220 1.350 . S
C1224 C1221 1.463 . S
C1224 N1228 1.427 . S
C1225 H1215 0.929 . S
C1225 C1223 1.433 . S
C1225 N1228 1.384 . S
C1226 H1217 0.929 . S
C1226 C1218 1.378 . S
C1226 C1221 1.350 . S
C1227 H1214 0.929 . S
C1227 C1219 1.433 . S
C1227 N1229 1.384 . S
N1228 C1224 1.427 . S
N1228 C1225 1.384 . S
N1229 C1221 1.427 . S
N1229 C1227 1.384 . S
H1230 C1236 0.930 . S
H1231 C1240 0.930 . S
H1232 C1245 0.929 . S
H1233 C1243 0.929 . S
H1234 C1238 0.929 . S
H1235 C1244 0.929 . S
C1236 H1230 0.930 . S
C1236 C1237 1.367 . S
C1236 C1244 1.378 . S
C1237 C1236 1.367 . S
C1237 C1245 1.433 . S
C1238 H1234 0.929 . S
C1238 C1240 1.378 . S
C1238 C1242 1.350 . S
C1239 C1242 1.463 . S
C1239 C1244 1.350 . S
C1239 N1247 1.427 . S
C1240 H1231 0.930 . S
C1240 C1238 1.378 . S
C1240 C1241 1.367 . S
C1241 C1240 1.367 . S
C1241 C1243 1.433 . S
C1242 C1238 1.350 . S
C1242 C1239 1.463 . S
C1242 N1246 1.427 . S
C1243 H1233 0.929 . S
C1243 C1241 1.433 . S
C1243 N1246 1.384 . S
C1244 H1235 0.929 . S
C1244 C1236 1.378 . S
C1244 C1239 1.350 . S
C1245 H1232 0.929 . S
C1245 C1237 1.433 . S
C1245 N1247 1.384 . S
N1246 C1242 1.427 . S
N1246 C1243 1.384 . S
N1247 C1239 1.427 . S
N1247 C1245 1.384 . S
C535 C238 1.466 . S
C539 C7 1.477 . S
C553 C40 1.473 . S
C557 C139 1.475 . S
C571 C73 1.507 . S
C575 C172 1.510 . S
C589 C205 1.510 . S
C593 C106 1.517 . S
C607 C384 1.519 . S
C611 C153 1.517 . S
C625 C285 1.523 . S
C629 C21 1.519 . S
C643 C219 1.550 . S
C647 C351 1.555 . S
C661 C87 1.550 . S
C665 C318 1.556 . S
C679 C304 1.513 . S
C683 C403 1.515 . S
C697 C469 1.510 . S
C701 C337 1.508 . S
C715 C436 1.476 . S
C719 C271 1.466 . S
C733 C370 1.467 . S
C737 C502 1.477 . S
C751 C120 1.559 . S
C755 C483 1.553 . S
C769 C186 1.553 . S
C773 C417 1.552 . S
C787 C54 1.517 . S
C791 C516 1.519 . S
C805 C252 1.521 . S
C809 C450 1.522 . S
C823 C18 1.371 . S
C827 C150 1.371 . S
C841 C183 1.379 . S
C845 C51 1.377 . S
C859 C216 1.533 . S
C863 C84 1.532 . S
C877 C117 1.381 . S
C881 C249 1.378 . S
C895 C348 1.379 . S
C899 C282 1.377 . S
C913 C315 1.384 . S
C917 C381 1.381 . S
C931 C414 1.534 . S
C935 C480 1.534 . S
C949 C513 1.370 . S
C953 C447 1.370 . S
C967 N13 0.914 1_556 S
C971 N2 0.914 . S
C985 N46 0.908 . S
C989 N35 0.908 . S
C1003 N68 0.942 . S
C1007 N79 0.942 . S
C1021 N101 0.910 . S
C1025 N112 0.911 . S
C1039 N134 0.914 . S
C1043 N145 0.915 1_554 S
C1057 N167 0.911 . S
C1061 N178 0.911 . S
C1075 N211 0.936 . S
C1079 N200 0.935 . S
C1093 N244 0.906 . S
C1097 N233 0.906 . S
C1111 N266 0.908 . S
C1115 N277 0.908 . S
C1129 N299 0.919 . S
C1133 N310 0.919 . S
C1147 N343 0.919 . S
C1151 N332 0.919 . S
C1165 N376 0.903 . S
C1169 N365 0.902 . S
C1183 N409 0.936 . S
C1187 N398 0.936 . S
C1201 N442 0.908 1_556 S
C1205 N431 0.908 . S
C1219 N475 0.935 . S
C1223 N464 0.935 . S
C1237 N497 0.912 . S
C1241 N508 0.912 1_554 S
