# Generated by pormake.
# Topology zfj, (5)-cn, num edge types: 1
# Building blocks:
#     Node 0, Type 0, BuildingBlock: BEQFEK_clean_sbu_0, # of connection points: 5
#     Node 1, Type 0, BuildingBlock: BEQFEK_clean_sbu_0, # of connection points: 5
#     Node 2, Type 0, BuildingBlock: BEQFEK_clean_sbu_0, # of connection points: 5
#     Node 3, Type 0, BuildingBlock: BEQFEK_clean_sbu_0, # of connection points: 5
#     Node 4, Type 0, BuildingBlock: BEQFEK_clean_sbu_0, # of connection points: 5
#     Node 5, Type 0, BuildingBlock: BEQFEK_clean_sbu_0, # of connection points: 5
#     Node 6, Type 0, BuildingBlock: BEQFEK_clean_sbu_0, # of connection points: 5
#     Node 7, Type 0, BuildingBlock: BEQFEK_clean_sbu_0, # of connection points: 5
#     Node 8, Type 0, BuildingBlock: BEQFEK_clean_sbu_0, # of connection points: 5
#     Node 9, Type 0, BuildingBlock: BEQFEK_clean_sbu_0, # of connection points: 5
#     Node 10, Type 0, BuildingBlock: BEQFEK_clean_sbu_0, # of connection points: 5
#     Node 11, Type 0, BuildingBlock: BEQFEK_clean_sbu_0, # of connection points: 5
#     Node 12, Type 0, BuildingBlock: BEQFEK_clean_sbu_0, # of connection points: 5
#     Node 13, Type 0, BuildingBlock: BEQFEK_clean_sbu_0, # of connection points: 5
#     Node 14, Type 0, BuildingBlock: BEQFEK_clean_sbu_0, # of connection points: 5
#     Node 15, Type 0, BuildingBlock: BEQFEK_clean_sbu_0, # of connection points: 5
#     Edge 16, Type (0, 0), BuildingBlock: ZUJKAS_clean_linker_0, # of connection points: 2
#     Edge 17, Type (0, 0), BuildingBlock: ZUJKAS_clean_linker_0, # of connection points: 2
#     Edge 18, Type (0, 0), BuildingBlock: ZUJKAS_clean_linker_0, # of connection points: 2
#     Edge 19, Type (0, 0), BuildingBlock: ZUJKAS_clean_linker_0, # of connection points: 2
#     Edge 20, Type (0, 0), BuildingBlock: ZUJKAS_clean_linker_0, # of connection points: 2
#     Edge 21, Type (0, 0), BuildingBlock: ZUJKAS_clean_linker_0, # of connection points: 2
#     Edge 22, Type (0, 0), BuildingBlock: ZUJKAS_clean_linker_0, # of connection points: 2
#     Edge 23, Type (0, 0), BuildingBlock: ZUJKAS_clean_linker_0, # of connection points: 2
#     Edge 24, Type (0, 0), BuildingBlock: ZUJKAS_clean_linker_0, # of connection points: 2
#     Edge 25, Type (0, 0), BuildingBlock: ZUJKAS_clean_linker_0, # of connection points: 2
#     Edge 26, Type (0, 0), BuildingBlock: ZUJKAS_clean_linker_0, # of connection points: 2
#     Edge 27, Type (0, 0), BuildingBlock: ZUJKAS_clean_linker_0, # of connection points: 2
#     Edge 28, Type (0, 0), BuildingBlock: ZUJKAS_clean_linker_0, # of connection points: 2
#     Edge 29, Type (0, 0), BuildingBlock: ZUJKAS_clean_linker_0, # of connection points: 2
#     Edge 30, Type (0, 0), BuildingBlock: ZUJKAS_clean_linker_0, # of connection points: 2
#     Edge 31, Type (0, 0), BuildingBlock: ZUJKAS_clean_linker_0, # of connection points: 2
#     Edge 32, Type (0, 0), BuildingBlock: ZUJKAS_clean_linker_0, # of connection points: 2
#     Edge 33, Type (0, 0), BuildingBlock: ZUJKAS_clean_linker_0, # of connection points: 2
#     Edge 34, Type (0, 0), BuildingBlock: ZUJKAS_clean_linker_0, # of connection points: 2
#     Edge 35, Type (0, 0), BuildingBlock: ZUJKAS_clean_linker_0, # of connection points: 2
#     Edge 36, Type (0, 0), BuildingBlock: ZUJKAS_clean_linker_0, # of connection points: 2
#     Edge 37, Type (0, 0), BuildingBlock: ZUJKAS_clean_linker_0, # of connection points: 2
#     Edge 38, Type (0, 0), BuildingBlock: ZUJKAS_clean_linker_0, # of connection points: 2
#     Edge 39, Type (0, 0), BuildingBlock: ZUJKAS_clean_linker_0, # of connection points: 2
#     Edge 40, Type (0, 0), BuildingBlock: ZUJKAS_clean_linker_0, # of connection points: 2
#     Edge 41, Type (0, 0), BuildingBlock: ZUJKAS_clean_linker_0, # of connection points: 2
#     Edge 42, Type (0, 0), BuildingBlock: ZUJKAS_clean_linker_0, # of connection points: 2
#     Edge 43, Type (0, 0), BuildingBlock: ZUJKAS_clean_linker_0, # of connection points: 2
#     Edge 44, Type (0, 0), BuildingBlock: ZUJKAS_clean_linker_0, # of connection points: 2
#     Edge 45, Type (0, 0), BuildingBlock: ZUJKAS_clean_linker_0, # of connection points: 2
#     Edge 46, Type (0, 0), BuildingBlock: ZUJKAS_clean_linker_0, # of connection points: 2
#     Edge 47, Type (0, 0), BuildingBlock: ZUJKAS_clean_linker_0, # of connection points: 2
#     Edge 48, Type (0, 0), BuildingBlock: ZUJKAS_clean_linker_0, # of connection points: 2
#     Edge 49, Type (0, 0), BuildingBlock: ZUJKAS_clean_linker_0, # of connection points: 2
#     Edge 50, Type (0, 0), BuildingBlock: ZUJKAS_clean_linker_0, # of connection points: 2
#     Edge 51, Type (0, 0), BuildingBlock: ZUJKAS_clean_linker_0, # of connection points: 2
#     Edge 52, Type (0, 0), BuildingBlock: ZUJKAS_clean_linker_0, # of connection points: 2
#     Edge 53, Type (0, 0), BuildingBlock: ZUJKAS_clean_linker_0, # of connection points: 2
#     Edge 54, Type (0, 0), BuildingBlock: ZUJKAS_clean_linker_0, # of connection points: 2
#     Edge 55, Type (0, 0), BuildingBlock: ZUJKAS_clean_linker_0, # of connection points: 2
# Relax obj value: 0.251
# Max RMSD: 0.164
# Mean RMSD: 0.164
data_MOF--net-zfj--node1-BEQFEK_clean_sbu_0--edge1-ZUJKAS_clean_linker_0
_symmetry_space_group_name_H-M    P1
_symmetry_Int_Tables_number       1
_symmetry_cell_setting            triclinic
loop_
_symmetry_equiv_pos_as_xyz
'x, y, z'
_cell_length_a     44.195591
_cell_length_b     44.173606
_cell_length_c     70.070014
_cell_angle_alpha  90.001779
_cell_angle_beta   90.018563
_cell_angle_gamma 90.007071
loop_
_atom_site_label
_atom_site_type_symbol
_atom_site_fract_x
_atom_site_fract_y
_atom_site_fract_z
_atom_type_partial_charge
Co0 Co 0.52773 0.21086 0.14543 0.0
Co1 Co 0.55693 0.14813 0.13587 0.0
C2 C 0.5335 0.18717 0.10488 0.0
O3 O 0.52589 0.20659 0.11737 0.0
O4 O 0.54594 0.16225 0.10963 0.0
C5 C 0.47786 0.24953 0.14208 0.0
O6 O 0.46841 0.22706 0.13134 0.0
C7 C 0.56724 0.08372 0.12539 0.0
C8 C 0.60478 0.07274 0.14508 0.0
C9 C 0.58591 0.06022 0.13143 0.0
N10 N 0.5745 0.10873 0.13535 0.0
N11 N 0.5972 0.10204 0.14688 0.0
C12 C 0.54349 0.08279 0.11016 0.0
H13 H 0.52118 0.07785 0.1167 0.0
H14 H 0.54865 0.06493 0.09951 0.0
H15 H 0.54188 0.10502 0.10292 0.0
C16 C 0.4928 0.17288 0.17246 0.0
N17 N 0.51247 0.17603 0.1579 0.0
N18 N 0.52405 0.14943 0.15362 0.0
C19 C 0.51203 0.12845 0.16541 0.0
C20 C 0.49184 0.14259 0.17776 0.0
C21 C 0.47797 0.19892 0.18241 0.0
H22 H 0.49383 0.21834 0.18321 0.0
H23 H 0.45787 0.2061 0.17407 0.0
H24 H 0.47062 0.19269 0.19703 0.0
O25 O 0.57029 0.21891 0.15306 0.0
O26 O 0.58977 0.17423 0.14547 0.0
H27 H 0.54408 0.09305 0.17029 0.0
H28 H 0.50522 0.082 0.17446 0.0
C29 C 0.52043 0.09564 0.16526 0.0
H30 H 0.51898 0.08685 0.15052 0.0
H31 H 0.60705 0.11732 0.15638 0.0
O32 O 0.50287 0.24689 0.15089 0.0
C33 C 0.59278 0.20098 0.1519 0.0
Co34 Co 0.28443 0.53186 0.64635 0.0
Co35 Co 0.34769 0.55754 0.63484 0.0
C36 C 0.30631 0.53449 0.60513 0.0
O37 O 0.28714 0.52907 0.61822 0.0
O38 O 0.33232 0.54524 0.60912 0.0
C39 C 0.24451 0.4829 0.64499 0.0
O40 O 0.26672 0.47186 0.63465 0.0
C41 C 0.4121 0.5655 0.62344 0.0
C42 C 0.42454 0.60351 0.64241 0.0
C43 C 0.43622 0.58377 0.62897 0.0
N44 N 0.38754 0.57385 0.63349 0.0
N45 N 0.39512 0.59682 0.64458 0.0
C46 C 0.41205 0.54112 0.60859 0.0
H47 H 0.41647 0.51893 0.61543 0.0
H48 H 0.42985 0.54535 0.59774 0.0
H49 H 0.38964 0.53989 0.60154 0.0
C50 C 0.32222 0.49657 0.67332 0.0
N51 N 0.31917 0.5156 0.65841 0.0
N52 N 0.34599 0.52576 0.65336 0.0
C53 C 0.36703 0.51339 0.66496 0.0
C54 C 0.35269 0.49449 0.67801 0.0
C55 C 0.29612 0.48354 0.68417 0.0
H56 H 0.27726 0.50008 0.68468 0.0
H57 H 0.288 0.46293 0.6767 0.0
H58 H 0.30271 0.47732 0.69894 0.0
O59 O 0.27853 0.57477 0.65362 0.0
O60 O 0.32316 0.59198 0.64409 0.0
H61 H 0.40411 0.54395 0.66852 0.0
H62 H 0.41359 0.50476 0.67308 0.0
C63 C 0.40014 0.52024 0.66395 0.0
H64 H 0.40798 0.5178 0.64905 0.0
H65 H 0.38036 0.60745 0.65406 0.0
O66 O 0.2478 0.50866 0.65279 0.0
C67 C 0.29713 0.59646 0.6513 0.0
Co68 Co 0.9646 0.2865 0.14563 0.0
Co69 Co 0.93654 0.34899 0.13452 0.0
C70 C 0.95981 0.30825 0.10449 0.0
O71 O 0.96629 0.28929 0.11751 0.0
O72 O 0.94841 0.33394 0.10862 0.0
C73 C 0.01417 0.2474 0.14317 0.0
O74 O 0.02416 0.26968 0.13246 0.0
C75 C 0.92724 0.4132 0.12319 0.0
C76 C 0.88931 0.4251 0.14233 0.0
C77 C 0.90877 0.4371 0.12883 0.0
N78 N 0.91932 0.38849 0.13325 0.0
N79 N 0.89636 0.39573 0.14443 0.0
C80 C 0.95142 0.41346 0.10823 0.0
H81 H 0.95265 0.39114 0.10105 0.0
H82 H 0.97367 0.41787 0.11499 0.0
H83 H 0.94698 0.43137 0.09747 0.0
C84 C -0.00044 0.3252 0.17219 0.0
N85 N 0.98019 0.32167 0.1575 0.0
N86 N 0.96893 0.34818 0.1527 0.0
C87 C 0.98089 0.36951 0.16428 0.0
C88 C 0.0007 0.35568 0.17703 0.0
C89 C 0.01383 0.29941 0.18273 0.0
H90 H -0.00221 0.28015 0.18358 0.0
H91 H 0.03415 0.29178 0.17478 0.0
H92 H 0.02073 0.30612 0.19735 0.0
O93 O 0.92211 0.27944 0.15338 0.0
O94 O 0.90301 0.32345 0.14407 0.0
H95 H 0.94898 0.40533 0.1682 0.0
H96 H 0.98778 0.41621 0.17279 0.0
C97 C 0.97279 0.40237 0.16357 0.0
H98 H 0.97487 0.41064 0.14874 0.0
H99 H 0.88603 0.38079 0.15393 0.0
O100 O 0.98896 0.2504 0.15168 0.0
C101 C 0.89969 0.29723 0.1513 0.0
Co102 Co 0.21209 0.96942 0.64639 0.0
Co103 Co 0.15048 0.93932 0.63566 0.0
C104 C 0.19023 0.96417 0.60545 0.0
O105 O 0.20921 0.97126 0.61831 0.0
O106 O 0.16504 0.95195 0.60979 0.0
C107 C 0.25129 0.01886 0.6432 0.0
O108 O 0.22945 0.02814 0.63191 0.0
C109 C 0.0861 0.93169 0.62528 0.0
C110 C 0.07568 0.88884 0.64019 0.0
C111 C 0.06272 0.91161 0.62936 0.0
N112 N 0.11144 0.92141 0.63369 0.0
N113 N 0.10511 0.89559 0.64233 0.0
C114 C 0.08492 0.95945 0.61303 0.0
H115 H 0.08003 0.97953 0.62199 0.0
H116 H 0.06693 0.95734 0.60205 0.0
H117 H 0.10707 0.96321 0.60601 0.0
C118 C 0.17275 0.00328 0.67309 0.0
N119 N 0.17656 0.98394 0.65842 0.0
N120 N 0.15039 0.97143 0.65409 0.0
C121 C 0.12908 0.98233 0.6661 0.0
C122 C 0.1425 0.00304 0.67843 0.0
C123 C 0.19799 0.02071 0.68215 0.0
H124 H 0.20815 0.03601 0.67138 0.0
H125 H 0.19011 0.03454 0.69438 0.0
H126 H 0.21587 0.00479 0.68694 0.0
O127 O 0.22033 0.92695 0.65396 0.0
O128 O 0.1768 0.90638 0.64502 0.0
H129 H 0.08634 0.97747 0.68103 0.0
H130 H 0.08401 0.97789 0.65541 0.0
C131 C 0.09761 0.97 0.6677 0.0
H132 H 0.09825 0.94494 0.6675 0.0
H133 H 0.12072 0.88297 0.65018 0.0
O134 O 0.24779 0.99439 0.6525 0.0
C135 C 0.20324 0.90394 0.65203 0.0
Co136 Co 0.52547 0.28552 0.87366 0.0
Co137 Co 0.55643 0.34721 0.8835 0.0
C138 C 0.53222 0.3081 0.91431 0.0
O139 O 0.5239 0.28908 0.90175 0.0
O140 O 0.54524 0.33274 0.90962 0.0
C141 C 0.47523 0.24692 0.87661 0.0
O142 O 0.46568 0.26899 0.88763 0.0
C143 C 0.56692 0.41129 0.89435 0.0
C144 C 0.6059 0.42203 0.87578 0.0
C145 C 0.58614 0.43466 0.88887 0.0
N146 N 0.57469 0.38625 0.88458 0.0
N147 N 0.59828 0.39277 0.87375 0.0
C148 C 0.54214 0.41237 0.9089 0.0
H149 H 0.52025 0.41701 0.90175 0.0
H150 H 0.54647 0.43046 0.91955 0.0
H151 H 0.54018 0.39025 0.91626 0.0
C152 C 0.49122 0.32462 0.84702 0.0
N153 N 0.51091 0.32086 0.86151 0.0
N154 N 0.52349 0.34705 0.86569 0.0
C155 C 0.51218 0.36835 0.85384 0.0
C156 C 0.49132 0.35487 0.84163 0.0
C157 C 0.47549 0.29903 0.83712 0.0
H158 H 0.491 0.27938 0.8359 0.0
H159 H 0.45569 0.29198 0.84577 0.0
H160 H 0.46759 0.30563 0.82268 0.0
O161 O 0.56773 0.27687 0.86577 0.0
O162 O 0.58877 0.32067 0.87372 0.0
H163 H 0.54614 0.40207 0.84929 0.0
H164 H 0.50813 0.4147 0.84388 0.0
C165 C 0.52206 0.40075 0.85367 0.0
H166 H 0.52003 0.41024 0.86821 0.0
H167 H 0.60868 0.37743 0.86454 0.0
O168 O 0.50022 0.24994 0.86784 0.0
C169 C 0.59085 0.29398 0.86704 0.0
Co170 Co 0.21039 0.52824 0.3725 0.0
Co171 Co 0.14842 0.5571 0.38383 0.0
C172 C 0.18901 0.53302 0.4137 0.0
O173 O 0.20782 0.5264 0.40063 0.0
O174 O 0.16346 0.54474 0.40963 0.0
C175 C 0.24846 0.47802 0.37489 0.0
O176 O 0.22599 0.46859 0.38563 0.0
C177 C 0.08451 0.56655 0.39542 0.0
C178 C 0.07273 0.6054 0.37697 0.0
C179 C 0.06071 0.58539 0.39014 0.0
N180 N 0.10919 0.57476 0.38544 0.0
N181 N 0.10205 0.59829 0.3747 0.0
C182 C 0.08417 0.54171 0.40996 0.0
H183 H 0.08026 0.51968 0.40279 0.0
H184 H 0.06594 0.54545 0.4206 0.0
H185 H 0.1063 0.54047 0.41735 0.0
C186 C 0.17109 0.49407 0.3459 0.0
N187 N 0.17494 0.51326 0.36065 0.0
N188 N 0.14863 0.52493 0.36548 0.0
C189 C 0.12713 0.51347 0.35383 0.0
C190 C 0.14063 0.49351 0.34104 0.0
C191 C 0.19663 0.47947 0.33533 0.0
H192 H 0.21608 0.49527 0.33444 0.0
H193 H 0.20404 0.45904 0.34327 0.0
H194 H 0.18977 0.47264 0.32071 0.0
O195 O 0.21803 0.57073 0.36491 0.0
O196 O 0.17434 0.59038 0.37434 0.0
H197 H 0.09209 0.54634 0.35021 0.0
H198 H 0.08041 0.50795 0.34495 0.0
C199 C 0.09445 0.52227 0.35447 0.0
H200 H 0.08592 0.5198 0.36921 0.0
H201 H 0.11699 0.60895 0.36534 0.0
O202 O 0.24601 0.50327 0.36632 0.0
C203 C 0.20057 0.59339 0.3671 0.0
Co204 Co 0.9618 0.21079 0.87192 0.0
Co205 Co 0.93521 0.14807 0.88354 0.0
C206 C 0.95767 0.19002 0.9132 0.0
O207 O 0.96343 0.20891 0.90004 0.0
O208 O 0.94708 0.16395 0.90926 0.0
C209 C 0.01058 0.24971 0.87505 0.0
O210 O 0.01975 0.2271 0.88577 0.0
C211 C 0.93093 0.08369 0.89459 0.0
C212 C 0.88836 0.07083 0.88012 0.0
C213 C 0.91196 0.05927 0.89089 0.0
N214 N 0.91925 0.10831 0.88605 0.0
N215 N 0.89361 0.10052 0.87769 0.0
C216 C 0.95892 0.08414 0.90664 0.0
H217 H 0.97907 0.08021 0.89757 0.0
H218 H 0.95798 0.06617 0.9177 0.0
H219 H 0.96161 0.10655 0.91354 0.0
C220 C 0.99742 0.17244 0.84559 0.0
N221 N 0.97816 0.17562 0.86035 0.0
N222 N 0.96723 0.14893 0.86509 0.0
C223 C 0.97912 0.12786 0.85326 0.0
C224 C -0.00117 0.14205 0.84064 0.0
C225 C 0.01313 0.19835 0.83603 0.0
H226 H 0.99628 0.21586 0.83204 0.0
H227 H 0.02926 0.20872 0.84623 0.0
H228 H 0.0259 0.19109 0.82321 0.0
O229 O 0.9191 0.21682 0.86403 0.0
O230 O 0.90114 0.17245 0.87365 0.0
H231 H 0.94345 0.09499 0.8525 0.0
H232 H 0.97625 0.08459 0.83873 0.0
C233 C 0.96849 0.09573 0.85204 0.0
H234 H 0.97743 0.08283 0.86435 0.0
H235 H 0.88009 0.1153 0.8698 0.0
O236 O 0.98593 0.24704 0.86584 0.0
C237 C 0.89717 0.19841 0.86618 0.0
Co238 Co 0.28303 0.96609 0.37226 0.0
Co239 Co 0.34585 0.93929 0.38368 0.0
C240 C 0.30491 0.96266 0.41346 0.0
O241 O 0.28583 0.96837 0.40037 0.0
O242 O 0.33082 0.95169 0.40945 0.0
C243 C 0.24421 0.01576 0.37425 0.0
O244 O 0.26676 0.026 0.38463 0.0
C245 C 0.41012 0.93041 0.39504 0.0
C246 C 0.42185 0.89173 0.37643 0.0
C247 C 0.43388 0.91157 0.38969 0.0
N248 N 0.3854 0.92227 0.38506 0.0
N249 N 0.39254 0.89889 0.37419 0.0
C250 C 0.41054 0.95509 0.40968 0.0
H251 H 0.41518 0.97709 0.40265 0.0
H252 H 0.42841 0.95086 0.4205 0.0
H253 H 0.38823 0.95676 0.41681 0.0
C254 C 0.32132 0.00108 0.34546 0.0
N255 N 0.31802 0.98189 0.36026 0.0
N256 N 0.34468 0.97117 0.3652 0.0
C257 C 0.36586 0.98326 0.35358 0.0
C258 C 0.35178 0.00265 0.34069 0.0
C259 C 0.29539 0.0148 0.33478 0.0
H260 H 0.27625 -0.00141 0.33415 0.0
H261 H 0.28766 0.03536 0.34246 0.0
H262 H 0.30201 0.02126 0.32006 0.0
O263 O 0.27631 0.92335 0.36482 0.0
O264 O 0.3206 0.90537 0.37444 0.0
H265 H 0.40213 0.95177 0.34996 0.0
H266 H 0.41247 0.99065 0.34509 0.0
C267 C 0.39882 0.97564 0.3544 0.0
H268 H 0.40698 0.97809 0.36923 0.0
H269 H 0.37758 0.8883 0.36482 0.0
O270 O 0.24686 0.9902 0.3661 0.0
C271 C 0.29451 0.90133 0.36719 0.0
Co272 Co 0.46936 0.78523 0.87333 0.0
Co273 Co 0.4393 0.84736 0.88325 0.0
C274 C 0.46308 0.80792 0.91402 0.0
O275 O 0.47113 0.78883 0.90144 0.0
O276 O 0.45029 0.8327 0.90937 0.0
C277 C 0.51945 0.7465 0.87617 0.0
O278 O 0.52918 0.7687 0.88704 0.0
C279 C 0.42893 0.91149 0.89422 0.0
C280 C 0.39032 0.92242 0.87538 0.0
C281 C 0.4098 0.93491 0.88869 0.0
N282 N 0.42134 0.88654 0.88429 0.0
N283 N 0.39798 0.89319 0.87328 0.0
C284 C 0.45346 0.91245 0.90896 0.0
H285 H 0.47543 0.91741 0.90199 0.0
H286 H 0.44882 0.93032 0.9197 0.0
H287 H 0.45545 0.89021 0.91616 0.0
C288 C 0.50376 0.82406 0.84652 0.0
N289 N 0.48427 0.82048 0.86114 0.0
N290 N 0.47222 0.84683 0.86551 0.0
C291 C 0.48372 0.86808 0.8537 0.0
C292 C 0.50409 0.85438 0.84127 0.0
C293 C 0.51886 0.79833 0.83641 0.0
H294 H 0.50315 0.77881 0.83543 0.0
H295 H 0.53894 0.79112 0.84476 0.0
H296 H 0.52627 0.80487 0.82186 0.0
O297 O 0.42693 0.77694 0.86549 0.0
O298 O 0.40679 0.82125 0.87326 0.0
H299 H 0.45054 0.90255 0.84913 0.0
H300 H 0.48894 0.9146 0.84432 0.0
C301 C 0.47446 0.90066 0.85379 0.0
H302 H 0.47625 0.90969 0.86846 0.0
H303 H 0.38776 0.87796 0.86392 0.0
O304 O 0.49434 0.74947 0.86752 0.0
C305 C 0.40421 0.79458 0.86662 0.0
Co306 Co 0.70998 0.46604 0.37375 0.0
Co307 Co 0.64672 0.43928 0.38434 0.0
C308 C 0.68681 0.46249 0.41467 0.0
O309 O 0.70626 0.46834 0.40182 0.0
O310 O 0.66107 0.45142 0.41034 0.0
C311 C 0.74955 0.51523 0.37635 0.0
O312 O 0.72714 0.52563 0.38677 0.0
C313 C 0.58218 0.42984 0.39502 0.0
C314 C 0.5709 0.39209 0.37556 0.0
C315 C 0.55857 0.41117 0.38914 0.0
N316 N 0.60709 0.42232 0.38505 0.0
N317 N 0.60019 0.39952 0.37364 0.0
C318 C 0.58144 0.45379 0.41013 0.0
H319 H 0.57645 0.47603 0.4035 0.0
H320 H 0.56368 0.44878 0.42088 0.0
H321 H 0.60374 0.45547 0.41728 0.0
C322 C 0.67251 0.50121 0.34655 0.0
N323 N 0.67539 0.48194 0.36135 0.0
N324 N 0.64857 0.47134 0.36602 0.0
C325 C 0.6277 0.48363 0.35427 0.0
C326 C 0.64215 0.50296 0.34152 0.0
C327 C 0.69874 0.51488 0.33615 0.0
H328 H 0.71783 0.4986 0.33568 0.0
H329 H 0.70639 0.53536 0.34396 0.0
H330 H 0.6925 0.52146 0.32139 0.0
O331 O 0.71681 0.42326 0.36641 0.0
O332 O 0.6721 0.40535 0.37529 0.0
H333 H 0.59106 0.45278 0.35 0.0
H334 H 0.58124 0.49199 0.34584 0.0
C335 C 0.59465 0.47638 0.35491 0.0
H336 H 0.58645 0.47822 0.36977 0.0
H337 H 0.61535 0.38947 0.36416 0.0
O338 O 0.74651 0.48989 0.36798 0.0
C339 C 0.69844 0.40129 0.36843 0.0
Co340 Co 0.0327 0.70855 0.8716 0.0
Co341 Co 0.06074 0.64708 0.88433 0.0
C342 C 0.03656 0.6897 0.91317 0.0
O343 O 0.03033 0.70795 0.89973 0.0
O344 O 0.04803 0.66386 0.90963 0.0
C345 C 0.98381 0.74797 0.87335 0.0
O346 O 0.97407 0.72625 0.8846 0.0
C347 C 0.06513 0.58344 0.89659 0.0
C348 C 0.10851 0.57023 0.88328 0.0
C349 C 0.08441 0.55899 0.89373 0.0
N350 N 0.0771 0.60773 0.88784 0.0
N351 N 0.10323 0.59977 0.88019 0.0
C352 C 0.03649 0.58427 0.90799 0.0
H353 H 0.03343 0.6069 0.91454 0.0
H354 H 0.01685 0.58007 0.89852 0.0
H355 H 0.03679 0.56669 0.91931 0.0
C356 C -0.00157 0.66839 0.84563 0.0
N357 N 0.01737 0.67262 0.86045 0.0
N358 N 0.0291 0.64645 0.86556 0.0
C359 C 0.01812 0.62468 0.85389 0.0
C360 C -0.00186 0.63784 0.84099 0.0
C361 C 0.98204 0.6935 0.83568 0.0
H362 H -0.00145 0.71091 0.83099 0.0
H363 H 0.96622 0.70436 0.84586 0.0
H364 H 0.96887 0.68529 0.82325 0.0
O365 O 0.07547 0.715 0.86408 0.0
O366 O 0.09471 0.67165 0.8745 0.0
H367 H 0.05491 0.59303 0.85401 0.0
H368 H 0.02317 0.58138 0.83964 0.0
C369 C 0.0299 0.59292 0.85305 0.0
H370 H 0.02077 0.57984 0.86523 0.0
H371 H 0.11707 0.6143 0.87233 0.0
O372 O 0.0086 0.7443 0.86445 0.0
C373 C 0.09798 0.69747 0.86671 0.0
Co374 Co 0.78396 0.02841 0.37188 0.0
Co375 Co 0.84611 0.05746 0.38256 0.0
C376 C 0.80654 0.03285 0.41282 0.0
O377 O 0.78735 0.02618 0.39997 0.0
O378 O 0.83184 0.04486 0.40847 0.0
C379 C 0.74518 0.9785 0.37443 0.0
O380 O 0.76754 0.96854 0.38509 0.0
C381 C 0.91018 0.0674 0.39365 0.0
C382 C 0.92138 0.10608 0.37491 0.0
C383 C 0.93374 0.08637 0.38814 0.0
N384 N 0.8853 0.07527 0.38377 0.0
N385 N 0.89209 0.09869 0.37284 0.0
C386 C 0.91095 0.04277 0.40832 0.0
H387 H 0.91482 0.02067 0.40124 0.0
H388 H 0.92936 0.04675 0.4188 0.0
H389 H 0.88898 0.04152 0.41589 0.0
C390 C 0.82269 0.99426 0.34491 0.0
N391 N 0.81911 0.01357 0.35962 0.0
N392 N 0.8455 0.02533 0.36419 0.0
C393 C 0.86678 0.01381 0.35242 0.0
C394 C 0.85305 0.99371 0.3398 0.0
C395 C 0.79697 0.97937 0.33465 0.0
H396 H 0.77744 0.99507 0.33384 0.0
H397 H 0.78982 0.95905 0.34279 0.0
H398 H 0.80351 0.97234 0.32003 0.0
O399 O 0.77601 0.07095 0.36451 0.0
O400 O 0.81992 0.09072 0.37341 0.0
H401 H 0.90186 0.04652 0.34842 0.0
H402 H 0.91338 0.00803 0.34338 0.0
C403 C 0.89949 0.02254 0.35286 0.0
H404 H 0.90818 0.02033 0.36759 0.0
H405 H 0.87692 0.10911 0.36352 0.0
O406 O 0.74808 0.00373 0.3659 0.0
C407 C 0.79346 0.09367 0.36649 0.0
Co408 Co 0.46823 0.71088 0.1455 0.0
Co409 Co 0.43934 0.64816 0.13557 0.0
C410 C 0.46278 0.6877 0.10482 0.0
O411 O 0.47026 0.70704 0.1174 0.0
O412 O 0.45043 0.66269 0.10946 0.0
C413 C 0.51814 0.74959 0.14267 0.0
O414 O 0.52779 0.72719 0.13194 0.0
C415 C 0.42955 0.58384 0.12469 0.0
C416 C 0.39154 0.57247 0.1439 0.0
C417 C 0.41079 0.56021 0.13038 0.0
N418 N 0.42197 0.60869 0.13472 0.0
N419 N 0.399 0.60176 0.14597 0.0
C420 C 0.4537 0.5832 0.10971 0.0
H421 H 0.47583 0.57812 0.11645 0.0
H422 H 0.44881 0.56554 0.09887 0.0
H423 H 0.45551 0.60556 0.10266 0.0
C424 C 0.5031 0.67274 0.17248 0.0
N425 N 0.48356 0.67596 0.15785 0.0
N426 N 0.47208 0.64936 0.15345 0.0
C427 C 0.48402 0.62833 0.16523 0.0
C428 C 0.50408 0.64242 0.1777 0.0
C429 C 0.51771 0.69874 0.18262 0.0
H430 H 0.50176 0.71808 0.18342 0.0
H431 H 0.53787 0.7061 0.1744 0.0
H432 H 0.52494 0.69239 0.19724 0.0
O433 O 0.42559 0.71862 0.1531 0.0
O434 O 0.40632 0.67397 0.14523 0.0
H435 H 0.45183 0.59295 0.16983 0.0
H436 H 0.49061 0.58186 0.17431 0.0
C437 C 0.4756 0.59552 0.165 0.0
H438 H 0.47733 0.58675 0.15027 0.0
H439 H 0.38885 0.61687 0.15544 0.0
O440 O 0.49294 0.74692 0.15124 0.0
C441 C 0.40316 0.70062 0.1518 0.0
Co442 Co 0.78477 0.46413 0.64758 0.0
Co443 Co 0.84619 0.43617 0.63467 0.0
C444 C 0.80446 0.46101 0.60592 0.0
O445 O 0.78591 0.46635 0.61936 0.0
O446 O 0.83054 0.45011 0.60944 0.0
C447 C 0.74611 0.51358 0.64535 0.0
O448 O 0.76821 0.52282 0.63424 0.0
C449 C 0.91034 0.43046 0.62354 0.0
C450 C 0.92176 0.38655 0.63684 0.0
C451 C 0.93419 0.4106 0.62688 0.0
N452 N 0.88529 0.41888 0.63161 0.0
N453 N 0.89219 0.39241 0.63923 0.0
C454 C 0.91078 0.45927 0.61227 0.0
H455 H 0.88863 0.46283 0.6052 0.0
H456 H 0.91477 0.47873 0.62192 0.0
H457 H 0.92902 0.45873 0.60138 0.0
C458 C 0.82485 0.49781 0.67387 0.0
N459 N 0.82066 0.47909 0.65892 0.0
N460 N 0.84678 0.46716 0.65391 0.0
C461 C 0.86846 0.47776 0.66579 0.0
C462 C 0.85531 0.49773 0.6787 0.0
C463 C 0.79978 0.51442 0.68369 0.0
H464 H 0.78221 0.49804 0.68833 0.0
H465 H 0.78912 0.53027 0.67343 0.0
H466 H 0.80794 0.52759 0.69613 0.0
O467 O 0.77799 0.42145 0.65532 0.0
O468 O 0.82045 0.40234 0.64341 0.0
H469 H 0.89983 0.44071 0.66533 0.0
H470 H 0.91119 0.47159 0.6805 0.0
C471 C 0.90008 0.46567 0.6668 0.0
H472 H 0.91364 0.47538 0.65502 0.0
H473 H 0.8769 0.37876 0.64663 0.0
O474 O 0.74916 0.4888 0.65438 0.0
C475 C 0.79499 0.39893 0.65161 0.0
Co476 Co 0.03071 0.78545 0.14523 0.0
Co477 Co 0.05878 0.8481 0.13448 0.0
C478 C 0.03484 0.80811 0.10426 0.0
O479 O 0.0286 0.78882 0.11712 0.0
O480 O 0.04631 0.83369 0.10857 0.0
C481 C 0.98088 0.74687 0.14255 0.0
O482 O 0.97125 0.76946 0.13197 0.0
C483 C 0.06759 0.91245 0.12354 0.0
C484 C 0.10622 0.92418 0.14219 0.0
C485 C 0.08616 0.93632 0.12909 0.0
N486 N 0.076 0.8876 0.13329 0.0
N487 N 0.09939 0.89472 0.14416 0.0
C488 C 0.04286 0.91291 0.10893 0.0
H489 H 0.04188 0.89094 0.10133 0.0
H490 H 0.02076 0.91645 0.11606 0.0
H491 H 0.0465 0.93143 0.09847 0.0
C492 C 0.99608 0.82373 0.17219 0.0
N493 N 0.0154 0.82044 0.15747 0.0
N494 N 0.02674 0.84702 0.15289 0.0
C495 C 0.01493 0.86813 0.16468 0.0
C496 C 0.99507 0.85409 0.1773 0.0
C497 C 0.98163 0.79778 0.18247 0.0
H498 H -0.00242 0.77844 0.18321 0.0
H499 H 0.96132 0.7904 0.17441 0.0
H500 H 0.97467 0.80421 0.19713 0.0
O501 O 0.07333 0.77813 0.15268 0.0
O502 O 0.0924 0.82225 0.14355 0.0
H503 H 0.04718 0.90368 0.16859 0.0
H504 H 0.00861 0.91463 0.17384 0.0
C505 C 0.02319 0.90097 0.16427 0.0
H506 H 0.02064 0.9097 0.14957 0.0
H507 H 0.11016 0.87963 0.15338 0.0
O508 O 0.00613 0.74937 0.1511 0.0
C509 C 0.09578 0.79589 0.15055 0.0
Co510 Co 0.71246 0.0286 0.64637 0.0
Co511 Co 0.65058 0.05616 0.63391 0.0
C512 C 0.69185 0.03211 0.60478 0.0
O513 O 0.71064 0.02666 0.6181 0.0
O514 O 0.66576 0.04287 0.60848 0.0
C515 C 0.75107 0.97872 0.6446 0.0
O516 O 0.7289 0.9688 0.63377 0.0
C517 C 0.58668 0.06565 0.62213 0.0
C518 C 0.5752 0.10499 0.64023 0.0
C519 C 0.56304 0.08481 0.62722 0.0
N520 N 0.61142 0.07388 0.63205 0.0
N521 N 0.60445 0.0977 0.64258 0.0
C522 C 0.58615 0.0406 0.60773 0.0
H523 H 0.60838 0.03889 0.60049 0.0
H524 H 0.58176 0.01873 0.61498 0.0
H525 H 0.56813 0.04447 0.59697 0.0
C526 C 0.67295 0.99417 0.67263 0.0
N527 N 0.67695 0.01322 0.65784 0.0
N528 N 0.65066 0.02456 0.65268 0.0
C529 C 0.62899 0.01299 0.66416 0.0
C530 C 0.64238 0.9933 0.67717 0.0
C531 C 0.69839 0.98001 0.68356 0.0
H532 H 0.71767 0.99602 0.68451 0.0
H533 H 0.70617 0.9595 0.67585 0.0
H534 H 0.69127 0.97342 0.69816 0.0
O535 O 0.71923 0.07105 0.65438 0.0
O536 O 0.6765 0.0899 0.64273 0.0
H537 H 0.59346 0.04549 0.66715 0.0
H538 H 0.58211 0.00706 0.67257 0.0
C539 C 0.59623 0.02137 0.6631 0.0
H540 H 0.58814 0.01853 0.64829 0.0
H541 H 0.61949 0.10847 0.65184 0.0
O542 O 0.74817 0.00409 0.65295 0.0
C543 C 0.70201 0.09346 0.65085 0.0
H544 H 0.56812 0.16939 0.07442 0.0
H545 H 0.56694 0.19043 0.04202 0.0
H546 H 0.48892 0.24411 0.05699 0.0
H547 H 0.49094 0.22433 0.0895 0.0
H548 H 0.52895 0.19146 0.01339 0.0
H549 H 0.54347 0.30931 0.03835 0.0
H550 H 0.54693 0.27733 0.05417 0.0
H551 H 0.51018 0.29236 0.04828 0.0
C552 C 0.55054 0.18542 0.0707 0.0
C553 C 0.52985 0.19548 0.08454 0.0
C554 C 0.54994 0.19754 0.05221 0.0
C555 C 0.52845 0.21967 0.0472 0.0
C556 C 0.50647 0.22803 0.06067 0.0
H557 H 0.48964 0.27104 0.92983 0.0
H558 H 0.48808 0.25095 0.96228 0.0
C559 C 0.50743 0.21643 0.0792 0.0
C560 C 0.52921 0.23429 0.02804 0.0
H561 H 0.52955 0.3031 1.00568 0.0
C562 C 0.52925 0.21587 0.01172 0.0
C563 C 0.53032 0.26618 0.02578 0.0
C564 C 0.53307 0.28741 0.04258 0.0
C565 C 0.52971 0.22836 0.99327 0.0
C566 C 0.52895 0.26027 0.99102 0.0
C567 C 0.52958 0.27868 1.00734 0.0
C568 C 0.52802 0.27494 0.97187 0.0
C569 C 0.53181 0.20711 0.97645 0.0
C570 C 0.54961 0.29692 0.96679 0.0
C571 C 0.54995 0.30923 0.94835 0.0
C572 C 0.52889 0.29952 0.93463 0.0
C573 C 0.5064 0.27869 0.94004 0.0
C574 C 0.50571 0.26689 0.95853 0.0
H575 H 0.54202 0.18508 0.98059 0.0
H576 H 0.50872 0.20246 0.97095 0.0
H577 H 0.54553 0.21702 0.96474 0.0
H578 H 0.56687 0.3038 0.97687 0.0
H579 H 0.56761 0.32515 0.94458 0.0
H580 H 0.16092 0.55324 0.44643 0.0
H581 H 0.18052 0.55066 0.47918 0.0
H582 H 0.2586 0.50151 0.45918 0.0
H583 H 0.23916 0.5035 0.42668 0.0
H584 H 0.23556 0.47805 0.49265 0.0
H585 H 0.25155 0.6025 0.49801 0.0
H586 H 0.21369 0.59078 0.49227 0.0
H587 H 0.24384 0.58371 0.47565 0.0
C588 C 0.18208 0.54159 0.44905 0.0
C589 C 0.19857 0.52885 0.43386 0.0
C590 C 0.19339 0.54036 0.46774 0.0
C591 C 0.22135 0.52643 0.47156 0.0
C592 C 0.23711 0.51257 0.45657 0.0
H593 H 0.33514 0.55296 0.57228 0.0
H594 H 0.31607 0.54925 0.53944 0.0
C595 C 0.22591 0.5138 0.43795 0.0
C596 C 0.23477 0.52671 0.49102 0.0
H597 H 0.26181 0.57377 0.52579 0.0
C598 C 0.24127 0.49897 0.49991 0.0
C599 C 0.24281 0.55402 0.50031 0.0
C600 C 0.23792 0.58447 0.49105 0.0
C601 C 0.2551 0.4978 0.51796 0.0
C602 C 0.26227 0.52512 0.5275 0.0
C603 C 0.25622 0.55285 0.51848 0.0
C604 C 0.27502 0.52548 0.54713 0.0
C605 C 0.26232 0.46731 0.52653 0.0
C606 C 0.25839 0.51323 0.56231 0.0
C607 C 0.26919 0.51527 0.58099 0.0
C608 C 0.29685 0.5298 0.58499 0.0
C609 C 0.31386 0.54151 0.56971 0.0
C610 C 0.30292 0.53952 0.55095 0.0
H611 H 0.26358 0.44938 0.51544 0.0
H612 H 0.28411 0.4679 0.53442 0.0
H613 H 0.24417 0.46098 0.53672 0.0
H614 H 0.23657 0.5028 0.55978 0.0
H615 H 0.25542 0.506 0.59237 0.0
H616 H 0.98531 0.2415 0.92577 0.0
H617 H 0.9884 0.26067 0.95827 0.0
H618 H 0.94298 0.18076 0.97896 0.0
H619 H 0.93935 0.16136 0.94618 0.0
H620 H 0.91817 0.23473 0.99272 0.0
H621 H 0.04265 0.2345 1.0023 0.0
H622 H 0.03054 0.25381 0.9811 0.0
H623 H 0.02412 0.21377 0.98342 0.0
C624 C 0.97621 0.22772 0.93719 0.0
C625 C 0.96202 0.19982 0.93331 0.0
C626 C 0.97819 0.23871 0.95583 0.0
C627 C 0.96625 0.22204 0.97109 0.0
C628 C 0.95248 0.19394 0.96738 0.0
H629 H 0.98949 0.2583 0.09137 0.0
H630 H 0.9912 0.23885 0.05887 0.0
C631 C 0.95053 0.18283 0.94866 0.0
C632 C 0.96676 0.23487 0.9907 0.0
H633 H 0.01404 0.2623 0.02521 0.0
C634 C 0.93912 0.24061 0.99988 0.0
C635 C 0.99413 0.24242 1.00006 0.0
C636 C 0.02456 0.23557 0.99131 0.0
C637 C 0.93809 0.25408 0.01805 0.0
C638 C 0.96542 0.26248 0.02715 0.0
C639 C 0.99308 0.25631 0.01809 0.0
C640 C 0.96586 0.27593 0.0466 0.0
C641 C 0.90775 0.25865 0.0275 0.0
C642 C 0.95179 0.30381 0.05048 0.0
C643 C 0.95074 0.31514 0.06918 0.0
C644 C 0.96378 0.29873 0.0843 0.0
C645 C 0.97896 0.27147 0.08014 0.0
C646 C 0.98003 0.26027 0.06153 0.0
H647 H 0.88975 0.24486 0.02063 0.0
H648 H 0.90882 0.25267 0.04287 0.0
H649 H 0.90119 0.28283 0.02635 0.0
H650 H 0.94124 0.31659 0.03909 0.0
H651 H 0.93898 0.33622 0.07185 0.0
H652 H 0.33398 0.94449 0.44635 0.0
H653 H 0.31465 0.94758 0.47914 0.0
H654 H 0.23467 0.99321 0.45877 0.0
H655 H 0.25383 0.99072 0.42624 0.0
H656 H 0.25719 0.01876 0.49171 0.0
H657 H 0.24578 0.89409 0.49915 0.0
H658 H 0.28313 0.90689 0.49307 0.0
H659 H 0.25258 0.91221 0.47647 0.0
C660 C 0.31245 0.95547 0.44889 0.0
C661 C 0.29537 0.96707 0.4336 0.0
C662 C 0.3013 0.95699 0.46761 0.0
C663 C 0.27291 0.97007 0.47135 0.0
C664 C 0.25651 0.98281 0.45623 0.0
H665 H 0.16172 0.94312 0.57309 0.0
H666 H 0.18013 0.94629 0.54009 0.0
C667 C 0.26754 0.9813 0.43759 0.0
C668 C 0.25974 0.9701 0.49087 0.0
H669 H 0.23488 0.92355 0.52652 0.0
C670 C 0.25234 -0.00205 0.49934 0.0
C671 C 0.25282 0.94292 0.50063 0.0
C672 C 0.25869 0.91229 0.49184 0.0
C673 C 0.23869 -0.00063 0.51743 0.0
C674 C 0.23265 0.97221 0.52745 0.0
C675 C 0.2396 0.94435 0.51885 0.0
C676 C 0.22018 0.97219 0.54714 0.0
C677 C 0.23044 0.02992 0.52552 0.0
C678 C 0.23646 0.98583 0.562 0.0
C679 C 0.22601 0.98413 0.58078 0.0
C680 C 0.1991 0.96853 0.58518 0.0
C681 C 0.18242 0.95542 0.57021 0.0
C682 C 0.19298 0.9571 0.55136 0.0
H683 H 0.22825 0.04727 0.51412 0.0
H684 H 0.20885 0.02885 0.53359 0.0
H685 H 0.24853 0.03743 0.53543 0.0
H686 H 0.25776 0.99709 0.55918 0.0
H687 H 0.23953 0.99448 0.59191 0.0
H688 H 0.50582 0.77096 0.92945 0.0
H689 H 0.5078 0.75111 0.96196 0.0
H690 H 0.42903 0.80386 0.97671 0.0
H691 H 0.42792 0.82501 0.94436 0.0
H692 H 0.46644 0.80347 1.00537 0.0
H693 H 0.4545 0.68519 0.98068 0.0
H694 H 0.48766 0.70264 0.97094 0.0
H695 H 0.45076 0.71696 0.96473 0.0
C696 C 0.48915 0.77863 0.9397 0.0
C697 C 0.46657 0.79937 0.93433 0.0
C698 C 0.49008 0.76697 0.95823 0.0
C699 C 0.46791 0.77507 0.97165 0.0
C700 C 0.4462 0.79695 0.96658 0.0
H701 H 0.42848 0.66972 0.07427 0.0
H702 H 0.42969 0.69074 0.04188 0.0
C703 C 0.44564 0.80913 0.94811 0.0
C704 C 0.46721 0.76054 0.99084 0.0
H705 H 0.46766 0.69191 0.01343 0.0
C706 C 0.46654 0.77907 1.00711 0.0
C707 C 0.46664 0.72864 0.9932 0.0
C708 C 0.46458 0.70723 0.97645 0.0
C709 C 0.4659 0.76672 0.02559 0.0
C710 C 0.46716 0.73485 0.02796 0.0
C711 C 0.46723 0.7163 0.01169 0.0
C712 C 0.46788 0.72036 0.04716 0.0
C713 C 0.46302 0.78807 0.04232 0.0
C714 C 0.48967 0.72896 0.06071 0.0
C715 C 0.48867 0.71737 0.07925 0.0
C716 C 0.46643 0.69619 0.08451 0.0
C717 C 0.44593 0.68593 0.07061 0.0
C718 C 0.44655 0.69805 0.05212 0.0
H719 H 0.45252 0.80988 0.03801 0.0
H720 H 0.4492 0.77801 0.05393 0.0
H721 H 0.48589 0.79319 0.04802 0.0
H722 H 0.50711 0.74518 0.05708 0.0
H723 H 0.50502 0.72543 0.0896 0.0
H724 H 0.73664 0.49202 0.42809 0.0
H725 H 0.75516 0.49429 0.46079 0.0
H726 H 0.67637 0.44559 0.48012 0.0
H727 H 0.65765 0.44278 0.44716 0.0
H728 H 0.7309 0.51799 0.49419 0.0
H729 H 0.74727 0.39351 0.49936 0.0
H730 H 0.74024 0.41243 0.47697 0.0
H731 H 0.70961 0.40535 0.49322 0.0
C732 C 0.72303 0.4819 0.43926 0.0
C733 C 0.69575 0.46689 0.43492 0.0
C734 C 0.7337 0.4833 0.45799 0.0
C735 C 0.71747 0.46964 0.47285 0.0
C736 C 0.68956 0.45578 0.46878 0.0
H737 H 0.75277 0.48907 0.59397 0.0
H738 H 0.73288 0.49248 0.56161 0.0
C739 C 0.67877 0.4544 0.44997 0.0
C740 C 0.73047 0.46933 0.49241 0.0
H741 H 0.75779 0.42221 0.52704 0.0
C742 C 0.7367 0.49705 0.50141 0.0
C743 C 0.7386 0.44201 0.50164 0.0
C744 C 0.73388 0.4116 0.49229 0.0
C745 C 0.7505 0.49818 0.51948 0.0
C746 C 0.75794 0.47085 0.5289 0.0
C747 C 0.75201 0.44314 0.51982 0.0
C748 C 0.77119 0.47041 0.54839 0.0
C749 C 0.75749 0.52865 0.52816 0.0
C750 C 0.79937 0.45668 0.5518 0.0
C751 C 0.8109 0.45457 0.5704 0.0
C752 C 0.79424 0.46587 0.58595 0.0
C753 C 0.76629 0.48012 0.58237 0.0
C754 C 0.75488 0.48227 0.56383 0.0
H755 H 0.75819 0.54678 0.51718 0.0
H756 H 0.73954 0.53454 0.53859 0.0
H757 H 0.77949 0.52825 0.53581 0.0
H758 H 0.81228 0.44726 0.54007 0.0
H759 H 0.8324 0.44335 0.57263 0.0
H760 H 0.05474 0.83721 0.07182 0.0
H761 H 0.05148 0.81881 0.03881 0.0
H762 H 0.00266 0.74003 0.05807 0.0
H763 H 0.00538 0.75823 0.09081 0.0
H764 H 0.07527 0.76457 0.02512 0.0
H765 H 0.95139 0.76834 0.01319 0.0
H766 H 0.96955 0.78821 0.03259 0.0
H767 H 0.96182 0.74834 0.0345 0.0
C768 C 0.04285 0.81625 0.06897 0.0
C769 C 0.03036 0.79923 0.084 0.0
C770 C 0.04111 0.8057 0.05012 0.0
C771 C 0.02656 0.77818 0.04594 0.0
C772 C 0.01349 0.76157 0.06086 0.0
H773 H 0.05545 0.66243 0.94647 0.0
H774 H 0.0523 0.68311 0.97892 0.0
C775 C 0.01526 0.77199 0.07964 0.0
C776 C 0.02661 0.76568 0.02625 0.0
H777 H 0.98027 0.73952 0.99085 0.0
C778 C 0.05451 0.75928 0.01757 0.0
C779 C -0.0005 0.75891 0.01636 0.0
C780 C 0.96887 0.76656 0.02454 0.0
C781 C 0.05605 0.7458 0.99942 0.0
C782 C 0.02894 0.73804 0.98983 0.0
C783 C 0.00104 0.74501 0.99835 0.0
C784 C 0.02909 0.72416 0.97051 0.0
C785 C 0.08669 0.74043 0.99055 0.0
C786 C 0.01601 0.73973 0.95516 0.0
C787 C 0.01757 0.72792 0.9367 0.0
C788 C 0.03217 0.70014 0.93314 0.0
C789 C 0.04416 0.68391 0.94867 0.0
C790 C 0.04261 0.69582 0.9672 0.0
H791 H 0.10464 0.754 0.99763 0.0
H792 H 0.09271 0.71616 0.99201 0.0
H793 H 0.08643 0.74612 0.97511 0.0
H794 H 0.00527 0.7615 0.95738 0.0
H795 H 0.00786 0.741 0.92514 0.0
H796 H 0.75735 0.00237 0.42636 0.0
H797 H 0.7391 -0.00024 0.45912 0.0
H798 H 0.81701 0.05011 0.47822 0.0
H799 H 0.83543 0.05326 0.44522 0.0
H800 H 0.76412 0.97661 0.49246 0.0
H801 H 0.74524 0.10071 0.49768 0.0
H802 H 0.75247 0.08192 0.47527 0.0
H803 H 0.7831 0.08972 0.4914 0.0
C804 C 0.77082 0.01278 0.43749 0.0
C805 C 0.79775 0.02835 0.43309 0.0
C806 C 0.76031 0.0112 0.45625 0.0
C807 C 0.77636 0.02521 0.47107 0.0
C808 C 0.80395 0.03965 0.46692 0.0
H809 H 0.74378 0.005 0.59237 0.0
H810 H 0.763 0.00198 0.55985 0.0
C811 C 0.81457 0.04122 0.44809 0.0
C812 C 0.76355 0.02526 0.49067 0.0
H813 H 0.73597 0.07186 0.52549 0.0
C814 C 0.75803 0.99743 0.49971 0.0
C815 C 0.75504 0.05242 0.49995 0.0
C816 C 0.75897 0.08291 0.49056 0.0
C817 C 0.74461 0.99604 0.51788 0.0
C818 C 0.73684 0.02323 0.52736 0.0
C819 C 0.74202 0.05104 0.51823 0.0
C820 C 0.72403 0.02343 0.54697 0.0
C821 C 0.73838 0.96544 0.52661 0.0
C822 C 0.69571 0.03669 0.55062 0.0
C823 C 0.68458 0.03858 0.56932 0.0
C824 C 0.70176 0.02752 0.58472 0.0
C825 C 0.72986 0.01375 0.5809 0.0
C826 C 0.74088 0.01182 0.56226 0.0
H827 H 0.73772 0.94732 0.51562 0.0
H828 H 0.7567 0.95986 0.53685 0.0
H829 H 0.71657 0.96544 0.53447 0.0
H830 H 0.68238 0.04591 0.53902 0.0
H831 H 0.66294 0.04943 0.57174 0.0
H832 H 0.56545 0.76654 0.11998 0.0
H833 H 0.58642 0.81746 0.11625 0.0
H834 H 0.52693 0.85029 0.16041 0.0
H835 H 0.50587 0.79953 0.1643 0.0
H836 H 0.55012 0.86782 0.1057 0.0
H837 H 0.60995 0.88751 0.17414 0.0
H838 H 0.60041 0.85008 0.16563 0.0
H839 H 0.57219 0.87316 0.17702 0.0
C840 C 0.55726 0.78445 0.12919 0.0
C841 C 0.5339 0.77906 0.14239 0.0
C842 C 0.56923 0.81351 0.12699 0.0
C843 C 0.55834 0.83749 0.13814 0.0
C844 C 0.53594 0.83194 0.15188 0.0
H845 H 0.53542 0.02567 0.12472 0.0
H846 H 0.53279 0.97067 0.1229 0.0
C847 C 0.52383 0.80296 0.15401 0.0
C848 C 0.56815 0.86886 0.13427 0.0
H849 H 0.59741 0.93157 0.15578 0.0
C850 C 0.56092 0.88168 0.11652 0.0
C851 C 0.58249 0.8867 0.14834 0.0
C852 C 0.592 0.87362 0.1673 0.0
C853 C 0.56623 0.91243 0.11283 0.0
C854 C 0.57883 0.9307 0.12734 0.0
C855 C 0.58754 0.9175 0.14472 0.0
C856 C 0.58113 0.96393 0.12542 0.0
C857 C 0.55784 0.92522 0.09359 0.0
C858 C 0.60921 0.97836 0.1273 0.0
C859 C 0.61081 0.0099 0.12813 0.0
C860 C 0.58435 0.02751 0.12715 0.0
C861 C 0.55634 0.01297 0.12472 0.0
C862 C 0.55477 0.98144 0.12383 0.0
H863 H 0.55685 0.90726 0.0825 0.0
H864 H 0.53514 0.93585 0.09452 0.0
H865 H 0.57426 0.94281 0.08901 0.0
H866 H 0.62976 0.96519 0.12873 0.0
H867 H 0.63268 0.0205 0.13018 0.0
H868 H 0.72922 0.56044 0.62233 0.0
H869 H 0.67816 0.58039 0.6177 0.0
H870 H 0.64476 0.52102 0.66177 0.0
H871 H 0.69574 0.50089 0.66654 0.0
H872 H 0.62874 0.54219 0.60678 0.0
H873 H 0.60604 0.60441 0.67408 0.0
H874 H 0.64385 0.59542 0.66607 0.0
H875 H 0.62104 0.56697 0.67742 0.0
C876 C 0.71116 0.55206 0.63133 0.0
C877 C 0.71648 0.52898 0.64475 0.0
C878 C 0.68201 0.56344 0.62861 0.0
C879 C 0.65783 0.55225 0.63944 0.0
C880 C 0.66327 0.53021 0.65345 0.0
H881 H 0.46912 0.53188 0.62329 0.0
H882 H 0.52405 0.52742 0.62233 0.0
C883 C 0.69237 0.51867 0.65611 0.0
C884 C 0.62652 0.56148 0.63499 0.0
H885 H 0.56316 0.59221 0.65478 0.0
C886 C 0.61446 0.55351 0.61715 0.0
C887 C 0.60816 0.57645 0.6485 0.0
C888 C 0.62044 0.5866 0.66754 0.0
C889 C 0.58397 0.55896 0.61278 0.0
C890 C 0.56521 0.57249 0.62668 0.0
C891 C 0.57763 0.58168 0.64419 0.0
C892 C 0.53223 0.57565 0.62393 0.0
C893 C 0.57198 0.54986 0.59345 0.0
C894 C 0.51866 0.60428 0.62489 0.0
C895 C 0.4872 0.60691 0.62523 0.0
C896 C 0.46881 0.58096 0.62468 0.0
C897 C 0.48248 0.55237 0.62299 0.0
C898 C 0.51396 0.54976 0.62259 0.0
H899 H 0.59048 0.54762 0.58281 0.0
H900 H 0.56049 0.52761 0.59466 0.0
H901 H 0.55525 0.5666 0.58812 0.0
H902 H 0.53243 0.62449 0.62608 0.0
H903 H 0.47726 0.62921 0.6267 0.0
H904 H 0.86299 0.47789 0.12707 0.0
H905 H 0.86728 0.53313 0.12601 0.0
H906 H 0.96424 0.52541 0.12128 0.0
H907 H 0.96024 0.47047 0.12273 0.0
H908 H 0.90009 0.5652 0.1539 0.0
H909 H 0.94248 0.59036 0.08113 0.0
H910 H 0.92389 0.55518 0.08712 0.0
H911 H 0.96305 0.56085 0.09307 0.0
C912 C 0.88516 0.48799 0.12532 0.0
C913 C 0.91122 0.46977 0.12457 0.0
C914 C 0.88755 0.51949 0.12473 0.0
C915 C 0.91602 0.53327 0.12331 0.0
C916 C 0.94199 0.51516 0.12187 0.0
H917 H 0.99321 0.6964 0.1637 0.0
H918 H 0.97205 0.64575 0.15936 0.0
C919 C 0.93964 0.48365 0.12254 0.0
C920 C 0.91905 0.56638 0.12557 0.0
H921 H 0.94912 0.62923 0.10465 0.0
C922 C 0.91036 0.57934 0.14302 0.0
C923 C 0.93222 0.58473 0.11131 0.0
C924 C 0.9407 0.57217 0.09202 0.0
C925 C 0.91588 0.60997 0.14694 0.0
C926 C 0.93065 0.62788 0.1331 0.0
C927 C 0.93797 0.61531 0.11529 0.0
C928 C 0.94062 0.65911 0.13722 0.0
C929 C 0.90637 0.62281 0.16596 0.0
C930 C 0.92972 0.68336 0.12631 0.0
C931 C 0.94171 0.71235 0.12879 0.0
C932 C 0.96511 0.71741 0.14202 0.0
C933 C 0.9752 0.69323 0.1534 0.0
C934 C 0.96306 0.66431 0.151 0.0
H935 H 0.8884 0.60887 0.17273 0.0
H936 H 0.92617 0.62316 0.1757 0.0
H937 H 0.89798 0.64638 0.16439 0.0
H938 H 0.91248 0.67968 0.11556 0.0
H939 H 0.93349 0.73048 0.11976 0.0
H940 H 0.80113 0.99255 0.66573 0.0
H941 H 0.85239 0.97308 0.66119 0.0
H942 H 0.81983 0.9115 0.61808 0.0
H943 H 0.7684 0.93084 0.62245 0.0
H944 H 0.87736 0.91107 0.66195 0.0
H945 H 0.88345 0.96834 0.59117 0.0
H946 H 0.85516 0.97793 0.60875 0.0
H947 H 0.85189 0.94347 0.59536 0.0
C948 C 0.80474 0.97451 0.6555 0.0
C949 C 0.78079 0.96349 0.64428 0.0
C950 C 0.83402 0.96341 0.65295 0.0
C951 C 0.8398 0.94126 0.63911 0.0
C952 C 0.81574 0.9289 0.62867 0.0
H953 H 0.02202 0.86648 0.62363 0.0
H954 H 0.96671 0.87057 0.6238 0.0
C955 C 0.78639 0.93989 0.63126 0.0
C956 C 0.87135 0.93285 0.63476 0.0
H957 H 0.92743 0.9438 0.60199 0.0
C958 C 0.88828 0.91779 0.64875 0.0
C959 C 0.88539 0.94204 0.61758 0.0
C960 C 0.86822 0.95902 0.60234 0.0
C961 C 0.91923 0.91218 0.64616 0.0
C962 C 0.93338 0.92179 0.62911 0.0
C963 C 0.91632 0.9363 0.61495 0.0
C964 C 0.9664 0.91932 0.62653 0.0
C965 C 0.9369 0.89716 0.66198 0.0
C966 C 0.98429 0.94549 0.62737 0.0
C967 C 0.01578 0.94325 0.6273 0.0
C968 C 0.02984 0.91479 0.62614 0.0
C969 C 0.01177 0.88872 0.62445 0.0
C970 C 0.98026 0.89097 0.62459 0.0
H971 H 0.92346 0.89503 0.67531 0.0
H972 H 0.9438 0.87414 0.65737 0.0
H973 H 0.9578 0.91021 0.66515 0.0
H974 H 0.97387 0.96754 0.62903 0.0
H975 H 0.02886 0.96367 0.62933 0.0
H976 H 0.50544 0.69622 0.8553 0.0
H977 H 0.52519 0.64506 0.85974 0.0
H978 H 0.58725 0.67796 0.90247 0.0
H979 H 0.56752 0.7293 0.89824 0.0
H980 H 0.58567 0.62037 0.85787 0.0
H981 H 0.53386 0.61362 0.93023 0.0
H982 H 0.52345 0.64244 0.91318 0.0
H983 H 0.55876 0.64504 0.92572 0.0
C984 C 0.52359 0.6927 0.86545 0.0
C985 C 0.53466 0.71674 0.87658 0.0
C986 C 0.53485 0.66347 0.86795 0.0
C987 C 0.55726 0.65777 0.88166 0.0
C988 C 0.56961 0.68193 0.89203 0.0
H989 H 0.63254 0.47462 0.89204 0.0
H990 H 0.62917 0.53 0.89274 0.0
C991 C 0.55841 0.71124 0.8895 0.0
C992 C 0.56617 0.62623 0.88575 0.0
H993 H 0.55809 0.5699 0.91873 0.0
C994 C 0.58007 0.60937 0.87125 0.0
C995 C 0.55845 0.61205 0.90318 0.0
C996 C 0.54262 0.62904 0.91898 0.0
C997 C 0.58584 0.57837 0.87355 0.0
C998 C 0.57774 0.56409 0.89089 0.0
C999 C 0.56448 0.5811 0.90555 0.0
C1000 C 0.58026 0.53097 0.89326 0.0
C1001 C 0.59926 0.56084 0.85711 0.0
C1002 C 0.55389 0.51336 0.89412 0.0
C1003 C 0.55573 0.48183 0.89379 0.0
C1004 C 0.58403 0.46743 0.89281 0.0
C1005 C 0.61045 0.48516 0.89288 0.0
C1006 C 0.60858 0.51672 0.89321 0.0
H1007 H 0.59943 0.57419 0.84368 0.0
H1008 H 0.62295 0.5546 0.8606 0.0
H1009 H 0.5864 0.53959 0.85464 0.0
H1010 H 0.53182 0.52404 0.89404 0.0
H1011 H 0.53494 0.46897 0.89308 0.0
H1012 H 0.80029 0.50003 0.35629 0.0
H1013 H 0.85144 0.51971 0.36095 0.0
H1014 H 0.81789 0.58341 0.40249 0.0
H1015 H 0.76657 0.56381 0.39802 0.0
H1016 H 0.87588 0.58073 0.35845 0.0
H1017 H 0.88198 0.53058 0.43131 0.0
H1018 H 0.85363 0.5194 0.41414 0.0
H1019 H 0.85037 0.55499 0.4263 0.0
C1020 C 0.80368 0.51851 0.36623 0.0
C1021 C 0.77945 0.53014 0.37694 0.0
C1022 C 0.8329 0.52972 0.36886 0.0
C1023 C 0.83838 0.55261 0.38228 0.0
C1024 C 0.81407 0.56541 0.39227 0.0
H1025 H 0.01984 0.63093 0.39347 0.0
H1026 H 0.96457 0.62636 0.39402 0.0
C1027 C 0.78478 0.55428 0.3896 0.0
C1028 C 0.86982 0.56174 0.38645 0.0
H1029 H 0.92566 0.55502 0.41987 0.0
C1030 C 0.88673 0.57552 0.37194 0.0
C1031 C 0.88379 0.55452 0.40403 0.0
C1032 C 0.86669 0.53887 0.41986 0.0
C1033 C 0.91759 0.58176 0.37441 0.0
C1034 C 0.93167 0.57421 0.39191 0.0
C1035 C 0.91461 0.56098 0.40656 0.0
C1036 C 0.96465 0.57741 0.39452 0.0
C1037 C 0.93522 0.59515 0.35801 0.0
C1038 C 0.9828 0.55141 0.39541 0.0
C1039 C 0.01427 0.55393 0.39515 0.0
C1040 C 0.02806 0.58255 0.39419 0.0
C1041 C 0.00977 0.6086 0.39429 0.0
C1042 C 0.97828 0.60605 0.39454 0.0
H1043 H 0.92208 0.59497 0.34448 0.0
H1044 H 0.94115 0.61896 0.36139 0.0
H1045 H 0.95663 0.58248 0.35575 0.0
H1046 H 0.97259 0.52911 0.39527 0.0
H1047 H 0.02756 0.53341 0.39442 0.0
H1048 H 0.96565 0.02818 0.89008 0.0
H1049 H 0.97223 0.97339 0.88989 0.0
H1050 H 0.87608 0.96138 0.89695 0.0
H1051 H 0.86928 0.01643 0.89757 0.0
H1052 H 0.95237 0.92493 0.91661 0.0
H1053 H 0.8996 0.92111 0.84442 0.0
H1054 H 0.9136 0.95579 0.85483 0.0
H1055 H 0.87859 0.93981 0.86299 0.0
C1056 C 0.94603 0.01404 0.89241 0.0
C1057 C 0.91697 0.02665 0.89416 0.0
C1058 C 0.9498 0.98268 0.89206 0.0
C1059 C 0.9246 0.96352 0.89323 0.0
C1060 C 0.89574 0.97593 0.89588 0.0
H1061 H 0.93707 0.76623 0.89606 0.0
H1062 H 0.91898 0.81802 0.90073 0.0
C1063 C 0.89194 0.00729 0.89629 0.0
C1064 C 0.92841 0.93073 0.89014 0.0
H1065 H 0.91686 0.87495 0.85721 0.0
C1066 C 0.94436 0.91385 0.90375 0.0
C1067 C 0.91817 0.91666 0.8732 0.0
C1068 C 0.90169 0.93419 0.8579 0.0
C1069 C 0.95061 0.8831 0.90077 0.0
C1070 C 0.94049 0.86907 0.88379 0.0
C1071 C 0.92429 0.88587 0.87026 0.0
C1072 C 0.94839 0.83744 0.87934 0.0
C1073 C 0.96885 0.86602 0.91546 0.0
C1074 C 0.96996 0.83128 0.86521 0.0
C1075 C 0.98039 0.80177 0.86248 0.0
C1076 C 0.96923 0.77801 0.87382 0.0
C1077 C 0.9462 0.78406 0.88714 0.0
C1078 C 0.93592 0.8136 0.88991 0.0
H1079 H 0.97874 0.88129 0.92641 0.0
H1080 H 0.95402 0.84941 0.92279 0.0
H1081 H 0.98744 0.85325 0.90848 0.0
H1082 H 0.97968 0.8495 0.85686 0.0
H1083 H -0.00198 0.79781 0.85204 0.0
H1084 H 0.46749 0.96321 0.39416 0.0
H1085 H 0.52254 0.96694 0.39485 0.0
H1086 H 0.5295 0.8696 0.39364 0.0
H1087 H 0.47421 0.86563 0.39318 0.0
H1088 H 0.56964 0.94099 0.419 0.0
H1089 H 0.57142 0.89988 0.34386 0.0
H1090 H 0.53718 0.91265 0.35535 0.0
H1091 H 0.55258 0.87613 0.36098 0.0
C1092 C 0.48059 0.94257 0.39485 0.0
C1093 C 0.46651 0.91409 0.39387 0.0
C1094 C 0.5121 0.94475 0.39504 0.0
C1095 C 0.52995 0.91855 0.39407 0.0
C1096 C 0.51602 0.89006 0.39418 0.0
H1097 H 0.7282 0.93042 0.39656 0.0
H1098 H 0.67682 0.91122 0.40138 0.0
C1099 C 0.48451 0.88785 0.39399 0.0
C1100 C 0.56293 0.92135 0.39123 0.0
H1101 H 0.61808 0.91342 0.3575 0.0
C1102 C 0.5804 0.93463 0.40568 0.0
C1103 C 0.57662 0.9133 0.3737 0.0
C1104 C 0.55856 0.89989 0.35748 0.0
C1105 C 0.61126 0.94063 0.40292 0.0
C1106 C 0.62486 0.93287 0.38531 0.0
C1107 C 0.60752 0.91904 0.37102 0.0
C1108 C 0.65633 0.94153 0.38088 0.0
C1109 C 0.62879 0.9564 0.41851 0.0
C1110 C 0.66183 0.96393 0.36713 0.0
C1111 C 0.69109 0.9749 0.36429 0.0
C1112 C 0.71533 0.96352 0.37511 0.0
C1113 C 0.70998 0.93976 0.38806 0.0
C1114 C 0.68066 0.92887 0.39093 0.0
H1115 H 0.61376 0.96524 0.42994 0.0
H1116 H 0.6449 0.94018 0.42506 0.0
H1117 H 0.6421 0.97551 0.41255 0.0
H1118 H 0.64329 0.97382 0.35917 0.0
H1119 H 0.69449 0.99307 0.35413 0.0
H1120 H 0.42734 0.22954 0.89878 0.0
H1121 H 0.40773 0.17814 0.90296 0.0
H1122 H 0.46942 0.1456 0.85994 0.0
H1123 H 0.48902 0.19681 0.85553 0.0
H1124 H 0.40932 0.12063 0.85819 0.0
H1125 H 0.46129 0.11394 0.93051 0.0
H1126 H 0.43613 0.14518 0.92611 0.0
H1127 H 0.47142 0.14294 0.91352 0.0
C1128 C 0.43639 0.21154 0.88997 0.0
C1129 C 0.46 0.21716 0.87698 0.0
C1130 C 0.42526 0.1822 0.89247 0.0
C1131 C 0.43756 0.15812 0.88201 0.0
C1132 C 0.4598 0.16394 0.86822 0.0
H1133 H 0.4608 0.96937 0.89338 0.0
H1134 H 0.46366 0.02446 0.89449 0.0
C1135 C 0.47098 0.19321 0.86574 0.0
C1136 C 0.42879 0.12652 0.88607 0.0
H1137 H 0.43718 0.07015 0.91899 0.0
C1138 C 0.41498 0.10962 0.87156 0.0
C1139 C 0.4366 0.11233 0.90349 0.0
C1140 C 0.45237 0.12935 0.91931 0.0
C1141 C 0.4094 0.07858 0.87381 0.0
C1142 C 0.41757 0.0643 0.89114 0.0
C1143 C 0.43073 0.08135 0.90583 0.0
C1144 C 0.4152 0.03116 0.89349 0.0
C1145 C 0.39611 0.06103 0.85733 0.0
C1146 C 0.38694 0.01677 0.89328 0.0
C1147 C 0.38523 0.98521 0.89285 0.0
C1148 C 0.41173 0.96762 0.89283 0.0
C1149 C 0.43995 0.98213 0.89402 0.0
C1150 C 0.44164 0.01368 0.89444 0.0
H1151 H 0.39601 0.07438 0.8439 0.0
H1152 H 0.40901 0.0398 0.85489 0.0
H1153 H 0.37241 0.05476 0.86074 0.0
H1154 H 0.36629 0.02995 0.89275 0.0
H1155 H 0.3632 0.97457 0.89186 0.0
H1156 H 0.29873 0.49014 0.35356 0.0
H1157 H 0.34948 0.46941 0.35807 0.0
H1158 H 0.31589 0.41024 0.40219 0.0
H1159 H 0.26499 0.43086 0.39783 0.0
H1160 H 0.36566 0.44742 0.41307 0.0
H1161 H 0.38764 0.38628 0.34535 0.0
H1162 H 0.373 0.42386 0.34206 0.0
H1163 H 0.34993 0.39559 0.35341 0.0
C1164 C 0.30199 0.47228 0.36395 0.0
C1165 C 0.27789 0.46224 0.3754 0.0
C1166 C 0.33097 0.46038 0.36645 0.0
C1167 C 0.3363 0.43821 0.38038 0.0
C1168 C 0.31211 0.42727 0.39132 0.0
H1169 H 0.51889 0.36446 0.39084 0.0
H1170 H 0.46361 0.36747 0.39195 0.0
C1171 C 0.28306 0.43903 0.38875 0.0
C1172 C 0.3676 0.42873 0.38468 0.0
H1173 H 0.43101 0.39928 0.36418 0.0
C1174 C 0.37987 0.43644 0.40252 0.0
C1175 C 0.3859 0.41418 0.37095 0.0
C1176 C 0.37342 0.40421 0.35192 0.0
C1177 C 0.41051 0.43135 0.40661 0.0
C1178 C 0.42923 0.41848 0.39244 0.0
C1179 C 0.41659 0.40934 0.37498 0.0
C1180 C 0.46237 0.4162 0.3948 0.0
C1181 C 0.42272 0.44024 0.42592 0.0
C1182 C 0.47989 0.44258 0.39632 0.0
C1183 C 0.51142 0.44095 0.39564 0.0
C1184 C 0.52592 0.41286 0.39348 0.0
C1185 C 0.5083 0.38639 0.39267 0.0
C1186 C 0.47678 0.38804 0.3933 0.0
H1187 H 0.40443 0.44152 0.43677 0.0
H1188 H 0.44014 0.42392 0.43088 0.0
H1189 H 0.43339 0.46292 0.42488 0.0
H1190 H 0.46914 0.4646 0.39697 0.0
H1191 H 0.52415 0.46185 0.39554 0.0
H1192 H 0.00022 0.30009 0.85335 0.0
H1193 H 0.02013 0.35107 0.85887 0.0
H1194 H 0.07432 0.31757 0.90547 0.0
H1195 H 0.05484 0.2665 0.9 0.0
H1196 H 0.03034 0.36891 0.91291 0.0
H1197 H 0.10957 0.387 0.85227 0.0
H1198 H 0.07376 0.36967 0.84669 0.0
H1199 H 0.10045 0.34978 0.86135 0.0
C1200 C 0.01683 0.30345 0.86452 0.0
C1201 C 0.02587 0.27933 0.87629 0.0
C1202 C 0.02819 0.33252 0.86762 0.0
C1203 C 0.04864 0.33787 0.88255 0.0
C1204 C 0.0586 0.31371 0.89385 0.0
H1205 H 0.12694 0.5166 0.9018 0.0
H1206 H 0.12025 0.46156 0.90235 0.0
C1207 C 0.0475 0.28458 0.89065 0.0
C1208 C 0.05742 0.3691 0.88736 0.0
H1209 H 0.09573 0.43032 0.87033 0.0
C1210 C 0.04494 0.38232 0.90377 0.0
C1211 C 0.0766 0.38622 0.87544 0.0
C1212 C 0.09113 0.37251 0.85799 0.0
C1213 C 0.05021 0.41282 0.90816 0.0
C1214 C 0.06829 0.43035 0.89576 0.0
C1215 C 0.08181 0.41674 0.87979 0.0
C1216 C 0.07178 0.46333 0.89824 0.0
C1217 C 0.03607 0.42619 0.92585 0.0
C1218 C 0.04667 0.48238 0.896 0.0
C1219 C 0.05041 0.51374 0.8956 0.0
C1220 C 0.07937 0.52652 0.89754 0.0
C1221 C 0.10434 0.50735 0.90045 0.0
C1222 C 0.10058 0.47598 0.90076 0.0
H1223 H 0.02984 0.40837 0.93633 0.0
H1224 H 0.05167 0.44252 0.93281 0.0
H1225 H 0.01514 0.43851 0.92181 0.0
H1226 H 0.02437 0.47296 0.89353 0.0
H1227 H 0.0309 0.52765 0.89253 0.0
H1228 H 0.9742 0.13236 0.39107 0.0
H1229 H 0.02951 0.12834 0.39154 0.0
H1230 H 0.02243 0.03104 0.39335 0.0
H1231 H 0.96742 0.03479 0.39258 0.0
H1232 H 0.06913 0.05777 0.41777 0.0
H1233 H 0.07212 0.09664 0.34213 0.0
H1234 H 0.05293 0.12065 0.35896 0.0
H1235 H 0.03771 0.084 0.35349 0.0
C1236 C 0.98448 0.11015 0.39199 0.0
C1237 C 0.96645 0.08392 0.39209 0.0
C1238 C 0.01599 0.10791 0.39219 0.0
C1239 C 0.02989 0.07941 0.39232 0.0
C1240 C 0.01201 0.05325 0.39338 0.0
H1241 H 0.19322 0.00085 0.35434 0.0
H1242 H 0.14237 0.02128 0.35891 0.0
C1243 C 0.98051 0.05545 0.39316 0.0
C1244 C 0.06289 0.07646 0.3897 0.0
H1245 H 0.11838 0.08247 0.35604 0.0
C1246 C 0.08008 0.06354 0.4044 0.0
C1247 C 0.07681 0.08377 0.37212 0.0
C1248 C 0.05903 0.09686 0.35567 0.0
C1249 C 0.11087 0.05707 0.40183 0.0
C1250 C 0.12468 0.06395 0.38414 0.0
C1251 C 0.10765 0.07752 0.3696 0.0
C1252 C 0.15599 0.05451 0.3799 0.0
C1253 C 0.1281 0.04167 0.4177 0.0
C1254 C 0.18052 0.06726 0.3897 0.0
C1255 C 0.20964 0.0557 0.3871 0.0
C1256 C 0.21457 0.03116 0.37467 0.0
C1257 C 0.19014 0.01961 0.36409 0.0
C1258 C 0.16109 0.03126 0.36667 0.0
H1259 H 0.11292 0.0337 0.42929 0.0
H1260 H 0.14098 0.02201 0.41208 0.0
H1261 H 0.14459 0.05784 0.42393 0.0
H1262 H 0.17698 0.08553 0.39977 0.0
H1263 H 0.22802 0.06518 0.3954 0.0
H1264 H 0.48945 0.29948 0.16386 0.0
H1265 H 0.46871 0.3503 0.15959 0.0
H1266 H 0.41094 0.31758 0.11448 0.0
H1267 H 0.43156 0.2666 0.1186 0.0
H1268 H 0.44795 0.36804 0.10459 0.0
H1269 H 0.38497 0.38739 0.17193 0.0
H1270 H 0.42254 0.3729 0.17544 0.0
H1271 H 0.39476 0.35 0.16348 0.0
C1272 C 0.47192 0.30295 0.15327 0.0
C1273 C 0.46223 0.27906 0.14152 0.0
C1274 C 0.46 0.33196 0.15091 0.0
C1275 C 0.43819 0.33756 0.13681 0.0
C1276 C 0.42768 0.3136 0.1255 0.0
H1277 H 0.36412 0.52049 0.12819 0.0
H1278 H 0.36714 0.4652 0.12649 0.0
C1279 C 0.43944 0.2845 0.12792 0.0
C1280 C 0.42857 0.36894 0.13281 0.0
H1281 H 0.39824 0.4315 0.15386 0.0
C1282 C 0.43663 0.38185 0.11522 0.0
C1283 C 0.41355 0.38669 0.14662 0.0
C1284 C 0.40316 0.37351 0.16537 0.0
C1285 C 0.43146 0.41261 0.11149 0.0
C1286 C 0.41816 0.4308 0.12579 0.0
C1287 C 0.40864 0.4175 0.14296 0.0
C1288 C 0.41589 0.46403 0.1239 0.0
C1289 C 0.44074 0.42549 0.09244 0.0
C1290 C 0.44228 0.4816 0.12276 0.0
C1291 C 0.44064 0.51312 0.12378 0.0
C1292 C 0.41253 0.52758 0.1259 0.0
C1293 C 0.38606 0.50994 0.12639 0.0
C1294 C 0.38773 0.47842 0.12542 0.0
H1295 H 0.44217 0.40758 0.08134 0.0
H1296 H 0.42458 0.44316 0.0876 0.0
H1297 H 0.46343 0.43604 0.0938 0.0
H1298 H 0.4643 0.47088 0.12212 0.0
H1299 H 0.46153 0.52585 0.12414 0.0
H1300 H 0.19375 0.50026 0.66432 0.0
H1301 H 0.14262 0.4803 0.66041 0.0
H1302 H 0.17612 0.41242 0.62156 0.0
H1303 H 0.22743 0.43236 0.62524 0.0
H1304 H 0.12823 0.44742 0.60701 0.0
H1305 H 0.10104 0.40259 0.67891 0.0
H1306 H 0.1159 0.44042 0.67931 0.0
H1307 H 0.13938 0.40977 0.67119 0.0
C1308 C 0.19038 0.48071 0.65523 0.0
C1309 C 0.21461 0.46799 0.64501 0.0
C1310 C 0.16116 0.46924 0.65309 0.0
C1311 C 0.1557 0.44477 0.64081 0.0
C1312 C 0.17997 0.43126 0.63116 0.0
H1313 H 0.9764 0.36726 0.62014 0.0
H1314 H 0.03156 0.37299 0.62128 0.0
C1315 C 0.20925 0.44265 0.63333 0.0
C1316 C 0.1243 0.43533 0.63672 0.0
H1317 H 0.05897 0.41203 0.65807 0.0
C1318 C 0.11319 0.43921 0.61809 0.0
C1319 C 0.10483 0.42457 0.65121 0.0
C1320 C 0.11593 0.4188 0.67124 0.0
C1321 C 0.08265 0.43391 0.6138 0.0
C1322 C 0.06301 0.42451 0.62848 0.0
C1323 C 0.07429 0.41943 0.64691 0.0
C1324 C 0.03024 0.42146 0.62531 0.0
C1325 C 0.07122 0.43909 0.5938 0.0
C1326 C 0.01158 0.44696 0.62694 0.0
C1327 C 0.98018 0.44379 0.6264 0.0
C1328 C 0.96702 0.41505 0.62407 0.0
C1329 C 0.98593 0.38971 0.62177 0.0
C1330 C 0.01735 0.39289 0.62242 0.0
H1331 H 0.08988 0.44385 0.58361 0.0
H1332 H 0.05848 0.41891 0.5888 0.0
H1333 H 0.05534 0.45856 0.59376 0.0
H1334 H 0.02133 0.46911 0.62946 0.0
H1335 H 0.96643 0.4636 0.629 0.0
H1336 H 0.13136 0.97766 0.1262 0.0
H1337 H 0.12636 0.03292 0.1259 0.0
H1338 H 0.02923 0.02413 0.12434 0.0
H1339 H 0.03397 0.96915 0.12493 0.0
H1340 H 0.05472 0.07134 0.09996 0.0
H1341 H 0.0946 0.0751 0.17535 0.0
H1342 H 0.11882 0.05632 0.15846 0.0
H1343 H 0.0825 0.04044 0.16403 0.0
C1344 C 0.10897 0.98756 0.12538 0.0
C1345 C 0.08308 0.96905 0.12529 0.0
C1346 C 0.10617 0.01905 0.12528 0.0
C1347 C 0.07744 0.03245 0.12527 0.0
C1348 C 0.05161 0.0141 0.12423 0.0
H1349 H -0.00051 0.19675 0.16351 0.0
H1350 H 0.01938 0.14564 0.15897 0.0
C1351 C 0.05437 0.98263 0.12435 0.0
C1352 C 0.07398 0.06543 0.1279 0.0
H1353 H 0.08026 0.12129 0.16135 0.0
C1354 C 0.06063 0.08242 0.11326 0.0
C1355 C 0.08145 0.07955 0.1454 0.0
C1356 C 0.09495 0.062 0.16181 0.0
C1357 C 0.05402 0.11322 0.11578 0.0
C1358 C 0.0612 0.12726 0.13335 0.0
C1359 C 0.07507 0.1104 0.14786 0.0
C1360 C 0.05201 0.1587 0.13748 0.0
C1361 C 0.03824 0.13022 0.09996 0.0
C1362 C 0.06461 0.18301 0.12739 0.0
C1363 C 0.05336 0.21228 0.12998 0.0
C1364 C 0.02929 0.2176 0.14269 0.0
C1365 C 0.0179 0.19338 0.15354 0.0
C1366 C 0.02923 0.16418 0.15097 0.0
H1367 H 0.02988 0.11484 0.08857 0.0
H1368 H 0.01881 0.14331 0.10569 0.0
H1369 H 0.0543 0.1465 0.09342 0.0
H1370 H 0.08253 0.1792 0.11712 0.0
H1371 H 0.06271 0.23047 0.12147 0.0
H1372 H 0.26887 0.0661 0.62059 0.0
H1373 H 0.3204 0.08482 0.61577 0.0
H1374 H 0.35305 0.02341 0.65894 0.0
H1375 H 0.30165 0.00464 0.66398 0.0
H1376 H 0.37879 0.08358 0.65989 0.0
H1377 H 0.3832 0.02951 0.58813 0.0
H1378 H 0.35221 0.05497 0.59252 0.0
H1379 H 0.35462 0.02008 0.60555 0.0
C1380 C 0.28691 0.05692 0.6293 0.0
C1381 C 0.28125 0.03362 0.64252 0.0
C1382 C 0.31633 0.06754 0.62643 0.0
C1383 C 0.34046 0.05505 0.63675 0.0
C1384 C 0.33465 0.03315 0.65076 0.0
H1385 H 0.52945 0.033 0.62351 0.0
H1386 H 0.47442 0.02915 0.62306 0.0
C1387 C 0.30529 0.02246 0.65362 0.0
C1388 C 0.37202 0.06336 0.6323 0.0
H1389 H 0.42725 0.0543 0.59871 0.0
C1390 C 0.38936 0.07756 0.64645 0.0
C1391 C 0.38564 0.05508 0.61479 0.0
C1392 C 0.36813 0.03887 0.59937 0.0
C1393 C 0.42027 0.08324 0.6437 0.0
C1394 C 0.43395 0.07473 0.62625 0.0
C1395 C 0.4165 0.06102 0.61196 0.0
C1396 C 0.46691 0.07754 0.62335 0.0
C1397 C 0.43832 0.09711 0.65976 0.0
C1398 C 0.48079 0.10605 0.62288 0.0
C1399 C 0.5123 0.10833 0.62292 0.0
C1400 C 0.53035 0.08213 0.62322 0.0
C1401 C 0.51632 0.05361 0.62264 0.0
C1402 C 0.48482 0.05136 0.62261 0.0
H1403 H 0.42548 0.09746 0.67339 0.0
H1404 H 0.45973 0.08445 0.66202 0.0
H1405 H 0.44425 0.12078 0.65601 0.0
H1406 H 0.46727 0.12649 0.62325 0.0
H1407 H 0.52256 0.13059 0.62344 0.0
H1408 H 0.8487 0.33185 0.15357 0.0
H1409 H 0.79692 0.31482 0.15886 0.0
H1410 H 0.82846 0.22314 0.16589 0.0
H1411 H 0.88063 0.23993 0.16051 0.0
H1412 H 0.78241 0.23152 0.13796 0.0
H1413 H 0.75135 0.28524 0.20685 0.0
H1414 H 0.76843 0.31033 0.18978 0.0
H1415 H 0.79016 0.27964 0.19954 0.0
C1416 C 0.84478 0.3081 0.15651 0.0
C1417 C 0.86882 0.2872 0.15651 0.0
C1418 C 0.81514 0.29848 0.15969 0.0
C1419 C 0.80895 0.26782 0.16299 0.0
C1420 C 0.8329 0.24697 0.16352 0.0
H1421 H 0.64156 0.16584 0.1602 0.0
H1422 H 0.69375 0.18205 0.16489 0.0
C1423 C 0.86265 0.2566 0.16045 0.0
C1424 C 0.77724 0.25724 0.16383 0.0
H1425 H 0.71085 0.26502 0.18828 0.0
C1426 C 0.76682 0.23852 0.14907 0.0
C1427 C 0.75696 0.26685 0.17821 0.0
C1428 C 0.76727 0.28643 0.1946 0.0
C1429 C 0.73644 0.22964 0.14804 0.0
C1430 C 0.71611 0.23913 0.16246 0.0
C1431 C 0.72653 0.25775 0.17729 0.0
C1432 C 0.68395 0.22983 0.16218 0.0
C1433 C 0.72621 0.21094 0.13119 0.0
C1434 C 0.66089 0.25147 0.16014 0.0
C1435 C 0.63082 0.24228 0.15767 0.0
C1436 C 0.62351 0.21132 0.15712 0.0
C1437 C 0.6465 0.18986 0.16024 0.0
C1438 C 0.67637 0.19905 0.16288 0.0
H1439 H 0.74237 0.21248 0.11908 0.0
H1440 H 0.72471 0.18682 0.13552 0.0
H1441 H 0.70355 0.21825 0.12614 0.0
H1442 H 0.66633 0.27537 0.1597 0.0
H1443 H 0.61358 0.25932 0.15536 0.0
H1444 H 0.33454 0.64499 0.65545 0.0
H1445 H 0.3205 0.69757 0.66104 0.0
H1446 H 0.2264 0.67194 0.66362 0.0
H1447 H 0.24036 0.61891 0.65848 0.0
H1448 H 0.28623 0.73062 0.63725 0.0
H1449 H 0.23305 0.72868 0.70886 0.0
H1450 H 0.25574 0.69777 0.69995 0.0
H1451 H 0.21691 0.70168 0.69265 0.0
C1452 C 0.31086 0.6504 0.65748 0.0
C1453 C 0.28852 0.62777 0.65644 0.0
C1454 C 0.3029 0.68049 0.66071 0.0
C1455 C 0.27246 0.68866 0.66294 0.0
C1456 C 0.2501 0.66606 0.66239 0.0
H1457 H 0.17045 0.85177 0.65432 0.0
H1458 H 0.1893 0.8005 0.65921 0.0
C1459 C 0.25809 0.63579 0.65931 0.0
C1460 C 0.2641 0.72109 0.66397 0.0
H1461 H 0.2249 0.77326 0.69008 0.0
C1462 C 0.27317 0.74003 0.64893 0.0
C1463 C 0.24701 0.73327 0.67921 0.0
C1464 C 0.23785 0.71437 0.69618 0.0
C1465 C 0.26486 0.77062 0.64841 0.0
C1466 C 0.24728 0.78265 0.66344 0.0
C1467 C 0.23852 0.7639 0.67864 0.0
C1468 C 0.23595 0.81409 0.66278 0.0
C1469 C 0.27398 0.78958 0.63143 0.0
C1470 C 0.25593 0.83875 0.66369 0.0
C1471 C 0.24524 0.86823 0.66089 0.0
C1472 C 0.21442 0.87339 0.65708 0.0
C1473 C 0.19436 0.84863 0.65704 0.0
C1474 C 0.20504 0.81929 0.65992 0.0
H1475 H 0.28305 0.77558 0.61957 0.0
H1476 H 0.25439 0.80281 0.62605 0.0
H1477 H 0.2918 0.80585 0.63583 0.0
H1478 H 0.27987 0.8351 0.66607 0.0
H1479 H 0.26124 0.88679 0.66109 0.0
H1480 H 0.84874 0.16126 0.86099 0.0
H1481 H 0.79629 0.17563 0.85535 0.0
H1482 H 0.82221 0.26976 0.85399 0.0
H1483 H 0.87513 0.25547 0.85924 0.0
H1484 H 0.76373 0.20949 0.87986 0.0
H1485 H 0.76495 0.26453 0.80877 0.0
H1486 H 0.79578 0.24132 0.81727 0.0
H1487 H 0.79228 0.27997 0.82504 0.0
C1488 C 0.84343 0.18502 0.85921 0.0
C1489 C 0.86609 0.20726 0.86068 0.0
C1490 C 0.81341 0.19317 0.85594 0.0
C1491 C 0.80536 0.22371 0.8541 0.0
C1492 C 0.82801 0.24599 0.85496 0.0
H1493 H 0.64304 0.32651 0.8639 0.0
H1494 H 0.69402 0.30735 0.85847 0.0
C1495 C 0.85822 0.23781 0.85807 0.0
C1496 C 0.77296 0.2322 0.85329 0.0
H1497 H 0.72059 0.27216 0.8278 0.0
C1498 C 0.7542 0.22284 0.86834 0.0
C1499 C 0.76064 0.24969 0.83827 0.0
C1500 C 0.77938 0.25924 0.82132 0.0
C1501 C 0.72368 0.23126 0.86912 0.0
C1502 C 0.71149 0.24921 0.8543 0.0
C1503 C 0.73006 0.25824 0.83908 0.0
C1504 C 0.68013 0.2607 0.85524 0.0
C1505 C 0.70499 0.22189 0.88616 0.0
C1506 C 0.65535 0.24083 0.8547 0.0
C1507 C 0.62603 0.25169 0.85785 0.0
C1508 C 0.62114 0.28258 0.86161 0.0
C1509 C 0.64598 0.30253 0.86124 0.0
C1510 C 0.67516 0.29168 0.85804 0.0
H1511 H 0.7192 0.21282 0.89793 0.0
H1512 H 0.69171 0.24135 0.89168 0.0
H1513 H 0.68881 0.20397 0.8818 0.0
H1514 H 0.65879 0.21685 0.85234 0.0
H1515 H 0.60739 0.23577 0.85794 0.0
H1516 H 0.33084 0.85179 0.36414 0.0
H1517 H 0.31572 0.79942 0.359 0.0
H1518 H 0.22242 0.82718 0.35447 0.0
H1519 H 0.23747 0.88004 0.35923 0.0
H1520 H 0.27897 0.76835 0.38296 0.0
H1521 H 0.23042 0.76851 0.30992 0.0
H1522 H 0.25367 0.79902 0.31884 0.0
H1523 H 0.21444 0.79661 0.32545 0.0
C1524 C 0.30711 0.84691 0.36178 0.0
C1525 C 0.28531 0.87011 0.36219 0.0
C1526 C 0.29854 0.81692 0.35881 0.0
C1527 C 0.26801 0.80941 0.3562 0.0
C1528 C 0.2462 0.83255 0.35606 0.0
H1529 H 0.1665 0.64469 0.36438 0.0
H1530 H 0.18426 0.69646 0.35966 0.0
C1531 C 0.2548 0.86272 0.3589 0.0
C1532 C 0.25897 0.77715 0.35547 0.0
H1533 H 0.22162 0.72431 0.32878 0.0
C1534 C 0.26672 0.75865 0.37101 0.0
C1535 C 0.2429 0.76462 0.3399 0.0
C1536 C 0.23509 0.78312 0.32249 0.0
C1537 C 0.25831 0.7281 0.3716 0.0
C1538 C 0.242 0.71565 0.35614 0.0
C1539 C 0.23432 0.73401 0.34053 0.0
C1540 C 0.2313 0.68399 0.35661 0.0
C1541 C 0.26614 0.70953 0.389 0.0
C1542 C 0.25188 0.65983 0.35594 0.0
C1543 C 0.24184 0.6301 0.35861 0.0
C1544 C 0.21106 0.62419 0.36209 0.0
C1545 C 0.1904 0.64845 0.36191 0.0
C1546 C 0.20044 0.67806 0.35913 0.0
H1547 H 0.27433 0.72381 0.401 0.0
H1548 H 0.24614 0.69645 0.39391 0.0
H1549 H 0.28422 0.69313 0.3853 0.0
H1550 H 0.2758 0.66408 0.35387 0.0
H1551 H 0.25829 0.61194 0.35861 0.0
H1552 H 0.14977 0.66382 0.8671 0.0
H1553 H 0.20145 0.68133 0.86194 0.0
H1554 H 0.16835 0.77096 0.84943 0.0
H1555 H 0.1163 0.75374 0.85471 0.0
H1556 H 0.23059 0.71168 0.82986 0.0
H1557 H 0.22587 0.78066 0.89629 0.0
H1558 H 0.19845 0.75156 0.891 0.0
H1559 H 0.19642 0.78751 0.87911 0.0
C1560 C 0.15334 0.68723 0.86309 0.0
C1561 C 0.12888 0.7075 0.86156 0.0
C1562 C 0.18292 0.69711 0.86006 0.0
C1563 C 0.18865 0.72745 0.85553 0.0
C1564 C 0.1643 0.74749 0.85313 0.0
H1565 H 0.35531 0.82942 0.8582 0.0
H1566 H 0.3035 0.81284 0.85258 0.0
C1567 C 0.13461 0.7376 0.8561 0.0
C1568 C 0.22022 0.73838 0.85472 0.0
H1569 H 0.27111 0.78205 0.87876 0.0
C1570 C 0.23951 0.72721 0.84045 0.0
C1571 C 0.23168 0.75841 0.86867 0.0
C1572 C 0.21219 0.77013 0.88475 0.0
C1573 C 0.27008 0.73586 0.83967 0.0
C1574 C 0.28161 0.75569 0.85376 0.0
C1575 C 0.26218 0.76694 0.86793 0.0
C1576 C 0.31377 0.76505 0.85441 0.0
C1577 C 0.28962 0.72403 0.82368 0.0
C1578 C 0.33693 0.74362 0.85693 0.0
C1579 C 0.36678 0.75305 0.86001 0.0
C1580 C 0.37376 0.78406 0.86094 0.0
C1581 C 0.35065 0.80536 0.85774 0.0
C1582 C 0.32101 0.79594 0.85448 0.0
H1583 H 0.27578 0.7164 0.81134 0.0
H1584 H 0.3058 0.74156 0.81871 0.0
H1585 H 0.3028 0.70432 0.8289 0.0
H1586 H 0.33174 0.71967 0.85732 0.0
H1587 H 0.38407 0.73614 0.86254 0.0
H1588 H 0.73538 0.11219 0.35904 0.0
H1589 H 0.71773 0.16426 0.35426 0.0
H1590 H 0.80955 0.1966 0.35839 0.0
H1591 H 0.8274 0.14493 0.36311 0.0
H1592 H 0.72851 0.21054 0.38215 0.0
H1593 H 0.77525 0.24182 0.31131 0.0
H1594 H 0.77026 0.20297 0.31875 0.0
H1595 H 0.8019 0.22457 0.32734 0.0
C1596 C 0.75186 0.13032 0.35858 0.0
C1597 C 0.78277 0.12442 0.36155 0.0
C1598 C 0.74174 0.16002 0.35585 0.0
C1599 C 0.7624 0.18415 0.35576 0.0
C1600 C 0.79332 0.17822 0.35807 0.0
H1601 H 0.75592 0.37941 0.36287 0.0
H1602 H 0.77075 0.32636 0.35836 0.0
C1603 C 0.80343 0.14866 0.36093 0.0
C1604 C 0.75156 0.21579 0.35531 0.0
H1605 H 0.75695 0.28227 0.33068 0.0
C1606 C 0.73437 0.22616 0.37079 0.0
C1607 C 0.75969 0.2361 0.34059 0.0
C1608 C 0.77759 0.22583 0.32346 0.0
C1609 C 0.72569 0.25658 0.37222 0.0
C1610 C 0.73377 0.27698 0.3575 0.0
C1611 C 0.75077 0.26655 0.34191 0.0
C1612 C 0.72486 0.30925 0.35824 0.0
C1613 C 0.70884 0.26678 0.38984 0.0
C1614 C 0.69419 0.3172 0.359 0.0
C1615 C 0.6857 0.34727 0.36175 0.0
C1616 C 0.70774 0.37009 0.36351 0.0
C1617 C 0.73844 0.36233 0.36163 0.0
C1618 C 0.74693 0.33208 0.35905 0.0
H1619 H 0.71164 0.25057 0.40184 0.0
H1620 H 0.71671 0.28943 0.3946 0.0
H1621 H 0.68433 0.26832 0.38654 0.0
H1622 H 0.67679 0.3 0.35792 0.0
H1623 H 0.66183 0.35253 0.36284 0.0
H1624 H 0.38241 0.75877 0.15646 0.0
H1625 H 0.32979 0.77468 0.16113 0.0
H1626 H 0.30199 0.68117 0.16383 0.0
H1627 H 0.35411 0.66515 0.15879 0.0
H1628 H 0.2702 0.71321 0.13772 0.0
H1629 H 0.27244 0.7752 0.20656 0.0
H1630 H 0.3 0.7882 0.18961 0.0
H1631 H 0.30274 0.75047 0.19909 0.0
C1632 C 0.36515 0.74164 0.15841 0.0
C1633 C 0.37239 0.71072 0.15711 0.0
C1634 C 0.33512 0.75075 0.16118 0.0
C1635 C 0.31202 0.72908 0.16298 0.0
C1636 C 0.31946 0.69825 0.16249 0.0
H1637 H 0.11445 0.73886 0.16085 0.0
H1638 H 0.16657 0.7217 0.16593 0.0
C1639 C 0.34929 0.68916 0.15957 0.0
C1640 C 0.27978 0.73822 0.16341 0.0
H1641 H 0.22773 0.78044 0.18768 0.0
C1642 C 0.26085 0.72764 0.14876 0.0
C1643 C 0.26769 0.75716 0.17779 0.0
C1644 C 0.28668 0.76822 0.19426 0.0
C1645 C 0.2303 0.73597 0.14785 0.0
C1646 C 0.21827 0.7551 0.16212 0.0
C1647 C 0.23708 0.76561 0.17684 0.0
C1648 C 0.1866 0.76577 0.16122 0.0
C1649 C 0.21137 0.72504 0.13128 0.0
C1650 C 0.18068 0.79635 0.15754 0.0
C1651 C 0.15106 0.80621 0.15462 0.0
C1652 C 0.12673 0.78566 0.15545 0.0
C1653 C 0.13265 0.75523 0.16002 0.0
C1654 C 0.16239 0.74537 0.16287 0.0
H1655 H 0.22547 0.71539 0.11965 0.0
H1656 H 0.19567 0.70714 0.13632 0.0
H1657 H 0.19756 0.74382 0.12535 0.0
H1658 H 0.19909 0.81242 0.15625 0.0
H1659 H 0.14734 0.82987 0.1513 0.0
H1660 H 0.74112 0.11154 0.67908 0.0
H1661 H 0.75542 0.16368 0.68726 0.0
H1662 H 0.70018 0.19685 0.64094 0.0
H1663 H 0.68465 0.14542 0.6335 0.0
H1664 H 0.78518 0.20387 0.66938 0.0
H1665 H 0.67252 0.25295 0.68088 0.0
H1666 H 0.67808 0.21263 0.67879 0.0
H1667 H 0.67291 0.23575 0.65777 0.0
C1668 C 0.73186 0.13008 0.67082 0.0
C1669 C 0.71156 0.1245 0.65579 0.0
C1670 C 0.73995 0.15983 0.67552 0.0
C1671 C 0.72815 0.18437 0.6651 0.0
C1672 C 0.70855 0.17856 0.64977 0.0
H1673 H 0.81167 0.34718 0.63381 0.0
H1674 H 0.79593 0.29572 0.64098 0.0
C1675 C 0.69996 0.14905 0.64537 0.0
C1676 C 0.73789 0.21593 0.66911 0.0
H1677 H 0.71136 0.28844 0.66976 0.0
C1678 C 0.76898 0.2223 0.6699 0.0
C1679 C 0.71692 0.24009 0.6705 0.0
C1680 C 0.68328 0.23488 0.67218 0.0
C1681 C 0.77961 0.25219 0.67043 0.0
C1682 C 0.75864 0.27638 0.66925 0.0
C1683 C 0.72756 0.27 0.67011 0.0
C1684 C 0.76837 0.30797 0.66536 0.0
C1685 C 0.81327 0.25738 0.67202 0.0
C1686 C 0.75683 0.3324 0.67599 0.0
C1687 C 0.76505 0.36218 0.67145 0.0
C1688 C 0.78521 0.36789 0.65638 0.0
C1689 C 0.79649 0.34345 0.64572 0.0
C1690 C 0.78778 0.31392 0.64996 0.0
H1691 H 0.82412 0.23918 0.68057 0.0
H1692 H 0.8235 0.25673 0.65757 0.0
H1693 H 0.81854 0.27953 0.67874 0.0
H1694 H 0.7415 0.32844 0.68778 0.0
H1695 H 0.75603 0.38064 0.67989 0.0
H1696 H 0.34675 0.06216 0.33099 0.0
H1697 H 0.36848 0.08771 0.30299 0.0
H1698 H 0.40891 0.00356 0.28501 0.0
H1699 H 0.38687 0.97796 0.31277 0.0
H1700 H 0.43061 0.09226 0.29235 0.0
H1701 H 0.36234 0.03299 0.23733 0.0
H1702 H 0.35217 0.03317 0.26229 0.0
H1703 H 0.38138 0.00829 0.25379 0.0
C1704 C 0.36023 0.04921 0.32099 0.0
C1705 C 0.36534 0.01821 0.32403 0.0
C1706 C 0.37265 0.06377 0.30507 0.0
C1707 C 0.39003 0.04746 0.29182 0.0
C1708 C 0.39523 0.01649 0.2949 0.0
H1709 H 0.51689 0.10964 0.20656 0.0
H1710 H 0.49129 0.08772 0.23434 0.0
C1711 C 0.38291 0.00197 0.31084 0.0
C1712 C 0.40325 0.06287 0.27495 0.0
H1713 H 0.40382 0.06245 0.22618 0.0
C1714 C 0.42465 0.08588 0.27788 0.0
C1715 C 0.39515 0.05475 0.25609 0.0
C1716 C 0.3713 0.03114 0.2521 0.0
C1717 C 0.43881 0.10041 0.26244 0.0
C1718 C 0.43156 0.09148 0.24359 0.0
C1719 C 0.40953 0.06908 0.24065 0.0
C1720 C 0.44698 0.10477 0.22674 0.0
C1721 C 0.46131 0.12531 0.26641 0.0
C1722 C 0.43047 0.12111 0.21306 0.0
C1723 C 0.44505 0.13347 0.19712 0.0
C1724 C 0.47627 0.12932 0.19451 0.0
C1725 C 0.49272 0.11284 0.20815 0.0
C1726 C 0.47819 0.1006 0.2241 0.0
H1727 H 0.45866 0.13463 0.28104 0.0
H1728 H 0.48458 0.1161 0.26512 0.0
H1729 H 0.45885 0.14406 0.25596 0.0
H1730 H 0.40634 0.12447 0.21479 0.0
H1731 H 0.43193 0.1461 0.18676 0.0
H1732 H 0.43115 0.3539 0.8332 0.0
H1733 H 0.40592 0.37571 0.8051 0.0
H1734 H 0.49194 0.40815 0.78443 0.0
H1735 H 0.51718 0.38597 0.81229 0.0
H1736 H 0.40537 0.43697 0.79288 0.0
H1737 H 0.45678 0.36133 0.7386 0.0
H1738 H 0.45732 0.35279 0.7638 0.0
H1739 H 0.48366 0.3796 0.754 0.0
C1740 C 0.44457 0.36565 0.82259 0.0
C1741 C 0.476 0.36848 0.8249 0.0
C1742 C 0.4302 0.37811 0.80661 0.0
C1743 C 0.44711 0.39326 0.79258 0.0
C1744 C 0.47852 0.39618 0.79494 0.0
H1745 H 0.38875 0.51912 0.70546 0.0
H1746 H 0.41068 0.49381 0.73336 0.0
C1747 C 0.49286 0.3838 0.81092 0.0
C1748 C 0.43188 0.40656 0.77566 0.0
H1749 H 0.42991 0.40422 0.72693 0.0
C1750 C 0.4106 0.42972 0.77846 0.0
C1751 C 0.43847 0.3968 0.75688 0.0
C1752 C 0.46009 0.37107 0.75307 0.0
C1753 C 0.39632 0.44394 0.76295 0.0
C1754 C 0.40378 0.43496 0.74414 0.0
C1755 C 0.42444 0.41125 0.74136 0.0
C1756 C 0.39065 0.45019 0.72717 0.0
C1757 C 0.37323 0.46834 0.76681 0.0
C1758 C 0.37267 0.4339 0.71421 0.0
C1759 C 0.36033 0.44829 0.6982 0.0
C1760 C 0.36611 0.47908 0.69478 0.0
C1761 C 0.38427 0.49527 0.70768 0.0
C1762 C 0.39652 0.48093 0.7237 0.0
H1763 H 0.36446 0.46714 0.78165 0.0
H1764 H 0.38395 0.49083 0.76483 0.0
H1765 H 0.35388 0.4666 0.75675 0.0
H1766 H 0.36798 0.41013 0.71659 0.0
H1767 H 0.3464 0.43537 0.68843 0.0
H1768 H 0.107 0.51948 0.31286 0.0
H1769 H 0.08393 0.49463 0.28514 0.0
H1770 H 0.12091 0.40902 0.30337 0.0
H1771 H 0.1436 0.43382 0.33133 0.0
H1772 H 0.11288 0.46147 0.25577 0.0
H1773 H 0.02991 0.39107 0.29556 0.0
H1774 H 0.04907 0.42297 0.30623 0.0
H1775 H 0.06854 0.38759 0.30329 0.0
C1776 C 0.10985 0.4953 0.31105 0.0
C1777 C 0.12663 0.47842 0.32433 0.0
C1778 C 0.09687 0.48118 0.29517 0.0
C1779 C 0.10035 0.44991 0.29233 0.0
C1780 C 0.11749 0.43307 0.30547 0.0
H1781 H 0.0603 0.35159 0.18678 0.0
H1782 H 0.08547 0.37395 0.21472 0.0
C1783 C 0.13055 0.44723 0.32134 0.0
C1784 C 0.08635 0.43514 0.27547 0.0
H1785 H 0.03321 0.383 0.26224 0.0
C1786 C 0.09551 0.44426 0.25717 0.0
C1787 C 0.06346 0.41294 0.27734 0.0
C1788 C 0.0519 0.40316 0.29664 0.0
C1789 C 0.08251 0.43165 0.24067 0.0
C1790 C 0.05996 0.40911 0.24255 0.0
C1791 C 0.05068 0.40011 0.26085 0.0
C1792 C 0.04498 0.39533 0.22569 0.0
C1793 C 0.09249 0.44304 0.22137 0.0
C1794 C 0.01381 0.39942 0.22281 0.0
C1795 C -0.00052 0.38664 0.20694 0.0
C1796 C 0.01604 0.36945 0.19371 0.0
C1797 C 0.04713 0.36495 0.19674 0.0
C1798 C 0.06151 0.37781 0.2126 0.0
H1799 H 0.10499 0.4648 0.22244 0.0
H1800 H 0.10771 0.42608 0.21472 0.0
H1801 H 0.07273 0.44624 0.21179 0.0
H1802 H 0.0006 0.41266 0.2328 0.0
H1803 H 0.97537 0.38995 0.20511 0.0
H1804 H 0.04009 0.09638 0.84079 0.0
H1805 H 0.06561 0.07348 0.81318 0.0
H1806 H 0.01624 0.13295 0.77552 0.0
H1807 H 0.99133 0.15621 0.80313 0.0
H1808 H 0.04291 0.0432 0.78305 0.0
H1809 H 0.10141 0.14621 0.75705 0.0
H1810 H 0.08359 0.14441 0.78018 0.0
H1811 H 0.06127 0.15119 0.75912 0.0
C1812 C 0.03499 0.10463 0.82658 0.0
C1813 C 0.01427 0.12835 0.82401 0.0
C1814 C 0.04948 0.09157 0.81085 0.0
C1815 C 0.04338 0.10193 0.79227 0.0
C1816 C 0.02207 0.12519 0.78971 0.0
H1817 H 0.09409 0.04104 0.6786 0.0
H1818 H 0.06993 0.06494 0.70641 0.0
C1819 C 0.00777 0.13839 0.80545 0.0
C1820 C 0.05861 0.08782 0.77556 0.0
H1821 H 0.10145 0.10362 0.73615 0.0
C1822 C 0.05588 0.05641 0.77288 0.0
C1823 C 0.0756 0.10502 0.76227 0.0
C1824 C 0.08093 0.13852 0.76487 0.0
C1825 C 0.06917 0.04187 0.75714 0.0
C1826 C 0.08573 0.05916 0.74376 0.0
C1827 C 0.08856 0.0905 0.7464 0.0
C1828 C 0.10048 0.04499 0.727 0.0
C1829 C 0.06505 0.00819 0.75469 0.0
C1830 C 0.12577 0.02616 0.72941 0.0
C1831 C 0.13965 0.01275 0.71358 0.0
C1832 C 0.12843 0.01797 0.69512 0.0
C1833 C 0.10314 0.03683 0.69272 0.0
C1834 C 0.0894 0.05043 0.70854 0.0
H1835 H 0.04739 -0.001 0.76437 0.0
H1836 H 0.05882 0.00277 0.73972 0.0
H1837 H 0.08673 0.99656 0.75789 0.0
H1838 H 0.13476 0.02186 0.74353 0.0
H1839 H 0.15892 -0.00199 0.71577 0.0
H1840 H 0.64619 0.93376 0.68702 0.0
H1841 H 0.62355 0.90875 0.7149 0.0
H1842 H 0.58439 0.9937 0.73251 0.0
H1843 H 0.60745 0.01879 0.70489 0.0
H1844 H 0.61359 0.96183 0.76215 0.0
H1845 H 0.53319 0.88843 0.72243 0.0
H1846 H 0.57198 0.88572 0.71494 0.0
H1847 H 0.5517 0.92057 0.71161 0.0
C1848 C 0.63265 0.94697 0.69685 0.0
C1849 C 0.62816 0.97805 0.69372 0.0
C1850 C 0.61962 0.93269 0.71267 0.0
C1851 C 0.60191 0.94928 0.72562 0.0
C1852 C 0.59777 0.98043 0.72262 0.0
H1853 H 0.47787 0.88651 0.81252 0.0
H1854 H 0.50263 0.90935 0.78472 0.0
C1855 C 0.61074 0.99468 0.7068 0.0
C1856 C 0.58811 0.93439 0.7425 0.0
H1857 H 0.53657 0.88074 0.7558 0.0
C1858 C 0.59678 0.94407 0.76079 0.0
C1859 C 0.56596 0.91144 0.74066 0.0
C1860 C 0.55489 0.90102 0.72137 0.0
C1861 C 0.58402 0.9313 0.7773 0.0
C1862 C 0.56226 0.90799 0.77546 0.0
C1863 C 0.55346 0.89843 0.75717 0.0
C1864 C 0.54754 0.894 0.79233 0.0
C1865 C 0.5934 0.94333 0.79656 0.0
C1866 C 0.56452 0.8775 0.80572 0.0
C1867 C 0.5504 0.86458 0.82166 0.0
C1868 C 0.51913 0.868 0.82444 0.0
C1869 C 0.50211 0.88407 0.81087 0.0
C1870 C 0.51619 0.89692 0.79495 0.0
H1871 H 0.60503 0.96556 0.79541 0.0
H1872 H 0.57348 0.94588 0.80608 0.0
H1873 H 0.60926 0.92711 0.80335 0.0
H1874 H 0.58864 0.8745 0.8038 0.0
H1875 H 0.56391 0.85208 0.83187 0.0
H1876 H 0.47878 0.60939 0.20638 0.0
H1877 H 0.50412 0.58755 0.23429 0.0
H1878 H 0.58923 0.62434 0.21508 0.0
H1879 H 0.5639 0.64591 0.18693 0.0
H1880 H 0.5916 0.56226 0.22659 0.0
H1881 H 0.53631 0.63481 0.28105 0.0
H1882 H 0.51056 0.61623 0.26503 0.0
H1883 H 0.53642 0.64413 0.25595 0.0
C1884 C 0.50293 0.61261 0.20807 0.0
C1885 C 0.51949 0.6291 0.19449 0.0
C1886 C 0.51731 0.60041 0.22409 0.0
C1887 C 0.54849 0.60463 0.22687 0.0
C1888 C 0.56512 0.62095 0.21324 0.0
H1889 H 0.6478 0.56239 0.33163 0.0
H1890 H 0.62651 0.58787 0.30345 0.0
C1891 C 0.55069 0.63327 0.19723 0.0
C1892 C 0.56375 0.59143 0.24381 0.0
H1893 H 0.5643 0.59256 0.29257 0.0
C1894 C 0.58579 0.56899 0.24101 0.0
C1895 C 0.55636 0.60051 0.2626 0.0
C1896 C 0.53382 0.62543 0.26642 0.0
C1897 C 0.60002 0.55477 0.25655 0.0
C1898 C 0.59178 0.56303 0.27535 0.0
C1899 C 0.57038 0.58608 0.27814 0.0
C1900 C 0.60479 0.54767 0.29231 0.0
C1901 C 0.62385 0.53109 0.25272 0.0
C1902 C 0.59936 0.51676 0.29547 0.0
C1903 C 0.61141 0.50229 0.3115 0.0
C1904 C 0.62897 0.5185 0.32472 0.0
C1905 C 0.63434 0.54944 0.3216 0.0
C1906 C 0.62217 0.56397 0.30558 0.0
H1907 H 0.63292 0.53279 0.23797 0.0
H1908 H 0.64292 0.53317 0.26297 0.0
H1909 H 0.61372 0.50827 0.25446 0.0
H1910 H 0.58567 0.50385 0.28555 0.0
H1911 H 0.60725 0.47833 0.31348 0.0
H1912 H 0.84064 0.4914 0.71627 0.0
H1913 H 0.86532 0.51531 0.74386 0.0
H1914 H 0.92816 0.55997 0.70614 0.0
H1915 H 0.90347 0.53605 0.67852 0.0
H1916 H 0.93178 0.51182 0.75343 0.0
H1917 H 0.88853 0.62842 0.74069 0.0
H1918 H 0.87014 0.59525 0.73101 0.0
H1919 H 0.90465 0.60881 0.7206 0.0
C1920 C 0.85955 0.50655 0.71392 0.0
C1921 C 0.86996 0.51232 0.69534 0.0
C1922 C 0.87369 0.52003 0.72964 0.0
C1923 C 0.89832 0.53964 0.727 0.0
C1924 C 0.90894 0.54519 0.70844 0.0
H1925 H 0.00522 0.65186 0.80341 0.0
H1926 H 0.98157 0.6271 0.77584 0.0
C1927 C 0.89494 0.53152 0.69272 0.0
C1928 C 0.9131 0.55404 0.74369 0.0
H1929 H 0.92309 0.622 0.766 0.0
C1930 C 0.92988 0.53589 0.75625 0.0
C1931 C 0.91066 0.58544 0.7472 0.0
C1932 C 0.89239 0.60574 0.73428 0.0
C1933 C 0.94473 0.54843 0.77214 0.0
C1934 C 0.94199 0.57985 0.77585 0.0
C1935 C 0.92517 0.59795 0.76321 0.0
C1936 C 0.9565 0.5945 0.79265 0.0
C1937 C 0.96389 0.52799 0.78447 0.0
C1938 C 0.9501 0.58465 0.8113 0.0
C1939 C 0.96374 0.59869 0.82702 0.0
C1940 C 0.98352 0.62318 0.82437 0.0
C1941 C 0.98973 0.63322 0.80578 0.0
C1942 C 0.9763 0.61905 0.79006 0.0
H1943 H 0.97092 0.50727 0.77666 0.0
H1944 H 0.98449 0.53986 0.7896 0.0
H1945 H 0.95052 0.52077 0.79707 0.0
H1946 H 0.93435 0.56628 0.81373 0.0
H1947 H 0.95862 0.59065 0.84126 0.0
H1948 H 0.01991 0.88793 0.20581 0.0
H1949 H 0.99419 0.91006 0.23349 0.0
H1950 H 0.9096 0.8719 0.21438 0.0
H1951 H 0.93528 0.85014 0.18645 0.0
H1952 H 0.90584 0.93353 0.2254 0.0
H1953 H 0.96292 0.86389 0.28062 0.0
H1954 H 0.98833 0.88288 0.26459 0.0
H1955 H 0.96336 0.85409 0.2556 0.0
C1956 C 0.99579 0.88448 0.20748 0.0
C1957 C 0.97947 0.86757 0.19398 0.0
C1958 C 0.98119 0.89684 0.22337 0.0
C1959 C 0.95005 0.89232 0.22612 0.0
C1960 C 0.93367 0.87555 0.21258 0.0
H1961 H 0.85003 0.93384 0.3306 0.0
H1962 H 0.87222 0.90852 0.30266 0.0
C1963 C 0.94831 0.86311 0.19669 0.0
C1964 C 0.93452 0.90563 0.24293 0.0
H1965 H 0.93394 0.90577 0.2917 0.0
C1966 C 0.91185 0.92736 0.2399 0.0
C1967 C 0.94215 0.89728 0.26183 0.0
C1968 C 0.96532 0.87305 0.26593 0.0
C1969 C 0.89716 0.94155 0.25527 0.0
C1970 C 0.90561 0.93402 0.27417 0.0
C1971 C 0.92769 0.9117 0.2772 0.0
C1972 C 0.89202 0.94932 0.29098 0.0
C1973 C 0.87258 0.96433 0.25117 0.0
C1974 C 0.89605 0.98054 0.29376 0.0
C1975 C 0.88345 0.99493 0.30965 0.0
C1976 C 0.86677 0.97832 0.32312 0.0
C1977 C 0.8628 0.94708 0.32038 0.0
C1978 C 0.87549 0.93265 0.30449 0.0
H1979 H 0.86349 0.96181 0.23647 0.0
H1980 H 0.85364 0.96203 0.26148 0.0
H1981 H 0.88201 0.98751 0.25255 0.0
H1982 H 0.90909 0.99376 0.28367 0.0
H1983 H 0.88653 0.01911 0.31134 0.0
loop_
_geom_bond_atom_site_label_1
_geom_bond_atom_site_label_2
_geom_bond_distance
_geom_bond_site_symmetry_2
_ccdc_geom_bond_type
Co0 O3 1.970 . S
Co0 N17 1.989 . S
Co0 O25 1.967 . S
Co0 O32 1.920 . S
Co1 O4 1.966 . S
Co1 N10 2.022 . S
Co1 N18 1.993 . S
Co1 O26 1.941 . S
C2 O3 1.258 . S
C2 O4 1.263 . S
O3 Co0 1.970 . S
O3 C2 1.258 . S
O4 Co1 1.966 . S
O4 C2 1.263 . S
C5 O6 1.235 . S
C5 O32 1.289 . S
O6 C5 1.235 . S
C7 C9 1.400 . S
C7 N10 1.351 . S
C7 C12 1.501 . S
C8 C9 1.387 . S
C8 N11 1.341 . S
C9 C7 1.400 . S
C9 C8 1.387 . S
N10 Co1 2.022 . S
N10 C7 1.351 . S
N10 N11 1.365 . S
N11 C8 1.341 . S
N11 N10 1.365 . S
N11 H31 0.862 . S
C12 C7 1.501 . S
C12 H13 0.961 . S
C12 H14 0.961 . S
C12 H15 0.960 . S
H13 C12 0.961 . S
H14 C12 0.961 . S
H15 C12 0.960 . S
C16 N17 1.342 . S
C16 C20 1.401 . S
C16 C21 1.499 . S
N17 Co0 1.989 . S
N17 C16 1.342 . S
N17 N18 1.388 . S
N18 Co1 1.993 . S
N18 N17 1.388 . S
N18 C19 1.346 . S
C19 N18 1.346 . S
C19 C20 1.396 . S
C19 C29 1.510 . S
C20 C16 1.401 . S
C20 C19 1.396 . S
C21 C16 1.499 . S
C21 H22 0.959 . S
C21 H23 0.960 . S
C21 H24 0.961 . S
H22 C21 0.959 . S
H23 C21 0.960 . S
H24 C21 0.961 . S
O25 Co0 1.967 . S
O25 C33 1.258 . S
O26 Co1 1.941 . S
O26 C33 1.266 . S
H27 C29 0.959 . S
H28 C29 0.961 . S
C29 C19 1.510 . S
C29 H27 0.959 . S
C29 H28 0.961 . S
C29 H30 0.960 . S
H30 C29 0.960 . S
H31 N11 0.862 . S
O32 Co0 1.920 . S
O32 C5 1.289 . S
C33 O25 1.258 . S
C33 O26 1.266 . S
Co34 O37 1.970 . S
Co34 N51 1.989 . S
Co34 O59 1.967 . S
Co34 O66 1.920 . S
Co35 O38 1.966 . S
Co35 N44 2.022 . S
Co35 N52 1.993 . S
Co35 O60 1.941 . S
C36 O37 1.258 . S
C36 O38 1.263 . S
O37 Co34 1.970 . S
O37 C36 1.258 . S
O38 Co35 1.966 . S
O38 C36 1.263 . S
C39 O40 1.235 . S
C39 O66 1.289 . S
O40 C39 1.235 . S
C41 C43 1.400 . S
C41 N44 1.351 . S
C41 C46 1.501 . S
C42 C43 1.387 . S
C42 N45 1.341 . S
C43 C41 1.400 . S
C43 C42 1.387 . S
N44 Co35 2.022 . S
N44 C41 1.351 . S
N44 N45 1.365 . S
N45 C42 1.341 . S
N45 N44 1.365 . S
N45 H65 0.862 . S
C46 C41 1.501 . S
C46 H47 0.961 . S
C46 H48 0.961 . S
C46 H49 0.960 . S
H47 C46 0.961 . S
H48 C46 0.961 . S
H49 C46 0.960 . S
C50 N51 1.342 . S
C50 C54 1.401 . S
C50 C55 1.499 . S
N51 Co34 1.989 . S
N51 C50 1.342 . S
N51 N52 1.388 . S
N52 Co35 1.993 . S
N52 N51 1.388 . S
N52 C53 1.346 . S
C53 N52 1.346 . S
C53 C54 1.396 . S
C53 C63 1.510 . S
C54 C50 1.401 . S
C54 C53 1.396 . S
C55 C50 1.499 . S
C55 H56 0.959 . S
C55 H57 0.960 . S
C55 H58 0.961 . S
H56 C55 0.959 . S
H57 C55 0.960 . S
H58 C55 0.961 . S
O59 Co34 1.967 . S
O59 C67 1.258 . S
O60 Co35 1.941 . S
O60 C67 1.266 . S
H61 C63 0.959 . S
H62 C63 0.961 . S
C63 C53 1.510 . S
C63 H61 0.959 . S
C63 H62 0.961 . S
C63 H64 0.960 . S
H64 C63 0.960 . S
H65 N45 0.862 . S
O66 Co34 1.920 . S
O66 C39 1.289 . S
C67 O59 1.258 . S
C67 O60 1.266 . S
Co68 O71 1.970 . S
Co68 N85 1.989 1_655 S
Co68 O93 1.967 . S
Co68 O100 1.920 . S
Co69 O72 1.966 . S
Co69 N78 2.022 . S
Co69 N86 1.993 1_655 S
Co69 O94 1.941 . S
C70 O71 1.258 . S
C70 O72 1.263 . S
O71 Co68 1.970 . S
O71 C70 1.258 . S
O72 Co69 1.966 . S
O72 C70 1.263 . S
C73 O74 1.235 . S
C73 O100 1.289 1_455 S
O74 C73 1.235 . S
C75 C77 1.400 . S
C75 N78 1.351 . S
C75 C80 1.501 1_655 S
C76 C77 1.387 . S
C76 N79 1.341 . S
C77 C75 1.400 . S
C77 C76 1.387 . S
N78 Co69 2.022 . S
N78 C75 1.351 . S
N78 N79 1.365 . S
N79 C76 1.341 . S
N79 N78 1.365 . S
N79 H99 0.862 . S
C80 C75 1.501 1_455 S
C80 H81 0.961 . S
C80 H82 0.961 . S
C80 H83 0.960 1_455 S
H81 C80 0.961 . S
H82 C80 0.961 . S
H83 C80 0.960 1_655 S
C84 N85 1.342 . S
C84 C88 1.401 . S
C84 C89 1.499 . S
N85 Co68 1.989 1_455 S
N85 C84 1.342 . S
N85 N86 1.388 . S
N86 Co69 1.993 1_455 S
N86 N85 1.388 . S
N86 C87 1.346 . S
C87 N86 1.346 . S
C87 C88 1.396 . S
C87 C97 1.510 . S
C88 C84 1.401 . S
C88 C87 1.396 . S
C89 C84 1.499 . S
C89 H90 0.959 . S
C89 H91 0.960 . S
C89 H92 0.961 . S
H90 C89 0.959 . S
H91 C89 0.960 . S
H92 C89 0.961 . S
O93 Co68 1.967 . S
O93 C101 1.258 . S
O94 Co69 1.941 . S
O94 C101 1.266 . S
H95 C97 0.959 . S
H96 C97 0.961 . S
C97 C87 1.510 . S
C97 H95 0.959 . S
C97 H96 0.961 . S
C97 H98 0.960 . S
H98 C97 0.960 . S
H99 N79 0.862 . S
O100 Co68 1.920 . S
O100 C73 1.289 1_655 S
C101 O93 1.258 . S
C101 O94 1.266 . S
Co102 O105 1.970 . S
Co102 N119 1.989 1_565 S
Co102 O127 1.967 . S
Co102 O134 1.920 . S
Co103 O106 1.966 . S
Co103 N112 2.022 . S
Co103 N120 1.993 1_565 S
Co103 O128 1.941 . S
C104 O105 1.258 . S
C104 O106 1.263 . S
O105 Co102 1.970 . S
O105 C104 1.258 . S
O106 Co103 1.966 . S
O106 C104 1.263 . S
C107 O108 1.235 . S
C107 O134 1.289 1_545 S
O108 C107 1.235 . S
C109 C111 1.400 . S
C109 N112 1.351 . S
C109 C114 1.501 1_565 S
C110 C111 1.387 . S
C110 N113 1.341 . S
C111 C109 1.400 . S
C111 C110 1.387 . S
N112 Co103 2.022 . S
N112 C109 1.351 . S
N112 N113 1.365 . S
N113 C110 1.341 . S
N113 N112 1.365 . S
N113 H133 0.862 . S
C114 C109 1.501 1_545 S
C114 H115 0.961 . S
C114 H116 0.961 . S
C114 H117 0.960 1_545 S
H115 C114 0.961 . S
H116 C114 0.961 . S
H117 C114 0.960 1_565 S
C118 N119 1.342 . S
C118 C122 1.401 . S
C118 C123 1.499 . S
N119 Co102 1.989 1_545 S
N119 C118 1.342 . S
N119 N120 1.388 . S
N120 Co103 1.993 1_545 S
N120 N119 1.388 . S
N120 C121 1.346 . S
C121 N120 1.346 . S
C121 C122 1.396 . S
C121 C131 1.510 . S
C122 C118 1.401 . S
C122 C121 1.396 . S
C123 C118 1.499 . S
C123 H124 0.959 . S
C123 H125 0.960 . S
C123 H126 0.961 . S
H124 C123 0.959 . S
H125 C123 0.960 . S
H126 C123 0.961 . S
O127 Co102 1.967 . S
O127 C135 1.258 . S
O128 Co103 1.941 . S
O128 C135 1.266 . S
H129 C131 0.959 . S
H130 C131 0.961 . S
C131 C121 1.510 . S
C131 H129 0.959 . S
C131 H130 0.961 . S
C131 H132 0.960 . S
H132 C131 0.960 . S
H133 N113 0.862 . S
O134 Co102 1.920 . S
O134 C107 1.289 1_565 S
C135 O127 1.258 . S
C135 O128 1.266 . S
Co136 O139 1.970 . S
Co136 N153 1.989 . S
Co136 O161 1.967 . S
Co136 O168 1.920 . S
Co137 O140 1.966 . S
Co137 N146 2.022 . S
Co137 N154 1.993 . S
Co137 O162 1.941 . S
C138 O139 1.258 . S
C138 O140 1.263 . S
O139 Co136 1.970 . S
O139 C138 1.258 . S
O140 Co137 1.966 . S
O140 C138 1.263 . S
C141 O142 1.235 . S
C141 O168 1.289 . S
O142 C141 1.235 . S
C143 C145 1.400 . S
C143 N146 1.351 . S
C143 C148 1.501 . S
C144 C145 1.387 . S
C144 N147 1.341 . S
C145 C143 1.400 . S
C145 C144 1.387 . S
N146 Co137 2.022 . S
N146 C143 1.351 . S
N146 N147 1.365 . S
N147 C144 1.341 . S
N147 N146 1.365 . S
N147 H167 0.862 . S
C148 C143 1.501 . S
C148 H149 0.961 . S
C148 H150 0.961 . S
C148 H151 0.960 . S
H149 C148 0.961 . S
H150 C148 0.961 . S
H151 C148 0.960 . S
C152 N153 1.342 . S
C152 C156 1.401 . S
C152 C157 1.499 . S
N153 Co136 1.989 . S
N153 C152 1.342 . S
N153 N154 1.388 . S
N154 Co137 1.993 . S
N154 N153 1.388 . S
N154 C155 1.346 . S
C155 N154 1.346 . S
C155 C156 1.396 . S
C155 C165 1.510 . S
C156 C152 1.401 . S
C156 C155 1.396 . S
C157 C152 1.499 . S
C157 H158 0.959 . S
C157 H159 0.960 . S
C157 H160 0.961 . S
H158 C157 0.959 . S
H159 C157 0.960 . S
H160 C157 0.961 . S
O161 Co136 1.967 . S
O161 C169 1.258 . S
O162 Co137 1.941 . S
O162 C169 1.266 . S
H163 C165 0.959 . S
H164 C165 0.961 . S
C165 C155 1.510 . S
C165 H163 0.959 . S
C165 H164 0.961 . S
C165 H166 0.960 . S
H166 C165 0.960 . S
H167 N147 0.862 . S
O168 Co136 1.920 . S
O168 C141 1.289 . S
C169 O161 1.258 . S
C169 O162 1.266 . S
Co170 O173 1.970 . S
Co170 N187 1.989 . S
Co170 O195 1.967 . S
Co170 O202 1.920 . S
Co171 O174 1.966 . S
Co171 N180 2.022 . S
Co171 N188 1.993 . S
Co171 O196 1.941 . S
C172 O173 1.258 . S
C172 O174 1.263 . S
O173 Co170 1.970 . S
O173 C172 1.258 . S
O174 Co171 1.966 . S
O174 C172 1.263 . S
C175 O176 1.235 . S
C175 O202 1.289 . S
O176 C175 1.235 . S
C177 C179 1.400 . S
C177 N180 1.351 . S
C177 C182 1.501 . S
C178 C179 1.387 . S
C178 N181 1.341 . S
C179 C177 1.400 . S
C179 C178 1.387 . S
N180 Co171 2.022 . S
N180 C177 1.351 . S
N180 N181 1.365 . S
N181 C178 1.341 . S
N181 N180 1.365 . S
N181 H201 0.862 . S
C182 C177 1.501 . S
C182 H183 0.961 . S
C182 H184 0.961 . S
C182 H185 0.960 . S
H183 C182 0.961 . S
H184 C182 0.961 . S
H185 C182 0.960 . S
C186 N187 1.342 . S
C186 C190 1.401 . S
C186 C191 1.499 . S
N187 Co170 1.989 . S
N187 C186 1.342 . S
N187 N188 1.388 . S
N188 Co171 1.993 . S
N188 N187 1.388 . S
N188 C189 1.346 . S
C189 N188 1.346 . S
C189 C190 1.396 . S
C189 C199 1.510 . S
C190 C186 1.401 . S
C190 C189 1.396 . S
C191 C186 1.499 . S
C191 H192 0.959 . S
C191 H193 0.960 . S
C191 H194 0.961 . S
H192 C191 0.959 . S
H193 C191 0.960 . S
H194 C191 0.961 . S
O195 Co170 1.967 . S
O195 C203 1.258 . S
O196 Co171 1.941 . S
O196 C203 1.266 . S
H197 C199 0.959 . S
H198 C199 0.961 . S
C199 C189 1.510 . S
C199 H197 0.959 . S
C199 H198 0.961 . S
C199 H200 0.960 . S
H200 C199 0.960 . S
H201 N181 0.862 . S
O202 Co170 1.920 . S
O202 C175 1.289 . S
C203 O195 1.258 . S
C203 O196 1.266 . S
Co204 O207 1.970 . S
Co204 N221 1.989 1_655 S
Co204 O229 1.967 . S
Co204 O236 1.920 . S
Co205 O208 1.966 . S
Co205 N214 2.022 . S
Co205 N222 1.993 1_655 S
Co205 O230 1.941 . S
C206 O207 1.258 . S
C206 O208 1.263 . S
O207 Co204 1.970 . S
O207 C206 1.258 . S
O208 Co205 1.966 . S
O208 C206 1.263 . S
C209 O210 1.235 . S
C209 O236 1.289 1_455 S
O210 C209 1.235 . S
C211 C213 1.400 . S
C211 N214 1.351 . S
C211 C216 1.501 1_655 S
C212 C213 1.387 . S
C212 N215 1.341 . S
C213 C211 1.400 . S
C213 C212 1.387 . S
N214 Co205 2.022 . S
N214 C211 1.351 . S
N214 N215 1.365 . S
N215 C212 1.341 . S
N215 N214 1.365 . S
N215 H235 0.862 . S
C216 C211 1.501 1_455 S
C216 H217 0.961 . S
C216 H218 0.961 . S
C216 H219 0.960 1_455 S
H217 C216 0.961 . S
H218 C216 0.961 . S
H219 C216 0.960 1_655 S
C220 N221 1.342 . S
C220 C224 1.401 . S
C220 C225 1.499 . S
N221 Co204 1.989 1_455 S
N221 C220 1.342 . S
N221 N222 1.388 . S
N222 Co205 1.993 1_455 S
N222 N221 1.388 . S
N222 C223 1.346 . S
C223 N222 1.346 . S
C223 C224 1.396 . S
C223 C233 1.510 . S
C224 C220 1.401 . S
C224 C223 1.396 . S
C225 C220 1.499 . S
C225 H226 0.959 . S
C225 H227 0.960 . S
C225 H228 0.961 . S
H226 C225 0.959 . S
H227 C225 0.960 . S
H228 C225 0.961 . S
O229 Co204 1.967 . S
O229 C237 1.258 . S
O230 Co205 1.941 . S
O230 C237 1.266 . S
H231 C233 0.959 . S
H232 C233 0.961 . S
C233 C223 1.510 . S
C233 H231 0.959 . S
C233 H232 0.961 . S
C233 H234 0.960 . S
H234 C233 0.960 . S
H235 N215 0.862 . S
O236 Co204 1.920 . S
O236 C209 1.289 1_655 S
C237 O229 1.258 . S
C237 O230 1.266 . S
Co238 O241 1.970 . S
Co238 N255 1.989 1_565 S
Co238 O263 1.967 . S
Co238 O270 1.920 . S
Co239 O242 1.966 . S
Co239 N248 2.022 . S
Co239 N256 1.993 1_565 S
Co239 O264 1.941 . S
C240 O241 1.258 . S
C240 O242 1.263 . S
O241 Co238 1.970 . S
O241 C240 1.258 . S
O242 Co239 1.966 . S
O242 C240 1.263 . S
C243 O244 1.235 . S
C243 O270 1.289 1_545 S
O244 C243 1.235 . S
C245 C247 1.400 . S
C245 N248 1.351 . S
C245 C250 1.501 1_565 S
C246 C247 1.387 . S
C246 N249 1.341 . S
C247 C245 1.400 . S
C247 C246 1.387 . S
N248 Co239 2.022 . S
N248 C245 1.351 . S
N248 N249 1.365 . S
N249 C246 1.341 . S
N249 N248 1.365 . S
N249 H269 0.862 . S
C250 C245 1.501 1_545 S
C250 H251 0.961 . S
C250 H252 0.961 . S
C250 H253 0.960 1_545 S
H251 C250 0.961 . S
H252 C250 0.961 . S
H253 C250 0.960 1_565 S
C254 N255 1.342 . S
C254 C258 1.401 . S
C254 C259 1.499 . S
N255 Co238 1.989 1_545 S
N255 C254 1.342 . S
N255 N256 1.388 . S
N256 Co239 1.993 1_545 S
N256 N255 1.388 . S
N256 C257 1.346 . S
C257 N256 1.346 . S
C257 C258 1.396 . S
C257 C267 1.510 . S
C258 C254 1.401 . S
C258 C257 1.396 . S
C259 C254 1.499 . S
C259 H260 0.959 . S
C259 H261 0.960 . S
C259 H262 0.961 . S
H260 C259 0.959 . S
H261 C259 0.960 . S
H262 C259 0.961 . S
O263 Co238 1.967 . S
O263 C271 1.258 . S
O264 Co239 1.941 . S
O264 C271 1.266 . S
H265 C267 0.959 . S
H266 C267 0.961 . S
C267 C257 1.510 . S
C267 H265 0.959 . S
C267 H266 0.961 . S
C267 H268 0.960 . S
H268 C267 0.960 . S
H269 N249 0.862 . S
O270 Co238 1.920 . S
O270 C243 1.289 1_565 S
C271 O263 1.258 . S
C271 O264 1.266 . S
Co272 O275 1.970 . S
Co272 N289 1.989 . S
Co272 O297 1.967 . S
Co272 O304 1.920 . S
Co273 O276 1.966 . S
Co273 N282 2.022 . S
Co273 N290 1.993 . S
Co273 O298 1.941 . S
C274 O275 1.258 . S
C274 O276 1.263 . S
O275 Co272 1.970 . S
O275 C274 1.258 . S
O276 Co273 1.966 . S
O276 C274 1.263 . S
C277 O278 1.235 . S
C277 O304 1.289 . S
O278 C277 1.235 . S
C279 C281 1.400 . S
C279 N282 1.351 . S
C279 C284 1.501 . S
C280 C281 1.387 . S
C280 N283 1.341 . S
C281 C279 1.400 . S
C281 C280 1.387 . S
N282 Co273 2.022 . S
N282 C279 1.351 . S
N282 N283 1.365 . S
N283 C280 1.341 . S
N283 N282 1.365 . S
N283 H303 0.862 . S
C284 C279 1.501 . S
C284 H285 0.961 . S
C284 H286 0.961 . S
C284 H287 0.960 . S
H285 C284 0.961 . S
H286 C284 0.961 . S
H287 C284 0.960 . S
C288 N289 1.342 . S
C288 C292 1.401 . S
C288 C293 1.499 . S
N289 Co272 1.989 . S
N289 C288 1.342 . S
N289 N290 1.388 . S
N290 Co273 1.993 . S
N290 N289 1.388 . S
N290 C291 1.346 . S
C291 N290 1.346 . S
C291 C292 1.396 . S
C291 C301 1.510 . S
C292 C288 1.401 . S
C292 C291 1.396 . S
C293 C288 1.499 . S
C293 H294 0.959 . S
C293 H295 0.960 . S
C293 H296 0.961 . S
H294 C293 0.959 . S
H295 C293 0.960 . S
H296 C293 0.961 . S
O297 Co272 1.967 . S
O297 C305 1.258 . S
O298 Co273 1.941 . S
O298 C305 1.266 . S
H299 C301 0.959 . S
H300 C301 0.961 . S
C301 C291 1.510 . S
C301 H299 0.959 . S
C301 H300 0.961 . S
C301 H302 0.960 . S
H302 C301 0.960 . S
H303 N283 0.862 . S
O304 Co272 1.920 . S
O304 C277 1.289 . S
C305 O297 1.258 . S
C305 O298 1.266 . S
Co306 O309 1.970 . S
Co306 N323 1.989 . S
Co306 O331 1.967 . S
Co306 O338 1.920 . S
Co307 O310 1.966 . S
Co307 N316 2.022 . S
Co307 N324 1.993 . S
Co307 O332 1.941 . S
C308 O309 1.258 . S
C308 O310 1.263 . S
O309 Co306 1.970 . S
O309 C308 1.258 . S
O310 Co307 1.966 . S
O310 C308 1.263 . S
C311 O312 1.235 . S
C311 O338 1.289 . S
O312 C311 1.235 . S
C313 C315 1.400 . S
C313 N316 1.351 . S
C313 C318 1.501 . S
C314 C315 1.387 . S
C314 N317 1.341 . S
C315 C313 1.400 . S
C315 C314 1.387 . S
N316 Co307 2.022 . S
N316 C313 1.351 . S
N316 N317 1.365 . S
N317 C314 1.341 . S
N317 N316 1.365 . S
N317 H337 0.862 . S
C318 C313 1.501 . S
C318 H319 0.961 . S
C318 H320 0.961 . S
C318 H321 0.960 . S
H319 C318 0.961 . S
H320 C318 0.961 . S
H321 C318 0.960 . S
C322 N323 1.342 . S
C322 C326 1.401 . S
C322 C327 1.499 . S
N323 Co306 1.989 . S
N323 C322 1.342 . S
N323 N324 1.388 . S
N324 Co307 1.993 . S
N324 N323 1.388 . S
N324 C325 1.346 . S
C325 N324 1.346 . S
C325 C326 1.396 . S
C325 C335 1.510 . S
C326 C322 1.401 . S
C326 C325 1.396 . S
C327 C322 1.499 . S
C327 H328 0.959 . S
C327 H329 0.960 . S
C327 H330 0.961 . S
H328 C327 0.959 . S
H329 C327 0.960 . S
H330 C327 0.961 . S
O331 Co306 1.967 . S
O331 C339 1.258 . S
O332 Co307 1.941 . S
O332 C339 1.266 . S
H333 C335 0.959 . S
H334 C335 0.961 . S
C335 C325 1.510 . S
C335 H333 0.959 . S
C335 H334 0.961 . S
C335 H336 0.960 . S
H336 C335 0.960 . S
H337 N317 0.862 . S
O338 Co306 1.920 . S
O338 C311 1.289 . S
C339 O331 1.258 . S
C339 O332 1.266 . S
Co340 O343 1.970 . S
Co340 N357 1.989 1_455 S
Co340 O365 1.967 . S
Co340 O372 1.920 . S
Co341 O344 1.966 . S
Co341 N350 2.022 . S
Co341 N358 1.993 1_455 S
Co341 O366 1.941 . S
C342 O343 1.258 . S
C342 O344 1.263 . S
O343 Co340 1.970 . S
O343 C342 1.258 . S
O344 Co341 1.966 . S
O344 C342 1.263 . S
C345 O346 1.235 . S
C345 O372 1.289 1_655 S
O346 C345 1.235 . S
C347 C349 1.400 . S
C347 N350 1.351 . S
C347 C352 1.501 1_455 S
C348 C349 1.387 . S
C348 N351 1.341 . S
C349 C347 1.400 . S
C349 C348 1.387 . S
N350 Co341 2.022 . S
N350 C347 1.351 . S
N350 N351 1.365 . S
N351 C348 1.341 . S
N351 N350 1.365 . S
N351 H371 0.862 . S
C352 C347 1.501 1_655 S
C352 H353 0.961 . S
C352 H354 0.961 . S
C352 H355 0.960 1_655 S
H353 C352 0.961 . S
H354 C352 0.961 . S
H355 C352 0.960 1_455 S
C356 N357 1.342 . S
C356 C360 1.401 . S
C356 C361 1.499 . S
N357 Co340 1.989 1_655 S
N357 C356 1.342 . S
N357 N358 1.388 . S
N358 Co341 1.993 1_655 S
N358 N357 1.388 . S
N358 C359 1.346 . S
C359 N358 1.346 . S
C359 C360 1.396 . S
C359 C369 1.510 . S
C360 C356 1.401 . S
C360 C359 1.396 . S
C361 C356 1.499 . S
C361 H362 0.959 . S
C361 H363 0.960 . S
C361 H364 0.961 . S
H362 C361 0.959 . S
H363 C361 0.960 . S
H364 C361 0.961 . S
O365 Co340 1.967 . S
O365 C373 1.258 . S
O366 Co341 1.941 . S
O366 C373 1.266 . S
H367 C369 0.959 . S
H368 C369 0.961 . S
C369 C359 1.510 . S
C369 H367 0.959 . S
C369 H368 0.961 . S
C369 H370 0.960 . S
H370 C369 0.960 . S
H371 N351 0.862 . S
O372 Co340 1.920 . S
O372 C345 1.289 1_455 S
C373 O365 1.258 . S
C373 O366 1.266 . S
Co374 O377 1.970 . S
Co374 N391 1.989 1_545 S
Co374 O399 1.967 . S
Co374 O406 1.920 . S
Co375 O378 1.966 . S
Co375 N384 2.022 . S
Co375 N392 1.993 1_545 S
Co375 O400 1.941 . S
C376 O377 1.258 . S
C376 O378 1.263 . S
O377 Co374 1.970 . S
O377 C376 1.258 . S
O378 Co375 1.966 . S
O378 C376 1.263 . S
C379 O380 1.235 . S
C379 O406 1.289 1_565 S
O380 C379 1.235 . S
C381 C383 1.400 . S
C381 N384 1.351 . S
C381 C386 1.501 1_545 S
C382 C383 1.387 . S
C382 N385 1.341 . S
C383 C381 1.400 . S
C383 C382 1.387 . S
N384 Co375 2.022 . S
N384 C381 1.351 . S
N384 N385 1.365 . S
N385 C382 1.341 . S
N385 N384 1.365 . S
N385 H405 0.862 . S
C386 C381 1.501 1_565 S
C386 H387 0.961 . S
C386 H388 0.961 . S
C386 H389 0.960 1_565 S
H387 C386 0.961 . S
H388 C386 0.961 . S
H389 C386 0.960 1_545 S
C390 N391 1.342 . S
C390 C394 1.401 . S
C390 C395 1.499 . S
N391 Co374 1.989 1_565 S
N391 C390 1.342 . S
N391 N392 1.388 . S
N392 Co375 1.993 1_565 S
N392 N391 1.388 . S
N392 C393 1.346 . S
C393 N392 1.346 . S
C393 C394 1.396 . S
C393 C403 1.510 . S
C394 C390 1.401 . S
C394 C393 1.396 . S
C395 C390 1.499 . S
C395 H396 0.959 . S
C395 H397 0.960 . S
C395 H398 0.961 . S
H396 C395 0.959 . S
H397 C395 0.960 . S
H398 C395 0.961 . S
O399 Co374 1.967 . S
O399 C407 1.258 . S
O400 Co375 1.941 . S
O400 C407 1.266 . S
H401 C403 0.959 . S
H402 C403 0.961 . S
C403 C393 1.510 . S
C403 H401 0.959 . S
C403 H402 0.961 . S
C403 H404 0.960 . S
H404 C403 0.960 . S
H405 N385 0.862 . S
O406 Co374 1.920 . S
O406 C379 1.289 1_545 S
C407 O399 1.258 . S
C407 O400 1.266 . S
Co408 O411 1.970 . S
Co408 N425 1.989 . S
Co408 O433 1.967 . S
Co408 O440 1.920 . S
Co409 O412 1.966 . S
Co409 N418 2.022 . S
Co409 N426 1.993 . S
Co409 O434 1.941 . S
C410 O411 1.258 . S
C410 O412 1.263 . S
O411 Co408 1.970 . S
O411 C410 1.258 . S
O412 Co409 1.966 . S
O412 C410 1.263 . S
C413 O414 1.235 . S
C413 O440 1.289 . S
O414 C413 1.235 . S
C415 C417 1.400 . S
C415 N418 1.351 . S
C415 C420 1.501 . S
C416 C417 1.387 . S
C416 N419 1.341 . S
C417 C415 1.400 . S
C417 C416 1.387 . S
N418 Co409 2.022 . S
N418 C415 1.351 . S
N418 N419 1.365 . S
N419 C416 1.341 . S
N419 N418 1.365 . S
N419 H439 0.862 . S
C420 C415 1.501 . S
C420 H421 0.961 . S
C420 H422 0.961 . S
C420 H423 0.960 . S
H421 C420 0.961 . S
H422 C420 0.961 . S
H423 C420 0.960 . S
C424 N425 1.342 . S
C424 C428 1.401 . S
C424 C429 1.499 . S
N425 Co408 1.989 . S
N425 C424 1.342 . S
N425 N426 1.388 . S
N426 Co409 1.993 . S
N426 N425 1.388 . S
N426 C427 1.346 . S
C427 N426 1.346 . S
C427 C428 1.396 . S
C427 C437 1.510 . S
C428 C424 1.401 . S
C428 C427 1.396 . S
C429 C424 1.499 . S
C429 H430 0.959 . S
C429 H431 0.960 . S
C429 H432 0.961 . S
H430 C429 0.959 . S
H431 C429 0.960 . S
H432 C429 0.961 . S
O433 Co408 1.967 . S
O433 C441 1.258 . S
O434 Co409 1.941 . S
O434 C441 1.266 . S
H435 C437 0.959 . S
H436 C437 0.961 . S
C437 C427 1.510 . S
C437 H435 0.959 . S
C437 H436 0.961 . S
C437 H438 0.960 . S
H438 C437 0.960 . S
H439 N419 0.862 . S
O440 Co408 1.920 . S
O440 C413 1.289 . S
C441 O433 1.258 . S
C441 O434 1.266 . S
Co442 O445 1.970 . S
Co442 N459 1.989 . S
Co442 O467 1.967 . S
Co442 O474 1.920 . S
Co443 O446 1.966 . S
Co443 N452 2.022 . S
Co443 N460 1.993 . S
Co443 O468 1.941 . S
C444 O445 1.258 . S
C444 O446 1.263 . S
O445 Co442 1.970 . S
O445 C444 1.258 . S
O446 Co443 1.966 . S
O446 C444 1.263 . S
C447 O448 1.235 . S
C447 O474 1.289 . S
O448 C447 1.235 . S
C449 C451 1.400 . S
C449 N452 1.351 . S
C449 C454 1.501 . S
C450 C451 1.387 . S
C450 N453 1.341 . S
C451 C449 1.400 . S
C451 C450 1.387 . S
N452 Co443 2.022 . S
N452 C449 1.351 . S
N452 N453 1.365 . S
N453 C450 1.341 . S
N453 N452 1.365 . S
N453 H473 0.862 . S
C454 C449 1.501 . S
C454 H455 0.961 . S
C454 H456 0.961 . S
C454 H457 0.960 . S
H455 C454 0.961 . S
H456 C454 0.961 . S
H457 C454 0.960 . S
C458 N459 1.342 . S
C458 C462 1.401 . S
C458 C463 1.499 . S
N459 Co442 1.989 . S
N459 C458 1.342 . S
N459 N460 1.388 . S
N460 Co443 1.993 . S
N460 N459 1.388 . S
N460 C461 1.346 . S
C461 N460 1.346 . S
C461 C462 1.396 . S
C461 C471 1.510 . S
C462 C458 1.401 . S
C462 C461 1.396 . S
C463 C458 1.499 . S
C463 H464 0.959 . S
C463 H465 0.960 . S
C463 H466 0.961 . S
H464 C463 0.959 . S
H465 C463 0.960 . S
H466 C463 0.961 . S
O467 Co442 1.967 . S
O467 C475 1.258 . S
O468 Co443 1.941 . S
O468 C475 1.266 . S
H469 C471 0.959 . S
H470 C471 0.961 . S
C471 C461 1.510 . S
C471 H469 0.959 . S
C471 H470 0.961 . S
C471 H472 0.960 . S
H472 C471 0.960 . S
H473 N453 0.862 . S
O474 Co442 1.920 . S
O474 C447 1.289 . S
C475 O467 1.258 . S
C475 O468 1.266 . S
Co476 O479 1.970 . S
Co476 N493 1.989 1_455 S
Co476 O501 1.967 . S
Co476 O508 1.920 . S
Co477 O480 1.966 . S
Co477 N486 2.022 . S
Co477 N494 1.993 1_455 S
Co477 O502 1.941 . S
C478 O479 1.258 . S
C478 O480 1.263 . S
O479 Co476 1.970 . S
O479 C478 1.258 . S
O480 Co477 1.966 . S
O480 C478 1.263 . S
C481 O482 1.235 . S
C481 O508 1.289 1_655 S
O482 C481 1.235 . S
C483 C485 1.400 . S
C483 N486 1.351 . S
C483 C488 1.501 1_455 S
C484 C485 1.387 . S
C484 N487 1.341 . S
C485 C483 1.400 . S
C485 C484 1.387 . S
N486 Co477 2.022 . S
N486 C483 1.351 . S
N486 N487 1.365 . S
N487 C484 1.341 . S
N487 N486 1.365 . S
N487 H507 0.862 . S
C488 C483 1.501 1_655 S
C488 H489 0.961 . S
C488 H490 0.961 . S
C488 H491 0.960 1_655 S
H489 C488 0.961 . S
H490 C488 0.961 . S
H491 C488 0.960 1_455 S
C492 N493 1.342 . S
C492 C496 1.401 . S
C492 C497 1.499 . S
N493 Co476 1.989 1_655 S
N493 C492 1.342 . S
N493 N494 1.388 . S
N494 Co477 1.993 1_655 S
N494 N493 1.388 . S
N494 C495 1.346 . S
C495 N494 1.346 . S
C495 C496 1.396 . S
C495 C505 1.510 . S
C496 C492 1.401 . S
C496 C495 1.396 . S
C497 C492 1.499 . S
C497 H498 0.959 . S
C497 H499 0.960 . S
C497 H500 0.961 . S
H498 C497 0.959 . S
H499 C497 0.960 . S
H500 C497 0.961 . S
O501 Co476 1.967 . S
O501 C509 1.258 . S
O502 Co477 1.941 . S
O502 C509 1.266 . S
H503 C505 0.959 . S
H504 C505 0.961 . S
C505 C495 1.510 . S
C505 H503 0.959 . S
C505 H504 0.961 . S
C505 H506 0.960 . S
H506 C505 0.960 . S
H507 N487 0.862 . S
O508 Co476 1.920 . S
O508 C481 1.289 1_455 S
C509 O501 1.258 . S
C509 O502 1.266 . S
Co510 O513 1.970 . S
Co510 N527 1.989 1_545 S
Co510 O535 1.967 . S
Co510 O542 1.920 . S
Co511 O514 1.966 . S
Co511 N520 2.022 . S
Co511 N528 1.993 1_545 S
Co511 O536 1.941 . S
C512 O513 1.258 . S
C512 O514 1.263 . S
O513 Co510 1.970 . S
O513 C512 1.258 . S
O514 Co511 1.966 . S
O514 C512 1.263 . S
C515 O516 1.235 . S
C515 O542 1.289 1_565 S
O516 C515 1.235 . S
C517 C519 1.400 . S
C517 N520 1.351 . S
C517 C522 1.501 1_545 S
C518 C519 1.387 . S
C518 N521 1.341 . S
C519 C517 1.400 . S
C519 C518 1.387 . S
N520 Co511 2.022 . S
N520 C517 1.351 . S
N520 N521 1.365 . S
N521 C518 1.341 . S
N521 N520 1.365 . S
N521 H541 0.862 . S
C522 C517 1.501 1_565 S
C522 H523 0.961 . S
C522 H524 0.961 . S
C522 H525 0.960 1_565 S
H523 C522 0.961 . S
H524 C522 0.961 . S
H525 C522 0.960 1_545 S
C526 N527 1.342 . S
C526 C530 1.401 . S
C526 C531 1.499 . S
N527 Co510 1.989 1_565 S
N527 C526 1.342 . S
N527 N528 1.388 . S
N528 Co511 1.993 1_565 S
N528 N527 1.388 . S
N528 C529 1.346 . S
C529 N528 1.346 . S
C529 C530 1.396 . S
C529 C539 1.510 . S
C530 C526 1.401 . S
C530 C529 1.396 . S
C531 C526 1.499 . S
C531 H532 0.959 . S
C531 H533 0.960 . S
C531 H534 0.961 . S
H532 C531 0.959 . S
H533 C531 0.960 . S
H534 C531 0.961 . S
O535 Co510 1.967 . S
O535 C543 1.258 . S
O536 Co511 1.941 . S
O536 C543 1.266 . S
H537 C539 0.959 . S
H538 C539 0.961 . S
C539 C529 1.510 . S
C539 H537 0.959 . S
C539 H538 0.961 . S
C539 H540 0.960 . S
H540 C539 0.960 . S
H541 N521 0.862 . S
O542 Co510 1.920 . S
O542 C515 1.289 1_545 S
C543 O535 1.258 . S
C543 O536 1.266 . S
H544 C552 0.929 . S
H545 C554 0.930 . S
H546 C556 0.930 . S
H547 C559 0.929 . S
H548 C562 0.930 . S
H549 C564 0.960 . S
H550 C564 0.960 . S
H551 C564 0.960 . S
C552 H544 0.929 . S
C552 C553 1.377 . S
C552 C554 1.384 . S
C553 C552 1.377 . S
C553 C559 1.390 . S
C554 H545 0.930 . S
C554 C552 1.384 . S
C554 C555 1.372 . S
C555 C554 1.372 . S
C555 C556 1.400 . S
C555 C560 1.490 . S
C556 H546 0.930 . S
C556 C555 1.400 . S
C556 C559 1.386 . S
H557 C573 0.930 . S
H558 C574 0.931 . S
C559 H547 0.929 . S
C559 C553 1.390 . S
C559 C556 1.386 . S
C560 C555 1.490 . S
C560 C562 1.395 . S
C560 C563 1.403 . S
H561 C567 0.930 . S
C562 H548 0.930 . S
C562 C560 1.395 . S
C562 C565 1.403 1_554 S
C563 C560 1.403 . S
C563 C564 1.524 . S
C563 C567 1.400 1_554 S
C564 H549 0.960 . S
C564 H550 0.960 . S
C564 H551 0.960 . S
C564 C563 1.524 . S
C565 C562 1.403 1_556 S
C565 C566 1.392 . S
C565 C569 1.495 . S
C566 C565 1.392 . S
C566 C567 1.385 . S
C566 C568 1.478 . S
C567 H561 0.930 . S
C567 C563 1.400 1_556 S
C567 C566 1.385 . S
C568 C566 1.478 . S
C568 C570 1.381 . S
C568 C574 1.383 . S
C569 C565 1.495 . S
C569 H575 0.959 . S
C569 H576 0.961 . S
C569 H577 0.960 . S
C570 C568 1.381 . S
C570 C571 1.394 . S
C570 H578 0.930 . S
C571 C570 1.394 . S
C571 C572 1.383 . S
C571 H579 0.929 . S
C572 C571 1.383 . S
C572 C573 1.377 . S
C573 H557 0.930 . S
C573 C572 1.377 . S
C573 C574 1.379 . S
C574 H558 0.931 . S
C574 C568 1.383 . S
C574 C573 1.379 . S
H575 C569 0.959 . S
H576 C569 0.961 . S
H577 C569 0.960 . S
H578 C570 0.930 . S
H579 C571 0.929 . S
H580 C588 0.929 . S
H581 C590 0.930 . S
H582 C592 0.930 . S
H583 C595 0.929 . S
H584 C598 0.930 . S
H585 C600 0.960 . S
H586 C600 0.960 . S
H587 C600 0.960 . S
C588 H580 0.929 . S
C588 C589 1.377 . S
C588 C590 1.384 . S
C589 C588 1.377 . S
C589 C595 1.390 . S
C590 H581 0.930 . S
C590 C588 1.384 . S
C590 C591 1.372 . S
C591 C590 1.372 . S
C591 C592 1.400 . S
C591 C596 1.490 . S
C592 H582 0.930 . S
C592 C591 1.400 . S
C592 C595 1.386 . S
H593 C609 0.930 . S
H594 C610 0.931 . S
C595 H583 0.929 . S
C595 C589 1.390 . S
C595 C592 1.386 . S
C596 C591 1.490 . S
C596 C598 1.395 . S
C596 C599 1.403 . S
H597 C603 0.930 . S
C598 H584 0.930 . S
C598 C596 1.395 . S
C598 C601 1.403 . S
C599 C596 1.403 . S
C599 C600 1.524 . S
C599 C603 1.400 . S
C600 H585 0.960 . S
C600 H586 0.960 . S
C600 H587 0.960 . S
C600 C599 1.524 . S
C601 C598 1.403 . S
C601 C602 1.392 . S
C601 C605 1.495 . S
C602 C601 1.392 . S
C602 C603 1.385 . S
C602 C604 1.478 . S
C603 H597 0.930 . S
C603 C599 1.400 . S
C603 C602 1.385 . S
C604 C602 1.478 . S
C604 C606 1.381 . S
C604 C610 1.383 . S
C605 C601 1.495 . S
C605 H611 0.959 . S
C605 H612 0.961 . S
C605 H613 0.960 . S
C606 C604 1.381 . S
C606 C607 1.394 . S
C606 H614 0.930 . S
C607 C606 1.394 . S
C607 C608 1.383 . S
C607 H615 0.929 . S
C608 C607 1.383 . S
C608 C609 1.377 . S
C609 H593 0.930 . S
C609 C608 1.377 . S
C609 C610 1.379 . S
C610 H594 0.931 . S
C610 C604 1.383 . S
C610 C609 1.379 . S
H611 C605 0.959 . S
H612 C605 0.961 . S
H613 C605 0.960 . S
H614 C606 0.930 . S
H615 C607 0.929 . S
H616 C624 0.929 . S
H617 C626 0.930 . S
H618 C628 0.930 . S
H619 C631 0.929 . S
H620 C634 0.930 . S
H621 C636 0.960 . S
H622 C636 0.960 . S
H623 C636 0.960 . S
C624 H616 0.929 . S
C624 C625 1.377 . S
C624 C626 1.384 . S
C625 C624 1.377 . S
C625 C631 1.390 1_655 S
C626 H617 0.930 . S
C626 C624 1.384 . S
C626 C627 1.372 . S
C627 C626 1.372 . S
C627 C628 1.400 1_655 S
C627 C632 1.490 . S
C628 H618 0.930 . S
C628 C627 1.400 1_455 S
C628 C631 1.386 . S
H629 C645 0.930 . S
H630 C646 0.931 . S
C631 H619 0.929 . S
C631 C625 1.390 1_455 S
C631 C628 1.386 . S
C632 C627 1.490 . S
C632 C634 1.395 . S
C632 C635 1.403 1_655 S
H633 C639 0.930 . S
C634 H620 0.930 . S
C634 C632 1.395 . S
C634 C637 1.403 1_556 S
C635 C632 1.403 1_455 S
C635 C636 1.524 . S
C635 C639 1.400 1_556 S
C636 H621 0.960 . S
C636 H622 0.960 . S
C636 H623 0.960 . S
C636 C635 1.524 . S
C637 C634 1.403 1_554 S
C637 C638 1.392 . S
C637 C641 1.495 . S
C638 C637 1.392 . S
C638 C639 1.385 1_655 S
C638 C640 1.478 . S
C639 H633 0.930 . S
C639 C635 1.400 1_554 S
C639 C638 1.385 1_455 S
C640 C638 1.478 . S
C640 C642 1.381 . S
C640 C646 1.383 1_655 S
C641 C637 1.495 . S
C641 H647 0.959 . S
C641 H648 0.961 . S
C641 H649 0.960 . S
C642 C640 1.381 . S
C642 C643 1.394 . S
C642 H650 0.930 . S
C643 C642 1.394 . S
C643 C644 1.383 . S
C643 H651 0.929 . S
C644 C643 1.383 . S
C644 C645 1.377 1_655 S
C645 H629 0.930 . S
C645 C644 1.377 1_455 S
C645 C646 1.379 . S
C646 H630 0.931 . S
C646 C640 1.383 1_455 S
C646 C645 1.379 . S
H647 C641 0.959 . S
H648 C641 0.961 . S
H649 C641 0.960 . S
H650 C642 0.930 . S
H651 C643 0.929 . S
H652 C660 0.929 . S
H653 C662 0.930 . S
H654 C664 0.930 . S
H655 C667 0.929 . S
H656 C670 0.930 . S
H657 C672 0.960 . S
H658 C672 0.960 . S
H659 C672 0.960 . S
C660 H652 0.929 . S
C660 C661 1.377 1_545 S
C660 C662 1.384 . S
C661 C660 1.377 1_565 S
C661 C667 1.390 . S
C662 H653 0.930 . S
C662 C660 1.384 . S
C662 C663 1.372 1_545 S
C663 C662 1.372 1_565 S
C663 C664 1.400 . S
C663 C668 1.490 . S
C664 H654 0.930 . S
C664 C663 1.400 . S
C664 C667 1.386 . S
H665 C681 0.930 . S
H666 C682 0.931 . S
C667 H655 0.929 . S
C667 C661 1.390 . S
C667 C664 1.386 . S
C668 C663 1.490 . S
C668 C670 1.395 1_565 S
C668 C671 1.403 . S
H669 C675 0.930 . S
C670 H656 0.930 . S
C670 C668 1.395 1_545 S
C670 C673 1.403 . S
C671 C668 1.403 . S
C671 C672 1.524 . S
C671 C675 1.400 . S
C672 H657 0.960 . S
C672 H658 0.960 . S
C672 H659 0.960 . S
C672 C671 1.524 . S
C673 C670 1.403 . S
C673 C674 1.415 . S
C673 C677 1.495 . S
C674 C673 1.415 . S
C674 C675 1.362 1_545 S
C674 C676 1.477 . S
C675 H669 0.930 . S
C675 C671 1.400 . S
C675 C674 1.362 1_565 S
C676 C674 1.477 . S
C676 C678 1.394 . S
C676 C682 1.369 1_545 S
C677 C673 1.495 . S
C677 H683 0.959 . S
C677 H684 0.961 . S
C677 H685 0.960 . S
C678 C676 1.394 . S
C678 C679 1.394 . S
C678 H686 0.930 . S
C679 C678 1.394 . S
C679 C680 1.383 1_545 S
C679 H687 0.929 . S
C680 C679 1.383 1_565 S
C680 C681 1.377 . S
C681 H665 0.930 . S
C681 C680 1.377 . S
C681 C682 1.379 . S
C682 H666 0.931 . S
C682 C676 1.369 1_565 S
C682 C681 1.379 . S
H683 C677 0.959 . S
H684 C677 0.961 . S
H685 C677 0.960 . S
H686 C678 0.930 . S
H687 C679 0.929 . S
H688 C696 0.929 . S
H689 C698 0.930 . S
H690 C700 0.930 . S
H691 C703 0.929 . S
H692 C706 0.930 . S
H693 C708 0.960 . S
H694 C708 0.960 . S
H695 C708 0.960 . S
C696 H688 0.929 . S
C696 C697 1.377 . S
C696 C698 1.384 . S
C697 C696 1.377 . S
C697 C703 1.390 . S
C698 H689 0.930 . S
C698 C696 1.384 . S
C698 C699 1.372 . S
C699 C698 1.372 . S
C699 C700 1.400 . S
C699 C704 1.490 . S
C700 H690 0.930 . S
C700 C699 1.400 . S
C700 C703 1.386 . S
H701 C717 0.930 . S
H702 C718 0.931 . S
C703 H691 0.929 . S
C703 C697 1.390 . S
C703 C700 1.386 . S
C704 C699 1.490 . S
C704 C706 1.395 . S
C704 C707 1.403 . S
H705 C711 0.930 . S
C706 H692 0.930 . S
C706 C704 1.395 . S
C706 C709 1.403 1_556 S
C707 C704 1.403 . S
C707 C708 1.524 . S
C707 C711 1.400 1_556 S
C708 H693 0.960 . S
C708 H694 0.960 . S
C708 H695 0.960 . S
C708 C707 1.524 . S
C709 C706 1.403 1_554 S
C709 C710 1.392 . S
C709 C713 1.495 . S
C710 C709 1.392 . S
C710 C711 1.385 . S
C710 C712 1.478 . S
C711 H705 0.930 . S
C711 C707 1.400 1_554 S
C711 C710 1.385 . S
C712 C710 1.478 . S
C712 C714 1.381 . S
C712 C718 1.383 . S
C713 C709 1.495 . S
C713 H719 0.959 . S
C713 H720 0.961 . S
C713 H721 0.960 . S
C714 C712 1.381 . S
C714 C715 1.394 . S
C714 H722 0.930 . S
C715 C714 1.394 . S
C715 C716 1.383 . S
C715 H723 0.929 . S
C716 C715 1.383 . S
C716 C717 1.377 . S
C717 H701 0.930 . S
C717 C716 1.377 . S
C717 C718 1.379 . S
C718 H702 0.931 . S
C718 C712 1.383 . S
C718 C717 1.379 . S
H719 C713 0.959 . S
H720 C713 0.961 . S
H721 C713 0.960 . S
H722 C714 0.930 . S
H723 C715 0.929 . S
H724 C732 0.929 . S
H725 C734 0.930 . S
H726 C736 0.930 . S
H727 C739 0.929 . S
H728 C742 0.930 . S
H729 C744 0.960 . S
H730 C744 0.960 . S
H731 C744 0.960 . S
C732 H724 0.929 . S
C732 C733 1.377 . S
C732 C734 1.384 . S
C733 C732 1.377 . S
C733 C739 1.390 . S
C734 H725 0.930 . S
C734 C732 1.384 . S
C734 C735 1.372 . S
C735 C734 1.372 . S
C735 C736 1.400 . S
C735 C740 1.490 . S
C736 H726 0.930 . S
C736 C735 1.400 . S
C736 C739 1.386 . S
H737 C753 0.930 . S
H738 C754 0.931 . S
C739 H727 0.929 . S
C739 C733 1.390 . S
C739 C736 1.386 . S
C740 C735 1.490 . S
C740 C742 1.395 . S
C740 C743 1.403 . S
H741 C747 0.930 . S
C742 H728 0.930 . S
C742 C740 1.395 . S
C742 C745 1.403 . S
C743 C740 1.403 . S
C743 C744 1.524 . S
C743 C747 1.400 . S
C744 H729 0.960 . S
C744 H730 0.960 . S
C744 H731 0.960 . S
C744 C743 1.524 . S
C745 C742 1.403 . S
C745 C746 1.392 . S
C745 C749 1.495 . S
C746 C745 1.392 . S
C746 C747 1.385 . S
C746 C748 1.478 . S
C747 H741 0.930 . S
C747 C743 1.400 . S
C747 C746 1.385 . S
C748 C746 1.478 . S
C748 C750 1.381 . S
C748 C754 1.383 . S
C749 C745 1.495 . S
C749 H755 0.959 . S
C749 H756 0.961 . S
C749 H757 0.960 . S
C750 C748 1.381 . S
C750 C751 1.394 . S
C750 H758 0.930 . S
C751 C750 1.394 . S
C751 C752 1.383 . S
C751 H759 0.929 . S
C752 C751 1.383 . S
C752 C753 1.377 . S
C753 H737 0.930 . S
C753 C752 1.377 . S
C753 C754 1.379 . S
C754 H738 0.931 . S
C754 C748 1.383 . S
C754 C753 1.379 . S
H755 C749 0.959 . S
H756 C749 0.961 . S
H757 C749 0.960 . S
H758 C750 0.930 . S
H759 C751 0.929 . S
H760 C768 0.929 . S
H761 C770 0.930 . S
H762 C772 0.930 . S
H763 C775 0.929 . S
H764 C778 0.930 . S
H765 C780 0.960 . S
H766 C780 0.960 . S
H767 C780 0.960 1_455 S
C768 H760 0.929 . S
C768 C769 1.377 1_655 S
C768 C770 1.384 . S
C769 C768 1.377 1_455 S
C769 C775 1.390 . S
C770 H761 0.930 . S
C770 C768 1.384 . S
C770 C771 1.372 1_655 S
C771 C770 1.372 1_455 S
C771 C772 1.400 . S
C771 C776 1.490 . S
C772 H762 0.930 . S
C772 C771 1.400 . S
C772 C775 1.386 . S
H773 C789 0.930 . S
H774 C790 0.931 . S
C775 H763 0.929 . S
C775 C769 1.390 . S
C775 C772 1.386 . S
C776 C771 1.490 . S
C776 C778 1.395 . S
C776 C779 1.403 1_455 S
H777 C783 0.929 1_655 S
C778 H764 0.930 . S
C778 C776 1.395 . S
C778 C781 1.403 1_554 S
C779 C776 1.403 1_655 S
C779 C780 1.523 . S
C779 C783 1.400 1_654 S
C780 H765 0.960 . S
C780 H766 0.960 . S
C780 H767 0.960 1_655 S
C780 C779 1.523 . S
C781 C778 1.403 1_556 S
C781 C782 1.392 . S
C781 C785 1.495 . S
C782 C781 1.392 . S
C782 C783 1.385 . S
C782 C784 1.478 . S
C783 H777 0.929 1_455 S
C783 C779 1.400 1_456 S
C783 C782 1.385 . S
C784 C782 1.478 . S
C784 C786 1.381 1_455 S
C784 C790 1.383 . S
C785 C781 1.495 . S
C785 H791 0.959 . S
C785 H792 0.961 . S
C785 H793 0.960 1_455 S
C786 C784 1.381 1_655 S
C786 C787 1.394 . S
C786 H794 0.930 . S
C787 C786 1.394 . S
C787 C788 1.383 1_655 S
C787 H795 0.929 . S
C788 C787 1.383 1_455 S
C788 C789 1.377 . S
C789 H773 0.930 . S
C789 C788 1.377 . S
C789 C790 1.379 . S
C790 H774 0.931 . S
C790 C784 1.383 . S
C790 C789 1.379 . S
H791 C785 0.959 . S
H792 C785 0.961 . S
H793 C785 0.960 1_655 S
H794 C786 0.930 . S
H795 C787 0.929 . S
H796 C804 0.929 . S
H797 C806 0.930 . S
H798 C808 0.930 . S
H799 C811 0.929 . S
H800 C814 0.930 . S
H801 C816 0.960 . S
H802 C816 0.960 1_545 S
H803 C816 0.960 . S
C804 H796 0.929 . S
C804 C805 1.377 . S
C804 C806 1.384 . S
C805 C804 1.377 . S
C805 C811 1.390 1_545 S
C806 H797 0.930 . S
C806 C804 1.384 . S
C806 C807 1.372 . S
C807 C806 1.372 . S
C807 C808 1.400 1_545 S
C807 C812 1.490 . S
C808 H798 0.930 . S
C808 C807 1.400 1_565 S
C808 C811 1.386 . S
H809 C825 0.930 . S
H810 C826 0.931 . S
C811 H799 0.929 . S
C811 C805 1.390 1_565 S
C811 C808 1.386 . S
C812 C807 1.490 . S
C812 C814 1.395 . S
C812 C815 1.403 1_545 S
H813 C819 0.940 . S
C814 H800 0.930 . S
C814 C812 1.395 . S
C814 C817 1.403 . S
C815 C812 1.403 1_565 S
C815 C816 1.524 . S
C815 C819 1.401 . S
C816 H801 0.960 . S
C816 H802 0.960 1_565 S
C816 H803 0.960 . S
C816 C815 1.524 . S
C817 C814 1.403 . S
C817 C818 1.392 . S
C817 C821 1.495 . S
C818 C817 1.392 . S
C818 C819 1.377 1_545 S
C818 C820 1.478 . S
C819 H813 0.940 . S
C819 C815 1.401 . S
C819 C818 1.377 1_565 S
C820 C818 1.478 . S
C820 C822 1.381 . S
C820 C826 1.383 1_545 S
C821 C817 1.495 . S
C821 H827 0.959 . S
C821 H828 0.961 . S
C821 H829 0.960 . S
C822 C820 1.381 . S
C822 C823 1.394 . S
C822 H830 0.930 . S
C823 C822 1.394 . S
C823 C824 1.383 . S
C823 H831 0.929 . S
C824 C823 1.383 . S
C824 C825 1.377 1_545 S
C825 H809 0.930 . S
C825 C824 1.377 1_565 S
C825 C826 1.379 . S
C826 H810 0.931 . S
C826 C820 1.383 1_565 S
C826 C825 1.379 . S
H827 C821 0.959 . S
H828 C821 0.961 . S
H829 C821 0.960 . S
H830 C822 0.930 . S
H831 C823 0.929 . S
H832 C840 0.929 . S
H833 C842 0.930 . S
H834 C844 0.930 . S
H835 C847 0.929 . S
H836 C850 0.930 . S
H837 C852 0.960 . S
H838 C852 0.960 . S
H839 C852 0.960 . S
C840 H832 0.929 . S
C840 C841 1.377 . S
C840 C842 1.384 . S
C841 C840 1.377 . S
C841 C847 1.390 . S
C842 H833 0.930 . S
C842 C840 1.384 . S
C842 C843 1.372 . S
C843 C842 1.372 . S
C843 C844 1.400 . S
C843 C848 1.490 . S
C844 H834 0.930 . S
C844 C843 1.400 . S
C844 C847 1.386 . S
H845 C861 0.930 . S
H846 C862 0.931 . S
C847 H835 0.929 . S
C847 C841 1.390 . S
C847 C844 1.386 . S
C848 C843 1.490 . S
C848 C850 1.395 . S
C848 C851 1.403 . S
H849 C855 0.930 . S
C850 H836 0.930 . S
C850 C848 1.395 . S
C850 C853 1.403 . S
C851 C848 1.403 . S
C851 C852 1.524 . S
C851 C855 1.400 . S
C852 H837 0.960 . S
C852 H838 0.960 . S
C852 H839 0.960 . S
C852 C851 1.524 . S
C853 C850 1.403 . S
C853 C854 1.392 . S
C853 C857 1.495 . S
C854 C853 1.392 . S
C854 C855 1.385 . S
C854 C856 1.478 1_565 S
C855 H849 0.930 . S
C855 C851 1.400 . S
C855 C854 1.385 . S
C856 C854 1.478 1_545 S
C856 C858 1.381 . S
C856 C862 1.383 . S
C857 C853 1.495 . S
C857 H863 0.959 . S
C857 H864 0.961 . S
C857 H865 0.960 . S
C858 C856 1.381 . S
C858 C859 1.394 . S
C858 H866 0.930 . S
C859 C858 1.394 . S
C859 C860 1.383 . S
C859 H867 0.929 . S
C860 C859 1.383 . S
C860 C861 1.377 . S
C861 H845 0.930 . S
C861 C860 1.377 . S
C861 C862 1.379 . S
C862 H846 0.931 . S
C862 C856 1.383 . S
C862 C861 1.379 . S
H863 C857 0.959 . S
H864 C857 0.961 . S
H865 C857 0.960 . S
H866 C858 0.930 . S
H867 C859 0.929 . S
H868 C876 0.929 . S
H869 C878 0.930 . S
H870 C880 0.930 . S
H871 C883 0.929 . S
H872 C886 0.930 . S
H873 C888 0.960 . S
H874 C888 0.960 . S
H875 C888 0.960 . S
C876 H868 0.929 . S
C876 C877 1.377 . S
C876 C878 1.384 . S
C877 C876 1.377 . S
C877 C883 1.390 . S
C878 H869 0.930 . S
C878 C876 1.384 . S
C878 C879 1.372 . S
C879 C878 1.372 . S
C879 C880 1.400 . S
C879 C884 1.490 . S
C880 H870 0.930 . S
C880 C879 1.400 . S
C880 C883 1.386 . S
H881 C897 0.930 . S
H882 C898 0.931 . S
C883 H871 0.929 . S
C883 C877 1.390 . S
C883 C880 1.386 . S
C884 C879 1.490 . S
C884 C886 1.395 . S
C884 C887 1.403 . S
H885 C891 0.930 . S
C886 H872 0.930 . S
C886 C884 1.395 . S
C886 C889 1.403 . S
C887 C884 1.403 . S
C887 C888 1.524 . S
C887 C891 1.400 . S
C888 H873 0.960 . S
C888 H874 0.960 . S
C888 H875 0.960 . S
C888 C887 1.524 . S
C889 C886 1.403 . S
C889 C890 1.392 . S
C889 C893 1.495 . S
C890 C889 1.392 . S
C890 C891 1.385 . S
C890 C892 1.478 . S
C891 H885 0.930 . S
C891 C887 1.400 . S
C891 C890 1.385 . S
C892 C890 1.478 . S
C892 C894 1.381 . S
C892 C898 1.383 . S
C893 C889 1.495 . S
C893 H899 0.959 . S
C893 H900 0.961 . S
C893 H901 0.960 . S
C894 C892 1.381 . S
C894 C895 1.394 . S
C894 H902 0.930 . S
C895 C894 1.394 . S
C895 C896 1.383 . S
C895 H903 0.929 . S
C896 C895 1.383 . S
C896 C897 1.377 . S
C897 H881 0.930 . S
C897 C896 1.377 . S
C897 C898 1.379 . S
C898 H882 0.931 . S
C898 C892 1.383 . S
C898 C897 1.379 . S
H899 C893 0.959 . S
H900 C893 0.961 . S
H901 C893 0.960 . S
H902 C894 0.930 . S
H903 C895 0.929 . S
H904 C912 0.929 . S
H905 C914 0.930 . S
H906 C916 0.930 . S
H907 C919 0.929 . S
H908 C922 0.931 . S
H909 C924 0.960 . S
H910 C924 0.960 . S
H911 C924 0.960 . S
C912 H904 0.929 . S
C912 C913 1.377 . S
C912 C914 1.384 . S
C913 C912 1.377 . S
C913 C919 1.390 1_655 S
C914 H905 0.930 . S
C914 C912 1.384 . S
C914 C915 1.372 . S
C915 C914 1.372 . S
C915 C916 1.400 1_655 S
C915 C920 1.490 . S
C916 H906 0.930 . S
C916 C915 1.400 1_455 S
C916 C919 1.386 . S
H917 C933 0.930 . S
H918 C934 0.931 . S
C919 H907 0.929 . S
C919 C913 1.390 1_455 S
C919 C916 1.386 . S
C920 C915 1.490 . S
C920 C922 1.394 1_655 S
C920 C923 1.403 . S
H921 C927 0.930 . S
C922 H908 0.931 . S
C922 C920 1.394 1_455 S
C922 C925 1.403 1_455 S
C923 C920 1.403 . S
C923 C924 1.524 . S
C923 C927 1.400 . S
C924 H909 0.960 . S
C924 H910 0.960 . S
C924 H911 0.960 . S
C924 C923 1.524 . S
C925 C922 1.403 1_655 S
C925 C926 1.394 . S
C925 C929 1.493 1_655 S
C926 C925 1.394 . S
C926 C927 1.385 . S
C926 C928 1.478 . S
C927 H921 0.930 . S
C927 C923 1.400 . S
C927 C926 1.385 . S
C928 C926 1.478 . S
C928 C930 1.381 . S
C928 C934 1.383 1_655 S
C929 C925 1.493 1_455 S
C929 H935 0.959 . S
C929 H936 0.961 . S
C929 H937 0.960 1_455 S
C930 C928 1.381 . S
C930 C931 1.394 . S
C930 H938 0.930 . S
C931 C930 1.394 . S
C931 C932 1.383 . S
C931 H939 0.929 . S
C932 C931 1.383 . S
C932 C933 1.377 1_655 S
C933 H917 0.930 . S
C933 C932 1.377 1_455 S
C933 C934 1.379 . S
C934 H918 0.931 . S
C934 C928 1.383 1_455 S
C934 C933 1.379 . S
H935 C929 0.959 . S
H936 C929 0.961 . S
H937 C929 0.960 1_655 S
H938 C930 0.930 . S
H939 C931 0.929 . S
H940 C948 0.929 . S
H941 C950 0.930 . S
H942 C952 0.930 . S
H943 C955 0.929 . S
H944 C958 0.930 . S
H945 C960 0.960 . S
H946 C960 0.960 . S
H947 C960 0.960 1_565 S
C948 H940 0.929 . S
C948 C949 1.377 1_545 S
C948 C950 1.384 . S
C949 C948 1.377 1_565 S
C949 C955 1.390 . S
C950 H941 0.930 . S
C950 C948 1.384 . S
C950 C951 1.372 1_545 S
C951 C950 1.372 1_565 S
C951 C952 1.400 . S
C951 C956 1.490 . S
C952 H942 0.930 . S
C952 C951 1.400 . S
C952 C955 1.386 . S
H953 C969 0.930 . S
H954 C970 0.931 . S
C955 H943 0.929 . S
C955 C949 1.390 . S
C955 C952 1.386 . S
C956 C951 1.490 . S
C956 C958 1.395 . S
C956 C959 1.403 1_565 S
H957 C963 0.930 . S
C958 H944 0.930 . S
C958 C956 1.395 . S
C958 C961 1.403 . S
C959 C956 1.403 1_545 S
C959 C960 1.524 . S
C959 C963 1.400 . S
C960 H945 0.960 . S
C960 H946 0.960 . S
C960 H947 0.960 1_545 S
C960 C959 1.524 . S
C961 C958 1.403 . S
C961 C962 1.392 . S
C961 C965 1.495 . S
C962 C961 1.392 . S
C962 C963 1.385 1_565 S
C962 C964 1.478 1_655 S
C963 H957 0.930 . S
C963 C959 1.400 . S
C963 C962 1.385 1_545 S
C964 C962 1.478 1_455 S
C964 C966 1.381 1_565 S
C964 C970 1.383 . S
C965 C961 1.495 . S
C965 H971 0.959 . S
C965 H972 0.961 . S
C965 H973 0.960 . S
C966 C964 1.381 1_545 S
C966 C967 1.394 . S
C966 H974 0.930 . S
C967 C966 1.394 . S
C967 C968 1.383 1_545 S
C967 H975 0.929 . S
C968 C967 1.383 1_565 S
C968 C969 1.377 . S
C969 H953 0.930 . S
C969 C968 1.377 . S
C969 C970 1.379 . S
C970 H954 0.931 . S
C970 C964 1.383 . S
C970 C969 1.379 . S
H971 C965 0.959 . S
H972 C965 0.961 . S
H973 C965 0.960 . S
H974 C966 0.930 . S
H975 C967 0.929 . S
H976 C984 0.929 . S
H977 C986 0.930 . S
H978 C988 0.930 . S
H979 C991 0.929 . S
H980 C994 0.930 . S
H981 C996 0.960 . S
H982 C996 0.960 . S
H983 C996 0.960 . S
C984 H976 0.929 . S
C984 C985 1.377 . S
C984 C986 1.384 . S
C985 C984 1.377 . S
C985 C991 1.390 . S
C986 H977 0.930 . S
C986 C984 1.384 . S
C986 C987 1.372 . S
C987 C986 1.372 . S
C987 C988 1.400 . S
C987 C992 1.490 . S
C988 H978 0.930 . S
C988 C987 1.400 . S
C988 C991 1.386 . S
H989 C1005 0.930 . S
H990 C1006 0.931 . S
C991 H979 0.929 . S
C991 C985 1.390 . S
C991 C988 1.386 . S
C992 C987 1.490 . S
C992 C994 1.395 . S
C992 C995 1.403 . S
H993 C999 0.930 . S
C994 H980 0.930 . S
C994 C992 1.395 . S
C994 C997 1.403 . S
C995 C992 1.403 . S
C995 C996 1.524 . S
C995 C999 1.400 . S
C996 H981 0.960 . S
C996 H982 0.960 . S
C996 H983 0.960 . S
C996 C995 1.524 . S
C997 C994 1.403 . S
C997 C998 1.392 . S
C997 C1001 1.495 . S
C998 C997 1.392 . S
C998 C999 1.385 . S
C998 C1000 1.478 . S
C999 H993 0.930 . S
C999 C995 1.400 . S
C999 C998 1.385 . S
C1000 C998 1.478 . S
C1000 C1002 1.381 . S
C1000 C1006 1.383 . S
C1001 C997 1.495 . S
C1001 H1007 0.959 . S
C1001 H1008 0.961 . S
C1001 H1009 0.960 . S
C1002 C1000 1.381 . S
C1002 C1003 1.394 . S
C1002 H1010 0.930 . S
C1003 C1002 1.394 . S
C1003 C1004 1.383 . S
C1003 H1011 0.929 . S
C1004 C1003 1.383 . S
C1004 C1005 1.377 . S
C1005 H989 0.930 . S
C1005 C1004 1.377 . S
C1005 C1006 1.379 . S
C1006 H990 0.931 . S
C1006 C1000 1.383 . S
C1006 C1005 1.379 . S
H1007 C1001 0.959 . S
H1008 C1001 0.961 . S
H1009 C1001 0.960 . S
H1010 C1002 0.930 . S
H1011 C1003 0.929 . S
H1012 C1020 0.929 . S
H1013 C1022 0.930 . S
H1014 C1024 0.930 . S
H1015 C1027 0.929 . S
H1016 C1030 0.930 . S
H1017 C1032 0.960 . S
H1018 C1032 0.960 . S
H1019 C1032 0.960 . S
C1020 H1012 0.929 . S
C1020 C1021 1.377 . S
C1020 C1022 1.384 . S
C1021 C1020 1.377 . S
C1021 C1027 1.390 . S
C1022 H1013 0.930 . S
C1022 C1020 1.384 . S
C1022 C1023 1.372 . S
C1023 C1022 1.372 . S
C1023 C1024 1.400 . S
C1023 C1028 1.490 . S
C1024 H1014 0.930 . S
C1024 C1023 1.400 . S
C1024 C1027 1.386 . S
H1025 C1041 0.930 . S
H1026 C1042 0.931 . S
C1027 H1015 0.929 . S
C1027 C1021 1.390 . S
C1027 C1024 1.386 . S
C1028 C1023 1.490 . S
C1028 C1030 1.395 . S
C1028 C1031 1.403 . S
H1029 C1035 0.930 . S
C1030 H1016 0.930 . S
C1030 C1028 1.395 . S
C1030 C1033 1.403 . S
C1031 C1028 1.403 . S
C1031 C1032 1.524 . S
C1031 C1035 1.400 . S
C1032 H1017 0.960 . S
C1032 H1018 0.960 . S
C1032 H1019 0.960 . S
C1032 C1031 1.524 . S
C1033 C1030 1.403 . S
C1033 C1034 1.392 . S
C1033 C1037 1.495 . S
C1034 C1033 1.392 . S
C1034 C1035 1.385 . S
C1034 C1036 1.478 1_655 S
C1035 H1029 0.930 . S
C1035 C1031 1.400 . S
C1035 C1034 1.385 . S
C1036 C1034 1.478 1_455 S
C1036 C1038 1.381 . S
C1036 C1042 1.383 . S
C1037 C1033 1.495 . S
C1037 H1043 0.959 . S
C1037 H1044 0.961 . S
C1037 H1045 0.960 . S
C1038 C1036 1.381 . S
C1038 C1039 1.394 . S
C1038 H1046 0.930 . S
C1039 C1038 1.394 . S
C1039 C1040 1.383 . S
C1039 H1047 0.929 . S
C1040 C1039 1.383 . S
C1040 C1041 1.377 . S
C1041 H1025 0.930 . S
C1041 C1040 1.377 . S
C1041 C1042 1.379 . S
C1042 H1026 0.931 . S
C1042 C1036 1.383 . S
C1042 C1041 1.379 . S
H1043 C1037 0.959 . S
H1044 C1037 0.961 . S
H1045 C1037 0.960 . S
H1046 C1038 0.930 . S
H1047 C1039 0.929 . S
H1048 C1056 0.929 . S
H1049 C1058 0.930 . S
H1050 C1060 0.930 . S
H1051 C1063 0.929 . S
H1052 C1066 0.930 . S
H1053 C1068 0.960 . S
H1054 C1068 0.960 . S
H1055 C1068 0.960 . S
C1056 H1048 0.929 . S
C1056 C1057 1.377 1_455 S
C1056 C1058 1.384 . S
C1057 C1056 1.377 1_655 S
C1057 C1063 1.390 . S
C1058 H1049 0.930 . S
C1058 C1056 1.384 . S
C1058 C1059 1.372 1_455 S
C1059 C1058 1.372 1_655 S
C1059 C1060 1.400 . S
C1059 C1064 1.490 1_545 S
C1060 H1050 0.930 . S
C1060 C1059 1.400 . S
C1060 C1063 1.386 . S
H1061 C1077 0.930 . S
H1062 C1078 0.931 . S
C1063 H1051 0.929 . S
C1063 C1057 1.390 . S
C1063 C1060 1.386 . S
C1064 C1059 1.490 1_565 S
C1064 C1066 1.395 1_655 S
C1064 C1067 1.403 . S
H1065 C1071 0.930 . S
C1066 H1052 0.930 . S
C1066 C1064 1.395 1_455 S
C1066 C1069 1.403 . S
C1067 C1064 1.403 . S
C1067 C1068 1.524 . S
C1067 C1071 1.400 . S
C1068 H1053 0.960 . S
C1068 H1054 0.960 . S
C1068 H1055 0.960 . S
C1068 C1067 1.524 . S
C1069 C1066 1.403 . S
C1069 C1070 1.392 1_455 S
C1069 C1073 1.495 . S
C1070 C1069 1.392 1_655 S
C1070 C1071 1.385 . S
C1070 C1072 1.478 . S
C1071 H1065 0.930 . S
C1071 C1067 1.400 . S
C1071 C1070 1.385 . S
C1072 C1070 1.478 . S
C1072 C1074 1.381 1_655 S
C1072 C1078 1.383 . S
C1073 C1069 1.495 . S
C1073 H1079 0.959 . S
C1073 H1080 0.961 . S
C1073 H1081 0.960 . S
C1074 C1072 1.381 1_455 S
C1074 C1075 1.394 . S
C1074 H1082 0.930 . S
C1075 C1074 1.394 . S
C1075 C1076 1.383 1_455 S
C1075 H1083 0.929 . S
C1076 C1075 1.383 1_655 S
C1076 C1077 1.377 . S
C1077 H1061 0.930 . S
C1077 C1076 1.377 . S
C1077 C1078 1.379 . S
C1078 H1062 0.931 . S
C1078 C1072 1.383 . S
C1078 C1077 1.379 . S
H1079 C1073 0.959 . S
H1080 C1073 0.961 . S
H1081 C1073 0.960 . S
H1082 C1074 0.930 . S
H1083 C1075 0.929 . S
H1084 C1092 0.929 . S
H1085 C1094 0.930 . S
H1086 C1096 0.930 . S
H1087 C1099 0.929 . S
H1088 C1102 0.930 . S
H1089 C1104 0.960 . S
H1090 C1104 0.960 . S
H1091 C1104 0.960 . S
C1092 H1084 0.929 . S
C1092 C1093 1.346 1_545 S
C1092 C1094 1.384 . S
C1093 C1092 1.346 1_565 S
C1093 C1099 1.423 . S
C1094 H1085 0.930 . S
C1094 C1092 1.384 . S
C1094 C1095 1.372 1_545 S
C1095 C1094 1.372 1_565 S
C1095 C1096 1.400 . S
C1095 C1100 1.490 . S
C1096 H1086 0.930 . S
C1096 C1095 1.400 . S
C1096 C1099 1.386 . S
H1097 C1113 0.930 . S
H1098 C1114 0.931 . S
C1099 H1087 0.929 . S
C1099 C1093 1.423 . S
C1099 C1096 1.386 . S
C1100 C1095 1.490 . S
C1100 C1102 1.395 1_565 S
C1100 C1103 1.403 . S
H1101 C1107 0.930 . S
C1102 H1088 0.930 . S
C1102 C1100 1.395 1_545 S
C1102 C1105 1.403 . S
C1103 C1100 1.403 . S
C1103 C1104 1.524 . S
C1103 C1107 1.400 . S
C1104 H1089 0.960 . S
C1104 H1090 0.960 . S
C1104 H1091 0.960 . S
C1104 C1103 1.524 . S
C1105 C1102 1.403 . S
C1105 C1106 1.392 1_545 S
C1105 C1109 1.495 . S
C1106 C1105 1.392 1_565 S
C1106 C1107 1.385 . S
C1106 C1108 1.478 . S
C1107 H1101 0.930 . S
C1107 C1103 1.400 . S
C1107 C1106 1.385 . S
C1108 C1106 1.478 . S
C1108 C1110 1.381 1_565 S
C1108 C1114 1.383 . S
C1109 C1105 1.495 . S
C1109 H1115 0.959 . S
C1109 H1116 0.961 . S
C1109 H1117 0.960 . S
C1110 C1108 1.381 1_545 S
C1110 C1111 1.394 . S
C1110 H1118 0.930 . S
C1111 C1110 1.394 . S
C1111 C1112 1.383 1_545 S
C1111 H1119 0.929 . S
C1112 C1111 1.383 1_565 S
C1112 C1113 1.377 . S
C1113 H1097 0.930 . S
C1113 C1112 1.377 . S
C1113 C1114 1.379 . S
C1114 H1098 0.931 . S
C1114 C1108 1.383 . S
C1114 C1113 1.379 . S
H1115 C1109 0.959 . S
H1116 C1109 0.961 . S
H1117 C1109 0.960 . S
H1118 C1110 0.930 . S
H1119 C1111 0.929 . S
H1120 C1128 0.929 . S
H1121 C1130 0.930 . S
H1122 C1132 0.930 . S
H1123 C1135 0.929 . S
H1124 C1138 0.930 . S
H1125 C1140 0.960 . S
H1126 C1140 0.960 . S
H1127 C1140 0.960 . S
C1128 H1120 0.929 . S
C1128 C1129 1.377 . S
C1128 C1130 1.384 . S
C1129 C1128 1.377 . S
C1129 C1135 1.390 . S
C1130 H1121 0.930 . S
C1130 C1128 1.384 . S
C1130 C1131 1.372 . S
C1131 C1130 1.372 . S
C1131 C1132 1.400 . S
C1131 C1136 1.490 . S
C1132 H1122 0.930 . S
C1132 C1131 1.400 . S
C1132 C1135 1.386 . S
H1133 C1149 0.930 . S
H1134 C1150 0.931 . S
C1135 H1123 0.929 . S
C1135 C1129 1.390 . S
C1135 C1132 1.386 . S
C1136 C1131 1.490 . S
C1136 C1138 1.395 . S
C1136 C1139 1.403 . S
H1137 C1143 0.930 . S
C1138 H1124 0.930 . S
C1138 C1136 1.395 . S
C1138 C1141 1.403 . S
C1139 C1136 1.403 . S
C1139 C1140 1.524 . S
C1139 C1143 1.400 . S
C1140 H1125 0.960 . S
C1140 H1126 0.960 . S
C1140 H1127 0.960 . S
C1140 C1139 1.524 . S
C1141 C1138 1.403 . S
C1141 C1142 1.392 . S
C1141 C1145 1.495 . S
C1142 C1141 1.392 . S
C1142 C1143 1.385 . S
C1142 C1144 1.478 1_545 S
C1143 H1137 0.930 . S
C1143 C1139 1.400 . S
C1143 C1142 1.385 . S
C1144 C1142 1.478 1_565 S
C1144 C1146 1.381 . S
C1144 C1150 1.383 . S
C1145 C1141 1.495 . S
C1145 H1151 0.959 . S
C1145 H1152 0.961 . S
C1145 H1153 0.960 . S
C1146 C1144 1.381 . S
C1146 C1147 1.394 . S
C1146 H1154 0.930 . S
C1147 C1146 1.394 . S
C1147 C1148 1.383 . S
C1147 H1155 0.929 . S
C1148 C1147 1.383 . S
C1148 C1149 1.377 . S
C1149 H1133 0.930 . S
C1149 C1148 1.377 . S
C1149 C1150 1.379 . S
C1150 H1134 0.931 . S
C1150 C1144 1.383 . S
C1150 C1149 1.379 . S
H1151 C1145 0.959 . S
H1152 C1145 0.961 . S
H1153 C1145 0.960 . S
H1154 C1146 0.930 . S
H1155 C1147 0.929 . S
H1156 C1164 0.929 . S
H1157 C1166 0.930 . S
H1158 C1168 0.930 . S
H1159 C1171 0.929 . S
H1160 C1174 0.930 . S
H1161 C1176 0.960 . S
H1162 C1176 0.960 . S
H1163 C1176 0.960 . S
C1164 H1156 0.929 . S
C1164 C1165 1.377 . S
C1164 C1166 1.384 . S
C1165 C1164 1.377 . S
C1165 C1171 1.390 . S
C1166 H1157 0.930 . S
C1166 C1164 1.384 . S
C1166 C1167 1.372 . S
C1167 C1166 1.372 . S
C1167 C1168 1.400 . S
C1167 C1172 1.490 . S
C1168 H1158 0.930 . S
C1168 C1167 1.400 . S
C1168 C1171 1.386 . S
H1169 C1185 0.930 . S
H1170 C1186 0.931 . S
C1171 H1159 0.929 . S
C1171 C1165 1.390 . S
C1171 C1168 1.386 . S
C1172 C1167 1.490 . S
C1172 C1174 1.395 . S
C1172 C1175 1.403 . S
H1173 C1179 0.930 . S
C1174 H1160 0.930 . S
C1174 C1172 1.395 . S
C1174 C1177 1.403 . S
C1175 C1172 1.403 . S
C1175 C1176 1.524 . S
C1175 C1179 1.400 . S
C1176 H1161 0.960 . S
C1176 H1162 0.960 . S
C1176 H1163 0.960 . S
C1176 C1175 1.524 . S
C1177 C1174 1.403 . S
C1177 C1178 1.392 . S
C1177 C1181 1.495 . S
C1178 C1177 1.392 . S
C1178 C1179 1.385 . S
C1178 C1180 1.478 . S
C1179 H1173 0.930 . S
C1179 C1175 1.400 . S
C1179 C1178 1.385 . S
C1180 C1178 1.478 . S
C1180 C1182 1.381 . S
C1180 C1186 1.383 . S
C1181 C1177 1.495 . S
C1181 H1187 0.959 . S
C1181 H1188 0.961 . S
C1181 H1189 0.960 . S
C1182 C1180 1.381 . S
C1182 C1183 1.394 . S
C1182 H1190 0.930 . S
C1183 C1182 1.394 . S
C1183 C1184 1.383 . S
C1183 H1191 0.929 . S
C1184 C1183 1.383 . S
C1184 C1185 1.377 . S
C1185 H1169 0.930 . S
C1185 C1184 1.377 . S
C1185 C1186 1.379 . S
C1186 H1170 0.931 . S
C1186 C1180 1.383 . S
C1186 C1185 1.379 . S
H1187 C1181 0.959 . S
H1188 C1181 0.961 . S
H1189 C1181 0.960 . S
H1190 C1182 0.930 . S
H1191 C1183 0.929 . S
H1192 C1200 0.929 . S
H1193 C1202 0.936 . S
H1194 C1204 0.930 . S
H1195 C1207 0.929 . S
H1196 C1210 0.930 . S
H1197 C1212 0.960 . S
H1198 C1212 0.960 . S
H1199 C1212 0.960 . S
C1200 H1192 0.929 . S
C1200 C1201 1.377 . S
C1200 C1202 1.384 . S
C1201 C1200 1.377 . S
C1201 C1207 1.390 . S
C1202 H1193 0.936 . S
C1202 C1200 1.384 . S
C1202 C1203 1.372 . S
C1203 C1202 1.372 . S
C1203 C1204 1.400 . S
C1203 C1208 1.490 . S
C1204 H1194 0.930 . S
C1204 C1203 1.400 . S
C1204 C1207 1.386 . S
H1205 C1221 0.930 . S
H1206 C1222 0.931 . S
C1207 H1195 0.929 . S
C1207 C1201 1.390 . S
C1207 C1204 1.386 . S
C1208 C1203 1.490 . S
C1208 C1210 1.395 1_455 S
C1208 C1211 1.403 . S
H1209 C1215 0.930 . S
C1210 H1196 0.930 . S
C1210 C1208 1.395 1_655 S
C1210 C1213 1.403 . S
C1211 C1208 1.403 . S
C1211 C1212 1.524 . S
C1211 C1215 1.400 . S
C1212 H1197 0.960 . S
C1212 H1198 0.960 . S
C1212 H1199 0.960 . S
C1212 C1211 1.524 . S
C1213 C1210 1.403 . S
C1213 C1214 1.376 1_655 S
C1213 C1217 1.495 . S
C1214 C1213 1.376 1_455 S
C1214 C1215 1.403 . S
C1214 C1216 1.476 1_455 S
C1215 H1209 0.930 . S
C1215 C1211 1.400 . S
C1215 C1214 1.403 . S
C1216 C1214 1.476 1_655 S
C1216 C1218 1.381 . S
C1216 C1222 1.383 1_655 S
C1217 C1213 1.495 . S
C1217 H1223 0.959 . S
C1217 H1224 0.961 . S
C1217 H1225 0.960 . S
C1218 C1216 1.381 . S
C1218 C1219 1.394 . S
C1218 H1226 0.930 . S
C1219 C1218 1.394 . S
C1219 C1220 1.383 . S
C1219 H1227 0.929 . S
C1220 C1219 1.383 . S
C1220 C1221 1.377 1_655 S
C1221 H1205 0.930 . S
C1221 C1220 1.377 1_455 S
C1221 C1222 1.379 . S
C1222 H1206 0.931 . S
C1222 C1216 1.383 1_455 S
C1222 C1221 1.379 . S
H1223 C1217 0.959 . S
H1224 C1217 0.961 . S
H1225 C1217 0.960 . S
H1226 C1218 0.930 . S
H1227 C1219 0.929 . S
H1228 C1236 0.929 . S
H1229 C1238 0.930 . S
H1230 C1240 0.930 . S
H1231 C1243 0.929 . S
H1232 C1246 0.930 . S
H1233 C1248 0.960 . S
H1234 C1248 0.960 1_545 S
H1235 C1248 0.960 . S
C1236 H1228 0.929 . S
C1236 C1237 1.377 . S
C1236 C1238 1.384 . S
C1237 C1236 1.377 . S
C1237 C1243 1.390 1_545 S
C1238 H1229 0.930 . S
C1238 C1236 1.384 . S
C1238 C1239 1.372 . S
C1239 C1238 1.372 . S
C1239 C1240 1.400 1_545 S
C1239 C1244 1.490 1_655 S
C1240 H1230 0.930 . S
C1240 C1239 1.400 1_565 S
C1240 C1243 1.386 . S
H1241 C1257 0.930 . S
H1242 C1258 0.931 . S
C1243 H1231 0.929 . S
C1243 C1237 1.390 1_565 S
C1243 C1240 1.386 . S
C1244 C1239 1.490 1_455 S
C1244 C1246 1.395 . S
C1244 C1247 1.406 . S
H1245 C1251 0.930 1_565 S
C1246 H1232 0.930 . S
C1246 C1244 1.395 . S
C1246 C1249 1.403 . S
C1247 C1244 1.406 . S
C1247 C1248 1.520 1_545 S
C1247 C1251 1.401 . S
C1248 H1233 0.960 . S
C1248 H1234 0.960 1_565 S
C1248 H1235 0.960 . S
C1248 C1247 1.520 1_565 S
C1249 C1246 1.403 . S
C1249 C1250 1.392 . S
C1249 C1253 1.495 . S
C1250 C1249 1.392 . S
C1250 C1251 1.385 . S
C1250 C1252 1.478 . S
C1251 H1245 0.930 1_545 S
C1251 C1247 1.401 . S
C1251 C1250 1.385 . S
C1252 C1250 1.478 . S
C1252 C1254 1.381 . S
C1252 C1258 1.383 1_545 S
C1253 C1249 1.495 . S
C1253 H1259 0.959 . S
C1253 H1260 0.961 . S
C1253 H1261 0.960 . S
C1254 C1252 1.381 . S
C1254 C1255 1.394 . S
C1254 H1262 0.930 . S
C1255 C1254 1.394 . S
C1255 C1256 1.383 . S
C1255 H1263 0.929 . S
C1256 C1255 1.383 . S
C1256 C1257 1.377 1_545 S
C1257 H1241 0.930 . S
C1257 C1256 1.377 1_565 S
C1257 C1258 1.379 . S
C1258 H1242 0.931 . S
C1258 C1252 1.383 1_565 S
C1258 C1257 1.379 . S
H1259 C1253 0.959 . S
H1260 C1253 0.961 . S
H1261 C1253 0.960 . S
H1262 C1254 0.930 . S
H1263 C1255 0.929 . S
H1264 C1272 0.929 . S
H1265 C1274 0.930 . S
H1266 C1276 0.930 . S
H1267 C1279 0.929 . S
H1268 C1282 0.930 . S
H1269 C1284 0.960 . S
H1270 C1284 0.960 . S
H1271 C1284 0.960 . S
C1272 H1264 0.929 . S
C1272 C1273 1.377 . S
C1272 C1274 1.384 . S
C1273 C1272 1.377 . S
C1273 C1279 1.390 . S
C1274 H1265 0.930 . S
C1274 C1272 1.384 . S
C1274 C1275 1.372 . S
C1275 C1274 1.372 . S
C1275 C1276 1.400 . S
C1275 C1280 1.490 . S
C1276 H1266 0.930 . S
C1276 C1275 1.400 . S
C1276 C1279 1.386 . S
H1277 C1293 0.930 . S
H1278 C1294 0.931 . S
C1279 H1267 0.929 . S
C1279 C1273 1.390 . S
C1279 C1276 1.386 . S
C1280 C1275 1.490 . S
C1280 C1282 1.395 . S
C1280 C1283 1.403 . S
H1281 C1287 0.930 . S
C1282 H1268 0.930 . S
C1282 C1280 1.395 . S
C1282 C1285 1.403 . S
C1283 C1280 1.403 . S
C1283 C1284 1.524 . S
C1283 C1287 1.400 . S
C1284 H1269 0.960 . S
C1284 H1270 0.960 . S
C1284 H1271 0.960 . S
C1284 C1283 1.524 . S
C1285 C1282 1.403 . S
C1285 C1286 1.392 . S
C1285 C1289 1.495 . S
C1286 C1285 1.392 . S
C1286 C1287 1.385 . S
C1286 C1288 1.478 . S
C1287 H1281 0.930 . S
C1287 C1283 1.400 . S
C1287 C1286 1.385 . S
C1288 C1286 1.478 . S
C1288 C1290 1.381 . S
C1288 C1294 1.383 . S
C1289 C1285 1.495 . S
C1289 H1295 0.959 . S
C1289 H1296 0.961 . S
C1289 H1297 0.960 . S
C1290 C1288 1.381 . S
C1290 C1291 1.394 . S
C1290 H1298 0.930 . S
C1291 C1290 1.394 . S
C1291 C1292 1.383 . S
C1291 H1299 0.929 . S
C1292 C1291 1.383 . S
C1292 C1293 1.377 . S
C1293 H1277 0.930 . S
C1293 C1292 1.377 . S
C1293 C1294 1.379 . S
C1294 H1278 0.931 . S
C1294 C1288 1.383 . S
C1294 C1293 1.379 . S
H1295 C1289 0.959 . S
H1296 C1289 0.961 . S
H1297 C1289 0.960 . S
H1298 C1290 0.930 . S
H1299 C1291 0.929 . S
H1300 C1308 0.929 . S
H1301 C1310 0.930 . S
H1302 C1312 0.930 . S
H1303 C1315 0.929 . S
H1304 C1318 0.930 . S
H1305 C1320 0.960 . S
H1306 C1320 0.960 . S
H1307 C1320 0.960 . S
C1308 H1300 0.929 . S
C1308 C1309 1.377 . S
C1308 C1310 1.384 . S
C1309 C1308 1.377 . S
C1309 C1315 1.390 . S
C1310 H1301 0.930 . S
C1310 C1308 1.384 . S
C1310 C1311 1.372 . S
C1311 C1310 1.372 . S
C1311 C1312 1.400 . S
C1311 C1316 1.490 . S
C1312 H1302 0.930 . S
C1312 C1311 1.400 . S
C1312 C1315 1.386 . S
H1313 C1329 0.930 . S
H1314 C1330 0.931 . S
C1315 H1303 0.929 . S
C1315 C1309 1.390 . S
C1315 C1312 1.386 . S
C1316 C1311 1.490 . S
C1316 C1318 1.395 . S
C1316 C1319 1.403 . S
H1317 C1323 0.930 . S
C1318 H1304 0.930 . S
C1318 C1316 1.395 . S
C1318 C1321 1.403 . S
C1319 C1316 1.403 . S
C1319 C1320 1.524 . S
C1319 C1323 1.400 . S
C1320 H1305 0.960 . S
C1320 H1306 0.960 . S
C1320 H1307 0.960 . S
C1320 C1319 1.524 . S
C1321 C1318 1.403 . S
C1321 C1322 1.392 . S
C1321 C1325 1.495 . S
C1322 C1321 1.392 . S
C1322 C1323 1.385 . S
C1322 C1324 1.478 1_455 S
C1323 H1317 0.930 . S
C1323 C1319 1.400 . S
C1323 C1322 1.385 . S
C1324 C1322 1.478 1_655 S
C1324 C1326 1.381 . S
C1324 C1330 1.383 . S
C1325 C1321 1.495 . S
C1325 H1331 0.959 . S
C1325 H1332 0.961 . S
C1325 H1333 0.960 . S
C1326 C1324 1.381 . S
C1326 C1327 1.394 . S
C1326 H1334 0.930 . S
C1327 C1326 1.394 . S
C1327 C1328 1.383 . S
C1327 H1335 0.929 . S
C1328 C1327 1.383 . S
C1328 C1329 1.377 . S
C1329 H1313 0.930 . S
C1329 C1328 1.377 . S
C1329 C1330 1.379 . S
C1330 H1314 0.931 . S
C1330 C1324 1.383 . S
C1330 C1329 1.379 . S
H1331 C1325 0.959 . S
H1332 C1325 0.961 . S
H1333 C1325 0.960 . S
H1334 C1326 0.930 . S
H1335 C1327 0.929 . S
H1336 C1344 0.929 . S
H1337 C1346 0.930 . S
H1338 C1348 0.930 . S
H1339 C1351 0.929 . S
H1340 C1354 0.930 . S
H1341 C1356 0.960 . S
H1342 C1356 0.960 . S
H1343 C1356 0.960 . S
C1344 H1336 0.929 . S
C1344 C1345 1.377 . S
C1344 C1346 1.384 . S
C1345 C1344 1.377 . S
C1345 C1351 1.390 1_455 S
C1346 H1337 0.930 . S
C1346 C1344 1.384 . S
C1346 C1347 1.372 . S
C1347 C1346 1.372 . S
C1347 C1348 1.400 1_455 S
C1347 C1352 1.490 1_565 S
C1348 H1338 0.930 . S
C1348 C1347 1.400 1_655 S
C1348 C1351 1.386 . S
H1349 C1365 0.930 . S
H1350 C1366 0.931 . S
C1351 H1339 0.929 . S
C1351 C1345 1.390 1_655 S
C1351 C1348 1.386 . S
C1352 C1347 1.490 1_545 S
C1352 C1354 1.395 . S
C1352 C1355 1.403 1_455 S
H1353 C1359 0.930 . S
C1354 H1340 0.930 . S
C1354 C1352 1.395 . S
C1354 C1357 1.403 . S
C1355 C1352 1.403 1_655 S
C1355 C1356 1.524 . S
C1355 C1359 1.400 . S
C1356 H1341 0.960 . S
C1356 H1342 0.960 . S
C1356 H1343 0.960 . S
C1356 C1355 1.524 . S
C1357 C1354 1.403 . S
C1357 C1358 1.392 . S
C1357 C1361 1.495 . S
C1358 C1357 1.392 . S
C1358 C1359 1.385 1_455 S
C1358 C1360 1.478 . S
C1359 H1353 0.930 . S
C1359 C1355 1.400 . S
C1359 C1358 1.385 1_655 S
C1360 C1358 1.478 . S
C1360 C1362 1.381 . S
C1360 C1366 1.383 1_455 S
C1361 C1357 1.495 . S
C1361 H1367 0.959 . S
C1361 H1368 0.961 . S
C1361 H1369 0.960 . S
C1362 C1360 1.381 . S
C1362 C1363 1.394 . S
C1362 H1370 0.930 . S
C1363 C1362 1.394 . S
C1363 C1364 1.383 . S
C1363 H1371 0.929 . S
C1364 C1363 1.383 . S
C1364 C1365 1.377 1_455 S
C1365 H1349 0.930 . S
C1365 C1364 1.377 1_655 S
C1365 C1366 1.379 . S
C1366 H1350 0.931 . S
C1366 C1360 1.383 1_655 S
C1366 C1365 1.379 . S
H1367 C1361 0.959 . S
H1368 C1361 0.961 . S
H1369 C1361 0.960 . S
H1370 C1362 0.930 . S
H1371 C1363 0.929 . S
H1372 C1380 0.929 . S
H1373 C1382 0.930 . S
H1374 C1384 0.930 . S
H1375 C1387 0.929 . S
H1376 C1390 0.929 . S
H1377 C1392 0.960 . S
H1378 C1392 0.960 . S
H1379 C1392 0.960 . S
C1380 H1372 0.929 . S
C1380 C1381 1.377 . S
C1380 C1382 1.384 . S
C1381 C1380 1.377 . S
C1381 C1387 1.390 1_545 S
C1382 H1373 0.930 . S
C1382 C1380 1.384 . S
C1382 C1383 1.372 . S
C1383 C1382 1.372 . S
C1383 C1384 1.400 1_545 S
C1383 C1388 1.490 . S
C1384 H1374 0.930 . S
C1384 C1383 1.400 1_565 S
C1384 C1387 1.386 . S
H1385 C1401 0.930 . S
H1386 C1402 0.931 . S
C1387 H1375 0.929 . S
C1387 C1381 1.390 1_565 S
C1387 C1384 1.386 . S
C1388 C1383 1.490 . S
C1388 C1390 1.396 1_545 S
C1388 C1391 1.403 . S
H1389 C1395 0.930 . S
C1390 H1376 0.929 . S
C1390 C1388 1.396 1_565 S
C1390 C1393 1.403 . S
C1391 C1388 1.403 . S
C1391 C1392 1.524 . S
C1391 C1395 1.400 . S
C1392 H1377 0.960 . S
C1392 H1378 0.960 . S
C1392 H1379 0.960 . S
C1392 C1391 1.524 . S
C1393 C1390 1.403 . S
C1393 C1394 1.392 1_565 S
C1393 C1397 1.495 . S
C1394 C1393 1.392 1_545 S
C1394 C1395 1.385 . S
C1394 C1396 1.478 . S
C1395 H1389 0.930 . S
C1395 C1391 1.400 . S
C1395 C1394 1.385 . S
C1396 C1394 1.478 . S
C1396 C1398 1.381 . S
C1396 C1402 1.383 1_545 S
C1397 C1393 1.495 . S
C1397 H1403 0.959 . S
C1397 H1404 0.961 . S
C1397 H1405 0.959 . S
C1398 C1396 1.381 . S
C1398 C1399 1.394 . S
C1398 H1406 0.930 . S
C1399 C1398 1.394 . S
C1399 C1400 1.385 . S
C1399 H1407 0.929 . S
C1400 C1399 1.385 . S
C1400 C1401 1.375 1_545 S
C1401 H1385 0.930 . S
C1401 C1400 1.375 1_565 S
C1401 C1402 1.379 . S
C1402 H1386 0.931 . S
C1402 C1396 1.383 1_565 S
C1402 C1401 1.379 . S
H1403 C1397 0.959 . S
H1404 C1397 0.961 . S
H1405 C1397 0.959 . S
H1406 C1398 0.930 . S
H1407 C1399 0.929 . S
H1408 C1416 0.929 . S
H1409 C1418 0.930 . S
H1410 C1420 0.930 . S
H1411 C1423 0.929 . S
H1412 C1426 0.930 . S
H1413 C1428 0.960 . S
H1414 C1428 0.960 . S
H1415 C1428 0.960 . S
C1416 H1408 0.929 . S
C1416 C1417 1.377 . S
C1416 C1418 1.384 . S
C1417 C1416 1.377 . S
C1417 C1423 1.390 . S
C1418 H1409 0.930 . S
C1418 C1416 1.384 . S
C1418 C1419 1.372 . S
C1419 C1418 1.372 . S
C1419 C1420 1.400 . S
C1419 C1424 1.490 . S
C1420 H1410 0.930 . S
C1420 C1419 1.400 . S
C1420 C1423 1.386 . S
H1421 C1437 0.930 . S
H1422 C1438 0.931 . S
C1423 H1411 0.929 . S
C1423 C1417 1.390 . S
C1423 C1420 1.386 . S
C1424 C1419 1.490 . S
C1424 C1426 1.395 . S
C1424 C1427 1.403 . S
H1425 C1431 0.930 . S
C1426 H1412 0.930 . S
C1426 C1424 1.395 . S
C1426 C1429 1.403 . S
C1427 C1424 1.403 . S
C1427 C1428 1.524 . S
C1427 C1431 1.400 . S
C1428 H1413 0.960 . S
C1428 H1414 0.960 . S
C1428 H1415 0.960 . S
C1428 C1427 1.524 . S
C1429 C1426 1.403 . S
C1429 C1430 1.392 . S
C1429 C1433 1.495 . S
C1430 C1429 1.392 . S
C1430 C1431 1.385 . S
C1430 C1432 1.478 . S
C1431 H1425 0.930 . S
C1431 C1427 1.400 . S
C1431 C1430 1.385 . S
C1432 C1430 1.478 . S
C1432 C1434 1.381 . S
C1432 C1438 1.383 . S
C1433 C1429 1.495 . S
C1433 H1439 0.959 . S
C1433 H1440 0.961 . S
C1433 H1441 0.960 . S
C1434 C1432 1.381 . S
C1434 C1435 1.394 . S
C1434 H1442 0.930 . S
C1435 C1434 1.394 . S
C1435 C1436 1.383 . S
C1435 H1443 0.929 . S
C1436 C1435 1.383 . S
C1436 C1437 1.377 . S
C1437 H1421 0.930 . S
C1437 C1436 1.377 . S
C1437 C1438 1.379 . S
C1438 H1422 0.931 . S
C1438 C1432 1.383 . S
C1438 C1437 1.379 . S
H1439 C1433 0.959 . S
H1440 C1433 0.961 . S
H1441 C1433 0.960 . S
H1442 C1434 0.930 . S
H1443 C1435 0.929 . S
H1444 C1452 0.929 . S
H1445 C1454 0.930 . S
H1446 C1456 0.930 . S
H1447 C1459 0.929 . S
H1448 C1462 0.930 . S
H1449 C1464 0.960 . S
H1450 C1464 0.960 . S
H1451 C1464 0.960 . S
C1452 H1444 0.929 . S
C1452 C1453 1.377 . S
C1452 C1454 1.384 . S
C1453 C1452 1.377 . S
C1453 C1459 1.390 . S
C1454 H1445 0.930 . S
C1454 C1452 1.384 . S
C1454 C1455 1.372 . S
C1455 C1454 1.372 . S
C1455 C1456 1.400 . S
C1455 C1460 1.490 . S
C1456 H1446 0.930 . S
C1456 C1455 1.400 . S
C1456 C1459 1.386 . S
H1457 C1473 0.930 . S
H1458 C1474 0.931 . S
C1459 H1447 0.929 . S
C1459 C1453 1.390 . S
C1459 C1456 1.386 . S
C1460 C1455 1.490 . S
C1460 C1462 1.395 . S
C1460 C1463 1.403 . S
H1461 C1467 0.930 . S
C1462 H1448 0.930 . S
C1462 C1460 1.395 . S
C1462 C1465 1.403 . S
C1463 C1460 1.403 . S
C1463 C1464 1.524 . S
C1463 C1467 1.400 . S
C1464 H1449 0.960 . S
C1464 H1450 0.960 . S
C1464 H1451 0.960 . S
C1464 C1463 1.524 . S
C1465 C1462 1.403 . S
C1465 C1466 1.392 . S
C1465 C1469 1.495 . S
C1466 C1465 1.392 . S
C1466 C1467 1.385 . S
C1466 C1468 1.478 . S
C1467 H1461 0.930 . S
C1467 C1463 1.400 . S
C1467 C1466 1.385 . S
C1468 C1466 1.478 . S
C1468 C1470 1.381 . S
C1468 C1474 1.383 . S
C1469 C1465 1.495 . S
C1469 H1475 0.959 . S
C1469 H1476 0.961 . S
C1469 H1477 0.960 . S
C1470 C1468 1.381 . S
C1470 C1471 1.394 . S
C1470 H1478 0.930 . S
C1471 C1470 1.394 . S
C1471 C1472 1.383 . S
C1471 H1479 0.929 . S
C1472 C1471 1.383 . S
C1472 C1473 1.377 . S
C1473 H1457 0.930 . S
C1473 C1472 1.377 . S
C1473 C1474 1.379 . S
C1474 H1458 0.931 . S
C1474 C1468 1.383 . S
C1474 C1473 1.379 . S
H1475 C1469 0.959 . S
H1476 C1469 0.961 . S
H1477 C1469 0.960 . S
H1478 C1470 0.930 . S
H1479 C1471 0.929 . S
H1480 C1488 0.929 . S
H1481 C1490 0.930 . S
H1482 C1492 0.930 . S
H1483 C1495 0.929 . S
H1484 C1498 0.930 . S
H1485 C1500 0.960 . S
H1486 C1500 0.960 . S
H1487 C1500 0.960 . S
C1488 H1480 0.929 . S
C1488 C1489 1.377 . S
C1488 C1490 1.384 . S
C1489 C1488 1.377 . S
C1489 C1495 1.390 . S
C1490 H1481 0.930 . S
C1490 C1488 1.384 . S
C1490 C1491 1.372 . S
C1491 C1490 1.372 . S
C1491 C1492 1.400 . S
C1491 C1496 1.490 . S
C1492 H1482 0.930 . S
C1492 C1491 1.400 . S
C1492 C1495 1.386 . S
H1493 C1509 0.930 . S
H1494 C1510 0.931 . S
C1495 H1483 0.929 . S
C1495 C1489 1.390 . S
C1495 C1492 1.386 . S
C1496 C1491 1.490 . S
C1496 C1498 1.395 . S
C1496 C1499 1.403 . S
H1497 C1503 0.930 . S
C1498 H1484 0.930 . S
C1498 C1496 1.395 . S
C1498 C1501 1.403 . S
C1499 C1496 1.403 . S
C1499 C1500 1.524 . S
C1499 C1503 1.400 . S
C1500 H1485 0.960 . S
C1500 H1486 0.960 . S
C1500 H1487 0.960 . S
C1500 C1499 1.524 . S
C1501 C1498 1.403 . S
C1501 C1502 1.392 . S
C1501 C1505 1.495 . S
C1502 C1501 1.392 . S
C1502 C1503 1.385 . S
C1502 C1504 1.478 . S
C1503 H1497 0.930 . S
C1503 C1499 1.400 . S
C1503 C1502 1.385 . S
C1504 C1502 1.478 . S
C1504 C1506 1.381 . S
C1504 C1510 1.383 . S
C1505 C1501 1.495 . S
C1505 H1511 0.959 . S
C1505 H1512 0.961 . S
C1505 H1513 0.960 . S
C1506 C1504 1.381 . S
C1506 C1507 1.394 . S
C1506 H1514 0.930 . S
C1507 C1506 1.394 . S
C1507 C1508 1.383 . S
C1507 H1515 0.929 . S
C1508 C1507 1.383 . S
C1508 C1509 1.377 . S
C1509 H1493 0.930 . S
C1509 C1508 1.377 . S
C1509 C1510 1.379 . S
C1510 H1494 0.931 . S
C1510 C1504 1.383 . S
C1510 C1509 1.379 . S
H1511 C1505 0.959 . S
H1512 C1505 0.961 . S
H1513 C1505 0.960 . S
H1514 C1506 0.930 . S
H1515 C1507 0.929 . S
H1516 C1524 0.929 . S
H1517 C1526 0.930 . S
H1518 C1528 0.930 . S
H1519 C1531 0.929 . S
H1520 C1534 0.930 . S
H1521 C1536 0.960 . S
H1522 C1536 0.960 . S
H1523 C1536 0.960 . S
C1524 H1516 0.929 . S
C1524 C1525 1.377 . S
C1524 C1526 1.384 . S
C1525 C1524 1.377 . S
C1525 C1531 1.390 . S
C1526 H1517 0.930 . S
C1526 C1524 1.384 . S
C1526 C1527 1.372 . S
C1527 C1526 1.372 . S
C1527 C1528 1.400 . S
C1527 C1532 1.490 . S
C1528 H1518 0.930 . S
C1528 C1527 1.400 . S
C1528 C1531 1.386 . S
H1529 C1545 0.930 . S
H1530 C1546 0.931 . S
C1531 H1519 0.929 . S
C1531 C1525 1.390 . S
C1531 C1528 1.386 . S
C1532 C1527 1.490 . S
C1532 C1534 1.395 . S
C1532 C1535 1.403 . S
H1533 C1539 0.930 . S
C1534 H1520 0.930 . S
C1534 C1532 1.395 . S
C1534 C1537 1.403 . S
C1535 C1532 1.403 . S
C1535 C1536 1.524 . S
C1535 C1539 1.400 . S
C1536 H1521 0.960 . S
C1536 H1522 0.960 . S
C1536 H1523 0.960 . S
C1536 C1535 1.524 . S
C1537 C1534 1.403 . S
C1537 C1538 1.392 . S
C1537 C1541 1.495 . S
C1538 C1537 1.392 . S
C1538 C1539 1.385 . S
C1538 C1540 1.478 . S
C1539 H1533 0.930 . S
C1539 C1535 1.400 . S
C1539 C1538 1.385 . S
C1540 C1538 1.478 . S
C1540 C1542 1.381 . S
C1540 C1546 1.383 . S
C1541 C1537 1.495 . S
C1541 H1547 0.959 . S
C1541 H1548 0.961 . S
C1541 H1549 0.960 . S
C1542 C1540 1.381 . S
C1542 C1543 1.394 . S
C1542 H1550 0.930 . S
C1543 C1542 1.394 . S
C1543 C1544 1.383 . S
C1543 H1551 0.929 . S
C1544 C1543 1.383 . S
C1544 C1545 1.377 . S
C1545 H1529 0.930 . S
C1545 C1544 1.377 . S
C1545 C1546 1.379 . S
C1546 H1530 0.931 . S
C1546 C1540 1.383 . S
C1546 C1545 1.379 . S
H1547 C1541 0.959 . S
H1548 C1541 0.961 . S
H1549 C1541 0.960 . S
H1550 C1542 0.930 . S
H1551 C1543 0.929 . S
H1552 C1560 0.929 . S
H1553 C1562 0.930 . S
H1554 C1564 0.930 . S
H1555 C1567 0.929 . S
H1556 C1570 0.930 . S
H1557 C1572 0.960 . S
H1558 C1572 0.960 . S
H1559 C1572 0.960 . S
C1560 H1552 0.929 . S
C1560 C1561 1.377 . S
C1560 C1562 1.384 . S
C1561 C1560 1.377 . S
C1561 C1567 1.390 . S
C1562 H1553 0.930 . S
C1562 C1560 1.384 . S
C1562 C1563 1.372 . S
C1563 C1562 1.372 . S
C1563 C1564 1.400 . S
C1563 C1568 1.490 . S
C1564 H1554 0.930 . S
C1564 C1563 1.400 . S
C1564 C1567 1.386 . S
H1565 C1581 0.930 . S
H1566 C1582 0.931 . S
C1567 H1555 0.929 . S
C1567 C1561 1.390 . S
C1567 C1564 1.386 . S
C1568 C1563 1.490 . S
C1568 C1570 1.395 . S
C1568 C1571 1.403 . S
H1569 C1575 0.930 . S
C1570 H1556 0.930 . S
C1570 C1568 1.395 . S
C1570 C1573 1.403 . S
C1571 C1568 1.403 . S
C1571 C1572 1.524 . S
C1571 C1575 1.400 . S
C1572 H1557 0.960 . S
C1572 H1558 0.960 . S
C1572 H1559 0.960 . S
C1572 C1571 1.524 . S
C1573 C1570 1.403 . S
C1573 C1574 1.392 . S
C1573 C1577 1.495 . S
C1574 C1573 1.392 . S
C1574 C1575 1.385 . S
C1574 C1576 1.478 . S
C1575 H1569 0.930 . S
C1575 C1571 1.400 . S
C1575 C1574 1.385 . S
C1576 C1574 1.478 . S
C1576 C1578 1.381 . S
C1576 C1582 1.383 . S
C1577 C1573 1.495 . S
C1577 H1583 0.959 . S
C1577 H1584 0.961 . S
C1577 H1585 0.960 . S
C1578 C1576 1.381 . S
C1578 C1579 1.394 . S
C1578 H1586 0.930 . S
C1579 C1578 1.394 . S
C1579 C1580 1.383 . S
C1579 H1587 0.929 . S
C1580 C1579 1.383 . S
C1580 C1581 1.377 . S
C1581 H1565 0.930 . S
C1581 C1580 1.377 . S
C1581 C1582 1.379 . S
C1582 H1566 0.931 . S
C1582 C1576 1.383 . S
C1582 C1581 1.379 . S
H1583 C1577 0.959 . S
H1584 C1577 0.961 . S
H1585 C1577 0.960 . S
H1586 C1578 0.930 . S
H1587 C1579 0.929 . S
H1588 C1596 0.929 . S
H1589 C1598 0.930 . S
H1590 C1600 0.930 . S
H1591 C1603 0.929 . S
H1592 C1606 0.930 . S
H1593 C1608 0.960 . S
H1594 C1608 0.960 . S
H1595 C1608 0.960 . S
C1596 H1588 0.929 . S
C1596 C1597 1.377 . S
C1596 C1598 1.384 . S
C1597 C1596 1.377 . S
C1597 C1603 1.390 . S
C1598 H1589 0.930 . S
C1598 C1596 1.384 . S
C1598 C1599 1.372 . S
C1599 C1598 1.372 . S
C1599 C1600 1.400 . S
C1599 C1604 1.490 . S
C1600 H1590 0.930 . S
C1600 C1599 1.400 . S
C1600 C1603 1.386 . S
H1601 C1617 0.930 . S
H1602 C1618 0.931 . S
C1603 H1591 0.929 . S
C1603 C1597 1.390 . S
C1603 C1600 1.386 . S
C1604 C1599 1.490 . S
C1604 C1606 1.395 . S
C1604 C1607 1.403 . S
H1605 C1611 0.930 . S
C1606 H1592 0.930 . S
C1606 C1604 1.395 . S
C1606 C1609 1.403 . S
C1607 C1604 1.403 . S
C1607 C1608 1.524 . S
C1607 C1611 1.400 . S
C1608 H1593 0.960 . S
C1608 H1594 0.960 . S
C1608 H1595 0.960 . S
C1608 C1607 1.524 . S
C1609 C1606 1.403 . S
C1609 C1610 1.392 . S
C1609 C1613 1.495 . S
C1610 C1609 1.392 . S
C1610 C1611 1.385 . S
C1610 C1612 1.478 . S
C1611 H1605 0.930 . S
C1611 C1607 1.400 . S
C1611 C1610 1.385 . S
C1612 C1610 1.478 . S
C1612 C1614 1.381 . S
C1612 C1618 1.383 . S
C1613 C1609 1.495 . S
C1613 H1619 0.959 . S
C1613 H1620 0.961 . S
C1613 H1621 0.960 . S
C1614 C1612 1.381 . S
C1614 C1615 1.394 . S
C1614 H1622 0.930 . S
C1615 C1614 1.394 . S
C1615 C1616 1.383 . S
C1615 H1623 0.929 . S
C1616 C1615 1.383 . S
C1616 C1617 1.377 . S
C1617 H1601 0.930 . S
C1617 C1616 1.377 . S
C1617 C1618 1.379 . S
C1618 H1602 0.931 . S
C1618 C1612 1.383 . S
C1618 C1617 1.379 . S
H1619 C1613 0.959 . S
H1620 C1613 0.961 . S
H1621 C1613 0.960 . S
H1622 C1614 0.930 . S
H1623 C1615 0.929 . S
H1624 C1632 0.929 . S
H1625 C1634 0.930 . S
H1626 C1636 0.930 . S
H1627 C1639 0.929 . S
H1628 C1642 0.930 . S
H1629 C1644 0.960 . S
H1630 C1644 0.960 . S
H1631 C1644 0.960 . S
C1632 H1624 0.929 . S
C1632 C1633 1.377 . S
C1632 C1634 1.384 . S
C1633 C1632 1.377 . S
C1633 C1639 1.390 . S
C1634 H1625 0.930 . S
C1634 C1632 1.384 . S
C1634 C1635 1.372 . S
C1635 C1634 1.372 . S
C1635 C1636 1.400 . S
C1635 C1640 1.490 . S
C1636 H1626 0.930 . S
C1636 C1635 1.400 . S
C1636 C1639 1.386 . S
H1637 C1653 0.930 . S
H1638 C1654 0.931 . S
C1639 H1627 0.929 . S
C1639 C1633 1.390 . S
C1639 C1636 1.386 . S
C1640 C1635 1.490 . S
C1640 C1642 1.395 . S
C1640 C1643 1.403 . S
H1641 C1647 0.930 . S
C1642 H1628 0.930 . S
C1642 C1640 1.395 . S
C1642 C1645 1.403 . S
C1643 C1640 1.403 . S
C1643 C1644 1.524 . S
C1643 C1647 1.400 . S
C1644 H1629 0.960 . S
C1644 H1630 0.960 . S
C1644 H1631 0.960 . S
C1644 C1643 1.524 . S
C1645 C1642 1.403 . S
C1645 C1646 1.392 . S
C1645 C1649 1.495 . S
C1646 C1645 1.392 . S
C1646 C1647 1.385 . S
C1646 C1648 1.478 . S
C1647 H1641 0.930 . S
C1647 C1643 1.400 . S
C1647 C1646 1.385 . S
C1648 C1646 1.478 . S
C1648 C1650 1.381 . S
C1648 C1654 1.383 . S
C1649 C1645 1.495 . S
C1649 H1655 0.959 . S
C1649 H1656 0.961 . S
C1649 H1657 0.960 . S
C1650 C1648 1.381 . S
C1650 C1651 1.394 . S
C1650 H1658 0.930 . S
C1651 C1650 1.394 . S
C1651 C1652 1.383 . S
C1651 H1659 0.929 . S
C1652 C1651 1.383 . S
C1652 C1653 1.377 . S
C1653 H1637 0.930 . S
C1653 C1652 1.377 . S
C1653 C1654 1.379 . S
C1654 H1638 0.931 . S
C1654 C1648 1.383 . S
C1654 C1653 1.379 . S
H1655 C1649 0.959 . S
H1656 C1649 0.961 . S
H1657 C1649 0.960 . S
H1658 C1650 0.930 . S
H1659 C1651 0.929 . S
H1660 C1668 0.929 . S
H1661 C1670 0.930 . S
H1662 C1672 0.930 . S
H1663 C1675 0.929 . S
H1664 C1678 0.930 . S
H1665 C1680 0.960 . S
H1666 C1680 0.960 . S
H1667 C1680 0.960 . S
C1668 H1660 0.929 . S
C1668 C1669 1.377 . S
C1668 C1670 1.384 . S
C1669 C1668 1.377 . S
C1669 C1675 1.390 . S
C1670 H1661 0.930 . S
C1670 C1668 1.384 . S
C1670 C1671 1.372 . S
C1671 C1670 1.372 . S
C1671 C1672 1.400 . S
C1671 C1676 1.490 . S
C1672 H1662 0.930 . S
C1672 C1671 1.400 . S
C1672 C1675 1.386 . S
H1673 C1689 0.930 . S
H1674 C1690 0.931 . S
C1675 H1663 0.929 . S
C1675 C1669 1.390 . S
C1675 C1672 1.386 . S
C1676 C1671 1.490 . S
C1676 C1678 1.395 . S
C1676 C1679 1.403 . S
H1677 C1683 0.930 . S
C1678 H1664 0.930 . S
C1678 C1676 1.395 . S
C1678 C1681 1.403 . S
C1679 C1676 1.403 . S
C1679 C1680 1.524 . S
C1679 C1683 1.400 . S
C1680 H1665 0.960 . S
C1680 H1666 0.960 . S
C1680 H1667 0.960 . S
C1680 C1679 1.524 . S
C1681 C1678 1.403 . S
C1681 C1682 1.392 . S
C1681 C1685 1.495 . S
C1682 C1681 1.392 . S
C1682 C1683 1.385 . S
C1682 C1684 1.478 . S
C1683 H1677 0.930 . S
C1683 C1679 1.400 . S
C1683 C1682 1.385 . S
C1684 C1682 1.478 . S
C1684 C1686 1.381 . S
C1684 C1690 1.383 . S
C1685 C1681 1.495 . S
C1685 H1691 0.959 . S
C1685 H1692 0.961 . S
C1685 H1693 0.960 . S
C1686 C1684 1.381 . S
C1686 C1687 1.394 . S
C1686 H1694 0.930 . S
C1687 C1686 1.394 . S
C1687 C1688 1.383 . S
C1687 H1695 0.929 . S
C1688 C1687 1.383 . S
C1688 C1689 1.377 . S
C1689 H1673 0.930 . S
C1689 C1688 1.377 . S
C1689 C1690 1.379 . S
C1690 H1674 0.931 . S
C1690 C1684 1.383 . S
C1690 C1689 1.379 . S
H1691 C1685 0.959 . S
H1692 C1685 0.961 . S
H1693 C1685 0.960 . S
H1694 C1686 0.930 . S
H1695 C1687 0.929 . S
H1696 C1704 0.929 . S
H1697 C1706 0.930 . S
H1698 C1708 0.930 . S
H1699 C1711 0.929 . S
H1700 C1714 0.930 . S
H1701 C1716 0.960 . S
H1702 C1716 0.960 . S
H1703 C1716 0.960 . S
C1704 H1696 0.929 . S
C1704 C1705 1.377 . S
C1704 C1706 1.384 . S
C1705 C1704 1.377 . S
C1705 C1711 1.390 . S
C1706 H1697 0.930 . S
C1706 C1704 1.384 . S
C1706 C1707 1.372 . S
C1707 C1706 1.372 . S
C1707 C1708 1.400 . S
C1707 C1712 1.490 . S
C1708 H1698 0.930 . S
C1708 C1707 1.400 . S
C1708 C1711 1.386 . S
H1709 C1725 0.930 . S
H1710 C1726 0.931 . S
C1711 H1699 0.929 . S
C1711 C1705 1.390 . S
C1711 C1708 1.386 . S
C1712 C1707 1.490 . S
C1712 C1714 1.395 . S
C1712 C1715 1.403 . S
H1713 C1719 0.930 . S
C1714 H1700 0.930 . S
C1714 C1712 1.395 . S
C1714 C1717 1.403 . S
C1715 C1712 1.403 . S
C1715 C1716 1.524 . S
C1715 C1719 1.400 . S
C1716 H1701 0.960 . S
C1716 H1702 0.960 . S
C1716 H1703 0.960 . S
C1716 C1715 1.524 . S
C1717 C1714 1.403 . S
C1717 C1718 1.392 . S
C1717 C1721 1.495 . S
C1718 C1717 1.392 . S
C1718 C1719 1.385 . S
C1718 C1720 1.478 . S
C1719 H1713 0.930 . S
C1719 C1715 1.400 . S
C1719 C1718 1.385 . S
C1720 C1718 1.478 . S
C1720 C1722 1.381 . S
C1720 C1726 1.383 . S
C1721 C1717 1.495 . S
C1721 H1727 0.959 . S
C1721 H1728 0.961 . S
C1721 H1729 0.960 . S
C1722 C1720 1.381 . S
C1722 C1723 1.394 . S
C1722 H1730 0.930 . S
C1723 C1722 1.394 . S
C1723 C1724 1.383 . S
C1723 H1731 0.929 . S
C1724 C1723 1.383 . S
C1724 C1725 1.377 . S
C1725 H1709 0.930 . S
C1725 C1724 1.377 . S
C1725 C1726 1.379 . S
C1726 H1710 0.931 . S
C1726 C1720 1.383 . S
C1726 C1725 1.379 . S
H1727 C1721 0.959 . S
H1728 C1721 0.961 . S
H1729 C1721 0.960 . S
H1730 C1722 0.930 . S
H1731 C1723 0.929 . S
H1732 C1740 0.929 . S
H1733 C1742 0.930 . S
H1734 C1744 0.930 . S
H1735 C1747 0.929 . S
H1736 C1750 0.930 . S
H1737 C1752 0.960 . S
H1738 C1752 0.960 . S
H1739 C1752 0.960 . S
C1740 H1732 0.929 . S
C1740 C1741 1.377 . S
C1740 C1742 1.384 . S
C1741 C1740 1.377 . S
C1741 C1747 1.390 . S
C1742 H1733 0.930 . S
C1742 C1740 1.384 . S
C1742 C1743 1.372 . S
C1743 C1742 1.372 . S
C1743 C1744 1.400 . S
C1743 C1748 1.490 . S
C1744 H1734 0.930 . S
C1744 C1743 1.400 . S
C1744 C1747 1.386 . S
H1745 C1761 0.930 . S
H1746 C1762 0.931 . S
C1747 H1735 0.929 . S
C1747 C1741 1.390 . S
C1747 C1744 1.386 . S
C1748 C1743 1.490 . S
C1748 C1750 1.395 . S
C1748 C1751 1.403 . S
H1749 C1755 0.930 . S
C1750 H1736 0.930 . S
C1750 C1748 1.395 . S
C1750 C1753 1.403 . S
C1751 C1748 1.403 . S
C1751 C1752 1.524 . S
C1751 C1755 1.400 . S
C1752 H1737 0.960 . S
C1752 H1738 0.960 . S
C1752 H1739 0.960 . S
C1752 C1751 1.524 . S
C1753 C1750 1.403 . S
C1753 C1754 1.392 . S
C1753 C1757 1.495 . S
C1754 C1753 1.392 . S
C1754 C1755 1.385 . S
C1754 C1756 1.478 . S
C1755 H1749 0.930 . S
C1755 C1751 1.400 . S
C1755 C1754 1.385 . S
C1756 C1754 1.478 . S
C1756 C1758 1.381 . S
C1756 C1762 1.383 . S
C1757 C1753 1.495 . S
C1757 H1763 0.959 . S
C1757 H1764 0.961 . S
C1757 H1765 0.960 . S
C1758 C1756 1.381 . S
C1758 C1759 1.394 . S
C1758 H1766 0.930 . S
C1759 C1758 1.394 . S
C1759 C1760 1.383 . S
C1759 H1767 0.929 . S
C1760 C1759 1.383 . S
C1760 C1761 1.377 . S
C1761 H1745 0.930 . S
C1761 C1760 1.377 . S
C1761 C1762 1.379 . S
C1762 H1746 0.931 . S
C1762 C1756 1.383 . S
C1762 C1761 1.379 . S
H1763 C1757 0.959 . S
H1764 C1757 0.961 . S
H1765 C1757 0.960 . S
H1766 C1758 0.930 . S
H1767 C1759 0.929 . S
H1768 C1776 0.929 . S
H1769 C1778 0.930 . S
H1770 C1780 0.930 . S
H1771 C1783 0.929 . S
H1772 C1786 0.930 . S
H1773 C1788 0.960 . S
H1774 C1788 0.960 . S
H1775 C1788 0.960 . S
C1776 H1768 0.929 . S
C1776 C1777 1.377 . S
C1776 C1778 1.384 . S
C1777 C1776 1.377 . S
C1777 C1783 1.390 . S
C1778 H1769 0.930 . S
C1778 C1776 1.384 . S
C1778 C1779 1.372 . S
C1779 C1778 1.372 . S
C1779 C1780 1.400 . S
C1779 C1784 1.490 . S
C1780 H1770 0.930 . S
C1780 C1779 1.400 . S
C1780 C1783 1.386 . S
H1781 C1797 0.930 . S
H1782 C1798 0.931 . S
C1783 H1771 0.929 . S
C1783 C1777 1.390 . S
C1783 C1780 1.386 . S
C1784 C1779 1.490 . S
C1784 C1786 1.395 . S
C1784 C1787 1.403 . S
H1785 C1791 0.930 . S
C1786 H1772 0.930 . S
C1786 C1784 1.395 . S
C1786 C1789 1.403 . S
C1787 C1784 1.403 . S
C1787 C1788 1.524 . S
C1787 C1791 1.400 . S
C1788 H1773 0.960 . S
C1788 H1774 0.960 . S
C1788 H1775 0.960 . S
C1788 C1787 1.524 . S
C1789 C1786 1.403 . S
C1789 C1790 1.392 . S
C1789 C1793 1.495 . S
C1790 C1789 1.392 . S
C1790 C1791 1.385 . S
C1790 C1792 1.478 . S
C1791 H1785 0.930 . S
C1791 C1787 1.400 . S
C1791 C1790 1.385 . S
C1792 C1790 1.478 . S
C1792 C1794 1.381 . S
C1792 C1798 1.383 . S
C1793 C1789 1.495 . S
C1793 H1799 0.959 . S
C1793 H1800 0.961 . S
C1793 H1801 0.960 . S
C1794 C1792 1.381 . S
C1794 C1795 1.394 . S
C1794 H1802 0.930 . S
C1795 C1794 1.394 . S
C1795 C1796 1.383 . S
C1795 H1803 0.929 . S
C1796 C1795 1.383 . S
C1796 C1797 1.377 . S
C1797 H1781 0.930 . S
C1797 C1796 1.377 . S
C1797 C1798 1.379 . S
C1798 H1782 0.931 . S
C1798 C1792 1.383 . S
C1798 C1797 1.379 . S
H1799 C1793 0.959 . S
H1800 C1793 0.961 . S
H1801 C1793 0.960 . S
H1802 C1794 0.930 . S
H1803 C1795 0.929 . S
H1804 C1812 0.929 . S
H1805 C1814 0.930 . S
H1806 C1816 0.930 . S
H1807 C1819 0.929 . S
H1808 C1822 0.930 . S
H1809 C1824 0.960 . S
H1810 C1824 0.960 . S
H1811 C1824 0.960 . S
C1812 H1804 0.929 . S
C1812 C1813 1.377 . S
C1812 C1814 1.384 . S
C1813 C1812 1.377 . S
C1813 C1819 1.390 . S
C1814 H1805 0.930 . S
C1814 C1812 1.384 . S
C1814 C1815 1.372 . S
C1815 C1814 1.372 . S
C1815 C1816 1.400 . S
C1815 C1820 1.490 . S
C1816 H1806 0.930 . S
C1816 C1815 1.400 . S
C1816 C1819 1.386 . S
H1817 C1833 0.930 . S
H1818 C1834 0.931 . S
C1819 H1807 0.929 . S
C1819 C1813 1.390 . S
C1819 C1816 1.386 . S
C1820 C1815 1.490 . S
C1820 C1822 1.395 . S
C1820 C1823 1.403 . S
H1821 C1827 0.930 . S
C1822 H1808 0.930 . S
C1822 C1820 1.395 . S
C1822 C1825 1.403 . S
C1823 C1820 1.403 . S
C1823 C1824 1.524 . S
C1823 C1827 1.400 . S
C1824 H1809 0.960 . S
C1824 H1810 0.960 . S
C1824 H1811 0.960 . S
C1824 C1823 1.524 . S
C1825 C1822 1.403 . S
C1825 C1826 1.392 . S
C1825 C1829 1.495 . S
C1826 C1825 1.392 . S
C1826 C1827 1.385 . S
C1826 C1828 1.478 . S
C1827 H1821 0.930 . S
C1827 C1823 1.400 . S
C1827 C1826 1.385 . S
C1828 C1826 1.478 . S
C1828 C1830 1.381 . S
C1828 C1834 1.383 . S
C1829 C1825 1.495 . S
C1829 H1835 0.959 . S
C1829 H1836 0.961 . S
C1829 H1837 0.960 . S
C1830 C1828 1.381 . S
C1830 C1831 1.394 . S
C1830 H1838 0.930 . S
C1831 C1830 1.394 . S
C1831 C1832 1.383 . S
C1831 H1839 0.929 . S
C1832 C1831 1.383 . S
C1832 C1833 1.377 . S
C1833 H1817 0.930 . S
C1833 C1832 1.377 . S
C1833 C1834 1.379 . S
C1834 H1818 0.931 . S
C1834 C1828 1.383 . S
C1834 C1833 1.379 . S
H1835 C1829 0.959 . S
H1836 C1829 0.961 . S
H1837 C1829 0.960 . S
H1838 C1830 0.930 . S
H1839 C1831 0.929 . S
H1840 C1848 0.929 . S
H1841 C1850 0.930 . S
H1842 C1852 0.930 . S
H1843 C1855 0.929 . S
H1844 C1858 0.930 . S
H1845 C1860 0.960 . S
H1846 C1860 0.960 . S
H1847 C1860 0.960 . S
C1848 H1840 0.929 . S
C1848 C1849 1.377 . S
C1848 C1850 1.384 . S
C1849 C1848 1.377 . S
C1849 C1855 1.390 . S
C1850 H1841 0.930 . S
C1850 C1848 1.384 . S
C1850 C1851 1.372 . S
C1851 C1850 1.372 . S
C1851 C1852 1.400 . S
C1851 C1856 1.490 . S
C1852 H1842 0.930 . S
C1852 C1851 1.400 . S
C1852 C1855 1.386 . S
H1853 C1869 0.930 . S
H1854 C1870 0.931 . S
C1855 H1843 0.929 . S
C1855 C1849 1.390 . S
C1855 C1852 1.386 . S
C1856 C1851 1.490 . S
C1856 C1858 1.395 . S
C1856 C1859 1.403 . S
H1857 C1863 0.930 . S
C1858 H1844 0.930 . S
C1858 C1856 1.395 . S
C1858 C1861 1.403 . S
C1859 C1856 1.403 . S
C1859 C1860 1.524 . S
C1859 C1863 1.400 . S
C1860 H1845 0.960 . S
C1860 H1846 0.960 . S
C1860 H1847 0.960 . S
C1860 C1859 1.524 . S
C1861 C1858 1.403 . S
C1861 C1862 1.392 . S
C1861 C1865 1.495 . S
C1862 C1861 1.392 . S
C1862 C1863 1.385 . S
C1862 C1864 1.478 . S
C1863 H1857 0.930 . S
C1863 C1859 1.400 . S
C1863 C1862 1.385 . S
C1864 C1862 1.478 . S
C1864 C1866 1.381 . S
C1864 C1870 1.383 . S
C1865 C1861 1.495 . S
C1865 H1871 0.959 . S
C1865 H1872 0.961 . S
C1865 H1873 0.960 . S
C1866 C1864 1.381 . S
C1866 C1867 1.394 . S
C1866 H1874 0.930 . S
C1867 C1866 1.394 . S
C1867 C1868 1.383 . S
C1867 H1875 0.929 . S
C1868 C1867 1.383 . S
C1868 C1869 1.377 . S
C1869 H1853 0.930 . S
C1869 C1868 1.377 . S
C1869 C1870 1.379 . S
C1870 H1854 0.931 . S
C1870 C1864 1.383 . S
C1870 C1869 1.379 . S
H1871 C1865 0.959 . S
H1872 C1865 0.961 . S
H1873 C1865 0.960 . S
H1874 C1866 0.930 . S
H1875 C1867 0.929 . S
H1876 C1884 0.929 . S
H1877 C1886 0.930 . S
H1878 C1888 0.930 . S
H1879 C1891 0.929 . S
H1880 C1894 0.930 . S
H1881 C1896 0.960 . S
H1882 C1896 0.960 . S
H1883 C1896 0.960 . S
C1884 H1876 0.929 . S
C1884 C1885 1.377 . S
C1884 C1886 1.384 . S
C1885 C1884 1.377 . S
C1885 C1891 1.390 . S
C1886 H1877 0.930 . S
C1886 C1884 1.384 . S
C1886 C1887 1.372 . S
C1887 C1886 1.372 . S
C1887 C1888 1.400 . S
C1887 C1892 1.490 . S
C1888 H1878 0.930 . S
C1888 C1887 1.400 . S
C1888 C1891 1.386 . S
H1889 C1905 0.930 . S
H1890 C1906 0.931 . S
C1891 H1879 0.929 . S
C1891 C1885 1.390 . S
C1891 C1888 1.386 . S
C1892 C1887 1.490 . S
C1892 C1894 1.395 . S
C1892 C1895 1.403 . S
H1893 C1899 0.930 . S
C1894 H1880 0.930 . S
C1894 C1892 1.395 . S
C1894 C1897 1.403 . S
C1895 C1892 1.403 . S
C1895 C1896 1.524 . S
C1895 C1899 1.400 . S
C1896 H1881 0.960 . S
C1896 H1882 0.960 . S
C1896 H1883 0.960 . S
C1896 C1895 1.524 . S
C1897 C1894 1.403 . S
C1897 C1898 1.392 . S
C1897 C1901 1.495 . S
C1898 C1897 1.392 . S
C1898 C1899 1.385 . S
C1898 C1900 1.478 . S
C1899 H1893 0.930 . S
C1899 C1895 1.400 . S
C1899 C1898 1.385 . S
C1900 C1898 1.478 . S
C1900 C1902 1.381 . S
C1900 C1906 1.383 . S
C1901 C1897 1.495 . S
C1901 H1907 0.959 . S
C1901 H1908 0.961 . S
C1901 H1909 0.960 . S
C1902 C1900 1.381 . S
C1902 C1903 1.394 . S
C1902 H1910 0.930 . S
C1903 C1902 1.394 . S
C1903 C1904 1.383 . S
C1903 H1911 0.929 . S
C1904 C1903 1.383 . S
C1904 C1905 1.377 . S
C1905 H1889 0.930 . S
C1905 C1904 1.377 . S
C1905 C1906 1.379 . S
C1906 H1890 0.931 . S
C1906 C1900 1.383 . S
C1906 C1905 1.379 . S
H1907 C1901 0.959 . S
H1908 C1901 0.961 . S
H1909 C1901 0.960 . S
H1910 C1902 0.930 . S
H1911 C1903 0.929 . S
H1912 C1920 0.929 . S
H1913 C1922 0.930 . S
H1914 C1924 0.930 . S
H1915 C1927 0.929 . S
H1916 C1930 0.930 . S
H1917 C1932 0.960 . S
H1918 C1932 0.960 . S
H1919 C1932 0.960 . S
C1920 H1912 0.929 . S
C1920 C1921 1.377 . S
C1920 C1922 1.384 . S
C1921 C1920 1.377 . S
C1921 C1927 1.390 . S
C1922 H1913 0.930 . S
C1922 C1920 1.384 . S
C1922 C1923 1.372 . S
C1923 C1922 1.372 . S
C1923 C1924 1.400 . S
C1923 C1928 1.490 . S
C1924 H1914 0.930 . S
C1924 C1923 1.400 . S
C1924 C1927 1.386 . S
H1925 C1941 0.930 . S
H1926 C1942 0.931 . S
C1927 H1915 0.929 . S
C1927 C1921 1.390 . S
C1927 C1924 1.386 . S
C1928 C1923 1.490 . S
C1928 C1930 1.395 . S
C1928 C1931 1.403 . S
H1929 C1935 0.930 . S
C1930 H1916 0.930 . S
C1930 C1928 1.395 . S
C1930 C1933 1.403 . S
C1931 C1928 1.403 . S
C1931 C1932 1.524 . S
C1931 C1935 1.400 . S
C1932 H1917 0.960 . S
C1932 H1918 0.960 . S
C1932 H1919 0.960 . S
C1932 C1931 1.524 . S
C1933 C1930 1.403 . S
C1933 C1934 1.392 . S
C1933 C1937 1.495 . S
C1934 C1933 1.392 . S
C1934 C1935 1.385 . S
C1934 C1936 1.478 . S
C1935 H1929 0.930 . S
C1935 C1931 1.400 . S
C1935 C1934 1.385 . S
C1936 C1934 1.478 . S
C1936 C1938 1.381 . S
C1936 C1942 1.383 . S
C1937 C1933 1.495 . S
C1937 H1943 0.959 . S
C1937 H1944 0.961 . S
C1937 H1945 0.960 . S
C1938 C1936 1.381 . S
C1938 C1939 1.394 . S
C1938 H1946 0.930 . S
C1939 C1938 1.394 . S
C1939 C1940 1.383 . S
C1939 H1947 0.929 . S
C1940 C1939 1.383 . S
C1940 C1941 1.377 . S
C1941 H1925 0.930 . S
C1941 C1940 1.377 . S
C1941 C1942 1.379 . S
C1942 H1926 0.931 . S
C1942 C1936 1.383 . S
C1942 C1941 1.379 . S
H1943 C1937 0.959 . S
H1944 C1937 0.961 . S
H1945 C1937 0.960 . S
H1946 C1938 0.930 . S
H1947 C1939 0.929 . S
H1948 C1956 0.929 . S
H1949 C1958 0.930 . S
H1950 C1960 0.930 . S
H1951 C1963 0.929 . S
H1952 C1966 0.930 . S
H1953 C1968 0.960 . S
H1954 C1968 0.960 . S
H1955 C1968 0.960 . S
C1956 H1948 0.929 . S
C1956 C1957 1.377 . S
C1956 C1958 1.384 . S
C1957 C1956 1.377 . S
C1957 C1963 1.390 . S
C1958 H1949 0.930 . S
C1958 C1956 1.384 . S
C1958 C1959 1.372 . S
C1959 C1958 1.372 . S
C1959 C1960 1.400 . S
C1959 C1964 1.490 . S
C1960 H1950 0.930 . S
C1960 C1959 1.400 . S
C1960 C1963 1.386 . S
H1961 C1977 0.930 . S
H1962 C1978 0.931 . S
C1963 H1951 0.929 . S
C1963 C1957 1.390 . S
C1963 C1960 1.386 . S
C1964 C1959 1.490 . S
C1964 C1966 1.395 . S
C1964 C1967 1.403 . S
H1965 C1971 0.930 . S
C1966 H1952 0.930 . S
C1966 C1964 1.395 . S
C1966 C1969 1.403 . S
C1967 C1964 1.403 . S
C1967 C1968 1.524 . S
C1967 C1971 1.400 . S
C1968 H1953 0.960 . S
C1968 H1954 0.960 . S
C1968 H1955 0.960 . S
C1968 C1967 1.524 . S
C1969 C1966 1.403 . S
C1969 C1970 1.392 . S
C1969 C1973 1.495 . S
C1970 C1969 1.392 . S
C1970 C1971 1.385 . S
C1970 C1972 1.478 . S
C1971 H1965 0.930 . S
C1971 C1967 1.400 . S
C1971 C1970 1.385 . S
C1972 C1970 1.478 . S
C1972 C1974 1.381 . S
C1972 C1978 1.383 . S
C1973 C1969 1.495 . S
C1973 H1979 0.959 . S
C1973 H1980 0.961 . S
C1973 H1981 0.960 . S
C1974 C1972 1.381 . S
C1974 C1975 1.394 . S
C1974 H1982 0.930 . S
C1975 C1974 1.394 . S
C1975 C1976 1.383 . S
C1975 H1983 0.929 . S
C1976 C1975 1.383 . S
C1976 C1977 1.377 . S
C1977 H1961 0.930 . S
C1977 C1976 1.377 . S
C1977 C1978 1.379 . S
C1978 H1962 0.931 . S
C1978 C1972 1.383 . S
C1978 C1977 1.379 . S
H1979 C1973 0.959 . S
H1980 C1973 0.961 . S
H1981 C1973 0.960 . S
H1982 C1974 0.930 . S
H1983 C1975 0.929 . S
C553 C2 1.468 . S
C572 C138 1.458 . S
C589 C172 1.472 . S
C608 C36 1.476 . S
C625 C206 1.469 . S
C644 C70 1.458 . S
C661 C240 1.472 . S
C680 C104 1.477 . S
C697 C274 1.470 . S
C716 C410 1.462 . S
C733 C308 1.470 . S
C752 C444 1.476 . S
C769 C478 1.471 . S
C788 C342 1.459 . S
C805 C376 1.471 . S
C824 C512 1.474 . S
C841 C413 0.625 . S
C860 C9 0.680 . S
C877 C447 0.619 . S
C896 C43 0.730 . S
C913 C77 0.649 . S
C932 C481 0.658 . S
C949 C515 0.616 . S
C968 C111 0.581 . S
C985 C277 0.621 . S
C1004 C145 0.575 . S
C1021 C311 0.614 . S
C1040 C179 0.594 . S
C1057 C213 0.646 . S
C1076 C345 0.604 . S
C1093 C247 0.678 . S
C1112 C379 0.584 . S
C1129 C141 0.610 . S
C1148 C281 0.585 . S
C1165 C175 0.625 . S
C1184 C315 0.741 . S
C1201 C209 0.624 . S
C1220 C349 0.712 1_655 S
C1237 C383 0.642 . S
C1256 C243 0.575 . S
C1273 C5 0.626 . S
C1292 C417 0.737 . S
C1309 C39 0.621 . S
C1328 C451 0.716 . S
C1345 C485 0.643 . S
C1364 C73 0.578 . S
C1381 C107 0.616 . S
C1400 C519 0.641 . S
C1417 C101 2.200 . S
C1436 C33 2.193 . S
C1453 C67 2.201 . S
C1472 C135 2.194 . S
C1489 C237 2.201 . S
C1508 C169 2.193 . S
C1525 C271 2.200 . S
C1544 C203 2.192 . S
C1561 C373 2.200 . S
C1580 C305 2.199 . S
C1597 C407 2.201 . S
C1616 C339 2.194 . S
C1633 C441 2.201 . S
C1652 C509 2.194 . S
C1669 C543 2.200 . S
C1688 C475 2.196 . S
C1705 C258 1.685 . S
C1724 C20 1.690 . S
C1741 C156 1.685 . S
C1760 C54 1.691 . S
C1777 C190 1.680 . S
C1796 C88 1.664 . S
C1813 C224 1.684 . S
C1832 C122 1.686 . S
C1849 C530 1.681 . S
C1868 C292 1.671 . S
C1885 C428 1.682 . S
C1904 C326 1.692 . S
C1921 C462 1.685 . S
C1940 C360 1.666 . S
C1957 C496 1.682 . S
C1976 C394 1.693 . S
