# Generated by pormake.
# Topology oob, (7)-cn, num edge types: 1
# Building blocks:
#     Node 0, Type 0, BuildingBlock: HICVOG_clean_sbu_0, # of connection points: 7
#     Node 1, Type 0, BuildingBlock: HICVOG_clean_sbu_0, # of connection points: 7
#     Node 2, Type 0, BuildingBlock: HICVOG_clean_sbu_0, # of connection points: 7
#     Node 3, Type 0, BuildingBlock: HICVOG_clean_sbu_0, # of connection points: 7
#     Edge 4, Type (0, 0), BuildingBlock: KIFKEQ_clean_linker_1, # of connection points: 2
#     Edge 5, Type (0, 0), BuildingBlock: KIFKEQ_clean_linker_1, # of connection points: 2
#     Edge 6, Type (0, 0), BuildingBlock: KIFKEQ_clean_linker_1, # of connection points: 2
#     Edge 7, Type (0, 0), BuildingBlock: KIFKEQ_clean_linker_1, # of connection points: 2
#     Edge 8, Type (0, 0), BuildingBlock: KIFKEQ_clean_linker_1, # of connection points: 2
#     Edge 9, Type (0, 0), BuildingBlock: KIFKEQ_clean_linker_1, # of connection points: 2
#     Edge 10, Type (0, 0), BuildingBlock: KIFKEQ_clean_linker_1, # of connection points: 2
#     Edge 11, Type (0, 0), BuildingBlock: KIFKEQ_clean_linker_1, # of connection points: 2
#     Edge 12, Type (0, 0), BuildingBlock: KIFKEQ_clean_linker_1, # of connection points: 2
#     Edge 13, Type (0, 0), BuildingBlock: KIFKEQ_clean_linker_1, # of connection points: 2
#     Edge 14, Type (0, 0), BuildingBlock: KIFKEQ_clean_linker_1, # of connection points: 2
#     Edge 15, Type (0, 0), BuildingBlock: KIFKEQ_clean_linker_1, # of connection points: 2
#     Edge 16, Type (0, 0), BuildingBlock: KIFKEQ_clean_linker_1, # of connection points: 2
#     Edge 17, Type (0, 0), BuildingBlock: KIFKEQ_clean_linker_1, # of connection points: 2
# Relax obj value: 0.264
# Max RMSD: 0.255
# Mean RMSD: 0.255
data_MOF--net-oob--node1-HICVOG_clean_sbu_0--edge1-KIFKEQ_clean_linker_1
_symmetry_space_group_name_H-M    P1
_symmetry_Int_Tables_number       1
_symmetry_cell_setting            triclinic
loop_
_symmetry_equiv_pos_as_xyz
'x, y, z'
_cell_length_a     17.806154
_cell_length_b     40.312923
_cell_length_c     27.344774
_cell_angle_alpha  89.757204
_cell_angle_beta   107.12949
_cell_angle_gamma 90.006521
loop_
_atom_site_label
_atom_site_type_symbol
_atom_site_fract_x
_atom_site_fract_y
_atom_site_fract_z
_atom_type_partial_charge
Zn0 Zn 0.24882 0.05355 0.82203 0.0
C1 C 0.16878 1.00844 0.92942 0.0
N2 N 0.22477 0.02702 0.9609 0.0
C3 C 0.25855 0.04159 0.92863 0.0
N4 N 0.22552 0.03215 0.87966 0.0
N5 N 0.1678 1.01144 0.88001 0.0
C6 C 0.95585 1.00145 0.81184 0.0
O7 O 0.98684 0.02727 0.79554 0.0
O8 O 0.36327 0.04816 0.82451 0.0
Zn9 Zn 0.11175 0.98176 0.82589 0.0
N10 N 0.22539 0.09969 0.82939 0.0
C11 C 0.13769 0.13689 0.85203 0.0
C12 C 0.15855 0.10487 0.84265 0.0
C13 C 0.27205 0.12544 0.82418 0.0
N14 N 0.18389 0.16259 0.84693 0.0
C15 C 0.25056 0.15804 0.83297 0.0
O16 O 0.1017 0.99775 0.75405 0.0
C17 C 0.12888 0.01905 0.72927 0.0
O18 O 0.18205 0.03958 0.75171 0.0
H19 H 0.1222 0.0841 0.84648 0.0
H20 H 0.32528 0.12043 0.81408 0.0
C21 C 0.14171 0.90944 0.83084 0.0
C22 C 0.19324 0.88223 0.84514 0.0
C23 C 0.30125 0.91907 0.87213 0.0
C24 C 0.25052 0.9459 0.858 0.0
N25 N 0.17183 0.94078 0.83837 0.0
N26 N 0.27151 0.88796 0.8656 0.0
H27 H 0.07901 0.9058 0.81498 0.0
C28 C 0.38827 0.02164 0.80952 0.0
O29 O 0.33834 0.99756 0.79116 0.0
O30 O 0.9994 0.9763 0.82843 0.0
H31 H 0.27387 0.97077 0.86317 0.0
H32 H 0.08504 0.14137 0.86308 0.0
H33 H 0.36383 0.92288 0.88822 0.0
Zn34 Zn 0.77759 0.05124 0.24921 0.0
C35 C 0.86009 1.00307 0.14526 0.0
N36 N 0.80291 0.02056 0.11243 0.0
C37 C 0.76911 0.03609 0.14368 0.0
N38 N 0.80357 0.02849 0.19342 0.0
N39 N 0.86202 1.00783 0.19448 0.0
C40 C 0.08319 0.99456 0.27301 0.0
O41 O 0.05918 0.01899 0.29629 0.0
O42 O 0.66519 0.04073 0.2482 0.0
Zn43 Zn 0.9205 0.98061 0.25132 0.0
N44 N 0.78646 0.09816 0.23491 0.0
C45 C 0.84262 0.13806 0.19156 0.0
C46 C 0.83752 0.10567 0.20799 0.0
C47 C 0.74279 0.12232 0.24833 0.0
N48 N 0.79825 0.16201 0.20405 0.0
C49 C 0.74889 0.15522 0.23244 0.0
O50 O 0.92985 0.99998 0.3206 0.0
C51 C 0.9036 0.02206 0.34433 0.0
O52 O 0.84876 0.04183 0.32114 0.0
H53 H 0.87334 0.08653 0.19858 0.0
H54 H 0.70329 0.11594 0.27036 0.0
C55 C 0.88687 0.90863 0.24847 0.0
C56 C 0.83292 0.8823 0.24166 0.0
C57 C 0.72879 0.92081 0.23172 0.0
C58 C 0.78199 0.94682 0.23854 0.0
N59 N 0.85959 0.94039 0.24621 0.0
N60 N 0.75538 0.88924 0.23327 0.0
H61 H 0.94888 0.90401 0.25477 0.0
C62 C 0.64883 0.02036 0.27927 0.0
O63 O 0.70639 1.00596 0.31438 0.0
O64 O 0.03316 0.97321 0.24894 0.0
H65 H 0.76155 0.97214 0.23738 0.0
H66 H 0.8819 0.14419 0.1693 0.0
H67 H 0.66683 0.92563 0.2252 0.0
Zn68 Zn 0.74953 0.54844 0.31285 0.0
C69 C 0.66537 0.51666 0.42622 0.0
N70 N 0.71909 0.53766 0.45426 0.0
C71 C 0.75656 0.54781 0.42093 0.0
N72 N 0.72766 0.53328 0.37465 0.0
N73 N 0.67001 0.5135 0.37815 0.0
C74 C 0.45794 0.49946 0.30888 0.0
O75 O 0.48524 0.52222 0.28408 0.0
O76 O 0.86501 0.54584 0.31909 0.0
Zn77 Zn 0.61706 0.4787 0.33211 0.0
N78 N 0.71329 0.59378 0.30435 0.0
C79 C 0.60328 0.62851 0.29902 0.0
C80 C 0.63872 0.59746 0.30694 0.0
C81 C 0.75477 0.62012 0.29453 0.0
N82 N 0.64367 0.65467 0.28832 0.0
C83 C 0.71862 0.65156 0.28583 0.0
O84 O 0.61048 0.48536 0.25791 0.0
C85 C 0.63813 0.50326 0.22891 0.0
O86 O 0.68875 0.52581 0.24674 0.0
H87 H 0.60677 0.57618 0.31452 0.0
H88 H 0.81369 0.61641 0.29199 0.0
C89 C 0.64299 0.40743 0.3341 0.0
C90 C 0.67819 0.37764 0.35665 0.0
C91 C 0.76321 0.40819 0.42452 0.0
C92 C 0.72901 0.43763 0.40187 0.0
N93 N 0.66841 0.43679 0.35778 0.0
N94 N 0.73698 0.37895 0.40155 0.0
H95 H 0.59534 0.40727 0.29873 0.0
C96 C 0.89479 0.51779 0.31441 0.0
O97 O 0.84959 0.49139 0.30662 0.0
O98 O 0.50431 0.47694 0.33315 0.0
H99 H 0.75052 0.46092 0.41981 0.0
H100 H 0.54382 0.63179 0.30075 0.0
H101 H 0.81056 0.40856 0.45999 0.0
Zn102 Zn 0.27473 0.55009 0.7614 0.0
C103 C 0.35928 0.51894 0.64824 0.0
N104 N 0.30482 0.53962 0.61974 0.0
C105 C 0.26693 0.54957 0.65286 0.0
N106 N 0.29634 0.53519 0.69944 0.0
N107 N 0.35491 0.51585 0.69638 0.0
C108 C 0.56155 0.5019 0.75652 0.0
O109 O 0.53039 0.52769 0.77249 0.0
O110 O 0.15995 0.54664 0.75696 0.0
Zn111 Zn 0.40656 0.48056 0.74227 0.0
N112 N 0.30862 0.59575 0.76833 0.0
C113 C 0.41622 0.63133 0.77096 0.0
C114 C 0.38236 0.59999 0.76445 0.0
C115 C 0.26639 0.62181 0.77799 0.0
N116 N 0.37519 0.6572 0.78165 0.0
C117 C 0.30102 0.65351 0.78533 0.0
O118 O 0.41624 0.48776 0.81656 0.0
C119 C 0.38931 0.50567 0.84569 0.0
O120 O 0.33775 0.52799 0.82788 0.0
H121 H 0.41489 0.57895 0.75691 0.0
H122 H 0.20814 0.61771 0.78153 0.0
C123 C 0.37533 0.40959 0.738 0.0
C124 C 0.33198 0.38102 0.71744 0.0
C125 C 0.23905 0.4149 0.65804 0.0
C126 C 0.28138 0.44302 0.67887 0.0
N127 N 0.34915 0.43993 0.71792 0.0
N128 N 0.26518 0.38473 0.67772 0.0
H129 H 0.42939 0.40786 0.76905 0.0
C130 C 0.12603 0.51856 0.75188 0.0
O131 O 0.16569 0.49186 0.74728 0.0
O132 O 0.51864 0.47671 0.74016 0.0
H133 H 0.26011 0.46709 0.6636 0.0
H134 H 0.47501 0.63504 0.76821 0.0
H135 H 0.18549 0.41702 0.62667 0.0
H136 H 0.87023 0.95347 0.84378 0.0
H137 H 0.85487 0.05361 0.78464 0.0
H138 H 0.73428 0.95755 0.84681 0.0
H139 H 0.72011 0.05752 0.78743 0.0
H140 H 0.50738 0.06636 0.84569 0.0
H141 H 0.64546 0.06031 0.8498 0.0
H142 H 0.59893 0.96184 0.78657 0.0
H143 H 0.4609 0.96772 0.78283 0.0
C144 C 0.83794 0.97627 0.83132 0.0
C145 C 0.87344 1.00314 0.81378 0.0
C146 C 0.76005 0.97859 0.83296 0.0
C147 C 0.71638 1.00793 0.81753 0.0
C148 C 0.75228 0.03475 0.8003 0.0
C149 C 0.82958 0.03237 0.79836 0.0
C150 C 0.52652 0.04339 0.8327 0.0
C151 C 0.47277 0.01767 0.81341 0.0
C152 C 0.60569 0.03995 0.83496 0.0
C153 C 0.63321 1.01065 0.81822 0.0
C154 C 0.57986 0.98462 0.80014 0.0
C155 C 0.50056 0.98811 0.79766 0.0
H156 H 0.59429 0.99086 0.35211 0.0
H157 H 0.51566 0.0335 0.2003 0.0
H158 H 0.45783 0.9808 0.34947 0.0
H159 H 0.37898 0.02259 0.1974 0.0
H160 H 0.14864 0.96534 0.20413 0.0
H161 H 0.28616 0.96925 0.20322 0.0
H162 H 0.34359 0.02441 0.34426 0.0
H163 H 0.20691 0.02161 0.34432 0.0
C164 C 0.54802 0.99779 0.31797 0.0
C165 C 0.56592 1.01316 0.27652 0.0
C166 C 0.46995 0.99199 0.31651 0.0
C167 C 0.40803 1.00081 0.27318 0.0
C168 C 0.42573 1.01528 0.23106 0.0
C169 C 0.5039 0.02171 0.23291 0.0
C170 C 0.19078 0.9782 0.2349 0.0
C171 C 0.16683 0.99344 0.274 0.0
C172 C 0.26923 0.9805 0.23431 0.0
C173 C 0.32529 0.99717 0.27367 0.0
C174 C 0.30169 1.01131 0.31359 0.0
C175 C 0.22335 1.00976 0.31348 0.0
H176 H 0.38377 0.4584 0.36022 0.0
H177 H 0.34706 0.54567 0.26368 0.0
H178 H 0.24931 0.46297 0.36515 0.0
H179 H 0.21293 0.54996 0.2682 0.0
H180 H 1.00386 0.56745 0.32852 0.0
H181 H 0.14119 0.56275 0.33011 0.0
H182 H 0.11343 0.45689 0.30844 0.0
H183 H 0.97642 0.46148 0.30738 0.0
C184 C 0.34696 0.47843 0.33984 0.0
C185 C 0.37606 0.50158 0.31135 0.0
C186 C 0.26991 0.48101 0.3426 0.0
C187 C 0.22048 0.50686 0.31713 0.0
C188 C 0.2498 0.53002 0.28884 0.0
C189 C 0.32658 0.5274 0.28594 0.0
C190 C 0.02709 0.54315 0.32426 0.0
C191 C 0.97898 0.51487 0.31744 0.0
C192 C 0.1057 0.54048 0.32497 0.0
C193 C 0.13811 0.50947 0.3191 0.0
C194 C 0.09047 0.4811 0.31349 0.0
C195 C 1.01177 0.48378 0.31257 0.0
H196 H 0.64408 0.55742 0.74955 0.0
H197 H 0.66182 0.45064 0.75521 0.0
H198 H 0.77744 0.56137 0.74427 0.0
H199 H 0.79776 0.45439 0.75332 0.0
H200 H 0.02147 0.46977 0.70857 0.0
H201 H 0.88377 0.46575 0.70609 0.0
H202 H 0.90667 0.5569 0.79228 0.0
H203 H 0.04236 0.56173 0.79169 0.0
C204 C 0.67712 0.53475 0.75038 0.0
C205 C 0.64286 0.50373 0.75328 0.0
C206 C 0.75402 0.53698 0.74768 0.0
C207 C 0.79957 0.50825 0.74906 0.0
C208 C 0.76466 0.47712 0.75147 0.0
C209 C 0.68686 0.47489 0.75299 0.0
C210 C 0.99666 0.48896 0.72675 0.0
C211 C 0.04252 0.51608 0.75026 0.0
C212 C 0.91776 0.48658 0.72568 0.0
C213 C 0.88331 0.51095 0.74902 0.0
C214 C 0.92994 0.53798 0.77279 0.0
C215 C 1.00819 0.54069 0.77286 0.0
H216 H 0.98579 0.99686 0.67052 0.0
H217 H 0.19755 0.04493 0.66024 0.0
H218 H 0.93111 0.99989 0.57739 0.0
H219 H 0.14308 0.04739 0.56699 0.0
H220 H 0.04881 1.00167 0.40197 0.0
H221 H 0.1033 1.00254 0.49505 0.0
H222 H 0.88935 0.04701 0.50757 0.0
H223 H 0.83491 0.04672 0.41409 0.0
C224 C 0.02079 1.00794 0.64839 0.0
C225 C 0.09614 0.02057 0.67276 0.0
C226 C 0.98919 1.00989 0.59515 0.0
C227 C 0.03284 0.02392 0.56507 0.0
C228 C 0.10832 0.03635 0.58931 0.0
C229 C 0.13933 0.03501 0.64264 0.0
C230 C 0.01348 1.01183 0.4245 0.0
C231 C 0.93749 0.02413 0.40066 0.0
C232 C 0.04488 1.01245 0.47776 0.0
C233 C 1.00048 0.02478 0.50845 0.0
C234 C 0.92463 0.03721 0.48474 0.0
C235 C 0.89373 0.03722 0.43131 0.0
H236 H 0.53125 0.47864 0.89757 0.0
H237 H 0.32655 0.52546 0.92127 0.0
H238 H 0.59263 0.47621 0.99007 0.0
H239 H 0.38781 0.52238 1.014 0.0
H240 H 0.49642 0.47662 0.17631 0.0
H241 H 0.43536 0.47558 0.08373 0.0
H242 H 0.64141 0.52164 0.06117 0.0
H243 H 0.70235 0.52332 0.15398 0.0
C244 C 0.49889 0.48805 0.92248 0.0
C245 C 0.42383 0.50221 0.90198 0.0
C246 C 0.53438 0.48684 0.97543 0.0
C247 C 0.49504 0.49913 1.00916 0.0
C248 C 0.41926 0.51255 0.98884 0.0
C249 C 0.38434 0.51439 0.93579 0.0
C250 C 0.52919 0.48622 0.15167 0.0
C251 C 0.60445 0.49999 0.17259 0.0
C252 C 0.49386 0.48584 0.09868 0.0
C253 C 0.53355 0.4986 0.06533 0.0
C254 C 0.60965 0.51149 0.08603 0.0
C255 C 0.64443 0.5125 0.13913 0.0
H256 H 0.28532 0.09253 0.99539 0.0
H257 H 0.39777 0.02774 0.9136 0.0
H258 H 0.41438 0.10737 0.05347 0.0
H259 H 0.52601 0.0451 0.96751 0.0
H260 H 0.62762 0.02561 0.15793 0.0
H261 H 0.50184 0.04567 0.10325 0.0
H262 H 0.62206 0.10445 1.01767 0.0
H263 H 0.74877 0.08664 0.07599 0.0
C264 C 0.33779 0.08347 0.98743 0.0
C265 C 0.33192 0.06024 0.94829 0.0
C266 C 0.41128 0.09196 1.02058 0.0
C267 C 0.47963 0.07783 1.01415 0.0
C268 C 0.47407 0.05716 0.97205 0.0
C269 C 0.40062 0.04782 0.94013 0.0
C270 C 0.62742 0.04537 0.13106 0.0
C271 C 0.69767 0.05593 0.12297 0.0
C272 C 0.5554 0.05633 0.09887 0.0
C273 C 0.55277 0.07691 0.05686 0.0
C274 C 0.62296 0.08915 0.0505 0.0
C275 C 0.69508 0.07894 0.08374 0.0
H276 H 0.12845 0.52418 0.65434 0.0
H277 H 0.23321 0.60695 0.59893 0.0
H278 H 1.00227 0.53671 0.59246 0.0
H279 H 0.10689 0.61863 0.5346 0.0
H280 H 0.78675 0.60415 0.47661 0.0
H281 H 0.91309 0.61656 0.53996 0.0
H282 H 0.02283 0.53913 0.47688 0.0
H283 H 0.89665 0.52584 0.41554 0.0
C284 C 0.12302 0.54666 0.63192 0.0
C285 C 0.18967 0.56551 0.63322 0.0
C286 C 0.05132 0.55329 0.59537 0.0
C287 C 0.04551 0.57858 0.559 0.0
C288 C 0.11014 0.59926 0.56273 0.0
C289 C 0.1819 0.59277 0.59978 0.0
C290 C 0.83896 0.59119 0.4744 0.0
C291 C 0.83257 0.56477 0.43993 0.0
C292 C 0.91083 0.59812 0.51084 0.0
C293 C 0.97701 0.57879 0.5129 0.0
C294 C 0.97247 0.55466 0.47528 0.0
C295 C 0.90061 0.54756 0.43923 0.0
H296 H 0.01718 1.01043 0.16647 0.0
H297 H 0.81978 0.95416 0.07585 0.0
H298 H 0.09382 0.99352 0.11018 0.0
H299 H 0.89489 0.93885 1.01739 0.0
H300 H 0.01259 1.01504 0.91257 0.0
H301 H 0.9384 0.99465 0.96836 0.0
H302 H 0.14263 0.94092 0.05763 0.0
H303 H 0.21472 0.95914 0.99854 0.0
C304 C 0.99228 0.99246 0.13684 0.0
C305 C 0.91376 0.98263 0.12652 0.0
C306 C 0.03562 0.98316 0.10403 0.0
C307 C 1.00005 0.96481 0.05966 0.0
C308 C 0.92372 0.95261 0.05174 0.0
C309 C 0.88108 0.96127 0.08525 0.0
C310 C 0.03905 0.99638 0.94091 0.0
C311 C 0.1178 0.98734 0.94968 0.0
C312 C 0.99726 0.9852 0.97365 0.0
C313 C 0.03495 0.96606 1.01702 0.0
C314 C 0.11217 0.9552 1.02399 0.0
C315 C 0.1531 0.96554 0.99017 0.0
H316 H 0.31581 0.47038 0.57804 0.0
H317 H 0.51293 0.52943 0.66176 0.0
H318 H 0.38924 0.45317 0.51921 0.0
H319 H 0.58855 0.51023 0.60629 0.0
H320 H 0.71242 0.47178 0.50229 0.0
H321 H 0.63849 0.45571 0.56125 0.0
H322 H 0.43315 0.50503 0.46411 0.0
H323 H 0.50864 0.52289 0.40746 0.0
C324 C 0.37667 0.47782 0.58582 0.0
C325 C 0.41053 0.49995 0.62573 0.0
C326 C 0.41837 0.46803 0.55229 0.0
C327 C 0.49471 0.47994 0.55894 0.0
C328 C 0.53058 0.49991 0.60136 0.0
C329 C 0.48796 0.51053 0.6337 0.0
C330 C 0.65032 0.47761 0.4923 0.0
C331 C 0.61491 0.4974 0.44933 0.0
C332 C 0.60827 0.46843 0.52595 0.0
C333 C 0.53016 0.4788 0.51669 0.0
C334 C 0.49274 0.49598 0.47124 0.0
C335 C 0.53546 0.50586 0.43836 0.0
H336 H 0.26338 0.2165 0.88343 0.0
H337 H 0.33648 0.16749 0.76473 0.0
H338 H 0.31038 0.269 0.86032 0.0
H339 H 0.38629 0.2201 0.74271 0.0
H340 H 0.30674 0.32333 0.66473 0.0
H341 H 0.31407 0.26748 0.69904 0.0
H342 H 0.41321 0.3056 0.85198 0.0
H343 H 0.40344 0.36195 0.81754 0.0
C344 C 0.29144 0.21676 0.85324 0.0
C345 C 0.29519 0.1878 0.82559 0.0
C346 C 0.31929 0.2469 0.84033 0.0
C347 C 0.3515 0.24891 0.79928 0.0
C348 C 0.36084 0.21947 0.77412 0.0
C349 C 0.33294 0.1892 0.78712 0.0
C350 C 0.33162 0.31979 0.70562 0.0
C351 C 0.35367 0.34717 0.73835 0.0
C352 C 0.33663 0.28763 0.72532 0.0
C353 C 0.36361 0.28198 0.77838 0.0
C354 C 0.39125 0.30915 0.81094 0.0
C355 C 0.38639 0.34146 0.79113 0.0
H356 H 0.67363 0.35967 0.26007 0.0
H357 H 0.63886 0.32209 0.39955 0.0
H358 H 0.6698 0.30348 0.22756 0.0
H359 H 0.6288 0.2658 0.36602 0.0
H360 H 0.75189 0.17265 0.32888 0.0
H361 H 0.71355 0.2259 0.35541 0.0
H362 H 0.61315 0.25407 0.19648 0.0
H363 H 0.65743 0.20154 0.17071 0.0
C364 C 0.6619 0.33935 0.28284 0.0
C365 C 0.65673 0.34505 0.33224 0.0
C366 C 0.65939 0.30696 0.26423 0.0
C367 C 0.65004 0.2796 0.29431 0.0
C368 C 0.63851 0.28589 0.34222 0.0
C369 C 0.64319 0.31819 0.36129 0.0
C370 C 0.71975 0.18997 0.29981 0.0
C371 C 0.70763 0.18316 0.24787 0.0
C372 C 0.69739 0.22063 0.31488 0.0
C373 C 0.66099 0.24492 0.27819 0.0
C374 C 0.64311 0.23665 0.22601 0.0
C375 C 0.66741 0.20635 0.21108 0.0
H376 H 0.80575 0.84012 0.16219 0.0
H377 H 0.90453 0.84551 0.32594 0.0
H378 H 0.80045 0.77972 0.16753 0.0
H379 H 0.89721 0.78503 0.33191 0.0
H380 H 0.87175 0.67271 0.32702 0.0
H381 H 0.92634 0.7265 0.31184 0.0
H382 H 0.70509 0.75111 0.20062 0.0
H383 H 0.65167 0.69802 0.2155 0.0
C384 C 0.82938 0.82815 0.1991 0.0
C385 C 0.85602 0.8472 0.2436 0.0
C386 C 0.82563 0.79365 0.20231 0.0
C387 C 0.84687 0.77762 0.25025 0.0
C388 C 0.8808 0.79655 0.29439 0.0
C389 C 0.8852 0.83116 0.29106 0.0
C390 C 0.83583 0.68938 0.29843 0.0
C391 C 0.75743 0.68127 0.27244 0.0
C392 C 0.86682 0.7202 0.28999 0.0
C393 C 0.82027 0.74305 0.25482 0.0
C394 C 0.74324 0.73399 0.22727 0.0
C395 C 0.71222 0.70363 0.23615 0.0
H396 H 0.36618 0.6978 0.85871 0.0
H397 H 0.14939 0.67588 0.74211 0.0
H398 H 0.31267 0.75043 0.87538 0.0
H399 H 0.09489 0.7294 0.75873 0.0
H400 H 0.126 0.84973 0.75565 0.0
H401 H 0.13038 0.78955 0.74407 0.0
H402 H 0.21157 0.77633 0.90809 0.0
H403 H 0.20919 0.83629 0.91924 0.0
C404 C 0.30629 0.70407 0.83729 0.0
C405 C 0.26191 0.68281 0.79924 0.0
C406 C 0.27527 0.73414 0.8471 0.0
C407 C 0.1992 0.74403 0.81863 0.0
C408 C 0.15357 0.72235 0.78135 0.0
C409 C 0.18446 0.69174 0.77208 0.0
C410 C 0.14115 0.83373 0.78908 0.0
C411 C 0.16735 0.84742 0.83831 0.0
C412 C 0.14387 0.7993 0.78253 0.0
C413 C 0.17282 0.77828 0.8252 0.0
C414 C 0.19028 0.79194 0.87449 0.0
C415 C 0.18832 0.8262 0.88094 0.0
loop_
_geom_bond_atom_site_label_1
_geom_bond_atom_site_label_2
_geom_bond_distance
_geom_bond_site_symmetry_2
_ccdc_geom_bond_type
Zn0 N4 2.020 . S
Zn0 O8 2.019 . S
Zn0 N10 2.119 . S
Zn0 O18 1.975 . S
C1 N2 1.337 . S
C1 N5 1.336 . S
N2 C1 1.337 . S
N2 C3 1.331 1_565 S
C3 N2 1.331 1_545 S
C3 N4 1.336 . S
N4 Zn0 2.020 . S
N4 C3 1.336 . S
N4 N5 1.354 1_545 S
N5 C1 1.336 . S
N5 N4 1.354 1_565 S
N5 Zn9 2.020 . S
C6 O7 1.244 1_565 S
C6 O30 1.257 . S
O7 C6 1.244 1_545 S
O8 Zn0 2.019 . S
O8 C28 1.257 . S
Zn9 N5 2.020 . S
Zn9 O16 1.975 . S
Zn9 N25 2.119 . S
Zn9 O30 2.019 1_455 S
N10 Zn0 2.119 . S
N10 C12 1.334 . S
N10 C13 1.328 . S
C11 C12 1.391 . S
C11 N14 1.329 . S
C11 H32 0.930 . S
C12 N10 1.334 . S
C12 C11 1.391 . S
C12 H19 0.930 . S
C13 N10 1.328 . S
C13 C15 1.392 . S
C13 H20 0.930 . S
N14 C11 1.329 . S
N14 C15 1.331 . S
C15 C13 1.392 . S
C15 N14 1.331 . S
O16 Zn9 1.975 . S
O16 C17 1.250 1_565 S
C17 O16 1.250 1_545 S
C17 O18 1.254 . S
O18 Zn0 1.975 . S
O18 C17 1.254 . S
H19 C12 0.930 . S
H20 C13 0.930 . S
C21 C22 1.392 . S
C21 N25 1.328 . S
C21 H27 0.930 . S
C22 C21 1.392 . S
C22 N26 1.331 . S
C23 C24 1.391 . S
C23 N26 1.329 . S
C23 H33 0.930 . S
C24 C23 1.391 . S
C24 N25 1.334 . S
C24 H31 0.930 . S
N25 Zn9 2.119 . S
N25 C21 1.328 . S
N25 C24 1.334 . S
N26 C22 1.331 . S
N26 C23 1.329 . S
H27 C21 0.930 . S
C28 O8 1.257 . S
C28 O29 1.244 1_545 S
O29 C28 1.244 1_565 S
O30 C6 1.257 . S
O30 Zn9 2.019 1_655 S
H31 C24 0.930 . S
H32 C11 0.930 . S
H33 C23 0.930 . S
Zn34 N38 2.020 . S
Zn34 O42 2.019 . S
Zn34 N44 2.119 . S
Zn34 O52 1.975 . S
C35 N36 1.337 . S
C35 N39 1.336 . S
N36 C35 1.337 . S
N36 C37 1.331 1_565 S
C37 N36 1.331 1_545 S
C37 N38 1.336 . S
N38 Zn34 2.020 . S
N38 C37 1.336 . S
N38 N39 1.354 1_545 S
N39 C35 1.336 . S
N39 N38 1.354 1_565 S
N39 Zn43 2.020 . S
C40 O41 1.244 1_565 S
C40 O64 1.257 . S
O41 C40 1.244 1_545 S
O42 Zn34 2.019 . S
O42 C62 1.257 . S
Zn43 N39 2.020 . S
Zn43 O50 1.975 . S
Zn43 N59 2.119 . S
Zn43 O64 2.019 1_655 S
N44 Zn34 2.119 . S
N44 C46 1.334 . S
N44 C47 1.328 . S
C45 C46 1.391 . S
C45 N48 1.329 . S
C45 H66 0.930 . S
C46 N44 1.334 . S
C46 C45 1.391 . S
C46 H53 0.930 . S
C47 N44 1.328 . S
C47 C49 1.392 . S
C47 H54 0.930 . S
N48 C45 1.329 . S
N48 C49 1.331 . S
C49 C47 1.392 . S
C49 N48 1.331 . S
O50 Zn43 1.975 . S
O50 C51 1.250 1_565 S
C51 O50 1.250 1_545 S
C51 O52 1.254 . S
O52 Zn34 1.975 . S
O52 C51 1.254 . S
H53 C46 0.930 . S
H54 C47 0.930 . S
C55 C56 1.392 . S
C55 N59 1.328 . S
C55 H61 0.930 . S
C56 C55 1.392 . S
C56 N60 1.331 . S
C57 C58 1.391 . S
C57 N60 1.329 . S
C57 H67 0.930 . S
C58 C57 1.391 . S
C58 N59 1.334 . S
C58 H65 0.930 . S
N59 Zn43 2.119 . S
N59 C55 1.328 . S
N59 C58 1.334 . S
N60 C56 1.331 . S
N60 C57 1.329 . S
H61 C55 0.930 . S
C62 O42 1.257 . S
C62 O63 1.244 1_545 S
O63 C62 1.244 1_565 S
O64 C40 1.257 . S
O64 Zn43 2.019 1_455 S
H65 C58 0.930 . S
H66 C45 0.930 . S
H67 C57 0.930 . S
Zn68 N72 2.020 . S
Zn68 O76 2.019 . S
Zn68 N78 2.119 . S
Zn68 O86 1.975 . S
C69 N70 1.334 . S
C69 N73 1.336 . S
N70 C69 1.334 . S
N70 C71 1.334 . S
C71 N70 1.334 . S
C71 N72 1.336 . S
N72 Zn68 2.020 . S
N72 C71 1.336 . S
N72 N73 1.354 . S
N73 C69 1.336 . S
N73 N72 1.354 . S
N73 Zn77 2.020 . S
C74 O75 1.244 . S
C74 O98 1.257 . S
O75 C74 1.244 . S
O76 Zn68 2.019 . S
O76 C96 1.257 . S
Zn77 N73 2.020 . S
Zn77 O84 1.975 . S
Zn77 N93 2.119 . S
Zn77 O98 2.019 . S
N78 Zn68 2.119 . S
N78 C80 1.334 . S
N78 C81 1.328 . S
C79 C80 1.391 . S
C79 N82 1.329 . S
C79 H100 0.930 . S
C80 N78 1.334 . S
C80 C79 1.391 . S
C80 H87 0.930 . S
C81 N78 1.328 . S
C81 C83 1.392 . S
C81 H88 0.930 . S
N82 C79 1.329 . S
N82 C83 1.331 . S
C83 C81 1.392 . S
C83 N82 1.331 . S
O84 Zn77 1.975 . S
O84 C85 1.252 . S
C85 O84 1.252 . S
C85 O86 1.252 . S
O86 Zn68 1.975 . S
O86 C85 1.252 . S
H87 C80 0.930 . S
H88 C81 0.930 . S
C89 C90 1.392 . S
C89 N93 1.328 . S
C89 H95 0.930 . S
C90 C89 1.392 . S
C90 N94 1.331 . S
C91 C92 1.391 . S
C91 N94 1.329 . S
C91 H101 0.930 . S
C92 C91 1.391 . S
C92 N93 1.334 . S
C92 H99 0.930 . S
N93 Zn77 2.119 . S
N93 C89 1.328 . S
N93 C92 1.334 . S
N94 C90 1.331 . S
N94 C91 1.329 . S
H95 C89 0.930 . S
C96 O76 1.257 . S
C96 O97 1.244 . S
O97 C96 1.244 . S
O98 C74 1.257 . S
O98 Zn77 2.019 . S
H99 C92 0.930 . S
H100 C79 0.930 . S
H101 C91 0.930 . S
Zn102 N106 2.020 . S
Zn102 O110 2.019 . S
Zn102 N112 2.119 . S
Zn102 O120 1.975 . S
C103 N104 1.334 . S
C103 N107 1.336 . S
N104 C103 1.334 . S
N104 C105 1.334 . S
C105 N104 1.334 . S
C105 N106 1.336 . S
N106 Zn102 2.020 . S
N106 C105 1.336 . S
N106 N107 1.354 . S
N107 C103 1.336 . S
N107 N106 1.354 . S
N107 Zn111 2.020 . S
C108 O109 1.244 . S
C108 O132 1.257 . S
O109 C108 1.244 . S
O110 Zn102 2.019 . S
O110 C130 1.257 . S
Zn111 N107 2.020 . S
Zn111 O118 1.975 . S
Zn111 N127 2.119 . S
Zn111 O132 2.019 . S
N112 Zn102 2.119 . S
N112 C114 1.334 . S
N112 C115 1.328 . S
C113 C114 1.391 . S
C113 N116 1.329 . S
C113 H134 0.930 . S
C114 N112 1.334 . S
C114 C113 1.391 . S
C114 H121 0.930 . S
C115 N112 1.328 . S
C115 C117 1.392 . S
C115 H122 0.930 . S
N116 C113 1.329 . S
N116 C117 1.331 . S
C117 C115 1.392 . S
C117 N116 1.331 . S
O118 Zn111 1.975 . S
O118 C119 1.252 . S
C119 O118 1.252 . S
C119 O120 1.252 . S
O120 Zn102 1.975 . S
O120 C119 1.252 . S
H121 C114 0.930 . S
H122 C115 0.930 . S
C123 C124 1.392 . S
C123 N127 1.328 . S
C123 H129 0.930 . S
C124 C123 1.392 . S
C124 N128 1.331 . S
C125 C126 1.391 . S
C125 N128 1.329 . S
C125 H135 0.930 . S
C126 C125 1.391 . S
C126 N127 1.334 . S
C126 H133 0.930 . S
N127 Zn111 2.119 . S
N127 C123 1.328 . S
N127 C126 1.334 . S
N128 C124 1.331 . S
N128 C125 1.329 . S
H129 C123 0.930 . S
C130 O110 1.257 . S
C130 O131 1.244 . S
O131 C130 1.244 . S
O132 C108 1.257 . S
O132 Zn111 2.019 . S
H133 C126 0.930 . S
H134 C113 0.930 . S
H135 C125 0.930 . S
H136 C144 0.950 . S
H137 C149 0.950 . S
H138 C146 0.950 . S
H139 C148 0.950 . S
H140 C150 0.950 . S
H141 C152 0.950 . S
H142 C154 0.950 . S
H143 C155 0.950 . S
C144 H136 0.950 . S
C144 C145 1.386 . S
C144 C146 1.391 . S
C145 C144 1.386 . S
C145 C149 1.393 1_565 S
C146 H138 0.950 . S
C146 C144 1.391 . S
C146 C147 1.400 . S
C147 C146 1.400 . S
C147 C148 1.398 1_565 S
C147 C153 1.491 1_565 S
C148 H139 0.950 . S
C148 C147 1.398 1_545 S
C148 C149 1.391 . S
C149 H137 0.950 . S
C149 C145 1.393 1_545 S
C149 C148 1.391 . S
C150 H140 0.950 . S
C150 C151 1.386 . S
C150 C152 1.391 . S
C151 C150 1.386 . S
C151 C155 1.393 1_545 S
C152 H141 0.950 . S
C152 C150 1.391 . S
C152 C153 1.400 . S
C153 C147 1.491 1_545 S
C153 C152 1.400 . S
C153 C154 1.398 1_545 S
C154 H142 0.950 . S
C154 C153 1.398 1_565 S
C154 C155 1.391 . S
C155 H143 0.950 . S
C155 C151 1.393 1_565 S
C155 C154 1.391 . S
H156 C164 0.950 . S
H157 C169 0.950 . S
H158 C166 0.950 1_565 S
H159 C168 0.950 . S
H160 C170 0.950 . S
H161 C172 0.950 1_545 S
H162 C174 0.950 . S
H163 C175 0.950 . S
C164 H156 0.950 . S
C164 C165 1.386 . S
C164 C166 1.391 . S
C165 C164 1.386 . S
C165 C169 1.393 . S
C166 H158 0.950 1_545 S
C166 C164 1.391 . S
C166 C167 1.400 . S
C167 C166 1.400 . S
C167 C168 1.398 . S
C167 C173 1.491 1_545 S
C168 H159 0.950 . S
C168 C167 1.398 . S
C168 C169 1.391 . S
C169 H157 0.950 . S
C169 C165 1.393 . S
C169 C168 1.391 . S
C170 H160 0.950 . S
C170 C171 1.386 . S
C170 C172 1.391 . S
C171 C170 1.386 . S
C171 C175 1.393 . S
C172 H161 0.950 1_565 S
C172 C170 1.391 . S
C172 C173 1.400 . S
C173 C167 1.491 1_565 S
C173 C172 1.400 . S
C173 C174 1.398 . S
C174 H162 0.950 . S
C174 C173 1.398 . S
C174 C175 1.391 . S
C175 H163 0.950 . S
C175 C171 1.393 . S
C175 C174 1.391 . S
H176 C184 0.950 . S
H177 C189 0.950 . S
H178 C186 0.950 . S
H179 C188 0.950 . S
H180 C190 0.950 1_655 S
H181 C192 0.950 . S
H182 C194 0.950 . S
H183 C195 0.950 1_655 S
C184 H176 0.950 . S
C184 C185 1.386 . S
C184 C186 1.391 . S
C185 C184 1.386 . S
C185 C189 1.393 . S
C186 H178 0.950 . S
C186 C184 1.391 . S
C186 C187 1.400 . S
C187 C186 1.400 . S
C187 C188 1.398 . S
C187 C193 1.491 . S
C188 H179 0.950 . S
C188 C187 1.398 . S
C188 C189 1.391 . S
C189 H177 0.950 . S
C189 C185 1.393 . S
C189 C188 1.391 . S
C190 H180 0.950 1_455 S
C190 C191 1.386 1_455 S
C190 C192 1.391 . S
C191 C190 1.386 1_655 S
C191 C195 1.393 1_655 S
C192 H181 0.950 . S
C192 C190 1.391 . S
C192 C193 1.400 . S
C193 C187 1.491 . S
C193 C192 1.400 . S
C193 C194 1.398 . S
C194 H182 0.950 . S
C194 C193 1.398 . S
C194 C195 1.391 . S
C195 H183 0.950 1_455 S
C195 C191 1.393 1_455 S
C195 C194 1.391 . S
H196 C204 0.950 . S
H197 C209 0.950 . S
H198 C206 0.950 . S
H199 C208 0.950 . S
H200 C210 0.950 1_455 S
H201 C212 0.950 . S
H202 C214 0.950 . S
H203 C215 0.950 1_455 S
C204 H196 0.950 . S
C204 C205 1.386 . S
C204 C206 1.391 . S
C205 C204 1.386 . S
C205 C209 1.393 . S
C206 H198 0.950 . S
C206 C204 1.391 . S
C206 C207 1.400 . S
C207 C206 1.400 . S
C207 C208 1.398 . S
C207 C213 1.491 . S
C208 H199 0.950 . S
C208 C207 1.398 . S
C208 C209 1.391 . S
C209 H197 0.950 . S
C209 C205 1.393 . S
C209 C208 1.391 . S
C210 H200 0.950 1_655 S
C210 C211 1.386 1_655 S
C210 C212 1.391 . S
C211 C210 1.386 1_455 S
C211 C215 1.393 1_455 S
C212 H201 0.950 . S
C212 C210 1.391 . S
C212 C213 1.400 . S
C213 C207 1.491 . S
C213 C212 1.400 . S
C213 C214 1.398 . S
C214 H202 0.950 . S
C214 C213 1.398 . S
C214 C215 1.391 . S
C215 H203 0.950 1_655 S
C215 C211 1.393 1_655 S
C215 C214 1.391 . S
H216 C224 0.950 . S
H217 C229 0.950 . S
H218 C226 0.950 . S
H219 C228 0.950 . S
H220 C230 0.950 . S
H221 C232 0.950 . S
H222 C234 0.950 . S
H223 C235 0.950 . S
C224 H216 0.950 . S
C224 C225 1.386 1_565 S
C224 C226 1.391 1_455 S
C225 C224 1.386 1_545 S
C225 C229 1.393 . S
C226 H218 0.950 . S
C226 C224 1.391 1_655 S
C226 C227 1.400 1_665 S
C227 C226 1.400 1_445 S
C227 C228 1.398 . S
C227 C233 1.491 1_445 S
C228 H219 0.950 . S
C228 C227 1.398 . S
C228 C229 1.391 . S
C229 H217 0.950 . S
C229 C225 1.393 . S
C229 C228 1.391 . S
C230 H220 0.950 . S
C230 C231 1.377 1_545 S
C230 C232 1.391 1_655 S
C231 C230 1.377 1_565 S
C231 C235 1.402 . S
C232 H221 0.950 . S
C232 C230 1.391 1_455 S
C232 C233 1.401 1_445 S
C233 C227 1.491 1_665 S
C233 C232 1.401 1_665 S
C233 C234 1.398 . S
C234 H222 0.950 . S
C234 C233 1.398 . S
C234 C235 1.391 . S
C235 H223 0.950 . S
C235 C231 1.402 . S
C235 C234 1.391 . S
H236 C244 0.950 . S
H237 C249 0.950 . S
H238 C246 0.950 . S
H239 C248 0.950 . S
H240 C250 0.950 . S
H241 C252 0.950 . S
H242 C254 0.950 . S
H243 C255 0.950 . S
C244 H236 0.950 . S
C244 C245 1.386 . S
C244 C246 1.391 . S
C245 C244 1.386 . S
C245 C249 1.393 . S
C246 H238 0.950 . S
C246 C244 1.391 . S
C246 C247 1.400 . S
C247 C246 1.400 . S
C247 C248 1.398 . S
C247 C253 1.491 1_556 S
C248 H239 0.950 . S
C248 C247 1.398 . S
C248 C249 1.391 . S
C249 H237 0.950 . S
C249 C245 1.393 . S
C249 C248 1.391 . S
C250 H240 0.950 . S
C250 C251 1.386 . S
C250 C252 1.391 . S
C251 C250 1.386 . S
C251 C255 1.393 . S
C252 H241 0.950 . S
C252 C250 1.391 . S
C252 C253 1.400 . S
C253 C247 1.491 1_554 S
C253 C252 1.400 . S
C253 C254 1.398 . S
C254 H242 0.950 . S
C254 C253 1.398 . S
C254 C255 1.391 . S
C255 H243 0.950 . S
C255 C251 1.393 . S
C255 C254 1.391 . S
H256 C264 0.950 . S
H257 C269 0.950 . S
H258 C266 0.950 . S
H259 C268 0.950 . S
H260 C270 0.950 . S
H261 C272 0.950 . S
H262 C274 0.950 . S
H263 C275 0.950 . S
C264 H256 0.950 . S
C264 C265 1.386 . S
C264 C266 1.391 . S
C265 C264 1.386 . S
C265 C269 1.393 1_545 S
C266 H258 0.950 . S
C266 C264 1.391 . S
C266 C267 1.400 . S
C267 C266 1.400 . S
C267 C268 1.398 1_545 S
C267 C273 1.491 1_556 S
C268 H259 0.950 . S
C268 C267 1.398 1_565 S
C268 C269 1.391 . S
C269 H257 0.950 . S
C269 C265 1.393 1_565 S
C269 C268 1.391 . S
C270 H260 0.950 . S
C270 C271 1.386 1_565 S
C270 C272 1.391 . S
C271 C270 1.386 1_545 S
C271 C275 1.393 . S
C272 H261 0.950 . S
C272 C270 1.391 . S
C272 C273 1.400 1_565 S
C273 C267 1.491 1_554 S
C273 C272 1.400 1_545 S
C273 C274 1.398 . S
C274 H262 0.950 . S
C274 C273 1.398 . S
C274 C275 1.391 . S
C275 H263 0.950 . S
C275 C271 1.393 . S
C275 C274 1.391 . S
H276 C284 0.950 . S
H277 C289 0.950 . S
H278 C286 0.950 . S
H279 C288 0.950 1_655 S
H280 C290 0.950 . S
H281 C292 0.950 . S
H282 C294 0.950 1_455 S
H283 C295 0.950 . S
C284 H276 0.950 . S
C284 C285 1.386 . S
C284 C286 1.391 . S
C285 C284 1.386 . S
C285 C289 1.393 . S
C286 H278 0.950 . S
C286 C284 1.391 . S
C286 C287 1.400 . S
C287 C286 1.400 . S
C287 C288 1.398 . S
C287 C293 1.491 1_455 S
C288 H279 0.950 1_455 S
C288 C287 1.398 . S
C288 C289 1.391 . S
C289 H277 0.950 . S
C289 C285 1.393 . S
C289 C288 1.391 . S
C290 H280 0.950 . S
C290 C291 1.386 . S
C290 C292 1.391 . S
C291 C290 1.386 . S
C291 C295 1.393 . S
C292 H281 0.950 . S
C292 C290 1.391 . S
C292 C293 1.400 . S
C293 C287 1.491 1_655 S
C293 C292 1.400 . S
C293 C294 1.398 . S
C294 H282 0.950 1_655 S
C294 C293 1.398 . S
C294 C295 1.391 . S
C295 H283 0.950 . S
C295 C291 1.393 . S
C295 C294 1.391 . S
H296 C304 0.950 1_455 S
H297 C309 0.950 . S
H298 C306 0.950 . S
H299 C308 0.950 1_556 S
H300 C310 0.950 1_655 S
H301 C312 0.950 . S
H302 C314 0.950 1_554 S
H303 C315 0.950 . S
C304 H296 0.950 1_655 S
C304 C305 1.386 . S
C304 C306 1.391 1_655 S
C305 C304 1.386 . S
C305 C309 1.393 . S
C306 H298 0.950 . S
C306 C304 1.391 1_455 S
C306 C307 1.400 1_455 S
C307 C306 1.400 1_655 S
C307 C308 1.398 . S
C307 C313 1.491 1_654 S
C308 H299 0.950 1_554 S
C308 C307 1.398 . S
C308 C309 1.391 . S
C309 H297 0.950 . S
C309 C305 1.393 . S
C309 C308 1.391 . S
C310 H300 0.950 1_455 S
C310 C311 1.386 . S
C310 C312 1.391 1_455 S
C311 C310 1.386 . S
C311 C315 1.393 . S
C312 H301 0.950 . S
C312 C310 1.391 1_655 S
C312 C313 1.400 1_655 S
C313 C307 1.491 1_456 S
C313 C312 1.400 1_455 S
C313 C314 1.398 . S
C314 H302 0.950 1_556 S
C314 C313 1.398 . S
C314 C315 1.391 . S
C315 H303 0.950 . S
C315 C311 1.393 . S
C315 C314 1.391 . S
H316 C324 0.950 . S
H317 C329 0.950 . S
H318 C326 0.950 . S
H319 C328 0.950 . S
H320 C330 0.950 . S
H321 C332 0.950 . S
H322 C334 0.950 . S
H323 C335 0.950 . S
C324 H316 0.950 . S
C324 C325 1.386 . S
C324 C326 1.391 . S
C325 C324 1.386 . S
C325 C329 1.393 . S
C326 H318 0.950 . S
C326 C324 1.391 . S
C326 C327 1.400 . S
C327 C326 1.400 . S
C327 C328 1.398 . S
C327 C333 1.491 . S
C328 H319 0.950 . S
C328 C327 1.398 . S
C328 C329 1.391 . S
C329 H317 0.950 . S
C329 C325 1.393 . S
C329 C328 1.391 . S
C330 H320 0.950 . S
C330 C331 1.386 . S
C330 C332 1.391 . S
C331 C330 1.386 . S
C331 C335 1.393 . S
C332 H321 0.950 . S
C332 C330 1.391 . S
C332 C333 1.400 . S
C333 C327 1.491 . S
C333 C332 1.400 . S
C333 C334 1.398 . S
C334 H322 0.950 . S
C334 C333 1.398 . S
C334 C335 1.391 . S
C335 H323 0.950 . S
C335 C331 1.393 . S
C335 C334 1.391 . S
H336 C344 0.950 . S
H337 C349 0.950 . S
H338 C346 0.950 . S
H339 C348 0.950 . S
H340 C350 0.950 . S
H341 C352 0.950 . S
H342 C354 0.950 . S
H343 C355 0.950 . S
C344 H336 0.950 . S
C344 C345 1.386 . S
C344 C346 1.391 . S
C345 C344 1.386 . S
C345 C349 1.393 . S
C346 H338 0.950 . S
C346 C344 1.391 . S
C346 C347 1.400 . S
C347 C346 1.400 . S
C347 C348 1.398 . S
C347 C353 1.491 . S
C348 H339 0.950 . S
C348 C347 1.398 . S
C348 C349 1.391 . S
C349 H337 0.950 . S
C349 C345 1.393 . S
C349 C348 1.391 . S
C350 H340 0.950 . S
C350 C351 1.386 . S
C350 C352 1.391 . S
C351 C350 1.386 . S
C351 C355 1.393 . S
C352 H341 0.950 . S
C352 C350 1.391 . S
C352 C353 1.400 . S
C353 C347 1.491 . S
C353 C352 1.400 . S
C353 C354 1.398 . S
C354 H342 0.950 . S
C354 C353 1.398 . S
C354 C355 1.391 . S
C355 H343 0.950 . S
C355 C351 1.393 . S
C355 C354 1.391 . S
H356 C364 0.950 . S
H357 C369 0.950 . S
H358 C366 0.950 . S
H359 C368 0.950 . S
H360 C370 0.950 . S
H361 C372 0.950 . S
H362 C374 0.950 . S
H363 C375 0.950 . S
C364 H356 0.950 . S
C364 C365 1.386 . S
C364 C366 1.391 . S
C365 C364 1.386 . S
C365 C369 1.393 . S
C366 H358 0.950 . S
C366 C364 1.391 . S
C366 C367 1.400 . S
C367 C366 1.400 . S
C367 C368 1.398 . S
C367 C373 1.491 . S
C368 H359 0.950 . S
C368 C367 1.398 . S
C368 C369 1.391 . S
C369 H357 0.950 . S
C369 C365 1.393 . S
C369 C368 1.391 . S
C370 H360 0.950 . S
C370 C371 1.386 . S
C370 C372 1.391 . S
C371 C370 1.386 . S
C371 C375 1.393 . S
C372 H361 0.950 . S
C372 C370 1.391 . S
C372 C373 1.400 . S
C373 C367 1.491 . S
C373 C372 1.400 . S
C373 C374 1.398 . S
C374 H362 0.950 . S
C374 C373 1.398 . S
C374 C375 1.391 . S
C375 H363 0.950 . S
C375 C371 1.393 . S
C375 C374 1.391 . S
H376 C384 0.950 . S
H377 C389 0.950 . S
H378 C386 0.950 . S
H379 C388 0.950 . S
H380 C390 0.950 . S
H381 C392 0.950 . S
H382 C394 0.950 . S
H383 C395 0.950 . S
C384 H376 0.950 . S
C384 C385 1.386 . S
C384 C386 1.391 . S
C385 C384 1.386 . S
C385 C389 1.393 . S
C386 H378 0.950 . S
C386 C384 1.391 . S
C386 C387 1.400 . S
C387 C386 1.400 . S
C387 C388 1.398 . S
C387 C393 1.491 . S
C388 H379 0.950 . S
C388 C387 1.398 . S
C388 C389 1.391 . S
C389 H377 0.950 . S
C389 C385 1.393 . S
C389 C388 1.391 . S
C390 H380 0.950 . S
C390 C391 1.386 . S
C390 C392 1.391 . S
C391 C390 1.386 . S
C391 C395 1.393 . S
C392 H381 0.950 . S
C392 C390 1.391 . S
C392 C393 1.400 . S
C393 C387 1.491 . S
C393 C392 1.400 . S
C393 C394 1.398 . S
C394 H382 0.950 . S
C394 C393 1.398 . S
C394 C395 1.391 . S
C395 H383 0.950 . S
C395 C391 1.393 . S
C395 C394 1.391 . S
H396 C404 0.950 . S
H397 C409 0.950 . S
H398 C406 0.950 . S
H399 C408 0.950 . S
H400 C410 0.950 1_655 S
H401 C412 0.950 . S
H402 C414 0.950 . S
H403 C415 0.950 . S
C404 H396 0.950 . S
C404 C405 1.386 . S
C404 C406 1.391 . S
C405 C404 1.386 . S
C405 C409 1.393 . S
C406 H398 0.950 . S
C406 C404 1.391 . S
C406 C407 1.400 . S
C407 C406 1.400 . S
C407 C408 1.398 . S
C407 C413 1.491 . S
C408 H399 0.950 . S
C408 C407 1.398 . S
C408 C409 1.391 . S
C409 H397 0.950 . S
C409 C405 1.393 . S
C409 C408 1.391 . S
C410 H400 0.950 1_455 S
C410 C411 1.386 . S
C410 C412 1.391 . S
C411 C410 1.386 . S
C411 C415 1.393 . S
C412 H401 0.950 . S
C412 C410 1.391 . S
C412 C413 1.400 . S
C413 C407 1.491 . S
C413 C412 1.400 . S
C413 C414 1.398 . S
C414 H402 0.950 . S
C414 C413 1.398 . S
C414 C415 1.391 . S
C415 H403 0.950 . S
C415 C411 1.393 . S
C415 C414 1.391 . S
C145 C6 1.106 . S
C151 C28 1.113 . S
C165 C62 1.114 . S
C171 C40 1.114 . S
C185 C74 1.101 . S
C191 C96 1.108 . S
C205 C108 1.115 . S
C211 C130 1.110 . S
C225 C17 1.927 . S
C231 C51 1.926 1_565 S
C245 C119 1.930 . S
C251 C85 1.930 . S
C265 C3 1.203 . S
C271 C37 1.208 . S
C285 C105 1.223 . S
C291 C71 1.242 . S
C305 C35 1.993 . S
C311 C1 1.975 . S
C325 C103 1.982 . S
C331 C69 1.995 . S
C345 C15 1.871 . S
C351 C124 1.671 . S
C365 C90 1.669 . S
C371 C49 1.873 . S
C385 C56 1.702 . S
C391 C83 1.857 . S
C405 C117 1.861 . S
C411 C22 1.695 . S
