# Generated by pormake.
# Topology qtz-e, (6)-cn, num edge types: 1
# Building blocks:
#     Node 0, Type 0, BuildingBlock: PAMTOO_clean_sbu_0, # of connection points: 6
#     Node 1, Type 0, BuildingBlock: PAMTOO_clean_sbu_0, # of connection points: 6
#     Node 2, Type 0, BuildingBlock: PAMTOO_clean_sbu_0, # of connection points: 6
#     Node 3, Type 0, BuildingBlock: PAMTOO_clean_sbu_0, # of connection points: 6
#     Node 4, Type 0, BuildingBlock: PAMTOO_clean_sbu_0, # of connection points: 6
#     Node 5, Type 0, BuildingBlock: PAMTOO_clean_sbu_0, # of connection points: 6
#     Edge 6, Type (0, 0), BuildingBlock: OJICUG_clean_linker_0, # of connection points: 2
#     Edge 7, Type (0, 0), BuildingBlock: OJICUG_clean_linker_0, # of connection points: 2
#     Edge 8, Type (0, 0), BuildingBlock: OJICUG_clean_linker_0, # of connection points: 2
#     Edge 9, Type (0, 0), BuildingBlock: OJICUG_clean_linker_0, # of connection points: 2
#     Edge 10, Type (0, 0), BuildingBlock: OJICUG_clean_linker_0, # of connection points: 2
#     Edge 11, Type (0, 0), BuildingBlock: OJICUG_clean_linker_0, # of connection points: 2
#     Edge 12, Type (0, 0), BuildingBlock: OJICUG_clean_linker_0, # of connection points: 2
#     Edge 13, Type (0, 0), BuildingBlock: OJICUG_clean_linker_0, # of connection points: 2
#     Edge 14, Type (0, 0), BuildingBlock: OJICUG_clean_linker_0, # of connection points: 2
#     Edge 15, Type (0, 0), BuildingBlock: OJICUG_clean_linker_0, # of connection points: 2
#     Edge 16, Type (0, 0), BuildingBlock: OJICUG_clean_linker_0, # of connection points: 2
#     Edge 17, Type (0, 0), BuildingBlock: OJICUG_clean_linker_0, # of connection points: 2
#     Edge 18, Type (0, 0), BuildingBlock: OJICUG_clean_linker_0, # of connection points: 2
#     Edge 19, Type (0, 0), BuildingBlock: OJICUG_clean_linker_0, # of connection points: 2
#     Edge 20, Type (0, 0), BuildingBlock: OJICUG_clean_linker_0, # of connection points: 2
#     Edge 21, Type (0, 0), BuildingBlock: OJICUG_clean_linker_0, # of connection points: 2
#     Edge 22, Type (0, 0), BuildingBlock: OJICUG_clean_linker_0, # of connection points: 2
#     Edge 23, Type (0, 0), BuildingBlock: OJICUG_clean_linker_0, # of connection points: 2
# Relax obj value: 0.255
# Max RMSD: 0.233
# Mean RMSD: 0.233
data_MOF--net-qtz-e--node1-PAMTOO_clean_sbu_0--edge1-OJICUG_clean_linker_0
_symmetry_space_group_name_H-M    P1
_symmetry_Int_Tables_number       1
_symmetry_cell_setting            triclinic
loop_
_symmetry_equiv_pos_as_xyz
'x, y, z'
_cell_length_a     20.102315
_cell_length_b     20.048466
_cell_length_c     40.84587
_cell_angle_alpha  90.645723
_cell_angle_beta   89.749153
_cell_angle_gamma 120.00831
loop_
_atom_site_label
_atom_site_type_symbol
_atom_site_fract_x
_atom_site_fract_y
_atom_site_fract_z
_atom_type_partial_charge
Dy0 Dy 0.09909 0.35499 0.18107 0.0
Dy1 Dy 0.2056 0.53601 0.2111 0.0
C2 C 0.28133 0.43886 0.19464 0.0
O3 O 0.07944 0.34179 0.23609 0.0
O4 O 0.1235 0.4686 0.25096 0.0
O5 O 0.08581 0.24148 0.17485 0.0
O6 O 0.00859 0.26978 0.14992 0.0
O7 O 0.11756 0.53724 0.17928 0.0
O8 O 0.02398 0.40874 0.17693 0.0
O9 O 0.24108 0.5476 0.15872 0.0
O10 O 0.1507 0.42867 0.13761 0.0
O11 O 0.21223 0.63981 0.22997 0.0
O12 O 0.31565 0.63211 0.22542 0.0
C13 C 0.08676 0.39463 0.25778 0.0
O14 O 0.22406 0.39453 0.17517 0.0
O15 O 0.27092 0.47543 0.21901 0.0
C16 C 0.05374 0.19912 0.11936 0.0
C17 C 0.08788 0.16053 0.05636 0.0
C18 C 0.14662 0.21536 0.07684 0.0
C19 C 0.12977 0.2346 0.10776 0.0
C20 C 0.99498 0.14422 0.09921 0.0
C21 C 0.01171 0.12518 0.06817 0.0
C22 C 0.03522 0.22241 0.15139 0.0
C23 C 0.04758 0.48246 0.17235 0.0
C24 C 0.20801 0.49927 0.13414 0.0
C25 C 0.30923 0.70857 0.26899 0.0
C26 C 0.34791 0.77569 0.33203 0.0
C27 C 0.29719 0.78611 0.31198 0.0
C28 C 0.27867 0.75351 0.28076 0.0
C29 C 0.36082 0.69867 0.28867 0.0
C30 C 0.38006 0.73208 0.31995 0.0
C31 C 0.28547 0.67244 0.23636 0.0
H32 H 0.20608 0.24334 0.06918 0.0
H33 H 0.17639 0.27782 0.12251 0.0
H34 H 0.93579 0.11672 0.1073 0.0
H35 H 0.96444 0.08379 0.05318 0.0
H36 H 0.26987 0.81779 0.32066 0.0
H37 H 0.23907 0.76227 0.26599 0.0
H38 H 0.38576 0.66468 0.2801 0.0
H39 H 0.41983 0.72357 0.33467 0.0
Dy40 Dy 0.93253 0.27445 0.46553 0.0
Dy41 Dy 0.8218 0.33744 0.43325 0.0
C42 C 0.75379 0.17134 0.45454 0.0
O43 O 0.95127 0.27668 0.41009 0.0
O44 O 0.90978 0.36061 0.39516 0.0
O45 O 0.94878 0.17646 0.47205 0.0
O46 O 0.02059 0.2826 0.49866 0.0
O47 O 0.91851 0.43986 0.4576 0.0
O48 O 0.00997 0.40253 0.46225 0.0
O49 O 0.78584 0.31628 0.48526 0.0
O50 O 0.89455 0.32206 0.50679 0.0
O51 O 0.7874 0.42147 0.42374 0.0
O52 O 0.71746 0.30403 0.40639 0.0
C53 C 0.94675 0.32344 0.38855 0.0
O54 O 0.80932 0.19067 0.47553 0.0
O55 O 0.77002 0.21097 0.42772 0.0
C56 C 0.97779 0.16599 0.52792 0.0
C57 C 0.94213 0.08857 0.58938 0.0
C58 C 0.88433 0.07184 0.56592 0.0
C59 C 0.9018 0.11016 0.53578 0.0
C60 C 0.03566 0.18262 0.55108 0.0
C61 C 0.01819 0.14467 0.58134 0.0
C62 C 0.99675 0.20903 0.49642 0.0
C63 C 0.98895 0.45535 0.464 0.0
C64 C 0.83071 0.32465 0.51004 0.0
C65 C 0.72892 0.40112 0.37218 0.0
C66 C 0.72571 0.44135 0.30709 0.0
C67 C 0.79622 0.46701 0.323 0.0
C68 C 0.79785 0.44651 0.35528 0.0
C69 C 0.65842 0.3758 0.35643 0.0
C70 C 0.65678 0.39559 0.32394 0.0
C71 C 0.73028 0.3743 0.40509 0.0
H72 H 0.82528 0.02849 0.57063 0.0
H73 H 0.8555 0.09616 0.51867 0.0
H74 H 0.09459 0.22581 0.54591 0.0
H75 H 0.06444 0.16063 0.59868 0.0
H76 H 0.84999 0.50171 0.31026 0.0
H77 H 0.8529 0.46514 0.36685 0.0
H78 H 0.60485 0.33981 0.36909 0.0
H79 H 0.60186 0.37568 0.31204 0.0
Dy80 Dy 0.68006 0.75273 0.84223 0.0
Dy81 Dy 0.50664 0.69431 0.87534 0.0
C82 C 0.60867 0.86069 0.85371 0.0
O83 O 0.69616 0.74919 0.89747 0.0
O84 O 0.57022 0.66857 0.91287 0.0
O85 O 0.79504 0.84887 0.83515 0.0
O86 O 0.7585 0.74201 0.80872 0.0
O87 O 0.49732 0.59051 0.85076 0.0
O88 O 0.6245 0.62374 0.84248 0.0
O89 O 0.49353 0.71909 0.82367 0.0
O90 O 0.59519 0.71167 0.80121 0.0
O91 O 0.38701 0.61311 0.88439 0.0
O92 O 0.4388 0.72905 0.90408 0.0
C93 C 0.64427 0.70374 0.91916 0.0
O94 O 0.64537 0.84052 0.83311 0.0
O95 O 0.58184 0.82078 0.88034 0.0
C96 C 0.83108 0.85773 0.77884 0.0
C97 C 0.86819 0.93322 0.71694 0.0
C98 C 0.82357 0.94616 0.74017 0.0
C99 C 0.80504 0.90878 0.77053 0.0
C100 C 0.87582 0.84481 0.7559 0.0
C101 C 0.89409 0.8819 0.72542 0.0
C102 C 0.80887 0.81539 0.81051 0.0
C103 C 0.55007 0.57309 0.84232 0.0
C104 C 0.53078 0.71308 0.79841 0.0
C105 C 0.3496 0.63095 0.93682 0.0
C106 C 0.3059 0.58915 1.00188 0.0
C107 C 0.35049 0.56345 0.98544 0.0
C108 C 0.37274 0.58472 0.95316 0.0
C109 C 0.3043 0.65588 0.95302 0.0
C110 C 0.28269 0.63528 0.98546 0.0
C111 C 0.37923 0.66006 0.90425 0.0
H112 H 0.80326 0.98584 0.73513 0.0
H113 H 0.76991 0.91972 0.78746 0.0
H114 H 0.89599 0.80517 0.76142 0.0
H115 H 0.92738 0.86898 0.70826 0.0
H116 H 0.36952 0.52839 0.9978 0.0
H117 H 0.40924 0.56639 0.9412 0.0
H118 H 0.28704 0.69252 0.94078 0.0
H119 H 0.24775 0.65513 0.99771 0.0
Dy120 Dy 0.75829 0.67439 0.12692 0.0
Dy121 Dy 0.68695 0.49404 0.0976 0.0
C122 C 0.85834 0.59247 0.11464 0.0
O123 O 0.7547 0.68629 0.07172 0.0
O124 O 0.67017 0.55975 0.05781 0.0
O125 O 0.858 0.78804 0.13319 0.0
O126 O 0.75053 0.76083 0.1564 0.0
O127 O 0.59493 0.49081 0.12858 0.0
O128 O 0.62938 0.61935 0.1312 0.0
O129 O 0.70678 0.48228 0.15033 0.0
O130 O 0.73537 0.60193 0.17083 0.0
O131 O 0.59429 0.38947 0.07719 0.0
O132 O 0.70616 0.40052 0.08419 0.0
C133 C 0.70871 0.63324 0.05035 0.0
O134 O 0.84388 0.63568 0.13428 0.0
O135 O 0.81294 0.55764 0.08979 0.0
C136 C 0.86411 0.83246 0.18849 0.0
C137 C 0.93406 0.86999 0.25175 0.0
C138 C 0.9727 0.86186 0.22449 0.0
C139 C 0.93825 0.84325 0.19336 0.0
C140 C 0.82613 0.84212 0.2156 0.0
C141 C 0.8604 0.86027 0.24676 0.0
C142 C 0.82474 0.80757 0.15592 0.0
C143 C 0.57951 0.54554 0.13578 0.0
C144 C 0.72114 0.53105 0.1747 0.0
C145 C 0.63582 0.33373 0.03772 0.0
C146 C 0.6154 0.28008 0.97282 0.0
C147 C 0.64069 0.35805 0.97961 0.0
C148 C 0.65105 0.38471 1.01185 0.0
C149 C 0.61448 0.25698 0.03118 0.0
C150 C 0.60458 0.23028 0.99887 0.0
C151 C 0.63797 0.35976 0.07139 0.0
H152 H 0.02909 0.86813 0.22732 0.0
H153 H 0.96947 0.83618 0.17322 0.0
H154 H 0.76924 0.83468 0.21281 0.0
H155 H 0.82921 0.86714 0.26697 0.0
H156 H 0.64858 0.39764 0.96016 0.0
H157 H 0.668 0.44441 1.01663 0.0
H158 H 0.60325 0.21728 0.05102 0.0
H159 H 0.58617 0.17017 0.99431 0.0
Dy160 Dy 0.26645 0.94457 0.50785 0.0
Dy161 Dy 0.37158 0.8779 0.54169 0.0
C162 C 0.20172 0.76055 0.5149 0.0
O163 O 0.29412 0.98843 0.56061 0.0
O164 O 0.30041 0.88679 0.5819 0.0
O165 O 0.15632 0.93711 0.50007 0.0
O166 O 0.25828 0.02859 0.47766 0.0
O167 O 0.43677 0.00528 0.53768 0.0
O168 O 0.38773 0.019 0.49053 0.0
O169 O 0.39482 0.87816 0.48813 0.0
O170 O 0.29086 0.88431 0.46757 0.0
O171 O 0.47806 0.90798 0.56628 0.0
O172 O 0.39592 0.78885 0.55506 0.0
C173 C 0.29526 0.94907 0.58623 0.0
O174 O 0.18582 0.81681 0.51308 0.0
O175 O 0.26957 0.77253 0.52336 0.0
C176 C 0.14422 0.97252 0.44547 0.0
C177 C 0.07448 0.93894 0.38225 0.0
C178 C 0.05522 0.88001 0.40517 0.0
C179 C 0.0898 0.89646 0.43627 0.0
C180 C 0.16299 0.03146 0.42274 0.0
C181 C 0.12887 0.01495 0.39155 0.0
C182 C 0.1834 0.99105 0.47802 0.0
C183 C 0.44751 0.03763 0.50913 0.0
C184 C 0.34929 0.87262 0.46395 0.0
C185 C 0.46458 0.81496 0.60378 0.0
C186 C 0.47468 0.77123 0.66759 0.0
C187 C 0.53592 0.79299 0.64551 0.0
C188 C 0.53071 0.81448 0.61375 0.0
C189 C 0.40378 0.79458 0.62577 0.0
C190 C 0.40865 0.77253 0.65747 0.0
C191 C 0.45899 0.83631 0.5704 0.0
H192 H 0.01439 0.8207 0.39885 0.0
H193 H 0.07431 0.84934 0.45297 0.0
H194 H 0.2046 0.09056 0.42905 0.0
H195 H 0.1446 0.06204 0.37482 0.0
H196 H 0.58823 0.79424 0.65288 0.0
H197 H 0.57823 0.83078 0.597 0.0
H198 H 0.35238 0.79513 0.61831 0.0
H199 H 0.3605 0.75569 0.67388 0.0
Dy200 Dy 0.34629 0.08351 0.79908 0.0
Dy201 Dy 0.51983 0.18937 0.76371 0.0
C202 C 0.43058 0.26698 0.78771 0.0
O203 O 0.32494 0.05165 0.74484 0.0
O204 O 0.4444 0.12743 0.72096 0.0
O205 O 0.2374 0.07862 0.80739 0.0
O206 O 0.26143 0.99726 0.83131 0.0
O207 O 0.51943 0.08793 0.78493 0.0
O208 O 0.39494 0.00448 0.80207 0.0
O209 O 0.54005 0.21796 0.81704 0.0
O210 O 0.42936 0.12076 0.84021 0.0
O211 O 0.6182 0.19639 0.73948 0.0
O212 O 0.61804 0.30093 0.75373 0.0
C213 C 0.37087 0.07586 0.71896 0.0
O214 O 0.39292 0.20993 0.80796 0.0
O215 O 0.45973 0.25606 0.76098 0.0
C216 C 0.19619 0.04739 0.86317 0.0
C217 C 0.15928 0.08405 0.92611 0.0
C218 C 0.18697 0.13855 0.90071 0.0
C219 C 0.20534 0.12064 0.86982 0.0
C220 C 0.16798 0.99268 0.88832 0.0
C221 C 0.15003 0.0107 0.91929 0.0
C222 C 0.21755 0.028 0.83072 0.0
C223 C 0.46705 0.02247 0.79746 0.0
C224 C 0.50021 0.17822 0.84246 0.0
C225 C 0.68738 0.30335 0.70661 0.0
C226 C 0.74163 0.33899 0.64221 0.0
C227 C 0.78443 0.32676 0.66613 0.0
C228 C 0.75755 0.30937 0.69809 0.0
C229 C 0.64593 0.31897 0.68341 0.0
C230 C 0.67328 0.33735 0.65142 0.0
C231 C 0.65446 0.27136 0.73841 0.0
H232 H 0.1939 0.1952 0.9045 0.0
H233 H 0.22702 0.16454 0.85118 0.0
H234 H 0.16054 0.93589 0.88412 0.0
H235 H 0.13017 0.96725 0.93807 0.0
H236 H 0.83649 0.32611 0.65986 0.0
H237 H 0.78964 0.29664 0.71577 0.0
H238 H 0.59119 0.31397 0.68967 0.0
H239 H 0.6396 0.3476 0.63367 0.0
C240 C 0.36695 0.78745 0.42447 0.0
C241 C 0.36421 0.85479 0.43092 0.0
H242 H 0.36232 0.70831 0.38774 0.0
C243 C 0.36638 0.90088 0.40499 0.0
H244 H 0.36474 0.75104 0.44435 0.0
C245 C 0.367 0.87786 0.37279 0.0
C246 C 0.36306 0.80706 0.36595 0.0
H247 H 0.36509 0.95355 0.40966 0.0
H248 H 0.36732 0.91407 0.35324 0.0
C249 C 0.36579 0.76332 0.39212 0.0
C250 C 0.70827 0.30593 0.58306 0.0
C251 C 0.76435 0.34484 0.60739 0.0
H252 H 0.68568 0.26938 0.53292 0.0
C253 C 0.8424 0.38219 0.59863 0.0
H254 H 0.64768 0.27542 0.58901 0.0
C255 C 0.86398 0.37661 0.56673 0.0
C256 C 0.80788 0.33516 0.5429 0.0
H257 H 0.88694 0.41403 0.61662 0.0
H258 H 0.92454 0.40408 0.56079 0.0
C259 C 0.72992 0.30175 0.55099 0.0
C260 C 0.22568 0.46804 0.07703 0.0
C261 C 0.23638 0.52372 0.10081 0.0
H262 H 0.2398 0.44562 0.02695 0.0
C263 C 0.27197 0.60157 0.09213 0.0
H264 H 0.19899 0.40761 0.08318 0.0
C265 C 0.29462 0.62311 0.05981 0.0
C266 C 0.28312 0.56716 0.03604 0.0
H267 H 0.28065 0.64541 0.11008 0.0
H268 H 0.32133 0.68337 0.05339 0.0
C269 C 0.2493 0.48966 0.04495 0.0
C270 C 0.76743 0.54099 0.26425 0.0
C271 C 0.72452 0.46337 0.27304 0.0
H272 H 0.79976 0.62312 0.22605 0.0
C273 C 0.68125 0.40733 0.24922 0.0
H274 H 0.80099 0.58506 0.28233 0.0
C275 C 0.68108 0.42887 0.21687 0.0
C276 C 0.72309 0.50679 0.20822 0.0
H277 H 0.64824 0.34701 0.2556 0.0
H278 H 0.64714 0.38493 0.19882 0.0
C279 C 0.76636 0.56262 0.23214 0.0
C280 C 0.46765 0.75928 0.75986 0.0
C281 C 0.50589 0.718 0.76536 0.0
H282 H 0.42954 0.81036 0.72438 0.0
C283 C 0.52793 0.68888 0.73867 0.0
H284 H 0.45095 0.78309 0.78012 0.0
C285 C 0.51495 0.70365 0.70685 0.0
C286 C 0.48066 0.74868 0.70122 0.0
H287 H 0.55695 0.65629 0.74238 0.0
H288 H 0.53325 0.68117 0.68666 0.0
C289 C 0.4555 0.7749 0.72799 0.0
C290 C 0.52266 0.18039 0.93407 0.0
C291 C 0.59199 0.24951 0.93917 0.0
H292 H 0.43963 0.10359 0.89964 0.0
C293 C 0.63411 0.29233 0.91195 0.0
H294 H 0.48826 0.14662 0.95451 0.0
C295 C 0.60562 0.26814 0.8803 0.0
C296 C 0.53451 0.20075 0.87538 0.0
H297 H 0.68819 0.34545 0.91517 0.0
H298 H 0.63824 0.3034 0.85984 0.0
C299 C 0.49431 0.15621 0.90254 0.0
C300 C 0.42143 0.53873 0.18971 0.0
C301 C 0.36012 0.4641 0.18274 0.0
H302 H 0.53865 0.62441 0.17954 0.0
C303 C 0.37182 0.41792 0.16005 0.0
H304 H 0.41389 0.57632 0.20666 0.0
C305 C 0.44266 0.44547 0.14457 0.0
C306 C 0.50358 0.52047 0.15094 0.0
H307 H 0.32562 0.36067 0.15379 0.0
H308 H 0.44941 0.40797 0.12724 0.0
C309 C 0.4924 0.56691 0.17374 0.0
C310 C 0.07421 0.66532 0.48984 0.0
C311 C 0.14467 0.68151 0.50361 0.0
H312 H 0.97048 0.58192 0.46613 0.0
C313 C 0.16379 0.62273 0.50379 0.0
H314 H 0.05793 0.70924 0.4889 0.0
C315 C 0.11425 0.55004 0.49032 0.0
C316 C 0.04398 0.53389 0.47644 0.0
H317 H 0.21777 0.63292 0.51399 0.0
H318 H 0.13088 0.50636 0.49109 0.0
C319 C 0.02439 0.59234 0.47649 0.0
C320 C 0.5606 0.97585 0.79556 0.0
C321 C 0.49615 0.97328 0.8104 0.0
H322 H 0.64755 0.94462 0.79796 0.0
C323 C 0.46985 0.93507 0.84034 0.0
H324 H 0.58275 0.00557 0.77263 0.0
C325 C 0.50828 0.90122 0.85537 0.0
C326 C 0.57324 0.90443 0.84054 0.0
H327 H 0.42152 0.9339 0.85273 0.0
H328 H 0.48666 0.87207 0.87841 0.0
C329 C 0.59849 0.94185 0.81036 0.0
C330 C 0.56052 0.48105 0.80348 0.0
C331 C 0.52205 0.49439 0.82924 0.0
H332 H 0.56012 0.39933 0.76912 0.0
C333 C 0.45153 0.43324 0.8401 0.0
H334 H 0.61417 0.52746 0.79419 0.0
C335 C 0.42064 0.35995 0.82588 0.0
C336 C 0.45868 0.34649 0.79996 0.0
H337 H 0.42023 0.44203 0.85975 0.0
H338 H 0.36707 0.31366 0.83531 0.0
C339 C 0.52876 0.40798 0.78875 0.0
C340 C 0.00894 0.58165 0.16549 0.0
C341 C 0.99662 0.50775 0.15771 0.0
H342 H 0.97612 0.66654 0.15764 0.0
C343 C 0.94133 0.46337 0.13392 0.0
H344 H 0.05146 0.61756 0.1836 0.0
C345 C 0.89928 0.49262 0.11828 0.0
C346 C 0.91089 0.56615 0.12661 0.0
H347 H 0.9316 0.40685 0.12702 0.0
H348 H 0.85625 0.45674 0.1004 0.0
C349 C 0.96632 0.61017 0.15036 0.0
C350 C 0.53884 0.09521 0.46168 0.0
C351 C 0.52602 0.07578 0.49502 0.0
H352 H 0.62056 0.13914 0.4224 0.0
C353 C 0.5879 0.08474 0.5142 0.0
H354 H 0.49215 0.08779 0.44607 0.0
C355 C 0.66052 0.11198 0.50052 0.0
C356 C 0.67392 0.13228 0.4673 0.0
H357 H 0.58026 0.0698 0.53988 0.0
H358 H 0.70662 0.11867 0.51634 0.0
C359 C 0.61215 0.12348 0.44799 0.0
C360 C 0.18345 0.17869 0.97278 0.0
C361 C 0.14068 0.10369 0.95946 0.0
H362 H 0.20007 0.25576 1.01267 0.0
C363 C 0.0801 0.04768 0.97845 0.0
H364 H 0.23119 0.22356 0.9594 0.0
C365 C 0.06321 0.06587 1.00961 0.0
C366 C 0.10594 0.1409 0.0229 0.0
H367 H 0.04484 0.98951 0.96917 0.0
H368 H 0.01693 0.02047 0.0234 0.0
C369 C 0.16625 0.19701 1.00383 0.0
C370 C 0.00553 0.40909 0.34026 0.0
C371 C 0.98557 0.33908 0.35568 0.0
H372 H 0.05174 0.48054 0.29845 0.0
C373 C 0.99942 0.2858 0.33845 0.0
H374 H 0.99625 0.45201 0.35248 0.0
C375 C 0.03104 0.30211 0.30642 0.0
C376 C 0.05087 0.37268 0.29125 0.0
H377 H 0.98435 0.23105 0.34936 0.0
H378 H 0.04056 0.25993 0.29372 0.0
C379 C 0.03779 0.42568 0.30895 0.0
C380 C 0.83475 0.98877 0.66812 0.0
C381 C 0.88708 0.97264 0.68413 0.0
H382 H 0.81085 0.03835 0.62683 0.0
C383 C 0.95766 0.99486 0.66843 0.0
H384 H 0.77928 0.97189 0.67885 0.0
C385 C 0.97524 0.03179 0.63794 0.0
C386 C 0.92309 0.04834 0.62202 0.0
H387 H 1.0002 0.98464 0.67984 0.0
H388 H 0.02975 0.04664 0.62673 0.0
C389 C 0.85251 0.02611 0.63774 0.0
C390 C 0.61707 0.61708 0.96703 0.0
C391 C 0.66673 0.68766 0.95192 0.0
H392 H 0.59113 0.54533 1.00874 0.0
C393 C 0.73247 0.74155 0.9695 0.0
H394 H 0.56597 0.5738 0.95447 0.0
C395 C 0.74662 0.72542 1.00165 0.0
C396 C 0.69612 0.65445 1.0166 0.0
H397 H 0.77173 0.79675 0.95881 0.0
H398 H 0.79712 0.7682 1.01466 0.0
C399 C 0.63168 0.60064 0.99847 0.0
C400 C 0.08238 0.95774 0.32082 0.0
C401 C 0.03844 0.92126 0.3488 0.0
H402 H 0.08455 0.97069 0.26869 0.0
C403 C 0.95978 0.86769 0.34447 0.0
H404 H 0.14321 0.99868 0.32303 0.0
C405 C 0.92607 0.85147 0.31321 0.0
C406 C 0.97005 0.88783 0.28522 0.0
H407 H 0.92383 0.83882 0.36536 0.0
H408 H 0.86551 0.80954 0.31093 0.0
C409 C 0.0488 0.94106 0.28952 0.0
C410 C 0.36317 0.09159 0.65814 0.0
C411 C 0.34062 0.043 0.68555 0.0
H412 H 0.36423 0.10059 0.60571 0.0
C413 C 0.29693 0.96298 0.68001 0.0
H414 H 0.39738 0.15347 0.66145 0.0
C415 C 0.27987 0.93244 0.64785 0.0
C416 C 0.30376 0.98112 0.62038 0.0
H417 H 0.27957 0.92383 0.70045 0.0
H418 H 0.24941 0.87048 0.64446 0.0
C419 C 0.34391 0.06122 0.6261 0.0
loop_
_geom_bond_atom_site_label_1
_geom_bond_atom_site_label_2
_geom_bond_distance
_geom_bond_site_symmetry_2
_ccdc_geom_bond_type
Dy0 O3 2.307 . S
Dy0 O5 2.395 . S
Dy0 O6 2.379 . S
Dy0 O8 2.339 1_455 S
Dy0 O10 2.298 . S
Dy0 O14 2.275 . S
Dy0 C22 2.738 . S
Dy1 O4 2.298 . S
Dy1 O7 2.275 . S
Dy1 O9 2.307 . S
Dy1 O11 2.395 . S
Dy1 O12 2.379 . S
Dy1 O15 2.339 . S
Dy1 C31 2.738 . S
C2 O14 1.254 . S
C2 O15 1.257 . S
O3 Dy0 2.307 . S
O3 C13 1.266 . S
O4 Dy1 2.298 . S
O4 C13 1.236 . S
O5 Dy0 2.395 . S
O5 C22 1.255 . S
O6 Dy0 2.379 . S
O6 C22 1.249 . S
O7 Dy1 2.275 . S
O7 C23 1.254 1_455 S
O8 Dy0 2.339 1_655 S
O8 C23 1.257 . S
O9 Dy1 2.307 . S
O9 C24 1.266 . S
O10 Dy0 2.298 . S
O10 C24 1.236 . S
O11 Dy1 2.395 . S
O11 C31 1.255 . S
O12 Dy1 2.379 . S
O12 C31 1.249 . S
C13 O3 1.266 . S
C13 O4 1.236 . S
O14 Dy0 2.275 . S
O14 C2 1.254 . S
O15 Dy1 2.339 . S
O15 C2 1.257 . S
C16 C19 1.344 . S
C16 C20 1.335 . S
C16 C22 1.516 . S
C17 C18 1.304 . S
C17 C21 1.323 . S
C18 C17 1.304 . S
C18 C19 1.371 . S
C18 H32 0.930 . S
C19 C16 1.344 . S
C19 C18 1.371 . S
C19 H33 0.931 . S
C20 C16 1.335 . S
C20 C21 1.437 . S
C20 H34 0.919 1_455 S
C21 C17 1.323 . S
C21 C20 1.437 . S
C21 H35 0.933 1_455 S
C22 Dy0 2.738 . S
C22 O5 1.255 . S
C22 O6 1.249 . S
C22 C16 1.516 . S
C23 O7 1.254 1_655 S
C23 O8 1.257 . S
C24 O9 1.266 . S
C24 O10 1.236 . S
C25 C28 1.344 . S
C25 C29 1.328 . S
C25 C31 1.516 . S
C26 C27 1.304 . S
C26 C30 1.323 . S
C27 C26 1.304 . S
C27 C28 1.371 . S
C27 H36 0.930 . S
C28 C25 1.344 . S
C28 C27 1.371 . S
C28 H37 0.931 . S
C29 C25 1.328 . S
C29 C30 1.433 . S
C29 H38 0.931 . S
C30 C26 1.323 . S
C30 C29 1.433 . S
C30 H39 0.933 . S
C31 Dy1 2.738 . S
C31 O11 1.255 . S
C31 O12 1.249 . S
C31 C25 1.516 . S
H32 C18 0.930 . S
H33 C19 0.931 . S
H34 C20 0.919 1_655 S
H35 C21 0.933 1_655 S
H36 C27 0.930 . S
H37 C28 0.931 . S
H38 C29 0.931 . S
H39 C30 0.933 . S
Dy40 O43 2.307 1_655 S
Dy40 O45 2.395 . S
Dy40 O46 2.379 1_655 S
Dy40 O48 2.339 1_655 S
Dy40 O50 2.298 . S
Dy40 O54 2.275 . S
Dy40 C62 2.738 . S
Dy41 O44 2.298 . S
Dy41 O47 2.275 . S
Dy41 O49 2.307 . S
Dy41 O51 2.395 . S
Dy41 O52 2.379 . S
Dy41 O55 2.339 . S
Dy41 C71 2.738 . S
C42 O54 1.254 . S
C42 O55 1.257 . S
O43 Dy40 2.307 1_455 S
O43 C53 1.266 1_455 S
O44 Dy41 2.298 . S
O44 C53 1.236 . S
O45 Dy40 2.395 . S
O45 C62 1.255 . S
O46 Dy40 2.379 1_455 S
O46 C62 1.249 1_455 S
O47 Dy41 2.275 . S
O47 C63 1.254 1_655 S
O48 Dy40 2.339 1_455 S
O48 C63 1.257 . S
O49 Dy41 2.307 . S
O49 C64 1.266 . S
O50 Dy40 2.298 . S
O50 C64 1.236 . S
O51 Dy41 2.395 . S
O51 C71 1.255 . S
O52 Dy41 2.379 . S
O52 C71 1.249 . S
C53 O43 1.266 1_655 S
C53 O44 1.236 . S
O54 Dy40 2.275 . S
O54 C42 1.254 . S
O55 Dy41 2.339 . S
O55 C42 1.257 . S
C56 C59 1.344 . S
C56 C60 1.328 1_655 S
C56 C62 1.516 . S
C57 C58 1.304 . S
C57 C61 1.323 1_655 S
C58 C57 1.304 . S
C58 C59 1.371 . S
C58 H72 0.930 . S
C59 C56 1.344 . S
C59 C58 1.371 . S
C59 H73 0.931 . S
C60 C56 1.328 1_455 S
C60 C61 1.433 . S
C60 H74 0.931 . S
C61 C57 1.323 1_455 S
C61 C60 1.433 . S
C61 H75 0.933 . S
C62 Dy40 2.738 . S
C62 O45 1.255 . S
C62 O46 1.249 1_655 S
C62 C56 1.516 . S
C63 O47 1.254 1_455 S
C63 O48 1.257 . S
C64 O49 1.266 . S
C64 O50 1.236 . S
C65 C68 1.344 . S
C65 C69 1.328 . S
C65 C71 1.516 . S
C66 C67 1.304 . S
C66 C70 1.323 . S
C67 C66 1.304 . S
C67 C68 1.371 . S
C67 H76 0.930 . S
C68 C65 1.344 . S
C68 C67 1.371 . S
C68 H77 0.931 . S
C69 C65 1.328 . S
C69 C70 1.433 . S
C69 H78 0.931 . S
C70 C66 1.323 . S
C70 C69 1.433 . S
C70 H79 0.933 . S
C71 Dy41 2.738 . S
C71 O51 1.255 . S
C71 O52 1.249 . S
C71 C65 1.516 . S
H72 C58 0.930 . S
H73 C59 0.931 . S
H74 C60 0.931 . S
H75 C61 0.933 . S
H76 C67 0.930 . S
H77 C68 0.931 . S
H78 C69 0.931 . S
H79 C70 0.933 . S
Dy80 O83 2.307 . S
Dy80 O85 2.395 . S
Dy80 O86 2.379 . S
Dy80 O88 2.339 . S
Dy80 O90 2.298 . S
Dy80 O94 2.275 . S
Dy80 C102 2.738 . S
Dy81 O84 2.298 . S
Dy81 O87 2.275 . S
Dy81 O89 2.307 . S
Dy81 O91 2.395 . S
Dy81 O92 2.379 . S
Dy81 O95 2.339 . S
Dy81 C111 2.738 . S
C82 O94 1.254 . S
C82 O95 1.257 . S
O83 Dy80 2.307 . S
O83 C93 1.266 . S
O84 Dy81 2.298 . S
O84 C93 1.236 . S
O85 Dy80 2.395 . S
O85 C102 1.255 . S
O86 Dy80 2.379 . S
O86 C102 1.249 . S
O87 Dy81 2.275 . S
O87 C103 1.254 . S
O88 Dy80 2.339 . S
O88 C103 1.257 . S
O89 Dy81 2.307 . S
O89 C104 1.266 . S
O90 Dy80 2.298 . S
O90 C104 1.236 . S
O91 Dy81 2.395 . S
O91 C111 1.255 . S
O92 Dy81 2.379 . S
O92 C111 1.249 . S
C93 O83 1.266 . S
C93 O84 1.236 . S
O94 Dy80 2.275 . S
O94 C82 1.254 . S
O95 Dy81 2.339 . S
O95 C82 1.257 . S
C96 C99 1.344 . S
C96 C100 1.328 . S
C96 C102 1.516 . S
C97 C98 1.304 . S
C97 C101 1.323 . S
C98 C97 1.304 . S
C98 C99 1.371 . S
C98 H112 0.930 1_565 S
C99 C96 1.344 . S
C99 C98 1.371 . S
C99 H113 0.931 . S
C100 C96 1.328 . S
C100 C101 1.433 . S
C100 H114 0.931 . S
C101 C97 1.323 . S
C101 C100 1.433 . S
C101 H115 0.933 . S
C102 Dy80 2.738 . S
C102 O85 1.255 . S
C102 O86 1.249 . S
C102 C96 1.516 . S
C103 O87 1.254 . S
C103 O88 1.257 . S
C104 O89 1.266 . S
C104 O90 1.236 . S
C105 C108 1.344 . S
C105 C109 1.328 . S
C105 C111 1.516 . S
C106 C107 1.304 1_554 S
C106 C110 1.323 1_554 S
C107 C106 1.304 1_556 S
C107 C108 1.371 . S
C107 H116 0.930 . S
C108 C105 1.344 . S
C108 C107 1.371 . S
C108 H117 0.931 . S
C109 C105 1.328 . S
C109 C110 1.433 . S
C109 H118 0.931 . S
C110 C106 1.323 1_556 S
C110 C109 1.433 . S
C110 H119 0.933 1_556 S
C111 Dy81 2.738 . S
C111 O91 1.255 . S
C111 O92 1.249 . S
C111 C105 1.516 . S
H112 C98 0.930 1_545 S
H113 C99 0.931 . S
H114 C100 0.931 . S
H115 C101 0.933 . S
H116 C107 0.930 . S
H117 C108 0.931 . S
H118 C109 0.931 . S
H119 C110 0.933 1_554 S
Dy120 O123 2.307 . S
Dy120 O125 2.395 . S
Dy120 O126 2.379 . S
Dy120 O128 2.339 . S
Dy120 O130 2.298 . S
Dy120 O134 2.275 . S
Dy120 C142 2.738 . S
Dy121 O124 2.298 . S
Dy121 O127 2.275 . S
Dy121 O129 2.307 . S
Dy121 O131 2.395 . S
Dy121 O132 2.379 . S
Dy121 O135 2.339 . S
Dy121 C151 2.738 . S
C122 O134 1.254 . S
C122 O135 1.257 . S
O123 Dy120 2.307 . S
O123 C133 1.266 . S
O124 Dy121 2.298 . S
O124 C133 1.236 . S
O125 Dy120 2.395 . S
O125 C142 1.255 . S
O126 Dy120 2.379 . S
O126 C142 1.249 . S
O127 Dy121 2.275 . S
O127 C143 1.254 . S
O128 Dy120 2.339 . S
O128 C143 1.257 . S
O129 Dy121 2.307 . S
O129 C144 1.266 . S
O130 Dy120 2.298 . S
O130 C144 1.236 . S
O131 Dy121 2.395 . S
O131 C151 1.255 . S
O132 Dy121 2.379 . S
O132 C151 1.249 . S
C133 O123 1.266 . S
C133 O124 1.236 . S
O134 Dy120 2.275 . S
O134 C122 1.254 . S
O135 Dy121 2.339 . S
O135 C122 1.257 . S
C136 C139 1.344 . S
C136 C140 1.328 . S
C136 C142 1.516 . S
C137 C138 1.304 . S
C137 C141 1.323 . S
C138 C137 1.304 . S
C138 C139 1.371 . S
C138 H152 0.930 1_655 S
C139 C136 1.344 . S
C139 C138 1.371 . S
C139 H153 0.931 . S
C140 C136 1.328 . S
C140 C141 1.433 . S
C140 H154 0.931 . S
C141 C137 1.323 . S
C141 C140 1.433 . S
C141 H155 0.933 . S
C142 Dy120 2.738 . S
C142 O125 1.255 . S
C142 O126 1.249 . S
C142 C136 1.516 . S
C143 O127 1.254 . S
C143 O128 1.257 . S
C144 O129 1.266 . S
C144 O130 1.236 . S
C145 C148 1.344 . S
C145 C149 1.328 . S
C145 C151 1.516 1_556 S
C146 C147 1.304 . S
C146 C150 1.323 . S
C147 C146 1.304 . S
C147 C148 1.371 . S
C147 H156 0.930 . S
C148 C145 1.344 . S
C148 C147 1.371 . S
C148 H157 0.931 . S
C149 C145 1.328 . S
C149 C150 1.433 . S
C149 H158 0.931 . S
C150 C146 1.323 . S
C150 C149 1.433 . S
C150 H159 0.933 . S
C151 Dy121 2.738 . S
C151 O131 1.255 . S
C151 O132 1.249 . S
C151 C145 1.516 1_554 S
H152 C138 0.930 1_455 S
H153 C139 0.931 . S
H154 C140 0.931 . S
H155 C141 0.933 . S
H156 C147 0.930 . S
H157 C148 0.931 . S
H158 C149 0.931 . S
H159 C150 0.933 . S
Dy160 O163 2.307 1_565 S
Dy160 O165 2.395 . S
Dy160 O166 2.379 1_565 S
Dy160 O168 2.339 1_565 S
Dy160 O170 2.298 . S
Dy160 O174 2.275 . S
Dy160 C182 2.738 . S
Dy161 O164 2.298 . S
Dy161 O167 2.275 . S
Dy161 O169 2.307 . S
Dy161 O171 2.395 . S
Dy161 O172 2.379 . S
Dy161 O175 2.339 . S
Dy161 C191 2.738 . S
C162 O174 1.254 . S
C162 O175 1.257 . S
O163 Dy160 2.307 1_545 S
O163 C173 1.266 1_545 S
O164 Dy161 2.298 . S
O164 C173 1.236 . S
O165 Dy160 2.395 . S
O165 C182 1.255 . S
O166 Dy160 2.379 1_545 S
O166 C182 1.249 1_545 S
O167 Dy161 2.275 . S
O167 C183 1.254 1_565 S
O168 Dy160 2.339 1_545 S
O168 C183 1.257 . S
O169 Dy161 2.307 . S
O169 C184 1.266 . S
O170 Dy160 2.298 . S
O170 C184 1.236 . S
O171 Dy161 2.395 . S
O171 C191 1.255 . S
O172 Dy161 2.379 . S
O172 C191 1.249 . S
C173 O163 1.266 1_565 S
C173 O164 1.236 . S
O174 Dy160 2.275 . S
O174 C162 1.254 . S
O175 Dy161 2.339 . S
O175 C162 1.257 . S
C176 C179 1.344 . S
C176 C180 1.328 1_565 S
C176 C182 1.516 . S
C177 C178 1.304 . S
C177 C181 1.323 1_565 S
C178 C177 1.304 . S
C178 C179 1.371 . S
C178 H192 0.930 . S
C179 C176 1.344 . S
C179 C178 1.371 . S
C179 H193 0.931 . S
C180 C176 1.328 1_545 S
C180 C181 1.433 . S
C180 H194 0.931 . S
C181 C177 1.323 1_545 S
C181 C180 1.433 . S
C181 H195 0.933 . S
C182 Dy160 2.738 . S
C182 O165 1.255 . S
C182 O166 1.249 1_565 S
C182 C176 1.516 . S
C183 O167 1.254 1_545 S
C183 O168 1.257 . S
C184 O169 1.266 . S
C184 O170 1.236 . S
C185 C188 1.344 . S
C185 C189 1.328 . S
C185 C191 1.516 . S
C186 C187 1.304 . S
C186 C190 1.323 . S
C187 C186 1.304 . S
C187 C188 1.371 . S
C187 H196 0.930 . S
C188 C185 1.344 . S
C188 C187 1.371 . S
C188 H197 0.931 . S
C189 C185 1.328 . S
C189 C190 1.433 . S
C189 H198 0.931 . S
C190 C186 1.323 . S
C190 C189 1.433 . S
C190 H199 0.933 . S
C191 Dy161 2.738 . S
C191 O171 1.255 . S
C191 O172 1.249 . S
C191 C185 1.516 . S
H192 C178 0.930 . S
H193 C179 0.931 . S
H194 C180 0.931 . S
H195 C181 0.933 . S
H196 C187 0.930 . S
H197 C188 0.931 . S
H198 C189 0.931 . S
H199 C190 0.933 . S
Dy200 O203 2.307 . S
Dy200 O205 2.395 . S
Dy200 O206 2.379 . S
Dy200 O208 2.339 1_545 S
Dy200 O210 2.298 . S
Dy200 O214 2.275 . S
Dy200 C222 2.738 . S
Dy201 O204 2.298 . S
Dy201 O207 2.275 . S
Dy201 O209 2.307 . S
Dy201 O211 2.395 . S
Dy201 O212 2.379 . S
Dy201 O215 2.339 . S
Dy201 C231 2.738 . S
C202 O214 1.254 . S
C202 O215 1.257 . S
O203 Dy200 2.307 . S
O203 C213 1.266 . S
O204 Dy201 2.298 . S
O204 C213 1.236 . S
O205 Dy200 2.395 . S
O205 C222 1.255 . S
O206 Dy200 2.379 . S
O206 C222 1.249 . S
O207 Dy201 2.275 . S
O207 C223 1.254 1_545 S
O208 Dy200 2.339 1_565 S
O208 C223 1.257 . S
O209 Dy201 2.307 . S
O209 C224 1.266 . S
O210 Dy200 2.298 . S
O210 C224 1.236 . S
O211 Dy201 2.395 . S
O211 C231 1.255 . S
O212 Dy201 2.379 . S
O212 C231 1.249 . S
C213 O203 1.266 . S
C213 O204 1.236 . S
O214 Dy200 2.275 . S
O214 C202 1.254 . S
O215 Dy201 2.339 . S
O215 C202 1.257 . S
C216 C219 1.344 . S
C216 C220 1.334 . S
C216 C222 1.516 . S
C217 C218 1.304 . S
C217 C221 1.323 . S
C218 C217 1.304 . S
C218 C219 1.371 . S
C218 H232 0.930 . S
C219 C216 1.344 . S
C219 C218 1.371 . S
C219 H233 0.931 . S
C220 C216 1.334 . S
C220 C221 1.436 . S
C220 H234 0.921 1_545 S
C221 C217 1.323 . S
C221 C220 1.436 . S
C221 H235 0.933 1_545 S
C222 Dy200 2.738 . S
C222 O205 1.255 . S
C222 O206 1.249 . S
C222 C216 1.516 . S
C223 O207 1.254 1_565 S
C223 O208 1.257 . S
C224 O209 1.266 . S
C224 O210 1.236 . S
C225 C228 1.344 . S
C225 C229 1.328 . S
C225 C231 1.516 . S
C226 C227 1.304 . S
C226 C230 1.323 . S
C227 C226 1.304 . S
C227 C228 1.371 . S
C227 H236 0.930 . S
C228 C225 1.344 . S
C228 C227 1.371 . S
C228 H237 0.931 . S
C229 C225 1.328 . S
C229 C230 1.433 . S
C229 H238 0.931 . S
C230 C226 1.323 . S
C230 C229 1.433 . S
C230 H239 0.933 . S
C231 Dy201 2.738 . S
C231 O211 1.255 . S
C231 O212 1.249 . S
C231 C225 1.516 . S
H232 C218 0.930 . S
H233 C219 0.931 . S
H234 C220 0.921 1_565 S
H235 C221 0.933 1_565 S
H236 C227 0.930 . S
H237 C228 0.931 . S
H238 C229 0.931 . S
H239 C230 0.933 . S
C240 C241 1.387 . S
C240 H244 0.950 . S
C240 C249 1.390 . S
C241 C240 1.387 . S
C241 C243 1.387 . S
H242 C249 0.950 . S
C243 C241 1.387 . S
C243 C245 1.390 . S
C243 H247 0.950 . S
H244 C240 0.950 . S
C245 C243 1.390 . S
C245 C246 1.387 . S
C245 H248 0.950 . S
C246 C245 1.387 . S
C246 C249 1.387 . S
H247 C243 0.950 . S
H248 C245 0.950 . S
C249 C240 1.390 . S
C249 H242 0.950 . S
C249 C246 1.387 . S
C250 C251 1.387 . S
C250 H254 0.950 . S
C250 C259 1.390 . S
C251 C250 1.387 . S
C251 C253 1.387 . S
H252 C259 0.950 . S
C253 C251 1.387 . S
C253 C255 1.390 . S
C253 H257 0.950 . S
H254 C250 0.950 . S
C255 C253 1.390 . S
C255 C256 1.387 . S
C255 H258 0.950 . S
C256 C255 1.387 . S
C256 C259 1.387 . S
H257 C253 0.950 . S
H258 C255 0.950 . S
C259 C250 1.390 . S
C259 H252 0.950 . S
C259 C256 1.387 . S
C260 C261 1.387 . S
C260 H264 0.950 . S
C260 C269 1.390 . S
C261 C260 1.387 . S
C261 C263 1.387 . S
H262 C269 0.950 . S
C263 C261 1.387 . S
C263 C265 1.390 . S
C263 H267 0.950 . S
H264 C260 0.950 . S
C265 C263 1.390 . S
C265 C266 1.387 . S
C265 H268 0.950 . S
C266 C265 1.387 . S
C266 C269 1.387 . S
H267 C263 0.950 . S
H268 C265 0.950 . S
C269 C260 1.390 . S
C269 H262 0.950 . S
C269 C266 1.387 . S
C270 C271 1.387 . S
C270 H274 0.950 . S
C270 C279 1.390 . S
C271 C270 1.387 . S
C271 C273 1.387 . S
H272 C279 0.950 . S
C273 C271 1.387 . S
C273 C275 1.390 . S
C273 H277 0.950 . S
H274 C270 0.950 . S
C275 C273 1.390 . S
C275 C276 1.387 . S
C275 H278 0.950 . S
C276 C275 1.387 . S
C276 C279 1.387 . S
H277 C273 0.950 . S
H278 C275 0.950 . S
C279 C270 1.390 . S
C279 H272 0.950 . S
C279 C276 1.387 . S
C280 C281 1.387 . S
C280 H284 0.950 . S
C280 C289 1.390 . S
C281 C280 1.387 . S
C281 C283 1.387 . S
H282 C289 0.950 . S
C283 C281 1.387 . S
C283 C285 1.390 . S
C283 H287 0.950 . S
H284 C280 0.950 . S
C285 C283 1.390 . S
C285 C286 1.387 . S
C285 H288 0.950 . S
C286 C285 1.387 . S
C286 C289 1.387 . S
H287 C283 0.950 . S
H288 C285 0.950 . S
C289 C280 1.390 . S
C289 H282 0.950 . S
C289 C286 1.387 . S
C290 C291 1.387 . S
C290 H294 0.950 . S
C290 C299 1.390 . S
C291 C290 1.387 . S
C291 C293 1.387 . S
H292 C299 0.950 . S
C293 C291 1.387 . S
C293 C295 1.390 . S
C293 H297 0.950 . S
H294 C290 0.950 . S
C295 C293 1.390 . S
C295 C296 1.387 . S
C295 H298 0.950 . S
C296 C295 1.387 . S
C296 C299 1.387 . S
H297 C293 0.950 . S
H298 C295 0.950 . S
C299 C290 1.390 . S
C299 H292 0.950 . S
C299 C296 1.387 . S
C300 C301 1.387 . S
C300 H304 0.950 . S
C300 C309 1.390 . S
C301 C300 1.387 . S
C301 C303 1.387 . S
H302 C309 0.950 . S
C303 C301 1.387 . S
C303 C305 1.390 . S
C303 H307 0.950 . S
H304 C300 0.950 . S
C305 C303 1.390 . S
C305 C306 1.387 . S
C305 H308 0.950 . S
C306 C305 1.387 . S
C306 C309 1.387 . S
H307 C303 0.950 . S
H308 C305 0.950 . S
C309 C300 1.390 . S
C309 H302 0.950 . S
C309 C306 1.387 . S
C310 C311 1.387 . S
C310 H314 0.950 . S
C310 C319 1.390 . S
C311 C310 1.387 . S
C311 C313 1.387 . S
H312 C319 0.950 1_655 S
C313 C311 1.387 . S
C313 C315 1.390 . S
C313 H317 0.950 . S
H314 C310 0.950 . S
C315 C313 1.390 . S
C315 C316 1.387 . S
C315 H318 0.950 . S
C316 C315 1.387 . S
C316 C319 1.387 . S
H317 C313 0.950 . S
H318 C315 0.950 . S
C319 C310 1.390 . S
C319 H312 0.950 1_455 S
C319 C316 1.387 . S
C320 C321 1.387 . S
C320 H324 0.950 1_565 S
C320 C329 1.390 . S
C321 C320 1.387 . S
C321 C323 1.387 . S
H322 C329 0.950 1_545 S
C323 C321 1.387 . S
C323 C325 1.390 . S
C323 H327 0.950 . S
H324 C320 0.950 1_545 S
C325 C323 1.390 . S
C325 C326 1.387 . S
C325 H328 0.950 . S
C326 C325 1.387 . S
C326 C329 1.387 . S
H327 C323 0.950 . S
H328 C325 0.950 . S
C329 C320 1.390 . S
C329 H322 0.950 1_565 S
C329 C326 1.387 . S
C330 C331 1.387 . S
C330 H334 0.950 . S
C330 C339 1.390 . S
C331 C330 1.387 . S
C331 C333 1.387 . S
H332 C339 0.950 . S
C333 C331 1.387 . S
C333 C335 1.390 . S
C333 H337 0.950 . S
H334 C330 0.950 . S
C335 C333 1.390 . S
C335 C336 1.387 . S
C335 H338 0.950 . S
C336 C335 1.387 . S
C336 C339 1.387 . S
H337 C333 0.950 . S
H338 C335 0.950 . S
C339 C330 1.390 . S
C339 H332 0.950 . S
C339 C336 1.387 . S
C340 C341 1.387 . S
C340 H344 0.950 . S
C340 C349 1.390 . S
C341 C340 1.387 . S
C341 C343 1.387 . S
H342 C349 0.950 . S
C343 C341 1.387 . S
C343 C345 1.390 . S
C343 H347 0.950 . S
H344 C340 0.950 . S
C345 C343 1.390 . S
C345 C346 1.387 . S
C345 H348 0.950 . S
C346 C345 1.387 . S
C346 C349 1.387 . S
H347 C343 0.950 . S
H348 C345 0.950 . S
C349 C340 1.390 . S
C349 H342 0.950 . S
C349 C346 1.387 . S
C350 C351 1.387 . S
C350 H354 0.950 . S
C350 C359 1.390 . S
C351 C350 1.387 . S
C351 C353 1.387 . S
H352 C359 0.950 . S
C353 C351 1.387 . S
C353 C355 1.390 . S
C353 H357 0.950 . S
H354 C350 0.950 . S
C355 C353 1.390 . S
C355 C356 1.387 . S
C355 H358 0.950 . S
C356 C355 1.387 . S
C356 C359 1.387 . S
H357 C353 0.950 . S
H358 C355 0.950 . S
C359 C350 1.390 . S
C359 H352 0.950 . S
C359 C356 1.387 . S
C360 C361 1.387 . S
C360 H364 0.950 . S
C360 C369 1.390 . S
C361 C360 1.387 . S
C361 C363 1.387 . S
H362 C369 0.950 . S
C363 C361 1.387 . S
C363 C365 1.390 . S
C363 H367 0.950 1_545 S
H364 C360 0.950 . S
C365 C363 1.390 . S
C365 C366 1.387 . S
C365 H368 0.950 1_446 S
C366 C365 1.387 . S
C366 C369 1.387 . S
H367 C363 0.950 1_565 S
H368 C365 0.950 1_664 S
C369 C360 1.390 . S
C369 H362 0.950 . S
C369 C366 1.387 . S
C370 C371 1.387 . S
C370 H374 0.950 . S
C370 C379 1.390 . S
C371 C370 1.387 . S
C371 C373 1.387 . S
H372 C379 0.950 . S
C373 C371 1.387 . S
C373 C375 1.390 . S
C373 H377 0.950 . S
H374 C370 0.950 . S
C375 C373 1.390 . S
C375 C376 1.387 . S
C375 H378 0.950 . S
C376 C375 1.387 . S
C376 C379 1.387 . S
H377 C373 0.950 . S
H378 C375 0.950 . S
C379 C370 1.390 . S
C379 H372 0.950 . S
C379 C376 1.387 . S
C380 C381 1.387 . S
C380 H384 0.950 . S
C380 C389 1.390 1_565 S
C381 C380 1.387 . S
C381 C383 1.387 . S
H382 C389 0.950 . S
C383 C381 1.387 . S
C383 C385 1.390 1_665 S
C383 H387 0.950 1_655 S
H384 C380 0.950 . S
C385 C383 1.390 1_445 S
C385 C386 1.387 1_455 S
C385 H388 0.950 . S
C386 C385 1.387 1_655 S
C386 C389 1.387 . S
H387 C383 0.950 1_455 S
H388 C385 0.950 . S
C389 C380 1.390 1_545 S
C389 H382 0.950 . S
C389 C386 1.387 . S
C390 C391 1.387 . S
C390 H394 0.950 . S
C390 C399 1.390 . S
C391 C390 1.387 . S
C391 C393 1.387 . S
H392 C399 0.950 . S
C393 C391 1.387 . S
C393 C395 1.390 . S
C393 H397 0.950 . S
H394 C390 0.950 . S
C395 C393 1.390 . S
C395 C396 1.387 1_556 S
C395 H398 0.950 . S
C396 C395 1.387 1_554 S
C396 C399 1.387 1_554 S
H397 C393 0.950 . S
H398 C395 0.950 . S
C399 C390 1.390 . S
C399 H392 0.950 . S
C399 C396 1.387 1_556 S
C400 C401 1.387 1_545 S
C400 H404 0.950 . S
C400 C409 1.390 1_545 S
C401 C400 1.387 1_565 S
C401 C403 1.387 1_455 S
H402 C409 0.950 1_545 S
C403 C401 1.387 1_655 S
C403 C405 1.390 . S
C403 H407 0.950 . S
H404 C400 0.950 . S
C405 C403 1.390 . S
C405 C406 1.387 . S
C405 H408 0.950 . S
C406 C405 1.387 . S
C406 C409 1.387 1_655 S
H407 C403 0.950 . S
H408 C405 0.950 . S
C409 C400 1.390 1_565 S
C409 H402 0.950 1_565 S
C409 C406 1.387 1_455 S
C410 C411 1.387 . S
C410 H414 0.950 . S
C410 C419 1.390 . S
C411 C410 1.387 . S
C411 C413 1.387 . S
H412 C419 0.950 . S
C413 C411 1.387 . S
C413 C415 1.390 . S
C413 H417 0.950 . S
H414 C410 0.950 . S
C415 C413 1.390 . S
C415 C416 1.387 . S
C415 H418 0.950 1_545 S
C416 C415 1.387 . S
C416 C419 1.387 . S
H417 C413 0.950 . S
H418 C415 0.950 1_565 S
C419 C410 1.390 . S
C419 H412 0.950 . S
C419 C416 1.387 . S
C241 C184 1.701 . S
C246 C26 1.709 . S
C251 C226 1.710 . S
C256 C64 1.702 . S
C261 C24 1.699 . S
C266 C106 1.708 . S
C271 C66 1.708 . S
C276 C144 1.699 . S
C281 C104 1.701 . S
C286 C186 1.709 . S
C291 C146 1.706 . S
C296 C224 1.698 . S
C301 C2 2.074 . S
C306 C143 2.164 . S
C311 C162 2.076 . S
C316 C63 2.167 . S
C321 C223 2.167 . S
C326 C82 2.076 . S
C331 C103 2.165 . S
C336 C202 2.075 . S
C341 C23 2.167 . S
C346 C122 2.078 . S
C351 C183 2.166 . S
C356 C42 2.074 . S
C361 C217 0.920 . S
C366 C17 0.922 1_556 S
C371 C53 1.712 1_455 S
C376 C13 1.712 . S
C381 C97 0.920 . S
C386 C57 0.921 . S
C391 C93 1.712 . S
C396 C133 1.712 . S
C401 C177 0.923 . S
C406 C137 0.918 . S
C411 C213 1.714 . S
C416 C173 1.714 1_545 S
