# Generated by pormake.
# Topology cbo, (4)-cn, num edge types: 1
# Building blocks:
#     Node 0, Type 0, BuildingBlock: ESEHIV_clean_sbu_0, # of connection points: 4
#     Node 1, Type 0, BuildingBlock: ESEHIV_clean_sbu_0, # of connection points: 4
#     Node 2, Type 0, BuildingBlock: ESEHIV_clean_sbu_0, # of connection points: 4
#     Node 3, Type 0, BuildingBlock: ESEHIV_clean_sbu_0, # of connection points: 4
#     Node 4, Type 0, BuildingBlock: ESEHIV_clean_sbu_0, # of connection points: 4
#     Node 5, Type 0, BuildingBlock: ESEHIV_clean_sbu_0, # of connection points: 4
#     Node 6, Type 0, BuildingBlock: ESEHIV_clean_sbu_0, # of connection points: 4
#     Node 7, Type 0, BuildingBlock: ESEHIV_clean_sbu_0, # of connection points: 4
#     Node 8, Type 0, BuildingBlock: ESEHIV_clean_sbu_0, # of connection points: 4
#     Node 9, Type 0, BuildingBlock: ESEHIV_clean_sbu_0, # of connection points: 4
#     Node 10, Type 0, BuildingBlock: ESEHIV_clean_sbu_0, # of connection points: 4
#     Node 11, Type 0, BuildingBlock: ESEHIV_clean_sbu_0, # of connection points: 4
#     Node 12, Type 0, BuildingBlock: ESEHIV_clean_sbu_0, # of connection points: 4
#     Node 13, Type 0, BuildingBlock: ESEHIV_clean_sbu_0, # of connection points: 4
#     Node 14, Type 0, BuildingBlock: ESEHIV_clean_sbu_0, # of connection points: 4
#     Node 15, Type 0, BuildingBlock: ESEHIV_clean_sbu_0, # of connection points: 4
#     Node 16, Type 0, BuildingBlock: ESEHIV_clean_sbu_0, # of connection points: 4
#     Node 17, Type 0, BuildingBlock: ESEHIV_clean_sbu_0, # of connection points: 4
#     Node 18, Type 0, BuildingBlock: ESEHIV_clean_sbu_0, # of connection points: 4
#     Node 19, Type 0, BuildingBlock: ESEHIV_clean_sbu_0, # of connection points: 4
#     Node 20, Type 0, BuildingBlock: ESEHIV_clean_sbu_0, # of connection points: 4
#     Node 21, Type 0, BuildingBlock: ESEHIV_clean_sbu_0, # of connection points: 4
#     Node 22, Type 0, BuildingBlock: ESEHIV_clean_sbu_0, # of connection points: 4
#     Node 23, Type 0, BuildingBlock: ESEHIV_clean_sbu_0, # of connection points: 4
#     Edge 24, Type (0, 0), BuildingBlock: EZIPEK_clean_linker_0, # of connection points: 2
#     Edge 25, Type (0, 0), BuildingBlock: EZIPEK_clean_linker_0, # of connection points: 2
#     Edge 26, Type (0, 0), BuildingBlock: EZIPEK_clean_linker_0, # of connection points: 2
#     Edge 27, Type (0, 0), BuildingBlock: EZIPEK_clean_linker_0, # of connection points: 2
#     Edge 28, Type (0, 0), BuildingBlock: EZIPEK_clean_linker_0, # of connection points: 2
#     Edge 29, Type (0, 0), BuildingBlock: EZIPEK_clean_linker_0, # of connection points: 2
#     Edge 30, Type (0, 0), BuildingBlock: EZIPEK_clean_linker_0, # of connection points: 2
#     Edge 31, Type (0, 0), BuildingBlock: EZIPEK_clean_linker_0, # of connection points: 2
#     Edge 32, Type (0, 0), BuildingBlock: EZIPEK_clean_linker_0, # of connection points: 2
#     Edge 33, Type (0, 0), BuildingBlock: EZIPEK_clean_linker_0, # of connection points: 2
#     Edge 34, Type (0, 0), BuildingBlock: EZIPEK_clean_linker_0, # of connection points: 2
#     Edge 35, Type (0, 0), BuildingBlock: EZIPEK_clean_linker_0, # of connection points: 2
#     Edge 36, Type (0, 0), BuildingBlock: EZIPEK_clean_linker_0, # of connection points: 2
#     Edge 37, Type (0, 0), BuildingBlock: EZIPEK_clean_linker_0, # of connection points: 2
#     Edge 38, Type (0, 0), BuildingBlock: EZIPEK_clean_linker_0, # of connection points: 2
#     Edge 39, Type (0, 0), BuildingBlock: EZIPEK_clean_linker_0, # of connection points: 2
#     Edge 40, Type (0, 0), BuildingBlock: EZIPEK_clean_linker_0, # of connection points: 2
#     Edge 41, Type (0, 0), BuildingBlock: EZIPEK_clean_linker_0, # of connection points: 2
#     Edge 42, Type (0, 0), BuildingBlock: EZIPEK_clean_linker_0, # of connection points: 2
#     Edge 43, Type (0, 0), BuildingBlock: EZIPEK_clean_linker_0, # of connection points: 2
#     Edge 44, Type (0, 0), BuildingBlock: EZIPEK_clean_linker_0, # of connection points: 2
#     Edge 45, Type (0, 0), BuildingBlock: EZIPEK_clean_linker_0, # of connection points: 2
#     Edge 46, Type (0, 0), BuildingBlock: EZIPEK_clean_linker_0, # of connection points: 2
#     Edge 47, Type (0, 0), BuildingBlock: EZIPEK_clean_linker_0, # of connection points: 2
#     Edge 48, Type (0, 0), BuildingBlock: EZIPEK_clean_linker_0, # of connection points: 2
#     Edge 49, Type (0, 0), BuildingBlock: EZIPEK_clean_linker_0, # of connection points: 2
#     Edge 50, Type (0, 0), BuildingBlock: EZIPEK_clean_linker_0, # of connection points: 2
#     Edge 51, Type (0, 0), BuildingBlock: EZIPEK_clean_linker_0, # of connection points: 2
#     Edge 52, Type (0, 0), BuildingBlock: EZIPEK_clean_linker_0, # of connection points: 2
#     Edge 53, Type (0, 0), BuildingBlock: EZIPEK_clean_linker_0, # of connection points: 2
#     Edge 54, Type (0, 0), BuildingBlock: EZIPEK_clean_linker_0, # of connection points: 2
#     Edge 55, Type (0, 0), BuildingBlock: EZIPEK_clean_linker_0, # of connection points: 2
#     Edge 56, Type (0, 0), BuildingBlock: EZIPEK_clean_linker_0, # of connection points: 2
#     Edge 57, Type (0, 0), BuildingBlock: EZIPEK_clean_linker_0, # of connection points: 2
#     Edge 58, Type (0, 0), BuildingBlock: EZIPEK_clean_linker_0, # of connection points: 2
#     Edge 59, Type (0, 0), BuildingBlock: EZIPEK_clean_linker_0, # of connection points: 2
#     Edge 60, Type (0, 0), BuildingBlock: EZIPEK_clean_linker_0, # of connection points: 2
#     Edge 61, Type (0, 0), BuildingBlock: EZIPEK_clean_linker_0, # of connection points: 2
#     Edge 62, Type (0, 0), BuildingBlock: EZIPEK_clean_linker_0, # of connection points: 2
#     Edge 63, Type (0, 0), BuildingBlock: EZIPEK_clean_linker_0, # of connection points: 2
#     Edge 64, Type (0, 0), BuildingBlock: EZIPEK_clean_linker_0, # of connection points: 2
#     Edge 65, Type (0, 0), BuildingBlock: EZIPEK_clean_linker_0, # of connection points: 2
#     Edge 66, Type (0, 0), BuildingBlock: EZIPEK_clean_linker_0, # of connection points: 2
#     Edge 67, Type (0, 0), BuildingBlock: EZIPEK_clean_linker_0, # of connection points: 2
#     Edge 68, Type (0, 0), BuildingBlock: EZIPEK_clean_linker_0, # of connection points: 2
#     Edge 69, Type (0, 0), BuildingBlock: EZIPEK_clean_linker_0, # of connection points: 2
#     Edge 70, Type (0, 0), BuildingBlock: EZIPEK_clean_linker_0, # of connection points: 2
#     Edge 71, Type (0, 0), BuildingBlock: EZIPEK_clean_linker_0, # of connection points: 2
# Relax obj value: 0.120
# Max RMSD: 0.295
# Mean RMSD: 0.270
data_MOF--net-cbo--node1-ESEHIV_clean_sbu_0--edge1-EZIPEK_clean_linker_0
_symmetry_space_group_name_H-M    P1
_symmetry_Int_Tables_number       1
_symmetry_cell_setting            triclinic
loop_
_symmetry_equiv_pos_as_xyz
'x, y, z'
_cell_length_a     40.872989
_cell_length_b     45.467639
_cell_length_c     42.549851
_cell_angle_alpha  90.129425
_cell_angle_beta   89.902863
_cell_angle_gamma 90.136699
loop_
_atom_site_label
_atom_site_type_symbol
_atom_site_fract_x
_atom_site_fract_y
_atom_site_fract_z
_atom_type_partial_charge
Cu0 Cu 0.128 0.19604 0.31656 0.0
N1 N 0.14067 0.20666 0.35755 0.0
N2 N 0.15265 0.20721 0.40881 0.0
C3 C 0.14038 0.1912 0.38468 0.0
C4 C 0.16105 0.23341 0.39653 0.0
C5 C 0.15367 0.23301 0.36504 0.0
O6 O 0.08469 0.17763 0.31631 0.0
C7 C 0.1901 0.16762 0.30649 0.0
O8 O 0.19688 0.17609 0.33528 0.0
H9 H 0.13224 0.16861 0.38661 0.0
H10 H 0.15823 0.25056 0.3485 0.0
N11 N 0.12329 0.23097 0.29386 0.0
N12 N 0.12907 0.26624 0.2578 0.0
C13 C 0.13691 0.23846 0.26611 0.0
C14 C 0.10601 0.25465 0.30309 0.0
C15 C 0.10971 0.27652 0.281 0.0
C16 C 0.07642 0.1528 0.32763 0.0
O17 O 0.09842 0.13615 0.34126 0.0
H18 H 0.15282 0.22418 0.25263 0.0
H19 H 0.09223 0.25605 0.32477 0.0
O20 O 0.16178 0.17267 0.29513 0.0
H21 H 0.17256 0.25123 0.40936 0.0
H22 H 0.09935 0.2984 0.28198 0.0
Cu23 Cu 0.4002 0.82599 0.82652 0.0
N24 N 0.38966 0.8147 0.86773 0.0
N25 N 0.37608 0.81518 0.91863 0.0
C26 C 0.38458 0.83161 0.89344 0.0
C27 C 0.37556 0.78713 0.9085 0.0
C28 C 0.38391 0.78689 0.87716 0.0
O29 O 0.43922 0.85138 0.82729 0.0
C30 C 0.35547 0.86944 0.79914 0.0
O31 O 0.37807 0.8897 0.80302 0.0
H32 H 0.38628 0.85537 0.89354 0.0
H33 H 0.38489 0.76775 0.86209 0.0
N34 N 0.4095 0.79176 0.80352 0.0
N35 N 0.40542 0.75615 0.76741 0.0
C36 C 0.395 0.78295 0.77668 0.0
C37 C 0.43008 0.76985 0.8113 0.0
C38 C 0.42744 0.74773 0.78915 0.0
C39 C 0.46115 0.8499 0.80596 0.0
O40 O 0.45641 0.83281 0.78147 0.0
H41 H 0.37622 0.7953 0.76479 0.0
H42 H 0.44517 0.76963 0.83216 0.0
O43 O 0.36103 0.84304 0.80749 0.0
H44 H 0.36879 0.7683 0.92264 0.0
H45 H 0.44014 0.72687 0.78926 0.0
Cu46 Cu 0.63011 0.32499 0.70075 0.0
N47 N 0.63794 0.31352 0.65893 0.0
N48 N 0.65036 0.31443 0.60776 0.0
C49 C 0.64469 0.33068 0.63384 0.0
C50 C 0.64731 0.28617 0.61666 0.0
C51 C 0.6397 0.28567 0.64818 0.0
O52 O 0.59015 0.34825 0.70351 0.0
C53 C 0.66972 0.3585 0.74288 0.0
O54 O 0.64419 0.35695 0.76161 0.0
H55 H 0.64635 0.35443 0.63483 0.0
H56 H 0.63668 0.26621 0.66241 0.0
N57 N 0.62366 0.29132 0.72561 0.0
N58 N 0.62694 0.25772 0.76382 0.0
C59 C 0.63778 0.28402 0.75318 0.0
C60 C 0.60295 0.26906 0.71904 0.0
C61 C 0.60513 0.24822 0.74237 0.0
C62 C 0.56483 0.34058 0.68806 0.0
O63 O 0.56654 0.31814 0.66865 0.0
H64 H 0.65595 0.29734 0.76502 0.0
H65 H 0.58752 0.2679 0.69847 0.0
O66 O 0.66823 0.34689 0.71566 0.0
H67 H 0.65141 0.2673 0.60162 0.0
H68 H 0.59186 0.22761 0.74351 0.0
Cu69 Cu 0.89484 0.69471 0.19907 0.0
N70 N 0.87474 0.70454 0.16106 0.0
N71 N 0.86019 0.70584 0.11048 0.0
C72 C 0.88219 0.69576 0.13156 0.0
C73 C 0.83836 0.7216 0.12723 0.0
C74 C 0.84738 0.72073 0.15839 0.0
O75 O 0.93464 0.67223 0.19134 0.0
C76 C 0.85172 0.64835 0.21935 0.0
O77 O 0.8629 0.63317 0.19534 0.0
H78 H 0.90274 0.68179 0.12572 0.0
H79 H 0.83455 0.73071 0.17792 0.0
N80 N 0.90642 0.7289 0.22105 0.0
N81 N 0.91195 0.76129 0.26033 0.0
C82 C 0.89606 0.73708 0.24989 0.0
C83 C 0.92938 0.74876 0.21294 0.0
C84 C 0.93299 0.76868 0.23721 0.0
C85 C 0.95306 0.66515 0.21418 0.0
O86 O 0.94362 0.67091 0.24306 0.0
H87 H 0.87799 0.72505 0.26339 0.0
H88 H 0.94303 0.7484 0.19116 0.0
O89 O 0.86311 0.6739 0.22491 0.0
H90 H 0.81718 0.73259 0.11757 0.0
H91 H 0.94995 0.78699 0.23803 0.0
Cu92 Cu 0.33601 0.11682 0.17583 0.0
N93 N 0.32219 0.07897 0.16451 0.0
N94 N 0.31915 0.03103 0.15333 0.0
C95 C 0.33868 0.05326 0.16321 0.0
C96 C 0.28964 0.04314 0.14807 0.0
C97 C 0.2916 0.07265 0.15494 0.0
O98 O 0.38345 0.1191 0.18123 0.0
C99 C 0.29352 0.11537 0.22996 0.0
O100 O 0.29824 0.0868 0.22979 0.0
H101 H 0.36423 0.05086 0.1693 0.0
H102 H 0.27209 0.08858 0.15305 0.0
N103 N 0.32674 0.14159 0.14226 0.0
N104 N 0.31043 0.18069 0.11508 0.0
C105 C 0.31193 0.16798 0.14363 0.0
C106 C 0.33479 0.13751 0.11186 0.0
C107 C 0.32471 0.16172 0.09496 0.0
C108 C 0.39959 0.12096 0.20671 0.0
O109 O 0.38428 0.11993 0.23385 0.0
H110 H 0.30285 0.17788 0.16509 0.0
H111 H 0.34743 0.11842 0.10277 0.0
O112 O 0.30948 0.13156 0.21087 0.0
H113 H 0.26825 0.03137 0.13978 0.0
H114 H 0.32779 0.16529 0.06999 0.0
Cu115 Cu 0.19723 0.9184 0.68413 0.0
N116 N 0.206 0.9554 0.66697 0.0
N117 N 0.20522 1.00257 0.65247 0.0
C118 C 0.18878 0.98075 0.6673 0.0
C119 C 0.23339 0.99053 0.64232 0.0
C120 C 0.2338 0.96152 0.65129 0.0
O121 O 0.15168 0.91524 0.69857 0.0
C122 C 0.23098 0.89194 0.73755 0.0
O123 O 0.20479 0.87586 0.74256 0.0
H124 H 0.1651 0.98329 0.6784 0.0
H125 H 0.25317 0.94586 0.64692 0.0
N126 N 0.20291 0.89121 0.65173 0.0
N127 N 0.2183 0.85115 0.62547 0.0
C128 C 0.22243 0.86742 0.65166 0.0
C129 C 0.18635 0.89015 0.62442 0.0
C130 C 0.19573 0.86526 0.60815 0.0
C131 C 0.13791 0.89004 0.69988 0.0
O132 O 0.15542 0.8664 0.69439 0.0
H133 H 0.23867 0.86173 0.67065 0.0
H134 H 0.168 0.90589 0.61735 0.0
O135 O 0.23116 0.91099 0.71565 0.0
H136 H 0.2524 1.00207 0.62954 0.0
H137 H 0.18618 0.85767 0.58584 0.0
Cu138 Cu 0.83708 0.40776 0.84342 0.0
N139 N 0.82538 0.44398 0.86166 0.0
N140 N 0.82122 0.49145 0.87528 0.0
C141 C 0.83974 0.47084 0.86067 0.0
C142 C 0.79461 0.47709 0.88598 0.0
C143 C 0.79723 0.44796 0.87756 0.0
O144 O 0.88099 0.40634 0.82554 0.0
C145 C 0.78722 0.4114 0.7956 0.0
O146 O 0.79545 0.4392 0.79251 0.0
H147 H 0.86271 0.4754 0.84898 0.0
H148 H 0.77944 0.43082 0.88206 0.0
N149 N 0.83757 0.37837 0.87389 0.0
N150 N 0.82184 0.33728 0.89843 0.0
C151 C 0.81196 0.36219 0.88399 0.0
C152 C 0.86442 0.36339 0.88262 0.0
C153 C 0.85481 0.33801 0.89765 0.0
C154 C 0.89661 0.42372 0.80757 0.0
O155 O 0.88263 0.44758 0.79671 0.0
H156 H 0.78672 0.36728 0.87863 0.0
H157 H 0.8892 0.36933 0.87627 0.0
O158 O 0.8032 0.39503 0.81425 0.0
H159 H 0.77444 0.48717 0.89848 0.0
H160 H 0.87069 0.32069 0.90599 0.0
Cu161 Cu 0.68427 0.61557 0.3297 0.0
N162 N 0.69095 0.58373 0.35713 0.0
N163 N 0.69814 0.53825 0.37602 0.0
C164 C 0.69041 0.55462 0.35059 0.0
C165 C 0.70379 0.55773 0.39933 0.0
C166 C 0.69926 0.58567 0.38767 0.0
O167 O 0.63981 0.61633 0.31281 0.0
C168 C 0.74699 0.60871 0.30199 0.0
O169 O 0.75366 0.59444 0.328 0.0
H170 H 0.68513 0.5456 0.32759 0.0
H171 H 0.70225 0.60606 0.40049 0.0
N172 N 0.68736 0.65149 0.35096 0.0
N173 N 0.70677 0.69216 0.37395 0.0
C174 C 0.71212 0.66334 0.36778 0.0
C175 C 0.66583 0.67347 0.34672 0.0
C176 C 0.67771 0.69851 0.36075 0.0
C177 C 0.61786 0.59645 0.31412 0.0
O178 O 0.62538 0.56988 0.32362 0.0
H179 H 0.73414 0.65159 0.3741 0.0
H180 H 0.64366 0.67176 0.33299 0.0
O181 O 0.71785 0.6175 0.29706 0.0
H182 H 0.71082 0.55206 0.42308 0.0
H183 H 0.66635 0.72 0.36065 0.0
Cu184 Cu 0.18489 0.35277 0.09078 0.0
N185 N 0.19593 0.39168 0.10133 0.0
N186 N 0.19398 0.43748 0.12032 0.0
C187 C 0.17695 0.4125 0.11479 0.0
C188 C 0.22463 0.4323 0.11018 0.0
C189 C 0.22576 0.40408 0.09847 0.0
O190 O 0.15915 0.35116 0.05225 0.0
C191 C 0.17325 0.3367 0.15347 0.0
O192 O 0.19713 0.35545 0.15872 0.0
H193 H 0.15157 0.40917 0.1212 0.0
H194 H 0.24715 0.39315 0.08921 0.0
N195 N 0.22259 0.33064 0.08365 0.0
N196 N 0.25707 0.29277 0.08514 0.0
C197 C 0.2292 0.30433 0.09662 0.0
C198 C 0.24706 0.33568 0.06307 0.0
C199 C 0.26852 0.31229 0.06402 0.0
C200 C 0.16639 0.36719 0.02871 0.0
O201 O 0.19004 0.38666 0.03113 0.0
H202 H 0.21343 0.29341 0.11342 0.0
H203 H 0.24878 0.35469 0.04793 0.0
O204 O 0.16253 0.33347 0.12557 0.0
H205 H 0.24486 0.44763 0.11189 0.0
H206 H 0.29036 0.30948 0.04993 0.0
Cu207 Cu 0.6803 0.17389 0.93343 0.0
N208 N 0.70124 0.13873 0.9218 0.0
N209 N 0.70972 0.09237 0.90605 0.0
C210 C 0.68744 0.11217 0.91625 0.0
C211 C 0.73852 0.10683 0.90536 0.0
C212 C 0.73324 0.13537 0.91515 0.0
O213 O 0.65385 0.16748 0.97092 0.0
C214 C 0.66667 0.18749 0.86981 0.0
O215 O 0.6888 0.16728 0.86408 0.0
H216 H 0.66154 0.10767 0.9187 0.0
H217 H 0.75135 0.1527 0.9166 0.0
N218 N 0.71015 0.2027 0.94608 0.0
N219 N 0.74261 0.2422 0.94289 0.0
C220 C 0.73284 0.21697 0.92878 0.0
C221 C 0.70596 0.21923 0.97206 0.0
C222 C 0.72583 0.24358 0.97013 0.0
C223 C 0.62453 0.1757 0.97563 0.0
O224 O 0.60687 0.18525 0.95201 0.0
H225 H 0.7402 0.21027 0.90543 0.0
H226 H 0.68777 0.2151 0.99 0.0
O227 O 0.65732 0.19185 0.89805 0.0
H228 H 0.76157 0.09747 0.89781 0.0
H229 H 0.72671 0.26172 0.98665 0.0
Cu230 Cu 0.84823 0.8501 0.42117 0.0
N231 N 0.82955 0.88603 0.40969 0.0
N232 N 0.82503 0.9328 0.39411 0.0
C233 C 0.84442 0.91252 0.40789 0.0
C234 C 0.79688 0.91863 0.38734 0.0
C235 C 0.79974 0.88982 0.39696 0.0
O236 O 0.87741 0.85663 0.45701 0.0
C237 C 0.89368 0.8186 0.38025 0.0
O238 O 0.91317 0.81496 0.40443 0.0
H239 H 0.86947 0.9165 0.41498 0.0
H240 H 0.78191 0.87247 0.39365 0.0
N241 N 0.81551 0.82338 0.43294 0.0
N242 N 0.78252 0.78424 0.42936 0.0
C243 C 0.79979 0.80474 0.41343 0.0
C244 C 0.80733 0.81468 0.46216 0.0
C245 C 0.78729 0.79036 0.46003 0.0
C246 C 0.88594 0.83576 0.47515 0.0
O247 O 0.88038 0.80844 0.46654 0.0
H248 H 0.80231 0.80522 0.3881 0.0
H249 H 0.81663 0.82427 0.4836 0.0
O250 O 0.86758 0.8335 0.38326 0.0
H251 H 0.77622 0.92824 0.37526 0.0
H252 H 0.77754 0.77769 0.47943 0.0
Cu253 Cu 0.33996 0.67503 0.60027 0.0
N254 N 0.32397 0.63765 0.61094 0.0
N255 N 0.31984 0.59031 0.62419 0.0
C256 C 0.34004 0.61188 0.61401 0.0
C257 C 0.29023 0.60277 0.62761 0.0
C258 C 0.29283 0.63191 0.61942 0.0
O259 O 0.36527 0.67434 0.56142 0.0
C260 C 0.35667 0.68748 0.66332 0.0
O261 O 0.33389 0.66789 0.66943 0.0
H262 H 0.36597 0.60917 0.60976 0.0
H263 H 0.2735 0.64807 0.6205 0.0
N264 N 0.30453 0.69996 0.59349 0.0
N265 N 0.27227 0.73927 0.59586 0.0
C266 C 0.30053 0.72713 0.60554 0.0
C267 C 0.27792 0.69491 0.5756 0.0
C268 C 0.25785 0.71922 0.57709 0.0
C269 C 0.35427 0.66117 0.53717 0.0
O270 O 0.32716 0.64574 0.53931 0.0
H271 H 0.31783 0.73777 0.62111 0.0
H272 H 0.27337 0.6749 0.56254 0.0
O273 O 0.36458 0.69253 0.63486 0.0
H274 H 0.2685 0.59164 0.63609 0.0
H275 H 0.23455 0.72202 0.56544 0.0
Cu276 Cu 0.93577 0.84588 0.69789 0.0
N277 N 0.92432 0.83345 0.65722 0.0
N278 N 0.91521 0.83131 0.60548 0.0
C279 C 0.92798 0.84732 0.62936 0.0
C280 C 0.90346 0.80654 0.61864 0.0
C281 C 0.90919 0.80786 0.65046 0.0
O282 O 0.97849 0.86536 0.69581 0.0
C283 C 0.87191 0.86944 0.70646 0.0
O284 O 0.86504 0.85379 0.68136 0.0
H285 H 0.93898 0.86885 0.62669 0.0
H286 H 0.90215 0.79156 0.66769 0.0
N287 N 0.93854 0.81219 0.72289 0.0
N288 N 0.92513 0.77794 0.75824 0.0
C289 C 0.92004 0.80572 0.74822 0.0
C290 C 0.95609 0.78779 0.71689 0.0
C291 C 0.94778 0.76655 0.73863 0.0
C292 C 0.99991 0.86374 0.7175 0.0
O293 O 0.99247 0.85072 0.7441 0.0
H294 H 0.90205 0.8205 0.75818 0.0
H295 H 0.97268 0.78525 0.69724 0.0
O296 O 0.90133 0.87046 0.71642 0.0
H297 H 0.89118 0.78897 0.60608 0.0
H298 H 0.95679 0.7442 0.73942 0.0
Cu299 Cu 0.59475 0.18533 0.2019 0.0
N300 N 0.60355 0.19399 0.15969 0.0
N301 N 0.60817 0.19283 0.10732 0.0
C302 C 0.5923 0.18187 0.13272 0.0
C303 C 0.62977 0.21255 0.11868 0.0
C304 C 0.62695 0.21314 0.15085 0.0
O305 O 0.55015 0.1704 0.20717 0.0
C306 C 0.63624 0.15116 0.24299 0.0
O307 O 0.61519 0.15669 0.26557 0.0
H308 H 0.57368 0.16493 0.1317 0.0
H309 H 0.64158 0.22611 0.16692 0.0
N310 N 0.59811 0.22094 0.22427 0.0
N311 N 0.61391 0.25591 0.25812 0.0
C312 C 0.61479 0.22699 0.2509 0.0
C313 C 0.58613 0.24698 0.21466 0.0
C314 C 0.59593 0.26862 0.23541 0.0
C315 C 0.53935 0.14543 0.19833 0.0
O316 O 0.55934 0.12637 0.1853 0.0
H317 H 0.62845 0.21099 0.26418 0.0
H318 H 0.57211 0.25012 0.1934 0.0
O319 O 0.62995 0.1591 0.21499 0.0
H320 H 0.64678 0.22524 0.10461 0.0
H321 H 0.59101 0.29194 0.23361 0.0
Cu322 Cu 0.43348 0.67571 0.32432 0.0
N323 N 0.42562 0.68749 0.36597 0.0
N324 N 0.41056 0.68731 0.41646 0.0
C325 C 0.41439 0.67105 0.39011 0.0
C326 C 0.41959 0.71486 0.40878 0.0
C327 C 0.42895 0.7149 0.37767 0.0
O328 O 0.47444 0.65405 0.32349 0.0
C329 C 0.36759 0.65983 0.31627 0.0
O330 O 0.36313 0.68105 0.33682 0.0
H331 H 0.40819 0.64796 0.38818 0.0
H332 H 0.43689 0.73382 0.36434 0.0
N333 N 0.43749 0.70887 0.29866 0.0
N334 N 0.42579 0.74279 0.26251 0.0
C335 C 0.41775 0.71633 0.27464 0.0
C336 C 0.45911 0.73112 0.30138 0.0
C337 C 0.45177 0.75223 0.27924 0.0
C338 C 0.4856 0.64052 0.29957 0.0
O339 O 0.46822 0.63934 0.27366 0.0
H340 H 0.39727 0.7031 0.26679 0.0
H341 H 0.47828 0.73225 0.31883 0.0
O342 O 0.39664 0.65287 0.30833 0.0
H343 H 0.4186 0.73368 0.42438 0.0
H344 H 0.46407 0.77312 0.27603 0.0
Cu345 Cu 0.08622 0.3566 0.81625 0.0
N346 N 0.09191 0.34492 0.85825 0.0
N347 N 0.10643 0.34427 0.90885 0.0
C348 C 0.10698 0.35967 0.88174 0.0
C349 C 0.09044 0.31908 0.90241 0.0
C350 C 0.08145 0.31956 0.87122 0.0
O351 O 0.04576 0.37924 0.81426 0.0
C352 C 0.153 0.36988 0.80937 0.0
O353 O 0.15589 0.34779 0.82901 0.0
H354 H 0.1186 0.38093 0.87893 0.0
H355 H 0.06845 0.30239 0.85884 0.0
N356 N 0.08237 0.32332 0.79045 0.0
N357 N 0.09413 0.28949 0.75397 0.0
C358 C 0.10261 0.3156 0.7668 0.0
C359 C 0.05995 0.30163 0.79215 0.0
C360 C 0.06732 0.28057 0.76984 0.0
C361 C 0.02939 0.38286 0.78914 0.0
O362 O 0.04107 0.37312 0.76229 0.0
H363 H 0.12357 0.32849 0.75953 0.0
H364 H 0.03989 0.30099 0.80874 0.0
O365 O 0.12447 0.37841 0.80149 0.0
H366 H 0.08615 0.30145 0.91898 0.0
H367 H 0.05433 0.26014 0.76578 0.0
Cu368 Cu 0.68335 0.92113 0.83004 0.0
N369 N 0.64181 0.91516 0.81188 0.0
N370 N 0.58957 0.90157 0.80499 0.0
C371 C 0.61503 0.90285 0.82524 0.0
C372 C 0.60057 0.91349 0.77803 0.0
C373 C 0.63271 0.92182 0.78232 0.0
O374 O 0.68135 0.95713 0.85549 0.0
C375 C 0.72135 0.88109 0.8671 0.0
O376 O 0.74307 0.90238 0.86844 0.0
H377 H 0.61434 0.89457 0.84907 0.0
H378 H 0.64839 0.9317 0.76482 0.0
N379 N 0.71496 0.92609 0.79813 0.0
N380 N 0.75895 0.91944 0.76747 0.0
C381 C 0.74244 0.91028 0.79318 0.0
C382 C 0.71462 0.94628 0.775 0.0
C383 C 0.74154 0.94208 0.75591 0.0
C384 C 0.70617 0.97358 0.86025 0.0
O385 O 0.735 0.96549 0.84978 0.0
H386 H 0.75011 0.89208 0.80762 0.0
H387 H 0.69591 0.9628 0.77204 0.0
O388 O 0.69392 0.88562 0.85381 0.0
H389 H 0.58646 0.91555 0.75664 0.0
H390 H 0.74776 0.95446 0.73503 0.0
Cu391 Cu 0.84484 0.10918 0.33234 0.0
N392 N 0.88674 0.11456 0.31477 0.0
N393 N 0.94054 0.12321 0.31057 0.0
C394 C 0.91573 0.11558 0.33002 0.0
C395 C 0.92681 0.12714 0.28216 0.0
C396 C 0.89368 0.12196 0.28484 0.0
O397 O 0.84412 0.07376 0.35837 0.0
C398 C 0.80995 0.14799 0.37346 0.0
O399 O 0.79113 0.12522 0.37946 0.0
H400 H 0.91843 0.11198 0.35502 0.0
H401 H 0.87574 0.12474 0.26647 0.0
N402 N 0.81268 0.10539 0.30081 0.0
N403 N 0.76525 0.11003 0.27513 0.0
C404 C 0.78157 0.11528 0.30209 0.0
C405 C 0.81575 0.09319 0.27202 0.0
C406 C 0.78656 0.0962 0.25606 0.0
C407 C 0.84577 0.04881 0.34469 0.0
O408 O 0.84957 0.04799 0.31406 0.0
H409 H 0.77118 0.12687 0.3219 0.0
H410 H 0.83783 0.08318 0.26302 0.0
O411 O 0.83489 0.14487 0.35584 0.0
H412 H 0.9397 0.13431 0.26128 0.0
H413 H 0.78154 0.08937 0.23216 0.0
Cu414 Cu 0.18022 0.60618 0.19615 0.0
N415 N 0.13867 0.61542 0.21223 0.0
N416 N 0.08584 0.62722 0.21681 0.0
C417 C 0.10955 0.61716 0.19736 0.0
C418 C 0.10038 0.63173 0.24477 0.0
C419 C 0.13288 0.62443 0.2419 0.0
O420 O 0.17964 0.56966 0.17214 0.0
C421 C 0.19132 0.66519 0.17793 0.0
O422 O 0.17127 0.671 0.20127 0.0
H423 H 0.10603 0.61221 0.1727 0.0
H424 H 0.15132 0.62653 0.25996 0.0
N425 N 0.20922 0.6014 0.22967 0.0
N426 N 0.25198 0.60841 0.26141 0.0
C427 C 0.23802 0.61537 0.23369 0.0
C428 C 0.20504 0.58485 0.25559 0.0
C429 C 0.23135 0.58928 0.27534 0.0
C430 C 0.16533 0.54672 0.18246 0.0
O431 O 0.14861 0.5481 0.20881 0.0
H432 H 0.24808 0.63105 0.21716 0.0
H433 H 0.18386 0.57122 0.2602 0.0
O434 O 0.19735 0.63851 0.17084 0.0
H435 H 0.0884 0.64037 0.26553 0.0
H436 H 0.23477 0.57979 0.29841 0.0
Cu437 Cu 0.3468 0.41953 0.69586 0.0
N438 N 0.38771 0.40804 0.71152 0.0
N439 N 0.43915 0.39182 0.71439 0.0
C440 C 0.41428 0.39925 0.69513 0.0
C441 C 0.42796 0.39593 0.74384 0.0
C442 C 0.39625 0.40597 0.74201 0.0
O443 O 0.35173 0.4572 0.67486 0.0
C444 C 0.33283 0.36222 0.67485 0.0
O445 O 0.35154 0.35508 0.6987 0.0
H446 H 0.41512 0.39761 0.66976 0.0
H447 H 0.38032 0.41078 0.76163 0.0
N448 N 0.31705 0.42425 0.72895 0.0
N449 N 0.27277 0.4181 0.7591 0.0
C450 C 0.28783 0.41073 0.73196 0.0
C451 C 0.32029 0.44108 0.75484 0.0
C452 C 0.29309 0.43713 0.77366 0.0
C453 C 0.32731 0.47025 0.66281 0.0
O454 O 0.29863 0.45717 0.66253 0.0
H455 H 0.27807 0.39531 0.71496 0.0
H456 H 0.34123 0.45487 0.75991 0.0
O457 O 0.32869 0.38929 0.66833 0.0
H458 H 0.44154 0.39127 0.76507 0.0
H459 H 0.2887 0.44708 0.79641 0.0
Cu460 Cu 0.82989 0.70121 0.91417 0.0
N461 N 0.81617 0.66318 0.90236 0.0
N462 N 0.81455 0.61496 0.89156 0.0
C463 C 0.83336 0.63779 0.90124 0.0
C464 C 0.7847 0.62636 0.88621 0.0
C465 C 0.78577 0.656 0.89285 0.0
O466 O 0.84987 0.70084 0.95582 0.0
C467 C 0.85457 0.71412 0.85389 0.0
O468 O 0.83057 0.69681 0.84484 0.0
H469 H 0.85896 0.63604 0.90742 0.0
H470 H 0.76573 0.67133 0.89069 0.0
N471 N 0.79394 0.72679 0.91584 0.0
N472 N 0.76313 0.76681 0.90919 0.0
C473 C 0.79194 0.7537 0.90265 0.0
C474 C 0.76538 0.72295 0.9312 0.0
C475 C 0.74627 0.74763 0.92708 0.0
C476 C 0.8346 0.6896 0.97902 0.0
O477 O 0.80675 0.67592 0.97404 0.0
H478 H 0.8112 0.76356 0.88869 0.0
H479 H 0.75884 0.70355 0.94444 0.0
O480 O 0.85974 0.71778 0.88314 0.0
H481 H 0.76368 0.61405 0.87799 0.0
H482 H 0.72194 0.75127 0.93638 0.0
Cu483 Cu 0.32904 0.82272 0.10941 0.0
N484 N 0.31734 0.86062 0.12298 0.0
N485 N 0.31689 0.90855 0.13472 0.0
C486 C 0.33452 0.88607 0.12256 0.0
C487 C 0.28794 0.89688 0.14328 0.0
C488 C 0.28828 0.86741 0.13605 0.0
O489 O 0.34774 0.82322 0.06718 0.0
C490 C 0.35703 0.8096 0.16856 0.0
O491 O 0.33715 0.83023 0.17862 0.0
H492 H 0.35918 0.88813 0.1135 0.0
H493 H 0.26871 0.85187 0.14028 0.0
N494 N 0.29128 0.79946 0.10813 0.0
N495 N 0.25524 0.76394 0.11913 0.0
C496 C 0.28604 0.77394 0.12343 0.0
C497 C 0.26295 0.80557 0.09344 0.0
C498 C 0.24057 0.78374 0.10033 0.0
C499 C 0.33625 0.83962 0.04563 0.0
O500 O 0.31279 0.8583 0.0524 0.0
H501 H 0.30403 0.76339 0.13823 0.0
H502 H 0.2586 0.82502 0.07949 0.0
O503 O 0.35852 0.80393 0.13926 0.0
H504 H 0.26803 0.90892 0.15407 0.0
H505 H 0.21532 0.78274 0.09276 0.0
Cu506 Cu 0.19237 0.20875 0.60122 0.0
N507 N 0.20453 0.17139 0.61588 0.0
N508 N 0.20519 0.12404 0.62982 0.0
C509 C 0.18695 0.14624 0.6181 0.0
C510 C 0.23494 0.13562 0.63548 0.0
C511 C 0.23446 0.16474 0.62694 0.0
O512 O 0.17461 0.20689 0.55859 0.0
C513 C 0.16326 0.22238 0.6599 0.0
O514 O 0.18261 0.20149 0.67017 0.0
H515 H 0.16159 0.14418 0.61114 0.0
H516 H 0.25458 0.18009 0.62887 0.0
N517 N 0.22992 0.23225 0.5997 0.0
N518 N 0.2664 0.26718 0.61156 0.0
C519 C 0.23559 0.2572 0.61599 0.0
C520 C 0.25792 0.22653 0.58416 0.0
C521 C 0.28057 0.24798 0.59159 0.0
C522 C 0.18394 0.18761 0.53871 0.0
O523 O 0.20413 0.1668 0.54759 0.0
H524 H 0.218 0.26723 0.63174 0.0
H525 H 0.26193 0.20746 0.56944 0.0
O526 O 0.16242 0.22799 0.63058 0.0
H527 H 0.25551 0.12376 0.64518 0.0
H528 H 0.30574 0.24902 0.58369 0.0
Cu529 Cu 0.70392 0.32955 0.41853 0.0
N530 N 0.7183 0.3679 0.40881 0.0
N531 N 0.71934 0.41594 0.39717 0.0
C532 C 0.70044 0.39161 0.40037 0.0
C533 C 0.75008 0.40716 0.40347 0.0
C534 C 0.7494 0.37764 0.41043 0.0
O535 O 0.6825 0.32867 0.45959 0.0
C536 C 0.68321 0.31663 0.35699 0.0
O537 O 0.70949 0.33179 0.34952 0.0
H538 H 0.67417 0.3912 0.3972 0.0
H539 H 0.77026 0.36434 0.41653 0.0
N540 N 0.7394 0.30362 0.42095 0.0
N541 N 0.76937 0.26298 0.41502 0.0
C542 C 0.74145 0.27692 0.40723 0.0
C543 C 0.7668 0.30633 0.43831 0.0
C544 C 0.78549 0.28134 0.43448 0.0
C545 C 0.69471 0.3424 0.48296 0.0
O546 O 0.72048 0.35924 0.47873 0.0
H547 H 0.72268 0.26765 0.39226 0.0
H548 H 0.77254 0.32492 0.4532 0.0
O549 O 0.67522 0.31418 0.38582 0.0
H550 H 0.77149 0.42123 0.40313 0.0
H551 H 0.80883 0.27677 0.44541 0.0
C552 C 0.12753 0.31385 0.18543 0.0
C553 C 0.16153 0.31731 0.17938 0.0
C554 C 0.17393 0.28823 0.2264 0.0
C555 C 0.14018 0.28249 0.23068 0.0
N556 N 0.08536 0.28441 0.21045 0.0
N557 N 0.21676 0.30075 0.1896 0.0
C558 C 0.1171 0.2937 0.20899 0.0
C559 C 0.18469 0.30246 0.19855 0.0
N560 N 0.10522 0.33076 0.16989 0.0
N561 N 0.19563 0.2813 0.24958 0.0
H562 H 0.2256 0.30955 0.16864 0.0
H563 H 0.23383 0.28775 0.20125 0.0
H564 H 0.18847 0.27192 0.27084 0.0
H565 H 0.22014 0.28766 0.249 0.0
H566 H 0.08045 0.33117 0.17568 0.0
H567 H 0.11181 0.34652 0.15328 0.0
H568 H 0.06798 0.28962 0.19349 0.0
H569 H 0.07731 0.26904 0.22692 0.0
C570 C 0.41543 0.72946 0.71735 0.0
C571 C 0.39352 0.73912 0.74107 0.0
C572 C 0.34757 0.7195 0.7107 0.0
C573 C 0.36975 0.7061 0.68929 0.0
N574 N 0.4256 0.69461 0.6753 0.0
N575 N 0.33949 0.73735 0.76369 0.0
C576 C 0.40398 0.7101 0.69336 0.0
C577 C 0.35976 0.73245 0.7387 0.0
N578 N 0.44686 0.73966 0.71708 0.0
N579 N 0.31499 0.72116 0.70372 0.0
H580 H 0.34792 0.74531 0.78521 0.0
H581 H 0.31518 0.7304 0.76415 0.0
H582 H 0.30519 0.71362 0.68256 0.0
H583 H 0.29842 0.73313 0.71728 0.0
H584 H 0.46313 0.73562 0.69871 0.0
H585 H 0.4556 0.75461 0.7337 0.0
H586 H 0.45072 0.69451 0.67945 0.0
H587 H 0.41826 0.6797 0.65803 0.0
C588 C 0.61369 0.23386 0.81462 0.0
C589 C 0.63715 0.24205 0.79164 0.0
C590 C 0.68019 0.21979 0.82353 0.0
C591 C 0.65616 0.20744 0.84391 0.0
N592 N 0.59895 0.19957 0.8558 0.0
N593 N 0.69192 0.23769 0.77125 0.0
C594 C 0.62254 0.21375 0.83878 0.0
C595 C 0.67023 0.23369 0.79531 0.0
N596 N 0.58319 0.24597 0.81379 0.0
N597 N 0.71252 0.21943 0.83165 0.0
H598 H 0.68523 0.24658 0.74965 0.0
H599 H 0.71563 0.22931 0.77159 0.0
H600 H 0.72091 0.21094 0.85285 0.0
H601 H 0.73047 0.2307 0.81905 0.0
H602 H 0.5659 0.243 0.83153 0.0
H603 H 0.57645 0.26146 0.79696 0.0
H604 H 0.57408 0.20119 0.85079 0.0
H605 H 0.60425 0.18399 0.87297 0.0
C606 C 0.91424 0.76003 0.31858 0.0
C607 C 0.90826 0.77572 0.29045 0.0
C608 C 0.89881 0.82058 0.32129 0.0
C609 C 0.90058 0.80401 0.34952 0.0
N610 N 0.90281 0.75613 0.37418 0.0
N611 N 0.88856 0.81952 0.26522 0.0
C612 C 0.90645 0.77321 0.34801 0.0
C613 C 0.89885 0.80567 0.29185 0.0
N614 N 0.92839 0.73289 0.31725 0.0
N615 N 0.89814 0.85061 0.32248 0.0
H616 H 0.88709 0.80887 0.24354 0.0
H617 H 0.87836 0.84049 0.26529 0.0
H618 H 0.89926 0.86241 0.34351 0.0
H619 H 0.89992 0.86381 0.30256 0.0
H620 H 0.93614 0.72159 0.33716 0.0
H621 H 0.93552 0.72311 0.29614 0.0
H622 H 0.90349 0.73323 0.37347 0.0
H623 H 0.89567 0.76447 0.39596 0.0
C624 C 0.23484 0.11662 0.24905 0.0
C625 C 0.26712 0.12845 0.24993 0.0
C626 C 0.2474 0.16825 0.28413 0.0
C627 C 0.21636 0.15419 0.28664 0.0
N628 N 0.18289 0.11151 0.276 0.0
N629 N 0.30527 0.16251 0.27351 0.0
C630 C 0.21072 0.12737 0.27037 0.0
C631 C 0.27373 0.15343 0.26897 0.0
N632 N 0.22652 0.09623 0.22679 0.0
N633 N 0.25143 0.19641 0.29479 0.0
H634 H 0.32532 0.15181 0.26355 0.0
H635 H 0.3117 0.17874 0.28971 0.0
H636 H 0.23246 0.20874 0.30453 0.0
H637 H 0.27259 0.20867 0.29073 0.0
H638 H 0.20254 0.0892 0.22314 0.0
H639 H 0.24273 0.08874 0.20964 0.0
H640 H 0.17919 0.09035 0.26721 0.0
H641 H 0.16498 0.11815 0.29196 0.0
C642 C 0.30307 0.8991 0.79459 0.0
C643 C 0.32394 0.87649 0.78311 0.0
C644 C 0.28122 0.86125 0.74596 0.0
C645 C 0.26189 0.88578 0.75484 0.0
N646 N 0.25604 0.93041 0.78497 0.0
N647 N 0.33605 0.84184 0.74175 0.0
C648 C 0.27341 0.90553 0.77827 0.0
C649 C 0.31386 0.85912 0.7571 0.0
N650 N 0.31067 0.91346 0.82187 0.0
N651 N 0.26847 0.83974 0.72713 0.0
H652 H 0.36083 0.84175 0.74757 0.0
H653 H 0.33078 0.83063 0.72098 0.0
H654 H 0.24443 0.84004 0.71904 0.0
H655 H 0.28063 0.8201 0.72235 0.0
H656 H 0.29477 0.92793 0.83314 0.0
H657 H 0.33171 0.90901 0.83482 0.0
H658 H 0.26497 0.94729 0.79918 0.0
H659 H 0.2335 0.93505 0.77465 0.0
C660 C 0.72679 0.4133 0.78302 0.0
C661 C 0.75766 0.39929 0.77955 0.0
C662 C 0.73069 0.35766 0.75318 0.0
C663 C 0.70041 0.37298 0.75399 0.0
N664 N 0.67173 0.41858 0.76294 0.0
N665 N 0.78982 0.36124 0.75487 0.0
C666 C 0.69911 0.40179 0.76686 0.0
C667 C 0.75985 0.37239 0.76264 0.0
N668 N 0.72324 0.43651 0.80321 0.0
N669 N 0.73154 0.32855 0.74509 0.0
H670 H 0.81171 0.37179 0.76062 0.0
H671 H 0.79285 0.34326 0.73993 0.0
H672 H 0.71076 0.3165 0.73905 0.0
H673 H 0.75239 0.31561 0.74744 0.0
H674 H 0.70055 0.44541 0.80903 0.0
H675 H 0.74232 0.44495 0.81673 0.0
H676 H 0.67071 0.44075 0.76911 0.0
H677 H 0.65129 0.41129 0.75049 0.0
C678 C 0.82967 0.63725 0.2732 0.0
C679 C 0.82559 0.63617 0.24011 0.0
C680 C 0.77176 0.6129 0.24765 0.0
C681 C 0.77412 0.61775 0.28055 0.0
N682 N 0.80275 0.64143 0.32352 0.0
N683 N 0.78953 0.62819 0.19588 0.0
C684 C 0.80241 0.63176 0.29308 0.0
C685 C 0.7958 0.6253 0.22726 0.0
N686 N 0.85984 0.64267 0.28579 0.0
N687 N 0.74718 0.59574 0.23585 0.0
H688 H 0.80574 0.63813 0.18022 0.0
H689 H 0.76683 0.62343 0.18596 0.0
H690 H 0.72958 0.58571 0.25003 0.0
H691 H 0.74622 0.58907 0.21242 0.0
H692 H 0.86471 0.64091 0.30975 0.0
H693 H 0.88077 0.64567 0.27209 0.0
H694 H 0.82151 0.65443 0.33267 0.0
H695 H 0.78278 0.63952 0.33862 0.0
C696 C 0.31358 0.2349 0.11711 0.0
C697 C 0.29692 0.20902 0.10765 0.0
C698 C 0.25539 0.23865 0.08107 0.0
C699 C 0.27067 0.26449 0.09257 0.0
N700 N 0.31115 0.28778 0.12504 0.0
N701 N 0.24979 0.18561 0.08497 0.0
C702 C 0.29897 0.26277 0.11159 0.0
C703 C 0.26717 0.21072 0.09077 0.0
N704 N 0.34386 0.23272 0.13042 0.0
N705 N 0.23025 0.24098 0.06013 0.0
H706 H 0.25783 0.16493 0.09214 0.0
H707 H 0.22635 0.18545 0.07544 0.0
H708 H 0.22139 0.26123 0.05249 0.0
H709 H 0.21997 0.22307 0.04846 0.0
H710 H 0.35878 0.25077 0.1352 0.0
H711 H 0.35519 0.21254 0.13441 0.0
H712 H 0.32982 0.28785 0.14166 0.0
H713 H 0.30075 0.30841 0.12132 0.0
C714 C 0.80591 0.30218 0.94015 0.0
C715 C 0.80187 0.31305 0.90922 0.0
C716 C 0.75671 0.27834 0.9011 0.0
C717 C 0.76351 0.26511 0.93055 0.0
N718 N 0.79978 0.26035 0.97474 0.0
N719 N 0.77923 0.30565 0.85741 0.0
C720 C 0.78974 0.27583 0.94908 0.0
C721 C 0.77894 0.29945 0.88878 0.0
N722 N 0.82408 0.31767 0.9614 0.0
N723 N 0.7283 0.27208 0.88562 0.0
H724 H 0.79659 0.31947 0.84717 0.0
H725 H 0.76474 0.2944 0.84119 0.0
H726 H 0.71026 0.25837 0.89487 0.0
H727 H 0.72109 0.2831 0.86534 0.0
H728 H 0.82546 0.31204 0.98509 0.0
H729 H 0.83484 0.33787 0.95608 0.0
H730 H 0.82061 0.26585 0.98759 0.0
H731 H 0.78935 0.24024 0.98102 0.0
C732 C 0.73114 0.75544 0.42535 0.0
C733 C 0.76424 0.7598 0.41648 0.0
C734 C 0.75959 0.71921 0.37869 0.0
C735 C 0.7276 0.71307 0.38992 0.0
N736 N 0.68646 0.72065 0.42958 0.0
N737 N 0.81239 0.74056 0.39091 0.0
C738 C 0.71453 0.72973 0.41512 0.0
C739 C 0.77926 0.74007 0.39499 0.0
N740 N 0.71498 0.77657 0.44205 0.0
N741 N 0.77057 0.70652 0.35158 0.0
H742 H 0.8277 0.75438 0.40384 0.0
H743 H 0.82483 0.72502 0.37741 0.0
H744 H 0.75621 0.69247 0.338 0.0
H745 H 0.79262 0.71238 0.34093 0.0
H746 H 0.68997 0.77558 0.4467 0.0
H747 H 0.72573 0.79658 0.4482 0.0
H748 H 0.67725 0.73062 0.44981 0.0
H749 H 0.6745 0.70121 0.42331 0.0
C750 C 0.25736 0.82089 0.59536 0.0
C751 C 0.23273 0.82302 0.61867 0.0
C752 C 0.23712 0.77024 0.62922 0.0
C753 C 0.2597 0.76772 0.60416 0.0
N754 N 0.28966 0.78914 0.56138 0.0
N755 N 0.19587 0.79997 0.65521 0.0
C756 C 0.26945 0.7927 0.58668 0.0
C757 C 0.22181 0.79774 0.63507 0.0
N758 N 0.26961 0.846 0.58226 0.0
N759 N 0.23085 0.74629 0.64761 0.0
H760 H 0.1839 0.81981 0.6595 0.0
H761 H 0.1846 0.78199 0.66579 0.0
H762 H 0.24151 0.72582 0.64337 0.0
H763 H 0.21712 0.74712 0.66821 0.0
H764 H 0.28962 0.84646 0.56711 0.0
H765 H 0.26107 0.86685 0.58842 0.0
H766 H 0.29539 0.80587 0.54563 0.0
H767 H 0.29923 0.76871 0.55502 0.0
C768 C 0.85578 0.74704 0.80646 0.0
C769 C 0.87313 0.73146 0.83008 0.0
C770 C 0.92476 0.7505 0.80853 0.0
C771 C 0.90759 0.76248 0.78266 0.0
N772 N 0.85737 0.76604 0.75345 0.0
N773 N 0.92494 0.71438 0.85028 0.0
C774 C 0.87323 0.75906 0.78062 0.0
C775 C 0.90791 0.73215 0.83032 0.0
N776 N 0.82286 0.75159 0.80928 0.0
N777 N 0.95697 0.75741 0.81275 0.0
H778 H 0.91363 0.6999 0.86587 0.0
H779 H 0.95026 0.71192 0.84921 0.0
H780 H 0.96967 0.77139 0.79759 0.0
H781 H 0.97006 0.75167 0.83279 0.0
H782 H 0.8098 0.76518 0.79413 0.0
H783 H 0.8093 0.7447 0.82871 0.0
H784 H 0.83267 0.76149 0.74974 0.0
H785 H 0.86964 0.77334 0.73343 0.0
C786 C 0.61331 0.28584 0.30685 0.0
C787 C 0.63108 0.27069 0.28327 0.0
C788 C 0.68226 0.28205 0.31064 0.0
C789 C 0.66492 0.30034 0.33211 0.0
N790 N 0.61412 0.32355 0.34718 0.0
N791 N 0.6828 0.25955 0.25902 0.0
C792 C 0.63041 0.30325 0.32937 0.0
C793 C 0.66568 0.27021 0.28414 0.0
N794 N 0.5801 0.28285 0.30823 0.0
N795 N 0.71418 0.27484 0.31617 0.0
H796 H 0.67142 0.25191 0.23866 0.0
H797 H 0.70816 0.26117 0.25706 0.0
H798 H 0.72703 0.28201 0.33589 0.0
H799 H 0.72682 0.2592 0.303 0.0
H800 H 0.56597 0.29096 0.32669 0.0
H801 H 0.56707 0.2698 0.29238 0.0
H802 H 0.58953 0.32864 0.34388 0.0
H803 H 0.62579 0.33735 0.36325 0.0
C804 C 0.37527 0.76629 0.24282 0.0
C805 C 0.40857 0.75883 0.23843 0.0
C806 C 0.4091 0.78624 0.18878 0.0
C807 C 0.3749 0.79114 0.19174 0.0
N808 N 0.32412 0.77827 0.21766 0.0
N809 N 0.4554 0.75631 0.20427 0.0
C810 C 0.35756 0.77896 0.21764 0.0
C811 C 0.425 0.76724 0.21049 0.0
N812 N 0.36091 0.76252 0.27152 0.0
N813 N 0.42674 0.80066 0.16626 0.0
H814 H 0.4672 0.74172 0.21934 0.0
H815 H 0.46739 0.75937 0.18289 0.0
H816 H 0.41627 0.8154 0.15049 0.0
H817 H 0.45219 0.80013 0.16514 0.0
H818 H 0.33748 0.77009 0.27678 0.0
H819 H 0.37364 0.75472 0.29099 0.0
H820 H 0.31051 0.76708 0.2346 0.0
H821 H 0.31011 0.78584 0.19891 0.0
C822 C 0.11133 0.24674 0.67957 0.0
C823 C 0.14534 0.24111 0.68297 0.0
C824 C 0.14443 0.26521 0.73458 0.0
C825 C 0.11144 0.27343 0.72981 0.0
N826 N 0.06551 0.27748 0.69486 0.0
N827 N 0.19582 0.25278 0.70994 0.0
C828 C 0.09545 0.26578 0.7014 0.0
C829 C 0.16239 0.25263 0.70939 0.0
N830 N 0.09382 0.23295 0.6565 0.0
N831 N 0.15822 0.26815 0.76361 0.0
H832 H 0.21006 0.24534 0.6912 0.0
H833 H 0.20929 0.26346 0.72736 0.0
H834 H 0.14523 0.27584 0.78305 0.0
H835 H 0.18135 0.26002 0.76906 0.0
H836 H 0.06841 0.23403 0.65501 0.0
H837 H 0.10423 0.21819 0.64062 0.0
H838 H 0.05395 0.27496 0.67321 0.0
H839 H 0.05377 0.29214 0.70999 0.0
C840 C 0.78804 0.87693 0.74406 0.0
C841 C 0.78817 0.90667 0.75402 0.0
C842 C 0.84387 0.91262 0.73301 0.0
C843 C 0.84447 0.88226 0.72507 0.0
N844 N 0.82049 0.83404 0.73173 0.0
N845 N 0.81859 0.9509 0.76459 0.0
C846 C 0.81755 0.86395 0.73324 0.0
C847 C 0.81686 0.92397 0.75046 0.0
N848 N 0.75939 0.86145 0.74342 0.0
N849 N 0.86822 0.93088 0.72277 0.0
H850 H 0.79954 0.95933 0.77823 0.0
H851 H 0.8399 0.96348 0.76539 0.0
H852 H 0.88818 0.92352 0.70969 0.0
H853 H 0.86723 0.95368 0.72502 0.0
H854 H 0.75735 0.84054 0.73353 0.0
H855 H 0.73697 0.87064 0.74971 0.0
H856 H 0.80271 0.81968 0.74031 0.0
H857 H 0.84218 0.82361 0.72523 0.0
C858 C 0.69725 0.15897 0.24655 0.0
C859 C 0.6696 0.14019 0.25087 0.0
C860 C 0.7058 0.10098 0.2702 0.0
C861 C 0.73293 0.12017 0.26706 0.0
N862 N 0.75519 0.1678 0.25573 0.0
N863 N 0.64674 0.09418 0.26859 0.0
C864 C 0.7288 0.14927 0.25614 0.0
C865 C 0.67366 0.11142 0.26332 0.0
N866 N 0.69347 0.18602 0.23302 0.0
N867 N 0.71116 0.07261 0.27932 0.0
H868 H 0.62315 0.10041 0.26215 0.0
H869 H 0.64731 0.0742 0.28043 0.0
H870 H 0.73435 0.06495 0.2854 0.0
H871 H 0.69333 0.05626 0.27951 0.0
H872 H 0.71283 0.19922 0.22567 0.0
H873 H 0.67086 0.19504 0.22746 0.0
H874 H 0.75368 0.19035 0.25194 0.0
H875 H 0.77882 0.16086 0.26111 0.0
C876 C 0.33561 0.61502 0.29827 0.0
C877 C 0.33867 0.64611 0.30075 0.0
C878 C 0.28292 0.65159 0.28052 0.0
C879 C 0.28128 0.621 0.27474 0.0
N880 N 0.30832 0.57416 0.27243 0.0
N881 N 0.31809 0.69397 0.28577 0.0
C882 C 0.30834 0.60284 0.28195 0.0
C883 C 0.31314 0.66444 0.28942 0.0
N884 N 0.35767 0.59706 0.31275 0.0
N885 N 0.25523 0.66823 0.27887 0.0
H886 H 0.34047 0.70417 0.29021 0.0
H887 H 0.30118 0.70769 0.27485 0.0
H888 H 0.23232 0.65917 0.27402 0.0
H889 H 0.25449 0.69026 0.28566 0.0
H890 H 0.35468 0.57435 0.31423 0.0
H891 H 0.37727 0.60497 0.32595 0.0
H892 H 0.32867 0.56053 0.2743 0.0
H893 H 0.28893 0.56487 0.25993 0.0
C894 C 0.23924 0.37575 0.77624 0.0
C895 C 0.24242 0.40634 0.77117 0.0
C896 C 0.18753 0.41385 0.79323 0.0
C897 C 0.183 0.38285 0.79489 0.0
N898 N 0.20208 0.33459 0.77918 0.0
N899 N 0.21721 0.45401 0.76871 0.0
C900 C 0.20815 0.36384 0.78383 0.0
C901 C 0.21581 0.42528 0.77785 0.0
N902 N 0.26624 0.35817 0.77518 0.0
N903 N 0.1659 0.43239 0.80761 0.0
H904 H 0.23726 0.46275 0.75671 0.0
H905 H 0.19731 0.46822 0.77025 0.0
H906 H 0.14566 0.42503 0.82028 0.0
H907 H 0.16988 0.45496 0.80964 0.0
H908 H 0.26572 0.33603 0.7815 0.0
H909 H 0.28972 0.36645 0.77138 0.0
H910 H 0.21881 0.32051 0.76842 0.0
H911 H 0.17911 0.32514 0.78255 0.0
C912 C 0.75407 0.81969 0.91934 0.0
C913 C 0.75219 0.79527 0.89876 0.0
C914 C 0.73035 0.82681 0.85711 0.0
C915 C 0.73024 0.85111 0.87837 0.0
N916 N 0.73674 0.86952 0.93121 0.0
N917 N 0.73446 0.77387 0.85015 0.0
C918 C 0.74073 0.84723 0.90993 0.0
C919 C 0.73911 0.79838 0.86823 0.0
N920 N 0.76939 0.81653 0.94762 0.0
N921 N 0.72369 0.83103 0.82596 0.0
H922 H 0.7413 0.75291 0.85755 0.0
H923 H 0.72167 0.77389 0.82901 0.0
H924 H 0.71665 0.85116 0.8166 0.0
H925 H 0.72745 0.81505 0.80878 0.0
H926 H 0.7748 0.83403 0.96257 0.0
H927 H 0.77898 0.79648 0.95508 0.0
H928 H 0.74092 0.86721 0.9552 0.0
H929 H 0.72639 0.88972 0.92534 0.0
C930 C 0.20929 0.69246 0.129 0.0
C931 C 0.20918 0.68973 0.16228 0.0
C932 C 0.23728 0.73729 0.16677 0.0
C933 C 0.24013 0.73866 0.13367 0.0
N934 N 0.23482 0.71493 0.08342 0.0
N935 N 0.23104 0.706 0.21218 0.0
C936 C 0.22787 0.71543 0.1148 0.0
C937 C 0.2255 0.71113 0.18101 0.0
N938 N 0.19054 0.67408 0.11102 0.0
N939 N 0.24444 0.76147 0.18459 0.0
H940 H 0.2242 0.68651 0.22325 0.0
H941 H 0.24563 0.71959 0.22609 0.0
H942 H 0.25168 0.78145 0.17479 0.0
H943 H 0.2399 0.76259 0.20866 0.0
H944 H 0.18715 0.67702 0.08698 0.0
H945 H 0.17593 0.6575 0.1205 0.0
H946 H 0.22931 0.69714 0.06887 0.0
H947 H 0.24896 0.73114 0.07258 0.0
C948 C 0.31445 0.3371 0.62465 0.0
C949 C 0.31421 0.33882 0.65801 0.0
C950 C 0.28466 0.29186 0.66037 0.0
C951 C 0.28208 0.29161 0.62722 0.0
N952 N 0.28848 0.31695 0.57806 0.0
N953 N 0.29078 0.32173 0.70695 0.0
C954 C 0.29521 0.31516 0.6094 0.0
C955 C 0.29687 0.31733 0.67571 0.0
N956 N 0.33414 0.35537 0.60752 0.0
N957 N 0.2769 0.26727 0.67718 0.0
H958 H 0.29776 0.34079 0.71883 0.0
H959 H 0.27554 0.30804 0.72011 0.0
H960 H 0.26953 0.24766 0.66657 0.0
H961 H 0.28118 0.26539 0.70123 0.0
H962 H 0.33769 0.35303 0.58339 0.0
H963 H 0.34937 0.37112 0.61773 0.0
H964 H 0.29472 0.33508 0.56435 0.0
H965 H 0.2738 0.30157 0.5665 0.0
C966 C 0.78876 0.22981 0.37299 0.0
C967 C 0.77978 0.23425 0.40474 0.0
C968 C 0.79415 0.18315 0.41678 0.0
C969 C 0.80014 0.17786 0.38435 0.0
N970 N 0.79653 0.19504 0.33061 0.0
N971 N 0.76842 0.21447 0.45589 0.0
C972 C 0.79574 0.20091 0.36213 0.0
C973 C 0.78096 0.2107 0.4264 0.0
N974 N 0.79156 0.25346 0.35344 0.0
N975 N 0.80224 0.16232 0.43852 0.0
H976 H 0.75822 0.23431 0.46336 0.0
H977 H 0.76544 0.19735 0.47187 0.0
H978 H 0.81264 0.14215 0.43247 0.0
H979 H 0.8015 0.16606 0.46266 0.0
H980 H 0.80126 0.25214 0.33083 0.0
H981 H 0.78696 0.27493 0.3609 0.0
H982 H 0.78978 0.21029 0.31359 0.0
H983 H 0.80087 0.1742 0.32136 0.0
C984 C 0.20058 0.19267 0.48194 0.0
C985 C 0.17525 0.19053 0.50484 0.0
C986 C 0.13419 0.1976 0.46333 0.0
C987 C 0.15946 0.19803 0.44055 0.0
N988 N 0.21555 0.18963 0.42681 0.0
N989 N 0.11776 0.18537 0.51661 0.0
C990 C 0.1923 0.19341 0.44954 0.0
C991 C 0.14192 0.19138 0.49532 0.0
N992 N 0.23243 0.19599 0.49112 0.0
N993 N 0.103 0.20423 0.45444 0.0
H994 H 0.12256 0.18034 0.54006 0.0
H995 H 0.09325 0.18288 0.5105 0.0
H996 H 0.09674 0.20831 0.43109 0.0
H997 H 0.08391 0.20754 0.47029 0.0
H998 H 0.25141 0.20069 0.47555 0.0
H999 H 0.23962 0.19708 0.51457 0.0
H1000 H 0.23949 0.18328 0.4316 0.0
H1001 H 0.20993 0.19008 0.4029 0.0
C1002 C 0.32299 0.8271 0.98941 0.0
C1003 C 0.3466 0.83534 0.01236 0.0
C1004 C 0.39003 0.83155 0.97249 0.0
C1005 C 0.36616 0.82497 0.94946 0.0
N1006 N 0.30989 0.82216 0.934 0.0
N1007 N 0.40169 0.85055 0.02469 0.0
C1008 C 0.33258 0.82466 0.95738 0.0
C1009 C 0.37993 0.83905 1.0036 0.0
N1010 N 0.29188 0.81979 0.99841 0.0
N1011 N 0.42238 0.8296 0.96476 0.0
H1012 H 0.39505 0.85656 0.0475 0.0
H1013 H 0.42556 0.85644 0.01887 0.0
H1014 H 0.43025 0.8247 0.942 0.0
H1015 H 0.44124 0.8309 0.98113 0.0
H1016 H 0.27466 0.81071 0.9832 0.0
H1017 H 0.28403 0.82009 0.02173 0.0
H1018 H 0.28485 0.82472 0.93764 0.0
H1019 H 0.31646 0.82021 0.91038 0.0
C1020 C 0.65033 0.34287 0.52441 0.0
C1021 C 0.68303 0.33626 0.51546 0.0
C1022 C 0.69497 0.32062 0.56943 0.0
C1023 C 0.66166 0.32429 0.57744 0.0
N1024 N 0.60663 0.33592 0.56262 0.0
N1025 N 0.73488 0.31373 0.52806 0.0
C1026 C 0.63905 0.33472 0.55494 0.0
C1027 C 0.70503 0.32392 0.53766 0.0
N1028 N 0.63046 0.35772 0.50413 0.0
N1029 N 0.71701 0.31426 0.59251 0.0
H1030 H 0.74281 0.31458 0.50479 0.0
H1031 H 0.75052 0.30178 0.54248 0.0
H1032 H 0.71014 0.3117 0.61598 0.0
H1033 H 0.74223 0.31422 0.58896 0.0
H1034 H 0.6075 0.36574 0.51031 0.0
H1035 H 0.63799 0.36411 0.48172 0.0
H1036 H 0.58819 0.3403 0.54645 0.0
H1037 H 0.59802 0.3306 0.585 0.0
C1038 C 0.85142 0.67252 0.06493 0.0
C1039 C 0.859 0.7008 0.07696 0.0
C1040 C 0.85242 0.72199 0.02438 0.0
C1041 C 0.84645 0.69341 0.01191 0.0
N1042 N 0.84836 0.64083 0.0191 0.0
N1043 N 0.87461 0.75087 0.06746 0.0
C1044 C 0.84852 0.66844 0.03185 0.0
C1045 C 0.86214 0.72499 0.05633 0.0
N1046 N 0.8452 0.64993 0.08517 0.0
N1047 N 0.84661 0.74644 1.0066 0.0
H1048 H 0.88215 0.7534 0.09074 0.0
H1049 H 0.88047 0.76861 0.05304 0.0
H1050 H 0.83819 0.74558 0.98353 0.0
H1051 H 0.84717 0.76772 0.0157 0.0
H1052 H 0.83607 0.6296 0.07796 0.0
H1053 H 0.8465 0.6523 0.1095 0.0
H1054 H 0.8528 0.6219 0.03214 0.0
H1055 H 0.84713 0.63708 0.99492 0.0
C1056 C 0.45827 0.10705 0.21811 0.0
C1057 C 0.43542 0.12726 0.20538 0.0
C1058 C 0.48079 0.15753 0.18538 0.0
C1059 C 0.50361 0.13886 0.20062 0.0
N1060 N 0.51388 0.09839 0.23576 0.0
N1061 N 0.42484 0.17477 0.1824 0.0
C1062 C 0.4923 0.11425 0.21813 0.0
C1063 C 0.44667 0.15336 0.19054 0.0
N1064 N 0.44761 0.08048 0.22913 0.0
N1065 N 0.49158 0.17848 0.16479 0.0
H1066 H 0.39971 0.17289 0.18625 0.0
H1067 H 0.43189 0.19557 0.17468 0.0
H1068 H 0.51626 0.18186 0.15966 0.0
H1069 H 0.47599 0.19054 0.15042 0.0
H1070 H 0.46331 0.06349 0.23544 0.0
H1071 H 0.42298 0.07445 0.2295 0.0
H1072 H 0.5067 0.08222 0.25164 0.0
H1073 H 0.53885 0.10311 0.2366 0.0
C1074 C 0.05189 0.86136 0.68556 0.0
C1075 C 0.03439 0.87316 0.71154 0.0
C1076 C 0.08489 0.89725 0.73011 0.0
C1077 C 0.10167 0.88696 0.703 0.0
N1078 N 0.09841 0.86635 0.65078 0.0
N1079 N 0.03253 0.9073 0.75494 0.0
C1080 C 0.08428 0.87124 0.67945 0.0
C1081 C 0.0504 0.89263 0.73276 0.0
N1082 N 0.03853 0.83935 0.66772 0.0
N1083 N 0.10201 0.9102 0.75399 0.0
H1084 H 1.00725 0.90481 0.7572 0.0
H1085 H 0.04217 0.92394 0.76904 0.0
H1086 H 0.12716 0.91396 0.75293 0.0
H1087 H 0.09177 0.91513 0.7758 0.0
H1088 H 0.05173 0.82784 0.65073 0.0
H1089 H 0.01548 0.83035 0.67193 0.0
H1090 H 0.08569 0.85761 0.63171 0.0
H1091 H 0.12169 0.87403 0.645 0.0
C1092 C 0.99014 0.42369 0.80277 0.0
C1093 C 0.99555 0.39488 0.7909 0.0
C1094 C 0.9364 0.38884 0.7829 0.0
C1095 C 0.93073 0.41586 0.79868 0.0
N1096 N 0.95198 0.45793 0.82668 0.0
N1097 N 0.97333 0.34811 0.77411 0.0
C1098 C 0.95755 0.43319 0.80919 0.0
C1099 C 0.96857 0.377 0.78187 0.0
N1100 N 0.01612 0.44221 0.80723 0.0
N1101 N 0.911 0.3747 0.76839 0.0
H1102 H 0.99628 0.33817 0.77381 0.0
H1103 H 0.95424 0.33321 0.77083 0.0
H1104 H 0.88719 0.38295 0.76836 0.0
H1105 H 0.91409 0.35649 0.75379 0.0
H1106 H 0.01361 0.46441 0.81274 0.0
H1107 H 0.04022 0.43601 0.80263 0.0
H1108 H 0.97042 0.46954 0.83818 0.0
H1109 H 0.92857 0.46576 0.83166 0.0
C1110 C 0.5433 0.63417 0.27904 0.0
C1111 C 0.51855 0.62664 0.30114 0.0
C1112 C 0.55895 0.59939 0.33206 0.0
C1113 C 0.58308 0.60477 0.3086 0.0
N1114 N 0.59582 0.62152 0.25624 0.0
N1115 N 0.50118 0.5957 0.34405 0.0
C1116 C 0.57447 0.62037 0.28096 0.0
C1117 C 0.52588 0.60722 0.32619 0.0
N1118 N 0.53785 0.65571 0.25732 0.0
N1119 N 0.56771 0.58867 0.36083 0.0
H1120 H 0.47655 0.60031 0.33997 0.0
H1121 H 0.50489 0.57919 0.3606 0.0
H1122 H 0.59177 0.58407 0.36712 0.0
H1123 H 0.55149 0.58735 0.3797 0.0
H1124 H 0.55623 0.66422 0.24297 0.0
H1125 H 0.51587 0.66716 0.25565 0.0
H1126 H 0.58962 0.63014 0.23439 0.0
H1127 H 0.61854 0.61112 0.25654 0.0
C1128 C 0.1907 0.46698 0.16879 0.0
C1129 C 0.18329 0.46359 0.13655 0.0
C1130 C 0.16005 0.51331 0.13537 0.0
C1131 C 0.17064 0.51783 0.16681 0.0
N1132 N 0.20051 0.5005 0.2121 0.0
N1133 N 0.16369 0.48344 0.08798 0.0
C1134 C 0.18691 0.49497 0.18332 0.0
C1135 C 0.16857 0.48673 0.11953 0.0
N1136 N 0.20128 0.44319 0.18544 0.0
N1137 N 0.14107 0.53402 0.12104 0.0
H1138 H 0.16896 0.46386 0.07617 0.0
H1139 H 0.15638 0.50044 0.07326 0.0
H1140 H 0.13422 0.5536 0.13204 0.0
H1141 H 0.12994 0.53089 0.0993 0.0
H1142 H 0.20397 0.44317 0.20976 0.0
H1143 H 0.20468 0.42259 0.17509 0.0
H1144 H 0.2156 0.48572 0.22377 0.0
H1145 H 0.19924 0.52091 0.22324 0.0
C1146 C 0.71176 1.00928 0.90517 0.0
C1147 C 0.70222 1.00365 0.87366 0.0
C1148 C 0.69195 0.05646 0.86569 0.0
C1149 C 0.70435 0.0623 0.89616 0.0
N1150 N 0.72615 0.04548 0.94516 0.0
N1151 N 0.68387 0.02121 0.8233 0.0
C1152 C 0.71407 0.03894 0.91605 0.0
C1153 C 0.69202 0.02705 0.85386 0.0
N1154 N 0.71807 0.98612 0.92468 0.0
N1155 N 0.68044 0.07927 0.84805 0.0
H1156 H 0.68264 0.99994 0.81417 0.0
H1157 H 0.67966 0.03725 0.80642 0.0
H1158 H 0.6818 0.10111 0.85545 0.0
H1159 H 0.66801 0.07672 0.82691 0.0
H1160 H 0.72272 0.98818 0.9486 0.0
H1161 H 0.71653 0.96426 0.91725 0.0
H1162 H 0.73691 0.03021 0.96006 0.0
H1163 H 0.72643 0.06687 0.95411 0.0
C1164 C 0.81647 0.01449 0.38259 0.0
C1165 C 0.84335 0.0205 0.36227 0.0
C1166 C 0.85872 0.96834 0.36363 0.0
C1167 C 0.83313 0.96266 0.38532 0.0
N1168 N 0.79306 0.98146 0.4214 0.0
N1169 N 0.89534 1.00468 0.34135 0.0
C1170 C 0.81379 0.9862 0.39674 0.0
C1171 C 0.86619 0.99788 0.35536 0.0
N1172 N 0.79234 0.03487 0.38686 0.0
N1173 N 0.87457 0.94553 0.34933 0.0
H1174 H 0.90215 0.02625 0.33605 0.0
H1175 H 0.91408 0.98944 0.33829 0.0
H1176 H 0.8687 0.92356 0.35347 0.0
H1177 H 0.89117 0.94845 0.33098 0.0
H1178 H 0.77057 0.0303 0.39865 0.0
H1179 H 0.79256 0.05552 0.37634 0.0
H1180 H 0.78045 0.9983 0.43278 0.0
H1181 H 0.79113 0.96105 0.43244 0.0
C1182 C 0.33664 0.52405 0.67376 0.0
C1183 C 0.33025 0.50112 0.65178 0.0
C1184 C 0.32104 0.53767 0.61033 0.0
C1185 C 0.32765 0.56039 0.63219 0.0
N1186 N 0.34722 0.57609 0.68259 0.0
N1187 N 0.32262 0.48544 0.59817 0.0
C1188 C 0.33748 0.55375 0.66321 0.0
C1189 C 0.32435 0.50776 0.61969 0.0
N1190 N 0.33979 0.51764 0.705 0.0
N1191 N 0.31058 0.54493 0.58089 0.0
H1192 H 0.3252 0.46336 0.60431 0.0
H1193 H 0.32128 0.48876 0.57401 0.0
H1194 H 0.30934 0.5667 0.57324 0.0
H1195 H 0.30169 0.52975 0.56467 0.0
H1196 H 0.34083 0.53351 0.72263 0.0
H1197 H 0.33899 0.49629 0.71383 0.0
H1198 H 0.35787 0.57281 0.7045 0.0
H1199 H 0.34695 0.59807 0.67563 0.0
C1200 C 0.92718 0.8279 0.51782 0.0
C1201 C 0.89785 0.8416 0.50773 0.0
C1202 C 0.88629 0.85643 0.56236 0.0
C1203 C 0.91259 0.83876 0.57264 0.0
N1204 N 0.95879 0.80819 0.56133 0.0
N1205 N 0.84879 0.869 0.52052 0.0
C1206 C 0.93351 0.82495 0.55059 0.0
C1207 C 0.87758 0.85655 0.52992 0.0
N1208 N 0.94911 0.81814 0.49589 0.0
N1209 N 0.86928 0.87265 0.58392 0.0
H1210 H 0.84156 0.87062 0.49718 0.0
H1211 H 0.8309 0.87648 0.53598 0.0
H1212 H 0.87417 0.87181 0.60794 0.0
H1213 H 0.85212 0.88857 0.578 0.0
H1214 H 0.97217 0.80999 0.50135 0.0
H1215 H 0.94529 0.82064 0.47179 0.0
H1216 H 0.97298 0.79464 0.54707 0.0
H1217 H 0.96472 0.807 0.58515 0.0
C1218 C 0.61644 0.15381 0.02928 0.0
C1219 C 0.61274 0.1782 1.00876 0.0
C1220 C 0.5946 0.20813 0.0536 0.0
C1221 C 0.60434 0.18565 0.07444 0.0
N1222 N 0.62708 0.13752 0.08252 0.0
N1223 N 0.60234 0.23038 1.00268 0.0
C1224 C 0.61548 0.15837 0.06242 0.0
C1225 C 0.60229 0.20578 0.02109 0.0
N1226 N 0.62067 0.12628 0.01702 0.0
N1227 N 0.5784 0.232 0.06526 0.0
H1228 H 0.60932 0.23044 0.97915 0.0
H1229 H 0.59846 0.25145 1.01156 0.0
H1230 H 0.57257 0.23396 0.08908 0.0
H1231 H 0.56794 0.24806 0.05105 0.0
H1232 H 0.62065 0.10728 0.03065 0.0
H1233 H 0.62088 0.12223 0.99286 0.0
H1234 H 0.63898 0.11852 0.07502 0.0
H1235 H 0.62696 0.14023 0.10684 0.0
C1236 C 0.41572 0.66562 0.46946 0.0
C1237 C 0.39607 0.67846 0.44585 0.0
C1238 C 0.34997 0.68157 0.48253 0.0
C1239 C 0.36888 0.66693 0.50574 0.0
N1240 N 0.41813 0.64123 0.52017 0.0
N1241 N 0.34352 0.69412 0.42747 0.0
C1242 C 0.40139 0.65791 0.49891 0.0
C1243 C 0.36282 0.68496 0.45169 0.0
N1244 N 0.4483 0.66161 0.46383 0.0
N1245 N 0.32049 0.69375 0.49041 0.0
H1246 H 0.35254 0.69711 0.40474 0.0
H1247 H 0.31822 0.69632 0.42919 0.0
H1248 H 0.31059 0.69268 0.51297 0.0
H1249 H 0.30721 0.7073 0.47546 0.0
H1250 H 0.46498 0.65527 0.48096 0.0
H1251 H 0.45902 0.6665 0.44217 0.0
H1252 H 0.44064 0.63152 0.51545 0.0
H1253 H 0.40834 0.63521 0.54189 0.0
C1254 C 0.11739 0.36883 0.99286 0.0
C1255 C 0.15087 0.36174 0.99762 0.0
C1256 C 0.15494 0.34367 0.94318 0.0
C1257 C 0.12193 0.35166 0.93822 0.0
N1258 N 0.07224 0.37404 0.95592 0.0
N1259 N 0.20248 0.34414 0.97729 0.0
C1260 C 0.10329 0.36486 0.96247 0.0
C1261 C 0.16998 0.34979 0.97267 0.0
N1262 N 0.09914 0.37918 0.01747 0.0
N1263 N 0.17136 0.32914 0.91984 0.0
H1264 H 0.21382 0.34586 0.99913 0.0
H1265 H 0.21877 0.33881 0.95937 0.0
H1266 H 0.16106 0.32506 0.89784 0.0
H1267 H 0.19434 0.31973 0.92249 0.0
H1268 H 0.07395 0.38218 0.01672 0.0
H1269 H 0.10905 0.3837 0.03954 0.0
H1270 H 0.05769 0.38607 0.97133 0.0
H1271 H 0.06154 0.37101 0.9339 0.0
C1272 C 0.55374 0.85779 0.80953 0.0
C1273 C 0.55756 0.88873 0.80978 0.0
C1274 C 0.49774 0.8948 0.81003 0.0
C1275 C 0.49395 0.86374 0.81045 0.0
N1276 N 0.51801 0.81597 0.81848 0.0
N1277 N 0.53436 0.93674 0.81613 0.0
C1278 C 0.52191 0.84532 0.81263 0.0
C1279 C 0.5298 0.90724 0.81193 0.0
N1280 N 0.58046 0.84035 0.80476 0.0
N1281 N 0.47089 0.9123 0.80634 0.0
H1282 H 0.55764 0.94614 0.81756 0.0
H1283 H 0.51547 0.95145 0.82073 0.0
H1284 H 0.44714 0.90395 0.80524 0.0
H1285 H 0.47219 0.93486 0.80241 0.0
H1286 H 0.579 0.81779 0.80075 0.0
H1287 H 0.60406 0.84883 0.80239 0.0
H1288 H 0.53739 0.80188 0.82338 0.0
H1289 H 0.49511 0.8062 0.82152 0.0
C1290 C 0.99876 0.10888 0.30839 0.0
C1291 C 0.97438 0.12891 0.31834 0.0
C1292 C 0.01688 0.16154 0.33967 0.0
C1293 C 0.04144 0.14335 0.32615 0.0
N1294 N 0.05571 0.10104 0.29462 0.0
N1295 N 0.95969 0.17584 0.34012 0.0
C1296 C 0.03241 0.11715 0.30996 0.0
C1297 C 0.98329 0.1556 0.33328 0.0
N1298 N 0.98948 0.0818 0.29766 0.0
N1299 N 0.02563 0.18396 0.35943 0.0
H1300 H 0.93493 0.17207 0.3358 0.0
H1301 H 0.96482 0.19713 0.34777 0.0
H1302 H 0.04991 0.18854 0.36525 0.0
H1303 H 1.00883 0.19617 0.37241 0.0
H1304 H 1.00587 0.06489 0.29281 0.0
H1305 H 0.96495 0.07548 0.29623 0.0
H1306 H 0.05028 0.08356 0.27966 0.0
H1307 H 0.08049 0.10653 0.29478 0.0
C1308 C 0.0444 0.66123 0.19561 0.0
C1309 C 0.05218 0.634 0.2098 0.0
C1310 C 0.99381 0.62427 0.21914 0.0
C1311 C 0.9864 0.65309 0.20866 0.0
N1312 N 1.00418 0.69963 0.18737 0.0
N1313 N 0.03561 0.58915 0.23467 0.0
C1314 C 1.0115 0.67156 0.19639 0.0
C1315 C 0.02712 0.61525 0.22113 0.0
N1316 N 0.06877 0.67739 0.18195 0.0
N1317 N 0.96884 0.60549 0.22668 0.0
H1318 H 0.05969 0.58154 0.23482 0.0
H1319 H 0.01934 0.57558 0.24668 0.0
H1320 H 0.94427 0.61151 0.22511 0.0
H1321 H 0.97208 0.5834 0.23215 0.0
H1322 H 0.06474 0.69598 0.16829 0.0
H1323 H 0.09325 0.67106 0.1825 0.0
H1324 H 0.02161 0.71549 0.18181 0.0
H1325 H 0.98041 0.70778 0.18693 0.0
C1326 C 0.47471 0.34845 0.70933 0.0
C1327 C 0.47018 0.37907 0.70592 0.0
C1328 C 0.52721 0.38457 0.68859 0.0
C1329 C 0.53251 0.35424 0.6947 0.0
N1330 N 0.51292 0.30845 0.71658 0.0
N1331 N 0.49206 0.42715 0.696 0.0
C1332 C 0.50664 0.33641 0.7065 0.0
C1333 C 0.49645 0.3974 0.69651 0.0
N1334 N 0.44819 0.33086 0.71481 0.0
N1335 N 0.5511 0.40081 0.67425 0.0
H1336 H 0.46957 0.43688 0.70116 0.0
H1337 H 0.51098 0.44218 0.6926 0.0
H1338 H 0.57382 0.39212 0.66808 0.0
H1339 H 0.54762 0.42221 0.66629 0.0
H1340 H 0.44911 0.30798 0.71432 0.0
H1341 H 0.42455 0.33923 0.7171 0.0
H1342 H 0.49583 0.29549 0.72834 0.0
H1343 H 0.53618 0.29911 0.71601 0.0
C1344 C 0.82781 0.56579 0.91332 0.0
C1345 C 0.82342 0.58446 0.88705 0.0
C1346 C 0.82226 0.54146 0.85196 0.0
C1347 C 0.82674 0.52277 0.87822 0.0
N1348 N 0.84102 0.51685 0.93244 0.0
N1349 N 0.82418 0.59123 0.8312 0.0
C1350 C 0.83201 0.53499 0.90846 0.0
C1351 C 0.82329 0.57255 0.85625 0.0
N1352 N 0.826 0.57731 0.94293 0.0
N1353 N 0.81498 0.5295 0.82335 0.0
H1354 H 0.82516 0.61403 0.83402 0.0
H1355 H 0.82695 0.58424 0.80803 0.0
H1356 H 0.81379 0.50687 0.81953 0.0
H1357 H 0.80793 0.54188 0.80397 0.0
H1358 H 0.82551 0.56458 0.96323 0.0
H1359 H 0.82281 0.59972 0.94716 0.0
H1360 H 0.84796 0.52436 0.95459 0.0
H1361 H 0.84431 0.49429 0.92914 0.0
C1362 C 0.33035 0.95027 0.16935 0.0
C1363 C 0.32595 0.93903 0.13859 0.0
C1364 C 0.32806 0.98916 0.11757 0.0
C1365 C 0.327 1.00042 0.1486 0.0
N1366 N 0.32617 0.99238 0.20437 0.0
N1367 N 0.31961 0.94713 0.08316 0.0
C1368 C 0.32852 0.98116 0.17466 0.0
C1369 C 0.32517 0.95829 0.11249 0.0
N1370 N 0.33602 0.9311 0.19336 0.0
N1371 N 0.33161 1.00829 0.09312 0.0
H1372 H 0.31751 0.92463 0.07882 0.0
H1373 H 0.31523 0.96009 0.06348 0.0
H1374 H 0.33375 0.03094 0.09663 0.0
H1375 H 0.33521 1.0017 0.06993 0.0
H1376 H 0.34203 0.93764 0.2161 0.0
H1377 H 0.33746 0.90843 0.18967 0.0
H1378 H 0.32358 0.97947 0.22439 0.0
H1379 H 0.32494 0.0149 0.20884 0.0
C1380 C 0.19848 0.05311 0.67336 0.0
C1381 C 0.19614 0.03292 0.64805 0.0
C1382 C 0.19301 0.07373 0.61057 0.0
C1383 C 0.19609 0.0939 0.63582 0.0
N1384 N 0.19322 0.10376 0.69109 0.0
N1385 N 0.18296 0.02324 0.59417 0.0
C1386 C 0.19578 0.08376 0.66725 0.0
C1387 C 0.19045 0.04313 0.61714 0.0
N1388 N 0.20552 0.04307 0.70279 0.0
N1389 N 0.19479 0.08368 0.58037 0.0
H1390 H 0.18098 1.00077 0.59881 0.0
H1391 H 0.17592 0.02913 0.57154 0.0
H1392 H 0.19677 0.10594 0.57487 0.0
H1393 H 0.19632 0.06989 0.56087 0.0
H1394 H 0.21114 0.0568 0.72164 0.0
H1395 H 0.20774 0.02077 0.70794 0.0
H1396 H 0.19022 0.09797 0.71458 0.0
H1397 H 0.19111 0.12628 0.68681 0.0
C1398 C 0.68867 0.46194 0.40899 0.0
C1399 C 0.70981 0.44561 0.3891 0.0
C1400 C 0.7229 0.4906 0.35978 0.0
C1401 C 0.70027 0.50656 0.37845 0.0
N1402 N 0.6554 0.50569 0.41504 0.0
N1403 N 0.7401 0.44273 0.34076 0.0
C1404 C 0.68115 0.4916 0.40124 0.0
C1405 C 0.72465 0.45949 0.36288 0.0
N1406 N 0.67736 0.44981 0.43625 0.0
N1407 N 0.74415 0.50522 0.34055 0.0
H1408 H 0.74084 0.41983 0.34211 0.0
H1409 H 0.74901 0.45123 0.31969 0.0
H1410 H 0.74472 0.52807 0.33881 0.0
H1411 H 0.76329 0.49489 0.32872 0.0
H1412 H 0.66457 0.46175 0.45318 0.0
H1413 H 0.68333 0.42858 0.44334 0.0
H1414 H 0.63878 0.49517 0.42985 0.0
H1415 H 0.64873 0.52707 0.40896 0.0
loop_
_geom_bond_atom_site_label_1
_geom_bond_atom_site_label_2
_geom_bond_distance
_geom_bond_site_symmetry_2
_ccdc_geom_bond_type
Cu0 N1 1.999 . S
Cu0 O6 1.974 . S
Cu0 N11 1.985 . S
Cu0 O20 1.959 . S
N1 Cu0 1.999 . S
N1 C3 1.263 . S
N1 C5 1.389 . S
N2 C3 1.358 . S
N2 C4 1.400 . S
C3 N1 1.263 . S
C3 N2 1.358 . S
C3 H9 0.930 . S
C4 N2 1.400 . S
C4 C5 1.351 . S
C4 H21 0.930 . S
C5 N1 1.389 . S
C5 C4 1.351 . S
C5 H10 0.930 . S
O6 Cu0 1.974 . S
O6 C16 1.282 . S
C7 O8 1.261 . S
C7 O20 1.251 . S
O8 C7 1.261 . S
H9 C3 0.930 . S
H10 C5 0.930 . S
N11 Cu0 1.985 . S
N11 C13 1.335 . S
N11 C14 1.390 . S
N12 C13 1.345 . S
N12 C15 1.336 . S
C13 N11 1.335 . S
C13 N12 1.345 . S
C13 H18 0.930 . S
C14 N11 1.390 . S
C14 C15 1.346 . S
C14 H19 0.930 . S
C15 N12 1.336 . S
C15 C14 1.346 . S
C15 H22 0.929 . S
C16 O6 1.282 . S
C16 O17 1.216 . S
O17 C16 1.216 . S
H18 C13 0.930 . S
H19 C14 0.930 . S
O20 Cu0 1.959 . S
O20 C7 1.251 . S
H21 C4 0.930 . S
H22 C15 0.929 . S
Cu23 N24 1.999 . S
Cu23 O29 1.974 . S
Cu23 N34 1.985 . S
Cu23 O43 1.959 . S
N24 Cu23 1.999 . S
N24 C26 1.263 . S
N24 C28 1.389 . S
N25 C26 1.358 . S
N25 C27 1.400 . S
C26 N24 1.263 . S
C26 N25 1.358 . S
C26 H32 0.930 . S
C27 N25 1.400 . S
C27 C28 1.351 . S
C27 H44 0.930 . S
C28 N24 1.389 . S
C28 C27 1.351 . S
C28 H33 0.930 . S
O29 Cu23 1.974 . S
O29 C39 1.282 . S
C30 O31 1.261 . S
C30 O43 1.251 . S
O31 C30 1.261 . S
H32 C26 0.930 . S
H33 C28 0.930 . S
N34 Cu23 1.985 . S
N34 C36 1.335 . S
N34 C37 1.390 . S
N35 C36 1.345 . S
N35 C38 1.336 . S
C36 N34 1.335 . S
C36 N35 1.345 . S
C36 H41 0.930 . S
C37 N34 1.390 . S
C37 C38 1.346 . S
C37 H42 0.930 . S
C38 N35 1.336 . S
C38 C37 1.346 . S
C38 H45 0.929 . S
C39 O29 1.282 . S
C39 O40 1.216 . S
O40 C39 1.216 . S
H41 C36 0.930 . S
H42 C37 0.930 . S
O43 Cu23 1.959 . S
O43 C30 1.251 . S
H44 C27 0.930 . S
H45 C38 0.929 . S
Cu46 N47 1.999 . S
Cu46 O52 1.974 . S
Cu46 N57 1.985 . S
Cu46 O66 1.959 . S
N47 Cu46 1.999 . S
N47 C49 1.263 . S
N47 C51 1.389 . S
N48 C49 1.358 . S
N48 C50 1.400 . S
C49 N47 1.263 . S
C49 N48 1.358 . S
C49 H55 0.930 . S
C50 N48 1.400 . S
C50 C51 1.351 . S
C50 H67 0.930 . S
C51 N47 1.389 . S
C51 C50 1.351 . S
C51 H56 0.930 . S
O52 Cu46 1.974 . S
O52 C62 1.282 . S
C53 O54 1.261 . S
C53 O66 1.251 . S
O54 C53 1.261 . S
H55 C49 0.930 . S
H56 C51 0.930 . S
N57 Cu46 1.985 . S
N57 C59 1.335 . S
N57 C60 1.390 . S
N58 C59 1.345 . S
N58 C61 1.336 . S
C59 N57 1.335 . S
C59 N58 1.345 . S
C59 H64 0.930 . S
C60 N57 1.390 . S
C60 C61 1.346 . S
C60 H65 0.930 . S
C61 N58 1.336 . S
C61 C60 1.346 . S
C61 H68 0.929 . S
C62 O52 1.282 . S
C62 O63 1.216 . S
O63 C62 1.216 . S
H64 C59 0.930 . S
H65 C60 0.930 . S
O66 Cu46 1.959 . S
O66 C53 1.251 . S
H67 C50 0.930 . S
H68 C61 0.929 . S
Cu69 N70 1.999 . S
Cu69 O75 1.974 . S
Cu69 N80 1.985 . S
Cu69 O89 1.959 . S
N70 Cu69 1.999 . S
N70 C72 1.263 . S
N70 C74 1.389 . S
N71 C72 1.358 . S
N71 C73 1.400 . S
C72 N70 1.263 . S
C72 N71 1.358 . S
C72 H78 0.930 . S
C73 N71 1.400 . S
C73 C74 1.351 . S
C73 H90 0.930 . S
C74 N70 1.389 . S
C74 C73 1.351 . S
C74 H79 0.930 . S
O75 Cu69 1.974 . S
O75 C85 1.282 . S
C76 O77 1.261 . S
C76 O89 1.251 . S
O77 C76 1.261 . S
H78 C72 0.930 . S
H79 C74 0.930 . S
N80 Cu69 1.985 . S
N80 C82 1.335 . S
N80 C83 1.390 . S
N81 C82 1.345 . S
N81 C84 1.336 . S
C82 N80 1.335 . S
C82 N81 1.345 . S
C82 H87 0.930 . S
C83 N80 1.390 . S
C83 C84 1.346 . S
C83 H88 0.930 . S
C84 N81 1.336 . S
C84 C83 1.346 . S
C84 H91 0.929 . S
C85 O75 1.282 . S
C85 O86 1.216 . S
O86 C85 1.216 . S
H87 C82 0.930 . S
H88 C83 0.930 . S
O89 Cu69 1.959 . S
O89 C76 1.251 . S
H90 C73 0.930 . S
H91 C84 0.929 . S
Cu92 N93 1.999 . S
Cu92 O98 1.974 . S
Cu92 N103 1.985 . S
Cu92 O112 1.959 . S
N93 Cu92 1.999 . S
N93 C95 1.263 . S
N93 C97 1.389 . S
N94 C95 1.358 . S
N94 C96 1.400 . S
C95 N93 1.263 . S
C95 N94 1.358 . S
C95 H101 0.930 . S
C96 N94 1.400 . S
C96 C97 1.351 . S
C96 H113 0.930 1_545 S
C97 N93 1.389 . S
C97 C96 1.351 . S
C97 H102 0.930 . S
O98 Cu92 1.974 . S
O98 C108 1.282 . S
C99 O100 1.261 . S
C99 O112 1.251 . S
O100 C99 1.261 . S
H101 C95 0.930 . S
H102 C97 0.930 . S
N103 Cu92 1.985 . S
N103 C105 1.335 . S
N103 C106 1.390 . S
N104 C105 1.345 . S
N104 C107 1.336 . S
C105 N103 1.335 . S
C105 N104 1.345 . S
C105 H110 0.930 . S
C106 N103 1.390 . S
C106 C107 1.346 . S
C106 H111 0.930 . S
C107 N104 1.336 . S
C107 C106 1.346 . S
C107 H114 0.929 . S
C108 O98 1.282 . S
C108 O109 1.216 . S
O109 C108 1.216 . S
H110 C105 0.930 . S
H111 C106 0.930 . S
O112 Cu92 1.959 . S
O112 C99 1.251 . S
H113 C96 0.930 1_565 S
H114 C107 0.929 . S
Cu115 N116 1.999 . S
Cu115 O121 1.974 . S
Cu115 N126 1.985 . S
Cu115 O135 1.959 . S
N116 Cu115 1.999 . S
N116 C118 1.263 . S
N116 C120 1.389 . S
N117 C118 1.358 . S
N117 C119 1.400 . S
C118 N116 1.263 . S
C118 N117 1.358 . S
C118 H124 0.930 . S
C119 N117 1.400 . S
C119 C120 1.351 . S
C119 H136 0.930 1_565 S
C120 N116 1.389 . S
C120 C119 1.351 . S
C120 H125 0.930 . S
O121 Cu115 1.974 . S
O121 C131 1.282 . S
C122 O123 1.261 . S
C122 O135 1.251 . S
O123 C122 1.261 . S
H124 C118 0.930 . S
H125 C120 0.930 . S
N126 Cu115 1.985 . S
N126 C128 1.335 . S
N126 C129 1.390 . S
N127 C128 1.345 . S
N127 C130 1.336 . S
C128 N126 1.335 . S
C128 N127 1.345 . S
C128 H133 0.930 . S
C129 N126 1.390 . S
C129 C130 1.346 . S
C129 H134 0.930 . S
C130 N127 1.336 . S
C130 C129 1.346 . S
C130 H137 0.929 . S
C131 O121 1.282 . S
C131 O132 1.216 . S
O132 C131 1.216 . S
H133 C128 0.930 . S
H134 C129 0.930 . S
O135 Cu115 1.959 . S
O135 C122 1.251 . S
H136 C119 0.930 1_545 S
H137 C130 0.929 . S
Cu138 N139 1.999 . S
Cu138 O144 1.974 . S
Cu138 N149 1.985 . S
Cu138 O158 1.959 . S
N139 Cu138 1.999 . S
N139 C141 1.263 . S
N139 C143 1.389 . S
N140 C141 1.358 . S
N140 C142 1.400 . S
C141 N139 1.263 . S
C141 N140 1.358 . S
C141 H147 0.930 . S
C142 N140 1.400 . S
C142 C143 1.351 . S
C142 H159 0.930 . S
C143 N139 1.389 . S
C143 C142 1.351 . S
C143 H148 0.930 . S
O144 Cu138 1.974 . S
O144 C154 1.282 . S
C145 O146 1.261 . S
C145 O158 1.251 . S
O146 C145 1.261 . S
H147 C141 0.930 . S
H148 C143 0.930 . S
N149 Cu138 1.985 . S
N149 C151 1.335 . S
N149 C152 1.390 . S
N150 C151 1.345 . S
N150 C153 1.336 . S
C151 N149 1.335 . S
C151 N150 1.345 . S
C151 H156 0.930 . S
C152 N149 1.390 . S
C152 C153 1.346 . S
C152 H157 0.930 . S
C153 N150 1.336 . S
C153 C152 1.346 . S
C153 H160 0.929 . S
C154 O144 1.282 . S
C154 O155 1.216 . S
O155 C154 1.216 . S
H156 C151 0.930 . S
H157 C152 0.930 . S
O158 Cu138 1.959 . S
O158 C145 1.251 . S
H159 C142 0.930 . S
H160 C153 0.929 . S
Cu161 N162 1.999 . S
Cu161 O167 1.974 . S
Cu161 N172 1.985 . S
Cu161 O181 1.959 . S
N162 Cu161 1.999 . S
N162 C164 1.263 . S
N162 C166 1.389 . S
N163 C164 1.358 . S
N163 C165 1.400 . S
C164 N162 1.263 . S
C164 N163 1.358 . S
C164 H170 0.930 . S
C165 N163 1.400 . S
C165 C166 1.351 . S
C165 H182 0.930 . S
C166 N162 1.389 . S
C166 C165 1.351 . S
C166 H171 0.930 . S
O167 Cu161 1.974 . S
O167 C177 1.282 . S
C168 O169 1.261 . S
C168 O181 1.251 . S
O169 C168 1.261 . S
H170 C164 0.930 . S
H171 C166 0.930 . S
N172 Cu161 1.985 . S
N172 C174 1.335 . S
N172 C175 1.390 . S
N173 C174 1.345 . S
N173 C176 1.336 . S
C174 N172 1.335 . S
C174 N173 1.345 . S
C174 H179 0.930 . S
C175 N172 1.390 . S
C175 C176 1.346 . S
C175 H180 0.930 . S
C176 N173 1.336 . S
C176 C175 1.346 . S
C176 H183 0.929 . S
C177 O167 1.282 . S
C177 O178 1.216 . S
O178 C177 1.216 . S
H179 C174 0.930 . S
H180 C175 0.930 . S
O181 Cu161 1.959 . S
O181 C168 1.251 . S
H182 C165 0.930 . S
H183 C176 0.929 . S
Cu184 N185 1.999 . S
Cu184 O190 1.974 . S
Cu184 N195 1.985 . S
Cu184 O204 1.959 . S
N185 Cu184 1.999 . S
N185 C187 1.263 . S
N185 C189 1.389 . S
N186 C187 1.358 . S
N186 C188 1.400 . S
C187 N185 1.263 . S
C187 N186 1.358 . S
C187 H193 0.930 . S
C188 N186 1.400 . S
C188 C189 1.351 . S
C188 H205 0.930 . S
C189 N185 1.389 . S
C189 C188 1.351 . S
C189 H194 0.930 . S
O190 Cu184 1.974 . S
O190 C200 1.282 . S
C191 O192 1.261 . S
C191 O204 1.251 . S
O192 C191 1.261 . S
H193 C187 0.930 . S
H194 C189 0.930 . S
N195 Cu184 1.985 . S
N195 C197 1.335 . S
N195 C198 1.390 . S
N196 C197 1.345 . S
N196 C199 1.336 . S
C197 N195 1.335 . S
C197 N196 1.345 . S
C197 H202 0.930 . S
C198 N195 1.390 . S
C198 C199 1.346 . S
C198 H203 0.930 . S
C199 N196 1.336 . S
C199 C198 1.346 . S
C199 H206 0.929 . S
C200 O190 1.282 . S
C200 O201 1.216 . S
O201 C200 1.216 . S
H202 C197 0.930 . S
H203 C198 0.930 . S
O204 Cu184 1.959 . S
O204 C191 1.251 . S
H205 C188 0.930 . S
H206 C199 0.929 . S
Cu207 N208 1.999 . S
Cu207 O213 1.974 . S
Cu207 N218 1.985 . S
Cu207 O227 1.959 . S
N208 Cu207 1.999 . S
N208 C210 1.263 . S
N208 C212 1.389 . S
N209 C210 1.358 . S
N209 C211 1.400 . S
C210 N208 1.263 . S
C210 N209 1.358 . S
C210 H216 0.930 . S
C211 N209 1.400 . S
C211 C212 1.351 . S
C211 H228 0.930 . S
C212 N208 1.389 . S
C212 C211 1.351 . S
C212 H217 0.930 . S
O213 Cu207 1.974 . S
O213 C223 1.282 . S
C214 O215 1.261 . S
C214 O227 1.251 . S
O215 C214 1.261 . S
H216 C210 0.930 . S
H217 C212 0.930 . S
N218 Cu207 1.985 . S
N218 C220 1.335 . S
N218 C221 1.390 . S
N219 C220 1.345 . S
N219 C222 1.336 . S
C220 N218 1.335 . S
C220 N219 1.345 . S
C220 H225 0.930 . S
C221 N218 1.390 . S
C221 C222 1.346 . S
C221 H226 0.930 . S
C222 N219 1.336 . S
C222 C221 1.346 . S
C222 H229 0.929 . S
C223 O213 1.282 . S
C223 O224 1.216 . S
O224 C223 1.216 . S
H225 C220 0.930 . S
H226 C221 0.930 . S
O227 Cu207 1.959 . S
O227 C214 1.251 . S
H228 C211 0.930 . S
H229 C222 0.929 . S
Cu230 N231 1.999 . S
Cu230 O236 1.974 . S
Cu230 N241 1.985 . S
Cu230 O250 1.959 . S
N231 Cu230 1.999 . S
N231 C233 1.263 . S
N231 C235 1.389 . S
N232 C233 1.358 . S
N232 C234 1.400 . S
C233 N231 1.263 . S
C233 N232 1.358 . S
C233 H239 0.930 . S
C234 N232 1.400 . S
C234 C235 1.351 . S
C234 H251 0.930 . S
C235 N231 1.389 . S
C235 C234 1.351 . S
C235 H240 0.930 . S
O236 Cu230 1.974 . S
O236 C246 1.282 . S
C237 O238 1.261 . S
C237 O250 1.251 . S
O238 C237 1.261 . S
H239 C233 0.930 . S
H240 C235 0.930 . S
N241 Cu230 1.985 . S
N241 C243 1.335 . S
N241 C244 1.390 . S
N242 C243 1.345 . S
N242 C245 1.336 . S
C243 N241 1.335 . S
C243 N242 1.345 . S
C243 H248 0.930 . S
C244 N241 1.390 . S
C244 C245 1.346 . S
C244 H249 0.930 . S
C245 N242 1.336 . S
C245 C244 1.346 . S
C245 H252 0.929 . S
C246 O236 1.282 . S
C246 O247 1.216 . S
O247 C246 1.216 . S
H248 C243 0.930 . S
H249 C244 0.930 . S
O250 Cu230 1.959 . S
O250 C237 1.251 . S
H251 C234 0.930 . S
H252 C245 0.929 . S
Cu253 N254 1.999 . S
Cu253 O259 1.974 . S
Cu253 N264 1.985 . S
Cu253 O273 1.959 . S
N254 Cu253 1.999 . S
N254 C256 1.263 . S
N254 C258 1.389 . S
N255 C256 1.358 . S
N255 C257 1.400 . S
C256 N254 1.263 . S
C256 N255 1.358 . S
C256 H262 0.930 . S
C257 N255 1.400 . S
C257 C258 1.351 . S
C257 H274 0.930 . S
C258 N254 1.389 . S
C258 C257 1.351 . S
C258 H263 0.930 . S
O259 Cu253 1.974 . S
O259 C269 1.282 . S
C260 O261 1.261 . S
C260 O273 1.251 . S
O261 C260 1.261 . S
H262 C256 0.930 . S
H263 C258 0.930 . S
N264 Cu253 1.985 . S
N264 C266 1.335 . S
N264 C267 1.390 . S
N265 C266 1.345 . S
N265 C268 1.336 . S
C266 N264 1.335 . S
C266 N265 1.345 . S
C266 H271 0.930 . S
C267 N264 1.390 . S
C267 C268 1.346 . S
C267 H272 0.930 . S
C268 N265 1.336 . S
C268 C267 1.346 . S
C268 H275 0.929 . S
C269 O259 1.282 . S
C269 O270 1.216 . S
O270 C269 1.216 . S
H271 C266 0.930 . S
H272 C267 0.930 . S
O273 Cu253 1.959 . S
O273 C260 1.251 . S
H274 C257 0.930 . S
H275 C268 0.929 . S
Cu276 N277 1.999 . S
Cu276 O282 1.974 . S
Cu276 N287 1.985 . S
Cu276 O296 1.959 . S
N277 Cu276 1.999 . S
N277 C279 1.263 . S
N277 C281 1.389 . S
N278 C279 1.358 . S
N278 C280 1.400 . S
C279 N277 1.263 . S
C279 N278 1.358 . S
C279 H285 0.930 . S
C280 N278 1.400 . S
C280 C281 1.351 . S
C280 H297 0.930 . S
C281 N277 1.389 . S
C281 C280 1.351 . S
C281 H286 0.930 . S
O282 Cu276 1.974 . S
O282 C292 1.282 . S
C283 O284 1.261 . S
C283 O296 1.251 . S
O284 C283 1.261 . S
H285 C279 0.930 . S
H286 C281 0.930 . S
N287 Cu276 1.985 . S
N287 C289 1.335 . S
N287 C290 1.390 . S
N288 C289 1.345 . S
N288 C291 1.336 . S
C289 N287 1.335 . S
C289 N288 1.345 . S
C289 H294 0.930 . S
C290 N287 1.390 . S
C290 C291 1.346 . S
C290 H295 0.930 . S
C291 N288 1.336 . S
C291 C290 1.346 . S
C291 H298 0.929 . S
C292 O282 1.282 . S
C292 O293 1.216 . S
O293 C292 1.216 . S
H294 C289 0.930 . S
H295 C290 0.930 . S
O296 Cu276 1.959 . S
O296 C283 1.251 . S
H297 C280 0.930 . S
H298 C291 0.929 . S
Cu299 N300 1.999 . S
Cu299 O305 1.974 . S
Cu299 N310 1.985 . S
Cu299 O319 1.959 . S
N300 Cu299 1.999 . S
N300 C302 1.263 . S
N300 C304 1.389 . S
N301 C302 1.358 . S
N301 C303 1.400 . S
C302 N300 1.263 . S
C302 N301 1.358 . S
C302 H308 0.930 . S
C303 N301 1.400 . S
C303 C304 1.351 . S
C303 H320 0.930 . S
C304 N300 1.389 . S
C304 C303 1.351 . S
C304 H309 0.930 . S
O305 Cu299 1.974 . S
O305 C315 1.282 . S
C306 O307 1.261 . S
C306 O319 1.251 . S
O307 C306 1.261 . S
H308 C302 0.930 . S
H309 C304 0.930 . S
N310 Cu299 1.985 . S
N310 C312 1.335 . S
N310 C313 1.390 . S
N311 C312 1.345 . S
N311 C314 1.336 . S
C312 N310 1.335 . S
C312 N311 1.345 . S
C312 H317 0.930 . S
C313 N310 1.390 . S
C313 C314 1.346 . S
C313 H318 0.930 . S
C314 N311 1.336 . S
C314 C313 1.346 . S
C314 H321 0.929 . S
C315 O305 1.282 . S
C315 O316 1.216 . S
O316 C315 1.216 . S
H317 C312 0.930 . S
H318 C313 0.930 . S
O319 Cu299 1.959 . S
O319 C306 1.251 . S
H320 C303 0.930 . S
H321 C314 0.929 . S
Cu322 N323 1.999 . S
Cu322 O328 1.974 . S
Cu322 N333 1.985 . S
Cu322 O342 1.959 . S
N323 Cu322 1.999 . S
N323 C325 1.263 . S
N323 C327 1.389 . S
N324 C325 1.358 . S
N324 C326 1.400 . S
C325 N323 1.263 . S
C325 N324 1.358 . S
C325 H331 0.930 . S
C326 N324 1.400 . S
C326 C327 1.351 . S
C326 H343 0.930 . S
C327 N323 1.389 . S
C327 C326 1.351 . S
C327 H332 0.930 . S
O328 Cu322 1.974 . S
O328 C338 1.282 . S
C329 O330 1.261 . S
C329 O342 1.251 . S
O330 C329 1.261 . S
H331 C325 0.930 . S
H332 C327 0.930 . S
N333 Cu322 1.985 . S
N333 C335 1.335 . S
N333 C336 1.390 . S
N334 C335 1.345 . S
N334 C337 1.336 . S
C335 N333 1.335 . S
C335 N334 1.345 . S
C335 H340 0.930 . S
C336 N333 1.390 . S
C336 C337 1.346 . S
C336 H341 0.930 . S
C337 N334 1.336 . S
C337 C336 1.346 . S
C337 H344 0.929 . S
C338 O328 1.282 . S
C338 O339 1.216 . S
O339 C338 1.216 . S
H340 C335 0.930 . S
H341 C336 0.930 . S
O342 Cu322 1.959 . S
O342 C329 1.251 . S
H343 C326 0.930 . S
H344 C337 0.929 . S
Cu345 N346 1.999 . S
Cu345 O351 1.974 . S
Cu345 N356 1.985 . S
Cu345 O365 1.959 . S
N346 Cu345 1.999 . S
N346 C348 1.263 . S
N346 C350 1.389 . S
N347 C348 1.358 . S
N347 C349 1.400 . S
C348 N346 1.263 . S
C348 N347 1.358 . S
C348 H354 0.930 . S
C349 N347 1.400 . S
C349 C350 1.351 . S
C349 H366 0.930 . S
C350 N346 1.389 . S
C350 C349 1.351 . S
C350 H355 0.930 . S
O351 Cu345 1.974 . S
O351 C361 1.282 . S
C352 O353 1.261 . S
C352 O365 1.251 . S
O353 C352 1.261 . S
H354 C348 0.930 . S
H355 C350 0.930 . S
N356 Cu345 1.985 . S
N356 C358 1.335 . S
N356 C359 1.390 . S
N357 C358 1.345 . S
N357 C360 1.336 . S
C358 N356 1.335 . S
C358 N357 1.345 . S
C358 H363 0.930 . S
C359 N356 1.390 . S
C359 C360 1.346 . S
C359 H364 0.930 . S
C360 N357 1.336 . S
C360 C359 1.346 . S
C360 H367 0.929 . S
C361 O351 1.282 . S
C361 O362 1.216 . S
O362 C361 1.216 . S
H363 C358 0.930 . S
H364 C359 0.930 . S
O365 Cu345 1.959 . S
O365 C352 1.251 . S
H366 C349 0.930 . S
H367 C360 0.929 . S
Cu368 N369 1.999 . S
Cu368 O374 1.974 . S
Cu368 N379 1.985 . S
Cu368 O388 1.959 . S
N369 Cu368 1.999 . S
N369 C371 1.263 . S
N369 C373 1.389 . S
N370 C371 1.358 . S
N370 C372 1.400 . S
C371 N369 1.263 . S
C371 N370 1.358 . S
C371 H377 0.930 . S
C372 N370 1.400 . S
C372 C373 1.351 . S
C372 H389 0.930 . S
C373 N369 1.389 . S
C373 C372 1.351 . S
C373 H378 0.930 . S
O374 Cu368 1.974 . S
O374 C384 1.282 . S
C375 O376 1.261 . S
C375 O388 1.251 . S
O376 C375 1.261 . S
H377 C371 0.930 . S
H378 C373 0.930 . S
N379 Cu368 1.985 . S
N379 C381 1.335 . S
N379 C382 1.390 . S
N380 C381 1.345 . S
N380 C383 1.336 . S
C381 N379 1.335 . S
C381 N380 1.345 . S
C381 H386 0.930 . S
C382 N379 1.390 . S
C382 C383 1.346 . S
C382 H387 0.930 . S
C383 N380 1.336 . S
C383 C382 1.346 . S
C383 H390 0.929 . S
C384 O374 1.282 . S
C384 O385 1.216 . S
O385 C384 1.216 . S
H386 C381 0.930 . S
H387 C382 0.930 . S
O388 Cu368 1.959 . S
O388 C375 1.251 . S
H389 C372 0.930 . S
H390 C383 0.929 . S
Cu391 N392 1.999 . S
Cu391 O397 1.974 . S
Cu391 N402 1.985 . S
Cu391 O411 1.959 . S
N392 Cu391 1.999 . S
N392 C394 1.263 . S
N392 C396 1.389 . S
N393 C394 1.358 . S
N393 C395 1.400 . S
C394 N392 1.263 . S
C394 N393 1.358 . S
C394 H400 0.930 . S
C395 N393 1.400 . S
C395 C396 1.351 . S
C395 H412 0.930 . S
C396 N392 1.389 . S
C396 C395 1.351 . S
C396 H401 0.930 . S
O397 Cu391 1.974 . S
O397 C407 1.282 . S
C398 O399 1.261 . S
C398 O411 1.251 . S
O399 C398 1.261 . S
H400 C394 0.930 . S
H401 C396 0.930 . S
N402 Cu391 1.985 . S
N402 C404 1.335 . S
N402 C405 1.390 . S
N403 C404 1.345 . S
N403 C406 1.336 . S
C404 N402 1.335 . S
C404 N403 1.345 . S
C404 H409 0.930 . S
C405 N402 1.390 . S
C405 C406 1.346 . S
C405 H410 0.930 . S
C406 N403 1.336 . S
C406 C405 1.346 . S
C406 H413 0.929 . S
C407 O397 1.282 . S
C407 O408 1.216 . S
O408 C407 1.216 . S
H409 C404 0.930 . S
H410 C405 0.930 . S
O411 Cu391 1.959 . S
O411 C398 1.251 . S
H412 C395 0.930 . S
H413 C406 0.929 . S
Cu414 N415 1.999 . S
Cu414 O420 1.974 . S
Cu414 N425 1.985 . S
Cu414 O434 1.959 . S
N415 Cu414 1.999 . S
N415 C417 1.263 . S
N415 C419 1.389 . S
N416 C417 1.358 . S
N416 C418 1.400 . S
C417 N415 1.263 . S
C417 N416 1.358 . S
C417 H423 0.930 . S
C418 N416 1.400 . S
C418 C419 1.351 . S
C418 H435 0.930 . S
C419 N415 1.389 . S
C419 C418 1.351 . S
C419 H424 0.930 . S
O420 Cu414 1.974 . S
O420 C430 1.282 . S
C421 O422 1.261 . S
C421 O434 1.251 . S
O422 C421 1.261 . S
H423 C417 0.930 . S
H424 C419 0.930 . S
N425 Cu414 1.985 . S
N425 C427 1.335 . S
N425 C428 1.390 . S
N426 C427 1.345 . S
N426 C429 1.336 . S
C427 N425 1.335 . S
C427 N426 1.345 . S
C427 H432 0.930 . S
C428 N425 1.390 . S
C428 C429 1.346 . S
C428 H433 0.930 . S
C429 N426 1.336 . S
C429 C428 1.346 . S
C429 H436 0.929 . S
C430 O420 1.282 . S
C430 O431 1.216 . S
O431 C430 1.216 . S
H432 C427 0.930 . S
H433 C428 0.930 . S
O434 Cu414 1.959 . S
O434 C421 1.251 . S
H435 C418 0.930 . S
H436 C429 0.929 . S
Cu437 N438 1.999 . S
Cu437 O443 1.974 . S
Cu437 N448 1.985 . S
Cu437 O457 1.959 . S
N438 Cu437 1.999 . S
N438 C440 1.263 . S
N438 C442 1.389 . S
N439 C440 1.358 . S
N439 C441 1.400 . S
C440 N438 1.263 . S
C440 N439 1.358 . S
C440 H446 0.930 . S
C441 N439 1.400 . S
C441 C442 1.351 . S
C441 H458 0.930 . S
C442 N438 1.389 . S
C442 C441 1.351 . S
C442 H447 0.930 . S
O443 Cu437 1.974 . S
O443 C453 1.282 . S
C444 O445 1.261 . S
C444 O457 1.251 . S
O445 C444 1.261 . S
H446 C440 0.930 . S
H447 C442 0.930 . S
N448 Cu437 1.985 . S
N448 C450 1.335 . S
N448 C451 1.390 . S
N449 C450 1.345 . S
N449 C452 1.336 . S
C450 N448 1.335 . S
C450 N449 1.345 . S
C450 H455 0.930 . S
C451 N448 1.390 . S
C451 C452 1.346 . S
C451 H456 0.930 . S
C452 N449 1.336 . S
C452 C451 1.346 . S
C452 H459 0.929 . S
C453 O443 1.282 . S
C453 O454 1.216 . S
O454 C453 1.216 . S
H455 C450 0.930 . S
H456 C451 0.930 . S
O457 Cu437 1.959 . S
O457 C444 1.251 . S
H458 C441 0.930 . S
H459 C452 0.929 . S
Cu460 N461 1.999 . S
Cu460 O466 1.974 . S
Cu460 N471 1.985 . S
Cu460 O480 1.959 . S
N461 Cu460 1.999 . S
N461 C463 1.263 . S
N461 C465 1.389 . S
N462 C463 1.358 . S
N462 C464 1.400 . S
C463 N461 1.263 . S
C463 N462 1.358 . S
C463 H469 0.930 . S
C464 N462 1.400 . S
C464 C465 1.351 . S
C464 H481 0.930 . S
C465 N461 1.389 . S
C465 C464 1.351 . S
C465 H470 0.930 . S
O466 Cu460 1.974 . S
O466 C476 1.282 . S
C467 O468 1.261 . S
C467 O480 1.251 . S
O468 C467 1.261 . S
H469 C463 0.930 . S
H470 C465 0.930 . S
N471 Cu460 1.985 . S
N471 C473 1.335 . S
N471 C474 1.390 . S
N472 C473 1.345 . S
N472 C475 1.336 . S
C473 N471 1.335 . S
C473 N472 1.345 . S
C473 H478 0.930 . S
C474 N471 1.390 . S
C474 C475 1.346 . S
C474 H479 0.930 . S
C475 N472 1.336 . S
C475 C474 1.346 . S
C475 H482 0.929 . S
C476 O466 1.282 . S
C476 O477 1.216 . S
O477 C476 1.216 . S
H478 C473 0.930 . S
H479 C474 0.930 . S
O480 Cu460 1.959 . S
O480 C467 1.251 . S
H481 C464 0.930 . S
H482 C475 0.929 . S
Cu483 N484 1.999 . S
Cu483 O489 1.974 . S
Cu483 N494 1.985 . S
Cu483 O503 1.959 . S
N484 Cu483 1.999 . S
N484 C486 1.263 . S
N484 C488 1.389 . S
N485 C486 1.358 . S
N485 C487 1.400 . S
C486 N484 1.263 . S
C486 N485 1.358 . S
C486 H492 0.930 . S
C487 N485 1.400 . S
C487 C488 1.351 . S
C487 H504 0.930 . S
C488 N484 1.389 . S
C488 C487 1.351 . S
C488 H493 0.930 . S
O489 Cu483 1.974 . S
O489 C499 1.282 . S
C490 O491 1.261 . S
C490 O503 1.251 . S
O491 C490 1.261 . S
H492 C486 0.930 . S
H493 C488 0.930 . S
N494 Cu483 1.985 . S
N494 C496 1.335 . S
N494 C497 1.390 . S
N495 C496 1.345 . S
N495 C498 1.336 . S
C496 N494 1.335 . S
C496 N495 1.345 . S
C496 H501 0.930 . S
C497 N494 1.390 . S
C497 C498 1.346 . S
C497 H502 0.930 . S
C498 N495 1.336 . S
C498 C497 1.346 . S
C498 H505 0.929 . S
C499 O489 1.282 . S
C499 O500 1.216 . S
O500 C499 1.216 . S
H501 C496 0.930 . S
H502 C497 0.930 . S
O503 Cu483 1.959 . S
O503 C490 1.251 . S
H504 C487 0.930 . S
H505 C498 0.929 . S
Cu506 N507 1.999 . S
Cu506 O512 1.974 . S
Cu506 N517 1.985 . S
Cu506 O526 1.959 . S
N507 Cu506 1.999 . S
N507 C509 1.263 . S
N507 C511 1.389 . S
N508 C509 1.358 . S
N508 C510 1.400 . S
C509 N507 1.263 . S
C509 N508 1.358 . S
C509 H515 0.930 . S
C510 N508 1.400 . S
C510 C511 1.351 . S
C510 H527 0.930 . S
C511 N507 1.389 . S
C511 C510 1.351 . S
C511 H516 0.930 . S
O512 Cu506 1.974 . S
O512 C522 1.282 . S
C513 O514 1.261 . S
C513 O526 1.251 . S
O514 C513 1.261 . S
H515 C509 0.930 . S
H516 C511 0.930 . S
N517 Cu506 1.985 . S
N517 C519 1.335 . S
N517 C520 1.390 . S
N518 C519 1.345 . S
N518 C521 1.336 . S
C519 N517 1.335 . S
C519 N518 1.345 . S
C519 H524 0.930 . S
C520 N517 1.390 . S
C520 C521 1.346 . S
C520 H525 0.930 . S
C521 N518 1.336 . S
C521 C520 1.346 . S
C521 H528 0.929 . S
C522 O512 1.282 . S
C522 O523 1.216 . S
O523 C522 1.216 . S
H524 C519 0.930 . S
H525 C520 0.930 . S
O526 Cu506 1.959 . S
O526 C513 1.251 . S
H527 C510 0.930 . S
H528 C521 0.929 . S
Cu529 N530 1.999 . S
Cu529 O535 1.974 . S
Cu529 N540 1.985 . S
Cu529 O549 1.959 . S
N530 Cu529 1.999 . S
N530 C532 1.263 . S
N530 C534 1.389 . S
N531 C532 1.358 . S
N531 C533 1.400 . S
C532 N530 1.263 . S
C532 N531 1.358 . S
C532 H538 0.930 . S
C533 N531 1.400 . S
C533 C534 1.351 . S
C533 H550 0.930 . S
C534 N530 1.389 . S
C534 C533 1.351 . S
C534 H539 0.930 . S
O535 Cu529 1.974 . S
O535 C545 1.282 . S
C536 O537 1.261 . S
C536 O549 1.251 . S
O537 C536 1.261 . S
H538 C532 0.930 . S
H539 C534 0.930 . S
N540 Cu529 1.985 . S
N540 C542 1.335 . S
N540 C543 1.390 . S
N541 C542 1.345 . S
N541 C544 1.336 . S
C542 N540 1.335 . S
C542 N541 1.345 . S
C542 H547 0.930 . S
C543 N540 1.390 . S
C543 C544 1.346 . S
C543 H548 0.930 . S
C544 N541 1.336 . S
C544 C543 1.346 . S
C544 H551 0.929 . S
C545 O535 1.282 . S
C545 O546 1.216 . S
O546 C545 1.216 . S
H547 C542 0.930 . S
H548 C543 0.930 . S
O549 Cu529 1.959 . S
O549 C536 1.251 . S
H550 C533 0.930 . S
H551 C544 0.929 . S
C552 C553 1.363 . S
C552 C558 1.379 . S
C552 N560 1.356 . S
C553 C552 1.363 . S
C553 C559 1.363 . S
C554 C555 1.363 . S
C554 C559 1.379 . S
C554 N561 1.356 . S
C555 C554 1.363 . S
C555 C558 1.363 . S
N556 C558 1.356 . S
N556 H568 0.984 . S
N556 H569 0.985 . S
N557 C559 1.356 . S
N557 H562 0.984 . S
N557 H563 0.985 . S
C558 C552 1.379 . S
C558 C555 1.363 . S
C558 N556 1.356 . S
C559 C553 1.363 . S
C559 C554 1.379 . S
C559 N557 1.356 . S
N560 C552 1.356 . S
N560 H566 0.984 . S
N560 H567 0.984 . S
N561 C554 1.356 . S
N561 H564 0.984 . S
N561 H565 0.985 . S
H562 N557 0.984 . S
H563 N557 0.985 . S
H564 N561 0.984 . S
H565 N561 0.985 . S
H566 N560 0.984 . S
H567 N560 0.984 . S
H568 N556 0.984 . S
H569 N556 0.985 . S
C570 C571 1.363 . S
C570 C576 1.379 . S
C570 N578 1.356 . S
C571 C570 1.363 . S
C571 C577 1.363 . S
C572 C573 1.363 . S
C572 C577 1.379 . S
C572 N579 1.356 . S
C573 C572 1.363 . S
C573 C576 1.363 . S
N574 C576 1.356 . S
N574 H586 0.984 . S
N574 H587 0.985 . S
N575 C577 1.356 . S
N575 H580 0.984 . S
N575 H581 0.985 . S
C576 C570 1.379 . S
C576 C573 1.363 . S
C576 N574 1.356 . S
C577 C571 1.363 . S
C577 C572 1.379 . S
C577 N575 1.356 . S
N578 C570 1.356 . S
N578 H584 0.984 . S
N578 H585 0.984 . S
N579 C572 1.356 . S
N579 H582 0.984 . S
N579 H583 0.985 . S
H580 N575 0.984 . S
H581 N575 0.985 . S
H582 N579 0.984 . S
H583 N579 0.985 . S
H584 N578 0.984 . S
H585 N578 0.984 . S
H586 N574 0.984 . S
H587 N574 0.985 . S
C588 C589 1.363 . S
C588 C594 1.379 . S
C588 N596 1.356 . S
C589 C588 1.363 . S
C589 C595 1.363 . S
C590 C591 1.363 . S
C590 C595 1.379 . S
C590 N597 1.356 . S
C591 C590 1.363 . S
C591 C594 1.363 . S
N592 C594 1.356 . S
N592 H604 0.984 . S
N592 H605 0.985 . S
N593 C595 1.356 . S
N593 H598 0.984 . S
N593 H599 0.985 . S
C594 C588 1.379 . S
C594 C591 1.363 . S
C594 N592 1.356 . S
C595 C589 1.363 . S
C595 C590 1.379 . S
C595 N593 1.356 . S
N596 C588 1.356 . S
N596 H602 0.984 . S
N596 H603 0.984 . S
N597 C590 1.356 . S
N597 H600 0.984 . S
N597 H601 0.985 . S
H598 N593 0.984 . S
H599 N593 0.985 . S
H600 N597 0.984 . S
H601 N597 0.985 . S
H602 N596 0.984 . S
H603 N596 0.984 . S
H604 N592 0.984 . S
H605 N592 0.985 . S
C606 C607 1.363 . S
C606 C612 1.379 . S
C606 N614 1.356 . S
C607 C606 1.363 . S
C607 C613 1.363 . S
C608 C609 1.363 . S
C608 C613 1.379 . S
C608 N615 1.356 . S
C609 C608 1.363 . S
C609 C612 1.363 . S
N610 C612 1.356 . S
N610 H622 0.984 . S
N610 H623 0.985 . S
N611 C613 1.356 . S
N611 H616 0.984 . S
N611 H617 0.985 . S
C612 C606 1.379 . S
C612 C609 1.363 . S
C612 N610 1.356 . S
C613 C607 1.363 . S
C613 C608 1.379 . S
C613 N611 1.356 . S
N614 C606 1.356 . S
N614 H620 0.984 . S
N614 H621 0.984 . S
N615 C608 1.356 . S
N615 H618 0.984 . S
N615 H619 0.985 . S
H616 N611 0.984 . S
H617 N611 0.985 . S
H618 N615 0.984 . S
H619 N615 0.985 . S
H620 N614 0.984 . S
H621 N614 0.984 . S
H622 N610 0.984 . S
H623 N610 0.985 . S
C624 C625 1.363 . S
C624 C630 1.379 . S
C624 N632 1.356 . S
C625 C624 1.363 . S
C625 C631 1.363 . S
C626 C627 1.363 . S
C626 C631 1.379 . S
C626 N633 1.356 . S
C627 C626 1.363 . S
C627 C630 1.363 . S
N628 C630 1.356 . S
N628 H640 0.984 . S
N628 H641 0.985 . S
N629 C631 1.356 . S
N629 H634 0.984 . S
N629 H635 0.985 . S
C630 C624 1.379 . S
C630 C627 1.363 . S
C630 N628 1.356 . S
C631 C625 1.363 . S
C631 C626 1.379 . S
C631 N629 1.356 . S
N632 C624 1.356 . S
N632 H638 0.984 . S
N632 H639 0.984 . S
N633 C626 1.356 . S
N633 H636 0.984 . S
N633 H637 0.985 . S
H634 N629 0.984 . S
H635 N629 0.985 . S
H636 N633 0.984 . S
H637 N633 0.985 . S
H638 N632 0.984 . S
H639 N632 0.984 . S
H640 N628 0.984 . S
H641 N628 0.985 . S
C642 C643 1.363 . S
C642 C648 1.379 . S
C642 N650 1.356 . S
C643 C642 1.363 . S
C643 C649 1.363 . S
C644 C645 1.363 . S
C644 C649 1.379 . S
C644 N651 1.356 . S
C645 C644 1.363 . S
C645 C648 1.363 . S
N646 C648 1.356 . S
N646 H658 0.984 . S
N646 H659 0.985 . S
N647 C649 1.356 . S
N647 H652 0.984 . S
N647 H653 0.985 . S
C648 C642 1.379 . S
C648 C645 1.363 . S
C648 N646 1.356 . S
C649 C643 1.363 . S
C649 C644 1.379 . S
C649 N647 1.356 . S
N650 C642 1.356 . S
N650 H656 0.984 . S
N650 H657 0.984 . S
N651 C644 1.356 . S
N651 H654 0.984 . S
N651 H655 0.985 . S
H652 N647 0.984 . S
H653 N647 0.985 . S
H654 N651 0.984 . S
H655 N651 0.985 . S
H656 N650 0.984 . S
H657 N650 0.984 . S
H658 N646 0.984 . S
H659 N646 0.985 . S
C660 C661 1.363 . S
C660 C666 1.379 . S
C660 N668 1.356 . S
C661 C660 1.363 . S
C661 C667 1.363 . S
C662 C663 1.363 . S
C662 C667 1.379 . S
C662 N669 1.356 . S
C663 C662 1.363 . S
C663 C666 1.363 . S
N664 C666 1.356 . S
N664 H676 0.984 . S
N664 H677 0.985 . S
N665 C667 1.356 . S
N665 H670 0.984 . S
N665 H671 0.985 . S
C666 C660 1.379 . S
C666 C663 1.363 . S
C666 N664 1.356 . S
C667 C661 1.363 . S
C667 C662 1.379 . S
C667 N665 1.356 . S
N668 C660 1.356 . S
N668 H674 0.984 . S
N668 H675 0.984 . S
N669 C662 1.356 . S
N669 H672 0.984 . S
N669 H673 0.985 . S
H670 N665 0.984 . S
H671 N665 0.985 . S
H672 N669 0.984 . S
H673 N669 0.985 . S
H674 N668 0.984 . S
H675 N668 0.984 . S
H676 N664 0.984 . S
H677 N664 0.985 . S
C678 C679 1.363 . S
C678 C684 1.379 . S
C678 N686 1.356 . S
C679 C678 1.363 . S
C679 C685 1.363 . S
C680 C681 1.363 . S
C680 C685 1.379 . S
C680 N687 1.356 . S
C681 C680 1.363 . S
C681 C684 1.363 . S
N682 C684 1.356 . S
N682 H694 0.984 . S
N682 H695 0.985 . S
N683 C685 1.356 . S
N683 H688 0.984 . S
N683 H689 0.985 . S
C684 C678 1.379 . S
C684 C681 1.363 . S
C684 N682 1.356 . S
C685 C679 1.363 . S
C685 C680 1.379 . S
C685 N683 1.356 . S
N686 C678 1.356 . S
N686 H692 0.984 . S
N686 H693 0.984 . S
N687 C680 1.356 . S
N687 H690 0.984 . S
N687 H691 0.985 . S
H688 N683 0.984 . S
H689 N683 0.985 . S
H690 N687 0.984 . S
H691 N687 0.985 . S
H692 N686 0.984 . S
H693 N686 0.984 . S
H694 N682 0.984 . S
H695 N682 0.985 . S
C696 C697 1.363 . S
C696 C702 1.379 . S
C696 N704 1.356 . S
C697 C696 1.363 . S
C697 C703 1.363 . S
C698 C699 1.363 . S
C698 C703 1.379 . S
C698 N705 1.356 . S
C699 C698 1.363 . S
C699 C702 1.363 . S
N700 C702 1.356 . S
N700 H712 0.984 . S
N700 H713 0.985 . S
N701 C703 1.356 . S
N701 H706 0.984 . S
N701 H707 0.985 . S
C702 C696 1.379 . S
C702 C699 1.363 . S
C702 N700 1.356 . S
C703 C697 1.363 . S
C703 C698 1.379 . S
C703 N701 1.356 . S
N704 C696 1.356 . S
N704 H710 0.984 . S
N704 H711 0.984 . S
N705 C698 1.356 . S
N705 H708 0.984 . S
N705 H709 0.985 . S
H706 N701 0.984 . S
H707 N701 0.985 . S
H708 N705 0.984 . S
H709 N705 0.985 . S
H710 N704 0.984 . S
H711 N704 0.984 . S
H712 N700 0.984 . S
H713 N700 0.985 . S
C714 C715 1.363 . S
C714 C720 1.379 . S
C714 N722 1.356 . S
C715 C714 1.363 . S
C715 C721 1.363 . S
C716 C717 1.363 . S
C716 C721 1.379 . S
C716 N723 1.356 . S
C717 C716 1.363 . S
C717 C720 1.363 . S
N718 C720 1.356 . S
N718 H730 0.984 . S
N718 H731 0.985 . S
N719 C721 1.356 . S
N719 H724 0.984 . S
N719 H725 0.985 . S
C720 C714 1.379 . S
C720 C717 1.363 . S
C720 N718 1.356 . S
C721 C715 1.363 . S
C721 C716 1.379 . S
C721 N719 1.356 . S
N722 C714 1.356 . S
N722 H728 0.984 . S
N722 H729 0.984 . S
N723 C716 1.356 . S
N723 H726 0.984 . S
N723 H727 0.985 . S
H724 N719 0.984 . S
H725 N719 0.985 . S
H726 N723 0.984 . S
H727 N723 0.985 . S
H728 N722 0.984 . S
H729 N722 0.984 . S
H730 N718 0.984 . S
H731 N718 0.985 . S
C732 C733 1.363 . S
C732 C738 1.379 . S
C732 N740 1.356 . S
C733 C732 1.363 . S
C733 C739 1.363 . S
C734 C735 1.363 . S
C734 C739 1.379 . S
C734 N741 1.356 . S
C735 C734 1.363 . S
C735 C738 1.363 . S
N736 C738 1.356 . S
N736 H748 0.984 . S
N736 H749 0.985 . S
N737 C739 1.356 . S
N737 H742 0.984 . S
N737 H743 0.985 . S
C738 C732 1.379 . S
C738 C735 1.363 . S
C738 N736 1.356 . S
C739 C733 1.363 . S
C739 C734 1.379 . S
C739 N737 1.356 . S
N740 C732 1.356 . S
N740 H746 0.984 . S
N740 H747 0.984 . S
N741 C734 1.356 . S
N741 H744 0.984 . S
N741 H745 0.985 . S
H742 N737 0.984 . S
H743 N737 0.985 . S
H744 N741 0.984 . S
H745 N741 0.985 . S
H746 N740 0.984 . S
H747 N740 0.984 . S
H748 N736 0.984 . S
H749 N736 0.985 . S
C750 C751 1.363 . S
C750 C756 1.379 . S
C750 N758 1.356 . S
C751 C750 1.363 . S
C751 C757 1.363 . S
C752 C753 1.363 . S
C752 C757 1.379 . S
C752 N759 1.356 . S
C753 C752 1.363 . S
C753 C756 1.363 . S
N754 C756 1.356 . S
N754 H766 0.984 . S
N754 H767 0.985 . S
N755 C757 1.356 . S
N755 H760 0.984 . S
N755 H761 0.985 . S
C756 C750 1.379 . S
C756 C753 1.363 . S
C756 N754 1.356 . S
C757 C751 1.363 . S
C757 C752 1.379 . S
C757 N755 1.356 . S
N758 C750 1.356 . S
N758 H764 0.984 . S
N758 H765 0.984 . S
N759 C752 1.356 . S
N759 H762 0.984 . S
N759 H763 0.985 . S
H760 N755 0.984 . S
H761 N755 0.985 . S
H762 N759 0.984 . S
H763 N759 0.985 . S
H764 N758 0.984 . S
H765 N758 0.984 . S
H766 N754 0.984 . S
H767 N754 0.985 . S
C768 C769 1.363 . S
C768 C774 1.379 . S
C768 N776 1.356 . S
C769 C768 1.363 . S
C769 C775 1.363 . S
C770 C771 1.363 . S
C770 C775 1.379 . S
C770 N777 1.356 . S
C771 C770 1.363 . S
C771 C774 1.363 . S
N772 C774 1.356 . S
N772 H784 0.984 . S
N772 H785 0.985 . S
N773 C775 1.356 . S
N773 H778 0.984 . S
N773 H779 0.985 . S
C774 C768 1.379 . S
C774 C771 1.363 . S
C774 N772 1.356 . S
C775 C769 1.363 . S
C775 C770 1.379 . S
C775 N773 1.356 . S
N776 C768 1.356 . S
N776 H782 0.984 . S
N776 H783 0.984 . S
N777 C770 1.356 . S
N777 H780 0.984 . S
N777 H781 0.985 . S
H778 N773 0.984 . S
H779 N773 0.985 . S
H780 N777 0.984 . S
H781 N777 0.985 . S
H782 N776 0.984 . S
H783 N776 0.984 . S
H784 N772 0.984 . S
H785 N772 0.985 . S
C786 C787 1.363 . S
C786 C792 1.379 . S
C786 N794 1.356 . S
C787 C786 1.363 . S
C787 C793 1.363 . S
C788 C789 1.363 . S
C788 C793 1.379 . S
C788 N795 1.356 . S
C789 C788 1.363 . S
C789 C792 1.363 . S
N790 C792 1.356 . S
N790 H802 0.984 . S
N790 H803 0.985 . S
N791 C793 1.356 . S
N791 H796 0.984 . S
N791 H797 0.985 . S
C792 C786 1.379 . S
C792 C789 1.363 . S
C792 N790 1.356 . S
C793 C787 1.363 . S
C793 C788 1.379 . S
C793 N791 1.356 . S
N794 C786 1.356 . S
N794 H800 0.984 . S
N794 H801 0.984 . S
N795 C788 1.356 . S
N795 H798 0.984 . S
N795 H799 0.985 . S
H796 N791 0.984 . S
H797 N791 0.985 . S
H798 N795 0.984 . S
H799 N795 0.985 . S
H800 N794 0.984 . S
H801 N794 0.984 . S
H802 N790 0.984 . S
H803 N790 0.985 . S
C804 C805 1.363 . S
C804 C810 1.379 . S
C804 N812 1.356 . S
C805 C804 1.363 . S
C805 C811 1.363 . S
C806 C807 1.363 . S
C806 C811 1.379 . S
C806 N813 1.356 . S
C807 C806 1.363 . S
C807 C810 1.363 . S
N808 C810 1.356 . S
N808 H820 0.984 . S
N808 H821 0.985 . S
N809 C811 1.356 . S
N809 H814 0.984 . S
N809 H815 0.985 . S
C810 C804 1.379 . S
C810 C807 1.363 . S
C810 N808 1.356 . S
C811 C805 1.363 . S
C811 C806 1.379 . S
C811 N809 1.356 . S
N812 C804 1.356 . S
N812 H818 0.984 . S
N812 H819 0.984 . S
N813 C806 1.356 . S
N813 H816 0.984 . S
N813 H817 0.985 . S
H814 N809 0.984 . S
H815 N809 0.985 . S
H816 N813 0.984 . S
H817 N813 0.985 . S
H818 N812 0.984 . S
H819 N812 0.984 . S
H820 N808 0.984 . S
H821 N808 0.985 . S
C822 C823 1.363 . S
C822 C828 1.379 . S
C822 N830 1.356 . S
C823 C822 1.363 . S
C823 C829 1.363 . S
C824 C825 1.363 . S
C824 C829 1.379 . S
C824 N831 1.356 . S
C825 C824 1.363 . S
C825 C828 1.363 . S
N826 C828 1.356 . S
N826 H838 0.984 . S
N826 H839 0.985 . S
N827 C829 1.356 . S
N827 H832 0.984 . S
N827 H833 0.985 . S
C828 C822 1.379 . S
C828 C825 1.363 . S
C828 N826 1.356 . S
C829 C823 1.363 . S
C829 C824 1.379 . S
C829 N827 1.356 . S
N830 C822 1.356 . S
N830 H836 0.984 . S
N830 H837 0.984 . S
N831 C824 1.356 . S
N831 H834 0.984 . S
N831 H835 0.985 . S
H832 N827 0.984 . S
H833 N827 0.985 . S
H834 N831 0.984 . S
H835 N831 0.985 . S
H836 N830 0.984 . S
H837 N830 0.984 . S
H838 N826 0.984 . S
H839 N826 0.985 . S
C840 C841 1.363 . S
C840 C846 1.379 . S
C840 N848 1.356 . S
C841 C840 1.363 . S
C841 C847 1.363 . S
C842 C843 1.363 . S
C842 C847 1.379 . S
C842 N849 1.356 . S
C843 C842 1.363 . S
C843 C846 1.363 . S
N844 C846 1.356 . S
N844 H856 0.984 . S
N844 H857 0.985 . S
N845 C847 1.356 . S
N845 H850 0.984 . S
N845 H851 0.985 . S
C846 C840 1.379 . S
C846 C843 1.363 . S
C846 N844 1.356 . S
C847 C841 1.363 . S
C847 C842 1.379 . S
C847 N845 1.356 . S
N848 C840 1.356 . S
N848 H854 0.984 . S
N848 H855 0.984 . S
N849 C842 1.356 . S
N849 H852 0.984 . S
N849 H853 0.985 . S
H850 N845 0.984 . S
H851 N845 0.985 . S
H852 N849 0.984 . S
H853 N849 0.985 . S
H854 N848 0.984 . S
H855 N848 0.984 . S
H856 N844 0.984 . S
H857 N844 0.985 . S
C858 C859 1.363 . S
C858 C864 1.379 . S
C858 N866 1.356 . S
C859 C858 1.363 . S
C859 C865 1.363 . S
C860 C861 1.363 . S
C860 C865 1.379 . S
C860 N867 1.356 . S
C861 C860 1.363 . S
C861 C864 1.363 . S
N862 C864 1.356 . S
N862 H874 0.984 . S
N862 H875 0.985 . S
N863 C865 1.356 . S
N863 H868 0.984 . S
N863 H869 0.985 . S
C864 C858 1.379 . S
C864 C861 1.363 . S
C864 N862 1.356 . S
C865 C859 1.363 . S
C865 C860 1.379 . S
C865 N863 1.356 . S
N866 C858 1.356 . S
N866 H872 0.984 . S
N866 H873 0.984 . S
N867 C860 1.356 . S
N867 H870 0.984 . S
N867 H871 0.985 . S
H868 N863 0.984 . S
H869 N863 0.985 . S
H870 N867 0.984 . S
H871 N867 0.985 . S
H872 N866 0.984 . S
H873 N866 0.984 . S
H874 N862 0.984 . S
H875 N862 0.985 . S
C876 C877 1.363 . S
C876 C882 1.379 . S
C876 N884 1.356 . S
C877 C876 1.363 . S
C877 C883 1.363 . S
C878 C879 1.363 . S
C878 C883 1.379 . S
C878 N885 1.356 . S
C879 C878 1.363 . S
C879 C882 1.363 . S
N880 C882 1.356 . S
N880 H892 0.984 . S
N880 H893 0.985 . S
N881 C883 1.356 . S
N881 H886 0.984 . S
N881 H887 0.985 . S
C882 C876 1.379 . S
C882 C879 1.363 . S
C882 N880 1.356 . S
C883 C877 1.363 . S
C883 C878 1.379 . S
C883 N881 1.356 . S
N884 C876 1.356 . S
N884 H890 0.984 . S
N884 H891 0.984 . S
N885 C878 1.356 . S
N885 H888 0.984 . S
N885 H889 0.985 . S
H886 N881 0.984 . S
H887 N881 0.985 . S
H888 N885 0.984 . S
H889 N885 0.985 . S
H890 N884 0.984 . S
H891 N884 0.984 . S
H892 N880 0.984 . S
H893 N880 0.985 . S
C894 C895 1.363 . S
C894 C900 1.379 . S
C894 N902 1.356 . S
C895 C894 1.363 . S
C895 C901 1.363 . S
C896 C897 1.363 . S
C896 C901 1.379 . S
C896 N903 1.356 . S
C897 C896 1.363 . S
C897 C900 1.363 . S
N898 C900 1.356 . S
N898 H910 0.984 . S
N898 H911 0.985 . S
N899 C901 1.356 . S
N899 H904 0.984 . S
N899 H905 0.985 . S
C900 C894 1.379 . S
C900 C897 1.363 . S
C900 N898 1.356 . S
C901 C895 1.363 . S
C901 C896 1.379 . S
C901 N899 1.356 . S
N902 C894 1.356 . S
N902 H908 0.984 . S
N902 H909 0.984 . S
N903 C896 1.356 . S
N903 H906 0.984 . S
N903 H907 0.985 . S
H904 N899 0.984 . S
H905 N899 0.985 . S
H906 N903 0.984 . S
H907 N903 0.985 . S
H908 N902 0.984 . S
H909 N902 0.984 . S
H910 N898 0.984 . S
H911 N898 0.985 . S
C912 C913 1.363 . S
C912 C918 1.379 . S
C912 N920 1.356 . S
C913 C912 1.363 . S
C913 C919 1.363 . S
C914 C915 1.363 . S
C914 C919 1.379 . S
C914 N921 1.356 . S
C915 C914 1.363 . S
C915 C918 1.363 . S
N916 C918 1.356 . S
N916 H928 0.984 . S
N916 H929 0.985 . S
N917 C919 1.356 . S
N917 H922 0.984 . S
N917 H923 0.985 . S
C918 C912 1.379 . S
C918 C915 1.363 . S
C918 N916 1.356 . S
C919 C913 1.363 . S
C919 C914 1.379 . S
C919 N917 1.356 . S
N920 C912 1.356 . S
N920 H926 0.984 . S
N920 H927 0.984 . S
N921 C914 1.356 . S
N921 H924 0.984 . S
N921 H925 0.985 . S
H922 N917 0.984 . S
H923 N917 0.985 . S
H924 N921 0.984 . S
H925 N921 0.985 . S
H926 N920 0.984 . S
H927 N920 0.984 . S
H928 N916 0.984 . S
H929 N916 0.985 . S
C930 C931 1.363 . S
C930 C936 1.379 . S
C930 N938 1.356 . S
C931 C930 1.363 . S
C931 C937 1.363 . S
C932 C933 1.363 . S
C932 C937 1.379 . S
C932 N939 1.356 . S
C933 C932 1.363 . S
C933 C936 1.363 . S
N934 C936 1.356 . S
N934 H946 0.984 . S
N934 H947 0.985 . S
N935 C937 1.356 . S
N935 H940 0.984 . S
N935 H941 0.985 . S
C936 C930 1.379 . S
C936 C933 1.363 . S
C936 N934 1.356 . S
C937 C931 1.363 . S
C937 C932 1.379 . S
C937 N935 1.356 . S
N938 C930 1.356 . S
N938 H944 0.984 . S
N938 H945 0.984 . S
N939 C932 1.356 . S
N939 H942 0.984 . S
N939 H943 0.985 . S
H940 N935 0.984 . S
H941 N935 0.985 . S
H942 N939 0.984 . S
H943 N939 0.985 . S
H944 N938 0.984 . S
H945 N938 0.984 . S
H946 N934 0.984 . S
H947 N934 0.985 . S
C948 C949 1.363 . S
C948 C954 1.379 . S
C948 N956 1.356 . S
C949 C948 1.363 . S
C949 C955 1.363 . S
C950 C951 1.363 . S
C950 C955 1.379 . S
C950 N957 1.356 . S
C951 C950 1.363 . S
C951 C954 1.363 . S
N952 C954 1.356 . S
N952 H964 0.984 . S
N952 H965 0.985 . S
N953 C955 1.356 . S
N953 H958 0.984 . S
N953 H959 0.985 . S
C954 C948 1.379 . S
C954 C951 1.363 . S
C954 N952 1.356 . S
C955 C949 1.363 . S
C955 C950 1.379 . S
C955 N953 1.356 . S
N956 C948 1.356 . S
N956 H962 0.984 . S
N956 H963 0.984 . S
N957 C950 1.356 . S
N957 H960 0.984 . S
N957 H961 0.985 . S
H958 N953 0.984 . S
H959 N953 0.985 . S
H960 N957 0.984 . S
H961 N957 0.985 . S
H962 N956 0.984 . S
H963 N956 0.984 . S
H964 N952 0.984 . S
H965 N952 0.985 . S
C966 C967 1.363 . S
C966 C972 1.379 . S
C966 N974 1.356 . S
C967 C966 1.363 . S
C967 C973 1.363 . S
C968 C969 1.363 . S
C968 C973 1.379 . S
C968 N975 1.356 . S
C969 C968 1.363 . S
C969 C972 1.363 . S
N970 C972 1.356 . S
N970 H982 0.984 . S
N970 H983 0.985 . S
N971 C973 1.356 . S
N971 H976 0.984 . S
N971 H977 0.985 . S
C972 C966 1.379 . S
C972 C969 1.363 . S
C972 N970 1.356 . S
C973 C967 1.363 . S
C973 C968 1.379 . S
C973 N971 1.356 . S
N974 C966 1.356 . S
N974 H980 0.984 . S
N974 H981 0.984 . S
N975 C968 1.356 . S
N975 H978 0.984 . S
N975 H979 0.985 . S
H976 N971 0.984 . S
H977 N971 0.985 . S
H978 N975 0.984 . S
H979 N975 0.985 . S
H980 N974 0.984 . S
H981 N974 0.984 . S
H982 N970 0.984 . S
H983 N970 0.985 . S
C984 C985 1.363 . S
C984 C990 1.379 . S
C984 N992 1.356 . S
C985 C984 1.363 . S
C985 C991 1.363 . S
C986 C987 1.363 . S
C986 C991 1.379 . S
C986 N993 1.356 . S
C987 C986 1.363 . S
C987 C990 1.363 . S
N988 C990 1.356 . S
N988 H1000 0.984 . S
N988 H1001 0.985 . S
N989 C991 1.356 . S
N989 H994 0.984 . S
N989 H995 0.985 . S
C990 C984 1.379 . S
C990 C987 1.363 . S
C990 N988 1.356 . S
C991 C985 1.363 . S
C991 C986 1.379 . S
C991 N989 1.356 . S
N992 C984 1.356 . S
N992 H998 0.984 . S
N992 H999 0.984 . S
N993 C986 1.356 . S
N993 H996 0.984 . S
N993 H997 0.985 . S
H994 N989 0.984 . S
H995 N989 0.985 . S
H996 N993 0.984 . S
H997 N993 0.985 . S
H998 N992 0.984 . S
H999 N992 0.984 . S
H1000 N988 0.984 . S
H1001 N988 0.985 . S
C1002 C1003 1.363 1_556 S
C1002 C1008 1.379 . S
C1002 N1010 1.356 1_556 S
C1003 C1002 1.363 1_554 S
C1003 C1009 1.363 1_554 S
C1004 C1005 1.363 . S
C1004 C1009 1.379 . S
C1004 N1011 1.356 . S
C1005 C1004 1.363 . S
C1005 C1008 1.363 . S
N1006 C1008 1.356 . S
N1006 H1018 0.984 . S
N1006 H1019 0.985 . S
N1007 C1009 1.356 . S
N1007 H1012 0.984 1_556 S
N1007 H1013 0.985 . S
C1008 C1002 1.379 . S
C1008 C1005 1.363 . S
C1008 N1006 1.356 . S
C1009 C1003 1.363 1_556 S
C1009 C1004 1.379 . S
C1009 N1007 1.356 . S
N1010 C1002 1.356 1_554 S
N1010 H1016 0.984 . S
N1010 H1017 0.984 . S
N1011 C1004 1.356 . S
N1011 H1014 0.984 . S
N1011 H1015 0.985 . S
H1012 N1007 0.984 1_554 S
H1013 N1007 0.985 . S
H1014 N1011 0.984 . S
H1015 N1011 0.985 . S
H1016 N1010 0.984 . S
H1017 N1010 0.984 . S
H1018 N1006 0.984 . S
H1019 N1006 0.985 . S
C1020 C1021 1.363 . S
C1020 C1026 1.379 . S
C1020 N1028 1.356 . S
C1021 C1020 1.363 . S
C1021 C1027 1.363 . S
C1022 C1023 1.363 . S
C1022 C1027 1.379 . S
C1022 N1029 1.356 . S
C1023 C1022 1.363 . S
C1023 C1026 1.363 . S
N1024 C1026 1.356 . S
N1024 H1036 0.984 . S
N1024 H1037 0.985 . S
N1025 C1027 1.356 . S
N1025 H1030 0.984 . S
N1025 H1031 0.985 . S
C1026 C1020 1.379 . S
C1026 C1023 1.363 . S
C1026 N1024 1.356 . S
C1027 C1021 1.363 . S
C1027 C1022 1.379 . S
C1027 N1025 1.356 . S
N1028 C1020 1.356 . S
N1028 H1034 0.984 . S
N1028 H1035 0.984 . S
N1029 C1022 1.356 . S
N1029 H1032 0.984 . S
N1029 H1033 0.985 . S
H1030 N1025 0.984 . S
H1031 N1025 0.985 . S
H1032 N1029 0.984 . S
H1033 N1029 0.985 . S
H1034 N1028 0.984 . S
H1035 N1028 0.984 . S
H1036 N1024 0.984 . S
H1037 N1024 0.985 . S
C1038 C1039 1.363 . S
C1038 C1044 1.379 . S
C1038 N1046 1.356 . S
C1039 C1038 1.363 . S
C1039 C1045 1.363 . S
C1040 C1041 1.363 1_554 S
C1040 C1045 1.379 . S
C1040 N1047 1.356 . S
C1041 C1040 1.363 1_556 S
C1041 C1044 1.363 1_556 S
N1042 C1044 1.356 1_556 S
N1042 H1054 0.984 . S
N1042 H1055 0.985 . S
N1043 C1045 1.356 . S
N1043 H1048 0.984 . S
N1043 H1049 0.985 . S
C1044 C1038 1.379 . S
C1044 C1041 1.363 1_554 S
C1044 N1042 1.356 1_554 S
C1045 C1039 1.363 . S
C1045 C1040 1.379 . S
C1045 N1043 1.356 . S
N1046 C1038 1.356 . S
N1046 H1052 0.984 . S
N1046 H1053 0.984 . S
N1047 C1040 1.356 . S
N1047 H1050 0.984 1_554 S
N1047 H1051 0.985 . S
H1048 N1043 0.984 . S
H1049 N1043 0.985 . S
H1050 N1047 0.984 1_556 S
H1051 N1047 0.985 . S
H1052 N1046 0.984 . S
H1053 N1046 0.984 . S
H1054 N1042 0.984 . S
H1055 N1042 0.985 . S
C1056 C1057 1.363 . S
C1056 C1062 1.379 . S
C1056 N1064 1.356 . S
C1057 C1056 1.363 . S
C1057 C1063 1.363 . S
C1058 C1059 1.363 . S
C1058 C1063 1.379 . S
C1058 N1065 1.356 . S
C1059 C1058 1.363 . S
C1059 C1062 1.363 . S
N1060 C1062 1.356 . S
N1060 H1072 0.984 . S
N1060 H1073 0.985 . S
N1061 C1063 1.356 . S
N1061 H1066 0.984 . S
N1061 H1067 0.985 . S
C1062 C1056 1.379 . S
C1062 C1059 1.363 . S
C1062 N1060 1.356 . S
C1063 C1057 1.363 . S
C1063 C1058 1.379 . S
C1063 N1061 1.356 . S
N1064 C1056 1.356 . S
N1064 H1070 0.984 . S
N1064 H1071 0.984 . S
N1065 C1058 1.356 . S
N1065 H1068 0.984 . S
N1065 H1069 0.985 . S
H1066 N1061 0.984 . S
H1067 N1061 0.985 . S
H1068 N1065 0.984 . S
H1069 N1065 0.985 . S
H1070 N1064 0.984 . S
H1071 N1064 0.984 . S
H1072 N1060 0.984 . S
H1073 N1060 0.985 . S
C1074 C1075 1.363 . S
C1074 C1080 1.379 . S
C1074 N1082 1.356 . S
C1075 C1074 1.363 . S
C1075 C1081 1.363 . S
C1076 C1077 1.363 . S
C1076 C1081 1.379 . S
C1076 N1083 1.356 . S
C1077 C1076 1.363 . S
C1077 C1080 1.363 . S
N1078 C1080 1.356 . S
N1078 H1090 0.984 . S
N1078 H1091 0.985 . S
N1079 C1081 1.356 1_655 S
N1079 H1084 0.984 . S
N1079 H1085 0.985 . S
C1080 C1074 1.379 . S
C1080 C1077 1.363 . S
C1080 N1078 1.356 . S
C1081 C1075 1.363 . S
C1081 C1076 1.379 . S
C1081 N1079 1.356 1_455 S
N1082 C1074 1.356 . S
N1082 H1088 0.984 . S
N1082 H1089 0.984 1_455 S
N1083 C1076 1.356 . S
N1083 H1086 0.984 . S
N1083 H1087 0.985 . S
H1084 N1079 0.984 . S
H1085 N1079 0.985 . S
H1086 N1083 0.984 . S
H1087 N1083 0.985 . S
H1088 N1082 0.984 . S
H1089 N1082 0.984 1_655 S
H1090 N1078 0.984 . S
H1091 N1078 0.985 . S
C1092 C1093 1.363 . S
C1092 C1098 1.379 . S
C1092 N1100 1.356 1_655 S
C1093 C1092 1.363 . S
C1093 C1099 1.363 . S
C1094 C1095 1.363 . S
C1094 C1099 1.379 . S
C1094 N1101 1.356 . S
C1095 C1094 1.363 . S
C1095 C1098 1.363 . S
N1096 C1098 1.356 . S
N1096 H1108 0.984 . S
N1096 H1109 0.985 . S
N1097 C1099 1.356 . S
N1097 H1102 0.981 . S
N1097 H1103 0.985 . S
C1098 C1092 1.379 . S
C1098 C1095 1.363 . S
C1098 N1096 1.356 . S
C1099 C1093 1.363 . S
C1099 C1094 1.379 . S
C1099 N1097 1.356 . S
N1100 C1092 1.356 1_455 S
N1100 H1106 0.984 . S
N1100 H1107 0.984 . S
N1101 C1094 1.356 . S
N1101 H1104 0.984 . S
N1101 H1105 0.985 . S
H1102 N1097 0.981 . S
H1103 N1097 0.985 . S
H1104 N1101 0.984 . S
H1105 N1101 0.985 . S
H1106 N1100 0.984 . S
H1107 N1100 0.984 . S
H1108 N1096 0.984 . S
H1109 N1096 0.985 . S
C1110 C1111 1.363 . S
C1110 C1116 1.379 . S
C1110 N1118 1.356 . S
C1111 C1110 1.363 . S
C1111 C1117 1.363 . S
C1112 C1113 1.363 . S
C1112 C1117 1.379 . S
C1112 N1119 1.356 . S
C1113 C1112 1.363 . S
C1113 C1116 1.363 . S
N1114 C1116 1.356 . S
N1114 H1126 0.984 . S
N1114 H1127 0.985 . S
N1115 C1117 1.356 . S
N1115 H1120 0.984 . S
N1115 H1121 0.985 . S
C1116 C1110 1.379 . S
C1116 C1113 1.363 . S
C1116 N1114 1.356 . S
C1117 C1111 1.363 . S
C1117 C1112 1.379 . S
C1117 N1115 1.356 . S
N1118 C1110 1.356 . S
N1118 H1124 0.984 . S
N1118 H1125 0.984 . S
N1119 C1112 1.356 . S
N1119 H1122 0.984 . S
N1119 H1123 0.985 . S
H1120 N1115 0.984 . S
H1121 N1115 0.985 . S
H1122 N1119 0.984 . S
H1123 N1119 0.985 . S
H1124 N1118 0.984 . S
H1125 N1118 0.984 . S
H1126 N1114 0.984 . S
H1127 N1114 0.985 . S
C1128 C1129 1.363 . S
C1128 C1134 1.379 . S
C1128 N1136 1.356 . S
C1129 C1128 1.363 . S
C1129 C1135 1.363 . S
C1130 C1131 1.363 . S
C1130 C1135 1.379 . S
C1130 N1137 1.356 . S
C1131 C1130 1.363 . S
C1131 C1134 1.363 . S
N1132 C1134 1.356 . S
N1132 H1144 0.984 . S
N1132 H1145 0.985 . S
N1133 C1135 1.356 . S
N1133 H1138 0.984 . S
N1133 H1139 0.985 . S
C1134 C1128 1.379 . S
C1134 C1131 1.363 . S
C1134 N1132 1.356 . S
C1135 C1129 1.363 . S
C1135 C1130 1.379 . S
C1135 N1133 1.356 . S
N1136 C1128 1.356 . S
N1136 H1142 0.984 . S
N1136 H1143 0.984 . S
N1137 C1130 1.356 . S
N1137 H1140 0.984 . S
N1137 H1141 0.985 . S
H1138 N1133 0.984 . S
H1139 N1133 0.985 . S
H1140 N1137 0.984 . S
H1141 N1137 0.985 . S
H1142 N1136 0.984 . S
H1143 N1136 0.984 . S
H1144 N1132 0.984 . S
H1145 N1132 0.985 . S
C1146 C1147 1.363 1_545 S
C1146 C1152 1.379 . S
C1146 N1154 1.356 1_545 S
C1147 C1146 1.363 1_565 S
C1147 C1153 1.363 1_565 S
C1148 C1149 1.363 . S
C1148 C1153 1.379 . S
C1148 N1155 1.356 . S
C1149 C1148 1.363 . S
C1149 C1152 1.363 . S
N1150 C1152 1.356 . S
N1150 H1162 0.984 . S
N1150 H1163 0.985 . S
N1151 C1153 1.356 1_565 S
N1151 H1156 0.984 . S
N1151 H1157 0.985 1_565 S
C1152 C1146 1.379 . S
C1152 C1149 1.363 . S
C1152 N1150 1.356 . S
C1153 C1147 1.363 1_545 S
C1153 C1148 1.379 . S
C1153 N1151 1.356 1_545 S
N1154 C1146 1.356 1_565 S
N1154 H1160 0.984 . S
N1154 H1161 0.984 . S
N1155 C1148 1.356 . S
N1155 H1158 0.984 . S
N1155 H1159 0.985 . S
H1156 N1151 0.984 . S
H1157 N1151 0.985 1_545 S
H1158 N1155 0.984 . S
H1159 N1155 0.985 . S
H1160 N1154 0.984 . S
H1161 N1154 0.984 . S
H1162 N1150 0.984 . S
H1163 N1150 0.985 . S
C1164 C1165 1.365 . S
C1164 C1170 1.370 1_545 S
C1164 N1172 1.364 . S
C1165 C1164 1.365 . S
C1165 C1171 1.363 1_545 S
C1166 C1167 1.363 . S
C1166 C1171 1.379 . S
C1166 N1173 1.356 . S
C1167 C1166 1.363 . S
C1167 C1170 1.363 . S
N1168 C1170 1.356 . S
N1168 H1180 0.984 . S
N1168 H1181 0.985 . S
N1169 C1171 1.356 . S
N1169 H1174 0.984 1_565 S
N1169 H1175 0.985 . S
C1170 C1164 1.370 1_565 S
C1170 C1167 1.363 . S
C1170 N1168 1.356 . S
C1171 C1165 1.363 1_565 S
C1171 C1166 1.379 . S
C1171 N1169 1.356 . S
N1172 C1164 1.364 . S
N1172 H1178 0.984 . S
N1172 H1179 0.984 . S
N1173 C1166 1.356 . S
N1173 H1176 0.984 . S
N1173 H1177 0.985 . S
H1174 N1169 0.984 1_545 S
H1175 N1169 0.985 . S
H1176 N1173 0.984 . S
H1177 N1173 0.985 . S
H1178 N1172 0.984 . S
H1179 N1172 0.984 . S
H1180 N1168 0.984 . S
H1181 N1168 0.985 . S
C1182 C1183 1.363 . S
C1182 C1188 1.379 . S
C1182 N1190 1.356 . S
C1183 C1182 1.363 . S
C1183 C1189 1.363 . S
C1184 C1185 1.363 . S
C1184 C1189 1.379 . S
C1184 N1191 1.356 . S
C1185 C1184 1.363 . S
C1185 C1188 1.363 . S
N1186 C1188 1.356 . S
N1186 H1198 0.984 . S
N1186 H1199 0.985 . S
N1187 C1189 1.356 . S
N1187 H1192 0.984 . S
N1187 H1193 0.985 . S
C1188 C1182 1.379 . S
C1188 C1185 1.363 . S
C1188 N1186 1.356 . S
C1189 C1183 1.363 . S
C1189 C1184 1.379 . S
C1189 N1187 1.356 . S
N1190 C1182 1.356 . S
N1190 H1196 0.984 . S
N1190 H1197 0.984 . S
N1191 C1184 1.356 . S
N1191 H1194 0.984 . S
N1191 H1195 0.985 . S
H1192 N1187 0.984 . S
H1193 N1187 0.985 . S
H1194 N1191 0.984 . S
H1195 N1191 0.985 . S
H1196 N1190 0.984 . S
H1197 N1190 0.984 . S
H1198 N1186 0.984 . S
H1199 N1186 0.985 . S
C1200 C1201 1.363 . S
C1200 C1206 1.379 . S
C1200 N1208 1.356 . S
C1201 C1200 1.363 . S
C1201 C1207 1.363 . S
C1202 C1203 1.363 . S
C1202 C1207 1.379 . S
C1202 N1209 1.356 . S
C1203 C1202 1.363 . S
C1203 C1206 1.363 . S
N1204 C1206 1.356 . S
N1204 H1216 0.984 . S
N1204 H1217 0.985 . S
N1205 C1207 1.356 . S
N1205 H1210 0.984 . S
N1205 H1211 0.985 . S
C1206 C1200 1.379 . S
C1206 C1203 1.363 . S
C1206 N1204 1.356 . S
C1207 C1201 1.363 . S
C1207 C1202 1.379 . S
C1207 N1205 1.356 . S
N1208 C1200 1.356 . S
N1208 H1214 0.984 . S
N1208 H1215 0.984 . S
N1209 C1202 1.356 . S
N1209 H1212 0.984 . S
N1209 H1213 0.985 . S
H1210 N1205 0.984 . S
H1211 N1205 0.985 . S
H1212 N1209 0.984 . S
H1213 N1209 0.985 . S
H1214 N1208 0.984 . S
H1215 N1208 0.984 . S
H1216 N1204 0.984 . S
H1217 N1204 0.985 . S
C1218 C1219 1.362 1_554 S
C1218 C1224 1.383 . S
C1218 N1226 1.352 1_554 S
C1219 C1218 1.362 1_556 S
C1219 C1225 1.363 1_556 S
C1220 C1221 1.363 . S
C1220 C1225 1.379 . S
C1220 N1227 1.356 . S
C1221 C1220 1.363 . S
C1221 C1224 1.363 . S
N1222 C1224 1.356 . S
N1222 H1234 0.984 . S
N1222 H1235 0.985 . S
N1223 C1225 1.356 . S
N1223 H1228 0.984 1_554 S
N1223 H1229 0.985 . S
C1224 C1218 1.383 . S
C1224 C1221 1.363 . S
C1224 N1222 1.356 . S
C1225 C1219 1.363 1_554 S
C1225 C1220 1.379 . S
C1225 N1223 1.356 . S
N1226 C1218 1.352 1_556 S
N1226 H1232 0.984 . S
N1226 H1233 0.984 . S
N1227 C1220 1.356 . S
N1227 H1230 0.984 . S
N1227 H1231 0.985 . S
H1228 N1223 0.984 1_556 S
H1229 N1223 0.985 . S
H1230 N1227 0.984 . S
H1231 N1227 0.985 . S
H1232 N1226 0.984 . S
H1233 N1226 0.984 . S
H1234 N1222 0.984 . S
H1235 N1222 0.985 . S
C1236 C1237 1.363 . S
C1236 C1242 1.379 . S
C1236 N1244 1.356 . S
C1237 C1236 1.363 . S
C1237 C1243 1.363 . S
C1238 C1239 1.363 . S
C1238 C1243 1.379 . S
C1238 N1245 1.356 . S
C1239 C1238 1.363 . S
C1239 C1242 1.363 . S
N1240 C1242 1.356 . S
N1240 H1252 0.984 . S
N1240 H1253 0.985 . S
N1241 C1243 1.356 . S
N1241 H1246 0.984 . S
N1241 H1247 0.985 . S
C1242 C1236 1.379 . S
C1242 C1239 1.363 . S
C1242 N1240 1.356 . S
C1243 C1237 1.363 . S
C1243 C1238 1.379 . S
C1243 N1241 1.356 . S
N1244 C1236 1.356 . S
N1244 H1250 0.984 . S
N1244 H1251 0.984 . S
N1245 C1238 1.356 . S
N1245 H1248 0.984 . S
N1245 H1249 0.985 . S
H1246 N1241 0.984 . S
H1247 N1241 0.985 . S
H1248 N1245 0.984 . S
H1249 N1245 0.985 . S
H1250 N1244 0.984 . S
H1251 N1244 0.984 . S
H1252 N1240 0.984 . S
H1253 N1240 0.985 . S
C1254 C1255 1.363 1_556 S
C1254 C1260 1.379 . S
C1254 N1262 1.356 . S
C1255 C1254 1.363 1_554 S
C1255 C1261 1.363 1_554 S
C1256 C1257 1.363 . S
C1256 C1261 1.381 . S
C1256 N1263 1.356 . S
C1257 C1256 1.363 . S
C1257 C1260 1.363 . S
N1258 C1260 1.356 . S
N1258 H1270 0.984 . S
N1258 H1271 0.985 . S
N1259 C1261 1.354 1_554 S
N1259 H1264 0.984 . S
N1259 H1265 0.985 . S
C1260 C1254 1.379 . S
C1260 C1257 1.363 . S
C1260 N1258 1.356 . S
C1261 C1255 1.363 1_556 S
C1261 C1256 1.381 . S
C1261 N1259 1.354 1_556 S
N1262 C1254 1.356 . S
N1262 H1268 0.984 . S
N1262 H1269 0.984 1_556 S
N1263 C1256 1.356 . S
N1263 H1266 0.984 . S
N1263 H1267 0.985 . S
H1264 N1259 0.984 . S
H1265 N1259 0.985 . S
H1266 N1263 0.984 . S
H1267 N1263 0.985 . S
H1268 N1262 0.984 . S
H1269 N1262 0.984 1_554 S
H1270 N1258 0.984 . S
H1271 N1258 0.985 . S
C1272 C1273 1.363 . S
C1272 C1278 1.379 . S
C1272 N1280 1.356 . S
C1273 C1272 1.363 . S
C1273 C1279 1.363 . S
C1274 C1275 1.363 . S
C1274 C1279 1.379 . S
C1274 N1281 1.356 . S
C1275 C1274 1.363 . S
C1275 C1278 1.363 . S
N1276 C1278 1.356 . S
N1276 H1288 0.984 . S
N1276 H1289 0.985 . S
N1277 C1279 1.356 . S
N1277 H1282 0.984 . S
N1277 H1283 0.985 . S
C1278 C1272 1.379 . S
C1278 C1275 1.363 . S
C1278 N1276 1.356 . S
C1279 C1273 1.363 . S
C1279 C1274 1.379 . S
C1279 N1277 1.356 . S
N1280 C1272 1.356 . S
N1280 H1286 0.984 . S
N1280 H1287 0.984 . S
N1281 C1274 1.356 . S
N1281 H1284 0.984 . S
N1281 H1285 0.985 . S
H1282 N1277 0.984 . S
H1283 N1277 0.985 . S
H1284 N1281 0.984 . S
H1285 N1281 0.985 . S
H1286 N1280 0.984 . S
H1287 N1280 0.984 . S
H1288 N1276 0.984 . S
H1289 N1276 0.985 . S
C1290 C1291 1.363 . S
C1290 C1296 1.379 . S
C1290 N1298 1.356 . S
C1291 C1290 1.363 . S
C1291 C1297 1.363 . S
C1292 C1293 1.363 . S
C1292 C1297 1.379 1_455 S
C1292 N1299 1.356 . S
C1293 C1292 1.363 . S
C1293 C1296 1.363 1_455 S
N1294 C1296 1.356 . S
N1294 H1306 0.984 . S
N1294 H1307 0.985 1_655 S
N1295 C1297 1.356 . S
N1295 H1300 0.984 . S
N1295 H1301 0.985 . S
C1296 C1290 1.379 . S
C1296 C1293 1.363 1_655 S
C1296 N1294 1.356 . S
C1297 C1291 1.363 . S
C1297 C1292 1.379 1_655 S
C1297 N1295 1.356 . S
N1298 C1290 1.356 . S
N1298 H1304 0.984 . S
N1298 H1305 0.984 . S
N1299 C1292 1.356 . S
N1299 H1302 0.984 . S
N1299 H1303 0.985 . S
H1300 N1295 0.984 . S
H1301 N1295 0.985 . S
H1302 N1299 0.984 . S
H1303 N1299 0.985 . S
H1304 N1298 0.984 . S
H1305 N1298 0.984 . S
H1306 N1294 0.984 . S
H1307 N1294 0.985 1_455 S
C1308 C1309 1.363 . S
C1308 C1314 1.379 . S
C1308 N1316 1.356 . S
C1309 C1308 1.363 . S
C1309 C1315 1.363 . S
C1310 C1311 1.363 . S
C1310 C1315 1.379 1_655 S
C1310 N1317 1.356 . S
C1311 C1310 1.363 . S
C1311 C1314 1.363 1_655 S
N1312 C1314 1.356 1_655 S
N1312 H1324 0.995 . S
N1312 H1325 0.985 . S
N1313 C1315 1.356 . S
N1313 H1318 0.984 . S
N1313 H1319 0.985 . S
C1314 C1308 1.379 . S
C1314 C1311 1.363 1_455 S
C1314 N1312 1.356 1_455 S
C1315 C1309 1.363 . S
C1315 C1310 1.379 1_455 S
C1315 N1313 1.356 . S
N1316 C1308 1.356 . S
N1316 H1322 0.984 . S
N1316 H1323 0.984 . S
N1317 C1310 1.356 . S
N1317 H1320 0.984 . S
N1317 H1321 0.985 . S
H1318 N1313 0.984 . S
H1319 N1313 0.985 . S
H1320 N1317 0.984 . S
H1321 N1317 0.985 . S
H1322 N1316 0.984 . S
H1323 N1316 0.984 . S
H1324 N1312 0.995 . S
H1325 N1312 0.985 . S
C1326 C1327 1.363 . S
C1326 C1332 1.379 . S
C1326 N1334 1.356 . S
C1327 C1326 1.363 . S
C1327 C1333 1.363 . S
C1328 C1329 1.363 . S
C1328 C1333 1.379 . S
C1328 N1335 1.356 . S
C1329 C1328 1.363 . S
C1329 C1332 1.363 . S
N1330 C1332 1.356 . S
N1330 H1342 0.984 . S
N1330 H1343 0.985 . S
N1331 C1333 1.356 . S
N1331 H1336 0.984 . S
N1331 H1337 0.985 . S
C1332 C1326 1.379 . S
C1332 C1329 1.363 . S
C1332 N1330 1.356 . S
C1333 C1327 1.363 . S
C1333 C1328 1.379 . S
C1333 N1331 1.356 . S
N1334 C1326 1.356 . S
N1334 H1340 0.984 . S
N1334 H1341 0.984 . S
N1335 C1328 1.356 . S
N1335 H1338 0.984 . S
N1335 H1339 0.985 . S
H1336 N1331 0.984 . S
H1337 N1331 0.985 . S
H1338 N1335 0.984 . S
H1339 N1335 0.985 . S
H1340 N1334 0.984 . S
H1341 N1334 0.984 . S
H1342 N1330 0.984 . S
H1343 N1330 0.985 . S
C1344 C1345 1.363 . S
C1344 C1350 1.379 . S
C1344 N1352 1.356 . S
C1345 C1344 1.363 . S
C1345 C1351 1.363 . S
C1346 C1347 1.363 . S
C1346 C1351 1.379 . S
C1346 N1353 1.356 . S
C1347 C1346 1.363 . S
C1347 C1350 1.363 . S
N1348 C1350 1.356 . S
N1348 H1360 0.984 . S
N1348 H1361 0.985 . S
N1349 C1351 1.356 . S
N1349 H1354 0.984 . S
N1349 H1355 0.985 . S
C1350 C1344 1.379 . S
C1350 C1347 1.363 . S
C1350 N1348 1.356 . S
C1351 C1345 1.363 . S
C1351 C1346 1.379 . S
C1351 N1349 1.356 . S
N1352 C1344 1.356 . S
N1352 H1358 0.984 . S
N1352 H1359 0.984 . S
N1353 C1346 1.356 . S
N1353 H1356 0.984 . S
N1353 H1357 0.985 . S
H1354 N1349 0.984 . S
H1355 N1349 0.985 . S
H1356 N1353 0.984 . S
H1357 N1353 0.985 . S
H1358 N1352 0.984 . S
H1359 N1352 0.984 . S
H1360 N1348 0.984 . S
H1361 N1348 0.985 . S
C1362 C1363 1.363 . S
C1362 C1368 1.379 . S
C1362 N1370 1.356 . S
C1363 C1362 1.363 . S
C1363 C1369 1.363 . S
C1364 C1365 1.363 . S
C1364 C1369 1.379 . S
C1364 N1371 1.356 1_565 S
C1365 C1364 1.363 . S
C1365 C1368 1.363 . S
N1366 C1368 1.356 . S
N1366 H1378 0.984 . S
N1366 H1379 0.985 . S
N1367 C1369 1.356 . S
N1367 H1372 0.984 . S
N1367 H1373 0.985 . S
C1368 C1362 1.379 . S
C1368 C1365 1.363 . S
C1368 N1366 1.356 . S
C1369 C1363 1.363 . S
C1369 C1364 1.379 . S
C1369 N1367 1.356 . S
N1370 C1362 1.356 . S
N1370 H1376 0.984 . S
N1370 H1377 0.984 . S
N1371 C1364 1.356 1_545 S
N1371 H1374 0.984 . S
N1371 H1375 0.985 . S
H1372 N1367 0.984 . S
H1373 N1367 0.985 . S
H1374 N1371 0.984 . S
H1375 N1371 0.985 . S
H1376 N1370 0.984 . S
H1377 N1370 0.984 . S
H1378 N1366 0.984 . S
H1379 N1366 0.985 . S
C1380 C1381 1.363 . S
C1380 C1386 1.379 . S
C1380 N1388 1.356 . S
C1381 C1380 1.363 . S
C1381 C1387 1.363 . S
C1382 C1383 1.363 . S
C1382 C1387 1.379 . S
C1382 N1389 1.356 . S
C1383 C1382 1.363 . S
C1383 C1386 1.363 . S
N1384 C1386 1.356 . S
N1384 H1396 0.984 . S
N1384 H1397 0.985 . S
N1385 C1387 1.356 1_565 S
N1385 H1390 0.984 . S
N1385 H1391 0.985 . S
C1386 C1380 1.379 . S
C1386 C1383 1.363 . S
C1386 N1384 1.356 . S
C1387 C1381 1.363 . S
C1387 C1382 1.379 . S
C1387 N1385 1.356 1_545 S
N1388 C1380 1.356 . S
N1388 H1394 0.984 . S
N1388 H1395 0.984 . S
N1389 C1382 1.356 . S
N1389 H1392 0.984 . S
N1389 H1393 0.985 . S
H1390 N1385 0.984 . S
H1391 N1385 0.985 . S
H1392 N1389 0.984 . S
H1393 N1389 0.985 . S
H1394 N1388 0.984 . S
H1395 N1388 0.984 . S
H1396 N1384 0.984 . S
H1397 N1384 0.985 . S
C1398 C1399 1.363 . S
C1398 C1404 1.379 . S
C1398 N1406 1.356 . S
C1399 C1398 1.363 . S
C1399 C1405 1.363 . S
C1400 C1401 1.363 . S
C1400 C1405 1.379 . S
C1400 N1407 1.356 . S
C1401 C1400 1.363 . S
C1401 C1404 1.363 . S
N1402 C1404 1.356 . S
N1402 H1414 0.984 . S
N1402 H1415 0.985 . S
N1403 C1405 1.356 . S
N1403 H1408 0.984 . S
N1403 H1409 0.985 . S
C1404 C1398 1.379 . S
C1404 C1401 1.363 . S
C1404 N1402 1.356 . S
C1405 C1399 1.363 . S
C1405 C1400 1.379 . S
C1405 N1403 1.356 . S
N1406 C1398 1.356 . S
N1406 H1412 0.984 . S
N1406 H1413 0.984 . S
N1407 C1400 1.356 . S
N1407 H1410 0.984 . S
N1407 H1411 0.985 . S
H1408 N1403 0.984 . S
H1409 N1403 0.985 . S
H1410 N1407 0.984 . S
H1411 N1407 0.985 . S
H1412 N1406 0.984 . S
H1413 N1406 0.984 . S
H1414 N1402 0.984 . S
H1415 N1402 0.985 . S
C553 C191 1.928 . S
C555 N12 1.916 . S
C571 N35 1.916 . S
C573 C260 1.928 . S
C589 N58 1.916 . S
C591 C214 1.928 . S
C607 N81 1.916 . S
C609 C237 1.928 . S
C625 C99 1.880 . S
C627 C7 1.901 . S
C643 C30 1.901 . S
C645 C122 1.880 . S
C661 C145 1.880 . S
C663 C53 1.901 . S
C679 C76 1.901 . S
C681 C168 1.880 . S
C697 N104 1.793 . S
C699 N196 1.733 . S
C715 N150 1.793 . S
C717 N219 1.733 . S
C733 N242 1.733 . S
C735 N173 1.793 . S
C751 N127 1.793 . S
C753 N265 1.733 . S
C769 C467 1.845 . S
C771 N288 1.860 . S
C787 N311 1.860 . S
C789 C536 1.845 . S
C805 N334 1.860 . S
C807 C490 1.845 . S
C823 C513 1.845 . S
C825 N357 1.860 . S
C841 N380 1.792 . S
C843 C283 1.781 . S
C859 C306 1.781 . S
C861 N403 1.792 . S
C877 C329 1.781 . S
C879 N426 1.792 . S
C895 N449 1.792 . S
C897 C352 1.781 . S
C913 N472 1.753 . S
C915 C375 1.747 . S
C931 C421 1.747 . S
C933 N495 1.753 . S
C949 C444 1.747 . S
C951 N518 1.753 . S
C967 N541 1.753 . S
C969 C398 1.747 . S
C985 C522 1.944 . S
C987 N2 1.696 . S
C1003 C499 1.944 . S
C1005 N25 1.696 . S
C1021 C545 1.944 . S
C1023 N48 1.696 . S
C1039 N71 1.696 . S
C1041 C476 1.944 . S
C1057 C108 1.674 . S
C1059 C315 1.775 . S
C1075 C292 1.775 1_455 S
C1077 C131 1.674 . S
C1093 C361 1.775 1_655 S
C1095 C154 1.674 . S
C1111 C338 1.775 . S
C1113 C177 1.674 . S
C1129 N186 1.654 . S
C1131 C430 1.888 . S
C1147 C384 1.888 . S
C1149 N209 1.654 . S
C1165 C407 1.888 . S
C1167 N232 1.654 . S
C1183 C453 1.888 . S
C1185 N255 1.654 . S
C1201 C246 1.910 . S
C1203 N278 1.674 . S
C1219 C223 1.910 . S
C1221 N301 1.674 . S
C1237 N324 1.674 . S
C1239 C269 1.910 . S
C1255 C200 1.910 . S
C1257 N347 1.674 . S
C1273 N370 1.671 . S
C1275 C39 1.893 . S
C1291 N393 1.671 . S
C1293 C16 1.893 . S
C1309 N416 1.671 . S
C1311 C85 1.893 . S
C1327 N439 1.671 . S
C1329 C62 1.893 . S
C1345 N462 1.686 . S
C1347 N140 1.820 . S
C1363 N485 1.686 . S
C1365 N94 1.820 1_565 S
C1381 N117 1.820 1_545 S
C1383 N508 1.686 . S
C1399 N531 1.686 . S
C1401 N163 1.820 . S
