# Generated by pormake.
# Topology vba, (4)-cn, num edge types: 1
# Building blocks:
#     Node 0, Type 0, BuildingBlock: GALJAG_clean_sbu_0, # of connection points: 4
#     Node 1, Type 0, BuildingBlock: GALJAG_clean_sbu_0, # of connection points: 4
#     Node 2, Type 0, BuildingBlock: GALJAG_clean_sbu_0, # of connection points: 4
#     Node 3, Type 0, BuildingBlock: GALJAG_clean_sbu_0, # of connection points: 4
#     Node 4, Type 0, BuildingBlock: GALJAG_clean_sbu_0, # of connection points: 4
#     Node 5, Type 0, BuildingBlock: GALJAG_clean_sbu_0, # of connection points: 4
#     Node 6, Type 0, BuildingBlock: GALJAG_clean_sbu_0, # of connection points: 4
#     Node 7, Type 0, BuildingBlock: GALJAG_clean_sbu_0, # of connection points: 4
#     Node 8, Type 0, BuildingBlock: GALJAG_clean_sbu_0, # of connection points: 4
#     Node 9, Type 0, BuildingBlock: GALJAG_clean_sbu_0, # of connection points: 4
#     Node 10, Type 0, BuildingBlock: GALJAG_clean_sbu_0, # of connection points: 4
#     Node 11, Type 0, BuildingBlock: GALJAG_clean_sbu_0, # of connection points: 4
#     Node 12, Type 0, BuildingBlock: GALJAG_clean_sbu_0, # of connection points: 4
#     Node 13, Type 0, BuildingBlock: GALJAG_clean_sbu_0, # of connection points: 4
#     Node 14, Type 0, BuildingBlock: GALJAG_clean_sbu_0, # of connection points: 4
#     Node 15, Type 0, BuildingBlock: GALJAG_clean_sbu_0, # of connection points: 4
#     Node 16, Type 0, BuildingBlock: GALJAG_clean_sbu_0, # of connection points: 4
#     Node 17, Type 0, BuildingBlock: GALJAG_clean_sbu_0, # of connection points: 4
#     Node 18, Type 0, BuildingBlock: GALJAG_clean_sbu_0, # of connection points: 4
#     Node 19, Type 0, BuildingBlock: GALJAG_clean_sbu_0, # of connection points: 4
#     Node 20, Type 0, BuildingBlock: GALJAG_clean_sbu_0, # of connection points: 4
#     Node 21, Type 0, BuildingBlock: GALJAG_clean_sbu_0, # of connection points: 4
#     Node 22, Type 0, BuildingBlock: GALJAG_clean_sbu_0, # of connection points: 4
#     Node 23, Type 0, BuildingBlock: GALJAG_clean_sbu_0, # of connection points: 4
#     Node 24, Type 0, BuildingBlock: GALJAG_clean_sbu_0, # of connection points: 4
#     Node 25, Type 0, BuildingBlock: GALJAG_clean_sbu_0, # of connection points: 4
#     Node 26, Type 0, BuildingBlock: GALJAG_clean_sbu_0, # of connection points: 4
#     Node 27, Type 0, BuildingBlock: GALJAG_clean_sbu_0, # of connection points: 4
#     Node 28, Type 0, BuildingBlock: GALJAG_clean_sbu_0, # of connection points: 4
#     Node 29, Type 0, BuildingBlock: GALJAG_clean_sbu_0, # of connection points: 4
#     Node 30, Type 0, BuildingBlock: GALJAG_clean_sbu_0, # of connection points: 4
#     Node 31, Type 0, BuildingBlock: GALJAG_clean_sbu_0, # of connection points: 4
#     Edge 32, Type (0, 0), BuildingBlock: EZIPEK_clean_linker_0, # of connection points: 2
#     Edge 33, Type (0, 0), BuildingBlock: EZIPEK_clean_linker_0, # of connection points: 2
#     Edge 34, Type (0, 0), BuildingBlock: EZIPEK_clean_linker_0, # of connection points: 2
#     Edge 35, Type (0, 0), BuildingBlock: EZIPEK_clean_linker_0, # of connection points: 2
#     Edge 36, Type (0, 0), BuildingBlock: EZIPEK_clean_linker_0, # of connection points: 2
#     Edge 37, Type (0, 0), BuildingBlock: EZIPEK_clean_linker_0, # of connection points: 2
#     Edge 38, Type (0, 0), BuildingBlock: EZIPEK_clean_linker_0, # of connection points: 2
#     Edge 39, Type (0, 0), BuildingBlock: EZIPEK_clean_linker_0, # of connection points: 2
#     Edge 40, Type (0, 0), BuildingBlock: EZIPEK_clean_linker_0, # of connection points: 2
#     Edge 41, Type (0, 0), BuildingBlock: EZIPEK_clean_linker_0, # of connection points: 2
#     Edge 42, Type (0, 0), BuildingBlock: EZIPEK_clean_linker_0, # of connection points: 2
#     Edge 43, Type (0, 0), BuildingBlock: EZIPEK_clean_linker_0, # of connection points: 2
#     Edge 44, Type (0, 0), BuildingBlock: EZIPEK_clean_linker_0, # of connection points: 2
#     Edge 45, Type (0, 0), BuildingBlock: EZIPEK_clean_linker_0, # of connection points: 2
#     Edge 46, Type (0, 0), BuildingBlock: EZIPEK_clean_linker_0, # of connection points: 2
#     Edge 47, Type (0, 0), BuildingBlock: EZIPEK_clean_linker_0, # of connection points: 2
#     Edge 48, Type (0, 0), BuildingBlock: EZIPEK_clean_linker_0, # of connection points: 2
#     Edge 49, Type (0, 0), BuildingBlock: EZIPEK_clean_linker_0, # of connection points: 2
#     Edge 50, Type (0, 0), BuildingBlock: EZIPEK_clean_linker_0, # of connection points: 2
#     Edge 51, Type (0, 0), BuildingBlock: EZIPEK_clean_linker_0, # of connection points: 2
#     Edge 52, Type (0, 0), BuildingBlock: EZIPEK_clean_linker_0, # of connection points: 2
#     Edge 53, Type (0, 0), BuildingBlock: EZIPEK_clean_linker_0, # of connection points: 2
#     Edge 54, Type (0, 0), BuildingBlock: EZIPEK_clean_linker_0, # of connection points: 2
#     Edge 55, Type (0, 0), BuildingBlock: EZIPEK_clean_linker_0, # of connection points: 2
#     Edge 56, Type (0, 0), BuildingBlock: EZIPEK_clean_linker_0, # of connection points: 2
#     Edge 57, Type (0, 0), BuildingBlock: EZIPEK_clean_linker_0, # of connection points: 2
#     Edge 58, Type (0, 0), BuildingBlock: EZIPEK_clean_linker_0, # of connection points: 2
#     Edge 59, Type (0, 0), BuildingBlock: EZIPEK_clean_linker_0, # of connection points: 2
#     Edge 60, Type (0, 0), BuildingBlock: EZIPEK_clean_linker_0, # of connection points: 2
#     Edge 61, Type (0, 0), BuildingBlock: EZIPEK_clean_linker_0, # of connection points: 2
#     Edge 62, Type (0, 0), BuildingBlock: EZIPEK_clean_linker_0, # of connection points: 2
#     Edge 63, Type (0, 0), BuildingBlock: EZIPEK_clean_linker_0, # of connection points: 2
#     Edge 64, Type (0, 0), BuildingBlock: EZIPEK_clean_linker_0, # of connection points: 2
#     Edge 65, Type (0, 0), BuildingBlock: EZIPEK_clean_linker_0, # of connection points: 2
#     Edge 66, Type (0, 0), BuildingBlock: EZIPEK_clean_linker_0, # of connection points: 2
#     Edge 67, Type (0, 0), BuildingBlock: EZIPEK_clean_linker_0, # of connection points: 2
#     Edge 68, Type (0, 0), BuildingBlock: EZIPEK_clean_linker_0, # of connection points: 2
#     Edge 69, Type (0, 0), BuildingBlock: EZIPEK_clean_linker_0, # of connection points: 2
#     Edge 70, Type (0, 0), BuildingBlock: EZIPEK_clean_linker_0, # of connection points: 2
#     Edge 71, Type (0, 0), BuildingBlock: EZIPEK_clean_linker_0, # of connection points: 2
#     Edge 72, Type (0, 0), BuildingBlock: EZIPEK_clean_linker_0, # of connection points: 2
#     Edge 73, Type (0, 0), BuildingBlock: EZIPEK_clean_linker_0, # of connection points: 2
#     Edge 74, Type (0, 0), BuildingBlock: EZIPEK_clean_linker_0, # of connection points: 2
#     Edge 75, Type (0, 0), BuildingBlock: EZIPEK_clean_linker_0, # of connection points: 2
#     Edge 76, Type (0, 0), BuildingBlock: EZIPEK_clean_linker_0, # of connection points: 2
#     Edge 77, Type (0, 0), BuildingBlock: EZIPEK_clean_linker_0, # of connection points: 2
#     Edge 78, Type (0, 0), BuildingBlock: EZIPEK_clean_linker_0, # of connection points: 2
#     Edge 79, Type (0, 0), BuildingBlock: EZIPEK_clean_linker_0, # of connection points: 2
#     Edge 80, Type (0, 0), BuildingBlock: EZIPEK_clean_linker_0, # of connection points: 2
#     Edge 81, Type (0, 0), BuildingBlock: EZIPEK_clean_linker_0, # of connection points: 2
#     Edge 82, Type (0, 0), BuildingBlock: EZIPEK_clean_linker_0, # of connection points: 2
#     Edge 83, Type (0, 0), BuildingBlock: EZIPEK_clean_linker_0, # of connection points: 2
#     Edge 84, Type (0, 0), BuildingBlock: EZIPEK_clean_linker_0, # of connection points: 2
#     Edge 85, Type (0, 0), BuildingBlock: EZIPEK_clean_linker_0, # of connection points: 2
#     Edge 86, Type (0, 0), BuildingBlock: EZIPEK_clean_linker_0, # of connection points: 2
#     Edge 87, Type (0, 0), BuildingBlock: EZIPEK_clean_linker_0, # of connection points: 2
#     Edge 88, Type (0, 0), BuildingBlock: EZIPEK_clean_linker_0, # of connection points: 2
#     Edge 89, Type (0, 0), BuildingBlock: EZIPEK_clean_linker_0, # of connection points: 2
#     Edge 90, Type (0, 0), BuildingBlock: EZIPEK_clean_linker_0, # of connection points: 2
#     Edge 91, Type (0, 0), BuildingBlock: EZIPEK_clean_linker_0, # of connection points: 2
#     Edge 92, Type (0, 0), BuildingBlock: EZIPEK_clean_linker_0, # of connection points: 2
#     Edge 93, Type (0, 0), BuildingBlock: EZIPEK_clean_linker_0, # of connection points: 2
#     Edge 94, Type (0, 0), BuildingBlock: EZIPEK_clean_linker_0, # of connection points: 2
#     Edge 95, Type (0, 0), BuildingBlock: EZIPEK_clean_linker_0, # of connection points: 2
# Relax obj value: 0.079
# Max RMSD: 0.280
# Mean RMSD: 0.277
data_MOF--net-vba--node1-GALJAG_clean_sbu_0--edge1-EZIPEK_clean_linker_0
_symmetry_space_group_name_H-M    P1
_symmetry_Int_Tables_number       1
_symmetry_cell_setting            triclinic
loop_
_symmetry_equiv_pos_as_xyz
'x, y, z'
_cell_length_a     15.628768
_cell_length_b     69.685652
_cell_length_c     39.365215
_cell_angle_alpha  90.001909
_cell_angle_beta   90.120562
_cell_angle_gamma 89.853709
loop_
_atom_site_label
_atom_site_type_symbol
_atom_site_fract_x
_atom_site_fract_y
_atom_site_fract_z
_atom_type_partial_charge
In0 In 0.42588 0.05823 0.04623 0.0
O1 O 0.4028 0.04355 0.99526 0.0
O2 O 0.49478 0.06639 0.99878 0.0
C3 C 0.34153 0.04828 0.10241 0.0
C4 C 0.57295 0.04001 0.05702 0.0
C5 C 0.33191 0.09016 0.03703 0.0
O6 O 0.32281 0.04115 0.07359 0.0
O7 O 0.40609 0.05931 0.10281 0.0
O8 O 0.40933 0.09101 0.04719 0.0
O9 O 0.30397 0.07339 0.0317 0.0
C10 C 0.45879 0.05386 0.98044 0.0
O11 O 0.56732 0.0581 0.06133 0.0
O12 O 0.5036 0.03145 0.05014 0.0
In13 In 0.01314 0.18631 0.00244 0.0
O14 O 0.01575 0.19552 0.94676 0.0
O15 O 0.9296 0.17319 0.96198 0.0
C16 C 0.11801 0.20396 0.04545 0.0
C17 C 0.87473 0.20673 0.01774 0.0
C18 C 0.09663 0.15314 0.01134 0.0
O19 O 0.12877 0.20551 0.01353 0.0
O20 O 0.0539 0.19431 0.05481 0.0
O21 O 0.02584 0.15645 0.02609 0.0
O22 O 0.12154 0.16593 0.99084 0.0
C23 C 0.95507 0.18426 0.93866 0.0
O24 O 0.87921 0.18897 0.02514 0.0
O25 O 0.94102 0.214 0.00473 0.0
In26 In 0.24637 0.2043 0.24324 0.0
O27 O 0.26595 0.23628 0.2424 0.0
O28 O 0.16804 0.22589 0.27501 0.0
C29 C 0.15861 0.17082 0.24531 0.0
C30 C 0.37667 0.20069 0.28777 0.0
C31 C 0.24517 0.20971 0.17559 0.0
O32 O 0.23606 0.1718 0.2364 0.0
O33 O 0.12536 0.18664 0.25396 0.0
O34 O 0.17864 0.21057 0.19372 0.0
O35 O 0.31374 0.20642 0.19175 0.0
C36 C 0.21106 0.24012 0.26479 0.0
O37 O 0.29926 0.20153 0.29647 0.0
O38 O 0.38968 0.20059 0.25606 0.0
In39 In 0.95775 0.05802 0.24687 0.0
O40 O 0.83592 0.05038 0.21745 0.0
O41 O 0.90459 0.02801 0.24318 0.0
C42 C 0.99854 0.09572 0.24575 0.0
C43 C 0.89853 0.05615 0.31059 0.0
C44 C 0.08944 0.04661 0.20824 0.0
O45 O 0.9385 0.08903 0.22748 0.0
O46 O 0.03443 0.08365 0.265 0.0
O47 O 0.08874 0.04344 0.23999 0.0
O48 O 0.02389 0.05495 0.19657 0.0
C49 C 0.8394 0.0328 0.22605 0.0
O50 O 0.9735 0.0505 0.303 0.0
O51 O 0.85548 0.06291 0.28615 0.0
In52 In 0.70681 0.9422 0.99151 0.0
O53 O 0.69452 0.97446 0.9898 0.0
O54 O 0.78047 0.96303 0.02643 0.0
C55 C 0.78149 0.90725 0.99855 0.0
C56 C 0.56409 0.94148 0.0296 0.0
C57 C 0.73323 0.94605 0.92443 0.0
O58 O 0.70857 0.90961 0.9853 0.0
O59 O 0.81686 0.92247 0.00904 0.0
O60 O 0.79102 0.94882 0.94637 0.0
O61 O 0.66052 0.94165 0.93624 0.0
C62 C 0.74427 0.97781 0.01434 0.0
O63 O 0.63794 0.93849 0.04136 0.0
O64 O 0.56022 0.94368 0.99773 0.0
In65 In 0.02224 0.79734 0.99779 0.0
O66 O 0.07965 0.80293 0.04933 0.0
O67 O 0.16704 0.79961 0.0081 0.0
C68 C 0.00146 0.78879 0.93162 0.0
C69 C 0.99935 0.76209 0.02347 0.0
C70 C 0.94315 0.83192 1.00002 0.0
O71 O 0.94168 0.78751 0.95309 0.0
O72 O 0.07236 0.7946 0.94341 0.0
O73 O 0.01625 0.82948 0.98703 0.0
O74 O 0.90916 0.81691 0.0121 0.0
C75 C 0.15637 0.80163 0.03981 0.0
O76 O 0.0543 0.76606 0.00122 0.0
O77 O 0.95012 0.7758 0.03184 0.0
In78 In 0.79367 0.78654 0.74134 0.0
O79 O 0.83538 0.77889 0.68677 0.0
O80 O 0.72526 0.79661 0.6951 0.0
C81 C 0.88004 0.77678 0.79725 0.0
C82 C 0.65067 0.76694 0.75054 0.0
C83 C 0.85948 0.8214 0.74497 0.0
O84 O 0.90226 0.77019 0.76836 0.0
O85 O 0.81299 0.78695 0.79753 0.0
O86 O 0.78263 0.81812 0.75364 0.0
O87 O 0.90152 0.80714 0.73414 0.0
C88 C 0.77442 0.7887 0.67386 0.0
O89 O 0.65481 0.78484 0.75606 0.0
O90 O 0.71977 0.75875 0.74169 0.0
In91 In 0.0127 0.93564 0.75016 0.0
O92 O 0.98718 0.94654 0.696 0.0
O93 O 0.08894 0.92645 0.70471 0.0
C94 C 0.89502 0.94523 0.79642 0.0
C95 C 0.14011 0.95914 0.76551 0.0
C96 C 0.98161 0.89845 0.75404 0.0
O97 O 0.88155 0.94807 0.76499 0.0
O98 O 0.96715 0.93826 0.80395 0.0
O99 O 0.04569 0.90578 0.7689 0.0
O100 O 0.93453 0.9098 0.73729 0.0
C101 C 0.04902 0.93687 0.68382 0.0
O102 O 0.14578 0.94126 0.77083 0.0
O103 O 0.06936 0.96512 0.75407 0.0
In104 In 0.37684 0.58096 0.52545 0.0
O105 O 0.32163 0.56542 0.47953 0.0
O106 O 0.42686 0.58468 0.47253 0.0
C107 C 0.3065 0.56788 0.58276 0.0
C108 C 0.52205 0.56114 0.53072 0.0
C109 C 0.3055 0.61605 0.52318 0.0
O110 O 0.27513 0.56415 0.55378 0.0
O111 O 0.37326 0.57814 0.58256 0.0
O112 O 0.38505 0.61387 0.52882 0.0
O113 O 0.26376 0.60071 0.51957 0.0
C114 C 0.37652 0.57257 0.45952 0.0
O115 O 0.52282 0.5793 0.53433 0.0
O116 O 0.4492 0.5537 0.52652 0.0
In117 In 0.99999 0.71612 0.50936 0.0
O118 O 0.97363 0.71087 0.45351 0.0
O119 O 0.86869 0.70718 0.48737 0.0
C120 C 0.97999 0.72072 0.57687 0.0
C121 C 0.01907 0.7524 0.48886 0.0
C122 C 0.10853 0.68616 0.51216 0.0
O123 O 0.04738 0.72524 0.56124 0.0
O124 O 0.9201 0.71439 0.55827 0.0
O125 O 0.02918 0.68452 0.51724 0.0
O126 O 0.13366 0.70288 0.50484 0.0
C127 C 0.8954 0.70708 0.45701 0.0
O128 O 0.95429 0.74657 0.50485 0.0
O129 O 0.07771 0.74012 0.48448 0.0
In130 In 0.18767 0.70576 0.76227 0.0
O131 O 0.14107 0.71557 0.81532 0.0
O132 O 0.24327 0.6953 0.81137 0.0
C133 C 0.08369 0.71851 0.71249 0.0
C134 C 0.3311 0.72596 0.75502 0.0
C135 C 0.15863 0.66844 0.75223 0.0
O136 O 0.06185 0.71975 0.7434 0.0
O137 O 0.15726 0.71172 0.70738 0.0
O138 O 0.22622 0.6764 0.7418 0.0
O139 O 0.1066 0.67919 0.76771 0.0
C140 C 0.1961 0.70521 0.8305 0.0
O141 O 0.32635 0.70848 0.7467 0.0
O142 O 0.26265 0.73349 0.76577 0.0
In143 In 0.00352 0.55353 0.75032 0.0
O144 O 0.01094 0.54801 0.80696 0.0
O145 O 0.90581 0.56467 0.78654 0.0
C146 C 0.11591 0.54751 0.7013 0.0
C147 C 0.89873 0.52437 0.74083 0.0
C148 C 0.05306 0.58958 0.75087 0.0
O149 O 0.13303 0.54291 0.73193 0.0
O150 O 0.04076 0.55367 0.69564 0.0
O151 O 0.98336 0.58462 0.73641 0.0
O152 O 0.09526 0.57628 0.76531 0.0
C153 C 0.94096 0.55702 0.81228 0.0
O154 O 0.8825 0.54087 0.72842 0.0
O155 O 0.9706 0.52243 0.75555 0.0
In156 In 0.74349 0.45902 0.48013 0.0
O157 O 0.65768 0.48491 0.48057 0.0
O158 O 0.78407 0.48864 0.50063 0.0
C159 C 0.85632 0.43026 0.47621 0.0
C160 C 0.67052 0.44866 0.53841 0.0
C161 C 0.72781 0.46094 0.41301 0.0
O162 O 0.77688 0.42803 0.47112 0.0
O163 O 0.88005 0.44728 0.48338 0.0
O164 O 0.79124 0.4678 0.429 0.0
O165 O 0.66954 0.45362 0.43135 0.0
C166 C 0.71021 0.49583 0.49537 0.0
O167 O 0.74995 0.45151 0.53552 0.0
O168 O 0.62833 0.44905 0.51075 0.0
In169 In 0.02474 0.3176 0.48203 0.0
O170 O 0.98955 0.30831 0.53631 0.0
O171 O 0.10818 0.32268 0.52767 0.0
C172 C 0.90496 0.30619 0.43687 0.0
C173 C 0.14314 0.2907 0.47081 0.0
C174 C 0.00814 0.35607 0.47464 0.0
O175 O 0.88683 0.30882 0.46793 0.0
O176 O 0.98267 0.30876 0.42953 0.0
O177 O 0.0681 0.34686 0.46029 0.0
O178 O 0.95901 0.34601 0.4927 0.0
C179 C 0.06012 0.31419 0.54852 0.0
O180 O 0.15475 0.308 0.46167 0.0
O181 O 0.07106 0.28705 0.48373 0.0
In182 In 0.55956 0.30894 0.278 0.0
O183 O 0.57879 0.29195 0.22873 0.0
O184 O 0.48954 0.31527 0.22926 0.0
C185 C 0.65397 0.29685 0.33062 0.0
C186 C 0.40286 0.2981 0.29616 0.0
C187 C 0.66311 0.33912 0.26875 0.0
O188 O 0.65523 0.28811 0.3023 0.0
O189 O 0.60125 0.31059 0.33265 0.0
O190 O 0.59144 0.34096 0.28367 0.0
O191 O 0.67895 0.32255 0.25742 0.0
C192 C 0.52468 0.30202 0.21234 0.0
O193 O 0.42215 0.31577 0.29419 0.0
O194 O 0.46385 0.28644 0.29144 0.0
In195 In 0.97982 0.43523 0.2461 0.0
O196 O 0.11447 0.43838 0.26849 0.0
O197 O 0.04957 0.46332 0.2493 0.0
C198 C 0.90531 0.40104 0.25476 0.0
C199 C 0.02861 0.4333 0.1815 0.0
C200 C 0.86471 0.45159 0.28635 0.0
O201 O 0.97394 0.4053 0.27039 0.0
O202 O 0.87896 0.4134 0.23368 0.0
O203 O 0.85974 0.45349 0.25432 0.0
O204 O 0.92838 0.44226 0.29738 0.0
C205 C 0.11695 0.45623 0.26191 0.0
O206 O 0.96891 0.44449 0.19088 0.0
O207 O 0.05964 0.42255 0.2043 0.0
In208 In 0.78489 0.05833 0.51627 0.0
O209 O 0.73868 0.04404 0.46747 0.0
O210 O 0.83429 0.06638 0.46535 0.0
C211 C 0.7384 0.04914 0.57919 0.0
C212 C 0.92483 0.0374 0.51722 0.0
C213 C 0.70219 0.09152 0.51288 0.0
O214 O 0.69718 0.04297 0.55346 0.0
O215 O 0.80243 0.05964 0.57268 0.0
O216 O 0.78179 0.09078 0.51974 0.0
O217 O 0.66495 0.07557 0.50861 0.0
C218 C 0.78955 0.05414 0.44958 0.0
O219 O 0.92891 0.05551 0.52152 0.0
O220 O 0.85063 0.03025 0.51424 0.0
In221 In 0.50807 0.20169 0.48188 0.0
O222 O 0.58111 0.21101 0.4341 0.0
O223 O 0.46746 0.19386 0.42925 0.0
C224 C 0.56689 0.20849 0.54458 0.0
C225 C 0.38915 0.22901 0.47997 0.0
C226 C 0.54206 0.16446 0.4882 0.0
O227 O 0.6111 0.21289 0.51859 0.0
O228 O 0.49412 0.20136 0.53852 0.0
O229 O 0.46583 0.17074 0.49072 0.0
O230 O 0.59851 0.17686 0.48119 0.0
C231 C 0.52732 0.20279 0.41462 0.0
O232 O 0.36933 0.2115 0.48439 0.0
O233 O 0.46832 0.23256 0.47766 0.0
In234 In 0.72712 0.19156 0.74597 0.0
O235 O 0.85867 0.20258 0.73534 0.0
O236 O 0.76161 0.22211 0.75494 0.0
C237 C 0.65032 0.15799 0.74619 0.0
C238 C 0.77401 0.18725 0.81006 0.0
C239 C 0.67032 0.20117 0.68472 0.0
O240 O 0.72891 0.15971 0.73819 0.0
O241 O 0.61067 0.17342 0.75366 0.0
O242 O 0.63175 0.20688 0.71145 0.0
O243 O 0.73595 0.19063 0.68941 0.0
C244 C 0.83886 0.21933 0.74587 0.0
O245 O 0.70596 0.19654 0.80233 0.0
O246 O 0.81396 0.1795 0.78548 0.0
In247 In 0.51924 0.04393 0.77041 0.0
O248 O 0.38495 0.03333 0.76072 0.0
O249 O 0.48146 0.01294 0.77551 0.0
C250 C 0.52549 0.08171 0.76208 0.0
C251 C 0.52699 0.04448 0.83804 0.0
C252 C 0.61092 0.03719 0.71428 0.0
O253 O 0.45784 0.07244 0.75534 0.0
O254 O 0.58759 0.07202 0.77344 0.0
O255 O 0.64395 0.0353 0.7436 0.0
O256 O 0.53245 0.04143 0.71379 0.0
C257 C 0.40408 0.01612 0.76792 0.0
O258 O 0.58643 0.03677 0.82075 0.0
O259 O 0.46663 0.0519 0.82118 0.0
In260 In 0.25918 0.94594 0.48819 0.0
O261 O 0.13626 0.96183 0.48108 0.0
O262 O 0.24628 0.9771 0.50143 0.0
C263 C 0.35448 0.91455 0.48594 0.0
C264 C 0.20511 0.93974 0.55073 0.0
C265 C 0.29622 0.95397 0.4244 0.0
O266 O 0.2748 0.91427 0.47894 0.0
O267 O 0.38516 0.9307 0.4951 0.0
O268 O 0.3414 0.96037 0.44891 0.0
O269 O 0.23186 0.9437 0.43233 0.0
C270 C 0.16703 0.97729 0.49339 0.0
O271 O 0.27629 0.94805 0.54487 0.0
O272 O 0.16499 0.93337 0.5248 0.0
In273 In 0.66519 0.81508 0.46786 0.0
O274 O 0.80238 0.82493 0.45757 0.0
O275 O 0.77014 0.79559 0.44964 0.0
C276 C 0.57529 0.84794 0.47433 0.0
C277 C 0.69468 0.80402 0.5324 0.0
C278 C 0.5745 0.79932 0.41692 0.0
O279 O 0.64329 0.84705 0.45705 0.0
O280 O 0.5534 0.83249 0.48852 0.0
O281 O 0.56875 0.79318 0.4471 0.0
O282 O 0.62542 0.81313 0.4127 0.0
C283 C 0.82784 0.80821 0.45016 0.0
O284 O 0.6478 0.79419 0.51273 0.0
O285 O 0.72315 0.81935 0.51981 0.0
In286 In 0.29557 0.79252 0.23591 0.0
O287 O 0.35483 0.78365 0.18488 0.0
O288 O 0.24155 0.80123 0.18575 0.0
C289 C 0.37681 0.78688 0.29503 0.0
C290 C 0.17188 0.76622 0.2402 0.0
C291 C 0.33238 0.82984 0.23872 0.0
O292 O 0.41412 0.784 0.26676 0.0
O293 O 0.29783 0.79069 0.29288 0.0
O294 O 0.25848 0.82367 0.24672 0.0
O295 O 0.38594 0.81722 0.22974 0.0
C296 C 0.29779 0.79277 0.16817 0.0
O297 O 0.15699 0.784 0.24449 0.0
O298 O 0.24914 0.76175 0.23424 0.0
In299 In 0.45382 0.94756 0.22036 0.0
O300 O 0.37307 0.95782 0.17472 0.0
O301 O 0.48144 0.93944 0.16655 0.0
C302 C 0.39514 0.95536 0.28284 0.0
C303 C 0.57808 0.97402 0.21861 0.0
C304 C 0.43031 0.90966 0.22779 0.0
O305 O 0.34673 0.95693 0.25697 0.0
O306 O 0.47197 0.95103 0.27643 0.0
O307 O 0.50491 0.91679 0.22592 0.0
O308 O 0.36957 0.92161 0.2256 0.0
C309 C 0.42046 0.9489 0.15371 0.0
O310 O 0.59391 0.95648 0.22493 0.0
O311 O 0.50014 0.97799 0.21316 0.0
In312 In 0.73166 0.55333 0.00689 0.0
O313 O 0.86512 0.54186 0.01308 0.0
O314 O 0.76344 0.52245 0.99755 0.0
C315 C 0.62776 0.58343 0.01149 0.0
C316 C 0.77161 0.55742 0.9426 0.0
C317 C 0.6999 0.54329 0.07013 0.0
O318 O 0.70737 0.5847 0.01852 0.0
O319 O 0.60182 0.56707 0.00146 0.0
O320 O 0.64935 0.53894 0.04582 0.0
O321 O 0.76674 0.55256 0.06178 0.0
C322 C 0.84291 0.52503 0.00376 0.0
O323 O 0.70739 0.54736 0.95165 0.0
O324 O 0.8102 0.56667 0.96601 0.0
In325 In 0.33169 0.68421 0.0351 0.0
O326 O 0.3525 0.70109 0.98558 0.0
O327 O 0.25534 0.67955 0.98731 0.0
C328 C 0.43912 0.69565 0.08434 0.0
C329 C 0.18443 0.7004 0.0547 0.0
C330 C 0.40534 0.64948 0.02721 0.0
O331 O 0.4451 0.70203 0.05424 0.0
O332 O 0.37786 0.68424 0.08954 0.0
O333 O 0.33857 0.65169 0.0451 0.0
O334 O 0.43237 0.66444 0.01277 0.0
C335 C 0.29198 0.6925 0.97029 0.0
O336 O 0.19265 0.68227 0.05358 0.0
O337 O 0.2516 0.70982 0.04864 0.0
In338 In 0.75957 0.6883 0.25644 0.0
O339 O 0.70715 0.7027 0.30479 0.0
O340 O 0.81195 0.68304 0.30904 0.0
C341 C 0.66753 0.69685 0.20012 0.0
C342 C 0.89587 0.71095 0.24699 0.0
C343 C 0.72059 0.65068 0.25543 0.0
O344 O 0.63515 0.69752 0.22964 0.0
O345 O 0.74673 0.69335 0.19973 0.0
O346 O 0.79368 0.65663 0.24625 0.0
O347 O 0.66918 0.66349 0.26523 0.0
C348 C 0.76226 0.69463 0.32385 0.0
O349 O 0.90057 0.69286 0.24318 0.0
O350 O 0.82264 0.71743 0.25458 0.0
In351 In 0.50126 0.54013 0.26133 0.0
O352 O 0.5219 0.53837 0.31751 0.0
O353 O 0.41358 0.5545 0.29742 0.0
C354 C 0.57847 0.53092 0.20473 0.0
C355 C 0.39042 0.51146 0.26122 0.0
C356 C 0.57893 0.57397 0.25851 0.0
O357 O 0.60852 0.52545 0.23332 0.0
O358 O 0.50766 0.53995 0.20515 0.0
O359 O 0.50247 0.57165 0.24775 0.0
O360 O 0.6155 0.55908 0.27051 0.0
C361 C 0.45608 0.5488 0.32314 0.0
O362 O 0.3723 0.52773 0.2482 0.0
O363 O 0.46555 0.50958 0.27337 0.0
In364 In 0.19461 0.43468 0.9802 0.0
O365 O 0.23144 0.442 0.03418 0.0
O366 O 0.12095 0.42404 0.02426 0.0
C367 C 0.2459 0.44491 0.9189 0.0
C368 C 0.07963 0.46235 0.98206 0.0
C369 C 0.27123 0.40053 0.98012 0.0
O370 O 0.28992 0.44881 0.94533 0.0
O371 O 0.17613 0.436 0.92396 0.0
O372 O 0.19187 0.40236 0.97306 0.0
O373 O 0.31128 0.41604 0.98602 0.0
C374 C 0.16708 0.43284 0.04584 0.0
O375 O 0.05912 0.4453 0.97338 0.0
O376 O 0.15839 0.46536 0.98836 0.0
In377 In 0.49086 0.29011 0.00142 0.0
O378 O 0.62771 0.27981 0.00347 0.0
O379 O 0.52551 0.25905 0.00788 0.0
C380 C 0.43275 0.32576 0.9942 0.0
C381 C 0.47628 0.29136 0.06831 0.0
C382 C 0.45446 0.28355 0.93651 0.0
O383 O 0.51238 0.32191 0.99185 0.0
O384 O 0.38404 0.31168 0.00065 0.0
O385 O 0.40213 0.27906 0.96005 0.0
O386 O 0.52627 0.28999 0.94631 0.0
C387 C 0.60543 0.26238 0.00762 0.0
O388 O 0.42232 0.28202 0.0504 0.0
O389 O 0.53466 0.30009 0.05218 0.0
In390 In 0.22048 0.30158 0.75107 0.0
O391 O 0.25064 0.29298 0.69613 0.0
O392 O 0.14775 0.31273 0.7062 0.0
C393 C 0.31523 0.2884 0.80247 0.0
C394 C 0.08951 0.27842 0.75832 0.0
C395 C 0.27284 0.33747 0.75694 0.0
O396 O 0.33803 0.28566 0.77184 0.0
O397 O 0.24561 0.29735 0.80656 0.0
O398 O 0.20076 0.33232 0.76858 0.0
O399 O 0.31696 0.32462 0.74247 0.0
C400 C 0.18954 0.30319 0.68453 0.0
O401 O 0.08436 0.29585 0.7676 0.0
O402 O 0.16116 0.27279 0.74721 0.0
In403 In 0.49819 0.44565 0.73844 0.0
O404 O 0.46361 0.4572 0.68587 0.0
O405 O 0.55766 0.43481 0.6904 0.0
C406 C 0.40258 0.45703 0.79039 0.0
C407 C 0.63655 0.46688 0.74826 0.0
C408 C 0.43417 0.41072 0.74432 0.0
O409 O 0.3818 0.46126 0.76006 0.0
O410 O 0.4728 0.44823 0.79401 0.0
O411 O 0.50979 0.41439 0.75432 0.0
O412 O 0.39419 0.42441 0.73034 0.0
C413 C 0.51688 0.44615 0.67125 0.0
O414 O 0.63865 0.44886 0.75305 0.0
O415 O 0.56434 0.47392 0.74066 0.0
C416 C 0.25121 0.02866 0.14318 0.0
C417 C 0.28369 0.0467 0.13234 0.0
C418 C 0.21112 0.0623 0.18001 0.0
C419 C 0.16729 0.0451 0.18714 0.0
N420 N 0.14125 0.01181 0.17509 0.0
N421 N 0.27398 0.08134 0.13587 0.0
C422 C 0.1865 0.02815 0.16877 0.0
C423 C 0.25907 0.06371 0.14977 0.0
N424 N 0.28325 0.0121 0.12963 0.0
N425 N 0.20539 0.07749 0.20184 0.0
H426 H 0.29948 0.08307 0.11172 0.0
H427 H 0.25017 0.09405 0.14616 0.0
H428 H 0.17103 0.0768 0.22449 0.0
H429 H 0.242 0.08989 0.19919 0.0
H430 H 0.26769 0.9985 0.13864 0.0
H431 H 0.33125 0.01203 0.11127 0.0
H432 H 0.14538 0.99953 0.16008 0.0
H433 H 0.09612 0.01096 0.19454 0.0
C434 C 0.18724 0.2277 0.12598 0.0
C435 C 0.24023 0.21264 0.13821 0.0
C436 C 0.24839 0.19963 0.08043 0.0
C437 C 0.1781 0.21134 0.07127 0.0
N438 N 0.08526 0.23797 0.08302 0.0
N439 N 0.32731 0.18461 0.12633 0.0
C440 C 0.15021 0.22613 0.09315 0.0
C441 C 0.27493 0.199 0.11505 0.0
N442 N 0.17268 0.24342 0.14592 0.0
N443 N 0.28707 0.18864 0.05617 0.0
H444 H 0.34854 0.18342 0.15128 0.0
H445 H 0.34689 0.17314 0.11127 0.0
H446 H 0.26714 0.18884 0.03085 0.0
H447 H 0.34293 0.18081 0.06034 0.0
H448 H 0.13947 0.25553 0.13764 0.0
H449 H 0.20165 0.24508 0.16966 0.0
H450 H 0.05432 0.24756 0.09918 0.0
H451 H 0.0605 0.23758 0.05836 0.0
C452 C 0.77869 0.93226 0.83256 0.0
C453 C 0.83003 0.9481 0.82317 0.0
C454 C 0.78837 0.96489 0.87521 0.0
C455 C 0.75184 0.94763 0.88758 0.0
N456 N 0.71273 0.9145 0.87842 0.0
N457 N 0.88347 0.9798 0.83429 0.0
C458 C 0.74512 0.93131 0.86609 0.0
C459 C 0.83366 0.96466 0.8439 0.0
N460 N 0.76364 0.918 0.8095 0.0
N461 N 0.77876 0.98147 0.89337 0.0
H462 H 0.91403 0.98031 0.81075 0.0
H463 H 0.89744 0.99137 0.85007 0.0
H464 H 0.74387 0.98203 0.91593 0.0
H465 H 0.79784 0.99488 0.88458 0.0
H466 H 0.72085 0.90682 0.8136 0.0
H467 H 0.78835 0.91836 0.7849 0.0
H468 H 0.71655 0.90149 0.86549 0.0
H469 H 0.68678 0.91315 0.90265 0.0
C470 C 0.98701 0.79212 0.83495 0.0
C471 C 0.93449 0.77605 0.82808 0.0
C472 C 0.95114 0.76555 0.8871 0.0
C473 C 0.98813 0.7836 0.89533 0.0
N474 N 0.0343 0.81505 0.87706 0.0
N475 N 0.86558 0.74722 0.84702 0.0
C476 C 0.00582 0.79705 0.86918 0.0
C477 C 0.91714 0.76253 0.85392 0.0
N478 N 0.01783 0.80279 0.80862 0.0
N479 N 0.95014 0.75123 0.9108 0.0
H480 H 0.84347 0.74426 0.82253 0.0
H481 H 0.84187 0.73807 0.86565 0.0
H482 H 0.97712 0.75282 0.9349 0.0
H483 H 0.93054 0.73727 0.90551 0.0
H484 H 0.0618 0.81387 0.8117 0.0
H485 H 0.00645 0.79909 0.78335 0.0
H486 H 0.0383 0.8261 0.85931 0.0
H487 H 0.04676 0.81957 0.9018 0.0
C488 C 0.23679 0.54211 0.61829 0.0
C489 C 0.26622 0.56133 0.61485 0.0
C490 C 0.22672 0.56749 0.67388 0.0
C491 C 0.18234 0.54984 0.67495 0.0
N492 N 0.14065 0.52042 0.64771 0.0
N493 N 0.27119 0.59357 0.63793 0.0
C494 C 0.18623 0.5371 0.64701 0.0
C495 C 0.25715 0.57437 0.64235 0.0
N496 N 0.25959 0.52852 0.59496 0.0
N497 N 0.23917 0.5778 0.70293 0.0
H498 H 0.28669 0.59967 0.61458 0.0
H499 H 0.25711 0.60375 0.6565 0.0
H500 H 0.22163 0.5726 0.72668 0.0
H501 H 0.27632 0.59019 0.70387 0.0
H502 H 0.24582 0.514 0.59785 0.0
H503 H 0.30005 0.53141 0.57458 0.0
H504 H 0.13309 0.51158 0.62657 0.0
H505 H 0.10681 0.51599 0.66915 0.0
C506 C 0.96564 0.70485 0.6342 0.0
C507 C 0.9761 0.7218 0.61454 0.0
C508 C 0.02962 0.73896 0.66472 0.0
C509 C 0.02504 0.72168 0.68344 0.0
N510 N 0.96299 0.69047 0.69044 0.0
N511 N 0.9917 0.75613 0.61303 0.0
C512 C 0.98336 0.70546 0.66963 0.0
C513 C 0.99904 0.7393 0.63061 0.0
N514 N 0.94621 0.68783 0.61878 0.0
N515 N 0.067 0.75468 0.67913 0.0
H516 H 0.96831 0.75664 0.58818 0.0
H517 H 1.0008 0.76959 0.62391 0.0
H518 H 0.08613 0.75486 0.70456 0.0
H519 H 0.08146 0.76715 0.66581 0.0
H520 H 0.94903 0.67463 0.63115 0.0
H521 H 0.9324 0.68658 0.593 0.0
H522 H 0.92615 0.67883 0.68271 0.0
H523 H 0.97625 0.69067 0.71643 0.0
C524 C 0.80241 0.47517 0.32697 0.0
C525 C 0.79665 0.4574 0.31 0.0
C526 C 0.71368 0.44372 0.35651 0.0
C527 C 0.72724 0.46093 0.37527 0.0
N528 N 0.75245 0.49498 0.37365 0.0
N529 N 0.72083 0.42795 0.30149 0.0
C530 C 0.76039 0.47739 0.35866 0.0
C531 C 0.74239 0.44284 0.32234 0.0
N532 N 0.85213 0.48939 0.31374 0.0
N533 N 0.68051 0.42777 0.37172 0.0
H534 H 0.74225 0.4272 0.27641 0.0
H535 H 0.67583 0.41756 0.30781 0.0
H536 H 0.65549 0.42763 0.39614 0.0
H537 H 0.6807 0.41426 0.36044 0.0
H538 H 0.86734 0.50193 0.3268 0.0
H539 H 0.88076 0.48817 0.28988 0.0
H540 H 0.77016 0.50774 0.36189 0.0
H541 H 0.71998 0.49683 0.39659 0.0
C542 C 0.79812 0.30634 0.35026 0.0
C543 C 0.72385 0.29528 0.35594 0.0
C544 C 0.77339 0.28873 0.41409 0.0
C545 C 0.84005 0.30243 0.4098 0.0
N546 N 0.89749 0.3283 0.37574 0.0
N547 N 0.63561 0.27703 0.39403 0.0
C548 C 0.84774 0.31227 0.37834 0.0
C549 C 0.7098 0.28678 0.38816 0.0
N550 N 0.82102 0.31145 0.31806 0.0
N551 N 0.77245 0.27712 0.44203 0.0
H552 H 0.59033 0.27462 0.37497 0.0
H553 H 0.61727 0.27227 0.41801 0.0
H554 H 0.8194 0.27763 0.46084 0.0
H555 H 0.72976 0.26579 0.44492 0.0
H556 H 0.87846 0.31834 0.31251 0.0
H557 H 0.78797 0.30677 0.29665 0.0
H558 H 0.89871 0.33694 0.35414 0.0
H559 H 0.92822 0.33443 0.39651 0.0
C560 C 0.71107 0.06043 0.6388 0.0
C561 C 0.71241 0.04516 0.61483 0.0
C562 C 0.65783 0.02323 0.65852 0.0
C563 C 0.66137 0.0383 0.68261 0.0
N564 N 0.71416 0.06954 0.69811 0.0
N565 N 0.70833 0.01098 0.60449 0.0
C566 C 0.69629 0.05629 0.67355 0.0
C567 C 0.69192 0.0262 0.62539 0.0
N568 N 0.71766 0.07907 0.62824 0.0
N569 N 0.62078 0.00619 0.66717 0.0
H570 H 0.73673 0.01248 0.5807 0.0
H571 H 0.70189 0.99675 0.61211 0.0
H572 H 0.6 0.00327 0.69181 0.0
H573 H 0.60699 0.99545 0.64961 0.0
H574 H 0.70945 0.09075 0.6444 0.0
H575 H 0.72156 0.08307 0.6028 0.0
H576 H 0.74687 0.08226 0.69326 0.0
H577 H 0.70406 0.06694 0.72385 0.0
C578 C 0.60568 0.22462 0.60016 0.0
C579 C 0.60194 0.20791 0.57959 0.0
C580 C 0.6218 0.18781 0.62968 0.0
C581 C 0.63652 0.20425 0.64982 0.0
N582 N 0.64751 0.23866 0.65432 0.0
N583 N 0.62991 0.17406 0.57371 0.0
C584 C 0.62961 0.22284 0.63515 0.0
C585 C 0.61726 0.18965 0.59406 0.0
N586 N 0.58451 0.242 0.58648 0.0
N587 N 0.60718 0.17052 0.64482 0.0
H588 H 0.63112 0.1751 0.54733 0.0
H589 H 0.64902 0.16073 0.58311 0.0
H590 H 0.60157 0.16922 0.67111 0.0
H591 H 0.58932 0.15828 0.63133 0.0
H592 H 0.57697 0.25444 0.60082 0.0
H593 H 0.57012 0.24371 0.56075 0.0
H594 H 0.65305 0.25241 0.64426 0.0
H595 H 0.66088 0.23784 0.68023 0.0
C596 C 0.28276 0.96905 0.36625 0.0
C597 C 0.32362 0.9559 0.38861 0.0
C598 C 0.3949 0.94081 0.34068 0.0
C599 C 0.364 0.95538 0.31859 0.0
N600 N 0.28776 0.98531 0.31167 0.0
N601 N 0.43682 0.93284 0.39786 0.0
C602 C 0.30996 0.97006 0.33163 0.0
C603 C 0.38583 0.943 0.3761 0.0
N604 N 0.21836 0.98052 0.37805 0.0
N605 N 0.42772 0.92414 0.32781 0.0
H606 H 0.43276 0.93407 0.42419 0.0
H607 H 0.48837 0.92456 0.38956 0.0
H608 H 0.42655 0.92102 0.30194 0.0
H609 H 0.44463 0.91248 0.34302 0.0
H610 H 0.18028 0.98899 0.36227 0.0
H611 H 0.19962 0.9806 0.40348 0.0
H612 H 0.2554 0.99732 0.32082 0.0
H613 H 0.308 0.98672 0.28658 0.0
C614 C 0.44168 0.804 0.38352 0.0
C615 C 0.5167 0.79317 0.38923 0.0
C616 C 0.4898 0.77521 0.33667 0.0
C617 C 0.4235 0.7884 0.32806 0.0
N618 N 0.35142 0.81852 0.34123 0.0
N619 N 0.61701 0.76911 0.37073 0.0
C620 C 0.40265 0.80355 0.35105 0.0
C621 C 0.54219 0.77889 0.36568 0.0
N622 N 0.40808 0.81495 0.40904 0.0
N623 N 0.50074 0.75886 0.31802 0.0
H624 H 0.65457 0.77095 0.39245 0.0
H625 H 0.64401 0.76007 0.35259 0.0
H626 H 0.46119 0.75524 0.29765 0.0
H627 H 0.54316 0.74796 0.32485 0.0
H628 H 0.34869 0.82171 0.40718 0.0
H629 H 0.43546 0.81566 0.43321 0.0
H630 H 0.34224 0.83071 0.35613 0.0
H631 H 0.32692 0.82019 0.31683 0.0
C632 C 0.7045 0.55059 0.13326 0.0
C633 C 0.68116 0.53807 0.10606 0.0
C634 C 0.60179 0.51799 0.14634 0.0
C635 C 0.6282 0.53011 0.17308 0.0
N636 N 0.72729 0.55379 0.19377 0.0
N637 N 0.63108 0.50642 0.08976 0.0
C638 C 0.68801 0.54485 0.16711 0.0
C639 C 0.63701 0.52067 0.11347 0.0
N640 N 0.73551 0.56862 0.1273 0.0
N641 N 0.54179 0.50418 0.15218 0.0
H642 H 0.65958 0.50718 0.06594 0.0
H643 H 0.60619 0.4929 0.09512 0.0
H644 H 0.51842 0.50124 0.17644 0.0
H645 H 0.51223 0.49644 0.1328 0.0
H646 H 0.74337 0.57877 0.14649 0.0
H647 H 0.74433 0.57452 0.10337 0.0
H648 H 0.77707 0.56356 0.19068 0.0
H649 H 0.71691 0.54983 0.21893 0.0
C650 C 0.54685 0.71196 0.16644 0.0
C651 C 0.61554 0.69855 0.16821 0.0
C652 C 0.58144 0.68813 0.10991 0.0
C653 C 0.50484 0.69898 0.11091 0.0
N654 N 0.4098 0.72013 0.14115 0.0
N655 N 0.68869 0.67132 0.14232 0.0
C656 C 0.48616 0.7106 0.13948 0.0
C657 C 0.63127 0.68612 0.13997 0.0
N658 N 0.54152 0.72652 0.18959 0.0
N659 N 0.60599 0.67936 0.08042 0.0
H660 H 0.72541 0.6683 0.16366 0.0
H661 H 0.6936 0.66054 0.12409 0.0
H662 H 0.56978 0.67984 0.05817 0.0
H663 H 0.66601 0.67309 0.07715 0.0
H664 H 0.49713 0.73766 0.18775 0.0
H665 H 0.58753 0.72873 0.2084 0.0
H666 H 0.38811 0.72691 0.1631 0.0
H667 H 0.36576 0.72015 0.12118 0.0
C668 C 0.28855 0.4418 0.82381 0.0
C669 C 0.34238 0.45781 0.81911 0.0
C670 C 0.3133 0.46802 0.87743 0.0
C671 C 0.27518 0.44987 0.88407 0.0
N672 N 0.2423 0.41784 0.86362 0.0
N673 N 0.40973 0.48612 0.84135 0.0
C674 C 0.26579 0.43637 0.85719 0.0
C675 C 0.35551 0.47102 0.84588 0.0
N676 N 0.26115 0.43145 0.79645 0.0
N677 N 0.3068 0.48254 0.90059 0.0
H678 H 0.43777 0.48913 0.8179 0.0
H679 H 0.42977 0.49498 0.86114 0.0
H680 H 0.27247 0.48124 0.92314 0.0
H681 H 0.32746 0.49648 0.89574 0.0
H682 H 0.21659 0.42039 0.7983 0.0
H683 H 0.27508 0.43546 0.77158 0.0
H684 H 0.24338 0.40711 0.84519 0.0
H685 H 0.23193 0.41253 0.88791 0.0
C686 C 0.42481 0.29872 0.84393 0.0
C687 C 0.36997 0.2841 0.83218 0.0
C688 C 0.38968 0.26672 0.88584 0.0
C689 C 0.43071 0.28312 0.89984 0.0
N690 N 0.47608 0.31622 0.8926 0.0
N691 N 0.29921 0.25395 0.84094 0.0
C692 C 0.44676 0.29943 0.87889 0.0
C693 C 0.35261 0.26793 0.85278 0.0
N694 N 0.45453 0.3122 0.82171 0.0
N695 N 0.38854 0.24989 0.90364 0.0
H696 H 0.2764 0.25389 0.816 0.0
H697 H 0.27514 0.24297 0.85608 0.0
H698 H 0.41786 0.24834 0.92731 0.0
H699 H 0.36605 0.23703 0.89361 0.0
H700 H 0.50141 0.32219 0.82806 0.0
H701 H 0.43859 0.31211 0.79595 0.0
H702 H 0.47896 0.32903 0.87901 0.0
H703 H 0.4886 0.31819 0.91832 0.0
C704 C 0.69427 0.03011 0.02035 0.0
C705 C 0.65503 0.02959 0.05274 0.0
C706 C 0.72955 0.99947 0.06523 0.0
C707 C 0.74604 0.99732 0.03003 0.0
N708 N 0.76618 0.01212 0.97564 0.0
N709 N 0.64549 0.01588 0.10843 0.0
C710 C 0.73699 0.01339 0.00825 0.0
C711 C 0.67755 0.01508 0.07623 0.0
N712 N 0.68792 0.04634 0.00107 0.0
N713 N 0.7633 0.98672 0.08785 0.0
H714 H 0.61034 0.02768 0.11702 0.0
H715 H 0.65112 0.00477 0.12599 0.0
H716 H 0.80582 0.97595 0.08059 0.0
H717 H 0.75832 0.98841 0.11399 0.0
H718 H 0.71669 0.04808 0.97749 0.0
H719 H 0.65926 0.05882 0.01025 0.0
H720 H 0.75401 0.02224 0.95682 0.0
H721 H 0.80295 0.00046 0.96752 0.0
C722 C 0.67425 0.23172 0.98846 0.0
C723 C 0.66875 0.24681 0.01256 0.0
C724 C 0.79093 0.23347 0.04391 0.0
C725 C 0.79544 0.21823 0.02014 0.0
N726 N 0.73134 0.20033 0.97433 0.0
N727 N 0.70756 0.25974 0.06728 0.0
C728 C 0.73327 0.21648 0.99403 0.0
C729 C 0.72291 0.24701 0.04155 0.0
N730 N 0.6268 0.23254 0.95924 0.0
N731 N 0.85295 0.23521 0.06825 0.0
H732 H 0.65768 0.26971 0.06658 0.0
H733 H 0.73928 0.25936 0.09056 0.0
H734 H 0.90032 0.22483 0.072 0.0
H735 H 0.85983 0.24727 0.08362 0.0
H736 H 0.63529 0.22321 0.93886 0.0
H737 H 0.58353 0.24357 0.95398 0.0
H738 H 0.68285 0.19736 0.95695 0.0
H739 H 0.77425 0.189 0.97745 0.0
C740 C 0.24406 0.26113 0.31449 0.0
C741 C 0.21122 0.25932 0.28101 0.0
C742 C 0.26615 0.29106 0.26639 0.0
C743 C 0.31415 0.29078 0.29698 0.0
N744 N 0.32493 0.2806 0.35475 0.0
N745 N 0.16203 0.27474 0.23036 0.0
C746 C 0.29364 0.27757 0.32282 0.0
C747 C 0.21134 0.27532 0.259 0.0
N748 N 0.23512 0.24638 0.33696 0.0
N749 N 0.27875 0.30549 0.24351 0.0
H750 H 0.12242 0.26303 0.22518 0.0
H751 H 0.15544 0.28608 0.21336 0.0
H752 H 0.31508 0.31757 0.24936 0.0
H753 H 0.2537 0.30559 0.21901 0.0
H754 H 0.26896 0.24547 0.35967 0.0
H755 H 0.19443 0.23484 0.33245 0.0
H756 H 0.30861 0.27233 0.37578 0.0
H757 H 0.36226 0.29261 0.36037 0.0
C758 C 0.6314 0.0059 0.23926 0.0
C759 C 0.64487 0.98923 0.21918 0.0
C760 C 0.78553 0.00165 0.20182 0.0
C761 C 0.76891 0.01888 0.22005 0.0
N762 N 0.66988 0.03877 0.25153 0.0
N763 N 0.72947 0.97194 0.17814 0.0
C764 C 0.68958 0.02149 0.237 0.0
C765 C 0.72074 0.98725 0.19961 0.0
N766 N 0.56659 0.00628 0.2626 0.0
N767 N 0.8632 0.99919 0.18644 0.0
H768 H 0.68143 0.96182 0.1743 0.0
H769 H 0.78177 0.96968 0.16238 0.0
H770 H 0.90898 0.01004 0.18514 0.0
H771 H 0.88415 0.9863 0.17603 0.0
H772 H 0.55942 0.01707 0.28068 0.0
H773 H 0.52523 0.9948 0.26668 0.0
H774 H 0.60897 0.04219 0.26039 0.0
H775 H 0.71174 0.05034 0.25239 0.0
C776 C 0.09298 0.72521 0.08115 0.0
C777 C 0.10122 0.71059 0.05652 0.0
C778 C 0.9941 0.72674 0.02104 0.0
C779 C 0.00429 0.74338 0.04111 0.0
N780 N 0.05359 0.75826 0.09268 0.0
N781 N 0.05007 0.69546 0.00533 0.0
C782 C 0.04819 0.74234 0.07262 0.0
C783 C 0.0465 0.71043 0.02768 0.0
N784 N 0.13053 0.72275 0.11217 0.0
N785 N 0.93641 0.72707 0.99496 0.0
H786 H 0.08389 0.6829 0.01048 0.0
H787 H 0.0208 0.69554 0.98156 0.0
H788 H 0.89836 0.73913 0.99021 0.0
H789 H 0.92121 0.71519 0.98014 0.0
H790 H 0.12234 0.73217 0.13246 0.0
H791 H 0.16411 0.71021 0.11819 0.0
H792 H 0.09504 0.7594 0.1133 0.0
H793 H 0.01819 0.77067 0.08783 0.0
C794 C 0.5044 0.76057 0.72745 0.0
C795 C 0.56879 0.7565 0.75195 0.0
C796 C 0.47893 0.73159 0.77723 0.0
C797 C 0.41253 0.73656 0.75408 0.0
N798 N 0.35643 0.75706 0.70994 0.0
N799 N 0.6151 0.74026 0.80278 0.0
C800 C 0.42345 0.75151 0.73013 0.0
C801 C 0.55568 0.74251 0.77749 0.0
N802 N 0.52219 0.77235 0.70059 0.0
N803 N 0.4685 0.71647 0.79898 0.0
H804 H 0.67209 0.74801 0.80369 0.0
H805 H 0.60564 0.73182 0.82425 0.0
H806 H 0.4112 0.70897 0.80137 0.0
H807 H 0.51783 0.71062 0.81348 0.0
H808 H 0.48169 0.77418 0.67982 0.0
H809 H 0.58092 0.77913 0.69749 0.0
H810 H 0.35696 0.76939 0.69502 0.0
H811 H 0.29765 0.75001 0.70961 0.0
C812 C 0.27858 0.9717 0.7437 0.0
C813 C 0.21353 0.97214 0.76879 0.0
C814 C 0.27412 0.0013 0.79363 0.0
C815 C 0.33964 0.00077 0.76868 0.0
N816 N 0.41276 0.98451 0.72298 0.0
N817 N 0.15456 0.98497 0.82042 0.0
C818 C 0.34479 0.98558 0.74478 0.0
C819 C 0.21275 0.98629 0.79459 0.0
N820 N 0.27429 0.95868 0.71773 0.0
N821 N 0.27069 0.01618 0.81628 0.0
H822 H 0.10921 0.97403 0.82178 0.0
H823 H 0.15448 0.99374 0.8418 0.0
H824 H 0.31799 0.02666 0.81806 0.0
H825 H 0.21956 0.01871 0.83255 0.0
H826 H 0.31266 0.95917 0.69618 0.0
H827 H 0.22841 0.94789 0.71649 0.0
H828 H 0.42617 0.97259 0.70797 0.0
H829 H 0.45918 0.99517 0.7211 0.0
C830 C 0.61769 0.51403 0.53639 0.0
C831 C 0.68052 0.5143 0.51026 0.0
C832 C 0.65992 0.54914 0.50473 0.0
C833 C 0.5981 0.54841 0.53109 0.0
N834 N 0.54632 0.53211 0.58048 0.0
N835 N 0.77482 0.53274 0.47462 0.0
C836 C 0.58858 0.53152 0.55018 0.0
C837 C 0.70721 0.53215 0.49648 0.0
N838 N 0.57979 0.49733 0.54626 0.0
N839 N 0.669 0.56552 0.48613 0.0
H840 H 0.8082 0.52044 0.46726 0.0
H841 H 0.80156 0.54548 0.46587 0.0
H842 H 0.63768 0.57826 0.49241 0.0
H843 H 0.70488 0.56628 0.46391 0.0
H844 H 0.52744 0.49689 0.56261 0.0
H845 H 0.59522 0.48406 0.53601 0.0
H846 H 0.54247 0.52032 0.59672 0.0
H847 H 0.52338 0.545 0.59059 0.0
C848 C 0.96312 0.80397 0.48152 0.0
C849 C 0.91856 0.80219 0.45042 0.0
C850 C 0.99734 0.77273 0.43797 0.0
C851 C 0.01806 0.77154 0.47295 0.0
N852 N 0.03495 0.78682 0.52717 0.0
N853 N 0.90777 0.78818 0.39516 0.0
C854 C 0.00764 0.78771 0.49425 0.0
C855 C 0.94298 0.78789 0.42691 0.0
N856 N 0.95925 0.82077 0.49921 0.0
N857 N 0.02523 0.75882 0.41621 0.0
H858 H 0.86937 0.79962 0.38713 0.0
H859 H 0.91509 0.7773 0.3773 0.0
H860 H 0.06529 0.7477 0.42417 0.0
H861 H 0.01459 0.75904 0.39012 0.0
H862 H 0.99327 0.82325 0.52154 0.0
H863 H 0.92909 0.83291 0.48929 0.0
H864 H 0.02043 0.79715 0.54539 0.0
H865 H 0.07044 0.77518 0.53629 0.0
C866 C 0.84648 0.49138 0.72583 0.0
C867 C 0.8335 0.50907 0.74293 0.0
C868 C 0.70676 0.49593 0.771 0.0
C869 C 0.71242 0.47943 0.75027 0.0
N870 N 0.78401 0.46158 0.70599 0.0
N871 N 0.74653 0.52899 0.7797 0.0
C872 C 0.782 0.477 0.72747 0.0
C873 C 0.76224 0.51159 0.7649 0.0
N874 N 0.91999 0.48839 0.70778 0.0
N875 N 0.64965 0.49634 0.79729 0.0
H876 H 0.78655 0.54077 0.77708 0.0
H877 H 0.69028 0.53221 0.79265 0.0
H878 H 0.60963 0.48479 0.8029 0.0
H879 H 0.64826 0.5071 0.81563 0.0
H880 H 0.93796 0.47507 0.69813 0.0
H881 H 0.96594 0.49902 0.70413 0.0
H882 H 0.82702 0.46025 0.68597 0.0
H883 H 0.73874 0.45064 0.70647 0.0
C884 C 0.2788 0.27689 0.49407 0.0
C885 C 0.21102 0.27587 0.47008 0.0
C886 C 0.26163 0.24417 0.45138 0.0
C887 C 0.32491 0.2446 0.47734 0.0
N888 N 0.3833 0.25944 0.52759 0.0
N889 N 0.13275 0.25842 0.42735 0.0
C890 C 0.33106 0.2605 0.4997 0.0
C891 C 0.20072 0.25939 0.44924 0.0
N892 N 0.29308 0.2935 0.51169 0.0
N893 N 0.26185 0.22958 0.42811 0.0
H894 H 0.09081 0.26989 0.42339 0.0
H895 H 0.11532 0.24611 0.41414 0.0
H896 H 0.30756 0.21867 0.42795 0.0
H897 H 0.2201 0.22871 0.4076 0.0
H898 H 0.34718 0.29581 0.5266 0.0
H899 H 0.25476 0.30566 0.50934 0.0
H900 H 0.38377 0.26963 0.54693 0.0
H901 H 0.42021 0.24737 0.53334 0.0
C902 C 0.1914 0.48401 0.28872 0.0
C903 C 0.19442 0.46821 0.26611 0.0
C904 C 0.33409 0.47895 0.24496 0.0
C905 C 0.32556 0.49604 0.26429 0.0
N906 N 0.24665 0.51527 0.30454 0.0
N907 N 0.26362 0.4513 0.22022 0.0
C908 C 0.25441 0.49866 0.28628 0.0
C909 C 0.26503 0.46567 0.24388 0.0
N910 N 0.12902 0.48469 0.31303 0.0
N911 N 0.40795 0.47546 0.22744 0.0
H912 H 0.21514 0.44109 0.21887 0.0
H913 H 0.30732 0.45021 0.20039 0.0
H914 H 0.45851 0.48516 0.22647 0.0
H915 H 0.42195 0.46236 0.21597 0.0
H916 H 0.12711 0.4948 0.33247 0.0
H917 H 0.08264 0.47403 0.31555 0.0
H918 H 0.19177 0.51916 0.3178 0.0
H919 H 0.29397 0.52577 0.30524 0.0
C920 C 0.04832 0.99211 0.52711 0.0
C921 C 0.11136 0.99387 0.50132 0.0
C922 C 0.05989 0.02634 0.48845 0.0
C923 C 1.00028 0.02473 0.51547 0.0
N924 N 0.95551 0.00874 0.56651 0.0
N925 N 0.18764 0.01376 0.46138 0.0
C926 C 1.00067 0.00846 0.53679 0.0
C927 C 0.1212 0.01145 0.48352 0.0
N928 N 0.03127 0.97474 0.54163 0.0
N929 N 0.05432 0.04132 0.46615 0.0
H930 H 0.23098 0.00282 0.4557 0.0
H931 H 0.20315 0.0269 0.45044 0.0
H932 H 0.01093 0.05258 0.46897 0.0
H933 H 0.08872 0.04194 0.44355 0.0
H934 H 0.97953 0.9724 0.55774 0.0
H935 H 0.06425 0.96226 0.53563 0.0
H936 H 0.95995 0.99795 0.58477 0.0
H937 H 0.92095 0.02076 0.5745 0.0
C938 C 0.8996 0.25054 0.72708 0.0
C939 C 0.90299 0.23461 0.74938 0.0
C940 C 0.02131 0.24915 0.78106 0.0
C941 C 0.0169 0.26516 0.75902 0.0
N942 N 0.94675 0.28291 0.71432 0.0
N943 N 0.96274 0.21851 0.79829 0.0
C944 C 0.95389 0.26648 0.73316 0.0
C945 C 0.9628 0.23382 0.77659 0.0
N946 N 0.84792 0.24985 0.69901 0.0
N947 N 0.08279 0.24861 0.80586 0.0
H948 H 0.9252 0.20642 0.79437 0.0
H949 H 0.9975 0.2178 0.8208 0.0
H950 H 0.12126 0.26041 0.81157 0.0
H951 H 0.09731 0.23663 0.82052 0.0
H952 H 0.84768 0.26011 0.67982 0.0
H953 H 0.80985 0.23801 0.6933 0.0
H954 H 0.89738 0.28556 0.69718 0.0
H955 H 0.98702 0.29467 0.71753 0.0
C956 C 0.10033 0.73819 0.2684 0.0
C957 C 0.10307 0.75157 0.24124 0.0
C958 C 0.97163 0.73782 0.21708 0.0
C959 C 0.97062 0.72396 0.24355 0.0
N960 N 0.03776 0.70934 0.29239 0.0
N961 N 0.05033 0.76263 0.18713 0.0
C962 C 0.03655 0.72358 0.26847 0.0
C963 C 0.04101 0.75101 0.21488 0.0
N964 N 0.15615 0.74009 0.29502 0.0
N965 N 0.90582 0.73839 0.19411 0.0
H966 H 0.10077 0.77229 0.18445 0.0
H967 H 0.01184 0.76191 0.1656 0.0
H968 H 0.85757 0.72809 0.19325 0.0
H969 H 0.89638 0.74947 0.17679 0.0
H970 H 0.15197 0.7323 0.31749 0.0
H971 H 0.20368 0.75057 0.29581 0.0
H972 H 0.08884 0.70688 0.30882 0.0
H973 H 0.98969 0.69908 0.29461 0.0
C974 C 0.01933 0.49419 0.96533 0.0
C975 C 0.01558 0.4778 0.98656 0.0
C976 C 0.89932 0.4925 0.01949 0.0
C977 C 0.90603 0.5093 0.99929 0.0
N978 N 0.98124 0.52752 0.95651 0.0
N979 N 0.9604 0.46191 0.03633 0.0
C980 C 0.96894 0.51059 0.97335 0.0
C981 C 0.95733 0.47702 0.01418 0.0
N982 N 0.06844 0.49371 0.93661 0.0
N983 N 0.83798 0.49148 0.04412 0.0
H984 H 0.99991 0.45004 0.03282 0.0
H985 H 0.92792 0.46154 0.05937 0.0
H986 H 0.80164 0.50332 0.05148 0.0
H987 H 0.82118 0.47889 0.05661 0.0
H988 H 0.06693 0.50429 0.91794 0.0
H989 H 0.10525 0.48181 0.92976 0.0
H990 H 0.03248 0.53003 0.94027 0.0
H991 H 0.94347 0.53966 0.96027 0.0
C992 C 0.5049 0.03258 0.93196 0.0
C993 C 0.48413 0.05118 0.94441 0.0
C994 C 0.52419 0.06489 0.8894 0.0
C995 C 0.52805 0.04624 0.87543 0.0
N996 N 0.51736 0.01197 0.88257 0.0
N997 N 0.46664 0.08522 0.93332 0.0
C998 C 0.51794 0.02992 0.89649 0.0
C999 C 0.49262 0.06744 0.9228 0.0
N1000 N 0.51617 0.01764 0.95405 0.0
N1001 N 0.55219 0.08018 0.87076 0.0
H1002 H 0.44215 0.08802 0.95735 0.0
H1003 H 0.46213 0.09698 0.91706 0.0
H1004 H 0.57784 0.07861 0.84645 0.0
H1005 H 0.55873 0.09396 0.88069 0.0
H1006 H 0.5397 0.00429 0.94661 0.0
H1007 H 0.51108 0.01915 0.98031 0.0
H1008 H 0.50036 -0.00026 0.89616 0.0
H1009 H 0.52855 0.00947 0.85683 0.0
C1010 C 0.8975 0.1684 0.88611 0.0
C1011 C 0.90901 0.18531 0.90562 0.0
C1012 C 0.82761 0.20374 0.86324 0.0
C1013 C 0.81089 0.18655 0.84494 0.0
N1014 N 0.81313 0.15196 0.84341 0.0
N1015 N 0.86603 0.21804 0.91705 0.0
C1016 C 0.84089 0.1687 0.85776 0.0
C1017 C 0.86861 0.20269 0.89546 0.0
N1018 N 0.94308 0.15221 0.89389 0.0
N1019 N 0.80916 0.22124 0.84927 0.0
H1020 H 0.89458 0.21802 0.94095 0.0
H1021 H 0.82826 0.23013 0.91261 0.0
H1022 H 0.78069 0.22301 0.82556 0.0
H1023 H 0.82997 0.23413 0.85979 0.0
H1024 H 0.94404 0.14005 0.87852 0.0
H1025 H 0.98654 0.15157 0.91402 0.0
H1026 H 0.826 0.13848 0.85367 0.0
H1027 H 0.7697 0.15162 0.82326 0.0
C1028 C 0.48913 0.22172 0.36289 0.0
C1029 C 0.52548 0.20493 0.37721 0.0
C1030 C 0.48884 0.18653 0.32624 0.0
C1031 C 0.44529 0.20282 0.31344 0.0
N1032 N 0.43075 0.23716 0.31264 0.0
N1033 N 0.58907 0.17408 0.36823 0.0
C1034 C 0.4549 0.22089 0.32946 0.0
C1035 C 0.53528 0.18821 0.35723 0.0
N1036 N 0.48182 0.23797 0.38206 0.0
N1037 N 0.48211 0.16937 0.30974 0.0
H1038 H 0.62617 0.17588 0.3901 0.0
H1039 H 0.60352 0.16184 0.3542 0.0
H1040 H 0.45067 0.16802 0.28644 0.0
H1041 H 0.50464 0.15646 0.31969 0.0
H1042 H 0.44603 0.24989 0.37469 0.0
H1043 H 0.50928 0.23923 0.40612 0.0
H1044 H 0.44317 0.25091 0.32168 0.0
H1045 H 0.406 0.23681 0.288 0.0
C1046 C 0.77367 0.06732 0.39159 0.0
C1047 C 0.79978 0.05196 0.41255 0.0
C1048 C 0.87398 0.03728 0.36437 0.0
C1049 C 0.86189 0.05445 0.34535 0.0
N1050 N 0.80794 0.08713 0.34337 0.0
N1051 N 0.8806 0.02278 0.42025 0.0
C1052 C 0.81284 0.06977 0.35942 0.0
C1053 C 0.85109 0.03696 0.3993 0.0
N1054 N 0.71116 0.07956 0.40256 0.0
N1055 N 0.90353 0.02103 0.34885 0.0
H1056 H 0.86231 0.02164 0.44563 0.0
H1057 H 0.92722 0.01289 0.41295 0.0
H1058 H 0.91597 0.02026 0.32288 0.0
H1059 H 0.9063 0.00774 0.36094 0.0
H1060 H 0.68365 0.09008 0.3872 0.0
H1061 H 0.68071 0.0778 0.42594 0.0
H1062 H 0.78094 0.09928 0.35451 0.0
H1063 H 0.83813 0.09011 0.32048 0.0
C1064 C 0.48812 0.9644 0.06727 0.0
C1065 C 0.49244 0.94577 0.05289 0.0
C1066 C 0.39858 0.93382 0.09756 0.0
C1067 C 0.41453 0.95071 0.11632 0.0
N1068 N 0.46218 0.98342 0.11807 0.0
N1069 N 0.4444 0.91307 0.05141 0.0
C1070 C 0.45339 0.96667 0.10044 0.0
C1071 C 0.44367 0.93063 0.06675 0.0
N1072 N 0.51974 0.97963 0.04951 0.0
N1073 N 0.34069 0.92097 0.1097 0.0
H1074 H 0.47471 0.91076 0.02814 0.0
H1075 H 0.41763 0.90083 0.06215 0.0
H1076 H 0.30498 0.92399 0.13147 0.0
H1077 H 0.32205 0.90866 0.09667 0.0
H1078 H 0.5144 0.9938 0.05747 0.0
H1079 H 0.54461 0.97813 0.02508 0.0
H1080 H 0.49662 0.99517 0.10941 0.0
H1081 H 0.43503 0.98544 0.14199 0.0
C1082 C 0.24851 0.81601 0.08488 0.0
C1083 C 0.22555 0.79979 0.06535 0.0
C1084 C 0.27969 0.77829 0.10986 0.0
C1085 C 0.29552 0.79454 0.1306 0.0
N1086 N 0.32401 0.82835 0.13424 0.0
N1087 N 0.24265 0.76609 0.05382 0.0
C1088 C 0.28995 0.81327 0.11669 0.0
C1089 C 0.25027 0.78111 0.07592 0.0
N1090 N 0.22673 0.83392 0.07367 0.0
N1091 N 0.28637 0.76029 0.12333 0.0
H1092 H 0.2207 0.76786 0.02899 0.0
H1093 H 0.26499 0.7523 0.05887 0.0
H1094 H 0.30841 0.75772 0.1479 0.0
H1095 H 0.26677 0.74793 0.11078 0.0
H1096 H 0.23209 0.84626 0.08843 0.0
H1097 H 0.20011 0.83625 0.04967 0.0
H1098 H 0.32754 0.84226 0.12469 0.0
H1099 H 0.3562 0.82646 0.15727 0.0
C1100 C 0.76737 0.77709 0.61236 0.0
C1101 C 0.76131 0.79212 0.63676 0.0
C1102 C 0.69709 0.81302 0.59352 0.0
C1103 C 0.71229 0.79895 0.56836 0.0
N1104 N 0.77847 0.76891 0.55258 0.0
N1105 N 0.74357 0.82625 0.64684 0.0
C1106 C 0.75222 0.78131 0.57735 0.0
C1107 C 0.73308 0.81064 0.62623 0.0
N1108 N 0.78332 0.75867 0.62245 0.0
N1109 N 0.64574 0.82846 0.58661 0.0
H1110 H 0.77373 0.82561 0.6704 0.0
H1111 H 0.73148 0.84025 0.63877 0.0
H1112 H 0.61462 0.83029 0.56336 0.0
H1113 H 0.62624 0.83819 0.60518 0.0
H1114 H 0.78018 0.74699 0.60596 0.0
H1115 H 0.79214 0.75473 0.64772 0.0
H1116 H 0.81605 0.75685 0.55756 0.0
H1117 H 0.76924 0.77157 0.52676 0.0
C1118 C 0.15842 0.95634 0.60483 0.0
C1119 C 0.16607 0.9392 0.58523 0.0
C1120 C 0.07928 0.92209 0.62735 0.0
C1121 C 0.07963 0.93857 0.6484 0.0
N1122 N 0.13128 0.97051 0.65994 0.0
N1123 N 0.14757 0.90491 0.58124 0.0
C1124 C 0.12222 0.95548 0.63789 0.0
C1125 C 0.12992 0.92183 0.59737 0.0
N1126 N 0.1817 0.97367 0.5915 0.0
N1127 N 0.0291 0.90678 0.63578 0.0
H1128 H 0.1876 0.904 0.56012 0.0
H1129 H 0.13001 0.89156 0.5908 0.0
H1130 H 0.99009 0.90675 0.65728 0.0
H1131 H 0.01967 0.89502 0.61991 0.0
H1132 H 0.16742 0.98674 0.60306 0.0
H1133 H 0.20722 0.97536 0.56734 0.0
H1134 H 0.17172 0.98209 0.6554 0.0
H1135 H 0.10381 0.97077 0.68404 0.0
C1136 C 0.39551 0.58011 0.39797 0.0
C1137 C 0.38796 0.56615 0.42404 0.0
C1138 C 0.41391 0.54059 0.38255 0.0
C1139 C 0.43138 0.55469 0.35764 0.0
N1140 N 0.45161 0.588 0.3426 0.0
N1141 N 0.40754 0.53322 0.44238 0.0
C1142 C 0.4252 0.5745 0.3655 0.0
C1143 C 0.40125 0.54638 0.41671 0.0
N1144 N 0.37271 0.59874 0.40401 0.0
N1145 N 0.40707 0.52171 0.37347 0.0
H1146 H 0.40138 0.5367 0.46797 0.0
H1147 H 0.42723 0.5191 0.43852 0.0
H1148 H 0.41537 0.51689 0.34861 0.0
H1149 H 0.38513 0.51112 0.38995 0.0
H1150 H 0.36681 0.60903 0.38495 0.0
H1151 H 0.35244 0.60358 0.42762 0.0
H1152 H 0.4589 0.60246 0.34861 0.0
H1153 H 0.47379 0.58466 0.31839 0.0
C1154 C 0.77694 0.68316 0.3838 0.0
C1155 C 0.77323 0.69881 0.36071 0.0
C1156 C 0.82067 0.72047 0.40618 0.0
C1157 C 0.83943 0.70435 0.4269 0.0
N1158 N 0.83673 0.67023 0.43607 0.0
N1159 N 0.79642 0.73251 0.34928 0.0
C1160 C 0.81663 0.68566 0.41613 0.0
C1161 C 0.7946 0.71761 0.37188 0.0
N1162 N 0.74173 0.66596 0.37475 0.0
N1163 N 0.828 0.73852 0.41944 0.0
H1164 H 0.77792 0.73122 0.32397 0.0
H1165 H 0.82191 0.74592 0.35501 0.0
H1166 H 0.84703 0.74099 0.44449 0.0
H1167 H 0.80735 0.75084 0.40686 0.0
H1168 H 0.73582 0.65439 0.3913 0.0
H1169 H 0.71083 0.6639 0.3515 0.0
H1170 H 0.83143 0.65606 0.42799 0.0
H1171 H 0.86332 0.67166 0.46027 0.0
C1172 C 0.24949 0.68111 0.91242 0.0
C1173 C 0.26517 0.6967 0.93472 0.0
C1174 C 0.22541 0.71912 0.88899 0.0
C1175 C 0.20417 0.70328 0.86792 0.0
N1176 N 0.16763 0.66983 0.8644 0.0
N1177 N 0.24627 0.73049 0.94667 0.0
C1178 C 0.20693 0.68448 0.8813 0.0
C1179 C 0.24682 0.71575 0.92379 0.0
N1180 N 0.27973 0.6632 0.9199 0.0
N1181 N 0.22849 0.73719 0.87568 0.0
H1182 H 0.25896 0.72855 0.97246 0.0
H1183 H 0.22498 0.74426 0.94065 0.0
H1184 H 0.21206 0.74023 0.85057 0.0
H1185 H 0.25277 0.74891 0.88898 0.0
H1186 H 0.2758 0.65171 0.903 0.0
H1187 H 0.31825 0.6605 0.94099 0.0
H1188 H 0.16175 0.65608 0.87454 0.0
H1189 H 0.13247 0.6721 0.84217 0.0
C1190 C 0.8736 0.57473 0.86095 0.0
C1191 C 0.89695 0.55705 0.84554 0.0
C1192 C 0.83201 0.53934 0.89262 0.0
C1193 C 0.80607 0.55703 0.90754 0.0
N1194 N 0.78505 0.59114 0.90243 0.0
N1195 N 0.87983 0.52265 0.84229 0.0
C1196 C 0.82205 0.57462 0.89068 0.0
C1197 C 0.871 0.53939 0.86012 0.0
N1198 N 0.90269 0.59163 0.84772 0.0
N1199 N 0.82339 0.52247 0.90999 0.0
H1200 H 0.90825 0.52186 0.81845 0.0
H1201 H 0.8516 0.50977 0.84962 0.0
H1202 H 0.79329 0.52133 0.93337 0.0
H1203 H 0.85254 0.5097 0.90248 0.0
H1204 H 0.89676 0.60479 0.86001 0.0
H1205 H 0.93849 0.59238 0.82549 0.0
H1206 H 0.78688 0.60414 0.88945 0.0
H1207 H 0.74506 0.59144 0.92363 0.0
C1208 C 0.64971 0.46273 0.59682 0.0
C1209 C 0.62848 0.44837 0.57228 0.0
C1210 C 0.51773 0.43583 0.61048 0.0
C1211 C 0.54482 0.44887 0.63582 0.0
N1212 N 0.63794 0.4742 0.65465 0.0
N1213 N 0.55126 0.41956 0.55767 0.0
C1214 C 0.61091 0.46221 0.62932 0.0
C1215 C 0.56425 0.43455 0.57949 0.0
N1216 N 0.70356 0.47753 0.58878 0.0
N1217 N 0.44682 0.42486 0.61608 0.0
H1218 H 0.58651 0.41767 0.53546 0.0
H1219 H 0.5114 0.40801 0.56301 0.0
H1220 H 0.41142 0.42582 0.63848 0.0
H1221 H 0.41851 0.41626 0.59761 0.0
H1222 H 0.71249 0.48957 0.604 0.0
H1223 H 0.73265 0.47934 0.56532 0.0
H1224 H 0.6944 0.48207 0.65376 0.0
H1225 H 0.60572 0.47568 0.67759 0.0
C1226 C 0.08703 0.29215 0.59884 0.0
C1227 C 0.08895 0.31082 0.58409 0.0
C1228 C 0.17863 0.32192 0.63117 0.0
C1229 C 0.16615 0.30433 0.64818 0.0
N1230 N 0.09818 0.27335 0.65055 0.0
N1231 N 0.11961 0.34452 0.59105 0.0
C1232 C 0.11738 0.28958 0.63271 0.0
C1233 C 0.1302 0.32601 0.60162 0.0
N1234 N 0.06083 0.27671 0.58019 0.0
N1235 N 0.23827 0.33458 0.6429 0.0
H1236 H 0.07859 0.34818 0.57116 0.0
H1237 H 0.14276 0.35628 0.60459 0.0
H1238 H 0.27711 0.33152 0.66383 0.0
H1239 H 0.25532 0.34696 0.62972 0.0
H1240 H 0.06668 0.26262 0.58876 0.0
H1241 H 0.04095 0.27768 0.55499 0.0
H1242 H 0.05435 0.26318 0.64202 0.0
H1243 H 0.12164 0.27072 0.67495 0.0
C1244 C 0.48364 0.27711 0.12728 0.0
C1245 C 0.47128 0.29318 0.10574 0.0
C1246 C 0.49533 0.3149 0.15351 0.0
C1247 C 0.50392 0.29889 0.17577 0.0
N1248 N 0.47963 0.26502 0.18496 0.0
N1249 N 0.43757 0.32672 0.10037 0.0
C1250 C 0.4902 0.28002 0.16303 0.0
C1251 C 0.468 0.31186 0.11961 0.0
N1252 N 0.49265 0.25919 0.11368 0.0
N1253 N 0.51806 0.33293 0.16377 0.0
H1254 H 0.41435 0.32474 0.07574 0.0
H1255 H 0.42633 0.3404 0.11011 0.0
H1256 H 0.54208 0.33605 0.18778 0.0
H1257 H 0.5216 0.34455 0.14718 0.0
H1258 H 0.51153 0.2473 0.12793 0.0
H1259 H 0.48718 0.25646 0.08772 0.0
H1260 H 0.4615 0.25135 0.17703 0.0
H1261 H 0.47942 0.26668 0.21128 0.0
C1262 C 0.09965 0.45063 0.13338 0.0
C1263 C 0.06475 0.43347 0.14684 0.0
C1264 C 0.11826 0.41564 0.09774 0.0
C1265 C 0.14168 0.43316 0.08201 0.0
N1266 N 0.13881 0.46794 0.08268 0.0
N1267 N 0.02724 0.40023 0.13906 0.0
C1268 C 0.12864 0.45086 0.09924 0.0
C1269 C 0.07059 0.41609 0.12831 0.0
N1270 N 0.10823 0.46652 0.15344 0.0
N1271 N 0.14308 0.39854 0.08383 0.0
H1272 H 0.98826 0.40038 0.16047 0.0
H1273 H 0.02247 0.38768 0.12481 0.0
H1274 H 0.17989 0.39764 0.06182 0.0
H1275 H 0.13482 0.3854 0.09599 0.0
H1276 H 0.1418 0.47868 0.14582 0.0
H1277 H 0.08955 0.4669 0.17884 0.0
H1278 H 0.12023 0.48104 0.09312 0.0
H1279 H 0.15781 0.46902 0.05745 0.0
C1280 C 0.16447 0.12206 0.99453 0.0
C1281 C 0.15192 0.13639 0.01945 0.0
C1282 C 0.26121 0.12127 0.05599 0.0
C1283 C 0.27647 0.10729 0.03026 0.0
N1284 N 0.25389 0.09655 0.97254 0.0
N1285 N 0.18844 0.15061 0.07328 0.0
C1286 C 0.23089 0.10826 0.99889 0.0
C1287 C 0.19997 0.13619 0.05014 0.0
N1288 N 0.11063 0.12128 0.96711 0.0
N1289 N 0.30377 0.12009 0.0863 0.0
H1290 H 0.14236 0.16132 0.07046 0.0
H1291 H 0.22596 0.15261 0.09479 0.0
H1292 H 0.35451 0.11073 0.09065 0.0
H1293 H 0.28781 0.12792 0.10786 0.0
H1294 H 0.10952 0.10997 0.94985 0.0
H1295 H 0.06124 0.13115 0.96326 0.0
H1296 H 0.2305 0.09803 0.94791 0.0
H1297 H 0.30248 0.08636 0.9743 0.0
C1298 C 0.09861 0.14248 0.21364 0.0
C1299 C 0.1102 0.15242 0.24482 0.0
C1300 C 0.03143 0.12704 0.27464 0.0
C1301 C 0.02884 0.11602 0.24428 0.0
N1302 N 0.0699 0.11219 0.18555 0.0
N1303 N 0.0967 0.15327 0.30579 0.0
C1304 C 0.06439 0.12351 0.21383 0.0
C1305 C 0.07837 0.14455 0.27552 0.0
N1306 N 0.11832 0.15137 0.18369 0.0
N1307 N 0.98728 0.12094 0.30253 0.0
H1308 H 0.13096 0.16605 0.30758 0.0
H1309 H 0.08417 0.14708 0.32933 0.0
H1310 H 0.95234 0.10824 0.30272 0.0
H1311 H 0.97873 0.12923 0.32428 0.0
H1312 H 0.10313 0.14572 0.15994 0.0
H1313 H 0.14296 0.16525 0.1825 0.0
H1314 H 0.10471 0.11596 0.16404 0.0
H1315 H 0.04559 0.0983 0.18441 0.0
C1316 C 0.88346 0.86068 0.03115 0.0
C1317 C 0.89997 0.85103 1.00003 0.0
C1318 C 0.84768 0.87913 0.96833 0.0
C1319 C 0.82437 0.88812 0.99937 0.0
N1320 N 0.80914 0.88658 0.06018 0.0
N1321 N 0.88529 0.84965 0.93908 0.0
C1322 C 0.83943 0.87867 0.03078 0.0
C1323 C 0.8787 0.85988 0.96862 0.0
N1324 N 0.91285 0.85303 0.06096 0.0
N1325 N 0.84328 0.88928 0.93863 0.0
H1326 H 0.90699 0.83548 0.93825 0.0
H1327 H 0.86218 0.85453 0.9158 0.0
H1328 H 0.8223 0.90349 0.93745 0.0
H1329 H 0.86766 0.8843 0.91566 0.0
H1330 H 0.91149 0.86032 0.08404 0.0
H1331 H 0.94505 0.83992 0.06226 0.0
H1332 H 0.80938 0.87946 0.08343 0.0
H1333 H 0.77755 0.89978 0.06092 0.0
C1334 C 0.89461 0.85013 0.78035 0.0
C1335 C 0.89928 0.84045 0.74863 0.0
C1336 C 0.98184 0.86702 0.72494 0.0
C1337 C 0.96394 0.87782 0.75446 0.0
N1338 N 0.90077 0.88056 0.81004 0.0
N1339 N 0.94298 0.84012 0.68957 0.0
C1340 C 0.92015 0.86961 0.78227 0.0
C1341 C 0.94265 0.84889 0.72066 0.0
N1342 N 0.86948 0.84049 0.80887 0.0
N1343 N 0.03753 0.87404 0.70128 0.0
H1344 H 0.91647 0.82669 0.685 0.0
H1345 H 0.96397 0.84682 0.66747 0.0
H1346 H 0.06823 0.88722 0.7041 0.0
H1347 H 0.05987 0.86607 0.68074 0.0
H1348 H 0.87311 0.84629 0.83321 0.0
H1349 H 0.85343 0.82598 0.80878 0.0
H1350 H 0.85976 0.87605 0.82926 0.0
H1351 H 0.92173 0.89468 0.81286 0.0
C1352 C 0.22514 0.66709 0.54055 0.0
C1353 C 0.16655 0.66934 0.51322 0.0
C1354 C 0.21138 0.63838 0.4897 0.0
C1355 C 0.26298 0.63506 0.51899 0.0
N1356 N 0.30997 0.6451 0.57465 0.0
N1357 N 0.09857 0.65691 0.46282 0.0
C1358 C 0.26849 0.64921 0.54489 0.0
C1359 C 0.15827 0.65492 0.48808 0.0
N1360 N 0.23848 0.68193 0.56262 0.0
N1361 N 0.21533 0.62602 0.46278 0.0
H1362 H 0.06292 0.66941 0.45909 0.0
H1363 H 0.08074 0.6458 0.44661 0.0
H1364 H 0.25231 0.61361 0.46292 0.0
H1365 H 0.1878 0.6288 0.43918 0.0
H1366 H 0.28711 0.68201 0.58074 0.0
H1367 H 0.20486 0.69486 0.56128 0.0
H1368 H 0.30788 0.6539 0.596 0.0
H1369 H 0.34077 0.63208 0.57924 0.0
C1370 C 0.15861 0.63614 0.77834 0.0
C1371 C 0.14388 0.64768 0.74946 0.0
C1372 C 0.08629 0.61998 0.71912 0.0
C1373 C 0.08562 0.60951 0.75015 0.0
N1374 N 0.11234 0.60886 0.81092 0.0
N1375 N 0.0913 0.65129 0.69228 0.0
C1376 C 0.12007 0.61784 0.7802 0.0
C1377 C 0.10718 0.63981 0.71972 0.0
N1378 N 0.21117 0.64253 0.80368 0.0
N1379 N 0.07186 0.61083 0.68893 0.0
H1380 H 0.10993 0.66566 0.69135 0.0
H1381 H 0.05543 0.64686 0.67138 0.0
H1382 H 0.06148 0.5961 0.6871 0.0
H1383 H 0.07972 0.61743 0.66541 0.0
H1384 H 0.23108 0.63391 0.82385 0.0
H1385 H 0.24219 0.65575 0.80251 0.0
H1386 H 0.12802 0.61545 0.83386 0.0
H1387 H 0.08274 0.59564 0.81417 0.0
C1388 C 0.92534 0.40411 0.44219 0.0
C1389 C 0.91602 0.4137 0.47382 0.0
C1390 C 0.99997 0.3884 0.50169 0.0
C1391 C 0.99502 0.37721 0.47174 0.0
N1392 N 0.96307 0.3748 0.41215 0.0
N1393 N 0.94384 0.41521 0.53406 0.0
C1394 C 0.96196 0.38533 0.44137 0.0
C1395 C 0.9547 0.40612 0.5036 0.0
N1396 N 0.89984 0.41316 0.41302 0.0
N1397 N 0.04961 0.38209 0.52801 0.0
H1398 H 0.91237 0.42835 0.53644 0.0
H1399 H 0.9615 0.40923 0.55728 0.0
H1400 H 0.08621 0.36959 0.52613 0.0
H1401 H 0.06197 0.39011 0.54978 0.0
H1402 H 0.91015 0.40776 0.38872 0.0
H1403 H 0.87382 0.42697 0.41297 0.0
H1404 H 0.9302 0.37854 0.3901 0.0
H1405 H 0.99704 0.36197 0.41022 0.0
C1406 C 0.76541 0.35877 0.23413 0.0
C1407 C 0.72768 0.3547 0.26613 0.0
C1408 C 0.8164 0.37969 0.29263 0.0
C1409 C 0.85554 0.38325 0.26072 0.0
N1410 N 0.88625 0.37232 0.2042 0.0
N1411 N 0.7348 0.35758 0.32727 0.0
C1412 C 0.8357 0.37157 0.23242 0.0
C1413 C 0.75818 0.36409 0.29588 0.0
N1414 N 0.73221 0.35102 0.20509 0.0
N1415 N 0.83206 0.39159 0.31952 0.0
H1416 H 0.69408 0.34594 0.33086 0.0
H1417 H 0.76239 0.36248 0.34976 0.0
H1418 H 0.87508 0.40297 0.31847 0.0
H1419 H 0.79797 0.39101 0.3422 0.0
H1420 H 0.7512 0.35516 0.18083 0.0
H1421 H 0.68026 0.34171 0.20501 0.0
H1422 H 0.88009 0.36296 0.18372 0.0
H1423 H 0.94096 0.38084 0.20326 0.0
C1424 C 0.59311 0.11629 0.52974 0.0
C1425 C 0.65658 0.10978 0.50663 0.0
C1426 C 0.61902 0.13569 0.46754 0.0
C1427 C 0.56683 0.14408 0.49281 0.0
N1428 N 0.50478 0.14283 0.54892 0.0
N1429 N 0.73622 0.11428 0.45468 0.0
C1430 C 0.55278 0.13439 0.52406 0.0
C1431 C 0.67147 0.11978 0.47586 0.0
N1432 N 0.57181 0.10523 0.55712 0.0
N1433 N 0.61537 0.14255 0.43508 0.0
H1434 H 0.77523 0.10242 0.45929 0.0
H1435 H 0.75544 0.12235 0.43377 0.0
H1436 H 0.57252 0.15336 0.42811 0.0
H1437 H 0.6462 0.13606 0.41463 0.0
H1438 H 0.51983 0.10812 0.57283 0.0
H1439 H 0.60277 0.09236 0.56291 0.0
H1440 H 0.50097 0.13761 0.57365 0.0
H1441 H 0.47302 0.15585 0.54565 0.0
C1442 C 0.53059 0.11525 0.78298 0.0
C1443 C 0.53559 0.10233 0.75548 0.0
C1444 C 0.60817 0.12625 0.72057 0.0
C1445 C 0.60858 0.13898 0.7489 0.0
N1446 N 0.58045 0.14479 0.80851 0.0
N1447 N 0.55536 0.09653 0.69598 0.0
C1448 C 0.57098 0.13344 0.78037 0.0
C1449 C 0.56693 0.10819 0.72354 0.0
N1450 N 0.48559 0.11011 0.81128 0.0
N1451 N 0.65089 0.13094 0.69146 0.0
H1452 H 0.52547 0.0832 0.69769 0.0
H1453 H 0.56788 0.10064 0.67108 0.0
H1454 H 0.6824 0.1439 0.68795 0.0
H1455 H 0.66083 0.12149 0.6714 0.0
H1456 H 0.47205 0.11936 0.83132 0.0
H1457 H 0.45463 0.0969 0.81324 0.0
H1458 H 0.56292 0.14064 0.8329 0.0
H1459 H 0.61286 0.15783 0.80839 0.0
C1460 C 0.45825 0.89098 0.51138 0.0
C1461 C 0.40927 0.89714 0.48295 0.0
C1462 C 0.46856 0.87069 0.44882 0.0
C1463 C 0.52194 0.8655 0.47654 0.0
N1464 N 0.5782 0.87214 0.53226 0.0
N1465 N 0.37269 0.89405 0.42347 0.0
C1466 C 0.51976 0.87606 0.50729 0.0
C1467 C 0.41532 0.88725 0.45138 0.0
N1468 N 0.44282 0.89873 0.54271 0.0
N1469 N 0.46718 0.85946 0.42032 0.0
H1470 H 0.33114 0.90574 0.42414 0.0
H1471 H 0.38288 0.88905 0.3989 0.0
H1472 H 0.50852 0.84787 0.41674 0.0
H1473 H 0.42195 0.86081 0.40102 0.0
H1474 H 0.46987 0.8935 0.56507 0.0
H1475 H 0.39644 0.90924 0.54696 0.0
H1476 H 0.58612 0.88057 0.55386 0.0
H1477 H 0.62426 0.86135 0.52998 0.0
C1478 C 0.44708 0.87717 0.25615 0.0
C1479 C 0.4126 0.88871 0.2297 0.0
C1480 C 0.3176 0.8624 0.21256 0.0
C1481 C 0.35524 0.85046 0.23764 0.0
N1482 N 0.46518 0.8453 0.27993 0.0
N1483 N 0.33499 0.89035 0.17692 0.0
C1484 C 0.423 0.85749 0.25838 0.0
C1485 C 0.3531 0.88078 0.20636 0.0
N1486 N 0.50034 0.88509 0.27985 0.0
N1487 N 0.24871 0.85617 0.19419 0.0
H1488 H 0.36531 0.90314 0.1705 0.0
H1489 H 0.29878 0.88457 0.15719 0.0
H1490 H 0.2232 0.84243 0.19637 0.0
H1491 H 0.21289 0.86512 0.17841 0.0
H1492 H 0.51804 0.87818 0.30225 0.0
H1493 H 0.52314 0.89908 0.27828 0.0
H1494 H 0.52142 0.8489 0.29261 0.0
H1495 H 0.44722 0.83106 0.2836 0.0
C1496 C 0.5069 0.62521 0.05223 0.0
C1497 C 0.45353 0.63111 0.02494 0.0
C1498 C 0.51743 0.60644 0.98833 0.0
C1499 C 0.56741 0.5998 0.01613 0.0
N1500 N 0.59323 0.59977 0.07657 0.0
N1501 N 0.3925 0.62448 0.97013 0.0
C1502 C 0.55758 0.60833 0.0487 0.0
C1503 C 0.45419 0.62084 0.99389 0.0
N1504 N 0.51115 0.63601 0.08117 0.0
N1505 N 0.53268 0.5996 0.95636 0.0
H1506 H 0.34303 0.63423 0.97452 0.0
H1507 H 0.38475 0.6164 0.94808 0.0
H1508 H 0.57949 0.58932 0.95113 0.0
H1509 H 0.50441 0.60534 0.93464 0.0
H1510 H 0.55659 0.63375 0.10016 0.0
H1511 H 0.47307 0.64811 0.08518 0.0
H1512 H 0.58162 0.60425 0.10138 0.0
H1513 H 0.62714 0.58691 0.0751 0.0
C1514 C 0.64789 0.62307 0.22633 0.0
C1515 C 0.6946 0.63022 0.25453 0.0
C1516 C 0.66518 0.60056 0.28598 0.0
C1517 C 0.62302 0.5929 0.25686 0.0
N1518 N 0.59621 0.59501 0.19651 0.0
N1519 N 0.76165 0.62468 0.30873 0.0
C1520 C 0.62087 0.60361 0.22617 0.0
C1521 C 0.70812 0.61853 0.28349 0.0
N1522 N 0.6266 0.63504 0.20015 0.0
N1523 N 0.65995 0.59137 0.31659 0.0
H1524 H 0.79252 0.63793 0.30798 0.0
H1525 H 0.78127 0.61601 0.32886 0.0
H1526 H 0.62787 0.57845 0.32011 0.0
H1527 H 0.68071 0.5974 0.33935 0.0
H1528 H 0.58498 0.63117 0.18062 0.0
H1529 H 0.64462 0.64941 0.19958 0.0
H1530 H 0.60164 0.6016 0.17286 0.0
H1531 H 0.57924 0.58057 0.19499 0.0
C1532 C 0.30486 0.36752 0.95695 0.0
C1533 C 0.31431 0.38147 0.98301 0.0
C1534 C 0.41489 0.36004 0.01282 0.0
C1535 C 0.39705 0.34532 0.989 0.0
N1536 N 0.31656 0.33417 0.94037 0.0
N1537 N 0.36455 0.38918 0.03957 0.0
C1538 C 0.33927 0.34878 0.96173 0.0
C1539 C 0.36612 0.37731 0.0119 0.0
N1540 N 0.26671 0.37238 0.92689 0.0
N1541 N 0.47771 0.35754 0.03663 0.0
H1542 H 0.3268 0.40149 0.04097 0.0
H1543 H 0.39343 0.38575 0.06266 0.0
H1544 H 0.51276 0.34488 0.03915 0.0
H1545 H 0.49986 0.36859 0.05213 0.0
H1546 H 0.26705 0.36356 0.90553 0.0
H1547 H 0.24185 0.38597 0.92208 0.0
H1548 H 0.26698 0.33526 0.92275 0.0
H1549 H 0.34327 0.32047 0.94164 0.0
C1550 C 0.38737 0.3833 0.78152 0.0
C1551 C 0.39265 0.39192 0.74883 0.0
C1552 C 0.29459 0.36789 0.72627 0.0
C1553 C 0.30172 0.3575 0.75687 0.0
N1554 N 0.35682 0.35443 0.81377 0.0
N1555 N 0.36328 0.39027 0.68855 0.0
C1556 C 0.34859 0.36495 0.78466 0.0
C1557 C 0.34917 0.38368 0.72076 0.0
N1558 N 0.41508 0.39298 0.80966 0.0
N1559 N 0.23432 0.36289 0.70278 0.0
H1560 H 0.40727 0.40106 0.68309 0.0
H1561 H 0.33866 0.38356 0.66699 0.0
H1562 H 0.19163 0.35162 0.70674 0.0
H1563 H 0.2209 0.37116 0.68135 0.0
H1564 H 0.40473 0.38815 0.83434 0.0
H1565 H 0.4411 0.40672 0.80863 0.0
H1566 H 0.39838 0.3581 0.83344 0.0
H1567 H 0.32503 0.34144 0.8174 0.0
loop_
_geom_bond_atom_site_label_1
_geom_bond_atom_site_label_2
_geom_bond_distance
_geom_bond_site_symmetry_2
_ccdc_geom_bond_type
In0 O1 2.296 1_554 S
In0 O2 2.329 1_554 S
In0 O6 2.265 . S
In0 O7 2.323 . S
In0 O8 2.265 . S
In0 O9 2.326 1_554 S
In0 O11 2.293 . S
In0 O12 2.326 1_554 S
O1 In0 2.296 1_556 S
O1 C10 1.240 . S
O2 In0 2.329 1_556 S
O2 C10 1.252 . S
C3 O6 1.252 . S
C3 O7 1.260 . S
C4 O11 1.240 . S
C4 O12 1.245 1_554 S
C5 O8 1.252 . S
C5 O9 1.260 1_554 S
O6 In0 2.265 . S
O6 C3 1.252 . S
O7 In0 2.323 . S
O7 C3 1.260 . S
O8 In0 2.265 . S
O8 C5 1.252 . S
O9 In0 2.326 1_556 S
O9 C5 1.260 1_556 S
C10 O1 1.240 . S
C10 O2 1.252 . S
O11 In0 2.293 . S
O11 C4 1.240 . S
O12 In0 2.326 1_556 S
O12 C4 1.245 1_556 S
In13 O14 2.296 1_654 S
In13 O15 2.329 1_554 S
In13 O19 2.265 1_655 S
In13 O20 2.323 1_655 S
In13 O21 2.265 . S
In13 O22 2.326 1_654 S
In13 O24 2.293 . S
In13 O25 2.326 1_554 S
O14 In13 2.296 1_456 S
O14 C23 1.240 1_455 S
O15 In13 2.329 1_556 S
O15 C23 1.252 . S
C16 O19 1.252 . S
C16 O20 1.260 . S
C17 O24 1.240 . S
C17 O25 1.245 1_554 S
C18 O21 1.252 1_455 S
C18 O22 1.260 1_554 S
O19 In13 2.265 1_455 S
O19 C16 1.252 . S
O20 In13 2.323 1_455 S
O20 C16 1.260 . S
O21 In13 2.265 . S
O21 C18 1.252 1_655 S
O22 In13 2.326 1_456 S
O22 C18 1.260 1_556 S
C23 O14 1.240 1_655 S
C23 O15 1.252 . S
O24 In13 2.293 . S
O24 C17 1.240 . S
O25 In13 2.326 1_556 S
O25 C17 1.245 1_556 S
In26 O27 2.294 . S
In26 O28 2.326 . S
In26 O32 2.266 . S
In26 O33 2.326 . S
In26 O34 2.266 . S
In26 O35 2.326 . S
In26 O37 2.294 . S
In26 O38 2.326 . S
O27 In26 2.294 . S
O27 C36 1.240 . S
O28 In26 2.326 . S
O28 C36 1.252 . S
C29 O32 1.252 . S
C29 O33 1.260 . S
C30 O37 1.240 . S
C30 O38 1.252 . S
C31 O34 1.252 . S
C31 O35 1.260 . S
O32 In26 2.266 . S
O32 C29 1.252 . S
O33 In26 2.326 . S
O33 C29 1.260 . S
O34 In26 2.266 . S
O34 C31 1.252 . S
O35 In26 2.326 . S
O35 C31 1.260 . S
C36 O27 1.240 . S
C36 O28 1.252 . S
O37 In26 2.294 . S
O37 C30 1.240 . S
O38 In26 2.326 . S
O38 C30 1.252 . S
In39 O40 2.302 . S
In39 O41 2.330 . S
In39 O45 2.268 . S
In39 O46 2.320 1_655 S
In39 O47 2.259 1_655 S
In39 O48 2.324 1_655 S
In39 O50 2.291 1_655 S
In39 O51 2.330 . S
O40 In39 2.302 . S
O40 C49 1.240 . S
O41 In39 2.330 . S
O41 C49 1.252 . S
C42 O45 1.252 1_455 S
C42 O46 1.260 . S
C43 O50 1.240 1_655 S
C43 O51 1.252 . S
C44 O47 1.252 . S
C44 O48 1.260 . S
O45 In39 2.268 . S
O45 C42 1.252 1_655 S
O46 In39 2.320 1_455 S
O46 C42 1.260 . S
O47 In39 2.259 1_455 S
O47 C44 1.252 . S
O48 In39 2.324 1_455 S
O48 C44 1.260 . S
C49 O40 1.240 . S
C49 O41 1.252 . S
O50 In39 2.291 1_455 S
O50 C43 1.240 1_455 S
O51 In39 2.330 . S
O51 C43 1.252 . S
In52 O53 2.293 . S
In52 O54 2.326 1_556 S
In52 O58 2.265 . S
In52 O59 2.326 1_556 S
In52 O60 2.265 . S
In52 O61 2.323 . S
In52 O63 2.296 1_556 S
In52 O64 2.329 1_556 S
O53 In52 2.293 . S
O53 C62 1.240 . S
O54 In52 2.326 1_554 S
O54 C62 1.245 1_554 S
C55 O58 1.252 . S
C55 O59 1.260 1_556 S
C56 O63 1.240 . S
C56 O64 1.252 . S
C57 O60 1.252 . S
C57 O61 1.260 . S
O58 In52 2.265 . S
O58 C55 1.252 . S
O59 In52 2.326 1_554 S
O59 C55 1.260 1_554 S
O60 In52 2.265 . S
O60 C57 1.252 . S
O61 In52 2.323 . S
O61 C57 1.260 . S
C62 O53 1.240 . S
C62 O54 1.245 1_556 S
O63 In52 2.296 1_554 S
O63 C56 1.240 . S
O64 In52 2.329 1_554 S
O64 C56 1.252 . S
In65 O66 2.296 1_456 S
In65 O67 2.329 1_556 S
In65 O71 2.265 1_455 S
In65 O72 2.323 1_455 S
In65 O73 2.265 . S
In65 O74 2.326 1_456 S
In65 O76 2.293 . S
In65 O77 2.326 1_556 S
O66 In65 2.296 1_654 S
O66 C75 1.240 1_655 S
O67 In65 2.329 1_554 S
O67 C75 1.252 . S
C68 O71 1.252 . S
C68 O72 1.260 . S
C69 O76 1.240 . S
C69 O77 1.245 1_556 S
C70 O73 1.252 1_655 S
C70 O74 1.260 1_556 S
O71 In65 2.265 1_655 S
O71 C68 1.252 . S
O72 In65 2.323 1_655 S
O72 C68 1.260 . S
O73 In65 2.265 . S
O73 C70 1.252 1_455 S
O74 In65 2.326 1_654 S
O74 C70 1.260 1_554 S
C75 O66 1.240 1_455 S
C75 O67 1.252 . S
O76 In65 2.293 . S
O76 C69 1.240 . S
O77 In65 2.326 1_554 S
O77 C69 1.245 1_554 S
In78 O79 2.294 . S
In78 O80 2.326 . S
In78 O84 2.266 . S
In78 O85 2.326 . S
In78 O86 2.266 . S
In78 O87 2.326 . S
In78 O89 2.294 . S
In78 O90 2.326 . S
O79 In78 2.294 . S
O79 C88 1.240 . S
O80 In78 2.326 . S
O80 C88 1.252 . S
C81 O84 1.252 . S
C81 O85 1.260 . S
C82 O89 1.240 . S
C82 O90 1.252 . S
C83 O86 1.252 . S
C83 O87 1.260 . S
O84 In78 2.266 . S
O84 C81 1.252 . S
O85 In78 2.326 . S
O85 C81 1.260 . S
O86 In78 2.266 . S
O86 C83 1.252 . S
O87 In78 2.326 . S
O87 C83 1.260 . S
C88 O79 1.240 . S
C88 O80 1.252 . S
O89 In78 2.294 . S
O89 C82 1.240 . S
O90 In78 2.326 . S
O90 C82 1.252 . S
In91 O92 2.291 1_455 S
In91 O93 2.330 . S
In91 O97 2.259 1_455 S
In91 O98 2.324 1_455 S
In91 O99 2.268 . S
In91 O100 2.320 1_455 S
In91 O102 2.302 . S
In91 O103 2.330 . S
O92 In91 2.291 1_655 S
O92 C101 1.240 1_655 S
O93 In91 2.330 . S
O93 C101 1.252 . S
C94 O97 1.252 . S
C94 O98 1.260 . S
C95 O102 1.240 . S
C95 O103 1.252 . S
C96 O99 1.252 1_655 S
C96 O100 1.260 . S
O97 In91 2.259 1_655 S
O97 C94 1.252 . S
O98 In91 2.324 1_655 S
O98 C94 1.260 . S
O99 In91 2.268 . S
O99 C96 1.252 1_455 S
O100 In91 2.320 1_655 S
O100 C96 1.260 . S
C101 O92 1.240 1_455 S
C101 O93 1.252 . S
O102 In91 2.302 . S
O102 C95 1.240 . S
O103 In91 2.330 . S
O103 C95 1.252 . S
In104 O105 2.294 . S
In104 O106 2.326 . S
In104 O110 2.266 . S
In104 O111 2.326 . S
In104 O112 2.266 . S
In104 O113 2.326 . S
In104 O115 2.294 . S
In104 O116 2.326 . S
O105 In104 2.294 . S
O105 C114 1.240 . S
O106 In104 2.326 . S
O106 C114 1.252 . S
C107 O110 1.252 . S
C107 O111 1.260 . S
C108 O115 1.240 . S
C108 O116 1.252 . S
C109 O112 1.252 . S
C109 O113 1.260 . S
O110 In104 2.266 . S
O110 C107 1.252 . S
O111 In104 2.326 . S
O111 C107 1.260 . S
O112 In104 2.266 . S
O112 C109 1.252 . S
O113 In104 2.326 . S
O113 C109 1.260 . S
C114 O105 1.240 . S
C114 O106 1.252 . S
O115 In104 2.294 . S
O115 C108 1.240 . S
O116 In104 2.326 . S
O116 C108 1.252 . S
In117 O118 2.294 1_655 S
In117 O119 2.326 . S
In117 O123 2.266 1_655 S
In117 O124 2.326 1_655 S
In117 O125 2.266 . S
In117 O126 2.326 1_655 S
In117 O128 2.294 . S
In117 O129 2.326 . S
O118 In117 2.294 1_455 S
O118 C127 1.240 1_455 S
O119 In117 2.326 . S
O119 C127 1.252 . S
C120 O123 1.252 . S
C120 O124 1.260 . S
C121 O128 1.240 . S
C121 O129 1.252 . S
C122 O125 1.252 1_455 S
C122 O126 1.260 . S
O123 In117 2.266 1_455 S
O123 C120 1.252 . S
O124 In117 2.326 1_455 S
O124 C120 1.260 . S
O125 In117 2.266 . S
O125 C122 1.252 1_655 S
O126 In117 2.326 1_455 S
O126 C122 1.260 . S
C127 O118 1.240 1_655 S
C127 O119 1.252 . S
O128 In117 2.294 . S
O128 C121 1.240 . S
O129 In117 2.326 . S
O129 C121 1.252 . S
In130 O131 2.294 . S
In130 O132 2.326 . S
In130 O136 2.266 . S
In130 O137 2.326 . S
In130 O138 2.266 . S
In130 O139 2.326 . S
In130 O141 2.294 . S
In130 O142 2.326 . S
O131 In130 2.294 . S
O131 C140 1.240 . S
O132 In130 2.326 . S
O132 C140 1.252 . S
C133 O136 1.252 . S
C133 O137 1.260 . S
C134 O141 1.240 . S
C134 O142 1.252 . S
C135 O138 1.252 . S
C135 O139 1.260 . S
O136 In130 2.266 . S
O136 C133 1.252 . S
O137 In130 2.326 . S
O137 C133 1.260 . S
O138 In130 2.266 . S
O138 C135 1.252 . S
O139 In130 2.326 . S
O139 C135 1.260 . S
C140 O131 1.240 . S
C140 O132 1.252 . S
O141 In130 2.294 . S
O141 C134 1.240 . S
O142 In130 2.326 . S
O142 C134 1.252 . S
In143 O144 2.294 1_655 S
In143 O145 2.326 . S
In143 O149 2.266 1_655 S
In143 O150 2.326 1_655 S
In143 O151 2.266 . S
In143 O152 2.326 1_655 S
In143 O154 2.294 . S
In143 O155 2.326 . S
O144 In143 2.294 1_455 S
O144 C153 1.240 1_455 S
O145 In143 2.326 . S
O145 C153 1.252 . S
C146 O149 1.252 . S
C146 O150 1.260 . S
C147 O154 1.240 . S
C147 O155 1.252 . S
C148 O151 1.252 1_455 S
C148 O152 1.260 . S
O149 In143 2.266 1_455 S
O149 C146 1.252 . S
O150 In143 2.326 1_455 S
O150 C146 1.260 . S
O151 In143 2.266 . S
O151 C148 1.252 1_655 S
O152 In143 2.326 1_455 S
O152 C148 1.260 . S
C153 O144 1.240 1_655 S
C153 O145 1.252 . S
O154 In143 2.294 . S
O154 C147 1.240 . S
O155 In143 2.326 . S
O155 C147 1.252 . S
In156 O157 2.294 . S
In156 O158 2.326 . S
In156 O162 2.266 . S
In156 O163 2.326 . S
In156 O164 2.266 . S
In156 O165 2.326 . S
In156 O167 2.294 . S
In156 O168 2.326 . S
O157 In156 2.294 . S
O157 C166 1.240 . S
O158 In156 2.326 . S
O158 C166 1.252 . S
C159 O162 1.252 . S
C159 O163 1.260 . S
C160 O167 1.240 . S
C160 O168 1.252 . S
C161 O164 1.252 . S
C161 O165 1.260 . S
O162 In156 2.266 . S
O162 C159 1.252 . S
O163 In156 2.326 . S
O163 C159 1.260 . S
O164 In156 2.266 . S
O164 C161 1.252 . S
O165 In156 2.326 . S
O165 C161 1.260 . S
C166 O157 1.240 . S
C166 O158 1.252 . S
O167 In156 2.294 . S
O167 C160 1.240 . S
O168 In156 2.326 . S
O168 C160 1.252 . S
In169 O170 2.294 1_455 S
In169 O171 2.326 . S
In169 O175 2.266 1_455 S
In169 O176 2.326 1_455 S
In169 O177 2.266 . S
In169 O178 2.326 1_455 S
In169 O180 2.294 . S
In169 O181 2.326 . S
O170 In169 2.294 1_655 S
O170 C179 1.240 1_655 S
O171 In169 2.326 . S
O171 C179 1.252 . S
C172 O175 1.252 . S
C172 O176 1.260 . S
C173 O180 1.240 . S
C173 O181 1.252 . S
C174 O177 1.252 1_655 S
C174 O178 1.260 . S
O175 In169 2.266 1_655 S
O175 C172 1.252 . S
O176 In169 2.326 1_655 S
O176 C172 1.260 . S
O177 In169 2.266 . S
O177 C174 1.252 1_455 S
O178 In169 2.326 1_655 S
O178 C174 1.260 . S
C179 O170 1.240 1_455 S
C179 O171 1.252 . S
O180 In169 2.294 . S
O180 C173 1.240 . S
O181 In169 2.326 . S
O181 C173 1.252 . S
In182 O183 2.294 . S
In182 O184 2.326 . S
In182 O188 2.266 . S
In182 O189 2.326 . S
In182 O190 2.266 . S
In182 O191 2.326 . S
In182 O193 2.294 . S
In182 O194 2.326 . S
O183 In182 2.294 . S
O183 C192 1.240 . S
O184 In182 2.326 . S
O184 C192 1.252 . S
C185 O188 1.252 . S
C185 O189 1.260 . S
C186 O193 1.240 . S
C186 O194 1.252 . S
C187 O190 1.252 . S
C187 O191 1.260 . S
O188 In182 2.266 . S
O188 C185 1.252 . S
O189 In182 2.326 . S
O189 C185 1.260 . S
O190 In182 2.266 . S
O190 C187 1.252 . S
O191 In182 2.326 . S
O191 C187 1.260 . S
C192 O183 1.240 . S
C192 O184 1.252 . S
O193 In182 2.294 . S
O193 C186 1.240 . S
O194 In182 2.326 . S
O194 C186 1.252 . S
In195 O196 2.294 . S
In195 O197 2.326 . S
In195 O201 2.266 . S
In195 O202 2.326 1_455 S
In195 O203 2.266 1_455 S
In195 O204 2.326 1_455 S
In195 O206 2.294 1_455 S
In195 O207 2.326 . S
O196 In195 2.294 . S
O196 C205 1.240 . S
O197 In195 2.326 . S
O197 C205 1.252 . S
C198 O201 1.252 1_655 S
C198 O202 1.260 . S
C199 O206 1.240 1_455 S
C199 O207 1.252 . S
C200 O203 1.252 . S
C200 O204 1.260 . S
O201 In195 2.266 . S
O201 C198 1.252 1_455 S
O202 In195 2.326 1_655 S
O202 C198 1.260 . S
O203 In195 2.266 1_655 S
O203 C200 1.252 . S
O204 In195 2.326 1_655 S
O204 C200 1.260 . S
C205 O196 1.240 . S
C205 O197 1.252 . S
O206 In195 2.294 1_655 S
O206 C199 1.240 1_655 S
O207 In195 2.326 . S
O207 C199 1.252 . S
In208 O209 2.294 . S
In208 O210 2.326 . S
In208 O214 2.266 . S
In208 O215 2.326 . S
In208 O216 2.266 . S
In208 O217 2.326 . S
In208 O219 2.294 . S
In208 O220 2.326 . S
O209 In208 2.294 . S
O209 C218 1.240 . S
O210 In208 2.326 . S
O210 C218 1.252 . S
C211 O214 1.252 . S
C211 O215 1.260 . S
C212 O219 1.240 . S
C212 O220 1.252 . S
C213 O216 1.252 . S
C213 O217 1.260 . S
O214 In208 2.266 . S
O214 C211 1.252 . S
O215 In208 2.326 . S
O215 C211 1.260 . S
O216 In208 2.266 . S
O216 C213 1.252 . S
O217 In208 2.326 . S
O217 C213 1.260 . S
C218 O209 1.240 . S
C218 O210 1.252 . S
O219 In208 2.294 . S
O219 C212 1.240 . S
O220 In208 2.326 . S
O220 C212 1.252 . S
In221 O222 2.294 . S
In221 O223 2.326 . S
In221 O227 2.266 . S
In221 O228 2.326 . S
In221 O229 2.266 . S
In221 O230 2.326 . S
In221 O232 2.294 . S
In221 O233 2.326 . S
O222 In221 2.294 . S
O222 C231 1.240 . S
O223 In221 2.326 . S
O223 C231 1.252 . S
C224 O227 1.252 . S
C224 O228 1.260 . S
C225 O232 1.240 . S
C225 O233 1.252 . S
C226 O229 1.252 . S
C226 O230 1.260 . S
O227 In221 2.266 . S
O227 C224 1.252 . S
O228 In221 2.326 . S
O228 C224 1.260 . S
O229 In221 2.266 . S
O229 C226 1.252 . S
O230 In221 2.326 . S
O230 C226 1.260 . S
C231 O222 1.240 . S
C231 O223 1.252 . S
O232 In221 2.294 . S
O232 C225 1.240 . S
O233 In221 2.326 . S
O233 C225 1.252 . S
In234 O235 2.294 . S
In234 O236 2.326 . S
In234 O240 2.266 . S
In234 O241 2.326 . S
In234 O242 2.266 . S
In234 O243 2.326 . S
In234 O245 2.294 . S
In234 O246 2.326 . S
O235 In234 2.294 . S
O235 C244 1.240 . S
O236 In234 2.326 . S
O236 C244 1.252 . S
C237 O240 1.252 . S
C237 O241 1.260 . S
C238 O245 1.240 . S
C238 O246 1.252 . S
C239 O242 1.252 . S
C239 O243 1.260 . S
O240 In234 2.266 . S
O240 C237 1.252 . S
O241 In234 2.326 . S
O241 C237 1.260 . S
O242 In234 2.266 . S
O242 C239 1.252 . S
O243 In234 2.326 . S
O243 C239 1.260 . S
C244 O235 1.240 . S
C244 O236 1.252 . S
O245 In234 2.294 . S
O245 C238 1.240 . S
O246 In234 2.326 . S
O246 C238 1.252 . S
In247 O248 2.294 . S
In247 O249 2.326 . S
In247 O253 2.266 . S
In247 O254 2.326 . S
In247 O255 2.266 . S
In247 O256 2.326 . S
In247 O258 2.294 . S
In247 O259 2.326 . S
O248 In247 2.294 . S
O248 C257 1.240 . S
O249 In247 2.326 . S
O249 C257 1.252 . S
C250 O253 1.252 . S
C250 O254 1.260 . S
C251 O258 1.240 . S
C251 O259 1.252 . S
C252 O255 1.252 . S
C252 O256 1.260 . S
O253 In247 2.266 . S
O253 C250 1.252 . S
O254 In247 2.326 . S
O254 C250 1.260 . S
O255 In247 2.266 . S
O255 C252 1.252 . S
O256 In247 2.326 . S
O256 C252 1.260 . S
C257 O248 1.240 . S
C257 O249 1.252 . S
O258 In247 2.294 . S
O258 C251 1.240 . S
O259 In247 2.326 . S
O259 C251 1.252 . S
In260 O261 2.294 . S
In260 O262 2.326 . S
In260 O266 2.266 . S
In260 O267 2.326 . S
In260 O268 2.266 . S
In260 O269 2.326 . S
In260 O271 2.294 . S
In260 O272 2.326 . S
O261 In260 2.294 . S
O261 C270 1.240 . S
O262 In260 2.326 . S
O262 C270 1.252 . S
C263 O266 1.252 . S
C263 O267 1.260 . S
C264 O271 1.240 . S
C264 O272 1.252 . S
C265 O268 1.252 . S
C265 O269 1.260 . S
O266 In260 2.266 . S
O266 C263 1.252 . S
O267 In260 2.326 . S
O267 C263 1.260 . S
O268 In260 2.266 . S
O268 C265 1.252 . S
O269 In260 2.326 . S
O269 C265 1.260 . S
C270 O261 1.240 . S
C270 O262 1.252 . S
O271 In260 2.294 . S
O271 C264 1.240 . S
O272 In260 2.326 . S
O272 C264 1.252 . S
In273 O274 2.294 . S
In273 O275 2.326 . S
In273 O279 2.266 . S
In273 O280 2.326 . S
In273 O281 2.266 . S
In273 O282 2.326 . S
In273 O284 2.294 . S
In273 O285 2.326 . S
O274 In273 2.294 . S
O274 C283 1.240 . S
O275 In273 2.326 . S
O275 C283 1.252 . S
C276 O279 1.252 . S
C276 O280 1.260 . S
C277 O284 1.240 . S
C277 O285 1.252 . S
C278 O281 1.252 . S
C278 O282 1.260 . S
O279 In273 2.266 . S
O279 C276 1.252 . S
O280 In273 2.326 . S
O280 C276 1.260 . S
O281 In273 2.266 . S
O281 C278 1.252 . S
O282 In273 2.326 . S
O282 C278 1.260 . S
C283 O274 1.240 . S
C283 O275 1.252 . S
O284 In273 2.294 . S
O284 C277 1.240 . S
O285 In273 2.326 . S
O285 C277 1.252 . S
In286 O287 2.294 . S
In286 O288 2.326 . S
In286 O292 2.266 . S
In286 O293 2.326 . S
In286 O294 2.266 . S
In286 O295 2.326 . S
In286 O297 2.294 . S
In286 O298 2.326 . S
O287 In286 2.294 . S
O287 C296 1.240 . S
O288 In286 2.326 . S
O288 C296 1.252 . S
C289 O292 1.252 . S
C289 O293 1.260 . S
C290 O297 1.240 . S
C290 O298 1.252 . S
C291 O294 1.252 . S
C291 O295 1.260 . S
O292 In286 2.266 . S
O292 C289 1.252 . S
O293 In286 2.326 . S
O293 C289 1.260 . S
O294 In286 2.266 . S
O294 C291 1.252 . S
O295 In286 2.326 . S
O295 C291 1.260 . S
C296 O287 1.240 . S
C296 O288 1.252 . S
O297 In286 2.294 . S
O297 C290 1.240 . S
O298 In286 2.326 . S
O298 C290 1.252 . S
In299 O300 2.294 . S
In299 O301 2.326 . S
In299 O305 2.266 . S
In299 O306 2.326 . S
In299 O307 2.266 . S
In299 O308 2.326 . S
In299 O310 2.294 . S
In299 O311 2.326 . S
O300 In299 2.294 . S
O300 C309 1.240 . S
O301 In299 2.326 . S
O301 C309 1.252 . S
C302 O305 1.252 . S
C302 O306 1.260 . S
C303 O310 1.240 . S
C303 O311 1.252 . S
C304 O307 1.252 . S
C304 O308 1.260 . S
O305 In299 2.266 . S
O305 C302 1.252 . S
O306 In299 2.326 . S
O306 C302 1.260 . S
O307 In299 2.266 . S
O307 C304 1.252 . S
O308 In299 2.326 . S
O308 C304 1.260 . S
C309 O300 1.240 . S
C309 O301 1.252 . S
O310 In299 2.294 . S
O310 C303 1.240 . S
O311 In299 2.326 . S
O311 C303 1.252 . S
In312 O313 2.293 . S
In312 O314 2.326 1_554 S
In312 O318 2.265 . S
In312 O319 2.326 1_554 S
In312 O320 2.265 . S
In312 O321 2.323 . S
In312 O323 2.296 1_554 S
In312 O324 2.329 1_554 S
O313 In312 2.293 . S
O313 C322 1.240 . S
O314 In312 2.326 1_556 S
O314 C322 1.245 1_556 S
C315 O318 1.252 . S
C315 O319 1.260 1_554 S
C316 O323 1.240 . S
C316 O324 1.252 . S
C317 O320 1.252 . S
C317 O321 1.260 . S
O318 In312 2.265 . S
O318 C315 1.252 . S
O319 In312 2.326 1_556 S
O319 C315 1.260 1_556 S
O320 In312 2.265 . S
O320 C317 1.252 . S
O321 In312 2.323 . S
O321 C317 1.260 . S
C322 O313 1.240 . S
C322 O314 1.245 1_554 S
O323 In312 2.296 1_556 S
O323 C316 1.240 . S
O324 In312 2.329 1_556 S
O324 C316 1.252 . S
In325 O326 2.296 1_554 S
In325 O327 2.329 1_554 S
In325 O331 2.265 . S
In325 O332 2.323 . S
In325 O333 2.265 . S
In325 O334 2.326 1_554 S
In325 O336 2.293 . S
In325 O337 2.326 1_554 S
O326 In325 2.296 1_556 S
O326 C335 1.240 . S
O327 In325 2.329 1_556 S
O327 C335 1.252 . S
C328 O331 1.252 . S
C328 O332 1.260 . S
C329 O336 1.240 . S
C329 O337 1.245 1_554 S
C330 O333 1.252 . S
C330 O334 1.260 1_554 S
O331 In325 2.265 . S
O331 C328 1.252 . S
O332 In325 2.323 . S
O332 C328 1.260 . S
O333 In325 2.265 . S
O333 C330 1.252 . S
O334 In325 2.326 1_556 S
O334 C330 1.260 1_556 S
C335 O326 1.240 . S
C335 O327 1.252 . S
O336 In325 2.293 . S
O336 C329 1.240 . S
O337 In325 2.326 1_556 S
O337 C329 1.245 1_556 S
In338 O339 2.294 . S
In338 O340 2.326 . S
In338 O344 2.266 . S
In338 O345 2.326 . S
In338 O346 2.266 . S
In338 O347 2.326 . S
In338 O349 2.294 . S
In338 O350 2.326 . S
O339 In338 2.294 . S
O339 C348 1.240 . S
O340 In338 2.326 . S
O340 C348 1.252 . S
C341 O344 1.252 . S
C341 O345 1.260 . S
C342 O349 1.240 . S
C342 O350 1.252 . S
C343 O346 1.252 . S
C343 O347 1.260 . S
O344 In338 2.266 . S
O344 C341 1.252 . S
O345 In338 2.326 . S
O345 C341 1.260 . S
O346 In338 2.266 . S
O346 C343 1.252 . S
O347 In338 2.326 . S
O347 C343 1.260 . S
C348 O339 1.240 . S
C348 O340 1.252 . S
O349 In338 2.294 . S
O349 C342 1.240 . S
O350 In338 2.326 . S
O350 C342 1.252 . S
In351 O352 2.294 . S
In351 O353 2.326 . S
In351 O357 2.266 . S
In351 O358 2.326 . S
In351 O359 2.266 . S
In351 O360 2.326 . S
In351 O362 2.294 . S
In351 O363 2.326 . S
O352 In351 2.294 . S
O352 C361 1.240 . S
O353 In351 2.326 . S
O353 C361 1.252 . S
C354 O357 1.252 . S
C354 O358 1.260 . S
C355 O362 1.240 . S
C355 O363 1.252 . S
C356 O359 1.252 . S
C356 O360 1.260 . S
O357 In351 2.266 . S
O357 C354 1.252 . S
O358 In351 2.326 . S
O358 C354 1.260 . S
O359 In351 2.266 . S
O359 C356 1.252 . S
O360 In351 2.326 . S
O360 C356 1.260 . S
C361 O352 1.240 . S
C361 O353 1.252 . S
O362 In351 2.294 . S
O362 C355 1.240 . S
O363 In351 2.326 . S
O363 C355 1.252 . S
In364 O365 2.296 1_556 S
In364 O366 2.329 1_556 S
In364 O370 2.265 . S
In364 O371 2.323 . S
In364 O372 2.265 . S
In364 O373 2.326 1_556 S
In364 O375 2.293 . S
In364 O376 2.326 1_556 S
O365 In364 2.296 1_554 S
O365 C374 1.240 . S
O366 In364 2.329 1_554 S
O366 C374 1.252 . S
C367 O370 1.252 . S
C367 O371 1.260 . S
C368 O375 1.240 . S
C368 O376 1.245 1_556 S
C369 O372 1.252 . S
C369 O373 1.260 1_556 S
O370 In364 2.265 . S
O370 C367 1.252 . S
O371 In364 2.323 . S
O371 C367 1.260 . S
O372 In364 2.265 . S
O372 C369 1.252 . S
O373 In364 2.326 1_554 S
O373 C369 1.260 1_554 S
C374 O365 1.240 . S
C374 O366 1.252 . S
O375 In364 2.293 . S
O375 C368 1.240 . S
O376 In364 2.326 1_554 S
O376 C368 1.245 1_554 S
In377 O378 2.293 . S
In377 O379 2.326 1_556 S
In377 O383 2.265 . S
In377 O384 2.326 1_556 S
In377 O385 2.265 . S
In377 O386 2.323 . S
In377 O388 2.296 1_556 S
In377 O389 2.329 1_556 S
O378 In377 2.293 . S
O378 C387 1.240 . S
O379 In377 2.326 1_554 S
O379 C387 1.245 1_554 S
C380 O383 1.252 . S
C380 O384 1.260 1_556 S
C381 O388 1.240 . S
C381 O389 1.252 . S
C382 O385 1.252 . S
C382 O386 1.260 . S
O383 In377 2.265 . S
O383 C380 1.252 . S
O384 In377 2.326 1_554 S
O384 C380 1.260 1_554 S
O385 In377 2.265 . S
O385 C382 1.252 . S
O386 In377 2.323 . S
O386 C382 1.260 . S
C387 O378 1.240 . S
C387 O379 1.245 1_556 S
O388 In377 2.296 1_554 S
O388 C381 1.240 . S
O389 In377 2.329 1_554 S
O389 C381 1.252 . S
In390 O391 2.294 . S
In390 O392 2.326 . S
In390 O396 2.266 . S
In390 O397 2.326 . S
In390 O398 2.266 . S
In390 O399 2.326 . S
In390 O401 2.294 . S
In390 O402 2.326 . S
O391 In390 2.294 . S
O391 C400 1.240 . S
O392 In390 2.326 . S
O392 C400 1.252 . S
C393 O396 1.252 . S
C393 O397 1.260 . S
C394 O401 1.240 . S
C394 O402 1.252 . S
C395 O398 1.252 . S
C395 O399 1.260 . S
O396 In390 2.266 . S
O396 C393 1.252 . S
O397 In390 2.326 . S
O397 C393 1.260 . S
O398 In390 2.266 . S
O398 C395 1.252 . S
O399 In390 2.326 . S
O399 C395 1.260 . S
C400 O391 1.240 . S
C400 O392 1.252 . S
O401 In390 2.294 . S
O401 C394 1.240 . S
O402 In390 2.326 . S
O402 C394 1.252 . S
In403 O404 2.294 . S
In403 O405 2.326 . S
In403 O409 2.266 . S
In403 O410 2.326 . S
In403 O411 2.266 . S
In403 O412 2.326 . S
In403 O414 2.294 . S
In403 O415 2.326 . S
O404 In403 2.294 . S
O404 C413 1.240 . S
O405 In403 2.326 . S
O405 C413 1.252 . S
C406 O409 1.252 . S
C406 O410 1.260 . S
C407 O414 1.240 . S
C407 O415 1.252 . S
C408 O411 1.252 . S
C408 O412 1.260 . S
O409 In403 2.266 . S
O409 C406 1.252 . S
O410 In403 2.326 . S
O410 C406 1.260 . S
O411 In403 2.266 . S
O411 C408 1.252 . S
O412 In403 2.326 . S
O412 C408 1.260 . S
C413 O404 1.240 . S
C413 O405 1.252 . S
O414 In403 2.294 . S
O414 C407 1.240 . S
O415 In403 2.326 . S
O415 C407 1.252 . S
C416 C417 1.363 . S
C416 C422 1.379 . S
C416 N424 1.356 . S
C417 C416 1.363 . S
C417 C423 1.363 . S
C418 C419 1.363 . S
C418 C423 1.379 . S
C418 N425 1.356 . S
C419 C418 1.363 . S
C419 C422 1.363 . S
N420 C422 1.356 . S
N420 H432 0.984 . S
N420 H433 0.985 . S
N421 C423 1.356 . S
N421 H426 0.984 . S
N421 H427 0.985 . S
C422 C416 1.379 . S
C422 C419 1.363 . S
C422 N420 1.356 . S
C423 C417 1.363 . S
C423 C418 1.379 . S
C423 N421 1.356 . S
N424 C416 1.356 . S
N424 H430 0.984 . S
N424 H431 0.984 . S
N425 C418 1.356 . S
N425 H428 0.984 . S
N425 H429 0.985 . S
H426 N421 0.984 . S
H427 N421 0.985 . S
H428 N425 0.984 . S
H429 N425 0.985 . S
H430 N424 0.984 . S
H431 N424 0.984 . S
H432 N420 0.984 . S
H433 N420 0.985 . S
C434 C435 1.363 . S
C434 C440 1.379 . S
C434 N442 1.356 . S
C435 C434 1.363 . S
C435 C441 1.363 . S
C436 C437 1.363 . S
C436 C441 1.379 . S
C436 N443 1.356 . S
C437 C436 1.363 . S
C437 C440 1.363 . S
N438 C440 1.356 . S
N438 H450 0.984 . S
N438 H451 0.985 . S
N439 C441 1.356 . S
N439 H444 0.984 . S
N439 H445 0.985 . S
C440 C434 1.379 . S
C440 C437 1.363 . S
C440 N438 1.356 . S
C441 C435 1.363 . S
C441 C436 1.379 . S
C441 N439 1.356 . S
N442 C434 1.356 . S
N442 H448 0.984 . S
N442 H449 0.984 . S
N443 C436 1.356 . S
N443 H446 0.984 . S
N443 H447 0.985 . S
H444 N439 0.984 . S
H445 N439 0.985 . S
H446 N443 0.984 . S
H447 N443 0.985 . S
H448 N442 0.984 . S
H449 N442 0.984 . S
H450 N438 0.984 . S
H451 N438 0.985 . S
C452 C453 1.363 . S
C452 C458 1.379 . S
C452 N460 1.356 . S
C453 C452 1.363 . S
C453 C459 1.363 . S
C454 C455 1.363 . S
C454 C459 1.379 . S
C454 N461 1.356 . S
C455 C454 1.363 . S
C455 C458 1.363 . S
N456 C458 1.356 . S
N456 H468 0.984 . S
N456 H469 0.985 . S
N457 C459 1.356 . S
N457 H462 0.984 . S
N457 H463 0.985 . S
C458 C452 1.379 . S
C458 C455 1.363 . S
C458 N456 1.356 . S
C459 C453 1.363 . S
C459 C454 1.379 . S
C459 N457 1.356 . S
N460 C452 1.356 . S
N460 H466 0.984 . S
N460 H467 0.984 . S
N461 C454 1.356 . S
N461 H464 0.984 . S
N461 H465 0.985 . S
H462 N457 0.984 . S
H463 N457 0.985 . S
H464 N461 0.984 . S
H465 N461 0.985 . S
H466 N460 0.984 . S
H467 N460 0.984 . S
H468 N456 0.984 . S
H469 N456 0.985 . S
C470 C471 1.363 . S
C470 C476 1.379 . S
C470 N478 1.356 . S
C471 C470 1.363 . S
C471 C477 1.363 . S
C472 C473 1.363 . S
C472 C477 1.379 . S
C472 N479 1.356 . S
C473 C472 1.363 . S
C473 C476 1.363 . S
N474 C476 1.356 . S
N474 H486 0.984 . S
N474 H487 0.985 . S
N475 C477 1.356 . S
N475 H480 0.984 . S
N475 H481 0.985 . S
C476 C470 1.379 . S
C476 C473 1.363 . S
C476 N474 1.356 . S
C477 C471 1.363 . S
C477 C472 1.379 . S
C477 N475 1.356 . S
N478 C470 1.356 . S
N478 H484 0.984 . S
N478 H485 0.984 . S
N479 C472 1.356 . S
N479 H482 0.984 . S
N479 H483 0.985 . S
H480 N475 0.984 . S
H481 N475 0.985 . S
H482 N479 0.984 . S
H483 N479 0.985 . S
H484 N478 0.984 . S
H485 N478 0.984 . S
H486 N474 0.984 . S
H487 N474 0.985 . S
C488 C489 1.363 . S
C488 C494 1.379 . S
C488 N496 1.356 . S
C489 C488 1.363 . S
C489 C495 1.363 . S
C490 C491 1.363 . S
C490 C495 1.379 . S
C490 N497 1.356 . S
C491 C490 1.363 . S
C491 C494 1.363 . S
N492 C494 1.356 . S
N492 H504 0.984 . S
N492 H505 0.985 . S
N493 C495 1.356 . S
N493 H498 0.984 . S
N493 H499 0.985 . S
C494 C488 1.379 . S
C494 C491 1.363 . S
C494 N492 1.356 . S
C495 C489 1.363 . S
C495 C490 1.379 . S
C495 N493 1.356 . S
N496 C488 1.356 . S
N496 H502 0.984 . S
N496 H503 0.984 . S
N497 C490 1.356 . S
N497 H500 0.984 . S
N497 H501 0.985 . S
H498 N493 0.984 . S
H499 N493 0.985 . S
H500 N497 0.984 . S
H501 N497 0.985 . S
H502 N496 0.984 . S
H503 N496 0.984 . S
H504 N492 0.984 . S
H505 N492 0.985 . S
C506 C507 1.363 . S
C506 C512 1.379 . S
C506 N514 1.356 . S
C507 C506 1.363 . S
C507 C513 1.363 . S
C508 C509 1.363 . S
C508 C513 1.379 . S
C508 N515 1.356 . S
C509 C508 1.363 . S
C509 C512 1.363 . S
N510 C512 1.356 . S
N510 H522 0.984 . S
N510 H523 0.985 . S
N511 C513 1.356 . S
N511 H516 0.984 . S
N511 H517 0.985 . S
C512 C506 1.379 . S
C512 C509 1.363 . S
C512 N510 1.356 . S
C513 C507 1.363 . S
C513 C508 1.379 . S
C513 N511 1.356 . S
N514 C506 1.356 . S
N514 H520 0.984 . S
N514 H521 0.984 . S
N515 C508 1.356 . S
N515 H518 0.984 . S
N515 H519 0.985 . S
H516 N511 0.984 . S
H517 N511 0.985 . S
H518 N515 0.984 . S
H519 N515 0.985 . S
H520 N514 0.984 . S
H521 N514 0.984 . S
H522 N510 0.984 . S
H523 N510 0.985 . S
C524 C525 1.363 . S
C524 C530 1.379 . S
C524 N532 1.356 . S
C525 C524 1.363 . S
C525 C531 1.363 . S
C526 C527 1.363 . S
C526 C531 1.379 . S
C526 N533 1.356 . S
C527 C526 1.363 . S
C527 C530 1.363 . S
N528 C530 1.356 . S
N528 H540 0.984 . S
N528 H541 0.985 . S
N529 C531 1.356 . S
N529 H534 0.984 . S
N529 H535 0.985 . S
C530 C524 1.379 . S
C530 C527 1.363 . S
C530 N528 1.356 . S
C531 C525 1.363 . S
C531 C526 1.379 . S
C531 N529 1.356 . S
N532 C524 1.356 . S
N532 H538 0.984 . S
N532 H539 0.984 . S
N533 C526 1.356 . S
N533 H536 0.984 . S
N533 H537 0.985 . S
H534 N529 0.984 . S
H535 N529 0.985 . S
H536 N533 0.984 . S
H537 N533 0.985 . S
H538 N532 0.984 . S
H539 N532 0.984 . S
H540 N528 0.984 . S
H541 N528 0.985 . S
C542 C543 1.363 . S
C542 C548 1.379 . S
C542 N550 1.356 . S
C543 C542 1.363 . S
C543 C549 1.363 . S
C544 C545 1.363 . S
C544 C549 1.379 . S
C544 N551 1.356 . S
C545 C544 1.363 . S
C545 C548 1.363 . S
N546 C548 1.356 . S
N546 H558 0.984 . S
N546 H559 0.985 . S
N547 C549 1.356 . S
N547 H552 0.984 . S
N547 H553 0.985 . S
C548 C542 1.379 . S
C548 C545 1.363 . S
C548 N546 1.356 . S
C549 C543 1.363 . S
C549 C544 1.379 . S
C549 N547 1.356 . S
N550 C542 1.356 . S
N550 H556 0.984 . S
N550 H557 0.984 . S
N551 C544 1.356 . S
N551 H554 0.984 . S
N551 H555 0.985 . S
H552 N547 0.984 . S
H553 N547 0.985 . S
H554 N551 0.984 . S
H555 N551 0.985 . S
H556 N550 0.984 . S
H557 N550 0.984 . S
H558 N546 0.984 . S
H559 N546 0.985 . S
C560 C561 1.363 . S
C560 C566 1.379 . S
C560 N568 1.356 . S
C561 C560 1.363 . S
C561 C567 1.363 . S
C562 C563 1.363 . S
C562 C567 1.379 . S
C562 N569 1.356 . S
C563 C562 1.363 . S
C563 C566 1.363 . S
N564 C566 1.356 . S
N564 H576 0.984 . S
N564 H577 0.985 . S
N565 C567 1.356 . S
N565 H570 0.984 . S
N565 H571 0.985 . S
C566 C560 1.379 . S
C566 C563 1.363 . S
C566 N564 1.356 . S
C567 C561 1.363 . S
C567 C562 1.379 . S
C567 N565 1.356 . S
N568 C560 1.356 . S
N568 H574 0.984 . S
N568 H575 0.984 . S
N569 C562 1.356 . S
N569 H572 0.984 . S
N569 H573 0.985 . S
H570 N565 0.984 . S
H571 N565 0.985 . S
H572 N569 0.984 . S
H573 N569 0.985 . S
H574 N568 0.984 . S
H575 N568 0.984 . S
H576 N564 0.984 . S
H577 N564 0.985 . S
C578 C579 1.363 . S
C578 C584 1.379 . S
C578 N586 1.356 . S
C579 C578 1.363 . S
C579 C585 1.363 . S
C580 C581 1.363 . S
C580 C585 1.379 . S
C580 N587 1.356 . S
C581 C580 1.363 . S
C581 C584 1.363 . S
N582 C584 1.356 . S
N582 H594 0.984 . S
N582 H595 0.985 . S
N583 C585 1.356 . S
N583 H588 0.984 . S
N583 H589 0.985 . S
C584 C578 1.379 . S
C584 C581 1.363 . S
C584 N582 1.356 . S
C585 C579 1.363 . S
C585 C580 1.379 . S
C585 N583 1.356 . S
N586 C578 1.356 . S
N586 H592 0.984 . S
N586 H593 0.984 . S
N587 C580 1.356 . S
N587 H590 0.984 . S
N587 H591 0.985 . S
H588 N583 0.984 . S
H589 N583 0.985 . S
H590 N587 0.984 . S
H591 N587 0.985 . S
H592 N586 0.984 . S
H593 N586 0.984 . S
H594 N582 0.984 . S
H595 N582 0.985 . S
C596 C597 1.363 . S
C596 C602 1.379 . S
C596 N604 1.356 . S
C597 C596 1.363 . S
C597 C603 1.363 . S
C598 C599 1.363 . S
C598 C603 1.379 . S
C598 N605 1.356 . S
C599 C598 1.363 . S
C599 C602 1.363 . S
N600 C602 1.356 . S
N600 H612 0.984 . S
N600 H613 0.985 . S
N601 C603 1.356 . S
N601 H606 0.984 . S
N601 H607 0.985 . S
C602 C596 1.379 . S
C602 C599 1.363 . S
C602 N600 1.356 . S
C603 C597 1.363 . S
C603 C598 1.379 . S
C603 N601 1.356 . S
N604 C596 1.356 . S
N604 H610 0.984 . S
N604 H611 0.984 . S
N605 C598 1.356 . S
N605 H608 0.984 . S
N605 H609 0.985 . S
H606 N601 0.984 . S
H607 N601 0.985 . S
H608 N605 0.984 . S
H609 N605 0.985 . S
H610 N604 0.984 . S
H611 N604 0.984 . S
H612 N600 0.984 . S
H613 N600 0.985 . S
C614 C615 1.363 . S
C614 C620 1.379 . S
C614 N622 1.356 . S
C615 C614 1.363 . S
C615 C621 1.363 . S
C616 C617 1.363 . S
C616 C621 1.379 . S
C616 N623 1.356 . S
C617 C616 1.363 . S
C617 C620 1.363 . S
N618 C620 1.356 . S
N618 H630 0.984 . S
N618 H631 0.985 . S
N619 C621 1.356 . S
N619 H624 0.984 . S
N619 H625 0.985 . S
C620 C614 1.379 . S
C620 C617 1.363 . S
C620 N618 1.356 . S
C621 C615 1.363 . S
C621 C616 1.379 . S
C621 N619 1.356 . S
N622 C614 1.356 . S
N622 H628 0.984 . S
N622 H629 0.984 . S
N623 C616 1.356 . S
N623 H626 0.984 . S
N623 H627 0.985 . S
H624 N619 0.984 . S
H625 N619 0.985 . S
H626 N623 0.984 . S
H627 N623 0.985 . S
H628 N622 0.984 . S
H629 N622 0.984 . S
H630 N618 0.984 . S
H631 N618 0.985 . S
C632 C633 1.363 . S
C632 C638 1.379 . S
C632 N640 1.356 . S
C633 C632 1.363 . S
C633 C639 1.363 . S
C634 C635 1.363 . S
C634 C639 1.379 . S
C634 N641 1.356 . S
C635 C634 1.363 . S
C635 C638 1.363 . S
N636 C638 1.356 . S
N636 H648 0.984 . S
N636 H649 0.985 . S
N637 C639 1.356 . S
N637 H642 0.984 . S
N637 H643 0.985 . S
C638 C632 1.379 . S
C638 C635 1.363 . S
C638 N636 1.356 . S
C639 C633 1.363 . S
C639 C634 1.379 . S
C639 N637 1.356 . S
N640 C632 1.356 . S
N640 H646 0.984 . S
N640 H647 0.984 . S
N641 C634 1.356 . S
N641 H644 0.984 . S
N641 H645 0.985 . S
H642 N637 0.984 . S
H643 N637 0.985 . S
H644 N641 0.984 . S
H645 N641 0.985 . S
H646 N640 0.984 . S
H647 N640 0.984 . S
H648 N636 0.984 . S
H649 N636 0.985 . S
C650 C651 1.363 . S
C650 C656 1.379 . S
C650 N658 1.356 . S
C651 C650 1.363 . S
C651 C657 1.363 . S
C652 C653 1.363 . S
C652 C657 1.379 . S
C652 N659 1.356 . S
C653 C652 1.363 . S
C653 C656 1.363 . S
N654 C656 1.356 . S
N654 H666 0.984 . S
N654 H667 0.985 . S
N655 C657 1.356 . S
N655 H660 0.984 . S
N655 H661 0.985 . S
C656 C650 1.379 . S
C656 C653 1.363 . S
C656 N654 1.356 . S
C657 C651 1.363 . S
C657 C652 1.379 . S
C657 N655 1.356 . S
N658 C650 1.356 . S
N658 H664 0.984 . S
N658 H665 0.984 . S
N659 C652 1.356 . S
N659 H662 0.984 . S
N659 H663 0.985 . S
H660 N655 0.984 . S
H661 N655 0.985 . S
H662 N659 0.984 . S
H663 N659 0.985 . S
H664 N658 0.984 . S
H665 N658 0.984 . S
H666 N654 0.984 . S
H667 N654 0.985 . S
C668 C669 1.363 . S
C668 C674 1.379 . S
C668 N676 1.356 . S
C669 C668 1.363 . S
C669 C675 1.363 . S
C670 C671 1.363 . S
C670 C675 1.379 . S
C670 N677 1.356 . S
C671 C670 1.363 . S
C671 C674 1.363 . S
N672 C674 1.356 . S
N672 H684 0.984 . S
N672 H685 0.985 . S
N673 C675 1.356 . S
N673 H678 0.984 . S
N673 H679 0.985 . S
C674 C668 1.379 . S
C674 C671 1.363 . S
C674 N672 1.356 . S
C675 C669 1.363 . S
C675 C670 1.379 . S
C675 N673 1.356 . S
N676 C668 1.356 . S
N676 H682 0.984 . S
N676 H683 0.984 . S
N677 C670 1.356 . S
N677 H680 0.984 . S
N677 H681 0.985 . S
H678 N673 0.984 . S
H679 N673 0.985 . S
H680 N677 0.984 . S
H681 N677 0.985 . S
H682 N676 0.984 . S
H683 N676 0.984 . S
H684 N672 0.984 . S
H685 N672 0.985 . S
C686 C687 1.363 . S
C686 C692 1.379 . S
C686 N694 1.356 . S
C687 C686 1.363 . S
C687 C693 1.363 . S
C688 C689 1.363 . S
C688 C693 1.379 . S
C688 N695 1.356 . S
C689 C688 1.363 . S
C689 C692 1.363 . S
N690 C692 1.356 . S
N690 H702 0.984 . S
N690 H703 0.985 . S
N691 C693 1.356 . S
N691 H696 0.984 . S
N691 H697 0.985 . S
C692 C686 1.379 . S
C692 C689 1.363 . S
C692 N690 1.356 . S
C693 C687 1.363 . S
C693 C688 1.379 . S
C693 N691 1.356 . S
N694 C686 1.356 . S
N694 H700 0.984 . S
N694 H701 0.984 . S
N695 C688 1.356 . S
N695 H698 0.984 . S
N695 H699 0.985 . S
H696 N691 0.984 . S
H697 N691 0.985 . S
H698 N695 0.984 . S
H699 N695 0.985 . S
H700 N694 0.984 . S
H701 N694 0.984 . S
H702 N690 0.984 . S
H703 N690 0.985 . S
C704 C705 1.363 1_556 S
C704 C710 1.379 1_545 S
C704 N712 1.356 . S
C705 C704 1.363 1_554 S
C705 C711 1.363 . S
C706 C707 1.363 1_554 S
C706 C711 1.379 1_565 S
C706 N713 1.356 . S
C707 C706 1.363 1_556 S
C707 C710 1.363 . S
N708 C710 1.356 . S
N708 H720 0.984 . S
N708 H721 0.985 . S
N709 C711 1.356 . S
N709 H714 0.984 . S
N709 H715 0.985 . S
C710 C704 1.379 1_565 S
C710 C707 1.363 . S
C710 N708 1.356 . S
C711 C705 1.363 . S
C711 C706 1.379 1_545 S
C711 N709 1.356 . S
N712 C704 1.356 . S
N712 H718 0.984 . S
N712 H719 0.984 . S
N713 C706 1.356 . S
N713 H716 0.984 . S
N713 H717 0.985 . S
H714 N709 0.984 . S
H715 N709 0.985 . S
H716 N713 0.984 . S
H717 N713 0.985 . S
H718 N712 0.984 . S
H719 N712 0.984 . S
H720 N708 0.984 . S
H721 N708 0.985 . S
C722 C723 1.363 . S
C722 C728 1.379 . S
C722 N730 1.356 . S
C723 C722 1.363 . S
C723 C729 1.363 1_556 S
C724 C725 1.363 . S
C724 C729 1.379 . S
C724 N731 1.356 . S
C725 C724 1.363 . S
C725 C728 1.363 1_554 S
N726 C728 1.356 . S
N726 H738 0.984 . S
N726 H739 0.985 . S
N727 C729 1.356 . S
N727 H732 0.984 . S
N727 H733 0.985 . S
C728 C722 1.379 . S
C728 C725 1.363 1_556 S
C728 N726 1.356 . S
C729 C723 1.363 1_554 S
C729 C724 1.379 . S
C729 N727 1.356 . S
N730 C722 1.356 . S
N730 H736 0.984 . S
N730 H737 0.984 . S
N731 C724 1.356 . S
N731 H734 0.984 . S
N731 H735 0.985 . S
H732 N727 0.984 . S
H733 N727 0.985 . S
H734 N731 0.984 . S
H735 N731 0.985 . S
H736 N730 0.984 . S
H737 N730 0.984 . S
H738 N726 0.984 . S
H739 N726 0.985 . S
C740 C741 1.363 . S
C740 C746 1.379 . S
C740 N748 1.356 . S
C741 C740 1.363 . S
C741 C747 1.363 . S
C742 C743 1.363 . S
C742 C747 1.379 . S
C742 N749 1.356 . S
C743 C742 1.363 . S
C743 C746 1.363 . S
N744 C746 1.356 . S
N744 H756 0.984 . S
N744 H757 0.985 . S
N745 C747 1.356 . S
N745 H750 0.984 . S
N745 H751 0.985 . S
C746 C740 1.379 . S
C746 C743 1.363 . S
C746 N744 1.356 . S
C747 C741 1.363 . S
C747 C742 1.379 . S
C747 N745 1.356 . S
N748 C740 1.356 . S
N748 H754 0.984 . S
N748 H755 0.984 . S
N749 C742 1.356 . S
N749 H752 0.984 . S
N749 H753 0.985 . S
H750 N745 0.984 . S
H751 N745 0.985 . S
H752 N749 0.984 . S
H753 N749 0.985 . S
H754 N748 0.984 . S
H755 N748 0.984 . S
H756 N744 0.984 . S
H757 N744 0.985 . S
C758 C759 1.406 . S
C758 C764 1.336 1_565 S
C758 N766 1.373 . S
C759 C758 1.406 . S
C759 C765 1.363 . S
C760 C761 1.376 . S
C760 C765 1.366 1_545 S
C760 N767 1.361 . S
C761 C760 1.376 . S
C761 C764 1.363 . S
N762 C764 1.356 . S
N762 H774 0.984 . S
N762 H775 0.985 . S
N763 C765 1.356 . S
N763 H768 0.984 . S
N763 H769 0.985 . S
C764 C758 1.336 1_545 S
C764 C761 1.363 . S
C764 N762 1.356 . S
C765 C759 1.363 . S
C765 C760 1.366 1_565 S
C765 N763 1.356 . S
N766 C758 1.373 . S
N766 H772 0.984 1_565 S
N766 H773 0.984 . S
N767 C760 1.361 . S
N767 H770 0.984 . S
N767 H771 0.985 1_545 S
H768 N763 0.984 . S
H769 N763 0.985 . S
H770 N767 0.984 . S
H771 N767 0.985 1_565 S
H772 N766 0.984 1_545 S
H773 N766 0.984 . S
H774 N762 0.984 . S
H775 N762 0.985 . S
C776 C777 1.363 . S
C776 C782 1.379 . S
C776 N784 1.356 . S
C777 C776 1.363 . S
C777 C783 1.363 1_554 S
C778 C779 1.363 . S
C778 C783 1.379 . S
C778 N785 1.356 . S
C779 C778 1.363 . S
C779 C782 1.363 1_556 S
N780 C782 1.356 . S
N780 H792 0.984 . S
N780 H793 0.985 . S
N781 C783 1.356 . S
N781 H786 0.984 . S
N781 H787 0.985 . S
C782 C776 1.379 . S
C782 C779 1.363 1_554 S
C782 N780 1.356 . S
C783 C777 1.363 1_556 S
C783 C778 1.379 . S
C783 N781 1.356 . S
N784 C776 1.356 . S
N784 H790 0.984 . S
N784 H791 0.984 . S
N785 C778 1.356 . S
N785 H788 0.984 . S
N785 H789 0.985 . S
H786 N781 0.984 . S
H787 N781 0.985 . S
H788 N785 0.984 . S
H789 N785 0.985 . S
H790 N784 0.984 . S
H791 N784 0.984 . S
H792 N780 0.984 . S
H793 N780 0.985 . S
C794 C795 1.363 . S
C794 C800 1.379 . S
C794 N802 1.356 . S
C795 C794 1.363 . S
C795 C801 1.363 . S
C796 C797 1.363 . S
C796 C801 1.379 . S
C796 N803 1.356 . S
C797 C796 1.363 . S
C797 C800 1.363 . S
N798 C800 1.356 . S
N798 H810 0.984 . S
N798 H811 0.985 . S
N799 C801 1.356 . S
N799 H804 0.984 . S
N799 H805 0.985 . S
C800 C794 1.379 . S
C800 C797 1.363 . S
C800 N798 1.356 . S
C801 C795 1.363 . S
C801 C796 1.379 . S
C801 N799 1.356 . S
N802 C794 1.356 . S
N802 H808 0.984 . S
N802 H809 0.984 . S
N803 C796 1.356 . S
N803 H806 0.984 . S
N803 H807 0.985 . S
H804 N799 0.984 . S
H805 N799 0.985 . S
H806 N803 0.984 . S
H807 N803 0.985 . S
H808 N802 0.984 . S
H809 N802 0.984 . S
H810 N798 0.984 . S
H811 N798 0.985 . S
C812 C813 1.363 . S
C812 C818 1.343 1_565 S
C812 N820 1.356 . S
C813 C812 1.363 . S
C813 C819 1.369 . S
C814 C815 1.363 . S
C814 C819 1.373 1_545 S
C814 N821 1.356 . S
C815 C814 1.363 . S
C815 C818 1.399 . S
N816 C818 1.370 . S
N816 H828 0.984 1_545 S
N816 H829 0.985 . S
N817 C819 1.358 . S
N817 H822 0.984 . S
N817 H823 0.985 1_565 S
C818 C812 1.343 1_545 S
C818 C815 1.399 . S
C818 N816 1.370 . S
C819 C813 1.369 . S
C819 C814 1.373 1_565 S
C819 N817 1.358 . S
N820 C812 1.356 . S
N820 H826 0.984 . S
N820 H827 0.984 . S
N821 C814 1.356 . S
N821 H824 0.984 . S
N821 H825 0.985 . S
H822 N817 0.984 . S
H823 N817 0.985 1_545 S
H824 N821 0.984 . S
H825 N821 0.985 . S
H826 N820 0.984 . S
H827 N820 0.984 . S
H828 N816 0.984 1_565 S
H829 N816 0.985 . S
C830 C831 1.363 . S
C830 C836 1.379 . S
C830 N838 1.356 . S
C831 C830 1.363 . S
C831 C837 1.363 . S
C832 C833 1.363 . S
C832 C837 1.379 . S
C832 N839 1.356 . S
C833 C832 1.363 . S
C833 C836 1.363 . S
N834 C836 1.356 . S
N834 H846 0.984 . S
N834 H847 0.985 . S
N835 C837 1.356 . S
N835 H840 0.984 . S
N835 H841 0.985 . S
C836 C830 1.379 . S
C836 C833 1.363 . S
C836 N834 1.356 . S
C837 C831 1.363 . S
C837 C832 1.379 . S
C837 N835 1.356 . S
N838 C830 1.356 . S
N838 H844 0.984 . S
N838 H845 0.984 . S
N839 C832 1.356 . S
N839 H842 0.984 . S
N839 H843 0.985 . S
H840 N835 0.984 . S
H841 N835 0.985 . S
H842 N839 0.984 . S
H843 N839 0.985 . S
H844 N838 0.984 . S
H845 N838 0.984 . S
H846 N834 0.984 . S
H847 N834 0.985 . S
C848 C849 1.363 . S
C848 C854 1.379 . S
C848 N856 1.356 . S
C849 C848 1.363 . S
C849 C855 1.363 . S
C850 C851 1.363 . S
C850 C855 1.379 . S
C850 N857 1.356 . S
C851 C850 1.363 . S
C851 C854 1.363 . S
N852 C854 1.356 . S
N852 H864 0.984 . S
N852 H865 0.985 . S
N853 C855 1.356 . S
N853 H858 0.984 . S
N853 H859 0.985 . S
C854 C848 1.379 . S
C854 C851 1.363 . S
C854 N852 1.356 . S
C855 C849 1.363 . S
C855 C850 1.379 . S
C855 N853 1.356 . S
N856 C848 1.356 . S
N856 H862 0.984 . S
N856 H863 0.984 . S
N857 C850 1.356 . S
N857 H860 0.984 . S
N857 H861 0.985 . S
H858 N853 0.984 . S
H859 N853 0.985 . S
H860 N857 0.984 . S
H861 N857 0.985 . S
H862 N856 0.984 . S
H863 N856 0.984 . S
H864 N852 0.984 . S
H865 N852 0.985 . S
C866 C867 1.363 . S
C866 C872 1.379 . S
C866 N874 1.356 . S
C867 C866 1.363 . S
C867 C873 1.363 . S
C868 C869 1.363 . S
C868 C873 1.379 . S
C868 N875 1.356 . S
C869 C868 1.363 . S
C869 C872 1.363 . S
N870 C872 1.356 . S
N870 H882 0.984 . S
N870 H883 0.985 . S
N871 C873 1.356 . S
N871 H876 0.984 . S
N871 H877 0.985 . S
C872 C866 1.379 . S
C872 C869 1.363 . S
C872 N870 1.356 . S
C873 C867 1.363 . S
C873 C868 1.379 . S
C873 N871 1.356 . S
N874 C866 1.356 . S
N874 H880 0.984 . S
N874 H881 0.984 . S
N875 C868 1.356 . S
N875 H878 0.984 . S
N875 H879 0.985 . S
H876 N871 0.984 . S
H877 N871 0.985 . S
H878 N875 0.984 . S
H879 N875 0.985 . S
H880 N874 0.984 . S
H881 N874 0.984 . S
H882 N870 0.984 . S
H883 N870 0.985 . S
C884 C885 1.363 . S
C884 C890 1.379 . S
C884 N892 1.356 . S
C885 C884 1.363 . S
C885 C891 1.363 . S
C886 C887 1.363 . S
C886 C891 1.379 . S
C886 N893 1.356 . S
C887 C886 1.363 . S
C887 C890 1.363 . S
N888 C890 1.356 . S
N888 H900 0.984 . S
N888 H901 0.985 . S
N889 C891 1.356 . S
N889 H894 0.984 . S
N889 H895 0.985 . S
C890 C884 1.379 . S
C890 C887 1.363 . S
C890 N888 1.356 . S
C891 C885 1.363 . S
C891 C886 1.379 . S
C891 N889 1.356 . S
N892 C884 1.356 . S
N892 H898 0.984 . S
N892 H899 0.984 . S
N893 C886 1.356 . S
N893 H896 0.984 . S
N893 H897 0.985 . S
H894 N889 0.984 . S
H895 N889 0.985 . S
H896 N893 0.984 . S
H897 N893 0.985 . S
H898 N892 0.984 . S
H899 N892 0.984 . S
H900 N888 0.984 . S
H901 N888 0.985 . S
C902 C903 1.363 . S
C902 C908 1.379 . S
C902 N910 1.356 . S
C903 C902 1.363 . S
C903 C909 1.363 . S
C904 C905 1.363 . S
C904 C909 1.379 . S
C904 N911 1.356 . S
C905 C904 1.363 . S
C905 C908 1.363 . S
N906 C908 1.356 . S
N906 H918 0.984 . S
N906 H919 0.985 . S
N907 C909 1.356 . S
N907 H912 0.984 . S
N907 H913 0.985 . S
C908 C902 1.379 . S
C908 C905 1.363 . S
C908 N906 1.356 . S
C909 C903 1.363 . S
C909 C904 1.379 . S
C909 N907 1.356 . S
N910 C902 1.356 . S
N910 H916 0.984 . S
N910 H917 0.984 . S
N911 C904 1.356 . S
N911 H914 0.984 . S
N911 H915 0.985 . S
H912 N907 0.984 . S
H913 N907 0.985 . S
H914 N911 0.984 . S
H915 N911 0.985 . S
H916 N910 0.984 . S
H917 N910 0.984 . S
H918 N906 0.984 . S
H919 N906 0.985 . S
C920 C921 1.363 . S
C920 C926 1.379 1_465 S
C920 N928 1.356 . S
C921 C920 1.363 . S
C921 C927 1.363 . S
C922 C923 1.363 . S
C922 C927 1.379 1_645 S
C922 N929 1.356 . S
C923 C922 1.363 . S
C923 C926 1.363 . S
N924 C926 1.356 . S
N924 H936 0.985 . S
N924 H937 0.985 . S
N925 C927 1.356 . S
N925 H930 0.984 . S
N925 H931 0.985 . S
C926 C920 1.379 1_645 S
C926 C923 1.363 . S
C926 N924 1.356 . S
C927 C921 1.363 . S
C927 C922 1.379 1_465 S
C927 N925 1.356 . S
N928 C920 1.356 . S
N928 H934 0.984 . S
N928 H935 0.984 . S
N929 C922 1.356 . S
N929 H932 0.984 . S
N929 H933 0.985 . S
H930 N925 0.984 . S
H931 N925 0.985 . S
H932 N929 0.984 . S
H933 N929 0.985 . S
H934 N928 0.984 . S
H935 N928 0.984 . S
H936 N924 0.985 . S
H937 N924 0.985 . S
C938 C939 1.363 . S
C938 C944 1.379 1_655 S
C938 N946 1.356 . S
C939 C938 1.363 . S
C939 C945 1.363 . S
C940 C941 1.363 . S
C940 C945 1.379 1_455 S
C940 N947 1.356 . S
C941 C940 1.363 . S
C941 C944 1.363 . S
N942 C944 1.356 . S
N942 H954 0.984 . S
N942 H955 0.985 . S
N943 C945 1.356 . S
N943 H948 0.984 . S
N943 H949 0.985 . S
C944 C938 1.379 1_455 S
C944 C941 1.363 . S
C944 N942 1.356 . S
C945 C939 1.363 . S
C945 C940 1.379 1_655 S
C945 N943 1.356 . S
N946 C938 1.356 . S
N946 H952 0.984 . S
N946 H953 0.984 . S
N947 C940 1.356 . S
N947 H950 0.984 . S
N947 H951 0.985 . S
H948 N943 0.984 . S
H949 N943 0.985 . S
H950 N947 0.984 . S
H951 N947 0.985 . S
H952 N946 0.984 . S
H953 N946 0.984 . S
H954 N942 0.984 . S
H955 N942 0.985 . S
C956 C957 1.363 . S
C956 C962 1.379 . S
C956 N964 1.356 . S
C957 C956 1.363 . S
C957 C963 1.363 1_455 S
C958 C959 1.363 . S
C958 C963 1.379 . S
C958 N965 1.356 . S
C959 C958 1.363 . S
C959 C962 1.363 1_655 S
N960 C962 1.356 1_655 S
N960 H972 0.984 1_655 S
N960 H973 0.985 . S
N961 C963 1.356 . S
N961 H966 0.984 1_655 S
N961 H967 0.985 . S
C962 C956 1.379 . S
C962 C959 1.363 1_455 S
C962 N960 1.356 1_455 S
C963 C957 1.363 1_655 S
C963 C958 1.379 . S
C963 N961 1.356 . S
N964 C956 1.356 . S
N964 H970 0.984 . S
N964 H971 0.984 . S
N965 C958 1.356 . S
N965 H968 0.984 . S
N965 H969 0.985 . S
H966 N961 0.984 1_455 S
H967 N961 0.985 . S
H968 N965 0.984 . S
H969 N965 0.985 . S
H970 N964 0.984 . S
H971 N964 0.984 . S
H972 N960 0.984 1_455 S
H973 N960 0.985 . S
C974 C975 1.363 . S
C974 C980 1.379 . S
C974 N982 1.356 . S
C975 C974 1.363 . S
C975 C981 1.363 1_456 S
C976 C977 1.363 . S
C976 C981 1.379 . S
C976 N983 1.356 . S
C977 C976 1.363 . S
C977 C980 1.363 1_654 S
N978 C980 1.356 . S
N978 H990 0.984 . S
N978 H991 0.985 1_455 S
N979 C981 1.356 . S
N979 H984 0.984 1_655 S
N979 H985 0.985 . S
C980 C974 1.379 . S
C980 C977 1.363 1_456 S
C980 N978 1.356 . S
C981 C975 1.363 1_654 S
C981 C976 1.379 . S
C981 N979 1.356 . S
N982 C974 1.356 . S
N982 H988 0.984 . S
N982 H989 0.984 . S
N983 C976 1.356 . S
N983 H986 0.984 . S
N983 H987 0.985 . S
H984 N979 0.984 1_455 S
H985 N979 0.985 . S
H986 N983 0.984 . S
H987 N983 0.985 . S
H988 N982 0.984 . S
H989 N982 0.984 . S
H990 N978 0.984 . S
H991 N978 0.985 1_655 S
C992 C993 1.363 . S
C992 C998 1.379 . S
C992 N1000 1.356 . S
C993 C992 1.363 . S
C993 C999 1.363 . S
C994 C995 1.363 . S
C994 C999 1.379 . S
C994 N1001 1.356 . S
C995 C994 1.363 . S
C995 C998 1.363 . S
N996 C998 1.356 . S
N996 H1008 0.984 . S
N996 H1009 0.985 . S
N997 C999 1.356 . S
N997 H1002 0.984 . S
N997 H1003 0.985 . S
C998 C992 1.379 . S
C998 C995 1.363 . S
C998 N996 1.356 . S
C999 C993 1.363 . S
C999 C994 1.379 . S
C999 N997 1.356 . S
N1000 C992 1.356 . S
N1000 H1006 0.984 . S
N1000 H1007 0.984 . S
N1001 C994 1.356 . S
N1001 H1004 0.984 . S
N1001 H1005 0.985 . S
H1002 N997 0.984 . S
H1003 N997 0.985 . S
H1004 N1001 0.984 . S
H1005 N1001 0.985 . S
H1006 N1000 0.984 . S
H1007 N1000 0.984 . S
H1008 N996 0.984 . S
H1009 N996 0.985 . S
C1010 C1011 1.363 . S
C1010 C1016 1.379 . S
C1010 N1018 1.356 1_655 S
C1011 C1010 1.363 . S
C1011 C1017 1.363 . S
C1012 C1013 1.363 . S
C1012 C1017 1.379 . S
C1012 N1019 1.356 . S
C1013 C1012 1.363 . S
C1013 C1016 1.363 . S
N1014 C1016 1.356 . S
N1014 H1026 0.984 . S
N1014 H1027 0.985 . S
N1015 C1017 1.356 . S
N1015 H1020 0.984 . S
N1015 H1021 0.985 . S
C1016 C1010 1.379 . S
C1016 C1013 1.363 . S
C1016 N1014 1.356 . S
C1017 C1011 1.363 . S
C1017 C1012 1.379 . S
C1017 N1015 1.356 . S
N1018 C1010 1.356 1_455 S
N1018 H1024 0.984 . S
N1018 H1025 0.984 . S
N1019 C1012 1.356 . S
N1019 H1022 0.984 . S
N1019 H1023 0.985 . S
H1020 N1015 0.984 . S
H1021 N1015 0.985 . S
H1022 N1019 0.984 . S
H1023 N1019 0.985 . S
H1024 N1018 0.984 . S
H1025 N1018 0.984 . S
H1026 N1014 0.984 . S
H1027 N1014 0.985 . S
C1028 C1029 1.363 . S
C1028 C1034 1.379 . S
C1028 N1036 1.356 . S
C1029 C1028 1.363 . S
C1029 C1035 1.363 . S
C1030 C1031 1.363 . S
C1030 C1035 1.379 . S
C1030 N1037 1.356 . S
C1031 C1030 1.363 . S
C1031 C1034 1.363 . S
N1032 C1034 1.356 . S
N1032 H1044 0.984 . S
N1032 H1045 0.985 . S
N1033 C1035 1.356 . S
N1033 H1038 0.984 . S
N1033 H1039 0.985 . S
C1034 C1028 1.379 . S
C1034 C1031 1.363 . S
C1034 N1032 1.356 . S
C1035 C1029 1.363 . S
C1035 C1030 1.379 . S
C1035 N1033 1.356 . S
N1036 C1028 1.356 . S
N1036 H1042 0.984 . S
N1036 H1043 0.984 . S
N1037 C1030 1.356 . S
N1037 H1040 0.984 . S
N1037 H1041 0.985 . S
H1038 N1033 0.984 . S
H1039 N1033 0.985 . S
H1040 N1037 0.984 . S
H1041 N1037 0.985 . S
H1042 N1036 0.984 . S
H1043 N1036 0.984 . S
H1044 N1032 0.984 . S
H1045 N1032 0.985 . S
C1046 C1047 1.363 . S
C1046 C1052 1.379 . S
C1046 N1054 1.356 . S
C1047 C1046 1.363 . S
C1047 C1053 1.363 . S
C1048 C1049 1.363 . S
C1048 C1053 1.379 . S
C1048 N1055 1.356 1_655 S
C1049 C1048 1.363 . S
C1049 C1052 1.363 . S
N1050 C1052 1.356 . S
N1050 H1062 0.984 . S
N1050 H1063 0.985 . S
N1051 C1053 1.356 . S
N1051 H1056 0.984 . S
N1051 H1057 0.985 . S
C1052 C1046 1.379 . S
C1052 C1049 1.363 . S
C1052 N1050 1.356 . S
C1053 C1047 1.363 . S
C1053 C1048 1.379 . S
C1053 N1051 1.356 . S
N1054 C1046 1.356 . S
N1054 H1060 0.984 . S
N1054 H1061 0.984 . S
N1055 C1048 1.356 1_455 S
N1055 H1058 0.984 . S
N1055 H1059 0.985 . S
H1056 N1051 0.984 . S
H1057 N1051 0.985 . S
H1058 N1055 0.984 . S
H1059 N1055 0.985 . S
H1060 N1054 0.984 . S
H1061 N1054 0.984 . S
H1062 N1050 0.984 . S
H1063 N1050 0.985 . S
C1064 C1065 1.363 . S
C1064 C1070 1.379 . S
C1064 N1072 1.356 . S
C1065 C1064 1.363 . S
C1065 C1071 1.363 . S
C1066 C1067 1.363 . S
C1066 C1071 1.379 . S
C1066 N1073 1.356 . S
C1067 C1066 1.363 . S
C1067 C1070 1.363 . S
N1068 C1070 1.356 . S
N1068 H1080 0.984 . S
N1068 H1081 0.985 . S
N1069 C1071 1.356 . S
N1069 H1074 0.984 . S
N1069 H1075 0.985 . S
C1070 C1064 1.379 . S
C1070 C1067 1.363 . S
C1070 N1068 1.356 . S
C1071 C1065 1.363 . S
C1071 C1066 1.379 . S
C1071 N1069 1.356 . S
N1072 C1064 1.356 . S
N1072 H1078 0.984 . S
N1072 H1079 0.984 . S
N1073 C1066 1.356 . S
N1073 H1076 0.984 . S
N1073 H1077 0.985 . S
H1074 N1069 0.984 . S
H1075 N1069 0.985 . S
H1076 N1073 0.984 . S
H1077 N1073 0.985 . S
H1078 N1072 0.984 . S
H1079 N1072 0.984 . S
H1080 N1068 0.984 . S
H1081 N1068 0.985 . S
C1082 C1083 1.363 . S
C1082 C1088 1.379 . S
C1082 N1090 1.356 . S
C1083 C1082 1.363 . S
C1083 C1089 1.363 . S
C1084 C1085 1.363 . S
C1084 C1089 1.379 . S
C1084 N1091 1.356 . S
C1085 C1084 1.363 . S
C1085 C1088 1.363 . S
N1086 C1088 1.356 . S
N1086 H1098 0.984 . S
N1086 H1099 0.985 . S
N1087 C1089 1.356 1_655 S
N1087 H1092 0.984 . S
N1087 H1093 0.985 . S
C1088 C1082 1.379 . S
C1088 C1085 1.363 . S
C1088 N1086 1.356 . S
C1089 C1083 1.363 . S
C1089 C1084 1.379 . S
C1089 N1087 1.356 1_455 S
N1090 C1082 1.356 . S
N1090 H1096 0.984 . S
N1090 H1097 0.984 . S
N1091 C1084 1.356 . S
N1091 H1094 0.984 . S
N1091 H1095 0.985 . S
H1092 N1087 0.984 . S
H1093 N1087 0.985 . S
H1094 N1091 0.984 . S
H1095 N1091 0.985 . S
H1096 N1090 0.984 . S
H1097 N1090 0.984 . S
H1098 N1086 0.984 . S
H1099 N1086 0.985 . S
C1100 C1101 1.363 . S
C1100 C1106 1.379 . S
C1100 N1108 1.356 . S
C1101 C1100 1.363 . S
C1101 C1107 1.363 . S
C1102 C1103 1.363 . S
C1102 C1107 1.379 . S
C1102 N1109 1.356 . S
C1103 C1102 1.363 . S
C1103 C1106 1.363 . S
N1104 C1106 1.356 . S
N1104 H1116 0.984 . S
N1104 H1117 0.985 . S
N1105 C1107 1.356 . S
N1105 H1110 0.984 . S
N1105 H1111 0.985 . S
C1106 C1100 1.379 . S
C1106 C1103 1.363 . S
C1106 N1104 1.356 . S
C1107 C1101 1.363 . S
C1107 C1102 1.379 . S
C1107 N1105 1.356 . S
N1108 C1100 1.356 . S
N1108 H1114 0.984 . S
N1108 H1115 0.984 . S
N1109 C1102 1.356 . S
N1109 H1112 0.984 . S
N1109 H1113 0.985 . S
H1110 N1105 0.984 . S
H1111 N1105 0.985 . S
H1112 N1109 0.984 . S
H1113 N1109 0.985 . S
H1114 N1108 0.984 . S
H1115 N1108 0.984 . S
H1116 N1104 0.984 . S
H1117 N1104 0.985 . S
C1118 C1119 1.363 . S
C1118 C1124 1.379 . S
C1118 N1126 1.356 . S
C1119 C1118 1.363 . S
C1119 C1125 1.363 . S
C1120 C1121 1.363 . S
C1120 C1125 1.379 . S
C1120 N1127 1.356 1_455 S
C1121 C1120 1.363 . S
C1121 C1124 1.363 . S
N1122 C1124 1.356 . S
N1122 H1134 0.984 . S
N1122 H1135 0.985 . S
N1123 C1125 1.356 . S
N1123 H1128 0.984 . S
N1123 H1129 0.985 . S
C1124 C1118 1.379 . S
C1124 C1121 1.363 . S
C1124 N1122 1.356 . S
C1125 C1119 1.363 . S
C1125 C1120 1.379 . S
C1125 N1123 1.356 . S
N1126 C1118 1.356 . S
N1126 H1132 0.984 . S
N1126 H1133 0.984 . S
N1127 C1120 1.356 1_655 S
N1127 H1130 0.984 . S
N1127 H1131 0.985 . S
H1128 N1123 0.984 . S
H1129 N1123 0.985 . S
H1130 N1127 0.984 . S
H1131 N1127 0.985 . S
H1132 N1126 0.984 . S
H1133 N1126 0.984 . S
H1134 N1122 0.984 . S
H1135 N1122 0.985 . S
C1136 C1137 1.363 . S
C1136 C1142 1.379 . S
C1136 N1144 1.356 . S
C1137 C1136 1.363 . S
C1137 C1143 1.363 . S
C1138 C1139 1.363 . S
C1138 C1143 1.379 . S
C1138 N1145 1.356 . S
C1139 C1138 1.363 . S
C1139 C1142 1.363 . S
N1140 C1142 1.356 . S
N1140 H1152 0.984 . S
N1140 H1153 0.985 . S
N1141 C1143 1.356 . S
N1141 H1146 0.984 . S
N1141 H1147 0.985 . S
C1142 C1136 1.379 . S
C1142 C1139 1.363 . S
C1142 N1140 1.356 . S
C1143 C1137 1.363 . S
C1143 C1138 1.379 . S
C1143 N1141 1.356 . S
N1144 C1136 1.356 . S
N1144 H1150 0.984 . S
N1144 H1151 0.984 . S
N1145 C1138 1.356 . S
N1145 H1148 0.984 . S
N1145 H1149 0.985 . S
H1146 N1141 0.984 . S
H1147 N1141 0.985 . S
H1148 N1145 0.984 . S
H1149 N1145 0.985 . S
H1150 N1144 0.984 . S
H1151 N1144 0.984 . S
H1152 N1140 0.984 . S
H1153 N1140 0.985 . S
C1154 C1155 1.363 . S
C1154 C1160 1.379 . S
C1154 N1162 1.356 . S
C1155 C1154 1.363 . S
C1155 C1161 1.363 . S
C1156 C1157 1.363 . S
C1156 C1161 1.379 . S
C1156 N1163 1.356 1_655 S
C1157 C1156 1.363 . S
C1157 C1160 1.363 . S
N1158 C1160 1.356 . S
N1158 H1170 0.984 . S
N1158 H1171 0.985 . S
N1159 C1161 1.356 . S
N1159 H1164 0.984 . S
N1159 H1165 0.985 . S
C1160 C1154 1.379 . S
C1160 C1157 1.363 . S
C1160 N1158 1.356 . S
C1161 C1155 1.363 . S
C1161 C1156 1.379 . S
C1161 N1159 1.356 . S
N1162 C1154 1.356 . S
N1162 H1168 0.984 . S
N1162 H1169 0.984 . S
N1163 C1156 1.356 1_455 S
N1163 H1166 0.984 . S
N1163 H1167 0.985 . S
H1164 N1159 0.984 . S
H1165 N1159 0.985 . S
H1166 N1163 0.984 . S
H1167 N1163 0.985 . S
H1168 N1162 0.984 . S
H1169 N1162 0.984 . S
H1170 N1158 0.984 . S
H1171 N1158 0.985 . S
C1172 C1173 1.363 . S
C1172 C1178 1.379 . S
C1172 N1180 1.356 . S
C1173 C1172 1.363 . S
C1173 C1179 1.363 . S
C1174 C1175 1.363 . S
C1174 C1179 1.379 . S
C1174 N1181 1.356 . S
C1175 C1174 1.363 . S
C1175 C1178 1.363 . S
N1176 C1178 1.356 . S
N1176 H1188 0.984 . S
N1176 H1189 0.985 . S
N1177 C1179 1.356 . S
N1177 H1182 0.984 . S
N1177 H1183 0.985 . S
C1178 C1172 1.379 . S
C1178 C1175 1.363 . S
C1178 N1176 1.356 . S
C1179 C1173 1.363 . S
C1179 C1174 1.379 . S
C1179 N1177 1.356 . S
N1180 C1172 1.356 . S
N1180 H1186 0.984 . S
N1180 H1187 0.984 . S
N1181 C1174 1.356 . S
N1181 H1184 0.984 . S
N1181 H1185 0.985 . S
H1182 N1177 0.984 . S
H1183 N1177 0.985 . S
H1184 N1181 0.984 . S
H1185 N1181 0.985 . S
H1186 N1180 0.984 . S
H1187 N1180 0.984 . S
H1188 N1176 0.984 . S
H1189 N1176 0.985 . S
C1190 C1191 1.363 . S
C1190 C1196 1.379 . S
C1190 N1198 1.356 1_655 S
C1191 C1190 1.363 . S
C1191 C1197 1.363 . S
C1192 C1193 1.363 . S
C1192 C1197 1.379 . S
C1192 N1199 1.356 . S
C1193 C1192 1.363 . S
C1193 C1196 1.363 . S
N1194 C1196 1.356 . S
N1194 H1206 0.984 . S
N1194 H1207 0.985 . S
N1195 C1197 1.356 . S
N1195 H1200 0.984 . S
N1195 H1201 0.985 . S
C1196 C1190 1.379 . S
C1196 C1193 1.363 . S
C1196 N1194 1.356 . S
C1197 C1191 1.363 . S
C1197 C1192 1.379 . S
C1197 N1195 1.356 . S
N1198 C1190 1.356 1_455 S
N1198 H1204 0.984 . S
N1198 H1205 0.984 . S
N1199 C1192 1.356 . S
N1199 H1202 0.984 . S
N1199 H1203 0.985 . S
H1200 N1195 0.984 . S
H1201 N1195 0.985 . S
H1202 N1199 0.984 . S
H1203 N1199 0.985 . S
H1204 N1198 0.984 . S
H1205 N1198 0.984 . S
H1206 N1194 0.984 . S
H1207 N1194 0.985 . S
C1208 C1209 1.363 . S
C1208 C1214 1.379 . S
C1208 N1216 1.356 . S
C1209 C1208 1.363 . S
C1209 C1215 1.363 . S
C1210 C1211 1.363 . S
C1210 C1215 1.379 . S
C1210 N1217 1.356 . S
C1211 C1210 1.363 . S
C1211 C1214 1.363 . S
N1212 C1214 1.356 . S
N1212 H1224 0.984 . S
N1212 H1225 0.985 . S
N1213 C1215 1.356 . S
N1213 H1218 0.984 . S
N1213 H1219 0.985 . S
C1214 C1208 1.379 . S
C1214 C1211 1.363 . S
C1214 N1212 1.356 . S
C1215 C1209 1.363 . S
C1215 C1210 1.379 . S
C1215 N1213 1.356 . S
N1216 C1208 1.356 . S
N1216 H1222 0.984 . S
N1216 H1223 0.984 . S
N1217 C1210 1.356 . S
N1217 H1220 0.984 . S
N1217 H1221 0.985 . S
H1218 N1213 0.984 . S
H1219 N1213 0.985 . S
H1220 N1217 0.984 . S
H1221 N1217 0.985 . S
H1222 N1216 0.984 . S
H1223 N1216 0.984 . S
H1224 N1212 0.984 . S
H1225 N1212 0.985 . S
C1226 C1227 1.363 . S
C1226 C1232 1.379 . S
C1226 N1234 1.356 1_455 S
C1227 C1226 1.363 . S
C1227 C1233 1.363 . S
C1228 C1229 1.363 . S
C1228 C1233 1.379 . S
C1228 N1235 1.356 . S
C1229 C1228 1.363 . S
C1229 C1232 1.363 . S
N1230 C1232 1.356 . S
N1230 H1242 0.984 . S
N1230 H1243 0.985 . S
N1231 C1233 1.356 . S
N1231 H1236 0.984 . S
N1231 H1237 0.985 . S
C1232 C1226 1.379 . S
C1232 C1229 1.363 . S
C1232 N1230 1.356 . S
C1233 C1227 1.363 . S
C1233 C1228 1.379 . S
C1233 N1231 1.356 . S
N1234 C1226 1.356 1_655 S
N1234 H1240 0.984 . S
N1234 H1241 0.984 . S
N1235 C1228 1.356 . S
N1235 H1238 0.984 . S
N1235 H1239 0.985 . S
H1236 N1231 0.984 . S
H1237 N1231 0.985 . S
H1238 N1235 0.984 . S
H1239 N1235 0.985 . S
H1240 N1234 0.984 . S
H1241 N1234 0.984 . S
H1242 N1230 0.984 . S
H1243 N1230 0.985 . S
C1244 C1245 1.363 . S
C1244 C1250 1.379 . S
C1244 N1252 1.356 . S
C1245 C1244 1.363 . S
C1245 C1251 1.363 . S
C1246 C1247 1.363 . S
C1246 C1251 1.379 . S
C1246 N1253 1.356 . S
C1247 C1246 1.363 . S
C1247 C1250 1.363 . S
N1248 C1250 1.356 . S
N1248 H1260 0.984 . S
N1248 H1261 0.985 . S
N1249 C1251 1.356 . S
N1249 H1254 0.984 . S
N1249 H1255 0.985 . S
C1250 C1244 1.379 . S
C1250 C1247 1.363 . S
C1250 N1248 1.356 . S
C1251 C1245 1.363 . S
C1251 C1246 1.379 . S
C1251 N1249 1.356 . S
N1252 C1244 1.356 . S
N1252 H1258 0.984 . S
N1252 H1259 0.984 . S
N1253 C1246 1.356 . S
N1253 H1256 0.984 . S
N1253 H1257 0.985 . S
H1254 N1249 0.984 . S
H1255 N1249 0.985 . S
H1256 N1253 0.984 . S
H1257 N1253 0.985 . S
H1258 N1252 0.984 . S
H1259 N1252 0.984 . S
H1260 N1248 0.984 . S
H1261 N1248 0.985 . S
C1262 C1263 1.363 . S
C1262 C1268 1.379 . S
C1262 N1270 1.356 1_455 S
C1263 C1262 1.363 . S
C1263 C1269 1.363 . S
C1264 C1265 1.363 . S
C1264 C1269 1.379 . S
C1264 N1271 1.356 . S
C1265 C1264 1.363 . S
C1265 C1268 1.363 . S
N1266 C1268 1.356 . S
N1266 H1278 0.984 . S
N1266 H1279 0.985 . S
N1267 C1269 1.356 . S
N1267 H1272 0.984 . S
N1267 H1273 0.985 . S
C1268 C1262 1.379 . S
C1268 C1265 1.363 . S
C1268 N1266 1.356 . S
C1269 C1263 1.363 . S
C1269 C1264 1.379 . S
C1269 N1267 1.356 . S
N1270 C1262 1.356 1_655 S
N1270 H1276 0.984 . S
N1270 H1277 0.984 . S
N1271 C1264 1.356 . S
N1271 H1274 0.984 . S
N1271 H1275 0.985 . S
H1272 N1267 0.984 . S
H1273 N1267 0.985 . S
H1274 N1271 0.984 . S
H1275 N1271 0.985 . S
H1276 N1270 0.984 . S
H1277 N1270 0.984 . S
H1278 N1266 0.984 . S
H1279 N1266 0.985 . S
C1280 C1281 1.363 1_556 S
C1280 C1286 1.379 . S
C1280 N1288 1.353 1_455 S
C1281 C1280 1.363 1_554 S
C1281 C1287 1.363 . S
C1282 C1283 1.363 . S
C1282 C1287 1.379 . S
C1282 N1289 1.356 . S
C1283 C1282 1.363 . S
C1283 C1286 1.363 1_554 S
N1284 C1286 1.356 . S
N1284 H1296 0.984 . S
N1284 H1297 0.985 . S
N1285 C1287 1.356 . S
N1285 H1290 0.984 . S
N1285 H1291 0.985 . S
C1286 C1280 1.379 . S
C1286 C1283 1.363 1_556 S
C1286 N1284 1.356 . S
C1287 C1281 1.363 . S
C1287 C1282 1.379 . S
C1287 N1285 1.356 . S
N1288 C1280 1.353 1_655 S
N1288 H1294 0.986 . S
N1288 H1295 0.986 . S
N1289 C1282 1.356 . S
N1289 H1292 0.984 . S
N1289 H1293 0.985 . S
H1290 N1285 0.984 . S
H1291 N1285 0.985 . S
H1292 N1289 0.984 . S
H1293 N1289 0.985 . S
H1294 N1288 0.986 . S
H1295 N1288 0.986 . S
H1296 N1284 0.984 . S
H1297 N1284 0.985 . S
C1298 C1299 1.363 . S
C1298 C1304 1.379 . S
C1298 N1306 1.356 . S
C1299 C1298 1.363 . S
C1299 C1305 1.363 . S
C1300 C1301 1.363 . S
C1300 C1305 1.379 . S
C1300 N1307 1.356 . S
C1301 C1300 1.363 . S
C1301 C1304 1.363 . S
N1302 C1304 1.356 . S
N1302 H1314 0.984 1_455 S
N1302 H1315 0.985 1_455 S
N1303 C1305 1.356 . S
N1303 H1308 0.984 . S
N1303 H1309 0.985 . S
C1304 C1298 1.379 . S
C1304 C1301 1.363 . S
C1304 N1302 1.356 . S
C1305 C1299 1.363 . S
C1305 C1300 1.379 . S
C1305 N1303 1.356 . S
N1306 C1298 1.356 . S
N1306 H1312 0.984 . S
N1306 H1313 0.984 . S
N1307 C1300 1.356 . S
N1307 H1310 0.984 . S
N1307 H1311 0.985 . S
H1308 N1303 0.984 . S
H1309 N1303 0.985 . S
H1310 N1307 0.984 . S
H1311 N1307 0.985 . S
H1312 N1306 0.984 . S
H1313 N1306 0.984 . S
H1314 N1302 0.984 1_655 S
H1315 N1302 0.985 1_655 S
C1316 C1317 1.363 1_554 S
C1316 C1322 1.379 . S
C1316 N1324 1.356 . S
C1317 C1316 1.363 1_556 S
C1317 C1323 1.363 . S
C1318 C1319 1.363 . S
C1318 C1323 1.379 . S
C1318 N1325 1.356 . S
C1319 C1318 1.363 . S
C1319 C1322 1.363 1_556 S
N1320 C1322 1.356 . S
N1320 H1332 0.984 . S
N1320 H1333 0.985 . S
N1321 C1323 1.353 1_455 S
N1321 H1326 0.986 . S
N1321 H1327 0.986 . S
C1322 C1316 1.379 . S
C1322 C1319 1.363 1_554 S
C1322 N1320 1.356 . S
C1323 C1317 1.363 . S
C1323 C1318 1.379 . S
C1323 N1321 1.353 1_655 S
N1324 C1316 1.356 . S
N1324 H1330 0.984 . S
N1324 H1331 0.984 . S
N1325 C1318 1.356 . S
N1325 H1328 0.984 . S
N1325 H1329 0.985 . S
H1326 N1321 0.986 . S
H1327 N1321 0.986 . S
H1328 N1325 0.984 . S
H1329 N1325 0.985 . S
H1330 N1324 0.984 . S
H1331 N1324 0.984 . S
H1332 N1320 0.984 . S
H1333 N1320 0.985 . S
C1334 C1335 1.363 . S
C1334 C1340 1.379 . S
C1334 N1342 1.356 . S
C1335 C1334 1.363 . S
C1335 C1341 1.363 . S
C1336 C1337 1.363 . S
C1336 C1341 1.379 . S
C1336 N1343 1.356 . S
C1337 C1336 1.363 . S
C1337 C1340 1.363 . S
N1338 C1340 1.356 . S
N1338 H1350 0.984 . S
N1338 H1351 0.985 . S
N1339 C1341 1.356 . S
N1339 H1344 0.984 . S
N1339 H1345 0.985 . S
C1340 C1334 1.379 . S
C1340 C1337 1.363 . S
C1340 N1338 1.356 . S
C1341 C1335 1.363 . S
C1341 C1336 1.379 . S
C1341 N1339 1.356 . S
N1342 C1334 1.356 . S
N1342 H1348 0.984 . S
N1342 H1349 0.984 . S
N1343 C1336 1.356 . S
N1343 H1346 0.984 1_655 S
N1343 H1347 0.985 1_655 S
H1344 N1339 0.984 . S
H1345 N1339 0.985 . S
H1346 N1343 0.984 1_455 S
H1347 N1343 0.985 1_455 S
H1348 N1342 0.984 . S
H1349 N1342 0.984 . S
H1350 N1338 0.984 . S
H1351 N1338 0.985 . S
C1352 C1353 1.363 . S
C1352 C1358 1.379 . S
C1352 N1360 1.356 . S
C1353 C1352 1.363 . S
C1353 C1359 1.363 . S
C1354 C1355 1.363 . S
C1354 C1359 1.379 . S
C1354 N1361 1.356 . S
C1355 C1354 1.363 . S
C1355 C1358 1.363 . S
N1356 C1358 1.356 . S
N1356 H1368 0.984 . S
N1356 H1369 0.985 . S
N1357 C1359 1.366 . S
N1357 H1362 0.980 1_455 S
N1357 H1363 0.980 1_455 S
C1358 C1352 1.379 . S
C1358 C1355 1.363 . S
C1358 N1356 1.356 . S
C1359 C1353 1.363 . S
C1359 C1354 1.379 . S
C1359 N1357 1.366 . S
N1360 C1352 1.356 . S
N1360 H1366 0.984 . S
N1360 H1367 0.984 . S
N1361 C1354 1.356 . S
N1361 H1364 0.984 . S
N1361 H1365 0.985 . S
H1362 N1357 0.980 1_655 S
H1363 N1357 0.980 1_655 S
H1364 N1361 0.984 . S
H1365 N1361 0.985 . S
H1366 N1360 0.984 . S
H1367 N1360 0.984 . S
H1368 N1356 0.984 . S
H1369 N1356 0.985 . S
C1370 C1371 1.363 . S
C1370 C1376 1.379 . S
C1370 N1378 1.356 . S
C1371 C1370 1.363 . S
C1371 C1377 1.363 . S
C1372 C1373 1.363 . S
C1372 C1377 1.379 . S
C1372 N1379 1.362 . S
C1373 C1372 1.363 . S
C1373 C1376 1.363 . S
N1374 C1376 1.356 . S
N1374 H1386 0.984 . S
N1374 H1387 0.985 . S
N1375 C1377 1.356 . S
N1375 H1380 0.984 . S
N1375 H1381 0.985 . S
C1376 C1370 1.379 . S
C1376 C1373 1.363 . S
C1376 N1374 1.356 . S
C1377 C1371 1.363 . S
C1377 C1372 1.379 . S
C1377 N1375 1.356 . S
N1378 C1370 1.356 . S
N1378 H1384 0.984 . S
N1378 H1385 0.984 . S
N1379 C1372 1.362 . S
N1379 H1382 0.981 1_455 S
N1379 H1383 0.982 1_455 S
H1380 N1375 0.984 . S
H1381 N1375 0.985 . S
H1382 N1379 0.981 1_655 S
H1383 N1379 0.982 1_655 S
H1384 N1378 0.984 . S
H1385 N1378 0.984 . S
H1386 N1374 0.984 . S
H1387 N1374 0.985 . S
C1388 C1389 1.363 . S
C1388 C1394 1.379 . S
C1388 N1396 1.356 . S
C1389 C1388 1.363 . S
C1389 C1395 1.363 . S
C1390 C1391 1.363 . S
C1390 C1395 1.379 . S
C1390 N1397 1.366 . S
C1391 C1390 1.363 . S
C1391 C1394 1.363 . S
N1392 C1394 1.356 . S
N1392 H1404 0.984 . S
N1392 H1405 0.985 . S
N1393 C1395 1.356 . S
N1393 H1398 0.984 . S
N1393 H1399 0.985 . S
C1394 C1388 1.379 . S
C1394 C1391 1.363 . S
C1394 N1392 1.356 . S
C1395 C1389 1.363 . S
C1395 C1390 1.379 . S
C1395 N1393 1.356 . S
N1396 C1388 1.356 . S
N1396 H1402 0.984 . S
N1396 H1403 0.984 . S
N1397 C1390 1.366 . S
N1397 H1400 0.979 1_655 S
N1397 H1401 0.980 1_655 S
H1398 N1393 0.984 . S
H1399 N1393 0.985 . S
H1400 N1397 0.979 1_455 S
H1401 N1397 0.980 1_455 S
H1402 N1396 0.984 . S
H1403 N1396 0.984 . S
H1404 N1392 0.984 . S
H1405 N1392 0.985 . S
C1406 C1407 1.363 . S
C1406 C1412 1.379 . S
C1406 N1414 1.356 . S
C1407 C1406 1.363 . S
C1407 C1413 1.363 . S
C1408 C1409 1.363 . S
C1408 C1413 1.379 . S
C1408 N1415 1.356 . S
C1409 C1408 1.363 . S
C1409 C1412 1.363 . S
N1410 C1412 1.362 . S
N1410 H1422 0.982 1_655 S
N1410 H1423 0.981 1_655 S
N1411 C1413 1.356 . S
N1411 H1416 0.984 . S
N1411 H1417 0.985 . S
C1412 C1406 1.379 . S
C1412 C1409 1.363 . S
C1412 N1410 1.362 . S
C1413 C1407 1.363 . S
C1413 C1408 1.379 . S
C1413 N1411 1.356 . S
N1414 C1406 1.356 . S
N1414 H1420 0.984 . S
N1414 H1421 0.984 . S
N1415 C1408 1.356 . S
N1415 H1418 0.984 . S
N1415 H1419 0.985 . S
H1416 N1411 0.984 . S
H1417 N1411 0.985 . S
H1418 N1415 0.984 . S
H1419 N1415 0.985 . S
H1420 N1414 0.984 . S
H1421 N1414 0.984 . S
H1422 N1410 0.982 1_455 S
H1423 N1410 0.981 1_455 S
C1424 C1425 1.363 . S
C1424 C1430 1.379 . S
C1424 N1432 1.356 . S
C1425 C1424 1.363 . S
C1425 C1431 1.363 . S
C1426 C1427 1.363 . S
C1426 C1431 1.379 . S
C1426 N1433 1.356 . S
C1427 C1426 1.363 . S
C1427 C1430 1.363 . S
N1428 C1430 1.356 . S
N1428 H1440 0.984 . S
N1428 H1441 0.985 . S
N1429 C1431 1.356 . S
N1429 H1434 0.984 . S
N1429 H1435 0.985 . S
C1430 C1424 1.379 . S
C1430 C1427 1.363 . S
C1430 N1428 1.356 . S
C1431 C1425 1.363 . S
C1431 C1426 1.379 . S
C1431 N1429 1.356 . S
N1432 C1424 1.356 . S
N1432 H1438 0.984 . S
N1432 H1439 0.984 . S
N1433 C1426 1.356 . S
N1433 H1436 0.984 . S
N1433 H1437 0.985 . S
H1434 N1429 0.984 . S
H1435 N1429 0.985 . S
H1436 N1433 0.984 . S
H1437 N1433 0.985 . S
H1438 N1432 0.984 . S
H1439 N1432 0.984 . S
H1440 N1428 0.984 . S
H1441 N1428 0.985 . S
C1442 C1443 1.363 . S
C1442 C1448 1.379 . S
C1442 N1450 1.356 . S
C1443 C1442 1.363 . S
C1443 C1449 1.363 . S
C1444 C1445 1.363 . S
C1444 C1449 1.379 . S
C1444 N1451 1.356 . S
C1445 C1444 1.363 . S
C1445 C1448 1.363 . S
N1446 C1448 1.356 . S
N1446 H1458 0.984 . S
N1446 H1459 0.985 . S
N1447 C1449 1.356 . S
N1447 H1452 0.984 . S
N1447 H1453 0.985 . S
C1448 C1442 1.379 . S
C1448 C1445 1.363 . S
C1448 N1446 1.356 . S
C1449 C1443 1.363 . S
C1449 C1444 1.379 . S
C1449 N1447 1.356 . S
N1450 C1442 1.356 . S
N1450 H1456 0.984 . S
N1450 H1457 0.984 . S
N1451 C1444 1.356 . S
N1451 H1454 0.984 . S
N1451 H1455 0.985 . S
H1452 N1447 0.984 . S
H1453 N1447 0.985 . S
H1454 N1451 0.984 . S
H1455 N1451 0.985 . S
H1456 N1450 0.984 . S
H1457 N1450 0.984 . S
H1458 N1446 0.984 . S
H1459 N1446 0.985 . S
C1460 C1461 1.363 . S
C1460 C1466 1.379 . S
C1460 N1468 1.356 . S
C1461 C1460 1.363 . S
C1461 C1467 1.363 . S
C1462 C1463 1.363 . S
C1462 C1467 1.379 . S
C1462 N1469 1.356 . S
C1463 C1462 1.363 . S
C1463 C1466 1.363 . S
N1464 C1466 1.356 . S
N1464 H1476 0.984 . S
N1464 H1477 0.985 . S
N1465 C1467 1.356 . S
N1465 H1470 0.984 . S
N1465 H1471 0.985 . S
C1466 C1460 1.379 . S
C1466 C1463 1.363 . S
C1466 N1464 1.356 . S
C1467 C1461 1.363 . S
C1467 C1462 1.379 . S
C1467 N1465 1.356 . S
N1468 C1460 1.356 . S
N1468 H1474 0.984 . S
N1468 H1475 0.984 . S
N1469 C1462 1.356 . S
N1469 H1472 0.984 . S
N1469 H1473 0.985 . S
H1470 N1465 0.984 . S
H1471 N1465 0.985 . S
H1472 N1469 0.984 . S
H1473 N1469 0.985 . S
H1474 N1468 0.984 . S
H1475 N1468 0.984 . S
H1476 N1464 0.984 . S
H1477 N1464 0.985 . S
C1478 C1479 1.363 . S
C1478 C1484 1.379 . S
C1478 N1486 1.356 . S
C1479 C1478 1.363 . S
C1479 C1485 1.363 . S
C1480 C1481 1.363 . S
C1480 C1485 1.379 . S
C1480 N1487 1.356 . S
C1481 C1480 1.363 . S
C1481 C1484 1.363 . S
N1482 C1484 1.356 . S
N1482 H1494 0.984 . S
N1482 H1495 0.985 . S
N1483 C1485 1.356 . S
N1483 H1488 0.984 . S
N1483 H1489 0.985 . S
C1484 C1478 1.379 . S
C1484 C1481 1.363 . S
C1484 N1482 1.356 . S
C1485 C1479 1.363 . S
C1485 C1480 1.379 . S
C1485 N1483 1.356 . S
N1486 C1478 1.356 . S
N1486 H1492 0.984 . S
N1486 H1493 0.984 . S
N1487 C1480 1.356 . S
N1487 H1490 0.984 . S
N1487 H1491 0.985 . S
H1488 N1483 0.984 . S
H1489 N1483 0.985 . S
H1490 N1487 0.984 . S
H1491 N1487 0.985 . S
H1492 N1486 0.984 . S
H1493 N1486 0.984 . S
H1494 N1482 0.984 . S
H1495 N1482 0.985 . S
C1496 C1497 1.363 . S
C1496 C1502 1.379 . S
C1496 N1504 1.356 . S
C1497 C1496 1.363 . S
C1497 C1503 1.363 1_554 S
C1498 C1499 1.363 1_556 S
C1498 C1503 1.379 . S
C1498 N1505 1.356 . S
C1499 C1498 1.363 1_554 S
C1499 C1502 1.363 . S
N1500 C1502 1.356 . S
N1500 H1512 0.984 . S
N1500 H1513 0.985 . S
N1501 C1503 1.356 . S
N1501 H1506 0.984 . S
N1501 H1507 0.985 . S
C1502 C1496 1.379 . S
C1502 C1499 1.363 . S
C1502 N1500 1.356 . S
C1503 C1497 1.363 1_556 S
C1503 C1498 1.379 . S
C1503 N1501 1.356 . S
N1504 C1496 1.356 . S
N1504 H1510 0.984 . S
N1504 H1511 0.984 . S
N1505 C1498 1.356 . S
N1505 H1508 0.984 . S
N1505 H1509 0.985 . S
H1506 N1501 0.984 . S
H1507 N1501 0.985 . S
H1508 N1505 0.984 . S
H1509 N1505 0.985 . S
H1510 N1504 0.984 . S
H1511 N1504 0.984 . S
H1512 N1500 0.984 . S
H1513 N1500 0.985 . S
C1514 C1515 1.363 . S
C1514 C1520 1.379 . S
C1514 N1522 1.356 . S
C1515 C1514 1.363 . S
C1515 C1521 1.363 . S
C1516 C1517 1.363 . S
C1516 C1521 1.379 . S
C1516 N1523 1.356 . S
C1517 C1516 1.363 . S
C1517 C1520 1.363 . S
N1518 C1520 1.356 . S
N1518 H1530 0.984 . S
N1518 H1531 0.985 . S
N1519 C1521 1.356 . S
N1519 H1524 0.984 . S
N1519 H1525 0.985 . S
C1520 C1514 1.379 . S
C1520 C1517 1.363 . S
C1520 N1518 1.356 . S
C1521 C1515 1.363 . S
C1521 C1516 1.379 . S
C1521 N1519 1.356 . S
N1522 C1514 1.356 . S
N1522 H1528 0.984 . S
N1522 H1529 0.984 . S
N1523 C1516 1.356 . S
N1523 H1526 0.984 . S
N1523 H1527 0.985 . S
H1524 N1519 0.984 . S
H1525 N1519 0.985 . S
H1526 N1523 0.984 . S
H1527 N1523 0.985 . S
H1528 N1522 0.984 . S
H1529 N1522 0.984 . S
H1530 N1518 0.984 . S
H1531 N1518 0.985 . S
C1532 C1533 1.363 . S
C1532 C1538 1.379 . S
C1532 N1540 1.356 . S
C1533 C1532 1.363 . S
C1533 C1539 1.363 1_556 S
C1534 C1535 1.363 1_554 S
C1534 C1539 1.379 . S
C1534 N1541 1.356 . S
C1535 C1534 1.363 1_556 S
C1535 C1538 1.363 . S
N1536 C1538 1.356 . S
N1536 H1548 0.984 . S
N1536 H1549 0.985 . S
N1537 C1539 1.356 . S
N1537 H1542 0.984 . S
N1537 H1543 0.985 . S
C1538 C1532 1.379 . S
C1538 C1535 1.363 . S
C1538 N1536 1.356 . S
C1539 C1533 1.363 1_554 S
C1539 C1534 1.379 . S
C1539 N1537 1.356 . S
N1540 C1532 1.356 . S
N1540 H1546 0.984 . S
N1540 H1547 0.984 . S
N1541 C1534 1.356 . S
N1541 H1544 0.984 . S
N1541 H1545 0.985 . S
H1542 N1537 0.984 . S
H1543 N1537 0.985 . S
H1544 N1541 0.984 . S
H1545 N1541 0.985 . S
H1546 N1540 0.984 . S
H1547 N1540 0.984 . S
H1548 N1536 0.984 . S
H1549 N1536 0.985 . S
C1550 C1551 1.363 . S
C1550 C1556 1.379 . S
C1550 N1558 1.356 . S
C1551 C1550 1.363 . S
C1551 C1557 1.363 . S
C1552 C1553 1.363 . S
C1552 C1557 1.379 . S
C1552 N1559 1.356 . S
C1553 C1552 1.363 . S
C1553 C1556 1.363 . S
N1554 C1556 1.356 . S
N1554 H1566 0.984 . S
N1554 H1567 0.985 . S
N1555 C1557 1.356 . S
N1555 H1560 0.984 . S
N1555 H1561 0.985 . S
C1556 C1550 1.379 . S
C1556 C1553 1.363 . S
C1556 N1554 1.356 . S
C1557 C1551 1.363 . S
C1557 C1552 1.379 . S
C1557 N1555 1.356 . S
N1558 C1550 1.356 . S
N1558 H1564 0.984 . S
N1558 H1565 0.984 . S
N1559 C1552 1.356 . S
N1559 H1562 0.984 . S
N1559 H1563 0.985 . S
H1560 N1555 0.984 . S
H1561 N1555 0.985 . S
H1562 N1559 0.984 . S
H1563 N1559 0.985 . S
H1564 N1558 0.984 . S
H1565 N1558 0.984 . S
H1566 N1554 0.984 . S
H1567 N1554 0.985 . S
C417 C3 1.622 . S
C419 C44 1.616 . S
C435 C31 1.619 . S
C437 C16 1.618 . S
C453 C94 1.619 . S
C455 C57 1.619 . S
C471 C81 1.619 . S
C473 C68 1.618 . S
C489 C107 1.637 . S
C491 C146 1.638 . S
C507 C120 1.637 . S
C509 C133 1.638 . S
C525 C200 1.638 . S
C527 C161 1.637 . S
C543 C185 1.638 . S
C545 C172 1.637 . S
C561 C211 1.637 . S
C563 C252 1.638 . S
C579 C224 1.637 . S
C581 C239 1.638 . S
C597 C265 1.637 . S
C599 C302 1.638 . S
C615 C278 1.637 . S
C617 C289 1.638 . S
C633 C317 1.622 . S
C635 C354 1.616 . S
C651 C341 1.619 . S
C653 C328 1.618 . S
C669 C406 1.619 . S
C671 C367 1.619 . S
C687 C393 1.619 . S
C689 C382 1.618 . S
C705 C4 1.360 . S
C707 C62 1.360 . S
C723 C387 1.360 . S
C725 C17 1.360 . S
C741 C36 1.367 . S
C743 C186 1.366 . S
C759 C303 1.366 . S
C761 C49 1.367 . S
C777 C329 1.360 . S
C779 C69 1.360 . S
C795 C82 1.367 . S
C797 C134 1.366 . S
C813 C95 1.367 . S
C815 C257 1.366 . S
C831 C166 1.363 . S
C833 C108 1.363 . S
C849 C283 1.363 . S
C851 C121 1.363 . S
C867 C147 1.367 . S
C869 C407 1.367 . S
C885 C173 1.363 . S
C887 C225 1.363 . S
C903 C205 1.367 . S
C905 C355 1.367 . S
C921 C270 1.363 . S
C923 C212 1.363 . S
C939 C244 1.366 . S
C941 C394 1.367 . S
C957 C290 1.366 . S
C959 C342 1.367 . S
C975 C368 1.359 . S
C977 C322 1.359 . S
C993 C10 1.536 . S
C995 C251 1.540 . S
C1011 C23 1.536 . S
C1013 C238 1.540 . S
C1029 C231 1.532 . S
C1031 C30 1.532 . S
C1047 C218 1.532 . S
C1049 C43 1.532 . S
C1065 C56 1.536 . S
C1067 C309 1.540 . S
C1083 C75 1.536 . S
C1085 C296 1.540 . S
C1101 C88 1.532 . S
C1103 C277 1.532 . S
C1119 C264 1.532 . S
C1121 C101 1.532 . S
C1137 C114 1.532 . S
C1139 C361 1.532 . S
C1155 C348 1.532 . S
C1157 C127 1.532 . S
C1173 C335 1.536 . S
C1175 C140 1.540 . S
C1191 C153 1.536 . S
C1193 C316 1.540 . S
C1209 C160 1.532 . S
C1211 C413 1.532 . S
C1227 C179 1.532 . S
C1229 C400 1.532 . S
C1245 C381 1.536 . S
C1247 C192 1.540 . S
C1263 C199 1.536 . S
C1265 C374 1.540 . S
C1281 C18 1.450 . S
C1283 C5 1.450 . S
C1299 C29 1.447 . S
C1301 C42 1.447 . S
C1317 C70 1.450 . S
C1319 C55 1.450 . S
C1335 C83 1.447 . S
C1337 C96 1.447 . S
C1353 C122 1.447 . S
C1355 C109 1.447 . S
C1371 C135 1.445 . S
C1373 C148 1.445 . S
C1389 C159 1.447 . S
C1391 C174 1.447 . S
C1407 C187 1.445 . S
C1409 C198 1.445 . S
C1425 C213 1.447 . S
C1427 C226 1.447 . S
C1443 C250 1.445 . S
C1445 C237 1.445 . S
C1461 C263 1.447 . S
C1463 C276 1.447 . S
C1479 C304 1.445 . S
C1481 C291 1.445 . S
C1497 C330 1.450 . S
C1499 C315 1.450 . S
C1515 C343 1.447 . S
C1517 C356 1.447 . S
C1533 C369 1.450 . S
C1535 C380 1.450 . S
C1551 C408 1.447 . S
C1553 C395 1.447 . S
