# Generated by pormake.
# Topology smm, (6)-cn, num edge types: 1
# Building blocks:
#     Node 0, Type 0, BuildingBlock: BETFEN_clean_sbu_0, # of connection points: 6
#     Node 1, Type 0, BuildingBlock: BETFEN_clean_sbu_0, # of connection points: 6
#     Node 2, Type 0, BuildingBlock: BETFEN_clean_sbu_0, # of connection points: 6
#     Node 3, Type 0, BuildingBlock: BETFEN_clean_sbu_0, # of connection points: 6
#     Node 4, Type 0, BuildingBlock: BETFEN_clean_sbu_0, # of connection points: 6
#     Node 5, Type 0, BuildingBlock: BETFEN_clean_sbu_0, # of connection points: 6
#     Node 6, Type 0, BuildingBlock: BETFEN_clean_sbu_0, # of connection points: 6
#     Node 7, Type 0, BuildingBlock: BETFEN_clean_sbu_0, # of connection points: 6
#     Node 8, Type 0, BuildingBlock: BETFEN_clean_sbu_0, # of connection points: 6
#     Edge 9, Type (0, 0), BuildingBlock: XIVTED_clean_linker_0, # of connection points: 2
#     Edge 10, Type (0, 0), BuildingBlock: XIVTED_clean_linker_0, # of connection points: 2
#     Edge 11, Type (0, 0), BuildingBlock: XIVTED_clean_linker_0, # of connection points: 2
#     Edge 12, Type (0, 0), BuildingBlock: XIVTED_clean_linker_0, # of connection points: 2
#     Edge 13, Type (0, 0), BuildingBlock: XIVTED_clean_linker_0, # of connection points: 2
#     Edge 14, Type (0, 0), BuildingBlock: XIVTED_clean_linker_0, # of connection points: 2
#     Edge 15, Type (0, 0), BuildingBlock: XIVTED_clean_linker_0, # of connection points: 2
#     Edge 16, Type (0, 0), BuildingBlock: XIVTED_clean_linker_0, # of connection points: 2
#     Edge 17, Type (0, 0), BuildingBlock: XIVTED_clean_linker_0, # of connection points: 2
#     Edge 18, Type (0, 0), BuildingBlock: XIVTED_clean_linker_0, # of connection points: 2
#     Edge 19, Type (0, 0), BuildingBlock: XIVTED_clean_linker_0, # of connection points: 2
#     Edge 20, Type (0, 0), BuildingBlock: XIVTED_clean_linker_0, # of connection points: 2
#     Edge 21, Type (0, 0), BuildingBlock: XIVTED_clean_linker_0, # of connection points: 2
#     Edge 22, Type (0, 0), BuildingBlock: XIVTED_clean_linker_0, # of connection points: 2
#     Edge 23, Type (0, 0), BuildingBlock: XIVTED_clean_linker_0, # of connection points: 2
#     Edge 24, Type (0, 0), BuildingBlock: XIVTED_clean_linker_0, # of connection points: 2
#     Edge 25, Type (0, 0), BuildingBlock: XIVTED_clean_linker_0, # of connection points: 2
#     Edge 26, Type (0, 0), BuildingBlock: XIVTED_clean_linker_0, # of connection points: 2
#     Edge 27, Type (0, 0), BuildingBlock: XIVTED_clean_linker_0, # of connection points: 2
#     Edge 28, Type (0, 0), BuildingBlock: XIVTED_clean_linker_0, # of connection points: 2
#     Edge 29, Type (0, 0), BuildingBlock: XIVTED_clean_linker_0, # of connection points: 2
#     Edge 30, Type (0, 0), BuildingBlock: XIVTED_clean_linker_0, # of connection points: 2
#     Edge 31, Type (0, 0), BuildingBlock: XIVTED_clean_linker_0, # of connection points: 2
#     Edge 32, Type (0, 0), BuildingBlock: XIVTED_clean_linker_0, # of connection points: 2
#     Edge 33, Type (0, 0), BuildingBlock: XIVTED_clean_linker_0, # of connection points: 2
#     Edge 34, Type (0, 0), BuildingBlock: XIVTED_clean_linker_0, # of connection points: 2
#     Edge 35, Type (0, 0), BuildingBlock: XIVTED_clean_linker_0, # of connection points: 2
# Relax obj value: 0.111
# Max RMSD: 0.190
# Mean RMSD: 0.159
data_MOF--net-smm--node1-BETFEN_clean_sbu_0--edge1-XIVTED_clean_linker_0
_symmetry_space_group_name_H-M    P1
_symmetry_Int_Tables_number       1
_symmetry_cell_setting            triclinic
loop_
_symmetry_equiv_pos_as_xyz
'x, y, z'
_cell_length_a     60.628114
_cell_length_b     78.890152
_cell_length_c     14.607848
_cell_angle_alpha  92.413275
_cell_angle_beta   94.240795
_cell_angle_gamma 122.69722
loop_
_atom_site_label
_atom_site_type_symbol
_atom_site_fract_x
_atom_site_fract_y
_atom_site_fract_z
_atom_type_partial_charge
Pr0 Pr 0.09967 0.23417 0.04707 0.0
Pr1 Pr 1.04784 0.19426 0.06958 0.0
C2 C 0.14437 0.26518 -0.00715 0.0
C3 C 0.15964 0.28716 -0.01715 0.0
C4 C 0.18095 0.30062 0.04885 0.0
C5 C 0.1974 0.32104 0.03492 0.0
C6 C 0.19303 0.32845 0.95435 0.0
C7 C 0.17125 0.31511 0.88955 0.0
C8 C 0.15479 0.29467 0.90346 0.0
C9 C 0.08955 0.22752 0.22894 0.0
C10 C 1.04902 0.23748 0.07873 0.0
C11 C 1.00605 0.15895 0.10832 0.0
C12 C 1.00185 0.13867 0.09542 0.0
C13 C 1.01623 0.13529 0.03431 0.0
C14 C 1.01348 0.11653 0.02358 0.0
C15 C 0.99639 0.10066 0.07416 0.0
C16 C 0.98219 0.10412 0.13628 0.0
C17 C 0.98488 0.12297 0.1467 0.0
C18 C 1.05943 0.20128 0.8881 0.0
C19 C 0.09929 0.19173 0.0496 0.0
O20 O 0.12276 0.25342 0.9367 0.0
O21 O 0.14279 0.25944 0.07619 0.0
O22 O 0.08584 0.21423 0.16744 0.0
O23 O 0.09996 0.24524 0.19854 0.0
O24 O 1.03664 0.21847 0.10044 0.0
O25 O 0.07216 0.2463 0.04631 0.0
O26 O 1.02523 0.17167 0.17145 0.0
O27 O 1.006 0.16723 0.03255 0.0
O28 O 1.06194 0.21418 0.94884 0.0
O29 O 1.05015 0.18382 0.91952 0.0
O30 O 0.11035 0.20981 0.0192 0.0
O31 O 0.07679 0.18354 0.08513 0.0
H32 H 0.18537 0.29528 0.11033 0.0
H33 H 0.2138 0.33097 0.08677 0.0
H34 H 0.16751 0.32027 0.82624 0.0
H35 H 0.13874 0.28467 0.85061 0.0
H36 H 1.02985 0.14726 -0.00476 0.0
H37 H 1.02513 0.11459 0.97661 0.0
H38 H 0.96878 0.0922 0.17606 0.0
H39 H 0.97384 0.12532 0.19503 0.0
Pr40 Pr 0.97099 0.83867 -0.00635 0.0
Pr41 Pr 0.96532 0.87501 0.95578 0.0
C42 C 0.96756 0.80486 0.052 0.0
C43 C 0.95313 0.7821 0.05041 0.0
C44 C 0.95177 0.76989 0.97394 0.0
C45 C 0.94089 0.74896 -0.02232 0.0
C46 C 0.93105 0.7394 0.05819 0.0
C47 C 0.93222 0.75169 0.13415 0.0
C48 C 0.94305 0.77257 0.13031 0.0
C49 C 0.9732 0.84757 0.81093 0.0
C50 C 0.91125 0.83179 0.93737 0.0
C51 C 0.9651 0.9074 0.90334 0.0
C52 C 0.97284 0.92834 0.9324 0.0
C53 C 0.96367 0.93272 0.00995 0.0
C54 C 0.96825 0.952 0.02915 0.0
C55 C 0.98214 0.9674 0.97136 0.0
C56 C 0.99219 0.96316 0.89594 0.0
C57 C 0.98751 0.94386 0.8766 0.0
C58 C 0.964 0.86625 0.13945 0.0
C59 C 1.02579 0.88506 -0.00194 0.0
O60 O 0.959 0.81464 0.09605 0.0
O61 O 0.97903 0.81365 -0.01976 0.0
O62 O 0.95759 0.8477 0.86288 0.0
O63 O 0.98704 0.8413 0.85066 0.0
O64 O 0.92386 0.84853 0.89671 0.0
O65 O 0.92446 0.82547 -0.01396 0.0
O66 O 0.98349 0.90422 0.8853 0.0
O67 O 0.94611 0.89267 0.94245 0.0
O68 O 0.97935 0.86614 0.08638 0.0
O69 O 0.95004 0.87242 0.10046 0.0
O70 O 1.01582 0.8671 0.03149 0.0
O71 O 1.01043 0.88985 0.95417 0.0
H72 H 0.95951 0.77655 0.91126 0.0
H73 H 0.94019 0.74028 0.9169 0.0
H74 H 0.92545 0.74535 0.19829 0.0
H75 H 0.94417 0.78142 0.19131 0.0
H76 H 0.95222 0.92108 0.05434 0.0
H77 H 0.95997 0.95455 0.08731 0.0
H78 H 1.00342 0.97469 0.85085 0.0
H79 H 0.99476 0.94091 0.81629 0.0
Pr80 Pr 0.2723 1.03727 -0.00128 0.0
Pr81 Pr 0.24873 0.0632 0.03595 0.0
C82 C 0.28675 1.01261 0.93283 0.0
C83 C 0.30948 1.01057 0.92737 0.0
C84 C 0.3256 1.0127 0.00703 0.0
C85 C 0.34491 1.00824 0.00161 0.0
C86 C 0.34858 1.00161 0.91649 0.0
C87 C 0.33327 1.00042 0.83632 0.0
C88 C 0.31385 1.00478 0.84184 0.0
C89 C 0.27386 0.04798 0.18419 0.0
C90 C 0.31489 0.08605 0.04133 0.0
C91 C 0.23641 0.08963 0.09733 0.0
C92 C 0.22113 0.09894 0.07764 0.0
C93 C 0.23451 0.12012 0.08603 0.0
C94 C 0.22072 0.1296 0.07384 0.0
C95 C 0.1931 0.11812 0.05304 0.0
C96 C 0.17971 0.09684 0.0434 0.0
C97 C 0.19358 0.08734 0.05557 0.0
C98 C 0.248 0.05321 0.85019 0.0
C99 C 0.20683 1.01344 0.00804 0.0
O100 O 0.28555 1.02564 0.88367 0.0
O101 O 0.27822 1.01161 0.01339 0.0
O102 O 0.255 0.04253 0.12285 0.0
O103 O 0.29261 0.04698 0.15184 0.0
O104 O 0.29531 0.08639 0.07483 0.0
O105 O 0.31072 0.06927 -0.00117 0.0
O106 O 0.22397 0.07077 0.11623 0.0
O107 O 0.25619 0.09467 0.04997 0.0
O108 O 0.26646 0.05838 0.91267 0.0
O109 O 0.22936 0.05446 0.88157 0.0
O110 O 0.2261 1.01288 0.9737 0.0
O111 O 0.21089 1.0307 0.04467 0.0
H112 H 0.32283 1.01728 0.07392 0.0
H113 H 0.35664 1.00961 0.06447 0.0
H114 H 0.33545 0.99521 0.76983 0.0
H115 H 0.30161 1.00297 0.77952 0.0
H116 H 0.25572 0.12941 0.10386 0.0
H117 H 0.2317 0.14597 0.08336 0.0
H118 H 0.1585 0.0875 0.02637 0.0
H119 H 0.18273 0.07096 0.0486 0.0
Pr120 Pr 0.79517 0.54548 0.1031 0.0
Pr121 Pr 0.84244 0.54212 0.07548 0.0
C122 C 0.76089 0.55356 0.16583 0.0
C123 C 0.76215 0.57046 0.2172 0.0
C124 C 0.7435 0.56636 0.27827 0.0
C125 C 0.74504 0.58215 0.33132 0.0
C126 C 0.76536 0.60236 0.3243 0.0
C127 C 0.78405 0.60642 0.26275 0.0
C128 C 0.78248 0.59057 0.20971 0.0
C129 C 0.8025 0.54124 0.92017 0.0
C130 C 0.85323 0.5882 0.09796 0.0
C131 C 0.87686 0.53265 0.02444 0.0
C132 C 0.8837 0.51747 0.0404 0.0
C133 C 0.86483 0.49786 0.06141 0.0
C134 C 0.87182 0.48377 0.07605 0.0
C135 C 0.89788 0.48898 0.07049 0.0
C136 C 0.91667 0.50872 0.04984 0.0
C137 C 0.90965 0.52274 0.03502 0.0
C138 C 0.83436 0.5453 0.25837 0.0
C139 C 0.78061 0.49917 0.07311 0.0
O140 O 0.77027 0.54459 0.21263 0.0
O141 O 0.76734 0.55607 0.0816 0.0
O142 O 0.8206 0.55234 -0.01602 0.0
O143 O 0.77925 0.53245 0.94845 0.0
O144 O 0.8606 0.57713 0.05477 0.0
O145 O 0.83147 0.57913 0.13912 0.0
O146 O 0.85426 0.52634 0.9759 0.0
O147 O 0.8824 0.5458 0.09417 0.0
O148 O 0.81668 0.5346 0.19301 0.0
O149 O 0.85772 0.55426 0.23143 0.0
O150 O 0.77226 0.51067 0.10025 0.0
O151 O 0.80539 0.5073 0.05437 0.0
H152 H 0.72776 0.5509 0.28513 0.0
H153 H 0.73007 0.57855 0.37682 0.0
H154 H 0.80001 0.62181 0.25628 0.0
H155 H 0.79717 0.59398 0.16328 0.0
H156 H 0.8447 0.49344 0.06671 0.0
H157 H 0.85685 0.46886 0.09295 0.0
H158 H 0.93681 0.51328 0.0436 0.0
H159 H 0.92455 0.53776 0.01889 0.0
Pr160 Pr 0.56422 0.2134 0.14189 0.0
Pr161 Pr 0.56143 0.25029 0.10002 0.0
C162 C 0.56302 0.18199 0.21264 0.0
C163 C 0.54915 0.16119 0.24036 0.0
C164 C 0.55448 0.14742 0.20099 0.0
C165 C 0.54651 0.12931 0.23947 0.0
C166 C 0.53319 0.12469 0.31862 0.0
C167 C 0.52629 0.13785 0.35417 0.0
C168 C 0.53421 0.15594 0.31548 0.0
C169 C 0.56517 0.22087 0.95662 0.0
C170 C 0.50458 0.20606 0.09875 0.0
C171 C 0.57264 0.28608 0.04193 0.0
C172 C 0.59586 0.30757 0.04716 0.0
C173 C 0.59773 0.32254 0.10918 0.0
C174 C 0.61874 0.34287 0.11239 0.0
C175 C 0.63859 0.34905 0.05308 0.0
C176 C 0.63692 0.33399 -0.00819 0.0
C177 C 0.61587 0.3136 -0.01127 0.0
C178 C 0.56175 0.24343 0.28553 0.0
C179 C 0.62017 0.25483 0.13599 0.0
O180 O 0.56193 0.19574 0.2617 0.0
O181 O 0.56503 0.18493 0.12529 0.0
O182 O 0.5504 0.22186 0.00999 0.0
O183 O 0.57948 0.21505 -0.00277 0.0
O184 O 0.51557 0.2242 0.06675 0.0
O185 O 0.51914 0.20023 0.14062 0.0
O186 O 0.573 0.2723 -0.00993 0.0
O187 O 0.56202 0.27935 0.11791 0.0
O188 O 0.57607 0.24228 0.23053 0.0
O189 O 0.54733 0.24927 0.24626 0.0
O190 O 0.6084 0.23797 0.17592 0.0
O191 O 0.60643 0.26127 0.09303 0.0
H192 H 0.56621 0.1512 0.14371 0.0
H193 H 0.55235 0.11962 0.21084 0.0
H194 H 0.51569 0.13455 0.41427 0.0
H195 H 0.52977 0.16624 0.34743 0.0
H196 H 0.58276 0.31857 0.15514 0.0
H197 H 0.61938 0.35378 0.1619 0.0
H198 H 0.65152 0.33801 0.94427 0.0
H199 H 0.61515 0.3026 0.93956 0.0
Pr200 Pr 0.99043 0.37303 0.18648 0.0
Pr201 Pr 0.93366 0.33862 0.11608 0.0
C202 C 1.0388 0.39688 0.27898 0.0
C203 C 0.06565 0.40996 0.32851 0.0
C204 C 0.08763 0.41334 0.28653 0.0
C205 C 0.11306 0.42552 0.33327 0.0
C206 C 0.11709 0.43473 0.42272 0.0
C207 C 0.09504 0.43124 0.46487 0.0
C208 C 0.06956 0.41887 0.41842 0.0
C209 C 0.9787 0.36755 -0.00391 0.0
C210 C 0.97617 0.32573 0.14454 0.0
C211 C 0.88416 0.3142 0.03076 0.0
C212 C 0.85774 0.31053 0.0373 0.0
C213 C 0.83626 0.29066 0.04042 0.0
C214 C 0.81129 0.28676 0.05155 0.0
C215 C 0.80719 0.30267 0.0594 0.0
C216 C 0.82859 0.32257 0.0541 0.0
C217 C 0.8537 0.32649 0.04369 0.0
C218 C 0.94499 0.34488 0.30735 0.0
C219 C 0.94898 0.3869 0.14443 0.0
O220 O 1.01743 0.38885 0.32073 0.0
O221 O 1.03482 0.39282 0.18932 0.0
O222 O 0.97164 0.35346 0.04764 0.0
O223 O 0.99337 0.38534 0.04191 0.0
O224 O 0.95454 0.32127 0.09289 0.0
O225 O 0.9906 0.34316 0.19699 0.0
O226 O 0.90192 0.33116 0.00011 0.0
O227 O 0.89374 0.30904 0.09932 0.0
O228 O 0.95218 0.3586 0.25394 0.0
O229 O 0.93009 0.32705 0.26291 0.0
O230 O 0.9723 0.39276 0.1877 0.0
O231 O 0.93234 0.36802 0.1074 0.0
H232 H 0.08518 0.40655 0.21747 0.0
H233 H 0.12964 0.42811 0.29847 0.0
H234 H 0.09751 0.43804 0.53394 0.0
H235 H 1.05294 0.41644 0.45258 0.0
H236 H 0.83889 0.27813 0.03543 0.0
H237 H 0.79513 0.27124 0.05412 0.0
H238 H 0.82609 0.33514 0.06061 0.0
H239 H 0.86997 0.34199 0.04204 0.0
Pr240 Pr 0.51369 0.94305 0.87556 0.0
Pr241 Pr 0.46325 0.90338 0.89907 0.0
C242 C 0.54916 0.97862 0.81547 0.0
C243 C 0.54645 0.99291 0.76213 0.0
C244 C 0.56656 1.0135 0.77242 0.0
C245 C 0.56353 1.02724 0.72466 0.0
C246 C 0.54032 1.02058 0.66572 0.0
C247 C 0.52027 0.99987 0.65518 0.0
C248 C 0.52327 0.98617 0.70322 0.0
C249 C 0.50664 0.93481 0.05844 0.0
C250 C 0.45847 0.94161 0.89071 0.0
C251 C 0.42432 0.86761 0.94517 0.0
C252 C 0.41397 0.84666 0.91023 0.0
C253 C 0.41226 0.84155 0.81558 0.0
C254 C 0.40497 0.82214 0.78344 0.0
C255 C 0.39964 0.80762 0.84551 0.0
C256 C 0.40091 0.81264 0.94005 0.0
C257 C 0.40796 0.83205 0.97216 0.0
C258 C 0.47099 0.91128 0.71551 0.0
C259 C 0.51947 0.90441 0.89447 0.0
O260 O 0.54087 0.9611 0.77098 0.0
O261 O 0.54215 0.97711 0.89876 0.0
O262 O 0.48899 0.93205 -0.0028 0.0
O263 O 0.52955 0.94309 0.02766 0.0
O264 O 0.45121 0.9258 0.93697 0.0
O265 O 0.47924 0.94876 0.84455 0.0
O266 O 0.44819 0.87749 -0.01104 0.0
O267 O 0.42023 0.87833 0.88866 0.0
O268 O 0.48828 0.91412 0.7782 0.0
O269 O 0.44802 0.90296 0.74513 0.0
O270 O 0.53132 0.92302 0.86965 0.0
O271 O 0.49493 0.89474 0.91562 0.0
H272 H 0.58453 1.01895 0.81783 0.0
H273 H 0.57944 0.04307 0.73342 0.0
H274 H 0.50204 0.99431 0.61125 0.0
H275 H 0.50737 0.97033 0.695 0.0
H276 H 0.41728 0.8527 0.76662 0.0
H277 H 0.40451 0.81872 0.71043 0.0
H278 H 0.39674 0.80163 -0.01092 0.0
H279 H 0.4094 0.83582 0.04547 0.0
Pr280 Pr 0.37153 0.55892 0.67752 0.0
Pr281 Pr 0.35185 0.58599 0.62751 0.0
C282 C 0.37851 0.5313 0.75235 0.0
C283 C 0.36081 0.50988 0.76712 0.0
C284 C 0.33697 0.49741 0.70998 0.0
C285 C 0.31914 0.47757 0.72933 0.0
C286 C 0.32473 0.46987 0.8066 0.0
C287 C 0.34882 0.48242 0.86304 0.0
C288 C 0.36667 0.50225 0.84343 0.0
C289 C 0.36992 0.56483 0.49102 0.0
C290 C 0.30679 0.53875 0.62448 0.0
C291 C 0.34247 0.61245 0.55441 0.0
C292 C 0.35211 0.63373 0.57655 0.0
C293 C 0.3642 0.64317 0.66534 0.0
C294 C 0.37208 0.66314 0.68806 0.0
C295 C 0.36821 0.67403 0.62199 0.0
C296 C 0.35692 0.66466 0.53202 0.0
C297 C 0.34885 0.64459 0.50958 0.0
C298 C 0.35464 0.58106 0.81557 0.0
C299 C 0.41676 0.60718 0.6796 0.0
O300 O 0.37513 0.54386 0.8009 0.0
O301 O 0.38218 0.53552 0.66691 0.0
O302 O 0.35229 0.5614 0.54172 0.0
O303 O 0.38914 0.56454 0.53535 0.0
O304 O 0.31323 0.55513 0.58404 0.0
O305 O 0.32486 0.53727 0.67325 0.0
O306 O 0.35959 0.60885 0.52536 0.0
O307 O 0.32823 0.60022 0.61387 0.0
O308 O 0.37157 0.58383 0.76304 0.0
O309 O 0.33594 0.58213 0.77285 0.0
O310 O 0.41167 0.59026 0.71306 0.0
O311 O 0.3979 0.60836 0.63522 0.0
H312 H 0.33197 0.50311 0.65115 0.0
H313 H 0.30096 0.46828 0.68374 0.0
H314 H 0.3536 0.47712 0.92386 0.0
H315 H 0.3848 0.51177 0.88905 0.0
H316 H 0.367 0.63495 0.71763 0.0
H317 H 0.38039 0.66979 0.75823 0.0
H318 H 0.35411 0.67276 0.47921 0.0
H319 H 0.33978 0.63749 0.44042 0.0
Pr320 Pr 0.65624 0.73186 0.78373 0.0
Pr321 Pr 0.66034 0.77137 0.84279 0.0
C322 C 0.65938 0.70249 0.69872 0.0
C323 C 0.67898 0.69813 0.67357 0.0
C324 C 0.69826 0.69968 0.73941 0.0
C325 C 0.71581 0.69454 0.71319 0.0
C326 C 0.71448 0.68798 0.62075 0.0
C327 C 0.6956 0.68701 0.55495 0.0
C328 C 0.67801 0.69198 0.58121 0.0
C329 C 0.65482 0.73829 0.9718 0.0
C330 C 0.71583 0.77283 0.84351 0.0
C331 C 0.65697 0.80172 0.91825 0.0
C332 C 0.64216 0.81167 0.90904 0.0
C333 C 0.61503 0.80075 0.87854 0.0
C334 C 0.60151 0.81064 0.87289 0.0
C335 C 0.61487 0.83167 0.89728 0.0
C336 C 0.64209 0.84247 0.92711 0.0
C337 C 0.65552 0.83259 0.93287 0.0
C338 C 0.65997 0.76436 0.65354 0.0
C339 C 0.60072 0.72755 0.79484 0.0
O340 O 0.65857 0.71631 0.65506 0.0
O341 O 0.65585 0.70307 0.78589 0.0
O342 O 0.6701 0.7516 0.92262 0.0
O343 O 0.64026 0.72058 0.92528 0.0
O344 O 0.70444 0.78105 0.8842 0.0
O345 O 0.70162 0.75576 0.78932 0.0
O346 O 0.64488 0.78356 0.94602 0.0
O347 O 0.67235 0.80416 0.85501 0.0
O348 O 0.64547 0.75137 0.70508 0.0
O349 O 0.67453 0.78217 0.69844 0.0
O350 O 0.61214 0.71972 0.75346 0.0
O351 O 0.61447 0.74579 0.84123 0.0
H352 H 0.69957 0.70461 0.81108 0.0
H353 H 0.73025 0.69552 0.76518 0.0
H354 H 0.69376 0.68167 0.48351 0.0
H355 H 0.66328 0.69069 0.52942 0.0
H356 H 0.60428 0.78459 0.85928 0.0
H357 H 0.58065 0.80184 0.84857 0.0
H358 H 0.65302 0.85857 0.94784 0.0
H359 H 0.67643 0.84131 0.95689 0.0
H360 H 0.18229 0.35504 0.87999 0.0
H361 H 0.33458 0.44222 0.87254 0.0
H362 H 0.24696 0.35022 -0.01526 0.0
H363 H 0.27067 0.44984 0.79255 0.0
H364 H 0.30256 0.40825 0.91162 0.0
H365 H 0.21414 0.38951 0.84417 0.0
C366 C 0.20318 0.36122 0.89547 0.0
C367 C 0.21195 0.34971 0.93563 0.0
C368 C 0.29552 0.41735 0.88555 0.0
C369 C 0.24851 0.38916 0.895 0.0
C370 C 0.31383 0.43682 0.86359 0.0
C371 C 0.30537 0.44899 0.82918 0.0
C372 C 0.26847 0.40987 0.87287 0.0
C373 C 0.27813 0.44094 0.81757 0.0
C374 C 0.22134 0.38093 0.87536 0.0
C375 C 0.23926 0.3586 0.95505 0.0
N376 N 0.26068 0.42191 0.83934 0.0
N377 N 0.25652 0.37774 0.9343 0.0
H378 H 0.87186 0.79096 0.93731 0.0
H379 H 0.75517 0.81127 0.91877 0.0
H380 H 0.88442 0.85014 0.92964 0.0
H381 H 0.74217 0.75406 0.81678 0.0
H382 H 0.80249 0.82486 0.95037 0.0
H383 H 0.82373 0.77607 0.92045 0.0
C384 C 0.86455 0.80078 0.93286 0.0
C385 C 0.88217 0.82177 0.9337 0.0
C386 C 0.78922 0.80931 0.92119 0.0
C387 C 0.82751 0.80503 0.91595 0.0
C388 C 0.76221 0.80157 0.9032 0.0
C389 C 0.74464 0.78158 0.86411 0.0
C390 C 0.79873 0.7969 0.90155 0.0
C391 C 0.75497 0.76966 0.84584 0.0
C392 C 0.83716 0.79232 0.92286 0.0
C393 C 0.8716 0.83384 0.92783 0.0
N394 N 0.78125 0.77746 0.86489 0.0
N395 N 0.84513 0.82534 0.91947 0.0
H396 H 0.38348 1.00849 0.78962 0.0
H397 H 0.41959 0.93323 -0.00213 0.0
H398 H 0.35473 0.97802 0.03348 0.0
H399 H 0.46267 0.97215 0.79118 0.0
H400 H 0.39428 0.94868 0.00415 0.0
H401 H 0.41137 0.99475 0.78205 0.0
C402 C 0.38308 0.99898 0.84165 0.0
C403 C 0.3668 0.99448 0.91257 0.0
C404 C 0.40929 0.95395 0.95748 0.0
C405 C 0.39849 0.97867 0.90398 0.0
C406 C 0.42377 0.94506 0.95355 0.0
C407 C 0.44335 0.95137 0.89378 0.0
C408 C 0.41413 0.96927 0.90082 0.0
C409 C 0.44779 0.96683 0.83836 0.0
C410 C 0.39907 0.99122 0.83746 0.0
C411 C 0.36721 0.98217 -0.0216 0.0
N412 N 0.4332 0.97522 0.84293 0.0
N413 N 0.38264 0.97465 0.97216 0.0
H414 H 0.48343 0.16702 0.03949 0.0
H415 H 0.33263 0.12559 0.1068 0.0
H416 H 0.46004 0.20799 0.11509 0.0
H417 H 0.36002 0.08968 -0.00633 0.0
H418 H 0.37786 0.15589 0.11432 0.0
H419 H 0.43763 0.13895 0.0241 0.0
C420 C 0.46853 0.17016 0.05216 0.0
C421 C 0.47578 0.19001 0.07855 0.0
C422 C 0.37388 0.14136 0.08777 0.0
C423 C 0.4224 0.15734 0.06243 0.0
C424 C 0.34805 0.12399 0.08384 0.0
C425 C 0.34226 0.10484 0.04982 0.0
C426 C 0.3942 0.13962 0.05793 0.0
C427 C 0.36321 0.10392 0.02061 0.0
C428 C 0.44221 0.15401 0.04347 0.0
C429 C 0.4554 0.193 0.09378 0.0
N430 N 0.38796 0.12089 0.02559 0.0
N431 N 0.42964 0.17682 0.0864 0.0
H432 H 0.94838 0.28548 0.07584 0.0
H433 H 0.07507 0.27861 0.10278 0.0
H434 H 1.02527 0.3338 0.20233 0.0
H435 H 0.99675 0.22478 0.08755 0.0
H436 H 1.05672 0.29927 0.12307 0.0
H437 H 0.96507 0.26322 0.06441 0.0
C438 C 0.96872 0.29142 0.10142 0.0
C439 C 0.98542 0.31162 0.14012 0.0
C440 C 1.04349 0.28294 0.11557 0.0
C441 C 1.00471 0.28624 0.12597 0.0
C442 C 1.05394 0.27108 0.10349 0.0
C443 C 1.03746 0.24984 0.09316 0.0
C444 C 1.01617 0.27366 0.11576 0.0
C445 C 1.01024 0.24107 0.0955 0.0
C446 C 0.97819 0.27866 0.09511 0.0
C447 C 1.01159 0.31839 0.17224 0.0
N448 N 1.0004 0.253 0.10563 0.0
N449 N 1.02043 0.30584 0.16364 0.0
H450 H 0.89101 0.71198 0.15629 0.0
H451 H 0.89311 0.61376 -0.00754 0.0
H452 H 0.94527 0.7148 0.97276 0.0
H453 H 0.84579 0.61487 0.19592 0.0
H454 H 0.91252 0.65025 -0.0181 0.0
H455 H 0.87419 0.67632 0.16805 0.0
C456 C 0.89966 0.7053 0.11873 0.0
C457 C 0.91994 0.71695 0.06372 0.0
C458 C 0.89794 0.64249 0.02907 0.0
C459 C 0.90003 0.67516 0.07617 0.0
C460 C 0.88691 0.6216 0.0355 0.0
C461 C 0.86755 0.61089 0.09499 0.0
C462 C 0.8896 0.65294 0.08227 0.0
C463 C 0.86036 0.62213 0.14831 0.0
C464 C 0.88982 0.68469 0.12517 0.0
C465 C 0.92951 0.70673 0.01534 0.0
N466 N 0.87119 0.64226 0.1404 0.0
N467 N 0.91956 0.68662 0.02273 0.0
H468 H 0.28481 0.49755 0.62115 0.0
H469 H 0.13753 0.47174 0.51717 0.0
H470 H 0.26477 0.54219 0.6017 0.0
H471 H 0.15866 0.42965 0.43443 0.0
H472 H 0.18319 0.49586 0.58275 0.0
H473 H 0.2376 0.47068 0.5853 0.0
C474 C 0.27048 0.50167 0.6106 0.0
C475 C 0.27866 0.52208 0.61327 0.0
C476 C 0.17781 0.48128 0.55088 0.0
C477 C 0.22505 0.49169 0.57356 0.0
C478 C 0.1517 0.46745 0.51397 0.0
C479 C 0.1443 0.44871 0.46966 0.0
C480 C 0.19672 0.47633 0.54416 0.0
C481 C 0.16363 0.44406 0.46682 0.0
C482 C 0.24365 0.48639 0.58975 0.0
C483 C 0.25935 0.52664 0.59902 0.0
N484 N 0.18901 0.45782 0.50327 0.0
N485 N 0.23353 0.5116 0.57978 0.0
H486 H 0.72559 0.66328 0.71053 0.0
H487 H 0.77561 0.63832 0.26712 0.0
H488 H 0.74056 0.69542 0.46735 0.0
H489 H 0.75704 0.60437 0.50511 0.0
H490 H 0.77144 0.6636 0.35186 0.0
H491 H 0.74581 0.64616 0.6497 0.0
C492 C 0.73368 0.66708 0.64529 0.0
C493 C 0.73102 0.68053 0.59313 0.0
C494 C 0.76859 0.65075 0.38598 0.0
C495 C 0.75369 0.66073 0.5223 0.0
C496 C 0.7711 0.63635 0.33777 0.0
C497 C 0.76623 0.61904 0.37862 0.0
C498 C 0.76104 0.64776 0.47553 0.0
C499 C 0.76032 0.61724 0.47021 0.0
C500 C 0.74505 0.65719 0.61023 0.0
C501 C 0.7417 0.68479 0.50877 0.0
N502 N 0.75759 0.6313 0.51522 0.0
N503 N 0.75225 0.67472 0.47536 0.0
H504 H 0.5171 0.08625 0.24887 0.0
H505 H 0.55259 0.05793 0.73328 0.0
H506 H 0.5415 0.12436 0.50472 0.0
H507 H 0.52011 1.01651 0.48582 0.0
H508 H 0.5477 0.08214 0.6503 0.0
H509 H 0.51653 0.05996 0.33417 0.0
C510 C 0.52211 0.08902 0.32302 0.0
C511 C 0.52939 0.10756 0.36963 0.0
C512 C 0.54153 0.06773 0.61411 0.0
C513 C 0.52895 0.07763 0.46757 0.0
C514 C 0.54451 0.05396 0.66132 0.0
C515 C 0.53691 1.03522 0.61627 0.0
C516 C 0.53103 0.06283 0.52079 0.0
C517 C 0.52608 1.03074 0.52339 0.0
C518 C 0.52174 0.074 0.37169 0.0
C519 C 0.53545 0.11024 0.46592 0.0
N520 N 0.52362 0.0445 0.47854 0.0
N521 N 0.53532 0.09554 0.51145 0.0
H522 H 0.20733 0.15321 0.97358 0.0
H523 H 0.08171 0.15402 0.10378 0.0
H524 H 0.14542 0.10669 0.11367 0.0
H525 H 0.14661 0.20326 -0.01496 0.0
H526 H 0.10361 0.13567 0.09944 0.0
H527 H 0.18434 0.17086 0.9691 0.0
C528 C 0.18893 0.14668 0.00355 0.0
C529 C 0.17844 0.12841 0.04453 0.0
C530 C 0.11309 0.15048 0.07425 0.0
C531 C 0.1518 0.14856 0.03875 0.0
C532 C 0.10059 0.16102 0.07671 0.0
C533 C 0.11237 0.18034 0.04517 0.0
C534 C 0.13763 0.15921 0.03984 0.0
C535 C 0.13679 0.18847 0.01039 0.0
C536 C 0.17574 0.15676 0.00058 0.0
C537 C 0.1542 0.12057 0.08048 0.0
N538 N 0.14861 0.17789 0.00882 0.0
N539 N 0.14181 0.1307 0.07704 0.0
H540 H 0.98002 0.9909 0.84164 0.0
H541 H 0.9937 0.07588 0.20651 0.0
H542 H 0.99028 0.9896 0.13636 0.0
H543 H 0.99283 0.07983 0.91274 0.0
H544 H 0.99051 0.04362 0.18313 0.0
H545 H 0.98353 1.02303 0.86732 0.0
C546 C 0.9833 0.99743 0.91189 0.0
C547 C 0.98497 0.98741 -0.01315 0.0
C548 C 0.99102 0.05156 0.12382 0.0
C549 C 0.98846 1.0243 0.01686 0.0
C550 C 0.99265 0.06992 0.13706 0.0
C551 C 0.9936 0.08067 0.06153 0.0
C552 C 0.99013 0.04376 0.03429 0.0
C553 C 0.99251 0.07226 0.97322 0.0
C554 C 0.98509 1.01577 0.9265 0.0
C555 C 0.98856 0.99655 0.07626 0.0
N556 N 0.9908 0.05437 0.96213 0.0
N557 N 0.99015 1.01442 0.08872 0.0
H558 H 0.07144 0.88632 0.96392 0.0
H559 H 0.16201 1.00806 0.07182 0.0
H560 H 1.04456 0.92305 0.06986 0.0
H561 H 0.19112 0.97417 0.94974 0.0
H562 H 0.11975 0.97641 0.07925 0.0
H563 H 0.11629 0.91724 0.96891 0.0
C564 C 0.07509 0.90074 -0.00949 0.0
C565 C 1.05419 0.90201 0.01742 0.0
C566 C 0.13531 0.9758 0.0507 0.0
C567 C 0.10525 0.93754 0.02126 0.0
C568 C 0.15958 0.994 0.04617 0.0
C569 C 0.18041 0.99403 0.00962 0.0
C570 C 0.13146 0.95718 0.01871 0.0
C571 C 0.17574 0.97507 -0.02191 0.0
C572 C 0.10061 0.91845 -0.00773 0.0
C573 C 1.06002 0.92126 0.04892 0.0
N574 N 0.1519 0.95751 -0.0167 0.0
N575 N 0.08472 0.93809 0.04965 0.0
H576 H 0.94412 0.49556 0.15881 0.0
H577 H 0.9024 0.38035 0.0622 0.0
H578 H 0.86907 0.44794 0.0163 0.0
H579 H 0.97731 0.42753 0.20731 0.0
H580 H 0.88981 0.40482 0.04687 0.0
H581 H 0.9565 0.471 0.17844 0.0
C582 C 0.93023 0.47998 0.13119 0.0
C583 C 0.90546 0.47396 0.08539 0.0
C584 C 0.909 0.40985 0.08222 0.0
C585 C 0.91957 0.44553 0.10866 0.0
C586 C 0.91625 0.39584 0.09111 0.0
C587 C 0.94104 0.40178 0.1362 0.0
C588 C 0.92661 0.43011 0.11843 0.0
C589 C 0.95802 0.42216 0.17198 0.0
C590 C 0.9373 0.4659 0.14298 0.0
C591 C 0.88823 0.45338 0.05291 0.0
N592 N 0.95052 0.43555 0.16221 0.0
N593 N 0.89563 0.44 0.0649 0.0
H594 H 0.78761 0.46741 0.03352 0.0
H595 H 0.63539 0.38238 0.07965 0.0
H596 H 0.72838 0.47919 0.09643 0.0
H597 H 0.69146 0.36656 0.02616 0.0
H598 H 0.67013 0.41795 0.08297 0.0
H599 H 0.75388 0.43072 0.02648 0.0
C600 C 0.76765 0.46239 0.0456 0.0
C601 C 0.76107 0.47665 0.06574 0.0
C602 C 0.67501 0.40678 0.07057 0.0
C603 C 0.72232 0.43463 0.05784 0.0
C604 C 0.65505 0.3863 0.06937 0.0
C605 C 0.66024 0.37113 0.05356 0.0
C606 C 0.70075 0.41258 0.05565 0.0
C607 C 0.68627 0.37754 0.0381 0.0
C608 C 0.74839 0.44142 0.04171 0.0
C609 C 0.73474 0.46905 0.08089 0.0
N610 N 0.70549 0.39769 0.03977 0.0
N611 N 0.71661 0.44881 0.07666 0.0
H612 H 0.65433 0.25058 0.24809 0.0
H613 H 0.7797 0.31783 -0.02216 0.0
H614 H 0.65208 0.28348 0.02271 0.0
H615 H 0.77466 0.27786 0.17967 0.0
H616 H 0.73523 0.3091 0.00353 0.0
H617 H 0.70065 0.26449 0.23564 0.0
C618 C 0.66364 0.26088 0.1962 0.0
C619 C 0.64915 0.26567 0.1356 0.0
C620 C 0.74395 0.30233 0.04232 0.0
C621 C 0.70257 0.28162 0.12031 0.0
C622 C 0.76933 0.30735 0.02797 0.0
C623 C 0.7808 0.29839 0.07601 0.0
C624 C 0.73011 0.28841 0.10582 0.0
C625 C 0.76645 0.28485 0.13986 0.0
C626 C 0.69019 0.26882 0.18902 0.0
C627 C 0.66249 0.27934 0.07067 0.0
N628 N 0.74193 0.28028 0.15267 0.0
N629 N 0.68845 0.2867 0.06404 0.0
H630 H 0.63206 0.86943 0.84192 0.0
H631 H 0.50144 0.86608 0.94204 0.0
H632 H 0.56504 0.81836 0.94303 0.0
H633 H 0.5694 0.91796 0.84932 0.0
H634 H 0.52415 0.84827 0.94054 0.0
H635 H 0.6092 0.88716 0.84164 0.0
C636 C 0.61257 0.86193 0.86443 0.0
C637 C 0.6006 0.84233 0.893 0.0
C638 C 0.53414 0.86356 0.92062 0.0
C639 C 0.57408 0.86263 0.892 0.0
C640 C 0.52118 0.8738 0.92155 0.0
C641 C 0.53349 0.89365 0.89594 0.0
C642 C 0.55969 0.87314 0.89376 0.0
C643 C 0.55909 0.90273 0.86986 0.0
C644 C 0.59946 0.87207 0.86382 0.0
C645 C 0.57504 0.83333 0.91955 0.0
N646 N 0.57129 0.89242 0.8694 0.0
N647 N 0.56272 0.84355 0.91866 0.0
H648 H 0.41074 0.70442 0.73622 0.0
H649 H 0.36588 0.78238 0.69662 0.0
H650 H 0.34004 0.69052 0.56946 0.0
H651 H 0.4217 0.788 0.91653 0.0
H652 H 0.35931 0.75033 0.63667 0.0
H653 H 0.41851 0.73713 0.79017 0.0
C654 C 0.39687 0.70824 0.71086 0.0
C655 C 0.3746 0.69464 0.64871 0.0
C656 C 0.3729 0.75855 0.69826 0.0
C657 C 0.38354 0.73208 0.70938 0.0
C658 C 0.37668 0.7768 0.73229 0.0
C659 C 0.39425 0.78771 0.81172 0.0
C660 C 0.38703 0.75133 0.74353 0.0
C661 C 0.40771 0.77986 0.85575 0.0
C662 C 0.40135 0.72691 0.74155 0.0
C663 C 0.35761 0.7006 0.61659 0.0
N664 N 0.4039 0.76215 0.82078 0.0
N665 N 0.36241 0.71887 0.64753 0.0
H666 H 0.57292 0.70404 0.92572 0.0
H667 H 0.43738 0.64142 0.58969 0.0
H668 H 0.56399 0.71967 0.65276 0.0
H669 H 0.45701 0.6159 0.81243 0.0
H670 H 0.48067 0.67295 0.62554 0.0
H671 H 0.52687 0.67498 0.90127 0.0
C672 C 0.56087 0.70176 0.86206 0.0
C673 C 0.57188 0.71446 0.79194 0.0
C674 C 0.47551 0.66045 0.6665 0.0
C675 C 0.51974 0.68101 0.76212 0.0
C676 C 0.45082 0.64241 0.64603 0.0
C677 C 0.44359 0.62589 0.6977 0.0
C678 C 0.49305 0.66219 0.74021 0.0
C679 C 0.46183 0.62814 0.7701 0.0
C680 C 0.5348 0.68502 0.8475 0.0
C681 C 0.55591 0.71046 0.7092 0.0
N682 N 0.48566 0.64597 0.78948 0.0
N683 N 0.53064 0.69406 0.69641 0.0
H684 H 1.05418 0.17483 0.74868 0.0
H685 H 0.09688 0.25447 0.36997 0.0
H686 H 0.07573 0.2363 0.80784 0.0
H687 H 0.07233 0.19232 0.30861 0.0
H688 H 0.08998 0.2483 0.53123 0.0
H689 H 1.06159 0.18113 0.58782 0.0
C690 C 1.06051 0.18967 0.72771 0.0
C691 C 1.06433 0.20507 0.7914 0.0
C692 C 0.08608 0.236 0.48258 0.0
C693 C 0.07284 0.21241 0.60764 0.0
C694 C 0.09002 0.23952 0.39056 0.0
C695 C 0.08517 0.22387 0.32608 0.0
C696 C 0.07724 0.21669 0.51033 0.0
C697 C 0.07627 0.20478 0.35623 0.0
C698 C 1.06473 0.19326 0.63591 0.0
C699 C 0.07259 0.22402 0.76081 0.0
N700 N 0.07261 0.20173 0.44624 0.0
N701 N 0.07655 0.22716 0.67104 0.0
H702 H 1.00226 0.84443 0.68567 0.0
H703 H 0.93519 0.86936 0.26533 0.0
H704 H 0.943 0.85814 0.71325 0.0
H705 H 0.99491 0.85619 0.23679 0.0
H706 H 0.93769 0.86515 0.42965 0.0
H707 H 1.00012 0.84884 0.52128 0.0
C708 C 0.98883 0.8484 0.657 0.0
C709 C 0.97269 0.85084 0.71267 0.0
C710 C 0.95025 0.86317 0.38759 0.0
C711 C 0.97008 0.85587 0.52508 0.0
C712 C 0.94881 0.86555 0.29382 0.0
C713 C 0.96494 0.86317 0.23786 0.0
C714 C 0.96795 0.85836 0.42556 0.0
C715 C 0.98219 0.8582 0.2779 0.0
C716 C 0.98759 0.8509 0.56323 0.0
C717 C 0.9557 0.85605 0.67243 0.0
N718 N 0.98327 0.85597 0.36953 0.0
N719 N 0.9548 0.85836 0.58092 0.0
H720 H 0.21352 0.0473 0.70186 0.0
H721 H 0.30844 0.05357 0.33194 0.0
H722 H 0.28936 0.0558 0.77526 0.0
H723 H 0.23379 0.04716 0.26008 0.0
H724 H 0.30205 0.05463 0.49529 0.0
H725 H 0.22034 0.04675 0.53892 0.0
C726 C 0.23152 0.04893 0.68351 0.0
C727 C 0.2509 0.05159 0.75172 0.0
C728 C 0.28711 0.05306 0.44374 0.0
C729 C 0.25895 0.05112 0.56625 0.0
C730 C 0.29081 0.05252 0.35071 0.0
C731 C 0.27156 0.05019 0.28284 0.0
C732 C 0.26399 0.05123 0.46859 0.0
C733 C 0.24907 0.0489 0.31047 0.0
C734 C 0.23547 0.04869 0.59068 0.0
C735 C 0.27389 0.05366 0.72458 0.0
N736 N 0.24585 0.04936 0.40124 0.0
N737 N 0.27731 0.05342 0.63391 0.0
H738 H 0.78688 0.52405 0.32567 0.0
H739 H 0.84983 0.56045 0.85209 0.0
H740 H 0.87024 0.5651 0.41056 0.0
H741 H 0.76606 0.52175 0.76847 0.0
H742 H 0.85769 0.56146 0.69053 0.0
H743 H 0.77877 0.5225 0.48733 0.0
C744 C 0.80346 0.53281 0.3785 0.0
C745 C 0.82926 0.54475 0.35519 0.0
C746 C 0.83758 0.55273 0.70732 0.0
C747 C 0.82019 0.54292 0.53983 0.0
C748 C 0.83309 0.55212 0.7995 0.0
C749 C 0.80725 0.54107 0.82318 0.0
C750 C 0.81607 0.5422 0.63841 0.0
C751 C 0.78627 0.53048 0.75274 0.0
C752 C 0.79883 0.53187 0.47068 0.0
C753 C 0.85005 0.55571 0.42593 0.0
N754 N 0.79114 0.53134 0.66322 0.0
N755 N 0.84506 0.55451 0.51528 0.0
H756 H 0.59273 0.23318 0.38151 0.0
H757 H 0.53526 0.23192 0.86048 0.0
H758 H 0.53285 0.246 0.41358 0.0
H759 H 0.59416 0.218 0.82913 0.0
H760 H 0.53446 0.23745 0.69711 0.0
H761 H 0.5938 0.22769 0.54517 0.0
C762 C 0.57979 0.23481 0.42306 0.0
C763 C 0.56266 0.24004 0.38407 0.0
C764 C 0.54757 0.23318 0.7258 0.0
C765 C 0.56384 0.23387 0.57134 0.0
C766 C 0.54803 0.23003 0.81909 0.0
C767 C 0.56475 0.22445 0.85821 0.0
C768 C 0.56397 0.23075 0.67106 0.0
C769 C 0.58093 0.22226 0.80156 0.0
C770 C 0.58043 0.2317 0.51647 0.0
C771 C 0.54637 0.24201 0.44096 0.0
N772 N 0.58013 0.22539 0.71082 0.0
N773 N 0.54737 0.23894 0.53166 0.0
H774 H 0.97262 0.38134 0.412 0.0
H775 H 0.94983 0.33139 0.8905 0.0
H776 H 0.92917 0.31695 0.4322 0.0
H777 H 0.99484 0.39587 0.87231 0.0
H778 H 0.94149 0.32587 0.72239 0.0
H779 H 0.98073 0.38711 0.58046 0.0
C780 C 0.96484 0.36843 0.45204 0.0
C781 C 0.95023 0.34864 0.4085 0.0
C782 C 0.95319 0.34124 0.75501 0.0
C783 C 0.95928 0.35509 0.60071 0.0
C784 C 0.95794 0.34439 0.85094 0.0
C785 C 0.97313 0.36411 0.89498 0.0
C786 C 0.9637 0.35794 0.70282 0.0
C787 C 0.98309 0.38042 0.84075 0.0
C788 C 0.96943 0.37172 0.54808 0.0
C789 C 0.94052 0.33245 0.46327 0.0
N790 N 0.97823 0.37697 0.74732 0.0
N791 N 0.9452 0.33602 0.55661 0.0
H792 H 0.43568 0.90446 0.56832 0.0
H793 H 0.54243 0.94214 0.20553 0.0
H794 H 0.51744 0.92589 0.64269 0.0
H795 H 0.46013 0.91912 0.13138 0.0
H796 H 0.53386 0.93643 0.36642 0.0
H797 H 0.44437 0.91002 0.40769 0.0
C798 C 0.45545 0.91035 0.55072 0.0
C799 C 0.47587 0.91472 0.61859 0.0
C800 C 0.51768 0.93263 0.31491 0.0
C801 C 0.48602 0.92112 0.43538 0.0
C802 C 0.52258 0.93588 0.2232 0.0
C803 C 0.50199 0.93117 0.1554 0.0
C804 C 0.492 0.92462 0.33868 0.0
C805 C 0.4766 0.92304 0.1817 0.0
C806 C 0.46043 0.91352 0.45912 0.0
C807 C 0.50115 0.92235 0.59233 0.0
N808 N 0.47234 0.92005 0.27124 0.0
N809 N 0.50552 0.92531 0.50278 0.0
H810 H 0.39483 0.58155 0.91595 0.0
H811 H 0.33074 0.56556 0.39095 0.0
H812 H 0.32071 0.57582 0.94142 0.0
H813 H 0.40436 0.57041 0.36613 0.0
H814 H 0.32709 0.56974 0.2269 0.0
H815 H 0.39898 0.57784 0.08062 0.0
C816 C 0.37942 0.5795 0.95631 0.0
C817 C 0.35736 0.57896 0.9151 0.0
C818 C 0.34406 0.56989 0.25712 0.0
C819 C 0.36201 0.57477 0.10371 0.0
C820 C 0.34615 0.56749 0.35082 0.0
C821 C 0.36785 0.56756 0.39201 0.0
C822 C 0.36382 0.57238 0.20394 0.0
C823 C 0.38728 0.57022 0.33694 0.0
C824 C 0.38181 0.5774 0.05034 0.0
C825 C 0.33803 0.57633 0.97056 0.0
N826 N 0.38479 0.5725 0.24565 0.0
N827 N 0.3408 0.57433 0.06201 0.0
H828 H 0.62795 0.72831 0.54752 0.0
H829 H 0.68512 0.77432 0.07792 0.0
H830 H 0.68895 0.7909 0.53156 0.0
H831 H 0.62537 0.71135 0.09252 0.0
H832 H 0.68618 0.78071 0.24376 0.0
H833 H 0.62621 0.72175 0.38097 0.0
C834 C 0.64099 0.74066 0.50886 0.0
C835 C 0.65866 0.76017 0.55319 0.0
C836 C 0.67282 0.76548 0.2109 0.0
C837 C 0.65671 0.75282 0.36277 0.0
C838 C 0.67222 0.76183 0.11619 0.0
C839 C 0.65521 0.74226 0.0717 0.0
C840 C 0.65628 0.74945 0.26164 0.0
C841 C 0.63883 0.72665 0.12439 0.0
C842 C 0.63997 0.73692 0.41382 0.0
C843 C 0.67504 0.77564 0.49997 0.0
N844 N 0.63979 0.73058 0.2167 0.0
N845 N 0.67367 0.77163 0.40757 0.0
loop_
_geom_bond_atom_site_label_1
_geom_bond_atom_site_label_2
_geom_bond_distance
_geom_bond_site_symmetry_2
_ccdc_geom_bond_type
Pr0 C2 2.880 . S
Pr0 O20 2.562 . S
Pr0 O21 2.490 . S
Pr0 O22 2.695 . S
Pr0 O23 2.512 . S
Pr0 O25 2.437 . S
Pr0 O28 2.436 1_554 S
Pr0 O30 2.438 . S
Pr1 C11 2.880 1_455 S
Pr1 O22 2.436 . S
Pr1 O24 2.421 1_455 S
Pr1 O26 2.560 . S
Pr1 O27 2.490 1_454 S
Pr1 O28 2.695 1_554 S
Pr1 O29 2.512 1_554 S
Pr1 O31 2.437 . S
C2 Pr0 2.880 . S
C2 C3 1.491 . S
C2 O20 1.254 . S
C2 O21 1.225 . S
C3 C2 1.491 . S
C3 C4 1.392 . S
C3 C8 1.365 . S
C4 C3 1.392 . S
C4 C5 1.368 . S
C4 H32 0.929 . S
C5 C4 1.368 . S
C5 C6 1.386 . S
C5 H33 0.929 . S
C6 C5 1.386 . S
C6 C7 1.373 1_554 S
C7 C6 1.373 1_556 S
C7 C8 1.407 1_556 S
C7 H34 0.931 . S
C8 C3 1.365 . S
C8 C7 1.407 1_554 S
C8 H35 0.922 1_554 S
C9 O22 1.270 . S
C9 O23 1.248 . S
C10 O24 1.264 1_455 S
C10 O25 1.278 . S
C11 Pr1 2.880 1_655 S
C11 C12 1.491 . S
C11 O26 1.253 1_655 S
C11 O27 1.225 1_554 S
C12 C11 1.491 . S
C12 C13 1.392 1_554 S
C12 C17 1.356 . S
C13 C12 1.392 1_556 S
C13 C14 1.368 1_556 S
C13 H36 0.929 . S
C14 C13 1.368 1_554 S
C14 C15 1.389 . S
C14 H37 0.926 1_554 S
C15 C14 1.389 . S
C15 C16 1.373 . S
C16 C15 1.373 . S
C16 C17 1.409 . S
C16 H38 0.931 . S
C17 C12 1.356 . S
C17 C16 1.409 . S
C17 H39 0.930 . S
C18 O28 1.270 . S
C18 O29 1.248 . S
C19 O30 1.267 . S
C19 O31 1.278 . S
O20 Pr0 2.562 . S
O20 C2 1.254 . S
O21 Pr0 2.490 . S
O21 C2 1.225 . S
O22 Pr0 2.695 . S
O22 Pr1 2.436 . S
O22 C9 1.270 . S
O23 Pr0 2.512 . S
O23 C9 1.248 . S
O24 Pr1 2.421 1_655 S
O24 C10 1.264 1_655 S
O25 Pr0 2.437 . S
O25 C10 1.278 . S
O26 Pr1 2.560 . S
O26 C11 1.253 1_455 S
O27 Pr1 2.490 1_656 S
O27 C11 1.225 1_556 S
O28 Pr0 2.436 1_556 S
O28 Pr1 2.695 1_556 S
O28 C18 1.270 . S
O29 Pr1 2.512 1_556 S
O29 C18 1.248 . S
O30 Pr0 2.438 . S
O30 C19 1.267 . S
O31 Pr1 2.437 . S
O31 C19 1.278 . S
H32 C4 0.929 . S
H33 C5 0.929 . S
H34 C7 0.931 . S
H35 C8 0.922 1_556 S
H36 C13 0.929 . S
H37 C14 0.926 1_556 S
H38 C16 0.931 . S
H39 C17 0.930 . S
Pr40 C42 2.880 . S
Pr40 O60 2.562 . S
Pr40 O61 2.490 1_554 S
Pr40 O62 2.695 1_554 S
Pr40 O63 2.512 1_554 S
Pr40 O65 2.437 1_554 S
Pr40 O68 2.436 . S
Pr40 O70 2.438 . S
Pr41 C51 2.880 . S
Pr41 O62 2.436 1_554 S
Pr41 O64 2.438 . S
Pr41 O66 2.562 1_554 S
Pr41 O67 2.490 . S
Pr41 O68 2.695 . S
Pr41 O69 2.512 . S
Pr41 O71 2.437 . S
C42 Pr40 2.880 . S
C42 C43 1.491 . S
C42 O60 1.254 . S
C42 O61 1.225 1_554 S
C43 C42 1.491 . S
C43 C44 1.392 1_554 S
C43 C48 1.356 . S
C44 C43 1.392 1_556 S
C44 C45 1.368 . S
C44 H72 0.929 . S
C45 C44 1.368 . S
C45 C46 1.386 1_556 S
C45 H73 0.929 . S
C46 C45 1.386 1_554 S
C46 C47 1.373 . S
C47 C46 1.373 . S
C47 C48 1.409 . S
C47 H74 0.931 . S
C48 C43 1.356 . S
C48 C47 1.409 . S
C48 H75 0.930 . S
C49 O62 1.270 . S
C49 O63 1.248 . S
C50 O64 1.267 . S
C50 O65 1.278 1_554 S
C51 Pr41 2.880 . S
C51 C52 1.491 . S
C51 O66 1.254 1_554 S
C51 O67 1.225 . S
C52 C51 1.491 . S
C52 C53 1.392 . S
C52 C57 1.356 1_554 S
C53 C52 1.392 . S
C53 C54 1.368 . S
C53 H76 0.929 . S
C54 C53 1.368 . S
C54 C55 1.386 . S
C54 H77 0.929 . S
C55 C54 1.386 . S
C55 C56 1.373 1_554 S
C56 C55 1.373 1_556 S
C56 C57 1.409 . S
C56 H78 0.931 . S
C57 C52 1.356 1_556 S
C57 C56 1.409 . S
C57 H79 0.930 . S
C58 O68 1.270 . S
C58 O69 1.248 . S
C59 O70 1.267 . S
C59 O71 1.278 . S
O60 Pr40 2.562 . S
O60 C42 1.254 . S
O61 Pr40 2.490 1_556 S
O61 C42 1.225 1_556 S
O62 Pr40 2.695 1_556 S
O62 Pr41 2.436 1_556 S
O62 C49 1.270 . S
O63 Pr40 2.512 1_556 S
O63 C49 1.248 . S
O64 Pr41 2.438 . S
O64 C50 1.267 . S
O65 Pr40 2.437 1_556 S
O65 C50 1.278 1_556 S
O66 Pr41 2.562 1_556 S
O66 C51 1.254 1_556 S
O67 Pr41 2.490 . S
O67 C51 1.225 . S
O68 Pr40 2.436 . S
O68 Pr41 2.695 . S
O68 C58 1.270 . S
O69 Pr41 2.512 . S
O69 C58 1.248 . S
O70 Pr40 2.438 . S
O70 C59 1.267 . S
O71 Pr41 2.437 . S
O71 C59 1.278 . S
H72 C44 0.929 . S
H73 C45 0.929 . S
H74 C47 0.931 . S
H75 C48 0.930 . S
H76 C53 0.929 . S
H77 C54 0.929 . S
H78 C56 0.931 . S
H79 C57 0.930 . S
Pr80 C82 2.881 . S
Pr80 O100 2.562 1_554 S
Pr80 O101 2.490 . S
Pr80 O102 2.695 1_565 S
Pr80 O103 2.512 . S
Pr80 O105 2.437 1_565 S
Pr80 O108 2.436 1_564 S
Pr80 O110 2.438 . S
Pr81 C91 2.880 . S
Pr81 O102 2.436 . S
Pr81 O104 2.438 . S
Pr81 O106 2.562 . S
Pr81 O107 2.490 1_554 S
Pr81 O108 2.695 1_554 S
Pr81 O109 2.512 1_554 S
Pr81 O111 2.437 1_554 S
C82 Pr80 2.881 . S
C82 C83 1.491 1_554 S
C82 O100 1.250 1_554 S
C82 O101 1.229 . S
C83 C82 1.491 1_556 S
C83 C84 1.392 1_556 S
C83 C88 1.356 . S
C84 C83 1.392 1_554 S
C84 C85 1.368 . S
C84 H112 0.929 . S
C85 C84 1.368 . S
C85 C86 1.386 1_554 S
C85 H113 0.929 . S
C86 C85 1.386 1_556 S
C86 C87 1.373 . S
C87 C86 1.373 . S
C87 C88 1.409 . S
C87 H114 0.931 . S
C88 C83 1.356 . S
C88 C87 1.409 . S
C88 H115 0.930 . S
C89 O102 1.270 . S
C89 O103 1.248 1_545 S
C90 O104 1.267 . S
C90 O105 1.278 . S
C91 Pr81 2.880 . S
C91 C92 1.491 . S
C91 O106 1.254 . S
C91 O107 1.225 1_554 S
C92 C91 1.491 . S
C92 C93 1.392 1_554 S
C92 C97 1.356 . S
C93 C92 1.392 1_556 S
C93 C94 1.368 . S
C93 H116 0.929 . S
C94 C93 1.368 . S
C94 C95 1.386 1_556 S
C94 H117 0.929 . S
C95 C94 1.386 1_554 S
C95 C96 1.373 . S
C96 C95 1.373 . S
C96 C97 1.409 . S
C96 H118 0.931 . S
C97 C92 1.356 . S
C97 C96 1.409 . S
C97 H119 0.930 . S
C98 O108 1.270 . S
C98 O109 1.248 . S
C99 O110 1.267 . S
C99 O111 1.278 1_564 S
O100 Pr80 2.562 1_556 S
O100 C82 1.250 1_556 S
O101 Pr80 2.490 . S
O101 C82 1.229 . S
O102 Pr80 2.695 1_545 S
O102 Pr81 2.436 . S
O102 C89 1.270 . S
O103 Pr80 2.512 . S
O103 C89 1.248 1_565 S
O104 Pr81 2.438 . S
O104 C90 1.267 . S
O105 Pr80 2.437 1_545 S
O105 C90 1.278 . S
O106 Pr81 2.562 . S
O106 C91 1.254 . S
O107 Pr81 2.490 1_556 S
O107 C91 1.225 1_556 S
O108 Pr80 2.436 1_546 S
O108 Pr81 2.695 1_556 S
O108 C98 1.270 . S
O109 Pr81 2.512 1_556 S
O109 C98 1.248 . S
O110 Pr80 2.438 . S
O110 C99 1.267 . S
O111 Pr81 2.437 1_556 S
O111 C99 1.278 1_546 S
H112 C84 0.929 . S
H113 C85 0.929 . S
H114 C87 0.931 . S
H115 C88 0.930 . S
H116 C93 0.929 . S
H117 C94 0.929 . S
H118 C96 0.931 . S
H119 C97 0.930 . S
Pr120 C122 2.880 . S
Pr120 O140 2.562 . S
Pr120 O141 2.490 . S
Pr120 O142 2.695 . S
Pr120 O143 2.512 1_554 S
Pr120 O145 2.437 . S
Pr120 O148 2.436 . S
Pr120 O150 2.438 . S
Pr121 C131 2.880 . S
Pr121 O142 2.436 . S
Pr121 O144 2.438 . S
Pr121 O146 2.562 . S
Pr121 O147 2.490 . S
Pr121 O148 2.695 . S
Pr121 O149 2.512 . S
Pr121 O151 2.437 . S
C122 Pr120 2.880 . S
C122 C123 1.491 . S
C122 O140 1.254 . S
C122 O141 1.225 . S
C123 C122 1.491 . S
C123 C124 1.392 . S
C123 C128 1.356 . S
C124 C123 1.392 . S
C124 C125 1.368 . S
C124 H152 0.929 . S
C125 C124 1.368 . S
C125 C126 1.386 . S
C125 H153 0.929 . S
C126 C125 1.386 . S
C126 C127 1.373 . S
C127 C126 1.373 . S
C127 C128 1.409 . S
C127 H154 0.931 . S
C128 C123 1.356 . S
C128 C127 1.409 . S
C128 H155 0.930 . S
C129 O142 1.270 1_556 S
C129 O143 1.248 . S
C130 O144 1.267 . S
C130 O145 1.278 . S
C131 Pr121 2.880 . S
C131 C132 1.491 . S
C131 O146 1.254 . S
C131 O147 1.225 . S
C132 C131 1.491 . S
C132 C133 1.392 . S
C132 C137 1.356 . S
C133 C132 1.392 . S
C133 C134 1.368 . S
C133 H156 0.929 . S
C134 C133 1.368 . S
C134 C135 1.386 . S
C134 H157 0.929 . S
C135 C134 1.386 . S
C135 C136 1.373 . S
C136 C135 1.373 . S
C136 C137 1.409 . S
C136 H158 0.931 1_554 S
C137 C132 1.356 . S
C137 C136 1.409 . S
C137 H159 0.930 . S
C138 O148 1.270 . S
C138 O149 1.248 . S
C139 O150 1.267 . S
C139 O151 1.278 . S
O140 Pr120 2.562 . S
O140 C122 1.254 . S
O141 Pr120 2.490 . S
O141 C122 1.225 . S
O142 Pr120 2.695 . S
O142 Pr121 2.436 . S
O142 C129 1.270 1_554 S
O143 Pr120 2.512 1_556 S
O143 C129 1.248 . S
O144 Pr121 2.438 . S
O144 C130 1.267 . S
O145 Pr120 2.437 . S
O145 C130 1.278 . S
O146 Pr121 2.562 . S
O146 C131 1.254 . S
O147 Pr121 2.490 . S
O147 C131 1.225 . S
O148 Pr120 2.436 . S
O148 Pr121 2.695 . S
O148 C138 1.270 . S
O149 Pr121 2.512 . S
O149 C138 1.248 . S
O150 Pr120 2.438 . S
O150 C139 1.267 . S
O151 Pr121 2.437 . S
O151 C139 1.278 . S
H152 C124 0.929 . S
H153 C125 0.929 . S
H154 C127 0.931 . S
H155 C128 0.930 . S
H156 C133 0.929 . S
H157 C134 0.929 . S
H158 C136 0.931 1_556 S
H159 C137 0.930 . S
Pr160 C162 2.880 . S
Pr160 O180 2.562 . S
Pr160 O181 2.490 . S
Pr160 O182 2.695 . S
Pr160 O183 2.512 1_554 S
Pr160 O185 2.437 . S
Pr160 O188 2.436 . S
Pr160 O190 2.438 . S
Pr161 C171 2.880 . S
Pr161 O182 2.436 . S
Pr161 O184 2.438 . S
Pr161 O186 2.562 . S
Pr161 O187 2.490 . S
Pr161 O188 2.695 . S
Pr161 O189 2.512 . S
Pr161 O191 2.437 . S
C162 Pr160 2.880 . S
C162 C163 1.491 . S
C162 O180 1.254 . S
C162 O181 1.225 . S
C163 C162 1.491 . S
C163 C164 1.392 . S
C163 C168 1.356 . S
C164 C163 1.392 . S
C164 C165 1.368 . S
C164 H192 0.929 . S
C165 C164 1.368 . S
C165 C166 1.386 . S
C165 H193 0.929 . S
C166 C165 1.386 . S
C166 C167 1.373 . S
C167 C166 1.373 . S
C167 C168 1.409 . S
C167 H194 0.931 . S
C168 C163 1.356 . S
C168 C167 1.409 . S
C168 H195 0.930 . S
C169 O182 1.270 1_556 S
C169 O183 1.248 . S
C170 O184 1.267 . S
C170 O185 1.278 . S
C171 Pr161 2.880 . S
C171 C172 1.491 . S
C171 O186 1.254 . S
C171 O187 1.225 . S
C172 C171 1.491 . S
C172 C173 1.392 . S
C172 C177 1.356 . S
C173 C172 1.392 . S
C173 C174 1.368 . S
C173 H196 0.929 . S
C174 C173 1.368 . S
C174 C175 1.386 . S
C174 H197 0.929 . S
C175 C174 1.386 . S
C175 C176 1.373 . S
C176 C175 1.373 . S
C176 C177 1.409 . S
C176 H198 0.931 . S
C177 C172 1.356 . S
C177 C176 1.409 . S
C177 H199 0.930 . S
C178 O188 1.270 . S
C178 O189 1.248 . S
C179 O190 1.267 . S
C179 O191 1.278 . S
O180 Pr160 2.562 . S
O180 C162 1.254 . S
O181 Pr160 2.490 . S
O181 C162 1.225 . S
O182 Pr160 2.695 . S
O182 Pr161 2.436 . S
O182 C169 1.270 1_554 S
O183 Pr160 2.512 1_556 S
O183 C169 1.248 . S
O184 Pr161 2.438 . S
O184 C170 1.267 . S
O185 Pr160 2.437 . S
O185 C170 1.278 . S
O186 Pr161 2.562 . S
O186 C171 1.254 . S
O187 Pr161 2.490 . S
O187 C171 1.225 . S
O188 Pr160 2.436 . S
O188 Pr161 2.695 . S
O188 C178 1.270 . S
O189 Pr161 2.512 . S
O189 C178 1.248 . S
O190 Pr160 2.438 . S
O190 C179 1.267 . S
O191 Pr161 2.437 . S
O191 C179 1.278 . S
H192 C164 0.929 . S
H193 C165 0.929 . S
H194 C167 0.931 . S
H195 C168 0.930 . S
H196 C173 0.929 . S
H197 C174 0.929 . S
H198 C176 0.931 . S
H199 C177 0.930 . S
Pr200 C202 2.887 . S
Pr200 O220 2.562 . S
Pr200 O221 2.490 . S
Pr200 O222 2.695 . S
Pr200 O223 2.512 . S
Pr200 O225 2.437 . S
Pr200 O228 2.436 . S
Pr200 O230 2.438 . S
Pr201 C211 2.880 . S
Pr201 O222 2.436 . S
Pr201 O224 2.438 . S
Pr201 O226 2.562 . S
Pr201 O227 2.490 . S
Pr201 O228 2.695 . S
Pr201 O229 2.512 . S
Pr201 O231 2.437 . S
C202 Pr200 2.887 . S
C202 C203 1.484 1_655 S
C202 O220 1.257 . S
C202 O221 1.228 . S
C203 C202 1.484 1_455 S
C203 C204 1.392 . S
C203 C208 1.356 . S
C204 C203 1.392 . S
C204 C205 1.368 . S
C204 H232 0.929 . S
C205 C204 1.368 . S
C205 C206 1.386 . S
C205 H233 0.929 . S
C206 C205 1.386 . S
C206 C207 1.373 . S
C207 C206 1.373 . S
C207 C208 1.409 . S
C207 H234 0.931 . S
C208 C203 1.356 . S
C208 C207 1.409 . S
C208 H235 0.930 . S
C209 O222 1.270 . S
C209 O223 1.248 . S
C210 O224 1.267 . S
C210 O225 1.278 . S
C211 Pr201 2.880 . S
C211 C212 1.491 . S
C211 O226 1.254 . S
C211 O227 1.225 . S
C212 C211 1.491 . S
C212 C213 1.392 . S
C212 C217 1.356 . S
C213 C212 1.392 . S
C213 C214 1.368 . S
C213 H236 0.929 . S
C214 C213 1.368 . S
C214 C215 1.386 . S
C214 H237 0.929 . S
C215 C214 1.386 . S
C215 C216 1.373 . S
C216 C215 1.373 . S
C216 C217 1.409 . S
C216 H238 0.931 1_554 S
C217 C212 1.356 . S
C217 C216 1.409 . S
C217 H239 0.930 . S
C218 O228 1.270 . S
C218 O229 1.248 . S
C219 O230 1.267 . S
C219 O231 1.278 . S
O220 Pr200 2.562 . S
O220 C202 1.257 . S
O221 Pr200 2.490 . S
O221 C202 1.228 . S
O222 Pr200 2.695 . S
O222 Pr201 2.436 . S
O222 C209 1.270 . S
O223 Pr200 2.512 . S
O223 C209 1.248 . S
O224 Pr201 2.438 . S
O224 C210 1.267 . S
O225 Pr200 2.437 . S
O225 C210 1.278 . S
O226 Pr201 2.562 . S
O226 C211 1.254 . S
O227 Pr201 2.490 . S
O227 C211 1.225 . S
O228 Pr200 2.436 . S
O228 Pr201 2.695 . S
O228 C218 1.270 . S
O229 Pr201 2.512 . S
O229 C218 1.248 . S
O230 Pr200 2.438 . S
O230 C219 1.267 . S
O231 Pr201 2.437 . S
O231 C219 1.278 . S
H232 C204 0.929 . S
H233 C205 0.929 . S
H234 C207 0.931 . S
H235 C208 0.930 . S
H236 C213 0.929 . S
H237 C214 0.929 . S
H238 C216 0.931 1_556 S
H239 C217 0.930 . S
Pr240 C242 2.880 . S
Pr240 O260 2.562 . S
Pr240 O261 2.490 . S
Pr240 O262 2.695 . S
Pr240 O263 2.512 . S
Pr240 O265 2.437 . S
Pr240 O268 2.436 . S
Pr240 O270 2.438 . S
Pr241 C251 2.880 . S
Pr241 O262 2.436 . S
Pr241 O264 2.438 . S
Pr241 O266 2.562 . S
Pr241 O267 2.490 . S
Pr241 O268 2.695 . S
Pr241 O269 2.512 . S
Pr241 O271 2.437 . S
C242 Pr240 2.880 . S
C242 C243 1.491 . S
C242 O260 1.254 . S
C242 O261 1.225 . S
C243 C242 1.491 . S
C243 C244 1.392 . S
C243 C248 1.356 . S
C244 C243 1.392 . S
C244 C245 1.368 . S
C244 H272 0.929 . S
C245 C244 1.368 . S
C245 C246 1.386 . S
C245 H273 0.929 . S
C246 C245 1.386 . S
C246 C247 1.373 . S
C247 C246 1.373 . S
C247 C248 1.409 . S
C247 H274 0.931 . S
C248 C243 1.356 . S
C248 C247 1.409 . S
C248 H275 0.930 . S
C249 O262 1.270 . S
C249 O263 1.248 . S
C250 O264 1.267 . S
C250 O265 1.278 . S
C251 Pr241 2.880 . S
C251 C252 1.491 . S
C251 O266 1.254 . S
C251 O267 1.225 . S
C252 C251 1.491 . S
C252 C253 1.392 . S
C252 C257 1.356 . S
C253 C252 1.392 . S
C253 C254 1.368 . S
C253 H276 0.929 . S
C254 C253 1.368 . S
C254 C255 1.386 . S
C254 H277 0.929 . S
C255 C254 1.386 . S
C255 C256 1.373 . S
C256 C255 1.373 . S
C256 C257 1.409 . S
C256 H278 0.931 . S
C257 C252 1.356 . S
C257 C256 1.409 . S
C257 H279 0.930 . S
C258 O268 1.270 . S
C258 O269 1.248 . S
C259 O270 1.267 . S
C259 O271 1.278 . S
O260 Pr240 2.562 . S
O260 C242 1.254 . S
O261 Pr240 2.490 . S
O261 C242 1.225 . S
O262 Pr240 2.695 . S
O262 Pr241 2.436 . S
O262 C249 1.270 . S
O263 Pr240 2.512 . S
O263 C249 1.248 . S
O264 Pr241 2.438 . S
O264 C250 1.267 . S
O265 Pr240 2.437 . S
O265 C250 1.278 . S
O266 Pr241 2.562 . S
O266 C251 1.254 . S
O267 Pr241 2.490 . S
O267 C251 1.225 . S
O268 Pr240 2.436 . S
O268 Pr241 2.695 . S
O268 C258 1.270 . S
O269 Pr241 2.512 . S
O269 C258 1.248 . S
O270 Pr240 2.438 . S
O270 C259 1.267 . S
O271 Pr241 2.437 . S
O271 C259 1.278 . S
H272 C244 0.929 . S
H273 C245 0.929 . S
H274 C247 0.931 . S
H275 C248 0.930 . S
H276 C253 0.929 . S
H277 C254 0.929 . S
H278 C256 0.931 . S
H279 C257 0.930 . S
Pr280 C282 2.880 . S
Pr280 O300 2.562 . S
Pr280 O301 2.490 . S
Pr280 O302 2.695 . S
Pr280 O303 2.512 . S
Pr280 O305 2.437 . S
Pr280 O308 2.436 . S
Pr280 O310 2.438 . S
Pr281 C291 2.880 . S
Pr281 O302 2.436 . S
Pr281 O304 2.438 . S
Pr281 O306 2.562 . S
Pr281 O307 2.490 . S
Pr281 O308 2.695 . S
Pr281 O309 2.512 . S
Pr281 O311 2.437 . S
C282 Pr280 2.880 . S
C282 C283 1.491 . S
C282 O300 1.254 . S
C282 O301 1.225 . S
C283 C282 1.491 . S
C283 C284 1.392 . S
C283 C288 1.356 . S
C284 C283 1.392 . S
C284 C285 1.368 . S
C284 H312 0.929 . S
C285 C284 1.368 . S
C285 C286 1.386 . S
C285 H313 0.929 . S
C286 C285 1.386 . S
C286 C287 1.373 . S
C287 C286 1.373 . S
C287 C288 1.409 . S
C287 H314 0.931 . S
C288 C283 1.356 . S
C288 C287 1.409 . S
C288 H315 0.930 . S
C289 O302 1.270 . S
C289 O303 1.248 . S
C290 O304 1.267 . S
C290 O305 1.278 . S
C291 Pr281 2.880 . S
C291 C292 1.491 . S
C291 O306 1.254 . S
C291 O307 1.225 . S
C292 C291 1.491 . S
C292 C293 1.392 . S
C292 C297 1.356 . S
C293 C292 1.392 . S
C293 C294 1.368 . S
C293 H316 0.929 . S
C294 C293 1.368 . S
C294 C295 1.386 . S
C294 H317 0.929 . S
C295 C294 1.386 . S
C295 C296 1.373 . S
C296 C295 1.373 . S
C296 C297 1.409 . S
C296 H318 0.931 . S
C297 C292 1.356 . S
C297 C296 1.409 . S
C297 H319 0.930 . S
C298 O308 1.270 . S
C298 O309 1.248 . S
C299 O310 1.267 . S
C299 O311 1.278 . S
O300 Pr280 2.562 . S
O300 C282 1.254 . S
O301 Pr280 2.490 . S
O301 C282 1.225 . S
O302 Pr280 2.695 . S
O302 Pr281 2.436 . S
O302 C289 1.270 . S
O303 Pr280 2.512 . S
O303 C289 1.248 . S
O304 Pr281 2.438 . S
O304 C290 1.267 . S
O305 Pr280 2.437 . S
O305 C290 1.278 . S
O306 Pr281 2.562 . S
O306 C291 1.254 . S
O307 Pr281 2.490 . S
O307 C291 1.225 . S
O308 Pr280 2.436 . S
O308 Pr281 2.695 . S
O308 C298 1.270 . S
O309 Pr281 2.512 . S
O309 C298 1.248 . S
O310 Pr280 2.438 . S
O310 C299 1.267 . S
O311 Pr281 2.437 . S
O311 C299 1.278 . S
H312 C284 0.929 . S
H313 C285 0.929 . S
H314 C287 0.931 . S
H315 C288 0.930 . S
H316 C293 0.929 . S
H317 C294 0.929 . S
H318 C296 0.931 . S
H319 C297 0.930 . S
Pr320 C322 2.880 . S
Pr320 O340 2.562 . S
Pr320 O341 2.490 . S
Pr320 O342 2.695 . S
Pr320 O343 2.512 . S
Pr320 O345 2.437 . S
Pr320 O348 2.436 . S
Pr320 O350 2.438 . S
Pr321 C331 2.880 . S
Pr321 O342 2.436 . S
Pr321 O344 2.438 . S
Pr321 O346 2.562 . S
Pr321 O347 2.490 . S
Pr321 O348 2.695 . S
Pr321 O349 2.512 . S
Pr321 O351 2.437 . S
C322 Pr320 2.880 . S
C322 C323 1.491 . S
C322 O340 1.254 . S
C322 O341 1.225 . S
C323 C322 1.491 . S
C323 C324 1.392 . S
C323 C328 1.356 . S
C324 C323 1.392 . S
C324 C325 1.368 . S
C324 H352 0.929 . S
C325 C324 1.368 . S
C325 C326 1.386 . S
C325 H353 0.929 . S
C326 C325 1.386 . S
C326 C327 1.373 . S
C327 C326 1.373 . S
C327 C328 1.409 . S
C327 H354 0.931 . S
C328 C323 1.356 . S
C328 C327 1.409 . S
C328 H355 0.930 . S
C329 O342 1.270 . S
C329 O343 1.248 . S
C330 O344 1.267 . S
C330 O345 1.278 . S
C331 Pr321 2.880 . S
C331 C332 1.491 . S
C331 O346 1.254 . S
C331 O347 1.225 . S
C332 C331 1.491 . S
C332 C333 1.392 . S
C332 C337 1.356 . S
C333 C332 1.392 . S
C333 C334 1.368 . S
C333 H356 0.929 . S
C334 C333 1.368 . S
C334 C335 1.386 . S
C334 H357 0.929 . S
C335 C334 1.386 . S
C335 C336 1.373 . S
C336 C335 1.373 . S
C336 C337 1.409 . S
C336 H358 0.931 . S
C337 C332 1.356 . S
C337 C336 1.409 . S
C337 H359 0.930 . S
C338 O348 1.270 . S
C338 O349 1.248 . S
C339 O350 1.267 . S
C339 O351 1.278 . S
O340 Pr320 2.562 . S
O340 C322 1.254 . S
O341 Pr320 2.490 . S
O341 C322 1.225 . S
O342 Pr320 2.695 . S
O342 Pr321 2.436 . S
O342 C329 1.270 . S
O343 Pr320 2.512 . S
O343 C329 1.248 . S
O344 Pr321 2.438 . S
O344 C330 1.267 . S
O345 Pr320 2.437 . S
O345 C330 1.278 . S
O346 Pr321 2.562 . S
O346 C331 1.254 . S
O347 Pr321 2.490 . S
O347 C331 1.225 . S
O348 Pr320 2.436 . S
O348 Pr321 2.695 . S
O348 C338 1.270 . S
O349 Pr321 2.512 . S
O349 C338 1.248 . S
O350 Pr320 2.438 . S
O350 C339 1.267 . S
O351 Pr321 2.437 . S
O351 C339 1.278 . S
H352 C324 0.929 . S
H353 C325 0.929 . S
H354 C327 0.931 . S
H355 C328 0.930 . S
H356 C333 0.929 . S
H357 C334 0.929 . S
H358 C336 0.931 . S
H359 C337 0.930 . S
H360 C366 0.930 . S
H361 C370 0.930 . S
H362 C375 0.929 . S
H363 C373 0.929 . S
H364 C368 0.929 1_554 S
H365 C374 0.929 . S
C366 H360 0.930 . S
C366 C367 1.367 1_556 S
C366 C374 1.378 . S
C367 C366 1.367 1_554 S
C367 C375 1.433 . S
C368 H364 0.929 1_556 S
C368 C370 1.378 . S
C368 C372 1.350 . S
C369 C372 1.463 . S
C369 C374 1.350 . S
C369 N377 1.427 1_556 S
C370 H361 0.930 . S
C370 C368 1.378 . S
C370 C371 1.367 . S
C371 C370 1.367 . S
C371 C373 1.433 . S
C372 C368 1.350 . S
C372 C369 1.463 . S
C372 N376 1.427 . S
C373 H363 0.929 . S
C373 C371 1.433 . S
C373 N376 1.384 . S
C374 H365 0.929 . S
C374 C366 1.378 . S
C374 C369 1.350 . S
C375 H362 0.929 . S
C375 C367 1.433 . S
C375 N377 1.384 . S
N376 C372 1.427 . S
N376 C373 1.384 . S
N377 C369 1.427 1_554 S
N377 C375 1.384 . S
H378 C384 0.930 . S
H379 C388 0.930 . S
H380 C393 0.929 . S
H381 C391 0.929 . S
H382 C386 0.929 . S
H383 C392 0.929 . S
C384 H378 0.930 . S
C384 C385 1.367 1_554 S
C384 C392 1.378 . S
C385 C384 1.367 1_556 S
C385 C393 1.433 . S
C386 H382 0.929 . S
C386 C388 1.378 . S
C386 C390 1.350 . S
C387 C390 1.463 . S
C387 C392 1.350 1_556 S
C387 N395 1.427 . S
C388 H379 0.930 . S
C388 C386 1.378 . S
C388 C389 1.367 . S
C389 C388 1.367 . S
C389 C391 1.433 . S
C390 C386 1.350 . S
C390 C387 1.463 . S
C390 N394 1.427 . S
C391 H381 0.929 . S
C391 C389 1.433 . S
C391 N394 1.384 . S
C392 H383 0.929 . S
C392 C384 1.378 . S
C392 C387 1.350 1_554 S
C393 H380 0.929 . S
C393 C385 1.433 . S
C393 N395 1.384 . S
N394 C390 1.427 . S
N394 C391 1.384 . S
N395 C387 1.427 . S
N395 C393 1.384 . S
H396 C402 0.930 . S
H397 C406 0.930 . S
H398 C411 0.929 1_554 S
H399 C409 0.929 . S
H400 C404 0.929 . S
H401 C410 0.929 . S
C402 H396 0.930 . S
C402 C403 1.367 . S
C402 C410 1.378 . S
C403 C402 1.367 . S
C403 C411 1.433 . S
C404 H400 0.929 . S
C404 C406 1.378 . S
C404 C408 1.350 . S
C405 C408 1.463 . S
C405 C410 1.350 . S
C405 N413 1.427 . S
C406 H397 0.930 . S
C406 C404 1.378 . S
C406 C407 1.367 . S
C407 C406 1.367 . S
C407 C409 1.433 . S
C408 C404 1.350 . S
C408 C405 1.463 . S
C408 N412 1.427 . S
C409 H399 0.929 . S
C409 C407 1.433 . S
C409 N412 1.384 . S
C410 H401 0.929 . S
C410 C402 1.378 . S
C410 C405 1.350 . S
C411 H398 0.929 1_556 S
C411 C403 1.433 . S
C411 N413 1.384 . S
N412 C408 1.427 . S
N412 C409 1.384 . S
N413 C405 1.427 . S
N413 C411 1.384 . S
H414 C420 0.930 1_556 S
H415 C424 0.930 . S
H416 C429 0.929 . S
H417 C427 0.929 . S
H418 C422 0.929 . S
H419 C428 0.929 1_556 S
C420 H414 0.930 1_554 S
C420 C421 1.367 . S
C420 C428 1.378 . S
C421 C420 1.367 . S
C421 C429 1.433 . S
C422 H418 0.929 . S
C422 C424 1.378 . S
C422 C426 1.350 . S
C423 C426 1.463 . S
C423 C428 1.350 . S
C423 N431 1.427 . S
C424 H415 0.930 . S
C424 C422 1.378 . S
C424 C425 1.367 . S
C425 C424 1.367 . S
C425 C427 1.433 1_554 S
C426 C422 1.350 . S
C426 C423 1.463 . S
C426 N430 1.427 1_554 S
C427 H417 0.929 . S
C427 C425 1.433 1_556 S
C427 N430 1.384 . S
C428 H419 0.929 1_554 S
C428 C420 1.378 . S
C428 C423 1.350 . S
C429 H416 0.929 . S
C429 C421 1.433 . S
C429 N431 1.384 . S
N430 C426 1.427 1_556 S
N430 C427 1.384 . S
N431 C423 1.427 . S
N431 C429 1.384 . S
H432 C438 0.930 . S
H433 C442 0.930 . S
H434 C447 0.929 . S
H435 C445 0.929 . S
H436 C440 0.929 . S
H437 C446 0.929 . S
C438 H432 0.930 . S
C438 C439 1.367 . S
C438 C446 1.378 . S
C439 C438 1.367 . S
C439 C447 1.433 . S
C440 H436 0.929 . S
C440 C442 1.378 . S
C440 C444 1.350 1_455 S
C441 C444 1.463 . S
C441 C446 1.350 . S
C441 N449 1.427 . S
C442 H433 0.930 . S
C442 C440 1.378 . S
C442 C443 1.367 1_455 S
C443 C442 1.367 1_655 S
C443 C445 1.433 . S
C444 C440 1.350 1_655 S
C444 C441 1.463 . S
C444 N448 1.427 . S
C445 H435 0.929 . S
C445 C443 1.433 . S
C445 N448 1.384 . S
C446 H437 0.929 . S
C446 C438 1.378 . S
C446 C441 1.350 . S
C447 H434 0.929 . S
C447 C439 1.433 . S
C447 N449 1.384 . S
N448 C444 1.427 . S
N448 C445 1.384 . S
N449 C441 1.427 . S
N449 C447 1.384 . S
H450 C456 0.930 . S
H451 C460 0.930 . S
H452 C465 0.929 . S
H453 C463 0.929 . S
H454 C458 0.929 . S
H455 C464 0.929 . S
C456 H450 0.930 . S
C456 C457 1.367 . S
C456 C464 1.378 . S
C457 C456 1.367 . S
C457 C465 1.433 . S
C458 H454 0.929 . S
C458 C460 1.378 . S
C458 C462 1.350 . S
C459 C462 1.463 . S
C459 C464 1.350 . S
C459 N467 1.427 . S
C460 H451 0.930 . S
C460 C458 1.378 . S
C460 C461 1.367 . S
C461 C460 1.367 . S
C461 C463 1.433 . S
C462 C458 1.350 . S
C462 C459 1.463 . S
C462 N466 1.427 . S
C463 H453 0.929 . S
C463 C461 1.433 . S
C463 N466 1.384 . S
C464 H455 0.929 . S
C464 C456 1.378 . S
C464 C459 1.350 . S
C465 H452 0.929 . S
C465 C457 1.433 . S
C465 N467 1.384 . S
N466 C462 1.427 . S
N466 C463 1.384 . S
N467 C459 1.427 . S
N467 C465 1.384 . S
H468 C474 0.930 . S
H469 C478 0.930 . S
H470 C483 0.929 . S
H471 C481 0.929 . S
H472 C476 0.929 . S
H473 C482 0.929 . S
C474 H468 0.930 . S
C474 C475 1.367 . S
C474 C482 1.378 . S
C475 C474 1.367 . S
C475 C483 1.433 . S
C476 H472 0.929 . S
C476 C478 1.378 . S
C476 C480 1.350 . S
C477 C480 1.463 . S
C477 C482 1.350 . S
C477 N485 1.427 . S
C478 H469 0.930 . S
C478 C476 1.378 . S
C478 C479 1.367 . S
C479 C478 1.367 . S
C479 C481 1.433 . S
C480 C476 1.350 . S
C480 C477 1.463 . S
C480 N484 1.427 . S
C481 H471 0.929 . S
C481 C479 1.433 . S
C481 N484 1.384 . S
C482 H473 0.929 . S
C482 C474 1.378 . S
C482 C477 1.350 . S
C483 H470 0.929 . S
C483 C475 1.433 . S
C483 N485 1.384 . S
N484 C480 1.427 . S
N484 C481 1.384 . S
N485 C477 1.427 . S
N485 C483 1.384 . S
H486 C492 0.930 . S
H487 C496 0.930 . S
H488 C501 0.929 . S
H489 C499 0.929 . S
H490 C494 0.929 . S
H491 C500 0.929 . S
C492 H486 0.930 . S
C492 C493 1.367 . S
C492 C500 1.378 . S
C493 C492 1.367 . S
C493 C501 1.433 . S
C494 H490 0.929 . S
C494 C496 1.378 . S
C494 C498 1.350 . S
C495 C498 1.463 . S
C495 C500 1.350 . S
C495 N503 1.427 . S
C496 H487 0.930 . S
C496 C494 1.378 . S
C496 C497 1.367 . S
C497 C496 1.367 . S
C497 C499 1.433 . S
C498 C494 1.350 . S
C498 C495 1.463 . S
C498 N502 1.427 . S
C499 H489 0.929 . S
C499 C497 1.433 . S
C499 N502 1.384 . S
C500 H491 0.929 . S
C500 C492 1.378 . S
C500 C495 1.350 . S
C501 H488 0.929 . S
C501 C493 1.433 . S
C501 N503 1.384 . S
N502 C498 1.427 . S
N502 C499 1.384 . S
N503 C495 1.427 . S
N503 C501 1.384 . S
H504 C510 0.930 . S
H505 C514 0.930 . S
H506 C519 0.929 . S
H507 C517 0.929 . S
H508 C512 0.929 . S
H509 C518 0.929 . S
C510 H504 0.930 . S
C510 C511 1.367 . S
C510 C518 1.378 . S
C511 C510 1.367 . S
C511 C519 1.433 . S
C512 H508 0.929 . S
C512 C514 1.378 . S
C512 C516 1.350 . S
C513 C516 1.463 . S
C513 C518 1.350 . S
C513 N521 1.427 . S
C514 H505 0.930 . S
C514 C512 1.378 . S
C514 C515 1.367 . S
C515 C514 1.367 . S
C515 C517 1.433 1_545 S
C516 C512 1.350 . S
C516 C513 1.463 . S
C516 N520 1.427 . S
C517 H507 0.929 . S
C517 C515 1.433 1_565 S
C517 N520 1.384 1_565 S
C518 H509 0.929 . S
C518 C510 1.378 . S
C518 C513 1.350 . S
C519 H506 0.929 . S
C519 C511 1.433 . S
C519 N521 1.384 . S
N520 C516 1.427 . S
N520 C517 1.384 1_545 S
N521 C513 1.427 . S
N521 C519 1.384 . S
H522 C528 0.930 . S
H523 C532 0.930 . S
H524 C537 0.929 . S
H525 C535 0.929 . S
H526 C530 0.929 . S
H527 C536 0.929 . S
C528 H522 0.930 . S
C528 C529 1.367 1_556 S
C528 C536 1.378 . S
C529 C528 1.367 1_554 S
C529 C537 1.433 . S
C530 H526 0.929 . S
C530 C532 1.378 . S
C530 C534 1.350 . S
C531 C534 1.463 . S
C531 C536 1.350 1_554 S
C531 N539 1.427 . S
C532 H523 0.930 . S
C532 C530 1.378 . S
C532 C533 1.367 . S
C533 C532 1.367 . S
C533 C535 1.433 1_554 S
C534 C530 1.350 . S
C534 C531 1.463 . S
C534 N538 1.427 1_554 S
C535 H525 0.929 . S
C535 C533 1.433 1_556 S
C535 N538 1.384 . S
C536 H527 0.929 . S
C536 C528 1.378 . S
C536 C531 1.350 1_556 S
C537 H524 0.929 . S
C537 C529 1.433 . S
C537 N539 1.384 . S
N538 C534 1.427 1_556 S
N538 C535 1.384 . S
N539 C531 1.427 . S
N539 C537 1.384 . S
H540 C546 0.930 . S
H541 C550 0.930 . S
H542 C555 0.929 . S
H543 C553 0.929 1_556 S
H544 C548 0.929 . S
H545 C554 0.929 1_556 S
C546 H540 0.930 . S
C546 C547 1.367 1_556 S
C546 C554 1.378 1_556 S
C547 C546 1.367 1_554 S
C547 C555 1.433 . S
C548 H544 0.929 . S
C548 C550 1.378 . S
C548 C552 1.350 . S
C549 C552 1.463 1_565 S
C549 C554 1.350 . S
C549 N557 1.427 . S
C550 H541 0.930 . S
C550 C548 1.378 . S
C550 C551 1.367 . S
C551 C550 1.367 . S
C551 C553 1.433 . S
C552 C548 1.350 . S
C552 C549 1.463 1_545 S
C552 N556 1.427 . S
C553 H543 0.929 1_554 S
C553 C551 1.433 . S
C553 N556 1.384 . S
C554 H545 0.929 1_554 S
C554 C546 1.378 1_554 S
C554 C549 1.350 . S
C555 H542 0.929 . S
C555 C547 1.433 . S
C555 N557 1.384 . S
N556 C552 1.427 . S
N556 C553 1.384 . S
N557 C549 1.427 . S
N557 C555 1.384 . S
H558 C564 0.930 . S
H559 C568 0.930 . S
H560 C573 0.929 . S
H561 C571 0.929 1_556 S
H562 C566 0.929 . S
H563 C572 0.929 1_556 S
C564 H558 0.930 . S
C564 C565 1.367 1_455 S
C564 C572 1.378 . S
C565 C564 1.367 1_655 S
C565 C573 1.433 . S
C566 H562 0.929 . S
C566 C568 1.378 . S
C566 C570 1.350 . S
C567 C570 1.463 . S
C567 C572 1.350 . S
C567 N575 1.427 . S
C568 H559 0.930 . S
C568 C566 1.378 . S
C568 C569 1.367 . S
C569 C568 1.367 . S
C569 C571 1.433 . S
C570 C566 1.350 . S
C570 C567 1.463 . S
C570 N574 1.427 . S
C571 H561 0.929 1_554 S
C571 C569 1.433 . S
C571 N574 1.384 . S
C572 H563 0.929 1_554 S
C572 C564 1.378 . S
C572 C567 1.350 . S
C573 H560 0.929 . S
C573 C565 1.433 . S
C573 N575 1.384 1_655 S
N574 C570 1.427 . S
N574 C571 1.384 . S
N575 C567 1.427 . S
N575 C573 1.384 1_455 S
H576 C582 0.930 . S
H577 C586 0.930 . S
H578 C591 0.929 . S
H579 C589 0.929 . S
H580 C584 0.929 . S
H581 C590 0.929 . S
C582 H576 0.930 . S
C582 C583 1.367 . S
C582 C590 1.378 . S
C583 C582 1.367 . S
C583 C591 1.433 . S
C584 H580 0.929 . S
C584 C586 1.378 . S
C584 C588 1.350 . S
C585 C588 1.463 . S
C585 C590 1.350 . S
C585 N593 1.427 . S
C586 H577 0.930 . S
C586 C584 1.378 . S
C586 C587 1.367 . S
C587 C586 1.367 . S
C587 C589 1.433 . S
C588 C584 1.350 . S
C588 C585 1.463 . S
C588 N592 1.427 . S
C589 H579 0.929 . S
C589 C587 1.433 . S
C589 N592 1.384 . S
C590 H581 0.929 . S
C590 C582 1.378 . S
C590 C585 1.350 . S
C591 H578 0.929 . S
C591 C583 1.433 . S
C591 N593 1.384 . S
N592 C588 1.427 . S
N592 C589 1.384 . S
N593 C585 1.427 . S
N593 C591 1.384 . S
H594 C600 0.930 . S
H595 C604 0.930 . S
H596 C609 0.929 . S
H597 C607 0.929 1_556 S
H598 C602 0.929 . S
H599 C608 0.929 . S
C600 H594 0.930 . S
C600 C601 1.367 . S
C600 C608 1.378 . S
C601 C600 1.367 . S
C601 C609 1.433 . S
C602 H598 0.929 . S
C602 C604 1.378 . S
C602 C606 1.350 . S
C603 C606 1.463 . S
C603 C608 1.350 . S
C603 N611 1.427 . S
C604 H595 0.930 . S
C604 C602 1.378 . S
C604 C605 1.367 . S
C605 C604 1.367 . S
C605 C607 1.433 . S
C606 C602 1.350 . S
C606 C603 1.463 . S
C606 N610 1.427 . S
C607 H597 0.929 1_554 S
C607 C605 1.433 . S
C607 N610 1.384 . S
C608 H599 0.929 . S
C608 C600 1.378 . S
C608 C603 1.350 . S
C609 H596 0.929 . S
C609 C601 1.433 . S
C609 N611 1.384 . S
N610 C606 1.427 . S
N610 C607 1.384 . S
N611 C603 1.427 . S
N611 C609 1.384 . S
H612 C618 0.930 . S
H613 C622 0.930 1_556 S
H614 C627 0.929 . S
H615 C625 0.929 . S
H616 C620 0.929 1_556 S
H617 C626 0.929 . S
C618 H612 0.930 . S
C618 C619 1.367 . S
C618 C626 1.378 . S
C619 C618 1.367 . S
C619 C627 1.433 . S
C620 H616 0.929 1_554 S
C620 C622 1.378 . S
C620 C624 1.350 . S
C621 C624 1.463 . S
C621 C626 1.350 . S
C621 N629 1.427 . S
C622 H613 0.930 1_554 S
C622 C620 1.378 . S
C622 C623 1.367 . S
C623 C622 1.367 . S
C623 C625 1.433 . S
C624 C620 1.350 . S
C624 C621 1.463 . S
C624 N628 1.427 . S
C625 H615 0.929 . S
C625 C623 1.433 . S
C625 N628 1.384 . S
C626 H617 0.929 . S
C626 C618 1.378 . S
C626 C621 1.350 . S
C627 H614 0.929 . S
C627 C619 1.433 . S
C627 N629 1.384 . S
N628 C624 1.427 . S
N628 C625 1.384 . S
N629 C621 1.427 . S
N629 C627 1.384 . S
H630 C636 0.930 . S
H631 C640 0.930 . S
H632 C645 0.929 . S
H633 C643 0.929 . S
H634 C638 0.929 . S
H635 C644 0.929 . S
C636 H630 0.930 . S
C636 C637 1.367 . S
C636 C644 1.378 . S
C637 C636 1.367 . S
C637 C645 1.433 . S
C638 H634 0.929 . S
C638 C640 1.378 . S
C638 C642 1.350 . S
C639 C642 1.463 . S
C639 C644 1.350 . S
C639 N647 1.427 . S
C640 H631 0.930 . S
C640 C638 1.378 . S
C640 C641 1.367 . S
C641 C640 1.367 . S
C641 C643 1.433 . S
C642 C638 1.350 . S
C642 C639 1.463 . S
C642 N646 1.427 . S
C643 H633 0.929 . S
C643 C641 1.433 . S
C643 N646 1.384 . S
C644 H635 0.929 . S
C644 C636 1.378 . S
C644 C639 1.350 . S
C645 H632 0.929 . S
C645 C637 1.433 . S
C645 N647 1.384 . S
N646 C642 1.427 . S
N646 C643 1.384 . S
N647 C639 1.427 . S
N647 C645 1.384 . S
H648 C654 0.930 . S
H649 C658 0.930 . S
H650 C663 0.929 . S
H651 C661 0.929 . S
H652 C656 0.929 . S
H653 C662 0.929 . S
C654 H648 0.930 . S
C654 C655 1.367 . S
C654 C662 1.378 . S
C655 C654 1.367 . S
C655 C663 1.433 . S
C656 H652 0.929 . S
C656 C658 1.378 . S
C656 C660 1.350 . S
C657 C660 1.463 . S
C657 C662 1.350 . S
C657 N665 1.427 . S
C658 H649 0.930 . S
C658 C656 1.378 . S
C658 C659 1.367 . S
C659 C658 1.367 . S
C659 C661 1.433 . S
C660 C656 1.350 . S
C660 C657 1.463 . S
C660 N664 1.427 . S
C661 H651 0.929 . S
C661 C659 1.433 . S
C661 N664 1.384 . S
C662 H653 0.929 . S
C662 C654 1.378 . S
C662 C657 1.350 . S
C663 H650 0.929 . S
C663 C655 1.433 . S
C663 N665 1.384 . S
N664 C660 1.427 . S
N664 C661 1.384 . S
N665 C657 1.427 . S
N665 C663 1.384 . S
H666 C672 0.930 . S
H667 C676 0.930 . S
H668 C681 0.929 . S
H669 C679 0.929 . S
H670 C674 0.929 . S
H671 C680 0.929 . S
C672 H666 0.930 . S
C672 C673 1.367 . S
C672 C680 1.378 . S
C673 C672 1.367 . S
C673 C681 1.433 . S
C674 H670 0.929 . S
C674 C676 1.378 . S
C674 C678 1.350 . S
C675 C678 1.463 . S
C675 C680 1.350 . S
C675 N683 1.427 . S
C676 H667 0.930 . S
C676 C674 1.378 . S
C676 C677 1.367 . S
C677 C676 1.367 . S
C677 C679 1.433 . S
C678 C674 1.350 . S
C678 C675 1.463 . S
C678 N682 1.427 . S
C679 H669 0.929 . S
C679 C677 1.433 . S
C679 N682 1.384 . S
C680 H671 0.929 . S
C680 C672 1.378 . S
C680 C675 1.350 . S
C681 H668 0.929 . S
C681 C673 1.433 . S
C681 N683 1.384 . S
N682 C678 1.427 . S
N682 C679 1.384 . S
N683 C675 1.427 . S
N683 C681 1.384 . S
H684 C690 0.909 1_655 S
H685 C694 0.930 . S
H686 C699 0.929 . S
H687 C697 0.929 . S
H688 C692 0.929 . S
H689 C698 0.929 . S
C690 H684 0.909 1_455 S
C690 C691 1.367 . S
C690 C698 1.378 . S
C691 C690 1.367 . S
C691 C699 1.433 . S
C692 H688 0.929 . S
C692 C694 1.378 . S
C692 C696 1.350 . S
C693 C696 1.463 . S
C693 C698 1.350 . S
C693 N701 1.427 . S
C694 H685 0.930 . S
C694 C692 1.378 . S
C694 C695 1.367 . S
C695 C694 1.367 . S
C695 C697 1.433 . S
C696 C692 1.350 . S
C696 C693 1.463 . S
C696 N700 1.427 . S
C697 H687 0.929 . S
C697 C695 1.433 . S
C697 N700 1.384 . S
C698 H689 0.929 . S
C698 C690 1.378 . S
C698 C693 1.350 . S
C699 H686 0.929 . S
C699 C691 1.433 . S
C699 N701 1.384 . S
N700 C696 1.427 . S
N700 C697 1.384 . S
N701 C693 1.427 . S
N701 C699 1.384 . S
H702 C708 0.930 . S
H703 C712 0.930 . S
H704 C717 0.929 . S
H705 C715 0.929 . S
H706 C710 0.929 . S
H707 C716 0.929 . S
C708 H702 0.930 . S
C708 C709 1.367 . S
C708 C716 1.378 . S
C709 C708 1.367 . S
C709 C717 1.433 . S
C710 H706 0.929 . S
C710 C712 1.378 . S
C710 C714 1.350 . S
C711 C714 1.463 . S
C711 C716 1.350 . S
C711 N719 1.427 . S
C712 H703 0.930 . S
C712 C710 1.378 . S
C712 C713 1.367 . S
C713 C712 1.367 . S
C713 C715 1.433 . S
C714 C710 1.350 . S
C714 C711 1.463 . S
C714 N718 1.427 . S
C715 H705 0.929 . S
C715 C713 1.433 . S
C715 N718 1.384 . S
C716 H707 0.929 . S
C716 C708 1.378 . S
C716 C711 1.350 . S
C717 H704 0.929 . S
C717 C709 1.433 . S
C717 N719 1.384 . S
N718 C714 1.427 . S
N718 C715 1.384 . S
N719 C711 1.427 . S
N719 C717 1.384 . S
H720 C726 0.930 . S
H721 C730 0.930 . S
H722 C735 0.929 . S
H723 C733 0.929 . S
H724 C728 0.929 . S
H725 C734 0.929 . S
C726 H720 0.930 . S
C726 C727 1.367 . S
C726 C734 1.378 . S
C727 C726 1.367 . S
C727 C735 1.433 1_545 S
C728 H724 0.929 . S
C728 C730 1.378 . S
C728 C732 1.350 1_565 S
C729 C732 1.463 . S
C729 C734 1.350 . S
C729 N737 1.427 1_545 S
C730 H721 0.930 . S
C730 C728 1.378 . S
C730 C731 1.367 1_565 S
C731 C730 1.367 1_545 S
C731 C733 1.433 . S
C732 C728 1.350 1_545 S
C732 C729 1.463 . S
C732 N736 1.427 . S
C733 H723 0.929 . S
C733 C731 1.433 . S
C733 N736 1.384 . S
C734 H725 0.929 . S
C734 C726 1.378 . S
C734 C729 1.350 . S
C735 H722 0.929 . S
C735 C727 1.433 1_565 S
C735 N737 1.384 . S
N736 C732 1.427 . S
N736 C733 1.384 . S
N737 C729 1.427 1_565 S
N737 C735 1.384 . S
H738 C744 0.930 . S
H739 C748 0.930 . S
H740 C753 0.929 . S
H741 C751 0.929 . S
H742 C746 0.929 . S
H743 C752 0.929 . S
C744 H738 0.930 . S
C744 C745 1.367 . S
C744 C752 1.378 . S
C745 C744 1.367 . S
C745 C753 1.433 . S
C746 H742 0.929 . S
C746 C748 1.378 . S
C746 C750 1.350 . S
C747 C750 1.463 . S
C747 C752 1.350 . S
C747 N755 1.427 . S
C748 H739 0.930 . S
C748 C746 1.378 . S
C748 C749 1.367 . S
C749 C748 1.367 . S
C749 C751 1.433 . S
C750 C746 1.350 . S
C750 C747 1.463 . S
C750 N754 1.427 . S
C751 H741 0.929 . S
C751 C749 1.433 . S
C751 N754 1.384 . S
C752 H743 0.929 . S
C752 C744 1.378 . S
C752 C747 1.350 . S
C753 H740 0.929 . S
C753 C745 1.433 . S
C753 N755 1.384 . S
N754 C750 1.427 . S
N754 C751 1.384 . S
N755 C747 1.427 . S
N755 C753 1.384 . S
H756 C762 0.930 . S
H757 C766 0.930 . S
H758 C771 0.929 . S
H759 C769 0.929 . S
H760 C764 0.929 . S
H761 C770 0.929 . S
C762 H756 0.930 . S
C762 C763 1.367 . S
C762 C770 1.378 . S
C763 C762 1.367 . S
C763 C771 1.433 . S
C764 H760 0.929 . S
C764 C766 1.378 . S
C764 C768 1.350 . S
C765 C768 1.463 . S
C765 C770 1.350 . S
C765 N773 1.427 . S
C766 H757 0.930 . S
C766 C764 1.378 . S
C766 C767 1.367 . S
C767 C766 1.367 . S
C767 C769 1.433 . S
C768 C764 1.350 . S
C768 C765 1.463 . S
C768 N772 1.427 . S
C769 H759 0.929 . S
C769 C767 1.433 . S
C769 N772 1.384 . S
C770 H761 0.929 . S
C770 C762 1.378 . S
C770 C765 1.350 . S
C771 H758 0.929 . S
C771 C763 1.433 . S
C771 N773 1.384 . S
N772 C768 1.427 . S
N772 C769 1.384 . S
N773 C765 1.427 . S
N773 C771 1.384 . S
H774 C780 0.930 . S
H775 C784 0.930 . S
H776 C789 0.929 . S
H777 C787 0.929 . S
H778 C782 0.929 . S
H779 C788 0.929 . S
C780 H774 0.930 . S
C780 C781 1.367 . S
C780 C788 1.378 . S
C781 C780 1.367 . S
C781 C789 1.433 . S
C782 H778 0.929 . S
C782 C784 1.378 . S
C782 C786 1.350 . S
C783 C786 1.463 . S
C783 C788 1.350 . S
C783 N791 1.427 . S
C784 H775 0.930 . S
C784 C782 1.378 . S
C784 C785 1.367 . S
C785 C784 1.367 . S
C785 C787 1.433 . S
C786 C782 1.350 . S
C786 C783 1.463 . S
C786 N790 1.427 . S
C787 H777 0.929 . S
C787 C785 1.433 . S
C787 N790 1.384 . S
C788 H779 0.929 . S
C788 C780 1.378 . S
C788 C783 1.350 . S
C789 H776 0.929 . S
C789 C781 1.433 . S
C789 N791 1.384 . S
N790 C786 1.427 . S
N790 C787 1.384 . S
N791 C783 1.427 . S
N791 C789 1.384 . S
H792 C798 0.930 . S
H793 C802 0.930 . S
H794 C807 0.929 . S
H795 C805 0.929 1_556 S
H796 C800 0.929 . S
H797 C806 0.929 . S
C798 H792 0.930 . S
C798 C799 1.367 . S
C798 C806 1.378 . S
C799 C798 1.367 . S
C799 C807 1.433 . S
C800 H796 0.929 . S
C800 C802 1.378 . S
C800 C804 1.350 . S
C801 C804 1.463 . S
C801 C806 1.350 . S
C801 N809 1.427 . S
C802 H793 0.930 . S
C802 C800 1.378 . S
C802 C803 1.367 . S
C803 C802 1.367 . S
C803 C805 1.433 . S
C804 C800 1.350 . S
C804 C801 1.463 . S
C804 N808 1.427 . S
C805 H795 0.929 1_554 S
C805 C803 1.433 . S
C805 N808 1.384 . S
C806 H797 0.929 . S
C806 C798 1.378 . S
C806 C801 1.350 . S
C807 H794 0.929 . S
C807 C799 1.433 . S
C807 N809 1.384 . S
N808 C804 1.427 . S
N808 C805 1.384 . S
N809 C801 1.427 . S
N809 C807 1.384 . S
H810 C816 0.930 . S
H811 C820 0.930 . S
H812 C825 0.929 . S
H813 C823 0.929 . S
H814 C818 0.929 . S
H815 C824 0.929 . S
C816 H810 0.930 . S
C816 C817 1.367 . S
C816 C824 1.378 . S
C817 C816 1.367 . S
C817 C825 1.433 . S
C818 H814 0.929 . S
C818 C820 1.378 . S
C818 C822 1.350 . S
C819 C822 1.463 . S
C819 C824 1.350 . S
C819 N827 1.427 . S
C820 H811 0.930 . S
C820 C818 1.378 . S
C820 C821 1.367 . S
C821 C820 1.367 . S
C821 C823 1.433 . S
C822 C818 1.350 . S
C822 C819 1.463 . S
C822 N826 1.427 . S
C823 H813 0.929 . S
C823 C821 1.433 . S
C823 N826 1.384 . S
C824 H815 0.929 . S
C824 C816 1.378 . S
C824 C819 1.350 . S
C825 H812 0.929 . S
C825 C817 1.433 . S
C825 N827 1.384 . S
N826 C822 1.427 . S
N826 C823 1.384 . S
N827 C819 1.427 . S
N827 C825 1.384 . S
H828 C834 0.930 . S
H829 C838 0.930 . S
H830 C843 0.929 . S
H831 C841 0.929 . S
H832 C836 0.929 . S
H833 C842 0.929 . S
C834 H828 0.930 . S
C834 C835 1.367 . S
C834 C842 1.378 . S
C835 C834 1.367 . S
C835 C843 1.433 . S
C836 H832 0.929 . S
C836 C838 1.378 . S
C836 C840 1.350 . S
C837 C840 1.463 . S
C837 C842 1.350 . S
C837 N845 1.427 . S
C838 H829 0.930 . S
C838 C836 1.378 . S
C838 C839 1.367 . S
C839 C838 1.367 . S
C839 C841 1.433 . S
C840 C836 1.350 . S
C840 C837 1.463 . S
C840 N844 1.427 . S
C841 H831 0.929 . S
C841 C839 1.433 . S
C841 N844 1.384 . S
C842 H833 0.929 . S
C842 C834 1.378 . S
C842 C837 1.350 . S
C843 H830 0.929 . S
C843 C835 1.433 . S
C843 N845 1.384 . S
N844 C840 1.427 . S
N844 C841 1.384 . S
N845 C837 1.427 . S
N845 C843 1.384 . S
C367 C6 1.528 . S
C371 C286 1.533 . S
C385 C50 2.681 1_556 S
C389 C330 2.733 . S
C403 C86 1.813 . S
C407 C250 1.777 . S
C421 C170 3.091 . S
C425 C90 3.063 . S
C439 C210 2.867 . S
C443 C10 2.903 1_655 S
C457 C46 2.598 . S
C461 C130 2.552 . S
C475 C290 2.007 . S
C479 C206 1.996 . S
C493 C326 1.618 . S
C497 C126 1.639 . S
C511 C166 1.762 . S
C515 C246 1.788 1_545 S
C529 C95 1.895 . S
C533 C19 1.957 . S
C547 C55 1.364 . S
C551 C15 1.370 . S
C565 C59 3.379 . S
C569 C99 3.331 . S
C583 C135 1.892 . S
C587 C219 1.887 . S
C601 C139 1.955 . S
C605 C175 1.978 . S
C619 C179 1.684 . S
C623 C215 1.693 . S
C637 C335 1.971 . S
C641 C259 2.013 . S
C655 C295 0.751 . S
C659 C255 0.748 . S
C673 C339 2.200 . S
C677 C299 2.264 . S
C691 C18 1.008 . S
C695 C9 1.008 . S
C709 C49 1.001 . S
C713 C58 1.001 . S
C727 C98 0.985 . S
C731 C89 0.985 . S
C745 C138 1.032 . S
C749 C129 1.032 . S
C763 C178 1.035 . S
C767 C169 1.035 . S
C781 C218 1.002 . S
C785 C209 1.002 1_556 S
C799 C258 1.030 . S
C803 C249 1.030 1_554 S
C817 C298 1.019 1_554 S
C821 C289 1.019 . S
C835 C338 1.009 . S
C839 C329 1.009 1_554 S
