# Generated by pormake.
# Topology yfd, (5)-cn, num edge types: 1
# Building blocks:
#     Node 0, Type 0, BuildingBlock: BEQFEK_clean_sbu_0, # of connection points: 5
#     Node 1, Type 0, BuildingBlock: BEQFEK_clean_sbu_0, # of connection points: 5
#     Node 2, Type 0, BuildingBlock: BEQFEK_clean_sbu_0, # of connection points: 5
#     Node 3, Type 0, BuildingBlock: BEQFEK_clean_sbu_0, # of connection points: 5
#     Node 4, Type 0, BuildingBlock: BEQFEK_clean_sbu_0, # of connection points: 5
#     Node 5, Type 0, BuildingBlock: BEQFEK_clean_sbu_0, # of connection points: 5
#     Node 6, Type 0, BuildingBlock: BEQFEK_clean_sbu_0, # of connection points: 5
#     Node 7, Type 0, BuildingBlock: BEQFEK_clean_sbu_0, # of connection points: 5
#     Node 8, Type 0, BuildingBlock: BEQFEK_clean_sbu_0, # of connection points: 5
#     Node 9, Type 0, BuildingBlock: BEQFEK_clean_sbu_0, # of connection points: 5
#     Node 10, Type 0, BuildingBlock: BEQFEK_clean_sbu_0, # of connection points: 5
#     Node 11, Type 0, BuildingBlock: BEQFEK_clean_sbu_0, # of connection points: 5
#     Node 12, Type 0, BuildingBlock: BEQFEK_clean_sbu_0, # of connection points: 5
#     Node 13, Type 0, BuildingBlock: BEQFEK_clean_sbu_0, # of connection points: 5
#     Node 14, Type 0, BuildingBlock: BEQFEK_clean_sbu_0, # of connection points: 5
#     Node 15, Type 0, BuildingBlock: BEQFEK_clean_sbu_0, # of connection points: 5
#     Edge 16, Type (0, 0), BuildingBlock: AJUNOK_clean_linker_0, # of connection points: 2
#     Edge 17, Type (0, 0), BuildingBlock: AJUNOK_clean_linker_0, # of connection points: 2
#     Edge 18, Type (0, 0), BuildingBlock: AJUNOK_clean_linker_0, # of connection points: 2
#     Edge 19, Type (0, 0), BuildingBlock: AJUNOK_clean_linker_0, # of connection points: 2
#     Edge 20, Type (0, 0), BuildingBlock: AJUNOK_clean_linker_0, # of connection points: 2
#     Edge 21, Type (0, 0), BuildingBlock: AJUNOK_clean_linker_0, # of connection points: 2
#     Edge 22, Type (0, 0), BuildingBlock: AJUNOK_clean_linker_0, # of connection points: 2
#     Edge 23, Type (0, 0), BuildingBlock: AJUNOK_clean_linker_0, # of connection points: 2
#     Edge 24, Type (0, 0), BuildingBlock: AJUNOK_clean_linker_0, # of connection points: 2
#     Edge 25, Type (0, 0), BuildingBlock: AJUNOK_clean_linker_0, # of connection points: 2
#     Edge 26, Type (0, 0), BuildingBlock: AJUNOK_clean_linker_0, # of connection points: 2
#     Edge 27, Type (0, 0), BuildingBlock: AJUNOK_clean_linker_0, # of connection points: 2
#     Edge 28, Type (0, 0), BuildingBlock: AJUNOK_clean_linker_0, # of connection points: 2
#     Edge 29, Type (0, 0), BuildingBlock: AJUNOK_clean_linker_0, # of connection points: 2
#     Edge 30, Type (0, 0), BuildingBlock: AJUNOK_clean_linker_0, # of connection points: 2
#     Edge 31, Type (0, 0), BuildingBlock: AJUNOK_clean_linker_0, # of connection points: 2
#     Edge 32, Type (0, 0), BuildingBlock: AJUNOK_clean_linker_0, # of connection points: 2
#     Edge 33, Type (0, 0), BuildingBlock: AJUNOK_clean_linker_0, # of connection points: 2
#     Edge 34, Type (0, 0), BuildingBlock: AJUNOK_clean_linker_0, # of connection points: 2
#     Edge 35, Type (0, 0), BuildingBlock: AJUNOK_clean_linker_0, # of connection points: 2
#     Edge 36, Type (0, 0), BuildingBlock: AJUNOK_clean_linker_0, # of connection points: 2
#     Edge 37, Type (0, 0), BuildingBlock: AJUNOK_clean_linker_0, # of connection points: 2
#     Edge 38, Type (0, 0), BuildingBlock: AJUNOK_clean_linker_0, # of connection points: 2
#     Edge 39, Type (0, 0), BuildingBlock: AJUNOK_clean_linker_0, # of connection points: 2
#     Edge 40, Type (0, 0), BuildingBlock: AJUNOK_clean_linker_0, # of connection points: 2
#     Edge 41, Type (0, 0), BuildingBlock: AJUNOK_clean_linker_0, # of connection points: 2
#     Edge 42, Type (0, 0), BuildingBlock: AJUNOK_clean_linker_0, # of connection points: 2
#     Edge 43, Type (0, 0), BuildingBlock: AJUNOK_clean_linker_0, # of connection points: 2
#     Edge 44, Type (0, 0), BuildingBlock: AJUNOK_clean_linker_0, # of connection points: 2
#     Edge 45, Type (0, 0), BuildingBlock: AJUNOK_clean_linker_0, # of connection points: 2
#     Edge 46, Type (0, 0), BuildingBlock: AJUNOK_clean_linker_0, # of connection points: 2
#     Edge 47, Type (0, 0), BuildingBlock: AJUNOK_clean_linker_0, # of connection points: 2
#     Edge 48, Type (0, 0), BuildingBlock: AJUNOK_clean_linker_0, # of connection points: 2
#     Edge 49, Type (0, 0), BuildingBlock: AJUNOK_clean_linker_0, # of connection points: 2
#     Edge 50, Type (0, 0), BuildingBlock: AJUNOK_clean_linker_0, # of connection points: 2
#     Edge 51, Type (0, 0), BuildingBlock: AJUNOK_clean_linker_0, # of connection points: 2
#     Edge 52, Type (0, 0), BuildingBlock: AJUNOK_clean_linker_0, # of connection points: 2
#     Edge 53, Type (0, 0), BuildingBlock: AJUNOK_clean_linker_0, # of connection points: 2
#     Edge 54, Type (0, 0), BuildingBlock: AJUNOK_clean_linker_0, # of connection points: 2
#     Edge 55, Type (0, 0), BuildingBlock: AJUNOK_clean_linker_0, # of connection points: 2
# Relax obj value: 0.602
# Max RMSD: 0.256
# Mean RMSD: 0.256
data_MOF--net-yfd--node1-BEQFEK_clean_sbu_0--edge1-AJUNOK_clean_linker_0
_symmetry_space_group_name_H-M    P1
_symmetry_Int_Tables_number       1
_symmetry_cell_setting            triclinic
loop_
_symmetry_equiv_pos_as_xyz
'x, y, z'
_cell_length_a     51.59589
_cell_length_b     51.539711
_cell_length_c     19.400927
_cell_angle_alpha  90.000309
_cell_angle_beta   89.89585
_cell_angle_gamma 89.994402
loop_
_atom_site_label
_atom_site_type_symbol
_atom_site_fract_x
_atom_site_fract_y
_atom_site_fract_z
_atom_type_partial_charge
Co0 Co 0.54274 0.09239 0.17549 0.0
Co1 Co 0.54054 0.15309 0.17881 0.0
C2 C 0.49316 0.12065 0.21037 0.0
O3 O 0.50783 0.10121 0.20514 0.0
O4 O 0.50189 0.14344 0.1983 0.0
C5 C 0.52169 0.06191 0.08425 0.0
O6 O 0.51048 0.08468 0.07859 0.0
C7 C 0.52996 0.20444 0.11389 0.0
C8 C 0.56091 0.22902 0.15683 0.0
C9 C 0.54123 0.22907 0.10809 0.0
N10 N 0.54292 0.19051 0.16189 0.0
N11 N 0.56113 0.2056 0.18801 0.0
C12 C 0.50676 0.19433 0.07629 0.0
H13 H 0.51294 0.17988 0.03725 0.0
H14 H 0.49589 0.21025 0.05087 0.0
H15 H 0.49378 0.18416 0.11305 0.0
C16 C 0.57636 0.10246 0.06016 0.0
N17 N 0.55849 0.11126 0.10499 0.0
N18 N 0.55606 0.13649 0.09896 0.0
C19 C 0.57155 0.14417 0.04578 0.0
C20 C 0.58503 0.12274 0.02014 0.0
C21 C 0.58677 0.07531 0.05901 0.0
H22 H 0.58164 0.06459 0.10639 0.0
H23 H 0.57947 0.06525 0.01249 0.0
H24 H 0.60815 0.07538 0.05564 0.0
O25 O 0.56562 0.09688 0.25201 0.0
O26 O 0.56387 0.14045 0.26103 0.0
H27 H 0.58211 0.1833 0.06899 0.0
H28 H 0.59085 0.17295 0.98309 0.0
C29 C 0.57587 0.1716 0.02409 0.0
H30 H 0.55749 0.17961 0.00425 0.0
H31 H 0.57455 0.19953 0.22485 0.0
O32 O 0.5373 0.05814 0.13413 0.0
C33 C 0.57256 0.11808 0.2806 0.0
Co34 Co 0.44929 0.54532 0.69178 0.0
Co35 Co 0.38863 0.54259 0.68404 0.0
C36 C 0.42255 0.49494 0.71516 0.0
O37 O 0.44214 0.5095 0.71161 0.0
O38 O 0.3997 0.50414 0.70583 0.0
C39 C 0.50083 0.52827 0.67883 0.0
O40 O 0.49232 0.5067 0.70668 0.0
C41 C 0.34072 0.53274 0.60146 0.0
C42 C 0.31158 0.55604 0.65706 0.0
C43 C 0.31485 0.54089 0.59858 0.0
N44 N 0.35205 0.54309 0.65793 0.0
N45 N 0.33433 0.55677 0.69112 0.0
C46 C 0.35431 0.5145 0.5535 0.0
H47 H 0.36743 0.50164 0.58326 0.0
H48 H 0.36652 0.52567 0.51698 0.0
H49 H 0.34022 0.50264 0.524 0.0
C50 C 0.44398 0.56962 0.55821 0.0
N51 N 0.43337 0.55616 0.61043 0.0
N52 N 0.40797 0.55816 0.60837 0.0
C53 C 0.4018 0.57433 0.55555 0.0
C54 C 0.42453 0.5821 0.5224 0.0
C55 C 0.4724 0.57037 0.54279 0.0
H56 H 0.48032 0.55051 0.54691 0.0
H57 H 0.47646 0.57758 0.49003 0.0
H58 H 0.4823 0.58307 0.58069 0.0
O59 O 0.43818 0.56839 0.76454 0.0
O60 O 0.39498 0.5665 0.76761 0.0
H61 H 0.36465 0.58718 0.59245 0.0
H62 H 0.37669 0.60459 0.51783 0.0
C63 C 0.37539 0.58532 0.54318 0.0
H64 H 0.36452 0.57221 0.50856 0.0
H65 H 0.33795 0.56728 0.73609 0.0
O66 O 0.48673 0.54842 0.68032 0.0
C67 C 0.4166 0.57562 0.78965 0.0
Co68 Co 1.00003 0.45108 0.18507 0.0
Co69 Co 1.00221 0.39014 0.18452 0.0
C70 C 0.04997 0.42456 0.21353 0.0
O71 O 0.03566 0.44425 0.20732 0.0
O72 O 0.04064 0.40162 0.20599 0.0
C73 C 1.01737 0.50242 0.16443 0.0
O74 O 0.03866 0.49511 0.19593 0.0
C75 C 1.01233 0.34107 0.1068 0.0
C76 C 0.98711 0.31312 0.1607 0.0
C77 C 1.00323 0.31546 0.10367 0.0
N78 N 1.00153 0.35313 0.16171 0.0
N79 N 0.98673 0.33609 0.19402 0.0
C80 C 0.03168 0.35386 0.06039 0.0
H81 H 0.04448 0.3667 0.09111 0.0
H82 H 0.02144 0.36629 0.02256 0.0
H83 H 0.04353 0.33924 0.03255 0.0
C84 C 0.97621 0.44331 0.05146 0.0
N85 N 0.9894 0.43364 0.10529 0.0
N86 N 0.98721 0.40821 0.10624 0.0
C87 C 0.97131 0.40117 0.05365 0.0
C88 C 0.96385 0.42333 0.01763 0.0
C89 C 0.97571 0.47134 0.03219 0.0
H90 H 0.96398 0.4823 0.07029 0.0
H91 H 0.99584 0.47855 0.03255 0.0
H92 H 0.96772 0.47462 0.97992 0.0
O93 O 0.97658 0.44124 0.25823 0.0
O94 O 0.97774 0.3981 0.26636 0.0
H95 H 0.9575 0.36492 0.09406 0.0
H96 H 0.94169 0.37539 0.01548 0.0
C97 C 0.9604 0.37458 0.04359 0.0
H98 H 0.97413 0.36293 0.01253 0.0
H99 H 0.97557 0.34039 0.23747 0.0
O100 O 0.99718 0.48846 0.16937 0.0
C101 C 0.96882 0.42023 0.28566 0.0
Co102 Co 0.09109 1.00155 0.65289 0.0
Co103 Co 0.15177 1.00254 0.6654 0.0
C104 C 0.11686 0.05065 0.6919 0.0
O105 O 0.09713 0.03715 0.67815 0.0
O106 O 0.13966 0.04059 0.69022 0.0
C107 C 0.04042 1.01835 0.62647 0.0
O108 O 0.04596 0.03812 0.66643 0.0
C109 C 0.20111 1.01213 0.58968 0.0
C110 C 0.22943 0.98913 0.64857 0.0
C111 C 0.22694 1.00376 0.58883 0.0
N112 N 0.18905 1.00235 0.64593 0.0
N113 N 0.2063 0.98885 0.6812 0.0
C114 C 0.18803 0.02981 0.5394 0.0
H115 H 0.17408 0.04252 0.56698 0.0
H116 H 0.17679 1.01815 0.50187 0.0
H117 H 0.20242 0.04182 0.51122 0.0
C118 C 0.10235 0.97914 0.51991 0.0
N119 N 0.11062 0.99182 0.57616 0.0
N120 N 0.13564 0.98813 0.58387 0.0
C121 C 0.14365 0.97133 0.5342 0.0
C122 C 0.12266 0.96525 0.49226 0.0
C123 C 0.07522 0.97993 0.49336 0.0
H124 H 0.06843 1.00025 0.49476 0.0
H125 H 0.07394 0.97292 0.4394 0.0
H126 H 0.06261 0.96768 0.52631 0.0
O127 O 0.09917 0.97774 0.72766 0.0
O128 O 0.14192 0.97762 0.74388 0.0
H129 H 0.17733 0.95649 0.586 0.0
H130 H 0.16785 0.93853 0.5097 0.0
C131 C 0.16943 0.95813 0.53307 0.0
H132 H 0.18302 0.96962 0.50121 0.0
H133 H 0.20205 0.97858 0.7262 0.0
O134 O 0.05439 0.99815 0.62944 0.0
C135 C 0.11912 0.96934 0.75904 0.0
Co136 Co 0.53969 0.45071 0.85299 0.0
Co137 Co 0.54001 0.39011 0.83785 0.0
C138 C 0.49179 0.42393 0.80808 0.0
O139 O 0.5048 0.44384 0.82325 0.0
O140 O 0.50211 0.40126 0.81064 0.0
C141 C 0.52052 0.50018 0.88711 0.0
O142 O 0.4998 0.49332 0.8525 0.0
C143 C 0.5311 0.33971 0.90887 0.0
C144 C 0.55392 0.31243 0.84592 0.0
C145 C 0.53924 0.31386 0.9059 0.0
N146 N 0.5408 0.35274 0.85408 0.0
N147 N 0.55424 0.33613 0.81643 0.0
C148 C 0.51389 0.35188 0.96195 0.0
H149 H 0.50395 0.36911 0.94002 0.0
H150 H 0.52566 0.35843 0.00639 0.0
H151 H 0.4994 0.33763 0.9809 0.0
C152 C 0.56116 0.43904 0.98694 0.0
N153 N 0.54909 0.43084 0.92967 0.0
N154 N 0.55321 0.40587 0.92137 0.0
C155 C 0.56965 0.39787 0.97185 0.0
C156 C 0.57506 0.41882 0.01479 0.0
C157 C 0.56013 0.46615 0.0139 0.0
H158 H 0.57196 0.47899 0.98049 0.0
H159 H 0.53972 0.47256 0.01371 0.0
H160 H 0.56743 0.46754 0.06751 0.0
O161 O 0.56464 0.44391 0.77941 0.0
O162 O 0.56521 0.40118 0.76136 0.0
H163 H 0.58499 0.36426 0.92021 0.0
H164 H 0.60275 0.37415 0.99633 0.0
C165 C 0.58319 0.37221 0.97308 0.0
H166 H 0.57197 0.35842 0.00521 0.0
H167 H 0.56439 0.34116 0.77179 0.0
O168 O 0.54129 0.48732 0.8795 0.0
C169 C 0.57347 0.42414 0.74779 0.0
Co170 Co 0.09578 0.54621 0.3111 0.0
Co171 Co 0.1557 0.54225 0.3221 0.0
C172 C 0.12341 0.49595 0.28103 0.0
O173 O 0.10447 0.51138 0.28 0.0
O174 O 0.14574 0.50377 0.30089 0.0
C175 C 0.05908 0.52494 0.38431 0.0
O176 O 0.08036 0.51192 0.39772 0.0
C177 C 0.20711 0.53161 0.38971 0.0
C178 C 0.2311 0.56283 0.34543 0.0
C179 C 0.23174 0.54288 0.39343 0.0
N180 N 0.19272 0.54461 0.3427 0.0
N181 N 0.20746 0.56303 0.31605 0.0
C182 C 0.1977 0.50826 0.42823 0.0
H183 H 0.18153 0.49886 0.40011 0.0
H184 H 0.1905 0.51402 0.47977 0.0
H185 H 0.2138 0.49424 0.43562 0.0
C186 C 0.10172 0.57429 0.4399 0.0
N187 N 0.11203 0.55906 0.39057 0.0
N188 N 0.13707 0.55645 0.40066 0.0
C189 C 0.1431 0.56918 0.46 0.0
C190 C 0.12077 0.58085 0.48649 0.0
C191 C 0.07433 0.58403 0.44009 0.0
H192 H 0.06615 0.58397 0.38745 0.0
H193 H 0.06252 0.57176 0.47495 0.0
H194 H 0.07311 0.60417 0.45941 0.0
O195 O 0.10319 0.57054 0.24011 0.0
O196 O 0.14652 0.56694 0.2392 0.0
H197 H 0.18326 0.57824 0.4452 0.0
H198 H 0.17031 0.58819 0.52767 0.0
C199 C 0.16989 0.57284 0.48752 0.0
H200 H 0.17665 0.55449 0.51093 0.0
H201 H 0.20107 0.57642 0.27945 0.0
O202 O 0.05962 0.54198 0.33691 0.0
C203 C 0.12527 0.57696 0.21632 0.0
Co204 Co 0.99767 0.09551 0.81543 0.0
Co205 Co 1.00055 0.1563 0.82124 0.0
C206 C 0.04741 0.12256 0.78406 0.0
O207 O 0.03268 0.10316 0.78878 0.0
O208 O 0.0388 0.14547 0.79633 0.0
C209 C 1.01676 0.04497 0.83504 0.0
O210 O 0.03849 0.05436 0.81024 0.0
C211 C 1.01047 0.20615 0.89733 0.0
C212 C 0.9849 0.23319 0.84168 0.0
C213 C 1.00151 0.23183 0.89781 0.0
N214 N 0.99942 0.19325 0.84418 0.0
N215 N 0.98435 0.20975 0.81099 0.0
C216 C 0.02976 0.1941 0.94508 0.0
H217 H 0.03936 0.17734 0.91975 0.0
H218 H 1.01975 0.18688 0.99187 0.0
H219 H 0.04446 0.20862 0.96109 0.0
C220 C 0.97471 0.10153 0.9503 0.0
N221 N 0.98794 0.11193 0.89736 0.0
N222 N 0.9861 0.13738 0.89923 0.0
C223 C 0.97045 0.1438 0.95309 0.0
C224 C 0.96263 0.12114 0.9865 0.0
C225 C 0.97335 0.07308 0.96543 0.0
H226 H 0.96133 0.06329 0.92586 0.0
H227 H 0.99318 0.065 0.96393 0.0
H228 H 0.9651 0.06904 0.01712 0.0
O229 O 0.97321 0.10565 0.74532 0.0
O230 O 0.97595 0.14883 0.73975 0.0
H231 H 0.95688 0.1808 0.9173 0.0
H232 H 0.94154 0.16945 0.99579 0.0
C233 C 0.96004 0.1704 0.96658 0.0
H234 H 0.97418 0.18148 0.99782 0.0
H235 H 0.97304 0.20481 0.7684 0.0
O236 O 0.99604 0.05808 0.82986 0.0
C237 C 0.96613 0.1272 0.71975 0.0
Co238 Co 0.44925 0.9996 0.32705 0.0
Co239 Co 0.38874 1.00212 0.32257 0.0
C240 C 0.42148 0.04944 0.29261 0.0
O241 O 0.44076 0.03462 0.29808 0.0
O242 O 0.39859 0.04082 0.30378 0.0
C243 C 0.48038 1.02053 0.41707 0.0
O244 O 0.45777 0.03194 0.424 0.0
C245 C 0.33666 1.01205 0.3853 0.0
C246 C 0.31263 0.98206 0.33591 0.0
C247 C 0.31185 1.00109 0.38655 0.0
N248 N 0.35128 0.99971 0.33742 0.0
N249 N 0.33653 0.98203 0.30761 0.0
C250 C 0.34624 0.03434 0.42768 0.0
H251 H 0.36151 0.04509 0.3993 0.0
H252 H 0.35486 0.02708 0.47623 0.0
H253 H 0.33005 0.04764 0.44087 0.0
C254 C 0.43883 0.96645 0.44307 0.0
N255 N 0.43015 0.98411 0.39762 0.0
N256 N 0.40488 0.98639 0.40281 0.0
C257 C 0.397 0.97095 0.45593 0.0
C258 C 0.41841 0.95772 0.48251 0.0
C259 C 0.46604 0.95632 0.44542 0.0
H260 H 0.47662 0.96058 0.39718 0.0
H261 H 0.47604 0.96479 0.49057 0.0
H262 H 0.46629 0.93502 0.45198 0.0
O263 O 0.44491 0.97683 0.25014 0.0
O264 O 0.40149 0.97903 0.23997 0.0
H265 H 0.35805 0.96082 0.4294 0.0
H266 H 0.36801 0.94992 0.51376 0.0
C267 C 0.36944 0.96597 0.47576 0.0
H268 H 0.36103 0.98367 0.49898 0.0
H269 H 0.34309 0.96915 0.26986 0.0
O270 O 0.48362 1.00471 0.36731 0.0
C271 C 0.42383 0.9702 0.22072 0.0
Co272 Co 0.50508 0.94942 0.81575 0.0
Co273 Co 0.50318 0.88861 0.81724 0.0
C274 C 0.55276 0.91941 0.78439 0.0
O275 O 0.53966 0.9399 0.79029 0.0
O276 O 0.54217 0.89714 0.79363 0.0
C277 C 0.5268 0.9986 0.8416 0.0
O278 O 0.54869 0.98755 0.82352 0.0
C279 C 0.51139 0.83945 0.89536 0.0
C280 C 0.48437 0.81245 0.84456 0.0
C281 C 0.50127 0.81428 0.89995 0.0
N282 N 0.50046 0.85181 0.84123 0.0
N283 N 0.48454 0.83534 0.81078 0.0
C284 C 0.53177 0.85154 0.93974 0.0
H285 H 0.54467 0.86387 0.90772 0.0
H286 H 0.52245 0.86438 0.97841 0.0
H287 H 0.54339 0.83652 0.96661 0.0
C288 C 0.48117 0.94374 0.95002 0.0
N289 N 0.49385 0.93305 0.89651 0.0
N290 N 0.49009 0.90781 0.89611 0.0
C291 C 0.47373 0.90191 0.94882 0.0
C292 C 0.46753 0.92462 0.98426 0.0
C293 C 0.48178 0.97201 0.96744 0.0
H294 H 0.50212 0.97871 0.9662 0.0
H295 H 0.47395 0.976 0.01962 0.0
H296 H 0.4704 0.98306 0.92886 0.0
O297 O 0.4803 0.94138 0.74439 0.0
O298 O 0.47851 0.89826 0.73681 0.0
H299 H 0.44282 0.87795 0.98865 0.0
H300 H 0.4744 0.86331 0.98835 0.0
C301 C 0.46115 0.87606 0.959 0.0
H302 H 0.45709 0.86691 0.90845 0.0
H303 H 0.4731 0.83998 0.76818 0.0
O304 O 0.50555 0.98677 0.83175 0.0
C305 C 0.4709 0.92092 0.71772 0.0
Co306 Co 0.59112 0.50138 0.34331 0.0
Co307 Co 0.65181 0.50266 0.33932 0.0
C308 C 0.61999 0.54957 0.29932 0.0
O309 O 0.60041 0.53524 0.3066 0.0
O310 O 0.64262 0.54095 0.31354 0.0
C311 C 0.56108 0.52582 0.43032 0.0
O312 O 0.58395 0.53694 0.43298 0.0
C313 C 0.70304 0.5132 0.40423 0.0
C314 C 0.72751 0.48205 0.36157 0.0
C315 C 0.72758 0.50181 0.41022 0.0
N316 N 0.68914 0.50021 0.35626 0.0
N317 N 0.70417 0.48189 0.33027 0.0
C318 C 0.69297 0.53652 0.44168 0.0
H319 H 0.68262 0.54934 0.40497 0.0
H320 H 0.67868 0.53041 0.48124 0.0
H321 H 0.70891 0.54751 0.46652 0.0
C322 C 0.60071 0.47086 0.46456 0.0
N323 N 0.60977 0.48752 0.41685 0.0
N324 N 0.63507 0.4893 0.42151 0.0
C325 C 0.64263 0.4745 0.47608 0.0
C326 C 0.62096 0.46249 0.5049 0.0
C327 C 0.57369 0.46017 0.46605 0.0
H328 H 0.5637 0.46699 0.51332 0.0
H329 H 0.5741 0.43872 0.46792 0.0
H330 H 0.5627 0.46538 0.41933 0.0
O331 O 0.59549 0.47612 0.27136 0.0
O332 O 0.63901 0.47748 0.2616 0.0
H333 H 0.67108 0.45305 0.53456 0.0
H334 H 0.67924 0.48612 0.51484 0.0
C335 C 0.67002 0.46842 0.49456 0.0
H336 H 0.68074 0.4619 0.44819 0.0
H337 H 0.6981 0.46842 0.29348 0.0
O338 O 0.55702 0.50869 0.38413 0.0
C339 C 0.61664 0.4683 0.24395 0.0
Co340 Co 0.03855 0.59187 0.84683 0.0
Co341 Co 0.03995 0.65205 0.82458 0.0
C342 C 0.9904 0.61885 0.80546 0.0
O343 O 1.00301 0.59888 0.8224 0.0
O344 O 1.00154 0.6411 0.8027 0.0
C345 C 1.0195 0.54343 0.89028 0.0
O346 O 0.99821 0.54979 0.8574 0.0
C347 C 0.03217 0.70233 0.89551 0.0
C348 C 0.05258 0.73015 0.82859 0.0
C349 C 0.03942 0.7284 0.89101 0.0
N350 N 0.04088 0.68949 0.83928 0.0
N351 N 0.05291 0.70639 0.79927 0.0
C352 C 1.0168 0.68968 0.95167 0.0
H353 H 1.00673 0.67221 0.93159 0.0
H354 H 0.03001 0.6834 0.99347 0.0
H355 H 1.00249 0.7035 0.97362 0.0
C356 C 0.06408 0.60497 0.97448 0.0
N357 N 0.05014 0.61263 0.91969 0.0
N358 N 0.05482 0.63721 0.90703 0.0
C359 C 0.07345 0.64541 0.95148 0.0
C360 C 0.07988 0.62504 0.99537 0.0
C361 C 0.06319 0.57843 0.00518 0.0
H362 H 0.07375 0.56466 0.97135 0.0
H363 H 0.04269 0.57254 0.01004 0.0
H364 H 0.07204 0.57789 0.05724 0.0
O365 O 0.06201 0.59728 0.76818 0.0
O366 O 0.06365 0.63973 0.74632 0.0
H367 H 0.08827 0.67703 0.89089 0.0
H368 H 0.10773 0.66873 0.96553 0.0
C369 C 0.08769 0.67059 0.94541 0.0
H370 H 0.07754 0.68556 0.97639 0.0
H371 H 0.06204 0.70159 0.75296 0.0
O372 O 0.04027 0.55571 0.87763 0.0
C373 C 0.07089 0.61635 0.73358 0.0
Co374 Co 0.95077 0.0452 0.32964 0.0
Co375 Co 0.88996 0.04181 0.32441 0.0
C376 C 0.92583 0.99443 0.30051 0.0
O377 O 0.94523 1.00894 0.30978 0.0
O378 O 0.90271 1.00365 0.30392 0.0
C379 C 1.00234 0.0301 0.35124 0.0
O380 O 0.99661 1.00961 0.31402 0.0
C381 C 0.84103 0.03193 0.40253 0.0
C382 C 0.81236 0.05464 0.34397 0.0
C383 C 0.81513 0.04016 0.40386 0.0
N384 N 0.85283 0.04169 0.34584 0.0
N385 N 0.83537 0.05499 0.31081 0.0
C386 C 0.85443 1.01439 0.45254 0.0
H387 H 0.86817 1.00158 0.42454 0.0
H388 H 0.86597 0.02616 0.48919 0.0
H389 H 0.84024 1.00245 0.48163 0.0
C390 C 0.94087 0.07014 0.46023 0.0
N391 N 0.93212 0.05604 0.40694 0.0
N392 N 0.9068 0.0583 0.40254 0.0
C393 C 0.89894 0.07539 0.45174 0.0
C394 C 0.92045 0.08345 0.48945 0.0
C395 C 0.96844 0.07064 0.48339 0.0
H396 H 0.97589 0.05056 0.48298 0.0
H397 H 0.97047 0.07835 0.53648 0.0
H398 H 0.98003 0.08282 0.44769 0.0
O399 O 0.94108 0.0674 0.25313 0.0
O400 O 0.89812 0.06516 0.24129 0.0
H401 H 0.87292 0.10632 0.48046 0.0
H402 H 0.86008 0.07415 0.48912 0.0
C403 C 0.87235 0.08677 0.45644 0.0
H404 H 0.86353 0.08812 0.4045 0.0
H405 H 0.83938 0.06516 0.26552 0.0
O406 O 0.98775 0.04986 0.34814 0.0
C407 C 0.9203 0.07415 0.22289 0.0
Co408 Co 0.49899 0.59436 0.18001 0.0
Co409 Co 0.50185 0.65518 0.18182 0.0
C410 C 0.54943 0.62012 0.20713 0.0
O411 O 0.53494 0.60062 0.19976 0.0
O412 O 0.54023 0.64321 0.20195 0.0
C413 C 0.51526 0.54291 0.15907 0.0
O414 O 0.53641 0.54963 0.19209 0.0
C415 C 0.51079 0.705 0.10566 0.0
C416 C 0.48764 0.73255 0.16695 0.0
C417 C 0.50239 0.73088 0.10713 0.0
N418 N 0.50115 0.69232 0.16115 0.0
N419 N 0.48754 0.70911 0.19772 0.0
C420 C 0.52811 0.69244 0.05352 0.0
H421 H 0.53817 0.67553 0.07671 0.0
H422 H 0.51636 0.68529 0.00966 0.0
H423 H 0.54252 0.70657 0.03359 0.0
C424 C 0.47376 0.60288 0.04926 0.0
N425 N 0.48783 0.61228 0.10176 0.0
N426 N 0.48555 0.63767 0.10424 0.0
C427 C 0.46854 0.64496 0.05435 0.0
C428 C 0.46044 0.62294 0.01845 0.0
C429 C 0.47337 0.57501 0.02828 0.0
H430 H 0.49348 0.56769 0.02877 0.0
H431 H 0.46557 0.57228 0.97555 0.0
H432 H 0.4614 0.56376 0.06523 0.0
O433 O 0.47663 0.60406 0.25591 0.0
O434 O 0.47874 0.64714 0.26557 0.0
H435 H 0.45576 0.68098 0.09855 0.0
H436 H 0.43785 0.67077 0.02295 0.0
C437 C 0.45729 0.67157 0.04732 0.0
H438 H 0.47005 0.6835 0.01404 0.0
H439 H 0.47742 0.70437 0.24261 0.0
O440 O 0.4953 0.55718 0.16351 0.0
C441 C 0.46978 0.62507 0.28493 0.0
Co442 Co 0.94802 0.50128 0.67744 0.0
Co443 Co 0.88771 0.50179 0.68179 0.0
C444 C 0.91932 0.54982 0.71444 0.0
O445 O 0.93896 0.53551 0.70947 0.0
O446 O 0.89675 0.54068 0.70199 0.0
C447 C 0.98217 0.5249 0.59962 0.0
O448 O 0.95982 0.53627 0.58823 0.0
C449 C 0.8374 0.51053 0.61134 0.0
C450 C 0.81059 0.48557 0.66985 0.0
C451 C 0.81183 0.50171 0.61261 0.0
N452 N 0.85055 0.49982 0.66445 0.0
N453 N 0.83423 0.4851 0.69951 0.0
C454 C 0.84907 0.52946 0.56168 0.0
H455 H 0.86628 0.53895 0.58484 0.0
H456 H 0.85542 0.51921 0.51439 0.0
H457 H 0.83453 0.54429 0.54664 0.0
C458 C 0.93959 0.47197 0.55256 0.0
N459 N 0.93005 0.48778 0.6017 0.0
N460 N 0.9046 0.48681 0.60165 0.0
C461 C 0.8972 0.47007 0.55105 0.0
C462 C 0.91925 0.46018 0.51876 0.0
C463 C 0.9679 0.46685 0.54115 0.0
H464 H 0.97805 0.46504 0.59116 0.0
H465 H 0.97617 0.48311 0.51117 0.0
H466 H 0.97172 0.44906 0.51116 0.0
O467 O 0.94286 0.47673 0.75118 0.0
O468 O 0.89956 0.47827 0.76314 0.0
H469 H 0.86054 0.4574 0.59129 0.0
H470 H 0.8704 0.44138 0.51259 0.0
C471 C 0.87024 0.46012 0.54083 0.0
H472 H 0.85899 0.47424 0.51003 0.0
H473 H 0.83939 0.47409 0.74251 0.0
O474 O 0.98331 0.50732 0.64569 0.0
C475 C 0.92199 0.46934 0.7806 0.0
Co476 Co 0.04334 0.94998 0.1613 0.0
Co477 Co 0.04093 0.88918 0.16458 0.0
C478 C 0.99478 0.92194 0.20573 0.0
O479 O 1.00953 0.94121 0.19848 0.0
O480 O 1.00282 0.89909 0.19091 0.0
C481 C 1.01911 0.98172 0.07821 0.0
O482 O 1.00752 0.95911 0.0737 0.0
C483 C 0.02999 0.83777 0.10002 0.0
C484 C 0.06153 0.81349 0.14113 0.0
C485 C 0.04153 0.81328 0.09331 0.0
N486 N 0.04314 0.85178 0.14747 0.0
N487 N 0.06169 0.83685 0.17255 0.0
C488 C 1.00641 0.84772 0.0638 0.0
H489 H 1.01222 0.86165 0.02305 0.0
H490 H 0.9951 0.83163 0.04062 0.0
H491 H 0.99402 0.85847 0.10087 0.0
C492 C 0.07281 0.94013 0.03835 0.0
N493 N 0.05638 0.93122 0.08677 0.0
N494 N 0.05459 0.90586 0.08258 0.0
C495 C 0.06929 0.89811 0.0279 0.0
C496 C 0.08132 0.91969 0.99874 0.0
C497 C 0.08223 0.96758 0.03352 0.0
H498 H 0.07985 0.97789 0.08307 0.0
H499 H 0.07154 0.97752 0.99177 0.0
H500 H 0.10302 0.96845 0.02001 0.0
O501 O 0.0686 0.94486 0.23264 0.0
O502 O 0.06607 0.90139 0.24257 0.0
H503 H 0.08181 0.85988 0.05473 0.0
H504 H 0.08977 0.86939 0.96764 0.0
C505 C 0.07487 0.87061 0.00889 0.0
H506 H 0.05688 0.86146 0.99018 0.0
H507 H 0.07532 0.84303 0.2087 0.0
O508 O 0.03679 0.98466 0.12336 0.0
C509 C 0.07578 0.92353 0.26018 0.0
Co510 Co 0.59426 0.03752 0.68336 0.0
Co511 Co 0.65495 0.03923 0.6827 0.0
C512 C 0.62409 0.9897 0.71441 0.0
O513 O 0.60376 1.00303 0.70909 0.0
O514 O 0.64641 1.00006 0.70457 0.0
C515 C 0.54545 1.01549 0.65587 0.0
O516 O 0.55671 0.99357 0.67277 0.0
C517 C 0.70549 0.03172 0.60878 0.0
C518 C 0.73105 0.05885 0.66403 0.0
C519 C 0.7307 0.04188 0.60838 0.0
N520 N 0.6919 0.04243 0.66132 0.0
N521 N 0.70752 0.05847 0.6943 0.0
C522 C 0.69444 1.01172 0.56128 0.0
H523 H 0.6781 1.00144 0.5866 0.0
H524 H 0.68685 1.02131 0.51432 0.0
H525 H 0.70961 0.99761 0.54566 0.0
C526 C 0.60032 0.06148 0.5494 0.0
N527 N 0.61089 0.04883 0.603 0.0
N528 N 0.63613 0.05247 0.60347 0.0
C529 C 0.64216 0.0687 0.55057 0.0
C530 C 0.61951 0.07499 0.51511 0.0
C531 C 0.57209 0.06096 0.53194 0.0
H532 H 0.56105 0.0723 0.57073 0.0
H533 H 0.56533 0.04062 0.53277 0.0
H534 H 0.56816 0.06892 0.47991 0.0
O535 O 0.60178 0.06218 0.75509 0.0
O536 O 0.64481 0.06355 0.76384 0.0
H537 H 0.6773 0.08513 0.59045 0.0
H538 H 0.66638 0.09928 0.51008 0.0
C539 C 0.66812 0.08101 0.54002 0.0
H540 H 0.68078 0.06755 0.51081 0.0
H541 H 0.7019 0.06976 0.73644 0.0
O542 O 0.55707 0.03681 0.66657 0.0
C543 C 0.62216 0.07129 0.78261 0.0
C544 C 0.54229 0.02742 0.01344 0.0
C545 C 0.52169 0.0448 0.02375 0.0
C546 C 0.54521 1.01439 0.95092 0.0
C547 C 0.52702 1.0175 0.89768 0.0
H548 H 0.55668 0.02433 0.05317 0.0
H549 H 0.56109 1.00076 0.94576 0.0
S550 S 0.46856 0.05908 0.90048 0.0
N551 N 0.48232 0.0638 0.9762 0.0
N552 N 0.48735 0.03823 0.85949 0.0
C553 C 0.50608 0.03436 0.90761 0.0
C554 C 0.50338 0.04808 0.97071 0.0
C555 C 0.52781 0.50721 0.50881 0.0
C556 C 0.54433 0.52783 0.49137 0.0
C557 C 0.51564 0.50635 0.57307 0.0
C558 C 0.51882 0.52659 0.62087 0.0
H559 H 0.52473 0.49125 0.47345 0.0
H560 H 0.50266 0.49032 0.58394 0.0
S561 S 0.55775 0.58624 0.59758 0.0
N562 N 0.56221 0.56961 0.52579 0.0
N563 N 0.53817 0.56844 0.64558 0.0
C564 C 0.53459 0.54769 0.60343 0.0
C565 C 0.54746 0.54831 0.53866 0.0
C566 C 0.04042 0.51169 0.05555 0.0
C567 C 1.01958 0.51711 0.10013 0.0
C568 C 0.0394 0.51868 0.986 0.0
C569 C 1.01767 0.53155 0.95891 0.0
H570 H 0.05703 0.50074 0.07345 0.0
H571 H 0.05591 0.51438 0.95334 0.0
S572 S 0.95892 0.55155 0.05616 0.0
N573 N 0.97724 0.53685 0.11381 0.0
N574 N 0.97535 0.55051 0.98309 0.0
C575 C 0.99698 0.5376 0.00349 0.0
C576 C 0.99809 0.53054 0.07429 0.0
C577 C 1.01549 1.00252 0.52632 0.0
C578 C 0.0282 0.02311 0.55954 0.0
C579 C 1.00918 1.00403 0.45645 0.0
C580 C 1.01522 0.02628 0.41764 0.0
H581 H 1.01111 0.98482 0.55416 0.0
H582 H 0.99861 0.98806 0.43349 0.0
S583 S 0.04872 0.08532 0.47989 0.0
N584 N 0.04703 0.06625 0.54814 0.0
N585 N 0.03468 0.06915 0.41666 0.0
C586 C 0.02803 0.04692 0.45003 0.0
C587 C 0.03439 0.04546 0.52123 0.0
C588 C 0.53899 0.52621 0.9822 0.0
C589 C 0.51751 0.51337 0.95365 0.0
C590 C 0.53915 0.53359 0.05149 0.0
C591 C 0.51772 0.52856 0.09433 0.0
H592 H 0.55606 0.52993 0.95113 0.0
H593 H 0.55572 0.54428 0.07067 0.0
S594 S 0.45694 0.49528 0.04546 0.0
N595 N 0.4744 0.49559 0.97407 0.0
N596 N 0.47477 0.50985 0.10441 0.0
C597 C 0.49627 0.51556 0.06677 0.0
C598 C 0.49599 0.50816 0.99617 0.0
C599 C 0.02338 0.50951 0.54822 0.0
C600 C 1.00269 0.52716 0.5474 0.0
C601 C 0.04066 0.5081 0.4932 0.0
C602 C 0.03815 0.52454 0.43567 0.0
H603 H 0.02588 0.49609 0.59067 0.0
H604 H 0.0563 0.49414 0.49651 0.0
S605 S 0.98793 0.57509 0.40973 0.0
N606 N 0.98109 0.56219 0.48543 0.0
N607 N 1.01364 0.5593 0.38142 0.0
C608 C 1.01767 0.54245 0.43425 0.0
C609 C 1.00008 0.54399 0.49058 0.0
C610 C 0.03716 1.0167 0.00423 0.0
C611 C 1.01677 0.99961 0.01962 0.0
C612 C 0.03804 0.02969 0.9412 0.0
C613 C 1.01802 0.02683 0.89272 0.0
H614 H 0.05309 1.01934 0.03983 0.0
H615 H 0.05401 0.04286 0.93166 0.0
S616 S 0.95863 0.98722 0.9119 0.0
N617 N 0.97513 0.98199 0.98338 0.0
N618 N 0.97637 1.0075 0.86587 0.0
C619 C 0.99698 1.01075 0.90857 0.0
C620 C 0.99633 0.99706 0.97209 0.0
C621 C 0.5154 0.99997 0.48561 0.0
C622 C 0.49805 1.02065 0.47625 0.0
C623 C 0.52893 0.99711 0.54728 0.0
C624 C 0.52631 1.01541 0.60056 0.0
H625 H 0.51804 0.98542 0.44591 0.0
H626 H 0.54247 0.98113 0.55177 0.0
S627 S 0.48514 0.07423 0.59968 0.0
N628 N 0.47977 0.06035 0.52435 0.0
N629 N 0.50614 0.05533 0.63962 0.0
C630 C 0.50952 0.03647 0.59145 0.0
C631 C 0.49535 0.03915 0.52917 0.0
C632 C 0.5386 0.2765 0.07697 0.0
C633 C 0.53698 0.25031 0.05622 0.0
C634 C 0.53806 0.29702 0.02881 0.0
C635 C 0.53617 0.2923 0.95741 0.0
H636 H 0.54096 0.28118 0.13102 0.0
H637 H 0.54045 0.3166 0.04776 0.0
S638 S 0.53203 0.22741 0.87506 0.0
N639 N 0.53383 0.22107 0.95828 0.0
N640 N 0.53252 0.25934 0.86856 0.0
C641 C 0.53422 0.26625 0.93602 0.0
C642 C 0.53463 0.24539 0.98503 0.0
C643 C 0.26861 0.53335 0.56264 0.0
C644 C 0.29471 0.53743 0.5437 0.0
C645 C 0.24849 0.53362 0.51355 0.0
C646 C 0.25349 0.53828 0.4432 0.0
H647 H 0.26358 0.53066 0.6164 0.0
H648 H 0.22877 0.5316 0.53177 0.0
S649 S 0.3183 0.55043 0.36607 0.0
N650 N 0.32422 0.54646 0.44898 0.0
N651 N 0.2867 0.54669 0.35713 0.0
C652 C 0.27955 0.54188 0.42337 0.0
C653 C 0.30005 0.54147 0.4733 0.0
C654 C 1.00814 0.26857 0.06908 0.0
C655 C 1.00649 0.29488 0.04942 0.0
C656 C 1.00781 0.24832 0.02012 0.0
C657 C 1.00563 0.25339 0.94896 0.0
H658 H 1.00901 0.2635 0.12321 0.0
H659 H 1.00792 0.22857 0.03886 0.0
S660 S 1.00005 0.31879 0.86958 0.0
N661 N 1.00196 0.32463 0.95302 0.0
N662 N 1.00203 0.28697 0.86151 0.0
C663 C 1.00439 0.27965 0.92852 0.0
C664 C 1.0047 0.30024 0.97838 0.0
C665 C 0.27372 1.00998 0.55492 0.0
C666 C 0.24769 1.0065 0.53477 0.0
C667 C 0.29424 1.0095 0.50673 0.0
C668 C 0.28975 1.00525 0.43596 0.0
H669 H 0.27838 1.0125 0.60893 0.0
H670 H 0.31383 1.01118 0.52592 0.0
S671 S 0.22538 0.99426 0.35564 0.0
N672 N 0.21888 0.9981 0.43832 0.0
N673 N 0.25709 0.99754 0.3483 0.0
C674 C 0.2638 1.00204 0.41496 0.0
C675 C 0.2429 1.00264 0.46399 0.0
C676 C 0.50594 0.74716 0.98365 0.0
C677 C 0.50533 0.75235 0.05501 0.0
C678 C 0.50559 0.76732 0.93443 0.0
C679 C 0.50473 0.79367 0.95396 0.0
H680 H 0.50542 0.7274 0.96508 0.0
H681 H 0.5054 0.76216 0.8803 0.0
S682 S 0.50177 0.81798 0.13407 0.0
N683 N 0.50367 0.78616 0.14235 0.0
N684 N 0.50215 0.82364 0.05037 0.0
C685 C 0.50423 0.79917 0.02506 0.0
C686 C 0.50468 0.77867 0.07521 0.0
C687 C 0.79531 0.50399 0.48993 0.0
C688 C 0.79047 0.50555 0.56132 0.0
C689 C 0.7749 0.50396 0.44163 0.0
C690 C 0.74873 0.50591 0.46227 0.0
H691 H 0.8149 0.50141 0.47115 0.0
H692 H 0.77963 0.5017 0.38754 0.0
S693 S 0.72569 0.5108 0.6435 0.0
N694 N 0.75755 0.50947 0.65016 0.0
N695 N 0.71945 0.50954 0.56018 0.0
C696 C 0.74374 0.5082 0.53351 0.0
C697 C 0.7645 0.50793 0.58267 0.0
C698 C 0.04015 0.76585 0.062 0.0
C699 C 0.03727 0.79197 0.04158 0.0
C700 C 0.03974 0.74533 0.01387 0.0
C701 C 0.03667 0.74995 0.94273 0.0
H702 H 0.04341 0.76123 0.11577 0.0
H703 H 0.04315 0.72588 0.03259 0.0
S704 S 0.02906 0.81464 0.86102 0.0
N705 N 0.03176 0.82105 0.94402 0.0
N706 N 0.03062 0.78275 0.8544 0.0
C707 C 0.03349 0.77591 0.92162 0.0
C708 C 0.03381 0.7968 0.97064 0.0
C709 C 0.76837 0.03427 0.43842 0.0
C710 C 0.79449 0.03739 0.45823 0.0
C711 C 0.74796 0.03465 0.48695 0.0
C712 C 0.75264 0.03828 0.55789 0.0
H713 H 0.76355 0.03211 0.3844 0.0
H714 H 0.72836 0.03332 0.46782 0.0
S715 S 0.81736 0.04848 0.63735 0.0
N716 N 0.82358 0.04524 0.55435 0.0
N717 N 0.78567 0.04516 0.64521 0.0
C718 C 0.77871 0.04118 0.5785 0.0
C719 C 0.79947 0.04087 0.52902 0.0
C720 C 0.46049 0.11019 0.30057 0.0
C721 C 0.46586 0.11463 0.23031 0.0
C722 C 0.44188 0.09169 0.32169 0.0
C723 C 0.4278 0.07678 0.27353 0.0
H724 H 0.47302 0.11856 0.33942 0.0
H725 H 0.44093 0.08671 0.3759 0.0
S726 S 0.43172 0.08369 0.08376 0.0
N727 N 0.45306 0.10489 0.11298 0.0
N728 N 0.41838 0.07025 0.15253 0.0
C729 C 0.43082 0.08327 0.20358 0.0
C730 C 0.44974 0.10212 0.18207 0.0
C731 C 0.46301 0.4352 0.71033 0.0
C732 C 0.46531 0.4294 0.78098 0.0
C733 C 0.44502 0.45378 0.6864 0.0
C734 C 0.42846 0.46731 0.73196 0.0
H735 H 0.47747 0.42804 0.67452 0.0
H736 H 0.44647 0.46 0.63317 0.0
S737 S 0.42306 0.45533 0.91957 0.0
N738 N 0.44658 0.43572 0.89444 0.0
N739 N 0.41282 0.47032 0.84944 0.0
C740 C 0.42823 0.45912 0.80104 0.0
C741 C 0.44664 0.4403 0.8255 0.0
C742 C 0.11135 0.46195 0.19597 0.0
C743 C 0.11674 0.46841 0.26506 0.0
C744 C 0.0923 0.44336 0.17876 0.0
C745 C 0.07762 0.43048 0.2298 0.0
H746 H 0.11952 0.47363 0.15489 0.0
H747 H 0.08673 0.44158 0.12514 0.0
S748 S 0.08637 0.43791 0.41828 0.0
N749 N 0.10789 0.45801 0.38464 0.0
N750 N 0.07199 0.42361 0.35241 0.0
C751 C 0.08487 0.43465 0.29878 0.0
C752 C 0.10441 0.45344 0.31632 0.0
C753 C 0.09775 0.09418 0.66928 0.0
C754 C 0.11107 0.07766 0.71526 0.0
C755 C 0.07997 0.11308 0.69291 0.0
C756 C 0.07459 0.11624 0.76364 0.0
H757 H 0.09866 0.09035 0.61441 0.0
H758 H 0.06792 0.1228 0.6552 0.0
S759 S 0.10637 0.08014 0.90566 0.0
N760 N 0.11955 0.06785 0.83518 0.0
N761 N 0.08626 0.10303 0.87941 0.0
C762 C 0.08993 0.10187 0.81011 0.0
C763 C 0.10808 0.0827 0.78605 0.0
C764 C 0.61506 0.95464 0.79884 0.0
C765 C 0.61938 0.96173 0.72964 0.0
C766 C 0.59611 0.936 0.81695 0.0
C767 C 0.58057 0.92373 0.76671 0.0
H768 H 0.62364 0.9661 0.83966 0.0
H769 H 0.5911 0.934 0.87095 0.0
S770 S 0.5873 0.93211 0.57797 0.0
N771 N 0.60924 0.95195 0.61053 0.0
N772 N 0.57367 0.91744 0.64449 0.0
C773 C 0.58723 0.92807 0.69738 0.0
C774 C 0.60661 0.94689 0.67893 0.0
C775 C 0.59094 0.59793 0.17987 0.0
C776 C 0.57679 0.6138 0.22585 0.0
C777 C 0.60928 0.57965 0.20353 0.0
C778 C 0.61433 0.57637 0.27432 0.0
H779 H 0.58543 0.59728 0.12602 0.0
H780 H 0.61698 0.56577 0.16689 0.0
S781 S 0.58578 0.61583 0.41512 0.0
N782 N 0.57185 0.62724 0.34476 0.0
N783 N 0.60614 0.59308 0.38913 0.0
C784 C 0.60267 0.59424 0.31982 0.0
C785 C 0.584 0.6129 0.29567 0.0
C786 C 0.95946 0.60947 0.71048 0.0
C787 C 0.9634 0.61378 0.78135 0.0
C788 C 0.94068 0.59162 0.68693 0.0
C789 C 0.92504 0.57729 0.73315 0.0
H790 H 0.9732 0.6172 0.67351 0.0
H791 H 0.94086 0.58645 0.63278 0.0
S792 S 0.92357 0.58599 0.92245 0.0
N793 N 0.94687 0.6057 0.89646 0.0
N794 N 0.91175 0.57237 0.85213 0.0
C795 C 0.92635 0.58422 0.80307 0.0
C796 C 0.94551 0.60232 0.82714 0.0
C797 C 0.94809 0.95275 0.32675 0.0
C798 C 0.93223 0.96706 0.28131 0.0
C799 C 0.96565 0.93377 0.30262 0.0
C800 C 0.96828 0.92828 0.23181 0.0
H801 H 0.94922 0.95844 0.38045 0.0
H802 H 0.97955 0.92584 0.33873 0.0
S803 S 0.92871 0.95741 0.09238 0.0
N804 N 0.91814 0.97191 0.16299 0.0
N805 N 0.95107 0.93653 0.11768 0.0
C806 C 0.95046 0.9403 0.18695 0.0
C807 C 0.93249 0.95958 0.21161 0.0
C808 C 0.5944 0.10544 0.83574 0.0
C809 C 0.61784 0.09123 0.83715 0.0
C810 C 0.58547 0.11912 0.89343 0.0
C811 C 0.59969 0.11934 0.9548 0.0
H812 H 0.58177 0.10442 0.79126 0.0
H813 H 0.56613 0.12732 0.89211 0.0
S814 S 0.66525 0.09146 0.98028 0.0
N815 N 0.65726 0.08246 0.90133 0.0
N816 N 0.64075 0.10901 0.00947 0.0
C817 C 0.62471 0.10835 0.95406 0.0
C818 C 0.63376 0.09408 0.89527 0.0
C819 C 0.4469 0.62015 0.46836 0.0
C820 C 0.42853 0.59994 0.46321 0.0
C821 C 0.45829 0.63113 0.40919 0.0
C822 C 0.45148 0.62226 0.34329 0.0
H823 H 0.45433 0.62571 0.51843 0.0
H824 H 0.47428 0.64454 0.41539 0.0
S825 S 0.40037 0.57402 0.30216 0.0
N826 N 0.40114 0.57469 0.38724 0.0
N827 N 0.42207 0.59547 0.27612 0.0
C828 C 0.4308 0.60449 0.3377 0.0
C829 C 0.41935 0.59332 0.39774 0.0
C830 C 0.92542 0.44426 0.96261 0.0
C831 C 0.94628 0.42662 0.9578 0.0
C832 C 0.91501 0.45614 0.90348 0.0
C833 C 0.9252 0.45063 0.83794 0.0
H834 H 0.91898 0.45094 0.01275 0.0
H835 H 0.90093 0.47154 0.90983 0.0
S836 S 0.97558 0.40151 0.79706 0.0
N837 N 0.97353 0.40106 0.88203 0.0
N838 N 0.95394 0.42296 0.77084 0.0
C839 C 0.94371 0.4306 0.8322 0.0
C840 C 0.95423 0.41859 0.89225 0.0
C841 C 0.08962 0.91599 0.38191 0.0
C842 C 0.09514 0.92583 0.31604 0.0
C843 C 0.10196 0.92631 0.44042 0.0
C844 C 0.12012 0.94666 0.43452 0.0
H845 H 0.07376 0.90248 0.38908 0.0
H846 H 0.09507 0.92048 0.49089 0.0
S847 S 0.14547 0.97461 0.27247 0.0
N848 N 0.12335 0.95347 0.24736 0.0
N849 N 0.14622 0.97283 0.35746 0.0
C850 C 0.12825 0.95401 0.36859 0.0
C851 C 0.11573 0.94363 0.30917 0.0
C852 C 0.61417 0.43945 0.0658 0.0
C853 C 0.59349 0.4217 0.07276 0.0
C854 C 0.6243 0.45261 0.12336 0.0
C855 C 0.61395 0.44836 0.18937 0.0
H856 H 0.62044 0.44541 0.01487 0.0
H857 H 0.63818 0.46807 0.11505 0.0
S858 S 0.56386 0.39976 0.23623 0.0
N859 N 0.56623 0.39753 0.15152 0.0
N860 N 0.58527 0.42186 0.25979 0.0
C861 C 0.59569 0.42824 0.19766 0.0
C862 C 0.58549 0.41491 0.13923 0.0
C863 C 0.10492 0.61814 0.55885 0.0
C864 C 0.11588 0.59313 0.55466 0.0
C865 C 0.09177 0.62652 0.61861 0.0
C866 C 0.0893 0.61016 0.67632 0.0
H867 H 0.10485 0.63058 0.51386 0.0
H868 H 0.08206 0.64515 0.61775 0.0
S869 S 0.11977 0.54511 0.69597 0.0
N870 N 0.12685 0.55381 0.61626 0.0
N871 N 0.10317 0.5695 0.72913 0.0
C872 C 0.10278 0.58625 0.675 0.0
C873 C 0.11592 0.57779 0.61415 0.0
C874 C 0.9429 0.11184 0.17035 0.0
C875 C 0.92354 0.09258 0.16479 0.0
C876 C 0.95336 0.12397 0.11185 0.0
C877 C 0.94484 0.1172 0.04577 0.0
H878 H 0.95162 0.11597 0.21993 0.0
H879 H 0.96994 0.13665 0.11802 0.0
S880 S 0.89135 0.07186 0.00365 0.0
N881 N 0.89374 0.07026 0.0885 0.0
N882 N 0.9132 0.0933 0.97831 0.0
C883 C 0.92337 0.10042 0.04001 0.0
C884 C 0.91275 0.08799 0.09968 0.0
C885 C 0.42235 0.95744 0.60906 0.0
C886 C 0.42168 0.94307 0.54787 0.0
C887 C 0.43645 0.94864 0.66608 0.0
C888 C 0.45061 0.92515 0.66418 0.0
H889 H 0.41426 0.97684 0.61053 0.0
H890 H 0.43783 0.96141 0.7103 0.0
S891 S 0.44942 0.87742 0.52152 0.0
N892 N 0.43167 0.90187 0.49306 0.0
N893 N 0.4589 0.88555 0.59995 0.0
C894 C 0.4473 0.90907 0.60646 0.0
C895 C 0.43261 0.91799 0.54837 0.0
C896 C 0.42992 0.94815 0.03687 0.0
C897 C 0.4494 0.92904 0.04264 0.0
C898 C 0.41876 0.9596 0.09573 0.0
C899 C 0.42672 0.95211 0.16195 0.0
H900 H 0.42511 0.95605 0.98673 0.0
H901 H 0.40594 0.97607 0.08926 0.0
S902 S 0.4728 0.89918 0.20427 0.0
N903 N 0.47295 0.90038 0.11919 0.0
N904 N 0.4519 0.92151 0.22975 0.0
C905 C 0.44376 0.93085 0.16794 0.0
C906 C 0.45509 0.91931 0.10819 0.0
C907 C 0.59279 0.41445 0.63108 0.0
C908 C 0.59265 0.42925 0.69193 0.0
C909 C 0.6054 0.42361 0.57138 0.0
C910 C 0.61794 0.44794 0.57056 0.0
H911 H 0.5814 0.39684 0.62777 0.0
H912 H 0.60352 0.4126 0.52413 0.0
S913 S 0.62878 0.4907 0.72087 0.0
N914 N 0.61092 0.46669 0.75127 0.0
N915 N 0.63356 0.48407 0.63858 0.0
C916 C 0.62072 0.46113 0.6331 0.0
C917 C 0.6082 0.45181 0.69387 0.0
C918 C 0.0969 0.63093 0.11363 0.0
C919 C 0.10113 0.62212 0.04624 0.0
C920 C 0.10852 0.61834 0.16983 0.0
C921 C 0.12466 0.5965 0.16042 0.0
H922 H 0.08212 0.6454 0.12362 0.0
H923 H 0.1024 0.6238 0.2213 0.0
S924 S 0.14597 0.56958 0.99299 0.0
N925 N 0.12612 0.59348 0.97218 0.0
N926 N 0.14753 0.56951 0.07807 0.0
C927 C 0.13183 0.58991 0.093 0.0
C928 C 0.12015 0.60287 0.03569 0.0
C929 C 0.95329 0.13401 0.59714 0.0
C930 C 0.94681 0.12549 0.66366 0.0
C931 C 0.94147 0.12284 0.53895 0.0
C932 C 0.92303 0.10275 0.54578 0.0
H933 H 0.96957 0.14699 0.58963 0.0
H934 H 0.949 0.12774 0.48843 0.0
S935 S 0.89519 0.07831 0.70899 0.0
N936 N 0.91728 0.09964 0.73323 0.0
N937 N 0.89554 0.07847 0.62385 0.0
C938 C 0.91389 0.09683 0.61182 0.0
C939 C 0.92577 0.10823 0.67091 0.0
C940 C 0.42134 0.60089 0.97015 0.0
C941 C 0.44114 0.61962 0.96238 0.0
C942 C 0.41016 0.58865 0.91255 0.0
C943 C 0.41826 0.59507 0.84561 0.0
H944 H 0.41669 0.59352 0.02099 0.0
H945 H 0.39745 0.5722 0.92078 0.0
S946 S 0.46462 0.64711 0.79776 0.0
N947 N 0.46479 0.64708 0.8829 0.0
N948 N 0.44347 0.62469 0.77469 0.0
C949 C 0.43522 0.61631 0.83746 0.0
C950 C 0.4467 0.62855 0.89594 0.0
C951 C 0.93147 0.44433 0.335 0.0
C952 C 0.94882 0.42321 0.34037 0.0
C953 C 0.91836 0.4541 0.3927 0.0
C954 C 0.92195 0.44298 0.4578 0.0
H955 H 0.92985 0.45496 0.28699 0.0
H956 H 0.90773 0.47214 0.38764 0.0
S957 S 0.95972 0.38361 0.49679 0.0
N958 N 0.96494 0.38867 0.41377 0.0
N959 N 0.93961 0.40668 0.52227 0.0
C960 C 0.93595 0.41954 0.46196 0.0
C961 C 0.94968 0.40974 0.40316 0.0
C962 C 0.09046 0.93625 0.8139 0.0
C963 C 0.11421 0.94995 0.81462 0.0
C964 C 0.08141 0.92294 0.87206 0.0
C965 C 0.0958 0.9226 0.93311 0.0
H966 H 0.07776 0.93733 0.76959 0.0
H967 H 0.06191 0.91512 0.8713 0.0
S968 S 0.16179 0.94947 0.95745 0.0
N969 N 0.1539 0.95821 0.87823 0.0
N970 N 0.13702 0.93249 0.98729 0.0
C971 C 0.121 0.93308 0.93183 0.0
C972 C 0.13019 0.94698 0.87263 0.0
C973 C 0.58441 0.1238 0.40469 0.0
C974 C 0.59111 0.1153 0.33827 0.0
C975 C 0.59631 0.11286 0.46312 0.0
C976 C 0.61511 0.09308 0.45672 0.0
H977 H 0.56818 0.13686 0.41186 0.0
H978 H 0.58894 0.11803 0.51362 0.0
S979 S 0.64296 0.06823 0.29388 0.0
N980 N 0.62069 0.0893 0.26925 0.0
N981 N 0.64262 0.06864 0.37902 0.0
C982 C 0.62408 0.08685 0.39071 0.0
C983 C 0.61209 0.09796 0.3314 0.0
loop_
_geom_bond_atom_site_label_1
_geom_bond_atom_site_label_2
_geom_bond_distance
_geom_bond_site_symmetry_2
_ccdc_geom_bond_type
Co0 O3 1.970 . S
Co0 N17 1.989 1_554 S
Co0 O25 1.967 . S
Co0 O32 1.920 . S
Co1 O4 1.966 . S
Co1 N10 2.022 . S
Co1 N18 1.993 . S
Co1 O26 1.941 . S
C2 O3 1.258 . S
C2 O4 1.263 . S
O3 Co0 1.970 . S
O3 C2 1.258 . S
O4 Co1 1.966 . S
O4 C2 1.263 . S
C5 O6 1.235 1_554 S
C5 O32 1.289 . S
O6 C5 1.235 1_556 S
C7 C9 1.400 . S
C7 N10 1.351 . S
C7 C12 1.501 . S
C8 C9 1.387 . S
C8 N11 1.341 . S
C9 C7 1.400 . S
C9 C8 1.387 . S
N10 Co1 2.022 . S
N10 C7 1.351 . S
N10 N11 1.365 . S
N11 C8 1.341 . S
N11 N10 1.365 . S
N11 H31 0.862 . S
C12 C7 1.501 . S
C12 H13 0.961 . S
C12 H14 0.961 . S
C12 H15 0.960 . S
H13 C12 0.961 . S
H14 C12 0.961 . S
H15 C12 0.960 . S
C16 N17 1.342 . S
C16 C20 1.401 . S
C16 C21 1.499 . S
N17 Co0 1.989 1_556 S
N17 C16 1.342 . S
N17 N18 1.388 1_556 S
N18 Co1 1.993 . S
N18 N17 1.388 1_554 S
N18 C19 1.346 1_554 S
C19 N18 1.346 1_556 S
C19 C20 1.396 . S
C19 C29 1.510 . S
C20 C16 1.401 . S
C20 C19 1.396 . S
C21 C16 1.499 . S
C21 H22 0.959 . S
C21 H23 0.960 . S
C21 H24 0.961 . S
H22 C21 0.959 . S
H23 C21 0.960 . S
H24 C21 0.961 . S
O25 Co0 1.967 . S
O25 C33 1.258 . S
O26 Co1 1.941 . S
O26 C33 1.266 . S
H27 C29 0.959 . S
H28 C29 0.961 . S
C29 C19 1.510 . S
C29 H27 0.959 . S
C29 H28 0.961 . S
C29 H30 0.960 . S
H30 C29 0.960 . S
H31 N11 0.862 . S
O32 Co0 1.920 . S
O32 C5 1.289 . S
C33 O25 1.258 . S
C33 O26 1.266 . S
Co34 O37 1.970 . S
Co34 N51 1.989 . S
Co34 O59 1.967 . S
Co34 O66 1.920 . S
Co35 O38 1.966 . S
Co35 N44 2.022 . S
Co35 N52 1.993 . S
Co35 O60 1.941 . S
C36 O37 1.258 . S
C36 O38 1.263 . S
O37 Co34 1.970 . S
O37 C36 1.258 . S
O38 Co35 1.966 . S
O38 C36 1.263 . S
C39 O40 1.235 . S
C39 O66 1.289 . S
O40 C39 1.235 . S
C41 C43 1.400 . S
C41 N44 1.351 . S
C41 C46 1.501 . S
C42 C43 1.387 . S
C42 N45 1.341 . S
C43 C41 1.400 . S
C43 C42 1.387 . S
N44 Co35 2.022 . S
N44 C41 1.351 . S
N44 N45 1.365 . S
N45 C42 1.341 . S
N45 N44 1.365 . S
N45 H65 0.862 . S
C46 C41 1.501 . S
C46 H47 0.961 . S
C46 H48 0.961 . S
C46 H49 0.960 . S
H47 C46 0.961 . S
H48 C46 0.961 . S
H49 C46 0.960 . S
C50 N51 1.342 . S
C50 C54 1.401 . S
C50 C55 1.499 . S
N51 Co34 1.989 . S
N51 C50 1.342 . S
N51 N52 1.388 . S
N52 Co35 1.993 . S
N52 N51 1.388 . S
N52 C53 1.346 . S
C53 N52 1.346 . S
C53 C54 1.396 . S
C53 C63 1.510 . S
C54 C50 1.401 . S
C54 C53 1.396 . S
C55 C50 1.499 . S
C55 H56 0.959 . S
C55 H57 0.960 . S
C55 H58 0.961 . S
H56 C55 0.959 . S
H57 C55 0.960 . S
H58 C55 0.961 . S
O59 Co34 1.967 . S
O59 C67 1.258 . S
O60 Co35 1.941 . S
O60 C67 1.266 . S
H61 C63 0.959 . S
H62 C63 0.961 . S
C63 C53 1.510 . S
C63 H61 0.959 . S
C63 H62 0.961 . S
C63 H64 0.960 . S
H64 C63 0.960 . S
H65 N45 0.862 . S
O66 Co34 1.920 . S
O66 C39 1.289 . S
C67 O59 1.258 . S
C67 O60 1.266 . S
Co68 O71 1.970 1_655 S
Co68 N85 1.989 1_554 S
Co68 O93 1.967 . S
Co68 O100 1.920 . S
Co69 O72 1.966 1_655 S
Co69 N78 2.022 . S
Co69 N86 1.993 . S
Co69 O94 1.941 . S
C70 O71 1.258 . S
C70 O72 1.263 . S
O71 Co68 1.970 1_455 S
O71 C70 1.258 . S
O72 Co69 1.966 1_455 S
O72 C70 1.263 . S
C73 O74 1.235 1_654 S
C73 O100 1.289 . S
O74 C73 1.235 1_456 S
C75 C77 1.400 . S
C75 N78 1.351 . S
C75 C80 1.501 1_655 S
C76 C77 1.387 . S
C76 N79 1.341 . S
C77 C75 1.400 . S
C77 C76 1.387 . S
N78 Co69 2.022 . S
N78 C75 1.351 . S
N78 N79 1.365 . S
N79 C76 1.341 . S
N79 N78 1.365 . S
N79 H99 0.862 . S
C80 C75 1.501 1_455 S
C80 H81 0.961 . S
C80 H82 0.961 . S
C80 H83 0.960 . S
H81 C80 0.961 . S
H82 C80 0.961 . S
H83 C80 0.960 . S
C84 N85 1.342 . S
C84 C88 1.401 . S
C84 C89 1.499 . S
N85 Co68 1.989 1_556 S
N85 C84 1.342 . S
N85 N86 1.388 1_556 S
N86 Co69 1.993 . S
N86 N85 1.388 1_554 S
N86 C87 1.346 1_554 S
C87 N86 1.346 1_556 S
C87 C88 1.396 . S
C87 C97 1.510 . S
C88 C84 1.401 . S
C88 C87 1.396 . S
C89 C84 1.499 . S
C89 H90 0.959 . S
C89 H91 0.960 . S
C89 H92 0.961 . S
H90 C89 0.959 . S
H91 C89 0.960 . S
H92 C89 0.961 . S
O93 Co68 1.967 . S
O93 C101 1.258 . S
O94 Co69 1.941 . S
O94 C101 1.266 . S
H95 C97 0.959 . S
H96 C97 0.961 . S
C97 C87 1.510 . S
C97 H95 0.959 . S
C97 H96 0.961 . S
C97 H98 0.960 . S
H98 C97 0.960 . S
H99 N79 0.862 . S
O100 Co68 1.920 . S
O100 C73 1.289 . S
C101 O93 1.258 . S
C101 O94 1.266 . S
Co102 O105 1.970 1_565 S
Co102 N119 1.989 . S
Co102 O127 1.967 . S
Co102 O134 1.920 . S
Co103 O106 1.966 1_565 S
Co103 N112 2.022 . S
Co103 N120 1.993 . S
Co103 O128 1.941 . S
C104 O105 1.258 . S
C104 O106 1.263 . S
O105 Co102 1.970 1_545 S
O105 C104 1.258 . S
O106 Co103 1.966 1_545 S
O106 C104 1.263 . S
C107 O108 1.235 1_565 S
C107 O134 1.289 . S
O108 C107 1.235 1_545 S
C109 C111 1.400 . S
C109 N112 1.351 . S
C109 C114 1.501 1_565 S
C110 C111 1.387 . S
C110 N113 1.341 . S
C111 C109 1.400 . S
C111 C110 1.387 . S
N112 Co103 2.022 . S
N112 C109 1.351 . S
N112 N113 1.365 . S
N113 C110 1.341 . S
N113 N112 1.365 . S
N113 H133 0.862 . S
C114 C109 1.501 1_545 S
C114 H115 0.961 . S
C114 H116 0.961 . S
C114 H117 0.960 . S
H115 C114 0.961 . S
H116 C114 0.961 . S
H117 C114 0.960 . S
C118 N119 1.342 . S
C118 C122 1.401 . S
C118 C123 1.499 . S
N119 Co102 1.989 . S
N119 C118 1.342 . S
N119 N120 1.388 . S
N120 Co103 1.993 . S
N120 N119 1.388 . S
N120 C121 1.346 . S
C121 N120 1.346 . S
C121 C122 1.396 . S
C121 C131 1.510 . S
C122 C118 1.401 . S
C122 C121 1.396 . S
C123 C118 1.499 . S
C123 H124 0.959 . S
C123 H125 0.960 . S
C123 H126 0.961 . S
H124 C123 0.959 . S
H125 C123 0.960 . S
H126 C123 0.961 . S
O127 Co102 1.967 . S
O127 C135 1.258 . S
O128 Co103 1.941 . S
O128 C135 1.266 . S
H129 C131 0.959 . S
H130 C131 0.961 . S
C131 C121 1.510 . S
C131 H129 0.959 . S
C131 H130 0.961 . S
C131 H132 0.960 . S
H132 C131 0.960 . S
H133 N113 0.862 . S
O134 Co102 1.920 . S
O134 C107 1.289 . S
C135 O127 1.258 . S
C135 O128 1.266 . S
Co136 O139 1.970 . S
Co136 N153 1.989 1_556 S
Co136 O161 1.967 . S
Co136 O168 1.920 . S
Co137 O140 1.966 . S
Co137 N146 2.022 . S
Co137 N154 1.993 . S
Co137 O162 1.941 . S
C138 O139 1.258 . S
C138 O140 1.263 . S
O139 Co136 1.970 . S
O139 C138 1.258 . S
O140 Co137 1.966 . S
O140 C138 1.263 . S
C141 O142 1.235 1_556 S
C141 O168 1.289 . S
O142 C141 1.235 1_554 S
C143 C145 1.400 . S
C143 N146 1.351 . S
C143 C148 1.501 . S
C144 C145 1.387 . S
C144 N147 1.341 . S
C145 C143 1.400 . S
C145 C144 1.387 . S
N146 Co137 2.022 . S
N146 C143 1.351 . S
N146 N147 1.365 . S
N147 C144 1.341 . S
N147 N146 1.365 . S
N147 H167 0.862 . S
C148 C143 1.501 . S
C148 H149 0.961 . S
C148 H150 0.961 . S
C148 H151 0.960 . S
H149 C148 0.961 . S
H150 C148 0.961 . S
H151 C148 0.960 . S
C152 N153 1.342 . S
C152 C156 1.401 . S
C152 C157 1.499 . S
N153 Co136 1.989 1_554 S
N153 C152 1.342 . S
N153 N154 1.388 1_554 S
N154 Co137 1.993 . S
N154 N153 1.388 1_556 S
N154 C155 1.346 1_556 S
C155 N154 1.346 1_554 S
C155 C156 1.396 . S
C155 C165 1.510 . S
C156 C152 1.401 . S
C156 C155 1.396 . S
C157 C152 1.499 . S
C157 H158 0.959 . S
C157 H159 0.960 . S
C157 H160 0.961 . S
H158 C157 0.959 . S
H159 C157 0.960 . S
H160 C157 0.961 . S
O161 Co136 1.967 . S
O161 C169 1.258 . S
O162 Co137 1.941 . S
O162 C169 1.266 . S
H163 C165 0.959 . S
H164 C165 0.961 . S
C165 C155 1.510 . S
C165 H163 0.959 . S
C165 H164 0.961 . S
C165 H166 0.960 . S
H166 C165 0.960 . S
H167 N147 0.862 . S
O168 Co136 1.920 . S
O168 C141 1.289 . S
C169 O161 1.258 . S
C169 O162 1.266 . S
Co170 O173 1.970 . S
Co170 N187 1.989 . S
Co170 O195 1.967 . S
Co170 O202 1.920 . S
Co171 O174 1.966 . S
Co171 N180 2.022 . S
Co171 N188 1.993 . S
Co171 O196 1.941 . S
C172 O173 1.258 . S
C172 O174 1.263 . S
O173 Co170 1.970 . S
O173 C172 1.258 . S
O174 Co171 1.966 . S
O174 C172 1.263 . S
C175 O176 1.235 . S
C175 O202 1.289 . S
O176 C175 1.235 . S
C177 C179 1.400 . S
C177 N180 1.351 . S
C177 C182 1.501 . S
C178 C179 1.387 . S
C178 N181 1.341 . S
C179 C177 1.400 . S
C179 C178 1.387 . S
N180 Co171 2.022 . S
N180 C177 1.351 . S
N180 N181 1.365 . S
N181 C178 1.341 . S
N181 N180 1.365 . S
N181 H201 0.862 . S
C182 C177 1.501 . S
C182 H183 0.961 . S
C182 H184 0.961 . S
C182 H185 0.960 . S
H183 C182 0.961 . S
H184 C182 0.961 . S
H185 C182 0.960 . S
C186 N187 1.342 . S
C186 C190 1.401 . S
C186 C191 1.499 . S
N187 Co170 1.989 . S
N187 C186 1.342 . S
N187 N188 1.388 . S
N188 Co171 1.993 . S
N188 N187 1.388 . S
N188 C189 1.346 . S
C189 N188 1.346 . S
C189 C190 1.396 . S
C189 C199 1.510 . S
C190 C186 1.401 . S
C190 C189 1.396 . S
C191 C186 1.499 . S
C191 H192 0.959 . S
C191 H193 0.960 . S
C191 H194 0.961 . S
H192 C191 0.959 . S
H193 C191 0.960 . S
H194 C191 0.961 . S
O195 Co170 1.967 . S
O195 C203 1.258 . S
O196 Co171 1.941 . S
O196 C203 1.266 . S
H197 C199 0.959 . S
H198 C199 0.961 . S
C199 C189 1.510 . S
C199 H197 0.959 . S
C199 H198 0.961 . S
C199 H200 0.960 . S
H200 C199 0.960 . S
H201 N181 0.862 . S
O202 Co170 1.920 . S
O202 C175 1.289 . S
C203 O195 1.258 . S
C203 O196 1.266 . S
Co204 O207 1.970 1_655 S
Co204 N221 1.989 1_556 S
Co204 O229 1.967 . S
Co204 O236 1.920 . S
Co205 O208 1.966 1_655 S
Co205 N214 2.022 . S
Co205 N222 1.993 . S
Co205 O230 1.941 . S
C206 O207 1.258 . S
C206 O208 1.263 . S
O207 Co204 1.970 1_455 S
O207 C206 1.258 . S
O208 Co205 1.966 1_455 S
O208 C206 1.263 . S
C209 O210 1.235 1_656 S
C209 O236 1.289 . S
O210 C209 1.235 1_454 S
C211 C213 1.400 . S
C211 N214 1.351 . S
C211 C216 1.501 1_655 S
C212 C213 1.387 . S
C212 N215 1.341 . S
C213 C211 1.400 . S
C213 C212 1.387 . S
N214 Co205 2.022 . S
N214 C211 1.351 . S
N214 N215 1.365 . S
N215 C212 1.341 . S
N215 N214 1.365 . S
N215 H235 0.862 . S
C216 C211 1.501 1_455 S
C216 H217 0.961 . S
C216 H218 0.961 . S
C216 H219 0.960 . S
H217 C216 0.961 . S
H218 C216 0.961 . S
H219 C216 0.960 . S
C220 N221 1.342 . S
C220 C224 1.401 . S
C220 C225 1.499 . S
N221 Co204 1.989 1_554 S
N221 C220 1.342 . S
N221 N222 1.388 1_554 S
N222 Co205 1.993 . S
N222 N221 1.388 1_556 S
N222 C223 1.346 1_556 S
C223 N222 1.346 1_554 S
C223 C224 1.396 . S
C223 C233 1.510 . S
C224 C220 1.401 . S
C224 C223 1.396 . S
C225 C220 1.499 . S
C225 H226 0.959 . S
C225 H227 0.960 . S
C225 H228 0.961 . S
H226 C225 0.959 . S
H227 C225 0.960 . S
H228 C225 0.961 . S
O229 Co204 1.967 . S
O229 C237 1.258 . S
O230 Co205 1.941 . S
O230 C237 1.266 . S
H231 C233 0.959 . S
H232 C233 0.961 . S
C233 C223 1.510 . S
C233 H231 0.959 . S
C233 H232 0.961 . S
C233 H234 0.960 . S
H234 C233 0.960 . S
H235 N215 0.862 . S
O236 Co204 1.920 . S
O236 C209 1.289 . S
C237 O229 1.258 . S
C237 O230 1.266 . S
Co238 O241 1.970 1_565 S
Co238 N255 1.989 . S
Co238 O263 1.967 . S
Co238 O270 1.920 . S
Co239 O242 1.966 1_565 S
Co239 N248 2.022 . S
Co239 N256 1.993 . S
Co239 O264 1.941 . S
C240 O241 1.258 . S
C240 O242 1.263 . S
O241 Co238 1.970 1_545 S
O241 C240 1.258 . S
O242 Co239 1.966 1_545 S
O242 C240 1.263 . S
C243 O244 1.235 1_565 S
C243 O270 1.289 . S
O244 C243 1.235 1_545 S
C245 C247 1.400 . S
C245 N248 1.351 . S
C245 C250 1.501 1_565 S
C246 C247 1.387 . S
C246 N249 1.341 . S
C247 C245 1.400 . S
C247 C246 1.387 . S
N248 Co239 2.022 . S
N248 C245 1.351 . S
N248 N249 1.365 . S
N249 C246 1.341 . S
N249 N248 1.365 . S
N249 H269 0.862 . S
C250 C245 1.501 1_545 S
C250 H251 0.961 . S
C250 H252 0.961 . S
C250 H253 0.960 . S
H251 C250 0.961 . S
H252 C250 0.961 . S
H253 C250 0.960 . S
C254 N255 1.342 . S
C254 C258 1.401 . S
C254 C259 1.499 . S
N255 Co238 1.989 . S
N255 C254 1.342 . S
N255 N256 1.388 . S
N256 Co239 1.993 . S
N256 N255 1.388 . S
N256 C257 1.346 . S
C257 N256 1.346 . S
C257 C258 1.396 . S
C257 C267 1.510 . S
C258 C254 1.401 . S
C258 C257 1.396 . S
C259 C254 1.499 . S
C259 H260 0.959 . S
C259 H261 0.960 . S
C259 H262 0.961 . S
H260 C259 0.959 . S
H261 C259 0.960 . S
H262 C259 0.961 . S
O263 Co238 1.967 . S
O263 C271 1.258 . S
O264 Co239 1.941 . S
O264 C271 1.266 . S
H265 C267 0.959 . S
H266 C267 0.961 . S
C267 C257 1.510 . S
C267 H265 0.959 . S
C267 H266 0.961 . S
C267 H268 0.960 . S
H268 C267 0.960 . S
H269 N249 0.862 . S
O270 Co238 1.920 . S
O270 C243 1.289 . S
C271 O263 1.258 . S
C271 O264 1.266 . S
Co272 O275 1.970 . S
Co272 N289 1.989 1_556 S
Co272 O297 1.967 . S
Co272 O304 1.920 . S
Co273 O276 1.966 . S
Co273 N282 2.022 . S
Co273 N290 1.993 . S
Co273 O298 1.941 . S
C274 O275 1.258 . S
C274 O276 1.263 . S
O275 Co272 1.970 . S
O275 C274 1.258 . S
O276 Co273 1.966 . S
O276 C274 1.263 . S
C277 O278 1.235 1_556 S
C277 O304 1.289 . S
O278 C277 1.235 1_554 S
C279 C281 1.400 . S
C279 N282 1.351 . S
C279 C284 1.501 . S
C280 C281 1.387 . S
C280 N283 1.341 . S
C281 C279 1.400 . S
C281 C280 1.387 . S
N282 Co273 2.022 . S
N282 C279 1.351 . S
N282 N283 1.365 . S
N283 C280 1.341 . S
N283 N282 1.365 . S
N283 H303 0.862 . S
C284 C279 1.501 . S
C284 H285 0.961 . S
C284 H286 0.961 . S
C284 H287 0.960 . S
H285 C284 0.961 . S
H286 C284 0.961 . S
H287 C284 0.960 . S
C288 N289 1.342 . S
C288 C292 1.401 . S
C288 C293 1.499 . S
N289 Co272 1.989 1_554 S
N289 C288 1.342 . S
N289 N290 1.388 1_554 S
N290 Co273 1.993 . S
N290 N289 1.388 1_556 S
N290 C291 1.346 1_556 S
C291 N290 1.346 1_554 S
C291 C292 1.396 . S
C291 C301 1.510 . S
C292 C288 1.401 . S
C292 C291 1.396 . S
C293 C288 1.499 . S
C293 H294 0.959 . S
C293 H295 0.960 . S
C293 H296 0.961 . S
H294 C293 0.959 . S
H295 C293 0.960 . S
H296 C293 0.961 . S
O297 Co272 1.967 . S
O297 C305 1.258 . S
O298 Co273 1.941 . S
O298 C305 1.266 . S
H299 C301 0.959 . S
H300 C301 0.961 . S
C301 C291 1.510 . S
C301 H299 0.959 . S
C301 H300 0.961 . S
C301 H302 0.960 . S
H302 C301 0.960 . S
H303 N283 0.862 . S
O304 Co272 1.920 . S
O304 C277 1.289 . S
C305 O297 1.258 . S
C305 O298 1.266 . S
Co306 O309 1.970 . S
Co306 N323 1.989 . S
Co306 O331 1.967 . S
Co306 O338 1.920 . S
Co307 O310 1.966 . S
Co307 N316 2.022 . S
Co307 N324 1.993 . S
Co307 O332 1.941 . S
C308 O309 1.258 . S
C308 O310 1.263 . S
O309 Co306 1.970 . S
O309 C308 1.258 . S
O310 Co307 1.966 . S
O310 C308 1.263 . S
C311 O312 1.235 . S
C311 O338 1.289 . S
O312 C311 1.235 . S
C313 C315 1.400 . S
C313 N316 1.351 . S
C313 C318 1.501 . S
C314 C315 1.387 . S
C314 N317 1.341 . S
C315 C313 1.400 . S
C315 C314 1.387 . S
N316 Co307 2.022 . S
N316 C313 1.351 . S
N316 N317 1.365 . S
N317 C314 1.341 . S
N317 N316 1.365 . S
N317 H337 0.862 . S
C318 C313 1.501 . S
C318 H319 0.961 . S
C318 H320 0.961 . S
C318 H321 0.960 . S
H319 C318 0.961 . S
H320 C318 0.961 . S
H321 C318 0.960 . S
C322 N323 1.342 . S
C322 C326 1.401 . S
C322 C327 1.499 . S
N323 Co306 1.989 . S
N323 C322 1.342 . S
N323 N324 1.388 . S
N324 Co307 1.993 . S
N324 N323 1.388 . S
N324 C325 1.346 . S
C325 N324 1.346 . S
C325 C326 1.396 . S
C325 C335 1.510 . S
C326 C322 1.401 . S
C326 C325 1.396 . S
C327 C322 1.499 . S
C327 H328 0.959 . S
C327 H329 0.960 . S
C327 H330 0.961 . S
H328 C327 0.959 . S
H329 C327 0.960 . S
H330 C327 0.961 . S
O331 Co306 1.967 . S
O331 C339 1.258 . S
O332 Co307 1.941 . S
O332 C339 1.266 . S
H333 C335 0.959 . S
H334 C335 0.961 . S
C335 C325 1.510 . S
C335 H333 0.959 . S
C335 H334 0.961 . S
C335 H336 0.960 . S
H336 C335 0.960 . S
H337 N317 0.862 . S
O338 Co306 1.920 . S
O338 C311 1.289 . S
C339 O331 1.258 . S
C339 O332 1.266 . S
Co340 O343 1.970 1_455 S
Co340 N357 1.989 1_556 S
Co340 O365 1.967 . S
Co340 O372 1.920 . S
Co341 O344 1.966 1_455 S
Co341 N350 2.022 . S
Co341 N358 1.993 . S
Co341 O366 1.941 . S
C342 O343 1.258 . S
C342 O344 1.263 . S
O343 Co340 1.970 1_655 S
O343 C342 1.258 . S
O344 Co341 1.966 1_655 S
O344 C342 1.263 . S
C345 O346 1.235 1_456 S
C345 O372 1.289 . S
O346 C345 1.235 1_654 S
C347 C349 1.400 . S
C347 N350 1.351 . S
C347 C352 1.501 1_455 S
C348 C349 1.387 . S
C348 N351 1.341 . S
C349 C347 1.400 . S
C349 C348 1.387 . S
N350 Co341 2.022 . S
N350 C347 1.351 . S
N350 N351 1.365 . S
N351 C348 1.341 . S
N351 N350 1.365 . S
N351 H371 0.862 . S
C352 C347 1.501 1_655 S
C352 H353 0.961 . S
C352 H354 0.961 . S
C352 H355 0.960 . S
H353 C352 0.961 . S
H354 C352 0.961 . S
H355 C352 0.960 . S
C356 N357 1.342 . S
C356 C360 1.401 . S
C356 C361 1.499 . S
N357 Co340 1.989 1_554 S
N357 C356 1.342 . S
N357 N358 1.388 1_554 S
N358 Co341 1.993 . S
N358 N357 1.388 1_556 S
N358 C359 1.346 1_556 S
C359 N358 1.346 1_554 S
C359 C360 1.396 . S
C359 C369 1.510 . S
C360 C356 1.401 . S
C360 C359 1.396 . S
C361 C356 1.499 . S
C361 H362 0.959 . S
C361 H363 0.960 . S
C361 H364 0.961 . S
H362 C361 0.959 . S
H363 C361 0.960 . S
H364 C361 0.961 . S
O365 Co340 1.967 . S
O365 C373 1.258 . S
O366 Co341 1.941 . S
O366 C373 1.266 . S
H367 C369 0.959 . S
H368 C369 0.961 . S
C369 C359 1.510 . S
C369 H367 0.959 . S
C369 H368 0.961 . S
C369 H370 0.960 . S
H370 C369 0.960 . S
H371 N351 0.862 . S
O372 Co340 1.920 . S
O372 C345 1.289 . S
C373 O365 1.258 . S
C373 O366 1.266 . S
Co374 O377 1.970 1_545 S
Co374 N391 1.989 . S
Co374 O399 1.967 . S
Co374 O406 1.920 . S
Co375 O378 1.966 1_545 S
Co375 N384 2.022 . S
Co375 N392 1.993 . S
Co375 O400 1.941 . S
C376 O377 1.258 . S
C376 O378 1.263 . S
O377 Co374 1.970 1_565 S
O377 C376 1.258 . S
O378 Co375 1.966 1_565 S
O378 C376 1.263 . S
C379 O380 1.235 1_545 S
C379 O406 1.289 . S
O380 C379 1.235 1_565 S
C381 C383 1.400 . S
C381 N384 1.351 . S
C381 C386 1.501 1_545 S
C382 C383 1.387 . S
C382 N385 1.341 . S
C383 C381 1.400 . S
C383 C382 1.387 . S
N384 Co375 2.022 . S
N384 C381 1.351 . S
N384 N385 1.365 . S
N385 C382 1.341 . S
N385 N384 1.365 . S
N385 H405 0.862 . S
C386 C381 1.501 1_565 S
C386 H387 0.961 . S
C386 H388 0.961 . S
C386 H389 0.960 . S
H387 C386 0.961 . S
H388 C386 0.961 . S
H389 C386 0.960 . S
C390 N391 1.342 . S
C390 C394 1.401 . S
C390 C395 1.499 . S
N391 Co374 1.989 . S
N391 C390 1.342 . S
N391 N392 1.388 . S
N392 Co375 1.993 . S
N392 N391 1.388 . S
N392 C393 1.346 . S
C393 N392 1.346 . S
C393 C394 1.396 . S
C393 C403 1.510 . S
C394 C390 1.401 . S
C394 C393 1.396 . S
C395 C390 1.499 . S
C395 H396 0.959 . S
C395 H397 0.960 . S
C395 H398 0.961 . S
H396 C395 0.959 . S
H397 C395 0.960 . S
H398 C395 0.961 . S
O399 Co374 1.967 . S
O399 C407 1.258 . S
O400 Co375 1.941 . S
O400 C407 1.266 . S
H401 C403 0.959 . S
H402 C403 0.961 . S
C403 C393 1.510 . S
C403 H401 0.959 . S
C403 H402 0.961 . S
C403 H404 0.960 . S
H404 C403 0.960 . S
H405 N385 0.862 . S
O406 Co374 1.920 . S
O406 C379 1.289 . S
C407 O399 1.258 . S
C407 O400 1.266 . S
Co408 O411 1.970 . S
Co408 N425 1.989 1_554 S
Co408 O433 1.967 . S
Co408 O440 1.920 . S
Co409 O412 1.966 . S
Co409 N418 2.022 . S
Co409 N426 1.993 . S
Co409 O434 1.941 . S
C410 O411 1.258 . S
C410 O412 1.263 . S
O411 Co408 1.970 . S
O411 C410 1.258 . S
O412 Co409 1.966 . S
O412 C410 1.263 . S
C413 O414 1.235 1_554 S
C413 O440 1.289 . S
O414 C413 1.235 1_556 S
C415 C417 1.400 . S
C415 N418 1.351 . S
C415 C420 1.501 . S
C416 C417 1.387 . S
C416 N419 1.341 . S
C417 C415 1.400 . S
C417 C416 1.387 . S
N418 Co409 2.022 . S
N418 C415 1.351 . S
N418 N419 1.365 . S
N419 C416 1.341 . S
N419 N418 1.365 . S
N419 H439 0.862 . S
C420 C415 1.501 . S
C420 H421 0.961 . S
C420 H422 0.961 . S
C420 H423 0.960 . S
H421 C420 0.961 . S
H422 C420 0.961 . S
H423 C420 0.960 . S
C424 N425 1.342 . S
C424 C428 1.401 . S
C424 C429 1.499 . S
N425 Co408 1.989 1_556 S
N425 C424 1.342 . S
N425 N426 1.388 1_556 S
N426 Co409 1.993 . S
N426 N425 1.388 1_554 S
N426 C427 1.346 1_554 S
C427 N426 1.346 1_556 S
C427 C428 1.396 . S
C427 C437 1.510 . S
C428 C424 1.401 . S
C428 C427 1.396 . S
C429 C424 1.499 . S
C429 H430 0.959 . S
C429 H431 0.960 . S
C429 H432 0.961 . S
H430 C429 0.959 . S
H431 C429 0.960 . S
H432 C429 0.961 . S
O433 Co408 1.967 . S
O433 C441 1.258 . S
O434 Co409 1.941 . S
O434 C441 1.266 . S
H435 C437 0.959 . S
H436 C437 0.961 . S
C437 C427 1.510 . S
C437 H435 0.959 . S
C437 H436 0.961 . S
C437 H438 0.960 . S
H438 C437 0.960 . S
H439 N419 0.862 . S
O440 Co408 1.920 . S
O440 C413 1.289 . S
C441 O433 1.258 . S
C441 O434 1.266 . S
Co442 O445 1.970 . S
Co442 N459 1.989 . S
Co442 O467 1.967 . S
Co442 O474 1.920 . S
Co443 O446 1.966 . S
Co443 N452 2.022 . S
Co443 N460 1.993 . S
Co443 O468 1.941 . S
C444 O445 1.258 . S
C444 O446 1.263 . S
O445 Co442 1.970 . S
O445 C444 1.258 . S
O446 Co443 1.966 . S
O446 C444 1.263 . S
C447 O448 1.235 . S
C447 O474 1.289 . S
O448 C447 1.235 . S
C449 C451 1.400 . S
C449 N452 1.351 . S
C449 C454 1.501 . S
C450 C451 1.387 . S
C450 N453 1.341 . S
C451 C449 1.400 . S
C451 C450 1.387 . S
N452 Co443 2.022 . S
N452 C449 1.351 . S
N452 N453 1.365 . S
N453 C450 1.341 . S
N453 N452 1.365 . S
N453 H473 0.862 . S
C454 C449 1.501 . S
C454 H455 0.961 . S
C454 H456 0.961 . S
C454 H457 0.960 . S
H455 C454 0.961 . S
H456 C454 0.961 . S
H457 C454 0.960 . S
C458 N459 1.342 . S
C458 C462 1.401 . S
C458 C463 1.499 . S
N459 Co442 1.989 . S
N459 C458 1.342 . S
N459 N460 1.388 . S
N460 Co443 1.993 . S
N460 N459 1.388 . S
N460 C461 1.346 . S
C461 N460 1.346 . S
C461 C462 1.396 . S
C461 C471 1.510 . S
C462 C458 1.401 . S
C462 C461 1.396 . S
C463 C458 1.499 . S
C463 H464 0.959 . S
C463 H465 0.960 . S
C463 H466 0.961 . S
H464 C463 0.959 . S
H465 C463 0.960 . S
H466 C463 0.961 . S
O467 Co442 1.967 . S
O467 C475 1.258 . S
O468 Co443 1.941 . S
O468 C475 1.266 . S
H469 C471 0.959 . S
H470 C471 0.961 . S
C471 C461 1.510 . S
C471 H469 0.959 . S
C471 H470 0.961 . S
C471 H472 0.960 . S
H472 C471 0.960 . S
H473 N453 0.862 . S
O474 Co442 1.920 . S
O474 C447 1.289 . S
C475 O467 1.258 . S
C475 O468 1.266 . S
Co476 O479 1.970 1_455 S
Co476 N493 1.989 1_554 S
Co476 O501 1.967 . S
Co476 O508 1.920 . S
Co477 O480 1.966 1_455 S
Co477 N486 2.022 . S
Co477 N494 1.993 . S
Co477 O502 1.941 . S
C478 O479 1.258 . S
C478 O480 1.263 . S
O479 Co476 1.970 1_655 S
O479 C478 1.258 . S
O480 Co477 1.966 1_655 S
O480 C478 1.263 . S
C481 O482 1.235 1_454 S
C481 O508 1.289 . S
O482 C481 1.235 1_656 S
C483 C485 1.400 . S
C483 N486 1.351 . S
C483 C488 1.501 1_455 S
C484 C485 1.387 . S
C484 N487 1.341 . S
C485 C483 1.400 . S
C485 C484 1.387 . S
N486 Co477 2.022 . S
N486 C483 1.351 . S
N486 N487 1.365 . S
N487 C484 1.341 . S
N487 N486 1.365 . S
N487 H507 0.862 . S
C488 C483 1.501 1_655 S
C488 H489 0.961 . S
C488 H490 0.961 . S
C488 H491 0.960 . S
H489 C488 0.961 . S
H490 C488 0.961 . S
H491 C488 0.960 . S
C492 N493 1.342 . S
C492 C496 1.401 . S
C492 C497 1.499 . S
N493 Co476 1.989 1_556 S
N493 C492 1.342 . S
N493 N494 1.388 1_556 S
N494 Co477 1.993 . S
N494 N493 1.388 1_554 S
N494 C495 1.346 1_554 S
C495 N494 1.346 1_556 S
C495 C496 1.396 . S
C495 C505 1.510 . S
C496 C492 1.401 . S
C496 C495 1.396 . S
C497 C492 1.499 . S
C497 H498 0.959 . S
C497 H499 0.960 . S
C497 H500 0.961 . S
H498 C497 0.959 . S
H499 C497 0.960 . S
H500 C497 0.961 . S
O501 Co476 1.967 . S
O501 C509 1.258 . S
O502 Co477 1.941 . S
O502 C509 1.266 . S
H503 C505 0.959 . S
H504 C505 0.961 . S
C505 C495 1.510 . S
C505 H503 0.959 . S
C505 H504 0.961 . S
C505 H506 0.960 . S
H506 C505 0.960 . S
H507 N487 0.862 . S
O508 Co476 1.920 . S
O508 C481 1.289 . S
C509 O501 1.258 . S
C509 O502 1.266 . S
Co510 O513 1.970 1_545 S
Co510 N527 1.989 . S
Co510 O535 1.967 . S
Co510 O542 1.920 . S
Co511 O514 1.966 1_545 S
Co511 N520 2.022 . S
Co511 N528 1.993 . S
Co511 O536 1.941 . S
C512 O513 1.258 . S
C512 O514 1.263 . S
O513 Co510 1.970 1_565 S
O513 C512 1.258 . S
O514 Co511 1.966 1_565 S
O514 C512 1.263 . S
C515 O516 1.235 1_545 S
C515 O542 1.289 . S
O516 C515 1.235 1_565 S
C517 C519 1.400 . S
C517 N520 1.351 . S
C517 C522 1.501 1_545 S
C518 C519 1.387 . S
C518 N521 1.341 . S
C519 C517 1.400 . S
C519 C518 1.387 . S
N520 Co511 2.022 . S
N520 C517 1.351 . S
N520 N521 1.365 . S
N521 C518 1.341 . S
N521 N520 1.365 . S
N521 H541 0.862 . S
C522 C517 1.501 1_565 S
C522 H523 0.961 . S
C522 H524 0.961 . S
C522 H525 0.960 . S
H523 C522 0.961 . S
H524 C522 0.961 . S
H525 C522 0.960 . S
C526 N527 1.342 . S
C526 C530 1.401 . S
C526 C531 1.499 . S
N527 Co510 1.989 . S
N527 C526 1.342 . S
N527 N528 1.388 . S
N528 Co511 1.993 . S
N528 N527 1.388 . S
N528 C529 1.346 . S
C529 N528 1.346 . S
C529 C530 1.396 . S
C529 C539 1.510 . S
C530 C526 1.401 . S
C530 C529 1.396 . S
C531 C526 1.499 . S
C531 H532 0.959 . S
C531 H533 0.960 . S
C531 H534 0.961 . S
H532 C531 0.959 . S
H533 C531 0.960 . S
H534 C531 0.961 . S
O535 Co510 1.967 . S
O535 C543 1.258 . S
O536 Co511 1.941 . S
O536 C543 1.266 . S
H537 C539 0.959 . S
H538 C539 0.961 . S
C539 C529 1.510 . S
C539 H537 0.959 . S
C539 H538 0.961 . S
C539 H540 0.960 . S
H540 C539 0.960 . S
H541 N521 0.862 . S
O542 Co510 1.920 . S
O542 C515 1.289 . S
C543 O535 1.258 . S
C543 O536 1.266 . S
C544 C545 1.369 1_556 S
C544 C546 1.395 1_545 S
C544 H548 0.930 . S
C545 C544 1.369 1_554 S
C545 C554 1.427 1_545 S
C546 C544 1.395 1_565 S
C546 C547 1.388 . S
C546 H549 0.931 . S
C547 C546 1.388 . S
C547 C553 1.428 1_556 S
H548 C544 0.930 . S
H549 C546 0.931 . S
S550 N551 1.613 . S
S550 N552 1.610 . S
N551 S550 1.613 . S
N551 C554 1.350 . S
N552 S550 1.610 . S
N552 C553 1.351 . S
C553 C547 1.428 1_554 S
C553 N552 1.351 . S
C553 C554 1.436 . S
C554 C545 1.427 1_565 S
C554 N551 1.350 . S
C554 C553 1.436 . S
C555 C556 1.369 . S
C555 C557 1.419 . S
C555 H559 0.930 . S
C556 C555 1.369 . S
C556 C565 1.429 . S
C557 C555 1.419 . S
C557 C558 1.363 . S
C557 H560 0.929 . S
C558 C557 1.363 . S
C558 C564 1.428 . S
H559 C555 0.930 . S
H560 C557 0.929 . S
S561 N562 1.613 . S
S561 N563 1.610 . S
N562 S561 1.613 . S
N562 C565 1.350 . S
N563 S561 1.610 . S
N563 C564 1.351 . S
C564 C558 1.428 . S
C564 N563 1.351 . S
C564 C565 1.434 . S
C565 C556 1.429 . S
C565 N562 1.350 . S
C565 C564 1.434 . S
C566 C567 1.369 1_455 S
C566 C568 1.419 1_554 S
C566 H570 0.930 . S
C567 C566 1.369 1_655 S
C567 C576 1.429 . S
C568 C566 1.419 1_556 S
C568 C569 1.363 . S
C568 H571 0.929 . S
C569 C568 1.363 . S
C569 C575 1.428 1_455 S
H570 C566 0.930 . S
H571 C568 0.929 . S
S572 N573 1.613 1_556 S
S572 N574 1.610 . S
N573 S572 1.613 1_554 S
N573 C576 1.350 . S
N574 S572 1.610 . S
N574 C575 1.351 . S
C575 C569 1.428 1_655 S
C575 N574 1.351 . S
C575 C576 1.434 1_556 S
C576 C567 1.429 . S
C576 N573 1.350 . S
C576 C575 1.434 1_554 S
C577 C578 1.369 . S
C577 C579 1.419 . S
C577 H581 0.930 . S
C578 C577 1.369 . S
C578 C587 1.429 1_465 S
C579 C577 1.419 . S
C579 C580 1.363 1_465 S
C579 H582 0.929 . S
C580 C579 1.363 1_645 S
C580 C586 1.428 . S
H581 C577 0.930 . S
H582 C579 0.929 . S
S583 N584 1.613 . S
S583 N585 1.610 . S
N584 S583 1.613 . S
N584 C587 1.350 . S
N585 S583 1.610 . S
N585 C586 1.351 . S
C586 C580 1.428 . S
C586 N585 1.351 . S
C586 C587 1.434 . S
C587 C578 1.429 1_645 S
C587 N584 1.350 . S
C587 C586 1.434 . S
C588 C589 1.369 1_554 S
C588 C590 1.419 . S
C588 H592 0.930 . S
C589 C588 1.369 1_556 S
C589 C598 1.429 . S
C590 C588 1.419 . S
C590 C591 1.363 . S
C590 H593 0.929 . S
C591 C590 1.363 . S
C591 C597 1.428 1_554 S
H592 C588 0.930 . S
H593 C590 0.929 . S
S594 N595 1.613 . S
S594 N596 1.610 . S
N595 S594 1.613 . S
N595 C598 1.350 . S
N596 S594 1.610 . S
N596 C597 1.351 . S
C597 C591 1.428 1_556 S
C597 N596 1.351 . S
C597 C598 1.434 . S
C598 C589 1.429 . S
C598 N595 1.350 . S
C598 C597 1.434 . S
C599 C600 1.369 1_455 S
C599 C601 1.419 . S
C599 H603 0.930 . S
C600 C599 1.369 1_655 S
C600 C609 1.429 . S
C601 C599 1.419 . S
C601 C602 1.363 . S
C601 H604 0.929 . S
C602 C601 1.363 . S
C602 C608 1.428 1_455 S
H603 C599 0.930 . S
H604 C601 0.929 . S
S605 N606 1.613 . S
S605 N607 1.610 . S
N606 S605 1.613 . S
N606 C609 1.350 . S
N607 S605 1.610 . S
N607 C608 1.351 . S
C608 C602 1.428 1_655 S
C608 N607 1.351 . S
C608 C609 1.434 . S
C609 C600 1.429 . S
C609 N606 1.350 . S
C609 C608 1.434 . S
C610 C611 1.369 1_545 S
C610 C612 1.419 1_554 S
C610 H614 0.930 . S
C611 C610 1.369 1_565 S
C611 C620 1.436 1_455 S
C612 C610 1.419 1_556 S
C612 C613 1.363 1_455 S
C612 H615 0.929 . S
C613 C612 1.363 1_655 S
C613 C619 1.428 1_545 S
H614 C610 0.930 . S
H615 C612 0.929 . S
S616 N617 1.613 . S
S616 N618 1.610 . S
N617 S616 1.613 . S
N617 C620 1.349 1_556 S
N618 S616 1.610 . S
N618 C619 1.351 . S
C619 C613 1.428 1_565 S
C619 N618 1.351 . S
C619 C620 1.427 1_556 S
C620 C611 1.436 1_655 S
C620 N617 1.349 1_554 S
C620 C619 1.427 1_554 S
C621 C622 1.369 . S
C621 C623 1.419 . S
C621 H625 0.930 . S
C622 C621 1.369 . S
C622 C631 1.429 1_565 S
C623 C621 1.419 . S
C623 C624 1.363 1_565 S
C623 H626 0.929 . S
C624 C623 1.363 1_545 S
C624 C630 1.428 . S
H625 C621 0.930 . S
H626 C623 0.929 . S
S627 N628 1.613 . S
S627 N629 1.610 . S
N628 S627 1.613 . S
N628 C631 1.350 . S
N629 S627 1.610 . S
N629 C630 1.351 . S
C630 C624 1.428 . S
C630 N629 1.351 . S
C630 C631 1.434 . S
C631 C622 1.429 1_545 S
C631 N628 1.350 . S
C631 C630 1.434 . S
C632 C633 1.369 . S
C632 C634 1.419 . S
C632 H636 0.930 . S
C633 C632 1.369 . S
C633 C642 1.429 1_554 S
C634 C632 1.419 . S
C634 C635 1.363 1_554 S
C634 H637 0.929 . S
C635 C634 1.363 1_556 S
C635 C641 1.428 . S
H636 C632 0.930 . S
H637 C634 0.929 . S
S638 N639 1.613 . S
S638 N640 1.610 . S
N639 S638 1.613 . S
N639 C642 1.350 . S
N640 S638 1.610 . S
N640 C641 1.351 . S
C641 C635 1.428 . S
C641 N640 1.351 . S
C641 C642 1.434 . S
C642 C633 1.429 1_556 S
C642 N639 1.350 . S
C642 C641 1.434 . S
C643 C644 1.369 . S
C643 C645 1.419 . S
C643 H647 0.930 . S
C644 C643 1.369 . S
C644 C653 1.429 . S
C645 C643 1.419 . S
C645 C646 1.363 . S
C645 H648 0.929 . S
C646 C645 1.363 . S
C646 C652 1.428 . S
H647 C643 0.930 . S
H648 C645 0.929 . S
S649 N650 1.613 . S
S649 N651 1.610 . S
N650 S649 1.613 . S
N650 C653 1.350 . S
N651 S649 1.610 . S
N651 C652 1.351 . S
C652 C646 1.428 . S
C652 N651 1.351 . S
C652 C653 1.434 . S
C653 C644 1.429 . S
C653 N650 1.350 . S
C653 C652 1.434 . S
C654 C655 1.369 . S
C654 C656 1.419 . S
C654 H658 0.930 . S
C655 C654 1.369 . S
C655 C664 1.429 1_654 S
C656 C654 1.419 . S
C656 C657 1.363 1_554 S
C656 H659 0.929 . S
C657 C656 1.363 1_556 S
C657 C663 1.428 1_655 S
H658 C654 0.930 . S
H659 C656 0.929 . S
S660 N661 1.613 . S
S660 N662 1.610 . S
N661 S660 1.613 . S
N661 C664 1.350 . S
N662 S660 1.610 . S
N662 C663 1.351 . S
C663 C657 1.428 1_455 S
C663 N662 1.351 . S
C663 C664 1.434 . S
C664 C655 1.429 1_456 S
C664 N661 1.350 . S
C664 C663 1.434 . S
C665 C666 1.369 . S
C665 C667 1.419 . S
C665 H669 0.930 . S
C666 C665 1.369 . S
C666 C675 1.429 1_565 S
C667 C665 1.419 . S
C667 C668 1.363 . S
C667 H670 0.929 . S
C668 C667 1.363 . S
C668 C674 1.428 1_565 S
H669 C665 0.930 . S
H670 C667 0.929 . S
S671 N672 1.613 . S
S671 N673 1.610 . S
N672 S671 1.613 . S
N672 C675 1.350 . S
N673 S671 1.610 . S
N673 C674 1.351 . S
C674 C668 1.428 1_545 S
C674 N673 1.351 . S
C674 C675 1.434 . S
C675 C666 1.429 1_545 S
C675 N672 1.350 . S
C675 C674 1.434 . S
C676 C677 1.369 . S
C676 C678 1.419 1_554 S
C676 H680 0.930 . S
C677 C676 1.369 . S
C677 C686 1.429 . S
C678 C676 1.419 1_556 S
C678 C679 1.363 . S
C678 H681 0.929 . S
C679 C678 1.363 . S
C679 C685 1.428 . S
H680 C676 0.930 . S
H681 C678 0.929 . S
S682 N683 1.613 . S
S682 N684 1.610 1_554 S
N683 S682 1.613 . S
N683 C686 1.350 . S
N684 S682 1.610 1_556 S
N684 C685 1.351 . S
C685 C679 1.428 . S
C685 N684 1.351 . S
C685 C686 1.434 1_556 S
C686 C677 1.429 . S
C686 N683 1.350 . S
C686 C685 1.434 1_554 S
C687 C688 1.369 . S
C687 C689 1.419 . S
C687 H691 0.930 . S
C688 C687 1.369 . S
C688 C697 1.429 . S
C689 C687 1.419 . S
C689 C690 1.363 . S
C689 H692 0.929 . S
C690 C689 1.363 . S
C690 C696 1.428 . S
H691 C687 0.930 . S
H692 C689 0.929 . S
S693 N694 1.613 . S
S693 N695 1.610 . S
N694 S693 1.613 . S
N694 C697 1.350 . S
N695 S693 1.610 . S
N695 C696 1.351 . S
C696 C690 1.428 . S
C696 N695 1.351 . S
C696 C697 1.434 . S
C697 C688 1.429 . S
C697 N694 1.350 . S
C697 C696 1.434 . S
C698 C699 1.369 1_655 S
C698 C700 1.418 1_554 S
C698 H702 0.930 . S
C699 C698 1.369 1_455 S
C699 C708 1.429 1_554 S
C700 C698 1.418 1_556 S
C700 C701 1.363 1_655 S
C700 H703 0.929 1_556 S
C701 C700 1.363 1_455 S
C701 C707 1.428 . S
H702 C698 0.930 . S
H703 C700 0.929 1_554 S
S704 N705 1.613 . S
S704 N706 1.610 . S
N705 S704 1.613 . S
N705 C708 1.350 . S
N706 S704 1.610 . S
N706 C707 1.351 . S
C707 C701 1.428 . S
C707 N706 1.351 . S
C707 C708 1.434 . S
C708 C699 1.429 1_556 S
C708 N705 1.350 . S
C708 C707 1.434 . S
C709 C710 1.369 . S
C709 C711 1.419 . S
C709 H713 0.930 . S
C710 C709 1.369 . S
C710 C719 1.429 1_545 S
C711 C709 1.419 . S
C711 C712 1.363 . S
C711 H714 0.929 . S
C712 C711 1.363 . S
C712 C718 1.428 1_545 S
H713 C709 0.930 . S
H714 C711 0.929 . S
S715 N716 1.613 . S
S715 N717 1.610 . S
N716 S715 1.613 . S
N716 C719 1.350 . S
N717 S715 1.610 . S
N717 C718 1.351 . S
C718 C712 1.428 1_565 S
C718 N717 1.351 . S
C718 C719 1.434 . S
C719 C710 1.429 1_565 S
C719 N716 1.350 . S
C719 C718 1.434 . S
C720 C721 1.369 . S
C720 C722 1.419 . S
C720 H724 0.930 . S
C721 C720 1.369 . S
C721 C730 1.429 . S
C722 C720 1.419 . S
C722 C723 1.363 . S
C722 H725 0.929 . S
C723 C722 1.363 . S
C723 C729 1.428 . S
H724 C720 0.930 . S
H725 C722 0.929 . S
S726 N727 1.613 . S
S726 N728 1.610 . S
N727 S726 1.613 . S
N727 C730 1.350 . S
N728 S726 1.610 . S
N728 C729 1.351 . S
C729 C723 1.428 . S
C729 N728 1.351 . S
C729 C730 1.434 . S
C730 C721 1.429 . S
C730 N727 1.350 . S
C730 C729 1.434 . S
C731 C732 1.369 . S
C731 C733 1.419 . S
C731 H735 0.930 . S
C732 C731 1.369 . S
C732 C741 1.429 . S
C733 C731 1.419 . S
C733 C734 1.363 . S
C733 H736 0.929 . S
C734 C733 1.363 . S
C734 C740 1.428 . S
H735 C731 0.930 . S
H736 C733 0.929 . S
S737 N738 1.613 . S
S737 N739 1.610 . S
N738 S737 1.613 . S
N738 C741 1.350 . S
N739 S737 1.610 . S
N739 C740 1.351 . S
C740 C734 1.428 . S
C740 N739 1.351 . S
C740 C741 1.434 . S
C741 C732 1.429 . S
C741 N738 1.350 . S
C741 C740 1.434 . S
C742 C743 1.369 . S
C742 C744 1.419 . S
C742 H746 0.930 . S
C743 C742 1.369 . S
C743 C752 1.429 . S
C744 C742 1.419 . S
C744 C745 1.363 . S
C744 H747 0.929 . S
C745 C744 1.363 . S
C745 C751 1.428 . S
H746 C742 0.930 . S
H747 C744 0.929 . S
S748 N749 1.613 . S
S748 N750 1.610 . S
N749 S748 1.613 . S
N749 C752 1.350 . S
N750 S748 1.610 . S
N750 C751 1.351 . S
C751 C745 1.428 . S
C751 N750 1.351 . S
C751 C752 1.434 . S
C752 C743 1.429 . S
C752 N749 1.350 . S
C752 C751 1.434 . S
C753 C754 1.369 . S
C753 C755 1.419 . S
C753 H757 0.930 . S
C754 C753 1.369 . S
C754 C763 1.429 . S
C755 C753 1.419 . S
C755 C756 1.363 . S
C755 H758 0.929 . S
C756 C755 1.363 . S
C756 C762 1.428 . S
H757 C753 0.930 . S
H758 C755 0.929 . S
S759 N760 1.613 . S
S759 N761 1.610 . S
N760 S759 1.613 . S
N760 C763 1.350 . S
N761 S759 1.610 . S
N761 C762 1.351 . S
C762 C756 1.428 . S
C762 N761 1.351 . S
C762 C763 1.434 . S
C763 C754 1.429 . S
C763 N760 1.350 . S
C763 C762 1.434 . S
C764 C765 1.369 . S
C764 C766 1.419 . S
C764 H768 0.930 . S
C765 C764 1.369 . S
C765 C774 1.429 . S
C766 C764 1.419 . S
C766 C767 1.363 . S
C766 H769 0.929 . S
C767 C766 1.363 . S
C767 C773 1.428 . S
H768 C764 0.930 . S
H769 C766 0.929 . S
S770 N771 1.613 . S
S770 N772 1.610 . S
N771 S770 1.613 . S
N771 C774 1.350 . S
N772 S770 1.610 . S
N772 C773 1.351 . S
C773 C767 1.428 . S
C773 N772 1.351 . S
C773 C774 1.434 . S
C774 C765 1.429 . S
C774 N771 1.350 . S
C774 C773 1.434 . S
C775 C776 1.369 . S
C775 C777 1.419 . S
C775 H779 0.930 . S
C776 C775 1.369 . S
C776 C785 1.429 . S
C777 C775 1.419 . S
C777 C778 1.363 . S
C777 H780 0.929 . S
C778 C777 1.363 . S
C778 C784 1.428 . S
H779 C775 0.930 . S
H780 C777 0.929 . S
S781 N782 1.613 . S
S781 N783 1.610 . S
N782 S781 1.613 . S
N782 C785 1.350 . S
N783 S781 1.610 . S
N783 C784 1.351 . S
C784 C778 1.428 . S
C784 N783 1.351 . S
C784 C785 1.434 . S
C785 C776 1.429 . S
C785 N782 1.350 . S
C785 C784 1.434 . S
C786 C787 1.369 . S
C786 C788 1.419 . S
C786 H790 0.930 . S
C787 C786 1.369 . S
C787 C796 1.429 . S
C788 C786 1.419 . S
C788 C789 1.363 . S
C788 H791 0.929 . S
C789 C788 1.363 . S
C789 C795 1.428 . S
H790 C786 0.930 . S
H791 C788 0.929 . S
S792 N793 1.613 . S
S792 N794 1.610 . S
N793 S792 1.613 . S
N793 C796 1.350 . S
N794 S792 1.610 . S
N794 C795 1.351 . S
C795 C789 1.428 . S
C795 N794 1.351 . S
C795 C796 1.434 . S
C796 C787 1.429 . S
C796 N793 1.350 . S
C796 C795 1.434 . S
C797 C798 1.369 . S
C797 C799 1.419 . S
C797 H801 0.930 . S
C798 C797 1.369 . S
C798 C807 1.429 . S
C799 C797 1.419 . S
C799 C800 1.363 . S
C799 H802 0.929 . S
C800 C799 1.363 . S
C800 C806 1.428 . S
H801 C797 0.930 . S
H802 C799 0.929 . S
S803 N804 1.613 . S
S803 N805 1.610 . S
N804 S803 1.613 . S
N804 C807 1.350 . S
N805 S803 1.610 . S
N805 C806 1.351 . S
C806 C800 1.428 . S
C806 N805 1.351 . S
C806 C807 1.434 . S
C807 C798 1.429 . S
C807 N804 1.350 . S
C807 C806 1.434 . S
C808 C809 1.369 . S
C808 C810 1.419 . S
C808 H812 0.930 . S
C809 C808 1.369 . S
C809 C818 1.429 . S
C810 C808 1.419 . S
C810 C811 1.363 . S
C810 H813 0.929 . S
C811 C810 1.363 . S
C811 C817 1.428 . S
H812 C808 0.930 . S
H813 C810 0.929 . S
S814 N815 1.613 . S
S814 N816 1.610 . S
N815 S814 1.613 . S
N815 C818 1.350 . S
N816 S814 1.610 . S
N816 C817 1.351 . S
C817 C811 1.428 . S
C817 N816 1.351 . S
C817 C818 1.434 . S
C818 C809 1.429 . S
C818 N815 1.350 . S
C818 C817 1.434 . S
C819 C820 1.369 . S
C819 C821 1.419 . S
C819 H823 0.930 . S
C820 C819 1.369 . S
C820 C829 1.429 . S
C821 C819 1.419 . S
C821 C822 1.363 . S
C821 H824 0.929 . S
C822 C821 1.363 . S
C822 C828 1.428 . S
H823 C819 0.930 . S
H824 C821 0.929 . S
S825 N826 1.613 . S
S825 N827 1.610 . S
N826 S825 1.613 . S
N826 C829 1.350 . S
N827 S825 1.610 . S
N827 C828 1.351 . S
C828 C822 1.428 . S
C828 N827 1.351 . S
C828 C829 1.434 . S
C829 C820 1.429 . S
C829 N826 1.350 . S
C829 C828 1.434 . S
C830 C831 1.369 . S
C830 C832 1.419 . S
C830 H834 0.930 . S
C831 C830 1.369 . S
C831 C840 1.429 . S
C832 C830 1.419 . S
C832 C833 1.363 . S
C832 H835 0.929 . S
C833 C832 1.363 . S
C833 C839 1.428 . S
H834 C830 0.930 . S
H835 C832 0.929 . S
S836 N837 1.613 . S
S836 N838 1.610 . S
N837 S836 1.613 . S
N837 C840 1.350 . S
N838 S836 1.610 . S
N838 C839 1.351 . S
C839 C833 1.428 . S
C839 N838 1.351 . S
C839 C840 1.434 . S
C840 C831 1.429 . S
C840 N837 1.350 . S
C840 C839 1.434 . S
C841 C842 1.369 . S
C841 C843 1.419 . S
C841 H845 0.930 . S
C842 C841 1.369 . S
C842 C851 1.429 . S
C843 C841 1.419 . S
C843 C844 1.363 . S
C843 H846 0.929 . S
C844 C843 1.363 . S
C844 C850 1.428 . S
H845 C841 0.930 . S
H846 C843 0.929 . S
S847 N848 1.613 . S
S847 N849 1.610 . S
N848 S847 1.613 . S
N848 C851 1.350 . S
N849 S847 1.610 . S
N849 C850 1.351 . S
C850 C844 1.428 . S
C850 N849 1.351 . S
C850 C851 1.434 . S
C851 C842 1.429 . S
C851 N848 1.350 . S
C851 C850 1.434 . S
C852 C853 1.369 . S
C852 C854 1.419 . S
C852 H856 0.930 . S
C853 C852 1.369 . S
C853 C862 1.429 . S
C854 C852 1.419 . S
C854 C855 1.363 . S
C854 H857 0.929 . S
C855 C854 1.363 . S
C855 C861 1.428 . S
H856 C852 0.930 . S
H857 C854 0.929 . S
S858 N859 1.613 . S
S858 N860 1.610 . S
N859 S858 1.613 . S
N859 C862 1.350 . S
N860 S858 1.610 . S
N860 C861 1.351 . S
C861 C855 1.428 . S
C861 N860 1.351 . S
C861 C862 1.434 . S
C862 C853 1.429 . S
C862 N859 1.350 . S
C862 C861 1.434 . S
C863 C864 1.369 . S
C863 C865 1.419 . S
C863 H867 0.930 . S
C864 C863 1.369 . S
C864 C873 1.429 . S
C865 C863 1.419 . S
C865 C866 1.363 . S
C865 H868 0.929 . S
C866 C865 1.363 . S
C866 C872 1.428 . S
H867 C863 0.930 . S
H868 C865 0.929 . S
S869 N870 1.613 . S
S869 N871 1.610 . S
N870 S869 1.613 . S
N870 C873 1.350 . S
N871 S869 1.610 . S
N871 C872 1.351 . S
C872 C866 1.428 . S
C872 N871 1.351 . S
C872 C873 1.434 . S
C873 C864 1.429 . S
C873 N870 1.350 . S
C873 C872 1.434 . S
C874 C875 1.369 . S
C874 C876 1.419 . S
C874 H878 0.930 . S
C875 C874 1.369 . S
C875 C884 1.429 . S
C876 C874 1.419 . S
C876 C877 1.363 . S
C876 H879 0.929 . S
C877 C876 1.363 . S
C877 C883 1.428 . S
H878 C874 0.930 . S
H879 C876 0.929 . S
S880 N881 1.613 . S
S880 N882 1.610 . S
N881 S880 1.613 . S
N881 C884 1.350 . S
N882 S880 1.610 . S
N882 C883 1.351 . S
C883 C877 1.428 . S
C883 N882 1.351 . S
C883 C884 1.434 . S
C884 C875 1.429 . S
C884 N881 1.350 . S
C884 C883 1.434 . S
C885 C886 1.369 . S
C885 C887 1.419 . S
C885 H889 0.930 . S
C886 C885 1.369 . S
C886 C895 1.429 . S
C887 C885 1.419 . S
C887 C888 1.363 . S
C887 H890 0.929 . S
C888 C887 1.363 . S
C888 C894 1.428 . S
H889 C885 0.930 . S
H890 C887 0.929 . S
S891 N892 1.613 . S
S891 N893 1.610 . S
N892 S891 1.613 . S
N892 C895 1.350 . S
N893 S891 1.610 . S
N893 C894 1.351 . S
C894 C888 1.428 . S
C894 N893 1.351 . S
C894 C895 1.434 . S
C895 C886 1.429 . S
C895 N892 1.350 . S
C895 C894 1.434 . S
C896 C897 1.369 . S
C896 C898 1.419 . S
C896 H900 0.930 . S
C897 C896 1.369 . S
C897 C906 1.429 . S
C898 C896 1.419 . S
C898 C899 1.363 . S
C898 H901 0.929 . S
C899 C898 1.363 . S
C899 C905 1.428 . S
H900 C896 0.930 . S
H901 C898 0.929 . S
S902 N903 1.613 . S
S902 N904 1.610 . S
N903 S902 1.613 . S
N903 C906 1.350 . S
N904 S902 1.610 . S
N904 C905 1.351 . S
C905 C899 1.428 . S
C905 N904 1.351 . S
C905 C906 1.434 . S
C906 C897 1.429 . S
C906 N903 1.350 . S
C906 C905 1.434 . S
C907 C908 1.369 . S
C907 C909 1.419 . S
C907 H911 0.930 . S
C908 C907 1.369 . S
C908 C917 1.429 . S
C909 C907 1.419 . S
C909 C910 1.363 . S
C909 H912 0.929 . S
C910 C909 1.363 . S
C910 C916 1.428 . S
H911 C907 0.930 . S
H912 C909 0.929 . S
S913 N914 1.613 . S
S913 N915 1.610 . S
N914 S913 1.613 . S
N914 C917 1.350 . S
N915 S913 1.610 . S
N915 C916 1.351 . S
C916 C910 1.428 . S
C916 N915 1.351 . S
C916 C917 1.434 . S
C917 C908 1.429 . S
C917 N914 1.350 . S
C917 C916 1.434 . S
C918 C919 1.369 . S
C918 C920 1.419 . S
C918 H922 0.930 . S
C919 C918 1.369 . S
C919 C928 1.429 . S
C920 C918 1.419 . S
C920 C921 1.363 . S
C920 H923 0.929 . S
C921 C920 1.363 . S
C921 C927 1.428 . S
H922 C918 0.930 . S
H923 C920 0.929 . S
S924 N925 1.613 . S
S924 N926 1.610 . S
N925 S924 1.613 . S
N925 C928 1.350 . S
N926 S924 1.610 . S
N926 C927 1.351 . S
C927 C921 1.428 . S
C927 N926 1.351 . S
C927 C928 1.434 . S
C928 C919 1.429 . S
C928 N925 1.350 . S
C928 C927 1.434 . S
C929 C930 1.369 . S
C929 C931 1.419 . S
C929 H933 0.930 . S
C930 C929 1.369 . S
C930 C939 1.429 . S
C931 C929 1.419 . S
C931 C932 1.363 . S
C931 H934 0.929 . S
C932 C931 1.363 . S
C932 C938 1.428 . S
H933 C929 0.930 . S
H934 C931 0.929 . S
S935 N936 1.613 . S
S935 N937 1.610 . S
N936 S935 1.613 . S
N936 C939 1.350 . S
N937 S935 1.610 . S
N937 C938 1.351 . S
C938 C932 1.428 . S
C938 N937 1.351 . S
C938 C939 1.434 . S
C939 C930 1.429 . S
C939 N936 1.350 . S
C939 C938 1.434 . S
C940 C941 1.369 . S
C940 C942 1.419 . S
C940 H944 0.930 . S
C941 C940 1.369 . S
C941 C950 1.429 . S
C942 C940 1.419 . S
C942 C943 1.363 . S
C942 H945 0.929 . S
C943 C942 1.363 . S
C943 C949 1.428 . S
H944 C940 0.930 . S
H945 C942 0.929 . S
S946 N947 1.613 . S
S946 N948 1.610 . S
N947 S946 1.613 . S
N947 C950 1.350 . S
N948 S946 1.610 . S
N948 C949 1.351 . S
C949 C943 1.428 . S
C949 N948 1.351 . S
C949 C950 1.434 . S
C950 C941 1.429 . S
C950 N947 1.350 . S
C950 C949 1.434 . S
C951 C952 1.369 . S
C951 C953 1.419 . S
C951 H955 0.930 . S
C952 C951 1.369 . S
C952 C961 1.429 . S
C953 C951 1.419 . S
C953 C954 1.363 . S
C953 H956 0.929 . S
C954 C953 1.363 . S
C954 C960 1.428 . S
H955 C951 0.930 . S
H956 C953 0.929 . S
S957 N958 1.613 . S
S957 N959 1.610 . S
N958 S957 1.613 . S
N958 C961 1.350 . S
N959 S957 1.610 . S
N959 C960 1.351 . S
C960 C954 1.428 . S
C960 N959 1.351 . S
C960 C961 1.434 . S
C961 C952 1.429 . S
C961 N958 1.350 . S
C961 C960 1.434 . S
C962 C963 1.369 . S
C962 C964 1.419 . S
C962 H966 0.930 . S
C963 C962 1.369 . S
C963 C972 1.429 . S
C964 C962 1.419 . S
C964 C965 1.363 . S
C964 H967 0.929 . S
C965 C964 1.363 . S
C965 C971 1.428 . S
H966 C962 0.930 . S
H967 C964 0.929 . S
S968 N969 1.613 . S
S968 N970 1.610 . S
N969 S968 1.613 . S
N969 C972 1.350 . S
N970 S968 1.610 . S
N970 C971 1.351 . S
C971 C965 1.428 . S
C971 N970 1.351 . S
C971 C972 1.434 . S
C972 C963 1.429 . S
C972 N969 1.350 . S
C972 C971 1.434 . S
C973 C974 1.369 . S
C973 C975 1.419 . S
C973 H977 0.930 . S
C974 C973 1.369 . S
C974 C983 1.429 . S
C975 C973 1.419 . S
C975 C976 1.363 . S
C975 H978 0.929 . S
C976 C975 1.363 . S
C976 C982 1.428 . S
H977 C973 0.930 . S
H978 C975 0.929 . S
S979 N980 1.613 . S
S979 N981 1.610 . S
N980 S979 1.613 . S
N980 C983 1.350 . S
N981 S979 1.610 . S
N981 C982 1.351 . S
C982 C976 1.428 . S
C982 N981 1.351 . S
C982 C983 1.434 . S
C983 C974 1.429 . S
C983 N980 1.350 . S
C983 C982 1.434 . S
C545 C5 0.771 . S
C547 C277 0.756 . S
C556 C311 0.759 . S
C558 C39 0.764 . S
C567 C73 0.766 . S
C569 C345 0.759 . S
C578 C107 0.773 . S
C580 C379 0.755 . S
C589 C141 0.771 . S
C591 C413 0.757 . S
C600 C447 0.748 . S
C602 C175 0.773 . S
C611 C481 0.749 . S
C613 C209 0.773 . S
C622 C243 0.768 . S
C624 C515 0.759 . S
C633 C9 1.431 . S
C635 C145 1.435 . S
C644 C43 1.438 . S
C646 C179 1.439 . S
C655 C77 1.436 . S
C657 C213 1.438 . S
C666 C111 1.434 . S
C668 C247 1.437 . S
C677 C417 1.430 . S
C679 C281 1.431 . S
C688 C451 1.431 . S
C690 C315 1.431 . S
C699 C485 1.430 . S
C701 C349 1.433 . S
C710 C383 1.438 . S
C712 C519 1.439 . S
C721 C2 2.186 . S
C723 C240 2.187 . S
C732 C138 2.186 . S
C734 C36 2.187 . S
C743 C172 2.185 . S
C745 C70 2.186 . S
C754 C104 2.186 . S
C756 C206 2.186 . S
C765 C512 2.185 . S
C767 C274 2.186 . S
C776 C410 2.184 . S
C778 C308 2.185 . S
C787 C342 2.185 . S
C789 C444 2.186 . S
C798 C376 2.185 . S
C800 C478 2.185 . S
C809 C543 1.531 . S
C811 C20 1.444 . S
C820 C54 1.440 . S
C822 C441 1.527 . S
C831 C88 1.435 . S
C833 C475 1.529 . S
C842 C509 1.528 . S
C844 C122 1.444 . S
C853 C156 1.437 . S
C855 C339 1.528 . S
C864 C190 1.438 . S
C866 C373 1.527 . S
C875 C407 1.531 . S
C877 C224 1.444 . S
C886 C258 1.445 . S
C888 C305 1.530 . S
C897 C292 1.446 . S
C899 C271 1.529 . S
C908 C169 1.527 . S
C910 C326 1.442 . S
C919 C360 1.435 . S
C921 C203 1.529 . S
C930 C237 1.529 . S
C932 C394 1.445 . S
C941 C428 1.444 . S
C943 C67 1.528 . S
C952 C101 1.530 . S
C954 C462 1.437 . S
C963 C135 1.531 . S
C965 C496 1.441 . S
C974 C33 1.527 . S
C976 C530 1.439 . S
