# Generated by pormake.
# Topology wgd, (5)-cn, num edge types: 1
# Building blocks:
#     Node 0, Type 0, BuildingBlock: XOMCOT_clean_sbu_1, # of connection points: 5
#     Node 1, Type 0, BuildingBlock: XOMCOT_clean_sbu_1, # of connection points: 5
#     Node 2, Type 0, BuildingBlock: XOMCOT_clean_sbu_1, # of connection points: 5
#     Node 3, Type 0, BuildingBlock: XOMCOT_clean_sbu_1, # of connection points: 5
#     Node 4, Type 0, BuildingBlock: XOMCOT_clean_sbu_1, # of connection points: 5
#     Node 5, Type 0, BuildingBlock: XOMCOT_clean_sbu_1, # of connection points: 5
#     Node 6, Type 0, BuildingBlock: XOMCOT_clean_sbu_1, # of connection points: 5
#     Node 7, Type 0, BuildingBlock: XOMCOT_clean_sbu_1, # of connection points: 5
#     Node 8, Type 0, BuildingBlock: XOMCOT_clean_sbu_1, # of connection points: 5
#     Node 9, Type 0, BuildingBlock: XOMCOT_clean_sbu_1, # of connection points: 5
#     Node 10, Type 0, BuildingBlock: XOMCOT_clean_sbu_1, # of connection points: 5
#     Node 11, Type 0, BuildingBlock: XOMCOT_clean_sbu_1, # of connection points: 5
#     Node 12, Type 0, BuildingBlock: XOMCOT_clean_sbu_1, # of connection points: 5
#     Node 13, Type 0, BuildingBlock: XOMCOT_clean_sbu_1, # of connection points: 5
#     Node 14, Type 0, BuildingBlock: XOMCOT_clean_sbu_1, # of connection points: 5
#     Node 15, Type 0, BuildingBlock: XOMCOT_clean_sbu_1, # of connection points: 5
#     Node 16, Type 0, BuildingBlock: XOMCOT_clean_sbu_1, # of connection points: 5
#     Node 17, Type 0, BuildingBlock: XOMCOT_clean_sbu_1, # of connection points: 5
#     Node 18, Type 0, BuildingBlock: XOMCOT_clean_sbu_1, # of connection points: 5
#     Node 19, Type 0, BuildingBlock: XOMCOT_clean_sbu_1, # of connection points: 5
#     Node 20, Type 0, BuildingBlock: XOMCOT_clean_sbu_1, # of connection points: 5
#     Node 21, Type 0, BuildingBlock: XOMCOT_clean_sbu_1, # of connection points: 5
#     Node 22, Type 0, BuildingBlock: XOMCOT_clean_sbu_1, # of connection points: 5
#     Node 23, Type 0, BuildingBlock: XOMCOT_clean_sbu_1, # of connection points: 5
#     Node 24, Type 0, BuildingBlock: XOMCOT_clean_sbu_1, # of connection points: 5
#     Node 25, Type 0, BuildingBlock: XOMCOT_clean_sbu_1, # of connection points: 5
#     Node 26, Type 0, BuildingBlock: XOMCOT_clean_sbu_1, # of connection points: 5
#     Node 27, Type 0, BuildingBlock: XOMCOT_clean_sbu_1, # of connection points: 5
#     Node 28, Type 0, BuildingBlock: XOMCOT_clean_sbu_1, # of connection points: 5
#     Node 29, Type 0, BuildingBlock: XOMCOT_clean_sbu_1, # of connection points: 5
#     Node 30, Type 0, BuildingBlock: XOMCOT_clean_sbu_1, # of connection points: 5
#     Node 31, Type 0, BuildingBlock: XOMCOT_clean_sbu_1, # of connection points: 5
#     Edge 32, Type (0, 0), BuildingBlock: UVAHIK_clean_linker_0, # of connection points: 2
#     Edge 33, Type (0, 0), BuildingBlock: UVAHIK_clean_linker_0, # of connection points: 2
#     Edge 34, Type (0, 0), BuildingBlock: UVAHIK_clean_linker_0, # of connection points: 2
#     Edge 35, Type (0, 0), BuildingBlock: UVAHIK_clean_linker_0, # of connection points: 2
#     Edge 36, Type (0, 0), BuildingBlock: UVAHIK_clean_linker_0, # of connection points: 2
#     Edge 37, Type (0, 0), BuildingBlock: UVAHIK_clean_linker_0, # of connection points: 2
#     Edge 38, Type (0, 0), BuildingBlock: UVAHIK_clean_linker_0, # of connection points: 2
#     Edge 39, Type (0, 0), BuildingBlock: UVAHIK_clean_linker_0, # of connection points: 2
#     Edge 40, Type (0, 0), BuildingBlock: UVAHIK_clean_linker_0, # of connection points: 2
#     Edge 41, Type (0, 0), BuildingBlock: UVAHIK_clean_linker_0, # of connection points: 2
#     Edge 42, Type (0, 0), BuildingBlock: UVAHIK_clean_linker_0, # of connection points: 2
#     Edge 43, Type (0, 0), BuildingBlock: UVAHIK_clean_linker_0, # of connection points: 2
#     Edge 44, Type (0, 0), BuildingBlock: UVAHIK_clean_linker_0, # of connection points: 2
#     Edge 45, Type (0, 0), BuildingBlock: UVAHIK_clean_linker_0, # of connection points: 2
#     Edge 46, Type (0, 0), BuildingBlock: UVAHIK_clean_linker_0, # of connection points: 2
#     Edge 47, Type (0, 0), BuildingBlock: UVAHIK_clean_linker_0, # of connection points: 2
#     Edge 48, Type (0, 0), BuildingBlock: UVAHIK_clean_linker_0, # of connection points: 2
#     Edge 49, Type (0, 0), BuildingBlock: UVAHIK_clean_linker_0, # of connection points: 2
#     Edge 50, Type (0, 0), BuildingBlock: UVAHIK_clean_linker_0, # of connection points: 2
#     Edge 51, Type (0, 0), BuildingBlock: UVAHIK_clean_linker_0, # of connection points: 2
#     Edge 52, Type (0, 0), BuildingBlock: UVAHIK_clean_linker_0, # of connection points: 2
#     Edge 53, Type (0, 0), BuildingBlock: UVAHIK_clean_linker_0, # of connection points: 2
#     Edge 54, Type (0, 0), BuildingBlock: UVAHIK_clean_linker_0, # of connection points: 2
#     Edge 55, Type (0, 0), BuildingBlock: UVAHIK_clean_linker_0, # of connection points: 2
#     Edge 56, Type (0, 0), BuildingBlock: UVAHIK_clean_linker_0, # of connection points: 2
#     Edge 57, Type (0, 0), BuildingBlock: UVAHIK_clean_linker_0, # of connection points: 2
#     Edge 58, Type (0, 0), BuildingBlock: UVAHIK_clean_linker_0, # of connection points: 2
#     Edge 59, Type (0, 0), BuildingBlock: UVAHIK_clean_linker_0, # of connection points: 2
#     Edge 60, Type (0, 0), BuildingBlock: UVAHIK_clean_linker_0, # of connection points: 2
#     Edge 61, Type (0, 0), BuildingBlock: UVAHIK_clean_linker_0, # of connection points: 2
#     Edge 62, Type (0, 0), BuildingBlock: UVAHIK_clean_linker_0, # of connection points: 2
#     Edge 63, Type (0, 0), BuildingBlock: UVAHIK_clean_linker_0, # of connection points: 2
#     Edge 64, Type (0, 0), BuildingBlock: UVAHIK_clean_linker_0, # of connection points: 2
#     Edge 65, Type (0, 0), BuildingBlock: UVAHIK_clean_linker_0, # of connection points: 2
#     Edge 66, Type (0, 0), BuildingBlock: UVAHIK_clean_linker_0, # of connection points: 2
#     Edge 67, Type (0, 0), BuildingBlock: UVAHIK_clean_linker_0, # of connection points: 2
#     Edge 68, Type (0, 0), BuildingBlock: UVAHIK_clean_linker_0, # of connection points: 2
#     Edge 69, Type (0, 0), BuildingBlock: UVAHIK_clean_linker_0, # of connection points: 2
#     Edge 70, Type (0, 0), BuildingBlock: UVAHIK_clean_linker_0, # of connection points: 2
#     Edge 71, Type (0, 0), BuildingBlock: UVAHIK_clean_linker_0, # of connection points: 2
#     Edge 72, Type (0, 0), BuildingBlock: UVAHIK_clean_linker_0, # of connection points: 2
#     Edge 73, Type (0, 0), BuildingBlock: UVAHIK_clean_linker_0, # of connection points: 2
#     Edge 74, Type (0, 0), BuildingBlock: UVAHIK_clean_linker_0, # of connection points: 2
#     Edge 75, Type (0, 0), BuildingBlock: UVAHIK_clean_linker_0, # of connection points: 2
#     Edge 76, Type (0, 0), BuildingBlock: UVAHIK_clean_linker_0, # of connection points: 2
#     Edge 77, Type (0, 0), BuildingBlock: UVAHIK_clean_linker_0, # of connection points: 2
#     Edge 78, Type (0, 0), BuildingBlock: UVAHIK_clean_linker_0, # of connection points: 2
#     Edge 79, Type (0, 0), BuildingBlock: UVAHIK_clean_linker_0, # of connection points: 2
#     Edge 80, Type (0, 0), BuildingBlock: UVAHIK_clean_linker_0, # of connection points: 2
#     Edge 81, Type (0, 0), BuildingBlock: UVAHIK_clean_linker_0, # of connection points: 2
#     Edge 82, Type (0, 0), BuildingBlock: UVAHIK_clean_linker_0, # of connection points: 2
#     Edge 83, Type (0, 0), BuildingBlock: UVAHIK_clean_linker_0, # of connection points: 2
#     Edge 84, Type (0, 0), BuildingBlock: UVAHIK_clean_linker_0, # of connection points: 2
#     Edge 85, Type (0, 0), BuildingBlock: UVAHIK_clean_linker_0, # of connection points: 2
#     Edge 86, Type (0, 0), BuildingBlock: UVAHIK_clean_linker_0, # of connection points: 2
#     Edge 87, Type (0, 0), BuildingBlock: UVAHIK_clean_linker_0, # of connection points: 2
#     Edge 88, Type (0, 0), BuildingBlock: UVAHIK_clean_linker_0, # of connection points: 2
#     Edge 89, Type (0, 0), BuildingBlock: UVAHIK_clean_linker_0, # of connection points: 2
#     Edge 90, Type (0, 0), BuildingBlock: UVAHIK_clean_linker_0, # of connection points: 2
#     Edge 91, Type (0, 0), BuildingBlock: UVAHIK_clean_linker_0, # of connection points: 2
#     Edge 92, Type (0, 0), BuildingBlock: UVAHIK_clean_linker_0, # of connection points: 2
#     Edge 93, Type (0, 0), BuildingBlock: UVAHIK_clean_linker_0, # of connection points: 2
#     Edge 94, Type (0, 0), BuildingBlock: UVAHIK_clean_linker_0, # of connection points: 2
#     Edge 95, Type (0, 0), BuildingBlock: UVAHIK_clean_linker_0, # of connection points: 2
#     Edge 96, Type (0, 0), BuildingBlock: UVAHIK_clean_linker_0, # of connection points: 2
#     Edge 97, Type (0, 0), BuildingBlock: UVAHIK_clean_linker_0, # of connection points: 2
#     Edge 98, Type (0, 0), BuildingBlock: UVAHIK_clean_linker_0, # of connection points: 2
#     Edge 99, Type (0, 0), BuildingBlock: UVAHIK_clean_linker_0, # of connection points: 2
#     Edge 100, Type (0, 0), BuildingBlock: UVAHIK_clean_linker_0, # of connection points: 2
#     Edge 101, Type (0, 0), BuildingBlock: UVAHIK_clean_linker_0, # of connection points: 2
#     Edge 102, Type (0, 0), BuildingBlock: UVAHIK_clean_linker_0, # of connection points: 2
#     Edge 103, Type (0, 0), BuildingBlock: UVAHIK_clean_linker_0, # of connection points: 2
#     Edge 104, Type (0, 0), BuildingBlock: UVAHIK_clean_linker_0, # of connection points: 2
#     Edge 105, Type (0, 0), BuildingBlock: UVAHIK_clean_linker_0, # of connection points: 2
#     Edge 106, Type (0, 0), BuildingBlock: UVAHIK_clean_linker_0, # of connection points: 2
#     Edge 107, Type (0, 0), BuildingBlock: UVAHIK_clean_linker_0, # of connection points: 2
#     Edge 108, Type (0, 0), BuildingBlock: UVAHIK_clean_linker_0, # of connection points: 2
#     Edge 109, Type (0, 0), BuildingBlock: UVAHIK_clean_linker_0, # of connection points: 2
#     Edge 110, Type (0, 0), BuildingBlock: UVAHIK_clean_linker_0, # of connection points: 2
#     Edge 111, Type (0, 0), BuildingBlock: UVAHIK_clean_linker_0, # of connection points: 2
# Relax obj value: 0.181
# Max RMSD: 0.162
# Mean RMSD: 0.162
data_MOF--net-wgd--node1-XOMCOT_clean_sbu_1--edge1-UVAHIK_clean_linker_0
_symmetry_space_group_name_H-M    P1
_symmetry_Int_Tables_number       1
_symmetry_cell_setting            triclinic
loop_
_symmetry_equiv_pos_as_xyz
'x, y, z'
_cell_length_a     129.84009
_cell_length_b     129.83684
_cell_length_c     21.554148
_cell_angle_alpha  89.995181
_cell_angle_beta   90.018111
_cell_angle_gamma 90.002712
loop_
_atom_site_label
_atom_site_type_symbol
_atom_site_fract_x
_atom_site_fract_y
_atom_site_fract_z
_atom_type_partial_charge
C0 C 0.17767 0.16627 0.02245 0.0
C1 C 0.17497 0.16591 0.08425 0.0
N2 N 0.18182 0.15988 0.11425 0.0
N3 N 0.18621 0.16057 0.01367 0.0
C4 C 0.18845 0.15666 0.07009 0.0
H5 H 0.17387 0.17068 0.98653 0.0
Co6 Co 0.19365 0.15943 0.94042 0.0
C7 C 0.21196 0.14815 0.98786 0.0
O8 O 0.21102 0.14076 0.94658 0.0
N9 N 0.20093 0.15836 0.86643 0.0
C10 C 0.21264 0.15933 0.79157 0.0
C11 C 0.21096 0.16022 0.85444 0.0
C12 C 0.19668 0.15648 0.81051 0.0
N13 N 0.20362 0.15698 0.76396 0.0
O14 O 0.18963 0.14531 0.93409 0.0
H15 H 0.21662 0.16242 0.88879 0.0
H16 H 0.18852 0.15529 0.8038 0.0
O17 O 0.20575 0.15574 0.9875 0.0
C18 C 0.18077 0.14408 0.90997 0.0
O19 O 0.17549 0.15229 0.89375 0.0
N20 N 0.19699 0.17341 0.9452 0.0
C21 C 0.19966 0.19471 0.94876 0.0
C22 C 0.2038 0.18842 0.9955 0.0
C23 C 0.20234 0.17776 0.99302 0.0
C24 C 0.19287 0.17939 0.8996 0.0
C25 C 0.19419 0.19005 0.90015 0.0
H26 H 0.20527 0.17308 0.03046 0.0
H27 H 0.18836 0.17587 0.86315 0.0
H28 H 0.19509 0.15188 0.07922 0.0
H29 H 0.16859 0.16994 0.10543 0.0
H30 H 0.21992 0.16048 0.76814 0.0
H31 H 0.20806 0.1917 0.03392 0.0
H32 H 0.19067 0.19463 0.86386 0.0
C33 C 0.08012 0.93374 0.26726 0.0
C34 C 0.08006 0.93121 0.32943 0.0
N35 N 0.08735 0.93687 0.35803 0.0
N36 N 0.08737 0.94098 0.25729 0.0
C37 C 0.09176 0.94256 0.31307 0.0
H38 H 0.075 0.93076 0.23198 0.0
Co39 Co 0.0904 0.9478 0.18403 0.0
C40 C 0.0926 0.96931 0.23125 0.0
O41 O 0.08638 0.97279 0.18791 0.0
N42 N 0.09383 0.95427 0.10897 0.0
C43 C 0.10192 0.96299 0.03442 0.0
C44 C 0.10005 0.9624 0.09709 0.0
C45 C 0.09256 0.94976 0.05305 0.0
N46 N 0.09721 0.95498 0.00679 0.0
O47 O 0.10393 0.94206 0.18524 0.0
H48 H 0.10375 0.96716 0.13149 0.0
H49 H 0.08874 0.94244 0.04688 0.0
O50 O 0.09501 0.95976 0.23233 0.0
C51 C 0.1037 0.93312 0.16101 0.0
O52 O 0.09474 0.92944 0.14322 0.0
N53 N 0.0766 0.95272 0.18129 0.0
C54 C 0.05532 0.95628 0.17947 0.0
C55 C 0.06128 0.95924 0.23075 0.0
C56 C 0.07187 0.95723 0.23118 0.0
C57 C 0.07083 0.94971 0.13164 0.0
C58 C 0.06029 0.9516 0.12917 0.0
H59 H 0.07616 0.95886 0.27299 0.0
H60 H 0.07419 0.94526 0.09494 0.0
H61 H 0.09803 0.94787 0.32082 0.0
H62 H 0.0748 0.92596 0.35214 0.0
H63 H 0.10691 0.96849 0.01166 0.0
H64 H 0.05772 0.96258 0.27147 0.0
H65 H 0.05601 0.9491 0.08874 0.0
C66 C 0.32185 0.82939 0.54789 0.0
C67 C 0.32432 0.82882 0.60991 0.0
N68 N 0.31903 0.83621 0.64009 0.0
N69 N 0.31493 0.837 0.53935 0.0
C70 C 0.31353 0.84113 0.59606 0.0
H71 H 0.32475 0.82443 0.5116 0.0
Co72 Co 0.30834 0.84059 0.46605 0.0
C73 C 0.28638 0.84382 0.50511 0.0
O74 O 0.28284 0.83946 0.45437 0.0
N75 N 0.30199 0.84447 0.39148 0.0
C76 C 0.29446 0.85436 0.3202 0.0
C77 C 0.29613 0.85295 0.38258 0.0
C78 C 0.30406 0.8411 0.33352 0.0
N79 N 0.2995 0.84689 0.28938 0.0
O80 O 0.31345 0.85435 0.47277 0.0
H81 H 0.29369 0.85814 0.41892 0.0
H82 H 0.3095 0.8351 0.32305 0.0
O83 O 0.2961 0.84456 0.51364 0.0
C84 C 0.32307 0.85577 0.46582 0.0
O85 O 0.32915 0.84776 0.4591 0.0
N86 N 0.30392 0.82678 0.4581 0.0
C87 C 0.30111 0.80545 0.44902 0.0
C88 C 0.29552 0.81126 0.4923 0.0
C89 C 0.29719 0.82188 0.49706 0.0
C90 C 0.30966 0.82116 0.41746 0.0
C91 C 0.30823 0.81057 0.41112 0.0
H92 H 0.29353 0.82592 0.5347 0.0
H93 H 0.31588 0.8248 0.39247 0.0
H94 H 0.30835 0.84745 0.60513 0.0
H95 H 0.3295 0.82332 0.63114 0.0
H96 H 0.29023 0.86064 0.29925 0.0
H97 H 0.29029 0.80757 0.52453 0.0
H98 H 0.31291 0.8064 0.37795 0.0
C99 C 0.41997 0.06951 0.75283 0.0
C100 C 0.41978 0.07215 0.81475 0.0
N101 N 0.41277 0.06614 0.84334 0.0
N102 N 0.41315 0.06186 0.74291 0.0
C103 C 0.40879 0.06009 0.79856 0.0
H104 H 0.4249 0.07279 0.7175 0.0
Co105 Co 0.41043 0.05515 0.66891 0.0
C106 C 0.40936 0.03336 0.71162 0.0
O107 O 0.41569 0.03051 0.66722 0.0
N108 N 0.40728 0.04885 0.59323 0.0
C109 C 0.39932 0.04021 0.51797 0.0
C110 C 0.40123 0.04063 0.58059 0.0
C111 C 0.40841 0.05358 0.53789 0.0
N112 N 0.40384 0.0484 0.49113 0.0
O113 O 0.39657 0.06 0.67168 0.0
H114 H 0.39762 0.03571 0.61454 0.0
H115 H 0.412 0.06103 0.53268 0.0
O116 O 0.4065 0.04276 0.71541 0.0
C117 C 0.39567 0.06946 0.65728 0.0
O118 O 0.40401 0.07474 0.64361 0.0
N119 N 0.42448 0.05095 0.66554 0.0
C120 C 0.44588 0.04802 0.66593 0.0
C121 C 0.43986 0.04487 0.71644 0.0
C122 C 0.42923 0.04655 0.71577 0.0
C123 C 0.43029 0.05416 0.61647 0.0
C124 C 0.44092 0.05262 0.61522 0.0
H125 H 0.4249 0.04472 0.75709 0.0
H126 H 0.42686 0.05845 0.57922 0.0
H127 H 0.40279 0.05445 0.80612 0.0
H128 H 0.42465 0.07779 0.83724 0.0
H129 H 0.39441 0.03468 0.49479 0.0
H130 H 0.44338 0.04161 0.75753 0.0
H131 H 0.44526 0.05529 0.57541 0.0
C132 C 0.18222 0.83109 0.97767 0.0
C133 C 0.1795 0.83054 0.91601 0.0
N134 N 0.18403 0.83844 0.88603 0.0
N135 N 0.18856 0.83919 0.98604 0.0
C136 C 0.18937 0.84362 0.92972 0.0
H137 H 0.17995 0.82578 0.01384 0.0
Co138 Co 0.19502 0.84301 0.05923 0.0
C139 C 0.21664 0.84639 0.01706 0.0
O140 O 0.22019 0.84123 0.065 0.0
N141 N 0.20099 0.84718 0.13438 0.0
C142 C 0.20893 0.85609 0.20879 0.0
C143 C 0.20836 0.8543 0.14601 0.0
C144 C 0.19676 0.84536 0.19055 0.0
N145 N 0.20158 0.85047 0.23661 0.0
O146 O 0.18888 0.85633 0.0536 0.0
H147 H 0.21258 0.85856 0.1113 0.0
H148 H 0.18987 0.84084 0.1973 0.0
O149 O 0.20694 0.84782 0.01109 0.0
C150 C 0.17941 0.85657 0.0686 0.0
O151 O 0.17484 0.84793 0.0845 0.0
N152 N 0.2006 0.82948 0.06537 0.0
C153 C 0.20566 0.80849 0.06794 0.0
C154 C 0.2087 0.81474 0.01821 0.0
C155 C 0.20592 0.82513 0.01721 0.0
C156 C 0.19745 0.82344 0.11356 0.0
C157 C 0.20003 0.813 0.1163 0.0
H158 H 0.20761 0.8295 0.97584 0.0
H159 H 0.19233 0.82643 0.14827 0.0
H160 H 0.19402 0.85035 0.92059 0.0
H161 H 0.17467 0.82473 0.89481 0.0
H162 H 0.21392 0.86159 0.23173 0.0
H163 H 0.21293 0.81159 0.9793 0.0
H164 H 0.19711 0.80839 0.15433 0.0
C165 C 0.41863 0.92842 0.18234 0.0
C166 C 0.41844 0.92581 0.1204 0.0
N167 N 0.41129 0.93169 0.09207 0.0
N168 N 0.41166 0.93593 0.19255 0.0
C169 C 0.40723 0.93764 0.13702 0.0
H170 H 0.42364 0.92522 0.2175 0.0
Co171 Co 0.40885 0.94253 0.26676 0.0
C172 C 0.40778 0.96439 0.22527 0.0
O173 O 0.41394 0.96719 0.27067 0.0
N174 N 0.40561 0.94874 0.34252 0.0
C175 C 0.39742 0.95724 0.41746 0.0
C176 C 0.39941 0.95685 0.35494 0.0
C177 C 0.40674 0.94401 0.39787 0.0
N178 N 0.40204 0.94912 0.44445 0.0
O179 O 0.39495 0.93776 0.26366 0.0
H180 H 0.39575 0.96171 0.32083 0.0
H181 H 0.41042 0.9366 0.4032 0.0
O182 O 0.40498 0.95498 0.22053 0.0
C183 C 0.39356 0.92816 0.27219 0.0
O184 O 0.4016 0.92211 0.27846 0.0
N185 N 0.42288 0.94675 0.27095 0.0
C186 C 0.44408 0.95074 0.27455 0.0
C187 C 0.43817 0.95358 0.22288 0.0
C188 C 0.42765 0.95137 0.22156 0.0
C189 C 0.42863 0.9436 0.32045 0.0
C190 C 0.43917 0.94567 0.32371 0.0
H191 H 0.42339 0.95315 0.17985 0.0
H192 H 0.42525 0.93903 0.35661 0.0
H193 H 0.40111 0.94316 0.1297 0.0
H194 H 0.4234 0.92027 0.09772 0.0
H195 H 0.39239 0.96267 0.44044 0.0
H196 H 0.44166 0.95737 0.18336 0.0
H197 H 0.4435 0.94292 0.36334 0.0
C198 C 0.3239 0.16826 0.42985 0.0
C199 C 0.32652 0.16794 0.36789 0.0
N200 N 0.3202 0.1612 0.33936 0.0
N201 N 0.31595 0.16178 0.43977 0.0
C202 C 0.31401 0.15748 0.38419 0.0
H203 H 0.32734 0.17309 0.46505 0.0
Co204 Co 0.30894 0.15958 0.51322 0.0
C205 C 0.28724 0.15898 0.46891 0.0
O206 O 0.28458 0.16557 0.51235 0.0
N207 N 0.30225 0.15693 0.58883 0.0
C208 C 0.2932 0.14932 0.66377 0.0
C209 C 0.2939 0.15103 0.60102 0.0
C210 C 0.30675 0.15818 0.64482 0.0
N211 N 0.30135 0.1538 0.69124 0.0
O212 O 0.31351 0.14561 0.51371 0.0
H213 H 0.28909 0.14735 0.56677 0.0
H214 H 0.31425 0.16162 0.65096 0.0
O215 O 0.29655 0.1558 0.46586 0.0
C216 C 0.32224 0.14514 0.54043 0.0
O217 O 0.32658 0.15381 0.55804 0.0
N218 N 0.30521 0.17375 0.51424 0.0
C219 C 0.30306 0.19522 0.51418 0.0
C220 C 0.29957 0.18933 0.46383 0.0
C221 C 0.30089 0.17863 0.46425 0.0
C222 C 0.30886 0.17944 0.5626 0.0
C223 C 0.30768 0.1901 0.56417 0.0
H224 H 0.29882 0.17434 0.42318 0.0
H225 H 0.31324 0.17589 0.59895 0.0
H226 H 0.3081 0.15175 0.37658 0.0
H227 H 0.33232 0.1726 0.34529 0.0
H228 H 0.28756 0.14451 0.68669 0.0
H229 H 0.29628 0.19299 0.42325 0.0
H230 H 0.31061 0.19431 0.60379 0.0
C231 C 0.08431 0.06823 0.74025 0.0
C232 C 0.08456 0.07082 0.6782 0.0
N233 N 0.09134 0.06455 0.64967 0.0
N234 N 0.09085 0.06034 0.75018 0.0
C235 C 0.09517 0.05845 0.69461 0.0
H236 H 0.07936 0.07155 0.77531 0.0
Co237 Co 0.09279 0.05302 0.8228 0.0
C238 C 0.09398 0.03146 0.77536 0.0
O239 O 0.08745 0.02836 0.81806 0.0
N240 N 0.09512 0.04603 0.89767 0.0
C241 C 0.10262 0.03692 0.97277 0.0
C242 C 0.10129 0.03788 0.90976 0.0
C243 C 0.09326 0.05015 0.95407 0.0
N244 N 0.0976 0.04472 0.00052 0.0
O245 O 0.10674 0.05763 0.82531 0.0
H246 H 0.1054 0.03343 0.87548 0.0
H247 H 0.08945 0.05745 0.96071 0.0
O248 O 0.09688 0.04088 0.7743 0.0
C249 C 0.10789 0.06586 0.85663 0.0
O250 O 0.09972 0.07013 0.88183 0.0
N251 N 0.07865 0.0491 0.82058 0.0
C252 C 0.05728 0.0463 0.81319 0.0
C253 C 0.06372 0.04321 0.76445 0.0
C254 C 0.07433 0.04485 0.76856 0.0
C255 C 0.07242 0.05241 0.8675 0.0
C256 C 0.06178 0.05092 0.8653 0.0
H257 H 0.079 0.04305 0.72857 0.0
H258 H 0.07553 0.05678 0.90541 0.0
H259 H 0.10089 0.05255 0.68685 0.0
H260 H 0.07975 0.07648 0.65543 0.0
H261 H 0.10756 0.03141 0.99586 0.0
H262 H 0.06059 0.03976 0.72278 0.0
H263 H 0.05708 0.05385 0.90285 0.0
C264 C 0.82342 0.82849 0.96797 0.0
C265 C 0.82622 0.82874 0.90633 0.0
N266 N 0.82082 0.83628 0.87823 0.0
N267 N 0.81623 0.83578 0.97826 0.0
C268 C 0.81495 0.84051 0.92319 0.0
H269 H 0.82622 0.82317 0.00273 0.0
Co270 Co 0.80948 0.83853 0.05196 0.0
C271 C 0.78769 0.841 0.01102 0.0
O272 O 0.78447 0.8353 0.05752 0.0
N273 N 0.80315 0.8417 0.1279 0.0
C274 C 0.7953 0.85052 0.20299 0.0
C275 C 0.79575 0.84876 0.1402 0.0
C276 C 0.80743 0.8398 0.18386 0.0
N277 N 0.80272 0.8449 0.23039 0.0
O278 O 0.81486 0.8522 0.05126 0.0
H279 H 0.79158 0.85315 0.10587 0.0
H280 H 0.81443 0.83545 0.18986 0.0
O281 O 0.79729 0.84298 0.00502 0.0
C282 C 0.82365 0.85249 0.07732 0.0
O283 O 0.82773 0.84377 0.0963 0.0
N284 N 0.8048 0.82466 0.05367 0.0
C285 C 0.80147 0.80334 0.05142 0.0
C286 C 0.7978 0.80963 0.00337 0.0
C287 C 0.7997 0.82023 0.00483 0.0
C288 C 0.80855 0.81858 0.09998 0.0
C289 C 0.80679 0.80799 0.10055 0.0
H290 H 0.79757 0.82475 0.96478 0.0
H291 H 0.81353 0.82173 0.13488 0.0
H292 H 0.80981 0.84695 0.91629 0.0
H293 H 0.83152 0.82353 0.88364 0.0
H294 H 0.79046 0.85613 0.22591 0.0
H295 H 0.79399 0.80634 0.96331 0.0
H296 H 0.80988 0.80345 0.13836 0.0
C297 C 0.92009 0.07272 0.70037 0.0
C298 C 0.91974 0.07538 0.63853 0.0
N299 N 0.9128 0.06925 0.61026 0.0
N300 N 0.91344 0.06493 0.71059 0.0
C301 C 0.90903 0.06309 0.65517 0.0
H302 H 0.92501 0.07609 0.73545 0.0
Co303 Co 0.91101 0.0582 0.78485 0.0
C304 C 0.91058 0.03636 0.74329 0.0
O305 O 0.91691 0.0338 0.78835 0.0
N306 N 0.90813 0.05185 0.86072 0.0
C307 C 0.90027 0.04314 0.93601 0.0
C308 C 0.90217 0.04357 0.87342 0.0
C309 C 0.9092 0.05661 0.91602 0.0
N310 N 0.90469 0.05138 0.9628 0.0
O311 O 0.89696 0.06254 0.78296 0.0
H312 H 0.89858 0.03863 0.83947 0.0
H313 H 0.91267 0.06412 0.92114 0.0
O314 O 0.90742 0.04566 0.73867 0.0
C315 C 0.89532 0.07208 0.79226 0.0
O316 O 0.90321 0.07833 0.7986 0.0
N317 N 0.92518 0.05439 0.78772 0.0
C318 C 0.94648 0.05089 0.7891 0.0
C319 C 0.94051 0.04805 0.7377 0.0
C320 C 0.92994 0.05002 0.7375 0.0
C321 C 0.93097 0.05753 0.83705 0.0
C322 C 0.94157 0.05571 0.83917 0.0
H323 H 0.92562 0.04822 0.69605 0.0
H324 H 0.92756 0.06189 0.87406 0.0
H325 H 0.90315 0.05732 0.64788 0.0
H326 H 0.92445 0.08113 0.61587 0.0
H327 H 0.89539 0.03758 0.95918 0.0
H328 H 0.94397 0.04442 0.69756 0.0
H329 H 0.94593 0.05843 0.87874 0.0
C330 C 0.67385 0.16764 0.42243 0.0
C331 C 0.67136 0.16662 0.36065 0.0
N332 N 0.6779 0.15976 0.33504 0.0
N333 N 0.68191 0.16147 0.43538 0.0
C334 C 0.68412 0.15669 0.38154 0.0
H335 H 0.67021 0.17274 0.45548 0.0
Co336 Co 0.68869 0.16041 0.51054 0.0
C337 C 0.70768 0.14965 0.47208 0.0
O338 O 0.70656 0.14265 0.51564 0.0
N339 N 0.69529 0.15941 0.58597 0.0
C340 C 0.70593 0.16079 0.66597 0.0
C341 C 0.70486 0.16228 0.60303 0.0
C342 C 0.69069 0.1563 0.63859 0.0
N343 N 0.69697 0.15707 0.68822 0.0
O344 O 0.68503 0.14613 0.51586 0.0
H345 H 0.71055 0.16556 0.57216 0.0
H346 H 0.68277 0.15372 0.64033 0.0
O347 O 0.70123 0.157 0.46736 0.0
C348 C 0.67554 0.14396 0.52291 0.0
O349 O 0.66875 0.15145 0.52368 0.0
N350 N 0.69177 0.17446 0.50709 0.0
C351 C 0.6942 0.19581 0.50626 0.0
C352 C 0.69886 0.18968 0.4605 0.0
C353 C 0.6975 0.179 0.46153 0.0
C354 C 0.68717 0.18028 0.55174 0.0
C355 C 0.68836 0.19095 0.55256 0.0
H356 H 0.70082 0.17443 0.4247 0.0
H357 H 0.68246 0.17659 0.58669 0.0
H358 H 0.69026 0.15112 0.37637 0.0
H359 H 0.6655 0.17091 0.33603 0.0
H360 H 0.71262 0.16275 0.69348 0.0
H361 H 0.70325 0.19312 0.42316 0.0
H362 H 0.6847 0.19534 0.58915 0.0
C363 C 0.58157 0.93046 0.25525 0.0
C364 C 0.58149 0.92751 0.19387 0.0
N365 N 0.58781 0.93384 0.16216 0.0
N366 N 0.58783 0.93866 0.26185 0.0
C367 C 0.59163 0.94045 0.20465 0.0
H368 H 0.57712 0.92707 0.29241 0.0
Co369 Co 0.58981 0.94606 0.33436 0.0
C370 C 0.59193 0.96749 0.28849 0.0
O371 O 0.58543 0.97057 0.33149 0.0
N372 N 0.59214 0.95307 0.40943 0.0
C373 C 0.59996 0.96195 0.48438 0.0
C374 C 0.59891 0.96074 0.4214 0.0
C375 C 0.58965 0.94942 0.46621 0.0
N376 N 0.59413 0.95478 0.51255 0.0
O377 O 0.60352 0.94086 0.33978 0.0
H378 H 0.60352 0.96468 0.38718 0.0
H379 H 0.58553 0.9423 0.47356 0.0
O380 O 0.59457 0.958 0.28597 0.0
C381 C 0.60363 0.93237 0.36935 0.0
O382 O 0.59479 0.92857 0.38846 0.0
N383 N 0.57586 0.9505 0.32969 0.0
C384 C 0.55463 0.9539 0.31826 0.0
C385 C 0.56141 0.95683 0.27087 0.0
C386 C 0.57194 0.95488 0.27694 0.0
C387 C 0.5693 0.94736 0.37536 0.0
C388 C 0.55872 0.94914 0.37116 0.0
H389 H 0.57685 0.95655 0.23784 0.0
H390 H 0.57209 0.94287 0.41368 0.0
H391 H 0.59673 0.94676 0.1937 0.0
H392 H 0.57698 0.92132 0.17406 0.0
H393 H 0.60503 0.96735 0.50738 0.0
H394 H 0.5586 0.96038 0.22868 0.0
H395 H 0.55374 0.94632 0.40769 0.0
C396 C 0.82492 0.16907 0.07723 0.0
C397 C 0.82746 0.16897 0.13926 0.0
N398 N 0.82149 0.16192 0.16774 0.0
N399 N 0.81737 0.16215 0.06712 0.0
C400 C 0.81552 0.15785 0.12283 0.0
H401 H 0.82829 0.17391 0.04179 0.0
Co402 Co 0.81118 0.15902 0.99234 0.0
C403 C 0.78902 0.15836 0.02674 0.0
O404 O 0.78678 0.16418 0.97864 0.0
N405 N 0.80534 0.15543 0.91597 0.0
C406 C 0.79726 0.14657 0.84202 0.0
C407 C 0.79758 0.14876 0.90428 0.0
C408 C 0.81 0.15663 0.86044 0.0
N409 N 0.80512 0.15152 0.8145 0.0
O410 O 0.8156 0.14504 -0.00056 0.0
H411 H 0.79293 0.14496 0.93893 0.0
H412 H 0.81724 0.16057 0.85446 0.0
O413 O 0.79836 0.15563 0.03632 0.0
C414 C 0.82519 0.14327 0.9935 0.0
O415 O 0.83156 0.15107 0.98764 0.0
N416 N 0.80731 0.1731 0.98428 0.0
C417 C 0.80367 0.19431 0.97444 0.0
C418 C 0.79997 0.1887 0.02537 0.0
C419 C 0.80207 0.17818 0.0301 0.0
C420 C 0.81141 0.17857 0.93623 0.0
C421 C 0.80954 0.1891 0.92979 0.0
H422 H 0.79967 0.17419 0.07161 0.0
H423 H 0.8166 0.17496 0.90415 0.0
H424 H 0.80999 0.15175 0.1301 0.0
H425 H 0.8331 0.17385 0.16175 0.0
H426 H 0.79209 0.14119 0.81961 0.0
H427 H 0.79558 0.19241 0.06176 0.0
H428 H 0.81302 0.19319 0.89137 0.0
C429 C 0.58203 0.07134 0.81269 0.0
C430 C 0.5821 0.07385 0.87482 0.0
N431 N 0.58908 0.06781 0.90344 0.0
N432 N 0.58892 0.06374 0.80265 0.0
C433 C 0.59316 0.06186 0.8585 0.0
H434 H 0.57719 0.0747 0.77722 0.0
Co435 Co 0.59197 0.05726 0.72836 0.0
C436 C 0.59238 0.03531 0.77016 0.0
O437 O 0.58618 0.03252 0.7249 0.0
N438 N 0.59547 0.05112 0.6527 0.0
C439 C 0.6034 0.04228 0.57819 0.0
C440 C 0.60122 0.04268 0.64049 0.0
C441 C 0.59483 0.056 0.59755 0.0
N442 N 0.59936 0.0507 0.55116 0.0
O443 O 0.60596 0.06171 0.73458 0.0
H444 H 0.60441 0.0375 0.67462 0.0
H445 H 0.59153 0.06359 0.5922 0.0
O446 O 0.59533 0.04467 0.77436 0.0
C447 C 0.60752 0.0713 0.7268 0.0
O448 O 0.59959 0.07745 0.71908 0.0
N449 N 0.57788 0.05343 0.72084 0.0
C450 C 0.55654 0.05052 0.71145 0.0
C451 C 0.56195 0.0471 0.76388 0.0
C452 C 0.57257 0.04879 0.76815 0.0
C453 C 0.57263 0.05705 0.67057 0.0
C454 C 0.56205 0.0555 0.66434 0.0
H455 H 0.57646 0.04669 0.81063 0.0
H456 H 0.57645 0.06161 0.63604 0.0
H457 H 0.5992 0.05627 0.86603 0.0
H458 H 0.5772 0.07946 0.89737 0.0
H459 H 0.60812 0.03655 0.55539 0.0
H460 H 0.55797 0.04354 0.80244 0.0
H461 H 0.55821 0.05839 0.62326 0.0
C462 C 0.68131 0.83135 0.55322 0.0
C463 C 0.67883 0.83111 0.61542 0.0
N464 N 0.68409 0.83869 0.64407 0.0
N465 N 0.68812 0.839 0.54322 0.0
C466 C 0.68952 0.84342 0.59909 0.0
H467 H 0.67846 0.82619 0.51772 0.0
Co468 Co 0.69426 0.84287 0.46915 0.0
C469 C 0.7163 0.8448 0.50831 0.0
O470 O 0.71941 0.83948 0.45989 0.0
N471 N 0.7 0.84715 0.39365 0.0
C472 C 0.70797 0.85614 0.31985 0.0
C473 C 0.70774 0.85386 0.3821 0.0
C474 C 0.69527 0.84606 0.33822 0.0
N475 N 0.70009 0.85121 0.29225 0.0
O476 O 0.68887 0.85645 0.47858 0.0
H477 H 0.71248 0.85753 0.41675 0.0
H478 H 0.68807 0.84204 0.33231 0.0
O479 O 0.70671 0.84678 0.51521 0.0
C480 C 0.67928 0.85715 0.46727 0.0
O481 O 0.67415 0.84877 0.45266 0.0
N482 N 0.69902 0.82911 0.4589 0.0
C483 C 0.70275 0.80791 0.44803 0.0
C484 C 0.70641 0.81345 0.49937 0.0
C485 C 0.70432 0.82399 0.50441 0.0
C486 C 0.69525 0.82374 0.40951 0.0
C487 C 0.69722 0.81325 0.40241 0.0
H488 H 0.70652 0.82789 0.54666 0.0
H489 H 0.69016 0.82735 0.37692 0.0
H490 H 0.69434 0.85009 0.6065 0.0
H491 H 0.6738 0.82562 0.63799 0.0
H492 H 0.71318 0.86148 0.29744 0.0
H493 H 0.71039 0.80959 0.53691 0.0
H494 H 0.69414 0.80932 0.36219 0.0
C495 C 0.92035 0.93288 0.26841 0.0
C496 C 0.92048 0.93037 0.33055 0.0
N497 N 0.91324 0.93606 0.35944 0.0
N498 N 0.9131 0.94013 0.25869 0.0
C499 C 0.90882 0.94179 0.31467 0.0
H500 H 0.9253 0.92975 0.23273 0.0
Co501 Co 0.90958 0.94637 0.18444 0.0
C502 C 0.90791 0.96827 0.22278 0.0
O503 O 0.91357 0.97099 0.1749 0.0
N504 N 0.90561 0.95219 0.10867 0.0
C505 C 0.89668 0.96015 0.03454 0.0
C506 C 0.89888 0.95991 0.09685 0.0
C507 C 0.90681 0.94749 0.05327 0.0
N508 N 0.90168 0.9523 0.00715 0.0
O509 O 0.896 0.94086 0.19135 0.0
H510 H 0.89511 0.96459 0.13136 0.0
H511 H 0.91088 0.94031 0.04756 0.0
O512 O 0.90546 0.9588 0.23012 0.0
C513 C 0.89566 0.93135 0.17721 0.0
O514 O 0.90423 0.92668 0.16119 0.0
N515 N 0.9234 0.9512 0.17702 0.0
C516 C 0.9446 0.95525 0.17167 0.0
C517 C 0.93877 0.95827 0.22324 0.0
C518 C 0.92825 0.95604 0.22543 0.0
C519 C 0.92905 0.94808 0.12709 0.0
C520 C 0.93956 0.95019 0.12289 0.0
H521 H 0.92411 0.95781 0.26756 0.0
H522 H 0.92564 0.94342 0.09148 0.0
H523 H 0.90251 0.94707 0.32237 0.0
H524 H 0.92567 0.925 0.35287 0.0
H525 H 0.89131 0.96531 0.01195 0.0
H526 H 0.94238 0.96187 0.263 0.0
H527 H 0.94375 0.9476 0.08234 0.0
C528 C 0.68134 0.67142 0.49056 0.0
C529 C 0.67869 0.67126 0.5525 0.0
N530 N 0.68466 0.66421 0.58116 0.0
N531 N 0.68895 0.66456 0.48076 0.0
C532 C 0.69066 0.66017 0.5364 0.0
H533 H 0.67816 0.67642 0.45528 0.0
Co534 Co 0.69588 0.66202 0.40743 0.0
C535 C 0.71749 0.66025 0.4521 0.0
O536 O 0.72058 0.66662 0.40847 0.0
N537 N 0.70243 0.65905 0.33199 0.0
C538 C 0.71105 0.65102 0.25684 0.0
C539 C 0.71044 0.65271 0.31966 0.0
C540 C 0.698 0.6606 0.27608 0.0
N541 N 0.70316 0.65597 0.22952 0.0
O542 O 0.69062 0.64829 0.40711 0.0
H543 H 0.71504 0.64874 0.35382 0.0
H544 H 0.69071 0.66448 0.27016 0.0
O545 O 0.70802 0.65759 0.45487 0.0
C546 C 0.68178 0.64799 0.38166 0.0
O547 O 0.67769 0.65669 0.36251 0.0
N548 N 0.70041 0.67597 0.4069 0.0
C549 C 0.7038 0.69728 0.40986 0.0
C550 C 0.70678 0.69104 0.45978 0.0
C551 C 0.70485 0.68045 0.45787 0.0
C552 C 0.69732 0.68201 0.35858 0.0
C553 C 0.69911 0.6926 0.35856 0.0
H554 H 0.70653 0.67593 0.49873 0.0
H555 H 0.69293 0.67882 0.32104 0.0
H556 H 0.69627 0.65416 0.54413 0.0
H557 H 0.67314 0.67622 0.57502 0.0
H558 H 0.71641 0.64592 0.23377 0.0
H559 H 0.71011 0.69436 0.50129 0.0
H560 H 0.69656 0.69712 0.31921 0.0
C561 C 0.58255 0.42834 0.79865 0.0
C562 C 0.58298 0.42564 0.8604 0.0
N563 N 0.58994 0.43176 0.88854 0.0
N564 N 0.58918 0.43615 0.78836 0.0
C565 C 0.59366 0.43795 0.84362 0.0
H566 H 0.57756 0.42503 0.76377 0.0
Co567 Co 0.59135 0.44304 0.71433 0.0
C568 C 0.59212 0.4648 0.75813 0.0
O569 O 0.58552 0.46756 0.71496 0.0
N570 N 0.59394 0.44955 0.63859 0.0
C571 C 0.60149 0.4584 0.56275 0.0
C572 C 0.59978 0.4579 0.62552 0.0
C573 C 0.59274 0.44483 0.58326 0.0
N574 N 0.59708 0.45014 0.53618 0.0
O575 O 0.60538 0.43863 0.71387 0.0
H576 H 0.60343 0.46284 0.65919 0.0
H577 H 0.58931 0.4373 0.5783 0.0
O578 O 0.59521 0.45546 0.76094 0.0
C579 C 0.60692 0.42911 0.70339 0.0
O580 O 0.59898 0.42293 0.69737 0.0
N581 N 0.5772 0.4469 0.71376 0.0
C582 C 0.55584 0.44998 0.7166 0.0
C583 C 0.56203 0.45293 0.76683 0.0
C584 C 0.57264 0.45117 0.76494 0.0
C585 C 0.57122 0.44375 0.66528 0.0
C586 C 0.56059 0.44535 0.66529 0.0
H587 H 0.57713 0.45297 0.8057 0.0
H588 H 0.57452 0.43949 0.62745 0.0
H589 H 0.59952 0.44374 0.85088 0.0
H590 H 0.57826 0.4199 0.88317 0.0
H591 H 0.60627 0.46401 0.53928 0.0
H592 H 0.55871 0.45642 0.80782 0.0
H593 H 0.55607 0.44256 0.62651 0.0
C594 C 0.82063 0.32966 0.99657 0.0
C595 C 0.8233 0.32978 0.05839 0.0
N596 N 0.8179 0.33731 0.08665 0.0
N597 N 0.8135 0.33701 0.9863 0.0
C598 C 0.81216 0.34166 0.04151 0.0
H599 H 0.82347 0.32439 0.96175 0.0
Co600 Co 0.80674 0.33986 0.91309 0.0
C601 C 0.78492 0.34363 0.95087 0.0
O602 O 0.78147 0.33892 0.90108 0.0
N603 N 0.80028 0.34306 0.83778 0.0
C604 C 0.79353 0.35283 0.76314 0.0
C605 C 0.79456 0.35155 0.82609 0.0
C606 C 0.80289 0.33955 0.78101 0.0
N607 N 0.79889 0.34532 0.73492 0.0
O608 O 0.81222 0.35349 0.91474 0.0
H609 H 0.79205 0.35701 0.86082 0.0
H610 H 0.80834 0.33345 0.77315 0.0
O611 O 0.79463 0.34447 0.95997 0.0
C612 C 0.82008 0.35476 0.88036 0.0
O613 O 0.82355 0.34686 0.84846 0.0
N614 N 0.802 0.32605 0.9114 0.0
C615 C 0.79883 0.30473 0.91643 0.0
C616 C 0.79381 0.31134 0.95801 0.0
C617 C 0.79567 0.32192 0.95565 0.0
C618 C 0.80718 0.31967 0.87194 0.0
C619 C 0.80554 0.30904 0.87266 0.0
H620 H 0.79253 0.32658 0.99235 0.0
H621 H 0.81324 0.3227 0.84309 0.0
H622 H 0.80702 0.3481 0.04836 0.0
H623 H 0.8285 0.32445 0.08102 0.0
H624 H 0.78993 0.35931 0.74013 0.0
H625 H 0.78877 0.30832 0.9937 0.0
H626 H 0.80999 0.3042 0.84179 0.0
C627 C 0.91671 0.57342 0.33325 0.0
C628 C 0.91661 0.57627 0.39474 0.0
N629 N 0.90982 0.57021 0.42489 0.0
N630 N 0.91008 0.56555 0.32499 0.0
C631 C 0.90594 0.56383 0.38135 0.0
H632 H 0.92135 0.57679 0.29687 0.0
Co633 Co 0.90736 0.55883 0.25107 0.0
C634 C 0.9069 0.53693 0.29164 0.0
O635 O 0.9131 0.53439 0.2459 0.0
N636 N 0.90423 0.55251 0.17532 0.0
C637 C 0.89629 0.54378 0.1002 0.0
C638 C 0.89812 0.54432 0.16291 0.0
C639 C 0.90545 0.55713 0.1197 0.0
N640 N 0.90094 0.55187 0.07313 0.0
O641 O 0.89331 0.56312 0.25481 0.0
H642 H 0.89451 0.53943 0.19708 0.0
H643 H 0.90879 0.56469 0.11401 0.0
O644 O 0.90391 0.54627 0.29739 0.0
C645 C 0.89148 0.57262 0.24572 0.0
O646 O 0.89924 0.57902 0.23911 0.0
N647 N 0.92152 0.55509 0.24611 0.0
C648 C 0.94277 0.5515 0.23953 0.0
C649 C 0.93709 0.54838 0.29155 0.0
C650 C 0.92652 0.55041 0.29441 0.0
C651 C 0.92707 0.55864 0.19682 0.0
C652 C 0.93762 0.55676 0.19201 0.0
H653 H 0.92242 0.54838 0.33626 0.0
H654 H 0.92351 0.56337 0.16207 0.0
H655 H 0.90034 0.55787 0.39046 0.0
H656 H 0.92117 0.58234 0.41546 0.0
H657 H 0.8916 0.53809 0.07678 0.0
H658 H 0.94077 0.54447 0.33003 0.0
H659 H 0.94177 0.55977 0.1524 0.0
C660 C 0.67635 0.33241 0.40334 0.0
C661 C 0.67374 0.33261 0.34137 0.0
N662 N 0.67952 0.33986 0.31334 0.0
N663 N 0.68376 0.33948 0.41384 0.0
C664 C 0.6854 0.34398 0.3585 0.0
H665 H 0.6732 0.32733 0.4383 0.0
Co666 Co 0.69035 0.34235 0.48804 0.0
C667 C 0.71238 0.34307 0.44774 0.0
O668 O 0.7152 0.33719 0.49444 0.0
N669 N 0.69657 0.34563 0.56383 0.0
C670 C 0.70512 0.35391 0.63829 0.0
C671 C 0.70467 0.35188 0.57582 0.0
C672 C 0.69191 0.34454 0.61941 0.0
N673 N 0.69704 0.34929 0.66568 0.0
O674 O 0.68603 0.35638 0.48314 0.0
H675 H 0.70946 0.35554 0.54138 0.0
H676 H 0.68449 0.34091 0.62518 0.0
O677 O 0.70294 0.34571 0.44186 0.0
C678 C 0.67648 0.35816 0.49071 0.0
O679 O 0.67011 0.35036 0.4967 0.0
N680 N 0.69409 0.32822 0.49414 0.0
C681 C 0.69641 0.30679 0.49932 0.0
C682 C 0.70046 0.31244 0.44961 0.0
C683 C 0.69905 0.32311 0.44728 0.0
C684 C 0.6899 0.32276 0.54191 0.0
C685 C 0.69113 0.31212 0.54606 0.0
H686 H 0.70151 0.32716 0.40611 0.0
H687 H 0.68505 0.32648 0.57541 0.0
H688 H 0.69076 0.35024 0.35156 0.0
H689 H 0.66829 0.32758 0.31845 0.0
H690 H 0.71056 0.35899 0.66097 0.0
H691 H 0.70425 0.30861 0.41127 0.0
H692 H 0.68772 0.30807 0.58488 0.0
C693 C 0.92006 0.42729 0.73075 0.0
C694 C 0.91976 0.42456 0.669 0.0
N695 N 0.91343 0.43114 0.63911 0.0
N696 N 0.91401 0.43558 0.73963 0.0
C697 C 0.90997 0.43764 0.68332 0.0
H698 H 0.92466 0.42369 0.76656 0.0
Co699 Co 0.91268 0.44295 0.81299 0.0
C700 C 0.90023 0.46063 0.76775 0.0
O701 O 0.89312 0.45932 0.81042 0.0
N702 N 0.91141 0.45016 0.88711 0.0
C703 C 0.91192 0.46188 0.96204 0.0
C704 C 0.91288 0.46025 0.89916 0.0
C705 C 0.90972 0.44582 0.94299 0.0
N706 N 0.90994 0.45277 0.98958 0.0
O707 O 0.89884 0.43815 0.82069 0.0
H708 H 0.91481 0.466 0.86479 0.0
H709 H 0.90884 0.43762 0.94961 0.0
O710 O 0.90812 0.45482 0.76656 0.0
C711 C 0.89803 0.4292 0.84423 0.0
O712 O 0.90648 0.42427 0.85991 0.0
N713 N 0.92641 0.44711 0.80652 0.0
C714 C 0.94752 0.45091 0.79912 0.0
C715 C 0.94077 0.45473 0.75373 0.0
C716 C 0.93023 0.4527 0.75809 0.0
C717 C 0.93282 0.44333 0.85107 0.0
C718 C 0.9434 0.44521 0.84857 0.0
H719 H 0.92524 0.45537 0.72147 0.0
H720 H 0.92973 0.43864 0.88807 0.0
H721 H 0.90491 0.44407 0.67429 0.0
H722 H 0.92404 0.41834 0.64776 0.0
H723 H 0.91276 0.4692 0.98552 0.0
H724 H 0.94362 0.45917 0.71478 0.0
H725 H 0.94834 0.44192 0.8839 0.0
C726 C 0.82211 0.66598 0.92716 0.0
C727 C 0.8247 0.66566 0.8652 0.0
N728 N 0.81847 0.65881 0.83694 0.0
N729 N 0.81427 0.65938 0.93746 0.0
C730 C 0.81233 0.65505 0.88194 0.0
H731 H 0.82556 0.67083 0.96229 0.0
Co732 Co 0.80755 0.65688 0.01171 0.0
C733 C 0.78567 0.65699 0.96939 0.0
O734 O 0.78311 0.66335 0.01431 0.0
N735 N 0.80117 0.65393 0.08747 0.0
C736 C 0.79216 0.64629 0.16237 0.0
C737 C 0.79264 0.64832 0.09991 0.0
C738 C 0.80601 0.65465 0.14274 0.0
N739 N 0.80061 0.65028 0.18931 0.0
O740 O 0.81158 0.64275 0.00844 0.0
H741 H 0.7875 0.64507 0.06586 0.0
H742 H 0.81366 0.65779 0.14799 0.0
O743 O 0.79493 0.65371 0.96538 0.0
C744 C 0.8211 0.64093 0.01746 0.0
O745 O 0.82749 0.6487 0.02358 0.0
N746 N 0.80411 0.67111 0.01636 0.0
C747 C 0.80163 0.69253 0.02149 0.0
C748 C 0.79824 0.68693 0.96979 0.0
C749 C 0.79972 0.67627 0.96763 0.0
C750 C 0.80772 0.67653 0.066 0.0
C751 C 0.8064 0.68717 0.07005 0.0
H752 H 0.79763 0.67222 0.92569 0.0
H753 H 0.81208 0.67277 0.10174 0.0
H754 H 0.80652 0.64921 0.87467 0.0
H755 H 0.83047 0.67034 0.84246 0.0
H756 H 0.78638 0.64166 0.18533 0.0
H757 H 0.79484 0.6908 0.93022 0.0
H758 H 0.80928 0.69117 0.11059 0.0
C759 C 0.5825 0.56976 0.23012 0.0
C760 C 0.58235 0.5726 0.16857 0.0
N761 N 0.58939 0.56687 0.13808 0.0
N762 N 0.58952 0.56222 0.23799 0.0
C763 C 0.59365 0.56071 0.18142 0.0
H764 H 0.57775 0.57289 0.26674 0.0
Co765 Co 0.5927 0.5556 0.31156 0.0
C766 C 0.59465 0.53382 0.27062 0.0
O767 O 0.58877 0.53086 0.31699 0.0
N768 N 0.59626 0.5494 0.38701 0.0
C769 C 0.60478 0.54113 0.46168 0.0
C770 C 0.60307 0.54176 0.39886 0.0
C771 C 0.59448 0.55365 0.44313 0.0
N772 N 0.59934 0.54863 0.48941 0.0
O773 O 0.60635 0.56099 0.30727 0.0
H774 H 0.60716 0.53735 0.3643 0.0
H775 H 0.59046 0.56086 0.44957 0.0
O776 O 0.59698 0.54335 0.26476 0.0
C777 C 0.60687 0.57041 0.32327 0.0
O778 O 0.59838 0.57513 0.34045 0.0
N779 N 0.57881 0.5509 0.31608 0.0
C780 C 0.55753 0.54724 0.31625 0.0
C781 C 0.56368 0.54396 0.26662 0.0
C782 C 0.57424 0.54603 0.26689 0.0
C783 C 0.57286 0.55432 0.364 0.0
C784 C 0.56228 0.55242 0.36561 0.0
H785 H 0.57862 0.54412 0.22591 0.0
H786 H 0.57609 0.55914 0.39946 0.0
H787 H 0.59952 0.55502 0.17195 0.0
H788 H 0.57745 0.57841 0.14801 0.0
H789 H 0.60993 0.5358 0.48475 0.0
H790 H 0.56034 0.54008 0.22697 0.0
H791 H 0.55778 0.5555 0.40361 0.0
C792 C 0.32477 0.33295 0.44514 0.0
C793 C 0.32765 0.33302 0.38373 0.0
N794 N 0.32161 0.3398 0.35349 0.0
N795 N 0.31686 0.33954 0.45314 0.0
C796 C 0.31519 0.34369 0.39673 0.0
H797 H 0.32808 0.32826 0.48153 0.0
Co798 Co 0.30995 0.34191 0.52697 0.0
C799 C 0.28815 0.34165 0.48528 0.0
O800 O 0.2859 0.3351 0.52984 0.0
N801 N 0.30346 0.34468 0.60278 0.0
C802 C 0.29412 0.3517 0.67851 0.0
C803 C 0.2948 0.35008 0.61568 0.0
C804 C 0.30821 0.34378 0.65826 0.0
N805 N 0.3026 0.34775 0.70512 0.0
O806 O 0.31391 0.35607 0.52453 0.0
H807 H 0.28964 0.3534 0.58193 0.0
H808 H 0.31589 0.3407 0.66383 0.0
O809 O 0.29734 0.34512 0.48035 0.0
C810 C 0.3234 0.35799 0.53373 0.0
O811 O 0.32986 0.3503 0.54094 0.0
N812 N 0.30653 0.32763 0.53024 0.0
C813 C 0.304 0.30619 0.53109 0.0
C814 C 0.30093 0.31205 0.47972 0.0
C815 C 0.30242 0.3227 0.47978 0.0
C816 C 0.3098 0.32197 0.57985 0.0
C817 C 0.30846 0.31131 0.58167 0.0
H818 H 0.30055 0.32694 0.43816 0.0
H819 H 0.31388 0.32557 0.61737 0.0
H820 H 0.30917 0.34924 0.38713 0.0
H821 H 0.33368 0.32842 0.36291 0.0
H822 H 0.28818 0.35603 0.70228 0.0
H823 H 0.29779 0.3084 0.43869 0.0
H824 H 0.31108 0.30709 0.62205 0.0
C825 C 0.4208 0.57301 0.22738 0.0
C826 C 0.42052 0.57569 0.16557 0.0
N827 N 0.4134 0.56977 0.1373 0.0
N828 N 0.41392 0.56542 0.23757 0.0
C829 C 0.40945 0.56372 0.18218 0.0
H830 H 0.42582 0.57622 0.26246 0.0
Co831 Co 0.41132 0.55875 0.3118 0.0
C832 C 0.41015 0.5369 0.27069 0.0
O833 O 0.41643 0.53416 0.3156 0.0
N834 N 0.40831 0.55249 0.38771 0.0
C835 C 0.40017 0.54406 0.46309 0.0
C836 C 0.40202 0.54446 0.40045 0.0
C837 C 0.40962 0.55717 0.44307 0.0
N838 N 0.40494 0.5521 0.48988 0.0
O839 O 0.3974 0.56349 0.31003 0.0
H840 H 0.3982 0.53969 0.36651 0.0
H841 H 0.41338 0.56454 0.44825 0.0
O842 O 0.40734 0.54631 0.2658 0.0
C843 C 0.39595 0.57307 0.31886 0.0
O844 O 0.40396 0.57917 0.32516 0.0
N845 N 0.42538 0.55455 0.31439 0.0
C846 C 0.44664 0.55075 0.3141 0.0
C847 C 0.44049 0.54785 0.26362 0.0
C848 C 0.42995 0.54997 0.26419 0.0
C849 C 0.43134 0.55769 0.36301 0.0
C850 C 0.44191 0.55573 0.36429 0.0
H851 H 0.42552 0.54818 0.22316 0.0
H852 H 0.42808 0.5622 0.39989 0.0
H853 H 0.40339 0.55813 0.17489 0.0
H854 H 0.4254 0.5813 0.14292 0.0
H855 H 0.39508 0.5387 0.4863 0.0
H856 H 0.44379 0.54409 0.22343 0.0
H857 H 0.44642 0.55851 0.40315 0.0
C858 C 0.18106 0.67517 0.98848 0.0
C859 C 0.17838 0.67533 0.92664 0.0
N860 N 0.18314 0.66741 0.89821 0.0
N861 N 0.18753 0.66722 -0.0015 0.0
C862 C 0.1885 0.66255 0.94308 0.0
H863 H 0.17866 0.6806 0.02363 0.0
Co864 Co 0.19381 0.6636 0.07226 0.0
C865 C 0.21539 0.65924 0.03348 0.0
O866 O 0.21887 0.66444 0.08144 0.0
N867 N 0.19963 0.65961 0.14812 0.0
C868 C 0.20644 0.64986 0.2227 0.0
C869 C 0.20615 0.65172 0.15998 0.0
C870 C 0.19563 0.66195 0.20419 0.0
N871 N 0.19975 0.65629 0.2504 0.0
O872 O 0.18719 0.65051 0.06919 0.0
H873 H 0.20978 0.64694 0.12533 0.0
H874 H 0.18921 0.6671 0.21054 0.0
O875 O 0.20567 0.65816 0.0258 0.0
C876 C 0.17821 0.65085 0.09259 0.0
O877 O 0.17475 0.65978 0.1125 0.0
N878 N 0.19978 0.67697 0.07594 0.0
C879 C 0.20534 0.69784 0.07521 0.0
C880 C 0.20849 0.69124 0.02739 0.0
C881 C 0.20546 0.68091 0.02797 0.0
C882 C 0.19645 0.68339 0.12188 0.0
C883 C 0.19929 0.69375 0.1231 0.0
H884 H 0.20726 0.67626 0.9879 0.0
H885 H 0.19097 0.68074 0.15557 0.0
H886 H 0.19303 0.65568 0.93584 0.0
H887 H 0.1736 0.68104 0.90406 0.0
H888 H 0.21062 0.64371 0.24541 0.0
H889 H 0.21299 0.69408 0.98872 0.0
H890 H 0.19625 0.69865 0.15938 0.0
C891 C 0.0841 0.43044 0.67459 0.0
C892 C 0.08434 0.42782 0.61269 0.0
N893 N 0.09136 0.43384 0.58433 0.0
N894 N 0.09092 0.43809 0.68475 0.0
C895 C 0.09529 0.4399 0.62922 0.0
H896 H 0.07918 0.42712 0.7098 0.0
Co897 Co 0.09364 0.44465 0.75916 0.0
C898 C 0.09436 0.46658 0.71925 0.0
O899 O 0.08817 0.46917 0.76493 0.0
N900 N 0.09679 0.45083 0.83515 0.0
C901 C 0.10497 0.45933 0.91013 0.0
C902 C 0.10299 0.45894 0.84761 0.0
C903 C 0.09565 0.4461 0.8905 0.0
N904 N 0.10035 0.45121 0.93708 0.0
O905 O 0.10762 0.44012 0.7557 0.0
H906 H 0.10666 0.46378 0.8135 0.0
H907 H 0.09201 0.43868 0.89583 0.0
O908 O 0.09728 0.45722 0.71355 0.0
C909 C 0.10913 0.43054 0.76405 0.0
O910 O 0.10116 0.4244 0.77062 0.0
N911 N 0.07953 0.44859 0.76356 0.0
C912 C 0.05821 0.45193 0.76657 0.0
C913 C 0.06411 0.45518 0.71575 0.0
C914 C 0.07469 0.45327 0.71462 0.0
C915 C 0.07382 0.44508 0.81229 0.0
C916 C 0.06322 0.44681 0.81524 0.0
H917 H 0.07893 0.45529 0.67328 0.0
H918 H 0.07729 0.44044 0.84783 0.0
H919 H 0.1013 0.44554 0.6219 0.0
H920 H 0.07951 0.42215 0.59008 0.0
H921 H 0.11001 0.46476 0.93313 0.0
H922 H 0.06057 0.45903 0.67659 0.0
H923 H 0.05893 0.44374 0.85413 0.0
C924 C 0.32129 0.67127 0.57074 0.0
C925 C 0.32362 0.6719 0.63293 0.0
N926 N 0.31849 0.66436 0.66274 0.0
N927 N 0.31459 0.66347 0.56173 0.0
C928 C 0.31321 0.65929 0.61833 0.0
H929 H 0.32414 0.67631 0.53468 0.0
Co930 Co 0.30819 0.65959 0.48833 0.0
C931 C 0.28614 0.65637 0.52624 0.0
O932 O 0.28262 0.66019 0.47389 0.0
N933 N 0.30198 0.65542 0.41388 0.0
C934 C 0.29464 0.64525 0.3433 0.0
C935 C 0.29638 0.64675 0.40556 0.0
C936 C 0.3038 0.65883 0.35573 0.0
N937 N 0.29935 0.65287 0.31202 0.0
O938 O 0.31331 0.64586 0.49755 0.0
H939 H 0.29411 0.64155 0.44228 0.0
H940 H 0.30897 0.66505 0.34475 0.0
O941 O 0.29585 0.65586 0.53564 0.0
C942 C 0.32297 0.64454 0.49176 0.0
O943 O 0.32895 0.65261 0.48434 0.0
N944 N 0.3038 0.67336 0.47779 0.0
C945 C 0.30109 0.69463 0.46421 0.0
C946 C 0.29522 0.68904 0.50725 0.0
C947 C 0.29684 0.67845 0.51424 0.0
C948 C 0.3098 0.67877 0.43747 0.0
C949 C 0.30843 0.68932 0.42886 0.0
H950 H 0.29291 0.67458 0.55159 0.0
H951 H 0.31613 0.67498 0.4143 0.0
H952 H 0.30821 0.65281 0.62699 0.0
H953 H 0.32861 0.67754 0.65452 0.0
H954 H 0.29055 0.63884 0.32274 0.0
H955 H 0.2898 0.69289 0.53756 0.0
H956 H 0.31329 0.6933 0.39584 0.0
C957 C 0.07805 0.57225 0.25625 0.0
C958 C 0.07816 0.57497 0.31802 0.0
N959 N 0.0855 0.56938 0.34666 0.0
N960 N 0.08526 0.56495 0.24651 0.0
C961 C 0.08976 0.56349 0.30204 0.0
H962 H 0.07291 0.57519 0.22097 0.0
Co963 Co 0.0881 0.55831 0.17272 0.0
C964 C 0.09112 0.5367 0.21394 0.0
O965 O 0.08497 0.53354 0.16935 0.0
N966 N 0.09134 0.55212 0.09692 0.0
C967 C 0.10003 0.54432 0.02127 0.0
C968 C 0.0984 0.54475 0.08413 0.0
C969 C 0.08928 0.5564 0.04124 0.0
N970 N 0.09431 0.55171 0.99436 0.0
O971 O 0.10154 0.56425 0.17287 0.0
H972 H 0.10286 0.54057 0.11804 0.0
H973 H 0.08479 0.56334 0.03575 0.0
O974 O 0.09322 0.54629 0.21894 0.0
C975 C 0.10154 0.57355 0.15429 0.0
O976 O 0.09275 0.57772 0.13738 0.0
N977 N 0.0744 0.55304 0.17257 0.0
C978 C 0.05323 0.549 0.18143 0.0
C979 C 0.05999 0.54601 0.22879 0.0
C980 C 0.07046 0.54827 0.22406 0.0
C981 C 0.0679 0.55601 0.12612 0.0
C982 C 0.05734 0.55393 0.12915 0.0
H983 H 0.0753 0.54665 0.26363 0.0
H984 H 0.07066 0.56063 0.0883 0.0
H985 H 0.09604 0.55817 0.30967 0.0
H986 H 0.07299 0.58034 0.34041 0.0
H987 H 0.1056 0.53949 -0.00213 0.0
H988 H 0.05719 0.54225 0.27033 0.0
H989 H 0.05238 0.55674 0.09246 0.0
C990 C 0.17639 0.33224 0.04651 0.0
C991 C 0.1735 0.33228 0.10791 0.0
N992 N 0.1795 0.33909 0.13819 0.0
N993 N 0.18424 0.3389 0.03854 0.0
C994 C 0.18589 0.34305 0.09498 0.0
H995 H 0.17311 0.32753 0.01008 0.0
Co996 Co 0.19113 0.34132 0.96471 0.0
C997 C 0.21295 0.3413 0.00609 0.0
O998 O 0.21528 0.33482 0.96139 0.0
N999 N 0.19759 0.34412 0.8889 0.0
C1000 C 0.20682 0.35129 0.81318 0.0
C1001 C 0.20615 0.34969 0.87602 0.0
C1002 C 0.19289 0.34309 0.83337 0.0
N1003 N 0.19844 0.34715 0.78653 0.0
O1004 O 0.18709 0.35544 0.96713 0.0
H1005 H 0.21121 0.35314 0.90981 0.0
H1006 H 0.18526 0.33988 0.82774 0.0
O1007 O 0.20372 0.34464 0.01125 0.0
C1008 C 0.1776 0.3574 0.95823 0.0
O1009 O 0.1711 0.34972 0.95151 0.0
N1010 N 0.19464 0.32707 0.96149 0.0
C1011 C 0.19749 0.30567 0.96065 0.0
C1012 C 0.20057 0.3116 0.01172 0.0
C1013 C 0.19891 0.32221 0.01172 0.0
C1014 C 0.19131 0.32135 0.91231 0.0
C1015 C 0.19279 0.3107 0.9105 0.0
H1016 H 0.20084 0.32649 0.05309 0.0
H1017 H 0.18703 0.32487 0.87532 0.0
H1018 H 0.19186 0.34864 0.10462 0.0
H1019 H 0.16752 0.32762 0.12871 0.0
H1020 H 0.21267 0.35573 0.78942 0.0
H1021 H 0.20414 0.30807 0.05187 0.0
H1022 H 0.18989 0.30639 0.87117 0.0
C1023 C 0.41818 0.42884 0.80998 0.0
C1024 C 0.41802 0.42595 0.87139 0.0
N1025 N 0.41135 0.43213 0.90165 0.0
N1026 N 0.41171 0.43684 0.80186 0.0
C1027 C 0.40759 0.43861 0.85825 0.0
H1028 H 0.42278 0.42542 0.77357 0.0
Co1029 Co 0.40924 0.4437 0.72801 0.0
C1030 C 0.40888 0.46554 0.76941 0.0
O1031 O 0.4152 0.46805 0.72424 0.0
N1032 N 0.40638 0.45016 0.65233 0.0
C1033 C 0.39859 0.45899 0.5771 0.0
C1034 C 0.40031 0.45838 0.63989 0.0
C1035 C 0.4077 0.44561 0.59658 0.0
N1036 N 0.40327 0.45093 0.54997 0.0
O1037 O 0.39516 0.43946 0.73019 0.0
H1038 H 0.39663 0.46321 0.67403 0.0
H1039 H 0.41106 0.43805 0.59082 0.0
O1040 O 0.40576 0.45623 0.77455 0.0
C1041 C 0.39347 0.42994 0.72041 0.0
O1042 O 0.40131 0.42369 0.71267 0.0
N1043 N 0.42345 0.44738 0.72503 0.0
C1044 C 0.44484 0.45028 0.72471 0.0
C1045 C 0.43886 0.45345 0.77534 0.0
C1046 C 0.42824 0.45178 0.77506 0.0
C1047 C 0.42923 0.44395 0.67637 0.0
C1048 C 0.43987 0.44548 0.67473 0.0
H1049 H 0.42392 0.45375 0.8162 0.0
H1050 H 0.42577 0.43953 0.63981 0.0
H1051 H 0.40214 0.4447 0.86754 0.0
H1052 H 0.42247 0.41979 0.89201 0.0
H1053 H 0.39392 0.4647 0.55369 0.0
H1054 H 0.44237 0.45706 0.81542 0.0
H1055 H 0.44422 0.44249 0.63583 0.0
C1056 C 0.20135 0.28893 0.90666 0.0
C1057 C 0.19865 0.29427 0.96103 0.0
C1058 C 0.20209 0.27818 0.90664 0.0
C1059 C 0.19326 0.25526 0.99338 0.0
H1060 H 0.21464 0.24128 0.9002 0.0
C1061 C 0.19915 0.21131 0.00836 0.0
C1062 C 0.20063 0.2061 0.9519 0.0
C1063 C 0.19948 0.22206 0.01072 0.0
C1064 C 0.20858 0.24508 0.92606 0.0
H1065 H 0.19458 0.29243 0.05809 0.0
H1066 H 0.19616 0.27376 0.05845 0.0
H1067 H 0.21416 0.26007 0.9021 0.0
H1068 H 0.20394 0.20808 0.85402 0.0
H1069 H 0.20442 0.22687 0.85804 0.0
H1070 H 0.18767 0.24027 0.0173 0.0
C1071 C 0.19758 0.27787 0.01556 0.0
C1072 C 0.20829 0.25584 0.92709 0.0
C1073 C 0.19682 0.2886 0.01554 0.0
C1074 C 0.20267 0.21188 0.89811 0.0
C1075 C 0.20304 0.22263 0.90053 0.0
C1076 C 0.19356 0.2445 0.99252 0.0
C1077 C 0.20015 0.27252 0.96102 0.0
C1078 C 0.20061 0.26106 0.96064 0.0
C1079 C 0.20134 0.22785 0.95674 0.0
C1080 C 0.20121 0.23929 0.95873 0.0
H1081 H 0.20291 0.29305 0.86401 0.0
H1082 H 0.20399 0.27431 0.86365 0.0
H1083 H 0.18712 0.25901 0.01877 0.0
H1084 H 0.19747 0.2071 0.05051 0.0
H1085 H 0.19824 0.22585 0.05486 0.0
C1086 C 0.03776 0.94929 0.15638 0.0
C1087 C 0.04391 0.95731 0.17978 0.0
C1088 C 0.02707 0.9502 0.15484 0.0
C1089 C 0.00511 0.96378 0.22425 0.0
H1090 H 0.99096 0.95375 0.0777 0.0
C1091 C 0.96059 0.96563 0.19422 0.0
C1092 C 0.95598 0.95663 0.17071 0.0
C1093 C 0.97132 0.96674 0.19423 0.0
C1094 C 0.99479 0.95653 0.1191 0.0
H1095 H 0.04359 0.97252 0.22123 0.0
H1096 H 0.02478 0.9741 0.2188 0.0
H1097 H 0.0097 0.95387 0.08037 0.0
H1098 H 0.9591 0.94162 0.1305 0.0
H1099 H 0.97769 0.94359 0.13 0.0
H1100 H 0.99012 0.96629 0.26323 0.0
C1101 C 0.02831 0.9671 0.20165 0.0
C1102 C 0.00552 0.9566 0.12064 0.0
C1103 C 0.03906 0.96619 0.20306 0.0
C1104 C 0.96235 0.94877 0.14748 0.0
C1105 C 0.97303 0.94989 0.14731 0.0
C1106 C 0.99432 0.96372 0.2227 0.0
C1107 C 0.02221 0.95914 0.17684 0.0
C1108 C 0.01082 0.96002 0.17367 0.0
C1109 C 0.97765 0.95888 0.17055 0.0
C1110 C 0.98905 0.95989 0.17054 0.0
H1111 H 0.04121 0.94221 0.13971 0.0
H1112 H 0.02259 0.94382 0.13692 0.0
H1113 H 0.00896 0.96641 0.2659 0.0
H1114 H 0.95591 0.97186 0.21206 0.0
H1115 H 0.97466 0.97379 0.21206 0.0
C1116 C 0.30899 0.78788 0.44011 0.0
C1117 C 0.30015 0.79404 0.44673 0.0
C1118 C 0.30821 0.77717 0.43845 0.0
C1119 C 0.29146 0.75555 0.48372 0.0
H1120 H 0.30889 0.7403 0.37015 0.0
C1121 C 0.29047 0.71089 0.46229 0.0
C1122 C 0.30014 0.70603 0.45933 0.0
C1123 C 0.28969 0.72163 0.45784 0.0
C1124 C 0.30402 0.74444 0.4024 0.0
H1125 H 0.28354 0.79373 0.45689 0.0
H1126 H 0.28217 0.77494 0.45405 0.0
H1127 H 0.30888 0.75905 0.36722 0.0
H1128 H 0.31659 0.70871 0.45154 0.0
H1129 H 0.31522 0.72731 0.44325 0.0
H1130 H 0.28669 0.74089 0.51929 0.0
C1131 C 0.28972 0.77845 0.45055 0.0
C1132 C 0.30401 0.75519 0.40075 0.0
C1133 C 0.2905 0.7892 0.45215 0.0
C1134 C 0.309 0.71215 0.45237 0.0
C1135 C 0.30821 0.72284 0.44772 0.0
C1136 C 0.29145 0.74477 0.48532 0.0
C1137 C 0.29857 0.77231 0.44346 0.0
C1138 C 0.29788 0.76088 0.44212 0.0
C1139 C 0.29856 0.72771 0.45017 0.0
C1140 C 0.29788 0.73911 0.4454 0.0
H1141 H 0.31657 0.79133 0.43739 0.0
H1142 H 0.3152 0.77268 0.43438 0.0
H1143 H 0.28671 0.75971 0.51655 0.0
H1144 H 0.28349 0.7064 0.4672 0.0
H1145 H 0.28214 0.72515 0.45949 0.0
C1146 C 0.46219 0.03852 0.69317 0.0
C1147 C 0.4573 0.04725 0.66806 0.0
C1148 C 0.47294 0.03799 0.69649 0.0
C1149 C 0.49656 0.04964 0.63017 0.0
H1150 H 0.50969 0.03957 0.77998 0.0
C1151 C 0.53916 0.05748 0.68263 0.0
C1152 C 0.54515 0.04942 0.7071 0.0
C1153 C 0.5285 0.05648 0.67718 0.0
C1154 C 0.50614 0.04227 0.73753 0.0
H1155 H 0.45993 0.06236 0.62815 0.0
H1156 H 0.47859 0.06144 0.63379 0.0
H1157 H 0.49093 0.03907 0.77097 0.0
H1158 H 0.54457 0.03401 0.74571 0.0
H1159 H 0.52586 0.03229 0.73652 0.0
H1160 H 0.51172 0.05299 0.59706 0.0
C1161 C 0.47414 0.0549 0.64972 0.0
C1162 C 0.4954 0.04198 0.73233 0.0
C1163 C 0.46342 0.05542 0.64642 0.0
C1164 C 0.54017 0.04039 0.72705 0.0
C1165 C 0.52947 0.0394 0.72176 0.0
C1166 C 0.50727 0.04995 0.63542 0.0
C1167 C 0.47905 0.04619 0.67478 0.0
C1168 C 0.49048 0.0458 0.67892 0.0
C1169 C 0.52353 0.04741 0.69627 0.0
C1170 C 0.51218 0.04642 0.6895 0.0
H1171 H 0.45769 0.03205 0.70979 0.0
H1172 H 0.47648 0.03113 0.71549 0.0
H1173 H 0.49303 0.05245 0.58787 0.0
H1174 H 0.54269 0.06465 0.66827 0.0
H1175 H 0.52413 0.06289 0.65866 0.0
C1176 C 0.20653 0.71443 0.01583 0.0
C1177 C 0.20744 0.70909 0.07233 0.0
C1178 C 0.20757 0.72513 0.01382 0.0
C1179 C 0.21704 0.74779 0.10148 0.0
H1180 H 0.19654 0.76233 0.00427 0.0
C1181 C 0.20988 0.79177 0.12153 0.0
C1182 C 0.2075 0.79717 0.0668 0.0
C1183 C 0.21084 0.78104 0.12097 0.0
C1184 C 0.20242 0.75841 0.03091 0.0
H1185 H 0.21056 0.7108 0.17063 0.0
H1186 H 0.21222 0.72952 0.16727 0.0
H1187 H 0.19661 0.74362 0.00519 0.0
H1188 H 0.20439 0.79547 0.96836 0.0
H1189 H 0.20633 0.77686 0.96714 0.0
H1190 H 0.22277 0.76265 0.12762 0.0
C1191 C 0.21077 0.72541 0.12444 0.0
C1192 C 0.20246 0.74766 0.03144 0.0
C1193 C 0.20972 0.71469 0.12647 0.0
C1194 C 0.20636 0.7916 0.01126 0.0
C1195 C 0.20733 0.78089 0.0107 0.0
C1196 C 0.217 0.75857 0.1009 0.0
C1197 C 0.20953 0.73077 0.06825 0.0
C1198 C 0.20975 0.74221 0.06675 0.0
C1199 C 0.20942 0.77546 0.06568 0.0
C1200 C 0.20968 0.76401 0.06563 0.0
H1201 H 0.20466 0.71039 0.97334 0.0
H1202 H 0.20671 0.72901 0.96964 0.0
H1203 H 0.22282 0.74382 0.12869 0.0
H1204 H 0.21091 0.79583 0.16498 0.0
H1205 H 0.21239 0.77709 0.16424 0.0
C1206 C 0.53859 0.9529 0.25338 0.0
C1207 C 0.5433 0.95505 0.31069 0.0
C1208 C 0.52789 0.95335 0.2471 0.0
C1209 C 0.50416 0.96344 0.32071 0.0
H1210 H 0.49101 0.94129 0.22962 0.0
C1211 C 0.46034 0.95552 0.33096 0.0
C1212 C 0.4554 0.95247 0.27587 0.0
C1213 C 0.47104 0.95659 0.33309 0.0
C1214 C 0.49456 0.94761 0.25446 0.0
H1215 H 0.54045 0.95964 0.40588 0.0
H1216 H 0.52175 0.96024 0.39522 0.0
H1217 H 0.50971 0.94183 0.23716 0.0
H1218 H 0.45787 0.94824 0.17963 0.0
H1219 H 0.47651 0.9503 0.18307 0.0
H1220 H 0.48896 0.96914 0.33855 0.0
C1221 C 0.52635 0.9583 0.35496 0.0
C1222 C 0.50529 0.94792 0.25879 0.0
C1223 C 0.53706 0.95785 0.36125 0.0
C1224 C 0.46141 0.95071 0.22265 0.0
C1225 C 0.47211 0.95176 0.22481 0.0
C1226 C 0.49341 0.96312 0.3164 0.0
C1227 C 0.52163 0.95594 0.29798 0.0
C1228 C 0.51022 0.95582 0.29212 0.0
C1229 C 0.47707 0.95461 0.28022 0.0
C1230 C 0.48849 0.95518 0.28339 0.0
H1231 H 0.54314 0.95059 0.21365 0.0
H1232 H 0.52451 0.9516 0.20237 0.0
H1233 H 0.50772 0.96969 0.34605 0.0
H1234 H 0.45592 0.95703 0.3726 0.0
H1235 H 0.47462 0.95871 0.37665 0.0
C1236 C 0.29373 0.21183 0.49132 0.0
C1237 C 0.30252 0.20666 0.51345 0.0
C1238 C 0.29321 0.2226 0.49282 0.0
C1239 C 0.30461 0.24498 0.57309 0.0
H1240 H 0.29433 0.26075 0.43342 0.0
C1241 C 0.31116 0.28862 0.55335 0.0
C1242 C 0.3031 0.29477 0.53039 0.0
C1243 C 0.31046 0.2779 0.55176 0.0
C1244 C 0.29709 0.25645 0.47316 0.0
H1245 H 0.31784 0.20882 0.55156 0.0
H1246 H 0.3169 0.2275 0.55451 0.0
H1247 H 0.2942 0.24194 0.42902 0.0
H1248 H 0.28795 0.29444 0.48812 0.0
H1249 H 0.28671 0.27567 0.4855 0.0
H1250 H 0.30755 0.25943 0.61723 0.0
C1251 C 0.31031 0.22324 0.53734 0.0
C1252 C 0.29702 0.24568 0.47059 0.0
C1253 C 0.31084 0.21252 0.53571 0.0
C1254 C 0.29433 0.28992 0.50566 0.0
C1255 C 0.29362 0.27917 0.5041 0.0
C1256 C 0.30467 0.25572 0.57571 0.0
C1257 C 0.30146 0.22842 0.51655 0.0
C1258 C 0.30092 0.23983 0.52022 0.0
C1259 C 0.30168 0.27303 0.52721 0.0
C1260 C 0.30104 0.2616 0.52547 0.0
H1261 H 0.28717 0.20753 0.47415 0.0
H1262 H 0.28626 0.22637 0.47672 0.0
H1263 H 0.30747 0.2407 0.61263 0.0
H1264 H 0.31812 0.29209 0.57147 0.0
H1265 H 0.31689 0.27341 0.5688 0.0
C1266 C 0.96367 0.05125 0.73556 0.0
C1267 C 0.95783 0.04934 0.78929 0.0
C1268 C 0.97438 0.0502 0.73636 0.0
C1269 C 0.9959 0.03844 0.82403 0.0
H1270 H 0.01215 0.05953 0.74264 0.0
C1271 C 0.03989 0.04272 0.85983 0.0
C1272 C 0.04589 0.04543 0.80803 0.0
C1273 C 0.02914 0.04254 0.8559 0.0
C1274 C 0.00774 0.0535 0.76487 0.0
H1275 H 0.95868 0.0446 0.88564 0.0
H1276 H 0.9774 0.04294 0.88733 0.0
H1277 H 0.99344 0.06044 0.73882 0.0
H1278 H 0.04525 0.05 0.71125 0.0
H1279 H 0.02654 0.04946 0.70408 0.0
H1280 H 0.01024 0.03155 0.85049 0.0
C1281 C 0.97367 0.04516 0.8444 0.0
C1282 C 0.997 0.05402 0.76269 0.0
C1283 C 0.96296 0.04622 0.84362 0.0
C1284 C 0.04088 0.04776 0.75187 0.0
C1285 C 0.03014 0.04759 0.74797 0.0
C1286 C 0.00666 0.03792 0.82622 0.0
C1287 C 0.97952 0.04722 0.7909 0.0
C1288 C 0.99095 0.04651 0.79234 0.0
C1289 C 0.02414 0.04509 0.80009 0.0
C1290 C 0.0127 0.04546 0.79675 0.0
H1291 H 0.95999 0.05378 0.69311 0.0
H1292 H 0.97863 0.05173 0.69416 0.0
H1293 H 0.99146 0.03246 0.84667 0.0
H1294 H 0.0435 0.0408 0.90361 0.0
H1295 H 0.02474 0.04066 0.89707 0.0
C1296 C 0.79179 0.70897 0.00292 0.0
C1297 C 0.80075 0.70395 0.02359 0.0
C1298 C 0.79099 0.71972 0.00611 0.0
C1299 C 0.80221 0.74217 0.08728 0.0
H1300 H 0.791 0.75803 0.95058 0.0
C1301 C 0.80879 0.78565 0.0665 0.0
C1302 C 0.80051 0.79193 0.04823 0.0
C1303 C 0.80801 0.77495 0.06405 0.0
C1304 C 0.79402 0.75369 0.98947 0.0
H1305 H 0.81606 0.70632 0.06139 0.0
H1306 H 0.81467 0.72496 0.067 0.0
H1307 H 0.79112 0.73921 0.94497 0.0
H1308 H 0.78491 0.79182 0.01227 0.0
H1309 H 0.78355 0.77302 0.00761 0.0
H1310 H 0.80524 0.75659 0.13147 0.0
C1311 C 0.80815 0.72061 0.0497 0.0
C1312 C 0.79409 0.74292 0.98627 0.0
C1313 C 0.80895 0.70991 0.04651 0.0
C1314 C 0.79145 0.78721 0.02641 0.0
C1315 C 0.79067 0.77645 0.02374 0.0
C1316 C 0.80215 0.7529 0.09043 0.0
C1317 C 0.79914 0.72565 0.03003 0.0
C1318 C 0.79835 0.73704 0.03474 0.0
C1319 C 0.79893 0.77021 0.043 0.0
C1320 C 0.79822 0.75879 0.04116 0.0
H1321 H 0.78532 0.70459 0.98537 0.0
H1322 H 0.78392 0.72336 0.99095 0.0
H1323 H 0.80533 0.73787 0.12604 0.0
H1324 H 0.81599 0.789 0.08191 0.0
H1325 H 0.81459 0.77037 0.07786 0.0
C1326 C 0.70604 0.29016 0.4831 0.0
C1327 C 0.69698 0.29535 0.5004 0.0
C1328 C 0.70648 0.27938 0.48445 0.0
C1329 C 0.69343 0.25678 0.55379 0.0
H1330 H 0.70628 0.24155 0.41979 0.0
C1331 C 0.68664 0.21346 0.51994 0.0
C1332 C 0.69515 0.20723 0.50497 0.0
C1333 C 0.6875 0.22417 0.51995 0.0
C1334 C 0.70278 0.2457 0.45792 0.0
H1335 H 0.68117 0.29327 0.53043 0.0
H1336 H 0.68193 0.27458 0.53272 0.0
H1337 H 0.70669 0.26038 0.41898 0.0
H1338 H 0.71124 0.20746 0.47786 0.0
H1339 H 0.7127 0.22623 0.47741 0.0
H1340 H 0.68939 0.24215 0.59233 0.0
C1341 C 0.68878 0.2788 0.51958 0.0
C1342 C 0.70302 0.25648 0.4575 0.0
C1343 C 0.68835 0.28954 0.51829 0.0
C1344 C 0.70451 0.21202 0.48905 0.0
C1345 C 0.70536 0.22277 0.48885 0.0
C1346 C 0.69317 0.24603 0.55412 0.0
C1347 C 0.69786 0.27359 0.50303 0.0
C1348 C 0.69821 0.26214 0.50503 0.0
C1349 C 0.69687 0.22895 0.50477 0.0
C1350 C 0.69771 0.24037 0.5058 0.0
H1351 H 0.71284 0.29443 0.46943 0.0
H1352 H 0.71361 0.2756 0.47188 0.0
H1353 H 0.68985 0.26089 0.59182 0.0
H1354 H 0.67925 0.21005 0.53101 0.0
H1355 H 0.68076 0.22872 0.53116 0.0
C1356 C 0.80013 0.21023 0.91141 0.0
C1357 C 0.80196 0.20562 0.96943 0.0
C1358 C 0.79902 0.2209 0.90626 0.0
C1359 C 0.80542 0.24503 0.98872 0.0
H1360 H 0.78593 0.25725 0.87388 0.0
C1361 C 0.79818 0.28874 0.98157 0.0
C1362 C 0.7979 0.29337 0.92262 0.0
C1363 C 0.79801 0.27803 0.98758 0.0
C1364 C 0.79146 0.25394 0.90581 0.0
H1365 H 0.80395 0.20868 0.0677 0.0
H1366 H 0.8017 0.22722 0.05898 0.0
H1367 H 0.78676 0.23853 0.88444 0.0
H1368 H 0.79697 0.29039 0.82384 0.0
H1369 H 0.79673 0.27163 0.83434 0.0
H1370 H 0.81012 0.26042 0.01014 0.0
C1371 C 0.80129 0.2226 0.01723 0.0
C1372 C 0.79195 0.24322 0.91183 0.0
C1373 C 0.80244 0.21193 0.02235 0.0
C1374 C 0.79724 0.28704 0.86985 0.0
C1375 C 0.79702 0.27631 0.87589 0.0
C1376 C 0.8049 0.25573 0.9829 0.0
C1377 C 0.79967 0.22723 0.95905 0.0
C1378 C 0.79896 0.23864 0.9533 0.0
C1379 C 0.79754 0.27169 0.93482 0.0
C1380 C 0.79793 0.26031 0.94134 0.0
H1381 H 0.7996 0.20559 0.86979 0.0
H1382 H 0.79787 0.22421 0.86064 0.0
H1383 H 0.81106 0.24177 0.02017 0.0
H1384 H 0.79882 0.29338 0.02315 0.0
H1385 H 0.79831 0.27471 0.03364 0.0
C1386 C 0.69681 0.71502 0.39178 0.0
C1387 C 0.70485 0.70868 0.41294 0.0
C1388 C 0.69766 0.72571 0.39454 0.0
C1389 C 0.71137 0.74683 0.47351 0.0
H1390 H 0.70045 0.7629 0.33684 0.0
C1391 C 0.71318 0.79167 0.46262 0.0
C1392 C 0.704 0.79653 0.44395 0.0
C1393 C 0.71424 0.78096 0.45819 0.0
C1394 C 0.70349 0.75853 0.37551 0.0
H1395 H 0.72009 0.70865 0.45402 0.0
H1396 H 0.7216 0.72743 0.45876 0.0
H1397 H 0.70066 0.74419 0.32986 0.0
H1398 H 0.68858 0.79382 0.40846 0.0
H1399 H 0.69048 0.77527 0.39995 0.0
H1400 H 0.71411 0.76125 0.51924 0.0
C1401 C 0.7146 0.72407 0.44038 0.0
C1402 C 0.7036 0.7478 0.37157 0.0
C1403 C 0.71374 0.71332 0.43763 0.0
C1404 C 0.69587 0.7904 0.4216 0.0
C1405 C 0.69694 0.77975 0.41686 0.0
C1406 C 0.71129 0.7576 0.47737 0.0
C1407 C 0.70657 0.73039 0.41853 0.0
C1408 C 0.70734 0.74181 0.421 0.0
C1409 C 0.70615 0.7749 0.43472 0.0
C1410 C 0.70715 0.76354 0.42888 0.0
H1411 H 0.68974 0.71171 0.37397 0.0
H1412 H 0.69123 0.73033 0.37871 0.0
H1413 H 0.71425 0.74244 0.51257 0.0
H1414 H 0.71961 0.79616 0.47975 0.0
H1415 H 0.72144 0.77743 0.47207 0.0
C1416 C 0.46165 0.45409 0.67155 0.0
C1417 C 0.45624 0.45133 0.72557 0.0
C1418 C 0.47241 0.45461 0.67174 0.0
C1419 C 0.49501 0.44465 0.75608 0.0
H1420 H 0.50967 0.46635 0.66959 0.0
C1421 C 0.53906 0.44894 0.77422 0.0
C1422 C 0.54445 0.45111 0.71917 0.0
C1423 C 0.52832 0.4495 0.77597 0.0
C1424 C 0.50569 0.46019 0.69347 0.0
H1425 H 0.45793 0.44698 0.82223 0.0
H1426 H 0.47665 0.44807 0.82285 0.0
H1427 H 0.49086 0.46639 0.67089 0.0
H1428 H 0.54276 0.45582 0.62317 0.0
H1429 H 0.52399 0.45662 0.62591 0.0
H1430 H 0.50979 0.43839 0.77828 0.0
C1431 C 0.47258 0.44974 0.78015 0.0
C1432 C 0.49492 0.46021 0.69422 0.0
C1433 C 0.46184 0.44924 0.77999 0.0
C1434 C 0.53884 0.45401 0.66616 0.0
C1435 C 0.52808 0.45457 0.66791 0.0
C1436 C 0.50577 0.44462 0.75529 0.0
C1437 C 0.478 0.45235 0.72591 0.0
C1438 C 0.48945 0.45244 0.72555 0.0
C1439 C 0.52269 0.45224 0.72271 0.0
C1440 C 0.51124 0.45239 0.72399 0.0
H1441 H 0.45756 0.45583 0.629 0.0
H1442 H 0.47635 0.45655 0.62904 0.0
H1443 H 0.49104 0.43845 0.77968 0.0
H1444 H 0.54312 0.44656 0.81573 0.0
H1445 H 0.52442 0.44778 0.81914 0.0
C1446 C 0.03558 0.54525 0.13842 0.0
C1447 C 0.0419 0.54784 0.18906 0.0
C1448 C 0.02487 0.5448 0.14522 0.0
C1449 C 0.00399 0.55476 0.24473 0.0
H1450 H 0.98748 0.53376 0.16428 0.0
C1451 C 0.96035 0.55139 0.28838 0.0
C1452 C 0.95408 0.54983 0.23601 0.0
C1453 C 0.97105 0.55044 0.28404 0.0
C1454 C 0.99198 0.53972 0.18664 0.0
H1455 H 0.04186 0.55197 0.28668 0.0
H1456 H 0.02328 0.55091 0.29879 0.0
H1457 H 0.00621 0.53339 0.15377 0.0
H1458 H 0.95414 0.5457 0.13852 0.0
H1459 H 0.97282 0.54419 0.13073 0.0
H1460 H 0.9898 0.56114 0.27725 0.0
C1461 C 0.02658 0.54934 0.25363 0.0
C1462 C 0.00271 0.53951 0.18058 0.0
C1463 C 0.03726 0.5498 0.24685 0.0
C1464 C 0.95876 0.54706 0.17957 0.0
C1465 C 0.96945 0.54609 0.17526 0.0
C1466 C 0.99328 0.55496 0.25083 0.0
C1467 C 0.02024 0.54695 0.20278 0.0
C1468 C 0.00884 0.54704 0.20954 0.0
C1469 C 0.97574 0.54788 0.22727 0.0
C1470 C 0.98714 0.54746 0.22182 0.0
H1471 H 0.0389 0.54363 0.0934 0.0
H1472 H 0.0202 0.54301 0.10498 0.0
H1473 H 0.00845 0.56079 0.26667 0.0
H1474 H 0.95702 0.55363 0.33242 0.0
H1475 H 0.97566 0.55175 0.32516 0.0
C1476 C 0.04165 0.45569 0.82263 0.0
C1477 C 0.04683 0.45324 0.76726 0.0
C1478 C 0.03091 0.45634 0.82403 0.0
C1479 C 0.00791 0.44724 0.73969 0.0
H1480 H 0.99373 0.46776 0.83862 0.0
C1481 C 0.96372 0.45126 0.73573 0.0
C1482 C 0.95882 0.4524 0.79348 0.0
C1483 C 0.97442 0.45209 0.73084 0.0
C1484 C 0.99759 0.46194 0.81114 0.0
H1485 H 0.04473 0.44966 0.66973 0.0
H1486 H 0.02604 0.45105 0.67184 0.0
H1487 H 0.01251 0.46798 0.83277 0.0
H1488 H 0.9613 0.45561 0.89107 0.0
H1489 H 0.98 0.45694 0.88267 0.0
H1490 H 0.99302 0.44116 0.71834 0.0
C1491 C 0.03028 0.45233 0.71442 0.0
C1492 C 0.00834 0.46206 0.80782 0.0
C1493 C 0.04102 0.45167 0.71304 0.0
C1494 C 0.96486 0.4546 0.84602 0.0
C1495 C 0.97556 0.45546 0.8411 0.0
C1496 C 0.99717 0.44714 0.74291 0.0
C1497 C 0.02509 0.45456 0.77007 0.0
C1498 C 0.01364 0.45468 0.77224 0.0
C1499 C 0.98047 0.45411 0.78356 0.0
C1500 C 0.99188 0.45446 0.77886 0.0
H1501 H 0.04591 0.45705 0.86508 0.0
H1502 H 0.02716 0.45798 0.8678 0.0
H1503 H 0.01174 0.44133 0.71279 0.0
H1504 H 0.95932 0.44945 0.69445 0.0
H1505 H 0.97796 0.45112 0.68573 0.0
C1506 C 0.46359 0.55092 0.25799 0.0
C1507 C 0.45799 0.54921 0.31285 0.0
C1508 C 0.47431 0.54993 0.25732 0.0
C1509 C 0.49634 0.53879 0.3436 0.0
H1510 H 0.51194 0.55955 0.25478 0.0
C1511 C 0.54054 0.54369 0.36817 0.0
C1512 C 0.54614 0.54611 0.31424 0.0
C1513 C 0.52977 0.54336 0.36702 0.0
C1514 C 0.50771 0.55361 0.27912 0.0
H1515 H 0.45927 0.54486 0.40971 0.0
H1516 H 0.478 0.54333 0.40883 0.0
H1517 H 0.49322 0.5603 0.25469 0.0
H1518 H 0.54476 0.54998 0.21663 0.0
H1519 H 0.52604 0.54919 0.21439 0.0
H1520 H 0.51088 0.53217 0.36847 0.0
C1521 C 0.47409 0.54534 0.36614 0.0
C1522 C 0.49696 0.55404 0.27907 0.0
C1523 C 0.46336 0.54633 0.36682 0.0
C1524 C 0.54072 0.54797 0.25886 0.0
C1525 C 0.52997 0.54765 0.25775 0.0
C1526 C 0.50711 0.53837 0.34371 0.0
C1527 C 0.4797 0.54722 0.3115 0.0
C1528 C 0.49114 0.54664 0.31126 0.0
C1529 C 0.52436 0.54547 0.31196 0.0
C1530 C 0.51291 0.54577 0.31141 0.0
H1531 H 0.45974 0.55327 0.21575 0.0
H1532 H 0.47837 0.55131 0.21424 0.0
H1533 H 0.49208 0.5329 0.36825 0.0
H1534 H 0.54449 0.54214 0.41145 0.0
H1535 H 0.52569 0.54173 0.4097 0.0
C1536 C 0.18856 0.1499 0.20341 0.0
C1537 C 0.1828 0.15825 0.18029 0.0
C1538 C 0.1904 0.14889 0.26697 0.0
C1539 C 0.1814 0.15718 0.42133 0.0
H1540 H 0.20954 0.15154 0.4716 0.0
C1541 C 0.20803 0.16068 0.65431 0.0
C1542 C 0.20153 0.15603 0.69839 0.0
C1543 C 0.2057 0.16018 0.59106 0.0
C1544 C 0.20165 0.15314 0.45826 0.0
H1545 H 0.17423 0.17191 0.20685 0.0
H1546 H 0.17731 0.17003 0.31765 0.0
H1547 H 0.20517 0.15209 0.36145 0.0
H1548 H 0.1877 0.14683 0.70976 0.0
H1549 H 0.18359 0.14609 0.59961 0.0
H1550 H 0.17792 0.1584 0.51815 0.0
C1551 C 0.18038 0.16426 0.28638 0.0
C1552 C 0.19913 0.15335 0.39524 0.0
C1553 C 0.17859 0.16533 0.22274 0.0
C1554 C 0.19277 0.15069 0.67741 0.0
C1555 C 0.19041 0.15024 0.61422 0.0
C1556 C 0.18391 0.15689 0.48438 0.0
C1557 C 0.18645 0.15613 0.30906 0.0
C1558 C 0.18899 0.15545 0.37609 0.0
C1559 C 0.1968 0.15505 0.5704 0.0
C1560 C 0.19408 0.15495 0.50351 0.0
H1561 H 0.19174 0.14418 0.17243 0.0
H1562 H 0.19495 0.14243 0.28318 0.0
H1563 H 0.17351 0.15874 0.40798 0.0
H1564 H 0.21477 0.16496 0.66859 0.0
H1565 H 0.21072 0.16406 0.55843 0.0
C1566 C 0.08775 0.92921 0.46305 0.0
C1567 C 0.08934 0.93766 0.42351 0.0
C1568 C 0.08957 0.93012 0.52678 0.0
C1569 C 0.10281 0.94665 0.64256 0.0
H1570 H 0.08291 0.9351 0.75722 0.0
C1571 C 0.09916 0.95983 0.89661 0.0
C1572 C 0.09751 0.95224 0.94203 0.0
C1573 C 0.09906 0.95727 0.83372 0.0
C1574 C 0.08861 0.93825 0.72579 0.0
H1575 H 0.09382 0.95375 0.41998 0.0
H1576 H 0.09689 0.95536 0.53047 0.0
H1577 H 0.08106 0.93191 0.64629 0.0
H1578 H 0.0949 0.93589 0.95663 0.0
H1579 H 0.09457 0.93149 0.84693 0.0
H1580 H 0.11018 0.95323 0.72208 0.0
C1581 C 0.09453 0.94795 0.51238 0.0
C1582 C 0.08756 0.9364 0.66228 0.0
C1583 C 0.09275 0.94703 0.44892 0.0
C1584 C 0.09596 0.94199 0.92305 0.0
C1585 C 0.09581 0.93944 0.86016 0.0
C1586 C 0.10381 0.94854 0.70599 0.0
C1587 C 0.09297 0.93952 0.55211 0.0
C1588 C 0.09456 0.94072 0.61988 0.0
C1589 C 0.09729 0.94706 0.81489 0.0
C1590 C 0.09665 0.94448 0.74813 0.0
H1591 H 0.08519 0.92189 0.4446 0.0
H1592 H 0.08839 0.92345 0.55613 0.0
H1593 H 0.10845 0.94992 0.6112 0.0
H1594 H 0.10025 0.96781 0.90952 0.0
H1595 H 0.1001 0.96333 0.79976 0.0
C1596 C 0.31967 0.82953 0.74727 0.0
C1597 C 0.31832 0.8378 0.70605 0.0
C1598 C 0.31803 0.83084 0.81079 0.0
C1599 C 0.30416 0.84757 0.92063 0.0
H1600 H 0.32124 0.83392 0.0432 0.0
C1601 C 0.30031 0.85467 0.18462 0.0
C1602 C 0.30094 0.84597 0.22333 0.0
C1603 C 0.30238 0.85384 0.12122 0.0
C1604 C 0.31634 0.8377 0.00944 0.0
H1605 H 0.3147 0.85406 0.69951 0.0
H1606 H 0.31192 0.8564 0.81045 0.0
H1607 H 0.3255 0.83239 0.93342 0.0
H1608 H 0.3038 0.82952 0.22516 0.0
H1609 H 0.30747 0.8281 0.11465 0.0
H1610 H 0.29502 0.8529 0.99684 0.0
C1611 C 0.31401 0.84883 0.79349 0.0
C1612 C 0.31879 0.83683 0.9466 0.0
C1613 C 0.31563 0.8475 0.72997 0.0
C1614 C 0.30345 0.8364 0.1969 0.0
C1615 C 0.30555 0.83558 0.13361 0.0
C1616 C 0.30174 0.84847 0.98352 0.0
C1617 C 0.31504 0.84048 0.8345 0.0
C1618 C 0.31269 0.84171 0.90146 0.0
C1619 C 0.30515 0.84431 0.09524 0.0
C1620 C 0.30777 0.84349 0.02853 0.0
H1621 H 0.32159 0.82193 0.73027 0.0
H1622 H 0.31876 0.82422 0.84101 0.0
H1623 H 0.2992 0.85129 0.88696 0.0
H1624 H 0.29853 0.86218 0.20347 0.0
H1625 H 0.3021 0.86072 0.09284 0.0
C1626 C 0.40727 0.05626 0.93517 0.0
C1627 C 0.41055 0.06559 0.90864 0.0
C1628 C 0.40538 0.05558 -0.00138 0.0
C1629 C 0.41213 0.06769 0.14677 0.0
H1630 H 0.38988 0.05061 0.20867 0.0
C1631 C 0.40472 0.06163 0.4085 0.0
C1632 C 0.40336 0.05131 0.42668 0.0
C1633 C 0.40459 0.06434 0.34582 0.0
C1634 C 0.39613 0.05539 0.19199 0.0
H1635 H 0.41424 0.08155 0.92769 0.0
H1636 H 0.41088 0.08037 0.03911 0.0
H1637 H 0.39135 0.05383 0.09754 0.0
H1638 H 0.40075 0.03578 0.39297 0.0
H1639 H 0.40043 0.04054 0.2838 0.0
H1640 H 0.41698 0.06912 0.2413 0.0
C1641 C 0.40989 0.07357 0.01066 0.0
C1642 C 0.39699 0.05722 0.12845 0.0
C1643 C 0.41182 0.07425 0.94697 0.0
C1644 C 0.40168 0.04381 0.38075 0.0
C1645 C 0.40149 0.04654 0.31817 0.0
C1646 C 0.41125 0.06589 0.21041 0.0
C1647 C 0.40669 0.0642 0.03715 0.0
C1648 C 0.40513 0.06321 0.10502 0.0
C1649 C 0.40302 0.05681 0.30007 0.0
C1650 C 0.40336 0.05955 0.23346 0.0
H1651 H 0.40643 0.04939 0.90724 0.0
H1652 H 0.40315 0.04819 0.01772 0.0
H1653 H 0.41855 0.07224 0.13013 0.0
H1654 H 0.40583 0.06765 0.4425 0.0
H1655 H 0.40567 0.07235 0.33314 0.0
C1656 C 0.18535 0.85045 0.79758 0.0
C1657 C 0.18413 0.84038 0.82031 0.0
C1658 C 0.18622 0.85225 0.73391 0.0
C1659 C 0.18222 0.84002 0.5797 0.0
H1660 H 0.20253 0.86006 0.52659 0.0
C1661 C 0.18878 0.84905 0.32089 0.0
C1662 C 0.19902 0.85036 0.30152 0.0
C1663 C 0.18636 0.84861 0.38396 0.0
C1664 C 0.19688 0.85439 0.54059 0.0
H1665 H 0.18281 0.82432 0.79419 0.0
H1666 H 0.18449 0.82741 0.68331 0.0
H1667 H 0.19932 0.85759 0.63672 0.0
H1668 H 0.21475 0.85229 0.33271 0.0
H1669 H 0.21061 0.85129 0.44287 0.0
H1670 H 0.18015 0.83647 0.48373 0.0
C1671 C 0.18454 0.83396 0.71439 0.0
C1672 C 0.19492 0.85307 0.6038 0.0
C1673 C 0.18359 0.83218 0.778 0.0
C1674 C 0.20678 0.85137 0.34645 0.0
C1675 C 0.20438 0.85084 0.40953 0.0
C1676 C 0.18424 0.84128 0.51651 0.0
C1677 C 0.18598 0.84401 0.69157 0.0
C1678 C 0.18763 0.84581 0.62418 0.0
C1679 C 0.19415 0.84939 0.42909 0.0
C1680 C 0.19166 0.84842 0.49618 0.0
H1681 H 0.18565 0.85693 0.8291 0.0
H1682 H 0.18711 0.86011 0.71791 0.0
H1683 H 0.17646 0.83446 0.59366 0.0
H1684 H 0.18261 0.84844 0.28728 0.0
H1685 H 0.17837 0.8477 0.39731 0.0
C1686 C 0.40554 0.94144 0.00033 0.0
C1687 C 0.409 0.93218 0.02686 0.0
C1688 C 0.40358 0.94208 0.9369 0.0
C1689 C 0.41049 0.93001 0.78885 0.0
H1690 H 0.38796 0.94673 0.7268 0.0
C1691 C 0.40301 0.9359 0.5271 0.0
C1692 C 0.40153 0.9462 0.50886 0.0
C1693 C 0.40288 0.93318 0.58978 0.0
C1694 C 0.39429 0.94205 0.74352 0.0
H1695 H 0.41292 0.91627 0.0079 0.0
H1696 H 0.40947 0.91736 0.89657 0.0
H1697 H 0.38951 0.94358 0.83798 0.0
H1698 H 0.3987 0.96169 0.54245 0.0
H1699 H 0.39838 0.95694 0.65162 0.0
H1700 H 0.41534 0.92862 0.69433 0.0
C1701 C 0.40839 0.92416 0.92496 0.0
C1702 C 0.39519 0.94026 0.80709 0.0
C1703 C 0.41037 0.92353 0.98859 0.0
C1704 C 0.39972 0.95367 0.55472 0.0
C1705 C 0.39953 0.95095 0.6173 0.0
C1706 C 0.40956 0.93177 0.7252 0.0
C1707 C 0.40502 0.93346 0.89843 0.0
C1708 C 0.40343 0.93441 0.83057 0.0
C1709 C 0.40119 0.9407 0.63547 0.0
C1710 C 0.40157 0.93799 0.70209 0.0
H1711 H 0.4046 0.9483 0.02823 0.0
H1712 H 0.40122 0.94942 0.91777 0.0
H1713 H 0.41698 0.92557 0.80552 0.0
H1714 H 0.40422 0.92989 0.49313 0.0
H1715 H 0.40406 0.9252 0.60251 0.0
C1716 C 0.29657 0.15194 0.80149 0.0
C1717 C 0.30417 0.15325 0.75578 0.0
C1718 C 0.29924 0.15165 0.86417 0.0
C1719 C 0.31908 0.1604 0.9722 0.0
H1720 H 0.30621 0.14098 0.08473 0.0
C1721 C 0.32803 0.16006 0.23497 0.0
C1722 C 0.31941 0.15913 0.27396 0.0
C1723 C 0.3271 0.15831 0.1712 0.0
C1724 C 0.30983 0.14649 0.05392 0.0
H1725 H 0.32062 0.15489 0.7403 0.0
H1726 H 0.32524 0.15455 0.84972 0.0
H1727 H 0.30273 0.13984 0.97374 0.0
H1728 H 0.30302 0.15584 0.27639 0.0
H1729 H 0.3014 0.15286 0.16585 0.0
H1730 H 0.32595 0.16725 0.05244 0.0
C1731 C 0.3172 0.15387 0.83689 0.0
C1732 C 0.30784 0.14583 0.99045 0.0
C1733 C 0.31453 0.15411 0.77419 0.0
C1734 C 0.30987 0.15639 0.24797 0.0
C1735 C 0.30893 0.15467 0.18446 0.0
C1736 C 0.32104 0.1611 0.03576 0.0
C1737 C 0.30958 0.15269 0.88248 0.0
C1738 C 0.31232 0.15288 0.94911 0.0
C1739 C 0.31752 0.15563 0.14528 0.0
C1740 C 0.31629 0.15426 0.07741 0.0
H1741 H 0.28852 0.15137 0.78894 0.0
H1742 H 0.29319 0.15087 0.89842 0.0
H1743 H 0.32256 0.166 0.9414 0.0
H1744 H 0.33548 0.16207 0.25382 0.0
H1745 H 0.33387 0.15902 0.14223 0.0
C1746 C 0.09199 0.07192 0.54394 0.0
C1747 C 0.0931 0.06347 0.58409 0.0
C1748 C 0.09339 0.0707 0.48002 0.0
C1749 C 0.1046 0.05292 0.36352 0.0
H1750 H 0.08476 0.06545 0.25216 0.0
C1751 C 0.09917 0.03971 0.11061 0.0
C1752 C 0.09783 0.04738 0.06536 0.0
C1753 C 0.0993 0.04227 0.17351 0.0
C1754 C 0.09044 0.06201 0.28263 0.0
H1755 H 0.09632 0.04707 0.58848 0.0
H1756 H 0.09871 0.04495 0.47779 0.0
H1757 H 0.08386 0.06907 0.36304 0.0
H1758 H 0.09592 0.06383 0.05089 0.0
H1759 H 0.09601 0.06824 0.16053 0.0
H1760 H 0.11102 0.04567 0.28317 0.0
C1761 C 0.09703 0.05258 0.4955 0.0
C1762 C 0.08994 0.0641 0.34608 0.0
C1763 C 0.09566 0.0538 0.55912 0.0
C1764 C 0.09672 0.05768 0.08441 0.0
C1765 C 0.09682 0.06023 0.14727 0.0
C1766 C 0.10507 0.05079 0.30014 0.0
C1767 C 0.09589 0.06099 0.45517 0.0
C1768 C 0.09693 0.05947 0.38731 0.0
C1769 C 0.09807 0.05255 0.19244 0.0
C1770 C 0.09792 0.05522 0.25919 0.0
H1771 H 0.09009 0.07946 0.56199 0.0
H1772 H 0.09256 0.07735 0.45012 0.0
H1773 H 0.11021 0.04938 0.39398 0.0
H1774 H 0.09993 0.0317 0.09745 0.0
H1775 H 0.10015 0.03616 0.20741 0.0
C1776 C 0.81158 0.84294 0.78656 0.0
C1777 C 0.8205 0.83865 0.81294 0.0
C1778 C 0.81097 0.84474 0.723 0.0
C1779 C 0.82182 0.836 0.57515 0.0
H1780 H 0.80681 0.85951 0.51056 0.0
C1781 C 0.81586 0.84283 0.31277 0.0
C1782 C 0.80571 0.84517 0.29477 0.0
C1783 C 0.81867 0.84289 0.37528 0.0
C1784 C 0.81099 0.85289 0.528 0.0
H1785 H 0.83593 0.8332 0.79312 0.0
H1786 H 0.83489 0.83639 0.6815 0.0
H1787 H 0.81031 0.85833 0.62152 0.0
H1788 H 0.79058 0.84945 0.3286 0.0
H1789 H 0.79551 0.84965 0.43772 0.0
H1790 H 0.82239 0.83052 0.48154 0.0
C1791 C 0.82831 0.83821 0.71029 0.0
C1792 C 0.813 0.85221 0.59146 0.0
C1793 C 0.8289 0.83639 0.77416 0.0
C1794 C 0.79848 0.84774 0.34076 0.0
C1795 C 0.8013 0.84785 0.40325 0.0
C1796 C 0.81986 0.83671 0.51159 0.0
C1797 C 0.81929 0.84233 0.684 0.0
C1798 C 0.81824 0.84365 0.61592 0.0
C1799 C 0.81141 0.84537 0.42113 0.0
C1800 C 0.81425 0.84506 0.48761 0.0
H1801 H 0.8049 0.84461 0.81456 0.0
H1802 H 0.80382 0.8477 0.7042 0.0
H1803 H 0.82577 0.82924 0.59257 0.0
H1804 H 0.82171 0.84106 0.27873 0.0
H1805 H 0.82654 0.84108 0.38775 0.0
C1806 C 0.90247 0.04683 0.07315 0.0
C1807 C 0.90409 0.05433 0.02713 0.0
C1808 C 0.90212 0.0496 0.13563 0.0
C1809 C 0.91132 0.06917 0.24357 0.0
H1810 H 0.89149 0.05676 0.3554 0.0
C1811 C 0.91156 0.07743 0.50695 0.0
C1812 C 0.91048 0.06872 0.54508 0.0
C1813 C 0.90963 0.07676 0.44328 0.0
C1814 C 0.8971 0.06026 0.32478 0.0
H1815 H 0.90629 0.0707 0.01102 0.0
H1816 H 0.90585 0.07547 0.12026 0.0
H1817 H 0.89022 0.05352 0.24419 0.0
H1818 H 0.90662 0.05245 0.54615 0.0
H1819 H 0.90331 0.05128 0.43564 0.0
H1820 H 0.91841 0.07564 0.32422 0.0
C1821 C 0.90493 0.06744 0.10772 0.0
C1822 C 0.89637 0.05841 0.26119 0.0
C1823 C 0.90523 0.06468 0.04512 0.0
C1824 C 0.90733 0.05936 0.51837 0.0
C1825 C 0.90542 0.05869 0.45491 0.0
C1826 C 0.91209 0.07099 0.30725 0.0
C1827 C 0.90342 0.05991 0.15355 0.0
C1828 C 0.90358 0.06269 0.22012 0.0
C1829 C 0.90659 0.06736 0.41657 0.0
C1830 C 0.90511 0.06638 0.34864 0.0
H1831 H 0.90171 0.03878 0.06108 0.0
H1832 H 0.9011 0.0436 0.17007 0.0
H1833 H 0.91705 0.0725 0.21299 0.0
H1834 H 0.91387 0.08476 0.52636 0.0
H1835 H 0.9105 0.0836 0.41498 0.0
C1836 C 0.67026 0.15779 0.23075 0.0
C1837 C 0.67883 0.15718 0.27037 0.0
C1838 C 0.67136 0.15604 0.16716 0.0
C1839 C 0.6891 0.14539 0.04847 0.0
H1840 H 0.67617 0.16564 0.94158 0.0
C1841 C 0.70196 0.15307 0.79627 0.0
C1842 C 0.69429 0.15526 0.75214 0.0
C1843 C 0.6994 0.15189 0.85882 0.0
C1844 C 0.6797 0.15982 0.97062 0.0
H1845 H 0.69525 0.1541 0.27433 0.0
H1846 H 0.69717 0.15111 0.16377 0.0
H1847 H 0.67271 0.16593 0.0524 0.0
H1848 H 0.67789 0.15776 0.73933 0.0
H1849 H 0.67345 0.1555 0.84788 0.0
H1850 H 0.69629 0.13946 0.96649 0.0
C1851 C 0.68956 0.15276 0.18185 0.0
C1852 C 0.67771 0.15997 0.03415 0.0
C1853 C 0.68846 0.15448 0.24534 0.0
C1854 C 0.68399 0.15598 0.77177 0.0
C1855 C 0.68144 0.1548 0.83419 0.0
C1856 C 0.69111 0.14525 0.98481 0.0
C1857 C 0.68106 0.15367 0.14193 0.0
C1858 C 0.68248 0.15285 0.07389 0.0
C1859 C 0.68913 0.15289 0.8785 0.0
C1860 C 0.68652 0.15254 0.94536 0.0
H1861 H 0.66273 0.1597 0.24884 0.0
H1862 H 0.66464 0.15665 0.13764 0.0
H1863 H 0.6928 0.13972 0.07786 0.0
H1864 H 0.70994 0.15234 0.78256 0.0
H1865 H 0.70552 0.1505 0.89199 0.0
C1866 C 0.58144 0.9312 0.05522 0.0
C1867 C 0.58926 0.9344 0.096 0.0
C1868 C 0.58244 0.93271 0.99133 0.0
C1869 C 0.59587 0.94938 0.87977 0.0
H1870 H 0.58642 0.92942 0.75861 0.0
C1871 C 0.60204 0.95492 0.61702 0.0
C1872 C 0.59376 0.9524 0.5778 0.0
C1873 C 0.60173 0.95241 0.67997 0.0
C1874 C 0.589 0.93511 0.79194 0.0
H1875 H 0.60451 0.94117 0.10131 0.0
H1876 H 0.60626 0.94379 0.9899 0.0
H1877 H 0.58569 0.92522 0.86894 0.0
H1878 H 0.5786 0.94544 0.57431 0.0
H1879 H 0.57806 0.94106 0.68429 0.0
H1880 H 0.59912 0.95929 0.80297 0.0
C1881 C 0.59926 0.94031 0.00745 0.0
C1882 C 0.5886 0.9327 0.85507 0.0
C1883 C 0.59826 0.9388 0.07126 0.0
C1884 C 0.58515 0.94735 0.60309 0.0
C1885 C 0.58485 0.94483 0.66606 0.0
C1886 C 0.59628 0.95178 0.81671 0.0
C1887 C 0.59129 0.93745 0.96688 0.0
C1888 C 0.592 0.93982 0.89968 0.0
C1889 C 0.59315 0.94732 0.70517 0.0
C1890 C 0.59282 0.94469 0.77211 0.0
H1891 H 0.57437 0.9279 0.07275 0.0
H1892 H 0.57612 0.93052 0.96135 0.0
H1893 H 0.59838 0.95511 0.91302 0.0
H1894 H 0.60886 0.95865 0.59897 0.0
H1895 H 0.60831 0.9543 0.70873 0.0
C1896 C 0.812 0.15587 0.25976 0.0
C1897 C 0.82116 0.15949 0.23281 0.0
C1898 C 0.81154 0.15372 0.323 0.0
C1899 C 0.82381 0.16042 0.47046 0.0
H1900 H 0.8077 0.1374 0.53179 0.0
C1901 C 0.8183 0.15269 0.73187 0.0
C1902 C 0.80805 0.15096 0.75018 0.0
C1903 C 0.821 0.15257 0.6692 0.0
C1904 C 0.81221 0.14387 0.51528 0.0
H1905 H 0.83709 0.16349 0.25082 0.0
H1906 H 0.8363 0.15973 0.36181 0.0
H1907 H 0.81061 0.13926 0.42052 0.0
H1908 H 0.79264 0.14765 0.71695 0.0
H1909 H 0.79736 0.14738 0.60772 0.0
H1910 H 0.82524 0.16513 0.56518 0.0
C1911 C 0.82944 0.15866 0.33388 0.0
C1912 C 0.81387 0.14493 0.45168 0.0
C1913 C 0.82989 0.16083 0.27045 0.0
C1914 C 0.80062 0.14888 0.70451 0.0
C1915 C 0.80332 0.14871 0.64193 0.0
C1916 C 0.82217 0.15933 0.53412 0.0
C1917 C 0.82024 0.15513 0.36082 0.0
C1918 C 0.81949 0.15335 0.42852 0.0
C1919 C 0.81352 0.15065 0.62363 0.0
C1920 C 0.81617 0.15117 0.55698 0.0
H1921 H 0.80508 0.15495 0.23234 0.0
H1922 H 0.80428 0.15123 0.34256 0.0
H1923 H 0.82808 0.16704 0.454 0.0
H1924 H 0.82428 0.1541 0.76579 0.0
H1925 H 0.82895 0.15396 0.65636 0.0
C1926 C 0.60147 0.04599 0.44089 0.0
C1927 C 0.59998 0.05356 0.48665 0.0
C1928 C 0.60158 0.04864 0.37819 0.0
C1929 C 0.59166 0.06793 0.27076 0.0
H1930 H 0.61095 0.05547 0.15576 0.0
C1931 C 0.59016 0.07593 0.00698 0.0
C1932 C 0.59132 0.06725 0.96871 0.0
C1933 C 0.59224 0.07528 0.07051 0.0
C1934 C 0.60548 0.05897 0.18726 0.0
H1935 H 0.59785 0.06996 0.50193 0.0
H1936 H 0.59786 0.07453 0.39236 0.0
H1937 H 0.61287 0.05243 0.26684 0.0
H1938 H 0.59537 0.05104 0.96724 0.0
H1939 H 0.5989 0.04988 0.07755 0.0
H1940 H 0.58407 0.0742 0.19121 0.0
C1941 C 0.59885 0.06653 0.40531 0.0
C1942 C 0.60659 0.05724 0.25079 0.0
C1943 C 0.5988 0.06389 0.46812 0.0
C1944 C 0.59461 0.05792 0.99517 0.0
C1945 C 0.59665 0.05726 0.05849 0.0
C1946 C 0.59052 0.06962 0.20715 0.0
C1947 C 0.60016 0.05892 0.35976 0.0
C1948 C 0.59959 0.06156 0.29305 0.0
C1949 C 0.59549 0.06592 0.09694 0.0
C1950 C 0.5973 0.065 0.16465 0.0
H1951 H 0.60225 0.03796 0.4533 0.0
H1952 H 0.60246 0.04259 0.34401 0.0
H1953 H 0.58609 0.07127 0.30229 0.0
H1954 H 0.58774 0.08324 0.98771 0.0
H1955 H 0.59137 0.08211 0.09885 0.0
C1956 C 0.676 0.83893 0.74796 0.0
C1957 C 0.68449 0.84091 0.70942 0.0
C1958 C 0.67651 0.84106 0.81152 0.0
C1959 C 0.6916 0.85589 0.92741 0.0
H1960 H 0.68118 0.83562 0.04369 0.0
C1961 C 0.70469 0.85373 0.18208 0.0
C1962 C 0.69726 0.85153 0.22759 0.0
C1963 C 0.70213 0.85346 0.11921 0.0
C1964 C 0.68399 0.84143 0.01181 0.0
H1965 H 0.70026 0.8464 0.70758 0.0
H1966 H 0.70119 0.85004 0.81777 0.0
H1967 H 0.67843 0.83316 0.93275 0.0
H1968 H 0.68114 0.84776 0.24225 0.0
H1969 H 0.67674 0.84713 0.13255 0.0
H1970 H 0.69742 0.86399 0.00647 0.0
C1971 C 0.69403 0.84712 0.79896 0.0
C1972 C 0.6824 0.84003 0.94827 0.0
C1973 C 0.6935 0.84502 0.73568 0.0
C1974 C 0.68713 0.84928 0.20866 0.0
C1975 C 0.68458 0.84895 0.14575 0.0
C1976 C 0.69323 0.85726 0.99086 0.0
C1977 C 0.68555 0.84518 0.83767 0.0
C1978 C 0.68635 0.84715 0.90531 0.0
C1979 C 0.69208 0.85094 0.10041 0.0
C1980 C 0.68959 0.84996 0.03361 0.0
H1981 H 0.66893 0.83584 0.72887 0.0
H1982 H 0.66981 0.83956 0.84007 0.0
H1983 H 0.69456 0.86162 0.89556 0.0
H1984 H 0.71259 0.85536 0.19484 0.0
H1985 H 0.7081 0.85489 0.08524 0.0
C1986 C 0.89915 0.95684 0.89701 0.0
C1987 C 0.90132 0.94942 0.94264 0.0
C1988 C 0.89927 0.95421 0.83427 0.0
C1989 C 0.91075 0.93578 0.72673 0.0
H1990 H 0.89058 0.94675 0.61163 0.0
C1991 C 0.91271 0.92785 0.46294 0.0
C1992 C 0.91101 0.93646 0.42475 0.0
C1993 C 0.91061 0.92836 0.52648 0.0
C1994 C 0.8963 0.94367 0.64319 0.0
H1995 H 0.90491 0.93328 0.95783 0.0
H1996 H 0.90526 0.92874 0.84823 0.0
H1997 H 0.88843 0.94962 0.72271 0.0
H1998 H 0.90597 0.95239 0.42351 0.0
H1999 H 0.90237 0.95329 0.53381 0.0
H2000 H 0.91879 0.93008 0.64719 0.0
C2001 C 0.90358 0.93663 0.86123 0.0
C2002 C 0.89506 0.9453 0.7067 0.0
C2003 C 0.90341 0.93925 0.92404 0.0
C2004 C 0.90716 0.94556 0.45134 0.0
C2005 C 0.90508 0.94607 0.51465 0.0
C2006 C 0.91202 0.93417 0.66314 0.0
C2007 C 0.90159 0.9441 0.81574 0.0
C2008 C 0.90237 0.94153 0.749 0.0
C2009 C 0.90678 0.93749 0.55297 0.0
C2010 C 0.90491 0.93827 0.62063 0.0
H2011 H 0.89765 0.96477 0.90959 0.0
H2012 H 0.89785 0.96017 0.80017 0.0
H2013 H 0.91656 0.93287 0.75826 0.0
H2014 H 0.91557 0.92071 0.44361 0.0
H2015 H 0.91191 0.92159 0.55478 0.0
C2016 C 0.70784 0.65391 0.11925 0.0
C2017 C 0.70033 0.65564 0.16494 0.0
C2018 C 0.70517 0.65379 0.05655 0.0
C2019 C 0.68584 0.66361 0.94835 0.0
H2020 H 0.69764 0.64347 0.83613 0.0
C2021 C 0.67682 0.66355 0.68564 0.0
C2022 C 0.68537 0.66216 0.64661 0.0
C2023 C 0.67768 0.6618 0.74946 0.0
C2024 C 0.69432 0.64918 0.86685 0.0
H2025 H 0.684 0.65824 0.18035 0.0
H2026 H 0.67938 0.65819 0.07091 0.0
H2027 H 0.70106 0.6422 0.94713 0.0
H2028 H 0.70157 0.65804 0.64414 0.0
H2029 H 0.70307 0.65506 0.75474 0.0
H2030 H 0.67934 0.67077 0.868 0.0
C2031 C 0.68737 0.65705 0.08376 0.0
C2032 C 0.69628 0.64844 0.93032 0.0
C2033 C 0.69004 0.65712 0.14648 0.0
C2034 C 0.69477 0.65896 0.6726 0.0
C2035 C 0.69563 0.65724 0.73615 0.0
C2036 C 0.68392 0.66438 0.88478 0.0
C2037 C 0.69491 0.65543 0.0382 0.0
C2038 C 0.69219 0.65574 0.97156 0.0
C2039 C 0.68711 0.65867 0.77536 0.0
C2040 C 0.68829 0.65728 0.84325 0.0
H2041 H 0.71585 0.65287 0.13182 0.0
H2042 H 0.71117 0.65267 0.02234 0.0
H2043 H 0.68266 0.6694 0.97905 0.0
H2044 H 0.66947 0.66592 0.66679 0.0
H2045 H 0.67095 0.66288 0.77847 0.0
C2046 C 0.59112 0.42368 0.99213 0.0
C2047 C 0.59221 0.43235 0.95376 0.0
C2048 C 0.59293 0.42442 0.0559 0.0
C2049 C 0.60505 0.44118 0.17474 0.0
H2050 H 0.58499 0.42884 0.28538 0.0
C2051 C 0.59913 0.4547 0.42573 0.0
C2052 C 0.59761 0.4472 0.47181 0.0
C2053 C 0.59954 0.45193 0.36328 0.0
C2054 C 0.59074 0.4322 0.25512 0.0
H2055 H 0.59597 0.44864 0.95234 0.0
H2056 H 0.59906 0.44996 0.06297 0.0
H2057 H 0.5839 0.42558 0.17416 0.0
H2058 H 0.5956 0.4308 0.48803 0.0
H2059 H 0.59612 0.42602 0.37884 0.0
H2060 H 0.61168 0.44806 0.25563 0.0
C2061 C 0.59704 0.44251 0.04385 0.0
C2062 C 0.59013 0.43031 0.19145 0.0
C2063 C 0.59526 0.44176 0.9803 0.0
C2064 C 0.59658 0.43682 0.45389 0.0
C2065 C 0.59692 0.43406 0.39133 0.0
C2066 C 0.60562 0.4431 0.2383 0.0
C2067 C 0.59585 0.43388 0.08246 0.0
C2068 C 0.59716 0.43495 0.15046 0.0
C2069 C 0.59838 0.44159 0.34545 0.0
C2070 C 0.59836 0.43878 0.27894 0.0
H2071 H 0.58889 0.41631 0.97283 0.0
H2072 H 0.59205 0.41761 0.08439 0.0
H2073 H 0.6107 0.4447 0.14445 0.0
H2074 H 0.59981 0.46276 0.43775 0.0
H2075 H 0.6005 0.45792 0.32879 0.0
C2076 C 0.81107 0.34092 0.651 0.0
C2077 C 0.80146 0.34479 0.67009 0.0
C2078 C 0.8137 0.34071 0.58834 0.0
C2079 C 0.80738 0.35257 0.43832 0.0
H2080 H 0.81996 0.32801 0.36939 0.0
C2081 C 0.80863 0.34427 0.17746 0.0
C2082 C 0.81739 0.33948 0.15215 0.0
C2083 C 0.80774 0.34574 0.24118 0.0
C2084 C 0.81662 0.33499 0.38816 0.0
H2085 H 0.78707 0.3514 0.63851 0.0
H2086 H 0.79165 0.35101 0.52859 0.0
H2087 H 0.81608 0.32876 0.47995 0.0
H2088 H 0.8323 0.33288 0.17433 0.0
H2089 H 0.8307 0.33542 0.28618 0.0
H2090 H 0.80778 0.35875 0.34637 0.0
C2091 C 0.79719 0.34826 0.56235 0.0
C2092 C 0.81437 0.33541 0.45139 0.0
C2093 C 0.79455 0.34845 0.62513 0.0
C2094 C 0.82538 0.33644 0.19226 0.0
C2095 C 0.82447 0.3379 0.25627 0.0
C2096 C 0.80964 0.35216 0.37512 0.0
C2097 C 0.8068 0.3444 0.5434 0.0
C2098 C 0.8096 0.34415 0.47691 0.0
C2099 C 0.81558 0.34246 0.28135 0.0
C2100 C 0.81415 0.34331 0.34925 0.0
H2101 H 0.81668 0.33827 0.68445 0.0
H2102 H 0.82122 0.33784 0.57515 0.0
H2103 H 0.80388 0.35948 0.45698 0.0
H2104 H 0.80226 0.34661 0.14857 0.0
H2105 H 0.80072 0.34911 0.25913 0.0
C2106 C 0.89244 0.55181 0.97047 0.0
C2107 C 0.90072 0.55471 0.00864 0.0
C2108 C 0.89237 0.55445 0.90765 0.0
C2109 C 0.90444 0.57198 0.79319 0.0
H2110 H 0.89643 0.55094 0.67497 0.0
C2111 C 0.91498 0.57348 0.53351 0.0
C2112 C 0.90763 0.57004 0.49039 0.0
C2113 C 0.91317 0.57257 0.59711 0.0
C2114 C 0.89854 0.55696 0.7074 0.0
H2115 H 0.91542 0.56261 0.01088 0.0
H2116 H 0.91535 0.56714 0.9013 0.0
H2117 H 0.89505 0.54747 0.78565 0.0
H2118 H 0.89235 0.56345 0.4805 0.0
H2119 H 0.88923 0.56179 0.59147 0.0
H2120 H 0.90816 0.58137 0.71464 0.0
C2121 C 0.90881 0.56301 0.92007 0.0
C2122 C 0.89774 0.55497 0.77083 0.0
C2123 C 0.90887 0.56039 0.98284 0.0
C2124 C 0.89827 0.56597 0.51237 0.0
C2125 C 0.89647 0.56504 0.57594 0.0
C2126 C 0.90527 0.57396 0.7297 0.0
C2127 C 0.90059 0.56002 0.8817 0.0
C2128 C 0.90079 0.56242 0.81443 0.0
C2129 C 0.90396 0.56819 0.61894 0.0
C2130 C 0.90243 0.56642 0.68619 0.0
H2131 H 0.88597 0.54758 0.98919 0.0
H2132 H 0.88585 0.55217 0.87947 0.0
H2133 H 0.90669 0.57794 0.82565 0.0
H2134 H 0.92231 0.57653 0.51827 0.0
H2135 H 0.91914 0.57495 0.62915 0.0
C2136 C 0.68387 0.34837 0.74858 0.0
C2137 C 0.69416 0.34984 0.73015 0.0
C2138 C 0.68119 0.34848 0.81129 0.0
C2139 C 0.69011 0.35695 0.96517 0.0
H2140 H 0.67359 0.33424 0.02649 0.0
C2141 C 0.68931 0.34567 0.22191 0.0
C2142 C 0.68004 0.34218 0.24816 0.0
C2143 C 0.68999 0.34763 0.15852 0.0
C2144 C 0.67804 0.34074 0.01003 0.0
H2145 H 0.70967 0.35268 0.76343 0.0
H2146 H 0.70498 0.35297 0.87276 0.0
H2147 H 0.67669 0.33593 0.9154 0.0
H2148 H 0.66416 0.33819 0.22874 0.0
H2149 H 0.66533 0.34168 0.11742 0.0
H2150 H 0.69159 0.3617 0.05974 0.0
C2151 C 0.69898 0.35182 0.83854 0.0
C2152 C 0.67983 0.34169 0.94642 0.0
C2153 C 0.70166 0.35166 0.77588 0.0
C2154 C 0.67143 0.34078 0.20964 0.0
C2155 C 0.6721 0.34277 0.14602 0.0
C2156 C 0.68828 0.35603 0.0287 0.0
C2157 C 0.68874 0.35013 0.85688 0.0
C2158 C 0.68605 0.34969 0.92354 0.0
C2159 C 0.68142 0.34617 0.11978 0.0
C2160 C 0.68241 0.34779 0.05195 0.0
H2161 H 0.67784 0.34718 0.71473 0.0
H2162 H 0.67322 0.34729 0.82415 0.0
H2163 H 0.69479 0.36329 0.94864 0.0
H2164 H 0.69615 0.3466 0.25 0.0
H2165 H 0.69735 0.35001 0.13964 0.0
C2166 C 0.91336 0.45731 0.09935 0.0
C2167 C 0.909 0.45065 0.0551 0.0
C2168 C 0.91287 0.45497 0.16259 0.0
C2169 C 0.90587 0.45066 0.29514 0.0
H2170 H 0.91251 0.42274 0.34546 0.0
C2171 C 0.90316 0.43747 0.55007 0.0
C2172 C 0.91173 0.43204 0.5731 0.0
C2173 C 0.90204 0.43925 0.48651 0.0
C2174 C 0.91065 0.43057 0.33209 0.0
H2175 H 0.90032 0.43648 0.04337 0.0
H2176 H 0.89962 0.43236 0.15349 0.0
H2177 H 0.91205 0.42714 0.2353 0.0
H2178 H 0.9257 0.42399 0.54637 0.0
H2179 H 0.92365 0.42699 0.43562 0.0
H2180 H 0.90465 0.45413 0.39195 0.0
C2181 C 0.90353 0.43932 0.13904 0.0
C2182 C 0.9103 0.43306 0.26905 0.0
C2183 C 0.90396 0.44169 0.07587 0.0
C2184 C 0.91894 0.4281 0.53057 0.0
C2185 C 0.91778 0.42983 0.46694 0.0
C2186 C 0.90615 0.44814 0.35816 0.0
C2187 C 0.90805 0.44589 0.18304 0.0
C2188 C 0.90799 0.44316 0.24992 0.0
C2189 C 0.90942 0.43558 0.44435 0.0
C2190 C 0.90862 0.43809 0.37733 0.0
H2191 H 0.9174 0.46421 0.08522 0.0
H2192 H 0.91653 0.46013 0.19536 0.0
H2193 H 0.90399 0.45848 0.28179 0.0
H2194 H 0.89732 0.44043 0.58111 0.0
H2195 H 0.89541 0.44356 0.47036 0.0
C2196 C 0.81388 0.65041 0.27198 0.0
C2197 C 0.8035 0.64957 0.25373 0.0
C2198 C 0.81658 0.65013 0.33467 0.0
C2199 C 0.80721 0.6422 0.48865 0.0
H2200 H 0.82495 0.66397 0.5501 0.0
C2201 C 0.80843 0.65354 0.74524 0.0
C2202 C 0.81785 0.65653 0.77174 0.0
C2203 C 0.80769 0.65159 0.68185 0.0
C2204 C 0.82015 0.65772 0.5336 0.0
H2205 H 0.78787 0.64769 0.28739 0.0
H2206 H 0.7926 0.6471 0.39653 0.0
H2207 H 0.82184 0.6624 0.43893 0.0
H2208 H 0.83394 0.65961 0.75274 0.0
H2209 H 0.83268 0.65615 0.64149 0.0
H2210 H 0.8054 0.63759 0.58324 0.0
C2211 C 0.79864 0.64788 0.36221 0.0
C2212 C 0.81835 0.65684 0.46995 0.0
C2213 C 0.79594 0.64822 0.29962 0.0
C2214 C 0.82656 0.65743 0.73346 0.0
C2215 C 0.82583 0.65545 0.66986 0.0
C2216 C 0.80904 0.64305 0.55222 0.0
C2217 C 0.80898 0.64893 0.38038 0.0
C2218 C 0.8117 0.6492 0.44702 0.0
C2219 C 0.81636 0.65255 0.64336 0.0
C2220 C 0.81535 0.65096 0.57552 0.0
H2221 H 0.81995 0.65124 0.23802 0.0
H2222 H 0.82462 0.65084 0.34742 0.0
H2223 H 0.80218 0.63614 0.47208 0.0
H2224 H 0.80152 0.65298 0.77316 0.0
H2225 H 0.80023 0.64961 0.66276 0.0
C2226 C 0.59055 0.55622 0.57989 0.0
C2227 C 0.59918 0.55127 0.55424 0.0
C2228 C 0.59031 0.55875 0.64275 0.0
C2229 C 0.60185 0.55169 0.79253 0.0
H2230 H 0.58969 0.57742 0.84736 0.0
C2231 C 0.60099 0.5632 0.05005 0.0
C2232 C 0.59145 0.56673 0.07246 0.0
C2233 C 0.60271 0.56222 0.98644 0.0
C2234 C 0.59306 0.57019 0.83269 0.0
H2235 H 0.61442 0.5453 0.57428 0.0
H2236 H 0.61401 0.54973 0.68419 0.0
H2237 H 0.5913 0.5739 0.73654 0.0
H2238 H 0.57634 0.57225 0.04533 0.0
H2239 H 0.57936 0.57058 0.93428 0.0
H2240 H 0.6035 0.54793 0.8886 0.0
C2241 C 0.60736 0.55151 0.65574 0.0
C2242 C 0.59397 0.56816 0.76932 0.0
C2243 C 0.6076 0.54896 0.59281 0.0
C2244 C 0.58381 0.56961 0.02969 0.0
C2245 C 0.58554 0.56865 0.96602 0.0
C2246 C 0.60095 0.55373 0.85585 0.0
C2247 C 0.5987 0.55641 0.68141 0.0
C2248 C 0.59827 0.55884 0.74857 0.0
C2249 C 0.59495 0.56478 0.94381 0.0
C2250 C 0.59646 0.56295 0.87659 0.0
H2251 H 0.58389 0.55795 0.55158 0.0
H2252 H 0.58344 0.56235 0.66132 0.0
H2253 H 0.60505 0.54438 0.77806 0.0
H2254 H 0.60713 0.56112 0.08166 0.0
H2255 H 0.61011 0.55939 0.97061 0.0
C2256 C 0.29763 0.34764 0.81531 0.0
C2257 C 0.30532 0.34819 0.7697 0.0
C2258 C 0.30023 0.34779 0.8781 0.0
C2259 C 0.307 0.35333 0.00763 0.0
H2260 H 0.33098 0.338 0.06199 0.0
C2261 C 0.31831 0.3515 0.26554 0.0
C2262 C 0.32137 0.34182 0.28793 0.0
C2263 C 0.31742 0.35325 0.20184 0.0
C2264 C 0.32423 0.34227 0.04763 0.0
H2265 H 0.32173 0.34968 0.75385 0.0
H2266 H 0.32629 0.35014 0.86361 0.0
H2267 H 0.32704 0.33908 0.95185 0.0
H2268 H 0.326 0.32641 0.26136 0.0
H2269 H 0.32426 0.32936 0.1504 0.0
H2270 H 0.30388 0.35606 0.10348 0.0
C2271 C 0.31826 0.34933 0.85093 0.0
C2272 C 0.32204 0.34302 0.98435 0.0
C2273 C 0.31566 0.34907 0.78806 0.0
C2274 C 0.32376 0.33399 0.24539 0.0
C2275 C 0.32278 0.3357 0.18175 0.0
C2276 C 0.30914 0.35251 0.07089 0.0
C2277 C 0.31058 0.34862 0.89673 0.0
C2278 C 0.31332 0.34844 0.96364 0.0
C2279 C 0.31948 0.34532 0.15919 0.0
C2280 C 0.3177 0.34686 0.09173 0.0
H2281 H 0.28962 0.34683 0.80235 0.0
H2282 H 0.29412 0.34702 0.912 0.0
H2283 H 0.30032 0.35771 0.99327 0.0
H2284 H 0.31658 0.35772 0.29734 0.0
H2285 H 0.31506 0.36081 0.18605 0.0
C2286 C 0.4026 0.54762 0.60021 0.0
C2287 C 0.40447 0.55506 0.55422 0.0
C2288 C 0.40233 0.55039 0.66268 0.0
C2289 C 0.41211 0.56967 0.77074 0.0
H2290 H 0.3918 0.55794 0.88215 0.0
C2291 C 0.41243 0.57798 0.03398 0.0
C2292 C 0.41107 0.56931 0.07211 0.0
C2293 C 0.41051 0.57736 0.97029 0.0
C2294 C 0.39755 0.56124 0.85164 0.0
H2295 H 0.40723 0.57135 0.53811 0.0
H2296 H 0.40692 0.57613 0.64734 0.0
H2297 H 0.39051 0.55472 0.77093 0.0
H2298 H 0.40672 0.55317 0.07318 0.0
H2299 H 0.40342 0.55208 0.96264 0.0
H2300 H 0.41935 0.57593 0.85152 0.0
C2301 C 0.40575 0.56813 0.63479 0.0
C2302 C 0.3968 0.5594 0.78805 0.0
C2303 C 0.40597 0.56537 0.57221 0.0
C2304 C 0.40764 0.56005 0.0454 0.0
C2305 C 0.40574 0.55943 0.98193 0.0
C2306 C 0.41289 0.57148 0.83442 0.0
C2307 C 0.40396 0.56066 0.68061 0.0
C2308 C 0.40418 0.56344 0.74715 0.0
C2309 C 0.4072 0.56805 0.94358 0.0
C2310 C 0.40573 0.5671 0.87564 0.0
H2311 H 0.40157 0.5396 0.58811 0.0
H2312 H 0.4011 0.54444 0.69712 0.0
H2313 H 0.41796 0.5728 0.74028 0.0
H2314 H 0.41495 0.58524 0.05341 0.0
H2315 H 0.4116 0.58417 0.94198 0.0
C2316 C 0.19198 0.66032 0.80651 0.0
C2317 C 0.18333 0.66513 0.83289 0.0
C2318 C 0.19242 0.65841 0.74303 0.0
C2319 C 0.18203 0.66749 0.59499 0.0
H2320 H 0.19496 0.64266 0.53207 0.0
C2321 C 0.18698 0.65967 0.33314 0.0
C2322 C 0.19684 0.65635 0.31486 0.0
C2323 C 0.18428 0.65996 0.39577 0.0
C2324 C 0.19136 0.64964 0.54903 0.0
H2325 H 0.16826 0.67152 0.81334 0.0
H2326 H 0.16901 0.66817 0.70173 0.0
H2327 H 0.1918 0.64444 0.64311 0.0
H2328 H 0.21154 0.65068 0.34808 0.0
H2329 H 0.20681 0.65114 0.45747 0.0
H2330 H 0.18174 0.67275 0.50091 0.0
C2331 C 0.1755 0.66597 0.73047 0.0
C2332 C 0.18955 0.65067 0.61251 0.0
C2333 C 0.17506 0.6679 0.79425 0.0
C2334 C 0.20386 0.65316 0.36058 0.0
C2335 C 0.20114 0.65342 0.4232 0.0
C2336 C 0.18381 0.66645 0.53142 0.0
C2337 C 0.18421 0.66125 0.70421 0.0
C2338 C 0.18506 0.65969 0.63631 0.0
C2339 C 0.19135 0.65689 0.44142 0.0
C2340 C 0.18867 0.6576 0.50801 0.0
H2341 H 0.19857 0.6583 0.83455 0.0
H2342 H 0.19934 0.65498 0.72413 0.0
H2343 H 0.17866 0.67459 0.61196 0.0
H2344 H 0.18129 0.66195 0.29921 0.0
H2345 H 0.17663 0.66253 0.40848 0.0
C2346 C 0.09952 0.43795 0.01953 0.0
C2347 C 0.1009 0.44827 0.00143 0.0
C2348 C 0.09973 0.43521 0.08216 0.0
C2349 C 0.10834 0.44413 0.23581 0.0
H2350 H 0.08582 0.42745 0.29813 0.0
C2351 C 0.09704 0.44358 0.49241 0.0
C2352 C 0.09369 0.4343 0.51917 0.0
C2353 C 0.09902 0.44418 0.42901 0.0
C2354 C 0.09227 0.43195 0.28137 0.0
H2355 H 0.10363 0.46377 0.03514 0.0
H2356 H 0.10407 0.45898 0.14423 0.0
H2357 H 0.0874 0.4305 0.18692 0.0
H2358 H 0.09001 0.41832 0.50066 0.0
H2359 H 0.09349 0.41936 0.38938 0.0
H2360 H 0.11314 0.44572 0.33022 0.0
C2361 C 0.10294 0.453 0.10986 0.0
C2362 C 0.09316 0.4337 0.2177 0.0
C2363 C 0.10268 0.45575 0.04734 0.0
C2364 C 0.09246 0.42559 0.48118 0.0
C2365 C 0.09447 0.42619 0.41757 0.0
C2366 C 0.10748 0.44234 0.2994 0.0
C2367 C 0.10138 0.44273 0.12791 0.0
C2368 C 0.10108 0.43999 0.19449 0.0
C2369 C 0.09772 0.43552 0.39082 0.0
C2370 C 0.09931 0.43642 0.32297 0.0
H2371 H 0.09834 0.43195 0.98549 0.0
H2372 H 0.09862 0.42722 0.09481 0.0
H2373 H 0.11462 0.44886 0.219 0.0
H2374 H 0.09787 0.45048 0.5201 0.0
H2375 H 0.10129 0.45154 0.40967 0.0
C2376 C 0.30022 0.64515 0.20714 0.0
C2377 C 0.3006 0.65386 0.24586 0.0
C2378 C 0.30217 0.64606 0.14362 0.0
C2379 C 0.31553 0.66269 0.03188 0.0
H2380 H 0.29887 0.64857 0.90918 0.0
C2381 C 0.31874 0.67104 0.76997 0.0
C2382 C 0.31771 0.66274 0.72864 0.0
C2383 C 0.31706 0.66966 0.83339 0.0
C2384 C 0.30369 0.65244 0.94292 0.0
H2385 H 0.30283 0.67041 0.24758 0.0
H2386 H 0.30629 0.67197 0.13693 0.0
H2387 H 0.29473 0.64678 0.01906 0.0
H2388 H 0.31459 0.64638 0.72181 0.0
H2389 H 0.31174 0.64393 0.83261 0.0
H2390 H 0.32451 0.66832 0.95599 0.0
C2391 C 0.30467 0.66442 0.15594 0.0
C2392 C 0.30129 0.65144 0.0058 0.0
C2393 C 0.30269 0.66352 0.21931 0.0
C2394 C 0.31527 0.65296 0.75235 0.0
C2395 C 0.31362 0.65156 0.8158 0.0
C2396 C 0.31795 0.66366 0.96907 0.0
C2397 C 0.30456 0.65568 0.11758 0.0
C2398 C 0.30715 0.65661 0.05087 0.0
C2399 C 0.31436 0.65993 0.85693 0.0
C2400 C 0.31202 0.65859 0.92384 0.0
H2401 H 0.29875 0.63757 0.22608 0.0
H2402 H 0.30211 0.63917 0.11522 0.0
H2403 H 0.32029 0.66662 0.06569 0.0
H2404 H 0.32046 0.6787 0.75312 0.0
H2405 H 0.31756 0.67629 0.8637 0.0
C2406 C 0.09681 0.54733 0.88407 0.0
C2407 C 0.0944 0.55462 0.92993 0.0
C2408 C 0.09687 0.55009 0.82156 0.0
C2409 C 0.08594 0.56874 0.71308 0.0
H2410 H 0.1072 0.5585 0.60283 0.0
C2411 C 0.08582 0.5775 0.45036 0.0
C2412 C 0.08771 0.56896 0.41199 0.0
C2413 C 0.08763 0.5769 0.51418 0.0
C2414 C 0.10119 0.56138 0.63304 0.0
H2415 H 0.09043 0.57066 0.94589 0.0
H2416 H 0.09039 0.57542 0.83665 0.0
H2417 H 0.10846 0.5552 0.71399 0.0
H2418 H 0.09289 0.55306 0.41067 0.0
H2419 H 0.096 0.55201 0.52135 0.0
H2420 H 0.07851 0.57467 0.632 0.0
C2421 C 0.09213 0.56754 0.84926 0.0
C2422 C 0.10191 0.5595 0.69657 0.0
C2423 C 0.09211 0.56478 0.91184 0.0
C2424 C 0.09155 0.55986 0.4386 0.0
C2425 C 0.09335 0.55925 0.50217 0.0
C2426 C 0.0852 0.5706 0.64946 0.0
C2427 C 0.0945 0.56021 0.80355 0.0
C2428 C 0.0942 0.56299 0.73704 0.0
C2429 C 0.09135 0.56773 0.54072 0.0
C2430 C 0.09271 0.56676 0.60867 0.0
H2431 H 0.09846 0.53942 0.89639 0.0
H2432 H 0.09855 0.54424 0.7872 0.0
H2433 H 0.07983 0.57145 0.74319 0.0
H2434 H 0.08297 0.58465 0.43104 0.0
H2435 H 0.08611 0.58359 0.54273 0.0
C2436 C 0.17743 0.33323 0.24622 0.0
C2437 C 0.17972 0.3411 0.20375 0.0
C2438 C 0.17839 0.33493 0.30988 0.0
C2439 C 0.17687 0.34145 0.44404 0.0
H2440 H 0.20058 0.35719 0.4985 0.0
C2441 C 0.18536 0.34828 0.70361 0.0
C2442 C 0.19571 0.34755 0.72196 0.0
C2443 C 0.18275 0.34852 0.64075 0.0
C2444 C 0.19395 0.35272 0.48411 0.0
H2445 H 0.18432 0.35705 0.19445 0.0
H2446 H 0.18581 0.36014 0.30577 0.0
H2447 H 0.19704 0.35551 0.38828 0.0
H2448 H 0.21143 0.34642 0.68934 0.0
H2449 H 0.20692 0.34657 0.57967 0.0
H2450 H 0.17411 0.33819 0.53978 0.0
C2451 C 0.18353 0.35256 0.28993 0.0
C2452 C 0.19183 0.35189 0.42084 0.0
C2453 C 0.18267 0.35081 0.22621 0.0
C2454 C 0.2034 0.34711 0.67637 0.0
C2455 C 0.2008 0.34724 0.61358 0.0
C2456 C 0.17905 0.3422 0.50731 0.0
C2457 C 0.18157 0.34459 0.33251 0.0
C2458 C 0.18333 0.34613 0.39997 0.0
C2459 C 0.19044 0.34793 0.59496 0.0
C2460 C 0.1877 0.34773 0.52805 0.0
H2461 H 0.17527 0.32563 0.23019 0.0
H2462 H 0.17699 0.32856 0.34117 0.0
H2463 H 0.17017 0.33708 0.42964 0.0
H2464 H 0.17928 0.34881 0.73783 0.0
H2465 H 0.17471 0.34922 0.62808 0.0
C2466 C 0.39998 0.4366 0.98951 0.0
C2467 C 0.40923 0.43236 0.96722 0.0
C2468 C 0.39827 0.43761 0.05313 0.0
C2469 C 0.40714 0.42866 0.20677 0.0
H2470 H 0.39736 0.45534 0.2624 0.0
C2471 C 0.41113 0.44236 0.45958 0.0
C2472 C 0.40303 0.4481 0.48545 0.0
C2473 C 0.41103 0.43973 0.39683 0.0
C2474 C 0.39994 0.44779 0.24767 0.0
H2475 H 0.42382 0.42562 0.99462 0.0
H2476 H 0.42082 0.42733 0.10558 0.0
H2477 H 0.39856 0.45176 0.15176 0.0
H2478 H 0.38832 0.45534 0.46609 0.0
H2479 H 0.38813 0.45074 0.35645 0.0
H2480 H 0.40864 0.42474 0.30278 0.0
C2481 C 0.41485 0.42979 0.07375 0.0
C2482 C 0.40063 0.44574 0.18426 0.0
C2483 C 0.41657 0.42881 0.0101 0.0
C2484 C 0.39476 0.45106 0.44734 0.0
C2485 C 0.39464 0.44841 0.38456 0.0
C2486 C 0.40643 0.4307 0.27023 0.0
C2487 C 0.40576 0.43436 0.09588 0.0
C2488 C 0.40435 0.4362 0.16316 0.0
C2489 C 0.40281 0.44277 0.35855 0.0
C2490 C 0.40294 0.44033 0.29134 0.0
H2491 H 0.39407 0.43922 0.95781 0.0
H2492 H 0.39111 0.441 0.0689 0.0
H2493 H 0.40991 0.4212 0.19181 0.0
H2494 H 0.41766 0.44009 0.48758 0.0
H2495 H 0.41752 0.43553 0.37799 0.0
C2496 C 0.28226 0.14902 0.37329 0.0
C2497 C 0.27959 0.15581 0.42155 0.0
C2498 C 0.27511 0.14655 0.32691 0.0
C2499 C 0.24706 0.14748 0.2914 0.0
H2500 H 0.256 0.14733 0.11972 0.0
C2501 C 0.21922 0.154 0.08922 0.0
C2502 C 0.21998 0.14763 0.03669 0.0
C2503 C 0.2266 0.15356 0.1361 0.0
C2504 C 0.25342 0.1472 0.1675 0.0
H2505 H 0.26728 0.16522 0.45913 0.0
H2506 H 0.25495 0.16104 0.37841 0.0
H2507 H 0.26874 0.14913 0.2026 0.0
H2508 H 0.22917 0.13582 0.9921 0.0
H2509 H 0.24227 0.13518 0.07418 0.0
H2510 H 0.23173 0.14593 0.2562 0.0
C2511 C 0.26248 0.15747 0.37667 0.0
C2512 C 0.26071 0.14821 0.21503 0.0
C2513 C 0.26959 0.15993 0.42289 0.0
C2514 C 0.22836 0.14082 0.03203 0.0
C2515 C 0.23587 0.14047 0.07881 0.0
C2516 C 0.2398 0.14655 0.24399 0.0
C2517 C 0.26514 0.15079 0.32789 0.0
C2518 C 0.25759 0.1486 0.27754 0.0
C2519 C 0.23501 0.14681 0.13149 0.0
C2520 C 0.24287 0.14661 0.18151 0.0
H2521 H 0.28989 0.14568 0.37094 0.0
H2522 H 0.2774 0.1413 0.29037 0.0
H2523 H 0.2444 0.14749 0.33901 0.0
H2524 H 0.21286 0.15931 0.09462 0.0
H2525 H 0.2258 0.15863 0.17572 0.0
C2526 C 0.09184 0.01489 0.7175 0.0
C2527 C 0.09673 0.02449 0.72351 0.0
C2528 C 0.09348 0.00878 0.6651 0.0
C2529 C 0.10099 0.99514 0.56079 0.0
H2530 H 0.10148 0.00929 0.40244 0.0
C2531 C 0.10232 0.97259 0.33011 0.0
C2532 C 0.09565 0.97611 0.2833 0.0
C2533 C 0.10426 0.97862 0.38262 0.0
C2534 C 0.10132 0.0052 0.44624 0.0
H2535 H 0.10764 0.03494 0.68051 0.0
H2536 H 0.11061 0.02422 0.58939 0.0
H2537 H 0.1014 0.01925 0.49803 0.0
H2538 H 0.08608 0.98893 0.25404 0.0
H2539 H 0.08933 0.99935 0.34552 0.0
H2540 H 0.10034 0.98111 0.509 0.0
C2541 C 0.10532 0.02151 0.62463 0.0
C2542 C 0.10142 0.01092 0.5012 0.0
C2543 C 0.10365 0.02764 0.67705 0.0
C2544 C 0.09128 0.98597 0.28907 0.0
C2545 C 0.0932 0.99199 0.34156 0.0
C2546 C 0.10082 0.98942 0.50584 0.0
C2547 C 0.1001 0.01208 0.61745 0.0
C2548 C 0.10107 0.00597 0.55921 0.0
C2549 C 0.09957 0.98833 0.38953 0.0
C2550 C 0.1008 0.99438 0.44782 0.0
H2551 H 0.08643 0.01223 0.75225 0.0
H2552 H 0.08921 0.00165 0.66092 0.0
H2553 H 0.10087 0.99105 0.6046 0.0
H2554 H 0.1059 0.96508 0.32686 0.0
H2555 H 0.10934 0.97563 0.41811 0.0
C2556 C 0.26848 0.84581 0.54755 0.0
C2557 C 0.27919 0.84659 0.55591 0.0
C2558 C 0.26175 0.84757 0.59717 0.0
C2559 C 0.26099 0.84572 0.76581 0.0
H2560 H 0.23571 0.86147 0.75335 0.0
C2561 C 0.23435 0.84983 0.97676 0.0
C2562 C 0.22372 0.84908 0.96586 0.0
C2563 C 0.24121 0.85113 0.92742 0.0
C2564 C 0.24269 0.85695 0.75749 0.0
H2565 H 0.29116 0.85026 0.62263 0.0
H2566 H 0.27947 0.85315 0.70895 0.0
H2567 H 0.2474 0.86062 0.66465 0.0
H2568 H 0.21192 0.84933 0.89473 0.0
H2569 H 0.22383 0.85127 0.80862 0.0
H2570 H 0.25621 0.84165 0.85724 0.0
C2571 C 0.27629 0.85113 0.6641 0.0
C2572 C 0.24939 0.85651 0.7067 0.0
C2573 C 0.28299 0.84949 0.61445 0.0
C2574 C 0.22005 0.85 0.90478 0.0
C2575 C 0.22692 0.85114 0.85529 0.0
C2576 C 0.25426 0.84605 0.81621 0.0
C2577 C 0.26561 0.85003 0.65625 0.0
C2578 C 0.2586 0.85087 0.71037 0.0
C2579 C 0.23761 0.85151 0.86582 0.0
C2580 C 0.24499 0.85165 0.81279 0.0
H2581 H 0.26528 0.84364 0.50302 0.0
H2582 H 0.25355 0.84662 0.58986 0.0
H2583 H 0.26796 0.84117 0.76965 0.0
H2584 H 0.23739 0.84924 0.02343 0.0
H2585 H 0.24935 0.85165 0.93761 0.0
C2586 C 0.39857 0.96906 0.12671 0.0
C2587 C 0.40512 0.97185 0.17586 0.0
C2588 C 0.39688 0.97582 0.07717 0.0
C2589 C 0.40075 0.98823 0.96014 0.0
H2590 H 0.40097 0.01785 0.9829 0.0
C2591 C 0.41102 0.01613 0.76251 0.0
C2592 C 0.40646 0.02593 0.76076 0.0
C2593 C 0.40908 0.00942 0.81179 0.0
C2594 C 0.40072 0.0096 0.97553 0.0
H2595 H 0.41479 0.98407 0.21228 0.0
H2596 H 0.41203 0.99571 0.12581 0.0
H2597 H 0.40031 0.00662 0.07307 0.0
H2598 H 0.39591 0.03622 0.80823 0.0
H2599 H 0.39237 0.02444 0.89372 0.0
H2600 H 0.40101 0.99122 0.86259 0.0
C2601 C 0.40802 0.9884 0.12575 0.0
C2602 C 0.40049 0.00314 0.0274 0.0
C2603 C 0.40967 0.98167 0.17533 0.0
C2604 C 0.39962 0.02875 0.80838 0.0
C2605 C 0.39763 0.02201 0.85761 0.0
C2606 C 0.40089 0.99469 0.90826 0.0
C2607 C 0.40172 0.98551 0.07556 0.0
C2608 C 0.40075 0.99237 0.02044 0.0
C2609 C 0.40247 0.01232 0.86044 0.0
C2610 C 0.40112 0.00546 0.91528 0.0
H2611 H 0.39488 0.96158 0.12588 0.0
H2612 H 0.39185 0.9734 0.03983 0.0
H2613 H 0.40103 0.97998 0.95283 0.0
H2614 H 0.41637 0.01372 0.72677 0.0
H2615 H 0.41309 0.00211 0.81275 0.0
C2616 C 0.78372 0.84564 0.90102 0.0
C2617 C 0.78033 0.84409 0.96209 0.0
C2618 C 0.77667 0.84744 0.85324 0.0
C2619 C 0.74888 0.84391 0.81657 0.0
H2620 H 0.75611 0.85942 0.66908 0.0
C2621 C 0.72013 0.85065 0.61677 0.0
C2622 C 0.72368 0.8473 0.55855 0.0
C2623 C 0.72694 0.85174 0.66655 0.0
C2624 C 0.754 0.85508 0.71009 0.0
H2625 H 0.76693 0.84373 0.02183 0.0
H2626 H 0.75462 0.84738 0.93932 0.0
H2627 H 0.76802 0.85893 0.75673 0.0
H2628 H 0.7373 0.84309 0.50604 0.0
H2629 H 0.74924 0.84526 0.59281 0.0
H2630 H 0.73478 0.84023 0.76993 0.0
C2631 C 0.76271 0.84681 0.92748 0.0
C2632 C 0.76084 0.85473 0.76025 0.0
C2633 C 0.76976 0.8448 0.97501 0.0
C2634 C 0.7343 0.84563 0.55035 0.0
C2635 C 0.74114 0.8469 0.59991 0.0
C2636 C 0.74198 0.84443 0.76692 0.0
C2637 C 0.76603 0.84792 0.86561 0.0
C2638 C 0.75845 0.84901 0.8139 0.0
C2639 C 0.73748 0.84973 0.65883 0.0
C2640 C 0.74453 0.84989 0.7129 0.0
H2641 H 0.7918 0.845 0.88966 0.0
H2642 H 0.77958 0.84806 0.80633 0.0
H2643 H 0.7468 0.83924 0.85619 0.0
H2644 H 0.71205 0.85211 0.62458 0.0
H2645 H 0.72394 0.85402 0.71139 0.0
C2646 C 0.90112 0.03116 0.64643 0.0
C2647 C 0.90823 0.02883 0.69368 0.0
C2648 C 0.89974 0.02442 0.59639 0.0
C2649 C 0.9141 0.00581 0.50613 0.0
H2650 H 0.88776 0.99629 0.44336 0.0
C2651 C 0.91057 0.98556 0.27102 0.0
C2652 C 0.90582 0.97583 0.27261 0.0
C2653 C 0.90978 0.99226 0.32141 0.0
C2654 C 0.89515 0.99891 0.46054 0.0
H2655 H 0.9192 0.01743 0.72636 0.0
H2656 H 0.91688 0.0058 0.63878 0.0
H2657 H 0.88836 0.00737 0.53586 0.0
H2658 H 0.89604 0.96575 0.32714 0.0
H2659 H 0.89455 0.97759 0.41513 0.0
H2660 H 0.92092 0.99751 0.43087 0.0
C2661 C 0.91238 0.01283 0.64055 0.0
C2662 C 0.89549 0.00526 0.51308 0.0
C2663 C 0.91367 0.01948 0.69081 0.0
C2664 C 0.89982 0.97317 0.32453 0.0
C2665 C 0.89892 0.97995 0.37478 0.0
C2666 C 0.91375 0.99964 0.45324 0.0
C2667 C 0.90554 0.01531 0.5924 0.0
C2668 C 0.90499 0.0087 0.53653 0.0
C2669 C 0.90412 0.98944 0.37422 0.0
C2670 C 0.90429 0.9961 0.42998 0.0
H2671 H 0.8968 0.03829 0.64734 0.0
H2672 H 0.89445 0.02652 0.55965 0.0
H2673 H 0.92152 0.00843 0.52297 0.0
H2674 H 0.91524 0.98788 0.2318 0.0
H2675 H 0.91377 0.99958 0.31962 0.0
C2676 C 0.72484 0.14267 0.43828 0.0
C2677 C 0.71625 0.14899 0.42708 0.0
C2678 C 0.73294 0.14223 0.39539 0.0
C2679 C 0.73889 0.14681 0.23085 0.0
H2680 H 0.76698 0.15116 0.28608 0.0
C2681 C 0.77075 0.15922 0.06272 0.0
C2682 C 0.78083 0.15556 0.07144 0.0
C2683 C 0.76306 0.15706 0.106 0.0
C2684 C 0.75921 0.14974 0.26989 0.0
H2685 H 0.70934 0.15967 0.36167 0.0
H2686 H 0.72335 0.15881 0.28704 0.0
H2687 H 0.75316 0.14971 0.36248 0.0
H2688 H 0.79069 0.1466 0.13219 0.0
H2689 H 0.77719 0.14269 0.20749 0.0
H2690 H 0.74485 0.14687 0.13845 0.0
C2691 C 0.72385 0.1542 0.32885 0.0
C2692 C 0.7513 0.14893 0.3137 0.0
C2693 C 0.71586 0.15475 0.37191 0.0
C2694 C 0.78301 0.14955 0.12412 0.0
C2695 C 0.77528 0.14736 0.16747 0.0
C2696 C 0.74679 0.14753 0.18715 0.0
C2697 C 0.73249 0.14797 0.34014 0.0
C2698 C 0.74103 0.1477 0.29449 0.0
C2699 C 0.76522 0.15114 0.15905 0.0
C2700 C 0.75702 0.14926 0.20599 0.0
H2701 H 0.72536 0.13814 0.48039 0.0
H2702 H 0.7395 0.13733 0.4051 0.0
H2703 H 0.73107 0.14568 0.21478 0.0
H2704 H 0.76881 0.16392 0.02289 0.0
H2705 H 0.75547 0.16028 0.0985 0.0
C2706 C 0.60208 0.03054 0.86674 0.0
C2707 C 0.59511 0.02785 0.81949 0.0
C2708 C 0.60395 0.02382 0.91616 0.0
C2709 C 0.59999 0.99669 0.9689 0.0
H2710 H 0.60106 0.00898 0.13263 0.0
C2711 C 0.59073 0.98466 0.23663 0.0
C2712 C 0.59499 0.97472 0.2386 0.0
C2713 C 0.59265 0.99118 0.18649 0.0
C2714 C 0.60075 0.00541 0.08727 0.0
H2715 H 0.58487 0.01586 0.78633 0.0
H2716 H 0.58795 0.00426 0.8728 0.0
H2717 H 0.60065 0.02001 0.04157 0.0
H2718 H 0.60504 0.96402 0.19062 0.0
H2719 H 0.60853 0.97548 0.10328 0.0
H2720 H 0.59948 0.98209 0.01484 0.0
C2721 C 0.59213 0.01147 0.87134 0.0
C2722 C 0.60066 0.01175 0.03486 0.0
C2723 C 0.59031 0.01817 0.8218 0.0
C2724 C 0.60156 0.97159 0.1903 0.0
C2725 C 0.60352 0.97815 0.14007 0.0
C2726 C 0.60001 0.99035 0.02136 0.0
C2727 C 0.59887 0.01426 0.91966 0.0
C2728 C 0.60007 0.00748 0.97499 0.0
C2729 C 0.59895 0.98797 0.13705 0.0
C2730 C 0.60017 0.99464 0.08128 0.0
H2731 H 0.60598 0.03791 0.86612 0.0
H2732 H 0.60932 0.02616 0.95194 0.0
H2733 H 0.59972 0.99311 0.92353 0.0
H2734 H 0.58561 0.98733 0.2729 0.0
H2735 H 0.58886 0.99861 0.18547 0.0
C2736 C 0.78068 0.64775 0.87156 0.0
C2737 C 0.77814 0.65457 0.91985 0.0
C2738 C 0.77391 0.64624 0.82186 0.0
C2739 C 0.74686 0.65094 0.77023 0.0
H2740 H 0.75904 0.65053 0.60606 0.0
C2741 C 0.73469 0.66136 0.50396 0.0
C2742 C 0.72474 0.65713 0.50176 0.0
C2743 C 0.74123 0.65927 0.55377 0.0
C2744 C 0.7555 0.65067 0.65155 0.0
H2745 H 0.76637 0.66492 0.95462 0.0
H2746 H 0.7547 0.66246 0.86783 0.0
H2747 H 0.77013 0.65032 0.69695 0.0
H2748 H 0.71403 0.64698 0.54902 0.0
H2749 H 0.72553 0.64319 0.63562 0.0
H2750 H 0.73225 0.65187 0.72479 0.0
C2751 C 0.76182 0.65812 0.86859 0.0
C2752 C 0.76187 0.6504 0.7038 0.0
C2753 C 0.76856 0.65959 0.91833 0.0
C2754 C 0.72162 0.65044 0.54951 0.0
C2755 C 0.72819 0.64831 0.59934 0.0
C2756 C 0.74049 0.65127 0.71796 0.0
C2757 C 0.76447 0.65154 0.81923 0.0
C2758 C 0.75765 0.65073 0.76385 0.0
C2759 C 0.73803 0.65283 0.60257 0.0
C2760 C 0.74474 0.65135 0.65793 0.0
H2761 H 0.78797 0.6437 0.87152 0.0
H2762 H 0.77613 0.64099 0.78518 0.0
H2763 H 0.74333 0.65103 0.81572 0.0
H2764 H 0.73734 0.66657 0.46812 0.0
H2765 H 0.74868 0.66302 0.55502 0.0
C2766 C 0.59041 0.48197 0.80971 0.0
C2767 C 0.59513 0.47224 0.80695 0.0
C2768 C 0.59249 0.48869 0.85866 0.0
C2769 C 0.60096 0.50356 0.95346 0.0
H2770 H 0.60263 0.49167 0.11808 0.0
C2771 C 0.60366 0.52932 0.1711 0.0
C2772 C 0.59738 0.52638 0.2212 0.0
C2773 C 0.60535 0.52257 0.12152 0.0
C2774 C 0.60215 0.49513 0.07247 0.0
H2775 H 0.60609 0.46213 0.85229 0.0
H2776 H 0.60989 0.47395 0.93721 0.0
H2777 H 0.60172 0.48041 0.0281 0.0
H2778 H 0.58823 0.51392 0.25935 0.0
H2779 H 0.59096 0.5023 0.17283 0.0
H2780 H 0.60076 0.51827 -0.00201 0.0
C2781 C 0.6044 0.4763 0.90214 0.0
C2782 C 0.60177 0.48866 0.02067 0.0
C2783 C 0.60226 0.46953 0.85325 0.0
C2784 C 0.59313 0.51643 0.22163 0.0
C2785 C 0.59476 0.50972 0.17201 0.0
C2786 C 0.60125 0.51003 0.00528 0.0
C2787 C 0.59942 0.48591 0.90597 0.0
C2788 C 0.60096 0.49279 0.96053 0.0
C2789 C 0.60076 0.51274 0.12081 0.0
C2790 C 0.60164 0.50589 0.06556 0.0
H2791 H 0.58484 0.48429 0.77501 0.0
H2792 H 0.58837 0.49594 0.86045 0.0
H2793 H 0.60053 0.50703 0.90783 0.0
H2794 H 0.60712 0.5369 0.16955 0.0
H2795 H 0.61015 0.5251 0.08341 0.0
C2796 C 0.71665 0.34999 0.3422 0.0
C2797 C 0.71994 0.34575 0.39886 0.0
C2798 C 0.72362 0.35153 0.2937 0.0
C2799 C 0.75105 0.35434 0.25556 0.0
H2800 H 0.74347 0.34194 0.09844 0.0
C2801 C 0.78083 0.34629 0.06299 0.0
C2802 C 0.77763 0.34637 0.00081 0.0
C2803 C 0.77372 0.34773 0.11086 0.0
C2804 C 0.74566 0.34566 0.14139 0.0
H2805 H 0.73326 0.34031 0.45004 0.0
H2806 H 0.74546 0.34318 0.36559 0.0
H2807 H 0.73121 0.34198 0.18366 0.0
H2808 H 0.76458 0.34848 0.9396 0.0
H2809 H 0.75219 0.35142 0.02282 0.0
H2810 H 0.76548 0.35812 0.21343 0.0
C2811 C 0.73746 0.34523 0.35868 0.0
C2812 C 0.73863 0.34563 0.19038 0.0
C2813 C 0.73045 0.34354 0.4069 0.0
C2814 C 0.76724 0.34831 0.98722 0.0
C2815 C 0.76014 0.34992 0.03503 0.0
C2816 C 0.75805 0.35451 0.20626 0.0
C2817 C 0.73407 0.34904 0.3012 0.0
C2818 C 0.7413 0.34983 0.24819 0.0
C2819 C 0.76324 0.34942 0.0976 0.0
C2820 C 0.75552 0.35003 0.14873 0.0
H2821 H 0.70864 0.35187 0.33456 0.0
H2822 H 0.72081 0.35458 0.25004 0.0
H2823 H 0.75326 0.35772 0.29953 0.0
H2824 H 0.78875 0.34462 0.07482 0.0
H2825 H 0.77641 0.3471 0.15825 0.0
C2826 C 0.89197 0.47676 0.7259 0.0
C2827 C 0.89908 0.46866 0.71941 0.0
C2828 C 0.89109 0.48431 0.67971 0.0
C2829 C 0.89607 0.48878 0.51391 0.0
H2830 H 0.89844 0.51767 0.55715 0.0
C2831 C 0.90813 0.51914 0.33525 0.0
C2832 C 0.90399 0.52912 0.33855 0.0
C2833 C 0.90594 0.51187 0.38109 0.0
C2834 C 0.89756 0.50966 0.54423 0.0
H2835 H 0.91074 0.4621 0.65885 0.0
H2836 H 0.90908 0.47511 0.57868 0.0
H2837 H 0.89731 0.50473 0.63927 0.0
H2838 H 0.89408 0.53921 0.3921 0.0
H2839 H 0.89013 0.52645 0.47189 0.0
H2840 H 0.89639 0.4936 0.41914 0.0
C2841 C 0.9042 0.47565 0.61931 0.0
C2842 C 0.89693 0.50225 0.59134 0.0
C2843 C 0.90519 0.46822 0.66562 0.0
C2844 C 0.89743 0.5316 0.38828 0.0
C2845 C 0.89521 0.5243 0.4342 0.0
C2846 C 0.89661 0.49616 0.46693 0.0
C2847 C 0.89716 0.48378 0.62581 0.0
C2848 C 0.89645 0.49173 0.57656 0.0
C2849 C 0.8995 0.51436 0.43136 0.0
C2850 C 0.89765 0.50667 0.48143 0.0
H2851 H 0.88717 0.47731 0.76685 0.0
H2852 H 0.88559 0.49051 0.68578 0.0
H2853 H 0.89553 0.48072 0.50122 0.0
H2854 H 0.91326 0.51696 0.29783 0.0
H2855 H 0.90955 0.50437 0.37788 0.0
C2856 C 0.27044 0.33975 0.44152 0.0
C2857 C 0.2802 0.3444 0.43894 0.0
C2858 C 0.26311 0.3417 0.39565 0.0
C2859 C 0.24711 0.34993 0.3072 0.0
H2860 H 0.25673 0.35004 0.13701 0.0
C2861 C 0.21863 0.35096 0.10123 0.0
C2862 C 0.22088 0.34413 0.05246 0.0
C2863 C 0.22597 0.35301 0.14715 0.0
C2864 C 0.2539 0.35 0.18428 0.0
H2865 H 0.2898 0.35503 0.38714 0.0
H2866 H 0.27691 0.35856 0.30735 0.0
H2867 H 0.26917 0.34978 0.22138 0.0
H2868 H 0.23269 0.33429 0.01297 0.0
H2869 H 0.24534 0.33767 0.0932 0.0
H2870 H 0.23184 0.34953 0.27009 0.0
C2871 C 0.275 0.35326 0.34441 0.0
C2872 C 0.26105 0.35 0.23276 0.0
C2873 C 0.28237 0.35128 0.39031 0.0
C2874 C 0.2307 0.33961 0.04976 0.0
C2875 C 0.238 0.34162 0.09565 0.0
C2876 C 0.23996 0.34986 0.25872 0.0
C2877 C 0.26532 0.34839 0.34611 0.0
C2878 C 0.25775 0.34971 0.29484 0.0
C2879 C 0.23571 0.34825 0.14534 0.0
C2880 C 0.24327 0.34965 0.19663 0.0
H2881 H 0.26851 0.33439 0.4782 0.0
H2882 H 0.25583 0.33765 0.39801 0.0
H2883 H 0.24428 0.3499 0.35447 0.0
H2884 H 0.21115 0.35461 0.10449 0.0
H2885 H 0.22399 0.35826 0.18432 0.0
C2886 C 0.41103 0.48295 0.81723 0.0
C2887 C 0.40625 0.47324 0.81753 0.0
C2888 C 0.40931 0.48994 0.86533 0.0
C2889 C 0.40127 0.49077 0.02945 0.0
H2890 H 0.40226 0.52025 0.00127 0.0
C2891 C 0.4006 0.53206 0.17357 0.0
C2892 C 0.40723 0.52933 0.22246 0.0
C2893 C 0.39859 0.52513 0.12535 0.0
C2894 C 0.40179 0.51205 0.01011 0.0
H2895 H 0.39555 0.46343 0.8674 0.0
H2896 H 0.3924 0.47573 0.95088 0.0
H2897 H 0.40172 0.50857 0.91314 0.0
H2898 H 0.41673 0.51705 0.25974 0.0
H2899 H 0.41343 0.5051 0.17554 0.0
H2900 H 0.40121 0.49426 0.12641 0.0
C2901 C 0.39765 0.47785 0.91404 0.0
C2902 C 0.40163 0.50534 0.95945 0.0
C2903 C 0.39942 0.47082 0.866 0.0
C2904 C 0.41156 0.51941 0.22296 0.0
C2905 C 0.4096 0.51251 0.17472 0.0
C2906 C 0.40135 0.49749 0.08011 0.0
C2907 C 0.40271 0.48744 0.91481 0.0
C2908 C 0.40162 0.4946 0.96844 0.0
C2909 C 0.4032 0.51531 0.12484 0.0
C2910 C 0.40186 0.50821 0.07113 0.0
H2911 H 0.41636 0.48506 0.78077 0.0
H2912 H 0.41348 0.49716 0.86472 0.0
H2913 H 0.40133 0.48256 0.03832 0.0
H2914 H 0.39708 0.53962 0.17195 0.0
H2915 H 0.3935 0.5275 0.08819 0.0
C2916 C 0.21913 0.65387 0.92402 0.0
C2917 C 0.22265 0.65602 0.98426 0.0
C2918 C 0.2261 0.65225 0.87556 0.0
C2919 C 0.25322 0.65801 0.83432 0.0
H2920 H 0.24741 0.64062 0.69229 0.0
C2921 C 0.28265 0.65249 0.63823 0.0
C2922 C 0.27892 0.65412 0.57777 0.0
C2923 C 0.27586 0.6514 0.68802 0.0
C2924 C 0.2491 0.64552 0.73164 0.0
H2925 H 0.23627 0.65741 0.04187 0.0
H2926 H 0.24842 0.65416 0.95822 0.0
H2927 H 0.23555 0.64074 0.78039 0.0
H2928 H 0.26507 0.65541 0.52198 0.0
H2929 H 0.25319 0.65341 0.60921 0.0
H2930 H 0.26679 0.66272 0.78575 0.0
C2931 C 0.24027 0.65413 0.9476 0.0
C2932 C 0.24231 0.64563 0.78208 0.0
C2933 C 0.2333 0.65591 0.99577 0.0
C2934 C 0.26821 0.65421 0.56797 0.0
C2935 C 0.2614 0.65301 0.61784 0.0
C2936 C 0.26005 0.6578 0.78436 0.0
C2937 C 0.23678 0.65258 0.88645 0.0
C2938 C 0.24424 0.65194 0.83395 0.0
C2939 C 0.26517 0.65181 0.67854 0.0
C2940 C 0.25804 0.65162 0.73232 0.0
H2941 H 0.21099 0.65389 0.91365 0.0
H2942 H 0.22309 0.65118 0.82917 0.0
H2943 H 0.25488 0.66316 0.87252 0.0
H2944 H 0.29082 0.65236 0.64768 0.0
H2945 H 0.27899 0.65037 0.73421 0.0
C2946 C 0.10103 0.53248 0.31085 0.0
C2947 C 0.09452 0.52934 0.26226 0.0
C2948 C 0.10341 0.52572 0.35939 0.0
C2949 C 0.10175 0.49804 0.4068 0.0
H2950 H 0.10102 0.50948 0.57279 0.0
C2951 C 0.09218 0.48393 0.67078 0.0
C2952 C 0.09699 0.47425 0.67093 0.0
C2953 C 0.09385 0.49086 0.62228 0.0
C2954 C 0.10121 0.50614 0.52677 0.0
H2955 H 0.08565 0.51654 0.22574 0.0
H2956 H 0.08955 0.50491 0.3105 0.0
H2957 H 0.10017 0.52094 0.48377 0.0
H2958 H 0.1077 0.4644 0.62149 0.0
H2959 H 0.11083 0.4766 0.53748 0.0
H2960 H 0.10209 0.48322 0.44974 0.0
C2961 C 0.09303 0.5125 0.31088 0.0
C2962 C 0.10088 0.51274 0.47556 0.0
C2963 C 0.09072 0.51921 0.26228 0.0
C2964 C 0.10382 0.47178 0.62256 0.0
C2965 C 0.10556 0.47876 0.57417 0.0
C2966 C 0.10196 0.49144 0.458 0.0
C2967 C 0.09928 0.51569 0.36056 0.0
C2968 C 0.10091 0.50876 0.41485 0.0
C2969 C 0.10046 0.48832 0.57287 0.0
C2970 C 0.10146 0.49539 0.51869 0.0
H2971 H 0.10415 0.54021 0.31204 0.0
H2972 H 0.10838 0.5284 0.39634 0.0
H2973 H 0.102 0.4947 0.36079 0.0
H2974 H 0.08683 0.48607 0.70714 0.0
H2975 H 0.08963 0.49805 0.62252 0.0
C2976 C 0.18001 0.12502 0.93118 0.0
C2977 C 0.17633 0.13374 0.89947 0.0
C2978 C 0.17513 0.11546 0.92391 0.0
C2979 C 0.15676 0.10121 0.82315 0.0
H2980 H 0.14786 0.08814 0.97567 0.0
C2981 C 0.12627 0.06871 0.82369 0.0
C2982 C 0.11807 0.0708 0.86433 0.0
C2983 C 0.13551 0.07425 0.82841 0.0
C2984 C 0.15037 0.09164 0.93262 0.0
H2985 H 0.165 0.13918 0.83316 0.0
H2986 H 0.15657 0.12263 0.82045 0.0
H2987 H 0.16045 0.10209 0.97971 0.0
H2988 H 0.11331 0.07989 0.94376 0.0
H2989 H 0.12931 0.08945 0.95202 0.0
H2990 H 0.14623 0.09118 0.77638 0.0
C2991 C 0.1632 0.1231 0.8508 0.0
C2992 C 0.15765 0.09956 0.93489 0.0
C2993 C 0.16798 0.13263 0.85861 0.0
C2994 C 0.11945 0.07815 0.91141 0.0
C2995 C 0.12868 0.08357 0.91658 0.0
C2996 C 0.14951 0.09326 0.82085 0.0
C2997 C 0.1666 0.11444 0.88402 0.0
C2998 C 0.16062 0.10471 0.88039 0.0
C2999 C 0.13675 0.08183 0.87448 0.0
C3000 C 0.14594 0.08866 0.8758 0.0
H3001 H 0.18645 0.12566 0.96292 0.0
H3002 H 0.17792 0.1089 0.95 0.0
H3003 H 0.159 0.10495 0.78029 0.0
H3004 H 0.12542 0.06308 0.78699 0.0
H3005 H 0.14162 0.07272 0.79545 0.0
C3006 C 0.16277 0.86592 0.06102 0.0
C3007 C 0.1735 0.86628 0.06858 0.0
C3008 C 0.15692 0.87491 0.06409 0.0
C3009 C 0.15548 0.89974 0.13664 0.0
H3010 H 0.13424 0.90462 0.0136 0.0
C3011 C 0.12303 0.93079 0.16374 0.0
C3012 C 0.11315 0.92703 0.14933 0.0
C3013 C 0.13182 0.92492 0.14969 0.0
C3014 C 0.14014 0.90338 0.04838 0.0
H3015 H 0.18656 0.87629 0.08526 0.0
H3016 H 0.17618 0.89212 0.09247 0.0
H3017 H 0.14724 0.89144 0.99498 0.0
H3018 H 0.10477 0.91411 0.10999 0.0
H3019 H 0.11989 0.90399 0.08641 0.0
H3020 H 0.14799 0.9113 0.19166 0.0
C3021 C 0.17239 0.88485 0.08329 0.0
C3022 C 0.1476 0.89588 0.03753 0.0
C3023 C 0.1783 0.87583 0.07887 0.0
C3024 C 0.11225 0.9173 0.12142 0.0
C3025 C 0.12095 0.91151 0.10732 0.0
C3026 C 0.14793 0.90723 0.1478 0.0
C3027 C 0.16164 0.88444 0.07586 0.0
C3028 C 0.15512 0.89373 0.08242 0.0
C3029 C 0.13085 0.91526 0.12058 0.0
C3030 C 0.13995 0.90884 0.10473 0.0
H3031 H 0.15886 0.85867 0.05292 0.0
H3032 H 0.14864 0.87436 0.05884 0.0
H3033 H 0.1612 0.89819 0.17206 0.0
H3034 H 0.12397 0.93827 0.18527 0.0
H3035 H 0.13936 0.928 0.16062 0.0
C3036 C 0.32167 0.87383 0.42618 0.0
C3037 C 0.32733 0.8662 0.45744 0.0
C3038 C 0.32641 0.88307 0.40863 0.0
C3039 C 0.34853 0.90006 0.43621 0.0
H3040 H 0.35012 0.90304 0.25735 0.0
C3041 C 0.38104 0.91379 0.26265 0.0
C3042 C 0.38319 0.92387 0.28202 0.0
C3043 C 0.37188 0.90898 0.28015 0.0
C3044 C 0.34958 0.90243 0.30737 0.0
H3045 H 0.34209 0.86244 0.49842 0.0
H3046 H 0.35025 0.87872 0.46981 0.0
H3047 H 0.33807 0.89062 0.30266 0.0
H3048 H 0.37741 0.937 0.33336 0.0
H3049 H 0.36144 0.92839 0.36618 0.0
H3050 H 0.36033 0.91158 0.4408 0.0
C3051 C 0.34221 0.87753 0.45824 0.0
C3052 C 0.34267 0.89538 0.33327 0.0
C3053 C 0.33757 0.86821 0.47435 0.0
C3054 C 0.37585 0.92925 0.31731 0.0
C3055 C 0.36677 0.92433 0.33628 0.0
C3056 C 0.35528 0.90727 0.41036 0.0
C3057 C 0.33678 0.88491 0.42366 0.0
C3058 C 0.34237 0.89387 0.39778 0.0
C3059 C 0.36481 0.91409 0.31866 0.0
C3060 C 0.35613 0.90824 0.34566 0.0
H3061 H 0.31378 0.8724 0.41212 0.0
H3062 H 0.32208 0.88865 0.38181 0.0
H3063 H 0.34843 0.89901 0.48607 0.0
H3064 H 0.38661 0.90949 0.23556 0.0
H3065 H 0.3706 0.90105 0.26654 0.0
C3066 C 0.37663 0.06955 0.63658 0.0
C3067 C 0.38559 0.07467 0.65622 0.0
C3068 C 0.36736 0.07501 0.62971 0.0
C3069 C 0.3539 0.0983 0.68047 0.0
H3070 H 0.34309 0.10079 0.51332 0.0
C3071 C 0.33593 0.13532 0.59505 0.0
C3072 C 0.32726 0.13524 0.55605 0.0
C3073 C 0.34081 0.12618 0.61157 0.0
C3074 C 0.34582 0.1 0.56057 0.0
H3075 H 0.39187 0.08928 0.68658 0.0
H3076 H 0.37572 0.09867 0.67669 0.0
H3077 H 0.35578 0.08737 0.53716 0.0
H3078 H 0.3169 0.12545 0.50368 0.0
H3079 H 0.32563 0.10929 0.53221 0.0
H3080 H 0.34434 0.11113 0.70363 0.0
C3081 C 0.37582 0.09052 0.66589 0.0
C3082 C 0.35308 0.09233 0.57417 0.0
C3083 C 0.38507 0.08517 0.67124 0.0
C3084 C 0.32357 0.12574 0.53379 0.0
C3085 C 0.32856 0.11652 0.55004 0.0
C3086 C 0.34663 0.10588 0.66708 0.0
C3087 C 0.36692 0.08555 0.64419 0.0
C3088 C 0.35751 0.09174 0.63357 0.0
C3089 C 0.33719 0.11667 0.58953 0.0
C3090 C 0.34289 0.10715 0.60631 0.0
H3091 H 0.37688 0.06146 0.62429 0.0
H3092 H 0.36059 0.07104 0.6127 0.0
H3093 H 0.35713 0.09792 0.72678 0.0
H3094 H 0.339 0.14247 0.61319 0.0
H3095 H 0.34757 0.12661 0.64089 0.0
C3096 C 0.82491 0.87188 0.07228 0.0
C3097 C 0.829 0.86232 0.09058 0.0
C3098 C 0.83004 0.88107 0.08745 0.0
C3099 C 0.84956 0.89128 0.19695 0.0
H3100 H 0.8556 0.91151 0.06974 0.0
C3101 C 0.88638 0.91486 0.19222 0.0
C3102 C 0.88598 0.92543 0.1789 0.0
C3103 C 0.87751 0.90885 0.18911 0.0
C3104 C 0.85378 0.90605 0.10613 0.0
H3105 H 0.84171 0.85492 0.1386 0.0
H3106 H 0.85056 0.87075 0.16429 0.0
H3107 H 0.84338 0.89758 0.04792 0.0
H3108 H 0.87601 0.93808 0.1525 0.0
H3109 H 0.86038 0.92737 0.14511 0.0
H3110 H 0.8604 0.89936 0.2538 0.0
C3111 C 0.84335 0.87124 0.13921 0.0
C3112 C 0.8468 0.89808 0.09366 0.0
C3113 C 0.8383 0.86213 0.12388 0.0
C3114 C 0.87648 0.92994 0.1634 0.0
C3115 C 0.86759 0.92384 0.15889 0.0
C3116 C 0.85655 0.89917 0.20919 0.0
C3117 C 0.83927 0.88082 0.12169 0.0
C3118 C 0.84496 0.89037 0.13815 0.0
C3119 C 0.86806 0.91322 0.17151 0.0
C3120 C 0.85902 0.9064 0.16314 0.0
H3121 H 0.81775 0.87227 0.04662 0.0
H3122 H 0.82672 0.88835 0.0732 0.0
H3123 H 0.84811 0.8856 0.23271 0.0
H3124 H 0.8936 0.9112 0.2044 0.0
H3125 H 0.87812 0.90067 0.19839 0.0
C3126 C 0.82334 0.1254 0.95164 0.0
C3127 C 0.82909 0.13272 0.98491 0.0
C3128 C 0.82788 0.11609 0.93337 0.0
C3129 C 0.84396 0.10377 0.85763 0.0
H3130 H 0.86157 0.08706 0.96267 0.0
C3131 C 0.88246 0.08616 0.7843 0.0
C3132 C 0.88486 0.07608 0.8026 0.0
C3133 C 0.87319 0.09069 0.80233 0.0
C3134 C 0.85652 0.0915 0.93287 0.0
H3135 H 0.84377 0.13584 0.02884 0.0
H3136 H 0.85156 0.11947 -0.00114 0.0
H3137 H 0.8496 0.09935 0.00985 0.0
H3138 H 0.87939 0.06266 0.85246 0.0
H3139 H 0.86322 0.07078 0.88617 0.0
H3140 H 0.85148 0.09651 0.78057 0.0
C3141 C 0.84362 0.12093 0.98634 0.0
C3142 C 0.84973 0.09856 0.95983 0.0
C3143 C 0.83918 0.13031 0.00323 0.0
C3144 C 0.87765 0.07042 0.83726 0.0
C3145 C 0.86845 0.07506 0.85673 0.0
C3146 C 0.85089 0.09685 0.83066 0.0
C3147 C 0.83813 0.11388 0.94958 0.0
C3148 C 0.84362 0.10497 0.92238 0.0
C3149 C 0.86625 0.0853 0.84027 0.0
C3150 C 0.85745 0.09089 0.86804 0.0
H3151 H 0.81558 0.12714 0.93645 0.0
H3152 H 0.82352 0.11078 0.90489 0.0
H3153 H 0.8394 0.10869 0.82773 0.0
H3154 H 0.88792 0.09067 0.75768 0.0
H3155 H 0.87173 0.09863 0.78961 0.0
C3156 C 0.6623 0.1302 0.51646 0.0
C3157 C 0.67212 0.13336 0.53582 0.0
C3158 C 0.6583 0.12076 0.53572 0.0
C3159 C 0.65337 0.09833 0.56703 0.0
H3160 H 0.65041 0.09745 0.74602 0.0
C3161 C 0.62558 0.06995 0.68704 0.0
C3162 C 0.61799 0.07549 0.71934 0.0
C3163 C 0.63479 0.07478 0.66954 0.0
C3164 C 0.65135 0.09747 0.69608 0.0
H3165 H 0.68562 0.12906 0.58894 0.0
H3166 H 0.67842 0.11259 0.62475 0.0
H3167 H 0.66215 0.10995 0.69871 0.0
H3168 H 0.61428 0.09008 0.76251 0.0
H3169 H 0.63045 0.09839 0.73386 0.0
H3170 H 0.64219 0.08621 0.56419 0.0
C3171 C 0.67394 0.11737 0.59362 0.0
C3172 C 0.65809 0.10457 0.66905 0.0
C3173 C 0.67806 0.12674 0.57299 0.0
C3174 C 0.62003 0.08565 0.73763 0.0
C3175 C 0.6293 0.09038 0.72151 0.0
C3176 C 0.64676 0.09111 0.59409 0.0
C3177 C 0.66395 0.11439 0.57589 0.0
C3178 C 0.65883 0.10534 0.6042 0.0
C3179 C 0.63662 0.08511 0.68557 0.0
C3180 C 0.64537 0.09091 0.65872 0.0
H3181 H 0.65759 0.13518 0.4878 0.0
H3182 H 0.65054 0.11871 0.52196 0.0
H3183 H 0.65383 0.09877 0.51691 0.0
H3184 H 0.62413 0.06212 0.67192 0.0
H3185 H 0.64031 0.07057 0.6417 0.0
C3186 C 0.62294 0.93031 0.36282 0.0
C3187 C 0.61331 0.92689 0.38445 0.0
C3188 C 0.63196 0.92488 0.378 0.0
C3189 C 0.64186 0.90547 0.49006 0.0
H3190 H 0.66077 0.89767 0.359 0.0
C3191 C 0.66334 0.86728 0.48477 0.0
C3192 C 0.67383 0.86711 0.46931 0.0
C3193 C 0.65777 0.87644 0.4819 0.0
C3194 C 0.65568 0.89997 0.39637 0.0
H3195 H 0.60562 0.91514 0.43913 0.0
H3196 H 0.62112 0.90575 0.46469 0.0
H3197 H 0.64743 0.91058 0.33851 0.0
H3198 H 0.6868 0.87635 0.43929 0.0
H3199 H 0.67687 0.89247 0.43227 0.0
H3200 H 0.64968 0.89438 0.54661 0.0
C3201 C 0.62182 0.91268 0.43696 0.0
C3202 C 0.64806 0.90735 0.3847 0.0
C3203 C 0.61289 0.91803 0.42169 0.0
C3204 C 0.67873 0.87632 0.45189 0.0
C3205 C 0.67306 0.8855 0.44758 0.0
C3206 C 0.6494 0.89805 0.50147 0.0
C3207 C 0.63148 0.91602 0.41553 0.0
C3208 C 0.6408 0.90986 0.43075 0.0
C3209 C 0.66251 0.8856 0.46233 0.0
C3210 C 0.65613 0.89496 0.4541 0.0
H3211 H 0.62351 0.93713 0.33406 0.0
H3212 H 0.63929 0.92765 0.36077 0.0
H3213 H 0.63656 0.90742 0.52699 0.0
H3214 H 0.65939 0.86029 0.49841 0.0
H3215 H 0.64963 0.87628 0.49287 0.0
C3216 C 0.61624 0.5869 0.30928 0.0
C3217 C 0.6166 0.57625 0.32028 0.0
C3218 C 0.62524 0.59272 0.30883 0.0
C3219 C 0.64999 0.59526 0.3779 0.0
H3220 H 0.6549 0.6144 0.24298 0.0
C3221 C 0.68008 0.62868 0.3918 0.0
C3222 C 0.67618 0.6382 0.37131 0.0
C3223 C 0.67457 0.61955 0.38079 0.0
C3224 C 0.65366 0.6091 0.28105 0.0
H3225 H 0.62664 0.5633 0.33946 0.0
H3226 H 0.64254 0.57369 0.34084 0.0
H3227 H 0.64189 0.60099 0.23145 0.0
H3228 H 0.66345 0.64558 0.32337 0.0
H3229 H 0.65393 0.62988 0.30509 0.0
H3230 H 0.66128 0.60382 0.42914 0.0
C3231 C 0.63523 0.57742 0.33156 0.0
C3232 C 0.64627 0.60139 0.27421 0.0
C3233 C 0.62618 0.5715 0.33053 0.0
C3234 C 0.66672 0.6384 0.33968 0.0
C3235 C 0.66128 0.62935 0.32859 0.0
C3236 C 0.65735 0.60307 0.38505 0.0
C3237 C 0.6348 0.58808 0.32055 0.0
C3238 C 0.64411 0.59464 0.32331 0.0
C3239 C 0.66513 0.6198 0.34867 0.0
C3240 C 0.65895 0.61033 0.33753 0.0
H3241 H 0.60896 0.59075 0.30102 0.0
H3242 H 0.6247 0.60094 0.3008 0.0
H3243 H 0.6484 0.59016 0.41652 0.0
H3244 H 0.68735 0.62828 0.41629 0.0
H3245 H 0.67773 0.6123 0.39688 0.0
C3246 C 0.67844 0.3759 0.53432 0.0
C3247 C 0.67262 0.36869 0.50065 0.0
C3248 C 0.67396 0.38516 0.55382 0.0
C3249 C 0.65212 0.40283 0.53028 0.0
H3250 H 0.65061 0.4044 0.7098 0.0
C3251 C 0.6197 0.41491 0.7088 0.0
C3252 C 0.61734 0.42506 0.69172 0.0
C3253 C 0.6289 0.41038 0.68971 0.0
C3254 C 0.65114 0.40419 0.65964 0.0
H3255 H 0.65786 0.36572 0.45737 0.0
H3256 H 0.65015 0.38202 0.48947 0.0
H3257 H 0.66259 0.39231 0.66087 0.0
H3258 H 0.6228 0.43859 0.64289 0.0
H3259 H 0.63885 0.43047 0.60731 0.0
H3260 H 0.64033 0.41438 0.52913 0.0
C3261 C 0.65812 0.38051 0.50135 0.0
C3262 C 0.658 0.39732 0.63168 0.0
C3263 C 0.66251 0.37117 0.48323 0.0
C3264 C 0.62452 0.43077 0.65715 0.0
C3265 C 0.63365 0.42613 0.63662 0.0
C3266 C 0.64539 0.40984 0.55825 0.0
C3267 C 0.66368 0.38744 0.53845 0.0
C3268 C 0.65826 0.3963 0.56681 0.0
C3269 C 0.63582 0.41583 0.65192 0.0
C3270 C 0.64455 0.41028 0.62317 0.0
H3271 H 0.68623 0.3741 0.54884 0.0
H3272 H 0.67838 0.39039 0.58256 0.0
H3273 H 0.65219 0.40217 0.48018 0.0
H3274 H 0.61426 0.41036 0.73533 0.0
H3275 H 0.63034 0.40239 0.70154 0.0
C3276 C 0.88719 0.41554 0.89224 0.0
C3277 C 0.8879 0.42426 0.85395 0.0
C3278 C 0.87786 0.41035 0.89915 0.0
C3279 C 0.85424 0.4048 0.81539 0.0
H3280 H 0.84647 0.39196 0.97106 0.0
C3281 C 0.83266 0.36647 0.82895 0.0
C3282 C 0.82539 0.36481 0.87618 0.0
C3283 C 0.83825 0.37563 0.82644 0.0
C3284 C 0.84839 0.39562 0.92742 0.0
H3285 H 0.87932 0.43459 0.79416 0.0
H3286 H 0.86293 0.42537 0.80559 0.0
H3287 H 0.86006 0.40495 0.96966 0.0
H3288 H 0.81806 0.37157 0.95681 0.0
H3289 H 0.82799 0.38762 0.95284 0.0
H3290 H 0.84282 0.39522 0.77285 0.0
C3291 C 0.86964 0.42259 0.8303 0.0
C3292 C 0.85624 0.40299 0.92654 0.0
C3293 C 0.879 0.42787 0.82391 0.0
C3294 C 0.82362 0.37264 0.91994 0.0
C3295 C 0.82932 0.3818 0.91778 0.0
C3296 C 0.84643 0.39739 0.81623 0.0
C3297 C 0.86901 0.41371 0.86759 0.0
C3298 C 0.85948 0.4074 0.87023 0.0
C3299 C 0.83678 0.38333 0.87133 0.0
C3300 C 0.84366 0.39248 0.87195 0.0
H3301 H 0.8939 0.4126 0.91634 0.0
H3302 H 0.87769 0.40346 0.92747 0.0
H3303 H 0.85658 0.40802 0.77125 0.0
H3304 H 0.83416 0.36062 0.79429 0.0
H3305 H 0.84404 0.3765 0.7906 0.0
C3306 C 0.87836 0.58655 0.24944 0.0
C3307 C 0.88093 0.57636 0.23434 0.0
C3308 C 0.86903 0.59077 0.22979 0.0
C3309 C 0.85237 0.58997 0.09851 0.0
H3310 H 0.8352 0.60829 0.19607 0.0
C3311 C 0.81912 0.62353 0.06575 0.0
C3312 C 0.82487 0.63042 0.02938 0.0
C3313 C 0.82364 0.61444 0.08775 0.0
C3314 C 0.83977 0.60304 0.16834 0.0
H3315 H 0.87568 0.56245 0.18871 0.0
H3316 H 0.85941 0.56999 0.15232 0.0
H3317 H 0.84737 0.59678 0.24828 0.0
H3318 H 0.83951 0.63298 0.9839 0.0
H3319 H 0.84727 0.61695 0.02029 0.0
H3320 H 0.84535 0.59681 0.01839 0.0
C3321 C 0.86456 0.57461 0.18042 0.0
C3322 C 0.84676 0.59651 0.19818 0.0
C3323 C 0.87381 0.5703 0.20146 0.0
C3324 C 0.83492 0.62776 0.01175 0.0
C3325 C 0.83934 0.61858 0.03236 0.0
C3326 C 0.84551 0.59663 0.06863 0.0
C3327 C 0.86219 0.58495 0.19343 0.0
C3328 C 0.85334 0.59015 0.16343 0.0
C3329 C 0.83387 0.612 0.07225 0.0
C3330 C 0.83939 0.60345 0.10324 0.0
H3331 H 0.88373 0.59137 0.27466 0.0
H3332 H 0.86745 0.59879 0.23987 0.0
H3333 H 0.85742 0.58521 0.07063 0.0
H3334 H 0.81139 0.62549 0.08054 0.0
H3335 H 0.81929 0.60949 0.11861 0.0
C3336 C 0.32132 0.37587 0.57526 0.0
C3337 C 0.32714 0.36861 0.54205 0.0
C3338 C 0.32573 0.38529 0.59265 0.0
C3339 C 0.34191 0.39804 0.66596 0.0
H3340 H 0.35881 0.41483 0.55729 0.0
C3341 C 0.38065 0.41588 0.73132 0.0
C3342 C 0.38295 0.42594 0.71217 0.0
C3343 C 0.37128 0.41134 0.71538 0.0
C3344 C 0.35395 0.41037 0.58813 0.0
H3345 H 0.34178 0.36566 0.49743 0.0
H3346 H 0.34934 0.38222 0.52573 0.0
H3347 H 0.34678 0.40233 0.51268 0.0
H3348 H 0.37721 0.43932 0.66305 0.0
H3349 H 0.36085 0.43118 0.63289 0.0
H3350 H 0.34971 0.40547 0.74142 0.0
C3351 C 0.34145 0.38064 0.53893 0.0
C3352 C 0.34712 0.4032 0.56263 0.0
C3353 C 0.33715 0.37115 0.52301 0.0
C3354 C 0.37554 0.43157 0.67884 0.0
C3355 C 0.36624 0.42692 0.66142 0.0
C3356 C 0.34888 0.40508 0.69146 0.0
C3357 C 0.3359 0.38767 0.57548 0.0
C3358 C 0.34129 0.39675 0.60136 0.0
C3359 C 0.36412 0.4167 0.67869 0.0
C3360 C 0.35519 0.41106 0.65274 0.0
H3361 H 0.31361 0.37402 0.59096 0.0
H3362 H 0.32133 0.39058 0.62106 0.0
H3363 H 0.33756 0.39309 0.69681 0.0
H3364 H 0.38625 0.41139 0.75698 0.0
H3365 H 0.3699 0.40341 0.72865 0.0
C3366 C 0.38342 0.58742 0.30823 0.0
C3367 C 0.38554 0.57732 0.32759 0.0
C3368 C 0.3741 0.5921 0.32374 0.0
C3369 C 0.35145 0.59818 0.34437 0.0
H3370 H 0.34889 0.60175 0.52242 0.0
C3371 C 0.32211 0.62635 0.45386 0.0
C3372 C 0.32742 0.63415 0.48584 0.0
C3373 C 0.32714 0.61715 0.43838 0.0
C3374 C 0.34938 0.60065 0.47268 0.0
H3375 H 0.37957 0.56408 0.37704 0.0
H3376 H 0.36331 0.57249 0.40647 0.0
H3377 H 0.3614 0.5894 0.48096 0.0
H3378 H 0.3418 0.63827 0.53028 0.0
H3379 H 0.35043 0.62207 0.50533 0.0
H3380 H 0.33973 0.60972 0.33602 0.0
C3381 C 0.3688 0.57664 0.37808 0.0
C3382 C 0.35649 0.59358 0.44901 0.0
C3383 C 0.37804 0.57184 0.36107 0.0
C3384 C 0.33755 0.63236 0.50563 0.0
C3385 C 0.34247 0.62309 0.4916 0.0
C3386 C 0.3442 0.6051 0.36806 0.0
C3387 C 0.36683 0.58687 0.36023 0.0
C3388 C 0.35784 0.59256 0.38465 0.0
C3389 C 0.33742 0.61554 0.45623 0.0
C3390 C 0.34337 0.60666 0.43235 0.0
H3391 H 0.38909 0.59179 0.28245 0.0
H3392 H 0.3728 0.60002 0.31 0.0
H3393 H 0.35238 0.59753 0.29458 0.0
H3394 H 0.31432 0.62761 0.43759 0.0
H3395 H 0.32311 0.61144 0.41089 0.0
C3396 C 0.11013 0.59063 0.15703 0.0
C3397 C 0.111 0.57987 0.15421 0.0
C3398 C 0.11889 0.59682 0.15611 0.0
C3399 C 0.14465 0.59893 0.09834 0.0
H3400 H 0.14702 0.62059 0.22144 0.0
C3401 C 0.17562 0.63162 0.08692 0.0
C3402 C 0.1718 0.64151 0.10031 0.0
C3403 C 0.1695 0.62287 0.09736 0.0
C3404 C 0.14647 0.61461 0.18657 0.0
H3405 H 0.1217 0.5671 0.14769 0.0
H3406 H 0.13717 0.57809 0.14421 0.0
H3407 H 0.13392 0.60731 0.23356 0.0
H3408 H 0.1585 0.64998 0.13366 0.0
H3409 H 0.14789 0.63492 0.15068 0.0
H3410 H 0.15686 0.60658 0.04951 0.0
C3411 C 0.12965 0.58164 0.14798 0.0
C3412 C 0.13902 0.60698 0.1938 0.0
C3413 C 0.12084 0.57539 0.15022 0.0
C3414 C 0.16174 0.64248 0.12331 0.0
C3415 C 0.15566 0.63381 0.13361 0.0
C3416 C 0.15209 0.60666 0.09073 0.0
C3417 C 0.12872 0.59241 0.15132 0.0
C3418 C 0.13782 0.59926 0.14886 0.0
C3419 C 0.15948 0.62389 0.12156 0.0
C3420 C 0.15283 0.61479 0.13374 0.0
H3421 H 0.10266 0.59431 0.16033 0.0
H3422 H 0.11796 0.60511 0.15813 0.0
H3423 H 0.14384 0.59307 0.06295 0.0
H3424 H 0.18336 0.63062 0.06921 0.0
H3425 H 0.17266 0.61533 0.08759 0.0
C3426 C 0.16386 0.37063 0.96685 0.0
C3427 C 0.17393 0.36802 0.94924 0.0
C3428 C 0.1597 0.38015 0.95041 0.0
C3429 C 0.15434 0.40279 0.92652 0.0
H3430 H 0.15252 0.40529 0.74749 0.0
C3431 C 0.12693 0.4318 0.80768 0.0
C3432 C 0.11956 0.42636 0.77302 0.0
C3433 C 0.13608 0.42695 0.82607 0.0
C3434 C 0.15314 0.40482 0.79753 0.0
H3435 H 0.18769 0.37336 0.90234 0.0
H3436 H 0.18021 0.38998 0.87135 0.0
H3437 H 0.16429 0.39267 0.7934 0.0
H3438 H 0.11615 0.41195 0.72687 0.0
H3439 H 0.13226 0.40362 0.75694 0.0
H3440 H 0.14283 0.4146 0.93059 0.0
C3441 C 0.17566 0.38471 0.89903 0.0
C3442 C 0.15989 0.39766 0.82378 0.0
C3443 C 0.17993 0.37525 0.91692 0.0
C3444 C 0.12174 0.41629 0.75352 0.0
C3445 C 0.13097 0.41155 0.77047 0.0
C3446 C 0.14773 0.41009 0.9003 0.0
C3447 C 0.16544 0.38715 0.91478 0.0
C3448 C 0.16024 0.3963 0.88841 0.0
C3449 C 0.13807 0.41671 0.80852 0.0
C3450 C 0.14677 0.41087 0.83555 0.0
H3451 H 0.1591 0.36517 0.99176 0.0
H3452 H 0.15177 0.38179 0.96251 0.0
H3453 H 0.15448 0.40187 0.97647 0.0
H3454 H 0.12535 0.43954 0.82378 0.0
H3455 H 0.14144 0.43105 0.85562 0.0
loop_
_geom_bond_atom_site_label_1
_geom_bond_atom_site_label_2
_geom_bond_distance
_geom_bond_site_symmetry_2
_ccdc_geom_bond_type
C0 C1 1.351 . S
C0 N3 1.368 . S
C0 H5 0.931 . S
C1 C0 1.351 . S
C1 N2 1.373 . S
C1 H29 0.930 . S
N2 C1 1.373 . S
N2 C4 1.340 . S
N3 C0 1.368 . S
N3 C4 1.321 . S
N3 Co6 2.135 . S
C4 N2 1.340 . S
C4 N3 1.321 . S
C4 H28 0.930 . S
H5 C0 0.931 . S
Co6 N3 2.135 . S
Co6 N9 2.121 1_554 S
Co6 O14 2.055 . S
Co6 O17 2.039 . S
Co6 N20 2.140 . S
C7 O8 1.227 . S
C7 O17 1.265 . S
O8 C7 1.227 . S
N9 Co6 2.121 1_556 S
N9 C11 1.375 . S
N9 C12 1.313 . S
C10 C11 1.338 . S
C10 N13 1.377 . S
C10 H30 0.930 . S
C11 N9 1.375 . S
C11 C10 1.338 . S
C11 H15 0.931 . S
C12 N9 1.313 . S
C12 N13 1.344 . S
C12 H16 0.930 . S
N13 C10 1.377 . S
N13 C12 1.344 . S
O14 Co6 2.055 . S
O14 C18 1.253 . S
H15 C11 0.931 . S
H16 C12 0.930 . S
O17 Co6 2.039 . S
O17 C7 1.265 . S
C18 O14 1.253 . S
C18 O19 1.227 . S
O19 C18 1.227 . S
N20 Co6 2.140 . S
N20 C23 1.346 . S
N20 C24 1.345 . S
C21 C22 1.387 . S
C21 C25 1.391 . S
C22 C21 1.387 . S
C22 C23 1.369 . S
C22 H31 0.929 . S
C23 N20 1.346 . S
C23 C22 1.369 . S
C23 H26 0.928 . S
C24 N20 1.345 . S
C24 C25 1.371 . S
C24 H27 0.931 1_554 S
C25 C21 1.391 . S
C25 C24 1.371 . S
C25 H32 0.930 1_554 S
H26 C23 0.928 . S
H27 C24 0.931 1_556 S
H28 C4 0.930 . S
H29 C1 0.930 . S
H30 C10 0.930 . S
H31 C22 0.929 . S
H32 C25 0.930 1_556 S
C33 C34 1.351 . S
C33 N36 1.368 . S
C33 H38 0.931 . S
C34 C33 1.351 . S
C34 N35 1.373 . S
C34 H62 0.930 . S
N35 C34 1.373 . S
N35 C37 1.340 . S
N36 C33 1.368 . S
N36 C37 1.321 . S
N36 Co39 2.135 . S
C37 N35 1.340 . S
C37 N36 1.321 . S
C37 H61 0.930 . S
H38 C33 0.931 . S
Co39 N36 2.135 . S
Co39 N42 2.121 . S
Co39 O47 2.055 . S
Co39 O50 2.039 . S
Co39 N53 2.140 . S
C40 O41 1.227 . S
C40 O50 1.265 . S
O41 C40 1.227 . S
N42 Co39 2.121 . S
N42 C44 1.375 . S
N42 C45 1.313 . S
C43 C44 1.338 . S
C43 N46 1.377 . S
C43 H63 0.930 . S
C44 N42 1.375 . S
C44 C43 1.338 . S
C44 H48 0.931 . S
C45 N42 1.313 . S
C45 N46 1.344 . S
C45 H49 0.930 . S
N46 C43 1.377 . S
N46 C45 1.344 . S
O47 Co39 2.055 . S
O47 C51 1.253 . S
H48 C44 0.931 . S
H49 C45 0.930 . S
O50 Co39 2.039 . S
O50 C40 1.265 . S
C51 O47 1.253 . S
C51 O52 1.227 . S
O52 C51 1.227 . S
N53 Co39 2.140 . S
N53 C56 1.346 . S
N53 C57 1.345 . S
C54 C55 1.387 . S
C54 C58 1.391 . S
C55 C54 1.387 . S
C55 C56 1.369 . S
C55 H64 0.929 . S
C56 N53 1.346 . S
C56 C55 1.369 . S
C56 H59 0.928 . S
C57 N53 1.345 . S
C57 C58 1.371 . S
C57 H60 0.931 . S
C58 C54 1.391 . S
C58 C57 1.371 . S
C58 H65 0.930 . S
H59 C56 0.928 . S
H60 C57 0.931 . S
H61 C37 0.930 . S
H62 C34 0.930 . S
H63 C43 0.930 . S
H64 C55 0.929 . S
H65 C58 0.930 . S
C66 C67 1.351 . S
C66 N69 1.368 . S
C66 H71 0.931 . S
C67 C66 1.351 . S
C67 N68 1.373 . S
C67 H95 0.930 . S
N68 C67 1.373 . S
N68 C70 1.340 . S
N69 C66 1.368 . S
N69 C70 1.321 . S
N69 Co72 2.135 . S
C70 N68 1.340 . S
C70 N69 1.321 . S
C70 H94 0.930 . S
H71 C66 0.931 . S
Co72 N69 2.135 . S
Co72 N75 2.121 . S
Co72 O80 2.055 . S
Co72 O83 2.039 . S
Co72 N86 2.140 . S
C73 O74 1.227 . S
C73 O83 1.265 . S
O74 C73 1.227 . S
N75 Co72 2.121 . S
N75 C77 1.375 . S
N75 C78 1.313 . S
C76 C77 1.338 . S
C76 N79 1.377 . S
C76 H96 0.930 . S
C77 N75 1.375 . S
C77 C76 1.338 . S
C77 H81 0.931 . S
C78 N75 1.313 . S
C78 N79 1.344 . S
C78 H82 0.930 . S
N79 C76 1.377 . S
N79 C78 1.344 . S
O80 Co72 2.055 . S
O80 C84 1.253 . S
H81 C77 0.931 . S
H82 C78 0.930 . S
O83 Co72 2.039 . S
O83 C73 1.265 . S
C84 O80 1.253 . S
C84 O85 1.227 . S
O85 C84 1.227 . S
N86 Co72 2.140 . S
N86 C89 1.346 . S
N86 C90 1.345 . S
C87 C88 1.387 . S
C87 C91 1.391 . S
C88 C87 1.387 . S
C88 C89 1.369 . S
C88 H97 0.929 . S
C89 N86 1.346 . S
C89 C88 1.369 . S
C89 H92 0.928 . S
C90 N86 1.345 . S
C90 C91 1.371 . S
C90 H93 0.931 . S
C91 C87 1.391 . S
C91 C90 1.371 . S
C91 H98 0.930 . S
H92 C89 0.928 . S
H93 C90 0.931 . S
H94 C70 0.930 . S
H95 C67 0.930 . S
H96 C76 0.930 . S
H97 C88 0.929 . S
H98 C91 0.930 . S
C99 C100 1.346 1_556 S
C99 N102 1.368 . S
C99 H104 0.931 . S
C100 C99 1.346 1_554 S
C100 N101 1.375 . S
C100 H128 0.932 . S
N101 C100 1.375 . S
N101 C103 1.340 1_554 S
N102 C99 1.368 . S
N102 C103 1.321 . S
N102 Co105 2.135 . S
C103 N101 1.340 1_556 S
C103 N102 1.321 . S
C103 H127 0.930 . S
H104 C99 0.931 . S
Co105 N102 2.135 . S
Co105 N108 2.121 . S
Co105 O113 2.055 . S
Co105 O116 2.039 . S
Co105 N119 2.140 . S
C106 O107 1.227 . S
C106 O116 1.265 . S
O107 C106 1.227 . S
N108 Co105 2.121 . S
N108 C110 1.375 . S
N108 C111 1.313 . S
C109 C110 1.338 . S
C109 N112 1.377 . S
C109 H129 0.930 . S
C110 N108 1.375 . S
C110 C109 1.338 . S
C110 H114 0.931 . S
C111 N108 1.313 . S
C111 N112 1.344 . S
C111 H115 0.930 . S
N112 C109 1.377 . S
N112 C111 1.344 . S
O113 Co105 2.055 . S
O113 C117 1.253 . S
H114 C110 0.931 . S
H115 C111 0.930 . S
O116 Co105 2.039 . S
O116 C106 1.265 . S
C117 O113 1.253 . S
C117 O118 1.227 . S
O118 C117 1.227 . S
N119 Co105 2.140 . S
N119 C122 1.346 . S
N119 C123 1.345 . S
C120 C121 1.387 . S
C120 C124 1.391 . S
C121 C120 1.387 . S
C121 C122 1.369 . S
C121 H130 0.929 . S
C122 N119 1.346 . S
C122 C121 1.369 . S
C122 H125 0.928 . S
C123 N119 1.345 . S
C123 C124 1.371 . S
C123 H126 0.931 . S
C124 C120 1.391 . S
C124 C123 1.371 . S
C124 H131 0.930 . S
H125 C122 0.928 . S
H126 C123 0.931 . S
H127 C103 0.930 . S
H128 C100 0.932 . S
H129 C109 0.930 . S
H130 C121 0.929 . S
H131 C124 0.930 . S
C132 C133 1.351 . S
C132 N135 1.368 . S
C132 H137 0.931 . S
C133 C132 1.351 . S
C133 N134 1.373 . S
C133 H161 0.930 . S
N134 C133 1.373 . S
N134 C136 1.340 . S
N135 C132 1.368 . S
N135 C136 1.321 . S
N135 Co138 2.135 . S
C136 N134 1.340 . S
C136 N135 1.321 . S
C136 H160 0.930 . S
H137 C132 0.931 . S
Co138 N135 2.135 . S
Co138 N141 2.121 1_556 S
Co138 O146 2.055 . S
Co138 O149 2.039 . S
Co138 N152 2.140 . S
C139 O140 1.227 . S
C139 O149 1.265 . S
O140 C139 1.227 . S
N141 Co138 2.121 1_554 S
N141 C143 1.375 . S
N141 C144 1.313 . S
C142 C143 1.338 . S
C142 N145 1.377 . S
C142 H162 0.930 . S
C143 N141 1.375 . S
C143 C142 1.338 . S
C143 H147 0.931 . S
C144 N141 1.313 . S
C144 N145 1.344 . S
C144 H148 0.930 . S
N145 C142 1.377 . S
N145 C144 1.344 . S
O146 Co138 2.055 . S
O146 C150 1.253 . S
H147 C143 0.931 . S
H148 C144 0.930 . S
O149 Co138 2.039 . S
O149 C139 1.265 . S
C150 O146 1.253 . S
C150 O151 1.227 . S
O151 C150 1.227 . S
N152 Co138 2.140 . S
N152 C155 1.346 . S
N152 C156 1.345 . S
C153 C154 1.387 . S
C153 C157 1.391 . S
C154 C153 1.387 . S
C154 C155 1.369 . S
C154 H163 0.929 . S
C155 N152 1.346 . S
C155 C154 1.369 . S
C155 H158 0.928 . S
C156 N152 1.345 . S
C156 C157 1.371 . S
C156 H159 0.931 1_556 S
C157 C153 1.391 . S
C157 C156 1.371 . S
C157 H164 0.930 1_556 S
H158 C155 0.928 . S
H159 C156 0.931 1_554 S
H160 C136 0.930 . S
H161 C133 0.930 . S
H162 C142 0.930 . S
H163 C154 0.929 . S
H164 C157 0.930 1_554 S
C165 C166 1.346 1_554 S
C165 N168 1.368 . S
C165 H170 0.931 . S
C166 C165 1.346 1_556 S
C166 N167 1.375 . S
C166 H194 0.932 . S
N167 C166 1.375 . S
N167 C169 1.340 1_556 S
N168 C165 1.368 . S
N168 C169 1.321 . S
N168 Co171 2.135 . S
C169 N167 1.340 1_554 S
C169 N168 1.321 . S
C169 H193 0.930 . S
H170 C165 0.931 . S
Co171 N168 2.135 . S
Co171 N174 2.121 . S
Co171 O179 2.055 . S
Co171 O182 2.039 . S
Co171 N185 2.140 . S
C172 O173 1.227 . S
C172 O182 1.265 . S
O173 C172 1.227 . S
N174 Co171 2.121 . S
N174 C176 1.375 . S
N174 C177 1.313 . S
C175 C176 1.338 . S
C175 N178 1.377 . S
C175 H195 0.930 . S
C176 N174 1.375 . S
C176 C175 1.338 . S
C176 H180 0.931 . S
C177 N174 1.313 . S
C177 N178 1.344 . S
C177 H181 0.930 . S
N178 C175 1.377 . S
N178 C177 1.344 . S
O179 Co171 2.055 . S
O179 C183 1.253 . S
H180 C176 0.931 . S
H181 C177 0.930 . S
O182 Co171 2.039 . S
O182 C172 1.265 . S
C183 O179 1.253 . S
C183 O184 1.227 . S
O184 C183 1.227 . S
N185 Co171 2.140 . S
N185 C188 1.346 . S
N185 C189 1.345 . S
C186 C187 1.387 . S
C186 C190 1.391 . S
C187 C186 1.387 . S
C187 C188 1.369 . S
C187 H196 0.929 . S
C188 N185 1.346 . S
C188 C187 1.369 . S
C188 H191 0.928 . S
C189 N185 1.345 . S
C189 C190 1.371 . S
C189 H192 0.931 . S
C190 C186 1.391 . S
C190 C189 1.371 . S
C190 H197 0.930 . S
H191 C188 0.928 . S
H192 C189 0.931 . S
H193 C169 0.930 . S
H194 C166 0.932 . S
H195 C175 0.930 . S
H196 C187 0.929 . S
H197 C190 0.930 . S
C198 C199 1.351 . S
C198 N201 1.368 . S
C198 H203 0.931 . S
C199 C198 1.351 . S
C199 N200 1.373 . S
C199 H227 0.930 . S
N200 C199 1.373 . S
N200 C202 1.340 . S
N201 C198 1.368 . S
N201 C202 1.321 . S
N201 Co204 2.135 . S
C202 N200 1.340 . S
C202 N201 1.321 . S
C202 H226 0.930 . S
H203 C198 0.931 . S
Co204 N201 2.135 . S
Co204 N207 2.121 . S
Co204 O212 2.055 . S
Co204 O215 2.039 . S
Co204 N218 2.140 . S
C205 O206 1.227 . S
C205 O215 1.265 . S
O206 C205 1.227 . S
N207 Co204 2.121 . S
N207 C209 1.375 . S
N207 C210 1.313 . S
C208 C209 1.338 . S
C208 N211 1.377 . S
C208 H228 0.930 . S
C209 N207 1.375 . S
C209 C208 1.338 . S
C209 H213 0.931 . S
C210 N207 1.313 . S
C210 N211 1.344 . S
C210 H214 0.930 . S
N211 C208 1.377 . S
N211 C210 1.344 . S
O212 Co204 2.055 . S
O212 C216 1.253 . S
H213 C209 0.931 . S
H214 C210 0.930 . S
O215 Co204 2.039 . S
O215 C205 1.265 . S
C216 O212 1.253 . S
C216 O217 1.227 . S
O217 C216 1.227 . S
N218 Co204 2.140 . S
N218 C221 1.346 . S
N218 C222 1.345 . S
C219 C220 1.387 . S
C219 C223 1.391 . S
C220 C219 1.387 . S
C220 C221 1.369 . S
C220 H229 0.929 . S
C221 N218 1.346 . S
C221 C220 1.369 . S
C221 H224 0.928 . S
C222 N218 1.345 . S
C222 C223 1.371 . S
C222 H225 0.931 . S
C223 C219 1.391 . S
C223 C222 1.371 . S
C223 H230 0.930 . S
H224 C221 0.928 . S
H225 C222 0.931 . S
H226 C202 0.930 . S
H227 C199 0.930 . S
H228 C208 0.930 . S
H229 C220 0.929 . S
H230 C223 0.930 . S
C231 C232 1.351 . S
C231 N234 1.368 . S
C231 H236 0.931 . S
C232 C231 1.351 . S
C232 N233 1.373 . S
C232 H260 0.930 . S
N233 C232 1.373 . S
N233 C235 1.340 . S
N234 C231 1.368 . S
N234 C235 1.321 . S
N234 Co237 2.135 . S
C235 N233 1.340 . S
C235 N234 1.321 . S
C235 H259 0.930 . S
H236 C231 0.931 . S
Co237 N234 2.135 . S
Co237 N240 2.121 . S
Co237 O245 2.055 . S
Co237 O248 2.039 . S
Co237 N251 2.140 . S
C238 O239 1.227 . S
C238 O248 1.265 . S
O239 C238 1.227 . S
N240 Co237 2.121 . S
N240 C242 1.375 . S
N240 C243 1.313 . S
C241 C242 1.338 . S
C241 N244 1.377 . S
C241 H261 0.930 . S
C242 N240 1.375 . S
C242 C241 1.338 . S
C242 H246 0.931 . S
C243 N240 1.313 . S
C243 N244 1.344 . S
C243 H247 0.930 . S
N244 C241 1.377 . S
N244 C243 1.344 . S
O245 Co237 2.055 . S
O245 C249 1.253 . S
H246 C242 0.931 . S
H247 C243 0.930 . S
O248 Co237 2.039 . S
O248 C238 1.265 . S
C249 O245 1.253 . S
C249 O250 1.227 . S
O250 C249 1.227 . S
N251 Co237 2.140 . S
N251 C254 1.346 . S
N251 C255 1.345 . S
C252 C253 1.387 . S
C252 C256 1.391 . S
C253 C252 1.387 . S
C253 C254 1.369 . S
C253 H262 0.929 . S
C254 N251 1.346 . S
C254 C253 1.369 . S
C254 H257 0.928 . S
C255 N251 1.345 . S
C255 C256 1.371 . S
C255 H258 0.931 . S
C256 C252 1.391 . S
C256 C255 1.371 . S
C256 H263 0.930 . S
H257 C254 0.928 . S
H258 C255 0.931 . S
H259 C235 0.930 . S
H260 C232 0.930 . S
H261 C241 0.930 . S
H262 C253 0.929 . S
H263 C256 0.930 . S
C264 C265 1.351 . S
C264 N267 1.368 . S
C264 H269 0.931 . S
C265 C264 1.351 . S
C265 N266 1.373 . S
C265 H293 0.930 . S
N266 C265 1.373 . S
N266 C268 1.340 . S
N267 C264 1.368 . S
N267 C268 1.321 . S
N267 Co270 2.135 . S
C268 N266 1.340 . S
C268 N267 1.321 . S
C268 H292 0.930 . S
H269 C264 0.931 . S
Co270 N267 2.135 . S
Co270 N273 2.121 1_556 S
Co270 O278 2.055 . S
Co270 O281 2.039 . S
Co270 N284 2.140 . S
C271 O272 1.227 . S
C271 O281 1.265 . S
O272 C271 1.227 . S
N273 Co270 2.121 1_554 S
N273 C275 1.375 . S
N273 C276 1.313 . S
C274 C275 1.338 . S
C274 N277 1.377 . S
C274 H294 0.930 . S
C275 N273 1.375 . S
C275 C274 1.338 . S
C275 H279 0.931 . S
C276 N273 1.313 . S
C276 N277 1.344 . S
C276 H280 0.930 . S
N277 C274 1.377 . S
N277 C276 1.344 . S
O278 Co270 2.055 . S
O278 C282 1.253 . S
H279 C275 0.931 . S
H280 C276 0.930 . S
O281 Co270 2.039 . S
O281 C271 1.265 . S
C282 O278 1.253 . S
C282 O283 1.227 . S
O283 C282 1.227 . S
N284 Co270 2.140 . S
N284 C287 1.346 . S
N284 C288 1.345 . S
C285 C286 1.387 . S
C285 C289 1.391 . S
C286 C285 1.387 . S
C286 C287 1.369 . S
C286 H295 0.929 . S
C287 N284 1.346 . S
C287 C286 1.369 . S
C287 H290 0.928 . S
C288 N284 1.345 . S
C288 C289 1.371 . S
C288 H291 0.931 1_556 S
C289 C285 1.391 . S
C289 C288 1.371 . S
C289 H296 0.930 1_556 S
H290 C287 0.928 . S
H291 C288 0.931 1_554 S
H292 C268 0.930 . S
H293 C265 0.930 . S
H294 C274 0.930 . S
H295 C286 0.929 . S
H296 C289 0.930 1_554 S
C297 C298 1.351 . S
C297 N300 1.368 . S
C297 H302 0.931 . S
C298 C297 1.351 . S
C298 N299 1.373 . S
C298 H326 0.930 . S
N299 C298 1.373 . S
N299 C301 1.340 . S
N300 C297 1.368 . S
N300 C301 1.321 . S
N300 Co303 2.135 . S
C301 N299 1.340 . S
C301 N300 1.321 . S
C301 H325 0.930 . S
H302 C297 0.931 . S
Co303 N300 2.135 . S
Co303 N306 2.121 . S
Co303 O311 2.055 . S
Co303 O314 2.039 . S
Co303 N317 2.140 . S
C304 O305 1.227 . S
C304 O314 1.265 . S
O305 C304 1.227 . S
N306 Co303 2.121 . S
N306 C308 1.375 . S
N306 C309 1.313 . S
C307 C308 1.338 . S
C307 N310 1.377 . S
C307 H327 0.930 . S
C308 N306 1.375 . S
C308 C307 1.338 . S
C308 H312 0.931 . S
C309 N306 1.313 . S
C309 N310 1.344 . S
C309 H313 0.930 . S
N310 C307 1.377 . S
N310 C309 1.344 . S
O311 Co303 2.055 . S
O311 C315 1.253 . S
H312 C308 0.931 . S
H313 C309 0.930 . S
O314 Co303 2.039 . S
O314 C304 1.265 . S
C315 O311 1.253 . S
C315 O316 1.227 . S
O316 C315 1.227 . S
N317 Co303 2.140 . S
N317 C320 1.346 . S
N317 C321 1.345 . S
C318 C319 1.387 . S
C318 C322 1.391 . S
C319 C318 1.387 . S
C319 C320 1.369 . S
C319 H328 0.929 . S
C320 N317 1.346 . S
C320 C319 1.369 . S
C320 H323 0.928 . S
C321 N317 1.345 . S
C321 C322 1.371 . S
C321 H324 0.931 . S
C322 C318 1.391 . S
C322 C321 1.371 . S
C322 H329 0.930 . S
H323 C320 0.928 . S
H324 C321 0.931 . S
H325 C301 0.930 . S
H326 C298 0.930 . S
H327 C307 0.930 . S
H328 C319 0.929 . S
H329 C322 0.930 . S
C330 C331 1.351 . S
C330 N333 1.368 . S
C330 H335 0.931 . S
C331 C330 1.351 . S
C331 N332 1.373 . S
C331 H359 0.930 . S
N332 C331 1.373 . S
N332 C334 1.340 . S
N333 C330 1.368 . S
N333 C334 1.321 . S
N333 Co336 2.135 . S
C334 N332 1.340 . S
C334 N333 1.321 . S
C334 H358 0.930 . S
H335 C330 0.931 . S
Co336 N333 2.135 . S
Co336 N339 2.121 . S
Co336 O344 2.055 . S
Co336 O347 2.039 . S
Co336 N350 2.140 . S
C337 O338 1.227 . S
C337 O347 1.265 . S
O338 C337 1.227 . S
N339 Co336 2.121 . S
N339 C341 1.375 . S
N339 C342 1.313 . S
C340 C341 1.338 . S
C340 N343 1.377 . S
C340 H360 0.930 . S
C341 N339 1.375 . S
C341 C340 1.338 . S
C341 H345 0.931 . S
C342 N339 1.313 . S
C342 N343 1.344 . S
C342 H346 0.930 . S
N343 C340 1.377 . S
N343 C342 1.344 . S
O344 Co336 2.055 . S
O344 C348 1.253 . S
H345 C341 0.931 . S
H346 C342 0.930 . S
O347 Co336 2.039 . S
O347 C337 1.265 . S
C348 O344 1.253 . S
C348 O349 1.227 . S
O349 C348 1.227 . S
N350 Co336 2.140 . S
N350 C353 1.346 . S
N350 C354 1.345 . S
C351 C352 1.387 . S
C351 C355 1.391 . S
C352 C351 1.387 . S
C352 C353 1.369 . S
C352 H361 0.929 . S
C353 N350 1.346 . S
C353 C352 1.369 . S
C353 H356 0.928 . S
C354 N350 1.345 . S
C354 C355 1.371 . S
C354 H357 0.931 . S
C355 C351 1.391 . S
C355 C354 1.371 . S
C355 H362 0.930 . S
H356 C353 0.928 . S
H357 C354 0.931 . S
H358 C334 0.930 . S
H359 C331 0.930 . S
H360 C340 0.930 . S
H361 C352 0.929 . S
H362 C355 0.930 . S
C363 C364 1.346 1_554 S
C363 N366 1.368 . S
C363 H368 0.931 . S
C364 C363 1.346 1_556 S
C364 N365 1.375 . S
C364 H392 0.932 . S
N365 C364 1.375 . S
N365 C367 1.340 1_556 S
N366 C363 1.368 . S
N366 C367 1.321 . S
N366 Co369 2.135 . S
C367 N365 1.340 1_554 S
C367 N366 1.321 . S
C367 H391 0.930 . S
H368 C363 0.931 . S
Co369 N366 2.135 . S
Co369 N372 2.121 . S
Co369 O377 2.055 . S
Co369 O380 2.039 . S
Co369 N383 2.140 . S
C370 O371 1.227 . S
C370 O380 1.265 . S
O371 C370 1.227 . S
N372 Co369 2.121 . S
N372 C374 1.375 . S
N372 C375 1.313 . S
C373 C374 1.338 . S
C373 N376 1.377 . S
C373 H393 0.930 . S
C374 N372 1.375 . S
C374 C373 1.338 . S
C374 H378 0.931 . S
C375 N372 1.313 . S
C375 N376 1.344 . S
C375 H379 0.930 . S
N376 C373 1.377 . S
N376 C375 1.344 . S
O377 Co369 2.055 . S
O377 C381 1.253 . S
H378 C374 0.931 . S
H379 C375 0.930 . S
O380 Co369 2.039 . S
O380 C370 1.265 . S
C381 O377 1.253 . S
C381 O382 1.227 . S
O382 C381 1.227 . S
N383 Co369 2.140 . S
N383 C386 1.346 . S
N383 C387 1.345 . S
C384 C385 1.387 . S
C384 C388 1.391 . S
C385 C384 1.387 . S
C385 C386 1.369 . S
C385 H394 0.929 . S
C386 N383 1.346 . S
C386 C385 1.369 . S
C386 H389 0.928 . S
C387 N383 1.345 . S
C387 C388 1.371 . S
C387 H390 0.931 . S
C388 C384 1.391 . S
C388 C387 1.371 . S
C388 H395 0.930 . S
H389 C386 0.928 . S
H390 C387 0.931 . S
H391 C367 0.930 . S
H392 C364 0.932 . S
H393 C373 0.930 . S
H394 C385 0.929 . S
H395 C388 0.930 . S
C396 C397 1.351 . S
C396 N399 1.368 . S
C396 H401 0.931 . S
C397 C396 1.351 . S
C397 N398 1.373 . S
C397 H425 0.930 . S
N398 C397 1.373 . S
N398 C400 1.340 . S
N399 C396 1.368 . S
N399 C400 1.321 . S
N399 Co402 2.135 . S
C400 N398 1.340 . S
C400 N399 1.321 . S
C400 H424 0.930 . S
H401 C396 0.931 . S
Co402 N399 2.135 . S
Co402 N405 2.121 1_554 S
Co402 O410 2.055 . S
Co402 O413 2.039 . S
Co402 N416 2.140 . S
C403 O404 1.227 . S
C403 O413 1.265 . S
O404 C403 1.227 . S
N405 Co402 2.121 1_556 S
N405 C407 1.375 . S
N405 C408 1.313 . S
C406 C407 1.338 . S
C406 N409 1.377 . S
C406 H426 0.930 . S
C407 N405 1.375 . S
C407 C406 1.338 . S
C407 H411 0.931 . S
C408 N405 1.313 . S
C408 N409 1.344 . S
C408 H412 0.930 . S
N409 C406 1.377 . S
N409 C408 1.344 . S
O410 Co402 2.055 . S
O410 C414 1.253 . S
H411 C407 0.931 . S
H412 C408 0.930 . S
O413 Co402 2.039 . S
O413 C403 1.265 . S
C414 O410 1.253 . S
C414 O415 1.227 . S
O415 C414 1.227 . S
N416 Co402 2.140 . S
N416 C419 1.346 . S
N416 C420 1.345 . S
C417 C418 1.387 . S
C417 C421 1.391 . S
C418 C417 1.387 . S
C418 C419 1.369 . S
C418 H427 0.929 . S
C419 N416 1.346 . S
C419 C418 1.369 . S
C419 H422 0.928 . S
C420 N416 1.345 . S
C420 C421 1.371 . S
C420 H423 0.931 1_554 S
C421 C417 1.391 . S
C421 C420 1.371 . S
C421 H428 0.930 1_554 S
H422 C419 0.928 . S
H423 C420 0.931 1_556 S
H424 C400 0.930 . S
H425 C397 0.930 . S
H426 C406 0.930 . S
H427 C418 0.929 . S
H428 C421 0.930 1_556 S
C429 C430 1.346 1_556 S
C429 N432 1.368 . S
C429 H434 0.931 . S
C430 C429 1.346 1_554 S
C430 N431 1.375 . S
C430 H458 0.932 . S
N431 C430 1.375 . S
N431 C433 1.340 1_554 S
N432 C429 1.368 . S
N432 C433 1.321 . S
N432 Co435 2.135 . S
C433 N431 1.340 1_556 S
C433 N432 1.321 . S
C433 H457 0.930 . S
H434 C429 0.931 . S
Co435 N432 2.135 . S
Co435 N438 2.121 . S
Co435 O443 2.055 . S
Co435 O446 2.039 . S
Co435 N449 2.140 . S
C436 O437 1.227 . S
C436 O446 1.265 . S
O437 C436 1.227 . S
N438 Co435 2.121 . S
N438 C440 1.375 . S
N438 C441 1.313 . S
C439 C440 1.338 . S
C439 N442 1.377 . S
C439 H459 0.930 . S
C440 N438 1.375 . S
C440 C439 1.338 . S
C440 H444 0.931 . S
C441 N438 1.313 . S
C441 N442 1.344 . S
C441 H445 0.930 . S
N442 C439 1.377 . S
N442 C441 1.344 . S
O443 Co435 2.055 . S
O443 C447 1.253 . S
H444 C440 0.931 . S
H445 C441 0.930 . S
O446 Co435 2.039 . S
O446 C436 1.265 . S
C447 O443 1.253 . S
C447 O448 1.227 . S
O448 C447 1.227 . S
N449 Co435 2.140 . S
N449 C452 1.346 . S
N449 C453 1.345 . S
C450 C451 1.387 . S
C450 C454 1.391 . S
C451 C450 1.387 . S
C451 C452 1.369 . S
C451 H460 0.929 . S
C452 N449 1.346 . S
C452 C451 1.369 . S
C452 H455 0.928 . S
C453 N449 1.345 . S
C453 C454 1.371 . S
C453 H456 0.931 . S
C454 C450 1.391 . S
C454 C453 1.371 . S
C454 H461 0.930 . S
H455 C452 0.928 . S
H456 C453 0.931 . S
H457 C433 0.930 . S
H458 C430 0.932 . S
H459 C439 0.930 . S
H460 C451 0.929 . S
H461 C454 0.930 . S
C462 C463 1.351 . S
C462 N465 1.368 . S
C462 H467 0.931 . S
C463 C462 1.351 . S
C463 N464 1.373 . S
C463 H491 0.930 . S
N464 C463 1.373 . S
N464 C466 1.340 . S
N465 C462 1.368 . S
N465 C466 1.321 . S
N465 Co468 2.135 . S
C466 N464 1.340 . S
C466 N465 1.321 . S
C466 H490 0.930 . S
H467 C462 0.931 . S
Co468 N465 2.135 . S
Co468 N471 2.121 . S
Co468 O476 2.055 . S
Co468 O479 2.039 . S
Co468 N482 2.140 . S
C469 O470 1.227 . S
C469 O479 1.265 . S
O470 C469 1.227 . S
N471 Co468 2.121 . S
N471 C473 1.375 . S
N471 C474 1.313 . S
C472 C473 1.338 . S
C472 N475 1.377 . S
C472 H492 0.930 . S
C473 N471 1.375 . S
C473 C472 1.338 . S
C473 H477 0.931 . S
C474 N471 1.313 . S
C474 N475 1.344 . S
C474 H478 0.930 . S
N475 C472 1.377 . S
N475 C474 1.344 . S
O476 Co468 2.055 . S
O476 C480 1.253 . S
H477 C473 0.931 . S
H478 C474 0.930 . S
O479 Co468 2.039 . S
O479 C469 1.265 . S
C480 O476 1.253 . S
C480 O481 1.227 . S
O481 C480 1.227 . S
N482 Co468 2.140 . S
N482 C485 1.346 . S
N482 C486 1.345 . S
C483 C484 1.387 . S
C483 C487 1.391 . S
C484 C483 1.387 . S
C484 C485 1.369 . S
C484 H493 0.929 . S
C485 N482 1.346 . S
C485 C484 1.369 . S
C485 H488 0.928 . S
C486 N482 1.345 . S
C486 C487 1.371 . S
C486 H489 0.931 . S
C487 C483 1.391 . S
C487 C486 1.371 . S
C487 H494 0.930 . S
H488 C485 0.928 . S
H489 C486 0.931 . S
H490 C466 0.930 . S
H491 C463 0.930 . S
H492 C472 0.930 . S
H493 C484 0.929 . S
H494 C487 0.930 . S
C495 C496 1.351 . S
C495 N498 1.368 . S
C495 H500 0.931 . S
C496 C495 1.351 . S
C496 N497 1.373 . S
C496 H524 0.930 . S
N497 C496 1.373 . S
N497 C499 1.340 . S
N498 C495 1.368 . S
N498 C499 1.321 . S
N498 Co501 2.135 . S
C499 N497 1.340 . S
C499 N498 1.321 . S
C499 H523 0.930 . S
H500 C495 0.931 . S
Co501 N498 2.135 . S
Co501 N504 2.121 . S
Co501 O509 2.055 . S
Co501 O512 2.039 . S
Co501 N515 2.140 . S
C502 O503 1.227 . S
C502 O512 1.265 . S
O503 C502 1.227 . S
N504 Co501 2.121 . S
N504 C506 1.375 . S
N504 C507 1.313 . S
C505 C506 1.338 . S
C505 N508 1.377 . S
C505 H525 0.930 . S
C506 N504 1.375 . S
C506 C505 1.338 . S
C506 H510 0.931 . S
C507 N504 1.313 . S
C507 N508 1.344 . S
C507 H511 0.930 . S
N508 C505 1.377 . S
N508 C507 1.344 . S
O509 Co501 2.055 . S
O509 C513 1.253 . S
H510 C506 0.931 . S
H511 C507 0.930 . S
O512 Co501 2.039 . S
O512 C502 1.265 . S
C513 O509 1.253 . S
C513 O514 1.227 . S
O514 C513 1.227 . S
N515 Co501 2.140 . S
N515 C518 1.346 . S
N515 C519 1.345 . S
C516 C517 1.387 . S
C516 C520 1.391 . S
C517 C516 1.387 . S
C517 C518 1.369 . S
C517 H526 0.929 . S
C518 N515 1.346 . S
C518 C517 1.369 . S
C518 H521 0.928 . S
C519 N515 1.345 . S
C519 C520 1.371 . S
C519 H522 0.931 . S
C520 C516 1.391 . S
C520 C519 1.371 . S
C520 H527 0.930 . S
H521 C518 0.928 . S
H522 C519 0.931 . S
H523 C499 0.930 . S
H524 C496 0.930 . S
H525 C505 0.930 . S
H526 C517 0.929 . S
H527 C520 0.930 . S
C528 C529 1.351 . S
C528 N531 1.368 . S
C528 H533 0.931 . S
C529 C528 1.351 . S
C529 N530 1.373 . S
C529 H557 0.930 . S
N530 C529 1.373 . S
N530 C532 1.340 . S
N531 C528 1.368 . S
N531 C532 1.321 . S
N531 Co534 2.135 . S
C532 N530 1.340 . S
C532 N531 1.321 . S
C532 H556 0.930 . S
H533 C528 0.931 . S
Co534 N531 2.135 . S
Co534 N537 2.121 . S
Co534 O542 2.055 . S
Co534 O545 2.039 . S
Co534 N548 2.140 . S
C535 O536 1.227 . S
C535 O545 1.265 . S
O536 C535 1.227 . S
N537 Co534 2.121 . S
N537 C539 1.375 . S
N537 C540 1.313 . S
C538 C539 1.338 . S
C538 N541 1.377 . S
C538 H558 0.930 . S
C539 N537 1.375 . S
C539 C538 1.338 . S
C539 H543 0.931 . S
C540 N537 1.313 . S
C540 N541 1.344 . S
C540 H544 0.930 . S
N541 C538 1.377 . S
N541 C540 1.344 . S
O542 Co534 2.055 . S
O542 C546 1.253 . S
H543 C539 0.931 . S
H544 C540 0.930 . S
O545 Co534 2.039 . S
O545 C535 1.265 . S
C546 O542 1.253 . S
C546 O547 1.227 . S
O547 C546 1.227 . S
N548 Co534 2.140 . S
N548 C551 1.346 . S
N548 C552 1.345 . S
C549 C550 1.387 . S
C549 C553 1.391 . S
C550 C549 1.387 . S
C550 C551 1.369 . S
C550 H559 0.929 . S
C551 N548 1.346 . S
C551 C550 1.369 . S
C551 H554 0.928 . S
C552 N548 1.345 . S
C552 C553 1.371 . S
C552 H555 0.931 . S
C553 C549 1.391 . S
C553 C552 1.371 . S
C553 H560 0.930 . S
H554 C551 0.928 . S
H555 C552 0.931 . S
H556 C532 0.930 . S
H557 C529 0.930 . S
H558 C538 0.930 . S
H559 C550 0.929 . S
H560 C553 0.930 . S
C561 C562 1.346 1_556 S
C561 N564 1.368 . S
C561 H566 0.931 . S
C562 C561 1.346 1_554 S
C562 N563 1.375 . S
C562 H590 0.932 . S
N563 C562 1.375 . S
N563 C565 1.340 1_554 S
N564 C561 1.368 . S
N564 C565 1.321 . S
N564 Co567 2.135 . S
C565 N563 1.340 1_556 S
C565 N564 1.321 . S
C565 H589 0.930 . S
H566 C561 0.931 . S
Co567 N564 2.135 . S
Co567 N570 2.121 . S
Co567 O575 2.055 . S
Co567 O578 2.039 . S
Co567 N581 2.140 . S
C568 O569 1.227 . S
C568 O578 1.265 . S
O569 C568 1.227 . S
N570 Co567 2.121 . S
N570 C572 1.375 . S
N570 C573 1.313 . S
C571 C572 1.338 . S
C571 N574 1.377 . S
C571 H591 0.930 . S
C572 N570 1.375 . S
C572 C571 1.338 . S
C572 H576 0.931 . S
C573 N570 1.313 . S
C573 N574 1.344 . S
C573 H577 0.930 . S
N574 C571 1.377 . S
N574 C573 1.344 . S
O575 Co567 2.055 . S
O575 C579 1.253 . S
H576 C572 0.931 . S
H577 C573 0.930 . S
O578 Co567 2.039 . S
O578 C568 1.265 . S
C579 O575 1.253 . S
C579 O580 1.227 . S
O580 C579 1.227 . S
N581 Co567 2.140 . S
N581 C584 1.346 . S
N581 C585 1.345 . S
C582 C583 1.387 . S
C582 C586 1.391 . S
C583 C582 1.387 . S
C583 C584 1.369 . S
C583 H592 0.929 . S
C584 N581 1.346 . S
C584 C583 1.369 . S
C584 H587 0.928 . S
C585 N581 1.345 . S
C585 C586 1.371 . S
C585 H588 0.931 . S
C586 C582 1.391 . S
C586 C585 1.371 . S
C586 H593 0.930 . S
H587 C584 0.928 . S
H588 C585 0.931 . S
H589 C565 0.930 . S
H590 C562 0.932 . S
H591 C571 0.930 . S
H592 C583 0.929 . S
H593 C586 0.930 . S
C594 C595 1.351 . S
C594 N597 1.368 . S
C594 H599 0.931 . S
C595 C594 1.351 . S
C595 N596 1.373 . S
C595 H623 0.930 . S
N596 C595 1.373 . S
N596 C598 1.340 . S
N597 C594 1.368 . S
N597 C598 1.321 . S
N597 Co600 2.135 . S
C598 N596 1.340 . S
C598 N597 1.321 . S
C598 H622 0.930 . S
H599 C594 0.931 . S
Co600 N597 2.135 . S
Co600 N603 2.121 1_554 S
Co600 O608 2.055 . S
Co600 O611 2.039 . S
Co600 N614 2.140 . S
C601 O602 1.227 . S
C601 O611 1.265 . S
O602 C601 1.227 . S
N603 Co600 2.121 1_556 S
N603 C605 1.375 . S
N603 C606 1.313 . S
C604 C605 1.338 . S
C604 N607 1.377 . S
C604 H624 0.930 . S
C605 N603 1.375 . S
C605 C604 1.338 . S
C605 H609 0.931 . S
C606 N603 1.313 . S
C606 N607 1.344 . S
C606 H610 0.930 . S
N607 C604 1.377 . S
N607 C606 1.344 . S
O608 Co600 2.055 . S
O608 C612 1.253 . S
H609 C605 0.931 . S
H610 C606 0.930 . S
O611 Co600 2.039 . S
O611 C601 1.265 . S
C612 O608 1.253 . S
C612 O613 1.227 . S
O613 C612 1.227 . S
N614 Co600 2.140 . S
N614 C617 1.346 . S
N614 C618 1.345 . S
C615 C616 1.387 . S
C615 C619 1.391 . S
C616 C615 1.387 . S
C616 C617 1.369 . S
C616 H625 0.929 . S
C617 N614 1.346 . S
C617 C616 1.369 . S
C617 H620 0.928 . S
C618 N614 1.345 . S
C618 C619 1.371 . S
C618 H621 0.931 1_554 S
C619 C615 1.391 . S
C619 C618 1.371 . S
C619 H626 0.930 1_554 S
H620 C617 0.928 . S
H621 C618 0.931 1_556 S
H622 C598 0.930 . S
H623 C595 0.930 . S
H624 C604 0.930 . S
H625 C616 0.929 . S
H626 C619 0.930 1_556 S
C627 C628 1.351 . S
C627 N630 1.368 . S
C627 H632 0.931 . S
C628 C627 1.351 . S
C628 N629 1.373 . S
C628 H656 0.930 . S
N629 C628 1.373 . S
N629 C631 1.340 . S
N630 C627 1.368 . S
N630 C631 1.321 . S
N630 Co633 2.135 . S
C631 N629 1.340 . S
C631 N630 1.321 . S
C631 H655 0.930 . S
H632 C627 0.931 . S
Co633 N630 2.135 . S
Co633 N636 2.121 . S
Co633 O641 2.055 . S
Co633 O644 2.039 . S
Co633 N647 2.140 . S
C634 O635 1.227 . S
C634 O644 1.265 . S
O635 C634 1.227 . S
N636 Co633 2.121 . S
N636 C638 1.375 . S
N636 C639 1.313 . S
C637 C638 1.338 . S
C637 N640 1.377 . S
C637 H657 0.930 . S
C638 N636 1.375 . S
C638 C637 1.338 . S
C638 H642 0.931 . S
C639 N636 1.313 . S
C639 N640 1.344 . S
C639 H643 0.930 . S
N640 C637 1.377 . S
N640 C639 1.344 . S
O641 Co633 2.055 . S
O641 C645 1.253 . S
H642 C638 0.931 . S
H643 C639 0.930 . S
O644 Co633 2.039 . S
O644 C634 1.265 . S
C645 O641 1.253 . S
C645 O646 1.227 . S
O646 C645 1.227 . S
N647 Co633 2.140 . S
N647 C650 1.346 . S
N647 C651 1.345 . S
C648 C649 1.387 . S
C648 C652 1.391 . S
C649 C648 1.387 . S
C649 C650 1.369 . S
C649 H658 0.929 . S
C650 N647 1.346 . S
C650 C649 1.369 . S
C650 H653 0.928 . S
C651 N647 1.345 . S
C651 C652 1.371 . S
C651 H654 0.931 . S
C652 C648 1.391 . S
C652 C651 1.371 . S
C652 H659 0.930 . S
H653 C650 0.928 . S
H654 C651 0.931 . S
H655 C631 0.930 . S
H656 C628 0.930 . S
H657 C637 0.930 . S
H658 C649 0.929 . S
H659 C652 0.930 . S
C660 C661 1.351 . S
C660 N663 1.368 . S
C660 H665 0.931 . S
C661 C660 1.351 . S
C661 N662 1.373 . S
C661 H689 0.930 . S
N662 C661 1.373 . S
N662 C664 1.340 . S
N663 C660 1.368 . S
N663 C664 1.321 . S
N663 Co666 2.135 . S
C664 N662 1.340 . S
C664 N663 1.321 . S
C664 H688 0.930 . S
H665 C660 0.931 . S
Co666 N663 2.135 . S
Co666 N669 2.121 . S
Co666 O674 2.055 . S
Co666 O677 2.039 . S
Co666 N680 2.140 . S
C667 O668 1.227 . S
C667 O677 1.265 . S
O668 C667 1.227 . S
N669 Co666 2.121 . S
N669 C671 1.375 . S
N669 C672 1.313 . S
C670 C671 1.338 . S
C670 N673 1.377 . S
C670 H690 0.930 . S
C671 N669 1.375 . S
C671 C670 1.338 . S
C671 H675 0.931 . S
C672 N669 1.313 . S
C672 N673 1.344 . S
C672 H676 0.930 . S
N673 C670 1.377 . S
N673 C672 1.344 . S
O674 Co666 2.055 . S
O674 C678 1.253 . S
H675 C671 0.931 . S
H676 C672 0.930 . S
O677 Co666 2.039 . S
O677 C667 1.265 . S
C678 O674 1.253 . S
C678 O679 1.227 . S
O679 C678 1.227 . S
N680 Co666 2.140 . S
N680 C683 1.346 . S
N680 C684 1.345 . S
C681 C682 1.387 . S
C681 C685 1.391 . S
C682 C681 1.387 . S
C682 C683 1.369 . S
C682 H691 0.929 . S
C683 N680 1.346 . S
C683 C682 1.369 . S
C683 H686 0.928 . S
C684 N680 1.345 . S
C684 C685 1.371 . S
C684 H687 0.931 . S
C685 C681 1.391 . S
C685 C684 1.371 . S
C685 H692 0.930 . S
H686 C683 0.928 . S
H687 C684 0.931 . S
H688 C664 0.930 . S
H689 C661 0.930 . S
H690 C670 0.930 . S
H691 C682 0.929 . S
H692 C685 0.930 . S
C693 C694 1.351 . S
C693 N696 1.368 . S
C693 H698 0.931 . S
C694 C693 1.351 . S
C694 N695 1.373 . S
C694 H722 0.930 . S
N695 C694 1.373 . S
N695 C697 1.340 . S
N696 C693 1.368 . S
N696 C697 1.321 . S
N696 Co699 2.135 . S
C697 N695 1.340 . S
C697 N696 1.321 . S
C697 H721 0.930 . S
H698 C693 0.931 . S
Co699 N696 2.135 . S
Co699 N702 2.121 . S
Co699 O707 2.055 . S
Co699 O710 2.039 . S
Co699 N713 2.140 . S
C700 O701 1.227 . S
C700 O710 1.265 . S
O701 C700 1.227 . S
N702 Co699 2.121 . S
N702 C704 1.375 . S
N702 C705 1.313 . S
C703 C704 1.338 . S
C703 N706 1.377 . S
C703 H723 0.930 . S
C704 N702 1.375 . S
C704 C703 1.338 . S
C704 H708 0.931 . S
C705 N702 1.313 . S
C705 N706 1.344 . S
C705 H709 0.930 . S
N706 C703 1.377 . S
N706 C705 1.344 . S
O707 Co699 2.055 . S
O707 C711 1.253 . S
H708 C704 0.931 . S
H709 C705 0.930 . S
O710 Co699 2.039 . S
O710 C700 1.265 . S
C711 O707 1.253 . S
C711 O712 1.227 . S
O712 C711 1.227 . S
N713 Co699 2.140 . S
N713 C716 1.346 . S
N713 C717 1.345 . S
C714 C715 1.387 . S
C714 C718 1.391 . S
C715 C714 1.387 . S
C715 C716 1.369 . S
C715 H724 0.929 . S
C716 N713 1.346 . S
C716 C715 1.369 . S
C716 H719 0.928 . S
C717 N713 1.345 . S
C717 C718 1.371 . S
C717 H720 0.931 . S
C718 C714 1.391 . S
C718 C717 1.371 . S
C718 H725 0.930 . S
H719 C716 0.928 . S
H720 C717 0.931 . S
H721 C697 0.930 . S
H722 C694 0.930 . S
H723 C703 0.930 . S
H724 C715 0.929 . S
H725 C718 0.930 . S
C726 C727 1.351 . S
C726 N729 1.368 . S
C726 H731 0.931 . S
C727 C726 1.351 . S
C727 N728 1.373 . S
C727 H755 0.930 . S
N728 C727 1.373 . S
N728 C730 1.340 . S
N729 C726 1.368 . S
N729 C730 1.321 . S
N729 Co732 2.135 . S
C730 N728 1.340 . S
C730 N729 1.321 . S
C730 H754 0.930 . S
H731 C726 0.931 . S
Co732 N729 2.135 . S
Co732 N735 2.121 1_556 S
Co732 O740 2.055 . S
Co732 O743 2.039 . S
Co732 N746 2.140 . S
C733 O734 1.227 . S
C733 O743 1.265 . S
O734 C733 1.227 . S
N735 Co732 2.121 1_554 S
N735 C737 1.375 . S
N735 C738 1.313 . S
C736 C737 1.338 . S
C736 N739 1.377 . S
C736 H756 0.930 . S
C737 N735 1.375 . S
C737 C736 1.338 . S
C737 H741 0.931 . S
C738 N735 1.313 . S
C738 N739 1.344 . S
C738 H742 0.930 . S
N739 C736 1.377 . S
N739 C738 1.344 . S
O740 Co732 2.055 . S
O740 C744 1.253 . S
H741 C737 0.931 . S
H742 C738 0.930 . S
O743 Co732 2.039 . S
O743 C733 1.265 . S
C744 O740 1.253 . S
C744 O745 1.227 . S
O745 C744 1.227 . S
N746 Co732 2.140 . S
N746 C749 1.346 . S
N746 C750 1.345 . S
C747 C748 1.387 . S
C747 C751 1.391 . S
C748 C747 1.387 . S
C748 C749 1.369 . S
C748 H757 0.929 . S
C749 N746 1.346 . S
C749 C748 1.369 . S
C749 H752 0.928 . S
C750 N746 1.345 . S
C750 C751 1.371 . S
C750 H753 0.931 1_556 S
C751 C747 1.391 . S
C751 C750 1.371 . S
C751 H758 0.930 1_556 S
H752 C749 0.928 . S
H753 C750 0.931 1_554 S
H754 C730 0.930 . S
H755 C727 0.930 . S
H756 C736 0.930 . S
H757 C748 0.929 . S
H758 C751 0.930 1_554 S
C759 C760 1.346 1_554 S
C759 N762 1.368 . S
C759 H764 0.931 . S
C760 C759 1.346 1_556 S
C760 N761 1.375 . S
C760 H788 0.932 . S
N761 C760 1.375 . S
N761 C763 1.340 1_556 S
N762 C759 1.368 . S
N762 C763 1.321 . S
N762 Co765 2.135 . S
C763 N761 1.340 1_554 S
C763 N762 1.321 . S
C763 H787 0.930 . S
H764 C759 0.931 . S
Co765 N762 2.135 . S
Co765 N768 2.121 . S
Co765 O773 2.055 . S
Co765 O776 2.039 . S
Co765 N779 2.140 . S
C766 O767 1.227 . S
C766 O776 1.265 . S
O767 C766 1.227 . S
N768 Co765 2.121 . S
N768 C770 1.375 . S
N768 C771 1.313 . S
C769 C770 1.338 . S
C769 N772 1.377 . S
C769 H789 0.930 . S
C770 N768 1.375 . S
C770 C769 1.338 . S
C770 H774 0.931 . S
C771 N768 1.313 . S
C771 N772 1.344 . S
C771 H775 0.930 . S
N772 C769 1.377 . S
N772 C771 1.344 . S
O773 Co765 2.055 . S
O773 C777 1.253 . S
H774 C770 0.931 . S
H775 C771 0.930 . S
O776 Co765 2.039 . S
O776 C766 1.265 . S
C777 O773 1.253 . S
C777 O778 1.227 . S
O778 C777 1.227 . S
N779 Co765 2.140 . S
N779 C782 1.346 . S
N779 C783 1.345 . S
C780 C781 1.387 . S
C780 C784 1.391 . S
C781 C780 1.387 . S
C781 C782 1.369 . S
C781 H790 0.929 . S
C782 N779 1.346 . S
C782 C781 1.369 . S
C782 H785 0.928 . S
C783 N779 1.345 . S
C783 C784 1.371 . S
C783 H786 0.931 . S
C784 C780 1.391 . S
C784 C783 1.371 . S
C784 H791 0.930 . S
H785 C782 0.928 . S
H786 C783 0.931 . S
H787 C763 0.930 . S
H788 C760 0.932 . S
H789 C769 0.930 . S
H790 C781 0.929 . S
H791 C784 0.930 . S
C792 C793 1.351 . S
C792 N795 1.368 . S
C792 H797 0.931 . S
C793 C792 1.351 . S
C793 N794 1.373 . S
C793 H821 0.930 . S
N794 C793 1.373 . S
N794 C796 1.340 . S
N795 C792 1.368 . S
N795 C796 1.321 . S
N795 Co798 2.135 . S
C796 N794 1.340 . S
C796 N795 1.321 . S
C796 H820 0.930 . S
H797 C792 0.931 . S
Co798 N795 2.135 . S
Co798 N801 2.121 . S
Co798 O806 2.055 . S
Co798 O809 2.039 . S
Co798 N812 2.140 . S
C799 O800 1.227 . S
C799 O809 1.265 . S
O800 C799 1.227 . S
N801 Co798 2.121 . S
N801 C803 1.375 . S
N801 C804 1.313 . S
C802 C803 1.338 . S
C802 N805 1.377 . S
C802 H822 0.930 . S
C803 N801 1.375 . S
C803 C802 1.338 . S
C803 H807 0.931 . S
C804 N801 1.313 . S
C804 N805 1.344 . S
C804 H808 0.930 . S
N805 C802 1.377 . S
N805 C804 1.344 . S
O806 Co798 2.055 . S
O806 C810 1.253 . S
H807 C803 0.931 . S
H808 C804 0.930 . S
O809 Co798 2.039 . S
O809 C799 1.265 . S
C810 O806 1.253 . S
C810 O811 1.227 . S
O811 C810 1.227 . S
N812 Co798 2.140 . S
N812 C815 1.346 . S
N812 C816 1.345 . S
C813 C814 1.387 . S
C813 C817 1.391 . S
C814 C813 1.387 . S
C814 C815 1.369 . S
C814 H823 0.929 . S
C815 N812 1.346 . S
C815 C814 1.369 . S
C815 H818 0.928 . S
C816 N812 1.345 . S
C816 C817 1.371 . S
C816 H819 0.931 . S
C817 C813 1.391 . S
C817 C816 1.371 . S
C817 H824 0.930 . S
H818 C815 0.928 . S
H819 C816 0.931 . S
H820 C796 0.930 . S
H821 C793 0.930 . S
H822 C802 0.930 . S
H823 C814 0.929 . S
H824 C817 0.930 . S
C825 C826 1.346 1_554 S
C825 N828 1.368 . S
C825 H830 0.931 . S
C826 C825 1.346 1_556 S
C826 N827 1.375 . S
C826 H854 0.932 . S
N827 C826 1.375 . S
N827 C829 1.340 1_556 S
N828 C825 1.368 . S
N828 C829 1.321 . S
N828 Co831 2.135 . S
C829 N827 1.340 1_554 S
C829 N828 1.321 . S
C829 H853 0.930 . S
H830 C825 0.931 . S
Co831 N828 2.135 . S
Co831 N834 2.121 . S
Co831 O839 2.055 . S
Co831 O842 2.039 . S
Co831 N845 2.140 . S
C832 O833 1.227 . S
C832 O842 1.265 . S
O833 C832 1.227 . S
N834 Co831 2.121 . S
N834 C836 1.375 . S
N834 C837 1.313 . S
C835 C836 1.338 . S
C835 N838 1.377 . S
C835 H855 0.930 . S
C836 N834 1.375 . S
C836 C835 1.338 . S
C836 H840 0.931 . S
C837 N834 1.313 . S
C837 N838 1.344 . S
C837 H841 0.930 . S
N838 C835 1.377 . S
N838 C837 1.344 . S
O839 Co831 2.055 . S
O839 C843 1.253 . S
H840 C836 0.931 . S
H841 C837 0.930 . S
O842 Co831 2.039 . S
O842 C832 1.265 . S
C843 O839 1.253 . S
C843 O844 1.227 . S
O844 C843 1.227 . S
N845 Co831 2.140 . S
N845 C848 1.346 . S
N845 C849 1.345 . S
C846 C847 1.387 . S
C846 C850 1.391 . S
C847 C846 1.387 . S
C847 C848 1.369 . S
C847 H856 0.929 . S
C848 N845 1.346 . S
C848 C847 1.369 . S
C848 H851 0.928 . S
C849 N845 1.345 . S
C849 C850 1.371 . S
C849 H852 0.931 . S
C850 C846 1.391 . S
C850 C849 1.371 . S
C850 H857 0.930 . S
H851 C848 0.928 . S
H852 C849 0.931 . S
H853 C829 0.930 . S
H854 C826 0.932 . S
H855 C835 0.930 . S
H856 C847 0.929 . S
H857 C850 0.930 . S
C858 C859 1.351 . S
C858 N861 1.368 . S
C858 H863 0.931 . S
C859 C858 1.351 . S
C859 N860 1.373 . S
C859 H887 0.930 . S
N860 C859 1.373 . S
N860 C862 1.340 . S
N861 C858 1.368 . S
N861 C862 1.321 . S
N861 Co864 2.135 . S
C862 N860 1.340 . S
C862 N861 1.321 . S
C862 H886 0.930 . S
H863 C858 0.931 . S
Co864 N861 2.135 . S
Co864 N867 2.121 1_556 S
Co864 O872 2.055 . S
Co864 O875 2.039 . S
Co864 N878 2.140 . S
C865 O866 1.227 . S
C865 O875 1.265 . S
O866 C865 1.227 . S
N867 Co864 2.121 1_554 S
N867 C869 1.375 . S
N867 C870 1.313 . S
C868 C869 1.338 . S
C868 N871 1.377 . S
C868 H888 0.930 . S
C869 N867 1.375 . S
C869 C868 1.338 . S
C869 H873 0.931 . S
C870 N867 1.313 . S
C870 N871 1.344 . S
C870 H874 0.930 . S
N871 C868 1.377 . S
N871 C870 1.344 . S
O872 Co864 2.055 . S
O872 C876 1.253 . S
H873 C869 0.931 . S
H874 C870 0.930 . S
O875 Co864 2.039 . S
O875 C865 1.265 . S
C876 O872 1.253 . S
C876 O877 1.227 . S
O877 C876 1.227 . S
N878 Co864 2.140 . S
N878 C881 1.346 . S
N878 C882 1.345 . S
C879 C880 1.387 . S
C879 C883 1.391 . S
C880 C879 1.387 . S
C880 C881 1.369 . S
C880 H889 0.929 . S
C881 N878 1.346 . S
C881 C880 1.369 . S
C881 H884 0.928 . S
C882 N878 1.345 . S
C882 C883 1.371 . S
C882 H885 0.931 1_556 S
C883 C879 1.391 . S
C883 C882 1.371 . S
C883 H890 0.930 1_556 S
H884 C881 0.928 . S
H885 C882 0.931 1_554 S
H886 C862 0.930 . S
H887 C859 0.930 . S
H888 C868 0.930 . S
H889 C880 0.929 . S
H890 C883 0.930 1_554 S
C891 C892 1.351 . S
C891 N894 1.368 . S
C891 H896 0.931 . S
C892 C891 1.351 . S
C892 N893 1.373 . S
C892 H920 0.930 . S
N893 C892 1.373 . S
N893 C895 1.340 . S
N894 C891 1.368 . S
N894 C895 1.321 . S
N894 Co897 2.135 . S
C895 N893 1.340 . S
C895 N894 1.321 . S
C895 H919 0.930 . S
H896 C891 0.931 . S
Co897 N894 2.135 . S
Co897 N900 2.121 . S
Co897 O905 2.055 . S
Co897 O908 2.039 . S
Co897 N911 2.140 . S
C898 O899 1.227 . S
C898 O908 1.265 . S
O899 C898 1.227 . S
N900 Co897 2.121 . S
N900 C902 1.375 . S
N900 C903 1.313 . S
C901 C902 1.338 . S
C901 N904 1.377 . S
C901 H921 0.930 . S
C902 N900 1.375 . S
C902 C901 1.338 . S
C902 H906 0.931 . S
C903 N900 1.313 . S
C903 N904 1.344 . S
C903 H907 0.930 . S
N904 C901 1.377 . S
N904 C903 1.344 . S
O905 Co897 2.055 . S
O905 C909 1.253 . S
H906 C902 0.931 . S
H907 C903 0.930 . S
O908 Co897 2.039 . S
O908 C898 1.265 . S
C909 O905 1.253 . S
C909 O910 1.227 . S
O910 C909 1.227 . S
N911 Co897 2.140 . S
N911 C914 1.346 . S
N911 C915 1.345 . S
C912 C913 1.387 . S
C912 C916 1.391 . S
C913 C912 1.387 . S
C913 C914 1.369 . S
C913 H922 0.929 . S
C914 N911 1.346 . S
C914 C913 1.369 . S
C914 H917 0.928 . S
C915 N911 1.345 . S
C915 C916 1.371 . S
C915 H918 0.931 . S
C916 C912 1.391 . S
C916 C915 1.371 . S
C916 H923 0.930 . S
H917 C914 0.928 . S
H918 C915 0.931 . S
H919 C895 0.930 . S
H920 C892 0.930 . S
H921 C901 0.930 . S
H922 C913 0.929 . S
H923 C916 0.930 . S
C924 C925 1.351 . S
C924 N927 1.368 . S
C924 H929 0.931 . S
C925 C924 1.351 . S
C925 N926 1.373 . S
C925 H953 0.930 . S
N926 C925 1.373 . S
N926 C928 1.340 . S
N927 C924 1.368 . S
N927 C928 1.321 . S
N927 Co930 2.135 . S
C928 N926 1.340 . S
C928 N927 1.321 . S
C928 H952 0.930 . S
H929 C924 0.931 . S
Co930 N927 2.135 . S
Co930 N933 2.121 . S
Co930 O938 2.055 . S
Co930 O941 2.039 . S
Co930 N944 2.140 . S
C931 O932 1.227 . S
C931 O941 1.265 . S
O932 C931 1.227 . S
N933 Co930 2.121 . S
N933 C935 1.375 . S
N933 C936 1.313 . S
C934 C935 1.338 . S
C934 N937 1.377 . S
C934 H954 0.930 . S
C935 N933 1.375 . S
C935 C934 1.338 . S
C935 H939 0.931 . S
C936 N933 1.313 . S
C936 N937 1.344 . S
C936 H940 0.930 . S
N937 C934 1.377 . S
N937 C936 1.344 . S
O938 Co930 2.055 . S
O938 C942 1.253 . S
H939 C935 0.931 . S
H940 C936 0.930 . S
O941 Co930 2.039 . S
O941 C931 1.265 . S
C942 O938 1.253 . S
C942 O943 1.227 . S
O943 C942 1.227 . S
N944 Co930 2.140 . S
N944 C947 1.346 . S
N944 C948 1.345 . S
C945 C946 1.387 . S
C945 C949 1.391 . S
C946 C945 1.387 . S
C946 C947 1.369 . S
C946 H955 0.929 . S
C947 N944 1.346 . S
C947 C946 1.369 . S
C947 H950 0.928 . S
C948 N944 1.345 . S
C948 C949 1.371 . S
C948 H951 0.931 . S
C949 C945 1.391 . S
C949 C948 1.371 . S
C949 H956 0.930 . S
H950 C947 0.928 . S
H951 C948 0.931 . S
H952 C928 0.930 . S
H953 C925 0.930 . S
H954 C934 0.930 . S
H955 C946 0.929 . S
H956 C949 0.930 . S
C957 C958 1.351 . S
C957 N960 1.368 . S
C957 H962 0.931 . S
C958 C957 1.351 . S
C958 N959 1.373 . S
C958 H986 0.930 . S
N959 C958 1.373 . S
N959 C961 1.340 . S
N960 C957 1.368 . S
N960 C961 1.321 . S
N960 Co963 2.135 . S
C961 N959 1.340 . S
C961 N960 1.321 . S
C961 H985 0.930 . S
H962 C957 0.931 . S
Co963 N960 2.135 . S
Co963 N966 2.121 . S
Co963 O971 2.055 . S
Co963 O974 2.039 . S
Co963 N977 2.140 . S
C964 O965 1.227 . S
C964 O974 1.265 . S
O965 C964 1.227 . S
N966 Co963 2.121 . S
N966 C968 1.375 . S
N966 C969 1.313 . S
C967 C968 1.338 . S
C967 N970 1.377 . S
C967 H987 0.930 . S
C968 N966 1.375 . S
C968 C967 1.338 . S
C968 H972 0.931 . S
C969 N966 1.313 . S
C969 N970 1.344 . S
C969 H973 0.930 . S
N970 C967 1.377 . S
N970 C969 1.344 . S
O971 Co963 2.055 . S
O971 C975 1.253 . S
H972 C968 0.931 . S
H973 C969 0.930 . S
O974 Co963 2.039 . S
O974 C964 1.265 . S
C975 O971 1.253 . S
C975 O976 1.227 . S
O976 C975 1.227 . S
N977 Co963 2.140 . S
N977 C980 1.346 . S
N977 C981 1.345 . S
C978 C979 1.387 . S
C978 C982 1.391 . S
C979 C978 1.387 . S
C979 C980 1.369 . S
C979 H988 0.929 . S
C980 N977 1.346 . S
C980 C979 1.369 . S
C980 H983 0.928 . S
C981 N977 1.345 . S
C981 C982 1.371 . S
C981 H984 0.931 . S
C982 C978 1.391 . S
C982 C981 1.371 . S
C982 H989 0.930 . S
H983 C980 0.928 . S
H984 C981 0.931 . S
H985 C961 0.930 . S
H986 C958 0.930 . S
H987 C967 0.930 . S
H988 C979 0.929 . S
H989 C982 0.930 . S
C990 C991 1.351 . S
C990 N993 1.368 . S
C990 H995 0.931 . S
C991 C990 1.351 . S
C991 N992 1.373 . S
C991 H1019 0.930 . S
N992 C991 1.373 . S
N992 C994 1.340 . S
N993 C990 1.368 . S
N993 C994 1.321 . S
N993 Co996 2.135 . S
C994 N992 1.340 . S
C994 N993 1.321 . S
C994 H1018 0.930 . S
H995 C990 0.931 . S
Co996 N993 2.135 . S
Co996 N999 2.121 1_554 S
Co996 O1004 2.055 . S
Co996 O1007 2.039 . S
Co996 N1010 2.140 . S
C997 O998 1.227 . S
C997 O1007 1.265 . S
O998 C997 1.227 . S
N999 Co996 2.121 1_556 S
N999 C1001 1.375 . S
N999 C1002 1.313 . S
C1000 C1001 1.338 . S
C1000 N1003 1.377 . S
C1000 H1020 0.930 . S
C1001 N999 1.375 . S
C1001 C1000 1.338 . S
C1001 H1005 0.931 . S
C1002 N999 1.313 . S
C1002 N1003 1.344 . S
C1002 H1006 0.930 . S
N1003 C1000 1.377 . S
N1003 C1002 1.344 . S
O1004 Co996 2.055 . S
O1004 C1008 1.253 . S
H1005 C1001 0.931 . S
H1006 C1002 0.930 . S
O1007 Co996 2.039 . S
O1007 C997 1.265 . S
C1008 O1004 1.253 . S
C1008 O1009 1.227 . S
O1009 C1008 1.227 . S
N1010 Co996 2.140 . S
N1010 C1013 1.346 . S
N1010 C1014 1.345 . S
C1011 C1012 1.387 . S
C1011 C1015 1.391 . S
C1012 C1011 1.387 . S
C1012 C1013 1.369 . S
C1012 H1021 0.929 . S
C1013 N1010 1.346 . S
C1013 C1012 1.369 . S
C1013 H1016 0.928 . S
C1014 N1010 1.345 . S
C1014 C1015 1.371 . S
C1014 H1017 0.931 1_554 S
C1015 C1011 1.391 . S
C1015 C1014 1.371 . S
C1015 H1022 0.930 1_554 S
H1016 C1013 0.928 . S
H1017 C1014 0.931 1_556 S
H1018 C994 0.930 . S
H1019 C991 0.930 . S
H1020 C1000 0.930 . S
H1021 C1012 0.929 . S
H1022 C1015 0.930 1_556 S
C1023 C1024 1.346 1_556 S
C1023 N1026 1.368 . S
C1023 H1028 0.931 . S
C1024 C1023 1.346 1_554 S
C1024 N1025 1.375 . S
C1024 H1052 0.932 . S
N1025 C1024 1.375 . S
N1025 C1027 1.340 1_554 S
N1026 C1023 1.368 . S
N1026 C1027 1.321 . S
N1026 Co1029 2.135 . S
C1027 N1025 1.340 1_556 S
C1027 N1026 1.321 . S
C1027 H1051 0.930 . S
H1028 C1023 0.931 . S
Co1029 N1026 2.135 . S
Co1029 N1032 2.121 . S
Co1029 O1037 2.055 . S
Co1029 O1040 2.039 . S
Co1029 N1043 2.140 . S
C1030 O1031 1.227 . S
C1030 O1040 1.265 . S
O1031 C1030 1.227 . S
N1032 Co1029 2.121 . S
N1032 C1034 1.375 . S
N1032 C1035 1.313 . S
C1033 C1034 1.338 . S
C1033 N1036 1.377 . S
C1033 H1053 0.930 . S
C1034 N1032 1.375 . S
C1034 C1033 1.338 . S
C1034 H1038 0.931 . S
C1035 N1032 1.313 . S
C1035 N1036 1.344 . S
C1035 H1039 0.930 . S
N1036 C1033 1.377 . S
N1036 C1035 1.344 . S
O1037 Co1029 2.055 . S
O1037 C1041 1.253 . S
H1038 C1034 0.931 . S
H1039 C1035 0.930 . S
O1040 Co1029 2.039 . S
O1040 C1030 1.265 . S
C1041 O1037 1.253 . S
C1041 O1042 1.227 . S
O1042 C1041 1.227 . S
N1043 Co1029 2.140 . S
N1043 C1046 1.346 . S
N1043 C1047 1.345 . S
C1044 C1045 1.387 . S
C1044 C1048 1.391 . S
C1045 C1044 1.387 . S
C1045 C1046 1.369 . S
C1045 H1054 0.929 . S
C1046 N1043 1.346 . S
C1046 C1045 1.369 . S
C1046 H1049 0.928 . S
C1047 N1043 1.345 . S
C1047 C1048 1.371 . S
C1047 H1050 0.931 . S
C1048 C1044 1.391 . S
C1048 C1047 1.371 . S
C1048 H1055 0.930 . S
H1049 C1046 0.928 . S
H1050 C1047 0.931 . S
H1051 C1027 0.930 . S
H1052 C1024 0.932 . S
H1053 C1033 0.930 . S
H1054 C1045 0.929 . S
H1055 C1048 0.930 . S
C1056 C1057 1.349 . S
C1056 C1058 1.327 . S
C1056 H1081 0.950 . S
C1057 C1056 1.349 . S
C1057 C1073 1.349 . S
C1058 C1056 1.327 . S
C1058 C1077 1.429 . S
C1058 H1082 0.950 . S
C1059 C1076 1.574 . S
C1059 C1078 1.368 . S
C1059 H1083 0.949 . S
H1060 C1064 0.949 . S
C1061 C1062 1.349 . S
C1061 C1063 1.327 . S
C1061 H1084 0.950 . S
C1062 C1061 1.349 . S
C1062 C1074 1.349 . S
C1063 C1061 1.327 . S
C1063 C1079 1.429 . S
C1063 H1085 0.950 . S
C1064 H1060 0.949 . S
C1064 C1072 1.574 . S
C1064 C1080 1.368 . S
H1065 C1073 0.950 . S
H1066 C1071 0.950 . S
H1067 C1072 0.949 . S
H1068 C1074 0.950 . S
H1069 C1075 0.950 . S
H1070 C1076 0.949 . S
C1071 H1066 0.950 . S
C1071 C1073 1.327 . S
C1071 C1077 1.429 . S
C1072 C1064 1.574 . S
C1072 H1067 0.949 . S
C1072 C1078 1.368 . S
C1073 C1057 1.349 . S
C1073 H1065 0.950 . S
C1073 C1071 1.327 . S
C1074 C1062 1.349 . S
C1074 H1068 0.950 . S
C1074 C1075 1.327 . S
C1075 H1069 0.950 . S
C1075 C1074 1.327 . S
C1075 C1079 1.429 . S
C1076 C1059 1.574 . S
C1076 H1070 0.949 . S
C1076 C1080 1.368 . S
C1077 C1058 1.429 . S
C1077 C1071 1.429 . S
C1077 C1078 1.523 . S
C1078 C1059 1.368 . S
C1078 C1072 1.368 . S
C1078 C1077 1.523 . S
C1079 C1063 1.429 . S
C1079 C1075 1.429 . S
C1079 C1080 1.523 . S
C1080 C1064 1.368 . S
C1080 C1076 1.368 . S
C1080 C1079 1.523 . S
H1081 C1056 0.950 . S
H1082 C1058 0.950 . S
H1083 C1059 0.949 . S
H1084 C1061 0.950 . S
H1085 C1063 0.950 . S
C1086 C1087 1.349 . S
C1086 C1088 1.327 . S
C1086 H1111 0.950 . S
C1087 C1086 1.349 . S
C1087 C1103 1.349 . S
C1088 C1086 1.327 . S
C1088 C1107 1.429 . S
C1088 H1112 0.950 . S
C1089 C1106 1.574 1_455 S
C1089 C1108 1.368 . S
C1089 H1113 0.949 . S
H1090 C1094 0.949 . S
C1091 C1092 1.349 . S
C1091 C1093 1.327 . S
C1091 H1114 0.950 . S
C1092 C1091 1.349 . S
C1092 C1104 1.349 . S
C1093 C1091 1.327 . S
C1093 C1109 1.429 . S
C1093 H1115 0.950 . S
C1094 H1090 0.949 . S
C1094 C1102 1.574 1_655 S
C1094 C1110 1.368 . S
H1095 C1103 0.950 . S
H1096 C1101 0.950 . S
H1097 C1102 0.949 . S
H1098 C1104 0.950 . S
H1099 C1105 0.950 . S
H1100 C1106 0.949 . S
C1101 H1096 0.950 . S
C1101 C1103 1.327 . S
C1101 C1107 1.429 . S
C1102 C1094 1.574 1_455 S
C1102 H1097 0.949 . S
C1102 C1108 1.368 . S
C1103 C1087 1.349 . S
C1103 H1095 0.950 . S
C1103 C1101 1.327 . S
C1104 C1092 1.349 . S
C1104 H1098 0.950 . S
C1104 C1105 1.327 . S
C1105 H1099 0.950 . S
C1105 C1104 1.327 . S
C1105 C1109 1.429 . S
C1106 C1089 1.574 1_655 S
C1106 H1100 0.949 . S
C1106 C1110 1.368 . S
C1107 C1088 1.429 . S
C1107 C1101 1.429 . S
C1107 C1108 1.523 . S
C1108 C1089 1.368 . S
C1108 C1102 1.368 . S
C1108 C1107 1.523 . S
C1109 C1093 1.429 . S
C1109 C1105 1.429 . S
C1109 C1110 1.523 . S
C1110 C1094 1.368 . S
C1110 C1106 1.368 . S
C1110 C1109 1.523 . S
H1111 C1086 0.950 . S
H1112 C1088 0.950 . S
H1113 C1089 0.949 . S
H1114 C1091 0.950 . S
H1115 C1093 0.950 . S
C1116 C1117 1.349 . S
C1116 C1118 1.327 . S
C1116 H1141 0.950 . S
C1117 C1116 1.349 . S
C1117 C1133 1.349 . S
C1118 C1116 1.327 . S
C1118 C1137 1.429 . S
C1118 H1142 0.950 . S
C1119 C1136 1.574 . S
C1119 C1138 1.368 . S
C1119 H1143 0.949 . S
H1120 C1124 0.949 . S
C1121 C1122 1.349 . S
C1121 C1123 1.327 . S
C1121 H1144 0.950 . S
C1122 C1121 1.349 . S
C1122 C1134 1.349 . S
C1123 C1121 1.327 . S
C1123 C1139 1.429 . S
C1123 H1145 0.950 . S
C1124 H1120 0.949 . S
C1124 C1132 1.574 . S
C1124 C1140 1.368 . S
H1125 C1133 0.950 . S
H1126 C1131 0.950 . S
H1127 C1132 0.949 . S
H1128 C1134 0.950 . S
H1129 C1135 0.950 . S
H1130 C1136 0.949 . S
C1131 H1126 0.950 . S
C1131 C1133 1.327 . S
C1131 C1137 1.429 . S
C1132 C1124 1.574 . S
C1132 H1127 0.949 . S
C1132 C1138 1.368 . S
C1133 C1117 1.349 . S
C1133 H1125 0.950 . S
C1133 C1131 1.327 . S
C1134 C1122 1.349 . S
C1134 H1128 0.950 . S
C1134 C1135 1.327 . S
C1135 H1129 0.950 . S
C1135 C1134 1.327 . S
C1135 C1139 1.429 . S
C1136 C1119 1.574 . S
C1136 H1130 0.949 . S
C1136 C1140 1.368 . S
C1137 C1118 1.429 . S
C1137 C1131 1.429 . S
C1137 C1138 1.523 . S
C1138 C1119 1.368 . S
C1138 C1132 1.368 . S
C1138 C1137 1.523 . S
C1139 C1123 1.429 . S
C1139 C1135 1.429 . S
C1139 C1140 1.523 . S
C1140 C1124 1.368 . S
C1140 C1136 1.368 . S
C1140 C1139 1.523 . S
H1141 C1116 0.950 . S
H1142 C1118 0.950 . S
H1143 C1119 0.949 . S
H1144 C1121 0.950 . S
H1145 C1123 0.950 . S
C1146 C1147 1.349 . S
C1146 C1148 1.327 . S
C1146 H1171 0.950 . S
C1147 C1146 1.349 . S
C1147 C1163 1.349 . S
C1148 C1146 1.327 . S
C1148 C1167 1.429 . S
C1148 H1172 0.950 . S
C1149 C1166 1.574 . S
C1149 C1168 1.368 . S
C1149 H1173 0.949 . S
H1150 C1154 0.949 . S
C1151 C1152 1.349 . S
C1151 C1153 1.327 . S
C1151 H1174 0.950 . S
C1152 C1151 1.349 . S
C1152 C1164 1.349 . S
C1153 C1151 1.327 . S
C1153 C1169 1.429 . S
C1153 H1175 0.950 . S
C1154 H1150 0.949 . S
C1154 C1162 1.574 . S
C1154 C1170 1.368 . S
H1155 C1163 0.950 . S
H1156 C1161 0.950 . S
H1157 C1162 0.949 . S
H1158 C1164 0.950 . S
H1159 C1165 0.950 . S
H1160 C1166 0.949 . S
C1161 H1156 0.950 . S
C1161 C1163 1.327 . S
C1161 C1167 1.429 . S
C1162 C1154 1.574 . S
C1162 H1157 0.949 . S
C1162 C1168 1.368 . S
C1163 C1147 1.349 . S
C1163 H1155 0.950 . S
C1163 C1161 1.327 . S
C1164 C1152 1.349 . S
C1164 H1158 0.950 . S
C1164 C1165 1.327 . S
C1165 H1159 0.950 . S
C1165 C1164 1.327 . S
C1165 C1169 1.429 . S
C1166 C1149 1.574 . S
C1166 H1160 0.949 . S
C1166 C1170 1.368 . S
C1167 C1148 1.429 . S
C1167 C1161 1.429 . S
C1167 C1168 1.523 . S
C1168 C1149 1.368 . S
C1168 C1162 1.368 . S
C1168 C1167 1.523 . S
C1169 C1153 1.429 . S
C1169 C1165 1.429 . S
C1169 C1170 1.523 . S
C1170 C1154 1.368 . S
C1170 C1166 1.368 . S
C1170 C1169 1.523 . S
H1171 C1146 0.950 . S
H1172 C1148 0.950 . S
H1173 C1149 0.949 . S
H1174 C1151 0.950 . S
H1175 C1153 0.950 . S
C1176 C1177 1.349 . S
C1176 C1178 1.327 . S
C1176 H1201 0.950 . S
C1177 C1176 1.349 . S
C1177 C1193 1.349 . S
C1178 C1176 1.327 . S
C1178 C1197 1.429 . S
C1178 H1202 0.950 . S
C1179 C1196 1.574 . S
C1179 C1198 1.368 . S
C1179 H1203 0.949 . S
H1180 C1184 0.949 . S
C1181 C1182 1.349 . S
C1181 C1183 1.327 . S
C1181 H1204 0.950 . S
C1182 C1181 1.349 . S
C1182 C1194 1.349 . S
C1183 C1181 1.327 . S
C1183 C1199 1.429 . S
C1183 H1205 0.950 . S
C1184 H1180 0.949 . S
C1184 C1192 1.574 . S
C1184 C1200 1.368 . S
H1185 C1193 0.950 . S
H1186 C1191 0.950 . S
H1187 C1192 0.949 . S
H1188 C1194 0.950 . S
H1189 C1195 0.950 . S
H1190 C1196 0.949 . S
C1191 H1186 0.950 . S
C1191 C1193 1.327 . S
C1191 C1197 1.429 . S
C1192 C1184 1.574 . S
C1192 H1187 0.949 . S
C1192 C1198 1.368 . S
C1193 C1177 1.349 . S
C1193 H1185 0.950 . S
C1193 C1191 1.327 . S
C1194 C1182 1.349 . S
C1194 H1188 0.950 . S
C1194 C1195 1.327 . S
C1195 H1189 0.950 . S
C1195 C1194 1.327 . S
C1195 C1199 1.429 . S
C1196 C1179 1.574 . S
C1196 H1190 0.949 . S
C1196 C1200 1.368 . S
C1197 C1178 1.429 . S
C1197 C1191 1.429 . S
C1197 C1198 1.523 . S
C1198 C1179 1.368 . S
C1198 C1192 1.368 . S
C1198 C1197 1.523 . S
C1199 C1183 1.429 . S
C1199 C1195 1.429 . S
C1199 C1200 1.523 . S
C1200 C1184 1.368 . S
C1200 C1196 1.368 . S
C1200 C1199 1.523 . S
H1201 C1176 0.950 . S
H1202 C1178 0.950 . S
H1203 C1179 0.949 . S
H1204 C1181 0.950 . S
H1205 C1183 0.950 . S
C1206 C1207 1.349 . S
C1206 C1208 1.327 . S
C1206 H1231 0.950 . S
C1207 C1206 1.349 . S
C1207 C1223 1.349 . S
C1208 C1206 1.327 . S
C1208 C1227 1.429 . S
C1208 H1232 0.950 . S
C1209 C1226 1.574 . S
C1209 C1228 1.368 . S
C1209 H1233 0.949 . S
H1210 C1214 0.949 . S
C1211 C1212 1.349 . S
C1211 C1213 1.327 . S
C1211 H1234 0.950 . S
C1212 C1211 1.349 . S
C1212 C1224 1.349 . S
C1213 C1211 1.327 . S
C1213 C1229 1.429 . S
C1213 H1235 0.950 . S
C1214 H1210 0.949 . S
C1214 C1222 1.574 . S
C1214 C1230 1.368 . S
H1215 C1223 0.950 . S
H1216 C1221 0.950 . S
H1217 C1222 0.949 . S
H1218 C1224 0.950 . S
H1219 C1225 0.950 . S
H1220 C1226 0.949 . S
C1221 H1216 0.950 . S
C1221 C1223 1.327 . S
C1221 C1227 1.429 . S
C1222 C1214 1.574 . S
C1222 H1217 0.949 . S
C1222 C1228 1.368 . S
C1223 C1207 1.349 . S
C1223 H1215 0.950 . S
C1223 C1221 1.327 . S
C1224 C1212 1.349 . S
C1224 H1218 0.950 . S
C1224 C1225 1.327 . S
C1225 H1219 0.950 . S
C1225 C1224 1.327 . S
C1225 C1229 1.429 . S
C1226 C1209 1.574 . S
C1226 H1220 0.949 . S
C1226 C1230 1.368 . S
C1227 C1208 1.429 . S
C1227 C1221 1.429 . S
C1227 C1228 1.523 . S
C1228 C1209 1.368 . S
C1228 C1222 1.368 . S
C1228 C1227 1.523 . S
C1229 C1213 1.429 . S
C1229 C1225 1.429 . S
C1229 C1230 1.523 . S
C1230 C1214 1.368 . S
C1230 C1226 1.368 . S
C1230 C1229 1.523 . S
H1231 C1206 0.950 . S
H1232 C1208 0.950 . S
H1233 C1209 0.949 . S
H1234 C1211 0.950 . S
H1235 C1213 0.950 . S
C1236 C1237 1.349 . S
C1236 C1238 1.327 . S
C1236 H1261 0.950 . S
C1237 C1236 1.349 . S
C1237 C1253 1.349 . S
C1238 C1236 1.327 . S
C1238 C1257 1.429 . S
C1238 H1262 0.950 . S
C1239 C1256 1.574 . S
C1239 C1258 1.368 . S
C1239 H1263 0.949 . S
H1240 C1244 0.949 . S
C1241 C1242 1.349 . S
C1241 C1243 1.327 . S
C1241 H1264 0.950 . S
C1242 C1241 1.349 . S
C1242 C1254 1.349 . S
C1243 C1241 1.327 . S
C1243 C1259 1.429 . S
C1243 H1265 0.950 . S
C1244 H1240 0.949 . S
C1244 C1252 1.574 . S
C1244 C1260 1.368 . S
H1245 C1253 0.950 . S
H1246 C1251 0.950 . S
H1247 C1252 0.949 . S
H1248 C1254 0.950 . S
H1249 C1255 0.950 . S
H1250 C1256 0.949 . S
C1251 H1246 0.950 . S
C1251 C1253 1.327 . S
C1251 C1257 1.429 . S
C1252 C1244 1.574 . S
C1252 H1247 0.949 . S
C1252 C1258 1.368 . S
C1253 C1237 1.349 . S
C1253 H1245 0.950 . S
C1253 C1251 1.327 . S
C1254 C1242 1.349 . S
C1254 H1248 0.950 . S
C1254 C1255 1.327 . S
C1255 H1249 0.950 . S
C1255 C1254 1.327 . S
C1255 C1259 1.429 . S
C1256 C1239 1.574 . S
C1256 H1250 0.949 . S
C1256 C1260 1.368 . S
C1257 C1238 1.429 . S
C1257 C1251 1.429 . S
C1257 C1258 1.523 . S
C1258 C1239 1.368 . S
C1258 C1252 1.368 . S
C1258 C1257 1.523 . S
C1259 C1243 1.429 . S
C1259 C1255 1.429 . S
C1259 C1260 1.523 . S
C1260 C1244 1.368 . S
C1260 C1256 1.368 . S
C1260 C1259 1.523 . S
H1261 C1236 0.950 . S
H1262 C1238 0.950 . S
H1263 C1239 0.949 . S
H1264 C1241 0.950 . S
H1265 C1243 0.950 . S
C1266 C1267 1.349 . S
C1266 C1268 1.327 . S
C1266 H1291 0.950 . S
C1267 C1266 1.349 . S
C1267 C1283 1.349 . S
C1268 C1266 1.327 . S
C1268 C1287 1.429 . S
C1268 H1292 0.950 . S
C1269 C1286 1.574 1_655 S
C1269 C1288 1.368 . S
C1269 H1293 0.949 . S
H1270 C1274 0.949 . S
C1271 C1272 1.349 . S
C1271 C1273 1.327 . S
C1271 H1294 0.950 . S
C1272 C1271 1.349 . S
C1272 C1284 1.349 . S
C1273 C1271 1.327 . S
C1273 C1289 1.429 . S
C1273 H1295 0.950 . S
C1274 H1270 0.949 . S
C1274 C1282 1.574 1_455 S
C1274 C1290 1.368 . S
H1275 C1283 0.950 . S
H1276 C1281 0.950 . S
H1277 C1282 0.949 . S
H1278 C1284 0.950 . S
H1279 C1285 0.950 . S
H1280 C1286 0.949 . S
C1281 H1276 0.950 . S
C1281 C1283 1.327 . S
C1281 C1287 1.429 . S
C1282 C1274 1.574 1_655 S
C1282 H1277 0.949 . S
C1282 C1288 1.368 . S
C1283 C1267 1.349 . S
C1283 H1275 0.950 . S
C1283 C1281 1.327 . S
C1284 C1272 1.349 . S
C1284 H1278 0.950 . S
C1284 C1285 1.327 . S
C1285 H1279 0.950 . S
C1285 C1284 1.327 . S
C1285 C1289 1.429 . S
C1286 C1269 1.574 1_455 S
C1286 H1280 0.949 . S
C1286 C1290 1.368 . S
C1287 C1268 1.429 . S
C1287 C1281 1.429 . S
C1287 C1288 1.523 . S
C1288 C1269 1.368 . S
C1288 C1282 1.368 . S
C1288 C1287 1.523 . S
C1289 C1273 1.429 . S
C1289 C1285 1.429 . S
C1289 C1290 1.523 . S
C1290 C1274 1.368 . S
C1290 C1286 1.368 . S
C1290 C1289 1.523 . S
H1291 C1266 0.950 . S
H1292 C1268 0.950 . S
H1293 C1269 0.949 . S
H1294 C1271 0.950 . S
H1295 C1273 0.950 . S
C1296 C1297 1.349 . S
C1296 C1298 1.327 . S
C1296 H1321 0.950 . S
C1297 C1296 1.349 . S
C1297 C1313 1.349 . S
C1298 C1296 1.327 . S
C1298 C1317 1.429 . S
C1298 H1322 0.950 . S
C1299 C1316 1.574 . S
C1299 C1318 1.368 . S
C1299 H1323 0.949 . S
H1300 C1304 0.949 . S
C1301 C1302 1.349 . S
C1301 C1303 1.327 . S
C1301 H1324 0.950 . S
C1302 C1301 1.349 . S
C1302 C1314 1.349 . S
C1303 C1301 1.327 . S
C1303 C1319 1.429 . S
C1303 H1325 0.950 . S
C1304 H1300 0.949 . S
C1304 C1312 1.574 . S
C1304 C1320 1.368 . S
H1305 C1313 0.950 . S
H1306 C1311 0.950 . S
H1307 C1312 0.949 . S
H1308 C1314 0.950 . S
H1309 C1315 0.950 . S
H1310 C1316 0.949 . S
C1311 H1306 0.950 . S
C1311 C1313 1.327 . S
C1311 C1317 1.429 . S
C1312 C1304 1.574 . S
C1312 H1307 0.949 . S
C1312 C1318 1.368 . S
C1313 C1297 1.349 . S
C1313 H1305 0.950 . S
C1313 C1311 1.327 . S
C1314 C1302 1.349 . S
C1314 H1308 0.950 . S
C1314 C1315 1.327 . S
C1315 H1309 0.950 . S
C1315 C1314 1.327 . S
C1315 C1319 1.429 . S
C1316 C1299 1.574 . S
C1316 H1310 0.949 . S
C1316 C1320 1.368 . S
C1317 C1298 1.429 . S
C1317 C1311 1.429 . S
C1317 C1318 1.523 . S
C1318 C1299 1.368 . S
C1318 C1312 1.368 . S
C1318 C1317 1.523 . S
C1319 C1303 1.429 . S
C1319 C1315 1.429 . S
C1319 C1320 1.523 . S
C1320 C1304 1.368 . S
C1320 C1316 1.368 . S
C1320 C1319 1.523 . S
H1321 C1296 0.950 . S
H1322 C1298 0.950 . S
H1323 C1299 0.949 . S
H1324 C1301 0.950 . S
H1325 C1303 0.950 . S
C1326 C1327 1.349 . S
C1326 C1328 1.327 . S
C1326 H1351 0.950 . S
C1327 C1326 1.349 . S
C1327 C1343 1.349 . S
C1328 C1326 1.327 . S
C1328 C1347 1.429 . S
C1328 H1352 0.950 . S
C1329 C1346 1.574 . S
C1329 C1348 1.368 . S
C1329 H1353 0.949 . S
H1330 C1334 0.949 . S
C1331 C1332 1.349 . S
C1331 C1333 1.327 . S
C1331 H1354 0.950 . S
C1332 C1331 1.349 . S
C1332 C1344 1.349 . S
C1333 C1331 1.327 . S
C1333 C1349 1.429 . S
C1333 H1355 0.950 . S
C1334 H1330 0.949 . S
C1334 C1342 1.574 . S
C1334 C1350 1.368 . S
H1335 C1343 0.950 . S
H1336 C1341 0.950 . S
H1337 C1342 0.949 . S
H1338 C1344 0.950 . S
H1339 C1345 0.950 . S
H1340 C1346 0.949 . S
C1341 H1336 0.950 . S
C1341 C1343 1.327 . S
C1341 C1347 1.429 . S
C1342 C1334 1.574 . S
C1342 H1337 0.949 . S
C1342 C1348 1.368 . S
C1343 C1327 1.349 . S
C1343 H1335 0.950 . S
C1343 C1341 1.327 . S
C1344 C1332 1.349 . S
C1344 H1338 0.950 . S
C1344 C1345 1.327 . S
C1345 H1339 0.950 . S
C1345 C1344 1.327 . S
C1345 C1349 1.429 . S
C1346 C1329 1.574 . S
C1346 H1340 0.949 . S
C1346 C1350 1.368 . S
C1347 C1328 1.429 . S
C1347 C1341 1.429 . S
C1347 C1348 1.523 . S
C1348 C1329 1.368 . S
C1348 C1342 1.368 . S
C1348 C1347 1.523 . S
C1349 C1333 1.429 . S
C1349 C1345 1.429 . S
C1349 C1350 1.523 . S
C1350 C1334 1.368 . S
C1350 C1346 1.368 . S
C1350 C1349 1.523 . S
H1351 C1326 0.950 . S
H1352 C1328 0.950 . S
H1353 C1329 0.949 . S
H1354 C1331 0.950 . S
H1355 C1333 0.950 . S
C1356 C1357 1.349 . S
C1356 C1358 1.327 . S
C1356 H1381 0.950 . S
C1357 C1356 1.349 . S
C1357 C1373 1.349 . S
C1358 C1356 1.327 . S
C1358 C1377 1.429 . S
C1358 H1382 0.950 . S
C1359 C1376 1.574 . S
C1359 C1378 1.368 . S
C1359 H1383 0.949 . S
H1360 C1364 0.949 . S
C1361 C1362 1.349 . S
C1361 C1363 1.327 . S
C1361 H1384 0.950 . S
C1362 C1361 1.349 . S
C1362 C1374 1.349 . S
C1363 C1361 1.327 . S
C1363 C1379 1.429 . S
C1363 H1385 0.950 . S
C1364 H1360 0.949 . S
C1364 C1372 1.574 . S
C1364 C1380 1.368 . S
H1365 C1373 0.950 . S
H1366 C1371 0.950 . S
H1367 C1372 0.949 . S
H1368 C1374 0.950 . S
H1369 C1375 0.950 . S
H1370 C1376 0.949 . S
C1371 H1366 0.950 . S
C1371 C1373 1.327 . S
C1371 C1377 1.429 . S
C1372 C1364 1.574 . S
C1372 H1367 0.949 . S
C1372 C1378 1.368 . S
C1373 C1357 1.349 . S
C1373 H1365 0.950 . S
C1373 C1371 1.327 . S
C1374 C1362 1.349 . S
C1374 H1368 0.950 . S
C1374 C1375 1.327 . S
C1375 H1369 0.950 . S
C1375 C1374 1.327 . S
C1375 C1379 1.429 . S
C1376 C1359 1.574 . S
C1376 H1370 0.949 . S
C1376 C1380 1.368 . S
C1377 C1358 1.429 . S
C1377 C1371 1.429 . S
C1377 C1378 1.523 . S
C1378 C1359 1.368 . S
C1378 C1372 1.368 . S
C1378 C1377 1.523 . S
C1379 C1363 1.429 . S
C1379 C1375 1.429 . S
C1379 C1380 1.523 . S
C1380 C1364 1.368 . S
C1380 C1376 1.368 . S
C1380 C1379 1.523 . S
H1381 C1356 0.950 . S
H1382 C1358 0.950 . S
H1383 C1359 0.949 . S
H1384 C1361 0.950 . S
H1385 C1363 0.950 . S
C1386 C1387 1.349 . S
C1386 C1388 1.327 . S
C1386 H1411 0.950 . S
C1387 C1386 1.349 . S
C1387 C1403 1.349 . S
C1388 C1386 1.327 . S
C1388 C1407 1.429 . S
C1388 H1412 0.950 . S
C1389 C1406 1.574 . S
C1389 C1408 1.368 . S
C1389 H1413 0.949 . S
H1390 C1394 0.949 . S
C1391 C1392 1.349 . S
C1391 C1393 1.327 . S
C1391 H1414 0.950 . S
C1392 C1391 1.349 . S
C1392 C1404 1.349 . S
C1393 C1391 1.327 . S
C1393 C1409 1.429 . S
C1393 H1415 0.950 . S
C1394 H1390 0.949 . S
C1394 C1402 1.574 . S
C1394 C1410 1.368 . S
H1395 C1403 0.950 . S
H1396 C1401 0.950 . S
H1397 C1402 0.949 . S
H1398 C1404 0.950 . S
H1399 C1405 0.950 . S
H1400 C1406 0.949 . S
C1401 H1396 0.950 . S
C1401 C1403 1.327 . S
C1401 C1407 1.429 . S
C1402 C1394 1.574 . S
C1402 H1397 0.949 . S
C1402 C1408 1.368 . S
C1403 C1387 1.349 . S
C1403 H1395 0.950 . S
C1403 C1401 1.327 . S
C1404 C1392 1.349 . S
C1404 H1398 0.950 . S
C1404 C1405 1.327 . S
C1405 H1399 0.950 . S
C1405 C1404 1.327 . S
C1405 C1409 1.429 . S
C1406 C1389 1.574 . S
C1406 H1400 0.949 . S
C1406 C1410 1.368 . S
C1407 C1388 1.429 . S
C1407 C1401 1.429 . S
C1407 C1408 1.523 . S
C1408 C1389 1.368 . S
C1408 C1402 1.368 . S
C1408 C1407 1.523 . S
C1409 C1393 1.429 . S
C1409 C1405 1.429 . S
C1409 C1410 1.523 . S
C1410 C1394 1.368 . S
C1410 C1406 1.368 . S
C1410 C1409 1.523 . S
H1411 C1386 0.950 . S
H1412 C1388 0.950 . S
H1413 C1389 0.949 . S
H1414 C1391 0.950 . S
H1415 C1393 0.950 . S
C1416 C1417 1.349 . S
C1416 C1418 1.327 . S
C1416 H1441 0.950 . S
C1417 C1416 1.349 . S
C1417 C1433 1.349 . S
C1418 C1416 1.327 . S
C1418 C1437 1.429 . S
C1418 H1442 0.950 . S
C1419 C1436 1.574 . S
C1419 C1438 1.368 . S
C1419 H1443 0.949 . S
H1420 C1424 0.949 . S
C1421 C1422 1.349 . S
C1421 C1423 1.327 . S
C1421 H1444 0.950 . S
C1422 C1421 1.349 . S
C1422 C1434 1.349 . S
C1423 C1421 1.327 . S
C1423 C1439 1.429 . S
C1423 H1445 0.950 . S
C1424 H1420 0.949 . S
C1424 C1432 1.574 . S
C1424 C1440 1.368 . S
H1425 C1433 0.950 . S
H1426 C1431 0.950 . S
H1427 C1432 0.949 . S
H1428 C1434 0.950 . S
H1429 C1435 0.950 . S
H1430 C1436 0.949 . S
C1431 H1426 0.950 . S
C1431 C1433 1.327 . S
C1431 C1437 1.429 . S
C1432 C1424 1.574 . S
C1432 H1427 0.949 . S
C1432 C1438 1.368 . S
C1433 C1417 1.349 . S
C1433 H1425 0.950 . S
C1433 C1431 1.327 . S
C1434 C1422 1.349 . S
C1434 H1428 0.950 . S
C1434 C1435 1.327 . S
C1435 H1429 0.950 . S
C1435 C1434 1.327 . S
C1435 C1439 1.429 . S
C1436 C1419 1.574 . S
C1436 H1430 0.949 . S
C1436 C1440 1.368 . S
C1437 C1418 1.429 . S
C1437 C1431 1.429 . S
C1437 C1438 1.523 . S
C1438 C1419 1.368 . S
C1438 C1432 1.368 . S
C1438 C1437 1.523 . S
C1439 C1423 1.429 . S
C1439 C1435 1.429 . S
C1439 C1440 1.523 . S
C1440 C1424 1.368 . S
C1440 C1436 1.368 . S
C1440 C1439 1.523 . S
H1441 C1416 0.950 . S
H1442 C1418 0.950 . S
H1443 C1419 0.949 . S
H1444 C1421 0.950 . S
H1445 C1423 0.950 . S
C1446 C1447 1.349 . S
C1446 C1448 1.327 . S
C1446 H1471 0.950 . S
C1447 C1446 1.349 . S
C1447 C1463 1.349 . S
C1448 C1446 1.327 . S
C1448 C1467 1.429 . S
C1448 H1472 0.950 . S
C1449 C1466 1.574 1_455 S
C1449 C1468 1.368 . S
C1449 H1473 0.949 . S
H1450 C1454 0.949 . S
C1451 C1452 1.349 . S
C1451 C1453 1.327 . S
C1451 H1474 0.950 . S
C1452 C1451 1.349 . S
C1452 C1464 1.349 . S
C1453 C1451 1.327 . S
C1453 C1469 1.429 . S
C1453 H1475 0.950 . S
C1454 H1450 0.949 . S
C1454 C1462 1.574 1_655 S
C1454 C1470 1.368 . S
H1455 C1463 0.950 . S
H1456 C1461 0.950 . S
H1457 C1462 0.949 . S
H1458 C1464 0.950 . S
H1459 C1465 0.950 . S
H1460 C1466 0.949 . S
C1461 H1456 0.950 . S
C1461 C1463 1.327 . S
C1461 C1467 1.429 . S
C1462 C1454 1.574 1_455 S
C1462 H1457 0.949 . S
C1462 C1468 1.368 . S
C1463 C1447 1.349 . S
C1463 H1455 0.950 . S
C1463 C1461 1.327 . S
C1464 C1452 1.349 . S
C1464 H1458 0.950 . S
C1464 C1465 1.327 . S
C1465 H1459 0.950 . S
C1465 C1464 1.327 . S
C1465 C1469 1.429 . S
C1466 C1449 1.574 1_655 S
C1466 H1460 0.949 . S
C1466 C1470 1.368 . S
C1467 C1448 1.429 . S
C1467 C1461 1.429 . S
C1467 C1468 1.523 . S
C1468 C1449 1.368 . S
C1468 C1462 1.368 . S
C1468 C1467 1.523 . S
C1469 C1453 1.429 . S
C1469 C1465 1.429 . S
C1469 C1470 1.523 . S
C1470 C1454 1.368 . S
C1470 C1466 1.368 . S
C1470 C1469 1.523 . S
H1471 C1446 0.950 . S
H1472 C1448 0.950 . S
H1473 C1449 0.949 . S
H1474 C1451 0.950 . S
H1475 C1453 0.950 . S
C1476 C1477 1.349 . S
C1476 C1478 1.327 . S
C1476 H1501 0.950 . S
C1477 C1476 1.349 . S
C1477 C1493 1.349 . S
C1478 C1476 1.327 . S
C1478 C1497 1.429 . S
C1478 H1502 0.950 . S
C1479 C1496 1.574 1_455 S
C1479 C1498 1.368 . S
C1479 H1503 0.949 . S
H1480 C1484 0.949 . S
C1481 C1482 1.349 . S
C1481 C1483 1.327 . S
C1481 H1504 0.950 . S
C1482 C1481 1.349 . S
C1482 C1494 1.349 . S
C1483 C1481 1.327 . S
C1483 C1499 1.429 . S
C1483 H1505 0.950 . S
C1484 H1480 0.949 . S
C1484 C1492 1.574 1_655 S
C1484 C1500 1.368 . S
H1485 C1493 0.950 . S
H1486 C1491 0.950 . S
H1487 C1492 0.949 . S
H1488 C1494 0.950 . S
H1489 C1495 0.950 . S
H1490 C1496 0.949 . S
C1491 H1486 0.950 . S
C1491 C1493 1.327 . S
C1491 C1497 1.429 . S
C1492 C1484 1.574 1_455 S
C1492 H1487 0.949 . S
C1492 C1498 1.368 . S
C1493 C1477 1.349 . S
C1493 H1485 0.950 . S
C1493 C1491 1.327 . S
C1494 C1482 1.349 . S
C1494 H1488 0.950 . S
C1494 C1495 1.327 . S
C1495 H1489 0.950 . S
C1495 C1494 1.327 . S
C1495 C1499 1.429 . S
C1496 C1479 1.574 1_655 S
C1496 H1490 0.949 . S
C1496 C1500 1.368 . S
C1497 C1478 1.429 . S
C1497 C1491 1.429 . S
C1497 C1498 1.523 . S
C1498 C1479 1.368 . S
C1498 C1492 1.368 . S
C1498 C1497 1.523 . S
C1499 C1483 1.429 . S
C1499 C1495 1.429 . S
C1499 C1500 1.523 . S
C1500 C1484 1.368 . S
C1500 C1496 1.368 . S
C1500 C1499 1.523 . S
H1501 C1476 0.950 . S
H1502 C1478 0.950 . S
H1503 C1479 0.949 . S
H1504 C1481 0.950 . S
H1505 C1483 0.950 . S
C1506 C1507 1.349 . S
C1506 C1508 1.327 . S
C1506 H1531 0.950 . S
C1507 C1506 1.349 . S
C1507 C1523 1.349 . S
C1508 C1506 1.327 . S
C1508 C1527 1.429 . S
C1508 H1532 0.950 . S
C1509 C1526 1.574 . S
C1509 C1528 1.368 . S
C1509 H1533 0.949 . S
H1510 C1514 0.949 . S
C1511 C1512 1.349 . S
C1511 C1513 1.327 . S
C1511 H1534 0.950 . S
C1512 C1511 1.349 . S
C1512 C1524 1.349 . S
C1513 C1511 1.327 . S
C1513 C1529 1.429 . S
C1513 H1535 0.950 . S
C1514 H1510 0.949 . S
C1514 C1522 1.574 . S
C1514 C1530 1.368 . S
H1515 C1523 0.950 . S
H1516 C1521 0.950 . S
H1517 C1522 0.949 . S
H1518 C1524 0.950 . S
H1519 C1525 0.950 . S
H1520 C1526 0.949 . S
C1521 H1516 0.950 . S
C1521 C1523 1.327 . S
C1521 C1527 1.429 . S
C1522 C1514 1.574 . S
C1522 H1517 0.949 . S
C1522 C1528 1.368 . S
C1523 C1507 1.349 . S
C1523 H1515 0.950 . S
C1523 C1521 1.327 . S
C1524 C1512 1.349 . S
C1524 H1518 0.950 . S
C1524 C1525 1.327 . S
C1525 H1519 0.950 . S
C1525 C1524 1.327 . S
C1525 C1529 1.429 . S
C1526 C1509 1.574 . S
C1526 H1520 0.949 . S
C1526 C1530 1.368 . S
C1527 C1508 1.429 . S
C1527 C1521 1.429 . S
C1527 C1528 1.523 . S
C1528 C1509 1.368 . S
C1528 C1522 1.368 . S
C1528 C1527 1.523 . S
C1529 C1513 1.429 . S
C1529 C1525 1.429 . S
C1529 C1530 1.523 . S
C1530 C1514 1.368 . S
C1530 C1526 1.368 . S
C1530 C1529 1.523 . S
H1531 C1506 0.950 . S
H1532 C1508 0.950 . S
H1533 C1509 0.949 . S
H1534 C1511 0.950 . S
H1535 C1513 0.950 . S
C1536 C1537 1.349 . S
C1536 C1538 1.327 . S
C1536 H1561 0.950 . S
C1537 C1536 1.349 . S
C1537 C1553 1.349 . S
C1538 C1536 1.327 . S
C1538 C1557 1.429 . S
C1538 H1562 0.950 . S
C1539 C1556 1.574 . S
C1539 C1558 1.368 . S
C1539 H1563 0.949 . S
H1540 C1544 0.949 . S
C1541 C1542 1.349 . S
C1541 C1543 1.327 . S
C1541 H1564 0.950 . S
C1542 C1541 1.349 . S
C1542 C1554 1.349 . S
C1543 C1541 1.327 . S
C1543 C1559 1.429 . S
C1543 H1565 0.950 . S
C1544 H1540 0.949 . S
C1544 C1552 1.574 . S
C1544 C1560 1.368 . S
H1545 C1553 0.950 . S
H1546 C1551 0.950 . S
H1547 C1552 0.949 . S
H1548 C1554 0.950 . S
H1549 C1555 0.950 . S
H1550 C1556 0.949 . S
C1551 H1546 0.950 . S
C1551 C1553 1.327 . S
C1551 C1557 1.429 . S
C1552 C1544 1.574 . S
C1552 H1547 0.949 . S
C1552 C1558 1.368 . S
C1553 C1537 1.349 . S
C1553 H1545 0.950 . S
C1553 C1551 1.327 . S
C1554 C1542 1.349 . S
C1554 H1548 0.950 . S
C1554 C1555 1.327 . S
C1555 H1549 0.950 . S
C1555 C1554 1.327 . S
C1555 C1559 1.429 . S
C1556 C1539 1.574 . S
C1556 H1550 0.949 . S
C1556 C1560 1.368 . S
C1557 C1538 1.429 . S
C1557 C1551 1.429 . S
C1557 C1558 1.523 . S
C1558 C1539 1.368 . S
C1558 C1552 1.368 . S
C1558 C1557 1.523 . S
C1559 C1543 1.429 . S
C1559 C1555 1.429 . S
C1559 C1560 1.523 . S
C1560 C1544 1.368 . S
C1560 C1556 1.368 . S
C1560 C1559 1.523 . S
H1561 C1536 0.950 . S
H1562 C1538 0.950 . S
H1563 C1539 0.949 . S
H1564 C1541 0.950 . S
H1565 C1543 0.950 . S
C1566 C1567 1.349 . S
C1566 C1568 1.327 . S
C1566 H1591 0.950 . S
C1567 C1566 1.349 . S
C1567 C1583 1.349 . S
C1568 C1566 1.327 . S
C1568 C1587 1.429 . S
C1568 H1592 0.950 . S
C1569 C1586 1.574 . S
C1569 C1588 1.368 . S
C1569 H1593 0.949 . S
H1570 C1574 0.949 . S
C1571 C1572 1.349 . S
C1571 C1573 1.327 1_554 S
C1571 H1594 0.950 . S
C1572 C1571 1.349 . S
C1572 C1584 1.349 . S
C1573 C1571 1.327 1_556 S
C1573 C1589 1.429 . S
C1573 H1595 0.950 . S
C1574 H1570 0.949 . S
C1574 C1582 1.574 . S
C1574 C1590 1.368 . S
H1575 C1583 0.950 . S
H1576 C1581 0.950 . S
H1577 C1582 0.949 . S
H1578 C1584 0.950 . S
H1579 C1585 0.955 . S
H1580 C1586 0.949 . S
C1581 H1576 0.950 . S
C1581 C1583 1.327 . S
C1581 C1587 1.429 . S
C1582 C1574 1.574 . S
C1582 H1577 0.949 . S
C1582 C1588 1.368 . S
C1583 C1567 1.349 . S
C1583 H1575 0.950 . S
C1583 C1581 1.327 . S
C1584 C1572 1.349 . S
C1584 H1578 0.950 . S
C1584 C1585 1.314 1_554 S
C1585 H1579 0.955 . S
C1585 C1584 1.314 1_556 S
C1585 C1589 1.437 . S
C1586 C1569 1.574 . S
C1586 H1580 0.949 . S
C1586 C1590 1.368 . S
C1587 C1568 1.429 . S
C1587 C1581 1.429 . S
C1587 C1588 1.523 . S
C1588 C1569 1.368 . S
C1588 C1582 1.368 . S
C1588 C1587 1.523 . S
C1589 C1573 1.429 . S
C1589 C1585 1.437 . S
C1589 C1590 1.523 . S
C1590 C1574 1.368 . S
C1590 C1586 1.368 . S
C1590 C1589 1.523 . S
H1591 C1566 0.950 . S
H1592 C1568 0.950 . S
H1593 C1569 0.949 . S
H1594 C1571 0.950 . S
H1595 C1573 0.950 . S
C1596 C1597 1.349 . S
C1596 C1598 1.327 . S
C1596 H1621 0.950 . S
C1597 C1596 1.349 . S
C1597 C1613 1.349 . S
C1598 C1596 1.327 . S
C1598 C1617 1.429 . S
C1598 H1622 0.950 . S
C1599 C1616 1.574 . S
C1599 C1618 1.368 . S
C1599 H1623 0.949 . S
H1600 C1604 0.949 . S
C1601 C1602 1.349 . S
C1601 C1603 1.327 . S
C1601 H1624 0.950 . S
C1602 C1601 1.349 . S
C1602 C1614 1.349 . S
C1603 C1601 1.327 . S
C1603 C1619 1.429 . S
C1603 H1625 0.950 . S
C1604 H1600 0.949 . S
C1604 C1612 1.574 . S
C1604 C1620 1.368 . S
H1605 C1613 0.950 . S
H1606 C1611 0.950 . S
H1607 C1612 0.949 . S
H1608 C1614 0.950 . S
H1609 C1615 0.950 . S
H1610 C1616 0.949 . S
C1611 H1606 0.950 . S
C1611 C1613 1.327 . S
C1611 C1617 1.429 . S
C1612 C1604 1.574 . S
C1612 H1607 0.949 . S
C1612 C1618 1.368 . S
C1613 C1597 1.349 . S
C1613 H1605 0.950 . S
C1613 C1611 1.327 . S
C1614 C1602 1.349 . S
C1614 H1608 0.950 . S
C1614 C1615 1.327 . S
C1615 H1609 0.950 . S
C1615 C1614 1.327 . S
C1615 C1619 1.429 . S
C1616 C1599 1.574 . S
C1616 H1610 0.949 . S
C1616 C1620 1.368 . S
C1617 C1598 1.429 . S
C1617 C1611 1.429 . S
C1617 C1618 1.523 1_556 S
C1618 C1599 1.368 . S
C1618 C1612 1.368 . S
C1618 C1617 1.523 1_554 S
C1619 C1603 1.429 . S
C1619 C1615 1.429 . S
C1619 C1620 1.523 . S
C1620 C1604 1.368 . S
C1620 C1616 1.368 . S
C1620 C1619 1.523 . S
H1621 C1596 0.950 . S
H1622 C1598 0.950 . S
H1623 C1599 0.949 . S
H1624 C1601 0.950 . S
H1625 C1603 0.950 . S
C1626 C1627 1.349 . S
C1626 C1628 1.327 . S
C1626 H1651 0.950 . S
C1627 C1626 1.349 . S
C1627 C1643 1.349 . S
C1628 C1626 1.327 . S
C1628 C1647 1.429 . S
C1628 H1652 0.950 . S
C1629 C1646 1.574 . S
C1629 C1648 1.368 . S
C1629 H1653 0.949 . S
H1630 C1634 0.949 . S
C1631 C1632 1.349 . S
C1631 C1633 1.327 . S
C1631 H1654 0.950 . S
C1632 C1631 1.349 . S
C1632 C1644 1.349 . S
C1633 C1631 1.327 . S
C1633 C1649 1.429 . S
C1633 H1655 0.950 . S
C1634 H1630 0.949 . S
C1634 C1642 1.574 . S
C1634 C1650 1.368 . S
H1635 C1643 0.950 . S
H1636 C1641 0.950 . S
H1637 C1642 0.949 . S
H1638 C1644 0.950 . S
H1639 C1645 0.950 . S
H1640 C1646 0.949 . S
C1641 H1636 0.950 . S
C1641 C1643 1.327 . S
C1641 C1647 1.429 . S
C1642 C1634 1.574 . S
C1642 H1637 0.949 . S
C1642 C1648 1.368 . S
C1643 C1627 1.349 . S
C1643 H1635 0.950 . S
C1643 C1641 1.327 . S
C1644 C1632 1.349 . S
C1644 H1638 0.950 . S
C1644 C1645 1.327 . S
C1645 H1639 0.950 . S
C1645 C1644 1.327 . S
C1645 C1649 1.429 . S
C1646 C1629 1.574 . S
C1646 H1640 0.949 . S
C1646 C1650 1.368 . S
C1647 C1628 1.429 . S
C1647 C1641 1.429 . S
C1647 C1648 1.523 . S
C1648 C1629 1.368 . S
C1648 C1642 1.368 . S
C1648 C1647 1.523 . S
C1649 C1633 1.429 . S
C1649 C1645 1.429 . S
C1649 C1650 1.523 . S
C1650 C1634 1.368 . S
C1650 C1646 1.368 . S
C1650 C1649 1.523 . S
H1651 C1626 0.950 . S
H1652 C1628 0.950 . S
H1653 C1629 0.949 . S
H1654 C1631 0.950 . S
H1655 C1633 0.950 . S
C1656 C1657 1.349 . S
C1656 C1658 1.327 . S
C1656 H1681 0.950 . S
C1657 C1656 1.349 . S
C1657 C1673 1.349 . S
C1658 C1656 1.327 . S
C1658 C1677 1.429 . S
C1658 H1682 0.950 . S
C1659 C1676 1.574 . S
C1659 C1678 1.368 . S
C1659 H1683 0.949 . S
H1660 C1664 0.949 . S
C1661 C1662 1.349 . S
C1661 C1663 1.327 . S
C1661 H1684 0.950 . S
C1662 C1661 1.349 . S
C1662 C1674 1.349 . S
C1663 C1661 1.327 . S
C1663 C1679 1.429 . S
C1663 H1685 0.950 . S
C1664 H1660 0.949 . S
C1664 C1672 1.574 . S
C1664 C1680 1.368 . S
H1665 C1673 0.950 . S
H1666 C1671 0.950 . S
H1667 C1672 0.949 . S
H1668 C1674 0.950 . S
H1669 C1675 0.950 . S
H1670 C1676 0.949 . S
C1671 H1666 0.950 . S
C1671 C1673 1.327 . S
C1671 C1677 1.429 . S
C1672 C1664 1.574 . S
C1672 H1667 0.949 . S
C1672 C1678 1.368 . S
C1673 C1657 1.349 . S
C1673 H1665 0.950 . S
C1673 C1671 1.327 . S
C1674 C1662 1.349 . S
C1674 H1668 0.950 . S
C1674 C1675 1.327 . S
C1675 H1669 0.950 . S
C1675 C1674 1.327 . S
C1675 C1679 1.429 . S
C1676 C1659 1.574 . S
C1676 H1670 0.949 . S
C1676 C1680 1.368 . S
C1677 C1658 1.429 . S
C1677 C1671 1.429 . S
C1677 C1678 1.523 . S
C1678 C1659 1.368 . S
C1678 C1672 1.368 . S
C1678 C1677 1.523 . S
C1679 C1663 1.429 . S
C1679 C1675 1.429 . S
C1679 C1680 1.523 . S
C1680 C1664 1.368 . S
C1680 C1676 1.368 . S
C1680 C1679 1.523 . S
H1681 C1656 0.950 . S
H1682 C1658 0.950 . S
H1683 C1659 0.949 . S
H1684 C1661 0.950 . S
H1685 C1663 0.950 . S
C1686 C1687 1.349 . S
C1686 C1688 1.327 . S
C1686 H1711 0.950 . S
C1687 C1686 1.349 . S
C1687 C1703 1.349 . S
C1688 C1686 1.327 . S
C1688 C1707 1.429 . S
C1688 H1712 0.950 . S
C1689 C1706 1.574 . S
C1689 C1708 1.368 . S
C1689 H1713 0.949 . S
H1690 C1694 0.949 . S
C1691 C1692 1.349 . S
C1691 C1693 1.327 . S
C1691 H1714 0.950 . S
C1692 C1691 1.349 . S
C1692 C1704 1.349 . S
C1693 C1691 1.327 . S
C1693 C1709 1.429 . S
C1693 H1715 0.950 . S
C1694 H1690 0.949 . S
C1694 C1702 1.574 . S
C1694 C1710 1.368 . S
H1695 C1703 0.950 . S
H1696 C1701 0.950 . S
H1697 C1702 0.949 . S
H1698 C1704 0.950 . S
H1699 C1705 0.950 . S
H1700 C1706 0.949 . S
C1701 H1696 0.950 . S
C1701 C1703 1.327 . S
C1701 C1707 1.429 . S
C1702 C1694 1.574 . S
C1702 H1697 0.949 . S
C1702 C1708 1.368 . S
C1703 C1687 1.349 . S
C1703 H1695 0.950 . S
C1703 C1701 1.327 . S
C1704 C1692 1.349 . S
C1704 H1698 0.950 . S
C1704 C1705 1.327 . S
C1705 H1699 0.950 . S
C1705 C1704 1.327 . S
C1705 C1709 1.429 . S
C1706 C1689 1.574 . S
C1706 H1700 0.949 . S
C1706 C1710 1.368 . S
C1707 C1688 1.429 . S
C1707 C1701 1.429 . S
C1707 C1708 1.523 . S
C1708 C1689 1.368 . S
C1708 C1702 1.368 . S
C1708 C1707 1.523 . S
C1709 C1693 1.429 . S
C1709 C1705 1.429 . S
C1709 C1710 1.523 . S
C1710 C1694 1.368 . S
C1710 C1706 1.368 . S
C1710 C1709 1.523 . S
H1711 C1686 0.950 . S
H1712 C1688 0.950 . S
H1713 C1689 0.949 . S
H1714 C1691 0.950 . S
H1715 C1693 0.950 . S
C1716 C1717 1.349 . S
C1716 C1718 1.327 . S
C1716 H1741 0.950 . S
C1717 C1716 1.349 . S
C1717 C1733 1.349 . S
C1718 C1716 1.327 . S
C1718 C1737 1.429 . S
C1718 H1742 0.950 . S
C1719 C1736 1.574 . S
C1719 C1738 1.368 . S
C1719 H1743 0.949 . S
H1720 C1724 0.949 . S
C1721 C1722 1.349 . S
C1721 C1723 1.327 . S
C1721 H1744 0.950 . S
C1722 C1721 1.349 . S
C1722 C1734 1.349 . S
C1723 C1721 1.327 . S
C1723 C1739 1.429 . S
C1723 H1745 0.950 . S
C1724 H1720 0.949 . S
C1724 C1732 1.574 . S
C1724 C1740 1.368 . S
H1725 C1733 0.950 . S
H1726 C1731 0.950 . S
H1727 C1732 0.949 . S
H1728 C1734 0.950 . S
H1729 C1735 0.950 . S
H1730 C1736 0.949 . S
C1731 H1726 0.950 . S
C1731 C1733 1.327 . S
C1731 C1737 1.429 . S
C1732 C1724 1.574 . S
C1732 H1727 0.949 . S
C1732 C1738 1.368 . S
C1733 C1717 1.349 . S
C1733 H1725 0.950 . S
C1733 C1731 1.327 . S
C1734 C1722 1.349 . S
C1734 H1728 0.950 . S
C1734 C1735 1.327 . S
C1735 H1729 0.950 . S
C1735 C1734 1.327 . S
C1735 C1739 1.429 . S
C1736 C1719 1.574 . S
C1736 H1730 0.949 . S
C1736 C1740 1.368 . S
C1737 C1718 1.429 . S
C1737 C1731 1.429 . S
C1737 C1738 1.523 . S
C1738 C1719 1.368 . S
C1738 C1732 1.368 . S
C1738 C1737 1.523 . S
C1739 C1723 1.429 . S
C1739 C1735 1.429 . S
C1739 C1740 1.523 1_554 S
C1740 C1724 1.368 . S
C1740 C1736 1.368 . S
C1740 C1739 1.523 1_556 S
H1741 C1716 0.950 . S
H1742 C1718 0.950 . S
H1743 C1719 0.949 . S
H1744 C1721 0.950 . S
H1745 C1723 0.950 . S
C1746 C1747 1.349 . S
C1746 C1748 1.327 . S
C1746 H1771 0.950 . S
C1747 C1746 1.349 . S
C1747 C1763 1.349 . S
C1748 C1746 1.327 . S
C1748 C1767 1.429 . S
C1748 H1772 0.950 . S
C1749 C1766 1.574 . S
C1749 C1768 1.368 . S
C1749 H1773 0.949 . S
H1750 C1754 0.949 . S
C1751 C1752 1.349 . S
C1751 C1753 1.327 1_556 S
C1751 H1774 0.950 . S
C1752 C1751 1.349 . S
C1752 C1764 1.349 . S
C1753 C1751 1.327 1_554 S
C1753 C1769 1.429 . S
C1753 H1775 0.950 . S
C1754 H1750 0.949 . S
C1754 C1762 1.574 . S
C1754 C1770 1.368 . S
H1755 C1763 0.950 . S
H1756 C1761 0.950 . S
H1757 C1762 0.949 . S
H1758 C1764 0.950 . S
H1759 C1765 0.954 . S
H1760 C1766 0.949 . S
C1761 H1756 0.950 . S
C1761 C1763 1.327 . S
C1761 C1767 1.429 . S
C1762 C1754 1.574 . S
C1762 H1757 0.949 . S
C1762 C1768 1.368 . S
C1763 C1747 1.349 . S
C1763 H1755 0.950 . S
C1763 C1761 1.327 . S
C1764 C1752 1.349 . S
C1764 H1758 0.950 . S
C1764 C1765 1.317 1_556 S
C1765 H1759 0.954 . S
C1765 C1764 1.317 1_554 S
C1765 C1769 1.435 . S
C1766 C1749 1.574 . S
C1766 H1760 0.949 . S
C1766 C1770 1.368 . S
C1767 C1748 1.429 . S
C1767 C1761 1.429 . S
C1767 C1768 1.523 . S
C1768 C1749 1.368 . S
C1768 C1762 1.368 . S
C1768 C1767 1.523 . S
C1769 C1753 1.429 . S
C1769 C1765 1.435 . S
C1769 C1770 1.523 . S
C1770 C1754 1.368 . S
C1770 C1766 1.368 . S
C1770 C1769 1.523 . S
H1771 C1746 0.950 . S
H1772 C1748 0.950 . S
H1773 C1749 0.949 . S
H1774 C1751 0.950 . S
H1775 C1753 0.950 . S
C1776 C1777 1.349 . S
C1776 C1778 1.327 . S
C1776 H1801 0.950 . S
C1777 C1776 1.349 . S
C1777 C1793 1.349 . S
C1778 C1776 1.327 . S
C1778 C1797 1.429 . S
C1778 H1802 0.950 . S
C1779 C1796 1.574 . S
C1779 C1798 1.368 . S
C1779 H1803 0.949 . S
H1780 C1784 0.949 . S
C1781 C1782 1.349 . S
C1781 C1783 1.327 . S
C1781 H1804 0.950 . S
C1782 C1781 1.349 . S
C1782 C1794 1.349 . S
C1783 C1781 1.327 . S
C1783 C1799 1.429 . S
C1783 H1805 0.950 . S
C1784 H1780 0.949 . S
C1784 C1792 1.574 . S
C1784 C1800 1.368 . S
H1785 C1793 0.950 . S
H1786 C1791 0.950 . S
H1787 C1792 0.949 . S
H1788 C1794 0.950 . S
H1789 C1795 0.950 . S
H1790 C1796 0.949 . S
C1791 H1786 0.950 . S
C1791 C1793 1.327 . S
C1791 C1797 1.429 . S
C1792 C1784 1.574 . S
C1792 H1787 0.949 . S
C1792 C1798 1.368 . S
C1793 C1777 1.349 . S
C1793 H1785 0.950 . S
C1793 C1791 1.327 . S
C1794 C1782 1.349 . S
C1794 H1788 0.950 . S
C1794 C1795 1.327 . S
C1795 H1789 0.950 . S
C1795 C1794 1.327 . S
C1795 C1799 1.429 . S
C1796 C1779 1.574 . S
C1796 H1790 0.949 . S
C1796 C1800 1.368 . S
C1797 C1778 1.429 . S
C1797 C1791 1.429 . S
C1797 C1798 1.523 . S
C1798 C1779 1.368 . S
C1798 C1792 1.368 . S
C1798 C1797 1.523 . S
C1799 C1783 1.429 . S
C1799 C1795 1.429 . S
C1799 C1800 1.523 . S
C1800 C1784 1.368 . S
C1800 C1796 1.368 . S
C1800 C1799 1.523 . S
H1801 C1776 0.950 . S
H1802 C1778 0.950 . S
H1803 C1779 0.949 . S
H1804 C1781 0.950 . S
H1805 C1783 0.950 . S
C1806 C1807 1.349 . S
C1806 C1808 1.327 1_556 S
C1806 H1831 0.950 . S
C1807 C1806 1.349 . S
C1807 C1823 1.349 . S
C1808 C1806 1.327 1_554 S
C1808 C1827 1.429 . S
C1808 H1832 0.950 . S
C1809 C1826 1.574 . S
C1809 C1828 1.368 . S
C1809 H1833 0.949 . S
H1810 C1814 0.949 . S
C1811 C1812 1.349 . S
C1811 C1813 1.327 . S
C1811 H1834 0.950 . S
C1812 C1811 1.349 . S
C1812 C1824 1.349 . S
C1813 C1811 1.327 . S
C1813 C1829 1.429 . S
C1813 H1835 0.950 . S
C1814 H1810 0.949 . S
C1814 C1822 1.574 . S
C1814 C1830 1.368 . S
H1815 C1823 0.950 . S
H1816 C1821 0.954 . S
H1817 C1822 0.949 . S
H1818 C1824 0.950 . S
H1819 C1825 0.950 . S
H1820 C1826 0.949 . S
C1821 H1816 0.954 . S
C1821 C1823 1.316 1_554 S
C1821 C1827 1.436 . S
C1822 C1814 1.574 . S
C1822 H1817 0.949 . S
C1822 C1828 1.368 . S
C1823 C1807 1.349 . S
C1823 H1815 0.950 . S
C1823 C1821 1.316 1_556 S
C1824 C1812 1.349 . S
C1824 H1818 0.950 . S
C1824 C1825 1.327 . S
C1825 H1819 0.950 . S
C1825 C1824 1.327 . S
C1825 C1829 1.429 . S
C1826 C1809 1.574 . S
C1826 H1820 0.949 . S
C1826 C1830 1.368 . S
C1827 C1808 1.429 . S
C1827 C1821 1.436 . S
C1827 C1828 1.523 . S
C1828 C1809 1.368 . S
C1828 C1822 1.368 . S
C1828 C1827 1.523 . S
C1829 C1813 1.429 . S
C1829 C1825 1.429 . S
C1829 C1830 1.523 . S
C1830 C1814 1.368 . S
C1830 C1826 1.368 . S
C1830 C1829 1.523 . S
H1831 C1806 0.950 . S
H1832 C1808 0.950 . S
H1833 C1809 0.949 . S
H1834 C1811 0.950 . S
H1835 C1813 0.950 . S
C1836 C1837 1.349 . S
C1836 C1838 1.327 . S
C1836 H1861 0.950 . S
C1837 C1836 1.349 . S
C1837 C1853 1.349 . S
C1838 C1836 1.327 . S
C1838 C1857 1.429 . S
C1838 H1862 0.950 . S
C1839 C1856 1.574 . S
C1839 C1858 1.368 . S
C1839 H1863 0.949 . S
H1840 C1844 0.949 . S
C1841 C1842 1.349 . S
C1841 C1843 1.327 . S
C1841 H1864 0.950 . S
C1842 C1841 1.349 . S
C1842 C1854 1.349 . S
C1843 C1841 1.327 . S
C1843 C1859 1.429 . S
C1843 H1865 0.950 . S
C1844 H1840 0.949 . S
C1844 C1852 1.574 . S
C1844 C1860 1.368 . S
H1845 C1853 0.950 . S
H1846 C1851 0.950 . S
H1847 C1852 0.949 . S
H1848 C1854 0.950 . S
H1849 C1855 0.950 . S
H1850 C1856 0.949 . S
C1851 H1846 0.950 . S
C1851 C1853 1.327 . S
C1851 C1857 1.429 . S
C1852 C1844 1.574 . S
C1852 H1847 0.949 . S
C1852 C1858 1.368 . S
C1853 C1837 1.349 . S
C1853 H1845 0.950 . S
C1853 C1851 1.327 . S
C1854 C1842 1.349 . S
C1854 H1848 0.950 . S
C1854 C1855 1.327 . S
C1855 H1849 0.950 . S
C1855 C1854 1.327 . S
C1855 C1859 1.429 . S
C1856 C1839 1.574 . S
C1856 H1850 0.949 . S
C1856 C1860 1.368 . S
C1857 C1838 1.429 . S
C1857 C1851 1.429 . S
C1857 C1858 1.523 1_554 S
C1858 C1839 1.368 . S
C1858 C1852 1.368 . S
C1858 C1857 1.523 1_556 S
C1859 C1843 1.429 . S
C1859 C1855 1.429 . S
C1859 C1860 1.523 . S
C1860 C1844 1.368 . S
C1860 C1856 1.368 . S
C1860 C1859 1.523 . S
H1861 C1836 0.950 . S
H1862 C1838 0.950 . S
H1863 C1839 0.949 . S
H1864 C1841 0.950 . S
H1865 C1843 0.950 . S
C1866 C1867 1.349 . S
C1866 C1868 1.327 . S
C1866 H1891 0.950 . S
C1867 C1866 1.349 . S
C1867 C1883 1.349 . S
C1868 C1866 1.327 . S
C1868 C1887 1.429 . S
C1868 H1892 0.950 . S
C1869 C1886 1.574 . S
C1869 C1888 1.368 . S
C1869 H1893 0.949 . S
H1870 C1874 0.949 . S
C1871 C1872 1.349 . S
C1871 C1873 1.327 . S
C1871 H1894 0.950 . S
C1872 C1871 1.349 . S
C1872 C1884 1.349 . S
C1873 C1871 1.327 . S
C1873 C1889 1.429 . S
C1873 H1895 0.950 . S
C1874 H1870 0.949 . S
C1874 C1882 1.574 . S
C1874 C1890 1.368 . S
H1875 C1883 0.950 . S
H1876 C1881 0.950 . S
H1877 C1882 0.949 . S
H1878 C1884 0.950 . S
H1879 C1885 0.950 . S
H1880 C1886 0.949 . S
C1881 H1876 0.950 . S
C1881 C1883 1.327 . S
C1881 C1887 1.429 . S
C1882 C1874 1.574 . S
C1882 H1877 0.949 . S
C1882 C1888 1.368 . S
C1883 C1867 1.349 . S
C1883 H1875 0.950 . S
C1883 C1881 1.327 . S
C1884 C1872 1.349 . S
C1884 H1878 0.950 . S
C1884 C1885 1.327 . S
C1885 H1879 0.950 . S
C1885 C1884 1.327 . S
C1885 C1889 1.429 . S
C1886 C1869 1.574 . S
C1886 H1880 0.949 . S
C1886 C1890 1.368 . S
C1887 C1868 1.429 . S
C1887 C1881 1.429 . S
C1887 C1888 1.523 . S
C1888 C1869 1.368 . S
C1888 C1882 1.368 . S
C1888 C1887 1.523 . S
C1889 C1873 1.429 . S
C1889 C1885 1.429 . S
C1889 C1890 1.523 . S
C1890 C1874 1.368 . S
C1890 C1886 1.368 . S
C1890 C1889 1.523 . S
H1891 C1866 0.950 . S
H1892 C1868 0.950 . S
H1893 C1869 0.949 . S
H1894 C1871 0.950 . S
H1895 C1873 0.950 . S
C1896 C1897 1.349 . S
C1896 C1898 1.327 . S
C1896 H1921 0.950 . S
C1897 C1896 1.349 . S
C1897 C1913 1.349 . S
C1898 C1896 1.327 . S
C1898 C1917 1.429 . S
C1898 H1922 0.950 . S
C1899 C1916 1.574 . S
C1899 C1918 1.368 . S
C1899 H1923 0.949 . S
H1900 C1904 0.949 . S
C1901 C1902 1.349 . S
C1901 C1903 1.327 . S
C1901 H1924 0.950 . S
C1902 C1901 1.349 . S
C1902 C1914 1.349 . S
C1903 C1901 1.327 . S
C1903 C1919 1.429 . S
C1903 H1925 0.950 . S
C1904 H1900 0.949 . S
C1904 C1912 1.574 . S
C1904 C1920 1.368 . S
H1905 C1913 0.950 . S
H1906 C1911 0.950 . S
H1907 C1912 0.949 . S
H1908 C1914 0.950 . S
H1909 C1915 0.950 . S
H1910 C1916 0.949 . S
C1911 H1906 0.950 . S
C1911 C1913 1.327 . S
C1911 C1917 1.429 . S
C1912 C1904 1.574 . S
C1912 H1907 0.949 . S
C1912 C1918 1.368 . S
C1913 C1897 1.349 . S
C1913 H1905 0.950 . S
C1913 C1911 1.327 . S
C1914 C1902 1.349 . S
C1914 H1908 0.950 . S
C1914 C1915 1.327 . S
C1915 H1909 0.950 . S
C1915 C1914 1.327 . S
C1915 C1919 1.429 . S
C1916 C1899 1.574 . S
C1916 H1910 0.949 . S
C1916 C1920 1.368 . S
C1917 C1898 1.429 . S
C1917 C1911 1.429 . S
C1917 C1918 1.523 . S
C1918 C1899 1.368 . S
C1918 C1912 1.368 . S
C1918 C1917 1.523 . S
C1919 C1903 1.429 . S
C1919 C1915 1.429 . S
C1919 C1920 1.523 . S
C1920 C1904 1.368 . S
C1920 C1916 1.368 . S
C1920 C1919 1.523 . S
H1921 C1896 0.950 . S
H1922 C1898 0.950 . S
H1923 C1899 0.949 . S
H1924 C1901 0.950 . S
H1925 C1903 0.950 . S
C1926 C1927 1.349 . S
C1926 C1928 1.327 . S
C1926 H1951 0.950 . S
C1927 C1926 1.349 . S
C1927 C1943 1.349 . S
C1928 C1926 1.327 . S
C1928 C1947 1.429 . S
C1928 H1952 0.950 . S
C1929 C1946 1.574 . S
C1929 C1948 1.368 . S
C1929 H1953 0.949 . S
H1930 C1934 0.949 . S
C1931 C1932 1.349 . S
C1931 C1933 1.327 . S
C1931 H1954 0.950 . S
C1932 C1931 1.349 . S
C1932 C1944 1.349 . S
C1933 C1931 1.327 . S
C1933 C1949 1.429 . S
C1933 H1955 0.950 . S
C1934 H1930 0.949 . S
C1934 C1942 1.574 . S
C1934 C1950 1.368 . S
H1935 C1943 0.950 . S
H1936 C1941 0.950 . S
H1937 C1942 0.949 . S
H1938 C1944 0.950 . S
H1939 C1945 0.950 . S
H1940 C1946 0.949 . S
C1941 H1936 0.950 . S
C1941 C1943 1.327 . S
C1941 C1947 1.429 . S
C1942 C1934 1.574 . S
C1942 H1937 0.949 . S
C1942 C1948 1.368 . S
C1943 C1927 1.349 . S
C1943 H1935 0.950 . S
C1943 C1941 1.327 . S
C1944 C1932 1.349 . S
C1944 H1938 0.950 . S
C1944 C1945 1.327 . S
C1945 H1939 0.950 . S
C1945 C1944 1.327 . S
C1945 C1949 1.429 . S
C1946 C1929 1.574 . S
C1946 H1940 0.949 . S
C1946 C1950 1.368 . S
C1947 C1928 1.429 . S
C1947 C1941 1.429 . S
C1947 C1948 1.523 . S
C1948 C1929 1.368 . S
C1948 C1942 1.368 . S
C1948 C1947 1.523 . S
C1949 C1933 1.429 . S
C1949 C1945 1.429 . S
C1949 C1950 1.523 . S
C1950 C1934 1.368 . S
C1950 C1946 1.368 . S
C1950 C1949 1.523 . S
H1951 C1926 0.950 . S
H1952 C1928 0.950 . S
H1953 C1929 0.949 . S
H1954 C1931 0.950 . S
H1955 C1933 0.950 . S
C1956 C1957 1.349 . S
C1956 C1958 1.327 . S
C1956 H1981 0.950 . S
C1957 C1956 1.349 . S
C1957 C1973 1.349 . S
C1958 C1956 1.327 . S
C1958 C1977 1.429 . S
C1958 H1982 0.950 . S
C1959 C1976 1.574 . S
C1959 C1978 1.368 . S
C1959 H1983 0.949 . S
H1960 C1964 0.949 . S
C1961 C1962 1.349 . S
C1961 C1963 1.327 . S
C1961 H1984 0.950 . S
C1962 C1961 1.349 . S
C1962 C1974 1.349 . S
C1963 C1961 1.327 . S
C1963 C1979 1.429 . S
C1963 H1985 0.950 . S
C1964 H1960 0.949 . S
C1964 C1972 1.574 . S
C1964 C1980 1.368 . S
H1965 C1973 0.950 . S
H1966 C1971 0.950 . S
H1967 C1972 0.949 . S
H1968 C1974 0.950 . S
H1969 C1975 0.950 . S
H1970 C1976 0.949 . S
C1971 H1966 0.950 . S
C1971 C1973 1.327 . S
C1971 C1977 1.429 . S
C1972 C1964 1.574 . S
C1972 H1967 0.949 . S
C1972 C1978 1.368 . S
C1973 C1957 1.349 . S
C1973 H1965 0.950 . S
C1973 C1971 1.327 . S
C1974 C1962 1.349 . S
C1974 H1968 0.950 . S
C1974 C1975 1.327 . S
C1975 H1969 0.950 . S
C1975 C1974 1.327 . S
C1975 C1979 1.429 . S
C1976 C1959 1.574 . S
C1976 H1970 0.949 . S
C1976 C1980 1.368 . S
C1977 C1958 1.429 . S
C1977 C1971 1.429 . S
C1977 C1978 1.523 1_556 S
C1978 C1959 1.368 . S
C1978 C1972 1.368 . S
C1978 C1977 1.523 1_554 S
C1979 C1963 1.429 . S
C1979 C1975 1.429 . S
C1979 C1980 1.523 . S
C1980 C1964 1.368 . S
C1980 C1976 1.368 . S
C1980 C1979 1.523 . S
H1981 C1956 0.950 . S
H1982 C1958 0.950 . S
H1983 C1959 0.949 . S
H1984 C1961 0.950 . S
H1985 C1963 0.950 . S
C1986 C1987 1.349 . S
C1986 C1988 1.327 1_554 S
C1986 H2011 0.950 . S
C1987 C1986 1.349 . S
C1987 C2003 1.349 . S
C1988 C1986 1.327 1_556 S
C1988 C2007 1.429 . S
C1988 H2012 0.950 . S
C1989 C2006 1.574 . S
C1989 C2008 1.368 . S
C1989 H2013 0.949 . S
H1990 C1994 0.949 . S
C1991 C1992 1.349 . S
C1991 C1993 1.327 . S
C1991 H2014 0.950 . S
C1992 C1991 1.349 . S
C1992 C2004 1.349 . S
C1993 C1991 1.327 . S
C1993 C2009 1.429 . S
C1993 H2015 0.950 . S
C1994 H1990 0.949 . S
C1994 C2002 1.574 . S
C1994 C2010 1.368 . S
H1995 C2003 0.950 . S
H1996 C2001 0.952 . S
H1997 C2002 0.949 . S
H1998 C2004 0.950 . S
H1999 C2005 0.950 . S
H2000 C2006 0.949 . S
C2001 H1996 0.952 . S
C2001 C2003 1.320 1_556 S
C2001 C2007 1.433 . S
C2002 C1994 1.574 . S
C2002 H1997 0.949 . S
C2002 C2008 1.368 . S
C2003 C1987 1.349 . S
C2003 H1995 0.950 . S
C2003 C2001 1.320 1_554 S
C2004 C1992 1.349 . S
C2004 H1998 0.950 . S
C2004 C2005 1.327 . S
C2005 H1999 0.950 . S
C2005 C2004 1.327 . S
C2005 C2009 1.429 . S
C2006 C1989 1.574 . S
C2006 H2000 0.949 . S
C2006 C2010 1.368 . S
C2007 C1988 1.429 . S
C2007 C2001 1.433 . S
C2007 C2008 1.523 . S
C2008 C1989 1.368 . S
C2008 C2002 1.368 . S
C2008 C2007 1.523 . S
C2009 C1993 1.429 . S
C2009 C2005 1.429 . S
C2009 C2010 1.523 . S
C2010 C1994 1.368 . S
C2010 C2006 1.368 . S
C2010 C2009 1.523 . S
H2011 C1986 0.950 . S
H2012 C1988 0.950 . S
H2013 C1989 0.949 . S
H2014 C1991 0.950 . S
H2015 C1993 0.950 . S
C2016 C2017 1.349 . S
C2016 C2018 1.327 . S
C2016 H2041 0.950 . S
C2017 C2016 1.349 . S
C2017 C2033 1.349 . S
C2018 C2016 1.327 . S
C2018 C2037 1.429 . S
C2018 H2042 0.950 . S
C2019 C2036 1.574 . S
C2019 C2038 1.368 . S
C2019 H2043 0.949 . S
H2020 C2024 0.949 . S
C2021 C2022 1.349 . S
C2021 C2023 1.327 . S
C2021 H2044 0.950 . S
C2022 C2021 1.349 . S
C2022 C2034 1.349 . S
C2023 C2021 1.327 . S
C2023 C2039 1.429 . S
C2023 H2045 0.950 . S
C2024 H2020 0.949 . S
C2024 C2032 1.574 . S
C2024 C2040 1.368 . S
H2025 C2033 0.950 . S
H2026 C2031 0.950 . S
H2027 C2032 0.949 . S
H2028 C2034 0.950 . S
H2029 C2035 0.950 . S
H2030 C2036 0.949 . S
C2031 H2026 0.950 . S
C2031 C2033 1.327 . S
C2031 C2037 1.429 . S
C2032 C2024 1.574 . S
C2032 H2027 0.949 . S
C2032 C2038 1.368 . S
C2033 C2017 1.349 . S
C2033 H2025 0.950 . S
C2033 C2031 1.327 . S
C2034 C2022 1.349 . S
C2034 H2028 0.950 . S
C2034 C2035 1.327 . S
C2035 H2029 0.950 . S
C2035 C2034 1.327 . S
C2035 C2039 1.429 . S
C2036 C2019 1.574 . S
C2036 H2030 0.949 . S
C2036 C2040 1.368 . S
C2037 C2018 1.429 . S
C2037 C2031 1.429 . S
C2037 C2038 1.523 . S
C2038 C2019 1.368 . S
C2038 C2032 1.368 . S
C2038 C2037 1.523 . S
C2039 C2023 1.429 . S
C2039 C2035 1.429 . S
C2039 C2040 1.523 1_556 S
C2040 C2024 1.368 . S
C2040 C2036 1.368 . S
C2040 C2039 1.523 1_554 S
H2041 C2016 0.950 . S
H2042 C2018 0.950 . S
H2043 C2019 0.949 . S
H2044 C2021 0.950 . S
H2045 C2023 0.950 . S
C2046 C2047 1.349 . S
C2046 C2048 1.327 . S
C2046 H2071 0.950 . S
C2047 C2046 1.349 . S
C2047 C2063 1.349 . S
C2048 C2046 1.327 . S
C2048 C2067 1.429 . S
C2048 H2072 0.950 . S
C2049 C2066 1.574 . S
C2049 C2068 1.368 . S
C2049 H2073 0.949 . S
H2050 C2054 0.949 . S
C2051 C2052 1.349 . S
C2051 C2053 1.327 . S
C2051 H2074 0.950 . S
C2052 C2051 1.349 . S
C2052 C2064 1.349 . S
C2053 C2051 1.327 . S
C2053 C2069 1.429 . S
C2053 H2075 0.950 . S
C2054 H2050 0.949 . S
C2054 C2062 1.574 . S
C2054 C2070 1.368 . S
H2055 C2063 0.950 . S
H2056 C2061 0.950 . S
H2057 C2062 0.949 . S
H2058 C2064 0.950 . S
H2059 C2065 0.950 . S
H2060 C2066 0.949 . S
C2061 H2056 0.950 . S
C2061 C2063 1.327 . S
C2061 C2067 1.429 . S
C2062 C2054 1.574 . S
C2062 H2057 0.949 . S
C2062 C2068 1.368 . S
C2063 C2047 1.349 . S
C2063 H2055 0.950 . S
C2063 C2061 1.327 . S
C2064 C2052 1.349 . S
C2064 H2058 0.950 . S
C2064 C2065 1.327 . S
C2065 H2059 0.950 . S
C2065 C2064 1.327 . S
C2065 C2069 1.429 . S
C2066 C2049 1.574 . S
C2066 H2060 0.949 . S
C2066 C2070 1.368 . S
C2067 C2048 1.429 . S
C2067 C2061 1.429 . S
C2067 C2068 1.523 . S
C2068 C2049 1.368 . S
C2068 C2062 1.368 . S
C2068 C2067 1.523 . S
C2069 C2053 1.429 . S
C2069 C2065 1.429 . S
C2069 C2070 1.523 . S
C2070 C2054 1.368 . S
C2070 C2066 1.368 . S
C2070 C2069 1.523 . S
H2071 C2046 0.950 . S
H2072 C2048 0.950 . S
H2073 C2049 0.949 . S
H2074 C2051 0.950 . S
H2075 C2053 0.950 . S
C2076 C2077 1.349 . S
C2076 C2078 1.327 . S
C2076 H2101 0.950 . S
C2077 C2076 1.349 . S
C2077 C2093 1.349 . S
C2078 C2076 1.327 . S
C2078 C2097 1.429 . S
C2078 H2102 0.950 . S
C2079 C2096 1.574 . S
C2079 C2098 1.368 . S
C2079 H2103 0.949 . S
H2080 C2084 0.949 . S
C2081 C2082 1.349 . S
C2081 C2083 1.327 . S
C2081 H2104 0.950 . S
C2082 C2081 1.349 . S
C2082 C2094 1.349 . S
C2083 C2081 1.327 . S
C2083 C2099 1.429 . S
C2083 H2105 0.950 . S
C2084 H2080 0.949 . S
C2084 C2092 1.574 . S
C2084 C2100 1.368 . S
H2085 C2093 0.950 . S
H2086 C2091 0.950 . S
H2087 C2092 0.949 . S
H2088 C2094 0.950 . S
H2089 C2095 0.950 . S
H2090 C2096 0.949 . S
C2091 H2086 0.950 . S
C2091 C2093 1.327 . S
C2091 C2097 1.429 . S
C2092 C2084 1.574 . S
C2092 H2087 0.949 . S
C2092 C2098 1.368 . S
C2093 C2077 1.349 . S
C2093 H2085 0.950 . S
C2093 C2091 1.327 . S
C2094 C2082 1.349 . S
C2094 H2088 0.950 . S
C2094 C2095 1.327 . S
C2095 H2089 0.950 . S
C2095 C2094 1.327 . S
C2095 C2099 1.429 . S
C2096 C2079 1.574 . S
C2096 H2090 0.949 . S
C2096 C2100 1.368 . S
C2097 C2078 1.429 . S
C2097 C2091 1.429 . S
C2097 C2098 1.523 . S
C2098 C2079 1.368 . S
C2098 C2092 1.368 . S
C2098 C2097 1.523 . S
C2099 C2083 1.429 . S
C2099 C2095 1.429 . S
C2099 C2100 1.523 . S
C2100 C2084 1.368 . S
C2100 C2096 1.368 . S
C2100 C2099 1.523 . S
H2101 C2076 0.950 . S
H2102 C2078 0.950 . S
H2103 C2079 0.949 . S
H2104 C2081 0.950 . S
H2105 C2083 0.950 . S
C2106 C2107 1.349 . S
C2106 C2108 1.327 1_554 S
C2106 H2131 0.950 . S
C2107 C2106 1.349 . S
C2107 C2123 1.349 . S
C2108 C2106 1.327 1_556 S
C2108 C2127 1.429 . S
C2108 H2132 0.950 . S
C2109 C2126 1.574 . S
C2109 C2128 1.368 . S
C2109 H2133 0.949 . S
H2110 C2114 0.949 . S
C2111 C2112 1.349 . S
C2111 C2113 1.327 . S
C2111 H2134 0.950 . S
C2112 C2111 1.349 . S
C2112 C2124 1.349 . S
C2113 C2111 1.327 . S
C2113 C2129 1.429 . S
C2113 H2135 0.950 . S
C2114 H2110 0.949 . S
C2114 C2122 1.574 . S
C2114 C2130 1.368 . S
H2115 C2123 0.950 . S
H2116 C2121 0.950 . S
H2117 C2122 0.949 . S
H2118 C2124 0.950 . S
H2119 C2125 0.950 . S
H2120 C2126 0.949 . S
C2121 H2116 0.950 . S
C2121 C2123 1.327 1_556 S
C2121 C2127 1.429 . S
C2122 C2114 1.574 . S
C2122 H2117 0.949 . S
C2122 C2128 1.368 . S
C2123 C2107 1.349 . S
C2123 H2115 0.950 . S
C2123 C2121 1.327 1_554 S
C2124 C2112 1.349 . S
C2124 H2118 0.950 . S
C2124 C2125 1.327 . S
C2125 H2119 0.950 . S
C2125 C2124 1.327 . S
C2125 C2129 1.429 . S
C2126 C2109 1.574 . S
C2126 H2120 0.949 . S
C2126 C2130 1.368 . S
C2127 C2108 1.429 . S
C2127 C2121 1.429 . S
C2127 C2128 1.523 . S
C2128 C2109 1.368 . S
C2128 C2122 1.368 . S
C2128 C2127 1.523 . S
C2129 C2113 1.429 . S
C2129 C2125 1.429 . S
C2129 C2130 1.523 . S
C2130 C2114 1.368 . S
C2130 C2126 1.368 . S
C2130 C2129 1.523 . S
H2131 C2106 0.950 . S
H2132 C2108 0.950 . S
H2133 C2109 0.949 . S
H2134 C2111 0.950 . S
H2135 C2113 0.950 . S
C2136 C2137 1.349 . S
C2136 C2138 1.327 . S
C2136 H2161 0.950 . S
C2137 C2136 1.349 . S
C2137 C2153 1.349 . S
C2138 C2136 1.327 . S
C2138 C2157 1.429 . S
C2138 H2162 0.950 . S
C2139 C2156 1.574 . S
C2139 C2158 1.368 . S
C2139 H2163 0.949 . S
H2140 C2144 0.949 . S
C2141 C2142 1.349 . S
C2141 C2143 1.327 . S
C2141 H2164 0.950 . S
C2142 C2141 1.349 . S
C2142 C2154 1.349 . S
C2143 C2141 1.327 . S
C2143 C2159 1.429 . S
C2143 H2165 0.950 . S
C2144 H2140 0.949 . S
C2144 C2152 1.574 . S
C2144 C2160 1.368 . S
H2145 C2153 0.950 . S
H2146 C2151 0.950 . S
H2147 C2152 0.949 . S
H2148 C2154 0.950 . S
H2149 C2155 0.950 . S
H2150 C2156 0.949 . S
C2151 H2146 0.950 . S
C2151 C2153 1.327 . S
C2151 C2157 1.429 . S
C2152 C2144 1.574 . S
C2152 H2147 0.949 . S
C2152 C2158 1.368 . S
C2153 C2137 1.349 . S
C2153 H2145 0.950 . S
C2153 C2151 1.327 . S
C2154 C2142 1.349 . S
C2154 H2148 0.950 . S
C2154 C2155 1.327 . S
C2155 H2149 0.950 . S
C2155 C2154 1.327 . S
C2155 C2159 1.429 . S
C2156 C2139 1.574 . S
C2156 H2150 0.949 . S
C2156 C2160 1.368 . S
C2157 C2138 1.429 . S
C2157 C2151 1.429 . S
C2157 C2158 1.523 . S
C2158 C2139 1.368 . S
C2158 C2152 1.368 . S
C2158 C2157 1.523 . S
C2159 C2143 1.429 . S
C2159 C2155 1.429 . S
C2159 C2160 1.523 1_554 S
C2160 C2144 1.368 . S
C2160 C2156 1.368 . S
C2160 C2159 1.523 1_556 S
H2161 C2136 0.950 . S
H2162 C2138 0.950 . S
H2163 C2139 0.949 . S
H2164 C2141 0.950 . S
H2165 C2143 0.950 . S
C2166 C2167 1.349 . S
C2166 C2168 1.317 1_556 S
C2166 H2191 0.950 . S
C2167 C2166 1.349 . S
C2167 C2183 1.349 . S
C2168 C2166 1.317 1_554 S
C2168 C2187 1.435 . S
C2168 H2192 0.954 . S
C2169 C2186 1.574 . S
C2169 C2188 1.368 . S
C2169 H2193 0.949 . S
H2170 C2174 0.949 . S
C2171 C2172 1.349 . S
C2171 C2173 1.327 . S
C2171 H2194 0.950 . S
C2172 C2171 1.349 . S
C2172 C2184 1.349 . S
C2173 C2171 1.327 . S
C2173 C2189 1.429 . S
C2173 H2195 0.950 . S
C2174 H2170 0.949 . S
C2174 C2182 1.574 . S
C2174 C2190 1.368 . S
H2175 C2183 0.950 . S
H2176 C2181 0.950 . S
H2177 C2182 0.949 . S
H2178 C2184 0.950 . S
H2179 C2185 0.950 . S
H2180 C2186 0.949 . S
C2181 H2176 0.950 . S
C2181 C2183 1.327 1_554 S
C2181 C2187 1.429 . S
C2182 C2174 1.574 . S
C2182 H2177 0.949 . S
C2182 C2188 1.368 . S
C2183 C2167 1.349 . S
C2183 H2175 0.950 . S
C2183 C2181 1.327 1_556 S
C2184 C2172 1.349 . S
C2184 H2178 0.950 . S
C2184 C2185 1.327 . S
C2185 H2179 0.950 . S
C2185 C2184 1.327 . S
C2185 C2189 1.429 . S
C2186 C2169 1.574 . S
C2186 H2180 0.949 . S
C2186 C2190 1.368 . S
C2187 C2168 1.435 . S
C2187 C2181 1.429 . S
C2187 C2188 1.523 . S
C2188 C2169 1.368 . S
C2188 C2182 1.368 . S
C2188 C2187 1.523 . S
C2189 C2173 1.429 . S
C2189 C2185 1.429 . S
C2189 C2190 1.523 . S
C2190 C2174 1.368 . S
C2190 C2186 1.368 . S
C2190 C2189 1.523 . S
H2191 C2166 0.950 . S
H2192 C2168 0.954 . S
H2193 C2169 0.949 . S
H2194 C2171 0.950 . S
H2195 C2173 0.950 . S
C2196 C2197 1.349 . S
C2196 C2198 1.327 . S
C2196 H2221 0.950 . S
C2197 C2196 1.349 . S
C2197 C2213 1.349 . S
C2198 C2196 1.327 . S
C2198 C2217 1.429 . S
C2198 H2222 0.950 . S
C2199 C2216 1.574 . S
C2199 C2218 1.368 . S
C2199 H2223 0.949 . S
H2200 C2204 0.949 . S
C2201 C2202 1.349 . S
C2201 C2203 1.327 . S
C2201 H2224 0.950 . S
C2202 C2201 1.349 . S
C2202 C2214 1.349 . S
C2203 C2201 1.327 . S
C2203 C2219 1.429 . S
C2203 H2225 0.950 . S
C2204 H2200 0.949 . S
C2204 C2212 1.574 . S
C2204 C2220 1.368 . S
H2205 C2213 0.950 . S
H2206 C2211 0.950 . S
H2207 C2212 0.949 . S
H2208 C2214 0.950 . S
H2209 C2215 0.950 . S
H2210 C2216 0.949 . S
C2211 H2206 0.950 . S
C2211 C2213 1.327 . S
C2211 C2217 1.429 . S
C2212 C2204 1.574 . S
C2212 H2207 0.949 . S
C2212 C2218 1.368 . S
C2213 C2197 1.349 . S
C2213 H2205 0.950 . S
C2213 C2211 1.327 . S
C2214 C2202 1.349 . S
C2214 H2208 0.950 . S
C2214 C2215 1.327 . S
C2215 H2209 0.950 . S
C2215 C2214 1.327 . S
C2215 C2219 1.429 . S
C2216 C2199 1.574 . S
C2216 H2210 0.949 . S
C2216 C2220 1.368 . S
C2217 C2198 1.429 . S
C2217 C2211 1.429 . S
C2217 C2218 1.523 . S
C2218 C2199 1.368 . S
C2218 C2212 1.368 . S
C2218 C2217 1.523 . S
C2219 C2203 1.429 . S
C2219 C2215 1.429 . S
C2219 C2220 1.523 . S
C2220 C2204 1.368 . S
C2220 C2216 1.368 . S
C2220 C2219 1.523 . S
H2221 C2196 0.950 . S
H2222 C2198 0.950 . S
H2223 C2199 0.949 . S
H2224 C2201 0.950 . S
H2225 C2203 0.950 . S
C2226 C2227 1.349 . S
C2226 C2228 1.327 . S
C2226 H2251 0.950 . S
C2227 C2226 1.349 . S
C2227 C2243 1.349 . S
C2228 C2226 1.327 . S
C2228 C2247 1.429 . S
C2228 H2252 0.950 . S
C2229 C2246 1.574 . S
C2229 C2248 1.368 . S
C2229 H2253 0.949 . S
H2230 C2234 0.949 . S
C2231 C2232 1.349 . S
C2231 C2233 1.327 . S
C2231 H2254 0.950 . S
C2232 C2231 1.349 . S
C2232 C2244 1.349 . S
C2233 C2231 1.327 . S
C2233 C2249 1.429 . S
C2233 H2255 0.950 . S
C2234 H2230 0.949 . S
C2234 C2242 1.574 . S
C2234 C2250 1.368 . S
H2235 C2243 0.950 . S
H2236 C2241 0.950 . S
H2237 C2242 0.949 . S
H2238 C2244 0.950 . S
H2239 C2245 0.950 . S
H2240 C2246 0.949 . S
C2241 H2236 0.950 . S
C2241 C2243 1.327 . S
C2241 C2247 1.429 . S
C2242 C2234 1.574 . S
C2242 H2237 0.949 . S
C2242 C2248 1.368 . S
C2243 C2227 1.349 . S
C2243 H2235 0.950 . S
C2243 C2241 1.327 . S
C2244 C2232 1.349 . S
C2244 H2238 0.950 . S
C2244 C2245 1.327 . S
C2245 H2239 0.950 . S
C2245 C2244 1.327 . S
C2245 C2249 1.429 . S
C2246 C2229 1.574 . S
C2246 H2240 0.949 . S
C2246 C2250 1.368 . S
C2247 C2228 1.429 . S
C2247 C2241 1.429 . S
C2247 C2248 1.523 . S
C2248 C2229 1.368 . S
C2248 C2242 1.368 . S
C2248 C2247 1.523 . S
C2249 C2233 1.429 . S
C2249 C2245 1.429 . S
C2249 C2250 1.523 . S
C2250 C2234 1.368 . S
C2250 C2246 1.368 . S
C2250 C2249 1.523 . S
H2251 C2226 0.950 . S
H2252 C2228 0.950 . S
H2253 C2229 0.949 . S
H2254 C2231 0.950 . S
H2255 C2233 0.950 . S
C2256 C2257 1.349 . S
C2256 C2258 1.327 . S
C2256 H2281 0.950 . S
C2257 C2256 1.349 . S
C2257 C2273 1.349 . S
C2258 C2256 1.327 . S
C2258 C2277 1.429 . S
C2258 H2282 0.950 . S
C2259 C2276 1.574 . S
C2259 C2278 1.368 . S
C2259 H2283 0.949 . S
H2260 C2264 0.949 . S
C2261 C2262 1.349 . S
C2261 C2263 1.327 . S
C2261 H2284 0.950 . S
C2262 C2261 1.349 . S
C2262 C2274 1.349 . S
C2263 C2261 1.327 . S
C2263 C2279 1.429 . S
C2263 H2285 0.950 . S
C2264 H2260 0.949 . S
C2264 C2272 1.574 . S
C2264 C2280 1.368 . S
H2265 C2273 0.950 . S
H2266 C2271 0.950 . S
H2267 C2272 0.949 . S
H2268 C2274 0.950 . S
H2269 C2275 0.950 . S
H2270 C2276 0.949 . S
C2271 H2266 0.950 . S
C2271 C2273 1.327 . S
C2271 C2277 1.429 . S
C2272 C2264 1.574 . S
C2272 H2267 0.949 . S
C2272 C2278 1.368 . S
C2273 C2257 1.349 . S
C2273 H2265 0.950 . S
C2273 C2271 1.327 . S
C2274 C2262 1.349 . S
C2274 H2268 0.950 . S
C2274 C2275 1.327 . S
C2275 H2269 0.950 . S
C2275 C2274 1.327 . S
C2275 C2279 1.429 . S
C2276 C2259 1.574 . S
C2276 H2270 0.949 . S
C2276 C2280 1.368 . S
C2277 C2258 1.429 . S
C2277 C2271 1.429 . S
C2277 C2278 1.523 . S
C2278 C2259 1.368 . S
C2278 C2272 1.368 . S
C2278 C2277 1.523 . S
C2279 C2263 1.429 . S
C2279 C2275 1.429 . S
C2279 C2280 1.523 1_554 S
C2280 C2264 1.368 . S
C2280 C2276 1.368 . S
C2280 C2279 1.523 1_556 S
H2281 C2256 0.950 . S
H2282 C2258 0.950 . S
H2283 C2259 0.949 . S
H2284 C2261 0.950 . S
H2285 C2263 0.950 . S
C2286 C2287 1.349 . S
C2286 C2288 1.327 . S
C2286 H2311 0.950 . S
C2287 C2286 1.349 . S
C2287 C2303 1.349 . S
C2288 C2286 1.327 . S
C2288 C2307 1.429 . S
C2288 H2312 0.950 . S
C2289 C2306 1.574 . S
C2289 C2308 1.368 . S
C2289 H2313 0.949 . S
H2290 C2294 0.949 . S
C2291 C2292 1.349 . S
C2291 C2293 1.327 . S
C2291 H2314 0.950 . S
C2292 C2291 1.349 . S
C2292 C2304 1.349 . S
C2293 C2291 1.327 . S
C2293 C2309 1.429 . S
C2293 H2315 0.950 . S
C2294 H2290 0.949 . S
C2294 C2302 1.574 . S
C2294 C2310 1.368 . S
H2295 C2303 0.950 . S
H2296 C2301 0.950 . S
H2297 C2302 0.949 . S
H2298 C2304 0.950 . S
H2299 C2305 0.950 . S
H2300 C2306 0.949 . S
C2301 H2296 0.950 . S
C2301 C2303 1.327 . S
C2301 C2307 1.429 . S
C2302 C2294 1.574 . S
C2302 H2297 0.949 . S
C2302 C2308 1.368 . S
C2303 C2287 1.349 . S
C2303 H2295 0.950 . S
C2303 C2301 1.327 . S
C2304 C2292 1.349 . S
C2304 H2298 0.950 . S
C2304 C2305 1.327 . S
C2305 H2299 0.950 . S
C2305 C2304 1.327 . S
C2305 C2309 1.429 . S
C2306 C2289 1.574 . S
C2306 H2300 0.949 . S
C2306 C2310 1.368 . S
C2307 C2288 1.429 . S
C2307 C2301 1.429 . S
C2307 C2308 1.523 . S
C2308 C2289 1.368 . S
C2308 C2302 1.368 . S
C2308 C2307 1.523 . S
C2309 C2293 1.429 . S
C2309 C2305 1.429 . S
C2309 C2310 1.523 . S
C2310 C2294 1.368 . S
C2310 C2306 1.368 . S
C2310 C2309 1.523 . S
H2311 C2286 0.950 . S
H2312 C2288 0.950 . S
H2313 C2289 0.949 . S
H2314 C2291 0.950 . S
H2315 C2293 0.950 . S
C2316 C2317 1.349 . S
C2316 C2318 1.327 . S
C2316 H2341 0.950 . S
C2317 C2316 1.349 . S
C2317 C2333 1.349 . S
C2318 C2316 1.327 . S
C2318 C2337 1.429 . S
C2318 H2342 0.950 . S
C2319 C2336 1.574 . S
C2319 C2338 1.368 . S
C2319 H2343 0.949 . S
H2320 C2324 0.949 . S
C2321 C2322 1.349 . S
C2321 C2323 1.327 . S
C2321 H2344 0.950 . S
C2322 C2321 1.349 . S
C2322 C2334 1.349 . S
C2323 C2321 1.327 . S
C2323 C2339 1.429 . S
C2323 H2345 0.950 . S
C2324 H2320 0.949 . S
C2324 C2332 1.574 . S
C2324 C2340 1.368 . S
H2325 C2333 0.950 . S
H2326 C2331 0.950 . S
H2327 C2332 0.949 . S
H2328 C2334 0.950 . S
H2329 C2335 0.950 . S
H2330 C2336 0.949 . S
C2331 H2326 0.950 . S
C2331 C2333 1.327 . S
C2331 C2337 1.429 . S
C2332 C2324 1.574 . S
C2332 H2327 0.949 . S
C2332 C2338 1.368 . S
C2333 C2317 1.349 . S
C2333 H2325 0.950 . S
C2333 C2331 1.327 . S
C2334 C2322 1.349 . S
C2334 H2328 0.950 . S
C2334 C2335 1.327 . S
C2335 H2329 0.950 . S
C2335 C2334 1.327 . S
C2335 C2339 1.429 . S
C2336 C2319 1.574 . S
C2336 H2330 0.949 . S
C2336 C2340 1.368 . S
C2337 C2318 1.429 . S
C2337 C2331 1.429 . S
C2337 C2338 1.523 . S
C2338 C2319 1.368 . S
C2338 C2332 1.368 . S
C2338 C2337 1.523 . S
C2339 C2323 1.429 . S
C2339 C2335 1.429 . S
C2339 C2340 1.523 . S
C2340 C2324 1.368 . S
C2340 C2336 1.368 . S
C2340 C2339 1.523 . S
H2341 C2316 0.950 . S
H2342 C2318 0.950 . S
H2343 C2319 0.949 . S
H2344 C2321 0.950 . S
H2345 C2323 0.950 . S
C2346 C2347 1.349 . S
C2346 C2348 1.325 1_556 S
C2346 H2371 0.950 . S
C2347 C2346 1.349 . S
C2347 C2363 1.349 . S
C2348 C2346 1.325 1_554 S
C2348 C2367 1.430 . S
C2348 H2372 0.950 . S
C2349 C2366 1.574 . S
C2349 C2368 1.368 . S
C2349 H2373 0.949 . S
H2350 C2354 0.949 . S
C2351 C2352 1.349 . S
C2351 C2353 1.327 . S
C2351 H2374 0.950 . S
C2352 C2351 1.349 . S
C2352 C2364 1.349 . S
C2353 C2351 1.327 . S
C2353 C2369 1.429 . S
C2353 H2375 0.950 . S
C2354 H2350 0.949 . S
C2354 C2362 1.574 . S
C2354 C2370 1.368 . S
H2355 C2363 0.950 . S
H2356 C2361 0.950 . S
H2357 C2362 0.949 . S
H2358 C2364 0.950 . S
H2359 C2365 0.950 . S
H2360 C2366 0.949 . S
C2361 H2356 0.950 . S
C2361 C2363 1.327 1_554 S
C2361 C2367 1.429 . S
C2362 C2354 1.574 . S
C2362 H2357 0.949 . S
C2362 C2368 1.368 . S
C2363 C2347 1.349 . S
C2363 H2355 0.950 . S
C2363 C2361 1.327 1_556 S
C2364 C2352 1.349 . S
C2364 H2358 0.950 . S
C2364 C2365 1.327 . S
C2365 H2359 0.950 . S
C2365 C2364 1.327 . S
C2365 C2369 1.429 . S
C2366 C2349 1.574 . S
C2366 H2360 0.949 . S
C2366 C2370 1.368 . S
C2367 C2348 1.430 . S
C2367 C2361 1.429 . S
C2367 C2368 1.523 . S
C2368 C2349 1.368 . S
C2368 C2362 1.368 . S
C2368 C2367 1.523 . S
C2369 C2353 1.429 . S
C2369 C2365 1.429 . S
C2369 C2370 1.523 . S
C2370 C2354 1.368 . S
C2370 C2366 1.368 . S
C2370 C2369 1.523 . S
H2371 C2346 0.950 . S
H2372 C2348 0.950 . S
H2373 C2349 0.949 . S
H2374 C2351 0.950 . S
H2375 C2353 0.950 . S
C2376 C2377 1.349 . S
C2376 C2378 1.327 . S
C2376 H2401 0.950 . S
C2377 C2376 1.349 . S
C2377 C2393 1.349 . S
C2378 C2376 1.327 . S
C2378 C2397 1.429 . S
C2378 H2402 0.950 . S
C2379 C2396 1.574 . S
C2379 C2398 1.368 . S
C2379 H2403 0.949 . S
H2380 C2384 0.949 . S
C2381 C2382 1.349 . S
C2381 C2383 1.327 . S
C2381 H2404 0.950 . S
C2382 C2381 1.349 . S
C2382 C2394 1.349 . S
C2383 C2381 1.327 . S
C2383 C2399 1.429 . S
C2383 H2405 0.950 . S
C2384 H2380 0.949 . S
C2384 C2392 1.574 . S
C2384 C2400 1.368 . S
H2385 C2393 0.950 . S
H2386 C2391 0.950 . S
H2387 C2392 0.949 . S
H2388 C2394 0.950 . S
H2389 C2395 0.950 . S
H2390 C2396 0.949 . S
C2391 H2386 0.950 . S
C2391 C2393 1.327 . S
C2391 C2397 1.429 . S
C2392 C2384 1.574 . S
C2392 H2387 0.949 . S
C2392 C2398 1.368 . S
C2393 C2377 1.349 . S
C2393 H2385 0.950 . S
C2393 C2391 1.327 . S
C2394 C2382 1.349 . S
C2394 H2388 0.950 . S
C2394 C2395 1.327 . S
C2395 H2389 0.950 . S
C2395 C2394 1.327 . S
C2395 C2399 1.429 . S
C2396 C2379 1.574 . S
C2396 H2390 0.949 . S
C2396 C2400 1.368 . S
C2397 C2378 1.429 . S
C2397 C2391 1.429 . S
C2397 C2398 1.523 . S
C2398 C2379 1.368 . S
C2398 C2392 1.368 . S
C2398 C2397 1.523 . S
C2399 C2383 1.429 . S
C2399 C2395 1.429 . S
C2399 C2400 1.523 1_556 S
C2400 C2384 1.368 . S
C2400 C2396 1.368 . S
C2400 C2399 1.523 1_554 S
H2401 C2376 0.950 . S
H2402 C2378 0.950 . S
H2403 C2379 0.949 . S
H2404 C2381 0.950 . S
H2405 C2383 0.950 . S
C2406 C2407 1.349 . S
C2406 C2408 1.327 1_554 S
C2406 H2431 0.950 . S
C2407 C2406 1.349 . S
C2407 C2423 1.349 . S
C2408 C2406 1.327 1_556 S
C2408 C2427 1.429 . S
C2408 H2432 0.950 . S
C2409 C2426 1.574 . S
C2409 C2428 1.368 . S
C2409 H2433 0.949 . S
H2410 C2414 0.949 . S
C2411 C2412 1.349 . S
C2411 C2413 1.327 . S
C2411 H2434 0.950 . S
C2412 C2411 1.349 . S
C2412 C2424 1.349 . S
C2413 C2411 1.327 . S
C2413 C2429 1.429 . S
C2413 H2435 0.950 . S
C2414 H2410 0.949 . S
C2414 C2422 1.574 . S
C2414 C2430 1.368 . S
H2415 C2423 0.950 . S
H2416 C2421 0.954 . S
H2417 C2422 0.949 . S
H2418 C2424 0.950 . S
H2419 C2425 0.950 . S
H2420 C2426 0.949 . S
C2421 H2416 0.954 . S
C2421 C2423 1.316 1_556 S
C2421 C2427 1.435 . S
C2422 C2414 1.574 . S
C2422 H2417 0.949 . S
C2422 C2428 1.368 . S
C2423 C2407 1.349 . S
C2423 H2415 0.950 . S
C2423 C2421 1.316 1_554 S
C2424 C2412 1.349 . S
C2424 H2418 0.950 . S
C2424 C2425 1.327 . S
C2425 H2419 0.950 . S
C2425 C2424 1.327 . S
C2425 C2429 1.429 . S
C2426 C2409 1.574 . S
C2426 H2420 0.949 . S
C2426 C2430 1.368 . S
C2427 C2408 1.429 . S
C2427 C2421 1.435 . S
C2427 C2428 1.523 . S
C2428 C2409 1.368 . S
C2428 C2422 1.368 . S
C2428 C2427 1.523 . S
C2429 C2413 1.429 . S
C2429 C2425 1.429 . S
C2429 C2430 1.523 . S
C2430 C2414 1.368 . S
C2430 C2426 1.368 . S
C2430 C2429 1.523 . S
H2431 C2406 0.950 . S
H2432 C2408 0.950 . S
H2433 C2409 0.949 . S
H2434 C2411 0.950 . S
H2435 C2413 0.950 . S
C2436 C2437 1.349 . S
C2436 C2438 1.327 . S
C2436 H2461 0.950 . S
C2437 C2436 1.349 . S
C2437 C2453 1.349 . S
C2438 C2436 1.327 . S
C2438 C2457 1.429 . S
C2438 H2462 0.950 . S
C2439 C2456 1.574 . S
C2439 C2458 1.368 . S
C2439 H2463 0.949 . S
H2440 C2444 0.949 . S
C2441 C2442 1.349 . S
C2441 C2443 1.327 . S
C2441 H2464 0.950 . S
C2442 C2441 1.349 . S
C2442 C2454 1.349 . S
C2443 C2441 1.327 . S
C2443 C2459 1.429 . S
C2443 H2465 0.950 . S
C2444 H2440 0.949 . S
C2444 C2452 1.574 . S
C2444 C2460 1.368 . S
H2445 C2453 0.950 . S
H2446 C2451 0.950 . S
H2447 C2452 0.949 . S
H2448 C2454 0.950 . S
H2449 C2455 0.950 . S
H2450 C2456 0.949 . S
C2451 H2446 0.950 . S
C2451 C2453 1.327 . S
C2451 C2457 1.429 . S
C2452 C2444 1.574 . S
C2452 H2447 0.949 . S
C2452 C2458 1.368 . S
C2453 C2437 1.349 . S
C2453 H2445 0.950 . S
C2453 C2451 1.327 . S
C2454 C2442 1.349 . S
C2454 H2448 0.950 . S
C2454 C2455 1.327 . S
C2455 H2449 0.950 . S
C2455 C2454 1.327 . S
C2455 C2459 1.429 . S
C2456 C2439 1.574 . S
C2456 H2450 0.949 . S
C2456 C2460 1.368 . S
C2457 C2438 1.429 . S
C2457 C2451 1.429 . S
C2457 C2458 1.523 . S
C2458 C2439 1.368 . S
C2458 C2452 1.368 . S
C2458 C2457 1.523 . S
C2459 C2443 1.429 . S
C2459 C2455 1.429 . S
C2459 C2460 1.523 . S
C2460 C2444 1.368 . S
C2460 C2456 1.368 . S
C2460 C2459 1.523 . S
H2461 C2436 0.950 . S
H2462 C2438 0.950 . S
H2463 C2439 0.949 . S
H2464 C2441 0.950 . S
H2465 C2443 0.950 . S
C2466 C2467 1.349 . S
C2466 C2468 1.327 . S
C2466 H2491 0.950 . S
C2467 C2466 1.349 . S
C2467 C2483 1.349 . S
C2468 C2466 1.327 . S
C2468 C2487 1.429 . S
C2468 H2492 0.950 . S
C2469 C2486 1.574 . S
C2469 C2488 1.368 . S
C2469 H2493 0.949 . S
H2470 C2474 0.949 . S
C2471 C2472 1.349 . S
C2471 C2473 1.327 . S
C2471 H2494 0.950 . S
C2472 C2471 1.349 . S
C2472 C2484 1.349 . S
C2473 C2471 1.327 . S
C2473 C2489 1.429 . S
C2473 H2495 0.950 . S
C2474 H2470 0.949 . S
C2474 C2482 1.574 . S
C2474 C2490 1.368 . S
H2475 C2483 0.950 . S
H2476 C2481 0.950 . S
H2477 C2482 0.949 . S
H2478 C2484 0.950 . S
H2479 C2485 0.950 . S
H2480 C2486 0.949 . S
C2481 H2476 0.950 . S
C2481 C2483 1.327 . S
C2481 C2487 1.429 . S
C2482 C2474 1.574 . S
C2482 H2477 0.949 . S
C2482 C2488 1.368 . S
C2483 C2467 1.349 . S
C2483 H2475 0.950 . S
C2483 C2481 1.327 . S
C2484 C2472 1.349 . S
C2484 H2478 0.950 . S
C2484 C2485 1.327 . S
C2485 H2479 0.950 . S
C2485 C2484 1.327 . S
C2485 C2489 1.429 . S
C2486 C2469 1.574 . S
C2486 H2480 0.949 . S
C2486 C2490 1.368 . S
C2487 C2468 1.429 . S
C2487 C2481 1.429 . S
C2487 C2488 1.523 . S
C2488 C2469 1.368 . S
C2488 C2482 1.368 . S
C2488 C2487 1.523 . S
C2489 C2473 1.429 . S
C2489 C2485 1.429 . S
C2489 C2490 1.523 . S
C2490 C2474 1.368 . S
C2490 C2486 1.368 . S
C2490 C2489 1.523 . S
H2491 C2466 0.950 . S
H2492 C2468 0.950 . S
H2493 C2469 0.949 . S
H2494 C2471 0.950 . S
H2495 C2473 0.950 . S
C2496 C2497 1.349 . S
C2496 C2498 1.327 . S
C2496 H2521 0.950 . S
C2497 C2496 1.349 . S
C2497 C2513 1.349 . S
C2498 C2496 1.327 . S
C2498 C2517 1.429 . S
C2498 H2522 0.950 . S
C2499 C2516 1.574 . S
C2499 C2518 1.368 . S
C2499 H2523 0.949 . S
H2500 C2504 0.949 . S
C2501 C2502 1.349 . S
C2501 C2503 1.327 . S
C2501 H2524 0.950 . S
C2502 C2501 1.349 . S
C2502 C2514 1.349 . S
C2503 C2501 1.327 . S
C2503 C2519 1.429 . S
C2503 H2525 0.950 . S
C2504 H2500 0.949 . S
C2504 C2512 1.574 . S
C2504 C2520 1.368 . S
H2505 C2513 0.950 . S
H2506 C2511 0.950 . S
H2507 C2512 0.949 . S
H2508 C2514 0.950 . S
H2509 C2515 0.950 . S
H2510 C2516 0.949 . S
C2511 H2506 0.950 . S
C2511 C2513 1.327 . S
C2511 C2517 1.429 . S
C2512 C2504 1.574 . S
C2512 H2507 0.949 . S
C2512 C2518 1.368 . S
C2513 C2497 1.349 . S
C2513 H2505 0.950 . S
C2513 C2511 1.327 . S
C2514 C2502 1.349 . S
C2514 H2508 0.950 . S
C2514 C2515 1.327 . S
C2515 H2509 0.950 . S
C2515 C2514 1.327 . S
C2515 C2519 1.429 . S
C2516 C2499 1.574 . S
C2516 H2510 0.949 . S
C2516 C2520 1.368 . S
C2517 C2498 1.429 . S
C2517 C2511 1.429 . S
C2517 C2518 1.523 . S
C2518 C2499 1.368 . S
C2518 C2512 1.368 . S
C2518 C2517 1.523 . S
C2519 C2503 1.429 . S
C2519 C2515 1.429 . S
C2519 C2520 1.523 . S
C2520 C2504 1.368 . S
C2520 C2516 1.368 . S
C2520 C2519 1.523 . S
H2521 C2496 0.950 . S
H2522 C2498 0.950 . S
H2523 C2499 0.949 . S
H2524 C2501 0.950 . S
H2525 C2503 0.950 . S
C2526 C2527 1.349 . S
C2526 C2528 1.327 . S
C2526 H2551 0.950 . S
C2527 C2526 1.349 . S
C2527 C2543 1.349 . S
C2528 C2526 1.327 . S
C2528 C2547 1.429 . S
C2528 H2552 0.950 . S
C2529 C2546 1.574 1_545 S
C2529 C2548 1.368 . S
C2529 H2553 0.949 . S
H2530 C2534 0.949 . S
C2531 C2532 1.349 . S
C2531 C2533 1.327 . S
C2531 H2554 0.950 . S
C2532 C2531 1.349 . S
C2532 C2544 1.349 . S
C2533 C2531 1.327 . S
C2533 C2549 1.429 . S
C2533 H2555 0.950 . S
C2534 H2530 0.949 . S
C2534 C2542 1.574 1_565 S
C2534 C2550 1.368 . S
H2535 C2543 0.950 . S
H2536 C2541 0.950 . S
H2537 C2542 0.949 . S
H2538 C2544 0.950 . S
H2539 C2545 0.950 . S
H2540 C2546 0.949 . S
C2541 H2536 0.950 . S
C2541 C2543 1.327 . S
C2541 C2547 1.429 . S
C2542 C2534 1.574 1_545 S
C2542 H2537 0.949 . S
C2542 C2548 1.368 . S
C2543 C2527 1.349 . S
C2543 H2535 0.950 . S
C2543 C2541 1.327 . S
C2544 C2532 1.349 . S
C2544 H2538 0.950 . S
C2544 C2545 1.327 . S
C2545 H2539 0.950 . S
C2545 C2544 1.327 . S
C2545 C2549 1.429 . S
C2546 C2529 1.574 1_565 S
C2546 H2540 0.949 . S
C2546 C2550 1.368 . S
C2547 C2528 1.429 . S
C2547 C2541 1.429 . S
C2547 C2548 1.523 . S
C2548 C2529 1.368 . S
C2548 C2542 1.368 . S
C2548 C2547 1.523 . S
C2549 C2533 1.429 . S
C2549 C2545 1.429 . S
C2549 C2550 1.523 . S
C2550 C2534 1.368 . S
C2550 C2546 1.368 . S
C2550 C2549 1.523 . S
H2551 C2526 0.950 . S
H2552 C2528 0.950 . S
H2553 C2529 0.949 . S
H2554 C2531 0.950 . S
H2555 C2533 0.950 . S
C2556 C2557 1.349 . S
C2556 C2558 1.327 . S
C2556 H2581 0.950 . S
C2557 C2556 1.349 . S
C2557 C2573 1.349 . S
C2558 C2556 1.327 . S
C2558 C2577 1.429 . S
C2558 H2582 0.950 . S
C2559 C2576 1.574 . S
C2559 C2578 1.368 . S
C2559 H2583 0.949 . S
H2560 C2564 0.949 . S
C2561 C2562 1.349 . S
C2561 C2563 1.327 . S
C2561 H2584 0.950 . S
C2562 C2561 1.349 . S
C2562 C2574 1.349 . S
C2563 C2561 1.327 . S
C2563 C2579 1.429 . S
C2563 H2585 0.950 . S
C2564 H2560 0.949 . S
C2564 C2572 1.574 . S
C2564 C2580 1.368 . S
H2565 C2573 0.950 . S
H2566 C2571 0.950 . S
H2567 C2572 0.949 . S
H2568 C2574 0.950 . S
H2569 C2575 0.950 . S
H2570 C2576 0.949 . S
C2571 H2566 0.950 . S
C2571 C2573 1.327 . S
C2571 C2577 1.429 . S
C2572 C2564 1.574 . S
C2572 H2567 0.949 . S
C2572 C2578 1.368 . S
C2573 C2557 1.349 . S
C2573 H2565 0.950 . S
C2573 C2571 1.327 . S
C2574 C2562 1.349 . S
C2574 H2568 0.950 . S
C2574 C2575 1.327 . S
C2575 H2569 0.950 . S
C2575 C2574 1.327 . S
C2575 C2579 1.429 . S
C2576 C2559 1.574 . S
C2576 H2570 0.949 . S
C2576 C2580 1.368 . S
C2577 C2558 1.429 . S
C2577 C2571 1.429 . S
C2577 C2578 1.523 . S
C2578 C2559 1.368 . S
C2578 C2572 1.368 . S
C2578 C2577 1.523 . S
C2579 C2563 1.429 . S
C2579 C2575 1.429 . S
C2579 C2580 1.523 . S
C2580 C2564 1.368 . S
C2580 C2576 1.368 . S
C2580 C2579 1.523 . S
H2581 C2556 0.950 . S
H2582 C2558 0.950 . S
H2583 C2559 0.949 . S
H2584 C2561 0.950 . S
H2585 C2563 0.950 . S
C2586 C2587 1.349 . S
C2586 C2588 1.327 . S
C2586 H2611 0.950 . S
C2587 C2586 1.349 . S
C2587 C2603 1.349 . S
C2588 C2586 1.327 . S
C2588 C2607 1.429 . S
C2588 H2612 0.950 . S
C2589 C2606 1.574 1_565 S
C2589 C2608 1.368 1_556 S
C2589 H2613 0.949 . S
H2590 C2594 0.949 . S
C2591 C2592 1.349 . S
C2591 C2593 1.327 . S
C2591 H2614 0.950 . S
C2592 C2591 1.349 . S
C2592 C2604 1.349 . S
C2593 C2591 1.327 . S
C2593 C2609 1.429 . S
C2593 H2615 0.950 . S
C2594 H2590 0.949 . S
C2594 C2602 1.574 1_545 S
C2594 C2610 1.368 1_554 S
H2595 C2603 0.950 . S
H2596 C2601 0.950 1_556 S
H2597 C2602 0.949 . S
H2598 C2604 0.950 . S
H2599 C2605 0.950 1_554 S
H2600 C2606 0.949 . S
C2601 H2596 0.950 1_554 S
C2601 C2603 1.327 . S
C2601 C2607 1.429 . S
C2602 C2594 1.574 1_565 S
C2602 H2597 0.949 . S
C2602 C2608 1.368 . S
C2603 C2587 1.349 . S
C2603 H2595 0.950 . S
C2603 C2601 1.327 . S
C2604 C2592 1.349 . S
C2604 H2598 0.950 . S
C2604 C2605 1.327 . S
C2605 H2599 0.950 1_556 S
C2605 C2604 1.327 . S
C2605 C2609 1.429 . S
C2606 C2589 1.574 1_545 S
C2606 H2600 0.949 . S
C2606 C2610 1.368 . S
C2607 C2588 1.429 . S
C2607 C2601 1.429 . S
C2607 C2608 1.523 . S
C2608 C2589 1.368 1_554 S
C2608 C2602 1.368 . S
C2608 C2607 1.523 . S
C2609 C2593 1.429 . S
C2609 C2605 1.429 . S
C2609 C2610 1.523 . S
C2610 C2594 1.368 1_556 S
C2610 C2606 1.368 . S
C2610 C2609 1.523 . S
H2611 C2586 0.950 . S
H2612 C2588 0.950 . S
H2613 C2589 0.949 . S
H2614 C2591 0.950 . S
H2615 C2593 0.950 . S
C2616 C2617 1.349 . S
C2616 C2618 1.327 . S
C2616 H2641 0.950 . S
C2617 C2616 1.349 . S
C2617 C2633 1.349 . S
C2618 C2616 1.327 . S
C2618 C2637 1.429 . S
C2618 H2642 0.950 . S
C2619 C2636 1.574 . S
C2619 C2638 1.368 . S
C2619 H2643 0.949 . S
H2620 C2624 0.949 . S
C2621 C2622 1.349 . S
C2621 C2623 1.327 . S
C2621 H2644 0.950 . S
C2622 C2621 1.349 . S
C2622 C2634 1.349 . S
C2623 C2621 1.327 . S
C2623 C2639 1.429 . S
C2623 H2645 0.950 . S
C2624 H2620 0.949 . S
C2624 C2632 1.574 . S
C2624 C2640 1.368 . S
H2625 C2633 0.950 . S
H2626 C2631 0.950 . S
H2627 C2632 0.949 . S
H2628 C2634 0.950 . S
H2629 C2635 0.950 . S
H2630 C2636 0.949 . S
C2631 H2626 0.950 . S
C2631 C2633 1.327 . S
C2631 C2637 1.429 . S
C2632 C2624 1.574 . S
C2632 H2627 0.949 . S
C2632 C2638 1.368 . S
C2633 C2617 1.349 . S
C2633 H2625 0.950 . S
C2633 C2631 1.327 . S
C2634 C2622 1.349 . S
C2634 H2628 0.950 . S
C2634 C2635 1.327 . S
C2635 H2629 0.950 . S
C2635 C2634 1.327 . S
C2635 C2639 1.429 . S
C2636 C2619 1.574 . S
C2636 H2630 0.949 . S
C2636 C2640 1.368 . S
C2637 C2618 1.429 . S
C2637 C2631 1.429 . S
C2637 C2638 1.523 . S
C2638 C2619 1.368 . S
C2638 C2632 1.368 . S
C2638 C2637 1.523 . S
C2639 C2623 1.429 . S
C2639 C2635 1.429 . S
C2639 C2640 1.523 . S
C2640 C2624 1.368 . S
C2640 C2636 1.368 . S
C2640 C2639 1.523 . S
H2641 C2616 0.950 . S
H2642 C2618 0.950 . S
H2643 C2619 0.949 . S
H2644 C2621 0.950 . S
H2645 C2623 0.950 . S
C2646 C2647 1.349 . S
C2646 C2648 1.327 . S
C2646 H2671 0.950 . S
C2647 C2646 1.349 . S
C2647 C2663 1.349 . S
C2648 C2646 1.327 . S
C2648 C2667 1.429 . S
C2648 H2672 0.950 . S
C2649 C2666 1.574 1_545 S
C2649 C2668 1.368 . S
C2649 H2673 0.949 . S
H2650 C2654 0.949 . S
C2651 C2652 1.349 . S
C2651 C2653 1.327 . S
C2651 H2674 0.950 . S
C2652 C2651 1.349 . S
C2652 C2664 1.349 . S
C2653 C2651 1.327 . S
C2653 C2669 1.429 . S
C2653 H2675 0.950 . S
C2654 H2650 0.949 . S
C2654 C2662 1.574 1_565 S
C2654 C2670 1.368 . S
H2655 C2663 0.950 . S
H2656 C2661 0.950 . S
H2657 C2662 0.949 . S
H2658 C2664 0.950 . S
H2659 C2665 0.950 . S
H2660 C2666 0.949 . S
C2661 H2656 0.950 . S
C2661 C2663 1.327 . S
C2661 C2667 1.429 . S
C2662 C2654 1.574 1_545 S
C2662 H2657 0.949 . S
C2662 C2668 1.368 . S
C2663 C2647 1.349 . S
C2663 H2655 0.950 . S
C2663 C2661 1.327 . S
C2664 C2652 1.349 . S
C2664 H2658 0.950 . S
C2664 C2665 1.327 . S
C2665 H2659 0.950 . S
C2665 C2664 1.327 . S
C2665 C2669 1.429 . S
C2666 C2649 1.574 1_565 S
C2666 H2660 0.949 . S
C2666 C2670 1.368 . S
C2667 C2648 1.429 . S
C2667 C2661 1.429 . S
C2667 C2668 1.523 . S
C2668 C2649 1.368 . S
C2668 C2662 1.368 . S
C2668 C2667 1.523 . S
C2669 C2653 1.429 . S
C2669 C2665 1.429 . S
C2669 C2670 1.523 . S
C2670 C2654 1.368 . S
C2670 C2666 1.368 . S
C2670 C2669 1.523 . S
H2671 C2646 0.950 . S
H2672 C2648 0.950 . S
H2673 C2649 0.949 . S
H2674 C2651 0.950 . S
H2675 C2653 0.950 . S
C2676 C2677 1.349 . S
C2676 C2678 1.327 . S
C2676 H2701 0.950 . S
C2677 C2676 1.349 . S
C2677 C2693 1.349 . S
C2678 C2676 1.327 . S
C2678 C2697 1.429 . S
C2678 H2702 0.950 . S
C2679 C2696 1.574 . S
C2679 C2698 1.368 . S
C2679 H2703 0.949 . S
H2680 C2684 0.949 . S
C2681 C2682 1.349 . S
C2681 C2683 1.327 . S
C2681 H2704 0.950 . S
C2682 C2681 1.349 . S
C2682 C2694 1.349 . S
C2683 C2681 1.327 . S
C2683 C2699 1.429 . S
C2683 H2705 0.950 . S
C2684 H2680 0.949 . S
C2684 C2692 1.574 . S
C2684 C2700 1.368 . S
H2685 C2693 0.950 . S
H2686 C2691 0.950 . S
H2687 C2692 0.949 . S
H2688 C2694 0.950 . S
H2689 C2695 0.950 . S
H2690 C2696 0.949 . S
C2691 H2686 0.950 . S
C2691 C2693 1.327 . S
C2691 C2697 1.429 . S
C2692 C2684 1.574 . S
C2692 H2687 0.949 . S
C2692 C2698 1.368 . S
C2693 C2677 1.349 . S
C2693 H2685 0.950 . S
C2693 C2691 1.327 . S
C2694 C2682 1.349 . S
C2694 H2688 0.950 . S
C2694 C2695 1.327 . S
C2695 H2689 0.950 . S
C2695 C2694 1.327 . S
C2695 C2699 1.429 . S
C2696 C2679 1.574 . S
C2696 H2690 0.949 . S
C2696 C2700 1.368 . S
C2697 C2678 1.429 . S
C2697 C2691 1.429 . S
C2697 C2698 1.523 . S
C2698 C2679 1.368 . S
C2698 C2692 1.368 . S
C2698 C2697 1.523 . S
C2699 C2683 1.429 . S
C2699 C2695 1.429 . S
C2699 C2700 1.523 . S
C2700 C2684 1.368 . S
C2700 C2696 1.368 . S
C2700 C2699 1.523 . S
H2701 C2676 0.950 . S
H2702 C2678 0.950 . S
H2703 C2679 0.949 . S
H2704 C2681 0.950 . S
H2705 C2683 0.950 . S
C2706 C2707 1.349 . S
C2706 C2708 1.327 . S
C2706 H2731 0.950 . S
C2707 C2706 1.349 . S
C2707 C2723 1.349 . S
C2708 C2706 1.327 . S
C2708 C2727 1.429 . S
C2708 H2732 0.950 1_556 S
C2709 C2726 1.574 1_545 S
C2709 C2728 1.368 . S
C2709 H2733 0.949 . S
H2710 C2714 0.949 . S
C2711 C2712 1.349 . S
C2711 C2713 1.327 . S
C2711 H2734 0.950 . S
C2712 C2711 1.349 . S
C2712 C2724 1.349 . S
C2713 C2711 1.327 . S
C2713 C2729 1.429 . S
C2713 H2735 0.950 1_554 S
C2714 H2710 0.949 . S
C2714 C2722 1.574 1_565 S
C2714 C2730 1.368 . S
H2715 C2723 0.950 . S
H2716 C2721 0.950 . S
H2717 C2722 0.949 . S
H2718 C2724 0.950 . S
H2719 C2725 0.950 . S
H2720 C2726 0.949 . S
C2721 H2716 0.950 . S
C2721 C2723 1.327 . S
C2721 C2727 1.429 . S
C2722 C2714 1.574 1_545 S
C2722 H2717 0.949 . S
C2722 C2728 1.368 1_554 S
C2723 C2707 1.349 . S
C2723 H2715 0.950 . S
C2723 C2721 1.327 . S
C2724 C2712 1.349 . S
C2724 H2718 0.950 . S
C2724 C2725 1.327 . S
C2725 H2719 0.950 . S
C2725 C2724 1.327 . S
C2725 C2729 1.429 . S
C2726 C2709 1.574 1_565 S
C2726 H2720 0.949 . S
C2726 C2730 1.368 1_556 S
C2727 C2708 1.429 . S
C2727 C2721 1.429 . S
C2727 C2728 1.523 . S
C2728 C2709 1.368 . S
C2728 C2722 1.368 1_556 S
C2728 C2727 1.523 . S
C2729 C2713 1.429 . S
C2729 C2725 1.429 . S
C2729 C2730 1.523 . S
C2730 C2714 1.368 . S
C2730 C2726 1.368 1_554 S
C2730 C2729 1.523 . S
H2731 C2706 0.950 . S
H2732 C2708 0.950 1_554 S
H2733 C2709 0.949 . S
H2734 C2711 0.950 . S
H2735 C2713 0.950 1_556 S
C2736 C2737 1.349 . S
C2736 C2738 1.327 . S
C2736 H2761 0.950 . S
C2737 C2736 1.349 . S
C2737 C2753 1.349 . S
C2738 C2736 1.327 . S
C2738 C2757 1.429 . S
C2738 H2762 0.950 . S
C2739 C2756 1.574 . S
C2739 C2758 1.368 . S
C2739 H2763 0.949 . S
H2740 C2744 0.949 . S
C2741 C2742 1.349 . S
C2741 C2743 1.327 . S
C2741 H2764 0.950 . S
C2742 C2741 1.349 . S
C2742 C2754 1.349 . S
C2743 C2741 1.327 . S
C2743 C2759 1.429 . S
C2743 H2765 0.950 . S
C2744 H2740 0.949 . S
C2744 C2752 1.574 . S
C2744 C2760 1.368 . S
H2745 C2753 0.950 . S
H2746 C2751 0.950 . S
H2747 C2752 0.949 . S
H2748 C2754 0.950 . S
H2749 C2755 0.950 . S
H2750 C2756 0.949 . S
C2751 H2746 0.950 . S
C2751 C2753 1.327 . S
C2751 C2757 1.429 . S
C2752 C2744 1.574 . S
C2752 H2747 0.949 . S
C2752 C2758 1.368 . S
C2753 C2737 1.349 . S
C2753 H2745 0.950 . S
C2753 C2751 1.327 . S
C2754 C2742 1.349 . S
C2754 H2748 0.950 . S
C2754 C2755 1.327 . S
C2755 H2749 0.950 . S
C2755 C2754 1.327 . S
C2755 C2759 1.429 . S
C2756 C2739 1.574 . S
C2756 H2750 0.949 . S
C2756 C2760 1.368 . S
C2757 C2738 1.429 . S
C2757 C2751 1.429 . S
C2757 C2758 1.523 . S
C2758 C2739 1.368 . S
C2758 C2752 1.368 . S
C2758 C2757 1.523 . S
C2759 C2743 1.429 . S
C2759 C2755 1.429 . S
C2759 C2760 1.523 . S
C2760 C2744 1.368 . S
C2760 C2756 1.368 . S
C2760 C2759 1.523 . S
H2761 C2736 0.950 . S
H2762 C2738 0.950 . S
H2763 C2739 0.949 . S
H2764 C2741 0.950 . S
H2765 C2743 0.950 . S
C2766 C2767 1.349 . S
C2766 C2768 1.327 . S
C2766 H2791 0.950 . S
C2767 C2766 1.349 . S
C2767 C2783 1.349 . S
C2768 C2766 1.327 . S
C2768 C2787 1.429 . S
C2768 H2792 0.950 . S
C2769 C2786 1.574 . S
C2769 C2788 1.368 1_554 S
C2769 H2793 0.949 . S
H2770 C2774 0.949 . S
C2771 C2772 1.349 . S
C2771 C2773 1.327 . S
C2771 H2794 0.950 . S
C2772 C2771 1.349 . S
C2772 C2784 1.349 . S
C2773 C2771 1.327 . S
C2773 C2789 1.429 . S
C2773 H2795 0.950 . S
C2774 H2770 0.949 . S
C2774 C2782 1.574 . S
C2774 C2790 1.368 1_556 S
H2775 C2783 0.950 . S
H2776 C2781 0.950 . S
H2777 C2782 0.949 . S
H2778 C2784 0.950 . S
H2779 C2785 0.950 . S
H2780 C2786 0.949 . S
C2781 H2776 0.950 . S
C2781 C2783 1.327 . S
C2781 C2787 1.429 . S
C2782 C2774 1.574 . S
C2782 H2777 0.949 . S
C2782 C2788 1.368 . S
C2783 C2767 1.349 . S
C2783 H2775 0.950 . S
C2783 C2781 1.327 . S
C2784 C2772 1.349 . S
C2784 H2778 0.950 . S
C2784 C2785 1.327 . S
C2785 H2779 0.950 . S
C2785 C2784 1.327 . S
C2785 C2789 1.429 . S
C2786 C2769 1.574 . S
C2786 H2780 0.949 . S
C2786 C2790 1.368 . S
C2787 C2768 1.429 . S
C2787 C2781 1.429 . S
C2787 C2788 1.523 . S
C2788 C2769 1.368 1_556 S
C2788 C2782 1.368 . S
C2788 C2787 1.523 . S
C2789 C2773 1.429 . S
C2789 C2785 1.429 . S
C2789 C2790 1.523 . S
C2790 C2774 1.368 1_554 S
C2790 C2786 1.368 . S
C2790 C2789 1.523 . S
H2791 C2766 0.950 . S
H2792 C2768 0.950 . S
H2793 C2769 0.949 . S
H2794 C2771 0.950 . S
H2795 C2773 0.950 . S
C2796 C2797 1.349 . S
C2796 C2798 1.327 . S
C2796 H2821 0.950 . S
C2797 C2796 1.349 . S
C2797 C2813 1.349 . S
C2798 C2796 1.327 . S
C2798 C2817 1.429 . S
C2798 H2822 0.950 . S
C2799 C2816 1.574 . S
C2799 C2818 1.368 . S
C2799 H2823 0.949 . S
H2800 C2804 0.949 . S
C2801 C2802 1.349 . S
C2801 C2803 1.327 . S
C2801 H2824 0.950 . S
C2802 C2801 1.349 . S
C2802 C2814 1.349 . S
C2803 C2801 1.327 . S
C2803 C2819 1.429 . S
C2803 H2825 0.950 . S
C2804 H2800 0.949 . S
C2804 C2812 1.574 . S
C2804 C2820 1.368 . S
H2805 C2813 0.950 . S
H2806 C2811 0.950 . S
H2807 C2812 0.949 . S
H2808 C2814 0.950 . S
H2809 C2815 0.950 . S
H2810 C2816 0.949 . S
C2811 H2806 0.950 . S
C2811 C2813 1.327 . S
C2811 C2817 1.429 . S
C2812 C2804 1.574 . S
C2812 H2807 0.949 . S
C2812 C2818 1.368 . S
C2813 C2797 1.349 . S
C2813 H2805 0.950 . S
C2813 C2811 1.327 . S
C2814 C2802 1.349 . S
C2814 H2808 0.950 . S
C2814 C2815 1.327 . S
C2815 H2809 0.950 . S
C2815 C2814 1.327 . S
C2815 C2819 1.429 . S
C2816 C2799 1.574 . S
C2816 H2810 0.949 . S
C2816 C2820 1.368 . S
C2817 C2798 1.429 . S
C2817 C2811 1.429 . S
C2817 C2818 1.523 . S
C2818 C2799 1.368 . S
C2818 C2812 1.368 . S
C2818 C2817 1.523 . S
C2819 C2803 1.429 . S
C2819 C2815 1.429 . S
C2819 C2820 1.523 . S
C2820 C2804 1.368 . S
C2820 C2816 1.368 . S
C2820 C2819 1.523 . S
H2821 C2796 0.950 . S
H2822 C2798 0.950 . S
H2823 C2799 0.949 . S
H2824 C2801 0.950 . S
H2825 C2803 0.950 . S
C2826 C2827 1.349 . S
C2826 C2828 1.327 . S
C2826 H2851 0.950 . S
C2827 C2826 1.349 . S
C2827 C2843 1.349 . S
C2828 C2826 1.327 . S
C2828 C2847 1.429 . S
C2828 H2852 0.950 . S
C2829 C2846 1.574 . S
C2829 C2848 1.368 . S
C2829 H2853 0.949 . S
H2830 C2834 0.949 . S
C2831 C2832 1.349 . S
C2831 C2833 1.327 . S
C2831 H2854 0.950 . S
C2832 C2831 1.349 . S
C2832 C2844 1.349 . S
C2833 C2831 1.327 . S
C2833 C2849 1.429 . S
C2833 H2855 0.950 . S
C2834 H2830 0.949 . S
C2834 C2842 1.574 . S
C2834 C2850 1.368 . S
H2835 C2843 0.950 . S
H2836 C2841 0.950 . S
H2837 C2842 0.949 . S
H2838 C2844 0.950 . S
H2839 C2845 0.950 . S
H2840 C2846 0.949 . S
C2841 H2836 0.950 . S
C2841 C2843 1.327 . S
C2841 C2847 1.429 . S
C2842 C2834 1.574 . S
C2842 H2837 0.949 . S
C2842 C2848 1.368 . S
C2843 C2827 1.349 . S
C2843 H2835 0.950 . S
C2843 C2841 1.327 . S
C2844 C2832 1.349 . S
C2844 H2838 0.950 . S
C2844 C2845 1.327 . S
C2845 H2839 0.950 . S
C2845 C2844 1.327 . S
C2845 C2849 1.429 . S
C2846 C2829 1.574 . S
C2846 H2840 0.949 . S
C2846 C2850 1.368 . S
C2847 C2828 1.429 . S
C2847 C2841 1.429 . S
C2847 C2848 1.523 . S
C2848 C2829 1.368 . S
C2848 C2842 1.368 . S
C2848 C2847 1.523 . S
C2849 C2833 1.429 . S
C2849 C2845 1.429 . S
C2849 C2850 1.523 . S
C2850 C2834 1.368 . S
C2850 C2846 1.368 . S
C2850 C2849 1.523 . S
H2851 C2826 0.950 . S
H2852 C2828 0.950 . S
H2853 C2829 0.949 . S
H2854 C2831 0.950 . S
H2855 C2833 0.950 . S
C2856 C2857 1.349 . S
C2856 C2858 1.327 . S
C2856 H2881 0.950 . S
C2857 C2856 1.349 . S
C2857 C2873 1.349 . S
C2858 C2856 1.327 . S
C2858 C2877 1.429 . S
C2858 H2882 0.950 . S
C2859 C2876 1.574 . S
C2859 C2878 1.368 . S
C2859 H2883 0.949 . S
H2860 C2864 0.949 . S
C2861 C2862 1.349 . S
C2861 C2863 1.327 . S
C2861 H2884 0.950 . S
C2862 C2861 1.349 . S
C2862 C2874 1.349 . S
C2863 C2861 1.327 . S
C2863 C2879 1.429 . S
C2863 H2885 0.950 . S
C2864 H2860 0.949 . S
C2864 C2872 1.574 . S
C2864 C2880 1.368 . S
H2865 C2873 0.950 . S
H2866 C2871 0.950 . S
H2867 C2872 0.949 . S
H2868 C2874 0.950 . S
H2869 C2875 0.950 . S
H2870 C2876 0.949 . S
C2871 H2866 0.950 . S
C2871 C2873 1.327 . S
C2871 C2877 1.429 . S
C2872 C2864 1.574 . S
C2872 H2867 0.949 . S
C2872 C2878 1.368 . S
C2873 C2857 1.349 . S
C2873 H2865 0.950 . S
C2873 C2871 1.327 . S
C2874 C2862 1.349 . S
C2874 H2868 0.950 . S
C2874 C2875 1.327 . S
C2875 H2869 0.950 . S
C2875 C2874 1.327 . S
C2875 C2879 1.429 . S
C2876 C2859 1.574 . S
C2876 H2870 0.949 . S
C2876 C2880 1.368 . S
C2877 C2858 1.429 . S
C2877 C2871 1.429 . S
C2877 C2878 1.523 . S
C2878 C2859 1.368 . S
C2878 C2872 1.368 . S
C2878 C2877 1.523 . S
C2879 C2863 1.429 . S
C2879 C2875 1.429 . S
C2879 C2880 1.523 . S
C2880 C2864 1.368 . S
C2880 C2876 1.368 . S
C2880 C2879 1.523 . S
H2881 C2856 0.950 . S
H2882 C2858 0.950 . S
H2883 C2859 0.949 . S
H2884 C2861 0.950 . S
H2885 C2863 0.950 . S
C2886 C2887 1.349 . S
C2886 C2888 1.327 . S
C2886 H2911 0.950 . S
C2887 C2886 1.349 . S
C2887 C2903 1.349 . S
C2888 C2886 1.327 . S
C2888 C2907 1.429 . S
C2888 H2912 0.950 . S
C2889 C2906 1.574 . S
C2889 C2908 1.368 1_554 S
C2889 H2913 0.949 . S
H2890 C2894 0.949 . S
C2891 C2892 1.349 . S
C2891 C2893 1.327 . S
C2891 H2914 0.950 . S
C2892 C2891 1.349 . S
C2892 C2904 1.349 . S
C2893 C2891 1.327 . S
C2893 C2909 1.429 . S
C2893 H2915 0.950 . S
C2894 H2890 0.949 . S
C2894 C2902 1.574 . S
C2894 C2910 1.368 1_556 S
H2895 C2903 0.950 . S
H2896 C2901 0.950 . S
H2897 C2902 0.949 . S
H2898 C2904 0.950 . S
H2899 C2905 0.950 . S
H2900 C2906 0.949 . S
C2901 H2896 0.950 . S
C2901 C2903 1.327 . S
C2901 C2907 1.429 . S
C2902 C2894 1.574 . S
C2902 H2897 0.949 . S
C2902 C2908 1.368 . S
C2903 C2887 1.349 . S
C2903 H2895 0.950 . S
C2903 C2901 1.327 . S
C2904 C2892 1.349 . S
C2904 H2898 0.950 . S
C2904 C2905 1.327 . S
C2905 H2899 0.950 . S
C2905 C2904 1.327 . S
C2905 C2909 1.429 . S
C2906 C2889 1.574 . S
C2906 H2900 0.949 . S
C2906 C2910 1.368 . S
C2907 C2888 1.429 . S
C2907 C2901 1.429 . S
C2907 C2908 1.523 . S
C2908 C2889 1.368 1_556 S
C2908 C2902 1.368 . S
C2908 C2907 1.523 . S
C2909 C2893 1.429 . S
C2909 C2905 1.429 . S
C2909 C2910 1.523 . S
C2910 C2894 1.368 1_554 S
C2910 C2906 1.368 . S
C2910 C2909 1.523 . S
H2911 C2886 0.950 . S
H2912 C2888 0.950 . S
H2913 C2889 0.949 . S
H2914 C2891 0.950 . S
H2915 C2893 0.950 . S
C2916 C2917 1.349 . S
C2916 C2918 1.327 . S
C2916 H2941 0.950 . S
C2917 C2916 1.349 . S
C2917 C2933 1.349 . S
C2918 C2916 1.327 . S
C2918 C2937 1.429 . S
C2918 H2942 0.950 . S
C2919 C2936 1.574 . S
C2919 C2938 1.368 . S
C2919 H2943 0.949 . S
H2920 C2924 0.949 . S
C2921 C2922 1.349 . S
C2921 C2923 1.327 . S
C2921 H2944 0.950 . S
C2922 C2921 1.349 . S
C2922 C2934 1.349 . S
C2923 C2921 1.327 . S
C2923 C2939 1.429 . S
C2923 H2945 0.950 . S
C2924 H2920 0.949 . S
C2924 C2932 1.574 . S
C2924 C2940 1.368 . S
H2925 C2933 0.950 . S
H2926 C2931 0.950 . S
H2927 C2932 0.949 . S
H2928 C2934 0.950 . S
H2929 C2935 0.950 . S
H2930 C2936 0.949 . S
C2931 H2926 0.950 . S
C2931 C2933 1.327 . S
C2931 C2937 1.429 . S
C2932 C2924 1.574 . S
C2932 H2927 0.949 . S
C2932 C2938 1.368 . S
C2933 C2917 1.349 . S
C2933 H2925 0.950 . S
C2933 C2931 1.327 . S
C2934 C2922 1.349 . S
C2934 H2928 0.950 . S
C2934 C2935 1.327 . S
C2935 H2929 0.950 . S
C2935 C2934 1.327 . S
C2935 C2939 1.429 . S
C2936 C2919 1.574 . S
C2936 H2930 0.949 . S
C2936 C2940 1.368 . S
C2937 C2918 1.429 . S
C2937 C2931 1.429 . S
C2937 C2938 1.523 . S
C2938 C2919 1.368 . S
C2938 C2932 1.368 . S
C2938 C2937 1.523 . S
C2939 C2923 1.429 . S
C2939 C2935 1.429 . S
C2939 C2940 1.523 . S
C2940 C2924 1.368 . S
C2940 C2936 1.368 . S
C2940 C2939 1.523 . S
H2941 C2916 0.950 . S
H2942 C2918 0.950 . S
H2943 C2919 0.949 . S
H2944 C2921 0.950 . S
H2945 C2923 0.950 . S
C2946 C2947 1.349 . S
C2946 C2948 1.327 . S
C2946 H2971 0.950 . S
C2947 C2946 1.349 . S
C2947 C2963 1.349 . S
C2948 C2946 1.327 . S
C2948 C2967 1.429 . S
C2948 H2972 0.950 . S
C2949 C2966 1.574 . S
C2949 C2968 1.368 . S
C2949 H2973 0.949 . S
H2950 C2954 0.949 . S
C2951 C2952 1.349 . S
C2951 C2953 1.327 . S
C2951 H2974 0.950 . S
C2952 C2951 1.349 . S
C2952 C2964 1.349 . S
C2953 C2951 1.327 . S
C2953 C2969 1.429 . S
C2953 H2975 0.950 . S
C2954 H2950 0.949 . S
C2954 C2962 1.574 . S
C2954 C2970 1.368 . S
H2955 C2963 0.950 . S
H2956 C2961 0.950 . S
H2957 C2962 0.949 . S
H2958 C2964 0.950 . S
H2959 C2965 0.950 . S
H2960 C2966 0.949 . S
C2961 H2956 0.950 . S
C2961 C2963 1.327 . S
C2961 C2967 1.429 . S
C2962 C2954 1.574 . S
C2962 H2957 0.949 . S
C2962 C2968 1.368 . S
C2963 C2947 1.349 . S
C2963 H2955 0.950 . S
C2963 C2961 1.327 . S
C2964 C2952 1.349 . S
C2964 H2958 0.950 . S
C2964 C2965 1.327 . S
C2965 H2959 0.950 . S
C2965 C2964 1.327 . S
C2965 C2969 1.429 . S
C2966 C2949 1.574 . S
C2966 H2960 0.949 . S
C2966 C2970 1.368 . S
C2967 C2948 1.429 . S
C2967 C2961 1.429 . S
C2967 C2968 1.523 . S
C2968 C2949 1.368 . S
C2968 C2962 1.368 . S
C2968 C2967 1.523 . S
C2969 C2953 1.429 . S
C2969 C2965 1.429 . S
C2969 C2970 1.523 . S
C2970 C2954 1.368 . S
C2970 C2966 1.368 . S
C2970 C2969 1.523 . S
H2971 C2946 0.950 . S
H2972 C2948 0.950 . S
H2973 C2949 0.949 . S
H2974 C2951 0.950 . S
H2975 C2953 0.950 . S
C2976 C2977 1.349 . S
C2976 C2978 1.327 . S
C2976 H3001 0.950 . S
C2977 C2976 1.349 . S
C2977 C2993 1.349 1_554 S
C2978 C2976 1.327 . S
C2978 C2997 1.429 1_554 S
C2978 H3002 0.950 . S
C2979 C2996 1.574 . S
C2979 C2998 1.368 . S
C2979 H3003 0.949 . S
H2980 C2984 0.949 . S
C2981 C2982 1.349 . S
C2981 C2983 1.327 . S
C2981 H3004 0.950 . S
C2982 C2981 1.349 . S
C2982 C2994 1.349 . S
C2983 C2981 1.327 . S
C2983 C2999 1.429 . S
C2983 H3005 0.950 . S
C2984 H2980 0.949 . S
C2984 C2992 1.574 . S
C2984 C3000 1.368 . S
H2985 C2993 0.950 . S
H2986 C2991 0.950 . S
H2987 C2992 0.949 . S
H2988 C2994 0.950 . S
H2989 C2995 0.950 . S
H2990 C2996 0.949 . S
C2991 H2986 0.950 . S
C2991 C2993 1.327 . S
C2991 C2997 1.429 . S
C2992 C2984 1.574 . S
C2992 H2987 0.949 . S
C2992 C2998 1.368 . S
C2993 C2977 1.349 1_556 S
C2993 H2985 0.950 . S
C2993 C2991 1.327 . S
C2994 C2982 1.349 . S
C2994 H2988 0.950 . S
C2994 C2995 1.327 . S
C2995 H2989 0.950 . S
C2995 C2994 1.327 . S
C2995 C2999 1.429 . S
C2996 C2979 1.574 . S
C2996 H2990 0.949 . S
C2996 C3000 1.368 . S
C2997 C2978 1.429 1_556 S
C2997 C2991 1.429 . S
C2997 C2998 1.523 . S
C2998 C2979 1.368 . S
C2998 C2992 1.368 . S
C2998 C2997 1.523 . S
C2999 C2983 1.429 . S
C2999 C2995 1.429 . S
C2999 C3000 1.523 . S
C3000 C2984 1.368 . S
C3000 C2996 1.368 . S
C3000 C2999 1.523 . S
H3001 C2976 0.950 . S
H3002 C2978 0.950 . S
H3003 C2979 0.949 . S
H3004 C2981 0.950 . S
H3005 C2983 0.950 . S
C3006 C3007 1.349 . S
C3006 C3008 1.327 . S
C3006 H3031 0.950 . S
C3007 C3006 1.349 . S
C3007 C3023 1.349 1_556 S
C3008 C3006 1.327 . S
C3008 C3027 1.429 1_556 S
C3008 H3032 0.950 . S
C3009 C3026 1.574 . S
C3009 C3028 1.368 . S
C3009 H3033 0.949 . S
H3010 C3014 0.949 . S
C3011 C3012 1.349 . S
C3011 C3013 1.327 . S
C3011 H3034 0.950 . S
C3012 C3011 1.349 . S
C3012 C3024 1.349 . S
C3013 C3011 1.327 . S
C3013 C3029 1.429 . S
C3013 H3035 0.950 . S
C3014 H3010 0.949 . S
C3014 C3022 1.574 . S
C3014 C3030 1.368 . S
H3015 C3023 0.950 . S
H3016 C3021 0.950 . S
H3017 C3022 0.949 . S
H3018 C3024 0.950 . S
H3019 C3025 0.950 . S
H3020 C3026 0.949 . S
C3021 H3016 0.950 . S
C3021 C3023 1.327 . S
C3021 C3027 1.429 . S
C3022 C3014 1.574 . S
C3022 H3017 0.949 . S
C3022 C3028 1.368 . S
C3023 C3007 1.349 1_554 S
C3023 H3015 0.950 . S
C3023 C3021 1.327 . S
C3024 C3012 1.349 . S
C3024 H3018 0.950 . S
C3024 C3025 1.327 . S
C3025 H3019 0.950 . S
C3025 C3024 1.327 . S
C3025 C3029 1.429 . S
C3026 C3009 1.574 . S
C3026 H3020 0.949 . S
C3026 C3030 1.368 . S
C3027 C3008 1.429 1_554 S
C3027 C3021 1.429 . S
C3027 C3028 1.523 . S
C3028 C3009 1.368 . S
C3028 C3022 1.368 . S
C3028 C3027 1.523 . S
C3029 C3013 1.429 . S
C3029 C3025 1.429 . S
C3029 C3030 1.523 . S
C3030 C3014 1.368 . S
C3030 C3026 1.368 . S
C3030 C3029 1.523 . S
H3031 C3006 0.950 . S
H3032 C3008 0.950 . S
H3033 C3009 0.949 . S
H3034 C3011 0.950 . S
H3035 C3013 0.950 . S
C3036 C3037 1.349 . S
C3036 C3038 1.327 . S
C3036 H3061 0.950 . S
C3037 C3036 1.349 . S
C3037 C3053 1.349 . S
C3038 C3036 1.327 . S
C3038 C3057 1.429 . S
C3038 H3062 0.950 . S
C3039 C3056 1.574 . S
C3039 C3058 1.368 . S
C3039 H3063 0.949 . S
H3040 C3044 0.949 . S
C3041 C3042 1.349 . S
C3041 C3043 1.327 . S
C3041 H3064 0.950 . S
C3042 C3041 1.349 . S
C3042 C3054 1.349 . S
C3043 C3041 1.327 . S
C3043 C3059 1.429 . S
C3043 H3065 0.950 . S
C3044 H3040 0.949 . S
C3044 C3052 1.574 . S
C3044 C3060 1.368 . S
H3045 C3053 0.950 . S
H3046 C3051 0.950 . S
H3047 C3052 0.949 . S
H3048 C3054 0.950 . S
H3049 C3055 0.950 . S
H3050 C3056 0.949 . S
C3051 H3046 0.950 . S
C3051 C3053 1.327 . S
C3051 C3057 1.429 . S
C3052 C3044 1.574 . S
C3052 H3047 0.949 . S
C3052 C3058 1.368 . S
C3053 C3037 1.349 . S
C3053 H3045 0.950 . S
C3053 C3051 1.327 . S
C3054 C3042 1.349 . S
C3054 H3048 0.950 . S
C3054 C3055 1.327 . S
C3055 H3049 0.950 . S
C3055 C3054 1.327 . S
C3055 C3059 1.429 . S
C3056 C3039 1.574 . S
C3056 H3050 0.949 . S
C3056 C3060 1.368 . S
C3057 C3038 1.429 . S
C3057 C3051 1.429 . S
C3057 C3058 1.523 . S
C3058 C3039 1.368 . S
C3058 C3052 1.368 . S
C3058 C3057 1.523 . S
C3059 C3043 1.429 . S
C3059 C3055 1.429 . S
C3059 C3060 1.523 . S
C3060 C3044 1.368 . S
C3060 C3056 1.368 . S
C3060 C3059 1.523 . S
H3061 C3036 0.950 . S
H3062 C3038 0.950 . S
H3063 C3039 0.949 . S
H3064 C3041 0.950 . S
H3065 C3043 0.950 . S
C3066 C3067 1.349 . S
C3066 C3068 1.327 . S
C3066 H3091 0.950 . S
C3067 C3066 1.349 . S
C3067 C3083 1.349 . S
C3068 C3066 1.327 . S
C3068 C3087 1.429 . S
C3068 H3092 0.950 . S
C3069 C3086 1.574 . S
C3069 C3088 1.368 . S
C3069 H3093 0.949 . S
H3070 C3074 0.949 . S
C3071 C3072 1.349 . S
C3071 C3073 1.327 . S
C3071 H3094 0.950 . S
C3072 C3071 1.349 . S
C3072 C3084 1.349 . S
C3073 C3071 1.327 . S
C3073 C3089 1.429 . S
C3073 H3095 0.950 . S
C3074 H3070 0.949 . S
C3074 C3082 1.574 . S
C3074 C3090 1.368 . S
H3075 C3083 0.950 . S
H3076 C3081 0.950 . S
H3077 C3082 0.949 . S
H3078 C3084 0.950 . S
H3079 C3085 0.950 . S
H3080 C3086 0.949 . S
C3081 H3076 0.950 . S
C3081 C3083 1.327 . S
C3081 C3087 1.429 . S
C3082 C3074 1.574 . S
C3082 H3077 0.949 . S
C3082 C3088 1.368 . S
C3083 C3067 1.349 . S
C3083 H3075 0.950 . S
C3083 C3081 1.327 . S
C3084 C3072 1.349 . S
C3084 H3078 0.950 . S
C3084 C3085 1.327 . S
C3085 H3079 0.950 . S
C3085 C3084 1.327 . S
C3085 C3089 1.429 . S
C3086 C3069 1.574 . S
C3086 H3080 0.949 . S
C3086 C3090 1.368 . S
C3087 C3068 1.429 . S
C3087 C3081 1.429 . S
C3087 C3088 1.523 . S
C3088 C3069 1.368 . S
C3088 C3082 1.368 . S
C3088 C3087 1.523 . S
C3089 C3073 1.429 . S
C3089 C3085 1.429 . S
C3089 C3090 1.523 . S
C3090 C3074 1.368 . S
C3090 C3086 1.368 . S
C3090 C3089 1.523 . S
H3091 C3066 0.950 . S
H3092 C3068 0.950 . S
H3093 C3069 0.949 . S
H3094 C3071 0.950 . S
H3095 C3073 0.950 . S
C3096 C3097 1.349 . S
C3096 C3098 1.327 . S
C3096 H3121 0.950 . S
C3097 C3096 1.349 . S
C3097 C3113 1.349 1_556 S
C3098 C3096 1.327 . S
C3098 C3117 1.429 1_556 S
C3098 H3122 0.950 . S
C3099 C3116 1.574 . S
C3099 C3118 1.368 . S
C3099 H3123 0.949 . S
H3100 C3104 0.949 . S
C3101 C3102 1.349 . S
C3101 C3103 1.327 . S
C3101 H3124 0.950 . S
C3102 C3101 1.349 . S
C3102 C3114 1.349 . S
C3103 C3101 1.327 . S
C3103 C3119 1.429 . S
C3103 H3125 0.950 . S
C3104 H3100 0.949 . S
C3104 C3112 1.574 . S
C3104 C3120 1.368 . S
H3105 C3113 0.950 . S
H3106 C3111 0.950 . S
H3107 C3112 0.949 . S
H3108 C3114 0.950 . S
H3109 C3115 0.950 . S
H3110 C3116 0.949 . S
C3111 H3106 0.950 . S
C3111 C3113 1.327 . S
C3111 C3117 1.429 . S
C3112 C3104 1.574 . S
C3112 H3107 0.949 . S
C3112 C3118 1.368 . S
C3113 C3097 1.349 1_554 S
C3113 H3105 0.950 . S
C3113 C3111 1.327 . S
C3114 C3102 1.349 . S
C3114 H3108 0.950 . S
C3114 C3115 1.327 . S
C3115 H3109 0.950 . S
C3115 C3114 1.327 . S
C3115 C3119 1.429 . S
C3116 C3099 1.574 . S
C3116 H3110 0.949 . S
C3116 C3120 1.368 . S
C3117 C3098 1.429 1_554 S
C3117 C3111 1.429 . S
C3117 C3118 1.523 . S
C3118 C3099 1.368 . S
C3118 C3112 1.368 . S
C3118 C3117 1.523 . S
C3119 C3103 1.429 . S
C3119 C3115 1.429 . S
C3119 C3120 1.523 . S
C3120 C3104 1.368 . S
C3120 C3116 1.368 . S
C3120 C3119 1.523 . S
H3121 C3096 0.950 . S
H3122 C3098 0.950 . S
H3123 C3099 0.949 . S
H3124 C3101 0.950 . S
H3125 C3103 0.950 . S
C3126 C3127 1.349 . S
C3126 C3128 1.327 1_554 S
C3126 H3151 0.950 . S
C3127 C3126 1.349 . S
C3127 C3143 1.349 1_554 S
C3128 C3126 1.327 1_556 S
C3128 C3147 1.429 . S
C3128 H3152 0.950 . S
C3129 C3146 1.574 . S
C3129 C3148 1.368 . S
C3129 H3153 0.949 . S
H3130 C3134 0.949 . S
C3131 C3132 1.349 . S
C3131 C3133 1.327 . S
C3131 H3154 0.950 . S
C3132 C3131 1.349 . S
C3132 C3144 1.349 . S
C3133 C3131 1.327 . S
C3133 C3149 1.429 . S
C3133 H3155 0.950 . S
C3134 H3130 0.949 . S
C3134 C3142 1.574 . S
C3134 C3150 1.368 . S
H3135 C3143 0.950 1_554 S
H3136 C3141 0.950 . S
H3137 C3142 0.949 . S
H3138 C3144 0.950 . S
H3139 C3145 0.950 . S
H3140 C3146 0.949 . S
C3141 H3136 0.950 . S
C3141 C3143 1.327 . S
C3141 C3147 1.429 . S
C3142 C3134 1.574 . S
C3142 H3137 0.949 . S
C3142 C3148 1.368 . S
C3143 C3127 1.349 1_556 S
C3143 H3135 0.950 1_556 S
C3143 C3141 1.327 . S
C3144 C3132 1.349 . S
C3144 H3138 0.950 . S
C3144 C3145 1.327 . S
C3145 H3139 0.950 . S
C3145 C3144 1.327 . S
C3145 C3149 1.429 . S
C3146 C3129 1.574 . S
C3146 H3140 0.949 . S
C3146 C3150 1.368 . S
C3147 C3128 1.429 . S
C3147 C3141 1.429 . S
C3147 C3148 1.523 . S
C3148 C3129 1.368 . S
C3148 C3142 1.368 . S
C3148 C3147 1.523 . S
C3149 C3133 1.429 . S
C3149 C3145 1.429 . S
C3149 C3150 1.523 . S
C3150 C3134 1.368 . S
C3150 C3146 1.368 . S
C3150 C3149 1.523 . S
H3151 C3126 0.950 . S
H3152 C3128 0.950 . S
H3153 C3129 0.949 . S
H3154 C3131 0.950 . S
H3155 C3133 0.950 . S
C3156 C3157 1.349 . S
C3156 C3158 1.327 . S
C3156 H3181 0.950 . S
C3157 C3156 1.349 . S
C3157 C3173 1.349 . S
C3158 C3156 1.327 . S
C3158 C3177 1.429 . S
C3158 H3182 0.950 . S
C3159 C3176 1.574 . S
C3159 C3178 1.368 . S
C3159 H3183 0.949 . S
H3160 C3164 0.949 . S
C3161 C3162 1.349 . S
C3161 C3163 1.327 . S
C3161 H3184 0.950 . S
C3162 C3161 1.349 . S
C3162 C3174 1.349 . S
C3163 C3161 1.327 . S
C3163 C3179 1.429 . S
C3163 H3185 0.950 . S
C3164 H3160 0.949 . S
C3164 C3172 1.574 . S
C3164 C3180 1.368 . S
H3165 C3173 0.950 . S
H3166 C3171 0.950 . S
H3167 C3172 0.949 . S
H3168 C3174 0.950 . S
H3169 C3175 0.950 . S
H3170 C3176 0.949 . S
C3171 H3166 0.950 . S
C3171 C3173 1.327 . S
C3171 C3177 1.429 . S
C3172 C3164 1.574 . S
C3172 H3167 0.949 . S
C3172 C3178 1.368 . S
C3173 C3157 1.349 . S
C3173 H3165 0.950 . S
C3173 C3171 1.327 . S
C3174 C3162 1.349 . S
C3174 H3168 0.950 . S
C3174 C3175 1.327 . S
C3175 H3169 0.950 . S
C3175 C3174 1.327 . S
C3175 C3179 1.429 . S
C3176 C3159 1.574 . S
C3176 H3170 0.949 . S
C3176 C3180 1.368 . S
C3177 C3158 1.429 . S
C3177 C3171 1.429 . S
C3177 C3178 1.523 . S
C3178 C3159 1.368 . S
C3178 C3172 1.368 . S
C3178 C3177 1.523 . S
C3179 C3163 1.429 . S
C3179 C3175 1.429 . S
C3179 C3180 1.523 . S
C3180 C3164 1.368 . S
C3180 C3176 1.368 . S
C3180 C3179 1.523 . S
H3181 C3156 0.950 . S
H3182 C3158 0.950 . S
H3183 C3159 0.949 . S
H3184 C3161 0.950 . S
H3185 C3163 0.950 . S
C3186 C3187 1.349 . S
C3186 C3188 1.327 . S
C3186 H3211 0.950 . S
C3187 C3186 1.349 . S
C3187 C3203 1.349 . S
C3188 C3186 1.327 . S
C3188 C3207 1.429 . S
C3188 H3212 0.950 . S
C3189 C3206 1.574 . S
C3189 C3208 1.368 . S
C3189 H3213 0.949 . S
H3190 C3194 0.949 . S
C3191 C3192 1.349 . S
C3191 C3193 1.327 . S
C3191 H3214 0.950 . S
C3192 C3191 1.349 . S
C3192 C3204 1.349 . S
C3193 C3191 1.327 . S
C3193 C3209 1.429 . S
C3193 H3215 0.950 . S
C3194 H3190 0.949 . S
C3194 C3202 1.574 . S
C3194 C3210 1.368 . S
H3195 C3203 0.950 . S
H3196 C3201 0.950 . S
H3197 C3202 0.949 . S
H3198 C3204 0.950 . S
H3199 C3205 0.950 . S
H3200 C3206 0.949 . S
C3201 H3196 0.950 . S
C3201 C3203 1.327 . S
C3201 C3207 1.429 . S
C3202 C3194 1.574 . S
C3202 H3197 0.949 . S
C3202 C3208 1.368 . S
C3203 C3187 1.349 . S
C3203 H3195 0.950 . S
C3203 C3201 1.327 . S
C3204 C3192 1.349 . S
C3204 H3198 0.950 . S
C3204 C3205 1.327 . S
C3205 H3199 0.950 . S
C3205 C3204 1.327 . S
C3205 C3209 1.429 . S
C3206 C3189 1.574 . S
C3206 H3200 0.949 . S
C3206 C3210 1.368 . S
C3207 C3188 1.429 . S
C3207 C3201 1.429 . S
C3207 C3208 1.523 . S
C3208 C3189 1.368 . S
C3208 C3202 1.368 . S
C3208 C3207 1.523 . S
C3209 C3193 1.429 . S
C3209 C3205 1.429 . S
C3209 C3210 1.523 . S
C3210 C3194 1.368 . S
C3210 C3206 1.368 . S
C3210 C3209 1.523 . S
H3211 C3186 0.950 . S
H3212 C3188 0.950 . S
H3213 C3189 0.949 . S
H3214 C3191 0.950 . S
H3215 C3193 0.950 . S
C3216 C3217 1.349 . S
C3216 C3218 1.327 . S
C3216 H3241 0.950 . S
C3217 C3216 1.349 . S
C3217 C3233 1.349 . S
C3218 C3216 1.327 . S
C3218 C3237 1.429 . S
C3218 H3242 0.950 . S
C3219 C3236 1.574 . S
C3219 C3238 1.368 . S
C3219 H3243 0.949 . S
H3220 C3224 0.949 . S
C3221 C3222 1.349 . S
C3221 C3223 1.327 . S
C3221 H3244 0.950 . S
C3222 C3221 1.349 . S
C3222 C3234 1.349 . S
C3223 C3221 1.327 . S
C3223 C3239 1.429 . S
C3223 H3245 0.950 . S
C3224 H3220 0.949 . S
C3224 C3232 1.574 . S
C3224 C3240 1.368 . S
H3225 C3233 0.950 . S
H3226 C3231 0.950 . S
H3227 C3232 0.949 . S
H3228 C3234 0.950 . S
H3229 C3235 0.950 . S
H3230 C3236 0.949 . S
C3231 H3226 0.950 . S
C3231 C3233 1.327 . S
C3231 C3237 1.429 . S
C3232 C3224 1.574 . S
C3232 H3227 0.949 . S
C3232 C3238 1.368 . S
C3233 C3217 1.349 . S
C3233 H3225 0.950 . S
C3233 C3231 1.327 . S
C3234 C3222 1.349 . S
C3234 H3228 0.950 . S
C3234 C3235 1.327 . S
C3235 H3229 0.950 . S
C3235 C3234 1.327 . S
C3235 C3239 1.429 . S
C3236 C3219 1.574 . S
C3236 H3230 0.949 . S
C3236 C3240 1.368 . S
C3237 C3218 1.429 . S
C3237 C3231 1.429 . S
C3237 C3238 1.523 . S
C3238 C3219 1.368 . S
C3238 C3232 1.368 . S
C3238 C3237 1.523 . S
C3239 C3223 1.429 . S
C3239 C3235 1.429 . S
C3239 C3240 1.523 . S
C3240 C3224 1.368 . S
C3240 C3236 1.368 . S
C3240 C3239 1.523 . S
H3241 C3216 0.950 . S
H3242 C3218 0.950 . S
H3243 C3219 0.949 . S
H3244 C3221 0.950 . S
H3245 C3223 0.950 . S
C3246 C3247 1.349 . S
C3246 C3248 1.327 . S
C3246 H3271 0.950 . S
C3247 C3246 1.349 . S
C3247 C3263 1.349 . S
C3248 C3246 1.327 . S
C3248 C3267 1.429 . S
C3248 H3272 0.950 . S
C3249 C3266 1.574 . S
C3249 C3268 1.368 . S
C3249 H3273 0.949 . S
H3250 C3254 0.949 . S
C3251 C3252 1.349 . S
C3251 C3253 1.327 . S
C3251 H3274 0.950 . S
C3252 C3251 1.349 . S
C3252 C3264 1.349 . S
C3253 C3251 1.327 . S
C3253 C3269 1.429 . S
C3253 H3275 0.950 . S
C3254 H3250 0.949 . S
C3254 C3262 1.574 . S
C3254 C3270 1.368 . S
H3255 C3263 0.950 . S
H3256 C3261 0.950 . S
H3257 C3262 0.949 . S
H3258 C3264 0.950 . S
H3259 C3265 0.950 . S
H3260 C3266 0.949 . S
C3261 H3256 0.950 . S
C3261 C3263 1.327 . S
C3261 C3267 1.429 . S
C3262 C3254 1.574 . S
C3262 H3257 0.949 . S
C3262 C3268 1.368 . S
C3263 C3247 1.349 . S
C3263 H3255 0.950 . S
C3263 C3261 1.327 . S
C3264 C3252 1.349 . S
C3264 H3258 0.950 . S
C3264 C3265 1.327 . S
C3265 H3259 0.950 . S
C3265 C3264 1.327 . S
C3265 C3269 1.429 . S
C3266 C3249 1.574 . S
C3266 H3260 0.949 . S
C3266 C3270 1.368 . S
C3267 C3248 1.429 . S
C3267 C3261 1.429 . S
C3267 C3268 1.523 . S
C3268 C3249 1.368 . S
C3268 C3262 1.368 . S
C3268 C3267 1.523 . S
C3269 C3253 1.429 . S
C3269 C3265 1.429 . S
C3269 C3270 1.523 . S
C3270 C3254 1.368 . S
C3270 C3266 1.368 . S
C3270 C3269 1.523 . S
H3271 C3246 0.950 . S
H3272 C3248 0.950 . S
H3273 C3249 0.949 . S
H3274 C3251 0.950 . S
H3275 C3253 0.950 . S
C3276 C3277 1.349 . S
C3276 C3278 1.327 . S
C3276 H3301 0.950 . S
C3277 C3276 1.349 . S
C3277 C3293 1.349 . S
C3278 C3276 1.327 . S
C3278 C3297 1.429 . S
C3278 H3302 0.950 . S
C3279 C3296 1.574 . S
C3279 C3298 1.368 . S
C3279 H3303 0.949 . S
H3280 C3284 0.949 . S
C3281 C3282 1.349 1_556 S
C3281 C3283 1.327 . S
C3281 H3304 0.950 . S
C3282 C3281 1.349 1_554 S
C3282 C3294 1.349 . S
C3283 C3281 1.327 . S
C3283 C3299 1.429 . S
C3283 H3305 0.950 . S
C3284 H3280 0.949 . S
C3284 C3292 1.574 . S
C3284 C3300 1.368 . S
H3285 C3293 0.950 . S
H3286 C3291 0.950 . S
H3287 C3292 0.949 . S
H3288 C3294 0.950 . S
H3289 C3295 0.950 . S
H3290 C3296 0.949 . S
C3291 H3286 0.950 . S
C3291 C3293 1.327 . S
C3291 C3297 1.429 . S
C3292 C3284 1.574 . S
C3292 H3287 0.949 . S
C3292 C3298 1.368 . S
C3293 C3277 1.349 . S
C3293 H3285 0.950 . S
C3293 C3291 1.327 . S
C3294 C3282 1.349 . S
C3294 H3288 0.950 . S
C3294 C3295 1.327 . S
C3295 H3289 0.950 . S
C3295 C3294 1.327 . S
C3295 C3299 1.429 1_554 S
C3296 C3279 1.574 . S
C3296 H3290 0.949 . S
C3296 C3300 1.368 . S
C3297 C3278 1.429 . S
C3297 C3291 1.429 . S
C3297 C3298 1.523 . S
C3298 C3279 1.368 . S
C3298 C3292 1.368 . S
C3298 C3297 1.523 . S
C3299 C3283 1.429 . S
C3299 C3295 1.429 1_556 S
C3299 C3300 1.523 . S
C3300 C3284 1.368 . S
C3300 C3296 1.368 . S
C3300 C3299 1.523 . S
H3301 C3276 0.950 . S
H3302 C3278 0.950 . S
H3303 C3279 0.949 . S
H3304 C3281 0.950 . S
H3305 C3283 0.950 . S
C3306 C3307 1.349 . S
C3306 C3308 1.327 . S
C3306 H3331 0.950 . S
C3307 C3306 1.349 . S
C3307 C3323 1.349 . S
C3308 C3306 1.327 . S
C3308 C3327 1.429 . S
C3308 H3332 0.950 . S
C3309 C3326 1.574 . S
C3309 C3328 1.368 . S
C3309 H3333 0.949 . S
H3310 C3314 0.949 . S
C3311 C3312 1.349 . S
C3311 C3313 1.327 1_556 S
C3311 H3334 0.950 . S
C3312 C3311 1.349 . S
C3312 C3324 1.349 1_556 S
C3313 C3311 1.327 1_554 S
C3313 C3329 1.429 . S
C3313 H3335 0.950 . S
C3314 H3310 0.949 . S
C3314 C3322 1.574 . S
C3314 C3330 1.368 . S
H3315 C3323 0.950 . S
H3316 C3321 0.950 . S
H3317 C3322 0.949 . S
H3318 C3324 0.950 1_556 S
H3319 C3325 0.950 . S
H3320 C3326 0.949 . S
C3321 H3316 0.950 . S
C3321 C3323 1.327 . S
C3321 C3327 1.429 . S
C3322 C3314 1.574 . S
C3322 H3317 0.949 . S
C3322 C3328 1.368 . S
C3323 C3307 1.349 . S
C3323 H3315 0.950 . S
C3323 C3321 1.327 . S
C3324 C3312 1.349 1_554 S
C3324 H3318 0.950 1_554 S
C3324 C3325 1.327 . S
C3325 H3319 0.950 . S
C3325 C3324 1.327 . S
C3325 C3329 1.429 . S
C3326 C3309 1.574 . S
C3326 H3320 0.949 . S
C3326 C3330 1.368 . S
C3327 C3308 1.429 . S
C3327 C3321 1.429 . S
C3327 C3328 1.523 . S
C3328 C3309 1.368 . S
C3328 C3322 1.368 . S
C3328 C3327 1.523 . S
C3329 C3313 1.429 . S
C3329 C3325 1.429 . S
C3329 C3330 1.523 . S
C3330 C3314 1.368 . S
C3330 C3326 1.368 . S
C3330 C3329 1.523 . S
H3331 C3306 0.950 . S
H3332 C3308 0.950 . S
H3333 C3309 0.949 . S
H3334 C3311 0.950 . S
H3335 C3313 0.950 . S
C3336 C3337 1.349 . S
C3336 C3338 1.327 . S
C3336 H3361 0.950 . S
C3337 C3336 1.349 . S
C3337 C3353 1.349 . S
C3338 C3336 1.327 . S
C3338 C3357 1.429 . S
C3338 H3362 0.950 . S
C3339 C3356 1.574 . S
C3339 C3358 1.368 . S
C3339 H3363 0.949 . S
H3340 C3344 0.949 . S
C3341 C3342 1.349 . S
C3341 C3343 1.327 . S
C3341 H3364 0.950 . S
C3342 C3341 1.349 . S
C3342 C3354 1.349 . S
C3343 C3341 1.327 . S
C3343 C3359 1.429 . S
C3343 H3365 0.950 . S
C3344 H3340 0.949 . S
C3344 C3352 1.574 . S
C3344 C3360 1.368 . S
H3345 C3353 0.950 . S
H3346 C3351 0.950 . S
H3347 C3352 0.949 . S
H3348 C3354 0.950 . S
H3349 C3355 0.950 . S
H3350 C3356 0.949 . S
C3351 H3346 0.950 . S
C3351 C3353 1.327 . S
C3351 C3357 1.429 . S
C3352 C3344 1.574 . S
C3352 H3347 0.949 . S
C3352 C3358 1.368 . S
C3353 C3337 1.349 . S
C3353 H3345 0.950 . S
C3353 C3351 1.327 . S
C3354 C3342 1.349 . S
C3354 H3348 0.950 . S
C3354 C3355 1.327 . S
C3355 H3349 0.950 . S
C3355 C3354 1.327 . S
C3355 C3359 1.429 . S
C3356 C3339 1.574 . S
C3356 H3350 0.949 . S
C3356 C3360 1.368 . S
C3357 C3338 1.429 . S
C3357 C3351 1.429 . S
C3357 C3358 1.523 . S
C3358 C3339 1.368 . S
C3358 C3352 1.368 . S
C3358 C3357 1.523 . S
C3359 C3343 1.429 . S
C3359 C3355 1.429 . S
C3359 C3360 1.523 . S
C3360 C3344 1.368 . S
C3360 C3356 1.368 . S
C3360 C3359 1.523 . S
H3361 C3336 0.950 . S
H3362 C3338 0.950 . S
H3363 C3339 0.949 . S
H3364 C3341 0.950 . S
H3365 C3343 0.950 . S
C3366 C3367 1.349 . S
C3366 C3368 1.327 . S
C3366 H3391 0.950 . S
C3367 C3366 1.349 . S
C3367 C3383 1.349 . S
C3368 C3366 1.327 . S
C3368 C3387 1.429 . S
C3368 H3392 0.950 . S
C3369 C3386 1.574 . S
C3369 C3388 1.368 . S
C3369 H3393 0.949 . S
H3370 C3374 0.949 . S
C3371 C3372 1.349 . S
C3371 C3373 1.327 . S
C3371 H3394 0.950 . S
C3372 C3371 1.349 . S
C3372 C3384 1.349 . S
C3373 C3371 1.327 . S
C3373 C3389 1.429 . S
C3373 H3395 0.950 . S
C3374 H3370 0.949 . S
C3374 C3382 1.574 . S
C3374 C3390 1.368 . S
H3375 C3383 0.950 . S
H3376 C3381 0.950 . S
H3377 C3382 0.949 . S
H3378 C3384 0.950 . S
H3379 C3385 0.950 . S
H3380 C3386 0.949 . S
C3381 H3376 0.950 . S
C3381 C3383 1.327 . S
C3381 C3387 1.429 . S
C3382 C3374 1.574 . S
C3382 H3377 0.949 . S
C3382 C3388 1.368 . S
C3383 C3367 1.349 . S
C3383 H3375 0.950 . S
C3383 C3381 1.327 . S
C3384 C3372 1.349 . S
C3384 H3378 0.950 . S
C3384 C3385 1.327 . S
C3385 H3379 0.950 . S
C3385 C3384 1.327 . S
C3385 C3389 1.429 . S
C3386 C3369 1.574 . S
C3386 H3380 0.949 . S
C3386 C3390 1.368 . S
C3387 C3368 1.429 . S
C3387 C3381 1.429 . S
C3387 C3388 1.523 . S
C3388 C3369 1.368 . S
C3388 C3382 1.368 . S
C3388 C3387 1.523 . S
C3389 C3373 1.429 . S
C3389 C3385 1.429 . S
C3389 C3390 1.523 . S
C3390 C3374 1.368 . S
C3390 C3386 1.368 . S
C3390 C3389 1.523 . S
H3391 C3366 0.950 . S
H3392 C3368 0.950 . S
H3393 C3369 0.949 . S
H3394 C3371 0.950 . S
H3395 C3373 0.950 . S
C3396 C3397 1.349 . S
C3396 C3398 1.327 . S
C3396 H3421 0.950 . S
C3397 C3396 1.349 . S
C3397 C3413 1.349 . S
C3398 C3396 1.327 . S
C3398 C3417 1.429 . S
C3398 H3422 0.950 . S
C3399 C3416 1.574 . S
C3399 C3418 1.368 . S
C3399 H3423 0.949 . S
H3400 C3404 0.949 . S
C3401 C3402 1.349 . S
C3401 C3403 1.327 . S
C3401 H3424 0.950 . S
C3402 C3401 1.349 . S
C3402 C3414 1.349 1_556 S
C3403 C3401 1.327 . S
C3403 C3419 1.429 1_556 S
C3403 H3425 0.950 . S
C3404 H3400 0.949 . S
C3404 C3412 1.574 . S
C3404 C3420 1.368 . S
H3405 C3413 0.950 . S
H3406 C3411 0.950 . S
H3407 C3412 0.949 . S
H3408 C3414 0.950 . S
H3409 C3415 0.950 . S
H3410 C3416 0.949 . S
C3411 H3406 0.950 . S
C3411 C3413 1.327 . S
C3411 C3417 1.429 . S
C3412 C3404 1.574 . S
C3412 H3407 0.949 . S
C3412 C3418 1.368 . S
C3413 C3397 1.349 . S
C3413 H3405 0.950 . S
C3413 C3411 1.327 . S
C3414 C3402 1.349 1_554 S
C3414 H3408 0.950 . S
C3414 C3415 1.327 . S
C3415 H3409 0.950 . S
C3415 C3414 1.327 . S
C3415 C3419 1.429 . S
C3416 C3399 1.574 . S
C3416 H3410 0.949 . S
C3416 C3420 1.368 . S
C3417 C3398 1.429 . S
C3417 C3411 1.429 . S
C3417 C3418 1.523 . S
C3418 C3399 1.368 . S
C3418 C3412 1.368 . S
C3418 C3417 1.523 . S
C3419 C3403 1.429 1_554 S
C3419 C3415 1.429 . S
C3419 C3420 1.523 . S
C3420 C3404 1.368 . S
C3420 C3416 1.368 . S
C3420 C3419 1.523 . S
H3421 C3396 0.950 . S
H3422 C3398 0.950 . S
H3423 C3399 0.949 . S
H3424 C3401 0.950 . S
H3425 C3403 0.950 . S
C3426 C3427 1.349 1_556 S
C3426 C3428 1.327 . S
C3426 H3451 0.950 . S
C3427 C3426 1.349 1_554 S
C3427 C3443 1.349 . S
C3428 C3426 1.327 . S
C3428 C3447 1.429 . S
C3428 H3452 0.950 . S
C3429 C3446 1.574 . S
C3429 C3448 1.368 . S
C3429 H3453 0.949 . S
H3430 C3434 0.949 . S
C3431 C3432 1.349 . S
C3431 C3433 1.327 . S
C3431 H3454 0.950 . S
C3432 C3431 1.349 . S
C3432 C3444 1.349 . S
C3433 C3431 1.327 . S
C3433 C3449 1.429 . S
C3433 H3455 0.950 . S
C3434 H3430 0.949 . S
C3434 C3442 1.574 . S
C3434 C3450 1.368 . S
H3435 C3443 0.950 . S
H3436 C3441 0.949 1_554 S
H3437 C3442 0.949 . S
H3438 C3444 0.950 . S
H3439 C3445 0.950 . S
H3440 C3446 0.949 . S
C3441 H3436 0.949 1_556 S
C3441 C3443 1.327 1_556 S
C3441 C3447 1.429 . S
C3442 C3434 1.574 . S
C3442 H3437 0.949 . S
C3442 C3448 1.368 . S
C3443 C3427 1.349 . S
C3443 H3435 0.950 . S
C3443 C3441 1.327 1_554 S
C3444 C3432 1.349 . S
C3444 H3438 0.950 . S
C3444 C3445 1.327 . S
C3445 H3439 0.950 . S
C3445 C3444 1.327 . S
C3445 C3449 1.429 . S
C3446 C3429 1.574 . S
C3446 H3440 0.949 . S
C3446 C3450 1.368 . S
C3447 C3428 1.429 . S
C3447 C3441 1.429 . S
C3447 C3448 1.523 . S
C3448 C3429 1.368 . S
C3448 C3442 1.368 . S
C3448 C3447 1.523 . S
C3449 C3433 1.429 . S
C3449 C3445 1.429 . S
C3449 C3450 1.523 . S
C3450 C3434 1.368 . S
C3450 C3446 1.368 . S
C3450 C3449 1.523 . S
H3451 C3426 0.950 . S
H3452 C3428 0.950 . S
H3453 C3429 0.949 . S
H3454 C3431 0.950 . S
H3455 C3433 0.950 . S
C1057 C1011 1.498 . S
C1062 C21 1.498 . S
C1087 C54 1.498 . S
C1092 C516 1.498 . S
C1117 C87 1.498 . S
C1122 C945 1.498 . S
C1147 C120 1.498 . S
C1152 C450 1.498 . S
C1177 C879 1.498 . S
C1182 C153 1.498 . S
C1207 C384 1.498 . S
C1212 C186 1.498 . S
C1237 C219 1.498 . S
C1242 C813 1.498 . S
C1267 C318 1.498 . S
C1272 C252 1.498 . S
C1297 C747 1.498 . S
C1302 C285 1.498 . S
C1327 C681 1.498 . S
C1332 C351 1.498 . S
C1357 C417 1.498 . S
C1362 C615 1.498 . S
C1387 C549 1.498 . S
C1392 C483 1.498 . S
C1417 C1044 1.498 . S
C1422 C582 1.498 . S
C1447 C978 1.498 . S
C1452 C648 1.498 . S
C1477 C912 1.498 . S
C1482 C714 1.498 . S
C1507 C846 1.498 . S
C1512 C780 1.498 . S
C1537 N2 0.965 . S
C1542 N13 0.965 . S
C1567 N35 0.965 . S
C1572 N46 0.965 . S
C1597 N68 0.965 . S
C1602 N79 0.965 . S
C1627 N101 0.965 . S
C1632 N112 0.965 . S
C1657 N134 0.965 . S
C1662 N145 0.965 . S
C1687 N167 0.965 . S
C1692 N178 0.965 . S
C1717 N211 0.965 . S
C1722 N200 0.965 . S
C1747 N233 0.965 . S
C1752 N244 0.965 . S
C1777 N266 0.965 . S
C1782 N277 0.965 . S
C1807 N310 0.965 . S
C1812 N299 0.965 . S
C1837 N332 0.965 . S
C1842 N343 0.965 . S
C1867 N365 0.965 . S
C1872 N376 0.965 . S
C1897 N398 0.965 . S
C1902 N409 0.965 . S
C1927 N442 0.965 . S
C1932 N431 0.965 . S
C1957 N464 0.965 . S
C1962 N475 0.965 . S
C1987 N508 0.965 . S
C1992 N497 0.965 . S
C2017 N541 0.965 . S
C2022 N530 0.965 . S
C2047 N563 0.965 . S
C2052 N574 0.965 . S
C2077 N607 0.965 . S
C2082 N596 0.965 . S
C2107 N640 0.965 . S
C2112 N629 0.965 . S
C2137 N673 0.965 . S
C2142 N662 0.965 . S
C2167 N706 0.965 . S
C2172 N695 0.965 . S
C2197 N739 0.965 . S
C2202 N728 0.965 . S
C2227 N772 0.965 . S
C2232 N761 0.965 . S
C2257 N805 0.965 . S
C2262 N794 0.965 . S
C2287 N838 0.965 . S
C2292 N827 0.965 . S
C2317 N860 0.965 . S
C2322 N871 0.965 . S
C2347 N904 0.965 . S
C2352 N893 0.965 . S
C2377 N937 0.965 . S
C2382 N926 0.965 . S
C2407 N970 0.965 . S
C2412 N959 0.965 . S
C2437 N992 0.965 . S
C2442 N1003 0.965 . S
C2467 N1025 0.965 . S
C2472 N1036 0.965 . S
C2497 C205 1.343 . S
C2502 C7 1.343 . S
C2527 C238 1.343 . S
C2532 C40 1.343 . S
C2557 C73 1.343 . S
C2562 C139 1.343 . S
C2587 C172 1.343 . S
C2592 C106 1.343 . S
C2617 C271 1.343 . S
C2622 C469 1.343 . S
C2647 C304 1.343 . S
C2652 C502 1.343 . S
C2677 C337 1.343 . S
C2682 C403 1.343 . S
C2707 C436 1.343 . S
C2712 C370 1.343 . S
C2737 C733 1.343 . S
C2742 C535 1.343 . S
C2767 C568 1.343 . S
C2772 C766 1.343 . S
C2797 C667 1.343 . S
C2802 C601 1.343 . S
C2827 C700 1.343 . S
C2832 C634 1.343 . S
C2857 C799 1.343 . S
C2862 C997 1.343 . S
C2887 C1030 1.343 . S
C2892 C832 1.343 . S
C2917 C865 1.343 . S
C2922 C931 1.343 . S
C2947 C964 1.343 . S
C2952 C898 1.343 . S
C2977 C18 1.111 . S
C2982 C249 1.111 . S
C3007 C150 1.111 . S
C3012 C51 1.111 . S
C3037 C84 1.111 . S
C3042 C183 1.111 . S
C3067 C117 1.111 . S
C3072 C216 1.111 . S
C3097 C282 1.111 . S
C3102 C513 1.111 . S
C3127 C414 1.111 . S
C3132 C315 1.111 . S
C3157 C348 1.111 . S
C3162 C447 1.111 . S
C3187 C381 1.111 . S
C3192 C480 1.111 . S
C3217 C777 1.111 . S
C3222 C546 1.111 . S
C3247 C678 1.111 . S
C3252 C579 1.111 . S
C3277 C711 1.111 . S
C3282 C612 1.111 . S
C3307 C645 1.111 . S
C3312 C744 1.111 . S
C3337 C810 1.111 . S
C3342 C1041 1.111 . S
C3367 C843 1.111 . S
C3372 C942 1.111 . S
C3397 C975 1.111 . S
C3402 C876 1.111 . S
C3427 C1008 1.111 . S
C3432 C909 1.111 . S
