# Generated by pormake.
# Topology crs, (6)-cn, num edge types: 1
# Building blocks:
#     Node 0, Type 0, BuildingBlock: BETDEL_clean_sbu_0, # of connection points: 6
#     Node 1, Type 0, BuildingBlock: BETDEL_clean_sbu_0, # of connection points: 6
#     Node 2, Type 0, BuildingBlock: BETDEL_clean_sbu_0, # of connection points: 6
#     Node 3, Type 0, BuildingBlock: BETDEL_clean_sbu_0, # of connection points: 6
#     Node 4, Type 0, BuildingBlock: BETDEL_clean_sbu_0, # of connection points: 6
#     Node 5, Type 0, BuildingBlock: BETDEL_clean_sbu_0, # of connection points: 6
#     Node 6, Type 0, BuildingBlock: BETDEL_clean_sbu_0, # of connection points: 6
#     Node 7, Type 0, BuildingBlock: BETDEL_clean_sbu_0, # of connection points: 6
#     Node 8, Type 0, BuildingBlock: BETDEL_clean_sbu_0, # of connection points: 6
#     Node 9, Type 0, BuildingBlock: BETDEL_clean_sbu_0, # of connection points: 6
#     Node 10, Type 0, BuildingBlock: BETDEL_clean_sbu_0, # of connection points: 6
#     Node 11, Type 0, BuildingBlock: BETDEL_clean_sbu_0, # of connection points: 6
#     Node 12, Type 0, BuildingBlock: BETDEL_clean_sbu_0, # of connection points: 6
#     Node 13, Type 0, BuildingBlock: BETDEL_clean_sbu_0, # of connection points: 6
#     Node 14, Type 0, BuildingBlock: BETDEL_clean_sbu_0, # of connection points: 6
#     Node 15, Type 0, BuildingBlock: BETDEL_clean_sbu_0, # of connection points: 6
#     Edge 16, Type (0, 0), BuildingBlock: OJICUG_clean_linker_0, # of connection points: 2
#     Edge 17, Type (0, 0), BuildingBlock: OJICUG_clean_linker_0, # of connection points: 2
#     Edge 18, Type (0, 0), BuildingBlock: OJICUG_clean_linker_0, # of connection points: 2
#     Edge 19, Type (0, 0), BuildingBlock: OJICUG_clean_linker_0, # of connection points: 2
#     Edge 20, Type (0, 0), BuildingBlock: OJICUG_clean_linker_0, # of connection points: 2
#     Edge 21, Type (0, 0), BuildingBlock: OJICUG_clean_linker_0, # of connection points: 2
#     Edge 22, Type (0, 0), BuildingBlock: OJICUG_clean_linker_0, # of connection points: 2
#     Edge 23, Type (0, 0), BuildingBlock: OJICUG_clean_linker_0, # of connection points: 2
#     Edge 24, Type (0, 0), BuildingBlock: OJICUG_clean_linker_0, # of connection points: 2
#     Edge 25, Type (0, 0), BuildingBlock: OJICUG_clean_linker_0, # of connection points: 2
#     Edge 26, Type (0, 0), BuildingBlock: OJICUG_clean_linker_0, # of connection points: 2
#     Edge 27, Type (0, 0), BuildingBlock: OJICUG_clean_linker_0, # of connection points: 2
#     Edge 28, Type (0, 0), BuildingBlock: OJICUG_clean_linker_0, # of connection points: 2
#     Edge 29, Type (0, 0), BuildingBlock: OJICUG_clean_linker_0, # of connection points: 2
#     Edge 30, Type (0, 0), BuildingBlock: OJICUG_clean_linker_0, # of connection points: 2
#     Edge 31, Type (0, 0), BuildingBlock: OJICUG_clean_linker_0, # of connection points: 2
#     Edge 32, Type (0, 0), BuildingBlock: OJICUG_clean_linker_0, # of connection points: 2
#     Edge 33, Type (0, 0), BuildingBlock: OJICUG_clean_linker_0, # of connection points: 2
#     Edge 34, Type (0, 0), BuildingBlock: OJICUG_clean_linker_0, # of connection points: 2
#     Edge 35, Type (0, 0), BuildingBlock: OJICUG_clean_linker_0, # of connection points: 2
#     Edge 36, Type (0, 0), BuildingBlock: OJICUG_clean_linker_0, # of connection points: 2
#     Edge 37, Type (0, 0), BuildingBlock: OJICUG_clean_linker_0, # of connection points: 2
#     Edge 38, Type (0, 0), BuildingBlock: OJICUG_clean_linker_0, # of connection points: 2
#     Edge 39, Type (0, 0), BuildingBlock: OJICUG_clean_linker_0, # of connection points: 2
#     Edge 40, Type (0, 0), BuildingBlock: OJICUG_clean_linker_0, # of connection points: 2
#     Edge 41, Type (0, 0), BuildingBlock: OJICUG_clean_linker_0, # of connection points: 2
#     Edge 42, Type (0, 0), BuildingBlock: OJICUG_clean_linker_0, # of connection points: 2
#     Edge 43, Type (0, 0), BuildingBlock: OJICUG_clean_linker_0, # of connection points: 2
#     Edge 44, Type (0, 0), BuildingBlock: OJICUG_clean_linker_0, # of connection points: 2
#     Edge 45, Type (0, 0), BuildingBlock: OJICUG_clean_linker_0, # of connection points: 2
#     Edge 46, Type (0, 0), BuildingBlock: OJICUG_clean_linker_0, # of connection points: 2
#     Edge 47, Type (0, 0), BuildingBlock: OJICUG_clean_linker_0, # of connection points: 2
#     Edge 48, Type (0, 0), BuildingBlock: OJICUG_clean_linker_0, # of connection points: 2
#     Edge 49, Type (0, 0), BuildingBlock: OJICUG_clean_linker_0, # of connection points: 2
#     Edge 50, Type (0, 0), BuildingBlock: OJICUG_clean_linker_0, # of connection points: 2
#     Edge 51, Type (0, 0), BuildingBlock: OJICUG_clean_linker_0, # of connection points: 2
#     Edge 52, Type (0, 0), BuildingBlock: OJICUG_clean_linker_0, # of connection points: 2
#     Edge 53, Type (0, 0), BuildingBlock: OJICUG_clean_linker_0, # of connection points: 2
#     Edge 54, Type (0, 0), BuildingBlock: OJICUG_clean_linker_0, # of connection points: 2
#     Edge 55, Type (0, 0), BuildingBlock: OJICUG_clean_linker_0, # of connection points: 2
#     Edge 56, Type (0, 0), BuildingBlock: OJICUG_clean_linker_0, # of connection points: 2
#     Edge 57, Type (0, 0), BuildingBlock: OJICUG_clean_linker_0, # of connection points: 2
#     Edge 58, Type (0, 0), BuildingBlock: OJICUG_clean_linker_0, # of connection points: 2
#     Edge 59, Type (0, 0), BuildingBlock: OJICUG_clean_linker_0, # of connection points: 2
#     Edge 60, Type (0, 0), BuildingBlock: OJICUG_clean_linker_0, # of connection points: 2
#     Edge 61, Type (0, 0), BuildingBlock: OJICUG_clean_linker_0, # of connection points: 2
#     Edge 62, Type (0, 0), BuildingBlock: OJICUG_clean_linker_0, # of connection points: 2
#     Edge 63, Type (0, 0), BuildingBlock: OJICUG_clean_linker_0, # of connection points: 2
# Relax obj value: 0.370
# Max RMSD: 0.316
# Mean RMSD: 0.260
data_MOF--net-crs--node1-BETDEL_clean_sbu_0--edge1-OJICUG_clean_linker_0
_symmetry_space_group_name_H-M    P1
_symmetry_Int_Tables_number       1
_symmetry_cell_setting            triclinic
loop_
_symmetry_equiv_pos_as_xyz
'x, y, z'
_cell_length_a     33.109549
_cell_length_b     33.732573
_cell_length_c     31.541013
_cell_angle_alpha  81.40902
_cell_angle_beta   84.727356
_cell_angle_gamma 75.472392
loop_
_atom_site_label
_atom_site_type_symbol
_atom_site_fract_x
_atom_site_fract_y
_atom_site_fract_z
_atom_type_partial_charge
Dy0 Dy 0.95777 0.97352 0.01548 0.0
C1 C 0.10276 0.03481 0.95196 0.0
C2 C 0.89112 0.93996 0.03888 0.0
Dy3 Dy 0.03403 0.00351 0.97023 0.0
O4 O 0.92768 0.92661 0.05451 0.0
O5 O 0.89069 0.97208 0.01023 0.0
O6 O 0.98179 0.97213 0.07945 0.0
O7 O 0.02435 0.95977 0.02615 0.0
C8 C 0.0206 0.96557 0.06521 0.0
C9 C 0.97031 0.01283 0.9208 0.0
O10 O 0.05159 0.94064 0.95113 0.0
O11 O 0.98626 0.92681 0.97059 0.0
O12 O 0.06773 0.04867 0.93319 0.0
O13 O 0.10052 0.00326 0.98052 0.0
O14 O 0.00899 0.00716 0.90596 0.0
O15 O 0.96739 0.01754 0.96008 0.0
O16 O 0.9403 0.03717 0.03405 0.0
O17 O 0.00586 0.04992 0.01464 0.0
C18 C 0.02408 0.9182 0.95108 0.0
C19 C 0.96836 0.05908 0.0346 0.0
Dy20 Dy 0.00327 0.26292 0.26986 0.0
C21 C 0.96424 0.15502 0.17057 0.0
C22 C 0.00999 0.31775 0.32216 0.0
Dy23 Dy 0.97087 0.20827 0.22491 0.0
O24 O 0.03886 0.2851 0.31524 0.0
O25 O 0.97818 0.32091 0.29972 0.0
O26 O 0.06818 0.22797 0.25592 0.0
O27 O 0.02071 0.19539 0.26909 0.0
C28 C 0.05895 0.19253 0.25793 0.0
C29 C 0.91522 0.27873 0.23598 0.0
O30 O 0.95347 0.18147 0.29116 0.0
O31 O 0.96176 0.23723 0.32094 0.0
O32 O 0.93273 0.17926 0.1885 0.0
O33 O -0.00109 0.15888 0.18352 0.0
O34 O 0.90574 0.24361 0.23692 0.0
O35 O 0.95356 0.27561 0.2254 0.0
O36 O 0.02272 0.2894 0.20474 0.0
O37 O 0.01057 0.23638 0.17294 0.0
C38 C 0.94787 0.20342 0.3236 0.0
C39 C 0.0264 0.269 0.17141 0.0
Dy40 Dy 0.71835 0.20571 0.47668 0.0
C41 C 0.77423 0.3297 0.54492 0.0
C42 C 0.70027 0.13751 0.45465 0.0
Dy43 Dy 0.75536 0.26295 0.5201 0.0
O44 O 0.6866 0.17498 0.436 0.0
O45 O 0.72408 0.13733 0.48514 0.0
O46 O 0.68065 0.26017 0.43544 0.0
O47 O 0.73892 0.26195 0.45538 0.0
C48 C 0.70682 0.28293 0.43676 0.0
C49 C 0.76642 0.18554 0.55982 0.0
O50 O 0.68774 0.28096 0.54369 0.0
O51 O 0.66516 0.22694 0.52348 0.0
O52 O 0.78696 0.29184 0.56282 0.0
O53 O 0.75106 0.3311 0.51346 0.0
O54 O 0.79301 0.20791 0.56075 0.0
O55 O 0.73442 0.20694 0.54142 0.0
O56 O 0.78578 0.18834 0.45222 0.0
O57 O 0.80849 0.24203 0.47311 0.0
C58 C 0.65868 0.26008 0.54354 0.0
C59 C 0.81486 0.20913 0.45266 0.0
Dy60 Dy 0.70713 0.97595 0.72671 0.0
C61 C 0.83844 -0.00276 0.82192 0.0
C62 C 0.64397 0.97289 0.67833 0.0
Dy63 Dy 0.77506 -0.0049 0.77353 0.0
O64 O 0.68349 0.96257 0.66714 0.0
O65 O 0.63874 0.98538 0.71601 0.0
O66 O 0.74064 0.9097 0.73121 0.0
O67 O 0.77567 0.95461 0.72569 0.0
C68 C 0.77744 0.91635 0.73189 0.0
C69 C 0.70462 0.05466 0.76862 0.0
O70 O 0.78914 0.0258 0.70795 0.0
O71 O 0.72483 0.02821 0.68267 0.0
O72 O 0.84354 0.9846 0.78433 0.0
O73 O 0.79894 0.00839 0.83291 0.0
O74 O 0.74147 0.06128 0.7691 0.0
O75 O 0.70643 0.01637 0.77483 0.0
O76 O 0.69314 0.9455 0.7925 0.0
O77 O 0.75743 0.94306 0.81778 0.0
C78 C 0.76048 0.03988 0.67908 0.0
C79 C 0.72175 0.93152 0.82145 0.0
Dy80 Dy 0.50348 0.77015 0.27552 0.0
C81 C 0.46683 0.65627 0.16836 0.0
C82 C 0.50502 0.82804 0.3253 0.0
Dy83 Dy 0.4702 0.71228 0.21997 0.0
O84 O 0.53668 0.81128 0.30096 0.0
O85 O 0.47238 0.81479 0.32041 0.0
O86 O 0.5585 0.72176 0.30207 0.0
O87 O 0.51966 0.70671 0.26261 0.0
C88 C 0.55191 0.69226 0.28354 0.0
C89 C 0.4232 0.79104 0.21182 0.0
O90 O 0.44638 0.69135 0.28609 0.0
O91 O 0.45697 0.74491 0.32004 0.0
O92 O 0.43642 0.67119 0.19507 0.0
O93 O 0.49945 0.67002 0.172 0.0
O94 O 0.41592 0.76229 0.19263 0.0
O95 O 0.45463 0.7752 0.23326 0.0
O96 O 0.52746 0.79063 0.20932 0.0
O97 O 0.51813 0.73598 0.17638 0.0
C98 C 0.44141 0.71236 0.31946 0.0
C99 C 0.53315 0.76891 0.17647 0.0
Dy100 Dy 0.21645 0.70556 0.47325 0.0
C101 C 0.27686 0.8379 0.52828 0.0
C102 C 0.18666 0.64239 0.45597 0.0
Dy103 Dy 0.25268 0.76946 0.51613 0.0
O104 O 0.17042 0.68125 0.44369 0.0
O105 O 0.219 0.63792 0.47824 0.0
O106 O 0.21847 0.74361 0.40946 0.0
O107 O 0.21009 0.77257 0.46555 0.0
C108 C 0.21627 0.7777 0.42507 0.0
C109 C 0.2683 0.69264 0.56083 0.0
O110 O 0.18594 0.7845 0.54113 0.0
O111 O 0.16605 0.72747 0.52297 0.0
O112 O 0.26279 0.81348 0.55871 0.0
O113 O 0.27812 0.82467 0.49144 0.0
O114 O 0.28092 0.72267 0.57269 0.0
O115 O 0.25063 0.7065 0.52658 0.0
O116 O 0.28383 0.68794 0.45136 0.0
O117 O 0.30393 0.74519 0.46857 0.0
C118 C 0.15917 0.76068 0.54321 0.0
C119 C 0.31097 0.71125 0.44961 0.0
Dy120 Dy 0.20775 0.47571 0.71521 0.0
C121 C 0.33547 0.49394 0.81648 0.0
C122 C 0.14401 0.47393 0.66705 0.0
Dy123 Dy 0.2739 0.49385 0.76531 0.0
O124 O 0.18343 0.46344 0.65539 0.0
O125 O 0.1393 0.48598 0.70488 0.0
O126 O 0.24268 0.4099 0.71723 0.0
O127 O 0.27617 0.45562 0.71509 0.0
C128 C 0.279 0.41724 0.71933 0.0
C129 C 0.20295 0.55245 0.76095 0.0
O130 O 0.28888 0.52728 0.70173 0.0
O131 O 0.22595 0.52953 0.6733 0.0
O132 O 0.2958 0.50669 0.82574 0.0
O133 O 0.34178 0.48116 0.77894 0.0
O134 O 0.2394 0.5596 0.76282 0.0
O135 O 0.20536 0.51407 0.76557 0.0
O136 O 0.19379 0.44191 0.77981 0.0
O137 O 0.2566 0.44073 0.80748 0.0
C138 C 0.26106 0.5421 0.67215 0.0
C139 C 0.2216 0.42824 0.80967 0.0
Dy140 Dy 0.94326 0.47078 0.5265 0.0
C141 C 0.08752 0.52858 0.45437 0.0
C142 C 0.87384 0.44181 0.54983 0.0
Dy143 Dy 0.02029 0.49675 0.47946 0.0
O144 O 0.91049 0.4256 0.56448 0.0
O145 O 0.87484 0.47441 0.52234 0.0
O146 O 0.97141 0.46234 0.58978 0.0
O147 O 0.01062 0.45194 0.53412 0.0
C148 C 0.0097 0.45476 0.57381 0.0
C149 C 0.95448 0.51151 0.43168 0.0
O150 O 0.0334 0.43406 0.45965 0.0
O151 O 0.96565 0.42688 0.47798 0.0
O152 O 0.05011 0.54397 0.44141 0.0
O153 O 0.08862 0.49502 0.48107 0.0
O154 O -0.00706 0.50374 0.41628 0.0
O155 O 0.95287 0.51525 0.47127 0.0
O156 O 0.93164 0.53286 0.54807 0.0
O157 O -0.00066 0.53953 0.52882 0.0
C158 C 0.00273 0.41577 0.45758 0.0
C159 C 0.96275 0.55062 0.54997 0.0
Dy160 Dy 0.22469 0.21289 0.9815 0.0
C161 C 0.27569 0.34217 0.04625 0.0
C162 C 0.20515 0.14575 0.95785 0.0
Dy163 Dy 0.25761 0.27338 0.02479 0.0
O164 O 0.19474 0.18311 0.93805 0.0
O165 O 0.22695 0.1449 0.99029 0.0
O166 O 0.18762 0.26581 0.93816 0.0
O167 O 0.24453 0.26975 0.9593 0.0
C168 C 0.21298 0.28945 0.93893 0.0
C169 C 0.269 0.19686 0.06729 0.0
O170 O 0.18909 0.29021 0.04602 0.0
O171 O 0.16978 0.23421 0.02603 0.0
O172 O 0.28766 0.3051 0.06645 0.0
O173 O 0.25331 0.34166 0.01472 0.0
O174 O 0.29431 0.22043 0.0689 0.0
O175 O 0.23778 0.21683 0.04669 0.0
O176 O 0.29321 0.19496 0.96154 0.0
O177 O 0.31275 0.25123 0.98052 0.0
C178 C 0.16121 0.26805 0.04515 0.0
C179 C 0.32119 0.21702 0.96198 0.0
Dy180 Dy 0.211 0.98015 0.21936 0.0
C181 C 0.33311 0.00112 0.3338 0.0
C182 C 0.14729 0.97743 0.17208 0.0
Dy183 Dy 0.27265 0.00016 0.28147 0.0
O184 O 0.17995 0.94754 0.18014 0.0
O185 O 0.14846 0.00884 0.19104 0.0
O186 O 0.25997 0.93435 0.18486 0.0
O187 O 0.27627 0.96184 0.23248 0.0
C188 C 0.29048 0.93562 0.2072 0.0
C189 C 0.19804 0.05293 0.2746 0.0
O190 O 0.2866 0.03755 0.21861 0.0
O191 O 0.2282 0.03578 0.18306 0.0
O192 O 0.2932 0.01206 0.34332 0.0
O193 O 0.34004 -0.01064 0.29574 0.0
O194 O 0.23157 0.06301 0.28299 0.0
O195 O 0.20495 0.01423 0.27452 0.0
O196 O 0.20056 0.93819 0.27889 0.0
O197 O 0.25439 0.9446 0.31899 0.0
C198 C 0.26097 0.05078 0.18644 0.0
C199 C 0.22408 0.92708 0.31263 0.0
Dy200 Dy 0.50924 0.26674 0.77413 0.0
C201 C 0.46563 0.15135 0.68893 0.0
C202 C 0.51892 0.32194 0.82464 0.0
Dy203 Dy 0.47652 0.2085 0.73606 0.0
O204 O 0.54913 0.30001 0.80282 0.0
O205 O 0.48362 0.31501 0.81733 0.0
O206 O 0.57451 0.23224 0.76146 0.0
O207 O 0.5281 0.19893 0.77751 0.0
C208 C 0.56601 0.19643 0.76533 0.0
C209 C 0.41974 0.27855 0.74597 0.0
O210 O 0.45898 0.18547 0.80322 0.0
O211 O 0.4714 0.24126 0.82963 0.0
O212 O 0.43938 0.18647 0.69232 0.0
O213 O 0.49732 0.14711 0.71194 0.0
O214 O 0.41194 0.24227 0.75202 0.0
O215 O 0.45745 0.2765 0.7327 0.0
O216 O 0.52209 0.29159 0.706 0.0
O217 O 0.51693 0.23182 0.68208 0.0
C218 C 0.45594 0.20817 0.83458 0.0
C219 C 0.52852 0.26711 0.67571 0.0
Dy220 Dy 0.0073 0.76149 0.77448 0.0
C221 C 0.96278 0.65042 0.68207 0.0
C222 C 0.02366 0.80985 0.82919 0.0
Dy223 Dy 0.97342 0.7063 0.73122 0.0
O224 O 0.02738 0.77043 0.83745 0.0
O225 O 0.01079 0.82339 0.79076 0.0
O226 O 0.0723 0.72822 0.7583 0.0
O227 O 0.026 0.69455 0.77182 0.0
C228 C 0.06367 0.69274 0.75916 0.0
C229 C 0.91688 0.77548 0.74563 0.0
O230 O 0.95779 0.68083 0.7981 0.0
O231 O 0.96129 0.74038 0.82368 0.0
O232 O 0.93568 0.6846 0.68758 0.0
O233 O -0.00483 0.64649 0.70395 0.0
O234 O 0.90849 0.73968 0.74744 0.0
O235 O 0.95474 0.77364 0.73336 0.0
O236 O 0.02637 0.78572 0.708 0.0
O237 O 0.01245 0.73244 0.67788 0.0
C238 C 0.95049 0.70469 0.8289 0.0
C239 C 0.02867 0.76485 0.67516 0.0
Dy240 Dy 0.70234 0.47397 0.22622 0.0
C241 C 0.82347 0.49958 0.32924 0.0
C242 C 0.64176 0.46787 0.17576 0.0
Dy243 Dy 0.76306 0.49633 0.27726 0.0
O244 O 0.66219 0.43805 0.20209 0.0
O245 O 0.6536 0.5014 0.17773 0.0
O246 O 0.74088 0.41004 0.22503 0.0
O247 O 0.77122 0.4575 0.2261 0.0
C248 C 0.77595 0.41887 0.22908 0.0
C249 C 0.68892 0.5516 0.27217 0.0
O250 O 0.77955 0.53005 0.21451 0.0
O251 O 0.72212 0.52488 0.18075 0.0
O252 O 0.78359 0.50991 0.33869 0.0
O253 O 0.83032 0.48751 0.29145 0.0
O254 O 0.72438 0.56075 0.27432 0.0
O255 O 0.69377 0.51283 0.27717 0.0
O256 O 0.68367 0.44754 0.29249 0.0
O257 O 0.74862 0.44085 0.31721 0.0
C258 C 0.75482 0.54071 0.18196 0.0
C259 C 0.71241 0.43062 0.32074 0.0
Dy260 Dy 0.72259 0.70988 0.9805 0.0
C261 C 0.78562 0.82938 0.04778 0.0
C262 C 0.69883 0.64685 0.95327 0.0
Dy263 Dy 0.76206 0.76375 0.02585 0.0
O264 O 0.68845 0.68523 0.93637 0.0
O265 O 0.72245 0.64281 0.98505 0.0
O266 O 0.6866 0.76603 0.94078 0.0
O267 O 0.74592 0.76495 0.96031 0.0
C268 C 0.7141 0.78728 0.94204 0.0
C269 C 0.76874 0.68627 0.06514 0.0
O270 O 0.69492 0.78447 0.04909 0.0
O271 O 0.67006 0.73248 0.02731 0.0
O272 O 0.79813 0.79138 0.06551 0.0
O273 O 0.75953 0.83153 0.01877 0.0
O274 O 0.79629 0.70727 0.06757 0.0
O275 O 0.73795 0.70912 0.04588 0.0
O276 O 0.79016 0.68917 0.95793 0.0
O277 O 0.81465 0.74135 0.97949 0.0
C278 C 0.66478 0.76524 0.04776 0.0
C279 C 0.82017 0.70862 0.95913 0.0
Dy280 Dy 0.44732 0.97539 0.52966 0.0
C281 C 0.59721 0.02704 0.46137 0.0
C282 C 0.37452 0.95055 0.54373 0.0
Dy283 Dy 0.52769 -0.00127 0.4858 0.0
O284 O 0.40737 0.93534 0.56581 0.0
O285 O 0.38111 0.98015 0.51468 0.0
O286 O 0.47309 0.96488 0.59435 0.0
O287 O 0.51414 0.95462 0.53971 0.0
C288 C 0.51188 0.95688 0.57966 0.0
C289 C 0.46313 0.01524 0.43597 0.0
O290 O 0.53987 0.93633 0.4658 0.0
O291 O 0.47194 0.92951 0.48381 0.0
O292 O 0.56043 0.04342 0.44715 0.0
O293 O 0.59628 -0.00513 0.48956 0.0
O294 O 0.50187 0.00623 0.42161 0.0
O295 O 0.46091 0.019 0.47553 0.0
O296 O 0.43687 0.03733 0.55092 0.0
O297 O 0.50589 0.04168 0.53493 0.0
C298 C 0.50918 0.91804 0.46388 0.0
C299 C 0.46862 0.05371 0.55458 0.0
Dy300 Dy 0.45292 0.47414 0.01781 0.0
C301 C 0.59375 0.54001 0.94435 0.0
C302 C 0.3787 0.45361 0.04108 0.0
Dy303 Dy 0.52634 0.50825 0.96653 0.0
O304 O 0.40868 0.44879 0.06669 0.0
O305 O 0.38908 0.47052 0.00331 0.0
O306 O 0.50045 0.4311 0.06225 0.0
O307 O 0.51028 0.48685 0.03178 0.0
C308 C 0.52669 0.45474 0.05525 0.0
C309 C 0.46422 0.50739 0.91956 0.0
O310 O 0.54612 0.44109 0.95849 0.0
O311 O 0.48035 0.4278 0.97407 0.0
O312 O 0.55658 0.55638 0.93058 0.0
O313 O 0.5942 0.50589 0.97001 0.0
O314 O 0.50225 0.50504 0.90377 0.0
O315 O 0.46057 0.51468 0.95809 0.0
O316 O 0.43774 0.53595 0.04055 0.0
O317 O 0.49485 0.55898 0.00563 0.0
C318 C 0.51908 0.41818 0.95732 0.0
C319 C 0.46122 0.56321 0.03279 0.0
C320 C -0.00489 0.10828 0.06866 0.0
C321 C 0.96224 0.08964 0.06504 0.0
H322 H 0.02181 0.14206 0.10573 0.0
C323 C 0.92789 0.09534 0.0952 0.0
H324 H 0.02199 0.10503 0.04599 0.0
C325 C 0.92763 0.1176 0.12943 0.0
C326 C 0.96215 0.13331 0.13429 0.0
H327 H 0.9022 0.08125 0.0934 0.0
H328 H 0.9014 0.1211 0.15293 0.0
C329 C -0.00465 0.12922 0.10323 0.0
C330 C 0.8559 0.17583 0.39067 0.0
C331 C 0.85358 0.19904 0.42479 0.0
H332 H 0.88826 0.15845 0.33158 0.0
C333 C 0.88688 0.21669 0.4291 0.0
H334 H 0.83082 0.16163 0.38657 0.0
C335 C 0.91981 0.21451 0.39795 0.0
C336 C 0.92015 0.19481 0.3616 0.0
H337 H 0.88649 0.23414 0.45539 0.0
H338 H 0.94369 0.2306 0.40105 0.0
C339 C 0.88894 0.17379 0.35924 0.0
C340 C 0.80013 0.09102 0.64159 0.0
C341 C 0.76533 0.07371 0.64468 0.0
H342 H 0.82796 0.14007 0.61183 0.0
C343 C 0.73271 0.09175 0.61705 0.0
H344 H 0.82576 0.07794 0.66238 0.0
C345 C 0.7338 0.12738 0.58867 0.0
C346 C 0.76773 0.1456 0.58678 0.0
H347 H 0.70537 0.07936 0.6184 0.0
H348 H 0.7073 0.14143 0.56926 0.0
C349 C 0.80136 0.12664 0.61276 0.0
C350 C 0.89448 0.0195 0.91163 0.0
C351 C 0.93627 0.00881 0.896 0.0
H352 H 0.83055 0.02401 0.90028 0.0
C353 C 0.94575 -0.00632 0.85617 0.0
H354 H 0.88639 0.03157 0.94205 0.0
C355 C 0.91398 -0.01062 0.83228 0.0
C356 C 0.87215 0.00032 0.84774 0.0
H357 H 0.97779 0.98502 0.84343 0.0
H358 H 0.92214 0.97778 0.80162 0.0
C359 C 0.86263 0.01527 0.88768 0.0
C360 C 0.09499 0.94735 0.08456 0.0
C361 C 0.05387 0.97046 0.09026 0.0
H362 H 0.15683 0.93079 0.10725 0.0
C363 C 0.04389 -0.0027 0.12181 0.0
H364 H 0.10326 0.92653 0.0604 0.0
C365 C 0.07457 0.00064 0.14772 0.0
C366 C 0.11528 0.97613 0.14335 0.0
H367 H 0.01229 0.01566 0.12652 0.0
H368 H 0.06619 0.0214 0.17193 0.0
C369 C 0.12539 0.94967 0.11144 0.0
C370 C 0.96925 0.38743 0.40617 0.0
C371 C 0.00598 0.38837 0.42468 0.0
H372 H 0.9422 0.36553 0.35832 0.0
C373 C 0.04473 0.36632 0.40858 0.0
H374 H 0.9389 0.4047 0.41724 0.0
C375 C 0.04646 0.34314 0.37484 0.0
C376 C 0.00959 0.34301 0.35616 0.0
H377 H 0.07346 0.36694 0.42207 0.0
H378 H 0.07647 0.32572 0.36313 0.0
C379 C 0.97111 0.36544 0.37195 0.0
C380 C 0.61699 0.29598 0.60364 0.0
C381 C 0.62012 0.27017 0.57167 0.0
H382 H 0.58479 0.31585 0.66184 0.0
C383 C 0.58809 0.24998 0.57014 0.0
H384 H 0.64101 0.31221 0.60557 0.0
C385 C 0.55589 0.2523 0.60213 0.0
C386 C 0.55496 0.27482 0.63643 0.0
H387 H 0.58906 0.23044 0.54558 0.0
H388 H 0.53317 0.23427 0.60138 0.0
C389 C 0.58463 0.29828 0.63581 0.0
C390 C 0.6815 0.88142 0.85983 0.0
C391 C 0.71672 0.8981 0.85623 0.0
H392 H 0.65292 0.83327 0.89033 0.0
C393 C 0.74937 0.8799 0.88382 0.0
H394 H 0.65581 0.89467 0.83914 0.0
C395 C 0.74787 0.84463 0.9127 0.0
C396 C 0.71352 0.82699 0.91497 0.0
H397 H 0.77701 0.89187 0.88209 0.0
H398 H 0.77428 0.83042 0.9322 0.0
C399 C 0.67988 0.84622 0.88906 0.0
C400 C 0.09012 0.25698 0.06703 0.0
C401 C 0.12152 0.27713 0.07165 0.0
H402 H 0.03474 0.23951 0.09444 0.0
C403 C 0.11678 0.30118 0.10537 0.0
H404 H 0.09241 0.23876 0.041 0.0
C405 C 0.08344 0.30165 0.13622 0.0
C406 C 0.05433 0.27813 0.13376 0.0
H407 H 0.14031 0.31724 0.10971 0.0
H408 H 0.0823 0.31798 0.16355 0.0
C409 C 0.05691 0.25751 0.09769 0.0
C410 C 0.67291 0.3782 0.35563 0.0
C411 C 0.70705 0.39622 0.35417 0.0
H412 H 0.64582 0.32796 0.38346 0.0
C413 C 0.73906 0.37834 0.38254 0.0
H414 H 0.64783 0.39114 0.33414 0.0
C415 C 0.73819 0.3422 0.41002 0.0
C416 C 0.705 0.32327 0.41041 0.0
H417 H 0.76587 0.3913 0.38251 0.0
H418 H 0.76435 0.32836 0.42994 0.0
C419 C 0.67184 0.342 0.3837 0.0
C420 C 0.53702 0.97353 0.64532 0.0
C421 C 0.54628 0.95965 0.60483 0.0
H422 H 0.56059 -0.01072 0.69995 0.0
C423 C 0.58797 0.95005 0.58868 0.0
H424 H 0.50508 0.98139 0.65854 0.0
C425 C 0.61981 0.95468 0.61247 0.0
C426 C 0.61038 0.96893 0.65279 0.0
H427 H 0.59596 0.93879 0.55786 0.0
H428 H 0.65179 0.94701 0.59936 0.0
C429 C 0.56872 0.97831 0.66897 0.0
C430 C 0.04185 0.89878 0.87793 0.0
C431 C 0.03201 0.88724 0.92155 0.0
H432 H 0.04559 0.88346 0.81381 0.0
C433 C 0.02238 0.84901 0.93482 0.0
H434 H 0.04849 0.92864 0.86705 0.0
C435 C 0.02178 0.8229 0.90465 0.0
C436 C 0.02913 0.83552 0.86076 0.0
H437 H 0.01402 0.84 0.96826 0.0
H438 H 0.01339 0.79382 0.91543 0.0
C439 C 0.03973 0.87332 0.84755 0.0
C440 C 0.13419 0.09146 0.91595 0.0
C441 C 0.13593 0.05731 0.94775 0.0
H442 H 0.15568 0.1461 0.89387 0.0
C443 C 0.16574 0.04879 0.97887 0.0
H444 H 0.11162 0.09851 0.89146 0.0
C445 C 0.19094 0.07616 0.98033 0.0
C446 C 0.18661 0.11219 0.9506 0.0
H447 H 0.16763 0.02261 0.00374 0.0
H448 H 0.21176 0.0705 0.0063 0.0
C449 C 0.15941 0.11866 0.91732 0.0
C450 C 0.61582 0.58903 0.25249 0.0
C451 C 0.64913 0.58176 0.27955 0.0
H452 H 0.55788 0.63051 0.23219 0.0
C453 C 0.64707 0.60788 0.31062 0.0
H454 H 0.61709 0.56934 0.22799 0.0
C455 C 0.61365 0.64204 0.31322 0.0
C456 C 0.58169 0.65142 0.28435 0.0
H457 H 0.67231 0.60284 0.33189 0.0
H458 H 0.61401 0.66233 0.33669 0.0
C459 C 0.58214 0.62393 0.25478 0.0
C460 C 0.29977 0.90208 0.50016 0.0
C461 C 0.29421 0.87233 0.5349 0.0
H462 H 0.32864 0.95178 0.47644 0.0
C463 C 0.30949 0.87316 0.5747 0.0
H464 H 0.28795 0.90208 0.46923 0.0
C465 C 0.33341 0.901 0.57861 0.0
C466 C 0.34128 0.92899 0.54309 0.0
H467 H 0.30549 0.85048 0.60192 0.0
H468 H 0.34757 0.8992 0.6087 0.0
C469 C 0.32272 0.93064 0.50439 0.0
C470 C 0.09079 0.61521 0.7696 0.0
C471 C 0.09655 0.65492 0.75445 0.0
H472 H 0.12068 0.55046 0.78341 0.0
C473 C 0.13592 0.65928 0.73701 0.0
H474 H 0.06052 0.61114 0.78287 0.0
C475 C 0.16971 0.62523 0.73749 0.0
C476 C 0.16494 0.58591 0.75519 0.0
H477 H 0.14108 0.6894 0.72428 0.0
H478 H 0.20003 0.62996 0.72512 0.0
C479 C 0.125 0.58066 0.76987 0.0
C480 C 0.78501 0.40068 0.5242 0.0
C481 C 0.79115 0.36393 0.55299 0.0
H482 H 0.80663 0.45524 0.50103 0.0
C483 C 0.81878 0.35758 0.58582 0.0
H484 H 0.76369 0.40625 0.49869 0.0
C485 C 0.84317 0.38547 0.58715 0.0
C486 C 0.84016 0.42005 0.55572 0.0
H487 H 0.82369 0.32966 0.60864 0.0
H488 H 0.86646 0.3784 0.61092 0.0
C489 C 0.80944 0.42872 0.5256 0.0
C490 C 0.35541 0.89234 0.2426 0.0
C491 C 0.33145 0.90565 0.20625 0.0
H492 H 0.40438 0.84476 0.27307 0.0
C493 C 0.34283 0.88467 0.17017 0.0
H494 H 0.3469 0.90778 0.27101 0.0
C495 C 0.37497 0.84899 0.17149 0.0
C496 C 0.39683 0.83356 0.20877 0.0
H497 H 0.32504 0.89435 0.14166 0.0
H498 H 0.38123 0.83216 0.14394 0.0
C499 C 0.38818 0.85635 0.2438 0.0
C500 C 0.35718 0.38927 0.71891 0.0
C501 C 0.31649 0.38427 0.73006 0.0
H502 H 0.42276 0.35907 0.71496 0.0
C503 C 0.31095 0.34593 0.75022 0.0
H504 H 0.3621 0.41878 0.70361 0.0
C505 C 0.34505 0.3125 0.75714 0.0
C506 C 0.3856 0.31637 0.74355 0.0
H507 H 0.27997 0.34145 0.75998 0.0
H508 H 0.33937 0.28312 0.77193 0.0
C509 C 0.3917 0.35529 0.72541 0.0
C510 C 0.08878 0.74989 0.56936 0.0
C511 C 0.12102 0.76949 0.57198 0.0
H512 H 0.03338 0.73431 0.59925 0.0
C513 C 0.11828 0.79392 0.60509 0.0
H514 H 0.08949 0.73146 0.54384 0.0
C515 C 0.08594 0.79552 0.63717 0.0
C516 C 0.05577 0.77284 0.63648 0.0
H517 H 0.14253 0.80963 0.60787 0.0
H518 H 0.0863 0.81213 0.66393 0.0
C519 C 0.05645 0.75169 0.60113 0.0
C520 C 0.21853 0.88957 0.38714 0.0
C521 C 0.21898 0.89047 0.34241 0.0
H522 H 0.21427 0.85367 0.44897 0.0
C523 C 0.21685 0.85496 0.32559 0.0
H524 H 0.2199 0.91682 0.40076 0.0
C525 C 0.2159 0.81861 0.3528 0.0
C526 C 0.21582 0.81728 0.39756 0.0
H527 H 0.21747 0.85485 0.29119 0.0
H528 H 0.21547 0.7914 0.33862 0.0
C529 C 0.21588 0.85343 0.41462 0.0
C530 C 0.92326 0.62484 0.63223 0.0
C531 C 0.96105 0.62408 0.64972 0.0
H532 H 0.89379 0.60132 0.58665 0.0
C533 C -0.0015 0.59983 0.634 0.0
H534 H 0.89401 0.64365 0.64395 0.0
C535 C -0.00144 0.57731 0.60068 0.0
C536 C 0.96097 0.57749 0.58309 0.0
H537 H 0.02807 0.59897 0.64673 0.0
H538 H 0.02829 0.55904 0.58931 0.0
C539 C 0.92313 0.601 0.59945 0.0
C540 C 0.35054 0.68144 0.38551 0.0
C541 C 0.34926 0.70206 0.4214 0.0
H542 H 0.38129 0.66828 0.32453 0.0
C543 C 0.38263 0.71918 0.42672 0.0
H544 H 0.32521 0.66787 0.38065 0.0
C545 C 0.41463 0.71923 0.39489 0.0
C546 C 0.41381 0.70241 0.35689 0.0
H547 H 0.38288 0.73463 0.45441 0.0
H548 H 0.43871 0.73473 0.39904 0.0
C549 C 0.38264 0.68166 0.35336 0.0
C550 C 0.23574 0.1026 0.12353 0.0
C551 C 0.26624 0.08609 0.15393 0.0
H552 H 0.21247 0.15049 0.07332 0.0
C553 C 0.29934 0.1053 0.15404 0.0
H554 H 0.20959 0.089 0.1223 0.0
C555 C 0.30121 0.14074 0.12494 0.0
C556 C 0.26983 0.15765 0.09564 0.0
H557 H 0.32328 0.09348 0.17701 0.0
H558 H 0.32657 0.15546 0.1261 0.0
C559 C 0.23739 0.13797 0.09507 0.0
C560 C 0.86096 0.67479 0.89763 0.0
C561 C 0.85883 0.69808 0.93158 0.0
H562 H 0.89252 0.65816 0.83804 0.0
C563 C 0.89181 0.71641 0.93533 0.0
H564 H 0.83614 0.66008 0.89403 0.0
C565 C 0.92386 0.71533 0.90341 0.0
C566 C 0.92373 0.69571 0.86723 0.0
H567 H 0.89157 0.7339 0.96154 0.0
H568 H 0.94735 0.73211 0.90578 0.0
C569 C 0.8933 0.67358 0.86561 0.0
C570 C 0.29718 0.59886 0.64436 0.0
C571 C 0.26641 0.57769 0.64013 0.0
H572 H 0.32165 0.65209 0.62259 0.0
C573 C 0.23798 0.59358 0.6077 0.0
H574 H 0.31935 0.58779 0.66919 0.0
C575 C 0.23946 0.63033 0.5811 0.0
C576 C 0.26937 0.65198 0.58625 0.0
H577 H 0.21363 0.5784 0.60371 0.0
H578 H 0.21588 0.64284 0.55795 0.0
C579 C 0.29842 0.6358 0.61785 0.0
C580 C 0.35543 0.02273 0.39882 0.0
C581 C 0.36581 0.00366 0.36123 0.0
H582 H 0.37837 0.04245 0.45176 0.0
C583 C 0.40792 -0.01189 0.34912 0.0
H584 H 0.32306 0.03512 0.40872 0.0
C585 C 0.4392 -0.00808 0.37381 0.0
C586 C 0.42904 0.01142 0.41111 0.0
H587 H 0.41677 0.97314 0.32042 0.0
H588 H 0.47148 0.97944 0.36362 0.0
C589 C 0.38691 0.0268 0.42351 0.0
C590 C 0.79845 0.89911 0.023 0.0
C591 C 0.80585 0.86257 0.05214 0.0
H592 H 0.81996 0.95294 0.99605 0.0
C593 C 0.83732 0.85531 0.08117 0.0
H594 H 0.77431 0.90535 0.00024 0.0
C595 C 0.86332 0.8824 0.07872 0.0
C596 C 0.8582 0.91712 0.04722 0.0
H597 H 0.84349 0.82746 0.10405 0.0
H598 H 0.8889 0.87487 0.09991 0.0
C599 C 0.82453 0.92629 0.02055 0.0
C600 C 0.65446 0.10783 0.41748 0.0
C601 C 0.68284 0.10281 0.44931 0.0
H602 H 0.60516 0.08663 0.39617 0.0
C603 C 0.6887 0.06754 0.4802 0.0
H604 H 0.64973 0.13459 0.39311 0.0
C605 C 0.66316 0.03998 0.48194 0.0
C606 C 0.63166 0.04769 0.45284 0.0
H607 H 0.71058 0.06302 0.50502 0.0
H608 H 0.66574 0.01482 0.50806 0.0
C609 C 0.62898 0.08044 0.41927 0.0
C610 C 0.85427 0.39114 0.22075 0.0
C611 C 0.81452 0.38646 0.23703 0.0
H612 H 0.91854 0.35987 0.20744 0.0
C613 C 0.81015 0.34785 0.25765 0.0
H614 H 0.85828 0.42076 0.20481 0.0
C615 C 0.8439 0.31372 0.25917 0.0
C616 C 0.88293 0.31722 0.23997 0.0
H617 H 0.78 0.3436 0.27123 0.0
H618 H 0.83889 0.28407 0.27396 0.0
C619 C 0.88853 0.35645 0.22217 0.0
C620 C 0.11323 0.58847 0.41879 0.0
C621 C 0.11987 0.55191 0.44773 0.0
H622 H 0.12962 0.64602 0.39889 0.0
C623 C 0.15319 0.54228 0.47493 0.0
H624 H 0.08789 0.59637 0.39728 0.0
C625 C 0.17726 0.57077 0.4757 0.0
C626 C 0.16787 0.60901 0.44948 0.0
H627 H 0.15871 0.51426 0.49762 0.0
H628 H 0.20118 0.56409 0.49875 0.0
C629 C 0.13695 0.61693 0.41981 0.0
C630 C 0.67197 0.12769 0.74547 0.0
C631 C 0.66683 0.08857 0.76343 0.0
H632 H 0.64397 0.19189 0.73158 0.0
C633 C 0.62675 0.0839 0.7785 0.0
H634 H 0.70236 0.13204 0.73284 0.0
C635 C 0.5928 0.11875 0.77797 0.0
C636 C 0.59891 0.15823 0.7622 0.0
H637 H 0.6221 0.05387 0.79227 0.0
H638 H 0.56239 0.11508 0.79121 0.0
C639 C 0.63847 0.16202 0.74478 0.0
C640 C 0.73007 0.59365 0.1192 0.0
C641 C 0.76128 0.57455 0.14813 0.0
H642 H 0.70775 0.64421 0.07082 0.0
C643 C 0.79662 0.59083 0.14706 0.0
H644 H 0.70233 0.58215 0.11919 0.0
C645 C 0.79986 0.62631 0.11892 0.0
C646 C 0.7677 0.6464 0.09153 0.0
H647 H 0.82129 0.57689 0.16882 0.0
H648 H 0.82691 0.63875 0.11959 0.0
C649 C 0.73315 0.6293 0.09141 0.0
C650 C 0.87792 0.52001 0.42174 0.0
C651 C 0.91992 0.50866 0.40681 0.0
H652 H 0.81394 0.52596 0.40862 0.0
C653 C 0.92967 0.49386 0.36682 0.0
H654 H 0.86961 0.5318 0.45226 0.0
C655 C 0.89824 0.49052 0.34209 0.0
C656 C 0.85625 0.50216 0.35661 0.0
H657 H 0.9618 0.48452 0.35454 0.0
H658 H 0.90691 0.47901 0.31143 0.0
C659 C 0.84621 0.51677 0.39674 0.0
C660 C 0.06861 0.47904 0.65964 0.0
C661 C 0.10991 0.46977 0.6424 0.0
H662 H 0.00477 0.48109 0.65149 0.0
C663 C 0.11843 0.455 0.6023 0.0
H664 H 0.06117 0.49041 0.69047 0.0
C665 C 0.08603 0.44953 0.57987 0.0
C666 C 0.04473 0.45881 0.59723 0.0
H667 H 0.15014 0.4474 0.58842 0.0
H668 H 0.09329 0.43776 0.54926 0.0
C669 C 0.03639 0.47342 0.63738 0.0
C670 C 0.55949 0.76205 0.10105 0.0
C671 C 0.56103 0.77834 0.13921 0.0
H672 H 0.59104 0.74572 0.04177 0.0
C673 C 0.5933 0.79751 0.14319 0.0
H674 H 0.53451 0.7478 0.09665 0.0
C675 C 0.62583 0.79642 0.11142 0.0
C676 C 0.62639 0.77606 0.07547 0.0
H677 H 0.59516 0.81044 0.17219 0.0
H678 H 0.65195 0.80869 0.11667 0.0
C679 C 0.59189 0.76083 0.06956 0.0
C680 C 0.59815 0.42726 0.14816 0.0
C681 C 0.61293 0.46332 0.14496 0.0
H682 H 0.55894 0.39589 0.12195 0.0
C683 C 0.60119 0.49476 0.11094 0.0
H684 H 0.60712 0.40242 0.17407 0.0
C685 C 0.57477 0.49061 0.08089 0.0
C686 C 0.55885 0.45518 0.08452 0.0
H687 H 0.6125 0.52263 0.10742 0.0
H688 H 0.56591 0.51589 0.05539 0.0
C689 C 0.57096 0.42333 0.11827 0.0
C690 C 0.3151 0.43838 0.01785 0.0
C691 C 0.34431 0.43256 0.04916 0.0
H692 H 0.26949 0.41432 0.99294 0.0
C693 C 0.34495 0.40118 0.08394 0.0
H694 H 0.31394 0.46247 0.99077 0.0
C695 C 0.31984 0.37332 0.08492 0.0
C696 C 0.29351 0.37686 0.05141 0.0
H697 H 0.3672 0.39609 0.1085 0.0
H698 H 0.32312 0.34748 0.11034 0.0
C699 C 0.28968 0.41083 0.01909 0.0
C700 C 0.13118 0.15689 0.23748 0.0
C701 C 0.09154 0.15388 0.25539 0.0
H702 H 0.19559 0.1267 0.22895 0.0
C703 C 0.08548 0.11492 0.27363 0.0
H704 H 0.13663 0.18628 0.22241 0.0
C705 C 0.1197 0.08022 0.27708 0.0
C706 C 0.15994 0.08454 0.26239 0.0
H707 H 0.05505 0.11182 0.28738 0.0
H708 H 0.11523 0.05102 0.29375 0.0
C709 C 0.16495 0.12271 0.24107 0.0
C710 C 0.18061 0.34282 0.87932 0.0
C711 C 0.21217 0.32758 0.90869 0.0
H712 H 0.15857 0.38675 0.82475 0.0
C713 C 0.24476 0.34751 0.90708 0.0
H714 H 0.15506 0.32798 0.87988 0.0
C715 C 0.24661 0.38111 0.87595 0.0
C716 C 0.21608 0.39552 0.84528 0.0
H717 H 0.26961 0.33643 0.92911 0.0
H718 H 0.27286 0.39499 0.87532 0.0
C719 C 0.18259 0.37646 0.84778 0.0
C720 C 0.36642 0.17936 0.90504 0.0
C721 C 0.36095 0.20688 0.93567 0.0
H722 H 0.40145 0.15758 0.84903 0.0
C723 C 0.39176 0.22858 0.93733 0.0
H724 H 0.34346 0.16191 0.90307 0.0
C725 C 0.42509 0.2259 0.90656 0.0
C726 C 0.42833 0.20156 0.87332 0.0
H727 H 0.38895 0.24951 0.96094 0.0
H728 H 0.44677 0.24505 0.90729 0.0
C729 C 0.39982 0.17675 0.87409 0.0
C730 C 0.38874 0.51614 0.9079 0.0
C731 C 0.43089 0.50216 0.89489 0.0
H732 H 0.32515 0.52424 0.89298 0.0
C733 C 0.44153 0.48408 0.85679 0.0
H734 H 0.37989 0.53066 0.93686 0.0
C735 C 0.41044 0.48072 0.83156 0.0
C736 C 0.36826 0.49542 0.84408 0.0
H737 H 0.47395 0.47277 0.84629 0.0
H738 H 0.41941 0.46709 0.80206 0.0
C739 C 0.35757 0.51269 0.88268 0.0
C740 C 0.64916 0.62493 0.91296 0.0
C741 C 0.67924 0.61492 0.94387 0.0
H742 H 0.59839 0.60826 0.88863 0.0
C743 C 0.68583 0.57646 0.96972 0.0
H744 H 0.64376 0.65431 0.89244 0.0
C745 C 0.66 0.54998 0.96733 0.0
C746 C 0.62729 0.56191 0.93926 0.0
H747 H 0.70899 0.56806 0.99369 0.0
H748 H 0.6637 0.52172 0.9896 0.0
C749 C 0.62324 0.59863 0.91077 0.0
C750 C 0.8433 0.80975 0.76218 0.0
C751 C 0.88347 0.81355 0.74699 0.0
H752 H 0.77869 0.83948 0.76942 0.0
C753 C 0.88974 0.85284 0.73064 0.0
H754 H 0.83765 0.78001 0.77567 0.0
C755 C 0.85552 0.88741 0.72722 0.0
C756 C 0.81499 0.88266 0.73988 0.0
H757 H 0.92056 0.85651 0.71899 0.0
H758 H 0.86044 0.91723 0.71305 0.0
C759 C 0.80948 0.84383 0.75853 0.0
C760 C 0.42753 0.12741 0.63674 0.0
C761 C 0.46455 0.12491 0.65658 0.0
H762 H 0.39944 0.10606 0.58844 0.0
C763 C 0.50211 0.09953 0.64257 0.0
H764 H 0.39825 0.14717 0.64709 0.0
C765 C 0.50307 0.07776 0.60844 0.0
C766 C 0.46624 0.07987 0.58838 0.0
H767 H 0.53112 0.09738 0.65713 0.0
H768 H 0.53283 0.05863 0.59831 0.0
C769 C 0.42823 0.10434 0.60315 0.0
C770 C 0.49794 0.33913 0.89758 0.0
C771 C 0.52428 0.34248 0.86062 0.0
H772 H 0.47807 0.35815 0.95893 0.0
C773 C 0.55501 0.36479 0.85915 0.0
H774 H 0.47491 0.32092 0.89989 0.0
C775 C 0.55647 0.38696 0.89297 0.0
C776 C 0.52779 0.38602 0.92869 0.0
H777 H 0.57612 0.36694 0.83102 0.0
H778 H 0.57794 0.40688 0.88978 0.0
C779 C 0.50017 0.36006 0.93158 0.0
C780 C 0.54298 0.86538 0.36458 0.0
C781 C 0.50775 0.85044 0.36073 0.0
H782 H 0.57165 0.89839 0.40125 0.0
C783 C 0.47577 0.85388 0.3932 0.0
H784 H 0.56833 0.8623 0.34009 0.0
C785 C 0.47828 0.87285 0.42857 0.0
C786 C 0.51239 0.8898 0.43179 0.0
H787 H 0.44869 0.84174 0.39147 0.0
H788 H 0.45246 0.8756 0.45254 0.0
C789 C 0.54518 0.88528 0.39986 0.0
C790 C 0.42649 0.59539 0.09764 0.0
C791 C 0.4568 0.59351 0.06315 0.0
H792 H 0.4061 0.61667 0.15876 0.0
C793 C 0.4884 0.61471 0.06274 0.0
H794 H 0.4018 0.57931 0.099 0.0
C795 C 0.49157 0.63456 0.09736 0.0
C796 C 0.46265 0.63463 0.13268 0.0
H797 H 0.5123 0.61413 0.03681 0.0
H798 H 0.51702 0.6496 0.09653 0.0
C799 C 0.42924 0.61615 0.1321 0.0
loop_
_geom_bond_atom_site_label_1
_geom_bond_atom_site_label_2
_geom_bond_distance
_geom_bond_site_symmetry_2
_ccdc_geom_bond_type
Dy0 O4 2.398 . S
Dy0 O5 2.491 . S
Dy0 O6 2.403 1_655 S
Dy0 O7 2.664 1_655 S
Dy0 O11 2.326 1_654 S
Dy0 O15 2.310 1_564 S
Dy0 O16 2.351 1_565 S
C1 O12 1.185 . S
C1 O13 1.355 . S
C2 O4 1.185 . S
C2 O5 1.355 . S
Dy3 O7 2.310 1_546 S
Dy3 O10 2.351 1_545 S
Dy3 O12 2.398 . S
Dy3 O13 2.491 . S
Dy3 O14 2.403 1_455 S
Dy3 O15 2.664 1_455 S
Dy3 O17 2.326 1_456 S
O4 Dy0 2.398 . S
O4 C2 1.185 . S
O5 Dy0 2.491 . S
O5 C2 1.355 . S
O6 Dy0 2.403 1_455 S
O6 C8 1.254 . S
O7 Dy0 2.664 1_455 S
O7 Dy3 2.310 1_564 S
O7 C8 1.268 . S
C8 O6 1.254 . S
C8 O7 1.268 . S
C9 O14 1.254 . S
C9 O15 1.268 . S
O10 Dy3 2.351 1_565 S
O10 C18 1.249 . S
O11 Dy0 2.326 1_456 S
O11 C18 1.267 . S
O12 C1 1.185 . S
O12 Dy3 2.398 . S
O13 C1 1.355 . S
O13 Dy3 2.491 . S
O14 Dy3 2.403 1_655 S
O14 C9 1.254 . S
O15 Dy0 2.310 1_546 S
O15 Dy3 2.664 1_655 S
O15 C9 1.268 . S
O16 Dy0 2.351 1_545 S
O16 C19 1.249 . S
O17 Dy3 2.326 1_654 S
O17 C19 1.267 . S
C18 O10 1.249 . S
C18 O11 1.267 . S
C19 O16 1.249 . S
C19 O17 1.267 . S
Dy20 O24 2.398 . S
Dy20 O25 2.491 1_455 S
Dy20 O26 2.403 . S
Dy20 O27 2.664 . S
Dy20 O31 2.326 1_455 S
Dy20 O35 2.310 1_455 S
Dy20 O36 2.351 . S
C21 O32 1.185 . S
C21 O33 1.355 1_655 S
C22 O24 1.185 . S
C22 O25 1.355 1_455 S
Dy23 O27 2.310 1_655 S
Dy23 O30 2.351 . S
Dy23 O32 2.398 . S
Dy23 O33 2.491 1_655 S
Dy23 O34 2.403 . S
Dy23 O35 2.664 . S
Dy23 O37 2.326 1_655 S
O24 Dy20 2.398 . S
O24 C22 1.185 . S
O25 Dy20 2.491 1_655 S
O25 C22 1.355 1_655 S
O26 Dy20 2.403 . S
O26 C28 1.254 . S
O27 Dy20 2.664 . S
O27 Dy23 2.310 1_455 S
O27 C28 1.268 . S
C28 O26 1.254 . S
C28 O27 1.268 . S
C29 O34 1.254 . S
C29 O35 1.268 . S
O30 Dy23 2.351 . S
O30 C38 1.249 . S
O31 Dy20 2.326 1_655 S
O31 C38 1.267 . S
O32 C21 1.185 . S
O32 Dy23 2.398 . S
O33 C21 1.355 1_455 S
O33 Dy23 2.491 1_455 S
O34 Dy23 2.403 . S
O34 C29 1.254 . S
O35 Dy20 2.310 1_655 S
O35 Dy23 2.664 . S
O35 C29 1.268 . S
O36 Dy20 2.351 . S
O36 C39 1.249 . S
O37 Dy23 2.326 1_455 S
O37 C39 1.267 . S
C38 O30 1.249 . S
C38 O31 1.267 . S
C39 O36 1.249 . S
C39 O37 1.267 . S
Dy40 O44 2.398 . S
Dy40 O45 2.491 . S
Dy40 O46 2.403 . S
Dy40 O47 2.664 . S
Dy40 O51 2.326 . S
Dy40 O55 2.310 . S
Dy40 O56 2.351 . S
C41 O52 1.185 . S
C41 O53 1.355 . S
C42 O44 1.185 . S
C42 O45 1.355 . S
Dy43 O47 2.310 . S
Dy43 O50 2.351 . S
Dy43 O52 2.398 . S
Dy43 O53 2.491 . S
Dy43 O54 2.403 . S
Dy43 O55 2.664 . S
Dy43 O57 2.326 . S
O44 Dy40 2.398 . S
O44 C42 1.185 . S
O45 Dy40 2.491 . S
O45 C42 1.355 . S
O46 Dy40 2.403 . S
O46 C48 1.254 . S
O47 Dy40 2.664 . S
O47 Dy43 2.310 . S
O47 C48 1.268 . S
C48 O46 1.254 . S
C48 O47 1.268 . S
C49 O54 1.254 . S
C49 O55 1.268 . S
O50 Dy43 2.351 . S
O50 C58 1.249 . S
O51 Dy40 2.326 . S
O51 C58 1.267 . S
O52 C41 1.185 . S
O52 Dy43 2.398 . S
O53 C41 1.355 . S
O53 Dy43 2.491 . S
O54 Dy43 2.403 . S
O54 C49 1.254 . S
O55 Dy40 2.310 . S
O55 Dy43 2.664 . S
O55 C49 1.268 . S
O56 Dy40 2.351 . S
O56 C59 1.249 . S
O57 Dy43 2.326 . S
O57 C59 1.267 . S
C58 O50 1.249 . S
C58 O51 1.267 . S
C59 O56 1.249 . S
C59 O57 1.267 . S
Dy60 O64 2.398 . S
Dy60 O65 2.491 1_565 S
Dy60 O66 2.403 . S
Dy60 O67 2.664 . S
Dy60 O71 2.326 1_565 S
Dy60 O75 2.310 1_565 S
Dy60 O76 2.351 . S
C61 O72 1.185 . S
C61 O73 1.355 1_545 S
C62 O64 1.185 . S
C62 O65 1.355 1_565 S
Dy63 O67 2.310 1_545 S
Dy63 O70 2.351 . S
Dy63 O72 2.398 . S
Dy63 O73 2.491 1_545 S
Dy63 O74 2.403 . S
Dy63 O75 2.664 . S
Dy63 O77 2.326 1_545 S
O64 Dy60 2.398 . S
O64 C62 1.185 . S
O65 Dy60 2.491 1_545 S
O65 C62 1.355 1_545 S
O66 Dy60 2.403 . S
O66 C68 1.254 . S
O67 Dy60 2.664 . S
O67 Dy63 2.310 1_565 S
O67 C68 1.268 . S
C68 O66 1.254 . S
C68 O67 1.268 . S
C69 O74 1.254 . S
C69 O75 1.268 . S
O70 Dy63 2.351 . S
O70 C78 1.249 . S
O71 Dy60 2.326 1_545 S
O71 C78 1.267 . S
O72 C61 1.185 . S
O72 Dy63 2.398 . S
O73 C61 1.355 1_565 S
O73 Dy63 2.491 1_565 S
O74 Dy63 2.403 . S
O74 C69 1.254 . S
O75 Dy60 2.310 1_545 S
O75 Dy63 2.664 . S
O75 C69 1.268 . S
O76 Dy60 2.351 . S
O76 C79 1.249 . S
O77 Dy63 2.326 1_565 S
O77 C79 1.267 . S
C78 O70 1.249 . S
C78 O71 1.267 . S
C79 O76 1.249 . S
C79 O77 1.267 . S
Dy80 O84 2.398 . S
Dy80 O85 2.491 . S
Dy80 O86 2.403 . S
Dy80 O87 2.664 . S
Dy80 O91 2.326 . S
Dy80 O95 2.310 . S
Dy80 O96 2.351 . S
C81 O92 1.185 . S
C81 O93 1.355 . S
C82 O84 1.185 . S
C82 O85 1.355 . S
Dy83 O87 2.310 . S
Dy83 O90 2.351 . S
Dy83 O92 2.398 . S
Dy83 O93 2.491 . S
Dy83 O94 2.403 . S
Dy83 O95 2.664 . S
Dy83 O97 2.326 . S
O84 Dy80 2.398 . S
O84 C82 1.185 . S
O85 Dy80 2.491 . S
O85 C82 1.355 . S
O86 Dy80 2.403 . S
O86 C88 1.254 . S
O87 Dy80 2.664 . S
O87 Dy83 2.310 . S
O87 C88 1.268 . S
C88 O86 1.254 . S
C88 O87 1.268 . S
C89 O94 1.254 . S
C89 O95 1.268 . S
O90 Dy83 2.351 . S
O90 C98 1.249 . S
O91 Dy80 2.326 . S
O91 C98 1.267 . S
O92 C81 1.185 . S
O92 Dy83 2.398 . S
O93 C81 1.355 . S
O93 Dy83 2.491 . S
O94 Dy83 2.403 . S
O94 C89 1.254 . S
O95 Dy80 2.310 . S
O95 Dy83 2.664 . S
O95 C89 1.268 . S
O96 Dy80 2.351 . S
O96 C99 1.249 . S
O97 Dy83 2.326 . S
O97 C99 1.267 . S
C98 O90 1.249 . S
C98 O91 1.267 . S
C99 O96 1.249 . S
C99 O97 1.267 . S
Dy100 O104 2.398 . S
Dy100 O105 2.491 . S
Dy100 O106 2.403 . S
Dy100 O107 2.664 . S
Dy100 O111 2.326 . S
Dy100 O115 2.310 . S
Dy100 O116 2.351 . S
C101 O112 1.185 . S
C101 O113 1.355 . S
C102 O104 1.185 . S
C102 O105 1.355 . S
Dy103 O107 2.310 . S
Dy103 O110 2.351 . S
Dy103 O112 2.398 . S
Dy103 O113 2.491 . S
Dy103 O114 2.403 . S
Dy103 O115 2.664 . S
Dy103 O117 2.326 . S
O104 Dy100 2.398 . S
O104 C102 1.185 . S
O105 Dy100 2.491 . S
O105 C102 1.355 . S
O106 Dy100 2.403 . S
O106 C108 1.254 . S
O107 Dy100 2.664 . S
O107 Dy103 2.310 . S
O107 C108 1.268 . S
C108 O106 1.254 . S
C108 O107 1.268 . S
C109 O114 1.254 . S
C109 O115 1.268 . S
O110 Dy103 2.351 . S
O110 C118 1.249 . S
O111 Dy100 2.326 . S
O111 C118 1.267 . S
O112 C101 1.185 . S
O112 Dy103 2.398 . S
O113 C101 1.355 . S
O113 Dy103 2.491 . S
O114 Dy103 2.403 . S
O114 C109 1.254 . S
O115 Dy100 2.310 . S
O115 Dy103 2.664 . S
O115 C109 1.268 . S
O116 Dy100 2.351 . S
O116 C119 1.249 . S
O117 Dy103 2.326 . S
O117 C119 1.267 . S
C118 O110 1.249 . S
C118 O111 1.267 . S
C119 O116 1.249 . S
C119 O117 1.267 . S
Dy120 O124 2.398 . S
Dy120 O125 2.491 . S
Dy120 O126 2.403 . S
Dy120 O127 2.664 . S
Dy120 O131 2.326 . S
Dy120 O135 2.310 . S
Dy120 O136 2.351 . S
C121 O132 1.185 . S
C121 O133 1.355 . S
C122 O124 1.185 . S
C122 O125 1.355 . S
Dy123 O127 2.310 . S
Dy123 O130 2.351 . S
Dy123 O132 2.398 . S
Dy123 O133 2.491 . S
Dy123 O134 2.403 . S
Dy123 O135 2.664 . S
Dy123 O137 2.326 . S
O124 Dy120 2.398 . S
O124 C122 1.185 . S
O125 Dy120 2.491 . S
O125 C122 1.355 . S
O126 Dy120 2.403 . S
O126 C128 1.254 . S
O127 Dy120 2.664 . S
O127 Dy123 2.310 . S
O127 C128 1.268 . S
C128 O126 1.254 . S
C128 O127 1.268 . S
C129 O134 1.254 . S
C129 O135 1.268 . S
O130 Dy123 2.351 . S
O130 C138 1.249 . S
O131 Dy120 2.326 . S
O131 C138 1.267 . S
O132 C121 1.185 . S
O132 Dy123 2.398 . S
O133 C121 1.355 . S
O133 Dy123 2.491 . S
O134 Dy123 2.403 . S
O134 C129 1.254 . S
O135 Dy120 2.310 . S
O135 Dy123 2.664 . S
O135 C129 1.268 . S
O136 Dy120 2.351 . S
O136 C139 1.249 . S
O137 Dy123 2.326 . S
O137 C139 1.267 . S
C138 O130 1.249 . S
C138 O131 1.267 . S
C139 O136 1.249 . S
C139 O137 1.267 . S
Dy140 O144 2.398 . S
Dy140 O145 2.491 . S
Dy140 O146 2.403 1_655 S
Dy140 O147 2.664 1_655 S
Dy140 O151 2.326 1_655 S
Dy140 O155 2.310 . S
Dy140 O156 2.351 . S
C141 O152 1.185 . S
C141 O153 1.355 . S
C142 O144 1.185 . S
C142 O145 1.355 . S
Dy143 O147 2.310 . S
Dy143 O150 2.351 . S
Dy143 O152 2.398 . S
Dy143 O153 2.491 . S
Dy143 O154 2.403 1_455 S
Dy143 O155 2.664 1_455 S
Dy143 O157 2.326 1_455 S
O144 Dy140 2.398 . S
O144 C142 1.185 . S
O145 Dy140 2.491 . S
O145 C142 1.355 . S
O146 Dy140 2.403 1_455 S
O146 C148 1.254 . S
O147 Dy140 2.664 1_455 S
O147 Dy143 2.310 . S
O147 C148 1.268 . S
C148 O146 1.254 . S
C148 O147 1.268 . S
C149 O154 1.254 . S
C149 O155 1.268 . S
O150 Dy143 2.351 . S
O150 C158 1.249 . S
O151 Dy140 2.326 1_455 S
O151 C158 1.267 . S
O152 C141 1.185 . S
O152 Dy143 2.398 . S
O153 C141 1.355 . S
O153 Dy143 2.491 . S
O154 Dy143 2.403 1_655 S
O154 C149 1.254 . S
O155 Dy140 2.310 . S
O155 Dy143 2.664 1_655 S
O155 C149 1.268 . S
O156 Dy140 2.351 . S
O156 C159 1.249 . S
O157 Dy143 2.326 1_655 S
O157 C159 1.267 . S
C158 O150 1.249 . S
C158 O151 1.267 . S
C159 O156 1.249 . S
C159 O157 1.267 . S
Dy160 O164 2.398 . S
Dy160 O165 2.491 1_556 S
Dy160 O166 2.403 . S
Dy160 O167 2.664 . S
Dy160 O171 2.326 1_556 S
Dy160 O175 2.310 1_556 S
Dy160 O176 2.351 . S
C161 O172 1.185 . S
C161 O173 1.355 1_554 S
C162 O164 1.185 . S
C162 O165 1.355 1_556 S
Dy163 O167 2.310 1_554 S
Dy163 O170 2.351 . S
Dy163 O172 2.398 . S
Dy163 O173 2.491 1_554 S
Dy163 O174 2.403 . S
Dy163 O175 2.664 . S
Dy163 O177 2.326 1_554 S
O164 Dy160 2.398 . S
O164 C162 1.185 . S
O165 Dy160 2.491 1_554 S
O165 C162 1.355 1_554 S
O166 Dy160 2.403 . S
O166 C168 1.254 . S
O167 Dy160 2.664 . S
O167 Dy163 2.310 1_556 S
O167 C168 1.268 . S
C168 O166 1.254 . S
C168 O167 1.268 . S
C169 O174 1.254 . S
C169 O175 1.268 . S
O170 Dy163 2.351 . S
O170 C178 1.249 . S
O171 Dy160 2.326 1_554 S
O171 C178 1.267 . S
O172 C161 1.185 . S
O172 Dy163 2.398 . S
O173 C161 1.355 1_556 S
O173 Dy163 2.491 1_556 S
O174 Dy163 2.403 . S
O174 C169 1.254 . S
O175 Dy160 2.310 1_554 S
O175 Dy163 2.664 . S
O175 C169 1.268 . S
O176 Dy160 2.351 . S
O176 C179 1.249 . S
O177 Dy163 2.326 1_556 S
O177 C179 1.267 . S
C178 O170 1.249 . S
C178 O171 1.267 . S
C179 O176 1.249 . S
C179 O177 1.267 . S
Dy180 O184 2.398 . S
Dy180 O185 2.491 1_565 S
Dy180 O186 2.403 . S
Dy180 O187 2.664 . S
Dy180 O191 2.326 1_565 S
Dy180 O195 2.310 1_565 S
Dy180 O196 2.351 . S
C181 O192 1.185 . S
C181 O193 1.355 1_545 S
C182 O184 1.185 . S
C182 O185 1.355 1_565 S
Dy183 O187 2.310 1_545 S
Dy183 O190 2.351 . S
Dy183 O192 2.398 . S
Dy183 O193 2.491 1_545 S
Dy183 O194 2.403 . S
Dy183 O195 2.664 . S
Dy183 O197 2.326 1_545 S
O184 Dy180 2.398 . S
O184 C182 1.185 . S
O185 Dy180 2.491 1_545 S
O185 C182 1.355 1_545 S
O186 Dy180 2.403 . S
O186 C188 1.254 . S
O187 Dy180 2.664 . S
O187 Dy183 2.310 1_565 S
O187 C188 1.268 . S
C188 O186 1.254 . S
C188 O187 1.268 . S
C189 O194 1.254 . S
C189 O195 1.268 . S
O190 Dy183 2.351 . S
O190 C198 1.249 . S
O191 Dy180 2.326 1_545 S
O191 C198 1.267 . S
O192 C181 1.185 . S
O192 Dy183 2.398 . S
O193 C181 1.355 1_565 S
O193 Dy183 2.491 1_565 S
O194 Dy183 2.403 . S
O194 C189 1.254 . S
O195 Dy180 2.310 1_545 S
O195 Dy183 2.664 . S
O195 C189 1.268 . S
O196 Dy180 2.351 . S
O196 C199 1.249 . S
O197 Dy183 2.326 1_565 S
O197 C199 1.267 . S
C198 O190 1.249 . S
C198 O191 1.267 . S
C199 O196 1.249 . S
C199 O197 1.267 . S
Dy200 O204 2.398 . S
Dy200 O205 2.491 . S
Dy200 O206 2.403 . S
Dy200 O207 2.664 . S
Dy200 O211 2.326 . S
Dy200 O215 2.310 . S
Dy200 O216 2.351 . S
C201 O212 1.185 . S
C201 O213 1.355 . S
C202 O204 1.185 . S
C202 O205 1.355 . S
Dy203 O207 2.310 . S
Dy203 O210 2.351 . S
Dy203 O212 2.398 . S
Dy203 O213 2.491 . S
Dy203 O214 2.403 . S
Dy203 O215 2.664 . S
Dy203 O217 2.326 . S
O204 Dy200 2.398 . S
O204 C202 1.185 . S
O205 Dy200 2.491 . S
O205 C202 1.355 . S
O206 Dy200 2.403 . S
O206 C208 1.254 . S
O207 Dy200 2.664 . S
O207 Dy203 2.310 . S
O207 C208 1.268 . S
C208 O206 1.254 . S
C208 O207 1.268 . S
C209 O214 1.254 . S
C209 O215 1.268 . S
O210 Dy203 2.351 . S
O210 C218 1.249 . S
O211 Dy200 2.326 . S
O211 C218 1.267 . S
O212 C201 1.185 . S
O212 Dy203 2.398 . S
O213 C201 1.355 . S
O213 Dy203 2.491 . S
O214 Dy203 2.403 . S
O214 C209 1.254 . S
O215 Dy200 2.310 . S
O215 Dy203 2.664 . S
O215 C209 1.268 . S
O216 Dy200 2.351 . S
O216 C219 1.249 . S
O217 Dy203 2.326 . S
O217 C219 1.267 . S
C218 O210 1.249 . S
C218 O211 1.267 . S
C219 O216 1.249 . S
C219 O217 1.267 . S
Dy220 O224 2.398 . S
Dy220 O225 2.491 1_455 S
Dy220 O226 2.403 . S
Dy220 O227 2.664 . S
Dy220 O231 2.326 1_455 S
Dy220 O235 2.310 1_455 S
Dy220 O236 2.351 . S
C221 O232 1.185 . S
C221 O233 1.355 1_655 S
C222 O224 1.185 . S
C222 O225 1.355 1_455 S
Dy223 O227 2.310 1_655 S
Dy223 O230 2.351 . S
Dy223 O232 2.398 . S
Dy223 O233 2.491 1_655 S
Dy223 O234 2.403 . S
Dy223 O235 2.664 . S
Dy223 O237 2.326 1_655 S
O224 Dy220 2.398 . S
O224 C222 1.185 . S
O225 Dy220 2.491 1_655 S
O225 C222 1.355 1_655 S
O226 Dy220 2.403 . S
O226 C228 1.254 . S
O227 Dy220 2.664 . S
O227 Dy223 2.310 1_455 S
O227 C228 1.268 . S
C228 O226 1.254 . S
C228 O227 1.268 . S
C229 O234 1.254 . S
C229 O235 1.268 . S
O230 Dy223 2.351 . S
O230 C238 1.249 . S
O231 Dy220 2.326 1_655 S
O231 C238 1.267 . S
O232 C221 1.185 . S
O232 Dy223 2.398 . S
O233 C221 1.355 1_455 S
O233 Dy223 2.491 1_455 S
O234 Dy223 2.403 . S
O234 C229 1.254 . S
O235 Dy220 2.310 1_655 S
O235 Dy223 2.664 . S
O235 C229 1.268 . S
O236 Dy220 2.351 . S
O236 C239 1.249 . S
O237 Dy223 2.326 1_455 S
O237 C239 1.267 . S
C238 O230 1.249 . S
C238 O231 1.267 . S
C239 O236 1.249 . S
C239 O237 1.267 . S
Dy240 O244 2.398 . S
Dy240 O245 2.491 . S
Dy240 O246 2.403 . S
Dy240 O247 2.664 . S
Dy240 O251 2.326 . S
Dy240 O255 2.310 . S
Dy240 O256 2.351 . S
C241 O252 1.185 . S
C241 O253 1.355 . S
C242 O244 1.185 . S
C242 O245 1.355 . S
Dy243 O247 2.310 . S
Dy243 O250 2.351 . S
Dy243 O252 2.398 . S
Dy243 O253 2.491 . S
Dy243 O254 2.403 . S
Dy243 O255 2.664 . S
Dy243 O257 2.326 . S
O244 Dy240 2.398 . S
O244 C242 1.185 . S
O245 Dy240 2.491 . S
O245 C242 1.355 . S
O246 Dy240 2.403 . S
O246 C248 1.254 . S
O247 Dy240 2.664 . S
O247 Dy243 2.310 . S
O247 C248 1.268 . S
C248 O246 1.254 . S
C248 O247 1.268 . S
C249 O254 1.254 . S
C249 O255 1.268 . S
O250 Dy243 2.351 . S
O250 C258 1.249 . S
O251 Dy240 2.326 . S
O251 C258 1.267 . S
O252 C241 1.185 . S
O252 Dy243 2.398 . S
O253 C241 1.355 . S
O253 Dy243 2.491 . S
O254 Dy243 2.403 . S
O254 C249 1.254 . S
O255 Dy240 2.310 . S
O255 Dy243 2.664 . S
O255 C249 1.268 . S
O256 Dy240 2.351 . S
O256 C259 1.249 . S
O257 Dy243 2.326 . S
O257 C259 1.267 . S
C258 O250 1.249 . S
C258 O251 1.267 . S
C259 O256 1.249 . S
C259 O257 1.267 . S
Dy260 O264 2.398 . S
Dy260 O265 2.491 1_556 S
Dy260 O266 2.403 . S
Dy260 O267 2.664 . S
Dy260 O271 2.326 1_556 S
Dy260 O275 2.310 1_556 S
Dy260 O276 2.351 . S
C261 O272 1.185 . S
C261 O273 1.355 1_554 S
C262 O264 1.185 . S
C262 O265 1.355 1_556 S
Dy263 O267 2.310 1_554 S
Dy263 O270 2.351 . S
Dy263 O272 2.398 . S
Dy263 O273 2.491 1_554 S
Dy263 O274 2.403 . S
Dy263 O275 2.664 . S
Dy263 O277 2.326 1_554 S
O264 Dy260 2.398 . S
O264 C262 1.185 . S
O265 Dy260 2.491 1_554 S
O265 C262 1.355 1_554 S
O266 Dy260 2.403 . S
O266 C268 1.254 . S
O267 Dy260 2.664 . S
O267 Dy263 2.310 1_556 S
O267 C268 1.268 . S
C268 O266 1.254 . S
C268 O267 1.268 . S
C269 O274 1.254 . S
C269 O275 1.268 . S
O270 Dy263 2.351 . S
O270 C278 1.249 . S
O271 Dy260 2.326 1_554 S
O271 C278 1.267 . S
O272 C261 1.185 . S
O272 Dy263 2.398 . S
O273 C261 1.355 1_556 S
O273 Dy263 2.491 1_556 S
O274 Dy263 2.403 . S
O274 C269 1.254 . S
O275 Dy260 2.310 1_554 S
O275 Dy263 2.664 . S
O275 C269 1.268 . S
O276 Dy260 2.351 . S
O276 C279 1.249 . S
O277 Dy263 2.326 1_556 S
O277 C279 1.267 . S
C278 O270 1.249 . S
C278 O271 1.267 . S
C279 O276 1.249 . S
C279 O277 1.267 . S
Dy280 O284 2.398 . S
Dy280 O285 2.491 . S
Dy280 O286 2.403 . S
Dy280 O287 2.664 . S
Dy280 O291 2.326 . S
Dy280 O295 2.310 1_565 S
Dy280 O296 2.351 1_565 S
C281 O292 1.185 . S
C281 O293 1.355 . S
C282 O284 1.185 . S
C282 O285 1.355 . S
Dy283 O287 2.310 1_545 S
Dy283 O290 2.351 1_545 S
Dy283 O292 2.398 . S
Dy283 O293 2.491 . S
Dy283 O294 2.403 . S
Dy283 O295 2.664 . S
Dy283 O297 2.326 . S
O284 Dy280 2.398 . S
O284 C282 1.185 . S
O285 Dy280 2.491 . S
O285 C282 1.355 . S
O286 Dy280 2.403 . S
O286 C288 1.254 . S
O287 Dy280 2.664 . S
O287 Dy283 2.310 1_565 S
O287 C288 1.268 . S
C288 O286 1.254 . S
C288 O287 1.268 . S
C289 O294 1.254 . S
C289 O295 1.268 . S
O290 Dy283 2.351 1_565 S
O290 C298 1.249 . S
O291 Dy280 2.326 . S
O291 C298 1.267 . S
O292 C281 1.185 . S
O292 Dy283 2.398 . S
O293 C281 1.355 . S
O293 Dy283 2.491 . S
O294 Dy283 2.403 . S
O294 C289 1.254 . S
O295 Dy280 2.310 1_545 S
O295 Dy283 2.664 . S
O295 C289 1.268 . S
O296 Dy280 2.351 1_545 S
O296 C299 1.249 . S
O297 Dy283 2.326 . S
O297 C299 1.267 . S
C298 O290 1.249 . S
C298 O291 1.267 . S
C299 O296 1.249 . S
C299 O297 1.267 . S
Dy300 O304 2.398 . S
Dy300 O305 2.491 . S
Dy300 O306 2.403 . S
Dy300 O307 2.664 . S
Dy300 O311 2.326 1_554 S
Dy300 O315 2.310 1_554 S
Dy300 O316 2.351 . S
C301 O312 1.185 . S
C301 O313 1.355 . S
C302 O304 1.185 . S
C302 O305 1.355 . S
Dy303 O307 2.310 1_556 S
Dy303 O310 2.351 . S
Dy303 O312 2.398 . S
Dy303 O313 2.491 . S
Dy303 O314 2.403 . S
Dy303 O315 2.664 . S
Dy303 O317 2.326 1_556 S
O304 Dy300 2.398 . S
O304 C302 1.185 . S
O305 Dy300 2.491 . S
O305 C302 1.355 . S
O306 Dy300 2.403 . S
O306 C308 1.254 . S
O307 Dy300 2.664 . S
O307 Dy303 2.310 1_554 S
O307 C308 1.268 . S
C308 O306 1.254 . S
C308 O307 1.268 . S
C309 O314 1.254 . S
C309 O315 1.268 . S
O310 Dy303 2.351 . S
O310 C318 1.249 . S
O311 Dy300 2.326 1_556 S
O311 C318 1.267 . S
O312 C301 1.185 . S
O312 Dy303 2.398 . S
O313 C301 1.355 . S
O313 Dy303 2.491 . S
O314 Dy303 2.403 . S
O314 C309 1.254 . S
O315 Dy300 2.310 1_556 S
O315 Dy303 2.664 . S
O315 C309 1.268 . S
O316 Dy300 2.351 . S
O316 C319 1.249 . S
O317 Dy303 2.326 1_554 S
O317 C319 1.267 . S
C318 O310 1.249 . S
C318 O311 1.267 . S
C319 O316 1.249 . S
C319 O317 1.267 . S
C320 C321 1.387 1_455 S
C320 H324 0.950 . S
C320 C329 1.390 . S
C321 C320 1.387 1_655 S
C321 C323 1.387 . S
H322 C329 0.950 . S
C323 C321 1.387 . S
C323 C325 1.390 . S
C323 H327 0.950 . S
H324 C320 0.950 . S
C325 C323 1.390 . S
C325 C326 1.387 . S
C325 H328 0.950 . S
C326 C325 1.387 . S
C326 C329 1.387 1_655 S
H327 C323 0.950 . S
H328 C325 0.950 . S
C329 C320 1.390 . S
C329 H322 0.950 . S
C329 C326 1.387 1_455 S
C330 C331 1.387 . S
C330 H334 0.950 . S
C330 C339 1.390 . S
C331 C330 1.387 . S
C331 C333 1.387 . S
H332 C339 0.950 . S
C333 C331 1.387 . S
C333 C335 1.390 . S
C333 H337 0.950 . S
H334 C330 0.950 . S
C335 C333 1.390 . S
C335 C336 1.387 . S
C335 H338 0.950 . S
C336 C335 1.387 . S
C336 C339 1.387 . S
H337 C333 0.950 . S
H338 C335 0.950 . S
C339 C330 1.390 . S
C339 H332 0.950 . S
C339 C336 1.387 . S
C340 C341 1.387 . S
C340 H344 0.950 . S
C340 C349 1.390 . S
C341 C340 1.387 . S
C341 C343 1.387 . S
H342 C349 0.950 . S
C343 C341 1.387 . S
C343 C345 1.390 . S
C343 H347 0.950 . S
H344 C340 0.950 . S
C345 C343 1.390 . S
C345 C346 1.387 . S
C345 H348 0.950 . S
C346 C345 1.387 . S
C346 C349 1.387 . S
H347 C343 0.950 . S
H348 C345 0.950 . S
C349 C340 1.390 . S
C349 H342 0.950 . S
C349 C346 1.387 . S
C350 C351 1.400 . S
C350 H354 0.945 1_545 S
C350 C359 1.383 1_545 S
C351 C350 1.400 . S
C351 C353 1.387 . S
H352 C359 0.950 . S
C353 C351 1.387 . S
C353 C355 1.390 . S
C353 H357 0.950 . S
H354 C350 0.945 1_565 S
C355 C353 1.390 . S
C355 C356 1.387 . S
C355 H358 0.950 . S
C356 C355 1.387 . S
C356 C359 1.387 1_545 S
H357 C353 0.950 . S
H358 C355 0.950 . S
C359 C350 1.383 1_565 S
C359 H352 0.950 . S
C359 C356 1.387 1_565 S
C360 C361 1.387 . S
C360 H364 0.950 . S
C360 C369 1.390 . S
C361 C360 1.387 . S
C361 C363 1.387 . S
H362 C369 0.950 . S
C363 C361 1.387 . S
C363 C365 1.390 . S
C363 H367 0.950 . S
H364 C360 0.950 . S
C365 C363 1.390 . S
C365 C366 1.387 . S
C365 H368 0.950 1_565 S
C366 C365 1.387 . S
C366 C369 1.387 . S
H367 C363 0.950 . S
H368 C365 0.950 1_545 S
C369 C360 1.390 . S
C369 H362 0.950 . S
C369 C366 1.387 . S
C370 C371 1.387 1_655 S
C370 H374 0.950 . S
C370 C379 1.390 . S
C371 C370 1.387 1_455 S
C371 C373 1.387 . S
H372 C379 0.950 . S
C373 C371 1.387 . S
C373 C375 1.390 . S
C373 H377 0.950 . S
H374 C370 0.950 . S
C375 C373 1.390 . S
C375 C376 1.387 . S
C375 H378 0.950 . S
C376 C375 1.387 . S
C376 C379 1.387 1_455 S
H377 C373 0.950 . S
H378 C375 0.950 . S
C379 C370 1.390 . S
C379 H372 0.950 . S
C379 C376 1.387 1_655 S
C380 C381 1.387 . S
C380 H384 0.950 . S
C380 C389 1.390 . S
C381 C380 1.387 . S
C381 C383 1.387 . S
H382 C389 0.950 . S
C383 C381 1.387 . S
C383 C385 1.390 . S
C383 H387 0.950 . S
H384 C380 0.950 . S
C385 C383 1.390 . S
C385 C386 1.387 . S
C385 H388 0.950 . S
C386 C385 1.387 . S
C386 C389 1.387 . S
H387 C383 0.950 . S
H388 C385 0.950 . S
C389 C380 1.390 . S
C389 H382 0.950 . S
C389 C386 1.387 . S
C390 C391 1.387 . S
C390 H394 0.950 . S
C390 C399 1.390 . S
C391 C390 1.387 . S
C391 C393 1.387 . S
H392 C399 0.950 . S
C393 C391 1.387 . S
C393 C395 1.390 . S
C393 H397 0.950 . S
H394 C390 0.950 . S
C395 C393 1.390 . S
C395 C396 1.387 . S
C395 H398 0.950 . S
C396 C395 1.387 . S
C396 C399 1.387 . S
H397 C393 0.950 . S
H398 C395 0.950 . S
C399 C390 1.390 . S
C399 H392 0.950 . S
C399 C396 1.387 . S
C400 C401 1.387 . S
C400 H404 0.950 . S
C400 C409 1.390 . S
C401 C400 1.387 . S
C401 C403 1.387 . S
H402 C409 0.950 . S
C403 C401 1.387 . S
C403 C405 1.390 . S
C403 H407 0.950 . S
H404 C400 0.950 . S
C405 C403 1.390 . S
C405 C406 1.387 . S
C405 H408 0.950 . S
C406 C405 1.387 . S
C406 C409 1.387 . S
H407 C403 0.950 . S
H408 C405 0.950 . S
C409 C400 1.390 . S
C409 H402 0.950 . S
C409 C406 1.387 . S
C410 C411 1.387 . S
C410 H414 0.950 . S
C410 C419 1.390 . S
C411 C410 1.387 . S
C411 C413 1.387 . S
H412 C419 0.950 . S
C413 C411 1.387 . S
C413 C415 1.390 . S
C413 H417 0.950 . S
H414 C410 0.950 . S
C415 C413 1.390 . S
C415 C416 1.387 . S
C415 H418 0.950 . S
C416 C415 1.387 . S
C416 C419 1.387 . S
H417 C413 0.950 . S
H418 C415 0.950 . S
C419 C410 1.390 . S
C419 H412 0.950 . S
C419 C416 1.387 . S
C420 C421 1.387 . S
C420 H424 0.950 . S
C420 C429 1.390 . S
C421 C420 1.387 . S
C421 C423 1.387 . S
H422 C429 0.950 . S
C423 C421 1.387 . S
C423 C425 1.376 1_565 S
C423 H427 0.950 . S
H424 C420 0.950 . S
C425 C423 1.376 1_545 S
C425 C426 1.384 1_545 S
C425 H428 0.968 . S
C426 C425 1.384 1_565 S
C426 C429 1.387 . S
H427 C423 0.950 . S
H428 C425 0.968 . S
C429 C420 1.390 . S
C429 H422 0.950 . S
C429 C426 1.387 . S
C430 C431 1.387 . S
C430 H434 0.950 . S
C430 C439 1.390 . S
C431 C430 1.387 . S
C431 C433 1.387 . S
H432 C439 0.950 . S
C433 C431 1.387 . S
C433 C435 1.390 . S
C433 H437 0.950 . S
H434 C430 0.950 . S
C435 C433 1.390 . S
C435 C436 1.387 . S
C435 H438 0.950 . S
C436 C435 1.387 . S
C436 C439 1.387 . S
H437 C433 0.950 . S
H438 C435 0.950 . S
C439 C430 1.390 . S
C439 H432 0.950 . S
C439 C436 1.387 . S
C440 C441 1.387 . S
C440 H444 0.950 . S
C440 C449 1.390 . S
C441 C440 1.387 . S
C441 C443 1.387 1_556 S
H442 C449 0.950 . S
C443 C441 1.387 1_554 S
C443 C445 1.390 . S
C443 H447 0.950 . S
H444 C440 0.950 . S
C445 C443 1.390 . S
C445 C446 1.387 1_554 S
C445 H448 0.950 . S
C446 C445 1.387 1_556 S
C446 C449 1.387 . S
H447 C443 0.950 . S
H448 C445 0.950 . S
C449 C440 1.390 . S
C449 H442 0.950 . S
C449 C446 1.387 . S
C450 C451 1.387 . S
C450 H454 0.950 . S
C450 C459 1.390 . S
C451 C450 1.387 . S
C451 C453 1.387 . S
H452 C459 0.950 . S
C453 C451 1.387 . S
C453 C455 1.390 . S
C453 H457 0.950 . S
H454 C450 0.950 . S
C455 C453 1.390 . S
C455 C456 1.387 . S
C455 H458 0.950 . S
C456 C455 1.387 . S
C456 C459 1.387 . S
H457 C453 0.950 . S
H458 C455 0.950 . S
C459 C450 1.390 . S
C459 H452 0.950 . S
C459 C456 1.387 . S
C460 C461 1.387 . S
C460 H464 0.950 . S
C460 C469 1.390 . S
C461 C460 1.387 . S
C461 C463 1.387 . S
H462 C469 0.950 . S
C463 C461 1.387 . S
C463 C465 1.390 . S
C463 H467 0.950 . S
H464 C460 0.950 . S
C465 C463 1.390 . S
C465 C466 1.387 . S
C465 H468 0.950 . S
C466 C465 1.387 . S
C466 C469 1.387 . S
H467 C463 0.950 . S
H468 C465 0.950 . S
C469 C460 1.390 . S
C469 H462 0.950 . S
C469 C466 1.387 . S
C470 C471 1.387 . S
C470 H474 0.950 . S
C470 C479 1.390 . S
C471 C470 1.387 . S
C471 C473 1.387 . S
H472 C479 0.950 . S
C473 C471 1.387 . S
C473 C475 1.390 . S
C473 H477 0.950 . S
H474 C470 0.950 . S
C475 C473 1.390 . S
C475 C476 1.387 . S
C475 H478 0.950 . S
C476 C475 1.387 . S
C476 C479 1.387 . S
H477 C473 0.950 . S
H478 C475 0.950 . S
C479 C470 1.390 . S
C479 H472 0.950 . S
C479 C476 1.387 . S
C480 C481 1.387 . S
C480 H484 0.950 . S
C480 C489 1.390 . S
C481 C480 1.387 . S
C481 C483 1.387 . S
H482 C489 0.950 . S
C483 C481 1.387 . S
C483 C485 1.390 . S
C483 H487 0.950 . S
H484 C480 0.950 . S
C485 C483 1.390 . S
C485 C486 1.387 . S
C485 H488 0.950 . S
C486 C485 1.387 . S
C486 C489 1.387 . S
H487 C483 0.950 . S
H488 C485 0.950 . S
C489 C480 1.390 . S
C489 H482 0.950 . S
C489 C486 1.387 . S
C490 C491 1.387 . S
C490 H494 0.950 . S
C490 C499 1.390 . S
C491 C490 1.387 . S
C491 C493 1.387 . S
H492 C499 0.950 . S
C493 C491 1.387 . S
C493 C495 1.390 . S
C493 H497 0.950 . S
H494 C490 0.950 . S
C495 C493 1.390 . S
C495 C496 1.387 . S
C495 H498 0.950 . S
C496 C495 1.387 . S
C496 C499 1.387 . S
H497 C493 0.950 . S
H498 C495 0.950 . S
C499 C490 1.390 . S
C499 H492 0.950 . S
C499 C496 1.387 . S
C500 C501 1.387 . S
C500 H504 0.950 . S
C500 C509 1.390 . S
C501 C500 1.387 . S
C501 C503 1.387 . S
H502 C509 0.950 . S
C503 C501 1.387 . S
C503 C505 1.390 . S
C503 H507 0.950 . S
H504 C500 0.950 . S
C505 C503 1.390 . S
C505 C506 1.387 . S
C505 H508 0.950 . S
C506 C505 1.387 . S
C506 C509 1.387 . S
H507 C503 0.950 . S
H508 C505 0.950 . S
C509 C500 1.390 . S
C509 H502 0.950 . S
C509 C506 1.387 . S
C510 C511 1.387 . S
C510 H514 0.950 . S
C510 C519 1.390 . S
C511 C510 1.387 . S
C511 C513 1.387 . S
H512 C519 0.950 . S
C513 C511 1.387 . S
C513 C515 1.390 . S
C513 H517 0.950 . S
H514 C510 0.950 . S
C515 C513 1.390 . S
C515 C516 1.387 . S
C515 H518 0.950 . S
C516 C515 1.387 . S
C516 C519 1.387 . S
H517 C513 0.950 . S
H518 C515 0.950 . S
C519 C510 1.390 . S
C519 H512 0.950 . S
C519 C516 1.387 . S
C520 C521 1.387 . S
C520 H524 0.950 . S
C520 C529 1.390 . S
C521 C520 1.387 . S
C521 C523 1.387 . S
H522 C529 0.950 . S
C523 C521 1.387 . S
C523 C525 1.390 . S
C523 H527 0.950 . S
H524 C520 0.950 . S
C525 C523 1.390 . S
C525 C526 1.387 . S
C525 H528 0.950 . S
C526 C525 1.387 . S
C526 C529 1.387 . S
H527 C523 0.950 . S
H528 C525 0.950 . S
C529 C520 1.390 . S
C529 H522 0.950 . S
C529 C526 1.387 . S
C530 C531 1.387 . S
C530 H534 0.950 . S
C530 C539 1.390 . S
C531 C530 1.387 . S
C531 C533 1.387 1_655 S
H532 C539 0.950 . S
C533 C531 1.387 1_455 S
C533 C535 1.390 . S
C533 H537 0.950 . S
H534 C530 0.950 . S
C535 C533 1.390 . S
C535 C536 1.387 1_455 S
C535 H538 0.950 . S
C536 C535 1.387 1_655 S
C536 C539 1.387 . S
H537 C533 0.950 . S
H538 C535 0.950 . S
C539 C530 1.390 . S
C539 H532 0.950 . S
C539 C536 1.387 . S
C540 C541 1.387 . S
C540 H544 0.950 . S
C540 C549 1.390 . S
C541 C540 1.387 . S
C541 C543 1.387 . S
H542 C549 0.950 . S
C543 C541 1.387 . S
C543 C545 1.390 . S
C543 H547 0.950 . S
H544 C540 0.950 . S
C545 C543 1.390 . S
C545 C546 1.387 . S
C545 H548 0.950 . S
C546 C545 1.387 . S
C546 C549 1.387 . S
H547 C543 0.950 . S
H548 C545 0.950 . S
C549 C540 1.390 . S
C549 H542 0.950 . S
C549 C546 1.387 . S
C550 C551 1.387 . S
C550 H554 0.950 . S
C550 C559 1.390 . S
C551 C550 1.387 . S
C551 C553 1.387 . S
H552 C559 0.950 . S
C553 C551 1.387 . S
C553 C555 1.390 . S
C553 H557 0.950 . S
H554 C550 0.950 . S
C555 C553 1.390 . S
C555 C556 1.387 . S
C555 H558 0.950 . S
C556 C555 1.387 . S
C556 C559 1.387 . S
H557 C553 0.950 . S
H558 C555 0.950 . S
C559 C550 1.390 . S
C559 H552 0.950 . S
C559 C556 1.387 . S
C560 C561 1.387 . S
C560 H564 0.950 . S
C560 C569 1.390 . S
C561 C560 1.387 . S
C561 C563 1.387 . S
H562 C569 0.950 . S
C563 C561 1.387 . S
C563 C565 1.390 . S
C563 H567 0.950 . S
H564 C560 0.950 . S
C565 C563 1.390 . S
C565 C566 1.387 . S
C565 H568 0.950 . S
C566 C565 1.387 . S
C566 C569 1.387 . S
H567 C563 0.950 . S
H568 C565 0.950 . S
C569 C560 1.390 . S
C569 H562 0.950 . S
C569 C566 1.387 . S
C570 C571 1.387 . S
C570 H574 0.950 . S
C570 C579 1.390 . S
C571 C570 1.387 . S
C571 C573 1.387 . S
H572 C579 0.950 . S
C573 C571 1.387 . S
C573 C575 1.390 . S
C573 H577 0.950 . S
H574 C570 0.950 . S
C575 C573 1.390 . S
C575 C576 1.387 . S
C575 H578 0.950 . S
C576 C575 1.387 . S
C576 C579 1.387 . S
H577 C573 0.950 . S
H578 C575 0.950 . S
C579 C570 1.390 . S
C579 H572 0.950 . S
C579 C576 1.387 . S
C580 C581 1.387 . S
C580 H584 0.950 . S
C580 C589 1.390 . S
C581 C580 1.387 . S
C581 C583 1.387 . S
H582 C589 0.950 . S
C583 C581 1.387 . S
C583 C585 1.390 . S
C583 H587 0.950 . S
H584 C580 0.950 . S
C585 C583 1.390 . S
C585 C586 1.387 . S
C585 H588 0.950 . S
C586 C585 1.387 . S
C586 C589 1.387 . S
H587 C583 0.950 . S
H588 C585 0.950 . S
C589 C580 1.390 . S
C589 H582 0.950 . S
C589 C586 1.387 . S
C590 C591 1.387 1_556 S
C590 H594 0.950 . S
C590 C599 1.390 . S
C591 C590 1.387 1_554 S
C591 C593 1.387 . S
H592 C599 0.950 . S
C593 C591 1.387 . S
C593 C595 1.390 . S
C593 H597 0.950 . S
H594 C590 0.950 . S
C595 C593 1.390 . S
C595 C596 1.387 . S
C595 H598 0.950 . S
C596 C595 1.387 . S
C596 C599 1.387 1_554 S
H597 C593 0.950 . S
H598 C595 0.950 . S
C599 C590 1.390 . S
C599 H592 0.950 . S
C599 C596 1.387 1_556 S
C600 C601 1.387 . S
C600 H604 0.950 . S
C600 C609 1.390 . S
C601 C600 1.387 . S
C601 C603 1.387 . S
H602 C609 0.950 . S
C603 C601 1.387 . S
C603 C605 1.390 . S
C603 H607 0.950 . S
H604 C600 0.950 . S
C605 C603 1.390 . S
C605 C606 1.387 . S
C605 H608 0.950 . S
C606 C605 1.387 . S
C606 C609 1.387 . S
H607 C603 0.950 . S
H608 C605 0.950 . S
C609 C600 1.390 . S
C609 H602 0.950 . S
C609 C606 1.387 . S
C610 C611 1.387 . S
C610 H614 0.950 . S
C610 C619 1.390 . S
C611 C610 1.387 . S
C611 C613 1.387 . S
H612 C619 0.950 . S
C613 C611 1.387 . S
C613 C615 1.390 . S
C613 H617 0.950 . S
H614 C610 0.950 . S
C615 C613 1.390 . S
C615 C616 1.387 . S
C615 H618 0.950 . S
C616 C615 1.387 . S
C616 C619 1.387 . S
H617 C613 0.950 . S
H618 C615 0.950 . S
C619 C610 1.390 . S
C619 H612 0.950 . S
C619 C616 1.387 . S
C620 C621 1.387 . S
C620 H624 0.950 . S
C620 C629 1.390 . S
C621 C620 1.387 . S
C621 C623 1.387 . S
H622 C629 0.950 . S
C623 C621 1.387 . S
C623 C625 1.390 . S
C623 H627 0.950 . S
H624 C620 0.950 . S
C625 C623 1.390 . S
C625 C626 1.387 . S
C625 H628 0.950 . S
C626 C625 1.387 . S
C626 C629 1.387 . S
H627 C623 0.950 . S
H628 C625 0.950 . S
C629 C620 1.390 . S
C629 H622 0.950 . S
C629 C626 1.387 . S
C630 C631 1.387 . S
C630 H634 0.950 . S
C630 C639 1.390 . S
C631 C630 1.387 . S
C631 C633 1.387 . S
H632 C639 0.950 . S
C633 C631 1.387 . S
C633 C635 1.390 . S
C633 H637 0.950 . S
H634 C630 0.950 . S
C635 C633 1.390 . S
C635 C636 1.387 . S
C635 H638 0.950 . S
C636 C635 1.387 . S
C636 C639 1.387 . S
H637 C633 0.950 . S
H638 C635 0.950 . S
C639 C630 1.390 . S
C639 H632 0.950 . S
C639 C636 1.387 . S
C640 C641 1.387 . S
C640 H644 0.950 . S
C640 C649 1.390 . S
C641 C640 1.387 . S
C641 C643 1.387 . S
H642 C649 0.950 . S
C643 C641 1.387 . S
C643 C645 1.390 . S
C643 H647 0.950 . S
H644 C640 0.950 . S
C645 C643 1.390 . S
C645 C646 1.387 . S
C645 H648 0.950 . S
C646 C645 1.387 . S
C646 C649 1.387 . S
H647 C643 0.950 . S
H648 C645 0.950 . S
C649 C640 1.390 . S
C649 H642 0.950 . S
C649 C646 1.387 . S
C650 C651 1.387 . S
C650 H654 0.950 . S
C650 C659 1.390 . S
C651 C650 1.387 . S
C651 C653 1.387 . S
H652 C659 0.950 . S
C653 C651 1.387 . S
C653 C655 1.390 . S
C653 H657 0.950 . S
H654 C650 0.950 . S
C655 C653 1.390 . S
C655 C656 1.387 . S
C655 H658 0.950 . S
C656 C655 1.387 . S
C656 C659 1.387 . S
H657 C653 0.950 . S
H658 C655 0.950 . S
C659 C650 1.390 . S
C659 H652 0.950 . S
C659 C656 1.387 . S
C660 C661 1.387 . S
C660 H664 0.950 . S
C660 C669 1.390 . S
C661 C660 1.387 . S
C661 C663 1.387 . S
H662 C669 0.950 . S
C663 C661 1.387 . S
C663 C665 1.390 . S
C663 H667 0.950 . S
H664 C660 0.950 . S
C665 C663 1.390 . S
C665 C666 1.387 . S
C665 H668 0.950 . S
C666 C665 1.387 . S
C666 C669 1.387 . S
H667 C663 0.950 . S
H668 C665 0.950 . S
C669 C660 1.390 . S
C669 H662 0.950 . S
C669 C666 1.387 . S
C670 C671 1.387 . S
C670 H674 0.950 . S
C670 C679 1.390 . S
C671 C670 1.387 . S
C671 C673 1.387 . S
H672 C679 0.950 . S
C673 C671 1.387 . S
C673 C675 1.390 . S
C673 H677 0.950 . S
H674 C670 0.950 . S
C675 C673 1.390 . S
C675 C676 1.387 . S
C675 H678 0.950 . S
C676 C675 1.387 . S
C676 C679 1.387 . S
H677 C673 0.950 . S
H678 C675 0.950 . S
C679 C670 1.390 . S
C679 H672 0.950 . S
C679 C676 1.387 . S
C680 C681 1.387 . S
C680 H684 0.950 . S
C680 C689 1.390 . S
C681 C680 1.387 . S
C681 C683 1.387 . S
H682 C689 0.950 . S
C683 C681 1.387 . S
C683 C685 1.390 . S
C683 H687 0.950 . S
H684 C680 0.950 . S
C685 C683 1.390 . S
C685 C686 1.387 . S
C685 H688 0.950 . S
C686 C685 1.387 . S
C686 C689 1.387 . S
H687 C683 0.950 . S
H688 C685 0.950 . S
C689 C680 1.390 . S
C689 H682 0.950 . S
C689 C686 1.387 . S
C690 C691 1.387 1_556 S
C690 H694 0.950 . S
C690 C699 1.390 . S
C691 C690 1.387 1_554 S
C691 C693 1.387 . S
H692 C699 0.950 . S
C693 C691 1.387 . S
C693 C695 1.390 . S
C693 H697 0.950 . S
H694 C690 0.950 . S
C695 C693 1.390 . S
C695 C696 1.387 . S
C695 H698 0.950 . S
C696 C695 1.387 . S
C696 C699 1.387 1_554 S
H697 C693 0.950 . S
H698 C695 0.950 . S
C699 C690 1.390 . S
C699 H692 0.950 . S
C699 C696 1.387 1_556 S
C700 C701 1.387 . S
C700 H704 0.950 . S
C700 C709 1.390 . S
C701 C700 1.387 . S
C701 C703 1.387 . S
H702 C709 0.950 . S
C703 C701 1.387 . S
C703 C705 1.390 . S
C703 H707 0.950 . S
H704 C700 0.950 . S
C705 C703 1.390 . S
C705 C706 1.387 . S
C705 H708 0.950 . S
C706 C705 1.387 . S
C706 C709 1.387 . S
H707 C703 0.950 . S
H708 C705 0.950 . S
C709 C700 1.390 . S
C709 H702 0.950 . S
C709 C706 1.387 . S
C710 C711 1.387 . S
C710 H714 0.950 . S
C710 C719 1.390 . S
C711 C710 1.387 . S
C711 C713 1.387 . S
H712 C719 0.950 . S
C713 C711 1.387 . S
C713 C715 1.390 . S
C713 H717 0.950 . S
H714 C710 0.950 . S
C715 C713 1.390 . S
C715 C716 1.387 . S
C715 H718 0.950 . S
C716 C715 1.387 . S
C716 C719 1.387 . S
H717 C713 0.950 . S
H718 C715 0.950 . S
C719 C710 1.390 . S
C719 H712 0.950 . S
C719 C716 1.387 . S
C720 C721 1.387 . S
C720 H724 0.950 . S
C720 C729 1.390 . S
C721 C720 1.387 . S
C721 C723 1.387 . S
H722 C729 0.950 . S
C723 C721 1.387 . S
C723 C725 1.390 . S
C723 H727 0.950 . S
H724 C720 0.950 . S
C725 C723 1.390 . S
C725 C726 1.387 . S
C725 H728 0.950 . S
C726 C725 1.387 . S
C726 C729 1.387 . S
H727 C723 0.950 . S
H728 C725 0.950 . S
C729 C720 1.390 . S
C729 H722 0.950 . S
C729 C726 1.387 . S
C730 C731 1.387 . S
C730 H734 0.950 . S
C730 C739 1.390 . S
C731 C730 1.387 . S
C731 C733 1.387 . S
H732 C739 0.950 . S
C733 C731 1.387 . S
C733 C735 1.390 . S
C733 H737 0.950 . S
H734 C730 0.950 . S
C735 C733 1.390 . S
C735 C736 1.387 . S
C735 H738 0.950 . S
C736 C735 1.387 . S
C736 C739 1.387 . S
H737 C733 0.950 . S
H738 C735 0.950 . S
C739 C730 1.390 . S
C739 H732 0.950 . S
C739 C736 1.387 . S
C740 C741 1.387 . S
C740 H744 0.950 . S
C740 C749 1.390 . S
C741 C740 1.387 . S
C741 C743 1.387 1_556 S
H742 C749 0.950 . S
C743 C741 1.387 1_554 S
C743 C745 1.390 . S
C743 H747 0.950 . S
H744 C740 0.950 . S
C745 C743 1.390 . S
C745 C746 1.387 1_554 S
C745 H748 0.950 . S
C746 C745 1.387 1_556 S
C746 C749 1.387 . S
H747 C743 0.950 . S
H748 C745 0.950 . S
C749 C740 1.390 . S
C749 H742 0.950 . S
C749 C746 1.387 . S
C750 C751 1.387 . S
C750 H754 0.950 . S
C750 C759 1.390 . S
C751 C750 1.387 . S
C751 C753 1.387 . S
H752 C759 0.950 . S
C753 C751 1.387 . S
C753 C755 1.390 . S
C753 H757 0.950 . S
H754 C750 0.950 . S
C755 C753 1.390 . S
C755 C756 1.387 . S
C755 H758 0.950 . S
C756 C755 1.387 . S
C756 C759 1.387 . S
H757 C753 0.950 . S
H758 C755 0.950 . S
C759 C750 1.390 . S
C759 H752 0.950 . S
C759 C756 1.387 . S
C760 C761 1.387 . S
C760 H764 0.950 . S
C760 C769 1.390 . S
C761 C760 1.387 . S
C761 C763 1.387 . S
H762 C769 0.950 . S
C763 C761 1.387 . S
C763 C765 1.390 . S
C763 H767 0.950 . S
H764 C760 0.950 . S
C765 C763 1.390 . S
C765 C766 1.387 . S
C765 H768 0.950 . S
C766 C765 1.387 . S
C766 C769 1.387 . S
H767 C763 0.950 . S
H768 C765 0.950 . S
C769 C760 1.390 . S
C769 H762 0.950 . S
C769 C766 1.387 . S
C770 C771 1.387 . S
C770 H774 0.950 . S
C770 C779 1.390 . S
C771 C770 1.387 . S
C771 C773 1.387 . S
H772 C779 0.950 . S
C773 C771 1.387 . S
C773 C775 1.390 . S
C773 H777 0.950 . S
H774 C770 0.950 . S
C775 C773 1.390 . S
C775 C776 1.387 . S
C775 H778 0.950 . S
C776 C775 1.387 . S
C776 C779 1.387 . S
H777 C773 0.950 . S
H778 C775 0.950 . S
C779 C770 1.390 . S
C779 H772 0.950 . S
C779 C776 1.387 . S
C780 C781 1.387 . S
C780 H784 0.950 . S
C780 C789 1.390 . S
C781 C780 1.387 . S
C781 C783 1.387 . S
H782 C789 0.950 . S
C783 C781 1.387 . S
C783 C785 1.390 . S
C783 H787 0.950 . S
H784 C780 0.950 . S
C785 C783 1.390 . S
C785 C786 1.387 . S
C785 H788 0.950 . S
C786 C785 1.387 . S
C786 C789 1.387 . S
H787 C783 0.950 . S
H788 C785 0.950 . S
C789 C780 1.390 . S
C789 H782 0.950 . S
C789 C786 1.387 . S
C790 C791 1.387 . S
C790 H794 0.950 . S
C790 C799 1.390 . S
C791 C790 1.387 . S
C791 C793 1.387 . S
H792 C799 0.950 . S
C793 C791 1.387 . S
C793 C795 1.390 . S
C793 H797 0.950 . S
H794 C790 0.950 . S
C795 C793 1.390 . S
C795 C796 1.387 . S
C795 H798 0.950 . S
C796 C795 1.387 . S
C796 C799 1.387 . S
H797 C793 0.950 . S
H798 C795 0.950 . S
C799 C790 1.390 . S
C799 H792 0.950 . S
C799 C796 1.387 . S
C321 C19 1.125 . S
C326 C21 1.090 . S
C331 C59 1.410 . S
C336 C38 1.403 . S
C341 C78 1.573 . S
C346 C49 1.567 . S
C351 C9 1.272 . S
C356 C61 1.231 . S
C361 C8 1.275 . S
C366 C182 1.231 . S
C371 C158 1.125 . S
C376 C22 1.089 . S
C381 C58 1.410 . S
C386 C219 1.403 . S
C391 C79 1.573 . S
C396 C268 1.565 . S
C401 C178 1.410 . S
C406 C39 1.402 . S
C411 C259 1.573 . S
C416 C48 1.565 . S
C421 C288 1.272 . S
C426 C62 1.229 . S
C431 C18 1.125 . S
C436 C222 1.090 . S
C441 C1 0.628 . S
C446 C162 0.643 . S
C451 C249 1.322 . S
C456 C88 1.327 . S
C461 C101 0.642 . S
C466 C282 0.628 . S
C471 C228 1.324 . S
C476 C129 1.324 . S
C481 C41 0.643 . S
C486 C142 0.629 . S
C491 C188 1.325 . S
C496 C89 1.324 . S
C501 C128 1.322 . S
C506 C209 1.327 . S
C511 C118 1.410 . S
C516 C239 1.403 . S
C521 C199 1.574 . S
C526 C108 1.567 . S
C531 C221 1.089 . S
C536 C159 1.125 . S
C541 C119 1.410 . S
C546 C98 1.403 . S
C551 C198 1.575 . S
C556 C169 1.566 . S
C561 C279 1.410 . S
C566 C238 1.404 . S
C571 C138 1.574 . S
C576 C109 1.567 . S
C581 C181 1.228 . S
C586 C289 1.272 . S
C591 C261 0.642 . S
C596 C2 0.628 . S
C601 C42 0.643 . S
C606 C281 0.628 . S
C611 C248 1.322 . S
C616 C29 1.327 . S
C621 C141 0.628 . S
C626 C102 0.643 . S
C631 C69 1.325 . S
C636 C208 1.324 . S
C641 C258 1.574 . S
C646 C269 1.565 . S
C651 C149 1.275 . S
C656 C241 1.228 . S
C661 C122 1.229 . S
C666 C148 1.272 . S
C671 C99 1.403 . S
C676 C278 1.410 . S
C681 C242 1.230 . S
C686 C308 1.272 . S
C691 C302 0.629 . S
C696 C161 0.643 . S
C701 C28 1.327 . S
C706 C189 1.321 . S
C711 C168 1.565 . S
C716 C139 1.574 . S
C721 C179 1.410 . S
C726 C218 1.403 . S
C731 C309 1.272 . S
C736 C121 1.230 . S
C741 C262 0.643 . S
C746 C301 0.628 . S
C751 C229 1.324 . S
C756 C68 1.325 . S
C761 C201 1.089 . S
C766 C299 1.125 . S
C771 C202 1.090 . S
C776 C318 1.126 . S
C781 C82 1.093 . S
C786 C298 1.126 . S
C791 C319 1.125 . S
C796 C81 1.089 . S
