# Generated by pormake.
# Topology wib, (6)-cn, num edge types: 1
# Building blocks:
#     Node 0, Type 0, BuildingBlock: OJICUG_clean_sbu_0, # of connection points: 6
#     Node 1, Type 0, BuildingBlock: OJICUG_clean_sbu_0, # of connection points: 6
#     Node 2, Type 0, BuildingBlock: OJICUG_clean_sbu_0, # of connection points: 6
#     Node 3, Type 0, BuildingBlock: OJICUG_clean_sbu_0, # of connection points: 6
#     Node 4, Type 0, BuildingBlock: OJICUG_clean_sbu_0, # of connection points: 6
#     Node 5, Type 0, BuildingBlock: OJICUG_clean_sbu_0, # of connection points: 6
#     Node 6, Type 0, BuildingBlock: OJICUG_clean_sbu_0, # of connection points: 6
#     Node 7, Type 0, BuildingBlock: OJICUG_clean_sbu_0, # of connection points: 6
#     Node 8, Type 0, BuildingBlock: OJICUG_clean_sbu_0, # of connection points: 6
#     Node 9, Type 0, BuildingBlock: OJICUG_clean_sbu_0, # of connection points: 6
#     Node 10, Type 0, BuildingBlock: OJICUG_clean_sbu_0, # of connection points: 6
#     Node 11, Type 0, BuildingBlock: OJICUG_clean_sbu_0, # of connection points: 6
#     Node 12, Type 0, BuildingBlock: OJICUG_clean_sbu_0, # of connection points: 6
#     Node 13, Type 0, BuildingBlock: OJICUG_clean_sbu_0, # of connection points: 6
#     Node 14, Type 0, BuildingBlock: OJICUG_clean_sbu_0, # of connection points: 6
#     Node 15, Type 0, BuildingBlock: OJICUG_clean_sbu_0, # of connection points: 6
#     Edge 16, Type (0, 0), BuildingBlock: OJICUG_clean_linker_0, # of connection points: 2
#     Edge 17, Type (0, 0), BuildingBlock: OJICUG_clean_linker_0, # of connection points: 2
#     Edge 18, Type (0, 0), BuildingBlock: OJICUG_clean_linker_0, # of connection points: 2
#     Edge 19, Type (0, 0), BuildingBlock: OJICUG_clean_linker_0, # of connection points: 2
#     Edge 20, Type (0, 0), BuildingBlock: OJICUG_clean_linker_0, # of connection points: 2
#     Edge 21, Type (0, 0), BuildingBlock: OJICUG_clean_linker_0, # of connection points: 2
#     Edge 22, Type (0, 0), BuildingBlock: OJICUG_clean_linker_0, # of connection points: 2
#     Edge 23, Type (0, 0), BuildingBlock: OJICUG_clean_linker_0, # of connection points: 2
#     Edge 24, Type (0, 0), BuildingBlock: OJICUG_clean_linker_0, # of connection points: 2
#     Edge 25, Type (0, 0), BuildingBlock: OJICUG_clean_linker_0, # of connection points: 2
#     Edge 26, Type (0, 0), BuildingBlock: OJICUG_clean_linker_0, # of connection points: 2
#     Edge 27, Type (0, 0), BuildingBlock: OJICUG_clean_linker_0, # of connection points: 2
#     Edge 28, Type (0, 0), BuildingBlock: OJICUG_clean_linker_0, # of connection points: 2
#     Edge 29, Type (0, 0), BuildingBlock: OJICUG_clean_linker_0, # of connection points: 2
#     Edge 30, Type (0, 0), BuildingBlock: OJICUG_clean_linker_0, # of connection points: 2
#     Edge 31, Type (0, 0), BuildingBlock: OJICUG_clean_linker_0, # of connection points: 2
#     Edge 32, Type (0, 0), BuildingBlock: OJICUG_clean_linker_0, # of connection points: 2
#     Edge 33, Type (0, 0), BuildingBlock: OJICUG_clean_linker_0, # of connection points: 2
#     Edge 34, Type (0, 0), BuildingBlock: OJICUG_clean_linker_0, # of connection points: 2
#     Edge 35, Type (0, 0), BuildingBlock: OJICUG_clean_linker_0, # of connection points: 2
#     Edge 36, Type (0, 0), BuildingBlock: OJICUG_clean_linker_0, # of connection points: 2
#     Edge 37, Type (0, 0), BuildingBlock: OJICUG_clean_linker_0, # of connection points: 2
#     Edge 38, Type (0, 0), BuildingBlock: OJICUG_clean_linker_0, # of connection points: 2
#     Edge 39, Type (0, 0), BuildingBlock: OJICUG_clean_linker_0, # of connection points: 2
#     Edge 40, Type (0, 0), BuildingBlock: OJICUG_clean_linker_0, # of connection points: 2
#     Edge 41, Type (0, 0), BuildingBlock: OJICUG_clean_linker_0, # of connection points: 2
#     Edge 42, Type (0, 0), BuildingBlock: OJICUG_clean_linker_0, # of connection points: 2
#     Edge 43, Type (0, 0), BuildingBlock: OJICUG_clean_linker_0, # of connection points: 2
#     Edge 44, Type (0, 0), BuildingBlock: OJICUG_clean_linker_0, # of connection points: 2
#     Edge 45, Type (0, 0), BuildingBlock: OJICUG_clean_linker_0, # of connection points: 2
#     Edge 46, Type (0, 0), BuildingBlock: OJICUG_clean_linker_0, # of connection points: 2
#     Edge 47, Type (0, 0), BuildingBlock: OJICUG_clean_linker_0, # of connection points: 2
#     Edge 48, Type (0, 0), BuildingBlock: OJICUG_clean_linker_0, # of connection points: 2
#     Edge 49, Type (0, 0), BuildingBlock: OJICUG_clean_linker_0, # of connection points: 2
#     Edge 50, Type (0, 0), BuildingBlock: OJICUG_clean_linker_0, # of connection points: 2
#     Edge 51, Type (0, 0), BuildingBlock: OJICUG_clean_linker_0, # of connection points: 2
#     Edge 52, Type (0, 0), BuildingBlock: OJICUG_clean_linker_0, # of connection points: 2
#     Edge 53, Type (0, 0), BuildingBlock: OJICUG_clean_linker_0, # of connection points: 2
#     Edge 54, Type (0, 0), BuildingBlock: OJICUG_clean_linker_0, # of connection points: 2
#     Edge 55, Type (0, 0), BuildingBlock: OJICUG_clean_linker_0, # of connection points: 2
#     Edge 56, Type (0, 0), BuildingBlock: OJICUG_clean_linker_0, # of connection points: 2
#     Edge 57, Type (0, 0), BuildingBlock: OJICUG_clean_linker_0, # of connection points: 2
#     Edge 58, Type (0, 0), BuildingBlock: OJICUG_clean_linker_0, # of connection points: 2
#     Edge 59, Type (0, 0), BuildingBlock: OJICUG_clean_linker_0, # of connection points: 2
#     Edge 60, Type (0, 0), BuildingBlock: OJICUG_clean_linker_0, # of connection points: 2
#     Edge 61, Type (0, 0), BuildingBlock: OJICUG_clean_linker_0, # of connection points: 2
#     Edge 62, Type (0, 0), BuildingBlock: OJICUG_clean_linker_0, # of connection points: 2
#     Edge 63, Type (0, 0), BuildingBlock: OJICUG_clean_linker_0, # of connection points: 2
# Relax obj value: 0.382
# Max RMSD: 0.261
# Mean RMSD: 0.261
data_MOF--net-wib--node1-OJICUG_clean_sbu_0--edge1-OJICUG_clean_linker_0
_symmetry_space_group_name_H-M    P1
_symmetry_Int_Tables_number       1
_symmetry_cell_setting            triclinic
loop_
_symmetry_equiv_pos_as_xyz
'x, y, z'
_cell_length_a     23.487629
_cell_length_b     23.458268
_cell_length_c     42.661958
_cell_angle_alpha  90.030432
_cell_angle_beta   90.030836
_cell_angle_gamma 89.932741
loop_
_atom_site_label
_atom_site_type_symbol
_atom_site_fract_x
_atom_site_fract_y
_atom_site_fract_z
_atom_type_partial_charge
Sc0 Sc 0.11641 0.47672 0.2837 0.0
Sc1 Sc 0.15863 0.56623 0.34389 0.0
Sc2 Sc 0.05888 0.61289 0.29114 0.0
O3 O 0.11118 0.55165 0.30567 0.0
C4 C 0.10412 0.56797 0.22653 0.0
C5 C 0.24285 0.49102 0.30268 0.0
C6 C 0.1782 0.67305 0.30539 0.0
C7 C 0.12364 0.44732 0.35867 0.0
C8 C 0.98344 0.50094 0.28133 0.0
C9 C 0.05034 0.64448 0.35836 0.0
O10 O 0.11033 0.51649 0.23637 0.0
O11 O 0.22631 0.50792 0.32959 0.0
O12 O 0.12479 0.67679 0.29957 0.0
O13 O 0.12873 0.43259 0.32969 0.0
O14 O 0.99117 0.55454 0.28036 0.0
O15 O 0.1025 0.63255 0.36308 0.0
O16 O 0.02381 0.46504 0.28555 0.0
O17 O 0.11577 0.49876 0.36696 0.0
O18 O 0.02327 0.61937 0.33695 0.0
O19 O 0.20804 0.48513 0.28002 0.0
O20 O 0.08979 0.60839 0.2446 0.0
O21 O 0.20059 0.63086 0.31927 0.0
Sc22 Sc 0.28945 0.36658 0.5339 0.0
Sc23 Sc 0.19948 0.40892 0.59369 0.0
Sc24 Sc 0.15313 0.31013 0.54055 0.0
O25 O 0.2143 0.36189 0.55536 0.0
C26 C 0.19843 0.35618 0.47637 0.0
C27 C 0.27573 0.49294 0.55341 0.0
C28 C 0.09357 0.43008 0.55494 0.0
C29 C 0.31726 0.37087 0.60916 0.0
C30 C 0.26437 0.23376 0.53058 0.0
C31 C 0.12074 0.30118 0.6072 0.0
O32 O 0.24984 0.36204 0.48637 0.0
O33 O 0.25906 0.47597 0.58027 0.0
O34 O 0.08959 0.37656 0.54923 0.0
O35 O 0.33283 0.37709 0.58037 0.0
O36 O 0.21093 0.24204 0.52945 0.0
O37 O 0.13213 0.35342 0.61203 0.0
O38 O 0.30044 0.27373 0.53524 0.0
O39 O 0.2655 0.36407 0.61694 0.0
O40 O 0.14715 0.27422 0.58625 0.0
O41 O 0.28175 0.45836 0.53065 0.0
O42 O 0.15791 0.34162 0.49423 0.0
O43 O 0.13593 0.45226 0.56874 0.0
Sc44 Sc 0.4558 0.40336 0.79254 0.0
Sc45 Sc 0.35831 0.45163 0.846 0.0
Sc46 Sc 0.39599 0.53828 0.78374 0.0
O47 O 0.40326 0.46461 0.80674 0.0
C48 C 0.52941 0.51511 0.7792 0.0
C49 C 0.46845 0.37637 0.86003 0.0
C50 C 0.39209 0.57168 0.85824 0.0
C51 C 0.33902 0.34199 0.81007 0.0
C52 C 0.40623 0.44369 0.728 0.0
C53 C 0.27017 0.52185 0.80474 0.0
O54 O 0.52179 0.46152 0.77907 0.0
O55 O 0.41642 0.38762 0.86541 0.0
O56 O 0.38491 0.58485 0.82917 0.0
O57 O 0.3922 0.33895 0.80373 0.0
O58 O 0.40059 0.49575 0.73705 0.0
O59 O 0.28881 0.50763 0.83172 0.0
O60 O 0.42159 0.40424 0.7465 0.0
O61 O 0.31623 0.38471 0.82327 0.0
O62 O 0.30383 0.5283 0.78156 0.0
O63 O 0.49386 0.40138 0.83798 0.0
O64 O 0.4891 0.551 0.78403 0.0
O65 O 0.40179 0.52088 0.86703 0.0
Sc66 Sc 0.22289 0.64548 0.03293 0.0
Sc67 Sc 0.31104 0.60247 0.09349 0.0
Sc68 Sc 0.35856 0.70282 0.04159 0.0
O69 O 0.29727 0.65026 0.0553 0.0
C70 C 0.31543 0.65843 0.9764 0.0
C71 C 0.23623 0.51903 0.0519 0.0
C72 C 0.41813 0.5826 0.05551 0.0
C73 C 0.1926 0.63935 0.10785 0.0
C74 C 0.24696 0.77855 0.03127 0.0
C75 C 0.38917 0.70988 0.10869 0.0
O76 O 0.26384 0.65148 0.98584 0.0
O77 O 0.25217 0.53552 0.07899 0.0
O78 O 0.42209 0.6362 0.05001 0.0
O79 O 0.17808 0.63373 0.07884 0.0
O80 O 0.30055 0.77096 1.03092 0.0
O81 O 0.3777 0.65754 0.11301 0.0
O82 O 0.21111 0.73804 0.03473 0.0
O83 O 0.244 0.64645 0.11627 0.0
O84 O 0.36323 0.73725 0.08773 0.0
O85 O 0.23128 0.55388 1.02921 0.0
O86 O 0.35517 0.67306 0.99481 0.0
O87 O 0.37555 0.56011 0.06891 0.0
Sc88 Sc 0.95111 0.3958 0.77077 0.0
Sc89 Sc 0.85931 0.44886 0.71547 0.0
Sc90 Sc 0.89625 0.5321 0.77936 0.0
O91 O 0.90108 0.45854 0.75598 0.0
C92 C 0.90075 0.43563 0.83432 0.0
C93 C 0.83734 0.33417 0.7453 0.0
C94 C 0.77068 0.51939 0.75812 0.0
C95 C 0.97168 0.37461 0.70306 0.0
C96 C 0.0274 0.5054 0.78516 0.0
C97 C 0.8929 0.56969 0.70603 0.0
O98 O 0.91127 0.39531 0.81534 0.0
O99 O 0.81537 0.37891 0.73389 0.0
O100 O 0.80452 0.52445 0.78137 0.0
O101 O 0.9945 0.39642 0.72693 0.0
O102 O 0.98921 0.54208 0.7779 0.0
O103 O 0.90433 0.51956 0.69695 0.0
O104 O 0.01683 0.4524 0.78773 0.0
O105 O 0.92041 0.38703 0.69598 0.0
O106 O 0.88464 0.58137 0.7351 0.0
O107 O 0.88854 0.33195 0.75569 0.0
O108 O 0.90088 0.48827 0.82575 0.0
O109 O 0.78825 0.50311 0.73112 0.0
Sc110 Sc 0.86172 0.70311 0.52359 0.0
Sc111 Sc 0.8151 0.60272 0.47132 0.0
Sc112 Sc 0.72547 0.64648 0.53105 0.0
O113 O 0.80044 0.65089 0.50926 0.0
C114 C 0.81671 0.65873 0.58832 0.0
C115 C 0.92147 0.58292 0.51006 0.0
C116 C 0.73879 0.51971 0.51244 0.0
C117 C 0.89386 0.71026 0.45661 0.0
C118 C 0.75022 0.77943 0.53322 0.0
C119 C 0.69684 0.63954 0.45587 0.0
O120 O 0.85699 0.673 0.57022 0.0
O121 O 0.87905 0.56045 0.49646 0.0
O122 O 0.73313 0.55481 0.53498 0.0
O123 O 0.86811 0.73784 0.47759 0.0
O124 O 0.71424 0.73919 0.52914 0.0
O125 O 0.74847 0.64613 0.44776 0.0
O126 O 0.80374 0.77142 0.53409 0.0
O127 O 0.88212 0.65794 0.45221 0.0
O128 O 0.68168 0.63466 0.48481 0.0
O129 O 0.92539 0.63652 0.51552 0.0
O130 O 0.76528 0.65229 0.57849 0.0
O131 O 0.75596 0.53582 0.48552 0.0
Sc132 Sc 0.61655 0.47641 0.28009 0.0
Sc133 Sc 0.65827 0.56598 0.21989 0.0
Sc134 Sc 0.55918 0.61265 0.273 0.0
O135 O 0.6112 0.55138 0.25823 0.0
C136 C 0.48359 0.5009 0.28277 0.0
C137 C 0.62231 0.4472 0.20501 0.0
C138 C 0.54989 0.64448 0.20588 0.0
C139 C 0.74281 0.49053 0.26076 0.0
C140 C 0.60569 0.56775 0.3374 0.0
C141 C 0.67846 0.67253 0.25854 0.0
O142 O 0.52391 0.46496 0.27853 0.0
O143 O 0.61496 0.49875 0.19679 0.0
O144 O 0.52306 0.61926 0.22731 0.0
O145 O 0.70817 0.48455 0.28346 0.0
O146 O 0.59074 0.60808 0.31944 0.0
O147 O 0.70066 0.63039 0.24452 0.0
O148 O 0.6116 0.51622 0.32753 0.0
O149 O 0.72605 0.50743 0.23388 0.0
O150 O 0.6251 0.67639 0.26445 0.0
O151 O 0.62785 0.43234 0.23396 0.0
O152 O 0.4914 0.55448 0.28383 0.0
O153 O 0.60201 0.63256 0.201 0.0
Sc154 Sc 0.78341 0.36472 1.02895 0.0
Sc155 Sc 0.69277 0.40733 0.96947 0.0
Sc156 Sc 0.64664 0.30843 1.02267 0.0
O157 O 0.70797 0.3599 1.00758 0.0
C158 C 0.75805 0.23184 0.03222 0.0
C159 C 0.81042 0.36829 0.95362 0.0
C160 C 0.61315 0.29985 0.95566 0.0
C161 C 0.7697 0.49128 1.00956 0.0
C162 C 0.69334 0.35486 0.08677 0.0
C163 C 0.58754 0.4287 1.00888 0.0
O164 O 0.79412 0.27189 1.02783 0.0
O165 O 0.75847 0.36269 0.94586 0.0
O166 O 0.63812 0.27237 0.97699 0.0
O167 O 0.7762 0.45658 0.0322 0.0
O168 O 0.65271 0.33981 0.06907 0.0
O169 O 0.62961 0.45062 0.99474 0.0
O170 O 0.74456 0.36081 0.07659 0.0
O171 O 0.75252 0.47439 0.98277 0.0
O172 O 0.58335 0.37522 1.01459 0.0
O173 O 0.82636 0.37439 0.98237 0.0
O174 O 0.70455 0.24002 0.03319 0.0
O175 O 0.62532 0.352 0.95105 0.0
Sc176 Sc 0.61467 0.97047 0.7868 0.0
Sc177 Sc 0.66121 0.08505 0.83273 0.0
Sc178 Sc 0.55706 0.10545 0.77694 0.0
O179 O 0.6092 0.05233 0.80022 0.0
C180 C 0.59863 0.03315 0.72163 0.0
C181 C 0.74489 1.00413 0.7955 0.0
C182 C 0.67014 0.17152 0.77843 0.0
C183 C 0.63834 0.9591 0.85924 0.0
C184 C 0.47964 1.00205 0.78809 0.0
C185 C 0.55676 0.159 0.84613 0.0
O186 O 0.62731 0.99865 0.73843 0.0
O187 O 0.73388 0.0517 0.80846 0.0
O188 O 0.63028 0.15256 0.76114 0.0
O189 O 0.61163 0.93923 0.83536 0.0
O190 O 0.48656 0.05545 0.79196 0.0
O191 O 0.5921 0.12435 0.85841 0.0
O192 O 0.52075 0.96732 0.78237 0.0
O193 O 0.65797 0.00949 0.86044 0.0
O194 O 0.54662 0.16017 0.8169 0.0
O195 O 0.70712 0.96696 0.78922 0.0
O196 O 0.55707 0.06007 0.73316 0.0
O197 O 0.67184 0.16279 0.80771 0.0
Sc198 Sc 0.78497 0.86435 0.03613 0.0
Sc199 Sc 0.69232 0.90787 0.09439 0.0
Sc200 Sc 0.64749 0.8097 0.03991 0.0
O201 O 0.70861 0.86038 0.05639 0.0
C202 C 0.69748 0.85611 0.97718 0.0
C203 C 0.7702 0.99147 0.05454 0.0
C204 C 0.58734 0.92892 0.05426 0.0
C205 C 0.81041 0.87113 0.1113 0.0
C206 C 0.75869 0.73225 0.03161 0.0
C207 C 0.61323 0.79926 0.10689 0.0
O208 O 0.74811 0.85978 0.98843 0.0
O209 O 0.75127 0.97548 0.08112 0.0
O210 O 0.58358 0.87559 0.04819 0.0
O211 O 0.82668 0.87552 0.08261 0.0
O212 O 0.70556 0.74158 1.02897 0.0
O213 O 0.62556 0.8512 0.11225 0.0
O214 O 0.79485 0.77138 0.03795 0.0
O215 O 0.75843 0.86493 0.11886 0.0
O216 O 0.63786 0.7724 0.08517 0.0
O217 O 0.77814 0.95616 0.0323 0.0
O218 O 0.6549 0.84283 0.99386 0.0
O219 O 0.62903 0.95071 0.06881 0.0
Sc220 Sc 0.95137 0.9001 0.29287 0.0
Sc221 Sc 0.85109 0.94654 0.34533 0.0
Sc222 Sc 0.89406 0.03631 0.28544 0.0
O223 O 0.89891 0.9613 0.3073 0.0
C224 C 0.02696 0.01191 0.28283 0.0
C225 C 0.95983 0.86885 0.35991 0.0
C226 C 0.88487 0.06558 0.3604 0.0
C227 C 0.83237 0.83947 0.307 0.0
C228 C 0.90533 0.94456 0.22848 0.0
C229 C 0.7672 0.02176 0.3037 0.0
O230 O 0.01899 0.95836 0.28177 0.0
O231 O 0.90757 0.88046 0.36461 0.0
O232 O 0.88114 0.08051 0.33138 0.0
O233 O 0.88585 0.83584 0.30141 0.0
O234 O 0.89982 0.99619 0.23824 0.0
O235 O 0.7831 1.00428 0.33063 0.0
O236 O 0.91996 0.90417 0.24647 0.0
O237 O 0.80969 0.88175 0.32062 0.0
O238 O 0.80253 0.0282 0.28137 0.0
O239 O 0.98681 0.89461 0.33874 0.0
O240 O 0.98675 0.04788 0.28738 0.0
O241 O 0.89332 0.01419 0.36857 0.0
Sc242 Sc 0.72216 0.14667 0.5365 0.0
Sc243 Sc 0.81621 0.10393 0.59418 0.0
Sc244 Sc 0.85931 0.20254 0.54023 0.0
O245 O 0.79919 0.15068 0.55613 0.0
C246 C 0.80872 0.15858 0.47703 0.0
C247 C 0.73798 0.0201 0.55464 0.0
C248 C 0.91994 0.08246 0.55374 0.0
C249 C 0.69999 0.13718 0.61196 0.0
C250 C 0.7473 0.27915 0.5334 0.0
C251 C 0.89581 0.21154 0.60655 0.0
O252 O 0.75816 0.15295 0.48826 0.0
O253 O 0.7562 0.0367 0.58131 0.0
O254 O 0.92325 0.13582 0.54743 0.0
O255 O 0.68164 0.13309 0.58355 0.0
O256 O 0.80052 0.27056 0.53057 0.0
O257 O 0.88427 0.15942 0.6116 0.0
O258 O 0.7115 0.23941 0.53916 0.0
O259 O 0.75145 0.14998 0.61763 0.0
O260 O 0.86913 0.23858 0.58573 0.0
O261 O 0.73018 0.05505 0.53221 0.0
O262 O 0.85106 0.17162 0.49396 0.0
O263 O 0.87869 0.06048 0.56858 0.0
Sc264 Sc 0.45128 0.90065 0.27123 0.0
Sc265 Sc 0.35115 0.94751 0.21884 0.0
Sc266 Sc 0.39403 0.03683 0.27899 0.0
O267 O 0.39891 0.96198 0.25697 0.0
C268 C 0.40579 0.94499 0.33586 0.0
C269 C 0.33165 0.84084 0.25731 0.0
C270 C 0.26728 0.02275 0.26022 0.0
C271 C 0.45921 0.86902 0.2043 0.0
C272 C 0.52701 0.01225 0.2814 0.0
C273 C 0.38745 0.06624 0.20401 0.0
O274 O 0.42058 0.90479 0.31776 0.0
O275 O 0.30915 0.88318 0.24364 0.0
O276 O 0.30243 0.02875 0.2827 0.0
O277 O 0.48637 0.89505 0.22531 0.0
O278 O 0.4867 0.04828 0.27736 0.0
O279 O 0.39434 0.01466 0.19568 0.0
O280 O 0.51918 0.95867 0.28209 0.0
O281 O 0.40694 0.88067 0.19971 0.0
O282 O 0.3823 0.08108 0.23298 0.0
O283 O 0.38517 0.83687 0.2628 0.0
O284 O 0.39956 0.99657 0.32618 0.0
O285 O 0.28357 1.00613 0.23319 0.0
Sc286 Sc 0.35822 0.20248 1.02123 0.0
Sc287 Sc 0.31101 0.10248 0.9688 0.0
Sc288 Sc 0.2223 0.14548 1.02918 0.0
O289 O 0.29687 0.15022 1.00701 0.0
C290 C 0.31431 0.15715 0.086 0.0
C291 C 0.41812 0.08267 1.00707 0.0
C292 C 0.23592 0.0189 1.01016 0.0
C293 C 0.38907 0.21042 0.95405 0.0
C294 C 0.2467 0.27842 0.03132 0.0
C295 C 0.1921 0.13932 0.95428 0.0
O296 O 0.35438 0.17187 0.06786 0.0
O297 O 0.3757 0.06026 0.99345 0.0
O298 O 0.2304 0.05388 0.03277 0.0
O299 O 0.3635 0.23755 0.97527 0.0
O300 O 0.21077 0.23808 1.02749 0.0
O301 O 0.24356 0.14569 0.94575 0.0
O302 O 0.30024 0.27061 0.032 0.0
O303 O 0.37745 0.15814 0.94945 0.0
O304 O 0.17763 0.13416 0.98329 0.0
O305 O 0.42195 0.13621 1.01272 0.0
O306 O 0.2628 0.1509 0.07632 0.0
O307 O 0.25248 0.0352 0.98316 0.0
Sc308 Sc 0.11341 0.98057 0.77852 0.0
Sc309 Sc 0.16751 0.06934 0.7208 0.0
Sc310 Sc 0.06482 0.1193 0.77025 0.0
O311 O 0.11522 0.05604 0.75714 0.0
C312 C 0.98282 0.01172 0.77528 0.0
C313 C 0.12714 0.953 0.70363 0.0
C314 C 0.06432 0.1519 0.70339 0.0
C315 C 0.24175 0.98961 0.76449 0.0
C316 C 0.10058 0.07136 0.83584 0.0
C317 C 0.18774 0.17374 0.76092 0.0
O318 O 0.02121 0.97332 0.77292 0.0
O319 O 0.12374 1.00507 0.69559 0.0
O320 O 0.03471 0.12627 0.72344 0.0
O321 O 0.20399 0.98542 0.78568 0.0
O322 O 0.09053 0.11288 0.81766 0.0
O323 O 0.20995 0.13072 0.74772 0.0
O324 O 0.10426 0.01971 0.82586 0.0
O325 O 0.22976 0.0065 0.73687 0.0
O326 O 0.13395 0.18014 0.76428 0.0
O327 O 0.12831 0.93716 0.73256 0.0
O328 O 0.99397 0.06447 0.7778 0.0
O329 O 0.11683 0.13947 0.70048 0.0
Sc330 Sc 0.288 0.86644 0.52899 0.0
Sc331 Sc 0.197 0.90829 0.46951 0.0
Sc332 Sc 0.15153 0.80964 0.52317 0.0
O333 O 0.21246 0.86138 0.5078 0.0
C334 C 0.26338 0.7337 0.53249 0.0
C335 C 0.31539 0.87188 0.45393 0.0
C336 C 0.1184 0.79976 0.45626 0.0
C337 C 0.27351 0.99287 0.50977 0.0
C338 C 0.19845 0.85607 0.58694 0.0
C339 C 0.09092 0.92887 0.50843 0.0
O340 O 0.29921 0.77369 0.52742 0.0
O341 O 0.26371 0.86468 0.44605 0.0
O342 O 0.14395 0.77297 0.47764 0.0
O343 O 0.2802 0.95818 0.53241 0.0
O344 O 0.15726 0.84172 0.56946 0.0
O345 O 0.13297 0.951 0.49438 0.0
O346 O 0.24951 0.86165 0.5765 0.0
O347 O 0.25565 0.97616 0.48306 0.0
O348 O 0.08748 0.87554 0.51465 0.0
O349 O 0.3309 0.87753 0.48272 0.0
O350 O 0.20994 0.74188 0.5341 0.0
O351 O 0.1303 0.85184 0.45115 0.0
C352 C 0.34302 0.48359 0.32318 0.0
C353 C 0.30503 0.48133 0.29764 0.0
H354 H 0.42994 0.49007 0.33828 0.0
C355 C 0.32783 0.47531 0.26726 0.0
H356 H 0.3273 0.48793 0.34693 0.0
C357 C 0.38703 0.4759 0.26245 0.0
C358 C 0.42448 0.48175 0.28792 0.0
H359 H 0.30003 0.47357 0.24702 0.0
H360 H 0.40336 0.47564 0.23871 0.0
C361 C 0.40197 0.48411 0.31833 0.0
C362 C 0.29187 0.63715 0.51316 0.0
C363 C 0.28263 0.67472 0.53828 0.0
H364 H 0.2975 0.54996 0.49814 0.0
C365 C 0.27773 0.65241 0.56866 0.0
H366 H 0.29425 0.65331 0.48941 0.0
C367 C 0.27914 0.59351 0.57374 0.0
C368 C 0.28469 0.55529 0.54845 0.0
H369 H 0.2693 0.68049 0.5883 0.0
H370 H 0.27283 0.57794 0.59738 0.0
C371 C 0.29316 0.57795 0.51819 0.0
C372 C 0.17017 0.51269 0.82526 0.0
C373 C 0.20704 0.52761 0.80053 0.0
H374 H 0.0846 0.49464 0.83965 0.0
C375 C 0.18254 0.54319 0.77156 0.0
H376 H 0.18693 0.50044 0.84793 0.0
C377 C 0.12308 0.541 0.76712 0.0
C378 C 0.08705 0.52282 0.79146 0.0
H379 H 0.20937 0.55485 0.75195 0.0
H380 H 0.10566 0.55004 0.74413 0.0
C381 C 0.11124 0.50973 0.82066 0.0
C382 C 0.22871 0.35972 0.06703 0.0
C383 C 0.22749 0.33753 0.03651 0.0
H384 H 0.2315 0.43422 0.09591 0.0
C385 C 0.22257 0.37524 1.01111 0.0
H386 H 0.23393 0.33148 0.08693 0.0
C387 C 0.22174 0.43441 1.01611 0.0
C388 C 0.22667 0.45691 0.04663 0.0
H389 H 0.22317 0.3591 0.98731 0.0
H390 H 0.22072 0.46243 0.99595 0.0
C391 C 0.22801 0.41868 0.07208 0.0
C392 C 0.61092 0.52512 0.74259 0.0
C393 C 0.58852 0.5337 0.77275 0.0
H394 H 0.68531 0.51469 0.71416 0.0
C395 C 0.62647 0.5436 0.79762 0.0
H396 H 0.58269 0.51574 0.72316 0.0
C397 C 0.68569 0.54208 0.79266 0.0
C398 C 0.70829 0.53006 0.76272 0.0
H399 H 0.61046 0.54846 0.82129 0.0
H400 H 0.71365 0.54724 0.81265 0.0
C401 C 0.66991 0.52374 0.73756 0.0
C402 C 0.72193 0.37616 0.55326 0.0
C403 C 0.72826 0.33829 0.52799 0.0
H404 H 0.71972 0.46352 0.56826 0.0
C405 C 0.73128 0.36037 0.49749 0.0
H406 H 0.72112 0.36014 0.57707 0.0
C407 C 0.73109 0.41927 0.49236 0.0
C408 C 0.72855 0.45766 0.51771 0.0
H409 H 0.73752 0.33204 0.47771 0.0
H410 H 0.73596 0.43461 0.46857 0.0
C411 C 0.72173 0.43536 0.54816 0.0
C412 C 0.84316 0.48443 0.2404 0.0
C413 C 0.80504 0.48103 0.26581 0.0
H414 H 0.93012 0.49192 0.2256 0.0
C415 C 0.82771 0.47403 0.29618 0.0
H416 H 0.82755 0.48955 0.21667 0.0
C417 C 0.88687 0.47474 0.30115 0.0
C418 C 0.92443 0.48172 0.27585 0.0
H419 H 0.79981 0.47139 0.31633 0.0
H420 H 0.90307 0.47368 0.32492 0.0
C421 C 0.90207 0.48509 0.24541 0.0
C422 C 0.77077 0.59216 0.98967 0.0
C423 C 0.7787 0.55368 1.01462 0.0
H424 H 0.7594 0.67921 0.97569 0.0
C425 C 0.78972 0.5761 0.04472 0.0
H426 H 0.76244 0.57685 0.96616 0.0
C427 C 0.78881 0.63531 0.05 0.0
C428 C 0.77716 0.6731 1.02529 0.0
H429 H 0.79597 0.54792 0.06452 0.0
H430 H 0.79335 0.65125 0.07371 0.0
C431 C 0.76958 0.65099 0.99501 0.0
C432 C 0.82692 0.03479 0.76411 0.0
C433 C 0.80363 0.99512 0.78491 0.0
H434 H 0.90233 0.06905 0.74383 0.0
C435 C 0.83891 0.95336 0.79845 0.0
H436 H 0.80033 0.0672 0.75339 0.0
C437 C 0.89802 0.95461 0.79319 0.0
C438 C 0.92167 0.9976 0.77434 0.0
H439 H 0.82145 0.92265 0.81477 0.0
H440 H 0.92532 0.92516 0.80571 0.0
C441 C 0.88522 0.03572 0.75868 0.0
C442 C 0.77409 0.09242 0.07425 0.0
C443 C 0.77932 0.05368 0.04917 0.0
H444 H 0.76459 0.17972 0.08831 0.0
C445 C 0.78738 0.0757 1.01875 0.0
H446 H 0.76811 0.07733 0.09801 0.0
C447 C 0.78596 0.13479 1.01334 0.0
C448 C 0.77713 0.17289 0.03827 0.0
H449 H 0.79139 0.04728 0.99885 0.0
H450 H 0.78799 0.15046 0.98948 0.0
C451 C 0.77268 0.15123 0.06881 0.0
C452 C 0.60758 0.02843 0.31782 0.0
C453 C 0.58599 0.03129 0.2872 0.0
H454 H 0.68137 0.02405 0.34714 0.0
C455 C 0.62424 0.03745 0.26214 0.0
H456 H 0.57899 0.0222 0.33745 0.0
C457 C 0.68328 0.03794 0.26756 0.0
C458 C 0.70515 0.03145 0.29813 0.0
H459 H 0.60865 0.03807 0.23824 0.0
H460 H 0.71169 0.03999 0.24761 0.0
C461 C 0.66637 0.02879 0.32327 0.0
C462 C 0.722 0.87614 0.51403 0.0
C463 C 0.73108 0.83842 0.53909 0.0
H464 H 0.71639 0.96343 0.49921 0.0
C465 C 0.73589 0.86054 0.56952 0.0
H466 H 0.71971 0.86011 0.49024 0.0
C467 C 0.73457 0.91943 0.57473 0.0
C468 C 0.72904 0.95778 0.54952 0.0
H469 H 0.74423 0.83234 0.58911 0.0
H470 H 0.74084 0.93487 0.59841 0.0
C471 C 0.72065 0.93532 0.5192 0.0
C472 C 0.10743 0.02707 0.24621 0.0
C473 C 0.0859 0.03098 0.27681 0.0
H474 H 0.18113 0.02236 0.21686 0.0
C475 C 0.12421 0.03851 0.30175 0.0
H476 H 0.07883 0.01981 0.22667 0.0
C477 C 0.18324 0.03933 0.29627 0.0
C478 C 0.20509 0.03192 0.26575 0.0
H479 H 0.10872 0.03998 0.32565 0.0
H480 H 0.21171 0.04247 0.31617 0.0
C481 C 0.16621 0.02786 0.24069 0.0
C482 C 0.22122 0.93456 0.04605 0.0
C483 C 0.22645 0.9568 1.0155 0.0
H484 H 0.22261 0.85953 0.07502 0.0
C485 C 0.22825 0.91836 0.99014 0.0
H486 H 0.21985 0.96275 0.06614 0.0
C487 C 0.22909 0.85945 0.99532 0.0
C488 C 0.22761 0.83754 1.02588 0.0
H489 H 0.23198 0.93371 0.96629 0.0
H490 H 0.23466 0.83106 0.9755 0.0
C491 C 0.22223 0.87545 0.05118 0.0
C492 C 0.40016 0.96357 0.75605 0.0
C493 C 0.42018 0.98296 0.78517 0.0
H494 H 0.32733 0.95115 0.72642 0.0
C495 C 0.3808 0.997 0.80868 0.0
H496 H 0.4298 0.95375 0.73735 0.0
C497 C 0.3223 0.99454 0.80268 0.0
C498 C 0.30225 0.97991 0.77269 0.0
H499 H 0.39537 0.01308 0.83111 0.0
H500 H 0.29302 0.00834 0.82078 0.0
C501 C 0.34163 0.96272 0.74972 0.0
C502 C 0.29172 0.13699 0.54995 0.0
C503 C 0.2832 0.17462 0.5248 0.0
H504 H 0.29592 0.04977 0.56503 0.0
C505 C 0.27805 0.15228 0.49443 0.0
H506 H 0.2942 0.15318 0.5737 0.0
C507 C 0.27846 0.09333 0.48938 0.0
C508 C 0.28331 0.05512 0.51471 0.0
H509 H 0.27009 0.18042 0.47476 0.0
H510 H 0.27197 0.07776 0.46574 0.0
C511 C 0.2921 0.07775 0.54495 0.0
C512 C 0.19697 0.75985 0.27373 0.0
C513 C 0.21676 0.71749 0.29411 0.0
H514 H 0.21819 0.83132 0.24544 0.0
C515 C 0.27505 0.71498 0.3017 0.0
H516 H 0.15246 0.76241 0.26718 0.0
C517 C 0.31293 0.75406 0.28902 0.0
C518 C 0.29312 0.7964 0.26864 0.0
H519 H 0.29169 0.68257 0.31731 0.0
H520 H 0.35744 0.75153 0.29557 0.0
C521 C 0.23484 0.79892 0.26105 0.0
C522 C 1.00298 0.44804 0.52642 0.0
C523 C 0.04852 0.46873 0.54426 0.0
H524 H 0.92757 0.46811 0.50115 0.0
C525 C 0.05274 0.5276 0.55029 0.0
H526 H 0.99884 0.40303 0.5212 0.0
C527 C 0.01214 0.56511 0.53862 0.0
C528 C 0.9666 0.5444 0.52078 0.0
H529 H 0.08762 0.54498 0.56388 0.0
H530 H 0.01624 0.61012 0.54384 0.0
C531 C 0.96241 0.48553 0.51475 0.0
C532 C 0.32242 0.25155 0.7813 0.0
C533 C 0.30121 0.29634 0.79961 0.0
H534 H 0.30286 0.1781 0.75414 0.0
C535 C 0.24238 0.30031 0.80538 0.0
H536 H 0.36749 0.24759 0.77635 0.0
C537 C 0.20522 0.26093 0.7924 0.0
C538 C 0.22632 0.21681 0.77358 0.0
H539 H 0.22469 0.33448 0.81944 0.0
H540 H 0.16011 0.26506 0.79719 0.0
C541 C 0.28526 0.21209 0.76836 0.0
C542 C 0.49925 0.44755 0.03925 0.0
C543 C 0.54329 0.46767 1.02015 0.0
H544 H 0.42578 0.46839 0.06599 0.0
C545 C 0.54702 0.52633 1.01351 0.0
H546 H 0.49564 0.40273 0.04504 0.0
C547 C 0.50726 0.56419 1.02571 0.0
C548 C 0.46307 0.544 0.04469 0.0
H549 H 0.58078 0.54326 0.99896 0.0
H550 H 0.51077 0.60899 1.0199 0.0
C551 C 0.45954 0.48538 0.05146 0.0
C552 C 0.74786 0.28276 0.73216 0.0
C553 C 0.79975 0.28481 0.74877 0.0
H554 H 0.66528 0.24442 0.72852 0.0
C555 C 0.81147 0.24353 0.77152 0.0
H556 H 0.7383 0.31357 0.71399 0.0
C557 C 0.76967 0.20459 0.77981 0.0
C558 C 0.71589 0.20614 0.76531 0.0
H559 H 0.85125 0.2437 0.78439 0.0
H560 H 0.77859 0.1748 0.79861 0.0
C561 C 0.70613 0.24334 0.74032 0.0
C562 C 0.81321 0.75389 0.27435 0.0
C563 C 0.79397 0.7949 0.29572 0.0
H564 H 0.79121 0.6838 0.24511 0.0
C565 C 0.73609 0.79632 0.30421 0.0
H566 H 0.85738 0.75229 0.2671 0.0
C567 C 0.698 0.75763 0.29139 0.0
C568 C 0.71718 0.71669 0.26997 0.0
H569 H 0.71993 0.82763 0.32064 0.0
H570 H 0.65383 0.75931 0.29865 0.0
C571 C 0.77509 0.71514 0.26154 0.0
C572 C 0.5468 0.02655 0.04945 0.0
C573 C 0.54312 0.96786 0.04286 0.0
H574 H 0.51059 0.10918 0.0429 0.0
C575 C 0.49914 0.94765 1.0237 0.0
H576 H 0.58051 0.04355 0.06405 0.0
C577 C 0.45948 0.98542 1.01136 0.0
C578 C 0.46299 0.04408 1.01806 0.0
H579 H 0.49552 0.9028 1.01797 0.0
H580 H 0.42577 0.96836 0.99678 0.0
C581 C 0.50709 0.06434 0.03712 0.0
C582 C 1.00097 0.94723 0.53745 0.0
C583 C 0.04581 0.96753 0.51899 0.0
H584 H 0.92646 0.96785 0.56336 0.0
C585 C 0.04945 0.02618 0.51228 0.0
H586 H 0.99727 0.90239 0.54317 0.0
C587 C 0.00916 0.06391 0.52404 0.0
C588 C 0.96448 0.04364 0.54263 0.0
H589 H 0.08373 0.04326 0.49815 0.0
H590 H 0.01292 0.10876 0.51838 0.0
C591 C 0.96069 0.98495 0.54921 0.0
C592 C 0.20249 0.40925 0.39165 0.0
C593 C 0.1441 0.40929 0.38388 0.0
H594 H 0.26607 0.39298 0.42693 0.0
C595 C 0.10532 0.38639 0.40522 0.0
H596 H 0.2332 0.42814 0.37585 0.0
C597 C 0.12403 0.36607 0.43428 0.0
C598 C 0.18202 0.36954 0.44324 0.0
H599 H 0.0601 0.38731 0.40021 0.0
H600 H 0.09205 0.35049 0.45041 0.0
C601 C 0.22132 0.38971 0.42107 0.0
C602 C 0.38309 0.46491 0.67081 0.0
C603 C 0.39208 0.42565 0.69523 0.0
H604 H 0.35487 0.47744 0.62331 0.0
C605 C 0.38528 0.367 0.68852 0.0
H606 H 0.38804 0.51018 0.67496 0.0
C607 C 0.3664 0.34846 0.65914 0.0
C608 C 0.35521 0.38769 0.63524 0.0
H609 H 0.39161 0.33508 0.70653 0.0
H610 H 0.35733 0.30361 0.65569 0.0
C611 C 0.36511 0.44603 0.64106 0.0
C612 C 0.31335 0.61302 0.89015 0.0
C613 C 0.37209 0.61006 0.88343 0.0
H614 H 0.24873 0.62978 0.9248 0.0
C615 C 0.41076 0.62852 0.90616 0.0
H616 H 0.28259 0.59737 0.8733 0.0
C617 C 0.39154 0.64718 0.93544 0.0
C618 C 0.33297 0.6464 0.94327 0.0
H619 H 0.45615 0.62509 0.90202 0.0
H620 H 0.42341 0.65911 0.95258 0.0
C621 C 0.29392 0.63078 0.91983 0.0
C622 C 0.13608 0.66073 0.15553 0.0
C623 C 0.15408 0.62094 0.13325 0.0
H624 H 0.10537 0.67541 0.20175 0.0
C625 C 0.1503 0.56243 0.14055 0.0
H626 H 0.14021 0.70597 0.15093 0.0
C627 C 0.13199 0.54427 0.17033 0.0
C628 C 0.11673 0.58439 0.19332 0.0
H629 H 0.16565 0.53083 0.12406 0.0
H630 H 0.13227 0.49917 0.17574 0.0
C631 C 0.11693 0.64278 0.18494 0.0
C632 C 0.89173 0.64911 0.63004 0.0
C633 C 0.83351 0.64636 0.62153 0.0
H634 H 0.95609 0.6278 0.66379 0.0
C635 C 0.79435 0.62802 0.64429 0.0
H636 H 0.92365 0.6633 0.61349 0.0
C637 C 0.81353 0.60938 0.67385 0.0
C638 C 0.87213 0.60829 0.68113 0.0
H639 H 0.74942 0.62544 0.63879 0.0
H640 H 0.78287 0.59169 0.69009 0.0
C641 C 0.91074 0.62959 0.65919 0.0
C642 C 0.62082 0.6429 0.37865 0.0
C643 C 0.61954 0.58441 0.37047 0.0
H644 H 0.64544 0.70621 0.41238 0.0
C645 C 0.63485 0.54439 0.39351 0.0
H646 H 0.60938 0.67547 0.3618 0.0
C647 C 0.65395 0.56269 0.42315 0.0
C648 C 0.65849 0.62124 0.43029 0.0
H649 H 0.6344 0.49923 0.38825 0.0
H650 H 0.66911 0.53111 0.43969 0.0
C651 C 0.64073 0.66098 0.40792 0.0
C652 C 0.71746 0.3864 0.14234 0.0
C653 C 0.67733 0.36886 0.11989 0.0
H654 H 0.73096 0.42287 0.18798 0.0
C655 C 0.61917 0.3683 0.12864 0.0
H656 H 0.76236 0.3874 0.13663 0.0
C657 C 0.60134 0.38872 0.15785 0.0
C658 C 0.64109 0.4088 0.17956 0.0
H659 H 0.58654 0.35499 0.11227 0.0
H660 H 0.55618 0.39192 0.16273 0.0
C661 C 0.69946 0.40601 0.17191 0.0
C662 C 0.87667 0.36033 0.87401 0.0
C663 C 0.88633 0.41849 0.86718 0.0
H664 H 0.84624 0.29871 0.90711 0.0
C665 C 0.88008 0.45831 0.89161 0.0
H666 H 0.88102 0.328 0.85604 0.0
C667 C 0.86171 0.4406 0.92148 0.0
C668 C 0.84885 0.38293 0.92742 0.0
H669 H 0.88733 0.50323 0.88738 0.0
H670 H 0.85343 0.47261 0.93923 0.0
C671 C 0.85753 0.34301 0.90353 0.0
C672 C 0.71061 0.9274 0.89794 0.0
C673 C 0.65484 0.92231 0.88595 0.0
H674 H 0.76823 0.9101 0.93567 0.0
C675 C 0.61556 0.88853 0.9021 0.0
H676 H 0.74207 0.95279 0.8857 0.0
C677 C 0.63066 0.86409 0.931 0.0
C678 C 0.68543 0.87268 0.94411 0.0
H679 H 0.57244 0.88397 0.89346 0.0
H680 H 0.59846 0.8406 0.94373 0.0
C681 C 0.72581 0.90277 0.92656 0.0
C682 C 0.87029 0.85117 0.15816 0.0
C683 C 0.84809 0.8905 0.13685 0.0
H684 H 0.90707 0.83739 0.20314 0.0
C685 C 0.84998 0.94901 0.14434 0.0
H686 H 0.86806 0.80589 0.15328 0.0
C687 C 0.87093 0.9676 0.17347 0.0
C688 C 0.89067 0.92792 0.19561 0.0
H689 H 0.83174 0.98013 0.12849 0.0
H690 H 0.86919 0.01257 0.17914 0.0
C691 C 0.89203 0.86963 0.18696 0.0
C692 C 0.78593 0.11211 0.42501 0.0
C693 C 0.82202 0.14579 0.44351 0.0
H694 H 0.77791 0.06117 0.38357 0.0
C695 C 0.87579 0.1612 0.43111 0.0
H696 H 0.74459 0.09921 0.43369 0.0
C697 C 0.89494 0.13935 0.40239 0.0
C698 C 0.86044 0.10235 0.38515 0.0
H699 H 0.90476 0.18763 0.44448 0.0
H700 H 0.93795 0.14841 0.39473 0.0
C701 C 0.8051 0.09048 0.3962 0.0
C702 C 0.61204 0.11391 0.64422 0.0
C703 C 0.67006 0.10641 0.63763 0.0
H704 H 0.54344 0.09628 0.6761 0.0
C705 C 0.70182 0.06867 0.65655 0.0
H706 H 0.58639 0.14214 0.62992 0.0
C707 C 0.67732 0.04142 0.68232 0.0
C708 C 0.62033 0.05164 0.69036 0.0
H709 H 0.74645 0.06084 0.65173 0.0
H710 H 0.7041 0.01475 0.69691 0.0
C711 C 0.58755 0.0873 0.67058 0.0
C712 C 0.29148 0.12753 0.14198 0.0
C713 C 0.3312 0.14381 0.11905 0.0
H714 H 0.27877 0.0924 0.18796 0.0
C715 C 0.38961 0.14365 0.12728 0.0
H716 H 0.24639 0.12713 0.13667 0.0
C717 C 0.40799 0.12365 0.15646 0.0
C718 C 0.36858 0.10475 0.17865 0.0
H719 H 0.42192 0.15598 0.11051 0.0
H720 H 0.45324 0.11974 0.16096 0.0
C721 C 0.31005 0.10838 0.17152 0.0
C722 C 0.13257 0.16173 0.90774 0.0
C723 C 0.1529 0.12139 0.92907 0.0
H724 H 0.09865 0.17761 0.8623 0.0
C725 C 0.1496 0.06312 0.92114 0.0
H726 H 0.13604 0.20684 0.9129 0.0
C727 C 0.12972 0.0458 0.89152 0.0
C728 C 0.11249 0.08655 0.86931 0.0
H729 H 0.16654 0.03118 0.93694 0.0
H730 H 0.13082 1.00097 0.88547 0.0
C731 C 0.11187 0.14457 0.87847 0.0
C732 C 0.10903 0.88571 0.65949 0.0
C733 C 0.14766 0.91434 0.67877 0.0
H734 H 0.09509 0.84355 0.61587 0.0
C735 C 0.20513 0.91774 0.66947 0.0
H736 H 0.0644 0.88364 0.66578 0.0
C737 C 0.22301 0.89594 0.64045 0.0
C738 C 0.18361 0.87037 0.62009 0.0
H739 H 0.23554 0.94081 0.68372 0.0
H740 H 0.26681 0.90205 0.63328 0.0
C741 C 0.12688 0.86343 0.63065 0.0
C742 C 0.39201 0.8696 0.37698 0.0
C743 C 0.39229 0.92811 0.36885 0.0
H744 H 0.36809 0.8059 0.41058 0.0
C745 C 0.37601 0.9679 0.39179 0.0
H746 H 0.40434 0.83723 0.36018 0.0
C747 C 0.35683 0.94931 0.42129 0.0
C748 C 0.35316 0.8907 0.42832 0.0
H749 H 0.3757 0.01306 0.38653 0.0
H750 H 0.34099 0.98064 0.43779 0.0
C751 C 0.37197 0.8512 0.40611 0.0
C752 C 0.96843 0.70954 0.36956 0.0
C753 C 0.0276 0.70049 0.36843 0.0
H754 H 0.90036 0.77035 0.36908 0.0
C755 C 0.06403 0.74793 0.37001 0.0
H756 H 0.93935 0.67384 0.36805 0.0
C757 C 0.04172 0.80329 0.37007 0.0
C758 C 0.98255 0.81241 0.36922 0.0
H759 H 0.10978 0.74254 0.36864 0.0
H760 H 0.07081 0.83904 0.36895 0.0
C761 C 0.94612 0.7649 0.37027 0.0
C762 C 0.05488 0.21953 0.61673 0.0
C763 C 0.06408 0.27871 0.61585 0.0
H764 H 0.99402 0.15169 0.61571 0.0
C765 C 0.01677 0.31547 0.6166 0.0
H766 H 0.09053 0.19023 0.61574 0.0
C767 C 0.96146 0.29344 0.61606 0.0
C768 C 0.95228 0.23423 0.61542 0.0
H769 H 0.02236 0.36124 0.61531 0.0
H770 H 0.92586 0.32273 0.61459 0.0
C771 C 0.99956 0.19748 0.61681 0.0
C772 C 0.45439 0.27227 0.8685 0.0
C773 C 0.491 0.31971 0.86885 0.0
H774 H 0.44745 0.182 0.86164 0.0
C775 C 0.55011 0.31044 0.86973 0.0
H776 H 0.40866 0.27793 0.86728 0.0
C777 C 0.57218 0.25513 0.8675 0.0
C778 C 0.5355 0.20843 0.86366 0.0
H779 H 0.57925 0.34621 0.86965 0.0
H780 H 0.6178 0.24962 0.86519 0.0
C781 C 0.4765 0.21716 0.86549 0.0
C782 C 0.5102 0.81343 0.11867 0.0
C783 C 0.55743 0.77668 0.11703 0.0
H784 H 0.41926 0.82075 0.11776 0.0
C785 C 0.54828 0.71749 0.11816 0.0
H786 H 0.51572 0.8592 0.11728 0.0
C787 C 0.49294 0.69547 0.11897 0.0
C788 C 0.44563 0.73223 0.11796 0.0
H789 H 0.58386 0.6882 0.11658 0.0
H790 H 0.48735 0.64968 0.11778 0.0
C791 C 0.45488 0.79142 0.11882 0.0
C792 C 0.07836 0.25594 0.69269 0.0
C793 C 0.04235 0.2081 0.69317 0.0
H794 H 0.0838 0.34719 0.69503 0.0
C795 C 0.98316 0.21663 0.69112 0.0
H796 H 0.12403 0.25089 0.69489 0.0
C797 C 0.96025 0.27163 0.69066 0.0
C798 C 0.99597 0.31946 0.6928 0.0
H799 H 0.95432 0.18062 0.69176 0.0
H800 H 0.91438 0.27645 0.69121 0.0
C801 C 0.05532 0.31111 0.69285 0.0
C802 C 0.99745 0.69594 0.44563 0.0
C803 C 0.95015 0.73268 0.44703 0.0
H804 H 0.08844 0.68867 0.44711 0.0
C805 C 0.95941 0.79187 0.4461 0.0
H806 H 0.99189 0.65016 0.44686 0.0
C807 C 0.01475 0.8139 0.44571 0.0
C808 C 0.06206 0.77717 0.44687 0.0
H809 H 0.92383 0.82121 0.44747 0.0
H810 H 0.02031 0.85968 0.447 0.0
C811 C 0.05282 0.71798 0.44588 0.0
C812 C 0.56328 0.74792 0.19401 0.0
C813 C 0.52691 0.70047 0.19593 0.0
H814 H 0.57004 0.83905 0.19479 0.0
C815 C 0.46771 0.70952 0.19523 0.0
H816 H 0.60906 0.74254 0.19506 0.0
C817 C 0.44536 0.76487 0.19456 0.0
C818 C 0.48179 0.81239 0.19519 0.0
H819 H 0.43866 0.67383 0.19702 0.0
H820 H 0.39963 0.77032 0.19604 0.0
C821 C 0.54094 0.80328 0.19398 0.0
C822 C 0.45445 0.29246 0.94458 0.0
C823 C 0.44521 0.23324 0.94444 0.0
H824 H 0.51528 0.36017 0.9471 0.0
C825 C 0.49253 0.19662 0.94233 0.0
H826 H 0.41888 0.32171 0.94645 0.0
C827 C 0.54791 0.21865 0.94324 0.0
C828 C 0.55706 0.27773 0.94555 0.0
H829 H 0.48698 0.15079 0.9427 0.0
H830 H 0.58355 0.18934 0.94403 0.0
C831 C 0.50977 0.3145 0.94488 0.0
loop_
_geom_bond_atom_site_label_1
_geom_bond_atom_site_label_2
_geom_bond_distance
_geom_bond_site_symmetry_2
_ccdc_geom_bond_type
Sc0 O3 2.025 . S
Sc0 O10 2.105 . S
Sc0 O13 2.105 . S
Sc0 O16 2.105 . S
Sc0 O19 2.105 . S
Sc1 O3 2.025 . S
Sc1 O11 2.105 . S
Sc1 O15 2.105 . S
Sc1 O17 2.105 . S
Sc1 O21 2.105 . S
Sc2 O3 2.025 . S
Sc2 O12 2.105 . S
Sc2 O14 2.105 . S
Sc2 O18 2.105 . S
Sc2 O20 2.105 . S
O3 Sc0 2.025 . S
O3 Sc1 2.025 . S
O3 Sc2 2.025 . S
C4 O10 1.268 . S
C4 O20 1.268 . S
C5 O11 1.268 . S
C5 O19 1.268 . S
C6 O12 1.268 . S
C6 O21 1.268 . S
C7 O13 1.268 . S
C7 O17 1.268 . S
C8 O14 1.268 . S
C8 O16 1.268 . S
C9 O15 1.268 . S
C9 O18 1.268 . S
O10 Sc0 2.105 . S
O10 C4 1.268 . S
O11 Sc1 2.105 . S
O11 C5 1.268 . S
O12 Sc2 2.105 . S
O12 C6 1.268 . S
O13 Sc0 2.105 . S
O13 C7 1.268 . S
O14 Sc2 2.105 . S
O14 C8 1.268 . S
O15 Sc1 2.105 . S
O15 C9 1.268 . S
O16 Sc0 2.105 . S
O16 C8 1.268 . S
O17 Sc1 2.105 . S
O17 C7 1.268 . S
O18 Sc2 2.105 . S
O18 C9 1.268 . S
O19 Sc0 2.105 . S
O19 C5 1.268 . S
O20 Sc2 2.105 . S
O20 C4 1.268 . S
O21 Sc1 2.105 . S
O21 C6 1.268 . S
Sc22 O25 2.025 . S
Sc22 O32 2.105 . S
Sc22 O35 2.105 . S
Sc22 O38 2.105 . S
Sc22 O41 2.105 . S
Sc23 O25 2.025 . S
Sc23 O33 2.105 . S
Sc23 O37 2.105 . S
Sc23 O39 2.105 . S
Sc23 O43 2.105 . S
Sc24 O25 2.025 . S
Sc24 O34 2.105 . S
Sc24 O36 2.105 . S
Sc24 O40 2.105 . S
Sc24 O42 2.105 . S
O25 Sc22 2.025 . S
O25 Sc23 2.025 . S
O25 Sc24 2.025 . S
C26 O32 1.268 . S
C26 O42 1.268 . S
C27 O33 1.268 . S
C27 O41 1.268 . S
C28 O34 1.268 . S
C28 O43 1.268 . S
C29 O35 1.268 . S
C29 O39 1.268 . S
C30 O36 1.268 . S
C30 O38 1.268 . S
C31 O37 1.268 . S
C31 O40 1.268 . S
O32 Sc22 2.105 . S
O32 C26 1.268 . S
O33 Sc23 2.105 . S
O33 C27 1.268 . S
O34 Sc24 2.105 . S
O34 C28 1.268 . S
O35 Sc22 2.105 . S
O35 C29 1.268 . S
O36 Sc24 2.105 . S
O36 C30 1.268 . S
O37 Sc23 2.105 . S
O37 C31 1.268 . S
O38 Sc22 2.105 . S
O38 C30 1.268 . S
O39 Sc23 2.105 . S
O39 C29 1.268 . S
O40 Sc24 2.105 . S
O40 C31 1.268 . S
O41 Sc22 2.105 . S
O41 C27 1.268 . S
O42 Sc24 2.105 . S
O42 C26 1.268 . S
O43 Sc23 2.105 . S
O43 C28 1.268 . S
Sc44 O47 2.025 . S
Sc44 O54 2.105 . S
Sc44 O57 2.105 . S
Sc44 O60 2.105 . S
Sc44 O63 2.105 . S
Sc45 O47 2.025 . S
Sc45 O55 2.105 . S
Sc45 O59 2.105 . S
Sc45 O61 2.105 . S
Sc45 O65 2.105 . S
Sc46 O47 2.025 . S
Sc46 O56 2.105 . S
Sc46 O58 2.105 . S
Sc46 O62 2.105 . S
Sc46 O64 2.105 . S
O47 Sc44 2.025 . S
O47 Sc45 2.025 . S
O47 Sc46 2.025 . S
C48 O54 1.268 . S
C48 O64 1.268 . S
C49 O55 1.268 . S
C49 O63 1.268 . S
C50 O56 1.268 . S
C50 O65 1.268 . S
C51 O57 1.268 . S
C51 O61 1.268 . S
C52 O58 1.268 . S
C52 O60 1.268 . S
C53 O59 1.268 . S
C53 O62 1.268 . S
O54 Sc44 2.105 . S
O54 C48 1.268 . S
O55 Sc45 2.105 . S
O55 C49 1.268 . S
O56 Sc46 2.105 . S
O56 C50 1.268 . S
O57 Sc44 2.105 . S
O57 C51 1.268 . S
O58 Sc46 2.105 . S
O58 C52 1.268 . S
O59 Sc45 2.105 . S
O59 C53 1.268 . S
O60 Sc44 2.105 . S
O60 C52 1.268 . S
O61 Sc45 2.105 . S
O61 C51 1.268 . S
O62 Sc46 2.105 . S
O62 C53 1.268 . S
O63 Sc44 2.105 . S
O63 C49 1.268 . S
O64 Sc46 2.105 . S
O64 C48 1.268 . S
O65 Sc45 2.105 . S
O65 C50 1.268 . S
Sc66 O69 2.025 . S
Sc66 O76 2.105 1_554 S
Sc66 O79 2.105 . S
Sc66 O82 2.111 . S
Sc66 O85 2.105 . S
Sc67 O69 2.025 . S
Sc67 O77 2.105 . S
Sc67 O81 2.105 . S
Sc67 O83 2.105 . S
Sc67 O87 2.105 . S
Sc68 O69 2.025 1_556 S
Sc68 O78 2.105 . S
Sc68 O80 2.105 . S
Sc68 O84 2.105 1_556 S
Sc68 O86 2.105 . S
O69 Sc66 2.025 . S
O69 Sc67 2.025 . S
O69 Sc68 2.025 1_554 S
C70 O76 1.268 . S
C70 O86 1.268 . S
C71 O77 1.268 . S
C71 O85 1.268 . S
C72 O78 1.268 . S
C72 O87 1.268 1_556 S
C73 O79 1.268 . S
C73 O83 1.268 . S
C74 O80 1.268 . S
C74 O82 1.260 1_556 S
C75 O81 1.268 . S
C75 O84 1.268 . S
O76 Sc66 2.105 1_556 S
O76 C70 1.268 . S
O77 Sc67 2.105 . S
O77 C71 1.268 . S
O78 Sc68 2.105 . S
O78 C72 1.268 . S
O79 Sc66 2.105 . S
O79 C73 1.268 . S
O80 Sc68 2.105 . S
O80 C74 1.268 . S
O81 Sc67 2.105 . S
O81 C75 1.268 . S
O82 Sc66 2.111 . S
O82 C74 1.260 1_554 S
O83 Sc67 2.105 . S
O83 C73 1.268 . S
O84 Sc68 2.105 1_554 S
O84 C75 1.268 . S
O85 Sc66 2.105 . S
O85 C71 1.268 . S
O86 Sc68 2.105 . S
O86 C70 1.268 . S
O87 Sc67 2.105 . S
O87 C72 1.268 1_554 S
Sc88 O91 2.025 . S
Sc88 O98 2.105 . S
Sc88 O101 2.105 . S
Sc88 O104 2.105 . S
Sc88 O107 2.105 . S
Sc89 O91 2.025 . S
Sc89 O99 2.105 . S
Sc89 O103 2.105 . S
Sc89 O105 2.105 . S
Sc89 O109 2.105 . S
Sc90 O91 2.025 . S
Sc90 O100 2.105 . S
Sc90 O102 2.105 . S
Sc90 O106 2.105 . S
Sc90 O108 2.105 . S
O91 Sc88 2.025 . S
O91 Sc89 2.025 . S
O91 Sc90 2.025 . S
C92 O98 1.268 . S
C92 O108 1.268 . S
C93 O99 1.268 . S
C93 O107 1.268 . S
C94 O100 1.268 . S
C94 O109 1.268 . S
C95 O101 1.268 . S
C95 O105 1.268 . S
C96 O102 1.268 . S
C96 O104 1.268 . S
C97 O103 1.268 . S
C97 O106 1.268 . S
O98 Sc88 2.105 . S
O98 C92 1.268 . S
O99 Sc89 2.105 . S
O99 C93 1.268 . S
O100 Sc90 2.105 . S
O100 C94 1.268 . S
O101 Sc88 2.105 . S
O101 C95 1.268 . S
O102 Sc90 2.105 . S
O102 C96 1.268 . S
O103 Sc89 2.105 . S
O103 C97 1.268 . S
O104 Sc88 2.105 . S
O104 C96 1.268 . S
O105 Sc89 2.105 . S
O105 C95 1.268 . S
O106 Sc90 2.105 . S
O106 C97 1.268 . S
O107 Sc88 2.105 . S
O107 C93 1.268 . S
O108 Sc90 2.105 . S
O108 C92 1.268 . S
O109 Sc89 2.105 . S
O109 C94 1.268 . S
Sc110 O113 2.025 . S
Sc110 O120 2.105 . S
Sc110 O123 2.105 . S
Sc110 O126 2.105 . S
Sc110 O129 2.105 . S
Sc111 O113 2.025 . S
Sc111 O121 2.105 . S
Sc111 O125 2.105 . S
Sc111 O127 2.105 . S
Sc111 O131 2.105 . S
Sc112 O113 2.025 . S
Sc112 O122 2.105 . S
Sc112 O124 2.105 . S
Sc112 O128 2.105 . S
Sc112 O130 2.105 . S
O113 Sc110 2.025 . S
O113 Sc111 2.025 . S
O113 Sc112 2.025 . S
C114 O120 1.268 . S
C114 O130 1.268 . S
C115 O121 1.268 . S
C115 O129 1.268 . S
C116 O122 1.268 . S
C116 O131 1.268 . S
C117 O123 1.268 . S
C117 O127 1.268 . S
C118 O124 1.268 . S
C118 O126 1.268 . S
C119 O125 1.268 . S
C119 O128 1.268 . S
O120 Sc110 2.105 . S
O120 C114 1.268 . S
O121 Sc111 2.105 . S
O121 C115 1.268 . S
O122 Sc112 2.105 . S
O122 C116 1.268 . S
O123 Sc110 2.105 . S
O123 C117 1.268 . S
O124 Sc112 2.105 . S
O124 C118 1.268 . S
O125 Sc111 2.105 . S
O125 C119 1.268 . S
O126 Sc110 2.105 . S
O126 C118 1.268 . S
O127 Sc111 2.105 . S
O127 C117 1.268 . S
O128 Sc112 2.105 . S
O128 C119 1.268 . S
O129 Sc110 2.105 . S
O129 C115 1.268 . S
O130 Sc112 2.105 . S
O130 C114 1.268 . S
O131 Sc111 2.105 . S
O131 C116 1.268 . S
Sc132 O135 2.025 . S
Sc132 O142 2.105 . S
Sc132 O145 2.105 . S
Sc132 O148 2.105 . S
Sc132 O151 2.105 . S
Sc133 O135 2.025 . S
Sc133 O143 2.105 . S
Sc133 O147 2.105 . S
Sc133 O149 2.105 . S
Sc133 O153 2.105 . S
Sc134 O135 2.025 . S
Sc134 O144 2.105 . S
Sc134 O146 2.105 . S
Sc134 O150 2.105 . S
Sc134 O152 2.105 . S
O135 Sc132 2.025 . S
O135 Sc133 2.025 . S
O135 Sc134 2.025 . S
C136 O142 1.268 . S
C136 O152 1.268 . S
C137 O143 1.268 . S
C137 O151 1.268 . S
C138 O144 1.268 . S
C138 O153 1.268 . S
C139 O145 1.268 . S
C139 O149 1.268 . S
C140 O146 1.268 . S
C140 O148 1.268 . S
C141 O147 1.268 . S
C141 O150 1.268 . S
O142 Sc132 2.105 . S
O142 C136 1.268 . S
O143 Sc133 2.105 . S
O143 C137 1.268 . S
O144 Sc134 2.105 . S
O144 C138 1.268 . S
O145 Sc132 2.105 . S
O145 C139 1.268 . S
O146 Sc134 2.105 . S
O146 C140 1.268 . S
O147 Sc133 2.105 . S
O147 C141 1.268 . S
O148 Sc132 2.105 . S
O148 C140 1.268 . S
O149 Sc133 2.105 . S
O149 C139 1.268 . S
O150 Sc134 2.105 . S
O150 C141 1.268 . S
O151 Sc132 2.105 . S
O151 C137 1.268 . S
O152 Sc134 2.105 . S
O152 C136 1.268 . S
O153 Sc133 2.105 . S
O153 C138 1.268 . S
Sc154 O157 2.025 . S
Sc154 O164 2.111 . S
Sc154 O167 2.105 . S
Sc154 O170 2.105 1_556 S
Sc154 O173 2.105 . S
Sc155 O157 2.025 . S
Sc155 O165 2.105 . S
Sc155 O169 2.105 . S
Sc155 O171 2.105 . S
Sc155 O175 2.105 . S
Sc156 O157 2.025 1_554 S
Sc156 O166 2.105 1_554 S
Sc156 O168 2.105 . S
Sc156 O172 2.105 . S
Sc156 O174 2.105 . S
O157 Sc154 2.025 . S
O157 Sc155 2.025 . S
O157 Sc156 2.025 1_556 S
C158 O164 1.260 1_554 S
C158 O174 1.268 . S
C159 O165 1.268 . S
C159 O173 1.268 . S
C160 O166 1.268 . S
C160 O175 1.268 . S
C161 O167 1.268 . S
C161 O171 1.268 . S
C162 O168 1.268 . S
C162 O170 1.268 . S
C163 O169 1.268 1_554 S
C163 O172 1.268 . S
O164 Sc154 2.111 . S
O164 C158 1.260 1_556 S
O165 Sc155 2.105 . S
O165 C159 1.268 . S
O166 Sc156 2.105 1_556 S
O166 C160 1.268 . S
O167 Sc154 2.105 . S
O167 C161 1.268 . S
O168 Sc156 2.105 . S
O168 C162 1.268 . S
O169 Sc155 2.105 . S
O169 C163 1.268 1_556 S
O170 Sc154 2.105 1_554 S
O170 C162 1.268 . S
O171 Sc155 2.105 . S
O171 C161 1.268 . S
O172 Sc156 2.105 . S
O172 C163 1.268 . S
O173 Sc154 2.105 . S
O173 C159 1.268 . S
O174 Sc156 2.105 . S
O174 C158 1.268 . S
O175 Sc155 2.105 . S
O175 C160 1.268 . S
Sc176 O179 2.025 1_565 S
Sc176 O186 2.105 . S
Sc176 O189 2.105 . S
Sc176 O192 2.105 . S
Sc176 O195 2.105 . S
Sc177 O179 2.025 . S
Sc177 O187 2.105 . S
Sc177 O191 2.105 . S
Sc177 O193 2.105 . S
Sc177 O197 2.105 . S
Sc178 O179 2.025 . S
Sc178 O188 2.105 . S
Sc178 O190 2.105 . S
Sc178 O194 2.105 . S
Sc178 O196 2.105 . S
O179 Sc176 2.025 1_545 S
O179 Sc177 2.025 . S
O179 Sc178 2.025 . S
C180 O186 1.268 1_545 S
C180 O196 1.268 . S
C181 O187 1.268 . S
C181 O195 1.268 1_545 S
C182 O188 1.268 . S
C182 O197 1.268 . S
C183 O189 1.268 . S
C183 O193 1.268 1_565 S
C184 O190 1.268 . S
C184 O192 1.268 1_545 S
C185 O191 1.268 . S
C185 O194 1.268 . S
O186 Sc176 2.105 . S
O186 C180 1.268 1_565 S
O187 Sc177 2.105 . S
O187 C181 1.268 . S
O188 Sc178 2.105 . S
O188 C182 1.268 . S
O189 Sc176 2.105 . S
O189 C183 1.268 . S
O190 Sc178 2.105 . S
O190 C184 1.268 . S
O191 Sc177 2.105 . S
O191 C185 1.268 . S
O192 Sc176 2.105 . S
O192 C184 1.268 1_565 S
O193 Sc177 2.105 . S
O193 C183 1.268 1_545 S
O194 Sc178 2.105 . S
O194 C185 1.268 . S
O195 Sc176 2.105 . S
O195 C181 1.268 1_565 S
O196 Sc178 2.105 . S
O196 C180 1.268 . S
O197 Sc177 2.105 . S
O197 C182 1.268 . S
Sc198 O201 2.025 . S
Sc198 O208 2.105 1_554 S
Sc198 O211 2.105 . S
Sc198 O214 2.111 . S
Sc198 O217 2.105 1_565 S
Sc199 O201 2.025 . S
Sc199 O209 2.105 1_565 S
Sc199 O213 2.105 . S
Sc199 O215 2.105 . S
Sc199 O219 2.105 . S
Sc200 O201 2.025 1_556 S
Sc200 O210 2.105 . S
Sc200 O212 2.105 . S
Sc200 O216 2.105 1_556 S
Sc200 O218 2.105 . S
O201 Sc198 2.025 . S
O201 Sc199 2.025 . S
O201 Sc200 2.025 1_554 S
C202 O208 1.268 . S
C202 O218 1.268 . S
C203 O209 1.268 . S
C203 O217 1.268 . S
C204 O210 1.268 . S
C204 O219 1.268 1_556 S
C205 O211 1.268 . S
C205 O215 1.268 . S
C206 O212 1.268 . S
C206 O214 1.260 1_556 S
C207 O213 1.268 . S
C207 O216 1.268 . S
O208 Sc198 2.105 1_556 S
O208 C202 1.268 . S
O209 Sc199 2.105 1_545 S
O209 C203 1.268 . S
O210 Sc200 2.105 . S
O210 C204 1.268 . S
O211 Sc198 2.105 . S
O211 C205 1.268 . S
O212 Sc200 2.105 . S
O212 C206 1.268 . S
O213 Sc199 2.105 . S
O213 C207 1.268 . S
O214 Sc198 2.111 . S
O214 C206 1.260 1_554 S
O215 Sc199 2.105 . S
O215 C205 1.268 . S
O216 Sc200 2.105 1_554 S
O216 C207 1.268 . S
O217 Sc198 2.105 1_545 S
O217 C203 1.268 . S
O218 Sc200 2.105 . S
O218 C202 1.268 . S
O219 Sc199 2.105 . S
O219 C204 1.268 1_554 S
Sc220 O223 2.025 . S
Sc220 O230 2.105 . S
Sc220 O233 2.105 . S
Sc220 O236 2.105 . S
Sc220 O239 2.105 . S
Sc221 O223 2.025 . S
Sc221 O231 2.105 . S
Sc221 O235 2.105 . S
Sc221 O237 2.105 . S
Sc221 O241 2.105 . S
Sc222 O223 2.025 1_545 S
Sc222 O232 2.105 . S
Sc222 O234 2.105 . S
Sc222 O238 2.105 . S
Sc222 O240 2.105 . S
O223 Sc220 2.025 . S
O223 Sc221 2.025 . S
O223 Sc222 2.025 1_565 S
C224 O230 1.268 . S
C224 O240 1.268 1_565 S
C225 O231 1.268 . S
C225 O239 1.268 . S
C226 O232 1.268 . S
C226 O241 1.268 1_545 S
C227 O233 1.268 . S
C227 O237 1.268 . S
C228 O234 1.268 1_565 S
C228 O236 1.268 . S
C229 O235 1.268 . S
C229 O238 1.268 1_565 S
O230 Sc220 2.105 . S
O230 C224 1.268 . S
O231 Sc221 2.105 . S
O231 C225 1.268 . S
O232 Sc222 2.105 . S
O232 C226 1.268 . S
O233 Sc220 2.105 . S
O233 C227 1.268 . S
O234 Sc222 2.105 . S
O234 C228 1.268 1_545 S
O235 Sc221 2.105 . S
O235 C229 1.268 . S
O236 Sc220 2.105 . S
O236 C228 1.268 . S
O237 Sc221 2.105 . S
O237 C227 1.268 . S
O238 Sc222 2.105 . S
O238 C229 1.268 1_545 S
O239 Sc220 2.105 . S
O239 C225 1.268 . S
O240 Sc222 2.105 . S
O240 C224 1.268 1_545 S
O241 Sc221 2.105 . S
O241 C226 1.268 1_565 S
Sc242 O245 2.025 . S
Sc242 O252 2.105 . S
Sc242 O255 2.105 . S
Sc242 O258 2.105 . S
Sc242 O261 2.105 1_545 S
Sc243 O245 2.025 . S
Sc243 O253 2.105 1_545 S
Sc243 O257 2.105 . S
Sc243 O259 2.105 . S
Sc243 O263 2.105 . S
Sc244 O245 2.025 . S
Sc244 O254 2.105 . S
Sc244 O256 2.105 . S
Sc244 O260 2.105 . S
Sc244 O262 2.105 . S
O245 Sc242 2.025 . S
O245 Sc243 2.025 . S
O245 Sc244 2.025 . S
C246 O252 1.268 . S
C246 O262 1.268 . S
C247 O253 1.268 . S
C247 O261 1.268 . S
C248 O254 1.268 . S
C248 O263 1.268 . S
C249 O255 1.268 . S
C249 O259 1.268 . S
C250 O256 1.268 . S
C250 O258 1.268 . S
C251 O257 1.268 . S
C251 O260 1.268 . S
O252 Sc242 2.105 . S
O252 C246 1.268 . S
O253 Sc243 2.105 1_565 S
O253 C247 1.268 . S
O254 Sc244 2.105 . S
O254 C248 1.268 . S
O255 Sc242 2.105 . S
O255 C249 1.268 . S
O256 Sc244 2.105 . S
O256 C250 1.268 . S
O257 Sc243 2.105 . S
O257 C251 1.268 . S
O258 Sc242 2.105 . S
O258 C250 1.268 . S
O259 Sc243 2.105 . S
O259 C249 1.268 . S
O260 Sc244 2.105 . S
O260 C251 1.268 . S
O261 Sc242 2.105 1_565 S
O261 C247 1.268 . S
O262 Sc244 2.105 . S
O262 C246 1.268 . S
O263 Sc243 2.105 . S
O263 C248 1.268 . S
Sc264 O267 2.025 . S
Sc264 O274 2.105 . S
Sc264 O277 2.105 . S
Sc264 O280 2.105 . S
Sc264 O283 2.105 . S
Sc265 O267 2.025 . S
Sc265 O275 2.105 . S
Sc265 O279 2.105 . S
Sc265 O281 2.105 . S
Sc265 O285 2.105 . S
Sc266 O267 2.025 1_545 S
Sc266 O276 2.105 . S
Sc266 O278 2.105 . S
Sc266 O282 2.105 . S
Sc266 O284 2.105 . S
O267 Sc264 2.025 . S
O267 Sc265 2.025 . S
O267 Sc266 2.025 1_565 S
C268 O274 1.268 . S
C268 O284 1.268 1_565 S
C269 O275 1.268 . S
C269 O283 1.268 . S
C270 O276 1.268 1_565 S
C270 O285 1.268 . S
C271 O277 1.268 . S
C271 O281 1.268 . S
C272 O278 1.268 1_565 S
C272 O280 1.268 . S
C273 O279 1.268 1_545 S
C273 O282 1.268 . S
O274 Sc264 2.105 . S
O274 C268 1.268 . S
O275 Sc265 2.105 . S
O275 C269 1.268 . S
O276 Sc266 2.105 . S
O276 C270 1.268 1_545 S
O277 Sc264 2.105 . S
O277 C271 1.268 . S
O278 Sc266 2.105 . S
O278 C272 1.268 1_545 S
O279 Sc265 2.105 . S
O279 C273 1.268 1_565 S
O280 Sc264 2.105 . S
O280 C272 1.268 . S
O281 Sc265 2.105 . S
O281 C271 1.268 . S
O282 Sc266 2.105 . S
O282 C273 1.268 . S
O283 Sc264 2.105 . S
O283 C269 1.268 . S
O284 Sc266 2.105 . S
O284 C268 1.268 1_545 S
O285 Sc265 2.105 . S
O285 C270 1.268 . S
Sc286 O289 2.025 1_554 S
Sc286 O296 2.105 . S
Sc286 O299 2.105 1_554 S
Sc286 O302 2.105 . S
Sc286 O305 2.105 . S
Sc287 O289 2.025 . S
Sc287 O297 2.105 . S
Sc287 O301 2.105 . S
Sc287 O303 2.105 . S
Sc287 O307 2.105 1_545 S
Sc288 O289 2.025 . S
Sc288 O298 2.105 1_545 S
Sc288 O300 2.111 . S
Sc288 O304 2.105 . S
Sc288 O306 2.105 1_556 S
O289 Sc286 2.025 1_556 S
O289 Sc287 2.025 . S
O289 Sc288 2.025 . S
C290 O296 1.268 . S
C290 O306 1.268 . S
C291 O297 1.268 1_554 S
C291 O305 1.268 . S
C292 O298 1.268 . S
C292 O307 1.268 . S
C293 O299 1.268 . S
C293 O303 1.268 . S
C294 O300 1.260 1_554 S
C294 O302 1.268 . S
C295 O301 1.268 . S
C295 O304 1.268 . S
O296 Sc286 2.105 . S
O296 C290 1.268 . S
O297 Sc287 2.105 . S
O297 C291 1.268 1_556 S
O298 Sc288 2.105 1_565 S
O298 C292 1.268 . S
O299 Sc286 2.105 1_556 S
O299 C293 1.268 . S
O300 Sc288 2.111 . S
O300 C294 1.260 1_556 S
O301 Sc287 2.105 . S
O301 C295 1.268 . S
O302 Sc286 2.105 . S
O302 C294 1.268 . S
O303 Sc287 2.105 . S
O303 C293 1.268 . S
O304 Sc288 2.105 . S
O304 C295 1.268 . S
O305 Sc286 2.105 . S
O305 C291 1.268 . S
O306 Sc288 2.105 1_554 S
O306 C290 1.268 . S
O307 Sc287 2.105 1_565 S
O307 C292 1.268 . S
Sc308 O311 2.025 1_565 S
Sc308 O318 2.105 . S
Sc308 O321 2.105 . S
Sc308 O324 2.105 . S
Sc308 O327 2.105 . S
Sc309 O311 2.025 . S
Sc309 O319 2.105 . S
Sc309 O323 2.105 . S
Sc309 O325 2.105 . S
Sc309 O329 2.105 . S
Sc310 O311 2.025 . S
Sc310 O320 2.105 . S
Sc310 O322 2.105 . S
Sc310 O326 2.105 . S
Sc310 O328 2.105 . S
O311 Sc308 2.025 1_545 S
O311 Sc309 2.025 . S
O311 Sc310 2.025 . S
C312 O318 1.268 1_545 S
C312 O328 1.268 . S
C313 O319 1.268 1_565 S
C313 O327 1.268 . S
C314 O320 1.268 . S
C314 O329 1.268 . S
C315 O321 1.268 1_545 S
C315 O325 1.268 . S
C316 O322 1.268 . S
C316 O324 1.268 1_545 S
C317 O323 1.268 . S
C317 O326 1.268 . S
O318 Sc308 2.105 . S
O318 C312 1.268 1_565 S
O319 Sc309 2.105 . S
O319 C313 1.268 1_545 S
O320 Sc310 2.105 . S
O320 C314 1.268 . S
O321 Sc308 2.105 . S
O321 C315 1.268 1_565 S
O322 Sc310 2.105 . S
O322 C316 1.268 . S
O323 Sc309 2.105 . S
O323 C317 1.268 . S
O324 Sc308 2.105 . S
O324 C316 1.268 1_565 S
O325 Sc309 2.105 . S
O325 C315 1.268 . S
O326 Sc310 2.105 . S
O326 C317 1.268 . S
O327 Sc308 2.105 . S
O327 C313 1.268 . S
O328 Sc310 2.105 . S
O328 C312 1.268 . S
O329 Sc309 2.105 . S
O329 C314 1.268 . S
Sc330 O333 2.025 . S
Sc330 O340 2.105 . S
Sc330 O343 2.105 1_565 S
Sc330 O346 2.105 . S
Sc330 O349 2.105 . S
Sc331 O333 2.025 . S
Sc331 O341 2.105 . S
Sc331 O345 2.105 . S
Sc331 O347 2.105 1_565 S
Sc331 O351 2.105 . S
Sc332 O333 2.025 . S
Sc332 O342 2.105 . S
Sc332 O344 2.105 . S
Sc332 O348 2.105 . S
Sc332 O350 2.105 . S
O333 Sc330 2.025 . S
O333 Sc331 2.025 . S
O333 Sc332 2.025 . S
C334 O340 1.268 . S
C334 O350 1.268 . S
C335 O341 1.268 . S
C335 O349 1.268 . S
C336 O342 1.268 . S
C336 O351 1.268 . S
C337 O343 1.268 . S
C337 O347 1.268 . S
C338 O344 1.268 . S
C338 O346 1.268 . S
C339 O345 1.268 . S
C339 O348 1.268 . S
O340 Sc330 2.105 . S
O340 C334 1.268 . S
O341 Sc331 2.105 . S
O341 C335 1.268 . S
O342 Sc332 2.105 . S
O342 C336 1.268 . S
O343 Sc330 2.105 1_545 S
O343 C337 1.268 . S
O344 Sc332 2.105 . S
O344 C338 1.268 . S
O345 Sc331 2.105 . S
O345 C339 1.268 . S
O346 Sc330 2.105 . S
O346 C338 1.268 . S
O347 Sc331 2.105 1_545 S
O347 C337 1.268 . S
O348 Sc332 2.105 . S
O348 C339 1.268 . S
O349 Sc330 2.105 . S
O349 C335 1.268 . S
O350 Sc332 2.105 . S
O350 C334 1.268 . S
O351 Sc331 2.105 . S
O351 C336 1.268 . S
C352 C353 1.387 . S
C352 H356 0.950 . S
C352 C361 1.390 . S
C353 C352 1.387 . S
C353 C355 1.387 . S
H354 C361 0.950 . S
C355 C353 1.387 . S
C355 C357 1.390 . S
C355 H359 0.950 . S
H356 C352 0.950 . S
C357 C355 1.390 . S
C357 C358 1.387 . S
C357 H360 0.950 . S
C358 C357 1.387 . S
C358 C361 1.387 . S
H359 C355 0.950 . S
H360 C357 0.950 . S
C361 C352 1.390 . S
C361 H354 0.950 . S
C361 C358 1.387 . S
C362 C363 1.387 . S
C362 H366 0.950 . S
C362 C371 1.390 . S
C363 C362 1.387 . S
C363 C365 1.387 . S
H364 C371 0.950 . S
C365 C363 1.387 . S
C365 C367 1.390 . S
C365 H369 0.950 . S
H366 C362 0.950 . S
C367 C365 1.390 . S
C367 C368 1.387 . S
C367 H370 0.950 . S
C368 C367 1.387 . S
C368 C371 1.387 . S
H369 C365 0.950 . S
H370 C367 0.950 . S
C371 C362 1.390 . S
C371 H364 0.950 . S
C371 C368 1.387 . S
C372 C373 1.387 . S
C372 H376 0.950 . S
C372 C381 1.390 . S
C373 C372 1.387 . S
C373 C375 1.387 . S
H374 C381 0.950 . S
C375 C373 1.387 . S
C375 C377 1.390 . S
C375 H379 0.950 . S
H376 C372 0.950 . S
C377 C375 1.390 . S
C377 C378 1.387 . S
C377 H380 0.950 . S
C378 C377 1.387 . S
C378 C381 1.387 . S
H379 C375 0.950 . S
H380 C377 0.950 . S
C381 C372 1.390 . S
C381 H374 0.950 . S
C381 C378 1.387 . S
C382 C383 1.387 . S
C382 H386 0.950 . S
C382 C391 1.390 . S
C383 C382 1.387 . S
C383 C385 1.387 1_554 S
H384 C391 0.950 . S
C385 C383 1.387 1_556 S
C385 C387 1.390 . S
C385 H389 0.950 . S
H386 C382 0.950 . S
C387 C385 1.390 . S
C387 C388 1.387 1_556 S
C387 H390 0.950 . S
C388 C387 1.387 1_554 S
C388 C391 1.387 . S
H389 C385 0.950 . S
H390 C387 0.950 . S
C391 C382 1.390 . S
C391 H384 0.950 . S
C391 C388 1.387 . S
C392 C393 1.387 . S
C392 H396 0.950 . S
C392 C401 1.390 . S
C393 C392 1.387 . S
C393 C395 1.387 . S
H394 C401 0.950 . S
C395 C393 1.387 . S
C395 C397 1.390 . S
C395 H399 0.950 . S
H396 C392 0.950 . S
C397 C395 1.390 . S
C397 C398 1.387 . S
C397 H400 0.950 . S
C398 C397 1.387 . S
C398 C401 1.387 . S
H399 C395 0.950 . S
H400 C397 0.950 . S
C401 C392 1.390 . S
C401 H394 0.950 . S
C401 C398 1.387 . S
C402 C403 1.387 . S
C402 H406 0.950 . S
C402 C411 1.390 . S
C403 C402 1.387 . S
C403 C405 1.387 . S
H404 C411 0.950 . S
C405 C403 1.387 . S
C405 C407 1.390 . S
C405 H409 0.950 . S
H406 C402 0.950 . S
C407 C405 1.390 . S
C407 C408 1.387 . S
C407 H410 0.950 . S
C408 C407 1.387 . S
C408 C411 1.387 . S
H409 C405 0.950 . S
H410 C407 0.950 . S
C411 C402 1.390 . S
C411 H404 0.950 . S
C411 C408 1.387 . S
C412 C413 1.387 . S
C412 H416 0.950 . S
C412 C421 1.390 . S
C413 C412 1.387 . S
C413 C415 1.387 . S
H414 C421 0.950 . S
C415 C413 1.387 . S
C415 C417 1.390 . S
C415 H419 0.950 . S
H416 C412 0.950 . S
C417 C415 1.390 . S
C417 C418 1.387 . S
C417 H420 0.950 . S
C418 C417 1.387 . S
C418 C421 1.387 . S
H419 C415 0.950 . S
H420 C417 0.950 . S
C421 C412 1.390 . S
C421 H414 0.950 . S
C421 C418 1.387 . S
C422 C423 1.387 . S
C422 H426 0.950 . S
C422 C431 1.390 . S
C423 C422 1.387 . S
C423 C425 1.387 1_556 S
H424 C431 0.950 . S
C425 C423 1.387 1_554 S
C425 C427 1.390 . S
C425 H429 0.950 . S
H426 C422 0.950 . S
C427 C425 1.390 . S
C427 C428 1.387 1_554 S
C427 H430 0.950 . S
C428 C427 1.387 1_556 S
C428 C431 1.387 . S
H429 C425 0.950 . S
H430 C427 0.950 . S
C431 C422 1.390 . S
C431 H424 0.950 . S
C431 C428 1.387 . S
C432 C433 1.387 . S
C432 H436 0.950 . S
C432 C441 1.390 . S
C433 C432 1.387 . S
C433 C435 1.387 1_545 S
H434 C441 0.950 . S
C435 C433 1.387 1_565 S
C435 C437 1.390 . S
C435 H439 0.950 . S
H436 C432 0.950 . S
C437 C435 1.390 . S
C437 C438 1.387 . S
C437 H440 0.950 . S
C438 C437 1.387 . S
C438 C441 1.387 1_565 S
H439 C435 0.950 . S
H440 C437 0.950 . S
C441 C432 1.390 . S
C441 H434 0.950 . S
C441 C438 1.387 1_545 S
C442 C443 1.387 . S
C442 H446 0.950 . S
C442 C451 1.390 . S
C443 C442 1.387 . S
C443 C445 1.387 . S
H444 C451 0.950 . S
C445 C443 1.387 . S
C445 C447 1.390 . S
C445 H449 0.950 . S
H446 C442 0.950 . S
C447 C445 1.390 . S
C447 C448 1.387 . S
C447 H450 0.950 . S
C448 C447 1.387 . S
C448 C451 1.387 . S
H449 C445 0.950 . S
H450 C447 0.950 . S
C451 C442 1.390 . S
C451 H444 0.950 . S
C451 C448 1.387 . S
C452 C453 1.387 . S
C452 H456 0.950 . S
C452 C461 1.390 . S
C453 C452 1.387 . S
C453 C455 1.387 1_545 S
H454 C461 0.950 . S
C455 C453 1.387 1_565 S
C455 C457 1.390 . S
C455 H459 0.950 . S
H456 C452 0.950 . S
C457 C455 1.390 . S
C457 C458 1.387 . S
C457 H460 0.950 . S
C458 C457 1.387 . S
C458 C461 1.387 1_565 S
H459 C455 0.950 . S
H460 C457 0.950 . S
C461 C452 1.390 . S
C461 H454 0.950 . S
C461 C458 1.387 1_545 S
C462 C463 1.387 . S
C462 H466 0.950 . S
C462 C471 1.390 . S
C463 C462 1.387 . S
C463 C465 1.387 . S
H464 C471 0.950 . S
C465 C463 1.387 . S
C465 C467 1.390 . S
C465 H469 0.950 . S
H466 C462 0.950 . S
C467 C465 1.390 . S
C467 C468 1.387 . S
C467 H470 0.950 . S
C468 C467 1.387 . S
C468 C471 1.387 . S
H469 C465 0.950 . S
H470 C467 0.950 . S
C471 C462 1.390 . S
C471 H464 0.950 . S
C471 C468 1.387 . S
C472 C473 1.387 . S
C472 H476 0.950 . S
C472 C481 1.390 . S
C473 C472 1.387 . S
C473 C475 1.387 1_545 S
H474 C481 0.950 . S
C475 C473 1.387 1_565 S
C475 C477 1.390 . S
C475 H479 0.950 . S
H476 C472 0.950 . S
C477 C475 1.390 . S
C477 C478 1.387 . S
C477 H480 0.950 . S
C478 C477 1.387 . S
C478 C481 1.387 1_565 S
H479 C475 0.950 . S
H480 C477 0.950 . S
C481 C472 1.390 . S
C481 H474 0.950 . S
C481 C478 1.387 1_545 S
C482 C483 1.379 1_554 S
C482 H486 0.956 . S
C482 C491 1.393 . S
C483 C482 1.379 1_556 S
C483 C485 1.387 . S
H484 C491 0.950 . S
C485 C483 1.387 . S
C485 C487 1.390 . S
C485 H489 0.950 . S
H486 C482 0.956 . S
C487 C485 1.390 . S
C487 C488 1.387 . S
C487 H490 0.950 . S
C488 C487 1.387 . S
C488 C491 1.387 1_556 S
H489 C485 0.950 . S
H490 C487 0.950 . S
C491 C482 1.393 . S
C491 H484 0.950 . S
C491 C488 1.387 1_554 S
C492 C493 1.387 . S
C492 H496 0.950 . S
C492 C501 1.390 . S
C493 C492 1.387 . S
C493 C495 1.387 1_565 S
H494 C501 0.950 . S
C495 C493 1.387 1_545 S
C495 C497 1.390 . S
C495 H499 0.950 . S
H496 C492 0.950 . S
C497 C495 1.390 . S
C497 C498 1.387 . S
C497 H500 0.950 . S
C498 C497 1.387 . S
C498 C501 1.387 1_545 S
H499 C495 0.950 . S
H500 C497 0.950 . S
C501 C492 1.390 . S
C501 H494 0.950 . S
C501 C498 1.387 1_565 S
C502 C503 1.387 . S
C502 H506 0.950 . S
C502 C511 1.390 . S
C503 C502 1.387 . S
C503 C505 1.387 . S
H504 C511 0.950 . S
C505 C503 1.387 . S
C505 C507 1.390 . S
C505 H509 0.950 . S
H506 C502 0.950 . S
C507 C505 1.390 . S
C507 C508 1.387 . S
C507 H510 0.950 . S
C508 C507 1.387 . S
C508 C511 1.387 . S
H509 C505 0.950 . S
H510 C507 0.950 . S
C511 C502 1.390 . S
C511 H504 0.950 . S
C511 C508 1.387 . S
C512 C513 1.387 . S
C512 H516 0.950 . S
C512 C521 1.390 . S
C513 C512 1.387 . S
C513 C515 1.387 . S
H514 C521 0.950 . S
C515 C513 1.387 . S
C515 C517 1.390 . S
C515 H519 0.950 . S
H516 C512 0.950 . S
C517 C515 1.390 . S
C517 C518 1.387 . S
C517 H520 0.950 . S
C518 C517 1.387 . S
C518 C521 1.387 . S
H519 C515 0.950 . S
H520 C517 0.950 . S
C521 C512 1.390 . S
C521 H514 0.950 . S
C521 C518 1.387 . S
C522 C523 1.387 . S
C522 H526 0.950 . S
C522 C531 1.390 1_455 S
C523 C522 1.387 . S
C523 C525 1.387 . S
H524 C531 0.950 . S
C525 C523 1.387 . S
C525 C527 1.390 1_455 S
C525 H529 0.950 . S
H526 C522 0.950 . S
C527 C525 1.390 1_655 S
C527 C528 1.387 . S
C527 H530 0.950 . S
C528 C527 1.387 . S
C528 C531 1.387 . S
H529 C525 0.950 . S
H530 C527 0.950 . S
C531 C522 1.390 1_655 S
C531 H524 0.950 . S
C531 C528 1.387 . S
C532 C533 1.387 . S
C532 H536 0.950 . S
C532 C541 1.390 . S
C533 C532 1.387 . S
C533 C535 1.387 . S
H534 C541 0.950 . S
C535 C533 1.387 . S
C535 C537 1.390 . S
C535 H539 0.950 . S
H536 C532 0.950 . S
C537 C535 1.390 . S
C537 C538 1.387 . S
C537 H540 0.950 . S
C538 C537 1.387 . S
C538 C541 1.387 . S
H539 C535 0.950 . S
H540 C537 0.950 . S
C541 C532 1.390 . S
C541 H534 0.950 . S
C541 C538 1.387 . S
C542 C543 1.387 1_556 S
C542 H546 0.950 . S
C542 C551 1.390 . S
C543 C542 1.387 1_554 S
C543 C545 1.387 . S
H544 C551 0.950 . S
C545 C543 1.387 . S
C545 C547 1.390 . S
C545 H549 0.950 . S
H546 C542 0.950 . S
C547 C545 1.390 . S
C547 C548 1.387 1_554 S
C547 H550 0.950 . S
C548 C547 1.387 1_556 S
C548 C551 1.387 . S
H549 C545 0.950 . S
H550 C547 0.950 . S
C551 C542 1.390 . S
C551 H544 0.950 . S
C551 C548 1.387 . S
C552 C553 1.387 . S
C552 H556 0.950 . S
C552 C561 1.390 . S
C553 C552 1.387 . S
C553 C555 1.387 . S
H554 C561 0.950 . S
C555 C553 1.387 . S
C555 C557 1.390 . S
C555 H559 0.950 . S
H556 C552 0.950 . S
C557 C555 1.390 . S
C557 C558 1.387 . S
C557 H560 0.950 . S
C558 C557 1.387 . S
C558 C561 1.387 . S
H559 C555 0.950 . S
H560 C557 0.950 . S
C561 C552 1.390 . S
C561 H554 0.950 . S
C561 C558 1.387 . S
C562 C563 1.387 . S
C562 H566 0.950 . S
C562 C571 1.390 . S
C563 C562 1.387 . S
C563 C565 1.387 . S
H564 C571 0.950 . S
C565 C563 1.387 . S
C565 C567 1.390 . S
C565 H569 0.950 . S
H566 C562 0.950 . S
C567 C565 1.390 . S
C567 C568 1.387 . S
C567 H570 0.950 . S
C568 C567 1.387 . S
C568 C571 1.387 . S
H569 C565 0.950 . S
H570 C567 0.950 . S
C571 C562 1.390 . S
C571 H564 0.950 . S
C571 C568 1.387 . S
C572 C573 1.387 1_545 S
C572 H576 0.950 . S
C572 C581 1.385 1_556 S
C573 C572 1.387 1_565 S
C573 C575 1.393 . S
H574 C581 0.950 . S
C575 C573 1.393 . S
C575 C577 1.385 1_556 S
C575 H579 0.950 . S
H576 C572 0.950 . S
C577 C575 1.385 1_554 S
C577 C578 1.387 1_565 S
C577 H580 0.950 . S
C578 C577 1.387 1_545 S
C578 C581 1.393 . S
H579 C575 0.950 . S
H580 C577 0.950 . S
C581 C572 1.385 1_554 S
C581 H574 0.950 . S
C581 C578 1.393 . S
C582 C583 1.387 . S
C582 H586 0.950 . S
C582 C591 1.390 1_455 S
C583 C582 1.387 . S
C583 C585 1.387 1_565 S
H584 C591 0.950 . S
C585 C583 1.387 1_545 S
C585 C587 1.390 1_455 S
C585 H589 0.950 . S
H586 C582 0.950 . S
C587 C585 1.390 1_655 S
C587 C588 1.387 . S
C587 H590 0.950 . S
C588 C587 1.387 . S
C588 C591 1.387 1_545 S
H589 C585 0.950 . S
H590 C587 0.950 . S
C591 C582 1.390 1_655 S
C591 H584 0.950 . S
C591 C588 1.387 1_565 S
C592 C593 1.387 . S
C592 H596 0.950 . S
C592 C601 1.390 . S
C593 C592 1.387 . S
C593 C595 1.387 . S
H594 C601 0.950 . S
C595 C593 1.387 . S
C595 C597 1.390 . S
C595 H599 0.950 . S
H596 C592 0.950 . S
C597 C595 1.390 . S
C597 C598 1.387 . S
C597 H600 0.950 . S
C598 C597 1.387 . S
C598 C601 1.387 . S
H599 C595 0.950 . S
H600 C597 0.950 . S
C601 C592 1.390 . S
C601 H594 0.950 . S
C601 C598 1.387 . S
C602 C603 1.387 . S
C602 H606 0.950 . S
C602 C611 1.390 . S
C603 C602 1.387 . S
C603 C605 1.387 . S
H604 C611 0.950 . S
C605 C603 1.387 . S
C605 C607 1.390 . S
C605 H609 0.950 . S
H606 C602 0.950 . S
C607 C605 1.390 . S
C607 C608 1.387 . S
C607 H610 0.950 . S
C608 C607 1.387 . S
C608 C611 1.387 . S
H609 C605 0.950 . S
H610 C607 0.950 . S
C611 C602 1.390 . S
C611 H604 0.950 . S
C611 C608 1.387 . S
C612 C613 1.387 . S
C612 H616 0.950 . S
C612 C621 1.390 . S
C613 C612 1.387 . S
C613 C615 1.387 . S
H614 C621 0.950 . S
C615 C613 1.387 . S
C615 C617 1.390 . S
C615 H619 0.950 . S
H616 C612 0.950 . S
C617 C615 1.390 . S
C617 C618 1.387 . S
C617 H620 0.950 . S
C618 C617 1.387 . S
C618 C621 1.387 . S
H619 C615 0.950 . S
H620 C617 0.950 . S
C621 C612 1.390 . S
C621 H614 0.950 . S
C621 C618 1.387 . S
C622 C623 1.387 . S
C622 H626 0.950 . S
C622 C631 1.390 . S
C623 C622 1.387 . S
C623 C625 1.387 . S
H624 C631 0.950 . S
C625 C623 1.387 . S
C625 C627 1.390 . S
C625 H629 0.950 . S
H626 C622 0.950 . S
C627 C625 1.390 . S
C627 C628 1.387 . S
C627 H630 0.950 . S
C628 C627 1.387 . S
C628 C631 1.387 . S
H629 C625 0.950 . S
H630 C627 0.950 . S
C631 C622 1.390 . S
C631 H624 0.950 . S
C631 C628 1.387 . S
C632 C633 1.387 . S
C632 H636 0.950 . S
C632 C641 1.390 . S
C633 C632 1.387 . S
C633 C635 1.387 . S
H634 C641 0.950 . S
C635 C633 1.387 . S
C635 C637 1.390 . S
C635 H639 0.950 . S
H636 C632 0.950 . S
C637 C635 1.390 . S
C637 C638 1.387 . S
C637 H640 0.950 . S
C638 C637 1.387 . S
C638 C641 1.387 . S
H639 C635 0.950 . S
H640 C637 0.950 . S
C641 C632 1.390 . S
C641 H634 0.950 . S
C641 C638 1.387 . S
C642 C643 1.387 . S
C642 H646 0.950 . S
C642 C651 1.390 . S
C643 C642 1.387 . S
C643 C645 1.387 . S
H644 C651 0.950 . S
C645 C643 1.387 . S
C645 C647 1.390 . S
C645 H649 0.950 . S
H646 C642 0.950 . S
C647 C645 1.390 . S
C647 C648 1.387 . S
C647 H650 0.950 . S
C648 C647 1.387 . S
C648 C651 1.387 . S
H649 C645 0.950 . S
H650 C647 0.950 . S
C651 C642 1.390 . S
C651 H644 0.950 . S
C651 C648 1.387 . S
C652 C653 1.387 . S
C652 H656 0.950 . S
C652 C661 1.390 . S
C653 C652 1.387 . S
C653 C655 1.387 . S
H654 C661 0.950 . S
C655 C653 1.387 . S
C655 C657 1.390 . S
C655 H659 0.950 . S
H656 C652 0.950 . S
C657 C655 1.390 . S
C657 C658 1.387 . S
C657 H660 0.950 . S
C658 C657 1.387 . S
C658 C661 1.387 . S
H659 C655 0.950 . S
H660 C657 0.950 . S
C661 C652 1.390 . S
C661 H654 0.950 . S
C661 C658 1.387 . S
C662 C663 1.387 . S
C662 H666 0.950 . S
C662 C671 1.390 . S
C663 C662 1.387 . S
C663 C665 1.387 . S
H664 C671 0.950 . S
C665 C663 1.387 . S
C665 C667 1.390 . S
C665 H669 0.950 . S
H666 C662 0.950 . S
C667 C665 1.390 . S
C667 C668 1.387 . S
C667 H670 0.950 . S
C668 C667 1.387 . S
C668 C671 1.387 . S
H669 C665 0.950 . S
H670 C667 0.950 . S
C671 C662 1.390 . S
C671 H664 0.950 . S
C671 C668 1.387 . S
C672 C673 1.387 1_545 S
C672 H676 0.950 . S
C672 C681 1.390 . S
C673 C672 1.387 1_565 S
C673 C675 1.387 . S
H674 C681 0.950 . S
C675 C673 1.387 . S
C675 C677 1.390 . S
C675 H679 0.950 . S
H676 C672 0.950 . S
C677 C675 1.390 . S
C677 C678 1.387 . S
C677 H680 0.950 . S
C678 C677 1.387 . S
C678 C681 1.387 1_565 S
H679 C675 0.950 . S
H680 C677 0.950 . S
C681 C672 1.390 . S
C681 H674 0.950 . S
C681 C678 1.387 1_545 S
C682 C683 1.387 . S
C682 H686 0.950 . S
C682 C691 1.390 . S
C683 C682 1.387 . S
C683 C685 1.387 . S
H684 C691 0.950 . S
C685 C683 1.387 . S
C685 C687 1.390 . S
C685 H689 0.950 . S
H686 C682 0.950 . S
C687 C685 1.390 . S
C687 C688 1.387 . S
C687 H690 0.950 1_565 S
C688 C687 1.387 . S
C688 C691 1.387 . S
H689 C685 0.950 . S
H690 C687 0.950 1_545 S
C691 C682 1.390 . S
C691 H684 0.950 . S
C691 C688 1.387 . S
C692 C693 1.379 1_565 S
C692 H696 0.956 . S
C692 C701 1.392 . S
C693 C692 1.379 1_545 S
C693 C695 1.387 . S
H694 C701 0.950 . S
C695 C693 1.387 . S
C695 C697 1.390 . S
C695 H699 0.950 . S
H696 C692 0.956 . S
C697 C695 1.390 . S
C697 C698 1.387 . S
C697 H700 0.950 . S
C698 C697 1.387 . S
C698 C701 1.387 1_545 S
H699 C695 0.950 . S
H700 C697 0.950 . S
C701 C692 1.392 . S
C701 H694 0.950 . S
C701 C698 1.387 1_565 S
C702 C703 1.387 . S
C702 H706 0.950 . S
C702 C711 1.390 . S
C703 C702 1.387 . S
C703 C705 1.387 . S
H704 C711 0.950 . S
C705 C703 1.387 . S
C705 C707 1.390 . S
C705 H709 0.950 . S
H706 C702 0.950 . S
C707 C705 1.390 . S
C707 C708 1.387 . S
C707 H710 0.950 1_545 S
C708 C707 1.387 . S
C708 C711 1.387 . S
H709 C705 0.950 . S
H710 C707 0.950 1_565 S
C711 C702 1.390 . S
C711 H704 0.950 . S
C711 C708 1.387 . S
C712 C713 1.374 1_565 S
C712 H716 0.960 . S
C712 C721 1.393 . S
C713 C712 1.374 1_545 S
C713 C715 1.387 . S
H714 C721 0.950 . S
C715 C713 1.387 . S
C715 C717 1.390 . S
C715 H719 0.950 . S
H716 C712 0.960 . S
C717 C715 1.390 . S
C717 C718 1.387 . S
C717 H720 0.950 . S
C718 C717 1.387 . S
C718 C721 1.387 1_545 S
H719 C715 0.950 . S
H720 C717 0.950 . S
C721 C712 1.393 . S
C721 H714 0.950 . S
C721 C718 1.387 1_565 S
C722 C723 1.387 . S
C722 H726 0.950 . S
C722 C731 1.390 . S
C723 C722 1.387 . S
C723 C725 1.387 . S
H724 C731 0.950 . S
C725 C723 1.387 . S
C725 C727 1.390 . S
C725 H729 0.950 . S
H726 C722 0.950 . S
C727 C725 1.390 . S
C727 C728 1.387 . S
C727 H730 0.950 1_545 S
C728 C727 1.387 . S
C728 C731 1.387 . S
H729 C725 0.950 . S
H730 C727 0.950 1_565 S
C731 C722 1.390 . S
C731 H724 0.950 . S
C731 C728 1.387 . S
C732 C733 1.387 . S
C732 H736 0.950 . S
C732 C741 1.390 . S
C733 C732 1.387 . S
C733 C735 1.387 1_565 S
H734 C741 0.950 . S
C735 C733 1.387 1_545 S
C735 C737 1.390 . S
C735 H739 0.950 . S
H736 C732 0.950 . S
C737 C735 1.390 . S
C737 C738 1.387 1_545 S
C737 H740 0.950 . S
C738 C737 1.387 1_565 S
C738 C741 1.387 . S
H739 C735 0.950 . S
H740 C737 0.950 . S
C741 C732 1.390 . S
C741 H734 0.950 . S
C741 C738 1.387 . S
C742 C743 1.387 . S
C742 H746 0.950 . S
C742 C751 1.390 . S
C743 C742 1.387 . S
C743 C745 1.387 . S
H744 C751 0.950 . S
C745 C743 1.387 . S
C745 C747 1.390 . S
C745 H749 0.950 . S
H746 C742 0.950 . S
C747 C745 1.390 . S
C747 C748 1.387 . S
C747 H750 0.950 . S
C748 C747 1.387 . S
C748 C751 1.387 . S
H749 C745 0.950 . S
H750 C747 0.950 . S
C751 C742 1.390 . S
C751 H744 0.950 . S
C751 C748 1.387 . S
C752 C753 1.387 . S
C752 H756 0.950 . S
C752 C761 1.390 1_455 S
C753 C752 1.387 . S
C753 C755 1.387 . S
H754 C761 0.950 . S
C755 C753 1.387 . S
C755 C757 1.390 1_455 S
C755 H759 0.950 . S
H756 C752 0.950 . S
C757 C755 1.390 1_655 S
C757 C758 1.387 . S
C757 H760 0.950 . S
C758 C757 1.387 . S
C758 C761 1.387 . S
H759 C755 0.950 . S
H760 C757 0.950 . S
C761 C752 1.390 1_655 S
C761 H754 0.950 . S
C761 C758 1.387 . S
C762 C763 1.387 . S
C762 H766 0.950 . S
C762 C771 1.390 1_455 S
C763 C762 1.387 . S
C763 C765 1.387 . S
H764 C771 0.950 . S
C765 C763 1.387 . S
C765 C767 1.390 1_455 S
C765 H769 0.950 . S
H766 C762 0.950 . S
C767 C765 1.390 1_655 S
C767 C768 1.387 . S
C767 H770 0.950 . S
C768 C767 1.387 . S
C768 C771 1.387 . S
H769 C765 0.950 . S
H770 C767 0.950 . S
C771 C762 1.390 1_655 S
C771 H764 0.950 . S
C771 C768 1.387 . S
C772 C773 1.387 . S
C772 H776 0.950 . S
C772 C781 1.390 . S
C773 C772 1.387 . S
C773 C775 1.387 . S
H774 C781 0.950 . S
C775 C773 1.387 . S
C775 C777 1.390 . S
C775 H779 0.950 . S
H776 C772 0.950 . S
C777 C775 1.390 . S
C777 C778 1.387 . S
C777 H780 0.950 . S
C778 C777 1.387 . S
C778 C781 1.387 . S
H779 C775 0.950 . S
H780 C777 0.950 . S
C781 C772 1.390 . S
C781 H774 0.950 . S
C781 C778 1.387 . S
C782 C783 1.387 . S
C782 H786 0.950 . S
C782 C791 1.390 . S
C783 C782 1.387 . S
C783 C785 1.387 . S
H784 C791 0.950 . S
C785 C783 1.387 . S
C785 C787 1.390 . S
C785 H789 0.950 . S
H786 C782 0.950 . S
C787 C785 1.390 . S
C787 C788 1.387 . S
C787 H790 0.950 . S
C788 C787 1.387 . S
C788 C791 1.387 . S
H789 C785 0.950 . S
H790 C787 0.950 . S
C791 C782 1.390 . S
C791 H784 0.950 . S
C791 C788 1.387 . S
C792 C793 1.387 . S
C792 H796 0.950 . S
C792 C801 1.390 1_455 S
C793 C792 1.387 . S
C793 C795 1.387 . S
H794 C801 0.950 . S
C795 C793 1.387 . S
C795 C797 1.390 1_455 S
C795 H799 0.950 . S
H796 C792 0.950 . S
C797 C795 1.390 1_655 S
C797 C798 1.387 . S
C797 H800 0.950 . S
C798 C797 1.387 . S
C798 C801 1.387 . S
H799 C795 0.950 . S
H800 C797 0.950 . S
C801 C792 1.390 1_655 S
C801 H794 0.950 . S
C801 C798 1.387 . S
C802 C803 1.387 . S
C802 H806 0.950 . S
C802 C811 1.390 1_655 S
C803 C802 1.387 . S
C803 C805 1.387 . S
H804 C811 0.950 . S
C805 C803 1.387 . S
C805 C807 1.390 1_655 S
C805 H809 0.950 . S
H806 C802 0.950 . S
C807 C805 1.390 1_455 S
C807 C808 1.387 . S
C807 H810 0.950 . S
C808 C807 1.387 . S
C808 C811 1.387 . S
H809 C805 0.950 . S
H810 C807 0.950 . S
C811 C802 1.390 1_455 S
C811 H804 0.950 . S
C811 C808 1.387 . S
C812 C813 1.387 . S
C812 H816 0.950 . S
C812 C821 1.390 . S
C813 C812 1.387 . S
C813 C815 1.387 . S
H814 C821 0.950 . S
C815 C813 1.387 . S
C815 C817 1.390 . S
C815 H819 0.950 . S
H816 C812 0.950 . S
C817 C815 1.390 . S
C817 C818 1.387 . S
C817 H820 0.950 . S
C818 C817 1.387 . S
C818 C821 1.387 . S
H819 C815 0.950 . S
H820 C817 0.950 . S
C821 C812 1.390 . S
C821 H814 0.950 . S
C821 C818 1.387 . S
C822 C823 1.387 . S
C822 H826 0.950 . S
C822 C831 1.390 . S
C823 C822 1.387 . S
C823 C825 1.387 . S
H824 C831 0.950 . S
C825 C823 1.387 . S
C825 C827 1.390 . S
C825 H829 0.950 . S
H826 C822 0.950 . S
C827 C825 1.390 . S
C827 C828 1.387 . S
C827 H830 0.950 . S
C828 C827 1.387 . S
C828 C831 1.387 . S
H829 C825 0.950 . S
H830 C827 0.950 . S
C831 C822 1.390 . S
C831 H824 0.950 . S
C831 C828 1.387 . S
C353 C5 1.723 . S
C358 C136 1.652 . S
C363 C334 1.650 . S
C368 C27 1.723 . S
C373 C53 1.723 . S
C378 C96 1.653 1_455 S
C383 C294 1.652 . S
C388 C71 1.723 . S
C393 C48 1.650 . S
C398 C94 1.723 . S
C403 C250 1.652 . S
C408 C116 1.723 . S
C413 C139 1.723 . S
C418 C8 1.650 1_655 S
C423 C161 1.722 . S
C428 C206 1.649 . S
C433 C181 1.723 . S
C438 C312 1.650 1_665 S
C443 C203 1.722 . S
C448 C158 1.650 . S
C453 C272 1.653 1_545 S
C458 C229 1.723 . S
C463 C118 1.651 . S
C468 C247 1.723 . S
C473 C224 1.650 1_445 S
C478 C270 1.723 . S
C483 C292 1.723 . S
C488 C74 1.652 . S
C493 C184 1.650 1_565 S
C498 C315 1.723 . S
C503 C30 1.651 . S
C508 C337 1.722 . S
C513 C6 0.674 . S
C518 C269 0.674 . S
C523 C28 0.673 . S
C528 C115 0.673 . S
C533 C51 0.676 . S
C538 C317 0.676 . S
C543 C163 0.667 . S
C548 C72 0.667 . S
C553 C93 0.673 . S
C558 C182 0.673 . S
C563 C227 0.672 . S
C568 C141 0.672 . S
C573 C204 0.666 . S
C578 C291 0.666 . S
C583 C339 0.667 . S
C588 C248 0.667 . S
C593 C7 1.503 . S
C598 C26 1.604 . S
C603 C52 1.605 . S
C608 C29 1.504 . S
C613 C50 1.503 . S
C618 C70 1.604 . S
C623 C73 1.505 . S
C628 C4 1.605 . S
C633 C114 1.604 . S
C638 C97 1.502 . S
C643 C140 1.606 . S
C648 C119 1.506 . S
C653 C162 1.607 . S
C658 C137 1.507 . S
C663 C92 1.604 . S
C668 C159 1.503 . S
C673 C183 1.502 . S
C678 C202 1.604 . S
C683 C205 1.506 . S
C688 C228 1.606 . S
C693 C246 1.604 . S
C698 C226 1.503 . S
C703 C249 1.506 . S
C708 C180 1.606 . S
C713 C290 1.606 . S
C718 C273 1.506 . S
C723 C295 1.504 . S
C728 C316 1.605 . S
C733 C313 1.502 . S
C738 C338 1.604 . S
C743 C268 1.604 . S
C748 C335 1.503 . S
C753 C9 1.484 . S
C758 C225 1.484 . S
C763 C31 1.484 . S
C768 C251 1.484 . S
C773 C49 1.487 . S
C778 C185 1.487 . S
C783 C207 1.487 . S
C788 C75 1.487 . S
C793 C314 1.484 . S
C798 C95 1.484 . S
C803 C117 1.484 . S
C808 C336 1.484 . S
C813 C138 1.484 . S
C818 C271 1.484 . S
C823 C293 1.487 . S
C828 C160 1.487 . S
