# Generated by pormake.
# Topology tzs, (4)-cn, num edge types: 1
# Building blocks:
#     Node 0, Type 0, BuildingBlock: QUQFOY_clean_sbu_3, # of connection points: 4
#     Node 1, Type 0, BuildingBlock: QUQFOY_clean_sbu_3, # of connection points: 4
#     Node 2, Type 0, BuildingBlock: QUQFOY_clean_sbu_3, # of connection points: 4
#     Node 3, Type 0, BuildingBlock: QUQFOY_clean_sbu_3, # of connection points: 4
#     Node 4, Type 0, BuildingBlock: QUQFOY_clean_sbu_3, # of connection points: 4
#     Node 5, Type 0, BuildingBlock: QUQFOY_clean_sbu_3, # of connection points: 4
#     Node 6, Type 0, BuildingBlock: QUQFOY_clean_sbu_3, # of connection points: 4
#     Node 7, Type 0, BuildingBlock: QUQFOY_clean_sbu_3, # of connection points: 4
#     Node 8, Type 0, BuildingBlock: QUQFOY_clean_sbu_3, # of connection points: 4
#     Node 9, Type 0, BuildingBlock: QUQFOY_clean_sbu_3, # of connection points: 4
#     Node 10, Type 0, BuildingBlock: QUQFOY_clean_sbu_3, # of connection points: 4
#     Node 11, Type 0, BuildingBlock: QUQFOY_clean_sbu_3, # of connection points: 4
#     Node 12, Type 0, BuildingBlock: QUQFOY_clean_sbu_3, # of connection points: 4
#     Node 13, Type 0, BuildingBlock: QUQFOY_clean_sbu_3, # of connection points: 4
#     Node 14, Type 0, BuildingBlock: QUQFOY_clean_sbu_3, # of connection points: 4
#     Node 15, Type 0, BuildingBlock: QUQFOY_clean_sbu_3, # of connection points: 4
#     Edge 16, Type (0, 0), BuildingBlock: TEMPAE_clean_linker_10, # of connection points: 2
#     Edge 17, Type (0, 0), BuildingBlock: TEMPAE_clean_linker_10, # of connection points: 2
#     Edge 18, Type (0, 0), BuildingBlock: TEMPAE_clean_linker_10, # of connection points: 2
#     Edge 19, Type (0, 0), BuildingBlock: TEMPAE_clean_linker_10, # of connection points: 2
#     Edge 20, Type (0, 0), BuildingBlock: TEMPAE_clean_linker_10, # of connection points: 2
#     Edge 21, Type (0, 0), BuildingBlock: TEMPAE_clean_linker_10, # of connection points: 2
#     Edge 22, Type (0, 0), BuildingBlock: TEMPAE_clean_linker_10, # of connection points: 2
#     Edge 23, Type (0, 0), BuildingBlock: TEMPAE_clean_linker_10, # of connection points: 2
#     Edge 24, Type (0, 0), BuildingBlock: TEMPAE_clean_linker_10, # of connection points: 2
#     Edge 25, Type (0, 0), BuildingBlock: TEMPAE_clean_linker_10, # of connection points: 2
#     Edge 26, Type (0, 0), BuildingBlock: TEMPAE_clean_linker_10, # of connection points: 2
#     Edge 27, Type (0, 0), BuildingBlock: TEMPAE_clean_linker_10, # of connection points: 2
#     Edge 28, Type (0, 0), BuildingBlock: TEMPAE_clean_linker_10, # of connection points: 2
#     Edge 29, Type (0, 0), BuildingBlock: TEMPAE_clean_linker_10, # of connection points: 2
#     Edge 30, Type (0, 0), BuildingBlock: TEMPAE_clean_linker_10, # of connection points: 2
#     Edge 31, Type (0, 0), BuildingBlock: TEMPAE_clean_linker_10, # of connection points: 2
#     Edge 32, Type (0, 0), BuildingBlock: TEMPAE_clean_linker_10, # of connection points: 2
#     Edge 33, Type (0, 0), BuildingBlock: TEMPAE_clean_linker_10, # of connection points: 2
#     Edge 34, Type (0, 0), BuildingBlock: TEMPAE_clean_linker_10, # of connection points: 2
#     Edge 35, Type (0, 0), BuildingBlock: TEMPAE_clean_linker_10, # of connection points: 2
#     Edge 36, Type (0, 0), BuildingBlock: TEMPAE_clean_linker_10, # of connection points: 2
#     Edge 37, Type (0, 0), BuildingBlock: TEMPAE_clean_linker_10, # of connection points: 2
#     Edge 38, Type (0, 0), BuildingBlock: TEMPAE_clean_linker_10, # of connection points: 2
#     Edge 39, Type (0, 0), BuildingBlock: TEMPAE_clean_linker_10, # of connection points: 2
#     Edge 40, Type (0, 0), BuildingBlock: TEMPAE_clean_linker_10, # of connection points: 2
#     Edge 41, Type (0, 0), BuildingBlock: TEMPAE_clean_linker_10, # of connection points: 2
#     Edge 42, Type (0, 0), BuildingBlock: TEMPAE_clean_linker_10, # of connection points: 2
#     Edge 43, Type (0, 0), BuildingBlock: TEMPAE_clean_linker_10, # of connection points: 2
#     Edge 44, Type (0, 0), BuildingBlock: TEMPAE_clean_linker_10, # of connection points: 2
#     Edge 45, Type (0, 0), BuildingBlock: TEMPAE_clean_linker_10, # of connection points: 2
#     Edge 46, Type (0, 0), BuildingBlock: TEMPAE_clean_linker_10, # of connection points: 2
#     Edge 47, Type (0, 0), BuildingBlock: TEMPAE_clean_linker_10, # of connection points: 2
# Relax obj value: 0.118
# Max RMSD: 0.119
# Mean RMSD: 0.119
data_MOF--net-tzs--node1-QUQFOY_clean_sbu_3--edge1-TEMPAE_clean_linker_10
_symmetry_space_group_name_H-M    P1
_symmetry_Int_Tables_number       1
_symmetry_cell_setting            triclinic
loop_
_symmetry_equiv_pos_as_xyz
'x, y, z'
_cell_length_a     50.458297
_cell_length_b     50.54661
_cell_length_c     41.087521
_cell_angle_alpha  89.948691
_cell_angle_beta   89.931515
_cell_angle_gamma 90.046169
loop_
_atom_site_label
_atom_site_type_symbol
_atom_site_fract_x
_atom_site_fract_y
_atom_site_fract_z
_atom_type_partial_charge
C0 C 0.0643 0.35191 0.14908 0.0
O1 O 0.0675 0.36667 0.12434 0.0
Cd2 Cd 0.1091 0.37467 0.09854 0.0
O3 O 0.08392 0.33987 0.16187 0.0
Cd4 Cd 0.1322 0.33498 0.15228 0.0
C5 C 0.14303 0.4009 0.16319 0.0
O6 O 0.12766 0.33139 0.09454 0.0
O7 O 0.16808 0.33251 0.11152 0.0
O8 O 0.13002 0.28814 0.16559 0.0
C9 C 0.15207 0.32938 0.0881 0.0
O10 O 0.13184 0.40454 0.13581 0.0
C11 C 0.1485 0.28899 0.18647 0.0
O12 O 0.1452 0.37775 0.17512 0.0
O13 O 0.15805 0.31162 0.19305 0.0
C14 C 0.61878 0.08825 0.1872 0.0
O15 O 0.60804 0.08351 0.15987 0.0
Cd16 Cd 0.60364 0.11332 0.116 0.0
O17 O 0.62811 0.11115 0.19375 0.0
Cd18 Cd 0.62993 0.15433 0.16377 0.0
C19 C 0.56282 0.15601 0.15611 0.0
O20 O 0.64705 0.13232 0.11657 0.0
O21 O 0.63811 0.17335 0.10898 0.0
O22 O 0.66867 0.16499 0.19735 0.0
C23 C 0.649 0.15243 0.09856 0.0
O24 O 0.56534 0.13922 0.13327 0.0
C25 C 0.66427 0.18973 0.19674 0.0
O26 O 0.58301 0.16405 0.17174 0.0
O27 O 0.64326 0.19742 0.18277 0.0
C28 C 0.91687 0.64536 0.19999 0.0
O29 O 0.91632 0.6335 0.17276 0.0
Cd30 Cd 0.87894 0.62859 0.13863 0.0
O31 O 0.89617 0.65665 0.21127 0.0
Cd32 Cd 0.84946 0.66302 0.19289 0.0
C33 C 0.83964 0.5965 0.19447 0.0
O34 O 0.86158 0.67228 0.13807 0.0
O35 O 0.81981 0.66617 0.14456 0.0
O36 O 0.84848 0.70854 0.2121 0.0
C37 C 0.83863 0.67328 0.12603 0.0
O38 O 0.85298 0.59563 0.16817 0.0
C39 C 0.82707 0.70589 0.22802 0.0
O40 O 0.83592 0.61839 0.20909 0.0
O41 O 0.81717 0.68281 0.22944 0.0
C42 C 0.35324 0.89541 0.178 0.0
O43 O 0.36305 0.89567 0.14953 0.0
Cd44 Cd 0.36705 0.85822 0.11564 0.0
O45 O 0.34471 0.87394 0.19069 0.0
Cd46 Cd 0.34133 0.82658 0.17377 0.0
C47 C 0.40832 0.82327 0.16562 0.0
O48 O 0.32399 0.83925 0.12293 0.0
O49 O 0.33396 0.798 0.1245 0.0
O50 O 0.29925 0.82321 0.2022 0.0
C51 C 0.32223 0.81677 0.10994 0.0
O52 O 0.40556 0.83632 0.13935 0.0
C53 C 0.30466 0.80159 0.21637 0.0
O54 O 0.38825 0.81755 0.18305 0.0
O55 O 0.32783 0.79238 0.21228 0.0
C56 C 0.08384 0.61595 0.32643 0.0
O57 O 0.08325 0.5997 0.35004 0.0
Cd58 Cd 0.12146 0.58397 0.37813 0.0
O59 O 0.1058 0.62502 0.31576 0.0
Cd60 Cd 0.15375 0.62123 0.3279 0.0
C61 C 0.15379 0.55464 0.31421 0.0
O62 O 0.14576 0.62399 0.38494 0.0
O63 O 0.18704 0.61986 0.37214 0.0
O64 O 0.15824 0.668 0.31581 0.0
C65 C 0.16967 0.62362 0.39396 0.0
O66 O 0.14068 0.55223 0.34051 0.0
C67 C 0.17717 0.66518 0.29579 0.0
O68 O 0.16068 0.57737 0.30385 0.0
O69 O 0.18431 0.64167 0.28928 0.0
C70 C 0.34577 0.07284 0.28738 0.0
O71 O 0.35868 0.07655 0.31349 0.0
Cd72 Cd 0.36313 0.11785 0.34006 0.0
O73 O 0.33387 0.09196 0.27325 0.0
Cd74 Cd 0.32705 0.14018 0.2827 0.0
C75 C 0.39322 0.15187 0.27773 0.0
O76 O 0.31855 0.13343 0.33879 0.0
O77 O 0.32257 0.17446 0.32615 0.0
O78 O 0.28147 0.13679 0.26389 0.0
C79 C 0.31621 0.15727 0.34726 0.0
O80 O 0.39498 0.14119 0.30571 0.0
C81 C 0.28294 0.1565 0.24483 0.0
O82 O 0.37095 0.1535 0.26335 0.0
O83 O 0.30549 0.16741 0.24175 0.0
C84 C 0.90051 0.36534 0.285 0.0
O85 O 0.9052 0.37642 0.31214 0.0
Cd86 Cd 0.87423 0.38366 0.35458 0.0
O87 O 0.87726 0.35715 0.27796 0.0
Cd88 Cd 0.83322 0.35751 0.30575 0.0
C89 C 0.83357 0.42471 0.31142 0.0
O90 O 0.8526 0.34158 0.35559 0.0
O91 O 0.81112 0.35086 0.35871 0.0
O92 O 0.82296 0.31797 0.27366 0.0
C93 C 0.83136 0.34061 0.3718 0.0
O94 O 0.84996 0.42217 0.33472 0.0
C95 C 0.79842 0.32332 0.27166 0.0
O96 O 0.82512 0.40449 0.2962 0.0
O97 O 0.79078 0.34518 0.28354 0.0
C98 C 0.62476 0.92102 0.31529 0.0
O99 O 0.60921 0.91749 0.33924 0.0
Cd100 Cd 0.59859 0.8754 0.36168 0.0
O101 O 0.63627 0.90142 0.30173 0.0
Cd102 Cd 0.63931 0.85263 0.30897 0.0
C103 C 0.57375 0.84402 0.2939 0.0
O104 O 0.6409 0.85509 0.36707 0.0
O105 O 0.63821 0.81544 0.34812 0.0
O106 O 0.68681 0.85432 0.29936 0.0
C107 C 0.64134 0.83049 0.37247 0.0
O108 O 0.56974 0.85474 0.3215 0.0
C109 C 0.6869 0.83639 0.27778 0.0
O110 O 0.59717 0.8413 0.28281 0.0
O111 O 0.66453 0.82734 0.26902 0.0
C112 C 0.86207 0.56949 0.81789 0.0
O113 O 0.87725 0.57093 0.84247 0.0
Cd114 Cd 0.88638 0.61062 0.87145 0.0
O115 O 0.85044 0.59005 0.80695 0.0
Cd116 Cd 0.84735 0.63778 0.82079 0.0
C117 C 0.9134 0.64783 0.80991 0.0
O118 O 0.84336 0.62951 0.87794 0.0
O119 O 0.84637 0.67077 0.86522 0.0
O120 O 0.80033 0.63759 0.80817 0.0
C121 C 0.84222 0.65338 0.8869 0.0
O122 O 0.9167 0.63488 0.83617 0.0
C123 C 0.80153 0.65669 0.78818 0.0
O124 O 0.89029 0.65133 0.79831 0.0
O125 O 0.82435 0.66606 0.78199 0.0
C126 C 0.40746 0.87324 0.80901 0.0
O127 O 0.40835 0.88926 0.8328 0.0
Cd128 Cd 0.37028 0.90302 0.86302 0.0
O129 O 0.38546 0.86346 0.79961 0.0
Cd130 Cd 0.33805 0.86535 0.8147 0.0
C131 C 0.33466 0.93175 0.80143 0.0
O132 O 0.34737 0.86233 0.87191 0.0
O133 O 0.30589 0.86617 0.85946 0.0
O134 O 0.33527 0.81832 0.80388 0.0
C135 C 0.32339 0.86192 0.88093 0.0
O136 O 0.34839 0.93434 0.82719 0.0
C137 C 0.31538 0.81992 0.78516 0.0
O138 O 0.32849 0.90888 0.7909 0.0
O139 O 0.30703 0.84297 0.77833 0.0
C140 C 0.13733 0.41049 0.80081 0.0
O141 O 0.12717 0.40648 0.82866 0.0
Cd142 Cd 0.12633 0.36465 0.85475 0.0
O143 O 0.14808 0.39161 0.78495 0.0
Cd144 Cd 0.15678 0.34356 0.79293 0.0
C145 C 0.091 0.33046 0.79719 0.0
O146 O 0.17092 0.34969 0.84739 0.0
O147 O 0.16508 0.30885 0.83488 0.0
O148 O 0.20028 0.34866 0.76851 0.0
C149 C 0.17404 0.3257 0.8549 0.0
O150 O 0.09163 0.34098 0.82531 0.0
C151 C 0.19806 0.32897 0.7496 0.0
O152 O 0.1118 0.32938 0.7797 0.0
O153 O 0.17577 0.31728 0.74908 0.0
C154 C 0.58458 0.11239 0.78426 0.0
O155 O 0.58218 0.09722 0.80877 0.0
Cd156 Cd 0.61729 0.08227 0.84256 0.0
O157 O 0.60723 0.12133 0.77573 0.0
Cd158 Cd 0.65409 0.11878 0.79442 0.0
C159 C 0.65482 0.05212 0.78285 0.0
O160 O 0.64138 0.12194 0.84987 0.0
O161 O 0.68327 0.11588 0.84314 0.0
O162 O 0.65873 0.16567 0.78325 0.0
C163 C 0.66413 0.12028 0.86241 0.0
O164 O 0.63989 0.05066 0.8078 0.0
C165 C 0.67969 0.16348 0.76642 0.0
O166 O 0.6626 0.07447 0.77207 0.0
O167 O 0.68802 0.14018 0.7609 0.0
C168 C 0.86197 0.40128 0.68883 0.0
O169 O 0.87444 0.40288 0.66201 0.0
Cd170 Cd 0.88419 0.36797 0.62561 0.0
O171 O 0.85278 0.37917 0.69894 0.0
Cd172 Cd 0.85164 0.33236 0.67912 0.0
C173 C 0.9191 0.3295 0.68003 0.0
O174 O 0.84291 0.34586 0.62511 0.0
O175 O 0.85007 0.30413 0.62919 0.0
O176 O 0.80615 0.32672 0.69739 0.0
C177 C 0.84339 0.32355 0.61148 0.0
O178 O 0.91872 0.34432 0.65496 0.0
C179 C 0.81051 0.30556 0.71312 0.0
O180 O 0.89765 0.32261 0.69407 0.0
O181 O 0.8344 0.29778 0.71482 0.0
C182 C 0.57211 0.83816 0.67818 0.0
O183 O 0.57225 0.84724 0.64935 0.0
Cd184 Cd 0.60907 0.84697 0.61328 0.0
O185 O 0.59274 0.82732 0.69021 0.0
Cd186 Cd 0.63872 0.81785 0.67161 0.0
C187 C 0.65076 0.88362 0.66107 0.0
O188 O 0.62594 0.80307 0.61882 0.0
O189 O 0.66784 0.80907 0.62416 0.0
O190 O 0.6401 0.7747 0.69773 0.0
C191 C 0.64886 0.80049 0.60692 0.0
O192 O 0.63675 0.88236 0.63536 0.0
C193 C 0.66098 0.7795 0.71387 0.0
O194 O 0.65394 0.8633 0.67896 0.0
O195 O 0.67048 0.80272 0.71185 0.0
C196 C 0.1283 0.58946 0.69488 0.0
O197 O 0.11781 0.58956 0.6668 0.0
Cd198 Cd 0.11637 0.62668 0.6319 0.0
O199 O 0.1388 0.61038 0.70662 0.0
Cd200 Cd 0.1448 0.65701 0.68783 0.0
C201 C 0.07818 0.66518 0.68112 0.0
O202 O 0.16098 0.64242 0.63692 0.0
O203 O 0.1533 0.68422 0.63778 0.0
O204 O 0.18766 0.65887 0.71464 0.0
C205 C 0.16419 0.66469 0.62373 0.0
O206 O 0.07974 0.65184 0.65497 0.0
C207 C 0.1837 0.68116 0.72793 0.0
O208 O 0.09877 0.66944 0.69817 0.0
O209 O 0.16086 0.6913 0.72453 0.0
C210 C 0.41949 0.13675 0.65228 0.0
O211 O 0.4176 0.12327 0.62631 0.0
Cd212 Cd 0.37794 0.11708 0.596 0.0
O213 O 0.39937 0.14869 0.66401 0.0
Cd214 Cd 0.352 0.15453 0.64945 0.0
C215 C 0.34033 0.08841 0.65592 0.0
O216 O 0.36029 0.16074 0.59261 0.0
O217 O 0.31896 0.15773 0.60534 0.0
O218 O 0.35284 0.20096 0.66459 0.0
C219 C 0.33636 0.16265 0.5839 0.0
O220 O 0.35286 0.08584 0.62921 0.0
C221 C 0.33327 0.19934 0.6839 0.0
O222 O 0.33765 0.11106 0.66902 0.0
O223 O 0.32367 0.17646 0.68893 0.0
C224 C 0.26129 0.18847 0.20725 0.0
C225 C 0.25895 0.16883 0.23111 0.0
C226 C 0.23963 0.20447 0.19913 0.0
C227 C 0.21525 0.20095 0.2157 0.0
C228 C 0.21223 0.17987 0.23804 0.0
C229 C 0.23414 0.16387 0.24532 0.0
C230 C 0.24343 0.22637 0.17452 0.0
C231 C 0.18657 0.17553 0.25622 0.0
C232 C 0.17919 0.26596 0.22444 0.0
C233 C 0.16119 0.26465 0.1986 0.0
C234 C 0.19565 0.24447 0.23176 0.0
C235 C 0.1943 0.22134 0.2124 0.0
C236 C 0.17486 0.21921 0.18778 0.0
C237 C 0.15835 0.24089 0.18131 0.0
C238 C 0.21572 0.24725 0.25879 0.0
C239 C 0.17288 0.19491 0.16658 0.0
H240 H 0.28039 0.19218 0.19601 0.0
H241 H 0.23224 0.1487 0.26385 0.0
H242 H 0.2269 0.22649 0.15674 0.0
H243 H 0.24336 0.24577 0.18715 0.0
H244 H 0.26242 0.22441 0.16102 0.0
H245 H 0.18603 0.15594 0.26848 0.0
H246 H 0.18431 0.19111 0.27502 0.0
H247 H 0.16935 0.17706 0.23958 0.0
H248 H 0.18127 0.28423 0.23802 0.0
H249 H 0.14447 0.2398 0.16122 0.0
H250 H 0.23592 0.24867 0.24819 0.0
H251 H 0.21531 0.22959 0.27482 0.0
H252 H 0.21214 0.26513 0.27387 0.0
H253 H 0.18978 0.19462 0.14928 0.0
H254 H 0.15418 0.19456 0.15233 0.0
H255 H 0.17405 0.17662 0.18144 0.0
C256 C 0.78663 0.28459 0.23678 0.0
C257 C 0.77912 0.30396 0.2593 0.0
C258 C 0.7684 0.26544 0.22626 0.0
C259 C 0.74246 0.26526 0.23949 0.0
C260 C 0.73497 0.28458 0.26261 0.0
C261 C 0.75328 0.30396 0.27184 0.0
C262 C 0.77677 0.24559 0.20081 0.0
C263 C 0.70771 0.28462 0.27786 0.0
C264 C 0.68557 0.23385 0.19377 0.0
C265 C 0.68384 0.20898 0.20872 0.0
C266 C 0.70508 0.25204 0.20296 0.0
C267 C 0.72272 0.24549 0.22844 0.0
C268 C 0.72082 0.22053 0.244 0.0
C269 C 0.70161 0.20232 0.23353 0.0
C270 C 0.70695 0.27818 0.18522 0.0
C271 C 0.73881 0.21324 0.27193 0.0
H272 H 0.80665 0.28461 0.22717 0.0
H273 H 0.74759 0.3187 0.28969 0.0
H274 H 0.77493 0.22522 0.2106 0.0
H275 H 0.76347 0.24698 0.17938 0.0
H276 H 0.79752 0.24872 0.19259 0.0
H277 H 0.70554 0.30018 0.29676 0.0
H278 H 0.69244 0.28793 0.2589 0.0
H279 H 0.70357 0.26509 0.28915 0.0
H280 H 0.67208 0.23884 0.17418 0.0
H281 H 0.70025 0.18305 0.24502 0.0
H282 H 0.72729 0.28102 0.17553 0.0
H283 H 0.70297 0.29467 0.20232 0.0
H284 H 0.69268 0.27955 0.16471 0.0
H285 H 0.75981 0.21395 0.26397 0.0
H286 H 0.73454 0.19317 0.28166 0.0
H287 H 0.73653 0.22781 0.29193 0.0
C288 C 0.81685 0.75409 0.22646 0.0
C289 C 0.81227 0.72904 0.24008 0.0
C290 C 0.79938 0.77513 0.23235 0.0
C291 C 0.77717 0.77102 0.25277 0.0
C292 C 0.77366 0.74634 0.26857 0.0
C293 C 0.79114 0.72554 0.26178 0.0
C294 C 0.80366 0.80108 0.2149 0.0
C295 C 0.75054 0.7414 0.29117 0.0
C296 C 0.7348 0.82658 0.28606 0.0
C297 C 0.71183 0.82382 0.26714 0.0
C298 C 0.75695 0.81042 0.28064 0.0
C299 C 0.75616 0.79143 0.2554 0.0
C300 C 0.73385 0.79011 0.23457 0.0
C301 C 0.71182 0.80618 0.24088 0.0
C302 C 0.78031 0.8123 0.30346 0.0
C303 C 0.73254 0.77054 0.20687 0.0
H304 H 0.83311 0.75684 0.20951 0.0
H305 H 0.78766 0.70624 0.2725 0.0
H306 H 0.78857 0.80328 0.19547 0.0
H307 H 0.80119 0.81797 0.23185 0.0
H308 H 0.82363 0.80231 0.20358 0.0
H309 H 0.75226 0.72218 0.30413 0.0
H310 H 0.74905 0.75746 0.30947 0.0
H311 H 0.73183 0.74134 0.277 0.0
H312 H 0.7349 0.84015 0.30647 0.0
H313 H 0.69416 0.80415 0.22607 0.0
H314 H 0.79923 0.81224 0.28971 0.0
H315 H 0.78045 0.79479 0.31978 0.0
H316 H 0.77951 0.83041 0.31875 0.0
H317 H 0.75091 0.77149 0.19204 0.0
H318 H 0.71526 0.77415 0.19073 0.0
H319 H 0.73097 0.75017 0.2168 0.0
C320 C 0.25733 0.78955 0.22448 0.0
C321 C 0.28399 0.7861 0.23309 0.0
C322 C 0.23784 0.77188 0.23542 0.0
C323 C 0.24518 0.75072 0.25607 0.0
C324 C 0.27177 0.74828 0.26666 0.0
C325 C 0.29097 0.76582 0.25465 0.0
C326 C 0.20979 0.77485 0.22317 0.0
C327 C 0.28017 0.72641 0.28947 0.0
C328 C 0.19266 0.71168 0.30145 0.0
C329 C 0.19204 0.68816 0.28339 0.0
C330 C 0.20956 0.73251 0.29257 0.0
C331 C 0.22563 0.7299 0.26454 0.0
C332 C 0.22403 0.70672 0.24529 0.0
C333 C 0.20749 0.68593 0.25523 0.0
C334 C 0.21116 0.75669 0.31404 0.0
C335 C 0.24036 0.70355 0.21471 0.0
H336 H 0.25191 0.80512 0.20759 0.0
H337 H 0.31156 0.76324 0.26145 0.0
H338 H 0.20503 0.75816 0.20664 0.0
H339 H 0.19549 0.77405 0.24366 0.0
H340 H 0.20683 0.79368 0.2097 0.0
H341 H 0.30082 0.72907 0.29823 0.0
H342 H 0.26672 0.72552 0.31083 0.0
H343 H 0.27882 0.70709 0.27679 0.0
H344 H 0.18089 0.71332 0.32345 0.0
H345 H 0.20691 0.66778 0.2412 0.0
H346 H 0.20846 0.77494 0.29942 0.0
H347 H 0.23111 0.7578 0.32529 0.0
H348 H 0.19607 0.75639 0.33375 0.0
H349 H 0.23757 0.72088 0.19849 0.0
H350 H 0.23511 0.68533 0.20106 0.0
H351 H 0.2617 0.70264 0.22108 0.0
C352 C 0.69511 0.76447 0.75339 0.0
C353 C 0.67578 0.75824 0.73023 0.0
C354 C 0.71287 0.74518 0.76447 0.0
C355 C 0.71158 0.7193 0.7514 0.0
C356 C 0.69111 0.71252 0.72944 0.0
C357 C 0.67321 0.73207 0.71937 0.0
C358 C 0.73399 0.75294 0.78867 0.0
C359 C 0.68932 0.68524 0.71467 0.0
C360 C 0.77867 0.68613 0.74856 0.0
C361 C 0.77735 0.66945 0.77572 0.0
C362 C 0.75677 0.70138 0.73932 0.0
C363 C 0.73329 0.70035 0.75821 0.0
C364 C 0.73148 0.68271 0.78485 0.0
C365 C 0.75351 0.66722 0.7931 0.0
C366 C 0.75918 0.71949 0.71019 0.0
C367 C 0.70692 0.68139 0.80583 0.0
H368 H 0.69699 0.78467 0.76196 0.0
H369 H 0.65835 0.72725 0.70128 0.0
H370 H 0.73517 0.73816 0.80859 0.0
H371 H 0.75358 0.75339 0.77638 0.0
H372 H 0.73024 0.77273 0.79946 0.0
H373 H 0.67041 0.68219 0.70137 0.0
H374 H 0.70597 0.68244 0.69733 0.0
H375 H 0.69116 0.66977 0.73369 0.0
H376 H 0.79705 0.68774 0.735 0.0
H377 H 0.75251 0.65445 0.81429 0.0
H378 H 0.75902 0.7404 0.71838 0.0
H379 H 0.74204 0.71674 0.69365 0.0
H380 H 0.77772 0.71597 0.69624 0.0
H381 H 0.70489 0.70011 0.81969 0.0
H382 H 0.70763 0.66469 0.82341 0.0
H383 H 0.68893 0.67928 0.79057 0.0
C384 C 0.23163 0.69223 0.73092 0.0
C385 C 0.20569 0.69648 0.74205 0.0
C386 C 0.25199 0.71006 0.7385 0.0
C387 C 0.24633 0.7322 0.75835 0.0
C388 C 0.22064 0.73539 0.77173 0.0
C389 C 0.20049 0.71767 0.76301 0.0
C390 C 0.279 0.70625 0.72333 0.0
C391 C 0.21409 0.75831 0.79387 0.0
C392 C 0.30163 0.77332 0.79482 0.0
C393 C 0.3006 0.7961 0.77534 0.0
C394 C 0.28449 0.75198 0.78916 0.0
C395 C 0.26645 0.75327 0.76291 0.0
C396 C 0.26647 0.77557 0.74199 0.0
C397 C 0.28332 0.79693 0.74875 0.0
C398 C 0.28466 0.72879 0.81236 0.0
C399 C 0.24801 0.7773 0.71316 0.0
H400 H 0.23565 0.67596 0.71446 0.0
H401 H 0.18046 0.72087 0.77175 0.0
H402 H 0.2824 0.72186 0.70477 0.0
H403 H 0.29481 0.70824 0.74189 0.0
H404 H 0.28096 0.68664 0.71138 0.0
H405 H 0.19423 0.75616 0.80527 0.0
H406 H 0.22915 0.7601 0.81339 0.0
H407 H 0.21441 0.77701 0.77972 0.0
H408 H 0.31481 0.77275 0.81563 0.0
H409 H 0.2826 0.8145 0.73362 0.0
H410 H 0.28589 0.70987 0.7988 0.0
H411 H 0.26583 0.72847 0.82635 0.0
H412 H 0.30142 0.72976 0.82984 0.0
H413 H 0.24956 0.75915 0.69811 0.0
H414 H 0.25231 0.79474 0.69755 0.0
H415 H 0.22722 0.77873 0.72181 0.0
C416 C 0.21823 0.29779 0.70981 0.0
C417 C 0.22144 0.31732 0.73361 0.0
C418 C 0.2397 0.28213 0.7 0.0
C419 C 0.26472 0.28581 0.71493 0.0
C420 C 0.26852 0.30685 0.73709 0.0
C421 C 0.24682 0.32258 0.74595 0.0
C422 C 0.23509 0.26037 0.67549 0.0
C423 C 0.29484 0.31128 0.75367 0.0
C424 C 0.30204 0.22134 0.72211 0.0
C425 C 0.3197 0.22319 0.69594 0.0
C426 C 0.28518 0.24241 0.72985 0.0
C427 C 0.28564 0.26557 0.71041 0.0
C428 C 0.30448 0.26812 0.68509 0.0
C429 C 0.32154 0.24692 0.67836 0.0
C430 C 0.26582 0.23926 0.75766 0.0
C431 C 0.30535 0.29236 0.66363 0.0
H432 H 0.19867 0.29386 0.70003 0.0
H433 H 0.24939 0.33766 0.76443 0.0
H434 H 0.25108 0.26025 0.65694 0.0
H435 H 0.23544 0.24092 0.68803 0.0
H436 H 0.21571 0.26248 0.66294 0.0
H437 H 0.29572 0.33079 0.76606 0.0
H438 H 0.29797 0.29558 0.77216 0.0
H439 H 0.3114 0.31002 0.73596 0.0
H440 H 0.30073 0.20304 0.73582 0.0
H441 H 0.33507 0.24833 0.65791 0.0
H442 H 0.24538 0.23768 0.74791 0.0
H443 H 0.26647 0.25686 0.77376 0.0
H444 H 0.26998 0.22136 0.7725 0.0
H445 H 0.28781 0.29237 0.64736 0.0
H446 H 0.3235 0.29293 0.64829 0.0
H447 H 0.30447 0.31069 0.67841 0.0
C448 C 0.71433 0.18523 0.73222 0.0
C449 C 0.69517 0.18698 0.75679 0.0
C450 C 0.73117 0.20663 0.72544 0.0
C451 C 0.7292 0.23 0.74432 0.0
C452 C 0.70942 0.23211 0.76859 0.0
C453 C 0.69241 0.21064 0.77428 0.0
C454 C 0.75158 0.20394 0.69875 0.0
C455 C 0.70706 0.25649 0.7896 0.0
C456 C 0.79328 0.26896 0.748 0.0
C457 C 0.78854 0.28892 0.72509 0.0
C458 C 0.77354 0.25046 0.7558 0.0
C459 C 0.74879 0.2516 0.73964 0.0
C460 C 0.74354 0.27236 0.71746 0.0
C461 C 0.76342 0.29099 0.71073 0.0
C462 C 0.77958 0.22903 0.78032 0.0
C463 C 0.71756 0.27399 0.69937 0.0
H464 H 0.7164 0.16699 0.71859 0.0
H465 H 0.67775 0.21196 0.79352 0.0
H466 H 0.75034 0.22102 0.68183 0.0
H467 H 0.77175 0.20401 0.70945 0.0
H468 H 0.74903 0.18541 0.68456 0.0
H469 H 0.68954 0.25567 0.80598 0.0
H470 H 0.72514 0.25859 0.80473 0.0
H471 H 0.70559 0.27449 0.77425 0.0
H472 H 0.81265 0.26742 0.75923 0.0
H473 H 0.75975 0.3063 0.69279 0.0
H474 H 0.7807 0.20961 0.76783 0.0
H475 H 0.76347 0.22771 0.79866 0.0
H476 H 0.79863 0.23253 0.79315 0.0
H477 H 0.71587 0.25693 0.6825 0.0
H478 H 0.71578 0.29253 0.68501 0.0
H479 H 0.70064 0.27279 0.71656 0.0
C480 C 0.17459 0.2949 0.90254 0.0
C481 C 0.18232 0.3188 0.88812 0.0
C482 C 0.17612 0.29169 0.93642 0.0
C483 C 0.18529 0.31299 0.95576 0.0
C484 C 0.1965 0.33555 0.94075 0.0
C485 C 0.19494 0.33813 0.90699 0.0
C486 C 0.16494 0.2669 0.95162 0.0
C487 C 0.20669 0.35866 0.9604 0.0
C488 C 0.14389 0.33051 0.0289 0.0
C489 C 0.16099 0.32452 0.05461 0.0
C490 C 0.1515 0.32619 -0.0033 0.0
C491 C 0.17671 0.3151 -0.00992 0.0
C492 C 0.19388 0.30834 0.01598 0.0
C493 C 0.18588 0.31341 0.04814 0.0
C494 C 0.13272 0.33421 0.96976 0.0
C495 C 0.22051 0.29573 0.00972 0.0
H496 H 0.16534 0.27967 0.88785 0.0
H497 H 0.20167 0.35633 0.89566 0.0
H498 H 0.17631 0.26123 0.97363 0.0
H499 H 0.14414 0.27055 0.95915 0.0
H500 H 0.16505 0.25012 0.93417 0.0
H501 H 0.21912 0.37217 0.94544 0.0
H502 H 0.1896 0.37011 0.96993 0.0
H503 H 0.21848 0.35184 0.98153 0.0
H504 H 0.12464 0.33913 0.03392 0.0
H505 H 0.19891 0.30838 0.06818 0.0
H506 H 0.12795 0.31688 0.9543 0.0
H507 H 0.14223 0.34931 0.95396 0.0
H508 H 0.11386 0.34253 0.97924 0.0
H509 H 0.2176 0.27615 -0.00191 0.0
H510 H 0.23207 0.29296 0.03246 0.0
H511 H 0.23232 0.30795 -0.00743 0.0
C512 C 0.69165 0.13203 0.91091 0.0
C513 C 0.6675 0.12363 0.89767 0.0
C514 C 0.69368 0.13795 0.94423 0.0
C515 C 0.67109 0.13504 0.9644 0.0
C516 C 0.64698 0.12565 0.95119 0.0
C517 C 0.64547 0.12019 0.91797 0.0
C518 C 0.71962 0.14806 0.9576 0.0
C519 C 0.62253 0.12182 0.97201 0.0
C520 C 0.67065 0.12599 0.0551 0.0
C521 C 0.65944 0.15001 0.0652 0.0
C522 C 0.677 0.12163 0.0224 0.0
C523 C 0.672 0.14181 -0.0006 0.0
C524 C 0.66298 0.16692 0.0099 0.0
C525 C 0.65674 0.17074 0.04283 0.0
C526 C 0.6867 0.09463 0.01217 0.0
C527 C 0.65777 0.18902 0.98603 0.0
H528 H 0.70863 0.13486 0.89509 0.0
H529 H 0.62683 0.11347 0.90777 0.0
H530 H 0.71726 0.16893 0.96539 0.0
H531 H 0.7255 0.13652 0.9794 0.0
H532 H 0.73585 0.14705 0.93935 0.0
H533 H 0.60558 0.11367 0.95799 0.0
H534 H 0.62692 0.10814 -0.00756 0.0
H535 H 0.61641 0.141 0.98273 0.0
H536 H 0.6733 0.11005 0.07246 0.0
H537 H 0.64849 0.18948 0.05067 0.0
H538 H 0.70292 0.09632 -0.00595 0.0
H539 H 0.67021 0.08363 0.0005 0.0
H540 H 0.69389 0.08285 0.03322 0.0
H541 H 0.67419 0.19065 0.96816 0.0
H542 H 0.65528 0.20838 -0.00156 0.0
H543 H 0.63938 0.18465 0.97226 0.0
C544 C 0.83826 0.63997 0.94471 0.0
C545 C 0.83755 0.6601 0.92128 0.0
C546 C 0.835 0.64564 0.97771 0.0
C547 C 0.83058 0.67209 0.98752 0.0
C548 C 0.82864 0.69241 0.96391 0.0
C549 C 0.83241 0.68619 0.93093 0.0
C550 C 0.83753 0.62342 0.00218 0.0
C551 C 0.82342 0.72073 0.97357 0.0
C552 C 0.81034 0.6748 0.07597 0.0
C553 C 0.83516 0.67763 0.09082 0.0
C554 C 0.80802 0.67532 0.04192 0.0
C555 C 0.83111 0.6784 0.02266 0.0
C556 C 0.85583 0.68324 0.03767 0.0
C557 C 0.8575 0.68297 0.07158 0.0
C558 C 0.78123 0.67077 0.02663 0.0
C559 C 0.88097 0.68642 0.01801 0.0
H560 H 0.8421 0.61973 0.93735 0.0
H561 H 0.8315 0.70174 0.91277 0.0
H562 H 0.85507 0.6269 0.01788 0.0
H563 H 0.81986 0.62281 0.01824 0.0
H564 H 0.83975 0.60378 -0.00964 0.0
H565 H 0.8185 0.73332 0.95224 0.0
H566 H 0.8069 0.72177 -0.00863 0.0
H567 H 0.84126 0.72905 0.98556 0.0
H568 H 0.79295 0.67109 0.0908 0.0
H569 H 0.8767 0.68563 0.08296 0.0
H570 H 0.78001 0.65011 0.01766 0.0
H571 H 0.77832 0.68406 0.00543 0.0
H572 H 0.76486 0.67398 0.04429 0.0
H573 H 0.88613 0.66724 0.0065 0.0
H574 H 0.89798 0.69286 0.03323 0.0
H575 H 0.87812 0.70104 -0.00179 0.0
C576 C 0.32232 0.79657 0.05442 0.0
C577 C 0.31194 0.81482 0.07659 0.0
C578 C 0.31823 0.80004 0.02089 0.0
C579 C 0.3037 0.8223 0.00985 0.0
C580 C 0.2903 0.83853 0.03246 0.0
C581 C 0.29455 0.83452 0.06566 0.0
C582 C 0.33198 0.78175 -0.00267 0.0
C583 C 0.27441 0.86232 0.02179 0.0
C584 C 0.33433 0.85906 0.93929 0.0
C585 C 0.31665 0.85348 0.91407 0.0
C586 C 0.33013 0.84901 0.97053 0.0
C587 C 0.30796 0.83245 0.97645 0.0
C588 C 0.28987 0.82684 0.95108 0.0
C589 C 0.29432 0.8377 0.92007 0.0
C590 C 0.34956 0.85609 -0.00286 0.0
C591 C 0.26645 0.80875 0.95637 0.0
H592 H 0.33544 0.78107 0.06293 0.0
H593 H 0.28595 0.84824 0.08299 0.0
H594 H 0.31933 0.77789 0.97578 0.0
H595 H 0.35054 0.7912 -0.01136 0.0
H596 H 0.33717 0.76259 0.00896 0.0
H597 H 0.26142 0.86978 0.0416 0.0
H598 H 0.28819 0.87844 0.01463 0.0
H599 H 0.26196 0.85759 0.00035 0.0
H600 H 0.35159 0.87126 0.93449 0.0
H601 H 0.28096 0.83299 0.90025 0.0
H602 H 0.3591 0.83791 0.00668 0.0
H603 H 0.339 0.86567 0.0177 0.0
H604 H 0.36536 0.86973 0.98851 0.0
H605 H 0.27362 0.78819 0.95975 0.0
H606 H 0.25253 0.80907 0.93544 0.0
H607 H 0.25547 0.81428 0.97875 0.0
C608 C 0.1675 0.68489 0.56833 0.0
C609 C 0.1759 0.66606 0.59102 0.0
C610 C 0.17317 0.68149 0.53514 0.0
C611 C 0.18738 0.65876 0.52496 0.0
C612 C 0.1989 0.64184 0.54835 0.0
C613 C 0.19296 0.64569 0.58121 0.0
C614 C 0.16132 0.70042 0.51081 0.0
C615 C 0.21454 0.61764 0.53859 0.0
C616 C 0.158 0.62432 0.45214 0.0
C617 C 0.17637 0.63021 0.4277 0.0
C618 C 0.1617 0.6333 0.48389 0.0
C619 C 0.18421 0.64895 0.49126 0.0
C620 C 0.20325 0.65447 0.46685 0.0
C621 C 0.19917 0.64482 0.43518 0.0
C622 C 0.1412 0.62635 0.5094 0.0
C623 C 0.22724 0.67139 0.47375 0.0
H624 H 0.15465 0.70093 0.57604 0.0
H625 H 0.20007 0.63153 0.59898 0.0
H626 H 0.17528 0.70416 0.49044 0.0
H627 H 0.14305 0.69158 0.50042 0.0
H628 H 0.15598 0.7196 0.52227 0.0
H629 H 0.22641 0.60976 0.55918 0.0
H630 H 0.20063 0.60193 0.53054 0.0
H631 H 0.22802 0.62208 0.51798 0.0
H632 H 0.14041 0.61294 0.44623 0.0
H633 H 0.21314 0.6497 0.41602 0.0
H634 H 0.13195 0.64466 0.519 0.0
H635 H 0.15075 0.61604 0.53015 0.0
H636 H 0.12526 0.61341 0.49968 0.0
H637 H 0.22098 0.69234 0.47602 0.0
H638 H 0.24224 0.67004 0.45401 0.0
H639 H 0.23666 0.66566 0.4971 0.0
C640 C 0.30368 0.17488 0.54068 0.0
C641 C 0.32955 0.16801 0.54974 0.0
C642 C 0.29715 0.17864 0.5078 0.0
C643 C 0.31682 0.17469 0.48372 0.0
C644 C 0.3432 0.16886 0.49296 0.0
C645 C 0.34926 0.16585 0.52589 0.0
C646 C 0.26902 0.18564 0.49884 0.0
C647 C 0.36474 0.16411 0.46802 0.0
C648 C 0.30355 0.14338 0.40285 0.0
C649 C 0.31084 0.1638 0.38155 0.0
C650 C 0.30303 0.14739 0.43643 0.0
C651 C 0.30964 0.17259 0.44894 0.0
C652 C 0.3142 0.19403 0.42745 0.0
C653 C 0.31494 0.18934 0.39377 0.0
C654 C 0.29806 0.12394 0.45848 0.0
C655 C 0.32034 0.22137 0.44004 0.0
H656 H 0.28851 0.17701 0.5592 0.0
H657 H 0.36933 0.16071 0.53283 0.0
H658 H 0.26858 0.19998 0.47837 0.0
H659 H 0.25841 0.16756 0.49085 0.0
H660 H 0.25808 0.19417 0.51983 0.0
H661 H 0.38449 0.16118 0.47938 0.0
H662 H 0.3599 0.14625 0.4535 0.0
H663 H 0.36605 0.18105 0.45094 0.0
H664 H 0.2997 0.12371 0.39343 0.0
H665 H 0.32008 0.2053 0.37728 0.0
H666 H 0.28359 0.12908 0.47778 0.0
H667 H 0.31684 0.11824 0.47064 0.0
H668 H 0.29046 0.10651 0.44494 0.0
H669 H 0.30774 0.22621 0.46138 0.0
H670 H 0.31739 0.23669 0.42098 0.0
H671 H 0.34132 0.22219 0.44806 0.0
C672 C 0.85529 0.32511 0.42108 0.0
C673 C 0.83124 0.33097 0.40563 0.0
C674 C 0.85604 0.31895 0.45425 0.0
C675 C 0.83212 0.31837 0.47221 0.0
C676 C 0.80759 0.32209 0.45617 0.0
C677 C 0.80745 0.32858 0.42299 0.0
C678 C 0.88263 0.31537 0.47054 0.0
C679 C 0.78167 0.32108 0.47449 0.0
C680 C 0.83729 0.29686 0.56058 0.0
C681 C 0.83956 0.32145 0.57606 0.0
C682 C 0.83393 0.29537 0.52668 0.0
C683 C 0.8333 0.319 0.50817 0.0
C684 C 0.83528 0.34382 0.52384 0.0
C685 C 0.83821 0.34471 0.55756 0.0
C686 C 0.83144 0.26864 0.51065 0.0
C687 C 0.835 0.36951 0.50493 0.0
H688 H 0.87373 0.3266 0.40765 0.0
H689 H 0.78878 0.33261 0.41094 0.0
H690 H 0.88708 0.33304 0.48561 0.0
H691 H 0.88234 0.29798 0.48699 0.0
H692 H 0.89891 0.31282 0.45259 0.0
H693 H 0.76445 0.31936 0.45779 0.0
H694 H 0.78137 0.30416 0.49171 0.0
H695 H 0.77933 0.33945 0.48897 0.0
H696 H 0.83811 0.27887 0.57492 0.0
H697 H 0.83994 0.3638 0.56938 0.0
H698 H 0.84899 0.26494 0.49503 0.0
H699 H 0.81374 0.26816 0.49465 0.0
H700 H 0.82986 0.25235 0.52872 0.0
H701 H 0.85184 0.36996 0.48754 0.0
H702 H 0.83645 0.38712 0.52099 0.0
H703 H 0.81649 0.37108 0.49053 0.0
C704 C 0.67605 0.79897 0.55606 0.0
C705 C 0.65211 0.79395 0.57222 0.0
C706 C 0.67722 0.79862 0.52196 0.0
C707 C 0.65386 0.79335 0.50402 0.0
C708 C 0.63057 0.7852 0.52036 0.0
C709 C 0.63002 0.78552 0.55436 0.0
C710 C 0.70261 0.80672 0.50527 0.0
C711 C 0.60525 0.77931 0.50218 0.0
C712 C 0.64103 0.83764 0.43198 0.0
C713 C 0.64462 0.82035 0.40577 0.0
C714 C 0.64435 0.82901 0.46396 0.0
C715 C 0.65181 0.80244 0.4699 0.0
C716 C 0.65589 0.78489 0.44355 0.0
C717 C 0.65197 0.79403 0.41161 0.0
C718 C 0.63947 0.84833 0.49142 0.0
C719 C 0.6642 0.75658 0.44911 0.0
H720 H 0.69335 0.80497 0.56984 0.0
H721 H 0.61162 0.78096 0.56685 0.0
H722 H 0.70584 0.79503 0.48277 0.0
H723 H 0.70134 0.82787 0.49821 0.0
H724 H 0.72003 0.80423 0.52151 0.0
H725 H 0.59068 0.76861 0.51764 0.0
H726 H 0.59613 0.7982 0.49418 0.0
H727 H 0.60923 0.76735 0.48011 0.0
H728 H 0.63529 0.85799 0.42752 0.0
H729 H 0.65497 0.78072 0.39127 0.0
H730 H 0.65755 0.8503 0.50656 0.0
H731 H 0.62336 0.84087 0.5074 0.0
H732 H 0.63383 0.86829 0.48249 0.0
H733 H 0.68151 0.75576 0.4657 0.0
H734 H 0.66937 0.74638 0.42602 0.0
H735 H 0.64785 0.74552 0.46102 0.0
C736 C 0.17704 0.53126 0.26847 0.0
C737 C 0.1584 0.53094 0.29383 0.0
C738 C 0.17926 0.50978 0.24692 0.0
C739 C 0.16193 0.4879 0.25037 0.0
C740 C 0.14377 0.48711 0.27664 0.0
C741 C 0.14246 0.50847 0.29824 0.0
C742 C 0.19942 0.51094 0.2198 0.0
C743 C 0.1246 0.46437 0.28088 0.0
C744 C 0.13914 0.44871 0.17716 0.0
C745 C 0.15112 0.4241 0.18275 0.0
C746 C 0.14349 0.47006 0.19822 0.0
C747 C 0.16077 0.46693 0.22507 0.0
C748 C 0.17439 0.44272 0.22951 0.0
C749 C 0.16911 0.42142 0.20854 0.0
C750 C 0.1282 0.49538 0.19292 0.0
C751 C 0.1936 0.43893 0.25726 0.0
H752 H 0.18957 0.54848 0.26511 0.0
H753 H 0.12794 0.50808 0.3177 0.0
H754 H 0.21033 0.49194 0.21803 0.0
H755 H 0.18919 0.51411 0.19625 0.0
H756 H 0.21393 0.52722 0.22336 0.0
H757 H 0.11243 0.46631 0.30331 0.0
H758 H 0.11108 0.46343 0.25963 0.0
H759 H 0.13547 0.44534 0.28195 0.0
H760 H 0.12518 0.45091 0.15732 0.0
H761 H 0.17866 0.40252 0.21274 0.0
H762 H 0.14182 0.5126 0.19265 0.0
H763 H 0.11408 0.49834 0.21334 0.0
H764 H 0.11684 0.4952 0.16978 0.0
H765 H 0.20713 0.45617 0.25921 0.0
H766 H 0.20564 0.42069 0.25429 0.0
H767 H 0.1825 0.43745 0.2805 0.0
C768 C 0.51444 0.14653 0.16036 0.0
C769 C 0.53597 0.16297 0.16792 0.0
C770 C 0.49018 0.14911 0.17669 0.0
C771 C 0.48716 0.16902 0.20061 0.0
C772 C 0.50799 0.18723 0.20618 0.0
C773 C 0.53232 0.18379 0.19005 0.0
C774 C 0.46859 0.12906 0.17025 0.0
C775 C 0.50522 0.20928 0.23068 0.0
C776 C 0.41677 0.17575 0.23252 0.0
C777 C 0.41775 0.15967 0.26036 0.0
C778 C 0.43964 0.18047 0.2138 0.0
C779 C 0.46379 0.16821 0.2227 0.0
C780 C 0.46509 0.15288 0.25151 0.0
C781 C 0.44215 0.14907 0.27016 0.0
C782 C 0.4377 0.19765 0.18385 0.0
C783 C 0.49036 0.13915 0.26168 0.0
H784 H 0.51705 0.1304 0.14329 0.0
H785 H 0.54877 0.19678 0.19574 0.0
H786 H 0.46606 0.11623 0.19198 0.0
H787 H 0.4494 0.1391 0.16585 0.0
H788 H 0.47316 0.11628 0.14899 0.0
H789 H 0.5209 0.22453 0.22764 0.0
H790 H 0.48554 0.21892 0.22852 0.0
H791 H 0.50674 0.20104 0.25564 0.0
H792 H 0.39803 0.18423 0.22498 0.0
H793 H 0.4431 0.13659 0.2916 0.0
H794 H 0.43853 0.18507 0.16177 0.0
H795 H 0.45466 0.21162 0.18263 0.0
H796 H 0.41894 0.20913 0.18328 0.0
H797 H 0.4961 0.12443 0.24293 0.0
H798 H 0.4883 0.12878 0.2854 0.0
H799 H 0.50678 0.15365 0.26362 0.0
C800 C 0.84247 0.54741 0.19973 0.0
C801 C 0.83133 0.57138 0.21014 0.0
C802 C 0.83846 0.52397 0.21728 0.0
C803 C 0.82246 0.52433 0.2456 0.0
C804 C 0.80961 0.54802 0.25496 0.0
C805 C 0.81444 0.57138 0.23731 0.0
C806 C 0.85276 0.49918 0.2066 0.0
C807 C 0.79178 0.54899 0.28445 0.0
C808 C 0.80686 0.45526 0.27625 0.0
C809 C 0.8272 0.45151 0.29907 0.0
C810 C 0.80367 0.47966 0.26033 0.0
C811 C 0.82162 0.50052 0.26688 0.0
C812 C 0.84113 0.49733 0.29131 0.0
C813 C 0.84349 0.47296 0.30735 0.0
C814 C 0.78211 0.48258 0.23517 0.0
C815 C 0.86087 0.51897 0.29882 0.0
H816 H 0.85553 0.54715 0.17877 0.0
H817 H 0.80554 0.58977 0.24534 0.0
H818 H 0.86743 0.49339 0.22542 0.0
H819 H 0.83857 0.48257 0.20398 0.0
H820 H 0.86336 0.50188 0.18311 0.0
H821 H 0.77998 0.56752 0.28534 0.0
H822 H 0.77804 0.53184 0.28465 0.0
H823 H 0.80397 0.54782 0.30685 0.0
H824 H 0.79399 0.43886 0.26999 0.0
H825 H 0.85924 0.47029 0.32496 0.0
H826 H 0.79096 0.48182 0.21047 0.0
H827 H 0.77204 0.50198 0.23768 0.0
H828 H 0.76707 0.46659 0.23712 0.0
H829 H 0.87397 0.52212 0.27744 0.0
H830 H 0.87345 0.51412 0.32019 0.0
H831 H 0.8505 0.5379 0.30364 0.0
C832 C 0.52613 0.84835 0.27911 0.0
C833 C 0.5507 0.83614 0.27391 0.0
C834 C 0.50427 0.84252 0.25941 0.0
C835 C 0.50681 0.8235 0.23433 0.0
C836 C 0.53131 0.81039 0.22961 0.0
C837 C 0.55313 0.81715 0.2492 0.0
C838 C 0.47865 0.85735 0.26491 0.0
C839 C 0.53452 0.7895 0.20369 0.0
C840 C 0.43924 0.80146 0.20505 0.0
C841 C 0.43528 0.81859 0.17862 0.0
C842 C 0.4635 0.80104 0.22177 0.0
C843 C 0.48396 0.81862 0.21229 0.0
C844 C 0.48074 0.8345 0.18418 0.0
C845 C 0.45654 0.83406 0.16747 0.0
C846 C 0.46648 0.78318 0.251 0.0
C847 C 0.5019 0.8538 0.17347 0.0
H848 H 0.52417 0.86316 0.29803 0.0
H849 H 0.57204 0.80751 0.24527 0.0
H850 H 0.47319 0.86839 0.24254 0.0
H851 H 0.46236 0.84323 0.27015 0.0
H852 H 0.48002 0.8716 0.28541 0.0
H853 H 0.5541 0.77953 0.20504 0.0
H854 H 0.5187 0.77435 0.20607 0.0
H855 H 0.53244 0.79859 0.17925 0.0
H856 H 0.423 0.7892 0.21357 0.0
H857 H 0.4537 0.84735 0.14704 0.0
H858 H 0.46462 0.79507 0.27357 0.0
H859 H 0.48635 0.77378 0.25121 0.0
H860 H 0.45111 0.76744 0.2515 0.0
H861 H 0.50317 0.8702 0.19135 0.0
H862 H 0.49766 0.86239 0.14913 0.0
H863 H 0.52157 0.84408 0.17267 0.0
C864 C 0.8749 0.52233 0.80947 0.0
C865 C 0.85851 0.54375 0.80141 0.0
C866 C 0.87309 0.49832 0.79267 0.0
C867 C 0.85426 0.49559 0.76742 0.0
C868 C 0.83685 0.5167 0.7601 0.0
C869 C 0.83929 0.54064 0.77707 0.0
C870 C 0.8922 0.47632 0.80091 0.0
C871 C 0.81635 0.51434 0.73351 0.0
C872 C 0.87306 0.44839 0.70007 0.0
C873 C 0.85888 0.42551 0.70859 0.0
C874 C 0.87132 0.47141 0.71876 0.0
C875 C 0.85479 0.4717 0.74656 0.0
C876 C 0.83992 0.44894 0.755 0.0
C877 C 0.84226 0.42598 0.73598 0.0
C878 C 0.88769 0.49523 0.70914 0.0
C879 C 0.82187 0.44875 0.78433 0.0
H880 H 0.88977 0.52453 0.82829 0.0
H881 H 0.82636 0.55701 0.77095 0.0
H882 H 0.88131 0.45758 0.80526 0.0
H883 H 0.9058 0.47295 0.78007 0.0
H884 H 0.90429 0.48088 0.82278 0.0
H885 H 0.80247 0.53139 0.73328 0.0
H886 H 0.82637 0.51331 0.7095 0.0
H887 H 0.80475 0.49584 0.73651 0.0
H888 H 0.886 0.44823 0.67899 0.0
H889 H 0.83113 0.40842 0.74259 0.0
H890 H 0.90182 0.50015 0.72891 0.0
H891 H 0.87469 0.51268 0.70561 0.0
H892 H 0.89912 0.4919 0.68638 0.0
H893 H 0.83373 0.45146 0.8068 0.0
H894 H 0.81049 0.43001 0.78647 0.0
H895 H 0.80772 0.4655 0.78296 0.0
C896 C 0.52748 0.85786 0.68744 0.0
C897 C 0.54795 0.84124 0.69818 0.0
C898 C 0.50482 0.86197 0.70641 0.0
C899 C 0.50241 0.84891 0.73672 0.0
C900 C 0.52275 0.83177 0.74756 0.0
C901 C 0.54541 0.82824 0.7282 0.0
C902 C 0.48363 0.88061 0.69421 0.0
C903 C 0.52062 0.81734 0.77964 0.0
C904 C 0.45542 0.88068 0.79698 0.0
C905 C 0.43216 0.86607 0.79182 0.0
C906 C 0.47868 0.87484 0.77978 0.0
C907 C 0.47871 0.85373 0.75719 0.0
C908 C 0.45556 0.83839 0.75261 0.0
C909 C 0.43248 0.84485 0.76985 0.0
C910 C 0.50296 0.89181 0.78501 0.0
C911 C 0.45499 0.81557 0.72892 0.0
H912 H 0.52933 0.86809 0.66435 0.0
H913 H 0.56111 0.81531 0.73658 0.0
H914 H 0.4644 0.87007 0.69237 0.0
H915 H 0.48093 0.89708 0.71173 0.0
H916 H 0.48853 0.88912 0.67 0.0
H917 H 0.53778 0.80406 0.78405 0.0
H918 H 0.5194 0.83181 0.79987 0.0
H919 H 0.50218 0.80538 0.78028 0.0
H920 H 0.45532 0.89711 0.81391 0.0
H921 H 0.41463 0.83332 0.76598 0.0
H922 H 0.50794 0.90243 0.76216 0.0
H923 H 0.52024 0.87926 0.79131 0.0
H924 H 0.50006 0.90663 0.80464 0.0
H925 H 0.45774 0.82308 0.70376 0.0
H926 H 0.43604 0.8044 0.73001 0.0
H927 H 0.47155 0.80174 0.73401 0.0
C928 C 0.15193 0.44375 0.75943 0.0
C929 C 0.13663 0.43741 0.78685 0.0
C930 C 0.15126 0.46924 0.74598 0.0
C931 C 0.13467 0.48867 0.76012 0.0
C932 C 0.11934 0.48247 0.78792 0.0
C933 C 0.1206 0.45693 0.80105 0.0
C934 C 0.16801 0.47528 0.7164 0.0
C935 C 0.10117 0.50263 0.80335 0.0
C936 C 0.14708 0.56064 0.73867 0.0
C937 C 0.12892 0.56441 0.71329 0.0
C938 C 0.14908 0.53607 0.75441 0.0
C939 C 0.13228 0.51506 0.74473 0.0
C940 C 0.11338 0.51903 0.71984 0.0
C941 C 0.11203 0.54362 0.70431 0.0
C942 C 0.16956 0.53239 0.78078 0.0
C943 C 0.09487 0.49718 0.70921 0.0
H944 H 0.1645 0.42882 0.74848 0.0
H945 H 0.10866 0.45217 0.82221 0.0
H946 H 0.15503 0.48019 0.69548 0.0
H947 H 0.18071 0.49279 0.72108 0.0
H948 H 0.18089 0.45839 0.70943 0.0
H949 H 0.09129 0.49491 0.8256 0.0
H950 H 0.11247 0.52069 0.80986 0.0
H951 H 0.08567 0.50863 0.78568 0.0
H952 H 0.16024 0.57663 0.7456 0.0
H953 H 0.09778 0.54651 0.6849 0.0
H954 H 0.18395 0.51694 0.77334 0.0
H955 H 0.15993 0.52545 0.80353 0.0
H956 H 0.18059 0.55092 0.78605 0.0
H957 H 0.10648 0.48041 0.69924 0.0
H958 H 0.0806 0.50387 0.69035 0.0
H959 H 0.08353 0.48958 0.73041 0.0
C960 C 0.46575 0.12062 0.66008 0.0
C961 C 0.44503 0.13731 0.66988 0.0
C962 C 0.48923 0.119 0.67806 0.0
C963 C 0.49216 0.13465 0.70635 0.0
C964 C 0.47187 0.15245 0.71558 0.0
C965 C 0.44843 0.15347 0.6973 0.0
C966 C 0.51037 0.09962 0.66762 0.0
C967 C 0.47451 0.16964 0.74543 0.0
C968 C 0.53684 0.1058 0.771 0.0
C969 C 0.56073 0.11922 0.76519 0.0
C970 C 0.51423 0.11112 0.75246 0.0
C971 C 0.51544 0.13053 0.72769 0.0
C972 C 0.53922 0.14472 0.72223 0.0
C973 C 0.56169 0.13878 0.74096 0.0
C974 C 0.48925 0.0954 0.75879 0.0
C975 C 0.54105 0.16576 0.69623 0.0
H976 H 0.46334 0.10809 0.63889 0.0
H977 H 0.4326 0.16659 0.70486 0.0
H978 H 0.52984 0.1097 0.66565 0.0
H979 H 0.51238 0.08384 0.68626 0.0
H980 H 0.50576 0.09018 0.64388 0.0
H981 H 0.45826 0.18438 0.74731 0.0
H982 H 0.47419 0.15707 0.76757 0.0
H983 H 0.49376 0.18028 0.74513 0.0
H984 H 0.5359 0.09065 0.78966 0.0
H985 H 0.58002 0.14938 0.73652 0.0
H986 H 0.48407 0.08369 0.73687 0.0
H987 H 0.47244 0.10894 0.76374 0.0
H988 H 0.49136 0.08164 0.77973 0.0
H989 H 0.53847 0.15663 0.6719 0.0
H990 H 0.56038 0.1763 0.69666 0.0
H991 H 0.52491 0.18044 0.69936 0.0
C992 C 0.64575 0.00473 0.77074 0.0
C993 C 0.66081 0.02755 0.76465 0.0
C994 C 0.64878 0.98198 0.75176 0.0
C995 C 0.66778 0.9817 0.72639 0.0
C996 C 0.68402 0.00416 0.72106 0.0
C997 C 0.68012 0.02701 0.74003 0.0
C998 C 0.63078 0.95858 0.75806 0.0
C999 C 0.70497 0.00433 0.69482 0.0
C1000 C 0.67855 0.91142 0.69822 0.0
C1001 C 0.66011 0.90971 0.67277 0.0
C1002 C 0.68341 0.93559 0.71395 0.0
C1003 C 0.66901 0.95834 0.70448 0.0
C1004 C 0.65205 0.95717 0.67709 0.0
C1005 C 0.64802 0.9329 0.66135 0.0
C1006 C 0.70235 0.93626 0.74233 0.0
C1007 C 0.63609 0.98089 0.66635 0.0
H1008 H 0.63074 0.00493 0.78962 0.0
H1009 H 0.69195 0.04451 0.73532 0.0
H1010 H 0.61861 0.95452 0.73614 0.0
H1011 H 0.64272 0.94063 0.76305 0.0
H1012 H 0.61724 0.96192 0.77899 0.0
H1013 H 0.71852 0.02156 0.69707 0.0
H1014 H 0.71685 0.98588 0.69572 0.0
H1015 H 0.69535 0.00516 0.67058 0.0
H1016 H 0.6883 0.89364 0.70685 0.0
H1017 H 0.63384 0.93181 0.6416 0.0
H1018 H 0.69093 0.93623 0.76543 0.0
H1019 H 0.7145 0.95456 0.74183 0.0
H1020 H 0.71577 0.91884 0.74241 0.0
H1021 H 0.62039 0.98494 0.68462 0.0
H1022 H 0.62649 0.97769 0.64235 0.0
H1023 H 0.6488 -0.00126 0.6648 0.0
C1024 C 0.93501 0.67678 0.76781 0.0
C1025 C 0.93694 0.65678 0.7914 0.0
C1026 C 0.95701 0.68378 0.74857 0.0
C1027 C 0.98114 0.66985 0.75239 0.0
C1028 C 0.98331 0.6501 0.77673 0.0
C1029 C 0.96131 0.64408 0.79617 0.0
C1030 C 0.95421 0.70552 0.72361 0.0
C1031 C 0.00854 0.63443 0.7813 0.0
C1032 C 0.02939 0.65772 0.68372 0.0
C1033 C 0.05174 0.67166 0.69462 0.0
C1034 C 0.00549 0.65847 0.7011 0.0
C1035 C 0.00369 0.67408 0.72961 0.0
C1036 C 0.02527 0.69037 0.73874 0.0
C1037 C 0.04921 0.68871 0.72137 0.0
C1038 C 0.9831 0.64054 0.69068 0.0
C1039 C 0.02377 0.70804 0.76827 0.0
H1040 H 0.91626 0.68683 0.76422 0.0
H1041 H 0.96293 0.62853 0.81425 0.0
H1042 H 0.97141 0.71918 0.72474 0.0
H1043 H 0.95387 0.69682 0.69885 0.0
H1044 H 0.93572 0.71709 0.72713 0.0
H1045 H 0.00704 0.61999 0.80162 0.0
H1046 H 0.01325 0.62346 0.75863 0.0
H1047 H 0.02537 0.64794 0.78627 0.0
H1048 H 0.0311 0.64455 0.66302 0.0
H1049 H 0.06629 0.69984 0.72968 0.0
H1050 H 0.96404 0.65142 0.69043 0.0
H1051 H 0.98108 0.62408 0.70842 0.0
H1052 H 0.9865 0.63194 0.66615 0.0
H1053 H 0.0043 0.71819 0.7695 0.0
H1054 H 0.03975 0.72317 0.76822 0.0
H1055 H 0.02583 0.69588 0.79061 0.0
C1056 C 0.34404 0.04012 0.66724 0.0
C1057 C 0.33179 0.06443 0.67382 0.0
C1058 C 0.33993 0.01816 0.68745 0.0
C1059 C 0.3226 0.02036 0.71445 0.0
C1060 C 0.30845 0.04417 0.7196 0.0
C1061 C 0.31351 0.0661 0.69949 0.0
C1062 C 0.35577 -0.00671 0.68136 0.0
C1063 C 0.28911 0.04695 0.74743 0.0
C1064 C 0.30953 0.95482 0.75692 0.0
C1065 C 0.32854 0.95555 0.78181 0.0
C1066 C 0.30601 0.97655 0.73597 0.0
C1067 C 0.32241 -0.00089 0.73949 0.0
C1068 C 0.34085 0.00031 0.76539 0.0
C1069 C 0.34343 0.97868 0.78644 0.0
C1070 C 0.28551 0.97492 0.70933 0.0
C1071 C 0.35906 0.0238 0.76974 0.0
H1072 H 0.3582 0.03865 0.64746 0.0
H1073 H 0.30373 0.08476 0.70444 0.0
H1074 H 0.3702 0.99042 0.70142 0.0
H1075 H 0.34259 0.97574 0.68103 0.0
H1076 H 0.36684 -0.00592 0.65799 0.0
H1077 H 0.2762 0.06459 0.74448 0.0
H1078 H 0.27643 0.02908 0.74948 0.0
H1079 H 0.30016 0.049 0.77061 0.0
H1080 H 0.29777 0.93709 0.75343 0.0
H1081 H 0.35819 0.97943 0.80556 0.0
H1082 H 0.29551 0.97187 0.68558 0.0
H1083 H 0.27418 -0.00632 0.70767 0.0
H1084 H 0.27142 0.95834 0.71332 0.0
H1085 H 0.37226 0.02566 0.74823 0.0
H1086 H 0.37158 0.02206 0.79186 0.0
H1087 H 0.34738 0.04232 0.77147 0.0
C1088 C 0.04178 0.33392 0.79506 0.0
C1089 C 0.06519 0.32251 0.78319 0.0
C1090 C 0.01767 0.33057 0.77868 0.0
C1091 C 0.01681 0.31484 0.7502 0.0
C1092 C 0.03991 0.30143 0.73968 0.0
C1093 C 0.06397 0.30575 0.75603 0.0
C1094 C -0.00638 0.3456 0.79042 0.0
C1095 C 0.03956 0.28376 0.71011 0.0
C1096 C 0.94717 0.30276 0.71833 0.0
C1097 C 0.94494 0.32294 0.69502 0.0
C1098 C 0.97106 0.29867 0.73518 0.0
C1099 C 0.99285 0.31567 0.7292 0.0
C1100 C 0.99096 0.33541 0.70485 0.0
C1101 C 0.96717 0.33855 0.6878 0.0
C1102 C 0.97264 0.27685 0.76019 0.0
C1103 C 0.01356 0.35428 0.69806 0.0
H1104 H 0.04256 0.34692 0.81601 0.0
H1105 H 0.08195 0.2966 0.74699 0.0
H1106 H 0.98842 0.36111 0.77239 0.0
H1107 H 0.97632 0.33219 0.79264 0.0
H1108 H -0.00297 0.35526 0.81434 0.0
H1109 H 0.05752 0.27112 0.70872 0.0
H1110 H 0.02174 0.27087 0.71028 0.0
H1111 H 0.03868 0.29608 0.68778 0.0
H1112 H 0.93012 0.29047 0.72381 0.0
H1113 H 0.96562 0.35425 0.66991 0.0
H1114 H 0.97234 0.28553 0.78497 0.0
H1115 H 0.99149 0.26575 0.75762 0.0
H1116 H 0.95581 0.26277 0.75811 0.0
H1117 H 0.01772 0.36624 0.72013 0.0
H1118 H 0.00917 0.36798 0.67761 0.0
H1119 H 0.03184 0.34314 0.69212 0.0
C1120 C 0.3621 0.02635 0.28497 0.0
C1121 C 0.34499 0.04602 0.2732 0.0
C1122 C 0.36245 0.00106 0.27114 0.0
C1123 C 0.34509 -0.00475 0.24513 0.0
C1124 C 0.32722 0.01472 0.23373 0.0
C1125 C 0.32748 0.03999 0.24779 0.0
C1126 C 0.38202 0.98087 0.28365 0.0
C1127 C 0.30827 0.00906 0.20617 0.0
C1128 C 0.36635 0.94244 0.1856 0.0
C1129 C 0.35148 0.92056 0.19606 0.0
C1130 C 0.36447 0.96681 0.20149 0.0
C1131 C 0.34708 0.96945 0.2283 0.0
C1132 C 0.33205 0.94748 0.23911 0.0
C1133 C 0.33456 0.92316 0.22294 0.0
C1134 C 0.38113 0.98973 0.18958 0.0
C1135 C 0.31318 0.94975 0.26751 0.0
H1136 H 0.37572 0.03085 0.30459 0.0
H1137 H 0.31406 0.05503 0.23878 0.0
H1138 H 0.37162 0.9623 0.29035 0.0
H1139 H 0.39644 0.97591 0.26418 0.0
H1140 H 0.39316 0.98808 0.3052 0.0
H1141 H 0.29429 0.02566 0.20186 0.0
H1142 H 0.31959 0.00544 0.18345 0.0
H1143 H 0.29668 0.99089 0.21143 0.0
H1144 H 0.37962 0.94052 0.16497 0.0
H1145 H 0.32292 0.90634 0.23099 0.0
H1146 H 0.394 -0.00297 0.20953 0.0
H1147 H 0.36814 0.00637 0.18215 0.0
H1148 H 0.39387 0.98426 0.16858 0.0
H1149 H 0.32411 0.95592 0.28965 0.0
H1150 H 0.30277 0.93084 0.27271 0.0
H1151 H 0.29817 0.96524 0.26245 0.0
C1152 C 0.94629 0.37588 0.26661 0.0
C1153 C 0.9226 0.36192 0.26176 0.0
C1154 C 0.96794 0.37249 0.24578 0.0
C1155 C 0.96596 0.35452 0.21953 0.0
C1156 C 0.94207 0.34048 0.21422 0.0
C1157 C 0.92054 0.34445 0.23537 0.0
C1158 C 0.99301 0.38807 0.25204 0.0
C1159 C 0.93943 0.32104 0.18655 0.0
C1160 C 0.01732 0.36686 0.15431 0.0
C1161 C 0.0378 0.34995 0.16429 0.0
C1162 C 0.99308 0.36745 0.17094 0.0
C1163 C 0.98921 0.35059 0.19802 0.0
C1164 C 0.00915 0.3323 0.20694 0.0
C1165 C 0.03329 0.33227 0.19004 0.0
C1166 C 0.97231 0.38733 0.16084 0.0
C1167 C 0.00558 0.31381 0.2355 0.0
H1168 H 0.94799 0.38958 0.2868 0.0
H1169 H 0.90231 0.33354 0.23158 0.0
H1170 H 0.00971 0.37434 0.25679 0.0
H1171 H -0.00173 0.39992 0.23022 0.0
H1172 H 0.99107 0.40166 0.27314 0.0
H1173 H 0.91935 0.31207 0.18538 0.0
H1174 H 0.94364 0.33102 0.16304 0.0
H1175 H 0.95423 0.30498 0.18937 0.0
H1176 H 0.02056 0.38049 0.13431 0.0
H1177 H 0.0489 0.31891 0.19764 0.0
H1178 H 0.9709 0.4031 0.17953 0.0
H1179 H 0.95256 0.37779 0.15915 0.0
H1180 H 0.97703 0.3967 0.13706 0.0
H1181 H 0.00601 0.32534 0.25846 0.0
H1182 H 0.0214 0.29855 0.23662 0.0
H1183 H 0.98607 0.30375 0.23422 0.0
C1184 C 0.61375 0.96921 0.31488 0.0
C1185 C 0.62837 0.94801 0.30207 0.0
C1186 C 0.61445 -0.00578 0.30019 0.0
C1187 C 0.63021 -0.00189 0.27211 0.0
C1188 C 0.64645 0.97735 0.26044 0.0
C1189 C 0.64529 0.95249 0.27553 0.0
C1190 C 0.59686 0.01589 0.31334 0.0
C1191 C 0.6637 0.98084 0.23069 0.0
C1192 C 0.60446 0.04412 0.20709 0.0
C1193 C 0.62074 0.06639 0.21093 0.0
C1194 C 0.60707 0.02209 0.22737 0.0
C1195 C 0.62656 0.02222 0.25208 0.0
C1196 C 0.64262 0.04488 0.25677 0.0
C1197 C 0.63944 0.06686 0.23614 0.0
C1198 C 0.58928 -0.00157 0.22183 0.0
C1199 C 0.66362 0.04558 0.28288 0.0
H1200 H 0.60083 0.96605 0.33562 0.0
H1201 H 0.65694 0.93633 0.26574 0.0
H1202 H 0.60783 0.03488 0.31476 0.0
H1203 H 0.57989 0.0189 0.2966 0.0
H1204 H 0.58894 0.01103 0.33787 0.0
H1205 H 0.67778 0.96416 0.22747 0.0
H1206 H 0.65099 0.98207 0.20871 0.0
H1207 H 0.67512 -0.00044 0.23223 0.0
H1208 H 0.58975 0.04375 0.18789 0.0
H1209 H 0.6521 0.08402 0.23913 0.0
H1210 H 0.57852 -0.00661 0.24457 0.0
H1211 H 0.60143 0.98099 0.21506 0.0
H1212 H 0.57451 0.00194 0.20227 0.0
H1213 H 0.65491 0.0403 0.30683 0.0
H1214 H 0.67318 0.06532 0.28484 0.0
H1215 H 0.67912 0.03068 0.2774 0.0
C1216 C 0.03533 0.60998 0.31729 0.0
C1217 C 0.05877 0.62392 0.3107 0.0
C1218 C 0.01177 0.61602 0.30092 0.0
C1219 C 0.01163 0.63669 0.27769 0.0
C1220 C 0.03488 0.65167 0.27201 0.0
C1221 C 0.05827 0.64498 0.28846 0.0
C1222 C 0.9874 0.59943 0.30735 0.0
C1223 C 0.03531 0.67406 0.24766 0.0
C1224 C 0.96267 0.62863 0.20899 0.0
C1225 C 0.94162 0.64476 0.21918 0.0
C1226 C 0.98573 0.62629 0.22757 0.0
C1227 C 0.98797 0.64066 0.25695 0.0
C1228 C 0.96721 0.65762 0.26699 0.0
C1229 C 0.94413 0.65936 0.24803 0.0
C1230 C 0.00738 0.60782 0.21619 0.0
C1231 C 0.96917 0.67345 0.29802 0.0
H1232 H 0.03553 0.59372 0.33451 0.0
H1233 H 0.07624 0.65605 0.28353 0.0
H1234 H 0.97017 0.61228 0.31285 0.0
H1235 H 0.98242 0.58786 0.28524 0.0
H1236 H 0.99025 0.58544 0.32791 0.0
H1237 H 0.05401 0.68564 0.24883 0.0
H1238 H 0.0332 0.66598 0.2227 0.0
H1239 H 0.01837 0.68761 0.25189 0.0
H1240 H 0.96094 0.61725 0.18675 0.0
H1241 H 0.92801 0.67197 0.25596 0.0
H1242 H 0.0103 0.59184 0.23438 0.0
H1243 H 0.02641 0.61867 0.214 0.0
H1244 H 0.00278 0.59859 0.19232 0.0
H1245 H 0.96987 0.65988 0.31923 0.0
H1246 H 0.95214 0.68713 0.30119 0.0
H1247 H 0.98778 0.68516 0.2982 0.0
loop_
_geom_bond_atom_site_label_1
_geom_bond_atom_site_label_2
_geom_bond_distance
_geom_bond_site_symmetry_2
_ccdc_geom_bond_type
C0 O1 1.306 . S
C0 O3 1.160 . S
O1 C0 1.306 . S
O1 Cd2 2.228 . S
Cd2 O1 2.228 . S
Cd2 O6 2.273 . S
Cd2 O10 2.277 . S
O3 C0 1.160 . S
O3 Cd4 2.203 . S
Cd4 O3 2.203 . S
Cd4 O6 2.411 . S
Cd4 O7 2.333 . S
Cd4 O8 2.352 . S
Cd4 O12 2.277 . S
Cd4 O13 2.356 . S
C5 O10 1.209 . S
C5 O12 1.226 . S
O6 Cd2 2.273 . S
O6 Cd4 2.411 . S
O6 C9 1.320 . S
O7 Cd4 2.333 . S
O7 C9 1.214 . S
O8 Cd4 2.352 . S
O8 C11 1.258 . S
C9 O6 1.320 . S
C9 O7 1.214 . S
O10 Cd2 2.277 . S
O10 C5 1.209 . S
C11 O8 1.258 . S
C11 O13 1.282 . S
O12 Cd4 2.277 . S
O12 C5 1.226 . S
O13 Cd4 2.356 . S
O13 C11 1.282 . S
C14 O15 1.306 . S
C14 O17 1.160 . S
O15 C14 1.306 . S
O15 Cd16 2.228 . S
Cd16 O15 2.228 . S
Cd16 O20 2.273 . S
Cd16 O24 2.277 . S
O17 C14 1.160 . S
O17 Cd18 2.203 . S
Cd18 O17 2.203 . S
Cd18 O20 2.411 . S
Cd18 O21 2.333 . S
Cd18 O22 2.352 . S
Cd18 O26 2.277 . S
Cd18 O27 2.356 . S
C19 O24 1.209 . S
C19 O26 1.226 . S
O20 Cd16 2.273 . S
O20 Cd18 2.411 . S
O20 C23 1.320 . S
O21 Cd18 2.333 . S
O21 C23 1.214 . S
O22 Cd18 2.352 . S
O22 C25 1.258 . S
C23 O20 1.320 . S
C23 O21 1.214 . S
O24 Cd16 2.277 . S
O24 C19 1.209 . S
C25 O22 1.258 . S
C25 O27 1.282 . S
O26 Cd18 2.277 . S
O26 C19 1.226 . S
O27 Cd18 2.356 . S
O27 C25 1.282 . S
C28 O29 1.306 . S
C28 O31 1.160 . S
O29 C28 1.306 . S
O29 Cd30 2.228 . S
Cd30 O29 2.228 . S
Cd30 O34 2.273 . S
Cd30 O38 2.277 . S
O31 C28 1.160 . S
O31 Cd32 2.203 . S
Cd32 O31 2.203 . S
Cd32 O34 2.411 . S
Cd32 O35 2.333 . S
Cd32 O36 2.352 . S
Cd32 O40 2.277 . S
Cd32 O41 2.356 . S
C33 O38 1.209 . S
C33 O40 1.226 . S
O34 Cd30 2.273 . S
O34 Cd32 2.411 . S
O34 C37 1.320 . S
O35 Cd32 2.333 . S
O35 C37 1.214 . S
O36 Cd32 2.352 . S
O36 C39 1.258 . S
C37 O34 1.320 . S
C37 O35 1.214 . S
O38 Cd30 2.277 . S
O38 C33 1.209 . S
C39 O36 1.258 . S
C39 O41 1.282 . S
O40 Cd32 2.277 . S
O40 C33 1.226 . S
O41 Cd32 2.356 . S
O41 C39 1.282 . S
C42 O43 1.306 . S
C42 O45 1.160 . S
O43 C42 1.306 . S
O43 Cd44 2.228 . S
Cd44 O43 2.228 . S
Cd44 O48 2.273 . S
Cd44 O52 2.277 . S
O45 C42 1.160 . S
O45 Cd46 2.203 . S
Cd46 O45 2.203 . S
Cd46 O48 2.411 . S
Cd46 O49 2.333 . S
Cd46 O50 2.352 . S
Cd46 O54 2.277 . S
Cd46 O55 2.356 . S
C47 O52 1.209 . S
C47 O54 1.226 . S
O48 Cd44 2.273 . S
O48 Cd46 2.411 . S
O48 C51 1.320 . S
O49 Cd46 2.333 . S
O49 C51 1.214 . S
O50 Cd46 2.352 . S
O50 C53 1.258 . S
C51 O48 1.320 . S
C51 O49 1.214 . S
O52 Cd44 2.277 . S
O52 C47 1.209 . S
C53 O50 1.258 . S
C53 O55 1.282 . S
O54 Cd46 2.277 . S
O54 C47 1.226 . S
O55 Cd46 2.356 . S
O55 C53 1.282 . S
C56 O57 1.306 . S
C56 O59 1.160 . S
O57 C56 1.306 . S
O57 Cd58 2.228 . S
Cd58 O57 2.228 . S
Cd58 O62 2.273 . S
Cd58 O66 2.277 . S
O59 C56 1.160 . S
O59 Cd60 2.203 . S
Cd60 O59 2.203 . S
Cd60 O62 2.411 . S
Cd60 O63 2.333 . S
Cd60 O64 2.352 . S
Cd60 O68 2.277 . S
Cd60 O69 2.356 . S
C61 O66 1.209 . S
C61 O68 1.226 . S
O62 Cd58 2.273 . S
O62 Cd60 2.411 . S
O62 C65 1.320 . S
O63 Cd60 2.333 . S
O63 C65 1.214 . S
O64 Cd60 2.352 . S
O64 C67 1.258 . S
C65 O62 1.320 . S
C65 O63 1.214 . S
O66 Cd58 2.277 . S
O66 C61 1.209 . S
C67 O64 1.258 . S
C67 O69 1.282 . S
O68 Cd60 2.277 . S
O68 C61 1.226 . S
O69 Cd60 2.356 . S
O69 C67 1.282 . S
C70 O71 1.306 . S
C70 O73 1.160 . S
O71 C70 1.306 . S
O71 Cd72 2.228 . S
Cd72 O71 2.228 . S
Cd72 O76 2.273 . S
Cd72 O80 2.277 . S
O73 C70 1.160 . S
O73 Cd74 2.203 . S
Cd74 O73 2.203 . S
Cd74 O76 2.411 . S
Cd74 O77 2.333 . S
Cd74 O78 2.352 . S
Cd74 O82 2.277 . S
Cd74 O83 2.356 . S
C75 O80 1.209 . S
C75 O82 1.226 . S
O76 Cd72 2.273 . S
O76 Cd74 2.411 . S
O76 C79 1.320 . S
O77 Cd74 2.333 . S
O77 C79 1.214 . S
O78 Cd74 2.352 . S
O78 C81 1.258 . S
C79 O76 1.320 . S
C79 O77 1.214 . S
O80 Cd72 2.277 . S
O80 C75 1.209 . S
C81 O78 1.258 . S
C81 O83 1.282 . S
O82 Cd74 2.277 . S
O82 C75 1.226 . S
O83 Cd74 2.356 . S
O83 C81 1.282 . S
C84 O85 1.306 . S
C84 O87 1.160 . S
O85 C84 1.306 . S
O85 Cd86 2.228 . S
Cd86 O85 2.228 . S
Cd86 O90 2.273 . S
Cd86 O94 2.277 . S
O87 C84 1.160 . S
O87 Cd88 2.203 . S
Cd88 O87 2.203 . S
Cd88 O90 2.411 . S
Cd88 O91 2.333 . S
Cd88 O92 2.352 . S
Cd88 O96 2.277 . S
Cd88 O97 2.356 . S
C89 O94 1.209 . S
C89 O96 1.226 . S
O90 Cd86 2.273 . S
O90 Cd88 2.411 . S
O90 C93 1.320 . S
O91 Cd88 2.333 . S
O91 C93 1.214 . S
O92 Cd88 2.352 . S
O92 C95 1.258 . S
C93 O90 1.320 . S
C93 O91 1.214 . S
O94 Cd86 2.277 . S
O94 C89 1.209 . S
C95 O92 1.258 . S
C95 O97 1.282 . S
O96 Cd88 2.277 . S
O96 C89 1.226 . S
O97 Cd88 2.356 . S
O97 C95 1.282 . S
C98 O99 1.306 . S
C98 O101 1.160 . S
O99 C98 1.306 . S
O99 Cd100 2.228 . S
Cd100 O99 2.228 . S
Cd100 O104 2.273 . S
Cd100 O108 2.277 . S
O101 C98 1.160 . S
O101 Cd102 2.203 . S
Cd102 O101 2.203 . S
Cd102 O104 2.411 . S
Cd102 O105 2.333 . S
Cd102 O106 2.352 . S
Cd102 O110 2.277 . S
Cd102 O111 2.356 . S
C103 O108 1.209 . S
C103 O110 1.226 . S
O104 Cd100 2.273 . S
O104 Cd102 2.411 . S
O104 C107 1.320 . S
O105 Cd102 2.333 . S
O105 C107 1.214 . S
O106 Cd102 2.352 . S
O106 C109 1.258 . S
C107 O104 1.320 . S
C107 O105 1.214 . S
O108 Cd100 2.277 . S
O108 C103 1.209 . S
C109 O106 1.258 . S
C109 O111 1.282 . S
O110 Cd102 2.277 . S
O110 C103 1.226 . S
O111 Cd102 2.356 . S
O111 C109 1.282 . S
C112 O113 1.306 . S
C112 O115 1.160 . S
O113 C112 1.306 . S
O113 Cd114 2.228 . S
Cd114 O113 2.228 . S
Cd114 O118 2.273 . S
Cd114 O122 2.277 . S
O115 C112 1.160 . S
O115 Cd116 2.203 . S
Cd116 O115 2.203 . S
Cd116 O118 2.411 . S
Cd116 O119 2.333 . S
Cd116 O120 2.352 . S
Cd116 O124 2.277 . S
Cd116 O125 2.356 . S
C117 O122 1.209 . S
C117 O124 1.226 . S
O118 Cd114 2.273 . S
O118 Cd116 2.411 . S
O118 C121 1.320 . S
O119 Cd116 2.333 . S
O119 C121 1.214 . S
O120 Cd116 2.352 . S
O120 C123 1.258 . S
C121 O118 1.320 . S
C121 O119 1.214 . S
O122 Cd114 2.277 . S
O122 C117 1.209 . S
C123 O120 1.258 . S
C123 O125 1.282 . S
O124 Cd116 2.277 . S
O124 C117 1.226 . S
O125 Cd116 2.356 . S
O125 C123 1.282 . S
C126 O127 1.306 . S
C126 O129 1.160 . S
O127 C126 1.306 . S
O127 Cd128 2.228 . S
Cd128 O127 2.228 . S
Cd128 O132 2.273 . S
Cd128 O136 2.277 . S
O129 C126 1.160 . S
O129 Cd130 2.203 . S
Cd130 O129 2.203 . S
Cd130 O132 2.411 . S
Cd130 O133 2.333 . S
Cd130 O134 2.352 . S
Cd130 O138 2.277 . S
Cd130 O139 2.356 . S
C131 O136 1.209 . S
C131 O138 1.226 . S
O132 Cd128 2.273 . S
O132 Cd130 2.411 . S
O132 C135 1.320 . S
O133 Cd130 2.333 . S
O133 C135 1.214 . S
O134 Cd130 2.352 . S
O134 C137 1.258 . S
C135 O132 1.320 . S
C135 O133 1.214 . S
O136 Cd128 2.277 . S
O136 C131 1.209 . S
C137 O134 1.258 . S
C137 O139 1.282 . S
O138 Cd130 2.277 . S
O138 C131 1.226 . S
O139 Cd130 2.356 . S
O139 C137 1.282 . S
C140 O141 1.306 . S
C140 O143 1.160 . S
O141 C140 1.306 . S
O141 Cd142 2.228 . S
Cd142 O141 2.228 . S
Cd142 O146 2.273 . S
Cd142 O150 2.277 . S
O143 C140 1.160 . S
O143 Cd144 2.203 . S
Cd144 O143 2.203 . S
Cd144 O146 2.411 . S
Cd144 O147 2.333 . S
Cd144 O148 2.352 . S
Cd144 O152 2.277 . S
Cd144 O153 2.356 . S
C145 O150 1.209 . S
C145 O152 1.226 . S
O146 Cd142 2.273 . S
O146 Cd144 2.411 . S
O146 C149 1.320 . S
O147 Cd144 2.333 . S
O147 C149 1.214 . S
O148 Cd144 2.352 . S
O148 C151 1.258 . S
C149 O146 1.320 . S
C149 O147 1.214 . S
O150 Cd142 2.277 . S
O150 C145 1.209 . S
C151 O148 1.258 . S
C151 O153 1.282 . S
O152 Cd144 2.277 . S
O152 C145 1.226 . S
O153 Cd144 2.356 . S
O153 C151 1.282 . S
C154 O155 1.306 . S
C154 O157 1.160 . S
O155 C154 1.306 . S
O155 Cd156 2.228 . S
Cd156 O155 2.228 . S
Cd156 O160 2.273 . S
Cd156 O164 2.277 . S
O157 C154 1.160 . S
O157 Cd158 2.203 . S
Cd158 O157 2.203 . S
Cd158 O160 2.411 . S
Cd158 O161 2.333 . S
Cd158 O162 2.352 . S
Cd158 O166 2.277 . S
Cd158 O167 2.356 . S
C159 O164 1.209 . S
C159 O166 1.226 . S
O160 Cd156 2.273 . S
O160 Cd158 2.411 . S
O160 C163 1.320 . S
O161 Cd158 2.333 . S
O161 C163 1.214 . S
O162 Cd158 2.352 . S
O162 C165 1.258 . S
C163 O160 1.320 . S
C163 O161 1.214 . S
O164 Cd156 2.277 . S
O164 C159 1.209 . S
C165 O162 1.258 . S
C165 O167 1.282 . S
O166 Cd158 2.277 . S
O166 C159 1.226 . S
O167 Cd158 2.356 . S
O167 C165 1.282 . S
C168 O169 1.306 . S
C168 O171 1.160 . S
O169 C168 1.306 . S
O169 Cd170 2.228 . S
Cd170 O169 2.228 . S
Cd170 O174 2.273 . S
Cd170 O178 2.277 . S
O171 C168 1.160 . S
O171 Cd172 2.203 . S
Cd172 O171 2.203 . S
Cd172 O174 2.411 . S
Cd172 O175 2.333 . S
Cd172 O176 2.352 . S
Cd172 O180 2.277 . S
Cd172 O181 2.356 . S
C173 O178 1.209 . S
C173 O180 1.226 . S
O174 Cd170 2.273 . S
O174 Cd172 2.411 . S
O174 C177 1.320 . S
O175 Cd172 2.333 . S
O175 C177 1.214 . S
O176 Cd172 2.352 . S
O176 C179 1.258 . S
C177 O174 1.320 . S
C177 O175 1.214 . S
O178 Cd170 2.277 . S
O178 C173 1.209 . S
C179 O176 1.258 . S
C179 O181 1.282 . S
O180 Cd172 2.277 . S
O180 C173 1.226 . S
O181 Cd172 2.356 . S
O181 C179 1.282 . S
C182 O183 1.306 . S
C182 O185 1.160 . S
O183 C182 1.306 . S
O183 Cd184 2.228 . S
Cd184 O183 2.228 . S
Cd184 O188 2.273 . S
Cd184 O192 2.277 . S
O185 C182 1.160 . S
O185 Cd186 2.203 . S
Cd186 O185 2.203 . S
Cd186 O188 2.411 . S
Cd186 O189 2.333 . S
Cd186 O190 2.352 . S
Cd186 O194 2.277 . S
Cd186 O195 2.356 . S
C187 O192 1.209 . S
C187 O194 1.226 . S
O188 Cd184 2.273 . S
O188 Cd186 2.411 . S
O188 C191 1.320 . S
O189 Cd186 2.333 . S
O189 C191 1.214 . S
O190 Cd186 2.352 . S
O190 C193 1.258 . S
C191 O188 1.320 . S
C191 O189 1.214 . S
O192 Cd184 2.277 . S
O192 C187 1.209 . S
C193 O190 1.258 . S
C193 O195 1.282 . S
O194 Cd186 2.277 . S
O194 C187 1.226 . S
O195 Cd186 2.356 . S
O195 C193 1.282 . S
C196 O197 1.306 . S
C196 O199 1.160 . S
O197 C196 1.306 . S
O197 Cd198 2.228 . S
Cd198 O197 2.228 . S
Cd198 O202 2.273 . S
Cd198 O206 2.277 . S
O199 C196 1.160 . S
O199 Cd200 2.203 . S
Cd200 O199 2.203 . S
Cd200 O202 2.411 . S
Cd200 O203 2.333 . S
Cd200 O204 2.352 . S
Cd200 O208 2.277 . S
Cd200 O209 2.356 . S
C201 O206 1.209 . S
C201 O208 1.226 . S
O202 Cd198 2.273 . S
O202 Cd200 2.411 . S
O202 C205 1.320 . S
O203 Cd200 2.333 . S
O203 C205 1.214 . S
O204 Cd200 2.352 . S
O204 C207 1.258 . S
C205 O202 1.320 . S
C205 O203 1.214 . S
O206 Cd198 2.277 . S
O206 C201 1.209 . S
C207 O204 1.258 . S
C207 O209 1.282 . S
O208 Cd200 2.277 . S
O208 C201 1.226 . S
O209 Cd200 2.356 . S
O209 C207 1.282 . S
C210 O211 1.306 . S
C210 O213 1.160 . S
O211 C210 1.306 . S
O211 Cd212 2.228 . S
Cd212 O211 2.228 . S
Cd212 O216 2.273 . S
Cd212 O220 2.277 . S
O213 C210 1.160 . S
O213 Cd214 2.203 . S
Cd214 O213 2.203 . S
Cd214 O216 2.411 . S
Cd214 O217 2.333 . S
Cd214 O218 2.352 . S
Cd214 O222 2.277 . S
Cd214 O223 2.356 . S
C215 O220 1.209 . S
C215 O222 1.226 . S
O216 Cd212 2.273 . S
O216 Cd214 2.411 . S
O216 C219 1.320 . S
O217 Cd214 2.333 . S
O217 C219 1.214 . S
O218 Cd214 2.352 . S
O218 C221 1.258 . S
C219 O216 1.320 . S
C219 O217 1.214 . S
O220 Cd212 2.277 . S
O220 C215 1.209 . S
C221 O218 1.258 . S
C221 O223 1.282 . S
O222 Cd214 2.277 . S
O222 C215 1.226 . S
O223 Cd214 2.356 . S
O223 C221 1.282 . S
C224 C225 1.391 . S
C224 C226 1.394 . S
C224 H240 0.931 . S
C225 C224 1.391 . S
C225 C229 1.376 . S
C226 C224 1.394 . S
C226 C227 1.369 . S
C226 C230 1.531 . S
C227 C226 1.369 . S
C227 C228 1.410 . S
C227 C235 1.503 . S
C228 C227 1.410 . S
C228 C229 1.392 . S
C228 C231 1.511 . S
C229 C225 1.376 . S
C229 C228 1.392 . S
C229 H241 0.929 . S
C230 C226 1.531 . S
C230 H242 0.960 . S
C230 H243 0.962 . S
C230 H244 0.960 . S
C231 C228 1.511 . S
C231 H245 0.961 . S
C231 H246 0.961 . S
C231 H247 0.961 . S
C232 C233 1.370 . S
C232 C234 1.363 . S
C232 H248 0.931 . S
C233 C232 1.370 . S
C233 C237 1.408 . S
C234 C232 1.363 . S
C234 C235 1.370 . S
C234 C238 1.524 . S
C235 C227 1.503 . S
C235 C234 1.370 . S
C235 C236 1.403 . S
C236 C235 1.403 . S
C236 C237 1.404 . S
C236 C239 1.539 . S
C237 C233 1.408 . S
C237 C236 1.404 . S
C237 H249 0.930 . S
C238 C234 1.524 . S
C238 H250 0.956 . S
C238 H251 0.961 . S
C238 H252 0.961 . S
C239 C236 1.539 . S
C239 H253 0.958 . S
C239 H254 0.961 . S
C239 H255 0.960 . S
H240 C224 0.931 . S
H241 C229 0.929 . S
H242 C230 0.960 . S
H243 C230 0.962 . S
H244 C230 0.960 . S
H245 C231 0.961 . S
H246 C231 0.961 . S
H247 C231 0.961 . S
H248 C232 0.931 . S
H249 C237 0.930 . S
H250 C238 0.956 . S
H251 C238 0.961 . S
H252 C238 0.961 . S
H253 C239 0.958 . S
H254 C239 0.961 . S
H255 C239 0.960 . S
C256 C257 1.391 . S
C256 C258 1.394 . S
C256 H272 0.931 . S
C257 C256 1.391 . S
C257 C261 1.376 . S
C258 C256 1.394 . S
C258 C259 1.369 . S
C258 C262 1.531 . S
C259 C258 1.369 . S
C259 C260 1.410 . S
C259 C267 1.503 . S
C260 C259 1.410 . S
C260 C261 1.392 . S
C260 C263 1.511 . S
C261 C257 1.376 . S
C261 C260 1.392 . S
C261 H273 0.929 . S
C262 C258 1.531 . S
C262 H274 0.960 . S
C262 H275 0.962 . S
C262 H276 0.960 . S
C263 C260 1.511 . S
C263 H277 0.961 . S
C263 H278 0.961 . S
C263 H279 0.961 . S
C264 C265 1.370 . S
C264 C266 1.363 . S
C264 H280 0.931 . S
C265 C264 1.370 . S
C265 C269 1.408 . S
C266 C264 1.363 . S
C266 C267 1.370 . S
C266 C270 1.524 . S
C267 C259 1.503 . S
C267 C266 1.370 . S
C267 C268 1.403 . S
C268 C267 1.403 . S
C268 C269 1.404 . S
C268 C271 1.539 . S
C269 C265 1.408 . S
C269 C268 1.404 . S
C269 H281 0.930 . S
C270 C266 1.524 . S
C270 H282 0.956 . S
C270 H283 0.961 . S
C270 H284 0.961 . S
C271 C268 1.539 . S
C271 H285 0.958 . S
C271 H286 0.961 . S
C271 H287 0.960 . S
H272 C256 0.931 . S
H273 C261 0.929 . S
H274 C262 0.960 . S
H275 C262 0.962 . S
H276 C262 0.960 . S
H277 C263 0.961 . S
H278 C263 0.961 . S
H279 C263 0.961 . S
H280 C264 0.931 . S
H281 C269 0.930 . S
H282 C270 0.956 . S
H283 C270 0.961 . S
H284 C270 0.961 . S
H285 C271 0.958 . S
H286 C271 0.961 . S
H287 C271 0.960 . S
C288 C289 1.391 . S
C288 C290 1.394 . S
C288 H304 0.931 . S
C289 C288 1.391 . S
C289 C293 1.376 . S
C290 C288 1.394 . S
C290 C291 1.369 . S
C290 C294 1.531 . S
C291 C290 1.369 . S
C291 C292 1.410 . S
C291 C299 1.503 . S
C292 C291 1.410 . S
C292 C293 1.392 . S
C292 C295 1.511 . S
C293 C289 1.376 . S
C293 C292 1.392 . S
C293 H305 0.929 . S
C294 C290 1.531 . S
C294 H306 0.960 . S
C294 H307 0.962 . S
C294 H308 0.960 . S
C295 C292 1.511 . S
C295 H309 0.961 . S
C295 H310 0.961 . S
C295 H311 0.961 . S
C296 C297 1.370 . S
C296 C298 1.363 . S
C296 H312 0.931 . S
C297 C296 1.370 . S
C297 C301 1.408 . S
C298 C296 1.363 . S
C298 C299 1.370 . S
C298 C302 1.524 . S
C299 C291 1.503 . S
C299 C298 1.370 . S
C299 C300 1.403 . S
C300 C299 1.403 . S
C300 C301 1.404 . S
C300 C303 1.539 . S
C301 C297 1.408 . S
C301 C300 1.404 . S
C301 H313 0.930 . S
C302 C298 1.524 . S
C302 H314 0.956 . S
C302 H315 0.961 . S
C302 H316 0.961 . S
C303 C300 1.539 . S
C303 H317 0.958 . S
C303 H318 0.961 . S
C303 H319 0.960 . S
H304 C288 0.931 . S
H305 C293 0.929 . S
H306 C294 0.960 . S
H307 C294 0.962 . S
H308 C294 0.960 . S
H309 C295 0.961 . S
H310 C295 0.961 . S
H311 C295 0.961 . S
H312 C296 0.931 . S
H313 C301 0.930 . S
H314 C302 0.956 . S
H315 C302 0.961 . S
H316 C302 0.961 . S
H317 C303 0.958 . S
H318 C303 0.961 . S
H319 C303 0.960 . S
C320 C321 1.391 . S
C320 C322 1.394 . S
C320 H336 0.931 . S
C321 C320 1.391 . S
C321 C325 1.376 . S
C322 C320 1.394 . S
C322 C323 1.369 . S
C322 C326 1.531 . S
C323 C322 1.369 . S
C323 C324 1.410 . S
C323 C331 1.503 . S
C324 C323 1.410 . S
C324 C325 1.392 . S
C324 C327 1.511 . S
C325 C321 1.376 . S
C325 C324 1.392 . S
C325 H337 0.929 . S
C326 C322 1.531 . S
C326 H338 0.960 . S
C326 H339 0.962 . S
C326 H340 0.960 . S
C327 C324 1.511 . S
C327 H341 0.961 . S
C327 H342 0.961 . S
C327 H343 0.961 . S
C328 C329 1.370 . S
C328 C330 1.363 . S
C328 H344 0.931 . S
C329 C328 1.370 . S
C329 C333 1.408 . S
C330 C328 1.363 . S
C330 C331 1.370 . S
C330 C334 1.524 . S
C331 C323 1.503 . S
C331 C330 1.370 . S
C331 C332 1.403 . S
C332 C331 1.403 . S
C332 C333 1.404 . S
C332 C335 1.539 . S
C333 C329 1.408 . S
C333 C332 1.404 . S
C333 H345 0.930 . S
C334 C330 1.524 . S
C334 H346 0.956 . S
C334 H347 0.961 . S
C334 H348 0.961 . S
C335 C332 1.539 . S
C335 H349 0.958 . S
C335 H350 0.961 . S
C335 H351 0.960 . S
H336 C320 0.931 . S
H337 C325 0.929 . S
H338 C326 0.960 . S
H339 C326 0.962 . S
H340 C326 0.960 . S
H341 C327 0.961 . S
H342 C327 0.961 . S
H343 C327 0.961 . S
H344 C328 0.931 . S
H345 C333 0.930 . S
H346 C334 0.956 . S
H347 C334 0.961 . S
H348 C334 0.961 . S
H349 C335 0.958 . S
H350 C335 0.961 . S
H351 C335 0.960 . S
C352 C353 1.391 . S
C352 C354 1.394 . S
C352 H368 0.931 . S
C353 C352 1.391 . S
C353 C357 1.376 . S
C354 C352 1.394 . S
C354 C355 1.369 . S
C354 C358 1.531 . S
C355 C354 1.369 . S
C355 C356 1.410 . S
C355 C363 1.503 . S
C356 C355 1.410 . S
C356 C357 1.392 . S
C356 C359 1.511 . S
C357 C353 1.376 . S
C357 C356 1.392 . S
C357 H369 0.929 . S
C358 C354 1.531 . S
C358 H370 0.960 . S
C358 H371 0.962 . S
C358 H372 0.960 . S
C359 C356 1.511 . S
C359 H373 0.961 . S
C359 H374 0.961 . S
C359 H375 0.961 . S
C360 C361 1.370 . S
C360 C362 1.363 . S
C360 H376 0.931 . S
C361 C360 1.370 . S
C361 C365 1.408 . S
C362 C360 1.363 . S
C362 C363 1.370 . S
C362 C366 1.524 . S
C363 C355 1.503 . S
C363 C362 1.370 . S
C363 C364 1.403 . S
C364 C363 1.403 . S
C364 C365 1.404 . S
C364 C367 1.539 . S
C365 C361 1.408 . S
C365 C364 1.404 . S
C365 H377 0.930 . S
C366 C362 1.524 . S
C366 H378 0.956 . S
C366 H379 0.961 . S
C366 H380 0.961 . S
C367 C364 1.539 . S
C367 H381 0.958 . S
C367 H382 0.961 . S
C367 H383 0.960 . S
H368 C352 0.931 . S
H369 C357 0.929 . S
H370 C358 0.960 . S
H371 C358 0.962 . S
H372 C358 0.960 . S
H373 C359 0.961 . S
H374 C359 0.961 . S
H375 C359 0.961 . S
H376 C360 0.931 . S
H377 C365 0.930 . S
H378 C366 0.956 . S
H379 C366 0.961 . S
H380 C366 0.961 . S
H381 C367 0.958 . S
H382 C367 0.961 . S
H383 C367 0.960 . S
C384 C385 1.391 . S
C384 C386 1.394 . S
C384 H400 0.931 . S
C385 C384 1.391 . S
C385 C389 1.376 . S
C386 C384 1.394 . S
C386 C387 1.369 . S
C386 C390 1.531 . S
C387 C386 1.369 . S
C387 C388 1.410 . S
C387 C395 1.503 . S
C388 C387 1.410 . S
C388 C389 1.392 . S
C388 C391 1.511 . S
C389 C385 1.376 . S
C389 C388 1.392 . S
C389 H401 0.929 . S
C390 C386 1.531 . S
C390 H402 0.960 . S
C390 H403 0.962 . S
C390 H404 0.960 . S
C391 C388 1.511 . S
C391 H405 0.961 . S
C391 H406 0.961 . S
C391 H407 0.961 . S
C392 C393 1.370 . S
C392 C394 1.363 . S
C392 H408 0.931 . S
C393 C392 1.370 . S
C393 C397 1.408 . S
C394 C392 1.363 . S
C394 C395 1.370 . S
C394 C398 1.524 . S
C395 C387 1.503 . S
C395 C394 1.370 . S
C395 C396 1.403 . S
C396 C395 1.403 . S
C396 C397 1.404 . S
C396 C399 1.539 . S
C397 C393 1.408 . S
C397 C396 1.404 . S
C397 H409 0.930 . S
C398 C394 1.524 . S
C398 H410 0.956 . S
C398 H411 0.961 . S
C398 H412 0.961 . S
C399 C396 1.539 . S
C399 H413 0.958 . S
C399 H414 0.961 . S
C399 H415 0.960 . S
H400 C384 0.931 . S
H401 C389 0.929 . S
H402 C390 0.960 . S
H403 C390 0.962 . S
H404 C390 0.960 . S
H405 C391 0.961 . S
H406 C391 0.961 . S
H407 C391 0.961 . S
H408 C392 0.931 . S
H409 C397 0.930 . S
H410 C398 0.956 . S
H411 C398 0.961 . S
H412 C398 0.961 . S
H413 C399 0.958 . S
H414 C399 0.961 . S
H415 C399 0.960 . S
C416 C417 1.391 . S
C416 C418 1.394 . S
C416 H432 0.931 . S
C417 C416 1.391 . S
C417 C421 1.376 . S
C418 C416 1.394 . S
C418 C419 1.369 . S
C418 C422 1.531 . S
C419 C418 1.369 . S
C419 C420 1.410 . S
C419 C427 1.503 . S
C420 C419 1.410 . S
C420 C421 1.392 . S
C420 C423 1.511 . S
C421 C417 1.376 . S
C421 C420 1.392 . S
C421 H433 0.929 . S
C422 C418 1.531 . S
C422 H434 0.960 . S
C422 H435 0.962 . S
C422 H436 0.960 . S
C423 C420 1.511 . S
C423 H437 0.961 . S
C423 H438 0.961 . S
C423 H439 0.961 . S
C424 C425 1.370 . S
C424 C426 1.363 . S
C424 H440 0.931 . S
C425 C424 1.370 . S
C425 C429 1.408 . S
C426 C424 1.363 . S
C426 C427 1.370 . S
C426 C430 1.524 . S
C427 C419 1.503 . S
C427 C426 1.370 . S
C427 C428 1.403 . S
C428 C427 1.403 . S
C428 C429 1.404 . S
C428 C431 1.539 . S
C429 C425 1.408 . S
C429 C428 1.404 . S
C429 H441 0.930 . S
C430 C426 1.524 . S
C430 H442 0.956 . S
C430 H443 0.961 . S
C430 H444 0.961 . S
C431 C428 1.539 . S
C431 H445 0.958 . S
C431 H446 0.961 . S
C431 H447 0.960 . S
H432 C416 0.931 . S
H433 C421 0.929 . S
H434 C422 0.960 . S
H435 C422 0.962 . S
H436 C422 0.960 . S
H437 C423 0.961 . S
H438 C423 0.961 . S
H439 C423 0.961 . S
H440 C424 0.931 . S
H441 C429 0.930 . S
H442 C430 0.956 . S
H443 C430 0.961 . S
H444 C430 0.961 . S
H445 C431 0.958 . S
H446 C431 0.961 . S
H447 C431 0.960 . S
C448 C449 1.391 . S
C448 C450 1.394 . S
C448 H464 0.931 . S
C449 C448 1.391 . S
C449 C453 1.376 . S
C450 C448 1.394 . S
C450 C451 1.369 . S
C450 C454 1.531 . S
C451 C450 1.369 . S
C451 C452 1.410 . S
C451 C459 1.503 . S
C452 C451 1.410 . S
C452 C453 1.392 . S
C452 C455 1.511 . S
C453 C449 1.376 . S
C453 C452 1.392 . S
C453 H465 0.929 . S
C454 C450 1.531 . S
C454 H466 0.960 . S
C454 H467 0.962 . S
C454 H468 0.960 . S
C455 C452 1.511 . S
C455 H469 0.961 . S
C455 H470 0.961 . S
C455 H471 0.961 . S
C456 C457 1.370 . S
C456 C458 1.363 . S
C456 H472 0.931 . S
C457 C456 1.370 . S
C457 C461 1.408 . S
C458 C456 1.363 . S
C458 C459 1.370 . S
C458 C462 1.524 . S
C459 C451 1.503 . S
C459 C458 1.370 . S
C459 C460 1.403 . S
C460 C459 1.403 . S
C460 C461 1.404 . S
C460 C463 1.539 . S
C461 C457 1.408 . S
C461 C460 1.404 . S
C461 H473 0.930 . S
C462 C458 1.524 . S
C462 H474 0.956 . S
C462 H475 0.961 . S
C462 H476 0.961 . S
C463 C460 1.539 . S
C463 H477 0.958 . S
C463 H478 0.961 . S
C463 H479 0.960 . S
H464 C448 0.931 . S
H465 C453 0.929 . S
H466 C454 0.960 . S
H467 C454 0.962 . S
H468 C454 0.960 . S
H469 C455 0.961 . S
H470 C455 0.961 . S
H471 C455 0.961 . S
H472 C456 0.931 . S
H473 C461 0.930 . S
H474 C462 0.956 . S
H475 C462 0.961 . S
H476 C462 0.961 . S
H477 C463 0.958 . S
H478 C463 0.961 . S
H479 C463 0.960 . S
C480 C481 1.391 . S
C480 C482 1.394 . S
C480 H496 0.931 . S
C481 C480 1.391 . S
C481 C485 1.376 . S
C482 C480 1.394 . S
C482 C483 1.369 . S
C482 C486 1.531 . S
C483 C482 1.369 . S
C483 C484 1.410 . S
C483 C491 1.503 1_556 S
C484 C483 1.410 . S
C484 C485 1.392 . S
C484 C487 1.511 . S
C485 C481 1.376 . S
C485 C484 1.392 . S
C485 H497 0.929 . S
C486 C482 1.531 . S
C486 H498 0.990 . S
C486 H499 0.962 . S
C486 H500 0.960 . S
C487 C484 1.511 . S
C487 H501 0.961 . S
C487 H502 0.961 1_556 S
C487 H503 0.961 . S
C488 C489 1.370 . S
C488 C490 1.363 . S
C488 H504 0.931 . S
C489 C488 1.370 . S
C489 C493 1.408 . S
C490 C488 1.363 . S
C490 C491 1.370 . S
C490 C494 1.524 . S
C491 C483 1.503 1_554 S
C491 C490 1.370 . S
C491 C492 1.403 . S
C492 C491 1.403 . S
C492 C493 1.404 . S
C492 C495 1.539 . S
C493 C489 1.408 . S
C493 C492 1.404 . S
C493 H505 0.930 . S
C494 C490 1.524 . S
C494 H506 0.956 . S
C494 H507 0.980 . S
C494 H508 0.961 . S
C495 C492 1.539 . S
C495 H509 0.958 . S
C495 H510 0.961 . S
C495 H511 0.960 1_554 S
H496 C480 0.931 . S
H497 C485 0.929 . S
H498 C486 0.990 . S
H499 C486 0.962 . S
H500 C486 0.960 . S
H501 C487 0.961 . S
H502 C487 0.961 1_554 S
H503 C487 0.961 . S
H504 C488 0.931 . S
H505 C493 0.930 . S
H506 C494 0.956 . S
H507 C494 0.980 . S
H508 C494 0.961 . S
H509 C495 0.958 . S
H510 C495 0.961 . S
H511 C495 0.960 1_556 S
C512 C513 1.391 . S
C512 C514 1.394 . S
C512 H528 0.931 . S
C513 C512 1.391 . S
C513 C517 1.376 . S
C514 C512 1.394 . S
C514 C515 1.369 . S
C514 C518 1.531 . S
C515 C514 1.369 . S
C515 C516 1.410 . S
C515 C523 1.503 1_556 S
C516 C515 1.410 . S
C516 C517 1.392 . S
C516 C519 1.511 . S
C517 C513 1.376 . S
C517 C516 1.392 . S
C517 H529 0.929 . S
C518 C514 1.531 . S
C518 H530 0.960 1_556 S
C518 H531 0.962 . S
C518 H532 0.960 . S
C519 C516 1.511 . S
C519 H533 0.961 . S
C519 H534 0.961 1_556 S
C519 H535 0.961 . S
C520 C521 1.370 . S
C520 C522 1.363 . S
C520 H536 0.931 . S
C521 C520 1.370 . S
C521 C525 1.408 . S
C522 C520 1.363 . S
C522 C523 1.370 . S
C522 C526 1.524 . S
C523 C515 1.503 1_554 S
C523 C522 1.370 . S
C523 C524 1.403 . S
C524 C523 1.403 . S
C524 C525 1.404 . S
C524 C527 1.539 . S
C525 C521 1.408 . S
C525 C524 1.404 . S
C525 H537 0.930 . S
C526 C522 1.524 . S
C526 H538 0.956 1_554 S
C526 H539 0.961 1_554 S
C526 H540 0.961 . S
C527 C524 1.539 . S
C527 H541 0.958 . S
C527 H542 0.961 . S
C527 H543 0.960 . S
H528 C512 0.931 . S
H529 C517 0.929 . S
H530 C518 0.960 1_554 S
H531 C518 0.962 . S
H532 C518 0.960 . S
H533 C519 0.961 . S
H534 C519 0.961 1_554 S
H535 C519 0.961 . S
H536 C520 0.931 . S
H537 C525 0.930 . S
H538 C526 0.956 1_556 S
H539 C526 0.961 1_556 S
H540 C526 0.961 . S
H541 C527 0.958 . S
H542 C527 0.961 . S
H543 C527 0.960 . S
C544 C545 1.391 . S
C544 C546 1.394 . S
C544 H560 0.931 . S
C545 C544 1.391 . S
C545 C549 1.376 . S
C546 C544 1.394 . S
C546 C547 1.369 . S
C546 C550 1.531 . S
C547 C546 1.369 . S
C547 C548 1.410 . S
C547 C555 1.503 1_556 S
C548 C547 1.410 . S
C548 C549 1.392 . S
C548 C551 1.511 . S
C549 C545 1.376 . S
C549 C548 1.392 . S
C549 H561 0.929 . S
C550 C546 1.531 . S
C550 H562 0.960 1_556 S
C550 H563 0.962 . S
C550 H564 0.960 . S
C551 C548 1.511 . S
C551 H565 0.961 . S
C551 H566 0.966 . S
C551 H567 0.961 . S
C552 C553 1.370 . S
C552 C554 1.363 . S
C552 H568 0.931 . S
C553 C552 1.370 . S
C553 C557 1.408 . S
C554 C552 1.363 . S
C554 C555 1.370 . S
C554 C558 1.524 . S
C555 C547 1.503 1_554 S
C555 C554 1.370 . S
C555 C556 1.403 . S
C556 C555 1.403 . S
C556 C557 1.404 . S
C556 C559 1.539 . S
C557 C553 1.408 . S
C557 C556 1.404 . S
C557 H569 0.930 . S
C558 C554 1.524 . S
C558 H570 0.956 . S
C558 H571 0.961 1_554 S
C558 H572 0.961 . S
C559 C556 1.539 . S
C559 H573 0.958 . S
C559 H574 0.961 . S
C559 H575 0.960 1_554 S
H560 C544 0.931 . S
H561 C549 0.929 . S
H562 C550 0.960 1_554 S
H563 C550 0.962 . S
H564 C550 0.960 . S
H565 C551 0.961 . S
H566 C551 0.966 . S
H567 C551 0.961 . S
H568 C552 0.931 . S
H569 C557 0.930 . S
H570 C558 0.956 . S
H571 C558 0.961 1_556 S
H572 C558 0.961 . S
H573 C559 0.958 . S
H574 C559 0.961 . S
H575 C559 0.960 1_556 S
C576 C577 1.391 . S
C576 C578 1.394 . S
C576 H592 0.931 . S
C577 C576 1.391 . S
C577 C581 1.376 . S
C578 C576 1.394 . S
C578 C579 1.369 . S
C578 C582 1.531 . S
C579 C578 1.369 . S
C579 C580 1.410 . S
C579 C587 1.503 1_554 S
C580 C579 1.410 . S
C580 C581 1.392 . S
C580 C583 1.511 . S
C581 C577 1.376 . S
C581 C580 1.392 . S
C581 H593 0.929 . S
C582 C578 1.531 . S
C582 H594 0.990 . S
C582 H595 0.962 . S
C582 H596 0.960 . S
C583 C580 1.511 . S
C583 H597 0.961 . S
C583 H598 0.961 1_554 S
C583 H599 0.961 . S
C584 C585 1.370 . S
C584 C586 1.363 . S
C584 H600 0.931 . S
C585 C584 1.370 . S
C585 C589 1.408 . S
C586 C584 1.363 . S
C586 C587 1.370 . S
C586 C590 1.524 . S
C587 C579 1.503 1_556 S
C587 C586 1.370 . S
C587 C588 1.403 . S
C588 C587 1.403 . S
C588 C589 1.404 . S
C588 C591 1.539 . S
C589 C585 1.408 . S
C589 C588 1.404 . S
C589 H601 0.930 . S
C590 C586 1.524 . S
C590 H602 0.968 . S
C590 H603 0.955 1_556 S
C590 H604 0.961 . S
C591 C588 1.539 . S
C591 H605 0.958 . S
C591 H606 0.961 . S
C591 H607 0.981 . S
H592 C576 0.931 . S
H593 C581 0.929 . S
H594 C582 0.990 . S
H595 C582 0.962 . S
H596 C582 0.960 . S
H597 C583 0.961 . S
H598 C583 0.961 1_556 S
H599 C583 0.961 . S
H600 C584 0.931 . S
H601 C589 0.930 . S
H602 C590 0.968 . S
H603 C590 0.955 1_554 S
H604 C590 0.961 . S
H605 C591 0.958 . S
H606 C591 0.961 . S
H607 C591 0.981 . S
C608 C609 1.391 . S
C608 C610 1.394 . S
C608 H624 0.931 . S
C609 C608 1.391 . S
C609 C613 1.376 . S
C610 C608 1.394 . S
C610 C611 1.369 . S
C610 C614 1.531 . S
C611 C610 1.369 . S
C611 C612 1.410 . S
C611 C619 1.503 . S
C612 C611 1.410 . S
C612 C613 1.392 . S
C612 C615 1.511 . S
C613 C609 1.376 . S
C613 C612 1.392 . S
C613 H625 0.929 . S
C614 C610 1.531 . S
C614 H626 0.960 . S
C614 H627 0.962 . S
C614 H628 0.960 . S
C615 C612 1.511 . S
C615 H629 0.961 . S
C615 H630 0.961 . S
C615 H631 0.961 . S
C616 C617 1.370 . S
C616 C618 1.363 . S
C616 H632 0.931 . S
C617 C616 1.370 . S
C617 C621 1.408 . S
C618 C616 1.363 . S
C618 C619 1.370 . S
C618 C622 1.524 . S
C619 C611 1.503 . S
C619 C618 1.370 . S
C619 C620 1.403 . S
C620 C619 1.403 . S
C620 C621 1.404 . S
C620 C623 1.539 . S
C621 C617 1.408 . S
C621 C620 1.404 . S
C621 H633 0.930 . S
C622 C618 1.524 . S
C622 H634 0.956 . S
C622 H635 0.961 . S
C622 H636 0.961 . S
C623 C620 1.539 . S
C623 H637 0.958 . S
C623 H638 0.961 . S
C623 H639 0.960 . S
H624 C608 0.931 . S
H625 C613 0.929 . S
H626 C614 0.960 . S
H627 C614 0.962 . S
H628 C614 0.960 . S
H629 C615 0.961 . S
H630 C615 0.961 . S
H631 C615 0.961 . S
H632 C616 0.931 . S
H633 C621 0.930 . S
H634 C622 0.956 . S
H635 C622 0.961 . S
H636 C622 0.961 . S
H637 C623 0.958 . S
H638 C623 0.961 . S
H639 C623 0.960 . S
C640 C641 1.391 . S
C640 C642 1.394 . S
C640 H656 0.931 . S
C641 C640 1.391 . S
C641 C645 1.376 . S
C642 C640 1.394 . S
C642 C643 1.369 . S
C642 C646 1.531 . S
C643 C642 1.369 . S
C643 C644 1.410 . S
C643 C651 1.503 . S
C644 C643 1.410 . S
C644 C645 1.392 . S
C644 C647 1.511 . S
C645 C641 1.376 . S
C645 C644 1.392 . S
C645 H657 0.929 . S
C646 C642 1.531 . S
C646 H658 0.960 . S
C646 H659 0.962 . S
C646 H660 0.960 . S
C647 C644 1.511 . S
C647 H661 0.961 . S
C647 H662 0.961 . S
C647 H663 0.961 . S
C648 C649 1.370 . S
C648 C650 1.363 . S
C648 H664 0.931 . S
C649 C648 1.370 . S
C649 C653 1.408 . S
C650 C648 1.363 . S
C650 C651 1.370 . S
C650 C654 1.524 . S
C651 C643 1.503 . S
C651 C650 1.370 . S
C651 C652 1.403 . S
C652 C651 1.403 . S
C652 C653 1.404 . S
C652 C655 1.539 . S
C653 C649 1.408 . S
C653 C652 1.404 . S
C653 H665 0.930 . S
C654 C650 1.524 . S
C654 H666 0.956 . S
C654 H667 0.961 . S
C654 H668 0.961 . S
C655 C652 1.539 . S
C655 H669 0.958 . S
C655 H670 0.961 . S
C655 H671 0.960 . S
H656 C640 0.931 . S
H657 C645 0.929 . S
H658 C646 0.960 . S
H659 C646 0.962 . S
H660 C646 0.960 . S
H661 C647 0.961 . S
H662 C647 0.961 . S
H663 C647 0.961 . S
H664 C648 0.931 . S
H665 C653 0.930 . S
H666 C654 0.956 . S
H667 C654 0.961 . S
H668 C654 0.961 . S
H669 C655 0.958 . S
H670 C655 0.961 . S
H671 C655 0.960 . S
C672 C673 1.391 . S
C672 C674 1.394 . S
C672 H688 0.931 . S
C673 C672 1.391 . S
C673 C677 1.376 . S
C674 C672 1.394 . S
C674 C675 1.369 . S
C674 C678 1.531 . S
C675 C674 1.369 . S
C675 C676 1.410 . S
C675 C683 1.503 . S
C676 C675 1.410 . S
C676 C677 1.392 . S
C676 C679 1.511 . S
C677 C673 1.376 . S
C677 C676 1.392 . S
C677 H689 0.929 . S
C678 C674 1.531 . S
C678 H690 0.960 . S
C678 H691 0.962 . S
C678 H692 0.960 . S
C679 C676 1.511 . S
C679 H693 0.961 . S
C679 H694 0.961 . S
C679 H695 0.961 . S
C680 C681 1.370 . S
C680 C682 1.363 . S
C680 H696 0.931 . S
C681 C680 1.370 . S
C681 C685 1.408 . S
C682 C680 1.363 . S
C682 C683 1.370 . S
C682 C686 1.524 . S
C683 C675 1.503 . S
C683 C682 1.370 . S
C683 C684 1.403 . S
C684 C683 1.403 . S
C684 C685 1.404 . S
C684 C687 1.539 . S
C685 C681 1.408 . S
C685 C684 1.404 . S
C685 H697 0.930 . S
C686 C682 1.524 . S
C686 H698 0.956 . S
C686 H699 0.961 . S
C686 H700 0.961 . S
C687 C684 1.539 . S
C687 H701 0.958 . S
C687 H702 0.961 . S
C687 H703 0.960 . S
H688 C672 0.931 . S
H689 C677 0.929 . S
H690 C678 0.960 . S
H691 C678 0.962 . S
H692 C678 0.960 . S
H693 C679 0.961 . S
H694 C679 0.961 . S
H695 C679 0.961 . S
H696 C680 0.931 . S
H697 C685 0.930 . S
H698 C686 0.956 . S
H699 C686 0.961 . S
H700 C686 0.961 . S
H701 C687 0.958 . S
H702 C687 0.961 . S
H703 C687 0.960 . S
C704 C705 1.391 . S
C704 C706 1.394 . S
C704 H720 0.931 . S
C705 C704 1.391 . S
C705 C709 1.376 . S
C706 C704 1.394 . S
C706 C707 1.369 . S
C706 C710 1.531 . S
C707 C706 1.369 . S
C707 C708 1.410 . S
C707 C715 1.503 . S
C708 C707 1.410 . S
C708 C709 1.392 . S
C708 C711 1.511 . S
C709 C705 1.376 . S
C709 C708 1.392 . S
C709 H721 0.929 . S
C710 C706 1.531 . S
C710 H722 0.960 . S
C710 H723 0.962 . S
C710 H724 0.960 . S
C711 C708 1.511 . S
C711 H725 0.961 . S
C711 H726 0.961 . S
C711 H727 0.961 . S
C712 C713 1.370 . S
C712 C714 1.363 . S
C712 H728 0.931 . S
C713 C712 1.370 . S
C713 C717 1.408 . S
C714 C712 1.363 . S
C714 C715 1.370 . S
C714 C718 1.524 . S
C715 C707 1.503 . S
C715 C714 1.370 . S
C715 C716 1.403 . S
C716 C715 1.403 . S
C716 C717 1.404 . S
C716 C719 1.539 . S
C717 C713 1.408 . S
C717 C716 1.404 . S
C717 H729 0.930 . S
C718 C714 1.524 . S
C718 H730 0.956 . S
C718 H731 0.961 . S
C718 H732 0.961 . S
C719 C716 1.539 . S
C719 H733 0.958 . S
C719 H734 0.961 . S
C719 H735 0.960 . S
H720 C704 0.931 . S
H721 C709 0.929 . S
H722 C710 0.960 . S
H723 C710 0.962 . S
H724 C710 0.960 . S
H725 C711 0.961 . S
H726 C711 0.961 . S
H727 C711 0.961 . S
H728 C712 0.931 . S
H729 C717 0.930 . S
H730 C718 0.956 . S
H731 C718 0.961 . S
H732 C718 0.961 . S
H733 C719 0.958 . S
H734 C719 0.961 . S
H735 C719 0.960 . S
C736 C737 1.391 . S
C736 C738 1.394 . S
C736 H752 0.931 . S
C737 C736 1.391 . S
C737 C741 1.376 . S
C738 C736 1.394 . S
C738 C739 1.369 . S
C738 C742 1.531 . S
C739 C738 1.369 . S
C739 C740 1.410 . S
C739 C747 1.503 . S
C740 C739 1.410 . S
C740 C741 1.392 . S
C740 C743 1.511 . S
C741 C737 1.376 . S
C741 C740 1.392 . S
C741 H753 0.929 . S
C742 C738 1.531 . S
C742 H754 0.960 . S
C742 H755 0.962 . S
C742 H756 0.960 . S
C743 C740 1.511 . S
C743 H757 0.961 . S
C743 H758 0.961 . S
C743 H759 0.961 . S
C744 C745 1.370 . S
C744 C746 1.363 . S
C744 H760 0.931 . S
C745 C744 1.370 . S
C745 C749 1.408 . S
C746 C744 1.363 . S
C746 C747 1.370 . S
C746 C750 1.524 . S
C747 C739 1.503 . S
C747 C746 1.370 . S
C747 C748 1.403 . S
C748 C747 1.403 . S
C748 C749 1.404 . S
C748 C751 1.539 . S
C749 C745 1.408 . S
C749 C748 1.404 . S
C749 H761 0.930 . S
C750 C746 1.524 . S
C750 H762 0.956 . S
C750 H763 0.961 . S
C750 H764 0.961 . S
C751 C748 1.539 . S
C751 H765 0.958 . S
C751 H766 0.961 . S
C751 H767 0.960 . S
H752 C736 0.931 . S
H753 C741 0.929 . S
H754 C742 0.960 . S
H755 C742 0.962 . S
H756 C742 0.960 . S
H757 C743 0.961 . S
H758 C743 0.961 . S
H759 C743 0.961 . S
H760 C744 0.931 . S
H761 C749 0.930 . S
H762 C750 0.956 . S
H763 C750 0.961 . S
H764 C750 0.961 . S
H765 C751 0.958 . S
H766 C751 0.961 . S
H767 C751 0.960 . S
C768 C769 1.391 . S
C768 C770 1.394 . S
C768 H784 0.931 . S
C769 C768 1.391 . S
C769 C773 1.376 . S
C770 C768 1.394 . S
C770 C771 1.369 . S
C770 C774 1.531 . S
C771 C770 1.369 . S
C771 C772 1.410 . S
C771 C779 1.503 . S
C772 C771 1.410 . S
C772 C773 1.392 . S
C772 C775 1.511 . S
C773 C769 1.376 . S
C773 C772 1.392 . S
C773 H785 0.929 . S
C774 C770 1.531 . S
C774 H786 0.960 . S
C774 H787 0.962 . S
C774 H788 0.960 . S
C775 C772 1.511 . S
C775 H789 0.961 . S
C775 H790 0.961 . S
C775 H791 0.961 . S
C776 C777 1.370 . S
C776 C778 1.363 . S
C776 H792 0.931 . S
C777 C776 1.370 . S
C777 C781 1.408 . S
C778 C776 1.363 . S
C778 C779 1.370 . S
C778 C782 1.524 . S
C779 C771 1.503 . S
C779 C778 1.370 . S
C779 C780 1.403 . S
C780 C779 1.403 . S
C780 C781 1.404 . S
C780 C783 1.539 . S
C781 C777 1.408 . S
C781 C780 1.404 . S
C781 H793 0.930 . S
C782 C778 1.524 . S
C782 H794 0.956 . S
C782 H795 0.961 . S
C782 H796 0.961 . S
C783 C780 1.539 . S
C783 H797 0.958 . S
C783 H798 0.961 . S
C783 H799 0.960 . S
H784 C768 0.931 . S
H785 C773 0.929 . S
H786 C774 0.960 . S
H787 C774 0.962 . S
H788 C774 0.960 . S
H789 C775 0.961 . S
H790 C775 0.961 . S
H791 C775 0.961 . S
H792 C776 0.931 . S
H793 C781 0.930 . S
H794 C782 0.956 . S
H795 C782 0.961 . S
H796 C782 0.961 . S
H797 C783 0.958 . S
H798 C783 0.961 . S
H799 C783 0.960 . S
C800 C801 1.391 . S
C800 C802 1.394 . S
C800 H816 0.931 . S
C801 C800 1.391 . S
C801 C805 1.376 . S
C802 C800 1.394 . S
C802 C803 1.369 . S
C802 C806 1.531 . S
C803 C802 1.369 . S
C803 C804 1.410 . S
C803 C811 1.503 . S
C804 C803 1.410 . S
C804 C805 1.392 . S
C804 C807 1.511 . S
C805 C801 1.376 . S
C805 C804 1.392 . S
C805 H817 0.929 . S
C806 C802 1.531 . S
C806 H818 0.960 . S
C806 H819 0.962 . S
C806 H820 0.960 . S
C807 C804 1.511 . S
C807 H821 0.961 . S
C807 H822 0.961 . S
C807 H823 0.961 . S
C808 C809 1.370 . S
C808 C810 1.363 . S
C808 H824 0.931 . S
C809 C808 1.370 . S
C809 C813 1.408 . S
C810 C808 1.363 . S
C810 C811 1.370 . S
C810 C814 1.524 . S
C811 C803 1.503 . S
C811 C810 1.370 . S
C811 C812 1.403 . S
C812 C811 1.403 . S
C812 C813 1.404 . S
C812 C815 1.539 . S
C813 C809 1.408 . S
C813 C812 1.404 . S
C813 H825 0.930 . S
C814 C810 1.524 . S
C814 H826 0.956 . S
C814 H827 0.961 . S
C814 H828 0.961 . S
C815 C812 1.539 . S
C815 H829 0.958 . S
C815 H830 0.961 . S
C815 H831 0.960 . S
H816 C800 0.931 . S
H817 C805 0.929 . S
H818 C806 0.960 . S
H819 C806 0.962 . S
H820 C806 0.960 . S
H821 C807 0.961 . S
H822 C807 0.961 . S
H823 C807 0.961 . S
H824 C808 0.931 . S
H825 C813 0.930 . S
H826 C814 0.956 . S
H827 C814 0.961 . S
H828 C814 0.961 . S
H829 C815 0.958 . S
H830 C815 0.961 . S
H831 C815 0.960 . S
C832 C833 1.391 . S
C832 C834 1.394 . S
C832 H848 0.931 . S
C833 C832 1.391 . S
C833 C837 1.376 . S
C834 C832 1.394 . S
C834 C835 1.369 . S
C834 C838 1.531 . S
C835 C834 1.369 . S
C835 C836 1.410 . S
C835 C843 1.503 . S
C836 C835 1.410 . S
C836 C837 1.392 . S
C836 C839 1.511 . S
C837 C833 1.376 . S
C837 C836 1.392 . S
C837 H849 0.929 . S
C838 C834 1.531 . S
C838 H850 0.960 . S
C838 H851 0.962 . S
C838 H852 0.960 . S
C839 C836 1.511 . S
C839 H853 0.961 . S
C839 H854 0.961 . S
C839 H855 0.961 . S
C840 C841 1.370 . S
C840 C842 1.363 . S
C840 H856 0.931 . S
C841 C840 1.370 . S
C841 C845 1.408 . S
C842 C840 1.363 . S
C842 C843 1.370 . S
C842 C846 1.524 . S
C843 C835 1.503 . S
C843 C842 1.370 . S
C843 C844 1.403 . S
C844 C843 1.403 . S
C844 C845 1.404 . S
C844 C847 1.539 . S
C845 C841 1.408 . S
C845 C844 1.404 . S
C845 H857 0.930 . S
C846 C842 1.524 . S
C846 H858 0.956 . S
C846 H859 0.961 . S
C846 H860 0.961 . S
C847 C844 1.539 . S
C847 H861 0.958 . S
C847 H862 0.961 . S
C847 H863 0.960 . S
H848 C832 0.931 . S
H849 C837 0.929 . S
H850 C838 0.960 . S
H851 C838 0.962 . S
H852 C838 0.960 . S
H853 C839 0.961 . S
H854 C839 0.961 . S
H855 C839 0.961 . S
H856 C840 0.931 . S
H857 C845 0.930 . S
H858 C846 0.956 . S
H859 C846 0.961 . S
H860 C846 0.961 . S
H861 C847 0.958 . S
H862 C847 0.961 . S
H863 C847 0.960 . S
C864 C865 1.391 . S
C864 C866 1.394 . S
C864 H880 0.931 . S
C865 C864 1.391 . S
C865 C869 1.376 . S
C866 C864 1.394 . S
C866 C867 1.369 . S
C866 C870 1.531 . S
C867 C866 1.369 . S
C867 C868 1.410 . S
C867 C875 1.503 . S
C868 C867 1.410 . S
C868 C869 1.392 . S
C868 C871 1.511 . S
C869 C865 1.376 . S
C869 C868 1.392 . S
C869 H881 0.929 . S
C870 C866 1.531 . S
C870 H882 0.960 . S
C870 H883 0.962 . S
C870 H884 0.960 . S
C871 C868 1.511 . S
C871 H885 0.961 . S
C871 H886 0.961 . S
C871 H887 0.961 . S
C872 C873 1.370 . S
C872 C874 1.363 . S
C872 H888 0.931 . S
C873 C872 1.370 . S
C873 C877 1.408 . S
C874 C872 1.363 . S
C874 C875 1.370 . S
C874 C878 1.524 . S
C875 C867 1.503 . S
C875 C874 1.370 . S
C875 C876 1.403 . S
C876 C875 1.403 . S
C876 C877 1.404 . S
C876 C879 1.539 . S
C877 C873 1.408 . S
C877 C876 1.404 . S
C877 H889 0.930 . S
C878 C874 1.524 . S
C878 H890 0.956 . S
C878 H891 0.961 . S
C878 H892 0.961 . S
C879 C876 1.539 . S
C879 H893 0.958 . S
C879 H894 0.961 . S
C879 H895 0.960 . S
H880 C864 0.931 . S
H881 C869 0.929 . S
H882 C870 0.960 . S
H883 C870 0.962 . S
H884 C870 0.960 . S
H885 C871 0.961 . S
H886 C871 0.961 . S
H887 C871 0.961 . S
H888 C872 0.931 . S
H889 C877 0.930 . S
H890 C878 0.956 . S
H891 C878 0.961 . S
H892 C878 0.961 . S
H893 C879 0.958 . S
H894 C879 0.961 . S
H895 C879 0.960 . S
C896 C897 1.391 . S
C896 C898 1.394 . S
C896 H912 0.931 . S
C897 C896 1.391 . S
C897 C901 1.376 . S
C898 C896 1.394 . S
C898 C899 1.369 . S
C898 C902 1.531 . S
C899 C898 1.369 . S
C899 C900 1.410 . S
C899 C907 1.503 . S
C900 C899 1.410 . S
C900 C901 1.392 . S
C900 C903 1.511 . S
C901 C897 1.376 . S
C901 C900 1.392 . S
C901 H913 0.929 . S
C902 C898 1.531 . S
C902 H914 0.960 . S
C902 H915 0.962 . S
C902 H916 0.960 . S
C903 C900 1.511 . S
C903 H917 0.961 . S
C903 H918 0.961 . S
C903 H919 0.961 . S
C904 C905 1.370 . S
C904 C906 1.363 . S
C904 H920 0.931 . S
C905 C904 1.370 . S
C905 C909 1.408 . S
C906 C904 1.363 . S
C906 C907 1.370 . S
C906 C910 1.524 . S
C907 C899 1.503 . S
C907 C906 1.370 . S
C907 C908 1.403 . S
C908 C907 1.403 . S
C908 C909 1.404 . S
C908 C911 1.539 . S
C909 C905 1.408 . S
C909 C908 1.404 . S
C909 H921 0.930 . S
C910 C906 1.524 . S
C910 H922 0.956 . S
C910 H923 0.961 . S
C910 H924 0.961 . S
C911 C908 1.539 . S
C911 H925 0.958 . S
C911 H926 0.961 . S
C911 H927 0.960 . S
H912 C896 0.931 . S
H913 C901 0.929 . S
H914 C902 0.960 . S
H915 C902 0.962 . S
H916 C902 0.960 . S
H917 C903 0.961 . S
H918 C903 0.961 . S
H919 C903 0.961 . S
H920 C904 0.931 . S
H921 C909 0.930 . S
H922 C910 0.956 . S
H923 C910 0.961 . S
H924 C910 0.961 . S
H925 C911 0.958 . S
H926 C911 0.961 . S
H927 C911 0.960 . S
C928 C929 1.391 . S
C928 C930 1.394 . S
C928 H944 0.931 . S
C929 C928 1.391 . S
C929 C933 1.376 . S
C930 C928 1.394 . S
C930 C931 1.369 . S
C930 C934 1.531 . S
C931 C930 1.369 . S
C931 C932 1.410 . S
C931 C939 1.503 . S
C932 C931 1.410 . S
C932 C933 1.392 . S
C932 C935 1.511 . S
C933 C929 1.376 . S
C933 C932 1.392 . S
C933 H945 0.929 . S
C934 C930 1.531 . S
C934 H946 0.960 . S
C934 H947 0.962 . S
C934 H948 0.960 . S
C935 C932 1.511 . S
C935 H949 0.961 . S
C935 H950 0.961 . S
C935 H951 0.961 . S
C936 C937 1.370 . S
C936 C938 1.363 . S
C936 H952 0.931 . S
C937 C936 1.370 . S
C937 C941 1.408 . S
C938 C936 1.363 . S
C938 C939 1.370 . S
C938 C942 1.524 . S
C939 C931 1.503 . S
C939 C938 1.370 . S
C939 C940 1.403 . S
C940 C939 1.403 . S
C940 C941 1.404 . S
C940 C943 1.539 . S
C941 C937 1.408 . S
C941 C940 1.404 . S
C941 H953 0.930 . S
C942 C938 1.524 . S
C942 H954 0.956 . S
C942 H955 0.961 . S
C942 H956 0.961 . S
C943 C940 1.539 . S
C943 H957 0.958 . S
C943 H958 0.961 . S
C943 H959 0.960 . S
H944 C928 0.931 . S
H945 C933 0.929 . S
H946 C934 0.960 . S
H947 C934 0.962 . S
H948 C934 0.960 . S
H949 C935 0.961 . S
H950 C935 0.961 . S
H951 C935 0.961 . S
H952 C936 0.931 . S
H953 C941 0.930 . S
H954 C942 0.956 . S
H955 C942 0.961 . S
H956 C942 0.961 . S
H957 C943 0.958 . S
H958 C943 0.961 . S
H959 C943 0.960 . S
C960 C961 1.391 . S
C960 C962 1.394 . S
C960 H976 0.931 . S
C961 C960 1.391 . S
C961 C965 1.376 . S
C962 C960 1.394 . S
C962 C963 1.369 . S
C962 C966 1.531 . S
C963 C962 1.369 . S
C963 C964 1.410 . S
C963 C971 1.503 . S
C964 C963 1.410 . S
C964 C965 1.392 . S
C964 C967 1.511 . S
C965 C961 1.376 . S
C965 C964 1.392 . S
C965 H977 0.929 . S
C966 C962 1.531 . S
C966 H978 0.960 . S
C966 H979 0.962 . S
C966 H980 0.960 . S
C967 C964 1.511 . S
C967 H981 0.961 . S
C967 H982 0.961 . S
C967 H983 0.961 . S
C968 C969 1.370 . S
C968 C970 1.363 . S
C968 H984 0.931 . S
C969 C968 1.370 . S
C969 C973 1.408 . S
C970 C968 1.363 . S
C970 C971 1.370 . S
C970 C974 1.524 . S
C971 C963 1.503 . S
C971 C970 1.370 . S
C971 C972 1.403 . S
C972 C971 1.403 . S
C972 C973 1.404 . S
C972 C975 1.539 . S
C973 C969 1.408 . S
C973 C972 1.404 . S
C973 H985 0.930 . S
C974 C970 1.524 . S
C974 H986 0.956 . S
C974 H987 0.961 . S
C974 H988 0.961 . S
C975 C972 1.539 . S
C975 H989 0.958 . S
C975 H990 0.961 . S
C975 H991 0.960 . S
H976 C960 0.931 . S
H977 C965 0.929 . S
H978 C966 0.960 . S
H979 C966 0.962 . S
H980 C966 0.960 . S
H981 C967 0.961 . S
H982 C967 0.961 . S
H983 C967 0.961 . S
H984 C968 0.931 . S
H985 C973 0.930 . S
H986 C974 0.956 . S
H987 C974 0.961 . S
H988 C974 0.961 . S
H989 C975 0.958 . S
H990 C975 0.961 . S
H991 C975 0.960 . S
C992 C993 1.391 . S
C992 C994 1.394 . S
C992 H1008 0.931 . S
C993 C992 1.391 . S
C993 C997 1.376 . S
C994 C992 1.394 . S
C994 C995 1.369 . S
C994 C998 1.531 . S
C995 C994 1.369 . S
C995 C996 1.410 . S
C995 C1003 1.503 1_545 S
C996 C995 1.410 . S
C996 C997 1.392 . S
C996 C999 1.511 . S
C997 C993 1.376 . S
C997 C996 1.392 . S
C997 H1009 0.929 . S
C998 C994 1.531 . S
C998 H1010 0.960 . S
C998 H1011 0.962 . S
C998 H1012 0.960 . S
C999 C996 1.511 . S
C999 H1013 0.961 . S
C999 H1014 0.961 1_545 S
C999 H1015 0.961 . S
C1000 C1001 1.370 . S
C1000 C1002 1.363 . S
C1000 H1016 0.931 . S
C1001 C1000 1.370 . S
C1001 C1005 1.408 . S
C1002 C1000 1.363 . S
C1002 C1003 1.370 . S
C1002 C1006 1.524 . S
C1003 C995 1.503 1_565 S
C1003 C1002 1.370 . S
C1003 C1004 1.403 . S
C1004 C1003 1.403 . S
C1004 C1005 1.404 . S
C1004 C1007 1.539 1_565 S
C1005 C1001 1.408 . S
C1005 C1004 1.404 . S
C1005 H1017 0.930 . S
C1006 C1002 1.524 . S
C1006 H1018 0.956 . S
C1006 H1019 0.961 . S
C1006 H1020 0.961 . S
C1007 C1004 1.539 1_545 S
C1007 H1021 0.958 . S
C1007 H1022 0.961 1_545 S
C1007 H1023 0.960 . S
H1008 C992 0.931 . S
H1009 C997 0.929 . S
H1010 C998 0.960 . S
H1011 C998 0.962 . S
H1012 C998 0.960 . S
H1013 C999 0.961 . S
H1014 C999 0.961 1_565 S
H1015 C999 0.961 . S
H1016 C1000 0.931 . S
H1017 C1005 0.930 . S
H1018 C1006 0.956 . S
H1019 C1006 0.961 . S
H1020 C1006 0.961 . S
H1021 C1007 0.958 . S
H1022 C1007 0.961 1_565 S
H1023 C1007 0.960 . S
C1024 C1025 1.391 . S
C1024 C1026 1.394 . S
C1024 H1040 0.931 . S
C1025 C1024 1.391 . S
C1025 C1029 1.376 . S
C1026 C1024 1.394 . S
C1026 C1027 1.369 . S
C1026 C1030 1.531 . S
C1027 C1026 1.369 . S
C1027 C1028 1.410 . S
C1027 C1035 1.503 1_655 S
C1028 C1027 1.410 . S
C1028 C1029 1.392 . S
C1028 C1031 1.511 1_655 S
C1029 C1025 1.376 . S
C1029 C1028 1.392 . S
C1029 H1041 0.929 . S
C1030 C1026 1.531 . S
C1030 H1042 0.960 . S
C1030 H1043 0.962 . S
C1030 H1044 0.960 . S
C1031 C1028 1.511 1_455 S
C1031 H1045 0.969 . S
C1031 H1046 0.961 . S
C1031 H1047 0.961 . S
C1032 C1033 1.370 . S
C1032 C1034 1.363 . S
C1032 H1048 0.931 . S
C1033 C1032 1.370 . S
C1033 C1037 1.408 . S
C1034 C1032 1.363 . S
C1034 C1035 1.370 . S
C1034 C1038 1.524 . S
C1035 C1027 1.503 1_455 S
C1035 C1034 1.370 . S
C1035 C1036 1.403 . S
C1036 C1035 1.403 . S
C1036 C1037 1.404 . S
C1036 C1039 1.539 . S
C1037 C1033 1.408 . S
C1037 C1036 1.404 . S
C1037 H1049 0.930 . S
C1038 C1034 1.524 . S
C1038 H1050 0.956 1_455 S
C1038 H1051 0.961 . S
C1038 H1052 0.961 . S
C1039 C1036 1.539 . S
C1039 H1053 0.958 . S
C1039 H1054 0.961 . S
C1039 H1055 0.960 . S
H1040 C1024 0.931 . S
H1041 C1029 0.929 . S
H1042 C1030 0.960 . S
H1043 C1030 0.962 . S
H1044 C1030 0.960 . S
H1045 C1031 0.969 . S
H1046 C1031 0.961 . S
H1047 C1031 0.961 . S
H1048 C1032 0.931 . S
H1049 C1037 0.930 . S
H1050 C1038 0.956 1_655 S
H1051 C1038 0.961 . S
H1052 C1038 0.961 . S
H1053 C1039 0.958 . S
H1054 C1039 0.961 . S
H1055 C1039 0.960 . S
C1056 C1057 1.391 . S
C1056 C1058 1.394 . S
C1056 H1072 0.931 . S
C1057 C1056 1.391 . S
C1057 C1061 1.376 . S
C1058 C1056 1.394 . S
C1058 C1059 1.369 . S
C1058 C1062 1.531 . S
C1059 C1058 1.369 . S
C1059 C1060 1.410 . S
C1059 C1067 1.503 1_545 S
C1060 C1059 1.410 . S
C1060 C1061 1.392 . S
C1060 C1063 1.511 . S
C1061 C1057 1.376 . S
C1061 C1060 1.392 . S
C1061 H1073 0.929 . S
C1062 C1058 1.531 . S
C1062 H1074 0.960 . S
C1062 H1075 0.962 . S
C1062 H1076 0.960 . S
C1063 C1060 1.511 . S
C1063 H1077 0.961 . S
C1063 H1078 0.961 1_545 S
C1063 H1079 0.961 . S
C1064 C1065 1.370 . S
C1064 C1066 1.363 . S
C1064 H1080 0.931 . S
C1065 C1064 1.370 . S
C1065 C1069 1.408 . S
C1066 C1064 1.363 . S
C1066 C1067 1.370 . S
C1066 C1070 1.524 . S
C1067 C1059 1.503 1_565 S
C1067 C1066 1.370 . S
C1067 C1068 1.403 . S
C1068 C1067 1.403 . S
C1068 C1069 1.404 . S
C1068 C1071 1.539 1_565 S
C1069 C1065 1.408 . S
C1069 C1068 1.404 . S
C1069 H1081 0.930 . S
C1070 C1066 1.524 . S
C1070 H1082 0.956 . S
C1070 H1083 0.961 . S
C1070 H1084 0.961 . S
C1071 C1068 1.539 1_545 S
C1071 H1085 0.958 . S
C1071 H1086 0.961 1_545 S
C1071 H1087 0.960 . S
H1072 C1056 0.931 . S
H1073 C1061 0.929 . S
H1074 C1062 0.960 . S
H1075 C1062 0.962 . S
H1076 C1062 0.960 . S
H1077 C1063 0.961 . S
H1078 C1063 0.961 1_565 S
H1079 C1063 0.961 . S
H1080 C1064 0.931 . S
H1081 C1069 0.930 . S
H1082 C1070 0.956 . S
H1083 C1070 0.961 . S
H1084 C1070 0.961 . S
H1085 C1071 0.958 . S
H1086 C1071 0.961 1_565 S
H1087 C1071 0.960 . S
C1088 C1089 1.391 . S
C1088 C1090 1.394 . S
C1088 H1104 0.931 . S
C1089 C1088 1.391 . S
C1089 C1093 1.376 . S
C1090 C1088 1.394 . S
C1090 C1091 1.369 . S
C1090 C1094 1.531 . S
C1091 C1090 1.369 . S
C1091 C1092 1.410 . S
C1091 C1099 1.503 1_455 S
C1092 C1091 1.410 . S
C1092 C1093 1.392 . S
C1092 C1095 1.511 . S
C1093 C1089 1.376 . S
C1093 C1092 1.392 . S
C1093 H1105 0.929 . S
C1094 C1090 1.531 . S
C1094 H1106 0.960 1_455 S
C1094 H1107 0.962 1_455 S
C1094 H1108 0.960 . S
C1095 C1092 1.511 . S
C1095 H1109 0.961 . S
C1095 H1110 0.961 . S
C1095 H1111 0.961 . S
C1096 C1097 1.370 . S
C1096 C1098 1.363 . S
C1096 H1112 0.931 . S
C1097 C1096 1.370 . S
C1097 C1101 1.408 . S
C1098 C1096 1.363 . S
C1098 C1099 1.370 . S
C1098 C1102 1.524 . S
C1099 C1091 1.503 1_655 S
C1099 C1098 1.370 . S
C1099 C1100 1.403 . S
C1100 C1099 1.403 . S
C1100 C1101 1.404 . S
C1100 C1103 1.539 1_655 S
C1101 C1097 1.408 . S
C1101 C1100 1.404 . S
C1101 H1113 0.930 . S
C1102 C1098 1.524 . S
C1102 H1114 0.956 . S
C1102 H1115 0.961 . S
C1102 H1116 0.961 . S
C1103 C1100 1.539 1_455 S
C1103 H1117 0.958 . S
C1103 H1118 0.961 1_455 S
C1103 H1119 0.960 . S
H1104 C1088 0.931 . S
H1105 C1093 0.929 . S
H1106 C1094 0.960 1_655 S
H1107 C1094 0.962 1_655 S
H1108 C1094 0.960 . S
H1109 C1095 0.961 . S
H1110 C1095 0.961 . S
H1111 C1095 0.961 . S
H1112 C1096 0.931 . S
H1113 C1101 0.930 . S
H1114 C1102 0.956 . S
H1115 C1102 0.961 . S
H1116 C1102 0.961 . S
H1117 C1103 0.958 . S
H1118 C1103 0.961 1_655 S
H1119 C1103 0.960 . S
C1120 C1121 1.391 . S
C1120 C1122 1.394 . S
C1120 H1136 0.931 . S
C1121 C1120 1.391 . S
C1121 C1125 1.376 . S
C1122 C1120 1.394 . S
C1122 C1123 1.369 . S
C1122 C1126 1.531 . S
C1123 C1122 1.369 . S
C1123 C1124 1.410 . S
C1123 C1131 1.503 1_545 S
C1124 C1123 1.410 . S
C1124 C1125 1.392 . S
C1124 C1127 1.511 . S
C1125 C1121 1.376 . S
C1125 C1124 1.392 . S
C1125 H1137 0.929 . S
C1126 C1122 1.531 . S
C1126 H1138 0.960 1_545 S
C1126 H1139 0.962 . S
C1126 H1140 0.960 . S
C1127 C1124 1.511 . S
C1127 H1141 0.961 . S
C1127 H1142 0.961 . S
C1127 H1143 0.961 . S
C1128 C1129 1.370 . S
C1128 C1130 1.363 . S
C1128 H1144 0.931 . S
C1129 C1128 1.370 . S
C1129 C1133 1.408 . S
C1130 C1128 1.363 . S
C1130 C1131 1.370 . S
C1130 C1134 1.509 1_565 S
C1131 C1123 1.503 1_565 S
C1131 C1130 1.370 . S
C1131 C1132 1.403 . S
C1132 C1131 1.403 . S
C1132 C1133 1.404 . S
C1132 C1135 1.539 . S
C1133 C1129 1.408 . S
C1133 C1132 1.404 . S
C1133 H1145 0.930 . S
C1134 C1130 1.509 1_545 S
C1134 H1146 0.965 . S
C1134 H1147 0.976 . S
C1134 H1148 0.952 1_545 S
C1135 C1132 1.539 . S
C1135 H1149 0.958 . S
C1135 H1150 0.961 . S
C1135 H1151 0.960 . S
H1136 C1120 0.931 . S
H1137 C1125 0.929 . S
H1138 C1126 0.960 1_565 S
H1139 C1126 0.962 . S
H1140 C1126 0.960 . S
H1141 C1127 0.961 . S
H1142 C1127 0.961 . S
H1143 C1127 0.961 . S
H1144 C1128 0.931 . S
H1145 C1133 0.930 . S
H1146 C1134 0.965 . S
H1147 C1134 0.976 . S
H1148 C1134 0.952 1_565 S
H1149 C1135 0.958 . S
H1150 C1135 0.961 . S
H1151 C1135 0.960 . S
C1152 C1153 1.391 . S
C1152 C1154 1.394 . S
C1152 H1168 0.931 . S
C1153 C1152 1.391 . S
C1153 C1157 1.376 . S
C1154 C1152 1.394 . S
C1154 C1155 1.369 . S
C1154 C1158 1.531 . S
C1155 C1154 1.369 . S
C1155 C1156 1.410 . S
C1155 C1163 1.503 1_655 S
C1156 C1155 1.410 . S
C1156 C1157 1.392 . S
C1156 C1159 1.511 . S
C1157 C1153 1.376 . S
C1157 C1156 1.392 . S
C1157 H1169 0.929 . S
C1158 C1154 1.531 . S
C1158 H1170 0.960 1_655 S
C1158 H1171 0.962 1_655 S
C1158 H1172 0.960 . S
C1159 C1156 1.511 . S
C1159 H1173 0.961 . S
C1159 H1174 0.961 . S
C1159 H1175 0.961 . S
C1160 C1161 1.370 . S
C1160 C1162 1.363 . S
C1160 H1176 0.931 . S
C1161 C1160 1.370 . S
C1161 C1165 1.408 . S
C1162 C1160 1.363 . S
C1162 C1163 1.370 . S
C1162 C1166 1.524 . S
C1163 C1155 1.503 1_455 S
C1163 C1162 1.370 . S
C1163 C1164 1.403 . S
C1164 C1163 1.403 . S
C1164 C1165 1.404 . S
C1164 C1167 1.539 . S
C1165 C1161 1.408 . S
C1165 C1164 1.404 . S
C1165 H1177 0.930 . S
C1166 C1162 1.524 . S
C1166 H1178 0.956 . S
C1166 H1179 0.929 1_455 S
C1166 H1180 0.961 . S
C1167 C1164 1.539 . S
C1167 H1181 0.958 . S
C1167 H1182 0.961 . S
C1167 H1183 0.960 1_455 S
H1168 C1152 0.931 . S
H1169 C1157 0.929 . S
H1170 C1158 0.960 1_455 S
H1171 C1158 0.962 1_455 S
H1172 C1158 0.960 . S
H1173 C1159 0.961 . S
H1174 C1159 0.961 . S
H1175 C1159 0.961 . S
H1176 C1160 0.931 . S
H1177 C1165 0.930 . S
H1178 C1166 0.956 . S
H1179 C1166 0.929 1_655 S
H1180 C1166 0.961 . S
H1181 C1167 0.958 . S
H1182 C1167 0.961 . S
H1183 C1167 0.960 1_655 S
C1184 C1185 1.391 . S
C1184 C1186 1.394 . S
C1184 H1200 0.931 . S
C1185 C1184 1.391 . S
C1185 C1189 1.376 . S
C1186 C1184 1.394 . S
C1186 C1187 1.369 . S
C1186 C1190 1.531 . S
C1187 C1186 1.369 . S
C1187 C1188 1.410 . S
C1187 C1195 1.503 1_565 S
C1188 C1187 1.410 . S
C1188 C1189 1.392 . S
C1188 C1191 1.511 . S
C1189 C1185 1.376 . S
C1189 C1188 1.392 . S
C1189 H1201 0.929 . S
C1190 C1186 1.531 . S
C1190 H1202 0.960 1_565 S
C1190 H1203 0.962 . S
C1190 H1204 0.960 . S
C1191 C1188 1.511 . S
C1191 H1205 0.961 . S
C1191 H1206 0.961 1_565 S
C1191 H1207 0.961 . S
C1192 C1193 1.370 . S
C1192 C1194 1.363 . S
C1192 H1208 0.931 . S
C1193 C1192 1.370 . S
C1193 C1197 1.408 . S
C1194 C1192 1.363 . S
C1194 C1195 1.370 . S
C1194 C1198 1.524 1_545 S
C1195 C1187 1.503 1_545 S
C1195 C1194 1.370 . S
C1195 C1196 1.403 . S
C1196 C1195 1.403 . S
C1196 C1197 1.404 . S
C1196 C1199 1.539 . S
C1197 C1193 1.408 . S
C1197 C1196 1.404 . S
C1197 H1209 0.930 . S
C1198 C1194 1.524 1_565 S
C1198 H1210 0.956 . S
C1198 H1211 0.961 . S
C1198 H1212 0.961 1_565 S
C1199 C1196 1.539 . S
C1199 H1213 0.958 . S
C1199 H1214 0.961 . S
C1199 H1215 0.960 . S
H1200 C1184 0.931 . S
H1201 C1189 0.929 . S
H1202 C1190 0.960 1_545 S
H1203 C1190 0.962 . S
H1204 C1190 0.960 . S
H1205 C1191 0.961 . S
H1206 C1191 0.961 1_545 S
H1207 C1191 0.961 . S
H1208 C1192 0.931 . S
H1209 C1197 0.930 . S
H1210 C1198 0.956 . S
H1211 C1198 0.961 . S
H1212 C1198 0.961 1_545 S
H1213 C1199 0.958 . S
H1214 C1199 0.961 . S
H1215 C1199 0.960 . S
C1216 C1217 1.391 . S
C1216 C1218 1.394 . S
C1216 H1232 0.931 . S
C1217 C1216 1.391 . S
C1217 C1221 1.376 . S
C1218 C1216 1.394 . S
C1218 C1219 1.369 . S
C1218 C1222 1.531 . S
C1219 C1218 1.369 . S
C1219 C1220 1.410 . S
C1219 C1227 1.503 1_455 S
C1220 C1219 1.410 . S
C1220 C1221 1.392 . S
C1220 C1223 1.511 . S
C1221 C1217 1.376 . S
C1221 C1220 1.392 . S
C1221 H1233 0.929 . S
C1222 C1218 1.531 . S
C1222 H1234 0.960 1_455 S
C1222 H1235 0.962 . S
C1222 H1236 0.960 . S
C1223 C1220 1.511 . S
C1223 H1237 0.961 . S
C1223 H1238 0.961 1_455 S
C1223 H1239 0.961 . S
C1224 C1225 1.370 . S
C1224 C1226 1.363 . S
C1224 H1240 0.931 . S
C1225 C1224 1.370 . S
C1225 C1229 1.408 . S
C1226 C1224 1.363 . S
C1226 C1227 1.370 . S
C1226 C1230 1.524 1_655 S
C1227 C1219 1.503 1_655 S
C1227 C1226 1.370 . S
C1227 C1228 1.403 . S
C1228 C1227 1.403 . S
C1228 C1229 1.404 . S
C1228 C1231 1.539 . S
C1229 C1225 1.408 . S
C1229 C1228 1.404 . S
C1229 H1241 0.930 . S
C1230 C1226 1.524 1_455 S
C1230 H1242 0.956 . S
C1230 H1243 0.961 . S
C1230 H1244 0.961 1_455 S
C1231 C1228 1.539 . S
C1231 H1245 0.958 . S
C1231 H1246 0.961 . S
C1231 H1247 0.960 . S
H1232 C1216 0.931 . S
H1233 C1221 0.929 . S
H1234 C1222 0.960 1_655 S
H1235 C1222 0.962 . S
H1236 C1222 0.960 . S
H1237 C1223 0.961 . S
H1238 C1223 0.961 1_655 S
H1239 C1223 0.961 . S
H1240 C1224 0.931 . S
H1241 C1229 0.930 . S
H1242 C1230 0.956 . S
H1243 C1230 0.961 . S
H1244 C1230 0.961 1_655 S
H1245 C1231 0.958 . S
H1246 C1231 0.961 . S
H1247 C1231 0.960 . S
C225 C81 1.416 . S
C233 C11 1.411 . S
C257 C95 1.412 . S
C265 C25 1.405 . S
C289 C39 1.396 . S
C297 C109 1.399 . S
C321 C53 1.395 . S
C329 C67 1.399 . S
C353 C193 1.399 . S
C361 C123 1.409 . S
C385 C207 1.386 . S
C393 C137 1.399 . S
C417 C151 1.414 . S
C425 C221 1.412 . S
C449 C165 1.404 . S
C457 C179 1.410 . S
C481 C149 1.536 . S
C489 C9 1.539 . S
C513 C163 1.534 . S
C521 C23 1.541 . S
C545 C121 1.538 . S
C553 C37 1.541 . S
C577 C51 1.535 . S
C585 C135 1.540 . S
C609 C205 1.536 . S
C617 C65 1.540 . S
C641 C219 1.534 . S
C649 C79 1.542 . S
C673 C93 1.539 . S
C681 C177 1.539 . S
C705 C191 1.534 . S
C713 C107 1.541 . S
C737 C61 1.931 . S
C745 C5 1.931 . S
C769 C19 1.920 . S
C777 C75 1.934 . S
C801 C33 1.927 . S
C809 C89 1.929 . S
C833 C103 1.921 . S
C841 C47 1.931 . S
C865 C112 0.896 . S
C873 C168 0.933 . S
C897 C182 0.930 . S
C905 C126 0.933 . S
C929 C140 0.913 . S
C937 C196 0.898 . S
C961 C210 0.886 . S
C969 C154 0.931 . S
C993 C159 1.921 . S
C1001 C187 1.934 . S
C1025 C117 1.930 . S
C1033 C201 1.932 . S
C1057 C215 1.921 . S
C1065 C131 1.934 . S
C1089 C145 1.920 . S
C1097 C173 1.933 . S
C1121 C70 0.901 . S
C1129 C42 0.934 . S
C1153 C84 0.956 . S
C1161 C0 0.922 . S
C1185 C98 0.887 . S
C1193 C14 0.931 . S
C1217 C56 0.879 . S
C1225 C28 0.928 . S
