# Generated by pormake.
# Topology bcs, (6)-cn, num edge types: 1
# Building blocks:
#     Node 0, Type 0, BuildingBlock: CUWYAW_clean_sbu_0, # of connection points: 6
#     Node 1, Type 0, BuildingBlock: CUWYAW_clean_sbu_0, # of connection points: 6
#     Node 2, Type 0, BuildingBlock: CUWYAW_clean_sbu_0, # of connection points: 6
#     Node 3, Type 0, BuildingBlock: CUWYAW_clean_sbu_0, # of connection points: 6
#     Node 4, Type 0, BuildingBlock: CUWYAW_clean_sbu_0, # of connection points: 6
#     Node 5, Type 0, BuildingBlock: CUWYAW_clean_sbu_0, # of connection points: 6
#     Node 6, Type 0, BuildingBlock: CUWYAW_clean_sbu_0, # of connection points: 6
#     Node 7, Type 0, BuildingBlock: CUWYAW_clean_sbu_0, # of connection points: 6
#     Node 8, Type 0, BuildingBlock: CUWYAW_clean_sbu_0, # of connection points: 6
#     Node 9, Type 0, BuildingBlock: CUWYAW_clean_sbu_0, # of connection points: 6
#     Node 10, Type 0, BuildingBlock: CUWYAW_clean_sbu_0, # of connection points: 6
#     Node 11, Type 0, BuildingBlock: CUWYAW_clean_sbu_0, # of connection points: 6
#     Node 12, Type 0, BuildingBlock: CUWYAW_clean_sbu_0, # of connection points: 6
#     Node 13, Type 0, BuildingBlock: CUWYAW_clean_sbu_0, # of connection points: 6
#     Node 14, Type 0, BuildingBlock: CUWYAW_clean_sbu_0, # of connection points: 6
#     Node 15, Type 0, BuildingBlock: CUWYAW_clean_sbu_0, # of connection points: 6
#     Edge 16, Type (0, 0), BuildingBlock: MIFKUJ_clean_linker_0, # of connection points: 2
#     Edge 17, Type (0, 0), BuildingBlock: MIFKUJ_clean_linker_0, # of connection points: 2
#     Edge 18, Type (0, 0), BuildingBlock: MIFKUJ_clean_linker_0, # of connection points: 2
#     Edge 19, Type (0, 0), BuildingBlock: MIFKUJ_clean_linker_0, # of connection points: 2
#     Edge 20, Type (0, 0), BuildingBlock: MIFKUJ_clean_linker_0, # of connection points: 2
#     Edge 21, Type (0, 0), BuildingBlock: MIFKUJ_clean_linker_0, # of connection points: 2
#     Edge 22, Type (0, 0), BuildingBlock: MIFKUJ_clean_linker_0, # of connection points: 2
#     Edge 23, Type (0, 0), BuildingBlock: MIFKUJ_clean_linker_0, # of connection points: 2
#     Edge 24, Type (0, 0), BuildingBlock: MIFKUJ_clean_linker_0, # of connection points: 2
#     Edge 25, Type (0, 0), BuildingBlock: MIFKUJ_clean_linker_0, # of connection points: 2
#     Edge 26, Type (0, 0), BuildingBlock: MIFKUJ_clean_linker_0, # of connection points: 2
#     Edge 27, Type (0, 0), BuildingBlock: MIFKUJ_clean_linker_0, # of connection points: 2
#     Edge 28, Type (0, 0), BuildingBlock: MIFKUJ_clean_linker_0, # of connection points: 2
#     Edge 29, Type (0, 0), BuildingBlock: MIFKUJ_clean_linker_0, # of connection points: 2
#     Edge 30, Type (0, 0), BuildingBlock: MIFKUJ_clean_linker_0, # of connection points: 2
#     Edge 31, Type (0, 0), BuildingBlock: MIFKUJ_clean_linker_0, # of connection points: 2
#     Edge 32, Type (0, 0), BuildingBlock: MIFKUJ_clean_linker_0, # of connection points: 2
#     Edge 33, Type (0, 0), BuildingBlock: MIFKUJ_clean_linker_0, # of connection points: 2
#     Edge 34, Type (0, 0), BuildingBlock: MIFKUJ_clean_linker_0, # of connection points: 2
#     Edge 35, Type (0, 0), BuildingBlock: MIFKUJ_clean_linker_0, # of connection points: 2
#     Edge 36, Type (0, 0), BuildingBlock: MIFKUJ_clean_linker_0, # of connection points: 2
#     Edge 37, Type (0, 0), BuildingBlock: MIFKUJ_clean_linker_0, # of connection points: 2
#     Edge 38, Type (0, 0), BuildingBlock: MIFKUJ_clean_linker_0, # of connection points: 2
#     Edge 39, Type (0, 0), BuildingBlock: MIFKUJ_clean_linker_0, # of connection points: 2
#     Edge 40, Type (0, 0), BuildingBlock: MIFKUJ_clean_linker_0, # of connection points: 2
#     Edge 41, Type (0, 0), BuildingBlock: MIFKUJ_clean_linker_0, # of connection points: 2
#     Edge 42, Type (0, 0), BuildingBlock: MIFKUJ_clean_linker_0, # of connection points: 2
#     Edge 43, Type (0, 0), BuildingBlock: MIFKUJ_clean_linker_0, # of connection points: 2
#     Edge 44, Type (0, 0), BuildingBlock: MIFKUJ_clean_linker_0, # of connection points: 2
#     Edge 45, Type (0, 0), BuildingBlock: MIFKUJ_clean_linker_0, # of connection points: 2
#     Edge 46, Type (0, 0), BuildingBlock: MIFKUJ_clean_linker_0, # of connection points: 2
#     Edge 47, Type (0, 0), BuildingBlock: MIFKUJ_clean_linker_0, # of connection points: 2
#     Edge 48, Type (0, 0), BuildingBlock: MIFKUJ_clean_linker_0, # of connection points: 2
#     Edge 49, Type (0, 0), BuildingBlock: MIFKUJ_clean_linker_0, # of connection points: 2
#     Edge 50, Type (0, 0), BuildingBlock: MIFKUJ_clean_linker_0, # of connection points: 2
#     Edge 51, Type (0, 0), BuildingBlock: MIFKUJ_clean_linker_0, # of connection points: 2
#     Edge 52, Type (0, 0), BuildingBlock: MIFKUJ_clean_linker_0, # of connection points: 2
#     Edge 53, Type (0, 0), BuildingBlock: MIFKUJ_clean_linker_0, # of connection points: 2
#     Edge 54, Type (0, 0), BuildingBlock: MIFKUJ_clean_linker_0, # of connection points: 2
#     Edge 55, Type (0, 0), BuildingBlock: MIFKUJ_clean_linker_0, # of connection points: 2
#     Edge 56, Type (0, 0), BuildingBlock: MIFKUJ_clean_linker_0, # of connection points: 2
#     Edge 57, Type (0, 0), BuildingBlock: MIFKUJ_clean_linker_0, # of connection points: 2
#     Edge 58, Type (0, 0), BuildingBlock: MIFKUJ_clean_linker_0, # of connection points: 2
#     Edge 59, Type (0, 0), BuildingBlock: MIFKUJ_clean_linker_0, # of connection points: 2
#     Edge 60, Type (0, 0), BuildingBlock: MIFKUJ_clean_linker_0, # of connection points: 2
#     Edge 61, Type (0, 0), BuildingBlock: MIFKUJ_clean_linker_0, # of connection points: 2
#     Edge 62, Type (0, 0), BuildingBlock: MIFKUJ_clean_linker_0, # of connection points: 2
#     Edge 63, Type (0, 0), BuildingBlock: MIFKUJ_clean_linker_0, # of connection points: 2
# Relax obj value: 0.202
# Max RMSD: 0.213
# Mean RMSD: 0.158
data_MOF--net-bcs--node1-CUWYAW_clean_sbu_0--edge1-MIFKUJ_clean_linker_0
_symmetry_space_group_name_H-M    P1
_symmetry_Int_Tables_number       1
_symmetry_cell_setting            triclinic
loop_
_symmetry_equiv_pos_as_xyz
'x, y, z'
_cell_length_a     53.620195
_cell_length_b     53.017049
_cell_length_c     49.834175
_cell_angle_alpha  83.926499
_cell_angle_beta   110.37156
_cell_angle_gamma 105.07098
loop_
_atom_site_label
_atom_site_type_symbol
_atom_site_fract_x
_atom_site_fract_y
_atom_site_fract_z
_atom_type_partial_charge
C0 C 1.0149 0.0649 0.05789 0.0
Eu1 Eu 0.03575 0.03962 0.02849 0.0
C2 C 1.00007 0.07915 0.07275 0.0
C3 C 1.01312 0.09285 0.09915 0.0
C4 C 0.999 0.10544 0.11207 0.0
C5 C 0.97052 0.10573 0.09971 0.0
C6 C 0.95765 0.09203 0.07323 0.0
C7 C 0.97169 0.07932 0.06049 0.0
C8 C 0.06885 0.06155 0.9891 0.0
C9 C 0.99352 0.04074 0.96072 0.0
C10 C 0.0516 0.96901 0.95614 0.0
Eu11 Eu 1.03097 0.99438 0.98562 0.0
C12 C 0.06626 0.95525 0.94064 0.0
C13 C 0.05231 0.9364 0.91852 0.0
C14 C 0.0663 0.92372 0.90554 0.0
C15 C 0.09558 0.92872 0.9134 0.0
C16 C 0.10934 0.9477 0.93553 0.0
C17 C 0.09539 0.96025 0.94849 0.0
C18 C 0.99838 0.97236 0.02545 0.0
C19 C 0.07299 0.99295 0.05325 0.0
O20 O 1.00085 0.04947 0.03608 0.0
O21 O 0.0414 0.06638 0.06454 0.0
O22 O 0.06673 0.07266 0.01054 0.0
O23 O 0.05338 0.0381 0.99167 0.0
O24 O 1.00132 0.04753 0.98783 0.0
O25 O 1.00303 0.02166 0.95395 0.0
O26 O 0.06581 0.98555 0.9769 0.0
O27 O 1.02506 0.9666 0.95045 0.0
O28 O 1.00066 0.96115 1.00419 0.0
O29 O 1.01351 0.99591 0.02258 0.0
O30 O 0.06545 0.98651 0.02608 0.0
O31 O 0.06332 1.01188 0.06012 0.0
H32 H 1.03467 0.09391 0.11022 0.0
H33 H 1.01096 0.11534 0.13205 0.0
H34 H 0.93611 0.09069 0.06197 0.0
H35 H 0.95985 0.06944 0.04045 0.0
H36 H 1.03014 0.93113 0.91106 0.0
H37 H 0.05362 0.90981 0.88893 0.0
H38 H 0.13147 0.95304 0.94351 0.0
H39 H 0.10792 0.97416 0.9652 0.0
C40 C 0.35142 0.8164 0.25084 0.0
Eu41 Eu 0.30568 0.78385 0.25063 0.0
C42 C 0.35937 0.84174 0.23717 0.0
C43 C 0.38185 0.84643 0.22763 0.0
C44 C 0.38849 0.86933 0.2124 0.0
C45 C 0.37281 0.88803 0.20654 0.0
C46 C 0.35084 0.88378 0.21699 0.0
C47 C 0.34402 0.86067 0.23204 0.0
C48 C 0.27272 0.74939 0.20945 0.0
C49 C 0.24829 0.80432 0.22513 0.0
C50 C 0.21267 0.71544 0.2633 0.0
Eu51 Eu 0.25839 0.74846 0.2643 0.0
C52 C 0.20449 0.68804 0.27218 0.0
C53 C 0.22197 0.6772 0.29589 0.0
C54 C 0.21296 0.65193 0.30567 0.0
C55 C 0.18637 0.63697 0.29178 0.0
C56 C 0.16954 0.64746 0.26707 0.0
C57 C 0.17851 0.6728 0.25742 0.0
C58 C 0.29181 0.78267 0.30561 0.0
C59 C 0.31575 0.72827 0.28961 0.0
O60 O 0.34003 0.81616 0.27024 0.0
O61 O 0.33937 0.79659 0.23362 0.0
O62 O 0.2836 0.77339 0.20398 0.0
O63 O 0.28051 0.74455 0.23596 0.0
O64 O 0.27521 0.81053 0.2295 0.0
O65 O 0.23748 0.78121 0.23561 0.0
O66 O 0.22162 0.71944 0.24155 0.0
O67 O 0.22711 0.73208 0.28388 0.0
O68 O 0.28098 0.75863 0.31103 0.0
O69 O 0.28366 0.7876 0.27913 0.0
O70 O 0.28848 0.72097 0.28254 0.0
O71 O 0.32683 0.75248 0.2818 0.0
H72 H 0.3939 0.83206 0.23138 0.0
H73 H 0.40568 0.87227 0.2048 0.0
H74 H 0.33835 0.89782 0.21257 0.0
H75 H 0.32643 0.85733 0.23907 0.0
H76 H 0.24227 0.68856 0.30742 0.0
H77 H 0.22637 0.64467 0.32495 0.0
H78 H 0.14912 0.63633 0.2556 0.0
H79 H 0.16488 0.68074 0.23886 0.0
C80 C 0.54514 0.99173 0.43667 0.0
Eu81 Eu 0.54032 1.01248 0.47891 0.0
C82 C 0.5523 0.96716 0.43535 0.0
C83 C 0.56333 0.96393 0.41468 0.0
C84 C 0.57228 0.94136 0.41507 0.0
C85 C 0.57068 0.92205 0.43644 0.0
C86 C 0.55904 0.92503 0.45672 0.0
C87 C 0.54955 0.9473 0.45592 0.0
C88 C 0.57178 0.05465 0.51057 0.0
C89 C 0.56728 0.97819 0.53933 0.0
C90 C 0.52153 0.03535 0.57495 0.0
Eu91 Eu 0.52666 0.01756 0.53097 0.0
C92 C 0.51948 0.06046 0.58254 0.0
C93 C 0.51117 0.0617 0.60591 0.0
C94 C 0.50977 0.08559 0.61384 0.0
C95 C 0.51675 0.10867 0.59854 0.0
C96 C 0.52512 0.10732 0.57506 0.0
C97 C 0.52651 0.08335 0.56713 0.0
C98 C 0.49533 0.97526 0.4993 0.0
C99 C 0.5008 0.05257 0.47054 0.0
O100 O 0.52171 0.98913 0.44055 0.0
O101 O 0.56481 1.00963 0.45289 0.0
O102 O 0.56409 0.05502 0.48273 0.0
O103 O 0.56402 0.03206 0.51993 0.0
O104 O 0.56245 0.9826 0.51117 0.0
O105 O 0.55633 0.9906 0.55257 0.0
O106 O 0.54509 0.03529 0.57277 0.0
O107 O 0.50066 0.02271 0.55433 0.0
O108 O 0.50315 0.97493 0.52708 0.0
O109 O 0.5029 0.99792 0.49005 0.0
O110 O 0.50658 0.04912 0.49904 0.0
O111 O 0.51055 0.03904 0.45712 0.0
H112 H 0.56557 0.97906 0.39869 0.0
H113 H 0.58147 0.93947 0.39939 0.0
H114 H 0.55758 0.9103 0.47329 0.0
H115 H 0.54052 0.94919 0.47171 0.0
H116 H 0.5057 0.04417 0.61798 0.0
H117 H 0.50267 0.0859 0.63164 0.0
H118 H 0.53072 0.12476 0.56295 0.0
H119 H 0.53316 0.08268 0.54908 0.0
C120 C 0.26537 0.32623 0.77765 0.0
Eu121 Eu 0.27499 0.28765 0.75779 0.0
C122 C 0.25906 0.32858 0.80351 0.0
C123 C 0.24774 0.34891 0.80573 0.0
C124 C 0.24238 0.35145 0.83067 0.0
C125 C 0.24809 0.33353 0.85362 0.0
C126 C 0.25944 0.31317 0.85131 0.0
C127 C 0.26512 0.31086 0.82654 0.0
C128 C 0.24431 0.25529 0.71413 0.0
C129 C 0.25175 0.23104 0.79582 0.0
C130 C 0.31375 0.20831 0.7422 0.0
Eu131 Eu 0.29703 0.24365 0.75875 0.0
C132 C 0.33689 0.2104 0.73189 0.0
C133 C 0.36392 0.22225 0.74849 0.0
C134 C 0.38518 0.22649 0.73721 0.0
C135 C 0.37971 0.21935 0.70903 0.0
C136 C 0.35277 0.2073 0.69256 0.0
C137 C 0.33158 0.20276 0.70395 0.0
C138 C 0.32719 0.27618 0.80245 0.0
C139 C 0.31901 0.30014 0.71932 0.0
O140 O 0.28991 0.32302 0.78255 0.0
O141 O 0.24657 0.31069 0.75791 0.0
O142 O 0.24828 0.28061 0.7113 0.0
O143 O 0.25527 0.2486 0.73971 0.0
O144 O 0.25482 0.25733 0.79051 0.0
O145 O 0.26538 0.22034 0.7834 0.0
O146 O 0.29424 0.21888 0.72519 0.0
O147 O 0.31977 0.21332 0.76922 0.0
O148 O 0.32223 0.25095 0.80566 0.0
O149 O 0.31685 0.28249 0.77668 0.0
O150 O 0.32014 0.27519 0.72907 0.0
O151 O 0.30151 0.3095 0.72746 0.0
H152 H 0.24312 0.36282 0.78823 0.0
H153 H 0.23333 0.36716 0.83185 0.0
H154 H 0.26426 0.29929 0.8688 0.0
H155 H 0.27452 0.29539 0.82552 0.0
H156 H 0.36862 0.2287 0.76999 0.0
H157 H 0.4058 0.23577 0.7503 0.0
H158 H 0.34814 0.20118 0.67094 0.0
H159 H 0.31091 0.19374 0.69071 0.0
C160 C 0.03777 0.0959 0.46671 0.0
Eu161 Eu 1.0307 0.04733 0.48375 0.0
C162 C 0.05767 0.11263 0.45447 0.0
C163 C 0.08403 0.10838 0.4618 0.0
C164 C 0.10141 0.12139 0.4468 0.0
C165 C 0.09255 0.1386 0.42407 0.0
C166 C 0.06667 0.14378 0.41776 0.0
C167 C 0.04934 0.13087 0.43291 0.0
C168 C 0.99921 1.00539 0.45138 0.0
C169 C 0.98677 0.02886 0.51841 0.0
C170 C 1.02385 0.9482 0.53669 0.0
Eu171 Eu 1.02664 0.99566 0.51617 0.0
C172 C 1.01591 0.93516 0.56086 0.0
C173 C 1.00977 0.94963 0.57868 0.0
C174 C 1.00184 0.93745 0.60158 0.0
C175 C 0.99974 0.91056 0.60693 0.0
C176 C 1.00607 0.89612 0.5891 0.0
C177 C 1.01429 0.90843 0.56628 0.0
C178 C 0.0583 0.03814 0.54773 0.0
C179 C 0.06998 1.01371 0.48193 0.0
O180 O 1.02055 0.0767 0.45045 0.0
O181 O 0.04754 0.08864 0.49349 0.0
O182 O 1.01542 0.02458 0.44273 0.0
O183 O 0.99972 1.00951 0.47599 0.0
O184 O 1.00194 0.04828 0.50778 0.0
O185 O 0.98986 1.0048 0.52065 0.0
O186 O 0.04635 0.96678 0.54365 0.0
O187 O 1.00412 0.95492 0.51529 0.0
O188 O 0.04199 0.01939 0.55678 0.0
O189 O 0.05759 0.03322 0.52339 0.0
O190 O 0.05176 0.99398 0.4881 0.0
O191 O 0.06884 0.03806 0.48315 0.0
H192 H 0.09077 0.0942 0.47827 0.0
H193 H 0.12113 0.11684 0.45194 0.0
H194 H 0.0595 0.15717 0.40051 0.0
H195 H 1.02902 0.13429 0.42697 0.0
H196 H 1.01087 0.97032 0.57468 0.0
H197 H 0.9966 0.94895 0.61464 0.0
H198 H 1.00463 0.87537 0.59282 0.0
H199 H 1.01916 0.89707 0.55279 0.0
C200 C 0.32245 0.73736 0.83012 0.0
Eu201 Eu 0.29096 0.75381 0.78295 0.0
C202 C 0.34676 0.72695 0.83488 0.0
C203 C 0.34395 0.69992 0.83446 0.0
C204 C 0.36576 0.69018 0.83453 0.0
C205 C 0.39092 0.70724 0.83524 0.0
C206 C 0.39421 0.7342 0.83702 0.0
C207 C 0.37232 0.74398 0.83677 0.0
C208 C 0.24319 0.72813 0.7454 0.0
C209 C 0.31466 0.7408 0.73165 0.0
C210 C 0.25016 0.79816 0.67791 0.0
Eu211 Eu 0.27528 0.78103 0.72842 0.0
C212 C 0.24063 0.82019 0.66112 0.0
C213 C 0.24374 0.84368 0.67381 0.0
C214 C 0.23702 0.86521 0.65657 0.0
C215 C 0.22731 0.86344 0.62651 0.0
C216 C 0.22413 0.83966 0.61414 0.0
C217 C 0.23065 0.81826 0.63131 0.0
C218 C 0.32256 0.8072 0.76687 0.0
C219 C 0.25054 0.79284 0.78022 0.0
O220 O 0.32516 0.76208 0.82271 0.0
O221 O 0.29871 0.72289 0.81515 0.0
O222 O 0.2474 0.72904 0.77268 0.0
O223 O 0.26458 0.73953 0.73968 0.0
O224 O 0.31791 0.74071 0.75968 0.0
O225 O 0.29624 0.75328 0.71428 0.0
O226 O 0.23721 0.7854 0.69505 0.0
O227 O 0.27669 0.80137 0.68877 0.0
O228 O 0.31889 0.80654 0.73985 0.0
O229 O 0.30091 0.79547 0.77159 0.0
O230 O 0.25024 0.79632 0.75278 0.0
O231 O 0.26596 0.77721 0.79699 0.0
H232 H 0.32465 0.6863 0.83323 0.0
H233 H 0.3629 0.66923 0.83395 0.0
H234 H 0.41344 0.74777 0.8378 0.0
H235 H 0.37524 0.76496 0.83713 0.0
H236 H 0.25175 0.84546 0.69689 0.0
H237 H 0.23942 0.88317 0.66672 0.0
H238 H 0.21723 0.83773 0.59112 0.0
H239 H 0.22859 0.80033 0.62125 0.0
C240 C 0.55293 0.08346 0.00836 0.0
Eu241 Eu 0.54931 0.03402 1.00706 0.0
C242 C 0.5437 0.0967 0.02646 0.0
C243 C 0.52014 0.10637 0.01396 0.0
C244 C 0.5072 0.1131 0.03109 0.0
C245 C 0.51779 0.11059 0.06102 0.0
C246 C 0.54243 0.10279 0.07368 0.0
C247 C 0.55526 0.0958 0.05655 0.0
C248 C 0.51618 0.99909 0.9661 0.0
C249 C 0.50868 1.00401 0.04271 0.0
C250 C 0.54169 0.92655 0.02531 0.0
Eu251 Eu 0.54655 0.97657 0.02554 0.0
C252 C 0.53957 0.91011 1.00229 0.0
C253 C 0.54642 0.88592 0.00841 0.0
C254 C 0.54668 0.87166 0.98646 0.0
C255 C 0.53979 0.88131 0.95798 0.0
C256 C 0.53153 0.90497 0.95191 0.0
C257 C 0.53202 0.91943 0.97391 0.0
C258 C 0.57915 1.01202 0.06647 0.0
C259 C 0.58482 1.00619 0.98764 0.0
O260 O 0.57361 0.07291 0.02167 0.0
O261 O 0.5333 0.06812 0.98896 0.0
O262 O 0.53048 0.02161 0.96053 0.0
O263 O 0.51885 0.9969 0.99231 0.0
O264 O 0.52319 0.02642 0.03592 0.0
O265 O 0.51175 0.98128 0.03769 0.0
O266 O 0.52091 0.93701 0.02038 0.0
O267 O 0.56532 0.94326 0.03571 0.0
O268 O 0.56531 0.98934 0.07217 0.0
O269 O 0.57675 1.01367 0.0404 0.0
O270 O 0.56855 0.9841 0.99262 0.0
O271 O 0.58419 0.02895 0.99539 0.0
H272 H 0.51085 0.1073 0.99089 0.0
H273 H 0.48845 0.11958 0.0209 0.0
H274 H 0.551 0.10082 0.09674 0.0
H275 H 0.57338 0.08841 0.06694 0.0
H276 H 0.55252 0.87854 0.03026 0.0
H277 H 0.55364 0.85377 0.9921 0.0
H278 H 0.52566 0.91288 0.93029 0.0
H279 H 0.52736 0.93835 0.96888 0.0
C280 C 0.2699 0.27562 0.3273 0.0
Eu281 Eu 0.28385 0.27693 0.28205 0.0
C282 C 0.253 0.28668 0.33845 0.0
C283 C 0.26604 0.30346 0.36181 0.0
C284 C 0.25075 0.314 0.37324 0.0
C285 C 0.222 0.3077 0.36177 0.0
C286 C 0.20887 0.29064 0.33852 0.0
C287 C 0.22424 0.28028 0.32687 0.0
C288 C 0.32464 0.31143 0.26896 0.0
C289 C 0.25401 0.30587 0.22197 0.0
C290 C 0.30868 0.26248 0.18583 0.0
Eu291 Eu 0.29439 0.26345 0.23034 0.0
C292 C 0.32522 0.24771 0.179 0.0
C293 C 0.32447 0.22179 0.18877 0.0
C294 C 0.34088 0.20806 0.18301 0.0
C295 C 0.35859 0.22015 0.16781 0.0
C296 C 0.35962 0.24623 0.15839 0.0
C297 C 0.34294 0.25991 0.16389 0.0
C298 C 0.25222 0.23059 0.24277 0.0
C299 C 0.32422 0.23438 0.29019 0.0
O300 O 0.25729 0.25857 0.30677 0.0
O301 O 0.29162 0.29188 0.32389 0.0
O302 O 0.30773 0.31824 0.27855 0.0
O303 O 0.31999 0.28689 0.26829 0.0
O304 O 0.25437 0.29961 0.24882 0.0
O305 O 0.26932 0.29581 0.2116 0.0
O306 O 0.32212 0.27944 0.20625 0.0
O307 O 0.28523 0.24893 0.18795 0.0
O308 O 0.2695 0.22229 0.23514 0.0
O309 O 0.2581 0.25505 0.2432 0.0
O310 O 0.32319 0.24001 0.26312 0.0
O311 O 0.3096 0.24509 0.30084 0.0
H312 H 0.28818 0.30853 0.37124 0.0
H313 H 0.26152 0.32734 0.39088 0.0
H314 H 0.18673 0.28506 0.32954 0.0
H315 H 0.2136 0.26723 0.30894 0.0
H316 H 0.31133 0.21218 0.201 0.0
H317 H 0.34 0.18807 0.19077 0.0
H318 H 0.37304 0.25589 0.14647 0.0
H319 H 0.34398 0.28002 0.15651 0.0
C320 C 0.62725 0.52598 0.01879 0.0
Eu321 Eu 0.57571 0.51214 0.01402 0.0
C322 C 0.64003 0.53787 0.99736 0.0
C323 C 0.62389 0.53699 0.96833 0.0
C324 C 0.63498 0.54996 0.94778 0.0
C325 C 0.66252 0.56402 0.9558 0.0
C326 C 0.6788 0.56458 0.98494 0.0
C327 C 0.66757 0.55161 1.0056 0.0
C328 C 0.53863 0.47157 0.98269 0.0
C329 C 0.54244 0.54355 0.95887 0.0
C330 C 0.46418 0.49752 0.99665 0.0
Eu331 Eu 0.5161 0.51118 1.00289 0.0
C332 C 0.45003 0.48354 0.01618 0.0
C333 C 0.46508 0.48108 0.04524 0.0
C334 C 0.45274 0.46535 0.06352 0.0
C335 C 0.42506 0.45201 0.05313 0.0
C336 C 0.40971 0.45513 0.0242 0.0
C337 C 0.42224 0.47067 1.00574 0.0
C338 C 0.55288 0.55214 0.03351 0.0
C339 C 0.54922 0.47886 0.05766 0.0
O340 O 0.61499 0.54078 0.02661 0.0
O341 O 0.61244 0.50203 0.01365 0.0
O342 O 0.56191 0.46942 1.00139 0.0
O343 O 0.53681 0.49489 0.98041 0.0
O344 O 0.5663 0.54293 0.97865 0.0
O345 O 0.51919 0.52911 0.96114 0.0
O346 O 0.47641 0.48359 0.9876 0.0
O347 O 0.47959 0.52083 1.00463 0.0
O348 O 0.52959 0.5539 0.01451 0.0
O349 O 0.55508 0.52884 0.03653 0.0
O350 O 0.52549 0.48065 0.03825 0.0
O351 O 0.5727 0.49295 0.05545 0.0
H352 H 0.60248 0.52666 0.96157 0.0
H353 H 0.62168 0.54956 0.92567 0.0
H354 H 0.70013 0.57508 0.99176 0.0
H355 H 0.68023 0.55261 0.02797 0.0
H356 H 0.48656 0.49094 0.05369 0.0
H357 H 0.46488 0.46357 0.08583 0.0
H358 H 0.38831 0.44499 0.01577 0.0
H359 H 0.41044 0.47223 0.98328 0.0
C360 C 0.8267 0.25522 0.33929 0.0
Eu361 Eu 0.79762 0.25863 0.28543 0.0
C362 C 0.83511 0.23393 0.35867 0.0
C363 C 0.83409 0.21024 0.34776 0.0
C364 C 0.83809 0.18872 0.36604 0.0
C365 C 0.84299 0.19053 0.39548 0.0
C366 C 0.84459 0.21454 0.40637 0.0
C367 C 0.84058 0.23604 0.38805 0.0
C368 C 0.75601 0.21829 0.25931 0.0
C369 C 0.81462 0.24075 0.23296 0.0
C370 C 0.72878 0.27082 0.1775 0.0
Eu371 Eu 0.76467 0.27198 0.22858 0.0
C372 C 0.70053 0.27426 0.16747 0.0
C373 C 0.69353 0.29397 0.14732 0.0
C374 C 0.66817 0.29998 0.14073 0.0
C375 C 0.64925 0.28626 0.15408 0.0
C376 C 0.65573 0.26555 0.17306 0.0
C377 C 0.68116 0.25969 0.17979 0.0
C378 C 0.80574 0.31263 0.25517 0.0
C379 C 0.7492 0.29171 0.28044 0.0
O380 O 0.83756 0.26219 0.31904 0.0
O381 O 0.80037 0.25324 0.33004 0.0
O382 O 0.78015 0.21577 0.27516 0.0
O383 O 0.75445 0.24163 0.2592 0.0
O384 O 0.8216 0.243 0.26138 0.0
O385 O 0.79318 0.25033 0.21639 0.0
O386 O 0.73291 0.2498 0.19293 0.0
O387 O 0.74812 0.29163 0.18786 0.0
O388 O 0.78163 0.31492 0.23874 0.0
O389 O 0.8078 0.28944 0.25534 0.0
O390 O 0.7396 0.28537 0.25277 0.0
O391 O 0.77305 0.28575 0.29623 0.0
H392 H 0.82946 0.20819 0.32501 0.0
H393 H 0.8372 0.17063 0.35709 0.0
H394 H 0.84808 0.21648 0.42888 0.0
H395 H 0.84082 0.25406 0.39668 0.0
H396 H 0.70814 0.30549 0.1376 0.0
H397 H 0.66405 0.3163 0.12629 0.0
H398 H 0.64147 0.25433 0.18334 0.0
H399 H 0.68586 0.24426 0.1953 0.0
C400 C 1.02316 0.60409 0.4919 0.0
Eu401 Eu 1.01902 0.55486 0.48826 0.0
C402 C 1.02152 0.61665 0.51619 0.0
C403 C 0.99753 0.60935 0.52353 0.0
C404 C 0.99771 0.61631 0.54978 0.0
C405 C 1.02176 0.6308 0.56923 0.0
C406 C 0.0454 0.63942 0.56149 0.0
C407 C 0.04531 0.63228 0.53516 0.0
C408 C 0.98633 0.51897 0.44811 0.0
C409 C 0.97908 0.52448 0.52409 0.0
C410 C 1.01611 0.44897 0.50956 0.0
Eu411 Eu 1.01715 0.49811 0.50784 0.0
C412 C 1.03453 0.43646 0.50262 0.0
C413 C 0.06312 0.44537 0.51486 0.0
C414 C 0.08052 0.43693 0.50447 0.0
C415 C 0.06966 0.41971 0.48147 0.0
C416 C 0.04114 0.41022 0.46976 0.0
C417 C 1.02371 0.41846 0.48035 0.0
C418 C 0.04968 0.53437 0.54773 0.0
C419 C 0.05883 0.52852 0.47287 0.0
O420 O 0.04454 0.59427 0.49813 0.0
O421 O 1.0006 0.58836 0.47625 0.0
O422 O 1.00011 0.54157 0.44194 0.0
O423 O 0.98884 0.51748 0.47427 0.0
O424 O 0.99586 0.5466 0.52016 0.0
O425 O 0.98001 0.502 0.51595 0.0
O426 O 1.00071 0.46013 0.48766 0.0
O427 O 1.02681 0.46337 0.53249 0.0
O428 O 0.03536 0.51217 0.55396 0.0
O429 O 0.04721 0.53541 0.52164 0.0
O430 O 0.04598 0.50612 0.4817 0.0
O431 O 0.05366 0.551 0.47535 0.0
H432 H 0.97885 0.5972 0.50964 0.0
H433 H 0.97906 0.60997 0.55512 0.0
H434 H 0.06409 0.65087 0.57615 0.0
H435 H 0.06417 0.63793 0.53021 0.0
H436 H 0.0721 0.45966 0.53169 0.0
H437 H 0.10244 0.44464 0.5137 0.0
H438 H 1.03233 0.39666 0.45221 0.0
H439 H 1.00174 0.41162 0.47037 0.0
C440 C 0.76919 0.83179 0.27854 0.0
Eu441 Eu 0.77598 0.78977 0.26246 0.0
C442 C 0.75148 0.8341 0.2944 0.0
C443 C 0.72685 0.81517 0.29116 0.0
C444 C 0.71261 0.81406 0.31007 0.0
C445 C 0.72291 0.83166 0.3327 0.0
C446 C 0.74715 0.85106 0.33543 0.0
C447 C 0.76134 0.85226 0.31638 0.0
C448 C 0.73873 0.75985 0.21907 0.0
C449 C 0.75009 0.73403 0.29627 0.0
C450 C 0.79176 0.69951 0.23756 0.0
Eu451 Eu 0.79266 0.74509 0.25344 0.0
C452 C 0.79185 0.68855 0.21179 0.0
C453 C 0.8051 0.66847 0.21446 0.0
C454 C 0.80629 0.65864 0.19015 0.0
C455 C 0.79387 0.66852 0.16266 0.0
C456 C 0.77993 0.6882 0.16013 0.0
C457 C 0.77928 0.69832 0.18451 0.0
C458 C 0.83045 0.77383 0.29759 0.0
C459 C 0.81848 0.80082 0.21972 0.0
O460 O 0.78893 0.82066 0.29333 0.0
O461 O 0.75692 0.82286 0.25252 0.0
O462 O 0.73249 0.76923 0.2382 0.0
O463 O 0.76419 0.76662 0.22358 0.0
O464 O 0.75232 0.76008 0.29166 0.0
O465 O 0.7643 0.72434 0.28347 0.0
O466 O 0.76975 0.70712 0.23516 0.0
O467 O 0.81431 0.71596 0.25172 0.0
O468 O 0.83664 0.76177 0.28043 0.0
O469 O 0.80481 0.76856 0.29202 0.0
O470 O 0.81351 0.7743 0.22163 0.0
O471 O 0.80691 0.81105 0.23518 0.0
H472 H 0.71921 0.80053 0.27477 0.0
H473 H 0.69409 0.79881 0.30763 0.0
H474 H 0.75528 0.86508 0.35251 0.0
H475 H 0.78057 0.86666 0.3195 0.0
H476 H 0.81509 0.66082 0.23539 0.0
H477 H 0.81786 0.644 0.1931 0.0
H478 H 0.76998 0.69616 0.13939 0.0
H479 H 0.76939 0.7141 0.1821 0.0
C480 C 0.85 0.31467 0.74354 0.0
Eu481 Eu 0.80546 0.28237 0.74703 0.0
C482 C 0.855 0.34068 0.73016 0.0
C483 C 0.83363 0.34872 0.70828 0.0
C484 C 0.83846 0.37322 0.69512 0.0
C485 C 0.86467 0.3902 0.70384 0.0
C486 C 0.88582 0.38244 0.72642 0.0
C487 C 0.88101 0.35776 0.73937 0.0
C488 C 0.76905 0.24793 0.70758 0.0
C489 C 0.74886 0.30442 0.72456 0.0
C490 C 0.7148 0.21792 0.76803 0.0
Eu491 Eu 0.75981 0.24978 0.76513 0.0
C492 C 0.7089 0.19133 0.77975 0.0
C493 C 0.73006 0.1815 0.79985 0.0
C494 C 0.72434 0.15665 0.81198 0.0
C495 C 0.69739 0.14115 0.80407 0.0
C496 C 0.6764 0.15065 0.78306 0.0
C497 C 0.68213 0.17564 0.77106 0.0
C498 C 0.79587 0.285 0.80401 0.0
C499 C 0.81641 0.22779 0.78785 0.0
O500 O 0.84185 0.31334 0.76562 0.0
O501 O 0.83607 0.29535 0.72593 0.0
O502 O 0.78059 0.27139 0.70122 0.0
O503 O 0.77819 0.2433 0.73414 0.0
O504 O 0.77531 0.3096 0.72693 0.0
O505 O 0.73846 0.28223 0.73676 0.0
O506 O 0.72245 0.22018 0.7455 0.0
O507 O 0.72975 0.23606 0.78681 0.0
O508 O 0.78482 0.26152 0.81089 0.0
O509 O 0.78654 0.28903 0.7774 0.0
O510 O 0.78976 0.2223 0.78468 0.0
O511 O 0.827 0.25032 0.77629 0.0
H512 H 0.81329 0.3359 0.70107 0.0
H513 H 0.82178 0.37879 0.67789 0.0
H514 H 0.90628 0.39506 0.73332 0.0
H515 H 0.89768 0.35184 0.7562 0.0
H516 H 0.75092 0.19325 0.80661 0.0
H517 H 0.74094 0.14972 0.82792 0.0
H518 H 0.6554 0.1392 0.77677 0.0
H519 H 0.66562 0.18294 0.7555 0.0
C520 C 0.76709 0.77267 0.82073 0.0
Eu521 Eu 0.78063 0.77135 0.77561 0.0
C522 C 0.74401 0.77839 0.82675 0.0
C523 C 0.74763 0.80198 0.83964 0.0
C524 C 0.72581 0.80786 0.84482 0.0
C525 C 0.69996 0.79018 0.8374 0.0
C526 C 0.69645 0.7664 0.82498 0.0
C527 C 0.71825 0.76059 0.81972 0.0
C528 C 0.82303 0.80372 0.76304 0.0
C529 C 0.74814 0.79811 0.71489 0.0
C530 C 0.80528 0.75364 0.68092 0.0
Eu531 Eu 0.78938 0.75701 0.72369 0.0
C532 C 0.82454 0.73921 0.67896 0.0
C533 C 0.82887 0.71729 0.6968 0.0
C534 C 0.85055 0.70633 0.69906 0.0
C535 C 0.86809 0.71675 0.68307 0.0
C536 C 0.8626 0.73782 0.66397 0.0
C537 C 0.84121 0.74911 0.66219 0.0
C538 C 0.75 0.72195 0.73886 0.0
C539 C 0.82147 0.72966 0.78436 0.0
O540 O 0.76202 0.75126 0.80688 0.0
O541 O 0.7831 0.79239 0.81209 0.0
O542 O 0.80646 0.81205 0.77162 0.0
O543 O 0.81693 0.77926 0.76202 0.0
O544 O 0.74918 0.79178 0.74188 0.0
O545 O 0.76349 0.78852 0.70417 0.0
O546 O 0.81634 0.77315 0.69873 0.0
O547 O 0.78224 0.73935 0.68335 0.0
O548 O 0.76645 0.71574 0.72822 0.0
O549 O 0.75384 0.7465 0.73903 0.0
O550 O 0.81904 0.73451 0.75685 0.0
O551 O 0.80787 0.74099 0.79575 0.0
H552 H 0.76734 0.81593 0.84564 0.0
H553 H 0.72925 0.82615 0.85493 0.0
H554 H 0.67675 0.75244 0.81896 0.0
H555 H 0.71484 0.74223 0.81002 0.0
H556 H 0.8164 0.70948 0.71021 0.0
H557 H 0.85418 0.69045 0.71431 0.0
H558 H 0.87502 0.74593 0.65061 0.0
H559 H 0.83823 0.76606 0.64838 0.0
C560 C 0.51617 0.5648 0.55895 0.0
Eu561 Eu 0.53712 0.53968 0.52959 0.0
C562 C 0.50148 0.57843 0.57456 0.0
C563 C 0.51538 0.59798 0.59594 0.0
C564 C 0.50139 0.61066 0.60891 0.0
C565 C 0.47214 0.60493 0.60183 0.0
C566 C 0.45841 0.58523 0.58048 0.0
C567 C 0.47236 0.57272 0.56746 0.0
C568 C 0.56958 0.56157 0.48987 0.0
C569 C 0.49478 0.54281 0.46161 0.0
C570 C 0.55045 0.46934 0.45567 0.0
Eu571 Eu 0.53002 0.49473 0.48539 0.0
C572 C 0.56506 0.45554 0.44012 0.0
C573 C 0.55106 0.4369 0.41777 0.0
C574 C 0.56499 0.4242 0.40474 0.0
C575 C 0.59428 0.42895 0.41275 0.0
C576 C 0.60809 0.4477 0.4351 0.0
C577 C 0.5942 0.46027 0.44814 0.0
C578 C 0.49792 0.47279 0.52546 0.0
C579 C 0.5732 0.49246 0.55304 0.0
O580 O 0.50205 0.54804 0.53835 0.0
O581 O 0.54274 0.56744 0.56461 0.0
O582 O 0.56865 0.57229 0.51222 0.0
O583 O 0.55355 0.53823 0.49188 0.0
O584 O 0.50535 0.55095 0.48847 0.0
O585 O 0.50119 0.52172 0.4546 0.0
O586 O 0.56472 0.48594 0.47635 0.0
O587 O 0.52394 0.46693 0.45013 0.0
O588 O 0.4986 0.46206 0.503 0.0
O589 O 0.51392 0.49608 0.52329 0.0
O590 O 0.56386 0.48534 0.52585 0.0
O591 O 0.56514 0.51223 0.5605 0.0
H592 H 0.53753 0.60384 0.60277 0.0
H593 H 0.51402 0.62513 0.62494 0.0
H594 H 0.43628 0.57937 0.57313 0.0
H595 H 0.45986 0.55827 0.55131 0.0
H596 H 0.52888 0.43184 0.41018 0.0
H597 H 0.55227 0.4105 0.38793 0.0
H598 H 0.63023 0.4528 0.44322 0.0
H599 H 0.60677 0.47397 0.46504 0.0
C600 C 0.05417 0.4922 0.93881 0.0
Eu601 Eu 0.04563 0.51472 0.97728 0.0
C602 C 0.07366 0.47602 0.94255 0.0
C603 C 0.10027 0.4829 0.96253 0.0
C604 C 0.11755 0.46587 0.9688 0.0
C605 C 0.1084 0.44151 0.95557 0.0
C606 C 0.08184 0.43468 0.9355 0.0
C607 C 0.06462 0.45185 0.92901 0.0
C608 C 0.0798 0.55532 0.00996 0.0
C609 C 0.07333 0.4829 0.03935 0.0
C610 C 1.02456 0.54218 0.06889 0.0
Eu611 Eu 1.0317 0.52163 0.02789 0.0
C612 C 1.00627 0.558 0.07016 0.0
C613 C 0.99349 0.55208 0.09097 0.0
C614 C 0.97469 0.56578 0.0914 0.0
C615 C 0.96838 0.58568 0.07101 0.0
C616 C 0.98147 0.59177 0.05034 0.0
C617 C 1.00029 0.57805 0.04994 0.0
C618 C 0.99772 0.48082 0.99527 0.0
C619 C 1.00384 0.55329 0.96564 0.0
O620 O 1.0346 0.48175 0.94946 0.0
O621 O 0.06466 0.51705 0.94466 0.0
O622 O 0.07211 0.55613 0.98217 0.0
O623 O 0.07033 0.53306 0.01891 0.0
O624 O 0.06811 0.48588 0.01101 0.0
O625 O 0.06276 0.49652 0.05176 0.0
O626 O 0.04327 0.55343 0.05729 0.0
O627 O 1.01267 0.51807 0.06071 0.0
O628 O 1.00556 0.48008 0.02305 0.0
O629 O 1.00697 0.50315 0.98632 0.0
O630 O 1.00946 0.55069 0.99412 0.0
O631 O 1.01415 0.5394 0.95317 0.0
H632 H 0.10751 0.50115 0.97386 0.0
H633 H 0.13788 0.47151 0.98445 0.0
H634 H 0.07447 0.41614 0.9247 0.0
H635 H 0.04402 0.44601 0.91392 0.0
H636 H 0.99771 0.53653 0.10659 0.0
H637 H 0.9646 0.56035 0.10731 0.0
H638 H 0.97721 0.60716 0.03453 0.0
H639 H 1.00997 0.583 0.03368 0.0
H640 H 0.22963 0.24489 0.83774 0.0
H641 H 0.20357 0.21965 0.86732 0.0
H642 H 0.20021 0.1488 0.83069 0.0
H643 H 0.22813 0.17431 0.80236 0.0
H644 H 0.18365 0.12437 0.86836 0.0
H645 H 0.18192 0.20775 0.92877 0.0
H646 H 0.17967 0.25399 0.92312 0.0
H647 H 0.1372 0.24351 0.83291 0.0
H648 H 0.13896 0.19708 0.83816 0.0
H649 H 0.08275 0.04594 0.93999 0.0
H650 H 0.10962 0.07076 0.91027 0.0
H651 H 0.12657 0.13983 0.95726 0.0
H652 H 0.0995 0.1151 0.98654 0.0
H653 H 0.13563 0.16454 0.91414 0.0
H654 H 0.13938 0.0817 0.85307 0.0
H655 H 0.14013 0.03504 0.85893 0.0
H656 H 0.17668 0.04396 0.95 0.0
H657 H 0.17635 0.09071 0.94463 0.0
C658 C 0.22361 0.22391 0.83524 0.0
C659 C 0.23281 0.21347 0.81556 0.0
C660 C 0.20725 0.20845 0.85286 0.0
C661 C 0.19665 0.18012 0.85292 0.0
C662 C 0.20608 0.16975 0.83324 0.0
C663 C 0.22296 0.1852 0.81602 0.0
C664 C 0.17733 0.16213 0.87253 0.0
C665 C 0.17326 0.13407 0.87771 0.0
C666 C 0.16202 0.17145 0.88717 0.0
C667 C 0.16093 0.19915 0.8838 0.0
C668 C 0.17213 0.21536 0.90775 0.0
C669 C 0.17094 0.24158 0.90461 0.0
C670 C 0.15847 0.25176 0.87763 0.0
C671 C 0.14696 0.23565 0.85376 0.0
C672 C 0.14801 0.20937 0.85681 0.0
C673 C 0.09204 0.06638 0.94478 0.0
C674 C 0.08723 0.0768 0.96787 0.0
C675 C 0.10859 0.08146 0.92699 0.0
C676 C 0.12283 0.10914 0.92962 0.0
C677 C 0.11754 0.11936 0.95246 0.0
C678 C 0.10121 0.10435 0.97022 0.0
C679 C 0.14192 0.1269 0.90981 0.0
C680 C 0.146 0.15489 0.9047 0.0
C681 C 0.15702 0.11745 0.8951 0.0
C682 C 0.15755 0.08957 0.89846 0.0
C683 C 0.14763 0.07369 0.87432 0.0
C684 C 0.14797 0.04724 0.87756 0.0
C685 C 0.15835 0.03652 0.90483 0.0
C686 C 0.16856 0.05226 0.9289 0.0
C687 C 0.1683 0.07873 0.92578 0.0
H688 H 0.15853 0.01603 0.90729 0.0
H689 H 0.15765 0.27209 0.87524 0.0
H690 H 0.07248 0.96699 0.10675 0.0
H691 H 0.09915 0.93612 0.13495 0.0
H692 H 0.14622 0.95005 0.07802 0.0
H693 H 0.11811 0.9791 0.04891 0.0
H694 H 0.15051 0.90742 0.0914 0.0
H695 H 0.16638 0.96737 0.16464 0.0
H696 H 0.1547 0.99305 0.19508 0.0
H697 H 0.10966 0.9226 0.22393 0.0
H698 H 0.12089 0.89653 0.19345 0.0
H699 H 0.25875 0.84735 0.18853 0.0
H700 H 0.23059 0.8778 0.16205 0.0
H701 H 0.16729 0.83829 0.19648 0.0
H702 H 0.19514 0.80722 0.22233 0.0
H703 H 0.17126 0.89257 0.19576 0.0
H704 H 0.16108 0.83355 0.12373 0.0
H705 H 0.17719 0.81023 0.09517 0.0
H706 H 0.21735 0.88342 0.06606 0.0
H707 H 0.20179 0.90719 0.09476 0.0
C708 C 0.08892 0.96413 0.10044 0.0
C709 C 0.0929 0.97706 0.07519 0.0
C710 C 0.1048 0.946 0.11707 0.0
C711 C 0.12647 0.93989 0.11028 0.0
C712 C 0.13036 0.95317 0.08511 0.0
C713 C 0.11408 0.97062 0.06817 0.0
C714 C 0.14426 0.91974 0.128 0.0
C715 C 0.15512 0.90498 0.11433 0.0
C716 C 0.15113 0.91454 0.15837 0.0
C717 C 0.14419 0.93007 0.17653 0.0
C718 C 0.15386 0.9574 0.17736 0.0
C719 C 0.14734 0.97201 0.19463 0.0
C720 C 0.13137 0.95947 0.21135 0.0
C721 C 0.12196 0.93228 0.21091 0.0
C722 C 0.12841 0.91758 0.19366 0.0
C723 C 0.23881 0.84477 0.19062 0.0
C724 C 0.22999 0.82387 0.20825 0.0
C725 C 0.22228 0.86259 0.17505 0.0
C726 C 0.19582 0.86133 0.17631 0.0
C727 C 0.18717 0.8407 0.19431 0.0
C728 C 0.20345 0.82246 0.20937 0.0
C729 C 0.17757 0.88097 0.15908 0.0
C730 C 0.16663 0.8954 0.17284 0.0
C731 C 0.17123 0.88639 0.12896 0.0
C732 C 0.18048 0.87215 0.11161 0.0
C733 C 0.17351 0.84467 0.1114 0.0
C734 C 0.18251 0.83137 0.09516 0.0
C735 C 0.19833 0.84533 0.07886 0.0
C736 C 0.20512 0.87263 0.07872 0.0
C737 C 0.1962 0.88603 0.09496 0.0
H738 H 0.20527 0.835 0.0663 0.0
H739 H 0.12634 0.97082 0.22471 0.0
H740 H 0.46924 0.97735 0.4419 0.0
H741 H 0.43545 0.94247 0.41132 0.0
H742 H 0.44307 0.88963 0.48418 0.0
H743 H 0.47741 0.9246 0.51501 0.0
H744 H 0.44026 0.8665 0.43468 0.0
H745 H 0.39021 0.91624 0.46215 0.0
H746 H 0.37821 0.95645 0.46877 0.0
H747 H 0.35615 0.97274 0.37837 0.0
H748 H 0.3684 0.93279 0.37126 0.0
H749 H 0.31743 0.77302 0.36214 0.0
H750 H 0.35235 0.80403 0.39741 0.0
H751 H 0.347 0.86524 0.33274 0.0
H752 H 0.31167 0.83455 0.29775 0.0
H753 H 0.34835 0.88241 0.38138 0.0
H754 H 0.39817 0.83267 0.35349 0.0
H755 H 0.41029 0.79263 0.34658 0.0
H756 H 0.43405 0.77678 0.4371 0.0
H757 H 0.42111 0.81618 0.44446 0.0
C758 C 0.46398 0.95823 0.45139 0.0
C759 C 0.47586 0.95367 0.48085 0.0
C760 C 0.44456 0.93835 0.43391 0.0
C761 C 0.43651 0.91356 0.44555 0.0
C762 C 0.44897 0.90866 0.47481 0.0
C763 C 0.46844 0.92864 0.49239 0.0
C764 C 0.41431 0.89321 0.42717 0.0
C765 C 0.42 0.86972 0.42335 0.0
C766 C 0.38808 0.89771 0.41203 0.0
C767 C 0.38044 0.92163 0.41621 0.0
C768 C 0.38298 0.92849 0.44371 0.0
C769 C 0.37611 0.95122 0.44755 0.0
C770 C 0.36648 0.96717 0.42402 0.0
C771 C 0.36364 0.96038 0.39658 0.0
C772 C 0.37051 0.93768 0.39263 0.0
C773 C 0.32363 0.79314 0.35557 0.0
C774 C 0.31206 0.80139 0.32721 0.0
C775 C 0.34368 0.81078 0.37565 0.0
C776 C 0.35257 0.83688 0.36762 0.0
C777 C 0.34054 0.84519 0.33941 0.0
C778 C 0.32046 0.82762 0.3194 0.0
C779 C 0.3743 0.85571 0.38847 0.0
C780 C 0.36851 0.87899 0.3928 0.0
C781 C 0.40043 0.85096 0.40394 0.0
C782 C 0.40827 0.82723 0.39949 0.0
C783 C 0.40562 0.82047 0.3719 0.0
C784 C 0.41262 0.79785 0.36788 0.0
C785 C 0.42274 0.78204 0.39135 0.0
C786 C 0.42597 0.78888 0.41889 0.0
C787 C 0.41875 0.81134 0.42299 0.0
H788 H 0.42818 0.76456 0.38822 0.0
H789 H 0.36118 0.98477 0.42704 0.0
H790 H 0.38131 0.24185 0.65765 0.0
H791 H 0.41458 0.24118 0.63441 0.0
H792 H 0.46113 0.20437 0.70988 0.0
H793 H 0.42835 0.20565 0.73336 0.0
H794 H 0.49463 0.23496 0.68225 0.0
H795 H 0.40835 0.16782 0.65794 0.0
H796 H 0.35792 0.15322 0.63944 0.0
H797 H 0.35668 0.19208 0.55903 0.0
H798 H 0.40713 0.20724 0.57728 0.0
H799 H 0.53153 0.12756 0.65214 0.0
H800 H 0.51788 0.16346 0.66538 0.0
H801 H 0.48245 0.18287 0.57607 0.0
H802 H 0.49495 0.14604 0.56267 0.0
H803 H 0.44609 0.17423 0.60097 0.0
H804 H 0.53595 0.22684 0.62329 0.0
H805 H 0.58637 0.2375 0.64344 0.0
H806 H 0.58232 0.22393 0.72843 0.0
H807 H 0.53188 0.21247 0.70886 0.0
C808 C 0.39902 0.23419 0.66944 0.0
C809 C 0.40208 0.22332 0.69703 0.0
C810 C 0.41806 0.23396 0.65625 0.0
C811 C 0.44002 0.22228 0.67024 0.0
C812 C 0.44435 0.21351 0.69871 0.0
C813 C 0.42554 0.21409 0.71205 0.0
C814 C 0.45541 0.21483 0.65401 0.0
C815 C 0.48418 0.22182 0.66434 0.0
C816 C 0.44165 0.19828 0.63014 0.0
C817 C 0.4114 0.18893 0.61907 0.0
C818 C 0.39728 0.17337 0.63638 0.0
C819 C 0.36872 0.16499 0.62595 0.0
C820 C 0.3541 0.17179 0.59811 0.0
C821 C 0.36803 0.1869 0.58062 0.0
C822 C 0.3966 0.1954 0.59099 0.0
C823 C 0.5212 0.13972 0.63532 0.0
C824 C 0.5138 0.13366 0.60638 0.0
C825 C 0.51381 0.16056 0.64291 0.0
C826 C 0.49923 0.176 0.62171 0.0
C827 C 0.49376 0.17126 0.59277 0.0
C828 C 0.50099 0.15026 0.58515 0.0
C829 C 0.48555 0.19346 0.62982 0.0
C830 C 0.45689 0.18824 0.61804 0.0
C831 C 0.49954 0.21137 0.65248 0.0
C832 C 0.52999 0.21873 0.66452 0.0
C833 C 0.54576 0.22594 0.64627 0.0
C834 C 0.57438 0.23208 0.6576 0.0
C835 C 0.58752 0.23138 0.68719 0.0
C836 C 0.57209 0.22448 0.70551 0.0
C837 C 0.54347 0.21818 0.6943 0.0
H838 H 0.60967 0.23636 0.69594 0.0
H839 H 0.33198 0.16528 0.59006 0.0
H840 H 0.07564 0.96778 0.46803 0.0
H841 H 0.11864 0.95442 0.48259 0.0
H842 H 0.16351 0.03355 0.50636 0.0
H843 H 0.12042 0.04711 0.49185 0.0
H844 H 0.17241 0.96528 0.48114 0.0
H845 H 0.20122 0.02893 0.57576 0.0
H846 H 0.18133 0.05541 0.597 0.0
H847 H 0.10271 1.00154 0.5663 0.0
H848 H 0.12227 0.9746 0.54529 0.0
H849 H 0.255 0.91515 0.63344 0.0
H850 H 0.24353 0.95209 0.60151 0.0
H851 H 0.17335 0.89959 0.5454 0.0
H852 H 0.18406 0.863 0.57726 0.0
H853 H 0.19548 0.96865 0.58642 0.0
H854 H 0.16447 0.91684 0.47763 0.0
H855 H 0.18111 0.88701 0.45698 0.0
H856 H 0.26208 0.91282 0.51719 0.0
H857 H 0.24607 0.94312 0.53794 0.0
C858 C 0.09469 0.98257 0.47518 0.0
C859 C 0.09473 1.00824 0.47975 0.0
C860 C 0.11931 0.97496 0.48328 0.0
C861 C 0.14414 0.9929 0.49624 0.0
C862 C 0.14447 0.0194 0.49666 0.0
C863 C 0.11979 0.02709 0.48838 0.0
C864 C 0.16729 0.98248 0.51548 0.0
C865 C 0.17798 0.96631 0.50418 0.0
C866 C 0.17491 0.98435 0.54556 0.0
C867 C 0.16314 0.99998 0.55877 0.0
C868 C 0.17973 0.02273 0.57368 0.0
C869 C 0.16852 0.0378 0.58566 0.0
C870 C 0.14077 0.03018 0.58297 0.0
C871 C 0.12419 1.00743 0.56836 0.0
C872 C 0.13533 0.99224 0.55646 0.0
C873 C 0.23705 0.91155 0.61436 0.0
C874 C 0.22052 0.8861 0.60779 0.0
C875 C 0.23073 0.9326 0.59604 0.0
C876 C 0.20804 0.92842 0.57077 0.0
C877 C 0.19146 0.90311 0.56435 0.0
C878 C 0.19758 0.88221 0.58265 0.0
C879 C 0.19963 0.95042 0.55208 0.0
C880 C 0.19145 0.96864 0.56352 0.0
C881 C 0.19417 0.95018 0.52218 0.0
C882 C 0.20403 0.93229 0.50938 0.0
C883 C 0.18589 0.91636 0.48632 0.0
C884 C 0.1952 0.8993 0.47463 0.0
C885 C 0.22263 0.89801 0.48577 0.0
C886 C 0.24082 0.9138 0.50861 0.0
C887 C 0.23163 0.93091 0.52036 0.0
H888 H 0.22978 0.88477 0.47671 0.0
H889 H 0.13216 0.04185 0.5923 0.0
H890 H 0.37379 0.82926 0.76387 0.0
H891 H 0.41158 0.85956 0.79812 0.0
H892 H 0.36107 0.855 0.85026 0.0
H893 H 0.32383 0.82419 0.81694 0.0
H894 H 0.38956 0.90947 0.82454 0.0
H895 H 0.39925 0.8274 0.87746 0.0
H896 H 0.40942 0.78402 0.88612 0.0
H897 H 0.49045 0.81753 0.88335 0.0
H898 H 0.48034 0.86097 0.8731 0.0
H899 H 0.48057 0.95446 0.97422 0.0
H900 H 0.45232 0.92022 0.93954 0.0
H901 H 0.48329 0.96397 0.87507 0.0
H902 H 0.51225 0.99811 0.91005 0.0
H903 H 0.46827 0.88972 0.90505 0.0
H904 H 0.424 0.95677 0.81363 0.0
H905 H 0.41571 1.00107 0.8058 0.0
H906 H 0.40587 0.99727 0.88816 0.0
H907 H 0.41375 0.95285 0.89628 0.0
C908 C 0.37097 0.83452 0.78285 0.0
C909 C 0.3459 0.82447 0.78774 0.0
C910 C 0.39254 0.85168 0.8024 0.0
C911 C 0.38914 0.85924 0.82681 0.0
C912 C 0.36416 0.84913 0.8317 0.0
C913 C 0.34291 0.83159 0.81262 0.0
C914 C 0.4104 0.87954 0.84599 0.0
C915 C 0.40694 0.90517 0.84194 0.0
C916 C 0.4331 0.87389 0.86864 0.0
C917 C 0.43865 0.84744 0.87356 0.0
C918 C 0.4189 0.82547 0.87768 0.0
C919 C 0.42472 0.80082 0.88298 0.0
C920 C 0.4504 0.79792 0.88473 0.0
C921 C 0.47039 0.8197 0.8814 0.0
C922 C 0.46457 0.84433 0.87572 0.0
C923 C 0.48148 0.95672 0.95271 0.0
C924 C 0.49865 0.97888 0.9448 0.0
C925 C 0.46547 0.93709 0.93299 0.0
C926 C 0.46583 0.93953 0.90482 0.0
C927 C 0.48281 0.96173 0.89676 0.0
C928 C 0.49919 0.98123 0.91665 0.0
C929 C 0.44719 0.91945 0.88364 0.0
C930 C 0.45115 0.89399 0.88728 0.0
C931 C 0.42503 0.92517 0.86047 0.0
C932 C 0.41977 0.95165 0.85566 0.0
C933 C 0.41999 0.96539 0.83001 0.0
C934 C 0.41537 0.99051 0.82553 0.0
C935 C 0.41036 1.00201 0.84651 0.0
C936 C 0.40986 0.98838 0.87197 0.0
C937 C 0.41444 0.96325 0.87654 0.0
H938 H 0.40681 0.02147 0.84301 0.0
H939 H 0.4549 0.77885 0.88897 0.0
H940 H 0.53676 0.14116 0.1081 0.0
H941 H 0.50941 0.15274 0.13317 0.0
H942 H 0.43695 0.10064 0.07933 0.0
H943 H 0.46408 0.08992 0.0536 0.0
H944 H 0.42833 0.14628 0.07651 0.0
H945 H 0.46036 0.08952 0.15563 0.0
H946 H 0.4934 0.06951 0.1939 0.0
H947 H 0.53707 0.14503 0.2297 0.0
H948 H 0.50385 0.1654 0.19212 0.0
H949 H 0.34199 0.17174 0.14516 0.0
H950 H 0.36975 0.14771 0.13288 0.0
H951 H 0.4411 0.21104 0.16398 0.0
H952 H 0.41336 0.23531 0.17619 0.0
H953 H 0.4484 0.15657 0.18029 0.0
H954 H 0.41342 0.21188 0.09863 0.0
H955 H 0.37651 0.2288 0.06234 0.0
H956 H 0.3357 0.15126 0.0309 0.0
H957 H 0.3722 0.13383 0.06735 0.0
C958 C 0.51508 0.13189 0.10206 0.0
C959 C 0.50233 0.11505 0.07869 0.0
C960 C 0.49951 0.13828 0.11654 0.0
C961 C 0.4711 0.12752 0.10815 0.0
C962 C 0.45878 0.1093 0.08605 0.0
C963 C 0.47423 0.10327 0.07131 0.0
C964 C 0.45374 0.13818 0.11924 0.0
C965 C 0.43242 0.14795 0.09924 0.0
C966 C 0.45936 0.14097 0.14883 0.0
C967 C 0.47983 0.12899 0.17093 0.0
C968 C 0.47714 0.10186 0.17155 0.0
C969 C 0.4958 0.09045 0.19318 0.0
C970 C 0.51748 0.10602 0.21401 0.0
C971 C 0.52033 0.13301 0.21348 0.0
C972 C 0.50148 0.14448 0.19217 0.0
C973 C 0.36367 0.18037 0.14967 0.0
C974 C 0.3756 0.20537 0.16145 0.0
C975 C 0.37943 0.16667 0.14269 0.0
C976 C 0.40736 0.17769 0.14762 0.0
C977 C 0.41956 0.20227 0.16021 0.0
C978 C 0.40371 0.21616 0.16687 0.0
C979 C 0.42328 0.16441 0.13752 0.0
C980 C 0.44428 0.15443 0.15762 0.0
C981 C 0.41714 0.16101 0.10802 0.0
C982 C 0.39537 0.17152 0.0859 0.0
C983 C 0.39646 0.19841 0.08414 0.0
C984 C 0.37563 0.2081 0.06352 0.0
C985 C 0.35373 0.1911 0.04438 0.0
C986 C 0.35265 0.16439 0.04577 0.0
C987 C 0.37341 0.1546 0.06639 0.0
H988 H 0.33763 0.19864 0.02842 0.0
H989 H 0.53197 0.09714 0.23064 0.0
H990 H 0.14773 0.1602 0.4397 0.0
H991 H 0.17532 0.17299 0.40802 0.0
H992 H 0.10218 0.15235 0.33449 0.0
H993 H 0.07465 0.13921 0.36593 0.0
H994 H 0.14348 0.13198 0.33213 0.0
H995 H 0.13089 0.21645 0.34603 0.0
H996 H 0.13234 0.25284 0.37388 0.0
H997 H 0.21842 0.26042 0.41775 0.0
H998 H 0.21756 0.22438 0.38955 0.0
H999 H 0.20638 0.2422 0.24228 0.0
H1000 H 0.17822 0.22216 0.27168 0.0
H1001 H 0.22584 0.1643 0.30267 0.0
H1002 H 0.25402 0.18427 0.27258 0.0
H1003 H 0.2003 0.22173 0.32899 0.0
H1004 H 0.18222 0.11024 0.32547 0.0
H1005 H 0.17699 0.07631 0.29229 0.0
H1006 H 0.14568 0.12511 0.22046 0.0
H1007 H 0.1504 0.15916 0.2532 0.0
C1008 C 0.1376 0.15854 0.41677 0.0
C1009 C 0.10908 0.14884 0.40523 0.0
C1010 C 0.15331 0.16588 0.39874 0.0
C1011 C 0.14072 0.16351 0.36897 0.0
C1012 C 0.11224 0.15418 0.35742 0.0
C1013 C 0.09653 0.14701 0.37538 0.0
C1014 C 0.15715 0.17061 0.34972 0.0
C1015 C 0.156 0.15157 0.33145 0.0
C1016 C 0.17341 0.19612 0.34888 0.0
C1017 C 0.17404 0.21746 0.36615 0.0
C1018 C 0.15006 0.22574 0.36182 0.0
C1019 C 0.15081 0.24634 0.37759 0.0
C1020 C 0.17536 0.25862 0.39796 0.0
C1021 C 0.19936 0.25068 0.40219 0.0
C1022 C 0.1988 0.23028 0.38619 0.0
C1023 C 0.21032 0.22475 0.25474 0.0
C1024 C 0.23226 0.21472 0.25538 0.0
C1025 C 0.19436 0.21342 0.2716 0.0
C1026 C 0.20018 0.19198 0.28952 0.0
C1027 C 0.22101 0.1808 0.28884 0.0
C1028 C 0.23696 0.19209 0.27163 0.0
C1029 C 0.18607 0.18337 0.31073 0.0
C1030 C 0.18799 0.20205 0.32975 0.0
C1031 C 0.17012 0.15772 0.31171 0.0
C1032 C 0.167 0.13735 0.2918 0.0
C1033 C 0.17417 0.11369 0.30259 0.0
C1034 C 0.1713 0.09444 0.28387 0.0
C1035 C 0.16111 0.09859 0.25429 0.0
C1036 C 0.15369 0.12197 0.24337 0.0
C1037 C 0.15652 0.14126 0.262 0.0
H1038 H 0.15891 0.08367 0.23983 0.0
H1039 H 0.17582 0.2744 0.41034 0.0
H1040 H 0.8044 0.22777 0.17515 0.0
H1041 H 0.8289 0.20675 0.15411 0.0
H1042 H 0.88774 0.20025 0.23739 0.0
H1043 H 0.8632 0.22149 0.25843 0.0
H1044 H 0.91755 0.20631 0.20495 0.0
H1045 H 0.83093 0.14488 0.18881 0.0
H1046 H 0.78055 0.12959 0.17116 0.0
H1047 H 0.77902 0.15153 0.08525 0.0
H1048 H 0.82938 0.16726 0.10246 0.0
H1049 H 0.98398 0.12352 0.15698 0.0
H1050 H 0.95975 0.14405 0.17841 0.0
H1051 H 0.89524 0.1424 0.09748 0.0
H1052 H 0.91908 0.12107 0.07616 0.0
H1053 H 0.86817 0.14064 0.12903 0.0
H1054 H 0.954 0.20358 0.14455 0.0
H1055 H 1.00425 0.22025 0.16171 0.0
H1056 H 1.00723 0.19691 0.24774 0.0
H1057 H 0.95701 0.17988 0.23104 0.0
C1058 C 0.8225 0.22196 0.18943 0.0
C1059 C 0.83085 0.22708 0.21929 0.0
C1060 C 0.83687 0.2093 0.17704 0.0
C1061 C 0.86104 0.2005 0.19329 0.0
C1062 C 0.86962 0.20603 0.22311 0.0
C1063 C 0.8551 0.21851 0.23555 0.0
C1064 C 0.87703 0.18618 0.17967 0.0
C1065 C 0.90625 0.19173 0.18861 0.0
C1066 C 0.86408 0.167 0.1574 0.0
C1067 C 0.83388 0.15749 0.14696 0.0
C1068 C 0.81982 0.14658 0.16618 0.0
C1069 C 0.79128 0.13783 0.15625 0.0
C1070 C 0.77659 0.13966 0.12711 0.0
C1071 C 0.79042 0.15017 0.10782 0.0
C1072 C 0.81897 0.159 0.11765 0.0
C1073 C 0.96478 0.12751 0.14313 0.0
C1074 C 0.95469 0.11979 0.11383 0.0
C1075 C 0.95046 0.13997 0.15582 0.0
C1076 C 0.92479 0.1465 0.14041 0.0
C1077 C 0.91455 0.13852 0.11121 0.0
C1078 C 0.92875 0.12584 0.09857 0.0
C1079 C 0.90882 0.16081 0.1542 0.0
C1080 C 0.87955 0.15523 0.14533 0.0
C1081 C 0.92172 0.18012 0.1764 0.0
C1082 C 0.95182 0.19021 0.1865 0.0
C1083 C 0.96541 0.20188 0.1671 0.0
C1084 C 0.99387 0.21141 0.17675 0.0
C1085 C 1.00893 0.20957 0.20578 0.0
C1086 C 0.99555 0.19827 0.22525 0.0
C1087 C 0.96709 0.18869 0.21571 0.0
H1088 H 1.03096 0.21695 0.21321 0.0
H1089 H 0.75449 0.13288 0.11947 0.0
H1090 H 0.09339 0.57089 0.45888 0.0
H1091 H 0.12283 0.57218 0.43107 0.0
H1092 H 0.10101 0.48796 0.42813 0.0
H1093 H 0.07068 0.48645 0.45587 0.0
H1094 H 0.16652 0.5535 0.43499 0.0
H1095 H 0.09639 0.47342 0.36503 0.0
H1096 H 0.04944 0.44556 0.35399 0.0
H1097 H 1.0199 0.51174 0.36081 0.0
H1098 H 0.06677 0.53992 0.37189 0.0
H1099 H 0.21242 0.59792 0.31805 0.0
H1100 H 0.19668 0.56173 0.34777 0.0
H1101 H 0.11986 0.58378 0.32536 0.0
H1102 H 0.13531 0.61972 0.29603 0.0
H1103 H 0.11216 0.53118 0.33365 0.0
H1104 H 0.17593 0.61157 0.38268 0.0
H1105 H 0.22088 0.64331 0.39635 0.0
H1106 H 0.26081 0.58127 0.43361 0.0
H1107 H 0.21604 0.54916 0.4198 0.0
C1108 C 0.09496 0.55254 0.45267 0.0
C1109 C 0.07924 0.5286 0.45912 0.0
C1110 C 0.1121 0.55331 0.43699 0.0
C1111 C 0.114 0.53019 0.42734 0.0
C1112 C 0.09966 0.50604 0.43518 0.0
C1113 C 0.08235 0.50525 0.45099 0.0
C1114 C 0.12814 0.53249 0.40609 0.0
C1115 C 0.15505 0.54784 0.41295 0.0
C1116 C 0.11326 0.52503 0.37741 0.0
C1117 C 0.08493 0.50868 0.36914 0.0
C1118 C 0.07981 0.48202 0.36389 0.0
C1119 C 0.05326 0.46617 0.35774 0.0
C1120 C 1.03168 0.47688 0.35666 0.0
C1121 C 0.03661 0.50348 0.3616 0.0
C1122 C 0.06314 0.5194 0.36777 0.0
C1123 C 0.19197 0.59471 0.31905 0.0
C1124 C 0.17529 0.61199 0.30497 0.0
C1125 C 0.18294 0.5739 0.33586 0.0
C1126 C 0.15721 0.57022 0.33906 0.0
C1127 C 0.13972 0.58608 0.3231 0.0
C1128 C 0.14865 0.60675 0.30629 0.0
C1129 C 0.15003 0.55347 0.36238 0.0
C1130 C 0.12442 0.53545 0.35585 0.0
C1131 C 0.16603 0.55874 0.39144 0.0
C1132 C 0.1928 0.57801 0.39993 0.0
C1133 C 0.19434 0.60474 0.39368 0.0
C1134 C 0.21975 0.62277 0.40143 0.0
C1135 C 0.2437 0.6143 0.41577 0.0
C1136 C 0.24226 0.58779 0.42244 0.0
C1137 C 0.21689 0.56967 0.41463 0.0
H1138 H 0.26336 0.62828 0.42176 0.0
H1139 H 1.01116 0.46457 0.35202 0.0
H1140 H 0.59524 0.94842 0.52119 0.0
H1141 H 0.62454 0.91933 0.54862 0.0
H1142 H 0.61109 0.93422 0.6251 0.0
H1143 H 0.58239 0.96379 0.59779 0.0
H1144 H 0.65932 0.92942 0.64414 0.0
H1145 H 0.58308 0.87304 0.57897 0.0
H1146 H 0.55014 0.85502 0.53286 0.0
H1147 H 0.6156 0.84165 0.50981 0.0
H1148 H 0.64913 0.86091 0.55501 0.0
H1149 H 0.71612 0.82496 0.73005 0.0
H1150 H 0.6868 0.85353 0.70144 0.0
H1151 H 0.70684 0.84244 0.62782 0.0
H1152 H 0.73615 0.81364 0.6565 0.0
H1153 H 0.65549 0.84496 0.60715 0.0
H1154 H 0.73152 0.9036 0.67135 0.0
H1155 H 0.7641 0.92045 0.71816 0.0
H1156 H 0.69746 0.92674 0.74395 0.0
H1157 H 0.66444 0.90963 0.6974 0.0
C1158 C 0.59828 0.94561 0.54384 0.0
C1159 C 0.58561 0.95912 0.55656 0.0
C1160 C 0.61527 0.92841 0.5599 0.0
C1161 C 0.62061 0.92323 0.5898 0.0
C1162 C 0.6081 0.93699 0.60246 0.0
C1163 C 0.59119 0.95421 0.58644 0.0
C1164 C 0.63907 0.90423 0.60779 0.0
C1165 C 0.65786 0.91084 0.63576 0.0
C1166 C 0.6388 0.87957 0.59801 0.0
C1167 C 0.61873 0.86885 0.57028 0.0
C1168 C 0.59055 0.86674 0.56384 0.0
C1169 C 0.57175 0.85636 0.53778 0.0
C1170 C 0.5808 0.84747 0.51823 0.0
C1171 C 0.60865 0.84892 0.52473 0.0
C1172 C 0.62758 0.8597 0.55051 0.0
C1173 C 0.71456 0.82847 0.70779 0.0
C1174 C 0.72934 0.81634 0.69635 0.0
C1175 C 0.69754 0.84535 0.69108 0.0
C1176 C 0.69402 0.8514 0.66165 0.0
C1177 C 0.70846 0.83892 0.65009 0.0
C1178 C 0.72566 0.82215 0.66688 0.0
C1179 C 0.6756 0.87025 0.64329 0.0
C1180 C 0.65686 0.86359 0.61534 0.0
C1181 C 0.67575 0.89478 0.65307 0.0
C1182 C 0.69551 0.90509 0.68101 0.0
C1183 C 0.72381 0.90842 0.68708 0.0
C1184 C 0.74235 0.91804 0.71355 0.0
C1185 C 0.73285 0.92459 0.73405 0.0
C1186 C 0.70479 0.92161 0.72807 0.0
C1187 C 0.68615 0.91197 0.70164 0.0
H1188 H 0.74724 0.93204 0.75453 0.0
H1189 H 0.56622 0.83929 0.49814 0.0
H1190 H 0.53784 0.41956 0.98781 0.0
H1191 H 0.50105 0.38355 0.96139 0.0
H1192 H 0.45313 0.43848 0.91647 0.0
H1193 H 0.48995 0.47447 0.94219 0.0
H1194 H 0.4223 0.39224 0.93615 0.0
H1195 H 0.48658 0.41927 0.88373 0.0
H1196 H 0.53232 0.42822 0.87886 0.0
H1197 H 0.53645 0.34888 0.90336 0.0
H1198 H 0.49085 0.33958 0.90875 0.0
H1199 H 0.35287 0.32563 0.79261 0.0
H1200 H 0.38846 0.35629 0.82737 0.0
H1201 H 0.38304 0.30008 0.89552 0.0
H1202 H 0.3477 0.26874 0.86048 0.0
H1203 H 0.44073 0.34397 0.86778 0.0
H1204 H 0.3895 0.34623 0.95059 0.0
H1205 H 0.34313 0.33809 0.9538 0.0
H1206 H 0.31169 0.36047 0.86535 0.0
H1207 H 0.35789 0.36914 0.86177 0.0
C1208 C 0.51943 0.42389 0.97231 0.0
C1209 C 0.51667 0.44975 0.96707 0.0
C1210 C 0.49843 0.40335 0.95737 0.0
C1211 C 0.47434 0.4084 0.93713 0.0
C1212 C 0.47143 0.43418 0.93223 0.0
C1213 C 0.49251 0.4547 0.94686 0.0
C1214 C 0.45284 0.38716 0.91962 0.0
C1215 C 0.42636 0.3815 0.9214 0.0
C1216 C 0.45816 0.37326 0.90031 0.0
C1217 C 0.48548 0.37882 0.89696 0.0
C1218 C 0.49735 0.4038 0.88832 0.0
C1219 C 0.52322 0.40893 0.88542 0.0
C1220 C 0.53732 0.38916 0.89089 0.0
C1221 C 0.52553 0.36419 0.89919 0.0
C1222 C 0.49968 0.35898 0.90215 0.0
C1223 C 0.3592 0.31977 0.815 0.0
C1224 C 0.34768 0.2948 0.82392 0.0
C1225 C 0.37956 0.33726 0.83477 0.0
C1226 C 0.38831 0.33036 0.86388 0.0
C1227 C 0.37647 0.30566 0.87306 0.0
C1228 C 0.35639 0.28785 0.85312 0.0
C1229 C 0.41025 0.34909 0.88429 0.0
C1230 C 0.43681 0.35431 0.88299 0.0
C1231 C 0.40492 0.36263 0.90385 0.0
C1232 C 0.3771 0.35793 0.90583 0.0
C1233 C 0.37269 0.34945 0.93186 0.0
C1234 C 0.34644 0.34476 0.93374 0.0
C1235 C 0.32445 0.34861 0.90975 0.0
C1236 C 0.32869 0.35732 0.88387 0.0
C1237 C 0.35491 0.36208 0.88189 0.0
H1238 H 0.30416 0.34492 0.91126 0.0
H1239 H 0.55735 0.39316 0.88863 0.0
H1240 H 0.83237 0.82516 0.28668 0.0
H1241 H 0.86381 0.86214 0.31502 0.0
H1242 H 0.90816 0.80979 0.37301 0.0
H1243 H 0.87428 0.77228 0.34585 0.0
H1244 H 0.90769 0.84533 0.40299 0.0
H1245 H 0.93161 0.84859 0.32011 0.0
H1246 H 0.92466 0.84761 0.2686 0.0
H1247 H 0.89536 0.91757 0.25433 0.0
H1248 H 0.90174 0.91879 0.30569 0.0
H1249 H 1.0122 0.98348 0.41264 0.0
H1250 H 0.98837 0.94172 0.38855 0.0
H1251 H 0.92745 0.93168 0.42964 0.0
H1252 H 0.95242 0.97245 0.4552 0.0
H1253 H 0.94381 0.92401 0.3519 0.0
H1254 H 0.8987 0.87022 0.43969 0.0
H1255 H 0.91218 0.86888 0.49237 0.0
H1256 H 0.99694 0.89518 0.49923 0.0
H1257 H 0.98402 0.89632 0.4467 0.0
C1258 C 0.84794 0.82145 0.3062 0.0
C1259 C 0.85 0.7959 0.31498 0.0
C1260 C 0.86657 0.84269 0.32196 0.0
C1261 C 0.88875 0.83894 0.34603 0.0
C1262 C 0.89119 0.81327 0.35461 0.0
C1263 C 0.87195 0.79189 0.33911 0.0
C1264 C 0.90908 0.86195 0.36201 0.0
C1265 C 0.91574 0.86246 0.39184 0.0
C1266 C 0.92054 0.88404 0.3477 0.0
C1267 C 0.91705 0.8837 0.31679 0.0
C1268 C 0.92357 0.86371 0.30598 0.0
C1269 C 0.91972 0.86311 0.2768 0.0
C1270 C 0.90956 0.88251 0.25821 0.0
C1271 C 0.90325 0.90257 0.26877 0.0
C1272 C 0.90702 0.90325 0.29793 0.0
C1273 C 0.99376 0.97221 0.41652 0.0
C1274 C 0.98415 0.98096 0.43581 0.0
C1275 C 0.98011 0.94838 0.40275 0.0
C1276 C 0.9563 0.93313 0.40759 0.0
C1277 C 0.94624 0.94249 0.4262 0.0
C1278 C 0.96034 0.96591 0.44061 0.0
C1279 C 0.94165 0.90778 0.3928 0.0
C1280 C 0.93609 0.9068 0.36316 0.0
C1281 C 0.93238 0.88485 0.4075 0.0
C1282 C 0.94034 0.88354 0.43921 0.0
C1283 C 0.92022 0.87554 0.45244 0.0
C1284 C 0.92777 0.87487 0.4823 0.0
C1285 C 0.95539 0.88202 0.49916 0.0
C1286 C 0.97554 0.88973 0.4862 0.0
C1287 C 0.96811 0.89041 0.45638 0.0
H1288 H 0.96116 0.88152 0.52226 0.0
H1289 H 0.90666 0.88203 0.23565 0.0
H1290 H 0.49022 0.65153 0.6355 0.0
H1291 H 0.46617 0.67298 0.65622 0.0
H1292 H 0.39249 0.61314 0.62314 0.0
H1293 H 0.41632 0.59196 0.60176 0.0
H1294 H 0.37114 0.64817 0.62365 0.0
H1295 H 0.44369 0.63111 0.70657 0.0
H1296 H 0.49107 0.632 0.738 0.0
H1297 H 0.51152 0.71586 0.73414 0.0
H1298 H 0.46423 0.71545 0.70276 0.0
H1299 H 0.35679 0.71296 0.75931 0.0
H1300 H 0.38179 0.69123 0.73933 0.0
H1301 H 0.33712 0.7143 0.65455 0.0
H1302 H 0.31198 0.73544 0.67443 0.0
H1303 H 0.417 0.69539 0.71504 0.0
H1304 H 0.3402 0.68224 0.5993 0.0
H1305 H 0.29033 0.6738 0.57388 0.0
H1306 H 0.27512 0.63956 0.65041 0.0
H1307 H 0.32486 0.64753 0.67619 0.0
C1308 C 0.46894 0.64233 0.63248 0.0
C1309 C 0.45637 0.61896 0.61606 0.0
C1310 C 0.45468 0.65498 0.64504 0.0
C1311 C 0.42645 0.64539 0.64285 0.0
C1312 C 0.41383 0.62219 0.62623 0.0
C1313 C 0.42804 0.6096 0.61354 0.0
C1314 C 0.41029 0.65919 0.65686 0.0
C1315 C 0.38181 0.65859 0.64355 0.0
C1316 C 0.42207 0.67287 0.68367 0.0
C1317 C 0.45055 0.67323 0.70207 0.0
C1318 C 0.45836 0.64973 0.7123 0.0
C1319 C 0.48516 0.65015 0.73018 0.0
C1320 C 0.5043 0.67398 0.73802 0.0
C1321 C 0.49668 0.69742 0.72803 0.0
C1322 C 0.46986 0.69711 0.71027 0.0
C1323 C 0.35189 0.71347 0.7363 0.0
C1324 C 0.3313 0.7266 0.71917 0.0
C1325 C 0.3667 0.70074 0.72449 0.0
C1326 C 0.36209 0.69967 0.69445 0.0
C1327 C 0.34172 0.71313 0.6775 0.0
C1328 C 0.32702 0.72588 0.68927 0.0
C1329 C 0.37821 0.68517 0.68123 0.0
C1330 C 0.40654 0.6854 0.69484 0.0
C1331 C 0.36613 0.67058 0.65506 0.0
C1332 C 0.33625 0.66578 0.63974 0.0
C1333 C 0.3262 0.67287 0.61068 0.0
C1334 C 0.29796 0.66817 0.59622 0.0
C1335 C 0.27957 0.65624 0.61055 0.0
C1336 C 0.28938 0.6489 0.63936 0.0
C1337 C 0.31759 0.65353 0.65392 0.0
H1338 H 0.25772 0.65261 0.59932 0.0
H1339 H 0.52503 0.67427 0.75189 0.0
H1340 H 0.63161 0.04177 0.98879 0.0
H1341 H 0.65576 0.04687 0.95454 0.0
H1342 H 0.60169 0.9759 0.91317 0.0
H1343 H 0.57726 0.97061 0.94773 0.0
H1344 H 0.68209 0.01855 0.93271 0.0
H1345 H 0.58411 0.9917 0.84201 0.0
H1346 H 0.53404 0.98248 0.83134 0.0
H1347 H 0.54565 0.04028 0.89159 0.0
H1348 H 0.59572 0.04994 0.90237 0.0
H1349 H 0.66485 0.09377 0.78185 0.0
H1350 H 0.65111 0.05412 0.80867 0.0
H1351 H 0.70025 0.09397 0.88799 0.0
H1352 H 0.71452 0.13285 0.86149 0.0
H1353 H 0.62201 0.04781 0.84071 0.0
H1354 H 0.72099 0.05773 0.94257 0.0
H1355 H 0.77095 0.06757 0.95334 0.0
H1356 H 0.75898 0.04344 0.86928 0.0
H1357 H 0.70891 0.03305 0.85809 0.0
C1358 C 0.62524 0.02691 0.97282 0.0
C1359 C 0.60232 1.00607 0.97055 0.0
C1360 C 0.63924 0.02969 0.95344 0.0
C1361 C 0.63037 1.01188 0.93121 0.0
C1362 C 0.6088 0.98985 0.93019 0.0
C1363 C 0.59488 0.98689 0.94989 0.0
C1364 C 0.64077 0.01944 0.90694 0.0
C1365 C 0.66908 0.02463 0.91233 0.0
C1366 C 0.62355 0.02636 0.88001 0.0
C1367 C 0.59354 0.02136 0.87309 0.0
C1368 C 0.57591 1.00249 0.85284 0.0
C1369 C 0.54757 0.99718 0.84681 0.0
C1370 C 0.53668 1.01076 0.8608 0.0
C1371 C 0.55411 0.02976 0.88078 0.0
C1372 C 0.58245 0.03517 0.88684 0.0
C1373 C 0.67306 0.09375 0.80503 0.0
C1374 C 0.69087 0.11629 0.81962 0.0
C1375 C 0.66529 0.07111 0.82031 0.0
C1376 C 0.67506 0.07076 0.8504 0.0
C1377 C 0.69319 0.09324 0.86484 0.0
C1378 C 0.70122 0.11562 0.84965 0.0
C1379 C 0.66381 0.04859 0.86706 0.0
C1380 C 0.63524 0.04065 0.86027 0.0
C1381 C 0.68088 0.03895 0.89257 0.0
C1382 C 0.71109 0.04458 0.89947 0.0
C1383 C 0.72896 0.05423 0.92645 0.0
C1384 C 0.75733 0.06 0.93261 0.0
C1385 C 0.76813 0.05615 0.91201 0.0
C1386 C 0.75058 0.04646 0.88521 0.0
C1387 C 0.72219 0.04065 0.87894 0.0
H1388 H 0.79011 0.06068 0.9168 0.0
H1389 H 0.51475 1.00659 0.85614 0.0
H1390 H 0.08645 0.46906 0.0978 0.0
H1391 H 0.11514 0.44027 0.12677 0.0
H1392 H 0.13297 0.4255 0.05291 0.0
H1393 H 0.10324 0.45364 0.02362 0.0
H1394 H 0.13386 0.38308 0.08002 0.0
H1395 H 0.18095 0.46685 0.11919 0.0
H1396 H 0.18739 0.50907 0.14018 0.0
H1397 H 0.16696 0.4693 0.21212 0.0
H1398 H 0.1599 0.42674 0.19127 0.0
H1399 H 0.24516 0.32233 0.16434 0.0
H1400 H 0.21648 0.35092 0.13436 0.0
H1401 H 0.1915 0.36084 0.20498 0.0
H1402 H 0.22045 0.33241 0.23509 0.0
H1403 H 0.19499 0.40595 0.17908 0.0
H1404 H 0.14898 0.32117 0.13747 0.0
H1405 H 0.14446 0.28034 0.11472 0.0
H1406 H 0.16661 0.32447 0.0456 0.0
H1407 H 0.17162 0.36557 0.06815 0.0
C1408 C 0.09641 0.45986 0.08742 0.0
C1409 C 0.09193 0.46451 0.05769 0.0
C1410 C 0.11347 0.44319 0.10446 0.0
C1411 C 0.12778 0.43027 0.09317 0.0
C1412 C 0.12297 0.43466 0.06328 0.0
C1413 C 0.10568 0.4512 0.04616 0.0
C1414 C 0.1471 0.41238 0.11207 0.0
C1415 C 0.14738 0.38861 0.10152 0.0
C1416 C 0.16531 0.41815 0.1408 0.0
C1417 C 0.1696 0.44361 0.15351 0.0
C1418 C 0.17766 0.4671 0.1394 0.0
C1419 C 0.18144 0.4911 0.15128 0.0
C1420 C 0.17755 0.49189 0.17745 0.0
C1421 C 0.16992 0.46866 0.19183 0.0
C1422 C 0.16601 0.44458 0.17998 0.0
C1423 C 0.23359 0.33039 0.17376 0.0
C1424 C 0.23574 0.32424 0.20284 0.0
C1425 C 0.21664 0.34697 0.15616 0.0
C1426 C 0.2005 0.35856 0.16632 0.0
C1427 C 0.20303 0.35272 0.19555 0.0
C1428 C 0.2199 0.33605 0.21312 0.0
C1429 C 0.18158 0.37661 0.1471 0.0
C1430 C 0.18141 0.40043 0.1576 0.0
C1431 C 0.16385 0.3711 0.11815 0.0
C1432 C 0.16097 0.34644 0.10467 0.0
C1433 C 0.1531 0.32216 0.11754 0.0
C1434 C 0.15042 0.29897 0.10466 0.0
C1435 C 0.15534 0.29981 0.07878 0.0
C1436 C 0.16288 0.32384 0.06568 0.0
C1437 C 0.16563 0.34709 0.0785 0.0
H1438 H 0.15323 0.28183 0.06884 0.0
H1439 H 0.18051 0.51051 0.18662 0.0
H1440 H 0.65299 0.54854 0.90177 0.0
H1441 H 0.66714 0.57444 0.86376 0.0
H1442 H 0.71158 0.63845 0.92164 0.0
H1443 H 0.69687 0.61293 0.9597 0.0
H1444 H 0.65517 0.62154 0.84107 0.0
H1445 H 0.76902 0.66953 0.90075 0.0
H1446 H 0.80866 0.66025 0.9405 0.0
H1447 H 0.77378 0.57786 0.92923 0.0
H1448 H 0.73416 0.58662 0.88915 0.0
H1449 H 0.71122 0.72799 0.76015 0.0
H1450 H 0.69387 0.699 0.79497 0.0
H1451 H 0.7416 0.64572 0.79247 0.0
H1452 H 0.75872 0.67426 0.75789 0.0
H1453 H 0.75166 0.65724 0.84557 0.0
H1454 H 0.67017 0.63139 0.76336 0.0
H1455 H 0.63141 0.63889 0.72135 0.0
H1456 H 0.60176 0.67306 0.77499 0.0
H1457 H 0.64054 0.66606 0.81728 0.0
C1458 C 0.66571 0.56815 0.90645 0.0
C1459 C 0.67361 0.57874 0.93372 0.0
C1460 C 0.67382 0.58287 0.88472 0.0
C1461 C 0.69029 0.60833 0.88991 0.0
C1462 C 0.69899 0.61874 0.91731 0.0
C1463 C 0.6907 0.60407 0.93906 0.0
C1464 C 0.69755 0.6242 0.86628 0.0
C1465 C 0.67627 0.62939 0.84201 0.0
C1466 C 0.72506 0.63432 0.8676 0.0
C1467 C 0.74844 0.62877 0.89216 0.0
C1468 C 0.76979 0.64943 0.90678 0.0
C1469 C 0.79228 0.64426 0.92935 0.0
C1470 C 0.79371 0.61849 0.93742 0.0
C1471 C 0.7726 0.59782 0.92303 0.0
C1472 C 0.75008 0.60288 0.90042 0.0
C1473 C 0.71765 0.7099 0.76684 0.0
C1474 C 0.73653 0.70349 0.7567 0.0
C1475 C 0.70778 0.69341 0.78666 0.0
C1476 C 0.7168 0.67044 0.79662 0.0
C1477 C 0.73462 0.6635 0.78535 0.0
C1478 C 0.74427 0.67978 0.76546 0.0
C1479 C 0.70929 0.65442 0.82012 0.0
C1480 C 0.73054 0.64944 0.84457 0.0
C1481 C 0.68176 0.64429 0.81883 0.0
C1482 C 0.65838 0.6484 0.79344 0.0
C1483 C 0.65549 0.64067 0.76616 0.0
C1484 C 0.6335 0.6448 0.74231 0.0
C1485 C 0.61417 0.65649 0.74549 0.0
C1486 C 0.61676 0.66403 0.77255 0.0
C1487 C 0.63872 0.65995 0.79647 0.0
H1488 H 0.59716 0.65967 0.72699 0.0
H1489 H 0.81124 0.61455 0.95472 0.0
H1490 H 0.62677 0.28974 0.19488 0.0
H1491 H 0.59104 0.31211 0.19035 0.0
H1492 H 0.58125 0.32762 0.10086 0.0
H1493 H 0.61541 0.30384 0.10486 0.0
H1494 H 0.59534 0.35931 0.18312 0.0
H1495 H 0.52607 0.34173 0.06102 0.0
H1496 H 0.49948 0.30386 0.0302 0.0
H1497 H 0.49939 0.25465 0.10436 0.0
H1498 H 0.52562 0.29228 0.13571 0.0
H1499 H 0.59369 0.46645 0.09878 0.0
H1500 H 0.59417 0.42804 0.1298 0.0
H1501 H 0.5057 0.40753 0.1007 0.0
H1502 H 0.50511 0.44574 0.06871 0.0
H1503 H 0.52003 0.36873 0.09343 0.0
H1504 H 0.54385 0.41403 0.17517 0.0
H1505 H 0.56406 0.44792 0.21197 0.0
H1506 H 0.64413 0.43641 0.22663 0.0
H1507 H 0.62457 0.40277 0.18961 0.0
C1508 C 0.61617 0.29696 0.17394 0.0
C1509 C 0.62421 0.29531 0.15025 0.0
C1510 C 0.59584 0.30994 0.17147 0.0
C1511 C 0.58328 0.32161 0.1453 0.0
C1512 C 0.59005 0.31839 0.12123 0.0
C1513 C 0.61006 0.30517 0.1236 0.0
C1514 C 0.56709 0.34094 0.14382 0.0
C1515 C 0.57857 0.36121 0.16374 0.0
C1516 C 0.54376 0.34263 0.11978 0.0
C1517 C 0.52785 0.31995 0.1008 0.0
C1518 C 0.52018 0.32292 0.07082 0.0
C1519 C 0.50522 0.30145 0.05323 0.0
C1520 C 0.49775 0.27687 0.06531 0.0
C1521 C 0.50523 0.27369 0.09502 0.0
C1522 C 0.52019 0.29509 0.11272 0.0
C1523 C 0.57434 0.45421 0.09945 0.0
C1524 C 0.54941 0.45892 0.08083 0.0
C1525 C 0.57457 0.43228 0.11757 0.0
C1526 C 0.54994 0.41474 0.11776 0.0
C1527 C 0.52498 0.42065 0.10092 0.0
C1528 C 0.52473 0.44254 0.08261 0.0
C1529 C 0.55078 0.38831 0.13086 0.0
C1530 C 0.53616 0.36656 0.11331 0.0
C1531 C 0.5703 0.38482 0.15779 0.0
C1532 C 0.58263 0.40575 0.17951 0.0
C1533 C 0.56581 0.41886 0.18602 0.0
C1534 C 0.57716 0.43802 0.20699 0.0
C1535 C 0.60535 0.4443 0.22164 0.0
C1536 C 0.62227 0.43148 0.2153 0.0
C1537 C 0.61104 0.4123 0.19436 0.0
H1538 H 0.61408 0.45909 0.23792 0.0
H1539 H 0.48617 0.26027 0.05164 0.0
H1540 H 0.98909 0.51238 0.39552 0.0
H1541 H 0.96209 0.47656 0.36224 0.0
H1542 H 0.91913 0.44213 0.42115 0.0
H1543 H 0.94694 0.47717 0.45484 0.0
H1544 H 0.92762 0.40497 0.3997 0.0
H1545 H 0.89148 0.47983 0.35878 0.0
H1546 H 0.89371 0.52507 0.34014 0.0
H1547 H 0.92327 0.50873 0.27564 0.0
H1548 H 0.92149 0.46346 0.29412 0.0
H1549 H 0.79905 0.35937 0.26521 0.0
H1550 H 0.8322 0.3936 0.2972 0.0
H1551 H 0.89312 0.34856 0.31763 0.0
H1552 H 0.85941 0.31363 0.28645 0.0
H1553 H 0.87761 0.42512 0.29877 0.0
H1554 H 0.93788 0.36154 0.3854 0.0
H1555 H 0.93092 0.31644 0.40483 0.0
H1556 H 0.84455 0.31061 0.38041 0.0
H1557 H 0.85106 0.35583 0.36131 0.0
C1558 C 0.97383 0.49715 0.40126 0.0
C1559 C 0.96989 0.49769 0.42761 0.0
C1560 C 0.95834 0.47669 0.38222 0.0
C1561 C 0.9381 0.45671 0.38884 0.0
C1562 C 0.93454 0.45717 0.41541 0.0
C1563 C 0.95033 0.47733 0.43462 0.0
C1564 C 0.92016 0.43564 0.36805 0.0
C1565 C 0.91678 0.40942 0.37761 0.0
C1566 C 0.90564 0.44122 0.33922 0.0
C1567 C 0.90661 0.46837 0.328 0.0
C1568 C 0.89861 0.48595 0.34073 0.0
C1569 C 0.89977 0.51158 0.33018 0.0
C1570 C 0.9087 0.51979 0.30677 0.0
C1571 C 0.9164 0.50235 0.2938 0.0
C1572 C 0.9153 0.47671 0.30429 0.0
C1573 C 0.81954 0.35678 0.27647 0.0
C1574 C 0.82663 0.3338 0.27339 0.0
C1575 C 0.83855 0.37644 0.29472 0.0
C1576 C 0.86521 0.37371 0.31018 0.0
C1577 C 0.87258 0.35102 0.30646 0.0
C1578 C 0.85337 0.33111 0.2885 0.0
C1579 C 0.88485 0.39449 0.33048 0.0
C1580 C 0.88862 0.42064 0.32081 0.0
C1581 C 0.89905 0.38888 0.35942 0.0
C1582 C 0.89495 0.36196 0.37164 0.0
C1583 C 0.91743 0.35068 0.38433 0.0
C1584 C 0.91356 0.3251 0.39527 0.0
C1585 C 0.88731 0.31065 0.39376 0.0
C1586 C 0.86487 0.32181 0.38149 0.0
C1587 C 0.86864 0.34742 0.37061 0.0
H1588 H 0.88438 0.29083 0.40216 0.0
H1589 H 0.90959 0.53964 0.29863 0.0
H1590 H 0.60642 0.61261 0.49318 0.0
H1591 H 0.63373 0.63781 0.46488 0.0
H1592 H 0.60444 0.57499 0.40594 0.0
H1593 H 0.57744 0.54909 0.43537 0.0
H1594 H 0.64481 0.59743 0.38899 0.0
H1595 H 0.59732 0.65754 0.4014 0.0
H1596 H 0.58146 0.68449 0.42657 0.0
H1597 H 0.66486 0.72036 0.47468 0.0
H1598 H 0.68119 0.69345 0.44993 0.0
H1599 H 0.74166 0.67861 0.31602 0.0
H1600 H 0.71538 0.65207 0.34497 0.0
H1601 H 0.68615 0.71787 0.35279 0.0
H1602 H 0.71351 0.74473 0.32458 0.0
H1603 H 0.67203 0.69373 0.39243 0.0
H1604 H 0.6951 0.59561 0.38605 0.0
H1605 H 0.70245 0.56962 0.35239 0.0
H1606 H 0.6564 0.61057 0.28125 0.0
H1607 H 0.64865 0.63666 0.3145 0.0
C1608 C 0.60513 0.60337 0.47423 0.0
C1609 C 0.58784 0.5771 0.46867 0.0
C1610 C 0.6214 0.61887 0.45673 0.0
C1611 C 0.62271 0.61077 0.43039 0.0
C1612 C 0.60564 0.58418 0.42487 0.0
C1613 C 0.5893 0.56849 0.44262 0.0
C1614 C 0.64116 0.62896 0.41019 0.0
C1615 C 0.65062 0.61849 0.39075 0.0
C1616 C 0.65006 0.65754 0.40875 0.0
C1617 C 0.64044 0.67327 0.42411 0.0
C1618 C 0.61225 0.67105 0.4175 0.0
C1619 C 0.60318 0.68634 0.43166 0.0
C1620 C 0.62214 0.70406 0.45228 0.0
C1621 C 0.65021 0.70656 0.45876 0.0
C1622 C 0.65938 0.69131 0.44469 0.0
C1623 C 0.72977 0.68817 0.32342 0.0
C1624 C 0.7315 0.71562 0.31588 0.0
C1625 C 0.71342 0.67197 0.34068 0.0
C1626 C 0.69585 0.68057 0.35269 0.0
C1627 C 0.69789 0.70818 0.34533 0.0
C1628 C 0.71441 0.72445 0.32822 0.0
C1629 C 0.67678 0.66217 0.3722 0.0
C1630 C 0.66691 0.67263 0.39127 0.0
C1631 C 0.66688 0.63365 0.3727 0.0
C1632 C 0.67162 0.61826 0.35274 0.0
C1633 C 0.68657 0.59904 0.36322 0.0
C1634 C 0.6908 0.58431 0.34423 0.0
C1635 C 0.67999 0.58852 0.31471 0.0
C1636 C 0.66484 0.6074 0.30411 0.0
C1637 C 0.66054 0.62217 0.32301 0.0
H1638 H 0.6833 0.5771 0.30004 0.0
H1639 H 0.61508 0.71591 0.46318 0.0
H1640 H 0.81822 0.33573 0.79302 0.0
H1641 H 0.85343 0.36754 0.82697 0.0
H1642 H 0.85367 0.3107 0.89565 0.0
H1643 H 0.81889 0.27854 0.86162 0.0
H1644 H 0.85248 0.3608 0.90911 0.0
H1645 H 0.90405 0.32138 0.87205 0.0
H1646 H 0.91715 0.3061 0.83499 0.0
H1647 H 0.93476 0.38459 0.80244 0.0
H1648 H 0.92135 0.40031 0.83907 0.0
H1649 H 0.97411 0.43212 0.01106 0.0
H1650 H 0.9401 0.39757 0.97967 0.0
H1651 H 0.94195 0.44767 0.90592 0.0
H1652 H 0.97612 0.48206 0.93714 0.0
H1653 H 0.9426 0.39908 0.89639 0.0
H1654 H 0.88957 0.43828 0.93275 0.0
H1655 H 0.87681 0.45341 0.97018 0.0
H1656 H 0.86186 0.37517 1.00413 0.0
H1657 H 0.87489 0.35963 0.9671 0.0
C1658 C 0.82593 0.32995 0.81531 0.0
C1659 C 0.81614 0.30458 0.82465 0.0
C1660 C 0.84597 0.34815 0.83467 0.0
C1661 C 0.8563 0.34136 0.86375 0.0
C1662 C 0.84598 0.31626 0.87328 0.0
C1663 C 0.82617 0.29794 0.85384 0.0
C1664 C 0.87802 0.36049 0.8841 0.0
C1665 C 0.87234 0.36892 0.90662 0.0
C1666 C 0.9037 0.37137 0.88046 0.0
C1667 C 0.91147 0.36199 0.85816 0.0
C1668 C 0.91046 0.33535 0.85682 0.0
C1669 C 0.91801 0.32662 0.83594 0.0
C1670 C 0.92684 0.34437 0.81643 0.0
C1671 C 0.92799 0.37088 0.81764 0.0
C1672 C 0.92042 0.37972 0.83845 0.0
C1673 C 0.96725 0.4357 0.98815 0.0
C1674 C 0.97763 0.45976 0.97652 0.0
C1675 C 0.94777 0.41601 0.97025 0.0
C1676 C 0.93824 0.42015 0.94045 0.0
C1677 C 0.94898 0.44405 0.92883 0.0
C1678 C 0.96844 0.46369 0.94669 0.0
C1679 C 0.91702 0.39967 0.92131 0.0
C1680 C 0.92278 0.39095 0.89897 0.0
C1681 C 0.8914 0.38856 0.92512 0.0
C1682 C 0.88348 0.39785 0.94734 0.0
C1683 C 0.88377 0.42434 0.94833 0.0
C1684 C 0.87645 0.43298 0.96945 0.0
C1685 C 0.86861 0.41528 0.98957 0.0
C1686 C 0.86799 0.38887 0.98856 0.0
C1687 C 0.87532 0.38013 0.9675 0.0
H1688 H 0.86295 0.422 1.0059 0.0
H1689 H 0.9328 0.33757 0.80037 0.0
H1690 H 0.84503 0.78803 0.18152 0.0
H1691 H 0.87168 0.81403 0.15255 0.0
H1692 H 0.86472 0.88434 0.18137 0.0
H1693 H 0.83733 0.85805 0.20994 0.0
H1694 H 0.87662 0.90615 0.13776 0.0
H1695 H 0.93061 0.84838 0.19057 0.0
H1696 H 0.945 0.80761 0.20936 0.0
H1697 H 0.92925 0.78449 0.12387 0.0
H1698 H 0.91355 0.82453 0.10445 0.0
H1699 H 0.97898 0.98901 0.06983 0.0
H1700 H 0.95213 0.96405 0.09964 0.0
H1701 H 0.94772 0.89278 0.06323 0.0
H1702 H 0.97417 0.91768 0.03341 0.0
H1703 H 0.94256 0.87249 0.11166 0.0
H1704 H 0.88784 0.93295 0.06041 0.0
H1705 H 0.87881 0.97649 0.04525 0.0
H1706 H 0.90315 0.99753 0.13318 0.0
H1707 H 0.91255 0.95418 0.14884 0.0
C1708 C 0.84882 0.80905 0.18238 0.0
C1709 C 0.83717 0.81909 0.20009 0.0
C1710 C 0.86529 0.8249 0.16508 0.0
C1711 C 0.873 0.85332 0.16303 0.0
C1712 C 0.86103 0.86333 0.18054 0.0
C1713 C 0.84449 0.84745 0.19786 0.0
C1714 C 0.89213 0.87157 0.14351 0.0
C1715 C 0.89097 0.89797 0.13276 0.0
C1716 C 0.91252 0.86403 0.13465 0.0
C1717 C 0.92044 0.83927 0.14602 0.0
C1718 C 0.92973 0.83438 0.17573 0.0
C1719 C 0.93806 0.81136 0.18649 0.0
C1720 C 0.93774 0.79332 0.16779 0.0
C1721 C 0.92906 0.79826 0.1383 0.0
C1722 C 0.92031 0.82106 0.12739 0.0
C1723 C 0.97258 0.96801 0.06748 0.0
C1724 C 0.98054 0.95702 0.0471 0.0
C1725 C 0.95612 0.95286 0.08532 0.0
C1726 C 0.94545 0.92454 0.08563 0.0
C1727 C 0.95393 0.91377 0.0656 0.0
C1728 C 0.96992 0.92886 0.04755 0.0
C1729 C 0.92667 0.90671 0.10561 0.0
C1730 C 0.92796 0.88044 0.11649 0.0
C1731 C 0.90687 0.91455 0.11507 0.0
C1732 C 0.90113 0.94046 0.10578 0.0
C1733 C 0.89137 0.94692 0.0765 0.0
C1734 C 0.88618 0.97155 0.06782 0.0
C1735 C 0.89048 0.98979 0.08824 0.0
C1736 C 0.89988 0.9834 0.11738 0.0
C1737 C 0.90512 0.9588 0.12618 0.0
H1738 H 0.88647 1.00885 0.08148 0.0
H1739 H 0.94438 0.77559 0.17616 0.0
H1740 H 0.80496 0.1834 0.82248 0.0
H1741 H 0.83295 0.15286 0.84885 0.0
H1742 H 0.89838 0.19515 0.81869 0.0
H1743 H 0.87044 0.22602 0.79254 0.0
H1744 H 0.89848 0.14381 0.81907 0.0
H1745 H 0.89803 0.19503 0.89328 0.0
H1746 H 0.87649 0.21356 0.92041 0.0
H1747 H 0.83516 0.13634 0.93902 0.0
H1748 H 0.85622 0.11737 0.91173 0.0
H1749 H 0.99698 0.07038 0.9102 0.0
H1750 H 0.96992 0.10092 0.88209 0.0
H1751 H 0.91657 0.07902 0.93262 0.0
H1752 H 0.94516 0.05037 0.96201 0.0
H1753 H 0.91002 0.12099 0.92081 0.0
H1754 H 0.90485 0.06834 0.84564 0.0
H1755 H 0.92175 0.04698 0.81607 0.0
H1756 H 0.96744 0.12159 0.79627 0.0
H1757 H 0.95098 0.14336 0.82593 0.0
C1758 C 0.82533 0.18657 0.8213 0.0
C1759 C 0.83464 0.20815 0.80469 0.0
C1760 C 0.84181 0.16871 0.83689 0.0
C1761 C 0.8689 0.17078 0.83694 0.0
C1762 C 0.87804 0.1921 0.81993 0.0
C1763 C 0.8617 0.21024 0.80467 0.0
C1764 C 0.88724 0.15121 0.85434 0.0
C1765 C 0.90105 0.13924 0.84145 0.0
C1766 C 0.89099 0.14345 0.88369 0.0
C1767 C 0.87852 0.1548 0.90027 0.0
C1768 C 0.88423 0.18202 0.90303 0.0
C1769 C 0.87212 0.1926 0.91846 0.0
C1770 C 0.85442 0.17614 0.93138 0.0
C1771 C 0.84885 0.14907 0.92898 0.0
C1772 C 0.86089 0.13839 0.91356 0.0
C1773 C 0.97909 0.0714 0.91504 0.0
C1774 C 0.97347 0.05633 0.93856 0.0
C1775 C 0.96296 0.08931 0.89842 0.0
C1776 C 0.93938 0.09308 0.90341 0.0
C1777 C 0.9339 0.07773 0.92693 0.0
C1778 C 0.95045 0.06049 0.94397 0.0
C1779 C 0.92126 0.11295 0.88558 0.0
C1780 C 0.90749 0.12519 0.89841 0.0
C1781 C 0.91691 0.12036 0.85591 0.0
C1782 C 0.92696 0.10742 0.83825 0.0
C1783 C 0.91862 0.08015 0.8351 0.0
C1784 C 0.9281 0.06798 0.81831 0.0
C1785 C 0.94573 0.08291 0.80438 0.0
C1786 C 0.95384 0.11005 0.80713 0.0
C1787 C 0.94444 0.12232 0.82391 0.0
H1788 H 0.95305 0.07345 0.7914 0.0
H1789 H 0.84506 0.18437 0.9433 0.0
H1790 H 0.74614 0.25667 0.65053 0.0
H1791 H 0.7104 0.22637 0.61524 0.0
H1792 H 0.70835 0.16712 0.68132 0.0
H1793 H 0.74451 0.1972 0.71663 0.0
H1794 H 0.71059 0.17846 0.59878 0.0
H1795 H 0.64082 0.13316 0.66712 0.0
H1796 H 0.62679 0.14645 0.70464 0.0
H1797 H 0.64464 0.22647 0.67655 0.0
H1798 H 0.65842 0.21364 0.6387 0.0
H1799 H 0.59448 0.05334 0.56844 0.0
H1800 H 0.6255 0.08884 0.59988 0.0
H1801 H 0.62216 0.14089 0.52672 0.0
H1802 H 0.59067 0.10522 0.49498 0.0
H1803 H 0.62063 0.13647 0.6103 0.0
H1804 H 0.6869 0.18209 0.54014 0.0
H1805 H 0.70054 0.16957 0.50192 0.0
H1806 H 0.68963 0.09021 0.53318 0.0
H1807 H 0.67629 0.10233 0.57177 0.0
C1808 C 0.73812 0.23715 0.65751 0.0
C1809 C 0.74791 0.22934 0.68635 0.0
C1810 C 0.71771 0.21989 0.63734 0.0
C1811 C 0.70651 0.19462 0.64571 0.0
C1812 C 0.71643 0.18669 0.67449 0.0
C1813 C 0.73706 0.20386 0.69463 0.0
C1814 C 0.68485 0.17633 0.62427 0.0
C1815 C 0.69075 0.16959 0.60104 0.0
C1816 C 0.65911 0.16456 0.62743 0.0
C1817 C 0.65091 0.17244 0.65024 0.0
C1818 C 0.64168 0.15357 0.66891 0.0
C1819 C 0.63375 0.16103 0.69023 0.0
C1820 C 0.6348 0.18728 0.69296 0.0
C1821 C 0.64386 0.20615 0.67445 0.0
C1822 C 0.6518 0.1988 0.65311 0.0
C1823 C 0.60002 0.07242 0.55904 0.0
C1824 C 0.59009 0.07656 0.52927 0.0
C1825 C 0.61779 0.0927 0.57706 0.0
C1826 C 0.62628 0.11747 0.56567 0.0
C1827 C 0.61607 0.12183 0.53593 0.0
C1828 C 0.59811 0.10149 0.51784 0.0
C1829 C 0.64654 0.13829 0.58507 0.0
C1830 C 0.6404 0.1455 0.60793 0.0
C1831 C 0.67203 0.15058 0.58153 0.0
C1832 C 0.68027 0.14308 0.55859 0.0
C1833 C 0.68747 0.16199 0.53887 0.0
C1834 C 0.69515 0.15496 0.51715 0.0
C1835 C 0.69585 0.12909 0.51506 0.0
C1836 C 0.68897 0.11021 0.53475 0.0
C1837 C 0.68131 0.11715 0.55652 0.0
H1838 H 0.70178 0.12369 0.49822 0.0
H1839 H 0.62857 0.19299 0.70941 0.0
H1840 H 0.55953 0.88712 0.39535 0.0
H1841 H 0.58661 0.85649 0.39554 0.0
H1842 H 0.63806 0.87782 0.48214 0.0
H1843 H 0.61041 0.90808 0.4822 0.0
H1844 H 0.66633 0.88721 0.44647 0.0
H1845 H 0.60618 0.81377 0.46874 0.0
H1846 H 0.56218 0.78404 0.46798 0.0
H1847 H 0.54349 0.76785 0.37956 0.0
H1848 H 0.58711 0.79791 0.37959 0.0
H1849 H 0.74494 0.83307 0.39103 0.0
H1850 H 0.72125 0.83359 0.42502 0.0
H1851 H 0.64481 0.82638 0.35499 0.0
H1852 H 0.66825 0.82549 0.32115 0.0
H1853 H 0.63684 0.80003 0.40245 0.0
H1854 H 0.68684 0.88654 0.37849 0.0
H1855 H 0.72906 0.91859 0.37726 0.0
H1856 H 0.7649 0.91088 0.46844 0.0
H1857 H 0.72295 0.87853 0.47011 0.0
C1858 C 0.57603 0.88452 0.41472 0.0
C1859 C 0.58313 0.89992 0.43865 0.0
C1860 C 0.59133 0.86687 0.41497 0.0
C1861 C 0.61416 0.86463 0.43903 0.0
C1862 C 0.62026 0.87894 0.46358 0.0
C1863 C 0.60457 0.89624 0.46354 0.0
C1864 C 0.63434 0.8518 0.43587 0.0
C1865 C 0.66027 0.86771 0.43791 0.0
C1866 C 0.62634 0.82648 0.4245 0.0
C1867 C 0.6 0.8082 0.4242 0.0
C1868 C 0.59261 0.80404 0.44906 0.0
C1869 C 0.56773 0.78709 0.44876 0.0
C1870 C 0.55005 0.77405 0.42373 0.0
C1871 C 0.55723 0.77793 0.39895 0.0
C1872 C 0.58208 0.7949 0.39912 0.0
C1873 C 0.72303 0.83135 0.38302 0.0
C1874 C 0.70844 0.8297 0.35348 0.0
C1875 C 0.70952 0.8314 0.40242 0.0
C1876 C 0.68135 0.83026 0.39247 0.0
C1877 C 0.66653 0.8271 0.36314 0.0
C1878 C 0.67996 0.82678 0.3438 0.0
C1879 C 0.66778 0.83616 0.41145 0.0
C1880 C 0.64327 0.81896 0.41237 0.0
C1881 C 0.67689 0.86042 0.42538 0.0
C1882 C 0.70199 0.87991 0.42438 0.0
C1883 C 0.70381 0.89158 0.39823 0.0
C1884 C 0.72767 0.9098 0.39746 0.0
C1885 C 0.74969 0.9167 0.42274 0.0
C1886 C 0.74786 0.90546 0.44887 0.0
C1887 C 0.72407 0.88718 0.44974 0.0
H1888 H 0.76814 0.93081 0.42211 0.0
H1889 H 0.53078 0.76093 0.42354 0.0
H1890 H 0.81338 0.13986 0.38541 0.0
H1891 H 0.82171 0.10134 0.41563 0.0
H1892 H 0.88843 0.15059 0.47905 0.0
H1893 H 0.88036 0.18898 0.449 0.0
H1894 H 0.86703 0.08503 0.42905 0.0
H1895 H 0.89927 0.12545 0.54432 0.0
H1896 H 0.88352 0.15235 0.56954 0.0
H1897 H 0.80258 0.13251 0.50775 0.0
H1898 H 0.81769 0.10515 0.48236 0.0
H1899 H 0.98535 0.07343 0.5391 0.0
H1900 H 0.94406 0.08849 0.53079 0.0
H1901 H 0.89438 1.01211 0.50104 0.0
H1902 H 0.93588 0.99684 0.50948 0.0
H1903 H 0.88981 0.07786 0.53459 0.0
H1904 H 0.85934 0.02206 0.43501 0.0
H1905 H 0.87857 0.99702 0.41131 0.0
H1906 H 0.95714 0.05104 0.44179 0.0
H1907 H 0.9382 0.07653 0.46525 0.0
C1908 C 0.82971 0.14246 0.4059 0.0
C1909 C 0.8464 0.16743 0.41473 0.0
C1910 C 0.83424 0.12048 0.42324 0.0
C1911 C 0.85541 0.12311 0.44977 0.0
C1912 C 0.87148 0.14812 0.45902 0.0
C1913 C 0.86697 0.17007 0.44173 0.0
C1914 C 0.86355 0.0998 0.46599 0.0
C1915 C 0.87092 0.08282 0.45194 0.0
C1916 C 0.86897 0.09705 0.49593 0.0
C1917 C 0.85967 0.11324 0.51138 0.0
C1918 C 0.87805 0.12662 0.53622 0.0
C1919 C 0.86924 0.14202 0.55052 0.0
C1920 C 0.84208 0.14416 0.54024 0.0
C1921 C 0.82364 0.13088 0.51565 0.0
C1922 C 0.83233 0.11546 0.50127 0.0
C1923 C 0.96565 0.05951 0.5321 0.0
C1924 C 0.96361 0.03427 0.52411 0.0
C1925 C 0.94205 0.06805 0.52765 0.0
C1926 C 0.91623 0.05156 0.51468 0.0
C1927 C 0.91419 0.02512 0.51093 0.0
C1928 C 0.93791 0.01645 0.51568 0.0
C1929 C 0.89387 0.06403 0.49765 0.0
C1930 C 0.88424 0.07916 0.51146 0.0
C1931 C 0.88636 0.06528 0.46744 0.0
C1932 C 0.8974 0.05103 0.45193 0.0
C1933 C 0.88063 0.02867 0.43639 0.0
C1934 C 0.89149 1.0144 0.42306 0.0
C1935 C 0.91907 0.02241 0.42508 0.0
C1936 C 0.93578 0.04486 0.44021 0.0
C1937 C 0.92499 0.05925 0.45346 0.0
H1938 H 0.92747 1.01124 0.41492 0.0
H1939 H 0.83531 0.1561 0.55134 0.0
H1940 H 0.76337 0.17387 0.24413 0.0
H1941 H 0.72953 0.13989 0.21233 0.0
H1942 H 0.66679 0.18081 0.20194 0.0
H1943 H 0.70106 0.21524 0.23367 0.0
H1944 H 0.68593 0.10626 0.21508 0.0
H1945 H 0.61759 0.16737 0.13559 0.0
H1946 H 0.61999 0.21238 0.11605 0.0
H1947 H 0.70603 0.22363 0.13137 0.0
H1948 H 0.70411 0.17866 0.15083 0.0
H1949 H 0.57477 0.01756 0.1185 0.0
H1950 H 0.60005 0.05352 0.15212 0.0
H1951 H 0.64336 0.09052 0.09433 0.0
H1952 H 0.61779 0.05496 0.06059 0.0
H1953 H 0.62985 0.12638 0.11647 0.0
H1954 H 0.67241 0.05393 0.15347 0.0
H1955 H 0.67286 1.00866 0.17085 0.0
H1956 H 0.64406 0.02032 0.23786 0.0
H1957 H 0.64315 0.06559 0.22065 0.0
C1958 C 0.74234 0.17559 0.23516 0.0
C1959 C 0.73485 0.19733 0.24107 0.0
C1960 C 0.72296 0.15611 0.21697 0.0
C1961 C 0.69556 0.15778 0.2044 0.0
C1962 C 0.68787 0.17924 0.21087 0.0
C1963 C 0.7074 0.19891 0.22895 0.0
C1964 C 0.67545 0.13699 0.18451 0.0
C1965 C 0.67356 0.11075 0.19359 0.0
C1966 C 0.65922 0.14263 0.15637 0.0
C1967 C 0.66072 0.16974 0.14488 0.0
C1968 C 0.637 0.17945 0.13474 0.0
C1969 C 0.63828 0.20494 0.12367 0.0
C1970 C 0.66312 0.22081 0.1224 0.0
C1971 C 0.68679 0.21129 0.13235 0.0
C1972 C 0.68564 0.18583 0.14347 0.0
C1973 C 0.58973 0.03338 0.11307 0.0
C1974 C 0.59446 0.03343 0.08704 0.0
C1975 C 0.60414 0.05394 0.13224 0.0
C1976 C 0.62384 0.07469 0.12592 0.0
C1977 C 0.62823 0.07484 0.0997 0.0
C1978 C 0.6137 0.05444 0.08048 0.0
C1979 C 0.6408 0.09575 0.14693 0.0
C1980 C 0.64197 0.12198 0.1381 0.0
C1981 C 0.65676 0.09014 0.17515 0.0
C1982 C 0.65745 0.06301 0.1856 0.0
C1983 C 0.66601 0.04677 0.1718 0.0
C1984 C 0.66637 0.02113 0.18163 0.0
C1985 C 0.65842 1.0116 0.2054 0.0
C1986 C 0.65017 0.02771 0.21943 0.0
C1987 C 0.64974 0.05336 0.20966 0.0
H1988 H 0.65871 0.99174 0.21298 0.0
H1989 H 0.66404 0.2405 0.11375 0.0
H1990 H 0.68464 0.83638 0.82673 0.0
H1991 H 0.64926 0.8482 0.83969 0.0
H1992 H 0.62758 0.77026 0.87321 0.0
H1993 H 0.66301 0.75824 0.8602 0.0
H1994 H 0.5819 0.79039 0.84595 0.0
H1995 H 0.66991 0.81593 0.91802 0.0
H1996 H 0.71928 0.83674 0.93712 0.0
H1997 H 0.70299 0.91166 0.90681 0.0
H1998 H 0.65353 0.89122 0.8871 0.0
H1999 H 0.53218 0.82877 0.94985 0.0
H2000 H 0.55058 0.80975 0.92035 0.0
H2001 H 0.57622 0.88612 0.88545 0.0
H2002 H 0.55947 0.90541 0.91565 0.0
H2003 H 0.61833 0.86427 0.91316 0.0
H2004 H 0.52976 0.83731 0.83814 0.0
H2005 H 0.48064 0.81528 0.81887 0.0
H2006 H 0.49818 0.74287 0.85793 0.0
H2007 H 0.5473 0.76453 0.87752 0.0
C2008 C 0.67227 0.82173 0.83676 0.0
C2009 C 0.67687 0.79653 0.84291 0.0
C2010 C 0.65197 0.82845 0.84397 0.0
C2011 C 0.63613 0.8102 0.85779 0.0
C2012 C 0.63962 0.7846 0.86256 0.0
C2013 C 0.65988 0.7778 0.85519 0.0
C2014 C 0.61791 0.8187 0.86958 0.0
C2015 C 0.58983 0.80642 0.86081 0.0
C2016 C 0.6283 0.83961 0.88892 0.0
C2017 C 0.65804 0.85199 0.90082 0.0
C2018 C 0.67688 0.83681 0.91521 0.0
C2019 C 0.70487 0.84854 0.92618 0.0
C2020 C 0.71427 0.8755 0.92311 0.0
C2021 C 0.69568 0.89078 0.90913 0.0
C2022 C 0.66767 0.87913 0.89806 0.0
C2023 C 0.54142 0.84147 0.93561 0.0
C2024 C 0.54478 0.86871 0.93564 0.0
C2025 C 0.55154 0.83049 0.91843 0.0
C2026 C 0.56487 0.84657 0.90082 0.0
C2027 C 0.56598 0.87338 0.8989 0.0
C2028 C 0.55617 0.88436 0.91617 0.0
C2029 C 0.58207 0.83668 0.88879 0.0
C2030 C 0.61022 0.84846 0.89799 0.0
C2031 C 0.57172 0.81527 0.87015 0.0
C2032 C 0.54212 0.80249 0.85926 0.0
C2033 C 0.52307 0.81672 0.84271 0.0
C2034 C 0.49525 0.80427 0.83163 0.0
C2035 C 0.48626 0.77767 0.83718 0.0
C2036 C 0.5051 0.76346 0.8537 0.0
C2037 C 0.53293 0.77577 0.86468 0.0
H2038 H 0.46471 0.76809 0.82872 0.0
H2039 H 0.73596 0.88455 0.93163 0.0
H2040 H 0.96036 0.86548 0.60382 0.0
H2041 H 0.93777 0.84821 0.63917 0.0
H2042 H 0.99281 0.9092 0.69729 0.0
H2043 H 1.01533 0.92672 0.66184 0.0
H2044 H 0.95132 0.83053 0.6941 0.0
H2045 H 0.95499 0.93205 0.72744 0.0
H2046 H 0.96116 0.97758 0.70915 0.0
H2047 H 0.92673 0.95026 0.62274 0.0
H2048 H 0.91999 0.90462 0.64053 0.0
H2049 H 0.87659 0.80456 0.79016 0.0
H2050 H 0.91505 0.82679 0.77364 0.0
H2051 H 0.85945 0.85956 0.70182 0.0
H2052 H 0.82162 0.83896 0.71966 0.0
H2053 H 0.90685 0.89242 0.71751 0.0
H2054 H 0.87541 0.79837 0.70851 0.0
H2055 H 0.86943 0.75442 0.7302 0.0
H2056 H 0.95626 0.76234 0.76054 0.0
H2057 H 0.96324 0.80809 0.74329 0.0
C2058 C 0.96806 0.87481 0.6244 0.0
C2059 C 0.98932 0.89761 0.63 0.0
C2060 C 0.95515 0.86494 0.64457 0.0
C2061 C 0.96333 0.87772 0.6706 0.0
C2062 C 0.9859 0.89935 0.67709 0.0
C2063 C 0.99869 0.90933 0.65686 0.0
C2064 C 0.9465 0.86991 0.6895 0.0
C2065 C 0.94175 0.84401 0.69955 0.0
C2066 C 0.93399 0.88762 0.69633 0.0
C2067 C 0.9373 0.91497 0.68534 0.0
C2068 C 0.94864 0.93579 0.70455 0.0
C2069 C 0.95224 0.9616 0.69427 0.0
C2070 C 0.94443 0.9668 0.66481 0.0
C2071 C 0.93285 0.9462 0.64556 0.0
C2072 C 0.92915 0.92037 0.65573 0.0
C2073 C 0.87296 0.81724 0.77138 0.0
C2074 C 0.84644 0.82021 0.75601 0.0
C2075 C 0.89482 0.82982 0.76191 0.0
C2076 C 0.89001 0.84425 0.73607 0.0
C2077 C 0.86367 0.84843 0.72174 0.0
C2078 C 0.84206 0.83665 0.73182 0.0
C2079 C 0.91123 0.85276 0.72208 0.0
C2080 C 0.91681 0.87889 0.71277 0.0
C2081 C 0.92423 0.83504 0.71571 0.0
C2082 C 0.91986 0.80709 0.72512 0.0
C2083 C 0.89334 0.79109 0.72035 0.0
C2084 C 0.88974 0.76581 0.73197 0.0
C2085 C 0.91231 0.75533 0.74613 0.0
C2086 C 0.93873 0.77047 0.74958 0.0
C2087 C 0.94256 0.79635 0.73949 0.0
H2088 H 0.90923 0.7355 0.75443 0.0
H2089 H 0.94729 0.98679 0.65689 0.0
H2090 H 0.21389 0.82658 0.75423 0.0
H2091 H 0.18924 0.8482 0.77459 0.0
H2092 H 0.22353 0.81375 0.85692 0.0
H2093 H 0.24842 0.79252 0.83661 0.0
H2094 H 0.21876 0.85468 0.87267 0.0
H2095 H 0.1348 0.8754 0.76895 0.0
H2096 H 0.10691 0.85595 0.72176 0.0
H2097 H 0.11836 0.78028 0.75558 0.0
H2098 H 0.14612 0.79926 0.803 0.0
H2099 H 0.15246 0.93905 0.91764 0.0
H2100 H 0.17634 0.91815 0.89635 0.0
H2101 H 0.10072 0.86391 0.85397 0.0
H2102 H 0.07646 0.88514 0.87493 0.0
H2103 H 0.12505 0.86507 0.81909 0.0
H2104 H 0.16703 0.85248 0.91929 0.0
H2105 H 0.19133 0.86455 0.9699 0.0
H2106 H 0.25908 0.91351 0.94774 0.0
H2107 H 0.23505 0.90194 0.89693 0.0
C2108 C 0.21635 0.82326 0.77672 0.0
C2109 C 0.23395 0.80688 0.79298 0.0
C2110 C 0.20161 0.83584 0.78875 0.0
C2111 C 0.20299 0.83321 0.81818 0.0
C2112 C 0.22091 0.81708 0.8344 0.0
C2113 C 0.23553 0.80444 0.82237 0.0
C2114 C 0.18666 0.84698 0.83192 0.0
C2115 C 0.19835 0.85693 0.86033 0.0
C2116 C 0.15917 0.8503 0.81785 0.0
C2117 C 0.1428 0.83882 0.7894 0.0
C2118 C 0.13135 0.85462 0.76629 0.0
C2119 C 0.11558 0.84368 0.73951 0.0
C2120 C 0.11095 0.81691 0.73565 0.0
C2121 C 0.12206 0.80103 0.75857 0.0
C2122 C 0.13785 0.81187 0.78538 0.0
C2123 C 0.14029 0.92256 0.90411 0.0
C2124 C 0.11139 0.91467 0.89922 0.0
C2125 C 0.1546 0.90999 0.89159 0.0
C2126 C 0.14161 0.88801 0.87308 0.0
C2127 C 0.11267 0.88033 0.86777 0.0
C2128 C 0.0983 0.89295 0.88026 0.0
C2129 C 0.15756 0.87365 0.85945 0.0
C2130 C 0.14568 0.8633 0.8312 0.0
C2131 C 0.18467 0.86947 0.87388 0.0
C2132 C 0.19912 0.87657 0.90429 0.0
C2133 C 0.18704 0.86595 0.9252 0.0
C2134 C 0.20077 0.87268 0.95391 0.0
C2135 C 0.22669 0.88985 0.96201 0.0
C2136 C 0.23897 0.90026 0.94142 0.0
C2137 C 0.22532 0.89361 0.91267 0.0
H2138 H 0.2373 0.89503 0.98425 0.0
H2139 H 0.09871 0.80848 0.71492 0.0
H2140 H 0.98397 0.56087 0.56176 0.0
H2141 H 0.95747 0.55681 0.59389 0.0
H2142 H 0.90719 0.48321 0.55566 0.0
H2143 H 0.93312 0.48753 0.52326 0.0
H2144 H 0.87719 0.50899 0.57168 0.0
H2145 H 0.97076 0.48743 0.61773 0.0
H2146 H 1.02094 0.50424 0.63113 0.0
H2147 H 1.01699 0.56831 0.67429 0.0
H2148 H 0.96675 0.55191 0.66091 0.0
H2149 H 0.85147 0.39638 0.64639 0.0
H2150 H 0.8644 0.43545 0.61945 0.0
H2151 H 0.9037 0.47917 0.69765 0.0
H2152 H 0.89163 0.43929 0.72502 0.0
H2153 H 0.93609 0.48982 0.66932 0.0
H2154 H 0.84408 0.49324 0.64211 0.0
H2155 H 0.79388 0.47676 0.62738 0.0
H2156 H 0.79257 0.45106 0.54796 0.0
H2157 H 0.84272 0.46699 0.56228 0.0
C2158 C 0.96665 0.54432 0.5596 0.0
C2159 C 0.96071 0.52439 0.54023 0.0
C2160 C 0.95156 0.54197 0.57804 0.0
C2161 C 0.93044 0.51959 0.57737 0.0
C2162 C 0.92329 0.50071 0.55653 0.0
C2163 C 0.93833 0.50303 0.5382 0.0
C2164 C 0.91846 0.51307 0.60063 0.0
C2165 C 0.88988 0.50508 0.59323 0.0
C2166 C 0.93503 0.50945 0.62915 0.0
C2167 C 0.9652 0.51842 0.63849 0.0
C2168 C 0.9807 0.50498 0.63027 0.0
C2169 C 1.00908 0.51449 0.63773 0.0
C2170 C 1.02213 0.53733 0.65355 0.0
C2171 C 1.00684 0.55062 0.66206 0.0
C2172 C 0.97844 0.54121 0.6546 0.0
C2173 C 0.86235 0.41444 0.6578 0.0
C2174 C 0.87043 0.41487 0.68774 0.0
C2175 C 0.86955 0.43692 0.64234 0.0
C2176 C 0.88441 0.46062 0.65634 0.0
C2177 C 0.892 0.46124 0.6863 0.0
C2178 C 0.88518 0.4385 0.70191 0.0
C2179 C 0.89463 0.48341 0.63964 0.0
C2180 C 0.92294 0.49469 0.64839 0.0
C2181 C 0.87764 0.49045 0.61249 0.0
C2182 C 0.84727 0.48141 0.60331 0.0
C2183 C 0.83311 0.48405 0.62151 0.0
C2184 C 0.80465 0.47478 0.61324 0.0
C2185 C 0.79008 0.46286 0.58677 0.0
C2186 C 0.80389 0.46034 0.56843 0.0
C2187 C 0.83234 0.46958 0.57658 0.0
H2188 H 0.76809 0.45549 0.58047 0.0
H2189 H 0.04409 0.54471 0.65923 0.0
H2190 H 0.48574 0.06536 0.41188 0.0
H2191 H 0.45723 0.09444 0.38328 0.0
H2192 H 0.44516 0.1138 0.4588 0.0
H2193 H 0.4736 0.08422 0.48756 0.0
H2194 H 0.39863 0.1136 0.41817 0.0
H2195 H 0.48878 0.15744 0.4179 0.0
H2196 H 0.53289 0.16234 0.41035 0.0
H2197 H 0.49059 0.1449 0.32136 0.0
H2198 H 0.44619 0.13958 0.32846 0.0
H2199 H 0.33564 0.22014 0.34868 0.0
H2200 H 0.36435 0.19163 0.37851 0.0
H2201 H 0.38319 0.17606 0.30563 0.0
H2202 H 0.35517 0.2054 0.27603 0.0
H2203 H 0.42653 0.17443 0.34558 0.0
H2204 H 0.33659 0.12965 0.34515 0.0
H2205 H 0.29201 0.12402 0.35192 0.0
H2206 H 0.33297 0.14201 0.44095 0.0
H2207 H 0.37782 0.14807 0.43463 0.0
C2208 C 0.47729 0.07578 0.4228 0.0
C2209 C 0.48286 0.07181 0.45281 0.0
C2210 C 0.46073 0.09297 0.40606 0.0
C2211 C 0.44854 0.10766 0.41803 0.0
C2212 C 0.45377 0.10343 0.44802 0.0
C2213 C 0.47047 0.08623 0.46485 0.0
C2214 C 0.43054 0.12682 0.39956 0.0
C2215 C 0.40525 0.12706 0.40267 0.0
C2216 C 0.43755 0.14467 0.37812 0.0
C2217 C 0.46417 0.14786 0.37378 0.0
C2218 C 0.48889 0.15448 0.39676 0.0
C2219 C 0.51394 0.15736 0.39256 0.0
C2220 C 0.51454 0.15386 0.36541 0.0
C2221 C 0.49009 0.14756 0.34239 0.0
C2222 C 0.46498 0.14463 0.34648 0.0
C2223 C 0.34571 0.2107 0.33868 0.0
C2224 C 0.34226 0.21573 0.30917 0.0
C2225 C 0.36233 0.19376 0.35608 0.0
C2226 C 0.37642 0.18019 0.34518 0.0
C2227 C 0.37315 0.18549 0.31568 0.0
C2228 C 0.35667 0.20259 0.29832 0.0
C2229 C 0.39449 0.16121 0.36406 0.0
C2230 C 0.41983 0.16098 0.36104 0.0
C2231 C 0.38742 0.14325 0.38544 0.0
C2232 C 0.36055 0.13958 0.38934 0.0
C2233 C 0.33609 0.13256 0.36613 0.0
C2234 C 0.31077 0.12928 0.36989 0.0
C2235 C 0.30966 0.13273 0.39683 0.0
C2236 C 0.33386 0.1394 0.42008 0.0
C2237 C 0.35923 0.14274 0.41643 0.0
H2238 H 0.29005 0.13018 0.3997 0.0
H2239 H 0.53396 0.1561 0.36219 0.0
H2240 H 0.60259 0.55153 0.0739 0.0
H2241 H 0.63533 0.58789 0.1033 0.0
H2242 H 0.58055 0.63818 0.06257 0.0
H2243 H 0.54833 0.60217 0.03234 0.0
H2244 H 0.63053 0.66423 0.06928 0.0
H2245 H 0.58537 0.60907 0.13 0.0
H2246 H 0.56984 0.5678 0.15384 0.0
H2247 H 0.65333 0.56336 0.19657 0.0
H2248 H 0.66935 0.60444 0.17266 0.0
H2249 H 0.68856 0.7314 0.21861 0.0
H2250 H 0.65717 0.69753 0.18494 0.0
H2251 H 0.7138 0.71069 0.13809 0.0
H2252 H 0.74447 0.74577 0.17094 0.0
H2253 H 0.66303 0.65295 0.17494 0.0
H2254 H 0.67943 0.69424 0.06858 0.0
H2255 H 0.69093 0.73688 0.04501 0.0
H2256 H 0.65754 0.77185 0.09433 0.0
H2257 H 0.64554 0.72937 0.11792 0.0
C2258 C 0.59767 0.57041 0.07109 0.0
C2259 C 0.57291 0.57406 0.05095 0.0
C2260 C 0.61631 0.59114 0.08801 0.0
C2261 C 0.61024 0.61571 0.08548 0.0
C2262 C 0.5857 0.61943 0.06494 0.0
C2263 C 0.56724 0.59882 0.04778 0.0
C2264 C 0.62905 0.63739 0.10464 0.0
C2265 C 0.63769 0.66174 0.09239 0.0
C2266 C 0.63812 0.63432 0.13483 0.0
C2267 C 0.62854 0.60968 0.14931 0.0
C2268 C 0.6004 0.59919 0.14432 0.0
C2269 C 0.59152 0.57585 0.15787 0.0
C2270 C 0.61058 0.56293 0.17664 0.0
C2271 C 0.63859 0.57337 0.18198 0.0
C2272 C 0.64758 0.59668 0.16845 0.0
C2273 C 0.6941 0.7273 0.20088 0.0
C2274 C 0.71912 0.74078 0.19756 0.0
C2275 C 0.67626 0.7078 0.18178 0.0
C2276 C 0.68308 0.70145 0.15898 0.0
C2277 C 0.7079 0.71534 0.15533 0.0
C2278 C 0.72559 0.7351 0.17428 0.0
C2279 C 0.66445 0.67985 0.13961 0.0
C2280 C 0.65597 0.65545 0.15183 0.0
C2281 C 0.65498 0.68308 0.10945 0.0
C2282 C 0.66186 0.70868 0.09521 0.0
C2283 C 0.67447 0.71102 0.07432 0.0
C2284 C 0.68109 0.73516 0.06097 0.0
C2285 C 0.67505 0.75708 0.06824 0.0
C2286 C 0.6623 0.75488 0.0888 0.0
C2287 C 0.65562 0.73078 0.1022 0.0
H2288 H 0.6802 0.77576 0.05789 0.0
H2289 H 0.60366 0.54486 0.18711 0.0
H2290 H 0.20224 0.26364 0.66597 0.0
H2291 H 0.16616 0.22996 0.63466 0.0
H2292 H 0.20688 0.17073 0.68227 0.0
H2293 H 0.24132 0.20371 0.71449 0.0
H2294 H 0.16113 0.19517 0.59921 0.0
H2295 H 0.16511 0.1164 0.69111 0.0
H2296 H 0.17528 0.11505 0.7434 0.0
H2297 H 0.15433 0.18862 0.73866 0.0
H2298 H 0.14359 0.19022 0.68629 0.0
H2299 H 0.104 0.07019 0.54055 0.0
H2300 H 0.13167 0.11031 0.56597 0.0
H2301 H 0.07547 0.10225 0.61266 0.0
H2302 H 0.04893 0.06096 0.58862 0.0
H2303 H 0.12143 0.11625 0.64744 0.0
H2304 H 0.08053 0.14978 0.55562 0.0
H2305 H 0.06567 0.155 0.50306 0.0
H2306 H 0.14956 0.17722 0.50631 0.0
H2307 H 0.16497 0.1717 0.55887 0.0
C2308 C 0.20344 0.24341 0.66952 0.0
C2309 C 0.22445 0.23622 0.69271 0.0
C2310 C 0.18289 0.22421 0.65164 0.0
C2311 C 0.18337 0.19768 0.65657 0.0
C2312 C 0.20548 0.1909 0.67856 0.0
C2313 C 0.22541 0.20985 0.69679 0.0
C2314 C 0.16056 0.17673 0.63967 0.0
C2315 C 0.15228 0.17795 0.60966 0.0
C2316 C 0.14812 0.15473 0.65329 0.0
C2317 C 0.15369 0.15348 0.68474 0.0
C2318 C 0.16244 0.13218 0.70117 0.0
C2319 C 0.16836 0.1314 0.73085 0.0
C2320 C 0.16551 0.15177 0.74435 0.0
C2321 C 0.15659 0.17289 0.72818 0.0
C2322 C 0.15058 0.17374 0.6985 0.0
C2323 C 0.09763 0.07704 0.55628 0.0
C2324 C 0.07451 0.06253 0.56284 0.0
C2325 C 0.11326 0.10017 0.57058 0.0
C2326 C 0.10545 0.1098 0.5909 0.0
C2327 C 0.08204 0.09533 0.59714 0.0
C2328 C 0.06687 0.07175 0.58344 0.0
C2329 C 0.12261 0.13408 0.60679 0.0
C2330 C 0.12984 0.13353 0.63674 0.0
C2331 C 0.13307 0.15712 0.59297 0.0
C2332 C 0.12392 0.16023 0.56126 0.0
C2333 C 0.09583 0.1556 0.54514 0.0
C2334 C 0.0873 0.15864 0.51534 0.0
C2335 C 0.10667 0.16653 0.50139 0.0
C2336 C 0.13459 0.1712 0.51718 0.0
C2337 C 0.14324 0.16814 0.54698 0.0
H2338 H 0.10004 0.16906 0.47836 0.0
H2339 H 0.17018 0.15116 0.76733 0.0
H2340 H 0.70503 0.3169 0.25421 0.0
H2341 H 0.68129 0.33921 0.27493 0.0
H2342 H 0.73079 0.32013 0.35936 0.0
H2343 H 0.75559 0.29959 0.33855 0.0
H2344 H 0.64971 0.34071 0.29794 0.0
H2345 H 0.7231 0.34619 0.41545 0.0
H2346 H 0.77254 0.35262 0.44237 0.0
H2347 H 0.79155 0.3911 0.36917 0.0
H2348 H 0.74224 0.38515 0.34194 0.0
H2349 H 0.5751 0.38484 0.37512 0.0
H2350 H 0.59901 0.36338 0.35424 0.0
H2351 H 0.6748 0.41813 0.39507 0.0
H2352 H 0.65108 0.43934 0.41649 0.0
H2353 H 0.69417 0.3825 0.39251 0.0
H2354 H 0.62895 0.40783 0.30994 0.0
H2355 H 0.58454 0.41258 0.27513 0.0
H2356 H 0.55589 0.32915 0.26917 0.0
H2357 H 0.60015 0.32392 0.30403 0.0
C2358 C 0.71138 0.31758 0.2773 0.0
C2359 C 0.73334 0.30591 0.29395 0.0
C2360 C 0.69726 0.33066 0.28961 0.0
C2361 C 0.70351 0.33314 0.31978 0.0
C2362 C 0.72503 0.32072 0.33632 0.0
C2363 C 0.7395 0.30813 0.32402 0.0
C2364 C 0.68767 0.34786 0.33332 0.0
C2365 C 0.65991 0.34944 0.31885 0.0
C2366 C 0.69942 0.36121 0.36033 0.0
C2367 C 0.72901 0.36492 0.37658 0.0
C2368 C 0.73784 0.35606 0.40514 0.0
C2369 C 0.76583 0.35962 0.42044 0.0
C2370 C 0.78516 0.37217 0.40745 0.0
C2371 C 0.77655 0.3813 0.37917 0.0
C2372 C 0.7486 0.37784 0.3638 0.0
C2373 C 0.59684 0.39291 0.37988 0.0
C2374 C 0.60999 0.41489 0.39845 0.0
C2375 C 0.61105 0.38025 0.36724 0.0
C2376 C 0.63984 0.38841 0.37156 0.0
C2377 C 0.65301 0.41021 0.39028 0.0
C2378 C 0.63885 0.42283 0.403 0.0
C2379 C 0.65593 0.37449 0.35759 0.0
C2380 C 0.68382 0.37328 0.37186 0.0
C2381 C 0.64471 0.36259 0.32979 0.0
C2382 C 0.61769 0.36548 0.3099 0.0
C2383 C 0.61306 0.3905 0.30145 0.0
C2384 C 0.58796 0.39328 0.28163 0.0
C2385 C 0.56737 0.37118 0.27004 0.0
C2386 C 0.57184 0.34625 0.27823 0.0
C2387 C 0.59693 0.34336 0.29799 0.0
H2388 H 0.54798 0.37338 0.25465 0.0
H2389 H 0.80681 0.37486 0.41932 0.0
H2390 H 0.48614 0.04441 0.04535 0.0
H2391 H 0.45271 0.04361 0.06927 0.0
H2392 H 0.45376 0.96385 0.0963 0.0
H2393 H 0.48603 0.964 0.07199 0.0
H2394 H 0.39638 0.98887 0.06563 0.0
H2395 H 0.48571 0.98847 0.17244 0.0
H2396 H 0.53409 1.01243 0.19224 0.0
H2397 H 0.51627 0.0791 0.13907 0.0
H2398 H 0.46764 0.05595 0.11985 0.0
H2399 H 0.37924 0.8877 0.15516 0.0
H2400 H 0.39183 0.9249 0.12551 0.0
H2401 H 0.39189 0.97758 0.18592 0.0
H2402 H 0.37926 0.93987 0.21609 0.0
H2403 H 0.43861 0.99192 0.17142 0.0
H2404 H 0.34522 0.97716 0.12061 0.0
H2405 H 0.29747 0.95263 0.09833 0.0
H2406 H 0.32092 0.92008 0.03807 0.0
H2407 H 0.36888 0.94401 0.06024 0.0
C2408 C 0.47909 0.02668 0.05631 0.0
C2409 C 0.48869 1.00423 0.05683 0.0
C2410 C 0.46005 0.02632 0.06986 0.0
C2411 C 0.45106 1.00376 0.08459 0.0
C2412 C 0.46051 0.98142 0.08493 0.0
C2413 C 0.47899 0.98157 0.07107 0.0
C2414 C 0.43279 1.00272 0.10117 0.0
C2415 C 0.40512 0.99025 0.08874 0.0
C2416 C 0.44417 1.00569 0.13113 0.0
C2417 C 0.47302 0.02034 0.14449 0.0
C2418 C 0.49201 1.00836 0.16527 0.0
C2419 C 0.51951 0.02181 0.17638 0.0
C2420 C 0.52829 0.04722 0.16682 0.0
C2421 C 0.50952 0.05935 0.14633 0.0
C2422 C 0.48197 0.04611 0.13542 0.0
C2423 C 0.38174 0.90718 0.16206 0.0
C2424 C 0.37852 0.91096 0.18798 0.0
C2425 C 0.38861 0.92845 0.14494 0.0
C2426 C 0.39238 0.95404 0.15326 0.0
C2427 C 0.38879 0.95798 0.17898 0.0
C2428 C 0.38158 0.9365 0.19611 0.0
C2429 C 0.40263 0.97609 0.13591 0.0
C2430 C 0.42895 0.99206 0.14834 0.0
C2431 C 0.38965 0.97703 0.10586 0.0
C2432 C 0.36074 0.96257 0.09208 0.0
C2433 C 0.34025 0.96471 0.10267 0.0
C2434 C 0.31312 0.95088 0.09005 0.0
C2435 C 0.30616 0.93484 0.06677 0.0
C2436 C 0.32633 0.93259 0.05605 0.0
C2437 C 0.3535 0.94636 0.0686 0.0
H2438 H 0.28515 0.92414 0.05704 0.0
H2439 H 0.5496 0.05752 0.17533 0.0
H2440 H 0.98003 0.58802 0.98245 0.0
H2441 H 0.95104 0.61672 0.95354 0.0
H2442 H 0.95417 0.58926 0.87682 0.0
H2443 H 0.984 0.56127 0.90588 0.0
H2444 H 0.95195 0.63525 0.86332 0.0
H2445 H 0.89557 0.57479 0.90897 0.0
H2446 H 0.87946 0.55133 0.94754 0.0
H2447 H 0.87725 0.62383 0.97666 0.0
H2448 H 0.89491 0.64784 0.93953 0.0
H2449 H 0.84645 0.69658 0.76742 0.0
H2450 H 0.87478 0.66731 0.79568 0.0
H2451 H 0.86961 0.69194 0.87279 0.0
H2452 H 0.83972 0.72008 0.84409 0.0
H2453 H 0.87247 0.64676 0.88528 0.0
H2454 H 0.93512 0.70716 0.84358 0.0
H2455 H 0.94808 0.73044 0.80306 0.0
H2456 H 0.93374 0.65727 0.76398 0.0
H2457 H 0.92103 0.63353 0.80453 0.0
C2458 C 0.9747 0.58788 0.95943 0.0
C2459 C 0.98506 0.57156 0.94725 0.0
C2460 C 0.95747 0.6045 0.94243 0.0
C2461 C 0.94893 0.60569 0.91194 0.0
C2462 C 0.95959 0.58954 0.89985 0.0
C2463 C 0.97697 0.57308 0.91686 0.0
C2464 C 0.92962 0.62356 0.89289 0.0
C2465 C 0.9345 0.63729 0.86839 0.0
C2466 C 0.90635 0.62763 0.89834 0.0
C2467 C 0.89708 0.6132 0.92169 0.0
C2468 C 0.89225 0.5858 0.924 0.0
C2469 C 0.88291 0.57239 0.94571 0.0
C2470 C 0.87771 0.58609 0.96485 0.0
C2471 C 0.88181 0.61323 0.96229 0.0
C2472 C 0.89164 0.62676 0.94099 0.0
C2473 C 0.85126 0.69601 0.79043 0.0
C2474 C 0.84021 0.71149 0.8028 0.0
C2475 C 0.86823 0.67912 0.8071 0.0
C2476 C 0.87611 0.67701 0.83752 0.0
C2477 C 0.86479 0.6924 0.8498 0.0
C2478 C 0.8474 0.70896 0.83305 0.0
C2479 C 0.89518 0.65882 0.85626 0.0
C2480 C 0.89014 0.64489 0.88054 0.0
C2481 C 0.91825 0.65452 0.85066 0.0
C2482 C 0.9269 0.66863 0.82691 0.0
C2483 C 0.9348 0.69606 0.82637 0.0
C2484 C 0.94212 0.70931 0.80342 0.0
C2485 C 0.94151 0.69534 0.78084 0.0
C2486 C 0.93411 0.66805 0.78144 0.0
C2487 C 0.927 0.65469 0.80448 0.0
H2488 H 0.94672 0.70566 0.76286 0.0
H2489 H 0.87038 0.57569 0.98156 0.0
H2490 H 0.44485 0.41411 0.08899 0.0
H2491 H 0.42692 0.38905 0.12527 0.0
H2492 H 0.35964 0.42673 0.09814 0.0
H2493 H 0.37744 0.4518 0.06162 0.0
H2494 H 0.39084 0.42992 0.15779 0.0
H2495 H 0.34716 0.36645 0.08326 0.0
H2496 H 0.34465 0.33686 0.04696 0.0
H2497 H 0.39531 0.29455 0.112 0.0
H2498 H 0.39885 0.32431 0.14865 0.0
H2499 H 0.31288 0.35588 0.24108 0.0
H2500 H 0.33149 0.38031 0.20519 0.0
H2501 H 0.3877 0.33062 0.22153 0.0
H2502 H 0.36835 0.30554 0.25687 0.0
H2503 H 0.36228 0.33352 0.16699 0.0
H2504 H 0.40953 0.39628 0.24074 0.0
H2505 H 0.41506 0.4255 0.27881 0.0
H2506 H 0.3618 0.46845 0.21791 0.0
H2507 H 0.35564 0.43925 0.17952 0.0
C2508 C 0.42606 0.4168 0.0906 0.0
C2509 C 0.41255 0.43494 0.07273 0.0
C2510 C 0.4158 0.40241 0.11116 0.0
C2511 C 0.39201 0.4061 0.11427 0.0
C2512 C 0.37804 0.42367 0.09594 0.0
C2513 C 0.3881 0.43783 0.07508 0.0
C2514 C 0.38299 0.39311 0.13812 0.0
C2515 C 0.38419 0.40885 0.15967 0.0
C2516 C 0.37543 0.36561 0.14091 0.0
C2517 C 0.3736 0.34792 0.11871 0.0
C2518 C 0.35813 0.35111 0.08981 0.0
C2519 C 0.35644 0.33424 0.06916 0.0
C2520 C 0.36985 0.3139 0.07715 0.0
C2521 C 0.385 0.31037 0.10582 0.0
C2522 C 0.38689 0.32726 0.12654 0.0
C2523 C 0.32967 0.35062 0.23751 0.0
C2524 C 0.33925 0.32889 0.25157 0.0
C2525 C 0.34031 0.36458 0.21701 0.0
C2526 C 0.36109 0.35738 0.21077 0.0
C2527 C 0.37162 0.33646 0.22596 0.0
C2528 C 0.36073 0.32228 0.24622 0.0
C2529 C 0.37023 0.37031 0.18685 0.0
C2530 C 0.36903 0.35459 0.16524 0.0
C2531 C 0.37831 0.39781 0.18425 0.0
C2532 C 0.38192 0.41541 0.2073 0.0
C2533 C 0.39881 0.41182 0.2355 0.0
C2534 C 0.40209 0.4284 0.25714 0.0
C2535 C 0.38874 0.44878 0.2508 0.0
C2536 C 0.37211 0.45264 0.2228 0.0
C2537 C 0.36874 0.43609 0.20108 0.0
H2538 H 0.39131 0.46161 0.26758 0.0
H2539 H 0.36845 0.30083 0.06113 0.0
H2540 H 0.566 0.59546 0.96107 0.0
H2541 H 0.54983 0.62766 0.92446 0.0
H2542 H 0.4998 0.56541 0.8658 0.0
H2543 H 0.51473 0.53325 0.90288 0.0
H2544 H 0.53735 0.64479 0.8663 0.0
H2545 H 0.43613 0.56794 0.85001 0.0
H2546 H 0.41742 0.52832 0.87436 0.0
H2547 H 0.47265 0.55906 0.95587 0.0
H2548 H 0.49134 0.59896 0.93202 0.0
H2549 H 0.38827 0.66967 0.80037 0.0
H2550 H 0.42324 0.64581 0.80614 0.0
H2551 H 0.47973 0.69677 0.87451 0.0
H2552 H 0.4448 0.72069 0.86899 0.0
H2553 H 0.43968 0.62199 0.86007 0.0
H2554 H 0.54802 0.69226 0.87735 0.0
H2555 H 0.56842 0.73384 0.85753 0.0
H2556 H 0.49927 0.7222 0.77994 0.0
H2557 H 0.47912 0.67987 0.7985 0.0
C2558 C 0.55251 0.58881 0.93991 0.0
C2559 C 0.54104 0.56208 0.93474 0.0
C2560 C 0.54342 0.6072 0.91896 0.0
C2561 C 0.52313 0.59883 0.89272 0.0
C2562 C 0.5152 0.57219 0.88609 0.0
C2563 C 0.5236 0.55384 0.90726 0.0
C2564 C 0.50515 0.61616 0.87651 0.0
C2565 C 0.51597 0.63997 0.86477 0.0
C2566 C 0.47727 0.60967 0.87462 0.0
C2567 C 0.46531 0.58623 0.8892 0.0
C2568 C 0.44413 0.56627 0.87313 0.0
C2569 C 0.43356 0.54377 0.88685 0.0
C2570 C 0.44392 0.54113 0.91664 0.0
C2571 C 0.4647 0.56108 0.93281 0.0
C2572 C 0.47527 0.58364 0.9192 0.0
C2573 C 0.40834 0.6761 0.81625 0.0
C2574 C 0.41364 0.69655 0.83476 0.0
C2575 C 0.42834 0.66267 0.81928 0.0
C2576 C 0.45401 0.66959 0.84071 0.0
C2577 C 0.46017 0.69143 0.85755 0.0
C2578 C 0.44014 0.70494 0.85451 0.0
C2579 C 0.47167 0.6509 0.84965 0.0
C2580 C 0.4608 0.62675 0.8606 0.0
C2581 C 0.49953 0.65765 0.85137 0.0
C2582 C 0.51182 0.68289 0.83958 0.0
C2583 C 0.53726 0.69836 0.85592 0.0
C2584 C 0.54887 0.72204 0.84482 0.0
C2585 C 0.53514 0.73066 0.8175 0.0
C2586 C 0.50991 0.71548 0.80108 0.0
C2587 C 0.4984 0.69159 0.81187 0.0
H2588 H 0.54404 0.74913 0.80908 0.0
H2589 H 0.4358 0.52365 0.92721 0.0
H2590 H 0.08616 0.57776 0.53876 0.0
H2591 H 0.11438 0.61295 0.57207 0.0
H2592 H 0.07889 0.57478 0.63567 0.0
H2593 H 0.05002 0.53958 0.60198 0.0
H2594 H 0.08612 0.62884 0.63439 0.0
H2595 H 0.13948 0.56747 0.63873 0.0
H2596 H 0.15997 0.54028 0.61932 0.0
H2597 H 0.20387 0.60896 0.58649 0.0
H2598 H 0.18322 0.63653 0.60523 0.0
H2599 H 0.19851 0.69468 0.75535 0.0
H2600 H 0.16067 0.66456 0.72124 0.0
H2601 H 0.19496 0.69484 0.65451 0.0
H2602 H 0.23273 0.72453 0.68839 0.0
H2603 H 0.18664 0.64376 0.6585 0.0
H2604 H 0.13485 0.70567 0.65597 0.0
H2605 H 0.11237 0.73278 0.67271 0.0
H2606 H 0.06464 0.66396 0.70108 0.0
H2607 H 0.08722 0.63645 0.68509 0.0
C2608 C 0.08413 0.57698 0.55972 0.0
C2609 C 0.06609 0.55584 0.56789 0.0
C2610 C 0.10036 0.59706 0.57878 0.0
C2611 C 0.09908 0.5963 0.60653 0.0
C2612 C 0.08031 0.57568 0.61442 0.0
C2613 C 0.06401 0.55551 0.59528 0.0
C2614 C 0.11848 0.61628 0.62763 0.0
C2615 C 0.10815 0.63193 0.64011 0.0
C2616 C 0.14716 0.62063 0.63448 0.0
C2617 C 0.15955 0.60404 0.62313 0.0
C2618 C 0.15329 0.57676 0.62713 0.0
C2619 C 0.16496 0.56128 0.61628 0.0
C2620 C 0.18313 0.57288 0.6016 0.0
C2621 C 0.18972 0.59999 0.59779 0.0
C2622 C 0.17804 0.61555 0.60853 0.0
C2623 C 0.19772 0.69509 0.7333 0.0
C2624 C 0.21876 0.71171 0.72462 0.0
C2625 C 0.17598 0.678 0.71377 0.0
C2626 C 0.17489 0.67739 0.68523 0.0
C2627 C 0.19534 0.69484 0.67639 0.0
C2628 C 0.21699 0.71179 0.69582 0.0
C2629 C 0.15448 0.65683 0.66529 0.0
C2630 C 0.16465 0.64083 0.65302 0.0
C2631 C 0.12572 0.65228 0.65877 0.0
C2632 C 0.11316 0.66898 0.66977 0.0
C2633 C 0.11996 0.69632 0.66627 0.0
C2634 C 0.10707 0.71177 0.67551 0.0
C2635 C 0.08716 0.70012 0.68805 0.0
C2636 C 0.08013 0.67299 0.69145 0.0
C2637 C 0.09301 0.65746 0.68234 0.0
H2638 H 0.07709 0.71211 0.69504 0.0
H2639 H 0.19217 0.56086 0.59324 0.0
H2640 H 0.36887 0.29629 0.70801 0.0
H2641 H 0.39636 0.32296 0.67977 0.0
H2642 H 0.34149 0.37372 0.65333 0.0
H2643 H 0.31453 0.34753 0.68238 0.0
H2644 H 0.35866 0.3785 0.60626 0.0
H2645 H 0.42054 0.38809 0.70334 0.0
H2646 H 0.44724 0.37294 0.75058 0.0
H2647 H 0.48655 0.33509 0.7105 0.0
H2648 H 0.45987 0.34979 0.663 0.0
H2649 H 0.44852 0.4309 0.51487 0.0
H2650 H 0.42158 0.40563 0.54405 0.0
H2651 H 0.47681 0.44981 0.61742 0.0
H2652 H 0.50335 0.47603 0.58766 0.0
H2653 H 0.45983 0.39934 0.64225 0.0
H2654 H 0.35671 0.36927 0.55338 0.0
H2655 H 0.32984 0.3852 0.50667 0.0
H2656 H 0.37281 0.46431 0.53055 0.0
H2657 H 0.39969 0.44888 0.57752 0.0
C2658 C 0.36202 0.3131 0.69656 0.0
C2659 C 0.33765 0.31799 0.69947 0.0
C2660 C 0.37869 0.3293 0.67958 0.0
C2661 C 0.37315 0.35249 0.66243 0.0
C2662 C 0.34847 0.35703 0.66494 0.0
C2663 C 0.33221 0.34122 0.68249 0.0
C2664 C 0.39201 0.37105 0.64297 0.0
C2665 C 0.3808 0.38234 0.61487 0.0
C2666 C 0.42191 0.37853 0.65121 0.0
C2667 C 0.43807 0.36987 0.67963 0.0
C2668 C 0.43479 0.37643 0.70461 0.0
C2669 C 0.44993 0.36794 0.73143 0.0
C2670 C 0.46854 0.35302 0.73354 0.0
C2671 C 0.47211 0.34662 0.70884 0.0
C2672 C 0.45701 0.35505 0.68196 0.0
C2673 C 0.45541 0.43621 0.53711 0.0
C2674 C 0.47954 0.45763 0.54666 0.0
C2675 C 0.43916 0.42086 0.55476 0.0
C2676 C 0.44506 0.42392 0.58509 0.0
C2677 C 0.46958 0.44506 0.59499 0.0
C2678 C 0.48548 0.46102 0.57701 0.0
C2679 C 0.42643 0.40593 0.60506 0.0
C2680 C 0.43768 0.39504 0.63339 0.0
C2681 C 0.39655 0.39839 0.59681 0.0
C2682 C 0.38037 0.40788 0.56883 0.0
C2683 C 0.36035 0.39007 0.54869 0.0
C2684 C 0.34513 0.39901 0.52216 0.0
C2685 C 0.34967 0.42574 0.51561 0.0
C2686 C 0.36938 0.4436 0.53561 0.0
C2687 C 0.38463 0.43476 0.56217 0.0
H2688 H 0.33789 0.43262 0.49506 0.0
H2689 H 0.48023 0.34645 0.75431 0.0
H2690 H 0.25264 0.75726 0.15169 0.0
H2691 H 0.22076 0.7254 0.11568 0.0
H2692 H 0.21815 0.66657 0.18217 0.0
H2693 H 0.25078 0.69806 0.21801 0.0
H2694 H 0.22164 0.64651 0.13817 0.0
H2695 H 0.16581 0.69895 0.15092 0.0
H2696 H 0.15335 0.74022 0.15265 0.0
H2697 H 0.14647 0.75619 0.0644 0.0
H2698 H 0.15922 0.71511 0.06225 0.0
H2699 H 0.1011 0.55363 0.06802 0.0
H2700 H 0.13444 0.58802 0.09973 0.0
H2701 H 0.13675 0.63897 0.0267 0.0
H2702 H 0.10297 0.60455 0.99474 0.0
H2703 H 0.13456 0.66433 0.07112 0.0
H2704 H 0.18722 0.60856 0.05869 0.0
H2705 H 0.19939 0.56679 0.05874 0.0
H2706 H 0.2119 0.55659 0.14875 0.0
H2707 H 0.19914 0.59795 0.14909 0.0
C2708 C 0.24532 0.73749 0.15855 0.0
C2709 C 0.25394 0.73016 0.18763 0.0
C2710 C 0.22698 0.71935 0.138 0.0
C2711 C 0.2167 0.69367 0.14626 0.0
C2712 C 0.22572 0.68627 0.17529 0.0
C2713 C 0.24423 0.70431 0.19576 0.0
C2714 C 0.19659 0.67441 0.12476 0.0
C2715 C 0.20247 0.65031 0.12373 0.0
C2716 C 0.17186 0.67961 0.10542 0.0
C2717 C 0.16372 0.70408 0.1065 0.0
C2718 C 0.16178 0.71132 0.13193 0.0
C2719 C 0.15465 0.73467 0.13298 0.0
C2720 C 0.14918 0.75084 0.10867 0.0
C2721 C 0.15074 0.74364 0.08322 0.0
C2722 C 0.15788 0.72032 0.08206 0.0
C2723 C 0.10865 0.57218 0.0587 0.0
C2724 C 0.09958 0.57641 0.02892 0.0
C2725 C 0.12777 0.59178 0.07684 0.0
C2726 C 0.13835 0.61593 0.06555 0.0
C2727 C 0.1289 0.62043 0.03583 0.0
C2728 C 0.10972 0.60076 0.01762 0.0
C2729 C 0.15946 0.6363 0.08491 0.0
C2730 C 0.1538 0.66061 0.08547 0.0
C2731 C 0.18429 0.63121 0.10407 0.0
C2732 C 0.19197 0.60627 0.10385 0.0
C2733 C 0.19229 0.59729 0.07843 0.0
C2734 C 0.1993 0.57367 0.07839 0.0
C2735 C 0.2063 0.55898 0.1037 0.0
C2736 C 0.20636 0.56791 0.12912 0.0
C2737 C 0.19923 0.59144 0.12925 0.0
H2738 H 0.21175 0.54071 0.10363 0.0
H2739 H 0.14367 0.76891 0.10953 0.0
H2740 H 0.70075 0.31298 0.72987 0.0
H2741 H 0.67358 0.34443 0.70571 0.0
H2742 H 0.72604 0.37207 0.65477 0.0
H2743 H 0.75468 0.34218 0.68112 0.0
H2744 H 0.71118 0.41039 0.65193 0.0
H2745 H 0.64322 0.32839 0.63613 0.0
H2746 H 0.61547 0.28679 0.64843 0.0
H2747 H 0.58894 0.32787 0.69916 0.0
H2748 H 0.61677 0.36965 0.68744 0.0
H2749 H 0.61198 0.4718 0.54351 0.0
H2750 H 0.64028 0.4427 0.57253 0.0
H2751 H 0.60809 0.44368 0.64011 0.0
H2752 H 0.57997 0.47372 0.61104 0.0
H2753 H 0.61163 0.39209 0.63497 0.0
H2754 H 0.6778 0.47431 0.64629 0.0
H2755 H 0.70288 0.51532 0.62979 0.0
H2756 H 0.72996 0.47175 0.58203 0.0
H2757 H 0.70502 0.43042 0.59822 0.0
C2758 C 0.7067 0.32562 0.71348 0.0
C2759 C 0.7306 0.32403 0.70806 0.0
C2760 C 0.69041 0.34389 0.6988 0.0
C2761 C 0.69588 0.36135 0.67647 0.0
C2762 C 0.71998 0.35969 0.67123 0.0
C2763 C 0.73678 0.34199 0.68659 0.0
C2764 C 0.67761 0.38128 0.65936 0.0
C2765 C 0.68935 0.40558 0.64815 0.0
C2766 C 0.64856 0.37718 0.65367 0.0
C2767 C 0.63231 0.35207 0.66117 0.0
C2768 C 0.63161 0.3285 0.65007 0.0
C2769 C 0.61585 0.3049 0.65692 0.0
C2770 C 0.6005 0.30471 0.67461 0.0
C2771 C 0.60089 0.32807 0.68551 0.0
C2772 C 0.61665 0.35169 0.67878 0.0
C2773 C 0.61102 0.46645 0.56477 0.0
C2774 C 0.59333 0.47643 0.57432 0.0
C2775 C 0.62759 0.44931 0.58174 0.0
C2776 C 0.62739 0.44009 0.60951 0.0
C2777 C 0.60954 0.44982 0.61918 0.0
C2778 C 0.59332 0.46761 0.60234 0.0
C2779 C 0.64531 0.42053 0.62759 0.0
C2780 C 0.63349 0.39651 0.63886 0.0
C2781 C 0.6741 0.42458 0.63279 0.0
C2782 C 0.68937 0.44929 0.62328 0.0
C2783 C 0.68902 0.47347 0.63217 0.0
C2784 C 0.70327 0.49677 0.62294 0.0
C2785 C 0.71803 0.49612 0.60489 0.0
C2786 C 0.71863 0.47218 0.59611 0.0
C2787 C 0.70448 0.44882 0.60535 0.0
H2788 H 0.72901 0.51418 0.59771 0.0
H2789 H 0.5882 0.2865 0.67981 0.0
H2790 H 0.79547 0.61964 0.15101 0.0
H2791 H 0.81583 0.60964 0.11792 0.0
H2792 H 0.82022 0.68776 0.08226 0.0
H2793 H 0.80198 0.69865 0.11672 0.0
H2794 H 0.81372 0.61119 0.06183 0.0
H2795 H 0.87878 0.71204 0.08185 0.0
H2796 H 0.8885 0.74907 0.113 0.0
H2797 H 0.88427 0.69596 0.18349 0.0
H2798 H 0.87394 0.65859 0.15246 0.0
H2799 H 0.9278 0.59936 0.02497 0.0
H2800 H 0.89167 0.61922 0.02606 0.0
H2801 H 0.92574 0.62205 0.1181 0.0
H2802 H 0.96241 0.60333 0.11725 0.0
H2803 H 0.90923 0.66504 0.0972 0.0
H2804 H 0.87248 0.57095 0.08041 0.0
H2805 H 0.86016 0.53125 0.05228 0.0
H2806 H 0.80807 0.56652 0.98048 0.0
H2807 H 0.82041 0.60658 0.00813 0.0
C2808 C 0.80044 0.63463 0.1359 0.0
C2809 C 0.79812 0.66023 0.13736 0.0
C2810 C 0.81161 0.62873 0.11661 0.0
C2811 C 0.82021 0.64822 0.09823 0.0
C2812 C 0.81416 0.67262 0.09671 0.0
C2813 C 0.80357 0.67875 0.11642 0.0
C2814 C 0.8407 0.64477 0.08622 0.0
C2815 C 0.83448 0.62327 0.06893 0.0
C2816 C 0.86781 0.66041 0.09574 0.0
C2817 C 0.87576 0.68268 0.11495 0.0
C2818 C 0.88025 0.70835 0.10408 0.0
C2819 C 0.88576 0.72937 0.12168 0.0
C2820 C 0.88726 0.72492 0.1503 0.0
C2821 C 0.88321 0.69941 0.16136 0.0
C2822 C 0.87747 0.6783 0.14378 0.0
C2823 C 0.9279 0.60474 0.04538 0.0
C2824 C 0.94776 0.59954 0.0711 0.0
C2825 C 0.90717 0.61589 0.04591 0.0
C2826 C 0.90587 0.6218 0.07208 0.0
C2827 C 0.92633 0.61761 0.09763 0.0
C2828 C 0.94709 0.60664 0.09715 0.0
C2829 C 0.88254 0.63088 0.0735 0.0
C2830 C 0.88829 0.65352 0.08894 0.0
C2831 C 0.85513 0.61599 0.06258 0.0
C2832 C 0.84764 0.59184 0.04616 0.0
C2833 C 0.85856 0.57029 0.05856 0.0
C2834 C 0.85155 0.54773 0.04272 0.0
C2835 C 0.83339 0.54639 0.01459 0.0
C2836 C 0.82215 0.5676 1.00226 0.0
C2837 C 0.82917 0.59024 0.01798 0.0
H2838 H 0.82801 0.52892 1.00235 0.0
H2839 H 0.89143 0.74123 0.16385 0.0
H2840 H 1.00936 0.59687 0.61017 0.0
H2841 H 0.99548 0.60717 0.64883 0.0
H2842 H 1.01741 0.68931 0.62831 0.0
H2843 H 1.03221 0.67905 0.59036 0.0
H2844 H 1.02139 0.68266 0.68378 0.0
H2845 H 0.95372 0.648 0.59188 0.0
H2846 H 0.9286 0.61457 0.55478 0.0
H2847 H 0.90657 0.56009 0.61765 0.0
H2848 H 0.93204 0.59301 0.65517 0.0
H2849 H 0.91833 0.74288 0.67924 0.0
H2850 H 0.9544 0.72409 0.67737 0.0
H2851 H 0.9104 0.64776 0.6965 0.0
H2852 H 0.87282 0.6659 0.69522 0.0
H2853 H 0.92137 0.64368 0.65344 0.0
H2854 H 0.97766 0.68199 0.74228 0.0
H2855 H 1.00036 0.7157 0.77929 0.0
H2856 H 0.04284 0.76244 0.7255 0.0
H2857 H 1.02023 0.7292 0.68801 0.0
C2858 C 1.01216 0.61715 0.61473 0.0
C2859 C 1.02124 0.63722 0.59707 0.0
C2860 C 1.00424 0.62302 0.63676 0.0
C2861 C 1.00453 0.64893 0.64078 0.0
C2862 C 1.01672 0.66915 0.62539 0.0
C2863 C 1.02512 0.66332 0.60367 0.0
C2864 C 0.98776 0.6547 0.65651 0.0
C2865 C 0.99953 0.67411 0.67739 0.0
C2866 C 0.95935 0.64291 0.64879 0.0
C2867 C 0.945 0.62285 0.62635 0.0
C2868 C 0.94375 0.6288 0.59781 0.0
C2869 C 0.92942 0.60995 0.5767 0.0
C2870 C 0.91593 0.58524 0.58383 0.0
C2871 C 0.917 0.57922 0.61213 0.0
C2872 C 0.93144 0.59793 0.63333 0.0
C2873 C 0.9161 0.72203 0.68277 0.0
C2874 C 0.89206 0.70588 0.68642 0.0
C2875 C 0.93724 0.71137 0.68252 0.0
C2876 C 0.93534 0.68442 0.68691 0.0
C2877 C 0.91238 0.6686 0.6929 0.0
C2878 C 0.89087 0.67911 0.69234 0.0
C2879 C 0.95471 0.67231 0.68044 0.0
C2880 C 0.94336 0.65172 0.66099 0.0
C2881 C 0.98343 0.68292 0.68974 0.0
C2882 C 0.99707 0.70309 0.71221 0.0
C2883 C 0.99167 0.69954 0.73821 0.0
C2884 C 1.00455 0.71856 0.7593 0.0
C2885 C 1.02292 0.74123 0.75469 0.0
C2886 C 1.02856 0.74489 0.72902 0.0
C2887 C 1.01577 0.72592 0.70787 0.0
H2888 H 1.03285 0.75593 0.77104 0.0
H2889 H 0.90472 0.57072 0.56744 0.0
H2890 H 0.44548 0.53024 0.41221 0.0
H2891 H 0.41546 0.55856 0.38399 0.0
H2892 H 0.47163 0.62478 0.43288 0.0
H2893 H 0.50019 0.59626 0.46198 0.0
H2894 H 0.43184 0.6398 0.42235 0.0
H2895 H 0.44949 0.60482 0.34754 0.0
H2896 H 0.45093 0.57089 0.31818 0.0
H2897 H 0.36412 0.54022 0.29728 0.0
H2898 H 0.36223 0.57384 0.32675 0.0
H2899 H 0.37244 0.73777 0.32238 0.0
H2900 H 0.40069 0.70732 0.34888 0.0
H2901 H 0.33047 0.64271 0.32192 0.0
H2902 H 0.30201 0.67322 0.29614 0.0
H2903 H 0.37569 0.6268 0.32015 0.0
H2904 H 0.35977 0.6655 0.39356 0.0
H2905 H 0.36002 0.70175 0.42092 0.0
H2906 H 0.44726 0.72835 0.442 0.0
H2907 H 0.44749 0.69241 0.41446 0.0
C2908 C 0.45184 0.55088 0.41685 0.0
C2909 C 0.47634 0.56018 0.43999 0.0
C2910 C 0.43432 0.5677 0.40016 0.0
C2911 C 0.44033 0.59525 0.40471 0.0
C2912 C 0.46504 0.60426 0.4277 0.0
C2913 C 0.48204 0.58748 0.44467 0.0
C2914 C 0.42151 0.6145 0.3869 0.0
C2915 C 0.4202 0.6367 0.39985 0.0
C2916 C 0.40475 0.61189 0.35716 0.0
C2917 C 0.40579 0.59162 0.3396 0.0
C2918 C 0.43075 0.59073 0.33681 0.0
C2919 C 0.43164 0.57158 0.32014 0.0
C2920 C 0.40764 0.55336 0.30596 0.0
C2921 C 0.3827 0.55431 0.30834 0.0
C2922 C 0.3817 0.57341 0.32501 0.0
C2923 C 0.36267 0.71712 0.32191 0.0
C2924 C 0.33414 0.70882 0.30639 0.0
C2925 C 0.3792 0.69928 0.3375 0.0
C2926 C 0.36862 0.67168 0.33832 0.0
C2927 C 0.3402 0.66337 0.3224 0.0
C2928 C 0.32353 0.68125 0.30739 0.0
C2929 C 0.38669 0.65195 0.35562 0.0
C2930 C 0.38768 0.62976 0.34261 0.0
C2931 C 0.40362 0.65487 0.3851 0.0
C2932 C 0.40362 0.67639 0.40176 0.0
C2933 C 0.37899 0.67918 0.40388 0.0
C2934 C 0.37904 0.69965 0.41944 0.0
C2935 C 0.40363 0.71734 0.43318 0.0
C2936 C 0.42823 0.71461 0.43137 0.0
C2937 C 0.42829 0.69418 0.4158 0.0
H2938 H 0.40362 0.73311 0.44529 0.0
H2939 H 0.40837 0.53854 0.29306 0.0
H2940 H 0.26064 0.37717 0.88442 0.0
H2941 H 0.24301 0.38275 0.92184 0.0
H2942 H 0.203 0.30068 0.91874 0.0
H2943 H 0.22037 0.29506 0.88085 0.0
H2944 H 0.16764 0.33 0.90789 0.0
H2945 H 0.2492 0.32615 0.98176 0.0
H2946 H 0.29877 0.33377 1.00771 0.0
H2947 H 0.30459 0.41578 0.01085 0.0
H2948 H 0.25512 0.4088 0.98435 0.0
H2949 H 0.09732 0.38917 0.96821 0.0
H2950 H 0.12606 0.35898 0.97143 0.0
H2951 H 0.18937 0.42375 0.95912 0.0
H2952 H 0.16115 0.45385 0.95667 0.0
H2953 H 0.21181 0.38681 0.99281 0.0
H2954 H 0.13644 0.3901 0.90178 0.0
H2955 H 0.08749 0.384 0.8729 0.0
H2956 H 0.07194 0.30369 0.90064 0.0
H2957 H 0.12078 0.30946 0.92998 0.0
C2958 C 0.24852 0.36024 0.89214 0.0
C2959 C 0.24144 0.33582 0.87949 0.0
C2960 C 0.23881 0.36332 0.91384 0.0
C2961 C 0.22183 0.34204 0.92324 0.0
C2962 C 0.21624 0.31725 0.91194 0.0
C2963 C 0.22612 0.3141 0.8903 0.0
C2964 C 0.20582 0.34712 0.94014 0.0
C2965 C 0.17727 0.34159 0.92713 0.0
C2966 C 0.21838 0.36238 0.9651 0.0
C2967 C 0.2483 0.3669 0.98099 0.0
C2968 C 0.26103 0.34586 0.98778 0.0
C2969 C 0.28916 0.35007 1.00263 0.0
C2970 C 0.30483 0.37525 0.01097 0.0
C2971 C 0.29241 0.39627 1.00443 0.0
C2972 C 0.26429 0.39218 0.98952 0.0
C2973 C 0.1176 0.3969 0.96674 0.0
C2974 C 0.1269 0.42371 0.96167 0.0
C2975 C 0.13403 0.37971 0.96875 0.0
C2976 C 0.15965 0.38907 0.96503 0.0
C2977 C 0.16971 0.41608 0.96214 0.0
C2978 C 0.1535 0.43327 0.96056 0.0
C2979 C 0.17416 0.3711 0.95929 0.0
C2980 C 0.20226 0.37417 0.97441 0.0
C2981 C 0.16135 0.35377 0.93602 0.0
C2982 C 0.13208 0.3503 0.91834 0.0
C2983 C 0.12252 0.3712 0.90183 0.0
C2984 C 0.09482 0.3678 0.88539 0.0
C2985 C 0.0766 0.34349 0.88502 0.0
C2986 C 0.08606 0.32252 0.90103 0.0
C2987 C 0.11373 0.32585 0.91758 0.0
H2988 H 0.05516 0.34089 0.87227 0.0
H2989 H 0.3266 0.37848 0.0225 0.0
H2990 H 0.23138 0.31501 0.41825 0.0
H2991 H 0.20626 0.33556 0.43845 0.0
H2992 H 0.15105 0.34641 0.35371 0.0
H2993 H 0.17646 0.32633 0.33315 0.0
H2994 H 0.17272 0.39177 0.38808 0.0
H2995 H 0.11666 0.30121 0.39638 0.0
H2996 H 0.1109 0.25437 0.40997 0.0
H2997 H 0.17199 0.27399 0.49234 0.0
H2998 H 0.17725 0.32096 0.47959 0.0
H2999 H 0.06522 0.41942 0.42531 0.0
H3000 H 0.09424 0.4038 0.40545 0.0
H3001 H 0.14476 0.3874 0.49088 0.0
H3002 H 0.11562 0.40266 0.51079 0.0
H3003 H 0.127 0.34582 0.4567 0.0
H3004 H 0.16874 0.43614 0.45247 0.0
H3005 H 0.17291 0.48302 0.44049 0.0
H3006 H 0.14222 0.46603 0.35091 0.0
H3007 H 0.1371 0.41893 0.36226 0.0
C3008 C 0.214 0.3219 0.40385 0.0
C3009 C 0.20596 0.3191 0.37407 0.0
C3010 C 0.19949 0.33334 0.41547 0.0
C3011 C 0.17671 0.34224 0.39754 0.0
C3012 C 0.16852 0.33948 0.36784 0.0
C3013 C 0.18294 0.32787 0.35618 0.0
C3014 C 0.16221 0.35539 0.40988 0.0
C3015 C 0.16232 0.38174 0.40276 0.0
C3016 C 0.1496 0.34246 0.42973 0.0
C3017 C 0.14756 0.31441 0.43695 0.0
C3018 C 0.12893 0.29546 0.41732 0.0
C3019 C 0.1256 0.26894 0.42495 0.0
C3020 C 0.14125 0.2612 0.45189 0.0
C3021 C 0.15998 0.28 0.47143 0.0
C3022 C 0.16297 0.30655 0.46412 0.0
C3023 C 0.08258 0.41252 0.43979 0.0
C3024 C 0.08807 0.41189 0.46952 0.0
C3025 C 0.09929 0.40392 0.42847 0.0
C3026 C 0.12165 0.39456 0.44675 0.0
C3027 C 0.1276 0.39462 0.47648 0.0
C3028 C 0.11102 0.40335 0.4878 0.0
C3029 C 0.13721 0.38234 0.43483 0.0
C3030 C 0.13735 0.35607 0.44204 0.0
C3031 C 0.15015 0.39556 0.4152 0.0
C3032 C 0.15227 0.42386 0.40825 0.0
C3033 C 0.16245 0.4423 0.4302 0.0
C3034 C 0.16507 0.46894 0.42352 0.0
C3035 C 0.15789 0.47747 0.39497 0.0
C3036 C 0.14784 0.45937 0.37302 0.0
C3037 C 0.145 0.43269 0.37957 0.0
H3038 H 0.16023 0.4981 0.38985 0.0
H3039 H 0.13879 0.24066 0.45766 0.0
loop_
_geom_bond_atom_site_label_1
_geom_bond_atom_site_label_2
_geom_bond_distance
_geom_bond_site_symmetry_2
_ccdc_geom_bond_type
C0 Eu1 2.835 1_655 S
C0 C2 1.500 . S
C0 O20 1.257 . S
C0 O21 1.260 1_655 S
Eu1 C0 2.835 1_455 S
Eu1 O20 2.473 1_455 S
Eu1 O21 2.480 . S
Eu1 O22 2.430 . S
Eu1 O23 2.670 1_554 S
Eu1 O24 2.394 1_454 S
Eu1 O29 2.355 1_445 S
Eu1 O31 2.374 1_545 S
C2 C0 1.500 . S
C2 C3 1.377 . S
C2 C7 1.377 . S
C3 C2 1.377 . S
C3 C4 1.395 . S
C3 H32 0.931 1_655 S
C4 C3 1.395 . S
C4 C5 1.383 . S
C4 H33 0.931 . S
C5 C4 1.383 . S
C5 C6 1.394 . S
C6 C5 1.394 . S
C6 C7 1.378 . S
C6 H34 0.931 . S
C7 C2 1.377 . S
C7 C6 1.378 . S
C7 H35 0.931 . S
C8 O22 1.259 1_556 S
C8 O23 1.270 . S
C9 O24 1.251 . S
C9 O25 1.251 . S
C10 Eu11 2.835 1_455 S
C10 C12 1.500 . S
C10 O26 1.257 . S
C10 O27 1.260 1_455 S
Eu11 C10 2.835 1_655 S
Eu11 O23 2.355 1_665 S
Eu11 O25 2.374 1_565 S
Eu11 O26 2.473 1_655 S
Eu11 O27 2.480 . S
Eu11 O28 2.430 . S
Eu11 O29 2.670 1_556 S
Eu11 O30 2.394 1_656 S
C12 C10 1.500 . S
C12 C13 1.377 . S
C12 C17 1.377 . S
C13 C12 1.377 . S
C13 C14 1.395 . S
C13 H36 0.931 1_455 S
C14 C13 1.395 . S
C14 C15 1.383 . S
C14 H37 0.931 . S
C15 C14 1.383 . S
C15 C16 1.394 . S
C16 C15 1.394 . S
C16 C17 1.378 . S
C16 H38 0.931 . S
C17 C12 1.377 . S
C17 C16 1.378 . S
C17 H39 0.931 . S
C18 O28 1.259 1_554 S
C18 O29 1.270 . S
C19 O30 1.251 . S
C19 O31 1.251 . S
O20 C0 1.257 . S
O20 Eu1 2.473 1_655 S
O21 C0 1.260 1_455 S
O21 Eu1 2.480 . S
O22 Eu1 2.430 . S
O22 C8 1.259 1_554 S
O23 Eu1 2.670 1_556 S
O23 C8 1.270 . S
O23 Eu11 2.355 1_445 S
O24 Eu1 2.394 1_656 S
O24 C9 1.251 . S
O25 C9 1.251 . S
O25 Eu11 2.374 1_545 S
O26 C10 1.257 . S
O26 Eu11 2.473 1_455 S
O27 C10 1.260 1_655 S
O27 Eu11 2.480 . S
O28 Eu11 2.430 . S
O28 C18 1.259 1_556 S
O29 Eu1 2.355 1_665 S
O29 Eu11 2.670 1_554 S
O29 C18 1.270 . S
O30 Eu11 2.394 1_454 S
O30 C19 1.251 . S
O31 Eu1 2.374 1_565 S
O31 C19 1.251 . S
H32 C3 0.931 1_455 S
H33 C4 0.931 . S
H34 C6 0.931 . S
H35 C7 0.931 . S
H36 C13 0.931 1_655 S
H37 C14 0.931 . S
H38 C16 0.931 . S
H39 C17 0.931 . S
C40 Eu41 2.835 . S
C40 C42 1.500 . S
C40 O60 1.257 . S
C40 O61 1.260 . S
Eu41 C40 2.835 . S
Eu41 O60 2.473 . S
Eu41 O61 2.480 . S
Eu41 O62 2.430 . S
Eu41 O63 2.670 . S
Eu41 O64 2.394 . S
Eu41 O69 2.355 . S
Eu41 O71 2.374 . S
C42 C40 1.500 . S
C42 C43 1.377 . S
C42 C47 1.377 . S
C43 C42 1.377 . S
C43 C44 1.395 . S
C43 H72 0.931 . S
C44 C43 1.395 . S
C44 C45 1.383 . S
C44 H73 0.931 . S
C45 C44 1.383 . S
C45 C46 1.394 . S
C46 C45 1.394 . S
C46 C47 1.378 . S
C46 H74 0.931 . S
C47 C42 1.377 . S
C47 C46 1.378 . S
C47 H75 0.931 . S
C48 O62 1.259 . S
C48 O63 1.270 . S
C49 O64 1.251 . S
C49 O65 1.251 . S
C50 Eu51 2.835 . S
C50 C52 1.500 . S
C50 O66 1.257 . S
C50 O67 1.260 . S
Eu51 C50 2.835 . S
Eu51 O63 2.355 . S
Eu51 O65 2.374 . S
Eu51 O66 2.473 . S
Eu51 O67 2.480 . S
Eu51 O68 2.430 . S
Eu51 O69 2.670 . S
Eu51 O70 2.394 . S
C52 C50 1.500 . S
C52 C53 1.377 . S
C52 C57 1.377 . S
C53 C52 1.377 . S
C53 C54 1.395 . S
C53 H76 0.931 . S
C54 C53 1.395 . S
C54 C55 1.383 . S
C54 H77 0.931 . S
C55 C54 1.383 . S
C55 C56 1.394 . S
C56 C55 1.394 . S
C56 C57 1.378 . S
C56 H78 0.931 . S
C57 C52 1.377 . S
C57 C56 1.378 . S
C57 H79 0.931 . S
C58 O68 1.259 . S
C58 O69 1.270 . S
C59 O70 1.251 . S
C59 O71 1.251 . S
O60 C40 1.257 . S
O60 Eu41 2.473 . S
O61 C40 1.260 . S
O61 Eu41 2.480 . S
O62 Eu41 2.430 . S
O62 C48 1.259 . S
O63 Eu41 2.670 . S
O63 C48 1.270 . S
O63 Eu51 2.355 . S
O64 Eu41 2.394 . S
O64 C49 1.251 . S
O65 C49 1.251 . S
O65 Eu51 2.374 . S
O66 C50 1.257 . S
O66 Eu51 2.473 . S
O67 C50 1.260 . S
O67 Eu51 2.480 . S
O68 Eu51 2.430 . S
O68 C58 1.259 . S
O69 Eu41 2.355 . S
O69 Eu51 2.670 . S
O69 C58 1.270 . S
O70 Eu51 2.394 . S
O70 C59 1.251 . S
O71 Eu41 2.374 . S
O71 C59 1.251 . S
H72 C43 0.931 . S
H73 C44 0.931 . S
H74 C46 0.931 . S
H75 C47 0.931 . S
H76 C53 0.931 . S
H77 C54 0.931 . S
H78 C56 0.931 . S
H79 C57 0.931 . S
C80 Eu81 2.835 1_565 S
C80 C82 1.500 . S
C80 O100 1.257 . S
C80 O101 1.260 1_565 S
Eu81 C80 2.835 1_545 S
Eu81 O100 2.473 1_545 S
Eu81 O101 2.480 . S
Eu81 O102 2.430 . S
Eu81 O103 2.670 . S
Eu81 O104 2.394 1_545 S
Eu81 O109 2.355 1_545 S
Eu81 O111 2.374 . S
C82 C80 1.500 . S
C82 C83 1.377 . S
C82 C87 1.377 . S
C83 C82 1.377 . S
C83 C84 1.395 . S
C83 H112 0.931 . S
C84 C83 1.395 . S
C84 C85 1.383 . S
C84 H113 0.931 . S
C85 C84 1.383 . S
C85 C86 1.394 . S
C86 C85 1.394 . S
C86 C87 1.378 . S
C86 H114 0.931 . S
C87 C82 1.377 . S
C87 C86 1.378 . S
C87 H115 0.931 . S
C88 O102 1.259 . S
C88 O103 1.270 . S
C89 O104 1.251 . S
C89 O105 1.251 . S
C90 Eu91 2.835 1_545 S
C90 C92 1.500 . S
C90 O106 1.257 . S
C90 O107 1.260 1_545 S
Eu91 C90 2.835 1_565 S
Eu91 O103 2.355 1_565 S
Eu91 O105 2.374 . S
Eu91 O106 2.473 1_565 S
Eu91 O107 2.480 . S
Eu91 O108 2.430 . S
Eu91 O109 2.670 . S
Eu91 O110 2.394 1_565 S
C92 C90 1.500 . S
C92 C93 1.377 . S
C92 C97 1.377 . S
C93 C92 1.377 . S
C93 C94 1.395 . S
C93 H116 0.931 . S
C94 C93 1.395 . S
C94 C95 1.383 . S
C94 H117 0.931 . S
C95 C94 1.383 . S
C95 C96 1.394 . S
C96 C95 1.394 . S
C96 C97 1.378 . S
C96 H118 0.931 . S
C97 C92 1.377 . S
C97 C96 1.378 . S
C97 H119 0.931 . S
C98 O108 1.259 . S
C98 O109 1.270 . S
C99 O110 1.251 . S
C99 O111 1.251 . S
O100 C80 1.257 . S
O100 Eu81 2.473 1_565 S
O101 C80 1.260 1_545 S
O101 Eu81 2.480 . S
O102 Eu81 2.430 . S
O102 C88 1.259 . S
O103 Eu81 2.670 . S
O103 C88 1.270 . S
O103 Eu91 2.355 1_545 S
O104 Eu81 2.394 1_565 S
O104 C89 1.251 . S
O105 C89 1.251 . S
O105 Eu91 2.374 . S
O106 C90 1.257 . S
O106 Eu91 2.473 1_545 S
O107 C90 1.260 1_565 S
O107 Eu91 2.480 . S
O108 Eu91 2.430 . S
O108 C98 1.259 . S
O109 Eu81 2.355 1_565 S
O109 Eu91 2.670 . S
O109 C98 1.270 . S
O110 Eu91 2.394 1_545 S
O110 C99 1.251 . S
O111 Eu81 2.374 . S
O111 C99 1.251 . S
H112 C83 0.931 . S
H113 C84 0.931 . S
H114 C86 0.931 . S
H115 C87 0.931 . S
H116 C93 0.931 . S
H117 C94 0.931 . S
H118 C96 0.931 . S
H119 C97 0.931 . S
C120 Eu121 2.835 . S
C120 C122 1.500 . S
C120 O140 1.257 . S
C120 O141 1.260 . S
Eu121 C120 2.835 . S
Eu121 O140 2.473 . S
Eu121 O141 2.480 . S
Eu121 O142 2.430 . S
Eu121 O143 2.670 . S
Eu121 O144 2.394 . S
Eu121 O149 2.355 . S
Eu121 O151 2.374 . S
C122 C120 1.500 . S
C122 C123 1.377 . S
C122 C127 1.377 . S
C123 C122 1.377 . S
C123 C124 1.395 . S
C123 H152 0.931 . S
C124 C123 1.395 . S
C124 C125 1.383 . S
C124 H153 0.931 . S
C125 C124 1.383 . S
C125 C126 1.394 . S
C126 C125 1.394 . S
C126 C127 1.378 . S
C126 H154 0.931 . S
C127 C122 1.377 . S
C127 C126 1.378 . S
C127 H155 0.931 . S
C128 O142 1.259 . S
C128 O143 1.270 . S
C129 O144 1.251 . S
C129 O145 1.251 . S
C130 Eu131 2.835 . S
C130 C132 1.500 . S
C130 O146 1.257 . S
C130 O147 1.260 . S
Eu131 C130 2.835 . S
Eu131 O143 2.355 . S
Eu131 O145 2.374 . S
Eu131 O146 2.473 . S
Eu131 O147 2.480 . S
Eu131 O148 2.430 . S
Eu131 O149 2.670 . S
Eu131 O150 2.394 . S
C132 C130 1.500 . S
C132 C133 1.377 . S
C132 C137 1.377 . S
C133 C132 1.377 . S
C133 C134 1.395 . S
C133 H156 0.931 . S
C134 C133 1.395 . S
C134 C135 1.383 . S
C134 H157 0.931 . S
C135 C134 1.383 . S
C135 C136 1.394 . S
C136 C135 1.394 . S
C136 C137 1.378 . S
C136 H158 0.931 . S
C137 C132 1.377 . S
C137 C136 1.378 . S
C137 H159 0.931 . S
C138 O148 1.259 . S
C138 O149 1.270 . S
C139 O150 1.251 . S
C139 O151 1.251 . S
O140 C120 1.257 . S
O140 Eu121 2.473 . S
O141 C120 1.260 . S
O141 Eu121 2.480 . S
O142 Eu121 2.430 . S
O142 C128 1.259 . S
O143 Eu121 2.670 . S
O143 C128 1.270 . S
O143 Eu131 2.355 . S
O144 Eu121 2.394 . S
O144 C129 1.251 . S
O145 C129 1.251 . S
O145 Eu131 2.374 . S
O146 C130 1.257 . S
O146 Eu131 2.473 . S
O147 C130 1.260 . S
O147 Eu131 2.480 . S
O148 Eu131 2.430 . S
O148 C138 1.259 . S
O149 Eu121 2.355 . S
O149 Eu131 2.670 . S
O149 C138 1.270 . S
O150 Eu131 2.394 . S
O150 C139 1.251 . S
O151 Eu121 2.374 . S
O151 C139 1.251 . S
H152 C123 0.931 . S
H153 C124 0.931 . S
H154 C126 0.931 . S
H155 C127 0.931 . S
H156 C133 0.931 . S
H157 C134 0.931 . S
H158 C136 0.931 . S
H159 C137 0.931 . S
C160 Eu161 2.835 . S
C160 C162 1.500 . S
C160 O180 1.257 . S
C160 O181 1.260 . S
Eu161 C160 2.835 . S
Eu161 O180 2.473 . S
Eu161 O181 2.480 . S
Eu161 O182 2.430 1_445 S
Eu161 O183 2.670 1_445 S
Eu161 O184 2.394 1_455 S
Eu161 O189 2.355 . S
Eu161 O191 2.374 1_545 S
C162 C160 1.500 . S
C162 C163 1.377 . S
C162 C167 1.377 . S
C163 C162 1.377 . S
C163 C164 1.395 . S
C163 H192 0.931 . S
C164 C163 1.395 . S
C164 C165 1.383 . S
C164 H193 0.931 . S
C165 C164 1.383 . S
C165 C166 1.394 . S
C166 C165 1.394 . S
C166 C167 1.378 . S
C166 H194 0.931 . S
C167 C162 1.377 . S
C167 C166 1.378 . S
C167 H195 0.931 . S
C168 O182 1.259 . S
C168 O183 1.270 . S
C169 O184 1.251 . S
C169 O185 1.251 . S
C170 Eu171 2.835 . S
C170 C172 1.500 . S
C170 O186 1.257 . S
C170 O187 1.260 . S
Eu171 C170 2.835 . S
Eu171 O183 2.355 . S
Eu171 O185 2.374 1_565 S
Eu171 O186 2.473 . S
Eu171 O187 2.480 . S
Eu171 O188 2.430 1_665 S
Eu171 O189 2.670 1_665 S
Eu171 O190 2.394 1_655 S
C172 C170 1.500 . S
C172 C173 1.377 . S
C172 C177 1.377 . S
C173 C172 1.377 . S
C173 C174 1.395 . S
C173 H196 0.931 . S
C174 C173 1.395 . S
C174 C175 1.383 . S
C174 H197 0.931 . S
C175 C174 1.383 . S
C175 C176 1.394 . S
C176 C175 1.394 . S
C176 C177 1.378 . S
C176 H198 0.931 . S
C177 C172 1.377 . S
C177 C176 1.378 . S
C177 H199 0.931 . S
C178 O188 1.259 . S
C178 O189 1.270 . S
C179 O190 1.251 . S
C179 O191 1.251 . S
O180 C160 1.257 . S
O180 Eu161 2.473 . S
O181 C160 1.260 . S
O181 Eu161 2.480 . S
O182 Eu161 2.430 1_665 S
O182 C168 1.259 . S
O183 Eu161 2.670 1_665 S
O183 C168 1.270 . S
O183 Eu171 2.355 . S
O184 Eu161 2.394 1_655 S
O184 C169 1.251 . S
O185 C169 1.251 . S
O185 Eu171 2.374 1_545 S
O186 C170 1.257 . S
O186 Eu171 2.473 . S
O187 C170 1.260 . S
O187 Eu171 2.480 . S
O188 Eu171 2.430 1_445 S
O188 C178 1.259 . S
O189 Eu161 2.355 . S
O189 Eu171 2.670 1_445 S
O189 C178 1.270 . S
O190 Eu171 2.394 1_455 S
O190 C179 1.251 . S
O191 Eu161 2.374 1_565 S
O191 C179 1.251 . S
H192 C163 0.931 . S
H193 C164 0.931 . S
H194 C166 0.931 . S
H195 C167 0.931 . S
H196 C173 0.931 . S
H197 C174 0.931 . S
H198 C176 0.931 . S
H199 C177 0.931 . S
C200 Eu201 2.835 . S
C200 C202 1.500 . S
C200 O220 1.257 . S
C200 O221 1.260 . S
Eu201 C200 2.835 . S
Eu201 O220 2.473 . S
Eu201 O221 2.480 . S
Eu201 O222 2.430 . S
Eu201 O223 2.670 . S
Eu201 O224 2.394 . S
Eu201 O229 2.355 . S
Eu201 O231 2.374 . S
C202 C200 1.500 . S
C202 C203 1.377 . S
C202 C207 1.377 . S
C203 C202 1.377 . S
C203 C204 1.395 . S
C203 H232 0.931 . S
C204 C203 1.395 . S
C204 C205 1.383 . S
C204 H233 0.931 . S
C205 C204 1.383 . S
C205 C206 1.394 . S
C206 C205 1.394 . S
C206 C207 1.378 . S
C206 H234 0.931 . S
C207 C202 1.377 . S
C207 C206 1.378 . S
C207 H235 0.931 . S
C208 O222 1.259 . S
C208 O223 1.270 . S
C209 O224 1.251 . S
C209 O225 1.251 . S
C210 Eu211 2.835 . S
C210 C212 1.500 . S
C210 O226 1.257 . S
C210 O227 1.260 . S
Eu211 C210 2.835 . S
Eu211 O223 2.355 . S
Eu211 O225 2.374 . S
Eu211 O226 2.473 . S
Eu211 O227 2.480 . S
Eu211 O228 2.430 . S
Eu211 O229 2.670 . S
Eu211 O230 2.394 . S
C212 C210 1.500 . S
C212 C213 1.377 . S
C212 C217 1.377 . S
C213 C212 1.377 . S
C213 C214 1.395 . S
C213 H236 0.931 . S
C214 C213 1.395 . S
C214 C215 1.383 . S
C214 H237 0.931 . S
C215 C214 1.383 . S
C215 C216 1.394 . S
C216 C215 1.394 . S
C216 C217 1.378 . S
C216 H238 0.931 . S
C217 C212 1.377 . S
C217 C216 1.378 . S
C217 H239 0.931 . S
C218 O228 1.259 . S
C218 O229 1.270 . S
C219 O230 1.251 . S
C219 O231 1.251 . S
O220 C200 1.257 . S
O220 Eu201 2.473 . S
O221 C200 1.260 . S
O221 Eu201 2.480 . S
O222 Eu201 2.430 . S
O222 C208 1.259 . S
O223 Eu201 2.670 . S
O223 C208 1.270 . S
O223 Eu211 2.355 . S
O224 Eu201 2.394 . S
O224 C209 1.251 . S
O225 C209 1.251 . S
O225 Eu211 2.374 . S
O226 C210 1.257 . S
O226 Eu211 2.473 . S
O227 C210 1.260 . S
O227 Eu211 2.480 . S
O228 Eu211 2.430 . S
O228 C218 1.259 . S
O229 Eu201 2.355 . S
O229 Eu211 2.670 . S
O229 C218 1.270 . S
O230 Eu211 2.394 . S
O230 C219 1.251 . S
O231 Eu201 2.374 . S
O231 C219 1.251 . S
H232 C203 0.931 . S
H233 C204 0.931 . S
H234 C206 0.931 . S
H235 C207 0.931 . S
H236 C213 0.931 . S
H237 C214 0.931 . S
H238 C216 0.931 . S
H239 C217 0.931 . S
C240 Eu241 2.835 1_554 S
C240 C242 1.500 . S
C240 O260 1.257 . S
C240 O261 1.260 1_554 S
Eu241 C240 2.835 1_556 S
Eu241 O260 2.473 1_556 S
Eu241 O261 2.480 . S
Eu241 O262 2.430 1_545 S
Eu241 O263 2.670 1_545 S
Eu241 O264 2.394 1_546 S
Eu241 O269 2.355 1_556 S
Eu241 O271 2.374 . S
C242 C240 1.500 . S
C242 C243 1.377 . S
C242 C247 1.377 . S
C243 C242 1.377 . S
C243 C244 1.395 . S
C243 H272 0.938 . S
C244 C243 1.395 . S
C244 C245 1.383 . S
C244 H273 0.931 . S
C245 C244 1.383 . S
C245 C246 1.394 . S
C246 C245 1.394 . S
C246 C247 1.378 . S
C246 H274 0.931 . S
C247 C242 1.377 . S
C247 C246 1.378 . S
C247 H275 0.931 . S
C248 O262 1.259 . S
C248 O263 1.270 . S
C249 O264 1.251 . S
C249 O265 1.251 . S
C250 Eu251 2.835 1_556 S
C250 C252 1.500 . S
C250 O266 1.257 . S
C250 O267 1.260 1_556 S
Eu251 C250 2.835 1_554 S
Eu251 O263 2.355 1_554 S
Eu251 O265 2.374 . S
Eu251 O266 2.473 1_554 S
Eu251 O267 2.480 . S
Eu251 O268 2.430 1_565 S
Eu251 O269 2.670 1_565 S
Eu251 O270 2.394 1_564 S
C252 C250 1.500 . S
C252 C253 1.377 . S
C252 C257 1.377 . S
C253 C252 1.377 . S
C253 C254 1.395 . S
C253 H276 0.924 1_556 S
C254 C253 1.395 . S
C254 C255 1.383 . S
C254 H277 0.931 . S
C255 C254 1.383 . S
C255 C256 1.394 . S
C256 C255 1.394 . S
C256 C257 1.378 . S
C256 H278 0.931 . S
C257 C252 1.377 . S
C257 C256 1.378 . S
C257 H279 0.931 . S
C258 O268 1.259 . S
C258 O269 1.270 . S
C259 O270 1.251 . S
C259 O271 1.251 . S
O260 C240 1.257 . S
O260 Eu241 2.473 1_554 S
O261 C240 1.260 1_556 S
O261 Eu241 2.480 . S
O262 Eu241 2.430 1_565 S
O262 C248 1.259 . S
O263 Eu241 2.670 1_565 S
O263 C248 1.270 . S
O263 Eu251 2.355 1_556 S
O264 Eu241 2.394 1_564 S
O264 C249 1.251 . S
O265 C249 1.251 . S
O265 Eu251 2.374 . S
O266 C250 1.257 . S
O266 Eu251 2.473 1_556 S
O267 C250 1.260 1_554 S
O267 Eu251 2.480 . S
O268 Eu251 2.430 1_545 S
O268 C258 1.259 . S
O269 Eu241 2.355 1_554 S
O269 Eu251 2.670 1_545 S
O269 C258 1.270 . S
O270 Eu251 2.394 1_546 S
O270 C259 1.251 . S
O271 Eu241 2.374 . S
O271 C259 1.251 . S
H272 C243 0.938 . S
H273 C244 0.931 . S
H274 C246 0.931 . S
H275 C247 0.931 . S
H276 C253 0.924 1_554 S
H277 C254 0.931 . S
H278 C256 0.931 . S
H279 C257 0.931 . S
C280 Eu281 2.835 . S
C280 C282 1.500 . S
C280 O300 1.257 . S
C280 O301 1.260 . S
Eu281 C280 2.835 . S
Eu281 O300 2.473 . S
Eu281 O301 2.480 . S
Eu281 O302 2.430 . S
Eu281 O303 2.670 . S
Eu281 O304 2.394 . S
Eu281 O309 2.355 . S
Eu281 O311 2.374 . S
C282 C280 1.500 . S
C282 C283 1.377 . S
C282 C287 1.377 . S
C283 C282 1.377 . S
C283 C284 1.395 . S
C283 H312 0.931 . S
C284 C283 1.395 . S
C284 C285 1.383 . S
C284 H313 0.931 . S
C285 C284 1.383 . S
C285 C286 1.394 . S
C286 C285 1.394 . S
C286 C287 1.378 . S
C286 H314 0.931 . S
C287 C282 1.377 . S
C287 C286 1.378 . S
C287 H315 0.931 . S
C288 O302 1.259 . S
C288 O303 1.270 . S
C289 O304 1.251 . S
C289 O305 1.251 . S
C290 Eu291 2.835 . S
C290 C292 1.500 . S
C290 O306 1.257 . S
C290 O307 1.260 . S
Eu291 C290 2.835 . S
Eu291 O303 2.355 . S
Eu291 O305 2.374 . S
Eu291 O306 2.473 . S
Eu291 O307 2.480 . S
Eu291 O308 2.430 . S
Eu291 O309 2.670 . S
Eu291 O310 2.394 . S
C292 C290 1.500 . S
C292 C293 1.377 . S
C292 C297 1.377 . S
C293 C292 1.377 . S
C293 C294 1.395 . S
C293 H316 0.931 . S
C294 C293 1.395 . S
C294 C295 1.383 . S
C294 H317 0.931 . S
C295 C294 1.383 . S
C295 C296 1.394 . S
C296 C295 1.394 . S
C296 C297 1.378 . S
C296 H318 0.931 . S
C297 C292 1.377 . S
C297 C296 1.378 . S
C297 H319 0.931 . S
C298 O308 1.259 . S
C298 O309 1.270 . S
C299 O310 1.251 . S
C299 O311 1.251 . S
O300 C280 1.257 . S
O300 Eu281 2.473 . S
O301 C280 1.260 . S
O301 Eu281 2.480 . S
O302 Eu281 2.430 . S
O302 C288 1.259 . S
O303 Eu281 2.670 . S
O303 C288 1.270 . S
O303 Eu291 2.355 . S
O304 Eu281 2.394 . S
O304 C289 1.251 . S
O305 C289 1.251 . S
O305 Eu291 2.374 . S
O306 C290 1.257 . S
O306 Eu291 2.473 . S
O307 C290 1.260 . S
O307 Eu291 2.480 . S
O308 Eu291 2.430 . S
O308 C298 1.259 . S
O309 Eu281 2.355 . S
O309 Eu291 2.670 . S
O309 C298 1.270 . S
O310 Eu291 2.394 . S
O310 C299 1.251 . S
O311 Eu281 2.374 . S
O311 C299 1.251 . S
H312 C283 0.931 . S
H313 C284 0.931 . S
H314 C286 0.931 . S
H315 C287 0.931 . S
H316 C293 0.931 . S
H317 C294 0.931 . S
H318 C296 0.931 . S
H319 C297 0.931 . S
C320 Eu321 2.835 . S
C320 C322 1.500 . S
C320 O340 1.257 . S
C320 O341 1.260 . S
Eu321 C320 2.835 . S
Eu321 O340 2.473 . S
Eu321 O341 2.480 . S
Eu321 O342 2.430 . S
Eu321 O343 2.670 . S
Eu321 O344 2.394 . S
Eu321 O349 2.355 1_556 S
Eu321 O351 2.374 1_556 S
C322 C320 1.500 . S
C322 C323 1.377 . S
C322 C327 1.377 . S
C323 C322 1.377 . S
C323 C324 1.395 . S
C323 H352 0.931 . S
C324 C323 1.395 . S
C324 C325 1.383 . S
C324 H353 0.931 . S
C325 C324 1.383 . S
C325 C326 1.394 . S
C326 C325 1.394 . S
C326 C327 1.378 . S
C326 H354 0.931 . S
C327 C322 1.377 . S
C327 C326 1.378 . S
C327 H355 0.931 . S
C328 O342 1.259 . S
C328 O343 1.270 . S
C329 O344 1.251 . S
C329 O345 1.251 . S
C330 Eu331 2.835 . S
C330 C332 1.500 . S
C330 O346 1.257 . S
C330 O347 1.260 . S
Eu331 C330 2.835 . S
Eu331 O343 2.355 1_554 S
Eu331 O345 2.374 1_554 S
Eu331 O346 2.473 . S
Eu331 O347 2.480 . S
Eu331 O348 2.430 . S
Eu331 O349 2.670 . S
Eu331 O350 2.394 . S
C332 C330 1.500 . S
C332 C333 1.377 . S
C332 C337 1.377 . S
C333 C332 1.377 . S
C333 C334 1.395 . S
C333 H356 0.931 . S
C334 C333 1.395 . S
C334 C335 1.383 . S
C334 H357 0.931 . S
C335 C334 1.383 . S
C335 C336 1.394 . S
C336 C335 1.394 . S
C336 C337 1.378 . S
C336 H358 0.931 . S
C337 C332 1.377 . S
C337 C336 1.378 . S
C337 H359 0.931 . S
C338 O348 1.259 . S
C338 O349 1.270 . S
C339 O350 1.251 . S
C339 O351 1.251 . S
O340 C320 1.257 . S
O340 Eu321 2.473 . S
O341 C320 1.260 . S
O341 Eu321 2.480 . S
O342 Eu321 2.430 . S
O342 C328 1.259 . S
O343 Eu321 2.670 . S
O343 C328 1.270 . S
O343 Eu331 2.355 1_556 S
O344 Eu321 2.394 . S
O344 C329 1.251 . S
O345 C329 1.251 . S
O345 Eu331 2.374 1_556 S
O346 C330 1.257 . S
O346 Eu331 2.473 . S
O347 C330 1.260 . S
O347 Eu331 2.480 . S
O348 Eu331 2.430 . S
O348 C338 1.259 . S
O349 Eu321 2.355 1_554 S
O349 Eu331 2.670 . S
O349 C338 1.270 . S
O350 Eu331 2.394 . S
O350 C339 1.251 . S
O351 Eu321 2.374 1_554 S
O351 C339 1.251 . S
H352 C323 0.931 . S
H353 C324 0.931 . S
H354 C326 0.931 . S
H355 C327 0.931 . S
H356 C333 0.931 . S
H357 C334 0.931 . S
H358 C336 0.931 . S
H359 C337 0.931 . S
C360 Eu361 2.835 . S
C360 C362 1.500 . S
C360 O380 1.257 . S
C360 O381 1.260 . S
Eu361 C360 2.835 . S
Eu361 O380 2.473 . S
Eu361 O381 2.480 . S
Eu361 O382 2.430 . S
Eu361 O383 2.670 . S
Eu361 O384 2.394 . S
Eu361 O389 2.355 . S
Eu361 O391 2.374 . S
C362 C360 1.500 . S
C362 C363 1.377 . S
C362 C367 1.377 . S
C363 C362 1.377 . S
C363 C364 1.395 . S
C363 H392 0.931 . S
C364 C363 1.395 . S
C364 C365 1.383 . S
C364 H393 0.931 . S
C365 C364 1.383 . S
C365 C366 1.394 . S
C366 C365 1.394 . S
C366 C367 1.378 . S
C366 H394 0.931 . S
C367 C362 1.377 . S
C367 C366 1.378 . S
C367 H395 0.931 . S
C368 O382 1.259 . S
C368 O383 1.270 . S
C369 O384 1.251 . S
C369 O385 1.251 . S
C370 Eu371 2.835 . S
C370 C372 1.500 . S
C370 O386 1.257 . S
C370 O387 1.260 . S
Eu371 C370 2.835 . S
Eu371 O383 2.355 . S
Eu371 O385 2.374 . S
Eu371 O386 2.473 . S
Eu371 O387 2.480 . S
Eu371 O388 2.430 . S
Eu371 O389 2.670 . S
Eu371 O390 2.394 . S
C372 C370 1.500 . S
C372 C373 1.377 . S
C372 C377 1.377 . S
C373 C372 1.377 . S
C373 C374 1.395 . S
C373 H396 0.931 . S
C374 C373 1.395 . S
C374 C375 1.383 . S
C374 H397 0.931 . S
C375 C374 1.383 . S
C375 C376 1.394 . S
C376 C375 1.394 . S
C376 C377 1.378 . S
C376 H398 0.931 . S
C377 C372 1.377 . S
C377 C376 1.378 . S
C377 H399 0.931 . S
C378 O388 1.259 . S
C378 O389 1.270 . S
C379 O390 1.251 . S
C379 O391 1.251 . S
O380 C360 1.257 . S
O380 Eu361 2.473 . S
O381 C360 1.260 . S
O381 Eu361 2.480 . S
O382 Eu361 2.430 . S
O382 C368 1.259 . S
O383 Eu361 2.670 . S
O383 C368 1.270 . S
O383 Eu371 2.355 . S
O384 Eu361 2.394 . S
O384 C369 1.251 . S
O385 C369 1.251 . S
O385 Eu371 2.374 . S
O386 C370 1.257 . S
O386 Eu371 2.473 . S
O387 C370 1.260 . S
O387 Eu371 2.480 . S
O388 Eu371 2.430 . S
O388 C378 1.259 . S
O389 Eu361 2.355 . S
O389 Eu371 2.670 . S
O389 C378 1.270 . S
O390 Eu371 2.394 . S
O390 C379 1.251 . S
O391 Eu361 2.374 . S
O391 C379 1.251 . S
H392 C363 0.931 . S
H393 C364 0.931 . S
H394 C366 0.931 . S
H395 C367 0.931 . S
H396 C373 0.931 . S
H397 C374 0.931 . S
H398 C376 0.931 . S
H399 C377 0.931 . S
C400 Eu401 2.835 . S
C400 C402 1.500 . S
C400 O420 1.257 . S
C400 O421 1.260 . S
Eu401 C400 2.835 . S
Eu401 O420 2.473 . S
Eu401 O421 2.480 . S
Eu401 O422 2.430 . S
Eu401 O423 2.670 . S
Eu401 O424 2.394 . S
Eu401 O429 2.355 1_655 S
Eu401 O431 2.374 1_655 S
C402 C400 1.500 . S
C402 C403 1.377 . S
C402 C407 1.377 . S
C403 C402 1.377 . S
C403 C404 1.395 . S
C403 H432 0.931 . S
C404 C403 1.395 . S
C404 C405 1.383 . S
C404 H433 0.931 . S
C405 C404 1.383 . S
C405 C406 1.394 . S
C406 C405 1.394 . S
C406 C407 1.378 . S
C406 H434 0.931 . S
C407 C402 1.377 . S
C407 C406 1.378 . S
C407 H435 0.931 . S
C408 O422 1.259 . S
C408 O423 1.270 . S
C409 O424 1.251 . S
C409 O425 1.251 . S
C410 Eu411 2.835 . S
C410 C412 1.500 . S
C410 O426 1.257 . S
C410 O427 1.260 . S
Eu411 C410 2.835 . S
Eu411 O423 2.355 1_455 S
Eu411 O425 2.374 1_455 S
Eu411 O426 2.473 . S
Eu411 O427 2.480 . S
Eu411 O428 2.430 . S
Eu411 O429 2.670 . S
Eu411 O430 2.394 . S
C412 C410 1.500 . S
C412 C413 1.377 . S
C412 C417 1.377 . S
C413 C412 1.377 . S
C413 C414 1.395 . S
C413 H436 0.931 . S
C414 C413 1.395 . S
C414 C415 1.383 . S
C414 H437 0.931 . S
C415 C414 1.383 . S
C415 C416 1.394 . S
C416 C415 1.394 . S
C416 C417 1.378 . S
C416 H438 0.931 . S
C417 C412 1.377 . S
C417 C416 1.378 . S
C417 H439 0.931 . S
C418 O428 1.259 . S
C418 O429 1.270 . S
C419 O430 1.251 . S
C419 O431 1.251 . S
O420 C400 1.257 . S
O420 Eu401 2.473 . S
O421 C400 1.260 . S
O421 Eu401 2.480 . S
O422 Eu401 2.430 . S
O422 C408 1.259 . S
O423 Eu401 2.670 . S
O423 C408 1.270 . S
O423 Eu411 2.355 1_655 S
O424 Eu401 2.394 . S
O424 C409 1.251 . S
O425 C409 1.251 . S
O425 Eu411 2.374 1_655 S
O426 C410 1.257 . S
O426 Eu411 2.473 . S
O427 C410 1.260 . S
O427 Eu411 2.480 . S
O428 Eu411 2.430 . S
O428 C418 1.259 . S
O429 Eu401 2.355 1_455 S
O429 Eu411 2.670 . S
O429 C418 1.270 . S
O430 Eu411 2.394 . S
O430 C419 1.251 . S
O431 Eu401 2.374 1_455 S
O431 C419 1.251 . S
H432 C403 0.931 . S
H433 C404 0.931 . S
H434 C406 0.931 . S
H435 C407 0.931 . S
H436 C413 0.931 . S
H437 C414 0.931 . S
H438 C416 0.931 . S
H439 C417 0.931 . S
C440 Eu441 2.835 . S
C440 C442 1.500 . S
C440 O460 1.257 . S
C440 O461 1.260 . S
Eu441 C440 2.835 . S
Eu441 O460 2.473 . S
Eu441 O461 2.480 . S
Eu441 O462 2.430 . S
Eu441 O463 2.670 . S
Eu441 O464 2.394 . S
Eu441 O469 2.355 . S
Eu441 O471 2.374 . S
C442 C440 1.500 . S
C442 C443 1.377 . S
C442 C447 1.377 . S
C443 C442 1.377 . S
C443 C444 1.395 . S
C443 H472 0.931 . S
C444 C443 1.395 . S
C444 C445 1.383 . S
C444 H473 0.931 . S
C445 C444 1.383 . S
C445 C446 1.394 . S
C446 C445 1.394 . S
C446 C447 1.378 . S
C446 H474 0.931 . S
C447 C442 1.377 . S
C447 C446 1.378 . S
C447 H475 0.931 . S
C448 O462 1.259 . S
C448 O463 1.270 . S
C449 O464 1.251 . S
C449 O465 1.251 . S
C450 Eu451 2.835 . S
C450 C452 1.500 . S
C450 O466 1.257 . S
C450 O467 1.260 . S
Eu451 C450 2.835 . S
Eu451 O463 2.355 . S
Eu451 O465 2.374 . S
Eu451 O466 2.473 . S
Eu451 O467 2.480 . S
Eu451 O468 2.430 . S
Eu451 O469 2.670 . S
Eu451 O470 2.394 . S
C452 C450 1.500 . S
C452 C453 1.377 . S
C452 C457 1.377 . S
C453 C452 1.377 . S
C453 C454 1.395 . S
C453 H476 0.931 . S
C454 C453 1.395 . S
C454 C455 1.383 . S
C454 H477 0.931 . S
C455 C454 1.383 . S
C455 C456 1.394 . S
C456 C455 1.394 . S
C456 C457 1.378 . S
C456 H478 0.931 . S
C457 C452 1.377 . S
C457 C456 1.378 . S
C457 H479 0.931 . S
C458 O468 1.259 . S
C458 O469 1.270 . S
C459 O470 1.251 . S
C459 O471 1.251 . S
O460 C440 1.257 . S
O460 Eu441 2.473 . S
O461 C440 1.260 . S
O461 Eu441 2.480 . S
O462 Eu441 2.430 . S
O462 C448 1.259 . S
O463 Eu441 2.670 . S
O463 C448 1.270 . S
O463 Eu451 2.355 . S
O464 Eu441 2.394 . S
O464 C449 1.251 . S
O465 C449 1.251 . S
O465 Eu451 2.374 . S
O466 C450 1.257 . S
O466 Eu451 2.473 . S
O467 C450 1.260 . S
O467 Eu451 2.480 . S
O468 Eu451 2.430 . S
O468 C458 1.259 . S
O469 Eu441 2.355 . S
O469 Eu451 2.670 . S
O469 C458 1.270 . S
O470 Eu451 2.394 . S
O470 C459 1.251 . S
O471 Eu441 2.374 . S
O471 C459 1.251 . S
H472 C443 0.931 . S
H473 C444 0.931 . S
H474 C446 0.931 . S
H475 C447 0.931 . S
H476 C453 0.931 . S
H477 C454 0.931 . S
H478 C456 0.931 . S
H479 C457 0.931 . S
C480 Eu481 2.835 . S
C480 C482 1.500 . S
C480 O500 1.257 . S
C480 O501 1.260 . S
Eu481 C480 2.835 . S
Eu481 O500 2.473 . S
Eu481 O501 2.480 . S
Eu481 O502 2.430 . S
Eu481 O503 2.670 . S
Eu481 O504 2.394 . S
Eu481 O509 2.355 . S
Eu481 O511 2.374 . S
C482 C480 1.500 . S
C482 C483 1.377 . S
C482 C487 1.377 . S
C483 C482 1.377 . S
C483 C484 1.395 . S
C483 H512 0.931 . S
C484 C483 1.395 . S
C484 C485 1.383 . S
C484 H513 0.931 . S
C485 C484 1.383 . S
C485 C486 1.394 . S
C486 C485 1.394 . S
C486 C487 1.378 . S
C486 H514 0.931 . S
C487 C482 1.377 . S
C487 C486 1.378 . S
C487 H515 0.931 . S
C488 O502 1.259 . S
C488 O503 1.270 . S
C489 O504 1.251 . S
C489 O505 1.251 . S
C490 Eu491 2.835 . S
C490 C492 1.500 . S
C490 O506 1.257 . S
C490 O507 1.260 . S
Eu491 C490 2.835 . S
Eu491 O503 2.355 . S
Eu491 O505 2.374 . S
Eu491 O506 2.473 . S
Eu491 O507 2.480 . S
Eu491 O508 2.430 . S
Eu491 O509 2.670 . S
Eu491 O510 2.394 . S
C492 C490 1.500 . S
C492 C493 1.377 . S
C492 C497 1.377 . S
C493 C492 1.377 . S
C493 C494 1.395 . S
C493 H516 0.931 . S
C494 C493 1.395 . S
C494 C495 1.383 . S
C494 H517 0.931 . S
C495 C494 1.383 . S
C495 C496 1.394 . S
C496 C495 1.394 . S
C496 C497 1.378 . S
C496 H518 0.931 . S
C497 C492 1.377 . S
C497 C496 1.378 . S
C497 H519 0.931 . S
C498 O508 1.259 . S
C498 O509 1.270 . S
C499 O510 1.251 . S
C499 O511 1.251 . S
O500 C480 1.257 . S
O500 Eu481 2.473 . S
O501 C480 1.260 . S
O501 Eu481 2.480 . S
O502 Eu481 2.430 . S
O502 C488 1.259 . S
O503 Eu481 2.670 . S
O503 C488 1.270 . S
O503 Eu491 2.355 . S
O504 Eu481 2.394 . S
O504 C489 1.251 . S
O505 C489 1.251 . S
O505 Eu491 2.374 . S
O506 C490 1.257 . S
O506 Eu491 2.473 . S
O507 C490 1.260 . S
O507 Eu491 2.480 . S
O508 Eu491 2.430 . S
O508 C498 1.259 . S
O509 Eu481 2.355 . S
O509 Eu491 2.670 . S
O509 C498 1.270 . S
O510 Eu491 2.394 . S
O510 C499 1.251 . S
O511 Eu481 2.374 . S
O511 C499 1.251 . S
H512 C483 0.931 . S
H513 C484 0.931 . S
H514 C486 0.931 . S
H515 C487 0.931 . S
H516 C493 0.931 . S
H517 C494 0.931 . S
H518 C496 0.931 . S
H519 C497 0.931 . S
C520 Eu521 2.835 . S
C520 C522 1.500 . S
C520 O540 1.257 . S
C520 O541 1.260 . S
Eu521 C520 2.835 . S
Eu521 O540 2.473 . S
Eu521 O541 2.480 . S
Eu521 O542 2.430 . S
Eu521 O543 2.670 . S
Eu521 O544 2.394 . S
Eu521 O549 2.355 . S
Eu521 O551 2.374 . S
C522 C520 1.500 . S
C522 C523 1.377 . S
C522 C527 1.377 . S
C523 C522 1.377 . S
C523 C524 1.395 . S
C523 H552 0.931 . S
C524 C523 1.395 . S
C524 C525 1.383 . S
C524 H553 0.931 . S
C525 C524 1.383 . S
C525 C526 1.394 . S
C526 C525 1.394 . S
C526 C527 1.378 . S
C526 H554 0.931 . S
C527 C522 1.377 . S
C527 C526 1.378 . S
C527 H555 0.931 . S
C528 O542 1.259 . S
C528 O543 1.270 . S
C529 O544 1.251 . S
C529 O545 1.251 . S
C530 Eu531 2.835 . S
C530 C532 1.500 . S
C530 O546 1.257 . S
C530 O547 1.260 . S
Eu531 C530 2.835 . S
Eu531 O543 2.355 . S
Eu531 O545 2.374 . S
Eu531 O546 2.473 . S
Eu531 O547 2.480 . S
Eu531 O548 2.430 . S
Eu531 O549 2.670 . S
Eu531 O550 2.394 . S
C532 C530 1.500 . S
C532 C533 1.377 . S
C532 C537 1.377 . S
C533 C532 1.377 . S
C533 C534 1.395 . S
C533 H556 0.931 . S
C534 C533 1.395 . S
C534 C535 1.383 . S
C534 H557 0.931 . S
C535 C534 1.383 . S
C535 C536 1.394 . S
C536 C535 1.394 . S
C536 C537 1.378 . S
C536 H558 0.931 . S
C537 C532 1.377 . S
C537 C536 1.378 . S
C537 H559 0.931 . S
C538 O548 1.259 . S
C538 O549 1.270 . S
C539 O550 1.251 . S
C539 O551 1.251 . S
O540 C520 1.257 . S
O540 Eu521 2.473 . S
O541 C520 1.260 . S
O541 Eu521 2.480 . S
O542 Eu521 2.430 . S
O542 C528 1.259 . S
O543 Eu521 2.670 . S
O543 C528 1.270 . S
O543 Eu531 2.355 . S
O544 Eu521 2.394 . S
O544 C529 1.251 . S
O545 C529 1.251 . S
O545 Eu531 2.374 . S
O546 C530 1.257 . S
O546 Eu531 2.473 . S
O547 C530 1.260 . S
O547 Eu531 2.480 . S
O548 Eu531 2.430 . S
O548 C538 1.259 . S
O549 Eu521 2.355 . S
O549 Eu531 2.670 . S
O549 C538 1.270 . S
O550 Eu531 2.394 . S
O550 C539 1.251 . S
O551 Eu521 2.374 . S
O551 C539 1.251 . S
H552 C523 0.931 . S
H553 C524 0.931 . S
H554 C526 0.931 . S
H555 C527 0.931 . S
H556 C533 0.931 . S
H557 C534 0.931 . S
H558 C536 0.931 . S
H559 C537 0.931 . S
C560 Eu561 2.835 . S
C560 C562 1.500 . S
C560 O580 1.257 . S
C560 O581 1.260 . S
Eu561 C560 2.835 . S
Eu561 O580 2.473 . S
Eu561 O581 2.480 . S
Eu561 O582 2.430 . S
Eu561 O583 2.670 . S
Eu561 O584 2.394 . S
Eu561 O589 2.355 . S
Eu561 O591 2.374 . S
C562 C560 1.500 . S
C562 C563 1.377 . S
C562 C567 1.377 . S
C563 C562 1.377 . S
C563 C564 1.395 . S
C563 H592 0.931 . S
C564 C563 1.395 . S
C564 C565 1.383 . S
C564 H593 0.931 . S
C565 C564 1.383 . S
C565 C566 1.394 . S
C566 C565 1.394 . S
C566 C567 1.378 . S
C566 H594 0.931 . S
C567 C562 1.377 . S
C567 C566 1.378 . S
C567 H595 0.931 . S
C568 O582 1.259 . S
C568 O583 1.270 . S
C569 O584 1.251 . S
C569 O585 1.251 . S
C570 Eu571 2.835 . S
C570 C572 1.500 . S
C570 O586 1.257 . S
C570 O587 1.260 . S
Eu571 C570 2.835 . S
Eu571 O583 2.355 . S
Eu571 O585 2.374 . S
Eu571 O586 2.473 . S
Eu571 O587 2.480 . S
Eu571 O588 2.430 . S
Eu571 O589 2.670 . S
Eu571 O590 2.394 . S
C572 C570 1.500 . S
C572 C573 1.377 . S
C572 C577 1.377 . S
C573 C572 1.377 . S
C573 C574 1.395 . S
C573 H596 0.931 . S
C574 C573 1.395 . S
C574 C575 1.383 . S
C574 H597 0.931 . S
C575 C574 1.383 . S
C575 C576 1.394 . S
C576 C575 1.394 . S
C576 C577 1.378 . S
C576 H598 0.931 . S
C577 C572 1.377 . S
C577 C576 1.378 . S
C577 H599 0.931 . S
C578 O588 1.259 . S
C578 O589 1.270 . S
C579 O590 1.251 . S
C579 O591 1.251 . S
O580 C560 1.257 . S
O580 Eu561 2.473 . S
O581 C560 1.260 . S
O581 Eu561 2.480 . S
O582 Eu561 2.430 . S
O582 C568 1.259 . S
O583 Eu561 2.670 . S
O583 C568 1.270 . S
O583 Eu571 2.355 . S
O584 Eu561 2.394 . S
O584 C569 1.251 . S
O585 C569 1.251 . S
O585 Eu571 2.374 . S
O586 C570 1.257 . S
O586 Eu571 2.473 . S
O587 C570 1.260 . S
O587 Eu571 2.480 . S
O588 Eu571 2.430 . S
O588 C578 1.259 . S
O589 Eu561 2.355 . S
O589 Eu571 2.670 . S
O589 C578 1.270 . S
O590 Eu571 2.394 . S
O590 C579 1.251 . S
O591 Eu561 2.374 . S
O591 C579 1.251 . S
H592 C563 0.931 . S
H593 C564 0.931 . S
H594 C566 0.931 . S
H595 C567 0.931 . S
H596 C573 0.931 . S
H597 C574 0.931 . S
H598 C576 0.931 . S
H599 C577 0.931 . S
C600 Eu601 2.835 . S
C600 C602 1.500 . S
C600 O620 1.257 . S
C600 O621 1.260 . S
Eu601 C600 2.835 . S
Eu601 O620 2.473 . S
Eu601 O621 2.480 . S
Eu601 O622 2.430 1_556 S
Eu601 O623 2.670 1_556 S
Eu601 O624 2.394 1_556 S
Eu601 O629 2.355 1_455 S
Eu601 O631 2.374 1_455 S
C602 C600 1.500 . S
C602 C603 1.377 . S
C602 C607 1.377 . S
C603 C602 1.377 . S
C603 C604 1.395 . S
C603 H632 0.931 . S
C604 C603 1.395 . S
C604 C605 1.383 . S
C604 H633 0.931 . S
C605 C604 1.383 . S
C605 C606 1.394 . S
C606 C605 1.394 . S
C606 C607 1.378 . S
C606 H634 0.931 . S
C607 C602 1.377 . S
C607 C606 1.378 . S
C607 H635 0.931 . S
C608 O622 1.259 . S
C608 O623 1.270 . S
C609 O624 1.251 . S
C609 O625 1.251 . S
C610 Eu611 2.835 . S
C610 C612 1.500 . S
C610 O626 1.257 . S
C610 O627 1.260 . S
Eu611 C610 2.835 . S
Eu611 O623 2.355 1_655 S
Eu611 O625 2.374 1_655 S
Eu611 O626 2.473 . S
Eu611 O627 2.480 . S
Eu611 O628 2.430 1_554 S
Eu611 O629 2.670 1_554 S
Eu611 O630 2.394 1_554 S
C612 C610 1.500 . S
C612 C613 1.377 . S
C612 C617 1.377 . S
C613 C612 1.377 . S
C613 C614 1.395 . S
C613 H636 0.931 . S
C614 C613 1.395 . S
C614 C615 1.383 . S
C614 H637 0.931 . S
C615 C614 1.383 . S
C615 C616 1.394 . S
C616 C615 1.394 . S
C616 C617 1.378 . S
C616 H638 0.931 . S
C617 C612 1.377 . S
C617 C616 1.378 . S
C617 H639 0.931 . S
C618 O628 1.259 . S
C618 O629 1.270 . S
C619 O630 1.251 . S
C619 O631 1.251 . S
O620 C600 1.257 . S
O620 Eu601 2.473 . S
O621 C600 1.260 . S
O621 Eu601 2.480 . S
O622 Eu601 2.430 1_554 S
O622 C608 1.259 . S
O623 Eu601 2.670 1_554 S
O623 C608 1.270 . S
O623 Eu611 2.355 1_455 S
O624 Eu601 2.394 1_554 S
O624 C609 1.251 . S
O625 C609 1.251 . S
O625 Eu611 2.374 1_455 S
O626 C610 1.257 . S
O626 Eu611 2.473 . S
O627 C610 1.260 . S
O627 Eu611 2.480 . S
O628 Eu611 2.430 1_556 S
O628 C618 1.259 . S
O629 Eu601 2.355 1_655 S
O629 Eu611 2.670 1_556 S
O629 C618 1.270 . S
O630 Eu611 2.394 1_556 S
O630 C619 1.251 . S
O631 Eu601 2.374 1_655 S
O631 C619 1.251 . S
H632 C603 0.931 . S
H633 C604 0.931 . S
H634 C606 0.931 . S
H635 C607 0.931 . S
H636 C613 0.931 . S
H637 C614 0.931 . S
H638 C616 0.931 . S
H639 C617 0.931 . S
H640 C658 0.951 . S
H641 C660 0.951 . S
H642 C662 0.950 . S
H643 C663 0.950 . S
H644 C665 0.950 . S
H645 C668 0.950 . S
H646 C669 0.950 . S
H647 C671 0.950 . S
H648 C672 0.950 . S
H649 C673 0.951 . S
H650 C675 0.951 . S
H651 C677 0.950 . S
H652 C678 0.950 . S
H653 C680 0.950 . S
H654 C683 0.950 . S
H655 C684 0.950 . S
H656 C686 0.950 . S
H657 C687 0.950 . S
C658 H640 0.951 . S
C658 C659 1.366 . S
C658 C660 1.388 . S
C659 C658 1.366 . S
C659 C663 1.385 . S
C660 H641 0.951 . S
C660 C658 1.388 . S
C660 C661 1.366 . S
C661 C660 1.366 . S
C661 C662 1.414 . S
C661 C664 1.499 . S
C662 H642 0.950 . S
C662 C661 1.414 . S
C662 C663 1.374 . S
C663 H643 0.950 . S
C663 C659 1.385 . S
C663 C662 1.374 . S
C664 C661 1.499 . S
C664 C665 1.373 . S
C664 C666 1.389 . S
C665 H644 0.950 . S
C665 C664 1.373 . S
C665 C681 1.377 . S
C666 C664 1.389 . S
C666 C667 1.524 . S
C666 C680 1.377 . S
C667 C666 1.524 . S
C667 C668 1.397 . S
C667 C672 1.363 . S
C668 H645 0.950 . S
C668 C667 1.397 . S
C668 C669 1.334 . S
C669 H646 0.950 . S
C669 C668 1.334 . S
C669 C670 1.287 . S
C670 C669 1.287 . S
C670 C671 1.524 . S
C670 H689 0.913 . S
C671 H647 0.950 . S
C671 C670 1.524 . S
C671 C672 1.415 . S
C672 H648 0.950 . S
C672 C667 1.363 . S
C672 C671 1.415 . S
C673 H649 0.951 . S
C673 C674 1.366 . S
C673 C675 1.388 . S
C674 C673 1.366 . S
C674 C678 1.385 . S
C675 H650 0.951 . S
C675 C673 1.388 . S
C675 C676 1.366 . S
C676 C675 1.366 . S
C676 C677 1.414 . S
C676 C679 1.499 . S
C677 H651 0.950 . S
C677 C676 1.414 . S
C677 C678 1.374 . S
C678 H652 0.950 . S
C678 C674 1.385 . S
C678 C677 1.374 . S
C679 C676 1.499 . S
C679 C680 1.373 . S
C679 C681 1.389 . S
C680 H653 0.950 . S
C680 C666 1.377 . S
C680 C679 1.373 . S
C681 C665 1.377 . S
C681 C679 1.389 . S
C681 C682 1.524 . S
C682 C681 1.524 . S
C682 C683 1.397 . S
C682 C687 1.363 . S
C683 H654 0.950 . S
C683 C682 1.397 . S
C683 C684 1.334 . S
C684 H655 0.950 . S
C684 C683 1.334 . S
C684 C685 1.287 . S
C685 C684 1.287 . S
C685 C686 1.524 . S
C685 H688 0.999 . S
C686 H656 0.950 . S
C686 C685 1.524 . S
C686 C687 1.415 . S
C687 H657 0.950 . S
C687 C682 1.363 . S
C687 C686 1.415 . S
H688 C685 0.999 . S
H689 C670 0.913 . S
H690 C708 0.951 . S
H691 C710 0.951 . S
H692 C712 0.950 . S
H693 C713 0.950 . S
H694 C715 0.950 . S
H695 C718 0.950 . S
H696 C719 0.950 . S
H697 C721 0.950 . S
H698 C722 0.950 . S
H699 C723 0.951 . S
H700 C725 0.951 . S
H701 C727 0.950 . S
H702 C728 0.950 . S
H703 C730 0.950 . S
H704 C733 0.950 . S
H705 C734 0.950 . S
H706 C736 0.950 . S
H707 C737 0.950 . S
C708 H690 0.951 . S
C708 C709 1.366 . S
C708 C710 1.388 . S
C709 C708 1.366 . S
C709 C713 1.385 . S
C710 H691 0.951 . S
C710 C708 1.388 . S
C710 C711 1.366 . S
C711 C710 1.366 . S
C711 C712 1.414 . S
C711 C714 1.499 . S
C712 H692 0.950 . S
C712 C711 1.414 . S
C712 C713 1.374 . S
C713 H693 0.950 . S
C713 C709 1.385 . S
C713 C712 1.374 . S
C714 C711 1.499 . S
C714 C715 1.373 . S
C714 C716 1.389 . S
C715 H694 0.950 . S
C715 C714 1.373 . S
C715 C731 1.377 . S
C716 C714 1.389 . S
C716 C717 1.524 . S
C716 C730 1.377 . S
C717 C716 1.524 . S
C717 C718 1.397 . S
C717 C722 1.363 . S
C718 H695 0.950 . S
C718 C717 1.397 . S
C718 C719 1.334 . S
C719 H696 0.950 . S
C719 C718 1.334 . S
C719 C720 1.287 . S
C720 C719 1.287 . S
C720 C721 1.524 . S
C720 H739 0.913 . S
C721 H697 0.950 . S
C721 C720 1.524 . S
C721 C722 1.415 . S
C722 H698 0.950 . S
C722 C717 1.363 . S
C722 C721 1.415 . S
C723 H699 0.951 . S
C723 C724 1.366 . S
C723 C725 1.388 . S
C724 C723 1.366 . S
C724 C728 1.385 . S
C725 H700 0.951 . S
C725 C723 1.388 . S
C725 C726 1.366 . S
C726 C725 1.366 . S
C726 C727 1.414 . S
C726 C729 1.499 . S
C727 H701 0.950 . S
C727 C726 1.414 . S
C727 C728 1.374 . S
C728 H702 0.950 . S
C728 C724 1.385 . S
C728 C727 1.374 . S
C729 C726 1.499 . S
C729 C730 1.373 . S
C729 C731 1.389 . S
C730 H703 0.950 . S
C730 C716 1.377 . S
C730 C729 1.373 . S
C731 C715 1.377 . S
C731 C729 1.389 . S
C731 C732 1.524 . S
C732 C731 1.524 . S
C732 C733 1.397 . S
C732 C737 1.363 . S
C733 H704 0.950 . S
C733 C732 1.397 . S
C733 C734 1.334 . S
C734 H705 0.950 . S
C734 C733 1.334 . S
C734 C735 1.287 . S
C735 C734 1.287 . S
C735 C736 1.524 . S
C735 H738 0.999 . S
C736 H706 0.950 . S
C736 C735 1.524 . S
C736 C737 1.415 . S
C737 H707 0.950 . S
C737 C732 1.363 . S
C737 C736 1.415 . S
H738 C735 0.999 . S
H739 C720 0.913 . S
H740 C758 0.951 . S
H741 C760 0.951 . S
H742 C762 0.950 . S
H743 C763 0.950 . S
H744 C765 0.950 . S
H745 C768 0.950 . S
H746 C769 0.950 . S
H747 C771 0.950 . S
H748 C772 0.950 . S
H749 C773 0.951 . S
H750 C775 0.951 . S
H751 C777 0.950 . S
H752 C778 0.950 . S
H753 C780 0.950 . S
H754 C783 0.950 . S
H755 C784 0.950 . S
H756 C786 0.950 . S
H757 C787 0.950 . S
C758 H740 0.951 . S
C758 C759 1.366 . S
C758 C760 1.388 . S
C759 C758 1.366 . S
C759 C763 1.385 . S
C760 H741 0.951 . S
C760 C758 1.388 . S
C760 C761 1.366 . S
C761 C760 1.366 . S
C761 C762 1.414 . S
C761 C764 1.499 . S
C762 H742 0.950 . S
C762 C761 1.414 . S
C762 C763 1.374 . S
C763 H743 0.950 . S
C763 C759 1.385 . S
C763 C762 1.374 . S
C764 C761 1.499 . S
C764 C765 1.373 . S
C764 C766 1.389 . S
C765 H744 0.950 . S
C765 C764 1.373 . S
C765 C781 1.377 . S
C766 C764 1.389 . S
C766 C767 1.524 . S
C766 C780 1.377 . S
C767 C766 1.524 . S
C767 C768 1.397 . S
C767 C772 1.363 . S
C768 H745 0.950 . S
C768 C767 1.397 . S
C768 C769 1.334 . S
C769 H746 0.950 . S
C769 C768 1.334 . S
C769 C770 1.287 . S
C770 C769 1.287 . S
C770 C771 1.524 . S
C770 H789 0.913 . S
C771 H747 0.950 . S
C771 C770 1.524 . S
C771 C772 1.415 . S
C772 H748 0.950 . S
C772 C767 1.363 . S
C772 C771 1.415 . S
C773 H749 0.951 . S
C773 C774 1.366 . S
C773 C775 1.388 . S
C774 C773 1.366 . S
C774 C778 1.385 . S
C775 H750 0.951 . S
C775 C773 1.388 . S
C775 C776 1.366 . S
C776 C775 1.366 . S
C776 C777 1.414 . S
C776 C779 1.499 . S
C777 H751 0.950 . S
C777 C776 1.414 . S
C777 C778 1.374 . S
C778 H752 0.950 . S
C778 C774 1.385 . S
C778 C777 1.374 . S
C779 C776 1.499 . S
C779 C780 1.373 . S
C779 C781 1.389 . S
C780 H753 0.950 . S
C780 C766 1.377 . S
C780 C779 1.373 . S
C781 C765 1.377 . S
C781 C779 1.389 . S
C781 C782 1.524 . S
C782 C781 1.524 . S
C782 C783 1.397 . S
C782 C787 1.363 . S
C783 H754 0.950 . S
C783 C782 1.397 . S
C783 C784 1.334 . S
C784 H755 0.950 . S
C784 C783 1.334 . S
C784 C785 1.287 . S
C785 C784 1.287 . S
C785 C786 1.524 . S
C785 H788 0.999 . S
C786 H756 0.950 . S
C786 C785 1.524 . S
C786 C787 1.415 . S
C787 H757 0.950 . S
C787 C782 1.363 . S
C787 C786 1.415 . S
H788 C785 0.999 . S
H789 C770 0.913 . S
H790 C808 0.951 . S
H791 C810 0.951 . S
H792 C812 0.950 . S
H793 C813 0.950 . S
H794 C815 0.950 . S
H795 C818 0.950 . S
H796 C819 0.950 . S
H797 C821 0.950 . S
H798 C822 0.950 . S
H799 C823 0.951 . S
H800 C825 0.951 . S
H801 C827 0.950 . S
H802 C828 0.950 . S
H803 C830 0.950 . S
H804 C833 0.950 . S
H805 C834 0.950 . S
H806 C836 0.950 . S
H807 C837 0.950 . S
C808 H790 0.951 . S
C808 C809 1.366 . S
C808 C810 1.388 . S
C809 C808 1.366 . S
C809 C813 1.385 . S
C810 H791 0.951 . S
C810 C808 1.388 . S
C810 C811 1.366 . S
C811 C810 1.366 . S
C811 C812 1.414 . S
C811 C814 1.499 . S
C812 H792 0.950 . S
C812 C811 1.414 . S
C812 C813 1.374 . S
C813 H793 0.950 . S
C813 C809 1.385 . S
C813 C812 1.374 . S
C814 C811 1.499 . S
C814 C815 1.373 . S
C814 C816 1.389 . S
C815 H794 0.950 . S
C815 C814 1.373 . S
C815 C831 1.377 . S
C816 C814 1.389 . S
C816 C817 1.524 . S
C816 C830 1.377 . S
C817 C816 1.524 . S
C817 C818 1.397 . S
C817 C822 1.363 . S
C818 H795 0.950 . S
C818 C817 1.397 . S
C818 C819 1.334 . S
C819 H796 0.950 . S
C819 C818 1.334 . S
C819 C820 1.287 . S
C820 C819 1.287 . S
C820 C821 1.524 . S
C820 H839 0.913 . S
C821 H797 0.950 . S
C821 C820 1.524 . S
C821 C822 1.415 . S
C822 H798 0.950 . S
C822 C817 1.363 . S
C822 C821 1.415 . S
C823 H799 0.951 . S
C823 C824 1.366 . S
C823 C825 1.388 . S
C824 C823 1.366 . S
C824 C828 1.385 . S
C825 H800 0.951 . S
C825 C823 1.388 . S
C825 C826 1.366 . S
C826 C825 1.366 . S
C826 C827 1.414 . S
C826 C829 1.499 . S
C827 H801 0.950 . S
C827 C826 1.414 . S
C827 C828 1.374 . S
C828 H802 0.950 . S
C828 C824 1.385 . S
C828 C827 1.374 . S
C829 C826 1.499 . S
C829 C830 1.373 . S
C829 C831 1.389 . S
C830 H803 0.950 . S
C830 C816 1.377 . S
C830 C829 1.373 . S
C831 C815 1.377 . S
C831 C829 1.389 . S
C831 C832 1.524 . S
C832 C831 1.524 . S
C832 C833 1.397 . S
C832 C837 1.363 . S
C833 H804 0.950 . S
C833 C832 1.397 . S
C833 C834 1.334 . S
C834 H805 0.950 . S
C834 C833 1.334 . S
C834 C835 1.287 . S
C835 C834 1.287 . S
C835 C836 1.524 . S
C835 H838 0.999 . S
C836 H806 0.950 . S
C836 C835 1.524 . S
C836 C837 1.415 . S
C837 H807 0.950 . S
C837 C832 1.363 . S
C837 C836 1.415 . S
H838 C835 0.999 . S
H839 C820 0.913 . S
H840 C858 0.951 1_655 S
H841 C860 0.951 . S
H842 C862 0.950 . S
H843 C863 0.950 . S
H844 C865 0.950 . S
H845 C868 0.950 . S
H846 C869 0.950 . S
H847 C871 0.950 . S
H848 C872 0.950 . S
H849 C873 0.951 . S
H850 C875 0.951 . S
H851 C877 0.950 . S
H852 C878 0.950 . S
H853 C880 0.950 . S
H854 C883 0.950 . S
H855 C884 0.950 . S
H856 C886 0.950 . S
H857 C887 0.950 . S
C858 H840 0.951 1_455 S
C858 C859 1.366 . S
C858 C860 1.388 . S
C859 C858 1.366 . S
C859 C863 1.385 . S
C860 H841 0.951 . S
C860 C858 1.388 . S
C860 C861 1.366 . S
C861 C860 1.366 . S
C861 C862 1.414 . S
C861 C864 1.499 . S
C862 H842 0.950 . S
C862 C861 1.414 . S
C862 C863 1.374 . S
C863 H843 0.950 . S
C863 C859 1.385 . S
C863 C862 1.374 . S
C864 C861 1.499 . S
C864 C865 1.373 . S
C864 C866 1.389 . S
C865 H844 0.950 . S
C865 C864 1.373 . S
C865 C881 1.377 . S
C866 C864 1.389 . S
C866 C867 1.524 . S
C866 C880 1.377 . S
C867 C866 1.524 . S
C867 C868 1.397 . S
C867 C872 1.363 . S
C868 H845 0.950 . S
C868 C867 1.397 . S
C868 C869 1.334 . S
C869 H846 0.950 . S
C869 C868 1.334 . S
C869 C870 1.287 . S
C870 C869 1.287 . S
C870 C871 1.524 . S
C870 H889 0.913 . S
C871 H847 0.950 . S
C871 C870 1.524 . S
C871 C872 1.415 . S
C872 H848 0.950 . S
C872 C867 1.363 . S
C872 C871 1.415 . S
C873 H849 0.951 . S
C873 C874 1.366 . S
C873 C875 1.388 . S
C874 C873 1.366 . S
C874 C878 1.385 . S
C875 H850 0.951 . S
C875 C873 1.388 . S
C875 C876 1.366 . S
C876 C875 1.366 . S
C876 C877 1.414 . S
C876 C879 1.499 . S
C877 H851 0.950 . S
C877 C876 1.414 . S
C877 C878 1.374 . S
C878 H852 0.950 . S
C878 C874 1.385 . S
C878 C877 1.374 . S
C879 C876 1.499 . S
C879 C880 1.373 . S
C879 C881 1.389 . S
C880 H853 0.950 . S
C880 C866 1.377 . S
C880 C879 1.373 . S
C881 C865 1.377 . S
C881 C879 1.389 . S
C881 C882 1.524 . S
C882 C881 1.524 . S
C882 C883 1.397 . S
C882 C887 1.363 . S
C883 H854 0.950 . S
C883 C882 1.397 . S
C883 C884 1.334 . S
C884 H855 0.950 . S
C884 C883 1.334 . S
C884 C885 1.287 . S
C885 C884 1.287 . S
C885 C886 1.524 . S
C885 H888 0.999 . S
C886 H856 0.950 . S
C886 C885 1.524 . S
C886 C887 1.415 . S
C887 H857 0.950 . S
C887 C882 1.363 . S
C887 C886 1.415 . S
H888 C885 0.999 . S
H889 C870 0.913 . S
H890 C908 0.951 . S
H891 C910 0.951 . S
H892 C912 0.950 . S
H893 C913 0.950 . S
H894 C915 0.950 . S
H895 C918 0.950 . S
H896 C919 0.950 . S
H897 C921 0.950 . S
H898 C922 0.950 . S
H899 C923 0.951 . S
H900 C925 0.951 . S
H901 C927 0.950 . S
H902 C928 0.950 . S
H903 C930 0.950 . S
H904 C933 0.950 . S
H905 C934 0.950 . S
H906 C936 0.950 . S
H907 C937 0.950 . S
C908 H890 0.951 . S
C908 C909 1.366 . S
C908 C910 1.388 . S
C909 C908 1.366 . S
C909 C913 1.385 . S
C910 H891 0.951 . S
C910 C908 1.388 . S
C910 C911 1.366 . S
C911 C910 1.366 . S
C911 C912 1.414 . S
C911 C914 1.499 . S
C912 H892 0.950 . S
C912 C911 1.414 . S
C912 C913 1.374 . S
C913 H893 0.950 . S
C913 C909 1.385 . S
C913 C912 1.374 . S
C914 C911 1.499 . S
C914 C915 1.373 . S
C914 C916 1.389 . S
C915 H894 0.950 . S
C915 C914 1.373 . S
C915 C931 1.377 . S
C916 C914 1.389 . S
C916 C917 1.524 . S
C916 C930 1.377 . S
C917 C916 1.524 . S
C917 C918 1.397 . S
C917 C922 1.363 . S
C918 H895 0.950 . S
C918 C917 1.397 . S
C918 C919 1.334 . S
C919 H896 0.950 . S
C919 C918 1.334 . S
C919 C920 1.287 . S
C920 C919 1.287 . S
C920 C921 1.524 . S
C920 H939 0.913 . S
C921 H897 0.950 . S
C921 C920 1.524 . S
C921 C922 1.415 . S
C922 H898 0.950 . S
C922 C917 1.363 . S
C922 C921 1.415 . S
C923 H899 0.951 . S
C923 C924 1.366 . S
C923 C925 1.388 . S
C924 C923 1.366 . S
C924 C928 1.385 . S
C925 H900 0.951 . S
C925 C923 1.388 . S
C925 C926 1.366 . S
C926 C925 1.366 . S
C926 C927 1.414 . S
C926 C929 1.499 . S
C927 H901 0.950 . S
C927 C926 1.414 . S
C927 C928 1.374 . S
C928 H902 0.950 . S
C928 C924 1.385 . S
C928 C927 1.374 . S
C929 C926 1.499 . S
C929 C930 1.373 . S
C929 C931 1.389 . S
C930 H903 0.950 . S
C930 C916 1.377 . S
C930 C929 1.373 . S
C931 C915 1.377 . S
C931 C929 1.389 . S
C931 C932 1.524 . S
C932 C931 1.524 . S
C932 C933 1.397 . S
C932 C937 1.363 . S
C933 H904 0.950 . S
C933 C932 1.397 . S
C933 C934 1.334 . S
C934 H905 0.950 . S
C934 C933 1.334 . S
C934 C935 1.287 . S
C935 C934 1.287 . S
C935 C936 1.524 . S
C935 H938 0.999 . S
C936 H906 0.950 . S
C936 C935 1.524 . S
C936 C937 1.415 . S
C937 H907 0.950 . S
C937 C932 1.363 . S
C937 C936 1.415 . S
H938 C935 0.999 . S
H939 C920 0.913 . S
H940 C958 0.951 . S
H941 C960 0.951 . S
H942 C962 0.950 . S
H943 C963 0.950 . S
H944 C965 0.950 . S
H945 C968 0.950 . S
H946 C969 0.950 . S
H947 C971 0.950 . S
H948 C972 0.950 . S
H949 C973 0.951 . S
H950 C975 0.951 . S
H951 C977 0.950 . S
H952 C978 0.950 . S
H953 C980 0.950 . S
H954 C983 0.950 . S
H955 C984 0.950 . S
H956 C986 0.950 . S
H957 C987 0.950 . S
C958 H940 0.951 . S
C958 C959 1.366 . S
C958 C960 1.388 . S
C959 C958 1.366 . S
C959 C963 1.385 . S
C960 H941 0.951 . S
C960 C958 1.388 . S
C960 C961 1.366 . S
C961 C960 1.366 . S
C961 C962 1.414 . S
C961 C964 1.499 . S
C962 H942 0.950 . S
C962 C961 1.414 . S
C962 C963 1.374 . S
C963 H943 0.950 . S
C963 C959 1.385 . S
C963 C962 1.374 . S
C964 C961 1.499 . S
C964 C965 1.373 . S
C964 C966 1.389 . S
C965 H944 0.950 . S
C965 C964 1.373 . S
C965 C981 1.377 . S
C966 C964 1.389 . S
C966 C967 1.524 . S
C966 C980 1.377 . S
C967 C966 1.524 . S
C967 C968 1.397 . S
C967 C972 1.363 . S
C968 H945 0.950 . S
C968 C967 1.397 . S
C968 C969 1.334 . S
C969 H946 0.950 . S
C969 C968 1.334 . S
C969 C970 1.287 . S
C970 C969 1.287 . S
C970 C971 1.524 . S
C970 H989 0.913 . S
C971 H947 0.950 . S
C971 C970 1.524 . S
C971 C972 1.415 . S
C972 H948 0.950 . S
C972 C967 1.363 . S
C972 C971 1.415 . S
C973 H949 0.951 . S
C973 C974 1.366 . S
C973 C975 1.388 . S
C974 C973 1.366 . S
C974 C978 1.385 . S
C975 H950 0.951 . S
C975 C973 1.388 . S
C975 C976 1.366 . S
C976 C975 1.366 . S
C976 C977 1.414 . S
C976 C979 1.499 . S
C977 H951 0.950 . S
C977 C976 1.414 . S
C977 C978 1.374 . S
C978 H952 0.950 . S
C978 C974 1.385 . S
C978 C977 1.374 . S
C979 C976 1.499 . S
C979 C980 1.373 . S
C979 C981 1.389 . S
C980 H953 0.950 . S
C980 C966 1.377 . S
C980 C979 1.373 . S
C981 C965 1.377 . S
C981 C979 1.389 . S
C981 C982 1.524 . S
C982 C981 1.524 . S
C982 C983 1.397 . S
C982 C987 1.363 . S
C983 H954 0.950 . S
C983 C982 1.397 . S
C983 C984 1.334 . S
C984 H955 0.950 . S
C984 C983 1.334 . S
C984 C985 1.287 . S
C985 C984 1.287 . S
C985 C986 1.524 . S
C985 H988 0.999 . S
C986 H956 0.950 . S
C986 C985 1.524 . S
C986 C987 1.415 . S
C987 H957 0.950 . S
C987 C982 1.363 . S
C987 C986 1.415 . S
H988 C985 0.999 . S
H989 C970 0.913 . S
H990 C1008 0.951 . S
H991 C1010 0.951 . S
H992 C1012 0.950 . S
H993 C1013 0.950 . S
H994 C1015 0.950 . S
H995 C1018 0.950 . S
H996 C1019 0.950 . S
H997 C1021 0.950 . S
H998 C1022 0.950 . S
H999 C1023 0.951 . S
H1000 C1025 0.951 . S
H1001 C1027 0.950 . S
H1002 C1028 0.950 . S
H1003 C1030 0.950 . S
H1004 C1033 0.950 . S
H1005 C1034 0.950 . S
H1006 C1036 0.950 . S
H1007 C1037 0.950 . S
C1008 H990 0.951 . S
C1008 C1009 1.366 . S
C1008 C1010 1.388 . S
C1009 C1008 1.366 . S
C1009 C1013 1.385 . S
C1010 H991 0.951 . S
C1010 C1008 1.388 . S
C1010 C1011 1.366 . S
C1011 C1010 1.366 . S
C1011 C1012 1.414 . S
C1011 C1014 1.499 . S
C1012 H992 0.950 . S
C1012 C1011 1.414 . S
C1012 C1013 1.374 . S
C1013 H993 0.950 . S
C1013 C1009 1.385 . S
C1013 C1012 1.374 . S
C1014 C1011 1.499 . S
C1014 C1015 1.373 . S
C1014 C1016 1.389 . S
C1015 H994 0.950 . S
C1015 C1014 1.373 . S
C1015 C1031 1.377 . S
C1016 C1014 1.389 . S
C1016 C1017 1.524 . S
C1016 C1030 1.377 . S
C1017 C1016 1.524 . S
C1017 C1018 1.397 . S
C1017 C1022 1.363 . S
C1018 H995 0.950 . S
C1018 C1017 1.397 . S
C1018 C1019 1.334 . S
C1019 H996 0.950 . S
C1019 C1018 1.334 . S
C1019 C1020 1.287 . S
C1020 C1019 1.287 . S
C1020 C1021 1.524 . S
C1020 H1039 0.913 . S
C1021 H997 0.950 . S
C1021 C1020 1.524 . S
C1021 C1022 1.415 . S
C1022 H998 0.950 . S
C1022 C1017 1.363 . S
C1022 C1021 1.415 . S
C1023 H999 0.951 . S
C1023 C1024 1.366 . S
C1023 C1025 1.388 . S
C1024 C1023 1.366 . S
C1024 C1028 1.385 . S
C1025 H1000 0.951 . S
C1025 C1023 1.388 . S
C1025 C1026 1.366 . S
C1026 C1025 1.366 . S
C1026 C1027 1.414 . S
C1026 C1029 1.499 . S
C1027 H1001 0.950 . S
C1027 C1026 1.414 . S
C1027 C1028 1.374 . S
C1028 H1002 0.950 . S
C1028 C1024 1.385 . S
C1028 C1027 1.374 . S
C1029 C1026 1.499 . S
C1029 C1030 1.373 . S
C1029 C1031 1.389 . S
C1030 H1003 0.950 . S
C1030 C1016 1.377 . S
C1030 C1029 1.373 . S
C1031 C1015 1.377 . S
C1031 C1029 1.389 . S
C1031 C1032 1.524 . S
C1032 C1031 1.524 . S
C1032 C1033 1.397 . S
C1032 C1037 1.363 . S
C1033 H1004 0.950 . S
C1033 C1032 1.397 . S
C1033 C1034 1.334 . S
C1034 H1005 0.950 . S
C1034 C1033 1.334 . S
C1034 C1035 1.287 . S
C1035 C1034 1.287 . S
C1035 C1036 1.524 . S
C1035 H1038 0.999 . S
C1036 H1006 0.950 . S
C1036 C1035 1.524 . S
C1036 C1037 1.415 . S
C1037 H1007 0.950 . S
C1037 C1032 1.363 . S
C1037 C1036 1.415 . S
H1038 C1035 0.999 . S
H1039 C1020 0.913 . S
H1040 C1058 0.951 . S
H1041 C1060 0.951 . S
H1042 C1062 0.950 . S
H1043 C1063 0.950 . S
H1044 C1065 0.950 . S
H1045 C1068 0.950 . S
H1046 C1069 0.950 . S
H1047 C1071 0.950 . S
H1048 C1072 0.950 . S
H1049 C1073 0.951 . S
H1050 C1075 0.951 . S
H1051 C1077 0.950 . S
H1052 C1078 0.950 . S
H1053 C1080 0.950 . S
H1054 C1083 0.950 . S
H1055 C1084 0.950 . S
H1056 C1086 0.950 . S
H1057 C1087 0.950 . S
C1058 H1040 0.951 . S
C1058 C1059 1.366 . S
C1058 C1060 1.388 . S
C1059 C1058 1.366 . S
C1059 C1063 1.385 . S
C1060 H1041 0.951 . S
C1060 C1058 1.388 . S
C1060 C1061 1.366 . S
C1061 C1060 1.366 . S
C1061 C1062 1.414 . S
C1061 C1064 1.499 . S
C1062 H1042 0.950 . S
C1062 C1061 1.414 . S
C1062 C1063 1.374 . S
C1063 H1043 0.950 . S
C1063 C1059 1.385 . S
C1063 C1062 1.374 . S
C1064 C1061 1.499 . S
C1064 C1065 1.373 . S
C1064 C1066 1.389 . S
C1065 H1044 0.950 . S
C1065 C1064 1.373 . S
C1065 C1081 1.377 . S
C1066 C1064 1.389 . S
C1066 C1067 1.524 . S
C1066 C1080 1.377 . S
C1067 C1066 1.524 . S
C1067 C1068 1.397 . S
C1067 C1072 1.363 . S
C1068 H1045 0.950 . S
C1068 C1067 1.397 . S
C1068 C1069 1.334 . S
C1069 H1046 0.950 . S
C1069 C1068 1.334 . S
C1069 C1070 1.287 . S
C1070 C1069 1.287 . S
C1070 C1071 1.524 . S
C1070 H1089 0.913 . S
C1071 H1047 0.950 . S
C1071 C1070 1.524 . S
C1071 C1072 1.415 . S
C1072 H1048 0.950 . S
C1072 C1067 1.363 . S
C1072 C1071 1.415 . S
C1073 H1049 0.951 . S
C1073 C1074 1.366 . S
C1073 C1075 1.388 . S
C1074 C1073 1.366 . S
C1074 C1078 1.385 . S
C1075 H1050 0.951 . S
C1075 C1073 1.388 . S
C1075 C1076 1.366 . S
C1076 C1075 1.366 . S
C1076 C1077 1.414 . S
C1076 C1079 1.499 . S
C1077 H1051 0.950 . S
C1077 C1076 1.414 . S
C1077 C1078 1.374 . S
C1078 H1052 0.950 . S
C1078 C1074 1.385 . S
C1078 C1077 1.374 . S
C1079 C1076 1.499 . S
C1079 C1080 1.373 . S
C1079 C1081 1.389 . S
C1080 H1053 0.950 . S
C1080 C1066 1.377 . S
C1080 C1079 1.373 . S
C1081 C1065 1.377 . S
C1081 C1079 1.389 . S
C1081 C1082 1.524 . S
C1082 C1081 1.524 . S
C1082 C1083 1.397 . S
C1082 C1087 1.363 . S
C1083 H1054 0.950 . S
C1083 C1082 1.397 . S
C1083 C1084 1.334 . S
C1084 H1055 0.950 . S
C1084 C1083 1.334 . S
C1084 C1085 1.287 . S
C1085 C1084 1.287 . S
C1085 C1086 1.524 . S
C1085 H1088 0.999 . S
C1086 H1056 0.950 . S
C1086 C1085 1.524 . S
C1086 C1087 1.415 . S
C1087 H1057 0.950 . S
C1087 C1082 1.363 . S
C1087 C1086 1.415 . S
H1088 C1085 0.999 . S
H1089 C1070 0.913 . S
H1090 C1108 0.987 . S
H1091 C1110 0.951 . S
H1092 C1112 0.950 . S
H1093 C1113 0.950 . S
H1094 C1115 0.950 . S
H1095 C1118 0.950 . S
H1096 C1119 0.950 . S
H1097 C1121 0.950 . S
H1098 C1122 0.950 . S
H1099 C1123 0.951 . S
H1100 C1125 0.951 . S
H1101 C1127 0.950 . S
H1102 C1128 0.950 . S
H1103 C1130 0.950 . S
H1104 C1133 0.950 . S
H1105 C1134 0.950 . S
H1106 C1136 0.950 . S
H1107 C1137 0.950 . S
C1108 H1090 0.987 . S
C1108 C1109 1.366 . S
C1108 C1110 1.388 . S
C1109 C1108 1.366 . S
C1109 C1113 1.385 . S
C1110 H1091 0.951 . S
C1110 C1108 1.388 . S
C1110 C1111 1.366 . S
C1111 C1110 1.366 . S
C1111 C1112 1.414 . S
C1111 C1114 1.499 . S
C1112 H1092 0.950 . S
C1112 C1111 1.414 . S
C1112 C1113 1.374 . S
C1113 H1093 0.950 . S
C1113 C1109 1.385 . S
C1113 C1112 1.374 . S
C1114 C1111 1.499 . S
C1114 C1115 1.373 . S
C1114 C1116 1.389 . S
C1115 H1094 0.950 . S
C1115 C1114 1.373 . S
C1115 C1131 1.377 . S
C1116 C1114 1.389 . S
C1116 C1117 1.524 . S
C1116 C1130 1.377 . S
C1117 C1116 1.524 . S
C1117 C1118 1.397 . S
C1117 C1122 1.363 . S
C1118 H1095 0.950 . S
C1118 C1117 1.397 . S
C1118 C1119 1.334 . S
C1119 H1096 0.950 . S
C1119 C1118 1.334 . S
C1119 C1120 1.287 . S
C1120 C1119 1.287 . S
C1120 C1121 1.524 . S
C1120 H1139 0.913 . S
C1121 H1097 0.950 . S
C1121 C1120 1.524 . S
C1121 C1122 1.415 . S
C1122 H1098 0.950 . S
C1122 C1117 1.363 . S
C1122 C1121 1.415 . S
C1123 H1099 0.951 . S
C1123 C1124 1.366 . S
C1123 C1125 1.388 . S
C1124 C1123 1.366 . S
C1124 C1128 1.385 . S
C1125 H1100 0.951 . S
C1125 C1123 1.388 . S
C1125 C1126 1.366 . S
C1126 C1125 1.366 . S
C1126 C1127 1.414 . S
C1126 C1129 1.499 . S
C1127 H1101 0.950 . S
C1127 C1126 1.414 . S
C1127 C1128 1.374 . S
C1128 H1102 0.950 . S
C1128 C1124 1.385 . S
C1128 C1127 1.374 . S
C1129 C1126 1.499 . S
C1129 C1130 1.373 . S
C1129 C1131 1.389 . S
C1130 H1103 0.950 . S
C1130 C1116 1.377 . S
C1130 C1129 1.373 . S
C1131 C1115 1.377 . S
C1131 C1129 1.389 . S
C1131 C1132 1.524 . S
C1132 C1131 1.524 . S
C1132 C1133 1.397 . S
C1132 C1137 1.363 . S
C1133 H1104 0.950 . S
C1133 C1132 1.397 . S
C1133 C1134 1.334 . S
C1134 H1105 0.950 . S
C1134 C1133 1.334 . S
C1134 C1135 1.287 . S
C1135 C1134 1.287 . S
C1135 C1136 1.524 . S
C1135 H1138 0.999 . S
C1136 H1106 0.950 . S
C1136 C1135 1.524 . S
C1136 C1137 1.415 . S
C1137 H1107 0.950 . S
C1137 C1132 1.363 . S
C1137 C1136 1.415 . S
H1138 C1135 0.999 . S
H1139 C1120 0.913 . S
H1140 C1158 0.951 . S
H1141 C1160 0.951 . S
H1142 C1162 0.950 . S
H1143 C1163 0.950 . S
H1144 C1165 0.950 . S
H1145 C1168 0.950 . S
H1146 C1169 0.950 . S
H1147 C1171 0.950 . S
H1148 C1172 0.950 . S
H1149 C1173 0.951 . S
H1150 C1175 0.951 . S
H1151 C1177 0.950 . S
H1152 C1178 0.950 . S
H1153 C1180 0.950 . S
H1154 C1183 0.950 . S
H1155 C1184 0.950 . S
H1156 C1186 0.950 . S
H1157 C1187 0.950 . S
C1158 H1140 0.951 . S
C1158 C1159 1.366 . S
C1158 C1160 1.388 . S
C1159 C1158 1.366 . S
C1159 C1163 1.385 . S
C1160 H1141 0.951 . S
C1160 C1158 1.388 . S
C1160 C1161 1.366 . S
C1161 C1160 1.366 . S
C1161 C1162 1.414 . S
C1161 C1164 1.499 . S
C1162 H1142 0.950 . S
C1162 C1161 1.414 . S
C1162 C1163 1.374 . S
C1163 H1143 0.950 . S
C1163 C1159 1.385 . S
C1163 C1162 1.374 . S
C1164 C1161 1.499 . S
C1164 C1165 1.373 . S
C1164 C1166 1.389 . S
C1165 H1144 0.950 . S
C1165 C1164 1.373 . S
C1165 C1181 1.377 . S
C1166 C1164 1.389 . S
C1166 C1167 1.524 . S
C1166 C1180 1.377 . S
C1167 C1166 1.524 . S
C1167 C1168 1.397 . S
C1167 C1172 1.363 . S
C1168 H1145 0.950 . S
C1168 C1167 1.397 . S
C1168 C1169 1.334 . S
C1169 H1146 0.950 . S
C1169 C1168 1.334 . S
C1169 C1170 1.287 . S
C1170 C1169 1.287 . S
C1170 C1171 1.524 . S
C1170 H1189 0.913 . S
C1171 H1147 0.950 . S
C1171 C1170 1.524 . S
C1171 C1172 1.415 . S
C1172 H1148 0.950 . S
C1172 C1167 1.363 . S
C1172 C1171 1.415 . S
C1173 H1149 0.951 . S
C1173 C1174 1.366 . S
C1173 C1175 1.388 . S
C1174 C1173 1.366 . S
C1174 C1178 1.385 . S
C1175 H1150 0.951 . S
C1175 C1173 1.388 . S
C1175 C1176 1.366 . S
C1176 C1175 1.366 . S
C1176 C1177 1.414 . S
C1176 C1179 1.499 . S
C1177 H1151 0.950 . S
C1177 C1176 1.414 . S
C1177 C1178 1.374 . S
C1178 H1152 0.950 . S
C1178 C1174 1.385 . S
C1178 C1177 1.374 . S
C1179 C1176 1.499 . S
C1179 C1180 1.373 . S
C1179 C1181 1.389 . S
C1180 H1153 0.950 . S
C1180 C1166 1.377 . S
C1180 C1179 1.373 . S
C1181 C1165 1.377 . S
C1181 C1179 1.389 . S
C1181 C1182 1.524 . S
C1182 C1181 1.524 . S
C1182 C1183 1.397 . S
C1182 C1187 1.363 . S
C1183 H1154 0.950 . S
C1183 C1182 1.397 . S
C1183 C1184 1.334 . S
C1184 H1155 0.950 . S
C1184 C1183 1.334 . S
C1184 C1185 1.287 . S
C1185 C1184 1.287 . S
C1185 C1186 1.524 . S
C1185 H1188 0.999 . S
C1186 H1156 0.950 . S
C1186 C1185 1.524 . S
C1186 C1187 1.415 . S
C1187 H1157 0.950 . S
C1187 C1182 1.363 . S
C1187 C1186 1.415 . S
H1188 C1185 0.999 . S
H1189 C1170 0.913 . S
H1190 C1208 0.951 . S
H1191 C1210 0.951 . S
H1192 C1212 0.950 . S
H1193 C1213 0.950 . S
H1194 C1215 0.950 . S
H1195 C1218 0.950 . S
H1196 C1219 0.950 . S
H1197 C1221 0.950 . S
H1198 C1222 0.950 . S
H1199 C1223 0.951 . S
H1200 C1225 0.951 . S
H1201 C1227 0.950 . S
H1202 C1228 0.950 . S
H1203 C1230 0.950 . S
H1204 C1233 0.950 . S
H1205 C1234 0.950 . S
H1206 C1236 0.950 . S
H1207 C1237 0.950 . S
C1208 H1190 0.951 . S
C1208 C1209 1.366 . S
C1208 C1210 1.388 . S
C1209 C1208 1.366 . S
C1209 C1213 1.385 . S
C1210 H1191 0.951 . S
C1210 C1208 1.388 . S
C1210 C1211 1.366 . S
C1211 C1210 1.366 . S
C1211 C1212 1.414 . S
C1211 C1214 1.499 . S
C1212 H1192 0.950 . S
C1212 C1211 1.414 . S
C1212 C1213 1.374 . S
C1213 H1193 0.950 . S
C1213 C1209 1.385 . S
C1213 C1212 1.374 . S
C1214 C1211 1.499 . S
C1214 C1215 1.373 . S
C1214 C1216 1.389 . S
C1215 H1194 0.950 . S
C1215 C1214 1.373 . S
C1215 C1231 1.377 . S
C1216 C1214 1.389 . S
C1216 C1217 1.524 . S
C1216 C1230 1.377 . S
C1217 C1216 1.524 . S
C1217 C1218 1.397 . S
C1217 C1222 1.363 . S
C1218 H1195 0.950 . S
C1218 C1217 1.397 . S
C1218 C1219 1.334 . S
C1219 H1196 0.950 . S
C1219 C1218 1.334 . S
C1219 C1220 1.287 . S
C1220 C1219 1.287 . S
C1220 C1221 1.524 . S
C1220 H1239 0.913 . S
C1221 H1197 0.950 . S
C1221 C1220 1.524 . S
C1221 C1222 1.415 . S
C1222 H1198 0.950 . S
C1222 C1217 1.363 . S
C1222 C1221 1.415 . S
C1223 H1199 0.951 . S
C1223 C1224 1.366 . S
C1223 C1225 1.388 . S
C1224 C1223 1.366 . S
C1224 C1228 1.385 . S
C1225 H1200 0.951 . S
C1225 C1223 1.388 . S
C1225 C1226 1.366 . S
C1226 C1225 1.366 . S
C1226 C1227 1.414 . S
C1226 C1229 1.499 . S
C1227 H1201 0.950 . S
C1227 C1226 1.414 . S
C1227 C1228 1.374 . S
C1228 H1202 0.950 . S
C1228 C1224 1.385 . S
C1228 C1227 1.374 . S
C1229 C1226 1.499 . S
C1229 C1230 1.373 . S
C1229 C1231 1.389 . S
C1230 H1203 0.950 . S
C1230 C1216 1.377 . S
C1230 C1229 1.373 . S
C1231 C1215 1.377 . S
C1231 C1229 1.389 . S
C1231 C1232 1.524 . S
C1232 C1231 1.524 . S
C1232 C1233 1.397 . S
C1232 C1237 1.363 . S
C1233 H1204 0.950 . S
C1233 C1232 1.397 . S
C1233 C1234 1.334 . S
C1234 H1205 0.950 . S
C1234 C1233 1.334 . S
C1234 C1235 1.287 . S
C1235 C1234 1.287 . S
C1235 C1236 1.524 . S
C1235 H1238 0.999 . S
C1236 H1206 0.950 . S
C1236 C1235 1.524 . S
C1236 C1237 1.415 . S
C1237 H1207 0.950 . S
C1237 C1232 1.363 . S
C1237 C1236 1.415 . S
H1238 C1235 0.999 . S
H1239 C1220 0.913 . S
H1240 C1258 0.951 . S
H1241 C1260 0.951 . S
H1242 C1262 0.950 . S
H1243 C1263 0.950 . S
H1244 C1265 0.950 . S
H1245 C1268 0.950 . S
H1246 C1269 0.950 . S
H1247 C1271 0.950 . S
H1248 C1272 0.950 . S
H1249 C1273 0.951 . S
H1250 C1275 0.951 . S
H1251 C1277 0.950 . S
H1252 C1278 0.950 . S
H1253 C1280 0.950 . S
H1254 C1283 0.950 . S
H1255 C1284 0.950 . S
H1256 C1286 0.950 . S
H1257 C1287 0.950 . S
C1258 H1240 0.951 . S
C1258 C1259 1.366 . S
C1258 C1260 1.388 . S
C1259 C1258 1.366 . S
C1259 C1263 1.385 . S
C1260 H1241 0.951 . S
C1260 C1258 1.388 . S
C1260 C1261 1.366 . S
C1261 C1260 1.366 . S
C1261 C1262 1.414 . S
C1261 C1264 1.499 . S
C1262 H1242 0.950 . S
C1262 C1261 1.414 . S
C1262 C1263 1.374 . S
C1263 H1243 0.950 . S
C1263 C1259 1.385 . S
C1263 C1262 1.374 . S
C1264 C1261 1.499 . S
C1264 C1265 1.373 . S
C1264 C1266 1.389 . S
C1265 H1244 0.950 . S
C1265 C1264 1.373 . S
C1265 C1281 1.377 . S
C1266 C1264 1.389 . S
C1266 C1267 1.524 . S
C1266 C1280 1.377 . S
C1267 C1266 1.524 . S
C1267 C1268 1.397 . S
C1267 C1272 1.363 . S
C1268 H1245 0.950 . S
C1268 C1267 1.397 . S
C1268 C1269 1.334 . S
C1269 H1246 0.950 . S
C1269 C1268 1.334 . S
C1269 C1270 1.287 . S
C1270 C1269 1.287 . S
C1270 C1271 1.524 . S
C1270 H1289 0.913 . S
C1271 H1247 0.950 . S
C1271 C1270 1.524 . S
C1271 C1272 1.415 . S
C1272 H1248 0.950 . S
C1272 C1267 1.363 . S
C1272 C1271 1.415 . S
C1273 H1249 0.951 . S
C1273 C1274 1.366 . S
C1273 C1275 1.388 . S
C1274 C1273 1.366 . S
C1274 C1278 1.385 . S
C1275 H1250 0.951 . S
C1275 C1273 1.388 . S
C1275 C1276 1.366 . S
C1276 C1275 1.366 . S
C1276 C1277 1.414 . S
C1276 C1279 1.499 . S
C1277 H1251 0.950 . S
C1277 C1276 1.414 . S
C1277 C1278 1.374 . S
C1278 H1252 0.950 . S
C1278 C1274 1.385 . S
C1278 C1277 1.374 . S
C1279 C1276 1.499 . S
C1279 C1280 1.373 . S
C1279 C1281 1.389 . S
C1280 H1253 0.950 . S
C1280 C1266 1.377 . S
C1280 C1279 1.373 . S
C1281 C1265 1.377 . S
C1281 C1279 1.389 . S
C1281 C1282 1.524 . S
C1282 C1281 1.524 . S
C1282 C1283 1.397 . S
C1282 C1287 1.363 . S
C1283 H1254 0.950 . S
C1283 C1282 1.397 . S
C1283 C1284 1.334 . S
C1284 H1255 0.950 . S
C1284 C1283 1.334 . S
C1284 C1285 1.287 . S
C1285 C1284 1.287 . S
C1285 C1286 1.524 . S
C1285 H1288 0.999 . S
C1286 H1256 0.950 . S
C1286 C1285 1.524 . S
C1286 C1287 1.415 . S
C1287 H1257 0.950 . S
C1287 C1282 1.363 . S
C1287 C1286 1.415 . S
H1288 C1285 0.999 . S
H1289 C1270 0.913 . S
H1290 C1308 0.951 . S
H1291 C1310 0.951 . S
H1292 C1312 0.950 . S
H1293 C1313 0.950 . S
H1294 C1315 0.950 . S
H1295 C1318 0.950 . S
H1296 C1319 0.950 . S
H1297 C1321 0.950 . S
H1298 C1322 0.950 . S
H1299 C1323 0.951 . S
H1300 C1325 0.951 . S
H1301 C1327 0.950 . S
H1302 C1328 0.950 . S
H1303 C1330 0.950 . S
H1304 C1333 0.950 . S
H1305 C1334 0.950 . S
H1306 C1336 0.950 . S
H1307 C1337 0.950 . S
C1308 H1290 0.951 . S
C1308 C1309 1.366 . S
C1308 C1310 1.388 . S
C1309 C1308 1.366 . S
C1309 C1313 1.385 . S
C1310 H1291 0.951 . S
C1310 C1308 1.388 . S
C1310 C1311 1.366 . S
C1311 C1310 1.366 . S
C1311 C1312 1.414 . S
C1311 C1314 1.499 . S
C1312 H1292 0.950 . S
C1312 C1311 1.414 . S
C1312 C1313 1.374 . S
C1313 H1293 0.950 . S
C1313 C1309 1.385 . S
C1313 C1312 1.374 . S
C1314 C1311 1.499 . S
C1314 C1315 1.373 . S
C1314 C1316 1.389 . S
C1315 H1294 0.950 . S
C1315 C1314 1.373 . S
C1315 C1331 1.377 . S
C1316 C1314 1.389 . S
C1316 C1317 1.524 . S
C1316 C1330 1.377 . S
C1317 C1316 1.524 . S
C1317 C1318 1.397 . S
C1317 C1322 1.363 . S
C1318 H1295 0.950 . S
C1318 C1317 1.397 . S
C1318 C1319 1.334 . S
C1319 H1296 0.950 . S
C1319 C1318 1.334 . S
C1319 C1320 1.287 . S
C1320 C1319 1.287 . S
C1320 C1321 1.524 . S
C1320 H1339 0.913 . S
C1321 H1297 0.950 . S
C1321 C1320 1.524 . S
C1321 C1322 1.415 . S
C1322 H1298 0.950 . S
C1322 C1317 1.363 . S
C1322 C1321 1.415 . S
C1323 H1299 0.951 . S
C1323 C1324 1.366 . S
C1323 C1325 1.388 . S
C1324 C1323 1.366 . S
C1324 C1328 1.385 . S
C1325 H1300 0.951 . S
C1325 C1323 1.388 . S
C1325 C1326 1.366 . S
C1326 C1325 1.366 . S
C1326 C1327 1.414 . S
C1326 C1329 1.499 . S
C1327 H1301 0.950 . S
C1327 C1326 1.414 . S
C1327 C1328 1.374 . S
C1328 H1302 0.950 . S
C1328 C1324 1.385 . S
C1328 C1327 1.374 . S
C1329 C1326 1.499 . S
C1329 C1330 1.373 . S
C1329 C1331 1.389 . S
C1330 H1303 0.950 . S
C1330 C1316 1.377 . S
C1330 C1329 1.373 . S
C1331 C1315 1.377 . S
C1331 C1329 1.389 . S
C1331 C1332 1.524 . S
C1332 C1331 1.524 . S
C1332 C1333 1.397 . S
C1332 C1337 1.363 . S
C1333 H1304 0.950 . S
C1333 C1332 1.397 . S
C1333 C1334 1.334 . S
C1334 H1305 0.950 . S
C1334 C1333 1.334 . S
C1334 C1335 1.287 . S
C1335 C1334 1.287 . S
C1335 C1336 1.524 . S
C1335 H1338 0.999 . S
C1336 H1306 0.950 . S
C1336 C1335 1.524 . S
C1336 C1337 1.415 . S
C1337 H1307 0.950 . S
C1337 C1332 1.363 . S
C1337 C1336 1.415 . S
H1338 C1335 0.999 . S
H1339 C1320 0.913 . S
H1340 C1358 0.951 . S
H1341 C1360 0.951 . S
H1342 C1362 0.950 . S
H1343 C1363 0.950 . S
H1344 C1365 0.950 . S
H1345 C1368 0.950 . S
H1346 C1369 0.950 1_565 S
H1347 C1371 0.950 . S
H1348 C1372 0.950 . S
H1349 C1373 0.951 . S
H1350 C1375 0.951 . S
H1351 C1377 0.950 . S
H1352 C1378 0.950 . S
H1353 C1380 0.950 . S
H1354 C1383 0.950 . S
H1355 C1384 0.950 . S
H1356 C1386 0.950 1_554 S
H1357 C1387 0.950 . S
C1358 H1340 0.951 . S
C1358 C1359 1.366 . S
C1358 C1360 1.388 . S
C1359 C1358 1.366 . S
C1359 C1363 1.385 . S
C1360 H1341 0.951 . S
C1360 C1358 1.388 . S
C1360 C1361 1.366 . S
C1361 C1360 1.366 . S
C1361 C1362 1.414 . S
C1361 C1364 1.499 . S
C1362 H1342 0.950 . S
C1362 C1361 1.414 . S
C1362 C1363 1.374 . S
C1363 H1343 0.950 . S
C1363 C1359 1.385 . S
C1363 C1362 1.374 . S
C1364 C1361 1.499 . S
C1364 C1365 1.373 . S
C1364 C1366 1.389 . S
C1365 H1344 0.950 . S
C1365 C1364 1.373 . S
C1365 C1381 1.377 . S
C1366 C1364 1.389 . S
C1366 C1367 1.524 . S
C1366 C1380 1.377 . S
C1367 C1366 1.524 . S
C1367 C1368 1.397 . S
C1367 C1372 1.363 . S
C1368 H1345 0.950 . S
C1368 C1367 1.397 . S
C1368 C1369 1.334 . S
C1369 H1346 0.950 1_545 S
C1369 C1368 1.334 . S
C1369 C1370 1.287 . S
C1370 C1369 1.287 . S
C1370 C1371 1.524 . S
C1370 H1389 0.915 . S
C1371 H1347 0.950 . S
C1371 C1370 1.524 . S
C1371 C1372 1.415 . S
C1372 H1348 0.950 . S
C1372 C1367 1.363 . S
C1372 C1371 1.415 . S
C1373 H1349 0.951 . S
C1373 C1374 1.366 . S
C1373 C1375 1.388 . S
C1374 C1373 1.366 . S
C1374 C1378 1.385 . S
C1375 H1350 0.951 . S
C1375 C1373 1.388 . S
C1375 C1376 1.366 . S
C1376 C1375 1.366 . S
C1376 C1377 1.414 . S
C1376 C1379 1.499 . S
C1377 H1351 0.950 . S
C1377 C1376 1.414 . S
C1377 C1378 1.374 . S
C1378 H1352 0.950 . S
C1378 C1374 1.385 . S
C1378 C1377 1.374 . S
C1379 C1376 1.499 . S
C1379 C1380 1.373 . S
C1379 C1381 1.389 . S
C1380 H1353 0.950 . S
C1380 C1366 1.377 . S
C1380 C1379 1.373 . S
C1381 C1365 1.377 . S
C1381 C1379 1.389 . S
C1381 C1382 1.524 . S
C1382 C1381 1.524 . S
C1382 C1383 1.397 . S
C1382 C1387 1.363 . S
C1383 H1354 0.950 . S
C1383 C1382 1.397 . S
C1383 C1384 1.334 . S
C1384 H1355 0.950 . S
C1384 C1383 1.334 . S
C1384 C1385 1.287 . S
C1385 C1384 1.287 . S
C1385 C1386 1.524 . S
C1385 H1388 0.987 1_556 S
C1386 H1356 0.950 1_556 S
C1386 C1385 1.524 . S
C1386 C1387 1.415 . S
C1387 H1357 0.950 . S
C1387 C1382 1.363 . S
C1387 C1386 1.415 . S
H1388 C1385 0.987 1_554 S
H1389 C1370 0.915 . S
H1390 C1408 0.951 . S
H1391 C1410 0.951 . S
H1392 C1412 0.950 . S
H1393 C1413 0.950 . S
H1394 C1415 0.950 . S
H1395 C1418 0.950 . S
H1396 C1419 0.950 . S
H1397 C1421 0.950 . S
H1398 C1422 0.950 . S
H1399 C1423 0.951 . S
H1400 C1425 0.951 . S
H1401 C1427 0.950 . S
H1402 C1428 0.950 . S
H1403 C1430 0.950 . S
H1404 C1433 0.950 . S
H1405 C1434 0.950 . S
H1406 C1436 0.950 . S
H1407 C1437 0.950 . S
C1408 H1390 0.951 . S
C1408 C1409 1.366 . S
C1408 C1410 1.388 . S
C1409 C1408 1.366 . S
C1409 C1413 1.385 . S
C1410 H1391 0.951 . S
C1410 C1408 1.388 . S
C1410 C1411 1.366 . S
C1411 C1410 1.366 . S
C1411 C1412 1.414 . S
C1411 C1414 1.499 . S
C1412 H1392 0.950 . S
C1412 C1411 1.414 . S
C1412 C1413 1.374 . S
C1413 H1393 0.950 . S
C1413 C1409 1.385 . S
C1413 C1412 1.374 . S
C1414 C1411 1.499 . S
C1414 C1415 1.373 . S
C1414 C1416 1.389 . S
C1415 H1394 0.950 . S
C1415 C1414 1.373 . S
C1415 C1431 1.377 . S
C1416 C1414 1.389 . S
C1416 C1417 1.524 . S
C1416 C1430 1.377 . S
C1417 C1416 1.524 . S
C1417 C1418 1.397 . S
C1417 C1422 1.363 . S
C1418 H1395 0.950 . S
C1418 C1417 1.397 . S
C1418 C1419 1.334 . S
C1419 H1396 0.950 . S
C1419 C1418 1.334 . S
C1419 C1420 1.287 . S
C1420 C1419 1.287 . S
C1420 C1421 1.524 . S
C1420 H1439 0.913 . S
C1421 H1397 0.950 . S
C1421 C1420 1.524 . S
C1421 C1422 1.415 . S
C1422 H1398 0.950 . S
C1422 C1417 1.363 . S
C1422 C1421 1.415 . S
C1423 H1399 0.951 . S
C1423 C1424 1.366 . S
C1423 C1425 1.388 . S
C1424 C1423 1.366 . S
C1424 C1428 1.385 . S
C1425 H1400 0.951 . S
C1425 C1423 1.388 . S
C1425 C1426 1.366 . S
C1426 C1425 1.366 . S
C1426 C1427 1.414 . S
C1426 C1429 1.499 . S
C1427 H1401 0.950 . S
C1427 C1426 1.414 . S
C1427 C1428 1.374 . S
C1428 H1402 0.950 . S
C1428 C1424 1.385 . S
C1428 C1427 1.374 . S
C1429 C1426 1.499 . S
C1429 C1430 1.373 . S
C1429 C1431 1.389 . S
C1430 H1403 0.950 . S
C1430 C1416 1.377 . S
C1430 C1429 1.373 . S
C1431 C1415 1.377 . S
C1431 C1429 1.389 . S
C1431 C1432 1.524 . S
C1432 C1431 1.524 . S
C1432 C1433 1.397 . S
C1432 C1437 1.363 . S
C1433 H1404 0.950 . S
C1433 C1432 1.397 . S
C1433 C1434 1.334 . S
C1434 H1405 0.950 . S
C1434 C1433 1.334 . S
C1434 C1435 1.287 . S
C1435 C1434 1.287 . S
C1435 C1436 1.524 . S
C1435 H1438 0.999 . S
C1436 H1406 0.950 . S
C1436 C1435 1.524 . S
C1436 C1437 1.415 . S
C1437 H1407 0.950 . S
C1437 C1432 1.363 . S
C1437 C1436 1.415 . S
H1438 C1435 0.999 . S
H1439 C1420 0.913 . S
H1440 C1458 0.951 . S
H1441 C1460 0.951 . S
H1442 C1462 0.950 . S
H1443 C1463 0.950 . S
H1444 C1465 0.950 . S
H1445 C1468 0.950 . S
H1446 C1469 0.950 . S
H1447 C1471 0.950 . S
H1448 C1472 0.950 . S
H1449 C1473 0.951 . S
H1450 C1475 0.951 . S
H1451 C1477 0.950 . S
H1452 C1478 0.950 . S
H1453 C1480 0.950 . S
H1454 C1483 0.950 . S
H1455 C1484 0.950 . S
H1456 C1486 0.950 . S
H1457 C1487 0.950 . S
C1458 H1440 0.951 . S
C1458 C1459 1.366 . S
C1458 C1460 1.388 . S
C1459 C1458 1.366 . S
C1459 C1463 1.385 . S
C1460 H1441 0.951 . S
C1460 C1458 1.388 . S
C1460 C1461 1.366 . S
C1461 C1460 1.366 . S
C1461 C1462 1.414 . S
C1461 C1464 1.499 . S
C1462 H1442 0.950 . S
C1462 C1461 1.414 . S
C1462 C1463 1.374 . S
C1463 H1443 0.950 . S
C1463 C1459 1.385 . S
C1463 C1462 1.374 . S
C1464 C1461 1.499 . S
C1464 C1465 1.373 . S
C1464 C1466 1.389 . S
C1465 H1444 0.950 . S
C1465 C1464 1.373 . S
C1465 C1481 1.377 . S
C1466 C1464 1.389 . S
C1466 C1467 1.524 . S
C1466 C1480 1.377 . S
C1467 C1466 1.524 . S
C1467 C1468 1.397 . S
C1467 C1472 1.363 . S
C1468 H1445 0.950 . S
C1468 C1467 1.397 . S
C1468 C1469 1.334 . S
C1469 H1446 0.950 . S
C1469 C1468 1.334 . S
C1469 C1470 1.287 . S
C1470 C1469 1.287 . S
C1470 C1471 1.524 . S
C1470 H1489 0.913 . S
C1471 H1447 0.950 . S
C1471 C1470 1.524 . S
C1471 C1472 1.415 . S
C1472 H1448 0.950 . S
C1472 C1467 1.363 . S
C1472 C1471 1.415 . S
C1473 H1449 0.951 . S
C1473 C1474 1.366 . S
C1473 C1475 1.388 . S
C1474 C1473 1.366 . S
C1474 C1478 1.385 . S
C1475 H1450 0.951 . S
C1475 C1473 1.388 . S
C1475 C1476 1.366 . S
C1476 C1475 1.366 . S
C1476 C1477 1.414 . S
C1476 C1479 1.499 . S
C1477 H1451 0.950 . S
C1477 C1476 1.414 . S
C1477 C1478 1.374 . S
C1478 H1452 0.950 . S
C1478 C1474 1.385 . S
C1478 C1477 1.374 . S
C1479 C1476 1.499 . S
C1479 C1480 1.373 . S
C1479 C1481 1.389 . S
C1480 H1453 0.950 . S
C1480 C1466 1.377 . S
C1480 C1479 1.373 . S
C1481 C1465 1.377 . S
C1481 C1479 1.389 . S
C1481 C1482 1.524 . S
C1482 C1481 1.524 . S
C1482 C1483 1.397 . S
C1482 C1487 1.363 . S
C1483 H1454 0.950 . S
C1483 C1482 1.397 . S
C1483 C1484 1.334 . S
C1484 H1455 0.950 . S
C1484 C1483 1.334 . S
C1484 C1485 1.287 . S
C1485 C1484 1.287 . S
C1485 C1486 1.524 . S
C1485 H1488 0.999 . S
C1486 H1456 0.950 . S
C1486 C1485 1.524 . S
C1486 C1487 1.415 . S
C1487 H1457 0.950 . S
C1487 C1482 1.363 . S
C1487 C1486 1.415 . S
H1488 C1485 0.999 . S
H1489 C1470 0.913 . S
H1490 C1508 0.951 . S
H1491 C1510 0.951 . S
H1492 C1512 0.950 . S
H1493 C1513 0.950 . S
H1494 C1515 0.950 . S
H1495 C1518 0.950 . S
H1496 C1519 0.950 . S
H1497 C1521 0.950 . S
H1498 C1522 0.950 . S
H1499 C1523 0.951 . S
H1500 C1525 0.951 . S
H1501 C1527 0.950 . S
H1502 C1528 0.950 . S
H1503 C1530 0.950 . S
H1504 C1533 0.950 . S
H1505 C1534 0.950 . S
H1506 C1536 0.950 . S
H1507 C1537 0.950 . S
C1508 H1490 0.951 . S
C1508 C1509 1.366 . S
C1508 C1510 1.388 . S
C1509 C1508 1.366 . S
C1509 C1513 1.385 . S
C1510 H1491 0.951 . S
C1510 C1508 1.388 . S
C1510 C1511 1.366 . S
C1511 C1510 1.366 . S
C1511 C1512 1.414 . S
C1511 C1514 1.499 . S
C1512 H1492 0.950 . S
C1512 C1511 1.414 . S
C1512 C1513 1.374 . S
C1513 H1493 0.950 . S
C1513 C1509 1.385 . S
C1513 C1512 1.374 . S
C1514 C1511 1.499 . S
C1514 C1515 1.373 . S
C1514 C1516 1.389 . S
C1515 H1494 0.950 . S
C1515 C1514 1.373 . S
C1515 C1531 1.377 . S
C1516 C1514 1.389 . S
C1516 C1517 1.524 . S
C1516 C1530 1.377 . S
C1517 C1516 1.524 . S
C1517 C1518 1.397 . S
C1517 C1522 1.363 . S
C1518 H1495 0.950 . S
C1518 C1517 1.397 . S
C1518 C1519 1.334 . S
C1519 H1496 0.950 . S
C1519 C1518 1.334 . S
C1519 C1520 1.287 . S
C1520 C1519 1.287 . S
C1520 C1521 1.524 . S
C1520 H1539 0.913 . S
C1521 H1497 0.950 . S
C1521 C1520 1.524 . S
C1521 C1522 1.415 . S
C1522 H1498 0.950 . S
C1522 C1517 1.363 . S
C1522 C1521 1.415 . S
C1523 H1499 0.951 . S
C1523 C1524 1.366 . S
C1523 C1525 1.388 . S
C1524 C1523 1.366 . S
C1524 C1528 1.385 . S
C1525 H1500 0.951 . S
C1525 C1523 1.388 . S
C1525 C1526 1.366 . S
C1526 C1525 1.366 . S
C1526 C1527 1.414 . S
C1526 C1529 1.499 . S
C1527 H1501 0.950 . S
C1527 C1526 1.414 . S
C1527 C1528 1.374 . S
C1528 H1502 0.950 . S
C1528 C1524 1.385 . S
C1528 C1527 1.374 . S
C1529 C1526 1.499 . S
C1529 C1530 1.373 . S
C1529 C1531 1.389 . S
C1530 H1503 0.950 . S
C1530 C1516 1.377 . S
C1530 C1529 1.373 . S
C1531 C1515 1.377 . S
C1531 C1529 1.389 . S
C1531 C1532 1.524 . S
C1532 C1531 1.524 . S
C1532 C1533 1.397 . S
C1532 C1537 1.363 . S
C1533 H1504 0.950 . S
C1533 C1532 1.397 . S
C1533 C1534 1.334 . S
C1534 H1505 0.950 . S
C1534 C1533 1.334 . S
C1534 C1535 1.287 . S
C1535 C1534 1.287 . S
C1535 C1536 1.524 . S
C1535 H1538 0.999 . S
C1536 H1506 0.950 . S
C1536 C1535 1.524 . S
C1536 C1537 1.415 . S
C1537 H1507 0.950 . S
C1537 C1532 1.363 . S
C1537 C1536 1.415 . S
H1538 C1535 0.999 . S
H1539 C1520 0.913 . S
H1540 C1558 0.951 . S
H1541 C1560 0.951 . S
H1542 C1562 0.950 . S
H1543 C1563 0.950 . S
H1544 C1565 0.950 . S
H1545 C1568 0.950 . S
H1546 C1569 0.950 . S
H1547 C1571 0.950 . S
H1548 C1572 0.950 . S
H1549 C1573 0.951 . S
H1550 C1575 0.951 . S
H1551 C1577 0.950 . S
H1552 C1578 0.950 . S
H1553 C1580 0.950 . S
H1554 C1583 0.950 . S
H1555 C1584 0.950 . S
H1556 C1586 0.950 . S
H1557 C1587 0.950 . S
C1558 H1540 0.951 . S
C1558 C1559 1.366 . S
C1558 C1560 1.388 . S
C1559 C1558 1.366 . S
C1559 C1563 1.385 . S
C1560 H1541 0.951 . S
C1560 C1558 1.388 . S
C1560 C1561 1.366 . S
C1561 C1560 1.366 . S
C1561 C1562 1.414 . S
C1561 C1564 1.499 . S
C1562 H1542 0.950 . S
C1562 C1561 1.414 . S
C1562 C1563 1.374 . S
C1563 H1543 0.950 . S
C1563 C1559 1.385 . S
C1563 C1562 1.374 . S
C1564 C1561 1.499 . S
C1564 C1565 1.373 . S
C1564 C1566 1.389 . S
C1565 H1544 0.950 . S
C1565 C1564 1.373 . S
C1565 C1581 1.377 . S
C1566 C1564 1.389 . S
C1566 C1567 1.524 . S
C1566 C1580 1.377 . S
C1567 C1566 1.524 . S
C1567 C1568 1.397 . S
C1567 C1572 1.363 . S
C1568 H1545 0.950 . S
C1568 C1567 1.397 . S
C1568 C1569 1.334 . S
C1569 H1546 0.950 . S
C1569 C1568 1.334 . S
C1569 C1570 1.287 . S
C1570 C1569 1.287 . S
C1570 C1571 1.524 . S
C1570 H1589 0.913 . S
C1571 H1547 0.950 . S
C1571 C1570 1.524 . S
C1571 C1572 1.415 . S
C1572 H1548 0.950 . S
C1572 C1567 1.363 . S
C1572 C1571 1.415 . S
C1573 H1549 0.951 . S
C1573 C1574 1.366 . S
C1573 C1575 1.388 . S
C1574 C1573 1.366 . S
C1574 C1578 1.385 . S
C1575 H1550 0.951 . S
C1575 C1573 1.388 . S
C1575 C1576 1.366 . S
C1576 C1575 1.366 . S
C1576 C1577 1.414 . S
C1576 C1579 1.499 . S
C1577 H1551 0.950 . S
C1577 C1576 1.414 . S
C1577 C1578 1.374 . S
C1578 H1552 0.950 . S
C1578 C1574 1.385 . S
C1578 C1577 1.374 . S
C1579 C1576 1.499 . S
C1579 C1580 1.373 . S
C1579 C1581 1.389 . S
C1580 H1553 0.950 . S
C1580 C1566 1.377 . S
C1580 C1579 1.373 . S
C1581 C1565 1.377 . S
C1581 C1579 1.389 . S
C1581 C1582 1.524 . S
C1582 C1581 1.524 . S
C1582 C1583 1.397 . S
C1582 C1587 1.363 . S
C1583 H1554 0.950 . S
C1583 C1582 1.397 . S
C1583 C1584 1.334 . S
C1584 H1555 0.950 . S
C1584 C1583 1.334 . S
C1584 C1585 1.287 . S
C1585 C1584 1.287 . S
C1585 C1586 1.524 . S
C1585 H1588 0.999 . S
C1586 H1556 0.950 . S
C1586 C1585 1.524 . S
C1586 C1587 1.415 . S
C1587 H1557 0.950 . S
C1587 C1582 1.363 . S
C1587 C1586 1.415 . S
H1588 C1585 0.999 . S
H1589 C1570 0.913 . S
H1590 C1608 0.951 . S
H1591 C1610 0.951 . S
H1592 C1612 0.950 . S
H1593 C1613 0.950 . S
H1594 C1615 0.950 . S
H1595 C1618 0.950 . S
H1596 C1619 0.950 . S
H1597 C1621 0.950 . S
H1598 C1622 0.950 . S
H1599 C1623 0.951 . S
H1600 C1625 0.951 . S
H1601 C1627 0.950 . S
H1602 C1628 0.950 . S
H1603 C1630 0.950 . S
H1604 C1633 0.950 . S
H1605 C1634 0.950 . S
H1606 C1636 0.950 . S
H1607 C1637 0.950 . S
C1608 H1590 0.951 . S
C1608 C1609 1.366 . S
C1608 C1610 1.388 . S
C1609 C1608 1.366 . S
C1609 C1613 1.385 . S
C1610 H1591 0.951 . S
C1610 C1608 1.388 . S
C1610 C1611 1.366 . S
C1611 C1610 1.366 . S
C1611 C1612 1.414 . S
C1611 C1614 1.499 . S
C1612 H1592 0.950 . S
C1612 C1611 1.414 . S
C1612 C1613 1.374 . S
C1613 H1593 0.950 . S
C1613 C1609 1.385 . S
C1613 C1612 1.374 . S
C1614 C1611 1.499 . S
C1614 C1615 1.373 . S
C1614 C1616 1.389 . S
C1615 H1594 0.950 . S
C1615 C1614 1.373 . S
C1615 C1631 1.377 . S
C1616 C1614 1.389 . S
C1616 C1617 1.524 . S
C1616 C1630 1.377 . S
C1617 C1616 1.524 . S
C1617 C1618 1.397 . S
C1617 C1622 1.363 . S
C1618 H1595 0.950 . S
C1618 C1617 1.397 . S
C1618 C1619 1.334 . S
C1619 H1596 0.950 . S
C1619 C1618 1.334 . S
C1619 C1620 1.287 . S
C1620 C1619 1.287 . S
C1620 C1621 1.524 . S
C1620 H1639 0.913 . S
C1621 H1597 0.950 . S
C1621 C1620 1.524 . S
C1621 C1622 1.415 . S
C1622 H1598 0.950 . S
C1622 C1617 1.363 . S
C1622 C1621 1.415 . S
C1623 H1599 0.951 . S
C1623 C1624 1.366 . S
C1623 C1625 1.388 . S
C1624 C1623 1.366 . S
C1624 C1628 1.385 . S
C1625 H1600 0.951 . S
C1625 C1623 1.388 . S
C1625 C1626 1.366 . S
C1626 C1625 1.366 . S
C1626 C1627 1.414 . S
C1626 C1629 1.499 . S
C1627 H1601 0.950 . S
C1627 C1626 1.414 . S
C1627 C1628 1.374 . S
C1628 H1602 0.950 . S
C1628 C1624 1.385 . S
C1628 C1627 1.374 . S
C1629 C1626 1.499 . S
C1629 C1630 1.373 . S
C1629 C1631 1.389 . S
C1630 H1603 0.950 . S
C1630 C1616 1.377 . S
C1630 C1629 1.373 . S
C1631 C1615 1.377 . S
C1631 C1629 1.389 . S
C1631 C1632 1.524 . S
C1632 C1631 1.524 . S
C1632 C1633 1.397 . S
C1632 C1637 1.363 . S
C1633 H1604 0.950 . S
C1633 C1632 1.397 . S
C1633 C1634 1.334 . S
C1634 H1605 0.950 . S
C1634 C1633 1.334 . S
C1634 C1635 1.287 . S
C1635 C1634 1.287 . S
C1635 C1636 1.524 . S
C1635 H1638 0.999 . S
C1636 H1606 0.950 . S
C1636 C1635 1.524 . S
C1636 C1637 1.415 . S
C1637 H1607 0.950 . S
C1637 C1632 1.363 . S
C1637 C1636 1.415 . S
H1638 C1635 0.999 . S
H1639 C1620 0.913 . S
H1640 C1658 0.951 . S
H1641 C1660 0.951 . S
H1642 C1662 0.950 . S
H1643 C1663 0.950 . S
H1644 C1665 0.950 . S
H1645 C1668 0.950 . S
H1646 C1669 0.950 . S
H1647 C1671 0.950 . S
H1648 C1672 0.950 . S
H1649 C1673 0.951 . S
H1650 C1675 0.951 . S
H1651 C1677 0.950 . S
H1652 C1678 0.950 . S
H1653 C1680 0.950 . S
H1654 C1683 0.950 . S
H1655 C1684 0.950 . S
H1656 C1686 0.950 . S
H1657 C1687 0.950 . S
C1658 H1640 0.951 . S
C1658 C1659 1.366 . S
C1658 C1660 1.388 . S
C1659 C1658 1.366 . S
C1659 C1663 1.385 . S
C1660 H1641 0.951 . S
C1660 C1658 1.388 . S
C1660 C1661 1.366 . S
C1661 C1660 1.366 . S
C1661 C1662 1.414 . S
C1661 C1664 1.499 . S
C1662 H1642 0.950 . S
C1662 C1661 1.414 . S
C1662 C1663 1.374 . S
C1663 H1643 0.950 . S
C1663 C1659 1.385 . S
C1663 C1662 1.374 . S
C1664 C1661 1.499 . S
C1664 C1665 1.373 . S
C1664 C1666 1.389 . S
C1665 H1644 0.950 . S
C1665 C1664 1.373 . S
C1665 C1681 1.377 . S
C1666 C1664 1.389 . S
C1666 C1667 1.524 . S
C1666 C1680 1.377 . S
C1667 C1666 1.524 . S
C1667 C1668 1.397 . S
C1667 C1672 1.363 . S
C1668 H1645 0.950 . S
C1668 C1667 1.397 . S
C1668 C1669 1.334 . S
C1669 H1646 0.950 . S
C1669 C1668 1.334 . S
C1669 C1670 1.287 . S
C1670 C1669 1.287 . S
C1670 C1671 1.524 . S
C1670 H1689 0.913 . S
C1671 H1647 0.950 . S
C1671 C1670 1.524 . S
C1671 C1672 1.415 . S
C1672 H1648 0.950 . S
C1672 C1667 1.363 . S
C1672 C1671 1.415 . S
C1673 H1649 0.951 . S
C1673 C1674 1.366 . S
C1673 C1675 1.388 . S
C1674 C1673 1.366 . S
C1674 C1678 1.385 . S
C1675 H1650 0.951 . S
C1675 C1673 1.388 . S
C1675 C1676 1.366 . S
C1676 C1675 1.366 . S
C1676 C1677 1.414 . S
C1676 C1679 1.499 . S
C1677 H1651 0.950 . S
C1677 C1676 1.414 . S
C1677 C1678 1.374 . S
C1678 H1652 0.950 . S
C1678 C1674 1.385 . S
C1678 C1677 1.374 . S
C1679 C1676 1.499 . S
C1679 C1680 1.373 . S
C1679 C1681 1.389 . S
C1680 H1653 0.950 . S
C1680 C1666 1.377 . S
C1680 C1679 1.373 . S
C1681 C1665 1.377 . S
C1681 C1679 1.389 . S
C1681 C1682 1.524 . S
C1682 C1681 1.524 . S
C1682 C1683 1.397 . S
C1682 C1687 1.363 . S
C1683 H1654 0.950 . S
C1683 C1682 1.397 . S
C1683 C1684 1.334 . S
C1684 H1655 0.950 . S
C1684 C1683 1.334 . S
C1684 C1685 1.287 . S
C1685 C1684 1.287 . S
C1685 C1686 1.524 . S
C1685 H1688 0.999 1_556 S
C1686 H1656 0.950 . S
C1686 C1685 1.524 . S
C1686 C1687 1.415 . S
C1687 H1657 0.950 . S
C1687 C1682 1.363 . S
C1687 C1686 1.415 . S
H1688 C1685 0.999 1_554 S
H1689 C1670 0.913 . S
H1690 C1708 0.951 . S
H1691 C1710 0.951 . S
H1692 C1712 0.950 . S
H1693 C1713 0.950 . S
H1694 C1715 0.950 . S
H1695 C1718 0.950 . S
H1696 C1719 0.950 . S
H1697 C1721 0.950 . S
H1698 C1722 0.950 . S
H1699 C1723 0.951 . S
H1700 C1725 0.951 . S
H1701 C1727 0.950 . S
H1702 C1728 0.950 . S
H1703 C1730 0.950 . S
H1704 C1733 0.950 . S
H1705 C1734 0.950 1_556 S
H1706 C1736 0.950 . S
H1707 C1737 0.950 . S
C1708 H1690 0.951 . S
C1708 C1709 1.366 . S
C1708 C1710 1.388 . S
C1709 C1708 1.366 . S
C1709 C1713 1.385 . S
C1710 H1691 0.951 . S
C1710 C1708 1.388 . S
C1710 C1711 1.366 . S
C1711 C1710 1.366 . S
C1711 C1712 1.414 . S
C1711 C1714 1.499 . S
C1712 H1692 0.950 . S
C1712 C1711 1.414 . S
C1712 C1713 1.374 . S
C1713 H1693 0.950 . S
C1713 C1709 1.385 . S
C1713 C1712 1.374 . S
C1714 C1711 1.499 . S
C1714 C1715 1.373 . S
C1714 C1716 1.389 . S
C1715 H1694 0.950 . S
C1715 C1714 1.373 . S
C1715 C1731 1.377 . S
C1716 C1714 1.389 . S
C1716 C1717 1.524 . S
C1716 C1730 1.377 . S
C1717 C1716 1.524 . S
C1717 C1718 1.397 . S
C1717 C1722 1.363 . S
C1718 H1695 0.950 . S
C1718 C1717 1.397 . S
C1718 C1719 1.334 . S
C1719 H1696 0.950 . S
C1719 C1718 1.334 . S
C1719 C1720 1.287 . S
C1720 C1719 1.287 . S
C1720 C1721 1.524 . S
C1720 H1739 0.913 . S
C1721 H1697 0.950 . S
C1721 C1720 1.524 . S
C1721 C1722 1.415 . S
C1722 H1698 0.950 . S
C1722 C1717 1.363 . S
C1722 C1721 1.415 . S
C1723 H1699 0.951 . S
C1723 C1724 1.366 . S
C1723 C1725 1.388 . S
C1724 C1723 1.366 . S
C1724 C1728 1.385 . S
C1725 H1700 0.951 . S
C1725 C1723 1.388 . S
C1725 C1726 1.366 . S
C1726 C1725 1.366 . S
C1726 C1727 1.414 . S
C1726 C1729 1.499 . S
C1727 H1701 0.950 . S
C1727 C1726 1.414 . S
C1727 C1728 1.374 . S
C1728 H1702 0.950 . S
C1728 C1724 1.385 . S
C1728 C1727 1.374 . S
C1729 C1726 1.499 . S
C1729 C1730 1.373 . S
C1729 C1731 1.389 . S
C1730 H1703 0.950 . S
C1730 C1716 1.377 . S
C1730 C1729 1.373 . S
C1731 C1715 1.377 . S
C1731 C1729 1.389 . S
C1731 C1732 1.524 . S
C1732 C1731 1.524 . S
C1732 C1733 1.397 . S
C1732 C1737 1.363 . S
C1733 H1704 0.950 . S
C1733 C1732 1.397 . S
C1733 C1734 1.334 . S
C1734 H1705 0.950 1_554 S
C1734 C1733 1.334 . S
C1734 C1735 1.287 . S
C1735 C1734 1.287 . S
C1735 C1736 1.524 . S
C1735 H1738 0.999 1_554 S
C1736 H1706 0.950 . S
C1736 C1735 1.524 . S
C1736 C1737 1.415 . S
C1737 H1707 0.950 . S
C1737 C1732 1.363 . S
C1737 C1736 1.415 . S
H1738 C1735 0.999 1_556 S
H1739 C1720 0.913 . S
H1740 C1758 0.951 . S
H1741 C1760 0.951 . S
H1742 C1762 0.950 . S
H1743 C1763 0.950 . S
H1744 C1765 0.950 . S
H1745 C1768 0.950 . S
H1746 C1769 0.950 . S
H1747 C1771 0.950 . S
H1748 C1772 0.950 . S
H1749 C1773 0.951 . S
H1750 C1775 0.951 . S
H1751 C1777 0.950 . S
H1752 C1778 0.950 . S
H1753 C1780 0.950 . S
H1754 C1783 0.950 . S
H1755 C1784 0.950 . S
H1756 C1786 0.950 . S
H1757 C1787 0.950 . S
C1758 H1740 0.951 . S
C1758 C1759 1.366 . S
C1758 C1760 1.388 . S
C1759 C1758 1.366 . S
C1759 C1763 1.385 . S
C1760 H1741 0.951 . S
C1760 C1758 1.388 . S
C1760 C1761 1.366 . S
C1761 C1760 1.366 . S
C1761 C1762 1.414 . S
C1761 C1764 1.499 . S
C1762 H1742 0.950 . S
C1762 C1761 1.414 . S
C1762 C1763 1.374 . S
C1763 H1743 0.950 . S
C1763 C1759 1.385 . S
C1763 C1762 1.374 . S
C1764 C1761 1.499 . S
C1764 C1765 1.373 . S
C1764 C1766 1.389 . S
C1765 H1744 0.950 . S
C1765 C1764 1.373 . S
C1765 C1781 1.377 . S
C1766 C1764 1.389 . S
C1766 C1767 1.524 . S
C1766 C1780 1.377 . S
C1767 C1766 1.524 . S
C1767 C1768 1.397 . S
C1767 C1772 1.363 . S
C1768 H1745 0.950 . S
C1768 C1767 1.397 . S
C1768 C1769 1.334 . S
C1769 H1746 0.950 . S
C1769 C1768 1.334 . S
C1769 C1770 1.287 . S
C1770 C1769 1.287 . S
C1770 C1771 1.524 . S
C1770 H1789 0.913 . S
C1771 H1747 0.950 . S
C1771 C1770 1.524 . S
C1771 C1772 1.415 . S
C1772 H1748 0.950 . S
C1772 C1767 1.363 . S
C1772 C1771 1.415 . S
C1773 H1749 0.951 . S
C1773 C1774 1.366 . S
C1773 C1775 1.388 . S
C1774 C1773 1.366 . S
C1774 C1778 1.385 . S
C1775 H1750 0.951 . S
C1775 C1773 1.388 . S
C1775 C1776 1.366 . S
C1776 C1775 1.366 . S
C1776 C1777 1.414 . S
C1776 C1779 1.499 . S
C1777 H1751 0.950 . S
C1777 C1776 1.414 . S
C1777 C1778 1.374 . S
C1778 H1752 0.950 . S
C1778 C1774 1.385 . S
C1778 C1777 1.374 . S
C1779 C1776 1.499 . S
C1779 C1780 1.373 . S
C1779 C1781 1.389 . S
C1780 H1753 0.950 . S
C1780 C1766 1.377 . S
C1780 C1779 1.373 . S
C1781 C1765 1.377 . S
C1781 C1779 1.389 . S
C1781 C1782 1.524 . S
C1782 C1781 1.524 . S
C1782 C1783 1.397 . S
C1782 C1787 1.363 . S
C1783 H1754 0.950 . S
C1783 C1782 1.397 . S
C1783 C1784 1.334 . S
C1784 H1755 0.950 . S
C1784 C1783 1.334 . S
C1784 C1785 1.287 . S
C1785 C1784 1.287 . S
C1785 C1786 1.524 . S
C1785 H1788 0.999 . S
C1786 H1756 0.950 . S
C1786 C1785 1.524 . S
C1786 C1787 1.415 . S
C1787 H1757 0.950 . S
C1787 C1782 1.363 . S
C1787 C1786 1.415 . S
H1788 C1785 0.999 . S
H1789 C1770 0.913 . S
H1790 C1808 0.951 . S
H1791 C1810 0.951 . S
H1792 C1812 0.950 . S
H1793 C1813 0.950 . S
H1794 C1815 0.950 . S
H1795 C1818 0.950 . S
H1796 C1819 0.950 . S
H1797 C1821 0.950 . S
H1798 C1822 0.950 . S
H1799 C1823 0.951 . S
H1800 C1825 0.951 . S
H1801 C1827 0.950 . S
H1802 C1828 0.950 . S
H1803 C1830 0.950 . S
H1804 C1833 0.950 . S
H1805 C1834 0.950 . S
H1806 C1836 0.950 . S
H1807 C1837 0.950 . S
C1808 H1790 0.951 . S
C1808 C1809 1.366 . S
C1808 C1810 1.388 . S
C1809 C1808 1.366 . S
C1809 C1813 1.385 . S
C1810 H1791 0.951 . S
C1810 C1808 1.388 . S
C1810 C1811 1.366 . S
C1811 C1810 1.366 . S
C1811 C1812 1.414 . S
C1811 C1814 1.499 . S
C1812 H1792 0.950 . S
C1812 C1811 1.414 . S
C1812 C1813 1.374 . S
C1813 H1793 0.950 . S
C1813 C1809 1.385 . S
C1813 C1812 1.374 . S
C1814 C1811 1.499 . S
C1814 C1815 1.373 . S
C1814 C1816 1.389 . S
C1815 H1794 0.950 . S
C1815 C1814 1.373 . S
C1815 C1831 1.377 . S
C1816 C1814 1.389 . S
C1816 C1817 1.524 . S
C1816 C1830 1.377 . S
C1817 C1816 1.524 . S
C1817 C1818 1.397 . S
C1817 C1822 1.363 . S
C1818 H1795 0.950 . S
C1818 C1817 1.397 . S
C1818 C1819 1.334 . S
C1819 H1796 0.950 . S
C1819 C1818 1.334 . S
C1819 C1820 1.287 . S
C1820 C1819 1.287 . S
C1820 C1821 1.524 . S
C1820 H1839 0.913 . S
C1821 H1797 0.950 . S
C1821 C1820 1.524 . S
C1821 C1822 1.415 . S
C1822 H1798 0.950 . S
C1822 C1817 1.363 . S
C1822 C1821 1.415 . S
C1823 H1799 0.951 . S
C1823 C1824 1.366 . S
C1823 C1825 1.388 . S
C1824 C1823 1.366 . S
C1824 C1828 1.385 . S
C1825 H1800 0.951 . S
C1825 C1823 1.388 . S
C1825 C1826 1.366 . S
C1826 C1825 1.366 . S
C1826 C1827 1.414 . S
C1826 C1829 1.499 . S
C1827 H1801 0.950 . S
C1827 C1826 1.414 . S
C1827 C1828 1.374 . S
C1828 H1802 0.950 . S
C1828 C1824 1.385 . S
C1828 C1827 1.374 . S
C1829 C1826 1.499 . S
C1829 C1830 1.373 . S
C1829 C1831 1.389 . S
C1830 H1803 0.950 . S
C1830 C1816 1.377 . S
C1830 C1829 1.373 . S
C1831 C1815 1.377 . S
C1831 C1829 1.389 . S
C1831 C1832 1.524 . S
C1832 C1831 1.524 . S
C1832 C1833 1.397 . S
C1832 C1837 1.363 . S
C1833 H1804 0.950 . S
C1833 C1832 1.397 . S
C1833 C1834 1.334 . S
C1834 H1805 0.950 . S
C1834 C1833 1.334 . S
C1834 C1835 1.287 . S
C1835 C1834 1.287 . S
C1835 C1836 1.524 . S
C1835 H1838 0.999 . S
C1836 H1806 0.950 . S
C1836 C1835 1.524 . S
C1836 C1837 1.415 . S
C1837 H1807 0.950 . S
C1837 C1832 1.363 . S
C1837 C1836 1.415 . S
H1838 C1835 0.999 . S
H1839 C1820 0.913 . S
H1840 C1858 0.951 . S
H1841 C1860 0.951 . S
H1842 C1862 0.950 . S
H1843 C1863 0.950 . S
H1844 C1865 0.950 . S
H1845 C1868 0.950 . S
H1846 C1869 0.950 . S
H1847 C1871 0.950 . S
H1848 C1872 0.950 . S
H1849 C1873 0.951 . S
H1850 C1875 0.951 . S
H1851 C1877 0.950 . S
H1852 C1878 0.950 . S
H1853 C1880 0.950 . S
H1854 C1883 0.950 . S
H1855 C1884 0.950 . S
H1856 C1886 0.950 . S
H1857 C1887 0.950 . S
C1858 H1840 0.951 . S
C1858 C1859 1.366 . S
C1858 C1860 1.388 . S
C1859 C1858 1.366 . S
C1859 C1863 1.385 . S
C1860 H1841 0.951 . S
C1860 C1858 1.388 . S
C1860 C1861 1.366 . S
C1861 C1860 1.366 . S
C1861 C1862 1.414 . S
C1861 C1864 1.499 . S
C1862 H1842 0.950 . S
C1862 C1861 1.414 . S
C1862 C1863 1.374 . S
C1863 H1843 0.950 . S
C1863 C1859 1.385 . S
C1863 C1862 1.374 . S
C1864 C1861 1.499 . S
C1864 C1865 1.373 . S
C1864 C1866 1.389 . S
C1865 H1844 0.950 . S
C1865 C1864 1.373 . S
C1865 C1881 1.377 . S
C1866 C1864 1.389 . S
C1866 C1867 1.524 . S
C1866 C1880 1.377 . S
C1867 C1866 1.524 . S
C1867 C1868 1.397 . S
C1867 C1872 1.363 . S
C1868 H1845 0.950 . S
C1868 C1867 1.397 . S
C1868 C1869 1.334 . S
C1869 H1846 0.950 . S
C1869 C1868 1.334 . S
C1869 C1870 1.287 . S
C1870 C1869 1.287 . S
C1870 C1871 1.524 . S
C1870 H1889 0.913 . S
C1871 H1847 0.950 . S
C1871 C1870 1.524 . S
C1871 C1872 1.415 . S
C1872 H1848 0.950 . S
C1872 C1867 1.363 . S
C1872 C1871 1.415 . S
C1873 H1849 0.951 . S
C1873 C1874 1.366 . S
C1873 C1875 1.388 . S
C1874 C1873 1.366 . S
C1874 C1878 1.385 . S
C1875 H1850 0.951 . S
C1875 C1873 1.388 . S
C1875 C1876 1.366 . S
C1876 C1875 1.366 . S
C1876 C1877 1.414 . S
C1876 C1879 1.499 . S
C1877 H1851 0.950 . S
C1877 C1876 1.414 . S
C1877 C1878 1.374 . S
C1878 H1852 0.950 . S
C1878 C1874 1.385 . S
C1878 C1877 1.374 . S
C1879 C1876 1.499 . S
C1879 C1880 1.373 . S
C1879 C1881 1.389 . S
C1880 H1853 0.950 . S
C1880 C1866 1.377 . S
C1880 C1879 1.373 . S
C1881 C1865 1.377 . S
C1881 C1879 1.389 . S
C1881 C1882 1.524 . S
C1882 C1881 1.524 . S
C1882 C1883 1.397 . S
C1882 C1887 1.363 . S
C1883 H1854 0.950 . S
C1883 C1882 1.397 . S
C1883 C1884 1.334 . S
C1884 H1855 0.950 . S
C1884 C1883 1.334 . S
C1884 C1885 1.287 . S
C1885 C1884 1.287 . S
C1885 C1886 1.524 . S
C1885 H1888 0.999 . S
C1886 H1856 0.950 . S
C1886 C1885 1.524 . S
C1886 C1887 1.415 . S
C1887 H1857 0.950 . S
C1887 C1882 1.363 . S
C1887 C1886 1.415 . S
H1888 C1885 0.999 . S
H1889 C1870 0.913 . S
H1890 C1908 0.951 . S
H1891 C1910 0.951 . S
H1892 C1912 0.950 . S
H1893 C1913 0.950 . S
H1894 C1915 0.950 . S
H1895 C1918 0.950 . S
H1896 C1919 0.950 . S
H1897 C1921 0.950 . S
H1898 C1922 0.950 . S
H1899 C1923 0.951 1_455 S
H1900 C1925 0.951 . S
H1901 C1927 0.950 . S
H1902 C1928 0.950 . S
H1903 C1930 0.950 . S
H1904 C1933 0.950 . S
H1905 C1934 0.950 . S
H1906 C1936 0.950 1_455 S
H1907 C1937 0.950 . S
C1908 H1890 0.951 . S
C1908 C1909 1.366 . S
C1908 C1910 1.388 . S
C1909 C1908 1.366 . S
C1909 C1913 1.385 . S
C1910 H1891 0.951 . S
C1910 C1908 1.388 . S
C1910 C1911 1.366 . S
C1911 C1910 1.366 . S
C1911 C1912 1.414 . S
C1911 C1914 1.499 . S
C1912 H1892 0.950 . S
C1912 C1911 1.414 . S
C1912 C1913 1.374 . S
C1913 H1893 0.950 . S
C1913 C1909 1.385 . S
C1913 C1912 1.374 . S
C1914 C1911 1.499 . S
C1914 C1915 1.373 . S
C1914 C1916 1.389 . S
C1915 H1894 0.950 . S
C1915 C1914 1.373 . S
C1915 C1931 1.377 . S
C1916 C1914 1.389 . S
C1916 C1917 1.524 . S
C1916 C1930 1.377 . S
C1917 C1916 1.524 . S
C1917 C1918 1.397 . S
C1917 C1922 1.363 . S
C1918 H1895 0.950 . S
C1918 C1917 1.397 . S
C1918 C1919 1.334 . S
C1919 H1896 0.950 . S
C1919 C1918 1.334 . S
C1919 C1920 1.287 . S
C1920 C1919 1.287 . S
C1920 C1921 1.524 . S
C1920 H1939 0.913 . S
C1921 H1897 0.950 . S
C1921 C1920 1.524 . S
C1921 C1922 1.415 . S
C1922 H1898 0.950 . S
C1922 C1917 1.363 . S
C1922 C1921 1.415 . S
C1923 H1899 0.951 1_655 S
C1923 C1924 1.366 . S
C1923 C1925 1.388 . S
C1924 C1923 1.366 . S
C1924 C1928 1.385 . S
C1925 H1900 0.951 . S
C1925 C1923 1.388 . S
C1925 C1926 1.366 . S
C1926 C1925 1.366 . S
C1926 C1927 1.414 . S
C1926 C1929 1.499 . S
C1927 H1901 0.950 . S
C1927 C1926 1.414 . S
C1927 C1928 1.374 . S
C1928 H1902 0.950 . S
C1928 C1924 1.385 . S
C1928 C1927 1.374 . S
C1929 C1926 1.499 . S
C1929 C1930 1.373 . S
C1929 C1931 1.389 . S
C1930 H1903 0.950 . S
C1930 C1916 1.377 . S
C1930 C1929 1.373 . S
C1931 C1915 1.377 . S
C1931 C1929 1.389 . S
C1931 C1932 1.524 . S
C1932 C1931 1.524 . S
C1932 C1933 1.397 . S
C1932 C1937 1.363 . S
C1933 H1904 0.950 . S
C1933 C1932 1.397 . S
C1933 C1934 1.334 . S
C1934 H1905 0.950 . S
C1934 C1933 1.334 . S
C1934 C1935 1.287 . S
C1935 C1934 1.287 . S
C1935 C1936 1.524 . S
C1935 H1938 0.999 1_655 S
C1936 H1906 0.950 1_655 S
C1936 C1935 1.524 . S
C1936 C1937 1.415 . S
C1937 H1907 0.950 . S
C1937 C1932 1.363 . S
C1937 C1936 1.415 . S
H1938 C1935 0.999 1_455 S
H1939 C1920 0.913 . S
H1940 C1958 0.951 . S
H1941 C1960 0.951 . S
H1942 C1962 0.950 . S
H1943 C1963 0.950 . S
H1944 C1965 0.950 . S
H1945 C1968 0.950 . S
H1946 C1969 0.950 . S
H1947 C1971 0.950 . S
H1948 C1972 0.950 . S
H1949 C1973 0.951 . S
H1950 C1975 0.951 . S
H1951 C1977 0.950 . S
H1952 C1978 0.950 . S
H1953 C1980 0.950 . S
H1954 C1983 0.950 . S
H1955 C1984 0.950 . S
H1956 C1986 0.950 . S
H1957 C1987 0.950 . S
C1958 H1940 0.951 . S
C1958 C1959 1.366 . S
C1958 C1960 1.388 . S
C1959 C1958 1.366 . S
C1959 C1963 1.385 . S
C1960 H1941 0.951 . S
C1960 C1958 1.388 . S
C1960 C1961 1.366 . S
C1961 C1960 1.366 . S
C1961 C1962 1.414 . S
C1961 C1964 1.499 . S
C1962 H1942 0.950 . S
C1962 C1961 1.414 . S
C1962 C1963 1.374 . S
C1963 H1943 0.950 . S
C1963 C1959 1.385 . S
C1963 C1962 1.374 . S
C1964 C1961 1.499 . S
C1964 C1965 1.373 . S
C1964 C1966 1.389 . S
C1965 H1944 0.950 . S
C1965 C1964 1.373 . S
C1965 C1981 1.377 . S
C1966 C1964 1.389 . S
C1966 C1967 1.524 . S
C1966 C1980 1.377 . S
C1967 C1966 1.524 . S
C1967 C1968 1.397 . S
C1967 C1972 1.363 . S
C1968 H1945 0.950 . S
C1968 C1967 1.397 . S
C1968 C1969 1.334 . S
C1969 H1946 0.950 . S
C1969 C1968 1.334 . S
C1969 C1970 1.287 . S
C1970 C1969 1.287 . S
C1970 C1971 1.524 . S
C1970 H1989 0.913 . S
C1971 H1947 0.950 . S
C1971 C1970 1.524 . S
C1971 C1972 1.415 . S
C1972 H1948 0.950 . S
C1972 C1967 1.363 . S
C1972 C1971 1.415 . S
C1973 H1949 0.951 . S
C1973 C1974 1.366 . S
C1973 C1975 1.388 . S
C1974 C1973 1.366 . S
C1974 C1978 1.385 . S
C1975 H1950 0.951 . S
C1975 C1973 1.388 . S
C1975 C1976 1.366 . S
C1976 C1975 1.366 . S
C1976 C1977 1.414 . S
C1976 C1979 1.499 . S
C1977 H1951 0.950 . S
C1977 C1976 1.414 . S
C1977 C1978 1.374 . S
C1978 H1952 0.950 . S
C1978 C1974 1.385 . S
C1978 C1977 1.374 . S
C1979 C1976 1.499 . S
C1979 C1980 1.373 . S
C1979 C1981 1.389 . S
C1980 H1953 0.950 . S
C1980 C1966 1.377 . S
C1980 C1979 1.373 . S
C1981 C1965 1.377 . S
C1981 C1979 1.389 . S
C1981 C1982 1.524 . S
C1982 C1981 1.524 . S
C1982 C1983 1.397 . S
C1982 C1987 1.363 . S
C1983 H1954 0.950 . S
C1983 C1982 1.397 . S
C1983 C1984 1.334 . S
C1984 H1955 0.950 . S
C1984 C1983 1.334 . S
C1984 C1985 1.287 . S
C1985 C1984 1.287 . S
C1985 C1986 1.524 . S
C1985 H1988 0.999 . S
C1986 H1956 0.950 . S
C1986 C1985 1.524 . S
C1986 C1987 1.415 . S
C1987 H1957 0.950 . S
C1987 C1982 1.363 . S
C1987 C1986 1.415 . S
H1988 C1985 0.999 . S
H1989 C1970 0.913 . S
H1990 C2008 0.951 . S
H1991 C2010 0.951 . S
H1992 C2012 0.950 . S
H1993 C2013 0.950 . S
H1994 C2015 0.950 . S
H1995 C2018 0.950 . S
H1996 C2019 0.950 . S
H1997 C2021 0.950 . S
H1998 C2022 0.950 . S
H1999 C2023 0.951 . S
H2000 C2025 0.951 . S
H2001 C2027 0.950 . S
H2002 C2028 0.950 . S
H2003 C2030 0.950 . S
H2004 C2033 0.950 . S
H2005 C2034 0.950 . S
H2006 C2036 0.950 . S
H2007 C2037 0.950 . S
C2008 H1990 0.951 . S
C2008 C2009 1.366 . S
C2008 C2010 1.388 . S
C2009 C2008 1.366 . S
C2009 C2013 1.385 . S
C2010 H1991 0.951 . S
C2010 C2008 1.388 . S
C2010 C2011 1.366 . S
C2011 C2010 1.366 . S
C2011 C2012 1.414 . S
C2011 C2014 1.499 . S
C2012 H1992 0.950 . S
C2012 C2011 1.414 . S
C2012 C2013 1.374 . S
C2013 H1993 0.950 . S
C2013 C2009 1.385 . S
C2013 C2012 1.374 . S
C2014 C2011 1.499 . S
C2014 C2015 1.373 . S
C2014 C2016 1.389 . S
C2015 H1994 0.950 . S
C2015 C2014 1.373 . S
C2015 C2031 1.377 . S
C2016 C2014 1.389 . S
C2016 C2017 1.524 . S
C2016 C2030 1.377 . S
C2017 C2016 1.524 . S
C2017 C2018 1.397 . S
C2017 C2022 1.363 . S
C2018 H1995 0.950 . S
C2018 C2017 1.397 . S
C2018 C2019 1.334 . S
C2019 H1996 0.950 . S
C2019 C2018 1.334 . S
C2019 C2020 1.287 . S
C2020 C2019 1.287 . S
C2020 C2021 1.524 . S
C2020 H2039 0.913 . S
C2021 H1997 0.950 . S
C2021 C2020 1.524 . S
C2021 C2022 1.415 . S
C2022 H1998 0.950 . S
C2022 C2017 1.363 . S
C2022 C2021 1.415 . S
C2023 H1999 0.951 . S
C2023 C2024 1.366 . S
C2023 C2025 1.388 . S
C2024 C2023 1.366 . S
C2024 C2028 1.385 . S
C2025 H2000 0.951 . S
C2025 C2023 1.388 . S
C2025 C2026 1.366 . S
C2026 C2025 1.366 . S
C2026 C2027 1.414 . S
C2026 C2029 1.499 . S
C2027 H2001 0.950 . S
C2027 C2026 1.414 . S
C2027 C2028 1.374 . S
C2028 H2002 0.950 . S
C2028 C2024 1.385 . S
C2028 C2027 1.374 . S
C2029 C2026 1.499 . S
C2029 C2030 1.373 . S
C2029 C2031 1.389 . S
C2030 H2003 0.950 . S
C2030 C2016 1.377 . S
C2030 C2029 1.373 . S
C2031 C2015 1.377 . S
C2031 C2029 1.389 . S
C2031 C2032 1.524 . S
C2032 C2031 1.524 . S
C2032 C2033 1.397 . S
C2032 C2037 1.363 . S
C2033 H2004 0.950 . S
C2033 C2032 1.397 . S
C2033 C2034 1.334 . S
C2034 H2005 0.950 . S
C2034 C2033 1.334 . S
C2034 C2035 1.287 . S
C2035 C2034 1.287 . S
C2035 C2036 1.524 . S
C2035 H2038 0.999 . S
C2036 H2006 0.950 . S
C2036 C2035 1.524 . S
C2036 C2037 1.415 . S
C2037 H2007 0.950 . S
C2037 C2032 1.363 . S
C2037 C2036 1.415 . S
H2038 C2035 0.999 . S
H2039 C2020 0.913 . S
H2040 C2058 0.951 . S
H2041 C2060 0.951 . S
H2042 C2062 0.950 . S
H2043 C2063 0.950 . S
H2044 C2065 0.950 . S
H2045 C2068 0.950 . S
H2046 C2069 0.950 . S
H2047 C2071 0.950 . S
H2048 C2072 0.950 . S
H2049 C2073 0.951 . S
H2050 C2075 0.951 . S
H2051 C2077 0.950 . S
H2052 C2078 0.950 . S
H2053 C2080 0.950 . S
H2054 C2083 0.950 . S
H2055 C2084 0.950 . S
H2056 C2086 0.950 . S
H2057 C2087 0.950 . S
C2058 H2040 0.951 . S
C2058 C2059 1.366 . S
C2058 C2060 1.388 . S
C2059 C2058 1.366 . S
C2059 C2063 1.385 . S
C2060 H2041 0.951 . S
C2060 C2058 1.388 . S
C2060 C2061 1.366 . S
C2061 C2060 1.366 . S
C2061 C2062 1.414 . S
C2061 C2064 1.499 . S
C2062 H2042 0.950 . S
C2062 C2061 1.414 . S
C2062 C2063 1.374 . S
C2063 H2043 0.950 . S
C2063 C2059 1.385 . S
C2063 C2062 1.374 . S
C2064 C2061 1.499 . S
C2064 C2065 1.373 . S
C2064 C2066 1.389 . S
C2065 H2044 0.950 . S
C2065 C2064 1.373 . S
C2065 C2081 1.377 . S
C2066 C2064 1.389 . S
C2066 C2067 1.524 . S
C2066 C2080 1.377 . S
C2067 C2066 1.524 . S
C2067 C2068 1.397 . S
C2067 C2072 1.363 . S
C2068 H2045 0.950 . S
C2068 C2067 1.397 . S
C2068 C2069 1.334 . S
C2069 H2046 0.950 . S
C2069 C2068 1.334 . S
C2069 C2070 1.287 . S
C2070 C2069 1.287 . S
C2070 C2071 1.524 . S
C2070 H2089 0.913 . S
C2071 H2047 0.950 . S
C2071 C2070 1.524 . S
C2071 C2072 1.415 . S
C2072 H2048 0.950 . S
C2072 C2067 1.363 . S
C2072 C2071 1.415 . S
C2073 H2049 0.951 . S
C2073 C2074 1.366 . S
C2073 C2075 1.388 . S
C2074 C2073 1.366 . S
C2074 C2078 1.385 . S
C2075 H2050 0.951 . S
C2075 C2073 1.388 . S
C2075 C2076 1.366 . S
C2076 C2075 1.366 . S
C2076 C2077 1.414 . S
C2076 C2079 1.499 . S
C2077 H2051 0.950 . S
C2077 C2076 1.414 . S
C2077 C2078 1.374 . S
C2078 H2052 0.950 . S
C2078 C2074 1.385 . S
C2078 C2077 1.374 . S
C2079 C2076 1.499 . S
C2079 C2080 1.373 . S
C2079 C2081 1.389 . S
C2080 H2053 0.950 . S
C2080 C2066 1.377 . S
C2080 C2079 1.373 . S
C2081 C2065 1.377 . S
C2081 C2079 1.389 . S
C2081 C2082 1.524 . S
C2082 C2081 1.524 . S
C2082 C2083 1.397 . S
C2082 C2087 1.363 . S
C2083 H2054 0.950 . S
C2083 C2082 1.397 . S
C2083 C2084 1.334 . S
C2084 H2055 0.950 . S
C2084 C2083 1.334 . S
C2084 C2085 1.287 . S
C2085 C2084 1.287 . S
C2085 C2086 1.524 . S
C2085 H2088 0.999 . S
C2086 H2056 0.950 . S
C2086 C2085 1.524 . S
C2086 C2087 1.415 . S
C2087 H2057 0.950 . S
C2087 C2082 1.363 . S
C2087 C2086 1.415 . S
H2088 C2085 0.999 . S
H2089 C2070 0.913 . S
H2090 C2108 0.951 . S
H2091 C2110 0.951 . S
H2092 C2112 0.950 . S
H2093 C2113 0.950 . S
H2094 C2115 0.950 . S
H2095 C2118 0.950 . S
H2096 C2119 0.950 . S
H2097 C2121 0.950 . S
H2098 C2122 0.950 . S
H2099 C2123 0.951 . S
H2100 C2125 0.951 . S
H2101 C2127 0.950 . S
H2102 C2128 0.950 . S
H2103 C2130 0.950 . S
H2104 C2133 0.950 . S
H2105 C2134 0.950 . S
H2106 C2136 0.950 . S
H2107 C2137 0.950 . S
C2108 H2090 0.951 . S
C2108 C2109 1.366 . S
C2108 C2110 1.388 . S
C2109 C2108 1.366 . S
C2109 C2113 1.385 . S
C2110 H2091 0.951 . S
C2110 C2108 1.388 . S
C2110 C2111 1.366 . S
C2111 C2110 1.366 . S
C2111 C2112 1.414 . S
C2111 C2114 1.499 . S
C2112 H2092 0.950 . S
C2112 C2111 1.414 . S
C2112 C2113 1.374 . S
C2113 H2093 0.950 . S
C2113 C2109 1.385 . S
C2113 C2112 1.374 . S
C2114 C2111 1.499 . S
C2114 C2115 1.373 . S
C2114 C2116 1.389 . S
C2115 H2094 0.950 . S
C2115 C2114 1.373 . S
C2115 C2131 1.377 . S
C2116 C2114 1.389 . S
C2116 C2117 1.524 . S
C2116 C2130 1.377 . S
C2117 C2116 1.524 . S
C2117 C2118 1.397 . S
C2117 C2122 1.363 . S
C2118 H2095 0.950 . S
C2118 C2117 1.397 . S
C2118 C2119 1.334 . S
C2119 H2096 0.950 . S
C2119 C2118 1.334 . S
C2119 C2120 1.287 . S
C2120 C2119 1.287 . S
C2120 C2121 1.524 . S
C2120 H2139 0.913 . S
C2121 H2097 0.950 . S
C2121 C2120 1.524 . S
C2121 C2122 1.415 . S
C2122 H2098 0.950 . S
C2122 C2117 1.363 . S
C2122 C2121 1.415 . S
C2123 H2099 0.951 . S
C2123 C2124 1.366 . S
C2123 C2125 1.388 . S
C2124 C2123 1.366 . S
C2124 C2128 1.385 . S
C2125 H2100 0.951 . S
C2125 C2123 1.388 . S
C2125 C2126 1.366 . S
C2126 C2125 1.366 . S
C2126 C2127 1.414 . S
C2126 C2129 1.499 . S
C2127 H2101 0.950 . S
C2127 C2126 1.414 . S
C2127 C2128 1.374 . S
C2128 H2102 0.950 . S
C2128 C2124 1.385 . S
C2128 C2127 1.374 . S
C2129 C2126 1.499 . S
C2129 C2130 1.373 . S
C2129 C2131 1.389 . S
C2130 H2103 0.950 . S
C2130 C2116 1.377 . S
C2130 C2129 1.373 . S
C2131 C2115 1.377 . S
C2131 C2129 1.389 . S
C2131 C2132 1.524 . S
C2132 C2131 1.524 . S
C2132 C2133 1.397 . S
C2132 C2137 1.363 . S
C2133 H2104 0.950 . S
C2133 C2132 1.397 . S
C2133 C2134 1.334 . S
C2134 H2105 0.950 . S
C2134 C2133 1.334 . S
C2134 C2135 1.287 . S
C2135 C2134 1.287 . S
C2135 C2136 1.524 . S
C2135 H2138 0.999 . S
C2136 H2106 0.950 . S
C2136 C2135 1.524 . S
C2136 C2137 1.415 . S
C2137 H2107 0.950 . S
C2137 C2132 1.363 . S
C2137 C2136 1.415 . S
H2138 C2135 0.999 . S
H2139 C2120 0.913 . S
H2140 C2158 0.951 . S
H2141 C2160 0.951 . S
H2142 C2162 0.950 . S
H2143 C2163 0.950 . S
H2144 C2165 0.950 . S
H2145 C2168 0.950 . S
H2146 C2169 0.950 . S
H2147 C2171 0.950 . S
H2148 C2172 0.950 . S
H2149 C2173 0.951 . S
H2150 C2175 0.951 . S
H2151 C2177 0.950 . S
H2152 C2178 0.950 . S
H2153 C2180 0.950 . S
H2154 C2183 0.950 . S
H2155 C2184 0.950 . S
H2156 C2186 0.950 . S
H2157 C2187 0.950 . S
C2158 H2140 0.951 . S
C2158 C2159 1.366 . S
C2158 C2160 1.388 . S
C2159 C2158 1.366 . S
C2159 C2163 1.385 . S
C2160 H2141 0.951 . S
C2160 C2158 1.388 . S
C2160 C2161 1.366 . S
C2161 C2160 1.366 . S
C2161 C2162 1.414 . S
C2161 C2164 1.499 . S
C2162 H2142 0.950 . S
C2162 C2161 1.414 . S
C2162 C2163 1.374 . S
C2163 H2143 0.950 . S
C2163 C2159 1.385 . S
C2163 C2162 1.374 . S
C2164 C2161 1.499 . S
C2164 C2165 1.373 . S
C2164 C2166 1.389 . S
C2165 H2144 0.950 . S
C2165 C2164 1.373 . S
C2165 C2181 1.377 . S
C2166 C2164 1.389 . S
C2166 C2167 1.524 . S
C2166 C2180 1.377 . S
C2167 C2166 1.524 . S
C2167 C2168 1.397 . S
C2167 C2172 1.363 . S
C2168 H2145 0.950 . S
C2168 C2167 1.397 . S
C2168 C2169 1.334 . S
C2169 H2146 0.950 . S
C2169 C2168 1.334 . S
C2169 C2170 1.287 . S
C2170 C2169 1.287 . S
C2170 C2171 1.524 . S
C2170 H2189 0.913 . S
C2171 H2147 0.950 . S
C2171 C2170 1.524 . S
C2171 C2172 1.415 . S
C2172 H2148 0.950 . S
C2172 C2167 1.363 . S
C2172 C2171 1.415 . S
C2173 H2149 0.951 . S
C2173 C2174 1.366 . S
C2173 C2175 1.388 . S
C2174 C2173 1.366 . S
C2174 C2178 1.385 . S
C2175 H2150 0.951 . S
C2175 C2173 1.388 . S
C2175 C2176 1.366 . S
C2176 C2175 1.366 . S
C2176 C2177 1.414 . S
C2176 C2179 1.499 . S
C2177 H2151 0.950 . S
C2177 C2176 1.414 . S
C2177 C2178 1.374 . S
C2178 H2152 0.950 . S
C2178 C2174 1.385 . S
C2178 C2177 1.374 . S
C2179 C2176 1.499 . S
C2179 C2180 1.373 . S
C2179 C2181 1.389 . S
C2180 H2153 0.950 . S
C2180 C2166 1.377 . S
C2180 C2179 1.373 . S
C2181 C2165 1.377 . S
C2181 C2179 1.389 . S
C2181 C2182 1.524 . S
C2182 C2181 1.524 . S
C2182 C2183 1.397 . S
C2182 C2187 1.363 . S
C2183 H2154 0.950 . S
C2183 C2182 1.397 . S
C2183 C2184 1.334 . S
C2184 H2155 0.950 . S
C2184 C2183 1.334 . S
C2184 C2185 1.287 . S
C2185 C2184 1.287 . S
C2185 C2186 1.524 . S
C2185 H2188 0.999 . S
C2186 H2156 0.950 . S
C2186 C2185 1.524 . S
C2186 C2187 1.415 . S
C2187 H2157 0.950 . S
C2187 C2182 1.363 . S
C2187 C2186 1.415 . S
H2188 C2185 0.999 . S
H2189 C2170 0.913 . S
H2190 C2208 0.951 . S
H2191 C2210 0.951 . S
H2192 C2212 0.950 . S
H2193 C2213 0.950 . S
H2194 C2215 0.950 . S
H2195 C2218 0.950 . S
H2196 C2219 0.950 . S
H2197 C2221 0.950 . S
H2198 C2222 0.950 . S
H2199 C2223 0.951 . S
H2200 C2225 0.951 . S
H2201 C2227 0.950 . S
H2202 C2228 0.950 . S
H2203 C2230 0.950 . S
H2204 C2233 0.950 . S
H2205 C2234 0.950 . S
H2206 C2236 0.950 . S
H2207 C2237 0.950 . S
C2208 H2190 0.951 . S
C2208 C2209 1.366 . S
C2208 C2210 1.388 . S
C2209 C2208 1.366 . S
C2209 C2213 1.385 . S
C2210 H2191 0.951 . S
C2210 C2208 1.388 . S
C2210 C2211 1.366 . S
C2211 C2210 1.366 . S
C2211 C2212 1.414 . S
C2211 C2214 1.499 . S
C2212 H2192 0.950 . S
C2212 C2211 1.414 . S
C2212 C2213 1.374 . S
C2213 H2193 0.950 . S
C2213 C2209 1.385 . S
C2213 C2212 1.374 . S
C2214 C2211 1.499 . S
C2214 C2215 1.373 . S
C2214 C2216 1.389 . S
C2215 H2194 0.950 . S
C2215 C2214 1.373 . S
C2215 C2231 1.377 . S
C2216 C2214 1.389 . S
C2216 C2217 1.524 . S
C2216 C2230 1.377 . S
C2217 C2216 1.524 . S
C2217 C2218 1.397 . S
C2217 C2222 1.363 . S
C2218 H2195 0.950 . S
C2218 C2217 1.397 . S
C2218 C2219 1.334 . S
C2219 H2196 0.950 . S
C2219 C2218 1.334 . S
C2219 C2220 1.287 . S
C2220 C2219 1.287 . S
C2220 C2221 1.524 . S
C2220 H2239 0.913 . S
C2221 H2197 0.950 . S
C2221 C2220 1.524 . S
C2221 C2222 1.415 . S
C2222 H2198 0.950 . S
C2222 C2217 1.363 . S
C2222 C2221 1.415 . S
C2223 H2199 0.951 . S
C2223 C2224 1.366 . S
C2223 C2225 1.388 . S
C2224 C2223 1.366 . S
C2224 C2228 1.385 . S
C2225 H2200 0.951 . S
C2225 C2223 1.388 . S
C2225 C2226 1.366 . S
C2226 C2225 1.366 . S
C2226 C2227 1.414 . S
C2226 C2229 1.499 . S
C2227 H2201 0.950 . S
C2227 C2226 1.414 . S
C2227 C2228 1.374 . S
C2228 H2202 0.950 . S
C2228 C2224 1.385 . S
C2228 C2227 1.374 . S
C2229 C2226 1.499 . S
C2229 C2230 1.373 . S
C2229 C2231 1.389 . S
C2230 H2203 0.950 . S
C2230 C2216 1.377 . S
C2230 C2229 1.373 . S
C2231 C2215 1.377 . S
C2231 C2229 1.389 . S
C2231 C2232 1.524 . S
C2232 C2231 1.524 . S
C2232 C2233 1.397 . S
C2232 C2237 1.363 . S
C2233 H2204 0.950 . S
C2233 C2232 1.397 . S
C2233 C2234 1.334 . S
C2234 H2205 0.950 . S
C2234 C2233 1.334 . S
C2234 C2235 1.287 . S
C2235 C2234 1.287 . S
C2235 C2236 1.524 . S
C2235 H2238 0.999 . S
C2236 H2206 0.950 . S
C2236 C2235 1.524 . S
C2236 C2237 1.415 . S
C2237 H2207 0.950 . S
C2237 C2232 1.363 . S
C2237 C2236 1.415 . S
H2238 C2235 0.999 . S
H2239 C2220 0.913 . S
H2240 C2258 0.951 . S
H2241 C2260 0.951 . S
H2242 C2262 0.950 . S
H2243 C2263 0.950 . S
H2244 C2265 0.950 . S
H2245 C2268 0.950 . S
H2246 C2269 0.950 . S
H2247 C2271 0.950 . S
H2248 C2272 0.950 . S
H2249 C2273 0.951 . S
H2250 C2275 0.951 . S
H2251 C2277 0.950 . S
H2252 C2278 0.950 . S
H2253 C2280 0.950 . S
H2254 C2283 0.950 . S
H2255 C2284 0.950 . S
H2256 C2286 0.950 . S
H2257 C2287 0.950 . S
C2258 H2240 0.951 . S
C2258 C2259 1.366 . S
C2258 C2260 1.388 . S
C2259 C2258 1.366 . S
C2259 C2263 1.385 . S
C2260 H2241 0.951 . S
C2260 C2258 1.388 . S
C2260 C2261 1.366 . S
C2261 C2260 1.366 . S
C2261 C2262 1.414 . S
C2261 C2264 1.499 . S
C2262 H2242 0.950 . S
C2262 C2261 1.414 . S
C2262 C2263 1.374 . S
C2263 H2243 0.950 . S
C2263 C2259 1.385 . S
C2263 C2262 1.374 . S
C2264 C2261 1.499 . S
C2264 C2265 1.373 . S
C2264 C2266 1.389 . S
C2265 H2244 0.950 . S
C2265 C2264 1.373 . S
C2265 C2281 1.377 . S
C2266 C2264 1.389 . S
C2266 C2267 1.524 . S
C2266 C2280 1.377 . S
C2267 C2266 1.524 . S
C2267 C2268 1.397 . S
C2267 C2272 1.363 . S
C2268 H2245 0.950 . S
C2268 C2267 1.397 . S
C2268 C2269 1.334 . S
C2269 H2246 0.950 . S
C2269 C2268 1.334 . S
C2269 C2270 1.287 . S
C2270 C2269 1.287 . S
C2270 C2271 1.524 . S
C2270 H2289 0.913 . S
C2271 H2247 0.950 . S
C2271 C2270 1.524 . S
C2271 C2272 1.415 . S
C2272 H2248 0.950 . S
C2272 C2267 1.363 . S
C2272 C2271 1.415 . S
C2273 H2249 0.951 . S
C2273 C2274 1.366 . S
C2273 C2275 1.388 . S
C2274 C2273 1.366 . S
C2274 C2278 1.385 . S
C2275 H2250 0.951 . S
C2275 C2273 1.388 . S
C2275 C2276 1.366 . S
C2276 C2275 1.366 . S
C2276 C2277 1.414 . S
C2276 C2279 1.499 . S
C2277 H2251 0.950 . S
C2277 C2276 1.414 . S
C2277 C2278 1.374 . S
C2278 H2252 0.950 . S
C2278 C2274 1.385 . S
C2278 C2277 1.374 . S
C2279 C2276 1.499 . S
C2279 C2280 1.373 . S
C2279 C2281 1.389 . S
C2280 H2253 0.950 . S
C2280 C2266 1.377 . S
C2280 C2279 1.373 . S
C2281 C2265 1.377 . S
C2281 C2279 1.389 . S
C2281 C2282 1.524 . S
C2282 C2281 1.524 . S
C2282 C2283 1.397 . S
C2282 C2287 1.363 . S
C2283 H2254 0.950 . S
C2283 C2282 1.397 . S
C2283 C2284 1.334 . S
C2284 H2255 0.950 . S
C2284 C2283 1.334 . S
C2284 C2285 1.287 . S
C2285 C2284 1.287 . S
C2285 C2286 1.524 . S
C2285 H2288 0.999 . S
C2286 H2256 0.950 . S
C2286 C2285 1.524 . S
C2286 C2287 1.415 . S
C2287 H2257 0.950 . S
C2287 C2282 1.363 . S
C2287 C2286 1.415 . S
H2288 C2285 0.999 . S
H2289 C2270 0.913 . S
H2290 C2308 0.951 . S
H2291 C2310 0.951 . S
H2292 C2312 0.950 . S
H2293 C2313 0.950 . S
H2294 C2315 0.950 . S
H2295 C2318 0.950 . S
H2296 C2319 0.950 . S
H2297 C2321 0.950 . S
H2298 C2322 0.950 . S
H2299 C2323 0.951 . S
H2300 C2325 0.951 . S
H2301 C2327 0.950 . S
H2302 C2328 0.950 . S
H2303 C2330 0.950 . S
H2304 C2333 0.950 . S
H2305 C2334 0.950 . S
H2306 C2336 0.950 . S
H2307 C2337 0.950 . S
C2308 H2290 0.951 . S
C2308 C2309 1.366 . S
C2308 C2310 1.388 . S
C2309 C2308 1.366 . S
C2309 C2313 1.385 . S
C2310 H2291 0.951 . S
C2310 C2308 1.388 . S
C2310 C2311 1.366 . S
C2311 C2310 1.366 . S
C2311 C2312 1.414 . S
C2311 C2314 1.499 . S
C2312 H2292 0.950 . S
C2312 C2311 1.414 . S
C2312 C2313 1.374 . S
C2313 H2293 0.950 . S
C2313 C2309 1.385 . S
C2313 C2312 1.374 . S
C2314 C2311 1.499 . S
C2314 C2315 1.373 . S
C2314 C2316 1.389 . S
C2315 H2294 0.950 . S
C2315 C2314 1.373 . S
C2315 C2331 1.377 . S
C2316 C2314 1.389 . S
C2316 C2317 1.524 . S
C2316 C2330 1.377 . S
C2317 C2316 1.524 . S
C2317 C2318 1.397 . S
C2317 C2322 1.363 . S
C2318 H2295 0.950 . S
C2318 C2317 1.397 . S
C2318 C2319 1.334 . S
C2319 H2296 0.950 . S
C2319 C2318 1.334 . S
C2319 C2320 1.287 . S
C2320 C2319 1.287 . S
C2320 C2321 1.524 . S
C2320 H2339 0.913 . S
C2321 H2297 0.950 . S
C2321 C2320 1.524 . S
C2321 C2322 1.415 . S
C2322 H2298 0.950 . S
C2322 C2317 1.363 . S
C2322 C2321 1.415 . S
C2323 H2299 0.951 . S
C2323 C2324 1.366 . S
C2323 C2325 1.388 . S
C2324 C2323 1.366 . S
C2324 C2328 1.385 . S
C2325 H2300 0.951 . S
C2325 C2323 1.388 . S
C2325 C2326 1.366 . S
C2326 C2325 1.366 . S
C2326 C2327 1.414 . S
C2326 C2329 1.499 . S
C2327 H2301 0.950 . S
C2327 C2326 1.414 . S
C2327 C2328 1.374 . S
C2328 H2302 0.950 . S
C2328 C2324 1.385 . S
C2328 C2327 1.374 . S
C2329 C2326 1.499 . S
C2329 C2330 1.373 . S
C2329 C2331 1.389 . S
C2330 H2303 0.950 . S
C2330 C2316 1.377 . S
C2330 C2329 1.373 . S
C2331 C2315 1.377 . S
C2331 C2329 1.389 . S
C2331 C2332 1.524 . S
C2332 C2331 1.524 . S
C2332 C2333 1.397 . S
C2332 C2337 1.363 . S
C2333 H2304 0.950 . S
C2333 C2332 1.397 . S
C2333 C2334 1.334 . S
C2334 H2305 0.950 . S
C2334 C2333 1.334 . S
C2334 C2335 1.287 . S
C2335 C2334 1.287 . S
C2335 C2336 1.524 . S
C2335 H2338 0.999 . S
C2336 H2306 0.950 . S
C2336 C2335 1.524 . S
C2336 C2337 1.415 . S
C2337 H2307 0.950 . S
C2337 C2332 1.363 . S
C2337 C2336 1.415 . S
H2338 C2335 0.999 . S
H2339 C2320 0.913 . S
H2340 C2358 0.951 . S
H2341 C2360 0.951 . S
H2342 C2362 0.950 . S
H2343 C2363 0.950 . S
H2344 C2365 0.950 . S
H2345 C2368 0.950 . S
H2346 C2369 0.950 . S
H2347 C2371 0.950 . S
H2348 C2372 0.950 . S
H2349 C2373 0.951 . S
H2350 C2375 0.951 . S
H2351 C2377 0.950 . S
H2352 C2378 0.950 . S
H2353 C2380 0.950 . S
H2354 C2383 0.950 . S
H2355 C2384 0.950 . S
H2356 C2386 0.950 . S
H2357 C2387 0.950 . S
C2358 H2340 0.951 . S
C2358 C2359 1.366 . S
C2358 C2360 1.388 . S
C2359 C2358 1.366 . S
C2359 C2363 1.385 . S
C2360 H2341 0.951 . S
C2360 C2358 1.388 . S
C2360 C2361 1.366 . S
C2361 C2360 1.366 . S
C2361 C2362 1.414 . S
C2361 C2364 1.499 . S
C2362 H2342 0.950 . S
C2362 C2361 1.414 . S
C2362 C2363 1.374 . S
C2363 H2343 0.950 . S
C2363 C2359 1.385 . S
C2363 C2362 1.374 . S
C2364 C2361 1.499 . S
C2364 C2365 1.373 . S
C2364 C2366 1.389 . S
C2365 H2344 0.950 . S
C2365 C2364 1.373 . S
C2365 C2381 1.377 . S
C2366 C2364 1.389 . S
C2366 C2367 1.524 . S
C2366 C2380 1.377 . S
C2367 C2366 1.524 . S
C2367 C2368 1.397 . S
C2367 C2372 1.363 . S
C2368 H2345 0.950 . S
C2368 C2367 1.397 . S
C2368 C2369 1.334 . S
C2369 H2346 0.950 . S
C2369 C2368 1.334 . S
C2369 C2370 1.287 . S
C2370 C2369 1.287 . S
C2370 C2371 1.524 . S
C2370 H2389 0.913 . S
C2371 H2347 0.950 . S
C2371 C2370 1.524 . S
C2371 C2372 1.415 . S
C2372 H2348 0.950 . S
C2372 C2367 1.363 . S
C2372 C2371 1.415 . S
C2373 H2349 0.951 . S
C2373 C2374 1.366 . S
C2373 C2375 1.388 . S
C2374 C2373 1.366 . S
C2374 C2378 1.385 . S
C2375 H2350 0.951 . S
C2375 C2373 1.388 . S
C2375 C2376 1.366 . S
C2376 C2375 1.366 . S
C2376 C2377 1.414 . S
C2376 C2379 1.499 . S
C2377 H2351 0.950 . S
C2377 C2376 1.414 . S
C2377 C2378 1.374 . S
C2378 H2352 0.950 . S
C2378 C2374 1.385 . S
C2378 C2377 1.374 . S
C2379 C2376 1.499 . S
C2379 C2380 1.373 . S
C2379 C2381 1.389 . S
C2380 H2353 0.950 . S
C2380 C2366 1.377 . S
C2380 C2379 1.373 . S
C2381 C2365 1.377 . S
C2381 C2379 1.389 . S
C2381 C2382 1.524 . S
C2382 C2381 1.524 . S
C2382 C2383 1.397 . S
C2382 C2387 1.363 . S
C2383 H2354 0.950 . S
C2383 C2382 1.397 . S
C2383 C2384 1.334 . S
C2384 H2355 0.950 . S
C2384 C2383 1.334 . S
C2384 C2385 1.287 . S
C2385 C2384 1.287 . S
C2385 C2386 1.524 . S
C2385 H2388 0.999 . S
C2386 H2356 0.950 . S
C2386 C2385 1.524 . S
C2386 C2387 1.415 . S
C2387 H2357 0.950 . S
C2387 C2382 1.363 . S
C2387 C2386 1.415 . S
H2388 C2385 0.999 . S
H2389 C2370 0.913 . S
H2390 C2408 0.951 . S
H2391 C2410 0.951 . S
H2392 C2412 0.950 . S
H2393 C2413 0.950 . S
H2394 C2415 0.950 . S
H2395 C2418 0.950 . S
H2396 C2419 0.950 . S
H2397 C2421 0.950 . S
H2398 C2422 0.950 . S
H2399 C2423 0.951 . S
H2400 C2425 0.951 . S
H2401 C2427 0.950 . S
H2402 C2428 0.950 . S
H2403 C2430 0.950 . S
H2404 C2433 0.950 . S
H2405 C2434 0.950 . S
H2406 C2436 0.950 1_556 S
H2407 C2437 0.950 . S
C2408 H2390 0.951 . S
C2408 C2409 1.366 . S
C2408 C2410 1.388 . S
C2409 C2408 1.366 . S
C2409 C2413 1.385 . S
C2410 H2391 0.951 . S
C2410 C2408 1.388 . S
C2410 C2411 1.366 . S
C2411 C2410 1.366 . S
C2411 C2412 1.414 . S
C2411 C2414 1.499 . S
C2412 H2392 0.950 . S
C2412 C2411 1.414 . S
C2412 C2413 1.374 . S
C2413 H2393 0.950 . S
C2413 C2409 1.385 . S
C2413 C2412 1.374 . S
C2414 C2411 1.499 . S
C2414 C2415 1.373 . S
C2414 C2416 1.389 . S
C2415 H2394 0.950 . S
C2415 C2414 1.373 . S
C2415 C2431 1.377 . S
C2416 C2414 1.389 . S
C2416 C2417 1.524 . S
C2416 C2430 1.377 . S
C2417 C2416 1.524 . S
C2417 C2418 1.397 . S
C2417 C2422 1.363 . S
C2418 H2395 0.950 . S
C2418 C2417 1.397 . S
C2418 C2419 1.334 . S
C2419 H2396 0.950 . S
C2419 C2418 1.334 . S
C2419 C2420 1.287 . S
C2420 C2419 1.287 . S
C2420 C2421 1.524 . S
C2420 H2439 0.913 . S
C2421 H2397 0.950 . S
C2421 C2420 1.524 . S
C2421 C2422 1.415 . S
C2422 H2398 0.950 . S
C2422 C2417 1.363 . S
C2422 C2421 1.415 . S
C2423 H2399 0.951 . S
C2423 C2424 1.366 . S
C2423 C2425 1.388 . S
C2424 C2423 1.366 . S
C2424 C2428 1.385 . S
C2425 H2400 0.951 . S
C2425 C2423 1.388 . S
C2425 C2426 1.366 . S
C2426 C2425 1.366 . S
C2426 C2427 1.414 . S
C2426 C2429 1.499 . S
C2427 H2401 0.950 . S
C2427 C2426 1.414 . S
C2427 C2428 1.374 . S
C2428 H2402 0.950 . S
C2428 C2424 1.385 . S
C2428 C2427 1.374 . S
C2429 C2426 1.499 . S
C2429 C2430 1.373 . S
C2429 C2431 1.389 . S
C2430 H2403 0.950 . S
C2430 C2416 1.377 . S
C2430 C2429 1.373 . S
C2431 C2415 1.377 . S
C2431 C2429 1.389 . S
C2431 C2432 1.524 . S
C2432 C2431 1.524 . S
C2432 C2433 1.397 . S
C2432 C2437 1.363 . S
C2433 H2404 0.950 . S
C2433 C2432 1.397 . S
C2433 C2434 1.334 . S
C2434 H2405 0.950 . S
C2434 C2433 1.334 . S
C2434 C2435 1.287 . S
C2435 C2434 1.287 . S
C2435 C2436 1.524 . S
C2435 H2438 0.999 . S
C2436 H2406 0.950 1_554 S
C2436 C2435 1.524 . S
C2436 C2437 1.415 . S
C2437 H2407 0.950 . S
C2437 C2432 1.363 . S
C2437 C2436 1.415 . S
H2438 C2435 0.999 . S
H2439 C2420 0.913 . S
H2440 C2458 0.951 . S
H2441 C2460 0.951 . S
H2442 C2462 0.950 . S
H2443 C2463 0.950 . S
H2444 C2465 0.950 . S
H2445 C2468 0.950 . S
H2446 C2469 0.950 . S
H2447 C2471 0.950 . S
H2448 C2472 0.950 . S
H2449 C2473 0.951 . S
H2450 C2475 0.951 . S
H2451 C2477 0.950 . S
H2452 C2478 0.950 . S
H2453 C2480 0.950 . S
H2454 C2483 0.950 . S
H2455 C2484 0.950 . S
H2456 C2486 0.950 . S
H2457 C2487 0.950 . S
C2458 H2440 0.951 . S
C2458 C2459 1.366 . S
C2458 C2460 1.388 . S
C2459 C2458 1.366 . S
C2459 C2463 1.385 . S
C2460 H2441 0.951 . S
C2460 C2458 1.388 . S
C2460 C2461 1.366 . S
C2461 C2460 1.366 . S
C2461 C2462 1.414 . S
C2461 C2464 1.499 . S
C2462 H2442 0.950 . S
C2462 C2461 1.414 . S
C2462 C2463 1.374 . S
C2463 H2443 0.950 . S
C2463 C2459 1.385 . S
C2463 C2462 1.374 . S
C2464 C2461 1.499 . S
C2464 C2465 1.373 . S
C2464 C2466 1.389 . S
C2465 H2444 0.950 . S
C2465 C2464 1.373 . S
C2465 C2481 1.377 . S
C2466 C2464 1.389 . S
C2466 C2467 1.524 . S
C2466 C2480 1.377 . S
C2467 C2466 1.524 . S
C2467 C2468 1.397 . S
C2467 C2472 1.363 . S
C2468 H2445 0.950 . S
C2468 C2467 1.397 . S
C2468 C2469 1.334 . S
C2469 H2446 0.950 . S
C2469 C2468 1.334 . S
C2469 C2470 1.287 . S
C2470 C2469 1.287 . S
C2470 C2471 1.524 . S
C2470 H2489 0.913 . S
C2471 H2447 0.950 . S
C2471 C2470 1.524 . S
C2471 C2472 1.415 . S
C2472 H2448 0.950 . S
C2472 C2467 1.363 . S
C2472 C2471 1.415 . S
C2473 H2449 0.951 . S
C2473 C2474 1.366 . S
C2473 C2475 1.388 . S
C2474 C2473 1.366 . S
C2474 C2478 1.385 . S
C2475 H2450 0.951 . S
C2475 C2473 1.388 . S
C2475 C2476 1.366 . S
C2476 C2475 1.366 . S
C2476 C2477 1.414 . S
C2476 C2479 1.499 . S
C2477 H2451 0.950 . S
C2477 C2476 1.414 . S
C2477 C2478 1.374 . S
C2478 H2452 0.950 . S
C2478 C2474 1.385 . S
C2478 C2477 1.374 . S
C2479 C2476 1.499 . S
C2479 C2480 1.373 . S
C2479 C2481 1.389 . S
C2480 H2453 0.950 . S
C2480 C2466 1.377 . S
C2480 C2479 1.373 . S
C2481 C2465 1.377 . S
C2481 C2479 1.389 . S
C2481 C2482 1.524 . S
C2482 C2481 1.524 . S
C2482 C2483 1.397 . S
C2482 C2487 1.363 . S
C2483 H2454 0.950 . S
C2483 C2482 1.397 . S
C2483 C2484 1.334 . S
C2484 H2455 0.950 . S
C2484 C2483 1.334 . S
C2484 C2485 1.287 . S
C2485 C2484 1.287 . S
C2485 C2486 1.524 . S
C2485 H2488 0.999 . S
C2486 H2456 0.950 . S
C2486 C2485 1.524 . S
C2486 C2487 1.415 . S
C2487 H2457 0.950 . S
C2487 C2482 1.363 . S
C2487 C2486 1.415 . S
H2488 C2485 0.999 . S
H2489 C2470 0.913 . S
H2490 C2508 0.951 . S
H2491 C2510 0.951 . S
H2492 C2512 0.950 . S
H2493 C2513 0.950 . S
H2494 C2515 0.950 . S
H2495 C2518 0.950 . S
H2496 C2519 0.950 . S
H2497 C2521 0.950 . S
H2498 C2522 0.950 . S
H2499 C2523 0.951 . S
H2500 C2525 0.951 . S
H2501 C2527 0.950 . S
H2502 C2528 0.950 . S
H2503 C2530 0.950 . S
H2504 C2533 0.950 . S
H2505 C2534 0.950 . S
H2506 C2536 0.950 . S
H2507 C2537 0.950 . S
C2508 H2490 0.951 . S
C2508 C2509 1.366 . S
C2508 C2510 1.388 . S
C2509 C2508 1.366 . S
C2509 C2513 1.385 . S
C2510 H2491 0.951 . S
C2510 C2508 1.388 . S
C2510 C2511 1.366 . S
C2511 C2510 1.366 . S
C2511 C2512 1.414 . S
C2511 C2514 1.499 . S
C2512 H2492 0.950 . S
C2512 C2511 1.414 . S
C2512 C2513 1.374 . S
C2513 H2493 0.950 . S
C2513 C2509 1.385 . S
C2513 C2512 1.374 . S
C2514 C2511 1.499 . S
C2514 C2515 1.373 . S
C2514 C2516 1.389 . S
C2515 H2494 0.950 . S
C2515 C2514 1.373 . S
C2515 C2531 1.377 . S
C2516 C2514 1.389 . S
C2516 C2517 1.524 . S
C2516 C2530 1.377 . S
C2517 C2516 1.524 . S
C2517 C2518 1.397 . S
C2517 C2522 1.363 . S
C2518 H2495 0.950 . S
C2518 C2517 1.397 . S
C2518 C2519 1.334 . S
C2519 H2496 0.950 . S
C2519 C2518 1.334 . S
C2519 C2520 1.287 . S
C2520 C2519 1.287 . S
C2520 C2521 1.524 . S
C2520 H2539 0.913 . S
C2521 H2497 0.950 . S
C2521 C2520 1.524 . S
C2521 C2522 1.415 . S
C2522 H2498 0.950 . S
C2522 C2517 1.363 . S
C2522 C2521 1.415 . S
C2523 H2499 0.951 . S
C2523 C2524 1.366 . S
C2523 C2525 1.388 . S
C2524 C2523 1.366 . S
C2524 C2528 1.385 . S
C2525 H2500 0.951 . S
C2525 C2523 1.388 . S
C2525 C2526 1.366 . S
C2526 C2525 1.366 . S
C2526 C2527 1.414 . S
C2526 C2529 1.499 . S
C2527 H2501 0.950 . S
C2527 C2526 1.414 . S
C2527 C2528 1.374 . S
C2528 H2502 0.950 . S
C2528 C2524 1.385 . S
C2528 C2527 1.374 . S
C2529 C2526 1.499 . S
C2529 C2530 1.373 . S
C2529 C2531 1.389 . S
C2530 H2503 0.950 . S
C2530 C2516 1.377 . S
C2530 C2529 1.373 . S
C2531 C2515 1.377 . S
C2531 C2529 1.389 . S
C2531 C2532 1.524 . S
C2532 C2531 1.524 . S
C2532 C2533 1.397 . S
C2532 C2537 1.363 . S
C2533 H2504 0.950 . S
C2533 C2532 1.397 . S
C2533 C2534 1.334 . S
C2534 H2505 0.950 . S
C2534 C2533 1.334 . S
C2534 C2535 1.287 . S
C2535 C2534 1.287 . S
C2535 C2536 1.524 . S
C2535 H2538 0.999 . S
C2536 H2506 0.950 . S
C2536 C2535 1.524 . S
C2536 C2537 1.415 . S
C2537 H2507 0.950 . S
C2537 C2532 1.363 . S
C2537 C2536 1.415 . S
H2538 C2535 0.999 . S
H2539 C2520 0.913 . S
H2540 C2558 0.951 . S
H2541 C2560 0.951 . S
H2542 C2562 0.950 . S
H2543 C2563 0.950 . S
H2544 C2565 0.950 . S
H2545 C2568 0.950 . S
H2546 C2569 0.950 . S
H2547 C2571 0.950 . S
H2548 C2572 0.950 . S
H2549 C2573 0.951 . S
H2550 C2575 0.951 . S
H2551 C2577 0.950 . S
H2552 C2578 0.950 . S
H2553 C2580 0.950 . S
H2554 C2583 0.950 . S
H2555 C2584 0.950 . S
H2556 C2586 0.950 . S
H2557 C2587 0.950 . S
C2558 H2540 0.951 . S
C2558 C2559 1.366 . S
C2558 C2560 1.388 . S
C2559 C2558 1.366 . S
C2559 C2563 1.385 . S
C2560 H2541 0.951 . S
C2560 C2558 1.388 . S
C2560 C2561 1.366 . S
C2561 C2560 1.366 . S
C2561 C2562 1.414 . S
C2561 C2564 1.499 . S
C2562 H2542 0.950 . S
C2562 C2561 1.414 . S
C2562 C2563 1.374 . S
C2563 H2543 0.950 . S
C2563 C2559 1.385 . S
C2563 C2562 1.374 . S
C2564 C2561 1.499 . S
C2564 C2565 1.373 . S
C2564 C2566 1.389 . S
C2565 H2544 0.950 . S
C2565 C2564 1.373 . S
C2565 C2581 1.377 . S
C2566 C2564 1.389 . S
C2566 C2567 1.524 . S
C2566 C2580 1.377 . S
C2567 C2566 1.524 . S
C2567 C2568 1.397 . S
C2567 C2572 1.363 . S
C2568 H2545 0.950 . S
C2568 C2567 1.397 . S
C2568 C2569 1.334 . S
C2569 H2546 0.950 . S
C2569 C2568 1.334 . S
C2569 C2570 1.287 1_556 S
C2570 C2569 1.287 1_554 S
C2570 C2571 1.524 . S
C2570 H2589 0.913 . S
C2571 H2547 0.950 . S
C2571 C2570 1.524 . S
C2571 C2572 1.415 1_554 S
C2572 H2548 0.950 . S
C2572 C2567 1.363 . S
C2572 C2571 1.415 1_556 S
C2573 H2549 0.951 . S
C2573 C2574 1.366 . S
C2573 C2575 1.388 . S
C2574 C2573 1.366 . S
C2574 C2578 1.385 . S
C2575 H2550 0.951 . S
C2575 C2573 1.388 . S
C2575 C2576 1.366 . S
C2576 C2575 1.366 . S
C2576 C2577 1.414 . S
C2576 C2579 1.499 . S
C2577 H2551 0.950 . S
C2577 C2576 1.414 . S
C2577 C2578 1.374 . S
C2578 H2552 0.950 . S
C2578 C2574 1.385 . S
C2578 C2577 1.374 . S
C2579 C2576 1.499 . S
C2579 C2580 1.373 . S
C2579 C2581 1.389 . S
C2580 H2553 0.950 . S
C2580 C2566 1.377 . S
C2580 C2579 1.373 . S
C2581 C2565 1.377 . S
C2581 C2579 1.389 . S
C2581 C2582 1.524 . S
C2582 C2581 1.524 . S
C2582 C2583 1.397 . S
C2582 C2587 1.363 . S
C2583 H2554 0.950 . S
C2583 C2582 1.397 . S
C2583 C2584 1.334 . S
C2584 H2555 0.950 . S
C2584 C2583 1.334 . S
C2584 C2585 1.287 . S
C2585 C2584 1.287 . S
C2585 C2586 1.524 . S
C2585 H2588 0.999 . S
C2586 H2556 0.950 . S
C2586 C2585 1.524 . S
C2586 C2587 1.415 . S
C2587 H2557 0.950 . S
C2587 C2582 1.363 . S
C2587 C2586 1.415 . S
H2588 C2585 0.999 . S
H2589 C2570 0.913 . S
H2590 C2608 0.951 . S
H2591 C2610 0.951 . S
H2592 C2612 0.950 . S
H2593 C2613 0.950 . S
H2594 C2615 0.950 . S
H2595 C2618 0.950 . S
H2596 C2619 0.950 . S
H2597 C2621 0.950 . S
H2598 C2622 0.950 . S
H2599 C2623 0.951 . S
H2600 C2625 0.951 . S
H2601 C2627 0.950 . S
H2602 C2628 0.950 . S
H2603 C2630 0.950 . S
H2604 C2633 0.950 . S
H2605 C2634 0.950 . S
H2606 C2636 0.950 . S
H2607 C2637 0.950 . S
C2608 H2590 0.951 . S
C2608 C2609 1.366 . S
C2608 C2610 1.388 . S
C2609 C2608 1.366 . S
C2609 C2613 1.385 . S
C2610 H2591 0.951 . S
C2610 C2608 1.388 . S
C2610 C2611 1.366 . S
C2611 C2610 1.366 . S
C2611 C2612 1.414 . S
C2611 C2614 1.499 . S
C2612 H2592 0.950 . S
C2612 C2611 1.414 . S
C2612 C2613 1.374 . S
C2613 H2593 0.950 . S
C2613 C2609 1.385 . S
C2613 C2612 1.374 . S
C2614 C2611 1.499 . S
C2614 C2615 1.373 . S
C2614 C2616 1.389 . S
C2615 H2594 0.950 . S
C2615 C2614 1.373 . S
C2615 C2631 1.377 . S
C2616 C2614 1.389 . S
C2616 C2617 1.524 . S
C2616 C2630 1.377 . S
C2617 C2616 1.524 . S
C2617 C2618 1.397 . S
C2617 C2622 1.363 . S
C2618 H2595 0.950 . S
C2618 C2617 1.397 . S
C2618 C2619 1.334 . S
C2619 H2596 0.950 . S
C2619 C2618 1.334 . S
C2619 C2620 1.287 . S
C2620 C2619 1.287 . S
C2620 C2621 1.524 . S
C2620 H2639 0.913 . S
C2621 H2597 0.950 . S
C2621 C2620 1.524 . S
C2621 C2622 1.415 . S
C2622 H2598 0.950 . S
C2622 C2617 1.363 . S
C2622 C2621 1.415 . S
C2623 H2599 0.951 . S
C2623 C2624 1.366 . S
C2623 C2625 1.388 . S
C2624 C2623 1.366 . S
C2624 C2628 1.385 . S
C2625 H2600 0.951 . S
C2625 C2623 1.388 . S
C2625 C2626 1.366 . S
C2626 C2625 1.366 . S
C2626 C2627 1.414 . S
C2626 C2629 1.499 . S
C2627 H2601 0.950 . S
C2627 C2626 1.414 . S
C2627 C2628 1.374 . S
C2628 H2602 0.950 . S
C2628 C2624 1.385 . S
C2628 C2627 1.374 . S
C2629 C2626 1.499 . S
C2629 C2630 1.373 . S
C2629 C2631 1.389 . S
C2630 H2603 0.950 . S
C2630 C2616 1.377 . S
C2630 C2629 1.373 . S
C2631 C2615 1.377 . S
C2631 C2629 1.389 . S
C2631 C2632 1.524 . S
C2632 C2631 1.524 . S
C2632 C2633 1.397 . S
C2632 C2637 1.363 . S
C2633 H2604 0.950 . S
C2633 C2632 1.397 . S
C2633 C2634 1.334 . S
C2634 H2605 0.950 . S
C2634 C2633 1.334 . S
C2634 C2635 1.287 . S
C2635 C2634 1.287 . S
C2635 C2636 1.524 . S
C2635 H2638 0.999 . S
C2636 H2606 0.950 . S
C2636 C2635 1.524 . S
C2636 C2637 1.415 . S
C2637 H2607 0.950 . S
C2637 C2632 1.363 . S
C2637 C2636 1.415 . S
H2638 C2635 0.999 . S
H2639 C2620 0.913 . S
H2640 C2658 0.951 . S
H2641 C2660 0.951 . S
H2642 C2662 0.950 . S
H2643 C2663 0.950 . S
H2644 C2665 0.950 . S
H2645 C2668 0.950 . S
H2646 C2669 0.950 . S
H2647 C2671 0.950 . S
H2648 C2672 0.950 . S
H2649 C2673 0.951 . S
H2650 C2675 0.951 . S
H2651 C2677 0.950 . S
H2652 C2678 0.950 . S
H2653 C2680 0.950 . S
H2654 C2683 0.950 . S
H2655 C2684 0.950 . S
H2656 C2686 0.950 . S
H2657 C2687 0.950 . S
C2658 H2640 0.951 . S
C2658 C2659 1.366 . S
C2658 C2660 1.388 . S
C2659 C2658 1.366 . S
C2659 C2663 1.385 . S
C2660 H2641 0.951 . S
C2660 C2658 1.388 . S
C2660 C2661 1.366 . S
C2661 C2660 1.366 . S
C2661 C2662 1.414 . S
C2661 C2664 1.499 . S
C2662 H2642 0.950 . S
C2662 C2661 1.414 . S
C2662 C2663 1.374 . S
C2663 H2643 0.950 . S
C2663 C2659 1.385 . S
C2663 C2662 1.374 . S
C2664 C2661 1.499 . S
C2664 C2665 1.373 . S
C2664 C2666 1.389 . S
C2665 H2644 0.950 . S
C2665 C2664 1.373 . S
C2665 C2681 1.377 . S
C2666 C2664 1.389 . S
C2666 C2667 1.524 . S
C2666 C2680 1.377 . S
C2667 C2666 1.524 . S
C2667 C2668 1.397 . S
C2667 C2672 1.363 . S
C2668 H2645 0.950 . S
C2668 C2667 1.397 . S
C2668 C2669 1.334 . S
C2669 H2646 0.950 . S
C2669 C2668 1.334 . S
C2669 C2670 1.287 . S
C2670 C2669 1.287 . S
C2670 C2671 1.524 . S
C2670 H2689 0.913 . S
C2671 H2647 0.950 . S
C2671 C2670 1.524 . S
C2671 C2672 1.415 . S
C2672 H2648 0.950 . S
C2672 C2667 1.363 . S
C2672 C2671 1.415 . S
C2673 H2649 0.951 . S
C2673 C2674 1.366 . S
C2673 C2675 1.388 . S
C2674 C2673 1.366 . S
C2674 C2678 1.385 . S
C2675 H2650 0.951 . S
C2675 C2673 1.388 . S
C2675 C2676 1.366 . S
C2676 C2675 1.366 . S
C2676 C2677 1.414 . S
C2676 C2679 1.499 . S
C2677 H2651 0.950 . S
C2677 C2676 1.414 . S
C2677 C2678 1.374 . S
C2678 H2652 0.950 . S
C2678 C2674 1.385 . S
C2678 C2677 1.374 . S
C2679 C2676 1.499 . S
C2679 C2680 1.373 . S
C2679 C2681 1.389 . S
C2680 H2653 0.950 . S
C2680 C2666 1.377 . S
C2680 C2679 1.373 . S
C2681 C2665 1.377 . S
C2681 C2679 1.389 . S
C2681 C2682 1.524 . S
C2682 C2681 1.524 . S
C2682 C2683 1.397 . S
C2682 C2687 1.363 . S
C2683 H2654 0.950 . S
C2683 C2682 1.397 . S
C2683 C2684 1.334 . S
C2684 H2655 0.950 . S
C2684 C2683 1.334 . S
C2684 C2685 1.287 . S
C2685 C2684 1.287 . S
C2685 C2686 1.524 . S
C2685 H2688 0.999 . S
C2686 H2656 0.950 . S
C2686 C2685 1.524 . S
C2686 C2687 1.415 . S
C2687 H2657 0.950 . S
C2687 C2682 1.363 . S
C2687 C2686 1.415 . S
H2688 C2685 0.999 . S
H2689 C2670 0.913 . S
H2690 C2708 0.951 . S
H2691 C2710 0.951 . S
H2692 C2712 0.950 . S
H2693 C2713 0.950 . S
H2694 C2715 0.950 . S
H2695 C2718 0.950 . S
H2696 C2719 0.950 . S
H2697 C2721 0.950 . S
H2698 C2722 0.950 . S
H2699 C2723 0.951 . S
H2700 C2725 0.951 . S
H2701 C2727 0.950 . S
H2702 C2728 0.950 . S
H2703 C2730 0.950 . S
H2704 C2733 0.950 . S
H2705 C2734 0.950 . S
H2706 C2736 0.950 . S
H2707 C2737 0.950 . S
C2708 H2690 0.951 . S
C2708 C2709 1.366 . S
C2708 C2710 1.388 . S
C2709 C2708 1.366 . S
C2709 C2713 1.385 . S
C2710 H2691 0.951 . S
C2710 C2708 1.388 . S
C2710 C2711 1.366 . S
C2711 C2710 1.366 . S
C2711 C2712 1.414 . S
C2711 C2714 1.499 . S
C2712 H2692 0.950 . S
C2712 C2711 1.414 . S
C2712 C2713 1.374 . S
C2713 H2693 0.950 . S
C2713 C2709 1.385 . S
C2713 C2712 1.374 . S
C2714 C2711 1.499 . S
C2714 C2715 1.373 . S
C2714 C2716 1.389 . S
C2715 H2694 0.950 . S
C2715 C2714 1.373 . S
C2715 C2731 1.377 . S
C2716 C2714 1.389 . S
C2716 C2717 1.524 . S
C2716 C2730 1.377 . S
C2717 C2716 1.524 . S
C2717 C2718 1.397 . S
C2717 C2722 1.363 . S
C2718 H2695 0.950 . S
C2718 C2717 1.397 . S
C2718 C2719 1.334 . S
C2719 H2696 0.950 . S
C2719 C2718 1.334 . S
C2719 C2720 1.287 . S
C2720 C2719 1.287 . S
C2720 C2721 1.524 . S
C2720 H2739 0.913 . S
C2721 H2697 0.950 . S
C2721 C2720 1.524 . S
C2721 C2722 1.415 . S
C2722 H2698 0.950 . S
C2722 C2717 1.363 . S
C2722 C2721 1.415 . S
C2723 H2699 0.951 . S
C2723 C2724 1.366 . S
C2723 C2725 1.388 . S
C2724 C2723 1.366 . S
C2724 C2728 1.385 . S
C2725 H2700 0.951 . S
C2725 C2723 1.388 . S
C2725 C2726 1.366 . S
C2726 C2725 1.366 . S
C2726 C2727 1.414 . S
C2726 C2729 1.499 . S
C2727 H2701 0.950 . S
C2727 C2726 1.414 . S
C2727 C2728 1.374 . S
C2728 H2702 0.950 . S
C2728 C2724 1.385 . S
C2728 C2727 1.374 . S
C2729 C2726 1.499 . S
C2729 C2730 1.373 . S
C2729 C2731 1.389 . S
C2730 H2703 0.950 . S
C2730 C2716 1.377 . S
C2730 C2729 1.373 . S
C2731 C2715 1.377 . S
C2731 C2729 1.389 . S
C2731 C2732 1.524 . S
C2732 C2731 1.524 . S
C2732 C2733 1.397 . S
C2732 C2737 1.363 . S
C2733 H2704 0.950 . S
C2733 C2732 1.397 . S
C2733 C2734 1.334 . S
C2734 H2705 0.950 . S
C2734 C2733 1.334 . S
C2734 C2735 1.287 . S
C2735 C2734 1.287 . S
C2735 C2736 1.524 . S
C2735 H2738 0.999 . S
C2736 H2706 0.950 . S
C2736 C2735 1.524 . S
C2736 C2737 1.415 . S
C2737 H2707 0.950 . S
C2737 C2732 1.363 . S
C2737 C2736 1.415 . S
H2738 C2735 0.999 . S
H2739 C2720 0.913 . S
H2740 C2758 0.951 . S
H2741 C2760 0.951 . S
H2742 C2762 0.950 . S
H2743 C2763 0.950 . S
H2744 C2765 0.950 . S
H2745 C2768 0.950 . S
H2746 C2769 0.950 . S
H2747 C2771 0.950 . S
H2748 C2772 0.950 . S
H2749 C2773 0.951 . S
H2750 C2775 0.951 . S
H2751 C2777 0.950 . S
H2752 C2778 0.950 . S
H2753 C2780 0.950 . S
H2754 C2783 0.950 . S
H2755 C2784 0.950 . S
H2756 C2786 0.950 . S
H2757 C2787 0.950 . S
C2758 H2740 0.951 . S
C2758 C2759 1.366 . S
C2758 C2760 1.388 . S
C2759 C2758 1.366 . S
C2759 C2763 1.385 . S
C2760 H2741 0.951 . S
C2760 C2758 1.388 . S
C2760 C2761 1.366 . S
C2761 C2760 1.366 . S
C2761 C2762 1.414 . S
C2761 C2764 1.499 . S
C2762 H2742 0.950 . S
C2762 C2761 1.414 . S
C2762 C2763 1.374 . S
C2763 H2743 0.950 . S
C2763 C2759 1.385 . S
C2763 C2762 1.374 . S
C2764 C2761 1.499 . S
C2764 C2765 1.373 . S
C2764 C2766 1.389 . S
C2765 H2744 0.950 . S
C2765 C2764 1.373 . S
C2765 C2781 1.377 . S
C2766 C2764 1.389 . S
C2766 C2767 1.524 . S
C2766 C2780 1.377 . S
C2767 C2766 1.524 . S
C2767 C2768 1.397 . S
C2767 C2772 1.363 . S
C2768 H2745 0.950 . S
C2768 C2767 1.397 . S
C2768 C2769 1.334 . S
C2769 H2746 0.950 . S
C2769 C2768 1.334 . S
C2769 C2770 1.287 . S
C2770 C2769 1.287 . S
C2770 C2771 1.524 . S
C2770 H2789 0.913 . S
C2771 H2747 0.950 . S
C2771 C2770 1.524 . S
C2771 C2772 1.415 . S
C2772 H2748 0.950 . S
C2772 C2767 1.363 . S
C2772 C2771 1.415 . S
C2773 H2749 0.951 . S
C2773 C2774 1.366 . S
C2773 C2775 1.388 . S
C2774 C2773 1.366 . S
C2774 C2778 1.385 . S
C2775 H2750 0.951 . S
C2775 C2773 1.388 . S
C2775 C2776 1.366 . S
C2776 C2775 1.366 . S
C2776 C2777 1.414 . S
C2776 C2779 1.499 . S
C2777 H2751 0.950 . S
C2777 C2776 1.414 . S
C2777 C2778 1.374 . S
C2778 H2752 0.950 . S
C2778 C2774 1.385 . S
C2778 C2777 1.374 . S
C2779 C2776 1.499 . S
C2779 C2780 1.373 . S
C2779 C2781 1.389 . S
C2780 H2753 0.950 . S
C2780 C2766 1.377 . S
C2780 C2779 1.373 . S
C2781 C2765 1.377 . S
C2781 C2779 1.389 . S
C2781 C2782 1.524 . S
C2782 C2781 1.524 . S
C2782 C2783 1.397 . S
C2782 C2787 1.363 . S
C2783 H2754 0.950 . S
C2783 C2782 1.397 . S
C2783 C2784 1.334 . S
C2784 H2755 0.950 . S
C2784 C2783 1.334 . S
C2784 C2785 1.287 . S
C2785 C2784 1.287 . S
C2785 C2786 1.524 . S
C2785 H2788 0.999 . S
C2786 H2756 0.950 . S
C2786 C2785 1.524 . S
C2786 C2787 1.415 . S
C2787 H2757 0.950 . S
C2787 C2782 1.363 . S
C2787 C2786 1.415 . S
H2788 C2785 0.999 . S
H2789 C2770 0.913 . S
H2790 C2808 0.951 . S
H2791 C2810 0.951 . S
H2792 C2812 0.950 . S
H2793 C2813 0.950 . S
H2794 C2815 0.950 . S
H2795 C2818 0.950 . S
H2796 C2819 0.950 . S
H2797 C2821 0.950 . S
H2798 C2822 0.950 . S
H2799 C2823 0.951 . S
H2800 C2825 0.951 . S
H2801 C2827 0.950 . S
H2802 C2828 0.950 . S
H2803 C2830 0.950 . S
H2804 C2833 0.950 . S
H2805 C2834 0.950 . S
H2806 C2836 0.950 . S
H2807 C2837 0.950 . S
C2808 H2790 0.951 . S
C2808 C2809 1.366 . S
C2808 C2810 1.388 . S
C2809 C2808 1.366 . S
C2809 C2813 1.385 . S
C2810 H2791 0.951 . S
C2810 C2808 1.388 . S
C2810 C2811 1.366 . S
C2811 C2810 1.366 . S
C2811 C2812 1.414 . S
C2811 C2814 1.499 . S
C2812 H2792 0.950 . S
C2812 C2811 1.414 . S
C2812 C2813 1.374 . S
C2813 H2793 0.950 . S
C2813 C2809 1.385 . S
C2813 C2812 1.374 . S
C2814 C2811 1.499 . S
C2814 C2815 1.373 . S
C2814 C2816 1.389 . S
C2815 H2794 0.950 . S
C2815 C2814 1.373 . S
C2815 C2831 1.377 . S
C2816 C2814 1.389 . S
C2816 C2817 1.524 . S
C2816 C2830 1.377 . S
C2817 C2816 1.524 . S
C2817 C2818 1.397 . S
C2817 C2822 1.363 . S
C2818 H2795 0.950 . S
C2818 C2817 1.397 . S
C2818 C2819 1.334 . S
C2819 H2796 0.950 . S
C2819 C2818 1.334 . S
C2819 C2820 1.287 . S
C2820 C2819 1.287 . S
C2820 C2821 1.524 . S
C2820 H2839 0.913 . S
C2821 H2797 0.950 . S
C2821 C2820 1.524 . S
C2821 C2822 1.415 . S
C2822 H2798 0.950 . S
C2822 C2817 1.363 . S
C2822 C2821 1.415 . S
C2823 H2799 0.951 . S
C2823 C2824 1.366 . S
C2823 C2825 1.388 . S
C2824 C2823 1.366 . S
C2824 C2828 1.385 . S
C2825 H2800 0.951 . S
C2825 C2823 1.388 . S
C2825 C2826 1.366 . S
C2826 C2825 1.366 . S
C2826 C2827 1.414 . S
C2826 C2829 1.499 . S
C2827 H2801 0.950 . S
C2827 C2826 1.414 . S
C2827 C2828 1.374 . S
C2828 H2802 0.950 . S
C2828 C2824 1.385 . S
C2828 C2827 1.374 . S
C2829 C2826 1.499 . S
C2829 C2830 1.373 . S
C2829 C2831 1.389 . S
C2830 H2803 0.950 . S
C2830 C2816 1.377 . S
C2830 C2829 1.373 . S
C2831 C2815 1.377 . S
C2831 C2829 1.389 . S
C2831 C2832 1.524 . S
C2832 C2831 1.524 . S
C2832 C2833 1.397 . S
C2832 C2837 1.363 . S
C2833 H2804 0.950 . S
C2833 C2832 1.397 . S
C2833 C2834 1.334 . S
C2834 H2805 0.950 . S
C2834 C2833 1.334 . S
C2834 C2835 1.287 . S
C2835 C2834 1.287 . S
C2835 C2836 1.524 . S
C2835 H2838 0.999 . S
C2836 H2806 0.950 . S
C2836 C2835 1.524 . S
C2836 C2837 1.415 . S
C2837 H2807 0.950 . S
C2837 C2832 1.363 . S
C2837 C2836 1.415 . S
H2838 C2835 0.999 . S
H2839 C2820 0.913 . S
H2840 C2858 0.951 . S
H2841 C2860 0.951 . S
H2842 C2862 0.950 . S
H2843 C2863 0.950 . S
H2844 C2865 0.950 . S
H2845 C2868 0.950 . S
H2846 C2869 0.950 . S
H2847 C2871 0.950 . S
H2848 C2872 0.950 . S
H2849 C2873 0.951 . S
H2850 C2875 0.951 . S
H2851 C2877 0.950 . S
H2852 C2878 0.950 . S
H2853 C2880 0.950 . S
H2854 C2883 0.950 . S
H2855 C2884 0.950 . S
H2856 C2886 0.950 . S
H2857 C2887 0.950 . S
C2858 H2840 0.951 . S
C2858 C2859 1.366 . S
C2858 C2860 1.388 . S
C2859 C2858 1.366 . S
C2859 C2863 1.385 . S
C2860 H2841 0.951 . S
C2860 C2858 1.388 . S
C2860 C2861 1.366 . S
C2861 C2860 1.366 . S
C2861 C2862 1.414 . S
C2861 C2864 1.499 . S
C2862 H2842 0.950 . S
C2862 C2861 1.414 . S
C2862 C2863 1.374 . S
C2863 H2843 0.950 . S
C2863 C2859 1.385 . S
C2863 C2862 1.374 . S
C2864 C2861 1.499 . S
C2864 C2865 1.373 . S
C2864 C2866 1.389 . S
C2865 H2844 0.950 . S
C2865 C2864 1.373 . S
C2865 C2881 1.377 . S
C2866 C2864 1.389 . S
C2866 C2867 1.524 . S
C2866 C2880 1.377 . S
C2867 C2866 1.524 . S
C2867 C2868 1.397 . S
C2867 C2872 1.363 . S
C2868 H2845 0.950 . S
C2868 C2867 1.397 . S
C2868 C2869 1.334 . S
C2869 H2846 0.950 . S
C2869 C2868 1.334 . S
C2869 C2870 1.287 . S
C2870 C2869 1.287 . S
C2870 C2871 1.524 . S
C2870 H2889 0.913 . S
C2871 H2847 0.950 . S
C2871 C2870 1.524 . S
C2871 C2872 1.415 . S
C2872 H2848 0.950 . S
C2872 C2867 1.363 . S
C2872 C2871 1.415 . S
C2873 H2849 0.951 . S
C2873 C2874 1.366 . S
C2873 C2875 1.388 . S
C2874 C2873 1.366 . S
C2874 C2878 1.385 . S
C2875 H2850 0.951 . S
C2875 C2873 1.388 . S
C2875 C2876 1.366 . S
C2876 C2875 1.366 . S
C2876 C2877 1.414 . S
C2876 C2879 1.499 . S
C2877 H2851 0.950 . S
C2877 C2876 1.414 . S
C2877 C2878 1.374 . S
C2878 H2852 0.950 . S
C2878 C2874 1.385 . S
C2878 C2877 1.374 . S
C2879 C2876 1.499 . S
C2879 C2880 1.373 . S
C2879 C2881 1.389 . S
C2880 H2853 0.950 . S
C2880 C2866 1.377 . S
C2880 C2879 1.373 . S
C2881 C2865 1.377 . S
C2881 C2879 1.389 . S
C2881 C2882 1.524 . S
C2882 C2881 1.524 . S
C2882 C2883 1.397 . S
C2882 C2887 1.363 . S
C2883 H2854 0.950 . S
C2883 C2882 1.397 . S
C2883 C2884 1.334 . S
C2884 H2855 0.950 . S
C2884 C2883 1.334 . S
C2884 C2885 1.287 . S
C2885 C2884 1.287 . S
C2885 C2886 1.524 . S
C2885 H2888 0.999 . S
C2886 H2856 0.950 . S
C2886 C2885 1.524 . S
C2886 C2887 1.415 . S
C2887 H2857 0.950 . S
C2887 C2882 1.363 . S
C2887 C2886 1.415 . S
H2888 C2885 0.999 . S
H2889 C2870 0.913 . S
H2890 C2908 0.951 . S
H2891 C2910 0.951 . S
H2892 C2912 0.950 . S
H2893 C2913 0.950 . S
H2894 C2915 0.950 . S
H2895 C2918 0.950 . S
H2896 C2919 0.950 . S
H2897 C2921 0.950 . S
H2898 C2922 0.950 . S
H2899 C2923 0.951 . S
H2900 C2925 0.951 . S
H2901 C2927 0.950 . S
H2902 C2928 0.950 . S
H2903 C2930 0.950 . S
H2904 C2933 0.950 . S
H2905 C2934 0.950 . S
H2906 C2936 0.950 . S
H2907 C2937 0.950 . S
C2908 H2890 0.951 . S
C2908 C2909 1.366 . S
C2908 C2910 1.388 . S
C2909 C2908 1.366 . S
C2909 C2913 1.385 . S
C2910 H2891 0.951 . S
C2910 C2908 1.388 . S
C2910 C2911 1.366 . S
C2911 C2910 1.366 . S
C2911 C2912 1.414 . S
C2911 C2914 1.499 . S
C2912 H2892 0.950 . S
C2912 C2911 1.414 . S
C2912 C2913 1.374 . S
C2913 H2893 0.950 . S
C2913 C2909 1.385 . S
C2913 C2912 1.374 . S
C2914 C2911 1.499 . S
C2914 C2915 1.373 . S
C2914 C2916 1.389 . S
C2915 H2894 0.950 . S
C2915 C2914 1.373 . S
C2915 C2931 1.377 . S
C2916 C2914 1.389 . S
C2916 C2917 1.524 . S
C2916 C2930 1.377 . S
C2917 C2916 1.524 . S
C2917 C2918 1.397 . S
C2917 C2922 1.363 . S
C2918 H2895 0.950 . S
C2918 C2917 1.397 . S
C2918 C2919 1.334 . S
C2919 H2896 0.950 . S
C2919 C2918 1.334 . S
C2919 C2920 1.287 . S
C2920 C2919 1.287 . S
C2920 C2921 1.524 . S
C2920 H2939 0.913 . S
C2921 H2897 0.950 . S
C2921 C2920 1.524 . S
C2921 C2922 1.415 . S
C2922 H2898 0.950 . S
C2922 C2917 1.363 . S
C2922 C2921 1.415 . S
C2923 H2899 0.951 . S
C2923 C2924 1.366 . S
C2923 C2925 1.388 . S
C2924 C2923 1.366 . S
C2924 C2928 1.385 . S
C2925 H2900 0.951 . S
C2925 C2923 1.388 . S
C2925 C2926 1.366 . S
C2926 C2925 1.366 . S
C2926 C2927 1.414 . S
C2926 C2929 1.499 . S
C2927 H2901 0.950 . S
C2927 C2926 1.414 . S
C2927 C2928 1.374 . S
C2928 H2902 0.950 . S
C2928 C2924 1.385 . S
C2928 C2927 1.374 . S
C2929 C2926 1.499 . S
C2929 C2930 1.373 . S
C2929 C2931 1.389 . S
C2930 H2903 0.950 . S
C2930 C2916 1.377 . S
C2930 C2929 1.373 . S
C2931 C2915 1.377 . S
C2931 C2929 1.389 . S
C2931 C2932 1.524 . S
C2932 C2931 1.524 . S
C2932 C2933 1.397 . S
C2932 C2937 1.363 . S
C2933 H2904 0.950 . S
C2933 C2932 1.397 . S
C2933 C2934 1.334 . S
C2934 H2905 0.950 . S
C2934 C2933 1.334 . S
C2934 C2935 1.287 . S
C2935 C2934 1.287 . S
C2935 C2936 1.524 . S
C2935 H2938 0.999 . S
C2936 H2906 0.950 . S
C2936 C2935 1.524 . S
C2936 C2937 1.415 . S
C2937 H2907 0.950 . S
C2937 C2932 1.363 . S
C2937 C2936 1.415 . S
H2938 C2935 0.999 . S
H2939 C2920 0.913 . S
H2940 C2958 0.951 . S
H2941 C2960 0.951 . S
H2942 C2962 0.950 . S
H2943 C2963 0.950 . S
H2944 C2965 0.950 . S
H2945 C2968 0.950 . S
H2946 C2969 0.950 . S
H2947 C2971 0.950 . S
H2948 C2972 0.950 . S
H2949 C2973 0.951 . S
H2950 C2975 0.951 . S
H2951 C2977 0.950 . S
H2952 C2978 0.950 . S
H2953 C2980 0.950 . S
H2954 C2983 0.950 . S
H2955 C2984 0.950 . S
H2956 C2986 0.950 . S
H2957 C2987 0.950 . S
C2958 H2940 0.951 . S
C2958 C2959 1.366 . S
C2958 C2960 1.388 . S
C2959 C2958 1.366 . S
C2959 C2963 1.385 . S
C2960 H2941 0.951 . S
C2960 C2958 1.388 . S
C2960 C2961 1.366 . S
C2961 C2960 1.366 . S
C2961 C2962 1.414 . S
C2961 C2964 1.499 . S
C2962 H2942 0.950 . S
C2962 C2961 1.414 . S
C2962 C2963 1.374 . S
C2963 H2943 0.950 . S
C2963 C2959 1.385 . S
C2963 C2962 1.374 . S
C2964 C2961 1.499 . S
C2964 C2965 1.373 . S
C2964 C2966 1.389 . S
C2965 H2944 0.950 . S
C2965 C2964 1.373 . S
C2965 C2981 1.377 . S
C2966 C2964 1.389 . S
C2966 C2967 1.524 . S
C2966 C2980 1.377 . S
C2967 C2966 1.524 . S
C2967 C2968 1.397 . S
C2967 C2972 1.363 . S
C2968 H2945 0.950 . S
C2968 C2967 1.397 . S
C2968 C2969 1.334 . S
C2969 H2946 0.950 . S
C2969 C2968 1.334 . S
C2969 C2970 1.287 . S
C2970 C2969 1.287 . S
C2970 C2971 1.524 . S
C2970 H2989 0.913 . S
C2971 H2947 0.950 . S
C2971 C2970 1.524 . S
C2971 C2972 1.415 . S
C2972 H2948 0.950 . S
C2972 C2967 1.363 . S
C2972 C2971 1.415 . S
C2973 H2949 0.951 . S
C2973 C2974 1.366 . S
C2973 C2975 1.388 . S
C2974 C2973 1.366 . S
C2974 C2978 1.385 . S
C2975 H2950 0.951 . S
C2975 C2973 1.388 . S
C2975 C2976 1.366 . S
C2976 C2975 1.366 . S
C2976 C2977 1.414 . S
C2976 C2979 1.499 . S
C2977 H2951 0.950 . S
C2977 C2976 1.414 . S
C2977 C2978 1.374 . S
C2978 H2952 0.950 . S
C2978 C2974 1.385 . S
C2978 C2977 1.374 . S
C2979 C2976 1.499 . S
C2979 C2980 1.373 . S
C2979 C2981 1.389 . S
C2980 H2953 0.950 . S
C2980 C2966 1.377 . S
C2980 C2979 1.373 . S
C2981 C2965 1.377 . S
C2981 C2979 1.389 . S
C2981 C2982 1.524 . S
C2982 C2981 1.524 . S
C2982 C2983 1.397 . S
C2982 C2987 1.363 . S
C2983 H2954 0.950 . S
C2983 C2982 1.397 . S
C2983 C2984 1.334 . S
C2984 H2955 0.950 . S
C2984 C2983 1.334 . S
C2984 C2985 1.287 . S
C2985 C2984 1.287 . S
C2985 C2986 1.524 . S
C2985 H2988 0.999 . S
C2986 H2956 0.950 . S
C2986 C2985 1.524 . S
C2986 C2987 1.415 . S
C2987 H2957 0.950 . S
C2987 C2982 1.363 . S
C2987 C2986 1.415 . S
H2988 C2985 0.999 . S
H2989 C2970 0.913 . S
H2990 C3008 0.951 . S
H2991 C3010 0.951 . S
H2992 C3012 0.950 . S
H2993 C3013 0.950 . S
H2994 C3015 0.950 . S
H2995 C3018 0.950 . S
H2996 C3019 0.950 . S
H2997 C3021 0.950 . S
H2998 C3022 0.950 . S
H2999 C3023 0.951 . S
H3000 C3025 0.951 . S
H3001 C3027 0.950 . S
H3002 C3028 0.950 . S
H3003 C3030 0.950 . S
H3004 C3033 0.950 . S
H3005 C3034 0.950 . S
H3006 C3036 0.950 . S
H3007 C3037 0.950 . S
C3008 H2990 0.951 . S
C3008 C3009 1.366 . S
C3008 C3010 1.388 . S
C3009 C3008 1.366 . S
C3009 C3013 1.385 . S
C3010 H2991 0.951 . S
C3010 C3008 1.388 . S
C3010 C3011 1.366 . S
C3011 C3010 1.366 . S
C3011 C3012 1.414 . S
C3011 C3014 1.499 . S
C3012 H2992 0.950 . S
C3012 C3011 1.414 . S
C3012 C3013 1.374 . S
C3013 H2993 0.950 . S
C3013 C3009 1.385 . S
C3013 C3012 1.374 . S
C3014 C3011 1.499 . S
C3014 C3015 1.373 . S
C3014 C3016 1.389 . S
C3015 H2994 0.950 . S
C3015 C3014 1.373 . S
C3015 C3031 1.377 . S
C3016 C3014 1.389 . S
C3016 C3017 1.524 . S
C3016 C3030 1.377 . S
C3017 C3016 1.524 . S
C3017 C3018 1.397 . S
C3017 C3022 1.363 . S
C3018 H2995 0.950 . S
C3018 C3017 1.397 . S
C3018 C3019 1.334 . S
C3019 H2996 0.950 . S
C3019 C3018 1.334 . S
C3019 C3020 1.287 . S
C3020 C3019 1.287 . S
C3020 C3021 1.524 . S
C3020 H3039 0.913 . S
C3021 H2997 0.950 . S
C3021 C3020 1.524 . S
C3021 C3022 1.415 . S
C3022 H2998 0.950 . S
C3022 C3017 1.363 . S
C3022 C3021 1.415 . S
C3023 H2999 0.951 . S
C3023 C3024 1.366 . S
C3023 C3025 1.388 . S
C3024 C3023 1.366 . S
C3024 C3028 1.385 . S
C3025 H3000 0.951 . S
C3025 C3023 1.388 . S
C3025 C3026 1.366 . S
C3026 C3025 1.366 . S
C3026 C3027 1.414 . S
C3026 C3029 1.499 . S
C3027 H3001 0.950 . S
C3027 C3026 1.414 . S
C3027 C3028 1.374 . S
C3028 H3002 0.950 . S
C3028 C3024 1.385 . S
C3028 C3027 1.374 . S
C3029 C3026 1.499 . S
C3029 C3030 1.373 . S
C3029 C3031 1.389 . S
C3030 H3003 0.950 . S
C3030 C3016 1.377 . S
C3030 C3029 1.373 . S
C3031 C3015 1.377 . S
C3031 C3029 1.389 . S
C3031 C3032 1.524 . S
C3032 C3031 1.524 . S
C3032 C3033 1.397 . S
C3032 C3037 1.363 . S
C3033 H3004 0.950 . S
C3033 C3032 1.397 . S
C3033 C3034 1.334 . S
C3034 H3005 0.950 . S
C3034 C3033 1.334 . S
C3034 C3035 1.287 . S
C3035 C3034 1.287 . S
C3035 C3036 1.524 . S
C3035 H3038 0.999 . S
C3036 H3006 0.950 . S
C3036 C3035 1.524 . S
C3036 C3037 1.415 . S
C3037 H3007 0.950 . S
C3037 C3032 1.363 . S
C3037 C3036 1.415 . S
H3038 C3035 0.999 . S
H3039 C3020 0.913 . S
C659 C129 3.505 . S
C674 C8 3.526 . S
C709 C19 3.020 . S
C724 C49 3.032 . S
C759 C98 0.830 . S
C774 C58 0.826 . S
C809 C135 0.444 . S
C824 C95 0.438 . S
C859 C179 0.331 . S
C874 C215 0.096 . S
C909 C218 0.858 . S
C924 C248 0.869 . S
C959 C245 0.388 . S
C974 C295 0.412 . S
C1009 C165 0.686 . S
C1024 C298 0.686 . S
C1059 C369 3.283 . S
C1074 C5 3.298 . S
C1109 C419 0.609 . S
C1124 C55 0.593 . S
C1159 C89 3.027 . S
C1174 C529 2.995 . S
C1209 C328 0.840 . S
C1224 C138 0.843 . S
C1259 C458 0.843 . S
C1274 C168 0.839 . S
C1309 C565 3.297 . S
C1324 C209 3.283 . S
C1359 C259 0.609 . S
C1374 C495 0.593 . S
C1409 C609 3.027 . S
C1424 C289 2.995 . S
C1459 C325 0.686 . S
C1474 C538 0.686 . S
C1509 C375 0.096 . S
C1524 C339 0.331 . S
C1559 C408 0.869 . S
C1574 C378 0.858 . S
C1609 C568 3.527 . S
C1624 C449 3.505 . S
C1659 C498 0.826 . S
C1674 C618 0.830 . S
C1709 C459 3.506 . S
C1724 C18 3.528 . S
C1759 C499 3.032 . S
C1774 C9 3.020 . S
C1809 C488 0.826 . S
C1824 C88 0.831 . S
C1859 C85 0.438 . S
C1874 C445 0.444 . S
C1909 C365 0.095 . S
C1924 C169 0.329 . S
C1959 C368 0.858 . S
C1974 C258 0.869 . S
C2009 C525 0.411 . S
C2024 C255 0.388 . S
C2059 C175 0.687 . S
C2074 C528 0.686 . S
C2109 C219 3.283 . S
C2124 C15 3.296 . S
C2159 C409 0.610 . S
C2174 C485 0.594 . S
C2209 C99 3.027 . S
C2224 C299 2.996 . S
C2259 C338 0.838 . S
C2274 C448 0.843 . S
C2309 C128 0.842 . S
C2324 C178 0.838 . S
C2359 C379 3.284 . S
C2374 C575 3.297 . S
C2409 C249 0.610 . S
C2424 C45 0.593 . S
C2459 C619 3.027 . S
C2474 C539 2.996 . S
C2509 C335 0.686 . S
C2524 C288 0.687 . S
C2559 C329 0.332 . S
C2574 C205 0.097 . S
C2609 C418 0.869 . S
C2624 C208 0.859 . S
C2659 C139 3.505 . S
C2674 C578 3.527 . S
C2709 C48 0.827 . S
C2724 C608 0.829 . S
C2759 C489 3.033 . S
C2774 C579 3.020 . S
C2809 C455 0.442 . S
C2824 C615 0.437 . S
C2859 C405 0.387 . S
C2874 C535 0.412 . S
C2909 C569 3.019 . S
C2924 C59 3.032 . S
C2959 C125 0.444 . S
C2974 C605 0.438 . S
C3009 C285 0.413 . S
C3024 C415 0.387 . S
