# Generated by pormake.
# Topology bcs, (6)-cn, num edge types: 1
# Building blocks:
#     Node 0, Type 0, BuildingBlock: BETDAH_clean_sbu_0, # of connection points: 6
#     Node 1, Type 0, BuildingBlock: BETDAH_clean_sbu_0, # of connection points: 6
#     Node 2, Type 0, BuildingBlock: BETDAH_clean_sbu_0, # of connection points: 6
#     Node 3, Type 0, BuildingBlock: BETDAH_clean_sbu_0, # of connection points: 6
#     Node 4, Type 0, BuildingBlock: BETDAH_clean_sbu_0, # of connection points: 6
#     Node 5, Type 0, BuildingBlock: BETDAH_clean_sbu_0, # of connection points: 6
#     Node 6, Type 0, BuildingBlock: BETDAH_clean_sbu_0, # of connection points: 6
#     Node 7, Type 0, BuildingBlock: BETDAH_clean_sbu_0, # of connection points: 6
#     Node 8, Type 0, BuildingBlock: BETDAH_clean_sbu_0, # of connection points: 6
#     Node 9, Type 0, BuildingBlock: BETDAH_clean_sbu_0, # of connection points: 6
#     Node 10, Type 0, BuildingBlock: BETDAH_clean_sbu_0, # of connection points: 6
#     Node 11, Type 0, BuildingBlock: BETDAH_clean_sbu_0, # of connection points: 6
#     Node 12, Type 0, BuildingBlock: BETDAH_clean_sbu_0, # of connection points: 6
#     Node 13, Type 0, BuildingBlock: BETDAH_clean_sbu_0, # of connection points: 6
#     Node 14, Type 0, BuildingBlock: BETDAH_clean_sbu_0, # of connection points: 6
#     Node 15, Type 0, BuildingBlock: BETDAH_clean_sbu_0, # of connection points: 6
#     Edge 16, Type (0, 0), BuildingBlock: EZIPEK_clean_linker_0, # of connection points: 2
#     Edge 17, Type (0, 0), BuildingBlock: EZIPEK_clean_linker_0, # of connection points: 2
#     Edge 18, Type (0, 0), BuildingBlock: EZIPEK_clean_linker_0, # of connection points: 2
#     Edge 19, Type (0, 0), BuildingBlock: EZIPEK_clean_linker_0, # of connection points: 2
#     Edge 20, Type (0, 0), BuildingBlock: EZIPEK_clean_linker_0, # of connection points: 2
#     Edge 21, Type (0, 0), BuildingBlock: EZIPEK_clean_linker_0, # of connection points: 2
#     Edge 22, Type (0, 0), BuildingBlock: EZIPEK_clean_linker_0, # of connection points: 2
#     Edge 23, Type (0, 0), BuildingBlock: EZIPEK_clean_linker_0, # of connection points: 2
#     Edge 24, Type (0, 0), BuildingBlock: EZIPEK_clean_linker_0, # of connection points: 2
#     Edge 25, Type (0, 0), BuildingBlock: EZIPEK_clean_linker_0, # of connection points: 2
#     Edge 26, Type (0, 0), BuildingBlock: EZIPEK_clean_linker_0, # of connection points: 2
#     Edge 27, Type (0, 0), BuildingBlock: EZIPEK_clean_linker_0, # of connection points: 2
#     Edge 28, Type (0, 0), BuildingBlock: EZIPEK_clean_linker_0, # of connection points: 2
#     Edge 29, Type (0, 0), BuildingBlock: EZIPEK_clean_linker_0, # of connection points: 2
#     Edge 30, Type (0, 0), BuildingBlock: EZIPEK_clean_linker_0, # of connection points: 2
#     Edge 31, Type (0, 0), BuildingBlock: EZIPEK_clean_linker_0, # of connection points: 2
#     Edge 32, Type (0, 0), BuildingBlock: EZIPEK_clean_linker_0, # of connection points: 2
#     Edge 33, Type (0, 0), BuildingBlock: EZIPEK_clean_linker_0, # of connection points: 2
#     Edge 34, Type (0, 0), BuildingBlock: EZIPEK_clean_linker_0, # of connection points: 2
#     Edge 35, Type (0, 0), BuildingBlock: EZIPEK_clean_linker_0, # of connection points: 2
#     Edge 36, Type (0, 0), BuildingBlock: EZIPEK_clean_linker_0, # of connection points: 2
#     Edge 37, Type (0, 0), BuildingBlock: EZIPEK_clean_linker_0, # of connection points: 2
#     Edge 38, Type (0, 0), BuildingBlock: EZIPEK_clean_linker_0, # of connection points: 2
#     Edge 39, Type (0, 0), BuildingBlock: EZIPEK_clean_linker_0, # of connection points: 2
#     Edge 40, Type (0, 0), BuildingBlock: EZIPEK_clean_linker_0, # of connection points: 2
#     Edge 41, Type (0, 0), BuildingBlock: EZIPEK_clean_linker_0, # of connection points: 2
#     Edge 42, Type (0, 0), BuildingBlock: EZIPEK_clean_linker_0, # of connection points: 2
#     Edge 43, Type (0, 0), BuildingBlock: EZIPEK_clean_linker_0, # of connection points: 2
#     Edge 44, Type (0, 0), BuildingBlock: EZIPEK_clean_linker_0, # of connection points: 2
#     Edge 45, Type (0, 0), BuildingBlock: EZIPEK_clean_linker_0, # of connection points: 2
#     Edge 46, Type (0, 0), BuildingBlock: EZIPEK_clean_linker_0, # of connection points: 2
#     Edge 47, Type (0, 0), BuildingBlock: EZIPEK_clean_linker_0, # of connection points: 2
#     Edge 48, Type (0, 0), BuildingBlock: EZIPEK_clean_linker_0, # of connection points: 2
#     Edge 49, Type (0, 0), BuildingBlock: EZIPEK_clean_linker_0, # of connection points: 2
#     Edge 50, Type (0, 0), BuildingBlock: EZIPEK_clean_linker_0, # of connection points: 2
#     Edge 51, Type (0, 0), BuildingBlock: EZIPEK_clean_linker_0, # of connection points: 2
#     Edge 52, Type (0, 0), BuildingBlock: EZIPEK_clean_linker_0, # of connection points: 2
#     Edge 53, Type (0, 0), BuildingBlock: EZIPEK_clean_linker_0, # of connection points: 2
#     Edge 54, Type (0, 0), BuildingBlock: EZIPEK_clean_linker_0, # of connection points: 2
#     Edge 55, Type (0, 0), BuildingBlock: EZIPEK_clean_linker_0, # of connection points: 2
#     Edge 56, Type (0, 0), BuildingBlock: EZIPEK_clean_linker_0, # of connection points: 2
#     Edge 57, Type (0, 0), BuildingBlock: EZIPEK_clean_linker_0, # of connection points: 2
#     Edge 58, Type (0, 0), BuildingBlock: EZIPEK_clean_linker_0, # of connection points: 2
#     Edge 59, Type (0, 0), BuildingBlock: EZIPEK_clean_linker_0, # of connection points: 2
#     Edge 60, Type (0, 0), BuildingBlock: EZIPEK_clean_linker_0, # of connection points: 2
#     Edge 61, Type (0, 0), BuildingBlock: EZIPEK_clean_linker_0, # of connection points: 2
#     Edge 62, Type (0, 0), BuildingBlock: EZIPEK_clean_linker_0, # of connection points: 2
#     Edge 63, Type (0, 0), BuildingBlock: EZIPEK_clean_linker_0, # of connection points: 2
# Relax obj value: 0.312
# Max RMSD: 0.277
# Mean RMSD: 0.212
data_MOF--net-bcs--node1-BETDAH_clean_sbu_0--edge1-EZIPEK_clean_linker_0
_symmetry_space_group_name_H-M    P1
_symmetry_Int_Tables_number       1
_symmetry_cell_setting            triclinic
loop_
_symmetry_equiv_pos_as_xyz
'x, y, z'
_cell_length_a     33.642749
_cell_length_b     33.767174
_cell_length_c     31.555695
_cell_angle_alpha  73.220949
_cell_angle_beta   113.02631
_cell_angle_gamma 127.06359
loop_
_atom_site_label
_atom_site_type_symbol
_atom_site_fract_x
_atom_site_fract_y
_atom_site_fract_z
_atom_type_partial_charge
Ho0 Ho 0.06217 0.95722 1.01094 0.0
Ho1 Ho 0.06595 0.03342 0.04082 0.0
C2 C 0.1642 0.03023 0.08525 0.0
C3 C 0.07505 0.90169 0.98226 0.0
C4 C 0.11004 0.89932 0.96701 0.0
C5 C 0.13886 0.93638 0.93686 0.0
C6 C 0.16668 0.92956 0.91919 0.0
C7 C 0.16578 0.88556 0.93122 0.0
C8 C 0.13817 0.84939 0.96226 0.0
C9 C 0.1107 0.85625 0.97999 0.0
C10 C 1.00422 0.91662 0.07384 0.0
C11 C 0.96447 0.96143 0.9675 0.0
C12 C 1.05014 0.08797 0.06725 0.0
C13 C 1.01308 0.08819 0.08148 0.0
C14 C 0.95934 0.06209 0.05898 0.0
C15 C 0.9267 0.06774 0.07058 0.0
C16 C 0.94739 0.09981 0.10454 0.0
C17 C 1.00071 0.12477 0.1276 0.0
C18 C 1.03312 0.11895 0.11625 0.0
C19 C 0.12399 0.07374 0.97782 0.0
O20 O 0.14592 0.00602 0.04907 0.0
O21 O 0.13555 0.03906 0.09451 0.0
O22 O 0.08748 0.90738 0.02579 0.0
O23 O 1.05412 0.92568 0.95495 0.0
O24 O 0.99515 0.89564 0.03983 0.0
O25 O 1.04786 0.95847 0.07508 0.0
O26 O 0.98224 0.98289 1.00524 0.0
O27 O 0.99364 0.95427 0.95689 0.0
O28 O 1.03834 0.0813 0.02412 0.0
O29 O 0.07301 0.06607 0.09571 0.0
O30 O 0.13271 0.09502 1.01143 0.0
O31 O 0.08035 0.03201 0.9768 0.0
H32 H 0.13888 0.96989 0.92613 0.0
H33 H 0.18773 0.95792 0.89524 0.0
H34 H 0.13692 0.81522 0.97197 0.0
H35 H 0.08855 0.82704 1.00291 0.0
H36 H 0.94282 0.0383 0.03185 0.0
H37 H 0.88566 0.0482 0.05227 0.0
H38 H 1.01749 0.1497 0.15379 0.0
H39 H 0.07436 0.13972 0.13386 0.0
Ho40 Ho 0.33181 0.72626 0.2841 0.0
Ho41 Ho 0.26634 0.76191 0.24388 0.0
C42 C 0.23182 0.67433 0.31845 0.0
C43 C 0.38019 0.69108 0.34633 0.0
C44 C 0.36701 0.66878 0.39023 0.0
C45 C 0.37992 0.69856 0.42291 0.0
C46 C 0.36341 0.6766 0.4627 0.0
C47 C 0.33565 0.62464 0.47129 0.0
C48 C 0.31592 0.59543 0.435 0.0
C49 C 0.33272 0.61716 0.3957 0.0
C50 C 0.26231 0.6851 0.20445 0.0
C51 C 0.36476 0.80766 0.20398 0.0
C52 C 0.21151 0.79803 0.19631 0.0
C53 C 0.22786 0.84976 0.18714 0.0
C54 C 0.19172 0.86154 0.15993 0.0
C55 C 0.20693 0.91082 0.15302 0.0
C56 C 0.25832 0.94863 0.17347 0.0
C57 C 0.29487 0.93704 0.20013 0.0
C58 C 0.27964 0.88756 0.20684 0.0
C59 C 0.34116 0.80785 0.32141 0.0
O60 O 0.28165 0.69241 0.33203 0.0
O61 O 0.21216 0.68921 0.27726 0.0
O62 O 0.34368 0.66658 0.31035 0.0
O63 O 0.40125 0.73902 0.33866 0.0
O64 O 0.30907 0.69544 0.21905 0.0
O65 O 0.25193 0.69212 0.23495 0.0
O66 O 0.3225 0.80541 0.1993 0.0
O67 O 0.38064 0.78265 0.23814 0.0
O68 O 0.21439 0.78146 0.23941 0.0
O69 O 0.23092 0.78594 0.17779 0.0
O70 O 0.29285 0.79107 0.3117 0.0
O71 O 0.34751 0.79845 0.28959 0.0
H72 H 0.40348 0.73878 0.4183 0.0
H73 H 0.37653 0.70029 0.48854 0.0
H74 H 0.29229 0.5552 0.43875 0.0
H75 H 0.31944 0.59328 0.36986 0.0
H76 H 0.15181 0.83269 0.14451 0.0
H77 H 0.17844 0.91957 0.13208 0.0
H78 H 0.33459 0.96596 0.21583 0.0
H79 H 0.30794 0.87859 0.22778 0.0
Ho80 Ho 0.53183 0.97716 0.55299 0.0
Ho81 Ho 0.5849 0.01945 0.48998 0.0
C82 C 0.50293 0.06301 0.4616 0.0
C83 C 0.49483 0.96129 0.61903 0.0
C84 C 0.49767 0.99206 0.64664 0.0
C85 C 0.53744 0.00925 0.68823 0.0
C86 C 0.54115 0.03895 0.71435 0.0
C87 C 0.50365 0.04988 0.70083 0.0
C88 C 0.46362 0.03247 0.65942 0.0
C89 C 0.46073 0.00398 0.63247 0.0
C90 C 0.48372 0.91644 0.48473 0.0
C91 C 0.61593 0.93484 0.57961 0.0
C92 C 0.62186 0.02964 0.42754 0.0
C93 C 0.63898 0.00039 0.42331 0.0
C94 C 0.60243 0.95169 0.40878 0.0
C95 C 0.61892 0.9235 0.40631 0.0
C96 C 0.67204 0.94481 0.41572 0.0
C97 C 0.7084 0.99165 0.43363 0.0
C98 C 0.69205 0.0194 0.43728 0.0
C99 C 0.63386 0.0797 0.55875 0.0
O100 O 0.50002 0.03535 0.50477 0.0
O101 O 0.53577 0.0605 0.44804 0.0
O102 O 0.46851 0.95833 0.57554 0.0
O103 O 0.5382 0.96631 0.62545 0.0
O104 O 0.48729 0.90062 0.52775 0.0
O105 O 0.50288 0.96216 0.48061 0.0
O106 O 0.61961 0.96384 0.5374 0.0
O107 O 0.5819 0.93594 0.59305 0.0
O108 O 0.65018 0.05759 0.4624 0.0
O109 O 0.57218 0.00566 0.42196 0.0
O110 O 0.62851 0.09549 0.51548 0.0
O111 O 0.61386 0.03375 0.56272 0.0
H112 H 0.56617 0.00019 0.7005 0.0
H113 H 0.57255 0.05233 0.74592 0.0
H114 H 0.43419 0.04053 0.64816 0.0
H115 H 0.42922 0.9908 0.60094 0.0
H116 H 0.56113 0.93558 0.39854 0.0
H117 H 0.59039 0.88675 0.39355 0.0
H118 H 0.74951 0.00739 0.44331 0.0
H119 H 0.72089 0.05595 0.45038 0.0
Ho120 Ho 0.33502 0.21353 0.79743 0.0
Ho121 Ho 0.30115 0.28105 0.76304 0.0
C122 C 0.38467 0.30057 0.72004 0.0
C123 C 0.34837 0.14185 0.81903 0.0
C124 C 0.38747 0.13606 0.81778 0.0
C125 C 0.37123 0.08965 0.80836 0.0
C126 C 0.40364 0.08522 0.7959 0.0
C127 C 0.45278 0.12714 0.79297 0.0
C128 C 0.47072 0.17299 0.80573 0.0
C129 C 0.43779 0.17762 0.81753 0.0
C130 C 0.40506 0.30197 0.83622 0.0
C131 C 0.2479 0.19048 0.83938 0.0
C132 C 0.2718 0.34155 0.74256 0.0
C133 C 0.23024 0.34426 0.74411 0.0
C134 C 0.22893 0.35043 0.7855 0.0
C135 C 0.19313 0.35913 0.78497 0.0
C136 C 0.15851 0.36232 0.74329 0.0
C137 C 0.15691 0.35224 0.70239 0.0
C138 C 0.19315 0.34412 0.70268 0.0
C139 C 0.24992 0.20572 0.70879 0.0
O140 O 0.36851 0.25363 0.73555 0.0
O141 O 0.37031 0.32291 0.73342 0.0
O142 O 0.36225 0.1705 0.84939 0.0
O143 O 0.32233 0.14993 0.77817 0.0
O144 O 0.41713 0.27806 0.82382 0.0
O145 O 0.3565 0.27753 0.828 0.0
O146 O 0.24793 0.22831 0.81063 0.0
O147 O 0.27937 0.17835 0.84105 0.0
O148 O 0.25742 0.31062 0.71469 0.0
O149 O 0.30631 0.34187 0.78105 0.0
O150 O 0.27088 0.25202 0.69407 0.0
O151 O 0.26048 0.20233 0.75195 0.0
H152 H 0.33232 0.05744 0.80795 0.0
H153 H 0.38952 0.04943 0.78662 0.0
H154 H 0.50885 0.20546 0.80416 0.0
H155 H 0.45055 0.21391 0.82415 0.0
H156 H 0.25638 0.34996 0.81801 0.0
H157 H 0.19309 0.36466 0.81703 0.0
H158 H 0.12922 0.35275 0.67008 0.0
H159 H 0.19309 0.3391 0.67024 0.0
Ho160 Ho 0.11351 0.98719 0.54839 0.0
Ho161 Ho 1.0324 0.01194 0.49714 0.0
C162 C 1.01147 0.93725 0.58777 0.0
C163 C 0.18212 0.96872 0.60526 0.0
C164 C 0.21536 0.95223 0.60772 0.0
C165 C 0.25881 0.98259 0.59027 0.0
C166 C 0.29285 0.96823 0.59834 0.0
C167 C 0.28413 0.9234 0.6241 0.0
C168 C 0.24004 0.89252 0.64025 0.0
C169 C 0.20611 0.90674 0.63217 0.0
C170 C 1.04462 0.93729 0.4726 0.0
C171 C 0.13273 0.06288 0.45688 0.0
C172 C 0.96644 0.03174 0.43676 0.0
C173 C 0.92985 0.04534 0.42985 0.0
C174 C 0.89734 0.02499 0.45821 0.0
C175 C 0.8617 0.03773 0.44871 0.0
C176 C 0.85928 0.07209 0.41152 0.0
C177 C 0.89268 0.09311 0.38399 0.0
C178 C 0.92733 0.07965 0.39291 0.0
C179 C 0.10102 0.06072 0.57386 0.0
O180 O 1.0601 0.95031 0.59658 0.0
O181 O 0.98908 0.95253 0.54793 0.0
O182 O 0.132 0.93568 0.59503 0.0
O183 O 0.19392 0.01326 0.58681 0.0
O184 O 0.09211 0.94979 0.48773 0.0
O185 O 1.03446 0.94733 0.50087 0.0
O186 O 0.08417 0.049 0.44867 0.0
O187 O 0.15554 0.04747 0.49642 0.0
O188 O 1.01569 0.06541 0.45317 0.0
O189 O 0.95398 0.98644 0.45282 0.0
O190 O 1.05309 0.04745 0.55893 0.0
O191 O 0.11157 0.05175 0.54507 0.0
H192 H 0.26742 0.01807 0.57165 0.0
H193 H 0.32709 0.99297 0.58616 0.0
H194 H 0.23294 0.85816 0.6607 0.0
H195 H 0.17346 0.88281 0.64656 0.0
H196 H 0.89924 -0.00094 0.48733 0.0
H197 H 0.83616 0.02088 0.47031 0.0
H198 H 0.89124 0.11935 0.35498 0.0
H199 H 0.95209 0.09591 0.37061 0.0
Ho200 Ho 0.3432 0.73958 0.78007 0.0
Ho201 Ho 0.41889 0.74677 0.7402 0.0
C202 C 0.39181 0.82972 0.70786 0.0
C203 C 0.30274 0.74039 0.83514 0.0
C204 C 0.28463 0.76692 0.84404 0.0
C205 C 0.29254 0.81207 0.81972 0.0
C206 C 0.27603 0.83666 0.83052 0.0
C207 C 0.25173 0.81653 0.86591 0.0
C208 C 0.24407 0.77155 0.89007 0.0
C209 C 0.26032 0.74702 0.87921 0.0
C210 C 0.29884 0.71118 0.69203 0.0
C211 C 0.34047 0.641 0.78976 0.0
C212 C 0.47188 0.73305 0.70802 0.0
C213 C 0.48303 0.70136 0.69345 0.0
C214 C 0.44443 0.6587 0.66794 0.0
C215 C 0.45743 0.63323 0.65208 0.0
C216 C 0.50971 0.64978 0.65944 0.0
C217 C 0.54791 0.69129 0.68662 0.0
C218 C 0.53497 0.71639 0.70282 0.0
C219 C 0.46317 0.80308 0.81556 0.0
O220 O 0.37929 0.81592 0.74681 0.0
O221 O 0.40263 0.8044 0.69367 0.0
O222 O 0.27522 0.71434 0.79897 0.0
O223 O 0.35256 0.7643 0.84137 0.0
O224 O 0.29155 0.73734 0.70786 0.0
O225 O 0.3323 0.70428 0.72352 0.0
O226 O 0.37887 0.66707 0.77031 0.0
O227 O 0.32136 0.66122 0.7987 0.0
O228 O 0.4811 0.73622 0.75169 0.0
O229 O 0.4338 0.73858 0.68219 0.0
O230 O 0.48046 0.81714 0.78001 0.0
O231 O 0.42327 0.75906 0.8086 0.0
H232 H 0.31154 0.82826 0.79263 0.0
H233 H 0.2822 0.8713 0.8114 0.0
H234 H 0.22532 0.75533 0.91733 0.0
H235 H 0.25409 0.71242 0.89855 0.0
H236 H 0.40393 0.64511 0.65972 0.0
H237 H 0.4261 0.60076 0.63291 0.0
H238 H 0.58851 0.70525 0.69471 0.0
H239 H 0.56633 0.74876 0.72222 0.0
Ho240 Ho 0.59898 0.97263 0.05316 0.0
Ho241 Ho 0.52366 0.00256 0.99069 0.0
C242 C 0.6303 0.04961 0.96632 0.0
C243 C 0.64375 0.92517 0.08706 0.0
C244 C 0.66601 0.91248 0.06492 0.0
C245 C 0.64799 0.86253 0.06561 0.0
C246 C 0.66444 0.84906 0.04106 0.0
C247 C 0.69962 0.88532 1.01558 0.0
C248 C 0.71858 0.93546 1.01548 0.0
C249 C 0.70168 0.94893 0.0397 0.0
C250 C 0.61229 0.04944 0.0856 0.0
C251 C 0.49023 0.92069 0.07593 0.0
C252 C 0.48222 0.05275 0.96561 0.0
C253 C 0.46654 0.07048 0.99038 0.0
C254 C 0.50383 0.11308 1.01568 0.0
C255 C 0.4892 0.12963 0.0391 0.0
C256 C 0.43698 0.10418 0.03769 0.0
C257 C 0.39947 0.06171 1.01253 0.0
C258 C 0.4141 0.0451 0.98895 0.0
C259 C 0.5102 0.93451 0.9452 0.0
O260 O 0.63834 0.01805 0.99787 0.0
O261 O 0.59268 0.05475 0.96175 0.0
O262 O 0.66785 0.97228 0.0927 0.0
O263 O 0.59321 0.90273 0.07208 0.0
O264 O 0.64889 0.04356 0.09107 0.0
O265 O 0.57037 0.01211 0.06484 0.0
O266 O 0.47738 0.94662 0.03983 0.0
O267 O 0.53417 0.92344 0.08739 0.0
O268 O 0.45485 0.00458 0.96214 0.0
O269 O 0.53228 0.07349 0.97474 0.0
O270 O 0.48395 0.95482 0.92993 0.0
O271 O 0.54121 0.95107 0.98466 0.0
H272 H 0.62021 0.83373 0.08436 0.0
H273 H 0.6494 0.81016 0.04161 0.0
H274 H 0.74576 0.96399 0.99609 0.0
H275 H 0.71584 0.98773 0.03793 0.0
H276 H 0.54445 0.1339 1.01735 0.0
H277 H 0.51866 0.16259 0.05819 0.0
H278 H 0.35893 0.04172 1.01086 0.0
H279 H 0.38436 0.01245 0.96952 0.0
Ho280 Ho 0.28556 0.21864 0.23897 0.0
Ho281 Ho 0.34444 0.28262 0.29506 0.0
C282 C 0.37879 0.19361 0.33007 0.0
C283 C 0.25738 0.16324 0.17721 0.0
C284 C 0.29001 0.15967 0.15953 0.0
C285 C 0.29226 0.17664 0.11405 0.0
C286 C 0.32495 0.1763 0.0974 0.0
C287 C 0.35873 0.16098 0.12608 0.0
C288 C 0.35252 0.14004 0.17083 0.0
C289 C 0.32014 0.14082 0.18764 0.0
C290 C 0.23662 0.18733 0.30662 0.0
C291 C 0.24811 0.30589 0.20417 0.0
C292 C 0.37462 0.33997 0.35575 0.0
C293 C 0.34217 0.34154 0.37528 0.0
C294 C 0.30666 0.29863 0.39715 0.0
C295 C 0.27428 0.29984 0.41336 0.0
C296 C 0.27704 0.34404 0.40859 0.0
C297 C 0.31128 0.38636 0.38543 0.0
C298 C 0.34341 0.3851 0.36883 0.0
C299 C 0.39754 0.31098 0.23195 0.0
O300 O 0.34207 0.18387 0.28682 0.0
O301 O 0.38588 0.23435 0.34193 0.0
O302 O 0.25649 0.1469 0.21976 0.0
O303 O 0.26126 0.20535 0.16708 0.0
O304 O 0.21394 0.18571 0.26242 0.0
O305 O 0.28378 0.2057 0.31209 0.0
O306 O 0.28641 0.31656 0.24682 0.0
O307 O 0.24089 0.26462 0.19311 0.0
O308 O 0.37039 0.35412 0.31219 0.0
O309 O 0.37501 0.30002 0.36643 0.0
O310 O 0.41766 0.31276 0.2763 0.0
O311 O 0.35024 0.29479 0.22374 0.0
H312 H 0.26836 0.19011 0.09112 0.0
H313 H 0.32142 0.18643 0.06114 0.0
H314 H 0.37051 0.12082 0.19312 0.0
H315 H 0.31773 0.12526 0.22242 0.0
H316 H 0.3035 0.2639 0.40152 0.0
H317 H 0.24767 0.26645 0.43041 0.0
H318 H 0.31317 0.42048 0.38022 0.0
H319 H 0.36936 0.41825 0.35102 0.0
Ho320 Ho 0.61609 0.50459 0.0464 0.0
Ho321 Ho 0.52438 0.51263 0.99909 0.0
C322 C 0.51758 0.4388 0.09271 0.0
C323 C 0.7062 0.52373 0.09786 0.0
C324 C 0.73582 0.52444 0.14602 0.0
C325 C 0.71733 0.51896 0.18141 0.0
C326 C 0.73754 0.50473 0.22624 0.0
C327 C 0.7731 0.49203 0.23459 0.0
C328 C 0.79968 0.50945 0.20119 0.0
C329 C 0.78018 0.52451 0.15672 0.0
C330 C 0.54656 0.4448 0.97612 0.0
C331 C 0.61619 0.56814 0.94672 0.0
C332 C 0.43847 0.50445 0.95076 0.0
C333 C 0.39875 0.48816 0.9067 0.0
C334 C 0.34838 0.44729 0.90703 0.0
C335 C 0.30667 0.43989 0.86851 0.0
C336 C 0.31499 0.47405 0.82974 0.0
C337 C 0.36652 0.50878 0.82678 0.0
C338 C 0.40814 0.51648 0.86542 0.0
C339 C 0.59348 0.57063 0.07023 0.0
O340 O 0.56731 0.4563 0.09893 0.0
O341 O 0.49197 0.45208 0.05427 0.0
O342 O 0.66748 0.47968 0.08286 0.0
O343 O 0.69475 0.55699 0.08334 0.0
O344 O 0.59602 0.46366 0.9885 0.0
O345 O 0.53603 0.45409 1.00472 0.0
O346 O 0.56817 0.55309 0.94302 0.0
O347 O 0.64349 0.55617 0.98476 0.0
O348 O 0.48393 0.54599 0.951 0.0
O349 O 0.44122 0.46922 0.97966 0.0
O350 O 0.54487 0.55382 0.05706 0.0
O351 O 0.60363 0.56227 0.04083 0.0
H352 H 0.68443 0.52117 0.17372 0.0
H353 H 0.71976 0.49687 0.25218 0.0
H354 H 0.83016 0.50431 0.2066 0.0
H355 H 0.7964 0.53109 0.12981 0.0
H356 H 0.34061 0.42401 0.93847 0.0
H357 H 0.26811 0.41143 0.87174 0.0
H358 H 0.37528 0.53518 0.79719 0.0
H359 H 0.44702 0.54723 0.86394 0.0
Ho360 Ho 0.67996 0.21048 0.30391 0.0
Ho361 Ho 0.75742 0.23941 0.2504 0.0
C362 C 0.7231 0.3114 0.23431 0.0
C363 C 0.63144 0.21982 0.34626 0.0
C364 C 0.62324 0.25486 0.35944 0.0
C365 C 0.66362 0.2957 0.38687 0.0
C366 C 0.65409 0.32421 0.40256 0.0
C367 C 0.60335 0.31256 0.39357 0.0
C368 C 0.56318 0.27256 0.36486 0.0
C369 C 0.57283 0.24455 0.3485 0.0
C370 C 0.64035 0.15495 0.2297 0.0
C371 C 0.73656 0.15322 0.33542 0.0
C372 C 0.80072 0.23606 0.20006 0.0
C373 C 0.81281 0.20461 0.18954 0.0
C374 C 0.78231 0.17768 0.14969 0.0
C375 C 0.79818 0.15469 0.13551 0.0
C376 C 0.84516 0.1585 0.16065 0.0
C377 C 0.8746 0.18358 0.20138 0.0
C378 C 0.85873 0.20644 0.21562 0.0
C379 C 0.80229 0.29698 0.32142 0.0
O380 O 0.70252 0.28502 0.26852 0.0
O381 O 0.74112 0.29772 0.21501 0.0
O382 O 0.61252 0.2077 0.30361 0.0
O383 O 0.67502 0.22218 0.36625 0.0
O384 O 0.62438 0.13789 0.26667 0.0
O385 O 0.67357 0.20126 0.23368 0.0
O386 O 0.74879 0.1715 0.29596 0.0
O387 O 0.71189 0.16455 0.34907 0.0
O388 O 0.82575 0.25495 0.24032 0.0
O389 O 0.75234 0.22272 0.18619 0.0
O390 O 0.81774 0.31054 0.28491 0.0
O391 O 0.76634 0.25067 0.3208 0.0
H392 H 0.70295 0.30532 0.3972 0.0
H393 H 0.687 0.35527 0.42278 0.0
H394 H 0.52357 0.26208 0.35565 0.0
H395 H 0.54011 0.21358 0.32794 0.0
H396 H 0.74717 0.176 0.12841 0.0
H397 H 0.77484 0.13557 0.10395 0.0
H398 H 0.91096 0.18704 0.22128 0.0
H399 H 0.8836 0.22721 0.24617 0.0
Ho400 Ho 0.06653 0.46288 0.52934 0.0
Ho401 Ho 1.02956 0.5305 0.49623 0.0
C402 C 0.10429 0.54657 0.44529 0.0
C403 C 0.08592 0.39585 0.54294 0.0
C404 C 0.10859 0.38036 0.52484 0.0
C405 C 0.08336 0.35906 0.4822 0.0
C406 C 0.10687 0.3466 0.4652 0.0
C407 C 0.15632 0.35583 0.49022 0.0
C408 C 0.17884 0.37252 0.5348 0.0
C409 C 0.15548 0.38504 0.55174 0.0
C410 C 0.12523 0.54474 0.57825 0.0
C411 C 0.99104 0.44554 0.5802 0.0
C412 C 1.01346 0.59977 0.48305 0.0
C413 C 0.99182 0.6174 0.49939 0.0
C414 C 0.97078 0.59269 0.5368 0.0
C415 C 0.94805 0.60916 0.54989 0.0
C416 C 0.94631 0.65042 0.52575 0.0
C417 C 0.96995 0.67666 0.49 0.0
C418 C 0.9921 0.65987 0.47661 0.0
C419 C 0.97193 0.45009 0.44549 0.0
O420 O 0.09731 0.50352 0.46637 0.0
O421 O 0.08622 0.56729 0.45505 0.0
O422 O 0.11799 0.43754 0.5633 0.0
O423 O 1.04175 0.39029 0.51738 0.0
O424 O 0.11374 0.50068 0.59632 0.0
O425 O 0.10632 0.54337 0.53499 0.0
O426 O 0.99601 0.48761 0.55781 0.0
O427 O 1.01125 0.42629 0.57163 0.0
O428 O 0.98057 0.55864 0.46183 0.0
O429 O 1.05546 0.60242 0.51115 0.0
O430 O 0.98344 0.49448 0.42854 0.0
O431 O 0.98988 0.4503 0.48902 0.0
H432 H 1.04595 0.35269 0.46164 0.0
H433 H 0.08755 0.33184 0.43154 0.0
H434 H 0.21528 0.37711 0.55634 0.0
H435 H 0.17459 0.39918 0.58568 0.0
H436 H 0.97079 0.56014 0.55501 0.0
H437 H 0.93047 0.58891 0.57795 0.0
H438 H 0.96953 0.70895 0.4715 0.0
H439 H 1.00881 0.67964 0.44798 0.0
Ho440 Ho 0.83519 0.70841 0.29178 0.0
Ho441 Ho 0.80776 0.7818 0.26852 0.0
C442 C 0.88721 0.79896 0.21716 0.0
C443 C 0.84833 0.6374 0.3077 0.0
C444 C 0.88771 0.63777 0.29856 0.0
C445 C 0.8803 0.5929 0.2968 0.0
C446 C 0.9123 0.59298 0.27908 0.0
C447 C 0.95168 0.63773 0.26326 0.0
C448 C 0.9614 0.68302 0.26777 0.0
C449 C 0.92945 0.68303 0.28553 0.0
C450 C 0.90028 0.78644 0.34327 0.0
C451 C 0.75119 0.68805 0.3389 0.0
C452 C 0.8178 0.86393 0.26641 0.0
C453 C 0.81065 0.8798 0.29947 0.0
C454 C 0.81159 0.92332 0.29009 0.0
C455 C 0.79475 0.93275 0.31764 0.0
C456 C 0.77558 0.89786 0.35368 0.0
C457 C 0.77858 0.85637 0.36507 0.0
C458 C 0.79712 0.848 0.33857 0.0
C459 C 0.7404 0.70574 0.21452 0.0
O460 O 0.87963 0.75549 0.23757 0.0
O461 O 0.86353 0.81596 0.22408 0.0
O462 O 0.86599 0.66642 0.33922 0.0
O463 O 0.81531 0.64176 0.27057 0.0
O464 O 0.91597 0.76867 0.32702 0.0
O465 O 0.85167 0.76232 0.33164 0.0
O466 O 0.76434 0.73425 0.32327 0.0
O467 O 0.76982 0.66863 0.32711 0.0
O468 O 0.77522 0.8259 0.24399 0.0
O469 O 0.85699 0.85919 0.28252 0.0
O470 O 0.72738 0.72902 0.22685 0.0
O471 O 0.78904 0.72665 0.22798 0.0
H472 H 0.84831 0.55795 0.30686 0.0
H473 H 0.90489 0.55822 0.27507 0.0
H474 H 0.99167 0.7178 0.2554 0.0
H475 H 0.9357 0.71809 0.28694 0.0
H476 H 0.82246 0.94833 0.26021 0.0
H477 H 0.79242 0.96491 0.30841 0.0
H478 H 0.76374 0.82906 0.39257 0.0
H479 H 0.79781 0.81507 0.3469 0.0
Ho480 Ho 0.85678 0.23025 0.79971 0.0
Ho481 Ho 0.77153 0.245 0.74623 0.0
C482 C 0.74687 0.16759 0.82979 0.0
C483 C 0.91963 0.20932 0.86144 0.0
C484 C 0.90694 0.15876 0.87449 0.0
C485 C 0.94359 0.1494 0.90635 0.0
C486 C 0.93241 0.10136 0.91334 0.0
C487 C 0.88478 0.06277 0.88827 0.0
C488 C 0.84736 0.07177 0.85771 0.0
C489 C 0.85846 0.11967 0.85087 0.0
C490 C 0.78972 0.17328 0.7264 0.0
C491 C 0.87888 0.31184 0.71696 0.0
C492 C 0.71233 0.25885 0.67386 0.0
C493 C 0.73247 0.28815 0.63403 0.0
C494 C 0.71801 0.26465 0.59542 0.0
C495 C 0.73926 0.29286 0.55863 0.0
C496 C 0.77178 0.34491 0.55913 0.0
C497 C 0.79501 0.36602 0.60157 0.0
C498 C 0.77395 0.33841 0.63803 0.0
C499 C 0.83442 0.29622 0.82256 0.0
O500 O 0.79642 0.18279 0.84075 0.0
O501 O 0.72442 0.18175 0.78989 0.0
O502 O 0.92182 0.2241 0.81889 0.0
O503 O 0.89236 0.21885 0.87191 0.0
O504 O 0.83911 0.19305 0.73969 0.0
O505 O 0.77928 0.18347 0.75427 0.0
O506 O 0.82788 0.2877 0.70304 0.0
O507 O 0.90248 0.30208 0.75922 0.0
O508 O 0.73286 0.28329 0.71034 0.0
O509 O 0.70831 0.21646 0.68398 0.0
O510 O 0.78553 0.27972 0.80598 0.0
O511 O 0.84917 0.29097 0.79468 0.0
H512 H 0.98114 0.17928 0.92453 0.0
H513 H 0.9615 0.09449 0.93722 0.0
H514 H 0.81056 0.04226 0.83828 0.0
H515 H 0.83004 0.12675 0.82572 0.0
H516 H 0.68919 0.22501 0.59305 0.0
H517 H 0.72391 0.27517 0.52726 0.0
H518 H 0.8228 0.40579 0.60417 0.0
H519 H 0.78945 0.35711 0.66878 0.0
Ho520 Ho 0.77873 0.71741 0.7368 0.0
Ho521 Ho 0.83836 0.77948 0.79261 0.0
C522 C 0.87318 0.69061 0.82515 0.0
C523 C 0.739 0.65821 0.67322 0.0
C524 C 0.76292 0.65546 0.64433 0.0
C525 C 0.75772 0.67531 0.59814 0.0
C526 C 0.78776 0.68132 0.57324 0.0
C527 C 0.82217 0.66592 0.59351 0.0
C528 C 0.82403 0.64232 0.6383 0.0
C529 C 0.79523 0.6376 0.66362 0.0
C530 C 0.72827 0.68906 0.80261 0.0
C531 C 0.74395 0.80581 0.705 0.0
C532 C 0.87213 0.83722 0.85484 0.0
C533 C 0.84326 0.8412 0.87718 0.0
C534 C 0.84326 0.82218 0.92279 0.0
C535 C 0.81275 0.82138 0.94328 0.0
C536 C 0.77938 0.83811 0.91868 0.0
C537 C 0.785 0.86281 0.87462 0.0
C538 C 0.81485 0.86283 0.85363 0.0
C539 C 0.89002 0.81095 0.727 0.0
O540 O 0.8353 0.6813 0.78229 0.0
O541 O 0.8807 0.73138 0.83753 0.0
O542 O 0.75207 0.64673 0.71723 0.0
O543 O 0.73865 0.6979 0.66556 0.0
O544 O 0.70744 0.68868 0.75844 0.0
O545 O 0.77469 0.70384 0.80946 0.0
O546 O 0.7815 0.81484 0.74781 0.0
O547 O 0.73701 0.76582 0.69195 0.0
O548 O 0.8674 0.8515 0.81123 0.0
O549 O 0.86962 0.79579 0.86444 0.0
O550 O 0.90998 0.80889 0.77139 0.0
O551 O 0.84262 0.79402 0.71975 0.0
H552 H 0.73278 0.68901 0.58219 0.0
H553 H 0.7857 0.69995 0.53898 0.0
H554 H 0.84921 0.6289 0.65434 0.0
H555 H 0.79959 0.62128 0.69878 0.0
H556 H 0.86699 0.80769 0.94288 0.0
H557 H 0.81786 0.80898 0.97915 0.0
H558 H 0.76762 0.88357 0.85611 0.0
H559 H 0.81622 0.88053 0.81917 0.0
Ho560 Ho 0.61104 0.50535 0.55563 0.0
Ho561 Ho 0.52105 0.4724 0.49947 0.0
C562 C 0.57139 0.42553 0.48311 0.0
C563 C 0.69744 0.51819 0.61076 0.0
C564 C 0.736 0.5227 0.5955 0.0
C565 C 0.76298 0.50048 0.62238 0.0
C566 C 0.78191 0.4866 0.60103 0.0
C567 C 0.77362 0.49485 0.55286 0.0
C568 C 0.75508 0.52474 0.52792 0.0
C569 C 0.73478 0.53718 0.54881 0.0
C570 C 0.62395 0.56666 0.47393 0.0
C571 C 0.5574 0.54965 0.57179 0.0
C572 C 0.43621 0.46313 0.44605 0.0
C573 C 0.4034 0.46861 0.46052 0.0
C574 C 0.38848 0.50109 0.43417 0.0
C575 C 0.37215 0.51915 0.45367 0.0
C576 C 0.37119 0.5054 0.49988 0.0
C577 C 0.38169 0.46966 0.52502 0.0
C578 C 0.39774 0.45128 0.50545 0.0
C579 C 0.50714 0.41203 0.58037 0.0
O580 O 0.60318 0.44541 0.52347 0.0
O581 O 0.53471 0.43431 0.46248 0.0
O582 O 0.69029 0.55428 0.59525 0.0
O583 O 0.65354 0.47451 0.60555 0.0
O584 O 0.64429 0.58093 0.51535 0.0
O585 O 0.59451 0.51942 0.47816 0.0
O586 O 0.52739 0.53156 0.53072 0.0
O587 O 0.59328 0.53977 0.5931 0.0
O588 O 0.43911 0.42479 0.465 0.0
O589 O 0.48166 0.50418 0.44607 0.0
O590 O 0.49215 0.39722 0.54023 0.0
O591 O 0.53693 0.45928 0.57651 0.0
H592 H 0.76378 0.48847 0.65829 0.0
H593 H 0.79605 0.46322 0.62079 0.0
H594 H 0.74925 0.532 0.49103 0.0
H595 H 0.71261 0.55282 0.52712 0.0
H596 H 0.39323 0.51536 0.39981 0.0
H597 H 0.3642 0.54684 0.43387 0.0
H598 H 0.38044 0.45837 0.56049 0.0
H599 H 0.40975 0.42677 0.52685 0.0
Ho600 Ho 1.03586 0.4821 0.04464 0.0
Ho601 Ho 0.08072 0.50935 0.97742 0.0
C602 C 1.0012 0.56047 0.95371 0.0
C603 C 1.02487 0.47507 0.12334 0.0
C604 C 1.02532 0.50881 0.14394 0.0
C605 C 1.04285 0.55759 0.12413 0.0
C606 C 1.04016 0.589 0.1418 0.0
C607 C 1.01964 0.57158 0.17916 0.0
C608 C 1.00401 0.52354 0.20005 0.0
C609 C 1.00682 0.49217 0.18243 0.0
C610 C 0.97216 0.41748 0.97877 0.0
C611 C 0.1174 0.43308 0.07034 0.0
C612 C 0.09291 0.52083 0.89777 0.0
C613 C 0.09379 0.49385 0.86961 0.0
C614 C 0.07213 0.49631 0.82166 0.0
C615 C 0.07279 0.47143 0.79382 0.0
C616 C 0.09569 0.44441 0.81345 0.0
C617 C 0.11549 0.44025 0.86162 0.0
C618 C 0.11463 0.4649 0.88964 0.0
C619 C 0.14118 0.57496 0.04223 0.0
O620 O 1.0004 0.53621 0.99788 0.0
O621 O 1.03122 0.55323 0.93974 0.0
O622 O 0.98555 0.45414 0.08721 0.0
O623 O 0.06925 0.49258 0.11744 0.0
O624 O 0.95646 0.43159 0.99924 0.0
O625 O 1.02004 0.43522 0.99632 0.0
O626 O 0.1177 0.45655 0.02575 0.0
O627 O 0.08705 0.44019 0.08379 0.0
O628 O 0.13164 0.53885 0.93504 0.0
O629 O 1.04798 0.50012 0.90426 0.0
O630 O 0.15911 0.56142 0.02376 0.0
O631 O 0.09342 0.55563 0.02348 0.0
H632 H 1.0574 0.57087 0.09437 0.0
H633 H 1.05221 0.62602 0.12544 0.0
H634 H 0.98805 0.50985 0.22895 0.0
H635 H 0.99342 0.45469 0.19805 0.0
H636 H 1.05513 0.51786 0.80575 0.0
H637 H 1.05714 0.47443 0.75687 0.0
H638 H 0.13225 0.4185 0.87741 0.0
H639 H 0.13049 0.46167 0.92672 0.0
C640 C 0.22476 0.18247 0.91121 0.0
C641 C 0.21285 0.16101 0.87186 0.0
C642 C 0.13879 0.08253 0.89794 0.0
C643 C 0.15472 0.10216 0.94077 0.0
N644 N 0.2269 0.1691 0.99099 0.0
N645 N 0.16125 0.08727 0.83097 0.0
C646 C 0.20137 0.15173 0.94796 0.0
C647 C 0.17082 0.11002 0.86645 0.0
N648 N 0.2598 0.23262 0.9145 0.0
N649 N 0.09244 0.03832 0.88578 0.0
H650 H 0.18061 0.1066 0.80557 0.0
H651 H 0.13662 0.04891 0.82837 0.0
H652 H 0.06796 0.01543 0.90664 0.0
H653 H 0.07593 0.02577 0.85289 0.0
H654 H 0.26521 0.25157 0.93921 0.0
H655 H 0.27983 0.25604 0.89006 0.0
H656 H 0.26239 0.20315 0.99841 0.0
H657 H 0.2181 0.1473 1.02087 0.0
C658 C 0.25028 0.04681 0.098 0.0
C659 C 0.21542 0.04159 0.1172 0.0
C660 C 0.25203 0.01022 0.19061 0.0
C661 C 0.27145 -0.00028 0.16617 0.0
N662 N 0.30644 0.02124 0.10417 0.0
N663 N 0.19743 0.03655 0.18636 0.0
C664 C 0.27815 0.02442 0.12281 0.0
C665 C 0.22183 0.03035 0.16549 0.0
N666 N 0.2536 0.07031 0.05517 0.0
N667 N 0.26022 -0.00227 0.23693 0.0
H668 H 0.18078 0.05688 0.17026 0.0
H669 H 0.19596 0.02408 0.22027 0.0
H670 H 0.28218 0.98246 0.25434 0.0
H671 H 0.24865 0.00513 0.25818 0.0
H672 H 0.2792 0.07702 0.03929 0.0
H673 H 0.23239 0.08608 0.03684 0.0
H674 H 0.30991 0.03464 0.07085 0.0
H675 H 0.32698 0.00482 0.12328 0.0
C676 C 0.45956 0.86304 0.42652 0.0
C677 C 0.44571 0.88488 0.44539 0.0
C678 C 0.37116 0.86713 0.37717 0.0
C679 C 0.38259 0.84191 0.35943 0.0
N680 N 0.451 0.83761 0.35761 0.0
N681 N 0.3838 0.90025 0.44333 0.0
C682 C 0.43045 0.84557 0.38139 0.0
C683 C 0.4002 0.88481 0.42198 0.0
N684 N 0.50015 0.85832 0.4521 0.0
N685 N 0.33625 0.87897 0.34918 0.0
H686 H 0.40374 0.91264 0.47656 0.0
H687 H 0.34789 0.89597 0.43022 0.0
H688 H 0.31976 0.8731 0.3141 0.0
H689 H 0.32949 0.90109 0.35861 0.0
H690 H 0.50876 0.83783 0.44251 0.0
H691 H 0.52246 0.87131 0.48499 0.0
H692 H 0.48761 0.84343 0.37062 0.0
H693 H 0.4351 0.83223 0.32254 0.0
C694 C 0.49864 0.08873 0.8 0.0
C695 C 0.48342 0.12161 0.7748 0.0
C696 C 0.50419 0.12198 0.70859 0.0
C697 C 0.50559 0.07945 0.72957 0.0
N698 N 0.49991 0.01981 0.79589 0.0
N699 N 0.4701 0.16946 0.70361 0.0
C700 C 0.50305 0.06279 0.77592 0.0
C701 C 0.48675 0.13919 0.7289 0.0
N702 N 0.5072 0.08121 0.84678 0.0
N703 N 0.51939 0.14568 0.66934 0.0
H704 H 0.45713 0.18312 0.7171 0.0
H705 H 0.46597 0.17834 0.66832 0.0
H706 H 0.53373 0.13451 0.65454 0.0
H707 H 0.52301 0.17919 0.65462 0.0
H708 H 0.52262 0.06061 0.86752 0.0
H709 H 0.50393 0.10002 0.86502 0.0
H710 H 0.48912 0.00244 0.82628 0.0
H711 H 0.50294 -0.00108 0.78034 0.0
C712 C 0.36112 0.92525 0.68334 0.0
C713 C 0.32393 0.91115 0.6396 0.0
C714 C 0.35606 0.86522 0.63168 0.0
C715 C 0.38484 0.87043 0.67898 0.0
N716 N 0.4237 0.91353 0.74708 0.0
N717 N 0.28694 0.87003 0.57038 0.0
C718 C 0.39112 0.90427 0.70328 0.0
C719 C 0.32229 0.88246 0.61289 0.0
N720 N 0.36786 0.95897 0.7057 0.0
N721 N 0.36178 0.84487 0.60468 0.0
H722 H 0.26315 0.88348 0.55523 0.0
H723 H 0.27926 0.84455 0.5512 0.0
H724 H 0.3894 0.83614 0.61671 0.0
H725 H 0.34445 0.84273 0.56922 0.0
H726 H 0.39692 0.97389 0.73608 0.0
H727 H 0.34645 0.97496 0.6922 0.0
H728 H 0.4207 0.92638 0.77121 0.0
H729 H 0.45153 0.90485 0.75985 0.0
C730 C 0.46483 0.81566 0.89462 0.0
C731 C 0.48282 0.83614 0.85425 0.0
C732 C 0.52695 0.92057 0.87949 0.0
C733 C 0.50517 0.90029 0.91726 0.0
N734 N 0.4493 0.82729 0.95826 0.0
N735 N 0.55356 0.90867 0.82558 0.0
C736 C 0.47346 0.84744 0.9243 0.0
C737 C 0.52036 0.88881 0.85157 0.0
N738 N 0.4434 0.76607 0.90714 0.0
N739 N 0.55321 0.97077 0.86915 0.0
H740 H 0.55641 0.88714 0.81061 0.0
H741 H 0.58453 0.9458 0.82528 0.0
H742 H 0.55908 0.99524 0.88828 0.0
H743 H 0.56644 0.98805 0.83997 0.0
H744 H 0.43374 0.74912 0.93799 0.0
H745 H 0.44112 0.74274 0.88949 0.0
H746 H 0.42009 0.78983 0.9617 0.0
H747 H 0.45607 0.84891 0.98127 0.0
C748 C 0.43207 0.11594 0.11048 0.0
C749 C 0.42213 0.12346 0.06173 0.0
C750 C 0.39672 0.17808 0.06111 0.0
C751 C 0.3939 0.16031 0.10715 0.0
N752 N 0.45 0.14955 0.17845 0.0
N753 N 0.39511 0.16302 0.98999 0.0
C754 C 0.42313 0.13935 0.1334 0.0
C755 C 0.40456 0.155 0.03681 0.0
N756 N 0.44909 0.08578 0.13496 0.0
N757 N 0.40117 0.22211 0.04361 0.0
H758 H 0.4022 0.14848 0.97083 0.0
H759 H 0.37682 0.18136 0.97016 0.0
H760 H 0.40523 0.24439 0.06413 0.0
H761 H 0.40814 0.23934 1.01174 0.0
H762 H 0.45182 0.07532 0.16996 0.0
H763 H 0.45644 0.06819 0.11954 0.0
H764 H 0.47568 0.13896 0.19833 0.0
H765 H 0.45244 0.17516 0.19328 0.0
C766 C 0.16362 0.14049 0.39912 0.0
C767 C 0.16097 0.09542 0.41919 0.0
C768 C 0.20938 0.11136 0.3664 0.0
C769 C 0.20866 0.15439 0.34419 0.0
N770 N 0.17881 0.20602 0.33635 0.0
N771 N 0.1745 0.03433 0.41506 0.0
C772 C 0.18361 0.16748 0.35962 0.0
C773 C 0.18249 0.08025 0.40117 0.0
N774 N 0.14942 0.15914 0.4194 0.0
N775 N 0.23569 0.09964 0.35416 0.0
H776 H 0.15511 0.01034 0.43966 0.0
H777 H 0.1829 0.01798 0.39942 0.0
H778 H 0.25086 0.11735 0.32604 0.0
H779 H 0.2448 0.07394 0.37326 0.0
H780 H 0.15452 0.19377 0.40979 0.0
H781 H 0.13682 0.14202 0.44898 0.0
H782 H 0.15636 0.21459 0.34195 0.0
H783 H 0.19448 0.22753 0.30889 0.0
C784 C 0.86496 0.09599 0.16417 0.0
C785 C 0.86586 0.13968 0.14282 0.0
C786 C 0.90966 0.14983 0.08983 0.0
C787 C 0.91452 0.10993 0.11487 0.0
N788 N 0.89919 0.04597 0.1772 0.0
N789 N 0.8938 0.21147 0.0884 0.0
C790 C 0.8925 0.08304 0.15228 0.0
C791 C 0.88902 0.16721 0.10612 0.0
N792 N 0.83686 0.0664 0.19517 0.0
N793 N 0.92457 0.171 0.05018 0.0
H794 H 0.8791 0.22553 0.09902 0.0
H795 H 0.91586 0.2363 0.06576 0.0
H796 H 0.94106 0.1602 0.03783 0.0
H797 H 0.91659 0.19621 0.02743 0.0
H798 H 0.8302 0.03158 0.20878 0.0
H799 H 0.81651 0.07496 0.20461 0.0
H800 H 0.88965 0.02868 0.20807 0.0
H801 H 0.91707 0.03417 0.16821 0.0
C802 C 0.18651 0.62194 0.42787 0.0
C803 C 0.13852 0.57622 0.41378 0.0
C804 C 0.15485 0.59173 0.33908 0.0
C805 C 0.19954 0.64013 0.35117 0.0
N806 N 0.25407 0.70373 0.40561 0.0
N807 N 0.07358 0.52008 0.35377 0.0
C808 C 0.21455 0.6557 0.39533 0.0
C809 C 0.12183 0.56164 0.36881 0.0
N810 N 0.20598 0.63283 0.47291 0.0
N811 N 0.14496 0.57371 0.30003 0.0
H812 H 1.04885 0.497 0.37472 0.0
H813 H 1.0566 0.51061 0.31965 0.0
H814 H 0.16847 0.59431 0.27784 0.0
H815 H 0.11605 0.53708 0.29158 0.0
H816 H 0.2437 0.66212 0.48694 0.0
H817 H 0.18597 0.60991 0.49739 0.0
H818 H 0.26267 0.71894 0.43484 0.0
H819 H 0.27557 0.73006 0.38309 0.0
C820 C 0.67185 0.8956 0.66316 0.0
C821 C 0.64903 0.90149 0.61179 0.0
C822 C 0.68993 0.84677 0.62113 0.0
C823 C 0.7107 0.83901 0.67262 0.0
N824 N 0.70653 0.85823 0.73757 0.0
N825 N 0.63751 0.86812 0.54735 0.0
C826 C 0.69714 0.86489 0.69082 0.0
C827 C 0.65959 0.87291 0.59366 0.0
N828 N 0.6718 0.92266 0.68784 0.0
N829 N 0.70125 0.82993 0.59599 0.0
H830 H 0.61846 0.88569 0.52709 0.0
H831 H 0.63369 0.84367 0.52988 0.0
H832 H 0.72 0.81138 0.61172 0.0
H833 H 0.69642 0.83779 0.56064 0.0
H834 H 0.69243 0.92906 0.72242 0.0
H835 H 0.65481 0.94283 0.67202 0.0
H836 H 0.69295 0.86699 0.75559 0.0
H837 H 0.72381 0.83908 0.75789 0.0
C838 C 0.47618 0.41599 0.90125 0.0
C839 C 0.50739 0.40599 0.94238 0.0
C840 C 0.46665 0.32432 0.91634 0.0
C841 C 0.44122 0.33783 0.87262 0.0
N842 N 0.42844 0.40004 0.82112 0.0
N843 N 0.53418 0.35108 0.9891 0.0
C844 C 0.44792 0.38468 0.86443 0.0
C845 C 0.50348 0.36039 0.94977 0.0
N846 N 0.47191 0.45446 0.89778 0.0
N847 N 0.45349 0.27637 0.92702 0.0
H848 H 0.55765 0.37407 1.01647 0.0
H849 H 0.53819 0.32171 0.99377 0.0
H850 H 0.42492 0.24817 0.90461 0.0
H851 H 0.46716 0.26319 0.95968 0.0
H852 H 0.44665 0.46126 0.86993 0.0
H853 H 0.48853 0.47537 0.92544 0.0
H854 H 0.43763 0.43625 0.81177 0.0
H855 H 0.40689 0.37794 0.79334 0.0
C856 C 0.93536 0.81229 0.42322 0.0
C857 C 0.93462 0.82531 0.3761 0.0
C858 C 1.00214 0.9124 0.39196 0.0
C859 C 1.00529 0.89898 0.43949 0.0
N860 N 0.98222 0.83558 0.50209 0.0
N861 N 0.96777 0.88607 0.31509 0.0
C862 C 0.97351 0.84883 0.45568 0.0
C863 C 0.96812 0.87493 0.36036 0.0
N864 N 0.90003 0.76493 0.43702 0.0
N865 N 1.03106 0.96125 0.37692 0.0
H866 H 0.94001 0.8606 0.29022 0.0
H867 H 0.99582 0.91956 0.30224 0.0
H868 H 1.05922 0.98931 0.39926 0.0
H869 H 1.0257 0.97468 0.34245 0.0
H870 H 0.89403 0.755 0.46947 0.0
H871 H 0.874 0.73595 0.4151 0.0
H872 H 0.96441 0.79891 0.51604 0.0
H873 H 1.01062 0.86096 0.52716 0.0
C874 C 0.57496 0.6286 0.59423 0.0
C875 C 0.54695 0.57567 0.59583 0.0
C876 C 0.50163 0.57182 0.64565 0.0
C877 C 0.52419 0.6244 0.63867 0.0
N878 N 0.57852 0.70147 0.59909 0.0
N879 N 0.47999 0.49683 0.62161 0.0
C880 C 0.5604 0.65238 0.61152 0.0
C881 C 0.50924 0.5475 0.6211 0.0
N882 N 0.61623 0.65671 0.5763 0.0
N883 N 0.47513 0.54505 0.67806 0.0
H884 H 0.48473 0.47796 0.60504 0.0
H885 H 0.44846 0.47364 0.6352 0.0
H886 H 0.47102 0.56132 0.69819 0.0
H887 H 0.46226 0.50801 0.68876 0.0
H888 H 0.64248 0.69496 0.57897 0.0
H889 H 0.62686 0.64104 0.56231 0.0
H890 H 0.60013 0.72264 0.57549 0.0
H891 H 0.56742 0.71995 0.60828 0.0
C892 C 0.67915 0.0593 0.91456 0.0
C893 C 0.66406 0.07999 0.93424 0.0
C894 C 0.69802 0.15492 0.88195 0.0
C895 C 0.71696 0.13647 0.86471 0.0
N896 N 0.73124 0.07323 0.86933 0.0
N897 N 0.67766 0.15466 0.94745 0.0
C898 C 0.70988 0.08962 0.88302 0.0
C899 C 0.67888 0.12985 0.92102 0.0
N900 N 0.66173 0.01003 0.92327 0.0
N901 N 0.6975 0.19617 0.86123 0.0
H902 H 0.66795 0.13908 0.97847 0.0
H903 H 0.69293 0.19266 0.9419 0.0
H904 H 0.71062 0.21642 0.83259 0.0
H905 H 0.67871 0.20726 0.86972 0.0
H906 H 0.66678 0.99208 0.90594 0.0
H907 H 0.63712 0.98495 0.94376 0.0
H908 H 0.73439 0.0434 0.88627 0.0
H909 H 0.74837 0.09103 0.84242 0.0
C910 C 0.17199 0.39364 0.15691 0.0
C911 C 0.15142 0.40047 0.10507 0.0
C912 C 0.19279 0.34468 0.11812 0.0
C913 C 0.21385 0.33833 0.16992 0.0
N914 N 0.22349 0.37316 0.23234 0.0
N915 N 0.14266 0.36656 0.04254 0.0
C916 C 0.20252 0.36775 0.18606 0.0
C917 C 0.16331 0.37156 0.08889 0.0
N918 N 0.16055 0.41155 0.18084 0.0
N919 N 0.20407 0.32646 0.09433 0.0
H920 H 0.12394 0.38412 0.0212 0.0
H921 H 0.13946 0.34192 0.02588 0.0
H922 H 0.22223 0.30746 0.11117 0.0
H923 H 0.2003 0.3339 0.05912 0.0
H924 H 0.16417 0.40372 0.21603 0.0
H925 H 0.14285 0.43098 0.16419 0.0
H926 H 0.2269 0.39814 0.24874 0.0
H927 H 0.24179 0.35527 0.25384 0.0
C928 C 0.6477 0.57634 0.88041 0.0
C929 C 0.64077 0.59859 0.90681 0.0
C930 C 0.68604 0.67901 0.86109 0.0
C931 C 0.69737 0.65765 0.83811 0.0
N932 N 0.69285 0.58629 0.82979 0.0
N933 N 0.65629 0.6726 0.92367 0.0
C934 C 0.67919 0.60638 0.84897 0.0
C935 C 0.66054 0.65036 0.8972 0.0
N936 N 0.62193 0.52574 0.88373 0.0
N937 N 0.69936 0.72686 0.84799 0.0
H938 H 0.6374 0.6529 0.94941 0.0
H939 H 0.6735 0.71072 0.92199 0.0
H940 H 0.71914 0.749 0.82309 0.0
H941 H 0.68815 0.74378 0.85935 0.0
H942 H 0.6204 0.50618 0.86235 0.0
H943 H 0.59739 0.50281 0.90478 0.0
H944 H 0.68675 0.55129 0.84026 0.0
H945 H 0.71373 0.60604 0.8055 0.0
C946 C 0.79074 0.40001 0.24709 0.0
C947 C 0.7373 0.3628 0.22924 0.0
C948 C 0.71499 0.40538 0.25721 0.0
C949 C 0.76684 0.44668 0.2653 0.0
N950 N 0.8521 0.46403 0.30178 0.0
N951 N 0.64764 0.33344 0.21292 0.0
C952 C 0.80417 0.437 0.27222 0.0
C953 C 0.69903 0.36712 0.2323 0.0
N954 N 0.8283 0.40127 0.23877 0.0
N955 N 0.68252 0.4017 0.27586 0.0
H956 H 0.63538 0.30513 0.19423 0.0
H957 H 0.61838 0.33662 0.21211 0.0
H958 H 0.69628 0.42786 0.29795 0.0
H959 H 0.64491 0.37038 0.27389 0.0
H960 H 0.8676 0.42947 0.24941 0.0
H961 H 0.81942 0.37779 0.21647 0.0
H962 H 0.88068 0.45708 0.31009 0.0
H963 H 0.86 0.48936 0.32143 0.0
C964 C 0.87509 0.39425 0.40848 0.0
C965 C 0.92585 0.40479 0.42032 0.0
C966 C 0.889 0.33166 0.38083 0.0
C967 C 0.83984 0.32528 0.36367 0.0
N968 N 0.78509 0.34949 0.36148 0.0
N969 N 0.98203 0.38754 0.4119 0.0
C970 C 0.83251 0.35597 0.37814 0.0
C971 C 0.93295 0.37413 0.40548 0.0
N972 N 0.86761 0.42084 0.42641 0.0
N973 N 0.89356 0.29682 0.37343 0.0
H974 H 1.01513 0.41831 0.4296 0.0
H975 H 0.98998 0.37087 0.3961 0.0
H976 H 0.86193 0.26527 0.35577 0.0
H977 H 0.92704 0.29656 0.38867 0.0
H978 H 0.83131 0.41298 0.42217 0.0
H979 H 0.89775 0.4491 0.44842 0.0
H980 H 0.77819 0.3747 0.36425 0.0
H981 H 0.75245 0.3187 0.34369 0.0
C982 C 0.68876 0.65106 0.43776 0.0
C983 C 0.64996 0.59884 0.43418 0.0
C984 C 0.67004 0.60834 0.36163 0.0
C985 C 0.71529 0.65751 0.37107 0.0
N986 N 0.77009 0.72281 0.42352 0.0
N987 N 0.59792 0.53066 0.38519 0.0
C988 C 0.72484 0.67813 0.41034 0.0
C989 C 0.6392 0.57835 0.39401 0.0
N990 N 0.68949 0.67614 0.46542 0.0
N991 N 0.65401 0.5915 0.31975 0.0
H992 H 0.56771 0.51171 0.4001 0.0
H993 H 0.59314 0.51007 0.36252 0.0
H994 H 0.67305 0.61329 0.29441 0.0
H995 H 0.61929 0.55833 0.30793 0.0
H996 H 0.71379 0.7147 0.4666 0.0
H997 H 0.66082 0.65965 0.48183 0.0
H998 H 0.78209 0.73704 0.45463 0.0
H999 H 0.79832 0.74322 0.40601 0.0
C1000 C 0.89253 0.37937 0.85552 0.0
C1001 C 0.86984 0.32751 0.86237 0.0
C1002 C 0.92058 0.33634 0.94382 0.0
C1003 C 0.93858 0.38709 0.93828 0.0
N1004 N 0.92994 0.45338 0.89092 0.0
N1005 N 0.84887 0.25565 0.9168 0.0
C1006 C 0.92134 0.40776 0.89467 0.0
C1007 C 0.88032 0.30553 0.90751 0.0
N1008 N 0.88605 0.40148 0.81191 0.0
N1009 N 0.94042 0.31704 0.98404 0.0
H1010 H 0.81412 0.23384 0.89286 0.0
H1011 H 0.85267 0.238 0.94983 0.0
H1012 H 0.96856 0.33807 1.01224 0.0
H1013 H 0.9319 0.28121 0.98765 0.0
H1014 H 0.90665 0.43997 0.80491 0.0
H1015 H 0.86307 0.38147 0.78246 0.0
H1016 H 0.91408 0.4682 0.8609 0.0
H1017 H 0.94769 0.47357 0.91941 0.0
C1018 C 0.89371 0.81531 0.13464 0.0
C1019 C 0.91821 0.8272 0.18138 0.0
C1020 C 0.99631 0.90124 0.15792 0.0
C1021 C 0.97382 0.88774 0.11102 0.0
N1022 N 0.89903 0.82501 0.05782 0.0
N1023 N 0.99933 0.87185 0.23859 0.0
C1024 C 0.92213 0.84271 0.10054 0.0
C1025 C 0.97131 0.86745 0.19322 0.0
N1026 N 0.84215 0.77797 0.12217 0.0
N1027 N 1.04096 0.94672 0.16955 0.0
H1028 H 0.98356 0.84532 0.26433 0.0
H1029 H 1.03937 0.89736 0.24975 0.0
H1030 H 1.05999 0.97401 0.14605 0.0
H1031 H 1.0558 0.95975 0.20199 0.0
H1032 H 0.82001 0.76967 0.08823 0.0
H1033 H 0.82043 0.75641 0.14573 0.0
H1034 H 0.86884 0.78804 0.05165 0.0
H1035 H 0.90947 0.84621 0.02825 0.0
C1036 C 0.89936 0.00752 0.86836 0.0
C1037 C 0.8766 0.01394 0.893 0.0
C1038 C 0.88193 0.95235 0.9532 0.0
C1039 C 0.91604 0.9557 0.93444 0.0
N1040 N 0.93453 0.96366 0.86503 0.0
N1041 N 0.82887 0.98119 0.94794 0.0
C1042 C 0.91639 0.97501 0.88839 0.0
C1043 C 0.86082 0.98134 0.93131 0.0
N1044 N 0.90823 0.03552 0.82805 0.0
N1045 N 0.87464 0.92541 0.99418 0.0
H1046 H 0.81346 0.00268 0.93148 0.0
H1047 H 0.81535 0.9583 0.9759 0.0
H1048 H 0.88981 0.90374 1.00971 0.0
H1049 H 0.85455 0.92463 1.01275 0.0
H1050 H 0.93005 0.03709 0.81087 0.0
H1051 H 0.89432 0.05831 0.81238 0.0
H1052 H 0.93361 0.97479 0.83046 0.0
H1053 H 0.94499 0.93814 0.87903 0.0
C1054 C 0.69753 0.12305 0.6777 0.0
C1055 C 0.75088 0.14501 0.68407 0.0
C1056 C 0.72773 0.12464 0.60518 0.0
C1057 C 0.67634 0.11056 0.59744 0.0
N1058 N 0.61493 0.10503 0.62365 0.0
N1059 N 0.81591 0.15991 0.6546 0.0
C1060 C 0.66233 0.11302 0.6328 0.0
C1061 C 0.76592 0.14407 0.64799 0.0
N1062 N 0.67944 0.10765 0.7151 0.0
N1063 N 0.73923 0.11658 0.5727 0.0
H1064 H 0.84208 0.16273 0.68694 0.0
H1065 H 0.83136 0.16932 0.62766 0.0
H1066 H 0.71324 0.10443 0.5404 0.0
H1067 H 0.7734 0.11936 0.5783 0.0
H1068 H 0.64069 0.09049 0.71241 0.0
H1069 H 0.7015 0.10513 0.74862 0.0
H1070 H 0.60489 0.11157 0.64704 0.0
H1071 H 0.58804 0.09709 0.59098 0.0
C1072 C 0.72761 0.91251 0.43535 0.0
C1073 C 0.69036 0.92154 0.40202 0.0
C1074 C 0.69783 0.89663 0.34193 0.0
C1075 C 0.74336 0.89987 0.37275 0.0
N1076 N 0.80197 0.90941 0.44967 0.0
N1077 N 0.64498 0.92854 0.32125 0.0
C1078 C 0.75809 0.90662 0.42003 0.0
C1079 C 0.67593 0.91448 0.35471 0.0
N1080 N 0.7337 0.90986 0.48129 0.0
N1081 N 0.67553 0.87648 0.30046 0.0
H1082 H 0.63007 0.94498 0.32768 0.0
H1083 H 0.63873 0.92899 0.2861 0.0
H1084 H 0.68993 0.86167 0.29041 0.0
H1085 H 0.63961 0.86936 0.27863 0.0
H1086 H 0.75728 0.89952 0.5073 0.0
H1087 H 0.71115 0.91345 0.49314 0.0
H1088 H 0.81657 0.91779 0.48391 0.0
H1089 H 0.82603 0.9067 0.43925 0.0
C1090 C 0.7988 0.14054 0.40529 0.0
C1091 C 0.75605 0.12177 0.36504 0.0
C1092 C 0.77654 0.06501 0.3597 0.0
C1093 C 0.82031 0.08484 0.39905 0.0
N1094 N 0.86682 0.13316 0.46527 0.0
N1095 N 0.69664 0.05896 0.31082 0.0
C1096 C 0.82905 0.11959 0.42403 0.0
C1097 C 0.74249 0.08136 0.34472 0.0
N1098 N 0.81292 0.18081 0.42359 0.0
N1099 N 0.76812 0.03106 0.33639 0.0
H1100 H 0.67047 0.06922 0.30144 0.0
H1101 H 0.68266 0.02848 0.2945 0.0
H1102 H 0.7897 0.0153 0.34856 0.0
H1103 H 0.74112 0.0196 0.30433 0.0
H1104 H 0.84771 0.20078 0.44868 0.0
H1105 H 0.79099 0.1961 0.41203 0.0
H1106 H 0.87141 0.15389 0.48768 0.0
H1107 H 0.89141 0.12064 0.47888 0.0
C1108 C 0.60698 0.0733 0.19702 0.0
C1109 C 0.62618 0.1252 0.19061 0.0
C1110 C 0.62995 0.12538 0.11255 0.0
C1111 C 0.61567 0.07522 0.1212 0.0
N1112 N 0.60023 0.00487 0.17658 0.0
N1113 N 0.63585 0.19325 0.1333 0.0
C1114 C 0.60679 0.05031 0.16474 0.0
C1115 C 0.63244 0.14924 0.14588 0.0
N1116 N 0.58481 0.04414 0.23185 0.0
N1117 N 0.64314 0.15121 0.07282 0.0
H1118 H 0.63242 0.20938 0.15413 0.0
H1119 H 0.63527 0.21067 0.10016 0.0
H1120 H 0.64003 0.13479 0.04731 0.0
H1121 H 0.66071 0.1895 0.06653 0.0
H1122 H 0.56498 0.00551 0.23487 0.0
H1123 H 0.57977 0.0568 0.25438 0.0
H1124 H 0.60085 0.98769 0.20986 0.0
H1125 H 0.599 0.9863 0.15439 0.0
C1126 C 0.74987 0.82337 0.98874 0.0
C1127 C 0.74503 0.83621 0.94091 0.0
C1128 C 0.69724 0.87017 0.94027 0.0
C1129 C 0.71611 0.86994 0.98924 0.0
N1130 N 0.76583 0.84952 0.06012 0.0
N1131 N 0.68228 0.84145 0.87148 0.0
C1132 C 0.7442 0.84766 1.01347 0.0
C1133 C 0.71004 0.85138 0.91631 0.0
N1134 N 0.74928 0.78158 1.00866 0.0
N1135 N 0.66537 0.88651 0.91623 0.0
H1136 H 0.68247 0.82008 0.85345 0.0
H1137 H 0.68247 0.82008 0.85345 0.0
H1138 H 0.65303 0.89883 0.93212 0.0
H1139 H 0.65156 0.88776 0.88024 0.0
H1140 H 0.74808 0.76864 0.04265 0.0
H1141 H 0.74152 0.75633 0.98902 0.0
H1142 H 0.78967 0.83636 0.07803 0.0
H1143 H 0.76357 0.8678 0.07984 0.0
C1144 C 0.93409 0.85706 0.61386 0.0
C1145 C 0.98102 0.90495 0.62394 0.0
C1146 C 0.96808 0.89265 0.70092 0.0
C1147 C 0.92165 0.84391 0.69138 0.0
N1148 N 0.85654 0.78472 0.63402 0.0
N1149 N 1.0453 0.96599 0.67988 0.0
C1150 C 0.90385 0.8278 0.64651 0.0
C1151 C 0.99873 0.92171 0.66843 0.0
N1152 N 0.92002 0.83759 0.57405 0.0
N1153 N 0.9804 0.91365 0.73905 0.0
H1154 H 0.06604 0.99033 0.65619 0.0
H1155 H 0.06494 0.97752 0.71331 0.0
H1156 H 0.95737 0.89634 0.76139 0.0
H1157 H 1.0101 0.95046 0.7461 0.0
H1158 H 0.89078 0.80064 0.56692 0.0
H1159 H 0.94051 0.85725 0.54948 0.0
H1160 H 0.83637 0.77615 0.59979 0.0
H1161 H 0.83576 0.75949 0.65739 0.0
C1162 C 0.18138 0.82892 0.85507 0.0
C1163 C 0.2329 0.84132 0.87768 0.0
C1164 C 0.24293 0.88813 0.9324 0.0
C1165 C 0.19126 0.87537 0.90996 0.0
N1166 N 0.11494 0.84262 0.84484 0.0
N1167 N 0.3162 0.89004 0.93174 0.0
C1168 C 0.16172 0.84869 0.86955 0.0
C1169 C 0.26483 0.87342 0.91441 0.0
N1170 N 0.15055 0.79654 0.82093 0.0
N1171 N 0.27034 0.91289 0.97182 0.0
H1172 H 0.33308 0.87949 0.91961 0.0
H1173 H 0.34306 0.91703 0.95553 0.0
H1174 H 0.25628 0.92593 0.98472 0.0
H1175 H 0.30578 0.91852 0.99307 0.0
H1176 H 0.11083 0.78094 0.80683 0.0
H1177 H 0.16415 0.78288 0.8082 0.0
H1178 H 0.09373 0.82816 0.81258 0.0
H1179 H 0.09899 0.85578 0.8549 0.0
C1180 C 0.91821 0.36408 0.60468 0.0
C1181 C 0.95768 0.41487 0.61279 0.0
C1182 C 0.94129 0.39991 0.68771 0.0
C1183 C 0.90814 0.3478 0.68242 0.0
N1184 N 0.86818 0.2799 0.6368 0.0
N1185 N 1.00499 0.4826 0.66084 0.0
C1186 C 0.89723 0.32995 0.64097 0.0
C1187 C 0.96835 0.43335 0.65387 0.0
N1188 N 0.89907 0.34879 0.56132 0.0
N1189 N 0.94586 0.41736 0.72455 0.0
H1190 H 1.02521 0.50736 0.63708 0.0
H1191 H 1.01628 0.49928 0.69003 0.0
H1192 H 0.92805 0.39387 0.75034 0.0
H1193 H 0.96457 0.4548 0.72852 0.0
H1194 H 0.86639 0.31364 0.55164 0.0
H1195 H 0.91208 0.37312 0.53348 0.0
H1196 H 0.86365 0.26439 0.60979 0.0
H1197 H 0.85244 0.25365 0.66257 0.0
C1198 C 0.45603 0.12255 0.44478 0.0
C1199 C 0.47064 0.0967 0.42802 0.0
C1200 C 0.42864 0.13702 0.34756 0.0
C1201 C 0.411 0.16005 0.36416 0.0
N1202 N 0.40926 0.16158 0.43887 0.0
N1203 N 0.45659 0.08104 0.35224 0.0
C1204 C 0.42613 0.1487 0.41565 0.0
C1205 C 0.45276 0.10564 0.37633 0.0
N1206 N 0.4734 0.12457 0.49149 0.0
N1207 N 0.42465 0.14727 0.30159 0.0
H1208 H 0.47281 0.06028 0.36878 0.0
H1209 H 0.43938 0.07695 0.31695 0.0
H1210 H 0.40869 0.16738 0.28062 0.0
H1211 H 0.44154 0.14066 0.28534 0.0
H1212 H 0.47372 0.14693 0.50859 0.0
H1213 H 0.49227 0.10711 0.51276 0.0
H1214 H 0.40953 0.15037 0.47329 0.0
H1215 H 0.39047 0.18 0.422 0.0
C1216 C 0.64363 0.58768 0.15293 0.0
C1217 C 0.63227 0.60611 0.10643 0.0
C1218 C 0.69089 0.69133 0.13083 0.0
C1219 C 0.70596 0.67247 0.17643 0.0
N1220 N 0.70271 0.60368 0.22952 0.0
N1221 N 0.64346 0.67486 0.04987 0.0
C1222 C 0.68456 0.62103 0.18685 0.0
C1223 C 0.65563 0.65795 0.09493 0.0
N1224 N 0.61273 0.53856 0.16558 0.0
N1225 N 0.70989 0.74091 0.12217 0.0
H1226 H 0.61713 0.6512 0.0231 0.0
H1227 H 0.65983 0.71215 0.0383 0.0
H1228 H 0.73897 0.76694 0.14659 0.0
H1229 H 0.69541 0.75619 0.09164 0.0
H1230 H 0.61554 0.5237 0.1997 0.0
H1231 H 0.58013 0.51378 0.14224 0.0
H1232 H 0.69326 0.56731 0.23724 0.0
H1233 H 0.73027 0.62666 0.25633 0.0
C1234 C 0.17413 0.17517 0.63791 0.0
C1235 C 0.20584 0.16482 0.67836 0.0
C1236 C 0.16876 0.08574 0.65008 0.0
C1237 C 0.14027 0.09799 0.60824 0.0
N1238 N 0.12259 0.158 0.55845 0.0
N1239 N 0.21414 0.10032 0.73057 0.0
C1240 C 0.14462 0.14366 0.60111 0.0
C1241 C 0.19795 0.11731 0.68683 0.0
N1242 N 0.16838 0.21231 0.63658 0.0
N1243 N 0.16902 0.04452 0.6544 0.0
H1244 H 0.23009 0.1196 0.75936 0.0
H1245 H 0.20507 0.06414 0.73938 0.0
H1246 H 0.14758 0.02035 0.62835 0.0
H1247 H 0.19402 0.03686 0.68177 0.0
H1248 H 0.1422 0.21887 0.60981 0.0
H1249 H 0.18403 0.23179 0.66532 0.0
H1250 H 0.12808 0.1928 0.55003 0.0
H1251 H 0.10294 0.13705 0.52989 0.0
C1252 C 0.62064 0.39463 0.40967 0.0
C1253 C 0.59273 0.34138 0.41453 0.0
C1254 C 0.54584 0.34327 0.45908 0.0
C1255 C 0.57869 0.39629 0.45947 0.0
N1256 N 0.65122 0.47185 0.43702 0.0
N1257 N 0.53351 0.26625 0.45214 0.0
C1258 C 0.61717 0.42154 0.43531 0.0
C1259 C 0.55599 0.31615 0.44086 0.0
N1260 N 0.64859 0.41985 0.3783 0.0
N1261 N 0.50427 0.31819 0.47618 0.0
H1262 H 0.54175 0.24542 0.44262 0.0
H1263 H 0.51158 0.24665 0.47555 0.0
H1264 H 0.49682 0.33595 0.49125 0.0
H1265 H 0.47502 0.28062 0.47199 0.0
H1266 H 0.66551 0.45774 0.36899 0.0
H1267 H 0.64995 0.40187 0.35755 0.0
H1268 H 0.68304 0.49256 0.42393 0.0
H1269 H 0.64986 0.49254 0.45472 0.0
C1270 C 0.42783 0.83954 0.11115 0.0
C1271 C 0.45699 0.89212 0.10773 0.0
C1272 C 0.42581 0.89 0.16777 0.0
C1273 C 0.39406 0.83735 0.16888 0.0
N1274 N 0.35391 0.76341 0.13181 0.0
N1275 N 0.47748 0.96799 0.12714 0.0
C1276 C 0.39217 0.81246 0.13796 0.0
C1277 C 0.45391 0.91757 0.13419 0.0
N1278 N 0.43375 0.81525 0.08849 0.0
N1279 N 0.43058 0.91361 0.19984 0.0
H1280 H 0.50019 0.99 0.10447 0.0
H1281 H 0.47178 0.9878 0.14142 0.0
H1282 H 0.40981 0.89467 0.22425 0.0
H1283 H 0.4577 0.95145 0.20445 0.0
H1284 H 0.41814 0.77722 0.09414 0.0
H1285 H 0.45738 0.83357 0.0665 0.0
H1286 H 0.34734 0.74414 0.10675 0.0
H1287 H 0.32445 0.74388 0.14757 0.0
C1288 C 0.95746 0.62314 0.93784 0.0
C1289 C 0.96801 0.594 0.92029 0.0
C1290 C 0.91664 0.62796 0.84095 0.0
C1291 C 0.90678 0.6575 0.8583 0.0
N1292 N 0.91867 0.66935 0.93467 0.0
N1293 N 0.95763 0.58384 0.8437 0.0
C1294 C 0.92856 0.65077 0.90987 0.0
C1295 C 0.94688 0.60146 0.86861 0.0
N1296 N 0.97894 0.62763 0.98424 0.0
N1297 N 0.89348 0.62353 0.79485 0.0
H1298 H 0.97532 0.56433 0.85965 0.0
H1299 H 0.95403 0.59233 0.80856 0.0
H1300 H 0.89071 0.60112 0.77563 0.0
H1301 H 0.89071 0.60112 0.77563 0.0
H1302 H 0.98295 0.65218 1.00171 0.0
H1303 H 0.99749 0.60969 1.00479 0.0
H1304 H 0.92319 0.66187 0.96999 0.0
H1305 H 0.90093 0.68882 0.91861 0.0
C1306 C 0.46502 0.42127 0.14547 0.0
C1307 C 0.48951 0.40664 0.13074 0.0
C1308 C 0.45745 0.3311 0.18583 0.0
C1309 C 0.42982 0.34415 0.19747 0.0
N1310 N 0.40477 0.40099 0.1848 0.0
N1311 N 0.50183 0.3427 0.13333 0.0
C1312 C 0.43286 0.3889 0.17605 0.0
C1313 C 0.48409 0.36035 0.15039 0.0
N1314 N 0.47466 0.46784 0.13233 0.0
N1315 N 0.45829 0.29044 0.2088 0.0
H1316 H 0.52076 0.36238 0.10764 0.0
H1317 H 0.49422 0.30704 0.14172 0.0
H1318 H 0.43784 0.26738 0.23308 0.0
H1319 H 0.48176 0.28133 0.2062 0.0
H1320 H 0.46495 0.48392 0.14679 0.0
H1321 H 0.4967 0.49268 0.10994 0.0
H1322 H 0.39772 0.42779 0.16488 0.0
H1323 H 0.38599 0.38262 0.2106 0.0
C1324 C 0.26573 0.50406 0.83004 0.0
C1325 C 0.27598 0.48657 0.8028 0.0
C1326 C 0.29748 0.56216 0.75278 0.0
C1327 C 0.31059 0.58604 0.79154 0.0
N1328 N 0.30201 0.57634 0.86759 0.0
N1329 N 0.2798 0.48953 0.72825 0.0
C1330 C 0.29201 0.55602 0.8301 0.0
C1331 C 0.28132 0.51161 0.75932 0.0
N1332 N 0.23381 0.47151 0.85717 0.0
N1333 N 0.30012 0.58721 0.71045 0.0
H1334 H 0.26983 0.45291 0.73495 0.0
H1335 H 0.28995 0.50744 0.69769 0.0
H1336 H 0.31069 0.6238 0.70421 0.0
H1337 H 0.28731 0.5704 0.68073 0.0
H1338 H 0.2244 0.4829 0.8771 0.0
H1339 H 0.21264 0.43318 0.85501 0.0
H1340 H 0.29214 0.55488 0.89751 0.0
H1341 H 0.3242 0.61451 0.87067 0.0
C1342 C 0.22151 0.61329 0.60347 0.0
C1343 C 0.16948 0.59094 0.60278 0.0
C1344 C 0.20234 0.64343 0.66353 0.0
C1345 C 0.25392 0.67105 0.65981 0.0
N1346 N 0.30977 0.68685 0.61861 0.0
N1347 N 0.11082 0.59574 0.62321 0.0
C1348 C 0.26255 0.65755 0.62714 0.0
C1349 C 0.16011 0.60985 0.62968 0.0
N1350 N 0.23226 0.59125 0.58342 0.0
N1351 N 0.19341 0.64515 0.70138 0.0
H1352 H 0.07946 0.57252 0.59754 0.0
H1353 H 0.10251 0.6116 0.63962 0.0
H1354 H 0.22306 0.66285 0.73049 0.0
H1355 H 0.15672 0.62253 0.70672 0.0
H1356 H 0.27003 0.60305 0.58719 0.0
H1357 H 0.20337 0.55877 0.5662 0.0
H1358 H 0.31696 0.68094 0.59249 0.0
H1359 H 0.34007 0.71969 0.63483 0.0
C1360 C 0.46716 0.37336 0.69483 0.0
C1361 C 0.41707 0.32783 0.6852 0.0
C1362 C 0.42354 0.33822 0.60607 0.0
C1363 C 0.47593 0.38179 0.61677 0.0
N1364 N 0.55033 0.43183 0.67769 0.0
N1365 N 0.35244 0.26266 0.63297 0.0
C1366 C 0.49825 0.39682 0.66293 0.0
C1367 C 0.39745 0.30873 0.6416 0.0
N1368 N 0.48593 0.39434 0.73505 0.0
N1369 N 0.39601 0.32631 0.56133 0.0
H1370 H 0.32857 0.24218 0.65474 0.0
H1371 H 0.34059 0.24296 0.60569 0.0
H1372 H 0.40747 0.34955 0.53284 0.0
H1373 H 0.35769 0.29623 0.55147 0.0
H1374 H 0.5184 0.43045 0.74148 0.0
H1375 H 0.46726 0.3768 0.76094 0.0
H1376 H 0.57008 0.44104 0.71185 0.0
H1377 H 0.57518 0.44763 0.65726 0.0
C1378 C 0.20622 0.67558 0.122 0.0
C1379 C 0.22354 0.65425 0.16488 0.0
C1380 C 0.1909 0.58272 0.12661 0.0
C1381 C 0.16996 0.6023 0.08438 0.0
N1382 N 0.1485 0.66271 0.04438 0.0
N1383 N 0.22043 0.58213 0.2101 0.0
C1384 C 0.17395 0.64682 0.08309 0.0
C1385 C 0.21183 0.60594 0.16783 0.0
N1386 N 0.22408 0.72461 0.11721 0.0
N1387 N 0.19221 0.54287 0.12756 0.0
H1388 H 0.23527 0.5982 0.24096 0.0
H1389 H 0.20783 0.54485 0.21458 0.0
H1390 H 0.17805 0.5249 0.09839 0.0
H1391 H 0.2119 0.53061 0.15657 0.0
H1392 H 0.21742 0.74367 0.08564 0.0
H1393 H 0.25057 0.74735 0.14418 0.0
H1394 H 0.14521 0.69162 0.04393 0.0
H1395 H 0.12776 0.64517 1.01357 0.0
C1396 C 0.80261 0.42397 0.51159 0.0
C1397 C 0.75986 0.37577 0.51909 0.0
C1398 C 0.7167 0.40939 0.52626 0.0
C1399 C 0.76375 0.45722 0.5284 0.0
N1400 N 0.84069 0.51291 0.503 0.0
N1401 N 0.66769 0.324 0.50746 0.0
C1402 C 0.80297 0.46567 0.51355 0.0
C1403 C 0.71313 0.36968 0.51492 0.0
N1404 N 0.84577 0.4291 0.51111 0.0
N1405 N 0.67735 0.40151 0.5381 0.0
H1406 H 0.66436 0.2956 0.49645 0.0
H1407 H 0.6329 0.31518 0.50889 0.0
H1408 H 0.67779 0.43021 0.5448 0.0
H1409 H 0.64505 0.36651 0.54314 0.0
H1410 H 0.88128 0.46321 0.51236 0.0
H1411 H 0.84547 0.39785 0.51157 0.0
H1412 H 0.86773 0.52075 0.48823 0.0
H1413 H 0.84093 0.54342 0.50482 0.0
C1414 C 0.94927 0.62052 0.19102 0.0
C1415 C 0.97752 0.63535 0.23672 0.0
C1416 C 1.04333 0.62592 0.23554 0.0
C1417 C 1.00972 0.60142 0.19432 0.0
N1418 N 0.93023 0.57435 0.13198 0.0
N1419 N 1.05119 0.65265 0.3035 0.0
C1420 C 0.96295 0.59927 0.17121 0.0
C1421 C 1.0251 0.63913 0.25908 0.0
N1422 N 0.90901 0.62618 0.1671 0.0
N1423 N 0.09257 0.63664 0.25182 0.0
H1424 H 1.03952 0.66408 0.3211 0.0
H1425 H 0.0826 0.64996 0.32364 0.0
H1426 H 0.10682 0.62774 0.23456 0.0
H1427 H 0.12038 0.6586 0.27941 0.0
H1428 H 0.88987 0.62023 0.13222 0.0
H1429 H 0.89784 0.64127 0.18115 0.0
H1430 H 0.89264 0.5661 0.11698 0.0
H1431 H 0.93942 0.55917 0.11576 0.0
C1432 C 0.94095 0.68939 0.57827 0.0
C1433 C 0.91823 0.66496 0.53736 0.0
C1434 C 0.83676 0.65587 0.52581 0.0
C1435 C 0.85751 0.67473 0.56928 0.0
N1436 N 0.93364 0.72769 0.6268 0.0
N1437 N 0.84941 0.63495 0.46637 0.0
C1438 C 0.91118 0.69731 0.59241 0.0
C1439 C 0.86771 0.6519 0.50883 0.0
N1440 N 0.99049 0.70376 0.60414 0.0
N1441 N 0.7864 0.63976 0.50296 0.0
H1442 H 0.86969 0.62856 0.4543 0.0
H1443 H 0.81549 0.62941 0.44154 0.0
H1444 H 0.76536 0.62201 0.4723 0.0
H1445 H 0.76536 0.62201 0.4723 0.0
H1446 H 1.00708 0.71615 0.63709 0.0
H1447 H 1.01449 0.70126 0.59335 0.0
H1448 H 0.97345 0.74887 0.64266 0.0
H1449 H 0.91272 0.73568 0.63609 0.0
C1450 C 0.31771 0.51687 0.52644 0.0
C1451 C 0.36672 0.53439 0.52285 0.0
C1452 C 0.39768 0.61717 0.53624 0.0
C1453 C 0.34567 0.60274 0.51939 0.0
N1454 N 0.25949 0.5378 0.52362 0.0
N1455 N 0.45602 0.6022 0.52813 0.0
C1456 C 0.30778 0.552 0.52661 0.0
C1457 C 0.40843 0.58467 0.53085 0.0
N1458 N 0.27837 0.46815 0.52375 0.0
N1459 N 0.43589 0.66386 0.55032 0.0
H1460 H 0.465 0.57885 0.52464 0.0
H1461 H 0.48495 0.64003 0.52631 0.0
H1462 H 0.42695 0.68685 0.55476 0.0
H1463 H 0.47516 0.67721 0.56159 0.0
H1464 H 0.2826 0.4407 0.52148 0.0
H1465 H 0.2826 0.4407 0.52148 0.0
H1466 H 0.22911 0.50047 0.52589 0.0
H1467 H 0.25122 0.56434 0.51875 0.0
C1468 C 0.14188 0.42816 0.73113 0.0
C1469 C 0.126 0.37794 0.74421 0.0
C1470 C 0.07341 0.36866 0.78678 0.0
C1471 C 0.10017 0.42115 0.78375 0.0
N1472 N 0.16082 0.50205 0.75307 0.0
N1473 N 0.07147 0.29794 0.7792 0.0
C1474 C 0.13373 0.45129 0.75498 0.0
C1475 C 0.08926 0.34718 0.76975 0.0
N1476 N 0.16543 0.45388 0.69668 0.0
N1477 N 1.03292 0.33971 0.80577 0.0
H1478 H 0.08023 0.281 0.76454 0.0
H1479 H 1.04972 0.27449 0.80239 0.0
H1480 H 1.02 0.35468 0.81771 0.0
H1481 H 1.00935 0.30114 0.80585 0.0
H1482 H 0.17388 0.4893 0.6831 0.0
H1483 H 0.17209 0.43814 0.67852 0.0
H1484 H 0.18937 0.52588 0.73601 0.0
H1485 H 0.15812 0.52094 0.77161 0.0
C1486 C 0.21383 0.3647 0.40201 0.0
C1487 C 0.24532 0.34639 0.4291 0.0
C1488 C 0.21089 0.32598 0.49337 0.0
C1489 C 0.18589 0.35132 0.46874 0.0
N1490 N 0.17996 0.40953 0.40424 0.0
N1491 N 0.28541 0.32455 0.50587 0.0
C1492 C 0.19192 0.37496 0.42427 0.0
C1493 C 0.24726 0.33127 0.47642 0.0
N1494 N 0.2035 0.37114 0.35508 0.0
N1495 N 0.19922 0.29586 0.53215 0.0
H1496 H 0.31535 0.33225 0.49545 0.0
H1497 H 0.29079 0.31764 0.54144 0.0
H1498 H 0.17013 0.2882 0.54394 0.0
H1499 H 0.21436 0.27427 0.54929 0.0
H1500 H 0.17739 0.38089 0.33401 0.0
H1501 H 0.21626 0.36128 0.33712 0.0
H1502 H 0.18786 0.43024 0.37348 0.0
H1503 H 0.16858 0.42205 0.42098 0.0
loop_
_geom_bond_atom_site_label_1
_geom_bond_atom_site_label_2
_geom_bond_distance
_geom_bond_site_symmetry_2
_ccdc_geom_bond_type
Ho0 C3 2.811 . S
Ho0 O20 2.322 1_656 S
Ho0 O22 2.378 . S
Ho0 O23 2.524 1_655 S
Ho0 O24 2.378 1_556 S
Ho0 O25 2.669 1_556 S
Ho0 O27 2.346 . S
Ho0 O31 2.305 1_665 S
Ho1 C12 2.811 . S
Ho1 O21 2.346 . S
Ho1 O25 2.305 1_445 S
Ho1 O26 2.322 1_454 S
Ho1 O28 2.378 . S
Ho1 O29 2.524 1_455 S
Ho1 O30 2.378 . S
Ho1 O31 2.669 1_554 S
C2 O20 1.259 . S
C2 O21 1.268 1_565 S
C3 Ho0 2.811 . S
C3 C4 1.488 . S
C3 O22 1.215 . S
C3 O23 1.289 1_655 S
C4 C3 1.488 . S
C4 C5 1.348 1_655 S
C4 C9 1.413 . S
C5 C4 1.348 1_455 S
C5 C6 1.442 . S
C5 H32 0.930 . S
C6 C5 1.442 . S
C6 C7 1.381 . S
C6 H33 0.931 . S
C7 C6 1.381 . S
C7 C8 1.321 1_455 S
C8 C7 1.321 1_655 S
C8 C9 1.403 . S
C8 H34 0.934 . S
C9 C4 1.413 . S
C9 C8 1.403 . S
C9 H35 0.930 . S
C10 O24 1.277 . S
C10 O25 1.256 . S
C11 O26 1.259 . S
C11 O27 1.268 1_545 S
C12 Ho1 2.811 . S
C12 C13 1.488 . S
C12 O28 1.215 . S
C12 O29 1.289 1_455 S
C13 C12 1.488 . S
C13 C14 1.348 1_455 S
C13 C18 1.413 . S
C14 C13 1.348 1_655 S
C14 C15 1.442 . S
C14 H36 0.930 . S
C15 C14 1.442 . S
C15 C16 1.381 . S
C15 H37 0.931 . S
C16 C15 1.381 . S
C16 C17 1.321 1_655 S
C17 C16 1.321 1_455 S
C17 C18 1.403 . S
C17 H38 0.934 . S
C18 C13 1.413 . S
C18 C17 1.403 . S
C18 H39 0.930 . S
C19 O30 1.277 1_556 S
C19 O31 1.256 . S
O20 Ho0 2.322 1_454 S
O20 C2 1.259 . S
O21 Ho1 2.346 . S
O21 C2 1.268 1_545 S
O22 Ho0 2.378 . S
O22 C3 1.215 . S
O23 Ho0 2.524 1_455 S
O23 C3 1.289 1_455 S
O24 Ho0 2.378 1_554 S
O24 C10 1.277 . S
O25 Ho0 2.669 1_554 S
O25 Ho1 2.305 1_665 S
O25 C10 1.256 . S
O26 Ho1 2.322 1_656 S
O26 C11 1.259 . S
O27 Ho0 2.346 . S
O27 C11 1.268 1_565 S
O28 Ho1 2.378 . S
O28 C12 1.215 . S
O29 Ho1 2.524 1_655 S
O29 C12 1.289 1_655 S
O30 Ho1 2.378 . S
O30 C19 1.277 1_554 S
O31 Ho0 2.305 1_445 S
O31 Ho1 2.669 1_556 S
O31 C19 1.256 . S
H32 C5 0.930 . S
H33 C6 0.931 . S
H34 C8 0.934 . S
H35 C9 0.930 . S
H36 C14 0.930 . S
H37 C15 0.931 . S
H38 C17 0.934 . S
H39 C18 0.930 . S
Ho40 C43 2.811 . S
Ho40 O60 2.322 . S
Ho40 O62 2.378 . S
Ho40 O63 2.524 . S
Ho40 O64 2.381 . S
Ho40 O65 2.669 . S
Ho40 O67 2.346 . S
Ho40 O71 2.305 . S
Ho41 C52 2.811 . S
Ho41 O61 2.346 . S
Ho41 O65 2.305 . S
Ho41 O66 2.322 . S
Ho41 O68 2.378 . S
Ho41 O69 2.524 . S
Ho41 O70 2.381 . S
Ho41 O71 2.669 . S
C42 O60 1.259 . S
C42 O61 1.268 . S
C43 Ho40 2.811 . S
C43 C44 1.488 . S
C43 O62 1.215 . S
C43 O63 1.289 . S
C44 C43 1.488 . S
C44 C45 1.348 . S
C44 C49 1.413 . S
C45 C44 1.348 . S
C45 C46 1.442 . S
C45 H72 0.930 . S
C46 C45 1.442 . S
C46 C47 1.381 . S
C46 H73 0.931 . S
C47 C46 1.381 . S
C47 C48 1.321 . S
C48 C47 1.321 . S
C48 C49 1.403 . S
C48 H74 0.934 . S
C49 C44 1.413 . S
C49 C48 1.403 . S
C49 H75 0.930 . S
C50 O64 1.275 . S
C50 O65 1.256 . S
C51 O66 1.259 . S
C51 O67 1.268 . S
C52 Ho41 2.811 . S
C52 C53 1.488 . S
C52 O68 1.215 . S
C52 O69 1.289 . S
C53 C52 1.488 . S
C53 C54 1.348 . S
C53 C58 1.413 . S
C54 C53 1.348 . S
C54 C55 1.442 . S
C54 H76 0.930 . S
C55 C54 1.442 . S
C55 C56 1.381 . S
C55 H77 0.931 1_554 S
C56 C55 1.381 . S
C56 C57 1.321 . S
C57 C56 1.321 . S
C57 C58 1.403 . S
C57 H78 0.934 . S
C58 C53 1.413 . S
C58 C57 1.403 . S
C58 H79 0.930 . S
C59 O70 1.275 . S
C59 O71 1.256 . S
O60 Ho40 2.322 . S
O60 C42 1.259 . S
O61 Ho41 2.346 . S
O61 C42 1.268 . S
O62 Ho40 2.378 . S
O62 C43 1.215 . S
O63 Ho40 2.524 . S
O63 C43 1.289 . S
O64 Ho40 2.381 . S
O64 C50 1.275 . S
O65 Ho40 2.669 . S
O65 Ho41 2.305 . S
O65 C50 1.256 . S
O66 Ho41 2.322 . S
O66 C51 1.259 . S
O67 Ho40 2.346 . S
O67 C51 1.268 . S
O68 Ho41 2.378 . S
O68 C52 1.215 . S
O69 Ho41 2.524 . S
O69 C52 1.289 . S
O70 Ho41 2.381 . S
O70 C59 1.275 . S
O71 Ho40 2.305 . S
O71 Ho41 2.669 . S
O71 C59 1.256 . S
H72 C45 0.930 . S
H73 C46 0.931 . S
H74 C48 0.934 . S
H75 C49 0.930 . S
H76 C54 0.930 . S
H77 C55 0.931 1_556 S
H78 C57 0.934 . S
H79 C58 0.930 . S
Ho80 C83 2.811 . S
Ho80 O100 2.322 1_565 S
Ho80 O102 2.378 . S
Ho80 O103 2.524 1_565 S
Ho80 O104 2.381 . S
Ho80 O105 2.669 . S
Ho80 O107 2.346 . S
Ho80 O111 2.305 1_565 S
Ho81 C92 2.811 . S
Ho81 O101 2.346 . S
Ho81 O105 2.305 1_545 S
Ho81 O106 2.322 1_545 S
Ho81 O108 2.378 . S
Ho81 O109 2.524 1_545 S
Ho81 O110 2.381 . S
Ho81 O111 2.669 . S
C82 O100 1.259 . S
C82 O101 1.268 . S
C83 Ho80 2.811 . S
C83 C84 1.488 1_565 S
C83 O102 1.215 . S
C83 O103 1.289 1_565 S
C84 C83 1.488 1_545 S
C84 C85 1.348 . S
C84 C89 1.413 1_545 S
C85 C84 1.348 . S
C85 C86 1.442 . S
C85 H112 0.930 . S
C86 C85 1.442 . S
C86 C87 1.381 . S
C86 H113 0.931 . S
C87 C86 1.381 . S
C87 C88 1.321 1_545 S
C88 C87 1.321 1_565 S
C88 C89 1.403 . S
C88 H114 0.934 . S
C89 C84 1.413 1_565 S
C89 C88 1.403 . S
C89 H115 0.930 . S
C90 O104 1.275 . S
C90 O105 1.256 . S
C91 O106 1.259 . S
C91 O107 1.268 . S
C92 Ho81 2.811 . S
C92 C93 1.488 1_545 S
C92 O108 1.215 . S
C92 O109 1.289 1_545 S
C93 C92 1.488 1_565 S
C93 C94 1.348 . S
C93 C98 1.413 1_565 S
C94 C93 1.348 . S
C94 C95 1.442 . S
C94 H116 0.930 . S
C95 C94 1.442 . S
C95 C96 1.381 . S
C95 H117 0.931 . S
C96 C95 1.381 . S
C96 C97 1.321 1_565 S
C97 C96 1.321 1_545 S
C97 C98 1.403 . S
C97 H118 0.934 . S
C98 C93 1.413 1_545 S
C98 C97 1.403 . S
C98 H119 0.930 . S
C99 O110 1.275 . S
C99 O111 1.256 . S
O100 Ho80 2.322 1_545 S
O100 C82 1.259 . S
O101 Ho81 2.346 . S
O101 C82 1.268 . S
O102 Ho80 2.378 . S
O102 C83 1.215 . S
O103 Ho80 2.524 1_545 S
O103 C83 1.289 1_545 S
O104 Ho80 2.381 . S
O104 C90 1.275 . S
O105 Ho80 2.669 . S
O105 Ho81 2.305 1_565 S
O105 C90 1.256 . S
O106 Ho81 2.322 1_565 S
O106 C91 1.259 . S
O107 Ho80 2.346 . S
O107 C91 1.268 . S
O108 Ho81 2.378 . S
O108 C92 1.215 . S
O109 Ho81 2.524 1_565 S
O109 C92 1.289 1_565 S
O110 Ho81 2.381 . S
O110 C99 1.275 . S
O111 Ho80 2.305 1_545 S
O111 Ho81 2.669 . S
O111 C99 1.256 . S
H112 C85 0.930 . S
H113 C86 0.931 . S
H114 C88 0.934 . S
H115 C89 0.930 . S
H116 C94 0.930 . S
H117 C95 0.931 . S
H118 C97 0.934 . S
H119 C98 0.930 . S
Ho120 C123 2.811 . S
Ho120 O140 2.322 . S
Ho120 O142 2.378 . S
Ho120 O143 2.524 . S
Ho120 O144 2.381 . S
Ho120 O145 2.669 . S
Ho120 O147 2.346 . S
Ho120 O151 2.305 . S
Ho121 C132 2.811 . S
Ho121 O141 2.346 . S
Ho121 O145 2.305 . S
Ho121 O146 2.322 . S
Ho121 O148 2.378 . S
Ho121 O149 2.524 . S
Ho121 O150 2.381 . S
Ho121 O151 2.669 . S
C122 O140 1.259 . S
C122 O141 1.268 . S
C123 Ho120 2.811 . S
C123 C124 1.488 . S
C123 O142 1.215 . S
C123 O143 1.289 . S
C124 C123 1.488 . S
C124 C125 1.348 . S
C124 C129 1.413 . S
C125 C124 1.348 . S
C125 C126 1.442 . S
C125 H152 0.930 . S
C126 C125 1.442 . S
C126 C127 1.381 . S
C126 H153 0.931 . S
C127 C126 1.381 . S
C127 C128 1.321 . S
C128 C127 1.321 . S
C128 C129 1.403 . S
C128 H154 0.934 . S
C129 C124 1.413 . S
C129 C128 1.403 . S
C129 H155 0.930 . S
C130 O144 1.275 . S
C130 O145 1.256 . S
C131 O146 1.259 . S
C131 O147 1.268 . S
C132 Ho121 2.811 . S
C132 C133 1.488 . S
C132 O148 1.215 . S
C132 O149 1.289 . S
C133 C132 1.488 . S
C133 C134 1.348 . S
C133 C138 1.413 . S
C134 C133 1.348 . S
C134 C135 1.442 . S
C134 H156 0.930 . S
C135 C134 1.442 . S
C135 C136 1.381 . S
C135 H157 0.931 . S
C136 C135 1.381 . S
C136 C137 1.321 . S
C137 C136 1.321 . S
C137 C138 1.403 . S
C137 H158 0.934 . S
C138 C133 1.413 . S
C138 C137 1.403 . S
C138 H159 0.930 . S
C139 O150 1.275 . S
C139 O151 1.256 . S
O140 Ho120 2.322 . S
O140 C122 1.259 . S
O141 Ho121 2.346 . S
O141 C122 1.268 . S
O142 Ho120 2.378 . S
O142 C123 1.215 . S
O143 Ho120 2.524 . S
O143 C123 1.289 . S
O144 Ho120 2.381 . S
O144 C130 1.275 . S
O145 Ho120 2.669 . S
O145 Ho121 2.305 . S
O145 C130 1.256 . S
O146 Ho121 2.322 . S
O146 C131 1.259 . S
O147 Ho120 2.346 . S
O147 C131 1.268 . S
O148 Ho121 2.378 . S
O148 C132 1.215 . S
O149 Ho121 2.524 . S
O149 C132 1.289 . S
O150 Ho121 2.381 . S
O150 C139 1.275 . S
O151 Ho120 2.305 . S
O151 Ho121 2.669 . S
O151 C139 1.256 . S
H152 C125 0.930 . S
H153 C126 0.931 . S
H154 C128 0.934 . S
H155 C129 0.930 . S
H156 C134 0.930 . S
H157 C135 0.931 . S
H158 C137 0.934 . S
H159 C138 0.930 . S
Ho160 C163 2.811 . S
Ho160 O180 2.322 1_455 S
Ho160 O182 2.378 . S
Ho160 O183 2.524 . S
Ho160 O184 2.381 1_455 S
Ho160 O185 2.669 1_455 S
Ho160 O187 2.346 1_565 S
Ho160 O191 2.305 1_565 S
Ho161 C172 2.811 . S
Ho161 O181 2.346 1_545 S
Ho161 O185 2.305 1_545 S
Ho161 O186 2.322 1_655 S
Ho161 O188 2.378 . S
Ho161 O189 2.524 . S
Ho161 O190 2.381 1_655 S
Ho161 O191 2.669 1_655 S
C162 O180 1.259 . S
C162 O181 1.268 . S
C163 Ho160 2.811 . S
C163 C164 1.488 . S
C163 O182 1.215 . S
C163 O183 1.289 . S
C164 C163 1.488 . S
C164 C165 1.348 . S
C164 C169 1.413 . S
C165 C164 1.348 . S
C165 C166 1.442 . S
C165 H192 0.930 . S
C166 C165 1.442 . S
C166 C167 1.381 . S
C166 H193 0.931 . S
C167 C166 1.381 . S
C167 C168 1.321 . S
C168 C167 1.321 . S
C168 C169 1.403 . S
C168 H194 0.934 . S
C169 C164 1.413 . S
C169 C168 1.403 . S
C169 H195 0.930 . S
C170 O184 1.275 . S
C170 O185 1.256 . S
C171 O186 1.259 . S
C171 O187 1.268 . S
C172 Ho161 2.811 . S
C172 C173 1.488 . S
C172 O188 1.215 . S
C172 O189 1.289 . S
C173 C172 1.488 . S
C173 C174 1.348 . S
C173 C178 1.413 . S
C174 C173 1.348 . S
C174 C175 1.442 . S
C174 H196 0.930 . S
C175 C174 1.442 . S
C175 C176 1.381 . S
C175 H197 0.931 . S
C176 C175 1.381 . S
C176 C177 1.321 . S
C177 C176 1.321 . S
C177 C178 1.403 . S
C177 H198 0.934 . S
C178 C173 1.413 . S
C178 C177 1.403 . S
C178 H199 0.930 . S
C179 O190 1.275 . S
C179 O191 1.256 . S
O180 Ho160 2.322 1_655 S
O180 C162 1.259 . S
O181 Ho161 2.346 1_565 S
O181 C162 1.268 . S
O182 Ho160 2.378 . S
O182 C163 1.215 . S
O183 Ho160 2.524 . S
O183 C163 1.289 . S
O184 Ho160 2.381 1_655 S
O184 C170 1.275 . S
O185 Ho160 2.669 1_655 S
O185 Ho161 2.305 1_565 S
O185 C170 1.256 . S
O186 Ho161 2.322 1_455 S
O186 C171 1.259 . S
O187 Ho160 2.346 1_545 S
O187 C171 1.268 . S
O188 Ho161 2.378 . S
O188 C172 1.215 . S
O189 Ho161 2.524 . S
O189 C172 1.289 . S
O190 Ho161 2.381 1_455 S
O190 C179 1.275 . S
O191 Ho160 2.305 1_545 S
O191 Ho161 2.669 1_455 S
O191 C179 1.256 . S
H192 C165 0.930 . S
H193 C166 0.931 . S
H194 C168 0.934 . S
H195 C169 0.930 . S
H196 C174 0.930 . S
H197 C175 0.931 . S
H198 C177 0.934 . S
H199 C178 0.930 . S
Ho200 C203 2.811 . S
Ho200 O220 2.322 . S
Ho200 O222 2.378 . S
Ho200 O223 2.524 . S
Ho200 O224 2.381 . S
Ho200 O225 2.669 . S
Ho200 O227 2.346 . S
Ho200 O231 2.305 . S
Ho201 C212 2.811 . S
Ho201 O221 2.346 . S
Ho201 O225 2.305 . S
Ho201 O226 2.322 . S
Ho201 O228 2.378 . S
Ho201 O229 2.524 . S
Ho201 O230 2.381 . S
Ho201 O231 2.669 . S
C202 O220 1.259 . S
C202 O221 1.268 . S
C203 Ho200 2.811 . S
C203 C204 1.488 . S
C203 O222 1.215 . S
C203 O223 1.289 . S
C204 C203 1.488 . S
C204 C205 1.348 . S
C204 C209 1.413 . S
C205 C204 1.348 . S
C205 C206 1.442 . S
C205 H232 0.930 . S
C206 C205 1.442 . S
C206 C207 1.381 . S
C206 H233 0.931 . S
C207 C206 1.381 . S
C207 C208 1.321 . S
C208 C207 1.321 . S
C208 C209 1.403 . S
C208 H234 0.934 . S
C209 C204 1.413 . S
C209 C208 1.403 . S
C209 H235 0.930 . S
C210 O224 1.275 . S
C210 O225 1.256 . S
C211 O226 1.259 . S
C211 O227 1.268 . S
C212 Ho201 2.811 . S
C212 C213 1.488 . S
C212 O228 1.215 . S
C212 O229 1.289 . S
C213 C212 1.488 . S
C213 C214 1.348 . S
C213 C218 1.413 . S
C214 C213 1.348 . S
C214 C215 1.442 . S
C214 H236 0.930 . S
C215 C214 1.442 . S
C215 C216 1.381 . S
C215 H237 0.931 . S
C216 C215 1.381 . S
C216 C217 1.321 . S
C217 C216 1.321 . S
C217 C218 1.403 . S
C217 H238 0.934 . S
C218 C213 1.413 . S
C218 C217 1.403 . S
C218 H239 0.930 . S
C219 O230 1.275 . S
C219 O231 1.256 . S
O220 Ho200 2.322 . S
O220 C202 1.259 . S
O221 Ho201 2.346 . S
O221 C202 1.268 . S
O222 Ho200 2.378 . S
O222 C203 1.215 . S
O223 Ho200 2.524 . S
O223 C203 1.289 . S
O224 Ho200 2.381 . S
O224 C210 1.275 . S
O225 Ho200 2.669 . S
O225 Ho201 2.305 . S
O225 C210 1.256 . S
O226 Ho201 2.322 . S
O226 C211 1.259 . S
O227 Ho200 2.346 . S
O227 C211 1.268 . S
O228 Ho201 2.378 . S
O228 C212 1.215 . S
O229 Ho201 2.524 . S
O229 C212 1.289 . S
O230 Ho201 2.381 . S
O230 C219 1.275 . S
O231 Ho200 2.305 . S
O231 Ho201 2.669 . S
O231 C219 1.256 . S
H232 C205 0.930 . S
H233 C206 0.931 . S
H234 C208 0.934 . S
H235 C209 0.930 . S
H236 C214 0.930 . S
H237 C215 0.931 . S
H238 C217 0.934 . S
H239 C218 0.930 . S
Ho240 C243 2.811 1_554 S
Ho240 O260 2.322 1_564 S
Ho240 O262 2.378 . S
Ho240 O263 2.524 1_554 S
Ho240 O264 2.381 1_565 S
Ho240 O265 2.669 1_565 S
Ho240 O267 2.346 . S
Ho240 O271 2.305 1_554 S
Ho241 C252 2.811 1_556 S
Ho241 O261 2.346 . S
Ho241 O265 2.305 1_556 S
Ho241 O266 2.322 1_546 S
Ho241 O268 2.378 . S
Ho241 O269 2.524 1_556 S
Ho241 O270 2.381 1_545 S
Ho241 O271 2.669 1_545 S
C242 O260 1.259 . S
C242 O261 1.268 . S
C243 Ho240 2.811 1_556 S
C243 C244 1.488 . S
C243 O262 1.215 1_556 S
C243 O263 1.289 . S
C244 C243 1.488 . S
C244 C245 1.348 . S
C244 C249 1.413 1_556 S
C245 C244 1.348 . S
C245 C246 1.442 . S
C245 H272 0.930 . S
C246 C245 1.442 . S
C246 C247 1.381 . S
C246 H273 0.931 . S
C247 C246 1.381 . S
C247 C248 1.321 1_556 S
C248 C247 1.321 1_554 S
C248 C249 1.403 . S
C248 H274 0.934 . S
C249 C244 1.413 1_554 S
C249 C248 1.403 . S
C249 H275 0.930 . S
C250 O264 1.275 . S
C250 O265 1.256 . S
C251 O266 1.259 . S
C251 O267 1.268 . S
C252 Ho241 2.811 1_554 S
C252 C253 1.488 . S
C252 O268 1.215 1_554 S
C252 O269 1.289 . S
C253 C252 1.488 . S
C253 C254 1.348 . S
C253 C258 1.413 1_554 S
C254 C253 1.348 . S
C254 C255 1.442 . S
C254 H276 0.930 . S
C255 C254 1.442 . S
C255 C256 1.381 . S
C255 H277 0.931 . S
C256 C255 1.381 . S
C256 C257 1.295 1_554 S
C257 C256 1.295 1_556 S
C257 C258 1.418 . S
C257 H278 0.947 . S
C258 C253 1.413 1_556 S
C258 C257 1.418 . S
C258 H279 0.930 . S
C259 O270 1.275 . S
C259 O271 1.256 . S
O260 Ho240 2.322 1_546 S
O260 C242 1.259 . S
O261 Ho241 2.346 . S
O261 C242 1.268 . S
O262 Ho240 2.378 . S
O262 C243 1.215 1_554 S
O263 Ho240 2.524 1_556 S
O263 C243 1.289 . S
O264 Ho240 2.381 1_545 S
O264 C250 1.275 . S
O265 Ho240 2.669 1_545 S
O265 Ho241 2.305 1_554 S
O265 C250 1.256 . S
O266 Ho241 2.322 1_564 S
O266 C251 1.259 . S
O267 Ho240 2.346 . S
O267 C251 1.268 . S
O268 Ho241 2.378 . S
O268 C252 1.215 1_556 S
O269 Ho241 2.524 1_554 S
O269 C252 1.289 . S
O270 Ho241 2.381 1_565 S
O270 C259 1.275 . S
O271 Ho240 2.305 1_556 S
O271 Ho241 2.669 1_565 S
O271 C259 1.256 . S
H272 C245 0.930 . S
H273 C246 0.931 . S
H274 C248 0.934 . S
H275 C249 0.930 . S
H276 C254 0.930 . S
H277 C255 0.931 . S
H278 C257 0.947 . S
H279 C258 0.930 . S
Ho280 C283 2.811 . S
Ho280 O300 2.322 . S
Ho280 O302 2.378 . S
Ho280 O303 2.524 . S
Ho280 O304 2.381 . S
Ho280 O305 2.669 . S
Ho280 O307 2.346 . S
Ho280 O311 2.305 . S
Ho281 C292 2.811 . S
Ho281 O301 2.346 . S
Ho281 O305 2.305 . S
Ho281 O306 2.322 . S
Ho281 O308 2.378 . S
Ho281 O309 2.524 . S
Ho281 O310 2.381 . S
Ho281 O311 2.669 . S
C282 O300 1.259 . S
C282 O301 1.268 . S
C283 Ho280 2.811 . S
C283 C284 1.488 . S
C283 O302 1.215 . S
C283 O303 1.289 . S
C284 C283 1.488 . S
C284 C285 1.348 . S
C284 C289 1.413 . S
C285 C284 1.348 . S
C285 C286 1.442 . S
C285 H312 0.930 . S
C286 C285 1.442 . S
C286 C287 1.381 . S
C286 H313 0.931 . S
C287 C286 1.381 . S
C287 C288 1.321 . S
C288 C287 1.321 . S
C288 C289 1.403 . S
C288 H314 0.934 . S
C289 C284 1.413 . S
C289 C288 1.403 . S
C289 H315 0.930 . S
C290 O304 1.275 . S
C290 O305 1.256 . S
C291 O306 1.259 . S
C291 O307 1.268 . S
C292 Ho281 2.811 . S
C292 C293 1.488 . S
C292 O308 1.215 . S
C292 O309 1.289 . S
C293 C292 1.488 . S
C293 C294 1.348 . S
C293 C298 1.413 . S
C294 C293 1.348 . S
C294 C295 1.442 . S
C294 H316 0.930 . S
C295 C294 1.442 . S
C295 C296 1.381 . S
C295 H317 0.931 . S
C296 C295 1.381 . S
C296 C297 1.321 . S
C297 C296 1.321 . S
C297 C298 1.403 . S
C297 H318 0.934 . S
C298 C293 1.413 . S
C298 C297 1.403 . S
C298 H319 0.930 . S
C299 O310 1.275 . S
C299 O311 1.256 . S
O300 Ho280 2.322 . S
O300 C282 1.259 . S
O301 Ho281 2.346 . S
O301 C282 1.268 . S
O302 Ho280 2.378 . S
O302 C283 1.215 . S
O303 Ho280 2.524 . S
O303 C283 1.289 . S
O304 Ho280 2.381 . S
O304 C290 1.275 . S
O305 Ho280 2.669 . S
O305 Ho281 2.305 . S
O305 C290 1.256 . S
O306 Ho281 2.322 . S
O306 C291 1.259 . S
O307 Ho280 2.346 . S
O307 C291 1.268 . S
O308 Ho281 2.378 . S
O308 C292 1.215 . S
O309 Ho281 2.524 . S
O309 C292 1.289 . S
O310 Ho281 2.381 . S
O310 C299 1.275 . S
O311 Ho280 2.305 . S
O311 Ho281 2.669 . S
O311 C299 1.256 . S
H312 C285 0.930 . S
H313 C286 0.931 . S
H314 C288 0.934 . S
H315 C289 0.930 . S
H316 C294 0.930 . S
H317 C295 0.931 . S
H318 C297 0.934 . S
H319 C298 0.930 . S
Ho320 C323 2.811 . S
Ho320 O340 2.322 . S
Ho320 O342 2.378 . S
Ho320 O343 2.524 . S
Ho320 O344 2.381 1_554 S
Ho320 O345 2.669 1_554 S
Ho320 O347 2.346 1_554 S
Ho320 O351 2.305 . S
Ho321 C332 2.811 . S
Ho321 O341 2.346 1_556 S
Ho321 O345 2.305 . S
Ho321 O346 2.322 . S
Ho321 O348 2.378 . S
Ho321 O349 2.524 . S
Ho321 O350 2.381 1_556 S
Ho321 O351 2.669 1_556 S
C322 O340 1.259 . S
C322 O341 1.268 . S
C323 Ho320 2.811 . S
C323 C324 1.488 . S
C323 O342 1.215 . S
C323 O343 1.289 . S
C324 C323 1.488 . S
C324 C325 1.348 . S
C324 C329 1.413 . S
C325 C324 1.348 . S
C325 C326 1.442 . S
C325 H352 0.930 . S
C326 C325 1.442 . S
C326 C327 1.381 . S
C326 H353 0.931 . S
C327 C326 1.381 . S
C327 C328 1.321 . S
C328 C327 1.321 . S
C328 C329 1.403 . S
C328 H354 0.934 . S
C329 C324 1.413 . S
C329 C328 1.403 . S
C329 H355 0.930 . S
C330 O344 1.275 . S
C330 O345 1.256 . S
C331 O346 1.259 . S
C331 O347 1.268 . S
C332 Ho321 2.811 . S
C332 C333 1.488 . S
C332 O348 1.215 . S
C332 O349 1.289 . S
C333 C332 1.488 . S
C333 C334 1.348 . S
C333 C338 1.413 . S
C334 C333 1.348 . S
C334 C335 1.442 . S
C334 H356 0.930 . S
C335 C334 1.442 . S
C335 C336 1.381 . S
C335 H357 0.931 . S
C336 C335 1.381 . S
C336 C337 1.321 . S
C337 C336 1.321 . S
C337 C338 1.403 . S
C337 H358 0.934 . S
C338 C333 1.413 . S
C338 C337 1.403 . S
C338 H359 0.930 . S
C339 O350 1.275 . S
C339 O351 1.256 . S
O340 Ho320 2.322 . S
O340 C322 1.259 . S
O341 Ho321 2.346 1_554 S
O341 C322 1.268 . S
O342 Ho320 2.378 . S
O342 C323 1.215 . S
O343 Ho320 2.524 . S
O343 C323 1.289 . S
O344 Ho320 2.381 1_556 S
O344 C330 1.275 . S
O345 Ho320 2.669 1_556 S
O345 Ho321 2.305 . S
O345 C330 1.256 . S
O346 Ho321 2.322 . S
O346 C331 1.259 . S
O347 Ho320 2.346 1_556 S
O347 C331 1.268 . S
O348 Ho321 2.378 . S
O348 C332 1.215 . S
O349 Ho321 2.524 . S
O349 C332 1.289 . S
O350 Ho321 2.381 1_554 S
O350 C339 1.275 . S
O351 Ho320 2.305 . S
O351 Ho321 2.669 1_554 S
O351 C339 1.256 . S
H352 C325 0.930 . S
H353 C326 0.931 . S
H354 C328 0.934 . S
H355 C329 0.930 . S
H356 C334 0.930 . S
H357 C335 0.931 . S
H358 C337 0.934 . S
H359 C338 0.930 . S
Ho360 C363 2.811 . S
Ho360 O380 2.322 . S
Ho360 O382 2.378 . S
Ho360 O383 2.524 . S
Ho360 O384 2.381 . S
Ho360 O385 2.669 . S
Ho360 O387 2.346 . S
Ho360 O391 2.305 . S
Ho361 C372 2.811 . S
Ho361 O381 2.346 . S
Ho361 O385 2.305 . S
Ho361 O386 2.322 . S
Ho361 O388 2.378 . S
Ho361 O389 2.524 . S
Ho361 O390 2.381 . S
Ho361 O391 2.669 . S
C362 O380 1.259 . S
C362 O381 1.268 . S
C363 Ho360 2.811 . S
C363 C364 1.488 . S
C363 O382 1.215 . S
C363 O383 1.289 . S
C364 C363 1.488 . S
C364 C365 1.348 . S
C364 C369 1.413 . S
C365 C364 1.348 . S
C365 C366 1.442 . S
C365 H392 0.930 . S
C366 C365 1.442 . S
C366 C367 1.381 . S
C366 H393 0.931 . S
C367 C366 1.381 . S
C367 C368 1.321 . S
C368 C367 1.321 . S
C368 C369 1.403 . S
C368 H394 0.934 . S
C369 C364 1.413 . S
C369 C368 1.403 . S
C369 H395 0.930 . S
C370 O384 1.275 . S
C370 O385 1.256 . S
C371 O386 1.259 . S
C371 O387 1.268 . S
C372 Ho361 2.811 . S
C372 C373 1.488 . S
C372 O388 1.215 . S
C372 O389 1.289 . S
C373 C372 1.488 . S
C373 C374 1.348 . S
C373 C378 1.413 . S
C374 C373 1.348 . S
C374 C375 1.442 . S
C374 H396 0.930 . S
C375 C374 1.442 . S
C375 C376 1.381 . S
C375 H397 0.931 . S
C376 C375 1.381 . S
C376 C377 1.321 . S
C377 C376 1.321 . S
C377 C378 1.403 . S
C377 H398 0.934 . S
C378 C373 1.413 . S
C378 C377 1.403 . S
C378 H399 0.930 . S
C379 O390 1.275 . S
C379 O391 1.256 . S
O380 Ho360 2.322 . S
O380 C362 1.259 . S
O381 Ho361 2.346 . S
O381 C362 1.268 . S
O382 Ho360 2.378 . S
O382 C363 1.215 . S
O383 Ho360 2.524 . S
O383 C363 1.289 . S
O384 Ho360 2.381 . S
O384 C370 1.275 . S
O385 Ho360 2.669 . S
O385 Ho361 2.305 . S
O385 C370 1.256 . S
O386 Ho361 2.322 . S
O386 C371 1.259 . S
O387 Ho360 2.346 . S
O387 C371 1.268 . S
O388 Ho361 2.378 . S
O388 C372 1.215 . S
O389 Ho361 2.524 . S
O389 C372 1.289 . S
O390 Ho361 2.381 . S
O390 C379 1.275 . S
O391 Ho360 2.305 . S
O391 Ho361 2.669 . S
O391 C379 1.256 . S
H392 C365 0.930 . S
H393 C366 0.931 . S
H394 C368 0.934 . S
H395 C369 0.930 . S
H396 C374 0.930 . S
H397 C375 0.931 . S
H398 C377 0.934 . S
H399 C378 0.930 . S
Ho400 C403 2.811 . S
Ho400 O420 2.322 . S
Ho400 O422 2.378 . S
Ho400 O423 2.524 . S
Ho400 O424 2.381 . S
Ho400 O425 2.669 . S
Ho400 O427 2.346 1_455 S
Ho400 O431 2.305 1_455 S
Ho401 C412 2.811 . S
Ho401 O421 2.346 1_655 S
Ho401 O425 2.305 1_655 S
Ho401 O426 2.322 . S
Ho401 O428 2.378 . S
Ho401 O429 2.524 . S
Ho401 O430 2.381 . S
Ho401 O431 2.669 . S
C402 O420 1.259 . S
C402 O421 1.268 . S
C403 Ho400 2.811 . S
C403 C404 1.488 . S
C403 O422 1.215 . S
C403 O423 1.289 . S
C404 C403 1.488 . S
C404 C405 1.348 . S
C404 C409 1.413 . S
C405 C404 1.348 . S
C405 C406 1.442 . S
C405 H432 0.930 . S
C406 C405 1.442 . S
C406 C407 1.381 . S
C406 H433 0.931 . S
C407 C406 1.381 . S
C407 C408 1.321 . S
C408 C407 1.321 . S
C408 C409 1.403 . S
C408 H434 0.934 . S
C409 C404 1.413 . S
C409 C408 1.403 . S
C409 H435 0.930 . S
C410 O424 1.275 . S
C410 O425 1.256 . S
C411 O426 1.259 . S
C411 O427 1.268 . S
C412 Ho401 2.811 . S
C412 C413 1.488 . S
C412 O428 1.215 . S
C412 O429 1.289 . S
C413 C412 1.488 . S
C413 C414 1.348 . S
C413 C418 1.413 . S
C414 C413 1.348 . S
C414 C415 1.442 . S
C414 H436 0.930 . S
C415 C414 1.442 . S
C415 C416 1.381 . S
C415 H437 0.931 . S
C416 C415 1.381 . S
C416 C417 1.321 . S
C417 C416 1.321 . S
C417 C418 1.403 . S
C417 H438 0.934 . S
C418 C413 1.413 . S
C418 C417 1.403 . S
C418 H439 0.930 . S
C419 O430 1.275 . S
C419 O431 1.256 . S
O420 Ho400 2.322 . S
O420 C402 1.259 . S
O421 Ho401 2.346 1_455 S
O421 C402 1.268 . S
O422 Ho400 2.378 . S
O422 C403 1.215 . S
O423 Ho400 2.524 . S
O423 C403 1.289 . S
O424 Ho400 2.381 . S
O424 C410 1.275 . S
O425 Ho400 2.669 . S
O425 Ho401 2.305 1_455 S
O425 C410 1.256 . S
O426 Ho401 2.322 . S
O426 C411 1.259 . S
O427 Ho400 2.346 1_655 S
O427 C411 1.268 . S
O428 Ho401 2.378 . S
O428 C412 1.215 . S
O429 Ho401 2.524 . S
O429 C412 1.289 . S
O430 Ho401 2.381 . S
O430 C419 1.275 . S
O431 Ho400 2.305 1_655 S
O431 Ho401 2.669 . S
O431 C419 1.256 . S
H432 C405 0.930 . S
H433 C406 0.931 . S
H434 C408 0.934 . S
H435 C409 0.930 . S
H436 C414 0.930 . S
H437 C415 0.931 . S
H438 C417 0.934 . S
H439 C418 0.930 . S
Ho440 C443 2.811 . S
Ho440 O460 2.322 . S
Ho440 O462 2.378 . S
Ho440 O463 2.524 . S
Ho440 O464 2.381 . S
Ho440 O465 2.669 . S
Ho440 O467 2.346 . S
Ho440 O471 2.305 . S
Ho441 C452 2.811 . S
Ho441 O461 2.346 . S
Ho441 O465 2.305 . S
Ho441 O466 2.322 . S
Ho441 O468 2.378 . S
Ho441 O469 2.524 . S
Ho441 O470 2.381 . S
Ho441 O471 2.669 . S
C442 O460 1.259 . S
C442 O461 1.268 . S
C443 Ho440 2.811 . S
C443 C444 1.488 . S
C443 O462 1.215 . S
C443 O463 1.289 . S
C444 C443 1.488 . S
C444 C445 1.348 . S
C444 C449 1.413 . S
C445 C444 1.348 . S
C445 C446 1.442 . S
C445 H472 0.930 . S
C446 C445 1.442 . S
C446 C447 1.381 . S
C446 H473 0.931 . S
C447 C446 1.381 . S
C447 C448 1.321 . S
C448 C447 1.321 . S
C448 C449 1.403 . S
C448 H474 0.934 . S
C449 C444 1.413 . S
C449 C448 1.403 . S
C449 H475 0.930 . S
C450 O464 1.275 . S
C450 O465 1.256 . S
C451 O466 1.259 . S
C451 O467 1.268 . S
C452 Ho441 2.811 . S
C452 C453 1.488 . S
C452 O468 1.215 . S
C452 O469 1.289 . S
C453 C452 1.488 . S
C453 C454 1.348 . S
C453 C458 1.413 . S
C454 C453 1.348 . S
C454 C455 1.442 . S
C454 H476 0.930 . S
C455 C454 1.442 . S
C455 C456 1.381 . S
C455 H477 0.931 . S
C456 C455 1.381 . S
C456 C457 1.321 . S
C457 C456 1.321 . S
C457 C458 1.403 . S
C457 H478 0.934 . S
C458 C453 1.413 . S
C458 C457 1.403 . S
C458 H479 0.930 . S
C459 O470 1.275 . S
C459 O471 1.256 . S
O460 Ho440 2.322 . S
O460 C442 1.259 . S
O461 Ho441 2.346 . S
O461 C442 1.268 . S
O462 Ho440 2.378 . S
O462 C443 1.215 . S
O463 Ho440 2.524 . S
O463 C443 1.289 . S
O464 Ho440 2.381 . S
O464 C450 1.275 . S
O465 Ho440 2.669 . S
O465 Ho441 2.305 . S
O465 C450 1.256 . S
O466 Ho441 2.322 . S
O466 C451 1.259 . S
O467 Ho440 2.346 . S
O467 C451 1.268 . S
O468 Ho441 2.378 . S
O468 C452 1.215 . S
O469 Ho441 2.524 . S
O469 C452 1.289 . S
O470 Ho441 2.381 . S
O470 C459 1.275 . S
O471 Ho440 2.305 . S
O471 Ho441 2.669 . S
O471 C459 1.256 . S
H472 C445 0.930 . S
H473 C446 0.931 . S
H474 C448 0.934 . S
H475 C449 0.930 . S
H476 C454 0.930 . S
H477 C455 0.931 . S
H478 C457 0.934 . S
H479 C458 0.930 . S
Ho480 C483 2.811 . S
Ho480 O500 2.322 . S
Ho480 O502 2.378 . S
Ho480 O503 2.524 . S
Ho480 O504 2.381 . S
Ho480 O505 2.669 . S
Ho480 O507 2.346 . S
Ho480 O511 2.305 . S
Ho481 C492 2.811 . S
Ho481 O501 2.346 . S
Ho481 O505 2.305 . S
Ho481 O506 2.322 . S
Ho481 O508 2.378 . S
Ho481 O509 2.524 . S
Ho481 O510 2.381 . S
Ho481 O511 2.669 . S
C482 O500 1.259 . S
C482 O501 1.268 . S
C483 Ho480 2.811 . S
C483 C484 1.488 . S
C483 O502 1.215 . S
C483 O503 1.289 . S
C484 C483 1.488 . S
C484 C485 1.348 . S
C484 C489 1.413 . S
C485 C484 1.348 . S
C485 C486 1.442 . S
C485 H512 0.930 . S
C486 C485 1.442 . S
C486 C487 1.381 . S
C486 H513 0.931 1_556 S
C487 C486 1.381 . S
C487 C488 1.321 . S
C488 C487 1.321 . S
C488 C489 1.403 . S
C488 H514 0.934 . S
C489 C484 1.413 . S
C489 C488 1.403 . S
C489 H515 0.930 . S
C490 O504 1.275 . S
C490 O505 1.256 . S
C491 O506 1.259 . S
C491 O507 1.268 . S
C492 Ho481 2.811 . S
C492 C493 1.488 . S
C492 O508 1.215 . S
C492 O509 1.289 . S
C493 C492 1.488 . S
C493 C494 1.348 . S
C493 C498 1.413 . S
C494 C493 1.348 . S
C494 C495 1.442 . S
C494 H516 0.930 . S
C495 C494 1.442 . S
C495 C496 1.381 . S
C495 H517 0.931 . S
C496 C495 1.381 . S
C496 C497 1.321 . S
C497 C496 1.321 . S
C497 C498 1.403 . S
C497 H518 0.934 . S
C498 C493 1.413 . S
C498 C497 1.403 . S
C498 H519 0.930 . S
C499 O510 1.275 . S
C499 O511 1.256 . S
O500 Ho480 2.322 . S
O500 C482 1.259 . S
O501 Ho481 2.346 . S
O501 C482 1.268 . S
O502 Ho480 2.378 . S
O502 C483 1.215 . S
O503 Ho480 2.524 . S
O503 C483 1.289 . S
O504 Ho480 2.381 . S
O504 C490 1.275 . S
O505 Ho480 2.669 . S
O505 Ho481 2.305 . S
O505 C490 1.256 . S
O506 Ho481 2.322 . S
O506 C491 1.259 . S
O507 Ho480 2.346 . S
O507 C491 1.268 . S
O508 Ho481 2.378 . S
O508 C492 1.215 . S
O509 Ho481 2.524 . S
O509 C492 1.289 . S
O510 Ho481 2.381 . S
O510 C499 1.275 . S
O511 Ho480 2.305 . S
O511 Ho481 2.669 . S
O511 C499 1.256 . S
H512 C485 0.930 . S
H513 C486 0.931 1_554 S
H514 C488 0.934 . S
H515 C489 0.930 . S
H516 C494 0.930 . S
H517 C495 0.931 . S
H518 C497 0.934 . S
H519 C498 0.930 . S
Ho520 C523 2.811 . S
Ho520 O540 2.322 . S
Ho520 O542 2.378 . S
Ho520 O543 2.524 . S
Ho520 O544 2.381 . S
Ho520 O545 2.669 . S
Ho520 O547 2.346 . S
Ho520 O551 2.305 . S
Ho521 C532 2.811 . S
Ho521 O541 2.346 . S
Ho521 O545 2.305 . S
Ho521 O546 2.322 . S
Ho521 O548 2.378 . S
Ho521 O549 2.524 . S
Ho521 O550 2.381 . S
Ho521 O551 2.669 . S
C522 O540 1.259 . S
C522 O541 1.268 . S
C523 Ho520 2.811 . S
C523 C524 1.488 . S
C523 O542 1.215 . S
C523 O543 1.289 . S
C524 C523 1.488 . S
C524 C525 1.348 . S
C524 C529 1.413 . S
C525 C524 1.348 . S
C525 C526 1.442 . S
C525 H552 0.930 . S
C526 C525 1.442 . S
C526 C527 1.381 . S
C526 H553 0.931 . S
C527 C526 1.381 . S
C527 C528 1.321 . S
C528 C527 1.321 . S
C528 C529 1.403 . S
C528 H554 0.934 . S
C529 C524 1.413 . S
C529 C528 1.403 . S
C529 H555 0.930 . S
C530 O544 1.275 . S
C530 O545 1.256 . S
C531 O546 1.259 . S
C531 O547 1.268 . S
C532 Ho521 2.811 . S
C532 C533 1.488 . S
C532 O548 1.215 . S
C532 O549 1.289 . S
C533 C532 1.488 . S
C533 C534 1.348 . S
C533 C538 1.413 . S
C534 C533 1.348 . S
C534 C535 1.442 . S
C534 H556 0.930 . S
C535 C534 1.442 . S
C535 C536 1.381 . S
C535 H557 0.931 . S
C536 C535 1.381 . S
C536 C537 1.321 . S
C537 C536 1.321 . S
C537 C538 1.403 . S
C537 H558 0.934 . S
C538 C533 1.413 . S
C538 C537 1.403 . S
C538 H559 0.930 . S
C539 O550 1.275 . S
C539 O551 1.256 . S
O540 Ho520 2.322 . S
O540 C522 1.259 . S
O541 Ho521 2.346 . S
O541 C522 1.268 . S
O542 Ho520 2.378 . S
O542 C523 1.215 . S
O543 Ho520 2.524 . S
O543 C523 1.289 . S
O544 Ho520 2.381 . S
O544 C530 1.275 . S
O545 Ho520 2.669 . S
O545 Ho521 2.305 . S
O545 C530 1.256 . S
O546 Ho521 2.322 . S
O546 C531 1.259 . S
O547 Ho520 2.346 . S
O547 C531 1.268 . S
O548 Ho521 2.378 . S
O548 C532 1.215 . S
O549 Ho521 2.524 . S
O549 C532 1.289 . S
O550 Ho521 2.381 . S
O550 C539 1.275 . S
O551 Ho520 2.305 . S
O551 Ho521 2.669 . S
O551 C539 1.256 . S
H552 C525 0.930 . S
H553 C526 0.931 . S
H554 C528 0.934 . S
H555 C529 0.930 . S
H556 C534 0.930 . S
H557 C535 0.931 . S
H558 C537 0.934 . S
H559 C538 0.930 . S
Ho560 C563 2.811 . S
Ho560 O580 2.322 . S
Ho560 O582 2.378 . S
Ho560 O583 2.524 . S
Ho560 O584 2.381 . S
Ho560 O585 2.669 . S
Ho560 O587 2.346 . S
Ho560 O591 2.305 . S
Ho561 C572 2.811 . S
Ho561 O581 2.346 . S
Ho561 O585 2.305 . S
Ho561 O586 2.322 . S
Ho561 O588 2.378 . S
Ho561 O589 2.524 . S
Ho561 O590 2.381 . S
Ho561 O591 2.669 . S
C562 O580 1.259 . S
C562 O581 1.268 . S
C563 Ho560 2.811 . S
C563 C564 1.488 . S
C563 O582 1.215 . S
C563 O583 1.289 . S
C564 C563 1.488 . S
C564 C565 1.348 . S
C564 C569 1.413 . S
C565 C564 1.348 . S
C565 C566 1.442 . S
C565 H592 0.930 . S
C566 C565 1.442 . S
C566 C567 1.381 . S
C566 H593 0.931 . S
C567 C566 1.381 . S
C567 C568 1.321 . S
C568 C567 1.321 . S
C568 C569 1.403 . S
C568 H594 0.934 . S
C569 C564 1.413 . S
C569 C568 1.403 . S
C569 H595 0.930 . S
C570 O584 1.275 . S
C570 O585 1.256 . S
C571 O586 1.259 . S
C571 O587 1.268 . S
C572 Ho561 2.811 . S
C572 C573 1.488 . S
C572 O588 1.215 . S
C572 O589 1.289 . S
C573 C572 1.488 . S
C573 C574 1.348 . S
C573 C578 1.413 . S
C574 C573 1.348 . S
C574 C575 1.442 . S
C574 H596 0.930 . S
C575 C574 1.442 . S
C575 C576 1.381 . S
C575 H597 0.931 . S
C576 C575 1.381 . S
C576 C577 1.321 . S
C577 C576 1.321 . S
C577 C578 1.403 . S
C577 H598 0.934 . S
C578 C573 1.413 . S
C578 C577 1.403 . S
C578 H599 0.930 . S
C579 O590 1.275 . S
C579 O591 1.256 . S
O580 Ho560 2.322 . S
O580 C562 1.259 . S
O581 Ho561 2.346 . S
O581 C562 1.268 . S
O582 Ho560 2.378 . S
O582 C563 1.215 . S
O583 Ho560 2.524 . S
O583 C563 1.289 . S
O584 Ho560 2.381 . S
O584 C570 1.275 . S
O585 Ho560 2.669 . S
O585 Ho561 2.305 . S
O585 C570 1.256 . S
O586 Ho561 2.322 . S
O586 C571 1.259 . S
O587 Ho560 2.346 . S
O587 C571 1.268 . S
O588 Ho561 2.378 . S
O588 C572 1.215 . S
O589 Ho561 2.524 . S
O589 C572 1.289 . S
O590 Ho561 2.381 . S
O590 C579 1.275 . S
O591 Ho560 2.305 . S
O591 Ho561 2.669 . S
O591 C579 1.256 . S
H592 C565 0.930 . S
H593 C566 0.931 . S
H594 C568 0.934 . S
H595 C569 0.930 . S
H596 C574 0.930 . S
H597 C575 0.931 . S
H598 C577 0.934 . S
H599 C578 0.930 . S
Ho600 C603 2.811 . S
Ho600 O620 2.322 1_554 S
Ho600 O622 2.378 . S
Ho600 O623 2.524 . S
Ho600 O624 2.381 1_554 S
Ho600 O625 2.669 1_554 S
Ho600 O627 2.346 1_655 S
Ho600 O631 2.305 1_655 S
Ho601 C612 2.811 . S
Ho601 O621 2.352 . S
Ho601 O625 2.305 1_455 S
Ho601 O626 2.322 1_556 S
Ho601 O628 2.378 . S
Ho601 O629 2.524 . S
Ho601 O630 2.381 1_556 S
Ho601 O631 2.669 1_556 S
C602 O620 1.259 . S
C602 O621 1.261 1_655 S
C603 Ho600 2.811 . S
C603 C604 1.488 . S
C603 O622 1.215 . S
C603 O623 1.289 . S
C604 C603 1.488 . S
C604 C605 1.348 . S
C604 C609 1.413 . S
C605 C604 1.348 . S
C605 C606 1.442 . S
C605 H632 0.930 . S
C606 C605 1.442 . S
C606 C607 1.381 . S
C606 H633 0.931 . S
C607 C606 1.381 . S
C607 C608 1.321 . S
C608 C607 1.321 . S
C608 C609 1.403 . S
C608 H634 0.934 . S
C609 C604 1.413 . S
C609 C608 1.403 . S
C609 H635 0.930 . S
C610 O624 1.275 . S
C610 O625 1.256 . S
C611 O626 1.259 . S
C611 O627 1.268 . S
C612 Ho601 2.811 . S
C612 C613 1.488 . S
C612 O628 1.215 . S
C612 O629 1.289 . S
C613 C612 1.488 . S
C613 C614 1.348 . S
C613 C618 1.413 . S
C614 C613 1.348 . S
C614 C615 1.442 . S
C614 H636 0.930 . S
C615 C614 1.442 . S
C615 C616 1.381 . S
C615 H637 0.931 . S
C616 C615 1.381 . S
C616 C617 1.321 . S
C617 C616 1.321 . S
C617 C618 1.403 . S
C617 H638 0.934 . S
C618 C613 1.413 . S
C618 C617 1.403 . S
C618 H639 0.930 . S
C619 O630 1.275 . S
C619 O631 1.256 . S
O620 Ho600 2.322 1_556 S
O620 C602 1.259 . S
O621 Ho601 2.352 . S
O621 C602 1.261 1_455 S
O622 Ho600 2.378 . S
O622 C603 1.215 . S
O623 Ho600 2.524 . S
O623 C603 1.289 . S
O624 Ho600 2.381 1_556 S
O624 C610 1.275 . S
O625 Ho600 2.669 1_556 S
O625 Ho601 2.305 1_655 S
O625 C610 1.256 . S
O626 Ho601 2.322 1_554 S
O626 C611 1.259 . S
O627 Ho600 2.346 1_455 S
O627 C611 1.268 . S
O628 Ho601 2.378 . S
O628 C612 1.215 . S
O629 Ho601 2.524 . S
O629 C612 1.289 . S
O630 Ho601 2.381 1_554 S
O630 C619 1.275 . S
O631 Ho600 2.305 1_455 S
O631 Ho601 2.669 1_554 S
O631 C619 1.256 . S
H632 C605 0.930 . S
H633 C606 0.931 . S
H634 C608 0.934 . S
H635 C609 0.930 . S
H636 C614 0.930 . S
H637 C615 0.931 . S
H638 C617 0.934 . S
H639 C618 0.930 . S
C640 C641 1.363 . S
C640 C646 1.379 . S
C640 N648 1.356 . S
C641 C640 1.363 . S
C641 C647 1.363 . S
C642 C643 1.363 . S
C642 C647 1.379 . S
C642 N649 1.356 . S
C643 C642 1.363 . S
C643 C646 1.363 . S
N644 C646 1.356 . S
N644 H656 0.984 . S
N644 H657 0.985 . S
N645 C647 1.356 . S
N645 H650 0.984 . S
N645 H651 0.985 . S
C646 C640 1.379 . S
C646 C643 1.363 . S
C646 N644 1.356 . S
C647 C641 1.363 . S
C647 C642 1.379 . S
C647 N645 1.356 . S
N648 C640 1.356 . S
N648 H654 0.984 . S
N648 H655 0.984 . S
N649 C642 1.356 . S
N649 H652 0.984 . S
N649 H653 0.985 . S
H650 N645 0.984 . S
H651 N645 0.985 . S
H652 N649 0.984 . S
H653 N649 0.985 . S
H654 N648 0.984 . S
H655 N648 0.984 . S
H656 N644 0.984 . S
H657 N644 0.985 . S
C658 C659 1.363 . S
C658 C664 1.379 1_554 S
C658 N666 1.356 1_564 S
C659 C658 1.363 . S
C659 C665 1.363 . S
C660 C661 1.363 . S
C660 C665 1.379 . S
C660 N667 1.356 . S
C661 C660 1.363 . S
C661 C664 1.363 1_554 S
N662 C664 1.356 . S
N662 H674 0.984 . S
N662 H675 0.985 . S
N663 C665 1.356 . S
N663 H668 0.984 . S
N663 H669 0.985 . S
C664 C658 1.379 1_556 S
C664 C661 1.363 1_556 S
C664 N662 1.356 . S
C665 C659 1.363 . S
C665 C660 1.379 . S
C665 N663 1.356 . S
N666 C658 1.356 1_546 S
N666 H672 0.984 . S
N666 H673 0.984 1_556 S
N667 C660 1.356 . S
N667 H670 0.984 . S
N667 H671 0.985 . S
H668 N663 0.984 . S
H669 N663 0.985 . S
H670 N667 0.984 . S
H671 N667 0.985 . S
H672 N666 0.984 . S
H673 N666 0.984 1_554 S
H674 N662 0.984 . S
H675 N662 0.985 . S
C676 C677 1.363 . S
C676 C682 1.379 . S
C676 N684 1.356 . S
C677 C676 1.363 . S
C677 C683 1.363 . S
C678 C679 1.363 . S
C678 C683 1.379 . S
C678 N685 1.356 . S
C679 C678 1.363 . S
C679 C682 1.363 . S
N680 C682 1.356 . S
N680 H692 0.984 . S
N680 H693 0.985 . S
N681 C683 1.356 . S
N681 H686 0.984 . S
N681 H687 0.985 . S
C682 C676 1.379 . S
C682 C679 1.363 . S
C682 N680 1.356 . S
C683 C677 1.363 . S
C683 C678 1.379 . S
C683 N681 1.356 . S
N684 C676 1.356 . S
N684 H690 0.984 . S
N684 H691 0.984 . S
N685 C678 1.356 . S
N685 H688 0.984 . S
N685 H689 0.985 . S
H686 N681 0.984 . S
H687 N681 0.985 . S
H688 N685 0.984 . S
H689 N685 0.985 . S
H690 N684 0.984 . S
H691 N684 0.984 . S
H692 N680 0.984 . S
H693 N680 0.985 . S
C694 C695 1.363 . S
C694 C700 1.379 . S
C694 N702 1.356 . S
C695 C694 1.363 . S
C695 C701 1.363 . S
C696 C697 1.363 . S
C696 C701 1.379 . S
C696 N703 1.356 . S
C697 C696 1.363 . S
C697 C700 1.363 . S
N698 C700 1.356 . S
N698 H710 0.984 . S
N698 H711 0.985 . S
N699 C701 1.356 . S
N699 H704 0.984 . S
N699 H705 0.985 . S
C700 C694 1.379 . S
C700 C697 1.363 . S
C700 N698 1.356 . S
C701 C695 1.363 . S
C701 C696 1.379 . S
C701 N699 1.356 . S
N702 C694 1.356 . S
N702 H708 0.984 . S
N702 H709 0.984 . S
N703 C696 1.356 . S
N703 H706 0.984 . S
N703 H707 0.985 . S
H704 N699 0.984 . S
H705 N699 0.985 . S
H706 N703 0.984 . S
H707 N703 0.985 . S
H708 N702 0.984 . S
H709 N702 0.984 . S
H710 N698 0.984 . S
H711 N698 0.985 . S
C712 C713 1.363 . S
C712 C718 1.379 . S
C712 N720 1.356 . S
C713 C712 1.363 . S
C713 C719 1.363 . S
C714 C715 1.363 . S
C714 C719 1.379 . S
C714 N721 1.356 . S
C715 C714 1.363 . S
C715 C718 1.363 . S
N716 C718 1.356 . S
N716 H728 0.984 . S
N716 H729 0.985 . S
N717 C719 1.356 . S
N717 H722 0.984 . S
N717 H723 0.985 . S
C718 C712 1.379 . S
C718 C715 1.363 . S
C718 N716 1.356 . S
C719 C713 1.363 . S
C719 C714 1.379 . S
C719 N717 1.356 . S
N720 C712 1.356 . S
N720 H726 0.984 . S
N720 H727 0.984 . S
N721 C714 1.356 . S
N721 H724 0.984 . S
N721 H725 0.985 . S
H722 N717 0.984 . S
H723 N717 0.985 . S
H724 N721 0.984 . S
H725 N721 0.985 . S
H726 N720 0.984 . S
H727 N720 0.984 . S
H728 N716 0.984 . S
H729 N716 0.985 . S
C730 C731 1.363 . S
C730 C736 1.379 . S
C730 N738 1.356 . S
C731 C730 1.363 . S
C731 C737 1.363 . S
C732 C733 1.363 . S
C732 C737 1.379 . S
C732 N739 1.356 . S
C733 C732 1.363 . S
C733 C736 1.363 . S
N734 C736 1.356 . S
N734 H746 0.984 . S
N734 H747 0.985 . S
N735 C737 1.356 . S
N735 H740 0.984 . S
N735 H741 0.985 . S
C736 C730 1.379 . S
C736 C733 1.363 . S
C736 N734 1.356 . S
C737 C731 1.363 . S
C737 C732 1.379 . S
C737 N735 1.356 . S
N738 C730 1.356 . S
N738 H744 0.984 . S
N738 H745 0.984 . S
N739 C732 1.356 . S
N739 H742 0.984 . S
N739 H743 0.985 1_565 S
H740 N735 0.984 . S
H741 N735 0.985 . S
H742 N739 0.984 . S
H743 N739 0.985 1_545 S
H744 N738 0.984 . S
H745 N738 0.984 . S
H746 N734 0.984 . S
H747 N734 0.985 . S
C748 C749 1.363 . S
C748 C754 1.379 . S
C748 N756 1.356 1_545 S
C749 C748 1.363 . S
C749 C755 1.363 . S
C750 C751 1.363 . S
C750 C755 1.379 . S
C750 N757 1.356 . S
C751 C750 1.363 . S
C751 C754 1.363 . S
N752 C754 1.356 1_565 S
N752 H764 0.984 . S
N752 H765 0.985 . S
N753 C755 1.356 . S
N753 H758 0.984 . S
N753 H759 0.985 . S
C754 C748 1.379 . S
C754 C751 1.363 . S
C754 N752 1.356 1_545 S
C755 C749 1.363 . S
C755 C750 1.379 . S
C755 N753 1.356 . S
N756 C748 1.356 1_565 S
N756 H762 0.984 . S
N756 H763 0.984 1_565 S
N757 C750 1.356 . S
N757 H760 0.984 . S
N757 H761 0.985 . S
H758 N753 0.984 . S
H759 N753 0.985 . S
H760 N757 0.984 . S
H761 N757 0.985 . S
H762 N756 0.984 . S
H763 N756 0.984 1_545 S
H764 N752 0.984 . S
H765 N752 0.985 . S
C766 C767 1.363 . S
C766 C772 1.379 . S
C766 N774 1.356 . S
C767 C766 1.363 . S
C767 C773 1.363 . S
C768 C769 1.363 . S
C768 C773 1.379 . S
C768 N775 1.356 . S
C769 C768 1.363 . S
C769 C772 1.363 . S
N770 C772 1.356 . S
N770 H782 0.984 . S
N770 H783 0.985 . S
N771 C773 1.356 . S
N771 H776 0.984 . S
N771 H777 0.985 . S
C772 C766 1.379 . S
C772 C769 1.363 . S
C772 N770 1.356 . S
C773 C767 1.363 . S
C773 C768 1.379 . S
C773 N771 1.356 . S
N774 C766 1.356 . S
N774 H780 0.984 . S
N774 H781 0.984 . S
N775 C768 1.356 . S
N775 H778 0.984 . S
N775 H779 0.985 . S
H776 N771 0.984 . S
H777 N771 0.985 . S
H778 N775 0.984 . S
H779 N775 0.985 . S
H780 N774 0.984 . S
H781 N774 0.984 . S
H782 N770 0.984 . S
H783 N770 0.985 . S
C784 C785 1.363 . S
C784 C790 1.379 . S
C784 N792 1.356 . S
C785 C784 1.363 . S
C785 C791 1.363 . S
C786 C787 1.363 . S
C786 C791 1.379 . S
C786 N793 1.356 . S
C787 C786 1.363 . S
C787 C790 1.363 . S
N788 C790 1.356 . S
N788 H800 0.984 . S
N788 H801 0.985 . S
N789 C791 1.356 . S
N789 H794 0.984 . S
N789 H795 0.985 . S
C790 C784 1.379 . S
C790 C787 1.363 . S
C790 N788 1.356 . S
C791 C785 1.363 . S
C791 C786 1.379 . S
C791 N789 1.356 . S
N792 C784 1.356 . S
N792 H798 0.984 . S
N792 H799 0.984 . S
N793 C786 1.356 . S
N793 H796 0.984 . S
N793 H797 0.985 . S
H794 N789 0.984 . S
H795 N789 0.985 . S
H796 N793 0.984 . S
H797 N793 0.985 . S
H798 N792 0.984 . S
H799 N792 0.984 . S
H800 N788 0.984 . S
H801 N788 0.985 . S
C802 C803 1.363 . S
C802 C808 1.379 . S
C802 N810 1.356 . S
C803 C802 1.363 . S
C803 C809 1.363 . S
C804 C805 1.363 . S
C804 C809 1.379 . S
C804 N811 1.356 . S
C805 C804 1.363 . S
C805 C808 1.363 . S
N806 C808 1.356 . S
N806 H818 0.984 . S
N806 H819 0.985 . S
N807 C809 1.356 . S
N807 H812 0.984 . S
N807 H813 0.985 . S
C808 C802 1.379 . S
C808 C805 1.363 . S
C808 N806 1.356 . S
C809 C803 1.363 . S
C809 C804 1.379 . S
C809 N807 1.356 . S
N810 C802 1.356 . S
N810 H816 0.984 . S
N810 H817 0.984 . S
N811 C804 1.356 . S
N811 H814 0.984 . S
N811 H815 0.985 . S
H812 N807 0.984 . S
H813 N807 0.985 . S
H814 N811 0.984 . S
H815 N811 0.985 . S
H816 N810 0.984 . S
H817 N810 0.984 . S
H818 N806 0.984 . S
H819 N806 0.985 . S
C820 C821 1.363 . S
C820 C826 1.379 . S
C820 N828 1.356 . S
C821 C820 1.363 . S
C821 C827 1.363 . S
C822 C823 1.363 . S
C822 C827 1.379 . S
C822 N829 1.356 . S
C823 C822 1.363 . S
C823 C826 1.363 . S
N824 C826 1.356 . S
N824 H836 0.984 . S
N824 H837 0.985 . S
N825 C827 1.356 . S
N825 H830 0.984 . S
N825 H831 0.985 . S
C826 C820 1.379 . S
C826 C823 1.363 . S
C826 N824 1.356 . S
C827 C821 1.363 . S
C827 C822 1.379 . S
C827 N825 1.356 . S
N828 C820 1.356 . S
N828 H834 0.984 . S
N828 H835 0.984 . S
N829 C822 1.356 . S
N829 H832 0.984 . S
N829 H833 0.985 . S
H830 N825 0.984 . S
H831 N825 0.985 . S
H832 N829 0.984 . S
H833 N829 0.985 . S
H834 N828 0.984 . S
H835 N828 0.984 . S
H836 N824 0.984 . S
H837 N824 0.985 . S
C838 C839 1.363 . S
C838 C844 1.379 . S
C838 N846 1.356 . S
C839 C838 1.363 . S
C839 C845 1.363 . S
C840 C841 1.363 . S
C840 C845 1.379 . S
C840 N847 1.356 . S
C841 C840 1.363 . S
C841 C844 1.363 . S
N842 C844 1.356 . S
N842 H854 0.984 . S
N842 H855 0.985 . S
N843 C845 1.356 . S
N843 H848 0.984 . S
N843 H849 0.985 . S
C844 C838 1.379 . S
C844 C841 1.363 . S
C844 N842 1.356 . S
C845 C839 1.363 . S
C845 C840 1.379 . S
C845 N843 1.356 . S
N846 C838 1.356 . S
N846 H852 0.984 . S
N846 H853 0.984 . S
N847 C840 1.356 . S
N847 H850 0.984 . S
N847 H851 0.985 . S
H848 N843 0.984 . S
H849 N843 0.985 . S
H850 N847 0.984 . S
H851 N847 0.985 . S
H852 N846 0.984 . S
H853 N846 0.984 . S
H854 N842 0.984 . S
H855 N842 0.985 . S
C856 C857 1.363 . S
C856 C862 1.379 . S
C856 N864 1.356 . S
C857 C856 1.363 . S
C857 C863 1.363 . S
C858 C859 1.363 . S
C858 C863 1.379 . S
C858 N865 1.356 . S
C859 C858 1.363 . S
C859 C862 1.363 . S
N860 C862 1.356 . S
N860 H872 0.984 . S
N860 H873 0.985 . S
N861 C863 1.356 . S
N861 H866 0.984 . S
N861 H867 0.985 . S
C862 C856 1.379 . S
C862 C859 1.363 . S
C862 N860 1.356 . S
C863 C857 1.363 . S
C863 C858 1.379 . S
C863 N861 1.356 . S
N864 C856 1.356 . S
N864 H870 0.984 . S
N864 H871 0.984 . S
N865 C858 1.356 . S
N865 H868 0.984 . S
N865 H869 0.985 . S
H866 N861 0.984 . S
H867 N861 0.985 . S
H868 N865 0.984 . S
H869 N865 0.985 . S
H870 N864 0.984 . S
H871 N864 0.984 . S
H872 N860 0.984 . S
H873 N860 0.985 . S
C874 C875 1.363 . S
C874 C880 1.379 . S
C874 N882 1.356 . S
C875 C874 1.363 . S
C875 C881 1.363 . S
C876 C877 1.363 . S
C876 C881 1.379 . S
C876 N883 1.356 . S
C877 C876 1.363 . S
C877 C880 1.363 . S
N878 C880 1.356 . S
N878 H890 0.984 . S
N878 H891 0.985 . S
N879 C881 1.356 . S
N879 H884 0.984 . S
N879 H885 0.985 . S
C880 C874 1.379 . S
C880 C877 1.363 . S
C880 N878 1.356 . S
C881 C875 1.363 . S
C881 C876 1.379 . S
C881 N879 1.356 . S
N882 C874 1.356 . S
N882 H888 0.984 . S
N882 H889 0.984 . S
N883 C876 1.356 . S
N883 H886 0.984 . S
N883 H887 0.985 . S
H884 N879 0.984 . S
H885 N879 0.985 . S
H886 N883 0.984 . S
H887 N883 0.985 . S
H888 N882 0.984 . S
H889 N882 0.984 . S
H890 N878 0.984 . S
H891 N878 0.985 . S
C892 C893 1.363 . S
C892 C898 1.379 . S
C892 N900 1.356 . S
C893 C892 1.363 . S
C893 C899 1.363 . S
C894 C895 1.363 . S
C894 C899 1.379 . S
C894 N901 1.356 . S
C895 C894 1.363 . S
C895 C898 1.363 . S
N896 C898 1.356 . S
N896 H908 0.984 . S
N896 H909 0.985 . S
N897 C899 1.356 . S
N897 H902 0.984 . S
N897 H903 0.985 . S
C898 C892 1.379 . S
C898 C895 1.363 . S
C898 N896 1.356 . S
C899 C893 1.363 . S
C899 C894 1.379 . S
C899 N897 1.356 . S
N900 C892 1.356 . S
N900 H906 0.984 1_545 S
N900 H907 0.984 . S
N901 C894 1.356 . S
N901 H904 0.984 . S
N901 H905 0.985 . S
H902 N897 0.984 . S
H903 N897 0.985 . S
H904 N901 0.984 . S
H905 N901 0.985 . S
H906 N900 0.984 1_565 S
H907 N900 0.984 . S
H908 N896 0.984 . S
H909 N896 0.985 . S
C910 C911 1.363 . S
C910 C916 1.379 . S
C910 N918 1.356 . S
C911 C910 1.363 . S
C911 C917 1.363 . S
C912 C913 1.363 . S
C912 C917 1.379 . S
C912 N919 1.356 . S
C913 C912 1.363 . S
C913 C916 1.363 . S
N914 C916 1.356 . S
N914 H926 0.984 . S
N914 H927 0.985 . S
N915 C917 1.356 . S
N915 H920 0.984 . S
N915 H921 0.985 . S
C916 C910 1.379 . S
C916 C913 1.363 . S
C916 N914 1.356 . S
C917 C911 1.363 . S
C917 C912 1.379 . S
C917 N915 1.356 . S
N918 C910 1.356 . S
N918 H924 0.984 . S
N918 H925 0.984 . S
N919 C912 1.356 . S
N919 H922 0.984 . S
N919 H923 0.985 . S
H920 N915 0.984 . S
H921 N915 0.985 . S
H922 N919 0.984 . S
H923 N919 0.985 . S
H924 N918 0.984 . S
H925 N918 0.984 . S
H926 N914 0.984 . S
H927 N914 0.985 . S
C928 C929 1.363 . S
C928 C934 1.379 . S
C928 N936 1.356 . S
C929 C928 1.363 . S
C929 C935 1.363 . S
C930 C931 1.363 . S
C930 C935 1.379 . S
C930 N937 1.356 . S
C931 C930 1.363 . S
C931 C934 1.363 . S
N932 C934 1.356 . S
N932 H944 0.984 . S
N932 H945 0.985 . S
N933 C935 1.356 . S
N933 H938 0.984 . S
N933 H939 0.985 . S
C934 C928 1.379 . S
C934 C931 1.363 . S
C934 N932 1.356 . S
C935 C929 1.363 . S
C935 C930 1.379 . S
C935 N933 1.356 . S
N936 C928 1.356 . S
N936 H942 0.984 . S
N936 H943 0.984 . S
N937 C930 1.356 . S
N937 H940 0.984 . S
N937 H941 0.985 . S
H938 N933 0.984 . S
H939 N933 0.985 . S
H940 N937 0.984 . S
H941 N937 0.985 . S
H942 N936 0.984 . S
H943 N936 0.984 . S
H944 N932 0.984 . S
H945 N932 0.985 . S
C946 C947 1.363 . S
C946 C952 1.379 . S
C946 N954 1.356 . S
C947 C946 1.363 . S
C947 C953 1.363 . S
C948 C949 1.363 . S
C948 C953 1.379 . S
C948 N955 1.356 . S
C949 C948 1.363 . S
C949 C952 1.363 . S
N950 C952 1.356 . S
N950 H962 0.984 . S
N950 H963 0.985 . S
N951 C953 1.356 . S
N951 H956 0.984 . S
N951 H957 0.985 . S
C952 C946 1.379 . S
C952 C949 1.363 . S
C952 N950 1.356 . S
C953 C947 1.363 . S
C953 C948 1.379 . S
C953 N951 1.356 . S
N954 C946 1.356 . S
N954 H960 0.984 . S
N954 H961 0.984 . S
N955 C948 1.356 . S
N955 H958 0.984 . S
N955 H959 0.985 . S
H956 N951 0.984 . S
H957 N951 0.985 . S
H958 N955 0.984 . S
H959 N955 0.985 . S
H960 N954 0.984 . S
H961 N954 0.984 . S
H962 N950 0.984 . S
H963 N950 0.985 . S
C964 C965 1.363 . S
C964 C970 1.379 . S
C964 N972 1.356 . S
C965 C964 1.363 . S
C965 C971 1.363 . S
C966 C967 1.363 . S
C966 C971 1.379 . S
C966 N973 1.356 . S
C967 C966 1.363 . S
C967 C970 1.363 . S
N968 C970 1.356 . S
N968 H980 0.984 . S
N968 H981 0.985 . S
N969 C971 1.356 . S
N969 H974 0.984 . S
N969 H975 0.985 . S
C970 C964 1.379 . S
C970 C967 1.363 . S
C970 N968 1.356 . S
C971 C965 1.363 . S
C971 C966 1.379 . S
C971 N969 1.356 . S
N972 C964 1.356 . S
N972 H978 0.984 . S
N972 H979 0.984 . S
N973 C966 1.356 . S
N973 H976 0.984 . S
N973 H977 0.985 . S
H974 N969 0.984 . S
H975 N969 0.985 . S
H976 N973 0.984 . S
H977 N973 0.985 . S
H978 N972 0.984 . S
H979 N972 0.984 . S
H980 N968 0.984 . S
H981 N968 0.985 . S
C982 C983 1.363 . S
C982 C988 1.379 . S
C982 N990 1.356 . S
C983 C982 1.363 . S
C983 C989 1.363 . S
C984 C985 1.363 . S
C984 C989 1.379 . S
C984 N991 1.356 . S
C985 C984 1.363 . S
C985 C988 1.363 . S
N986 C988 1.356 . S
N986 H998 0.984 . S
N986 H999 0.985 . S
N987 C989 1.356 . S
N987 H992 0.984 . S
N987 H993 0.985 . S
C988 C982 1.379 . S
C988 C985 1.363 . S
C988 N986 1.356 . S
C989 C983 1.363 . S
C989 C984 1.379 . S
C989 N987 1.356 . S
N990 C982 1.356 . S
N990 H996 0.984 . S
N990 H997 0.984 . S
N991 C984 1.356 . S
N991 H994 0.984 . S
N991 H995 0.985 . S
H992 N987 0.984 . S
H993 N987 0.985 . S
H994 N991 0.984 . S
H995 N991 0.985 . S
H996 N990 0.984 . S
H997 N990 0.984 . S
H998 N986 0.984 . S
H999 N986 0.985 . S
C1000 C1001 1.363 . S
C1000 C1006 1.379 . S
C1000 N1008 1.356 . S
C1001 C1000 1.363 . S
C1001 C1007 1.363 . S
C1002 C1003 1.363 . S
C1002 C1007 1.379 . S
C1002 N1009 1.356 . S
C1003 C1002 1.363 . S
C1003 C1006 1.363 . S
N1004 C1006 1.356 . S
N1004 H1016 0.984 . S
N1004 H1017 0.985 . S
N1005 C1007 1.356 . S
N1005 H1010 0.984 . S
N1005 H1011 0.985 . S
C1006 C1000 1.379 . S
C1006 C1003 1.363 . S
C1006 N1004 1.356 . S
C1007 C1001 1.363 . S
C1007 C1002 1.379 . S
C1007 N1005 1.356 . S
N1008 C1000 1.356 . S
N1008 H1014 0.984 . S
N1008 H1015 0.984 . S
N1009 C1002 1.356 . S
N1009 H1012 0.984 . S
N1009 H1013 0.985 . S
H1010 N1005 0.984 . S
H1011 N1005 0.985 . S
H1012 N1009 0.984 . S
H1013 N1009 0.985 . S
H1014 N1008 0.984 . S
H1015 N1008 0.984 . S
H1016 N1004 0.984 . S
H1017 N1004 0.985 . S
C1018 C1019 1.363 . S
C1018 C1024 1.379 . S
C1018 N1026 1.356 . S
C1019 C1018 1.363 . S
C1019 C1025 1.363 . S
C1020 C1021 1.363 . S
C1020 C1025 1.379 . S
C1020 N1027 1.356 . S
C1021 C1020 1.363 . S
C1021 C1024 1.363 . S
N1022 C1024 1.356 . S
N1022 H1034 0.984 . S
N1022 H1035 0.985 . S
N1023 C1025 1.356 . S
N1023 H1028 0.984 . S
N1023 H1029 0.985 . S
C1024 C1018 1.379 . S
C1024 C1021 1.363 . S
C1024 N1022 1.356 . S
C1025 C1019 1.363 . S
C1025 C1020 1.379 . S
C1025 N1023 1.356 . S
N1026 C1018 1.356 . S
N1026 H1032 0.984 . S
N1026 H1033 0.984 . S
N1027 C1020 1.356 . S
N1027 H1030 0.984 . S
N1027 H1031 0.985 . S
H1028 N1023 0.984 . S
H1029 N1023 0.985 . S
H1030 N1027 0.984 . S
H1031 N1027 0.985 . S
H1032 N1026 0.984 . S
H1033 N1026 0.984 . S
H1034 N1022 0.984 . S
H1035 N1022 0.985 . S
C1036 C1037 1.363 . S
C1036 C1042 1.379 . S
C1036 N1044 1.356 . S
C1037 C1036 1.363 . S
C1037 C1043 1.363 1_556 S
C1038 C1039 1.363 . S
C1038 C1043 1.379 1_556 S
C1038 N1045 1.376 1_556 S
C1039 C1038 1.363 . S
C1039 C1042 1.363 . S
N1040 C1042 1.356 . S
N1040 H1052 0.984 . S
N1040 H1053 0.985 . S
N1041 C1043 1.356 . S
N1041 H1046 0.984 . S
N1041 H1047 0.985 . S
C1042 C1036 1.379 . S
C1042 C1039 1.363 . S
C1042 N1040 1.356 . S
C1043 C1037 1.363 1_554 S
C1043 C1038 1.379 1_554 S
C1043 N1041 1.356 . S
N1044 C1036 1.356 . S
N1044 H1050 0.984 . S
N1044 H1051 0.984 . S
N1045 C1038 1.376 1_554 S
N1045 H1048 0.970 1_544 S
N1045 H1049 0.980 1_545 S
H1046 N1041 0.984 . S
H1047 N1041 0.985 . S
H1048 N1045 0.970 1_566 S
H1049 N1045 0.980 1_565 S
H1050 N1044 0.984 . S
H1051 N1044 0.984 . S
H1052 N1040 0.984 . S
H1053 N1040 0.985 . S
C1054 C1055 1.363 . S
C1054 C1060 1.379 . S
C1054 N1062 1.356 . S
C1055 C1054 1.363 . S
C1055 C1061 1.363 . S
C1056 C1057 1.363 . S
C1056 C1061 1.379 . S
C1056 N1063 1.356 . S
C1057 C1056 1.363 . S
C1057 C1060 1.363 . S
N1058 C1060 1.356 . S
N1058 H1070 0.984 . S
N1058 H1071 0.985 . S
N1059 C1061 1.356 . S
N1059 H1064 0.984 . S
N1059 H1065 0.985 . S
C1060 C1054 1.379 . S
C1060 C1057 1.363 . S
C1060 N1058 1.356 . S
C1061 C1055 1.363 . S
C1061 C1056 1.379 . S
C1061 N1059 1.356 . S
N1062 C1054 1.356 . S
N1062 H1068 0.984 . S
N1062 H1069 0.984 . S
N1063 C1056 1.356 . S
N1063 H1066 0.984 . S
N1063 H1067 0.985 . S
H1064 N1059 0.984 . S
H1065 N1059 0.985 . S
H1066 N1063 0.984 . S
H1067 N1063 0.985 . S
H1068 N1062 0.984 . S
H1069 N1062 0.984 . S
H1070 N1058 0.984 . S
H1071 N1058 0.985 . S
C1072 C1073 1.363 . S
C1072 C1078 1.379 . S
C1072 N1080 1.356 . S
C1073 C1072 1.363 . S
C1073 C1079 1.363 . S
C1074 C1075 1.363 . S
C1074 C1079 1.379 . S
C1074 N1081 1.356 . S
C1075 C1074 1.363 . S
C1075 C1078 1.363 . S
N1076 C1078 1.356 . S
N1076 H1088 0.984 . S
N1076 H1089 0.985 . S
N1077 C1079 1.356 . S
N1077 H1082 0.984 . S
N1077 H1083 0.985 . S
C1078 C1072 1.379 . S
C1078 C1075 1.363 . S
C1078 N1076 1.356 . S
C1079 C1073 1.363 . S
C1079 C1074 1.379 . S
C1079 N1077 1.356 . S
N1080 C1072 1.356 . S
N1080 H1086 0.984 . S
N1080 H1087 0.984 . S
N1081 C1074 1.356 . S
N1081 H1084 0.984 . S
N1081 H1085 0.985 . S
H1082 N1077 0.984 . S
H1083 N1077 0.985 . S
H1084 N1081 0.984 . S
H1085 N1081 0.985 . S
H1086 N1080 0.984 . S
H1087 N1080 0.984 . S
H1088 N1076 0.984 . S
H1089 N1076 0.985 . S
C1090 C1091 1.363 . S
C1090 C1096 1.379 . S
C1090 N1098 1.356 . S
C1091 C1090 1.363 . S
C1091 C1097 1.363 . S
C1092 C1093 1.363 . S
C1092 C1097 1.379 . S
C1092 N1099 1.356 . S
C1093 C1092 1.363 . S
C1093 C1096 1.363 . S
N1094 C1096 1.356 . S
N1094 H1106 0.984 . S
N1094 H1107 0.985 . S
N1095 C1097 1.356 . S
N1095 H1100 0.984 . S
N1095 H1101 0.985 . S
C1096 C1090 1.379 . S
C1096 C1093 1.363 . S
C1096 N1094 1.356 . S
C1097 C1091 1.363 . S
C1097 C1092 1.379 . S
C1097 N1095 1.356 . S
N1098 C1090 1.356 . S
N1098 H1104 0.984 . S
N1098 H1105 0.984 . S
N1099 C1092 1.356 . S
N1099 H1102 0.984 . S
N1099 H1103 0.985 . S
H1100 N1095 0.984 . S
H1101 N1095 0.985 . S
H1102 N1099 0.984 . S
H1103 N1099 0.985 . S
H1104 N1098 0.984 . S
H1105 N1098 0.984 . S
H1106 N1094 0.984 . S
H1107 N1094 0.985 . S
C1108 C1109 1.363 . S
C1108 C1114 1.379 . S
C1108 N1116 1.356 . S
C1109 C1108 1.363 . S
C1109 C1115 1.363 . S
C1110 C1111 1.363 . S
C1110 C1115 1.379 . S
C1110 N1117 1.356 . S
C1111 C1110 1.363 . S
C1111 C1114 1.363 . S
N1112 C1114 1.356 . S
N1112 H1124 0.984 . S
N1112 H1125 0.985 . S
N1113 C1115 1.356 . S
N1113 H1118 0.984 . S
N1113 H1119 0.985 . S
C1114 C1108 1.379 . S
C1114 C1111 1.363 . S
C1114 N1112 1.356 . S
C1115 C1109 1.363 . S
C1115 C1110 1.379 . S
C1115 N1113 1.356 . S
N1116 C1108 1.356 . S
N1116 H1122 0.984 . S
N1116 H1123 0.984 . S
N1117 C1110 1.356 . S
N1117 H1120 0.984 . S
N1117 H1121 0.985 . S
H1118 N1113 0.984 . S
H1119 N1113 0.985 . S
H1120 N1117 0.984 . S
H1121 N1117 0.985 . S
H1122 N1116 0.984 . S
H1123 N1116 0.984 . S
H1124 N1112 0.984 . S
H1125 N1112 0.985 . S
C1126 C1127 1.363 . S
C1126 C1132 1.379 . S
C1126 N1134 1.356 . S
C1127 C1126 1.363 . S
C1127 C1133 1.363 . S
C1128 C1129 1.363 . S
C1128 C1133 1.379 . S
C1128 N1135 1.356 1_565 S
C1129 C1128 1.363 . S
C1129 C1132 1.363 . S
N1130 C1132 1.356 . S
N1130 H1142 0.984 . S
N1130 H1143 0.985 . S
N1131 C1133 1.356 1_545 S
N1131 H1136 0.984 . S
N1131 H1137 0.985 . S
C1132 C1126 1.379 . S
C1132 C1129 1.363 . S
C1132 N1130 1.356 . S
C1133 C1127 1.363 . S
C1133 C1128 1.379 . S
C1133 N1131 1.356 1_565 S
N1134 C1126 1.356 . S
N1134 H1140 0.984 . S
N1134 H1141 0.984 . S
N1135 C1128 1.356 1_545 S
N1135 H1138 0.984 1_545 S
N1135 H1139 0.985 . S
H1136 N1131 0.984 . S
H1137 N1131 0.985 . S
H1138 N1135 0.984 1_565 S
H1139 N1135 0.985 . S
H1140 N1134 0.984 . S
H1141 N1134 0.984 . S
H1142 N1130 0.984 . S
H1143 N1130 0.985 . S
C1144 C1145 1.363 . S
C1144 C1150 1.379 . S
C1144 N1152 1.356 . S
C1145 C1144 1.363 . S
C1145 C1151 1.363 . S
C1146 C1147 1.363 . S
C1146 C1151 1.379 . S
C1146 N1153 1.356 . S
C1147 C1146 1.363 . S
C1147 C1150 1.363 . S
N1148 C1150 1.356 . S
N1148 H1160 0.984 . S
N1148 H1161 0.985 . S
N1149 C1151 1.356 . S
N1149 H1154 0.984 . S
N1149 H1155 0.985 1_655 S
C1150 C1144 1.379 . S
C1150 C1147 1.363 . S
C1150 N1148 1.356 . S
C1151 C1145 1.363 . S
C1151 C1146 1.379 . S
C1151 N1149 1.356 . S
N1152 C1144 1.356 . S
N1152 H1158 0.984 . S
N1152 H1159 0.984 . S
N1153 C1146 1.356 . S
N1153 H1156 0.984 . S
N1153 H1157 0.985 . S
H1154 N1149 0.984 . S
H1155 N1149 0.985 1_455 S
H1156 N1153 0.984 . S
H1157 N1153 0.985 . S
H1158 N1152 0.984 . S
H1159 N1152 0.984 . S
H1160 N1148 0.984 . S
H1161 N1148 0.985 . S
C1162 C1163 1.363 . S
C1162 C1168 1.379 . S
C1162 N1170 1.356 . S
C1163 C1162 1.363 . S
C1163 C1169 1.363 . S
C1164 C1165 1.363 . S
C1164 C1169 1.379 . S
C1164 N1171 1.356 . S
C1165 C1164 1.363 . S
C1165 C1168 1.363 . S
N1166 C1168 1.356 1_655 S
N1166 H1178 0.984 . S
N1166 H1179 0.985 . S
N1167 C1169 1.356 . S
N1167 H1172 0.984 . S
N1167 H1173 0.985 . S
C1168 C1162 1.379 . S
C1168 C1165 1.363 . S
C1168 N1166 1.356 1_455 S
C1169 C1163 1.363 . S
C1169 C1164 1.379 . S
C1169 N1167 1.356 . S
N1170 C1162 1.356 . S
N1170 H1176 0.984 1_455 S
N1170 H1177 0.984 . S
N1171 C1164 1.356 . S
N1171 H1174 0.984 . S
N1171 H1175 0.985 . S
H1172 N1167 0.984 . S
H1173 N1167 0.985 . S
H1174 N1171 0.984 . S
H1175 N1171 0.985 . S
H1176 N1170 0.984 1_655 S
H1177 N1170 0.984 . S
H1178 N1166 0.984 . S
H1179 N1166 0.985 . S
C1180 C1181 1.363 . S
C1180 C1186 1.379 . S
C1180 N1188 1.356 . S
C1181 C1180 1.363 . S
C1181 C1187 1.363 . S
C1182 C1183 1.363 . S
C1182 C1187 1.379 . S
C1182 N1189 1.356 . S
C1183 C1182 1.363 . S
C1183 C1186 1.363 . S
N1184 C1186 1.356 . S
N1184 H1196 0.984 . S
N1184 H1197 0.985 . S
N1185 C1187 1.356 . S
N1185 H1190 0.984 1_655 S
N1185 H1191 0.985 1_655 S
C1186 C1180 1.379 . S
C1186 C1183 1.363 . S
C1186 N1184 1.356 . S
C1187 C1181 1.363 . S
C1187 C1182 1.379 . S
C1187 N1185 1.356 . S
N1188 C1180 1.356 . S
N1188 H1194 0.984 . S
N1188 H1195 0.984 . S
N1189 C1182 1.356 . S
N1189 H1192 0.984 . S
N1189 H1193 0.985 . S
H1190 N1185 0.984 1_455 S
H1191 N1185 0.985 1_455 S
H1192 N1189 0.984 . S
H1193 N1189 0.985 . S
H1194 N1188 0.984 . S
H1195 N1188 0.984 . S
H1196 N1184 0.984 . S
H1197 N1184 0.985 . S
C1198 C1199 1.363 . S
C1198 C1204 1.379 . S
C1198 N1206 1.356 . S
C1199 C1198 1.363 . S
C1199 C1205 1.363 . S
C1200 C1201 1.363 . S
C1200 C1205 1.379 . S
C1200 N1207 1.356 . S
C1201 C1200 1.363 . S
C1201 C1204 1.363 . S
N1202 C1204 1.356 . S
N1202 H1214 0.984 . S
N1202 H1215 0.985 . S
N1203 C1205 1.356 . S
N1203 H1208 0.984 . S
N1203 H1209 0.985 . S
C1204 C1198 1.379 . S
C1204 C1201 1.363 . S
C1204 N1202 1.356 . S
C1205 C1199 1.363 . S
C1205 C1200 1.379 . S
C1205 N1203 1.356 . S
N1206 C1198 1.356 . S
N1206 H1212 0.984 . S
N1206 H1213 0.984 . S
N1207 C1200 1.356 . S
N1207 H1210 0.984 . S
N1207 H1211 0.985 . S
H1208 N1203 0.984 . S
H1209 N1203 0.985 . S
H1210 N1207 0.984 . S
H1211 N1207 0.985 . S
H1212 N1206 0.984 . S
H1213 N1206 0.984 . S
H1214 N1202 0.984 . S
H1215 N1202 0.985 . S
C1216 C1217 1.363 . S
C1216 C1222 1.379 . S
C1216 N1224 1.356 . S
C1217 C1216 1.363 . S
C1217 C1223 1.363 . S
C1218 C1219 1.363 . S
C1218 C1223 1.379 . S
C1218 N1225 1.356 . S
C1219 C1218 1.363 . S
C1219 C1222 1.363 . S
N1220 C1222 1.356 . S
N1220 H1232 0.984 . S
N1220 H1233 0.985 . S
N1221 C1223 1.356 . S
N1221 H1226 0.984 . S
N1221 H1227 0.985 . S
C1222 C1216 1.379 . S
C1222 C1219 1.363 . S
C1222 N1220 1.356 . S
C1223 C1217 1.363 . S
C1223 C1218 1.379 . S
C1223 N1221 1.356 . S
N1224 C1216 1.356 . S
N1224 H1230 0.984 . S
N1224 H1231 0.984 . S
N1225 C1218 1.356 . S
N1225 H1228 0.984 . S
N1225 H1229 0.985 . S
H1226 N1221 0.984 . S
H1227 N1221 0.985 . S
H1228 N1225 0.984 . S
H1229 N1225 0.985 . S
H1230 N1224 0.984 . S
H1231 N1224 0.984 . S
H1232 N1220 0.984 . S
H1233 N1220 0.985 . S
C1234 C1235 1.363 . S
C1234 C1240 1.379 . S
C1234 N1242 1.356 . S
C1235 C1234 1.363 . S
C1235 C1241 1.363 . S
C1236 C1237 1.363 . S
C1236 C1241 1.379 . S
C1236 N1243 1.356 . S
C1237 C1236 1.363 . S
C1237 C1240 1.363 . S
N1238 C1240 1.356 . S
N1238 H1250 0.984 . S
N1238 H1251 0.985 . S
N1239 C1241 1.356 . S
N1239 H1244 0.984 . S
N1239 H1245 0.985 . S
C1240 C1234 1.379 . S
C1240 C1237 1.363 . S
C1240 N1238 1.356 . S
C1241 C1235 1.363 . S
C1241 C1236 1.379 . S
C1241 N1239 1.356 . S
N1242 C1234 1.356 . S
N1242 H1248 0.984 . S
N1242 H1249 0.984 . S
N1243 C1236 1.356 . S
N1243 H1246 0.984 . S
N1243 H1247 0.985 . S
H1244 N1239 0.984 . S
H1245 N1239 0.985 . S
H1246 N1243 0.984 . S
H1247 N1243 0.985 . S
H1248 N1242 0.984 . S
H1249 N1242 0.984 . S
H1250 N1238 0.984 . S
H1251 N1238 0.985 . S
C1252 C1253 1.363 . S
C1252 C1258 1.379 . S
C1252 N1260 1.356 . S
C1253 C1252 1.363 . S
C1253 C1259 1.363 . S
C1254 C1255 1.363 . S
C1254 C1259 1.379 . S
C1254 N1261 1.356 . S
C1255 C1254 1.363 . S
C1255 C1258 1.363 . S
N1256 C1258 1.356 . S
N1256 H1268 0.984 . S
N1256 H1269 0.985 . S
N1257 C1259 1.356 . S
N1257 H1262 0.984 . S
N1257 H1263 0.985 . S
C1258 C1252 1.379 . S
C1258 C1255 1.363 . S
C1258 N1256 1.356 . S
C1259 C1253 1.363 . S
C1259 C1254 1.379 . S
C1259 N1257 1.356 . S
N1260 C1252 1.356 . S
N1260 H1266 0.984 . S
N1260 H1267 0.984 . S
N1261 C1254 1.356 . S
N1261 H1264 0.984 . S
N1261 H1265 0.985 . S
H1262 N1257 0.984 . S
H1263 N1257 0.985 . S
H1264 N1261 0.984 . S
H1265 N1261 0.985 . S
H1266 N1260 0.984 . S
H1267 N1260 0.984 . S
H1268 N1256 0.984 . S
H1269 N1256 0.985 . S
C1270 C1271 1.363 . S
C1270 C1276 1.379 . S
C1270 N1278 1.356 . S
C1271 C1270 1.363 . S
C1271 C1277 1.363 . S
C1272 C1273 1.363 . S
C1272 C1277 1.379 . S
C1272 N1279 1.356 . S
C1273 C1272 1.363 . S
C1273 C1276 1.363 . S
N1274 C1276 1.356 . S
N1274 H1286 0.984 . S
N1274 H1287 0.985 . S
N1275 C1277 1.356 . S
N1275 H1280 0.984 . S
N1275 H1281 0.985 1_565 S
C1276 C1270 1.379 . S
C1276 C1273 1.363 . S
C1276 N1274 1.356 . S
C1277 C1271 1.363 . S
C1277 C1272 1.379 . S
C1277 N1275 1.356 . S
N1278 C1270 1.356 . S
N1278 H1284 0.984 . S
N1278 H1285 0.984 . S
N1279 C1272 1.356 . S
N1279 H1282 0.984 . S
N1279 H1283 0.985 . S
H1280 N1275 0.984 . S
H1281 N1275 0.985 1_545 S
H1282 N1279 0.984 . S
H1283 N1279 0.985 . S
H1284 N1278 0.984 . S
H1285 N1278 0.984 . S
H1286 N1274 0.984 . S
H1287 N1274 0.985 . S
C1288 C1289 1.363 . S
C1288 C1294 1.379 . S
C1288 N1296 1.356 . S
C1289 C1288 1.363 . S
C1289 C1295 1.363 . S
C1290 C1291 1.363 . S
C1290 C1295 1.379 . S
C1290 N1297 1.356 . S
C1291 C1290 1.363 . S
C1291 C1294 1.363 . S
N1292 C1294 1.356 . S
N1292 H1304 0.984 . S
N1292 H1305 0.985 . S
N1293 C1295 1.356 . S
N1293 H1298 0.984 . S
N1293 H1299 0.985 1_655 S
C1294 C1288 1.379 . S
C1294 C1291 1.363 . S
C1294 N1292 1.356 . S
C1295 C1289 1.363 . S
C1295 C1290 1.379 . S
C1295 N1293 1.356 . S
N1296 C1288 1.356 . S
N1296 H1302 0.984 . S
N1296 H1303 0.984 . S
N1297 C1290 1.356 . S
N1297 H1300 0.984 . S
N1297 H1301 0.985 . S
H1298 N1293 0.984 . S
H1299 N1293 0.985 1_455 S
H1300 N1297 0.984 . S
H1301 N1297 0.985 . S
H1302 N1296 0.984 . S
H1303 N1296 0.984 . S
H1304 N1292 0.984 . S
H1305 N1292 0.985 . S
C1306 C1307 1.363 . S
C1306 C1312 1.379 . S
C1306 N1314 1.356 . S
C1307 C1306 1.363 . S
C1307 C1313 1.363 . S
C1308 C1309 1.363 . S
C1308 C1313 1.379 . S
C1308 N1315 1.356 . S
C1309 C1308 1.363 . S
C1309 C1312 1.363 . S
N1310 C1312 1.356 . S
N1310 H1322 0.984 . S
N1310 H1323 0.985 . S
N1311 C1313 1.356 . S
N1311 H1316 0.984 . S
N1311 H1317 0.985 . S
C1312 C1306 1.379 . S
C1312 C1309 1.363 . S
C1312 N1310 1.356 . S
C1313 C1307 1.363 . S
C1313 C1308 1.379 . S
C1313 N1311 1.356 . S
N1314 C1306 1.356 . S
N1314 H1320 0.984 . S
N1314 H1321 0.984 . S
N1315 C1308 1.356 . S
N1315 H1318 0.984 . S
N1315 H1319 0.985 . S
H1316 N1311 0.984 . S
H1317 N1311 0.985 . S
H1318 N1315 0.984 . S
H1319 N1315 0.985 . S
H1320 N1314 0.984 . S
H1321 N1314 0.984 . S
H1322 N1310 0.984 . S
H1323 N1310 0.985 . S
C1324 C1325 1.363 . S
C1324 C1330 1.379 . S
C1324 N1332 1.356 . S
C1325 C1324 1.363 . S
C1325 C1331 1.363 . S
C1326 C1327 1.363 . S
C1326 C1331 1.379 . S
C1326 N1333 1.356 . S
C1327 C1326 1.363 . S
C1327 C1330 1.363 . S
N1328 C1330 1.356 . S
N1328 H1340 0.984 . S
N1328 H1341 0.985 . S
N1329 C1331 1.356 . S
N1329 H1334 0.984 . S
N1329 H1335 0.985 . S
C1330 C1324 1.379 . S
C1330 C1327 1.363 . S
C1330 N1328 1.356 . S
C1331 C1325 1.363 . S
C1331 C1326 1.379 . S
C1331 N1329 1.356 . S
N1332 C1324 1.356 . S
N1332 H1338 0.984 . S
N1332 H1339 0.984 . S
N1333 C1326 1.356 . S
N1333 H1336 0.984 . S
N1333 H1337 0.985 . S
H1334 N1329 0.984 . S
H1335 N1329 0.985 . S
H1336 N1333 0.984 . S
H1337 N1333 0.985 . S
H1338 N1332 0.984 . S
H1339 N1332 0.984 . S
H1340 N1328 0.984 . S
H1341 N1328 0.985 . S
C1342 C1343 1.363 . S
C1342 C1348 1.379 . S
C1342 N1350 1.356 . S
C1343 C1342 1.363 . S
C1343 C1349 1.363 . S
C1344 C1345 1.363 . S
C1344 C1349 1.379 . S
C1344 N1351 1.356 . S
C1345 C1344 1.363 . S
C1345 C1348 1.363 . S
N1346 C1348 1.356 . S
N1346 H1358 0.984 . S
N1346 H1359 0.985 . S
N1347 C1349 1.356 . S
N1347 H1352 0.984 . S
N1347 H1353 0.985 . S
C1348 C1342 1.379 . S
C1348 C1345 1.363 . S
C1348 N1346 1.356 . S
C1349 C1343 1.363 . S
C1349 C1344 1.379 . S
C1349 N1347 1.356 . S
N1350 C1342 1.356 . S
N1350 H1356 0.984 . S
N1350 H1357 0.984 . S
N1351 C1344 1.356 . S
N1351 H1354 0.984 . S
N1351 H1355 0.985 . S
H1352 N1347 0.984 . S
H1353 N1347 0.985 . S
H1354 N1351 0.984 . S
H1355 N1351 0.985 . S
H1356 N1350 0.984 . S
H1357 N1350 0.984 . S
H1358 N1346 0.984 . S
H1359 N1346 0.985 . S
C1360 C1361 1.363 . S
C1360 C1366 1.379 . S
C1360 N1368 1.356 . S
C1361 C1360 1.363 . S
C1361 C1367 1.363 . S
C1362 C1363 1.363 . S
C1362 C1367 1.379 . S
C1362 N1369 1.356 . S
C1363 C1362 1.363 . S
C1363 C1366 1.363 . S
N1364 C1366 1.356 . S
N1364 H1376 0.984 . S
N1364 H1377 0.985 . S
N1365 C1367 1.356 . S
N1365 H1370 0.984 . S
N1365 H1371 0.985 . S
C1366 C1360 1.379 . S
C1366 C1363 1.363 . S
C1366 N1364 1.356 . S
C1367 C1361 1.363 . S
C1367 C1362 1.379 . S
C1367 N1365 1.356 . S
N1368 C1360 1.356 . S
N1368 H1374 0.984 . S
N1368 H1375 0.984 . S
N1369 C1362 1.356 . S
N1369 H1372 0.984 . S
N1369 H1373 0.985 . S
H1370 N1365 0.984 . S
H1371 N1365 0.985 . S
H1372 N1369 0.984 . S
H1373 N1369 0.985 . S
H1374 N1368 0.984 . S
H1375 N1368 0.984 . S
H1376 N1364 0.984 . S
H1377 N1364 0.985 . S
C1378 C1379 1.363 . S
C1378 C1384 1.379 . S
C1378 N1386 1.356 . S
C1379 C1378 1.363 . S
C1379 C1385 1.363 . S
C1380 C1381 1.363 . S
C1380 C1385 1.379 . S
C1380 N1387 1.356 . S
C1381 C1380 1.363 . S
C1381 C1384 1.363 . S
N1382 C1384 1.331 1_556 S
N1382 H1394 1.000 . S
N1382 H1395 0.995 . S
N1383 C1385 1.356 . S
N1383 H1388 0.984 . S
N1383 H1389 0.985 . S
C1384 C1378 1.379 . S
C1384 C1381 1.363 . S
C1384 N1382 1.331 1_554 S
C1385 C1379 1.363 . S
C1385 C1380 1.379 . S
C1385 N1383 1.356 . S
N1386 C1378 1.356 . S
N1386 H1392 0.984 . S
N1386 H1393 0.984 . S
N1387 C1380 1.356 . S
N1387 H1390 0.984 . S
N1387 H1391 0.985 . S
H1388 N1383 0.984 . S
H1389 N1383 0.985 . S
H1390 N1387 0.984 . S
H1391 N1387 0.985 . S
H1392 N1386 0.984 . S
H1393 N1386 0.984 . S
H1394 N1382 1.000 . S
H1395 N1382 0.995 . S
C1396 C1397 1.363 . S
C1396 C1402 1.379 . S
C1396 N1404 1.356 . S
C1397 C1396 1.363 . S
C1397 C1403 1.363 . S
C1398 C1399 1.363 . S
C1398 C1403 1.379 . S
C1398 N1405 1.356 . S
C1399 C1398 1.363 . S
C1399 C1402 1.363 . S
N1400 C1402 1.356 . S
N1400 H1412 0.984 . S
N1400 H1413 0.985 . S
N1401 C1403 1.356 . S
N1401 H1406 0.984 . S
N1401 H1407 0.985 . S
C1402 C1396 1.379 . S
C1402 C1399 1.363 . S
C1402 N1400 1.356 . S
C1403 C1397 1.363 . S
C1403 C1398 1.379 . S
C1403 N1401 1.356 . S
N1404 C1396 1.356 . S
N1404 H1410 0.984 . S
N1404 H1411 0.984 . S
N1405 C1398 1.356 . S
N1405 H1408 0.984 . S
N1405 H1409 0.985 . S
H1406 N1401 0.984 . S
H1407 N1401 0.985 . S
H1408 N1405 0.984 . S
H1409 N1405 0.985 . S
H1410 N1404 0.984 . S
H1411 N1404 0.984 . S
H1412 N1400 0.984 . S
H1413 N1400 0.985 . S
C1414 C1415 1.363 . S
C1414 C1420 1.379 . S
C1414 N1422 1.356 . S
C1415 C1414 1.363 . S
C1415 C1421 1.363 . S
C1416 C1417 1.363 . S
C1416 C1421 1.379 . S
C1416 N1423 1.356 . S
C1417 C1416 1.363 . S
C1417 C1420 1.363 . S
N1418 C1420 1.356 . S
N1418 H1430 0.984 . S
N1418 H1431 0.985 . S
N1419 C1421 1.356 . S
N1419 H1424 0.984 . S
N1419 H1425 0.985 . S
C1420 C1414 1.379 . S
C1420 C1417 1.363 . S
C1420 N1418 1.356 . S
C1421 C1415 1.363 . S
C1421 C1416 1.379 . S
C1421 N1419 1.356 . S
N1422 C1414 1.356 . S
N1422 H1428 0.984 . S
N1422 H1429 0.984 . S
N1423 C1416 1.356 . S
N1423 H1426 0.984 . S
N1423 H1427 0.985 . S
H1424 N1419 0.984 . S
H1425 N1419 0.985 . S
H1426 N1423 0.984 . S
H1427 N1423 0.985 . S
H1428 N1422 0.984 . S
H1429 N1422 0.984 . S
H1430 N1418 0.984 . S
H1431 N1418 0.985 . S
C1432 C1433 1.363 . S
C1432 C1438 1.379 . S
C1432 N1440 1.356 . S
C1433 C1432 1.363 . S
C1433 C1439 1.363 . S
C1434 C1435 1.363 . S
C1434 C1439 1.379 . S
C1434 N1441 1.356 . S
C1435 C1434 1.363 . S
C1435 C1438 1.363 . S
N1436 C1438 1.356 . S
N1436 H1448 0.984 . S
N1436 H1449 0.985 . S
N1437 C1439 1.356 . S
N1437 H1442 0.984 . S
N1437 H1443 0.985 . S
C1438 C1432 1.379 . S
C1438 C1435 1.363 . S
C1438 N1436 1.356 . S
C1439 C1433 1.363 . S
C1439 C1434 1.379 . S
C1439 N1437 1.356 . S
N1440 C1432 1.356 . S
N1440 H1446 0.984 . S
N1440 H1447 0.984 . S
N1441 C1434 1.356 . S
N1441 H1444 0.984 . S
N1441 H1445 0.985 . S
H1442 N1437 0.984 . S
H1443 N1437 0.985 . S
H1444 N1441 0.984 . S
H1445 N1441 0.985 . S
H1446 N1440 0.984 . S
H1447 N1440 0.984 . S
H1448 N1436 0.984 . S
H1449 N1436 0.985 . S
C1450 C1451 1.363 . S
C1450 C1456 1.379 . S
C1450 N1458 1.356 . S
C1451 C1450 1.363 . S
C1451 C1457 1.363 . S
C1452 C1453 1.363 . S
C1452 C1457 1.379 . S
C1452 N1459 1.356 . S
C1453 C1452 1.363 . S
C1453 C1456 1.363 . S
N1454 C1456 1.356 . S
N1454 H1466 0.984 . S
N1454 H1467 0.985 . S
N1455 C1457 1.356 . S
N1455 H1460 0.984 . S
N1455 H1461 0.985 . S
C1456 C1450 1.379 . S
C1456 C1453 1.363 . S
C1456 N1454 1.356 . S
C1457 C1451 1.363 . S
C1457 C1452 1.379 . S
C1457 N1455 1.356 . S
N1458 C1450 1.356 . S
N1458 H1464 0.984 . S
N1458 H1465 0.984 . S
N1459 C1452 1.356 . S
N1459 H1462 0.984 . S
N1459 H1463 0.985 . S
H1460 N1455 0.984 . S
H1461 N1455 0.985 . S
H1462 N1459 0.984 . S
H1463 N1459 0.985 . S
H1464 N1458 0.984 . S
H1465 N1458 0.984 . S
H1466 N1454 0.984 . S
H1467 N1454 0.985 . S
C1468 C1469 1.363 . S
C1468 C1474 1.379 . S
C1468 N1476 1.356 . S
C1469 C1468 1.363 . S
C1469 C1475 1.363 . S
C1470 C1471 1.363 . S
C1470 C1475 1.379 . S
C1470 N1477 1.356 . S
C1471 C1470 1.363 . S
C1471 C1474 1.363 . S
N1472 C1474 1.356 . S
N1472 H1484 0.984 . S
N1472 H1485 0.985 . S
N1473 C1475 1.356 . S
N1473 H1478 0.984 . S
N1473 H1479 0.985 . S
C1474 C1468 1.379 . S
C1474 C1471 1.363 . S
C1474 N1472 1.356 . S
C1475 C1469 1.363 . S
C1475 C1470 1.379 . S
C1475 N1473 1.356 . S
N1476 C1468 1.356 . S
N1476 H1482 0.984 . S
N1476 H1483 0.984 . S
N1477 C1470 1.356 . S
N1477 H1480 0.984 . S
N1477 H1481 0.985 . S
H1478 N1473 0.984 . S
H1479 N1473 0.985 . S
H1480 N1477 0.984 . S
H1481 N1477 0.985 . S
H1482 N1476 0.984 . S
H1483 N1476 0.984 . S
H1484 N1472 0.984 . S
H1485 N1472 0.985 . S
C1486 C1487 1.363 . S
C1486 C1492 1.379 . S
C1486 N1494 1.356 . S
C1487 C1486 1.363 . S
C1487 C1493 1.363 . S
C1488 C1489 1.363 . S
C1488 C1493 1.379 . S
C1488 N1495 1.356 . S
C1489 C1488 1.363 . S
C1489 C1492 1.363 . S
N1490 C1492 1.356 . S
N1490 H1502 0.984 . S
N1490 H1503 0.985 . S
N1491 C1493 1.356 . S
N1491 H1496 0.984 . S
N1491 H1497 0.985 . S
C1492 C1486 1.379 . S
C1492 C1489 1.363 . S
C1492 N1490 1.356 . S
C1493 C1487 1.363 . S
C1493 C1488 1.379 . S
C1493 N1491 1.356 . S
N1494 C1486 1.356 . S
N1494 H1500 0.984 . S
N1494 H1501 0.984 . S
N1495 C1488 1.356 . S
N1495 H1498 0.984 . S
N1495 H1499 0.985 . S
H1496 N1491 0.984 . S
H1497 N1491 0.985 . S
H1498 N1495 0.984 . S
H1499 N1495 0.985 . S
H1500 N1494 0.984 . S
H1501 N1494 0.984 . S
H1502 N1490 0.984 . S
H1503 N1490 0.985 . S
C641 C131 1.913 . S
C643 C19 1.917 . S
C659 C2 0.909 . S
C661 C56 0.849 . S
C677 C90 1.745 . S
C679 C59 1.747 . S
C695 C127 1.548 . S
C697 C87 1.552 . S
C713 C167 2.154 . S
C715 C202 2.196 . S
C731 C219 1.692 . S
C733 C259 1.669 . S
C749 C256 1.154 . S
C751 C287 1.127 . S
C767 C171 2.083 . S
C769 C290 2.147 . S
C785 C376 1.744 . S
C787 C16 1.697 . S
C803 C402 2.316 . S
C805 C42 2.336 . S
C821 C91 4.389 . S
C823 C531 4.397 . S
C839 C330 1.024 . S
C841 C130 1.062 . S
C857 C450 1.175 . S
C859 C170 1.127 . S
C875 C571 3.060 . S
C877 C216 3.030 . S
C893 C242 1.676 . S
C895 C482 1.556 . S
C911 C611 4.248 . S
C913 C291 4.199 . S
C929 C331 1.898 . S
C931 C530 1.931 . S
C947 C362 1.321 . S
C949 C327 1.313 . S
C965 C419 0.936 . S
C967 C379 0.932 . S
C983 C570 1.976 . S
C985 C451 2.008 . S
C1001 C499 0.866 . S
C1003 C610 0.935 . S
C1019 C442 1.913 . S
C1021 C10 1.917 . S
C1037 C487 0.849 . S
C1039 C11 0.909 . S
C1055 C490 1.747 . S
C1057 C99 1.745 . S
C1073 C96 1.553 . S
C1075 C456 1.548 . S
C1091 C371 2.196 . S
C1093 C176 2.154 . S
C1109 C370 1.692 . S
C1111 C250 1.669 . S
C1127 C536 1.127 . S
C1129 C247 1.154 . S
C1145 C162 2.083 . S
C1147 C539 2.147 . S
C1163 C207 1.745 . S
C1165 C7 1.697 . S
C1181 C411 2.316 . S
C1183 C491 2.336 . S
C1199 C82 4.389 . S
C1201 C282 4.397 . S
C1217 C339 1.024 . S
C1219 C459 1.062 . S
C1235 C139 1.175 . S
C1237 C179 1.127 . S
C1253 C367 3.030 . S
C1255 C562 3.061 . S
C1271 C251 1.676 . S
C1273 C51 1.555 . S
C1289 C602 4.248 . S
C1291 C522 4.199 . S
C1307 C322 1.898 . S
C1309 C299 1.931 . S
C1325 C336 1.313 . S
C1327 C211 1.321 . S
C1343 C410 0.937 . S
C1345 C210 0.932 . S
C1361 C122 2.008 . S
C1363 C579 1.976 . S
C1379 C50 0.866 . S
C1381 C619 0.935 . S
C1397 C496 0.900 . S
C1399 C567 0.823 . S
C1415 C447 1.660 . S
C1417 C607 1.636 . S
C1433 C416 0.921 . S
C1435 C527 0.893 . S
C1451 C576 0.823 . S
C1453 C47 0.899 . S
C1469 C136 1.660 . S
C1471 C616 1.636 . S
C1487 C296 0.893 . S
C1489 C407 0.921 . S
