# Generated by pormake.
# Topology yfg, (5)-cn, num edge types: 1
# Building blocks:
#     Node 0, Type 0, BuildingBlock: XOMCOT_clean_sbu_0, # of connection points: 5
#     Node 1, Type 0, BuildingBlock: XOMCOT_clean_sbu_0, # of connection points: 5
#     Node 2, Type 0, BuildingBlock: XOMCOT_clean_sbu_0, # of connection points: 5
#     Node 3, Type 0, BuildingBlock: XOMCOT_clean_sbu_0, # of connection points: 5
#     Node 4, Type 0, BuildingBlock: XOMCOT_clean_sbu_0, # of connection points: 5
#     Node 5, Type 0, BuildingBlock: XOMCOT_clean_sbu_0, # of connection points: 5
#     Node 6, Type 0, BuildingBlock: XOMCOT_clean_sbu_0, # of connection points: 5
#     Node 7, Type 0, BuildingBlock: XOMCOT_clean_sbu_0, # of connection points: 5
#     Edge 8, Type (0, 0), BuildingBlock: XIVTED_clean_linker_0, # of connection points: 2
#     Edge 9, Type (0, 0), BuildingBlock: XIVTED_clean_linker_0, # of connection points: 2
#     Edge 10, Type (0, 0), BuildingBlock: XIVTED_clean_linker_0, # of connection points: 2
#     Edge 11, Type (0, 0), BuildingBlock: XIVTED_clean_linker_0, # of connection points: 2
#     Edge 12, Type (0, 0), BuildingBlock: XIVTED_clean_linker_0, # of connection points: 2
#     Edge 13, Type (0, 0), BuildingBlock: XIVTED_clean_linker_0, # of connection points: 2
#     Edge 14, Type (0, 0), BuildingBlock: XIVTED_clean_linker_0, # of connection points: 2
#     Edge 15, Type (0, 0), BuildingBlock: XIVTED_clean_linker_0, # of connection points: 2
#     Edge 16, Type (0, 0), BuildingBlock: XIVTED_clean_linker_0, # of connection points: 2
#     Edge 17, Type (0, 0), BuildingBlock: XIVTED_clean_linker_0, # of connection points: 2
#     Edge 18, Type (0, 0), BuildingBlock: XIVTED_clean_linker_0, # of connection points: 2
#     Edge 19, Type (0, 0), BuildingBlock: XIVTED_clean_linker_0, # of connection points: 2
#     Edge 20, Type (0, 0), BuildingBlock: XIVTED_clean_linker_0, # of connection points: 2
#     Edge 21, Type (0, 0), BuildingBlock: XIVTED_clean_linker_0, # of connection points: 2
#     Edge 22, Type (0, 0), BuildingBlock: XIVTED_clean_linker_0, # of connection points: 2
#     Edge 23, Type (0, 0), BuildingBlock: XIVTED_clean_linker_0, # of connection points: 2
#     Edge 24, Type (0, 0), BuildingBlock: XIVTED_clean_linker_0, # of connection points: 2
#     Edge 25, Type (0, 0), BuildingBlock: XIVTED_clean_linker_0, # of connection points: 2
#     Edge 26, Type (0, 0), BuildingBlock: XIVTED_clean_linker_0, # of connection points: 2
#     Edge 27, Type (0, 0), BuildingBlock: XIVTED_clean_linker_0, # of connection points: 2
# Relax obj value: 0.351
# Max RMSD: 0.194
# Mean RMSD: 0.194
data_MOF--net-yfg--node1-XOMCOT_clean_sbu_0--edge1-XIVTED_clean_linker_0
_symmetry_space_group_name_H-M    P1
_symmetry_Int_Tables_number       1
_symmetry_cell_setting            triclinic
loop_
_symmetry_equiv_pos_as_xyz
'x, y, z'
_cell_length_a     35.010048
_cell_length_b     34.990802
_cell_length_c     43.346308
_cell_angle_alpha  90.131256
_cell_angle_beta   89.894839
_cell_angle_gamma 90.028475
loop_
_atom_site_label
_atom_site_type_symbol
_atom_site_fract_x
_atom_site_fract_y
_atom_site_fract_z
_atom_type_partial_charge
Co0 Co 0.26767 0.50367 0.04892 0.0
C1 C 0.29715 0.53819 0.99167 0.0
C2 C 0.32957 0.48854 0.00398 0.0
C3 C 0.34571 0.50473 0.97805 0.0
N4 N 0.29906 0.50953 0.01243 0.0
N5 N 0.32539 0.53611 0.97038 0.0
H6 H 0.27595 0.5606 0.99257 0.0
H7 H 0.34031 0.464 0.01632 0.0
C8 C 0.27359 0.42298 0.07213 0.0
O9 O 0.23753 0.42275 0.08059 0.0
N10 N 0.23612 0.49952 0.08552 0.0
C11 C 0.20001 0.51242 0.0891 0.0
C12 C 0.19106 0.51263 0.12 0.0
C13 C 0.24868 0.49247 0.11436 0.0
N14 N 0.22167 0.49996 0.13562 0.0
C15 C 0.20226 0.52073 0.01267 0.0
C16 C 0.17315 0.4474 0.0104 0.0
C17 C 0.14868 0.47836 0.00502 0.0
C18 C 0.1644 0.51512 0.00396 0.0
C19 C 0.21112 0.45437 0.01891 0.0
N20 N 0.2239 0.49095 0.02299 0.0
H21 H 0.21266 0.54967 0.01413 0.0
H22 H 0.22914 0.43026 0.02367 0.0
H23 H 0.18204 0.52339 0.07102 0.0
H24 H 0.27767 0.48411 0.11982 0.0
O25 O 0.26138 0.55889 0.05204 0.0
O26 O 0.30748 0.52512 0.07381 0.0
O27 O 0.28601 0.44894 0.05385 0.0
C28 C 0.29074 0.55789 0.07039 0.0
H29 H 0.37145 0.49502 0.96662 0.0
H30 H 0.16468 0.52257 0.13031 0.0
H31 H 0.16244 0.41836 0.01032 0.0
H32 H 0.1468 0.53971 0.99869 0.0
Co33 Co 0.48245 0.25735 0.3058 0.0
C34 C 0.44869 0.29565 0.25061 0.0
C35 C 0.50972 0.29183 0.24789 0.0
C36 C 0.49632 0.30789 0.221 0.0
N37 N 0.47989 0.28432 0.26658 0.0
N38 N 0.45787 0.31021 0.22264 0.0
H39 H 0.41978 0.29294 0.25904 0.0
H40 H 0.53915 0.28506 0.25309 0.0
C41 C 0.53327 0.32086 0.31932 0.0
O42 O 0.50504 0.3416 0.30854 0.0
N43 N 0.48473 0.22968 0.34411 0.0
C44 C 0.476 0.19246 0.34769 0.0
C45 C 0.47975 0.1832 0.37827 0.0
C46 C 0.49293 0.24292 0.37255 0.0
N47 N 0.49032 0.21489 0.39382 0.0
C48 C 0.49089 0.19611 0.26314 0.0
C49 C 0.55566 0.1653 0.28985 0.0
C50 C 0.53526 0.14341 0.26826 0.0
C51 C 0.50346 0.15998 0.25387 0.0
C52 C 0.54241 0.20163 0.29816 0.0
N53 N 0.50941 0.21567 0.28586 0.0
H54 H 0.46466 0.20731 0.25365 0.0
H55 H 0.55679 0.21695 0.31645 0.0
H56 H 0.46712 0.17348 0.32933 0.0
H57 H 0.50049 0.27228 0.37755 0.0
O58 O 0.43024 0.23913 0.30125 0.0
O59 O 0.44779 0.2929 0.32464 0.0
O60 O 0.53135 0.28444 0.31735 0.0
C61 C 0.42078 0.26914 0.31739 0.0
H62 H 0.51363 0.31598 0.20136 0.0
H63 H 0.47412 0.15553 0.38844 0.0
H64 H 0.58058 0.15374 0.30127 0.0
H65 H 0.48671 0.14408 0.23722 0.0
Co66 Co 0.74653 0.49721 0.5492 0.0
C67 C 0.70408 0.46561 0.49493 0.0
C68 C 0.70177 0.52681 0.49695 0.0
C69 C 0.68239 0.51468 0.47111 0.0
N70 N 0.71523 0.4961 0.51209 0.0
N71 N 0.68384 0.47613 0.46972 0.0
H72 H 0.71135 0.43636 0.50026 0.0
H73 H 0.70611 0.55619 0.50387 0.0
C74 C 0.73402 0.57346 0.58126 0.0
O75 O 0.76843 0.5729 0.59326 0.0
N76 N 0.77809 0.49707 0.58594 0.0
C77 C 0.81625 0.49224 0.58735 0.0
C78 C 0.82714 0.49169 0.6178 0.0
C79 C 0.76614 0.49785 0.61559 0.0
N80 N 0.79564 0.4954 0.6355 0.0
C81 C 0.80705 0.4906 0.5061 0.0
C82 C 0.84241 0.55942 0.51886 0.0
C83 C 0.86332 0.53074 0.50373 0.0
C84 C 0.84413 0.49703 0.49549 0.0
C85 C 0.805 0.55193 0.52873 0.0
N86 N 0.78917 0.51657 0.52467 0.0
H87 H 0.79379 0.46339 0.50122 0.0
H88 H 0.79007 0.57401 0.5409 0.0
H89 H 0.83502 0.48872 0.56775 0.0
H90 H 0.73657 0.50134 0.62236 0.0
O91 O 0.7567 0.4427 0.54584 0.0
O92 O 0.70822 0.46921 0.57123 0.0
O93 O 0.72465 0.54951 0.5601 0.0
C94 C 0.7268 0.43862 0.56341 0.0
H95 H 0.66814 0.53306 0.45473 0.0
H96 H 0.85601 0.48824 0.62623 0.0
H97 H 0.85554 0.58641 0.52497 0.0
H98 H 0.85842 0.47473 0.48251 0.0
Co99 Co 0.50572 0.74757 0.80075 0.0
C100 C 0.54549 0.70671 0.74947 0.0
C101 C 0.48459 0.70232 0.74603 0.0
C102 C 0.50073 0.68489 0.72063 0.0
N103 N 0.51263 0.71582 0.76428 0.0
N104 N 0.53912 0.68768 0.7227 0.0
H105 H 0.57352 0.71432 0.75783 0.0
H106 H 0.45437 0.7061 0.75019 0.0
C107 C 0.42692 0.73268 0.82665 0.0
O108 O 0.42433 0.76775 0.83731 0.0
N109 N 0.49982 0.78004 0.83685 0.0
C110 C 0.5015 0.81856 0.83793 0.0
C111 C 0.49868 0.83021 0.86814 0.0
C112 C 0.49714 0.76882 0.86657 0.0
N113 N 0.49593 0.79893 0.88609 0.0
C114 C 0.51507 0.80973 0.7596 0.0
C115 C 0.44125 0.8372 0.76309 0.0
C116 C 0.47022 0.86149 0.75228 0.0
C117 C 0.50708 0.84635 0.74878 0.0
C118 C 0.45053 0.80055 0.77353 0.0
N119 N 0.48769 0.78871 0.77425 0.0
H120 H 0.54416 0.79966 0.7585 0.0
H121 H 0.42793 0.78287 0.78219 0.0
H122 H 0.50538 0.83721 0.81839 0.0
H123 H 0.49549 0.73924 0.87369 0.0
O124 O 0.56004 0.7597 0.80181 0.0
O125 O 0.53218 0.71099 0.82566 0.0
O126 O 0.45349 0.72361 0.8076 0.0
C127 C 0.56291 0.7306 0.82032 0.0
H128 H 0.48512 0.67243 0.70158 0.0
H129 H 0.49968 0.85944 0.87632 0.0
H130 H 0.41198 0.847 0.76478 0.0
H131 H 0.53044 0.8636 0.74016 0.0
Co132 Co 0.26493 0.48437 0.45073 0.0
C133 C 0.29931 0.45182 0.50735 0.0
C134 C 0.3118 0.51154 0.5039 0.0
C135 C 0.32834 0.49749 0.53049 0.0
N136 N 0.29368 0.48276 0.48926 0.0
N137 N 0.3205 0.45979 0.53259 0.0
H138 H 0.28736 0.42402 0.50261 0.0
H139 H 0.31294 0.54077 0.4961 0.0
C140 C 0.29857 0.56548 0.43675 0.0
O141 O 0.27612 0.58564 0.45481 0.0
N142 N 0.23671 0.48473 0.41259 0.0
C143 C 0.20113 0.47073 0.40861 0.0
C144 C 0.19323 0.4698 0.37759 0.0
C145 C 0.25 0.49231 0.38409 0.0
N146 N 0.22392 0.48341 0.36243 0.0
C147 C 0.20971 0.50108 0.49686 0.0
C148 C 0.16793 0.55197 0.46175 0.0
C149 C 0.15052 0.53496 0.4875 0.0
C150 C 0.17297 0.51128 0.50625 0.0
C151 C 0.20521 0.54158 0.45348 0.0
N152 N 0.22474 0.51467 0.46998 0.0
H153 H 0.22447 0.47924 0.50971 0.0
H154 H 0.21655 0.55197 0.43185 0.0
H155 H 0.18287 0.46046 0.42697 0.0
H156 H 0.27874 0.502 0.37916 0.0
O157 O 0.2441 0.43357 0.45809 0.0
O158 O 0.29826 0.44671 0.43337 0.0
O159 O 0.29595 0.52912 0.43551 0.0
C160 C 0.27343 0.42146 0.44224 0.0
H161 H 0.34516 0.51384 0.54675 0.0
H162 H 0.16741 0.45914 0.36688 0.0
H163 H 0.15187 0.57036 0.44648 0.0
H164 H 0.16124 0.49825 0.52683 0.0
Co165 Co 0.50346 0.26607 0.70878 0.0
C166 C 0.5393 0.29738 0.76499 0.0
C167 C 0.48782 0.32761 0.75405 0.0
C168 C 0.50439 0.34453 0.77948 0.0
N169 N 0.50973 0.29798 0.74501 0.0
N170 N 0.5369 0.3256 0.78629 0.0
H171 H 0.56253 0.27713 0.76355 0.0
H172 H 0.4623 0.33727 0.74246 0.0
C173 C 0.42343 0.27309 0.68509 0.0
O174 O 0.42304 0.23731 0.67583 0.0
N175 N 0.49871 0.23389 0.67236 0.0
C176 C 0.50367 0.19572 0.67035 0.0
C177 C 0.50315 0.18513 0.63984 0.0
C178 C 0.49559 0.24592 0.64287 0.0
N179 N 0.49836 0.21674 0.62256 0.0
C180 C 0.52066 0.20179 0.74628 0.0
C181 C 0.44795 0.17105 0.74665 0.0
C182 C 0.47918 0.14721 0.75278 0.0
C183 C 0.51551 0.16378 0.75493 0.0
C184 C 0.4544 0.20918 0.73835 0.0
N185 N 0.49081 0.22276 0.73522 0.0
H186 H 0.54939 0.21281 0.74541 0.0
H187 H 0.43014 0.22652 0.73261 0.0
H188 H 0.50862 0.17659 0.68934 0.0
H189 H 0.49262 0.2756 0.63642 0.0
O190 O 0.55865 0.25962 0.70545 0.0
O191 O 0.52474 0.30566 0.68362 0.0
O192 O 0.44887 0.28457 0.70418 0.0
C193 C 0.55757 0.28918 0.6873 0.0
H194 H 0.49409 0.36989 0.79115 0.0
H195 H 0.5067 0.15635 0.63114 0.0
H196 H 0.41919 0.15968 0.74577 0.0
H197 H 0.54025 0.14668 0.76075 0.0
Co198 Co 0.7496 0.51497 0.95171 0.0
C199 C 0.70956 0.55161 0.00495 0.0
C200 C 0.70841 0.49042 0.00749 0.0
C201 C 0.69209 0.50508 0.03395 0.0
N202 N 0.7193 0.51957 0.98919 0.0
N203 N 0.69285 0.54356 0.03234 0.0
H204 H 0.716 0.58029 0.99735 0.0
H205 H 0.71324 0.46051 0.00252 0.0
C206 C 0.73485 0.4372 0.92371 0.0
O207 O 0.76952 0.43603 0.91212 0.0
N208 N 0.78066 0.51138 0.91466 0.0
C209 C 0.81903 0.51403 0.91284 0.0
C210 C 0.82964 0.5138 0.88233 0.0
C211 C 0.76845 0.51038 0.8851 0.0
N212 N 0.79786 0.51155 0.86489 0.0
C213 C 0.81307 0.52219 0.99191 0.0
C214 C 0.83945 0.44806 0.98704 0.0
C215 C 0.8638 0.47619 0.9991 0.0
C216 C 0.84929 0.51323 0.00304 0.0
C217 C 0.80317 0.45827 0.97638 0.0
N218 N 0.79175 0.49561 0.97657 0.0
H219 H 0.80338 0.55136 0.99375 0.0
H220 H 0.78529 0.43615 0.96722 0.0
H221 H 0.83826 0.51675 0.93214 0.0
H222 H 0.73865 0.50943 0.87859 0.0
O223 O 0.76153 0.56934 0.95251 0.0
O224 O 0.71196 0.54279 0.92881 0.0
O225 O 0.7257 0.46298 0.94345 0.0
C226 C 0.73165 0.57324 0.93498 0.0
H227 H 0.68087 0.48862 0.05305 0.0
H228 H 0.85864 0.51519 0.87373 0.0
H229 H 0.84883 0.41868 0.98487 0.0
H230 H 0.8667 0.53593 0.01258 0.0
Co231 Co 0.49083 0.74542 0.2 0.0
C232 C 0.47112 0.71029 0.26057 0.0
C233 C 0.51221 0.67703 0.23575 0.0
C234 C 0.5005 0.65662 0.26106 0.0
N235 N 0.4946 0.71127 0.23555 0.0
N236 N 0.47405 0.67714 0.27656 0.0
H237 H 0.44964 0.73167 0.2653 0.0
H238 H 0.52948 0.66552 0.21733 0.0
C239 C 0.57231 0.71527 0.18883 0.0
O240 O 0.58311 0.72002 0.2176 0.0
N241 N 0.48573 0.77823 0.16462 0.0
C242 C 0.47374 0.81477 0.16415 0.0
C243 C 0.47245 0.82674 0.13393 0.0
C244 C 0.49106 0.76823 0.13494 0.0
N245 N 0.4833 0.79739 0.11558 0.0
C246 C 0.50108 0.80351 0.24592 0.0
C247 C 0.5603 0.84011 0.21572 0.0
C248 C 0.54124 0.85948 0.23953 0.0
C249 C 0.5124 0.83999 0.25563 0.0
C250 C 0.54816 0.80372 0.20677 0.0
N251 N 0.51798 0.78637 0.22111 0.0
H252 H 0.47643 0.79069 0.25664 0.0
H253 H 0.56058 0.79146 0.18622 0.0
H254 H 0.46624 0.83141 0.18432 0.0
H255 H 0.4993 0.73978 0.12776 0.0
O256 O 0.43846 0.75806 0.21126 0.0
O257 O 0.45694 0.70982 0.18112 0.0
O258 O 0.5386 0.72409 0.18035 0.0
C259 C 0.4294 0.72908 0.19378 0.0
H260 H 0.50927 0.62774 0.26629 0.0
H261 H 0.46422 0.85492 0.12619 0.0
H262 H 0.5829 0.8539 0.20276 0.0
H263 H 0.49653 0.85394 0.27393 0.0
H264 H 0.21271 0.42595 0.32228 0.0
H265 H 0.20363 0.55531 0.17628 0.0
H266 H 0.24571 0.54422 0.32882 0.0
H267 H 0.24976 0.44157 0.1689 0.0
H268 H 0.20952 0.55165 0.23271 0.0
H269 H 0.21712 0.42997 0.26574 0.0
C270 C 0.22101 0.45265 0.31161 0.0
C271 C 0.22877 0.48487 0.32974 0.0
C272 C 0.21858 0.52765 0.21867 0.0
C273 C 0.23313 0.48991 0.26588 0.0
C274 C 0.21494 0.52962 0.18672 0.0
C275 C 0.22602 0.49856 0.16837 0.0
C276 C 0.23236 0.494 0.23215 0.0
C277 C 0.24097 0.46596 0.18258 0.0
C278 C 0.22373 0.4549 0.27961 0.0
C279 C 0.23965 0.51891 0.31529 0.0
N280 N 0.24316 0.46421 0.21383 0.0
N281 N 0.24091 0.5208 0.284 0.0
H282 H 0.51967 0.16085 0.43098 0.0
H283 H 0.46724 0.27199 0.58627 0.0
H284 H 0.47349 0.27502 0.43113 0.0
H285 H 0.53194 0.16703 0.58283 0.0
H286 H 0.46883 0.27451 0.52983 0.0
H287 H 0.52403 0.16319 0.48703 0.0
C288 C 0.51054 0.18648 0.44293 0.0
C289 C 0.49596 0.21767 0.42654 0.0
C290 C 0.48277 0.25104 0.54152 0.0
C291 C 0.50071 0.22067 0.49076 0.0
C292 C 0.48195 0.24961 0.57373 0.0
C293 C 0.49919 0.21905 0.58939 0.0
C294 C 0.50084 0.22163 0.52491 0.0
C295 C 0.51752 0.19068 0.57188 0.0
C296 C 0.51316 0.18791 0.47491 0.0
C297 C 0.48507 0.25047 0.44301 0.0
N298 N 0.51772 0.19261 0.54065 0.0
N299 N 0.48731 0.25101 0.47435 0.0
H300 H 0.73715 0.47487 0.67346 0.0
H301 H 0.8497 0.54115 0.82502 0.0
H302 H 0.85089 0.52237 0.67333 0.0
H303 H 0.74201 0.48121 0.82862 0.0
H304 H 0.84814 0.53774 0.76903 0.0
H305 H 0.73585 0.48023 0.72988 0.0
C306 C 0.76175 0.48655 0.68526 0.0
C307 C 0.79426 0.49803 0.66866 0.0
C308 C 0.82479 0.52529 0.78199 0.0
C309 C 0.79301 0.50416 0.73305 0.0
C310 C 0.82577 0.52707 0.81406 0.0
C311 C 0.79613 0.51112 0.83166 0.0
C312 C 0.79392 0.50746 0.76717 0.0
C313 C 0.76536 0.4941 0.816 0.0
C314 C 0.76107 0.48943 0.71745 0.0
C315 C 0.82549 0.51259 0.68516 0.0
N316 N 0.76511 0.49259 0.78462 0.0
N317 N 0.82405 0.51527 0.71636 0.0
H318 H 0.46341 0.85245 0.92285 0.0
H319 H 0.52411 0.74867 0.07914 0.0
H320 H 0.52152 0.74381 0.92494 0.0
H321 H 0.44697 0.84487 0.07558 0.0
H322 H 0.52624 0.74793 0.02291 0.0
H323 H 0.46018 0.85192 0.97908 0.0
C324 C 0.47562 0.82854 0.93517 0.0
C325 C 0.49291 0.79821 0.91919 0.0
C326 C 0.50879 0.76914 0.03448 0.0
C327 C 0.48917 0.79728 0.98361 0.0
C328 C 0.5074 0.76951 0.06666 0.0
C329 C 0.48523 0.79685 0.08233 0.0
C330 C 0.48806 0.79644 0.01778 0.0
C331 C 0.46484 0.82356 0.06469 0.0
C332 C 0.47357 0.82813 0.96727 0.0
C333 C 0.50769 0.76762 0.93632 0.0
N334 N 0.4668 0.8227 0.03341 0.0
N335 N 0.50567 0.76802 0.96764 0.0
H336 H 0.10518 0.42557 0.97308 0.0
H337 H 0.90919 0.50263 0.04618 0.0
H338 H 0.09666 0.51918 0.03765 0.0
H339 H 0.91267 0.43275 0.96401 0.0
H340 H 0.97868 0.49893 0.04929 0.0
H341 H 0.03514 0.4189 0.97466 0.0
C342 C 0.08858 0.44465 0.98753 0.0
C343 C 0.1066 0.47342 0.0048 0.0
C344 C 0.96421 0.4841 0.03072 0.0
C345 C 0.02707 0.46554 0.00722 0.0
C346 C 0.92451 0.4862 0.02894 0.0
C347 C 0.90501 0.46842 0.00457 0.0
C348 C 0.98474 0.46405 0.008 0.0
C349 C 0.92642 0.4468 0.98329 0.0
C350 C 0.04874 0.44085 0.98844 0.0
C351 C 0.08387 0.49722 0.02338 0.0
N352 N 0.96518 0.44552 0.98531 0.0
N353 N 0.04541 0.49274 0.02409 0.0
H354 H 0.53756 0.10368 0.21354 0.0
H355 H 0.54483 0.89897 0.29461 0.0
H356 H 0.5521 0.08921 0.31161 0.0
H357 H 0.55128 0.91516 0.19607 0.0
H358 H 0.54914 0.96841 0.3016 0.0
H359 H 0.54447 0.03459 0.2067 0.0
C360 C 0.54258 0.08599 0.2336 0.0
C361 C 0.54423 0.10229 0.26318 0.0
C362 C 0.55007 0.95669 0.27847 0.0
C363 C 0.55178 0.02301 0.25562 0.0
C364 C 0.54749 0.91706 0.27448 0.0
C365 C 0.5478 0.90109 0.24472 0.0
C366 C 0.55247 0.98063 0.25252 0.0
C367 C 0.55149 0.926 0.21947 0.0
C368 C 0.54659 0.04654 0.2297 0.0
C369 C 0.55103 0.07796 0.28835 0.0
N370 N 0.55333 0.96441 0.22394 0.0
N371 N 0.55414 0.03955 0.28404 0.0
H372 H 0.10305 0.47735 0.50575 0.0
H373 H 0.90734 0.59377 0.48784 0.0
H374 H 0.101 0.59593 0.47837 0.0
H375 H 0.91606 0.4745 0.5121 0.0
H376 H 0.97746 0.59701 0.48504 0.0
H377 H 0.03415 0.47801 0.50983 0.0
C378 C 0.08824 0.50388 0.50113 0.0
C379 C 0.10827 0.53682 0.49209 0.0
C380 C 0.96387 0.57015 0.49079 0.0
C381 C 0.02818 0.53736 0.49581 0.0
C382 C 0.92387 0.56827 0.49243 0.0
C383 C 0.90556 0.53367 0.49984 0.0
C384 C 0.98566 0.53728 0.49686 0.0
C385 C 0.92857 0.50159 0.50554 0.0
C386 C 0.04858 0.50407 0.50309 0.0
C387 C 0.08688 0.56982 0.48535 0.0
N388 N 0.96716 0.50423 0.50397 0.0
N389 N 0.04797 0.56926 0.48733 0.0
H390 H 0.52317 0.09664 0.72124 0.0
H391 H 0.42548 0.90905 0.78756 0.0
H392 H 0.42518 0.10183 0.7816 0.0
H393 H 0.50064 0.90963 0.70847 0.0
H394 H 0.42378 0.97885 0.7862 0.0
H395 H 0.51606 0.02757 0.71806 0.0
C396 C 0.50037 0.08313 0.73417 0.0
C397 C 0.47512 0.10498 0.75217 0.0
C398 C 0.44022 0.96364 0.76891 0.0
C399 C 0.46636 0.02558 0.74815 0.0
C400 C 0.44096 0.9237 0.76946 0.0
C401 C 0.46356 0.90323 0.74824 0.0
C402 C 0.46252 0.98332 0.74721 0.0
C403 C 0.48347 0.92406 0.7257 0.0
C404 C 0.49603 0.04368 0.73201 0.0
C405 C 0.4454 0.08599 0.76764 0.0
N406 N 0.48284 0.96287 0.72602 0.0
N407 N 0.44202 0.04726 0.7655 0.0
H408 H 0.38434 0.67707 0.22181 0.0
H409 H 0.28332 0.63546 0.06066 0.0
H410 H 0.38896 0.75541 0.14548 0.0
H411 H 0.31766 0.552 0.12823 0.0
H412 H 0.30162 0.68667 0.09709 0.0
H413 H 0.33566 0.64 0.19452 0.0
C414 C 0.37351 0.68751 0.19998 0.0
C415 C 0.39022 0.71917 0.18578 0.0
C416 C 0.30458 0.65707 0.10392 0.0
C417 C 0.33665 0.67608 0.15373 0.0
C418 C 0.29448 0.62803 0.08315 0.0
C419 C 0.30019 0.58969 0.09122 0.0
C420 C 0.3194 0.64732 0.13301 0.0
C421 C 0.31396 0.58127 0.12076 0.0
C422 C 0.34626 0.66609 0.18416 0.0
C423 C 0.37622 0.73118 0.15713 0.0
N424 N 0.3232 0.60981 0.14049 0.0
N425 N 0.3508 0.70903 0.14157 0.0
H426 H 0.39864 0.2369 0.37062 0.0
H427 H 0.23709 0.3942 0.39224 0.0
H428 H 0.36093 0.3134 0.29923 0.0
H429 H 0.31902 0.3636 0.46188 0.0
H430 H 0.26064 0.34186 0.35969 0.0
H431 H 0.34764 0.26085 0.40439 0.0
C432 C 0.37837 0.25743 0.36161 0.0
C433 C 0.38346 0.27313 0.33219 0.0
C434 C 0.2723 0.34559 0.38264 0.0
C435 C 0.32587 0.3008 0.37053 0.0
C436 C 0.25865 0.37511 0.40132 0.0
C437 C 0.27606 0.38272 0.42975 0.0
C438 C 0.30336 0.32365 0.3927 0.0
C439 C 0.3047 0.35813 0.44019 0.0
C440 C 0.34959 0.27124 0.38092 0.0
C441 C 0.35742 0.30042 0.32172 0.0
N442 N 0.31787 0.32984 0.42145 0.0
N443 N 0.32985 0.3138 0.34106 0.0
H444 H 0.63428 0.29192 0.70152 0.0
H445 H 0.68031 0.38563 0.53761 0.0
H446 H 0.55368 0.31047 0.62795 0.0
H447 H 0.74524 0.41099 0.61944 0.0
H448 H 0.64574 0.33601 0.56614 0.0
H449 H 0.68567 0.31607 0.66756 0.0
C450 C 0.62762 0.30054 0.67816 0.0
C451 C 0.58984 0.30014 0.66758 0.0
C452 C 0.66837 0.35163 0.57761 0.0
C453 C 0.64777 0.32619 0.62879 0.0
C454 C 0.68823 0.37958 0.56126 0.0
C455 C 0.71546 0.40192 0.57637 0.0
C456 C 0.67555 0.34674 0.60928 0.0
C457 C 0.72439 0.39388 0.60716 0.0
C458 C 0.65676 0.31412 0.65886 0.0
C459 C 0.58239 0.31118 0.63715 0.0
N460 N 0.70399 0.36723 0.62289 0.0
N461 N 0.61105 0.32385 0.61887 0.0
H462 H 0.70082 0.63673 0.96169 0.0
H463 H 0.63444 0.71563 0.79747 0.0
H464 H 0.73811 0.59006 0.87466 0.0
H465 H 0.56978 0.7252 0.88179 0.0
H466 H 0.68812 0.68877 0.82713 0.0
H467 H 0.66906 0.68896 0.9339 0.0
C468 C 0.70337 0.63834 0.93682 0.0
C469 C 0.7217 0.60936 0.92023 0.0
C470 C 0.66248 0.69772 0.83915 0.0
C471 C 0.68547 0.66802 0.88851 0.0
C472 C 0.63208 0.71304 0.8223 0.0
C473 C 0.59785 0.72194 0.83737 0.0
C474 C 0.65837 0.69201 0.87112 0.0
C475 C 0.59574 0.71807 0.86946 0.0
C476 C 0.68516 0.66787 0.92097 0.0
C477 C 0.72396 0.61208 0.88806 0.0
N478 N 0.62549 0.70309 0.88529 0.0
N479 N 0.7056 0.6407 0.87312 0.0
H480 H 0.25845 0.36747 0.11503 0.0
H481 H 0.47446 0.35787 0.17475 0.0
H482 H 0.35216 0.42553 0.07033 0.0
H483 H 0.38192 0.29411 0.21587 0.0
H484 H 0.43074 0.38057 0.13506 0.0
H485 H 0.30376 0.33738 0.15016 0.0
C486 C 0.28861 0.37342 0.11219 0.0
C487 C 0.30136 0.39922 0.0896 0.0
C488 C 0.42002 0.3615 0.15271 0.0
C489 C 0.35357 0.36519 0.13034 0.0
C490 C 0.44508 0.34836 0.17543 0.0
C491 C 0.4321 0.32396 0.19897 0.0
C492 C 0.38147 0.35034 0.15338 0.0
C493 C 0.39335 0.31325 0.19863 0.0
C494 C 0.31451 0.35634 0.13245 0.0
C495 C 0.34088 0.40582 0.08727 0.0
N496 N 0.3695 0.32655 0.17631 0.0
N497 N 0.36547 0.38924 0.10754 0.0
H498 H 0.5773 0.29108 0.36621 0.0
H499 H 0.66423 0.49606 0.41115 0.0
H500 H 0.55643 0.39501 0.3157 0.0
H501 H 0.66556 0.40014 0.47359 0.0
H502 H 0.63294 0.4563 0.37267 0.0
H503 H 0.61836 0.32719 0.40194 0.0
C504 C 0.582 0.32127 0.36223 0.0
C505 C 0.56334 0.34007 0.33791 0.0
C506 C 0.64013 0.44383 0.39476 0.0
C507 C 0.60995 0.38155 0.37881 0.0
C508 C 0.65789 0.46669 0.41695 0.0
C509 C 0.66725 0.45183 0.44608 0.0
C510 C 0.63156 0.40551 0.4014 0.0
C511 C 0.65907 0.41301 0.45157 0.0
C512 C 0.60514 0.34193 0.3828 0.0
C513 C 0.57008 0.37934 0.33415 0.0
N514 N 0.64154 0.39129 0.42954 0.0
N515 N 0.59263 0.39869 0.35436 0.0
H516 H 0.61375 0.70998 0.71686 0.0
H517 H 0.65598 0.56928 0.57447 0.0
H518 H 0.52913 0.63507 0.67674 0.0
H519 H 0.74374 0.63024 0.62418 0.0
H520 H 0.60767 0.6 0.60704 0.0
H521 H 0.66029 0.68662 0.67943 0.0
C522 C 0.60478 0.68857 0.70038 0.0
C523 C 0.56712 0.67449 0.70035 0.0
C524 C 0.63748 0.60696 0.6106 0.0
C525 C 0.62065 0.64796 0.65674 0.0
C526 C 0.66511 0.58967 0.5918 0.0
C527 C 0.70412 0.59699 0.59662 0.0
C528 C 0.64883 0.63191 0.63436 0.0
C529 C 0.71409 0.62352 0.61965 0.0
C530 C 0.63147 0.6754 0.67877 0.0
C531 C 0.55749 0.64719 0.67773 0.0
N532 N 0.68672 0.63977 0.63774 0.0
N533 N 0.58401 0.63484 0.65698 0.0
H534 H 0.30409 0.61102 0.96753 0.0
H535 H 0.43258 0.65478 0.81889 0.0
H536 H 0.36722 0.52433 0.9181 0.0
H537 H 0.36971 0.74071 0.8694 0.0
H538 H 0.40312 0.60548 0.85105 0.0
H539 H 0.3224 0.65746 0.92844 0.0
C540 C 0.32141 0.60148 0.94832 0.0
C541 C 0.33423 0.56348 0.94639 0.0
C542 C 0.3954 0.63509 0.85483 0.0
C543 C 0.35585 0.61711 0.90142 0.0
C544 C 0.41204 0.6633 0.83631 0.0
C545 C 0.4039 0.70211 0.84153 0.0
C546 C 0.37046 0.64569 0.87882 0.0
C547 C 0.3771 0.71126 0.86457 0.0
C548 C 0.33206 0.62821 0.92599 0.0
C549 C 0.35713 0.55332 0.92096 0.0
N550 N 0.3617 0.68336 0.88251 0.0
N551 N 0.36735 0.57996 0.89962 0.0
H552 H 0.35359 0.53087 0.40213 0.0
H553 H 0.429 0.71911 0.31599 0.0
H554 H 0.30789 0.64259 0.42296 0.0
H555 H 0.46236 0.60325 0.29435 0.0
H556 H 0.387 0.69414 0.3568 0.0
H557 H 0.39662 0.55941 0.365 0.0
C558 C 0.35263 0.56157 0.39905 0.0
C559 C 0.32674 0.58424 0.41581 0.0
C560 C 0.40375 0.67437 0.3431 0.0
C561 C 0.37658 0.61753 0.37251 0.0
C562 C 0.42769 0.68857 0.31967 0.0
C563 C 0.44975 0.66347 0.30144 0.0
C564 C 0.40185 0.63478 0.34842 0.0
C565 C 0.44682 0.62415 0.30774 0.0
C566 C 0.37737 0.57793 0.37764 0.0
C567 C 0.32733 0.62395 0.41064 0.0
N568 N 0.42349 0.61124 0.33049 0.0
N569 N 0.35173 0.63935 0.38933 0.0
H570 H 0.32166 0.38187 0.52924 0.0
H571 H 0.42258 0.35147 0.69189 0.0
H572 H 0.34689 0.476 0.59062 0.0
H573 H 0.37366 0.26023 0.63758 0.0
H574 H 0.3944 0.39792 0.65638 0.0
H575 H 0.34083 0.33755 0.56917 0.0
C576 C 0.33078 0.39347 0.55115 0.0
C577 C 0.33222 0.43315 0.55634 0.0
C578 C 0.38942 0.36774 0.65252 0.0
C579 C 0.35521 0.38174 0.60249 0.0
C580 C 0.40534 0.34115 0.6729 0.0
C581 C 0.4007 0.30173 0.66773 0.0
C582 C 0.36901 0.35486 0.62663 0.0
C583 C 0.37819 0.29022 0.64256 0.0
C584 C 0.34195 0.3679 0.57405 0.0
C585 C 0.34547 0.44585 0.58526 0.0
N586 N 0.36362 0.31657 0.62284 0.0
N587 N 0.35657 0.42027 0.60716 0.0
H588 H 0.65722 0.43934 0.93378 0.0
H589 H 0.61277 0.3079 0.78688 0.0
H590 H 0.74355 0.38038 0.88072 0.0
H591 H 0.52551 0.3669 0.8389 0.0
H592 H 0.66004 0.32865 0.8245 0.0
H593 H 0.60791 0.40726 0.90326 0.0
C594 C 0.66586 0.41913 0.91613 0.0
C595 C 0.70471 0.41284 0.90971 0.0
C596 C 0.6305 0.33687 0.82784 0.0
C597 C 0.64828 0.3764 0.87433 0.0
C598 C 0.60331 0.32481 0.80637 0.0
C599 C 0.56488 0.33577 0.80946 0.0
C600 C 0.61942 0.36023 0.8527 0.0
C601 C 0.55479 0.35824 0.83516 0.0
C602 C 0.63764 0.40099 0.89856 0.0
C603 C 0.71404 0.38638 0.88644 0.0
N604 N 0.58187 0.36988 0.85564 0.0
N605 N 0.6861 0.36949 0.86945 0.0
H606 H 0.57233 0.7233 0.12641 0.0
H607 H 0.69127 0.53345 0.09452 0.0
H608 H 0.62707 0.6603 0.19937 0.0
H609 H 0.66473 0.61504 0.02332 0.0
H610 H 0.66687 0.57833 0.13326 0.0
H611 H 0.60543 0.68368 0.0884 0.0
C612 C 0.59171 0.70136 0.13443 0.0
C613 C 0.59688 0.69505 0.16614 0.0
C614 C 0.66662 0.58653 0.10919 0.0
C615 C 0.63449 0.64896 0.12259 0.0
C616 C 0.68026 0.56078 0.08701 0.0
C617 C 0.67983 0.57035 0.05554 0.0
C618 C 0.65189 0.622 0.09988 0.0
C619 C 0.66579 0.6065 0.04727 0.0
C620 C 0.61063 0.67873 0.11269 0.0
C621 C 0.62245 0.66629 0.17517 0.0
N622 N 0.65207 0.6308 0.06923 0.0
N623 N 0.6399 0.64395 0.15351 0.0
loop_
_geom_bond_atom_site_label_1
_geom_bond_atom_site_label_2
_geom_bond_distance
_geom_bond_site_symmetry_2
_ccdc_geom_bond_type
Co0 N4 2.148 . S
Co0 N10 2.128 . S
Co0 N20 2.194 . S
Co0 O25 2.351 . S
Co0 O26 2.155 . S
Co0 O27 2.096 . S
C1 N4 1.301 . S
C1 N5 1.328 1_554 S
C1 H6 0.930 . S
C2 C3 1.333 1_554 S
C2 N4 1.317 . S
C2 H7 0.930 . S
C3 C2 1.333 1_556 S
C3 N5 1.350 . S
C3 H29 0.931 . S
N4 Co0 2.148 . S
N4 C1 1.301 . S
N4 C2 1.317 . S
N5 C1 1.328 1_556 S
N5 C3 1.350 . S
H6 C1 0.930 . S
H7 C2 0.930 . S
C8 O9 1.224 . S
C8 O27 1.247 . S
O9 C8 1.224 . S
N10 Co0 2.128 . S
N10 C11 1.355 . S
N10 C13 1.311 . S
C11 N10 1.355 . S
C11 C12 1.363 . S
C11 H23 0.929 . S
C12 C11 1.363 . S
C12 N14 1.375 . S
C12 H30 0.931 . S
C13 N10 1.311 . S
C13 N14 1.347 . S
C13 H24 0.929 . S
N14 C12 1.375 . S
N14 C13 1.347 . S
C15 C18 1.365 . S
C15 N20 1.328 . S
C15 H21 0.929 . S
C16 C17 1.362 . S
C16 C19 1.378 . S
C16 H31 0.929 . S
C17 C16 1.362 . S
C17 C18 1.366 . S
C18 C15 1.365 . S
C18 C17 1.366 . S
C18 H32 0.930 . S
C19 C16 1.378 . S
C19 N20 1.315 . S
C19 H22 0.930 . S
N20 Co0 2.194 . S
N20 C15 1.328 . S
N20 C19 1.315 . S
H21 C15 0.929 . S
H22 C19 0.930 . S
H23 C11 0.929 . S
H24 C13 0.929 . S
O25 Co0 2.351 . S
O25 C28 1.244 . S
O26 Co0 2.155 . S
O26 C28 1.240 . S
O27 Co0 2.096 . S
O27 C8 1.247 . S
C28 O25 1.244 . S
C28 O26 1.240 . S
H29 C3 0.931 . S
H30 C12 0.931 . S
H31 C16 0.929 . S
H32 C18 0.930 . S
Co33 N37 2.148 . S
Co33 N43 2.128 . S
Co33 N53 2.194 . S
Co33 O58 2.351 . S
Co33 O59 2.155 . S
Co33 O60 2.096 . S
C34 N37 1.301 . S
C34 N38 1.328 . S
C34 H39 0.930 . S
C35 C36 1.333 . S
C35 N37 1.317 . S
C35 H40 0.930 . S
C36 C35 1.333 . S
C36 N38 1.350 . S
C36 H62 0.931 . S
N37 Co33 2.148 . S
N37 C34 1.301 . S
N37 C35 1.317 . S
N38 C34 1.328 . S
N38 C36 1.350 . S
H39 C34 0.930 . S
H40 C35 0.930 . S
C41 O42 1.224 . S
C41 O60 1.247 . S
O42 C41 1.224 . S
N43 Co33 2.128 . S
N43 C44 1.355 . S
N43 C46 1.311 . S
C44 N43 1.355 . S
C44 C45 1.363 . S
C44 H56 0.929 . S
C45 C44 1.363 . S
C45 N47 1.375 . S
C45 H63 0.931 . S
C46 N43 1.311 . S
C46 N47 1.347 . S
C46 H57 0.929 . S
N47 C45 1.375 . S
N47 C46 1.347 . S
C48 C51 1.365 . S
C48 N53 1.328 . S
C48 H54 0.929 . S
C49 C50 1.362 . S
C49 C52 1.378 . S
C49 H64 0.929 . S
C50 C49 1.362 . S
C50 C51 1.366 . S
C51 C48 1.365 . S
C51 C50 1.366 . S
C51 H65 0.930 . S
C52 C49 1.378 . S
C52 N53 1.315 . S
C52 H55 0.930 . S
N53 Co33 2.194 . S
N53 C48 1.328 . S
N53 C52 1.315 . S
H54 C48 0.929 . S
H55 C52 0.930 . S
H56 C44 0.929 . S
H57 C46 0.929 . S
O58 Co33 2.351 . S
O58 C61 1.244 . S
O59 Co33 2.155 . S
O59 C61 1.240 . S
O60 Co33 2.096 . S
O60 C41 1.247 . S
C61 O58 1.244 . S
C61 O59 1.240 . S
H62 C36 0.931 . S
H63 C45 0.931 . S
H64 C49 0.929 . S
H65 C51 0.930 . S
Co66 N70 2.148 . S
Co66 N76 2.128 . S
Co66 N86 2.194 . S
Co66 O91 2.351 . S
Co66 O92 2.155 . S
Co66 O93 2.096 . S
C67 N70 1.301 . S
C67 N71 1.328 . S
C67 H72 0.930 . S
C68 C69 1.333 . S
C68 N70 1.317 . S
C68 H73 0.930 . S
C69 C68 1.333 . S
C69 N71 1.350 . S
C69 H95 0.931 . S
N70 Co66 2.148 . S
N70 C67 1.301 . S
N70 C68 1.317 . S
N71 C67 1.328 . S
N71 C69 1.350 . S
H72 C67 0.930 . S
H73 C68 0.930 . S
C74 O75 1.224 . S
C74 O93 1.247 . S
O75 C74 1.224 . S
N76 Co66 2.128 . S
N76 C77 1.355 . S
N76 C79 1.311 . S
C77 N76 1.355 . S
C77 C78 1.363 . S
C77 H89 0.929 . S
C78 C77 1.363 . S
C78 N80 1.375 . S
C78 H96 0.931 . S
C79 N76 1.311 . S
C79 N80 1.347 . S
C79 H90 0.929 . S
N80 C78 1.375 . S
N80 C79 1.347 . S
C81 C84 1.365 . S
C81 N86 1.328 . S
C81 H87 0.929 . S
C82 C83 1.362 . S
C82 C85 1.378 . S
C82 H97 0.929 . S
C83 C82 1.362 . S
C83 C84 1.366 . S
C84 C81 1.365 . S
C84 C83 1.366 . S
C84 H98 0.930 . S
C85 C82 1.378 . S
C85 N86 1.315 . S
C85 H88 0.930 . S
N86 Co66 2.194 . S
N86 C81 1.328 . S
N86 C85 1.315 . S
H87 C81 0.929 . S
H88 C85 0.930 . S
H89 C77 0.929 . S
H90 C79 0.929 . S
O91 Co66 2.351 . S
O91 C94 1.244 . S
O92 Co66 2.155 . S
O92 C94 1.240 . S
O93 Co66 2.096 . S
O93 C74 1.247 . S
C94 O91 1.244 . S
C94 O92 1.240 . S
H95 C69 0.931 . S
H96 C78 0.931 . S
H97 C82 0.929 . S
H98 C84 0.930 . S
Co99 N103 2.148 . S
Co99 N109 2.128 . S
Co99 N119 2.194 . S
Co99 O124 2.351 . S
Co99 O125 2.155 . S
Co99 O126 2.096 . S
C100 N103 1.301 . S
C100 N104 1.328 . S
C100 H105 0.930 . S
C101 C102 1.333 . S
C101 N103 1.317 . S
C101 H106 0.930 . S
C102 C101 1.333 . S
C102 N104 1.350 . S
C102 H128 0.931 . S
N103 Co99 2.148 . S
N103 C100 1.301 . S
N103 C101 1.317 . S
N104 C100 1.328 . S
N104 C102 1.350 . S
H105 C100 0.930 . S
H106 C101 0.930 . S
C107 O108 1.224 . S
C107 O126 1.247 . S
O108 C107 1.224 . S
N109 Co99 2.128 . S
N109 C110 1.355 . S
N109 C112 1.311 . S
C110 N109 1.355 . S
C110 C111 1.363 . S
C110 H122 0.929 . S
C111 C110 1.363 . S
C111 N113 1.375 . S
C111 H129 0.931 . S
C112 N109 1.311 . S
C112 N113 1.347 . S
C112 H123 0.929 . S
N113 C111 1.375 . S
N113 C112 1.347 . S
C114 C117 1.365 . S
C114 N119 1.328 . S
C114 H120 0.929 . S
C115 C116 1.362 . S
C115 C118 1.378 . S
C115 H130 0.929 . S
C116 C115 1.362 . S
C116 C117 1.366 . S
C117 C114 1.365 . S
C117 C116 1.366 . S
C117 H131 0.930 . S
C118 C115 1.378 . S
C118 N119 1.315 . S
C118 H121 0.930 . S
N119 Co99 2.194 . S
N119 C114 1.328 . S
N119 C118 1.315 . S
H120 C114 0.929 . S
H121 C118 0.930 . S
H122 C110 0.929 . S
H123 C112 0.929 . S
O124 Co99 2.351 . S
O124 C127 1.244 . S
O125 Co99 2.155 . S
O125 C127 1.240 . S
O126 Co99 2.096 . S
O126 C107 1.247 . S
C127 O124 1.244 . S
C127 O125 1.240 . S
H128 C102 0.931 . S
H129 C111 0.931 . S
H130 C115 0.929 . S
H131 C117 0.930 . S
Co132 N136 2.148 . S
Co132 N142 2.128 . S
Co132 N152 2.194 . S
Co132 O157 2.351 . S
Co132 O158 2.155 . S
Co132 O159 2.096 . S
C133 N136 1.301 . S
C133 N137 1.328 . S
C133 H138 0.930 . S
C134 C135 1.333 . S
C134 N136 1.317 . S
C134 H139 0.930 . S
C135 C134 1.333 . S
C135 N137 1.350 . S
C135 H161 0.931 . S
N136 Co132 2.148 . S
N136 C133 1.301 . S
N136 C134 1.317 . S
N137 C133 1.328 . S
N137 C135 1.350 . S
H138 C133 0.930 . S
H139 C134 0.930 . S
C140 O141 1.224 . S
C140 O159 1.247 . S
O141 C140 1.224 . S
N142 Co132 2.128 . S
N142 C143 1.355 . S
N142 C145 1.311 . S
C143 N142 1.355 . S
C143 C144 1.363 . S
C143 H155 0.929 . S
C144 C143 1.363 . S
C144 N146 1.375 . S
C144 H162 0.931 . S
C145 N142 1.311 . S
C145 N146 1.347 . S
C145 H156 0.929 . S
N146 C144 1.375 . S
N146 C145 1.347 . S
C147 C150 1.365 . S
C147 N152 1.328 . S
C147 H153 0.929 . S
C148 C149 1.362 . S
C148 C151 1.378 . S
C148 H163 0.929 . S
C149 C148 1.362 . S
C149 C150 1.366 . S
C150 C147 1.365 . S
C150 C149 1.366 . S
C150 H164 0.930 . S
C151 C148 1.378 . S
C151 N152 1.315 . S
C151 H154 0.930 . S
N152 Co132 2.194 . S
N152 C147 1.328 . S
N152 C151 1.315 . S
H153 C147 0.929 . S
H154 C151 0.930 . S
H155 C143 0.929 . S
H156 C145 0.929 . S
O157 Co132 2.351 . S
O157 C160 1.244 . S
O158 Co132 2.155 . S
O158 C160 1.240 . S
O159 Co132 2.096 . S
O159 C140 1.247 . S
C160 O157 1.244 . S
C160 O158 1.240 . S
H161 C135 0.931 . S
H162 C144 0.931 . S
H163 C148 0.929 . S
H164 C150 0.930 . S
Co165 N169 2.148 . S
Co165 N175 2.128 . S
Co165 N185 2.194 . S
Co165 O190 2.351 . S
Co165 O191 2.155 . S
Co165 O192 2.096 . S
C166 N169 1.301 . S
C166 N170 1.328 . S
C166 H171 0.930 . S
C167 C168 1.333 . S
C167 N169 1.317 . S
C167 H172 0.930 . S
C168 C167 1.333 . S
C168 N170 1.350 . S
C168 H194 0.931 . S
N169 Co165 2.148 . S
N169 C166 1.301 . S
N169 C167 1.317 . S
N170 C166 1.328 . S
N170 C168 1.350 . S
H171 C166 0.930 . S
H172 C167 0.930 . S
C173 O174 1.224 . S
C173 O192 1.247 . S
O174 C173 1.224 . S
N175 Co165 2.128 . S
N175 C176 1.355 . S
N175 C178 1.311 . S
C176 N175 1.355 . S
C176 C177 1.363 . S
C176 H188 0.929 . S
C177 C176 1.363 . S
C177 N179 1.375 . S
C177 H195 0.931 . S
C178 N175 1.311 . S
C178 N179 1.347 . S
C178 H189 0.929 . S
N179 C177 1.375 . S
N179 C178 1.347 . S
C180 C183 1.365 . S
C180 N185 1.328 . S
C180 H186 0.929 . S
C181 C182 1.362 . S
C181 C184 1.378 . S
C181 H196 0.929 . S
C182 C181 1.362 . S
C182 C183 1.366 . S
C183 C180 1.365 . S
C183 C182 1.366 . S
C183 H197 0.930 . S
C184 C181 1.378 . S
C184 N185 1.315 . S
C184 H187 0.930 . S
N185 Co165 2.194 . S
N185 C180 1.328 . S
N185 C184 1.315 . S
H186 C180 0.929 . S
H187 C184 0.930 . S
H188 C176 0.929 . S
H189 C178 0.929 . S
O190 Co165 2.351 . S
O190 C193 1.244 . S
O191 Co165 2.155 . S
O191 C193 1.240 . S
O192 Co165 2.096 . S
O192 C173 1.247 . S
C193 O190 1.244 . S
C193 O191 1.240 . S
H194 C168 0.931 . S
H195 C177 0.931 . S
H196 C181 0.929 . S
H197 C183 0.930 . S
Co198 N202 2.148 . S
Co198 N208 2.128 . S
Co198 N218 2.194 . S
Co198 O223 2.351 . S
Co198 O224 2.155 . S
Co198 O225 2.096 . S
C199 N202 1.301 . S
C199 N203 1.328 1_556 S
C199 H204 0.930 . S
C200 C201 1.333 1_556 S
C200 N202 1.317 . S
C200 H205 0.930 . S
C201 C200 1.333 1_554 S
C201 N203 1.350 . S
C201 H227 0.931 . S
N202 Co198 2.148 . S
N202 C199 1.301 . S
N202 C200 1.317 . S
N203 C199 1.328 1_554 S
N203 C201 1.350 . S
H204 C199 0.930 . S
H205 C200 0.930 . S
C206 O207 1.224 . S
C206 O225 1.247 . S
O207 C206 1.224 . S
N208 Co198 2.128 . S
N208 C209 1.355 . S
N208 C211 1.311 . S
C209 N208 1.355 . S
C209 C210 1.363 . S
C209 H221 0.929 . S
C210 C209 1.363 . S
C210 N212 1.375 . S
C210 H228 0.931 . S
C211 N208 1.311 . S
C211 N212 1.347 . S
C211 H222 0.929 . S
N212 C210 1.375 . S
N212 C211 1.347 . S
C213 C216 1.365 . S
C213 N218 1.328 . S
C213 H219 0.929 . S
C214 C215 1.362 . S
C214 C217 1.378 . S
C214 H229 0.929 . S
C215 C214 1.362 . S
C215 C216 1.366 . S
C216 C213 1.365 . S
C216 C215 1.366 . S
C216 H230 0.930 . S
C217 C214 1.378 . S
C217 N218 1.315 . S
C217 H220 0.930 . S
N218 Co198 2.194 . S
N218 C213 1.328 . S
N218 C217 1.315 . S
H219 C213 0.929 . S
H220 C217 0.930 . S
H221 C209 0.929 . S
H222 C211 0.929 . S
O223 Co198 2.351 . S
O223 C226 1.244 . S
O224 Co198 2.155 . S
O224 C226 1.240 . S
O225 Co198 2.096 . S
O225 C206 1.247 . S
C226 O223 1.244 . S
C226 O224 1.240 . S
H227 C201 0.931 . S
H228 C210 0.931 . S
H229 C214 0.929 . S
H230 C216 0.930 . S
Co231 N235 2.148 . S
Co231 N241 2.128 . S
Co231 N251 2.194 . S
Co231 O256 2.351 . S
Co231 O257 2.155 . S
Co231 O258 2.096 . S
C232 N235 1.301 . S
C232 N236 1.328 . S
C232 H237 0.930 . S
C233 C234 1.333 . S
C233 N235 1.317 . S
C233 H238 0.930 . S
C234 C233 1.333 . S
C234 N236 1.350 . S
C234 H260 0.931 . S
N235 Co231 2.148 . S
N235 C232 1.301 . S
N235 C233 1.317 . S
N236 C232 1.328 . S
N236 C234 1.350 . S
H237 C232 0.930 . S
H238 C233 0.930 . S
C239 O240 1.224 . S
C239 O258 1.247 . S
O240 C239 1.224 . S
N241 Co231 2.128 . S
N241 C242 1.355 . S
N241 C244 1.311 . S
C242 N241 1.355 . S
C242 C243 1.363 . S
C242 H254 0.929 . S
C243 C242 1.363 . S
C243 N245 1.375 . S
C243 H261 0.931 . S
C244 N241 1.311 . S
C244 N245 1.347 . S
C244 H255 0.929 . S
N245 C243 1.375 . S
N245 C244 1.347 . S
C246 C249 1.365 . S
C246 N251 1.328 . S
C246 H252 0.929 . S
C247 C248 1.362 . S
C247 C250 1.378 . S
C247 H262 0.929 . S
C248 C247 1.362 . S
C248 C249 1.366 . S
C249 C246 1.365 . S
C249 C248 1.366 . S
C249 H263 0.930 . S
C250 C247 1.378 . S
C250 N251 1.315 . S
C250 H253 0.930 . S
N251 Co231 2.194 . S
N251 C246 1.328 . S
N251 C250 1.315 . S
H252 C246 0.929 . S
H253 C250 0.930 . S
H254 C242 0.929 . S
H255 C244 0.929 . S
O256 Co231 2.351 . S
O256 C259 1.244 . S
O257 Co231 2.155 . S
O257 C259 1.240 . S
O258 Co231 2.096 . S
O258 C239 1.247 . S
C259 O256 1.244 . S
C259 O257 1.240 . S
H260 C234 0.931 . S
H261 C243 0.931 . S
H262 C247 0.929 . S
H263 C249 0.930 . S
H264 C270 0.930 . S
H265 C274 0.930 . S
H266 C279 0.929 . S
H267 C277 0.929 . S
H268 C272 0.929 . S
H269 C278 0.929 . S
C270 H264 0.930 . S
C270 C271 1.367 . S
C270 C278 1.378 . S
C271 C270 1.367 . S
C271 C279 1.433 . S
C272 H268 0.929 . S
C272 C274 1.378 . S
C272 C276 1.350 . S
C273 C276 1.463 . S
C273 C278 1.350 . S
C273 N281 1.427 . S
C274 H265 0.930 . S
C274 C272 1.378 . S
C274 C275 1.367 . S
C275 C274 1.367 . S
C275 C277 1.433 . S
C276 C272 1.350 . S
C276 C273 1.463 . S
C276 N280 1.427 . S
C277 H267 0.929 . S
C277 C275 1.433 . S
C277 N280 1.384 . S
C278 H269 0.929 . S
C278 C270 1.378 . S
C278 C273 1.350 . S
C279 H266 0.929 . S
C279 C271 1.433 . S
C279 N281 1.384 . S
N280 C276 1.427 . S
N280 C277 1.384 . S
N281 C273 1.427 . S
N281 C279 1.384 . S
H282 C288 0.930 . S
H283 C292 0.930 . S
H284 C297 0.929 . S
H285 C295 0.929 . S
H286 C290 0.929 . S
H287 C296 0.929 . S
C288 H282 0.930 . S
C288 C289 1.367 . S
C288 C296 1.378 . S
C289 C288 1.367 . S
C289 C297 1.433 . S
C290 H286 0.929 . S
C290 C292 1.378 . S
C290 C294 1.350 . S
C291 C294 1.463 . S
C291 C296 1.350 . S
C291 N299 1.427 . S
C292 H283 0.930 . S
C292 C290 1.378 . S
C292 C293 1.367 . S
C293 C292 1.367 . S
C293 C295 1.433 . S
C294 C290 1.350 . S
C294 C291 1.463 . S
C294 N298 1.427 . S
C295 H285 0.929 . S
C295 C293 1.433 . S
C295 N298 1.384 . S
C296 H287 0.929 . S
C296 C288 1.378 . S
C296 C291 1.350 . S
C297 H284 0.929 . S
C297 C289 1.433 . S
C297 N299 1.384 . S
N298 C294 1.427 . S
N298 C295 1.384 . S
N299 C291 1.427 . S
N299 C297 1.384 . S
H300 C306 0.930 . S
H301 C310 0.930 . S
H302 C315 0.929 . S
H303 C313 0.929 . S
H304 C308 0.929 . S
H305 C314 0.929 . S
C306 H300 0.930 . S
C306 C307 1.367 . S
C306 C314 1.378 . S
C307 C306 1.367 . S
C307 C315 1.433 . S
C308 H304 0.929 . S
C308 C310 1.378 . S
C308 C312 1.350 . S
C309 C312 1.463 . S
C309 C314 1.350 . S
C309 N317 1.427 . S
C310 H301 0.930 . S
C310 C308 1.378 . S
C310 C311 1.367 . S
C311 C310 1.367 . S
C311 C313 1.433 . S
C312 C308 1.350 . S
C312 C309 1.463 . S
C312 N316 1.427 . S
C313 H303 0.929 . S
C313 C311 1.433 . S
C313 N316 1.384 . S
C314 H305 0.929 . S
C314 C306 1.378 . S
C314 C309 1.350 . S
C315 H302 0.929 . S
C315 C307 1.433 . S
C315 N317 1.384 . S
N316 C312 1.427 . S
N316 C313 1.384 . S
N317 C309 1.427 . S
N317 C315 1.384 . S
H318 C324 0.930 . S
H319 C328 0.930 . S
H320 C333 0.929 . S
H321 C331 0.929 . S
H322 C326 0.929 . S
H323 C332 0.929 . S
C324 H318 0.930 . S
C324 C325 1.367 . S
C324 C332 1.378 . S
C325 C324 1.367 . S
C325 C333 1.433 . S
C326 H322 0.929 . S
C326 C328 1.378 . S
C326 C330 1.350 . S
C327 C330 1.463 1_556 S
C327 C332 1.350 . S
C327 N335 1.427 . S
C328 H319 0.930 . S
C328 C326 1.378 . S
C328 C329 1.367 . S
C329 C328 1.367 . S
C329 C331 1.433 . S
C330 C326 1.350 . S
C330 C327 1.463 1_554 S
C330 N334 1.427 . S
C331 H321 0.929 . S
C331 C329 1.433 . S
C331 N334 1.384 . S
C332 H323 0.929 . S
C332 C324 1.378 . S
C332 C327 1.350 . S
C333 H320 0.929 . S
C333 C325 1.433 . S
C333 N335 1.384 . S
N334 C330 1.427 . S
N334 C331 1.384 . S
N335 C327 1.427 . S
N335 C333 1.384 . S
H336 C342 0.930 . S
H337 C346 0.930 . S
H338 C351 0.929 . S
H339 C349 0.929 . S
H340 C344 0.929 . S
H341 C350 0.929 . S
C342 H336 0.930 . S
C342 C343 1.367 1_556 S
C342 C350 1.378 . S
C343 C342 1.367 1_554 S
C343 C351 1.433 . S
C344 H340 0.929 . S
C344 C346 1.378 . S
C344 C348 1.350 1_554 S
C345 C348 1.463 1_454 S
C345 C350 1.350 1_554 S
C345 N353 1.427 . S
C346 H337 0.930 . S
C346 C344 1.378 . S
C346 C347 1.367 1_554 S
C347 C346 1.367 1_556 S
C347 C349 1.433 . S
C348 C344 1.350 1_556 S
C348 C345 1.463 1_656 S
C348 N352 1.427 . S
C349 H339 0.929 . S
C349 C347 1.433 . S
C349 N352 1.384 . S
C350 H341 0.929 . S
C350 C342 1.378 . S
C350 C345 1.350 1_556 S
C351 H338 0.929 . S
C351 C343 1.433 . S
C351 N353 1.384 . S
N352 C348 1.427 . S
N352 C349 1.384 . S
N353 C345 1.427 . S
N353 C351 1.384 . S
H354 C360 0.930 . S
H355 C364 0.930 . S
H356 C369 0.929 . S
H357 C367 0.929 . S
H358 C362 0.929 . S
H359 C368 0.929 . S
C360 H354 0.930 . S
C360 C361 1.367 . S
C360 C368 1.378 . S
C361 C360 1.367 . S
C361 C369 1.433 . S
C362 H358 0.929 . S
C362 C364 1.378 . S
C362 C366 1.350 . S
C363 C366 1.463 1_545 S
C363 C368 1.350 . S
C363 N371 1.427 . S
C364 H355 0.930 . S
C364 C362 1.378 . S
C364 C365 1.367 . S
C365 C364 1.367 . S
C365 C367 1.433 . S
C366 C362 1.350 . S
C366 C363 1.463 1_565 S
C366 N370 1.427 . S
C367 H357 0.929 . S
C367 C365 1.433 . S
C367 N370 1.384 . S
C368 H359 0.929 . S
C368 C360 1.378 . S
C368 C363 1.350 . S
C369 H356 0.929 . S
C369 C361 1.433 . S
C369 N371 1.384 . S
N370 C366 1.427 . S
N370 C367 1.384 . S
N371 C363 1.427 . S
N371 C369 1.384 . S
H372 C378 0.930 . S
H373 C382 0.930 . S
H374 C387 0.929 . S
H375 C385 0.929 . S
H376 C380 0.929 . S
H377 C386 0.929 . S
C378 H372 0.930 . S
C378 C379 1.367 . S
C378 C386 1.378 . S
C379 C378 1.367 . S
C379 C387 1.433 . S
C380 H376 0.929 . S
C380 C382 1.378 . S
C380 C384 1.350 . S
C381 C384 1.463 1_455 S
C381 C386 1.350 . S
C381 N389 1.427 . S
C382 H373 0.930 . S
C382 C380 1.378 . S
C382 C383 1.367 . S
C383 C382 1.367 . S
C383 C385 1.433 . S
C384 C380 1.350 . S
C384 C381 1.463 1_655 S
C384 N388 1.427 . S
C385 H375 0.929 . S
C385 C383 1.433 . S
C385 N388 1.384 . S
C386 H377 0.929 . S
C386 C378 1.378 . S
C386 C381 1.350 . S
C387 H374 0.929 . S
C387 C379 1.433 . S
C387 N389 1.384 . S
N388 C384 1.427 . S
N388 C385 1.384 . S
N389 C381 1.427 . S
N389 C387 1.384 . S
H390 C396 0.930 . S
H391 C400 0.930 . S
H392 C405 0.929 . S
H393 C403 0.929 . S
H394 C398 0.929 . S
H395 C404 0.929 . S
C396 H390 0.930 . S
C396 C397 1.367 . S
C396 C404 1.378 . S
C397 C396 1.367 . S
C397 C405 1.433 . S
C398 H394 0.929 . S
C398 C400 1.378 . S
C398 C402 1.350 . S
C399 C402 1.463 1_545 S
C399 C404 1.350 . S
C399 N407 1.427 . S
C400 H391 0.930 . S
C400 C398 1.378 . S
C400 C401 1.367 . S
C401 C400 1.367 . S
C401 C403 1.433 . S
C402 C398 1.350 . S
C402 C399 1.463 1_565 S
C402 N406 1.427 . S
C403 H393 0.929 . S
C403 C401 1.433 . S
C403 N406 1.384 . S
C404 H395 0.929 . S
C404 C396 1.378 . S
C404 C399 1.350 . S
C405 H392 0.929 . S
C405 C397 1.433 . S
C405 N407 1.384 . S
N406 C402 1.427 . S
N406 C403 1.384 . S
N407 C399 1.427 . S
N407 C405 1.384 . S
H408 C414 0.930 . S
H409 C418 0.930 . S
H410 C423 0.929 . S
H411 C421 0.929 . S
H412 C416 0.929 . S
H413 C422 0.929 . S
C414 H408 0.930 . S
C414 C415 1.367 . S
C414 C422 1.378 . S
C415 C414 1.367 . S
C415 C423 1.433 . S
C416 H412 0.929 . S
C416 C418 1.378 . S
C416 C420 1.350 . S
C417 C420 1.463 . S
C417 C422 1.350 . S
C417 N425 1.427 . S
C418 H409 0.930 . S
C418 C416 1.378 . S
C418 C419 1.367 . S
C419 C418 1.367 . S
C419 C421 1.433 . S
C420 C416 1.350 . S
C420 C417 1.463 . S
C420 N424 1.427 . S
C421 H411 0.929 . S
C421 C419 1.433 . S
C421 N424 1.384 . S
C422 H413 0.929 . S
C422 C414 1.378 . S
C422 C417 1.350 . S
C423 H410 0.929 . S
C423 C415 1.433 . S
C423 N425 1.384 . S
N424 C420 1.427 . S
N424 C421 1.384 . S
N425 C417 1.427 . S
N425 C423 1.384 . S
H426 C432 0.930 . S
H427 C436 0.930 . S
H428 C441 0.929 . S
H429 C439 0.929 . S
H430 C434 0.929 . S
H431 C440 0.929 . S
C432 H426 0.930 . S
C432 C433 1.367 . S
C432 C440 1.378 . S
C433 C432 1.367 . S
C433 C441 1.433 . S
C434 H430 0.929 . S
C434 C436 1.378 . S
C434 C438 1.350 . S
C435 C438 1.463 . S
C435 C440 1.350 . S
C435 N443 1.427 . S
C436 H427 0.930 . S
C436 C434 1.378 . S
C436 C437 1.367 . S
C437 C436 1.367 . S
C437 C439 1.433 . S
C438 C434 1.350 . S
C438 C435 1.463 . S
C438 N442 1.427 . S
C439 H429 0.929 . S
C439 C437 1.433 . S
C439 N442 1.384 . S
C440 H431 0.929 . S
C440 C432 1.378 . S
C440 C435 1.350 . S
C441 H428 0.929 . S
C441 C433 1.433 . S
C441 N443 1.384 . S
N442 C438 1.427 . S
N442 C439 1.384 . S
N443 C435 1.427 . S
N443 C441 1.384 . S
H444 C450 0.930 . S
H445 C454 0.930 . S
H446 C459 0.929 . S
H447 C457 0.929 . S
H448 C452 0.929 . S
H449 C458 0.929 . S
C450 H444 0.930 . S
C450 C451 1.367 . S
C450 C458 1.378 . S
C451 C450 1.367 . S
C451 C459 1.433 . S
C452 H448 0.929 . S
C452 C454 1.378 . S
C452 C456 1.350 . S
C453 C456 1.463 . S
C453 C458 1.350 . S
C453 N461 1.427 . S
C454 H445 0.930 . S
C454 C452 1.378 . S
C454 C455 1.367 . S
C455 C454 1.367 . S
C455 C457 1.433 . S
C456 C452 1.350 . S
C456 C453 1.463 . S
C456 N460 1.427 . S
C457 H447 0.929 . S
C457 C455 1.433 . S
C457 N460 1.384 . S
C458 H449 0.929 . S
C458 C450 1.378 . S
C458 C453 1.350 . S
C459 H446 0.929 . S
C459 C451 1.433 . S
C459 N461 1.384 . S
N460 C456 1.427 . S
N460 C457 1.384 . S
N461 C453 1.427 . S
N461 C459 1.384 . S
H462 C468 0.930 . S
H463 C472 0.930 . S
H464 C477 0.929 . S
H465 C475 0.929 . S
H466 C470 0.929 . S
H467 C476 0.929 . S
C468 H462 0.930 . S
C468 C469 1.367 . S
C468 C476 1.378 . S
C469 C468 1.367 . S
C469 C477 1.433 . S
C470 H466 0.929 . S
C470 C472 1.378 . S
C470 C474 1.350 . S
C471 C474 1.463 . S
C471 C476 1.350 . S
C471 N479 1.427 . S
C472 H463 0.930 . S
C472 C470 1.378 . S
C472 C473 1.367 . S
C473 C472 1.367 . S
C473 C475 1.433 . S
C474 C470 1.350 . S
C474 C471 1.463 . S
C474 N478 1.427 . S
C475 H465 0.929 . S
C475 C473 1.433 . S
C475 N478 1.384 . S
C476 H467 0.929 . S
C476 C468 1.378 . S
C476 C471 1.350 . S
C477 H464 0.929 . S
C477 C469 1.433 . S
C477 N479 1.384 . S
N478 C474 1.427 . S
N478 C475 1.384 . S
N479 C471 1.427 . S
N479 C477 1.384 . S
H480 C486 0.930 . S
H481 C490 0.930 . S
H482 C495 0.929 . S
H483 C493 0.929 . S
H484 C488 0.929 . S
H485 C494 0.929 . S
C486 H480 0.930 . S
C486 C487 1.367 . S
C486 C494 1.378 . S
C487 C486 1.367 . S
C487 C495 1.433 . S
C488 H484 0.929 . S
C488 C490 1.378 . S
C488 C492 1.350 . S
C489 C492 1.463 . S
C489 C494 1.350 . S
C489 N497 1.427 . S
C490 H481 0.930 . S
C490 C488 1.378 . S
C490 C491 1.367 . S
C491 C490 1.367 . S
C491 C493 1.433 . S
C492 C488 1.350 . S
C492 C489 1.463 . S
C492 N496 1.427 . S
C493 H483 0.929 . S
C493 C491 1.433 . S
C493 N496 1.384 . S
C494 H485 0.929 . S
C494 C486 1.378 . S
C494 C489 1.350 . S
C495 H482 0.929 . S
C495 C487 1.433 . S
C495 N497 1.384 . S
N496 C492 1.427 . S
N496 C493 1.384 . S
N497 C489 1.427 . S
N497 C495 1.384 . S
H498 C504 0.930 . S
H499 C508 0.930 . S
H500 C513 0.929 . S
H501 C511 0.929 . S
H502 C506 0.929 . S
H503 C512 0.929 . S
C504 H498 0.930 . S
C504 C505 1.367 . S
C504 C512 1.378 . S
C505 C504 1.367 . S
C505 C513 1.433 . S
C506 H502 0.929 . S
C506 C508 1.378 . S
C506 C510 1.350 . S
C507 C510 1.463 . S
C507 C512 1.350 . S
C507 N515 1.427 . S
C508 H499 0.930 . S
C508 C506 1.378 . S
C508 C509 1.367 . S
C509 C508 1.367 . S
C509 C511 1.433 . S
C510 C506 1.350 . S
C510 C507 1.463 . S
C510 N514 1.427 . S
C511 H501 0.929 . S
C511 C509 1.433 . S
C511 N514 1.384 . S
C512 H503 0.929 . S
C512 C504 1.378 . S
C512 C507 1.350 . S
C513 H500 0.929 . S
C513 C505 1.433 . S
C513 N515 1.384 . S
N514 C510 1.427 . S
N514 C511 1.384 . S
N515 C507 1.427 . S
N515 C513 1.384 . S
H516 C522 0.930 . S
H517 C526 0.930 . S
H518 C531 0.929 . S
H519 C529 0.929 . S
H520 C524 0.929 . S
H521 C530 0.929 . S
C522 H516 0.930 . S
C522 C523 1.367 . S
C522 C530 1.378 . S
C523 C522 1.367 . S
C523 C531 1.433 . S
C524 H520 0.929 . S
C524 C526 1.378 . S
C524 C528 1.350 . S
C525 C528 1.463 . S
C525 C530 1.350 . S
C525 N533 1.427 . S
C526 H517 0.930 . S
C526 C524 1.378 . S
C526 C527 1.367 . S
C527 C526 1.367 . S
C527 C529 1.433 . S
C528 C524 1.350 . S
C528 C525 1.463 . S
C528 N532 1.427 . S
C529 H519 0.929 . S
C529 C527 1.433 . S
C529 N532 1.384 . S
C530 H521 0.929 . S
C530 C522 1.378 . S
C530 C525 1.350 . S
C531 H518 0.929 . S
C531 C523 1.433 . S
C531 N533 1.384 . S
N532 C528 1.427 . S
N532 C529 1.384 . S
N533 C525 1.427 . S
N533 C531 1.384 . S
H534 C540 0.930 . S
H535 C544 0.930 . S
H536 C549 0.929 . S
H537 C547 0.929 . S
H538 C542 0.929 . S
H539 C548 0.929 . S
C540 H534 0.930 . S
C540 C541 1.367 . S
C540 C548 1.378 . S
C541 C540 1.367 . S
C541 C549 1.433 . S
C542 H538 0.929 . S
C542 C544 1.378 . S
C542 C546 1.350 . S
C543 C546 1.463 . S
C543 C548 1.350 . S
C543 N551 1.427 . S
C544 H535 0.930 . S
C544 C542 1.378 . S
C544 C545 1.367 . S
C545 C544 1.367 . S
C545 C547 1.433 . S
C546 C542 1.350 . S
C546 C543 1.463 . S
C546 N550 1.427 . S
C547 H537 0.929 . S
C547 C545 1.433 . S
C547 N550 1.384 . S
C548 H539 0.929 . S
C548 C540 1.378 . S
C548 C543 1.350 . S
C549 H536 0.929 . S
C549 C541 1.433 . S
C549 N551 1.384 . S
N550 C546 1.427 . S
N550 C547 1.384 . S
N551 C543 1.427 . S
N551 C549 1.384 . S
H552 C558 0.930 . S
H553 C562 0.930 . S
H554 C567 0.929 . S
H555 C565 0.929 . S
H556 C560 0.929 . S
H557 C566 0.929 . S
C558 H552 0.930 . S
C558 C559 1.367 . S
C558 C566 1.378 . S
C559 C558 1.367 . S
C559 C567 1.433 . S
C560 H556 0.929 . S
C560 C562 1.378 . S
C560 C564 1.350 . S
C561 C564 1.463 . S
C561 C566 1.350 . S
C561 N569 1.427 . S
C562 H553 0.930 . S
C562 C560 1.378 . S
C562 C563 1.367 . S
C563 C562 1.367 . S
C563 C565 1.433 . S
C564 C560 1.350 . S
C564 C561 1.463 . S
C564 N568 1.427 . S
C565 H555 0.929 . S
C565 C563 1.433 . S
C565 N568 1.384 . S
C566 H557 0.929 . S
C566 C558 1.378 . S
C566 C561 1.350 . S
C567 H554 0.929 . S
C567 C559 1.433 . S
C567 N569 1.384 . S
N568 C564 1.427 . S
N568 C565 1.384 . S
N569 C561 1.427 . S
N569 C567 1.384 . S
H570 C576 0.930 . S
H571 C580 0.930 . S
H572 C585 0.929 . S
H573 C583 0.929 . S
H574 C578 0.929 . S
H575 C584 0.929 . S
C576 H570 0.930 . S
C576 C577 1.367 . S
C576 C584 1.378 . S
C577 C576 1.367 . S
C577 C585 1.433 . S
C578 H574 0.929 . S
C578 C580 1.378 . S
C578 C582 1.350 . S
C579 C582 1.463 . S
C579 C584 1.350 . S
C579 N587 1.427 . S
C580 H571 0.930 . S
C580 C578 1.378 . S
C580 C581 1.367 . S
C581 C580 1.367 . S
C581 C583 1.433 . S
C582 C578 1.350 . S
C582 C579 1.463 . S
C582 N586 1.427 . S
C583 H573 0.929 . S
C583 C581 1.433 . S
C583 N586 1.384 . S
C584 H575 0.929 . S
C584 C576 1.378 . S
C584 C579 1.350 . S
C585 H572 0.929 . S
C585 C577 1.433 . S
C585 N587 1.384 . S
N586 C582 1.427 . S
N586 C583 1.384 . S
N587 C579 1.427 . S
N587 C585 1.384 . S
H588 C594 0.930 . S
H589 C598 0.930 . S
H590 C603 0.929 . S
H591 C601 0.929 . S
H592 C596 0.929 . S
H593 C602 0.929 . S
C594 H588 0.930 . S
C594 C595 1.367 . S
C594 C602 1.378 . S
C595 C594 1.367 . S
C595 C603 1.433 . S
C596 H592 0.929 . S
C596 C598 1.378 . S
C596 C600 1.350 . S
C597 C600 1.463 . S
C597 C602 1.350 . S
C597 N605 1.427 . S
C598 H589 0.930 . S
C598 C596 1.378 . S
C598 C599 1.367 . S
C599 C598 1.367 . S
C599 C601 1.433 . S
C600 C596 1.350 . S
C600 C597 1.463 . S
C600 N604 1.427 . S
C601 H591 0.929 . S
C601 C599 1.433 . S
C601 N604 1.384 . S
C602 H593 0.929 . S
C602 C594 1.378 . S
C602 C597 1.350 . S
C603 H590 0.929 . S
C603 C595 1.433 . S
C603 N605 1.384 . S
N604 C600 1.427 . S
N604 C601 1.384 . S
N605 C597 1.427 . S
N605 C603 1.384 . S
H606 C612 0.930 . S
H607 C616 0.930 . S
H608 C621 0.929 . S
H609 C619 0.929 . S
H610 C614 0.929 . S
H611 C620 0.929 . S
C612 H606 0.930 . S
C612 C613 1.367 . S
C612 C620 1.378 . S
C613 C612 1.367 . S
C613 C621 1.433 . S
C614 H610 0.929 . S
C614 C616 1.378 . S
C614 C618 1.350 . S
C615 C618 1.463 . S
C615 C620 1.350 . S
C615 N623 1.427 . S
C616 H607 0.930 . S
C616 C614 1.378 . S
C616 C617 1.367 . S
C617 C616 1.367 . S
C617 C619 1.433 . S
C618 C614 1.350 . S
C618 C615 1.463 . S
C618 N622 1.427 . S
C619 H609 0.929 . S
C619 C617 1.433 . S
C619 N622 1.384 . S
C620 H611 0.929 . S
C620 C612 1.378 . S
C620 C615 1.350 . S
C621 H608 0.929 . S
C621 C613 1.433 . S
C621 N623 1.384 . S
N622 C618 1.427 . S
N622 C619 1.384 . S
N623 C615 1.427 . S
N623 C621 1.384 . S
C271 N146 0.553 . S
C275 N14 0.553 . S
C289 N47 0.583 . S
C293 N179 0.576 . S
C307 N80 0.562 . S
C311 N212 0.571 . S
C325 N113 0.585 . S
C329 N245 0.580 . S
C343 C17 1.045 . S
C347 C215 1.043 . S
C361 C50 1.043 . S
C365 C248 1.045 . S
C379 C149 1.042 . S
C383 C83 1.044 . S
C397 C182 1.041 . S
C401 C116 1.043 . S
C415 C259 0.450 . S
C419 C28 0.458 . S
C433 C61 0.428 . S
C437 C160 0.404 . S
C451 C193 0.448 . S
C455 C94 0.459 . S
C469 C226 0.460 . S
C473 C127 0.446 . S
C487 C8 1.916 . S
C491 N38 1.925 . S
C505 C41 1.908 . S
C509 N71 1.931 . S
C523 N104 1.929 . S
C527 C74 1.909 . S
C541 N5 1.922 . S
C545 C107 1.917 . S
C559 C140 1.908 . S
C563 N236 1.931 . S
C577 N137 1.923 . S
C581 C173 1.916 . S
C595 C206 1.917 . S
C599 N170 1.923 . S
C613 C239 1.909 . S
C617 N203 1.930 . S
