# Generated by pormake.
# Topology ung, (4)-cn, num edge types: 1
# Building blocks:
#     Node 0, Type 0, BuildingBlock: MUDLON_clean_sbu_0, # of connection points: 4
#     Node 1, Type 0, BuildingBlock: MUDLON_clean_sbu_0, # of connection points: 4
#     Node 2, Type 0, BuildingBlock: MUDLON_clean_sbu_0, # of connection points: 4
#     Node 3, Type 0, BuildingBlock: MUDLON_clean_sbu_0, # of connection points: 4
#     Node 4, Type 0, BuildingBlock: MUDLON_clean_sbu_0, # of connection points: 4
#     Node 5, Type 0, BuildingBlock: MUDLON_clean_sbu_0, # of connection points: 4
#     Node 6, Type 0, BuildingBlock: MUDLON_clean_sbu_0, # of connection points: 4
#     Node 7, Type 0, BuildingBlock: MUDLON_clean_sbu_0, # of connection points: 4
#     Node 8, Type 0, BuildingBlock: MUDLON_clean_sbu_0, # of connection points: 4
#     Node 9, Type 0, BuildingBlock: MUDLON_clean_sbu_0, # of connection points: 4
#     Node 10, Type 0, BuildingBlock: MUDLON_clean_sbu_0, # of connection points: 4
#     Node 11, Type 0, BuildingBlock: MUDLON_clean_sbu_0, # of connection points: 4
#     Node 12, Type 0, BuildingBlock: MUDLON_clean_sbu_0, # of connection points: 4
#     Node 13, Type 0, BuildingBlock: MUDLON_clean_sbu_0, # of connection points: 4
#     Node 14, Type 0, BuildingBlock: MUDLON_clean_sbu_0, # of connection points: 4
#     Node 15, Type 0, BuildingBlock: MUDLON_clean_sbu_0, # of connection points: 4
#     Node 16, Type 0, BuildingBlock: MUDLON_clean_sbu_0, # of connection points: 4
#     Node 17, Type 0, BuildingBlock: MUDLON_clean_sbu_0, # of connection points: 4
#     Edge 18, Type (0, 0), BuildingBlock: UVAHIK_clean_linker_0, # of connection points: 2
#     Edge 19, Type (0, 0), BuildingBlock: UVAHIK_clean_linker_0, # of connection points: 2
#     Edge 20, Type (0, 0), BuildingBlock: UVAHIK_clean_linker_0, # of connection points: 2
#     Edge 21, Type (0, 0), BuildingBlock: UVAHIK_clean_linker_0, # of connection points: 2
#     Edge 22, Type (0, 0), BuildingBlock: UVAHIK_clean_linker_0, # of connection points: 2
#     Edge 23, Type (0, 0), BuildingBlock: UVAHIK_clean_linker_0, # of connection points: 2
#     Edge 24, Type (0, 0), BuildingBlock: UVAHIK_clean_linker_0, # of connection points: 2
#     Edge 25, Type (0, 0), BuildingBlock: UVAHIK_clean_linker_0, # of connection points: 2
#     Edge 26, Type (0, 0), BuildingBlock: UVAHIK_clean_linker_0, # of connection points: 2
#     Edge 27, Type (0, 0), BuildingBlock: UVAHIK_clean_linker_0, # of connection points: 2
#     Edge 28, Type (0, 0), BuildingBlock: UVAHIK_clean_linker_0, # of connection points: 2
#     Edge 29, Type (0, 0), BuildingBlock: UVAHIK_clean_linker_0, # of connection points: 2
#     Edge 30, Type (0, 0), BuildingBlock: UVAHIK_clean_linker_0, # of connection points: 2
#     Edge 31, Type (0, 0), BuildingBlock: UVAHIK_clean_linker_0, # of connection points: 2
#     Edge 32, Type (0, 0), BuildingBlock: UVAHIK_clean_linker_0, # of connection points: 2
#     Edge 33, Type (0, 0), BuildingBlock: UVAHIK_clean_linker_0, # of connection points: 2
#     Edge 34, Type (0, 0), BuildingBlock: UVAHIK_clean_linker_0, # of connection points: 2
#     Edge 35, Type (0, 0), BuildingBlock: UVAHIK_clean_linker_0, # of connection points: 2
#     Edge 36, Type (0, 0), BuildingBlock: UVAHIK_clean_linker_0, # of connection points: 2
#     Edge 37, Type (0, 0), BuildingBlock: UVAHIK_clean_linker_0, # of connection points: 2
#     Edge 38, Type (0, 0), BuildingBlock: UVAHIK_clean_linker_0, # of connection points: 2
#     Edge 39, Type (0, 0), BuildingBlock: UVAHIK_clean_linker_0, # of connection points: 2
#     Edge 40, Type (0, 0), BuildingBlock: UVAHIK_clean_linker_0, # of connection points: 2
#     Edge 41, Type (0, 0), BuildingBlock: UVAHIK_clean_linker_0, # of connection points: 2
#     Edge 42, Type (0, 0), BuildingBlock: UVAHIK_clean_linker_0, # of connection points: 2
#     Edge 43, Type (0, 0), BuildingBlock: UVAHIK_clean_linker_0, # of connection points: 2
#     Edge 44, Type (0, 0), BuildingBlock: UVAHIK_clean_linker_0, # of connection points: 2
#     Edge 45, Type (0, 0), BuildingBlock: UVAHIK_clean_linker_0, # of connection points: 2
#     Edge 46, Type (0, 0), BuildingBlock: UVAHIK_clean_linker_0, # of connection points: 2
#     Edge 47, Type (0, 0), BuildingBlock: UVAHIK_clean_linker_0, # of connection points: 2
#     Edge 48, Type (0, 0), BuildingBlock: UVAHIK_clean_linker_0, # of connection points: 2
#     Edge 49, Type (0, 0), BuildingBlock: UVAHIK_clean_linker_0, # of connection points: 2
#     Edge 50, Type (0, 0), BuildingBlock: UVAHIK_clean_linker_0, # of connection points: 2
#     Edge 51, Type (0, 0), BuildingBlock: UVAHIK_clean_linker_0, # of connection points: 2
#     Edge 52, Type (0, 0), BuildingBlock: UVAHIK_clean_linker_0, # of connection points: 2
#     Edge 53, Type (0, 0), BuildingBlock: UVAHIK_clean_linker_0, # of connection points: 2
# Relax obj value: 0.034
# Max RMSD: 0.245
# Mean RMSD: 0.245
data_MOF--net-ung--node1-MUDLON_clean_sbu_0--edge1-UVAHIK_clean_linker_0
_symmetry_space_group_name_H-M    P1
_symmetry_Int_Tables_number       1
_symmetry_cell_setting            triclinic
loop_
_symmetry_equiv_pos_as_xyz
'x, y, z'
_cell_length_a     98.801269
_cell_length_b     100.12184
_cell_length_c     30.28035
_cell_angle_alpha  89.68533
_cell_angle_beta   90.551434
_cell_angle_gamma 121.21429
loop_
_atom_site_label
_atom_site_type_symbol
_atom_site_fract_x
_atom_site_fract_y
_atom_site_fract_z
_atom_type_partial_charge
Mg0 Mg 0.0405 0.63959 0.26152 0.0
C1 C 0.04491 0.62028 0.32509 0.0
O2 O 0.05839 0.62822 0.304 0.0
C3 C 0.01435 0.64766 0.24535 0.0
O4 O 0.01668 0.65212 0.28685 0.0
C5 C 0.03873 0.6172 0.19846 0.0
O6 O 0.02537 0.61017 0.22037 0.0
O7 O 0.04907 0.63119 0.20887 0.0
O8 O 0.0336 0.62223 0.31383 0.0
O9 O 0.05737 0.66192 0.29237 0.0
C10 C 0.05344 0.66317 0.33138 0.0
O11 O 0.04043 0.65139 0.34782 0.0
O12 O 0.02185 0.64166 0.22931 0.0
Mg13 Mg 0.47812 0.50431 0.25476 0.0
C14 C 0.45315 0.49492 0.31789 0.0
O15 O 0.46304 0.4911 0.3344 0.0
C16 C 0.4889 0.53038 0.18078 0.0
O17 O 0.48038 0.5353 0.19983 0.0
C18 C 0.4652 0.47711 0.19776 0.0
O19 O 0.46145 0.48663 0.17888 0.0
O20 O 0.47282 0.48126 0.23419 0.0
O21 O 0.45617 0.50146 0.28011 0.0
O22 O 0.49517 0.51522 0.30865 0.0
C23 C 0.49945 0.52944 0.31498 0.0
O24 O 0.49385 0.5359 0.28845 0.0
O25 O 0.48911 0.51871 0.19664 0.0
Mg26 Mg 0.60502 0.07107 0.2615 0.0
C27 C 0.57547 0.06535 0.21327 0.0
O28 O 0.57178 0.06695 0.25366 0.0
C29 C 0.62052 0.05163 0.26758 0.0
O30 O 0.62968 0.0617 0.23748 0.0
C31 C 0.58754 0.06501 0.34579 0.0
O32 O 0.58589 0.05139 0.33723 0.0
O33 O 0.59566 0.07634 0.31955 0.0
O34 O 0.5883 0.06559 0.20693 0.0
O35 O 0.62809 0.09036 0.24056 0.0
C36 C 0.63008 0.09502 0.20062 0.0
O37 O 0.6178 0.08898 0.17376 0.0
O38 O 0.60866 0.05214 0.28114 0.0
Mg39 Mg 0.04432 0.50909 0.76445 0.0
C40 C 0.03887 0.52761 0.69978 0.0
O41 O 0.02591 0.52057 0.72347 0.0
C42 C 0.0643 0.50439 0.82962 0.0
O43 O 0.05435 0.50565 0.85515 0.0
C44 C 0.04893 0.53357 0.82623 0.0
O45 O 0.06153 0.54031 0.80109 0.0
O46 O 0.03839 0.51939 0.81853 0.0
O47 O 0.05005 0.5253 0.70954 0.0
O48 O 0.02522 0.4864 0.74086 0.0
C49 C 0.02562 0.4839 0.69983 0.0
O50 O 0.03689 0.49494 0.67576 0.0
O51 O 0.06341 0.5058 0.78802 0.0
Mg52 Mg 0.61084 0.64246 0.75734 0.0
C53 C 0.5876 0.61751 0.69854 0.0
O54 O 0.58962 0.60991 0.73089 0.0
C55 C 0.62414 0.66897 0.8154 0.0
O56 O 0.6281 0.6592 0.83124 0.0
C57 C 0.59896 0.61649 0.83141 0.0
O58 O 0.60827 0.61208 0.81476 0.0
O59 O 0.59852 0.62785 0.81413 0.0
O60 O 0.59499 0.63237 0.70036 0.0
O61 O 0.63372 0.6455 0.74031 0.0
C62 C 0.63529 0.63848 0.70763 0.0
O63 O 0.62258 0.62774 0.68681 0.0
O64 O 0.61614 0.66535 0.77962 0.0
Mg65 Mg 0.47438 0.07484 0.76076 0.0
C66 C 0.48599 0.0797 0.85676 0.0
O67 O 0.47151 0.07636 0.86468 0.0
C68 C 0.46578 0.09109 0.69582 0.0
O69 O 0.46169 0.0777 0.677 0.0
C70 C 0.4991 0.07508 0.70634 0.0
O71 O 0.50719 0.08566 0.73671 0.0
O72 O 0.48405 0.06761 0.70793 0.0
O73 O 0.49045 0.08079 0.81696 0.0
O74 O 0.45077 0.0574 0.78308 0.0
C75 C 0.44764 0.04588 0.80797 0.0
O76 O 0.45891 0.04305 0.8178 0.0
O77 O 0.47227 0.09394 0.7339 0.0
Mg78 Mg 0.7081 0.97389 0.58683 0.0
C79 C 0.71266 0.95523 0.6523 0.0
O80 O 0.72563 0.962 0.62864 0.0
C81 C 0.694 0.98368 0.51933 0.0
O82 O 0.70806 0.98752 0.5048 0.0
C83 C 0.70439 0.95048 0.52347 0.0
O84 O 0.69087 0.94413 0.54458 0.0
O85 O 0.71536 0.96412 0.53466 0.0
O86 O 0.70171 0.95788 0.6424 0.0
O87 O 0.72602 0.99681 0.61174 0.0
C88 C 0.71999 1.00366 0.63149 0.0
O89 O 0.70449 0.99659 0.63352 0.0
O90 O 0.68963 0.97682 0.55653 0.0
Mg91 Mg 0.14273 0.83756 0.60609 0.0
C92 C 0.11804 0.83672 0.66589 0.0
O93 O 0.13041 0.84308 0.69243 0.0
C94 C 0.15622 0.86588 0.54184 0.0
O95 O 0.15252 0.87265 0.57252 0.0
C96 C 0.12637 0.80232 0.59743 0.0
O97 O 0.11681 0.80295 0.62609 0.0
O98 O 0.13877 0.81494 0.58599 0.0
O99 O 0.11981 0.83388 0.6261 0.0
O100 O 0.15925 0.84855 0.6612 0.0
C101 C 0.17327 0.85997 0.6554 0.0
O102 O 0.17847 0.86418 0.61494 0.0
O103 O 0.15289 0.85191 0.5475 0.0
Mg104 Mg 0.27825 0.40821 0.59448 0.0
C105 C 0.25355 0.404 0.65572 0.0
O106 O 0.24695 0.39104 0.6325 0.0
C107 C 0.31382 0.42833 0.57902 0.0
O108 O 0.314 0.41862 0.60801 0.0
C109 C 0.25948 0.41242 0.52779 0.0
O110 O 0.26666 0.4255 0.55047 0.0
O111 O 0.26189 0.40154 0.53888 0.0
O112 O 0.26769 0.41462 0.64678 0.0
O113 O 0.28162 0.38992 0.62239 0.0
C114 C 0.28572 0.39194 0.66297 0.0
O115 O 0.28733 0.40427 0.6832 0.0
O116 O 0.30072 0.42722 0.56934 0.0
Mg117 Mg 0.71105 0.84281 0.08971 0.0
C118 C 0.71572 0.86695 0.15274 0.0
O119 O 0.72896 0.87333 0.13028 0.0
C120 C 0.69118 0.80773 0.07544 0.0
O121 O 0.70144 0.80812 0.10412 0.0
C122 C 0.70618 0.86155 0.02497 0.0
O123 O 0.69338 0.85496 0.04935 0.0
O124 O 0.71709 0.85877 0.03413 0.0
O125 O 0.70475 0.85317 0.14268 0.0
O126 O 0.72994 0.83967 0.11599 0.0
C127 C 0.72902 0.83664 0.15717 0.0
O128 O 0.71744 0.83611 0.17962 0.0
O129 O 0.69182 0.8204 0.06544 0.0
Mg130 Mg 0.27509 0.97305 0.10449 0.0
C131 C 0.25321 0.95757 0.17675 0.0
O132 O 0.24991 0.96781 0.16084 0.0
C133 C 0.30709 0.99102 0.06554 0.0
O134 O 0.3021 1.00088 0.06521 0.0
C135 C 0.26357 0.96566 1.0092 0.0
O136 O 0.27861 0.9757 1.00184 0.0
O137 O 0.25862 0.96317 0.04878 0.0
O138 O 0.26413 0.95642 0.15856 0.0
O139 O 0.27837 0.99455 0.133 0.0
C140 C 0.27839 1.00604 0.11487 0.0
O141 O 0.27598 1.00593 0.07209 0.0
O142 O 0.29822 0.97757 0.0825 0.0
Mg143 Mg 0.14371 0.40815 0.09026 0.0
C144 C 0.16207 0.40265 0.15624 0.0
O145 O 0.15478 0.3897 0.13297 0.0
C146 C 0.13924 0.42839 0.02606 0.0
O147 O 0.14006 0.41846 0.99969 0.0
C148 C 0.16824 0.41253 0.02814 0.0
O149 O 0.17514 0.4251 0.05304 0.0
O150 O 0.15394 0.40211 0.03615 0.0
O151 O 0.15988 0.41372 0.14585 0.0
O152 O 0.12086 0.38944 0.11417 0.0
C153 C 0.10826 0.38929 0.10408 0.0
O154 O 0.10903 0.39948 0.07516 0.0
O155 O 0.14087 0.42735 0.06749 0.0
Mg156 Mg 0.37329 0.3046 0.92466 0.0
C157 C 0.36132 0.2755 0.98192 0.0
O158 O 0.35612 0.26839 0.94373 0.0
C159 C 0.35203 0.31794 0.91297 0.0
O160 O 0.36107 0.32699 0.94522 0.0
C161 C 0.3762 0.29532 0.83242 0.0
O162 O 0.37156 0.30519 0.82347 0.0
O163 O 0.37888 0.29341 0.87243 0.0
O164 O 0.36791 0.29027 0.98359 0.0
O165 O 0.39245 0.32791 0.943 0.0
C166 C 0.40069 0.32979 0.97755 0.0
O167 O 0.39857 0.3174 0.99891 0.0
O168 O 0.35385 0.30694 0.89975 0.0
Mg169 Mg 0.80746 0.17431 0.9305 0.0
C170 C 0.78274 0.16615 0.99737 0.0
O171 O 0.79326 0.16416 0.01837 0.0
C172 C 0.8149 0.18753 0.83682 0.0
O173 O 0.80386 0.17318 0.82651 0.0
C174 C 0.7885 0.14327 0.88934 0.0
O175 O 0.77852 0.14814 0.89319 0.0
O176 O 0.8025 0.15189 0.90438 0.0
O177 O 0.78546 0.17095 0.95757 0.0
O178 O 0.82472 0.18436 0.984 0.0
C179 C 0.82659 0.19729 0.9969 0.0
O180 O 0.81842 0.2026 0.97697 0.0
O181 O 0.81792 0.19132 0.87731 0.0
Mg182 Mg 0.93978 0.73805 0.93584 0.0
C183 C 0.91957 0.74265 0.87392 0.0
O184 O 0.92547 0.7548 0.90035 0.0
C185 C 0.95204 0.71572 0.95165 0.0
O186 O 0.96153 0.72345 0.91879 0.0
C187 C 0.91492 0.73364 0.99488 0.0
O188 O 0.9086 0.72149 0.96838 0.0
O189 O 0.92942 0.74411 0.98963 0.0
O190 O 0.92332 0.73241 0.88067 0.0
O191 O 0.96301 0.75624 0.912 0.0
C192 C 0.9653 0.75518 0.87115 0.0
O193 O 0.95382 0.74384 0.848 0.0
O194 O 0.94156 0.71879 0.96278 0.0
Mg195 Mg 0.37338 0.17339 0.42837 0.0
C196 C 0.36684 0.18613 0.3483 0.0
O197 O 0.35284 0.17447 0.35971 0.0
C198 C 0.38922 0.16304 0.48911 0.0
O199 O 0.37516 0.15788 0.50607 0.0
C200 C 0.36583 0.19484 0.47844 0.0
O201 O 0.36801 0.20105 0.43891 0.0
O202 O 0.36644 0.18253 0.48349 0.0
O203 O 0.37882 0.18906 0.37187 0.0
O204 O 0.35533 0.15025 0.40462 0.0
C205 C 0.35843 0.14687 0.36704 0.0
O206 O 0.37177 0.15703 0.34785 0.0
O207 O 0.39271 0.17087 0.4534 0.0
Mg208 Mg 0.9431 0.30862 0.4347 0.0
C209 C 0.92757 0.28665 0.36179 0.0
O210 O 0.9366 0.28221 0.3809 0.0
C211 C 0.94504 0.33232 0.49933 0.0
O212 O 0.9414 0.32055 0.52601 0.0
C213 C 0.9178 0.28232 0.4859 0.0
O214 O 0.91013 0.28333 0.45164 0.0
O215 O 0.93276 0.29144 0.48808 0.0
O216 O 0.92757 0.29842 0.37744 0.0
O217 O 0.96617 0.31451 0.40941 0.0
C218 C 0.96937 0.32297 0.375 0.0
O219 O 0.95912 0.32683 0.3619 0.0
O220 O 0.94586 0.3305 0.45805 0.0
Mg221 Mg 0.80868 0.74348 0.42973 0.0
C222 C 0.83061 0.74072 0.4909 0.0
O223 O 0.82858 0.73109 0.45871 0.0
C224 C 0.80933 0.76814 0.36964 0.0
O225 O 0.81664 0.76328 0.34437 0.0
C226 C 0.81461 0.73034 0.34336 0.0
O227 O 0.79914 0.72213 0.33867 0.0
O228 O 0.82069 0.7391 0.37691 0.0
O229 O 0.82372 0.74849 0.48807 0.0
O230 O 0.78511 0.72418 0.44693 0.0
C231 C 0.78294 0.71394 0.47569 0.0
O232 O 0.79525 0.71392 0.49226 0.0
O233 O 0.80541 0.76256 0.40848 0.0
C234 C 0.05959 0.55793 0.87113 0.0
C235 C 0.04768 0.54227 0.86387 0.0
C236 C 0.05894 0.56616 0.90732 0.0
C237 C 0.04127 0.56038 0.01781 0.0
H238 H 0.05328 0.60374 1.00523 0.0
C239 C 0.02956 0.59318 0.15329 0.0
C240 C 0.04106 0.6089 0.16165 0.0
C241 C 0.03108 0.58526 0.11774 0.0
C242 C 0.05011 0.59171 1.00945 0.0
H243 H 0.02561 0.52302 0.88881 0.0
H244 H 0.02437 0.53746 0.95196 0.0
H245 H 0.0539 0.58942 0.94112 0.0
H246 H 0.06333 0.62858 0.13939 0.0
H247 H 0.06605 0.61465 0.07706 0.0
H248 H 0.03741 0.56264 0.08607 0.0
C249 C 0.03434 0.54331 0.92983 0.0
C250 C 0.05042 0.58348 0.97267 0.0
C251 C 0.03498 0.53506 0.89348 0.0
C252 C 0.05427 0.61648 0.13383 0.0
C253 C 0.05576 0.60852 0.09799 0.0
C254 C 0.04095 0.56861 0.05456 0.0
C255 C 0.04636 0.55895 0.93727 0.0
C256 C 0.04594 0.56769 0.97635 0.0
C257 C 0.04413 0.59282 0.08947 0.0
C258 C 0.04528 0.58435 0.0508 0.0
H259 H 0.06957 0.56386 0.84906 0.0
H260 H 0.06849 0.5781 0.9123 0.0
H261 H 0.03803 0.54834 0.02203 0.0
H262 H 0.01922 0.58695 0.17397 0.0
H263 H 0.02179 0.57326 0.11184 0.0
C264 C 0.579 0.61332 0.88735 0.0
C265 C 0.58822 0.60786 0.86862 0.0
C266 C 0.5683 0.60499 0.92101 0.0
C267 C 0.55837 0.57468 1.00616 0.0
H268 H 0.51738 0.57118 1.00343 0.0
C269 C 0.50815 0.53328 0.12286 0.0
C270 C 0.49927 0.5389 0.14283 0.0
C271 C 0.51872 0.54163 0.08899 0.0
C272 C 0.52883 0.57219 1.00495 0.0
H273 H 0.59353 0.5894 0.87114 0.0
H274 H 0.5747 0.57473 0.92979 0.0
H275 H 0.53653 0.58575 0.94562 0.0
H276 H 0.49433 0.55763 0.142 0.0
H277 H 0.51289 0.57229 0.0827 0.0
H278 H 0.55064 0.56108 0.06542 0.0
C279 C 0.57589 0.58558 0.91864 0.0
C280 C 0.53983 0.58055 0.9718 0.0
C281 C 0.58665 0.59396 0.8849 0.0
C282 C 0.50096 0.55295 0.12732 0.0
C283 C 0.51157 0.56133 0.09325 0.0
C284 C 0.54737 0.56631 0.03925 0.0
C285 C 0.56649 0.59094 0.93685 0.0
C286 C 0.55475 0.58191 0.972 0.0
C287 C 0.52071 0.55584 0.07406 0.0
C288 C 0.53245 0.56494 0.03903 0.0
H289 H 0.57997 0.62405 0.87589 0.0
H290 H 0.5615 0.60963 0.9348 0.0
H291 H 0.56982 0.5757 1.00778 0.0
H292 H 0.50709 0.52245 0.13369 0.0
H293 H 0.52534 0.53692 0.0744 0.0
C294 C 0.55152 0.06482 0.18308 0.0
C295 C 0.56576 0.06528 0.17548 0.0
C296 C 0.54308 0.06635 0.14811 0.0
C297 C 0.53853 0.06418 0.02616 0.0
H298 H 0.52051 0.09004 0.04607 0.0
C299 C 0.51089 0.08145 0.88455 0.0
C300 C 0.49629 0.08014 0.89341 0.0
C301 C 0.51987 0.08028 0.91867 0.0
C302 C 0.52535 0.08268 0.04006 0.0
H303 H 0.58209 0.06728 0.12483 0.0
H304 H 0.56742 0.07006 0.06377 0.0
H305 H 0.53482 0.08605 0.10563 0.0
H306 H 0.47995 0.07704 0.9454 0.0
H307 H 0.49563 0.07504 1.00486 0.0
H308 H 0.52906 0.06086 0.96049 0.0
C309 C 0.56269 0.06838 0.0968 0.0
C310 C 0.53353 0.08035 0.07425 0.0
C311 C 0.57113 0.06681 0.13184 0.0
C312 C 0.49114 0.07813 0.93738 0.0
C313 C 0.50016 0.07703 0.97153 0.0
C314 C 0.53038 0.06654 0.9919 0.0
C315 C 0.54869 0.06842 0.10461 0.0
C316 C 0.54014 0.07099 0.06785 0.0
C317 C 0.51452 0.07786 0.9625 0.0
C318 C 0.52362 0.07576 0.99851 0.0
H319 H 0.54698 0.06356 0.21624 0.0
H320 H 0.53217 0.06598 0.15526 0.0
H321 H 0.54329 0.05676 0.02019 0.0
H322 H 0.51523 0.08302 0.85107 0.0
H323 H 0.53098 0.0812 0.91068 0.0
C324 C 0.57724 0.07948 0.38791 0.0
C325 C 0.57919 0.0666 0.38392 0.0
C326 C 0.56846 0.08029 0.42279 0.0
C327 C 0.5544 0.06521 0.53473 0.0
H328 H 0.52288 0.07647 0.5117 0.0
C329 C 0.52401 0.07906 0.67348 0.0
C330 C 0.50759 0.07276 0.66996 0.0
C331 C 0.53242 0.07781 0.63861 0.0
C332 C 0.53157 0.07321 0.51854 0.0
H333 H 0.57371 0.04461 0.41384 0.0
H334 H 0.55863 0.04613 0.47463 0.0
H335 H 0.53866 0.07583 0.45076 0.0
H336 H 0.48711 0.06011 0.62705 0.0
H337 H 0.50191 0.05801 0.56568 0.0
H338 H 0.54736 0.06257 0.6024 0.0
C339 C 0.56385 0.0556 0.4509 0.0
C340 C 0.54071 0.07302 0.48379 0.0
C341 C 0.57244 0.05471 0.41591 0.0
C342 C 0.49973 0.06503 0.63082 0.0
C343 C 0.50822 0.06393 0.5956 0.0
C344 C 0.54538 0.06554 0.56948 0.0
C345 C 0.56166 0.06833 0.45461 0.0
C346 C 0.55221 0.06898 0.49152 0.0
C347 C 0.52466 0.07036 0.59913 0.0
C348 C 0.53386 0.06954 0.5618 0.0
H349 H 0.58224 0.08879 0.36369 0.0
H350 H 0.56708 0.09032 0.42503 0.0
H351 H 0.56322 0.06214 0.54178 0.0
H352 H 0.53043 0.08509 0.70317 0.0
H353 H 0.54509 0.083 0.6422 0.0
C354 C 0.03 0.60269 0.38908 0.0
C355 C 0.04351 0.60996 0.3623 0.0
C356 C 0.0293 0.59359 0.42536 0.0
C357 C 0.05528 0.58744 0.50122 0.0
H358 H 0.01677 0.54858 0.52927 0.0
C359 C 0.05319 0.54449 0.63415 0.0
C360 C 0.03987 0.53743 0.66165 0.0
C361 C 0.05369 0.55336 0.59755 0.0
C362 C 0.02758 0.55949 0.52216 0.0
H363 H 0.06669 0.61305 0.35206 0.0
H364 H 0.06535 0.59713 0.41454 0.0
H365 H 0.01721 0.56387 0.46571 0.0
H366 H 0.01672 0.53435 0.67252 0.0
H367 H 0.01769 0.54987 0.60932 0.0
H368 H 0.06567 0.58306 0.55763 0.0
C369 C 0.05543 0.59866 0.40821 0.0
C370 C 0.02782 0.56826 0.48573 0.0
C371 C 0.05614 0.60772 0.37213 0.0
C372 C 0.02715 0.53956 0.65197 0.0
C373 C 0.02765 0.54838 0.61548 0.0
C374 C 0.05505 0.57866 0.53761 0.0
C375 C 0.04208 0.59159 0.43558 0.0
C376 C 0.04168 0.58233 0.47475 0.0
C377 C 0.04087 0.55533 0.58766 0.0
C378 C 0.0412 0.56458 0.54856 0.0
H379 H 0.0201 0.60421 0.38246 0.0
H380 H 0.01888 0.5884 0.44596 0.0
H381 H 0.0661 0.59835 0.49418 0.0
H382 H 0.06316 0.54305 0.64063 0.0
H383 H 0.064 0.55845 0.57656 0.0
C384 C 0.57118 0.5925 0.65744 0.0
C385 C 0.57799 0.60878 0.6594 0.0
C386 C 0.56277 0.5841 0.62005 0.0
C387 C 0.55755 0.58878 0.50095 0.0
H388 H 0.52036 0.54739 0.51375 0.0
C389 C 0.51563 0.55463 0.35551 0.0
C390 C 0.50971 0.53851 0.35278 0.0
C391 C 0.52445 0.56322 0.3922 0.0
C392 C 0.53084 0.55885 0.50962 0.0
H393 H 0.58106 0.62898 0.6237 0.0
H394 H 0.56606 0.61423 0.55845 0.0
H395 H 0.53405 0.56258 0.57935 0.0
H396 H 0.50866 0.51879 0.38621 0.0
H397 H 0.52413 0.53385 0.45061 0.0
H398 H 0.55415 0.58507 0.43111 0.0
C399 C 0.56749 0.608 0.58571 0.0
C400 C 0.53869 0.56759 0.54723 0.0
C401 C 0.57598 0.61645 0.62321 0.0
C402 C 0.51306 0.5312 0.38731 0.0
C403 C 0.52182 0.5398 0.4243 0.0
C404 C 0.54963 0.58007 0.46332 0.0
C405 C 0.56085 0.59172 0.58359 0.0
C406 C 0.55219 0.58265 0.54342 0.0
C407 C 0.52751 0.55589 0.42727 0.0
C408 C 0.5362 0.56499 0.46723 0.0
H409 H 0.57253 0.58618 0.68458 0.0
H410 H 0.55809 0.57164 0.61943 0.0
H411 H 0.56804 0.60021 0.49671 0.0
H412 H 0.51328 0.56065 0.32949 0.0
H413 H 0.52852 0.57555 0.39364 0.0
C414 C 0.70049 0.86876 0.21624 0.0
C415 C 0.71415 0.87555 0.19007 0.0
C416 C 0.69944 0.87688 0.25227 0.0
C417 C 0.71703 0.91673 0.29904 0.0
H418 H 0.69923 0.89462 0.40876 0.0
C419 C 0.72009 0.9488 0.461 0.0
C420 C 0.70627 0.94195 0.48649 0.0
C421 C 0.72137 0.94073 0.42518 0.0
C422 C 0.70411 0.90095 0.37824 0.0
H423 H 0.73738 0.89627 0.18114 0.0
H424 H 0.73559 0.91029 0.24388 0.0
H425 H 0.70031 0.88045 0.345 0.0
H426 H 0.68302 0.92118 0.49453 0.0
H427 H 0.68522 0.90726 0.43225 0.0
H428 H 0.72082 0.93723 0.3323 0.0
C429 C 0.7256 0.89878 0.23637 0.0
C430 C 0.70469 0.89281 0.34165 0.0
C431 C 0.72665 0.89068 0.20048 0.0
C432 C 0.69386 0.92682 0.4757 0.0
C433 C 0.69515 0.91877 0.44008 0.0
C434 C 0.71646 0.92487 0.33565 0.0
C435 C 0.71202 0.89199 0.26284 0.0
C436 C 0.71115 0.90059 0.30158 0.0
C437 C 0.70888 0.92563 0.41424 0.0
C438 C 0.70996 0.91708 0.37567 0.0
H439 H 0.69065 0.85713 0.20907 0.0
H440 H 0.68873 0.87138 0.27168 0.0
H441 H 0.72189 0.92305 0.26851 0.0
H442 H 0.72986 0.96044 0.46847 0.0
H443 H 0.73218 0.94628 0.40621 0.0
C444 C 0.17237 0.86855 0.47537 0.0
C445 C 0.16567 0.87483 0.50297 0.0
C446 C 0.18213 0.87726 0.44035 0.0
C447 C 0.20656 0.91809 0.39983 0.0
H448 H 0.20587 0.89799 0.28996 0.0
C449 C 0.23536 0.95233 0.24054 0.0
C450 C 0.24434 0.94796 0.21537 0.0
C451 C 0.22654 0.94332 0.2764 0.0
C452 C 0.20632 0.90372 0.32066 0.0
H453 H 0.16368 0.89508 0.51458 0.0
H454 H 0.18032 0.91013 0.45264 0.0
H455 H 0.18825 0.88242 0.34977 0.0
H456 H 0.25113 0.93069 0.20827 0.0
H457 H 0.2354 0.9147 0.27106 0.0
H458 H 0.22434 0.93945 0.37008 0.0
C459 C 0.17837 0.8986 0.45876 0.0
C460 C 0.19623 0.89481 0.35501 0.0
C461 C 0.1687 0.88992 0.4941 0.0
C462 C 0.24435 0.93436 0.22708 0.0
C463 C 0.2353 0.92519 0.26281 0.0
C464 C 0.21652 0.927 0.36536 0.0
C465 C 0.18536 0.89245 0.43168 0.0
C466 C 0.19615 0.90189 0.39502 0.0
C467 C 0.22632 0.92961 0.28784 0.0
C468 C 0.21645 0.91993 0.32531 0.0
H469 H 0.17038 0.85699 0.48137 0.0
H470 H 0.18745 0.87219 0.42075 0.0
H471 H 0.20713 0.92392 0.43041 0.0
H472 H 0.2351 0.96276 0.23255 0.0
H473 H 0.21962 0.94695 0.29471 0.0
C474 C 0.24683 0.42321 0.47918 0.0
C475 C 0.24915 0.41084 0.48984 0.0
C476 C 0.23745 0.42215 0.44307 0.0
C477 C 0.20587 0.39401 0.36836 0.0
H478 H 0.21994 0.43045 0.29381 0.0
C479 C 0.17445 0.3914 0.20427 0.0
C480 C 0.17232 0.40392 0.19405 0.0
C481 C 0.18385 0.39227 0.24016 0.0
C482 C 0.21575 0.42023 0.31458 0.0
H483 H 0.24327 0.38756 0.47099 0.0
H484 H 0.22687 0.38573 0.40746 0.0
H485 H 0.23627 0.43163 0.35629 0.0
H486 H 0.17851 0.42724 0.21356 0.0
H487 H 0.19489 0.42872 0.27662 0.0
H488 H 0.18533 0.38261 0.32666 0.0
C489 C 0.23226 0.39622 0.42742 0.0
C490 C 0.22512 0.42089 0.35039 0.0
C491 C 0.24171 0.39729 0.46369 0.0
C492 C 0.17993 0.4174 0.22048 0.0
C493 C 0.18937 0.41827 0.25649 0.0
C494 C 0.19649 0.39334 0.33254 0.0
C495 C 0.23011 0.4087 0.41656 0.0
C496 C 0.22028 0.4078 0.37781 0.0
C497 C 0.19139 0.40568 0.26684 0.0
C498 C 0.20131 0.40645 0.30522 0.0
H499 H 0.2523 0.4338 0.4987 0.0
H500 H 0.23582 0.43186 0.43618 0.0
H501 H 0.20167 0.38379 0.38917 0.0
H502 H 0.16883 0.38086 0.18453 0.0
H503 H 0.18534 0.38246 0.2467 0.0
C504 C 0.19268 0.42299 0.98266 0.0
C505 C 0.17692 0.41114 0.99049 0.0
C506 C 0.2009 0.42216 0.94656 0.0
C507 C 0.19482 0.40378 0.83703 0.0
H508 H 0.23911 0.41685 0.84953 0.0
C509 C 0.22902 0.39376 0.70065 0.0
C510 C 0.24477 0.40561 0.6927 0.0
C511 C 0.22075 0.39474 0.7364 0.0
C512 C 0.22681 0.41336 0.84532 0.0
H513 H 0.15748 0.38901 0.96661 0.0
H514 H 0.17192 0.38747 0.9036 0.0
H515 H 0.2246 0.41737 0.9135 0.0
H516 H 0.26413 0.4279 0.71587 0.0
H517 H 0.24961 0.42968 0.77833 0.0
H518 H 0.19702 0.39973 0.76886 0.0
C519 C 0.17785 0.39752 0.92523 0.0
C520 C 0.21847 0.41362 0.88204 0.0
C521 C 0.1696 0.39834 0.96149 0.0
C522 C 0.25202 0.41858 0.7211 0.0
C523 C 0.24373 0.41954 0.75704 0.0
C524 C 0.20316 0.40351 0.80032 0.0
C525 C 0.19359 0.40945 0.91727 0.0
C526 C 0.20236 0.40884 0.87836 0.0
C527 C 0.22801 0.40758 0.76521 0.0
C528 C 0.21925 0.40828 0.80402 0.0
H529 H 0.19869 0.43305 1.00422 0.0
H530 H 0.21292 0.43166 0.94113 0.0
H531 H 0.18251 0.40027 0.83282 0.0
H532 H 0.22306 0.38358 0.67951 0.0
H533 H 0.20875 0.38523 0.742 0.0
C534 C 0.72035 0.87802 0.95851 0.0
C535 C 0.70738 0.87161 0.98726 0.0
C536 C 0.72098 0.88714 0.92236 0.0
C537 C 0.70402 0.91024 0.87943 0.0
H538 H 0.71806 0.90429 0.76612 0.0
C539 C 0.69824 0.93863 0.71838 0.0
C540 C 0.71131 0.94509 0.68998 0.0
C541 C 0.69747 0.92944 0.75449 0.0
C542 C 0.71424 0.9062 0.79762 0.0
H543 H 0.68497 0.86989 1.0007 0.0
H544 H 0.68604 0.88558 0.93789 0.0
H545 H 0.71792 0.88923 0.82987 0.0
H546 H 0.73375 0.94682 0.67713 0.0
H547 H 0.73244 0.931 0.73983 0.0
H548 H 0.70035 0.92721 0.84716 0.0
C549 C 0.69582 0.88375 0.94337 0.0
C550 C 0.7142 0.89759 0.83421 0.0
C551 C 0.69517 0.87465 0.97931 0.0
C552 C 0.72348 0.94203 0.69824 0.0
C553 C 0.72269 0.93284 0.73411 0.0
C554 C 0.70406 0.91885 0.84283 0.0
C555 C 0.70869 0.89008 0.91433 0.0
C556 C 0.70909 0.8995 0.87558 0.0
C557 C 0.70972 0.92646 0.7628 0.0
C558 C 0.7092 0.91696 0.80148 0.0
H559 H 0.72995 0.87592 0.96374 0.0
H560 H 0.73116 0.89198 0.90088 0.0
H561 H 0.70022 0.91216 0.91094 0.0
H562 H 0.68866 0.94075 0.71291 0.0
H563 H 0.68722 0.92457 0.77572 0.0
C564 C 0.23787 0.94304 0.98094 0.0
C565 C 0.25315 0.95578 0.97257 0.0
C566 C 0.22886 0.93265 0.94706 0.0
C567 C 0.23375 0.91874 0.8389 0.0
H568 H 0.1884 0.90053 0.8279 0.0
C569 C 0.19809 0.88272 0.68667 0.0
C570 C 0.18288 0.86965 0.69342 0.0
C571 C 0.20661 0.89273 0.72164 0.0
C572 C 0.20103 0.90535 0.83087 0.0
H573 H 0.2706 0.96799 0.92146 0.0
H574 H 0.25482 0.95007 0.86245 0.0
H575 H 0.20299 0.91946 0.88634 0.0
H576 H 0.1649 0.85664 0.74266 0.0
H577 H 0.17987 0.87403 0.80379 0.0
H578 H 0.23183 0.90468 0.78344 0.0
C579 C 0.24992 0.94788 0.89538 0.0
C580 C 0.2094 0.91623 0.86434 0.0
C581 C 0.25893 0.95824 0.9292 0.0
C582 C 0.17658 0.8666 0.73626 0.0
C583 C 0.1851 0.87665 0.77125 0.0
C584 C 0.2254 0.90788 0.80547 0.0
C585 C 0.23491 0.93478 0.90403 0.0
C586 C 0.22589 0.92313 0.86862 0.0
C587 C 0.20015 0.88994 0.76426 0.0
C588 C 0.20894 0.90109 0.80088 0.0
H589 H 0.23306 0.94077 0.01399 0.0
H590 H 0.21738 0.92264 0.95498 0.0
H591 H 0.24639 0.92355 0.84178 0.0
H592 H 0.2033 0.88545 0.6541 0.0
H593 H 0.2181 0.90293 0.71493 0.0
C594 C 0.37352 0.28752 0.7529 0.0
C595 C 0.37639 0.28523 0.79703 0.0
C596 C 0.37215 0.27717 0.71992 0.0
C597 C 0.38072 0.24614 0.69369 0.0
H598 H 0.34798 0.23485 0.6049 0.0
C599 C 0.36615 0.19905 0.5604 0.0
C600 C 0.36461 0.20321 0.51701 0.0
C601 C 0.36668 0.20809 0.5963 0.0
C602 C 0.35724 0.23795 0.62928 0.0
H603 H 0.38047 0.27044 0.84088 0.0
H604 H 0.37794 0.25228 0.78332 0.0
H605 H 0.35142 0.25288 0.66367 0.0
H606 H 0.36188 0.21983 0.47753 0.0
H607 H 0.36275 0.23548 0.53986 0.0
H608 H 0.38653 0.23118 0.65903 0.0
C609 C 0.3769 0.26218 0.77414 0.0
C610 C 0.35926 0.24834 0.66292 0.0
C611 C 0.37832 0.27258 0.80718 0.0
C612 C 0.36307 0.21628 0.51049 0.0
C613 C 0.3635 0.22523 0.54629 0.0
C614 C 0.37867 0.23569 0.66003 0.0
C615 C 0.37354 0.26421 0.7302 0.0
C616 C 0.37115 0.25273 0.69527 0.0
C617 C 0.36554 0.22139 0.58958 0.0
C618 C 0.36702 0.23161 0.62714 0.0
H619 H 0.37207 0.29718 0.74383 0.0
H620 H 0.36991 0.27929 0.68629 0.0
H621 H 0.39008 0.24936 0.7178 0.0
H622 H 0.36739 0.18907 0.56658 0.0
H623 H 0.36807 0.20472 0.62929 0.0
C624 C 0.82104 0.19493 0.75711 0.0
C625 C 0.82509 0.19851 0.80192 0.0
C626 C 0.83133 0.20454 0.72406 0.0
C627 C 0.87332 0.23241 0.70291 0.0
H628 H 0.85759 0.24358 0.60016 0.0
C629 C 0.91459 0.27472 0.56617 0.0
C630 C 0.90867 0.27176 0.52268 0.0
C631 C 0.90488 0.26583 0.60131 0.0
C632 C 0.86218 0.24038 0.62827 0.0
H633 H 0.84303 0.21517 0.84711 0.0
H634 H 0.86101 0.23189 0.78927 0.0
H635 H 0.83948 0.22839 0.65921 0.0
H636 H 0.88834 0.25662 0.48156 0.0
H637 H 0.87172 0.24085 0.54215 0.0
H638 H 0.89597 0.24411 0.6716 0.0
C639 C 0.84989 0.22161 0.77983 0.0
C640 C 0.85178 0.23174 0.66223 0.0
C641 C 0.83952 0.21209 0.81291 0.0
C642 C 0.89319 0.25931 0.51479 0.0
C643 C 0.88359 0.25034 0.54966 0.0
C644 C 0.88373 0.24095 0.66869 0.0
C645 C 0.84597 0.21786 0.73505 0.0
C646 C 0.8572 0.22757 0.69981 0.0
C647 C 0.88913 0.25373 0.59353 0.0
C648 C 0.87826 0.24494 0.63071 0.0
H649 H 0.81004 0.18455 0.7475 0.0
H650 H 0.82802 0.2013 0.68983 0.0
H651 H 0.87781 0.22923 0.73132 0.0
H652 H 0.92645 0.28431 0.57326 0.0
H653 H 0.90954 0.26884 0.63464 0.0
C654 C 0.90393 0.752 0.83316 0.0
C655 C 0.90933 0.74151 0.83627 0.0
C656 C 0.89494 0.75166 0.79684 0.0
C657 C 0.87063 0.72702 0.70289 0.0
H658 H 0.87921 0.76661 0.65449 0.0
C659 C 0.84605 0.73164 0.53398 0.0
C660 C 0.83985 0.74147 0.53068 0.0
C661 C 0.85424 0.73169 0.57183 0.0
C662 C 0.87655 0.75546 0.66792 0.0
H663 H 0.90935 0.72228 0.80387 0.0
H664 H 0.89384 0.72183 0.73988 0.0
H665 H 0.89396 0.76631 0.71911 0.0
H666 H 0.83758 0.75924 0.56452 0.0
H667 H 0.85203 0.75938 0.63087 0.0
H668 H 0.85337 0.7162 0.6512 0.0
C669 C 0.89637 0.73019 0.76593 0.0
C670 C 0.88499 0.75526 0.70501 0.0
C671 C 0.90531 0.73047 0.80252 0.0
C672 C 0.84223 0.75154 0.566 0.0
C673 C 0.85054 0.75165 0.60392 0.0
C674 C 0.86225 0.72722 0.66567 0.0
C675 C 0.8912 0.74089 0.76247 0.0
C676 C 0.88215 0.74104 0.72298 0.0
C677 C 0.85652 0.74162 0.60735 0.0
C678 C 0.86514 0.74144 0.64768 0.0
H679 H 0.90668 0.76057 0.85877 0.0
H680 H 0.8909 0.75986 0.79582 0.0
H681 H 0.86794 0.71585 0.71623 0.0
H682 H 0.84448 0.72375 0.5074 0.0
H683 H 0.85891 0.724 0.57312 0.0
C684 C 0.84161 0.74062 0.3118 0.0
C685 C 0.82512 0.73037 0.30864 0.0
C686 C 0.85159 0.74121 0.27847 0.0
C687 C 0.85383 0.71855 0.18655 0.0
H688 H 0.88753 0.75883 0.14487 0.0
C689 C 0.88877 0.72382 0.03052 0.0
C690 C 0.90518 0.73451 0.03036 0.0
C691 C 0.87939 0.72378 0.06469 0.0
C692 C 0.87833 0.74749 0.15651 0.0
H693 H 0.80624 0.71257 0.26804 0.0
H694 H 0.82371 0.71355 0.20984 0.0
H695 H 0.87033 0.75758 0.20415 0.0
H696 H 0.92458 0.75379 0.06571 0.0
H697 H 0.90817 0.7536 0.12614 0.0
H698 H 0.86183 0.70841 0.13937 0.0
C699 C 0.82889 0.7211 0.2383 0.0
C700 C 0.86844 0.74677 0.19043 0.0
C701 C 0.81887 0.72057 0.27156 0.0
C702 C 0.91197 0.74542 0.06487 0.0
C703 C 0.90255 0.74533 0.09939 0.0
C704 C 0.86375 0.71926 0.15285 0.0
C705 C 0.84536 0.73151 0.24126 0.0
C706 C 0.85601 0.73229 0.20563 0.0
C707 C 0.88615 0.73437 0.09994 0.0
C708 C 0.87604 0.73373 0.13708 0.0
H709 H 0.84685 0.74834 0.3399 0.0
H710 H 0.86422 0.7492 0.28204 0.0
H711 H 0.84455 0.70721 0.19804 0.0
H712 H 0.8831 0.71535 1.00422 0.0
H713 H 0.86678 0.71543 0.06336 0.0
C714 C 0.38049 0.21133 0.30557 0.0
C715 C 0.36818 0.19567 0.30928 0.0
C716 C 0.38072 0.2205 0.27004 0.0
C717 C 0.36617 0.21816 0.15672 0.0
H718 H 0.36862 0.25727 0.182 0.0
C719 C 0.3524 0.25032 0.02195 0.0
C720 C 0.36138 0.26671 0.02138 0.0
C721 C 0.35349 0.24199 0.05767 0.0
C722 C 0.36817 0.24652 0.17413 0.0
H723 H 0.34683 0.17717 0.27808 0.0
H724 H 0.34748 0.193 0.2158 0.0
H725 H 0.37136 0.24245 0.24205 0.0
H726 H 0.37842 0.28724 0.05821 0.0
H727 H 0.3807 0.27279 0.11971 0.0
H728 H 0.36329 0.22221 0.0889 0.0
C729 C 0.35684 0.19826 0.24041 0.0
C730 C 0.36973 0.23803 0.20864 0.0
C731 C 0.35644 0.18922 0.27619 0.0
C732 C 0.37124 0.2746 0.05774 0.0
C733 C 0.3725 0.26629 0.09318 0.0
C734 C 0.36484 0.22673 0.12215 0.0
C735 C 0.36885 0.21403 0.23723 0.0
C736 C 0.36855 0.22368 0.20032 0.0
C737 C 0.36378 0.24985 0.09346 0.0
C738 C 0.36561 0.24093 0.13039 0.0
H739 H 0.38964 0.21661 0.33073 0.0
H740 H 0.39015 0.23262 0.2682 0.0
H741 H 0.36537 0.20719 0.14935 0.0
H742 H 0.34461 0.24389 0.99458 0.0
H743 H 0.34627 0.22937 0.05709 0.0
C744 C 0.91713 0.26428 0.30902 0.0
C745 C 0.91741 0.27772 0.32373 0.0
C746 C 0.9075 0.25561 0.27354 0.0
C747 C 0.88649 0.25827 0.17594 0.0
H748 H 0.86289 0.21302 0.18267 0.0
C749 C 0.83852 0.22017 0.04796 0.0
C750 C 0.83739 0.20626 0.03391 0.0
C751 C 0.84853 0.22879 0.08287 0.0
C752 C 0.86957 0.22564 0.17999 0.0
H753 H 0.90778 0.29261 0.31252 0.0
H754 H 0.89087 0.27739 0.25038 0.0
H755 H 0.87964 0.22833 0.24462 0.0
H756 H 0.84595 0.19051 0.0456 0.0
H757 H 0.86365 0.20572 0.10654 0.0
H758 H 0.87648 0.25561 0.11131 0.0
C759 C 0.89824 0.27366 0.26624 0.0
C760 C 0.87914 0.23442 0.21555 0.0
C761 C 0.90786 0.28233 0.30195 0.0
C762 C 0.84654 0.20116 0.05567 0.0
C763 C 0.85661 0.20984 0.09072 0.0
C764 C 0.87696 0.24949 0.14035 0.0
C765 C 0.89792 0.26016 0.25174 0.0
C766 C 0.88768 0.25084 0.21399 0.0
C767 C 0.85773 0.22378 0.10467 0.0
C768 C 0.86831 0.23307 0.142 0.0
H769 H 0.92436 0.2604 0.32494 0.0
H770 H 0.90771 0.24541 0.26283 0.0
H771 H 0.89312 0.27089 0.17339 0.0
H772 H 0.83159 0.22443 0.03214 0.0
H773 H 0.84886 0.2393 0.09319 0.0
C774 C 0.05747 0.67834 0.40038 0.0
C775 C 0.06274 0.6776 0.358 0.0
C776 C 0.06556 0.69191 0.4256 0.0
C777 C 0.10372 0.72849 0.44114 0.0
H778 H 0.07782 0.74135 0.50117 0.0
C779 C 0.12936 0.7875 0.53532 0.0
C780 C 0.1214 0.78756 0.57353 0.0
C781 C 0.12331 0.77402 0.50934 0.0
C782 C 0.08524 0.73783 0.48523 0.0
H783 H 0.08096 0.69052 0.30935 0.0
H784 H 0.09521 0.71443 0.35383 0.0
H785 H 0.06531 0.71839 0.45412 0.0
H786 H 0.10136 0.77321 0.6158 0.0
H787 H 0.09104 0.7497 0.57124 0.0
H788 H 0.12368 0.74798 0.47266 0.0
C789 C 0.08476 0.70438 0.36734 0.0
C790 C 0.07806 0.72468 0.45806 0.0
C791 C 0.07657 0.69073 0.34182 0.0
C792 C 0.10771 0.77363 0.58637 0.0
C793 C 0.10172 0.76017 0.56057 0.0
C794 C 0.11094 0.74169 0.46858 0.0
C795 C 0.07919 0.70516 0.4093 0.0
C796 C 0.08716 0.71973 0.43607 0.0
C797 C 0.10918 0.76029 0.52108 0.0
C798 C 0.10176 0.74641 0.49136 0.0
H799 H 0.04694 0.66844 0.41416 0.0
H800 H 0.06112 0.69201 0.45809 0.0
H801 H 0.11104 0.72491 0.42484 0.0
H802 H 0.13992 0.79803 0.52441 0.0
H803 H 0.12934 0.77458 0.47908 0.0
C804 C 0.4268 0.49319 0.32537 0.0
C805 C 0.43893 0.4914 0.34348 0.0
C806 C 0.41325 0.48916 0.35012 0.0
C807 C 0.3984 0.48159 0.46557 0.0
H808 H 0.35701 0.45562 0.41189 0.0
C809 C 0.34298 0.44099 0.56682 0.0
C810 C 0.32837 0.43912 0.55417 0.0
C811 C 0.35645 0.44991 0.54116 0.0
C812 C 0.36846 0.46309 0.42724 0.0
H813 H 0.44639 0.4842 0.40202 0.0
H814 H 0.423 0.47718 0.44447 0.0
H815 H 0.38064 0.46676 0.36598 0.0
H816 H 0.31659 0.44554 0.50509 0.0
H817 H 0.34018 0.46111 0.46018 0.0
H818 H 0.3863 0.47753 0.52698 0.0
C819 C 0.42391 0.48183 0.41152 0.0
C820 C 0.38201 0.46949 0.4009 0.0
C821 C 0.43732 0.48575 0.3869 0.0
C822 C 0.32766 0.44675 0.51583 0.0
C823 C 0.34114 0.45559 0.48991 0.0
C824 C 0.38489 0.47517 0.49184 0.0
C825 C 0.41167 0.48342 0.39354 0.0
C826 C 0.39717 0.47847 0.41998 0.0
C827 C 0.35566 0.45712 0.50204 0.0
C828 C 0.36979 0.46552 0.47321 0.0
H829 H 0.42769 0.4975 0.292 0.0
H830 H 0.40403 0.49057 0.33537 0.0
H831 H 0.40987 0.48874 0.48119 0.0
H832 H 0.34396 0.43528 0.5961 0.0
H833 H 0.36739 0.4507 0.55121 0.0
C834 C 0.68921 0.99467 0.45098 0.0
C835 C 0.68417 0.98816 0.49322 0.0
C836 C 0.6809 1.00005 0.42681 0.0
C837 C 0.64275 0.99818 0.41511 0.0
H838 H 0.66876 0.03805 0.35674 0.0
C839 C 0.61771 0.03324 0.32867 0.0
C840 C 0.62535 0.04152 0.29007 0.0
C841 C 0.62365 0.02542 0.35304 0.0
C842 C 0.6613 0.0268 0.37225 0.0
H843 H 0.66605 0.98172 0.5426 0.0
H844 H 0.65145 0.99127 0.5001 0.0
H845 H 0.68125 0.02701 0.40088 0.0
H846 H 0.64469 0.04728 0.24551 0.0
H847 H 0.65484 0.03347 0.28739 0.0
H848 H 0.62276 0.99807 0.38624 0.0
C849 C 0.66187 0.99212 0.48579 0.0
C850 C 0.66847 0.02048 0.39771 0.0
C851 C 0.67025 0.9867 0.51017 0.0
C852 C 0.63859 0.04115 0.27528 0.0
C853 C 0.64449 0.03332 0.29951 0.0
C854 C 0.63553 1.00453 0.38946 0.0
C855 C 0.66731 0.99913 0.44415 0.0
C856 C 0.65933 1.00601 0.41903 0.0
C857 C 0.63736 0.02569 0.33931 0.0
C858 C 0.64475 0.01884 0.36728 0.0
H859 H 0.69976 0.99583 0.43657 0.0
H860 H 0.68521 1.00505 0.39446 0.0
H861 H 0.63538 0.98697 0.43096 0.0
H862 H 0.60749 0.03329 0.34106 0.0
H863 H 0.61789 0.01972 0.38359 0.0
C864 C 0.6597 0.10998 0.20911 0.0
C865 C 0.64619 0.10557 0.18297 0.0
C866 C 0.67483 0.11847 0.19077 0.0
C867 C 0.69739 0.14251 0.09397 0.0
H868 H 0.72557 0.12759 0.12325 0.0
C869 C 0.75457 0.16002 0.99543 0.0
C870 C 0.76768 0.16186 0.01944 0.0
C871 C 0.74002 0.15461 0.01637 0.0
C872 C 0.71798 0.1321 0.11515 0.0
H873 H 0.63807 0.10722 0.11745 0.0
H874 H 0.66439 0.12193 0.08556 0.0
H875 H 0.69997 0.11598 0.15889 0.0
H876 H 0.77599 0.16019 0.08464 0.0
H877 H 0.75089 0.15112 0.12105 0.0
H878 H 0.71543 0.15857 0.04984 0.0
C879 C 0.66333 0.11891 0.12028 0.0
C880 C 0.70327 0.12543 0.13567 0.0
C881 C 0.64821 0.1104 0.13856 0.0
C882 C 0.76609 0.15873 0.06501 0.0
C883 C 0.75164 0.15343 0.0859 0.0
C884 C 0.71216 0.14924 0.07345 0.0
C885 C 0.67681 0.12279 0.1459 0.0
C886 C 0.69276 0.1305 0.1253 0.0
C887 C 0.73832 0.15098 0.06176 0.0
C888 C 0.72264 0.1441 0.08376 0.0
H889 H 0.65859 0.1065 0.24345 0.0
H890 H 0.68499 0.12148 0.21162 0.0
H891 H 0.68963 0.14679 0.0855 0.0
H892 H 0.7554 0.1623 0.96025 0.0
H893 H 0.72999 0.15277 0.99668 0.0
C894 C 0.96549 0.7006 0.96586 0.0
C895 C 0.95498 0.70524 0.97957 0.0
C896 C 0.96955 0.69211 0.99428 0.0
C897 C 0.97391 0.68685 0.11155 0.0
H898 H 0.97593 0.65088 0.07512 0.0
C899 C 0.99502 0.65655 0.23295 0.0
C900 C 1.00463 0.65133 0.21578 0.0
C901 C 0.98697 0.66128 0.20466 0.0
C902 C 0.97563 0.66102 0.08578 0.0
H903 H 0.94015 0.70419 0.03353 0.0
H904 H 0.94745 0.68962 0.08318 0.0
H905 H 0.9658 0.6626 0.02383 0.0
H906 H 0.01307 0.6467 0.15524 0.0
H907 H 0.99959 0.65539 0.10624 0.0
H908 H 0.98436 0.68585 0.1726 0.0
C909 C 0.95251 0.69253 0.05043 0.0
C910 C 0.96974 0.66768 0.05637 0.0
C911 C 0.94827 0.7008 0.02184 0.0
C912 C 1.0057 0.65058 0.16968 0.0
C913 C 0.99785 0.6555 0.14144 0.0
C914 C 0.98002 0.68036 0.14072 0.0
C915 C 0.96337 0.68829 0.03721 0.0
C916 C 0.9689 0.6807 0.06889 0.0
C917 C 0.98851 0.66111 0.15847 0.0
C918 C 0.98108 0.66741 0.1282 0.0
H919 H 0.97086 0.70381 0.93353 0.0
H920 H 0.97801 0.68906 0.98328 0.0
H921 H 0.97359 0.69702 0.12191 0.0
H922 H 0.99386 0.65718 0.2683 0.0
H923 H 0.97964 0.6652 0.21913 0.0
C924 C 0.41913 0.34742 0.03678 0.0
C925 C 0.41085 0.34555 0.99702 0.0
C926 C 0.42725 0.36192 0.05799 0.0
C927 C 0.44307 0.4043 0.04148 0.0
H928 H 0.43707 0.40427 0.16791 0.0
C929 C 0.45354 0.45881 0.13391 0.0
C930 C 0.46075 0.46214 0.17591 0.0
C931 C 0.44922 0.44483 0.11255 0.0
C932 C 0.43909 0.40449 0.13275 0.0
H933 H 0.40508 0.35764 0.94764 0.0
H934 H 0.41913 0.38287 0.9847 0.0
H935 H 0.4266 0.37954 0.12889 0.0
H936 H 0.4691 0.45333 0.2284 0.0
H937 H 0.46147 0.42872 0.1909 0.0
H938 H 0.45526 0.42923 0.04521 0.0
C939 C 0.41949 0.37316 0.99935 0.0
C940 C 0.43309 0.39031 0.11032 0.0
C941 C 0.41137 0.35866 0.97813 0.0
C942 C 0.46356 0.45111 0.19609 0.0
C943 C 0.45913 0.437 0.17468 0.0
C944 C 0.44904 0.41846 0.06387 0.0
C945 C 0.4273 0.37491 0.03996 0.0
C946 C 0.43479 0.39003 0.06428 0.0
C947 C 0.45195 0.43374 0.13257 0.0
C948 C 0.44689 0.41873 0.10965 0.0
H949 H 0.41904 0.33758 0.05219 0.0
H950 H 0.43335 0.3629 0.08882 0.0
H951 H 0.44486 0.40453 1.00619 0.0
H952 H 0.45116 0.467 0.11734 0.0
H953 H 0.44346 0.44259 0.08053 0.0
C954 C 0.95651 0.36122 0.49092 0.0
C955 C 0.94992 0.34787 0.51793 0.0
C956 C 0.96272 0.37607 0.5095 0.0
C957 C 0.96368 0.39706 0.61161 0.0
H958 H 1.00492 0.42877 0.56874 0.0
C959 C 1.00502 0.45522 0.70494 0.0
C960 C 0.0144 0.46861 0.67927 0.0
C961 C 0.99566 0.4406 0.68473 0.0
C962 C 0.9933 0.42016 0.58073 0.0
H963 H 0.94405 0.33963 0.5855 0.0
H964 H 0.95492 0.36546 0.61775 0.0
H965 H 0.99101 0.40327 0.53362 0.0
H966 H 0.02061 0.47729 0.61219 0.0
H967 H 1.00414 0.45204 0.57719 0.0
H968 H 0.96609 0.41399 0.6591 0.0
C969 C 0.95523 0.36449 0.58222 0.0
C970 C 0.9853 0.40551 0.5605 0.0
C971 C 0.94907 0.34966 0.56369 0.0
C972 C 0.0137 0.46718 0.63303 0.0
C973 C 1.00431 0.45266 0.6129 0.0
C974 C 0.97167 0.41177 0.63184 0.0
C975 C 0.96243 0.37791 0.55548 0.0
C976 C 0.97043 0.39374 0.57576 0.0
C977 C 0.99543 0.43911 0.63844 0.0
C978 C 0.98662 0.4235 0.6167 0.0
H979 H 0.95731 0.36027 0.45555 0.0
H980 H 0.96797 0.38615 0.48788 0.0
H981 H 0.95216 0.3883 0.62394 0.0
H982 H 1.00532 0.45594 0.74065 0.0
H983 H 0.98905 0.4304 0.70545 0.0
C984 C 0.66447 0.65804 0.70369 0.0
C985 C 0.65116 0.64409 0.68869 0.0
C986 C 0.67892 0.66447 0.6817 0.0
C987 C 0.70175 0.65593 0.6024 0.0
H988 H 0.72239 0.70017 0.57614 0.0
C989 C 0.76463 0.69243 0.527 0.0
C990 C 0.76704 0.70372 0.49512 0.0
C991 C 0.75021 0.68408 0.54926 0.0
C992 C 0.71672 0.68779 0.58293 0.0
H993 H 0.64289 0.62555 0.64016 0.0
H994 H 0.66814 0.63672 0.60209 0.0
H995 H 0.69829 0.68764 0.61991 0.0
H996 H 0.75592 0.71463 0.46047 0.0
H997 H 0.7308 0.70006 0.49931 0.0
H998 H 0.7202 0.65611 0.56507 0.0
C999 C 0.66737 0.6427 0.63079 0.0
C1000 C 0.70302 0.68065 0.60851 0.0
C1001 C 0.65288 0.63632 0.65256 0.0
C1002 C 0.7545 0.70605 0.48487 0.0
C1003 C 0.74013 0.69778 0.50738 0.0
C1004 C 0.71556 0.66312 0.57709 0.0
C1005 C 0.68046 0.65704 0.64444 0.0
C1006 C 0.69535 0.66463 0.61849 0.0
C1007 C 0.73792 0.68691 0.5404 0.0
C1008 C 0.72316 0.67912 0.56688 0.0
H1009 H 0.66359 0.66432 0.73144 0.0
H1010 H 0.68886 0.67542 0.69343 0.0
H1011 H 0.69615 0.64358 0.60966 0.0
H1012 H 0.77402 0.69033 0.53569 0.0
H1013 H 0.74892 0.67585 0.57465 0.0
C1014 C 0.39572 0.15034 0.55014 0.0
C1015 C 0.40028 0.15918 0.51099 0.0
C1016 C 0.4056 0.14599 0.57044 0.0
C1017 C 0.4382 0.13942 0.54684 0.0
H1018 H 0.43841 0.13541 0.67428 0.0
C1019 C 0.45438 0.0981 0.63212 0.0
C1020 C 0.46188 0.10197 0.67373 0.0
C1021 C 0.44962 0.10759 0.61196 0.0
C1022 C 0.43874 0.13667 0.6387 0.0
H1023 H 0.41905 0.17065 0.46295 0.0
H1024 H 0.43647 0.16314 0.49878 0.0
H1025 H 0.4254 0.14799 0.64059 0.0
H1026 H 0.47074 0.11919 0.72614 0.0
H1027 H 0.46258 0.13595 0.6906 0.0
H1028 H 0.4516 0.12814 0.54498 0.0
C1029 C 0.4251 0.15944 0.51345 0.0
C1030 C 0.43107 0.14371 0.61929 0.0
C1031 C 0.41515 0.1638 0.49301 0.0
C1032 C 0.46493 0.11584 0.69417 0.0
C1033 C 0.46017 0.1254 0.67388 0.0
C1034 C 0.44593 0.13243 0.56626 0.0
C1035 C 0.42038 0.15038 0.55233 0.0
C1036 C 0.43033 0.1448 0.57306 0.0
C1037 C 0.45228 0.12129 0.6327 0.0
C1038 C 0.44594 0.13058 0.6124 0.0
H1039 H 0.38434 0.14653 0.56495 0.0
H1040 H 0.40139 0.13878 0.59979 0.0
H1041 H 0.43784 0.13998 0.51116 0.0
H1042 H 0.45182 0.0875 0.61534 0.0
H1043 H 0.44335 0.10387 0.58069 0.0
C1044 C 0.32823 0.98544 0.04244 0.0
C1045 C 0.32204 0.99531 0.04268 0.0
C1046 C 0.34215 0.9897 0.01919 0.0
C1047 C 0.37686 0.02453 0.9682 0.0
H1048 H 0.38081 0.99415 0.89957 0.0
C1049 C 0.4219 0.04316 0.82915 0.0
C1050 C 0.43227 0.0375 0.83136 0.0
C1051 C 0.40844 0.03672 0.85558 0.0
C1052 C 0.37988 1.00271 0.91889 0.0
H1053 H 0.32557 0.01732 0.01818 0.0
H1054 H 0.34925 0.02445 0.97736 0.0
H1055 H 0.35759 0.98549 0.94643 0.0
H1056 H 0.43613 0.02002 0.86148 0.0
H1057 H 0.4123 0.00851 0.90716 0.0
H1058 H 0.39881 0.04179 0.93952 0.0
C1059 C 0.34377 0.01363 0.99592 0.0
C1060 C 0.36664 0.99777 0.9459 0.0
C1061 C 0.33004 0.00946 0.01923 0.0
C1062 C 0.42841 0.02468 0.85905 0.0
C1063 C 0.41477 0.01807 0.88514 0.0
C1064 C 0.3899 0.02946 0.94087 0.0
C1065 C 0.35011 1.0039 0.99567 0.0
C1066 C 0.36482 0.00868 0.97025 0.0
C1067 C 0.4049 0.02432 0.88447 0.0
C1068 C 0.39143 0.01866 0.91536 0.0
H1069 H 0.32233 0.97444 0.0601 0.0
H1070 H 0.34674 0.98195 0.01997 0.0
H1071 H 0.37615 0.03324 0.98739 0.0
H1072 H 0.42445 0.05299 0.80819 0.0
H1073 H 0.40092 0.04162 0.85401 0.0
C1074 C 0.07737 0.50063 0.89554 0.0
C1075 C 0.0753 0.50007 0.84945 0.0
C1076 C 0.08639 0.49514 0.91533 0.0
C1077 C 0.11567 0.48327 0.89324 0.0
H1078 H 0.09775 0.4583 0.99887 0.0
C1079 C 0.13427 0.44104 0.96155 0.0
C1080 C 0.13496 0.43948 1.00758 0.0
C1081 C 0.12886 0.45031 0.94348 0.0
C1082 C 0.10308 0.46545 0.96985 0.0
H1083 H 0.08157 0.4938 0.78784 0.0
H1084 H 0.09715 0.48393 0.82248 0.0
H1085 H 0.08488 0.47088 0.96445 0.0
H1086 H 0.13098 0.4469 0.07076 0.0
H1087 H 0.12154 0.46318 0.03913 0.0
H1088 H 0.13369 0.47747 0.89828 0.0
C1089 C 0.09194 0.48881 0.84332 0.0
C1090 C 0.09569 0.47268 0.95002 0.0
C1091 C 0.08296 0.49441 0.82343 0.0
C1092 C 0.13057 0.44783 0.03518 0.0
C1093 C 0.12507 0.45707 0.01704 0.0
C1094 C 0.12305 0.47598 0.91305 0.0
C1095 C 0.0935 0.48882 0.88963 0.0
C1096 C 0.10182 0.48162 0.91132 0.0
C1097 C 0.12392 0.45823 0.97095 0.0
C1098 C 0.11678 0.46689 0.95143 0.0
H1099 H 0.07179 0.50508 0.91657 0.0
H1100 H 0.08763 0.49568 0.95096 0.0
H1101 H 0.12085 0.49024 0.86385 0.0
H1102 H 0.13759 0.4348 0.93929 0.0
H1103 H 0.12798 0.4508 0.90789 0.0
C1104 C 0.62532 0.69466 0.82421 0.0
C1105 C 0.6286 0.68342 0.84033 0.0
C1106 C 0.62959 0.70813 0.849 0.0
C1107 C 0.63965 0.72337 0.96346 0.0
H1108 H 0.66232 0.76433 0.90903 0.0
C1109 C 0.67966 0.77913 0.06295 0.0
C1110 C 0.68043 0.79309 0.05114 0.0
C1111 C 0.67085 0.76565 0.03756 0.0
C1112 C 0.65575 0.75297 0.92466 0.0
H1113 H 0.63899 0.67759 0.89506 0.0
H1114 H 0.64637 0.70082 0.93762 0.0
H1115 H 0.65146 0.74097 0.86288 0.0
H1116 H 0.67211 0.8037 1.00394 0.0
H1117 H 0.65665 0.78007 0.95961 0.0
H1118 H 0.64422 0.73528 0.02525 0.0
C1119 C 0.64035 0.69924 0.90626 0.0
C1120 C 0.64954 0.73959 0.89818 0.0
C1121 C 0.63621 0.68594 0.88156 0.0
C1122 C 0.67177 0.79313 0.014 0.0
C1123 C 0.663 0.77963 0.98839 0.0
C1124 C 0.64584 0.7367 0.98985 0.0
C1125 C 0.63705 0.71048 0.8905 0.0
C1126 C 0.64179 0.72465 0.91745 0.0
C1127 C 0.66261 0.76578 0.99958 0.0
C1128 C 0.65432 0.75167 0.97093 0.0
H1129 H 0.61947 0.69307 0.79256 0.0
H1130 H 0.62688 0.71659 0.83601 0.0
H1131 H 0.63344 0.71202 0.97924 0.0
H1132 H 0.68619 0.77867 0.09128 0.0
H1133 H 0.67098 0.75525 0.04686 0.0
C1134 C 0.7461 0.02546 0.66139 0.0
C1135 C 0.72986 0.01908 0.65302 0.0
C1136 C 0.75492 0.0397 0.68404 0.0
C1137 C 0.75415 0.07514 0.71276 0.0
H1138 H 0.77981 0.07842 0.81463 0.0
C1139 C 0.76815 0.11998 0.84744 0.0
C1140 C 0.78372 0.12885 0.86387 0.0
C1141 C 0.76365 0.10717 0.82011 0.0
C1142 C 0.77289 0.07777 0.78587 0.0
H1143 H 0.71023 0.02277 0.66116 0.0
H1144 H 0.72548 0.04739 0.7 0.0
H1145 H 0.76845 0.05513 0.76756 0.0
H1146 H 0.80663 0.13081 0.86564 0.0
H1147 H 0.79863 0.10815 0.8177 0.0
H1148 H 0.75816 0.09748 0.73138 0.0
C1149 C 0.73149 0.04152 0.68908 0.0
C1150 C 0.76641 0.06446 0.7589 0.0
C1151 C 0.72271 0.02733 0.66701 0.0
C1152 C 0.79455 0.12423 0.85349 0.0
C1153 C 0.78998 0.11126 0.82609 0.0
C1154 C 0.76058 0.08836 0.73957 0.0
C1155 C 0.74767 0.04788 0.69804 0.0
C1156 C 0.75658 0.06282 0.72283 0.0
C1157 C 0.77455 0.10281 0.80841 0.0
C1158 C 0.76961 0.08963 0.77719 0.0
H1159 H 0.75192 0.01934 0.65117 0.0
H1160 H 0.76738 0.04434 0.6904 0.0
H1161 H 0.74692 0.07439 0.68466 0.0
H1162 H 0.75943 0.12307 0.85501 0.0
H1163 H 0.75157 0.10069 0.80787 0.0
C1164 C 0.08838 0.82224 0.65811 0.0
C1165 C 0.10206 0.83117 0.68397 0.0
C1166 C 0.07334 0.81557 0.67693 0.0
C1167 C 0.05176 0.81672 0.77583 0.0
H1168 H 0.02191 0.77366 0.74402 0.0
C1169 C 0.9942 0.77629 0.87441 0.0
C1170 C 0.9807 0.76581 0.84974 0.0
C1171 C 1.00887 0.78541 0.85362 0.0
C1172 C 0.03 0.78575 0.75291 0.0
H1173 H 0.11061 0.84062 0.74955 0.0
H1174 H 0.0845 0.82892 0.78227 0.0
H1175 H 0.04743 0.78772 0.70773 0.0
H1176 H 0.97194 0.75718 0.78363 0.0
H1177 H 0.99727 0.7731 0.74768 0.0
H1178 H 0.03429 0.8146 0.82152 0.0
C1179 C 0.08533 0.82714 0.74739 0.0
C1180 C 0.04465 0.79384 0.73197 0.0
C1181 C 0.10034 0.83379 0.72861 0.0
C1182 C 0.9821 0.765 0.8038 0.0
C1183 C 0.99668 0.77408 0.78313 0.0
C1184 C 0.03706 0.8086 0.79685 0.0
C1185 C 0.07164 0.81769 0.72203 0.0
C1186 C 0.05575 0.80942 0.74316 0.0
C1187 C 1.01032 0.78421 0.80778 0.0
C1188 C 0.02599 0.79301 0.78564 0.0
H1189 H 0.08927 0.82002 0.6236 0.0
H1190 H 0.06304 0.80858 0.65623 0.0
H1191 H 0.05996 0.82875 0.78497 0.0
H1192 H 0.99352 0.77719 0.90985 0.0
H1193 H 0.01916 0.79303 0.87365 0.0
C1194 C 0.28934 0.36876 0.66608 0.0
C1195 C 0.28937 0.38125 0.68723 0.0
C1196 C 0.29353 0.35927 0.68948 0.0
C1197 C 0.29879 0.34869 0.80404 0.0
H1198 H 0.32772 0.33854 0.7498 0.0
C1199 C 0.33869 0.33336 0.90478 0.0
C1200 C 0.34136 0.32179 0.88871 0.0
C1201 C 0.32999 0.33818 0.87988 0.0
C1202 C 0.31944 0.34105 0.76523 0.0
H1203 H 0.29361 0.39337 0.74975 0.0
H1204 H 0.30103 0.37711 0.78992 0.0
H1205 H 0.31677 0.35135 0.7061 0.0
H1206 H 0.33657 0.30588 0.83426 0.0
H1207 H 0.32139 0.31437 0.79074 0.0
H1208 H 0.30186 0.33885 0.86352 0.0
C1209 C 0.29757 0.37442 0.75557 0.0
C1210 C 0.31314 0.34838 0.74014 0.0
C1211 C 0.29342 0.38386 0.7323 0.0
C1212 C 0.33472 0.31482 0.84767 0.0
C1213 C 0.32612 0.31975 0.82257 0.0
C1214 C 0.30513 0.34144 0.82913 0.0
C1215 C 0.29776 0.36204 0.73452 0.0
C1216 C 0.303 0.35261 0.7595 0.0
C1217 C 0.32383 0.33164 0.83814 0.0
C1218 C 0.31578 0.33781 0.81028 0.0
H1219 H 0.28626 0.36643 0.63139 0.0
H1220 H 0.29344 0.34977 0.67232 0.0
H1221 H 0.29074 0.35145 0.8198 0.0
H1222 H 0.34363 0.33898 0.93622 0.0
H1223 H 0.32858 0.34748 0.89267 0.0
C1224 C 0.98633 0.33711 0.31043 0.0
C1225 C 0.98404 0.32843 0.34922 0.0
C1226 C 1.00003 0.34265 0.28565 0.0
C1227 C 0.03355 0.33739 0.26267 0.0
H1228 H 0.05164 0.37914 0.21444 0.0
C1229 C 0.09319 0.37062 0.16593 0.0
C1230 C 0.09351 0.37956 0.12944 0.0
C1231 C 0.07989 0.36321 0.19328 0.0
C1232 C 0.04666 0.3674 0.22725 0.0
H1233 H 0.99434 0.31854 0.39198 0.0
H1234 H 0.01859 0.32844 0.34848 0.0
H1235 H 0.02892 0.36886 0.26287 0.0
H1236 H 0.07972 0.38692 0.09172 0.0
H1237 H 0.05661 0.37395 0.13897 0.0
H1238 H 0.05148 0.33607 0.22675 0.0
C1239 C 1.00961 0.33083 0.33732 0.0
C1240 C 0.03363 0.3615 0.25511 0.0
C1241 C 0.99578 0.32523 0.36232 0.0
C1242 C 0.07996 0.38027 0.11972 0.0
C1243 C 0.06673 0.37291 0.14701 0.0
C1244 C 0.0467 0.34335 0.23474 0.0
C1245 C 1.01194 0.33976 0.29892 0.0
C1246 C 0.0267 0.34632 0.27251 0.0
C1247 C 0.06668 0.36464 0.18476 0.0
C1248 C 0.0532 0.35833 0.21606 0.0
H1249 H 0.97751 0.33969 0.29895 0.0
H1250 H 1.00124 0.34917 0.25577 0.0
H1251 H 0.02845 0.32562 0.27537 0.0
H1252 H 0.10343 0.36982 0.17436 0.0
H1253 H 0.08023 0.35694 0.22211 0.0
C1254 C 0.79481 0.78255 0.37587 0.0
C1255 C 0.80399 0.7784 0.35089 0.0
C1256 C 0.78837 0.79078 0.3564 0.0
C1257 C 0.79054 0.81411 0.25728 0.0
H1258 H 0.74688 0.79936 0.2863 0.0
C1259 C 0.7504 0.82998 0.15555 0.0
C1260 C 0.73982 0.83254 0.17949 0.0
C1261 C 0.75949 0.8248 0.1771 0.0
C1262 C 0.75914 0.80379 0.27819 0.0
H1263 H 0.81411 0.78022 0.28623 0.0
H1264 H 0.80275 0.79432 0.25232 0.0
H1265 H 0.7606 0.78816 0.32364 0.0
H1266 H 0.73108 0.83235 0.24514 0.0
H1267 H 0.74695 0.82356 0.2824 0.0
H1268 H 0.78891 0.82958 0.21121 0.0
C1269 C 0.80063 0.79139 0.28704 0.0
C1270 C 0.76704 0.79738 0.29974 0.0
C1271 C 0.80709 0.7832 0.3065 0.0
C1272 C 0.73896 0.83034 0.22552 0.0
C1273 C 0.74802 0.82521 0.24694 0.0
C1274 C 0.78261 0.82052 0.23561 0.0
C1275 C 0.79093 0.79502 0.31148 0.0
C1276 C 0.78284 0.80242 0.28959 0.0
C1277 C 0.75818 0.82208 0.22299 0.0
C1278 C 0.7668 0.81543 0.24584 0.0
H1279 H 0.79225 0.77912 0.41019 0.0
H1280 H 0.78119 0.79363 0.37645 0.0
H1281 H 0.80276 0.81839 0.24894 0.0
H1282 H 0.75133 0.83155 0.12006 0.0
H1283 H 0.76715 0.82243 0.15762 0.0
C1284 C 0.28937 0.03484 0.12224 0.0
C1285 C 0.28275 0.02003 0.1418 0.0
C1286 C 0.29513 0.04822 0.14849 0.0
C1287 C 0.30895 0.06181 0.26351 0.0
H1288 H 0.30985 0.09899 0.2223 0.0
C1289 C 0.33582 0.11892 0.36682 0.0
C1290 C 0.34721 0.1322 0.3438 0.0
C1291 C 0.32595 0.1049 0.34421 0.0
C1292 C 0.30964 0.08866 0.23425 0.0
H1293 H 0.27611 0.0075 0.20404 0.0
H1294 H 0.28549 0.03065 0.24962 0.0
H1295 H 0.29584 0.075 0.17901 0.0
H1296 H 0.35678 0.1414 0.27898 0.0
H1297 H 0.33942 0.11714 0.23971 0.0
H1298 H 0.32271 0.07557 0.31888 0.0
C1299 C 0.28684 0.0321 0.21417 0.0
C1300 C 0.3017 0.07493 0.20932 0.0
C1301 C 0.28133 0.01879 0.18799 0.0
C1302 C 0.34819 0.13134 0.29772 0.0
C1303 C 0.33817 0.11748 0.27513 0.0
C1304 C 0.31668 0.07548 0.28872 0.0
C1305 C 0.29417 0.04706 0.19492 0.0
C1306 C 0.30149 0.06137 0.22316 0.0
C1307 C 0.32708 0.10406 0.29813 0.0
C1308 C 0.31736 0.08912 0.27394 0.0
H1309 H 0.29072 0.03618 0.08675 0.0
H1310 H 0.30086 0.05949 0.13232 0.0
H1311 H 0.30934 0.05176 0.27503 0.0
H1312 H 0.33482 0.11925 0.40234 0.0
H1313 H 0.31746 0.09471 0.36271 0.0
loop_
_geom_bond_atom_site_label_1
_geom_bond_atom_site_label_2
_geom_bond_distance
_geom_bond_site_symmetry_2
_ccdc_geom_bond_type
Mg0 O7 2.141 . S
Mg0 O8 2.048 . S
Mg0 O9 2.048 . S
Mg0 O12 2.141 . S
C1 O2 1.313 . S
C1 O8 1.195 . S
O2 C1 1.313 . S
C3 O4 1.245 . S
C3 O12 1.289 . S
O4 C3 1.245 . S
C5 O6 1.245 . S
C5 O7 1.289 . S
O6 C5 1.245 . S
O7 Mg0 2.141 . S
O7 C5 1.289 . S
O8 Mg0 2.048 . S
O8 C1 1.195 . S
O9 Mg0 2.048 . S
O9 C10 1.195 . S
C10 O9 1.195 . S
C10 O11 1.313 . S
O11 C10 1.313 . S
O12 Mg0 2.141 . S
O12 C3 1.289 . S
Mg13 O20 2.141 . S
Mg13 O21 2.048 . S
Mg13 O22 2.048 . S
Mg13 O25 2.141 . S
C14 O15 1.313 . S
C14 O21 1.195 . S
O15 C14 1.313 . S
C16 O17 1.245 . S
C16 O25 1.289 . S
O17 C16 1.245 . S
C18 O19 1.245 . S
C18 O20 1.289 . S
O19 C18 1.245 . S
O20 Mg13 2.141 . S
O20 C18 1.289 . S
O21 Mg13 2.048 . S
O21 C14 1.195 . S
O22 Mg13 2.048 . S
O22 C23 1.195 . S
C23 O22 1.195 . S
C23 O24 1.313 . S
O24 C23 1.313 . S
O25 Mg13 2.141 . S
O25 C16 1.289 . S
Mg26 O33 2.141 . S
Mg26 O34 2.048 . S
Mg26 O35 2.048 . S
Mg26 O38 2.141 . S
C27 O28 1.313 . S
C27 O34 1.195 . S
O28 C27 1.313 . S
C29 O30 1.245 . S
C29 O38 1.289 . S
O30 C29 1.245 . S
C31 O32 1.245 . S
C31 O33 1.289 . S
O32 C31 1.245 . S
O33 Mg26 2.141 . S
O33 C31 1.289 . S
O34 Mg26 2.048 . S
O34 C27 1.195 . S
O35 Mg26 2.048 . S
O35 C36 1.195 . S
C36 O35 1.195 . S
C36 O37 1.313 . S
O37 C36 1.313 . S
O38 Mg26 2.141 . S
O38 C29 1.289 . S
Mg39 O46 2.141 . S
Mg39 O47 2.048 . S
Mg39 O48 2.048 . S
Mg39 O51 2.141 . S
C40 O41 1.313 . S
C40 O47 1.195 . S
O41 C40 1.313 . S
C42 O43 1.245 . S
C42 O51 1.289 . S
O43 C42 1.245 . S
C44 O45 1.245 . S
C44 O46 1.289 . S
O45 C44 1.245 . S
O46 Mg39 2.141 . S
O46 C44 1.289 . S
O47 Mg39 2.048 . S
O47 C40 1.195 . S
O48 Mg39 2.048 . S
O48 C49 1.195 . S
C49 O48 1.195 . S
C49 O50 1.313 . S
O50 C49 1.313 . S
O51 Mg39 2.141 . S
O51 C42 1.289 . S
Mg52 O59 2.141 . S
Mg52 O60 2.048 . S
Mg52 O61 2.048 . S
Mg52 O64 2.141 . S
C53 O54 1.313 . S
C53 O60 1.195 . S
O54 C53 1.313 . S
C55 O56 1.245 . S
C55 O64 1.289 . S
O56 C55 1.245 . S
C57 O58 1.245 . S
C57 O59 1.289 . S
O58 C57 1.245 . S
O59 Mg52 2.141 . S
O59 C57 1.289 . S
O60 Mg52 2.048 . S
O60 C53 1.195 . S
O61 Mg52 2.048 . S
O61 C62 1.195 . S
C62 O61 1.195 . S
C62 O63 1.313 . S
O63 C62 1.313 . S
O64 Mg52 2.141 . S
O64 C55 1.289 . S
Mg65 O72 2.141 . S
Mg65 O73 2.048 . S
Mg65 O74 2.048 . S
Mg65 O77 2.141 . S
C66 O67 1.313 . S
C66 O73 1.195 . S
O67 C66 1.313 . S
C68 O69 1.245 . S
C68 O77 1.289 . S
O69 C68 1.245 . S
C70 O71 1.245 . S
C70 O72 1.289 . S
O71 C70 1.245 . S
O72 Mg65 2.141 . S
O72 C70 1.289 . S
O73 Mg65 2.048 . S
O73 C66 1.195 . S
O74 Mg65 2.048 . S
O74 C75 1.195 . S
C75 O74 1.195 . S
C75 O76 1.313 . S
O76 C75 1.313 . S
O77 Mg65 2.141 . S
O77 C68 1.289 . S
Mg78 O85 2.141 . S
Mg78 O86 2.048 . S
Mg78 O87 2.048 . S
Mg78 O90 2.141 . S
C79 O80 1.313 . S
C79 O86 1.195 . S
O80 C79 1.313 . S
C81 O82 1.245 . S
C81 O90 1.289 . S
O82 C81 1.245 . S
C83 O84 1.245 . S
C83 O85 1.289 . S
O84 C83 1.245 . S
O85 Mg78 2.141 . S
O85 C83 1.289 . S
O86 Mg78 2.048 . S
O86 C79 1.195 . S
O87 Mg78 2.048 . S
O87 C88 1.195 . S
C88 O87 1.195 . S
C88 O89 1.313 . S
O89 C88 1.313 . S
O90 Mg78 2.141 . S
O90 C81 1.289 . S
Mg91 O98 2.141 . S
Mg91 O99 2.048 . S
Mg91 O100 2.048 . S
Mg91 O103 2.141 . S
C92 O93 1.313 . S
C92 O99 1.195 . S
O93 C92 1.313 . S
C94 O95 1.245 . S
C94 O103 1.289 . S
O95 C94 1.245 . S
C96 O97 1.245 . S
C96 O98 1.289 . S
O97 C96 1.245 . S
O98 Mg91 2.141 . S
O98 C96 1.289 . S
O99 Mg91 2.048 . S
O99 C92 1.195 . S
O100 Mg91 2.048 . S
O100 C101 1.195 . S
C101 O100 1.195 . S
C101 O102 1.313 . S
O102 C101 1.313 . S
O103 Mg91 2.141 . S
O103 C94 1.289 . S
Mg104 O111 2.141 . S
Mg104 O112 2.048 . S
Mg104 O113 2.048 . S
Mg104 O116 2.141 . S
C105 O106 1.313 . S
C105 O112 1.195 . S
O106 C105 1.313 . S
C107 O108 1.245 . S
C107 O116 1.289 . S
O108 C107 1.245 . S
C109 O110 1.245 . S
C109 O111 1.289 . S
O110 C109 1.245 . S
O111 Mg104 2.141 . S
O111 C109 1.289 . S
O112 Mg104 2.048 . S
O112 C105 1.195 . S
O113 Mg104 2.048 . S
O113 C114 1.195 . S
C114 O113 1.195 . S
C114 O115 1.313 . S
O115 C114 1.313 . S
O116 Mg104 2.141 . S
O116 C107 1.289 . S
Mg117 O124 2.141 . S
Mg117 O125 2.048 . S
Mg117 O126 2.048 . S
Mg117 O129 2.141 . S
C118 O119 1.313 . S
C118 O125 1.195 . S
O119 C118 1.313 . S
C120 O121 1.245 . S
C120 O129 1.289 . S
O121 C120 1.245 . S
C122 O123 1.245 . S
C122 O124 1.289 . S
O123 C122 1.245 . S
O124 Mg117 2.141 . S
O124 C122 1.289 . S
O125 Mg117 2.048 . S
O125 C118 1.195 . S
O126 Mg117 2.048 . S
O126 C127 1.195 . S
C127 O126 1.195 . S
C127 O128 1.313 . S
O128 C127 1.313 . S
O129 Mg117 2.141 . S
O129 C120 1.289 . S
Mg130 O137 2.141 . S
Mg130 O138 2.048 . S
Mg130 O139 2.048 . S
Mg130 O142 2.141 . S
C131 O132 1.313 . S
C131 O138 1.195 . S
O132 C131 1.313 . S
C133 O134 1.245 . S
C133 O142 1.289 . S
O134 C133 1.245 . S
C135 O136 1.245 . S
C135 O137 1.289 . S
O136 C135 1.245 . S
O137 Mg130 2.141 . S
O137 C135 1.289 . S
O138 Mg130 2.048 . S
O138 C131 1.195 . S
O139 Mg130 2.048 . S
O139 C140 1.195 . S
C140 O139 1.195 . S
C140 O141 1.313 . S
O141 C140 1.313 . S
O142 Mg130 2.141 . S
O142 C133 1.289 . S
Mg143 O150 2.141 . S
Mg143 O151 2.048 . S
Mg143 O152 2.048 . S
Mg143 O155 2.141 . S
C144 O145 1.313 . S
C144 O151 1.195 . S
O145 C144 1.313 . S
C146 O147 1.245 . S
C146 O155 1.289 . S
O147 C146 1.245 . S
C148 O149 1.245 . S
C148 O150 1.289 . S
O149 C148 1.245 . S
O150 Mg143 2.141 . S
O150 C148 1.289 . S
O151 Mg143 2.048 . S
O151 C144 1.195 . S
O152 Mg143 2.048 . S
O152 C153 1.195 . S
C153 O152 1.195 . S
C153 O154 1.313 . S
O154 C153 1.313 . S
O155 Mg143 2.141 . S
O155 C146 1.289 . S
Mg156 O163 2.141 . S
Mg156 O164 2.048 . S
Mg156 O165 2.048 . S
Mg156 O168 2.141 . S
C157 O158 1.313 1_556 S
C157 O164 1.195 . S
O158 C157 1.313 1_554 S
C159 O160 1.245 . S
C159 O168 1.289 . S
O160 C159 1.245 . S
C161 O162 1.245 . S
C161 O163 1.289 . S
O162 C161 1.245 . S
O163 Mg156 2.141 . S
O163 C161 1.289 . S
O164 Mg156 2.048 . S
O164 C157 1.195 . S
O165 Mg156 2.048 . S
O165 C166 1.195 . S
C166 O165 1.195 . S
C166 O167 1.313 1_556 S
O167 C166 1.313 1_554 S
O168 Mg156 2.141 . S
O168 C159 1.289 . S
Mg169 O176 2.141 . S
Mg169 O177 2.048 . S
Mg169 O178 2.048 . S
Mg169 O181 2.141 . S
C170 O171 1.313 . S
C170 O177 1.195 . S
O171 C170 1.313 . S
C172 O173 1.245 . S
C172 O181 1.289 . S
O173 C172 1.245 . S
C174 O175 1.245 . S
C174 O176 1.289 . S
O175 C174 1.245 . S
O176 Mg169 2.141 . S
O176 C174 1.289 . S
O177 Mg169 2.048 . S
O177 C170 1.195 . S
O178 Mg169 2.048 . S
O178 C179 1.195 . S
C179 O178 1.195 . S
C179 O180 1.313 . S
O180 C179 1.313 . S
O181 Mg169 2.141 . S
O181 C172 1.289 . S
Mg182 O189 2.141 . S
Mg182 O190 2.048 . S
Mg182 O191 2.048 . S
Mg182 O194 2.141 . S
C183 O184 1.313 . S
C183 O190 1.195 . S
O184 C183 1.313 . S
C185 O186 1.245 . S
C185 O194 1.289 . S
O186 C185 1.245 . S
C187 O188 1.245 . S
C187 O189 1.289 . S
O188 C187 1.245 . S
O189 Mg182 2.141 . S
O189 C187 1.289 . S
O190 Mg182 2.048 . S
O190 C183 1.195 . S
O191 Mg182 2.048 . S
O191 C192 1.195 . S
C192 O191 1.195 . S
C192 O193 1.313 . S
O193 C192 1.313 . S
O194 Mg182 2.141 . S
O194 C185 1.289 . S
Mg195 O202 2.141 . S
Mg195 O203 2.048 . S
Mg195 O204 2.048 . S
Mg195 O207 2.141 . S
C196 O197 1.313 . S
C196 O203 1.195 . S
O197 C196 1.313 . S
C198 O199 1.245 . S
C198 O207 1.289 . S
O199 C198 1.245 . S
C200 O201 1.245 . S
C200 O202 1.289 . S
O201 C200 1.245 . S
O202 Mg195 2.141 . S
O202 C200 1.289 . S
O203 Mg195 2.048 . S
O203 C196 1.195 . S
O204 Mg195 2.048 . S
O204 C205 1.195 . S
C205 O204 1.195 . S
C205 O206 1.313 . S
O206 C205 1.313 . S
O207 Mg195 2.141 . S
O207 C198 1.289 . S
Mg208 O215 2.141 . S
Mg208 O216 2.048 . S
Mg208 O217 2.048 . S
Mg208 O220 2.141 . S
C209 O210 1.313 . S
C209 O216 1.195 . S
O210 C209 1.313 . S
C211 O212 1.245 . S
C211 O220 1.289 . S
O212 C211 1.245 . S
C213 O214 1.245 . S
C213 O215 1.289 . S
O214 C213 1.245 . S
O215 Mg208 2.141 . S
O215 C213 1.289 . S
O216 Mg208 2.048 . S
O216 C209 1.195 . S
O217 Mg208 2.048 . S
O217 C218 1.195 . S
C218 O217 1.195 . S
C218 O219 1.313 . S
O219 C218 1.313 . S
O220 Mg208 2.141 . S
O220 C211 1.289 . S
Mg221 O228 2.141 . S
Mg221 O229 2.048 . S
Mg221 O230 2.048 . S
Mg221 O233 2.141 . S
C222 O223 1.313 . S
C222 O229 1.195 . S
O223 C222 1.313 . S
C224 O225 1.245 . S
C224 O233 1.289 . S
O225 C224 1.245 . S
C226 O227 1.245 . S
C226 O228 1.289 . S
O227 C226 1.245 . S
O228 Mg221 2.141 . S
O228 C226 1.289 . S
O229 Mg221 2.048 . S
O229 C222 1.195 . S
O230 Mg221 2.048 . S
O230 C231 1.195 . S
C231 O230 1.195 . S
C231 O232 1.313 . S
O232 C231 1.313 . S
O233 Mg221 2.141 . S
O233 C224 1.289 . S
C234 C235 1.349 . S
C234 C236 1.327 . S
C234 H259 0.950 . S
C235 C234 1.349 . S
C235 C251 1.349 . S
C236 C234 1.327 . S
C236 C255 1.429 . S
C236 H260 0.950 . S
C237 C254 1.574 . S
C237 C256 1.368 1_554 S
C237 H261 0.949 . S
H238 C242 0.949 . S
C239 C240 1.349 . S
C239 C241 1.327 . S
C239 H262 0.950 . S
C240 C239 1.349 . S
C240 C252 1.349 . S
C241 C239 1.327 . S
C241 C257 1.429 . S
C241 H263 0.950 . S
C242 H238 0.949 . S
C242 C250 1.574 . S
C242 C258 1.368 1_556 S
H243 C251 0.950 . S
H244 C249 0.950 . S
H245 C250 0.949 . S
H246 C252 0.950 . S
H247 C253 0.950 . S
H248 C254 0.949 . S
C249 H244 0.950 . S
C249 C251 1.327 . S
C249 C255 1.429 . S
C250 C242 1.574 . S
C250 H245 0.949 . S
C250 C256 1.368 . S
C251 C235 1.349 . S
C251 H243 0.950 . S
C251 C249 1.327 . S
C252 C240 1.349 . S
C252 H246 0.950 . S
C252 C253 1.327 . S
C253 H247 0.950 . S
C253 C252 1.327 . S
C253 C257 1.429 . S
C254 C237 1.574 . S
C254 H248 0.949 . S
C254 C258 1.368 . S
C255 C236 1.429 . S
C255 C249 1.429 . S
C255 C256 1.523 . S
C256 C237 1.368 1_556 S
C256 C250 1.368 . S
C256 C255 1.523 . S
C257 C241 1.429 . S
C257 C253 1.429 . S
C257 C258 1.523 . S
C258 C242 1.368 1_554 S
C258 C254 1.368 . S
C258 C257 1.523 . S
H259 C234 0.950 . S
H260 C236 0.950 . S
H261 C237 0.949 . S
H262 C239 0.950 . S
H263 C241 0.950 . S
C264 C265 1.349 . S
C264 C266 1.327 . S
C264 H289 0.950 . S
C265 C264 1.349 . S
C265 C281 1.349 . S
C266 C264 1.327 . S
C266 C285 1.429 . S
C266 H290 0.950 . S
C267 C284 1.574 1_556 S
C267 C286 1.368 . S
C267 H291 0.949 . S
H268 C272 0.949 . S
C269 C270 1.349 . S
C269 C271 1.327 . S
C269 H292 0.950 . S
C270 C269 1.349 . S
C270 C282 1.349 . S
C271 C269 1.327 . S
C271 C287 1.429 . S
C271 H293 0.950 . S
C272 H268 0.949 . S
C272 C280 1.574 . S
C272 C288 1.368 . S
H273 C281 0.950 . S
H274 C279 0.950 . S
H275 C280 0.950 . S
H276 C282 0.950 . S
H277 C283 0.950 . S
H278 C284 0.949 . S
C279 H274 0.950 . S
C279 C281 1.327 . S
C279 C285 1.429 . S
C280 C272 1.574 . S
C280 H275 0.950 . S
C280 C286 1.368 1_554 S
C281 C265 1.349 . S
C281 H273 0.950 . S
C281 C279 1.327 . S
C282 C270 1.349 . S
C282 H276 0.950 . S
C282 C283 1.327 . S
C283 H277 0.950 . S
C283 C282 1.327 . S
C283 C287 1.429 . S
C284 C267 1.574 1_554 S
C284 H278 0.949 . S
C284 C288 1.368 . S
C285 C266 1.429 . S
C285 C279 1.429 . S
C285 C286 1.523 . S
C286 C267 1.368 . S
C286 C280 1.368 1_556 S
C286 C285 1.523 . S
C287 C271 1.429 . S
C287 C283 1.429 . S
C287 C288 1.523 . S
C288 C272 1.368 . S
C288 C284 1.368 . S
C288 C287 1.523 . S
H289 C264 0.950 . S
H290 C266 0.950 . S
H291 C267 0.949 . S
H292 C269 0.950 . S
H293 C271 0.950 . S
C294 C295 1.349 . S
C294 C296 1.327 . S
C294 H319 0.950 . S
C295 C294 1.349 . S
C295 C311 1.349 . S
C296 C294 1.327 . S
C296 C315 1.429 . S
C296 H320 0.950 . S
C297 C314 1.574 1_554 S
C297 C316 1.368 . S
C297 H321 0.949 . S
H298 C302 0.949 1_556 S
C299 C300 1.349 . S
C299 C301 1.327 . S
C299 H322 0.950 . S
C300 C299 1.349 . S
C300 C312 1.349 . S
C301 C299 1.327 . S
C301 C317 1.429 . S
C301 H323 0.950 . S
C302 H298 0.949 1_554 S
C302 C310 1.585 . S
C302 C318 1.357 1_554 S
H303 C311 0.950 . S
H304 C309 0.950 . S
H305 C310 0.949 . S
H306 C312 0.950 . S
H307 C313 0.950 . S
H308 C314 0.949 . S
C309 H304 0.950 . S
C309 C311 1.327 . S
C309 C315 1.429 . S
C310 C302 1.585 . S
C310 H305 0.949 . S
C310 C316 1.368 . S
C311 C295 1.349 . S
C311 H303 0.950 . S
C311 C309 1.327 . S
C312 C300 1.349 . S
C312 H306 0.950 . S
C312 C313 1.327 . S
C313 H307 0.950 . S
C313 C312 1.327 . S
C313 C317 1.429 . S
C314 C297 1.574 1_556 S
C314 H308 0.949 . S
C314 C318 1.368 . S
C315 C296 1.429 . S
C315 C309 1.429 . S
C315 C316 1.523 . S
C316 C297 1.368 . S
C316 C310 1.368 . S
C316 C315 1.523 . S
C317 C301 1.429 . S
C317 C313 1.429 . S
C317 C318 1.523 . S
C318 C302 1.357 1_556 S
C318 C314 1.368 . S
C318 C317 1.523 . S
H319 C294 0.950 . S
H320 C296 0.950 . S
H321 C297 0.949 . S
H322 C299 0.950 . S
H323 C301 0.950 . S
C324 C325 1.349 . S
C324 C326 1.327 . S
C324 H349 0.950 . S
C325 C324 1.349 . S
C325 C341 1.349 . S
C326 C324 1.327 . S
C326 C345 1.429 . S
C326 H350 0.950 . S
C327 C344 1.574 . S
C327 C346 1.368 . S
C327 H351 0.949 . S
H328 C332 0.949 . S
C329 C330 1.349 . S
C329 C331 1.327 . S
C329 H352 0.950 . S
C330 C329 1.349 . S
C330 C342 1.349 . S
C331 C329 1.327 . S
C331 C347 1.429 . S
C331 H353 0.950 . S
C332 H328 0.949 . S
C332 C340 1.574 . S
C332 C348 1.368 . S
H333 C341 0.950 . S
H334 C339 0.950 . S
H335 C340 0.949 . S
H336 C342 0.950 . S
H337 C343 0.950 . S
H338 C344 0.949 . S
C339 H334 0.950 . S
C339 C341 1.327 . S
C339 C345 1.429 . S
C340 C332 1.574 . S
C340 H335 0.949 . S
C340 C346 1.368 . S
C341 C325 1.349 . S
C341 H333 0.950 . S
C341 C339 1.327 . S
C342 C330 1.349 . S
C342 H336 0.950 . S
C342 C343 1.327 . S
C343 H337 0.950 . S
C343 C342 1.327 . S
C343 C347 1.429 . S
C344 C327 1.574 . S
C344 H338 0.949 . S
C344 C348 1.368 . S
C345 C326 1.429 . S
C345 C339 1.429 . S
C345 C346 1.523 . S
C346 C327 1.368 . S
C346 C340 1.368 . S
C346 C345 1.523 . S
C347 C331 1.429 . S
C347 C343 1.429 . S
C347 C348 1.523 . S
C348 C332 1.368 . S
C348 C344 1.368 . S
C348 C347 1.523 . S
H349 C324 0.950 . S
H350 C326 0.950 . S
H351 C327 0.949 . S
H352 C329 0.950 . S
H353 C331 0.950 . S
C354 C355 1.349 . S
C354 C356 1.327 . S
C354 H379 0.950 . S
C355 C354 1.349 . S
C355 C371 1.349 . S
C356 C354 1.327 . S
C356 C375 1.429 . S
C356 H380 0.950 . S
C357 C374 1.574 . S
C357 C376 1.368 . S
C357 H381 0.949 . S
H358 C362 0.949 . S
C359 C360 1.349 . S
C359 C361 1.327 . S
C359 H382 0.950 . S
C360 C359 1.349 . S
C360 C372 1.349 . S
C361 C359 1.327 . S
C361 C377 1.429 . S
C361 H383 0.950 . S
C362 H358 0.949 . S
C362 C370 1.574 . S
C362 C378 1.368 . S
H363 C371 0.950 . S
H364 C369 0.950 . S
H365 C370 0.949 . S
H366 C372 0.950 . S
H367 C373 0.950 . S
H368 C374 0.949 . S
C369 H364 0.950 . S
C369 C371 1.327 . S
C369 C375 1.429 . S
C370 C362 1.574 . S
C370 H365 0.949 . S
C370 C376 1.368 . S
C371 C355 1.349 . S
C371 H363 0.950 . S
C371 C369 1.327 . S
C372 C360 1.349 . S
C372 H366 0.950 . S
C372 C373 1.327 . S
C373 H367 0.950 . S
C373 C372 1.327 . S
C373 C377 1.429 . S
C374 C357 1.574 . S
C374 H368 0.949 . S
C374 C378 1.368 . S
C375 C356 1.429 . S
C375 C369 1.429 . S
C375 C376 1.523 . S
C376 C357 1.368 . S
C376 C370 1.368 . S
C376 C375 1.523 . S
C377 C361 1.429 . S
C377 C373 1.429 . S
C377 C378 1.523 . S
C378 C362 1.368 . S
C378 C374 1.368 . S
C378 C377 1.523 . S
H379 C354 0.950 . S
H380 C356 0.950 . S
H381 C357 0.949 . S
H382 C359 0.950 . S
H383 C361 0.950 . S
C384 C385 1.349 . S
C384 C386 1.327 . S
C384 H409 0.950 . S
C385 C384 1.349 . S
C385 C401 1.349 . S
C386 C384 1.327 . S
C386 C405 1.429 . S
C386 H410 0.950 . S
C387 C404 1.574 . S
C387 C406 1.368 . S
C387 H411 0.949 . S
H388 C392 0.949 . S
C389 C390 1.349 . S
C389 C391 1.327 . S
C389 H412 0.950 . S
C390 C389 1.349 . S
C390 C402 1.349 . S
C391 C389 1.327 . S
C391 C407 1.429 . S
C391 H413 0.950 . S
C392 H388 0.949 . S
C392 C400 1.574 . S
C392 C408 1.368 . S
H393 C401 0.950 . S
H394 C399 0.950 . S
H395 C400 0.949 . S
H396 C402 0.950 . S
H397 C403 0.950 . S
H398 C404 0.949 . S
C399 H394 0.950 . S
C399 C401 1.327 . S
C399 C405 1.429 . S
C400 C392 1.574 . S
C400 H395 0.949 . S
C400 C406 1.368 . S
C401 C385 1.349 . S
C401 H393 0.950 . S
C401 C399 1.327 . S
C402 C390 1.349 . S
C402 H396 0.950 . S
C402 C403 1.327 . S
C403 H397 0.950 . S
C403 C402 1.327 . S
C403 C407 1.429 . S
C404 C387 1.574 . S
C404 H398 0.949 . S
C404 C408 1.368 . S
C405 C386 1.429 . S
C405 C399 1.429 . S
C405 C406 1.523 . S
C406 C387 1.368 . S
C406 C400 1.368 . S
C406 C405 1.523 . S
C407 C391 1.429 . S
C407 C403 1.429 . S
C407 C408 1.523 . S
C408 C392 1.368 . S
C408 C404 1.368 . S
C408 C407 1.523 . S
H409 C384 0.950 . S
H410 C386 0.950 . S
H411 C387 0.949 . S
H412 C389 0.950 . S
H413 C391 0.950 . S
C414 C415 1.349 . S
C414 C416 1.327 . S
C414 H439 0.950 . S
C415 C414 1.349 . S
C415 C431 1.349 . S
C416 C414 1.327 . S
C416 C435 1.429 . S
C416 H440 0.950 . S
C417 C434 1.574 . S
C417 C436 1.368 . S
C417 H441 0.949 . S
H418 C422 0.949 . S
C419 C420 1.349 . S
C419 C421 1.327 . S
C419 H442 0.950 . S
C420 C419 1.349 . S
C420 C432 1.349 . S
C421 C419 1.327 . S
C421 C437 1.429 . S
C421 H443 0.950 . S
C422 H418 0.949 . S
C422 C430 1.574 . S
C422 C438 1.368 . S
H423 C431 0.950 . S
H424 C429 0.950 . S
H425 C430 0.949 . S
H426 C432 0.950 . S
H427 C433 0.950 . S
H428 C434 0.949 . S
C429 H424 0.950 . S
C429 C431 1.327 . S
C429 C435 1.429 . S
C430 C422 1.574 . S
C430 H425 0.949 . S
C430 C436 1.368 . S
C431 C415 1.349 . S
C431 H423 0.950 . S
C431 C429 1.327 . S
C432 C420 1.349 . S
C432 H426 0.950 . S
C432 C433 1.327 . S
C433 H427 0.950 . S
C433 C432 1.327 . S
C433 C437 1.429 . S
C434 C417 1.574 . S
C434 H428 0.949 . S
C434 C438 1.368 . S
C435 C416 1.429 . S
C435 C429 1.429 . S
C435 C436 1.523 . S
C436 C417 1.368 . S
C436 C430 1.368 . S
C436 C435 1.523 . S
C437 C421 1.429 . S
C437 C433 1.429 . S
C437 C438 1.523 . S
C438 C422 1.368 . S
C438 C434 1.368 . S
C438 C437 1.523 . S
H439 C414 0.950 . S
H440 C416 0.950 . S
H441 C417 0.949 . S
H442 C419 0.950 . S
H443 C421 0.950 . S
C444 C445 1.349 . S
C444 C446 1.327 . S
C444 H469 0.950 . S
C445 C444 1.349 . S
C445 C461 1.349 . S
C446 C444 1.327 . S
C446 C465 1.429 . S
C446 H470 0.950 . S
C447 C464 1.574 . S
C447 C466 1.368 . S
C447 H471 0.949 . S
H448 C452 0.949 . S
C449 C450 1.349 . S
C449 C451 1.327 . S
C449 H472 0.950 . S
C450 C449 1.349 . S
C450 C462 1.349 . S
C451 C449 1.327 . S
C451 C467 1.429 . S
C451 H473 0.950 . S
C452 H448 0.949 . S
C452 C460 1.574 . S
C452 C468 1.368 . S
H453 C461 0.950 . S
H454 C459 0.950 . S
H455 C460 0.949 . S
H456 C462 0.950 . S
H457 C463 0.950 . S
H458 C464 0.949 . S
C459 H454 0.950 . S
C459 C461 1.327 . S
C459 C465 1.429 . S
C460 C452 1.574 . S
C460 H455 0.949 . S
C460 C466 1.368 . S
C461 C445 1.349 . S
C461 H453 0.950 . S
C461 C459 1.327 . S
C462 C450 1.349 . S
C462 H456 0.950 . S
C462 C463 1.327 . S
C463 H457 0.950 . S
C463 C462 1.327 . S
C463 C467 1.429 . S
C464 C447 1.574 . S
C464 H458 0.949 . S
C464 C468 1.368 . S
C465 C446 1.429 . S
C465 C459 1.429 . S
C465 C466 1.523 . S
C466 C447 1.368 . S
C466 C460 1.368 . S
C466 C465 1.523 . S
C467 C451 1.429 . S
C467 C463 1.429 . S
C467 C468 1.523 . S
C468 C452 1.368 . S
C468 C464 1.368 . S
C468 C467 1.523 . S
H469 C444 0.950 . S
H470 C446 0.950 . S
H471 C447 0.949 . S
H472 C449 0.950 . S
H473 C451 0.950 . S
C474 C475 1.349 . S
C474 C476 1.327 . S
C474 H499 0.950 . S
C475 C474 1.349 . S
C475 C491 1.349 . S
C476 C474 1.327 . S
C476 C495 1.429 . S
C476 H500 0.950 . S
C477 C494 1.574 . S
C477 C496 1.368 . S
C477 H501 0.949 . S
H478 C482 0.949 . S
C479 C480 1.349 . S
C479 C481 1.327 . S
C479 H502 0.950 . S
C480 C479 1.349 . S
C480 C492 1.349 . S
C481 C479 1.327 . S
C481 C497 1.429 . S
C481 H503 0.950 . S
C482 H478 0.949 . S
C482 C490 1.574 . S
C482 C498 1.368 . S
H483 C491 0.950 . S
H484 C489 0.950 . S
H485 C490 0.949 . S
H486 C492 0.950 . S
H487 C493 0.950 . S
H488 C494 0.949 . S
C489 H484 0.950 . S
C489 C491 1.327 . S
C489 C495 1.429 . S
C490 C482 1.574 . S
C490 H485 0.949 . S
C490 C496 1.368 . S
C491 C475 1.349 . S
C491 H483 0.950 . S
C491 C489 1.327 . S
C492 C480 1.349 . S
C492 H486 0.950 . S
C492 C493 1.327 . S
C493 H487 0.950 . S
C493 C492 1.327 . S
C493 C497 1.429 . S
C494 C477 1.574 . S
C494 H488 0.949 . S
C494 C498 1.368 . S
C495 C476 1.429 . S
C495 C489 1.429 . S
C495 C496 1.523 . S
C496 C477 1.368 . S
C496 C490 1.368 . S
C496 C495 1.523 . S
C497 C481 1.429 . S
C497 C493 1.429 . S
C497 C498 1.523 . S
C498 C482 1.368 . S
C498 C494 1.368 . S
C498 C497 1.523 . S
H499 C474 0.950 . S
H500 C476 0.950 . S
H501 C477 0.949 . S
H502 C479 0.950 . S
H503 C481 0.950 . S
C504 C505 1.349 . S
C504 C506 1.327 . S
C504 H529 0.950 . S
C505 C504 1.349 . S
C505 C521 1.349 . S
C506 C504 1.327 . S
C506 C525 1.429 . S
C506 H530 0.950 . S
C507 C524 1.574 . S
C507 C526 1.368 . S
C507 H531 0.949 . S
H508 C512 0.949 . S
C509 C510 1.349 . S
C509 C511 1.327 . S
C509 H532 0.950 . S
C510 C509 1.349 . S
C510 C522 1.349 . S
C511 C509 1.327 . S
C511 C527 1.429 . S
C511 H533 0.950 . S
C512 H508 0.949 . S
C512 C520 1.574 . S
C512 C528 1.368 . S
H513 C521 0.950 . S
H514 C519 0.950 . S
H515 C520 0.949 . S
H516 C522 0.950 . S
H517 C523 0.950 . S
H518 C524 0.949 . S
C519 H514 0.950 . S
C519 C521 1.327 . S
C519 C525 1.429 . S
C520 C512 1.574 . S
C520 H515 0.949 . S
C520 C526 1.368 . S
C521 C505 1.349 . S
C521 H513 0.950 . S
C521 C519 1.327 . S
C522 C510 1.349 . S
C522 H516 0.950 . S
C522 C523 1.327 . S
C523 H517 0.950 . S
C523 C522 1.327 . S
C523 C527 1.429 . S
C524 C507 1.574 . S
C524 H518 0.949 . S
C524 C528 1.368 . S
C525 C506 1.429 . S
C525 C519 1.429 . S
C525 C526 1.523 . S
C526 C507 1.368 . S
C526 C520 1.368 . S
C526 C525 1.523 . S
C527 C511 1.429 . S
C527 C523 1.429 . S
C527 C528 1.523 . S
C528 C512 1.368 . S
C528 C524 1.368 . S
C528 C527 1.523 . S
H529 C504 0.950 . S
H530 C506 0.950 . S
H531 C507 0.949 . S
H532 C509 0.950 . S
H533 C511 0.950 . S
C534 C535 1.349 . S
C534 C536 1.327 . S
C534 H559 0.950 . S
C535 C534 1.349 . S
C535 C551 1.349 . S
C536 C534 1.327 . S
C536 C555 1.429 . S
C536 H560 0.950 . S
C537 C554 1.574 . S
C537 C556 1.368 . S
C537 H561 0.949 . S
H538 C542 0.949 . S
C539 C540 1.349 . S
C539 C541 1.327 . S
C539 H562 0.950 . S
C540 C539 1.349 . S
C540 C552 1.349 . S
C541 C539 1.327 . S
C541 C557 1.429 . S
C541 H563 0.950 . S
C542 H538 0.949 . S
C542 C550 1.574 . S
C542 C558 1.368 . S
H543 C551 0.950 . S
H544 C549 0.950 . S
H545 C550 0.949 . S
H546 C552 0.950 . S
H547 C553 0.950 . S
H548 C554 0.949 . S
C549 H544 0.950 . S
C549 C551 1.327 . S
C549 C555 1.429 . S
C550 C542 1.574 . S
C550 H545 0.949 . S
C550 C556 1.368 . S
C551 C535 1.349 . S
C551 H543 0.950 . S
C551 C549 1.327 . S
C552 C540 1.349 . S
C552 H546 0.950 . S
C552 C553 1.327 . S
C553 H547 0.950 . S
C553 C552 1.327 . S
C553 C557 1.429 . S
C554 C537 1.574 . S
C554 H548 0.949 . S
C554 C558 1.368 . S
C555 C536 1.429 . S
C555 C549 1.429 . S
C555 C556 1.523 . S
C556 C537 1.368 . S
C556 C550 1.368 . S
C556 C555 1.523 . S
C557 C541 1.429 . S
C557 C553 1.429 . S
C557 C558 1.523 . S
C558 C542 1.368 . S
C558 C554 1.368 . S
C558 C557 1.523 . S
H559 C534 0.950 . S
H560 C536 0.950 . S
H561 C537 0.949 . S
H562 C539 0.950 . S
H563 C541 0.950 . S
C564 C565 1.349 . S
C564 C566 1.327 . S
C564 H589 0.950 1_556 S
C565 C564 1.349 . S
C565 C581 1.349 . S
C566 C564 1.327 . S
C566 C585 1.429 . S
C566 H590 0.950 . S
C567 C584 1.574 . S
C567 C586 1.368 . S
C567 H591 0.949 . S
H568 C572 0.949 . S
C569 C570 1.349 . S
C569 C571 1.327 . S
C569 H592 0.950 . S
C570 C569 1.349 . S
C570 C582 1.349 . S
C571 C569 1.327 . S
C571 C587 1.429 . S
C571 H593 0.950 . S
C572 H568 0.949 . S
C572 C580 1.574 . S
C572 C588 1.368 . S
H573 C581 0.950 . S
H574 C579 0.950 . S
H575 C580 0.949 . S
H576 C582 0.950 . S
H577 C583 0.950 . S
H578 C584 0.949 . S
C579 H574 0.950 . S
C579 C581 1.327 . S
C579 C585 1.429 . S
C580 C572 1.574 . S
C580 H575 0.949 . S
C580 C586 1.368 . S
C581 C565 1.349 . S
C581 H573 0.950 . S
C581 C579 1.327 . S
C582 C570 1.349 . S
C582 H576 0.950 . S
C582 C583 1.327 . S
C583 H577 0.950 . S
C583 C582 1.327 . S
C583 C587 1.429 . S
C584 C567 1.574 . S
C584 H578 0.949 . S
C584 C588 1.368 . S
C585 C566 1.429 . S
C585 C579 1.429 . S
C585 C586 1.523 . S
C586 C567 1.368 . S
C586 C580 1.368 . S
C586 C585 1.523 . S
C587 C571 1.429 . S
C587 C583 1.429 . S
C587 C588 1.523 . S
C588 C572 1.368 . S
C588 C584 1.368 . S
C588 C587 1.523 . S
H589 C564 0.950 1_554 S
H590 C566 0.950 . S
H591 C567 0.949 . S
H592 C569 0.950 . S
H593 C571 0.950 . S
C594 C595 1.349 . S
C594 C596 1.327 . S
C594 H619 0.950 . S
C595 C594 1.349 . S
C595 C611 1.349 . S
C596 C594 1.327 . S
C596 C615 1.429 . S
C596 H620 0.950 . S
C597 C614 1.574 . S
C597 C616 1.368 . S
C597 H621 0.949 . S
H598 C602 0.949 . S
C599 C600 1.349 . S
C599 C601 1.327 . S
C599 H622 0.950 . S
C600 C599 1.349 . S
C600 C612 1.349 . S
C601 C599 1.327 . S
C601 C617 1.429 . S
C601 H623 0.950 . S
C602 H598 0.949 . S
C602 C610 1.574 . S
C602 C618 1.368 . S
H603 C611 0.950 . S
H604 C609 0.950 . S
H605 C610 0.949 . S
H606 C612 0.950 . S
H607 C613 0.950 . S
H608 C614 0.949 . S
C609 H604 0.950 . S
C609 C611 1.327 . S
C609 C615 1.429 . S
C610 C602 1.574 . S
C610 H605 0.949 . S
C610 C616 1.368 . S
C611 C595 1.349 . S
C611 H603 0.950 . S
C611 C609 1.327 . S
C612 C600 1.349 . S
C612 H606 0.950 . S
C612 C613 1.327 . S
C613 H607 0.950 . S
C613 C612 1.327 . S
C613 C617 1.429 . S
C614 C597 1.574 . S
C614 H608 0.949 . S
C614 C618 1.368 . S
C615 C596 1.429 . S
C615 C609 1.429 . S
C615 C616 1.523 . S
C616 C597 1.368 . S
C616 C610 1.368 . S
C616 C615 1.523 . S
C617 C601 1.429 . S
C617 C613 1.429 . S
C617 C618 1.523 . S
C618 C602 1.368 . S
C618 C614 1.368 . S
C618 C617 1.523 . S
H619 C594 0.950 . S
H620 C596 0.950 . S
H621 C597 0.949 . S
H622 C599 0.950 . S
H623 C601 0.950 . S
C624 C625 1.349 . S
C624 C626 1.327 . S
C624 H649 0.950 . S
C625 C624 1.349 . S
C625 C641 1.349 . S
C626 C624 1.327 . S
C626 C645 1.429 . S
C626 H650 0.950 . S
C627 C644 1.574 . S
C627 C646 1.368 . S
C627 H651 0.949 . S
H628 C632 0.949 . S
C629 C630 1.349 . S
C629 C631 1.327 . S
C629 H652 0.950 . S
C630 C629 1.349 . S
C630 C642 1.349 . S
C631 C629 1.327 . S
C631 C647 1.429 . S
C631 H653 0.950 . S
C632 H628 0.949 . S
C632 C640 1.574 . S
C632 C648 1.368 . S
H633 C641 0.950 . S
H634 C639 0.950 . S
H635 C640 0.949 . S
H636 C642 0.950 . S
H637 C643 0.950 . S
H638 C644 0.949 . S
C639 H634 0.950 . S
C639 C641 1.327 . S
C639 C645 1.429 . S
C640 C632 1.574 . S
C640 H635 0.949 . S
C640 C646 1.368 . S
C641 C625 1.349 . S
C641 H633 0.950 . S
C641 C639 1.327 . S
C642 C630 1.349 . S
C642 H636 0.950 . S
C642 C643 1.327 . S
C643 H637 0.950 . S
C643 C642 1.327 . S
C643 C647 1.429 . S
C644 C627 1.574 . S
C644 H638 0.949 . S
C644 C648 1.368 . S
C645 C626 1.429 . S
C645 C639 1.429 . S
C645 C646 1.523 . S
C646 C627 1.368 . S
C646 C640 1.368 . S
C646 C645 1.523 . S
C647 C631 1.429 . S
C647 C643 1.429 . S
C647 C648 1.523 . S
C648 C632 1.368 . S
C648 C644 1.368 . S
C648 C647 1.523 . S
H649 C624 0.950 . S
H650 C626 0.950 . S
H651 C627 0.949 . S
H652 C629 0.950 . S
H653 C631 0.950 . S
C654 C655 1.349 . S
C654 C656 1.327 . S
C654 H679 0.950 . S
C655 C654 1.349 . S
C655 C671 1.349 . S
C656 C654 1.327 . S
C656 C675 1.429 . S
C656 H680 0.950 . S
C657 C674 1.574 . S
C657 C676 1.368 . S
C657 H681 0.949 . S
H658 C662 0.949 . S
C659 C660 1.349 . S
C659 C661 1.327 . S
C659 H682 0.950 . S
C660 C659 1.349 . S
C660 C672 1.349 . S
C661 C659 1.327 . S
C661 C677 1.429 . S
C661 H683 0.950 . S
C662 H658 0.949 . S
C662 C670 1.574 . S
C662 C678 1.368 . S
H663 C671 0.950 . S
H664 C669 0.950 . S
H665 C670 0.949 . S
H666 C672 0.950 . S
H667 C673 0.950 . S
H668 C674 0.949 . S
C669 H664 0.950 . S
C669 C671 1.327 . S
C669 C675 1.429 . S
C670 C662 1.574 . S
C670 H665 0.949 . S
C670 C676 1.368 . S
C671 C655 1.349 . S
C671 H663 0.950 . S
C671 C669 1.327 . S
C672 C660 1.349 . S
C672 H666 0.950 . S
C672 C673 1.327 . S
C673 H667 0.950 . S
C673 C672 1.327 . S
C673 C677 1.429 . S
C674 C657 1.574 . S
C674 H668 0.949 . S
C674 C678 1.368 . S
C675 C656 1.429 . S
C675 C669 1.429 . S
C675 C676 1.523 . S
C676 C657 1.368 . S
C676 C670 1.368 . S
C676 C675 1.523 . S
C677 C661 1.429 . S
C677 C673 1.429 . S
C677 C678 1.523 . S
C678 C662 1.368 . S
C678 C674 1.368 . S
C678 C677 1.523 . S
H679 C654 0.950 . S
H680 C656 0.950 . S
H681 C657 0.949 . S
H682 C659 0.950 . S
H683 C661 0.950 . S
C684 C685 1.349 . S
C684 C686 1.327 . S
C684 H709 0.950 . S
C685 C684 1.349 . S
C685 C701 1.349 . S
C686 C684 1.327 . S
C686 C705 1.429 . S
C686 H710 0.950 . S
C687 C704 1.574 . S
C687 C706 1.368 . S
C687 H711 0.949 . S
H688 C692 0.949 . S
C689 C690 1.349 . S
C689 C691 1.327 . S
C689 H712 0.950 . S
C690 C689 1.349 . S
C690 C702 1.349 . S
C691 C689 1.327 . S
C691 C707 1.429 . S
C691 H713 0.950 . S
C692 H688 0.949 . S
C692 C700 1.574 . S
C692 C708 1.368 . S
H693 C701 0.950 . S
H694 C699 0.950 . S
H695 C700 0.949 . S
H696 C702 0.950 . S
H697 C703 0.950 . S
H698 C704 0.949 . S
C699 H694 0.950 . S
C699 C701 1.327 . S
C699 C705 1.429 . S
C700 C692 1.574 . S
C700 H695 0.949 . S
C700 C706 1.368 . S
C701 C685 1.349 . S
C701 H693 0.950 . S
C701 C699 1.327 . S
C702 C690 1.349 . S
C702 H696 0.950 . S
C702 C703 1.327 . S
C703 H697 0.950 . S
C703 C702 1.327 . S
C703 C707 1.429 . S
C704 C687 1.574 . S
C704 H698 0.949 . S
C704 C708 1.368 . S
C705 C686 1.429 . S
C705 C699 1.429 . S
C705 C706 1.523 . S
C706 C687 1.368 . S
C706 C700 1.368 . S
C706 C705 1.523 . S
C707 C691 1.429 . S
C707 C703 1.429 . S
C707 C708 1.523 . S
C708 C692 1.368 . S
C708 C704 1.368 . S
C708 C707 1.523 . S
H709 C684 0.950 . S
H710 C686 0.950 . S
H711 C687 0.949 . S
H712 C689 0.950 . S
H713 C691 0.950 . S
C714 C715 1.349 . S
C714 C716 1.327 . S
C714 H739 0.950 . S
C715 C714 1.349 . S
C715 C731 1.349 . S
C716 C714 1.327 . S
C716 C735 1.429 . S
C716 H740 0.950 . S
C717 C734 1.574 . S
C717 C736 1.368 . S
C717 H741 0.949 . S
H718 C722 0.949 . S
C719 C720 1.349 . S
C719 C721 1.327 . S
C719 H742 0.950 . S
C720 C719 1.349 . S
C720 C732 1.349 . S
C721 C719 1.327 . S
C721 C737 1.429 . S
C721 H743 0.950 . S
C722 H718 0.949 . S
C722 C730 1.574 . S
C722 C738 1.368 . S
H723 C731 0.950 . S
H724 C729 0.950 . S
H725 C730 0.949 . S
H726 C732 0.950 . S
H727 C733 0.950 . S
H728 C734 0.949 . S
C729 H724 0.950 . S
C729 C731 1.327 . S
C729 C735 1.429 . S
C730 C722 1.574 . S
C730 H725 0.949 . S
C730 C736 1.368 . S
C731 C715 1.349 . S
C731 H723 0.950 . S
C731 C729 1.327 . S
C732 C720 1.349 . S
C732 H726 0.950 . S
C732 C733 1.327 . S
C733 H727 0.950 . S
C733 C732 1.327 . S
C733 C737 1.429 . S
C734 C717 1.574 . S
C734 H728 0.949 . S
C734 C738 1.368 . S
C735 C716 1.429 . S
C735 C729 1.429 . S
C735 C736 1.523 . S
C736 C717 1.368 . S
C736 C730 1.368 . S
C736 C735 1.523 . S
C737 C721 1.429 . S
C737 C733 1.429 . S
C737 C738 1.523 . S
C738 C722 1.368 . S
C738 C734 1.368 . S
C738 C737 1.523 . S
H739 C714 0.950 . S
H740 C716 0.950 . S
H741 C717 0.949 . S
H742 C719 0.950 . S
H743 C721 0.950 . S
C744 C745 1.349 . S
C744 C746 1.327 . S
C744 H769 0.950 . S
C745 C744 1.349 . S
C745 C761 1.349 . S
C746 C744 1.327 . S
C746 C765 1.429 . S
C746 H770 0.950 . S
C747 C764 1.574 . S
C747 C766 1.368 . S
C747 H771 0.949 . S
H748 C752 0.949 . S
C749 C750 1.349 . S
C749 C751 1.327 . S
C749 H772 0.950 1_554 S
C750 C749 1.349 . S
C750 C762 1.349 . S
C751 C749 1.327 . S
C751 C767 1.429 . S
C751 H773 0.950 . S
C752 H748 0.949 . S
C752 C760 1.574 . S
C752 C768 1.368 . S
H753 C761 0.950 . S
H754 C759 0.950 . S
H755 C760 0.949 . S
H756 C762 0.950 . S
H757 C763 0.950 . S
H758 C764 0.949 . S
C759 H754 0.950 . S
C759 C761 1.327 . S
C759 C765 1.429 . S
C760 C752 1.574 . S
C760 H755 0.949 . S
C760 C766 1.368 . S
C761 C745 1.349 . S
C761 H753 0.950 . S
C761 C759 1.327 . S
C762 C750 1.349 . S
C762 H756 0.950 . S
C762 C763 1.327 . S
C763 H757 0.950 . S
C763 C762 1.327 . S
C763 C767 1.429 . S
C764 C747 1.574 . S
C764 H758 0.949 . S
C764 C768 1.368 . S
C765 C746 1.429 . S
C765 C759 1.429 . S
C765 C766 1.523 . S
C766 C747 1.368 . S
C766 C760 1.368 . S
C766 C765 1.523 . S
C767 C751 1.429 . S
C767 C763 1.429 . S
C767 C768 1.523 . S
C768 C752 1.368 . S
C768 C764 1.368 . S
C768 C767 1.523 . S
H769 C744 0.950 . S
H770 C746 0.950 . S
H771 C747 0.949 . S
H772 C749 0.950 1_556 S
H773 C751 0.950 . S
C774 C775 1.349 . S
C774 C776 1.327 . S
C774 H799 0.950 . S
C775 C774 1.349 . S
C775 C791 1.349 . S
C776 C774 1.327 . S
C776 C795 1.429 . S
C776 H800 0.950 . S
C777 C794 1.574 . S
C777 C796 1.368 . S
C777 H801 0.949 . S
H778 C782 0.949 . S
C779 C780 1.349 . S
C779 C781 1.327 . S
C779 H802 0.950 . S
C780 C779 1.349 . S
C780 C792 1.349 . S
C781 C779 1.327 . S
C781 C797 1.429 . S
C781 H803 0.950 . S
C782 H778 0.949 . S
C782 C790 1.574 . S
C782 C798 1.368 . S
H783 C791 0.950 . S
H784 C789 0.950 . S
H785 C790 0.949 . S
H786 C792 0.950 . S
H787 C793 0.950 . S
H788 C794 0.949 . S
C789 H784 0.950 . S
C789 C791 1.327 . S
C789 C795 1.429 . S
C790 C782 1.574 . S
C790 H785 0.949 . S
C790 C796 1.368 . S
C791 C775 1.349 . S
C791 H783 0.950 . S
C791 C789 1.327 . S
C792 C780 1.349 . S
C792 H786 0.950 . S
C792 C793 1.327 . S
C793 H787 0.950 . S
C793 C792 1.327 . S
C793 C797 1.429 . S
C794 C777 1.574 . S
C794 H788 0.949 . S
C794 C798 1.368 . S
C795 C776 1.429 . S
C795 C789 1.429 . S
C795 C796 1.523 . S
C796 C777 1.368 . S
C796 C790 1.368 . S
C796 C795 1.523 . S
C797 C781 1.429 . S
C797 C793 1.429 . S
C797 C798 1.523 . S
C798 C782 1.368 . S
C798 C794 1.368 . S
C798 C797 1.523 . S
H799 C774 0.950 . S
H800 C776 0.950 . S
H801 C777 0.949 . S
H802 C779 0.950 . S
H803 C781 0.950 . S
C804 C805 1.349 . S
C804 C806 1.327 . S
C804 H829 0.950 . S
C805 C804 1.349 . S
C805 C821 1.349 . S
C806 C804 1.327 . S
C806 C825 1.429 . S
C806 H830 0.950 . S
C807 C824 1.574 . S
C807 C826 1.368 . S
C807 H831 0.949 . S
H808 C812 0.949 . S
C809 C810 1.349 . S
C809 C811 1.327 . S
C809 H832 0.950 . S
C810 C809 1.349 . S
C810 C822 1.349 . S
C811 C809 1.327 . S
C811 C827 1.429 . S
C811 H833 0.950 . S
C812 H808 0.949 . S
C812 C820 1.574 . S
C812 C828 1.368 . S
H813 C821 0.950 . S
H814 C819 0.950 . S
H815 C820 0.949 . S
H816 C822 0.950 . S
H817 C823 0.950 . S
H818 C824 0.949 . S
C819 H814 0.950 . S
C819 C821 1.327 . S
C819 C825 1.429 . S
C820 C812 1.574 . S
C820 H815 0.949 . S
C820 C826 1.368 . S
C821 C805 1.349 . S
C821 H813 0.950 . S
C821 C819 1.327 . S
C822 C810 1.349 . S
C822 H816 0.950 . S
C822 C823 1.327 . S
C823 H817 0.950 . S
C823 C822 1.327 . S
C823 C827 1.429 . S
C824 C807 1.574 . S
C824 H818 0.949 . S
C824 C828 1.368 . S
C825 C806 1.429 . S
C825 C819 1.429 . S
C825 C826 1.523 . S
C826 C807 1.368 . S
C826 C820 1.368 . S
C826 C825 1.523 . S
C827 C811 1.429 . S
C827 C823 1.429 . S
C827 C828 1.523 . S
C828 C812 1.368 . S
C828 C824 1.368 . S
C828 C827 1.523 . S
H829 C804 0.950 . S
H830 C806 0.950 . S
H831 C807 0.949 . S
H832 C809 0.950 . S
H833 C811 0.950 . S
C834 C835 1.349 . S
C834 C836 1.327 . S
C834 H859 0.950 . S
C835 C834 1.349 . S
C835 C851 1.349 1_565 S
C836 C834 1.327 . S
C836 C855 1.429 1_565 S
C836 H860 0.950 . S
C837 C854 1.574 . S
C837 C856 1.368 . S
C837 H861 0.949 . S
H838 C842 0.949 . S
C839 C840 1.349 . S
C839 C841 1.327 . S
C839 H862 0.950 . S
C840 C839 1.349 . S
C840 C852 1.349 . S
C841 C839 1.327 . S
C841 C857 1.429 . S
C841 H863 0.950 . S
C842 H838 0.949 . S
C842 C850 1.574 . S
C842 C858 1.368 . S
H843 C851 0.950 . S
H844 C849 0.950 . S
H845 C850 0.949 1_565 S
H846 C852 0.950 . S
H847 C853 0.950 . S
H848 C854 0.949 . S
C849 H844 0.950 . S
C849 C851 1.327 . S
C849 C855 1.429 . S
C850 C842 1.574 . S
C850 H845 0.949 1_545 S
C850 C856 1.368 . S
C851 C835 1.349 1_545 S
C851 H843 0.950 . S
C851 C849 1.327 . S
C852 C840 1.349 . S
C852 H846 0.950 . S
C852 C853 1.327 . S
C853 H847 0.950 . S
C853 C852 1.327 . S
C853 C857 1.429 . S
C854 C837 1.574 . S
C854 H848 0.949 . S
C854 C858 1.368 . S
C855 C836 1.429 1_545 S
C855 C849 1.429 . S
C855 C856 1.523 . S
C856 C837 1.368 . S
C856 C850 1.368 . S
C856 C855 1.523 . S
C857 C841 1.429 . S
C857 C853 1.429 . S
C857 C858 1.523 . S
C858 C842 1.368 . S
C858 C854 1.368 . S
C858 C857 1.523 . S
H859 C834 0.950 . S
H860 C836 0.950 . S
H861 C837 0.949 . S
H862 C839 0.950 . S
H863 C841 0.950 . S
C864 C865 1.349 . S
C864 C866 1.327 . S
C864 H889 0.950 . S
C865 C864 1.349 . S
C865 C881 1.349 . S
C866 C864 1.327 . S
C866 C885 1.429 . S
C866 H890 0.950 . S
C867 C884 1.574 . S
C867 C886 1.368 . S
C867 H891 0.949 . S
H868 C872 0.949 . S
C869 C870 1.349 1_556 S
C869 C871 1.327 . S
C869 H892 0.950 . S
C870 C869 1.349 1_554 S
C870 C882 1.349 . S
C871 C869 1.327 . S
C871 C887 1.429 1_556 S
C871 H893 0.950 . S
C872 H868 0.949 . S
C872 C880 1.574 . S
C872 C888 1.368 . S
H873 C881 0.950 . S
H874 C879 0.950 . S
H875 C880 0.949 . S
H876 C882 0.950 . S
H877 C883 0.950 . S
H878 C884 0.949 . S
C879 H874 0.950 . S
C879 C881 1.327 . S
C879 C885 1.429 . S
C880 C872 1.574 . S
C880 H875 0.949 . S
C880 C886 1.368 . S
C881 C865 1.349 . S
C881 H873 0.950 . S
C881 C879 1.327 . S
C882 C870 1.349 . S
C882 H876 0.950 . S
C882 C883 1.327 . S
C883 H877 0.950 . S
C883 C882 1.327 . S
C883 C887 1.429 . S
C884 C867 1.574 . S
C884 H878 0.949 . S
C884 C888 1.368 . S
C885 C866 1.429 . S
C885 C879 1.429 . S
C885 C886 1.523 . S
C886 C867 1.368 . S
C886 C880 1.368 . S
C886 C885 1.523 . S
C887 C871 1.429 1_554 S
C887 C883 1.429 . S
C887 C888 1.523 . S
C888 C872 1.368 . S
C888 C884 1.368 . S
C888 C887 1.523 . S
H889 C864 0.950 . S
H890 C866 0.950 . S
H891 C867 0.949 . S
H892 C869 0.950 . S
H893 C871 0.950 . S
C894 C895 1.349 1_556 S
C894 C896 1.327 1_556 S
C894 H919 0.950 . S
C895 C894 1.349 1_554 S
C895 C911 1.349 . S
C896 C894 1.327 1_554 S
C896 C915 1.429 . S
C896 H920 0.950 1_554 S
C897 C914 1.574 . S
C897 C916 1.368 . S
C897 H921 0.949 . S
H898 C902 0.949 . S
C899 C900 1.349 . S
C899 C901 1.327 . S
C899 H922 0.950 . S
C900 C899 1.349 . S
C900 C912 1.349 . S
C901 C899 1.327 . S
C901 C917 1.429 1_455 S
C901 H923 0.950 . S
C902 H898 0.949 . S
C902 C910 1.574 . S
C902 C918 1.368 . S
H903 C911 0.950 . S
H904 C909 0.950 . S
H905 C910 0.949 . S
H906 C912 0.950 . S
H907 C913 0.950 . S
H908 C914 0.949 . S
C909 H904 0.950 . S
C909 C911 1.327 . S
C909 C915 1.429 . S
C910 C902 1.574 . S
C910 H905 0.949 . S
C910 C916 1.368 . S
C911 C895 1.349 . S
C911 H903 0.950 . S
C911 C909 1.327 . S
C912 C900 1.349 . S
C912 H906 0.950 . S
C912 C913 1.327 1_455 S
C913 H907 0.950 . S
C913 C912 1.327 1_655 S
C913 C917 1.429 . S
C914 C897 1.574 . S
C914 H908 0.949 . S
C914 C918 1.368 . S
C915 C896 1.429 . S
C915 C909 1.429 . S
C915 C916 1.523 . S
C916 C897 1.368 . S
C916 C910 1.368 . S
C916 C915 1.523 . S
C917 C901 1.429 1_655 S
C917 C913 1.429 . S
C917 C918 1.523 . S
C918 C902 1.368 . S
C918 C914 1.368 . S
C918 C917 1.523 . S
H919 C894 0.950 . S
H920 C896 0.950 1_556 S
H921 C897 0.949 . S
H922 C899 0.950 . S
H923 C901 0.950 . S
C924 C925 1.349 . S
C924 C926 1.327 . S
C924 H949 0.950 . S
C925 C924 1.349 . S
C925 C941 1.349 1_554 S
C926 C924 1.327 . S
C926 C945 1.429 . S
C926 H950 0.950 . S
C927 C944 1.574 . S
C927 C946 1.368 . S
C927 H951 0.949 . S
H928 C932 0.949 . S
C929 C930 1.349 . S
C929 C931 1.327 . S
C929 H952 0.950 . S
C930 C929 1.349 . S
C930 C942 1.349 . S
C931 C929 1.327 . S
C931 C947 1.429 . S
C931 H953 0.950 . S
C932 H928 0.949 . S
C932 C940 1.574 . S
C932 C948 1.368 . S
H933 C941 0.950 . S
H934 C939 0.950 . S
H935 C940 0.949 . S
H936 C942 0.950 . S
H937 C943 0.950 . S
H938 C944 0.949 . S
C939 H934 0.950 . S
C939 C941 1.327 1_554 S
C939 C945 1.429 . S
C940 C932 1.574 . S
C940 H935 0.949 . S
C940 C946 1.368 . S
C941 C925 1.349 1_556 S
C941 H933 0.950 . S
C941 C939 1.327 1_556 S
C942 C930 1.349 . S
C942 H936 0.950 . S
C942 C943 1.327 . S
C943 H937 0.950 . S
C943 C942 1.327 . S
C943 C947 1.429 . S
C944 C927 1.574 . S
C944 H938 0.949 . S
C944 C948 1.368 . S
C945 C926 1.429 . S
C945 C939 1.429 . S
C945 C946 1.523 . S
C946 C927 1.368 . S
C946 C940 1.368 . S
C946 C945 1.523 . S
C947 C931 1.429 . S
C947 C943 1.429 . S
C947 C948 1.523 . S
C948 C932 1.368 . S
C948 C944 1.368 . S
C948 C947 1.523 . S
H949 C924 0.950 . S
H950 C926 0.950 . S
H951 C927 0.949 . S
H952 C929 0.950 . S
H953 C931 0.950 . S
C954 C955 1.349 . S
C954 C956 1.327 . S
C954 H979 0.950 . S
C955 C954 1.349 . S
C955 C971 1.349 . S
C956 C954 1.327 . S
C956 C975 1.429 . S
C956 H980 0.950 . S
C957 C974 1.574 . S
C957 C976 1.368 . S
C957 H981 0.949 . S
H958 C962 0.949 . S
C959 C960 1.349 . S
C959 C961 1.327 . S
C959 H982 0.950 . S
C960 C959 1.349 . S
C960 C972 1.349 . S
C961 C959 1.327 . S
C961 C977 1.429 . S
C961 H983 0.950 . S
C962 H958 0.949 . S
C962 C970 1.574 . S
C962 C978 1.368 . S
H963 C971 0.950 . S
H964 C969 0.950 . S
H965 C970 0.949 . S
H966 C972 0.950 . S
H967 C973 0.950 1_655 S
H968 C974 0.953 1_455 S
C969 H964 0.950 . S
C969 C971 1.327 . S
C969 C975 1.429 . S
C970 C962 1.574 . S
C970 H965 0.949 . S
C970 C976 1.368 . S
C971 C955 1.349 . S
C971 H963 0.950 . S
C971 C969 1.327 . S
C972 C960 1.349 . S
C972 H966 0.950 . S
C972 C973 1.327 . S
C973 H967 0.950 1_455 S
C973 C972 1.327 . S
C973 C977 1.429 . S
C974 C957 1.574 . S
C974 H968 0.953 1_655 S
C974 C978 1.364 . S
C975 C956 1.429 . S
C975 C969 1.429 . S
C975 C976 1.523 . S
C976 C957 1.368 . S
C976 C970 1.368 . S
C976 C975 1.523 . S
C977 C961 1.429 . S
C977 C973 1.429 . S
C977 C978 1.523 1_455 S
C978 C962 1.368 . S
C978 C974 1.364 . S
C978 C977 1.523 1_655 S
H979 C954 0.950 . S
H980 C956 0.950 . S
H981 C957 0.949 . S
H982 C959 0.950 . S
H983 C961 0.950 . S
C984 C985 1.349 . S
C984 C986 1.327 . S
C984 H1009 0.950 . S
C985 C984 1.349 . S
C985 C1001 1.349 . S
C986 C984 1.327 . S
C986 C1005 1.429 . S
C986 H1010 0.950 . S
C987 C1004 1.574 . S
C987 C1006 1.368 . S
C987 H1011 0.949 . S
H988 C992 0.949 . S
C989 C990 1.349 . S
C989 C991 1.327 . S
C989 H1012 0.950 . S
C990 C989 1.349 . S
C990 C1002 1.349 . S
C991 C989 1.327 . S
C991 C1007 1.429 . S
C991 H1013 0.950 . S
C992 H988 0.949 . S
C992 C1000 1.574 . S
C992 C1008 1.368 . S
H993 C1001 0.950 . S
H994 C999 0.950 . S
H995 C1000 0.949 . S
H996 C1002 0.950 . S
H997 C1003 0.950 . S
H998 C1004 0.949 . S
C999 H994 0.950 . S
C999 C1001 1.327 . S
C999 C1005 1.429 . S
C1000 C992 1.574 . S
C1000 H995 0.949 . S
C1000 C1006 1.368 . S
C1001 C985 1.349 . S
C1001 H993 0.950 . S
C1001 C999 1.327 . S
C1002 C990 1.349 . S
C1002 H996 0.950 . S
C1002 C1003 1.327 . S
C1003 H997 0.950 . S
C1003 C1002 1.327 . S
C1003 C1007 1.429 . S
C1004 C987 1.574 . S
C1004 H998 0.949 . S
C1004 C1008 1.368 . S
C1005 C986 1.429 . S
C1005 C999 1.429 . S
C1005 C1006 1.523 . S
C1006 C987 1.368 . S
C1006 C1000 1.368 . S
C1006 C1005 1.523 . S
C1007 C991 1.429 . S
C1007 C1003 1.429 . S
C1007 C1008 1.523 . S
C1008 C992 1.368 . S
C1008 C1004 1.368 . S
C1008 C1007 1.523 . S
H1009 C984 0.950 . S
H1010 C986 0.950 . S
H1011 C987 0.949 . S
H1012 C989 0.950 . S
H1013 C991 0.950 . S
C1014 C1015 1.349 . S
C1014 C1016 1.327 . S
C1014 H1039 0.950 . S
C1015 C1014 1.349 . S
C1015 C1031 1.349 . S
C1016 C1014 1.327 . S
C1016 C1035 1.429 . S
C1016 H1040 0.950 . S
C1017 C1034 1.574 . S
C1017 C1036 1.368 . S
C1017 H1041 0.949 . S
H1018 C1022 0.949 . S
C1019 C1020 1.349 . S
C1019 C1021 1.327 . S
C1019 H1042 0.950 . S
C1020 C1019 1.349 . S
C1020 C1032 1.349 . S
C1021 C1019 1.327 . S
C1021 C1037 1.429 . S
C1021 H1043 0.950 . S
C1022 H1018 0.949 . S
C1022 C1030 1.574 . S
C1022 C1038 1.368 . S
H1023 C1031 0.950 . S
H1024 C1029 0.950 . S
H1025 C1030 0.949 . S
H1026 C1032 0.950 . S
H1027 C1033 0.950 . S
H1028 C1034 0.949 . S
C1029 H1024 0.950 . S
C1029 C1031 1.327 . S
C1029 C1035 1.429 . S
C1030 C1022 1.574 . S
C1030 H1025 0.949 . S
C1030 C1036 1.368 . S
C1031 C1015 1.349 . S
C1031 H1023 0.950 . S
C1031 C1029 1.327 . S
C1032 C1020 1.349 . S
C1032 H1026 0.950 . S
C1032 C1033 1.327 . S
C1033 H1027 0.950 . S
C1033 C1032 1.327 . S
C1033 C1037 1.429 . S
C1034 C1017 1.574 . S
C1034 H1028 0.949 . S
C1034 C1038 1.368 . S
C1035 C1016 1.429 . S
C1035 C1029 1.429 . S
C1035 C1036 1.523 . S
C1036 C1017 1.368 . S
C1036 C1030 1.368 . S
C1036 C1035 1.523 . S
C1037 C1021 1.429 . S
C1037 C1033 1.429 . S
C1037 C1038 1.523 . S
C1038 C1022 1.368 . S
C1038 C1034 1.368 . S
C1038 C1037 1.523 . S
H1039 C1014 0.950 . S
H1040 C1016 0.950 . S
H1041 C1017 0.949 . S
H1042 C1019 0.950 . S
H1043 C1021 0.950 . S
C1044 C1045 1.349 . S
C1044 C1046 1.327 . S
C1044 H1069 0.950 . S
C1045 C1044 1.349 . S
C1045 C1061 1.349 1_565 S
C1046 C1044 1.327 . S
C1046 C1065 1.429 1_565 S
C1046 H1070 0.950 . S
C1047 C1064 1.574 . S
C1047 C1066 1.368 . S
C1047 H1071 0.949 . S
H1048 C1052 0.949 . S
C1049 C1050 1.349 . S
C1049 C1051 1.327 . S
C1049 H1072 0.950 . S
C1050 C1049 1.349 . S
C1050 C1062 1.349 . S
C1051 C1049 1.327 . S
C1051 C1067 1.429 . S
C1051 H1073 0.950 . S
C1052 H1048 0.949 . S
C1052 C1060 1.574 . S
C1052 C1068 1.368 . S
H1053 C1061 0.950 . S
H1054 C1059 0.950 . S
H1055 C1060 0.957 . S
H1056 C1062 0.950 . S
H1057 C1063 0.950 . S
H1058 C1064 0.949 . S
C1059 H1054 0.950 . S
C1059 C1061 1.327 . S
C1059 C1065 1.429 . S
C1060 C1052 1.574 . S
C1060 H1055 0.957 . S
C1060 C1066 1.368 . S
C1061 C1045 1.349 1_545 S
C1061 H1053 0.950 . S
C1061 C1059 1.327 . S
C1062 C1050 1.349 . S
C1062 H1056 0.950 . S
C1062 C1063 1.327 . S
C1063 H1057 0.950 . S
C1063 C1062 1.327 . S
C1063 C1067 1.429 . S
C1064 C1047 1.574 . S
C1064 H1058 0.949 . S
C1064 C1068 1.368 . S
C1065 C1046 1.429 1_545 S
C1065 C1059 1.429 . S
C1065 C1066 1.523 . S
C1066 C1047 1.368 . S
C1066 C1060 1.368 . S
C1066 C1065 1.523 . S
C1067 C1051 1.429 . S
C1067 C1063 1.429 . S
C1067 C1068 1.523 . S
C1068 C1052 1.368 . S
C1068 C1064 1.368 . S
C1068 C1067 1.523 . S
H1069 C1044 0.950 . S
H1070 C1046 0.950 . S
H1071 C1047 0.949 . S
H1072 C1049 0.950 . S
H1073 C1051 0.950 . S
C1074 C1075 1.349 . S
C1074 C1076 1.327 . S
C1074 H1099 0.950 . S
C1075 C1074 1.349 . S
C1075 C1091 1.349 . S
C1076 C1074 1.327 . S
C1076 C1095 1.429 . S
C1076 H1100 0.950 . S
C1077 C1094 1.574 . S
C1077 C1096 1.368 . S
C1077 H1101 0.949 . S
H1078 C1082 0.949 . S
C1079 C1080 1.349 . S
C1079 C1081 1.327 . S
C1079 H1102 0.950 . S
C1080 C1079 1.349 . S
C1080 C1092 1.349 1_556 S
C1081 C1079 1.327 . S
C1081 C1097 1.429 . S
C1081 H1103 0.950 . S
C1082 H1078 0.949 . S
C1082 C1090 1.574 . S
C1082 C1098 1.368 . S
H1083 C1091 0.950 . S
H1084 C1089 0.950 . S
H1085 C1090 0.949 . S
H1086 C1092 0.950 . S
H1087 C1093 0.950 1_554 S
H1088 C1094 0.949 . S
C1089 H1084 0.950 . S
C1089 C1091 1.327 . S
C1089 C1095 1.429 . S
C1090 C1082 1.574 . S
C1090 H1085 0.949 . S
C1090 C1096 1.368 . S
C1091 C1075 1.349 . S
C1091 H1083 0.950 . S
C1091 C1089 1.327 . S
C1092 C1080 1.349 1_554 S
C1092 H1086 0.950 . S
C1092 C1093 1.327 1_554 S
C1093 H1087 0.950 1_556 S
C1093 C1092 1.327 1_556 S
C1093 C1097 1.429 . S
C1094 C1077 1.574 . S
C1094 H1088 0.949 . S
C1094 C1098 1.368 . S
C1095 C1076 1.429 . S
C1095 C1089 1.429 . S
C1095 C1096 1.523 . S
C1096 C1077 1.368 . S
C1096 C1090 1.368 . S
C1096 C1095 1.523 . S
C1097 C1081 1.429 . S
C1097 C1093 1.429 . S
C1097 C1098 1.523 . S
C1098 C1082 1.368 . S
C1098 C1094 1.368 . S
C1098 C1097 1.523 . S
H1099 C1074 0.950 . S
H1100 C1076 0.950 . S
H1101 C1077 0.949 . S
H1102 C1079 0.950 . S
H1103 C1081 0.950 . S
C1104 C1105 1.349 . S
C1104 C1106 1.327 . S
C1104 H1129 0.950 . S
C1105 C1104 1.349 . S
C1105 C1121 1.349 . S
C1106 C1104 1.327 . S
C1106 C1125 1.429 . S
C1106 H1130 0.950 . S
C1107 C1124 1.574 . S
C1107 C1126 1.368 . S
C1107 H1131 0.949 . S
H1108 C1112 0.949 . S
C1109 C1110 1.349 1_554 S
C1109 C1111 1.327 1_554 S
C1109 H1132 0.950 . S
C1110 C1109 1.349 1_556 S
C1110 C1122 1.349 . S
C1111 C1109 1.327 1_556 S
C1111 C1127 1.429 . S
C1111 H1133 0.950 . S
C1112 H1108 0.949 . S
C1112 C1120 1.574 . S
C1112 C1128 1.368 . S
H1113 C1121 0.950 . S
H1114 C1119 0.950 . S
H1115 C1120 0.949 . S
H1116 C1122 0.950 . S
H1117 C1123 0.950 . S
H1118 C1124 0.949 . S
C1119 H1114 0.950 . S
C1119 C1121 1.327 . S
C1119 C1125 1.429 . S
C1120 C1112 1.574 . S
C1120 H1115 0.949 . S
C1120 C1126 1.368 . S
C1121 C1105 1.349 . S
C1121 H1113 0.950 . S
C1121 C1119 1.327 . S
C1122 C1110 1.349 . S
C1122 H1116 0.950 . S
C1122 C1123 1.327 . S
C1123 H1117 0.950 . S
C1123 C1122 1.327 . S
C1123 C1127 1.429 . S
C1124 C1107 1.574 . S
C1124 H1118 0.949 . S
C1124 C1128 1.368 . S
C1125 C1106 1.429 . S
C1125 C1119 1.429 . S
C1125 C1126 1.523 . S
C1126 C1107 1.368 . S
C1126 C1120 1.368 . S
C1126 C1125 1.523 . S
C1127 C1111 1.429 . S
C1127 C1123 1.429 . S
C1127 C1128 1.523 . S
C1128 C1112 1.368 . S
C1128 C1124 1.368 . S
C1128 C1127 1.523 . S
H1129 C1104 0.950 . S
H1130 C1106 0.950 . S
H1131 C1107 0.949 . S
H1132 C1109 0.950 . S
H1133 C1111 0.950 . S
C1134 C1135 1.349 . S
C1134 C1136 1.327 . S
C1134 H1159 0.961 . S
C1135 C1134 1.349 . S
C1135 C1151 1.349 . S
C1136 C1134 1.327 . S
C1136 C1155 1.429 . S
C1136 H1160 0.950 . S
C1137 C1154 1.574 . S
C1137 C1156 1.368 . S
C1137 H1161 0.949 . S
H1138 C1142 0.949 . S
C1139 C1140 1.349 . S
C1139 C1141 1.327 . S
C1139 H1162 0.950 . S
C1140 C1139 1.349 . S
C1140 C1152 1.349 . S
C1141 C1139 1.327 . S
C1141 C1157 1.429 . S
C1141 H1163 0.950 . S
C1142 H1138 0.949 . S
C1142 C1150 1.574 . S
C1142 C1158 1.368 . S
H1143 C1151 0.950 . S
H1144 C1149 0.950 . S
H1145 C1150 0.949 . S
H1146 C1152 0.950 . S
H1147 C1153 0.950 . S
H1148 C1154 0.949 . S
C1149 H1144 0.950 . S
C1149 C1151 1.327 . S
C1149 C1155 1.429 . S
C1150 C1142 1.574 . S
C1150 H1145 0.949 . S
C1150 C1156 1.368 . S
C1151 C1135 1.349 . S
C1151 H1143 0.950 . S
C1151 C1149 1.327 . S
C1152 C1140 1.349 . S
C1152 H1146 0.950 . S
C1152 C1153 1.327 . S
C1153 H1147 0.950 . S
C1153 C1152 1.327 . S
C1153 C1157 1.429 . S
C1154 C1137 1.574 . S
C1154 H1148 0.949 . S
C1154 C1158 1.368 . S
C1155 C1136 1.429 . S
C1155 C1149 1.429 . S
C1155 C1156 1.523 . S
C1156 C1137 1.368 . S
C1156 C1150 1.368 . S
C1156 C1155 1.523 . S
C1157 C1141 1.429 . S
C1157 C1153 1.429 . S
C1157 C1158 1.523 . S
C1158 C1142 1.368 . S
C1158 C1154 1.368 . S
C1158 C1157 1.523 . S
H1159 C1134 0.961 . S
H1160 C1136 0.950 . S
H1161 C1137 0.949 . S
H1162 C1139 0.950 . S
H1163 C1141 0.950 . S
C1164 C1165 1.349 . S
C1164 C1166 1.327 . S
C1164 H1189 0.950 . S
C1165 C1164 1.349 . S
C1165 C1181 1.349 . S
C1166 C1164 1.327 . S
C1166 C1185 1.429 . S
C1166 H1190 0.950 . S
C1167 C1184 1.574 . S
C1167 C1186 1.368 . S
C1167 H1191 0.949 . S
H1168 C1172 0.949 . S
C1169 C1170 1.349 . S
C1169 C1171 1.327 . S
C1169 H1192 0.950 . S
C1170 C1169 1.349 . S
C1170 C1182 1.349 . S
C1171 C1169 1.327 . S
C1171 C1187 1.429 . S
C1171 H1193 0.950 . S
C1172 H1168 0.949 . S
C1172 C1180 1.574 . S
C1172 C1188 1.368 . S
H1173 C1181 0.950 . S
H1174 C1179 0.950 . S
H1175 C1180 0.949 . S
H1176 C1182 0.950 . S
H1177 C1183 0.950 . S
H1178 C1184 0.949 . S
C1179 H1174 0.950 . S
C1179 C1181 1.327 . S
C1179 C1185 1.429 . S
C1180 C1172 1.574 . S
C1180 H1175 0.949 . S
C1180 C1186 1.368 . S
C1181 C1165 1.349 . S
C1181 H1173 0.950 . S
C1181 C1179 1.327 . S
C1182 C1170 1.349 . S
C1182 H1176 0.950 . S
C1182 C1183 1.327 . S
C1183 H1177 0.950 . S
C1183 C1182 1.327 . S
C1183 C1187 1.429 . S
C1184 C1167 1.574 . S
C1184 H1178 0.949 . S
C1184 C1188 1.368 . S
C1185 C1166 1.429 . S
C1185 C1179 1.429 . S
C1185 C1186 1.523 . S
C1186 C1167 1.368 . S
C1186 C1180 1.368 . S
C1186 C1185 1.523 . S
C1187 C1171 1.429 . S
C1187 C1183 1.429 . S
C1187 C1188 1.523 1_655 S
C1188 C1172 1.368 . S
C1188 C1184 1.368 . S
C1188 C1187 1.523 1_455 S
H1189 C1164 0.950 . S
H1190 C1166 0.950 . S
H1191 C1167 0.949 . S
H1192 C1169 0.950 . S
H1193 C1171 0.950 . S
C1194 C1195 1.349 . S
C1194 C1196 1.327 . S
C1194 H1219 0.950 . S
C1195 C1194 1.349 . S
C1195 C1211 1.349 . S
C1196 C1194 1.327 . S
C1196 C1215 1.429 . S
C1196 H1220 0.950 . S
C1197 C1214 1.574 . S
C1197 C1216 1.368 . S
C1197 H1221 0.949 . S
H1198 C1202 0.949 . S
C1199 C1200 1.349 . S
C1199 C1201 1.327 . S
C1199 H1222 0.950 . S
C1200 C1199 1.349 . S
C1200 C1212 1.349 . S
C1201 C1199 1.327 . S
C1201 C1217 1.429 . S
C1201 H1223 0.950 . S
C1202 H1198 0.949 . S
C1202 C1210 1.574 . S
C1202 C1218 1.368 . S
H1203 C1211 0.950 . S
H1204 C1209 0.950 . S
H1205 C1210 0.949 . S
H1206 C1212 0.950 . S
H1207 C1213 0.950 . S
H1208 C1214 0.949 . S
C1209 H1204 0.950 . S
C1209 C1211 1.327 . S
C1209 C1215 1.429 . S
C1210 C1202 1.574 . S
C1210 H1205 0.949 . S
C1210 C1216 1.368 . S
C1211 C1195 1.349 . S
C1211 H1203 0.950 . S
C1211 C1209 1.327 . S
C1212 C1200 1.349 . S
C1212 H1206 0.950 . S
C1212 C1213 1.327 . S
C1213 H1207 0.950 . S
C1213 C1212 1.327 . S
C1213 C1217 1.429 . S
C1214 C1197 1.574 . S
C1214 H1208 0.949 . S
C1214 C1218 1.368 . S
C1215 C1196 1.429 . S
C1215 C1209 1.429 . S
C1215 C1216 1.523 . S
C1216 C1197 1.368 . S
C1216 C1210 1.368 . S
C1216 C1215 1.523 . S
C1217 C1201 1.429 . S
C1217 C1213 1.429 . S
C1217 C1218 1.523 . S
C1218 C1202 1.368 . S
C1218 C1214 1.368 . S
C1218 C1217 1.523 . S
H1219 C1194 0.950 . S
H1220 C1196 0.950 . S
H1221 C1197 0.949 . S
H1222 C1199 0.950 . S
H1223 C1201 0.950 . S
C1224 C1225 1.349 . S
C1224 C1226 1.327 . S
C1224 H1249 0.950 . S
C1225 C1224 1.349 . S
C1225 C1241 1.349 . S
C1226 C1224 1.327 . S
C1226 C1245 1.392 1_655 S
C1226 H1250 0.950 . S
C1227 C1244 1.574 . S
C1227 C1246 1.368 . S
C1227 H1251 0.949 . S
H1228 C1232 0.949 . S
C1229 C1230 1.349 . S
C1229 C1231 1.327 . S
C1229 H1252 0.950 . S
C1230 C1229 1.349 . S
C1230 C1242 1.349 . S
C1231 C1229 1.327 . S
C1231 C1247 1.429 . S
C1231 H1253 0.950 . S
C1232 H1228 0.949 . S
C1232 C1240 1.574 . S
C1232 C1248 1.368 . S
H1233 C1241 0.950 . S
H1234 C1239 0.950 1_455 S
H1235 C1240 0.949 . S
H1236 C1242 0.950 . S
H1237 C1243 0.950 . S
H1238 C1244 0.949 . S
C1239 H1234 0.950 1_655 S
C1239 C1241 1.327 . S
C1239 C1245 1.419 1_655 S
C1240 C1232 1.574 . S
C1240 H1235 0.949 . S
C1240 C1246 1.368 . S
C1241 C1225 1.349 . S
C1241 H1233 0.950 . S
C1241 C1239 1.327 . S
C1242 C1230 1.349 . S
C1242 H1236 0.950 . S
C1242 C1243 1.327 . S
C1243 H1237 0.950 . S
C1243 C1242 1.327 . S
C1243 C1247 1.429 . S
C1244 C1227 1.574 . S
C1244 H1238 0.949 . S
C1244 C1248 1.368 . S
C1245 C1226 1.392 1_455 S
C1245 C1239 1.419 1_455 S
C1245 C1246 1.567 . S
C1246 C1227 1.368 . S
C1246 C1240 1.368 . S
C1246 C1245 1.567 . S
C1247 C1231 1.429 . S
C1247 C1243 1.429 . S
C1247 C1248 1.523 . S
C1248 C1232 1.368 . S
C1248 C1244 1.368 . S
C1248 C1247 1.523 . S
H1249 C1224 0.950 . S
H1250 C1226 0.950 . S
H1251 C1227 0.949 . S
H1252 C1229 0.950 . S
H1253 C1231 0.950 . S
C1254 C1255 1.349 . S
C1254 C1256 1.327 . S
C1254 H1279 0.950 . S
C1255 C1254 1.349 . S
C1255 C1271 1.349 . S
C1256 C1254 1.327 . S
C1256 C1275 1.429 . S
C1256 H1280 0.950 . S
C1257 C1274 1.574 . S
C1257 C1276 1.368 . S
C1257 H1281 0.949 . S
H1258 C1262 0.949 . S
C1259 C1260 1.349 . S
C1259 C1261 1.327 . S
C1259 H1282 0.950 . S
C1260 C1259 1.349 . S
C1260 C1272 1.349 . S
C1261 C1259 1.327 . S
C1261 C1277 1.429 . S
C1261 H1283 0.950 . S
C1262 H1258 0.949 . S
C1262 C1270 1.574 . S
C1262 C1278 1.368 . S
H1263 C1271 0.950 . S
H1264 C1269 0.950 . S
H1265 C1270 0.949 . S
H1266 C1272 0.950 . S
H1267 C1273 0.950 . S
H1268 C1274 0.949 . S
C1269 H1264 0.950 . S
C1269 C1271 1.327 . S
C1269 C1275 1.429 . S
C1270 C1262 1.574 . S
C1270 H1265 0.949 . S
C1270 C1276 1.368 . S
C1271 C1255 1.349 . S
C1271 H1263 0.950 . S
C1271 C1269 1.327 . S
C1272 C1260 1.349 . S
C1272 H1266 0.950 . S
C1272 C1273 1.327 . S
C1273 H1267 0.950 . S
C1273 C1272 1.327 . S
C1273 C1277 1.429 . S
C1274 C1257 1.574 . S
C1274 H1268 0.949 . S
C1274 C1278 1.368 . S
C1275 C1256 1.429 . S
C1275 C1269 1.429 . S
C1275 C1276 1.523 . S
C1276 C1257 1.368 . S
C1276 C1270 1.368 . S
C1276 C1275 1.523 . S
C1277 C1261 1.429 . S
C1277 C1273 1.429 . S
C1277 C1278 1.523 . S
C1278 C1262 1.368 . S
C1278 C1274 1.368 . S
C1278 C1277 1.523 . S
H1279 C1254 0.950 . S
H1280 C1256 0.950 . S
H1281 C1257 0.949 . S
H1282 C1259 0.950 . S
H1283 C1261 0.950 . S
C1284 C1285 1.349 . S
C1284 C1286 1.327 . S
C1284 H1309 0.950 . S
C1285 C1284 1.349 . S
C1285 C1301 1.349 . S
C1286 C1284 1.327 . S
C1286 C1305 1.429 . S
C1286 H1310 0.950 . S
C1287 C1304 1.574 . S
C1287 C1306 1.368 . S
C1287 H1311 0.949 . S
H1288 C1292 0.949 . S
C1289 C1290 1.349 . S
C1289 C1291 1.327 . S
C1289 H1312 0.950 . S
C1290 C1289 1.349 . S
C1290 C1302 1.349 . S
C1291 C1289 1.327 . S
C1291 C1307 1.429 . S
C1291 H1313 0.950 . S
C1292 H1288 0.949 . S
C1292 C1300 1.574 . S
C1292 C1308 1.368 . S
H1293 C1301 0.950 . S
H1294 C1299 0.950 . S
H1295 C1300 0.949 . S
H1296 C1302 0.950 . S
H1297 C1303 0.950 . S
H1298 C1304 0.949 . S
C1299 H1294 0.950 . S
C1299 C1301 1.327 . S
C1299 C1305 1.429 . S
C1300 C1292 1.574 . S
C1300 H1295 0.949 . S
C1300 C1306 1.368 . S
C1301 C1285 1.349 . S
C1301 H1293 0.950 . S
C1301 C1299 1.327 . S
C1302 C1290 1.349 . S
C1302 H1296 0.950 . S
C1302 C1303 1.327 . S
C1303 H1297 0.950 . S
C1303 C1302 1.327 . S
C1303 C1307 1.429 . S
C1304 C1287 1.574 . S
C1304 H1298 0.949 . S
C1304 C1308 1.368 . S
C1305 C1286 1.429 . S
C1305 C1299 1.429 . S
C1305 C1306 1.523 . S
C1306 C1287 1.368 . S
C1306 C1300 1.368 . S
C1306 C1305 1.523 . S
C1307 C1291 1.429 . S
C1307 C1303 1.429 . S
C1307 C1308 1.523 . S
C1308 C1292 1.368 . S
C1308 C1304 1.368 . S
C1308 C1307 1.523 . S
H1309 C1284 0.950 . S
H1310 C1286 0.950 . S
H1311 C1287 0.949 . S
H1312 C1289 0.950 . S
H1313 C1291 0.950 . S
C235 C44 1.948 . S
C240 C5 2.036 . S
C265 C57 1.955 . S
C270 C16 1.947 . S
C295 C27 1.939 . S
C300 C66 2.000 . S
C325 C31 2.045 . S
C330 C70 1.954 . S
C355 C1 1.947 . S
C360 C40 2.004 . S
C385 C53 2.010 . S
C390 C23 2.012 . S
C415 C118 2.031 . S
C420 C83 2.037 . S
C445 C94 1.973 . S
C450 C131 2.051 . S
C475 C109 2.032 . S
C480 C144 2.026 . S
C505 C148 1.943 1_556 S
C510 C105 1.958 . S
C535 C122 1.918 1_556 S
C540 C79 1.932 . S
C565 C135 1.939 1_556 S
C570 C101 2.016 . S
C595 C161 2.046 . S
C600 C200 1.962 . S
C625 C172 1.960 . S
C630 C213 1.960 . S
C655 C183 1.953 . S
C660 C222 2.014 . S
C685 C226 1.963 . S
C690 C187 2.055 1_554 S
C715 C196 2.017 . S
C720 C157 1.964 1_554 S
C745 C209 2.023 . S
C750 C179 2.023 1_554 S
C775 C10 1.579 . S
C780 C96 1.582 . S
C805 C14 1.537 . S
C810 C107 1.534 . S
C835 C81 1.456 . S
C840 C29 1.457 . S
C865 C36 1.631 . S
C870 C170 1.584 1_554 S
C895 C185 1.448 1_554 S
C900 C3 1.452 . S
C925 C166 1.567 1_554 S
C930 C18 1.570 . S
C955 C211 1.568 . S
C960 C49 1.521 . S
C985 C62 1.588 . S
C990 C231 1.582 . S
C1015 C198 1.498 . S
C1020 C68 1.498 . S
C1045 C133 1.597 1_556 S
C1050 C75 1.548 . S
C1075 C42 1.515 . S
C1080 C146 1.515 1_556 S
C1105 C55 1.519 . S
C1110 C120 1.519 1_556 S
C1135 C88 1.549 1_545 S
C1140 C174 1.551 . S
C1165 C92 1.575 . S
C1170 C192 1.619 . S
C1195 C114 1.543 . S
C1200 C159 1.499 . S
C1225 C218 1.566 . S
C1230 C153 1.570 . S
C1255 C224 1.538 . S
C1260 C127 1.496 . S
C1285 C140 1.562 1_545 S
C1290 C205 1.562 . S
