# Generated by pormake.
# Topology rho, (4)-cn, num edge types: 1
# Building blocks:
#     Node 0, Type 0, BuildingBlock: AZAVOO_clean_sbu_0, # of connection points: 4
#     Node 1, Type 0, BuildingBlock: AZAVOO_clean_sbu_0, # of connection points: 4
#     Node 2, Type 0, BuildingBlock: AZAVOO_clean_sbu_0, # of connection points: 4
#     Node 3, Type 0, BuildingBlock: AZAVOO_clean_sbu_0, # of connection points: 4
#     Node 4, Type 0, BuildingBlock: AZAVOO_clean_sbu_0, # of connection points: 4
#     Node 5, Type 0, BuildingBlock: AZAVOO_clean_sbu_0, # of connection points: 4
#     Node 6, Type 0, BuildingBlock: AZAVOO_clean_sbu_0, # of connection points: 4
#     Node 7, Type 0, BuildingBlock: AZAVOO_clean_sbu_0, # of connection points: 4
#     Node 8, Type 0, BuildingBlock: AZAVOO_clean_sbu_0, # of connection points: 4
#     Node 9, Type 0, BuildingBlock: AZAVOO_clean_sbu_0, # of connection points: 4
#     Node 10, Type 0, BuildingBlock: AZAVOO_clean_sbu_0, # of connection points: 4
#     Node 11, Type 0, BuildingBlock: AZAVOO_clean_sbu_0, # of connection points: 4
#     Node 12, Type 0, BuildingBlock: AZAVOO_clean_sbu_0, # of connection points: 4
#     Node 13, Type 0, BuildingBlock: AZAVOO_clean_sbu_0, # of connection points: 4
#     Node 14, Type 0, BuildingBlock: AZAVOO_clean_sbu_0, # of connection points: 4
#     Node 15, Type 0, BuildingBlock: AZAVOO_clean_sbu_0, # of connection points: 4
#     Node 16, Type 0, BuildingBlock: AZAVOO_clean_sbu_0, # of connection points: 4
#     Node 17, Type 0, BuildingBlock: AZAVOO_clean_sbu_0, # of connection points: 4
#     Node 18, Type 0, BuildingBlock: AZAVOO_clean_sbu_0, # of connection points: 4
#     Node 19, Type 0, BuildingBlock: AZAVOO_clean_sbu_0, # of connection points: 4
#     Node 20, Type 0, BuildingBlock: AZAVOO_clean_sbu_0, # of connection points: 4
#     Node 21, Type 0, BuildingBlock: AZAVOO_clean_sbu_0, # of connection points: 4
#     Node 22, Type 0, BuildingBlock: AZAVOO_clean_sbu_0, # of connection points: 4
#     Node 23, Type 0, BuildingBlock: AZAVOO_clean_sbu_0, # of connection points: 4
#     Node 24, Type 0, BuildingBlock: AZAVOO_clean_sbu_0, # of connection points: 4
#     Node 25, Type 0, BuildingBlock: AZAVOO_clean_sbu_0, # of connection points: 4
#     Node 26, Type 0, BuildingBlock: AZAVOO_clean_sbu_0, # of connection points: 4
#     Node 27, Type 0, BuildingBlock: AZAVOO_clean_sbu_0, # of connection points: 4
#     Node 28, Type 0, BuildingBlock: AZAVOO_clean_sbu_0, # of connection points: 4
#     Node 29, Type 0, BuildingBlock: AZAVOO_clean_sbu_0, # of connection points: 4
#     Node 30, Type 0, BuildingBlock: AZAVOO_clean_sbu_0, # of connection points: 4
#     Node 31, Type 0, BuildingBlock: AZAVOO_clean_sbu_0, # of connection points: 4
#     Node 32, Type 0, BuildingBlock: AZAVOO_clean_sbu_0, # of connection points: 4
#     Node 33, Type 0, BuildingBlock: AZAVOO_clean_sbu_0, # of connection points: 4
#     Node 34, Type 0, BuildingBlock: AZAVOO_clean_sbu_0, # of connection points: 4
#     Node 35, Type 0, BuildingBlock: AZAVOO_clean_sbu_0, # of connection points: 4
#     Node 36, Type 0, BuildingBlock: AZAVOO_clean_sbu_0, # of connection points: 4
#     Node 37, Type 0, BuildingBlock: AZAVOO_clean_sbu_0, # of connection points: 4
#     Node 38, Type 0, BuildingBlock: AZAVOO_clean_sbu_0, # of connection points: 4
#     Node 39, Type 0, BuildingBlock: AZAVOO_clean_sbu_0, # of connection points: 4
#     Node 40, Type 0, BuildingBlock: AZAVOO_clean_sbu_0, # of connection points: 4
#     Node 41, Type 0, BuildingBlock: AZAVOO_clean_sbu_0, # of connection points: 4
#     Node 42, Type 0, BuildingBlock: AZAVOO_clean_sbu_0, # of connection points: 4
#     Node 43, Type 0, BuildingBlock: AZAVOO_clean_sbu_0, # of connection points: 4
#     Node 44, Type 0, BuildingBlock: AZAVOO_clean_sbu_0, # of connection points: 4
#     Node 45, Type 0, BuildingBlock: AZAVOO_clean_sbu_0, # of connection points: 4
#     Node 46, Type 0, BuildingBlock: AZAVOO_clean_sbu_0, # of connection points: 4
#     Node 47, Type 0, BuildingBlock: AZAVOO_clean_sbu_0, # of connection points: 4
#     Edge 48, Type (0, 0), BuildingBlock: XIVTED_clean_linker_0, # of connection points: 2
#     Edge 49, Type (0, 0), BuildingBlock: XIVTED_clean_linker_0, # of connection points: 2
#     Edge 50, Type (0, 0), BuildingBlock: XIVTED_clean_linker_0, # of connection points: 2
#     Edge 51, Type (0, 0), BuildingBlock: XIVTED_clean_linker_0, # of connection points: 2
#     Edge 52, Type (0, 0), BuildingBlock: XIVTED_clean_linker_0, # of connection points: 2
#     Edge 53, Type (0, 0), BuildingBlock: XIVTED_clean_linker_0, # of connection points: 2
#     Edge 54, Type (0, 0), BuildingBlock: XIVTED_clean_linker_0, # of connection points: 2
#     Edge 55, Type (0, 0), BuildingBlock: XIVTED_clean_linker_0, # of connection points: 2
#     Edge 56, Type (0, 0), BuildingBlock: XIVTED_clean_linker_0, # of connection points: 2
#     Edge 57, Type (0, 0), BuildingBlock: XIVTED_clean_linker_0, # of connection points: 2
#     Edge 58, Type (0, 0), BuildingBlock: XIVTED_clean_linker_0, # of connection points: 2
#     Edge 59, Type (0, 0), BuildingBlock: XIVTED_clean_linker_0, # of connection points: 2
#     Edge 60, Type (0, 0), BuildingBlock: XIVTED_clean_linker_0, # of connection points: 2
#     Edge 61, Type (0, 0), BuildingBlock: XIVTED_clean_linker_0, # of connection points: 2
#     Edge 62, Type (0, 0), BuildingBlock: XIVTED_clean_linker_0, # of connection points: 2
#     Edge 63, Type (0, 0), BuildingBlock: XIVTED_clean_linker_0, # of connection points: 2
#     Edge 64, Type (0, 0), BuildingBlock: XIVTED_clean_linker_0, # of connection points: 2
#     Edge 65, Type (0, 0), BuildingBlock: XIVTED_clean_linker_0, # of connection points: 2
#     Edge 66, Type (0, 0), BuildingBlock: XIVTED_clean_linker_0, # of connection points: 2
#     Edge 67, Type (0, 0), BuildingBlock: XIVTED_clean_linker_0, # of connection points: 2
#     Edge 68, Type (0, 0), BuildingBlock: XIVTED_clean_linker_0, # of connection points: 2
#     Edge 69, Type (0, 0), BuildingBlock: XIVTED_clean_linker_0, # of connection points: 2
#     Edge 70, Type (0, 0), BuildingBlock: XIVTED_clean_linker_0, # of connection points: 2
#     Edge 71, Type (0, 0), BuildingBlock: XIVTED_clean_linker_0, # of connection points: 2
#     Edge 72, Type (0, 0), BuildingBlock: XIVTED_clean_linker_0, # of connection points: 2
#     Edge 73, Type (0, 0), BuildingBlock: XIVTED_clean_linker_0, # of connection points: 2
#     Edge 74, Type (0, 0), BuildingBlock: XIVTED_clean_linker_0, # of connection points: 2
#     Edge 75, Type (0, 0), BuildingBlock: XIVTED_clean_linker_0, # of connection points: 2
#     Edge 76, Type (0, 0), BuildingBlock: XIVTED_clean_linker_0, # of connection points: 2
#     Edge 77, Type (0, 0), BuildingBlock: XIVTED_clean_linker_0, # of connection points: 2
#     Edge 78, Type (0, 0), BuildingBlock: XIVTED_clean_linker_0, # of connection points: 2
#     Edge 79, Type (0, 0), BuildingBlock: XIVTED_clean_linker_0, # of connection points: 2
#     Edge 80, Type (0, 0), BuildingBlock: XIVTED_clean_linker_0, # of connection points: 2
#     Edge 81, Type (0, 0), BuildingBlock: XIVTED_clean_linker_0, # of connection points: 2
#     Edge 82, Type (0, 0), BuildingBlock: XIVTED_clean_linker_0, # of connection points: 2
#     Edge 83, Type (0, 0), BuildingBlock: XIVTED_clean_linker_0, # of connection points: 2
#     Edge 84, Type (0, 0), BuildingBlock: XIVTED_clean_linker_0, # of connection points: 2
#     Edge 85, Type (0, 0), BuildingBlock: XIVTED_clean_linker_0, # of connection points: 2
#     Edge 86, Type (0, 0), BuildingBlock: XIVTED_clean_linker_0, # of connection points: 2
#     Edge 87, Type (0, 0), BuildingBlock: XIVTED_clean_linker_0, # of connection points: 2
#     Edge 88, Type (0, 0), BuildingBlock: XIVTED_clean_linker_0, # of connection points: 2
#     Edge 89, Type (0, 0), BuildingBlock: XIVTED_clean_linker_0, # of connection points: 2
#     Edge 90, Type (0, 0), BuildingBlock: XIVTED_clean_linker_0, # of connection points: 2
#     Edge 91, Type (0, 0), BuildingBlock: XIVTED_clean_linker_0, # of connection points: 2
#     Edge 92, Type (0, 0), BuildingBlock: XIVTED_clean_linker_0, # of connection points: 2
#     Edge 93, Type (0, 0), BuildingBlock: XIVTED_clean_linker_0, # of connection points: 2
#     Edge 94, Type (0, 0), BuildingBlock: XIVTED_clean_linker_0, # of connection points: 2
#     Edge 95, Type (0, 0), BuildingBlock: XIVTED_clean_linker_0, # of connection points: 2
#     Edge 96, Type (0, 0), BuildingBlock: XIVTED_clean_linker_0, # of connection points: 2
#     Edge 97, Type (0, 0), BuildingBlock: XIVTED_clean_linker_0, # of connection points: 2
#     Edge 98, Type (0, 0), BuildingBlock: XIVTED_clean_linker_0, # of connection points: 2
#     Edge 99, Type (0, 0), BuildingBlock: XIVTED_clean_linker_0, # of connection points: 2
#     Edge 100, Type (0, 0), BuildingBlock: XIVTED_clean_linker_0, # of connection points: 2
#     Edge 101, Type (0, 0), BuildingBlock: XIVTED_clean_linker_0, # of connection points: 2
#     Edge 102, Type (0, 0), BuildingBlock: XIVTED_clean_linker_0, # of connection points: 2
#     Edge 103, Type (0, 0), BuildingBlock: XIVTED_clean_linker_0, # of connection points: 2
#     Edge 104, Type (0, 0), BuildingBlock: XIVTED_clean_linker_0, # of connection points: 2
#     Edge 105, Type (0, 0), BuildingBlock: XIVTED_clean_linker_0, # of connection points: 2
#     Edge 106, Type (0, 0), BuildingBlock: XIVTED_clean_linker_0, # of connection points: 2
#     Edge 107, Type (0, 0), BuildingBlock: XIVTED_clean_linker_0, # of connection points: 2
#     Edge 108, Type (0, 0), BuildingBlock: XIVTED_clean_linker_0, # of connection points: 2
#     Edge 109, Type (0, 0), BuildingBlock: XIVTED_clean_linker_0, # of connection points: 2
#     Edge 110, Type (0, 0), BuildingBlock: XIVTED_clean_linker_0, # of connection points: 2
#     Edge 111, Type (0, 0), BuildingBlock: XIVTED_clean_linker_0, # of connection points: 2
#     Edge 112, Type (0, 0), BuildingBlock: XIVTED_clean_linker_0, # of connection points: 2
#     Edge 113, Type (0, 0), BuildingBlock: XIVTED_clean_linker_0, # of connection points: 2
#     Edge 114, Type (0, 0), BuildingBlock: XIVTED_clean_linker_0, # of connection points: 2
#     Edge 115, Type (0, 0), BuildingBlock: XIVTED_clean_linker_0, # of connection points: 2
#     Edge 116, Type (0, 0), BuildingBlock: XIVTED_clean_linker_0, # of connection points: 2
#     Edge 117, Type (0, 0), BuildingBlock: XIVTED_clean_linker_0, # of connection points: 2
#     Edge 118, Type (0, 0), BuildingBlock: XIVTED_clean_linker_0, # of connection points: 2
#     Edge 119, Type (0, 0), BuildingBlock: XIVTED_clean_linker_0, # of connection points: 2
#     Edge 120, Type (0, 0), BuildingBlock: XIVTED_clean_linker_0, # of connection points: 2
#     Edge 121, Type (0, 0), BuildingBlock: XIVTED_clean_linker_0, # of connection points: 2
#     Edge 122, Type (0, 0), BuildingBlock: XIVTED_clean_linker_0, # of connection points: 2
#     Edge 123, Type (0, 0), BuildingBlock: XIVTED_clean_linker_0, # of connection points: 2
#     Edge 124, Type (0, 0), BuildingBlock: XIVTED_clean_linker_0, # of connection points: 2
#     Edge 125, Type (0, 0), BuildingBlock: XIVTED_clean_linker_0, # of connection points: 2
#     Edge 126, Type (0, 0), BuildingBlock: XIVTED_clean_linker_0, # of connection points: 2
#     Edge 127, Type (0, 0), BuildingBlock: XIVTED_clean_linker_0, # of connection points: 2
#     Edge 128, Type (0, 0), BuildingBlock: XIVTED_clean_linker_0, # of connection points: 2
#     Edge 129, Type (0, 0), BuildingBlock: XIVTED_clean_linker_0, # of connection points: 2
#     Edge 130, Type (0, 0), BuildingBlock: XIVTED_clean_linker_0, # of connection points: 2
#     Edge 131, Type (0, 0), BuildingBlock: XIVTED_clean_linker_0, # of connection points: 2
#     Edge 132, Type (0, 0), BuildingBlock: XIVTED_clean_linker_0, # of connection points: 2
#     Edge 133, Type (0, 0), BuildingBlock: XIVTED_clean_linker_0, # of connection points: 2
#     Edge 134, Type (0, 0), BuildingBlock: XIVTED_clean_linker_0, # of connection points: 2
#     Edge 135, Type (0, 0), BuildingBlock: XIVTED_clean_linker_0, # of connection points: 2
#     Edge 136, Type (0, 0), BuildingBlock: XIVTED_clean_linker_0, # of connection points: 2
#     Edge 137, Type (0, 0), BuildingBlock: XIVTED_clean_linker_0, # of connection points: 2
#     Edge 138, Type (0, 0), BuildingBlock: XIVTED_clean_linker_0, # of connection points: 2
#     Edge 139, Type (0, 0), BuildingBlock: XIVTED_clean_linker_0, # of connection points: 2
#     Edge 140, Type (0, 0), BuildingBlock: XIVTED_clean_linker_0, # of connection points: 2
#     Edge 141, Type (0, 0), BuildingBlock: XIVTED_clean_linker_0, # of connection points: 2
#     Edge 142, Type (0, 0), BuildingBlock: XIVTED_clean_linker_0, # of connection points: 2
#     Edge 143, Type (0, 0), BuildingBlock: XIVTED_clean_linker_0, # of connection points: 2
# Relax obj value: 0.211
# Max RMSD: 0.251
# Mean RMSD: 0.232
data_MOF--net-rho--node1-AZAVOO_clean_sbu_0--edge1-XIVTED_clean_linker_0
_symmetry_space_group_name_H-M    P1
_symmetry_Int_Tables_number       1
_symmetry_cell_setting            triclinic
loop_
_symmetry_equiv_pos_as_xyz
'x, y, z'
_cell_length_a     71.49907
_cell_length_b     70.300779
_cell_length_c     70.244656
_cell_angle_alpha  90.024672
_cell_angle_beta   89.98035
_cell_angle_gamma 90.232861
loop_
_atom_site_label
_atom_site_type_symbol
_atom_site_fract_x
_atom_site_fract_y
_atom_site_fract_z
_atom_type_partial_charge
Mg0 Mg 0.10945 0.25393 0.44181 0.0
O1 O 0.07764 0.25043 0.43727 0.0
O2 O 0.0689 0.22495 0.45419 0.0
Mg3 Mg 0.09431 0.21232 0.46896 0.0
C4 C 0.06508 0.2388 0.44311 0.0
C5 C 0.12083 0.28965 0.41843 0.0
O6 O 0.12787 0.29438 0.43505 0.0
O7 O 0.11477 0.22912 0.42201 0.0
O8 O 0.10603 0.20407 0.43947 0.0
O9 O 0.10404 0.2718 0.4674 0.0
O10 O 0.10758 0.24057 0.46806 0.0
C11 C 0.11252 0.21124 0.42409 0.0
C12 C 0.10376 0.25607 0.477 0.0
O13 O 0.1117 0.27419 0.41682 0.0
Mg14 Mg 0.76395 0.08002 0.3656 0.0
O15 O 0.74952 0.07803 0.39495 0.0
O16 O 0.7281 0.05484 0.39298 0.0
Mg17 Mg 0.72799 0.04283 0.36293 0.0
C18 C 0.73672 0.06769 0.40241 0.0
C19 C 0.77897 0.12065 0.36069 0.0
O20 O 0.7726 0.11667 0.34359 0.0
O21 O 0.7387 0.09512 0.35295 0.0
O22 O 0.71762 0.07153 0.35192 0.0
O23 O 0.78384 0.05748 0.37518 0.0
O24 O 0.75725 0.05192 0.36006 0.0
C25 C 0.72238 0.08881 0.34909 0.0
C26 C 0.77157 0.04539 0.36893 0.0
O27 O 0.77738 0.10823 0.37374 0.0
Mg28 Mg 0.87094 0.72879 0.44052 0.0
O29 O 0.90208 0.73621 0.43655 0.0
O30 O 0.90867 0.76208 0.45382 0.0
Mg31 Mg 0.88165 0.77183 0.46785 0.0
C32 C 0.91361 0.74882 0.44249 0.0
C33 C 0.87702 0.69077 0.4184 0.0
O34 O 0.88031 0.68477 0.43579 0.0
O35 O 0.86348 0.7527 0.42027 0.0
O36 O 0.8706 0.77833 0.43774 0.0
O37 O 0.87779 0.71197 0.46643 0.0
O38 O 0.87077 0.74254 0.46682 0.0
C39 C 0.86484 0.77068 0.42229 0.0
C40 C 0.87617 0.72766 0.47593 0.0
O41 O 0.87274 0.70808 0.41575 0.0
Mg42 Mg 0.23064 0.917 0.37286 0.0
O43 O 0.24388 0.91605 0.40293 0.0
O44 O 0.26807 0.93634 0.40243 0.0
Mg45 Mg 0.27088 0.94948 0.37305 0.0
C46 C 0.25759 0.92445 0.41114 0.0
C47 C 0.20109 0.88985 0.39194 0.0
O48 O 0.19932 0.90455 0.40335 0.0
O49 O 0.25426 0.89929 0.36021 0.0
O50 O 0.27791 0.92023 0.36076 0.0
O51 O 0.2131 0.94136 0.38262 0.0
O52 O 0.24085 0.94439 0.36905 0.0
C53 C 0.27128 0.90377 0.35696 0.0
C54 C 0.22692 0.9522 0.37756 0.0
O55 O 0.21323 0.89044 0.37874 0.0
Mg56 Mg 0.09642 0.78107 0.591 0.0
O57 O 0.0967 0.7676 0.5609 0.0
O58 O 0.07636 0.74333 0.56177 0.0
Mg59 Mg 0.06219 0.74184 0.59065 0.0
C60 C 0.08843 0.75349 0.553 0.0
C61 C 0.12245 0.80996 0.57094 0.0
O62 O 0.10783 0.81019 0.55962 0.0
O63 O 0.11284 0.75596 0.60382 0.0
O64 O 0.09002 0.73407 0.60393 0.0
O65 O 0.07254 0.80078 0.58347 0.0
O66 O 0.06931 0.77174 0.59486 0.0
C67 C 0.10671 0.73929 0.60772 0.0
C68 C 0.06165 0.78698 0.58864 0.0
O69 O 0.12265 0.7984 0.58484 0.0
Mg70 Mg 0.27721 0.1645 0.60101 0.0
O71 O 0.26481 0.1351 0.59373 0.0
O72 O 0.24317 0.13841 0.57099 0.0
Mg73 Mg 0.24052 0.17015 0.56503 0.0
C74 C 0.25274 0.12806 0.58225 0.0
C75 C 0.29431 0.16291 0.64138 0.0
O76 O 0.28756 0.18026 0.64096 0.0
O77 O 0.25123 0.17162 0.61852 0.0
O78 O 0.22973 0.17415 0.59546 0.0
O79 O 0.2974 0.16069 0.57701 0.0
O80 O 0.26963 0.1742 0.5743 0.0
C81 C 0.23449 0.17445 0.61297 0.0
C82 C 0.28446 0.16771 0.56623 0.0
O83 O 0.29199 0.15223 0.62697 0.0
Mg84 Mg 0.89286 0.20885 0.61163 0.0
O85 O 0.89435 0.22438 0.58273 0.0
O86 O 0.91861 0.24452 0.58411 0.0
Mg87 Mg 0.93311 0.24152 0.61275 0.0
C88 C 0.90471 0.23725 0.57529 0.0
C89 C 0.85235 0.19424 0.61754 0.0
O90 O 0.85663 0.19909 0.63508 0.0
O91 O 0.88105 0.23555 0.62624 0.0
O92 O 0.90703 0.25349 0.62677 0.0
O93 O 0.91294 0.18613 0.60152 0.0
O94 O 0.92105 0.21311 0.61544 0.0
C95 C 0.88977 0.25085 0.63062 0.0
C96 C 0.92595 0.19758 0.60732 0.0
O97 O 0.86414 0.19729 0.60437 0.0
Mg98 Mg 0.71624 0.84106 0.60652 0.0
O99 O 0.72558 0.87224 0.60183 0.0
O100 O 0.74761 0.87226 0.57918 0.0
Mg101 Mg 0.75351 0.84167 0.57071 0.0
C102 C 0.73707 0.88101 0.59091 0.0
C103 C 0.69913 0.83585 0.64594 0.0
O104 O 0.70711 0.81939 0.64252 0.0
O105 O 0.74269 0.83487 0.62362 0.0
O106 O 0.76449 0.83619 0.60077 0.0
O107 O 0.6959 0.8448 0.58252 0.0
O108 O 0.72487 0.83434 0.57933 0.0
C109 C 0.75968 0.83403 0.61813 0.0
C110 C 0.7096 0.8399 0.5715 0.0
O111 O 0.70045 0.84894 0.63352 0.0
Mg112 Mg 0.39888 0.09534 0.23553 0.0
O113 O 0.39019 0.06508 0.22672 0.0
O114 O 0.40317 0.06022 0.19818 0.0
Mg115 Mg 0.42199 0.0852 0.19019 0.0
C116 C 0.39287 0.05478 0.212 0.0
C117 C 0.36941 0.11355 0.2601 0.0
O118 O 0.37739 0.12776 0.251 0.0
O119 O 0.37995 0.10871 0.21321 0.0
O120 O 0.39648 0.10447 0.18658 0.0
O121 O 0.4245 0.08456 0.2506 0.0
O122 O 0.42365 0.09309 0.22044 0.0
C123 C 0.38248 0.11144 0.19544 0.0
C124 C 0.43318 0.08671 0.23454 0.0
O125 O 0.3754 0.0968 0.25723 0.0
Mg126 Mg 0.88716 0.38695 0.25022 0.0
O127 O 0.89162 0.4183 0.25948 0.0
O128 O 0.91124 0.41765 0.28424 0.0
Mg129 Mg 0.91876 0.38719 0.29129 0.0
C130 C 0.90117 0.42676 0.27238 0.0
C131 C 0.85489 0.38365 0.22078 0.0
O132 O 0.85736 0.3655 0.2244 0.0
O133 O 0.86719 0.38139 0.27531 0.0
O134 O 0.88825 0.3817 0.29887 0.0
O135 O 0.91268 0.38913 0.23186 0.0
O136 O 0.91284 0.37943 0.26175 0.0
C137 C 0.87145 0.38009 0.29293 0.0
C138 C 0.92208 0.38395 0.2467 0.0
O139 O 0.86403 0.39596 0.23028 0.0
Mg140 Mg 0.59087 0.89655 0.23642 0.0
O141 O 0.59922 0.92635 0.22587 0.0
O142 O 0.58562 0.92973 0.19743 0.0
Mg143 Mg 0.5669 0.90414 0.19114 0.0
C144 C 0.59614 0.93594 0.21076 0.0
C145 C 0.62107 0.87983 0.26112 0.0
O146 O 0.61333 0.8651 0.25266 0.0
O147 O 0.60938 0.88202 0.21445 0.0
O148 O 0.59241 0.88468 0.18792 0.0
O149 O 0.56567 0.90807 0.25155 0.0
O150 O 0.56577 0.89795 0.22184 0.0
C151 C 0.60657 0.87825 0.19692 0.0
C152 C 0.55661 0.9051 0.23585 0.0
O153 O 0.6147 0.89632 0.25768 0.0
Mg154 Mg 0.13773 0.58847 0.243 0.0
O155 O 0.10565 0.58589 0.24108 0.0
O156 O 0.09823 0.5593 0.22516 0.0
Mg157 Mg 0.1253 0.5475 0.21309 0.0
C158 C 0.09363 0.57407 0.23457 0.0
C159 C 0.1427 0.61887 0.27349 0.0
O160 O 0.15262 0.6045 0.27979 0.0
O161 O 0.1379 0.60128 0.21311 0.0
O162 O 0.12899 0.57548 0.19669 0.0
O163 O 0.13754 0.56809 0.26745 0.0
O164 O 0.14045 0.55943 0.23738 0.0
C165 C 0.13327 0.59313 0.19755 0.0
C166 C 0.13843 0.55464 0.25492 0.0
O167 O 0.13474 0.6174 0.25736 0.0
Mg168 Mg 0.3685 0.89327 0.75793 0.0
O169 O 0.37344 0.92449 0.7693 0.0
O170 O 0.39357 0.92278 0.79384 0.0
Mg171 Mg 0.39106 0.89257 0.80417 0.0
C172 C 0.38444 0.93237 0.7815 0.0
C173 C 0.33806 0.89166 0.72678 0.0
O174 O 0.33691 0.87423 0.73343 0.0
O175 O 0.34425 0.88483 0.77804 0.0
O176 O 0.36085 0.89974 0.79872 0.0
O177 O 0.39626 0.89573 0.74455 0.0
O178 O 0.39227 0.88412 0.77362 0.0
C179 C 0.34871 0.88708 0.79536 0.0
C180 C 0.4035 0.88962 0.76028 0.0
O181 O 0.34897 0.90351 0.73482 0.0
Mg182 Mg 0.13215 0.44871 0.71237 0.0
O183 O 0.10452 0.4389 0.72566 0.0
O184 O 0.0975 0.45595 0.75144 0.0
Mg185 Mg 0.12237 0.47615 0.75553 0.0
C186 C 0.09371 0.44274 0.73956 0.0
C187 C 0.11633 0.41859 0.6851 0.0
O188 O 0.10348 0.43188 0.68419 0.0
O189 O 0.14748 0.43275 0.73545 0.0
O190 O 0.14011 0.44956 0.76144 0.0
O191 O 0.11706 0.47106 0.69604 0.0
O192 O 0.129 0.47532 0.72478 0.0
C193 C 0.14812 0.43548 0.75337 0.0
C194 C 0.11927 0.48183 0.71084 0.0
O195 O 0.13115 0.42186 0.69451 0.0
Mg196 Mg 0.63615 0.07428 0.75378 0.0
O197 O 0.60404 0.07532 0.75053 0.0
O198 O 0.59517 0.05088 0.73215 0.0
Mg199 Mg 0.62124 0.0352 0.7226 0.0
C200 C 0.59136 0.06551 0.74216 0.0
C201 C 0.64451 0.10493 0.78362 0.0
O202 O 0.65203 0.08961 0.79106 0.0
O203 O 0.63924 0.08693 0.72401 0.0
O204 O 0.62943 0.06229 0.70644 0.0
O205 O 0.63267 0.0543 0.77823 0.0
O206 O 0.63563 0.04517 0.74829 0.0
C207 C 0.63531 0.07941 0.70795 0.0
C208 C 0.6324 0.04074 0.76576 0.0
O209 O 0.6365 0.10367 0.76751 0.0
Mg210 Mg 0.86886 0.54484 0.72071 0.0
O211 O 0.89666 0.55735 0.73119 0.0
O212 O 0.90578 0.54279 0.75778 0.0
Mg213 Mg 0.88294 0.52095 0.76476 0.0
C214 C 0.90831 0.55519 0.74476 0.0
C215 C 0.85519 0.58337 0.70149 0.0
O216 O 0.84111 0.58194 0.71342 0.0
O217 O 0.85354 0.56078 0.74397 0.0
O218 O 0.86271 0.54564 0.77037 0.0
O219 O 0.88442 0.52235 0.70491 0.0
O220 O 0.87438 0.51945 0.73456 0.0
C221 C 0.85333 0.55861 0.76198 0.0
C222 C 0.88358 0.51249 0.72047 0.0
O223 O 0.86724 0.57014 0.70066 0.0
Mg224 Mg 0.22336 0.34854 0.08317 0.0
O225 O 0.23151 0.38019 0.08036 0.0
O226 O 0.25275 0.38297 0.05712 0.0
Mg227 Mg 0.25743 0.35355 0.04436 0.0
C228 C 0.24253 0.39024 0.0701 0.0
C229 C 0.19884 0.36814 0.11389 0.0
O230 O 0.19524 0.37887 0.09904 0.0
O231 O 0.2515 0.34239 0.09729 0.0
O232 O 0.27095 0.3453 0.07253 0.0
O233 O 0.20039 0.35287 0.06183 0.0
O234 O 0.2295 0.34519 0.05454 0.0
C235 C 0.26791 0.34197 0.09012 0.0
C236 C 0.21313 0.35035 0.049 0.0
O237 O 0.20997 0.35422 0.11203 0.0
Mg238 Mg 0.23683 0.5791 0.84929 0.0
O239 O 0.22658 0.57513 0.88018 0.0
O240 O 0.20561 0.55144 0.88017 0.0
Mg241 Mg 0.20146 0.54119 0.84974 0.0
C242 C 0.21517 0.5641 0.88889 0.0
C243 C 0.25324 0.6201 0.84557 0.0
O244 O 0.24533 0.61824 0.82879 0.0
O245 O 0.20979 0.59459 0.84181 0.0
O246 O 0.18928 0.57048 0.84261 0.0
O247 O 0.25826 0.55682 0.85444 0.0
O248 O 0.22995 0.55085 0.84324 0.0
C249 C 0.19316 0.58807 0.84024 0.0
C250 C 0.24559 0.5445 0.84967 0.0
O251 O 0.25161 0.60668 0.85759 0.0
Mg252 Mg 0.39802 0.25097 0.93006 0.0
O253 O 0.42863 0.25898 0.9239 0.0
O254 O 0.43545 0.2854 0.94026 0.0
Mg255 Mg 0.40935 0.29438 0.95653 0.0
C256 C 0.44008 0.2721 0.92882 0.0
C257 C 0.39196 0.21321 0.90807 0.0
O258 O 0.38681 0.20804 0.92527 0.0
O259 O 0.3887 0.27469 0.91054 0.0
O260 O 0.39523 0.30064 0.92772 0.0
O261 O 0.40675 0.23425 0.95548 0.0
O262 O 0.3994 0.26475 0.95618 0.0
C263 C 0.38889 0.2927 0.91265 0.0
C264 C 0.40535 0.24994 0.96505 0.0
O265 O 0.39776 0.23009 0.90534 0.0
Mg266 Mg 0.76385 0.417 0.86383 0.0
O267 O 0.774 0.41766 0.89504 0.0
O268 O 0.79672 0.4396 0.89665 0.0
Mg269 Mg 0.80174 0.45216 0.86724 0.0
C270 C 0.78619 0.42713 0.90447 0.0
C271 C 0.7445 0.37859 0.85514 0.0
O272 O 0.75231 0.38271 0.83871 0.0
O273 O 0.78983 0.40031 0.85485 0.0
O274 O 0.81175 0.42296 0.8571 0.0
O275 O 0.74399 0.44037 0.87097 0.0
O276 O 0.77269 0.44509 0.86026 0.0
C277 C 0.80679 0.40589 0.85334 0.0
C278 C 0.75755 0.45206 0.86723 0.0
O279 O 0.74715 0.38974 0.86915 0.0
Mg280 Mg 0.5994 0.72912 0.94132 0.0
O281 O 0.56896 0.72311 0.93277 0.0
O282 O 0.56021 0.69586 0.94659 0.0
Mg283 Mg 0.58482 0.68471 0.96397 0.0
C284 C 0.55678 0.71014 0.93594 0.0
C285 C 0.60867 0.76771 0.92223 0.0
O286 O 0.61311 0.77155 0.93997 0.0
O287 O 0.60883 0.7063 0.92092 0.0
O288 O 0.60084 0.67942 0.93584 0.0
O289 O 0.58991 0.74479 0.96695 0.0
O290 O 0.59583 0.71394 0.96648 0.0
C291 C 0.60821 0.6882 0.92173 0.0
C292 C 0.59005 0.7286 0.97576 0.0
O293 O 0.60215 0.75137 0.91812 0.0
Mg294 Mg 0.78372 0.65816 0.09884 0.0
O295 O 0.77486 0.62894 0.08748 0.0
O296 O 0.75583 0.63185 0.06242 0.0
Mg297 Mg 0.75096 0.66376 0.05906 0.0
C298 C 0.76499 0.62166 0.07417 0.0
C299 C 0.79773 0.65143 0.14081 0.0
O300 O 0.78989 0.66811 0.14338 0.0
O301 O 0.75533 0.66078 0.11377 0.0
O302 O 0.73683 0.6632 0.08819 0.0
O303 O 0.80652 0.65847 0.077 0.0
O304 O 0.77812 0.66995 0.07242 0.0
C305 C 0.73915 0.66217 0.10618 0.0
C306 C 0.79416 0.66543 0.06551 0.0
O307 O 0.79701 0.64372 0.12447 0.0
Mg308 Mg 0.38063 0.72314 0.09763 0.0
O309 O 0.38802 0.73017 0.06656 0.0
O310 O 0.40982 0.75298 0.06696 0.0
Mg311 Mg 0.41683 0.76009 0.0978 0.0
C312 C 0.39897 0.7417 0.05794 0.0
C313 C 0.34031 0.70773 0.09761 0.0
O314 O 0.34017 0.71852 0.11289 0.0
O315 O 0.36401 0.7507 0.10045 0.0
O316 O 0.38729 0.77208 0.10146 0.0
O317 O 0.40384 0.70165 0.09971 0.0
O318 O 0.40663 0.73206 0.10693 0.0
C319 C 0.36991 0.7678 0.10194 0.0
C320 C 0.41423 0.71559 0.10562 0.0
O321 O 0.35513 0.70677 0.08771 0.0
Mg322 Mg 0.62166 0.26638 0.09118 0.0
O323 O 0.61609 0.25874 0.05964 0.0
O324 O 0.59524 0.23498 0.05986 0.0
Mg325 Mg 0.58702 0.22775 0.09025 0.0
C326 C 0.60591 0.24652 0.05094 0.0
C327 C 0.65753 0.28885 0.09682 0.0
O328 O 0.65478 0.28053 0.11334 0.0
O329 O 0.63961 0.23965 0.09527 0.0
O330 O 0.61685 0.21765 0.09548 0.0
O331 O 0.59729 0.28663 0.09201 0.0
O332 O 0.59565 0.25619 0.09925 0.0
C333 C 0.63407 0.22239 0.09674 0.0
C334 C 0.58733 0.27222 0.0975 0.0
O335 O 0.64649 0.28498 0.08319 0.0
Mg336 Mg 0.90916 0.75395 0.65677 0.0
O337 O 0.90653 0.74707 0.62468 0.0
O338 O 0.93155 0.7298 0.61654 0.0
Mg339 Mg 0.94926 0.72487 0.6429 0.0
C340 C 0.91622 0.73805 0.61232 0.0
C341 C 0.87668 0.78106 0.6645 0.0
O342 O 0.89116 0.79077 0.67077 0.0
O343 O 0.89969 0.72363 0.66347 0.0
O344 O 0.92488 0.70722 0.65449 0.0
O345 O 0.92588 0.77974 0.64918 0.0
O346 O 0.93799 0.75138 0.65465 0.0
C347 C 0.90826 0.70791 0.6611 0.0
C348 C 0.94025 0.76861 0.64879 0.0
O349 O 0.87924 0.76454 0.65766 0.0
Mg350 Mg 0.23849 0.95086 0.59051 0.0
O351 O 0.24898 0.94348 0.56065 0.0
O352 O 0.27632 0.95805 0.55581 0.0
Mg353 Mg 0.28281 0.97596 0.58226 0.0
C354 C 0.26313 0.94713 0.5502 0.0
C355 C 0.20778 0.92307 0.57418 0.0
O356 O 0.20808 0.9353 0.56004 0.0
O357 O 0.26039 0.93187 0.60441 0.0
O358 O 0.2863 0.94935 0.60064 0.0
O359 O 0.22399 0.97723 0.57954 0.0
O360 O 0.25298 0.97641 0.59008 0.0
C361 C 0.27779 0.93481 0.60736 0.0
C362 C 0.23952 0.98613 0.58304 0.0
O363 O 0.21809 0.92601 0.58863 0.0
Mg364 Mg 0.07843 0.23931 0.65951 0.0
O365 O 0.07843 0.24414 0.62707 0.0
O366 O 0.05117 0.25747 0.61906 0.0
Mg367 Mg 0.03412 0.26158 0.64614 0.0
C368 C 0.06724 0.25095 0.61465 0.0
C369 C 0.11483 0.21699 0.66522 0.0
O370 O 0.10228 0.20531 0.67237 0.0
O371 O 0.08392 0.27111 0.66372 0.0
O372 O 0.05623 0.28321 0.65552 0.0
O373 O 0.06481 0.21106 0.65455 0.0
O374 O 0.04945 0.2379 0.65913 0.0
C375 C 0.07309 0.28529 0.66115 0.0
C376 C 0.04911 0.22016 0.65452 0.0
O377 O 0.10955 0.23298 0.65877 0.0
Mg378 Mg 0.73492 0.05914 0.58607 0.0
O379 O 0.72926 0.06167 0.55402 0.0
O380 O 0.70361 0.04449 0.54796 0.0
Mg381 Mg 0.6938 0.03002 0.57534 0.0
C382 C 0.71687 0.05541 0.5425 0.0
C383 C 0.75441 0.09484 0.60018 0.0
O384 O 0.74378 0.08969 0.61456 0.0
O385 O 0.71036 0.07828 0.59288 0.0
O386 O 0.68588 0.05897 0.58834 0.0
O387 O 0.75265 0.03334 0.58149 0.0
O388 O 0.72227 0.03257 0.58701 0.0
C389 C 0.69283 0.07494 0.59354 0.0
C390 C 0.73745 0.02346 0.58356 0.0
O391 O 0.75432 0.08474 0.58517 0.0
Mg392 Mg 0.89754 0.25466 0.39347 0.0
O393 O 0.89409 0.25961 0.42564 0.0
O394 O 0.91199 0.28455 0.43337 0.0
Mg395 Mg 0.92622 0.29572 0.40658 0.0
C396 C 0.90068 0.27122 0.43794 0.0
C397 C 0.86251 0.23326 0.37877 0.0
O398 O 0.86651 0.24391 0.36394 0.0
O399 O 0.87906 0.27989 0.38651 0.0
O400 O 0.89765 0.30438 0.39396 0.0
O401 O 0.92153 0.23593 0.39961 0.0
O402 O 0.92431 0.26685 0.39441 0.0
C403 C 0.8822 0.29771 0.38761 0.0
C404 C 0.93199 0.25101 0.39931 0.0
O405 O 0.87252 0.2347 0.39364 0.0
Mg406 Mg 0.73827 0.86788 0.39947 0.0
O407 O 0.74762 0.89895 0.40034 0.0
O408 O 0.7691 0.90322 0.42299 0.0
Mg409 Mg 0.77354 0.87428 0.4368 0.0
C410 C 0.75897 0.90959 0.40951 0.0
C411 C 0.71835 0.85985 0.36113 0.0
O412 O 0.72267 0.84241 0.36616 0.0
O413 O 0.76542 0.8598 0.38442 0.0
O414 O 0.78554 0.86368 0.40855 0.0
O415 O 0.71656 0.87275 0.42207 0.0
O416 O 0.74576 0.86433 0.42763 0.0
C417 C 0.78195 0.85929 0.39127 0.0
C418 C 0.72953 0.86857 0.43421 0.0
O419 O 0.72335 0.8736 0.37169 0.0
Mg420 Mg 0.07435 0.75835 0.37208 0.0
O421 O 0.08211 0.74866 0.40225 0.0
O422 O 0.06567 0.72257 0.40939 0.0
Mg423 Mg 0.04827 0.71477 0.38327 0.0
C424 C 0.07745 0.73551 0.41386 0.0
C425 C 0.10047 0.79038 0.38667 0.0
O426 O 0.08728 0.79038 0.3997 0.0
O427 O 0.09188 0.73485 0.35867 0.0
O428 O 0.07503 0.709 0.36609 0.0
O429 O 0.05074 0.7747 0.38456 0.0
O430 O 0.0483 0.74494 0.37466 0.0
C431 C 0.08918 0.7169 0.35822 0.0
C432 C 0.04086 0.75929 0.38314 0.0
O433 O 0.09926 0.77875 0.37284 0.0
Mg434 Mg 0.25102 0.13258 0.3963 0.0
O435 O 0.24612 0.10086 0.40124 0.0
O436 O 0.2276 0.09648 0.42645 0.0
Mg437 Mg 0.22067 0.12598 0.43788 0.0
C438 C 0.2372 0.08997 0.41261 0.0
C439 C 0.27151 0.13913 0.3583 0.0
O440 O 0.26989 0.15665 0.3646 0.0
O441 O 0.22164 0.13525 0.38362 0.0
O442 O 0.20475 0.13149 0.41024 0.0
O443 O 0.27511 0.13299 0.41688 0.0
O444 O 0.24568 0.1384 0.42459 0.0
C445 C 0.20595 0.13427 0.3923 0.0
C446 C 0.26282 0.13692 0.42982 0.0
O447 O 0.26427 0.12567 0.36786 0.0
Mg448 Mg 0.5756 0.86713 0.77651 0.0
O449 O 0.58329 0.89821 0.78171 0.0
O450 O 0.56648 0.90971 0.80583 0.0
Mg451 Mg 0.54752 0.88548 0.81606 0.0
C452 C 0.57882 0.91177 0.79287 0.0
C453 C 0.61028 0.84949 0.75516 0.0
O454 O 0.60554 0.83437 0.76506 0.0
O455 O 0.5918 0.85794 0.80282 0.0
O456 O 0.57314 0.8686 0.82606 0.0
O457 O 0.55256 0.87591 0.7571 0.0
O458 O 0.54916 0.87141 0.78805 0.0
C459 C 0.58773 0.85977 0.82044 0.0
C460 C 0.54193 0.87631 0.77203 0.0
O461 O 0.60101 0.86472 0.75719 0.0
Mg462 Mg 0.05575 0.65039 0.74798 0.0
O463 O 0.06276 0.62034 0.73727 0.0
O464 O 0.04415 0.61301 0.71273 0.0
Mg465 Mg 0.02681 0.6393 0.70645 0.0
C466 C 0.05707 0.60873 0.72449 0.0
C467 C 0.08109 0.64713 0.78397 0.0
O468 O 0.06454 0.64571 0.79198 0.0
O469 O 0.0723 0.66284 0.72331 0.0
O470 O 0.05441 0.65456 0.69856 0.0
O471 O 0.0337 0.63776 0.76631 0.0
O472 O 0.0287 0.64727 0.73677 0.0
C473 C 0.06921 0.66215 0.70545 0.0
C474 C 0.0227 0.63848 0.75172 0.0
O475 O 0.08213 0.6498 0.76611 0.0
Mg476 Mg 0.42335 0.11299 0.75889 0.0
O477 O 0.41641 0.08177 0.76638 0.0
O478 O 0.4361 0.0734 0.78958 0.0
Mg479 Mg 0.45551 0.09818 0.79671 0.0
C480 C 0.42267 0.06956 0.77822 0.0
C481 C 0.38741 0.13104 0.74238 0.0
O482 O 0.3936 0.14478 0.75341 0.0
O483 O 0.40947 0.12362 0.78625 0.0
O484 O 0.43048 0.11486 0.80817 0.0
O485 O 0.44509 0.10324 0.73801 0.0
O486 O 0.45067 0.10977 0.76821 0.0
C487 C 0.41518 0.12292 0.80348 0.0
C488 C 0.45679 0.10389 0.75207 0.0
O489 O 0.39634 0.11545 0.74181 0.0
Mg490 Mg 0.94937 0.34678 0.76347 0.0
O491 O 0.94232 0.37622 0.75134 0.0
O492 O 0.95939 0.38174 0.72522 0.0
Mg493 Mg 0.97583 0.35474 0.71943 0.0
C494 C 0.94734 0.38695 0.73756 0.0
C495 C 0.90906 0.3411 0.78364 0.0
O496 O 0.90575 0.32821 0.77053 0.0
O497 O 0.93104 0.33336 0.7406 0.0
O498 O 0.94761 0.33964 0.71435 0.0
O499 O 0.97279 0.36004 0.77936 0.0
O500 O 0.97558 0.34854 0.75019 0.0
C501 C 0.93309 0.33287 0.72258 0.0
C502 C 0.98267 0.35827 0.76402 0.0
O503 O 0.92474 0.34972 0.78395 0.0
Mg504 Mg 0.60383 0.11843 0.22284 0.0
O505 O 0.60961 0.08677 0.21607 0.0
O506 O 0.59261 0.07995 0.19018 0.0
Mg507 Mg 0.57631 0.10595 0.1808 0.0
C508 C 0.60406 0.07513 0.20324 0.0
C509 C 0.62522 0.12645 0.25955 0.0
O510 O 0.6082 0.132 0.26379 0.0
O511 O 0.62214 0.128 0.19805 0.0
O512 O 0.60418 0.12054 0.17311 0.0
O513 O 0.58004 0.10948 0.24113 0.0
O514 O 0.57743 0.11595 0.21046 0.0
C515 C 0.61923 0.12743 0.18015 0.0
C516 C 0.56981 0.10978 0.22594 0.0
O517 O 0.62846 0.11977 0.24307 0.0
Mg518 Mg 0.92549 0.61082 0.26131 0.0
O519 O 0.92084 0.57857 0.26628 0.0
O520 O 0.94226 0.57005 0.28787 0.0
Mg521 Mg 0.96098 0.59513 0.29561 0.0
C522 C 0.92846 0.5661 0.27701 0.0
C523 C 0.89301 0.60348 0.23231 0.0
O524 O 0.90462 0.59011 0.22684 0.0
O525 O 0.91274 0.61746 0.29033 0.0
O526 O 0.93573 0.60893 0.31013 0.0
O527 O 0.946 0.6051 0.23785 0.0
O528 O 0.9534 0.60771 0.26829 0.0
C529 C 0.91955 0.61592 0.30707 0.0
C530 C 0.95849 0.60409 0.25114 0.0
O531 O 0.8973 0.6138 0.24652 0.0
Mg532 Mg 0.38585 0.87263 0.22761 0.0
O533 O 0.37985 0.90425 0.22101 0.0
O534 O 0.39696 0.91137 0.19526 0.0
Mg535 Mg 0.41369 0.88573 0.18584 0.0
C536 C 0.38534 0.91598 0.20824 0.0
C537 C 0.36421 0.86374 0.26405 0.0
O538 O 0.38105 0.85742 0.26793 0.0
O539 O 0.36774 0.86305 0.20255 0.0
O540 O 0.38609 0.87104 0.17803 0.0
O541 O 0.40979 0.88165 0.24593 0.0
O542 O 0.41221 0.87525 0.21524 0.0
C543 C 0.37098 0.86394 0.1847 0.0
C544 C 0.41994 0.88134 0.23066 0.0
O545 O 0.36114 0.87116 0.24786 0.0
Mg546 Mg 0.09549 0.37662 0.26323 0.0
O547 O 0.10077 0.40834 0.26856 0.0
O548 O 0.08209 0.41869 0.29178 0.0
Mg549 Mg 0.06475 0.39324 0.30165 0.0
C550 C 0.09482 0.42159 0.27938 0.0
C551 C 0.1216 0.38768 0.23067 0.0
O552 O 0.10815 0.40031 0.22966 0.0
O553 O 0.11166 0.36899 0.29024 0.0
O554 O 0.09144 0.37899 0.31245 0.0
O555 O 0.07218 0.38317 0.24304 0.0
O556 O 0.06859 0.37908 0.274 0.0
C557 C 0.10686 0.37121 0.30764 0.0
C558 C 0.06126 0.38295 0.25774 0.0
O559 O 0.12119 0.37546 0.24401 0.0
Mg560 Mg 0.76084 0.63306 0.89595 0.0
O561 O 0.76014 0.60061 0.89907 0.0
O562 O 0.74306 0.59268 0.92446 0.0
Mg563 Mg 0.73285 0.62035 0.93779 0.0
C564 C 0.75291 0.58812 0.91003 0.0
C565 C 0.76732 0.62119 0.85263 0.0
O566 O 0.75 0.61494 0.85331 0.0
O567 O 0.73098 0.63237 0.88423 0.0
O568 O 0.71544 0.62485 0.9109 0.0
O569 O 0.78527 0.63563 0.91592 0.0
O570 O 0.75561 0.63671 0.9246 0.0
C571 C 0.71579 0.62869 0.89312 0.0
C572 C 0.77296 0.63731 0.92932 0.0
O573 O 0.77438 0.62937 0.86708 0.0
Mg574 Mg 0.75529 0.44435 0.08328 0.0
O575 O 0.76806 0.43841 0.05396 0.0
O576 O 0.79461 0.45507 0.05174 0.0
Mg577 Mg 0.79827 0.4727 0.07884 0.0
C578 C 0.78267 0.44346 0.04478 0.0
C579 C 0.73406 0.40823 0.09491 0.0
O580 O 0.74145 0.41397 0.11105 0.0
O581 O 0.77761 0.42659 0.09824 0.0
O582 O 0.80239 0.44599 0.09683 0.0
O583 O 0.73983 0.4699 0.07159 0.0
O584 O 0.76803 0.47077 0.08416 0.0
C585 C 0.7945 0.43069 0.10254 0.0
C586 C 0.75457 0.47969 0.07614 0.0
O587 O 0.73657 0.41823 0.08005 0.0
Mg588 Mg 0.57737 0.71057 0.159 0.0
O589 O 0.57444 0.71606 0.12672 0.0
O590 O 0.55148 0.7371 0.12223 0.0
Mg591 Mg 0.54157 0.74685 0.15136 0.0
C592 C 0.56401 0.72594 0.11576 0.0
C593 C 0.61838 0.69657 0.1647 0.0
O594 O 0.61697 0.70759 0.17973 0.0
O595 O 0.5936 0.73853 0.16204 0.0
O596 O 0.57086 0.75937 0.15574 0.0
O597 O 0.55454 0.68885 0.15629 0.0
O598 O 0.54998 0.71922 0.16302 0.0
C599 C 0.58792 0.75551 0.1594 0.0
C600 C 0.54307 0.70288 0.15857 0.0
O601 O 0.6044 0.69468 0.15366 0.0
Mg602 Mg 0.22749 0.5676 0.07279 0.0
O603 O 0.21949 0.56706 0.04118 0.0
O604 O 0.1949 0.54756 0.03841 0.0
Mg605 Mg 0.18793 0.53499 0.06754 0.0
C606 C 0.20694 0.55889 0.03113 0.0
C607 C 0.24488 0.60587 0.08214 0.0
O608 O 0.23466 0.60197 0.09719 0.0
O609 O 0.20216 0.58554 0.07986 0.0
O610 O 0.17883 0.56437 0.07874 0.0
O611 O 0.24672 0.54307 0.06853 0.0
O612 O 0.21695 0.54036 0.0766 0.0
C613 C 0.18499 0.58115 0.0821 0.0
C614 C 0.23248 0.53224 0.07227 0.0
O615 O 0.24512 0.59409 0.06842 0.0
Mg616 Mg 0.42154 0.27264 0.14777 0.0
O617 O 0.42347 0.26566 0.11571 0.0
O618 O 0.44488 0.24293 0.11149 0.0
Mg619 Mg 0.4548 0.23384 0.14079 0.0
C620 C 0.43292 0.25464 0.1049 0.0
C621 C 0.38089 0.28899 0.15217 0.0
O622 O 0.38044 0.27739 0.16683 0.0
O623 O 0.40372 0.24604 0.15209 0.0
O624 O 0.42481 0.22338 0.14616 0.0
O625 O 0.44525 0.29292 0.14403 0.0
O626 O 0.44852 0.26253 0.15147 0.0
C627 C 0.40814 0.22862 0.14997 0.0
C628 C 0.4561 0.27842 0.14644 0.0
O629 O 0.39564 0.29014 0.14213 0.0
Mg630 Mg 0.24123 0.36196 0.87999 0.0
O631 O 0.244 0.3946 0.87914 0.0
O632 O 0.25985 0.40418 0.90486 0.0
Mg633 Mg 0.26708 0.37789 0.9222 0.0
C634 C 0.25135 0.40773 0.8893 0.0
C635 C 0.2152 0.35589 0.8461 0.0
O636 O 0.20614 0.34714 0.85984 0.0
O637 O 0.27172 0.35916 0.87101 0.0
O638 O 0.28609 0.36873 0.89766 0.0
O639 O 0.21484 0.36394 0.89715 0.0
O640 O 0.24336 0.36271 0.90931 0.0
C641 C 0.28654 0.36273 0.8805 0.0
C642 C 0.22565 0.36462 0.91188 0.0
O643 O 0.23137 0.36258 0.84948 0.0
Mg644 Mg 0.60303 0.26405 0.86636 0.0
O645 O 0.60519 0.25472 0.8978 0.0
O646 O 0.5835 0.23224 0.90255 0.0
Mg647 Mg 0.56841 0.22627 0.87467 0.0
C648 C 0.59663 0.24298 0.90866 0.0
C649 C 0.64168 0.28154 0.85508 0.0
O650 O 0.63731 0.27269 0.83921 0.0
O651 O 0.61782 0.23705 0.85613 0.0
O652 O 0.59567 0.21516 0.86182 0.0
O653 O 0.58089 0.28474 0.87506 0.0
O654 O 0.57516 0.25533 0.86554 0.0
C655 C 0.61193 0.21987 0.8559 0.0
C656 C 0.56901 0.27101 0.87253 0.0
O657 O 0.63058 0.28039 0.86919 0.0
Mg658 Mg 0.39563 0.72893 0.87291 0.0
O659 O 0.39563 0.73716 0.90482 0.0
O660 O 0.41885 0.75825 0.90872 0.0
Mg661 Mg 0.43268 0.76436 0.88025 0.0
C662 C 0.40553 0.7481 0.9154 0.0
C663 C 0.35625 0.71477 0.86167 0.0
O664 O 0.3613 0.72449 0.84653 0.0
O665 O 0.38177 0.75704 0.86497 0.0
O666 O 0.40527 0.77756 0.86973 0.0
O667 O 0.41653 0.70647 0.87961 0.0
O668 O 0.42398 0.73581 0.87117 0.0
C669 C 0.38841 0.77392 0.86491 0.0
C670 C 0.42923 0.71947 0.87742 0.0
O671 O 0.36729 0.71416 0.87585 0.0
H672 H 0.11228 0.3838 0.34384 0.0
H673 H 0.11803 0.27976 0.38097 0.0
H674 H 0.12453 0.33693 0.3063 0.0
H675 H 0.13062 0.32734 0.41771 0.0
H676 H 0.12149 0.30056 0.35335 0.0
H677 H 0.12115 0.36414 0.37104 0.0
C678 C 0.1174 0.36953 0.34132 0.0
C679 C 0.11754 0.36187 0.32288 0.0
C680 C 0.12375 0.3064 0.36743 0.0
C681 C 0.12703 0.33915 0.35387 0.0
C682 C 0.12158 0.29459 0.38321 0.0
C683 C 0.12378 0.30192 0.40165 0.0
C684 C 0.12775 0.32578 0.37012 0.0
C685 C 0.12867 0.32116 0.40373 0.0
C686 C 0.12239 0.3583 0.35683 0.0
C687 C 0.12424 0.34334 0.32032 0.0
N688 N 0.13018 0.33253 0.38814 0.0
N689 N 0.12827 0.3324 0.33572 0.0
H690 H 0.72927 0.11465 0.32092 0.0
H691 H 0.62083 0.12871 0.29807 0.0
H692 H 0.68484 0.09019 0.35461 0.0
H693 H 0.66311 0.12449 0.2544 0.0
H694 H 0.64518 0.12529 0.32231 0.0
H695 H 0.70569 0.12923 0.30009 0.0
C696 C 0.71457 0.11285 0.32424 0.0
C697 C 0.70888 0.1011 0.3393 0.0
C698 C 0.64909 0.12542 0.30742 0.0
C699 C 0.68213 0.11766 0.31583 0.0
C700 C 0.63526 0.12737 0.29359 0.0
C701 C 0.63996 0.12656 0.27422 0.0
C702 C 0.66775 0.12296 0.30181 0.0
C703 C 0.65888 0.12487 0.2692 0.0
C704 C 0.70119 0.12102 0.31232 0.0
C705 C 0.68972 0.09903 0.34298 0.0
N706 N 0.67212 0.12302 0.28294 0.0
N707 N 0.67699 0.10713 0.33123 0.0
H708 H 0.86886 0.69761 0.38092 0.0
H709 H 0.92391 0.6069 0.34455 0.0
H710 H 0.89085 0.65455 0.41848 0.0
H711 H 0.89188 0.64287 0.30705 0.0
H712 H 0.91024 0.62311 0.37184 0.0
H713 H 0.87559 0.67704 0.35374 0.0
C714 C 0.87498 0.68377 0.38347 0.0
C715 C 0.8795 0.67787 0.40199 0.0
C716 C 0.90599 0.62732 0.35767 0.0
C717 C 0.88729 0.65431 0.37094 0.0
C718 C 0.91382 0.61809 0.34206 0.0
C719 C 0.90919 0.62371 0.32349 0.0
C720 C 0.89365 0.64251 0.35473 0.0
C721 C 0.89589 0.63814 0.32113 0.0
C722 C 0.87875 0.67201 0.36794 0.0
C723 C 0.88725 0.65974 0.40445 0.0
N724 N 0.88879 0.64726 0.33658 0.0
N725 N 0.89109 0.6487 0.38909 0.0
H726 H 0.36868 0.85871 0.30231 0.0
H727 H 0.26191 0.88071 0.32713 0.0
H728 H 0.32648 0.86872 0.25957 0.0
H729 H 0.30838 0.89775 0.36245 0.0
H730 H 0.28397 0.86539 0.30515 0.0
H731 H 0.34486 0.86241 0.32704 0.0
C732 C 0.35436 0.86139 0.29811 0.0
C733 C 0.34958 0.86373 0.27888 0.0
C734 C 0.28922 0.8721 0.31797 0.0
C735 C 0.32234 0.8677 0.30705 0.0
C736 C 0.27668 0.88067 0.33056 0.0
C737 C 0.28344 0.8906 0.34647 0.0
C738 C 0.30851 0.87324 0.3216 0.0
C739 C 0.30269 0.89035 0.35021 0.0
C740 C 0.34081 0.8635 0.31223 0.0
C741 C 0.33079 0.86711 0.27425 0.0
N742 N 0.31459 0.88193 0.33778 0.0
N743 N 0.31784 0.86911 0.28827 0.0
H744 H 0.07646 0.65094 0.66915 0.0
H745 H 0.12085 0.74801 0.64255 0.0
H746 H 0.0937 0.69176 0.71157 0.0
H747 H 0.11369 0.70169 0.6031 0.0
H748 H 0.11951 0.72539 0.66893 0.0
H749 H 0.09667 0.66657 0.64603 0.0
C750 C 0.08462 0.66317 0.67362 0.0
C751 C 0.08307 0.67036 0.69215 0.0
C752 C 0.11902 0.72002 0.65449 0.0
C753 C 0.10619 0.68857 0.66564 0.0
C754 C 0.12014 0.73294 0.63938 0.0
C755 C 0.11693 0.72669 0.6207 0.0
C756 C 0.11457 0.70088 0.65069 0.0
C757 C 0.11591 0.70706 0.61738 0.0
C758 C 0.09633 0.67202 0.66045 0.0
C759 C 0.09431 0.68595 0.69731 0.0
N760 N 0.11411 0.69489 0.63225 0.0
N761 N 0.10508 0.69483 0.68399 0.0
H762 H 0.31188 0.12859 0.6463 0.0
H763 H 0.3648 0.16227 0.74087 0.0
H764 H 0.30279 0.18272 0.67379 0.0
H765 H 0.37349 0.10753 0.71449 0.0
H766 H 0.3402 0.16885 0.71778 0.0
H767 H 0.33263 0.1195 0.67241 0.0
C768 C 0.31413 0.13852 0.65788 0.0
C769 C 0.3057 0.15652 0.65776 0.0
C770 C 0.34738 0.15534 0.7171 0.0
C771 C 0.32948 0.14622 0.68766 0.0
C772 C 0.36145 0.15156 0.7303 0.0
C773 C 0.37135 0.13438 0.72953 0.0
C774 C 0.3432 0.14189 0.70291 0.0
C775 C 0.36629 0.121 0.71557 0.0
C776 C 0.32599 0.13331 0.67279 0.0
C777 C 0.30907 0.16875 0.6732 0.0
N778 N 0.35266 0.1251 0.70272 0.0
N779 N 0.32078 0.16342 0.68743 0.0
H780 H 0.88519 0.28834 0.62353 0.0
H781 H 0.90743 0.30531 0.73242 0.0
H782 H 0.87742 0.24568 0.66679 0.0
H783 H 0.92514 0.34073 0.68556 0.0
H784 H 0.88624 0.28825 0.71072 0.0
H785 H 0.88755 0.31262 0.64825 0.0
C786 C 0.883 0.28426 0.63824 0.0
C787 C 0.88132 0.26505 0.64322 0.0
C788 C 0.89451 0.30002 0.70533 0.0
C789 C 0.88515 0.29244 0.67157 0.0
C790 C 0.90662 0.30971 0.71766 0.0
C791 C 0.91841 0.32409 0.71062 0.0
C792 C 0.89409 0.30496 0.68595 0.0
C793 C 0.91667 0.32938 0.69147 0.0
C794 C 0.88466 0.29806 0.65239 0.0
C795 C 0.87876 0.2604 0.66245 0.0
N796 N 0.90492 0.3197 0.67979 0.0
N797 N 0.88139 0.27394 0.67605 0.0
H798 H 0.69296 0.81024 0.67455 0.0
H799 H 0.62246 0.87777 0.73133 0.0
H800 H 0.67981 0.86758 0.65727 0.0
H801 H 0.63227 0.81897 0.74586 0.0
H802 H 0.64565 0.87525 0.70596 0.0
H803 H 0.67302 0.81417 0.70245 0.0
C804 C 0.68595 0.82371 0.67666 0.0
C805 C 0.68796 0.83856 0.66346 0.0
C806 C 0.6428 0.86292 0.71475 0.0
C807 C 0.66505 0.84314 0.69543 0.0
C808 C 0.62957 0.86434 0.72928 0.0
C809 C 0.62529 0.8485 0.74067 0.0
C810 C 0.65187 0.84553 0.71156 0.0
C811 C 0.63503 0.83152 0.73737 0.0
C812 C 0.67455 0.82593 0.69261 0.0
C813 C 0.6786 0.85571 0.66701 0.0
N814 N 0.64779 0.83046 0.72306 0.0
N815 N 0.66748 0.8575 0.68262 0.0
H816 H 0.35373 0.14776 0.26894 0.0
H817 H 0.28109 0.10422 0.34397 0.0
H818 H 0.34921 0.08771 0.28113 0.0
H819 H 0.28956 0.16441 0.33503 0.0
H820 H 0.30367 0.09765 0.31872 0.0
H821 H 0.32819 0.15381 0.29106 0.0
C822 C 0.34735 0.13582 0.27626 0.0
C823 C 0.35371 0.1172 0.27327 0.0
C824 C 0.3005 0.11229 0.32221 0.0
C825 C 0.32436 0.12406 0.29863 0.0
C826 C 0.28755 0.11607 0.33658 0.0
C827 C 0.28354 0.13492 0.34173 0.0
C828 C 0.30947 0.12746 0.31291 0.0
C829 C 0.2923 0.14967 0.33163 0.0
C830 C 0.33273 0.1393 0.28888 0.0
C831 C 0.34482 0.1023 0.28308 0.0
N832 N 0.30493 0.14562 0.31778 0.0
N833 N 0.33062 0.10607 0.29538 0.0
H834 H 0.87769 0.33559 0.39504 0.0
H835 H 0.8486 0.3491 0.29025 0.0
H836 H 0.85667 0.29029 0.35946 0.0
H837 H 0.86475 0.3945 0.32806 0.0
H838 H 0.84012 0.32967 0.31782 0.0
H839 H 0.86248 0.35866 0.37438 0.0
C840 C 0.86951 0.33048 0.3831 0.0
C841 C 0.86893 0.31105 0.37862 0.0
C842 C 0.84479 0.34416 0.32013 0.0
C843 C 0.85191 0.33741 0.35451 0.0
C844 C 0.84938 0.35536 0.30432 0.0
C845 C 0.85781 0.37319 0.307 0.0
C846 C 0.84891 0.35091 0.33853 0.0
C847 C 0.85862 0.38062 0.3255 0.0
C848 C 0.86078 0.34366 0.37127 0.0
C849 C 0.85779 0.30519 0.36322 0.0
N850 N 0.85479 0.36924 0.34061 0.0
N851 N 0.85018 0.31835 0.35137 0.0
H852 H 0.70588 0.89406 0.34767 0.0
H853 H 0.63823 0.84649 0.27041 0.0
H854 H 0.70304 0.83365 0.33679 0.0
H855 H 0.6398 0.90679 0.28209 0.0
H856 H 0.6636 0.84186 0.29308 0.0
H857 H 0.68355 0.89932 0.32195 0.0
C858 C 0.70067 0.8819 0.33978 0.0
C859 C 0.70622 0.86336 0.3445 0.0
C860 C 0.65845 0.85612 0.29065 0.0
C861 C 0.68057 0.8693 0.3151 0.0
C862 C 0.64393 0.85878 0.27772 0.0
C863 C 0.63679 0.87705 0.27445 0.0
C864 C 0.66589 0.87182 0.30044 0.0
C865 C 0.64482 0.89245 0.28425 0.0
C866 C 0.68789 0.88493 0.32511 0.0
C867 C 0.69908 0.84818 0.33372 0.0
N868 N 0.6589 0.88947 0.29687 0.0
N869 N 0.68653 0.85148 0.3196 0.0
H870 H 0.14906 0.62143 0.31165 0.0
H871 H 0.10646 0.72535 0.32449 0.0
H872 H 0.12784 0.65363 0.26406 0.0
H873 H 0.0999 0.68067 0.36605 0.0
H874 H 0.12299 0.7029 0.30358 0.0
H875 H 0.13975 0.64713 0.33302 0.0
C876 C 0.1427 0.63402 0.30564 0.0
C877 C 0.13902 0.63531 0.28605 0.0
C878 C 0.11816 0.69818 0.31742 0.0
C879 C 0.12854 0.66479 0.31045 0.0
C880 C 0.10889 0.71095 0.32938 0.0
C881 C 0.10177 0.70475 0.34694 0.0
C882 C 0.12065 0.67929 0.32333 0.0
C883 C 0.10509 0.68593 0.35256 0.0
C884 C 0.13735 0.64863 0.31787 0.0
C885 C 0.13074 0.65199 0.27909 0.0
N886 N 0.11429 0.67385 0.34078 0.0
N887 N 0.12571 0.66611 0.29131 0.0
H888 H 0.34605 0.92175 0.70373 0.0
H889 H 0.26358 0.90685 0.63085 0.0
H890 H 0.30968 0.87278 0.70828 0.0
H891 H 0.31474 0.9367 0.61696 0.0
H892 H 0.27879 0.89415 0.6594 0.0
H893 H 0.33258 0.92879 0.67272 0.0
C894 C 0.33512 0.91254 0.69827 0.0
C895 C 0.32894 0.89668 0.70863 0.0
C896 C 0.28671 0.90321 0.64987 0.0
C897 C 0.31352 0.90462 0.67301 0.0
C898 C 0.2781 0.9104 0.63352 0.0
C899 C 0.28777 0.92319 0.62166 0.0
C900 C 0.30496 0.90909 0.6544 0.0
C901 C 0.30658 0.92719 0.62583 0.0
C902 C 0.32757 0.91645 0.68046 0.0
C903 C 0.31482 0.88516 0.70074 0.0
N904 N 0.31443 0.92046 0.64203 0.0
N905 N 0.30745 0.88944 0.6834 0.0
H906 H 0.13773 0.38644 0.68876 0.0
H907 H 0.05446 0.31847 0.65478 0.0
H908 H 0.08486 0.40624 0.66683 0.0
H909 H 0.10798 0.29703 0.67334 0.0
H910 H 0.06613 0.35069 0.65834 0.0
H911 H 0.12811 0.35372 0.6818 0.0
C912 C 0.12421 0.38394 0.68224 0.0
C913 C 0.11202 0.39911 0.67848 0.0
C914 C 0.07538 0.33899 0.66162 0.0
C915 C 0.10089 0.36173 0.67071 0.0
C916 C 0.06869 0.3205 0.65966 0.0
C917 C 0.08022 0.30492 0.66384 0.0
C918 C 0.09377 0.3421 0.66789 0.0
C919 C 0.09857 0.30858 0.67002 0.0
C920 C 0.11871 0.36525 0.67835 0.0
C921 C 0.09469 0.39502 0.67005 0.0
N922 N 0.10477 0.32682 0.67191 0.0
N923 N 0.0896 0.37674 0.6666 0.0
H924 H 0.65459 0.07682 0.59367 0.0
H925 H 0.66259 0.10601 0.70059 0.0
H926 H 0.70357 0.10249 0.61896 0.0
H927 H 0.61601 0.07658 0.67481 0.0
H928 H 0.67291 0.11612 0.66885 0.0
H929 H 0.63584 0.08884 0.61999 0.0
C930 C 0.66132 0.08548 0.60447 0.0
C931 C 0.68079 0.08796 0.60456 0.0
C932 C 0.66013 0.10791 0.67019 0.0
C933 C 0.65955 0.1012 0.63503 0.0
C934 C 0.65423 0.10218 0.6883 0.0
C935 C 0.63881 0.08995 0.69017 0.0
C936 C 0.65049 0.10128 0.65401 0.0
C937 C 0.62834 0.08554 0.67388 0.0
C938 C 0.65061 0.09229 0.61957 0.0
C939 C 0.68866 0.09974 0.61862 0.0
N940 N 0.63456 0.09089 0.65646 0.0
N941 N 0.67812 0.10538 0.63367 0.0
H942 H 0.91972 0.67229 0.65144 0.0
H943 H 0.83829 0.61799 0.70696 0.0
H944 H 0.87477 0.70189 0.67977 0.0
H945 H 0.88168 0.59039 0.67444 0.0
H946 H 0.84932 0.64882 0.69508 0.0
H947 H 0.90433 0.64228 0.65821 0.0
C948 C 0.9066 0.67251 0.65915 0.0
C949 C 0.89864 0.6897 0.66523 0.0
C950 C 0.85624 0.63598 0.69037 0.0
C951 C 0.8808 0.65509 0.67302 0.0
C952 C 0.8499 0.61837 0.69706 0.0
C953 C 0.85925 0.60161 0.69188 0.0
C954 C 0.87202 0.63676 0.67847 0.0
C955 C 0.87419 0.60295 0.67902 0.0
C956 C 0.89774 0.6553 0.66292 0.0
C957 C 0.88146 0.68899 0.67492 0.0
N958 N 0.88022 0.62021 0.67293 0.0
N959 N 0.87317 0.67192 0.67866 0.0
H960 H 0.30415 0.35146 0.08363 0.0
H961 H 0.345 0.2854 0.16581 0.0
H962 H 0.26875 0.3222 0.12399 0.0
H963 H 0.37845 0.31669 0.12522 0.0
H964 H 0.31696 0.30107 0.15337 0.0
H965 H 0.33146 0.3414 0.10139 0.0
C966 C 0.30212 0.34294 0.09632 0.0
C967 C 0.28417 0.3374 0.10218 0.0
C968 C 0.33048 0.30462 0.14735 0.0
C969 C 0.31554 0.32564 0.12262 0.0
C970 C 0.34648 0.29571 0.15445 0.0
C971 C 0.36405 0.29957 0.14637 0.0
C972 C 0.33215 0.31746 0.13213 0.0
C973 C 0.36517 0.31308 0.13173 0.0
C974 C 0.31776 0.33723 0.10651 0.0
C975 C 0.28238 0.32667 0.11893 0.0
N976 N 0.34945 0.3214 0.12502 0.0
N977 N 0.29793 0.32089 0.12847 0.0
H978 H 0.34298 0.69032 0.88908 0.0
H979 H 0.26063 0.65074 0.82268 0.0
H980 H 0.32991 0.71287 0.83351 0.0
H981 H 0.27435 0.62684 0.87751 0.0
H982 H 0.28368 0.67587 0.82807 0.0
H983 H 0.31575 0.66926 0.88673 0.0
C984 C 0.3343 0.69098 0.87646 0.0
C985 C 0.33886 0.70326 0.86138 0.0
C986 C 0.28156 0.66522 0.839 0.0
C987 C 0.30771 0.67913 0.85858 0.0
C988 C 0.26836 0.65086 0.83594 0.0
C989 C 0.26567 0.63653 0.84958 0.0
C990 C 0.29223 0.66525 0.85579 0.0
C991 C 0.27604 0.63752 0.86654 0.0
C992 C 0.31876 0.67893 0.87512 0.0
C993 C 0.32705 0.70354 0.84542 0.0
N994 N 0.28897 0.65153 0.86909 0.0
N995 N 0.31212 0.69156 0.84438 0.0
H996 H 0.31972 0.38104 0.88533 0.0
H997 H 0.3669 0.28142 0.8826 0.0
H998 H 0.29506 0.33143 0.85924 0.0
H999 H 0.38997 0.33148 0.90956 0.0
H1000 H 0.3461 0.30171 0.86408 0.0
H1001 H 0.35036 0.36613 0.88331 0.0
C1002 C 0.3209 0.36722 0.8786 0.0
C1003 C 0.30488 0.35718 0.87293 0.0
C1004 C 0.35603 0.30829 0.87371 0.0
C1005 C 0.33967 0.33969 0.87132 0.0
C1006 C 0.36791 0.2967 0.88433 0.0
C1007 C 0.37968 0.30473 0.8982 0.0
C1008 C 0.35587 0.32798 0.87711 0.0
C1009 C 0.38066 0.32462 0.89951 0.0
C1010 C 0.33838 0.35865 0.87752 0.0
C1011 C 0.3071 0.33948 0.86405 0.0
N1012 N 0.36861 0.33553 0.88942 0.0
N1013 N 0.32415 0.33099 0.86407 0.0
H1014 H 0.66805 0.28735 0.82742 0.0
H1015 H 0.72311 0.36782 0.88586 0.0
H1016 H 0.65385 0.30367 0.88488 0.0
H1017 H 0.73578 0.35229 0.82782 0.0
H1018 H 0.6995 0.34254 0.88687 0.0
H1019 H 0.69464 0.3092 0.8284 0.0
C1020 C 0.67058 0.29545 0.8403 0.0
C1021 C 0.65859 0.29376 0.85604 0.0
C1022 C 0.70754 0.34459 0.87396 0.0
C1023 C 0.68907 0.31892 0.85723 0.0
C1024 C 0.72106 0.359 0.87338 0.0
C1025 C 0.73137 0.36229 0.85667 0.0
C1026 C 0.70429 0.33338 0.85771 0.0
C1027 C 0.7281 0.35037 0.84097 0.0
C1028 C 0.68578 0.30795 0.84084 0.0
C1029 C 0.66265 0.30457 0.87236 0.0
N1030 N 0.7148 0.33655 0.84184 0.0
N1031 N 0.67747 0.31677 0.87249 0.0
H1032 H 0.70643 0.65597 0.86705 0.0
H1033 H 0.6281 0.70164 0.89109 0.0
H1034 H 0.68365 0.60882 0.89875 0.0
H1035 H 0.61112 0.64944 0.91854 0.0
H1036 H 0.65051 0.68404 0.87229 0.0
H1037 H 0.67502 0.6685 0.86302 0.0
C1038 C 0.69468 0.64791 0.87258 0.0
C1039 C 0.6976 0.63179 0.88389 0.0
C1040 C 0.64179 0.6762 0.88211 0.0
C1041 C 0.66164 0.64642 0.88025 0.0
C1042 C 0.62887 0.68636 0.89293 0.0
C1043 C 0.61829 0.67714 0.90705 0.0
C1044 C 0.6443 0.65666 0.88561 0.0
C1045 C 0.61946 0.65728 0.90832 0.0
C1046 C 0.67664 0.65525 0.87059 0.0
C1047 C 0.68196 0.62169 0.89047 0.0
N1048 N 0.63254 0.6478 0.89808 0.0
N1049 N 0.6647 0.62943 0.88898 0.0
H1050 H 0.65277 0.70238 0.18121 0.0
H1051 H 0.70499 0.64829 0.09717 0.0
H1052 H 0.62517 0.67084 0.13649 0.0
H1053 H 0.73472 0.67732 0.14209 0.0
H1054 H 0.67586 0.65298 0.11428 0.0
H1055 H 0.68292 0.69031 0.16995 0.0
C1056 C 0.65302 0.69274 0.16919 0.0
C1057 C 0.63645 0.68782 0.1596 0.0
C1058 C 0.68871 0.65821 0.12058 0.0
C1059 C 0.67082 0.67401 0.14669 0.0
C1060 C 0.70537 0.65554 0.11078 0.0
C1061 C 0.72221 0.6627 0.11811 0.0
C1062 C 0.68876 0.66843 0.13775 0.0
C1063 C 0.72197 0.67169 0.13594 0.0
C1064 C 0.67023 0.68587 0.16278 0.0
C1065 C 0.63759 0.67523 0.14417 0.0
N1066 N 0.7054 0.67461 0.14505 0.0
N1067 N 0.65447 0.66891 0.13813 0.0
H1068 H 0.30726 0.70475 0.117 0.0
H1069 H 0.27116 0.61615 0.05557 0.0
H1070 H 0.33644 0.68277 0.06791 0.0
H1071 H 0.24578 0.63468 0.10815 0.0
H1072 H 0.2926 0.64331 0.05716 0.0
H1073 H 0.28199 0.68206 0.11116 0.0
C1074 C 0.30829 0.69526 0.10489 0.0
C1075 C 0.3241 0.69548 0.09307 0.0
C1076 C 0.28224 0.64149 0.06827 0.0
C1077 C 0.29526 0.66942 0.08635 0.0
C1078 C 0.26999 0.62601 0.06735 0.0
C1079 C 0.25683 0.62302 0.08188 0.0
C1080 C 0.28128 0.65405 0.08379 0.0
C1081 C 0.25585 0.6363 0.09676 0.0
C1082 C 0.29386 0.68229 0.10158 0.0
C1083 C 0.32459 0.68296 0.0775 0.0
N1084 N 0.268 0.65116 0.09739 0.0
N1085 N 0.31045 0.67032 0.07469 0.0
H1086 H 0.71552 0.39244 0.06443 0.0
H1087 H 0.68266 0.30083 0.12355 0.0
H1088 H 0.72917 0.38234 0.12343 0.0
H1089 H 0.66366 0.31273 0.06646 0.0
H1090 H 0.7025 0.32905 0.12228 0.0
H1091 H 0.69866 0.36203 0.06368 0.0
C1092 C 0.71497 0.38385 0.07721 0.0
C1093 C 0.72368 0.39 0.09405 0.0
C1094 C 0.69409 0.32545 0.10997 0.0
C1095 C 0.70457 0.35519 0.09324 0.0
C1096 C 0.68279 0.30927 0.11065 0.0
C1097 C 0.67134 0.30448 0.09515 0.0
C1098 C 0.69395 0.33701 0.09367 0.0
C1099 C 0.6722 0.31593 0.07878 0.0
C1100 C 0.70538 0.36648 0.07676 0.0
C1101 C 0.72259 0.37825 0.11016 0.0
N1102 N 0.6832 0.33176 0.07852 0.0
N1103 N 0.71321 0.36145 0.10935 0.0
H1104 H 0.60802 0.82727 0.8152 0.0
H1105 H 0.6135 0.80607 0.92681 0.0
H1106 H 0.59094 0.86724 0.85844 0.0
H1107 H 0.60875 0.76258 0.88366 0.0
H1108 H 0.61447 0.83026 0.90173 0.0
H1109 H 0.61827 0.80546 0.84026 0.0
C1110 C 0.60693 0.8317 0.82993 0.0
C1111 C 0.59834 0.84894 0.83479 0.0
C1112 C 0.61344 0.81539 0.8978 0.0
C1113 C 0.60988 0.82409 0.86338 0.0
C1114 C 0.61287 0.80159 0.91207 0.0
C1115 C 0.61074 0.78233 0.90729 0.0
C1116 C 0.61211 0.80983 0.87865 0.0
C1117 C 0.6101 0.77731 0.88796 0.0
C1118 C 0.61263 0.81918 0.8442 0.0
C1119 C 0.59723 0.85394 0.85411 0.0
N1120 N 0.61069 0.791 0.87434 0.0
N1121 N 0.60273 0.84147 0.86773 0.0
H1122 H 0.19453 0.62036 0.81826 0.0
H1123 H 0.08345 0.63343 0.82029 0.0
H1124 H 0.15664 0.58479 0.85035 0.0
H1125 H 0.11768 0.65155 0.77294 0.0
H1126 H 0.11159 0.62273 0.83674 0.0
H1127 H 0.16762 0.63879 0.80675 0.0
C1128 C 0.1806 0.61665 0.82312 0.0
C1129 C 0.17772 0.60091 0.83506 0.0
C1130 C 0.11294 0.62926 0.82284 0.0
C1131 C 0.14715 0.6219 0.82221 0.0
C1132 C 0.09689 0.63542 0.81345 0.0
C1133 C 0.09819 0.64313 0.79508 0.0
C1134 C 0.13041 0.63095 0.81388 0.0
C1135 C 0.11603 0.64545 0.78699 0.0
C1136 C 0.16531 0.62709 0.81651 0.0
C1137 C 0.15943 0.59666 0.84093 0.0
N1138 N 0.13146 0.63924 0.79639 0.0
N1139 N 0.14484 0.60705 0.83441 0.0
H1140 H 0.41259 0.11438 0.84116 0.0
H1141 H 0.3941 0.2206 0.86987 0.0
H1142 H 0.39625 0.15645 0.79977 0.0
H1143 H 0.38815 0.17453 0.91005 0.0
H1144 H 0.3946 0.19742 0.8439 0.0
H1145 H 0.40274 0.13578 0.86663 0.0
C1146 C 0.40654 0.12799 0.83745 0.0
C1147 C 0.40533 0.13374 0.81838 0.0
C1148 C 0.39295 0.19241 0.85838 0.0
C1149 C 0.39455 0.15849 0.84741 0.0
C1150 C 0.39282 0.20562 0.87322 0.0
C1151 C 0.39129 0.19946 0.89216 0.0
C1152 C 0.39189 0.1729 0.86254 0.0
C1153 C 0.38947 0.17989 0.89566 0.0
C1154 C 0.40095 0.14021 0.85198 0.0
C1155 C 0.39737 0.15148 0.81431 0.0
N1156 N 0.39007 0.16728 0.88101 0.0
N1157 N 0.39264 0.16344 0.82875 0.0
H1158 H 0.91249 0.3643 0.81457 0.0
H1159 H 0.80235 0.37288 0.83258 0.0
H1160 H 0.87169 0.33155 0.7831 0.0
H1161 H 0.84441 0.40901 0.85804 0.0
H1162 H 0.82733 0.35386 0.81802 0.0
H1163 H 0.88753 0.37691 0.83435 0.0
C1164 C 0.89827 0.35964 0.8119 0.0
C1165 C 0.89416 0.34704 0.79697 0.0
C1166 C 0.83103 0.36585 0.82696 0.0
C1167 C 0.86536 0.36161 0.81957 0.0
C1168 C 0.8168 0.37664 0.83532 0.0
C1169 C 0.82131 0.39271 0.84631 0.0
C1170 C 0.84982 0.37112 0.82979 0.0
C1171 C 0.84026 0.39694 0.84943 0.0
C1172 C 0.88399 0.36686 0.82322 0.0
C1173 C 0.87547 0.34134 0.79437 0.0
N1174 N 0.85376 0.38631 0.84113 0.0
N1175 N 0.86171 0.34884 0.80543 0.0
H1176 H 0.65726 0.22431 0.1274 0.0
H1177 H 0.62527 0.11952 0.14264 0.0
H1178 H 0.63808 0.18648 0.08325 0.0
H1179 H 0.64334 0.15692 0.18777 0.0
H1180 H 0.64105 0.13993 0.11962 0.0
H1181 H 0.66413 0.19677 0.14747 0.0
C1182 C 0.65547 0.21016 0.12153 0.0
C1183 C 0.64671 0.20758 0.10387 0.0
C1184 C 0.64196 0.14352 0.13459 0.0
C1185 C 0.65385 0.17615 0.12685 0.0
C1186 C 0.63289 0.13186 0.14774 0.0
C1187 C 0.63253 0.13686 0.16706 0.0
C1188 C 0.65027 0.16061 0.14072 0.0
C1189 C 0.643 0.15274 0.17294 0.0
C1190 C 0.65913 0.19442 0.1331 0.0
C1191 C 0.64455 0.189 0.09696 0.0
N1192 N 0.65101 0.16437 0.15975 0.0
N1193 N 0.64759 0.17399 0.10866 0.0
H1194 H 0.8803 0.58522 0.20034 0.0
H1195 H 0.80419 0.66488 0.1769 0.0
H1196 H 0.8677 0.63218 0.23778 0.0
H1197 H 0.81676 0.61772 0.1397 0.0
H1198 H 0.82506 0.65136 0.20085 0.0
H1199 H 0.85476 0.59507 0.17953 0.0
C1200 C 0.87206 0.59749 0.20429 0.0
C1201 C 0.87629 0.60799 0.22074 0.0
C1202 C 0.82313 0.64389 0.18751 0.0
C1203 C 0.84707 0.61945 0.19688 0.0
C1204 C 0.8112 0.6516 0.17382 0.0
C1205 C 0.80885 0.64253 0.15617 0.0
C1206 C 0.83284 0.62701 0.18351 0.0
C1207 C 0.81824 0.6253 0.15303 0.0
C1208 C 0.85747 0.60313 0.19238 0.0
C1209 C 0.86504 0.62372 0.22518 0.0
N1210 N 0.82992 0.61819 0.1665 0.0
N1211 N 0.85107 0.62906 0.21323 0.0
H1212 H 0.3423 0.7657 0.12865 0.0
H1213 H 0.36481 0.8731 0.14759 0.0
H1214 H 0.3692 0.80443 0.08969 0.0
H1215 H 0.34881 0.8326 0.19077 0.0
H1216 H 0.35258 0.85168 0.12325 0.0
H1217 H 0.33114 0.79291 0.14721 0.0
C1218 C 0.34509 0.77996 0.1235 0.0
C1219 C 0.35703 0.78293 0.10793 0.0
C1220 C 0.35126 0.84766 0.13807 0.0
C1221 C 0.34466 0.81393 0.12913 0.0
C1222 C 0.35824 0.85989 0.15198 0.0
C1223 C 0.35836 0.85429 0.17113 0.0
C1224 C 0.34482 0.82951 0.14334 0.0
C1225 C 0.3493 0.83727 0.1761 0.0
C1226 C 0.33886 0.79548 0.13419 0.0
C1227 C 0.36031 0.80161 0.10186 0.0
N1228 N 0.34339 0.82516 0.16221 0.0
N1229 N 0.3545 0.81642 0.1127 0.0
H1230 H 0.20082 0.34724 0.14684 0.0
H1231 H 0.12691 0.41269 0.2015 0.0
H1232 H 0.17587 0.39774 0.12303 0.0
H1233 H 0.14812 0.36011 0.22454 0.0
H1234 H 0.14757 0.4091 0.17418 0.0
H1235 H 0.1842 0.35322 0.1767 0.0
C1236 C 0.19192 0.35963 0.14791 0.0
C1237 C 0.18961 0.37193 0.13234 0.0
C1238 C 0.14782 0.39838 0.18524 0.0
C1239 C 0.17061 0.37885 0.16647 0.0
C1240 C 0.13603 0.40044 0.20089 0.0
C1241 C 0.13564 0.38657 0.21525 0.0
C1242 C 0.1593 0.38229 0.18384 0.0
C1243 C 0.1479 0.37109 0.21375 0.0
C1244 C 0.18245 0.36303 0.16496 0.0
C1245 C 0.17797 0.38779 0.13458 0.0
N1246 N 0.15913 0.36928 0.19822 0.0
N1247 N 0.16887 0.39074 0.15128 0.0
H1248 H 0.75767 0.60482 0.81844 0.0
H1249 H 0.85961 0.57012 0.79835 0.0
H1250 H 0.80511 0.62588 0.8503 0.0
H1251 H 0.82021 0.57531 0.75214 0.0
H1252 H 0.83883 0.58891 0.81846 0.0
H1253 H 0.77926 0.59258 0.79421 0.0
C1254 C 0.77256 0.6071 0.82022 0.0
C1255 C 0.77961 0.61616 0.83653 0.0
C1256 C 0.83482 0.58612 0.80385 0.0
C1257 C 0.80419 0.60204 0.80916 0.0
C1258 C 0.84661 0.57533 0.79243 0.0
C1259 C 0.84152 0.57113 0.77364 0.0
C1260 C 0.81764 0.59236 0.79657 0.0
C1261 C 0.8246 0.57831 0.76658 0.0
C1262 C 0.78483 0.60017 0.80639 0.0
C1263 C 0.79903 0.61883 0.83806 0.0
N1264 N 0.81304 0.58836 0.77818 0.0
N1265 N 0.81065 0.61152 0.82471 0.0
H1266 H 0.35737 0.88648 0.83297 0.0
H1267 H 0.35957 0.77302 0.83906 0.0
H1268 H 0.33809 0.85004 0.78749 0.0
H1269 H 0.39119 0.81113 0.87501 0.0
H1270 H 0.34433 0.80068 0.8244 0.0
H1271 H 0.36192 0.85854 0.85293 0.0
C1272 C 0.35383 0.8726 0.82727 0.0
C1273 C 0.34777 0.87057 0.80839 0.0
C1274 C 0.35439 0.8029 0.83571 0.0
C1275 C 0.3531 0.83846 0.83114 0.0
C1276 C 0.36301 0.78716 0.84412 0.0
C1277 C 0.37685 0.78986 0.85805 0.0
C1278 C 0.3595 0.82134 0.84152 0.0
C1279 C 0.38082 0.80844 0.8641 0.0
C1280 C 0.35646 0.85665 0.83867 0.0
C1281 C 0.34306 0.85225 0.80188 0.0
N1282 N 0.37229 0.82345 0.85571 0.0
N1283 N 0.34612 0.83683 0.81315 0.0
H1284 H 0.23 0.37012 0.81305 0.0
H1285 H 0.13912 0.42552 0.78956 0.0
H1286 H 0.17752 0.35638 0.84032 0.0
H1287 H 0.17816 0.4131 0.7444 0.0
H1288 H 0.15458 0.40194 0.80956 0.0
H1289 H 0.21276 0.38681 0.78798 0.0
C1290 C 0.21485 0.37027 0.81354 0.0
C1291 C 0.20516 0.36209 0.8289 0.0
C1292 C 0.15967 0.40427 0.79522 0.0
C1293 C 0.18558 0.38141 0.80068 0.0
C1294 C 0.151 0.41785 0.7839 0.0
C1295 C 0.15751 0.42132 0.76541 0.0
C1296 C 0.17522 0.39443 0.78816 0.0
C1297 C 0.17279 0.41082 0.75863 0.0
C1298 C 0.20507 0.37976 0.79926 0.0
C1299 C 0.18555 0.3626 0.82882 0.0
N1300 N 0.18136 0.39799 0.77015 0.0
N1301 N 0.17641 0.3725 0.81514 0.0
H1302 H 0.65167 0.10986 0.82145 0.0
H1303 H 0.63094 0.22146 0.82219 0.0
H1304 H 0.63696 0.14093 0.77065 0.0
H1305 H 0.61744 0.18401 0.86884 0.0
H1306 H 0.64307 0.19401 0.8043 0.0
H1307 H 0.64875 0.13919 0.83991 0.0
C1308 C 0.64805 0.12289 0.81412 0.0
C1309 C 0.64431 0.12292 0.79451 0.0
C1310 C 0.63781 0.19195 0.81862 0.0
C1311 C 0.64122 0.1565 0.81554 0.0
C1312 C 0.63109 0.20757 0.82886 0.0
C1313 C 0.62319 0.20486 0.84693 0.0
C1314 C 0.6369 0.17372 0.82675 0.0
C1315 C 0.6234 0.18659 0.8549 0.0
C1316 C 0.64638 0.13959 0.82468 0.0
C1317 C 0.63972 0.14025 0.78578 0.0
N1318 N 0.63008 0.17168 0.84472 0.0
N1319 N 0.63825 0.15638 0.79638 0.0
H1320 H 0.85611 0.4182 0.20337 0.0
H1321 H 0.78127 0.40016 0.12341 0.0
H1322 H 0.83046 0.36265 0.19889 0.0
H1323 H 0.83015 0.43564 0.11542 0.0
H1324 H 0.79573 0.38697 0.15225 0.0
H1325 H 0.84209 0.42693 0.17307 0.0
C1326 C 0.84734 0.40789 0.19613 0.0
C1327 C 0.84451 0.38962 0.20364 0.0
C1328 C 0.80331 0.39743 0.14392 0.0
C1329 C 0.82849 0.39956 0.16884 0.0
C1330 C 0.79515 0.4049 0.12744 0.0
C1331 C 0.80436 0.4193 0.11712 0.0
C1332 C 0.82056 0.40467 0.15015 0.0
C1333 C 0.82234 0.42483 0.12302 0.0
C1334 C 0.83951 0.41283 0.17873 0.0
C1335 C 0.83304 0.37685 0.19353 0.0
N1336 N 0.82968 0.41777 0.13931 0.0
N1337 N 0.82534 0.38209 0.1766 0.0
H1338 H 0.61057 0.87051 0.15899 0.0
H1339 H 0.61506 0.76201 0.18629 0.0
H1340 H 0.6259 0.84965 0.21457 0.0
H1341 H 0.59022 0.78566 0.13572 0.0
H1342 H 0.63072 0.79268 0.19221 0.0
H1343 H 0.6162 0.83895 0.14586 0.0
C1344 C 0.61572 0.85944 0.16833 0.0
C1345 C 0.61707 0.86251 0.18801 0.0
C1346 C 0.62228 0.79096 0.17952 0.0
C1347 C 0.62292 0.82623 0.17321 0.0
C1348 C 0.6134 0.77348 0.17614 0.0
C1349 C 0.60105 0.77161 0.16077 0.0
C1350 C 0.61879 0.80641 0.16731 0.0
C1351 C 0.59934 0.78677 0.14798 0.0
C1352 C 0.61884 0.84137 0.16085 0.0
C1353 C 0.62422 0.84778 0.19937 0.0
N1354 N 0.60788 0.80361 0.15167 0.0
N1355 N 0.62628 0.83006 0.19192 0.0
H1356 H 0.10973 0.59052 0.16741 0.0
H1357 H 0.19519 0.613 0.10229 0.0
H1358 H 0.16023 0.61844 0.18616 0.0
H1359 H 0.14694 0.57946 0.08646 0.0
H1360 H 0.17726 0.62677 0.12838 0.0
H1361 H 0.11749 0.59858 0.13459 0.0
C1362 C 0.1222 0.59886 0.16461 0.0
C1363 C 0.13464 0.60339 0.17935 0.0
C1364 C 0.17041 0.61683 0.11885 0.0
C1365 C 0.14397 0.61205 0.14184 0.0
C1366 C 0.18063 0.60898 0.10386 0.0
C1367 C 0.17278 0.59441 0.09268 0.0
C1368 C 0.1523 0.61001 0.12262 0.0
C1369 C 0.15376 0.59014 0.09516 0.0
C1370 C 0.12666 0.60344 0.14587 0.0
C1371 C 0.15043 0.61446 0.17509 0.0
N1372 N 0.14431 0.59753 0.11017 0.0
N1373 N 0.15498 0.61792 0.1566 0.0
H1374 H 0.40213 0.19863 0.12668 0.0
H1375 H 0.36362 0.14119 0.21173 0.0
H1376 H 0.38207 0.22465 0.17829 0.0
H1377 H 0.37805 0.1171 0.1572 0.0
H1378 H 0.35966 0.1721 0.19656 0.0
H1379 H 0.38378 0.17025 0.13385 0.0
C1380 C 0.39352 0.19842 0.13939 0.0
C1381 C 0.39388 0.21369 0.15217 0.0
C1382 C 0.36307 0.15994 0.18777 0.0
C1383 C 0.37334 0.18105 0.16089 0.0
C1384 C 0.3652 0.14219 0.19642 0.0
C1385 C 0.37201 0.12675 0.18582 0.0
C1386 C 0.36791 0.16213 0.1685 0.0
C1387 C 0.37347 0.12883 0.16602 0.0
C1388 C 0.38299 0.18225 0.14348 0.0
C1389 C 0.38229 0.21298 0.16824 0.0
N1390 N 0.37201 0.14634 0.15808 0.0
N1391 N 0.37288 0.19664 0.17247 0.0
H1392 H 0.8684 0.81883 0.66705 0.0
H1393 H 0.75981 0.8051 0.64401 0.0
H1394 H 0.84264 0.76364 0.65991 0.0
H1395 H 0.79331 0.85134 0.62224 0.0
H1396 H 0.7875 0.79292 0.66085 0.0
H1397 H 0.838 0.8337 0.66149 0.0
C1398 C 0.8563 0.80982 0.66464 0.0
C1399 C 0.85806 0.78998 0.66362 0.0
C1400 C 0.78859 0.80598 0.65274 0.0
C1401 C 0.82335 0.8069 0.65755 0.0
C1402 C 0.77285 0.81298 0.64331 0.0
C1403 C 0.77447 0.82912 0.63172 0.0
C1404 C 0.80579 0.81549 0.6508 0.0
C1405 C 0.79163 0.83877 0.63099 0.0
C1406 C 0.839 0.81833 0.66147 0.0
C1407 C 0.84191 0.779 0.66052 0.0
N1408 N 0.8067 0.83175 0.64033 0.0
N1409 N 0.82519 0.78763 0.65747 0.0
H1410 H 0.8516 0.20788 0.40626 0.0
H1411 H 0.78415 0.15022 0.33597 0.0
H1412 H 0.83982 0.22498 0.34848 0.0
H1413 H 0.79626 0.13252 0.3935 0.0
H1414 H 0.80228 0.17919 0.34131 0.0
H1415 H 0.82916 0.18182 0.40289 0.0
C1416 C 0.84419 0.20626 0.39291 0.0
C1417 C 0.84774 0.21853 0.37756 0.0
C1418 C 0.8009 0.16903 0.35282 0.0
C1419 C 0.82208 0.18866 0.37359 0.0
C1420 C 0.79054 0.15246 0.34978 0.0
C1421 C 0.78882 0.13883 0.36426 0.0
C1422 C 0.80967 0.172 0.37046 0.0
C1423 C 0.7973 0.14259 0.38189 0.0
C1424 C 0.83138 0.19135 0.39099 0.0
C1425 C 0.83764 0.21579 0.36064 0.0
N1426 N 0.80747 0.15876 0.38445 0.0
N1427 N 0.82538 0.20107 0.35907 0.0
H1428 H 0.77971 0.827 0.36987 0.0
H1429 H 0.87663 0.80671 0.41438 0.0
H1430 H 0.81858 0.86957 0.38974 0.0
H1431 H 0.83818 0.76332 0.39521 0.0
H1432 H 0.86093 0.8297 0.39403 0.0
H1433 H 0.80555 0.80457 0.36664 0.0
C1434 C 0.79383 0.83192 0.37262 0.0
C1435 C 0.79704 0.84988 0.38068 0.0
C1436 C 0.85611 0.81508 0.39391 0.0
C1437 C 0.82644 0.82429 0.37762 0.0
C1438 C 0.86504 0.80197 0.40562 0.0
C1439 C 0.85825 0.78329 0.40695 0.0
C1440 C 0.83991 0.80961 0.38395 0.0
C1441 C 0.84357 0.77773 0.3949 0.0
C1442 C 0.80858 0.81904 0.37099 0.0
C1443 C 0.81554 0.85561 0.38396 0.0
N1444 N 0.83451 0.79099 0.3843 0.0
N1445 N 0.82951 0.84267 0.38294 0.0
H1446 H 0.13065 0.79397 0.36275 0.0
H1447 H 0.17285 0.8842 0.41776 0.0
H1448 H 0.10658 0.81746 0.41395 0.0
H1449 H 0.19875 0.85883 0.36841 0.0
H1450 H 0.14924 0.85899 0.41742 0.0
H1451 H 0.15634 0.8169 0.3652 0.0
C1452 C 0.13077 0.80392 0.37452 0.0
C1453 C 0.11637 0.80385 0.3881 0.0
C1454 C 0.16015 0.85886 0.40674 0.0
C1455 C 0.14575 0.83015 0.39101 0.0
C1456 C 0.17367 0.87325 0.40694 0.0
C1457 C 0.18775 0.87372 0.39302 0.0
C1458 C 0.16064 0.84486 0.39246 0.0
C1459 C 0.18812 0.8591 0.37938 0.0
C1460 C 0.14547 0.81699 0.37594 0.0
C1461 C 0.11732 0.81704 0.4031 0.0
N1462 N 0.17469 0.84536 0.37937 0.0
N1463 N 0.13171 0.82969 0.4041 0.0
H1464 H 0.20084 0.16394 0.36787 0.0
H1465 H 0.10552 0.17313 0.41995 0.0
H1466 H 0.17153 0.11824 0.39596 0.0
H1467 H 0.1356 0.21976 0.39404 0.0
H1468 H 0.12314 0.15095 0.4003 0.0
H1469 H 0.17144 0.18141 0.36544 0.0
C1470 C 0.18804 0.15717 0.37265 0.0
C1471 C 0.1886 0.13994 0.38266 0.0
C1472 C 0.12563 0.16606 0.39858 0.0
C1473 C 0.1552 0.15998 0.38054 0.0
C1474 C 0.1156 0.17874 0.40988 0.0
C1475 C 0.11961 0.19827 0.40918 0.0
C1476 C 0.14008 0.17292 0.38684 0.0
C1477 C 0.13241 0.20476 0.39544 0.0
C1478 C 0.17126 0.16724 0.37148 0.0
C1479 C 0.17167 0.13176 0.38857 0.0
N1480 N 0.14257 0.19208 0.38519 0.0
N1481 N 0.15571 0.14208 0.38792 0.0
H1482 H 0.2044 0.15265 0.62121 0.0
H1483 H 0.14556 0.23883 0.65673 0.0
H1484 H 0.23085 0.20606 0.63501 0.0
H1485 H 0.12859 0.18094 0.66814 0.0
H1486 H 0.17704 0.22749 0.6492 0.0
H1487 H 0.17663 0.16249 0.63902 0.0
C1488 C 0.20445 0.16627 0.62846 0.0
C1489 C 0.21981 0.17856 0.62689 0.0
C1490 C 0.16649 0.21734 0.65366 0.0
C1491 C 0.18803 0.1902 0.64655 0.0
C1492 C 0.14851 0.22378 0.65786 0.0
C1493 C 0.13439 0.21078 0.66283 0.0
C1494 C 0.17023 0.19775 0.65408 0.0
C1495 C 0.13902 0.19145 0.66423 0.0
C1496 C 0.18865 0.1719 0.63856 0.0
C1497 C 0.21925 0.19617 0.63617 0.0
N1498 N 0.15646 0.18547 0.65955 0.0
N1499 N 0.20341 0.20168 0.64534 0.0
H1500 H 0.75816 0.11871 0.63065 0.0
H1501 H 0.84107 0.17903 0.58351 0.0
H1502 H 0.7785 0.10952 0.5735 0.0
H1503 H 0.82495 0.18344 0.6426 0.0
H1504 H 0.81519 0.1569 0.57823 0.0
H1505 H 0.77969 0.14551 0.6339 0.0
C1506 C 0.7671 0.12237 0.61873 0.0
C1507 C 0.76667 0.11172 0.60184 0.0
C1508 C 0.81722 0.16284 0.59231 0.0
C1509 C 0.79135 0.14244 0.60548 0.0
C1510 C 0.83196 0.17553 0.59534 0.0
C1511 C 0.83533 0.18292 0.6136 0.0
C1512 C 0.80575 0.1575 0.60765 0.0
C1513 C 0.82299 0.17796 0.62833 0.0
C1514 C 0.77938 0.1377 0.62061 0.0
C1515 C 0.77847 0.11724 0.58684 0.0
N1516 N 0.80884 0.16543 0.62507 0.0
N1517 N 0.79042 0.13216 0.58905 0.0
H1518 H 0.20599 0.89373 0.5997 0.0
H1519 H 0.12586 0.83744 0.54351 0.0
H1520 H 0.18326 0.91255 0.54601 0.0
H1521 H 0.15209 0.81668 0.59476 0.0
H1522 H 0.14767 0.86428 0.5433 0.0
H1523 H 0.18692 0.86498 0.59757 0.0
C1524 C 0.19697 0.89184 0.58746 0.0
C1525 C 0.19615 0.90565 0.57306 0.0
C1526 C 0.14876 0.85377 0.5545 0.0
C1527 C 0.17427 0.87264 0.5705 0.0
C1528 C 0.13633 0.8384 0.55461 0.0
C1529 C 0.13704 0.82486 0.56927 0.0
C1530 C 0.16193 0.85567 0.56921 0.0
C1531 C 0.15096 0.82681 0.58323 0.0
C1532 C 0.18612 0.87536 0.58622 0.0
C1533 C 0.18428 0.90233 0.55748 0.0
N1534 N 0.16274 0.84202 0.58294 0.0
N1535 N 0.17375 0.8862 0.55665 0.0
H1536 H 0.086 0.28378 0.49748 0.0
H1537 H 0.09474 0.23026 0.59709 0.0
H1538 H 0.10943 0.22753 0.50266 0.0
H1539 H 0.05307 0.2732 0.58625 0.0
H1540 H 0.10387 0.23159 0.56349 0.0
H1541 H 0.07729 0.28267 0.5312 0.0
C1542 C 0.08933 0.27122 0.50572 0.0
C1543 C 0.09838 0.25569 0.49728 0.0
C1544 C 0.09272 0.24068 0.56851 0.0
C1545 C 0.08866 0.25442 0.53578 0.0
C1546 C 0.08755 0.23999 0.58767 0.0
C1547 C 0.07308 0.25159 0.59447 0.0
C1548 C 0.08356 0.25329 0.55616 0.0
C1549 C 0.06421 0.2639 0.58161 0.0
C1550 C 0.08431 0.27057 0.52491 0.0
C1551 C 0.10235 0.23976 0.50859 0.0
N1552 N 0.06966 0.2645 0.56309 0.0
N1553 N 0.09756 0.23957 0.52731 0.0
H1554 H 0.69225 0.0463 0.51409 0.0
H1555 H 0.75673 0.08669 0.43005 0.0
H1556 H 0.7446 0.07552 0.52406 0.0
H1557 H 0.70685 0.05289 0.42165 0.0
H1558 H 0.75076 0.08643 0.46442 0.0
H1559 H 0.69569 0.05224 0.48016 0.0
C1560 C 0.70445 0.05406 0.50918 0.0
C1561 C 0.71825 0.06024 0.522 0.0
C1562 C 0.74106 0.07922 0.455 0.0
C1563 C 0.72231 0.06706 0.48295 0.0
C1564 C 0.74442 0.07942 0.43538 0.0
C1565 C 0.73238 0.06963 0.42294 0.0
C1566 C 0.72553 0.06922 0.46219 0.0
C1567 C 0.71665 0.06045 0.43067 0.0
C1568 C 0.7064 0.05745 0.48975 0.0
C1569 C 0.73366 0.07038 0.51472 0.0
N1570 N 0.71375 0.06039 0.44976 0.0
N1571 N 0.73535 0.07335 0.49565 0.0
H1572 H 0.89528 0.70137 0.49687 0.0
H1573 H 0.88893 0.75918 0.59469 0.0
H1574 H 0.8692 0.75648 0.50111 0.0
H1575 H 0.92816 0.71372 0.58461 0.0
H1576 H 0.87853 0.75654 0.56152 0.0
H1577 H 0.90442 0.70374 0.53031 0.0
C1578 C 0.89145 0.71395 0.50484 0.0
C1579 C 0.88156 0.7288 0.49618 0.0
C1580 C 0.88943 0.74718 0.56663 0.0
C1581 C 0.89188 0.73156 0.53446 0.0
C1582 C 0.89532 0.74864 0.58555 0.0
C1583 C 0.90949 0.73671 0.59244 0.0
C1584 C 0.89759 0.73355 0.55462 0.0
C1585 C 0.91729 0.72332 0.57993 0.0
C1586 C 0.89671 0.71533 0.52391 0.0
C1587 C 0.87695 0.74477 0.5072 0.0
N1588 N 0.9112 0.72206 0.56168 0.0
N1589 N 0.88211 0.74573 0.5258 0.0
H1590 H 0.28882 0.93325 0.43169 0.0
H1591 H 0.23645 0.92569 0.53177 0.0
H1592 H 0.23287 0.9108 0.43795 0.0
H1593 H 0.29113 0.95078 0.52376 0.0
H1594 H 0.23654 0.91574 0.49842 0.0
H1595 H 0.29163 0.93488 0.46617 0.0
C1596 C 0.27719 0.92842 0.44033 0.0
C1597 C 0.26048 0.92212 0.43188 0.0
C1598 C 0.24858 0.92327 0.50402 0.0
C1599 C 0.26353 0.92421 0.47154 0.0
C1600 C 0.24856 0.92897 0.52308 0.0
C1601 C 0.26372 0.93934 0.53058 0.0
C1602 C 0.26387 0.92794 0.49235 0.0
C1603 C 0.27905 0.94302 0.51862 0.0
C1604 C 0.2788 0.92939 0.46006 0.0
C1605 C 0.24598 0.91583 0.44384 0.0
N1606 N 0.27865 0.93746 0.50011 0.0
N1607 N 0.24774 0.91729 0.46309 0.0
H1608 H 0.08108 0.72025 0.53447 0.0
H1609 H 0.09762 0.76411 0.43113 0.0
H1610 H 0.10367 0.77654 0.52527 0.0
H1611 H 0.07297 0.70898 0.44203 0.0
H1612 H 0.10467 0.76715 0.46507 0.0
H1613 H 0.08288 0.71421 0.50045 0.0
C1614 C 0.08657 0.73133 0.52529 0.0
C1615 C 0.09195 0.74906 0.53272 0.0
C1616 C 0.09793 0.7543 0.45997 0.0
C1617 C 0.0939 0.74225 0.49353 0.0
C1618 C 0.09393 0.75251 0.44057 0.0
C1619 C 0.08441 0.73637 0.43371 0.0
C1620 C 0.0924 0.73984 0.47258 0.0
C1621 C 0.08009 0.72179 0.44665 0.0
C1622 C 0.08761 0.72784 0.50582 0.0
C1623 C 0.09925 0.76272 0.52013 0.0
N1624 N 0.08395 0.72397 0.46544 0.0
N1625 N 0.09977 0.75912 0.50108 0.0
H1626 H 0.29643 0.13028 0.44806 0.0
H1627 H 0.26313 0.18639 0.54052 0.0
H1628 H 0.24091 0.15255 0.45699 0.0
H1629 H 0.30652 0.14406 0.54448 0.0
H1630 H 0.25966 0.17916 0.50686 0.0
H1631 H 0.30436 0.13908 0.48112 0.0
C1632 C 0.28593 0.13689 0.45696 0.0
C1633 C 0.26796 0.14062 0.44981 0.0
C1634 C 0.27002 0.1715 0.51504 0.0
C1635 C 0.27704 0.15104 0.48706 0.0
C1636 C 0.27205 0.17565 0.53425 0.0
C1637 C 0.28486 0.16553 0.54537 0.0
C1638 C 0.28092 0.15716 0.50678 0.0
C1639 C 0.29637 0.15208 0.53638 0.0
C1640 C 0.29047 0.14191 0.47572 0.0
C1641 C 0.25488 0.14926 0.46187 0.0
N1642 N 0.29401 0.1481 0.51755 0.0
N1643 N 0.25973 0.15427 0.4798 0.0
H1644 H 0.91776 0.2695 0.55823 0.0
H1645 H 0.8816 0.2415 0.45468 0.0
H1646 H 0.88285 0.22035 0.54773 0.0
H1647 H 0.91095 0.29366 0.46801 0.0
H1648 H 0.87947 0.23454 0.48875 0.0
H1649 H 0.91329 0.27945 0.52542 0.0
C1650 C 0.90909 0.2608 0.54903 0.0
C1651 C 0.90085 0.24393 0.55571 0.0
C1652 C 0.88616 0.24761 0.48419 0.0
C1653 C 0.8957 0.25527 0.51791 0.0
C1654 C 0.88736 0.25163 0.46474 0.0
C1655 C 0.89671 0.26808 0.45841 0.0
C1656 C 0.89444 0.26009 0.49738 0.0
C1657 C 0.90382 0.28069 0.47214 0.0
C1658 C 0.90647 0.26655 0.53026 0.0
C1659 C 0.88954 0.23341 0.54315 0.0
N1660 N 0.90271 0.27633 0.49092 0.0
N1661 N 0.88746 0.23914 0.52477 0.0
H1662 H 0.75405 0.85812 0.4617 0.0
H1663 H 0.68593 0.86284 0.55063 0.0
H1664 H 0.69661 0.87517 0.45372 0.0
H1665 H 0.73277 0.82466 0.54528 0.0
H1666 H 0.68969 0.87144 0.51678 0.0
H1667 H 0.74745 0.85147 0.4948 0.0
C1668 C 0.74007 0.86075 0.46694 0.0
C1669 C 0.72585 0.86715 0.45484 0.0
C1670 C 0.69897 0.86107 0.5231 0.0
C1671 C 0.71808 0.85911 0.49292 0.0
C1672 C 0.69679 0.85609 0.5423 0.0
C1673 C 0.70926 0.84325 0.55079 0.0
C1674 C 0.71381 0.85325 0.51264 0.0
C1675 C 0.72309 0.83492 0.53944 0.0
C1676 C 0.73626 0.85673 0.48587 0.0
C1677 C 0.70796 0.87018 0.46258 0.0
N1678 N 0.72511 0.84022 0.52105 0.0
N1679 N 0.70452 0.86604 0.48122 0.0
H1680 H 0.45861 0.07882 0.26274 0.0
H1681 H 0.54466 0.10839 0.19654 0.0
H1682 H 0.45447 0.08951 0.20239 0.0
H1683 H 0.55045 0.09514 0.25624 0.0
H1684 H 0.51208 0.0982 0.19793 0.0
H1685 H 0.49273 0.08093 0.26017 0.0
C1686 C 0.46486 0.08122 0.24889 0.0
C1687 C 0.45363 0.08417 0.23279 0.0
C1688 C 0.5205 0.09735 0.21071 0.0
C1689 C 0.49258 0.08688 0.22979 0.0
C1690 C 0.53915 0.10317 0.20991 0.0
C1691 C 0.55031 0.1027 0.22631 0.0
C1692 C 0.51285 0.09116 0.22809 0.0
C1693 C 0.54233 0.09585 0.24327 0.0
C1694 C 0.48434 0.08252 0.24745 0.0
C1695 C 0.4625 0.08726 0.21522 0.0
N1696 N 0.52404 0.0905 0.24376 0.0
N1697 N 0.48139 0.08874 0.21424 0.0
H1698 H 0.93391 0.53935 0.3043 0.0
H1699 H 0.88955 0.45293 0.24552 0.0
H1700 H 0.90692 0.54764 0.24998 0.0
H1701 H 0.9135 0.44864 0.30178 0.0
H1702 H 0.89351 0.48768 0.24706 0.0
H1703 H 0.92442 0.50623 0.30381 0.0
C1704 C 0.92593 0.5342 0.29223 0.0
C1705 C 0.92139 0.54628 0.27706 0.0
C1706 C 0.89771 0.47908 0.2591 0.0
C1707 C 0.91045 0.50801 0.27634 0.0
C1708 C 0.89542 0.45927 0.25825 0.0
C1709 C 0.90141 0.44781 0.27345 0.0
C1710 C 0.906 0.48738 0.27526 0.0
C1711 C 0.90891 0.4568 0.28959 0.0
C1712 C 0.92044 0.51522 0.29198 0.0
C1713 C 0.91077 0.53879 0.26195 0.0
N1714 N 0.91108 0.47595 0.28999 0.0
N1715 N 0.9058 0.52003 0.26187 0.0
H1716 H 0.53186 0.91353 0.26453 0.0
H1717 H 0.4447 0.88204 0.201 0.0
H1718 H 0.53457 0.90161 0.20431 0.0
H1719 H 0.43976 0.89657 0.2605 0.0
H1720 H 0.47713 0.89246 0.20155 0.0
H1721 H 0.49769 0.91119 0.26292 0.0
C1722 C 0.52528 0.91082 0.2509 0.0
C1723 C 0.53612 0.90756 0.23457 0.0
C1724 C 0.46895 0.89355 0.21448 0.0
C1725 C 0.49714 0.90461 0.23268 0.0
C1726 C 0.45035 0.88762 0.21416 0.0
C1727 C 0.43944 0.88842 0.23073 0.0
C1728 C 0.47687 0.90017 0.23155 0.0
C1729 C 0.44768 0.89562 0.24741 0.0
C1730 C 0.50578 0.90939 0.25001 0.0
C1731 C 0.52685 0.90408 0.21731 0.0
N1732 N 0.46596 0.90108 0.24744 0.0
N1733 N 0.50795 0.90249 0.21687 0.0
H1734 H 0.14557 0.5231 0.23366 0.0
H1735 H 0.08824 0.45306 0.30152 0.0
H1736 H 0.1224 0.54068 0.28757 0.0
H1737 H 0.11955 0.43434 0.2524 0.0
H1738 H 0.10071 0.48514 0.29696 0.0
H1739 H 0.13645 0.49039 0.24064 0.0
C1740 C 0.13863 0.52005 0.24703 0.0
C1741 C 0.13458 0.53464 0.25999 0.0
C1742 C 0.10492 0.47398 0.28725 0.0
C1743 C 0.12401 0.49719 0.26806 0.0
C1744 C 0.09776 0.45565 0.2898 0.0
C1745 C 0.10275 0.44096 0.27725 0.0
C1746 C 0.11705 0.47769 0.27197 0.0
C1747 C 0.11524 0.44519 0.2624 0.0
C1748 C 0.13346 0.50135 0.25103 0.0
C1749 C 0.12577 0.52984 0.27718 0.0
N1750 N 0.12186 0.46318 0.26011 0.0
N1751 N 0.1206 0.51153 0.28065 0.0
H1752 H 0.42329 0.87929 0.79202 0.0
H1753 H 0.52268 0.88926 0.74092 0.0
H1754 H 0.43033 0.9002 0.73467 0.0
H1755 H 0.51572 0.87488 0.80025 0.0
H1756 H 0.48897 0.89463 0.73861 0.0
H1757 H 0.45725 0.87862 0.79562 0.0
C1758 C 0.43197 0.88384 0.78022 0.0
C1759 C 0.42397 0.88975 0.763 0.0
C1760 C 0.49486 0.89048 0.75218 0.0
C1761 C 0.46284 0.88892 0.76696 0.0
C1762 C 0.5141 0.88743 0.7535 0.0
C1763 C 0.52201 0.88156 0.77078 0.0
C1764 C 0.48347 0.88747 0.76822 0.0
C1765 C 0.51024 0.87941 0.78664 0.0
C1766 C 0.45137 0.88347 0.78228 0.0
C1767 C 0.4359 0.89548 0.74818 0.0
N1768 N 0.49155 0.88222 0.78494 0.0
N1769 N 0.45474 0.89481 0.75046 0.0
H1770 H 0.09299 0.49724 0.68701 0.0
H1771 H 0.08425 0.5935 0.74738 0.0
H1772 H 0.12429 0.50883 0.7383 0.0
H1773 H 0.05029 0.58082 0.69808 0.0
H1774 H 0.09925 0.56258 0.74404 0.0
H1775 H 0.07748 0.52803 0.69044 0.0
C1776 C 0.0966 0.50625 0.69898 0.0
C1777 C 0.10987 0.50042 0.71244 0.0
C1778 C 0.08849 0.56655 0.73397 0.0
C1779 C 0.09222 0.53561 0.71646 0.0
C1780 C 0.07991 0.58422 0.73587 0.0
C1781 C 0.06598 0.58982 0.72298 0.0
C1782 C 0.08318 0.55436 0.71904 0.0
C1783 C 0.06095 0.57714 0.70836 0.0
C1784 C 0.08772 0.5238 0.70096 0.0
C1785 C 0.11401 0.51266 0.72768 0.0
N1786 N 0.06957 0.56004 0.70677 0.0
N1787 N 0.10523 0.52966 0.72926 0.0
H1788 H 0.47303 0.08408 0.72268 0.0
H1789 H 0.57601 0.09159 0.76665 0.0
H1790 H 0.4853 0.11011 0.77695 0.0
H1791 H 0.56155 0.05285 0.72118 0.0
H1792 H 0.54318 0.10092 0.76881 0.0
H1793 H 0.50597 0.07472 0.72005 0.0
C1794 C 0.48263 0.08779 0.73403 0.0
C1795 C 0.47642 0.09777 0.7501 0.0
C1796 C 0.54721 0.09035 0.75838 0.0
C1797 C 0.51399 0.08732 0.74713 0.0
C1798 C 0.56596 0.08506 0.75711 0.0
C1799 C 0.57156 0.07137 0.74376 0.0
C1800 C 0.53399 0.08206 0.74609 0.0
C1801 C 0.55788 0.06338 0.73177 0.0
C1802 C 0.50138 0.08242 0.73255 0.0
C1803 C 0.48944 0.10226 0.76439 0.0
N1804 N 0.53975 0.06888 0.73318 0.0
N1805 N 0.5076 0.09706 0.76254 0.0
H1806 H 0.90886 0.49617 0.696 0.0
H1807 H 0.92202 0.40388 0.76137 0.0
H1808 H 0.881 0.48734 0.74983 0.0
H1809 H 0.95262 0.41318 0.70912 0.0
H1810 H 0.90701 0.43464 0.75725 0.0
H1811 H 0.92511 0.46584 0.70029 0.0
C1812 C 0.90619 0.48788 0.70871 0.0
C1813 C 0.89364 0.49433 0.72262 0.0
C1814 C 0.91704 0.42999 0.7467 0.0
C1815 C 0.91209 0.45972 0.72761 0.0
C1816 C 0.92563 0.41239 0.74904 0.0
C1817 C 0.93859 0.40587 0.73555 0.0
C1818 C 0.92136 0.44117 0.73071 0.0
C1819 C 0.94271 0.41759 0.71988 0.0
C1820 C 0.91548 0.47061 0.71118 0.0
C1821 C 0.89069 0.48304 0.73882 0.0
N1822 N 0.93408 0.43465 0.71787 0.0
N1823 N 0.89982 0.4663 0.74085 0.0
H1824 H 0.20656 0.50624 0.0842 0.0
H1825 H 0.26722 0.41588 0.05483 0.0
H1826 H 0.26187 0.51061 0.05987 0.0
H1827 H 0.21762 0.4124 0.08979 0.0
H1828 H 0.26516 0.4505 0.05567 0.0
H1829 H 0.20971 0.47171 0.08492 0.0
C1830 C 0.21933 0.49993 0.07888 0.0
C1831 C 0.23395 0.51131 0.07188 0.0
C1832 C 0.25481 0.44216 0.06327 0.0
C1833 C 0.2377 0.47178 0.07282 0.0
C1834 C 0.25596 0.42238 0.06281 0.0
C1835 C 0.2425 0.41118 0.07218 0.0
C1836 C 0.23999 0.45085 0.07301 0.0
C1837 C 0.2283 0.42043 0.08235 0.0
C1838 C 0.22117 0.48021 0.07943 0.0
C1839 C 0.25024 0.50236 0.06535 0.0
N1840 N 0.22732 0.43973 0.08236 0.0
N1841 N 0.25166 0.4831 0.06594 0.0
H1842 H 0.27219 0.52778 0.87201 0.0
H1843 H 0.23098 0.42243 0.8596 0.0
H1844 H 0.22415 0.51473 0.83711 0.0
H1845 H 0.27017 0.43856 0.90358 0.0
H1846 H 0.23046 0.45548 0.84869 0.0
H1847 H 0.27414 0.49423 0.88092 0.0
C1848 C 0.26214 0.51783 0.8661 0.0
C1849 C 0.24789 0.52407 0.85393 0.0
C1850 C 0.23915 0.45175 0.86073 0.0
C1851 C 0.24999 0.4857 0.8641 0.0
C1852 C 0.23946 0.43289 0.86697 0.0
C1853 C 0.25057 0.42769 0.8826 0.0
C1854 C 0.25015 0.46548 0.87007 0.0
C1855 C 0.2613 0.44188 0.89156 0.0
C1856 C 0.26319 0.4987 0.87127 0.0
C1857 C 0.23523 0.51056 0.84671 0.0
N1858 N 0.26085 0.46009 0.88514 0.0
N1859 N 0.23655 0.49201 0.85194 0.0
H1860 H 0.46832 0.29782 0.93539 0.0
H1861 H 0.54013 0.24684 0.86471 0.0
H1862 H 0.45538 0.24699 0.90332 0.0
H1863 H 0.5536 0.29776 0.89629 0.0
H1864 H 0.50876 0.24727 0.8782 0.0
H1865 H 0.49939 0.29838 0.92101 0.0
C1866 C 0.47199 0.28674 0.92536 0.0
C1867 C 0.45916 0.27231 0.92059 0.0
C1868 C 0.51853 0.25839 0.88218 0.0
C1869 C 0.49476 0.27296 0.904 0.0
C1870 C 0.53648 0.25814 0.8745 0.0
C1871 C 0.54957 0.27219 0.87954 0.0
C1872 C 0.51355 0.27279 0.89504 0.0
C1873 C 0.54395 0.28665 0.89204 0.0
C1874 C 0.48975 0.28711 0.91712 0.0
C1875 C 0.46476 0.25838 0.90747 0.0
N1876 N 0.52636 0.28652 0.89945 0.0
N1877 N 0.48213 0.25907 0.89965 0.0
H1878 H 0.73503 0.55753 0.92619 0.0
H1879 H 0.78075 0.48097 0.85623 0.0
H1880 H 0.77448 0.57222 0.88193 0.0
H1881 H 0.73259 0.4691 0.89139 0.0
H1882 H 0.78039 0.51393 0.86725 0.0
H1883 H 0.73608 0.52443 0.91574 0.0
C1884 C 0.74405 0.5538 0.91439 0.0
C1885 C 0.75467 0.56775 0.90492 0.0
C1886 C 0.76987 0.50414 0.87252 0.0
C1887 C 0.75582 0.52981 0.89282 0.0
C1888 C 0.77008 0.48531 0.86627 0.0
C1889 C 0.75671 0.47227 0.87295 0.0
C1890 C 0.75628 0.50996 0.8857 0.0
C1891 C 0.74312 0.47871 0.88582 0.0
C1892 C 0.74454 0.53489 0.90836 0.0
C1893 C 0.76603 0.562 0.88965 0.0
N1894 N 0.74331 0.49709 0.89186 0.0
N1895 N 0.76629 0.54349 0.88408 0.0
H1896 H 0.44274 0.69017 0.89907 0.0
H1897 H 0.54398 0.73777 0.91164 0.0
H1898 H 0.45967 0.74244 0.87173 0.0
H1899 H 0.52719 0.68536 0.93895 0.0
H1900 H 0.51343 0.73926 0.89622 0.0
H1901 H 0.47406 0.6874 0.91272 0.0
C1902 C 0.45307 0.70099 0.89582 0.0
C1903 C 0.44852 0.71667 0.88441 0.0
C1904 C 0.51644 0.72742 0.90557 0.0
C1905 C 0.48434 0.71368 0.90009 0.0
C1906 C 0.53389 0.72658 0.91443 0.0
C1907 C 0.53821 0.71143 0.92667 0.0
C1908 C 0.50316 0.71304 0.90896 0.0
C1909 C 0.52453 0.69733 0.92967 0.0
C1910 C 0.47094 0.69945 0.90369 0.0
C1911 C 0.46247 0.73027 0.88069 0.0
N1912 N 0.50764 0.69849 0.9209 0.0
N1913 N 0.47972 0.72851 0.88858 0.0
H1914 H 0.78744 0.5957 0.09154 0.0
H1915 H 0.72995 0.50393 0.05793 0.0
H1916 H 0.74033 0.5998 0.05332 0.0
H1917 H 0.78277 0.50285 0.0877 0.0
H1918 H 0.73274 0.5388 0.05561 0.0
H1919 H 0.78519 0.56129 0.09005 0.0
C1920 C 0.77661 0.58936 0.08279 0.0
C1921 C 0.76402 0.60069 0.0726 0.0
C1922 C 0.74377 0.5308 0.06244 0.0
C1923 C 0.76129 0.56104 0.07085 0.0
C1924 C 0.74219 0.51095 0.06375 0.0
C1925 C 0.75618 0.50042 0.07293 0.0
C1926 C 0.75936 0.54004 0.07051 0.0
C1927 C 0.7717 0.51023 0.08031 0.0
C1928 C 0.77536 0.56965 0.08188 0.0
C1929 C 0.75035 0.59159 0.06139 0.0
N1930 N 0.77279 0.5294 0.07902 0.0
N1931 N 0.74925 0.57226 0.06091 0.0
H1932 H 0.52599 0.67592 0.13586 0.0
H1933 H 0.43701 0.74189 0.12194 0.0
H1934 H 0.51514 0.72712 0.16786 0.0
H1935 H 0.43567 0.68298 0.10455 0.0
H1936 H 0.46768 0.73705 0.13562 0.0
H1937 H 0.49427 0.67783 0.12237 0.0
C1938 C 0.51685 0.68735 0.14029 0.0
C1939 C 0.52327 0.70155 0.15279 0.0
C1940 C 0.46076 0.72513 0.12881 0.0
C1941 C 0.48739 0.70398 0.13723 0.0
C1942 C 0.44325 0.72794 0.12078 0.0
C1943 C 0.43371 0.71282 0.11203 0.0
C1944 C 0.46899 0.70708 0.1281 0.0
C1945 C 0.44256 0.69502 0.11116 0.0
C1946 C 0.49884 0.68848 0.13251 0.0
C1947 C 0.51092 0.71607 0.15801 0.0
N1948 N 0.45978 0.69261 0.11913 0.0
N1949 N 0.4937 0.71701 0.15006 0.0
H1950 H 0.56449 0.3037 0.09525 0.0
H1951 H 0.48291 0.25207 0.15376 0.0
H1952 H 0.56502 0.24485 0.11279 0.0
H1953 H 0.47446 0.30607 0.12588 0.0
H1954 H 0.51452 0.25111 0.1411 0.0
H1955 H 0.53246 0.30643 0.10776 0.0
C1956 C 0.55783 0.29133 0.1015 0.0
C1957 C 0.56743 0.274 0.1029 0.0
C1958 C 0.5058 0.2632 0.13771 0.0
C1959 C 0.53116 0.27711 0.11746 0.0
C1960 C 0.48772 0.26376 0.14497 0.0
C1961 C 0.47594 0.27903 0.14064 0.0
C1962 C 0.51227 0.27806 0.12606 0.0
C1963 C 0.4831 0.29399 0.12952 0.0
C1964 C 0.53962 0.29291 0.10868 0.0
C1965 C 0.5582 0.25846 0.11123 0.0
N1966 N 0.50083 0.2931 0.1225 0.0
N1967 N 0.54068 0.26043 0.11827 0.0
H1968 H 0.5855 0.70074 0.09537 0.0
H1969 H 0.57149 0.75511 0.9969 0.0
H1970 H 0.54871 0.74884 0.08848 0.0
H1971 H 0.59528 0.69889 0.00035 0.0
H1972 H 0.56394 0.7535 0.03076 0.0
H1973 H 0.59037 0.70025 0.06086 0.0
C1974 C 0.57841 0.71116 0.08664 0.0
C1975 C 0.56672 0.7249 0.09488 0.0
C1976 C 0.57068 0.74144 0.02409 0.0
C1977 C 0.57231 0.72444 0.05545 0.0
C1978 C 0.57501 0.74237 0.00476 0.0
C1979 C 0.58406 0.72713 0.99582 0.0
C1980 C 0.57566 0.72526 0.03464 0.0
C1981 C 0.58826 0.71095 0.00669 0.0
C1982 C 0.58115 0.71082 0.06694 0.0
C1983 C 0.55785 0.73799 0.08281 0.0
N1984 N 0.58418 0.7105 0.02559 0.0
N1985 N 0.56093 0.73751 0.06375 0.0
H1986 H 0.23606 0.58548 0.91404 0.0
H1987 H 0.18203 0.54457 0.0052 0.0
H1988 H 0.18962 0.54605 0.91156 0.0
H1989 H 0.23148 0.57986 0.00931 0.0
H1990 H 0.18308 0.54765 0.97074 0.0
H1991 H 0.23313 0.58613 0.94879 0.0
C1992 C 0.22519 0.57705 0.92075 0.0
C1993 C 0.21315 0.56559 0.90983 0.0
C1994 C 0.19368 0.5548 0.97915 0.0
C1995 C 0.20974 0.5663 0.94953 0.0
C1996 C 0.19308 0.55306 -0.00111 0.0
C1997 C 0.20678 0.56185 0.01024 0.0
C1998 C 0.20809 0.56538 0.97057 0.0
C1999 C 0.22067 0.57276 0.00115 0.0
C2000 C 0.22355 0.57742 0.94059 0.0
C2001 C 0.19933 0.55499 0.91934 0.0
N2002 N 0.22103 0.57413 0.98183 0.0
N2003 N 0.19805 0.55558 0.93859 0.0
H2004 H 0.41175 0.27982 0.08425 0.0
H2005 H 0.42347 0.22311 0.98635 0.0
H2006 H 0.44645 0.23003 0.07807 0.0
H2007 H 0.39912 0.27909 0.98998 0.0
H2008 H 0.43095 0.22477 0.02028 0.0
H2009 H 0.40585 0.27921 0.04996 0.0
C2010 C 0.41817 0.26879 0.07571 0.0
C2011 C 0.4296 0.25494 0.0841 0.0
C2012 C 0.42407 0.23673 0.01362 0.0
C2013 C 0.42282 0.25413 0.04487 0.0
C2014 C 0.41977 0.23578 0.99426 0.0
C2015 C 0.41069 0.251 0.98532 0.0
C2016 C 0.41908 0.25294 0.02415 0.0
C2017 C 0.40622 0.26707 0.99627 0.0
C2018 C 0.41482 0.26848 0.05612 0.0
C2019 C 0.43756 0.24102 0.07227 0.0
N2020 N 0.41037 0.26758 0.01513 0.0
N2021 N 0.43394 0.24092 0.0533 0.0
H2022 H 0.81285 0.44917 0.02144 0.0
H2023 H 0.76125 0.40939 0.92856 0.0
H2024 H 0.75827 0.42263 0.02272 0.0
H2025 H 0.81387 0.43977 0.92814 0.0
H2026 H 0.76188 0.40965 0.96344 0.0
H2027 H 0.81536 0.44135 0.98777 0.0
C2028 C 0.80144 0.44155 0.0147 0.0
C2029 C 0.78521 0.43679 0.02493 0.0
C2030 C 0.77337 0.41607 0.95567 0.0
C2031 C 0.78797 0.42787 0.98619 0.0
C2032 C 0.77306 0.41586 0.93576 0.0
C2033 C 0.78741 0.42479 0.92538 0.0
C2034 C 0.78816 0.42521 0.96523 0.0
C2035 C 0.80236 0.43294 0.9355 0.0
C2036 C 0.80289 0.43709 0.99543 0.0
C2037 C 0.77099 0.42673 0.0154 0.0
N2038 N 0.80226 0.43308 0.95482 0.0
N2039 N 0.77261 0.42278 0.99651 0.0
H2040 H 0.61844 0.26787 0.92948 0.0
H2041 H 0.58945 0.21967 0.02839 0.0
H2042 H 0.58461 0.21714 0.935 0.0
H2043 H 0.62352 0.27047 0.02532 0.0
H2044 H 0.58942 0.21791 0.99392 0.0
H2045 H 0.62255 0.26827 0.96415 0.0
C2046 C 0.61205 0.25671 0.93792 0.0
C2047 C 0.60102 0.24253 0.92928 0.0
C2048 C 0.59696 0.22945 0.00071 0.0
C2049 C 0.60559 0.24299 0.9689 0.0
C2050 C 0.59695 0.23051 0.02048 0.0
C2051 C 0.60639 0.24534 0.02986 0.0
C2052 C 0.60639 0.24336 0.99003 0.0
C2053 C 0.61599 0.25882 0.01871 0.0
C2054 C 0.61435 0.25699 0.95771 0.0
C2055 C 0.59308 0.22846 0.94096 0.0
N2056 N 0.61566 0.25757 -0.00065 0.0
N2057 N 0.59544 0.22912 0.9601 0.0
H2058 H 0.81772 0.64268 0.04445 0.0
H2059 H 0.75018 0.64972 0.95738 0.0
H2060 H 0.77518 0.68573 0.03923 0.0
H2061 H 0.80754 0.63393 0.94662 0.0
H2062 H 0.75864 0.65857 0.98961 0.0
H2063 H 0.81493 0.63635 0.01005 0.0
C2064 C 0.80818 0.65112 0.036 0.0
C2065 C 0.79639 0.6645 0.04468 0.0
C2066 C 0.76941 0.6532 0.98022 0.0
C2067 C 0.79292 0.65708 0.00587 0.0
C2068 C 0.76457 0.64793 0.96185 0.0
C2069 C 0.77819 0.64107 0.94928 0.0
C2070 C 0.78798 0.65138 0.9863 0.0
C2071 C 0.79664 0.6392 0.9559 0.0
C2072 C 0.80656 0.64744 0.01647 0.0
C2073 C 0.78425 0.67502 0.03317 0.0
N2074 N 0.80104 0.64424 0.97412 0.0
N2075 N 0.78258 0.67084 0.01444 0.0
H2076 H 0.42086 0.77245 0.94136 0.0
H2077 H 0.37864 0.71968 0.03282 0.0
H2078 H 0.38342 0.72426 0.93714 0.0
H2079 H 0.41886 0.76566 0.03484 0.0
H2080 H 0.3786 0.72185 -0.002 0.0
H2081 H 0.41826 0.77119 0.97579 0.0
C2082 C 0.41198 0.76163 0.94765 0.0
C2083 C 0.40245 0.74835 0.93626 0.0
C2084 C 0.3874 0.73145 0.00611 0.0
C2085 C 0.3995 0.74676 0.97598 0.0
C2086 C 0.38747 0.73021 0.02599 0.0
C2087 C 0.39882 0.74246 0.03684 0.0
C2088 C 0.39873 0.74507 0.99703 0.0
C2089 C 0.40992 0.75585 0.02716 0.0
C2090 C 0.41053 0.76091 0.96739 0.0
C2091 C 0.39105 0.73478 0.94534 0.0
N2092 N 0.40958 0.75677 0.00788 0.0
N2093 N 0.38997 0.73425 0.9647 0.0
H2094 H 0.18523 0.33934 0.02439 0.0
H2095 H 0.23837 0.38983 0.93797 0.0
H2096 H 0.23417 0.37495 0.02869 0.0
H2097 H 0.19638 0.34657 0.9293 0.0
H2098 H 0.23076 0.39042 0.97174 0.0
H2099 H 0.18346 0.34697 0.9901 0.0
C2100 C 0.19541 0.34894 0.01816 0.0
C2101 C 0.21015 0.35621 0.02917 0.0
C2102 C 0.22301 0.3809 0.9625 0.0
C2103 C 0.20811 0.36517 0.99053 0.0
C2104 C 0.22741 0.38056 0.94324 0.0
C2105 C 0.21829 0.36782 0.93109 0.0
C2106 C 0.20966 0.36807 0.96973 0.0
C2107 C 0.20379 0.35649 0.9384 0.0
C2108 C 0.19442 0.35327 -0.0013 0.0
C2109 C 0.22293 0.36865 0.02064 0.0
N2110 N 0.20015 0.35656 0.95743 0.0
N2111 N 0.22168 0.37265 0.00187 0.0
H2112 H 0.00976 0.61376 0.77874 0.0
H2113 H 0.91899 0.58285 0.71934 0.0
H2114 H 0.99549 0.63764 0.72407 0.0
H2115 H 0.93568 0.55648 0.77217 0.0
H2116 H 0.9462 0.60385 0.72134 0.0
H2117 H 0.98178 0.59384 0.77726 0.0
C2118 C 0.0007 0.61489 0.76644 0.0
C2119 C 0.00509 0.6273 0.75143 0.0
C2120 C 0.94392 0.59346 0.73248 0.0
C2121 C 0.97298 0.6044 0.7496 0.0
C2122 C 0.92837 0.58142 0.73136 0.0
C2123 C 0.925 0.56779 0.7456 0.0
C2124 C 0.95622 0.59194 0.74798 0.0
C2125 C 0.93768 0.5667 0.76083 0.0
C2126 C 0.98474 0.60344 0.76558 0.0
C2127 C 0.99279 0.62814 0.73588 0.0
N2128 N 0.95269 0.57861 0.76161 0.0
N2129 N 0.97733 0.61681 0.73535 0.0
H2130 H 0.39977 0.95388 0.80968 0.0
H2131 H 0.39893 0.05226 0.75237 0.0
H2132 H 0.37544 0.95867 0.75363 0.0
H2133 H 0.42781 0.04248 0.80544 0.0
H2134 H 0.38727 0.01932 0.75336 0.0
H2135 H 0.40686 0.98756 0.80923 0.0
C2136 C 0.39585 0.96203 0.79723 0.0
C2137 C 0.38716 0.9533 0.78156 0.0
C2138 C 0.39609 0.02448 0.76479 0.0
C2139 C 0.39542 0.99228 0.78093 0.0
C2140 C 0.40272 0.04327 0.76427 0.0
C2141 C 0.41449 0.05014 0.77878 0.0
C2142 C 0.40118 0.01259 0.77999 0.0
C2143 C 0.41894 0.03784 0.79383 0.0
C2144 C 0.39992 0.98136 0.79699 0.0
C2145 C 0.38221 0.96479 0.76599 0.0
N2146 N 0.41232 0.01975 0.794 0.0
N2147 N 0.38655 0.98371 0.76599 0.0
H2148 H 0.08093 0.41342 0.71724 0.0
H2149 H 0.99665 0.38609 0.78731 0.0
H2150 H 0.06838 0.4441 0.76896 0.0
H2151 H 0.00794 0.35664 0.73464 0.0
H2152 H 0.02353 0.40676 0.78135 0.0
H2153 H 0.05451 0.39229 0.72354 0.0
C2154 C 0.07257 0.41581 0.72988 0.0
C2155 C 0.07694 0.43062 0.7426 0.0
C2156 C 0.02015 0.39576 0.7711 0.0
C2157 C 0.04666 0.40627 0.74996 0.0
C2158 C 0.00485 0.38387 0.77454 0.0
C2159 C -9e-05 0.3697 0.76136 0.0
C2160 C 0.03067 0.39347 0.75437 0.0
C2161 C 0.01106 0.36753 0.74506 0.0
C2162 C 0.0575 0.40367 0.73349 0.0
C2163 C 0.06557 0.43293 0.75874 0.0
N2164 N 0.02588 0.37933 0.742 0.0
N2165 N 0.051 0.42086 0.76197 0.0
H2166 H 0.57503 0.94395 0.81479 0.0
H2167 H 0.63588 0.00853 0.74448 0.0
H2168 H 0.60349 0.92245 0.76502 0.0
H2169 H 0.61526 0.02867 0.79857 0.0
H2170 H 0.62402 0.97685 0.75196 0.0
H2171 H 0.58948 0.97507 0.80931 0.0
C2172 C 0.58435 0.94572 0.80275 0.0
C2173 C 0.58796 0.93054 0.7903 0.0
C2174 C 0.62215 0.98815 0.76227 0.0
C2175 C 0.60449 0.96614 0.78395 0.0
C2176 C 0.62888 0.00627 0.75796 0.0
C2177 C 0.62642 0.02128 0.77085 0.0
C2178 C 0.61275 0.98501 0.77954 0.0
C2179 C 0.61744 0.01748 0.78822 0.0
C2180 C 0.59262 0.96349 0.79967 0.0
C2181 C 0.60023 0.9337 0.77499 0.0
N2182 N 0.61078 -0.00027 0.792 0.0
N2183 N 0.60795 0.95115 0.7722 0.0
H2184 H 0.94627 0.39834 0.21971 0.0
H2185 H 0.03528 0.38079 0.28594 0.0
H2186 H 0.9449 0.37109 0.27477 0.0
H2187 H 0.04089 0.3919 0.22574 0.0
H2188 H 0.00158 0.38259 0.28281 0.0
H2189 H 0.98056 0.40025 0.22204 0.0
C2190 C 0.95314 0.3928 0.23226 0.0
C2191 C 0.94269 0.38477 0.24719 0.0
C2192 C 0.01014 0.38473 0.27026 0.0
C2193 C 0.98161 0.3871 0.24999 0.0
C2194 C 0.02945 0.38386 0.27207 0.0
C2195 C 0.04095 0.38615 0.25607 0.0
C2196 C 0.00214 0.38787 0.25231 0.0
C2197 C 0.0325 0.38999 0.23843 0.0
C2198 C 0.97265 0.39393 0.23358 0.0
C2199 C 0.95228 0.37775 0.26309 0.0
N2200 N 0.01353 0.39064 0.23698 0.0
N2201 N 0.97114 0.37916 0.26409 0.0
H2202 H 0.61578 0.05446 0.23428 0.0
H2203 H 0.60046 0.95689 0.1784 0.0
H2204 H 0.60471 0.0497 0.17408 0.0
H2205 H 0.60869 0.95969 0.23921 0.0
H2206 H 0.60809 0.99056 0.17609 0.0
H2207 H 0.61924 0.01975 0.23587 0.0
C2208 C 0.61447 0.04617 0.22135 0.0
C2209 C 0.60965 0.05492 0.20408 0.0
C2210 C 0.60844 0.98383 0.18995 0.0
C2211 C 0.61347 0.01537 0.2058 0.0
C2212 C 0.60407 0.96456 0.19127 0.0
C2213 C 0.60363 0.95552 0.20906 0.0
C2214 C 0.61217 0.9943 0.20656 0.0
C2215 C 0.60873 0.96614 0.22521 0.0
C2216 C 0.61635 0.02637 0.22228 0.0
C2217 C 0.6081 0.04352 0.18776 0.0
N2218 N 0.61249 0.98507 0.22363 0.0
N2219 N 0.60981 0.02437 0.18907 0.0
H2220 H 0.06585 0.54842 0.2417 0.0
H2221 H 0.9817 0.61834 0.22394 0.0
H2222 H 0.07598 0.60835 0.23319 0.0
H2223 H 0.97898 0.57719 0.26934 0.0
H2224 H 0.01508 0.61086 0.21967 0.0
H2225 H 0.03226 0.55501 0.24497 0.0
C2226 C 0.06097 0.56294 0.24052 0.0
C2227 C 0.0736 0.57791 0.23732 0.0
C2228 C 0.00706 0.60344 0.23046 0.0
C2229 C 0.03548 0.58536 0.24042 0.0
C2230 C 0.98811 0.60756 0.23279 0.0
C2231 C 0.9778 0.5984 0.24707 0.0
C2232 C 0.01543 0.58969 0.24213 0.0
C2233 C 0.98662 0.58465 0.25832 0.0
C2234 C 0.04191 0.56666 0.2424 0.0
C2235 C 0.06665 0.59648 0.23587 0.0
N2236 N 0.00497 0.58058 0.25553 0.0
N2237 N 0.04796 0.59969 0.23721 0.0
H2238 H 0.3862 0.03325 0.1805 0.0
H2239 H 0.37467 0.93707 0.23939 0.0
H2240 H 0.3819 0.03189 0.24177 0.0
H2241 H 0.38265 0.94057 0.17861 0.0
H2242 H 0.37072 0.97177 0.2404 0.0
H2243 H 0.37819 -0.00039 0.17944 0.0
C2244 C 0.38337 0.02589 0.19375 0.0
C2245 C 0.38505 0.0353 0.21126 0.0
C2246 C 0.37301 0.96486 0.22682 0.0
C2247 C 0.37612 0.99657 0.2102 0.0
C2248 C 0.37517 0.94508 0.22623 0.0
C2249 C 0.37931 0.93602 0.20893 0.0
C2250 C 0.37491 0.9755 0.20997 0.0
C2251 C 0.37982 0.94703 0.1923 0.0
C2252 C 0.37877 0.00665 0.19314 0.0
C2253 C 0.38089 0.02512 0.22796 0.0
N2254 N 0.37786 0.96617 0.19327 0.0
N2255 N 0.37694 0.00618 0.22705 0.0
H2256 H 0.76625 -0.0003 0.57372 0.0
H2257 H 0.71193 0.90569 0.60699 0.0
H2258 H 0.70892 -0.00063 0.59301 0.0
H2259 H 0.76327 0.90438 0.57462 0.0
H2260 H 0.71201 0.9404 0.60468 0.0
H2261 H 0.76658 0.96491 0.57595 0.0
C2262 C 0.7537 0.99231 0.57826 0.0
C2263 C 0.73752 0.00244 0.58312 0.0
C2264 C 0.72327 0.93249 0.59811 0.0
C2265 C 0.73788 0.96276 0.58601 0.0
C2266 C 0.72329 0.91268 0.59954 0.0
C2267 C 0.73758 0.90207 0.59094 0.0
C2268 C 0.73771 0.94179 0.58816 0.0
C2269 C 0.75191 0.91195 0.58139 0.0
C2270 C 0.7539 0.97248 0.57957 0.0
C2271 C 0.72167 0.99215 0.589 0.0
N2272 N 0.75162 0.93123 0.58027 0.0
N2273 N 0.72229 0.9729 0.59039 0.0
H2274 H 0.79242 0.02792 0.39675 0.0
H2275 H 0.74082 0.92793 0.38066 0.0
H2276 H 0.7521 0.01661 0.35242 0.0
H2277 H 0.78223 0.93698 0.42457 0.0
H2278 H 0.74546 0.96049 0.37003 0.0
H2279 H 0.79015 0.99449 0.40665 0.0
C2280 C 0.78327 0.01837 0.38899 0.0
C2281 C 0.77227 0.02505 0.37389 0.0
C2282 C 0.75355 0.9554 0.382 0.0
C2283 C 0.76948 0.98705 0.38517 0.0
C2284 C 0.75085 0.93677 0.38815 0.0
C2285 C 0.76112 0.92966 0.40358 0.0
C2286 C 0.7666 0.96711 0.39134 0.0
C2287 C 0.77397 0.94185 0.41264 0.0
C2288 C 0.78189 -0.00065 0.3947 0.0
C2289 C 0.76062 0.01213 0.36433 0.0
N2290 N 0.77634 0.96001 0.40638 0.0
N2291 N 0.75946 0.99381 0.37019 0.0
H2292 H 0.93001 0.72336 0.41796 0.0
H2293 H 0.02427 0.78437 0.40764 0.0
H2294 H 0.94146 0.77468 0.44982 0.0
H2295 H 0.01534 0.73035 0.37978 0.0
H2296 H 0.99383 0.78105 0.42313 0.0
H2297 H 0.96129 0.7254 0.40405 0.0
C2298 C 0.93911 0.73498 0.42215 0.0
C2299 C 0.93301 0.74891 0.43505 0.0
C2300 C -0.00146 0.76989 0.41367 0.0
C2301 C 0.96881 0.7514 0.41902 0.0
C2302 C 0.0159 0.77181 0.40477 0.0
C2303 C 0.02237 0.7576 0.39243 0.0
C2304 C 0.98751 0.75368 0.41013 0.0
C2305 C 0.01096 0.74161 0.38928 0.0
C2306 C 0.95698 0.73615 0.41416 0.0
C2307 C 0.94549 0.76363 0.43992 0.0
N2308 N 0.99407 0.7401 0.39804 0.0
N2309 N 0.96272 0.76453 0.43183 0.0
H2310 H 0.25805 0.07037 0.38657 0.0
H2311 H 0.20478 0.97138 0.40305 0.0
H2312 H 0.21539 0.06246 0.42944 0.0
H2313 H 0.25113 0.97911 0.36439 0.0
H2314 H 0.20778 0.0048 0.41261 0.0
H2315 H 0.25548 0.03682 0.37835 0.0
C2316 C 0.24822 0.06156 0.39436 0.0
C2317 C 0.23688 0.0693 0.4087 0.0
C2318 C 0.2173 -0.00086 0.40206 0.0
C2319 C 0.23374 0.03079 0.39919 0.0
C2320 C 0.21553 0.98011 0.39653 0.0
C2321 C 0.22779 0.97245 0.38299 0.0
C2322 C 0.23135 0.01053 0.39387 0.0
C2323 C 0.2415 0.98436 0.37504 0.0
C2324 C 0.24673 0.04238 0.38962 0.0
C2325 C 0.22442 0.05712 0.4183 0.0
N2326 N 0.2429 0.00278 0.38059 0.0
N2327 N 0.2231 0.03849 0.4133 0.0
H2328 H 0.03566 0.21476 0.44958 0.0
H2329 H 0.95904 0.2789 0.39744 0.0
H2330 H 0.04956 0.26803 0.42228 0.0
H2331 H 0.94979 0.221 0.41568 0.0
H2332 H 0.99162 0.27658 0.40818 0.0
H2333 H 0.0035 0.21828 0.43912 0.0
C2334 C 0.03198 0.22725 0.44139 0.0
C2335 C 0.04543 0.24111 0.43679 0.0
C2336 C 0.98242 0.26441 0.4098 0.0
C2337 C 0.00835 0.24522 0.42471 0.0
C2338 C 0.96383 0.26574 0.40374 0.0
C2339 C 0.95167 0.25012 0.40568 0.0
C2340 C 0.9888 0.24739 0.41798 0.0
C2341 C 0.95865 0.23339 0.41385 0.0
C2342 C 0.01355 0.22922 0.43537 0.0
C2343 C 0.03969 0.25696 0.42612 0.0
N2344 N 0.97669 0.2325 0.41973 0.0
N2345 N 0.02156 0.2586 0.42045 0.0
H2346 H 0.22541 0.10761 0.56366 0.0
H2347 H 0.26998 0.00763 0.59184 0.0
H2348 H 0.27428 0.10077 0.5991 0.0
H2349 H 0.21426 0.01206 0.56861 0.0
H2350 H 0.27308 0.0419 0.59058 0.0
H2351 H 0.22213 0.07293 0.56213 0.0
C2352 C 0.23544 0.09885 0.57113 0.0
C2353 C 0.25016 0.10716 0.58156 0.0
C2354 C 0.26018 0.03544 0.58565 0.0
C2355 C 0.24653 0.06754 0.57968 0.0
C2356 C 0.25843 0.01577 0.5862 0.0
C2357 C 0.24182 0.00687 0.58027 0.0
C2358 C 0.24522 0.04649 0.57915 0.0
C2359 C 0.22731 0.01834 0.57331 0.0
C2360 C 0.23353 0.07907 0.57025 0.0
C2361 C 0.26269 0.09508 0.59096 0.0
N2362 N 0.22932 0.03763 0.57299 0.0
N2363 N 0.26061 0.07592 0.58973 0.0
H2364 H 0.95189 0.2193 0.58988 0.0
H2365 H 0.04497 0.18615 0.63525 0.0
H2366 H 0.94514 0.16767 0.62221 0.0
H2367 H 0.01403 0.23481 0.65539 0.0
H2368 H 0.01658 0.17507 0.61841 0.0
H2369 H 0.98488 0.22036 0.59907 0.0
C2370 C 0.95762 0.2077 0.59816 0.0
C2371 C 0.94592 0.19348 0.60548 0.0
C2372 C 0.01622 0.18812 0.6266 0.0
C2373 C 0.98327 0.19474 0.61611 0.0
C2374 C 0.03226 0.19441 0.63625 0.0
C2375 C 0.03195 0.21167 0.6464 0.0
C2376 C 0.00014 0.1994 0.62699 0.0
C2377 C 0.01512 0.22177 0.64731 0.0
C2378 C 0.97634 0.20835 0.60343 0.0
C2379 C 0.95387 0.1788 0.61626 0.0
N2380 N -2e-05 0.21563 0.63749 0.0
N2381 N 0.9721 0.18007 0.62179 0.0
H2382 H 0.0413 0.81767 0.60049 0.0
H2383 H 0.97287 0.74885 0.647 0.0
H2384 H 0.0357 0.76014 0.58 0.0
H2385 H 0.94765 0.80145 0.62862 0.0
H2386 H -9e-05 0.75581 0.62719 0.0
H2387 H 0.00927 0.81569 0.61338 0.0
C2388 C 0.03309 0.80492 0.59806 0.0
C2389 C 0.04122 0.78883 0.58968 0.0
C2390 C 0.98839 0.76577 0.62745 0.0
C2391 C 0.00533 0.78636 0.6047 0.0
C2392 C 0.97292 0.76182 0.63873 0.0
C2393 C 0.95769 0.77427 0.63901 0.0
C2394 C 0.98895 0.78258 0.61677 0.0
C2395 C 0.95903 0.79135 0.62862 0.0
C2396 C 0.01495 0.80377 0.60554 0.0
C2397 C 0.03013 0.7726 0.58699 0.0
N2398 N 0.9745 0.79509 0.61788 0.0
N2399 N 0.01292 0.77157 0.59495 0.0
loop_
_geom_bond_atom_site_label_1
_geom_bond_atom_site_label_2
_geom_bond_distance
_geom_bond_site_symmetry_2
_ccdc_geom_bond_type
Mg0 O1 2.028 . S
Mg0 O7 1.986 . S
Mg0 O9 2.114 . S
Mg0 O10 2.251 . S
Mg0 O13 2.010 . S
O1 Mg0 2.028 . S
O1 C4 1.250 . S
O2 Mg3 2.028 . S
O2 C4 1.248 . S
Mg3 O2 2.028 . S
Mg3 O8 2.032 . S
Mg3 O10 2.079 . S
C4 O1 1.250 . S
C4 O2 1.248 . S
C5 O6 1.264 . S
C5 O13 1.249 . S
O6 C5 1.264 . S
O7 Mg0 1.986 . S
O7 C11 1.246 . S
O8 Mg3 2.032 . S
O8 C11 1.259 . S
O9 Mg0 2.114 . S
O9 C12 1.252 . S
O10 Mg0 2.251 . S
O10 Mg3 2.079 . S
O10 C12 1.273 . S
C11 O7 1.246 . S
C11 O8 1.259 . S
C12 O9 1.252 . S
C12 O10 1.273 . S
O13 Mg0 2.010 . S
O13 C5 1.249 . S
Mg14 O15 2.028 . S
Mg14 O21 1.986 . S
Mg14 O23 2.114 . S
Mg14 O24 2.251 . S
Mg14 O27 2.010 . S
O15 Mg14 2.028 . S
O15 C18 1.250 . S
O16 Mg17 2.028 . S
O16 C18 1.248 . S
Mg17 O16 2.028 . S
Mg17 O22 2.032 . S
Mg17 O24 2.079 . S
C18 O15 1.250 . S
C18 O16 1.248 . S
C19 O20 1.264 . S
C19 O27 1.249 . S
O20 C19 1.264 . S
O21 Mg14 1.986 . S
O21 C25 1.246 . S
O22 Mg17 2.032 . S
O22 C25 1.259 . S
O23 Mg14 2.114 . S
O23 C26 1.252 . S
O24 Mg14 2.251 . S
O24 Mg17 2.079 . S
O24 C26 1.273 . S
C25 O21 1.246 . S
C25 O22 1.259 . S
C26 O23 1.252 . S
C26 O24 1.273 . S
O27 Mg14 2.010 . S
O27 C19 1.249 . S
Mg28 O29 2.028 . S
Mg28 O35 1.986 . S
Mg28 O37 2.114 . S
Mg28 O38 2.251 . S
Mg28 O41 2.010 . S
O29 Mg28 2.028 . S
O29 C32 1.250 . S
O30 Mg31 2.028 . S
O30 C32 1.248 . S
Mg31 O30 2.028 . S
Mg31 O36 2.032 . S
Mg31 O38 2.079 . S
C32 O29 1.250 . S
C32 O30 1.248 . S
C33 O34 1.264 . S
C33 O41 1.249 . S
O34 C33 1.264 . S
O35 Mg28 1.986 . S
O35 C39 1.246 . S
O36 Mg31 2.032 . S
O36 C39 1.259 . S
O37 Mg28 2.114 . S
O37 C40 1.252 . S
O38 Mg28 2.251 . S
O38 Mg31 2.079 . S
O38 C40 1.273 . S
C39 O35 1.246 . S
C39 O36 1.259 . S
C40 O37 1.252 . S
C40 O38 1.273 . S
O41 Mg28 2.010 . S
O41 C33 1.249 . S
Mg42 O43 2.028 . S
Mg42 O49 1.986 . S
Mg42 O51 2.114 . S
Mg42 O52 2.251 . S
Mg42 O55 2.010 . S
O43 Mg42 2.028 . S
O43 C46 1.250 . S
O44 Mg45 2.028 . S
O44 C46 1.248 . S
Mg45 O44 2.028 . S
Mg45 O50 2.032 . S
Mg45 O52 2.079 . S
C46 O43 1.250 . S
C46 O44 1.248 . S
C47 O48 1.264 . S
C47 O55 1.249 . S
O48 C47 1.264 . S
O49 Mg42 1.986 . S
O49 C53 1.246 . S
O50 Mg45 2.032 . S
O50 C53 1.259 . S
O51 Mg42 2.114 . S
O51 C54 1.252 . S
O52 Mg42 2.251 . S
O52 Mg45 2.079 . S
O52 C54 1.273 . S
C53 O49 1.246 . S
C53 O50 1.259 . S
C54 O51 1.252 . S
C54 O52 1.273 . S
O55 Mg42 2.010 . S
O55 C47 1.249 . S
Mg56 O57 2.028 . S
Mg56 O63 1.986 . S
Mg56 O65 2.114 . S
Mg56 O66 2.251 . S
Mg56 O69 2.010 . S
O57 Mg56 2.028 . S
O57 C60 1.250 . S
O58 Mg59 2.028 . S
O58 C60 1.248 . S
Mg59 O58 2.028 . S
Mg59 O64 2.032 . S
Mg59 O66 2.079 . S
C60 O57 1.250 . S
C60 O58 1.248 . S
C61 O62 1.264 . S
C61 O69 1.249 . S
O62 C61 1.264 . S
O63 Mg56 1.986 . S
O63 C67 1.246 . S
O64 Mg59 2.032 . S
O64 C67 1.259 . S
O65 Mg56 2.114 . S
O65 C68 1.252 . S
O66 Mg56 2.251 . S
O66 Mg59 2.079 . S
O66 C68 1.273 . S
C67 O63 1.246 . S
C67 O64 1.259 . S
C68 O65 1.252 . S
C68 O66 1.273 . S
O69 Mg56 2.010 . S
O69 C61 1.249 . S
Mg70 O71 2.028 . S
Mg70 O77 1.986 . S
Mg70 O79 2.114 . S
Mg70 O80 2.251 . S
Mg70 O83 2.010 . S
O71 Mg70 2.028 . S
O71 C74 1.250 . S
O72 Mg73 2.028 . S
O72 C74 1.248 . S
Mg73 O72 2.028 . S
Mg73 O78 2.032 . S
Mg73 O80 2.079 . S
C74 O71 1.250 . S
C74 O72 1.248 . S
C75 O76 1.264 . S
C75 O83 1.249 . S
O76 C75 1.264 . S
O77 Mg70 1.986 . S
O77 C81 1.246 . S
O78 Mg73 2.032 . S
O78 C81 1.259 . S
O79 Mg70 2.114 . S
O79 C82 1.252 . S
O80 Mg70 2.251 . S
O80 Mg73 2.079 . S
O80 C82 1.273 . S
C81 O77 1.246 . S
C81 O78 1.259 . S
C82 O79 1.252 . S
C82 O80 1.273 . S
O83 Mg70 2.010 . S
O83 C75 1.249 . S
Mg84 O85 2.028 . S
Mg84 O91 1.986 . S
Mg84 O93 2.114 . S
Mg84 O94 2.251 . S
Mg84 O97 2.010 . S
O85 Mg84 2.028 . S
O85 C88 1.250 . S
O86 Mg87 2.028 . S
O86 C88 1.248 . S
Mg87 O86 2.028 . S
Mg87 O92 2.032 . S
Mg87 O94 2.079 . S
C88 O85 1.250 . S
C88 O86 1.248 . S
C89 O90 1.264 . S
C89 O97 1.249 . S
O90 C89 1.264 . S
O91 Mg84 1.986 . S
O91 C95 1.246 . S
O92 Mg87 2.032 . S
O92 C95 1.259 . S
O93 Mg84 2.114 . S
O93 C96 1.252 . S
O94 Mg84 2.251 . S
O94 Mg87 2.079 . S
O94 C96 1.273 . S
C95 O91 1.246 . S
C95 O92 1.259 . S
C96 O93 1.252 . S
C96 O94 1.273 . S
O97 Mg84 2.010 . S
O97 C89 1.249 . S
Mg98 O99 2.028 . S
Mg98 O105 1.986 . S
Mg98 O107 2.114 . S
Mg98 O108 2.251 . S
Mg98 O111 2.010 . S
O99 Mg98 2.028 . S
O99 C102 1.250 . S
O100 Mg101 2.028 . S
O100 C102 1.248 . S
Mg101 O100 2.028 . S
Mg101 O106 2.032 . S
Mg101 O108 2.079 . S
C102 O99 1.250 . S
C102 O100 1.248 . S
C103 O104 1.264 . S
C103 O111 1.249 . S
O104 C103 1.264 . S
O105 Mg98 1.986 . S
O105 C109 1.246 . S
O106 Mg101 2.032 . S
O106 C109 1.259 . S
O107 Mg98 2.114 . S
O107 C110 1.252 . S
O108 Mg98 2.251 . S
O108 Mg101 2.079 . S
O108 C110 1.273 . S
C109 O105 1.246 . S
C109 O106 1.259 . S
C110 O107 1.252 . S
C110 O108 1.273 . S
O111 Mg98 2.010 . S
O111 C103 1.249 . S
Mg112 O113 2.028 . S
Mg112 O119 1.986 . S
Mg112 O121 2.114 . S
Mg112 O122 2.251 . S
Mg112 O125 2.010 . S
O113 Mg112 2.028 . S
O113 C116 1.250 . S
O114 Mg115 2.028 . S
O114 C116 1.248 . S
Mg115 O114 2.028 . S
Mg115 O120 2.032 . S
Mg115 O122 2.079 . S
C116 O113 1.250 . S
C116 O114 1.248 . S
C117 O118 1.264 . S
C117 O125 1.249 . S
O118 C117 1.264 . S
O119 Mg112 1.986 . S
O119 C123 1.246 . S
O120 Mg115 2.032 . S
O120 C123 1.259 . S
O121 Mg112 2.114 . S
O121 C124 1.252 . S
O122 Mg112 2.251 . S
O122 Mg115 2.079 . S
O122 C124 1.273 . S
C123 O119 1.246 . S
C123 O120 1.259 . S
C124 O121 1.252 . S
C124 O122 1.273 . S
O125 Mg112 2.010 . S
O125 C117 1.249 . S
Mg126 O127 2.028 . S
Mg126 O133 1.986 . S
Mg126 O135 2.114 . S
Mg126 O136 2.251 . S
Mg126 O139 2.010 . S
O127 Mg126 2.028 . S
O127 C130 1.250 . S
O128 Mg129 2.028 . S
O128 C130 1.248 . S
Mg129 O128 2.028 . S
Mg129 O134 2.032 . S
Mg129 O136 2.079 . S
C130 O127 1.250 . S
C130 O128 1.248 . S
C131 O132 1.264 . S
C131 O139 1.249 . S
O132 C131 1.264 . S
O133 Mg126 1.986 . S
O133 C137 1.246 . S
O134 Mg129 2.032 . S
O134 C137 1.259 . S
O135 Mg126 2.114 . S
O135 C138 1.252 . S
O136 Mg126 2.251 . S
O136 Mg129 2.079 . S
O136 C138 1.273 . S
C137 O133 1.246 . S
C137 O134 1.259 . S
C138 O135 1.252 . S
C138 O136 1.273 . S
O139 Mg126 2.010 . S
O139 C131 1.249 . S
Mg140 O141 2.028 . S
Mg140 O147 1.986 . S
Mg140 O149 2.114 . S
Mg140 O150 2.251 . S
Mg140 O153 2.010 . S
O141 Mg140 2.028 . S
O141 C144 1.250 . S
O142 Mg143 2.028 . S
O142 C144 1.248 . S
Mg143 O142 2.028 . S
Mg143 O148 2.032 . S
Mg143 O150 2.079 . S
C144 O141 1.250 . S
C144 O142 1.248 . S
C145 O146 1.264 . S
C145 O153 1.249 . S
O146 C145 1.264 . S
O147 Mg140 1.986 . S
O147 C151 1.246 . S
O148 Mg143 2.032 . S
O148 C151 1.259 . S
O149 Mg140 2.114 . S
O149 C152 1.252 . S
O150 Mg140 2.251 . S
O150 Mg143 2.079 . S
O150 C152 1.273 . S
C151 O147 1.246 . S
C151 O148 1.259 . S
C152 O149 1.252 . S
C152 O150 1.273 . S
O153 Mg140 2.010 . S
O153 C145 1.249 . S
Mg154 O155 2.028 . S
Mg154 O161 1.986 . S
Mg154 O163 2.114 . S
Mg154 O164 2.251 . S
Mg154 O167 2.010 . S
O155 Mg154 2.028 . S
O155 C158 1.250 . S
O156 Mg157 2.028 . S
O156 C158 1.248 . S
Mg157 O156 2.028 . S
Mg157 O162 2.032 . S
Mg157 O164 2.079 . S
C158 O155 1.250 . S
C158 O156 1.248 . S
C159 O160 1.264 . S
C159 O167 1.249 . S
O160 C159 1.264 . S
O161 Mg154 1.986 . S
O161 C165 1.246 . S
O162 Mg157 2.032 . S
O162 C165 1.259 . S
O163 Mg154 2.114 . S
O163 C166 1.252 . S
O164 Mg154 2.251 . S
O164 Mg157 2.079 . S
O164 C166 1.273 . S
C165 O161 1.246 . S
C165 O162 1.259 . S
C166 O163 1.252 . S
C166 O164 1.273 . S
O167 Mg154 2.010 . S
O167 C159 1.249 . S
Mg168 O169 2.028 . S
Mg168 O175 1.986 . S
Mg168 O177 2.114 . S
Mg168 O178 2.251 . S
Mg168 O181 2.010 . S
O169 Mg168 2.028 . S
O169 C172 1.250 . S
O170 Mg171 2.028 . S
O170 C172 1.248 . S
Mg171 O170 2.028 . S
Mg171 O176 2.032 . S
Mg171 O178 2.079 . S
C172 O169 1.250 . S
C172 O170 1.248 . S
C173 O174 1.264 . S
C173 O181 1.249 . S
O174 C173 1.264 . S
O175 Mg168 1.986 . S
O175 C179 1.246 . S
O176 Mg171 2.032 . S
O176 C179 1.259 . S
O177 Mg168 2.114 . S
O177 C180 1.252 . S
O178 Mg168 2.251 . S
O178 Mg171 2.079 . S
O178 C180 1.273 . S
C179 O175 1.246 . S
C179 O176 1.259 . S
C180 O177 1.252 . S
C180 O178 1.273 . S
O181 Mg168 2.010 . S
O181 C173 1.249 . S
Mg182 O183 2.028 . S
Mg182 O189 1.986 . S
Mg182 O191 2.114 . S
Mg182 O192 2.251 . S
Mg182 O195 2.010 . S
O183 Mg182 2.028 . S
O183 C186 1.250 . S
O184 Mg185 2.028 . S
O184 C186 1.248 . S
Mg185 O184 2.028 . S
Mg185 O190 2.032 . S
Mg185 O192 2.079 . S
C186 O183 1.250 . S
C186 O184 1.248 . S
C187 O188 1.264 . S
C187 O195 1.249 . S
O188 C187 1.264 . S
O189 Mg182 1.986 . S
O189 C193 1.246 . S
O190 Mg185 2.032 . S
O190 C193 1.259 . S
O191 Mg182 2.114 . S
O191 C194 1.252 . S
O192 Mg182 2.251 . S
O192 Mg185 2.079 . S
O192 C194 1.273 . S
C193 O189 1.246 . S
C193 O190 1.259 . S
C194 O191 1.252 . S
C194 O192 1.273 . S
O195 Mg182 2.010 . S
O195 C187 1.249 . S
Mg196 O197 2.028 . S
Mg196 O203 1.986 . S
Mg196 O205 2.114 . S
Mg196 O206 2.251 . S
Mg196 O209 2.010 . S
O197 Mg196 2.028 . S
O197 C200 1.250 . S
O198 Mg199 2.028 . S
O198 C200 1.248 . S
Mg199 O198 2.028 . S
Mg199 O204 2.032 . S
Mg199 O206 2.079 . S
C200 O197 1.250 . S
C200 O198 1.248 . S
C201 O202 1.264 . S
C201 O209 1.249 . S
O202 C201 1.264 . S
O203 Mg196 1.986 . S
O203 C207 1.246 . S
O204 Mg199 2.032 . S
O204 C207 1.259 . S
O205 Mg196 2.114 . S
O205 C208 1.252 . S
O206 Mg196 2.251 . S
O206 Mg199 2.079 . S
O206 C208 1.273 . S
C207 O203 1.246 . S
C207 O204 1.259 . S
C208 O205 1.252 . S
C208 O206 1.273 . S
O209 Mg196 2.010 . S
O209 C201 1.249 . S
Mg210 O211 2.028 . S
Mg210 O217 1.986 . S
Mg210 O219 2.114 . S
Mg210 O220 2.251 . S
Mg210 O223 2.010 . S
O211 Mg210 2.028 . S
O211 C214 1.250 . S
O212 Mg213 2.028 . S
O212 C214 1.248 . S
Mg213 O212 2.028 . S
Mg213 O218 2.032 . S
Mg213 O220 2.079 . S
C214 O211 1.250 . S
C214 O212 1.248 . S
C215 O216 1.264 . S
C215 O223 1.249 . S
O216 C215 1.264 . S
O217 Mg210 1.986 . S
O217 C221 1.246 . S
O218 Mg213 2.032 . S
O218 C221 1.259 . S
O219 Mg210 2.114 . S
O219 C222 1.252 . S
O220 Mg210 2.251 . S
O220 Mg213 2.079 . S
O220 C222 1.273 . S
C221 O217 1.246 . S
C221 O218 1.259 . S
C222 O219 1.252 . S
C222 O220 1.273 . S
O223 Mg210 2.010 . S
O223 C215 1.249 . S
Mg224 O225 2.028 . S
Mg224 O231 1.986 . S
Mg224 O233 2.114 . S
Mg224 O234 2.251 . S
Mg224 O237 2.010 . S
O225 Mg224 2.028 . S
O225 C228 1.250 . S
O226 Mg227 2.028 . S
O226 C228 1.248 . S
Mg227 O226 2.028 . S
Mg227 O232 2.032 . S
Mg227 O234 2.079 . S
C228 O225 1.250 . S
C228 O226 1.248 . S
C229 O230 1.264 . S
C229 O237 1.249 . S
O230 C229 1.264 . S
O231 Mg224 1.986 . S
O231 C235 1.246 . S
O232 Mg227 2.032 . S
O232 C235 1.259 . S
O233 Mg224 2.114 . S
O233 C236 1.252 . S
O234 Mg224 2.251 . S
O234 Mg227 2.079 . S
O234 C236 1.273 . S
C235 O231 1.246 . S
C235 O232 1.259 . S
C236 O233 1.252 . S
C236 O234 1.273 . S
O237 Mg224 2.010 . S
O237 C229 1.249 . S
Mg238 O239 2.028 . S
Mg238 O245 1.986 . S
Mg238 O247 2.114 . S
Mg238 O248 2.251 . S
Mg238 O251 2.010 . S
O239 Mg238 2.028 . S
O239 C242 1.250 . S
O240 Mg241 2.028 . S
O240 C242 1.248 . S
Mg241 O240 2.028 . S
Mg241 O246 2.032 . S
Mg241 O248 2.079 . S
C242 O239 1.250 . S
C242 O240 1.248 . S
C243 O244 1.264 . S
C243 O251 1.249 . S
O244 C243 1.264 . S
O245 Mg238 1.986 . S
O245 C249 1.246 . S
O246 Mg241 2.032 . S
O246 C249 1.259 . S
O247 Mg238 2.114 . S
O247 C250 1.252 . S
O248 Mg238 2.251 . S
O248 Mg241 2.079 . S
O248 C250 1.273 . S
C249 O245 1.246 . S
C249 O246 1.259 . S
C250 O247 1.252 . S
C250 O248 1.273 . S
O251 Mg238 2.010 . S
O251 C243 1.249 . S
Mg252 O253 2.028 . S
Mg252 O259 1.986 . S
Mg252 O261 2.114 . S
Mg252 O262 2.251 . S
Mg252 O265 2.010 . S
O253 Mg252 2.028 . S
O253 C256 1.250 . S
O254 Mg255 2.028 . S
O254 C256 1.248 . S
Mg255 O254 2.028 . S
Mg255 O260 2.032 . S
Mg255 O262 2.079 . S
C256 O253 1.250 . S
C256 O254 1.248 . S
C257 O258 1.264 . S
C257 O265 1.249 . S
O258 C257 1.264 . S
O259 Mg252 1.986 . S
O259 C263 1.246 . S
O260 Mg255 2.032 . S
O260 C263 1.259 . S
O261 Mg252 2.114 . S
O261 C264 1.252 . S
O262 Mg252 2.251 . S
O262 Mg255 2.079 . S
O262 C264 1.273 . S
C263 O259 1.246 . S
C263 O260 1.259 . S
C264 O261 1.252 . S
C264 O262 1.273 . S
O265 Mg252 2.010 . S
O265 C257 1.249 . S
Mg266 O267 2.028 . S
Mg266 O273 1.986 . S
Mg266 O275 2.114 . S
Mg266 O276 2.251 . S
Mg266 O279 2.010 . S
O267 Mg266 2.028 . S
O267 C270 1.250 . S
O268 Mg269 2.028 . S
O268 C270 1.248 . S
Mg269 O268 2.028 . S
Mg269 O274 2.032 . S
Mg269 O276 2.079 . S
C270 O267 1.250 . S
C270 O268 1.248 . S
C271 O272 1.264 . S
C271 O279 1.249 . S
O272 C271 1.264 . S
O273 Mg266 1.986 . S
O273 C277 1.246 . S
O274 Mg269 2.032 . S
O274 C277 1.259 . S
O275 Mg266 2.114 . S
O275 C278 1.252 . S
O276 Mg266 2.251 . S
O276 Mg269 2.079 . S
O276 C278 1.273 . S
C277 O273 1.246 . S
C277 O274 1.259 . S
C278 O275 1.252 . S
C278 O276 1.273 . S
O279 Mg266 2.010 . S
O279 C271 1.249 . S
Mg280 O281 2.028 . S
Mg280 O287 1.986 . S
Mg280 O289 2.114 . S
Mg280 O290 2.251 . S
Mg280 O293 2.010 . S
O281 Mg280 2.028 . S
O281 C284 1.250 . S
O282 Mg283 2.028 . S
O282 C284 1.248 . S
Mg283 O282 2.028 . S
Mg283 O288 2.032 . S
Mg283 O290 2.079 . S
C284 O281 1.250 . S
C284 O282 1.248 . S
C285 O286 1.264 . S
C285 O293 1.249 . S
O286 C285 1.264 . S
O287 Mg280 1.986 . S
O287 C291 1.246 . S
O288 Mg283 2.032 . S
O288 C291 1.259 . S
O289 Mg280 2.114 . S
O289 C292 1.252 . S
O290 Mg280 2.251 . S
O290 Mg283 2.079 . S
O290 C292 1.273 . S
C291 O287 1.246 . S
C291 O288 1.259 . S
C292 O289 1.252 . S
C292 O290 1.273 . S
O293 Mg280 2.010 . S
O293 C285 1.249 . S
Mg294 O295 2.028 . S
Mg294 O301 1.986 . S
Mg294 O303 2.114 . S
Mg294 O304 2.251 . S
Mg294 O307 2.010 . S
O295 Mg294 2.028 . S
O295 C298 1.250 . S
O296 Mg297 2.028 . S
O296 C298 1.248 . S
Mg297 O296 2.028 . S
Mg297 O302 2.032 . S
Mg297 O304 2.079 . S
C298 O295 1.250 . S
C298 O296 1.248 . S
C299 O300 1.264 . S
C299 O307 1.249 . S
O300 C299 1.264 . S
O301 Mg294 1.986 . S
O301 C305 1.246 . S
O302 Mg297 2.032 . S
O302 C305 1.259 . S
O303 Mg294 2.114 . S
O303 C306 1.252 . S
O304 Mg294 2.251 . S
O304 Mg297 2.079 . S
O304 C306 1.273 . S
C305 O301 1.246 . S
C305 O302 1.259 . S
C306 O303 1.252 . S
C306 O304 1.273 . S
O307 Mg294 2.010 . S
O307 C299 1.249 . S
Mg308 O309 2.028 . S
Mg308 O315 1.986 . S
Mg308 O317 2.114 . S
Mg308 O318 2.251 . S
Mg308 O321 2.010 . S
O309 Mg308 2.028 . S
O309 C312 1.250 . S
O310 Mg311 2.028 . S
O310 C312 1.248 . S
Mg311 O310 2.028 . S
Mg311 O316 2.032 . S
Mg311 O318 2.079 . S
C312 O309 1.250 . S
C312 O310 1.248 . S
C313 O314 1.264 . S
C313 O321 1.249 . S
O314 C313 1.264 . S
O315 Mg308 1.986 . S
O315 C319 1.246 . S
O316 Mg311 2.032 . S
O316 C319 1.259 . S
O317 Mg308 2.114 . S
O317 C320 1.252 . S
O318 Mg308 2.251 . S
O318 Mg311 2.079 . S
O318 C320 1.273 . S
C319 O315 1.246 . S
C319 O316 1.259 . S
C320 O317 1.252 . S
C320 O318 1.273 . S
O321 Mg308 2.010 . S
O321 C313 1.249 . S
Mg322 O323 2.028 . S
Mg322 O329 1.986 . S
Mg322 O331 2.114 . S
Mg322 O332 2.251 . S
Mg322 O335 2.010 . S
O323 Mg322 2.028 . S
O323 C326 1.250 . S
O324 Mg325 2.028 . S
O324 C326 1.248 . S
Mg325 O324 2.028 . S
Mg325 O330 2.032 . S
Mg325 O332 2.079 . S
C326 O323 1.250 . S
C326 O324 1.248 . S
C327 O328 1.264 . S
C327 O335 1.249 . S
O328 C327 1.264 . S
O329 Mg322 1.986 . S
O329 C333 1.246 . S
O330 Mg325 2.032 . S
O330 C333 1.259 . S
O331 Mg322 2.114 . S
O331 C334 1.252 . S
O332 Mg322 2.251 . S
O332 Mg325 2.079 . S
O332 C334 1.273 . S
C333 O329 1.246 . S
C333 O330 1.259 . S
C334 O331 1.252 . S
C334 O332 1.273 . S
O335 Mg322 2.010 . S
O335 C327 1.249 . S
Mg336 O337 2.028 . S
Mg336 O343 1.986 . S
Mg336 O345 2.114 . S
Mg336 O346 2.251 . S
Mg336 O349 2.010 . S
O337 Mg336 2.028 . S
O337 C340 1.250 . S
O338 Mg339 2.028 . S
O338 C340 1.248 . S
Mg339 O338 2.028 . S
Mg339 O344 2.032 . S
Mg339 O346 2.079 . S
C340 O337 1.250 . S
C340 O338 1.248 . S
C341 O342 1.264 . S
C341 O349 1.249 . S
O342 C341 1.264 . S
O343 Mg336 1.986 . S
O343 C347 1.246 . S
O344 Mg339 2.032 . S
O344 C347 1.259 . S
O345 Mg336 2.114 . S
O345 C348 1.252 . S
O346 Mg336 2.251 . S
O346 Mg339 2.079 . S
O346 C348 1.273 . S
C347 O343 1.246 . S
C347 O344 1.259 . S
C348 O345 1.252 . S
C348 O346 1.273 . S
O349 Mg336 2.010 . S
O349 C341 1.249 . S
Mg350 O351 2.028 . S
Mg350 O357 1.986 . S
Mg350 O359 2.114 . S
Mg350 O360 2.251 . S
Mg350 O363 2.010 . S
O351 Mg350 2.028 . S
O351 C354 1.250 . S
O352 Mg353 2.028 . S
O352 C354 1.248 . S
Mg353 O352 2.028 . S
Mg353 O358 2.032 . S
Mg353 O360 2.079 . S
C354 O351 1.250 . S
C354 O352 1.248 . S
C355 O356 1.264 . S
C355 O363 1.249 . S
O356 C355 1.264 . S
O357 Mg350 1.986 . S
O357 C361 1.246 . S
O358 Mg353 2.032 . S
O358 C361 1.259 . S
O359 Mg350 2.114 . S
O359 C362 1.252 . S
O360 Mg350 2.251 . S
O360 Mg353 2.079 . S
O360 C362 1.273 . S
C361 O357 1.246 . S
C361 O358 1.259 . S
C362 O359 1.252 . S
C362 O360 1.273 . S
O363 Mg350 2.010 . S
O363 C355 1.249 . S
Mg364 O365 2.028 . S
Mg364 O371 1.986 . S
Mg364 O373 2.114 . S
Mg364 O374 2.251 . S
Mg364 O377 2.010 . S
O365 Mg364 2.028 . S
O365 C368 1.250 . S
O366 Mg367 2.028 . S
O366 C368 1.248 . S
Mg367 O366 2.028 . S
Mg367 O372 2.032 . S
Mg367 O374 2.079 . S
C368 O365 1.250 . S
C368 O366 1.248 . S
C369 O370 1.264 . S
C369 O377 1.249 . S
O370 C369 1.264 . S
O371 Mg364 1.986 . S
O371 C375 1.246 . S
O372 Mg367 2.032 . S
O372 C375 1.259 . S
O373 Mg364 2.114 . S
O373 C376 1.252 . S
O374 Mg364 2.251 . S
O374 Mg367 2.079 . S
O374 C376 1.273 . S
C375 O371 1.246 . S
C375 O372 1.259 . S
C376 O373 1.252 . S
C376 O374 1.273 . S
O377 Mg364 2.010 . S
O377 C369 1.249 . S
Mg378 O379 2.028 . S
Mg378 O385 1.986 . S
Mg378 O387 2.114 . S
Mg378 O388 2.251 . S
Mg378 O391 2.010 . S
O379 Mg378 2.028 . S
O379 C382 1.250 . S
O380 Mg381 2.028 . S
O380 C382 1.248 . S
Mg381 O380 2.028 . S
Mg381 O386 2.032 . S
Mg381 O388 2.079 . S
C382 O379 1.250 . S
C382 O380 1.248 . S
C383 O384 1.264 . S
C383 O391 1.249 . S
O384 C383 1.264 . S
O385 Mg378 1.986 . S
O385 C389 1.246 . S
O386 Mg381 2.032 . S
O386 C389 1.259 . S
O387 Mg378 2.114 . S
O387 C390 1.252 . S
O388 Mg378 2.251 . S
O388 Mg381 2.079 . S
O388 C390 1.273 . S
C389 O385 1.246 . S
C389 O386 1.259 . S
C390 O387 1.252 . S
C390 O388 1.273 . S
O391 Mg378 2.010 . S
O391 C383 1.249 . S
Mg392 O393 2.028 . S
Mg392 O399 1.986 . S
Mg392 O401 2.114 . S
Mg392 O402 2.251 . S
Mg392 O405 2.010 . S
O393 Mg392 2.028 . S
O393 C396 1.250 . S
O394 Mg395 2.028 . S
O394 C396 1.248 . S
Mg395 O394 2.028 . S
Mg395 O400 2.032 . S
Mg395 O402 2.079 . S
C396 O393 1.250 . S
C396 O394 1.248 . S
C397 O398 1.264 . S
C397 O405 1.249 . S
O398 C397 1.264 . S
O399 Mg392 1.986 . S
O399 C403 1.246 . S
O400 Mg395 2.032 . S
O400 C403 1.259 . S
O401 Mg392 2.114 . S
O401 C404 1.252 . S
O402 Mg392 2.251 . S
O402 Mg395 2.079 . S
O402 C404 1.273 . S
C403 O399 1.246 . S
C403 O400 1.259 . S
C404 O401 1.252 . S
C404 O402 1.273 . S
O405 Mg392 2.010 . S
O405 C397 1.249 . S
Mg406 O407 2.028 . S
Mg406 O413 1.986 . S
Mg406 O415 2.114 . S
Mg406 O416 2.251 . S
Mg406 O419 2.010 . S
O407 Mg406 2.028 . S
O407 C410 1.250 . S
O408 Mg409 2.028 . S
O408 C410 1.248 . S
Mg409 O408 2.028 . S
Mg409 O414 2.032 . S
Mg409 O416 2.079 . S
C410 O407 1.250 . S
C410 O408 1.248 . S
C411 O412 1.264 . S
C411 O419 1.249 . S
O412 C411 1.264 . S
O413 Mg406 1.986 . S
O413 C417 1.246 . S
O414 Mg409 2.032 . S
O414 C417 1.259 . S
O415 Mg406 2.114 . S
O415 C418 1.252 . S
O416 Mg406 2.251 . S
O416 Mg409 2.079 . S
O416 C418 1.273 . S
C417 O413 1.246 . S
C417 O414 1.259 . S
C418 O415 1.252 . S
C418 O416 1.273 . S
O419 Mg406 2.010 . S
O419 C411 1.249 . S
Mg420 O421 2.028 . S
Mg420 O427 1.986 . S
Mg420 O429 2.114 . S
Mg420 O430 2.251 . S
Mg420 O433 2.010 . S
O421 Mg420 2.028 . S
O421 C424 1.250 . S
O422 Mg423 2.028 . S
O422 C424 1.248 . S
Mg423 O422 2.028 . S
Mg423 O428 2.032 . S
Mg423 O430 2.079 . S
C424 O421 1.250 . S
C424 O422 1.248 . S
C425 O426 1.264 . S
C425 O433 1.249 . S
O426 C425 1.264 . S
O427 Mg420 1.986 . S
O427 C431 1.246 . S
O428 Mg423 2.032 . S
O428 C431 1.259 . S
O429 Mg420 2.114 . S
O429 C432 1.252 . S
O430 Mg420 2.251 . S
O430 Mg423 2.079 . S
O430 C432 1.273 . S
C431 O427 1.246 . S
C431 O428 1.259 . S
C432 O429 1.252 . S
C432 O430 1.273 . S
O433 Mg420 2.010 . S
O433 C425 1.249 . S
Mg434 O435 2.028 . S
Mg434 O441 1.986 . S
Mg434 O443 2.114 . S
Mg434 O444 2.251 . S
Mg434 O447 2.010 . S
O435 Mg434 2.028 . S
O435 C438 1.250 . S
O436 Mg437 2.028 . S
O436 C438 1.248 . S
Mg437 O436 2.028 . S
Mg437 O442 2.032 . S
Mg437 O444 2.079 . S
C438 O435 1.250 . S
C438 O436 1.248 . S
C439 O440 1.264 . S
C439 O447 1.249 . S
O440 C439 1.264 . S
O441 Mg434 1.986 . S
O441 C445 1.246 . S
O442 Mg437 2.032 . S
O442 C445 1.259 . S
O443 Mg434 2.114 . S
O443 C446 1.252 . S
O444 Mg434 2.251 . S
O444 Mg437 2.079 . S
O444 C446 1.273 . S
C445 O441 1.246 . S
C445 O442 1.259 . S
C446 O443 1.252 . S
C446 O444 1.273 . S
O447 Mg434 2.010 . S
O447 C439 1.249 . S
Mg448 O449 2.028 . S
Mg448 O455 1.986 . S
Mg448 O457 2.114 . S
Mg448 O458 2.251 . S
Mg448 O461 2.010 . S
O449 Mg448 2.028 . S
O449 C452 1.250 . S
O450 Mg451 2.028 . S
O450 C452 1.248 . S
Mg451 O450 2.028 . S
Mg451 O456 2.032 . S
Mg451 O458 2.079 . S
C452 O449 1.250 . S
C452 O450 1.248 . S
C453 O454 1.264 . S
C453 O461 1.249 . S
O454 C453 1.264 . S
O455 Mg448 1.986 . S
O455 C459 1.246 . S
O456 Mg451 2.032 . S
O456 C459 1.259 . S
O457 Mg448 2.114 . S
O457 C460 1.252 . S
O458 Mg448 2.251 . S
O458 Mg451 2.079 . S
O458 C460 1.273 . S
C459 O455 1.246 . S
C459 O456 1.259 . S
C460 O457 1.252 . S
C460 O458 1.273 . S
O461 Mg448 2.010 . S
O461 C453 1.249 . S
Mg462 O463 2.028 . S
Mg462 O469 1.986 . S
Mg462 O471 2.114 . S
Mg462 O472 2.251 . S
Mg462 O475 2.010 . S
O463 Mg462 2.028 . S
O463 C466 1.250 . S
O464 Mg465 2.028 . S
O464 C466 1.248 . S
Mg465 O464 2.028 . S
Mg465 O470 2.032 . S
Mg465 O472 2.079 . S
C466 O463 1.250 . S
C466 O464 1.248 . S
C467 O468 1.264 . S
C467 O475 1.249 . S
O468 C467 1.264 . S
O469 Mg462 1.986 . S
O469 C473 1.246 . S
O470 Mg465 2.032 . S
O470 C473 1.259 . S
O471 Mg462 2.114 . S
O471 C474 1.252 . S
O472 Mg462 2.251 . S
O472 Mg465 2.079 . S
O472 C474 1.273 . S
C473 O469 1.246 . S
C473 O470 1.259 . S
C474 O471 1.252 . S
C474 O472 1.273 . S
O475 Mg462 2.010 . S
O475 C467 1.249 . S
Mg476 O477 2.028 . S
Mg476 O483 1.986 . S
Mg476 O485 2.114 . S
Mg476 O486 2.251 . S
Mg476 O489 2.010 . S
O477 Mg476 2.028 . S
O477 C480 1.250 . S
O478 Mg479 2.028 . S
O478 C480 1.248 . S
Mg479 O478 2.028 . S
Mg479 O484 2.032 . S
Mg479 O486 2.079 . S
C480 O477 1.250 . S
C480 O478 1.248 . S
C481 O482 1.264 . S
C481 O489 1.249 . S
O482 C481 1.264 . S
O483 Mg476 1.986 . S
O483 C487 1.246 . S
O484 Mg479 2.032 . S
O484 C487 1.259 . S
O485 Mg476 2.114 . S
O485 C488 1.252 . S
O486 Mg476 2.251 . S
O486 Mg479 2.079 . S
O486 C488 1.273 . S
C487 O483 1.246 . S
C487 O484 1.259 . S
C488 O485 1.252 . S
C488 O486 1.273 . S
O489 Mg476 2.010 . S
O489 C481 1.249 . S
Mg490 O491 2.028 . S
Mg490 O497 1.986 . S
Mg490 O499 2.114 . S
Mg490 O500 2.251 . S
Mg490 O503 2.010 . S
O491 Mg490 2.028 . S
O491 C494 1.250 . S
O492 Mg493 2.028 . S
O492 C494 1.248 . S
Mg493 O492 2.028 . S
Mg493 O498 2.032 . S
Mg493 O500 2.079 . S
C494 O491 1.250 . S
C494 O492 1.248 . S
C495 O496 1.264 . S
C495 O503 1.249 . S
O496 C495 1.264 . S
O497 Mg490 1.986 . S
O497 C501 1.246 . S
O498 Mg493 2.032 . S
O498 C501 1.259 . S
O499 Mg490 2.114 . S
O499 C502 1.252 . S
O500 Mg490 2.251 . S
O500 Mg493 2.079 . S
O500 C502 1.273 . S
C501 O497 1.246 . S
C501 O498 1.259 . S
C502 O499 1.252 . S
C502 O500 1.273 . S
O503 Mg490 2.010 . S
O503 C495 1.249 . S
Mg504 O505 2.028 . S
Mg504 O511 1.986 . S
Mg504 O513 2.114 . S
Mg504 O514 2.251 . S
Mg504 O517 2.010 . S
O505 Mg504 2.028 . S
O505 C508 1.250 . S
O506 Mg507 2.028 . S
O506 C508 1.248 . S
Mg507 O506 2.028 . S
Mg507 O512 2.032 . S
Mg507 O514 2.079 . S
C508 O505 1.250 . S
C508 O506 1.248 . S
C509 O510 1.264 . S
C509 O517 1.249 . S
O510 C509 1.264 . S
O511 Mg504 1.986 . S
O511 C515 1.246 . S
O512 Mg507 2.032 . S
O512 C515 1.259 . S
O513 Mg504 2.114 . S
O513 C516 1.252 . S
O514 Mg504 2.251 . S
O514 Mg507 2.079 . S
O514 C516 1.273 . S
C515 O511 1.246 . S
C515 O512 1.259 . S
C516 O513 1.252 . S
C516 O514 1.273 . S
O517 Mg504 2.010 . S
O517 C509 1.249 . S
Mg518 O519 2.028 . S
Mg518 O525 1.986 . S
Mg518 O527 2.114 . S
Mg518 O528 2.251 . S
Mg518 O531 2.010 . S
O519 Mg518 2.028 . S
O519 C522 1.250 . S
O520 Mg521 2.028 . S
O520 C522 1.248 . S
Mg521 O520 2.028 . S
Mg521 O526 2.032 . S
Mg521 O528 2.079 . S
C522 O519 1.250 . S
C522 O520 1.248 . S
C523 O524 1.264 . S
C523 O531 1.249 . S
O524 C523 1.264 . S
O525 Mg518 1.986 . S
O525 C529 1.246 . S
O526 Mg521 2.032 . S
O526 C529 1.259 . S
O527 Mg518 2.114 . S
O527 C530 1.252 . S
O528 Mg518 2.251 . S
O528 Mg521 2.079 . S
O528 C530 1.273 . S
C529 O525 1.246 . S
C529 O526 1.259 . S
C530 O527 1.252 . S
C530 O528 1.273 . S
O531 Mg518 2.010 . S
O531 C523 1.249 . S
Mg532 O533 2.028 . S
Mg532 O539 1.986 . S
Mg532 O541 2.114 . S
Mg532 O542 2.251 . S
Mg532 O545 2.010 . S
O533 Mg532 2.028 . S
O533 C536 1.250 . S
O534 Mg535 2.028 . S
O534 C536 1.248 . S
Mg535 O534 2.028 . S
Mg535 O540 2.032 . S
Mg535 O542 2.079 . S
C536 O533 1.250 . S
C536 O534 1.248 . S
C537 O538 1.264 . S
C537 O545 1.249 . S
O538 C537 1.264 . S
O539 Mg532 1.986 . S
O539 C543 1.246 . S
O540 Mg535 2.032 . S
O540 C543 1.259 . S
O541 Mg532 2.114 . S
O541 C544 1.252 . S
O542 Mg532 2.251 . S
O542 Mg535 2.079 . S
O542 C544 1.273 . S
C543 O539 1.246 . S
C543 O540 1.259 . S
C544 O541 1.252 . S
C544 O542 1.273 . S
O545 Mg532 2.010 . S
O545 C537 1.249 . S
Mg546 O547 2.028 . S
Mg546 O553 1.986 . S
Mg546 O555 2.114 . S
Mg546 O556 2.251 . S
Mg546 O559 2.010 . S
O547 Mg546 2.028 . S
O547 C550 1.250 . S
O548 Mg549 2.028 . S
O548 C550 1.248 . S
Mg549 O548 2.028 . S
Mg549 O554 2.032 . S
Mg549 O556 2.079 . S
C550 O547 1.250 . S
C550 O548 1.248 . S
C551 O552 1.264 . S
C551 O559 1.249 . S
O552 C551 1.264 . S
O553 Mg546 1.986 . S
O553 C557 1.246 . S
O554 Mg549 2.032 . S
O554 C557 1.259 . S
O555 Mg546 2.114 . S
O555 C558 1.252 . S
O556 Mg546 2.251 . S
O556 Mg549 2.079 . S
O556 C558 1.273 . S
C557 O553 1.246 . S
C557 O554 1.259 . S
C558 O555 1.252 . S
C558 O556 1.273 . S
O559 Mg546 2.010 . S
O559 C551 1.249 . S
Mg560 O561 2.028 . S
Mg560 O567 1.986 . S
Mg560 O569 2.114 . S
Mg560 O570 2.251 . S
Mg560 O573 2.010 . S
O561 Mg560 2.028 . S
O561 C564 1.250 . S
O562 Mg563 2.028 . S
O562 C564 1.248 . S
Mg563 O562 2.028 . S
Mg563 O568 2.032 . S
Mg563 O570 2.079 . S
C564 O561 1.250 . S
C564 O562 1.248 . S
C565 O566 1.264 . S
C565 O573 1.249 . S
O566 C565 1.264 . S
O567 Mg560 1.986 . S
O567 C571 1.246 . S
O568 Mg563 2.032 . S
O568 C571 1.259 . S
O569 Mg560 2.114 . S
O569 C572 1.252 . S
O570 Mg560 2.251 . S
O570 Mg563 2.079 . S
O570 C572 1.273 . S
C571 O567 1.246 . S
C571 O568 1.259 . S
C572 O569 1.252 . S
C572 O570 1.273 . S
O573 Mg560 2.010 . S
O573 C565 1.249 . S
Mg574 O575 2.028 . S
Mg574 O581 1.986 . S
Mg574 O583 2.114 . S
Mg574 O584 2.251 . S
Mg574 O587 2.010 . S
O575 Mg574 2.028 . S
O575 C578 1.250 . S
O576 Mg577 2.028 . S
O576 C578 1.248 . S
Mg577 O576 2.028 . S
Mg577 O582 2.032 . S
Mg577 O584 2.079 . S
C578 O575 1.250 . S
C578 O576 1.248 . S
C579 O580 1.264 . S
C579 O587 1.249 . S
O580 C579 1.264 . S
O581 Mg574 1.986 . S
O581 C585 1.246 . S
O582 Mg577 2.032 . S
O582 C585 1.259 . S
O583 Mg574 2.114 . S
O583 C586 1.252 . S
O584 Mg574 2.251 . S
O584 Mg577 2.079 . S
O584 C586 1.273 . S
C585 O581 1.246 . S
C585 O582 1.259 . S
C586 O583 1.252 . S
C586 O584 1.273 . S
O587 Mg574 2.010 . S
O587 C579 1.249 . S
Mg588 O589 2.028 . S
Mg588 O595 1.986 . S
Mg588 O597 2.114 . S
Mg588 O598 2.251 . S
Mg588 O601 2.010 . S
O589 Mg588 2.028 . S
O589 C592 1.250 . S
O590 Mg591 2.028 . S
O590 C592 1.248 . S
Mg591 O590 2.028 . S
Mg591 O596 2.032 . S
Mg591 O598 2.079 . S
C592 O589 1.250 . S
C592 O590 1.248 . S
C593 O594 1.264 . S
C593 O601 1.249 . S
O594 C593 1.264 . S
O595 Mg588 1.986 . S
O595 C599 1.246 . S
O596 Mg591 2.032 . S
O596 C599 1.259 . S
O597 Mg588 2.114 . S
O597 C600 1.252 . S
O598 Mg588 2.251 . S
O598 Mg591 2.079 . S
O598 C600 1.273 . S
C599 O595 1.246 . S
C599 O596 1.259 . S
C600 O597 1.252 . S
C600 O598 1.273 . S
O601 Mg588 2.010 . S
O601 C593 1.249 . S
Mg602 O603 2.028 . S
Mg602 O609 1.986 . S
Mg602 O611 2.114 . S
Mg602 O612 2.251 . S
Mg602 O615 2.010 . S
O603 Mg602 2.028 . S
O603 C606 1.250 . S
O604 Mg605 2.028 . S
O604 C606 1.248 . S
Mg605 O604 2.028 . S
Mg605 O610 2.032 . S
Mg605 O612 2.079 . S
C606 O603 1.250 . S
C606 O604 1.248 . S
C607 O608 1.264 . S
C607 O615 1.249 . S
O608 C607 1.264 . S
O609 Mg602 1.986 . S
O609 C613 1.246 . S
O610 Mg605 2.032 . S
O610 C613 1.259 . S
O611 Mg602 2.114 . S
O611 C614 1.252 . S
O612 Mg602 2.251 . S
O612 Mg605 2.079 . S
O612 C614 1.273 . S
C613 O609 1.246 . S
C613 O610 1.259 . S
C614 O611 1.252 . S
C614 O612 1.273 . S
O615 Mg602 2.010 . S
O615 C607 1.249 . S
Mg616 O617 2.028 . S
Mg616 O623 1.986 . S
Mg616 O625 2.114 . S
Mg616 O626 2.251 . S
Mg616 O629 2.010 . S
O617 Mg616 2.028 . S
O617 C620 1.250 . S
O618 Mg619 2.028 . S
O618 C620 1.248 . S
Mg619 O618 2.028 . S
Mg619 O624 2.032 . S
Mg619 O626 2.079 . S
C620 O617 1.250 . S
C620 O618 1.248 . S
C621 O622 1.264 . S
C621 O629 1.249 . S
O622 C621 1.264 . S
O623 Mg616 1.986 . S
O623 C627 1.246 . S
O624 Mg619 2.032 . S
O624 C627 1.259 . S
O625 Mg616 2.114 . S
O625 C628 1.252 . S
O626 Mg616 2.251 . S
O626 Mg619 2.079 . S
O626 C628 1.273 . S
C627 O623 1.246 . S
C627 O624 1.259 . S
C628 O625 1.252 . S
C628 O626 1.273 . S
O629 Mg616 2.010 . S
O629 C621 1.249 . S
Mg630 O631 2.028 . S
Mg630 O637 1.986 . S
Mg630 O639 2.114 . S
Mg630 O640 2.251 . S
Mg630 O643 2.010 . S
O631 Mg630 2.028 . S
O631 C634 1.250 . S
O632 Mg633 2.028 . S
O632 C634 1.248 . S
Mg633 O632 2.028 . S
Mg633 O638 2.032 . S
Mg633 O640 2.079 . S
C634 O631 1.250 . S
C634 O632 1.248 . S
C635 O636 1.264 . S
C635 O643 1.249 . S
O636 C635 1.264 . S
O637 Mg630 1.986 . S
O637 C641 1.246 . S
O638 Mg633 2.032 . S
O638 C641 1.259 . S
O639 Mg630 2.114 . S
O639 C642 1.252 . S
O640 Mg630 2.251 . S
O640 Mg633 2.079 . S
O640 C642 1.273 . S
C641 O637 1.246 . S
C641 O638 1.259 . S
C642 O639 1.252 . S
C642 O640 1.273 . S
O643 Mg630 2.010 . S
O643 C635 1.249 . S
Mg644 O645 2.028 . S
Mg644 O651 1.986 . S
Mg644 O653 2.114 . S
Mg644 O654 2.251 . S
Mg644 O657 2.010 . S
O645 Mg644 2.028 . S
O645 C648 1.250 . S
O646 Mg647 2.028 . S
O646 C648 1.248 . S
Mg647 O646 2.028 . S
Mg647 O652 2.032 . S
Mg647 O654 2.079 . S
C648 O645 1.250 . S
C648 O646 1.248 . S
C649 O650 1.264 . S
C649 O657 1.249 . S
O650 C649 1.264 . S
O651 Mg644 1.986 . S
O651 C655 1.246 . S
O652 Mg647 2.032 . S
O652 C655 1.259 . S
O653 Mg644 2.114 . S
O653 C656 1.252 . S
O654 Mg644 2.251 . S
O654 Mg647 2.079 . S
O654 C656 1.273 . S
C655 O651 1.246 . S
C655 O652 1.259 . S
C656 O653 1.252 . S
C656 O654 1.273 . S
O657 Mg644 2.010 . S
O657 C649 1.249 . S
Mg658 O659 2.028 . S
Mg658 O665 1.986 . S
Mg658 O667 2.114 . S
Mg658 O668 2.251 . S
Mg658 O671 2.010 . S
O659 Mg658 2.028 . S
O659 C662 1.250 . S
O660 Mg661 2.028 . S
O660 C662 1.248 . S
Mg661 O660 2.028 . S
Mg661 O666 2.032 . S
Mg661 O668 2.079 . S
C662 O659 1.250 . S
C662 O660 1.248 . S
C663 O664 1.264 . S
C663 O671 1.249 . S
O664 C663 1.264 . S
O665 Mg658 1.986 . S
O665 C669 1.246 . S
O666 Mg661 2.032 . S
O666 C669 1.259 . S
O667 Mg658 2.114 . S
O667 C670 1.252 . S
O668 Mg658 2.251 . S
O668 Mg661 2.079 . S
O668 C670 1.273 . S
C669 O665 1.246 . S
C669 O666 1.259 . S
C670 O667 1.252 . S
C670 O668 1.273 . S
O671 Mg658 2.010 . S
O671 C663 1.249 . S
H672 C678 0.930 . S
H673 C682 0.930 . S
H674 C687 0.929 . S
H675 C685 0.929 . S
H676 C680 0.929 . S
H677 C686 0.929 . S
C678 H672 0.930 . S
C678 C679 1.367 . S
C678 C686 1.378 . S
C679 C678 1.367 . S
C679 C687 1.433 . S
C680 H676 0.929 . S
C680 C682 1.378 . S
C680 C684 1.350 . S
C681 C684 1.463 . S
C681 C686 1.350 . S
C681 N689 1.427 . S
C682 H673 0.930 . S
C682 C680 1.378 . S
C682 C683 1.367 . S
C683 C682 1.367 . S
C683 C685 1.433 . S
C684 C680 1.350 . S
C684 C681 1.463 . S
C684 N688 1.427 . S
C685 H675 0.929 . S
C685 C683 1.433 . S
C685 N688 1.384 . S
C686 H677 0.929 . S
C686 C678 1.378 . S
C686 C681 1.350 . S
C687 H674 0.929 . S
C687 C679 1.433 . S
C687 N689 1.384 . S
N688 C684 1.427 . S
N688 C685 1.384 . S
N689 C681 1.427 . S
N689 C687 1.384 . S
H690 C696 0.930 . S
H691 C700 0.930 . S
H692 C705 0.929 . S
H693 C703 0.929 . S
H694 C698 0.929 . S
H695 C704 0.929 . S
C696 H690 0.930 . S
C696 C697 1.367 . S
C696 C704 1.378 . S
C697 C696 1.367 . S
C697 C705 1.433 . S
C698 H694 0.929 . S
C698 C700 1.378 . S
C698 C702 1.350 . S
C699 C702 1.463 . S
C699 C704 1.350 . S
C699 N707 1.427 . S
C700 H691 0.930 . S
C700 C698 1.378 . S
C700 C701 1.367 . S
C701 C700 1.367 . S
C701 C703 1.433 . S
C702 C698 1.350 . S
C702 C699 1.463 . S
C702 N706 1.427 . S
C703 H693 0.929 . S
C703 C701 1.433 . S
C703 N706 1.384 . S
C704 H695 0.929 . S
C704 C696 1.378 . S
C704 C699 1.350 . S
C705 H692 0.929 . S
C705 C697 1.433 . S
C705 N707 1.384 . S
N706 C702 1.427 . S
N706 C703 1.384 . S
N707 C699 1.427 . S
N707 C705 1.384 . S
H708 C714 0.930 . S
H709 C718 0.930 . S
H710 C723 0.929 . S
H711 C721 0.929 . S
H712 C716 0.929 . S
H713 C722 0.929 . S
C714 H708 0.930 . S
C714 C715 1.367 . S
C714 C722 1.378 . S
C715 C714 1.367 . S
C715 C723 1.433 . S
C716 H712 0.929 . S
C716 C718 1.378 . S
C716 C720 1.350 . S
C717 C720 1.463 . S
C717 C722 1.350 . S
C717 N725 1.427 . S
C718 H709 0.930 . S
C718 C716 1.378 . S
C718 C719 1.367 . S
C719 C718 1.367 . S
C719 C721 1.433 . S
C720 C716 1.350 . S
C720 C717 1.463 . S
C720 N724 1.427 . S
C721 H711 0.929 . S
C721 C719 1.433 . S
C721 N724 1.384 . S
C722 H713 0.929 . S
C722 C714 1.378 . S
C722 C717 1.350 . S
C723 H710 0.929 . S
C723 C715 1.433 . S
C723 N725 1.384 . S
N724 C720 1.427 . S
N724 C721 1.384 . S
N725 C717 1.427 . S
N725 C723 1.384 . S
H726 C732 0.930 . S
H727 C736 0.930 . S
H728 C741 0.929 . S
H729 C739 0.929 . S
H730 C734 0.929 . S
H731 C740 0.929 . S
C732 H726 0.930 . S
C732 C733 1.367 . S
C732 C740 1.378 . S
C733 C732 1.367 . S
C733 C741 1.433 . S
C734 H730 0.929 . S
C734 C736 1.378 . S
C734 C738 1.350 . S
C735 C738 1.463 . S
C735 C740 1.350 . S
C735 N743 1.427 . S
C736 H727 0.930 . S
C736 C734 1.378 . S
C736 C737 1.367 . S
C737 C736 1.367 . S
C737 C739 1.433 . S
C738 C734 1.350 . S
C738 C735 1.463 . S
C738 N742 1.427 . S
C739 H729 0.929 . S
C739 C737 1.433 . S
C739 N742 1.384 . S
C740 H731 0.929 . S
C740 C732 1.378 . S
C740 C735 1.350 . S
C741 H728 0.929 . S
C741 C733 1.433 . S
C741 N743 1.384 . S
N742 C738 1.427 . S
N742 C739 1.384 . S
N743 C735 1.427 . S
N743 C741 1.384 . S
H744 C750 0.930 . S
H745 C754 0.930 . S
H746 C759 0.929 . S
H747 C757 0.929 . S
H748 C752 0.929 . S
H749 C758 0.929 . S
C750 H744 0.930 . S
C750 C751 1.367 . S
C750 C758 1.378 . S
C751 C750 1.367 . S
C751 C759 1.433 . S
C752 H748 0.929 . S
C752 C754 1.378 . S
C752 C756 1.350 . S
C753 C756 1.463 . S
C753 C758 1.350 . S
C753 N761 1.427 . S
C754 H745 0.930 . S
C754 C752 1.378 . S
C754 C755 1.367 . S
C755 C754 1.367 . S
C755 C757 1.433 . S
C756 C752 1.350 . S
C756 C753 1.463 . S
C756 N760 1.427 . S
C757 H747 0.929 . S
C757 C755 1.433 . S
C757 N760 1.384 . S
C758 H749 0.929 . S
C758 C750 1.378 . S
C758 C753 1.350 . S
C759 H746 0.929 . S
C759 C751 1.433 . S
C759 N761 1.384 . S
N760 C756 1.427 . S
N760 C757 1.384 . S
N761 C753 1.427 . S
N761 C759 1.384 . S
H762 C768 0.930 . S
H763 C772 0.930 . S
H764 C777 0.929 . S
H765 C775 0.929 . S
H766 C770 0.929 . S
H767 C776 0.929 . S
C768 H762 0.930 . S
C768 C769 1.367 . S
C768 C776 1.378 . S
C769 C768 1.367 . S
C769 C777 1.433 . S
C770 H766 0.929 . S
C770 C772 1.378 . S
C770 C774 1.350 . S
C771 C774 1.463 . S
C771 C776 1.350 . S
C771 N779 1.427 . S
C772 H763 0.930 . S
C772 C770 1.378 . S
C772 C773 1.367 . S
C773 C772 1.367 . S
C773 C775 1.433 . S
C774 C770 1.350 . S
C774 C771 1.463 . S
C774 N778 1.427 . S
C775 H765 0.929 . S
C775 C773 1.433 . S
C775 N778 1.384 . S
C776 H767 0.929 . S
C776 C768 1.378 . S
C776 C771 1.350 . S
C777 H764 0.929 . S
C777 C769 1.433 . S
C777 N779 1.384 . S
N778 C774 1.427 . S
N778 C775 1.384 . S
N779 C771 1.427 . S
N779 C777 1.384 . S
H780 C786 0.930 . S
H781 C790 0.930 . S
H782 C795 0.929 . S
H783 C793 0.929 . S
H784 C788 0.929 . S
H785 C794 0.929 . S
C786 H780 0.930 . S
C786 C787 1.367 . S
C786 C794 1.378 . S
C787 C786 1.367 . S
C787 C795 1.433 . S
C788 H784 0.929 . S
C788 C790 1.378 . S
C788 C792 1.350 . S
C789 C792 1.463 . S
C789 C794 1.350 . S
C789 N797 1.427 . S
C790 H781 0.930 . S
C790 C788 1.378 . S
C790 C791 1.367 . S
C791 C790 1.367 . S
C791 C793 1.433 . S
C792 C788 1.350 . S
C792 C789 1.463 . S
C792 N796 1.427 . S
C793 H783 0.929 . S
C793 C791 1.433 . S
C793 N796 1.384 . S
C794 H785 0.929 . S
C794 C786 1.378 . S
C794 C789 1.350 . S
C795 H782 0.929 . S
C795 C787 1.433 . S
C795 N797 1.384 . S
N796 C792 1.427 . S
N796 C793 1.384 . S
N797 C789 1.427 . S
N797 C795 1.384 . S
H798 C804 0.930 . S
H799 C808 0.930 . S
H800 C813 0.929 . S
H801 C811 0.929 . S
H802 C806 0.929 . S
H803 C812 0.929 . S
C804 H798 0.930 . S
C804 C805 1.367 . S
C804 C812 1.378 . S
C805 C804 1.367 . S
C805 C813 1.433 . S
C806 H802 0.929 . S
C806 C808 1.378 . S
C806 C810 1.350 . S
C807 C810 1.463 . S
C807 C812 1.350 . S
C807 N815 1.427 . S
C808 H799 0.930 . S
C808 C806 1.378 . S
C808 C809 1.367 . S
C809 C808 1.367 . S
C809 C811 1.433 . S
C810 C806 1.350 . S
C810 C807 1.463 . S
C810 N814 1.427 . S
C811 H801 0.929 . S
C811 C809 1.433 . S
C811 N814 1.384 . S
C812 H803 0.929 . S
C812 C804 1.378 . S
C812 C807 1.350 . S
C813 H800 0.929 . S
C813 C805 1.433 . S
C813 N815 1.384 . S
N814 C810 1.427 . S
N814 C811 1.384 . S
N815 C807 1.427 . S
N815 C813 1.384 . S
H816 C822 0.930 . S
H817 C826 0.930 . S
H818 C831 0.929 . S
H819 C829 0.929 . S
H820 C824 0.929 . S
H821 C830 0.929 . S
C822 H816 0.930 . S
C822 C823 1.367 . S
C822 C830 1.378 . S
C823 C822 1.367 . S
C823 C831 1.433 . S
C824 H820 0.929 . S
C824 C826 1.378 . S
C824 C828 1.350 . S
C825 C828 1.463 . S
C825 C830 1.350 . S
C825 N833 1.427 . S
C826 H817 0.930 . S
C826 C824 1.378 . S
C826 C827 1.367 . S
C827 C826 1.367 . S
C827 C829 1.433 . S
C828 C824 1.350 . S
C828 C825 1.463 . S
C828 N832 1.427 . S
C829 H819 0.929 . S
C829 C827 1.433 . S
C829 N832 1.384 . S
C830 H821 0.929 . S
C830 C822 1.378 . S
C830 C825 1.350 . S
C831 H818 0.929 . S
C831 C823 1.433 . S
C831 N833 1.384 . S
N832 C828 1.427 . S
N832 C829 1.384 . S
N833 C825 1.427 . S
N833 C831 1.384 . S
H834 C840 0.930 . S
H835 C844 0.930 . S
H836 C849 0.929 . S
H837 C847 0.929 . S
H838 C842 0.929 . S
H839 C848 0.929 . S
C840 H834 0.930 . S
C840 C841 1.367 . S
C840 C848 1.378 . S
C841 C840 1.367 . S
C841 C849 1.433 . S
C842 H838 0.929 . S
C842 C844 1.378 . S
C842 C846 1.350 . S
C843 C846 1.463 . S
C843 C848 1.350 . S
C843 N851 1.427 . S
C844 H835 0.930 . S
C844 C842 1.378 . S
C844 C845 1.367 . S
C845 C844 1.367 . S
C845 C847 1.433 . S
C846 C842 1.350 . S
C846 C843 1.463 . S
C846 N850 1.427 . S
C847 H837 0.929 . S
C847 C845 1.433 . S
C847 N850 1.384 . S
C848 H839 0.929 . S
C848 C840 1.378 . S
C848 C843 1.350 . S
C849 H836 0.929 . S
C849 C841 1.433 . S
C849 N851 1.384 . S
N850 C846 1.427 . S
N850 C847 1.384 . S
N851 C843 1.427 . S
N851 C849 1.384 . S
H852 C858 0.930 . S
H853 C862 0.930 . S
H854 C867 0.929 . S
H855 C865 0.929 . S
H856 C860 0.929 . S
H857 C866 0.929 . S
C858 H852 0.930 . S
C858 C859 1.367 . S
C858 C866 1.378 . S
C859 C858 1.367 . S
C859 C867 1.433 . S
C860 H856 0.929 . S
C860 C862 1.378 . S
C860 C864 1.350 . S
C861 C864 1.463 . S
C861 C866 1.350 . S
C861 N869 1.427 . S
C862 H853 0.930 . S
C862 C860 1.378 . S
C862 C863 1.367 . S
C863 C862 1.367 . S
C863 C865 1.433 . S
C864 C860 1.350 . S
C864 C861 1.463 . S
C864 N868 1.427 . S
C865 H855 0.929 . S
C865 C863 1.433 . S
C865 N868 1.384 . S
C866 H857 0.929 . S
C866 C858 1.378 . S
C866 C861 1.350 . S
C867 H854 0.929 . S
C867 C859 1.433 . S
C867 N869 1.384 . S
N868 C864 1.427 . S
N868 C865 1.384 . S
N869 C861 1.427 . S
N869 C867 1.384 . S
H870 C876 0.930 . S
H871 C880 0.930 . S
H872 C885 0.929 . S
H873 C883 0.929 . S
H874 C878 0.929 . S
H875 C884 0.929 . S
C876 H870 0.930 . S
C876 C877 1.367 . S
C876 C884 1.378 . S
C877 C876 1.367 . S
C877 C885 1.433 . S
C878 H874 0.929 . S
C878 C880 1.378 . S
C878 C882 1.350 . S
C879 C882 1.463 . S
C879 C884 1.350 . S
C879 N887 1.427 . S
C880 H871 0.930 . S
C880 C878 1.378 . S
C880 C881 1.367 . S
C881 C880 1.367 . S
C881 C883 1.433 . S
C882 C878 1.350 . S
C882 C879 1.463 . S
C882 N886 1.427 . S
C883 H873 0.929 . S
C883 C881 1.433 . S
C883 N886 1.384 . S
C884 H875 0.929 . S
C884 C876 1.378 . S
C884 C879 1.350 . S
C885 H872 0.929 . S
C885 C877 1.433 . S
C885 N887 1.384 . S
N886 C882 1.427 . S
N886 C883 1.384 . S
N887 C879 1.427 . S
N887 C885 1.384 . S
H888 C894 0.930 . S
H889 C898 0.930 . S
H890 C903 0.929 . S
H891 C901 0.929 . S
H892 C896 0.929 . S
H893 C902 0.929 . S
C894 H888 0.930 . S
C894 C895 1.367 . S
C894 C902 1.378 . S
C895 C894 1.367 . S
C895 C903 1.433 . S
C896 H892 0.929 . S
C896 C898 1.378 . S
C896 C900 1.350 . S
C897 C900 1.463 . S
C897 C902 1.350 . S
C897 N905 1.427 . S
C898 H889 0.930 . S
C898 C896 1.378 . S
C898 C899 1.367 . S
C899 C898 1.367 . S
C899 C901 1.433 . S
C900 C896 1.350 . S
C900 C897 1.463 . S
C900 N904 1.427 . S
C901 H891 0.929 . S
C901 C899 1.433 . S
C901 N904 1.384 . S
C902 H893 0.929 . S
C902 C894 1.378 . S
C902 C897 1.350 . S
C903 H890 0.929 . S
C903 C895 1.433 . S
C903 N905 1.384 . S
N904 C900 1.427 . S
N904 C901 1.384 . S
N905 C897 1.427 . S
N905 C903 1.384 . S
H906 C912 0.930 . S
H907 C916 0.930 . S
H908 C921 0.929 . S
H909 C919 0.929 . S
H910 C914 0.929 . S
H911 C920 0.929 . S
C912 H906 0.930 . S
C912 C913 1.367 . S
C912 C920 1.378 . S
C913 C912 1.367 . S
C913 C921 1.433 . S
C914 H910 0.929 . S
C914 C916 1.378 . S
C914 C918 1.350 . S
C915 C918 1.463 . S
C915 C920 1.350 . S
C915 N923 1.427 . S
C916 H907 0.930 . S
C916 C914 1.378 . S
C916 C917 1.367 . S
C917 C916 1.367 . S
C917 C919 1.433 . S
C918 C914 1.350 . S
C918 C915 1.463 . S
C918 N922 1.427 . S
C919 H909 0.929 . S
C919 C917 1.433 . S
C919 N922 1.384 . S
C920 H911 0.929 . S
C920 C912 1.378 . S
C920 C915 1.350 . S
C921 H908 0.929 . S
C921 C913 1.433 . S
C921 N923 1.384 . S
N922 C918 1.427 . S
N922 C919 1.384 . S
N923 C915 1.427 . S
N923 C921 1.384 . S
H924 C930 0.930 . S
H925 C934 0.930 . S
H926 C939 0.929 . S
H927 C937 0.929 . S
H928 C932 0.929 . S
H929 C938 0.929 . S
C930 H924 0.930 . S
C930 C931 1.367 . S
C930 C938 1.378 . S
C931 C930 1.367 . S
C931 C939 1.433 . S
C932 H928 0.929 . S
C932 C934 1.378 . S
C932 C936 1.350 . S
C933 C936 1.463 . S
C933 C938 1.350 . S
C933 N941 1.427 . S
C934 H925 0.930 . S
C934 C932 1.378 . S
C934 C935 1.367 . S
C935 C934 1.367 . S
C935 C937 1.433 . S
C936 C932 1.350 . S
C936 C933 1.463 . S
C936 N940 1.427 . S
C937 H927 0.929 . S
C937 C935 1.433 . S
C937 N940 1.384 . S
C938 H929 0.929 . S
C938 C930 1.378 . S
C938 C933 1.350 . S
C939 H926 0.929 . S
C939 C931 1.433 . S
C939 N941 1.384 . S
N940 C936 1.427 . S
N940 C937 1.384 . S
N941 C933 1.427 . S
N941 C939 1.384 . S
H942 C948 0.930 . S
H943 C952 0.930 . S
H944 C957 0.929 . S
H945 C955 0.929 . S
H946 C950 0.929 . S
H947 C956 0.929 . S
C948 H942 0.930 . S
C948 C949 1.367 . S
C948 C956 1.378 . S
C949 C948 1.367 . S
C949 C957 1.433 . S
C950 H946 0.929 . S
C950 C952 1.378 . S
C950 C954 1.350 . S
C951 C954 1.463 . S
C951 C956 1.350 . S
C951 N959 1.427 . S
C952 H943 0.930 . S
C952 C950 1.378 . S
C952 C953 1.367 . S
C953 C952 1.367 . S
C953 C955 1.433 . S
C954 C950 1.350 . S
C954 C951 1.463 . S
C954 N958 1.427 . S
C955 H945 0.929 . S
C955 C953 1.433 . S
C955 N958 1.384 . S
C956 H947 0.929 . S
C956 C948 1.378 . S
C956 C951 1.350 . S
C957 H944 0.929 . S
C957 C949 1.433 . S
C957 N959 1.384 . S
N958 C954 1.427 . S
N958 C955 1.384 . S
N959 C951 1.427 . S
N959 C957 1.384 . S
H960 C966 0.930 . S
H961 C970 0.930 . S
H962 C975 0.929 . S
H963 C973 0.929 . S
H964 C968 0.929 . S
H965 C974 0.929 . S
C966 H960 0.930 . S
C966 C967 1.367 . S
C966 C974 1.378 . S
C967 C966 1.367 . S
C967 C975 1.433 . S
C968 H964 0.929 . S
C968 C970 1.378 . S
C968 C972 1.350 . S
C969 C972 1.463 . S
C969 C974 1.350 . S
C969 N977 1.427 . S
C970 H961 0.930 . S
C970 C968 1.378 . S
C970 C971 1.367 . S
C971 C970 1.367 . S
C971 C973 1.433 . S
C972 C968 1.350 . S
C972 C969 1.463 . S
C972 N976 1.427 . S
C973 H963 0.929 . S
C973 C971 1.433 . S
C973 N976 1.384 . S
C974 H965 0.929 . S
C974 C966 1.378 . S
C974 C969 1.350 . S
C975 H962 0.929 . S
C975 C967 1.433 . S
C975 N977 1.384 . S
N976 C972 1.427 . S
N976 C973 1.384 . S
N977 C969 1.427 . S
N977 C975 1.384 . S
H978 C984 0.930 . S
H979 C988 0.930 . S
H980 C993 0.929 . S
H981 C991 0.929 . S
H982 C986 0.929 . S
H983 C992 0.929 . S
C984 H978 0.930 . S
C984 C985 1.367 . S
C984 C992 1.378 . S
C985 C984 1.367 . S
C985 C993 1.433 . S
C986 H982 0.929 . S
C986 C988 1.378 . S
C986 C990 1.350 . S
C987 C990 1.463 . S
C987 C992 1.350 . S
C987 N995 1.427 . S
C988 H979 0.930 . S
C988 C986 1.378 . S
C988 C989 1.367 . S
C989 C988 1.367 . S
C989 C991 1.433 . S
C990 C986 1.350 . S
C990 C987 1.463 . S
C990 N994 1.427 . S
C991 H981 0.929 . S
C991 C989 1.433 . S
C991 N994 1.384 . S
C992 H983 0.929 . S
C992 C984 1.378 . S
C992 C987 1.350 . S
C993 H980 0.929 . S
C993 C985 1.433 . S
C993 N995 1.384 . S
N994 C990 1.427 . S
N994 C991 1.384 . S
N995 C987 1.427 . S
N995 C993 1.384 . S
H996 C1002 0.930 . S
H997 C1006 0.930 . S
H998 C1011 0.929 . S
H999 C1009 0.929 . S
H1000 C1004 0.929 . S
H1001 C1010 0.929 . S
C1002 H996 0.930 . S
C1002 C1003 1.367 . S
C1002 C1010 1.378 . S
C1003 C1002 1.367 . S
C1003 C1011 1.433 . S
C1004 H1000 0.929 . S
C1004 C1006 1.378 . S
C1004 C1008 1.350 . S
C1005 C1008 1.463 . S
C1005 C1010 1.350 . S
C1005 N1013 1.427 . S
C1006 H997 0.930 . S
C1006 C1004 1.378 . S
C1006 C1007 1.367 . S
C1007 C1006 1.367 . S
C1007 C1009 1.433 . S
C1008 C1004 1.350 . S
C1008 C1005 1.463 . S
C1008 N1012 1.427 . S
C1009 H999 0.929 . S
C1009 C1007 1.433 . S
C1009 N1012 1.384 . S
C1010 H1001 0.929 . S
C1010 C1002 1.378 . S
C1010 C1005 1.350 . S
C1011 H998 0.929 . S
C1011 C1003 1.433 . S
C1011 N1013 1.384 . S
N1012 C1008 1.427 . S
N1012 C1009 1.384 . S
N1013 C1005 1.427 . S
N1013 C1011 1.384 . S
H1014 C1020 0.930 . S
H1015 C1024 0.930 . S
H1016 C1029 0.929 . S
H1017 C1027 0.929 . S
H1018 C1022 0.929 . S
H1019 C1028 0.929 . S
C1020 H1014 0.930 . S
C1020 C1021 1.367 . S
C1020 C1028 1.378 . S
C1021 C1020 1.367 . S
C1021 C1029 1.433 . S
C1022 H1018 0.929 . S
C1022 C1024 1.378 . S
C1022 C1026 1.350 . S
C1023 C1026 1.463 . S
C1023 C1028 1.350 . S
C1023 N1031 1.427 . S
C1024 H1015 0.930 . S
C1024 C1022 1.378 . S
C1024 C1025 1.367 . S
C1025 C1024 1.367 . S
C1025 C1027 1.433 . S
C1026 C1022 1.350 . S
C1026 C1023 1.463 . S
C1026 N1030 1.427 . S
C1027 H1017 0.929 . S
C1027 C1025 1.433 . S
C1027 N1030 1.384 . S
C1028 H1019 0.929 . S
C1028 C1020 1.378 . S
C1028 C1023 1.350 . S
C1029 H1016 0.929 . S
C1029 C1021 1.433 . S
C1029 N1031 1.384 . S
N1030 C1026 1.427 . S
N1030 C1027 1.384 . S
N1031 C1023 1.427 . S
N1031 C1029 1.384 . S
H1032 C1038 0.930 . S
H1033 C1042 0.930 . S
H1034 C1047 0.929 . S
H1035 C1045 0.929 . S
H1036 C1040 0.929 . S
H1037 C1046 0.929 . S
C1038 H1032 0.930 . S
C1038 C1039 1.367 . S
C1038 C1046 1.378 . S
C1039 C1038 1.367 . S
C1039 C1047 1.433 . S
C1040 H1036 0.929 . S
C1040 C1042 1.378 . S
C1040 C1044 1.350 . S
C1041 C1044 1.463 . S
C1041 C1046 1.350 . S
C1041 N1049 1.427 . S
C1042 H1033 0.930 . S
C1042 C1040 1.378 . S
C1042 C1043 1.367 . S
C1043 C1042 1.367 . S
C1043 C1045 1.433 . S
C1044 C1040 1.350 . S
C1044 C1041 1.463 . S
C1044 N1048 1.427 . S
C1045 H1035 0.929 . S
C1045 C1043 1.433 . S
C1045 N1048 1.384 . S
C1046 H1037 0.929 . S
C1046 C1038 1.378 . S
C1046 C1041 1.350 . S
C1047 H1034 0.929 . S
C1047 C1039 1.433 . S
C1047 N1049 1.384 . S
N1048 C1044 1.427 . S
N1048 C1045 1.384 . S
N1049 C1041 1.427 . S
N1049 C1047 1.384 . S
H1050 C1056 0.930 . S
H1051 C1060 0.930 . S
H1052 C1065 0.929 . S
H1053 C1063 0.929 . S
H1054 C1058 0.929 . S
H1055 C1064 0.929 . S
C1056 H1050 0.930 . S
C1056 C1057 1.367 . S
C1056 C1064 1.378 . S
C1057 C1056 1.367 . S
C1057 C1065 1.433 . S
C1058 H1054 0.929 . S
C1058 C1060 1.378 . S
C1058 C1062 1.350 . S
C1059 C1062 1.463 . S
C1059 C1064 1.350 . S
C1059 N1067 1.427 . S
C1060 H1051 0.930 . S
C1060 C1058 1.378 . S
C1060 C1061 1.367 . S
C1061 C1060 1.367 . S
C1061 C1063 1.433 . S
C1062 C1058 1.350 . S
C1062 C1059 1.463 . S
C1062 N1066 1.427 . S
C1063 H1053 0.929 . S
C1063 C1061 1.433 . S
C1063 N1066 1.384 . S
C1064 H1055 0.929 . S
C1064 C1056 1.378 . S
C1064 C1059 1.350 . S
C1065 H1052 0.929 . S
C1065 C1057 1.433 . S
C1065 N1067 1.384 . S
N1066 C1062 1.427 . S
N1066 C1063 1.384 . S
N1067 C1059 1.427 . S
N1067 C1065 1.384 . S
H1068 C1074 0.930 . S
H1069 C1078 0.930 . S
H1070 C1083 0.929 . S
H1071 C1081 0.929 . S
H1072 C1076 0.929 . S
H1073 C1082 0.929 . S
C1074 H1068 0.930 . S
C1074 C1075 1.367 . S
C1074 C1082 1.378 . S
C1075 C1074 1.367 . S
C1075 C1083 1.433 . S
C1076 H1072 0.929 . S
C1076 C1078 1.378 . S
C1076 C1080 1.350 . S
C1077 C1080 1.463 . S
C1077 C1082 1.350 . S
C1077 N1085 1.427 . S
C1078 H1069 0.930 . S
C1078 C1076 1.378 . S
C1078 C1079 1.367 . S
C1079 C1078 1.367 . S
C1079 C1081 1.433 . S
C1080 C1076 1.350 . S
C1080 C1077 1.463 . S
C1080 N1084 1.427 . S
C1081 H1071 0.929 . S
C1081 C1079 1.433 . S
C1081 N1084 1.384 . S
C1082 H1073 0.929 . S
C1082 C1074 1.378 . S
C1082 C1077 1.350 . S
C1083 H1070 0.929 . S
C1083 C1075 1.433 . S
C1083 N1085 1.384 . S
N1084 C1080 1.427 . S
N1084 C1081 1.384 . S
N1085 C1077 1.427 . S
N1085 C1083 1.384 . S
H1086 C1092 0.930 . S
H1087 C1096 0.930 . S
H1088 C1101 0.929 . S
H1089 C1099 0.929 . S
H1090 C1094 0.929 . S
H1091 C1100 0.929 . S
C1092 H1086 0.930 . S
C1092 C1093 1.367 . S
C1092 C1100 1.378 . S
C1093 C1092 1.367 . S
C1093 C1101 1.433 . S
C1094 H1090 0.929 . S
C1094 C1096 1.378 . S
C1094 C1098 1.350 . S
C1095 C1098 1.463 . S
C1095 C1100 1.350 . S
C1095 N1103 1.427 . S
C1096 H1087 0.930 . S
C1096 C1094 1.378 . S
C1096 C1097 1.367 . S
C1097 C1096 1.367 . S
C1097 C1099 1.433 . S
C1098 C1094 1.350 . S
C1098 C1095 1.463 . S
C1098 N1102 1.427 . S
C1099 H1089 0.929 . S
C1099 C1097 1.433 . S
C1099 N1102 1.384 . S
C1100 H1091 0.929 . S
C1100 C1092 1.378 . S
C1100 C1095 1.350 . S
C1101 H1088 0.929 . S
C1101 C1093 1.433 . S
C1101 N1103 1.384 . S
N1102 C1098 1.427 . S
N1102 C1099 1.384 . S
N1103 C1095 1.427 . S
N1103 C1101 1.384 . S
H1104 C1110 0.930 . S
H1105 C1114 0.930 . S
H1106 C1119 0.929 . S
H1107 C1117 0.929 . S
H1108 C1112 0.929 . S
H1109 C1118 0.929 . S
C1110 H1104 0.930 . S
C1110 C1111 1.367 . S
C1110 C1118 1.378 . S
C1111 C1110 1.367 . S
C1111 C1119 1.433 . S
C1112 H1108 0.929 . S
C1112 C1114 1.378 . S
C1112 C1116 1.350 . S
C1113 C1116 1.463 . S
C1113 C1118 1.350 . S
C1113 N1121 1.427 . S
C1114 H1105 0.930 . S
C1114 C1112 1.378 . S
C1114 C1115 1.367 . S
C1115 C1114 1.367 . S
C1115 C1117 1.433 . S
C1116 C1112 1.350 . S
C1116 C1113 1.463 . S
C1116 N1120 1.427 . S
C1117 H1107 0.929 . S
C1117 C1115 1.433 . S
C1117 N1120 1.384 . S
C1118 H1109 0.929 . S
C1118 C1110 1.378 . S
C1118 C1113 1.350 . S
C1119 H1106 0.929 . S
C1119 C1111 1.433 . S
C1119 N1121 1.384 . S
N1120 C1116 1.427 . S
N1120 C1117 1.384 . S
N1121 C1113 1.427 . S
N1121 C1119 1.384 . S
H1122 C1128 0.930 . S
H1123 C1132 0.930 . S
H1124 C1137 0.929 . S
H1125 C1135 0.929 . S
H1126 C1130 0.929 . S
H1127 C1136 0.929 . S
C1128 H1122 0.930 . S
C1128 C1129 1.367 . S
C1128 C1136 1.378 . S
C1129 C1128 1.367 . S
C1129 C1137 1.433 . S
C1130 H1126 0.929 . S
C1130 C1132 1.378 . S
C1130 C1134 1.350 . S
C1131 C1134 1.463 . S
C1131 C1136 1.350 . S
C1131 N1139 1.427 . S
C1132 H1123 0.930 . S
C1132 C1130 1.378 . S
C1132 C1133 1.367 . S
C1133 C1132 1.367 . S
C1133 C1135 1.433 . S
C1134 C1130 1.350 . S
C1134 C1131 1.463 . S
C1134 N1138 1.427 . S
C1135 H1125 0.929 . S
C1135 C1133 1.433 . S
C1135 N1138 1.384 . S
C1136 H1127 0.929 . S
C1136 C1128 1.378 . S
C1136 C1131 1.350 . S
C1137 H1124 0.929 . S
C1137 C1129 1.433 . S
C1137 N1139 1.384 . S
N1138 C1134 1.427 . S
N1138 C1135 1.384 . S
N1139 C1131 1.427 . S
N1139 C1137 1.384 . S
H1140 C1146 0.930 . S
H1141 C1150 0.930 . S
H1142 C1155 0.929 . S
H1143 C1153 0.929 . S
H1144 C1148 0.929 . S
H1145 C1154 0.929 . S
C1146 H1140 0.930 . S
C1146 C1147 1.367 . S
C1146 C1154 1.378 . S
C1147 C1146 1.367 . S
C1147 C1155 1.433 . S
C1148 H1144 0.929 . S
C1148 C1150 1.378 . S
C1148 C1152 1.350 . S
C1149 C1152 1.463 . S
C1149 C1154 1.350 . S
C1149 N1157 1.427 . S
C1150 H1141 0.930 . S
C1150 C1148 1.378 . S
C1150 C1151 1.367 . S
C1151 C1150 1.367 . S
C1151 C1153 1.433 . S
C1152 C1148 1.350 . S
C1152 C1149 1.463 . S
C1152 N1156 1.427 . S
C1153 H1143 0.929 . S
C1153 C1151 1.433 . S
C1153 N1156 1.384 . S
C1154 H1145 0.929 . S
C1154 C1146 1.378 . S
C1154 C1149 1.350 . S
C1155 H1142 0.929 . S
C1155 C1147 1.433 . S
C1155 N1157 1.384 . S
N1156 C1152 1.427 . S
N1156 C1153 1.384 . S
N1157 C1149 1.427 . S
N1157 C1155 1.384 . S
H1158 C1164 0.930 . S
H1159 C1168 0.930 . S
H1160 C1173 0.929 . S
H1161 C1171 0.929 . S
H1162 C1166 0.929 . S
H1163 C1172 0.929 . S
C1164 H1158 0.930 . S
C1164 C1165 1.367 . S
C1164 C1172 1.378 . S
C1165 C1164 1.367 . S
C1165 C1173 1.433 . S
C1166 H1162 0.929 . S
C1166 C1168 1.378 . S
C1166 C1170 1.350 . S
C1167 C1170 1.463 . S
C1167 C1172 1.350 . S
C1167 N1175 1.427 . S
C1168 H1159 0.930 . S
C1168 C1166 1.378 . S
C1168 C1169 1.367 . S
C1169 C1168 1.367 . S
C1169 C1171 1.433 . S
C1170 C1166 1.350 . S
C1170 C1167 1.463 . S
C1170 N1174 1.427 . S
C1171 H1161 0.929 . S
C1171 C1169 1.433 . S
C1171 N1174 1.384 . S
C1172 H1163 0.929 . S
C1172 C1164 1.378 . S
C1172 C1167 1.350 . S
C1173 H1160 0.929 . S
C1173 C1165 1.433 . S
C1173 N1175 1.384 . S
N1174 C1170 1.427 . S
N1174 C1171 1.384 . S
N1175 C1167 1.427 . S
N1175 C1173 1.384 . S
H1176 C1182 0.930 . S
H1177 C1186 0.930 . S
H1178 C1191 0.929 . S
H1179 C1189 0.929 . S
H1180 C1184 0.929 . S
H1181 C1190 0.929 . S
C1182 H1176 0.930 . S
C1182 C1183 1.367 . S
C1182 C1190 1.378 . S
C1183 C1182 1.367 . S
C1183 C1191 1.433 . S
C1184 H1180 0.929 . S
C1184 C1186 1.378 . S
C1184 C1188 1.350 . S
C1185 C1188 1.463 . S
C1185 C1190 1.350 . S
C1185 N1193 1.427 . S
C1186 H1177 0.930 . S
C1186 C1184 1.378 . S
C1186 C1187 1.367 . S
C1187 C1186 1.367 . S
C1187 C1189 1.433 . S
C1188 C1184 1.350 . S
C1188 C1185 1.463 . S
C1188 N1192 1.427 . S
C1189 H1179 0.929 . S
C1189 C1187 1.433 . S
C1189 N1192 1.384 . S
C1190 H1181 0.929 . S
C1190 C1182 1.378 . S
C1190 C1185 1.350 . S
C1191 H1178 0.929 . S
C1191 C1183 1.433 . S
C1191 N1193 1.384 . S
N1192 C1188 1.427 . S
N1192 C1189 1.384 . S
N1193 C1185 1.427 . S
N1193 C1191 1.384 . S
H1194 C1200 0.930 . S
H1195 C1204 0.930 . S
H1196 C1209 0.929 . S
H1197 C1207 0.929 . S
H1198 C1202 0.929 . S
H1199 C1208 0.929 . S
C1200 H1194 0.930 . S
C1200 C1201 1.367 . S
C1200 C1208 1.378 . S
C1201 C1200 1.367 . S
C1201 C1209 1.433 . S
C1202 H1198 0.929 . S
C1202 C1204 1.378 . S
C1202 C1206 1.350 . S
C1203 C1206 1.463 . S
C1203 C1208 1.350 . S
C1203 N1211 1.427 . S
C1204 H1195 0.930 . S
C1204 C1202 1.378 . S
C1204 C1205 1.367 . S
C1205 C1204 1.367 . S
C1205 C1207 1.433 . S
C1206 C1202 1.350 . S
C1206 C1203 1.463 . S
C1206 N1210 1.427 . S
C1207 H1197 0.929 . S
C1207 C1205 1.433 . S
C1207 N1210 1.384 . S
C1208 H1199 0.929 . S
C1208 C1200 1.378 . S
C1208 C1203 1.350 . S
C1209 H1196 0.929 . S
C1209 C1201 1.433 . S
C1209 N1211 1.384 . S
N1210 C1206 1.427 . S
N1210 C1207 1.384 . S
N1211 C1203 1.427 . S
N1211 C1209 1.384 . S
H1212 C1218 0.930 . S
H1213 C1222 0.930 . S
H1214 C1227 0.929 . S
H1215 C1225 0.929 . S
H1216 C1220 0.929 . S
H1217 C1226 0.929 . S
C1218 H1212 0.930 . S
C1218 C1219 1.367 . S
C1218 C1226 1.378 . S
C1219 C1218 1.367 . S
C1219 C1227 1.433 . S
C1220 H1216 0.929 . S
C1220 C1222 1.378 . S
C1220 C1224 1.350 . S
C1221 C1224 1.463 . S
C1221 C1226 1.350 . S
C1221 N1229 1.427 . S
C1222 H1213 0.930 . S
C1222 C1220 1.378 . S
C1222 C1223 1.367 . S
C1223 C1222 1.367 . S
C1223 C1225 1.433 . S
C1224 C1220 1.350 . S
C1224 C1221 1.463 . S
C1224 N1228 1.427 . S
C1225 H1215 0.929 . S
C1225 C1223 1.433 . S
C1225 N1228 1.384 . S
C1226 H1217 0.929 . S
C1226 C1218 1.378 . S
C1226 C1221 1.350 . S
C1227 H1214 0.929 . S
C1227 C1219 1.433 . S
C1227 N1229 1.384 . S
N1228 C1224 1.427 . S
N1228 C1225 1.384 . S
N1229 C1221 1.427 . S
N1229 C1227 1.384 . S
H1230 C1236 0.930 . S
H1231 C1240 0.930 . S
H1232 C1245 0.929 . S
H1233 C1243 0.929 . S
H1234 C1238 0.929 . S
H1235 C1244 0.929 . S
C1236 H1230 0.930 . S
C1236 C1237 1.367 . S
C1236 C1244 1.378 . S
C1237 C1236 1.367 . S
C1237 C1245 1.433 . S
C1238 H1234 0.929 . S
C1238 C1240 1.378 . S
C1238 C1242 1.350 . S
C1239 C1242 1.463 . S
C1239 C1244 1.350 . S
C1239 N1247 1.427 . S
C1240 H1231 0.930 . S
C1240 C1238 1.378 . S
C1240 C1241 1.367 . S
C1241 C1240 1.367 . S
C1241 C1243 1.433 . S
C1242 C1238 1.350 . S
C1242 C1239 1.463 . S
C1242 N1246 1.427 . S
C1243 H1233 0.929 . S
C1243 C1241 1.433 . S
C1243 N1246 1.384 . S
C1244 H1235 0.929 . S
C1244 C1236 1.378 . S
C1244 C1239 1.350 . S
C1245 H1232 0.929 . S
C1245 C1237 1.433 . S
C1245 N1247 1.384 . S
N1246 C1242 1.427 . S
N1246 C1243 1.384 . S
N1247 C1239 1.427 . S
N1247 C1245 1.384 . S
H1248 C1254 0.930 . S
H1249 C1258 0.930 . S
H1250 C1263 0.929 . S
H1251 C1261 0.929 . S
H1252 C1256 0.929 . S
H1253 C1262 0.929 . S
C1254 H1248 0.930 . S
C1254 C1255 1.367 . S
C1254 C1262 1.378 . S
C1255 C1254 1.367 . S
C1255 C1263 1.433 . S
C1256 H1252 0.929 . S
C1256 C1258 1.378 . S
C1256 C1260 1.350 . S
C1257 C1260 1.463 . S
C1257 C1262 1.350 . S
C1257 N1265 1.427 . S
C1258 H1249 0.930 . S
C1258 C1256 1.378 . S
C1258 C1259 1.367 . S
C1259 C1258 1.367 . S
C1259 C1261 1.433 . S
C1260 C1256 1.350 . S
C1260 C1257 1.463 . S
C1260 N1264 1.427 . S
C1261 H1251 0.929 . S
C1261 C1259 1.433 . S
C1261 N1264 1.384 . S
C1262 H1253 0.929 . S
C1262 C1254 1.378 . S
C1262 C1257 1.350 . S
C1263 H1250 0.929 . S
C1263 C1255 1.433 . S
C1263 N1265 1.384 . S
N1264 C1260 1.427 . S
N1264 C1261 1.384 . S
N1265 C1257 1.427 . S
N1265 C1263 1.384 . S
H1266 C1272 0.930 . S
H1267 C1276 0.930 . S
H1268 C1281 0.929 . S
H1269 C1279 0.929 . S
H1270 C1274 0.929 . S
H1271 C1280 0.929 . S
C1272 H1266 0.930 . S
C1272 C1273 1.367 . S
C1272 C1280 1.378 . S
C1273 C1272 1.367 . S
C1273 C1281 1.433 . S
C1274 H1270 0.929 . S
C1274 C1276 1.378 . S
C1274 C1278 1.350 . S
C1275 C1278 1.463 . S
C1275 C1280 1.350 . S
C1275 N1283 1.427 . S
C1276 H1267 0.930 . S
C1276 C1274 1.378 . S
C1276 C1277 1.367 . S
C1277 C1276 1.367 . S
C1277 C1279 1.433 . S
C1278 C1274 1.350 . S
C1278 C1275 1.463 . S
C1278 N1282 1.427 . S
C1279 H1269 0.929 . S
C1279 C1277 1.433 . S
C1279 N1282 1.384 . S
C1280 H1271 0.929 . S
C1280 C1272 1.378 . S
C1280 C1275 1.350 . S
C1281 H1268 0.929 . S
C1281 C1273 1.433 . S
C1281 N1283 1.384 . S
N1282 C1278 1.427 . S
N1282 C1279 1.384 . S
N1283 C1275 1.427 . S
N1283 C1281 1.384 . S
H1284 C1290 0.930 . S
H1285 C1294 0.930 . S
H1286 C1299 0.929 . S
H1287 C1297 0.929 . S
H1288 C1292 0.929 . S
H1289 C1298 0.929 . S
C1290 H1284 0.930 . S
C1290 C1291 1.367 . S
C1290 C1298 1.378 . S
C1291 C1290 1.367 . S
C1291 C1299 1.433 . S
C1292 H1288 0.929 . S
C1292 C1294 1.378 . S
C1292 C1296 1.350 . S
C1293 C1296 1.463 . S
C1293 C1298 1.350 . S
C1293 N1301 1.427 . S
C1294 H1285 0.930 . S
C1294 C1292 1.378 . S
C1294 C1295 1.367 . S
C1295 C1294 1.367 . S
C1295 C1297 1.433 . S
C1296 C1292 1.350 . S
C1296 C1293 1.463 . S
C1296 N1300 1.427 . S
C1297 H1287 0.929 . S
C1297 C1295 1.433 . S
C1297 N1300 1.384 . S
C1298 H1289 0.929 . S
C1298 C1290 1.378 . S
C1298 C1293 1.350 . S
C1299 H1286 0.929 . S
C1299 C1291 1.433 . S
C1299 N1301 1.384 . S
N1300 C1296 1.427 . S
N1300 C1297 1.384 . S
N1301 C1293 1.427 . S
N1301 C1299 1.384 . S
H1302 C1308 0.930 . S
H1303 C1312 0.930 . S
H1304 C1317 0.929 . S
H1305 C1315 0.929 . S
H1306 C1310 0.929 . S
H1307 C1316 0.929 . S
C1308 H1302 0.930 . S
C1308 C1309 1.367 . S
C1308 C1316 1.378 . S
C1309 C1308 1.367 . S
C1309 C1317 1.433 . S
C1310 H1306 0.929 . S
C1310 C1312 1.378 . S
C1310 C1314 1.350 . S
C1311 C1314 1.463 . S
C1311 C1316 1.350 . S
C1311 N1319 1.427 . S
C1312 H1303 0.930 . S
C1312 C1310 1.378 . S
C1312 C1313 1.367 . S
C1313 C1312 1.367 . S
C1313 C1315 1.433 . S
C1314 C1310 1.350 . S
C1314 C1311 1.463 . S
C1314 N1318 1.427 . S
C1315 H1305 0.929 . S
C1315 C1313 1.433 . S
C1315 N1318 1.384 . S
C1316 H1307 0.929 . S
C1316 C1308 1.378 . S
C1316 C1311 1.350 . S
C1317 H1304 0.929 . S
C1317 C1309 1.433 . S
C1317 N1319 1.384 . S
N1318 C1314 1.427 . S
N1318 C1315 1.384 . S
N1319 C1311 1.427 . S
N1319 C1317 1.384 . S
H1320 C1326 0.930 . S
H1321 C1330 0.930 . S
H1322 C1335 0.929 . S
H1323 C1333 0.929 . S
H1324 C1328 0.929 . S
H1325 C1334 0.929 . S
C1326 H1320 0.930 . S
C1326 C1327 1.367 . S
C1326 C1334 1.378 . S
C1327 C1326 1.367 . S
C1327 C1335 1.433 . S
C1328 H1324 0.929 . S
C1328 C1330 1.378 . S
C1328 C1332 1.350 . S
C1329 C1332 1.463 . S
C1329 C1334 1.350 . S
C1329 N1337 1.427 . S
C1330 H1321 0.930 . S
C1330 C1328 1.378 . S
C1330 C1331 1.367 . S
C1331 C1330 1.367 . S
C1331 C1333 1.433 . S
C1332 C1328 1.350 . S
C1332 C1329 1.463 . S
C1332 N1336 1.427 . S
C1333 H1323 0.929 . S
C1333 C1331 1.433 . S
C1333 N1336 1.384 . S
C1334 H1325 0.929 . S
C1334 C1326 1.378 . S
C1334 C1329 1.350 . S
C1335 H1322 0.929 . S
C1335 C1327 1.433 . S
C1335 N1337 1.384 . S
N1336 C1332 1.427 . S
N1336 C1333 1.384 . S
N1337 C1329 1.427 . S
N1337 C1335 1.384 . S
H1338 C1344 0.930 . S
H1339 C1348 0.930 . S
H1340 C1353 0.929 . S
H1341 C1351 0.929 . S
H1342 C1346 0.929 . S
H1343 C1352 0.929 . S
C1344 H1338 0.930 . S
C1344 C1345 1.367 . S
C1344 C1352 1.378 . S
C1345 C1344 1.367 . S
C1345 C1353 1.433 . S
C1346 H1342 0.929 . S
C1346 C1348 1.378 . S
C1346 C1350 1.350 . S
C1347 C1350 1.463 . S
C1347 C1352 1.350 . S
C1347 N1355 1.427 . S
C1348 H1339 0.930 . S
C1348 C1346 1.378 . S
C1348 C1349 1.367 . S
C1349 C1348 1.367 . S
C1349 C1351 1.433 . S
C1350 C1346 1.350 . S
C1350 C1347 1.463 . S
C1350 N1354 1.427 . S
C1351 H1341 0.929 . S
C1351 C1349 1.433 . S
C1351 N1354 1.384 . S
C1352 H1343 0.929 . S
C1352 C1344 1.378 . S
C1352 C1347 1.350 . S
C1353 H1340 0.929 . S
C1353 C1345 1.433 . S
C1353 N1355 1.384 . S
N1354 C1350 1.427 . S
N1354 C1351 1.384 . S
N1355 C1347 1.427 . S
N1355 C1353 1.384 . S
H1356 C1362 0.930 . S
H1357 C1366 0.930 . S
H1358 C1371 0.929 . S
H1359 C1369 0.929 . S
H1360 C1364 0.929 . S
H1361 C1370 0.929 . S
C1362 H1356 0.930 . S
C1362 C1363 1.367 . S
C1362 C1370 1.378 . S
C1363 C1362 1.367 . S
C1363 C1371 1.433 . S
C1364 H1360 0.929 . S
C1364 C1366 1.378 . S
C1364 C1368 1.350 . S
C1365 C1368 1.463 . S
C1365 C1370 1.350 . S
C1365 N1373 1.427 . S
C1366 H1357 0.930 . S
C1366 C1364 1.378 . S
C1366 C1367 1.367 . S
C1367 C1366 1.367 . S
C1367 C1369 1.433 . S
C1368 C1364 1.350 . S
C1368 C1365 1.463 . S
C1368 N1372 1.427 . S
C1369 H1359 0.929 . S
C1369 C1367 1.433 . S
C1369 N1372 1.384 . S
C1370 H1361 0.929 . S
C1370 C1362 1.378 . S
C1370 C1365 1.350 . S
C1371 H1358 0.929 . S
C1371 C1363 1.433 . S
C1371 N1373 1.384 . S
N1372 C1368 1.427 . S
N1372 C1369 1.384 . S
N1373 C1365 1.427 . S
N1373 C1371 1.384 . S
H1374 C1380 0.930 . S
H1375 C1384 0.930 . S
H1376 C1389 0.929 . S
H1377 C1387 0.929 . S
H1378 C1382 0.929 . S
H1379 C1388 0.929 . S
C1380 H1374 0.930 . S
C1380 C1381 1.367 . S
C1380 C1388 1.378 . S
C1381 C1380 1.367 . S
C1381 C1389 1.433 . S
C1382 H1378 0.929 . S
C1382 C1384 1.378 . S
C1382 C1386 1.350 . S
C1383 C1386 1.463 . S
C1383 C1388 1.350 . S
C1383 N1391 1.427 . S
C1384 H1375 0.930 . S
C1384 C1382 1.378 . S
C1384 C1385 1.367 . S
C1385 C1384 1.367 . S
C1385 C1387 1.433 . S
C1386 C1382 1.350 . S
C1386 C1383 1.463 . S
C1386 N1390 1.427 . S
C1387 H1377 0.929 . S
C1387 C1385 1.433 . S
C1387 N1390 1.384 . S
C1388 H1379 0.929 . S
C1388 C1380 1.378 . S
C1388 C1383 1.350 . S
C1389 H1376 0.929 . S
C1389 C1381 1.433 . S
C1389 N1391 1.384 . S
N1390 C1386 1.427 . S
N1390 C1387 1.384 . S
N1391 C1383 1.427 . S
N1391 C1389 1.384 . S
H1392 C1398 0.930 . S
H1393 C1402 0.930 . S
H1394 C1407 0.929 . S
H1395 C1405 0.929 . S
H1396 C1400 0.929 . S
H1397 C1406 0.929 . S
C1398 H1392 0.930 . S
C1398 C1399 1.367 . S
C1398 C1406 1.378 . S
C1399 C1398 1.367 . S
C1399 C1407 1.433 . S
C1400 H1396 0.929 . S
C1400 C1402 1.378 . S
C1400 C1404 1.350 . S
C1401 C1404 1.463 . S
C1401 C1406 1.350 . S
C1401 N1409 1.427 . S
C1402 H1393 0.930 . S
C1402 C1400 1.378 . S
C1402 C1403 1.367 . S
C1403 C1402 1.367 . S
C1403 C1405 1.433 . S
C1404 C1400 1.350 . S
C1404 C1401 1.463 . S
C1404 N1408 1.427 . S
C1405 H1395 0.929 . S
C1405 C1403 1.433 . S
C1405 N1408 1.384 . S
C1406 H1397 0.929 . S
C1406 C1398 1.378 . S
C1406 C1401 1.350 . S
C1407 H1394 0.929 . S
C1407 C1399 1.433 . S
C1407 N1409 1.384 . S
N1408 C1404 1.427 . S
N1408 C1405 1.384 . S
N1409 C1401 1.427 . S
N1409 C1407 1.384 . S
H1410 C1416 0.930 . S
H1411 C1420 0.930 . S
H1412 C1425 0.929 . S
H1413 C1423 0.929 . S
H1414 C1418 0.929 . S
H1415 C1424 0.929 . S
C1416 H1410 0.930 . S
C1416 C1417 1.367 . S
C1416 C1424 1.378 . S
C1417 C1416 1.367 . S
C1417 C1425 1.433 . S
C1418 H1414 0.929 . S
C1418 C1420 1.378 . S
C1418 C1422 1.350 . S
C1419 C1422 1.463 . S
C1419 C1424 1.350 . S
C1419 N1427 1.427 . S
C1420 H1411 0.930 . S
C1420 C1418 1.378 . S
C1420 C1421 1.367 . S
C1421 C1420 1.367 . S
C1421 C1423 1.433 . S
C1422 C1418 1.350 . S
C1422 C1419 1.463 . S
C1422 N1426 1.427 . S
C1423 H1413 0.929 . S
C1423 C1421 1.433 . S
C1423 N1426 1.384 . S
C1424 H1415 0.929 . S
C1424 C1416 1.378 . S
C1424 C1419 1.350 . S
C1425 H1412 0.929 . S
C1425 C1417 1.433 . S
C1425 N1427 1.384 . S
N1426 C1422 1.427 . S
N1426 C1423 1.384 . S
N1427 C1419 1.427 . S
N1427 C1425 1.384 . S
H1428 C1434 0.930 . S
H1429 C1438 0.930 . S
H1430 C1443 0.929 . S
H1431 C1441 0.929 . S
H1432 C1436 0.929 . S
H1433 C1442 0.929 . S
C1434 H1428 0.930 . S
C1434 C1435 1.367 . S
C1434 C1442 1.378 . S
C1435 C1434 1.367 . S
C1435 C1443 1.433 . S
C1436 H1432 0.929 . S
C1436 C1438 1.378 . S
C1436 C1440 1.350 . S
C1437 C1440 1.463 . S
C1437 C1442 1.350 . S
C1437 N1445 1.427 . S
C1438 H1429 0.930 . S
C1438 C1436 1.378 . S
C1438 C1439 1.367 . S
C1439 C1438 1.367 . S
C1439 C1441 1.433 . S
C1440 C1436 1.350 . S
C1440 C1437 1.463 . S
C1440 N1444 1.427 . S
C1441 H1431 0.929 . S
C1441 C1439 1.433 . S
C1441 N1444 1.384 . S
C1442 H1433 0.929 . S
C1442 C1434 1.378 . S
C1442 C1437 1.350 . S
C1443 H1430 0.929 . S
C1443 C1435 1.433 . S
C1443 N1445 1.384 . S
N1444 C1440 1.427 . S
N1444 C1441 1.384 . S
N1445 C1437 1.427 . S
N1445 C1443 1.384 . S
H1446 C1452 0.930 . S
H1447 C1456 0.930 . S
H1448 C1461 0.929 . S
H1449 C1459 0.929 . S
H1450 C1454 0.929 . S
H1451 C1460 0.929 . S
C1452 H1446 0.930 . S
C1452 C1453 1.367 . S
C1452 C1460 1.378 . S
C1453 C1452 1.367 . S
C1453 C1461 1.433 . S
C1454 H1450 0.929 . S
C1454 C1456 1.378 . S
C1454 C1458 1.350 . S
C1455 C1458 1.463 . S
C1455 C1460 1.350 . S
C1455 N1463 1.427 . S
C1456 H1447 0.930 . S
C1456 C1454 1.378 . S
C1456 C1457 1.367 . S
C1457 C1456 1.367 . S
C1457 C1459 1.433 . S
C1458 C1454 1.350 . S
C1458 C1455 1.463 . S
C1458 N1462 1.427 . S
C1459 H1449 0.929 . S
C1459 C1457 1.433 . S
C1459 N1462 1.384 . S
C1460 H1451 0.929 . S
C1460 C1452 1.378 . S
C1460 C1455 1.350 . S
C1461 H1448 0.929 . S
C1461 C1453 1.433 . S
C1461 N1463 1.384 . S
N1462 C1458 1.427 . S
N1462 C1459 1.384 . S
N1463 C1455 1.427 . S
N1463 C1461 1.384 . S
H1464 C1470 0.930 . S
H1465 C1474 0.930 . S
H1466 C1479 0.929 . S
H1467 C1477 0.929 . S
H1468 C1472 0.929 . S
H1469 C1478 0.929 . S
C1470 H1464 0.930 . S
C1470 C1471 1.367 . S
C1470 C1478 1.378 . S
C1471 C1470 1.367 . S
C1471 C1479 1.433 . S
C1472 H1468 0.929 . S
C1472 C1474 1.378 . S
C1472 C1476 1.350 . S
C1473 C1476 1.463 . S
C1473 C1478 1.350 . S
C1473 N1481 1.427 . S
C1474 H1465 0.930 . S
C1474 C1472 1.378 . S
C1474 C1475 1.367 . S
C1475 C1474 1.367 . S
C1475 C1477 1.433 . S
C1476 C1472 1.350 . S
C1476 C1473 1.463 . S
C1476 N1480 1.427 . S
C1477 H1467 0.929 . S
C1477 C1475 1.433 . S
C1477 N1480 1.384 . S
C1478 H1469 0.929 . S
C1478 C1470 1.378 . S
C1478 C1473 1.350 . S
C1479 H1466 0.929 . S
C1479 C1471 1.433 . S
C1479 N1481 1.384 . S
N1480 C1476 1.427 . S
N1480 C1477 1.384 . S
N1481 C1473 1.427 . S
N1481 C1479 1.384 . S
H1482 C1488 0.930 . S
H1483 C1492 0.930 . S
H1484 C1497 0.929 . S
H1485 C1495 0.929 . S
H1486 C1490 0.929 . S
H1487 C1496 0.929 . S
C1488 H1482 0.930 . S
C1488 C1489 1.367 . S
C1488 C1496 1.378 . S
C1489 C1488 1.367 . S
C1489 C1497 1.433 . S
C1490 H1486 0.929 . S
C1490 C1492 1.378 . S
C1490 C1494 1.350 . S
C1491 C1494 1.463 . S
C1491 C1496 1.350 . S
C1491 N1499 1.427 . S
C1492 H1483 0.930 . S
C1492 C1490 1.378 . S
C1492 C1493 1.367 . S
C1493 C1492 1.367 . S
C1493 C1495 1.433 . S
C1494 C1490 1.350 . S
C1494 C1491 1.463 . S
C1494 N1498 1.427 . S
C1495 H1485 0.929 . S
C1495 C1493 1.433 . S
C1495 N1498 1.384 . S
C1496 H1487 0.929 . S
C1496 C1488 1.378 . S
C1496 C1491 1.350 . S
C1497 H1484 0.929 . S
C1497 C1489 1.433 . S
C1497 N1499 1.384 . S
N1498 C1494 1.427 . S
N1498 C1495 1.384 . S
N1499 C1491 1.427 . S
N1499 C1497 1.384 . S
H1500 C1506 0.930 . S
H1501 C1510 0.930 . S
H1502 C1515 0.929 . S
H1503 C1513 0.929 . S
H1504 C1508 0.929 . S
H1505 C1514 0.929 . S
C1506 H1500 0.930 . S
C1506 C1507 1.367 . S
C1506 C1514 1.378 . S
C1507 C1506 1.367 . S
C1507 C1515 1.433 . S
C1508 H1504 0.929 . S
C1508 C1510 1.378 . S
C1508 C1512 1.350 . S
C1509 C1512 1.463 . S
C1509 C1514 1.350 . S
C1509 N1517 1.427 . S
C1510 H1501 0.930 . S
C1510 C1508 1.378 . S
C1510 C1511 1.367 . S
C1511 C1510 1.367 . S
C1511 C1513 1.433 . S
C1512 C1508 1.350 . S
C1512 C1509 1.463 . S
C1512 N1516 1.427 . S
C1513 H1503 0.929 . S
C1513 C1511 1.433 . S
C1513 N1516 1.384 . S
C1514 H1505 0.929 . S
C1514 C1506 1.378 . S
C1514 C1509 1.350 . S
C1515 H1502 0.929 . S
C1515 C1507 1.433 . S
C1515 N1517 1.384 . S
N1516 C1512 1.427 . S
N1516 C1513 1.384 . S
N1517 C1509 1.427 . S
N1517 C1515 1.384 . S
H1518 C1524 0.930 . S
H1519 C1528 0.930 . S
H1520 C1533 0.929 . S
H1521 C1531 0.929 . S
H1522 C1526 0.929 . S
H1523 C1532 0.929 . S
C1524 H1518 0.930 . S
C1524 C1525 1.367 . S
C1524 C1532 1.378 . S
C1525 C1524 1.367 . S
C1525 C1533 1.433 . S
C1526 H1522 0.929 . S
C1526 C1528 1.378 . S
C1526 C1530 1.350 . S
C1527 C1530 1.463 . S
C1527 C1532 1.350 . S
C1527 N1535 1.427 . S
C1528 H1519 0.930 . S
C1528 C1526 1.378 . S
C1528 C1529 1.367 . S
C1529 C1528 1.367 . S
C1529 C1531 1.433 . S
C1530 C1526 1.350 . S
C1530 C1527 1.463 . S
C1530 N1534 1.427 . S
C1531 H1521 0.929 . S
C1531 C1529 1.433 . S
C1531 N1534 1.384 . S
C1532 H1523 0.929 . S
C1532 C1524 1.378 . S
C1532 C1527 1.350 . S
C1533 H1520 0.929 . S
C1533 C1525 1.433 . S
C1533 N1535 1.384 . S
N1534 C1530 1.427 . S
N1534 C1531 1.384 . S
N1535 C1527 1.427 . S
N1535 C1533 1.384 . S
H1536 C1542 0.930 . S
H1537 C1546 0.930 . S
H1538 C1551 0.929 . S
H1539 C1549 0.929 . S
H1540 C1544 0.929 . S
H1541 C1550 0.929 . S
C1542 H1536 0.930 . S
C1542 C1543 1.367 . S
C1542 C1550 1.378 . S
C1543 C1542 1.367 . S
C1543 C1551 1.433 . S
C1544 H1540 0.929 . S
C1544 C1546 1.378 . S
C1544 C1548 1.350 . S
C1545 C1548 1.463 . S
C1545 C1550 1.350 . S
C1545 N1553 1.427 . S
C1546 H1537 0.930 . S
C1546 C1544 1.378 . S
C1546 C1547 1.367 . S
C1547 C1546 1.367 . S
C1547 C1549 1.433 . S
C1548 C1544 1.350 . S
C1548 C1545 1.463 . S
C1548 N1552 1.427 . S
C1549 H1539 0.929 . S
C1549 C1547 1.433 . S
C1549 N1552 1.384 . S
C1550 H1541 0.929 . S
C1550 C1542 1.378 . S
C1550 C1545 1.350 . S
C1551 H1538 0.929 . S
C1551 C1543 1.433 . S
C1551 N1553 1.384 . S
N1552 C1548 1.427 . S
N1552 C1549 1.384 . S
N1553 C1545 1.427 . S
N1553 C1551 1.384 . S
H1554 C1560 0.930 . S
H1555 C1564 0.930 . S
H1556 C1569 0.929 . S
H1557 C1567 0.929 . S
H1558 C1562 0.929 . S
H1559 C1568 0.929 . S
C1560 H1554 0.930 . S
C1560 C1561 1.367 . S
C1560 C1568 1.378 . S
C1561 C1560 1.367 . S
C1561 C1569 1.433 . S
C1562 H1558 0.929 . S
C1562 C1564 1.378 . S
C1562 C1566 1.350 . S
C1563 C1566 1.463 . S
C1563 C1568 1.350 . S
C1563 N1571 1.427 . S
C1564 H1555 0.930 . S
C1564 C1562 1.378 . S
C1564 C1565 1.367 . S
C1565 C1564 1.367 . S
C1565 C1567 1.433 . S
C1566 C1562 1.350 . S
C1566 C1563 1.463 . S
C1566 N1570 1.427 . S
C1567 H1557 0.929 . S
C1567 C1565 1.433 . S
C1567 N1570 1.384 . S
C1568 H1559 0.929 . S
C1568 C1560 1.378 . S
C1568 C1563 1.350 . S
C1569 H1556 0.929 . S
C1569 C1561 1.433 . S
C1569 N1571 1.384 . S
N1570 C1566 1.427 . S
N1570 C1567 1.384 . S
N1571 C1563 1.427 . S
N1571 C1569 1.384 . S
H1572 C1578 0.930 . S
H1573 C1582 0.930 . S
H1574 C1587 0.929 . S
H1575 C1585 0.929 . S
H1576 C1580 0.929 . S
H1577 C1586 0.929 . S
C1578 H1572 0.930 . S
C1578 C1579 1.367 . S
C1578 C1586 1.378 . S
C1579 C1578 1.367 . S
C1579 C1587 1.433 . S
C1580 H1576 0.929 . S
C1580 C1582 1.378 . S
C1580 C1584 1.350 . S
C1581 C1584 1.463 . S
C1581 C1586 1.350 . S
C1581 N1589 1.427 . S
C1582 H1573 0.930 . S
C1582 C1580 1.378 . S
C1582 C1583 1.367 . S
C1583 C1582 1.367 . S
C1583 C1585 1.433 . S
C1584 C1580 1.350 . S
C1584 C1581 1.463 . S
C1584 N1588 1.427 . S
C1585 H1575 0.929 . S
C1585 C1583 1.433 . S
C1585 N1588 1.384 . S
C1586 H1577 0.929 . S
C1586 C1578 1.378 . S
C1586 C1581 1.350 . S
C1587 H1574 0.929 . S
C1587 C1579 1.433 . S
C1587 N1589 1.384 . S
N1588 C1584 1.427 . S
N1588 C1585 1.384 . S
N1589 C1581 1.427 . S
N1589 C1587 1.384 . S
H1590 C1596 0.930 . S
H1591 C1600 0.930 . S
H1592 C1605 0.929 . S
H1593 C1603 0.929 . S
H1594 C1598 0.929 . S
H1595 C1604 0.929 . S
C1596 H1590 0.930 . S
C1596 C1597 1.367 . S
C1596 C1604 1.378 . S
C1597 C1596 1.367 . S
C1597 C1605 1.433 . S
C1598 H1594 0.929 . S
C1598 C1600 1.378 . S
C1598 C1602 1.350 . S
C1599 C1602 1.463 . S
C1599 C1604 1.350 . S
C1599 N1607 1.427 . S
C1600 H1591 0.930 . S
C1600 C1598 1.378 . S
C1600 C1601 1.367 . S
C1601 C1600 1.367 . S
C1601 C1603 1.433 . S
C1602 C1598 1.350 . S
C1602 C1599 1.463 . S
C1602 N1606 1.427 . S
C1603 H1593 0.929 . S
C1603 C1601 1.433 . S
C1603 N1606 1.384 . S
C1604 H1595 0.929 . S
C1604 C1596 1.378 . S
C1604 C1599 1.350 . S
C1605 H1592 0.929 . S
C1605 C1597 1.433 . S
C1605 N1607 1.384 . S
N1606 C1602 1.427 . S
N1606 C1603 1.384 . S
N1607 C1599 1.427 . S
N1607 C1605 1.384 . S
H1608 C1614 0.930 . S
H1609 C1618 0.930 . S
H1610 C1623 0.929 . S
H1611 C1621 0.929 . S
H1612 C1616 0.929 . S
H1613 C1622 0.929 . S
C1614 H1608 0.930 . S
C1614 C1615 1.367 . S
C1614 C1622 1.378 . S
C1615 C1614 1.367 . S
C1615 C1623 1.433 . S
C1616 H1612 0.929 . S
C1616 C1618 1.378 . S
C1616 C1620 1.350 . S
C1617 C1620 1.463 . S
C1617 C1622 1.350 . S
C1617 N1625 1.427 . S
C1618 H1609 0.930 . S
C1618 C1616 1.378 . S
C1618 C1619 1.367 . S
C1619 C1618 1.367 . S
C1619 C1621 1.433 . S
C1620 C1616 1.350 . S
C1620 C1617 1.463 . S
C1620 N1624 1.427 . S
C1621 H1611 0.929 . S
C1621 C1619 1.433 . S
C1621 N1624 1.384 . S
C1622 H1613 0.929 . S
C1622 C1614 1.378 . S
C1622 C1617 1.350 . S
C1623 H1610 0.929 . S
C1623 C1615 1.433 . S
C1623 N1625 1.384 . S
N1624 C1620 1.427 . S
N1624 C1621 1.384 . S
N1625 C1617 1.427 . S
N1625 C1623 1.384 . S
H1626 C1632 0.930 . S
H1627 C1636 0.930 . S
H1628 C1641 0.929 . S
H1629 C1639 0.929 . S
H1630 C1634 0.929 . S
H1631 C1640 0.929 . S
C1632 H1626 0.930 . S
C1632 C1633 1.367 . S
C1632 C1640 1.378 . S
C1633 C1632 1.367 . S
C1633 C1641 1.433 . S
C1634 H1630 0.929 . S
C1634 C1636 1.378 . S
C1634 C1638 1.350 . S
C1635 C1638 1.463 . S
C1635 C1640 1.350 . S
C1635 N1643 1.427 . S
C1636 H1627 0.930 . S
C1636 C1634 1.378 . S
C1636 C1637 1.367 . S
C1637 C1636 1.367 . S
C1637 C1639 1.433 . S
C1638 C1634 1.350 . S
C1638 C1635 1.463 . S
C1638 N1642 1.427 . S
C1639 H1629 0.929 . S
C1639 C1637 1.433 . S
C1639 N1642 1.384 . S
C1640 H1631 0.929 . S
C1640 C1632 1.378 . S
C1640 C1635 1.350 . S
C1641 H1628 0.929 . S
C1641 C1633 1.433 . S
C1641 N1643 1.384 . S
N1642 C1638 1.427 . S
N1642 C1639 1.384 . S
N1643 C1635 1.427 . S
N1643 C1641 1.384 . S
H1644 C1650 0.930 . S
H1645 C1654 0.930 . S
H1646 C1659 0.929 . S
H1647 C1657 0.929 . S
H1648 C1652 0.929 . S
H1649 C1658 0.929 . S
C1650 H1644 0.930 . S
C1650 C1651 1.367 . S
C1650 C1658 1.378 . S
C1651 C1650 1.367 . S
C1651 C1659 1.433 . S
C1652 H1648 0.929 . S
C1652 C1654 1.378 . S
C1652 C1656 1.350 . S
C1653 C1656 1.463 . S
C1653 C1658 1.350 . S
C1653 N1661 1.427 . S
C1654 H1645 0.930 . S
C1654 C1652 1.378 . S
C1654 C1655 1.367 . S
C1655 C1654 1.367 . S
C1655 C1657 1.433 . S
C1656 C1652 1.350 . S
C1656 C1653 1.463 . S
C1656 N1660 1.427 . S
C1657 H1647 0.929 . S
C1657 C1655 1.433 . S
C1657 N1660 1.384 . S
C1658 H1649 0.929 . S
C1658 C1650 1.378 . S
C1658 C1653 1.350 . S
C1659 H1646 0.929 . S
C1659 C1651 1.433 . S
C1659 N1661 1.384 . S
N1660 C1656 1.427 . S
N1660 C1657 1.384 . S
N1661 C1653 1.427 . S
N1661 C1659 1.384 . S
H1662 C1668 0.930 . S
H1663 C1672 0.930 . S
H1664 C1677 0.929 . S
H1665 C1675 0.929 . S
H1666 C1670 0.929 . S
H1667 C1676 0.929 . S
C1668 H1662 0.930 . S
C1668 C1669 1.367 . S
C1668 C1676 1.378 . S
C1669 C1668 1.367 . S
C1669 C1677 1.433 . S
C1670 H1666 0.929 . S
C1670 C1672 1.378 . S
C1670 C1674 1.350 . S
C1671 C1674 1.463 . S
C1671 C1676 1.350 . S
C1671 N1679 1.427 . S
C1672 H1663 0.930 . S
C1672 C1670 1.378 . S
C1672 C1673 1.367 . S
C1673 C1672 1.367 . S
C1673 C1675 1.433 . S
C1674 C1670 1.350 . S
C1674 C1671 1.463 . S
C1674 N1678 1.427 . S
C1675 H1665 0.929 . S
C1675 C1673 1.433 . S
C1675 N1678 1.384 . S
C1676 H1667 0.929 . S
C1676 C1668 1.378 . S
C1676 C1671 1.350 . S
C1677 H1664 0.929 . S
C1677 C1669 1.433 . S
C1677 N1679 1.384 . S
N1678 C1674 1.427 . S
N1678 C1675 1.384 . S
N1679 C1671 1.427 . S
N1679 C1677 1.384 . S
H1680 C1686 0.930 . S
H1681 C1690 0.930 . S
H1682 C1695 0.929 . S
H1683 C1693 0.929 . S
H1684 C1688 0.929 . S
H1685 C1694 0.929 . S
C1686 H1680 0.930 . S
C1686 C1687 1.367 . S
C1686 C1694 1.378 . S
C1687 C1686 1.367 . S
C1687 C1695 1.433 . S
C1688 H1684 0.929 . S
C1688 C1690 1.378 . S
C1688 C1692 1.350 . S
C1689 C1692 1.463 . S
C1689 C1694 1.350 . S
C1689 N1697 1.427 . S
C1690 H1681 0.930 . S
C1690 C1688 1.378 . S
C1690 C1691 1.367 . S
C1691 C1690 1.367 . S
C1691 C1693 1.433 . S
C1692 C1688 1.350 . S
C1692 C1689 1.463 . S
C1692 N1696 1.427 . S
C1693 H1683 0.929 . S
C1693 C1691 1.433 . S
C1693 N1696 1.384 . S
C1694 H1685 0.929 . S
C1694 C1686 1.378 . S
C1694 C1689 1.350 . S
C1695 H1682 0.929 . S
C1695 C1687 1.433 . S
C1695 N1697 1.384 . S
N1696 C1692 1.427 . S
N1696 C1693 1.384 . S
N1697 C1689 1.427 . S
N1697 C1695 1.384 . S
H1698 C1704 0.930 . S
H1699 C1708 0.930 . S
H1700 C1713 0.929 . S
H1701 C1711 0.929 . S
H1702 C1706 0.929 . S
H1703 C1712 0.929 . S
C1704 H1698 0.930 . S
C1704 C1705 1.367 . S
C1704 C1712 1.378 . S
C1705 C1704 1.367 . S
C1705 C1713 1.433 . S
C1706 H1702 0.929 . S
C1706 C1708 1.378 . S
C1706 C1710 1.350 . S
C1707 C1710 1.463 . S
C1707 C1712 1.350 . S
C1707 N1715 1.427 . S
C1708 H1699 0.930 . S
C1708 C1706 1.378 . S
C1708 C1709 1.367 . S
C1709 C1708 1.367 . S
C1709 C1711 1.433 . S
C1710 C1706 1.350 . S
C1710 C1707 1.463 . S
C1710 N1714 1.427 . S
C1711 H1701 0.929 . S
C1711 C1709 1.433 . S
C1711 N1714 1.384 . S
C1712 H1703 0.929 . S
C1712 C1704 1.378 . S
C1712 C1707 1.350 . S
C1713 H1700 0.929 . S
C1713 C1705 1.433 . S
C1713 N1715 1.384 . S
N1714 C1710 1.427 . S
N1714 C1711 1.384 . S
N1715 C1707 1.427 . S
N1715 C1713 1.384 . S
H1716 C1722 0.930 . S
H1717 C1726 0.930 . S
H1718 C1731 0.929 . S
H1719 C1729 0.929 . S
H1720 C1724 0.929 . S
H1721 C1730 0.929 . S
C1722 H1716 0.930 . S
C1722 C1723 1.367 . S
C1722 C1730 1.378 . S
C1723 C1722 1.367 . S
C1723 C1731 1.433 . S
C1724 H1720 0.929 . S
C1724 C1726 1.378 . S
C1724 C1728 1.350 . S
C1725 C1728 1.463 . S
C1725 C1730 1.350 . S
C1725 N1733 1.427 . S
C1726 H1717 0.930 . S
C1726 C1724 1.378 . S
C1726 C1727 1.367 . S
C1727 C1726 1.367 . S
C1727 C1729 1.433 . S
C1728 C1724 1.350 . S
C1728 C1725 1.463 . S
C1728 N1732 1.427 . S
C1729 H1719 0.929 . S
C1729 C1727 1.433 . S
C1729 N1732 1.384 . S
C1730 H1721 0.929 . S
C1730 C1722 1.378 . S
C1730 C1725 1.350 . S
C1731 H1718 0.929 . S
C1731 C1723 1.433 . S
C1731 N1733 1.384 . S
N1732 C1728 1.427 . S
N1732 C1729 1.384 . S
N1733 C1725 1.427 . S
N1733 C1731 1.384 . S
H1734 C1740 0.930 . S
H1735 C1744 0.930 . S
H1736 C1749 0.929 . S
H1737 C1747 0.929 . S
H1738 C1742 0.929 . S
H1739 C1748 0.929 . S
C1740 H1734 0.930 . S
C1740 C1741 1.367 . S
C1740 C1748 1.378 . S
C1741 C1740 1.367 . S
C1741 C1749 1.433 . S
C1742 H1738 0.929 . S
C1742 C1744 1.378 . S
C1742 C1746 1.350 . S
C1743 C1746 1.463 . S
C1743 C1748 1.350 . S
C1743 N1751 1.427 . S
C1744 H1735 0.930 . S
C1744 C1742 1.378 . S
C1744 C1745 1.367 . S
C1745 C1744 1.367 . S
C1745 C1747 1.433 . S
C1746 C1742 1.350 . S
C1746 C1743 1.463 . S
C1746 N1750 1.427 . S
C1747 H1737 0.929 . S
C1747 C1745 1.433 . S
C1747 N1750 1.384 . S
C1748 H1739 0.929 . S
C1748 C1740 1.378 . S
C1748 C1743 1.350 . S
C1749 H1736 0.929 . S
C1749 C1741 1.433 . S
C1749 N1751 1.384 . S
N1750 C1746 1.427 . S
N1750 C1747 1.384 . S
N1751 C1743 1.427 . S
N1751 C1749 1.384 . S
H1752 C1758 0.930 . S
H1753 C1762 0.930 . S
H1754 C1767 0.929 . S
H1755 C1765 0.929 . S
H1756 C1760 0.929 . S
H1757 C1766 0.929 . S
C1758 H1752 0.930 . S
C1758 C1759 1.367 . S
C1758 C1766 1.378 . S
C1759 C1758 1.367 . S
C1759 C1767 1.433 . S
C1760 H1756 0.929 . S
C1760 C1762 1.378 . S
C1760 C1764 1.350 . S
C1761 C1764 1.463 . S
C1761 C1766 1.350 . S
C1761 N1769 1.427 . S
C1762 H1753 0.930 . S
C1762 C1760 1.378 . S
C1762 C1763 1.367 . S
C1763 C1762 1.367 . S
C1763 C1765 1.433 . S
C1764 C1760 1.350 . S
C1764 C1761 1.463 . S
C1764 N1768 1.427 . S
C1765 H1755 0.929 . S
C1765 C1763 1.433 . S
C1765 N1768 1.384 . S
C1766 H1757 0.929 . S
C1766 C1758 1.378 . S
C1766 C1761 1.350 . S
C1767 H1754 0.929 . S
C1767 C1759 1.433 . S
C1767 N1769 1.384 . S
N1768 C1764 1.427 . S
N1768 C1765 1.384 . S
N1769 C1761 1.427 . S
N1769 C1767 1.384 . S
H1770 C1776 0.930 . S
H1771 C1780 0.930 . S
H1772 C1785 0.929 . S
H1773 C1783 0.929 . S
H1774 C1778 0.929 . S
H1775 C1784 0.929 . S
C1776 H1770 0.930 . S
C1776 C1777 1.367 . S
C1776 C1784 1.378 . S
C1777 C1776 1.367 . S
C1777 C1785 1.433 . S
C1778 H1774 0.929 . S
C1778 C1780 1.378 . S
C1778 C1782 1.350 . S
C1779 C1782 1.463 . S
C1779 C1784 1.350 . S
C1779 N1787 1.427 . S
C1780 H1771 0.930 . S
C1780 C1778 1.378 . S
C1780 C1781 1.367 . S
C1781 C1780 1.367 . S
C1781 C1783 1.433 . S
C1782 C1778 1.350 . S
C1782 C1779 1.463 . S
C1782 N1786 1.427 . S
C1783 H1773 0.929 . S
C1783 C1781 1.433 . S
C1783 N1786 1.384 . S
C1784 H1775 0.929 . S
C1784 C1776 1.378 . S
C1784 C1779 1.350 . S
C1785 H1772 0.929 . S
C1785 C1777 1.433 . S
C1785 N1787 1.384 . S
N1786 C1782 1.427 . S
N1786 C1783 1.384 . S
N1787 C1779 1.427 . S
N1787 C1785 1.384 . S
H1788 C1794 0.930 . S
H1789 C1798 0.930 . S
H1790 C1803 0.929 . S
H1791 C1801 0.929 . S
H1792 C1796 0.929 . S
H1793 C1802 0.929 . S
C1794 H1788 0.930 . S
C1794 C1795 1.367 . S
C1794 C1802 1.378 . S
C1795 C1794 1.367 . S
C1795 C1803 1.433 . S
C1796 H1792 0.929 . S
C1796 C1798 1.378 . S
C1796 C1800 1.350 . S
C1797 C1800 1.463 . S
C1797 C1802 1.350 . S
C1797 N1805 1.427 . S
C1798 H1789 0.930 . S
C1798 C1796 1.378 . S
C1798 C1799 1.367 . S
C1799 C1798 1.367 . S
C1799 C1801 1.433 . S
C1800 C1796 1.350 . S
C1800 C1797 1.463 . S
C1800 N1804 1.427 . S
C1801 H1791 0.929 . S
C1801 C1799 1.433 . S
C1801 N1804 1.384 . S
C1802 H1793 0.929 . S
C1802 C1794 1.378 . S
C1802 C1797 1.350 . S
C1803 H1790 0.929 . S
C1803 C1795 1.433 . S
C1803 N1805 1.384 . S
N1804 C1800 1.427 . S
N1804 C1801 1.384 . S
N1805 C1797 1.427 . S
N1805 C1803 1.384 . S
H1806 C1812 0.930 . S
H1807 C1816 0.930 . S
H1808 C1821 0.929 . S
H1809 C1819 0.929 . S
H1810 C1814 0.929 . S
H1811 C1820 0.929 . S
C1812 H1806 0.930 . S
C1812 C1813 1.367 . S
C1812 C1820 1.378 . S
C1813 C1812 1.367 . S
C1813 C1821 1.433 . S
C1814 H1810 0.929 . S
C1814 C1816 1.378 . S
C1814 C1818 1.350 . S
C1815 C1818 1.463 . S
C1815 C1820 1.350 . S
C1815 N1823 1.427 . S
C1816 H1807 0.930 . S
C1816 C1814 1.378 . S
C1816 C1817 1.367 . S
C1817 C1816 1.367 . S
C1817 C1819 1.433 . S
C1818 C1814 1.350 . S
C1818 C1815 1.463 . S
C1818 N1822 1.427 . S
C1819 H1809 0.929 . S
C1819 C1817 1.433 . S
C1819 N1822 1.384 . S
C1820 H1811 0.929 . S
C1820 C1812 1.378 . S
C1820 C1815 1.350 . S
C1821 H1808 0.929 . S
C1821 C1813 1.433 . S
C1821 N1823 1.384 . S
N1822 C1818 1.427 . S
N1822 C1819 1.384 . S
N1823 C1815 1.427 . S
N1823 C1821 1.384 . S
H1824 C1830 0.930 . S
H1825 C1834 0.930 . S
H1826 C1839 0.929 . S
H1827 C1837 0.929 . S
H1828 C1832 0.929 . S
H1829 C1838 0.929 . S
C1830 H1824 0.930 . S
C1830 C1831 1.367 . S
C1830 C1838 1.378 . S
C1831 C1830 1.367 . S
C1831 C1839 1.433 . S
C1832 H1828 0.929 . S
C1832 C1834 1.378 . S
C1832 C1836 1.350 . S
C1833 C1836 1.463 . S
C1833 C1838 1.350 . S
C1833 N1841 1.427 . S
C1834 H1825 0.930 . S
C1834 C1832 1.378 . S
C1834 C1835 1.367 . S
C1835 C1834 1.367 . S
C1835 C1837 1.433 . S
C1836 C1832 1.350 . S
C1836 C1833 1.463 . S
C1836 N1840 1.427 . S
C1837 H1827 0.929 . S
C1837 C1835 1.433 . S
C1837 N1840 1.384 . S
C1838 H1829 0.929 . S
C1838 C1830 1.378 . S
C1838 C1833 1.350 . S
C1839 H1826 0.929 . S
C1839 C1831 1.433 . S
C1839 N1841 1.384 . S
N1840 C1836 1.427 . S
N1840 C1837 1.384 . S
N1841 C1833 1.427 . S
N1841 C1839 1.384 . S
H1842 C1848 0.930 . S
H1843 C1852 0.930 . S
H1844 C1857 0.929 . S
H1845 C1855 0.929 . S
H1846 C1850 0.929 . S
H1847 C1856 0.929 . S
C1848 H1842 0.930 . S
C1848 C1849 1.367 . S
C1848 C1856 1.378 . S
C1849 C1848 1.367 . S
C1849 C1857 1.433 . S
C1850 H1846 0.929 . S
C1850 C1852 1.378 . S
C1850 C1854 1.350 . S
C1851 C1854 1.463 . S
C1851 C1856 1.350 . S
C1851 N1859 1.427 . S
C1852 H1843 0.930 . S
C1852 C1850 1.378 . S
C1852 C1853 1.367 . S
C1853 C1852 1.367 . S
C1853 C1855 1.433 . S
C1854 C1850 1.350 . S
C1854 C1851 1.463 . S
C1854 N1858 1.427 . S
C1855 H1845 0.929 . S
C1855 C1853 1.433 . S
C1855 N1858 1.384 . S
C1856 H1847 0.929 . S
C1856 C1848 1.378 . S
C1856 C1851 1.350 . S
C1857 H1844 0.929 . S
C1857 C1849 1.433 . S
C1857 N1859 1.384 . S
N1858 C1854 1.427 . S
N1858 C1855 1.384 . S
N1859 C1851 1.427 . S
N1859 C1857 1.384 . S
H1860 C1866 0.930 . S
H1861 C1870 0.930 . S
H1862 C1875 0.929 . S
H1863 C1873 0.929 . S
H1864 C1868 0.929 . S
H1865 C1874 0.929 . S
C1866 H1860 0.930 . S
C1866 C1867 1.367 . S
C1866 C1874 1.378 . S
C1867 C1866 1.367 . S
C1867 C1875 1.433 . S
C1868 H1864 0.929 . S
C1868 C1870 1.378 . S
C1868 C1872 1.350 . S
C1869 C1872 1.463 . S
C1869 C1874 1.350 . S
C1869 N1877 1.427 . S
C1870 H1861 0.930 . S
C1870 C1868 1.378 . S
C1870 C1871 1.367 . S
C1871 C1870 1.367 . S
C1871 C1873 1.433 . S
C1872 C1868 1.350 . S
C1872 C1869 1.463 . S
C1872 N1876 1.427 . S
C1873 H1863 0.929 . S
C1873 C1871 1.433 . S
C1873 N1876 1.384 . S
C1874 H1865 0.929 . S
C1874 C1866 1.378 . S
C1874 C1869 1.350 . S
C1875 H1862 0.929 . S
C1875 C1867 1.433 . S
C1875 N1877 1.384 . S
N1876 C1872 1.427 . S
N1876 C1873 1.384 . S
N1877 C1869 1.427 . S
N1877 C1875 1.384 . S
H1878 C1884 0.930 . S
H1879 C1888 0.930 . S
H1880 C1893 0.929 . S
H1881 C1891 0.929 . S
H1882 C1886 0.929 . S
H1883 C1892 0.929 . S
C1884 H1878 0.930 . S
C1884 C1885 1.367 . S
C1884 C1892 1.378 . S
C1885 C1884 1.367 . S
C1885 C1893 1.433 . S
C1886 H1882 0.929 . S
C1886 C1888 1.378 . S
C1886 C1890 1.350 . S
C1887 C1890 1.463 . S
C1887 C1892 1.350 . S
C1887 N1895 1.427 . S
C1888 H1879 0.930 . S
C1888 C1886 1.378 . S
C1888 C1889 1.367 . S
C1889 C1888 1.367 . S
C1889 C1891 1.433 . S
C1890 C1886 1.350 . S
C1890 C1887 1.463 . S
C1890 N1894 1.427 . S
C1891 H1881 0.929 . S
C1891 C1889 1.433 . S
C1891 N1894 1.384 . S
C1892 H1883 0.929 . S
C1892 C1884 1.378 . S
C1892 C1887 1.350 . S
C1893 H1880 0.929 . S
C1893 C1885 1.433 . S
C1893 N1895 1.384 . S
N1894 C1890 1.427 . S
N1894 C1891 1.384 . S
N1895 C1887 1.427 . S
N1895 C1893 1.384 . S
H1896 C1902 0.930 . S
H1897 C1906 0.930 . S
H1898 C1911 0.929 . S
H1899 C1909 0.929 . S
H1900 C1904 0.929 . S
H1901 C1910 0.929 . S
C1902 H1896 0.930 . S
C1902 C1903 1.367 . S
C1902 C1910 1.378 . S
C1903 C1902 1.367 . S
C1903 C1911 1.433 . S
C1904 H1900 0.929 . S
C1904 C1906 1.378 . S
C1904 C1908 1.350 . S
C1905 C1908 1.463 . S
C1905 C1910 1.350 . S
C1905 N1913 1.427 . S
C1906 H1897 0.930 . S
C1906 C1904 1.378 . S
C1906 C1907 1.367 . S
C1907 C1906 1.367 . S
C1907 C1909 1.433 . S
C1908 C1904 1.350 . S
C1908 C1905 1.463 . S
C1908 N1912 1.427 . S
C1909 H1899 0.929 . S
C1909 C1907 1.433 . S
C1909 N1912 1.384 . S
C1910 H1901 0.929 . S
C1910 C1902 1.378 . S
C1910 C1905 1.350 . S
C1911 H1898 0.929 . S
C1911 C1903 1.433 . S
C1911 N1913 1.384 . S
N1912 C1908 1.427 . S
N1912 C1909 1.384 . S
N1913 C1905 1.427 . S
N1913 C1911 1.384 . S
H1914 C1920 0.930 . S
H1915 C1924 0.930 . S
H1916 C1929 0.929 . S
H1917 C1927 0.929 . S
H1918 C1922 0.929 . S
H1919 C1928 0.929 . S
C1920 H1914 0.930 . S
C1920 C1921 1.367 . S
C1920 C1928 1.378 . S
C1921 C1920 1.367 . S
C1921 C1929 1.433 . S
C1922 H1918 0.929 . S
C1922 C1924 1.378 . S
C1922 C1926 1.350 . S
C1923 C1926 1.463 . S
C1923 C1928 1.350 . S
C1923 N1931 1.427 . S
C1924 H1915 0.930 . S
C1924 C1922 1.378 . S
C1924 C1925 1.367 . S
C1925 C1924 1.367 . S
C1925 C1927 1.433 . S
C1926 C1922 1.350 . S
C1926 C1923 1.463 . S
C1926 N1930 1.427 . S
C1927 H1917 0.929 . S
C1927 C1925 1.433 . S
C1927 N1930 1.384 . S
C1928 H1919 0.929 . S
C1928 C1920 1.378 . S
C1928 C1923 1.350 . S
C1929 H1916 0.929 . S
C1929 C1921 1.433 . S
C1929 N1931 1.384 . S
N1930 C1926 1.427 . S
N1930 C1927 1.384 . S
N1931 C1923 1.427 . S
N1931 C1929 1.384 . S
H1932 C1938 0.930 . S
H1933 C1942 0.930 . S
H1934 C1947 0.929 . S
H1935 C1945 0.929 . S
H1936 C1940 0.929 . S
H1937 C1946 0.929 . S
C1938 H1932 0.930 . S
C1938 C1939 1.367 . S
C1938 C1946 1.378 . S
C1939 C1938 1.367 . S
C1939 C1947 1.433 . S
C1940 H1936 0.929 . S
C1940 C1942 1.378 . S
C1940 C1944 1.350 . S
C1941 C1944 1.463 . S
C1941 C1946 1.350 . S
C1941 N1949 1.427 . S
C1942 H1933 0.930 . S
C1942 C1940 1.378 . S
C1942 C1943 1.367 . S
C1943 C1942 1.367 . S
C1943 C1945 1.433 . S
C1944 C1940 1.350 . S
C1944 C1941 1.463 . S
C1944 N1948 1.427 . S
C1945 H1935 0.929 . S
C1945 C1943 1.433 . S
C1945 N1948 1.384 . S
C1946 H1937 0.929 . S
C1946 C1938 1.378 . S
C1946 C1941 1.350 . S
C1947 H1934 0.929 . S
C1947 C1939 1.433 . S
C1947 N1949 1.384 . S
N1948 C1944 1.427 . S
N1948 C1945 1.384 . S
N1949 C1941 1.427 . S
N1949 C1947 1.384 . S
H1950 C1956 0.930 . S
H1951 C1960 0.930 . S
H1952 C1965 0.929 . S
H1953 C1963 0.929 . S
H1954 C1958 0.929 . S
H1955 C1964 0.929 . S
C1956 H1950 0.930 . S
C1956 C1957 1.367 . S
C1956 C1964 1.378 . S
C1957 C1956 1.367 . S
C1957 C1965 1.433 . S
C1958 H1954 0.929 . S
C1958 C1960 1.378 . S
C1958 C1962 1.350 . S
C1959 C1962 1.463 . S
C1959 C1964 1.350 . S
C1959 N1967 1.427 . S
C1960 H1951 0.930 . S
C1960 C1958 1.378 . S
C1960 C1961 1.367 . S
C1961 C1960 1.367 . S
C1961 C1963 1.433 . S
C1962 C1958 1.350 . S
C1962 C1959 1.463 . S
C1962 N1966 1.427 . S
C1963 H1953 0.929 . S
C1963 C1961 1.433 . S
C1963 N1966 1.384 . S
C1964 H1955 0.929 . S
C1964 C1956 1.378 . S
C1964 C1959 1.350 . S
C1965 H1952 0.929 . S
C1965 C1957 1.433 . S
C1965 N1967 1.384 . S
N1966 C1962 1.427 . S
N1966 C1963 1.384 . S
N1967 C1959 1.427 . S
N1967 C1965 1.384 . S
H1968 C1974 0.930 . S
H1969 C1978 0.930 . S
H1970 C1983 0.929 . S
H1971 C1981 0.929 . S
H1972 C1976 0.929 . S
H1973 C1982 0.929 . S
C1974 H1968 0.930 . S
C1974 C1975 1.367 . S
C1974 C1982 1.378 . S
C1975 C1974 1.367 . S
C1975 C1983 1.433 . S
C1976 H1972 0.929 . S
C1976 C1978 1.378 . S
C1976 C1980 1.350 . S
C1977 C1980 1.463 1_554 S
C1977 C1982 1.350 . S
C1977 N1985 1.427 . S
C1978 H1969 0.930 . S
C1978 C1976 1.378 . S
C1978 C1979 1.367 . S
C1979 C1978 1.367 . S
C1979 C1981 1.433 . S
C1980 C1976 1.350 . S
C1980 C1977 1.463 1_556 S
C1980 N1984 1.427 . S
C1981 H1971 0.929 . S
C1981 C1979 1.433 . S
C1981 N1984 1.384 . S
C1982 H1973 0.929 . S
C1982 C1974 1.378 . S
C1982 C1977 1.350 . S
C1983 H1970 0.929 . S
C1983 C1975 1.433 . S
C1983 N1985 1.384 . S
N1984 C1980 1.427 . S
N1984 C1981 1.384 . S
N1985 C1977 1.427 . S
N1985 C1983 1.384 . S
H1986 C1992 0.930 . S
H1987 C1996 0.930 . S
H1988 C2001 0.929 . S
H1989 C1999 0.929 . S
H1990 C1994 0.929 . S
H1991 C2000 0.929 . S
C1992 H1986 0.930 . S
C1992 C1993 1.367 . S
C1992 C2000 1.378 . S
C1993 C1992 1.367 . S
C1993 C2001 1.433 . S
C1994 H1990 0.929 . S
C1994 C1996 1.378 . S
C1994 C1998 1.350 . S
C1995 C1998 1.463 1_556 S
C1995 C2000 1.350 . S
C1995 N2003 1.427 . S
C1996 H1987 0.930 . S
C1996 C1994 1.378 . S
C1996 C1997 1.367 . S
C1997 C1996 1.367 . S
C1997 C1999 1.433 . S
C1998 C1994 1.350 . S
C1998 C1995 1.463 1_554 S
C1998 N2002 1.427 . S
C1999 H1989 0.929 . S
C1999 C1997 1.433 . S
C1999 N2002 1.384 . S
C2000 H1991 0.929 . S
C2000 C1992 1.378 . S
C2000 C1995 1.350 . S
C2001 H1988 0.929 . S
C2001 C1993 1.433 . S
C2001 N2003 1.384 . S
N2002 C1998 1.427 . S
N2002 C1999 1.384 . S
N2003 C1995 1.427 . S
N2003 C2001 1.384 . S
H2004 C2010 0.930 . S
H2005 C2014 0.930 . S
H2006 C2019 0.929 . S
H2007 C2017 0.929 . S
H2008 C2012 0.929 . S
H2009 C2018 0.929 . S
C2010 H2004 0.930 . S
C2010 C2011 1.367 . S
C2010 C2018 1.378 . S
C2011 C2010 1.367 . S
C2011 C2019 1.433 . S
C2012 H2008 0.929 . S
C2012 C2014 1.378 . S
C2012 C2016 1.350 . S
C2013 C2016 1.463 1_554 S
C2013 C2018 1.350 . S
C2013 N2021 1.427 . S
C2014 H2005 0.930 . S
C2014 C2012 1.378 . S
C2014 C2015 1.367 . S
C2015 C2014 1.367 . S
C2015 C2017 1.433 . S
C2016 C2012 1.350 . S
C2016 C2013 1.463 1_556 S
C2016 N2020 1.427 . S
C2017 H2007 0.929 . S
C2017 C2015 1.433 . S
C2017 N2020 1.384 . S
C2018 H2009 0.929 . S
C2018 C2010 1.378 . S
C2018 C2013 1.350 . S
C2019 H2006 0.929 . S
C2019 C2011 1.433 . S
C2019 N2021 1.384 . S
N2020 C2016 1.427 . S
N2020 C2017 1.384 . S
N2021 C2013 1.427 . S
N2021 C2019 1.384 . S
H2022 C2028 0.930 . S
H2023 C2032 0.930 . S
H2024 C2037 0.929 . S
H2025 C2035 0.929 . S
H2026 C2030 0.929 . S
H2027 C2036 0.929 . S
C2028 H2022 0.930 . S
C2028 C2029 1.367 . S
C2028 C2036 1.378 . S
C2029 C2028 1.367 . S
C2029 C2037 1.433 . S
C2030 H2026 0.929 . S
C2030 C2032 1.378 . S
C2030 C2034 1.350 . S
C2031 C2034 1.463 1_554 S
C2031 C2036 1.350 . S
C2031 N2039 1.427 . S
C2032 H2023 0.930 . S
C2032 C2030 1.378 . S
C2032 C2033 1.367 . S
C2033 C2032 1.367 . S
C2033 C2035 1.433 . S
C2034 C2030 1.350 . S
C2034 C2031 1.463 1_556 S
C2034 N2038 1.427 . S
C2035 H2025 0.929 . S
C2035 C2033 1.433 . S
C2035 N2038 1.384 . S
C2036 H2027 0.929 . S
C2036 C2028 1.378 . S
C2036 C2031 1.350 . S
C2037 H2024 0.929 . S
C2037 C2029 1.433 . S
C2037 N2039 1.384 . S
N2038 C2034 1.427 . S
N2038 C2035 1.384 . S
N2039 C2031 1.427 . S
N2039 C2037 1.384 . S
H2040 C2046 0.930 . S
H2041 C2050 0.930 . S
H2042 C2055 0.929 . S
H2043 C2053 0.929 . S
H2044 C2048 0.929 . S
H2045 C2054 0.929 . S
C2046 H2040 0.930 . S
C2046 C2047 1.367 . S
C2046 C2054 1.378 . S
C2047 C2046 1.367 . S
C2047 C2055 1.433 . S
C2048 H2044 0.929 . S
C2048 C2050 1.378 . S
C2048 C2052 1.350 . S
C2049 C2052 1.463 1_556 S
C2049 C2054 1.350 . S
C2049 N2057 1.427 . S
C2050 H2041 0.930 . S
C2050 C2048 1.378 . S
C2050 C2051 1.367 . S
C2051 C2050 1.367 . S
C2051 C2053 1.433 . S
C2052 C2048 1.350 . S
C2052 C2049 1.463 1_554 S
C2052 N2056 1.427 . S
C2053 H2043 0.929 . S
C2053 C2051 1.433 . S
C2053 N2056 1.384 . S
C2054 H2045 0.929 . S
C2054 C2046 1.378 . S
C2054 C2049 1.350 . S
C2055 H2042 0.929 . S
C2055 C2047 1.433 . S
C2055 N2057 1.384 . S
N2056 C2052 1.427 . S
N2056 C2053 1.384 . S
N2057 C2049 1.427 . S
N2057 C2055 1.384 . S
H2058 C2064 0.930 . S
H2059 C2068 0.930 . S
H2060 C2073 0.929 . S
H2061 C2071 0.929 . S
H2062 C2066 0.929 . S
H2063 C2072 0.929 . S
C2064 H2058 0.930 . S
C2064 C2065 1.367 . S
C2064 C2072 1.378 . S
C2065 C2064 1.367 . S
C2065 C2073 1.433 . S
C2066 H2062 0.929 . S
C2066 C2068 1.378 . S
C2066 C2070 1.350 . S
C2067 C2070 1.463 1_554 S
C2067 C2072 1.350 . S
C2067 N2075 1.427 . S
C2068 H2059 0.930 . S
C2068 C2066 1.378 . S
C2068 C2069 1.367 . S
C2069 C2068 1.367 . S
C2069 C2071 1.433 . S
C2070 C2066 1.350 . S
C2070 C2067 1.463 1_556 S
C2070 N2074 1.427 . S
C2071 H2061 0.929 . S
C2071 C2069 1.433 . S
C2071 N2074 1.384 . S
C2072 H2063 0.929 . S
C2072 C2064 1.378 . S
C2072 C2067 1.350 . S
C2073 H2060 0.929 . S
C2073 C2065 1.433 . S
C2073 N2075 1.384 . S
N2074 C2070 1.427 . S
N2074 C2071 1.384 . S
N2075 C2067 1.427 . S
N2075 C2073 1.384 . S
H2076 C2082 0.930 . S
H2077 C2086 0.930 . S
H2078 C2091 0.929 . S
H2079 C2089 0.929 . S
H2080 C2084 0.929 . S
H2081 C2090 0.929 . S
C2082 H2076 0.930 . S
C2082 C2083 1.367 . S
C2082 C2090 1.378 . S
C2083 C2082 1.367 . S
C2083 C2091 1.433 . S
C2084 H2080 0.929 . S
C2084 C2086 1.378 . S
C2084 C2088 1.350 . S
C2085 C2088 1.463 1_556 S
C2085 C2090 1.350 . S
C2085 N2093 1.427 . S
C2086 H2077 0.930 . S
C2086 C2084 1.378 . S
C2086 C2087 1.367 . S
C2087 C2086 1.367 . S
C2087 C2089 1.433 . S
C2088 C2084 1.350 . S
C2088 C2085 1.463 1_554 S
C2088 N2092 1.427 . S
C2089 H2079 0.929 . S
C2089 C2087 1.433 . S
C2089 N2092 1.384 . S
C2090 H2081 0.929 . S
C2090 C2082 1.378 . S
C2090 C2085 1.350 . S
C2091 H2078 0.929 . S
C2091 C2083 1.433 . S
C2091 N2093 1.384 . S
N2092 C2088 1.427 . S
N2092 C2089 1.384 . S
N2093 C2085 1.427 . S
N2093 C2091 1.384 . S
H2094 C2100 0.930 . S
H2095 C2104 0.930 . S
H2096 C2109 0.929 . S
H2097 C2107 0.929 . S
H2098 C2102 0.929 . S
H2099 C2108 0.929 . S
C2100 H2094 0.930 . S
C2100 C2101 1.367 . S
C2100 C2108 1.378 . S
C2101 C2100 1.367 . S
C2101 C2109 1.433 . S
C2102 H2098 0.929 . S
C2102 C2104 1.378 . S
C2102 C2106 1.350 . S
C2103 C2106 1.463 1_554 S
C2103 C2108 1.350 . S
C2103 N2111 1.427 . S
C2104 H2095 0.930 . S
C2104 C2102 1.378 . S
C2104 C2105 1.367 . S
C2105 C2104 1.367 . S
C2105 C2107 1.433 . S
C2106 C2102 1.350 . S
C2106 C2103 1.463 1_556 S
C2106 N2110 1.427 . S
C2107 H2097 0.929 . S
C2107 C2105 1.433 . S
C2107 N2110 1.384 . S
C2108 H2099 0.929 . S
C2108 C2100 1.378 . S
C2108 C2103 1.350 . S
C2109 H2096 0.929 . S
C2109 C2101 1.433 . S
C2109 N2111 1.384 . S
N2110 C2106 1.427 . S
N2110 C2107 1.384 . S
N2111 C2103 1.427 . S
N2111 C2109 1.384 . S
H2112 C2118 0.930 . S
H2113 C2122 0.930 . S
H2114 C2127 0.929 . S
H2115 C2125 0.929 . S
H2116 C2120 0.929 . S
H2117 C2126 0.929 . S
C2118 H2112 0.930 . S
C2118 C2119 1.367 . S
C2118 C2126 1.378 . S
C2119 C2118 1.367 . S
C2119 C2127 1.433 . S
C2120 H2116 0.929 . S
C2120 C2122 1.378 . S
C2120 C2124 1.350 . S
C2121 C2124 1.419 1_455 S
C2121 C2126 1.373 . S
C2121 N2129 1.447 . S
C2122 H2113 0.930 . S
C2122 C2120 1.378 . S
C2122 C2123 1.367 . S
C2123 C2122 1.367 . S
C2123 C2125 1.433 . S
C2124 C2120 1.350 . S
C2124 C2121 1.419 1_655 S
C2124 N2128 1.427 . S
C2125 H2115 0.929 . S
C2125 C2123 1.433 . S
C2125 N2128 1.384 . S
C2126 H2117 0.929 . S
C2126 C2118 1.378 . S
C2126 C2121 1.373 . S
C2127 H2114 0.929 . S
C2127 C2119 1.433 . S
C2127 N2129 1.384 . S
N2128 C2124 1.427 . S
N2128 C2125 1.384 . S
N2129 C2121 1.447 . S
N2129 C2127 1.384 . S
H2130 C2136 0.930 . S
H2131 C2140 0.930 . S
H2132 C2145 0.929 . S
H2133 C2143 0.929 . S
H2134 C2138 0.929 . S
H2135 C2144 0.929 . S
C2136 H2130 0.930 . S
C2136 C2137 1.367 . S
C2136 C2144 1.378 . S
C2137 C2136 1.367 . S
C2137 C2145 1.433 . S
C2138 H2134 0.929 . S
C2138 C2140 1.378 . S
C2138 C2142 1.350 . S
C2139 C2142 1.463 1_565 S
C2139 C2144 1.350 . S
C2139 N2147 1.427 . S
C2140 H2131 0.930 . S
C2140 C2138 1.378 . S
C2140 C2141 1.367 . S
C2141 C2140 1.367 . S
C2141 C2143 1.433 . S
C2142 C2138 1.350 . S
C2142 C2139 1.463 1_545 S
C2142 N2146 1.427 . S
C2143 H2133 0.929 . S
C2143 C2141 1.433 . S
C2143 N2146 1.384 . S
C2144 H2135 0.929 . S
C2144 C2136 1.378 . S
C2144 C2139 1.350 . S
C2145 H2132 0.929 . S
C2145 C2137 1.433 . S
C2145 N2147 1.384 . S
N2146 C2142 1.427 . S
N2146 C2143 1.384 . S
N2147 C2139 1.427 . S
N2147 C2145 1.384 . S
H2148 C2154 0.930 . S
H2149 C2158 0.930 . S
H2150 C2163 0.929 . S
H2151 C2161 0.929 . S
H2152 C2156 0.929 . S
H2153 C2162 0.929 . S
C2154 H2148 0.930 . S
C2154 C2155 1.367 . S
C2154 C2162 1.378 . S
C2155 C2154 1.367 . S
C2155 C2163 1.433 . S
C2156 H2152 0.929 . S
C2156 C2158 1.378 . S
C2156 C2160 1.350 . S
C2157 C2160 1.463 1_455 S
C2157 C2162 1.350 . S
C2157 N2165 1.427 . S
C2158 H2149 0.930 . S
C2158 C2156 1.378 . S
C2158 C2159 1.367 . S
C2159 C2158 1.367 . S
C2159 C2161 1.433 . S
C2160 C2156 1.350 . S
C2160 C2157 1.463 1_655 S
C2160 N2164 1.427 . S
C2161 H2151 0.929 . S
C2161 C2159 1.433 . S
C2161 N2164 1.384 . S
C2162 H2153 0.929 . S
C2162 C2154 1.378 . S
C2162 C2157 1.350 . S
C2163 H2150 0.929 . S
C2163 C2155 1.433 . S
C2163 N2165 1.384 . S
N2164 C2160 1.427 . S
N2164 C2161 1.384 . S
N2165 C2157 1.427 . S
N2165 C2163 1.384 . S
H2166 C2172 0.930 . S
H2167 C2176 0.930 . S
H2168 C2181 0.929 . S
H2169 C2179 0.929 . S
H2170 C2174 0.929 . S
H2171 C2180 0.929 . S
C2172 H2166 0.930 . S
C2172 C2173 1.367 . S
C2172 C2180 1.378 . S
C2173 C2172 1.367 . S
C2173 C2181 1.433 . S
C2174 H2170 0.929 . S
C2174 C2176 1.378 . S
C2174 C2178 1.350 . S
C2175 C2178 1.463 1_565 S
C2175 C2180 1.350 . S
C2175 N2183 1.427 . S
C2176 H2167 0.930 . S
C2176 C2174 1.378 . S
C2176 C2177 1.367 . S
C2177 C2176 1.367 . S
C2177 C2179 1.433 . S
C2178 C2174 1.350 . S
C2178 C2175 1.463 1_545 S
C2178 N2182 1.427 . S
C2179 H2169 0.929 . S
C2179 C2177 1.433 . S
C2179 N2182 1.384 . S
C2180 H2171 0.929 . S
C2180 C2172 1.378 . S
C2180 C2175 1.350 . S
C2181 H2168 0.929 . S
C2181 C2173 1.433 . S
C2181 N2183 1.384 . S
N2182 C2178 1.427 . S
N2182 C2179 1.384 . S
N2183 C2175 1.427 . S
N2183 C2181 1.384 . S
H2184 C2190 0.930 . S
H2185 C2194 0.930 . S
H2186 C2199 0.929 . S
H2187 C2197 0.929 . S
H2188 C2192 0.929 . S
H2189 C2198 0.929 . S
C2190 H2184 0.930 . S
C2190 C2191 1.367 . S
C2190 C2198 1.378 . S
C2191 C2190 1.367 . S
C2191 C2199 1.433 . S
C2192 H2188 0.929 . S
C2192 C2194 1.378 . S
C2192 C2196 1.350 . S
C2193 C2196 1.463 1_655 S
C2193 C2198 1.350 . S
C2193 N2201 1.427 . S
C2194 H2185 0.930 . S
C2194 C2192 1.378 . S
C2194 C2195 1.367 . S
C2195 C2194 1.367 . S
C2195 C2197 1.433 . S
C2196 C2192 1.350 . S
C2196 C2193 1.463 1_455 S
C2196 N2200 1.427 . S
C2197 H2187 0.929 . S
C2197 C2195 1.433 . S
C2197 N2200 1.384 . S
C2198 H2189 0.929 . S
C2198 C2190 1.378 . S
C2198 C2193 1.350 . S
C2199 H2186 0.929 . S
C2199 C2191 1.433 . S
C2199 N2201 1.384 . S
N2200 C2196 1.427 . S
N2200 C2197 1.384 . S
N2201 C2193 1.427 . S
N2201 C2199 1.384 . S
H2202 C2208 0.930 . S
H2203 C2212 0.930 . S
H2204 C2217 0.929 . S
H2205 C2215 0.929 . S
H2206 C2210 0.929 . S
H2207 C2216 0.929 . S
C2208 H2202 0.930 . S
C2208 C2209 1.367 . S
C2208 C2216 1.378 . S
C2209 C2208 1.367 . S
C2209 C2217 1.433 . S
C2210 H2206 0.929 . S
C2210 C2212 1.378 . S
C2210 C2214 1.350 . S
C2211 C2214 1.463 1_545 S
C2211 C2216 1.350 . S
C2211 N2219 1.427 . S
C2212 H2203 0.930 . S
C2212 C2210 1.378 . S
C2212 C2213 1.367 . S
C2213 C2212 1.367 . S
C2213 C2215 1.433 . S
C2214 C2210 1.350 . S
C2214 C2211 1.463 1_565 S
C2214 N2218 1.427 . S
C2215 H2205 0.929 . S
C2215 C2213 1.433 . S
C2215 N2218 1.384 . S
C2216 H2207 0.929 . S
C2216 C2208 1.378 . S
C2216 C2211 1.350 . S
C2217 H2204 0.929 . S
C2217 C2209 1.433 . S
C2217 N2219 1.384 . S
N2218 C2214 1.427 . S
N2218 C2215 1.384 . S
N2219 C2211 1.427 . S
N2219 C2217 1.384 . S
H2220 C2226 0.930 . S
H2221 C2230 0.930 . S
H2222 C2235 0.929 . S
H2223 C2233 0.929 . S
H2224 C2228 0.929 . S
H2225 C2234 0.929 . S
C2226 H2220 0.930 . S
C2226 C2227 1.367 . S
C2226 C2234 1.378 . S
C2227 C2226 1.367 . S
C2227 C2235 1.433 . S
C2228 H2224 0.929 . S
C2228 C2230 1.378 . S
C2228 C2232 1.359 . S
C2229 C2232 1.443 1_455 S
C2229 C2234 1.350 . S
C2229 N2237 1.427 . S
C2230 H2221 0.930 . S
C2230 C2228 1.378 . S
C2230 C2231 1.367 . S
C2231 C2230 1.367 . S
C2231 C2233 1.433 . S
C2232 C2228 1.359 . S
C2232 C2229 1.443 1_655 S
C2232 N2236 1.437 . S
C2233 H2223 0.929 . S
C2233 C2231 1.433 . S
C2233 N2236 1.384 . S
C2234 H2225 0.929 . S
C2234 C2226 1.378 . S
C2234 C2229 1.350 . S
C2235 H2222 0.929 . S
C2235 C2227 1.433 . S
C2235 N2237 1.384 . S
N2236 C2232 1.437 . S
N2236 C2233 1.384 . S
N2237 C2229 1.427 . S
N2237 C2235 1.384 . S
H2238 C2244 0.930 . S
H2239 C2248 0.930 . S
H2240 C2253 0.929 . S
H2241 C2251 0.929 . S
H2242 C2246 0.929 . S
H2243 C2252 0.929 . S
C2244 H2238 0.930 . S
C2244 C2245 1.367 . S
C2244 C2252 1.378 . S
C2245 C2244 1.367 . S
C2245 C2253 1.433 . S
C2246 H2242 0.929 . S
C2246 C2248 1.378 . S
C2246 C2250 1.350 . S
C2247 C2250 1.463 1_545 S
C2247 C2252 1.350 . S
C2247 N2255 1.427 . S
C2248 H2239 0.930 . S
C2248 C2246 1.378 . S
C2248 C2249 1.367 . S
C2249 C2248 1.367 . S
C2249 C2251 1.433 . S
C2250 C2246 1.350 . S
C2250 C2247 1.463 1_565 S
C2250 N2254 1.427 . S
C2251 H2241 0.929 . S
C2251 C2249 1.433 . S
C2251 N2254 1.384 . S
C2252 H2243 0.929 . S
C2252 C2244 1.378 . S
C2252 C2247 1.350 . S
C2253 H2240 0.929 . S
C2253 C2245 1.433 . S
C2253 N2255 1.384 . S
N2254 C2250 1.427 . S
N2254 C2251 1.384 . S
N2255 C2247 1.427 . S
N2255 C2253 1.384 . S
H2256 C2262 0.930 . S
H2257 C2266 0.930 . S
H2258 C2271 0.929 . S
H2259 C2269 0.929 . S
H2260 C2264 0.929 . S
H2261 C2270 0.929 . S
C2262 H2256 0.930 . S
C2262 C2263 1.367 . S
C2262 C2270 1.378 . S
C2263 C2262 1.367 . S
C2263 C2271 1.433 . S
C2264 H2260 0.929 . S
C2264 C2266 1.378 . S
C2264 C2268 1.350 . S
C2265 C2268 1.463 1_545 S
C2265 C2270 1.350 . S
C2265 N2273 1.427 . S
C2266 H2257 0.930 . S
C2266 C2264 1.378 . S
C2266 C2267 1.367 . S
C2267 C2266 1.367 . S
C2267 C2269 1.433 . S
C2268 C2264 1.350 . S
C2268 C2265 1.463 1_565 S
C2268 N2272 1.427 . S
C2269 H2259 0.929 . S
C2269 C2267 1.433 . S
C2269 N2272 1.384 . S
C2270 H2261 0.929 . S
C2270 C2262 1.378 . S
C2270 C2265 1.350 . S
C2271 H2258 0.929 . S
C2271 C2263 1.433 . S
C2271 N2273 1.384 . S
N2272 C2268 1.427 . S
N2272 C2269 1.384 . S
N2273 C2265 1.427 . S
N2273 C2271 1.384 . S
H2274 C2280 0.930 . S
H2275 C2284 0.930 . S
H2276 C2289 0.929 . S
H2277 C2287 0.929 . S
H2278 C2282 0.929 . S
H2279 C2288 0.929 . S
C2280 H2274 0.930 . S
C2280 C2281 1.367 . S
C2280 C2288 1.378 . S
C2281 C2280 1.367 . S
C2281 C2289 1.433 . S
C2282 H2278 0.929 . S
C2282 C2284 1.378 . S
C2282 C2286 1.350 . S
C2283 C2286 1.463 1_545 S
C2283 C2288 1.350 . S
C2283 N2291 1.427 . S
C2284 H2275 0.930 . S
C2284 C2282 1.378 . S
C2284 C2285 1.367 . S
C2285 C2284 1.367 . S
C2285 C2287 1.433 . S
C2286 C2282 1.350 . S
C2286 C2283 1.463 1_565 S
C2286 N2290 1.427 . S
C2287 H2277 0.929 . S
C2287 C2285 1.433 . S
C2287 N2290 1.384 . S
C2288 H2279 0.929 . S
C2288 C2280 1.378 . S
C2288 C2283 1.350 . S
C2289 H2276 0.929 . S
C2289 C2281 1.433 . S
C2289 N2291 1.384 . S
N2290 C2286 1.427 . S
N2290 C2287 1.384 . S
N2291 C2283 1.427 . S
N2291 C2289 1.384 . S
H2292 C2298 0.930 . S
H2293 C2302 0.930 . S
H2294 C2307 0.929 . S
H2295 C2305 0.929 . S
H2296 C2300 0.929 . S
H2297 C2306 0.929 . S
C2298 H2292 0.930 . S
C2298 C2299 1.367 . S
C2298 C2306 1.378 . S
C2299 C2298 1.367 . S
C2299 C2307 1.433 . S
C2300 H2296 0.929 . S
C2300 C2302 1.378 . S
C2300 C2304 1.350 . S
C2301 C2304 1.463 1_655 S
C2301 C2306 1.350 . S
C2301 N2309 1.427 . S
C2302 H2293 0.930 . S
C2302 C2300 1.378 . S
C2302 C2303 1.367 . S
C2303 C2302 1.367 . S
C2303 C2305 1.433 . S
C2304 C2300 1.350 . S
C2304 C2301 1.463 1_455 S
C2304 N2308 1.427 . S
C2305 H2295 0.929 . S
C2305 C2303 1.433 . S
C2305 N2308 1.384 . S
C2306 H2297 0.929 . S
C2306 C2298 1.378 . S
C2306 C2301 1.350 . S
C2307 H2294 0.929 . S
C2307 C2299 1.433 . S
C2307 N2309 1.384 . S
N2308 C2304 1.427 . S
N2308 C2305 1.384 . S
N2309 C2301 1.427 . S
N2309 C2307 1.384 . S
H2310 C2316 0.930 . S
H2311 C2320 0.930 . S
H2312 C2325 0.929 . S
H2313 C2323 0.929 . S
H2314 C2318 0.929 . S
H2315 C2324 0.929 . S
C2316 H2310 0.930 . S
C2316 C2317 1.367 . S
C2316 C2324 1.378 . S
C2317 C2316 1.367 . S
C2317 C2325 1.433 . S
C2318 H2314 0.929 . S
C2318 C2320 1.378 . S
C2318 C2322 1.350 . S
C2319 C2322 1.463 1_545 S
C2319 C2324 1.350 . S
C2319 N2327 1.427 . S
C2320 H2311 0.930 . S
C2320 C2318 1.378 . S
C2320 C2321 1.367 . S
C2321 C2320 1.367 . S
C2321 C2323 1.433 . S
C2322 C2318 1.350 . S
C2322 C2319 1.463 1_565 S
C2322 N2326 1.427 . S
C2323 H2313 0.929 . S
C2323 C2321 1.433 . S
C2323 N2326 1.384 . S
C2324 H2315 0.929 . S
C2324 C2316 1.378 . S
C2324 C2319 1.350 . S
C2325 H2312 0.929 . S
C2325 C2317 1.433 . S
C2325 N2327 1.384 . S
N2326 C2322 1.427 . S
N2326 C2323 1.384 . S
N2327 C2319 1.427 . S
N2327 C2325 1.384 . S
H2328 C2334 0.930 . S
H2329 C2338 0.930 . S
H2330 C2343 0.929 . S
H2331 C2341 0.929 . S
H2332 C2336 0.929 . S
H2333 C2342 0.929 . S
C2334 H2328 0.930 . S
C2334 C2335 1.367 . S
C2334 C2342 1.378 . S
C2335 C2334 1.367 . S
C2335 C2343 1.433 . S
C2336 H2332 0.929 . S
C2336 C2338 1.378 . S
C2336 C2340 1.350 . S
C2337 C2340 1.463 1_455 S
C2337 C2342 1.350 . S
C2337 N2345 1.427 . S
C2338 H2329 0.930 . S
C2338 C2336 1.378 . S
C2338 C2339 1.367 . S
C2339 C2338 1.367 . S
C2339 C2341 1.433 . S
C2340 C2336 1.350 . S
C2340 C2337 1.463 1_655 S
C2340 N2344 1.427 . S
C2341 H2331 0.929 . S
C2341 C2339 1.433 . S
C2341 N2344 1.384 . S
C2342 H2333 0.929 . S
C2342 C2334 1.378 . S
C2342 C2337 1.350 . S
C2343 H2330 0.929 . S
C2343 C2335 1.433 . S
C2343 N2345 1.384 . S
N2344 C2340 1.427 . S
N2344 C2341 1.384 . S
N2345 C2337 1.427 . S
N2345 C2343 1.384 . S
H2346 C2352 0.930 . S
H2347 C2356 0.930 . S
H2348 C2361 0.929 . S
H2349 C2359 0.929 . S
H2350 C2354 0.929 . S
H2351 C2360 0.929 . S
C2352 H2346 0.930 . S
C2352 C2353 1.367 . S
C2352 C2360 1.378 . S
C2353 C2352 1.367 . S
C2353 C2361 1.433 . S
C2354 H2350 0.929 . S
C2354 C2356 1.378 . S
C2354 C2358 1.350 . S
C2355 C2358 1.463 1_545 S
C2355 C2360 1.350 . S
C2355 N2363 1.427 . S
C2356 H2347 0.930 . S
C2356 C2354 1.378 . S
C2356 C2357 1.367 . S
C2357 C2356 1.367 . S
C2357 C2359 1.433 . S
C2358 C2354 1.350 . S
C2358 C2355 1.463 1_565 S
C2358 N2362 1.427 . S
C2359 H2349 0.929 . S
C2359 C2357 1.433 . S
C2359 N2362 1.384 . S
C2360 H2351 0.929 . S
C2360 C2352 1.378 . S
C2360 C2355 1.350 . S
C2361 H2348 0.929 . S
C2361 C2353 1.433 . S
C2361 N2363 1.384 . S
N2362 C2358 1.427 . S
N2362 C2359 1.384 . S
N2363 C2355 1.427 . S
N2363 C2361 1.384 . S
H2364 C2370 0.930 . S
H2365 C2374 0.930 . S
H2366 C2379 0.929 . S
H2367 C2377 0.929 . S
H2368 C2372 0.929 . S
H2369 C2378 0.929 . S
C2370 H2364 0.930 . S
C2370 C2371 1.367 . S
C2370 C2378 1.378 . S
C2371 C2370 1.367 . S
C2371 C2379 1.433 . S
C2372 H2368 0.929 . S
C2372 C2374 1.378 . S
C2372 C2376 1.350 . S
C2373 C2376 1.463 1_655 S
C2373 C2378 1.350 . S
C2373 N2381 1.427 . S
C2374 H2365 0.930 . S
C2374 C2372 1.378 . S
C2374 C2375 1.367 . S
C2375 C2374 1.367 . S
C2375 C2377 1.433 . S
C2376 C2372 1.350 . S
C2376 C2373 1.463 1_455 S
C2376 N2380 1.427 . S
C2377 H2367 0.929 . S
C2377 C2375 1.433 . S
C2377 N2380 1.384 . S
C2378 H2369 0.929 . S
C2378 C2370 1.378 . S
C2378 C2373 1.350 . S
C2379 H2366 0.929 . S
C2379 C2371 1.433 . S
C2379 N2381 1.384 . S
N2380 C2376 1.427 . S
N2380 C2377 1.384 . S
N2381 C2373 1.427 . S
N2381 C2379 1.384 . S
H2382 C2388 0.930 . S
H2383 C2392 0.930 . S
H2384 C2397 0.929 . S
H2385 C2395 0.929 . S
H2386 C2390 0.929 . S
H2387 C2396 0.929 . S
C2388 H2382 0.930 . S
C2388 C2389 1.367 . S
C2388 C2396 1.378 . S
C2389 C2388 1.367 . S
C2389 C2397 1.433 . S
C2390 H2386 0.929 . S
C2390 C2392 1.378 . S
C2390 C2394 1.350 . S
C2391 C2394 1.463 1_455 S
C2391 C2396 1.350 . S
C2391 N2399 1.427 . S
C2392 H2383 0.930 . S
C2392 C2390 1.378 . S
C2392 C2393 1.367 . S
C2393 C2392 1.367 . S
C2393 C2395 1.433 . S
C2394 C2390 1.350 . S
C2394 C2391 1.463 1_655 S
C2394 N2398 1.427 . S
C2395 H2385 0.929 . S
C2395 C2393 1.433 . S
C2395 N2398 1.384 . S
C2396 H2387 0.929 . S
C2396 C2388 1.378 . S
C2396 C2391 1.350 . S
C2397 H2384 0.929 . S
C2397 C2389 1.433 . S
C2397 N2399 1.384 . S
N2398 C2394 1.427 . S
N2398 C2395 1.384 . S
N2399 C2391 1.427 . S
N2399 C2397 1.384 . S
C679 C557 1.113 . S
C683 C5 1.031 . S
C697 C25 1.286 . S
C701 C509 1.173 . S
C715 C33 1.114 . S
C719 C529 1.198 . S
C733 C537 1.166 . S
C737 C53 1.283 . S
C751 C473 1.233 . S
C755 C67 1.228 . S
C769 C75 1.092 . S
C773 C481 1.051 . S
C787 C95 1.223 . S
C791 C501 1.242 . S
C805 C103 0.996 . S
C809 C453 1.032 . S
C823 C117 1.038 . S
C827 C439 1.076 . S
C841 C403 1.252 . S
C845 C137 1.254 . S
C859 C411 1.079 . S
C863 C145 1.035 . S
C877 C159 1.134 . S
C881 C431 1.236 . S
C895 C173 1.112 . S
C899 C361 1.220 . S
C913 C187 1.084 . S
C917 C375 1.152 . S
C931 C389 1.247 . S
C935 C207 1.234 . S
C949 C347 1.141 . S
C953 C215 1.057 . S
C967 C235 1.144 . S
C971 C621 1.048 . S
C985 C663 1.189 . S
C989 C243 1.153 . S
C1003 C641 1.182 . S
C1007 C263 1.208 . S
C1021 C649 1.139 . S
C1025 C271 1.154 . S
C1039 C571 1.159 . S
C1043 C291 1.188 . S
C1057 C593 1.072 . S
C1061 C305 1.164 . S
C1075 C313 1.095 . S
C1079 C607 1.137 . S
C1093 C579 1.114 . S
C1097 C327 1.062 . S
C1111 C459 1.136 . S
C1115 C285 1.049 . S
C1129 C249 1.305 . S
C1133 C467 1.208 . S
C1147 C487 1.199 . S
C1151 C257 1.103 . S
C1165 C495 1.217 . S
C1169 C277 1.305 . S
C1183 C333 1.234 . S
C1187 C515 1.228 . S
C1201 C523 1.088 . S
C1205 C299 1.067 . S
C1219 C319 1.225 . S
C1223 C543 1.234 . S
C1237 C229 1.019 . S
C1241 C551 1.019 . S
C1255 C565 1.061 . S
C1259 C221 1.155 . S
C1273 C179 1.261 . S
C1277 C669 1.259 . S
C1291 C635 1.084 . S
C1295 C193 1.167 . S
C1309 C201 1.134 . S
C1313 C655 1.240 . S
C1327 C131 1.112 . S
C1331 C585 1.222 . S
C1345 C151 1.148 . S
C1349 C599 1.144 . S
C1363 C165 1.244 . S
C1367 C613 1.236 . S
C1381 C627 1.137 . S
C1385 C123 1.148 . S
C1399 C341 1.053 . S
C1403 C109 1.139 . S
C1417 C397 1.167 . S
C1421 C19 1.139 . S
C1435 C417 1.172 . S
C1439 C39 1.173 . S
C1453 C425 1.121 . S
C1457 C47 1.133 . S
C1471 C445 1.136 . S
C1475 C11 1.163 . S
C1489 C81 1.149 . S
C1493 C369 1.068 . S
C1507 C383 1.088 . S
C1511 C89 1.115 . S
C1525 C355 1.071 . S
C1529 C61 1.074 . S
C1543 C12 1.149 . S
C1547 C368 1.131 . S
C1561 C382 1.245 . S
C1565 C18 1.265 . S
C1579 C40 1.143 . S
C1583 C340 1.131 . S
C1597 C46 1.249 . S
C1601 C354 1.261 . S
C1615 C60 1.210 . S
C1619 C424 1.234 . S
C1633 C446 0.993 . S
C1637 C82 0.994 . S
C1651 C88 1.210 . S
C1655 C396 1.226 . S
C1669 C418 0.998 . S
C1673 C110 0.998 . S
C1687 C124 1.253 . S
C1691 C516 1.247 . S
C1705 C522 1.252 . S
C1709 C130 1.227 . S
C1723 C152 1.259 . S
C1727 C544 1.254 . S
C1741 C166 1.113 . S
C1745 C550 1.098 . S
C1759 C180 1.099 . S
C1763 C460 1.102 . S
C1777 C194 1.195 . S
C1781 C466 1.188 . S
C1795 C488 1.252 . S
C1799 C200 1.232 . S
C1813 C222 1.190 . S
C1817 C494 1.182 . S
C1831 C614 1.189 . S
C1835 C228 1.162 . S
C1849 C250 1.188 . S
C1853 C634 1.170 . S
C1867 C256 1.241 . S
C1871 C656 1.264 . S
C1885 C564 1.127 . S
C1889 C278 1.160 . S
C1903 C670 1.329 . S
C1907 C284 1.300 . S
C1921 C298 1.114 . S
C1925 C586 1.133 . S
C1939 C600 1.197 . S
C1943 C320 1.208 . S
C1957 C334 1.174 . S
C1961 C628 1.169 . S
C1975 C592 1.141 . S
C1979 C292 1.166 . S
C1993 C242 1.261 . S
C1997 C606 1.245 . S
C2011 C620 1.143 . S
C2015 C264 1.161 . S
C2029 C578 1.247 . S
C2033 C270 1.261 . S
C2047 C648 1.224 . S
C2051 C326 1.226 . S
C2065 C306 1.014 . S
C2069 C572 1.005 . S
C2083 C662 1.225 . S
C2087 C312 1.211 . S
C2101 C236 1.018 . S
C2105 C642 1.010 . S
C2119 C474 1.283 . S
C2123 C214 1.279 . S
C2137 C172 1.224 . S
C2141 C480 1.249 . S
C2155 C186 1.287 . S
C2159 C502 1.292 . S
C2173 C452 1.097 . S
C2177 C208 1.107 . S
C2191 C138 1.099 . S
C2195 C558 1.093 . S
C2209 C508 1.175 . S
C2213 C144 1.177 . S
C2227 C158 1.216 . S
C2231 C530 1.246 . S
C2245 C116 1.166 . S
C2249 C536 1.172 . S
C2263 C390 1.172 . S
C2267 C102 1.156 . S
C2281 C26 1.120 . S
C2285 C410 1.098 . S
C2299 C32 1.219 . S
C2303 C432 1.245 . S
C2317 C438 1.074 . S
C2321 C54 1.088 . S
C2335 C4 1.280 . S
C2339 C404 1.300 . S
C2353 C74 1.083 . S
C2357 C362 1.109 . S
C2371 C96 1.135 . S
C2375 C376 1.130 . S
C2389 C68 1.106 . S
C2393 C348 1.095 . S
