# Generated by pormake.
# Topology soe, (5)-cn, num edge types: 1
# Building blocks:
#     Node 0, Type 0, BuildingBlock: XOMCOT_clean_sbu_0, # of connection points: 5
#     Node 1, Type 0, BuildingBlock: XOMCOT_clean_sbu_0, # of connection points: 5
#     Node 2, Type 0, BuildingBlock: XOMCOT_clean_sbu_0, # of connection points: 5
#     Node 3, Type 0, BuildingBlock: XOMCOT_clean_sbu_0, # of connection points: 5
#     Node 4, Type 0, BuildingBlock: XOMCOT_clean_sbu_0, # of connection points: 5
#     Node 5, Type 0, BuildingBlock: XOMCOT_clean_sbu_0, # of connection points: 5
#     Node 6, Type 0, BuildingBlock: XOMCOT_clean_sbu_0, # of connection points: 5
#     Node 7, Type 0, BuildingBlock: XOMCOT_clean_sbu_0, # of connection points: 5
#     Edge 8, Type (0, 0), BuildingBlock: KIFKEQ_clean_linker_1, # of connection points: 2
#     Edge 9, Type (0, 0), BuildingBlock: KIFKEQ_clean_linker_1, # of connection points: 2
#     Edge 10, Type (0, 0), BuildingBlock: KIFKEQ_clean_linker_1, # of connection points: 2
#     Edge 11, Type (0, 0), BuildingBlock: KIFKEQ_clean_linker_1, # of connection points: 2
#     Edge 12, Type (0, 0), BuildingBlock: KIFKEQ_clean_linker_1, # of connection points: 2
#     Edge 13, Type (0, 0), BuildingBlock: KIFKEQ_clean_linker_1, # of connection points: 2
#     Edge 14, Type (0, 0), BuildingBlock: KIFKEQ_clean_linker_1, # of connection points: 2
#     Edge 15, Type (0, 0), BuildingBlock: KIFKEQ_clean_linker_1, # of connection points: 2
#     Edge 16, Type (0, 0), BuildingBlock: KIFKEQ_clean_linker_1, # of connection points: 2
#     Edge 17, Type (0, 0), BuildingBlock: KIFKEQ_clean_linker_1, # of connection points: 2
#     Edge 18, Type (0, 0), BuildingBlock: KIFKEQ_clean_linker_1, # of connection points: 2
#     Edge 19, Type (0, 0), BuildingBlock: KIFKEQ_clean_linker_1, # of connection points: 2
#     Edge 20, Type (0, 0), BuildingBlock: KIFKEQ_clean_linker_1, # of connection points: 2
#     Edge 21, Type (0, 0), BuildingBlock: KIFKEQ_clean_linker_1, # of connection points: 2
#     Edge 22, Type (0, 0), BuildingBlock: KIFKEQ_clean_linker_1, # of connection points: 2
#     Edge 23, Type (0, 0), BuildingBlock: KIFKEQ_clean_linker_1, # of connection points: 2
#     Edge 24, Type (0, 0), BuildingBlock: KIFKEQ_clean_linker_1, # of connection points: 2
#     Edge 25, Type (0, 0), BuildingBlock: KIFKEQ_clean_linker_1, # of connection points: 2
#     Edge 26, Type (0, 0), BuildingBlock: KIFKEQ_clean_linker_1, # of connection points: 2
#     Edge 27, Type (0, 0), BuildingBlock: KIFKEQ_clean_linker_1, # of connection points: 2
# Relax obj value: 0.034
# Max RMSD: 0.066
# Mean RMSD: 0.066
data_MOF--net-soe--node1-XOMCOT_clean_sbu_0--edge1-KIFKEQ_clean_linker_1
_symmetry_space_group_name_H-M    P1
_symmetry_Int_Tables_number       1
_symmetry_cell_setting            triclinic
loop_
_symmetry_equiv_pos_as_xyz
'x, y, z'
_cell_length_a     59.158566
_cell_length_b     44.891305
_cell_length_c     17.83096
_cell_angle_alpha  90.081861
_cell_angle_beta   90.052196
_cell_angle_gamma 89.933416
loop_
_atom_site_label
_atom_site_type_symbol
_atom_site_fract_x
_atom_site_fract_y
_atom_site_fract_z
_atom_type_partial_charge
Co0 Co 0.11426 0.10529 0.11787 0.0
C1 C 0.10713 0.10925 0.95132 0.0
C2 C 0.11926 0.15029 0.99795 0.0
C3 C 0.11833 0.15312 0.92126 0.0
N4 N 0.11233 0.12272 0.01743 0.0
N5 N 0.11081 0.12732 0.89179 0.0
H6 H 0.10203 0.0862 0.94618 0.0
H7 H 0.12562 0.16707 0.0359 0.0
C8 C 0.13047 0.15636 0.22066 0.0
O9 O 0.13913 0.13788 0.26994 0.0
N10 N 0.11619 0.08723 0.21713 0.0
C11 C 0.12867 0.06306 0.23426 0.0
C12 C 0.12748 0.05813 0.31017 0.0
C13 C 0.10651 0.09571 0.2828 0.0
N14 N 0.11388 0.07892 0.34113 0.0
C15 C 0.14882 0.07247 0.04502 0.0
C16 C 0.18551 0.09214 0.12643 0.0
C17 C 0.18826 0.06779 0.07789 0.0
C18 C 0.16972 0.05873 0.035 0.0
C19 C 0.16423 0.10556 0.13416 0.0
N20 N 0.14582 0.09465 0.09675 0.0
H21 H 0.13478 0.06415 0.01277 0.0
H22 H 0.16295 0.12417 0.17107 0.0
H23 H 0.13861 0.05035 0.19469 0.0
H24 H 0.09594 0.11527 0.28869 0.0
O25 O 0.10086 0.06883 0.08281 0.0
O26 O 0.08143 0.10719 0.12672 0.0
O27 O 0.12149 0.14669 0.15977 0.0
C28 C 0.08135 0.08037 0.0985 0.0
H29 H 0.12346 0.17246 0.88937 0.0
H30 H 0.13663 0.04113 0.34073 0.0
H31 H 0.19963 0.10054 0.15885 0.0
H32 H 0.17098 0.04015 0.9964 0.0
Co33 Co 0.41324 0.933 0.12494 0.0
C34 C 0.4125 0.92869 0.95915 0.0
C35 C 0.42151 0.88713 1.01054 0.0
C36 C 0.42242 0.88373 0.93394 0.0
N37 N 0.41523 0.91527 0.02628 0.0
N38 N 0.4169 0.90991 0.9014 0.0
H39 H 0.40815 0.95197 0.95304 0.0
H40 H 0.42566 0.87032 0.05168 0.0
C41 C 0.39272 0.88289 0.21641 0.0
O42 O 0.3782 0.90171 0.24599 0.0
N43 N 0.41182 0.95069 0.22492 0.0
C44 C 0.40669 0.97906 0.2435 0.0
C45 C 0.40802 0.98229 0.32003 0.0
C46 C 0.4173 0.93756 0.29077 0.0
N47 N 0.41453 0.9561 0.34998 0.0
C48 C 0.37563 0.97082 0.09576 0.0
C49 C 0.34244 0.92797 0.08353 0.0
C50 C 0.33647 0.95814 0.07753 0.0
C51 C 0.35349 0.97952 0.08238 0.0
C52 C 0.36519 0.92013 0.09556 0.0
N53 N 0.38127 0.94162 0.10649 0.0
H54 H 0.38825 0.98799 0.09597 0.0
H55 H 0.36974 0.89686 0.09525 0.0
H56 H 0.40275 0.99675 0.20495 0.0
H57 H 0.42345 0.91495 0.29529 0.0
O58 O 0.42537 0.96948 0.08564 0.0
O59 O 0.44619 0.93295 0.13191 0.0
O60 O 0.40716 0.89193 0.16818 0.0
C61 C 0.4453 0.95924 0.10091 0.0
H62 H 0.42696 0.86345 0.90478 0.0
H63 H 0.40416 1.00238 0.35107 0.0
H64 H 0.32979 0.91072 0.07746 0.0
H65 H 0.34971 1.00304 0.07658 0.0
Co66 Co 0.11117 0.4334 0.40377 0.0
C67 C 0.11358 0.42696 0.57152 0.0
C68 C 0.09388 0.393 0.51805 0.0
C69 C 0.09231 0.38926 0.59436 0.0
N70 N 0.10742 0.41645 0.50337 0.0
N71 N 0.10468 0.41065 0.62785 0.0
H72 H 0.1232 0.44694 0.58084 0.0
H73 H 0.08514 0.38005 0.47588 0.0
C74 C 0.12888 0.37143 0.39386 0.0
O75 O 0.13983 0.37728 0.45634 0.0
N76 N 0.11407 0.45008 0.30458 0.0
C77 C 0.12009 0.47818 0.28791 0.0
C78 C 0.12067 0.48115 0.21117 0.0
C79 C 0.11106 0.43629 0.23809 0.0
N80 N 0.11508 0.45476 0.1796 0.0
C81 C 0.14876 0.46514 0.4646 0.0
C82 C 0.18173 0.44041 0.37452 0.0
C83 C 0.18754 0.4644 0.42142 0.0
C84 C 0.17063 0.4765 0.46721 0.0
C85 C 0.15946 0.4298 0.37322 0.0
N86 N 0.14328 0.44171 0.4192 0.0
H87 H 0.13594 0.47689 0.49561 0.0
H88 H 0.15508 0.4132 0.3319 0.0
H89 H 0.12392 0.49529 0.32873 0.0
H90 H 0.10639 0.41312 0.23294 0.0
O91 O 0.09935 0.47069 0.4401 0.0
O92 O 0.07832 0.43428 0.39412 0.0
O93 O 0.11718 0.39191 0.36232 0.0
C94 C 0.07936 0.46073 0.42433 0.0
H95 H 0.08248 0.37243 0.62296 0.0
H96 H 0.12476 0.5014 0.18137 0.0
H97 H 0.19407 0.43047 0.33731 0.0
H98 H 0.17381 0.49588 0.50184 0.0
Co99 Co 0.41197 0.60616 0.40305 0.0
C100 C 0.40893 0.61266 0.57048 0.0
C101 C 0.43023 0.6452 0.51869 0.0
C102 C 0.43141 0.64893 0.59507 0.0
N103 N 0.416 0.62261 0.503 0.0
N104 N 0.41805 0.62839 0.62781 0.0
H105 H 0.39782 0.59402 0.5782 0.0
H106 H 0.43972 0.6575 0.47722 0.0
C107 C 0.39449 0.66833 0.39627 0.0
O108 O 0.38368 0.66219 0.4587 0.0
N109 N 0.4088 0.58996 0.30352 0.0
C110 C 0.40253 0.56196 0.28605 0.0
C111 C 0.40232 0.55906 0.20924 0.0
C112 C 0.41224 0.6038 0.23751 0.0
N113 N 0.40838 0.58538 0.17893 0.0
C114 C 0.37447 0.57378 0.46174 0.0
C115 C 0.3415 0.59921 0.37257 0.0
C116 C 0.3361 0.57438 0.41629 0.0
C117 C 0.35275 0.56189 0.46186 0.0
C118 C 0.36366 0.61026 0.37325 0.0
N119 N 0.37987 0.59789 0.41853 0.0
H120 H 0.38728 0.562 0.49277 0.0
H121 H 0.368 0.62733 0.3333 0.0
H122 H 0.39827 0.54489 0.32638 0.0
H123 H 0.41771 0.6267 0.23239 0.0
O124 O 0.42377 0.56858 0.43754 0.0
O125 O 0.4448 0.60506 0.39256 0.0
O126 O 0.40601 0.64792 0.36352 0.0
C127 C 0.44375 0.57839 0.42126 0.0
H128 H 0.44213 0.66472 0.62399 0.0
H129 H 0.39768 0.53928 0.17807 0.0
H130 H 0.32911 0.60881 0.33489 0.0
H131 H 0.34924 0.54221 0.49501 0.0
Co132 Co 0.91317 0.9343 0.91215 0.0
C133 C 0.91021 0.92784 0.07945 0.0
C134 C 0.92805 0.89206 0.02666 0.0
C135 C 0.92957 0.88852 0.10307 0.0
N136 N 0.91556 0.91646 1.01144 0.0
N137 N 0.91838 0.91111 0.13658 0.0
H138 H 0.90154 0.94856 0.08758 0.0
H139 H 0.93647 0.87853 0.98492 0.0
C140 C 0.89608 0.87208 0.89227 0.0
O141 O 0.8842 0.87598 0.95376 0.0
N142 N 0.91169 0.95175 0.81334 0.0
C143 C 0.90577 0.97992 0.79632 0.0
C144 C 0.90611 0.98312 0.71947 0.0
C145 C 0.91551 0.93816 0.74703 0.0
N146 N 0.91213 0.95681 0.68869 0.0
C147 C 0.87405 0.96378 0.97031 0.0
C148 C 0.84331 0.94082 0.8691 0.0
C149 C 0.83618 0.96268 0.92006 0.0
C150 C 0.8518 0.97387 0.97164 0.0
C151 C 0.86574 0.93077 0.87086 0.0
N152 N 0.8808 0.94181 0.92218 0.0
H153 H 0.88611 0.97549 1.00443 0.0
H154 H 0.87123 0.91552 0.82772 0.0
H155 H 0.90114 0.99679 0.83686 0.0
H156 H 0.92068 0.91516 0.74141 0.0
O157 O 0.924 0.97148 0.95254 0.0
O158 O 0.946 0.93563 0.90821 0.0
O159 O 0.9082 0.89336 0.86669 0.0
C160 C 0.94429 0.96186 0.93925 0.0
H161 H 0.93925 0.87143 0.13126 0.0
H162 H 0.90165 1.00302 0.68856 0.0
H163 H 0.83185 0.9322 0.82696 0.0
H164 H 0.84724 0.99176 1.0096 0.0
Co165 Co 0.61098 0.10465 0.89121 0.0
C166 C 0.61902 0.1055 0.05572 0.0
C167 C 0.61533 0.14962 1.01122 0.0
C168 C 0.61768 0.15165 0.08775 0.0
N169 N 0.61631 0.12069 0.99092 0.0
N170 N 0.61983 0.12392 0.11571 0.0
H171 H 0.61979 0.08146 0.05922 0.0
H172 H 0.61217 0.16809 0.97389 0.0
C173 C 0.63233 0.1581 0.81177 0.0
O174 O 0.6492 0.14178 0.78711 0.0
N175 N 0.60475 0.0887 0.79043 0.0
C176 C 0.59531 0.062 0.77387 0.0
C177 C 0.59449 0.05834 0.69741 0.0
C178 C 0.60891 0.10107 0.72258 0.0
N179 N 0.60309 0.08291 0.66524 0.0
C180 C 0.64668 0.06419 0.86098 0.0
C181 C 0.68191 0.09771 0.91785 0.0
C182 C 0.68607 0.06844 0.89398 0.0
C183 C 0.66819 0.0518 0.86475 0.0
C184 C 0.65987 0.10923 0.91409 0.0
N185 N 0.64261 0.09267 0.88435 0.0
H186 H 0.63306 0.05008 0.84273 0.0
H187 H 0.65666 0.13133 0.93572 0.0
H188 H 0.58983 0.04559 0.81413 0.0
H189 H 0.61619 0.12266 0.71404 0.0
O190 O 0.60017 0.06835 0.93548 0.0
O191 O 0.57864 0.10746 0.90954 0.0
O192 O 0.61612 0.14613 0.84851 0.0
C193 C 0.58026 0.08054 0.93668 0.0
H194 H 0.6166 0.17188 0.12069 0.0
H195 H 0.58803 0.03907 0.66784 0.0
H196 H 0.69532 0.11107 0.94188 0.0
H197 H 0.6707 0.029 0.84648 0.0
Co198 Co 0.91188 0.60972 0.6077 0.0
C199 C 0.90951 0.615 0.44023 0.0
C200 C 0.92352 0.65373 0.49239 0.0
C201 C 0.92481 0.65722 0.41589 0.0
N202 N 0.9133 0.62761 0.50811 0.0
N203 N 0.91605 0.63278 0.38305 0.0
H204 H 0.90329 0.59275 0.43209 0.0
H205 H 0.93065 0.66866 0.53372 0.0
C206 C 0.89386 0.67147 0.63143 0.0
O207 O 0.88094 0.66739 0.5723 0.0
N208 N 0.91128 0.59206 0.70653 0.0
C209 C 0.90507 0.56398 0.72287 0.0
C210 C 0.90503 0.56059 0.79956 0.0
C211 C 0.91504 0.60538 0.7733 0.0
N212 N 0.91119 0.58668 0.83136 0.0
C213 C 0.87237 0.58062 0.55064 0.0
C214 C 0.84265 0.60144 0.65795 0.0
C215 C 0.83517 0.57999 0.6064 0.0
C216 C 0.85025 0.56997 0.55158 0.0
C217 C 0.8649 0.61196 0.65414 0.0
N218 N 0.87948 0.60186 0.60018 0.0
H219 H 0.88411 0.56977 0.51377 0.0
H220 H 0.87073 0.62679 0.69776 0.0
H221 H 0.90034 0.54732 0.6819 0.0
H222 H 0.91974 0.62853 0.77934 0.0
O223 O 0.92282 0.57258 0.5669 0.0
O224 O 0.94468 0.60904 0.60869 0.0
O225 O 0.90687 0.65052 0.65399 0.0
C226 C 0.94308 0.58263 0.57864 0.0
H227 H 0.93277 0.67559 0.38689 0.0
H228 H 0.90064 0.54045 0.82942 0.0
H229 H 0.83164 0.60931 0.70227 0.0
H230 H 0.84548 0.55247 0.51276 0.0
Co231 Co 0.61074 0.43393 0.62754 0.0
C232 C 0.61931 0.43392 0.46322 0.0
C233 C 0.61692 0.38953 0.50692 0.0
C234 C 0.61963 0.38781 0.4305 0.0
N235 N 0.61687 0.41845 0.52771 0.0
N236 N 0.62096 0.41569 0.40304 0.0
H237 H 0.61929 0.45798 0.45999 0.0
H238 H 0.61427 0.37079 0.54378 0.0
C239 C 0.63235 0.38008 0.70543 0.0
O240 O 0.64949 0.39608 0.72914 0.0
N241 N 0.6037 0.44921 0.72833 0.0
C242 C 0.59265 0.47481 0.74519 0.0
C243 C 0.59201 0.47849 0.82168 0.0
C244 C 0.60919 0.43758 0.796 0.0
N245 N 0.60244 0.45507 0.85352 0.0
C246 C 0.64594 0.47431 0.66543 0.0
C247 C 0.68182 0.44229 0.60772 0.0
C248 C 0.68591 0.47065 0.63835 0.0
C249 C 0.66751 0.48662 0.66715 0.0
C250 C 0.65979 0.43077 0.60679 0.0
N251 N 0.64221 0.44643 0.63745 0.0
H252 H 0.63205 0.48799 0.68385 0.0
H253 H 0.65695 0.40913 0.58194 0.0
H254 H 0.58592 0.49053 0.7052 0.0
H255 H 0.61824 0.41714 0.80422 0.0
O256 O 0.59969 0.47028 0.5836 0.0
O257 O 0.57857 0.43058 0.60658 0.0
O258 O 0.616 0.39232 0.66969 0.0
C259 C 0.57996 0.45765 0.58031 0.0
H260 H 0.61935 0.36762 0.39721 0.0
H261 H 0.58444 0.49699 0.85151 0.0
H262 H 0.69546 0.42913 0.5844 0.0
H263 H 0.66951 0.50909 0.68831 0.0
H264 H 0.29951 0.94426 0.16232 0.0
H265 H 0.32055 0.9959 0.97092 0.0
H266 H 0.26255 0.96908 0.15967 0.0
H267 H 0.28402 0.02098 0.96873 0.0
H268 H 0.20967 0.04607 0.95309 0.0
H269 H 0.24356 1.01514 0.94783 0.0
H270 H 0.24968 0.02032 0.1889 0.0
H271 H 0.21538 0.05058 0.19434 0.0
C272 C 0.296 0.96037 0.11867 0.0
C273 C 0.31283 0.96824 0.06695 0.0
C274 C 0.27501 0.97488 0.11771 0.0
C275 C 0.27045 0.99729 0.06456 0.0
C276 C 0.28689 1.00376 1.01016 0.0
C277 C 0.30784 0.98946 1.01147 0.0
C278 C 0.2182 0.04052 1.005 0.0
C279 C 0.20986 0.05086 0.07413 0.0
C280 C 0.23768 0.02289 1.00195 0.0
C281 C 0.24925 1.01508 0.06798 0.0
C282 C 0.24097 0.02554 0.1371 0.0
C283 C 0.22153 0.0433 0.14013 0.0
H284 H 0.21548 0.47197 0.29935 0.0
H285 H 0.2114 0.48951 0.53758 0.0
H286 H 0.25131 0.49885 0.29427 0.0
H287 H 0.24659 0.51752 0.53108 0.0
H288 H 0.29513 0.59439 0.46507 0.0
H289 H 0.25919 0.56692 0.46459 0.0
H290 H 0.29181 0.49321 0.35242 0.0
H291 H 0.32769 0.52048 0.35433 0.0
C292 C 0.22226 0.48116 0.35081 0.0
C293 C 0.21035 0.47858 0.41887 0.0
C294 C 0.2427 0.49681 0.34761 0.0
C295 C 0.2515 0.5106 0.41206 0.0
C296 C 0.23993 0.50759 0.48026 0.0
C297 C 0.21974 0.49155 0.4838 0.0
C298 C 0.29443 0.57246 0.43973 0.0
C299 C 0.31398 0.55944 0.40967 0.0
C300 C 0.27402 0.5567 0.43984 0.0
C301 C 0.2728 0.52792 0.40868 0.0
C302 C 0.29226 0.51539 0.3764 0.0
C303 C 0.31272 0.53091 0.37758 0.0
H304 H 0.72691 0.08795 0.84159 0.0
H305 H 0.69548 1.01653 0.96498 0.0
H306 H 0.76327 0.06148 0.84725 0.0
H307 H 0.73163 0.99028 0.97116 0.0
H308 H 0.80655 0.97158 0.03471 0.0
H309 H 0.77046 0.99821 0.03058 0.0
H310 H 0.77865 1.01175 0.79248 0.0
H311 H 0.81476 0.98493 0.79662 0.0
C312 C 0.72789 0.06681 0.87061 0.0
C313 C 0.70849 0.0542 0.90274 0.0
C314 C 0.74856 0.05156 0.87327 0.0
C315 C 0.75019 0.02377 0.90931 0.0
C316 C 0.73088 1.01169 0.94328 0.0
C317 C 0.71022 0.02665 0.93958 0.0
C318 C 0.80049 0.98002 0.98144 0.0
C319 C 0.81332 0.97606 0.91591 0.0
C320 C 0.77989 0.99522 0.97906 0.0
C321 C 0.77187 1.0072 0.91131 0.0
C322 C 0.78458 1.00299 0.84557 0.0
C323 C 0.80505 0.98735 0.84775 0.0
H324 H 0.81537 0.55808 0.73302 0.0
H325 H 0.8045 0.56894 0.4953 0.0
H326 H 0.78025 0.53 0.74261 0.0
H327 H 0.76895 0.54174 0.50483 0.0
H328 H 0.71828 0.46724 0.52811 0.0
H329 H 0.75436 0.49323 0.5228 0.0
H330 H 0.74063 0.53337 0.73853 0.0
H331 H 0.7054 0.50589 0.74603 0.0
C332 C 0.80519 0.55498 0.68308 0.0
C333 C 0.81263 0.56577 0.61346 0.0
C334 C 0.78504 0.53883 0.68845 0.0
C335 C 0.77173 0.53334 0.6244 0.0
C336 C 0.77897 0.54487 0.55508 0.0
C337 C 0.79923 0.56072 0.54963 0.0
C338 C 0.72318 0.48109 0.57515 0.0
C339 C 0.70879 0.48455 0.63728 0.0
C340 C 0.74373 0.49645 0.57156 0.0
C341 C 0.75037 0.5158 0.62978 0.0
C342 C 0.73625 0.51858 0.69278 0.0
C343 C 0.71583 0.50305 0.69666 0.0
H344 H 0.98854 0.95374 0.89878 0.0
H345 H 0.9449 1.01031 0.03084 0.0
H346 H 0.02111 0.98335 0.93751 0.0
H347 H 0.97739 0.03906 0.07234 0.0
H348 H 0.03834 0.10203 0.07816 0.0
H349 H 1.00509 0.074 0.03712 0.0
H350 H 0.04434 0.99267 0.04136 0.0
H351 H 0.07747 0.02083 0.07881 0.0
C352 C 0.98595 0.97239 0.93642 0.0
C353 C 0.96419 0.9797 0.96164 0.0
C354 C 1.00462 0.9893 0.95917 0.0
C355 C 1.00199 1.01363 1.00859 0.0
C356 C 0.98012 0.02088 0.03343 0.0
C357 C 0.96146 1.00423 1.00994 0.0
C358 C 0.0397 0.07814 0.07079 0.0
C359 C 0.06048 0.06364 0.08138 0.0
C360 C 0.02067 0.062 0.04735 0.0
C361 C 0.022 0.03099 0.03501 0.0
C362 C 0.04272 1.01655 0.04815 0.0
C363 C 0.06171 0.03268 0.07045 0.0
H364 H 0.48938 0.95102 0.14631 0.0
H365 H 0.44682 1.00748 1.01021 0.0
H366 H 0.52215 0.98155 0.11302 0.0
H367 H 0.4793 0.03698 0.97459 0.0
H368 H 0.53769 0.10121 0.96917 0.0
H369 H 0.50561 0.07247 0.01579 0.0
H370 H 0.54652 0.99258 1.01225 0.0
H371 H 0.5786 0.0215 0.96908 0.0
C372 C 0.48707 0.9698 0.10902 0.0
C373 C 0.46554 0.97688 0.08114 0.0
C374 C 0.50582 0.98727 0.08959 0.0
C375 C 0.50344 1.01194 0.0412 0.0
C376 C 0.48183 1.01871 0.01328 0.0
C377 C 0.46316 1.00155 0.0333 0.0
C378 C 0.53977 0.07755 0.97872 0.0
C379 C 0.56062 0.06364 0.96527 0.0
C380 C 0.52138 0.06097 1.00512 0.0
C381 C 0.52336 0.03004 0.01767 0.0
C382 C 0.54436 1.01634 1.00464 0.0
C383 C 0.56276 0.03294 0.97919 0.0
H384 H 0.03549 0.45314 0.37679 0.0
H385 H 0.07756 0.50816 0.51819 0.0
H386 H 1.00256 0.48317 0.41141 0.0
H387 H 0.04485 0.53705 0.55567 0.0
H388 H 0.9865 0.60193 0.55919 0.0
H389 H 0.01897 0.57288 0.51726 0.0
H390 H 0.97727 0.49385 0.50905 0.0
H391 H 0.94471 0.52333 0.54725 0.0
C392 C 0.03765 0.47153 0.41554 0.0
C393 C 0.05911 0.47839 0.44432 0.0
C394 C 0.01877 0.48866 0.4359 0.0
C395 C 0.02093 0.51275 0.48638 0.0
C396 C 0.04247 0.51926 0.51539 0.0
C397 C 0.06128 0.50248 0.49422 0.0
C398 C 0.98435 0.57834 0.54854 0.0
C399 C 0.9631 0.56491 0.55665 0.0
C400 C 1.00298 0.56157 0.52474 0.0
C401 C 1.00089 0.53084 0.5097 0.0
C402 C 0.97956 0.51748 0.51854 0.0
C403 C 0.96088 0.53435 0.54119 0.0
H404 H 0.48773 0.5875 0.37694 0.0
H405 H 0.44543 0.52791 0.50455 0.0
H406 H 0.52073 0.557 0.40788 0.0
H407 H 0.4782 0.49838 0.53821 0.0
H408 H 0.53795 0.43609 0.54394 0.0
H409 H 0.50551 0.46432 0.49744 0.0
H410 H 0.54491 0.54531 0.50801 0.0
H411 H 0.57736 0.51691 0.55087 0.0
C412 C 0.48551 0.56797 0.41175 0.0
C413 C 0.46399 0.56013 0.43817 0.0
C414 C 0.50442 0.55053 0.42995 0.0
C415 C 0.50225 0.52508 0.47575 0.0
C416 C 0.48061 0.51733 0.50164 0.0
C417 C 0.46176 0.5345 0.48275 0.0
C418 C 0.53963 0.45989 0.53586 0.0
C419 C 0.56018 0.47425 0.55123 0.0
C420 C 0.52102 0.47618 0.50957 0.0
C421 C 0.52245 0.50727 0.49903 0.0
C422 C 0.54316 0.52143 0.51394 0.0
C423 C 0.56178 0.50512 0.53923 0.0
H424 H 0.07985 0.09276 0.81974 0.0
H425 H 0.14001 0.14507 0.78477 0.0
H426 H 0.07873 0.081 0.6846 0.0
H427 H 0.13906 0.13319 0.65133 0.0
H428 H 0.14635 0.07197 0.44606 0.0
H429 H 0.14402 0.08304 0.57945 0.0
H430 H 0.07486 0.11154 0.55191 0.0
H431 H 0.07726 0.10053 0.41648 0.0
C432 C 0.0928 0.10166 0.78328 0.0
C433 C 0.10998 0.1199 0.81286 0.0
C434 C 0.09206 0.09516 0.70604 0.0
C435 C 0.1088 0.10622 0.6574 0.0
C436 C 0.12596 0.1243 0.68731 0.0
C437 C 0.12644 0.13122 0.76375 0.0
C438 C 0.13052 0.08026 0.46824 0.0
C439 C 0.11192 0.08516 0.42054 0.0
C440 C 0.12926 0.08681 0.54472 0.0
C441 C 0.10928 0.09813 0.57624 0.0
C442 C 0.09045 0.10265 0.52918 0.0
C443 C 0.09185 0.09655 0.45179 0.0
H444 H 0.41127 0.90158 0.41542 0.0
H445 H 0.42199 0.99477 0.46479 0.0
H446 H 0.41219 0.89042 0.54915 0.0
H447 H 0.42258 0.98359 0.59833 0.0
H448 H 0.39554 0.95575 0.83055 0.0
H449 H 0.39589 0.9669 0.6968 0.0
H450 H 0.43846 0.89036 0.6571 0.0
H451 H 0.43849 0.8794 0.79039 0.0
C452 C 0.41412 0.91966 0.45449 0.0
C453 C 0.4165 0.94913 0.4289 0.0
C454 C 0.41456 0.91325 0.5313 0.0
C455 C 0.41729 0.93615 0.58446 0.0
C456 C 0.42003 0.96552 0.55892 0.0
C457 C 0.41971 0.97191 0.48219 0.0
C458 C 0.40516 0.94142 0.79365 0.0
C459 C 0.41692 0.91659 0.82197 0.0
C460 C 0.40534 0.94782 0.7168 0.0
C461 C 0.41718 0.92948 0.66624 0.0
C462 C 0.4289 0.90468 0.69436 0.0
C463 C 0.42885 0.89838 0.77112 0.0
H464 H 0.07305 0.40009 0.73404 0.0
H465 H 0.14046 0.43424 0.70141 0.0
H466 H 0.0758 0.41047 0.86773 0.0
H467 H 0.14359 0.444 0.83568 0.0
H468 H 0.13277 0.48678 0.06384 0.0
H469 H 0.13001 0.476 0.93115 0.0
H470 H 0.09345 0.39513 0.98053 0.0
H471 H 0.09493 0.40679 0.11327 0.0
C472 C 0.08859 0.40945 0.75569 0.0
C473 C 0.10655 0.41633 0.7072 0.0
C474 C 0.09022 0.41536 0.83248 0.0
C475 C 0.10994 0.42805 0.86289 0.0
C476 C 0.12798 0.4347 0.81426 0.0
C477 C 0.12625 0.42905 0.73729 0.0
C478 C 0.12387 0.46686 0.04693 0.0
C479 C 0.11396 0.44783 0.10032 0.0
C480 C 0.12258 0.46044 0.97034 0.0
C481 C 0.11154 0.43465 0.94473 0.0
C482 C 0.10183 0.41543 0.99794 0.0
C483 C 0.10294 0.42198 0.07458 0.0
H484 H 0.3994 0.6382 0.11225 0.0
H485 H 0.42098 0.54807 0.06775 0.0
H486 H 0.40074 0.6492 0.9783 0.0
H487 H 0.42302 0.55908 0.93431 0.0
H488 H 0.40315 0.57764 0.69556 0.0
H489 H 0.39994 0.56826 0.82877 0.0
H490 H 0.42558 0.65644 0.87572 0.0
H491 H 0.42738 0.66662 0.74225 0.0
C492 C 0.4047 0.62087 0.0738 0.0
C493 C 0.40999 0.59225 0.10031 0.0
C494 C 0.40552 0.62714 0.99703 0.0
C495 C 0.41188 0.605 0.94518 0.0
C496 C 0.41753 0.57651 0.9722 0.0
C497 C 0.41646 0.57018 0.04874 0.0
C498 C 0.40776 0.59531 0.73382 0.0
C499 C 0.4156 0.62294 0.70732 0.0
C500 C 0.40623 0.58972 0.81069 0.0
C501 C 0.4127 0.61146 0.86332 0.0
C502 C 0.42026 0.63922 0.83698 0.0
C503 C 0.42158 0.64493 0.76008 0.0
H504 H 0.90586 0.96329 0.20468 0.0
H505 H 0.92797 0.87333 0.25203 0.0
H506 H 0.9039 0.9735 0.33755 0.0
H507 H 0.92745 0.88436 0.38505 0.0
H508 H 0.90252 0.90409 0.62212 0.0
H509 H 0.90355 0.89277 0.48842 0.0
H510 H 0.92666 0.98233 0.44332 0.0
H511 H 0.92484 0.99371 0.57684 0.0
C512 C 0.91035 0.94557 0.24281 0.0
C513 C 0.91712 0.91736 0.2163 0.0
C514 C 0.90953 0.95166 0.31968 0.0
C515 C 0.91567 0.92988 0.37256 0.0
C516 C 0.92235 0.90166 0.34629 0.0
C517 C 0.92294 0.89544 0.26941 0.0
C518 C 0.90796 0.92124 0.58355 0.0
C519 C 0.91356 0.94981 0.60992 0.0
C520 C 0.90861 0.91477 0.5068 0.0
C521 C 0.91514 0.93663 0.45457 0.0
C522 C 0.92107 0.96509 0.4814 0.0
C523 C 0.92014 0.97163 0.55802 0.0
H524 H 0.61115 0.04166 0.55757 0.0
H525 H 0.60231 0.13605 0.59345 0.0
H526 H 0.61692 0.05041 0.42413 0.0
H527 H 0.60765 0.14489 0.45989 0.0
H528 H 0.63838 0.15505 0.22976 0.0
H529 H 0.63544 0.14436 0.36341 0.0
H530 H 0.59737 0.06467 0.31277 0.0
H531 H 0.60083 0.07519 0.17911 0.0
C532 C 0.6102 0.06426 0.53679 0.0
C533 C 0.60625 0.08816 0.58615 0.0
C534 C 0.6135 0.0693 0.46021 0.0
C535 C 0.6128 0.09837 0.43097 0.0
C536 C 0.60877 0.12226 0.48047 0.0
C537 C 0.60563 0.11722 0.55712 0.0
C538 C 0.6295 0.13519 0.24736 0.0
C539 C 0.6198 0.11601 0.19401 0.0
C540 C 0.62769 0.12911 0.32395 0.0
C541 C 0.61595 0.1038 0.34917 0.0
C542 C 0.60677 0.08418 0.29555 0.0
C543 C 0.60875 0.09016 0.21883 0.0
H544 H 0.91444 0.67238 0.26849 0.0
H545 H 0.91655 0.57815 0.3167 0.0
H546 H 0.9136 0.66144 0.13453 0.0
H547 H 0.91564 0.56724 0.18306 0.0
H548 H 0.88858 0.55886 0.94369 0.0
H549 H 0.89001 0.57014 0.07689 0.0
H550 H 0.93708 0.64152 0.03358 0.0
H551 H 0.93571 0.63016 0.89981 0.0
C552 C 0.91489 0.64934 0.25062 0.0
C553 C 0.91548 0.62619 0.30369 0.0
C554 C 0.91443 0.64306 0.17374 0.0
C555 C 0.91451 0.61345 0.14792 0.0
C556 C 0.91517 0.5903 0.20095 0.0
C557 C 0.91565 0.59657 0.2778 0.0
C558 C 0.89946 0.57674 0.96234 0.0
C559 C 0.91213 0.59347 0.91061 0.0
C560 C 0.90026 0.58324 0.03897 0.0
C561 C 0.91372 0.60668 0.06612 0.0
C562 C 0.92632 0.62354 0.01451 0.0
C563 C 0.92554 0.61701 0.93772 0.0
H564 H 0.59996 0.46293 0.3392 0.0
H565 H 0.64142 0.38631 0.28978 0.0
H566 H 0.59632 0.4732 0.20544 0.0
H567 H 0.63839 0.39685 0.15603 0.0
H568 H 0.60514 0.40208 0.9253 0.0
H569 H 0.6111 0.39386 0.05885 0.0
H570 H 0.61488 0.48901 0.09426 0.0
H571 H 0.60841 0.49708 0.96081 0.0
C572 C 0.60871 0.44868 0.29971 0.0
C573 C 0.6209 0.42374 0.32485 0.0
C574 C 0.60663 0.45452 0.22293 0.0
C575 C 0.61689 0.4357 0.16958 0.0
C576 C 0.6298 0.41142 0.19521 0.0
C577 C 0.63167 0.40544 0.27185 0.0
C578 C 0.6074 0.4212 0.96157 0.0
C579 C 0.60623 0.45022 0.93248 0.0
C580 C 0.6109 0.41653 0.03822 0.0
C581 C 0.61354 0.44077 0.08766 0.0
C582 C 0.61255 0.46981 0.05827 0.0
C583 C 0.60886 0.47446 0.98169 0.0
H584 H 0.10288 0.20088 0.16715 0.0
H585 H 0.16063 0.18526 0.3098 0.0
H586 H 0.10265 0.25333 0.20475 0.0
H587 H 0.16132 0.23756 0.34407 0.0
H588 H 0.14138 0.32091 0.46647 0.0
H589 H 0.14188 0.27031 0.41977 0.0
H590 H 0.11911 0.30124 0.20286 0.0
H591 H 0.11755 0.35223 0.25168 0.0
C592 C 0.11577 0.20878 0.2055 0.0
C593 C 0.13158 0.18883 0.23628 0.0
C594 C 0.11572 0.23892 0.2269 0.0
C595 C 0.13173 0.24988 0.27871 0.0
C596 C 0.14821 0.23001 0.30616 0.0
C597 C 0.14797 0.19992 0.28597 0.0
C598 C 0.13656 0.31703 0.40866 0.0
C599 C 0.12955 0.34071 0.36276 0.0
C600 C 0.137 0.28786 0.38145 0.0
C601 C 0.13086 0.28137 0.30687 0.0
C602 C 0.12379 0.30514 0.26074 0.0
C603 C 0.12301 0.33446 0.28853 0.0
H604 H 0.4242 0.8397 0.18536 0.0
H605 H 0.36056 0.85371 0.29849 0.0
H606 H 0.42431 0.78787 0.2259 0.0
H607 H 0.36016 0.80169 0.33656 0.0
H608 H 0.37806 0.71794 0.46556 0.0
H609 H 0.3776 0.76882 0.42027 0.0
H610 H 0.40797 0.73996 0.21204 0.0
H611 H 0.40919 0.68882 0.25909 0.0
C612 C 0.4101 0.83166 0.2183 0.0
C613 C 0.39243 0.851 0.23902 0.0
C614 C 0.41008 0.80179 0.24118 0.0
C615 C 0.39229 0.79035 0.28494 0.0
C616 C 0.37442 0.80967 0.30433 0.0
C617 C 0.37456 0.83957 0.28208 0.0
C618 C 0.38458 0.72232 0.40992 0.0
C619 C 0.39364 0.69918 0.36599 0.0
C620 C 0.38418 0.75164 0.3836 0.0
C621 C 0.39262 0.75877 0.31209 0.0
C622 C 0.40158 0.73553 0.26777 0.0
C623 C 0.40216 0.70612 0.29452 0.0
H624 H 0.88212 0.81866 0.94864 0.0
H625 H 0.90897 0.85916 0.74804 0.0
H626 H 0.88166 0.77025 0.88593 0.0
H627 H 0.90831 0.81065 0.68515 0.0
H628 H 0.87794 0.72467 0.57872 0.0
H629 H 0.87863 0.77316 0.64115 0.0
H630 H 0.91048 0.73325 0.83436 0.0
H631 H 0.91 0.68472 0.77176 0.0
C632 C 0.88785 0.81727 0.89108 0.0
C633 C 0.89558 0.8428 0.85338 0.0
C634 C 0.88772 0.78948 0.85534 0.0
C635 C 0.89497 0.78661 0.78065 0.0
C636 C 0.90249 0.81219 0.74261 0.0
C637 C 0.90297 0.83993 0.77876 0.0
C638 C 0.88505 0.72619 0.63459 0.0
C639 C 0.8939 0.70078 0.67025 0.0
C640 C 0.88558 0.75402 0.67011 0.0
C641 C 0.89463 0.75705 0.74262 0.0
C642 C 0.90326 0.73159 0.77865 0.0
C643 C 0.90307 0.70382 0.74265 0.0
H644 H 0.5979 0.19788 0.83805 0.0
H645 H 0.66541 0.19194 0.74691 0.0
H646 H 0.59747 0.25137 0.81262 0.0
H647 H 0.66489 0.24528 0.72133 0.0
H648 H 0.66569 0.34582 0.76775 0.0
H649 H 0.66518 0.29247 0.7928 0.0
H650 H 0.5972 0.28707 0.70558 0.0
H651 H 0.59763 0.34061 0.68065 0.0
C652 C 0.61262 0.20791 0.81234 0.0
C653 C 0.6317 0.19052 0.79458 0.0
C654 C 0.61232 0.23857 0.79745 0.0
C655 C 0.63117 0.25266 0.76514 0.0
C656 C 0.65018 0.23523 0.7471 0.0
C657 C 0.65042 0.20457 0.76136 0.0
C658 C 0.65058 0.33335 0.75405 0.0
C659 C 0.6317 0.34762 0.72217 0.0
C660 C 0.65035 0.30267 0.768 0.0
C661 C 0.63118 0.28543 0.75097 0.0
C662 C 0.61218 0.29972 0.71992 0.0
C663 C 0.61247 0.33041 0.70534 0.0
loop_
_geom_bond_atom_site_label_1
_geom_bond_atom_site_label_2
_geom_bond_distance
_geom_bond_site_symmetry_2
_ccdc_geom_bond_type
Co0 N4 2.141 1_554 S
Co0 N10 2.128 . S
Co0 N20 2.194 . S
Co0 O25 2.351 . S
Co0 O26 2.155 . S
Co0 O27 2.096 . S
C1 N4 1.307 . S
C1 N5 1.328 . S
C1 H6 0.930 . S
C2 C3 1.333 . S
C2 N4 1.320 . S
C2 H7 0.922 1_556 S
C3 C2 1.333 . S
C3 N5 1.350 . S
C3 H29 0.931 . S
N4 Co0 2.141 1_556 S
N4 C1 1.307 . S
N4 C2 1.320 . S
N5 C1 1.328 . S
N5 C3 1.350 . S
H6 C1 0.930 . S
H7 C2 0.922 1_554 S
C8 O9 1.224 . S
C8 O27 1.247 . S
O9 C8 1.224 . S
N10 Co0 2.128 . S
N10 C11 1.355 . S
N10 C13 1.311 . S
C11 N10 1.355 . S
C11 C12 1.363 . S
C11 H23 0.929 . S
C12 C11 1.363 . S
C12 N14 1.375 . S
C12 H30 0.931 . S
C13 N10 1.311 . S
C13 N14 1.347 . S
C13 H24 0.929 . S
N14 C12 1.375 . S
N14 C13 1.347 . S
C15 C18 1.365 . S
C15 N20 1.328 . S
C15 H21 0.929 . S
C16 C17 1.362 . S
C16 C19 1.378 . S
C16 H31 0.929 . S
C17 C16 1.362 . S
C17 C18 1.366 . S
C18 C15 1.365 . S
C18 C17 1.366 . S
C18 H32 0.930 . S
C19 C16 1.378 . S
C19 N20 1.315 . S
C19 H22 0.930 . S
N20 Co0 2.194 . S
N20 C15 1.328 . S
N20 C19 1.315 . S
H21 C15 0.929 . S
H22 C19 0.930 . S
H23 C11 0.929 . S
H24 C13 0.929 . S
O25 Co0 2.351 . S
O25 C28 1.244 . S
O26 Co0 2.155 . S
O26 C28 1.240 . S
O27 Co0 2.096 . S
O27 C8 1.247 . S
C28 O25 1.244 . S
C28 O26 1.240 . S
H29 C3 0.931 . S
H30 C12 0.931 . S
H31 C16 0.929 . S
H32 C18 0.930 . S
Co33 N37 2.140 1_554 S
Co33 N43 2.128 . S
Co33 N53 2.194 . S
Co33 O58 2.351 . S
Co33 O59 2.155 . S
Co33 O60 2.096 . S
C34 N37 1.308 . S
C34 N38 1.328 . S
C34 H39 0.930 . S
C35 C36 1.333 . S
C35 N37 1.320 . S
C35 H40 0.922 1_556 S
C36 C35 1.333 . S
C36 N38 1.350 . S
C36 H62 0.931 . S
N37 Co33 2.140 1_556 S
N37 C34 1.308 . S
N37 C35 1.320 . S
N38 C34 1.328 . S
N38 C36 1.350 . S
H39 C34 0.930 . S
H40 C35 0.922 1_554 S
C41 O42 1.224 . S
C41 O60 1.247 . S
O42 C41 1.224 . S
N43 Co33 2.128 . S
N43 C44 1.355 . S
N43 C46 1.311 . S
C44 N43 1.355 . S
C44 C45 1.363 . S
C44 H56 0.929 . S
C45 C44 1.363 . S
C45 N47 1.375 . S
C45 H63 0.931 . S
C46 N43 1.311 . S
C46 N47 1.347 . S
C46 H57 0.929 . S
N47 C45 1.375 . S
N47 C46 1.347 . S
C48 C51 1.365 . S
C48 N53 1.328 . S
C48 H54 0.929 . S
C49 C50 1.362 . S
C49 C52 1.378 . S
C49 H64 0.929 . S
C50 C49 1.362 . S
C50 C51 1.366 . S
C51 C48 1.365 . S
C51 C50 1.366 . S
C51 H65 0.930 . S
C52 C49 1.378 . S
C52 N53 1.315 . S
C52 H55 0.930 . S
N53 Co33 2.194 . S
N53 C48 1.328 . S
N53 C52 1.315 . S
H54 C48 0.929 . S
H55 C52 0.930 . S
H56 C44 0.929 . S
H57 C46 0.929 . S
O58 Co33 2.351 . S
O58 C61 1.244 . S
O59 Co33 2.155 . S
O59 C61 1.240 . S
O60 Co33 2.096 . S
O60 C41 1.247 . S
C61 O58 1.244 . S
C61 O59 1.240 . S
H62 C36 0.931 . S
H63 C45 0.931 . S
H64 C49 0.929 . S
H65 C51 0.930 . S
Co66 N70 2.148 . S
Co66 N76 2.128 . S
Co66 N86 2.194 . S
Co66 O91 2.351 . S
Co66 O92 2.155 . S
Co66 O93 2.096 . S
C67 N70 1.301 . S
C67 N71 1.328 . S
C67 H72 0.930 . S
C68 C69 1.333 . S
C68 N70 1.317 . S
C68 H73 0.930 . S
C69 C68 1.333 . S
C69 N71 1.350 . S
C69 H95 0.931 . S
N70 Co66 2.148 . S
N70 C67 1.301 . S
N70 C68 1.317 . S
N71 C67 1.328 . S
N71 C69 1.350 . S
H72 C67 0.930 . S
H73 C68 0.930 . S
C74 O75 1.224 . S
C74 O93 1.247 . S
O75 C74 1.224 . S
N76 Co66 2.128 . S
N76 C77 1.355 . S
N76 C79 1.311 . S
C77 N76 1.355 . S
C77 C78 1.363 . S
C77 H89 0.929 . S
C78 C77 1.363 . S
C78 N80 1.375 . S
C78 H96 0.931 . S
C79 N76 1.311 . S
C79 N80 1.347 . S
C79 H90 0.929 . S
N80 C78 1.375 . S
N80 C79 1.347 . S
C81 C84 1.365 . S
C81 N86 1.328 . S
C81 H87 0.929 . S
C82 C83 1.362 . S
C82 C85 1.378 . S
C82 H97 0.929 . S
C83 C82 1.362 . S
C83 C84 1.366 . S
C84 C81 1.365 . S
C84 C83 1.366 . S
C84 H98 0.930 . S
C85 C82 1.378 . S
C85 N86 1.315 . S
C85 H88 0.930 . S
N86 Co66 2.194 . S
N86 C81 1.328 . S
N86 C85 1.315 . S
H87 C81 0.929 . S
H88 C85 0.930 . S
H89 C77 0.929 . S
H90 C79 0.929 . S
O91 Co66 2.351 . S
O91 C94 1.244 . S
O92 Co66 2.155 . S
O92 C94 1.240 . S
O93 Co66 2.096 . S
O93 C74 1.247 . S
C94 O91 1.244 . S
C94 O92 1.240 . S
H95 C69 0.931 . S
H96 C78 0.931 . S
H97 C82 0.929 . S
H98 C84 0.930 . S
Co99 N103 2.148 . S
Co99 N109 2.128 . S
Co99 N119 2.194 . S
Co99 O124 2.351 . S
Co99 O125 2.155 . S
Co99 O126 2.096 . S
C100 N103 1.301 . S
C100 N104 1.328 . S
C100 H105 0.930 . S
C101 C102 1.333 . S
C101 N103 1.317 . S
C101 H106 0.930 . S
C102 C101 1.333 . S
C102 N104 1.350 . S
C102 H128 0.931 . S
N103 Co99 2.148 . S
N103 C100 1.301 . S
N103 C101 1.317 . S
N104 C100 1.328 . S
N104 C102 1.350 . S
H105 C100 0.930 . S
H106 C101 0.930 . S
C107 O108 1.224 . S
C107 O126 1.247 . S
O108 C107 1.224 . S
N109 Co99 2.128 . S
N109 C110 1.355 . S
N109 C112 1.311 . S
C110 N109 1.355 . S
C110 C111 1.363 . S
C110 H122 0.929 . S
C111 C110 1.363 . S
C111 N113 1.375 . S
C111 H129 0.931 . S
C112 N109 1.311 . S
C112 N113 1.347 . S
C112 H123 0.929 . S
N113 C111 1.375 . S
N113 C112 1.347 . S
C114 C117 1.365 . S
C114 N119 1.328 . S
C114 H120 0.929 . S
C115 C116 1.362 . S
C115 C118 1.378 . S
C115 H130 0.929 . S
C116 C115 1.362 . S
C116 C117 1.366 . S
C117 C114 1.365 . S
C117 C116 1.366 . S
C117 H131 0.930 . S
C118 C115 1.378 . S
C118 N119 1.315 . S
C118 H121 0.930 . S
N119 Co99 2.194 . S
N119 C114 1.328 . S
N119 C118 1.315 . S
H120 C114 0.929 . S
H121 C118 0.930 . S
H122 C110 0.929 . S
H123 C112 0.929 . S
O124 Co99 2.351 . S
O124 C127 1.244 . S
O125 Co99 2.155 . S
O125 C127 1.240 . S
O126 Co99 2.096 . S
O126 C107 1.247 . S
C127 O124 1.244 . S
C127 O125 1.240 . S
H128 C102 0.931 . S
H129 C111 0.931 . S
H130 C115 0.929 . S
H131 C117 0.930 . S
Co132 N136 2.141 1_556 S
Co132 N142 2.128 . S
Co132 N152 2.194 . S
Co132 O157 2.351 . S
Co132 O158 2.155 . S
Co132 O159 2.096 . S
C133 N136 1.307 . S
C133 N137 1.328 . S
C133 H138 0.930 . S
C134 C135 1.333 . S
C134 N136 1.320 . S
C134 H139 0.922 1_554 S
C135 C134 1.333 . S
C135 N137 1.350 . S
C135 H161 0.931 . S
N136 Co132 2.141 1_554 S
N136 C133 1.307 . S
N136 C134 1.320 . S
N137 C133 1.328 . S
N137 C135 1.350 . S
H138 C133 0.930 . S
H139 C134 0.922 1_556 S
C140 O141 1.224 . S
C140 O159 1.247 . S
O141 C140 1.224 . S
N142 Co132 2.128 . S
N142 C143 1.355 . S
N142 C145 1.311 . S
C143 N142 1.355 . S
C143 C144 1.363 . S
C143 H155 0.929 . S
C144 C143 1.363 . S
C144 N146 1.375 . S
C144 H162 0.931 . S
C145 N142 1.311 . S
C145 N146 1.347 . S
C145 H156 0.929 . S
N146 C144 1.375 . S
N146 C145 1.347 . S
C147 C150 1.365 . S
C147 N152 1.328 . S
C147 H153 0.929 . S
C148 C149 1.362 . S
C148 C151 1.378 . S
C148 H163 0.929 . S
C149 C148 1.362 . S
C149 C150 1.366 . S
C150 C147 1.365 . S
C150 C149 1.366 . S
C150 H164 0.930 . S
C151 C148 1.378 . S
C151 N152 1.315 . S
C151 H154 0.930 . S
N152 Co132 2.194 . S
N152 C147 1.328 . S
N152 C151 1.315 . S
H153 C147 0.929 . S
H154 C151 0.930 . S
H155 C143 0.929 . S
H156 C145 0.929 . S
O157 Co132 2.351 . S
O157 C160 1.244 . S
O158 Co132 2.155 . S
O158 C160 1.240 . S
O159 Co132 2.096 . S
O159 C140 1.247 . S
C160 O157 1.244 . S
C160 O158 1.240 . S
H161 C135 0.931 . S
H162 C144 0.931 . S
H163 C148 0.929 . S
H164 C150 0.930 . S
Co165 N169 2.140 1_556 S
Co165 N175 2.128 . S
Co165 N185 2.194 . S
Co165 O190 2.351 . S
Co165 O191 2.155 . S
Co165 O192 2.096 . S
C166 N169 1.308 . S
C166 N170 1.328 . S
C166 H171 0.930 . S
C167 C168 1.333 . S
C167 N169 1.320 . S
C167 H172 0.922 1_554 S
C168 C167 1.333 . S
C168 N170 1.350 . S
C168 H194 0.931 . S
N169 Co165 2.140 1_554 S
N169 C166 1.308 . S
N169 C167 1.320 . S
N170 C166 1.328 . S
N170 C168 1.350 . S
H171 C166 0.930 . S
H172 C167 0.922 1_556 S
C173 O174 1.224 . S
C173 O192 1.247 . S
O174 C173 1.224 . S
N175 Co165 2.128 . S
N175 C176 1.355 . S
N175 C178 1.311 . S
C176 N175 1.355 . S
C176 C177 1.363 . S
C176 H188 0.929 . S
C177 C176 1.363 . S
C177 N179 1.375 . S
C177 H195 0.931 . S
C178 N175 1.311 . S
C178 N179 1.347 . S
C178 H189 0.929 . S
N179 C177 1.375 . S
N179 C178 1.347 . S
C180 C183 1.365 . S
C180 N185 1.328 . S
C180 H186 0.929 . S
C181 C182 1.362 . S
C181 C184 1.378 . S
C181 H196 0.929 . S
C182 C181 1.362 . S
C182 C183 1.366 . S
C183 C180 1.365 . S
C183 C182 1.366 . S
C183 H197 0.930 . S
C184 C181 1.378 . S
C184 N185 1.315 . S
C184 H187 0.930 . S
N185 Co165 2.194 . S
N185 C180 1.328 . S
N185 C184 1.315 . S
H186 C180 0.929 . S
H187 C184 0.930 . S
H188 C176 0.929 . S
H189 C178 0.929 . S
O190 Co165 2.351 . S
O190 C193 1.244 . S
O191 Co165 2.155 . S
O191 C193 1.240 . S
O192 Co165 2.096 . S
O192 C173 1.247 . S
C193 O190 1.244 . S
C193 O191 1.240 . S
H194 C168 0.931 . S
H195 C177 0.931 . S
H196 C181 0.929 . S
H197 C183 0.930 . S
Co198 N202 2.148 . S
Co198 N208 2.128 . S
Co198 N218 2.194 . S
Co198 O223 2.351 . S
Co198 O224 2.155 . S
Co198 O225 2.096 . S
C199 N202 1.301 . S
C199 N203 1.328 . S
C199 H204 0.930 . S
C200 C201 1.333 . S
C200 N202 1.317 . S
C200 H205 0.930 . S
C201 C200 1.333 . S
C201 N203 1.350 . S
C201 H227 0.931 . S
N202 Co198 2.148 . S
N202 C199 1.301 . S
N202 C200 1.317 . S
N203 C199 1.328 . S
N203 C201 1.350 . S
H204 C199 0.930 . S
H205 C200 0.930 . S
C206 O207 1.224 . S
C206 O225 1.247 . S
O207 C206 1.224 . S
N208 Co198 2.128 . S
N208 C209 1.355 . S
N208 C211 1.311 . S
C209 N208 1.355 . S
C209 C210 1.363 . S
C209 H221 0.929 . S
C210 C209 1.363 . S
C210 N212 1.375 . S
C210 H228 0.931 . S
C211 N208 1.311 . S
C211 N212 1.347 . S
C211 H222 0.929 . S
N212 C210 1.375 . S
N212 C211 1.347 . S
C213 C216 1.365 . S
C213 N218 1.328 . S
C213 H219 0.929 . S
C214 C215 1.362 . S
C214 C217 1.378 . S
C214 H229 0.929 . S
C215 C214 1.362 . S
C215 C216 1.366 . S
C216 C213 1.365 . S
C216 C215 1.366 . S
C216 H230 0.930 . S
C217 C214 1.378 . S
C217 N218 1.315 . S
C217 H220 0.930 . S
N218 Co198 2.194 . S
N218 C213 1.328 . S
N218 C217 1.315 . S
H219 C213 0.929 . S
H220 C217 0.930 . S
H221 C209 0.929 . S
H222 C211 0.929 . S
O223 Co198 2.351 . S
O223 C226 1.244 . S
O224 Co198 2.155 . S
O224 C226 1.240 . S
O225 Co198 2.096 . S
O225 C206 1.247 . S
C226 O223 1.244 . S
C226 O224 1.240 . S
H227 C201 0.931 . S
H228 C210 0.931 . S
H229 C214 0.929 . S
H230 C216 0.930 . S
Co231 N235 2.148 . S
Co231 N241 2.128 . S
Co231 N251 2.194 . S
Co231 O256 2.351 . S
Co231 O257 2.155 . S
Co231 O258 2.096 . S
C232 N235 1.301 . S
C232 N236 1.328 . S
C232 H237 0.930 . S
C233 C234 1.333 . S
C233 N235 1.317 . S
C233 H238 0.930 . S
C234 C233 1.333 . S
C234 N236 1.350 . S
C234 H260 0.931 . S
N235 Co231 2.148 . S
N235 C232 1.301 . S
N235 C233 1.317 . S
N236 C232 1.328 . S
N236 C234 1.350 . S
H237 C232 0.930 . S
H238 C233 0.930 . S
C239 O240 1.224 . S
C239 O258 1.247 . S
O240 C239 1.224 . S
N241 Co231 2.128 . S
N241 C242 1.355 . S
N241 C244 1.311 . S
C242 N241 1.355 . S
C242 C243 1.363 . S
C242 H254 0.929 . S
C243 C242 1.363 . S
C243 N245 1.375 . S
C243 H261 0.931 . S
C244 N241 1.311 . S
C244 N245 1.347 . S
C244 H255 0.929 . S
N245 C243 1.375 . S
N245 C244 1.347 . S
C246 C249 1.365 . S
C246 N251 1.328 . S
C246 H252 0.929 . S
C247 C248 1.362 . S
C247 C250 1.378 . S
C247 H262 0.929 . S
C248 C247 1.362 . S
C248 C249 1.366 . S
C249 C246 1.365 . S
C249 C248 1.366 . S
C249 H263 0.930 . S
C250 C247 1.378 . S
C250 N251 1.315 . S
C250 H253 0.930 . S
N251 Co231 2.194 . S
N251 C246 1.328 . S
N251 C250 1.315 . S
H252 C246 0.929 . S
H253 C250 0.930 . S
H254 C242 0.929 . S
H255 C244 0.929 . S
O256 Co231 2.351 . S
O256 C259 1.244 . S
O257 Co231 2.155 . S
O257 C259 1.240 . S
O258 Co231 2.096 . S
O258 C239 1.247 . S
C259 O256 1.244 . S
C259 O257 1.240 . S
H260 C234 0.931 . S
H261 C243 0.931 . S
H262 C247 0.929 . S
H263 C249 0.930 . S
H264 C272 0.950 . S
H265 C277 0.949 1_556 S
H266 C274 0.950 . S
H267 C276 0.962 1_545 S
H268 C278 0.939 1_556 S
H269 C280 0.940 1_556 S
H270 C282 0.950 1_565 S
H271 C283 0.950 . S
C272 H264 0.950 . S
C272 C273 1.386 . S
C272 C274 1.391 . S
C273 C272 1.386 . S
C273 C277 1.393 . S
C274 H266 0.950 . S
C274 C272 1.391 . S
C274 C275 1.400 . S
C275 C274 1.400 . S
C275 C276 1.398 . S
C275 C281 1.491 1_565 S
C276 H267 0.962 1_565 S
C276 C275 1.398 . S
C276 C277 1.391 . S
C277 H265 0.949 1_554 S
C277 C273 1.393 . S
C277 C276 1.391 . S
C278 H268 0.939 1_554 S
C278 C279 1.386 . S
C278 C280 1.391 . S
C279 C278 1.386 . S
C279 C283 1.393 . S
C280 H269 0.940 1_554 S
C280 C278 1.391 . S
C280 C281 1.400 . S
C281 C275 1.491 1_545 S
C281 C280 1.400 . S
C281 C282 1.398 . S
C282 H270 0.950 1_545 S
C282 C281 1.398 . S
C282 C283 1.391 . S
C283 H271 0.950 . S
C283 C279 1.393 . S
C283 C282 1.391 . S
H284 C292 0.950 . S
H285 C297 0.950 . S
H286 C294 0.950 . S
H287 C296 0.950 . S
H288 C298 0.950 . S
H289 C300 0.950 . S
H290 C302 0.950 . S
H291 C303 0.950 . S
C292 H284 0.950 . S
C292 C293 1.386 . S
C292 C294 1.391 . S
C293 C292 1.386 . S
C293 C297 1.393 . S
C294 H286 0.950 . S
C294 C292 1.391 . S
C294 C295 1.400 . S
C295 C294 1.400 . S
C295 C296 1.398 . S
C295 C301 1.491 . S
C296 H287 0.950 . S
C296 C295 1.398 . S
C296 C297 1.391 . S
C297 H285 0.950 . S
C297 C293 1.393 . S
C297 C296 1.391 . S
C298 H288 0.950 . S
C298 C299 1.386 . S
C298 C300 1.391 . S
C299 C298 1.386 . S
C299 C303 1.393 . S
C300 H289 0.950 . S
C300 C298 1.391 . S
C300 C301 1.400 . S
C301 C295 1.491 . S
C301 C300 1.400 . S
C301 C302 1.398 . S
C302 H290 0.950 . S
C302 C301 1.398 . S
C302 C303 1.391 . S
C303 H291 0.950 . S
C303 C299 1.393 . S
C303 C302 1.391 . S
H304 C312 0.950 . S
H305 C317 0.950 . S
H306 C314 0.950 . S
H307 C316 0.950 1_565 S
H308 C318 0.950 . S
H309 C320 0.950 . S
H310 C322 0.950 1_545 S
H311 C323 0.950 . S
C312 H304 0.950 . S
C312 C313 1.386 . S
C312 C314 1.391 . S
C313 C312 1.386 . S
C313 C317 1.393 . S
C314 H306 0.950 . S
C314 C312 1.391 . S
C314 C315 1.400 . S
C315 C314 1.400 . S
C315 C316 1.398 . S
C315 C321 1.491 1_545 S
C316 H307 0.950 1_545 S
C316 C315 1.398 . S
C316 C317 1.391 . S
C317 H305 0.950 . S
C317 C313 1.393 . S
C317 C316 1.391 . S
C318 H308 0.950 . S
C318 C319 1.386 . S
C318 C320 1.391 . S
C319 C318 1.386 . S
C319 C323 1.393 . S
C320 H309 0.950 . S
C320 C318 1.391 . S
C320 C321 1.400 . S
C321 C315 1.491 1_565 S
C321 C320 1.400 . S
C321 C322 1.398 . S
C322 H310 0.950 1_565 S
C322 C321 1.398 . S
C322 C323 1.391 . S
C323 H311 0.950 . S
C323 C319 1.393 . S
C323 C322 1.391 . S
H324 C332 0.950 . S
H325 C337 0.950 . S
H326 C334 0.950 . S
H327 C336 0.950 . S
H328 C338 0.950 . S
H329 C340 0.950 . S
H330 C342 0.950 . S
H331 C343 0.950 . S
C332 H324 0.950 . S
C332 C333 1.386 . S
C332 C334 1.391 . S
C333 C332 1.386 . S
C333 C337 1.393 . S
C334 H326 0.950 . S
C334 C332 1.391 . S
C334 C335 1.400 . S
C335 C334 1.400 . S
C335 C336 1.398 . S
C335 C341 1.491 . S
C336 H327 0.950 . S
C336 C335 1.398 . S
C336 C337 1.391 . S
C337 H325 0.950 . S
C337 C333 1.393 . S
C337 C336 1.391 . S
C338 H328 0.950 . S
C338 C339 1.386 . S
C338 C340 1.391 . S
C339 C338 1.386 . S
C339 C343 1.393 . S
C340 H329 0.950 . S
C340 C338 1.391 . S
C340 C341 1.400 . S
C341 C335 1.491 . S
C341 C340 1.400 . S
C341 C342 1.398 . S
C342 H330 0.950 . S
C342 C341 1.398 . S
C342 C343 1.391 . S
C343 H331 0.950 . S
C343 C339 1.393 . S
C343 C342 1.391 . S
H344 C352 0.950 . S
H345 C357 0.950 . S
H346 C354 0.950 1_454 S
H347 C356 0.950 . S
H348 C358 0.950 . S
H349 C360 0.950 1_656 S
H350 C362 0.950 . S
H351 C363 0.950 . S
C352 H344 0.950 . S
C352 C353 1.386 . S
C352 C354 1.391 . S
C353 C352 1.386 . S
C353 C357 1.393 . S
C354 H346 0.950 1_656 S
C354 C352 1.391 . S
C354 C355 1.400 . S
C355 C354 1.400 . S
C355 C356 1.398 1_565 S
C355 C361 1.491 1_666 S
C356 H347 0.950 . S
C356 C355 1.398 1_545 S
C356 C357 1.391 1_545 S
C357 H345 0.950 . S
C357 C353 1.393 . S
C357 C356 1.391 1_565 S
C358 H348 0.950 . S
C358 C359 1.386 . S
C358 C360 1.391 . S
C359 C358 1.386 . S
C359 C363 1.393 . S
C360 H349 0.950 1_454 S
C360 C358 1.391 . S
C360 C361 1.400 . S
C361 C355 1.491 1_444 S
C361 C360 1.400 . S
C361 C362 1.398 1_545 S
C362 H350 0.950 . S
C362 C361 1.398 1_565 S
C362 C363 1.391 1_565 S
C363 H351 0.950 . S
C363 C359 1.393 . S
C363 C362 1.391 1_545 S
H364 C372 0.950 1_556 S
H365 C377 0.950 . S
H366 C374 0.950 . S
H367 C376 0.950 . S
H368 C378 0.950 1_554 S
H369 C380 0.950 . S
H370 C382 0.950 . S
H371 C383 0.950 . S
C372 H364 0.950 1_554 S
C372 C373 1.386 . S
C372 C374 1.391 1_554 S
C373 C372 1.386 . S
C373 C377 1.393 . S
C374 H366 0.950 . S
C374 C372 1.391 1_556 S
C374 C375 1.400 1_556 S
C375 C374 1.400 1_554 S
C375 C376 1.398 1_565 S
C375 C381 1.491 1_564 S
C376 H367 0.950 . S
C376 C375 1.398 1_545 S
C376 C377 1.391 1_545 S
C377 H365 0.950 . S
C377 C373 1.393 . S
C377 C376 1.391 1_565 S
C378 H368 0.950 1_556 S
C378 C379 1.386 . S
C378 C380 1.391 1_556 S
C379 C378 1.386 . S
C379 C383 1.393 . S
C380 H369 0.950 . S
C380 C378 1.391 1_554 S
C380 C381 1.400 1_554 S
C381 C375 1.491 1_546 S
C381 C380 1.400 1_556 S
C381 C382 1.398 1_545 S
C382 H370 0.950 . S
C382 C381 1.398 1_565 S
C382 C383 1.391 1_565 S
C383 H371 0.950 . S
C383 C379 1.393 . S
C383 C382 1.391 1_545 S
H384 C392 0.950 . S
H385 C397 0.950 . S
H386 C394 0.950 . S
H387 C396 0.950 . S
H388 C398 0.950 . S
H389 C400 0.950 . S
H390 C402 0.950 . S
H391 C403 0.950 . S
C392 H384 0.950 . S
C392 C393 1.386 . S
C392 C394 1.391 . S
C393 C392 1.386 . S
C393 C397 1.393 . S
C394 H386 0.950 . S
C394 C392 1.391 . S
C394 C395 1.400 . S
C395 C394 1.400 . S
C395 C396 1.398 . S
C395 C401 1.491 1_455 S
C396 H387 0.950 . S
C396 C395 1.398 . S
C396 C397 1.391 . S
C397 H385 0.950 . S
C397 C393 1.393 . S
C397 C396 1.391 . S
C398 H388 0.950 . S
C398 C399 1.386 . S
C398 C400 1.391 . S
C399 C398 1.386 . S
C399 C403 1.393 . S
C400 H389 0.950 . S
C400 C398 1.391 . S
C400 C401 1.400 . S
C401 C395 1.491 1_655 S
C401 C400 1.400 . S
C401 C402 1.398 . S
C402 H390 0.950 . S
C402 C401 1.398 . S
C402 C403 1.391 . S
C403 H391 0.950 . S
C403 C399 1.393 . S
C403 C402 1.391 . S
H404 C412 0.950 . S
H405 C417 0.950 . S
H406 C414 0.950 . S
H407 C416 0.950 . S
H408 C418 0.950 . S
H409 C420 0.950 . S
H410 C422 0.950 . S
H411 C423 0.950 . S
C412 H404 0.950 . S
C412 C413 1.386 . S
C412 C414 1.391 . S
C413 C412 1.386 . S
C413 C417 1.393 . S
C414 H406 0.950 . S
C414 C412 1.391 . S
C414 C415 1.400 . S
C415 C414 1.400 . S
C415 C416 1.398 . S
C415 C421 1.491 . S
C416 H407 0.950 . S
C416 C415 1.398 . S
C416 C417 1.391 . S
C417 H405 0.950 . S
C417 C413 1.393 . S
C417 C416 1.391 . S
C418 H408 0.950 . S
C418 C419 1.386 . S
C418 C420 1.391 . S
C419 C418 1.386 . S
C419 C423 1.393 . S
C420 H409 0.950 . S
C420 C418 1.391 . S
C420 C421 1.400 . S
C421 C415 1.491 . S
C421 C420 1.400 . S
C421 C422 1.398 . S
C422 H410 0.950 . S
C422 C421 1.398 . S
C422 C423 1.391 . S
C423 H411 0.950 . S
C423 C419 1.393 . S
C423 C422 1.391 . S
H424 C432 0.950 . S
H425 C437 0.950 . S
H426 C434 0.950 . S
H427 C436 0.950 . S
H428 C438 0.950 . S
H429 C440 0.950 . S
H430 C442 0.950 . S
H431 C443 0.950 . S
C432 H424 0.950 . S
C432 C433 1.386 . S
C432 C434 1.391 . S
C433 C432 1.386 . S
C433 C437 1.393 . S
C434 H426 0.950 . S
C434 C432 1.391 . S
C434 C435 1.400 . S
C435 C434 1.400 . S
C435 C436 1.398 . S
C435 C441 1.491 . S
C436 H427 0.950 . S
C436 C435 1.398 . S
C436 C437 1.391 . S
C437 H425 0.950 . S
C437 C433 1.393 . S
C437 C436 1.391 . S
C438 H428 0.950 . S
C438 C439 1.386 . S
C438 C440 1.391 . S
C439 C438 1.386 . S
C439 C443 1.393 . S
C440 H429 0.950 . S
C440 C438 1.391 . S
C440 C441 1.400 . S
C441 C435 1.491 . S
C441 C440 1.400 . S
C441 C442 1.398 . S
C442 H430 0.950 . S
C442 C441 1.398 . S
C442 C443 1.391 . S
C443 H431 0.950 . S
C443 C439 1.393 . S
C443 C442 1.391 . S
H444 C452 0.950 . S
H445 C457 0.950 . S
H446 C454 0.950 . S
H447 C456 0.950 . S
H448 C458 0.950 . S
H449 C460 0.950 . S
H450 C462 0.950 . S
H451 C463 0.950 . S
C452 H444 0.950 . S
C452 C453 1.386 . S
C452 C454 1.391 . S
C453 C452 1.386 . S
C453 C457 1.393 . S
C454 H446 0.950 . S
C454 C452 1.391 . S
C454 C455 1.400 . S
C455 C454 1.400 . S
C455 C456 1.398 . S
C455 C461 1.491 . S
C456 H447 0.950 . S
C456 C455 1.398 . S
C456 C457 1.391 . S
C457 H445 0.950 . S
C457 C453 1.393 . S
C457 C456 1.391 . S
C458 H448 0.950 . S
C458 C459 1.386 . S
C458 C460 1.391 . S
C459 C458 1.386 . S
C459 C463 1.393 . S
C460 H449 0.950 . S
C460 C458 1.391 . S
C460 C461 1.400 . S
C461 C455 1.491 . S
C461 C460 1.400 . S
C461 C462 1.398 . S
C462 H450 0.950 . S
C462 C461 1.398 . S
C462 C463 1.391 . S
C463 H451 0.950 . S
C463 C459 1.393 . S
C463 C462 1.391 . S
H464 C472 0.950 . S
H465 C477 0.950 . S
H466 C474 0.950 . S
H467 C476 0.950 . S
H468 C478 0.950 . S
H469 C480 0.950 . S
H470 C482 0.950 . S
H471 C483 0.950 . S
C472 H464 0.950 . S
C472 C473 1.386 . S
C472 C474 1.391 . S
C473 C472 1.386 . S
C473 C477 1.393 . S
C474 H466 0.950 . S
C474 C472 1.391 . S
C474 C475 1.400 . S
C475 C474 1.400 . S
C475 C476 1.398 . S
C475 C481 1.491 . S
C476 H467 0.950 . S
C476 C475 1.398 . S
C476 C477 1.391 . S
C477 H465 0.950 . S
C477 C473 1.393 . S
C477 C476 1.391 . S
C478 H468 0.950 . S
C478 C479 1.386 . S
C478 C480 1.391 1_554 S
C479 C478 1.386 . S
C479 C483 1.393 . S
C480 H469 0.950 . S
C480 C478 1.391 1_556 S
C480 C481 1.400 . S
C481 C475 1.491 . S
C481 C480 1.400 . S
C481 C482 1.398 . S
C482 H470 0.950 . S
C482 C481 1.398 . S
C482 C483 1.391 1_556 S
C483 H471 0.950 . S
C483 C479 1.393 . S
C483 C482 1.391 1_554 S
H484 C492 0.950 . S
H485 C497 0.950 . S
H486 C494 0.950 . S
H487 C496 0.950 . S
H488 C498 0.950 . S
H489 C500 0.950 . S
H490 C502 0.950 . S
H491 C503 0.950 . S
C492 H484 0.950 . S
C492 C493 1.386 . S
C492 C494 1.391 1_554 S
C493 C492 1.386 . S
C493 C497 1.393 . S
C494 H486 0.950 . S
C494 C492 1.391 1_556 S
C494 C495 1.400 . S
C495 C494 1.400 . S
C495 C496 1.398 . S
C495 C501 1.491 . S
C496 H487 0.950 . S
C496 C495 1.398 . S
C496 C497 1.391 1_556 S
C497 H485 0.950 . S
C497 C493 1.393 . S
C497 C496 1.391 1_554 S
C498 H488 0.950 . S
C498 C499 1.386 . S
C498 C500 1.391 . S
C499 C498 1.386 . S
C499 C503 1.393 . S
C500 H489 0.950 . S
C500 C498 1.391 . S
C500 C501 1.400 . S
C501 C495 1.491 . S
C501 C500 1.400 . S
C501 C502 1.398 . S
C502 H490 0.950 . S
C502 C501 1.398 . S
C502 C503 1.391 . S
C503 H491 0.950 . S
C503 C499 1.393 . S
C503 C502 1.391 . S
H504 C512 0.950 . S
H505 C517 0.950 . S
H506 C514 0.950 . S
H507 C516 0.950 . S
H508 C518 0.950 . S
H509 C520 0.950 . S
H510 C522 0.950 . S
H511 C523 0.950 . S
C512 H504 0.950 . S
C512 C513 1.386 . S
C512 C514 1.391 . S
C513 C512 1.386 . S
C513 C517 1.393 . S
C514 H506 0.950 . S
C514 C512 1.391 . S
C514 C515 1.400 . S
C515 C514 1.400 . S
C515 C516 1.398 . S
C515 C521 1.491 . S
C516 H507 0.950 . S
C516 C515 1.398 . S
C516 C517 1.391 . S
C517 H505 0.950 . S
C517 C513 1.393 . S
C517 C516 1.391 . S
C518 H508 0.950 . S
C518 C519 1.386 . S
C518 C520 1.391 . S
C519 C518 1.386 . S
C519 C523 1.393 . S
C520 H509 0.950 . S
C520 C518 1.391 . S
C520 C521 1.400 . S
C521 C515 1.491 . S
C521 C520 1.400 . S
C521 C522 1.398 . S
C522 H510 0.950 . S
C522 C521 1.398 . S
C522 C523 1.391 . S
C523 H511 0.950 . S
C523 C519 1.393 . S
C523 C522 1.391 . S
H524 C532 0.950 . S
H525 C537 0.950 . S
H526 C534 0.950 . S
H527 C536 0.950 . S
H528 C538 0.950 . S
H529 C540 0.950 . S
H530 C542 0.950 . S
H531 C543 0.950 . S
C532 H524 0.950 . S
C532 C533 1.386 . S
C532 C534 1.391 . S
C533 C532 1.386 . S
C533 C537 1.393 . S
C534 H526 0.950 . S
C534 C532 1.391 . S
C534 C535 1.400 . S
C535 C534 1.400 . S
C535 C536 1.398 . S
C535 C541 1.491 . S
C536 H527 0.950 . S
C536 C535 1.398 . S
C536 C537 1.391 . S
C537 H525 0.950 . S
C537 C533 1.393 . S
C537 C536 1.391 . S
C538 H528 0.950 . S
C538 C539 1.386 . S
C538 C540 1.391 . S
C539 C538 1.386 . S
C539 C543 1.393 . S
C540 H529 0.950 . S
C540 C538 1.391 . S
C540 C541 1.400 . S
C541 C535 1.491 . S
C541 C540 1.400 . S
C541 C542 1.398 . S
C542 H530 0.950 . S
C542 C541 1.398 . S
C542 C543 1.391 . S
C543 H531 0.950 . S
C543 C539 1.393 . S
C543 C542 1.391 . S
H544 C552 0.950 . S
H545 C557 0.950 . S
H546 C554 0.950 . S
H547 C556 0.950 . S
H548 C558 0.950 . S
H549 C560 0.950 . S
H550 C562 0.950 . S
H551 C563 0.950 . S
C552 H544 0.950 . S
C552 C553 1.386 . S
C552 C554 1.391 . S
C553 C552 1.386 . S
C553 C557 1.393 . S
C554 H546 0.950 . S
C554 C552 1.391 . S
C554 C555 1.400 . S
C555 C554 1.400 . S
C555 C556 1.398 . S
C555 C561 1.491 . S
C556 H547 0.950 . S
C556 C555 1.398 . S
C556 C557 1.391 . S
C557 H545 0.950 . S
C557 C553 1.393 . S
C557 C556 1.391 . S
C558 H548 0.950 . S
C558 C559 1.386 . S
C558 C560 1.391 1_556 S
C559 C558 1.386 . S
C559 C563 1.393 . S
C560 H549 0.950 . S
C560 C558 1.391 1_554 S
C560 C561 1.400 . S
C561 C555 1.491 . S
C561 C560 1.400 . S
C561 C562 1.398 . S
C562 H550 0.950 . S
C562 C561 1.398 . S
C562 C563 1.391 1_554 S
C563 H551 0.950 . S
C563 C559 1.393 . S
C563 C562 1.391 1_556 S
H564 C572 0.950 . S
H565 C577 0.950 . S
H566 C574 0.950 . S
H567 C576 0.950 . S
H568 C578 0.950 . S
H569 C580 0.950 . S
H570 C582 0.950 . S
H571 C583 0.950 . S
C572 H564 0.950 . S
C572 C573 1.386 . S
C572 C574 1.391 . S
C573 C572 1.386 . S
C573 C577 1.393 . S
C574 H566 0.950 . S
C574 C572 1.391 . S
C574 C575 1.400 . S
C575 C574 1.400 . S
C575 C576 1.398 . S
C575 C581 1.491 . S
C576 H567 0.950 . S
C576 C575 1.398 . S
C576 C577 1.391 . S
C577 H565 0.950 . S
C577 C573 1.393 . S
C577 C576 1.391 . S
C578 H568 0.950 . S
C578 C579 1.386 . S
C578 C580 1.391 1_556 S
C579 C578 1.386 . S
C579 C583 1.393 . S
C580 H569 0.950 . S
C580 C578 1.391 1_554 S
C580 C581 1.400 . S
C581 C575 1.491 . S
C581 C580 1.400 . S
C581 C582 1.398 . S
C582 H570 0.950 . S
C582 C581 1.398 . S
C582 C583 1.391 1_554 S
C583 H571 0.950 . S
C583 C579 1.393 . S
C583 C582 1.391 1_556 S
H584 C592 0.950 . S
H585 C597 0.950 . S
H586 C594 0.950 . S
H587 C596 0.950 . S
H588 C598 0.950 . S
H589 C600 0.950 . S
H590 C602 0.950 . S
H591 C603 0.950 . S
C592 H584 0.950 . S
C592 C593 1.386 . S
C592 C594 1.391 . S
C593 C592 1.386 . S
C593 C597 1.393 . S
C594 H586 0.950 . S
C594 C592 1.391 . S
C594 C595 1.400 . S
C595 C594 1.400 . S
C595 C596 1.398 . S
C595 C601 1.491 . S
C596 H587 0.950 . S
C596 C595 1.398 . S
C596 C597 1.391 . S
C597 H585 0.950 . S
C597 C593 1.393 . S
C597 C596 1.391 . S
C598 H588 0.950 . S
C598 C599 1.386 . S
C598 C600 1.391 . S
C599 C598 1.386 . S
C599 C603 1.393 . S
C600 H589 0.950 . S
C600 C598 1.391 . S
C600 C601 1.400 . S
C601 C595 1.491 . S
C601 C600 1.400 . S
C601 C602 1.398 . S
C602 H590 0.950 . S
C602 C601 1.398 . S
C602 C603 1.391 . S
C603 H591 0.950 . S
C603 C599 1.393 . S
C603 C602 1.391 . S
H604 C612 0.950 . S
H605 C617 0.950 . S
H606 C614 0.950 . S
H607 C616 0.950 . S
H608 C618 0.950 . S
H609 C620 0.950 . S
H610 C622 0.950 . S
H611 C623 0.950 . S
C612 H604 0.950 . S
C612 C613 1.386 . S
C612 C614 1.391 . S
C613 C612 1.386 . S
C613 C617 1.393 . S
C614 H606 0.950 . S
C614 C612 1.391 . S
C614 C615 1.400 . S
C615 C614 1.400 . S
C615 C616 1.398 . S
C615 C621 1.491 . S
C616 H607 0.950 . S
C616 C615 1.398 . S
C616 C617 1.391 . S
C617 H605 0.950 . S
C617 C613 1.393 . S
C617 C616 1.391 . S
C618 H608 0.950 . S
C618 C619 1.386 . S
C618 C620 1.391 . S
C619 C618 1.386 . S
C619 C623 1.393 . S
C620 H609 0.950 . S
C620 C618 1.391 . S
C620 C621 1.400 . S
C621 C615 1.491 . S
C621 C620 1.400 . S
C621 C622 1.398 . S
C622 H610 0.950 . S
C622 C621 1.398 . S
C622 C623 1.391 . S
C623 H611 0.950 . S
C623 C619 1.393 . S
C623 C622 1.391 . S
H624 C632 0.950 . S
H625 C637 0.950 . S
H626 C634 0.950 . S
H627 C636 0.950 . S
H628 C638 0.950 . S
H629 C640 0.950 . S
H630 C642 0.950 . S
H631 C643 0.950 . S
C632 H624 0.950 . S
C632 C633 1.386 . S
C632 C634 1.391 . S
C633 C632 1.386 . S
C633 C637 1.393 . S
C634 H626 0.950 . S
C634 C632 1.391 . S
C634 C635 1.400 . S
C635 C634 1.400 . S
C635 C636 1.398 . S
C635 C641 1.491 . S
C636 H627 0.950 . S
C636 C635 1.398 . S
C636 C637 1.391 . S
C637 H625 0.950 . S
C637 C633 1.393 . S
C637 C636 1.391 . S
C638 H628 0.950 . S
C638 C639 1.386 . S
C638 C640 1.391 . S
C639 C638 1.386 . S
C639 C643 1.393 . S
C640 H629 0.950 . S
C640 C638 1.391 . S
C640 C641 1.400 . S
C641 C635 1.491 . S
C641 C640 1.400 . S
C641 C642 1.398 . S
C642 H630 0.950 . S
C642 C641 1.398 . S
C642 C643 1.391 . S
C643 H631 0.950 . S
C643 C639 1.393 . S
C643 C642 1.391 . S
H644 C652 0.950 . S
H645 C657 0.950 . S
H646 C654 0.950 . S
H647 C656 0.950 . S
H648 C658 0.950 . S
H649 C660 0.950 . S
H650 C662 0.950 . S
H651 C663 0.950 . S
C652 H644 0.950 . S
C652 C653 1.386 . S
C652 C654 1.391 . S
C653 C652 1.386 . S
C653 C657 1.393 . S
C654 H646 0.950 . S
C654 C652 1.391 . S
C654 C655 1.400 . S
C655 C654 1.400 . S
C655 C656 1.398 . S
C655 C661 1.491 . S
C656 H647 0.950 . S
C656 C655 1.398 . S
C656 C657 1.391 . S
C657 H645 0.950 . S
C657 C653 1.393 . S
C657 C656 1.391 . S
C658 H648 0.950 . S
C658 C659 1.386 . S
C658 C660 1.391 . S
C659 C658 1.386 . S
C659 C663 1.393 . S
C660 H649 0.950 . S
C660 C658 1.391 . S
C660 C661 1.400 . S
C661 C655 1.491 . S
C661 C660 1.400 . S
C661 C662 1.398 . S
C662 H650 0.950 . S
C662 C661 1.398 . S
C662 C663 1.391 . S
C663 H651 0.950 . S
C663 C659 1.393 . S
C663 C662 1.391 . S
C273 C50 1.513 . S
C279 C17 1.512 . S
C293 C83 1.513 . S
C299 C116 1.510 . S
C313 C182 1.508 . S
C319 C149 1.511 . S
C333 C215 1.508 . S
C339 C248 1.510 . S
C353 C160 1.527 . S
C359 C28 1.527 . S
C373 C61 1.526 . S
C379 C193 1.526 . S
C393 C94 1.526 . S
C399 C226 1.526 . S
C413 C127 1.526 . S
C419 C259 1.526 . S
C433 N5 1.350 . S
C439 N14 1.344 . S
C453 N47 1.352 . S
C459 N38 1.356 . S
C473 N71 1.350 . S
C479 N80 1.344 . S
C493 N113 1.358 . S
C499 N104 1.362 . S
C513 N137 1.365 . S
C519 N146 1.361 . S
C533 N179 1.360 . S
C539 N170 1.363 . S
C553 N203 1.364 . S
C559 N212 1.359 . S
C573 N236 1.351 . S
C579 N245 1.346 . S
C593 C8 1.525 . S
C599 C74 1.527 . S
C613 C41 1.525 . S
C619 C107 1.527 . S
C633 C140 1.528 . S
C639 C206 1.532 . S
C653 C173 1.533 . S
C659 C239 1.533 . S
