# Generated by pormake.
# Topology sxb, (6)-cn, num edge types: 1
# Building blocks:
#     Node 0, Type 0, BuildingBlock: PAMTUU_clean_sbu_0, # of connection points: 6
#     Node 1, Type 0, BuildingBlock: PAMTUU_clean_sbu_0, # of connection points: 6
#     Node 2, Type 0, BuildingBlock: PAMTUU_clean_sbu_0, # of connection points: 6
#     Node 3, Type 0, BuildingBlock: PAMTUU_clean_sbu_0, # of connection points: 6
#     Edge 4, Type (0, 0), BuildingBlock: ZUJKAS_clean_linker_0, # of connection points: 2
#     Edge 5, Type (0, 0), BuildingBlock: ZUJKAS_clean_linker_0, # of connection points: 2
#     Edge 6, Type (0, 0), BuildingBlock: ZUJKAS_clean_linker_0, # of connection points: 2
#     Edge 7, Type (0, 0), BuildingBlock: ZUJKAS_clean_linker_0, # of connection points: 2
#     Edge 8, Type (0, 0), BuildingBlock: ZUJKAS_clean_linker_0, # of connection points: 2
#     Edge 9, Type (0, 0), BuildingBlock: ZUJKAS_clean_linker_0, # of connection points: 2
#     Edge 10, Type (0, 0), BuildingBlock: ZUJKAS_clean_linker_0, # of connection points: 2
#     Edge 11, Type (0, 0), BuildingBlock: ZUJKAS_clean_linker_0, # of connection points: 2
#     Edge 12, Type (0, 0), BuildingBlock: ZUJKAS_clean_linker_0, # of connection points: 2
#     Edge 13, Type (0, 0), BuildingBlock: ZUJKAS_clean_linker_0, # of connection points: 2
#     Edge 14, Type (0, 0), BuildingBlock: ZUJKAS_clean_linker_0, # of connection points: 2
#     Edge 15, Type (0, 0), BuildingBlock: ZUJKAS_clean_linker_0, # of connection points: 2
# Relax obj value: 0.073
# Max RMSD: 0.146
# Mean RMSD: 0.146
data_MOF--net-sxb--node1-PAMTUU_clean_sbu_0--edge1-ZUJKAS_clean_linker_0
_symmetry_space_group_name_H-M    P1
_symmetry_Int_Tables_number       1
_symmetry_cell_setting            triclinic
loop_
_symmetry_equiv_pos_as_xyz
'x, y, z'
_cell_length_a     29.00455
_cell_length_b     25.87324
_cell_length_c     39.079752
_cell_angle_alpha  90.013568
_cell_angle_beta   99.003861
_cell_angle_gamma 90.063978
loop_
_atom_site_label
_atom_site_type_symbol
_atom_site_fract_x
_atom_site_fract_y
_atom_site_fract_z
_atom_type_partial_charge
Tb0 Tb 0.06937 0.01439 0.00267 0.0
Tb1 Tb 0.98198 0.92894 0.99233 0.0
C2 C 0.02422 0.97488 0.06358 0.0
C3 C 0.19051 0.0576 0.00563 0.0
C4 C 0.28363 0.0328 -0.00148 0.0
C5 C 0.2731 0.07935 0.0144 0.0
C6 C 0.22701 0.09157 0.01791 0.0
C7 C 0.20064 0.01123 0.98968 0.0
C8 C 0.24666 -0.00102 0.9861 0.0
C9 C 0.14233 0.06934 0.01082 0.0
O10 O 0.09715 0.93856 0.01708 0.0
O11 O 0.04343 0.88458 0.98566 0.0
O12 O 0.98685 0.96052 0.94158 0.0
O13 O 0.06483 0.98118 0.95139 0.0
O14 O 0.93461 0.8874 0.01735 0.0
O15 O 0.93313 0.88032 0.96233 0.0
O16 O 0.95068 0.00379 -0.0029 0.0
O17 O 1.00787 0.0612 0.98605 0.0
O18 O 0.03549 0.01709 0.04828 0.0
O19 O 1.01567 0.93178 0.04603 0.0
C20 C 0.086 0.89449 0.00134 0.0
O21 O 0.11098 0.07023 0.98296 0.0
O22 O 0.12763 0.04371 0.03573 0.0
C23 C 0.0261 0.97113 0.93027 0.0
C24 C 0.86058 0.87996 0.98353 0.0
C25 C 0.7644 0.90295 0.98004 0.0
C26 C 0.79293 0.93278 0.96156 0.0
C27 C 0.84051 0.92153 0.9634 0.0
C28 C 0.83224 0.84964 0.00152 0.0
C29 C 0.78474 0.86097 -0.00015 0.0
C30 C 0.91141 0.87029 0.98838 0.0
C31 C 0.96437 0.05004 0.98901 0.0
H32 H 0.30058 0.10597 0.0248 0.0
H33 H 0.21995 0.12728 0.0306 0.0
H34 H 0.17293 0.98432 0.98015 0.0
H35 H 0.25315 0.96314 0.97336 0.0
H36 H 0.77857 0.96497 0.94568 0.0
H37 H 0.86174 0.94581 0.94948 0.0
H38 H 0.84712 0.81781 0.01758 0.0
H39 H 0.76433 0.83761 0.01494 0.0
Tb40 Tb 0.97872 0.02164 0.49348 0.0
Tb41 Tb 0.06559 0.93583 0.49846 0.0
C42 C 1.01183 0.97482 0.42915 0.0
C43 C 0.85863 0.06693 0.49326 0.0
C44 C 0.7651 0.04421 0.50031 0.0
C45 C 0.77979 0.09571 0.49698 0.0
C46 C 0.82613 0.10691 0.49345 0.0
C47 C 0.84436 0.0157 0.49712 0.0
C48 C 0.79818 0.0044 0.50054 0.0
C49 C 0.90684 0.07811 0.4878 0.0
O50 O 0.94789 0.94535 0.48699 0.0
O51 O 1.00741 0.89086 0.51104 0.0
O52 O 0.06878 0.97111 0.54926 0.0
O53 O 0.99135 -0.00734 0.54595 0.0
O54 O 0.11186 0.89643 0.47137 0.0
O55 O 0.11572 0.8866 0.52639 0.0
O56 O 0.0936 0.01038 0.48711 0.0
O57 O 0.04171 0.06794 0.50535 0.0
O58 O 1.00453 0.01842 0.44445 0.0
O59 O 0.02319 0.93295 0.44744 0.0
C60 C 0.96305 0.90141 0.50128 0.0
O61 O 0.93875 0.07712 0.51531 0.0
O62 O 0.92039 0.05341 0.46207 0.0
C63 C 0.03239 0.98273 0.56399 0.0
C64 C 0.18659 0.88935 0.50387 0.0
C65 C 0.28238 0.9125 0.50698 0.0
C66 C 0.26615 0.8613 0.50205 0.0
C67 C 0.21859 0.8499 0.50034 0.0
C68 C 0.20277 0.94023 0.50967 0.0
C69 C 0.25014 0.95175 0.51106 0.0
C70 C 0.13622 0.87809 0.49955 0.0
C71 C 0.08269 0.05685 0.49677 0.0
H72 H 0.75552 0.12743 0.49719 0.0
H73 H 0.83646 0.14672 0.49055 0.0
H74 H 0.86875 0.98424 0.49683 0.0
H75 H 0.78823 0.96428 0.50249 0.0
H76 H 0.29001 0.83027 0.49855 0.0
H77 H 0.20671 0.81043 0.49569 0.0
H78 H 0.17864 0.97116 0.51268 0.0
H79 H 0.26154 -0.00856 0.51536 0.0
Tb80 Tb 0.57567 0.52551 -0.00152 0.0
Tb81 Tb 0.48867 0.4403 0.98736 0.0
C82 C 0.5262 0.49046 0.05912 0.0
C83 C 0.69706 0.56934 0.00269 0.0
C84 C 0.79088 0.54503 -0.0022 0.0
C85 C 0.77943 0.59203 0.01264 0.0
C86 C 0.73296 0.60398 0.01511 0.0
C87 C 0.70812 0.52266 0.98757 0.0
C88 C 0.75453 0.51059 0.98515 0.0
C89 C 0.64855 0.58063 0.00711 0.0
O90 O 0.60189 0.44959 0.01452 0.0
O91 O 0.55036 0.39663 0.98051 0.0
O92 O 0.49422 0.47444 0.93736 0.0
O93 O 0.57241 0.49181 0.94718 0.0
O94 O 0.44608 0.38857 0.00981 0.0
O95 O 0.43427 0.40215 0.95495 0.0
O96 O 0.45766 0.51453 0.99372 0.0
O97 O 0.51394 0.57203 0.98123 0.0
O98 O 0.54086 0.53093 0.04364 0.0
O99 O 0.51649 0.4468 0.04233 0.0
C100 C 0.59219 0.40615 -0.00237 0.0
O101 O 0.6178 0.58096 0.97891 0.0
O102 O 0.63346 0.55507 0.03187 0.0
C103 C 0.53347 0.48388 0.92577 0.0
C104 C 0.36789 0.39395 0.98231 0.0
C105 C 0.27283 0.41749 0.98343 0.0
C106 C 0.28576 0.37056 0.96927 0.0
C107 C 0.33284 0.35898 0.96867 0.0
C108 C 0.35521 0.44072 -0.00347 0.0
C109 C 0.30826 0.45239 -0.00293 0.0
C110 C 0.4174 0.38233 0.98097 0.0
C111 C 0.47062 0.56036 0.98444 0.0
H112 H 0.80647 0.61914 0.02308 0.0
H113 H 0.72513 0.63998 0.02714 0.0
H114 H 0.68083 0.49534 0.97788 0.0
H115 H 0.76187 0.47438 0.97319 0.0
H116 H 0.25945 0.34306 0.95813 0.0
H117 H 0.34186 0.32285 0.95738 0.0
H118 H 0.38164 0.46827 0.00732 0.0
H119 H 0.2998 0.48854 0.00861 0.0
Tb120 Tb 0.45173 0.56359 0.48599 0.0
Tb121 Tb 0.53869 0.48015 0.49047 0.0
C122 C 0.48397 0.5162 0.42057 0.0
C123 C 0.33361 0.61243 0.49004 0.0
C124 C 0.24069 0.59164 0.49925 0.0
C125 C 0.25304 0.64016 0.48703 0.0
C126 C 0.2991 0.65036 0.48237 0.0
C127 C 0.32176 0.56443 0.50297 0.0
C128 C 0.27577 0.55409 0.50748 0.0
C129 C 0.38119 0.62173 0.48273 0.0
O130 O 0.42036 0.48779 0.47757 0.0
O131 O 0.48016 0.43323 0.50073 0.0
O132 O 0.5415 0.51858 0.54024 0.0
O133 O 0.4632 0.52977 0.53749 0.0
O134 O 0.58725 0.44148 0.46513 0.0
O135 O 0.58962 0.43371 0.52019 0.0
O136 O 0.56351 0.55397 0.47501 0.0
O137 O 0.515 0.60969 0.49802 0.0
O138 O 0.4747 0.55967 0.43554 0.0
O139 O 0.49743 0.47514 0.43919 0.0
C140 C 0.43564 0.44265 0.48993 0.0
O141 O 0.41457 0.61997 0.50928 0.0
O142 O 0.39216 0.59611 0.45646 0.0
C143 C 0.5048 0.52376 0.55573 0.0
C144 C 0.66144 0.4395 0.49916 0.0
C145 C 0.75702 0.46644 0.50543 0.0
C146 C 0.74318 0.41444 0.50776 0.0
C147 C 0.69583 0.40114 0.50453 0.0
C148 C 0.67502 0.49144 0.49765 0.0
C149 C 0.7222 0.50479 0.50057 0.0
C150 C 0.61153 0.42546 0.49403 0.0
C151 C 0.55431 0.59971 0.48661 0.0
H152 H 0.22686 0.66975 0.48012 0.0
H153 H 0.30758 0.68753 0.47219 0.0
H154 H 0.34801 0.53468 0.50911 0.0
H155 H 0.26766 0.51662 0.51739 0.0
H156 H 0.7689 0.38389 0.51213 0.0
H157 H 0.68608 0.36085 0.50595 0.0
H158 H 0.64907 0.52171 0.49365 0.0
H159 H 0.73119 0.54512 0.49817 0.0
H160 H 0.47549 0.66198 0.00412 0.0
H161 H 0.40871 0.72087 0.00316 0.0
H162 H 0.31733 0.60511 0.94948 0.0
H163 H 0.38313 0.54598 0.95159 0.0
H164 H 0.34127 0.76196 0.95256 0.0
H165 H 0.26149 0.62666 0.03679 0.0
H166 H 0.32054 0.61932 0.02845 0.0
H167 H 0.27221 0.59757 -0.00284 0.0
C168 C 0.44122 0.64976 0.99163 0.0
C169 C 0.43396 0.59956 0.97839 0.0
C170 C 0.40322 0.68314 0.99117 0.0
C171 C 0.35804 0.66653 0.97716 0.0
C172 C 0.3517 0.61793 0.96136 0.0
H173 H 0.08164 0.80152 0.96708 0.0
H174 H 0.14756 0.74539 0.95981 0.0
C175 C 0.38927 0.58443 0.96238 0.0
C176 C 0.31704 0.69851 0.98068 0.0
H177 H 0.21494 0.69766 0.01382 0.0
C178 C 0.3137 0.74806 0.96601 0.0
C179 C 0.28126 0.68006 -0.00161 0.0
C180 C 0.28417 0.62821 0.01639 0.0
C181 C 0.275 0.77955 0.96816 0.0
C182 C 0.23921 0.76089 0.98564 0.0
C183 C 0.24241 0.71135 0.00017 0.0
C184 C 0.19929 0.79336 0.99076 0.0
C185 C 0.27248 0.83236 0.95158 0.0
C186 C 0.2068 0.83757 0.01147 0.0
C187 C 0.16951 0.86923 0.01592 0.0
C188 C 0.12394 0.85718 -0.00028 0.0
C189 C 0.11628 0.81177 0.97991 0.0
C190 C 0.15381 0.77989 0.97558 0.0
H191 H 0.29668 0.8359 0.93229 0.0
H192 H 0.23644 0.84094 0.93862 0.0
H193 H 0.28241 0.86201 0.97192 0.0
H194 H 0.24163 0.84784 0.02396 0.0
H195 H 0.17676 0.90379 0.03149 0.0
H196 H 0.68361 0.41961 0.02488 0.0
H197 H 0.74887 0.36347 0.01881 0.0
H198 H 0.65442 0.25305 0.96239 0.0
H199 H 0.58841 0.31016 0.96731 0.0
H200 H 0.7659 0.26595 0.04192 0.0
H201 H 0.75146 0.27275 0.89869 0.0
H202 H 0.72039 0.31685 0.92267 0.0
H203 H 0.69883 0.2523 0.91355 0.0
C204 C 0.67643 0.38339 0.01118 0.0
C205 C 0.63072 0.3694 -0.00357 0.0
C206 C 0.71392 0.35141 0.00771 0.0
C207 C 0.70651 0.30467 0.98963 0.0
C208 C 0.66088 0.28969 0.9757 0.0
H209 H 0.87035 0.03745 0.97635 0.0
H210 H 0.81061 0.10399 0.97374 0.0
C211 C 0.6232 0.32203 0.97886 0.0
C212 C 0.74671 0.27112 0.98649 0.0
H213 H 0.80435 0.21063 0.92809 0.0
C214 C 0.77461 0.2543 0.01704 0.0
C215 C 0.75809 0.25648 0.95394 0.0
C216 C 0.73092 0.27591 0.92033 0.0
C217 C 0.81286 0.22182 0.01592 0.0
C218 C 0.82325 0.20594 0.98347 0.0
C219 C 0.79604 0.22333 0.95287 0.0
C220 C 0.85973 0.16739 0.98123 0.0
C221 C 0.84124 0.20328 0.04933 0.0
C222 C 0.90696 0.1816 0.98569 0.0
C223 C 0.94143 0.14358 0.98711 0.0
C224 C 0.92881 0.09109 0.98447 0.0
C225 C 0.88125 0.07749 0.97885 0.0
C226 C 0.84702 0.11537 0.97714 0.0
H227 H 0.82782 0.21835 0.07251 0.0
H228 H 0.84097 0.16038 0.05018 0.0
H229 H 0.87807 0.21582 0.05055 0.0
H230 H 0.91706 0.22183 0.98897 0.0
H231 H 0.97778 0.15512 0.99145 0.0
H232 H 0.08064 0.15601 0.52168 0.0
H233 H 0.14103 0.22268 0.5221 0.0
H234 H 0.22523 0.11648 0.47348 0.0
H235 H 0.16556 0.05021 0.47252 0.0
H236 H 0.24153 0.21416 0.55263 0.0
H237 H 0.2095 0.24821 0.41041 0.0
H238 H 0.16701 0.21779 0.43308 0.0
H239 H 0.21622 0.18165 0.42343 0.0
C240 C 0.11191 0.14698 0.51095 0.0
C241 C 0.11817 0.09786 0.49698 0.0
C242 C 0.14636 0.18494 0.51136 0.0
C243 C 0.18717 0.17434 0.49757 0.0
C244 C 0.19366 0.12539 0.4839 0.0
H245 H 0.44982 0.34303 0.51385 0.0
H246 H 0.39005 0.27687 0.51732 0.0
C247 C 0.15949 0.08753 0.48352 0.0
C248 C 0.22322 0.21432 0.49709 0.0
H249 H 0.277 0.28691 0.44216 0.0
C250 C 0.24928 0.23037 0.52858 0.0
C251 C 0.23286 0.23519 0.46557 0.0
C252 C 0.20475 0.22026 0.43116 0.0
C253 C 0.28542 0.26664 0.52931 0.0
C254 C 0.2957 0.28665 0.49771 0.0
C255 C 0.26922 0.27095 0.46629 0.0
C256 C 0.33211 0.32613 0.49655 0.0
C257 C 0.31182 0.28389 0.56377 0.0
C258 C 0.31917 0.37507 0.48318 0.0
C259 C 0.35296 0.41253 0.48088 0.0
C260 C 0.40054 0.40178 0.49187 0.0
C261 C 0.41351 0.35252 0.5052 0.0
C262 C 0.37946 0.31486 0.50743 0.0
H263 H 0.29364 0.27262 0.58564 0.0
H264 H 0.34688 0.26571 0.56787 0.0
H265 H 0.31671 0.32648 0.56423 0.0
H266 H 0.28277 0.38433 0.47457 0.0
H267 H 0.34153 0.45 0.47051 0.0
H268 H 0.90065 0.91903 0.54353 0.0
H269 H 0.83177 0.86722 0.54927 0.0
H270 H 0.87467 0.75294 0.48008 0.0
H271 H 0.94459 0.80446 0.47523 0.0
H272 H 0.7646 0.84882 0.49723 0.0
H273 H 0.83248 0.66175 0.55227 0.0
H274 H 0.86901 0.71838 0.55269 0.0
H275 H 0.85695 0.67871 0.51445 0.0
C276 C 0.89582 0.8821 0.53034 0.0
C277 C 0.92745 0.86525 0.50904 0.0
C278 C 0.85659 0.85265 0.53359 0.0
C279 C 0.84824 0.80608 0.51533 0.0
C280 C 0.881 0.78816 0.49506 0.0
H281 H 0.62506 0.60195 0.44895 0.0
H282 H 0.69379 0.65721 0.45802 0.0
C283 C 0.92075 0.81749 0.49217 0.0
C284 C 0.80287 0.77964 0.5144 0.0
H285 H 0.7529 0.66223 0.52349 0.0
C286 C 0.76196 0.80818 0.50349 0.0
C287 C 0.79956 0.72678 0.52275 0.0
C288 C 0.84187 0.69481 0.53656 0.0
C289 C 0.7179 0.78465 0.49916 0.0
C290 C 0.71491 0.73133 0.50602 0.0
C291 C 0.75556 0.70317 0.51807 0.0
C292 C 0.67053 0.70277 0.49847 0.0
C293 C 0.67515 0.81635 0.48595 0.0
C294 C 0.63417 0.71121 0.51766 0.0
C295 C 0.59446 0.67965 0.51243 0.0
C296 C 0.59118 0.63913 0.48824 0.0
C297 C 0.62677 0.63261 0.46801 0.0
C298 C 0.6661 0.66406 0.47315 0.0
H299 H 0.68426 0.85514 0.47678 0.0
H300 H 0.65291 0.79596 0.46438 0.0
H301 H 0.65418 0.82179 0.50712 0.0
H302 H 0.63734 0.74069 0.53757 0.0
H303 H 0.56767 0.6852 0.52853 0.0
H304 H 0.32612 0.93752 0.00559 0.0
H305 H 0.40691 0.91603 0.00055 0.0
H306 H 0.43425 0.07585 0.97995 0.0
H307 H 0.35325 0.09761 0.98398 0.0
H308 H 0.4569 0.93448 0.94265 0.0
H309 H 0.53672 0.03638 0.06266 0.0
H310 H 0.47555 0.01949 0.05412 0.0
H311 H 0.49681 0.07398 0.03276 0.0
C312 C 0.34904 0.9681 -0.00045 0.0
C313 C 0.33293 0.01942 -0.00472 0.0
C314 C 0.39537 0.95574 -0.00309 0.0
C315 C 0.42679 -0.00558 0.99034 0.0
C316 C 0.41084 0.04552 0.98568 0.0
H317 H 0.72427 -0.00062 0.9791 0.0
H318 H 0.64232 0.02087 0.97925 0.0
C319 C 0.36448 0.0579 0.98811 0.0
C320 C 0.47617 0.98131 0.98814 0.0
H321 H 0.58841 0.00181 0.02752 0.0
C322 C 0.4857 0.94904 0.96123 0.0
C323 C 0.51368 0.00057 0.01231 0.0
C324 C 0.50542 0.03422 0.0423 0.0
C325 C 0.53179 0.9362 0.95749 0.0
C326 C 0.5694 0.95503 0.98189 0.0
C327 C 0.55973 0.98737 0.00878 0.0
C328 C 0.619 0.94149 0.98024 0.0
C329 C 0.53968 0.90371 0.92686 0.0
C330 C 0.63351 0.88967 0.98087 0.0
C331 C 0.68034 0.87717 0.98022 0.0
C332 C 0.71405 0.91622 0.97945 0.0
C333 C 0.69938 0.96815 0.97902 0.0
C334 C 0.65247 0.98058 0.97944 0.0
H335 H 0.50963 0.9061 0.90546 0.0
H336 H 0.57175 0.91585 0.91679 0.0
H337 H 0.54367 0.86266 0.93498 0.0
H338 H 0.60872 0.85874 0.98233 0.0
H339 H 0.69003 0.83677 0.98026 0.0
H340 H 0.31879 -0.00686 0.4746 0.0
H341 H 0.40102 0.01394 0.47441 0.0
H342 H 0.44164 0.88235 0.53993 0.0
H343 H 0.35936 0.86086 0.53975 0.0
H344 H 0.46906 0.03889 0.52673 0.0
H345 H 0.51883 0.85921 0.4643 0.0
H346 H 0.45879 0.87604 0.46566 0.0
H347 H 0.49407 0.84763 0.50288 0.0
C348 C 0.34523 0.96866 0.48902 0.0
C349 C 0.33251 0.9252 0.50709 0.0
C350 C 0.39226 0.9805 0.4888 0.0
C351 C 0.42766 0.94923 0.50664 0.0
C352 C 0.41506 0.90625 0.52514 0.0
H353 H 0.73138 0.96939 0.53988 0.0
H354 H 0.64994 0.94704 0.54196 0.0
C355 C 0.36799 0.8941 0.52514 0.0
C356 C 0.4776 0.96261 0.50655 0.0
H357 H 0.58059 0.91584 0.48698 0.0
C358 C 0.49336 0.01203 0.51788 0.0
C359 C 0.50944 0.92756 0.49507 0.0
C360 C 0.49441 0.87484 0.48097 0.0
C361 C 0.54002 0.02715 0.5184 0.0
C362 C 0.57177 -0.00788 0.50692 0.0
C363 C 0.5562 0.9426 0.49583 0.0
C364 C 0.62119 0.00632 0.50583 0.0
C365 C 0.55513 0.0802 0.5318 0.0
C366 C 0.63215 0.04671 0.4845 0.0
C367 C 0.67872 0.05938 0.48301 0.0
C368 C 0.71542 0.03177 0.50274 0.0
C369 C 0.70418 -0.0088 0.52404 0.0
C370 C 0.6576 0.97848 0.52542 0.0
H371 H 0.53027 0.09698 0.5477 0.0
H372 H 0.59039 0.07895 0.54767 0.0
H373 H 0.55664 0.10641 0.50953 0.0
H374 H 0.60463 0.06796 0.46855 0.0
H375 H 0.6859 0.09006 0.46575 0.0
H376 H 0.83415 0.45076 0.00891 0.0
H377 H 0.91566 0.42941 0.00621 0.0
H378 H 0.94173 0.58741 0.97983 0.0
H379 H 0.86024 0.60907 0.98218 0.0
H380 H 0.96594 0.43827 0.95118 0.0
H381 H 0.04467 0.56036 0.06188 0.0
H382 H 0.98324 0.54483 0.05376 0.0
H383 H 1.00624 0.59462 0.02911 0.0
C384 C 0.85708 0.48096 0.00229 0.0
C385 C 0.84053 0.53176 -0.00409 0.0
C386 C 0.90378 0.46871 0.00094 0.0
C387 C 0.93506 0.50696 0.99339 0.0
C388 C 0.91856 0.5575 0.98654 0.0
H389 H 0.22882 0.51115 0.97121 0.0
H390 H 0.14702 0.53186 0.9732 0.0
C391 C 0.87189 0.56982 0.98789 0.0
C392 C 0.98468 0.49375 0.99205 0.0
H393 H 0.09689 0.52259 0.02801 0.0
C394 C 0.99458 0.45651 0.96809 0.0
C395 C 0.02206 0.51763 0.01409 0.0
C396 C 1.01368 0.55624 0.0414 0.0
C397 C 0.04079 0.44322 0.9651 0.0
C398 C 0.07817 0.46714 0.98711 0.0
C399 C 0.06826 0.50435 0.0111 0.0
C400 C 0.12783 0.45411 0.98574 0.0
C401 C 0.04917 0.40458 0.93782 0.0
C402 C 0.1445 0.40362 0.99255 0.0
C403 C 0.19136 0.39167 0.9916 0.0
C404 C 0.22272 0.43005 0.98406 0.0
C405 C 0.2059 0.48071 0.9775 0.0
C406 C 0.15904 0.4926 0.97845 0.0
H407 H 1.01818 0.40045 0.91734 0.0
H408 H 0.07962 0.41597 0.92545 0.0
H409 H 0.0566 0.36621 0.95012 0.0
H410 H 0.12139 0.37353 -0.00094 0.0
H411 H 0.2032 0.35252 -0.00256 0.0
H412 H 0.17684 0.65407 0.52407 0.0
H413 H 0.09532 0.63421 0.52837 0.0
H414 H 0.11101 0.48292 0.48535 0.0
H415 H 0.19233 0.50234 0.4811 0.0
H416 H 0.02291 0.60998 0.47765 0.0
H417 H 0.05445 0.44755 0.57061 0.0
H418 H 0.10039 0.49062 0.56224 0.0
H419 H 0.08188 0.43818 0.53301 0.0
C420 C 0.16292 0.61656 0.51553 0.0
C421 C 0.19128 0.57965 0.50248 0.0
C422 C 0.11637 0.6052 0.51813 0.0
C423 C 0.09723 0.55671 0.50782 0.0
C424 C 0.12529 0.52005 0.49441 0.0
H425 H 0.82538 0.41298 0.47908 0.0
H426 H 0.90731 0.43667 0.48119 0.0
C427 C 0.17184 0.53126 0.49195 0.0
C428 C 0.04748 0.54502 0.50984 0.0
H429 H 0.97621 0.45784 0.54153 0.0
C430 C 1.01271 0.57701 0.4919 0.0
C431 C 0.03413 0.50205 0.52851 0.0
C432 C 0.06968 0.46793 0.54997 0.0
C433 C 0.96505 0.56625 0.49121 0.0
C434 C 0.95179 0.52265 0.50923 0.0
C435 C 0.98648 0.4911 0.52759 0.0
C436 C 0.90207 0.50839 0.50871 0.0
C437 C 0.92923 0.60079 0.47042 0.0
C438 C 0.87204 0.54054 0.52395 0.0
C439 C 0.82518 0.5268 0.52323 0.0
C440 C 0.80733 0.48058 0.50718 0.0
C441 C 0.83784 0.44837 0.49218 0.0
C442 C 0.8847 0.46202 0.49312 0.0
H443 H 0.94489 0.62574 0.45215 0.0
H444 H 0.90072 0.57755 0.4555 0.0
H445 H 0.91361 0.62623 0.48836 0.0
H446 H 0.88494 0.5761 0.53663 0.0
H447 H 0.80312 0.55222 0.53557 0.0
H448 H 1.00076 0.05668 0.38463 0.0
H449 H 1.00052 0.05557 0.32208 0.0
H450 H 1.01767 0.89007 0.32492 0.0
H451 H 1.01814 0.8906 0.38766 0.0
H452 H 0.0776 0.01074 0.28903 0.0
H453 H 0.90312 0.92205 0.24614 0.0
H454 H 0.91785 0.95458 0.28733 0.0
H455 H 0.94037 0.89122 0.28143 0.0
C456 C 1.00413 0.01993 0.37199 0.0
C457 C 1.00948 0.97368 0.39112 0.0
C458 C 1.00404 0.01945 0.33628 0.0
C459 C 1.00875 0.97274 0.31904 0.0
C460 C 1.0135 0.92641 0.33786 0.0
H461 H 1.01552 0.89192 0.10522 0.0
H462 H 1.01291 0.89224 0.16737 0.0
C463 C 1.01393 0.92685 0.37367 0.0
C464 C 1.01068 0.97289 0.28155 0.0
H465 H 0.95034 0.93716 0.20314 0.0
C466 C 0.04981 -0.00519 0.27015 0.0
C467 C 0.97439 0.9518 0.25727 0.0
C468 C 0.93131 0.9288 0.26843 0.0
C469 C 0.05399 -0.00448 0.23489 0.0
C470 C 1.01741 0.97495 0.21044 0.0
C471 C 0.97826 0.95299 0.22194 0.0
C472 C 0.01927 0.97528 0.17281 0.0
C473 C 0.09804 0.01707 0.2243 0.0
C474 C 0.02322 0.02196 0.1552 0.0
C475 C 0.02516 0.02191 0.1197 0.0
C476 C 0.0225 0.97518 0.10114 0.0
C477 C 1.01775 0.92858 0.11877 0.0
C478 C 1.01619 0.92866 0.15428 0.0
H479 H 0.12735 0.01753 0.24632 0.0
H480 H 0.10878 -0.00575 0.20281 0.0
H481 H 0.09168 0.05748 0.21529 0.0
H482 H 0.02446 0.05849 0.16886 0.0
H483 H 0.02829 0.05849 0.10679 0.0
H484 H 0.97649 0.90917 0.88141 0.0
H485 H 0.98158 0.90601 0.81948 0.0
H486 H 0.08112 0.03147 0.83277 0.0
H487 H 0.07848 0.03211 0.89493 0.0
H488 H 0.95975 0.96893 0.77047 0.0
H489 H 0.14941 0.93782 0.77951 0.0
H490 H 0.12029 0.93418 0.81693 0.0
H491 H 0.1385 -0.00422 0.80193 0.0
C492 C 0.99964 0.93576 0.87101 0.0
C493 C 0.02739 0.97057 0.89281 0.0
C494 C 1.0026 0.93394 0.83569 0.0
C495 C 0.03266 0.96762 0.82147 0.0
C496 C 0.05915 0.00364 0.8432 0.0
H497 H 0.98989 0.04727 0.60383 0.0
H498 H 0.992 0.04338 0.66652 0.0
C499 C 0.05722 0.00441 0.87866 0.0
C500 C 0.03472 0.96663 0.78373 0.0
H501 H 0.10978 0.96842 0.72461 0.0
C502 C 0.9926 0.96816 0.76049 0.0
C503 C 0.07746 0.96447 0.77049 0.0
C504 C 0.12386 0.95735 0.79358 0.0
C505 C 0.99201 0.96884 0.72456 0.0
C506 C 0.03483 0.97089 0.71144 0.0
C507 C 0.07694 0.96795 0.7346 0.0
C508 C 0.03666 0.97589 0.67383 0.0
C509 C 0.94535 0.96613 0.70123 0.0
C510 C 0.06374 0.94161 0.65735 0.0
C511 C 0.06406 0.94519 0.62168 0.0
C512 C 0.03665 0.98248 0.60195 0.0
C513 C 1.01078 0.01771 0.61853 0.0
C514 C 1.01155 0.01511 0.65426 0.0
H515 H 0.91881 0.94649 0.71432 0.0
H516 H 0.93263 0.0059 0.69475 0.0
H517 H 0.94785 0.94512 0.67682 0.0
H518 H 0.08376 0.91131 0.67191 0.0
H519 H 0.08417 0.91751 0.60936 0.0
H520 H 0.49131 0.43109 0.38024 0.0
H521 H 0.49512 0.42881 0.31812 0.0
H522 H 0.47904 0.59431 0.31276 0.0
H523 H 0.47489 0.59715 0.37488 0.0
H524 H 0.42454 0.47663 0.25907 0.0
H525 H 0.60599 0.55392 0.27503 0.0
H526 H 0.58295 0.52201 0.30986 0.0
H527 H 0.56466 0.58641 0.29748 0.0
C528 C 0.48826 0.46703 0.36585 0.0
C529 C 0.48297 0.51435 0.38257 0.0
C530 C 0.49039 0.46559 0.33037 0.0
C531 C 0.48774 0.51142 0.31106 0.0
C532 C 0.48145 0.55859 0.32739 0.0
H533 H 0.53231 0.57665 0.10031 0.0
H534 H 0.52078 0.58227 0.16089 0.0
C535 C 0.47894 0.56007 0.36283 0.0
C536 C 0.49269 0.50994 0.27396 0.0
H537 H 0.56879 0.53747 0.21812 0.0
C538 C 0.45599 0.48992 0.25 0.0
C539 C 0.53372 0.52755 0.26239 0.0
C540 C 0.57435 0.54849 0.28741 0.0
C541 C 0.45907 0.48748 0.21451 0.0
C542 C 0.50052 0.50425 0.20292 0.0
C543 C 0.53708 0.52459 0.22699 0.0
C544 C 0.50693 0.50066 0.16601 0.0
C545 C 0.41752 0.46799 0.18973 0.0
C546 C 0.50367 0.4528 0.14886 0.0
C547 C 0.50996 0.44949 0.11418 0.0
C548 C 0.52033 0.49391 0.09606 0.0
C549 C 0.5244 0.54167 0.11348 0.0
C550 C 0.51778 0.54498 0.14811 0.0
H551 H 0.38469 0.47164 0.20087 0.0
H552 H 0.41339 0.48935 0.1648 0.0
H553 H 0.42258 0.42645 0.18433 0.0
H554 H 0.4966 0.41784 0.16238 0.0
H555 H 0.50692 0.41202 0.10167 0.0
H556 H 0.58588 0.51825 0.6022 0.0
H557 H 0.59409 0.51023 0.66532 0.0
H558 H 0.44444 0.51453 0.65905 0.0
H559 H 0.43574 0.5225 0.59603 0.0
H560 H 0.55834 0.57921 0.71411 0.0
H561 H 0.48612 0.3803 0.71445 0.0
H562 H 0.50704 0.40768 0.67722 0.0
H563 H 0.45074 0.42557 0.68705 0.0
C564 C 0.55468 0.51755 0.61422 0.0
C565 C 0.51012 0.52082 0.59402 0.0
C566 C 0.55948 0.513 0.65029 0.0
C567 C 0.51986 0.51109 0.66674 0.0
C568 C 0.47542 0.51514 0.64675 0.0
H569 H 0.45823 0.47952 0.87411 0.0
H570 H 0.45776 0.48639 0.81176 0.0
C571 C 0.47056 0.51997 0.61074 0.0
C572 C 0.52483 0.5052 0.70485 0.0
H573 H 0.49848 0.42464 0.76822 0.0
C574 C 0.54561 0.54531 0.72605 0.0
C575 C 0.50816 0.4609 0.72021 0.0
C576 C 0.48709 0.41587 0.69866 0.0
C577 C 0.54877 0.54305 0.76227 0.0
C578 C 0.53161 0.49892 0.77767 0.0
C579 C 0.51154 0.45846 0.75641 0.0
C580 C 0.53265 0.49458 0.81567 0.0
C581 C 0.56895 0.5887 0.7836 0.0
C582 C 0.57501 0.49619 0.83865 0.0
C583 C 0.57541 0.49255 0.87443 0.0
C584 C 0.53345 0.48665 0.88788 0.0
C585 C 0.4912 0.48407 0.86471 0.0
C586 C 0.49084 0.48798 0.82901 0.0
H587 H 0.56929 0.62415 0.76759 0.0
H588 H 0.54884 0.59678 0.80496 0.0
H589 H 0.6055 0.57997 0.79521 0.0
H590 H 0.60781 0.50003 0.82891 0.0
H591 H 0.60861 0.49427 0.89151 0.0
loop_
_geom_bond_atom_site_label_1
_geom_bond_atom_site_label_2
_geom_bond_distance
_geom_bond_site_symmetry_2
_ccdc_geom_bond_type
Tb0 C9 2.764 . S
Tb0 O10 2.325 1_545 S
Tb0 O13 2.303 1_554 S
Tb0 O17 2.322 1_455 S
Tb0 O18 2.349 . S
Tb0 O21 2.415 1_554 S
Tb0 O22 2.399 . S
Tb1 O11 2.322 1_655 S
Tb1 O12 2.349 . S
Tb1 O14 2.415 1_556 S
Tb1 O15 2.399 . S
Tb1 O16 2.325 1_565 S
Tb1 O19 2.303 1_556 S
Tb1 C30 2.764 . S
C2 O18 1.261 . S
C2 O19 1.257 1_445 S
C3 C6 1.358 . S
C3 C7 1.332 1_554 S
C3 C9 1.504 . S
C4 C5 1.373 . S
C4 C8 1.308 1_554 S
C5 C4 1.373 . S
C5 C6 1.429 . S
C5 H32 0.932 . S
C6 C3 1.358 . S
C6 C5 1.429 . S
C6 H33 0.930 . S
C7 C3 1.332 1_556 S
C7 C8 1.394 . S
C7 H34 0.932 . S
C8 C4 1.308 1_556 S
C8 C7 1.394 . S
C8 H35 0.929 . S
C9 Tb0 2.764 . S
C9 C3 1.504 . S
C9 O21 1.239 1_554 S
C9 O22 1.263 . S
O10 Tb0 2.325 1_565 S
O10 C20 1.236 . S
O11 Tb1 2.322 1_455 S
O11 C20 1.257 1_556 S
O12 Tb1 2.349 . S
O12 C23 1.261 . S
O13 Tb0 2.303 1_556 S
O13 C23 1.257 1_445 S
O14 Tb1 2.415 1_554 S
O14 C30 1.239 1_554 S
O15 Tb1 2.399 . S
O15 C30 1.263 . S
O16 Tb1 2.325 1_545 S
O16 C31 1.247 . S
O17 Tb0 2.322 1_655 S
O17 C31 1.253 1_554 S
O18 Tb0 2.349 . S
O18 C2 1.261 . S
O19 Tb1 2.303 1_554 S
O19 C2 1.257 1_665 S
C20 O10 1.236 . S
C20 O11 1.257 1_554 S
O21 Tb0 2.415 1_556 S
O21 C9 1.239 1_556 S
O22 Tb0 2.399 . S
O22 C9 1.263 . S
C23 O12 1.261 . S
C23 O13 1.257 1_665 S
C24 C27 1.358 . S
C24 C28 1.332 1_556 S
C24 C30 1.504 . S
C25 C26 1.388 . S
C25 C29 1.298 1_556 S
C26 C25 1.388 . S
C26 C27 1.429 . S
C26 H36 0.932 . S
C27 C24 1.358 . S
C27 C26 1.429 . S
C27 H37 0.930 . S
C28 C24 1.332 1_554 S
C28 C29 1.394 . S
C28 H38 0.932 . S
C29 C25 1.298 1_554 S
C29 C28 1.394 . S
C29 H39 0.929 . S
C30 Tb1 2.764 . S
C30 O14 1.239 1_556 S
C30 O15 1.263 . S
C30 C24 1.504 . S
C31 O16 1.247 . S
C31 O17 1.253 1_556 S
H32 C5 0.932 . S
H33 C6 0.930 . S
H34 C7 0.932 . S
H35 C8 0.929 . S
H36 C26 0.932 . S
H37 C27 0.930 . S
H38 C28 0.932 . S
H39 C29 0.929 . S
Tb40 C49 2.764 . S
Tb40 O50 2.325 1_545 S
Tb40 O53 2.303 . S
Tb40 O57 2.322 1_655 S
Tb40 O58 2.349 . S
Tb40 O61 2.415 . S
Tb40 O62 2.399 . S
Tb41 O51 2.322 1_455 S
Tb41 O52 2.349 . S
Tb41 O54 2.415 . S
Tb41 O55 2.399 . S
Tb41 O56 2.325 1_565 S
Tb41 O59 2.303 . S
Tb41 C70 2.764 . S
C42 O58 1.261 . S
C42 O59 1.257 1_645 S
C43 C46 1.358 . S
C43 C47 1.332 . S
C43 C49 1.504 . S
C44 C45 1.373 . S
C44 C48 1.308 . S
C45 C44 1.373 . S
C45 C46 1.429 . S
C45 H72 0.932 . S
C46 C43 1.358 . S
C46 C45 1.429 . S
C46 H73 0.930 . S
C47 C43 1.332 . S
C47 C48 1.394 . S
C47 H74 0.932 . S
C48 C44 1.308 . S
C48 C47 1.394 . S
C48 H75 0.929 . S
C49 Tb40 2.764 . S
C49 C43 1.504 . S
C49 O61 1.239 . S
C49 O62 1.263 . S
O50 Tb40 2.325 1_565 S
O50 C60 1.236 . S
O51 Tb41 2.322 1_655 S
O51 C60 1.257 . S
O52 Tb41 2.349 . S
O52 C63 1.261 . S
O53 Tb40 2.303 . S
O53 C63 1.257 1_645 S
O54 Tb41 2.415 . S
O54 C70 1.239 . S
O55 Tb41 2.399 . S
O55 C70 1.263 . S
O56 Tb41 2.325 1_545 S
O56 C71 1.236 . S
O57 Tb40 2.322 1_455 S
O57 C71 1.257 . S
O58 Tb40 2.349 . S
O58 C42 1.261 . S
O59 Tb41 2.303 . S
O59 C42 1.257 1_465 S
C60 O50 1.236 . S
C60 O51 1.257 . S
O61 Tb40 2.415 . S
O61 C49 1.239 . S
O62 Tb40 2.399 . S
O62 C49 1.263 . S
C63 O52 1.261 . S
C63 O53 1.257 1_465 S
C64 C67 1.358 . S
C64 C68 1.332 . S
C64 C70 1.504 . S
C65 C66 1.373 . S
C65 C69 1.308 . S
C66 C65 1.373 . S
C66 C67 1.429 . S
C66 H76 0.932 . S
C67 C64 1.358 . S
C67 C66 1.429 . S
C67 H77 0.930 . S
C68 C64 1.332 . S
C68 C69 1.394 . S
C68 H78 0.932 . S
C69 C65 1.308 . S
C69 C68 1.394 . S
C69 H79 0.929 . S
C70 Tb41 2.764 . S
C70 O54 1.239 . S
C70 O55 1.263 . S
C70 C64 1.504 . S
C71 O56 1.236 . S
C71 O57 1.257 . S
H72 C45 0.932 . S
H73 C46 0.930 . S
H74 C47 0.932 . S
H75 C48 0.929 . S
H76 C66 0.932 . S
H77 C67 0.930 . S
H78 C68 0.932 . S
H79 C69 0.929 . S
Tb80 C89 2.764 . S
Tb80 O90 2.325 . S
Tb80 O93 2.303 1_554 S
Tb80 O97 2.322 . S
Tb80 O98 2.349 . S
Tb80 O101 2.415 1_554 S
Tb80 O102 2.399 . S
Tb81 O91 2.322 . S
Tb81 O92 2.349 . S
Tb81 O94 2.415 1_556 S
Tb81 O95 2.399 . S
Tb81 O96 2.325 . S
Tb81 O99 2.303 1_556 S
Tb81 C110 2.764 . S
C82 O98 1.261 . S
C82 O99 1.257 . S
C83 C86 1.358 . S
C83 C87 1.332 1_554 S
C83 C89 1.504 . S
C84 C85 1.373 . S
C84 C88 1.308 1_554 S
C85 C84 1.373 . S
C85 C86 1.429 . S
C85 H112 0.932 . S
C86 C83 1.358 . S
C86 C85 1.429 . S
C86 H113 0.930 . S
C87 C83 1.332 1_556 S
C87 C88 1.394 . S
C87 H114 0.932 . S
C88 C84 1.308 1_556 S
C88 C87 1.394 . S
C88 H115 0.929 . S
C89 Tb80 2.764 . S
C89 C83 1.504 . S
C89 O101 1.239 1_554 S
C89 O102 1.263 . S
O90 Tb80 2.325 . S
O90 C100 1.236 . S
O91 Tb81 2.322 . S
O91 C100 1.257 1_556 S
O92 Tb81 2.349 . S
O92 C103 1.261 . S
O93 Tb80 2.303 1_556 S
O93 C103 1.257 . S
O94 Tb81 2.415 1_554 S
O94 C110 1.239 1_554 S
O95 Tb81 2.399 . S
O95 C110 1.263 . S
O96 Tb81 2.325 . S
O96 C111 1.247 . S
O97 Tb80 2.322 . S
O97 C111 1.253 1_554 S
O98 Tb80 2.349 . S
O98 C82 1.261 . S
O99 Tb81 2.303 1_554 S
O99 C82 1.257 . S
C100 O90 1.236 . S
C100 O91 1.257 1_554 S
O101 Tb80 2.415 1_556 S
O101 C89 1.239 1_556 S
O102 Tb80 2.399 . S
O102 C89 1.263 . S
C103 O92 1.261 . S
C103 O93 1.257 . S
C104 C107 1.358 . S
C104 C108 1.332 1_556 S
C104 C110 1.504 . S
C105 C106 1.388 . S
C105 C109 1.297 1_556 S
C106 C105 1.388 . S
C106 C107 1.429 . S
C106 H116 0.932 . S
C107 C104 1.358 . S
C107 C106 1.429 . S
C107 H117 0.930 . S
C108 C104 1.332 1_554 S
C108 C109 1.394 . S
C108 H118 0.932 . S
C109 C105 1.297 1_554 S
C109 C108 1.394 . S
C109 H119 0.929 . S
C110 Tb81 2.764 . S
C110 O94 1.239 1_556 S
C110 O95 1.263 . S
C110 C104 1.504 . S
C111 O96 1.247 . S
C111 O97 1.253 1_556 S
H112 C85 0.932 . S
H113 C86 0.930 . S
H114 C87 0.932 . S
H115 C88 0.929 . S
H116 C106 0.932 . S
H117 C107 0.930 . S
H118 C108 0.932 . S
H119 C109 0.929 . S
Tb120 C129 2.764 . S
Tb120 O130 2.325 . S
Tb120 O133 2.303 . S
Tb120 O137 2.322 . S
Tb120 O138 2.349 . S
Tb120 O141 2.415 . S
Tb120 O142 2.399 . S
Tb121 O131 2.322 . S
Tb121 O132 2.349 . S
Tb121 O134 2.415 . S
Tb121 O135 2.399 . S
Tb121 O136 2.325 . S
Tb121 O139 2.303 . S
Tb121 C150 2.764 . S
C122 O138 1.261 . S
C122 O139 1.257 . S
C123 C126 1.358 . S
C123 C127 1.332 . S
C123 C129 1.504 . S
C124 C125 1.373 . S
C124 C128 1.308 . S
C125 C124 1.373 . S
C125 C126 1.429 . S
C125 H152 0.932 . S
C126 C123 1.358 . S
C126 C125 1.429 . S
C126 H153 0.930 . S
C127 C123 1.332 . S
C127 C128 1.394 . S
C127 H154 0.932 . S
C128 C124 1.308 . S
C128 C127 1.394 . S
C128 H155 0.929 . S
C129 Tb120 2.764 . S
C129 C123 1.504 . S
C129 O141 1.239 . S
C129 O142 1.263 . S
O130 Tb120 2.325 . S
O130 C140 1.236 . S
O131 Tb121 2.322 . S
O131 C140 1.257 . S
O132 Tb121 2.349 . S
O132 C143 1.261 . S
O133 Tb120 2.303 . S
O133 C143 1.257 . S
O134 Tb121 2.415 . S
O134 C150 1.239 . S
O135 Tb121 2.399 . S
O135 C150 1.263 . S
O136 Tb121 2.325 . S
O136 C151 1.236 . S
O137 Tb120 2.322 . S
O137 C151 1.257 . S
O138 Tb120 2.349 . S
O138 C122 1.261 . S
O139 Tb121 2.303 . S
O139 C122 1.257 . S
C140 O130 1.236 . S
C140 O131 1.257 . S
O141 Tb120 2.415 . S
O141 C129 1.239 . S
O142 Tb120 2.399 . S
O142 C129 1.263 . S
C143 O132 1.261 . S
C143 O133 1.257 . S
C144 C147 1.358 . S
C144 C148 1.332 . S
C144 C150 1.504 . S
C145 C146 1.373 . S
C145 C149 1.308 . S
C146 C145 1.373 . S
C146 C147 1.429 . S
C146 H156 0.932 . S
C147 C144 1.358 . S
C147 C146 1.429 . S
C147 H157 0.930 . S
C148 C144 1.332 . S
C148 C149 1.394 . S
C148 H158 0.932 . S
C149 C145 1.308 . S
C149 C148 1.394 . S
C149 H159 0.929 . S
C150 Tb121 2.764 . S
C150 O134 1.239 . S
C150 O135 1.263 . S
C150 C144 1.504 . S
C151 O136 1.236 . S
C151 O137 1.257 . S
H152 C125 0.932 . S
H153 C126 0.930 . S
H154 C127 0.932 . S
H155 C128 0.929 . S
H156 C146 0.932 . S
H157 C147 0.930 . S
H158 C148 0.932 . S
H159 C149 0.929 . S
H160 C168 0.929 . S
H161 C170 0.930 . S
H162 C172 0.930 . S
H163 C175 0.929 . S
H164 C178 0.930 . S
H165 C180 0.960 . S
H166 C180 0.960 1_554 S
H167 C180 0.960 . S
C168 H160 0.929 . S
C168 C169 1.377 . S
C168 C170 1.384 . S
C169 C168 1.377 . S
C169 C175 1.390 1_554 S
C170 H161 0.930 . S
C170 C168 1.384 . S
C170 C171 1.372 . S
C171 C170 1.372 . S
C171 C172 1.400 1_554 S
C171 C176 1.490 . S
C172 H162 0.930 . S
C172 C171 1.400 1_556 S
C172 C175 1.386 . S
H173 C189 0.930 . S
H174 C190 0.931 . S
C175 H163 0.929 . S
C175 C169 1.390 1_556 S
C175 C172 1.386 . S
C176 C171 1.490 . S
C176 C178 1.395 . S
C176 C179 1.404 1_554 S
H177 C183 0.930 . S
C178 H164 0.930 . S
C178 C176 1.395 . S
C178 C181 1.403 . S
C179 C176 1.404 1_556 S
C179 C180 1.524 . S
C179 C183 1.398 . S
C180 H165 0.960 . S
C180 H166 0.960 1_556 S
C180 H167 0.960 . S
C180 C179 1.524 . S
C181 C178 1.403 . S
C181 C182 1.392 . S
C181 C185 1.495 . S
C182 C181 1.392 . S
C182 C183 1.385 1_554 S
C182 C184 1.475 . S
C183 H177 0.930 . S
C183 C179 1.398 . S
C183 C182 1.385 1_556 S
C184 C182 1.475 . S
C184 C186 1.403 . S
C184 C190 1.365 1_554 S
C185 C181 1.495 . S
C185 H191 0.959 . S
C185 H192 0.961 1_554 S
C185 H193 0.960 . S
C186 C184 1.403 . S
C186 C187 1.394 . S
C186 H194 0.930 . S
C187 C186 1.394 . S
C187 C188 1.370 1_554 S
C187 H195 0.929 . S
C188 C187 1.370 1_556 S
C188 C189 1.392 . S
C189 H173 0.930 . S
C189 C188 1.392 . S
C189 C190 1.379 . S
C190 H174 0.931 . S
C190 C184 1.365 1_556 S
C190 C189 1.379 . S
H191 C185 0.959 . S
H192 C185 0.961 1_556 S
H193 C185 0.960 . S
H194 C186 0.930 . S
H195 C187 0.929 . S
H196 C204 0.929 . S
H197 C206 0.930 . S
H198 C208 0.930 . S
H199 C211 0.929 . S
H200 C214 0.930 . S
H201 C216 0.960 . S
H202 C216 0.960 . S
H203 C216 0.960 . S
C204 H196 0.929 . S
C204 C205 1.371 1_554 S
C204 C206 1.384 . S
C205 C204 1.371 1_556 S
C205 C211 1.401 . S
C206 H197 0.930 . S
C206 C204 1.384 . S
C206 C207 1.377 . S
C207 C206 1.377 . S
C207 C208 1.397 1_554 S
C207 C212 1.489 . S
C208 H198 0.930 . S
C208 C207 1.397 1_556 S
C208 C211 1.386 . S
H209 C225 0.930 . S
H210 C226 0.931 . S
C211 H199 0.929 . S
C211 C205 1.401 . S
C211 C208 1.386 . S
C212 C207 1.489 . S
C212 C214 1.395 . S
C212 C215 1.403 1_554 S
H213 C219 0.930 . S
C214 H200 0.930 . S
C214 C212 1.395 . S
C214 C217 1.403 . S
C215 C212 1.403 1_556 S
C215 C216 1.524 . S
C215 C219 1.400 . S
C216 H201 0.960 . S
C216 H202 0.960 . S
C216 H203 0.960 . S
C216 C215 1.524 . S
C217 C214 1.403 . S
C217 C218 1.392 . S
C217 C221 1.495 . S
C218 C217 1.392 . S
C218 C219 1.385 1_554 S
C218 C220 1.478 . S
C219 H213 0.930 . S
C219 C215 1.400 . S
C219 C218 1.385 1_556 S
C220 C218 1.478 . S
C220 C222 1.381 . S
C220 C226 1.383 1_554 S
C221 C217 1.495 . S
C221 H227 0.959 . S
C221 H228 0.961 . S
C221 H229 0.960 . S
C222 C220 1.381 . S
C222 C223 1.394 . S
C222 H230 0.930 . S
C223 C222 1.394 . S
C223 C224 1.383 . S
C223 H231 0.929 . S
C224 C223 1.383 . S
C224 C225 1.377 1_554 S
C225 H209 0.930 . S
C225 C224 1.377 1_556 S
C225 C226 1.379 . S
C226 H210 0.931 . S
C226 C220 1.383 1_556 S
C226 C225 1.379 . S
H227 C221 0.959 . S
H228 C221 0.961 . S
H229 C221 0.960 . S
H230 C222 0.930 . S
H231 C223 0.929 . S
H232 C240 0.929 . S
H233 C242 0.930 . S
H234 C244 0.930 . S
H235 C247 0.929 . S
H236 C250 0.930 . S
H237 C252 0.960 . S
H238 C252 0.960 . S
H239 C252 0.960 . S
C240 H232 0.929 . S
C240 C241 1.377 . S
C240 C242 1.384 . S
C241 C240 1.377 . S
C241 C247 1.390 . S
C242 H233 0.930 . S
C242 C240 1.384 . S
C242 C243 1.372 . S
C243 C242 1.372 . S
C243 C244 1.400 . S
C243 C248 1.490 . S
C244 H234 0.930 . S
C244 C243 1.400 . S
C244 C247 1.386 . S
H245 C261 0.930 . S
H246 C262 0.931 . S
C247 H235 0.929 . S
C247 C241 1.390 . S
C247 C244 1.386 . S
C248 C243 1.490 . S
C248 C250 1.395 . S
C248 C251 1.403 . S
H249 C255 0.930 . S
C250 H236 0.930 . S
C250 C248 1.395 . S
C250 C253 1.403 . S
C251 C248 1.403 . S
C251 C252 1.524 . S
C251 C255 1.400 . S
C252 H237 0.960 . S
C252 H238 0.960 . S
C252 H239 0.960 . S
C252 C251 1.524 . S
C253 C250 1.403 . S
C253 C254 1.392 . S
C253 C257 1.495 . S
C254 C253 1.392 . S
C254 C255 1.385 . S
C254 C256 1.478 . S
C255 H249 0.930 . S
C255 C251 1.400 . S
C255 C254 1.385 . S
C256 C254 1.478 . S
C256 C258 1.381 . S
C256 C262 1.383 . S
C257 C253 1.495 . S
C257 H263 0.959 . S
C257 H264 0.961 . S
C257 H265 0.960 . S
C258 C256 1.381 . S
C258 C259 1.394 . S
C258 H266 0.930 . S
C259 C258 1.394 . S
C259 C260 1.383 . S
C259 H267 0.929 . S
C260 C259 1.383 . S
C260 C261 1.377 . S
C261 H245 0.930 . S
C261 C260 1.377 . S
C261 C262 1.379 . S
C262 H246 0.931 . S
C262 C256 1.383 . S
C262 C261 1.379 . S
H263 C257 0.959 . S
H264 C257 0.961 . S
H265 C257 0.960 . S
H266 C258 0.930 . S
H267 C259 0.929 . S
H268 C276 0.929 . S
H269 C278 0.930 . S
H270 C280 0.930 . S
H271 C283 0.929 . S
H272 C286 0.930 . S
H273 C288 0.960 . S
H274 C288 0.960 . S
H275 C288 0.960 . S
C276 H268 0.929 . S
C276 C277 1.377 . S
C276 C278 1.384 . S
C277 C276 1.377 . S
C277 C283 1.390 . S
C278 H269 0.930 . S
C278 C276 1.384 . S
C278 C279 1.372 . S
C279 C278 1.372 . S
C279 C280 1.400 . S
C279 C284 1.490 . S
C280 H270 0.930 . S
C280 C279 1.400 . S
C280 C283 1.386 . S
H281 C297 0.930 . S
H282 C298 0.931 . S
C283 H271 0.929 . S
C283 C277 1.390 . S
C283 C280 1.386 . S
C284 C279 1.490 . S
C284 C286 1.395 . S
C284 C287 1.403 . S
H285 C291 0.930 . S
C286 H272 0.930 . S
C286 C284 1.395 . S
C286 C289 1.403 . S
C287 C284 1.403 . S
C287 C288 1.524 . S
C287 C291 1.400 . S
C288 H273 0.960 . S
C288 H274 0.960 . S
C288 H275 0.960 . S
C288 C287 1.524 . S
C289 C286 1.403 . S
C289 C290 1.392 . S
C289 C293 1.495 . S
C290 C289 1.392 . S
C290 C291 1.385 . S
C290 C292 1.478 . S
C291 H285 0.930 . S
C291 C287 1.400 . S
C291 C290 1.385 . S
C292 C290 1.478 . S
C292 C294 1.381 . S
C292 C298 1.383 . S
C293 C289 1.495 . S
C293 H299 0.959 . S
C293 H300 0.961 . S
C293 H301 0.960 . S
C294 C292 1.381 . S
C294 C295 1.394 . S
C294 H302 0.930 . S
C295 C294 1.394 . S
C295 C296 1.383 . S
C295 H303 0.929 . S
C296 C295 1.383 . S
C296 C297 1.377 . S
C297 H281 0.930 . S
C297 C296 1.377 . S
C297 C298 1.379 . S
C298 H282 0.931 . S
C298 C292 1.383 . S
C298 C297 1.379 . S
H299 C293 0.959 . S
H300 C293 0.961 . S
H301 C293 0.960 . S
H302 C294 0.930 . S
H303 C295 0.929 . S
H304 C312 0.929 1_565 S
H305 C314 0.930 . S
H306 C316 0.930 . S
H307 C319 0.929 . S
H308 C322 0.930 . S
H309 C324 0.960 . S
H310 C324 0.960 . S
H311 C324 0.960 . S
C312 H304 0.929 1_545 S
C312 C313 1.377 . S
C312 C314 1.384 1_545 S
C313 C312 1.377 . S
C313 C319 1.390 1_554 S
C314 H305 0.930 . S
C314 C312 1.384 1_565 S
C314 C315 1.372 1_565 S
C315 C314 1.372 1_545 S
C315 C316 1.400 1_554 S
C315 C320 1.490 . S
C316 H306 0.930 . S
C316 C315 1.400 1_556 S
C316 C319 1.386 . S
H317 C333 0.930 1_545 S
H318 C334 0.931 1_545 S
C319 H307 0.929 . S
C319 C313 1.390 1_556 S
C319 C316 1.386 . S
C320 C315 1.490 . S
C320 C322 1.395 1_544 S
C320 C323 1.403 . S
H321 C327 0.930 . S
C322 H308 0.930 . S
C322 C320 1.395 1_566 S
C322 C325 1.403 . S
C323 C320 1.403 . S
C323 C324 1.524 . S
C323 C327 1.400 . S
C324 H309 0.960 . S
C324 H310 0.960 . S
C324 H311 0.960 . S
C324 C323 1.524 . S
C325 C322 1.403 . S
C325 C326 1.392 . S
C325 C329 1.495 . S
C326 C325 1.392 . S
C326 C327 1.385 1_566 S
C326 C328 1.478 . S
C327 H321 0.930 . S
C327 C323 1.400 . S
C327 C326 1.385 1_544 S
C328 C326 1.478 . S
C328 C330 1.381 1_556 S
C328 C334 1.383 . S
C329 C325 1.495 . S
C329 H335 0.959 . S
C329 H336 0.961 . S
C329 H337 0.960 . S
C330 C328 1.381 1_554 S
C330 C331 1.394 . S
C330 H338 0.930 . S
C331 C330 1.394 . S
C331 C332 1.383 1_554 S
C331 H339 0.929 . S
C332 C331 1.383 1_556 S
C332 C333 1.377 . S
C333 H317 0.930 1_565 S
C333 C332 1.377 . S
C333 C334 1.379 . S
C334 H318 0.931 1_565 S
C334 C328 1.383 . S
C334 C333 1.379 . S
H335 C329 0.959 . S
H336 C329 0.961 . S
H337 C329 0.960 . S
H338 C330 0.930 . S
H339 C331 0.929 . S
H340 C348 0.929 . S
H341 C350 0.930 . S
H342 C352 0.930 . S
H343 C355 0.929 . S
H344 C358 0.930 . S
H345 C360 0.960 . S
H346 C360 0.960 . S
H347 C360 0.960 . S
C348 H340 0.929 . S
C348 C349 1.377 . S
C348 C350 1.384 . S
C349 C348 1.377 . S
C349 C355 1.390 . S
C350 H341 0.930 . S
C350 C348 1.384 . S
C350 C351 1.372 . S
C351 C350 1.372 . S
C351 C352 1.400 . S
C351 C356 1.490 . S
C352 H342 0.930 . S
C352 C351 1.400 . S
C352 C355 1.386 . S
H353 C369 0.930 . S
H354 C370 0.931 . S
C355 H343 0.929 . S
C355 C349 1.390 . S
C355 C352 1.386 . S
C356 C351 1.490 . S
C356 C358 1.395 1_565 S
C356 C359 1.403 . S
H357 C363 0.930 . S
C358 H344 0.930 . S
C358 C356 1.395 1_545 S
C358 C361 1.403 . S
C359 C356 1.403 . S
C359 C360 1.524 . S
C359 C363 1.400 . S
C360 H345 0.960 . S
C360 H346 0.960 . S
C360 H347 0.960 . S
C360 C359 1.524 . S
C361 C358 1.403 . S
C361 C362 1.392 . S
C361 C365 1.495 . S
C362 C361 1.392 . S
C362 C363 1.385 1_545 S
C362 C364 1.478 . S
C363 H357 0.930 . S
C363 C359 1.400 . S
C363 C362 1.385 1_565 S
C364 C362 1.478 . S
C364 C366 1.381 . S
C364 C370 1.383 . S
C365 C361 1.495 . S
C365 H371 0.959 . S
C365 H372 0.961 . S
C365 H373 0.960 . S
C366 C364 1.381 . S
C366 C367 1.394 . S
C366 H374 0.930 . S
C367 C366 1.394 . S
C367 C368 1.383 . S
C367 H375 0.929 . S
C368 C367 1.383 . S
C368 C369 1.377 . S
C369 H353 0.930 . S
C369 C368 1.377 . S
C369 C370 1.379 . S
C370 H354 0.931 . S
C370 C364 1.383 . S
C370 C369 1.379 . S
H371 C365 0.959 . S
H372 C365 0.961 . S
H373 C365 0.960 . S
H374 C366 0.930 . S
H375 C367 0.929 . S
H376 C384 0.929 . S
H377 C386 0.930 . S
H378 C388 0.930 . S
H379 C391 0.929 . S
H380 C394 0.930 . S
H381 C396 0.960 . S
H382 C396 0.960 . S
H383 C396 0.960 . S
C384 H376 0.929 . S
C384 C385 1.377 1_556 S
C384 C386 1.384 . S
C385 C384 1.377 1_554 S
C385 C391 1.390 . S
C386 H377 0.930 . S
C386 C384 1.384 . S
C386 C387 1.370 . S
C387 C386 1.370 . S
C387 C388 1.402 1_556 S
C387 C392 1.489 . S
C388 H378 0.930 . S
C388 C387 1.402 1_554 S
C388 C391 1.386 . S
H389 C405 0.930 . S
H390 C406 0.931 . S
C391 H379 0.929 . S
C391 C385 1.390 . S
C391 C388 1.386 . S
C392 C387 1.489 . S
C392 C394 1.395 . S
C392 C395 1.403 1_556 S
H393 C399 0.930 . S
C394 H380 0.930 . S
C394 C392 1.395 . S
C394 C397 1.403 1_655 S
C395 C392 1.403 1_554 S
C395 C396 1.524 . S
C395 C399 1.400 1_655 S
C396 H381 0.960 . S
C396 H382 0.960 . S
C396 H383 0.960 . S
C396 C395 1.524 . S
C397 C394 1.403 1_455 S
C397 C398 1.392 . S
C397 C401 1.495 . S
C398 C397 1.392 . S
C398 C399 1.385 1_556 S
C398 C400 1.478 . S
C399 H393 0.930 . S
C399 C395 1.400 1_455 S
C399 C398 1.385 1_554 S
C400 C398 1.478 . S
C400 C402 1.381 . S
C400 C406 1.383 1_556 S
C401 C397 1.495 . S
C401 H407 0.959 . S
C401 H408 0.961 . S
C401 H409 0.960 . S
C402 C400 1.381 . S
C402 C403 1.394 . S
C402 H410 0.930 . S
C403 C402 1.394 . S
C403 C404 1.383 . S
C403 H411 0.929 . S
C404 C403 1.383 . S
C404 C405 1.377 1_556 S
C405 H389 0.930 . S
C405 C404 1.377 1_554 S
C405 C406 1.379 . S
C406 H390 0.931 . S
C406 C400 1.383 1_554 S
C406 C405 1.379 . S
H407 C401 0.959 . S
H408 C401 0.961 . S
H409 C401 0.960 . S
H410 C402 0.930 . S
H411 C403 0.929 . S
H412 C420 0.929 . S
H413 C422 0.930 . S
H414 C424 0.930 . S
H415 C427 0.929 . S
H416 C430 0.930 . S
H417 C432 0.960 . S
H418 C432 0.960 . S
H419 C432 0.960 . S
C420 H412 0.929 . S
C420 C421 1.377 . S
C420 C422 1.384 . S
C421 C420 1.377 . S
C421 C427 1.390 . S
C422 H413 0.930 . S
C422 C420 1.384 . S
C422 C423 1.372 . S
C423 C422 1.372 . S
C423 C424 1.400 . S
C423 C428 1.490 . S
C424 H414 0.930 . S
C424 C423 1.400 . S
C424 C427 1.386 . S
H425 C441 0.930 . S
H426 C442 0.931 . S
C427 H415 0.929 . S
C427 C421 1.390 . S
C427 C424 1.386 . S
C428 C423 1.490 . S
C428 C430 1.395 . S
C428 C431 1.403 . S
H429 C435 0.930 . S
C430 H416 0.930 . S
C430 C428 1.395 . S
C430 C433 1.403 1_455 S
C431 C428 1.403 . S
C431 C432 1.524 . S
C431 C435 1.400 1_455 S
C432 H417 0.960 . S
C432 H418 0.960 . S
C432 H419 0.960 . S
C432 C431 1.524 . S
C433 C430 1.403 1_655 S
C433 C434 1.392 . S
C433 C437 1.495 . S
C434 C433 1.392 . S
C434 C435 1.385 . S
C434 C436 1.478 . S
C435 H429 0.930 . S
C435 C431 1.400 1_655 S
C435 C434 1.385 . S
C436 C434 1.478 . S
C436 C438 1.381 . S
C436 C442 1.383 . S
C437 C433 1.495 . S
C437 H443 0.959 . S
C437 H444 0.961 . S
C437 H445 0.960 . S
C438 C436 1.381 . S
C438 C439 1.394 . S
C438 H446 0.930 . S
C439 C438 1.394 . S
C439 C440 1.383 . S
C439 H447 0.929 . S
C440 C439 1.383 . S
C440 C441 1.377 . S
C441 H425 0.930 . S
C441 C440 1.377 . S
C441 C442 1.379 . S
C442 H426 0.931 . S
C442 C436 1.383 . S
C442 C441 1.379 . S
H443 C437 0.959 . S
H444 C437 0.961 . S
H445 C437 0.960 . S
H446 C438 0.930 . S
H447 C439 0.929 . S
H448 C456 0.929 . S
H449 C458 0.930 . S
H450 C460 0.930 . S
H451 C463 0.929 . S
H452 C466 0.930 . S
H453 C468 0.960 . S
H454 C468 0.960 . S
H455 C468 0.960 . S
C456 H448 0.929 . S
C456 C457 1.377 1_655 S
C456 C458 1.384 . S
C457 C456 1.377 1_455 S
C457 C463 1.390 1_545 S
C458 H449 0.930 . S
C458 C456 1.384 . S
C458 C459 1.372 . S
C459 C458 1.372 . S
C459 C460 1.400 1_645 S
C459 C464 1.490 1_655 S
C460 H450 0.930 . S
C460 C459 1.400 1_465 S
C460 C463 1.386 . S
H461 C477 0.930 . S
H462 C478 0.931 . S
C463 H451 0.929 . S
C463 C457 1.390 1_565 S
C463 C460 1.386 . S
C464 C459 1.490 1_455 S
C464 C466 1.395 . S
C464 C467 1.403 1_445 S
H465 C471 0.930 . S
C466 H452 0.930 . S
C466 C464 1.395 . S
C466 C469 1.403 . S
C467 C464 1.403 1_665 S
C467 C468 1.524 . S
C467 C471 1.400 . S
C468 H453 0.960 . S
C468 H454 0.960 . S
C468 H455 0.960 . S
C468 C467 1.524 . S
C469 C466 1.403 . S
C469 C470 1.392 . S
C469 C473 1.495 . S
C470 C469 1.392 . S
C470 C471 1.385 1_445 S
C470 C472 1.478 . S
C471 H465 0.930 . S
C471 C467 1.400 . S
C471 C470 1.385 1_665 S
C472 C470 1.478 . S
C472 C474 1.381 1_455 S
C472 C478 1.383 1_545 S
C473 C469 1.495 . S
C473 H479 0.959 . S
C473 H480 0.961 . S
C473 H481 0.960 . S
C474 C472 1.381 1_655 S
C474 C475 1.394 . S
C474 H482 0.930 . S
C475 C474 1.394 . S
C475 C476 1.383 1_655 S
C475 H483 0.929 . S
C476 C475 1.383 1_455 S
C476 C477 1.377 1_545 S
C477 H461 0.930 . S
C477 C476 1.377 1_565 S
C477 C478 1.379 . S
C478 H462 0.931 . S
C478 C472 1.383 1_565 S
C478 C477 1.379 . S
H479 C473 0.959 . S
H480 C473 0.961 . S
H481 C473 0.960 . S
H482 C474 0.930 . S
H483 C475 0.929 . S
H484 C492 0.929 . S
H485 C494 0.930 . S
H486 C496 0.930 . S
H487 C499 0.929 . S
H488 C502 0.930 . S
H489 C504 0.960 . S
H490 C504 0.960 . S
H491 C504 0.960 1_545 S
C492 H484 0.929 . S
C492 C493 1.367 1_655 S
C492 C494 1.384 . S
C493 C492 1.367 1_455 S
C493 C499 1.404 1_565 S
C494 H485 0.930 . S
C494 C492 1.384 . S
C494 C495 1.383 . S
C495 C494 1.383 . S
C495 C496 1.391 1_665 S
C495 C500 1.488 . S
C496 H486 0.930 . S
C496 C495 1.391 1_445 S
C496 C499 1.386 . S
H497 C513 0.930 . S
H498 C514 0.931 . S
C499 H487 0.929 . S
C499 C493 1.404 1_545 S
C499 C496 1.386 . S
C500 C495 1.488 . S
C500 C502 1.395 1_565 S
C500 C503 1.403 1_655 S
H501 C507 0.930 . S
C502 H488 0.930 . S
C502 C500 1.395 1_545 S
C502 C505 1.403 . S
C503 C500 1.403 1_455 S
C503 C504 1.524 . S
C503 C507 1.400 . S
C504 H489 0.960 . S
C504 H490 0.960 . S
C504 H491 0.960 1_565 S
C504 C503 1.524 . S
C505 C502 1.403 . S
C505 C506 1.391 1_545 S
C505 C509 1.495 . S
C506 C505 1.391 1_565 S
C506 C507 1.387 1_655 S
C506 C508 1.477 1_565 S
C507 H501 0.930 . S
C507 C503 1.400 . S
C507 C506 1.387 1_455 S
C508 C506 1.477 1_545 S
C508 C510 1.381 1_545 S
C508 C514 1.383 1_655 S
C509 C505 1.495 . S
C509 H515 0.959 . S
C509 H516 0.961 . S
C509 H517 0.960 1_545 S
C510 C508 1.381 1_565 S
C510 C511 1.394 . S
C510 H518 0.930 . S
C511 C510 1.394 . S
C511 C512 1.382 1_565 S
C511 H519 0.929 . S
C512 C511 1.382 1_545 S
C512 C513 1.378 1_655 S
C513 H497 0.930 . S
C513 C512 1.378 1_455 S
C513 C514 1.379 . S
C514 H498 0.931 . S
C514 C508 1.383 1_455 S
C514 C513 1.379 . S
H515 C509 0.959 . S
H516 C509 0.961 . S
H517 C509 0.960 1_565 S
H518 C510 0.930 . S
H519 C511 0.929 . S
H520 C528 0.929 . S
H521 C530 0.930 . S
H522 C532 0.930 . S
H523 C535 0.929 . S
H524 C538 0.930 . S
H525 C540 0.960 . S
H526 C540 0.960 . S
H527 C540 0.960 . S
C528 H520 0.929 . S
C528 C529 1.377 . S
C528 C530 1.384 . S
C529 C528 1.377 . S
C529 C535 1.390 . S
C530 H521 0.930 . S
C530 C528 1.384 . S
C530 C531 1.372 . S
C531 C530 1.372 . S
C531 C532 1.400 . S
C531 C536 1.490 . S
C532 H522 0.930 . S
C532 C531 1.400 . S
C532 C535 1.386 . S
H533 C549 0.930 . S
H534 C550 0.931 . S
C535 H523 0.929 . S
C535 C529 1.390 . S
C535 C532 1.386 . S
C536 C531 1.490 . S
C536 C538 1.395 . S
C536 C539 1.403 . S
H537 C543 0.930 . S
C538 H524 0.930 . S
C538 C536 1.395 . S
C538 C541 1.403 . S
C539 C536 1.403 . S
C539 C540 1.524 . S
C539 C543 1.400 . S
C540 H525 0.960 . S
C540 H526 0.960 . S
C540 H527 0.960 . S
C540 C539 1.524 . S
C541 C538 1.403 . S
C541 C542 1.392 . S
C541 C545 1.495 . S
C542 C541 1.392 . S
C542 C543 1.385 . S
C542 C544 1.478 . S
C543 H537 0.930 . S
C543 C539 1.400 . S
C543 C542 1.385 . S
C544 C542 1.478 . S
C544 C546 1.381 . S
C544 C550 1.383 . S
C545 C541 1.495 . S
C545 H551 0.959 . S
C545 H552 0.961 . S
C545 H553 0.960 . S
C546 C544 1.381 . S
C546 C547 1.394 . S
C546 H554 0.930 . S
C547 C546 1.394 . S
C547 C548 1.383 . S
C547 H555 0.929 . S
C548 C547 1.383 . S
C548 C549 1.377 . S
C549 H533 0.930 . S
C549 C548 1.377 . S
C549 C550 1.379 . S
C550 H534 0.931 . S
C550 C544 1.383 . S
C550 C549 1.379 . S
H551 C545 0.959 . S
H552 C545 0.961 . S
H553 C545 0.960 . S
H554 C546 0.930 . S
H555 C547 0.929 . S
H556 C564 0.929 . S
H557 C566 0.930 . S
H558 C568 0.930 . S
H559 C571 0.929 . S
H560 C574 0.930 . S
H561 C576 0.960 . S
H562 C576 0.960 . S
H563 C576 0.960 . S
C564 H556 0.929 . S
C564 C565 1.377 . S
C564 C566 1.384 . S
C565 C564 1.377 . S
C565 C571 1.390 . S
C566 H557 0.930 . S
C566 C564 1.384 . S
C566 C567 1.372 . S
C567 C566 1.372 . S
C567 C568 1.400 . S
C567 C572 1.490 . S
C568 H558 0.930 . S
C568 C567 1.400 . S
C568 C571 1.386 . S
H569 C585 0.930 . S
H570 C586 0.931 . S
C571 H559 0.929 . S
C571 C565 1.390 . S
C571 C568 1.386 . S
C572 C567 1.490 . S
C572 C574 1.395 . S
C572 C575 1.403 . S
H573 C579 0.930 . S
C574 H560 0.930 . S
C574 C572 1.395 . S
C574 C577 1.403 . S
C575 C572 1.403 . S
C575 C576 1.524 . S
C575 C579 1.400 . S
C576 H561 0.960 . S
C576 H562 0.960 . S
C576 H563 0.960 . S
C576 C575 1.524 . S
C577 C574 1.403 . S
C577 C578 1.392 . S
C577 C581 1.495 . S
C578 C577 1.392 . S
C578 C579 1.385 . S
C578 C580 1.478 . S
C579 H573 0.930 . S
C579 C575 1.400 . S
C579 C578 1.385 . S
C580 C578 1.478 . S
C580 C582 1.381 . S
C580 C586 1.383 . S
C581 C577 1.495 . S
C581 H587 0.959 . S
C581 H588 0.961 . S
C581 H589 0.960 . S
C582 C580 1.381 . S
C582 C583 1.394 . S
C582 H590 0.930 . S
C583 C582 1.394 . S
C583 C584 1.383 . S
C583 H591 0.929 . S
C584 C583 1.383 . S
C584 C585 1.377 . S
C585 H569 0.930 . S
C585 C584 1.377 . S
C585 C586 1.379 . S
C586 H570 0.931 . S
C586 C580 1.383 . S
C586 C585 1.379 . S
H587 C581 0.959 . S
H588 C581 0.961 . S
H589 C581 0.960 . S
H590 C582 0.930 . S
H591 C583 0.929 . S
C169 C111 1.563 1_554 S
C188 C20 1.551 1_556 S
C205 C100 1.561 1_556 S
C224 C31 1.562 1_554 S
C241 C71 1.570 . S
C260 C140 1.575 . S
C277 C60 1.569 . S
C296 C151 1.579 . S
C313 C4 1.070 . S
C332 C25 1.096 . S
C349 C65 1.075 . S
C368 C44 1.103 . S
C385 C84 1.064 . S
C404 C105 1.057 . S
C421 C124 1.074 . S
C440 C145 1.048 . S
C457 C42 1.461 1_455 S
C476 C2 1.441 . S
C493 C23 1.457 1_455 S
C512 C63 1.484 1_645 S
C529 C122 1.469 . S
C548 C82 1.476 . S
C565 C143 1.462 . S
C584 C103 1.481 . S
