# Generated by pormake.
# Topology wne, (6)-cn, num edge types: 1
# Building blocks:
#     Node 0, Type 0, BuildingBlock: BETDEL_clean_sbu_0, # of connection points: 6
#     Node 1, Type 0, BuildingBlock: BETDEL_clean_sbu_0, # of connection points: 6
#     Node 2, Type 0, BuildingBlock: BETDEL_clean_sbu_0, # of connection points: 6
#     Node 3, Type 0, BuildingBlock: BETDEL_clean_sbu_0, # of connection points: 6
#     Node 4, Type 0, BuildingBlock: BETDEL_clean_sbu_0, # of connection points: 6
#     Node 5, Type 0, BuildingBlock: BETDEL_clean_sbu_0, # of connection points: 6
#     Node 6, Type 0, BuildingBlock: BETDEL_clean_sbu_0, # of connection points: 6
#     Node 7, Type 0, BuildingBlock: BETDEL_clean_sbu_0, # of connection points: 6
#     Node 8, Type 0, BuildingBlock: BETDEL_clean_sbu_0, # of connection points: 6
#     Node 9, Type 0, BuildingBlock: BETDEL_clean_sbu_0, # of connection points: 6
#     Node 10, Type 0, BuildingBlock: BETDEL_clean_sbu_0, # of connection points: 6
#     Node 11, Type 0, BuildingBlock: BETDEL_clean_sbu_0, # of connection points: 6
#     Node 12, Type 0, BuildingBlock: BETDEL_clean_sbu_0, # of connection points: 6
#     Node 13, Type 0, BuildingBlock: BETDEL_clean_sbu_0, # of connection points: 6
#     Node 14, Type 0, BuildingBlock: BETDEL_clean_sbu_0, # of connection points: 6
#     Node 15, Type 0, BuildingBlock: BETDEL_clean_sbu_0, # of connection points: 6
#     Node 16, Type 0, BuildingBlock: BETDEL_clean_sbu_0, # of connection points: 6
#     Node 17, Type 0, BuildingBlock: BETDEL_clean_sbu_0, # of connection points: 6
#     Node 18, Type 0, BuildingBlock: BETDEL_clean_sbu_0, # of connection points: 6
#     Node 19, Type 0, BuildingBlock: BETDEL_clean_sbu_0, # of connection points: 6
#     Node 20, Type 0, BuildingBlock: BETDEL_clean_sbu_0, # of connection points: 6
#     Node 21, Type 0, BuildingBlock: BETDEL_clean_sbu_0, # of connection points: 6
#     Node 22, Type 0, BuildingBlock: BETDEL_clean_sbu_0, # of connection points: 6
#     Node 23, Type 0, BuildingBlock: BETDEL_clean_sbu_0, # of connection points: 6
#     Node 24, Type 0, BuildingBlock: BETDEL_clean_sbu_0, # of connection points: 6
#     Node 25, Type 0, BuildingBlock: BETDEL_clean_sbu_0, # of connection points: 6
#     Node 26, Type 0, BuildingBlock: BETDEL_clean_sbu_0, # of connection points: 6
#     Node 27, Type 0, BuildingBlock: BETDEL_clean_sbu_0, # of connection points: 6
#     Node 28, Type 0, BuildingBlock: BETDEL_clean_sbu_0, # of connection points: 6
#     Node 29, Type 0, BuildingBlock: BETDEL_clean_sbu_0, # of connection points: 6
#     Node 30, Type 0, BuildingBlock: BETDEL_clean_sbu_0, # of connection points: 6
#     Node 31, Type 0, BuildingBlock: BETDEL_clean_sbu_0, # of connection points: 6
#     Node 32, Type 0, BuildingBlock: BETDEL_clean_sbu_0, # of connection points: 6
#     Node 33, Type 0, BuildingBlock: BETDEL_clean_sbu_0, # of connection points: 6
#     Node 34, Type 0, BuildingBlock: BETDEL_clean_sbu_0, # of connection points: 6
#     Node 35, Type 0, BuildingBlock: BETDEL_clean_sbu_0, # of connection points: 6
#     Edge 36, Type (0, 0), BuildingBlock: XIVTED_clean_linker_0, # of connection points: 2
#     Edge 37, Type (0, 0), BuildingBlock: XIVTED_clean_linker_0, # of connection points: 2
#     Edge 38, Type (0, 0), BuildingBlock: XIVTED_clean_linker_0, # of connection points: 2
#     Edge 39, Type (0, 0), BuildingBlock: XIVTED_clean_linker_0, # of connection points: 2
#     Edge 40, Type (0, 0), BuildingBlock: XIVTED_clean_linker_0, # of connection points: 2
#     Edge 41, Type (0, 0), BuildingBlock: XIVTED_clean_linker_0, # of connection points: 2
#     Edge 42, Type (0, 0), BuildingBlock: XIVTED_clean_linker_0, # of connection points: 2
#     Edge 43, Type (0, 0), BuildingBlock: XIVTED_clean_linker_0, # of connection points: 2
#     Edge 44, Type (0, 0), BuildingBlock: XIVTED_clean_linker_0, # of connection points: 2
#     Edge 45, Type (0, 0), BuildingBlock: XIVTED_clean_linker_0, # of connection points: 2
#     Edge 46, Type (0, 0), BuildingBlock: XIVTED_clean_linker_0, # of connection points: 2
#     Edge 47, Type (0, 0), BuildingBlock: XIVTED_clean_linker_0, # of connection points: 2
#     Edge 48, Type (0, 0), BuildingBlock: XIVTED_clean_linker_0, # of connection points: 2
#     Edge 49, Type (0, 0), BuildingBlock: XIVTED_clean_linker_0, # of connection points: 2
#     Edge 50, Type (0, 0), BuildingBlock: XIVTED_clean_linker_0, # of connection points: 2
#     Edge 51, Type (0, 0), BuildingBlock: XIVTED_clean_linker_0, # of connection points: 2
#     Edge 52, Type (0, 0), BuildingBlock: XIVTED_clean_linker_0, # of connection points: 2
#     Edge 53, Type (0, 0), BuildingBlock: XIVTED_clean_linker_0, # of connection points: 2
#     Edge 54, Type (0, 0), BuildingBlock: XIVTED_clean_linker_0, # of connection points: 2
#     Edge 55, Type (0, 0), BuildingBlock: XIVTED_clean_linker_0, # of connection points: 2
#     Edge 56, Type (0, 0), BuildingBlock: XIVTED_clean_linker_0, # of connection points: 2
#     Edge 57, Type (0, 0), BuildingBlock: XIVTED_clean_linker_0, # of connection points: 2
#     Edge 58, Type (0, 0), BuildingBlock: XIVTED_clean_linker_0, # of connection points: 2
#     Edge 59, Type (0, 0), BuildingBlock: XIVTED_clean_linker_0, # of connection points: 2
#     Edge 60, Type (0, 0), BuildingBlock: XIVTED_clean_linker_0, # of connection points: 2
#     Edge 61, Type (0, 0), BuildingBlock: XIVTED_clean_linker_0, # of connection points: 2
#     Edge 62, Type (0, 0), BuildingBlock: XIVTED_clean_linker_0, # of connection points: 2
#     Edge 63, Type (0, 0), BuildingBlock: XIVTED_clean_linker_0, # of connection points: 2
#     Edge 64, Type (0, 0), BuildingBlock: XIVTED_clean_linker_0, # of connection points: 2
#     Edge 65, Type (0, 0), BuildingBlock: XIVTED_clean_linker_0, # of connection points: 2
#     Edge 66, Type (0, 0), BuildingBlock: XIVTED_clean_linker_0, # of connection points: 2
#     Edge 67, Type (0, 0), BuildingBlock: XIVTED_clean_linker_0, # of connection points: 2
#     Edge 68, Type (0, 0), BuildingBlock: XIVTED_clean_linker_0, # of connection points: 2
#     Edge 69, Type (0, 0), BuildingBlock: XIVTED_clean_linker_0, # of connection points: 2
#     Edge 70, Type (0, 0), BuildingBlock: XIVTED_clean_linker_0, # of connection points: 2
#     Edge 71, Type (0, 0), BuildingBlock: XIVTED_clean_linker_0, # of connection points: 2
#     Edge 72, Type (0, 0), BuildingBlock: XIVTED_clean_linker_0, # of connection points: 2
#     Edge 73, Type (0, 0), BuildingBlock: XIVTED_clean_linker_0, # of connection points: 2
#     Edge 74, Type (0, 0), BuildingBlock: XIVTED_clean_linker_0, # of connection points: 2
#     Edge 75, Type (0, 0), BuildingBlock: XIVTED_clean_linker_0, # of connection points: 2
#     Edge 76, Type (0, 0), BuildingBlock: XIVTED_clean_linker_0, # of connection points: 2
#     Edge 77, Type (0, 0), BuildingBlock: XIVTED_clean_linker_0, # of connection points: 2
#     Edge 78, Type (0, 0), BuildingBlock: XIVTED_clean_linker_0, # of connection points: 2
#     Edge 79, Type (0, 0), BuildingBlock: XIVTED_clean_linker_0, # of connection points: 2
#     Edge 80, Type (0, 0), BuildingBlock: XIVTED_clean_linker_0, # of connection points: 2
#     Edge 81, Type (0, 0), BuildingBlock: XIVTED_clean_linker_0, # of connection points: 2
#     Edge 82, Type (0, 0), BuildingBlock: XIVTED_clean_linker_0, # of connection points: 2
#     Edge 83, Type (0, 0), BuildingBlock: XIVTED_clean_linker_0, # of connection points: 2
#     Edge 84, Type (0, 0), BuildingBlock: XIVTED_clean_linker_0, # of connection points: 2
#     Edge 85, Type (0, 0), BuildingBlock: XIVTED_clean_linker_0, # of connection points: 2
#     Edge 86, Type (0, 0), BuildingBlock: XIVTED_clean_linker_0, # of connection points: 2
#     Edge 87, Type (0, 0), BuildingBlock: XIVTED_clean_linker_0, # of connection points: 2
#     Edge 88, Type (0, 0), BuildingBlock: XIVTED_clean_linker_0, # of connection points: 2
#     Edge 89, Type (0, 0), BuildingBlock: XIVTED_clean_linker_0, # of connection points: 2
#     Edge 90, Type (0, 0), BuildingBlock: XIVTED_clean_linker_0, # of connection points: 2
#     Edge 91, Type (0, 0), BuildingBlock: XIVTED_clean_linker_0, # of connection points: 2
#     Edge 92, Type (0, 0), BuildingBlock: XIVTED_clean_linker_0, # of connection points: 2
#     Edge 93, Type (0, 0), BuildingBlock: XIVTED_clean_linker_0, # of connection points: 2
#     Edge 94, Type (0, 0), BuildingBlock: XIVTED_clean_linker_0, # of connection points: 2
#     Edge 95, Type (0, 0), BuildingBlock: XIVTED_clean_linker_0, # of connection points: 2
#     Edge 96, Type (0, 0), BuildingBlock: XIVTED_clean_linker_0, # of connection points: 2
#     Edge 97, Type (0, 0), BuildingBlock: XIVTED_clean_linker_0, # of connection points: 2
#     Edge 98, Type (0, 0), BuildingBlock: XIVTED_clean_linker_0, # of connection points: 2
#     Edge 99, Type (0, 0), BuildingBlock: XIVTED_clean_linker_0, # of connection points: 2
#     Edge 100, Type (0, 0), BuildingBlock: XIVTED_clean_linker_0, # of connection points: 2
#     Edge 101, Type (0, 0), BuildingBlock: XIVTED_clean_linker_0, # of connection points: 2
#     Edge 102, Type (0, 0), BuildingBlock: XIVTED_clean_linker_0, # of connection points: 2
#     Edge 103, Type (0, 0), BuildingBlock: XIVTED_clean_linker_0, # of connection points: 2
#     Edge 104, Type (0, 0), BuildingBlock: XIVTED_clean_linker_0, # of connection points: 2
#     Edge 105, Type (0, 0), BuildingBlock: XIVTED_clean_linker_0, # of connection points: 2
#     Edge 106, Type (0, 0), BuildingBlock: XIVTED_clean_linker_0, # of connection points: 2
#     Edge 107, Type (0, 0), BuildingBlock: XIVTED_clean_linker_0, # of connection points: 2
#     Edge 108, Type (0, 0), BuildingBlock: XIVTED_clean_linker_0, # of connection points: 2
#     Edge 109, Type (0, 0), BuildingBlock: XIVTED_clean_linker_0, # of connection points: 2
#     Edge 110, Type (0, 0), BuildingBlock: XIVTED_clean_linker_0, # of connection points: 2
#     Edge 111, Type (0, 0), BuildingBlock: XIVTED_clean_linker_0, # of connection points: 2
#     Edge 112, Type (0, 0), BuildingBlock: XIVTED_clean_linker_0, # of connection points: 2
#     Edge 113, Type (0, 0), BuildingBlock: XIVTED_clean_linker_0, # of connection points: 2
#     Edge 114, Type (0, 0), BuildingBlock: XIVTED_clean_linker_0, # of connection points: 2
#     Edge 115, Type (0, 0), BuildingBlock: XIVTED_clean_linker_0, # of connection points: 2
#     Edge 116, Type (0, 0), BuildingBlock: XIVTED_clean_linker_0, # of connection points: 2
#     Edge 117, Type (0, 0), BuildingBlock: XIVTED_clean_linker_0, # of connection points: 2
#     Edge 118, Type (0, 0), BuildingBlock: XIVTED_clean_linker_0, # of connection points: 2
#     Edge 119, Type (0, 0), BuildingBlock: XIVTED_clean_linker_0, # of connection points: 2
#     Edge 120, Type (0, 0), BuildingBlock: XIVTED_clean_linker_0, # of connection points: 2
#     Edge 121, Type (0, 0), BuildingBlock: XIVTED_clean_linker_0, # of connection points: 2
#     Edge 122, Type (0, 0), BuildingBlock: XIVTED_clean_linker_0, # of connection points: 2
#     Edge 123, Type (0, 0), BuildingBlock: XIVTED_clean_linker_0, # of connection points: 2
#     Edge 124, Type (0, 0), BuildingBlock: XIVTED_clean_linker_0, # of connection points: 2
#     Edge 125, Type (0, 0), BuildingBlock: XIVTED_clean_linker_0, # of connection points: 2
#     Edge 126, Type (0, 0), BuildingBlock: XIVTED_clean_linker_0, # of connection points: 2
#     Edge 127, Type (0, 0), BuildingBlock: XIVTED_clean_linker_0, # of connection points: 2
#     Edge 128, Type (0, 0), BuildingBlock: XIVTED_clean_linker_0, # of connection points: 2
#     Edge 129, Type (0, 0), BuildingBlock: XIVTED_clean_linker_0, # of connection points: 2
#     Edge 130, Type (0, 0), BuildingBlock: XIVTED_clean_linker_0, # of connection points: 2
#     Edge 131, Type (0, 0), BuildingBlock: XIVTED_clean_linker_0, # of connection points: 2
#     Edge 132, Type (0, 0), BuildingBlock: XIVTED_clean_linker_0, # of connection points: 2
#     Edge 133, Type (0, 0), BuildingBlock: XIVTED_clean_linker_0, # of connection points: 2
#     Edge 134, Type (0, 0), BuildingBlock: XIVTED_clean_linker_0, # of connection points: 2
#     Edge 135, Type (0, 0), BuildingBlock: XIVTED_clean_linker_0, # of connection points: 2
#     Edge 136, Type (0, 0), BuildingBlock: XIVTED_clean_linker_0, # of connection points: 2
#     Edge 137, Type (0, 0), BuildingBlock: XIVTED_clean_linker_0, # of connection points: 2
#     Edge 138, Type (0, 0), BuildingBlock: XIVTED_clean_linker_0, # of connection points: 2
#     Edge 139, Type (0, 0), BuildingBlock: XIVTED_clean_linker_0, # of connection points: 2
#     Edge 140, Type (0, 0), BuildingBlock: XIVTED_clean_linker_0, # of connection points: 2
#     Edge 141, Type (0, 0), BuildingBlock: XIVTED_clean_linker_0, # of connection points: 2
#     Edge 142, Type (0, 0), BuildingBlock: XIVTED_clean_linker_0, # of connection points: 2
#     Edge 143, Type (0, 0), BuildingBlock: XIVTED_clean_linker_0, # of connection points: 2
# Relax obj value: 0.211
# Max RMSD: 0.199
# Mean RMSD: 0.199
data_MOF--net-wne--node1-BETDEL_clean_sbu_0--edge1-XIVTED_clean_linker_0
_symmetry_space_group_name_H-M    P1
_symmetry_Int_Tables_number       1
_symmetry_cell_setting            triclinic
loop_
_symmetry_equiv_pos_as_xyz
'x, y, z'
_cell_length_a     71.741525
_cell_length_b     71.823708
_cell_length_c     34.807436
_cell_angle_alpha  90.085629
_cell_angle_beta   89.916843
_cell_angle_gamma 120.01228
loop_
_atom_site_label
_atom_site_type_symbol
_atom_site_fract_x
_atom_site_fract_y
_atom_site_fract_z
_atom_type_partial_charge
Dy0 Dy 0.2422 0.17045 0.07446 0.0
C1 C 0.29103 0.25912 0.10905 0.0
C2 C 0.22753 0.12851 0.05282 0.0
Dy3 Dy 0.26889 0.21697 0.08807 0.0
O4 O 0.22579 0.13476 0.087 0.0
O5 O 0.23679 0.14512 0.03027 0.0
O6 O 0.216 0.16884 0.11348 0.0
O7 O 0.24817 0.19074 0.12579 0.0
C8 C 0.22904 0.18457 0.1357 0.0
C9 C 0.27658 0.20576 0.01722 0.0
O10 O 0.28828 0.20665 0.12319 0.0
O11 O 0.26903 0.17052 0.10648 0.0
O12 O 0.29965 0.24822 0.09603 0.0
O13 O 0.27034 0.24677 0.1118 0.0
O14 O 0.27364 0.22178 0.02453 0.0
O15 O 0.27314 0.1954 0.04839 0.0
O16 O 0.22493 0.18256 0.03727 0.0
O17 O 0.23723 0.21361 0.07231 0.0
C18 C 0.28532 0.1869 0.12404 0.0
C19 C 0.22353 0.19957 0.04747 0.0
Dy20 Dy 0.83872 0.07176 0.0743 0.0
C21 C 0.75106 0.02776 0.12312 0.0
C22 C 0.88043 0.09861 0.05095 0.0
Dy23 Dy 0.79176 0.05152 0.09508 0.0
O24 O 0.87467 0.09 0.08476 0.0
O25 O 0.86344 0.09219 0.02967 0.0
O26 O 0.84101 0.04803 0.11413 0.0
O27 O 0.82024 0.05948 0.12822 0.0
C28 C 0.82647 0.0466 0.13818 0.0
C29 C 0.79503 0.06956 0.02607 0.0
O30 O 0.80436 0.0822 0.12824 0.0
O31 O 0.83759 0.09994 0.0981 0.0
O32 O 0.76147 0.04849 0.11887 0.0
O33 O 0.76369 0.02021 0.11489 0.0
O34 O 0.77734 0.0581 0.04462 0.0
O35 O 0.81075 0.07012 0.04423 0.0
O36 O 0.82632 0.04215 0.03845 0.0
O37 O 0.79479 0.02374 0.07328 0.0
C38 C 0.82277 0.09995 0.12062 0.0
C39 C 0.80879 0.02406 0.04809 0.0
Dy40 Dy 0.9381 0.76943 0.0782 0.0
C41 C 0.97699 0.7197 0.10222 0.0
C42 C 0.91116 0.78425 0.05629 0.0
Dy43 Dy 0.9574 0.74275 0.08728 0.0
O44 O 0.91782 0.78475 0.0912 0.0
O45 O 0.9197 0.77625 0.03348 0.0
O46 O 0.96345 0.79529 0.11627 0.0
O47 O 0.95295 0.76303 0.12834 0.0
C48 C 0.96621 0.78214 0.13802 0.0
C49 C 0.93822 0.73671 0.0174 0.0
O50 O 0.92716 0.72158 0.12026 0.0
O51 O 0.91133 0.74251 0.1103 0.0
O52 O 0.96026 0.71345 0.08052 0.0
O53 O 0.98254 0.73824 0.11747 0.0
O54 O 0.95758 0.74034 0.02303 0.0
O55 O 0.93119 0.73894 0.04951 0.0
O56 O 0.96719 0.78753 0.0403 0.0
O57 O 0.9861 0.77384 0.07051 0.0
C58 C 0.91081 0.72514 0.12427 0.0
C59 C 0.98554 0.78807 0.04743 0.0
Dy60 Dy 0.17335 0.24028 0.44751 0.0
C61 C 0.26222 0.2838 0.40087 0.0
C62 C 0.13259 0.22855 0.47235 0.0
Dy63 Dy 0.22157 0.26734 0.42861 0.0
O64 O 0.13731 0.21731 0.44919 0.0
O65 O 0.15012 0.24575 0.48255 0.0
O66 O 0.17017 0.21483 0.40537 0.0
O67 O 0.19302 0.24694 0.395 0.0
C68 C 0.18616 0.22789 0.38366 0.0
C69 C 0.21601 0.28082 0.49785 0.0
O70 O 0.20927 0.28563 0.39454 0.0
O71 O 0.174 0.2678 0.41709 0.0
O72 O 0.25209 0.29442 0.40511 0.0
O73 O 0.24957 0.26373 0.40972 0.0
O74 O 0.23433 0.28819 0.48073 0.0
O75 O 0.20151 0.26594 0.4774 0.0
O76 O 0.18532 0.22305 0.48417 0.0
O77 O 0.21801 0.23652 0.45216 0.0
C78 C 0.18988 0.28363 0.39776 0.0
C79 C 0.20318 0.22269 0.47613 0.0
Dy80 Dy 0.77123 0.93505 0.44954 0.0
C81 C 0.72929 0.98148 0.40183 0.0
C82 C 0.78556 0.90753 0.47049 0.0
Dy83 Dy 0.74461 0.9566 0.43066 0.0
O84 O 0.78283 0.91184 0.43544 0.0
O85 O 0.7808 0.91856 0.49422 0.0
O86 O 0.7967 0.9573 0.40697 0.0
O87 O 0.76456 0.94793 0.39714 0.0
C88 C 0.7835 0.95999 0.38529 0.0
C89 C 0.73036 0.93715 0.49934 0.0
O90 O 0.72631 0.92601 0.39736 0.0
O91 O 0.73996 0.90741 0.43036 0.0
O92 O 0.74824 0.98871 0.41679 0.0
O93 O 0.71912 0.9606 0.40111 0.0
O94 O 0.72352 0.94859 0.48245 0.0
O95 O 0.74536 0.93744 0.47931 0.0
O96 O 0.78972 0.96525 0.48375 0.0
O97 O 0.77668 0.98388 0.44929 0.0
C98 C 0.7258 0.90787 0.4067 0.0
C99 C 0.7907 0.98346 0.47348 0.0
Dy100 Dy 0.07645 0.83863 0.45247 0.0
C101 C 0.03286 0.7488 0.41004 0.0
C102 C 0.10432 0.87881 0.48051 0.0
Dy103 Dy 0.05518 0.78975 0.4361 0.0
O104 O 0.08509 0.87273 0.46769 0.0
O105 O 0.10785 0.86281 0.47905 0.0
O106 O 0.06498 0.84783 0.39766 0.0
O107 O 0.05688 0.8167 0.40796 0.0
C108 C 0.05443 0.82835 0.3841 0.0
C109 C 0.07432 0.80113 0.5066 0.0
O110 O 0.08455 0.80225 0.39822 0.0
O111 O 0.10196 0.8383 0.41695 0.0
O112 O 0.05328 0.75888 0.41808 0.0
O113 O 0.02483 0.76121 0.41556 0.0
O114 O 0.05657 0.78356 0.4988 0.0
O115 O 0.08075 0.81185 0.47557 0.0
O116 O 0.04676 0.82551 0.48933 0.0
O117 O 0.02776 0.79404 0.45447 0.0
C118 C 0.10141 0.82213 0.39773 0.0
C119 C 0.02837 0.80822 0.47947 0.0
Dy120 Dy 0.74659 0.79307 0.93147 0.0
C121 C 0.78735 0.87969 0.97334 0.0
C122 C 0.72568 0.75244 0.90321 0.0
Dy123 Dy 0.77222 0.83808 0.95036 0.0
O124 O 0.71639 0.76271 0.9162 0.0
O125 O 0.74641 0.76453 0.90497 0.0
O126 O 0.7403 0.78471 0.9936 0.0
O127 O 0.74108 0.81239 0.97491 0.0
C128 C 0.73708 0.80019 1.00384 0.0
C129 C 0.78643 0.8265 0.88688 0.0
O130 O 0.78855 0.82514 0.98767 0.0
O131 O 0.77804 0.79602 0.94837 0.0
O132 O 0.78694 0.87351 0.93817 0.0
O133 O 0.78003 0.8632 0.99614 0.0
O134 O 0.79912 0.84083 0.91152 0.0
O135 O 0.76725 0.82031 0.89608 0.0
O136 O 0.72723 0.8043 0.89857 0.0
O137 O 0.74439 0.83871 0.92369 0.0
C138 C 0.7906 0.80879 0.97582 0.0
C139 C 0.72891 0.8234 0.90294 0.0
Dy140 Dy 0.22168 0.9556 0.93103 0.0
C141 C 0.13247 0.90712 0.97079 0.0
C142 C 0.26311 0.97943 0.90662 0.0
Dy143 Dy 0.17374 0.93588 0.94747 0.0
O144 O 0.25277 0.95874 0.91151 0.0
O145 O 0.2502 0.98693 0.9125 0.0
O146 O 0.2335 0.94722 0.98385 0.0
O147 O 0.20082 0.93715 0.97943 0.0
C148 C 0.21498 0.93634 1.00027 0.0
C149 C 0.18803 0.96183 0.88474 0.0
O150 O 0.18637 0.96478 0.98588 0.0
O151 O 0.21868 0.98332 0.95319 0.0
O152 O 0.1381 0.92491 0.95241 0.0
O153 O 0.14938 0.90546 0.97703 0.0
O154 O 0.1721 0.95934 0.90624 0.0
O155 O 0.19404 0.94888 0.89567 0.0
O156 O 0.20962 0.92492 0.89746 0.0
O157 O 0.17331 0.90938 0.91314 0.0
C158 C 0.20428 0.98293 0.97753 0.0
C159 C 0.18953 0.90859 0.89666 0.0
Dy160 Dy 0.05412 0.26569 0.93297 0.0
C161 C 0.10123 0.22275 0.97429 0.0
C162 C 0.03377 0.28675 0.90861 0.0
Dy163 Dy 0.07505 0.23755 0.94816 0.0
O164 O 0.05387 0.29597 0.91865 0.0
O165 O 0.02496 0.26604 0.91111 0.0
O166 O 0.05691 0.27349 0.99552 0.0
O167 O 0.08079 0.26945 0.97008 0.0
C168 C 0.07509 0.27421 1.00159 0.0
C169 C 0.05076 0.22466 0.88244 0.0
O170 O 0.04443 0.2193 0.98225 0.0
O171 O 0.02623 0.23477 0.95346 0.0
O172 O 0.09578 0.22265 0.93874 0.0
O173 O 0.09199 0.23059 0.996 0.0
O174 O 0.06088 0.21524 0.89575 0.0
O175 O 0.05436 0.23947 0.9056 0.0
O176 O 0.08238 0.28105 0.89264 0.0
O177 O 0.10153 0.2657 0.9183 0.0
C178 C 0.02647 0.21978 0.97528 0.0
C179 C 0.1001 0.27963 0.89542 0.0
Dy180 Dy 0.79514 0.74258 0.5903 0.0
C181 C 0.88307 0.78545 0.55391 0.0
C182 C 0.75309 0.7187 0.61066 0.0
Dy183 Dy 0.84098 0.76945 0.5755 0.0
O184 O 0.76459 0.71111 0.59615 0.0
O185 O 0.76484 0.73931 0.61555 0.0
O186 O 0.78959 0.73806 0.52679 0.0
O187 O 0.81638 0.73864 0.54917 0.0
C188 C 0.8057 0.73545 0.51848 0.0
C189 C 0.82748 0.78246 0.63786 0.0
O190 O 0.82795 0.78611 0.53878 0.0
O191 O 0.79769 0.77405 0.57598 0.0
O192 O 0.87654 0.78555 0.58866 0.0
O193 O 0.86665 0.77706 0.53081 0.0
O194 O 0.84255 0.79551 0.61463 0.0
O195 O 0.82149 0.76336 0.62813 0.0
O196 O 0.80611 0.72383 0.62562 0.0
O197 O 0.84131 0.74177 0.60373 0.0
C198 C 0.81117 0.7876 0.55033 0.0
C199 C 0.82553 0.72599 0.62332 0.0
Dy200 Dy 0.26913 0.05233 0.5933 0.0
C201 C 0.23019 0.10366 0.55446 0.0
C202 C 0.28334 0.02635 0.62182 0.0
Dy203 Dy 0.24302 0.0748 0.57466 0.0
O204 O 0.26448 0.01972 0.60692 0.0
O205 O 0.29406 0.04724 0.62265 0.0
O206 O 0.28997 0.06002 0.54152 0.0
O207 O 0.26865 0.07189 0.54481 0.0
C208 C 0.28351 0.07184 0.5248 0.0
C209 C 0.23062 0.05 0.63926 0.0
O210 O 0.22389 0.04471 0.54057 0.0
O211 O 0.23747 0.02567 0.5724 0.0
O212 O 0.23777 0.10258 0.58771 0.0
O213 O 0.22919 0.08861 0.53216 0.0
O214 O 0.21779 0.05391 0.61894 0.0
O215 O 0.24944 0.06143 0.62657 0.0
O216 O 0.28766 0.08298 0.62636 0.0
O217 O 0.27519 0.10183 0.59093 0.0
C218 C 0.22343 0.0265 0.54887 0.0
C219 C 0.28876 0.10125 0.61583 0.0
Dy220 Dy 0.95641 0.2161 0.59243 0.0
C221 C 0.91058 0.12955 0.55038 0.0
C222 C 0.98412 0.25812 0.6098 0.0
Dy223 Dy 0.9375 0.17142 0.57267 0.0
O224 O 0.96597 0.2461 0.62724 0.0
O225 O 0.98699 0.24716 0.5834 0.0
O226 O 0.933 0.22107 0.55944 0.0
O227 O 0.9418 0.19939 0.53729 0.0
C228 C 0.92919 0.20703 0.53298 0.0
C229 C 0.96322 0.18274 0.63618 0.0
O230 O 0.96724 0.1819 0.53835 0.0
O231 O 0.98493 0.21358 0.57209 0.0
O232 O 0.91563 0.13612 0.58554 0.0
O233 O 0.92053 0.14581 0.52731 0.0
O234 O 0.96158 0.16856 0.61117 0.0
O235 O 0.95011 0.18886 0.62757 0.0
O236 O 0.9283 0.20313 0.6324 0.0
O237 O 0.90927 0.17325 0.59461 0.0
C238 C 0.98513 0.19962 0.54752 0.0
C239 C 0.90989 0.18614 0.62218 0.0
Dy240 Dy 0.90691 0.50372 0.40687 0.0
C241 C 0.95736 0.59049 0.4328 0.0
C242 C 0.89358 0.46235 0.38332 0.0
Dy243 Dy 0.93506 0.54709 0.42325 0.0
O244 O 0.8833 0.46771 0.40765 0.0
O245 O 0.91053 0.47954 0.37139 0.0
O246 O 0.88125 0.50376 0.44504 0.0
O247 O 0.91349 0.52167 0.46186 0.0
C248 C 0.89455 0.51705 0.47039 0.0
C249 C 0.94943 0.53415 0.36274 0.0
O250 O 0.94874 0.53501 0.46745 0.0
O251 O 0.93366 0.50217 0.43759 0.0
O252 O 0.96442 0.57915 0.41627 0.0
O253 O 0.93807 0.57803 0.44582 0.0
O254 O 0.9607 0.5446 0.39216 0.0
O255 O 0.93002 0.52984 0.36796 0.0
O256 O 0.88954 0.51503 0.36935 0.0
O257 O 0.90673 0.54834 0.39773 0.0
C258 C 0.94751 0.51621 0.46235 0.0
C259 C 0.89126 0.53394 0.37546 0.0
Dy260 Dy 0.50549 0.40587 0.40817 0.0
C261 C 0.41908 0.36071 0.45006 0.0
C262 C 0.54684 0.43493 0.38492 0.0
Dy263 Dy 0.46104 0.38708 0.4294 0.0
O264 O 0.54129 0.41733 0.40375 0.0
O265 O 0.52981 0.43626 0.37818 0.0
O266 O 0.50868 0.38227 0.44739 0.0
O267 O 0.48864 0.39398 0.46398 0.0
C268 C 0.49474 0.38089 0.47266 0.0
C269 C 0.46986 0.41315 0.36786 0.0
O270 O 0.47434 0.41389 0.47222 0.0
O271 O 0.50424 0.4336 0.43483 0.0
O272 O 0.42862 0.38144 0.44762 0.0
O273 O 0.43266 0.35436 0.44222 0.0
O274 O 0.45688 0.4107 0.39556 0.0
O275 O 0.47708 0.40024 0.37288 0.0
O276 O 0.49428 0.37764 0.36932 0.0
O277 O 0.46218 0.3592 0.40201 0.0
C278 C 0.49109 0.43248 0.46231 0.0
C279 C 0.47634 0.35959 0.37712 0.0
Dy280 Dy 0.60456 0.103 0.40846 0.0
C281 C 0.64348 0.05336 0.44064 0.0
C282 C 0.57803 0.11857 0.38763 0.0
Dy283 Dy 0.62418 0.07628 0.4209 0.0
O284 O 0.58416 0.118 0.42249 0.0
O285 O 0.58677 0.11107 0.36412 0.0
O286 O 0.62919 0.12897 0.44749 0.0
O287 O 0.61879 0.0968 0.45964 0.0
C288 C 0.6318 0.11588 0.46961 0.0
C289 C 0.6055 0.06923 0.35005 0.0
O290 O 0.59436 0.05659 0.45551 0.0
O291 O 0.57711 0.07522 0.43755 0.0
O292 O 0.6244 0.04533 0.42592 0.0
O293 O 0.65175 0.07388 0.44588 0.0
O294 O 0.6244 0.07194 0.3572 0.0
O295 O 0.59845 0.07233 0.3814 0.0
O296 O 0.63372 0.12019 0.37068 0.0
O297 O 0.65261 0.10767 0.40459 0.0
C298 C 0.57721 0.05899 0.45521 0.0
C299 C 0.65214 0.12133 0.37987 0.0
Dy300 Dy 0.83979 0.57248 0.78366 0.0
C301 C 0.92545 0.61154 0.73268 0.0
C302 C 0.79735 0.55786 0.80096 0.0
Dy303 Dy 0.88622 0.5983 0.76441 0.0
O304 O 0.80617 0.56433 0.76747 0.0
O305 O 0.81165 0.55895 0.82518 0.0
O306 O 0.83751 0.54624 0.7438 0.0
O307 O 0.85812 0.57829 0.72968 0.0
C308 C 0.852 0.55924 0.71977 0.0
C309 C 0.88292 0.61448 0.83241 0.0
O310 O 0.87434 0.61663 0.73077 0.0
O311 O 0.84303 0.60386 0.76593 0.0
O312 O 0.91527 0.62223 0.73161 0.0
O313 O 0.91391 0.5934 0.75027 0.0
O314 O 0.90065 0.62064 0.81382 0.0
O315 O 0.86727 0.59911 0.81438 0.0
O316 O 0.85117 0.55456 0.82014 0.0
O317 O 0.88236 0.567 0.78505 0.0
C318 C 0.85712 0.6176 0.74109 0.0
C319 C 0.86831 0.55339 0.81009 0.0
Dy320 Dy 0.43822 0.26773 0.78323 0.0
C321 C 0.39659 0.31682 0.73512 0.0
C322 C 0.44991 0.23952 0.81147 0.0
Dy323 Dy 0.41005 0.29031 0.76302 0.0
O324 O 0.46319 0.25825 0.79687 0.0
O325 O 0.43056 0.23669 0.81177 0.0
O326 O 0.45805 0.27859 0.72706 0.0
O327 O 0.43464 0.28599 0.73793 0.0
C328 C 0.44861 0.28868 0.71357 0.0
C329 C 0.39604 0.2687 0.83014 0.0
O330 O 0.39382 0.26035 0.72693 0.0
O331 O 0.40936 0.24166 0.75471 0.0
O332 O 0.38769 0.29643 0.72712 0.0
O333 O 0.41315 0.32266 0.75718 0.0
O334 O 0.38809 0.27947 0.81416 0.0
O335 O 0.41157 0.27064 0.80944 0.0
O336 O 0.45553 0.29785 0.81791 0.0
O337 O 0.44152 0.31668 0.78564 0.0
C338 C 0.39489 0.24256 0.73246 0.0
C339 C 0.45556 0.31589 0.8095 0.0
Dy340 Dy 0.74142 0.17007 0.78296 0.0
C341 C 0.69402 0.08267 0.73087 0.0
C342 C 0.7697 0.21144 0.80543 0.0
Dy343 Dy 0.71956 0.12244 0.76131 0.0
O344 O 0.76304 0.20536 0.77057 0.0
O345 O 0.7605 0.19496 0.82834 0.0
O346 O 0.71913 0.17395 0.74164 0.0
O347 O 0.72876 0.15158 0.72937 0.0
C348 C 0.71676 0.1587 0.71846 0.0
C349 C 0.73825 0.12595 0.83004 0.0
O350 O 0.75036 0.13452 0.72866 0.0
O351 O 0.76895 0.16699 0.76119 0.0
O352 O 0.71491 0.09337 0.72904 0.0
O353 O 0.68715 0.09422 0.74777 0.0
O354 O 0.72656 0.10808 0.81201 0.0
O355 O 0.73863 0.14132 0.81126 0.0
O356 O 0.71127 0.15823 0.81737 0.0
O357 O 0.6925 0.12757 0.78031 0.0
C358 C 0.76848 0.15232 0.73762 0.0
C359 C 0.69298 0.14147 0.80588 0.0
Dy360 Dy 0.41141 0.1243 0.26483 0.0
C361 C 0.45052 0.21286 0.30654 0.0
C362 C 0.39433 0.08375 0.23647 0.0
Dy363 Dy 0.43877 0.17188 0.28289 0.0
O364 O 0.38433 0.09457 0.23891 0.0
O365 O 0.41413 0.09561 0.24773 0.0
O366 O 0.39132 0.11116 0.3172 0.0
O367 O 0.413 0.14435 0.31453 0.0
C368 C 0.39815 0.12935 0.33439 0.0
C369 C 0.45055 0.15887 0.21847 0.0
O370 O 0.4552 0.15909 0.32032 0.0
O371 O 0.44287 0.12811 0.28425 0.0
O372 O 0.46321 0.20743 0.28938 0.0
O373 O 0.43186 0.19588 0.31162 0.0
O374 O 0.46393 0.17486 0.23987 0.0
O375 O 0.43168 0.15236 0.23039 0.0
O376 O 0.39248 0.13609 0.23214 0.0
O377 O 0.41221 0.17203 0.2501 0.0
C378 C 0.45633 0.14194 0.30982 0.0
C379 C 0.39561 0.1559 0.23273 0.0
Dy380 Dy 0.88454 0.2869 0.265 0.0
C381 C 0.79869 0.24121 0.30415 0.0
C382 C 0.92823 0.30978 0.25975 0.0
Dy383 Dy 0.83982 0.26978 0.28025 0.0
O384 O 0.91718 0.29425 0.28327 0.0
O385 O 0.91539 0.31266 0.23742 0.0
O386 O 0.88265 0.25898 0.29517 0.0
O387 O 0.86622 0.27351 0.31894 0.0
C388 C 0.87121 0.25887 0.32391 0.0
C389 C 0.85301 0.29532 0.21691 0.0
O390 O 0.85036 0.29855 0.31735 0.0
O391 O 0.88382 0.31567 0.28918 0.0
O392 O 0.80367 0.25661 0.27962 0.0
O393 O 0.8161 0.24183 0.31588 0.0
O394 O 0.83796 0.29355 0.24003 0.0
O395 O 0.85876 0.282 0.22656 0.0
O396 O 0.8735 0.2601 0.22258 0.0
O397 O 0.83983 0.24218 0.2502 0.0
C398 C 0.86902 0.31611 0.31128 0.0
C399 C 0.85457 0.24246 0.22702 0.0
Dy400 Dy 0.72033 0.59981 0.26396 0.0
C401 C 0.77023 0.56034 0.30565 0.0
C402 C 0.69343 0.61264 0.23482 0.0
Dy403 Dy 0.74153 0.57295 0.28289 0.0
O404 O 0.71432 0.62412 0.23487 0.0
O405 O 0.68737 0.59385 0.24938 0.0
O406 O 0.72972 0.62216 0.31396 0.0
O407 O 0.74016 0.59966 0.31189 0.0
C408 C 0.74099 0.61518 0.33116 0.0
C409 C 0.71473 0.55973 0.22109 0.0
O410 O 0.71221 0.55494 0.31947 0.0
O411 O 0.69349 0.5694 0.28945 0.0
O412 O 0.75992 0.55533 0.2732 0.0
O413 O 0.76436 0.5717 0.32607 0.0
O414 O 0.71707 0.5467 0.24393 0.0
O415 O 0.72777 0.57882 0.23094 0.0
O416 O 0.75045 0.61807 0.22913 0.0
O417 O 0.76841 0.60108 0.25308 0.0
C418 C 0.69416 0.55516 0.31275 0.0
C419 C 0.76794 0.61633 0.23255 0.0
Dy420 Dy 0.45882 0.07495 0.92886 0.0
C421 C 0.54768 0.11594 0.88749 0.0
C422 C 0.41935 0.06349 0.95816 0.0
Dy423 Dy 0.50569 0.10111 0.90855 0.0
O424 O 0.42837 0.05165 0.95933 0.0
O425 O 0.43241 0.08189 0.94265 0.0
O426 O 0.44416 0.05262 0.88024 0.0
O427 O 0.47777 0.07416 0.8787 0.0
C428 C 0.46178 0.05867 0.8614 0.0
C429 C 0.49331 0.11492 0.97129 0.0
O430 O 0.49449 0.1191 0.8722 0.0
O431 O 0.4621 0.10529 0.9043 0.0
O432 O 0.54068 0.11352 0.92255 0.0
O433 O 0.53178 0.11056 0.86384 0.0
O434 O 0.50824 0.1277 0.94759 0.0
O435 O 0.48713 0.09578 0.96183 0.0
O436 O 0.47083 0.05648 0.96252 0.0
O437 O 0.50387 0.07138 0.93163 0.0
C438 C 0.47651 0.11915 0.87997 0.0
C439 C 0.48925 0.05707 0.95508 0.0
Dy440 Dy 0.93512 0.38879 0.9229 0.0
C441 C 0.8914 0.4307 0.88036 0.0
C442 C 0.95492 0.36613 0.94187 0.0
Dy443 Dy 0.90744 0.40475 0.90314 0.0
O444 O 0.96454 0.38653 0.93499 0.0
O445 O 0.93428 0.3581 0.93967 0.0
O446 O 0.96221 0.41434 0.88992 0.0
O447 O 0.93138 0.40139 0.86672 0.0
C448 C 0.95122 0.41542 0.8617 0.0
C449 C 0.89407 0.3791 0.96666 0.0
O450 O 0.88943 0.37504 0.86836 0.0
O451 O 0.90707 0.3593 0.89676 0.0
O452 O 0.8898 0.42299 0.91462 0.0
O453 O 0.90124 0.42376 0.85837 0.0
O454 O 0.88113 0.37935 0.94082 0.0
O455 O 0.91309 0.39329 0.95868 0.0
O456 O 0.9466 0.41504 0.96627 0.0
O457 O 0.93615 0.43375 0.92733 0.0
C458 C 0.89143 0.35804 0.87477 0.0
C459 C 0.94775 0.43329 0.95623 0.0
Dy460 Dy 0.6257 0.55201 0.91721 0.0
C461 C 0.57512 0.46248 0.88252 0.0
C462 C 0.64457 0.59447 0.93359 0.0
Dy463 Dy 0.60358 0.503 0.90833 0.0
O464 O 0.62551 0.58295 0.91902 0.0
O465 O 0.65314 0.58261 0.94048 0.0
O466 O 0.62429 0.55441 0.85338 0.0
O467 O 0.59893 0.5287 0.88121 0.0
C468 C 0.60529 0.53785 0.84872 0.0
C469 C 0.62643 0.51502 0.97543 0.0
O470 O 0.63301 0.51372 0.8719 0.0
O471 O 0.65319 0.54786 0.89835 0.0
O472 O 0.59372 0.46811 0.89785 0.0
O473 O 0.57248 0.47903 0.88057 0.0
O474 O 0.61498 0.49513 0.96419 0.0
O475 O 0.62438 0.52644 0.95032 0.0
O476 O 0.59717 0.54158 0.95666 0.0
O477 O 0.57916 0.50473 0.94434 0.0
C478 C 0.65158 0.53165 0.87766 0.0
C479 C 0.58039 0.52186 0.96086 0.0
Dy480 Dy 0.57436 0.83655 0.74072 0.0
C481 C 0.62501 0.92523 0.77067 0.0
C482 C 0.55858 0.79442 0.71935 0.0
Dy483 Dy 0.60121 0.8826 0.75348 0.0
O484 O 0.55869 0.80103 0.75415 0.0
O485 O 0.56663 0.81079 0.69616 0.0
O486 O 0.54866 0.83494 0.78081 0.0
O487 O 0.58088 0.85685 0.7926 0.0
C488 C 0.56179 0.85061 0.80297 0.0
C489 C 0.60784 0.87127 0.68206 0.0
O490 O 0.62093 0.87217 0.78764 0.0
O491 O 0.60209 0.83646 0.76876 0.0
O492 O 0.63243 0.91378 0.75539 0.0
O493 O 0.60471 0.9131 0.77842 0.0
O494 O 0.60414 0.88675 0.68966 0.0
O495 O 0.60502 0.861 0.71315 0.0
O496 O 0.55685 0.84853 0.704 0.0
O497 O 0.56966 0.87981 0.73845 0.0
C498 C 0.61843 0.85258 0.78664 0.0
C499 C 0.5558 0.86578 0.71376 0.0
Dy500 Dy 0.17453 0.74111 0.74239 0.0
C501 C 0.08269 0.69963 0.76541 0.0
C502 C 0.21585 0.76794 0.71819 0.0
Dy503 Dy 0.1256 0.71936 0.75134 0.0
O504 O 0.20957 0.7641 0.75371 0.0
O505 O 0.19955 0.75671 0.69553 0.0
O506 O 0.18225 0.72785 0.7959 0.0
O507 O 0.15098 0.7197 0.78388 0.0
C508 C 0.16247 0.71702 0.80801 0.0
C509 C 0.14041 0.74025 0.68326 0.0
O510 O 0.13561 0.74766 0.79072 0.0
O511 O 0.17146 0.76706 0.77136 0.0
O512 O 0.094 0.7184 0.74975 0.0
O513 O 0.09502 0.69197 0.77492 0.0
O514 O 0.1241 0.72102 0.68729 0.0
O515 O 0.14915 0.74646 0.71608 0.0
O516 O 0.16399 0.71035 0.70928 0.0
O517 O 0.12965 0.69142 0.7353 0.0
C518 C 0.15485 0.76532 0.79092 0.0
C519 C 0.1458 0.69203 0.71576 0.0
Dy520 Dy 0.27081 0.43551 0.74091 0.0
C521 C 0.30767 0.38481 0.7755 0.0
C522 C 0.2453 0.45209 0.71909 0.0
Dy523 Dy 0.28918 0.40843 0.75538 0.0
O524 O 0.24974 0.44978 0.75429 0.0
O525 O 0.25526 0.44585 0.69575 0.0
O526 O 0.29523 0.4613 0.78052 0.0
O527 O 0.28376 0.42904 0.79371 0.0
C528 C 0.29696 0.44807 0.80365 0.0
C529 C 0.27233 0.40178 0.68318 0.0
O530 O 0.25837 0.38861 0.78774 0.0
O531 O 0.24217 0.40785 0.76781 0.0
O532 O 0.28924 0.37734 0.75849 0.0
O533 O 0.31552 0.40504 0.78324 0.0
O534 O 0.29133 0.40523 0.69186 0.0
O535 O 0.26441 0.40478 0.71359 0.0
O536 O 0.30069 0.45242 0.70458 0.0
O537 O 0.31849 0.43973 0.74097 0.0
C538 C 0.24144 0.39135 0.78594 0.0
C539 C 0.31885 0.45354 0.71565 0.0
Dy540 Dy 0.50659 0.90562 0.11645 0.0
C541 C 0.59471 0.94504 0.07068 0.0
C542 C 0.46488 0.89153 0.13889 0.0
Dy543 Dy 0.55467 0.93289 0.09787 0.0
O544 O 0.47105 0.8911 0.10395 0.0
O545 O 0.48145 0.89924 0.16164 0.0
O546 O 0.5047 0.8797 0.07634 0.0
O547 O 0.52641 0.91189 0.06447 0.0
C548 C 0.52028 0.89288 0.05395 0.0
C549 C 0.54904 0.94815 0.16497 0.0
O550 O 0.54244 0.95068 0.06261 0.0
O551 O 0.50844 0.93486 0.09063 0.0
O552 O 0.58552 0.95672 0.06909 0.0
O553 O 0.58159 0.92647 0.08562 0.0
O554 O 0.56734 0.95531 0.14775 0.0
O555 O 0.53441 0.93256 0.14572 0.0
O556 O 0.51792 0.88756 0.1524 0.0
O557 O 0.55106 0.90227 0.12221 0.0
C558 C 0.52356 0.94952 0.06823 0.0
C559 C 0.53619 0.88786 0.14536 0.0
Dy560 Dy 0.1033 0.60133 0.11497 0.0
C561 C 0.0543 0.63949 0.07802 0.0
C562 C 0.11952 0.57561 0.13737 0.0
Dy563 Dy 0.07735 0.62071 0.09902 0.0
O564 O 0.11742 0.58007 0.10209 0.0
O565 O 0.11316 0.58555 0.16049 0.0
O566 O 0.12934 0.62523 0.07492 0.0
O567 O 0.09714 0.61378 0.06132 0.0
C568 C 0.1162 0.62662 0.05106 0.0
C569 C 0.07028 0.60501 0.17163 0.0
O570 O 0.05685 0.58998 0.06755 0.0
O571 O 0.07476 0.57285 0.08982 0.0
O572 O 0.04713 0.62224 0.09859 0.0
O573 O 0.07392 0.64603 0.06718 0.0
O574 O 0.07449 0.62414 0.16217 0.0
O575 O 0.07288 0.59613 0.1421 0.0
O576 O 0.12056 0.63137 0.15047 0.0
O577 O 0.10921 0.6495 0.11179 0.0
C578 C 0.05869 0.57261 0.07092 0.0
C579 C 0.12262 0.64962 0.13771 0.0
Dy580 Dy 0.40948 0.50452 0.11384 0.0
C581 C 0.36528 0.41662 0.06508 0.0
C582 C 0.43643 0.54608 0.13742 0.0
Dy583 Dy 0.38922 0.45712 0.09367 0.0
O584 O 0.43034 0.5401 0.10227 0.0
O585 O 0.42738 0.5294 0.15985 0.0
O586 O 0.38647 0.50732 0.07294 0.0
O587 O 0.39695 0.48558 0.06054 0.0
C588 C 0.38436 0.49209 0.04997 0.0
C589 C 0.40778 0.46134 0.16262 0.0
O590 O 0.42007 0.46979 0.06081 0.0
O591 O 0.43767 0.50326 0.09031 0.0
O592 O 0.38617 0.42751 0.06618 0.0
O593 O 0.35756 0.42846 0.07752 0.0
O594 O 0.3964 0.44338 0.14482 0.0
O595 O 0.40788 0.47659 0.14372 0.0
O596 O 0.37918 0.49215 0.14801 0.0
O597 O 0.36123 0.46059 0.11304 0.0
C598 C 0.43769 0.48844 0.06785 0.0
C599 C 0.3612 0.4747 0.13754 0.0
Dy600 Dy 0.07869 0.45844 0.59884 0.0
C601 C 0.12028 0.54597 0.63702 0.0
C602 C 0.0547 0.41618 0.57976 0.0
Dy603 Dy 0.10472 0.50412 0.61352 0.0
O604 O 0.0475 0.42737 0.59677 0.0
O605 O 0.07494 0.42838 0.57147 0.0
O606 O 0.07625 0.45291 0.66212 0.0
O607 O 0.07443 0.47899 0.64131 0.0
C608 C 0.07198 0.46784 0.67117 0.0
C609 C 0.11756 0.49105 0.55004 0.0
O610 O 0.12227 0.49173 0.64924 0.0
O611 O 0.11073 0.46173 0.61167 0.0
O612 O 0.11935 0.53975 0.60167 0.0
O613 O 0.11319 0.52938 0.65954 0.0
O614 O 0.13068 0.50618 0.57314 0.0
O615 O 0.0985 0.4848 0.56051 0.0
O616 O 0.05823 0.46856 0.56661 0.0
O617 O 0.07667 0.50409 0.58641 0.0
C618 C 0.12423 0.47533 0.63725 0.0
C619 C 0.0604 0.48797 0.56838 0.0
Dy620 Dy 0.55309 0.62123 0.60247 0.0
C621 C 0.46461 0.57461 0.63675 0.0
C622 C 0.59472 0.64091 0.57886 0.0
Dy623 Dy 0.50665 0.60147 0.61515 0.0
O624 O 0.58391 0.62136 0.59154 0.0
O625 O 0.5827 0.64964 0.57853 0.0
O626 O 0.55835 0.62122 0.66594 0.0
O627 O 0.5314 0.59556 0.64212 0.0
C628 C 0.54189 0.60253 0.67322 0.0
C629 C 0.52117 0.62883 0.55396 0.0
O630 O 0.51847 0.63083 0.65262 0.0
O631 O 0.54997 0.6496 0.61882 0.0
O632 O 0.47111 0.58107 0.6019 0.0
O633 O 0.48102 0.58328 0.65986 0.0
O634 O 0.50543 0.62621 0.57613 0.0
O635 O 0.52712 0.61573 0.5639 0.0
O636 O 0.54319 0.59102 0.56934 0.0
O637 O 0.50683 0.57414 0.58487 0.0
C638 C 0.53575 0.64924 0.6433 0.0
C639 C 0.52349 0.57419 0.56855 0.0
Dy640 Dy 0.39064 0.93312 0.59395 0.0
C641 C 0.43648 0.89367 0.63883 0.0
C642 C 0.36659 0.95209 0.57856 0.0
Dy643 Dy 0.40789 0.90593 0.61352 0.0
O644 O 0.38678 0.96204 0.58749 0.0
O645 O 0.35958 0.93162 0.5765 0.0
O646 O 0.41629 0.95971 0.62775 0.0
O647 O 0.403 0.92871 0.64986 0.0
C648 C 0.41709 0.94838 0.65565 0.0
C649 C 0.38281 0.89267 0.54952 0.0
O650 O 0.37903 0.88912 0.65108 0.0
O651 O 0.36171 0.9039 0.61842 0.0
O652 O 0.41984 0.88202 0.61731 0.0
O653 O 0.43704 0.91153 0.64705 0.0
O654 O 0.3839 0.87966 0.57413 0.0
O655 O 0.39632 0.91176 0.55842 0.0
O656 O 0.41695 0.94638 0.55047 0.0
O657 O 0.43575 0.93327 0.58323 0.0
C658 C 0.36129 0.88944 0.64244 0.0
C659 C 0.43504 0.94632 0.55736 0.0
Dy660 Dy 0.12597 0.40975 0.25555 0.0
C661 C 0.21571 0.44953 0.21692 0.0
C662 C 0.08618 0.39849 0.28224 0.0
Dy663 Dy 0.17384 0.43552 0.23743 0.0
O664 O 0.09649 0.38835 0.29031 0.0
O665 O 0.09786 0.41489 0.26052 0.0
O666 O 0.11276 0.38777 0.2049 0.0
O667 O 0.14575 0.40957 0.20723 0.0
C668 C 0.13095 0.39441 0.18755 0.0
C669 C 0.16134 0.4484 0.30154 0.0
O670 O 0.16298 0.45445 0.20254 0.0
O671 O 0.13184 0.4423 0.23793 0.0
O672 O 0.20847 0.44655 0.2519 0.0
O673 O 0.2001 0.44513 0.19306 0.0
O674 O 0.17724 0.4613 0.27953 0.0
O675 O 0.15433 0.42941 0.28994 0.0
O676 O 0.13696 0.3902 0.28846 0.0
O677 O 0.16985 0.40419 0.25712 0.0
C678 C 0.14613 0.45599 0.21326 0.0
C679 C 0.15478 0.38978 0.27993 0.0
Dy680 Dy 0.6031 0.71854 0.26066 0.0
C681 C 0.56337 0.7677 0.21573 0.0
C682 C 0.61917 0.69406 0.28823 0.0
Dy683 Dy 0.5758 0.73921 0.24059 0.0
O684 O 0.63012 0.71475 0.2834 0.0
O685 O 0.59903 0.68696 0.28029 0.0
O686 O 0.62386 0.72614 0.20842 0.0
O687 O 0.60155 0.73662 0.21112 0.0
C688 C 0.61647 0.73691 0.19088 0.0
C689 C 0.56382 0.7147 0.30545 0.0
O690 O 0.559 0.70966 0.2042 0.0
O691 O 0.57177 0.69108 0.23957 0.0
O692 O 0.55336 0.75291 0.24151 0.0
O693 O 0.57969 0.76644 0.20293 0.0
O694 O 0.55052 0.71698 0.28325 0.0
O695 O 0.58277 0.72701 0.29373 0.0
O696 O 0.62116 0.74914 0.29443 0.0
O697 O 0.60393 0.76655 0.26926 0.0
C698 C 0.55813 0.69147 0.21436 0.0
C699 C 0.61947 0.76658 0.28969 0.0
Dy700 Dy 0.29049 0.88454 0.25542 0.0
C701 C 0.24346 0.79437 0.21581 0.0
C702 C 0.3108 0.92632 0.27836 0.0
Dy703 Dy 0.26958 0.83571 0.23984 0.0
O704 O 0.29093 0.91549 0.26696 0.0
O705 O 0.3193 0.91409 0.27836 0.0
O706 O 0.28875 0.88946 0.19245 0.0
O707 O 0.26427 0.8619 0.21725 0.0
C708 C 0.2704 0.87232 0.18588 0.0
C709 C 0.29324 0.8465 0.30614 0.0
O710 O 0.30028 0.84809 0.20606 0.0
O711 O 0.31858 0.8811 0.23708 0.0
O712 O 0.24644 0.80088 0.2512 0.0
O713 O 0.25509 0.8105 0.19302 0.0
O714 O 0.28317 0.82712 0.29224 0.0
O715 O 0.28995 0.85802 0.28328 0.0
O716 O 0.26144 0.87179 0.29412 0.0
O717 O 0.24255 0.83784 0.26637 0.0
C718 C 0.31837 0.86604 0.21467 0.0
C719 C 0.2436 0.85288 0.2897 0.0
H720 H 0.20072 0.09059 0.09004 0.0
H721 H 0.23892 0.02277 0.96451 0.0
H722 H 0.24326 0.11627 0.9926 0.0
H723 H 0.178 0.99141 0.02435 0.0
H724 H 0.24373 0.05749 0.9835 0.0
H725 H 0.19452 0.05448 0.0739 0.0
C726 C 0.20866 0.0886 0.06518 0.0
C727 C 0.22244 0.10641 0.04247 0.0
C728 C 0.2293 0.04304 0.99253 0.0
C729 C 0.21587 0.06541 0.02452 0.0
C730 C 0.22653 0.02309 0.98186 0.0
C731 C 0.2079 1.00395 0.99255 0.0
C732 C 0.21346 0.04413 0.01448 0.0
C733 C 0.1926 0.00567 0.01535 0.0
C734 C 0.20512 0.06803 0.05602 0.0
C735 C 0.23238 0.10298 1.01068 0.0
N736 N 0.19571 0.02541 0.02556 0.0
N737 N 0.22907 0.08298 1.0029 0.0
H738 H 0.98697 0.21623 0.96677 0.0
H739 H 0.91875 0.10702 0.08332 0.0
H740 H 0.01754 0.18331 0.01689 0.0
H741 H 0.89218 0.12859 0.99448 0.0
H742 H 0.955 0.13655 0.06676 0.0
H743 H 0.95209 0.18655 0.98569 0.0
C744 C 0.98644 0.20281 0.98189 0.0
C745 C 1.00539 0.20231 0.98989 0.0
C746 C 0.94122 0.13472 0.05085 0.0
C747 C 0.96505 0.16798 0.01172 0.0
C748 C 0.92058 0.11792 0.06026 0.0
C749 C 0.9025 0.11534 0.04007 0.0
C750 C 0.94365 0.14931 0.02175 0.0
C751 C 0.90571 0.12989 1.01052 0.0
C752 C 0.9664 0.18577 0.99255 0.0
C753 C 1.00343 0.18442 1.00997 0.0
N754 N 0.92582 0.14634 1.00253 0.0
N755 N 0.98361 0.16794 0.02019 0.0
H756 H 0.82069 0.83146 0.03227 0.0
H757 H 0.88769 0.77211 0.99062 0.0
H758 H 0.80059 0.77846 0.95316 0.0
H759 H 0.8958 0.807 0.096 0.0
H760 H 0.85821 0.77808 0.97279 0.0
H761 H 0.85047 0.82614 0.05314 0.0
C762 C 0.82243 0.81867 0.01944 0.0
C763 C 0.80809 0.80543 0.99082 0.0
C764 C 0.86645 0.78453 0.99977 0.0
C765 C 0.84219 0.79947 0.01422 0.0
C766 C 0.88339 0.78125 1.00984 0.0
C767 C 0.89423 0.78914 0.04476 0.0
C768 C 0.86043 0.79611 0.02449 0.0
C769 C 0.88782 0.80066 0.06878 0.0
C770 C 0.83941 0.81565 0.03138 0.0
C771 C 0.8112 0.78913 0.97521 0.0
N772 N 0.87137 0.80392 0.05812 0.0
N773 N 0.82792 0.78673 0.9869 0.0
H774 H 0.99473 0.1708 0.51325 0.0
H775 H 0.12113 0.25635 0.50193 0.0
H776 H 0.02359 0.23716 0.54846 0.0
H777 H 0.09425 0.19053 0.46503 0.0
H778 H 0.08502 0.24939 0.51724 0.0
H779 H 0.0304 0.17743 0.49336 0.0
C780 C 0.0085 0.1868 0.51645 0.0
C781 C 1.00616 0.20343 0.5327 0.0
C782 C 0.08692 0.23637 0.50599 0.0
C783 C 0.04698 0.21109 0.51012 0.0
C784 C 0.10758 0.24034 0.49739 0.0
C785 C 0.11067 0.22393 0.48252 0.0
C786 C 0.0691 0.21575 0.50008 0.0
C787 C 0.09252 0.20359 0.47656 0.0
C788 C 0.02887 0.19054 0.50523 0.0
C789 C 0.0246 0.22379 0.53639 0.0
N790 N 0.07248 0.20002 0.48555 0.0
N791 N 0.04415 0.22701 0.52528 0.0
H792 H 0.79891 0.88567 0.42386 0.0
H793 H 0.78891 0.80373 0.5873 0.0
H794 H 0.78489 0.89176 0.54219 0.0
H795 H 0.82667 0.81285 0.48513 0.0
H796 H 0.78399 0.83357 0.56791 0.0
H797 H 0.80626 0.85696 0.44254 0.0
C798 C 0.79753 0.88107 0.4538 0.0
C799 C 0.79132 0.89113 0.48157 0.0
C800 C 0.79338 0.82911 0.54969 0.0
C801 C 0.79938 0.85815 0.50296 0.0
C802 C 0.79609 0.81194 0.56059 0.0
C803 C 0.80818 0.80569 0.53772 0.0
C804 C 0.80249 0.84004 0.51525 0.0
C805 C 0.81727 0.81715 0.50364 0.0
C806 C 0.80174 0.86472 0.46441 0.0
C807 C 0.78969 0.88448 0.51989 0.0
N808 N 0.8141 0.83369 0.49324 0.0
N809 N 0.79351 0.86832 0.52938 0.0
H810 H 0.10053 0.91511 0.48484 0.0
H811 H 0.22549 0.99036 0.53614 0.0
H812 H 0.14613 0.89307 0.49764 0.0
H813 H 0.1821 0.01536 0.52716 0.0
H814 H 0.19639 0.955 0.51804 0.0
H815 H 0.12961 0.95208 0.49801 0.0
C816 C 0.11661 0.91805 0.49061 0.0
C817 C 0.12094 0.90103 0.49042 0.0
C818 C 0.19311 0.96815 0.51985 0.0
C819 C 0.15418 0.94308 0.50484 0.0
C820 C 0.20979 0.98841 0.53014 0.0
C821 C 0.20618 0.00581 0.53339 0.0
C822 C 0.17244 0.96502 0.51309 0.0
C823 C 0.18556 1.00236 0.52484 0.0
C824 C 0.13319 0.93912 0.49794 0.0
C825 C 0.14203 0.90567 0.49779 0.0
N826 N 0.16935 0.98227 0.51541 0.0
N827 N 0.1578 0.92619 0.50461 0.0
H828 H 0.83086 0.01649 0.9908 0.0
H829 H 0.77785 0.89189 0.04125 0.0
H830 H 0.77947 0.98389 0.0732 0.0
H831 H 0.80731 0.91677 0.93103 0.0
H832 H 0.78298 0.92727 0.05781 0.0
H833 H 0.82642 0.98152 0.97173 0.0
C834 C 0.8186 1.00204 1.00473 0.0
C835 C 0.80557 1.00319 0.03373 0.0
C836 C 0.78842 0.92503 0.03005 0.0
C837 C 0.80071 0.96333 0.01256 0.0
C838 C 0.78565 0.9049 0.02073 0.0
C839 C 0.79222 0.90147 0.98479 0.0
C840 C 0.79812 0.94196 1.00347 0.0
C841 C 0.80205 0.91882 0.95909 0.0
C842 C 0.81609 0.98212 0.99382 0.0
C843 C 0.78992 0.98389 0.05073 0.0
N844 N 0.80479 0.93839 0.96896 0.0
N845 N 0.78808 0.96485 0.04014 0.0
H846 H 0.0952 0.90941 0.96974 0.0
H847 H 0.02241 0.78672 0.03756 0.0
H848 H 0.11908 0.86614 0.99294 0.0
H849 H 0.996 0.82846 0.02084 0.0
H850 H 0.05742 0.81555 0.01692 0.0
H851 H 0.05853 0.8803 0.98524 0.0
C852 C 0.09271 0.8938 0.97805 0.0
C853 C 0.1102 0.8902 0.98033 0.0
C854 C 0.04404 0.81852 0.01761 0.0
C855 C 0.06843 0.85685 0.99751 0.0
C856 C 0.02396 0.80199 0.02939 0.0
C857 C 1.00622 0.80518 0.03117 0.0
C858 C 0.04668 0.83865 1.00775 0.0
C859 C 0.00923 0.82528 0.01978 0.0
C860 C 0.07181 0.87721 0.98682 0.0
C861 C 0.10611 0.86971 0.99117 0.0
N862 N 0.02913 0.84134 1.00884 0.0
N863 N 0.08574 0.85388 0.99924 0.0
H864 H 0.1912 0.17497 0.99556 0.0
H865 H 0.12519 0.23531 0.04 0.0
H866 H 0.21415 0.23037 0.06982 0.0
H867 H 0.11496 0.19846 0.9364 0.0
H868 H 0.15484 0.22918 0.057 0.0
H869 H 0.16039 0.17938 0.97803 0.0
C870 C 0.18986 0.18808 1.00801 0.0
C871 C 0.20535 0.2023 0.03421 0.0
C872 C 0.14601 0.2223 0.03066 0.0
C873 C 0.17005 0.20717 0.01482 0.0
C874 C 0.129 0.22566 0.02115 0.0
C875 C 0.11764 0.21735 0.98683 0.0
C876 C 0.15148 0.21024 1.00599 0.0
C877 C 0.12339 0.20516 0.96314 0.0
C878 C 0.17228 0.19057 0.99803 0.0
C879 C 0.2027 0.21897 0.04952 0.0
N880 N 0.13988 0.2019 0.9732 0.0
N881 N 0.18539 0.22084 0.03981 0.0
H882 H 0.98838 0.77425 0.46513 0.0
H883 H 0.92063 0.81106 0.59295 0.0
H884 H 0.02023 0.8345 0.52687 0.0
H885 H 0.89571 0.77173 0.4915 0.0
H886 H 0.95682 0.8174 0.57681 0.0
H887 H 0.95377 0.76984 0.48378 0.0
C888 C 0.98818 0.78659 0.48276 0.0
C889 C 0.00742 0.80493 0.49408 0.0
C890 C 0.94342 0.80751 0.55805 0.0
C891 C 0.9674 0.79981 0.51563 0.0
C892 C 0.92282 0.80389 0.56719 0.0
C893 C 0.90523 0.79094 0.54337 0.0
C894 C 0.94621 0.7976 0.52546 0.0
C895 C 0.90886 0.78197 0.51044 0.0
C896 C 0.96831 0.78405 0.49325 0.0
C897 C 1.00588 0.82015 0.51734 0.0
N898 N 0.92887 0.78526 0.50271 0.0
N899 N 0.98618 0.81726 0.52737 0.0
H900 H 0.20658 0.10416 0.49267 0.0
H901 H 0.23549 0.22572 0.52161 0.0
H902 H 0.24235 0.14165 0.59079 0.0
H903 H 0.17765 0.17978 0.46324 0.0
H904 H 0.24135 0.19624 0.54184 0.0
H905 H 0.19886 0.13284 0.47517 0.0
C906 C 0.21277 0.11839 0.51052 0.0
C907 C 0.225 0.12049 0.54335 0.0
C908 C 0.22729 0.19258 0.52483 0.0
C909 C 0.21659 0.15341 0.52321 0.0
C910 C 0.22396 0.20937 0.51339 0.0
C911 C 0.20593 0.20503 0.49129 0.0
C912 C 0.21286 0.17142 0.51298 0.0
C913 C 0.19155 0.18364 0.48087 0.0
C914 C 0.20831 0.13469 0.50061 0.0
C915 C 0.23271 0.13931 0.56541 0.0
N916 N 0.19544 0.16763 0.49142 0.0
N917 N 0.22854 0.15509 0.55479 0.0
H918 H 0.8952 0.11508 0.47834 0.0
H919 H 0.81546 0.99264 0.53901 0.0
H920 H 0.88903 0.09382 0.59584 0.0
H921 H 0.80785 0.02184 0.43644 0.0
H922 H 0.84571 0.02791 0.55823 0.0
H923 H 0.86673 0.07904 0.45993 0.0
C924 C 0.88795 0.10276 0.50022 0.0
C925 C 0.89443 0.10743 0.53866 0.0
C926 C 0.83737 0.02651 0.53154 0.0
C927 C 0.8618 0.06613 0.51785 0.0
C928 C 0.82017 0.00642 0.52054 0.0
C929 C 0.80901 0.00433 0.48623 0.0
C930 C 0.8437 0.04446 0.50759 0.0
C931 C 0.81579 0.02272 0.46337 0.0
C932 C 0.87163 0.08222 0.48975 0.0
C933 C 0.88447 0.09086 0.56586 0.0
N934 N 0.83271 0.04191 0.47433 0.0
N935 N 0.86864 0.07092 0.55496 0.0
H936 H 0.8583 0.42365 0.40417 0.0
H937 H 0.90592 0.35506 0.30576 0.0
H938 H 0.91806 0.45085 0.3413 0.0
H939 H 0.84116 0.32543 0.35051 0.0
H940 H 0.91143 0.39009 0.32461 0.0
H941 H 0.85215 0.38741 0.38952 0.0
C942 C 0.87004 0.42198 0.38718 0.0
C943 C 0.88865 0.44025 0.37373 0.0
C944 C 0.89601 0.37596 0.33047 0.0
C945 C 0.88194 0.39906 0.35743 0.0
C946 C 0.89286 0.35586 0.31981 0.0
C947 C 0.87299 0.33717 0.32633 0.0
C948 C 0.8792 0.37759 0.34788 0.0
C949 C 0.85675 0.33937 0.34486 0.0
C950 C 0.86657 0.40134 0.37891 0.0
C951 C 0.90342 0.43723 0.35204 0.0
N952 N 0.86017 0.35922 0.35484 0.0
N953 N 0.89979 0.41711 0.34471 0.0
H954 H 0.65684 0.55607 0.32036 0.0
H955 H 0.58454 0.4336 0.38982 0.0
H956 H 0.6838 0.51511 0.34106 0.0
H957 H 0.55981 0.47536 0.3597 0.0
H958 H 0.62122 0.46307 0.37561 0.0
H959 H 0.62167 0.52694 0.33963 0.0
C960 C 0.65541 0.54095 0.32919 0.0
C961 C 0.67337 0.53807 0.32886 0.0
C962 C 0.60775 0.46575 0.37218 0.0
C963 C 0.63271 0.50423 0.3507 0.0
C964 C 0.58684 0.44894 0.38021 0.0
C965 C 0.56911 0.45202 0.37571 0.0
C966 C 0.6109 0.4858 0.35999 0.0
C967 C 0.57297 0.4722 0.36326 0.0
C968 C 0.63522 0.52423 0.34014 0.0
C969 C 0.67043 0.5181 0.34099 0.0
N970 N 0.59336 0.48826 0.35597 0.0
N971 N 0.65045 0.50187 0.35114 0.0
H972 H 0.46663 0.11228 0.28453 0.0
H973 H 0.56186 0.13926 0.43104 0.0
H974 H 0.48681 0.16412 0.36635 0.0
H975 H 0.55621 0.11016 0.32007 0.0
H976 H 0.53238 0.14584 0.41353 0.0
H977 H 0.4967 0.10787 0.3038 0.0
C978 C 0.4773 0.12273 0.30676 0.0
C979 C 0.47411 0.13869 0.32373 0.0
C980 C 0.53774 0.13817 0.393 0.0
C981 C 0.50889 0.13358 0.34599 0.0
C982 C 0.55451 0.1344 0.40294 0.0
C983 C 0.56149 0.12419 0.37689 0.0
C984 C 0.52763 0.13123 0.35712 0.0
C985 C 0.55141 0.11816 0.34093 0.0
C986 C 0.49461 0.12023 0.31758 0.0
C987 C 0.48864 0.15164 0.35241 0.0
N988 N 0.53489 0.12157 0.33228 0.0
N989 N 0.50539 0.14877 0.36277 0.0
H990 H 0.77001 0.56486 0.75733 0.0
H991 H 0.66909 0.50725 0.89828 0.0
H992 H 0.77398 0.53831 0.866 0.0
H993 H 0.67974 0.56014 0.82553 0.0
H994 H 0.70444 0.51249 0.879 0.0
H995 H 0.73368 0.55726 0.77413 0.0
C996 C 0.76315 0.55725 0.78461 0.0
C997 C 0.775 0.5522 0.81036 0.0
C998 C 0.69892 0.52279 0.86699 0.0
C999 C 0.7334 0.54329 0.82953 0.0
C1000 C 0.67876 0.5197 0.87769 0.0
C1001 C 0.67158 0.53319 0.86309 0.0
C1002 C 0.7117 0.53918 0.84088 0.0
C1003 C 0.68476 0.54937 0.83715 0.0
C1004 C 0.74248 0.55302 0.79422 0.0
C1005 C 0.76537 0.54246 0.84539 0.0
N1006 N 0.70415 0.55183 0.82661 0.0
N1007 N 0.74506 0.53821 0.85391 0.0
H1008 H 0.43842 0.1186 0.87564 0.0
H1009 H 0.48893 0.24097 0.80669 0.0
H1010 H 0.50593 0.1586 0.84934 0.0
H1011 H 0.42243 0.19936 0.83776 0.0
H1012 H 0.49592 0.21131 0.8196 0.0
H1013 H 0.43248 0.14789 0.85767 0.0
C1014 C 0.45203 0.13355 0.86581 0.0
C1015 C 0.47275 0.13617 0.86428 0.0
C1016 C 0.47983 0.20873 0.82366 0.0
C1017 C 0.46607 0.17014 0.84397 0.0
C1018 C 0.47587 0.22566 0.81651 0.0
C1019 C 0.4551 0.22262 0.82144 0.0
C1020 C 0.46285 0.18868 0.83568 0.0
C1021 C 0.43871 0.20246 0.83382 0.0
C1022 C 0.44862 0.15035 0.85561 0.0
C1023 C 0.48968 0.15587 0.85092 0.0
N1024 N 0.44293 0.18631 0.84045 0.0
N1025 N 0.48601 0.17221 0.84157 0.0
H1026 H 0.79401 0.22365 0.87081 0.0
H1027 H 0.85994 0.34874 0.82084 0.0
H1028 H 0.785 0.24862 0.76421 0.0
H1029 H 0.88385 0.31844 0.89789 0.0
H1030 H 0.83008 0.3131 0.80345 0.0
H1031 H 0.82438 0.25938 0.88598 0.0
C1032 C 0.7983 0.23672 0.85081 0.0
C1033 C 0.78698 0.23323 0.81628 0.0
C1034 C 0.84198 0.3143 0.82394 0.0
C1035 C 0.82163 0.27411 0.8334 0.0
C1036 C 0.85904 0.33462 0.83386 0.0
C1037 C 0.87449 0.33664 0.86083 0.0
C1038 C 0.84012 0.29588 0.84165 0.0
C1039 C 0.87242 0.31773 0.87683 0.0
C1040 C 0.81572 0.25705 0.85932 0.0
C1041 C 0.79333 0.25067 0.79117 0.0
N1042 N 0.85546 0.2982 0.8673 0.0
N1043 N 0.81016 0.2704 0.8003 0.0
H1044 H 0.48975 0.25043 0.30574 0.0
H1045 H 0.43804 0.32228 0.37001 0.0
H1046 H 0.42211 0.22573 0.32633 0.0
H1047 H 0.50594 0.34948 0.34798 0.0
H1048 H 0.43215 0.28712 0.35063 0.0
H1049 H 0.49646 0.28697 0.3191 0.0
C1050 C 0.47635 0.25271 0.31307 0.0
C1051 C 0.45537 0.23504 0.31525 0.0
C1052 C 0.44836 0.30075 0.34979 0.0
C1053 C 0.46282 0.27666 0.32996 0.0
C1054 C 0.45173 0.32088 0.36078 0.0
C1055 C 0.47252 0.33888 0.36072 0.0
C1056 C 0.46595 0.29836 0.33901 0.0
C1057 C 0.48961 0.33607 0.34826 0.0
C1058 C 0.48016 0.27354 0.32057 0.0
C1059 C 0.43857 0.23886 0.32475 0.0
N1060 N 0.48598 0.31615 0.33825 0.0
N1061 N 0.44265 0.25918 0.33168 0.0
H1062 H 0.66016 0.15704 0.33692 0.0
H1063 H 0.78799 0.20638 0.34855 0.0
H1064 H 0.69179 0.12565 0.38888 0.0
H1065 H 0.75957 0.23699 0.28368 0.0
H1066 H 0.75219 0.17724 0.36455 0.0
H1067 H 0.69561 0.18674 0.31717 0.0
C1068 C 0.67447 0.15628 0.34391 0.0
C1069 C 0.67294 0.13882 0.36477 0.0
C1070 C 0.75364 0.19028 0.34686 0.0
C1071 C 0.71343 0.17274 0.34259 0.0
C1072 C 0.77414 0.20702 0.33783 0.0
C1073 C 0.77675 0.22416 0.31485 0.0
C1074 C 0.73541 0.1906 0.33302 0.0
C1075 C 0.75821 0.22405 0.30157 0.0
C1076 C 0.69469 0.17326 0.33273 0.0
C1077 C 0.69206 0.13876 0.37311 0.0
N1078 N 0.73826 0.20752 0.31091 0.0
N1079 N 0.71138 0.15542 0.36216 0.0
H1080 H 0.80104 0.5802 0.36062 0.0
H1081 H 0.85661 0.50863 0.32878 0.0
H1082 H 0.77968 0.53115 0.27329 0.0
H1083 H 0.88695 0.56917 0.38954 0.0
H1084 H 0.82718 0.51493 0.31071 0.0
H1085 H 0.8312 0.57447 0.37505 0.0
C1086 C 0.8026 0.56806 0.34474 0.0
C1087 C 0.78779 0.55605 0.31586 0.0
C1088 C 0.84039 0.5269 0.32772 0.0
C1089 C 0.8223 0.54935 0.33224 0.0
C1090 C 0.85724 0.52334 0.33801 0.0
C1091 C 0.87437 0.53838 0.36078 0.0
C1092 C 0.84048 0.5455 0.34064 0.0
C1093 C 0.87417 0.55709 0.37198 0.0
C1094 C 0.8199 0.56489 0.35279 0.0
C1095 C 0.79074 0.54073 0.29583 0.0
N1096 N 0.85746 0.56002 0.36208 0.0
N1097 N 0.80757 0.53771 0.30454 0.0
H1098 H 0.65579 0.12408 0.76522 0.0
H1099 H 0.58233 0.12704 0.93443 0.0
H1100 H 0.68271 0.15349 0.8746 0.0
H1101 H 0.56353 0.11823 0.81522 0.0
H1102 H 0.61848 0.13473 0.91522 0.0
H1103 H 0.62116 0.11956 0.78503 0.0
C1104 C 0.65437 0.12949 0.79358 0.0
C1105 C 0.67213 0.13906 0.81842 0.0
C1106 C 0.60649 0.13131 0.89329 0.0
C1107 C 0.63232 0.1338 0.84144 0.0
C1108 C 0.58588 0.12691 0.9042 0.0
C1109 C 0.56993 0.122 0.87633 0.0
C1110 C 0.61108 0.13054 0.85426 0.0
C1111 C 0.57533 0.12194 0.83763 0.0
C1112 C 0.6346 0.12702 0.80478 0.0
C1113 C 0.66941 0.14606 0.85459 0.0
N1114 N 0.59537 0.12598 0.82778 0.0
N1115 N 0.64979 0.1431 0.86521 0.0
H1116 H 0.84708 0.52404 0.86848 0.0
H1117 H 0.90027 0.45262 0.81291 0.0
H1118 H 0.89552 0.54086 0.78075 0.0
H1119 H 0.87025 0.44664 0.92312 0.0
H1120 H 0.89395 0.4821 0.79686 0.0
H1121 H 0.85135 0.49316 0.88612 0.0
C1122 C 0.85863 0.52133 0.85305 0.0
C1123 C 0.871 0.53517 0.82317 0.0
C1124 C 0.88865 0.47432 0.82453 0.0
C1125 C 0.87564 0.49976 0.84266 0.0
C1126 C 0.89214 0.45739 0.8336 0.0
C1127 C 0.88579 0.4472 0.86938 0.0
C1128 C 0.87855 0.48108 0.85129 0.0
C1129 C 0.87539 0.45411 0.89518 0.0
C1130 C 0.86105 0.50372 0.86312 0.0
C1131 C 0.88569 0.53081 0.80413 0.0
N1132 N 0.87207 0.47064 0.88565 0.0
N1133 N 0.88747 0.5135 0.81401 0.0
H1134 H 0.57704 0.42514 0.88564 0.0
H1135 H 0.45486 0.35328 0.81515 0.0
H1136 H 0.53481 0.44963 0.85714 0.0
H1137 H 0.49528 0.32599 0.83893 0.0
H1138 H 0.48398 0.38835 0.83423 0.0
H1139 H 0.54767 0.38853 0.87105 0.0
C1140 C 0.56164 0.42281 0.87617 0.0
C1141 C 0.55834 0.4404 0.87238 0.0
C1142 C 0.48658 0.37475 0.83546 0.0
C1143 C 0.52477 0.3988 0.8562 0.0
C1144 C 0.46988 0.35464 0.82459 0.0
C1145 C 0.47265 0.33664 0.82517 0.0
C1146 C 0.50642 0.37712 0.84686 0.0
C1147 C 0.49244 0.33943 0.83811 0.0
C1148 C 0.5449 0.40195 0.86801 0.0
C1149 C 0.5381 0.43655 0.86024 0.0
N1150 N 0.50867 0.35936 0.84818 0.0
N1151 N 0.52214 0.41622 0.85267 0.0
H1152 H 0.53387 0.75686 0.75915 0.0
H1153 H 0.56877 0.68931 0.62623 0.0
H1154 H 0.57125 0.78174 0.65557 0.0
H1155 H 0.50999 0.6573 0.69234 0.0
H1156 H 0.57311 0.72384 0.6451 0.0
H1157 H 0.52736 0.72073 0.7422 0.0
C1158 C 0.54059 0.75468 0.73278 0.0
C1159 C 0.55305 0.77227 0.70861 0.0
C1160 C 0.55923 0.70929 0.65548 0.0
C1161 C 0.54616 0.7313 0.68969 0.0
C1162 C 0.55674 0.68946 0.64487 0.0
C1163 C 0.53886 0.6702 0.65746 0.0
C1164 C 0.54389 0.71014 0.67928 0.0
C1165 C 0.52399 0.67168 0.68185 0.0
C1166 C 0.53686 0.73411 0.72316 0.0
C1167 C 0.56142 0.76861 0.67486 0.0
N1168 N 0.52685 0.69133 0.69204 0.0
N1169 N 0.55804 0.74864 0.66665 0.0
H1170 H 0.2294 0.78505 0.64645 0.0
H1171 H 0.3524 0.8628 0.70497 0.0
H1172 H 0.2519 0.78872 0.76254 0.0
H1173 H 0.32201 0.87565 0.60979 0.0
H1174 H 0.31717 0.83238 0.72343 0.0
H1175 H 0.26511 0.81473 0.62859 0.0
C1176 C 0.24193 0.79196 0.66804 0.0
C1177 C 0.23773 0.78446 0.70599 0.0
C1178 C 0.31827 0.84196 0.69861 0.0
C1179 C 0.27852 0.81833 0.68586 0.0
C1180 C 0.33834 0.8593 0.6881 0.0
C1181 C 0.34013 0.8719 0.65599 0.0
C1182 C 0.30001 0.83688 0.67629 0.0
C1183 C 0.32138 0.86656 0.63504 0.0
C1184 C 0.26223 0.80897 0.65793 0.0
C1185 C 0.25449 0.79405 0.73294 0.0
N1186 N 0.30218 0.84938 0.64535 0.0
N1187 N 0.27417 0.81046 0.72237 0.0
H1188 H 0.14243 0.45548 0.59869 0.0
H1189 H 0.22297 0.46515 0.76516 0.0
H1190 H 0.14814 0.48979 0.70386 0.0
H1191 H 0.23054 0.45221 0.6469 0.0
H1192 H 0.19405 0.47204 0.74575 0.0
H1193 H 0.17288 0.45152 0.61837 0.0
C1194 C 0.15003 0.46209 0.6261 0.0
C1195 C 0.14266 0.47291 0.64976 0.0
C1196 C 0.2022 0.46791 0.72404 0.0
C1197 C 0.17764 0.46834 0.67258 0.0
C1198 C 0.2187 0.46399 0.73507 0.0
C1199 C 0.22918 0.45814 0.70755 0.0
C1200 C 0.19597 0.46568 0.68529 0.0
C1201 C 0.22292 0.45672 0.66902 0.0
C1202 C 0.16753 0.45994 0.63719 0.0
C1203 C 0.15334 0.48137 0.68473 0.0
N1204 N 0.20663 0.46028 0.6591 0.0
N1205 N 0.1702 0.47875 0.69528 0.0
H1206 H 0.32688 0.84558 0.15548 0.0
H1207 H 0.45196 0.89925 0.20783 0.0
H1208 H 0.35807 0.89325 0.24437 0.0
H1209 H 0.42775 0.87198 0.09605 0.0
H1210 H 0.41607 0.8925 0.22549 0.0
H1211 H 0.36228 0.85082 0.13641 0.0
C1212 C 0.34111 0.85713 0.17095 0.0
C1213 C 0.33945 0.86905 0.20148 0.0
C1214 C 0.41856 0.88792 0.19711 0.0
C1215 C 0.37985 0.87483 0.18027 0.0
C1216 C 0.43903 0.89167 0.1871 0.0
C1217 C 0.44284 0.88618 0.15043 0.0
C1218 C 0.40161 0.87834 0.17045 0.0
C1219 C 0.42548 0.87647 0.12464 0.0
C1220 C 0.36129 0.86013 0.16001 0.0
C1221 C 0.35848 0.8838 0.22047 0.0
N1222 N 0.40559 0.8728 0.13515 0.0
N1223 N 0.37776 0.88614 0.20975 0.0
H1224 H 0.11713 0.55916 0.20894 0.0
H1225 H 0.16355 0.48221 0.14968 0.0
H1226 H 0.13586 0.55569 0.09257 0.0
H1227 H 0.12348 0.4721 0.24898 0.0
H1228 H 0.15864 0.51256 0.13089 0.0
H1229 H 0.12491 0.53085 0.2272 0.0
C1230 C 0.12309 0.55257 0.18732 0.0
C1231 C 0.12583 0.55974 0.14921 0.0
C1232 C 0.15096 0.50364 0.15677 0.0
C1233 C 0.13479 0.52732 0.16984 0.0
C1234 C 0.1538 0.48638 0.16753 0.0
C1235 C 0.1438 0.47449 0.20079 0.0
C1236 C 0.13843 0.50925 0.1799 0.0
C1237 C 0.13133 0.48061 0.22287 0.0
C1238 C 0.12743 0.53634 0.19769 0.0
C1239 C 0.13352 0.55058 0.12229 0.0
N1240 N 0.1291 0.49756 0.21215 0.0
N1241 N 0.13775 0.53483 0.1331 0.0
H1242 H 0.52905 0.68351 0.1557 0.0
H1243 H 0.45763 0.55838 0.20585 0.0
H1244 H 0.54621 0.65145 0.24166 0.0
H1245 H 0.45353 0.58343 0.09566 0.0
H1246 H 0.48717 0.59401 0.22344 0.0
H1247 H 0.49871 0.64838 0.13639 0.0
C1248 C 0.52653 0.66916 0.17041 0.0
C1249 C 0.54029 0.67051 0.20034 0.0
C1250 C 0.47977 0.59177 0.19544 0.0
C1251 C 0.50546 0.63042 0.17885 0.0
C1252 C 0.46282 0.57146 0.18551 0.0
C1253 C 0.45313 0.56797 0.14928 0.0
C1254 C 0.48697 0.60885 0.16917 0.0
C1255 C 0.4606 0.58547 0.1239 0.0
C1256 C 0.50922 0.64913 0.15936 0.0
C1257 C 0.53618 0.65131 0.21835 0.0
N1258 N 0.47705 0.6052 0.13435 0.0
N1259 N 0.51912 0.63219 0.20754 0.0
H1260 H 0.1675 0.68409 0.65789 0.0
H1261 H 0.11354 0.55868 0.70707 0.0
H1262 H 0.11887 0.65221 0.74504 0.0
H1263 H 0.13985 0.58339 0.59498 0.0
H1264 H 0.12074 0.59453 0.72597 0.0
H1265 H 0.16257 0.64888 0.63843 0.0
C1266 C 0.15585 0.66976 0.67297 0.0
C1267 C 0.14349 0.67116 0.703 0.0
C1268 C 0.12505 0.59216 0.69728 0.0
C1269 C 0.13807 0.63096 0.68136 0.0
C1270 C 0.12105 0.57171 0.68655 0.0
C1271 C 0.1261 0.56803 0.6494 0.0
C1272 C 0.13448 0.60925 0.6709 0.0
C1273 C 0.13569 0.58554 0.62391 0.0
C1274 C 0.15301 0.64969 0.66178 0.0
C1275 C 0.12863 0.65199 0.72149 0.0
N1276 N 0.13964 0.60541 0.63514 0.0
N1277 N 0.12645 0.63282 0.71057 0.0
H1278 H 0.42748 0.55842 0.59413 0.0
H1279 H 0.35859 0.4641 0.74288 0.0
H1280 H 0.45149 0.55249 0.70421 0.0
H1281 H 0.3278 0.4836 0.6583 0.0
H1282 H 0.39341 0.49387 0.72346 0.0
H1283 H 0.39147 0.52906 0.61218 0.0
C1284 C 0.42514 0.55103 0.62216 0.0
C1285 C 0.44247 0.55795 0.6478 0.0
C1286 C 0.37907 0.49169 0.70912 0.0
C1287 C 0.40153 0.52417 0.66824 0.0
C1288 C 0.3591 0.47457 0.72004 0.0
C1289 C 0.3401 0.47127 0.70228 0.0
C1290 C 0.3803 0.50566 0.67981 0.0
C1291 C 0.34198 0.48553 0.67288 0.0
C1292 C 0.40461 0.53431 0.63241 0.0
C1293 C 0.43857 0.54777 0.68366 0.0
N1294 N 0.36173 0.50206 0.66245 0.0
N1295 N 0.41862 0.53131 0.69265 0.0
H1296 H 0.51856 0.83732 0.67518 0.0
H1297 H 0.47429 0.92024 0.67425 0.0
H1298 H 0.5531 0.9022 0.71911 0.0
H1299 H 0.43788 0.85635 0.62696 0.0
H1300 H 0.50334 0.91335 0.68987 0.0
H1301 H 0.48908 0.84344 0.65572 0.0
C1302 C 0.52005 0.85288 0.68044 0.0
C1303 C 0.53834 0.86923 0.69898 0.0
C1304 C 0.48902 0.90072 0.6762 0.0
C1305 C 0.50468 0.87629 0.677 0.0
C1306 C 0.47235 0.90465 0.66738 0.0
C1307 C 0.45359 0.8888 0.64946 0.0
C1308 C 0.48701 0.88071 0.66728 0.0
C1309 C 0.45208 0.86897 0.64089 0.0
C1310 C 0.50318 0.85633 0.66946 0.0
C1311 C 0.53931 0.88902 0.7052 0.0
N1312 N 0.46857 0.86545 0.64996 0.0
N1313 N 0.52278 0.89193 0.69435 0.0
H1314 H 0.25053 0.46189 0.26394 0.0
H1315 H 0.3229 0.45257 0.10032 0.0
H1316 H 0.23117 0.44979 0.14511 0.0
H1317 H 0.35136 0.49005 0.20275 0.0
H1318 H 0.28811 0.44785 0.11959 0.0
H1319 H 0.28662 0.46915 0.24531 0.0
C1320 C 0.25394 0.46091 0.23391 0.0
C1321 C 0.23788 0.45525 0.20597 0.0
C1322 C 0.30194 0.45711 0.1379 0.0
C1323 C 0.2789 0.4632 0.18464 0.0
C1324 C 0.32181 0.4597 0.12708 0.0
C1325 C 0.34008 0.47164 0.15008 0.0
C1326 C 0.30009 0.4662 0.17238 0.0
C1327 C 0.33769 0.48073 0.18417 0.0
C1328 C 0.27451 0.46508 0.22333 0.0
C1329 C 0.24309 0.45413 0.16753 0.0
N1330 N 0.31799 0.47767 0.19451 0.0
N1331 N 0.26308 0.45788 0.15805 0.0
H1332 H 0.58988 0.8053 0.17943 0.0
H1333 H 0.50701 0.84953 0.17998 0.0
H1334 H 0.52679 0.76989 0.23048 0.0
H1335 H 0.57357 0.88657 0.14513 0.0
H1336 H 0.51315 0.82003 0.19863 0.0
H1337 H 0.58334 0.83484 0.16568 0.0
C1338 C 0.57453 0.80367 0.18742 0.0
C1339 C 0.5588 0.78507 0.20589 0.0
C1340 C 0.52641 0.8347 0.18717 0.0
C1341 C 0.55112 0.81896 0.19022 0.0
C1342 C 0.52295 0.85159 0.17667 0.0
C1343 C 0.53976 0.87058 0.16075 0.0
C1344 C 0.54681 0.83681 0.18165 0.0
C1345 C 0.56004 0.87223 0.15693 0.0
C1346 C 0.57083 0.82062 0.17977 0.0
C1347 C 0.53932 0.78397 0.2161 0.0
N1348 N 0.56293 0.8556 0.16708 0.0
N1349 N 0.53596 0.80064 0.20796 0.0
H1350 H 0.22095 0.75953 0.26188 0.0
H1351 H 0.14091 0.68688 0.09706 0.0
H1352 H 0.22938 0.77908 0.14307 0.0
H1353 H 0.14681 0.65992 0.20395 0.0
H1354 H 0.17161 0.72148 0.11517 0.0
H1355 H 0.19237 0.72365 0.24297 0.0
C1356 C 0.21691 0.75619 0.23172 0.0
C1357 C 0.22753 0.77226 0.20393 0.0
C1358 C 0.16625 0.70802 0.13467 0.0
C1359 C 0.19468 0.73135 0.18222 0.0
C1360 C 0.14861 0.68827 0.12451 0.0
C1361 C 0.1412 0.67052 0.1492 0.0
C1362 C 0.17643 0.71022 0.17011 0.0
C1363 C 0.15202 0.67321 0.18411 0.0
C1364 C 0.20062 0.73571 0.22099 0.0
C1365 C 0.22162 0.76712 0.16535 0.0
N1366 N 0.16899 0.69277 0.19373 0.0
N1367 N 0.20544 0.74714 0.15565 0.0
H1368 H 0.279 0.14848 0.15004 0.0
H1369 H 0.40185 0.19487 0.2097 0.0
H1370 H 0.32736 0.21562 0.14168 0.0
H1371 H 0.35372 0.1275 0.214 0.0
H1372 H 0.37488 0.20284 0.18482 0.0
H1373 H 0.30598 0.14077 0.17561 0.0
C1374 C 0.29532 0.16164 0.15378 0.0
C1375 C 0.30102 0.18272 0.14357 0.0
C1376 C 0.37021 0.18631 0.19111 0.0
C1377 C 0.33205 0.17394 0.17237 0.0
C1378 C 0.3856 0.18172 0.20523 0.0
C1379 C 0.37996 0.16048 0.21401 0.0
C1380 C 0.34897 0.16956 0.18604 0.0
C1381 C 0.35876 0.14408 0.20739 0.0
C1382 C 0.31072 0.1572 0.16828 0.0
C1383 C 0.3223 0.19917 0.14938 0.0
N1384 N 0.34397 0.14899 0.19401 0.0
N1385 N 0.33712 0.19439 0.16318 0.0
H1386 H 0.79848 0.10775 0.1723 0.0
H1387 H 0.87931 0.23519 0.17525 0.0
H1388 H 0.8572 0.13964 0.1059 0.0
H1389 H 0.81903 0.20311 0.23711 0.0
H1390 H 0.87156 0.20035 0.14905 0.0
H1391 H 0.80607 0.14274 0.19703 0.0
C1392 C 0.81295 0.12207 0.16295 0.0
C1393 C 0.82719 0.12074 0.13699 0.0
C1394 C 0.86003 0.20101 0.16828 0.0
C1395 C 0.83593 0.1608 0.16492 0.0
C1396 C 0.86443 0.22089 0.18312 0.0
C1397 C 0.84982 0.2221 0.20835 0.0
C1398 C 0.84096 0.18226 0.17899 0.0
C1399 C 0.83077 0.20303 0.21765 0.0
C1400 C 0.81727 0.14205 0.177 0.0
C1401 C 0.84575 0.13984 0.12593 0.0
N1402 N 0.82696 0.18393 0.20312 0.0
N1403 N 0.84956 0.15907 0.13991 0.0
H1404 H 0.78132 0.65826 0.21455 0.0
H1405 H 0.89649 0.68227 0.13623 0.0
H1406 H 0.80068 0.61031 0.20857 0.0
H1407 H 0.87909 0.73114 0.15403 0.0
H1408 H 0.8612 0.65534 0.16123 0.0
H1409 H 0.81662 0.68494 0.18933 0.0
C1410 C 0.79289 0.6533 0.20738 0.0
C1411 C 0.78813 0.63211 0.21364 0.0
C1412 C 0.8652 0.672 0.1599 0.0
C1413 C 0.82852 0.66244 0.18513 0.0
C1414 C 0.88538 0.68737 0.14588 0.0
C1415 C 0.8907 0.70895 0.14298 0.0
C1416 C 0.85031 0.6783 0.17114 0.0
C1417 C 0.8756 0.71465 0.15546 0.0
C1418 C 0.8131 0.66854 0.19331 0.0
C1419 C 0.80379 0.62656 0.2044 0.0
N1420 N 0.8561 0.69942 0.16888 0.0
N1421 N 0.82328 0.64162 0.1906 0.0
H1422 H 0.13316 0.36152 0.33881 0.0
H1423 H 0.2126 0.31306 0.34086 0.0
H1424 H 0.1856 0.38015 0.25875 0.0
H1425 H 0.1564 0.29014 0.41321 0.0
H1426 H 0.20354 0.3385 0.31127 0.0
H1427 H 0.14175 0.33554 0.36725 0.0
C1428 C 0.14636 0.36006 0.32707 0.0
C1429 C 0.15872 0.37311 0.29652 0.0
C1430 C 0.1932 0.32786 0.33361 0.0
C1431 C 0.16871 0.34354 0.32888 0.0
C1432 C 0.19842 0.31339 0.35054 0.0
C1433 C 0.18519 0.29937 0.37934 0.0
C1434 C 0.17477 0.32839 0.34588 0.0
C1435 C 0.16696 0.30048 0.39078 0.0
C1436 C 0.15131 0.34528 0.34335 0.0
C1437 C 0.17572 0.37059 0.28253 0.0
N1438 N 0.16233 0.31473 0.3741 0.0
N1439 N 0.18023 0.35616 0.29885 0.0
H1440 H 0.64906 0.77348 0.34614 0.0
H1441 H 0.69763 0.90116 0.3478 0.0
H1442 H 0.62578 0.80648 0.27421 0.0
H1443 H 0.7165 0.86755 0.42754 0.0
H1444 H 0.67157 0.86658 0.31946 0.0
H1445 H 0.67467 0.80801 0.37534 0.0
C1446 C 0.64934 0.78795 0.33648 0.0
C1447 C 0.6352 0.78707 0.30788 0.0
C1448 C 0.68139 0.86681 0.34326 0.0
C1449 C 0.6644 0.82654 0.34091 0.0
C1450 C 0.69622 0.88654 0.35947 0.0
C1451 C 0.70932 0.88727 0.38994 0.0
C1452 C 0.67966 0.84773 0.35771 0.0
C1453 C 0.70687 0.86781 0.40385 0.0
C1454 C 0.66391 0.80764 0.35318 0.0
C1455 C 0.63624 0.80633 0.29644 0.0
N1456 N 0.69237 0.84886 0.38759 0.0
N1457 N 0.6506 0.82525 0.31294 0.0
H1458 H 0.208 0.81374 0.30099 0.0
H1459 H 0.13611 0.86139 0.38142 0.0
H1460 H 0.23264 0.88144 0.32089 0.0
H1461 H 0.11285 0.79339 0.36942 0.0
H1462 H 0.17097 0.86901 0.35677 0.0
H1463 H 0.17306 0.80611 0.32517 0.0
C1464 C 0.20611 0.82705 0.3107 0.0
C1465 C 0.2233 0.84833 0.30872 0.0
C1466 C 0.15825 0.85243 0.35935 0.0
C1467 C 0.18305 0.83959 0.33624 0.0
C1468 C 0.13824 0.848 0.37328 0.0
C1469 C 0.12146 0.82665 0.3777 0.0
C1470 C 0.16165 0.83541 0.34967 0.0
C1471 C 0.12525 0.81007 0.36641 0.0
C1472 C 0.18608 0.82263 0.32445 0.0
C1473 C 0.21988 0.86481 0.32202 0.0
N1474 N 0.14499 0.81481 0.3531 0.0
N1475 N 0.20008 0.8601 0.335 0.0
H1476 H 0.726 0.85967 0.91101 0.0
H1477 H 0.62049 0.81579 0.78189 0.0
H1478 H 0.69519 0.79754 0.85536 0.0
H1479 H 0.65307 0.87937 0.83198 0.0
H1480 H 0.64728 0.80868 0.80985 0.0
H1481 H 0.69914 0.86689 0.88344 0.0
C1482 C 0.71364 0.84754 0.89282 0.0
C1483 C 0.71289 0.82794 0.88539 0.0
C1484 C 0.64859 0.82418 0.81484 0.0
C1485 C 0.68199 0.83621 0.85379 0.0
C1486 C 0.63323 0.82828 0.79896 0.0
C1487 C 0.63449 0.84825 0.80466 0.0
C1488 C 0.66537 0.84011 0.83676 0.0
C1489 C 0.65148 0.86377 0.82684 0.0
C1490 C 0.69827 0.85171 0.87714 0.0
C1491 C 0.6964 0.81285 0.86183 0.0
N1492 N 0.66627 0.85936 0.84214 0.0
N1493 N 0.68159 0.81732 0.84685 0.0
H1494 H 0.18976 0.79261 0.83263 0.0
H1495 H 0.15227 0.87964 0.86121 0.0
H1496 H 0.12826 0.78246 0.7943 0.0
H1497 H 0.21539 0.89082 0.89099 0.0
H1498 H 0.14274 0.84386 0.83758 0.0
H1499 H 0.19835 0.82776 0.85792 0.0
C1500 C 0.17797 0.79776 0.82997 0.0
C1501 C 0.15827 0.78468 0.81156 0.0
C1502 C 0.15869 0.85414 0.84916 0.0
C1503 C 0.1682 0.82514 0.83935 0.0
C1504 C 0.16417 0.87459 0.8625 0.0
C1505 C 0.18467 0.8882 0.87794 0.0
C1506 C 0.17371 0.8471 0.85186 0.0
C1507 C 0.1995 0.88092 0.87885 0.0
C1508 C 0.18292 0.81787 0.84415 0.0
C1509 C 0.14351 0.792 0.80882 0.0
N1510 N 0.19366 0.86079 0.86629 0.0
N1511 N 0.14886 0.81188 0.82226 0.0
H1512 H 0.13537 0.27586 0.88105 0.0
H1513 H 0.20508 0.39419 0.79461 0.0
H1514 H 0.11015 0.31863 0.86358 0.0
H1515 H 0.23019 0.35157 0.8152 0.0
H1516 H 0.17011 0.36662 0.81846 0.0
H1517 H 0.16965 0.30291 0.85425 0.0
C1518 C 0.13699 0.29093 0.87133 0.0
C1519 C 0.11987 0.29505 0.8748 0.0
C1520 C 0.18325 0.36329 0.81781 0.0
C1521 C 0.15932 0.32625 0.84429 0.0
C1522 C 0.20329 0.37904 0.80426 0.0
C1523 C 0.22065 0.37518 0.80283 0.0
C1524 C 0.18046 0.34345 0.82996 0.0
C1525 C 0.21731 0.35529 0.81588 0.0
C1526 C 0.15663 0.3064 0.85608 0.0
C1527 C 0.12289 0.31476 0.86135 0.0
N1528 N 0.19758 0.34014 0.82879 0.0
N1529 N 0.14233 0.32972 0.84691 0.0
H1530 H 0.80193 0.69656 0.67929 0.0
H1531 H 0.87886 0.6455 0.68232 0.0
H1532 H 0.85909 0.71931 0.60962 0.0
H1533 H 0.82618 0.62733 0.76165 0.0
H1534 H 0.87118 0.67207 0.65418 0.0
H1535 H 0.80984 0.67035 0.70892 0.0
C1536 C 0.8161 0.69603 0.67022 0.0
C1537 C 0.8299 0.71016 0.64207 0.0
C1538 C 0.86135 0.66232 0.67785 0.0
C1539 C 0.83897 0.68025 0.67553 0.0
C1540 C 0.86575 0.64716 0.69395 0.0
C1541 C 0.85313 0.63415 0.72432 0.0
C1542 C 0.84423 0.6645 0.69227 0.0
C1543 C 0.83627 0.63694 0.73811 0.0
C1544 C 0.82064 0.68112 0.68717 0.0
C1545 C 0.84809 0.70884 0.63145 0.0
N1546 N 0.8323 0.65179 0.72196 0.0
N1547 N 0.85205 0.69411 0.64809 0.0
H1548 H 0.31812 0.10828 0.67273 0.0
H1549 H 0.36386 0.23552 0.67855 0.0
H1550 H 0.29608 0.14126 0.59786 0.0
H1551 H 0.38947 0.2028 0.74561 0.0
H1552 H 0.3378 0.20088 0.65012 0.0
H1553 H 0.34374 0.14289 0.70145 0.0
C1554 C 0.31874 0.12276 0.66221 0.0
C1555 C 0.30498 0.12186 0.63283 0.0
C1556 C 0.3492 0.20139 0.67103 0.0
C1557 C 0.33407 0.16141 0.66554 0.0
C1558 C 0.36405 0.22114 0.68723 0.0
C1559 C 0.379 0.22215 0.71424 0.0
C1560 C 0.34931 0.1826 0.68214 0.0
C1561 C 0.37844 0.20295 0.72461 0.0
C1562 C 0.33331 0.14251 0.67864 0.0
C1563 C 0.30637 0.14114 0.62046 0.0
N1564 N 0.36386 0.18402 0.70856 0.0
N1565 N 0.32063 0.1601 0.6369 0.0
H1566 H 0.90332 0.2082 0.68031 0.0
H1567 H 0.77545 0.129 0.68251 0.0
H1568 H 0.86979 0.15308 0.6057 0.0
H1569 H 0.80865 0.18531 0.75458 0.0
H1570 H 0.8101 0.1371 0.65495 0.0
H1571 H 0.86876 0.19965 0.70908 0.0
C1572 C 0.88873 0.19431 0.67005 0.0
C1573 C 0.88945 0.18134 0.64064 0.0
C1574 C 0.80975 0.14765 0.67684 0.0
C1575 C 0.84997 0.17147 0.67322 0.0
C1576 C 0.78998 0.14301 0.69259 0.0
C1577 C 0.78911 0.1565 0.72079 0.0
C1578 C 0.82874 0.16587 0.6895 0.0
C1579 C 0.80848 0.17447 0.73276 0.0
C1580 C 0.86902 0.18943 0.68643 0.0
C1581 C 0.87005 0.16354 0.62837 0.0
N1582 N 0.82747 0.17862 0.71705 0.0
N1583 N 0.85113 0.15915 0.6447 0.0
H1584 H 0.945 0.47713 0.46825 0.0
H1585 H 0.06258 0.52661 0.55827 0.0
H1586 H 0.98459 0.54383 0.50029 0.0
H1587 H 0.02054 0.45849 0.54024 0.0
H1588 H 0.03445 0.53311 0.53489 0.0
H1589 H 0.9723 0.46979 0.49402 0.0
C1590 C 0.95936 0.49021 0.48104 0.0
C1591 C 0.96259 0.51116 0.48206 0.0
C1592 C 0.03132 0.51673 0.53606 0.0
C1593 C 0.99398 0.5029 0.51105 0.0
C1594 C 0.04742 0.51298 0.54931 0.0
C1595 C 0.04388 0.49194 0.55138 0.0
C1596 C 0.01146 0.49933 0.52476 0.0
C1597 C 0.02397 0.47497 0.53905 0.0
C1598 C 0.97495 0.48599 0.49565 0.0
C1599 C 0.98142 0.52744 0.49905 0.0
N1600 N 0.00845 0.47904 0.52633 0.0
N1601 N 0.9965 0.52299 0.51261 0.0
H1602 H 0.53662 0.54765 0.59697 0.0
H1603 H 0.49712 0.46708 0.42258 0.0
H1604 H 0.50158 0.55492 0.50332 0.0
H1605 H 0.49264 0.44368 0.53815 0.0
H1606 H 0.50489 0.502 0.44829 0.0
H1607 H 0.52727 0.5119 0.57223 0.0
C1608 C 0.52725 0.54177 0.57086 0.0
C1609 C 0.52001 0.55408 0.55167 0.0
C1610 C 0.5021 0.48919 0.46799 0.0
C1611 C 0.50933 0.51369 0.5236 0.0
C1612 C 0.49774 0.46938 0.45344 0.0
C1613 C 0.49426 0.45269 0.47847 0.0
C1614 C 0.5036 0.49246 0.50779 0.0
C1615 C 0.49513 0.45625 0.51813 0.0
C1616 C 0.52174 0.52141 0.5571 0.0
C1617 C 0.50757 0.54582 0.51847 0.0
N1618 N 0.50005 0.47597 0.53172 0.0
N1619 N 0.50277 0.52613 0.50515 0.0
H1620 H 0.5675 0.01935 0.48283 0.0
H1621 H 0.44372 0.98301 0.51909 0.0
H1622 H 0.54055 0.06078 0.46664 0.0
H1623 H 0.47224 0.94494 0.55269 0.0
H1624 H 0.4787 0.01058 0.49464 0.0
H1625 H 0.53239 0.99102 0.5056 0.0
C1626 C 0.55429 0.02257 0.48444 0.0
C1627 C 0.55694 0.04242 0.47269 0.0
C1628 C 0.47727 0.99612 0.50715 0.0
C1629 C 0.51678 0.01008 0.49814 0.0
C1630 C 0.45726 0.98032 0.52078 0.0
C1631 C 0.45514 0.96174 0.53799 0.0
C1632 C 0.49516 0.99321 0.51059 0.0
C1633 C 0.47324 0.95912 0.53981 0.0
C1634 C 0.53424 0.00637 0.49722 0.0
C1635 C 0.53923 0.04567 0.47515 0.0
N1636 N 0.49253 0.97473 0.52636 0.0
N1637 N 0.5199 0.02964 0.48745 0.0
H1638 H 0.48395 0.94438 0.05452 0.0
H1639 H 0.52886 0.06162 0.96566 0.0
H1640 H 0.55163 0.98956 0.03889 0.0
H1641 H 0.46137 0.01731 0.98558 0.0
H1642 H 0.53745 0.03542 0.99195 0.0
H1643 H 0.47543 0.97048 0.02763 0.0
C1644 C 0.49706 0.95983 0.04539 0.0
C1645 C 0.51858 0.96487 0.04917 0.0
C1646 C 0.52075 0.03137 0.9906 0.0
C1647 C 0.50885 0.99495 0.01851 0.0
C1648 C 0.5158 0.04632 0.97557 0.0
C1649 C 0.49431 0.04157 0.97325 0.0
C1650 C 0.50411 0.01139 1.0032 0.0
C1651 C 0.47813 0.02164 0.98697 0.0
C1652 C 0.49214 0.97474 0.03004 0.0
C1653 C 0.53484 0.985 0.03637 0.0
N1654 N 0.48336 0.00721 1.00119 0.0
N1655 N 0.52963 0.99939 0.02179 0.0
H1656 H 0.95128 0.47256 0.9462 0.0
H1657 H 0.05525 0.53327 0.079 0.0
H1658 H 0.97832 0.44019 1.01014 0.0
H1659 H 0.02421 0.56498 0.02579 0.0
H1660 H 0.02743 0.49917 0.05315 0.0
H1661 H 0.97781 0.50655 0.97488 0.0
C1662 C 0.96273 0.47257 0.96648 0.0
C1663 C 0.96266 0.45353 0.97574 0.0
C1664 C 0.02666 0.51356 0.04714 0.0
C1665 C 0.99313 0.49243 1.00845 0.0
C1666 C 0.04261 0.5331 0.06177 0.0
C1667 C 0.04208 0.55205 0.05447 0.0
C1668 C 0.01008 0.51291 0.02489 0.0
C1669 C 0.02524 0.55077 0.03211 0.0
C1670 C 0.97787 0.49201 0.98283 0.0
C1671 C 0.9778 0.4545 1.00223 0.0
N1672 N 0.0099 0.53149 0.018 0.0
N1673 N 0.99254 0.47369 0.01753 0.0
H1674 H 0.44964 0.46009 0.04067 0.0
H1675 H 0.56824 0.55149 0.97999 0.0
H1676 H 0.47303 0.52786 0.05665 0.0
H1677 H 0.54828 0.48409 0.98917 0.0
H1678 H 0.53322 0.54355 1.00604 0.0
H1679 H 0.4853 0.46882 0.01725 0.0
C1680 C 0.46221 0.47679 0.03891 0.0
C1681 C 0.45843 0.49325 0.05076 0.0
C1682 C 0.53665 0.53057 1.00265 0.0
C1683 C 0.4992 0.50338 0.0243 0.0
C1684 C 0.55669 0.53514 0.98811 0.0
C1685 C 0.56113 0.51843 0.9822 0.0
C1686 C 0.52106 0.50918 0.01114 0.0
C1687 C 0.54547 0.49747 0.99283 0.0
C1688 C 0.4826 0.48178 0.02586 0.0
C1689 C 0.47533 0.51464 0.04813 0.0
N1690 N 0.52611 0.49343 1.00647 0.0
N1691 N 0.49497 0.5191 0.03514 0.0
H1692 H 0.31777 0.23684 0.0304 0.0
H1693 H 0.36412 0.22673 0.82593 0.0
H1694 H 0.27953 0.18706 0.94893 0.0
H1695 H 0.39896 0.27822 0.90624 0.0
H1696 H 0.33543 0.20828 0.87401 0.0
H1697 H 0.34925 0.24872 0.98895 0.0
C1698 C 0.31607 0.22821 1.00388 0.0
C1699 C 0.29591 0.21091 0.9932 0.0
C1700 C 0.34964 0.22328 0.88163 0.0
C1701 C 0.33223 0.22463 0.94487 0.0
C1702 C 0.36628 0.23362 0.85441 0.0
C1703 C 0.38444 0.25376 0.86243 0.0
C1704 C 0.35095 0.23324 0.91718 0.0
C1705 C 0.3857 0.26243 0.89916 0.0
C1706 C 0.33411 0.23504 0.9801 0.0
C1707 C 0.29472 0.20043 0.95837 0.0
N1708 N 0.36922 0.25229 0.92486 0.0
N1709 N 0.31256 0.20752 0.93537 0.0
H1710 H 0.82083 0.11279 1.00568 0.0
H1711 H 0.72146 0.10334 0.8945 0.0
H1712 H 0.76672 0.05286 0.96856 0.0
H1713 H 0.78244 0.14702 0.84244 0.0
H1714 H 0.73987 0.09232 0.94022 0.0
H1715 H 0.81004 0.13194 0.95924 0.0
C1716 C 0.80732 0.1036 0.98669 0.0
C1717 C 0.79483 0.0811 0.99065 0.0
C1718 C 0.74936 0.10477 0.91951 0.0
C1719 C 0.78179 0.10289 0.9395 0.0
C1720 C 0.73888 0.11134 0.89378 0.0
C1721 C 0.75039 0.12645 0.86503 0.0
C1722 C 0.77168 0.11321 0.91675 0.0
C1723 C 0.77298 0.13574 0.86479 0.0
C1724 C 0.80098 0.11456 0.96068 0.0
C1725 C 0.77696 0.07014 0.96631 0.0
N1726 N 0.78294 0.12881 0.89001 0.0
N1727 N 0.77079 0.08108 0.94259 0.0
H1728 H 0.88318 0.611 0.91124 0.0
H1729 H 0.93335 0.73753 0.93907 0.0
H1730 H 0.88368 0.65214 0.82108 0.0
H1731 H 0.91304 0.69415 0.0353 0.0
H1732 H 0.91496 0.70646 0.89554 0.0
H1733 H 0.89316 0.64049 0.95762 0.0
C1734 C 0.88451 0.62593 0.90147 0.0
C1735 C 0.88186 0.62882 0.86236 0.0
C1736 C 0.91422 0.70369 0.92622 0.0
C1737 C 0.89459 0.66322 0.91496 0.0
C1738 C 0.92465 0.72149 0.95107 0.0
C1739 C 0.92439 0.71852 0.99095 0.0
C1740 C 0.90393 0.68261 0.94111 0.0
C1741 C 0.91329 0.69724 1.0048 0.0
C1742 C 0.89052 0.64292 0.92788 0.0
C1743 C 0.88493 0.64898 0.8511 0.0
N1744 N 0.90378 0.68018 0.98004 0.0
N1745 N 0.89134 0.66537 0.87699 0.0
H1746 H 0.22544 0.27858 0.5725 0.0
H1747 H 0.24683 0.39754 0.6197 0.0
H1748 H 0.20524 0.31234 0.49668 0.0
H1749 H 0.26751 0.36203 0.69022 0.0
H1750 H 0.22745 0.36551 0.57796 0.0
H1751 H 0.2357 0.30705 0.62039 0.0
C1752 C 0.22222 0.29152 0.56666 0.0
C1753 C 0.21375 0.29263 0.53099 0.0
C1754 C 0.23609 0.3647 0.60278 0.0
C1755 C 0.22687 0.32637 0.585 0.0
C1756 C 0.24715 0.383 0.62659 0.0
C1757 C 0.259 0.38258 0.65834 0.0
C1758 C 0.23678 0.3458 0.61097 0.0
C1759 C 0.25879 0.36323 0.6659 0.0
C1760 C 0.22849 0.30808 0.59376 0.0
C1761 C 0.21101 0.31045 0.52431 0.0
N1762 N 0.24804 0.34583 0.64251 0.0
N1763 N 0.21777 0.3267 0.55073 0.0
H1764 H 0.61253 0.85009 0.61872 0.0
H1765 H 0.73204 0.94795 0.57449 0.0
H1766 H 0.64755 0.90626 0.68971 0.0
H1767 H 0.69823 0.8951 0.49621 0.0
H1768 H 0.70319 0.92935 0.62161 0.0
H1769 H 0.6448 0.86298 0.57737 0.0
C1770 C 0.62701 0.86498 0.62582 0.0
C1771 C 0.62724 0.87716 0.65764 0.0
C1772 C 0.70222 0.92144 0.59457 0.0
C1773 C 0.66426 0.89203 0.61066 0.0
C1774 C 0.71898 0.93195 0.56789 0.0
C1775 C 0.718 0.92279 0.53181 0.0
C1776 C 0.68384 0.90173 0.58497 0.0
C1777 C 0.70003 0.90243 0.52419 0.0
C1778 C 0.64544 0.87237 0.60222 0.0
C1779 C 0.64651 0.89637 0.66542 0.0
N1780 N 0.68359 0.89271 0.55024 0.0
N1781 N 0.66403 0.90316 0.64222 0.0
H1782 H 0.07207 0.79875 0.58532 0.0
H1783 H 0.13942 0.73948 0.60446 0.0
H1784 H 0.10907 0.79635 0.48997 0.0
H1785 H 0.13184 0.77247 0.70128 0.0
H1786 H 0.12685 0.75826 0.56177 0.0
H1787 H 0.09193 0.78762 0.62849 0.0
C1788 C 0.08478 0.79646 0.57363 0.0
C1789 C 0.08925 0.79907 0.53405 0.0
C1790 C 0.12833 0.76173 0.59226 0.0
C1791 C 0.11136 0.78515 0.58311 0.0
C1792 C 0.13566 0.7511 0.61662 0.0
C1793 C 0.13725 0.75476 0.65647 0.0
C1794 C 0.1217 0.77559 0.60785 0.0
C1795 C 0.13142 0.76953 0.67069 0.0
C1796 C 0.09602 0.78995 0.59825 0.0
C1797 C 0.10544 0.7951 0.52038 0.0
N1798 N 0.12362 0.77908 0.64661 0.0
N1799 N 0.1156 0.78805 0.54463 0.0
H1800 H 0.6143 0.72405 0.117 0.0
H1801 H 0.73128 0.82351 0.06226 0.0
H1802 H 0.64762 0.77947 0.19004 0.0
H1803 H 0.69871 0.76297 1.00218 0.0
H1804 H 0.69931 0.81101 0.1043 0.0
H1805 H 0.64261 0.74174 0.06864 0.0
C1806 C 0.6271 0.74039 0.12211 0.0
C1807 C 0.62812 0.75052 0.15716 0.0
C1808 C 0.69916 0.80056 0.08172 0.0
C1809 C 0.66169 0.77062 0.10258 0.0
C1810 C 0.71742 0.8077 0.05774 0.0
C1811 C 0.71787 0.79419 0.02893 0.0
C1812 C 0.68109 0.77987 0.07645 0.0
C1813 C 0.69933 0.77388 0.02432 0.0
C1814 C 0.64357 0.75038 0.09475 0.0
C1815 C 0.64577 0.77135 0.16288 0.0
N1816 N 0.68191 0.76742 0.04765 0.0
N1817 N 0.66194 0.78059 0.1362 0.0
H1818 H 0.20874 0.89612 0.99109 0.0
H1819 H 0.24691 0.89098 0.20616 0.0
H1820 H 0.21843 0.94267 0.07817 0.0
H1821 H 0.26082 0.86283 0.10893 0.0
H1822 H 0.22782 0.90311 0.16354 0.0
H1823 H 0.21843 0.87674 0.03783 0.0
C1824 C 0.21185 0.90167 0.02061 0.0
C1825 C 0.212 0.92068 0.03099 0.0
C1826 C 0.23465 0.89391 0.15157 0.0
C1827 C 0.22405 0.89898 0.08453 0.0
C1828 C 0.24539 0.88679 0.17595 0.0
C1829 C 0.25519 0.87552 0.16123 0.0
C1830 C 0.23344 0.88963 0.11194 0.0
C1831 C 0.25322 0.87113 0.12163 0.0
C1832 C 0.21782 0.89082 0.0471 0.0
C1833 C 0.21733 0.92771 0.0692 0.0
N1834 N 0.24259 0.87816 0.09843 0.0
N1835 N 0.22318 0.91695 0.09444 0.0
H1836 H 0.13321 0.35827 0.19936 0.0
H1837 H 0.10165 0.31609 0.9816 0.0
H1838 H 0.12985 0.39719 0.10884 0.0
H1839 H 0.08208 0.27384 0.07938 0.0
H1840 H 0.12051 0.34714 0.02493 0.0
H1841 H 0.12361 0.329 0.15302 0.0
C1842 C 0.1314 0.36102 0.16934 0.0
C1843 C 0.13305 0.38055 0.15784 0.0
C1844 C 0.11251 0.33108 0.03691 0.0
C1845 C 0.12117 0.3466 0.10454 0.0
C1846 C 0.10194 0.3133 0.01212 0.0
C1847 C 0.09061 0.29223 0.02675 0.0
C1848 C 0.11201 0.32791 0.07686 0.0
C1849 C 0.09093 0.28971 0.06674 0.0
C1850 C 0.12553 0.34412 0.14298 0.0
C1851 C 0.12948 0.38273 0.11881 0.0
N1852 N 0.10142 0.30725 0.09029 0.0
N1853 N 0.12368 0.36602 0.09368 0.0
H1854 H 0.81904 0.73587 0.44368 0.0
H1855 H 0.7342 0.611 0.40882 0.0
H1856 H 0.78071 0.69283 0.53411 0.0
H1857 H 0.78036 0.65086 0.32352 0.0
H1858 H 0.75294 0.63975 0.45646 0.0
H1859 H 0.80693 0.70472 0.40026 0.0
C1860 C 0.80837 0.71984 0.45454 0.0
C1861 C 0.80105 0.71695 0.49267 0.0
C1862 C 0.75941 0.64206 0.42763 0.0
C1863 C 0.78665 0.68113 0.44293 0.0
C1864 C 0.74888 0.62542 0.40056 0.0
C1865 C 0.75614 0.62815 0.36239 0.0
C1866 C 0.77707 0.66194 0.41633 0.0
C1867 C 0.77461 0.64775 0.3529 0.0
C1868 C 0.80138 0.70203 0.42975 0.0
C1869 C 0.78692 0.69579 0.50503 0.0
N1870 N 0.78423 0.6639 0.37939 0.0
N1871 N 0.78009 0.67883 0.48031 0.0
H1872 H 0.30535 0.11626 0.51681 0.0
H1873 H 0.39151 0.10706 0.39956 0.0
H1874 H 0.29164 0.05771 0.4591 0.0
H1875 H 0.37619 0.15165 0.34565 0.0
H1876 H 0.36167 0.09677 0.44439 0.0
H1877 H 0.33597 0.13656 0.47217 0.0
C1878 C 0.30804 0.10782 0.49359 0.0
C1879 C 0.29555 0.08524 0.49112 0.0
C1880 C 0.36527 0.10935 0.4236 0.0
C1881 C 0.33105 0.10814 0.44162 0.0
C1882 C 0.38252 0.11549 0.39834 0.0
C1883 C 0.38675 0.13059 0.36923 0.0
C1884 C 0.35189 0.11828 0.42007 0.0
C1885 C 0.37391 0.14038 0.36828 0.0
C1886 C 0.32571 0.11937 0.46854 0.0
C1887 C 0.30053 0.07507 0.46165 0.0
N1888 N 0.35682 0.13385 0.39301 0.0
N1889 N 0.31802 0.08645 0.43876 0.0
H1890 H 0.95102 0.23468 0.47456 0.0
H1891 H 0.8468 0.22169 0.36484 0.0
H1892 H 0.88709 0.18808 0.51118 0.0
H1893 H 0.90834 0.27992 0.36438 0.0
H1894 H 0.86049 0.20665 0.41369 0.0
H1895 H 0.93551 0.24792 0.42627 0.0
C1896 C 0.93369 0.2266 0.47129 0.0
C1897 C 0.92035 0.20972 0.49608 0.0
C1898 C 0.87085 0.2229 0.4035 0.0
C1899 C 0.90232 0.22548 0.44187 0.0
C1900 C 0.8629 0.23162 0.37613 0.0
C1901 C 0.87617 0.25241 0.36146 0.0
C1902 C 0.8925 0.23475 0.41535 0.0
C1903 C 0.89731 0.26411 0.37575 0.0
C1904 C 0.92481 0.23448 0.44427 0.0
C1905 C 0.89796 0.20063 0.4918 0.0
N1906 N 0.90484 0.25509 0.40138 0.0
N1907 N 0.88965 0.20857 0.46533 0.0
H1908 H 0.04859 0.5613 0.18883 0.0
H1909 H 0.95794 0.56768 0.31546 0.0
H1910 H 0.05055 0.6205 0.21902 0.0
H1911 H 0.97048 0.51541 0.32891 0.0
H1912 H 0.98728 0.58412 0.26825 0.0
H1913 H 0.01667 0.54168 0.23055 0.0
C1914 C 0.04254 0.57023 0.20447 0.0
C1915 C 0.05257 0.59272 0.20037 0.0
C1916 C 0.98329 0.56876 0.28073 0.0
C1917 C 0.01543 0.57017 0.2472 0.0
C1918 C 0.9662 0.55913 0.30713 0.0
C1919 C 0.96118 0.53972 0.32532 0.0
C1920 C 0.9956 0.55897 0.27209 0.0
C1921 C 0.97331 0.53001 0.31476 0.0
C1922 C 0.0242 0.55898 0.2281 0.0
C1923 C 0.04363 0.60326 0.22116 0.0
N1924 N 0.98989 0.53968 0.28895 0.0
N1925 N 0.02562 0.59196 0.24314 0.0
H1926 H 0.49542 0.45016 0.32626 0.0
H1927 H 0.39053 0.44076 0.22886 0.0
H1928 H 0.43286 0.39318 0.32743 0.0
H1929 H 0.45177 0.48047 0.17419 0.0
H1930 H 0.40801 0.42942 0.27602 0.0
H1931 H 0.48229 0.46593 0.27742 0.0
C1932 C 0.47922 0.44063 0.31515 0.0
C1933 C 0.46541 0.42002 0.3302 0.0
C1934 C 0.4178 0.44098 0.25426 0.0
C1935 C 0.44986 0.43854 0.27652 0.0
C1936 C 0.40787 0.44784 0.22777 0.0
C1937 C 0.41971 0.46204 0.19804 0.0
C1938 C 0.43991 0.44818 0.25123 0.0
C1939 C 0.4421 0.47003 0.19733 0.0
C1940 C 0.47163 0.44979 0.28779 0.0
C1941 C 0.44425 0.40886 0.31602 0.0
N1942 N 0.45148 0.46289 0.22335 0.0
N1943 N 0.43711 0.41831 0.29063 0.0
H1944 H 0.58952 0.06864 0.2773 0.0
H1945 H 0.55329 0.94463 0.24215 0.0
H1946 H 0.59011 0.02698 0.36546 0.0
H1947 H 0.54353 0.98283 0.1583 0.0
H1948 H 0.56338 0.97346 0.28953 0.0
H1949 H 0.57007 0.0371 0.2348 0.0
C1950 C 0.58526 0.05283 0.28789 0.0
C1951 C 0.59133 0.05044 0.32506 0.0
C1952 C 0.55844 0.97538 0.26113 0.0
C1953 C 0.56943 0.01421 0.27637 0.0
C1954 C 0.55228 0.95867 0.23422 0.0
C1955 C 0.54676 0.9609 0.19652 0.0
C1956 C 0.55971 0.99487 0.25012 0.0
C1957 C 0.54694 0.98008 0.18739 0.0
C1958 C 0.5742 0.03479 0.26362 0.0
C1959 C 0.58562 0.02955 0.3371 0.0
N1960 N 0.55354 0.99635 0.21368 0.0
N1961 N 0.57523 0.0124 0.31289 0.0
H1962 H 0.39304 0.95766 0.70329 0.0
H1963 H 0.48664 0.04001 0.84286 0.0
H1964 H 0.45668 0.9666 0.69063 0.0
H1965 H 0.43398 0.04747 0.80291 0.0
H1966 H 0.47629 0.01056 0.79558 0.0
H1967 H 0.40678 0.98617 0.75182 0.0
C1968 C 0.40974 0.96496 0.71205 0.0
C1969 C 0.42356 0.95924 0.69366 0.0
C1970 C 0.46735 0.01902 0.7967 0.0
C1971 C 0.43978 0.99274 0.7484 0.0
C1972 C 0.4735 0.03609 0.82318 0.0
C1973 C 0.46141 0.04655 0.82636 0.0
C1974 C 0.44873 0.01216 0.77407 0.0
C1975 C 0.44393 0.04009 0.8012 0.0
C1976 C 0.41772 0.98159 0.73919 0.0
C1977 C 0.44534 0.97008 0.7049 0.0
N1978 N 0.43801 0.02328 0.77671 0.0
N1979 N 0.45282 0.98631 0.7315 0.0
H1980 H 0.05012 0.48978 0.68851 0.0
H1981 H 0.95864 0.39133 0.81017 0.0
H1982 H 0.05239 0.43268 0.71827 0.0
H1983 H 0.97266 0.45607 0.83168 0.0
H1984 H 0.98791 0.4051 0.76274 0.0
H1985 H 0.01801 0.4772 0.73002 0.0
C1986 C 0.04409 0.47478 0.70398 0.0
C1987 C 0.05423 0.46241 0.69981 0.0
C1988 C 0.98424 0.41629 0.77705 0.0
C1989 C 0.01691 0.4475 0.74617 0.0
C1990 C 0.9672 0.40836 0.80358 0.0
C1991 C 0.96266 0.42246 0.82414 0.0
C1992 C 0.99697 0.43857 0.77069 0.0
C1993 C 0.97514 0.44455 0.81568 0.0
C1994 C 0.02566 0.46753 0.72745 0.0
C1995 C 0.04536 0.44292 0.7204 0.0
N1996 N 0.99169 0.45193 0.78973 0.0
N1997 N 0.02725 0.43604 0.7421 0.0
H1998 H 0.55488 0.57428 0.65191 0.0
H1999 H 0.56884 0.54001 0.86511 0.0
H2000 H 0.53995 0.59927 0.75251 0.0
H2001 H 0.60994 0.54459 0.77098 0.0
H2002 H 0.55057 0.55327 0.8226 0.0
H2003 H 0.56748 0.55515 0.69341 0.0
C2004 C 0.55368 0.57525 0.68279 0.0
C2005 C 0.54594 0.58811 0.69869 0.0
C2006 C 0.56331 0.55098 0.81107 0.0
C2007 C 0.5606 0.56628 0.74666 0.0
C2008 C 0.57357 0.5431 0.83519 0.0
C2009 C 0.59077 0.54077 0.8215 0.0
C2010 C 0.56998 0.55626 0.77263 0.0
C2011 C 0.59657 0.54577 0.78266 0.0
C2012 C 0.56111 0.5645 0.70648 0.0
C2013 C 0.54546 0.5893 0.73899 0.0
N2014 N 0.58622 0.55317 0.7597 0.0
N2015 N 0.55257 0.57849 0.76153 0.0
H2016 H 0.16651 0.18853 0.34826 0.0
H2017 H 0.25386 0.22015 0.1801 0.0
H2018 H 0.22043 0.2527 0.3356 0.0
H2019 H 0.1901 0.1649 0.17364 0.0
H2020 H 0.24367 0.23111 0.23982 0.0
H2021 H 0.17665 0.17826 0.28789 0.0
C2022 C 0.18052 0.20048 0.33282 0.0
C2023 C 0.19257 0.22156 0.34711 0.0
C2024 C 0.23188 0.21661 0.22534 0.0
C2025 C 0.20446 0.20979 0.27768 0.0
C2026 C 0.2377 0.21031 0.19122 0.0
C2027 C 0.22282 0.19156 0.17168 0.0
C2028 C 0.21109 0.20388 0.24067 0.0
C2029 C 0.2021 0.17949 0.18757 0.0
C2030 C 0.18627 0.19461 0.29821 0.0
C2031 C 0.21061 0.2363 0.3257 0.0
N2032 N 0.19693 0.18574 0.22115 0.0
N2033 N 0.21605 0.23013 0.29228 0.0
H2034 H 0.84363 0.02339 0.16939 0.0
H2035 H 0.75954 0.97325 0.34402 0.0
H2036 H 0.79423 0.03974 0.18926 0.0
H2037 H 0.821 0.97616 0.34374 0.0
H2038 H 0.76966 0.99429 0.28417 0.0
H2039 H 0.8332 1.00253 0.22924 0.0
C2040 C 0.83056 0.02259 0.18631 0.0
C2041 C 0.8199 0.03349 0.17425 0.0
C2042 C 0.78094 0.99034 0.29719 0.0
C2043 C 0.80767 0.00935 0.24304 0.0
C2044 C 0.77515 0.97828 0.33135 0.0
C2045 C 0.78944 0.97292 0.34906 0.0
C2046 C 0.80103 0.99678 0.27997 0.0
C2047 C 0.80948 0.97995 0.33127 0.0
C2048 C 0.82465 0.0107 0.2206 0.0
C2049 C 0.803 0.03172 0.19744 0.0
N2050 N 0.81459 0.99132 0.29771 0.0
N2051 N 0.79738 0.01986 0.23052 0.0
H2052 H 0.97155 0.75617 0.18985 0.0
H2053 H 0.04856 0.85339 0.33184 0.0
H2054 H 0.99152 0.82262 0.16821 0.0
H2055 H 0.03141 0.78761 0.35252 0.0
H2056 H 0.02765 0.84222 0.27217 0.0
H2057 H 0.99308 0.76699 0.24912 0.0
C2058 C 0.98046 0.77305 0.19751 0.0
C2059 C 0.9796 0.78848 0.17388 0.0
C2060 C 0.02841 0.83017 0.28964 0.0
C2061 C 1.0044 0.80106 0.24215 0.0
C2062 C 0.04039 0.83656 0.32383 0.0
C2063 C 0.04178 0.82145 0.34744 0.0
C2064 C 0.01755 0.80838 0.27858 0.0
C2065 C 0.03079 0.79984 0.33538 0.0
C2066 C 0.99279 0.77923 0.23144 0.0
C2067 C 0.9916 0.81012 0.18541 0.0
N2068 N 0.01917 0.79397 0.30197 0.0
N2069 N 1.00338 0.81571 0.21856 0.0
H2070 H 0.7943 0.75721 0.68684 0.0
H2071 H 0.8258 0.84702 0.85022 0.0
H2072 H 0.84627 0.82228 0.67243 0.0
H2073 H 0.76214 0.79193 0.84024 0.0
H2074 H 0.83579 0.83665 0.78945 0.0
H2075 H 0.78439 0.7679 0.74717 0.0
C2076 C 0.80364 0.77375 0.69636 0.0
C2077 C 0.82117 0.78885 0.67442 0.0
C2078 C 0.81964 0.82682 0.8006 0.0
C2079 C 0.81004 0.8012 0.744 0.0
C2080 C 0.81396 0.83269 0.83539 0.0
C2081 C 0.79308 0.82035 0.85045 0.0
C2082 C 0.80451 0.80817 0.78099 0.0
C2083 C 0.7784 0.80195 0.82978 0.0
C2084 C 0.79795 0.77986 0.7308 0.0
C2085 C 0.83265 0.81008 0.68831 0.0
N2086 N 0.78441 0.79636 0.79643 0.0
N2087 N 0.827 0.81557 0.72221 0.0
H2088 H 0.21975 0.9673 0.83319 0.0
H2089 H 0.19705 0.04097 0.68786 0.0
H2090 H 0.17303 0.98709 0.85468 0.0
H2091 H 0.25096 0.03076 0.6747 0.0
H2092 H 0.18749 0.02041 0.74795 0.0
H2093 H 0.23073 0.98911 0.77416 0.0
C2094 C 0.21181 0.97624 0.82556 0.0
C2095 C 0.19536 0.97525 0.84902 0.0
C2096 C 0.20137 0.02252 0.73192 0.0
C2097 C 0.20785 1.00031 0.78118 0.0
C2098 C 0.20679 0.03425 0.69746 0.0
C2099 C 0.22477 0.03752 0.67598 0.0
C2100 C 0.21371 0.0135 0.7449 0.0
C2101 C 0.23696 0.02864 0.69026 0.0
C2102 C 0.21812 0.98873 0.79183 0.0
C2103 C 0.18572 0.98725 0.83756 0.0
N2104 N 0.23113 0.01692 0.72351 0.0
N2105 N 0.19202 0.99914 0.8046 0.0
H2106 H 0.98813 0.16664 0.66449 0.0
H2107 H 0.02865 0.24335 0.8515 0.0
H2108 H 0.96826 0.21284 0.69023 0.0
H2109 H 0.04296 0.19265 0.83107 0.0
H2110 H 0.00741 0.23333 0.79191 0.0
H2111 H 0.00921 0.17677 0.72416 0.0
C2112 C 0.9882 0.17892 0.68268 0.0
C2113 C 0.97629 0.18881 0.67228 0.0
C2114 C 0.01515 0.22435 0.80045 0.0
C2115 C 1.0006 0.20066 0.74095 0.0
C2116 C 0.02728 0.23007 0.83457 0.0
C2117 C 0.03758 0.2188 0.8465 0.0
C2118 C 0.01333 0.20724 0.77777 0.0
C2119 C 0.0353 0.20179 0.82312 0.0
C2120 C 1.00025 0.18471 0.71684 0.0
C2121 C 0.97708 0.20469 0.69709 0.0
N2122 N 0.02352 0.19658 0.79005 0.0
N2123 N 0.98899 0.21011 0.73007 0.0
H2124 H 0.84437 0.56746 0.64636 0.0
H2125 H 0.91666 0.52857 0.53876 0.0
H2126 H 0.87306 0.53659 0.70917 0.0
H2127 H 0.85813 0.51926 0.48677 0.0
H2128 H 0.90599 0.53822 0.59956 0.0
H2129 H 0.85409 0.55663 0.58565 0.0
C2130 C 0.85276 0.55844 0.64733 0.0
C2131 C 0.85779 0.55279 0.68284 0.0
C2132 C 0.89548 0.53404 0.57484 0.0
C2133 C 0.86951 0.54087 0.61349 0.0
C2134 C 0.90158 0.52859 0.54007 0.0
C2135 C 0.88821 0.52295 0.50754 0.0
C2136 C 0.87617 0.53455 0.57702 0.0
C2137 C 0.86886 0.52332 0.51111 0.0
C2138 C 0.85824 0.55222 0.61272 0.0
C2139 C 0.86873 0.54113 0.68242 0.0
N2140 N 0.86356 0.52925 0.54495 0.0
N2141 N 0.87446 0.53579 0.6484 0.0
H2142 H 0.50758 0.35258 0.4969 0.0
H2143 H 0.43306 0.31452 0.68707 0.0
H2144 H 0.46616 0.37748 0.52883 0.0
H2145 H 0.47766 0.29306 0.65811 0.0
H2146 H 0.44395 0.33678 0.62864 0.0
H2147 H 0.49599 0.32994 0.55467 0.0
C2148 C 0.49609 0.35334 0.5161 0.0
C2149 C 0.48796 0.3671 0.50795 0.0
C2150 C 0.45134 0.32718 0.63497 0.0
C2151 C 0.47443 0.341 0.57453 0.0
C2152 C 0.44507 0.31441 0.66836 0.0
C2153 C 0.45445 0.30187 0.67764 0.0
C2154 C 0.46708 0.32739 0.61036 0.0
C2155 C 0.47001 0.30247 0.65224 0.0
C2156 C 0.48943 0.34037 0.54916 0.0
C2157 C 0.47296 0.36723 0.53393 0.0
N2158 N 0.47578 0.31493 0.61996 0.0
N2159 N 0.46672 0.35445 0.56588 0.0
H2160 H 0.64096 0.09067 0.51614 0.0
H2161 H 0.69817 0.17924 0.68198 0.0
H2162 H 0.65183 0.15516 0.50627 0.0
H2163 H 0.7061 0.1238 0.67192 0.0
H2164 H 0.67788 0.1691 0.6214 0.0
H2165 H 0.66154 0.10088 0.5764 0.0
C2166 C 0.64768 0.10699 0.52662 0.0
C2167 C 0.64463 0.12207 0.50597 0.0
C2168 C 0.68406 0.15914 0.6324 0.0
C2169 C 0.66808 0.13384 0.57552 0.0
C2170 C 0.6956 0.16489 0.6671 0.0
C2171 C 0.70396 0.15242 0.68209 0.0
C2172 C 0.68046 0.14052 0.61262 0.0
C2173 C 0.70006 0.13396 0.66143 0.0
C2174 C 0.65947 0.11282 0.56105 0.0
C2175 C 0.65377 0.14299 0.52109 0.0
N2176 N 0.68854 0.12854 0.62799 0.0
N2177 N 0.6649 0.1482 0.55494 0.0
H2178 H 0.42547 0.12288 0.1747 0.0
H2179 H 0.51201 0.15496 1.00444 0.0
H2180 H 0.48868 0.17908 0.17867 0.0
H2181 H 0.45942 0.09029 0.01972 0.0
H2182 H 0.50149 0.16554 0.06416 0.0
H2183 H 0.4354 0.112 0.11446 0.0
C2184 C 0.44142 0.13296 0.16288 0.0
C2185 C 0.45626 0.15194 0.18189 0.0
C2186 C 0.49223 0.14902 0.0545 0.0
C2187 C 0.46768 0.13971 0.11249 0.0
C2188 C 0.49821 0.14298 0.02029 0.0
C2189 C 0.48668 0.12166 1.00706 0.0
C2190 C 0.47434 0.13374 0.07559 0.0
C2191 C 0.46886 0.10687 0.02889 0.0
C2192 C 0.4471 0.12671 0.12851 0.0
C2193 C 0.47672 0.16431 0.16516 0.0
N2194 N 0.4632 0.11318 0.06187 0.0
N2195 N 0.48175 0.15808 0.13146 0.0
H2196 H 0.89021 0.30977 0.17535 0.0
H2197 H 0.85316 0.35305 0.99527 0.0
H2198 H 0.8296 0.30859 0.17372 0.0
H2199 H 0.91987 0.37593 0.02135 0.0
H2200 H 0.84296 0.33267 0.0559 0.0
H2201 H 0.90022 0.33017 0.11489 0.0
C2202 C 0.87897 0.31374 0.16221 0.0
C2203 C 0.85908 0.30752 0.17985 0.0
C2204 C 0.85983 0.3422 0.0484 0.0
C2205 C 0.87023 0.33052 0.10984 0.0
C2206 C 0.86567 0.35381 0.01371 0.0
C2207 C 0.88743 0.36636 1.00317 0.0
C2208 C 0.87582 0.34281 0.07263 0.0
C2209 C 0.9029 0.36658 0.02827 0.0
C2210 C 0.88471 0.32543 0.12769 0.0
C2211 C 0.84517 0.31316 0.16137 0.0
N2212 N 0.89682 0.35496 0.06156 0.0
N2213 N 0.8509 0.32412 0.12733 0.0
H2214 H 0.68685 0.51898 0.195 0.0
H2215 H 0.65262 0.55652 1.00195 0.0
H2216 H 0.7112 0.58555 0.16634 0.0
H2217 H 0.62935 0.49036 0.03226 0.0
H2218 H 0.67367 0.56774 0.06189 0.0
H2219 H 0.66518 0.50845 0.13617 0.0
C2220 C 0.68764 0.53141 0.17634 0.0
C2221 C 0.701 0.5532 0.18572 0.0
C2222 C 0.66393 0.55076 0.05549 0.0
C2223 C 0.67608 0.54121 0.11767 0.0
C2224 C 0.65189 0.54435 0.02121 0.0
C2225 C 0.63917 0.52244 0.01189 0.0
C2226 C 0.66328 0.53516 0.08088 0.0
C2227 C 0.63891 0.50742 0.03808 0.0
C2228 C 0.67524 0.52538 0.14262 0.0
C2229 C 0.70121 0.56856 0.16032 0.0
N2230 N 0.65071 0.51402 0.07113 0.0
N2231 N 0.68905 0.5623 0.12756 0.0
H2232 H 0.52516 0.8271 0.84599 0.0
H2233 H 0.55231 0.91914 1.0036 0.0
H2234 H 0.58443 0.88782 0.84503 0.0
H2235 H 0.50407 0.85279 0.02121 0.0
H2236 H 0.56272 0.90901 0.94317 0.0
H2237 H 0.51558 0.83705 0.90742 0.0
C2238 C 0.53612 0.8426 0.85856 0.0
C2239 C 0.55564 0.85664 0.84016 0.0
C2240 C 0.54991 0.89664 0.96028 0.0
C2241 C 0.54459 0.86835 0.91063 0.0
C2242 C 0.54392 0.90242 0.99484 0.0
C2243 C 0.52722 0.88682 0.01765 0.0
C2244 C 0.53901 0.87507 0.94796 0.0
C2245 C 0.51699 0.8654 1.00464 0.0
C2246 C 0.53067 0.84825 0.89379 0.0
C2247 C 0.56925 0.87646 0.85815 0.0
N2248 N 0.52293 0.86021 0.97074 0.0
N2249 N 0.56341 0.88178 0.89206 0.0
H2250 H 0.0899 0.6291 0.99627 0.0
H2251 H 0.18763 0.71357 0.86298 0.0
H2252 H 0.15686 0.65483 0.02425 0.0
H2253 H 0.12106 0.69029 0.83525 0.0
H2254 H 0.17643 0.69206 0.9218 0.0
H2255 H 0.1006 0.651 0.93752 0.0
C2256 C 0.10687 0.63934 0.99007 0.0
C2257 C 0.12249 0.63999 0.01529 0.0
C2258 C 0.16419 0.69158 0.90297 0.0
C2259 C 0.13492 0.66528 0.94774 0.0
C2260 C 0.1706 0.70389 0.86922 0.0
C2261 C 0.1553 0.70378 0.84393 0.0
C2262 C 0.14219 0.67881 0.91183 0.0
C2263 C 0.13345 0.69091 0.85382 0.0
C2264 C 0.11297 0.65188 0.95646 0.0
C2265 C 0.14423 0.65368 1.00568 0.0
N2266 N 0.12757 0.67896 0.88684 0.0
N2267 N 0.14976 0.66569 0.97283 0.0
H2268 H 0.36702 0.51327 0.01192 0.0
H2269 H 0.30436 0.4223 0.85223 0.0
H2270 H 0.37212 0.45607 1.00527 0.0
H2271 H 0.31945 0.48795 0.83759 0.0
H2272 H 0.32571 0.43275 0.9117 0.0
H2273 H 0.34623 0.50275 0.95196 0.0
C2274 C 0.36371 0.49844 0.99792 0.0
C2275 C 0.37143 0.48559 0.01371 0.0
C2276 C 0.32439 0.44488 0.89546 0.0
C2277 C 0.34725 0.47323 0.94495 0.0
C2278 C 0.31215 0.43892 0.8615 0.0
C2279 C 0.31004 0.45425 0.83976 0.0
C2280 C 0.33441 0.46632 0.90833 0.0
C2281 C 0.32057 0.47556 0.85332 0.0
C2282 C 0.35188 0.49248 0.96356 0.0
C2283 C 0.36661 0.46655 0.99411 0.0
N2284 N 0.33211 0.48091 0.88671 0.0
N2285 N 0.35475 0.46089 0.96103 0.0
H2286 H 0.0919 0.45767 0.5015 0.0
H2287 H 0.18314 0.48642 0.34128 0.0
H2288 H 0.15745 0.50877 0.51554 0.0
H2289 H 0.1249 0.42484 0.34563 0.0
H2290 H 0.17277 0.49646 0.40176 0.0
H2291 H 0.10231 0.44694 0.44171 0.0
C2292 C 0.10849 0.46667 0.49203 0.0
C2293 C 0.12379 0.48423 0.51372 0.0
C2294 C 0.16223 0.48074 0.38956 0.0
C2295 C 0.13585 0.47209 0.44468 0.0
C2296 C 0.16811 0.47501 0.35487 0.0
C2297 C 0.15492 0.45471 0.33821 0.0
C2298 C 0.14273 0.46627 0.40772 0.0
C2299 C 0.13564 0.44062 0.35739 0.0
C2300 C 0.11444 0.46049 0.45786 0.0
C2301 C 0.14507 0.49518 0.49987 0.0
N2302 N 0.13008 0.44669 0.39083 0.0
N2303 N 0.1504 0.48905 0.46629 0.0
H2304 H 0.52533 0.69714 0.3439 0.0
H2305 H 0.55571 0.63799 0.50726 0.0
H2306 H 0.58837 0.70391 0.35146 0.0
H2307 H 0.50277 0.64993 0.51829 0.0
H2308 H 0.56664 0.65923 0.44765 0.0
H2309 H 0.51544 0.67704 0.40452 0.0
C2310 C 0.53711 0.69436 0.35824 0.0
C2311 C 0.55775 0.7023 0.34239 0.0
C2312 C 0.55266 0.65725 0.46313 0.0
C2313 C 0.54637 0.67891 0.41213 0.0
C2314 C 0.54637 0.64507 0.49718 0.0
C2315 C 0.52823 0.64208 0.51796 0.0
C2316 C 0.54056 0.66632 0.44913 0.0
C2317 C 0.51683 0.65174 0.50337 0.0
C2318 C 0.53145 0.68291 0.39302 0.0
C2319 C 0.5723 0.69817 0.36254 0.0
N2320 N 0.52306 0.66322 0.46989 0.0
N2321 N 0.5663 0.68668 0.39608 0.0
H2322 H 0.37972 0.91864 0.49522 0.0
H2323 H 0.29926 0.82129 0.3575 0.0
H2324 H 0.35601 0.85189 0.52161 0.0
H2325 H 0.31745 0.88733 0.33647 0.0
H2326 H 0.32086 0.83235 0.41636 0.0
H2327 H 0.35815 0.90779 0.43618 0.0
C2328 C 0.37 0.90168 0.48857 0.0
C2329 C 0.36976 0.88617 0.51347 0.0
C2330 C 0.32018 0.84448 0.39896 0.0
C2331 C 0.34489 0.87355 0.44558 0.0
C2332 C 0.30784 0.83816 0.36524 0.0
C2333 C 0.30652 0.8534 0.34189 0.0
C2334 C 0.3315 0.86629 0.40962 0.0
C2335 C 0.318 0.87504 0.35351 0.0
C2336 C 0.35764 0.89549 0.45482 0.0
C2337 C 0.35676 0.86443 0.50332 0.0
N2338 N 0.33 0.88083 0.38642 0.0
N2339 N 0.34493 0.8588 0.47026 0.0
H2340 H 0.33409 0.28678 0.10584 0.0
H2341 H 0.32199 0.39059 0.07528 0.0
H2342 H 0.27304 0.28475 0.11176 0.0
H2343 H 0.38075 0.38924 0.05632 0.0
H2344 H 0.3035 0.35208 0.0899 0.0
H2345 H 0.35182 0.32532 0.09305 0.0
C2346 C 0.3245 0.29458 0.10504 0.0
C2347 C 0.30214 0.28268 0.1096 0.0
C2348 C 0.32038 0.36018 0.08211 0.0
C2349 C 0.3221 0.32652 0.09386 0.0
C2350 C 0.33085 0.38206 0.07333 0.0
C2351 C 0.35289 0.39302 0.06456 0.0
C2352 C 0.33213 0.34934 0.08234 0.0
C2353 C 0.36371 0.38135 0.06281 0.0
C2354 C 0.33455 0.31651 0.09734 0.0
C2355 C 0.29037 0.29345 0.10842 0.0
N2356 N 0.35327 0.36017 0.07202 0.0
N2357 N 0.30048 0.3148 0.10023 0.0
H2358 H 0.6179 0.92755 0.09932 0.0
H2359 H 0.72519 0.0415 0.0945 0.0
H2360 H 0.62455 0.98324 0.03998 0.0
H2361 H 0.72416 0.98485 0.13836 0.0
H2362 H 0.68801 0.0196 0.07462 0.0
H2363 H 0.65671 0.94686 0.11159 0.0
C2364 C 0.62765 0.94363 0.08788 0.0
C2365 C 0.6181 0.95398 0.06892 0.0
C2366 C 0.69571 0.01189 0.08903 0.0
C2367 C 0.66218 0.97619 0.0835 0.0
C2368 C 0.71689 0.02447 0.101 0.0
C2369 C 0.72759 0.01498 0.11875 0.0
C2370 C 0.68491 0.98963 0.09544 0.0
C2371 C 0.71629 0.99273 0.12518 0.0
C2372 C 0.64974 0.95469 0.09522 0.0
C2373 C 0.63132 0.9748 0.05498 0.0
N2374 N 0.69541 0.98074 0.1137 0.0
N2375 N 0.65268 0.98532 0.06296 0.0
H2376 H 1.00225 0.71732 0.15845 0.0
H2377 H 0.05814 0.66955 0.02543 0.0
H2378 H 0.98435 0.70273 0.03926 0.0
H2379 H 0.03016 0.64137 0.13508 0.0
H2380 H 0.04283 0.69352 0.03187 0.0
H2381 H 0.0253 0.70101 0.15176 0.0
C2382 C 1.00331 0.71077 0.131 0.0
C2383 C 0.99106 0.71059 0.09967 0.0
C2384 C 0.04028 0.68211 0.05443 0.0
C2385 C 0.01769 0.69327 0.09144 0.0
C2386 C 0.04875 0.66843 0.05063 0.0
C2387 C 0.04475 0.65322 0.07926 0.0
C2388 C 0.02863 0.68088 0.08768 0.0
C2389 C 0.033 0.65254 0.11192 0.0
C2390 C 0.01644 0.7017 0.12714 0.0
C2391 C 0.99314 0.70245 0.06432 0.0
N2392 N 0.0254 0.66629 0.11537 0.0
N2393 N 1.00627 0.69407 0.06107 0.0
H2394 H 0.39562 0.31792 0.43217 0.0
H2395 H 0.29053 0.32658 0.4004 0.0
H2396 H 0.38944 0.37236 0.46616 0.0
H2397 H 0.2873 0.26496 0.40376 0.0
H2398 H 0.32859 0.34401 0.41637 0.0
H2399 H 0.35694 0.29789 0.41764 0.0
C2400 C 0.386 0.32543 0.43746 0.0
C2401 C 0.39562 0.34683 0.45005 0.0
C2402 C 0.31964 0.32669 0.41329 0.0
C2403 C 0.3519 0.32442 0.43262 0.0
C2404 C 0.29798 0.31675 0.4036 0.0
C2405 C 0.28581 0.29432 0.40084 0.0
C2406 C 0.32928 0.31413 0.4199 0.0
C2407 C 0.29622 0.28234 0.40559 0.0
C2408 C 0.36404 0.31409 0.42886 0.0
C2409 C 0.38261 0.35595 0.45618 0.0
N2410 N 0.31745 0.29241 0.4151 0.0
N2411 N 0.36145 0.34477 0.44695 0.0
H2412 H 0.74575 0.02385 0.41941 0.0
H2413 H 0.62865 0.0112 0.42556 0.0
H2414 H 0.68791 0.96745 0.38085 0.0
H2415 H 0.68653 0.07049 0.45323 0.0
H2416 H 0.65036 0.99452 0.41209 0.0
H2417 H 0.72487 0.04175 0.4311 0.0
C2418 C 0.72875 0.01545 0.41251 0.0
C2419 C 0.71844 0.99414 0.39937 0.0
C2420 C 0.65835 0.01114 0.42132 0.0
C2421 C 0.69446 0.01418 0.41358 0.0
C2422 C 0.64593 0.02058 0.42942 0.0
C2423 C 0.65588 0.04221 0.44037 0.0
C2424 C 0.68086 0.02348 0.4241 0.0
C2425 C 0.6783 0.05372 0.44489 0.0
C2426 C 0.71681 0.02557 0.41959 0.0
C2427 C 0.69641 0.98388 0.39111 0.0
N2428 N 0.69011 0.04423 0.43644 0.0
N2429 N 0.68509 0.99393 0.39877 0.0
H2430 H 0.98984 0.7235 0.42201 0.0
H2431 H 0.99486 0.61582 0.3966 0.0
H2432 H 0.04667 0.72158 0.38769 0.0
H2433 H 0.9438 0.6179 0.45869 0.0
H2434 H 0.01146 0.65407 0.38411 0.0
H2435 H 0.96994 0.68415 0.42535 0.0
C2436 C 0.99795 0.71472 0.41432 0.0
C2437 C 0.01989 0.72558 0.40479 0.0
C2438 C 0.99673 0.64627 0.40075 0.0
C2439 C 0.99746 0.68101 0.40884 0.0
C2440 C 0.98731 0.62446 0.40811 0.0
C2441 C 0.96813 0.61387 0.42916 0.0
C2442 C 0.98697 0.65763 0.41469 0.0
C2443 C 0.95877 0.62567 0.44274 0.0
C2444 C 0.98667 0.69236 0.4166 0.0
C2445 C 0.02979 0.71367 0.39539 0.0
N2446 N 0.96836 0.64709 0.43532 0.0
N2447 N 0.01849 0.69196 0.39783 0.0
H2448 H 0.68675 0.62136 0.95168 0.0
H2449 H 0.68352 0.72618 0.8867 0.0
H2450 H 0.62953 0.6206 0.91128 0.0
H2451 H 0.74241 0.72609 0.911 0.0
H2452 H 0.66355 0.68713 0.89364 0.0
H2453 H 0.70749 0.66005 0.93888 0.0
C2454 C 0.67854 0.62945 0.94067 0.0
C2455 C 0.65648 0.61796 0.93254 0.0
C2456 C 0.68087 0.69559 0.89704 0.0
C2457 C 0.67997 0.66175 0.91703 0.0
C2458 C 0.69223 0.7178 0.89277 0.0
C2459 C 0.71449 0.72915 0.89844 0.0
C2460 C 0.69189 0.68485 0.90781 0.0
C2461 C 0.72519 0.71776 0.90626 0.0
C2462 C 0.69038 0.6514 0.93293 0.0
C2463 C 0.64653 0.62899 0.91806 0.0
N2464 N 0.71371 0.69615 0.91135 0.0
N2465 N 0.65839 0.6503 0.91059 0.0
H2466 H 0.28928 0.96632 0.93629 0.0
H2467 H 0.39605 0.0805 0.92803 0.0
H2468 H 0.28962 0.02228 0.89052 0.0
H2469 H 0.38969 0.02591 0.99094 0.0
H2470 H 0.35722 0.06087 0.91599 0.0
H2471 H 0.32646 0.9887 0.95589 0.0
C2472 C 0.29742 0.98331 0.9294 0.0
C2473 C 0.28653 0.99247 0.91122 0.0
C2474 C 0.36426 0.05338 0.93313 0.0
C2475 C 0.32919 0.01836 0.93416 0.0
C2476 C 0.38636 0.06463 0.94035 0.0
C2477 C 0.39599 0.05464 0.96026 0.0
C2478 C 0.3519 0.03208 0.94592 0.0
C2479 C 0.38284 0.03406 0.97523 0.0
C2480 C 0.31859 0.99616 0.94118 0.0
C2481 C 0.29764 0.01465 0.90413 0.0
N2482 N 0.36148 0.02335 0.96735 0.0
N2483 N 0.31851 0.02691 0.91545 0.0
H2484 H 0.93682 0.32241 0.94221 0.0
H2485 H 0.04985 0.32962 0.89967 0.0
H2486 H 0.99782 0.38154 0.93771 0.0
H2487 H 0.9903 0.26948 0.91131 0.0
H2488 H 0.03006 0.34883 0.90767 0.0
H2489 H 0.95549 0.30234 0.92899 0.0
C2490 C 0.95418 0.33109 0.93909 0.0
C2491 C 0.96588 0.35358 0.94107 0.0
C2492 C 0.02126 0.33142 0.90821 0.0
C2493 C 0.98714 0.331 0.92504 0.0
C2494 C 0.03253 0.3205 0.9033 0.0
C2495 C 0.02165 0.29805 0.90518 0.0
C2496 C 0.99902 0.31976 0.91549 0.0
C2497 C 0.99922 0.28687 0.90976 0.0
C2498 C 0.96478 0.3197 0.93115 0.0
C2499 C 0.98826 0.36418 0.93649 0.0
N2500 N 0.98862 0.29788 0.91528 0.0
N2501 N 0.99815 0.35279 0.92844 0.0
H2502 H 0.72621 0.73449 0.6248 0.0
H2503 H 0.621 0.62441 0.56774 0.0
H2504 H 0.72676 0.67658 0.59372 0.0
H2505 H 0.62138 0.68417 0.58357 0.0
H2506 H 0.66005 0.64355 0.57552 0.0
H2507 H 0.68749 0.7161 0.61199 0.0
C2508 C 0.71807 0.71778 0.61596 0.0
C2509 C 0.72954 0.70694 0.61037 0.0
C2510 C 0.65166 0.65255 0.57695 0.0
C2511 C 0.68563 0.68607 0.59485 0.0
C2512 C 0.62943 0.64165 0.57223 0.0
C2513 C 0.61815 0.65279 0.57529 0.0
C2514 C 0.66249 0.67462 0.58546 0.0
C2515 C 0.62964 0.67508 0.58099 0.0
C2516 C 0.69607 0.7074 0.60818 0.0
C2517 C 0.71841 0.68543 0.59851 0.0
N2518 N 0.65125 0.68528 0.58649 0.0
N2519 N 0.69704 0.67571 0.59098 0.0
H2520 H 0.3226 0.93253 0.57361 0.0
H2521 H 0.32356 0.03851 0.64756 0.0
H2522 H 0.37985 0.99399 0.5918 0.0
H2523 H 0.2664 0.98415 0.60152 0.0
H2524 H 0.34314 0.01925 0.6375 0.0
H2525 H 0.3006 0.94893 0.58978 0.0
C2526 C 0.33049 0.94952 0.58039 0.0
C2527 C 0.35302 0.96199 0.58137 0.0
C2528 C 0.32626 0.01142 0.62991 0.0
C2529 C 0.32819 0.98054 0.6009 0.0
C2530 C 0.31503 0.02232 0.63607 0.0
C2531 C 0.29346 0.01297 0.62498 0.0
C2532 C 0.31583 0.99106 0.61238 0.0
C2533 C 0.2831 0.99193 0.61031 0.0
C2534 C 0.31798 0.9588 0.58995 0.0
C2535 C 0.36252 0.98383 0.59067 0.0
N2536 N 0.29448 0.98173 0.60395 0.0
N2537 N 0.35006 0.99237 0.60035 0.0
H2538 H 0.015 0.38928 0.60869 0.0
H2539 H 0.02333 0.28374 0.57815 0.0
H2540 H 0.06966 0.38992 0.55541 0.0
H2541 H 0.97405 0.2855 0.64659 0.0
H2542 H 0.04124 0.32273 0.5709 0.0
H2543 H 0.99933 0.35093 0.62125 0.0
C2544 C 0.02351 0.38122 0.59903 0.0
C2545 C 0.04357 0.39265 0.58085 0.0
C2546 C 0.02666 0.31466 0.5879 0.0
C2547 C 0.02601 0.34897 0.59578 0.0
C2548 C 0.01652 0.29246 0.59223 0.0
C2549 C 0.99713 0.28154 0.61264 0.0
C2550 C 0.01715 0.32588 0.60375 0.0
C2551 C 0.98897 0.29343 0.6305 0.0
C2552 C 0.0147 0.35941 0.60663 0.0
C2553 C 0.05407 0.38157 0.56929 0.0
N2554 N 0.99889 0.31502 0.62519 0.0
N2555 N 0.04516 0.36028 0.57704 0.0
H2556 H 0.95139 0.596 0.75516 0.0
H2557 H 0.0559 0.71181 0.73419 0.0
H2558 H 0.9522 0.6499 0.69895 0.0
H2559 H 0.05661 0.65799 0.78762 0.0
H2560 H 0.01798 0.68865 0.71892 0.0
H2561 H 0.9905 0.61711 0.76191 0.0
C2562 C 0.95991 0.61208 0.74327 0.0
C2563 C 0.94869 0.62143 0.72694 0.0
C2564 C 0.02635 0.68188 0.73416 0.0
C2565 C 0.99309 0.6457 0.73529 0.0
C2566 C 0.04792 0.69516 0.74328 0.0
C2567 C 0.05924 0.68675 0.76232 0.0
C2568 C 0.01604 0.66006 0.74432 0.0
C2569 C 0.0483 0.66505 0.77308 0.0
C2570 C 0.98217 0.62419 0.7475 0.0
C2571 C 0.96034 0.64226 0.71208 0.0
N2572 N 0.02722 0.65237 0.76385 0.0
N2573 N 0.98194 0.65384 0.71707 0.0
H2574 H 0.35797 0.30468 0.70108 0.0
H2575 H 0.34915 0.4008 0.79894 0.0
H2576 H 0.41019 0.35706 0.76224 0.0
H2577 H 0.29584 0.34543 0.74599 0.0
H2578 H 0.37247 0.38607 0.78327 0.0
H2579 H 0.33619 0.32175 0.71081 0.0
C2580 C 0.36499 0.32002 0.71576 0.0
C2581 C 0.38572 0.32939 0.73131 0.0
C2582 C 0.35563 0.37707 0.77534 0.0
C2583 C 0.36085 0.34861 0.74357 0.0
C2584 C 0.34229 0.38534 0.7847 0.0
C2585 C 0.3206 0.37423 0.77382 0.0
C2586 C 0.34715 0.35764 0.75484 0.0
C2587 C 0.31249 0.35441 0.75505 0.0
C2588 C 0.3525 0.32963 0.72174 0.0
C2589 C 0.39416 0.34927 0.75005 0.0
N2590 N 0.32583 0.3468 0.74591 0.0
N2591 N 0.38156 0.3581 0.75617 0.0
H2592 H 0.6527 0.05648 0.75452 0.0
H2593 H 0.66478 0.9519 0.74148 0.0
H2594 H 0.70676 0.05557 0.70206 0.0
H2595 H 0.60969 0.95174 0.79176 0.0
H2596 H 0.68014 0.98993 0.72621 0.0
H2597 H 0.63542 0.01767 0.76466 0.0
C2598 C 0.66066 0.04799 0.7442 0.0
C2599 C 0.68122 0.05917 0.72766 0.0
C2600 C 0.66477 0.98166 0.74084 0.0
C2601 C 0.66186 0.01501 0.73996 0.0
C2602 C 0.65612 0.96002 0.74996 0.0
C2603 C 0.63601 0.94878 0.76805 0.0
C2604 C 0.65323 0.99213 0.74993 0.0
C2605 C 0.62531 0.95993 0.77797 0.0
C2606 C 0.65091 0.02589 0.7504 0.0
C2607 C 0.69092 0.0475 0.71508 0.0
N2608 N 0.63403 0.98103 0.76865 0.0
N2609 N 0.68125 0.02606 0.72187 0.0
H2610 H 0.41155 0.05762 0.24491 0.0
H2611 H 0.29553 0.95413 0.27774 0.0
H2612 H 0.35143 0.05657 0.22825 0.0
H2613 H 0.35443 0.95174 0.27993 0.0
H2614 H 0.31645 0.99272 0.26531 0.0
H2615 H 0.39143 0.01906 0.25908 0.0
C2616 C 0.39413 0.04915 0.24337 0.0
C2617 C 0.38308 0.06019 0.23547 0.0
C2618 C 0.32484 0.9838 0.26872 0.0
C2619 C 0.36007 0.0165 0.25276 0.0
C2620 C 0.31292 0.96185 0.27623 0.0
C2621 C 0.32331 0.94985 0.27954 0.0
C2622 C 0.34727 0.9937 0.26422 0.0
C2623 C 0.34585 0.96052 0.27749 0.0
C2624 C 0.38267 0.02724 0.2519 0.0
C2625 C 0.36055 0.0486 0.23415 0.0
N2626 N 0.35711 0.98188 0.26952 0.0
N2627 N 0.34977 0.0274 0.24314 0.0
H2628 H 0.9539 0.30499 0.31006 0.0
H2629 H 0.0608 0.41185 0.24826 0.0
H2630 H 0.95512 0.34689 0.22011 0.0
H2631 H 0.05896 0.36429 0.32617 0.0
H2632 H 0.02148 0.39166 0.24483 0.0
H2633 H 0.9918 0.32938 0.32196 0.0
C2634 C 0.96227 0.31929 0.29247 0.0
C2635 C 0.95151 0.32388 0.26375 0.0
C2636 C 0.02967 0.38583 0.26312 0.0
C2637 C 0.99499 0.35203 0.27746 0.0
C2638 C 0.05206 0.39742 0.26539 0.0
C2639 C 0.06299 0.38948 0.28723 0.0
C2640 C 0.01832 0.36633 0.28304 0.0
C2641 C 0.05105 0.37078 0.30878 0.0
C2642 C 0.9839 0.33329 0.29948 0.0
C2643 C 0.96301 0.34274 0.24222 0.0
N2644 N 0.02931 0.3597 0.30585 0.0
N2645 N 0.98429 0.35619 0.24945 0.0
H2646 H 0.59932 0.65015 0.29142 0.0
H2647 H 0.70388 0.65213 0.20788 0.0
H2648 H 0.66144 0.70733 0.27839 0.0
H2649 H 0.65163 0.59482 0.25809 0.0
H2650 H 0.6844 0.67119 0.2214 0.0
H2651 H 0.61543 0.62833 0.27231 0.0
C2652 C 0.61641 0.65803 0.28536 0.0
C2653 C 0.62912 0.68051 0.28655 0.0
C2654 C 0.67709 0.65438 0.22912 0.0
C2655 C 0.64727 0.65595 0.26322 0.0
C2656 C 0.68807 0.64345 0.22094 0.0
C2657 C 0.67944 0.62204 0.23239 0.0
C2658 C 0.65743 0.64379 0.249 0.0
C2659 C 0.65884 0.61142 0.24901 0.0
C2660 C 0.6255 0.64564 0.27404 0.0
C2661 C 0.6511 0.69003 0.27806 0.0
N2662 N 0.6486 0.62252 0.2574 0.0
N2663 N 0.65942 0.67771 0.26627 0.0
loop_
_geom_bond_atom_site_label_1
_geom_bond_atom_site_label_2
_geom_bond_distance
_geom_bond_site_symmetry_2
_ccdc_geom_bond_type
Dy0 O4 2.398 . S
Dy0 O5 2.491 . S
Dy0 O6 2.403 . S
Dy0 O7 2.664 . S
Dy0 O11 2.326 . S
Dy0 O15 2.310 . S
Dy0 O16 2.351 . S
C1 O12 1.185 . S
C1 O13 1.355 . S
C2 O4 1.185 . S
C2 O5 1.355 . S
Dy3 O7 2.310 . S
Dy3 O10 2.351 . S
Dy3 O12 2.398 . S
Dy3 O13 2.491 . S
Dy3 O14 2.403 . S
Dy3 O15 2.664 . S
Dy3 O17 2.326 . S
O4 Dy0 2.398 . S
O4 C2 1.185 . S
O5 Dy0 2.491 . S
O5 C2 1.355 . S
O6 Dy0 2.403 . S
O6 C8 1.254 . S
O7 Dy0 2.664 . S
O7 Dy3 2.310 . S
O7 C8 1.268 . S
C8 O6 1.254 . S
C8 O7 1.268 . S
C9 O14 1.254 . S
C9 O15 1.268 . S
O10 Dy3 2.351 . S
O10 C18 1.249 . S
O11 Dy0 2.326 . S
O11 C18 1.267 . S
O12 C1 1.185 . S
O12 Dy3 2.398 . S
O13 C1 1.355 . S
O13 Dy3 2.491 . S
O14 Dy3 2.403 . S
O14 C9 1.254 . S
O15 Dy0 2.310 . S
O15 Dy3 2.664 . S
O15 C9 1.268 . S
O16 Dy0 2.351 . S
O16 C19 1.249 . S
O17 Dy3 2.326 . S
O17 C19 1.267 . S
C18 O10 1.249 . S
C18 O11 1.267 . S
C19 O16 1.249 . S
C19 O17 1.267 . S
Dy20 O24 2.398 . S
Dy20 O25 2.491 . S
Dy20 O26 2.403 . S
Dy20 O27 2.664 . S
Dy20 O31 2.326 . S
Dy20 O35 2.310 . S
Dy20 O36 2.351 . S
C21 O32 1.185 . S
C21 O33 1.355 . S
C22 O24 1.185 . S
C22 O25 1.355 . S
Dy23 O27 2.310 . S
Dy23 O30 2.351 . S
Dy23 O32 2.398 . S
Dy23 O33 2.491 . S
Dy23 O34 2.403 . S
Dy23 O35 2.664 . S
Dy23 O37 2.326 . S
O24 Dy20 2.398 . S
O24 C22 1.185 . S
O25 Dy20 2.491 . S
O25 C22 1.355 . S
O26 Dy20 2.403 . S
O26 C28 1.254 . S
O27 Dy20 2.664 . S
O27 Dy23 2.310 . S
O27 C28 1.268 . S
C28 O26 1.254 . S
C28 O27 1.268 . S
C29 O34 1.254 . S
C29 O35 1.268 . S
O30 Dy23 2.351 . S
O30 C38 1.249 . S
O31 Dy20 2.326 . S
O31 C38 1.267 . S
O32 C21 1.185 . S
O32 Dy23 2.398 . S
O33 C21 1.355 . S
O33 Dy23 2.491 . S
O34 Dy23 2.403 . S
O34 C29 1.254 . S
O35 Dy20 2.310 . S
O35 Dy23 2.664 . S
O35 C29 1.268 . S
O36 Dy20 2.351 . S
O36 C39 1.249 . S
O37 Dy23 2.326 . S
O37 C39 1.267 . S
C38 O30 1.249 . S
C38 O31 1.267 . S
C39 O36 1.249 . S
C39 O37 1.267 . S
Dy40 O44 2.398 . S
Dy40 O45 2.491 . S
Dy40 O46 2.403 . S
Dy40 O47 2.664 . S
Dy40 O51 2.326 . S
Dy40 O55 2.310 . S
Dy40 O56 2.351 . S
C41 O52 1.185 . S
C41 O53 1.355 . S
C42 O44 1.185 . S
C42 O45 1.355 . S
Dy43 O47 2.310 . S
Dy43 O50 2.351 . S
Dy43 O52 2.398 . S
Dy43 O53 2.491 . S
Dy43 O54 2.403 . S
Dy43 O55 2.664 . S
Dy43 O57 2.326 . S
O44 Dy40 2.398 . S
O44 C42 1.185 . S
O45 Dy40 2.491 . S
O45 C42 1.355 . S
O46 Dy40 2.403 . S
O46 C48 1.254 . S
O47 Dy40 2.664 . S
O47 Dy43 2.310 . S
O47 C48 1.268 . S
C48 O46 1.254 . S
C48 O47 1.268 . S
C49 O54 1.254 . S
C49 O55 1.268 . S
O50 Dy43 2.351 . S
O50 C58 1.249 . S
O51 Dy40 2.326 . S
O51 C58 1.267 . S
O52 C41 1.185 . S
O52 Dy43 2.398 . S
O53 C41 1.355 . S
O53 Dy43 2.491 . S
O54 Dy43 2.403 . S
O54 C49 1.254 . S
O55 Dy40 2.310 . S
O55 Dy43 2.664 . S
O55 C49 1.268 . S
O56 Dy40 2.351 . S
O56 C59 1.249 . S
O57 Dy43 2.326 . S
O57 C59 1.267 . S
C58 O50 1.249 . S
C58 O51 1.267 . S
C59 O56 1.249 . S
C59 O57 1.267 . S
Dy60 O64 2.398 . S
Dy60 O65 2.491 . S
Dy60 O66 2.403 . S
Dy60 O67 2.664 . S
Dy60 O71 2.326 . S
Dy60 O75 2.310 . S
Dy60 O76 2.351 . S
C61 O72 1.185 . S
C61 O73 1.355 . S
C62 O64 1.185 . S
C62 O65 1.355 . S
Dy63 O67 2.310 . S
Dy63 O70 2.351 . S
Dy63 O72 2.398 . S
Dy63 O73 2.491 . S
Dy63 O74 2.403 . S
Dy63 O75 2.664 . S
Dy63 O77 2.326 . S
O64 Dy60 2.398 . S
O64 C62 1.185 . S
O65 Dy60 2.491 . S
O65 C62 1.355 . S
O66 Dy60 2.403 . S
O66 C68 1.254 . S
O67 Dy60 2.664 . S
O67 Dy63 2.310 . S
O67 C68 1.268 . S
C68 O66 1.254 . S
C68 O67 1.268 . S
C69 O74 1.254 . S
C69 O75 1.268 . S
O70 Dy63 2.351 . S
O70 C78 1.249 . S
O71 Dy60 2.326 . S
O71 C78 1.267 . S
O72 C61 1.185 . S
O72 Dy63 2.398 . S
O73 C61 1.355 . S
O73 Dy63 2.491 . S
O74 Dy63 2.403 . S
O74 C69 1.254 . S
O75 Dy60 2.310 . S
O75 Dy63 2.664 . S
O75 C69 1.268 . S
O76 Dy60 2.351 . S
O76 C79 1.249 . S
O77 Dy63 2.326 . S
O77 C79 1.267 . S
C78 O70 1.249 . S
C78 O71 1.267 . S
C79 O76 1.249 . S
C79 O77 1.267 . S
Dy80 O84 2.398 . S
Dy80 O85 2.491 . S
Dy80 O86 2.403 . S
Dy80 O87 2.664 . S
Dy80 O91 2.326 . S
Dy80 O95 2.310 . S
Dy80 O96 2.351 . S
C81 O92 1.185 . S
C81 O93 1.355 . S
C82 O84 1.185 . S
C82 O85 1.355 . S
Dy83 O87 2.310 . S
Dy83 O90 2.351 . S
Dy83 O92 2.398 . S
Dy83 O93 2.491 . S
Dy83 O94 2.403 . S
Dy83 O95 2.664 . S
Dy83 O97 2.326 . S
O84 Dy80 2.398 . S
O84 C82 1.185 . S
O85 Dy80 2.491 . S
O85 C82 1.355 . S
O86 Dy80 2.403 . S
O86 C88 1.254 . S
O87 Dy80 2.664 . S
O87 Dy83 2.310 . S
O87 C88 1.268 . S
C88 O86 1.254 . S
C88 O87 1.268 . S
C89 O94 1.254 . S
C89 O95 1.268 . S
O90 Dy83 2.351 . S
O90 C98 1.249 . S
O91 Dy80 2.326 . S
O91 C98 1.267 . S
O92 C81 1.185 . S
O92 Dy83 2.398 . S
O93 C81 1.355 . S
O93 Dy83 2.491 . S
O94 Dy83 2.403 . S
O94 C89 1.254 . S
O95 Dy80 2.310 . S
O95 Dy83 2.664 . S
O95 C89 1.268 . S
O96 Dy80 2.351 . S
O96 C99 1.249 . S
O97 Dy83 2.326 . S
O97 C99 1.267 . S
C98 O90 1.249 . S
C98 O91 1.267 . S
C99 O96 1.249 . S
C99 O97 1.267 . S
Dy100 O104 2.398 . S
Dy100 O105 2.491 . S
Dy100 O106 2.403 . S
Dy100 O107 2.664 . S
Dy100 O111 2.326 . S
Dy100 O115 2.310 . S
Dy100 O116 2.351 . S
C101 O112 1.185 . S
C101 O113 1.355 . S
C102 O104 1.185 . S
C102 O105 1.355 . S
Dy103 O107 2.310 . S
Dy103 O110 2.351 . S
Dy103 O112 2.398 . S
Dy103 O113 2.491 . S
Dy103 O114 2.403 . S
Dy103 O115 2.664 . S
Dy103 O117 2.326 . S
O104 Dy100 2.398 . S
O104 C102 1.185 . S
O105 Dy100 2.491 . S
O105 C102 1.355 . S
O106 Dy100 2.403 . S
O106 C108 1.254 . S
O107 Dy100 2.664 . S
O107 Dy103 2.310 . S
O107 C108 1.268 . S
C108 O106 1.254 . S
C108 O107 1.268 . S
C109 O114 1.254 . S
C109 O115 1.268 . S
O110 Dy103 2.351 . S
O110 C118 1.249 . S
O111 Dy100 2.326 . S
O111 C118 1.267 . S
O112 C101 1.185 . S
O112 Dy103 2.398 . S
O113 C101 1.355 . S
O113 Dy103 2.491 . S
O114 Dy103 2.403 . S
O114 C109 1.254 . S
O115 Dy100 2.310 . S
O115 Dy103 2.664 . S
O115 C109 1.268 . S
O116 Dy100 2.351 . S
O116 C119 1.249 . S
O117 Dy103 2.326 . S
O117 C119 1.267 . S
C118 O110 1.249 . S
C118 O111 1.267 . S
C119 O116 1.249 . S
C119 O117 1.267 . S
Dy120 O124 2.398 . S
Dy120 O125 2.491 . S
Dy120 O126 2.403 . S
Dy120 O127 2.664 . S
Dy120 O131 2.326 . S
Dy120 O135 2.310 . S
Dy120 O136 2.351 . S
C121 O132 1.185 . S
C121 O133 1.355 . S
C122 O124 1.185 . S
C122 O125 1.355 . S
Dy123 O127 2.310 . S
Dy123 O130 2.351 . S
Dy123 O132 2.398 . S
Dy123 O133 2.491 . S
Dy123 O134 2.403 . S
Dy123 O135 2.664 . S
Dy123 O137 2.326 . S
O124 Dy120 2.398 . S
O124 C122 1.185 . S
O125 Dy120 2.491 . S
O125 C122 1.355 . S
O126 Dy120 2.403 . S
O126 C128 1.254 . S
O127 Dy120 2.664 . S
O127 Dy123 2.310 . S
O127 C128 1.268 . S
C128 O126 1.254 . S
C128 O127 1.268 . S
C129 O134 1.254 . S
C129 O135 1.268 . S
O130 Dy123 2.351 . S
O130 C138 1.249 . S
O131 Dy120 2.326 . S
O131 C138 1.267 . S
O132 C121 1.185 . S
O132 Dy123 2.398 . S
O133 C121 1.355 . S
O133 Dy123 2.491 . S
O134 Dy123 2.403 . S
O134 C129 1.254 . S
O135 Dy120 2.310 . S
O135 Dy123 2.664 . S
O135 C129 1.268 . S
O136 Dy120 2.351 . S
O136 C139 1.249 . S
O137 Dy123 2.326 . S
O137 C139 1.267 . S
C138 O130 1.249 . S
C138 O131 1.267 . S
C139 O136 1.249 . S
C139 O137 1.267 . S
Dy140 O144 2.398 . S
Dy140 O145 2.491 . S
Dy140 O146 2.403 . S
Dy140 O147 2.664 . S
Dy140 O151 2.326 . S
Dy140 O155 2.310 . S
Dy140 O156 2.351 . S
C141 O152 1.185 . S
C141 O153 1.355 . S
C142 O144 1.185 . S
C142 O145 1.355 . S
Dy143 O147 2.310 . S
Dy143 O150 2.351 . S
Dy143 O152 2.398 . S
Dy143 O153 2.491 . S
Dy143 O154 2.403 . S
Dy143 O155 2.664 . S
Dy143 O157 2.326 . S
O144 Dy140 2.398 . S
O144 C142 1.185 . S
O145 Dy140 2.491 . S
O145 C142 1.355 . S
O146 Dy140 2.403 . S
O146 C148 1.254 . S
O147 Dy140 2.664 . S
O147 Dy143 2.310 . S
O147 C148 1.268 . S
C148 O146 1.254 . S
C148 O147 1.268 . S
C149 O154 1.254 . S
C149 O155 1.268 . S
O150 Dy143 2.351 . S
O150 C158 1.249 . S
O151 Dy140 2.326 . S
O151 C158 1.267 . S
O152 C141 1.185 . S
O152 Dy143 2.398 . S
O153 C141 1.355 . S
O153 Dy143 2.491 . S
O154 Dy143 2.403 . S
O154 C149 1.254 . S
O155 Dy140 2.310 . S
O155 Dy143 2.664 . S
O155 C149 1.268 . S
O156 Dy140 2.351 . S
O156 C159 1.249 . S
O157 Dy143 2.326 . S
O157 C159 1.267 . S
C158 O150 1.249 . S
C158 O151 1.267 . S
C159 O156 1.249 . S
C159 O157 1.267 . S
Dy160 O164 2.398 . S
Dy160 O165 2.491 . S
Dy160 O166 2.403 . S
Dy160 O167 2.664 . S
Dy160 O171 2.326 . S
Dy160 O175 2.310 . S
Dy160 O176 2.351 . S
C161 O172 1.185 . S
C161 O173 1.355 . S
C162 O164 1.185 . S
C162 O165 1.355 . S
Dy163 O167 2.310 . S
Dy163 O170 2.351 . S
Dy163 O172 2.398 . S
Dy163 O173 2.491 . S
Dy163 O174 2.403 . S
Dy163 O175 2.664 . S
Dy163 O177 2.326 . S
O164 Dy160 2.398 . S
O164 C162 1.185 . S
O165 Dy160 2.491 . S
O165 C162 1.355 . S
O166 Dy160 2.403 . S
O166 C168 1.254 . S
O167 Dy160 2.664 . S
O167 Dy163 2.310 . S
O167 C168 1.268 . S
C168 O166 1.254 . S
C168 O167 1.268 . S
C169 O174 1.254 . S
C169 O175 1.268 . S
O170 Dy163 2.351 . S
O170 C178 1.249 . S
O171 Dy160 2.326 . S
O171 C178 1.267 . S
O172 C161 1.185 . S
O172 Dy163 2.398 . S
O173 C161 1.355 . S
O173 Dy163 2.491 . S
O174 Dy163 2.403 . S
O174 C169 1.254 . S
O175 Dy160 2.310 . S
O175 Dy163 2.664 . S
O175 C169 1.268 . S
O176 Dy160 2.351 . S
O176 C179 1.249 . S
O177 Dy163 2.326 . S
O177 C179 1.267 . S
C178 O170 1.249 . S
C178 O171 1.267 . S
C179 O176 1.249 . S
C179 O177 1.267 . S
Dy180 O184 2.398 . S
Dy180 O185 2.491 . S
Dy180 O186 2.403 . S
Dy180 O187 2.664 . S
Dy180 O191 2.326 . S
Dy180 O195 2.310 . S
Dy180 O196 2.351 . S
C181 O192 1.185 . S
C181 O193 1.355 . S
C182 O184 1.185 . S
C182 O185 1.355 . S
Dy183 O187 2.310 . S
Dy183 O190 2.351 . S
Dy183 O192 2.398 . S
Dy183 O193 2.491 . S
Dy183 O194 2.403 . S
Dy183 O195 2.664 . S
Dy183 O197 2.326 . S
O184 Dy180 2.398 . S
O184 C182 1.185 . S
O185 Dy180 2.491 . S
O185 C182 1.355 . S
O186 Dy180 2.403 . S
O186 C188 1.254 . S
O187 Dy180 2.664 . S
O187 Dy183 2.310 . S
O187 C188 1.268 . S
C188 O186 1.254 . S
C188 O187 1.268 . S
C189 O194 1.254 . S
C189 O195 1.268 . S
O190 Dy183 2.351 . S
O190 C198 1.249 . S
O191 Dy180 2.326 . S
O191 C198 1.267 . S
O192 C181 1.185 . S
O192 Dy183 2.398 . S
O193 C181 1.355 . S
O193 Dy183 2.491 . S
O194 Dy183 2.403 . S
O194 C189 1.254 . S
O195 Dy180 2.310 . S
O195 Dy183 2.664 . S
O195 C189 1.268 . S
O196 Dy180 2.351 . S
O196 C199 1.249 . S
O197 Dy183 2.326 . S
O197 C199 1.267 . S
C198 O190 1.249 . S
C198 O191 1.267 . S
C199 O196 1.249 . S
C199 O197 1.267 . S
Dy200 O204 2.398 . S
Dy200 O205 2.491 . S
Dy200 O206 2.403 . S
Dy200 O207 2.664 . S
Dy200 O211 2.326 . S
Dy200 O215 2.310 . S
Dy200 O216 2.351 . S
C201 O212 1.185 . S
C201 O213 1.355 . S
C202 O204 1.185 . S
C202 O205 1.355 . S
Dy203 O207 2.310 . S
Dy203 O210 2.351 . S
Dy203 O212 2.398 . S
Dy203 O213 2.491 . S
Dy203 O214 2.403 . S
Dy203 O215 2.664 . S
Dy203 O217 2.326 . S
O204 Dy200 2.398 . S
O204 C202 1.185 . S
O205 Dy200 2.491 . S
O205 C202 1.355 . S
O206 Dy200 2.403 . S
O206 C208 1.254 . S
O207 Dy200 2.664 . S
O207 Dy203 2.310 . S
O207 C208 1.268 . S
C208 O206 1.254 . S
C208 O207 1.268 . S
C209 O214 1.254 . S
C209 O215 1.268 . S
O210 Dy203 2.351 . S
O210 C218 1.249 . S
O211 Dy200 2.326 . S
O211 C218 1.267 . S
O212 C201 1.185 . S
O212 Dy203 2.398 . S
O213 C201 1.355 . S
O213 Dy203 2.491 . S
O214 Dy203 2.403 . S
O214 C209 1.254 . S
O215 Dy200 2.310 . S
O215 Dy203 2.664 . S
O215 C209 1.268 . S
O216 Dy200 2.351 . S
O216 C219 1.249 . S
O217 Dy203 2.326 . S
O217 C219 1.267 . S
C218 O210 1.249 . S
C218 O211 1.267 . S
C219 O216 1.249 . S
C219 O217 1.267 . S
Dy220 O224 2.398 . S
Dy220 O225 2.491 . S
Dy220 O226 2.403 . S
Dy220 O227 2.664 . S
Dy220 O231 2.326 . S
Dy220 O235 2.310 . S
Dy220 O236 2.351 . S
C221 O232 1.185 . S
C221 O233 1.355 . S
C222 O224 1.185 . S
C222 O225 1.355 . S
Dy223 O227 2.310 . S
Dy223 O230 2.351 . S
Dy223 O232 2.398 . S
Dy223 O233 2.491 . S
Dy223 O234 2.403 . S
Dy223 O235 2.664 . S
Dy223 O237 2.326 . S
O224 Dy220 2.398 . S
O224 C222 1.185 . S
O225 Dy220 2.491 . S
O225 C222 1.355 . S
O226 Dy220 2.403 . S
O226 C228 1.254 . S
O227 Dy220 2.664 . S
O227 Dy223 2.310 . S
O227 C228 1.268 . S
C228 O226 1.254 . S
C228 O227 1.268 . S
C229 O234 1.254 . S
C229 O235 1.268 . S
O230 Dy223 2.351 . S
O230 C238 1.249 . S
O231 Dy220 2.326 . S
O231 C238 1.267 . S
O232 C221 1.185 . S
O232 Dy223 2.398 . S
O233 C221 1.355 . S
O233 Dy223 2.491 . S
O234 Dy223 2.403 . S
O234 C229 1.254 . S
O235 Dy220 2.310 . S
O235 Dy223 2.664 . S
O235 C229 1.268 . S
O236 Dy220 2.351 . S
O236 C239 1.249 . S
O237 Dy223 2.326 . S
O237 C239 1.267 . S
C238 O230 1.249 . S
C238 O231 1.267 . S
C239 O236 1.249 . S
C239 O237 1.267 . S
Dy240 O244 2.398 . S
Dy240 O245 2.491 . S
Dy240 O246 2.403 . S
Dy240 O247 2.664 . S
Dy240 O251 2.326 . S
Dy240 O255 2.310 . S
Dy240 O256 2.351 . S
C241 O252 1.185 . S
C241 O253 1.355 . S
C242 O244 1.185 . S
C242 O245 1.355 . S
Dy243 O247 2.310 . S
Dy243 O250 2.351 . S
Dy243 O252 2.398 . S
Dy243 O253 2.491 . S
Dy243 O254 2.403 . S
Dy243 O255 2.664 . S
Dy243 O257 2.326 . S
O244 Dy240 2.398 . S
O244 C242 1.185 . S
O245 Dy240 2.491 . S
O245 C242 1.355 . S
O246 Dy240 2.403 . S
O246 C248 1.254 . S
O247 Dy240 2.664 . S
O247 Dy243 2.310 . S
O247 C248 1.268 . S
C248 O246 1.254 . S
C248 O247 1.268 . S
C249 O254 1.254 . S
C249 O255 1.268 . S
O250 Dy243 2.351 . S
O250 C258 1.249 . S
O251 Dy240 2.326 . S
O251 C258 1.267 . S
O252 C241 1.185 . S
O252 Dy243 2.398 . S
O253 C241 1.355 . S
O253 Dy243 2.491 . S
O254 Dy243 2.403 . S
O254 C249 1.254 . S
O255 Dy240 2.310 . S
O255 Dy243 2.664 . S
O255 C249 1.268 . S
O256 Dy240 2.351 . S
O256 C259 1.249 . S
O257 Dy243 2.326 . S
O257 C259 1.267 . S
C258 O250 1.249 . S
C258 O251 1.267 . S
C259 O256 1.249 . S
C259 O257 1.267 . S
Dy260 O264 2.398 . S
Dy260 O265 2.491 . S
Dy260 O266 2.403 . S
Dy260 O267 2.664 . S
Dy260 O271 2.326 . S
Dy260 O275 2.310 . S
Dy260 O276 2.351 . S
C261 O272 1.185 . S
C261 O273 1.355 . S
C262 O264 1.185 . S
C262 O265 1.355 . S
Dy263 O267 2.310 . S
Dy263 O270 2.351 . S
Dy263 O272 2.398 . S
Dy263 O273 2.491 . S
Dy263 O274 2.403 . S
Dy263 O275 2.664 . S
Dy263 O277 2.326 . S
O264 Dy260 2.398 . S
O264 C262 1.185 . S
O265 Dy260 2.491 . S
O265 C262 1.355 . S
O266 Dy260 2.403 . S
O266 C268 1.254 . S
O267 Dy260 2.664 . S
O267 Dy263 2.310 . S
O267 C268 1.268 . S
C268 O266 1.254 . S
C268 O267 1.268 . S
C269 O274 1.254 . S
C269 O275 1.268 . S
O270 Dy263 2.351 . S
O270 C278 1.249 . S
O271 Dy260 2.326 . S
O271 C278 1.267 . S
O272 C261 1.185 . S
O272 Dy263 2.398 . S
O273 C261 1.355 . S
O273 Dy263 2.491 . S
O274 Dy263 2.403 . S
O274 C269 1.254 . S
O275 Dy260 2.310 . S
O275 Dy263 2.664 . S
O275 C269 1.268 . S
O276 Dy260 2.351 . S
O276 C279 1.249 . S
O277 Dy263 2.326 . S
O277 C279 1.267 . S
C278 O270 1.249 . S
C278 O271 1.267 . S
C279 O276 1.249 . S
C279 O277 1.267 . S
Dy280 O284 2.398 . S
Dy280 O285 2.491 . S
Dy280 O286 2.403 . S
Dy280 O287 2.664 . S
Dy280 O291 2.326 . S
Dy280 O295 2.310 . S
Dy280 O296 2.351 . S
C281 O292 1.185 . S
C281 O293 1.355 . S
C282 O284 1.185 . S
C282 O285 1.355 . S
Dy283 O287 2.310 . S
Dy283 O290 2.351 . S
Dy283 O292 2.398 . S
Dy283 O293 2.491 . S
Dy283 O294 2.403 . S
Dy283 O295 2.664 . S
Dy283 O297 2.326 . S
O284 Dy280 2.398 . S
O284 C282 1.185 . S
O285 Dy280 2.491 . S
O285 C282 1.355 . S
O286 Dy280 2.403 . S
O286 C288 1.254 . S
O287 Dy280 2.664 . S
O287 Dy283 2.310 . S
O287 C288 1.268 . S
C288 O286 1.254 . S
C288 O287 1.268 . S
C289 O294 1.254 . S
C289 O295 1.268 . S
O290 Dy283 2.351 . S
O290 C298 1.249 . S
O291 Dy280 2.326 . S
O291 C298 1.267 . S
O292 C281 1.185 . S
O292 Dy283 2.398 . S
O293 C281 1.355 . S
O293 Dy283 2.491 . S
O294 Dy283 2.403 . S
O294 C289 1.254 . S
O295 Dy280 2.310 . S
O295 Dy283 2.664 . S
O295 C289 1.268 . S
O296 Dy280 2.351 . S
O296 C299 1.249 . S
O297 Dy283 2.326 . S
O297 C299 1.267 . S
C298 O290 1.249 . S
C298 O291 1.267 . S
C299 O296 1.249 . S
C299 O297 1.267 . S
Dy300 O304 2.398 . S
Dy300 O305 2.491 . S
Dy300 O306 2.403 . S
Dy300 O307 2.664 . S
Dy300 O311 2.326 . S
Dy300 O315 2.310 . S
Dy300 O316 2.351 . S
C301 O312 1.185 . S
C301 O313 1.355 . S
C302 O304 1.185 . S
C302 O305 1.355 . S
Dy303 O307 2.310 . S
Dy303 O310 2.351 . S
Dy303 O312 2.398 . S
Dy303 O313 2.491 . S
Dy303 O314 2.403 . S
Dy303 O315 2.664 . S
Dy303 O317 2.326 . S
O304 Dy300 2.398 . S
O304 C302 1.185 . S
O305 Dy300 2.491 . S
O305 C302 1.355 . S
O306 Dy300 2.403 . S
O306 C308 1.254 . S
O307 Dy300 2.664 . S
O307 Dy303 2.310 . S
O307 C308 1.268 . S
C308 O306 1.254 . S
C308 O307 1.268 . S
C309 O314 1.254 . S
C309 O315 1.268 . S
O310 Dy303 2.351 . S
O310 C318 1.249 . S
O311 Dy300 2.326 . S
O311 C318 1.267 . S
O312 C301 1.185 . S
O312 Dy303 2.398 . S
O313 C301 1.355 . S
O313 Dy303 2.491 . S
O314 Dy303 2.403 . S
O314 C309 1.254 . S
O315 Dy300 2.310 . S
O315 Dy303 2.664 . S
O315 C309 1.268 . S
O316 Dy300 2.351 . S
O316 C319 1.249 . S
O317 Dy303 2.326 . S
O317 C319 1.267 . S
C318 O310 1.249 . S
C318 O311 1.267 . S
C319 O316 1.249 . S
C319 O317 1.267 . S
Dy320 O324 2.398 . S
Dy320 O325 2.491 . S
Dy320 O326 2.403 . S
Dy320 O327 2.664 . S
Dy320 O331 2.326 . S
Dy320 O335 2.310 . S
Dy320 O336 2.351 . S
C321 O332 1.185 . S
C321 O333 1.355 . S
C322 O324 1.185 . S
C322 O325 1.355 . S
Dy323 O327 2.310 . S
Dy323 O330 2.351 . S
Dy323 O332 2.398 . S
Dy323 O333 2.491 . S
Dy323 O334 2.403 . S
Dy323 O335 2.664 . S
Dy323 O337 2.326 . S
O324 Dy320 2.398 . S
O324 C322 1.185 . S
O325 Dy320 2.491 . S
O325 C322 1.355 . S
O326 Dy320 2.403 . S
O326 C328 1.254 . S
O327 Dy320 2.664 . S
O327 Dy323 2.310 . S
O327 C328 1.268 . S
C328 O326 1.254 . S
C328 O327 1.268 . S
C329 O334 1.254 . S
C329 O335 1.268 . S
O330 Dy323 2.351 . S
O330 C338 1.249 . S
O331 Dy320 2.326 . S
O331 C338 1.267 . S
O332 C321 1.185 . S
O332 Dy323 2.398 . S
O333 C321 1.355 . S
O333 Dy323 2.491 . S
O334 Dy323 2.403 . S
O334 C329 1.254 . S
O335 Dy320 2.310 . S
O335 Dy323 2.664 . S
O335 C329 1.268 . S
O336 Dy320 2.351 . S
O336 C339 1.249 . S
O337 Dy323 2.326 . S
O337 C339 1.267 . S
C338 O330 1.249 . S
C338 O331 1.267 . S
C339 O336 1.249 . S
C339 O337 1.267 . S
Dy340 O344 2.398 . S
Dy340 O345 2.491 . S
Dy340 O346 2.403 . S
Dy340 O347 2.664 . S
Dy340 O351 2.326 . S
Dy340 O355 2.310 . S
Dy340 O356 2.351 . S
C341 O352 1.185 . S
C341 O353 1.355 . S
C342 O344 1.185 . S
C342 O345 1.355 . S
Dy343 O347 2.310 . S
Dy343 O350 2.351 . S
Dy343 O352 2.398 . S
Dy343 O353 2.491 . S
Dy343 O354 2.403 . S
Dy343 O355 2.664 . S
Dy343 O357 2.326 . S
O344 Dy340 2.398 . S
O344 C342 1.185 . S
O345 Dy340 2.491 . S
O345 C342 1.355 . S
O346 Dy340 2.403 . S
O346 C348 1.254 . S
O347 Dy340 2.664 . S
O347 Dy343 2.310 . S
O347 C348 1.268 . S
C348 O346 1.254 . S
C348 O347 1.268 . S
C349 O354 1.254 . S
C349 O355 1.268 . S
O350 Dy343 2.351 . S
O350 C358 1.249 . S
O351 Dy340 2.326 . S
O351 C358 1.267 . S
O352 C341 1.185 . S
O352 Dy343 2.398 . S
O353 C341 1.355 . S
O353 Dy343 2.491 . S
O354 Dy343 2.403 . S
O354 C349 1.254 . S
O355 Dy340 2.310 . S
O355 Dy343 2.664 . S
O355 C349 1.268 . S
O356 Dy340 2.351 . S
O356 C359 1.249 . S
O357 Dy343 2.326 . S
O357 C359 1.267 . S
C358 O350 1.249 . S
C358 O351 1.267 . S
C359 O356 1.249 . S
C359 O357 1.267 . S
Dy360 O364 2.398 . S
Dy360 O365 2.491 . S
Dy360 O366 2.403 . S
Dy360 O367 2.664 . S
Dy360 O371 2.326 . S
Dy360 O375 2.310 . S
Dy360 O376 2.351 . S
C361 O372 1.185 . S
C361 O373 1.355 . S
C362 O364 1.185 . S
C362 O365 1.355 . S
Dy363 O367 2.310 . S
Dy363 O370 2.351 . S
Dy363 O372 2.398 . S
Dy363 O373 2.491 . S
Dy363 O374 2.403 . S
Dy363 O375 2.664 . S
Dy363 O377 2.326 . S
O364 Dy360 2.398 . S
O364 C362 1.185 . S
O365 Dy360 2.491 . S
O365 C362 1.355 . S
O366 Dy360 2.403 . S
O366 C368 1.254 . S
O367 Dy360 2.664 . S
O367 Dy363 2.310 . S
O367 C368 1.268 . S
C368 O366 1.254 . S
C368 O367 1.268 . S
C369 O374 1.254 . S
C369 O375 1.268 . S
O370 Dy363 2.351 . S
O370 C378 1.249 . S
O371 Dy360 2.326 . S
O371 C378 1.267 . S
O372 C361 1.185 . S
O372 Dy363 2.398 . S
O373 C361 1.355 . S
O373 Dy363 2.491 . S
O374 Dy363 2.403 . S
O374 C369 1.254 . S
O375 Dy360 2.310 . S
O375 Dy363 2.664 . S
O375 C369 1.268 . S
O376 Dy360 2.351 . S
O376 C379 1.249 . S
O377 Dy363 2.326 . S
O377 C379 1.267 . S
C378 O370 1.249 . S
C378 O371 1.267 . S
C379 O376 1.249 . S
C379 O377 1.267 . S
Dy380 O384 2.398 . S
Dy380 O385 2.491 . S
Dy380 O386 2.403 . S
Dy380 O387 2.664 . S
Dy380 O391 2.326 . S
Dy380 O395 2.310 . S
Dy380 O396 2.351 . S
C381 O392 1.185 . S
C381 O393 1.355 . S
C382 O384 1.185 . S
C382 O385 1.355 . S
Dy383 O387 2.310 . S
Dy383 O390 2.351 . S
Dy383 O392 2.398 . S
Dy383 O393 2.491 . S
Dy383 O394 2.403 . S
Dy383 O395 2.664 . S
Dy383 O397 2.326 . S
O384 Dy380 2.398 . S
O384 C382 1.185 . S
O385 Dy380 2.491 . S
O385 C382 1.355 . S
O386 Dy380 2.403 . S
O386 C388 1.254 . S
O387 Dy380 2.664 . S
O387 Dy383 2.310 . S
O387 C388 1.268 . S
C388 O386 1.254 . S
C388 O387 1.268 . S
C389 O394 1.254 . S
C389 O395 1.268 . S
O390 Dy383 2.351 . S
O390 C398 1.249 . S
O391 Dy380 2.326 . S
O391 C398 1.267 . S
O392 C381 1.185 . S
O392 Dy383 2.398 . S
O393 C381 1.355 . S
O393 Dy383 2.491 . S
O394 Dy383 2.403 . S
O394 C389 1.254 . S
O395 Dy380 2.310 . S
O395 Dy383 2.664 . S
O395 C389 1.268 . S
O396 Dy380 2.351 . S
O396 C399 1.249 . S
O397 Dy383 2.326 . S
O397 C399 1.267 . S
C398 O390 1.249 . S
C398 O391 1.267 . S
C399 O396 1.249 . S
C399 O397 1.267 . S
Dy400 O404 2.398 . S
Dy400 O405 2.491 . S
Dy400 O406 2.403 . S
Dy400 O407 2.664 . S
Dy400 O411 2.326 . S
Dy400 O415 2.310 . S
Dy400 O416 2.351 . S
C401 O412 1.185 . S
C401 O413 1.355 . S
C402 O404 1.185 . S
C402 O405 1.355 . S
Dy403 O407 2.310 . S
Dy403 O410 2.351 . S
Dy403 O412 2.398 . S
Dy403 O413 2.491 . S
Dy403 O414 2.403 . S
Dy403 O415 2.664 . S
Dy403 O417 2.326 . S
O404 Dy400 2.398 . S
O404 C402 1.185 . S
O405 Dy400 2.491 . S
O405 C402 1.355 . S
O406 Dy400 2.403 . S
O406 C408 1.254 . S
O407 Dy400 2.664 . S
O407 Dy403 2.310 . S
O407 C408 1.268 . S
C408 O406 1.254 . S
C408 O407 1.268 . S
C409 O414 1.254 . S
C409 O415 1.268 . S
O410 Dy403 2.351 . S
O410 C418 1.249 . S
O411 Dy400 2.326 . S
O411 C418 1.267 . S
O412 C401 1.185 . S
O412 Dy403 2.398 . S
O413 C401 1.355 . S
O413 Dy403 2.491 . S
O414 Dy403 2.403 . S
O414 C409 1.254 . S
O415 Dy400 2.310 . S
O415 Dy403 2.664 . S
O415 C409 1.268 . S
O416 Dy400 2.351 . S
O416 C419 1.249 . S
O417 Dy403 2.326 . S
O417 C419 1.267 . S
C418 O410 1.249 . S
C418 O411 1.267 . S
C419 O416 1.249 . S
C419 O417 1.267 . S
Dy420 O424 2.398 . S
Dy420 O425 2.491 . S
Dy420 O426 2.403 . S
Dy420 O427 2.664 . S
Dy420 O431 2.326 . S
Dy420 O435 2.310 . S
Dy420 O436 2.351 . S
C421 O432 1.185 . S
C421 O433 1.355 . S
C422 O424 1.185 . S
C422 O425 1.355 . S
Dy423 O427 2.310 . S
Dy423 O430 2.351 . S
Dy423 O432 2.398 . S
Dy423 O433 2.491 . S
Dy423 O434 2.403 . S
Dy423 O435 2.664 . S
Dy423 O437 2.326 . S
O424 Dy420 2.398 . S
O424 C422 1.185 . S
O425 Dy420 2.491 . S
O425 C422 1.355 . S
O426 Dy420 2.403 . S
O426 C428 1.254 . S
O427 Dy420 2.664 . S
O427 Dy423 2.310 . S
O427 C428 1.268 . S
C428 O426 1.254 . S
C428 O427 1.268 . S
C429 O434 1.254 . S
C429 O435 1.268 . S
O430 Dy423 2.351 . S
O430 C438 1.249 . S
O431 Dy420 2.326 . S
O431 C438 1.267 . S
O432 C421 1.185 . S
O432 Dy423 2.398 . S
O433 C421 1.355 . S
O433 Dy423 2.491 . S
O434 Dy423 2.403 . S
O434 C429 1.254 . S
O435 Dy420 2.310 . S
O435 Dy423 2.664 . S
O435 C429 1.268 . S
O436 Dy420 2.351 . S
O436 C439 1.249 . S
O437 Dy423 2.326 . S
O437 C439 1.267 . S
C438 O430 1.249 . S
C438 O431 1.267 . S
C439 O436 1.249 . S
C439 O437 1.267 . S
Dy440 O444 2.398 . S
Dy440 O445 2.491 . S
Dy440 O446 2.403 . S
Dy440 O447 2.664 . S
Dy440 O451 2.326 . S
Dy440 O455 2.310 . S
Dy440 O456 2.351 . S
C441 O452 1.185 . S
C441 O453 1.355 . S
C442 O444 1.185 . S
C442 O445 1.355 . S
Dy443 O447 2.310 . S
Dy443 O450 2.351 . S
Dy443 O452 2.398 . S
Dy443 O453 2.491 . S
Dy443 O454 2.403 . S
Dy443 O455 2.664 . S
Dy443 O457 2.326 . S
O444 Dy440 2.398 . S
O444 C442 1.185 . S
O445 Dy440 2.491 . S
O445 C442 1.355 . S
O446 Dy440 2.403 . S
O446 C448 1.254 . S
O447 Dy440 2.664 . S
O447 Dy443 2.310 . S
O447 C448 1.268 . S
C448 O446 1.254 . S
C448 O447 1.268 . S
C449 O454 1.254 . S
C449 O455 1.268 . S
O450 Dy443 2.351 . S
O450 C458 1.249 . S
O451 Dy440 2.326 . S
O451 C458 1.267 . S
O452 C441 1.185 . S
O452 Dy443 2.398 . S
O453 C441 1.355 . S
O453 Dy443 2.491 . S
O454 Dy443 2.403 . S
O454 C449 1.254 . S
O455 Dy440 2.310 . S
O455 Dy443 2.664 . S
O455 C449 1.268 . S
O456 Dy440 2.351 . S
O456 C459 1.249 . S
O457 Dy443 2.326 . S
O457 C459 1.267 . S
C458 O450 1.249 . S
C458 O451 1.267 . S
C459 O456 1.249 . S
C459 O457 1.267 . S
Dy460 O464 2.398 . S
Dy460 O465 2.491 . S
Dy460 O466 2.403 . S
Dy460 O467 2.664 . S
Dy460 O471 2.326 . S
Dy460 O475 2.310 . S
Dy460 O476 2.351 . S
C461 O472 1.185 . S
C461 O473 1.355 . S
C462 O464 1.185 . S
C462 O465 1.355 . S
Dy463 O467 2.310 . S
Dy463 O470 2.351 . S
Dy463 O472 2.398 . S
Dy463 O473 2.491 . S
Dy463 O474 2.403 . S
Dy463 O475 2.664 . S
Dy463 O477 2.326 . S
O464 Dy460 2.398 . S
O464 C462 1.185 . S
O465 Dy460 2.491 . S
O465 C462 1.355 . S
O466 Dy460 2.403 . S
O466 C468 1.254 . S
O467 Dy460 2.664 . S
O467 Dy463 2.310 . S
O467 C468 1.268 . S
C468 O466 1.254 . S
C468 O467 1.268 . S
C469 O474 1.254 . S
C469 O475 1.268 . S
O470 Dy463 2.351 . S
O470 C478 1.249 . S
O471 Dy460 2.326 . S
O471 C478 1.267 . S
O472 C461 1.185 . S
O472 Dy463 2.398 . S
O473 C461 1.355 . S
O473 Dy463 2.491 . S
O474 Dy463 2.403 . S
O474 C469 1.254 . S
O475 Dy460 2.310 . S
O475 Dy463 2.664 . S
O475 C469 1.268 . S
O476 Dy460 2.351 . S
O476 C479 1.249 . S
O477 Dy463 2.326 . S
O477 C479 1.267 . S
C478 O470 1.249 . S
C478 O471 1.267 . S
C479 O476 1.249 . S
C479 O477 1.267 . S
Dy480 O484 2.398 . S
Dy480 O485 2.491 . S
Dy480 O486 2.403 . S
Dy480 O487 2.664 . S
Dy480 O491 2.326 . S
Dy480 O495 2.310 . S
Dy480 O496 2.351 . S
C481 O492 1.185 . S
C481 O493 1.355 . S
C482 O484 1.185 . S
C482 O485 1.355 . S
Dy483 O487 2.310 . S
Dy483 O490 2.351 . S
Dy483 O492 2.398 . S
Dy483 O493 2.491 . S
Dy483 O494 2.403 . S
Dy483 O495 2.664 . S
Dy483 O497 2.326 . S
O484 Dy480 2.398 . S
O484 C482 1.185 . S
O485 Dy480 2.491 . S
O485 C482 1.355 . S
O486 Dy480 2.403 . S
O486 C488 1.254 . S
O487 Dy480 2.664 . S
O487 Dy483 2.310 . S
O487 C488 1.268 . S
C488 O486 1.254 . S
C488 O487 1.268 . S
C489 O494 1.254 . S
C489 O495 1.268 . S
O490 Dy483 2.351 . S
O490 C498 1.249 . S
O491 Dy480 2.326 . S
O491 C498 1.267 . S
O492 C481 1.185 . S
O492 Dy483 2.398 . S
O493 C481 1.355 . S
O493 Dy483 2.491 . S
O494 Dy483 2.403 . S
O494 C489 1.254 . S
O495 Dy480 2.310 . S
O495 Dy483 2.664 . S
O495 C489 1.268 . S
O496 Dy480 2.351 . S
O496 C499 1.249 . S
O497 Dy483 2.326 . S
O497 C499 1.267 . S
C498 O490 1.249 . S
C498 O491 1.267 . S
C499 O496 1.249 . S
C499 O497 1.267 . S
Dy500 O504 2.398 . S
Dy500 O505 2.491 . S
Dy500 O506 2.403 . S
Dy500 O507 2.664 . S
Dy500 O511 2.326 . S
Dy500 O515 2.310 . S
Dy500 O516 2.351 . S
C501 O512 1.185 . S
C501 O513 1.355 . S
C502 O504 1.185 . S
C502 O505 1.355 . S
Dy503 O507 2.310 . S
Dy503 O510 2.351 . S
Dy503 O512 2.398 . S
Dy503 O513 2.491 . S
Dy503 O514 2.403 . S
Dy503 O515 2.664 . S
Dy503 O517 2.326 . S
O504 Dy500 2.398 . S
O504 C502 1.185 . S
O505 Dy500 2.491 . S
O505 C502 1.355 . S
O506 Dy500 2.403 . S
O506 C508 1.254 . S
O507 Dy500 2.664 . S
O507 Dy503 2.310 . S
O507 C508 1.268 . S
C508 O506 1.254 . S
C508 O507 1.268 . S
C509 O514 1.254 . S
C509 O515 1.268 . S
O510 Dy503 2.351 . S
O510 C518 1.249 . S
O511 Dy500 2.326 . S
O511 C518 1.267 . S
O512 C501 1.185 . S
O512 Dy503 2.398 . S
O513 C501 1.355 . S
O513 Dy503 2.491 . S
O514 Dy503 2.403 . S
O514 C509 1.254 . S
O515 Dy500 2.310 . S
O515 Dy503 2.664 . S
O515 C509 1.268 . S
O516 Dy500 2.351 . S
O516 C519 1.249 . S
O517 Dy503 2.326 . S
O517 C519 1.267 . S
C518 O510 1.249 . S
C518 O511 1.267 . S
C519 O516 1.249 . S
C519 O517 1.267 . S
Dy520 O524 2.398 . S
Dy520 O525 2.491 . S
Dy520 O526 2.403 . S
Dy520 O527 2.664 . S
Dy520 O531 2.326 . S
Dy520 O535 2.310 . S
Dy520 O536 2.351 . S
C521 O532 1.185 . S
C521 O533 1.355 . S
C522 O524 1.185 . S
C522 O525 1.355 . S
Dy523 O527 2.310 . S
Dy523 O530 2.351 . S
Dy523 O532 2.398 . S
Dy523 O533 2.491 . S
Dy523 O534 2.403 . S
Dy523 O535 2.664 . S
Dy523 O537 2.326 . S
O524 Dy520 2.398 . S
O524 C522 1.185 . S
O525 Dy520 2.491 . S
O525 C522 1.355 . S
O526 Dy520 2.403 . S
O526 C528 1.254 . S
O527 Dy520 2.664 . S
O527 Dy523 2.310 . S
O527 C528 1.268 . S
C528 O526 1.254 . S
C528 O527 1.268 . S
C529 O534 1.254 . S
C529 O535 1.268 . S
O530 Dy523 2.351 . S
O530 C538 1.249 . S
O531 Dy520 2.326 . S
O531 C538 1.267 . S
O532 C521 1.185 . S
O532 Dy523 2.398 . S
O533 C521 1.355 . S
O533 Dy523 2.491 . S
O534 Dy523 2.403 . S
O534 C529 1.254 . S
O535 Dy520 2.310 . S
O535 Dy523 2.664 . S
O535 C529 1.268 . S
O536 Dy520 2.351 . S
O536 C539 1.249 . S
O537 Dy523 2.326 . S
O537 C539 1.267 . S
C538 O530 1.249 . S
C538 O531 1.267 . S
C539 O536 1.249 . S
C539 O537 1.267 . S
Dy540 O544 2.398 . S
Dy540 O545 2.491 . S
Dy540 O546 2.403 . S
Dy540 O547 2.664 . S
Dy540 O551 2.326 . S
Dy540 O555 2.310 . S
Dy540 O556 2.351 . S
C541 O552 1.185 . S
C541 O553 1.355 . S
C542 O544 1.185 . S
C542 O545 1.355 . S
Dy543 O547 2.310 . S
Dy543 O550 2.351 . S
Dy543 O552 2.398 . S
Dy543 O553 2.491 . S
Dy543 O554 2.403 . S
Dy543 O555 2.664 . S
Dy543 O557 2.326 . S
O544 Dy540 2.398 . S
O544 C542 1.185 . S
O545 Dy540 2.491 . S
O545 C542 1.355 . S
O546 Dy540 2.403 . S
O546 C548 1.254 . S
O547 Dy540 2.664 . S
O547 Dy543 2.310 . S
O547 C548 1.268 . S
C548 O546 1.254 . S
C548 O547 1.268 . S
C549 O554 1.254 . S
C549 O555 1.268 . S
O550 Dy543 2.351 . S
O550 C558 1.249 . S
O551 Dy540 2.326 . S
O551 C558 1.267 . S
O552 C541 1.185 . S
O552 Dy543 2.398 . S
O553 C541 1.355 . S
O553 Dy543 2.491 . S
O554 Dy543 2.403 . S
O554 C549 1.254 . S
O555 Dy540 2.310 . S
O555 Dy543 2.664 . S
O555 C549 1.268 . S
O556 Dy540 2.351 . S
O556 C559 1.249 . S
O557 Dy543 2.326 . S
O557 C559 1.267 . S
C558 O550 1.249 . S
C558 O551 1.267 . S
C559 O556 1.249 . S
C559 O557 1.267 . S
Dy560 O564 2.398 . S
Dy560 O565 2.491 . S
Dy560 O566 2.403 . S
Dy560 O567 2.664 . S
Dy560 O571 2.326 . S
Dy560 O575 2.310 . S
Dy560 O576 2.351 . S
C561 O572 1.185 . S
C561 O573 1.355 . S
C562 O564 1.185 . S
C562 O565 1.355 . S
Dy563 O567 2.310 . S
Dy563 O570 2.351 . S
Dy563 O572 2.398 . S
Dy563 O573 2.491 . S
Dy563 O574 2.403 . S
Dy563 O575 2.664 . S
Dy563 O577 2.326 . S
O564 Dy560 2.398 . S
O564 C562 1.185 . S
O565 Dy560 2.491 . S
O565 C562 1.355 . S
O566 Dy560 2.403 . S
O566 C568 1.254 . S
O567 Dy560 2.664 . S
O567 Dy563 2.310 . S
O567 C568 1.268 . S
C568 O566 1.254 . S
C568 O567 1.268 . S
C569 O574 1.254 . S
C569 O575 1.268 . S
O570 Dy563 2.351 . S
O570 C578 1.249 . S
O571 Dy560 2.326 . S
O571 C578 1.267 . S
O572 C561 1.185 . S
O572 Dy563 2.398 . S
O573 C561 1.355 . S
O573 Dy563 2.491 . S
O574 Dy563 2.403 . S
O574 C569 1.254 . S
O575 Dy560 2.310 . S
O575 Dy563 2.664 . S
O575 C569 1.268 . S
O576 Dy560 2.351 . S
O576 C579 1.249 . S
O577 Dy563 2.326 . S
O577 C579 1.267 . S
C578 O570 1.249 . S
C578 O571 1.267 . S
C579 O576 1.249 . S
C579 O577 1.267 . S
Dy580 O584 2.398 . S
Dy580 O585 2.491 . S
Dy580 O586 2.403 . S
Dy580 O587 2.664 . S
Dy580 O591 2.326 . S
Dy580 O595 2.310 . S
Dy580 O596 2.351 . S
C581 O592 1.185 . S
C581 O593 1.355 . S
C582 O584 1.185 . S
C582 O585 1.355 . S
Dy583 O587 2.310 . S
Dy583 O590 2.351 . S
Dy583 O592 2.398 . S
Dy583 O593 2.491 . S
Dy583 O594 2.403 . S
Dy583 O595 2.664 . S
Dy583 O597 2.326 . S
O584 Dy580 2.398 . S
O584 C582 1.185 . S
O585 Dy580 2.491 . S
O585 C582 1.355 . S
O586 Dy580 2.403 . S
O586 C588 1.254 . S
O587 Dy580 2.664 . S
O587 Dy583 2.310 . S
O587 C588 1.268 . S
C588 O586 1.254 . S
C588 O587 1.268 . S
C589 O594 1.254 . S
C589 O595 1.268 . S
O590 Dy583 2.351 . S
O590 C598 1.249 . S
O591 Dy580 2.326 . S
O591 C598 1.267 . S
O592 C581 1.185 . S
O592 Dy583 2.398 . S
O593 C581 1.355 . S
O593 Dy583 2.491 . S
O594 Dy583 2.403 . S
O594 C589 1.254 . S
O595 Dy580 2.310 . S
O595 Dy583 2.664 . S
O595 C589 1.268 . S
O596 Dy580 2.351 . S
O596 C599 1.249 . S
O597 Dy583 2.326 . S
O597 C599 1.267 . S
C598 O590 1.249 . S
C598 O591 1.267 . S
C599 O596 1.249 . S
C599 O597 1.267 . S
Dy600 O604 2.398 . S
Dy600 O605 2.491 . S
Dy600 O606 2.403 . S
Dy600 O607 2.664 . S
Dy600 O611 2.326 . S
Dy600 O615 2.310 . S
Dy600 O616 2.351 . S
C601 O612 1.185 . S
C601 O613 1.355 . S
C602 O604 1.185 . S
C602 O605 1.355 . S
Dy603 O607 2.310 . S
Dy603 O610 2.351 . S
Dy603 O612 2.398 . S
Dy603 O613 2.491 . S
Dy603 O614 2.403 . S
Dy603 O615 2.664 . S
Dy603 O617 2.326 . S
O604 Dy600 2.398 . S
O604 C602 1.185 . S
O605 Dy600 2.491 . S
O605 C602 1.355 . S
O606 Dy600 2.403 . S
O606 C608 1.254 . S
O607 Dy600 2.664 . S
O607 Dy603 2.310 . S
O607 C608 1.268 . S
C608 O606 1.254 . S
C608 O607 1.268 . S
C609 O614 1.254 . S
C609 O615 1.268 . S
O610 Dy603 2.351 . S
O610 C618 1.249 . S
O611 Dy600 2.326 . S
O611 C618 1.267 . S
O612 C601 1.185 . S
O612 Dy603 2.398 . S
O613 C601 1.355 . S
O613 Dy603 2.491 . S
O614 Dy603 2.403 . S
O614 C609 1.254 . S
O615 Dy600 2.310 . S
O615 Dy603 2.664 . S
O615 C609 1.268 . S
O616 Dy600 2.351 . S
O616 C619 1.249 . S
O617 Dy603 2.326 . S
O617 C619 1.267 . S
C618 O610 1.249 . S
C618 O611 1.267 . S
C619 O616 1.249 . S
C619 O617 1.267 . S
Dy620 O624 2.398 . S
Dy620 O625 2.491 . S
Dy620 O626 2.403 . S
Dy620 O627 2.664 . S
Dy620 O631 2.326 . S
Dy620 O635 2.310 . S
Dy620 O636 2.351 . S
C621 O632 1.185 . S
C621 O633 1.355 . S
C622 O624 1.185 . S
C622 O625 1.355 . S
Dy623 O627 2.310 . S
Dy623 O630 2.351 . S
Dy623 O632 2.398 . S
Dy623 O633 2.491 . S
Dy623 O634 2.403 . S
Dy623 O635 2.664 . S
Dy623 O637 2.326 . S
O624 Dy620 2.398 . S
O624 C622 1.185 . S
O625 Dy620 2.491 . S
O625 C622 1.355 . S
O626 Dy620 2.403 . S
O626 C628 1.254 . S
O627 Dy620 2.664 . S
O627 Dy623 2.310 . S
O627 C628 1.268 . S
C628 O626 1.254 . S
C628 O627 1.268 . S
C629 O634 1.254 . S
C629 O635 1.268 . S
O630 Dy623 2.351 . S
O630 C638 1.249 . S
O631 Dy620 2.326 . S
O631 C638 1.267 . S
O632 C621 1.185 . S
O632 Dy623 2.398 . S
O633 C621 1.355 . S
O633 Dy623 2.491 . S
O634 Dy623 2.403 . S
O634 C629 1.254 . S
O635 Dy620 2.310 . S
O635 Dy623 2.664 . S
O635 C629 1.268 . S
O636 Dy620 2.351 . S
O636 C639 1.249 . S
O637 Dy623 2.326 . S
O637 C639 1.267 . S
C638 O630 1.249 . S
C638 O631 1.267 . S
C639 O636 1.249 . S
C639 O637 1.267 . S
Dy640 O644 2.398 . S
Dy640 O645 2.491 . S
Dy640 O646 2.403 . S
Dy640 O647 2.664 . S
Dy640 O651 2.326 . S
Dy640 O655 2.310 . S
Dy640 O656 2.351 . S
C641 O652 1.185 . S
C641 O653 1.355 . S
C642 O644 1.185 . S
C642 O645 1.355 . S
Dy643 O647 2.310 . S
Dy643 O650 2.351 . S
Dy643 O652 2.398 . S
Dy643 O653 2.491 . S
Dy643 O654 2.403 . S
Dy643 O655 2.664 . S
Dy643 O657 2.326 . S
O644 Dy640 2.398 . S
O644 C642 1.185 . S
O645 Dy640 2.491 . S
O645 C642 1.355 . S
O646 Dy640 2.403 . S
O646 C648 1.254 . S
O647 Dy640 2.664 . S
O647 Dy643 2.310 . S
O647 C648 1.268 . S
C648 O646 1.254 . S
C648 O647 1.268 . S
C649 O654 1.254 . S
C649 O655 1.268 . S
O650 Dy643 2.351 . S
O650 C658 1.249 . S
O651 Dy640 2.326 . S
O651 C658 1.267 . S
O652 C641 1.185 . S
O652 Dy643 2.398 . S
O653 C641 1.355 . S
O653 Dy643 2.491 . S
O654 Dy643 2.403 . S
O654 C649 1.254 . S
O655 Dy640 2.310 . S
O655 Dy643 2.664 . S
O655 C649 1.268 . S
O656 Dy640 2.351 . S
O656 C659 1.249 . S
O657 Dy643 2.326 . S
O657 C659 1.267 . S
C658 O650 1.249 . S
C658 O651 1.267 . S
C659 O656 1.249 . S
C659 O657 1.267 . S
Dy660 O664 2.398 . S
Dy660 O665 2.491 . S
Dy660 O666 2.403 . S
Dy660 O667 2.664 . S
Dy660 O671 2.326 . S
Dy660 O675 2.310 . S
Dy660 O676 2.351 . S
C661 O672 1.185 . S
C661 O673 1.355 . S
C662 O664 1.185 . S
C662 O665 1.355 . S
Dy663 O667 2.310 . S
Dy663 O670 2.351 . S
Dy663 O672 2.398 . S
Dy663 O673 2.491 . S
Dy663 O674 2.403 . S
Dy663 O675 2.664 . S
Dy663 O677 2.326 . S
O664 Dy660 2.398 . S
O664 C662 1.185 . S
O665 Dy660 2.491 . S
O665 C662 1.355 . S
O666 Dy660 2.403 . S
O666 C668 1.254 . S
O667 Dy660 2.664 . S
O667 Dy663 2.310 . S
O667 C668 1.268 . S
C668 O666 1.254 . S
C668 O667 1.268 . S
C669 O674 1.254 . S
C669 O675 1.268 . S
O670 Dy663 2.351 . S
O670 C678 1.249 . S
O671 Dy660 2.326 . S
O671 C678 1.267 . S
O672 C661 1.185 . S
O672 Dy663 2.398 . S
O673 C661 1.355 . S
O673 Dy663 2.491 . S
O674 Dy663 2.403 . S
O674 C669 1.254 . S
O675 Dy660 2.310 . S
O675 Dy663 2.664 . S
O675 C669 1.268 . S
O676 Dy660 2.351 . S
O676 C679 1.249 . S
O677 Dy663 2.326 . S
O677 C679 1.267 . S
C678 O670 1.249 . S
C678 O671 1.267 . S
C679 O676 1.249 . S
C679 O677 1.267 . S
Dy680 O684 2.398 . S
Dy680 O685 2.491 . S
Dy680 O686 2.403 . S
Dy680 O687 2.664 . S
Dy680 O691 2.326 . S
Dy680 O695 2.310 . S
Dy680 O696 2.351 . S
C681 O692 1.185 . S
C681 O693 1.355 . S
C682 O684 1.185 . S
C682 O685 1.355 . S
Dy683 O687 2.310 . S
Dy683 O690 2.351 . S
Dy683 O692 2.398 . S
Dy683 O693 2.491 . S
Dy683 O694 2.403 . S
Dy683 O695 2.664 . S
Dy683 O697 2.326 . S
O684 Dy680 2.398 . S
O684 C682 1.185 . S
O685 Dy680 2.491 . S
O685 C682 1.355 . S
O686 Dy680 2.403 . S
O686 C688 1.254 . S
O687 Dy680 2.664 . S
O687 Dy683 2.310 . S
O687 C688 1.268 . S
C688 O686 1.254 . S
C688 O687 1.268 . S
C689 O694 1.254 . S
C689 O695 1.268 . S
O690 Dy683 2.351 . S
O690 C698 1.249 . S
O691 Dy680 2.326 . S
O691 C698 1.267 . S
O692 C681 1.185 . S
O692 Dy683 2.398 . S
O693 C681 1.355 . S
O693 Dy683 2.491 . S
O694 Dy683 2.403 . S
O694 C689 1.254 . S
O695 Dy680 2.310 . S
O695 Dy683 2.664 . S
O695 C689 1.268 . S
O696 Dy680 2.351 . S
O696 C699 1.249 . S
O697 Dy683 2.326 . S
O697 C699 1.267 . S
C698 O690 1.249 . S
C698 O691 1.267 . S
C699 O696 1.249 . S
C699 O697 1.267 . S
Dy700 O704 2.398 . S
Dy700 O705 2.491 . S
Dy700 O706 2.403 . S
Dy700 O707 2.664 . S
Dy700 O711 2.326 . S
Dy700 O715 2.310 . S
Dy700 O716 2.351 . S
C701 O712 1.185 . S
C701 O713 1.355 . S
C702 O704 1.185 . S
C702 O705 1.355 . S
Dy703 O707 2.310 . S
Dy703 O710 2.351 . S
Dy703 O712 2.398 . S
Dy703 O713 2.491 . S
Dy703 O714 2.403 . S
Dy703 O715 2.664 . S
Dy703 O717 2.326 . S
O704 Dy700 2.398 . S
O704 C702 1.185 . S
O705 Dy700 2.491 . S
O705 C702 1.355 . S
O706 Dy700 2.403 . S
O706 C708 1.254 . S
O707 Dy700 2.664 . S
O707 Dy703 2.310 . S
O707 C708 1.268 . S
C708 O706 1.254 . S
C708 O707 1.268 . S
C709 O714 1.254 . S
C709 O715 1.268 . S
O710 Dy703 2.351 . S
O710 C718 1.249 . S
O711 Dy700 2.326 . S
O711 C718 1.267 . S
O712 C701 1.185 . S
O712 Dy703 2.398 . S
O713 C701 1.355 . S
O713 Dy703 2.491 . S
O714 Dy703 2.403 . S
O714 C709 1.254 . S
O715 Dy700 2.310 . S
O715 Dy703 2.664 . S
O715 C709 1.268 . S
O716 Dy700 2.351 . S
O716 C719 1.249 . S
O717 Dy703 2.326 . S
O717 C719 1.267 . S
C718 O710 1.249 . S
C718 O711 1.267 . S
C719 O716 1.249 . S
C719 O717 1.267 . S
H720 C726 0.930 . S
H721 C730 0.930 . S
H722 C735 0.929 . S
H723 C733 0.929 1_565 S
H724 C728 0.929 . S
H725 C734 0.929 . S
C726 H720 0.930 . S
C726 C727 1.367 . S
C726 C734 1.378 . S
C727 C726 1.367 . S
C727 C735 1.433 . S
C728 H724 0.929 . S
C728 C730 1.378 . S
C728 C732 1.350 1_556 S
C729 C732 1.463 . S
C729 C734 1.350 . S
C729 N737 1.427 . S
C730 H721 0.930 . S
C730 C728 1.378 . S
C730 C731 1.367 . S
C731 C730 1.367 . S
C731 C733 1.433 . S
C732 C728 1.350 1_554 S
C732 C729 1.463 . S
C732 N736 1.427 . S
C733 H723 0.929 1_545 S
C733 C731 1.433 . S
C733 N736 1.384 1_556 S
C734 H725 0.929 . S
C734 C726 1.378 . S
C734 C729 1.350 . S
C735 H722 0.929 . S
C735 C727 1.433 . S
C735 N737 1.384 . S
N736 C732 1.427 . S
N736 C733 1.384 1_554 S
N737 C729 1.427 . S
N737 C735 1.384 . S
H738 C744 0.930 . S
H739 C748 0.930 . S
H740 C753 0.929 1_455 S
H741 C751 0.929 . S
H742 C746 0.929 . S
H743 C752 0.929 . S
C744 H738 0.930 . S
C744 C745 1.367 . S
C744 C752 1.378 . S
C745 C744 1.367 . S
C745 C753 1.433 . S
C746 H742 0.929 . S
C746 C748 1.378 . S
C746 C750 1.350 . S
C747 C750 1.463 . S
C747 C752 1.350 1_554 S
C747 N755 1.427 . S
C748 H739 0.930 . S
C748 C746 1.378 . S
C748 C749 1.367 . S
C749 C748 1.367 . S
C749 C751 1.433 . S
C750 C746 1.350 . S
C750 C747 1.463 . S
C750 N754 1.427 . S
C751 H741 0.929 . S
C751 C749 1.433 . S
C751 N754 1.384 . S
C752 H743 0.929 . S
C752 C744 1.378 . S
C752 C747 1.350 1_556 S
C753 H740 0.929 1_655 S
C753 C745 1.433 . S
C753 N755 1.384 1_556 S
N754 C750 1.427 . S
N754 C751 1.384 . S
N755 C747 1.427 . S
N755 C753 1.384 1_554 S
H756 C762 0.933 . S
H757 C766 0.930 . S
H758 C771 0.929 . S
H759 C769 0.929 . S
H760 C764 0.929 . S
H761 C770 0.929 . S
C762 H756 0.933 . S
C762 C763 1.367 . S
C762 C770 1.378 1_556 S
C763 C762 1.367 . S
C763 C771 1.433 . S
C764 H760 0.929 . S
C764 C766 1.378 . S
C764 C768 1.350 . S
C765 C768 1.463 . S
C765 C770 1.350 . S
C765 N773 1.427 1_554 S
C766 H757 0.930 . S
C766 C764 1.378 . S
C766 C767 1.367 . S
C767 C766 1.367 . S
C767 C769 1.433 . S
C768 C764 1.350 . S
C768 C765 1.463 . S
C768 N772 1.427 . S
C769 H759 0.929 . S
C769 C767 1.433 . S
C769 N772 1.384 . S
C770 H761 0.929 . S
C770 C762 1.378 1_554 S
C770 C765 1.350 . S
C771 H758 0.929 . S
C771 C763 1.433 . S
C771 N773 1.384 . S
N772 C768 1.427 . S
N772 C769 1.384 . S
N773 C765 1.427 1_556 S
N773 C771 1.384 . S
H774 C780 0.930 . S
H775 C784 0.930 . S
H776 C789 0.929 . S
H777 C787 0.929 . S
H778 C782 0.929 . S
H779 C788 0.929 . S
C780 H774 0.930 . S
C780 C781 1.367 . S
C780 C788 1.378 . S
C781 C780 1.367 . S
C781 C789 1.433 . S
C782 H778 0.929 . S
C782 C784 1.378 . S
C782 C786 1.350 . S
C783 C786 1.463 . S
C783 C788 1.350 . S
C783 N791 1.427 . S
C784 H775 0.930 . S
C784 C782 1.378 . S
C784 C785 1.367 . S
C785 C784 1.367 . S
C785 C787 1.433 . S
C786 C782 1.350 . S
C786 C783 1.463 . S
C786 N790 1.427 . S
C787 H777 0.929 . S
C787 C785 1.433 . S
C787 N790 1.384 . S
C788 H779 0.929 . S
C788 C780 1.378 . S
C788 C783 1.350 . S
C789 H776 0.929 . S
C789 C781 1.433 . S
C789 N791 1.384 . S
N790 C786 1.427 . S
N790 C787 1.384 . S
N791 C783 1.427 . S
N791 C789 1.384 . S
H792 C798 0.930 . S
H793 C802 0.930 . S
H794 C807 0.929 . S
H795 C805 0.929 . S
H796 C800 0.929 . S
H797 C806 0.929 . S
C798 H792 0.930 . S
C798 C799 1.367 . S
C798 C806 1.378 . S
C799 C798 1.367 . S
C799 C807 1.433 . S
C800 H796 0.929 . S
C800 C802 1.378 . S
C800 C804 1.350 . S
C801 C804 1.463 . S
C801 C806 1.350 . S
C801 N809 1.427 . S
C802 H793 0.930 . S
C802 C800 1.378 . S
C802 C803 1.367 . S
C803 C802 1.367 . S
C803 C805 1.433 . S
C804 C800 1.350 . S
C804 C801 1.463 . S
C804 N808 1.427 . S
C805 H795 0.929 . S
C805 C803 1.433 . S
C805 N808 1.384 . S
C806 H797 0.929 . S
C806 C798 1.378 . S
C806 C801 1.350 . S
C807 H794 0.929 . S
C807 C799 1.433 . S
C807 N809 1.384 . S
N808 C804 1.427 . S
N808 C805 1.384 . S
N809 C801 1.427 . S
N809 C807 1.384 . S
H810 C816 0.930 . S
H811 C820 0.930 . S
H812 C825 0.929 . S
H813 C823 0.929 . S
H814 C818 0.929 . S
H815 C824 0.929 . S
C816 H810 0.930 . S
C816 C817 1.367 . S
C816 C824 1.378 . S
C817 C816 1.367 . S
C817 C825 1.433 . S
C818 H814 0.929 . S
C818 C820 1.378 . S
C818 C822 1.350 . S
C819 C822 1.463 . S
C819 C824 1.350 . S
C819 N827 1.427 . S
C820 H811 0.930 . S
C820 C818 1.378 . S
C820 C821 1.367 . S
C821 C820 1.367 . S
C821 C823 1.433 . S
C822 C818 1.350 . S
C822 C819 1.463 . S
C822 N826 1.427 . S
C823 H813 0.929 . S
C823 C821 1.433 . S
C823 N826 1.384 . S
C824 H815 0.929 . S
C824 C816 1.378 . S
C824 C819 1.350 . S
C825 H812 0.929 . S
C825 C817 1.433 . S
C825 N827 1.384 . S
N826 C822 1.427 . S
N826 C823 1.384 . S
N827 C819 1.427 . S
N827 C825 1.384 . S
H828 C834 0.930 1_545 S
H829 C838 0.930 . S
H830 C843 0.929 . S
H831 C841 0.929 . S
H832 C836 0.929 1_554 S
H833 C842 0.929 . S
C834 H828 0.930 1_565 S
C834 C835 1.367 1_556 S
C834 C842 1.378 . S
C835 C834 1.367 1_554 S
C835 C843 1.433 . S
C836 H832 0.929 1_556 S
C836 C838 1.378 . S
C836 C840 1.350 . S
C837 C840 1.463 . S
C837 C842 1.350 . S
C837 N845 1.427 1_556 S
C838 H829 0.930 . S
C838 C836 1.378 . S
C838 C839 1.367 . S
C839 C838 1.367 . S
C839 C841 1.433 . S
C840 C836 1.350 . S
C840 C837 1.463 . S
C840 N844 1.427 . S
C841 H831 0.929 . S
C841 C839 1.433 . S
C841 N844 1.384 . S
C842 H833 0.929 . S
C842 C834 1.378 . S
C842 C837 1.350 . S
C843 H830 0.929 . S
C843 C835 1.433 . S
C843 N845 1.384 . S
N844 C840 1.427 . S
N844 C841 1.384 . S
N845 C837 1.427 1_554 S
N845 C843 1.384 . S
H846 C852 0.930 . S
H847 C856 0.930 . S
H848 C861 0.929 . S
H849 C859 0.929 . S
H850 C854 0.929 . S
H851 C860 0.929 1_554 S
C852 H846 0.930 . S
C852 C853 1.367 . S
C852 C860 1.378 . S
C853 C852 1.367 . S
C853 C861 1.433 . S
C854 H850 0.929 . S
C854 C856 1.378 . S
C854 C858 1.350 . S
C855 C858 1.463 . S
C855 C860 1.350 . S
C855 N863 1.427 . S
C856 H847 0.930 . S
C856 C854 1.378 . S
C856 C857 1.367 1_556 S
C857 C856 1.367 1_554 S
C857 C859 1.433 . S
C858 C854 1.350 . S
C858 C855 1.463 . S
C858 N862 1.427 1_556 S
C859 H849 0.929 . S
C859 C857 1.433 . S
C859 N862 1.384 . S
C860 H851 0.929 1_556 S
C860 C852 1.378 . S
C860 C855 1.350 . S
C861 H848 0.929 . S
C861 C853 1.433 . S
C861 N863 1.384 . S
N862 C858 1.427 1_554 S
N862 C859 1.384 . S
N863 C855 1.427 . S
N863 C861 1.384 . S
H864 C870 0.936 . S
H865 C874 0.930 . S
H866 C879 0.929 . S
H867 C877 0.929 . S
H868 C872 0.929 1_554 S
H869 C878 0.929 . S
C870 H864 0.936 . S
C870 C871 1.352 1_556 S
C870 C878 1.386 . S
C871 C870 1.352 1_554 S
C871 C879 1.433 . S
C872 H868 0.929 1_556 S
C872 C874 1.378 . S
C872 C876 1.350 . S
C873 C876 1.463 . S
C873 C878 1.350 . S
C873 N881 1.427 1_556 S
C874 H865 0.930 . S
C874 C872 1.378 . S
C874 C875 1.367 . S
C875 C874 1.367 . S
C875 C877 1.433 . S
C876 C872 1.350 . S
C876 C873 1.463 . S
C876 N880 1.427 . S
C877 H867 0.929 . S
C877 C875 1.433 . S
C877 N880 1.384 . S
C878 H869 0.929 . S
C878 C870 1.386 . S
C878 C873 1.350 . S
C879 H866 0.929 . S
C879 C871 1.433 . S
C879 N881 1.384 . S
N880 C876 1.427 . S
N880 C877 1.384 . S
N881 C873 1.427 1_554 S
N881 C879 1.384 . S
H882 C888 0.930 . S
H883 C892 0.930 . S
H884 C897 0.929 1_455 S
H885 C895 0.929 . S
H886 C890 0.929 . S
H887 C896 0.929 . S
C888 H882 0.930 . S
C888 C889 1.367 . S
C888 C896 1.378 . S
C889 C888 1.367 . S
C889 C897 1.433 . S
C890 H886 0.929 . S
C890 C892 1.378 . S
C890 C894 1.350 . S
C891 C894 1.463 . S
C891 C896 1.350 . S
C891 N899 1.427 . S
C892 H883 0.930 . S
C892 C890 1.378 . S
C892 C893 1.367 . S
C893 C892 1.367 . S
C893 C895 1.433 . S
C894 C890 1.350 . S
C894 C891 1.463 . S
C894 N898 1.427 . S
C895 H885 0.929 . S
C895 C893 1.433 . S
C895 N898 1.384 . S
C896 H887 0.929 . S
C896 C888 1.378 . S
C896 C891 1.350 . S
C897 H884 0.929 1_655 S
C897 C889 1.433 . S
C897 N899 1.384 . S
N898 C894 1.427 . S
N898 C895 1.384 . S
N899 C891 1.427 . S
N899 C897 1.384 . S
H900 C906 0.930 . S
H901 C910 0.930 . S
H902 C915 0.929 . S
H903 C913 0.929 . S
H904 C908 0.929 . S
H905 C914 0.929 . S
C906 H900 0.930 . S
C906 C907 1.367 . S
C906 C914 1.378 . S
C907 C906 1.367 . S
C907 C915 1.433 . S
C908 H904 0.929 . S
C908 C910 1.378 . S
C908 C912 1.350 . S
C909 C912 1.463 . S
C909 C914 1.350 . S
C909 N917 1.427 . S
C910 H901 0.930 . S
C910 C908 1.378 . S
C910 C911 1.367 . S
C911 C910 1.367 . S
C911 C913 1.433 . S
C912 C908 1.350 . S
C912 C909 1.463 . S
C912 N916 1.427 . S
C913 H903 0.929 . S
C913 C911 1.433 . S
C913 N916 1.384 . S
C914 H905 0.929 . S
C914 C906 1.378 . S
C914 C909 1.350 . S
C915 H902 0.929 . S
C915 C907 1.433 . S
C915 N917 1.384 . S
N916 C912 1.427 . S
N916 C913 1.384 . S
N917 C909 1.427 . S
N917 C915 1.384 . S
H918 C924 0.930 . S
H919 C928 0.946 . S
H920 C933 0.929 . S
H921 C931 0.929 . S
H922 C926 0.929 . S
H923 C932 0.929 . S
C924 H918 0.930 . S
C924 C925 1.367 . S
C924 C932 1.378 . S
C925 C924 1.367 . S
C925 C933 1.433 . S
C926 H922 0.929 . S
C926 C928 1.378 . S
C926 C930 1.350 . S
C927 C930 1.463 . S
C927 C932 1.350 . S
C927 N935 1.427 . S
C928 H919 0.946 . S
C928 C926 1.378 . S
C928 C929 1.367 . S
C929 C928 1.367 . S
C929 C931 1.433 . S
C930 C926 1.350 . S
C930 C927 1.463 . S
C930 N934 1.427 . S
C931 H921 0.929 . S
C931 C929 1.433 . S
C931 N934 1.384 . S
C932 H923 0.929 . S
C932 C924 1.378 . S
C932 C927 1.350 . S
C933 H920 0.929 . S
C933 C925 1.433 . S
C933 N935 1.384 . S
N934 C930 1.427 . S
N934 C931 1.384 . S
N935 C927 1.427 . S
N935 C933 1.384 . S
H936 C942 0.930 . S
H937 C946 0.930 . S
H938 C951 0.929 . S
H939 C949 0.929 . S
H940 C944 0.929 . S
H941 C950 0.929 . S
C942 H936 0.930 . S
C942 C943 1.367 . S
C942 C950 1.378 . S
C943 C942 1.367 . S
C943 C951 1.433 . S
C944 H940 0.929 . S
C944 C946 1.378 . S
C944 C948 1.350 . S
C945 C948 1.463 . S
C945 C950 1.350 . S
C945 N953 1.427 . S
C946 H937 0.930 . S
C946 C944 1.378 . S
C946 C947 1.367 . S
C947 C946 1.367 . S
C947 C949 1.433 . S
C948 C944 1.350 . S
C948 C945 1.463 . S
C948 N952 1.427 . S
C949 H939 0.929 . S
C949 C947 1.433 . S
C949 N952 1.384 . S
C950 H941 0.929 . S
C950 C942 1.378 . S
C950 C945 1.350 . S
C951 H938 0.929 . S
C951 C943 1.433 . S
C951 N953 1.384 . S
N952 C948 1.427 . S
N952 C949 1.384 . S
N953 C945 1.427 . S
N953 C951 1.384 . S
H954 C960 0.930 . S
H955 C964 0.930 . S
H956 C969 0.929 . S
H957 C967 0.929 . S
H958 C962 0.929 . S
H959 C968 0.929 . S
C960 H954 0.930 . S
C960 C961 1.367 . S
C960 C968 1.378 . S
C961 C960 1.367 . S
C961 C969 1.433 . S
C962 H958 0.929 . S
C962 C964 1.378 . S
C962 C966 1.350 . S
C963 C966 1.463 . S
C963 C968 1.350 . S
C963 N971 1.427 . S
C964 H955 0.930 . S
C964 C962 1.378 . S
C964 C965 1.367 . S
C965 C964 1.367 . S
C965 C967 1.433 . S
C966 C962 1.350 . S
C966 C963 1.463 . S
C966 N970 1.427 . S
C967 H957 0.929 . S
C967 C965 1.433 . S
C967 N970 1.384 . S
C968 H959 0.929 . S
C968 C960 1.378 . S
C968 C963 1.350 . S
C969 H956 0.929 . S
C969 C961 1.433 . S
C969 N971 1.384 . S
N970 C966 1.427 . S
N970 C967 1.384 . S
N971 C963 1.427 . S
N971 C969 1.384 . S
H972 C978 0.930 . S
H973 C982 0.930 . S
H974 C987 0.929 . S
H975 C985 0.929 . S
H976 C980 0.929 . S
H977 C986 0.929 . S
C978 H972 0.930 . S
C978 C979 1.367 . S
C978 C986 1.378 . S
C979 C978 1.367 . S
C979 C987 1.433 . S
C980 H976 0.929 . S
C980 C982 1.378 . S
C980 C984 1.350 . S
C981 C984 1.463 . S
C981 C986 1.350 . S
C981 N989 1.427 . S
C982 H973 0.930 . S
C982 C980 1.378 . S
C982 C983 1.367 . S
C983 C982 1.367 . S
C983 C985 1.433 . S
C984 C980 1.350 . S
C984 C981 1.463 . S
C984 N988 1.427 . S
C985 H975 0.929 . S
C985 C983 1.433 . S
C985 N988 1.384 . S
C986 H977 0.929 . S
C986 C978 1.378 . S
C986 C981 1.350 . S
C987 H974 0.929 . S
C987 C979 1.433 . S
C987 N989 1.384 . S
N988 C984 1.427 . S
N988 C985 1.384 . S
N989 C981 1.427 . S
N989 C987 1.384 . S
H990 C996 0.930 . S
H991 C1000 0.930 . S
H992 C1005 0.929 . S
H993 C1003 0.929 . S
H994 C998 0.929 . S
H995 C1004 0.929 . S
C996 H990 0.930 . S
C996 C997 1.367 . S
C996 C1004 1.378 . S
C997 C996 1.367 . S
C997 C1005 1.433 . S
C998 H994 0.929 . S
C998 C1000 1.378 . S
C998 C1002 1.350 . S
C999 C1002 1.463 . S
C999 C1004 1.350 . S
C999 N1007 1.427 . S
C1000 H991 0.930 . S
C1000 C998 1.378 . S
C1000 C1001 1.367 . S
C1001 C1000 1.367 . S
C1001 C1003 1.433 . S
C1002 C998 1.350 . S
C1002 C999 1.463 . S
C1002 N1006 1.427 . S
C1003 H993 0.929 . S
C1003 C1001 1.433 . S
C1003 N1006 1.384 . S
C1004 H995 0.929 . S
C1004 C996 1.378 . S
C1004 C999 1.350 . S
C1005 H992 0.929 . S
C1005 C997 1.433 . S
C1005 N1007 1.384 . S
N1006 C1002 1.427 . S
N1006 C1003 1.384 . S
N1007 C999 1.427 . S
N1007 C1005 1.384 . S
H1008 C1014 0.930 . S
H1009 C1018 0.930 . S
H1010 C1023 0.929 . S
H1011 C1021 0.929 . S
H1012 C1016 0.929 . S
H1013 C1022 0.929 . S
C1014 H1008 0.930 . S
C1014 C1015 1.367 . S
C1014 C1022 1.378 . S
C1015 C1014 1.367 . S
C1015 C1023 1.433 . S
C1016 H1012 0.929 . S
C1016 C1018 1.378 . S
C1016 C1020 1.350 . S
C1017 C1020 1.463 . S
C1017 C1022 1.350 . S
C1017 N1025 1.427 . S
C1018 H1009 0.930 . S
C1018 C1016 1.378 . S
C1018 C1019 1.367 . S
C1019 C1018 1.367 . S
C1019 C1021 1.433 . S
C1020 C1016 1.350 . S
C1020 C1017 1.463 . S
C1020 N1024 1.427 . S
C1021 H1011 0.929 . S
C1021 C1019 1.433 . S
C1021 N1024 1.384 . S
C1022 H1013 0.929 . S
C1022 C1014 1.378 . S
C1022 C1017 1.350 . S
C1023 H1010 0.929 . S
C1023 C1015 1.433 . S
C1023 N1025 1.384 . S
N1024 C1020 1.427 . S
N1024 C1021 1.384 . S
N1025 C1017 1.427 . S
N1025 C1023 1.384 . S
H1026 C1032 0.930 . S
H1027 C1036 0.930 . S
H1028 C1041 0.929 . S
H1029 C1039 0.929 . S
H1030 C1034 0.929 . S
H1031 C1040 0.929 . S
C1032 H1026 0.930 . S
C1032 C1033 1.367 . S
C1032 C1040 1.378 . S
C1033 C1032 1.367 . S
C1033 C1041 1.433 . S
C1034 H1030 0.929 . S
C1034 C1036 1.378 . S
C1034 C1038 1.350 . S
C1035 C1038 1.463 . S
C1035 C1040 1.350 . S
C1035 N1043 1.427 . S
C1036 H1027 0.930 . S
C1036 C1034 1.378 . S
C1036 C1037 1.367 . S
C1037 C1036 1.367 . S
C1037 C1039 1.433 . S
C1038 C1034 1.350 . S
C1038 C1035 1.463 . S
C1038 N1042 1.427 . S
C1039 H1029 0.929 . S
C1039 C1037 1.433 . S
C1039 N1042 1.384 . S
C1040 H1031 0.929 . S
C1040 C1032 1.378 . S
C1040 C1035 1.350 . S
C1041 H1028 0.929 . S
C1041 C1033 1.433 . S
C1041 N1043 1.384 . S
N1042 C1038 1.427 . S
N1042 C1039 1.384 . S
N1043 C1035 1.427 . S
N1043 C1041 1.384 . S
H1044 C1050 0.930 . S
H1045 C1054 0.930 . S
H1046 C1059 0.929 . S
H1047 C1057 0.929 . S
H1048 C1052 0.929 . S
H1049 C1058 0.929 . S
C1050 H1044 0.930 . S
C1050 C1051 1.367 . S
C1050 C1058 1.378 . S
C1051 C1050 1.367 . S
C1051 C1059 1.433 . S
C1052 H1048 0.929 . S
C1052 C1054 1.378 . S
C1052 C1056 1.350 . S
C1053 C1056 1.463 . S
C1053 C1058 1.350 . S
C1053 N1061 1.427 . S
C1054 H1045 0.930 . S
C1054 C1052 1.378 . S
C1054 C1055 1.367 . S
C1055 C1054 1.367 . S
C1055 C1057 1.433 . S
C1056 C1052 1.350 . S
C1056 C1053 1.463 . S
C1056 N1060 1.427 . S
C1057 H1047 0.929 . S
C1057 C1055 1.433 . S
C1057 N1060 1.384 . S
C1058 H1049 0.929 . S
C1058 C1050 1.378 . S
C1058 C1053 1.350 . S
C1059 H1046 0.929 . S
C1059 C1051 1.433 . S
C1059 N1061 1.384 . S
N1060 C1056 1.427 . S
N1060 C1057 1.384 . S
N1061 C1053 1.427 . S
N1061 C1059 1.384 . S
H1062 C1068 0.930 . S
H1063 C1072 0.930 . S
H1064 C1077 0.929 . S
H1065 C1075 0.929 . S
H1066 C1070 0.929 . S
H1067 C1076 0.929 . S
C1068 H1062 0.930 . S
C1068 C1069 1.367 . S
C1068 C1076 1.378 . S
C1069 C1068 1.367 . S
C1069 C1077 1.433 . S
C1070 H1066 0.929 . S
C1070 C1072 1.378 . S
C1070 C1074 1.350 . S
C1071 C1074 1.463 . S
C1071 C1076 1.350 . S
C1071 N1079 1.427 . S
C1072 H1063 0.930 . S
C1072 C1070 1.378 . S
C1072 C1073 1.367 . S
C1073 C1072 1.367 . S
C1073 C1075 1.433 . S
C1074 C1070 1.350 . S
C1074 C1071 1.463 . S
C1074 N1078 1.427 . S
C1075 H1065 0.929 . S
C1075 C1073 1.433 . S
C1075 N1078 1.384 . S
C1076 H1067 0.929 . S
C1076 C1068 1.378 . S
C1076 C1071 1.350 . S
C1077 H1064 0.929 . S
C1077 C1069 1.433 . S
C1077 N1079 1.384 . S
N1078 C1074 1.427 . S
N1078 C1075 1.384 . S
N1079 C1071 1.427 . S
N1079 C1077 1.384 . S
H1080 C1086 0.930 . S
H1081 C1090 0.930 . S
H1082 C1095 0.929 . S
H1083 C1093 0.929 . S
H1084 C1088 0.929 . S
H1085 C1094 0.929 . S
C1086 H1080 0.930 . S
C1086 C1087 1.367 . S
C1086 C1094 1.378 . S
C1087 C1086 1.367 . S
C1087 C1095 1.433 . S
C1088 H1084 0.929 . S
C1088 C1090 1.378 . S
C1088 C1092 1.350 . S
C1089 C1092 1.463 . S
C1089 C1094 1.350 . S
C1089 N1097 1.427 . S
C1090 H1081 0.930 . S
C1090 C1088 1.378 . S
C1090 C1091 1.367 . S
C1091 C1090 1.367 . S
C1091 C1093 1.433 . S
C1092 C1088 1.350 . S
C1092 C1089 1.463 . S
C1092 N1096 1.427 . S
C1093 H1083 0.929 . S
C1093 C1091 1.433 . S
C1093 N1096 1.384 . S
C1094 H1085 0.929 . S
C1094 C1086 1.378 . S
C1094 C1089 1.350 . S
C1095 H1082 0.929 . S
C1095 C1087 1.433 . S
C1095 N1097 1.384 . S
N1096 C1092 1.427 . S
N1096 C1093 1.384 . S
N1097 C1089 1.427 . S
N1097 C1095 1.384 . S
H1098 C1104 0.930 . S
H1099 C1108 0.930 . S
H1100 C1113 0.929 . S
H1101 C1111 0.929 . S
H1102 C1106 0.929 . S
H1103 C1112 0.929 . S
C1104 H1098 0.930 . S
C1104 C1105 1.367 . S
C1104 C1112 1.378 . S
C1105 C1104 1.367 . S
C1105 C1113 1.433 . S
C1106 H1102 0.929 . S
C1106 C1108 1.378 . S
C1106 C1110 1.350 . S
C1107 C1110 1.463 . S
C1107 C1112 1.350 . S
C1107 N1115 1.427 . S
C1108 H1099 0.930 . S
C1108 C1106 1.378 . S
C1108 C1109 1.367 . S
C1109 C1108 1.367 . S
C1109 C1111 1.433 . S
C1110 C1106 1.350 . S
C1110 C1107 1.463 . S
C1110 N1114 1.427 . S
C1111 H1101 0.929 . S
C1111 C1109 1.433 . S
C1111 N1114 1.384 . S
C1112 H1103 0.929 . S
C1112 C1104 1.378 . S
C1112 C1107 1.350 . S
C1113 H1100 0.929 . S
C1113 C1105 1.433 . S
C1113 N1115 1.384 . S
N1114 C1110 1.427 . S
N1114 C1111 1.384 . S
N1115 C1107 1.427 . S
N1115 C1113 1.384 . S
H1116 C1122 0.930 . S
H1117 C1126 0.930 . S
H1118 C1131 0.929 . S
H1119 C1129 0.929 . S
H1120 C1124 0.929 . S
H1121 C1130 0.929 . S
C1122 H1116 0.930 . S
C1122 C1123 1.367 . S
C1122 C1130 1.378 . S
C1123 C1122 1.367 . S
C1123 C1131 1.433 . S
C1124 H1120 0.929 . S
C1124 C1126 1.378 . S
C1124 C1128 1.350 . S
C1125 C1128 1.463 . S
C1125 C1130 1.350 . S
C1125 N1133 1.427 . S
C1126 H1117 0.930 . S
C1126 C1124 1.378 . S
C1126 C1127 1.367 . S
C1127 C1126 1.367 . S
C1127 C1129 1.433 . S
C1128 C1124 1.350 . S
C1128 C1125 1.463 . S
C1128 N1132 1.427 . S
C1129 H1119 0.929 . S
C1129 C1127 1.433 . S
C1129 N1132 1.384 . S
C1130 H1121 0.929 . S
C1130 C1122 1.378 . S
C1130 C1125 1.350 . S
C1131 H1118 0.929 . S
C1131 C1123 1.433 . S
C1131 N1133 1.384 . S
N1132 C1128 1.427 . S
N1132 C1129 1.384 . S
N1133 C1125 1.427 . S
N1133 C1131 1.384 . S
H1134 C1140 0.930 . S
H1135 C1144 0.930 . S
H1136 C1149 0.929 . S
H1137 C1147 0.929 . S
H1138 C1142 0.929 . S
H1139 C1148 0.929 . S
C1140 H1134 0.930 . S
C1140 C1141 1.367 . S
C1140 C1148 1.378 . S
C1141 C1140 1.367 . S
C1141 C1149 1.433 . S
C1142 H1138 0.929 . S
C1142 C1144 1.378 . S
C1142 C1146 1.350 . S
C1143 C1146 1.463 . S
C1143 C1148 1.350 . S
C1143 N1151 1.427 . S
C1144 H1135 0.930 . S
C1144 C1142 1.378 . S
C1144 C1145 1.367 . S
C1145 C1144 1.367 . S
C1145 C1147 1.433 . S
C1146 C1142 1.350 . S
C1146 C1143 1.463 . S
C1146 N1150 1.427 . S
C1147 H1137 0.929 . S
C1147 C1145 1.433 . S
C1147 N1150 1.384 . S
C1148 H1139 0.929 . S
C1148 C1140 1.378 . S
C1148 C1143 1.350 . S
C1149 H1136 0.929 . S
C1149 C1141 1.433 . S
C1149 N1151 1.384 . S
N1150 C1146 1.427 . S
N1150 C1147 1.384 . S
N1151 C1143 1.427 . S
N1151 C1149 1.384 . S
H1152 C1158 0.930 . S
H1153 C1162 0.930 . S
H1154 C1167 0.929 . S
H1155 C1165 0.929 . S
H1156 C1160 0.929 . S
H1157 C1166 0.929 . S
C1158 H1152 0.930 . S
C1158 C1159 1.367 . S
C1158 C1166 1.378 . S
C1159 C1158 1.367 . S
C1159 C1167 1.433 . S
C1160 H1156 0.929 . S
C1160 C1162 1.378 . S
C1160 C1164 1.350 . S
C1161 C1164 1.463 . S
C1161 C1166 1.350 . S
C1161 N1169 1.427 . S
C1162 H1153 0.930 . S
C1162 C1160 1.378 . S
C1162 C1163 1.367 . S
C1163 C1162 1.367 . S
C1163 C1165 1.433 . S
C1164 C1160 1.350 . S
C1164 C1161 1.463 . S
C1164 N1168 1.427 . S
C1165 H1155 0.929 . S
C1165 C1163 1.433 . S
C1165 N1168 1.384 . S
C1166 H1157 0.929 . S
C1166 C1158 1.378 . S
C1166 C1161 1.350 . S
C1167 H1154 0.929 . S
C1167 C1159 1.433 . S
C1167 N1169 1.384 . S
N1168 C1164 1.427 . S
N1168 C1165 1.384 . S
N1169 C1161 1.427 . S
N1169 C1167 1.384 . S
H1170 C1176 0.930 . S
H1171 C1180 0.930 . S
H1172 C1185 0.929 . S
H1173 C1183 0.929 . S
H1174 C1178 0.929 . S
H1175 C1184 0.929 . S
C1176 H1170 0.930 . S
C1176 C1177 1.367 . S
C1176 C1184 1.378 . S
C1177 C1176 1.367 . S
C1177 C1185 1.433 . S
C1178 H1174 0.929 . S
C1178 C1180 1.378 . S
C1178 C1182 1.350 . S
C1179 C1182 1.463 . S
C1179 C1184 1.350 . S
C1179 N1187 1.427 . S
C1180 H1171 0.930 . S
C1180 C1178 1.378 . S
C1180 C1181 1.367 . S
C1181 C1180 1.367 . S
C1181 C1183 1.433 . S
C1182 C1178 1.350 . S
C1182 C1179 1.463 . S
C1182 N1186 1.427 . S
C1183 H1173 0.929 . S
C1183 C1181 1.433 . S
C1183 N1186 1.384 . S
C1184 H1175 0.929 . S
C1184 C1176 1.378 . S
C1184 C1179 1.350 . S
C1185 H1172 0.929 . S
C1185 C1177 1.433 . S
C1185 N1187 1.384 . S
N1186 C1182 1.427 . S
N1186 C1183 1.384 . S
N1187 C1179 1.427 . S
N1187 C1185 1.384 . S
H1188 C1194 0.930 . S
H1189 C1198 0.930 . S
H1190 C1203 0.929 . S
H1191 C1201 0.929 . S
H1192 C1196 0.929 . S
H1193 C1202 0.929 . S
C1194 H1188 0.930 . S
C1194 C1195 1.367 . S
C1194 C1202 1.378 . S
C1195 C1194 1.367 . S
C1195 C1203 1.433 . S
C1196 H1192 0.929 . S
C1196 C1198 1.378 . S
C1196 C1200 1.350 . S
C1197 C1200 1.463 . S
C1197 C1202 1.350 . S
C1197 N1205 1.427 . S
C1198 H1189 0.930 . S
C1198 C1196 1.378 . S
C1198 C1199 1.367 . S
C1199 C1198 1.367 . S
C1199 C1201 1.433 . S
C1200 C1196 1.350 . S
C1200 C1197 1.463 . S
C1200 N1204 1.427 . S
C1201 H1191 0.929 . S
C1201 C1199 1.433 . S
C1201 N1204 1.384 . S
C1202 H1193 0.929 . S
C1202 C1194 1.378 . S
C1202 C1197 1.350 . S
C1203 H1190 0.929 . S
C1203 C1195 1.433 . S
C1203 N1205 1.384 . S
N1204 C1200 1.427 . S
N1204 C1201 1.384 . S
N1205 C1197 1.427 . S
N1205 C1203 1.384 . S
H1206 C1212 0.930 . S
H1207 C1216 0.930 . S
H1208 C1221 0.929 . S
H1209 C1219 0.929 . S
H1210 C1214 0.929 . S
H1211 C1220 0.929 . S
C1212 H1206 0.930 . S
C1212 C1213 1.367 . S
C1212 C1220 1.378 . S
C1213 C1212 1.367 . S
C1213 C1221 1.433 . S
C1214 H1210 0.929 . S
C1214 C1216 1.378 . S
C1214 C1218 1.350 . S
C1215 C1218 1.463 . S
C1215 C1220 1.350 . S
C1215 N1223 1.427 . S
C1216 H1207 0.930 . S
C1216 C1214 1.378 . S
C1216 C1217 1.367 . S
C1217 C1216 1.367 . S
C1217 C1219 1.433 . S
C1218 C1214 1.350 . S
C1218 C1215 1.463 . S
C1218 N1222 1.427 . S
C1219 H1209 0.929 . S
C1219 C1217 1.433 . S
C1219 N1222 1.384 . S
C1220 H1211 0.929 . S
C1220 C1212 1.378 . S
C1220 C1215 1.350 . S
C1221 H1208 0.929 . S
C1221 C1213 1.433 . S
C1221 N1223 1.384 . S
N1222 C1218 1.427 . S
N1222 C1219 1.384 . S
N1223 C1215 1.427 . S
N1223 C1221 1.384 . S
H1224 C1230 0.930 . S
H1225 C1234 0.930 . S
H1226 C1239 0.929 . S
H1227 C1237 0.929 . S
H1228 C1232 0.929 . S
H1229 C1238 0.929 . S
C1230 H1224 0.930 . S
C1230 C1231 1.367 . S
C1230 C1238 1.378 . S
C1231 C1230 1.367 . S
C1231 C1239 1.433 . S
C1232 H1228 0.929 . S
C1232 C1234 1.378 . S
C1232 C1236 1.350 . S
C1233 C1236 1.463 . S
C1233 C1238 1.350 . S
C1233 N1241 1.427 . S
C1234 H1225 0.930 . S
C1234 C1232 1.378 . S
C1234 C1235 1.367 . S
C1235 C1234 1.367 . S
C1235 C1237 1.433 . S
C1236 C1232 1.350 . S
C1236 C1233 1.463 . S
C1236 N1240 1.427 . S
C1237 H1227 0.929 . S
C1237 C1235 1.433 . S
C1237 N1240 1.384 . S
C1238 H1229 0.929 . S
C1238 C1230 1.378 . S
C1238 C1233 1.350 . S
C1239 H1226 0.929 . S
C1239 C1231 1.433 . S
C1239 N1241 1.384 . S
N1240 C1236 1.427 . S
N1240 C1237 1.384 . S
N1241 C1233 1.427 . S
N1241 C1239 1.384 . S
H1242 C1248 0.930 . S
H1243 C1252 0.930 . S
H1244 C1257 0.929 . S
H1245 C1255 0.929 . S
H1246 C1250 0.929 . S
H1247 C1256 0.929 . S
C1248 H1242 0.930 . S
C1248 C1249 1.367 . S
C1248 C1256 1.378 . S
C1249 C1248 1.367 . S
C1249 C1257 1.433 . S
C1250 H1246 0.929 . S
C1250 C1252 1.378 . S
C1250 C1254 1.350 . S
C1251 C1254 1.463 . S
C1251 C1256 1.350 . S
C1251 N1259 1.427 . S
C1252 H1243 0.930 . S
C1252 C1250 1.378 . S
C1252 C1253 1.367 . S
C1253 C1252 1.367 . S
C1253 C1255 1.433 . S
C1254 C1250 1.350 . S
C1254 C1251 1.463 . S
C1254 N1258 1.427 . S
C1255 H1245 0.929 . S
C1255 C1253 1.433 . S
C1255 N1258 1.384 . S
C1256 H1247 0.929 . S
C1256 C1248 1.378 . S
C1256 C1251 1.350 . S
C1257 H1244 0.929 . S
C1257 C1249 1.433 . S
C1257 N1259 1.384 . S
N1258 C1254 1.427 . S
N1258 C1255 1.384 . S
N1259 C1251 1.427 . S
N1259 C1257 1.384 . S
H1260 C1266 0.930 . S
H1261 C1270 0.930 . S
H1262 C1275 0.929 . S
H1263 C1273 0.929 . S
H1264 C1268 0.929 . S
H1265 C1274 0.929 . S
C1266 H1260 0.930 . S
C1266 C1267 1.367 . S
C1266 C1274 1.378 . S
C1267 C1266 1.367 . S
C1267 C1275 1.433 . S
C1268 H1264 0.929 . S
C1268 C1270 1.378 . S
C1268 C1272 1.350 . S
C1269 C1272 1.463 . S
C1269 C1274 1.350 . S
C1269 N1277 1.427 . S
C1270 H1261 0.930 . S
C1270 C1268 1.378 . S
C1270 C1271 1.367 . S
C1271 C1270 1.367 . S
C1271 C1273 1.433 . S
C1272 C1268 1.350 . S
C1272 C1269 1.463 . S
C1272 N1276 1.427 . S
C1273 H1263 0.929 . S
C1273 C1271 1.433 . S
C1273 N1276 1.384 . S
C1274 H1265 0.929 . S
C1274 C1266 1.378 . S
C1274 C1269 1.350 . S
C1275 H1262 0.929 . S
C1275 C1267 1.433 . S
C1275 N1277 1.384 . S
N1276 C1272 1.427 . S
N1276 C1273 1.384 . S
N1277 C1269 1.427 . S
N1277 C1275 1.384 . S
H1278 C1284 0.930 . S
H1279 C1288 0.930 . S
H1280 C1293 0.929 . S
H1281 C1291 0.929 . S
H1282 C1286 0.929 . S
H1283 C1292 0.929 . S
C1284 H1278 0.930 . S
C1284 C1285 1.367 . S
C1284 C1292 1.378 . S
C1285 C1284 1.367 . S
C1285 C1293 1.433 . S
C1286 H1282 0.929 . S
C1286 C1288 1.378 . S
C1286 C1290 1.350 . S
C1287 C1290 1.463 . S
C1287 C1292 1.350 . S
C1287 N1295 1.427 . S
C1288 H1279 0.930 . S
C1288 C1286 1.378 . S
C1288 C1289 1.367 . S
C1289 C1288 1.367 . S
C1289 C1291 1.433 . S
C1290 C1286 1.350 . S
C1290 C1287 1.463 . S
C1290 N1294 1.427 . S
C1291 H1281 0.929 . S
C1291 C1289 1.433 . S
C1291 N1294 1.384 . S
C1292 H1283 0.929 . S
C1292 C1284 1.378 . S
C1292 C1287 1.350 . S
C1293 H1280 0.929 . S
C1293 C1285 1.433 . S
C1293 N1295 1.384 . S
N1294 C1290 1.427 . S
N1294 C1291 1.384 . S
N1295 C1287 1.427 . S
N1295 C1293 1.384 . S
H1296 C1302 0.930 . S
H1297 C1306 0.930 . S
H1298 C1311 0.929 . S
H1299 C1309 0.929 . S
H1300 C1304 0.929 . S
H1301 C1310 0.929 . S
C1302 H1296 0.930 . S
C1302 C1303 1.367 . S
C1302 C1310 1.378 . S
C1303 C1302 1.367 . S
C1303 C1311 1.433 . S
C1304 H1300 0.929 . S
C1304 C1306 1.378 . S
C1304 C1308 1.350 . S
C1305 C1308 1.463 . S
C1305 C1310 1.350 . S
C1305 N1313 1.427 . S
C1306 H1297 0.930 . S
C1306 C1304 1.378 . S
C1306 C1307 1.367 . S
C1307 C1306 1.367 . S
C1307 C1309 1.433 . S
C1308 C1304 1.350 . S
C1308 C1305 1.463 . S
C1308 N1312 1.427 . S
C1309 H1299 0.929 . S
C1309 C1307 1.433 . S
C1309 N1312 1.384 . S
C1310 H1301 0.929 . S
C1310 C1302 1.378 . S
C1310 C1305 1.350 . S
C1311 H1298 0.929 . S
C1311 C1303 1.433 . S
C1311 N1313 1.384 . S
N1312 C1308 1.427 . S
N1312 C1309 1.384 . S
N1313 C1305 1.427 . S
N1313 C1311 1.384 . S
H1314 C1320 0.930 . S
H1315 C1324 0.930 . S
H1316 C1329 0.929 . S
H1317 C1327 0.929 . S
H1318 C1322 0.929 . S
H1319 C1328 0.929 . S
C1320 H1314 0.930 . S
C1320 C1321 1.367 . S
C1320 C1328 1.378 . S
C1321 C1320 1.367 . S
C1321 C1329 1.433 . S
C1322 H1318 0.929 . S
C1322 C1324 1.378 . S
C1322 C1326 1.350 . S
C1323 C1326 1.463 . S
C1323 C1328 1.350 . S
C1323 N1331 1.427 . S
C1324 H1315 0.930 . S
C1324 C1322 1.378 . S
C1324 C1325 1.367 . S
C1325 C1324 1.367 . S
C1325 C1327 1.433 . S
C1326 C1322 1.350 . S
C1326 C1323 1.463 . S
C1326 N1330 1.427 . S
C1327 H1317 0.929 . S
C1327 C1325 1.433 . S
C1327 N1330 1.384 . S
C1328 H1319 0.929 . S
C1328 C1320 1.378 . S
C1328 C1323 1.350 . S
C1329 H1316 0.929 . S
C1329 C1321 1.433 . S
C1329 N1331 1.384 . S
N1330 C1326 1.427 . S
N1330 C1327 1.384 . S
N1331 C1323 1.427 . S
N1331 C1329 1.384 . S
H1332 C1338 0.930 . S
H1333 C1342 0.930 . S
H1334 C1347 0.929 . S
H1335 C1345 0.929 . S
H1336 C1340 0.929 . S
H1337 C1346 0.929 . S
C1338 H1332 0.930 . S
C1338 C1339 1.367 . S
C1338 C1346 1.378 . S
C1339 C1338 1.367 . S
C1339 C1347 1.433 . S
C1340 H1336 0.929 . S
C1340 C1342 1.378 . S
C1340 C1344 1.350 . S
C1341 C1344 1.463 . S
C1341 C1346 1.350 . S
C1341 N1349 1.427 . S
C1342 H1333 0.930 . S
C1342 C1340 1.378 . S
C1342 C1343 1.367 . S
C1343 C1342 1.367 . S
C1343 C1345 1.433 . S
C1344 C1340 1.350 . S
C1344 C1341 1.463 . S
C1344 N1348 1.427 . S
C1345 H1335 0.929 . S
C1345 C1343 1.433 . S
C1345 N1348 1.384 . S
C1346 H1337 0.929 . S
C1346 C1338 1.378 . S
C1346 C1341 1.350 . S
C1347 H1334 0.929 . S
C1347 C1339 1.433 . S
C1347 N1349 1.384 . S
N1348 C1344 1.427 . S
N1348 C1345 1.384 . S
N1349 C1341 1.427 . S
N1349 C1347 1.384 . S
H1350 C1356 0.930 . S
H1351 C1360 0.930 . S
H1352 C1365 0.929 . S
H1353 C1363 0.929 . S
H1354 C1358 0.929 . S
H1355 C1364 0.929 . S
C1356 H1350 0.930 . S
C1356 C1357 1.367 . S
C1356 C1364 1.378 . S
C1357 C1356 1.367 . S
C1357 C1365 1.433 . S
C1358 H1354 0.929 . S
C1358 C1360 1.378 . S
C1358 C1362 1.350 . S
C1359 C1362 1.463 . S
C1359 C1364 1.350 . S
C1359 N1367 1.427 . S
C1360 H1351 0.930 . S
C1360 C1358 1.378 . S
C1360 C1361 1.367 . S
C1361 C1360 1.367 . S
C1361 C1363 1.433 . S
C1362 C1358 1.350 . S
C1362 C1359 1.463 . S
C1362 N1366 1.427 . S
C1363 H1353 0.929 . S
C1363 C1361 1.433 . S
C1363 N1366 1.384 . S
C1364 H1355 0.929 . S
C1364 C1356 1.378 . S
C1364 C1359 1.350 . S
C1365 H1352 0.929 . S
C1365 C1357 1.433 . S
C1365 N1367 1.384 . S
N1366 C1362 1.427 . S
N1366 C1363 1.384 . S
N1367 C1359 1.427 . S
N1367 C1365 1.384 . S
H1368 C1374 0.930 . S
H1369 C1378 0.930 . S
H1370 C1383 0.929 . S
H1371 C1381 0.929 . S
H1372 C1376 0.929 . S
H1373 C1382 0.929 . S
C1374 H1368 0.930 . S
C1374 C1375 1.367 . S
C1374 C1382 1.378 . S
C1375 C1374 1.367 . S
C1375 C1383 1.433 . S
C1376 H1372 0.929 . S
C1376 C1378 1.378 . S
C1376 C1380 1.350 . S
C1377 C1380 1.463 . S
C1377 C1382 1.350 . S
C1377 N1385 1.427 . S
C1378 H1369 0.930 . S
C1378 C1376 1.378 . S
C1378 C1379 1.367 . S
C1379 C1378 1.367 . S
C1379 C1381 1.433 . S
C1380 C1376 1.350 . S
C1380 C1377 1.463 . S
C1380 N1384 1.427 . S
C1381 H1371 0.929 . S
C1381 C1379 1.433 . S
C1381 N1384 1.384 . S
C1382 H1373 0.929 . S
C1382 C1374 1.378 . S
C1382 C1377 1.350 . S
C1383 H1370 0.929 . S
C1383 C1375 1.433 . S
C1383 N1385 1.384 . S
N1384 C1380 1.427 . S
N1384 C1381 1.384 . S
N1385 C1377 1.427 . S
N1385 C1383 1.384 . S
H1386 C1392 0.930 . S
H1387 C1396 0.930 . S
H1388 C1401 0.929 . S
H1389 C1399 0.929 . S
H1390 C1394 0.929 . S
H1391 C1400 0.929 . S
C1392 H1386 0.930 . S
C1392 C1393 1.367 . S
C1392 C1400 1.378 . S
C1393 C1392 1.367 . S
C1393 C1401 1.433 . S
C1394 H1390 0.929 . S
C1394 C1396 1.378 . S
C1394 C1398 1.350 . S
C1395 C1398 1.463 . S
C1395 C1400 1.350 . S
C1395 N1403 1.427 . S
C1396 H1387 0.930 . S
C1396 C1394 1.378 . S
C1396 C1397 1.367 . S
C1397 C1396 1.367 . S
C1397 C1399 1.433 . S
C1398 C1394 1.350 . S
C1398 C1395 1.463 . S
C1398 N1402 1.427 . S
C1399 H1389 0.929 . S
C1399 C1397 1.433 . S
C1399 N1402 1.384 . S
C1400 H1391 0.929 . S
C1400 C1392 1.378 . S
C1400 C1395 1.350 . S
C1401 H1388 0.929 . S
C1401 C1393 1.433 . S
C1401 N1403 1.384 . S
N1402 C1398 1.427 . S
N1402 C1399 1.384 . S
N1403 C1395 1.427 . S
N1403 C1401 1.384 . S
H1404 C1410 0.930 . S
H1405 C1414 0.930 . S
H1406 C1419 0.929 . S
H1407 C1417 0.929 . S
H1408 C1412 0.929 . S
H1409 C1418 0.929 . S
C1410 H1404 0.930 . S
C1410 C1411 1.367 . S
C1410 C1418 1.378 . S
C1411 C1410 1.367 . S
C1411 C1419 1.433 . S
C1412 H1408 0.929 . S
C1412 C1414 1.378 . S
C1412 C1416 1.350 . S
C1413 C1416 1.463 . S
C1413 C1418 1.350 . S
C1413 N1421 1.427 . S
C1414 H1405 0.930 . S
C1414 C1412 1.378 . S
C1414 C1415 1.367 . S
C1415 C1414 1.367 . S
C1415 C1417 1.433 . S
C1416 C1412 1.350 . S
C1416 C1413 1.463 . S
C1416 N1420 1.427 . S
C1417 H1407 0.929 . S
C1417 C1415 1.433 . S
C1417 N1420 1.384 . S
C1418 H1409 0.929 . S
C1418 C1410 1.378 . S
C1418 C1413 1.350 . S
C1419 H1406 0.929 . S
C1419 C1411 1.433 . S
C1419 N1421 1.384 . S
N1420 C1416 1.427 . S
N1420 C1417 1.384 . S
N1421 C1413 1.427 . S
N1421 C1419 1.384 . S
H1422 C1428 0.930 . S
H1423 C1432 0.930 . S
H1424 C1437 0.929 . S
H1425 C1435 0.929 . S
H1426 C1430 0.929 . S
H1427 C1436 0.929 . S
C1428 H1422 0.930 . S
C1428 C1429 1.367 . S
C1428 C1436 1.378 . S
C1429 C1428 1.367 . S
C1429 C1437 1.433 . S
C1430 H1426 0.929 . S
C1430 C1432 1.378 . S
C1430 C1434 1.350 . S
C1431 C1434 1.463 . S
C1431 C1436 1.350 . S
C1431 N1439 1.427 . S
C1432 H1423 0.930 . S
C1432 C1430 1.378 . S
C1432 C1433 1.367 . S
C1433 C1432 1.367 . S
C1433 C1435 1.433 . S
C1434 C1430 1.350 . S
C1434 C1431 1.463 . S
C1434 N1438 1.427 . S
C1435 H1425 0.929 . S
C1435 C1433 1.433 . S
C1435 N1438 1.384 . S
C1436 H1427 0.929 . S
C1436 C1428 1.378 . S
C1436 C1431 1.350 . S
C1437 H1424 0.929 . S
C1437 C1429 1.433 . S
C1437 N1439 1.384 . S
N1438 C1434 1.427 . S
N1438 C1435 1.384 . S
N1439 C1431 1.427 . S
N1439 C1437 1.384 . S
H1440 C1446 0.930 . S
H1441 C1450 0.930 . S
H1442 C1455 0.929 . S
H1443 C1453 0.929 . S
H1444 C1448 0.929 . S
H1445 C1454 0.929 . S
C1446 H1440 0.930 . S
C1446 C1447 1.367 . S
C1446 C1454 1.378 . S
C1447 C1446 1.367 . S
C1447 C1455 1.433 . S
C1448 H1444 0.929 . S
C1448 C1450 1.378 . S
C1448 C1452 1.350 . S
C1449 C1452 1.463 . S
C1449 C1454 1.350 . S
C1449 N1457 1.427 . S
C1450 H1441 0.930 . S
C1450 C1448 1.378 . S
C1450 C1451 1.367 . S
C1451 C1450 1.367 . S
C1451 C1453 1.433 . S
C1452 C1448 1.350 . S
C1452 C1449 1.463 . S
C1452 N1456 1.427 . S
C1453 H1443 0.929 . S
C1453 C1451 1.433 . S
C1453 N1456 1.384 . S
C1454 H1445 0.929 . S
C1454 C1446 1.378 . S
C1454 C1449 1.350 . S
C1455 H1442 0.929 . S
C1455 C1447 1.433 . S
C1455 N1457 1.384 . S
N1456 C1452 1.427 . S
N1456 C1453 1.384 . S
N1457 C1449 1.427 . S
N1457 C1455 1.384 . S
H1458 C1464 0.930 . S
H1459 C1468 0.930 . S
H1460 C1473 0.929 . S
H1461 C1471 0.929 . S
H1462 C1466 0.929 . S
H1463 C1472 0.929 . S
C1464 H1458 0.930 . S
C1464 C1465 1.367 . S
C1464 C1472 1.378 . S
C1465 C1464 1.367 . S
C1465 C1473 1.433 . S
C1466 H1462 0.929 . S
C1466 C1468 1.378 . S
C1466 C1470 1.350 . S
C1467 C1470 1.463 . S
C1467 C1472 1.350 . S
C1467 N1475 1.427 . S
C1468 H1459 0.930 . S
C1468 C1466 1.378 . S
C1468 C1469 1.367 . S
C1469 C1468 1.367 . S
C1469 C1471 1.433 . S
C1470 C1466 1.350 . S
C1470 C1467 1.463 . S
C1470 N1474 1.427 . S
C1471 H1461 0.929 . S
C1471 C1469 1.433 . S
C1471 N1474 1.384 . S
C1472 H1463 0.929 . S
C1472 C1464 1.378 . S
C1472 C1467 1.350 . S
C1473 H1460 0.929 . S
C1473 C1465 1.433 . S
C1473 N1475 1.384 . S
N1474 C1470 1.427 . S
N1474 C1471 1.384 . S
N1475 C1467 1.427 . S
N1475 C1473 1.384 . S
H1476 C1482 0.930 . S
H1477 C1486 0.930 . S
H1478 C1491 0.929 . S
H1479 C1489 0.929 . S
H1480 C1484 0.929 . S
H1481 C1490 0.929 . S
C1482 H1476 0.930 . S
C1482 C1483 1.367 . S
C1482 C1490 1.378 . S
C1483 C1482 1.367 . S
C1483 C1491 1.433 . S
C1484 H1480 0.929 . S
C1484 C1486 1.378 . S
C1484 C1488 1.350 . S
C1485 C1488 1.463 . S
C1485 C1490 1.350 . S
C1485 N1493 1.427 . S
C1486 H1477 0.930 . S
C1486 C1484 1.378 . S
C1486 C1487 1.367 . S
C1487 C1486 1.367 . S
C1487 C1489 1.433 . S
C1488 C1484 1.350 . S
C1488 C1485 1.463 . S
C1488 N1492 1.427 . S
C1489 H1479 0.929 . S
C1489 C1487 1.433 . S
C1489 N1492 1.384 . S
C1490 H1481 0.929 . S
C1490 C1482 1.378 . S
C1490 C1485 1.350 . S
C1491 H1478 0.929 . S
C1491 C1483 1.433 . S
C1491 N1493 1.384 . S
N1492 C1488 1.427 . S
N1492 C1489 1.384 . S
N1493 C1485 1.427 . S
N1493 C1491 1.384 . S
H1494 C1500 0.930 . S
H1495 C1504 0.930 . S
H1496 C1509 0.929 . S
H1497 C1507 0.929 . S
H1498 C1502 0.929 . S
H1499 C1508 0.929 . S
C1500 H1494 0.930 . S
C1500 C1501 1.367 . S
C1500 C1508 1.378 . S
C1501 C1500 1.367 . S
C1501 C1509 1.433 . S
C1502 H1498 0.929 . S
C1502 C1504 1.378 . S
C1502 C1506 1.350 . S
C1503 C1506 1.463 . S
C1503 C1508 1.350 . S
C1503 N1511 1.427 . S
C1504 H1495 0.930 . S
C1504 C1502 1.378 . S
C1504 C1505 1.367 . S
C1505 C1504 1.367 . S
C1505 C1507 1.433 . S
C1506 C1502 1.350 . S
C1506 C1503 1.463 . S
C1506 N1510 1.427 . S
C1507 H1497 0.929 . S
C1507 C1505 1.433 . S
C1507 N1510 1.384 . S
C1508 H1499 0.929 . S
C1508 C1500 1.378 . S
C1508 C1503 1.350 . S
C1509 H1496 0.929 . S
C1509 C1501 1.433 . S
C1509 N1511 1.384 . S
N1510 C1506 1.427 . S
N1510 C1507 1.384 . S
N1511 C1503 1.427 . S
N1511 C1509 1.384 . S
H1512 C1518 0.930 . S
H1513 C1522 0.930 . S
H1514 C1527 0.929 . S
H1515 C1525 0.929 . S
H1516 C1520 0.929 . S
H1517 C1526 0.929 . S
C1518 H1512 0.930 . S
C1518 C1519 1.367 . S
C1518 C1526 1.378 . S
C1519 C1518 1.367 . S
C1519 C1527 1.433 . S
C1520 H1516 0.929 . S
C1520 C1522 1.378 . S
C1520 C1524 1.350 . S
C1521 C1524 1.463 . S
C1521 C1526 1.350 . S
C1521 N1529 1.427 . S
C1522 H1513 0.930 . S
C1522 C1520 1.378 . S
C1522 C1523 1.367 . S
C1523 C1522 1.367 . S
C1523 C1525 1.433 . S
C1524 C1520 1.350 . S
C1524 C1521 1.463 . S
C1524 N1528 1.427 . S
C1525 H1515 0.929 . S
C1525 C1523 1.433 . S
C1525 N1528 1.384 . S
C1526 H1517 0.929 . S
C1526 C1518 1.378 . S
C1526 C1521 1.350 . S
C1527 H1514 0.929 . S
C1527 C1519 1.433 . S
C1527 N1529 1.384 . S
N1528 C1524 1.427 . S
N1528 C1525 1.384 . S
N1529 C1521 1.427 . S
N1529 C1527 1.384 . S
H1530 C1536 0.930 . S
H1531 C1540 0.930 . S
H1532 C1545 0.929 . S
H1533 C1543 0.929 . S
H1534 C1538 0.929 . S
H1535 C1544 0.929 . S
C1536 H1530 0.930 . S
C1536 C1537 1.367 . S
C1536 C1544 1.378 . S
C1537 C1536 1.367 . S
C1537 C1545 1.433 . S
C1538 H1534 0.929 . S
C1538 C1540 1.378 . S
C1538 C1542 1.350 . S
C1539 C1542 1.463 . S
C1539 C1544 1.350 . S
C1539 N1547 1.427 . S
C1540 H1531 0.930 . S
C1540 C1538 1.378 . S
C1540 C1541 1.367 . S
C1541 C1540 1.367 . S
C1541 C1543 1.433 . S
C1542 C1538 1.350 . S
C1542 C1539 1.463 . S
C1542 N1546 1.427 . S
C1543 H1533 0.929 . S
C1543 C1541 1.433 . S
C1543 N1546 1.384 . S
C1544 H1535 0.929 . S
C1544 C1536 1.378 . S
C1544 C1539 1.350 . S
C1545 H1532 0.929 . S
C1545 C1537 1.433 . S
C1545 N1547 1.384 . S
N1546 C1542 1.427 . S
N1546 C1543 1.384 . S
N1547 C1539 1.427 . S
N1547 C1545 1.384 . S
H1548 C1554 0.930 . S
H1549 C1558 0.930 . S
H1550 C1563 0.929 . S
H1551 C1561 0.929 . S
H1552 C1556 0.929 . S
H1553 C1562 0.929 . S
C1554 H1548 0.930 . S
C1554 C1555 1.367 . S
C1554 C1562 1.378 . S
C1555 C1554 1.367 . S
C1555 C1563 1.433 . S
C1556 H1552 0.929 . S
C1556 C1558 1.378 . S
C1556 C1560 1.350 . S
C1557 C1560 1.463 . S
C1557 C1562 1.350 . S
C1557 N1565 1.427 . S
C1558 H1549 0.930 . S
C1558 C1556 1.378 . S
C1558 C1559 1.367 . S
C1559 C1558 1.367 . S
C1559 C1561 1.433 . S
C1560 C1556 1.350 . S
C1560 C1557 1.463 . S
C1560 N1564 1.427 . S
C1561 H1551 0.929 . S
C1561 C1559 1.433 . S
C1561 N1564 1.384 . S
C1562 H1553 0.929 . S
C1562 C1554 1.378 . S
C1562 C1557 1.350 . S
C1563 H1550 0.929 . S
C1563 C1555 1.433 . S
C1563 N1565 1.384 . S
N1564 C1560 1.427 . S
N1564 C1561 1.384 . S
N1565 C1557 1.427 . S
N1565 C1563 1.384 . S
H1566 C1572 0.930 . S
H1567 C1576 0.930 . S
H1568 C1581 0.929 . S
H1569 C1579 0.929 . S
H1570 C1574 0.929 . S
H1571 C1580 0.929 . S
C1572 H1566 0.930 . S
C1572 C1573 1.367 . S
C1572 C1580 1.378 . S
C1573 C1572 1.367 . S
C1573 C1581 1.433 . S
C1574 H1570 0.929 . S
C1574 C1576 1.378 . S
C1574 C1578 1.350 . S
C1575 C1578 1.463 . S
C1575 C1580 1.350 . S
C1575 N1583 1.427 . S
C1576 H1567 0.930 . S
C1576 C1574 1.378 . S
C1576 C1577 1.367 . S
C1577 C1576 1.367 . S
C1577 C1579 1.433 . S
C1578 C1574 1.350 . S
C1578 C1575 1.463 . S
C1578 N1582 1.427 . S
C1579 H1569 0.929 . S
C1579 C1577 1.433 . S
C1579 N1582 1.384 . S
C1580 H1571 0.929 . S
C1580 C1572 1.378 . S
C1580 C1575 1.350 . S
C1581 H1568 0.929 . S
C1581 C1573 1.433 . S
C1581 N1583 1.384 . S
N1582 C1578 1.427 . S
N1582 C1579 1.384 . S
N1583 C1575 1.427 . S
N1583 C1581 1.384 . S
H1584 C1590 0.930 . S
H1585 C1594 0.930 . S
H1586 C1599 0.929 . S
H1587 C1597 0.929 . S
H1588 C1592 0.929 . S
H1589 C1598 0.929 . S
C1590 H1584 0.930 . S
C1590 C1591 1.367 . S
C1590 C1598 1.378 . S
C1591 C1590 1.367 . S
C1591 C1599 1.433 . S
C1592 H1588 0.929 . S
C1592 C1594 1.378 . S
C1592 C1596 1.350 . S
C1593 C1596 1.463 1_655 S
C1593 C1598 1.350 . S
C1593 N1601 1.420 . S
C1594 H1585 0.930 . S
C1594 C1592 1.378 . S
C1594 C1595 1.367 . S
C1595 C1594 1.367 . S
C1595 C1597 1.433 . S
C1596 C1592 1.350 . S
C1596 C1593 1.463 1_455 S
C1596 N1600 1.420 . S
C1597 H1587 0.929 . S
C1597 C1595 1.433 . S
C1597 N1600 1.434 . S
C1598 H1589 0.929 . S
C1598 C1590 1.378 . S
C1598 C1593 1.350 . S
C1599 H1586 0.929 . S
C1599 C1591 1.433 . S
C1599 N1601 1.434 . S
N1600 C1596 1.420 . S
N1600 C1597 1.434 . S
N1601 C1593 1.420 . S
N1601 C1599 1.434 . S
H1602 C1608 0.930 . S
H1603 C1612 0.930 . S
H1604 C1617 0.929 . S
H1605 C1615 0.929 . S
H1606 C1610 0.929 . S
H1607 C1616 0.929 . S
C1608 H1602 0.930 . S
C1608 C1609 1.367 . S
C1608 C1616 1.378 . S
C1609 C1608 1.367 . S
C1609 C1617 1.433 . S
C1610 H1606 0.929 . S
C1610 C1612 1.378 . S
C1610 C1614 1.350 . S
C1611 C1614 1.463 . S
C1611 C1616 1.350 . S
C1611 N1619 1.427 . S
C1612 H1603 0.930 . S
C1612 C1610 1.378 . S
C1612 C1613 1.367 . S
C1613 C1612 1.367 . S
C1613 C1615 1.433 . S
C1614 C1610 1.350 . S
C1614 C1611 1.463 . S
C1614 N1618 1.427 . S
C1615 H1605 0.929 . S
C1615 C1613 1.433 . S
C1615 N1618 1.384 . S
C1616 H1607 0.929 . S
C1616 C1608 1.378 . S
C1616 C1611 1.350 . S
C1617 H1604 0.929 . S
C1617 C1609 1.433 . S
C1617 N1619 1.384 . S
N1618 C1614 1.427 . S
N1618 C1615 1.384 . S
N1619 C1611 1.427 . S
N1619 C1617 1.384 . S
H1620 C1626 0.930 . S
H1621 C1630 0.930 . S
H1622 C1635 0.929 . S
H1623 C1633 0.929 . S
H1624 C1628 0.903 1_545 S
H1625 C1634 0.903 1_565 S
C1626 H1620 0.930 . S
C1626 C1627 1.367 . S
C1626 C1634 1.386 . S
C1627 C1626 1.367 . S
C1627 C1635 1.433 . S
C1628 H1624 0.903 1_565 S
C1628 C1630 1.386 . S
C1628 C1632 1.368 . S
C1629 C1632 1.463 1_545 S
C1629 C1634 1.368 . S
C1629 N1637 1.427 . S
C1630 H1621 0.930 . S
C1630 C1628 1.386 . S
C1630 C1631 1.367 . S
C1631 C1630 1.367 . S
C1631 C1633 1.433 . S
C1632 C1628 1.368 . S
C1632 C1629 1.463 1_565 S
C1632 N1636 1.427 . S
C1633 H1623 0.929 . S
C1633 C1631 1.433 . S
C1633 N1636 1.384 . S
C1634 H1625 0.903 1_545 S
C1634 C1626 1.386 . S
C1634 C1629 1.368 . S
C1635 H1622 0.929 . S
C1635 C1627 1.433 . S
C1635 N1637 1.384 . S
N1636 C1632 1.427 . S
N1636 C1633 1.384 . S
N1637 C1629 1.427 . S
N1637 C1635 1.384 . S
H1638 C1644 0.930 . S
H1639 C1648 0.930 . S
H1640 C1653 0.929 . S
H1641 C1651 0.929 . S
H1642 C1646 0.918 1_554 S
H1643 C1652 0.918 1_556 S
C1644 H1638 0.930 . S
C1644 C1645 1.367 . S
C1644 C1652 1.385 . S
C1645 C1644 1.367 . S
C1645 C1653 1.433 . S
C1646 H1642 0.918 1_556 S
C1646 C1648 1.385 . S
C1646 C1650 1.353 . S
C1647 C1650 1.463 1_564 S
C1647 C1652 1.353 . S
C1647 N1655 1.427 . S
C1648 H1639 0.930 . S
C1648 C1646 1.385 . S
C1648 C1649 1.367 . S
C1649 C1648 1.367 . S
C1649 C1651 1.433 . S
C1650 C1646 1.353 . S
C1650 C1647 1.463 1_546 S
C1650 N1654 1.427 . S
C1651 H1641 0.929 . S
C1651 C1649 1.433 . S
C1651 N1654 1.410 . S
C1652 H1643 0.918 1_554 S
C1652 C1644 1.385 . S
C1652 C1647 1.353 . S
C1653 H1640 0.929 . S
C1653 C1645 1.433 . S
C1653 N1655 1.410 . S
N1654 C1650 1.427 . S
N1654 C1651 1.410 . S
N1655 C1647 1.427 . S
N1655 C1653 1.410 . S
H1656 C1662 0.930 . S
H1657 C1666 0.930 . S
H1658 C1671 0.929 . S
H1659 C1669 0.929 . S
H1660 C1664 0.929 . S
H1661 C1670 0.929 . S
C1662 H1656 0.930 . S
C1662 C1663 1.367 . S
C1662 C1670 1.378 . S
C1663 C1662 1.367 . S
C1663 C1671 1.433 . S
C1664 H1660 0.929 . S
C1664 C1666 1.378 . S
C1664 C1668 1.350 . S
C1665 C1668 1.463 1_656 S
C1665 C1670 1.350 . S
C1665 N1673 1.427 . S
C1666 H1657 0.930 . S
C1666 C1664 1.378 . S
C1666 C1667 1.367 . S
C1667 C1666 1.367 . S
C1667 C1669 1.433 . S
C1668 C1664 1.350 . S
C1668 C1665 1.463 1_454 S
C1668 N1672 1.427 . S
C1669 H1659 0.929 . S
C1669 C1667 1.433 . S
C1669 N1672 1.384 . S
C1670 H1661 0.929 . S
C1670 C1662 1.378 . S
C1670 C1665 1.350 . S
C1671 H1658 0.929 . S
C1671 C1663 1.433 . S
C1671 N1673 1.384 . S
N1672 C1668 1.427 . S
N1672 C1669 1.384 . S
N1673 C1665 1.427 . S
N1673 C1671 1.384 . S
H1674 C1680 0.930 . S
H1675 C1684 0.930 . S
H1676 C1689 0.929 . S
H1677 C1687 0.929 . S
H1678 C1682 0.929 . S
H1679 C1688 0.929 . S
C1680 H1674 0.930 . S
C1680 C1681 1.367 . S
C1680 C1688 1.378 . S
C1681 C1680 1.367 . S
C1681 C1689 1.433 . S
C1682 H1678 0.929 . S
C1682 C1684 1.378 . S
C1682 C1686 1.350 . S
C1683 C1686 1.463 1_554 S
C1683 C1688 1.350 . S
C1683 N1691 1.427 . S
C1684 H1675 0.930 . S
C1684 C1682 1.378 . S
C1684 C1685 1.367 . S
C1685 C1684 1.367 . S
C1685 C1687 1.433 . S
C1686 C1682 1.350 . S
C1686 C1683 1.463 1_556 S
C1686 N1690 1.427 . S
C1687 H1677 0.929 . S
C1687 C1685 1.433 . S
C1687 N1690 1.384 . S
C1688 H1679 0.929 . S
C1688 C1680 1.378 . S
C1688 C1683 1.350 . S
C1689 H1676 0.929 . S
C1689 C1681 1.433 . S
C1689 N1691 1.384 . S
N1690 C1686 1.427 . S
N1690 C1687 1.384 . S
N1691 C1683 1.427 . S
N1691 C1689 1.384 . S
H1692 C1698 0.930 1_554 S
H1693 C1702 0.930 . S
H1694 C1707 0.929 . S
H1695 C1705 0.929 . S
H1696 C1700 0.929 . S
H1697 C1706 0.929 . S
C1698 H1692 0.930 1_556 S
C1698 C1699 1.367 . S
C1698 C1706 1.378 . S
C1699 C1698 1.367 . S
C1699 C1707 1.433 . S
C1700 H1696 0.929 . S
C1700 C1702 1.378 . S
C1700 C1704 1.350 . S
C1701 C1704 1.463 . S
C1701 C1706 1.350 . S
C1701 N1709 1.427 . S
C1702 H1693 0.930 . S
C1702 C1700 1.378 . S
C1702 C1703 1.367 . S
C1703 C1702 1.367 . S
C1703 C1705 1.433 . S
C1704 C1700 1.350 . S
C1704 C1701 1.463 . S
C1704 N1708 1.427 . S
C1705 H1695 0.929 . S
C1705 C1703 1.433 . S
C1705 N1708 1.384 . S
C1706 H1697 0.929 . S
C1706 C1698 1.378 . S
C1706 C1701 1.350 . S
C1707 H1694 0.929 . S
C1707 C1699 1.433 . S
C1707 N1709 1.384 . S
N1708 C1704 1.427 . S
N1708 C1705 1.384 . S
N1709 C1701 1.427 . S
N1709 C1707 1.384 . S
H1710 C1716 0.930 . S
H1711 C1720 0.930 . S
H1712 C1725 0.929 . S
H1713 C1723 0.929 . S
H1714 C1718 0.929 . S
H1715 C1724 0.929 . S
C1716 H1710 0.930 . S
C1716 C1717 1.367 . S
C1716 C1724 1.378 . S
C1717 C1716 1.367 . S
C1717 C1725 1.433 . S
C1718 H1714 0.929 . S
C1718 C1720 1.378 . S
C1718 C1722 1.350 . S
C1719 C1722 1.463 . S
C1719 C1724 1.350 . S
C1719 N1727 1.427 . S
C1720 H1711 0.930 . S
C1720 C1718 1.378 . S
C1720 C1721 1.367 . S
C1721 C1720 1.367 . S
C1721 C1723 1.433 . S
C1722 C1718 1.350 . S
C1722 C1719 1.463 . S
C1722 N1726 1.427 . S
C1723 H1713 0.929 . S
C1723 C1721 1.433 . S
C1723 N1726 1.384 . S
C1724 H1715 0.929 . S
C1724 C1716 1.378 . S
C1724 C1719 1.350 . S
C1725 H1712 0.929 . S
C1725 C1717 1.433 . S
C1725 N1727 1.384 . S
N1726 C1722 1.427 . S
N1726 C1723 1.384 . S
N1727 C1719 1.427 . S
N1727 C1725 1.384 . S
H1728 C1734 0.930 . S
H1729 C1738 0.930 . S
H1730 C1743 0.929 . S
H1731 C1741 0.929 1_554 S
H1732 C1736 0.929 . S
H1733 C1742 0.929 . S
C1734 H1728 0.930 . S
C1734 C1735 1.367 . S
C1734 C1742 1.378 . S
C1735 C1734 1.367 . S
C1735 C1743 1.433 . S
C1736 H1732 0.929 . S
C1736 C1738 1.378 . S
C1736 C1740 1.350 . S
C1737 C1740 1.463 . S
C1737 C1742 1.350 . S
C1737 N1745 1.427 . S
C1738 H1729 0.930 . S
C1738 C1736 1.378 . S
C1738 C1739 1.367 . S
C1739 C1738 1.367 . S
C1739 C1741 1.433 . S
C1740 C1736 1.350 . S
C1740 C1737 1.463 . S
C1740 N1744 1.427 . S
C1741 H1731 0.929 1_556 S
C1741 C1739 1.433 . S
C1741 N1744 1.384 . S
C1742 H1733 0.929 . S
C1742 C1734 1.378 . S
C1742 C1737 1.350 . S
C1743 H1730 0.929 . S
C1743 C1735 1.433 . S
C1743 N1745 1.384 . S
N1744 C1740 1.427 . S
N1744 C1741 1.384 . S
N1745 C1737 1.427 . S
N1745 C1743 1.384 . S
H1746 C1752 0.930 . S
H1747 C1756 0.930 . S
H1748 C1761 0.929 . S
H1749 C1759 0.929 . S
H1750 C1754 0.929 . S
H1751 C1760 0.929 . S
C1752 H1746 0.930 . S
C1752 C1753 1.367 . S
C1752 C1760 1.378 . S
C1753 C1752 1.367 . S
C1753 C1761 1.433 . S
C1754 H1750 0.929 . S
C1754 C1756 1.378 . S
C1754 C1758 1.350 . S
C1755 C1758 1.463 . S
C1755 C1760 1.350 . S
C1755 N1763 1.427 . S
C1756 H1747 0.930 . S
C1756 C1754 1.378 . S
C1756 C1757 1.367 . S
C1757 C1756 1.367 . S
C1757 C1759 1.433 . S
C1758 C1754 1.350 . S
C1758 C1755 1.463 . S
C1758 N1762 1.427 . S
C1759 H1749 0.929 . S
C1759 C1757 1.433 . S
C1759 N1762 1.384 . S
C1760 H1751 0.929 . S
C1760 C1752 1.378 . S
C1760 C1755 1.350 . S
C1761 H1748 0.929 . S
C1761 C1753 1.433 . S
C1761 N1763 1.384 . S
N1762 C1758 1.427 . S
N1762 C1759 1.384 . S
N1763 C1755 1.427 . S
N1763 C1761 1.384 . S
H1764 C1770 0.930 . S
H1765 C1774 0.930 . S
H1766 C1779 0.929 . S
H1767 C1777 0.929 . S
H1768 C1772 0.929 . S
H1769 C1778 0.929 . S
C1770 H1764 0.930 . S
C1770 C1771 1.367 . S
C1770 C1778 1.378 . S
C1771 C1770 1.367 . S
C1771 C1779 1.433 . S
C1772 H1768 0.929 . S
C1772 C1774 1.378 . S
C1772 C1776 1.350 . S
C1773 C1776 1.463 . S
C1773 C1778 1.350 . S
C1773 N1781 1.427 . S
C1774 H1765 0.930 . S
C1774 C1772 1.378 . S
C1774 C1775 1.367 . S
C1775 C1774 1.367 . S
C1775 C1777 1.433 . S
C1776 C1772 1.350 . S
C1776 C1773 1.463 . S
C1776 N1780 1.427 . S
C1777 H1767 0.929 . S
C1777 C1775 1.433 . S
C1777 N1780 1.384 . S
C1778 H1769 0.929 . S
C1778 C1770 1.378 . S
C1778 C1773 1.350 . S
C1779 H1766 0.929 . S
C1779 C1771 1.433 . S
C1779 N1781 1.384 . S
N1780 C1776 1.427 . S
N1780 C1777 1.384 . S
N1781 C1773 1.427 . S
N1781 C1779 1.384 . S
H1782 C1788 0.930 . S
H1783 C1792 0.930 . S
H1784 C1797 0.929 . S
H1785 C1795 0.929 . S
H1786 C1790 0.929 . S
H1787 C1796 0.929 . S
C1788 H1782 0.930 . S
C1788 C1789 1.367 . S
C1788 C1796 1.378 . S
C1789 C1788 1.367 . S
C1789 C1797 1.433 . S
C1790 H1786 0.929 . S
C1790 C1792 1.378 . S
C1790 C1794 1.350 . S
C1791 C1794 1.463 . S
C1791 C1796 1.350 . S
C1791 N1799 1.427 . S
C1792 H1783 0.930 . S
C1792 C1790 1.378 . S
C1792 C1793 1.367 . S
C1793 C1792 1.367 . S
C1793 C1795 1.433 . S
C1794 C1790 1.350 . S
C1794 C1791 1.463 . S
C1794 N1798 1.427 . S
C1795 H1785 0.929 . S
C1795 C1793 1.433 . S
C1795 N1798 1.384 . S
C1796 H1787 0.929 . S
C1796 C1788 1.378 . S
C1796 C1791 1.350 . S
C1797 H1784 0.929 . S
C1797 C1789 1.433 . S
C1797 N1799 1.384 . S
N1798 C1794 1.427 . S
N1798 C1795 1.384 . S
N1799 C1791 1.427 . S
N1799 C1797 1.384 . S
H1800 C1806 0.930 . S
H1801 C1810 0.930 . S
H1802 C1815 0.929 . S
H1803 C1813 0.929 1_556 S
H1804 C1808 0.929 . S
H1805 C1814 0.929 . S
C1806 H1800 0.930 . S
C1806 C1807 1.367 . S
C1806 C1814 1.378 . S
C1807 C1806 1.367 . S
C1807 C1815 1.433 . S
C1808 H1804 0.929 . S
C1808 C1810 1.378 . S
C1808 C1812 1.350 . S
C1809 C1812 1.463 . S
C1809 C1814 1.350 . S
C1809 N1817 1.427 . S
C1810 H1801 0.930 . S
C1810 C1808 1.378 . S
C1810 C1811 1.367 . S
C1811 C1810 1.367 . S
C1811 C1813 1.433 . S
C1812 C1808 1.350 . S
C1812 C1809 1.463 . S
C1812 N1816 1.427 . S
C1813 H1803 0.929 1_554 S
C1813 C1811 1.433 . S
C1813 N1816 1.384 . S
C1814 H1805 0.929 . S
C1814 C1806 1.378 . S
C1814 C1809 1.350 . S
C1815 H1802 0.929 . S
C1815 C1807 1.433 . S
C1815 N1817 1.384 . S
N1816 C1812 1.427 . S
N1816 C1813 1.384 . S
N1817 C1809 1.427 . S
N1817 C1815 1.384 . S
H1818 C1824 0.930 1_556 S
H1819 C1828 0.930 . S
H1820 C1833 0.929 . S
H1821 C1831 0.929 . S
H1822 C1826 0.929 . S
H1823 C1832 0.929 . S
C1824 H1818 0.930 1_554 S
C1824 C1825 1.367 . S
C1824 C1832 1.378 . S
C1825 C1824 1.367 . S
C1825 C1833 1.433 . S
C1826 H1822 0.929 . S
C1826 C1828 1.378 . S
C1826 C1830 1.350 . S
C1827 C1830 1.463 . S
C1827 C1832 1.350 . S
C1827 N1835 1.427 . S
C1828 H1819 0.930 . S
C1828 C1826 1.378 . S
C1828 C1829 1.367 . S
C1829 C1828 1.367 . S
C1829 C1831 1.433 . S
C1830 C1826 1.350 . S
C1830 C1827 1.463 . S
C1830 N1834 1.427 . S
C1831 H1821 0.929 . S
C1831 C1829 1.433 . S
C1831 N1834 1.384 . S
C1832 H1823 0.929 . S
C1832 C1824 1.378 . S
C1832 C1827 1.350 . S
C1833 H1820 0.929 . S
C1833 C1825 1.433 . S
C1833 N1835 1.384 . S
N1834 C1830 1.427 . S
N1834 C1831 1.384 . S
N1835 C1827 1.427 . S
N1835 C1833 1.384 . S
H1836 C1842 0.930 . S
H1837 C1846 0.930 1_556 S
H1838 C1851 0.929 . S
H1839 C1849 0.929 . S
H1840 C1844 0.929 . S
H1841 C1850 0.929 . S
C1842 H1836 0.930 . S
C1842 C1843 1.367 . S
C1842 C1850 1.378 . S
C1843 C1842 1.367 . S
C1843 C1851 1.433 . S
C1844 H1840 0.929 . S
C1844 C1846 1.378 . S
C1844 C1848 1.350 . S
C1845 C1848 1.463 . S
C1845 C1850 1.350 . S
C1845 N1853 1.427 . S
C1846 H1837 0.930 1_554 S
C1846 C1844 1.378 . S
C1846 C1847 1.367 . S
C1847 C1846 1.367 . S
C1847 C1849 1.433 . S
C1848 C1844 1.350 . S
C1848 C1845 1.463 . S
C1848 N1852 1.427 . S
C1849 H1839 0.929 . S
C1849 C1847 1.433 . S
C1849 N1852 1.384 . S
C1850 H1841 0.929 . S
C1850 C1842 1.378 . S
C1850 C1845 1.350 . S
C1851 H1838 0.929 . S
C1851 C1843 1.433 . S
C1851 N1853 1.384 . S
N1852 C1848 1.427 . S
N1852 C1849 1.384 . S
N1853 C1845 1.427 . S
N1853 C1851 1.384 . S
H1854 C1860 0.930 . S
H1855 C1864 0.930 . S
H1856 C1869 0.929 . S
H1857 C1867 0.929 . S
H1858 C1862 0.929 . S
H1859 C1868 0.929 . S
C1860 H1854 0.930 . S
C1860 C1861 1.367 . S
C1860 C1868 1.378 . S
C1861 C1860 1.367 . S
C1861 C1869 1.433 . S
C1862 H1858 0.929 . S
C1862 C1864 1.378 . S
C1862 C1866 1.350 . S
C1863 C1866 1.463 . S
C1863 C1868 1.350 . S
C1863 N1871 1.427 . S
C1864 H1855 0.930 . S
C1864 C1862 1.378 . S
C1864 C1865 1.367 . S
C1865 C1864 1.367 . S
C1865 C1867 1.433 . S
C1866 C1862 1.350 . S
C1866 C1863 1.463 . S
C1866 N1870 1.427 . S
C1867 H1857 0.929 . S
C1867 C1865 1.433 . S
C1867 N1870 1.384 . S
C1868 H1859 0.929 . S
C1868 C1860 1.378 . S
C1868 C1863 1.350 . S
C1869 H1856 0.929 . S
C1869 C1861 1.433 . S
C1869 N1871 1.384 . S
N1870 C1866 1.427 . S
N1870 C1867 1.384 . S
N1871 C1863 1.427 . S
N1871 C1869 1.384 . S
H1872 C1878 0.930 . S
H1873 C1882 0.930 . S
H1874 C1887 0.929 . S
H1875 C1885 0.929 . S
H1876 C1880 0.929 . S
H1877 C1886 0.929 . S
C1878 H1872 0.930 . S
C1878 C1879 1.367 . S
C1878 C1886 1.378 . S
C1879 C1878 1.367 . S
C1879 C1887 1.433 . S
C1880 H1876 0.929 . S
C1880 C1882 1.378 . S
C1880 C1884 1.350 . S
C1881 C1884 1.463 . S
C1881 C1886 1.350 . S
C1881 N1889 1.427 . S
C1882 H1873 0.930 . S
C1882 C1880 1.378 . S
C1882 C1883 1.367 . S
C1883 C1882 1.367 . S
C1883 C1885 1.433 . S
C1884 C1880 1.350 . S
C1884 C1881 1.463 . S
C1884 N1888 1.427 . S
C1885 H1875 0.929 . S
C1885 C1883 1.433 . S
C1885 N1888 1.384 . S
C1886 H1877 0.929 . S
C1886 C1878 1.378 . S
C1886 C1881 1.350 . S
C1887 H1874 0.929 . S
C1887 C1879 1.433 . S
C1887 N1889 1.384 . S
N1888 C1884 1.427 . S
N1888 C1885 1.384 . S
N1889 C1881 1.427 . S
N1889 C1887 1.384 . S
H1890 C1896 0.930 . S
H1891 C1900 0.930 . S
H1892 C1905 0.929 . S
H1893 C1903 0.929 . S
H1894 C1898 0.929 . S
H1895 C1904 0.929 . S
C1896 H1890 0.930 . S
C1896 C1897 1.367 . S
C1896 C1904 1.378 . S
C1897 C1896 1.367 . S
C1897 C1905 1.433 . S
C1898 H1894 0.929 . S
C1898 C1900 1.378 . S
C1898 C1902 1.350 . S
C1899 C1902 1.463 . S
C1899 C1904 1.350 . S
C1899 N1907 1.427 . S
C1900 H1891 0.930 . S
C1900 C1898 1.378 . S
C1900 C1901 1.367 . S
C1901 C1900 1.367 . S
C1901 C1903 1.433 . S
C1902 C1898 1.350 . S
C1902 C1899 1.463 . S
C1902 N1906 1.427 . S
C1903 H1893 0.929 . S
C1903 C1901 1.433 . S
C1903 N1906 1.384 . S
C1904 H1895 0.929 . S
C1904 C1896 1.378 . S
C1904 C1899 1.350 . S
C1905 H1892 0.929 . S
C1905 C1897 1.433 . S
C1905 N1907 1.384 . S
N1906 C1902 1.427 . S
N1906 C1903 1.384 . S
N1907 C1899 1.427 . S
N1907 C1905 1.384 . S
H1908 C1914 0.930 . S
H1909 C1918 0.930 . S
H1910 C1923 0.929 . S
H1911 C1921 0.929 . S
H1912 C1916 0.929 . S
H1913 C1922 0.929 . S
C1914 H1908 0.930 . S
C1914 C1915 1.367 . S
C1914 C1922 1.378 . S
C1915 C1914 1.367 . S
C1915 C1923 1.433 . S
C1916 H1912 0.929 . S
C1916 C1918 1.378 . S
C1916 C1920 1.350 . S
C1917 C1920 1.463 1_455 S
C1917 C1922 1.350 . S
C1917 N1925 1.427 . S
C1918 H1909 0.930 . S
C1918 C1916 1.378 . S
C1918 C1919 1.367 . S
C1919 C1918 1.367 . S
C1919 C1921 1.433 . S
C1920 C1916 1.350 . S
C1920 C1917 1.463 1_655 S
C1920 N1924 1.427 . S
C1921 H1911 0.929 . S
C1921 C1919 1.433 . S
C1921 N1924 1.384 . S
C1922 H1913 0.929 . S
C1922 C1914 1.378 . S
C1922 C1917 1.350 . S
C1923 H1910 0.929 . S
C1923 C1915 1.433 . S
C1923 N1925 1.384 . S
N1924 C1920 1.427 . S
N1924 C1921 1.384 . S
N1925 C1917 1.427 . S
N1925 C1923 1.384 . S
H1926 C1932 0.930 . S
H1927 C1936 0.930 . S
H1928 C1941 0.929 . S
H1929 C1939 0.929 . S
H1930 C1934 0.929 . S
H1931 C1940 0.929 . S
C1932 H1926 0.930 . S
C1932 C1933 1.367 . S
C1932 C1940 1.378 . S
C1933 C1932 1.367 . S
C1933 C1941 1.433 . S
C1934 H1930 0.929 . S
C1934 C1936 1.378 . S
C1934 C1938 1.350 . S
C1935 C1938 1.463 . S
C1935 C1940 1.350 . S
C1935 N1943 1.427 . S
C1936 H1927 0.930 . S
C1936 C1934 1.378 . S
C1936 C1937 1.367 . S
C1937 C1936 1.367 . S
C1937 C1939 1.433 . S
C1938 C1934 1.350 . S
C1938 C1935 1.463 . S
C1938 N1942 1.427 . S
C1939 H1929 0.929 . S
C1939 C1937 1.433 . S
C1939 N1942 1.384 . S
C1940 H1931 0.929 . S
C1940 C1932 1.378 . S
C1940 C1935 1.350 . S
C1941 H1928 0.929 . S
C1941 C1933 1.433 . S
C1941 N1943 1.384 . S
N1942 C1938 1.427 . S
N1942 C1939 1.384 . S
N1943 C1935 1.427 . S
N1943 C1941 1.384 . S
H1944 C1950 0.930 . S
H1945 C1954 0.930 . S
H1946 C1959 0.929 . S
H1947 C1957 0.929 . S
H1948 C1952 0.929 . S
H1949 C1958 0.929 . S
C1950 H1944 0.930 . S
C1950 C1951 1.367 . S
C1950 C1958 1.378 . S
C1951 C1950 1.367 . S
C1951 C1959 1.433 . S
C1952 H1948 0.929 . S
C1952 C1954 1.378 . S
C1952 C1956 1.350 . S
C1953 C1956 1.463 1_545 S
C1953 C1958 1.350 . S
C1953 N1961 1.427 . S
C1954 H1945 0.930 . S
C1954 C1952 1.378 . S
C1954 C1955 1.367 . S
C1955 C1954 1.367 . S
C1955 C1957 1.433 . S
C1956 C1952 1.350 . S
C1956 C1953 1.463 1_565 S
C1956 N1960 1.427 . S
C1957 H1947 0.929 . S
C1957 C1955 1.433 . S
C1957 N1960 1.384 . S
C1958 H1949 0.929 . S
C1958 C1950 1.378 . S
C1958 C1953 1.350 . S
C1959 H1946 0.929 . S
C1959 C1951 1.433 . S
C1959 N1961 1.384 . S
N1960 C1956 1.427 . S
N1960 C1957 1.384 . S
N1961 C1953 1.427 . S
N1961 C1959 1.384 . S
H1962 C1968 0.930 . S
H1963 C1972 0.930 . S
H1964 C1977 0.929 . S
H1965 C1975 0.929 . S
H1966 C1970 0.966 . S
H1967 C1976 0.966 . S
C1968 H1962 0.930 . S
C1968 C1969 1.367 . S
C1968 C1976 1.378 . S
C1969 C1968 1.367 . S
C1969 C1977 1.433 . S
C1970 H1966 0.966 . S
C1970 C1972 1.378 . S
C1970 C1974 1.350 . S
C1971 C1974 1.463 1_565 S
C1971 C1976 1.350 . S
C1971 N1979 1.427 . S
C1972 H1963 0.930 . S
C1972 C1970 1.378 . S
C1972 C1973 1.367 . S
C1973 C1972 1.367 . S
C1973 C1975 1.433 . S
C1974 C1970 1.350 . S
C1974 C1971 1.463 1_545 S
C1974 N1978 1.427 . S
C1975 H1965 0.929 . S
C1975 C1973 1.433 . S
C1975 N1978 1.384 . S
C1976 H1967 0.966 . S
C1976 C1968 1.378 . S
C1976 C1971 1.350 . S
C1977 H1964 0.929 . S
C1977 C1969 1.433 . S
C1977 N1979 1.384 . S
N1978 C1974 1.427 . S
N1978 C1975 1.384 . S
N1979 C1971 1.427 . S
N1979 C1977 1.384 . S
H1980 C1986 0.930 . S
H1981 C1990 0.930 . S
H1982 C1995 0.929 . S
H1983 C1993 0.929 . S
H1984 C1988 0.929 . S
H1985 C1994 0.929 . S
C1986 H1980 0.930 . S
C1986 C1987 1.367 . S
C1986 C1994 1.378 . S
C1987 C1986 1.367 . S
C1987 C1995 1.433 . S
C1988 H1984 0.929 . S
C1988 C1990 1.378 . S
C1988 C1992 1.350 . S
C1989 C1992 1.463 1_455 S
C1989 C1994 1.350 . S
C1989 N1997 1.427 . S
C1990 H1981 0.930 . S
C1990 C1988 1.378 . S
C1990 C1991 1.367 . S
C1991 C1990 1.367 . S
C1991 C1993 1.433 . S
C1992 C1988 1.350 . S
C1992 C1989 1.463 1_655 S
C1992 N1996 1.427 . S
C1993 H1983 0.929 . S
C1993 C1991 1.433 . S
C1993 N1996 1.384 . S
C1994 H1985 0.929 . S
C1994 C1986 1.378 . S
C1994 C1989 1.350 . S
C1995 H1982 0.929 . S
C1995 C1987 1.433 . S
C1995 N1997 1.384 . S
N1996 C1992 1.427 . S
N1996 C1993 1.384 . S
N1997 C1989 1.427 . S
N1997 C1995 1.384 . S
H1998 C2004 0.930 . S
H1999 C2008 0.930 . S
H2000 C2013 0.929 . S
H2001 C2011 0.929 . S
H2002 C2006 0.929 . S
H2003 C2012 0.929 . S
C2004 H1998 0.930 . S
C2004 C2005 1.367 . S
C2004 C2012 1.378 . S
C2005 C2004 1.367 . S
C2005 C2013 1.433 . S
C2006 H2002 0.929 . S
C2006 C2008 1.378 . S
C2006 C2010 1.350 . S
C2007 C2010 1.463 . S
C2007 C2012 1.350 . S
C2007 N2015 1.427 . S
C2008 H1999 0.930 . S
C2008 C2006 1.378 . S
C2008 C2009 1.367 . S
C2009 C2008 1.367 . S
C2009 C2011 1.433 . S
C2010 C2006 1.350 . S
C2010 C2007 1.463 . S
C2010 N2014 1.427 . S
C2011 H2001 0.929 . S
C2011 C2009 1.433 . S
C2011 N2014 1.384 . S
C2012 H2003 0.929 . S
C2012 C2004 1.378 . S
C2012 C2007 1.350 . S
C2013 H2000 0.929 . S
C2013 C2005 1.433 . S
C2013 N2015 1.384 . S
N2014 C2010 1.427 . S
N2014 C2011 1.384 . S
N2015 C2007 1.427 . S
N2015 C2013 1.384 . S
H2016 C2022 0.930 . S
H2017 C2026 0.930 . S
H2018 C2031 0.929 . S
H2019 C2029 0.929 . S
H2020 C2024 0.929 . S
H2021 C2030 0.929 . S
C2022 H2016 0.930 . S
C2022 C2023 1.367 . S
C2022 C2030 1.378 . S
C2023 C2022 1.367 . S
C2023 C2031 1.433 . S
C2024 H2020 0.929 . S
C2024 C2026 1.378 . S
C2024 C2028 1.350 . S
C2025 C2028 1.463 . S
C2025 C2030 1.350 . S
C2025 N2033 1.427 . S
C2026 H2017 0.930 . S
C2026 C2024 1.378 . S
C2026 C2027 1.367 . S
C2027 C2026 1.367 . S
C2027 C2029 1.433 . S
C2028 C2024 1.350 . S
C2028 C2025 1.463 . S
C2028 N2032 1.427 . S
C2029 H2019 0.929 . S
C2029 C2027 1.433 . S
C2029 N2032 1.384 . S
C2030 H2021 0.929 . S
C2030 C2022 1.378 . S
C2030 C2025 1.350 . S
C2031 H2018 0.929 . S
C2031 C2023 1.433 . S
C2031 N2033 1.384 . S
N2032 C2028 1.427 . S
N2032 C2029 1.384 . S
N2033 C2025 1.427 . S
N2033 C2031 1.384 . S
H2034 C2040 0.930 . S
H2035 C2044 0.930 . S
H2036 C2049 0.929 . S
H2037 C2047 0.929 . S
H2038 C2042 0.929 1_545 S
H2039 C2048 0.929 1_565 S
C2040 H2034 0.930 . S
C2040 C2041 1.367 . S
C2040 C2048 1.378 . S
C2041 C2040 1.367 . S
C2041 C2049 1.433 . S
C2042 H2038 0.929 1_565 S
C2042 C2044 1.378 . S
C2042 C2046 1.350 . S
C2043 C2046 1.463 1_545 S
C2043 C2048 1.350 . S
C2043 N2051 1.427 . S
C2044 H2035 0.930 . S
C2044 C2042 1.378 . S
C2044 C2045 1.367 . S
C2045 C2044 1.367 . S
C2045 C2047 1.433 . S
C2046 C2042 1.350 . S
C2046 C2043 1.463 1_565 S
C2046 N2050 1.427 . S
C2047 H2037 0.929 . S
C2047 C2045 1.433 . S
C2047 N2050 1.384 . S
C2048 H2039 0.929 1_545 S
C2048 C2040 1.378 . S
C2048 C2043 1.350 . S
C2049 H2036 0.929 . S
C2049 C2041 1.433 . S
C2049 N2051 1.384 . S
N2050 C2046 1.427 . S
N2050 C2047 1.384 . S
N2051 C2043 1.427 . S
N2051 C2049 1.384 . S
H2052 C2058 0.930 . S
H2053 C2062 0.930 . S
H2054 C2067 0.929 . S
H2055 C2065 0.929 . S
H2056 C2060 0.929 . S
H2057 C2066 0.929 . S
C2058 H2052 0.930 . S
C2058 C2059 1.367 . S
C2058 C2066 1.378 . S
C2059 C2058 1.367 . S
C2059 C2067 1.433 . S
C2060 H2056 0.929 . S
C2060 C2062 1.378 . S
C2060 C2064 1.350 . S
C2061 C2064 1.463 1_655 S
C2061 C2066 1.350 . S
C2061 N2069 1.427 . S
C2062 H2053 0.930 . S
C2062 C2060 1.378 . S
C2062 C2063 1.367 . S
C2063 C2062 1.367 . S
C2063 C2065 1.433 . S
C2064 C2060 1.350 . S
C2064 C2061 1.463 1_455 S
C2064 N2068 1.427 . S
C2065 H2055 0.929 . S
C2065 C2063 1.433 . S
C2065 N2068 1.384 . S
C2066 H2057 0.929 . S
C2066 C2058 1.378 . S
C2066 C2061 1.350 . S
C2067 H2054 0.929 . S
C2067 C2059 1.433 . S
C2067 N2069 1.384 . S
N2068 C2064 1.427 . S
N2068 C2065 1.384 . S
N2069 C2061 1.427 . S
N2069 C2067 1.384 . S
H2070 C2076 0.930 . S
H2071 C2080 0.930 . S
H2072 C2085 0.929 . S
H2073 C2083 0.929 . S
H2074 C2078 0.929 . S
H2075 C2084 0.929 . S
C2076 H2070 0.930 . S
C2076 C2077 1.367 . S
C2076 C2084 1.378 . S
C2077 C2076 1.367 . S
C2077 C2085 1.433 . S
C2078 H2074 0.929 . S
C2078 C2080 1.378 . S
C2078 C2082 1.350 . S
C2079 C2082 1.463 . S
C2079 C2084 1.350 . S
C2079 N2087 1.427 . S
C2080 H2071 0.930 . S
C2080 C2078 1.378 . S
C2080 C2081 1.367 . S
C2081 C2080 1.367 . S
C2081 C2083 1.433 . S
C2082 C2078 1.350 . S
C2082 C2079 1.463 . S
C2082 N2086 1.427 . S
C2083 H2073 0.929 . S
C2083 C2081 1.433 . S
C2083 N2086 1.384 . S
C2084 H2075 0.929 . S
C2084 C2076 1.378 . S
C2084 C2079 1.350 . S
C2085 H2072 0.929 . S
C2085 C2077 1.433 . S
C2085 N2087 1.384 . S
N2086 C2082 1.427 . S
N2086 C2083 1.384 . S
N2087 C2079 1.427 . S
N2087 C2085 1.384 . S
H2088 C2094 0.930 . S
H2089 C2098 0.930 . S
H2090 C2103 0.929 . S
H2091 C2101 0.929 . S
H2092 C2096 0.929 . S
H2093 C2102 0.929 . S
C2094 H2088 0.930 . S
C2094 C2095 1.367 . S
C2094 C2102 1.378 . S
C2095 C2094 1.367 . S
C2095 C2103 1.433 . S
C2096 H2092 0.929 . S
C2096 C2098 1.378 . S
C2096 C2100 1.350 . S
C2097 C2100 1.463 1_565 S
C2097 C2102 1.350 . S
C2097 N2105 1.427 . S
C2098 H2089 0.930 . S
C2098 C2096 1.378 . S
C2098 C2099 1.367 . S
C2099 C2098 1.367 . S
C2099 C2101 1.433 . S
C2100 C2096 1.350 . S
C2100 C2097 1.463 1_545 S
C2100 N2104 1.427 . S
C2101 H2091 0.929 . S
C2101 C2099 1.433 . S
C2101 N2104 1.384 . S
C2102 H2093 0.929 . S
C2102 C2094 1.378 . S
C2102 C2097 1.350 . S
C2103 H2090 0.929 . S
C2103 C2095 1.433 . S
C2103 N2105 1.384 . S
N2104 C2100 1.427 . S
N2104 C2101 1.384 . S
N2105 C2097 1.427 . S
N2105 C2103 1.384 . S
H2106 C2112 0.930 . S
H2107 C2116 0.930 . S
H2108 C2121 0.929 . S
H2109 C2119 0.929 . S
H2110 C2114 0.929 . S
H2111 C2120 0.929 . S
C2112 H2106 0.930 . S
C2112 C2113 1.367 . S
C2112 C2120 1.378 . S
C2113 C2112 1.367 . S
C2113 C2121 1.433 . S
C2114 H2110 0.929 . S
C2114 C2116 1.378 . S
C2114 C2118 1.350 . S
C2115 C2118 1.463 1_655 S
C2115 C2120 1.350 . S
C2115 N2123 1.427 . S
C2116 H2107 0.930 . S
C2116 C2114 1.378 . S
C2116 C2117 1.367 . S
C2117 C2116 1.367 . S
C2117 C2119 1.433 . S
C2118 C2114 1.350 . S
C2118 C2115 1.463 1_455 S
C2118 N2122 1.427 . S
C2119 H2109 0.929 . S
C2119 C2117 1.433 . S
C2119 N2122 1.384 . S
C2120 H2111 0.929 . S
C2120 C2112 1.378 . S
C2120 C2115 1.350 . S
C2121 H2108 0.929 . S
C2121 C2113 1.433 . S
C2121 N2123 1.384 . S
N2122 C2118 1.427 . S
N2122 C2119 1.384 . S
N2123 C2115 1.427 . S
N2123 C2121 1.384 . S
H2124 C2130 0.930 . S
H2125 C2134 0.930 . S
H2126 C2139 0.929 . S
H2127 C2137 0.929 . S
H2128 C2132 0.929 . S
H2129 C2138 0.929 . S
C2130 H2124 0.930 . S
C2130 C2131 1.367 . S
C2130 C2138 1.378 . S
C2131 C2130 1.367 . S
C2131 C2139 1.433 . S
C2132 H2128 0.929 . S
C2132 C2134 1.378 . S
C2132 C2136 1.350 . S
C2133 C2136 1.463 . S
C2133 C2138 1.350 . S
C2133 N2141 1.427 . S
C2134 H2125 0.930 . S
C2134 C2132 1.378 . S
C2134 C2135 1.367 . S
C2135 C2134 1.367 . S
C2135 C2137 1.433 . S
C2136 C2132 1.350 . S
C2136 C2133 1.463 . S
C2136 N2140 1.427 . S
C2137 H2127 0.929 . S
C2137 C2135 1.433 . S
C2137 N2140 1.384 . S
C2138 H2129 0.929 . S
C2138 C2130 1.378 . S
C2138 C2133 1.350 . S
C2139 H2126 0.929 . S
C2139 C2131 1.433 . S
C2139 N2141 1.384 . S
N2140 C2136 1.427 . S
N2140 C2137 1.384 . S
N2141 C2133 1.427 . S
N2141 C2139 1.384 . S
H2142 C2148 0.930 . S
H2143 C2152 0.930 . S
H2144 C2157 0.929 . S
H2145 C2155 0.929 . S
H2146 C2150 0.929 . S
H2147 C2156 0.929 . S
C2148 H2142 0.930 . S
C2148 C2149 1.367 . S
C2148 C2156 1.378 . S
C2149 C2148 1.367 . S
C2149 C2157 1.433 . S
C2150 H2146 0.929 . S
C2150 C2152 1.378 . S
C2150 C2154 1.350 . S
C2151 C2154 1.463 . S
C2151 C2156 1.350 . S
C2151 N2159 1.427 . S
C2152 H2143 0.930 . S
C2152 C2150 1.378 . S
C2152 C2153 1.367 . S
C2153 C2152 1.367 . S
C2153 C2155 1.433 . S
C2154 C2150 1.350 . S
C2154 C2151 1.463 . S
C2154 N2158 1.427 . S
C2155 H2145 0.929 . S
C2155 C2153 1.433 . S
C2155 N2158 1.384 . S
C2156 H2147 0.929 . S
C2156 C2148 1.378 . S
C2156 C2151 1.350 . S
C2157 H2144 0.929 . S
C2157 C2149 1.433 . S
C2157 N2159 1.384 . S
N2158 C2154 1.427 . S
N2158 C2155 1.384 . S
N2159 C2151 1.427 . S
N2159 C2157 1.384 . S
H2160 C2166 0.930 . S
H2161 C2170 0.930 . S
H2162 C2175 0.929 . S
H2163 C2173 0.929 . S
H2164 C2168 0.929 . S
H2165 C2174 0.929 . S
C2166 H2160 0.930 . S
C2166 C2167 1.367 . S
C2166 C2174 1.378 . S
C2167 C2166 1.367 . S
C2167 C2175 1.433 . S
C2168 H2164 0.929 . S
C2168 C2170 1.378 . S
C2168 C2172 1.350 . S
C2169 C2172 1.463 . S
C2169 C2174 1.350 . S
C2169 N2177 1.427 . S
C2170 H2161 0.930 . S
C2170 C2168 1.378 . S
C2170 C2171 1.367 . S
C2171 C2170 1.367 . S
C2171 C2173 1.433 . S
C2172 C2168 1.350 . S
C2172 C2169 1.463 . S
C2172 N2176 1.427 . S
C2173 H2163 0.929 . S
C2173 C2171 1.433 . S
C2173 N2176 1.384 . S
C2174 H2165 0.929 . S
C2174 C2166 1.378 . S
C2174 C2169 1.350 . S
C2175 H2162 0.929 . S
C2175 C2167 1.433 . S
C2175 N2177 1.384 . S
N2176 C2172 1.427 . S
N2176 C2173 1.384 . S
N2177 C2169 1.427 . S
N2177 C2175 1.384 . S
H2178 C2184 0.930 . S
H2179 C2188 0.930 1_556 S
H2180 C2193 0.929 . S
H2181 C2191 0.929 . S
H2182 C2186 0.929 . S
H2183 C2192 0.929 . S
C2184 H2178 0.930 . S
C2184 C2185 1.367 . S
C2184 C2192 1.378 . S
C2185 C2184 1.367 . S
C2185 C2193 1.433 . S
C2186 H2182 0.929 . S
C2186 C2188 1.378 . S
C2186 C2190 1.350 . S
C2187 C2190 1.463 . S
C2187 C2192 1.350 . S
C2187 N2195 1.427 . S
C2188 H2179 0.930 1_554 S
C2188 C2186 1.378 . S
C2188 C2189 1.367 . S
C2189 C2188 1.367 . S
C2189 C2191 1.433 . S
C2190 C2186 1.350 . S
C2190 C2187 1.463 . S
C2190 N2194 1.427 . S
C2191 H2181 0.929 . S
C2191 C2189 1.433 . S
C2191 N2194 1.384 . S
C2192 H2183 0.929 . S
C2192 C2184 1.378 . S
C2192 C2187 1.350 . S
C2193 H2180 0.929 . S
C2193 C2185 1.433 . S
C2193 N2195 1.384 . S
N2194 C2190 1.427 . S
N2194 C2191 1.384 . S
N2195 C2187 1.427 . S
N2195 C2193 1.384 . S
H2196 C2202 0.930 . S
H2197 C2206 0.930 1_556 S
H2198 C2211 0.929 . S
H2199 C2209 0.929 . S
H2200 C2204 0.929 . S
H2201 C2210 0.929 . S
C2202 H2196 0.930 . S
C2202 C2203 1.367 . S
C2202 C2210 1.378 . S
C2203 C2202 1.367 . S
C2203 C2211 1.433 . S
C2204 H2200 0.929 . S
C2204 C2206 1.378 . S
C2204 C2208 1.350 . S
C2205 C2208 1.463 . S
C2205 C2210 1.350 . S
C2205 N2213 1.427 . S
C2206 H2197 0.930 1_554 S
C2206 C2204 1.378 . S
C2206 C2207 1.367 . S
C2207 C2206 1.367 . S
C2207 C2209 1.433 . S
C2208 C2204 1.350 . S
C2208 C2205 1.463 . S
C2208 N2212 1.427 . S
C2209 H2199 0.929 . S
C2209 C2207 1.433 . S
C2209 N2212 1.384 . S
C2210 H2201 0.929 . S
C2210 C2202 1.378 . S
C2210 C2205 1.350 . S
C2211 H2198 0.929 . S
C2211 C2203 1.433 . S
C2211 N2213 1.384 . S
N2212 C2208 1.427 . S
N2212 C2209 1.384 . S
N2213 C2205 1.427 . S
N2213 C2211 1.384 . S
H2214 C2220 0.930 . S
H2215 C2224 0.930 1_556 S
H2216 C2229 0.929 . S
H2217 C2227 0.929 . S
H2218 C2222 0.929 . S
H2219 C2228 0.929 . S
C2220 H2214 0.930 . S
C2220 C2221 1.367 . S
C2220 C2228 1.378 . S
C2221 C2220 1.367 . S
C2221 C2229 1.433 . S
C2222 H2218 0.929 . S
C2222 C2224 1.378 . S
C2222 C2226 1.350 . S
C2223 C2226 1.463 . S
C2223 C2228 1.350 . S
C2223 N2231 1.427 . S
C2224 H2215 0.930 1_554 S
C2224 C2222 1.378 . S
C2224 C2225 1.367 . S
C2225 C2224 1.367 . S
C2225 C2227 1.433 . S
C2226 C2222 1.350 . S
C2226 C2223 1.463 . S
C2226 N2230 1.427 . S
C2227 H2217 0.929 . S
C2227 C2225 1.433 . S
C2227 N2230 1.384 . S
C2228 H2219 0.929 . S
C2228 C2220 1.378 . S
C2228 C2223 1.350 . S
C2229 H2216 0.929 . S
C2229 C2221 1.433 . S
C2229 N2231 1.384 . S
N2230 C2226 1.427 . S
N2230 C2227 1.384 . S
N2231 C2223 1.427 . S
N2231 C2229 1.384 . S
H2232 C2238 0.930 . S
H2233 C2242 0.930 . S
H2234 C2247 0.929 . S
H2235 C2245 0.929 1_554 S
H2236 C2240 0.929 . S
H2237 C2246 0.929 . S
C2238 H2232 0.930 . S
C2238 C2239 1.367 . S
C2238 C2246 1.378 . S
C2239 C2238 1.367 . S
C2239 C2247 1.433 . S
C2240 H2236 0.929 . S
C2240 C2242 1.378 . S
C2240 C2244 1.350 . S
C2241 C2244 1.463 . S
C2241 C2246 1.350 . S
C2241 N2249 1.427 . S
C2242 H2233 0.930 . S
C2242 C2240 1.378 . S
C2242 C2243 1.367 . S
C2243 C2242 1.367 . S
C2243 C2245 1.433 . S
C2244 C2240 1.350 . S
C2244 C2241 1.463 . S
C2244 N2248 1.427 . S
C2245 H2235 0.929 1_556 S
C2245 C2243 1.433 . S
C2245 N2248 1.384 . S
C2246 H2237 0.929 . S
C2246 C2238 1.378 . S
C2246 C2241 1.350 . S
C2247 H2234 0.929 . S
C2247 C2239 1.433 . S
C2247 N2249 1.384 . S
N2248 C2244 1.427 . S
N2248 C2245 1.384 . S
N2249 C2241 1.427 . S
N2249 C2247 1.384 . S
H2250 C2256 0.930 . S
H2251 C2260 0.930 . S
H2252 C2265 0.929 1_554 S
H2253 C2263 0.929 . S
H2254 C2258 0.929 . S
H2255 C2264 0.929 . S
C2256 H2250 0.930 . S
C2256 C2257 1.367 . S
C2256 C2264 1.378 . S
C2257 C2256 1.367 . S
C2257 C2265 1.433 . S
C2258 H2254 0.929 . S
C2258 C2260 1.378 . S
C2258 C2262 1.350 . S
C2259 C2262 1.463 . S
C2259 C2264 1.350 . S
C2259 N2267 1.427 . S
C2260 H2251 0.930 . S
C2260 C2258 1.378 . S
C2260 C2261 1.367 . S
C2261 C2260 1.367 . S
C2261 C2263 1.433 . S
C2262 C2258 1.350 . S
C2262 C2259 1.463 . S
C2262 N2266 1.427 . S
C2263 H2253 0.929 . S
C2263 C2261 1.433 . S
C2263 N2266 1.384 . S
C2264 H2255 0.929 . S
C2264 C2256 1.378 . S
C2264 C2259 1.350 . S
C2265 H2252 0.929 1_556 S
C2265 C2257 1.433 . S
C2265 N2267 1.384 . S
N2266 C2262 1.427 . S
N2266 C2263 1.384 . S
N2267 C2259 1.427 . S
N2267 C2265 1.384 . S
H2268 C2274 0.930 . S
H2269 C2278 0.930 . S
H2270 C2283 0.929 1_554 S
H2271 C2281 0.929 . S
H2272 C2276 0.929 . S
H2273 C2282 0.929 . S
C2274 H2268 0.930 . S
C2274 C2275 1.367 . S
C2274 C2282 1.378 . S
C2275 C2274 1.367 . S
C2275 C2283 1.433 . S
C2276 H2272 0.929 . S
C2276 C2278 1.378 . S
C2276 C2280 1.350 . S
C2277 C2280 1.463 . S
C2277 C2282 1.350 . S
C2277 N2285 1.427 . S
C2278 H2269 0.930 . S
C2278 C2276 1.378 . S
C2278 C2279 1.367 . S
C2279 C2278 1.367 . S
C2279 C2281 1.433 . S
C2280 C2276 1.350 . S
C2280 C2277 1.463 . S
C2280 N2284 1.427 . S
C2281 H2271 0.929 . S
C2281 C2279 1.433 . S
C2281 N2284 1.384 . S
C2282 H2273 0.929 . S
C2282 C2274 1.378 . S
C2282 C2277 1.350 . S
C2283 H2270 0.929 1_556 S
C2283 C2275 1.433 . S
C2283 N2285 1.384 . S
N2284 C2280 1.427 . S
N2284 C2281 1.384 . S
N2285 C2277 1.427 . S
N2285 C2283 1.384 . S
H2286 C2292 0.930 . S
H2287 C2296 0.930 . S
H2288 C2301 0.929 . S
H2289 C2299 0.929 . S
H2290 C2294 0.929 . S
H2291 C2300 0.929 . S
C2292 H2286 0.930 . S
C2292 C2293 1.367 . S
C2292 C2300 1.378 . S
C2293 C2292 1.367 . S
C2293 C2301 1.433 . S
C2294 H2290 0.929 . S
C2294 C2296 1.378 . S
C2294 C2298 1.350 . S
C2295 C2298 1.463 . S
C2295 C2300 1.350 . S
C2295 N2303 1.427 . S
C2296 H2287 0.930 . S
C2296 C2294 1.378 . S
C2296 C2297 1.367 . S
C2297 C2296 1.367 . S
C2297 C2299 1.433 . S
C2298 C2294 1.350 . S
C2298 C2295 1.463 . S
C2298 N2302 1.427 . S
C2299 H2289 0.929 . S
C2299 C2297 1.433 . S
C2299 N2302 1.384 . S
C2300 H2291 0.929 . S
C2300 C2292 1.378 . S
C2300 C2295 1.350 . S
C2301 H2288 0.929 . S
C2301 C2293 1.433 . S
C2301 N2303 1.384 . S
N2302 C2298 1.427 . S
N2302 C2299 1.384 . S
N2303 C2295 1.427 . S
N2303 C2301 1.384 . S
H2304 C2310 0.930 . S
H2305 C2314 0.930 . S
H2306 C2319 0.929 . S
H2307 C2317 0.929 . S
H2308 C2312 0.929 . S
H2309 C2318 0.929 . S
C2310 H2304 0.930 . S
C2310 C2311 1.367 . S
C2310 C2318 1.378 . S
C2311 C2310 1.367 . S
C2311 C2319 1.433 . S
C2312 H2308 0.929 . S
C2312 C2314 1.378 . S
C2312 C2316 1.350 . S
C2313 C2316 1.463 . S
C2313 C2318 1.350 . S
C2313 N2321 1.427 . S
C2314 H2305 0.930 . S
C2314 C2312 1.378 . S
C2314 C2315 1.367 . S
C2315 C2314 1.367 . S
C2315 C2317 1.433 . S
C2316 C2312 1.350 . S
C2316 C2313 1.463 . S
C2316 N2320 1.427 . S
C2317 H2307 0.929 . S
C2317 C2315 1.433 . S
C2317 N2320 1.384 . S
C2318 H2309 0.929 . S
C2318 C2310 1.378 . S
C2318 C2313 1.350 . S
C2319 H2306 0.929 . S
C2319 C2311 1.433 . S
C2319 N2321 1.384 . S
N2320 C2316 1.427 . S
N2320 C2317 1.384 . S
N2321 C2313 1.427 . S
N2321 C2319 1.384 . S
H2322 C2328 0.930 . S
H2323 C2332 0.930 . S
H2324 C2337 0.929 . S
H2325 C2335 0.929 . S
H2326 C2330 0.929 . S
H2327 C2336 0.929 . S
C2328 H2322 0.930 . S
C2328 C2329 1.367 . S
C2328 C2336 1.378 . S
C2329 C2328 1.367 . S
C2329 C2337 1.433 . S
C2330 H2326 0.929 . S
C2330 C2332 1.378 . S
C2330 C2334 1.350 . S
C2331 C2334 1.463 . S
C2331 C2336 1.350 . S
C2331 N2339 1.427 . S
C2332 H2323 0.930 . S
C2332 C2330 1.378 . S
C2332 C2333 1.367 . S
C2333 C2332 1.367 . S
C2333 C2335 1.433 . S
C2334 C2330 1.350 . S
C2334 C2331 1.463 . S
C2334 N2338 1.427 . S
C2335 H2325 0.929 . S
C2335 C2333 1.433 . S
C2335 N2338 1.384 . S
C2336 H2327 0.929 . S
C2336 C2328 1.378 . S
C2336 C2331 1.350 . S
C2337 H2324 0.929 . S
C2337 C2329 1.433 . S
C2337 N2339 1.384 . S
N2338 C2334 1.427 . S
N2338 C2335 1.384 . S
N2339 C2331 1.427 . S
N2339 C2337 1.384 . S
H2340 C2346 0.930 . S
H2341 C2350 0.930 . S
H2342 C2355 0.929 . S
H2343 C2353 0.929 . S
H2344 C2348 0.929 . S
H2345 C2354 0.929 . S
C2346 H2340 0.930 . S
C2346 C2347 1.367 . S
C2346 C2354 1.378 . S
C2347 C2346 1.367 . S
C2347 C2355 1.433 . S
C2348 H2344 0.929 . S
C2348 C2350 1.378 . S
C2348 C2352 1.350 . S
C2349 C2352 1.463 . S
C2349 C2354 1.350 . S
C2349 N2357 1.427 . S
C2350 H2341 0.930 . S
C2350 C2348 1.378 . S
C2350 C2351 1.367 . S
C2351 C2350 1.367 . S
C2351 C2353 1.433 . S
C2352 C2348 1.350 . S
C2352 C2349 1.463 . S
C2352 N2356 1.427 . S
C2353 H2343 0.929 . S
C2353 C2351 1.433 . S
C2353 N2356 1.384 . S
C2354 H2345 0.929 . S
C2354 C2346 1.378 . S
C2354 C2349 1.350 . S
C2355 H2342 0.929 . S
C2355 C2347 1.433 . S
C2355 N2357 1.384 . S
N2356 C2352 1.427 . S
N2356 C2353 1.384 . S
N2357 C2349 1.427 . S
N2357 C2355 1.384 . S
H2358 C2364 0.930 . S
H2359 C2368 0.930 . S
H2360 C2373 0.929 . S
H2361 C2371 0.929 . S
H2362 C2366 0.929 . S
H2363 C2372 0.929 . S
C2364 H2358 0.930 . S
C2364 C2365 1.367 . S
C2364 C2372 1.378 . S
C2365 C2364 1.367 . S
C2365 C2373 1.433 . S
C2366 H2362 0.929 . S
C2366 C2368 1.378 1_565 S
C2366 C2370 1.350 . S
C2367 C2370 1.463 . S
C2367 C2372 1.350 . S
C2367 N2375 1.427 . S
C2368 H2359 0.930 . S
C2368 C2366 1.378 1_545 S
C2368 C2369 1.367 . S
C2369 C2368 1.367 . S
C2369 C2371 1.433 1_545 S
C2370 C2366 1.350 . S
C2370 C2367 1.463 . S
C2370 N2374 1.427 . S
C2371 H2361 0.929 . S
C2371 C2369 1.433 1_565 S
C2371 N2374 1.384 . S
C2372 H2363 0.929 . S
C2372 C2364 1.378 . S
C2372 C2367 1.350 . S
C2373 H2360 0.929 . S
C2373 C2365 1.433 . S
C2373 N2375 1.384 . S
N2374 C2370 1.427 . S
N2374 C2371 1.384 . S
N2375 C2367 1.427 . S
N2375 C2373 1.384 . S
H2376 C2382 0.957 . S
H2377 C2386 0.930 . S
H2378 C2391 0.929 . S
H2379 C2389 0.929 . S
H2380 C2384 0.929 . S
H2381 C2390 0.929 . S
C2382 H2376 0.957 . S
C2382 C2383 1.382 . S
C2382 C2390 1.338 1_655 S
C2383 C2382 1.382 . S
C2383 C2391 1.433 1_655 S
C2384 H2380 0.929 . S
C2384 C2386 1.378 . S
C2384 C2388 1.350 . S
C2385 C2388 1.463 . S
C2385 C2390 1.350 . S
C2385 N2393 1.427 . S
C2386 H2377 0.930 . S
C2386 C2384 1.378 . S
C2386 C2387 1.367 . S
C2387 C2386 1.367 . S
C2387 C2389 1.433 . S
C2388 C2384 1.350 . S
C2388 C2385 1.463 . S
C2388 N2392 1.427 . S
C2389 H2379 0.929 . S
C2389 C2387 1.433 . S
C2389 N2392 1.384 . S
C2390 H2381 0.929 . S
C2390 C2382 1.338 1_455 S
C2390 C2385 1.350 . S
C2391 H2378 0.929 . S
C2391 C2383 1.433 1_455 S
C2391 N2393 1.384 . S
N2392 C2388 1.427 . S
N2392 C2389 1.384 . S
N2393 C2385 1.427 . S
N2393 C2391 1.384 . S
H2394 C2400 0.930 . S
H2395 C2404 0.930 . S
H2396 C2409 0.929 . S
H2397 C2407 0.929 . S
H2398 C2402 0.929 . S
H2399 C2408 0.929 . S
C2400 H2394 0.930 . S
C2400 C2401 1.367 . S
C2400 C2408 1.378 . S
C2401 C2400 1.367 . S
C2401 C2409 1.433 . S
C2402 H2398 0.929 . S
C2402 C2404 1.378 . S
C2402 C2406 1.350 . S
C2403 C2406 1.463 . S
C2403 C2408 1.350 . S
C2403 N2411 1.427 . S
C2404 H2395 0.930 . S
C2404 C2402 1.378 . S
C2404 C2405 1.367 . S
C2405 C2404 1.367 . S
C2405 C2407 1.433 . S
C2406 C2402 1.350 . S
C2406 C2403 1.463 . S
C2406 N2410 1.427 . S
C2407 H2397 0.929 . S
C2407 C2405 1.433 . S
C2407 N2410 1.384 . S
C2408 H2399 0.929 . S
C2408 C2400 1.378 . S
C2408 C2403 1.350 . S
C2409 H2396 0.929 . S
C2409 C2401 1.433 . S
C2409 N2411 1.384 . S
N2410 C2406 1.427 . S
N2410 C2407 1.384 . S
N2411 C2403 1.427 . S
N2411 C2409 1.384 . S
H2412 C2418 0.930 . S
H2413 C2422 0.930 . S
H2414 C2427 0.929 . S
H2415 C2425 0.929 . S
H2416 C2420 0.929 . S
H2417 C2426 0.929 . S
C2418 H2412 0.930 . S
C2418 C2419 1.367 1_545 S
C2418 C2426 1.378 . S
C2419 C2418 1.367 1_565 S
C2419 C2427 1.433 . S
C2420 H2416 0.929 . S
C2420 C2422 1.378 . S
C2420 C2424 1.350 . S
C2421 C2424 1.463 . S
C2421 C2426 1.350 . S
C2421 N2429 1.427 1_545 S
C2422 H2413 0.930 . S
C2422 C2420 1.378 . S
C2422 C2423 1.367 . S
C2423 C2422 1.367 . S
C2423 C2425 1.433 . S
C2424 C2420 1.350 . S
C2424 C2421 1.463 . S
C2424 N2428 1.427 . S
C2425 H2415 0.929 . S
C2425 C2423 1.433 . S
C2425 N2428 1.384 . S
C2426 H2417 0.929 . S
C2426 C2418 1.378 . S
C2426 C2421 1.350 . S
C2427 H2414 0.929 . S
C2427 C2419 1.433 . S
C2427 N2429 1.384 . S
N2428 C2424 1.427 . S
N2428 C2425 1.384 . S
N2429 C2421 1.427 1_565 S
N2429 C2427 1.384 . S
H2430 C2436 0.930 . S
H2431 C2440 0.930 . S
H2432 C2445 0.929 . S
H2433 C2443 0.929 . S
H2434 C2438 0.929 . S
H2435 C2444 0.929 . S
C2436 H2430 0.930 . S
C2436 C2437 1.367 1_655 S
C2436 C2444 1.378 . S
C2437 C2436 1.367 1_455 S
C2437 C2445 1.433 . S
C2438 H2434 0.929 . S
C2438 C2440 1.378 . S
C2438 C2442 1.350 . S
C2439 C2442 1.463 . S
C2439 C2444 1.350 . S
C2439 N2447 1.427 . S
C2440 H2431 0.930 . S
C2440 C2438 1.378 . S
C2440 C2441 1.367 . S
C2441 C2440 1.367 . S
C2441 C2443 1.433 . S
C2442 C2438 1.350 . S
C2442 C2439 1.463 . S
C2442 N2446 1.427 . S
C2443 H2433 0.929 . S
C2443 C2441 1.433 . S
C2443 N2446 1.384 . S
C2444 H2435 0.929 . S
C2444 C2436 1.378 . S
C2444 C2439 1.350 . S
C2445 H2432 0.929 . S
C2445 C2437 1.433 . S
C2445 N2447 1.384 1_455 S
N2446 C2442 1.427 . S
N2446 C2443 1.384 . S
N2447 C2439 1.427 . S
N2447 C2445 1.384 1_655 S
H2448 C2454 0.930 . S
H2449 C2458 0.930 . S
H2450 C2463 0.929 . S
H2451 C2461 0.929 . S
H2452 C2456 0.929 . S
H2453 C2462 0.929 . S
C2454 H2448 0.930 . S
C2454 C2455 1.367 . S
C2454 C2462 1.378 . S
C2455 C2454 1.367 . S
C2455 C2463 1.433 . S
C2456 H2452 0.929 . S
C2456 C2458 1.378 . S
C2456 C2460 1.350 . S
C2457 C2460 1.463 . S
C2457 C2462 1.350 . S
C2457 N2465 1.427 . S
C2458 H2449 0.930 . S
C2458 C2456 1.378 . S
C2458 C2459 1.367 . S
C2459 C2458 1.367 . S
C2459 C2461 1.433 . S
C2460 C2456 1.350 . S
C2460 C2457 1.463 . S
C2460 N2464 1.427 . S
C2461 H2451 0.929 . S
C2461 C2459 1.433 . S
C2461 N2464 1.384 . S
C2462 H2453 0.929 . S
C2462 C2454 1.378 . S
C2462 C2457 1.350 . S
C2463 H2450 0.929 . S
C2463 C2455 1.433 . S
C2463 N2465 1.384 . S
N2464 C2460 1.427 . S
N2464 C2461 1.384 . S
N2465 C2457 1.427 . S
N2465 C2463 1.384 . S
H2466 C2472 0.930 . S
H2467 C2476 0.930 . S
H2468 C2481 0.929 . S
H2469 C2479 0.929 . S
H2470 C2474 0.929 . S
H2471 C2480 0.929 . S
C2472 H2466 0.930 . S
C2472 C2473 1.367 . S
C2472 C2480 1.378 1_565 S
C2473 C2472 1.367 . S
C2473 C2481 1.433 1_565 S
C2474 H2470 0.929 . S
C2474 C2476 1.378 . S
C2474 C2478 1.350 . S
C2475 C2478 1.463 . S
C2475 C2480 1.350 . S
C2475 N2483 1.427 . S
C2476 H2467 0.930 . S
C2476 C2474 1.378 . S
C2476 C2477 1.367 . S
C2477 C2476 1.367 . S
C2477 C2479 1.433 . S
C2478 C2474 1.350 . S
C2478 C2475 1.463 . S
C2478 N2482 1.427 . S
C2479 H2469 0.929 . S
C2479 C2477 1.433 . S
C2479 N2482 1.384 . S
C2480 H2471 0.929 . S
C2480 C2472 1.378 1_545 S
C2480 C2475 1.350 . S
C2481 H2468 0.929 . S
C2481 C2473 1.433 1_545 S
C2481 N2483 1.384 . S
N2482 C2478 1.427 . S
N2482 C2479 1.384 . S
N2483 C2475 1.427 . S
N2483 C2481 1.384 . S
H2484 C2490 0.930 . S
H2485 C2494 0.930 . S
H2486 C2499 0.929 . S
H2487 C2497 0.929 . S
H2488 C2492 0.928 . S
H2489 C2498 0.929 . S
C2490 H2484 0.930 . S
C2490 C2491 1.367 . S
C2490 C2498 1.378 . S
C2491 C2490 1.367 . S
C2491 C2499 1.433 . S
C2492 H2488 0.928 . S
C2492 C2494 1.400 . S
C2492 C2496 1.329 1_455 S
C2493 C2496 1.463 . S
C2493 C2498 1.350 . S
C2493 N2501 1.427 . S
C2494 H2485 0.930 . S
C2494 C2492 1.400 . S
C2494 C2495 1.367 . S
C2495 C2494 1.367 . S
C2495 C2497 1.433 1_455 S
C2496 C2492 1.329 1_655 S
C2496 C2493 1.463 . S
C2496 N2500 1.427 . S
C2497 H2487 0.929 . S
C2497 C2495 1.433 1_655 S
C2497 N2500 1.384 . S
C2498 H2489 0.929 . S
C2498 C2490 1.378 . S
C2498 C2493 1.350 . S
C2499 H2486 0.929 . S
C2499 C2491 1.433 . S
C2499 N2501 1.384 . S
N2500 C2496 1.427 . S
N2500 C2497 1.384 . S
N2501 C2493 1.427 . S
N2501 C2499 1.384 . S
H2502 C2508 0.930 . S
H2503 C2512 0.930 . S
H2504 C2517 0.929 . S
H2505 C2515 0.929 . S
H2506 C2510 0.929 . S
H2507 C2516 0.929 . S
C2508 H2502 0.930 . S
C2508 C2509 1.367 . S
C2508 C2516 1.378 . S
C2509 C2508 1.367 . S
C2509 C2517 1.433 . S
C2510 H2506 0.929 . S
C2510 C2512 1.378 . S
C2510 C2514 1.350 . S
C2511 C2514 1.463 . S
C2511 C2516 1.350 . S
C2511 N2519 1.427 . S
C2512 H2503 0.930 . S
C2512 C2510 1.378 . S
C2512 C2513 1.367 . S
C2513 C2512 1.367 . S
C2513 C2515 1.433 . S
C2514 C2510 1.350 . S
C2514 C2511 1.463 . S
C2514 N2518 1.427 . S
C2515 H2505 0.929 . S
C2515 C2513 1.433 . S
C2515 N2518 1.384 . S
C2516 H2507 0.929 . S
C2516 C2508 1.378 . S
C2516 C2511 1.350 . S
C2517 H2504 0.929 . S
C2517 C2509 1.433 . S
C2517 N2519 1.384 . S
N2518 C2514 1.427 . S
N2518 C2515 1.384 . S
N2519 C2511 1.427 . S
N2519 C2517 1.384 . S
H2520 C2526 0.930 . S
H2521 C2530 0.930 . S
H2522 C2535 0.929 . S
H2523 C2533 0.929 . S
H2524 C2528 0.929 . S
H2525 C2534 0.929 . S
C2526 H2520 0.930 . S
C2526 C2527 1.367 . S
C2526 C2534 1.378 . S
C2527 C2526 1.367 . S
C2527 C2535 1.433 . S
C2528 H2524 0.929 . S
C2528 C2530 1.378 . S
C2528 C2532 1.350 1_545 S
C2529 C2532 1.463 . S
C2529 C2534 1.350 . S
C2529 N2537 1.427 . S
C2530 H2521 0.930 . S
C2530 C2528 1.378 . S
C2530 C2531 1.367 . S
C2531 C2530 1.367 . S
C2531 C2533 1.433 1_545 S
C2532 C2528 1.350 1_565 S
C2532 C2529 1.463 . S
C2532 N2536 1.427 . S
C2533 H2523 0.929 . S
C2533 C2531 1.433 1_565 S
C2533 N2536 1.384 . S
C2534 H2525 0.929 . S
C2534 C2526 1.378 . S
C2534 C2529 1.350 . S
C2535 H2522 0.929 . S
C2535 C2527 1.433 . S
C2535 N2537 1.384 . S
N2536 C2532 1.427 . S
N2536 C2533 1.384 . S
N2537 C2529 1.427 . S
N2537 C2535 1.384 . S
H2538 C2544 0.930 . S
H2539 C2548 0.930 . S
H2540 C2553 0.929 . S
H2541 C2551 0.929 . S
H2542 C2546 0.929 . S
H2543 C2552 0.929 . S
C2544 H2538 0.930 . S
C2544 C2545 1.367 . S
C2544 C2552 1.378 . S
C2545 C2544 1.367 . S
C2545 C2553 1.433 . S
C2546 H2542 0.929 . S
C2546 C2548 1.378 . S
C2546 C2550 1.350 . S
C2547 C2550 1.463 . S
C2547 C2552 1.350 . S
C2547 N2555 1.427 . S
C2548 H2539 0.930 . S
C2548 C2546 1.378 . S
C2548 C2549 1.367 1_455 S
C2549 C2548 1.367 1_655 S
C2549 C2551 1.433 . S
C2550 C2546 1.350 . S
C2550 C2547 1.463 . S
C2550 N2554 1.427 . S
C2551 H2541 0.929 . S
C2551 C2549 1.433 . S
C2551 N2554 1.384 1_655 S
C2552 H2543 0.929 . S
C2552 C2544 1.378 . S
C2552 C2547 1.350 . S
C2553 H2540 0.929 . S
C2553 C2545 1.433 . S
C2553 N2555 1.384 . S
N2554 C2550 1.427 . S
N2554 C2551 1.384 1_455 S
N2555 C2547 1.427 . S
N2555 C2553 1.384 . S
H2556 C2562 0.930 . S
H2557 C2566 0.930 . S
H2558 C2571 0.929 . S
H2559 C2569 0.929 . S
H2560 C2564 0.929 . S
H2561 C2570 0.929 . S
C2562 H2556 0.930 . S
C2562 C2563 1.367 . S
C2562 C2570 1.378 . S
C2563 C2562 1.367 . S
C2563 C2571 1.433 . S
C2564 H2560 0.929 . S
C2564 C2566 1.378 . S
C2564 C2568 1.350 . S
C2565 C2568 1.463 1_655 S
C2565 C2570 1.350 . S
C2565 N2573 1.427 . S
C2566 H2557 0.930 . S
C2566 C2564 1.378 . S
C2566 C2567 1.367 . S
C2567 C2566 1.367 . S
C2567 C2569 1.433 . S
C2568 C2564 1.350 . S
C2568 C2565 1.463 1_455 S
C2568 N2572 1.427 . S
C2569 H2559 0.929 . S
C2569 C2567 1.433 . S
C2569 N2572 1.384 . S
C2570 H2561 0.929 . S
C2570 C2562 1.378 . S
C2570 C2565 1.350 . S
C2571 H2558 0.929 . S
C2571 C2563 1.433 . S
C2571 N2573 1.384 . S
N2572 C2568 1.427 . S
N2572 C2569 1.384 . S
N2573 C2565 1.427 . S
N2573 C2571 1.384 . S
H2574 C2580 0.930 . S
H2575 C2584 0.930 . S
H2576 C2589 0.929 . S
H2577 C2587 0.929 . S
H2578 C2582 0.929 . S
H2579 C2588 0.929 . S
C2580 H2574 0.930 . S
C2580 C2581 1.367 . S
C2580 C2588 1.378 . S
C2581 C2580 1.367 . S
C2581 C2589 1.433 . S
C2582 H2578 0.929 . S
C2582 C2584 1.378 . S
C2582 C2586 1.350 . S
C2583 C2586 1.463 . S
C2583 C2588 1.350 . S
C2583 N2591 1.427 . S
C2584 H2575 0.930 . S
C2584 C2582 1.378 . S
C2584 C2585 1.367 . S
C2585 C2584 1.367 . S
C2585 C2587 1.433 . S
C2586 C2582 1.350 . S
C2586 C2583 1.463 . S
C2586 N2590 1.427 . S
C2587 H2577 0.929 . S
C2587 C2585 1.433 . S
C2587 N2590 1.384 . S
C2588 H2579 0.929 . S
C2588 C2580 1.378 . S
C2588 C2583 1.350 . S
C2589 H2576 0.929 . S
C2589 C2581 1.433 . S
C2589 N2591 1.384 . S
N2590 C2586 1.427 . S
N2590 C2587 1.384 . S
N2591 C2583 1.427 . S
N2591 C2589 1.384 . S
H2592 C2598 0.930 . S
H2593 C2602 0.930 . S
H2594 C2607 0.929 . S
H2595 C2605 0.929 . S
H2596 C2600 0.929 . S
H2597 C2606 0.929 . S
C2598 H2592 0.930 . S
C2598 C2599 1.367 . S
C2598 C2606 1.378 . S
C2599 C2598 1.367 . S
C2599 C2607 1.433 . S
C2600 H2596 0.929 . S
C2600 C2602 1.378 . S
C2600 C2604 1.350 . S
C2601 C2604 1.463 1_545 S
C2601 C2606 1.350 . S
C2601 N2609 1.427 . S
C2602 H2593 0.930 . S
C2602 C2600 1.378 . S
C2602 C2603 1.367 . S
C2603 C2602 1.367 . S
C2603 C2605 1.433 . S
C2604 C2600 1.350 . S
C2604 C2601 1.463 1_565 S
C2604 N2608 1.427 . S
C2605 H2595 0.929 . S
C2605 C2603 1.433 . S
C2605 N2608 1.384 . S
C2606 H2597 0.929 . S
C2606 C2598 1.378 . S
C2606 C2601 1.350 . S
C2607 H2594 0.929 . S
C2607 C2599 1.433 . S
C2607 N2609 1.384 . S
N2608 C2604 1.427 . S
N2608 C2605 1.384 . S
N2609 C2601 1.427 . S
N2609 C2607 1.384 . S
H2610 C2616 0.930 . S
H2611 C2620 0.930 . S
H2612 C2625 0.929 . S
H2613 C2623 0.929 . S
H2614 C2618 0.929 . S
H2615 C2624 0.929 . S
C2616 H2610 0.930 . S
C2616 C2617 1.367 . S
C2616 C2624 1.378 . S
C2617 C2616 1.367 . S
C2617 C2625 1.433 . S
C2618 H2614 0.929 . S
C2618 C2620 1.378 . S
C2618 C2622 1.350 . S
C2619 C2622 1.463 1_545 S
C2619 C2624 1.350 . S
C2619 N2627 1.427 . S
C2620 H2611 0.930 . S
C2620 C2618 1.378 . S
C2620 C2621 1.367 . S
C2621 C2620 1.367 . S
C2621 C2623 1.433 . S
C2622 C2618 1.350 . S
C2622 C2619 1.463 1_565 S
C2622 N2626 1.427 . S
C2623 H2613 0.929 . S
C2623 C2621 1.433 . S
C2623 N2626 1.384 . S
C2624 H2615 0.929 . S
C2624 C2616 1.378 . S
C2624 C2619 1.350 . S
C2625 H2612 0.929 . S
C2625 C2617 1.433 . S
C2625 N2627 1.384 . S
N2626 C2622 1.427 . S
N2626 C2623 1.384 . S
N2627 C2619 1.427 . S
N2627 C2625 1.384 . S
H2628 C2634 0.930 . S
H2629 C2638 0.930 . S
H2630 C2643 0.929 . S
H2631 C2641 0.929 . S
H2632 C2636 0.929 . S
H2633 C2642 0.929 . S
C2634 H2628 0.930 . S
C2634 C2635 1.367 . S
C2634 C2642 1.378 . S
C2635 C2634 1.367 . S
C2635 C2643 1.433 . S
C2636 H2632 0.929 . S
C2636 C2638 1.378 . S
C2636 C2640 1.350 . S
C2637 C2640 1.463 1_655 S
C2637 C2642 1.350 . S
C2637 N2645 1.427 . S
C2638 H2629 0.930 . S
C2638 C2636 1.378 . S
C2638 C2639 1.367 . S
C2639 C2638 1.367 . S
C2639 C2641 1.433 . S
C2640 C2636 1.350 . S
C2640 C2637 1.463 1_455 S
C2640 N2644 1.427 . S
C2641 H2631 0.929 . S
C2641 C2639 1.433 . S
C2641 N2644 1.384 . S
C2642 H2633 0.929 . S
C2642 C2634 1.378 . S
C2642 C2637 1.350 . S
C2643 H2630 0.929 . S
C2643 C2635 1.433 . S
C2643 N2645 1.384 . S
N2644 C2640 1.427 . S
N2644 C2641 1.384 . S
N2645 C2637 1.427 . S
N2645 C2643 1.384 . S
H2646 C2652 0.930 . S
H2647 C2656 0.930 . S
H2648 C2661 0.929 . S
H2649 C2659 0.929 . S
H2650 C2654 0.929 . S
H2651 C2660 0.929 . S
C2652 H2646 0.930 . S
C2652 C2653 1.367 . S
C2652 C2660 1.378 . S
C2653 C2652 1.367 . S
C2653 C2661 1.433 . S
C2654 H2650 0.929 . S
C2654 C2656 1.378 . S
C2654 C2658 1.350 . S
C2655 C2658 1.463 . S
C2655 C2660 1.350 . S
C2655 N2663 1.427 . S
C2656 H2647 0.930 . S
C2656 C2654 1.378 . S
C2656 C2657 1.367 . S
C2657 C2656 1.367 . S
C2657 C2659 1.433 . S
C2658 C2654 1.350 . S
C2658 C2655 1.463 . S
C2658 N2662 1.427 . S
C2659 H2649 0.929 . S
C2659 C2657 1.433 . S
C2659 N2662 1.384 . S
C2660 H2651 0.929 . S
C2660 C2652 1.378 . S
C2660 C2655 1.350 . S
C2661 H2648 0.929 . S
C2661 C2653 1.433 . S
C2661 N2663 1.384 . S
N2662 C2658 1.427 . S
N2662 C2659 1.384 . S
N2663 C2655 1.427 . S
N2663 C2661 1.384 . S
C727 C2 1.863 . S
C731 C158 1.874 1_545 S
C745 C178 1.874 1_655 S
C749 C22 1.863 . S
C763 C138 1.867 . S
C767 C42 1.863 . S
C781 C238 1.869 1_455 S
C785 C62 1.866 . S
C799 C82 1.867 . S
C803 C198 1.873 . S
C817 C102 1.860 . S
C821 C218 1.872 1_565 S
C835 C39 1.867 1_565 S
C839 C121 1.861 . S
C853 C141 1.860 . S
C857 C59 1.871 1_455 S
C871 C19 1.866 . S
C875 C161 1.862 . S
C889 C119 1.874 1_655 S
C893 C181 1.862 . S
C907 C201 1.859 . S
C911 C79 1.870 . S
C925 C221 1.859 . S
C929 C99 1.869 1_545 S
C943 C242 1.863 . S
C947 C398 1.874 . S
C961 C418 1.872 . S
C965 C262 1.860 . S
C979 C378 1.874 . S
C983 C282 1.865 . S
C997 C302 1.867 . S
C1001 C478 1.870 . S
C1015 C438 1.874 . S
C1019 C322 1.862 . S
C1033 C342 1.861 . S
C1037 C458 1.867 . S
C1051 C361 1.859 . S
C1055 C279 1.871 . S
C1069 C299 1.867 . S
C1073 C381 1.863 . S
C1087 C401 1.863 . S
C1091 C259 1.867 . S
C1105 C359 1.871 . S
C1109 C421 1.867 . S
C1123 C319 1.867 . S
C1127 C441 1.860 . S
C1141 C461 1.862 . S
C1145 C339 1.873 . S
C1159 C482 1.863 . S
C1163 C638 1.874 . S
C1177 C502 1.859 . S
C1181 C658 1.868 . S
C1195 C618 1.871 . S
C1199 C522 1.867 . S
C1213 C718 1.867 . S
C1217 C542 1.860 . S
C1231 C562 1.859 . S
C1235 C678 1.868 . S
C1249 C698 1.867 . S
C1253 C582 1.860 . S
C1267 C519 1.867 . S
C1271 C601 1.860 . S
C1285 C621 1.865 . S
C1289 C539 1.874 . S
C1303 C499 1.868 . S
C1307 C641 1.865 . S
C1321 C661 1.867 . S
C1325 C599 1.872 . S
C1339 C681 1.865 . S
C1343 C559 1.868 . S
C1357 C701 1.868 . S
C1361 C579 1.872 . S
C1375 C18 1.705 . S
C1379 C379 1.705 . S
C1393 C38 1.703 . S
C1397 C399 1.703 . S
C1411 C419 1.709 . S
C1415 C58 1.709 . S
C1429 C679 1.703 . S
C1433 C78 1.703 . S
C1447 C699 1.703 . S
C1451 C98 1.703 . S
C1465 C719 1.711 . S
C1469 C118 1.711 . S
C1483 C139 1.712 . S
C1487 C498 1.712 . S
C1501 C518 1.705 . S
C1505 C159 1.705 . S
C1519 C179 1.710 . S
C1523 C538 1.710 . S
C1537 C199 1.703 . S
C1541 C318 1.703 . S
C1555 C219 1.703 . S
C1559 C338 1.703 . S
C1573 C239 1.703 . S
C1577 C358 1.703 . S
C1591 C258 1.709 . S
C1595 C619 1.709 . S
C1609 C639 1.710 . S
C1613 C278 1.710 . S
C1627 C298 1.707 . S
C1631 C659 1.707 . S
C1645 C558 1.707 . S
C1649 C439 1.707 . S
C1663 C459 1.711 . S
C1667 C578 1.711 . S
C1681 C598 1.707 . S
C1685 C479 1.707 . S
C1699 C9 1.484 1_556 S
C1703 C329 1.493 . S
C1717 C29 1.502 1_556 S
C1721 C349 1.490 . S
C1735 C309 1.501 . S
C1739 C49 1.505 1_556 S
C1753 C69 1.497 . S
C1757 C529 1.505 . S
C1771 C489 1.505 . S
C1775 C89 1.496 . S
C1789 C109 1.503 . S
C1793 C509 1.504 . S
C1807 C688 1.496 . S
C1811 C128 1.505 1_554 S
C1825 C148 1.489 1_554 S
C1829 C708 1.483 . S
C1843 C668 1.489 . S
C1847 C168 1.484 1_554 S
C1861 C188 1.506 . S
C1865 C408 1.500 . S
C1879 C208 1.503 . S
C1883 C368 1.492 . S
C1897 C228 1.491 . S
C1901 C388 1.503 . S
C1915 C569 1.498 . S
C1919 C249 1.486 . S
C1933 C269 1.504 . S
C1937 C589 1.494 . S
C1951 C289 1.506 . S
C1955 C549 1.499 . S
C1969 C648 1.485 . S
C1973 C428 1.495 . S
C1987 C608 1.501 . S
C1991 C448 1.489 . S
C2005 C628 1.484 . S
C2009 C468 1.487 . S
C2023 C68 1.646 . S
C2027 C8 1.649 . S
C2041 C28 1.646 . S
C2045 C88 1.649 . S
C2059 C48 1.651 . S
C2063 C108 1.648 . S
C2077 C189 1.652 . S
C2081 C129 1.649 . S
C2095 C149 1.652 . S
C2099 C209 1.649 . S
C2113 C229 1.647 . S
C2117 C169 1.651 . S
C2131 C308 1.651 . S
C2135 C248 1.652 . S
C2149 C268 1.646 . S
C2153 C328 1.648 . S
C2167 C288 1.651 . S
C2171 C348 1.648 . S
C2185 C369 1.650 . S
C2189 C429 1.647 1_554 S
C2203 C389 1.649 . S
C2207 C449 1.646 1_554 S
C2221 C409 1.646 . S
C2225 C469 1.648 1_554 S
C2239 C488 1.650 . S
C2243 C548 1.652 1_556 S
C2257 C568 1.652 1_556 S
C2261 C508 1.650 . S
C2275 C588 1.649 1_556 S
C2279 C528 1.652 . S
C2293 C609 1.652 . S
C2297 C669 1.649 . S
C2311 C689 1.649 . S
C2315 C629 1.652 . S
C2329 C649 1.652 . S
C2333 C709 1.649 . S
C2347 C1 0.801 . S
C2351 C581 0.825 . S
C2365 C541 0.817 . S
C2369 C21 0.809 . S
C2383 C41 0.809 . S
C2387 C561 0.816 . S
C2401 C261 0.823 . S
C2405 C61 0.802 . S
C2419 C81 0.826 . S
C2423 C281 0.799 . S
C2437 C101 0.822 . S
C2441 C241 0.803 . S
C2455 C462 0.822 . S
C2459 C122 0.803 . S
C2473 C142 0.808 . S
C2477 C422 0.817 . S
C2491 C442 0.825 . S
C2495 C162 0.801 . S
C2509 C182 0.824 . S
C2513 C622 0.802 . S
C2527 C642 0.825 . S
C2531 C202 0.800 . S
C2545 C602 0.803 . S
C2549 C222 0.822 . S
C2563 C301 0.821 . S
C2567 C501 0.804 . S
C2581 C321 0.803 . S
C2585 C521 0.823 . S
C2599 C341 0.821 . S
C2603 C481 0.804 . S
C2617 C362 0.825 . S
C2621 C702 0.801 . S
C2635 C382 0.807 . S
C2639 C662 0.818 . S
C2653 C682 0.820 . S
C2657 C402 0.806 . S
