# Generated by pormake.
# Topology wlh, (5)-cn, num edge types: 1
# Building blocks:
#     Node 0, Type 0, BuildingBlock: XOMCOT_clean_sbu_1, # of connection points: 5
#     Node 1, Type 0, BuildingBlock: XOMCOT_clean_sbu_1, # of connection points: 5
#     Node 2, Type 0, BuildingBlock: XOMCOT_clean_sbu_1, # of connection points: 5
#     Node 3, Type 0, BuildingBlock: XOMCOT_clean_sbu_1, # of connection points: 5
#     Node 4, Type 0, BuildingBlock: XOMCOT_clean_sbu_1, # of connection points: 5
#     Node 5, Type 0, BuildingBlock: XOMCOT_clean_sbu_1, # of connection points: 5
#     Node 6, Type 0, BuildingBlock: XOMCOT_clean_sbu_1, # of connection points: 5
#     Node 7, Type 0, BuildingBlock: XOMCOT_clean_sbu_1, # of connection points: 5
#     Node 8, Type 0, BuildingBlock: XOMCOT_clean_sbu_1, # of connection points: 5
#     Node 9, Type 0, BuildingBlock: XOMCOT_clean_sbu_1, # of connection points: 5
#     Node 10, Type 0, BuildingBlock: XOMCOT_clean_sbu_1, # of connection points: 5
#     Node 11, Type 0, BuildingBlock: XOMCOT_clean_sbu_1, # of connection points: 5
#     Node 12, Type 0, BuildingBlock: XOMCOT_clean_sbu_1, # of connection points: 5
#     Node 13, Type 0, BuildingBlock: XOMCOT_clean_sbu_1, # of connection points: 5
#     Node 14, Type 0, BuildingBlock: XOMCOT_clean_sbu_1, # of connection points: 5
#     Node 15, Type 0, BuildingBlock: XOMCOT_clean_sbu_1, # of connection points: 5
#     Node 16, Type 0, BuildingBlock: XOMCOT_clean_sbu_1, # of connection points: 5
#     Node 17, Type 0, BuildingBlock: XOMCOT_clean_sbu_1, # of connection points: 5
#     Node 18, Type 0, BuildingBlock: XOMCOT_clean_sbu_1, # of connection points: 5
#     Node 19, Type 0, BuildingBlock: XOMCOT_clean_sbu_1, # of connection points: 5
#     Node 20, Type 0, BuildingBlock: XOMCOT_clean_sbu_1, # of connection points: 5
#     Node 21, Type 0, BuildingBlock: XOMCOT_clean_sbu_1, # of connection points: 5
#     Node 22, Type 0, BuildingBlock: XOMCOT_clean_sbu_1, # of connection points: 5
#     Node 23, Type 0, BuildingBlock: XOMCOT_clean_sbu_1, # of connection points: 5
#     Node 24, Type 0, BuildingBlock: XOMCOT_clean_sbu_1, # of connection points: 5
#     Node 25, Type 0, BuildingBlock: XOMCOT_clean_sbu_1, # of connection points: 5
#     Node 26, Type 0, BuildingBlock: XOMCOT_clean_sbu_1, # of connection points: 5
#     Node 27, Type 0, BuildingBlock: XOMCOT_clean_sbu_1, # of connection points: 5
#     Node 28, Type 0, BuildingBlock: XOMCOT_clean_sbu_1, # of connection points: 5
#     Node 29, Type 0, BuildingBlock: XOMCOT_clean_sbu_1, # of connection points: 5
#     Node 30, Type 0, BuildingBlock: XOMCOT_clean_sbu_1, # of connection points: 5
#     Node 31, Type 0, BuildingBlock: XOMCOT_clean_sbu_1, # of connection points: 5
#     Node 32, Type 0, BuildingBlock: XOMCOT_clean_sbu_1, # of connection points: 5
#     Node 33, Type 0, BuildingBlock: XOMCOT_clean_sbu_1, # of connection points: 5
#     Node 34, Type 0, BuildingBlock: XOMCOT_clean_sbu_1, # of connection points: 5
#     Node 35, Type 0, BuildingBlock: XOMCOT_clean_sbu_1, # of connection points: 5
#     Edge 36, Type (0, 0), BuildingBlock: ZUJKAS_clean_linker_0, # of connection points: 2
#     Edge 37, Type (0, 0), BuildingBlock: ZUJKAS_clean_linker_0, # of connection points: 2
#     Edge 38, Type (0, 0), BuildingBlock: ZUJKAS_clean_linker_0, # of connection points: 2
#     Edge 39, Type (0, 0), BuildingBlock: ZUJKAS_clean_linker_0, # of connection points: 2
#     Edge 40, Type (0, 0), BuildingBlock: ZUJKAS_clean_linker_0, # of connection points: 2
#     Edge 41, Type (0, 0), BuildingBlock: ZUJKAS_clean_linker_0, # of connection points: 2
#     Edge 42, Type (0, 0), BuildingBlock: ZUJKAS_clean_linker_0, # of connection points: 2
#     Edge 43, Type (0, 0), BuildingBlock: ZUJKAS_clean_linker_0, # of connection points: 2
#     Edge 44, Type (0, 0), BuildingBlock: ZUJKAS_clean_linker_0, # of connection points: 2
#     Edge 45, Type (0, 0), BuildingBlock: ZUJKAS_clean_linker_0, # of connection points: 2
#     Edge 46, Type (0, 0), BuildingBlock: ZUJKAS_clean_linker_0, # of connection points: 2
#     Edge 47, Type (0, 0), BuildingBlock: ZUJKAS_clean_linker_0, # of connection points: 2
#     Edge 48, Type (0, 0), BuildingBlock: ZUJKAS_clean_linker_0, # of connection points: 2
#     Edge 49, Type (0, 0), BuildingBlock: ZUJKAS_clean_linker_0, # of connection points: 2
#     Edge 50, Type (0, 0), BuildingBlock: ZUJKAS_clean_linker_0, # of connection points: 2
#     Edge 51, Type (0, 0), BuildingBlock: ZUJKAS_clean_linker_0, # of connection points: 2
#     Edge 52, Type (0, 0), BuildingBlock: ZUJKAS_clean_linker_0, # of connection points: 2
#     Edge 53, Type (0, 0), BuildingBlock: ZUJKAS_clean_linker_0, # of connection points: 2
#     Edge 54, Type (0, 0), BuildingBlock: ZUJKAS_clean_linker_0, # of connection points: 2
#     Edge 55, Type (0, 0), BuildingBlock: ZUJKAS_clean_linker_0, # of connection points: 2
#     Edge 56, Type (0, 0), BuildingBlock: ZUJKAS_clean_linker_0, # of connection points: 2
#     Edge 57, Type (0, 0), BuildingBlock: ZUJKAS_clean_linker_0, # of connection points: 2
#     Edge 58, Type (0, 0), BuildingBlock: ZUJKAS_clean_linker_0, # of connection points: 2
#     Edge 59, Type (0, 0), BuildingBlock: ZUJKAS_clean_linker_0, # of connection points: 2
#     Edge 60, Type (0, 0), BuildingBlock: ZUJKAS_clean_linker_0, # of connection points: 2
#     Edge 61, Type (0, 0), BuildingBlock: ZUJKAS_clean_linker_0, # of connection points: 2
#     Edge 62, Type (0, 0), BuildingBlock: ZUJKAS_clean_linker_0, # of connection points: 2
#     Edge 63, Type (0, 0), BuildingBlock: ZUJKAS_clean_linker_0, # of connection points: 2
#     Edge 64, Type (0, 0), BuildingBlock: ZUJKAS_clean_linker_0, # of connection points: 2
#     Edge 65, Type (0, 0), BuildingBlock: ZUJKAS_clean_linker_0, # of connection points: 2
#     Edge 66, Type (0, 0), BuildingBlock: ZUJKAS_clean_linker_0, # of connection points: 2
#     Edge 67, Type (0, 0), BuildingBlock: ZUJKAS_clean_linker_0, # of connection points: 2
#     Edge 68, Type (0, 0), BuildingBlock: ZUJKAS_clean_linker_0, # of connection points: 2
#     Edge 69, Type (0, 0), BuildingBlock: ZUJKAS_clean_linker_0, # of connection points: 2
#     Edge 70, Type (0, 0), BuildingBlock: ZUJKAS_clean_linker_0, # of connection points: 2
#     Edge 71, Type (0, 0), BuildingBlock: ZUJKAS_clean_linker_0, # of connection points: 2
#     Edge 72, Type (0, 0), BuildingBlock: ZUJKAS_clean_linker_0, # of connection points: 2
#     Edge 73, Type (0, 0), BuildingBlock: ZUJKAS_clean_linker_0, # of connection points: 2
#     Edge 74, Type (0, 0), BuildingBlock: ZUJKAS_clean_linker_0, # of connection points: 2
#     Edge 75, Type (0, 0), BuildingBlock: ZUJKAS_clean_linker_0, # of connection points: 2
#     Edge 76, Type (0, 0), BuildingBlock: ZUJKAS_clean_linker_0, # of connection points: 2
#     Edge 77, Type (0, 0), BuildingBlock: ZUJKAS_clean_linker_0, # of connection points: 2
#     Edge 78, Type (0, 0), BuildingBlock: ZUJKAS_clean_linker_0, # of connection points: 2
#     Edge 79, Type (0, 0), BuildingBlock: ZUJKAS_clean_linker_0, # of connection points: 2
#     Edge 80, Type (0, 0), BuildingBlock: ZUJKAS_clean_linker_0, # of connection points: 2
#     Edge 81, Type (0, 0), BuildingBlock: ZUJKAS_clean_linker_0, # of connection points: 2
#     Edge 82, Type (0, 0), BuildingBlock: ZUJKAS_clean_linker_0, # of connection points: 2
#     Edge 83, Type (0, 0), BuildingBlock: ZUJKAS_clean_linker_0, # of connection points: 2
#     Edge 84, Type (0, 0), BuildingBlock: ZUJKAS_clean_linker_0, # of connection points: 2
#     Edge 85, Type (0, 0), BuildingBlock: ZUJKAS_clean_linker_0, # of connection points: 2
#     Edge 86, Type (0, 0), BuildingBlock: ZUJKAS_clean_linker_0, # of connection points: 2
#     Edge 87, Type (0, 0), BuildingBlock: ZUJKAS_clean_linker_0, # of connection points: 2
#     Edge 88, Type (0, 0), BuildingBlock: ZUJKAS_clean_linker_0, # of connection points: 2
#     Edge 89, Type (0, 0), BuildingBlock: ZUJKAS_clean_linker_0, # of connection points: 2
#     Edge 90, Type (0, 0), BuildingBlock: ZUJKAS_clean_linker_0, # of connection points: 2
#     Edge 91, Type (0, 0), BuildingBlock: ZUJKAS_clean_linker_0, # of connection points: 2
#     Edge 92, Type (0, 0), BuildingBlock: ZUJKAS_clean_linker_0, # of connection points: 2
#     Edge 93, Type (0, 0), BuildingBlock: ZUJKAS_clean_linker_0, # of connection points: 2
#     Edge 94, Type (0, 0), BuildingBlock: ZUJKAS_clean_linker_0, # of connection points: 2
#     Edge 95, Type (0, 0), BuildingBlock: ZUJKAS_clean_linker_0, # of connection points: 2
#     Edge 96, Type (0, 0), BuildingBlock: ZUJKAS_clean_linker_0, # of connection points: 2
#     Edge 97, Type (0, 0), BuildingBlock: ZUJKAS_clean_linker_0, # of connection points: 2
#     Edge 98, Type (0, 0), BuildingBlock: ZUJKAS_clean_linker_0, # of connection points: 2
#     Edge 99, Type (0, 0), BuildingBlock: ZUJKAS_clean_linker_0, # of connection points: 2
#     Edge 100, Type (0, 0), BuildingBlock: ZUJKAS_clean_linker_0, # of connection points: 2
#     Edge 101, Type (0, 0), BuildingBlock: ZUJKAS_clean_linker_0, # of connection points: 2
#     Edge 102, Type (0, 0), BuildingBlock: ZUJKAS_clean_linker_0, # of connection points: 2
#     Edge 103, Type (0, 0), BuildingBlock: ZUJKAS_clean_linker_0, # of connection points: 2
#     Edge 104, Type (0, 0), BuildingBlock: ZUJKAS_clean_linker_0, # of connection points: 2
#     Edge 105, Type (0, 0), BuildingBlock: ZUJKAS_clean_linker_0, # of connection points: 2
#     Edge 106, Type (0, 0), BuildingBlock: ZUJKAS_clean_linker_0, # of connection points: 2
#     Edge 107, Type (0, 0), BuildingBlock: ZUJKAS_clean_linker_0, # of connection points: 2
#     Edge 108, Type (0, 0), BuildingBlock: ZUJKAS_clean_linker_0, # of connection points: 2
#     Edge 109, Type (0, 0), BuildingBlock: ZUJKAS_clean_linker_0, # of connection points: 2
#     Edge 110, Type (0, 0), BuildingBlock: ZUJKAS_clean_linker_0, # of connection points: 2
#     Edge 111, Type (0, 0), BuildingBlock: ZUJKAS_clean_linker_0, # of connection points: 2
#     Edge 112, Type (0, 0), BuildingBlock: ZUJKAS_clean_linker_0, # of connection points: 2
#     Edge 113, Type (0, 0), BuildingBlock: ZUJKAS_clean_linker_0, # of connection points: 2
#     Edge 114, Type (0, 0), BuildingBlock: ZUJKAS_clean_linker_0, # of connection points: 2
#     Edge 115, Type (0, 0), BuildingBlock: ZUJKAS_clean_linker_0, # of connection points: 2
#     Edge 116, Type (0, 0), BuildingBlock: ZUJKAS_clean_linker_0, # of connection points: 2
#     Edge 117, Type (0, 0), BuildingBlock: ZUJKAS_clean_linker_0, # of connection points: 2
#     Edge 118, Type (0, 0), BuildingBlock: ZUJKAS_clean_linker_0, # of connection points: 2
#     Edge 119, Type (0, 0), BuildingBlock: ZUJKAS_clean_linker_0, # of connection points: 2
#     Edge 120, Type (0, 0), BuildingBlock: ZUJKAS_clean_linker_0, # of connection points: 2
#     Edge 121, Type (0, 0), BuildingBlock: ZUJKAS_clean_linker_0, # of connection points: 2
#     Edge 122, Type (0, 0), BuildingBlock: ZUJKAS_clean_linker_0, # of connection points: 2
#     Edge 123, Type (0, 0), BuildingBlock: ZUJKAS_clean_linker_0, # of connection points: 2
#     Edge 124, Type (0, 0), BuildingBlock: ZUJKAS_clean_linker_0, # of connection points: 2
#     Edge 125, Type (0, 0), BuildingBlock: ZUJKAS_clean_linker_0, # of connection points: 2
# Relax obj value: 0.341
# Max RMSD: 0.232
# Mean RMSD: 0.232
data_MOF--net-wlh--node1-XOMCOT_clean_sbu_1--edge1-ZUJKAS_clean_linker_0
_symmetry_space_group_name_H-M    P1
_symmetry_Int_Tables_number       1
_symmetry_cell_setting            triclinic
loop_
_symmetry_equiv_pos_as_xyz
'x, y, z'
_cell_length_a     49.754985
_cell_length_b     49.753941
_cell_length_c     192.21262
_cell_angle_alpha  90.006498
_cell_angle_beta   90.002824
_cell_angle_gamma 120.01488
loop_
_atom_site_label
_atom_site_type_symbol
_atom_site_fract_x
_atom_site_fract_y
_atom_site_fract_z
_atom_type_partial_charge
C0 C 0.13432 0.25796 0.19172 0.0
C1 C 0.1488 0.24056 0.19134 0.0
N2 N 0.13201 0.21613 0.18712 0.0
N3 N 0.10855 0.24454 0.18776 0.0
C4 C 0.10786 0.21926 0.18498 0.0
H5 H 0.14179 0.27882 0.19475 0.0
Co6 Co 0.0807 0.2587 0.18666 0.0
C7 C 0.03152 0.20905 0.17828 0.0
O8 O 0.03418 0.22929 0.17354 0.0
N9 N 0.05256 0.27299 0.18562 0.0
C10 C 0.00953 0.27588 0.18641 0.0
C11 C 0.02245 0.25754 0.18757 0.0
C12 C 0.05747 0.30079 0.18335 0.0
N13 N 0.03159 0.30315 0.18377 0.0
O14 O 0.09532 0.2705 0.1774 0.0
H15 H 0.01067 0.23445 0.18978 0.0
H16 H 0.07973 0.31923 0.18159 0.0
O17 O 0.04907 0.21806 0.18361 0.0
C18 C 0.11993 0.29692 0.17712 0.0
O19 O 0.12965 0.31348 0.18285 0.0
N20 N 0.06851 0.2487 0.19588 0.0
C21 C 0.05445 0.23952 0.20999 0.0
C22 C 0.04739 0.21426 0.20561 0.0
C23 C 0.05488 0.21937 0.19856 0.0
C24 C 0.07605 0.27355 0.20007 0.0
C25 C 0.06903 0.26948 0.20714 0.0
H26 H 0.05021 0.19985 0.19529 0.0
H27 H 0.08754 0.29667 0.19787 0.0
H28 H 0.09007 0.20349 0.18144 0.0
H29 H 0.16958 0.24513 0.19412 0.0
H30 H 0.98563 0.26944 0.18739 0.0
H31 H 0.03676 0.19085 0.20765 0.0
H32 H 0.07473 0.2896 0.21032 0.0
C33 C 0.73544 0.86628 0.1953 0.0
C34 C 0.75165 0.89825 0.19481 0.0
N35 N 0.77292 0.90636 0.18971 0.0
N36 N 0.74662 0.8545 0.19055 0.0
C37 C 0.76902 0.87938 0.18717 0.0
H38 H 0.7172 0.85255 0.19898 0.0
Co39 Co 0.73494 0.81333 0.18898 0.0
C40 C 0.78772 0.82085 0.18047 0.0
O41 O 0.76908 0.80291 0.17554 0.0
N42 N 0.72327 0.77184 0.18742 0.0
C43 C 0.72312 0.72712 0.18751 0.0
C44 C 0.74034 0.75834 0.18888 0.0
C45 C 0.69567 0.74833 0.18523 0.0
N46 N 0.69495 0.7208 0.18523 0.0
O47 O 0.72331 0.81743 0.17979 0.0
H48 H 0.76371 0.77037 0.19094 0.0
H49 H 0.67615 0.75113 0.18387 0.0
O50 O 0.77658 0.82605 0.18594 0.0
C51 C 0.69625 0.81396 0.17931 0.0
O52 O 0.67809 0.8043 0.1848 0.0
N53 N 0.74502 0.80977 0.19814 0.0
C54 C 0.75473 0.80226 0.2121 0.0
C55 C 0.77959 0.8225 0.20783 0.0
C56 C 0.7742 0.82615 0.20086 0.0
C57 C 0.7205 0.79048 0.20221 0.0
C58 C 0.72484 0.78625 0.20921 0.0
H59 H 0.79347 0.84243 0.19771 0.0
H60 H 0.6974 0.77839 0.20001 0.0
H61 H 0.7823 0.87777 0.1829 0.0
H62 H 0.74869 0.91422 0.1981 0.0
H63 H 0.73084 0.71043 0.18814 0.0
H64 H 0.80305 0.83531 0.20983 0.0
H65 H 0.70486 0.77098 0.21234 0.0
C66 C 0.12875 0.85783 0.18882 0.0
C67 C 0.09799 0.84808 0.18766 0.0
N68 N 0.09447 0.87323 0.18753 0.0
N69 N 0.14467 0.88899 0.18937 0.0
C70 C 0.12312 0.89775 0.18866 0.0
H71 H 0.13901 0.84317 0.18916 0.0
Co72 Co 0.18739 0.9114 0.1904 0.0
C73 C 0.20799 0.97647 0.18523 0.0
O74 O 0.23734 0.98675 0.18662 0.0
N75 N 0.23113 0.93257 0.19153 0.0
C76 C 0.27803 0.95134 0.19626 0.0
C77 C 0.24695 0.93879 0.19759 0.0
C78 C 0.25338 0.94104 0.18659 0.0
N79 N 0.28216 0.95285 0.18933 0.0
O80 O 0.19079 0.89861 0.18126 0.0
H81 H 0.23682 0.93367 0.20273 0.0
H82 H 0.24856 0.93898 0.18107 0.0
O83 O 0.18769 0.94821 0.18653 0.0
C84 C 0.19629 0.87631 0.18071 0.0
O85 O 0.205 0.8673 0.18627 0.0
N86 N 0.18224 0.92149 0.19949 0.0
C87 C 0.17823 0.93027 0.21368 0.0
C88 C 0.18564 0.95446 0.20895 0.0
C89 C 0.18757 0.94963 0.20185 0.0
C90 C 0.1736 0.89733 0.20397 0.0
C91 C 0.17154 0.90121 0.2111 0.0
H92 H 0.19446 0.96895 0.19839 0.0
H93 H 0.16943 0.87519 0.20201 0.0
H94 H 0.12837 0.9216 0.18884 0.0
H95 H 0.07963 0.82428 0.18699 0.0
H96 H 0.29599 0.95776 0.20014 0.0
H97 H 0.19127 0.97735 0.21073 0.0
H98 H 0.16536 0.88183 0.21457 0.0
C99 C 0.26226 0.11341 0.30093 0.0
C100 C 0.24675 0.12989 0.30093 0.0
N101 N 0.22412 0.1174 0.30577 0.0
N102 N 0.24937 0.09068 0.30572 0.0
C103 C 0.22644 0.09388 0.30863 0.0
H104 H 0.28144 0.11743 0.29759 0.0
Co105 Co 0.26118 0.06168 0.30781 0.0
C106 C 0.20957 0.01867 0.31695 0.0
O107 O 0.22875 0.02088 0.32191 0.0
N108 N 0.27331 0.03264 0.30989 0.0
C109 C 0.27421 0.98854 0.31056 0.0
C110 C 0.25629 0.0016 0.30901 0.0
C111 C 0.30155 0.03793 0.31191 0.0
N112 N 0.30276 0.01143 0.31236 0.0
O113 O 0.27415 0.08038 0.31673 0.0
H114 H 0.23252 0.98928 0.3072 0.0
H115 H 0.32113 0.06088 0.31279 0.0
O116 O 0.2201 0.03369 0.3113 0.0
C117 C 0.30041 0.10522 0.3168 0.0
O118 O 0.31755 0.11288 0.31115 0.0
N119 N 0.24939 0.0449 0.29889 0.0
C120 C 0.23554 0.02323 0.28526 0.0
C121 C 0.21255 0.02252 0.2896 0.0
C122 C 0.21998 0.03363 0.2964 0.0
C123 C 0.2722 0.04629 0.29473 0.0
C124 C 0.26571 0.03528 0.2879 0.0
H125 H 0.20219 0.03374 0.29959 0.0
H126 H 0.29561 0.05619 0.29671 0.0
H127 H 0.21183 0.07938 0.3128 0.0
H128 H 0.25127 0.149 0.29752 0.0
H129 H 0.26671 0.96405 0.31036 0.0
H130 H 0.18898 0.01343 0.28777 0.0
H131 H 0.28428 0.03682 0.28468 0.0
C132 C 0.88592 0.1504 0.29935 0.0
C133 C 0.8687 0.11854 0.2999 0.0
N134 N 0.88203 0.10937 0.30474 0.0
N135 N 0.90996 0.16112 0.30382 0.0
C136 C 0.90682 0.13568 0.30707 0.0
H137 H 0.88142 0.16485 0.29589 0.0
Co138 Co 0.94006 0.20212 0.30526 0.0
C139 C 0.98562 0.19562 0.31381 0.0
O140 O 0.98494 0.21416 0.31858 0.0
N141 N 0.97028 0.2435 0.30667 0.0
C142 C 0.0148 0.28821 0.3064 0.0
C143 C 1.00062 0.25702 0.30498 0.0
C144 C 0.96651 0.2669 0.30906 0.0
N145 N 0.9933 0.29446 0.30897 0.0
O146 O 0.92462 0.19893 0.31445 0.0
H147 H 0.01159 0.24505 0.3027 0.0
H148 H 0.94447 0.26375 0.3108 0.0
O149 O 0.96876 0.18926 0.30839 0.0
C150 C 0.90019 0.20098 0.31485 0.0
O151 O 0.89101 0.20944 0.30927 0.0
N152 N 0.95342 0.20462 0.2961 0.0
C153 C 0.9703 0.20958 0.28216 0.0
C154 C 0.97299 0.18854 0.28655 0.0
C155 C 0.96419 0.18623 0.29351 0.0
C156 C 0.94998 0.22471 0.29189 0.0
C157 C 0.9585 0.22774 0.2849 0.0
H158 H 0.96546 0.16919 0.29675 0.0
H159 H 0.94062 0.23849 0.29399 0.0
H160 H 0.92223 0.13646 0.31113 0.0
H161 H 0.84838 0.10331 0.29686 0.0
H162 H 0.03891 0.30505 0.30543 0.0
H163 H 0.9812 0.1735 0.2846 0.0
H164 H 0.95611 0.24432 0.28169 0.0
C165 C 0.85377 0.73973 0.30285 0.0
C166 C 0.88564 0.75498 0.30342 0.0
N167 N 0.89453 0.77909 0.30782 0.0
N168 N 0.84271 0.75425 0.30684 0.0
C169 C 0.868 0.77792 0.30985 0.0
H170 H 0.83953 0.71952 0.29968 0.0
Co171 Co 0.80143 0.74294 0.30798 0.0
C172 C 0.80692 0.79588 0.31598 0.0
O173 O 0.78906 0.77715 0.3209 0.0
N174 N 0.7597 0.73129 0.30907 0.0
C175 C 0.71481 0.73064 0.30835 0.0
C176 C 0.7463 0.74821 0.30735 0.0
C177 C 0.73586 0.70345 0.31102 0.0
N178 N 0.70822 0.7024 0.31064 0.0
O179 O 0.80425 0.73269 0.31737 0.0
H180 H 0.75857 0.77162 0.30533 0.0
H181 H 0.73856 0.68392 0.31243 0.0
O182 O 0.8134 0.78487 0.31066 0.0
C183 C 0.80029 0.70574 0.31845 0.0
O184 O 0.79055 0.68568 0.3133 0.0
N185 N 0.79935 0.7519 0.29865 0.0
C186 C 0.7944 0.7607 0.28452 0.0
C187 C 0.81433 0.78572 0.28877 0.0
C188 C 0.81673 0.78078 0.29583 0.0
C189 C 0.78039 0.72717 0.29458 0.0
C190 C 0.77745 0.73106 0.28749 0.0
H191 H 0.83293 0.8001 0.29898 0.0
H192 H 0.76742 0.70431 0.29687 0.0
H193 H 0.86696 0.79381 0.31353 0.0
H194 H 0.90105 0.74915 0.30068 0.0
H195 H 0.69813 0.73816 0.30744 0.0
H196 H 0.82839 0.80881 0.28664 0.0
H197 H 0.76179 0.71114 0.28438 0.0
C198 C 0.8602 0.7359 0.79986 0.0
C199 C 0.84514 0.75277 0.80013 0.0
N200 N 0.85975 0.77572 0.80484 0.0
N201 N 0.88431 0.74836 0.80431 0.0
C202 C 0.88326 0.77234 0.80732 0.0
H203 H 0.85425 0.71607 0.79656 0.0
Co204 Co 0.91264 0.73505 0.80578 0.0
C205 C 0.96062 0.78658 0.81403 0.0
O206 O 0.95849 0.76729 0.81896 0.0
N207 N 0.94114 0.72157 0.80719 0.0
C208 C 0.98447 0.71912 0.80684 0.0
C209 C 0.97153 0.7373 0.80549 0.0
C210 C 0.93607 0.69378 0.8095 0.0
N211 N 0.96213 0.69166 0.80934 0.0
O212 O 0.89768 0.72434 0.81504 0.0
H213 H 0.98347 0.76041 0.80329 0.0
H214 H 0.91354 0.67514 0.81107 0.0
O215 O 0.94346 0.77633 0.80865 0.0
C216 C 0.8729 0.69814 0.81544 0.0
O217 O 0.86299 0.68083 0.80982 0.0
N218 N 0.92537 0.74402 0.79655 0.0
C219 C 0.94083 0.7517 0.78251 0.0
C220 C 0.94752 0.77742 0.78669 0.0
C221 C 0.93929 0.77305 0.79371 0.0
C222 C 0.91816 0.71873 0.79255 0.0
C223 C 0.92581 0.72204 0.78551 0.0
H224 H 0.9437 0.79294 0.79681 0.0
H225 H 0.90645 0.69584 0.79487 0.0
H226 H 0.89991 0.78754 0.81114 0.0
H227 H 0.82504 0.74846 0.7971 0.0
H228 H 0.00855 0.72577 0.80606 0.0
H229 H 0.95847 0.80062 0.78453 0.0
H230 H 0.92031 0.7016 0.78246 0.0
C231 C 0.25891 0.13041 0.79778 0.0
C232 C 0.24113 0.09851 0.79814 0.0
N233 N 0.21845 0.09116 0.80286 0.0
N234 N 0.24737 0.14296 0.80224 0.0
C235 C 0.223 0.11854 0.8053 0.0
H236 H 0.27875 0.14364 0.79444 0.0
Co237 Co 0.26207 0.18472 0.80388 0.0
C238 C 0.21074 0.18216 0.81207 0.0
O239 O 0.2299 0.19855 0.81709 0.0
N240 N 0.2769 0.22683 0.80552 0.0
C241 C 0.28129 0.27349 0.80552 0.0
C242 C 0.26242 0.24277 0.80386 0.0
C243 C 0.30464 0.24838 0.80811 0.0
N244 N 0.30792 0.27705 0.80819 0.0
O245 O 0.2717 0.17892 0.81315 0.0
H246 H 0.23964 0.23272 0.80152 0.0
H247 H 0.32237 0.24329 0.80976 0.0
O248 O 0.22101 0.17544 0.80667 0.0
C249 C 0.29743 0.17943 0.81371 0.0
O250 O 0.31565 0.1872 0.80823 0.0
N251 N 0.25395 0.18983 0.79466 0.0
C252 C 0.24688 0.19921 0.78066 0.0
C253 C 0.22101 0.17961 0.78475 0.0
C254 C 0.22507 0.17499 0.79174 0.0
C255 C 0.27941 0.20845 0.79075 0.0
C256 C 0.2764 0.21365 0.78374 0.0
H257 H 0.20505 0.15908 0.79476 0.0
H258 H 0.30219 0.21941 0.79312 0.0
H259 H 0.209 0.12078 0.80931 0.0
H260 H 0.24421 0.08208 0.79504 0.0
H261 H 0.27561 0.29169 0.80487 0.0
H262 H 0.19792 0.16743 0.78253 0.0
H263 H 0.29697 0.22903 0.78079 0.0
C264 C 0.86421 0.13394 0.79805 0.0
C265 C 0.8961 0.14797 0.79831 0.0
N266 N 0.90365 0.13212 0.80284 0.0
N267 N 0.85181 0.1094 0.80239 0.0
C268 C 0.87635 0.10903 0.80527 0.0
H269 H 0.85085 0.14095 0.79486 0.0
Co270 Co 0.80994 0.08257 0.804 0.0
C271 C 0.8117 0.03425 0.81248 0.0
O272 O 0.79579 0.03826 0.81742 0.0
N273 N 0.76769 0.05549 0.80559 0.0
C274 C 0.72101 0.01326 0.80543 0.0
C275 C 0.75169 0.02531 0.80372 0.0
C276 C 0.74621 0.0613 0.80839 0.0
N277 N 0.7175 0.03589 0.80838 0.0
O278 O 0.81555 0.0986 0.81322 0.0
H279 H 0.76166 0.01294 0.80117 0.0
H280 H 0.75155 0.0837 0.8104 0.0
O281 O 0.81874 0.05061 0.80696 0.0
C282 C 0.81543 0.1241 0.81348 0.0
O283 O 0.80801 0.13378 0.80782 0.0
N284 N 0.80511 0.06908 0.7948 0.0
C285 C 0.79745 0.05412 0.7807 0.0
C286 C 0.81588 0.04667 0.78491 0.0
C287 C 0.81965 0.05462 0.79195 0.0
C288 C 0.78746 0.07685 0.7908 0.0
C289 C 0.78317 0.06945 0.78374 0.0
H290 H 0.83472 0.04966 0.79506 0.0
H291 H 0.7769 0.08917 0.79311 0.0
H292 H 0.87429 0.09231 0.80914 0.0
H293 H 0.91238 0.1678 0.79527 0.0
H294 H 0.70267 0.98975 0.80442 0.0
H295 H 0.82733 0.03484 0.7828 0.0
H296 H 0.76936 0.07632 0.78067 0.0
C297 C 0.74139 0.8989 0.69182 0.0
C298 C 0.75595 0.88151 0.69194 0.0
N299 N 0.77923 0.89356 0.68725 0.0
N300 N 0.75553 0.92177 0.68709 0.0
C301 C 0.77828 0.91778 0.68437 0.0
H302 H 0.72179 0.89517 0.69496 0.0
Co303 Co 0.74466 0.95106 0.68464 0.0
C304 C 0.7987 0.99367 0.67612 0.0
O305 O 0.7806 0.99052 0.67084 0.0
N306 N 0.73348 0.98049 0.6822 0.0
C307 C 0.73344 0.02493 0.6812 0.0
C308 C 0.75079 0.01153 0.683 0.0
C309 C 0.70559 0.97553 0.67999 0.0
N310 N 0.70489 0.00225 0.67933 0.0
O311 O 0.73468 0.9331 0.6756 0.0
H312 H 0.77431 0.02366 0.68497 0.0
H313 H 0.68582 0.95267 0.67917 0.0
O314 O 0.78695 0.97923 0.68179 0.0
C315 C 0.70806 0.90893 0.67505 0.0
O316 O 0.68846 0.90145 0.68025 0.0
N317 N 0.75315 0.96681 0.69367 0.0
C318 C 0.76029 0.98417 0.70762 0.0
C319 C 0.78582 0.98836 0.70367 0.0
C320 C 0.78171 0.97924 0.69671 0.0
C321 C 0.72807 0.96256 0.69741 0.0
C322 C 0.73113 0.97119 0.7044 0.0
H323 H 0.80131 0.98125 0.69385 0.0
H324 H 0.70546 0.95193 0.69497 0.0
H325 H 0.79348 0.93198 0.68023 0.0
H326 H 0.75012 0.86185 0.69529 0.0
H327 H 0.74131 0.04951 0.68133 0.0
H328 H 0.80857 0.9976 0.70601 0.0
H329 H 0.71084 0.96761 0.70726 0.0
C330 C 0.10922 0.8469 0.69321 0.0
C331 C 0.12687 0.87878 0.69282 0.0
N332 N 0.11355 0.88879 0.68817 0.0
N333 N 0.08494 0.83701 0.68883 0.0
C334 C 0.08832 0.86298 0.68581 0.0
H335 H 0.11373 0.83184 0.69646 0.0
Co336 Co 0.05486 0.79626 0.6871 0.0
C337 C 0.00957 0.80427 0.67879 0.0
O338 O 0.01041 0.78661 0.67381 0.0
N339 N 0.02472 0.75512 0.68539 0.0
C340 C 0.98027 0.71033 0.68542 0.0
C341 C 0.99429 0.74136 0.68701 0.0
C342 C 0.02871 0.73201 0.68289 0.0
N343 N 0.00195 0.7044 0.68283 0.0
O344 O 0.0705 0.80104 0.67789 0.0
H345 H 0.98316 0.75302 0.68937 0.0
H346 H 0.0509 0.73538 0.6812 0.0
O347 O 0.02623 0.80962 0.68421 0.0
C348 C 0.09522 0.79954 0.6774 0.0
O349 O 0.10408 0.78982 0.68282 0.0
N350 N 0.04132 0.79226 0.69628 0.0
C351 C 0.02481 0.78548 0.71028 0.0
C352 C 0.02133 0.80655 0.70606 0.0
C353 C 0.03001 0.80982 0.69909 0.0
C354 C 0.04534 0.77201 0.7003 0.0
C355 C 0.03706 0.7681 0.70732 0.0
H356 H 0.0281 0.82689 0.69599 0.0
H357 H 0.05525 0.75899 0.69804 0.0
H358 H 0.07288 0.86293 0.68184 0.0
H359 H 0.14755 0.89345 0.69582 0.0
H360 H 0.95614 0.69334 0.68633 0.0
H361 H 0.01191 0.82039 0.70812 0.0
H362 H 0.04079 0.75207 0.71042 0.0
C363 C 0.15805 0.26826 0.68899 0.0
C364 C 0.12628 0.2542 0.68831 0.0
N365 N 0.11651 0.22868 0.68432 0.0
N366 N 0.16813 0.25161 0.68546 0.0
C367 C 0.14238 0.22781 0.68264 0.0
H368 H 0.17292 0.2893 0.69185 0.0
Co369 Co 0.20909 0.26164 0.68437 0.0
C370 C 0.20169 0.20659 0.67696 0.0
O371 O 0.21961 0.22413 0.67189 0.0
N372 N 0.25043 0.27221 0.68329 0.0
C373 C 0.29519 0.27271 0.68411 0.0
C374 C 0.26367 0.25527 0.68511 0.0
C375 C 0.2743 0.2999 0.6813 0.0
N376 N 0.3019 0.30089 0.68174 0.0
O377 O 0.20609 0.27002 0.67486 0.0
H378 H 0.25132 0.23202 0.68722 0.0
H379 H 0.27159 0.31938 0.67983 0.0
O380 O 0.196 0.21894 0.68214 0.0
C381 C 0.20818 0.29599 0.67349 0.0
O382 O 0.21815 0.31728 0.67838 0.0
N383 N 0.21129 0.25429 0.69381 0.0
C384 C 0.21637 0.24696 0.70802 0.0
C385 C 0.19497 0.22197 0.70395 0.0
C386 C 0.19259 0.22617 0.69686 0.0
C387 C 0.23157 0.2791 0.6977 0.0
C388 C 0.23465 0.27591 0.70483 0.0
H389 H 0.17537 0.20691 0.69385 0.0
H390 H 0.24557 0.30145 0.69525 0.0
H391 H 0.14263 0.21048 0.67928 0.0
H392 H 0.11151 0.26188 0.69066 0.0
H393 H 0.31182 0.26521 0.68512 0.0
H394 H 0.17981 0.19946 0.70625 0.0
H395 H 0.25146 0.29581 0.70778 0.0
C396 C 0.7824 0.60159 0.52636 0.0
C397 C 0.79925 0.58647 0.52643 0.0
N398 N 0.78452 0.56102 0.52238 0.0
N399 N 0.75723 0.5857 0.52229 0.0
C400 C 0.75928 0.56128 0.5199 0.0
H401 H 0.78797 0.6227 0.52912 0.0
Co402 Co 0.72717 0.59627 0.5204 0.0
C403 C 0.68107 0.54172 0.5126 0.0
O404 O 0.68203 0.55962 0.50747 0.0
N405 N 0.69686 0.60706 0.51856 0.0
C406 C 0.65223 0.60702 0.51881 0.0
C407 C 0.66681 0.59068 0.5205 0.0
C408 C 0.70002 0.63335 0.51573 0.0
N409 N 0.67312 0.63397 0.5158 0.0
O410 O 0.74201 0.60508 0.51109 0.0
H411 H 0.65634 0.5686 0.52317 0.0
H412 H 0.72175 0.65181 0.51374 0.0
O413 O 0.698 0.55369 0.51796 0.0
C414 C 0.76555 0.63192 0.51023 0.0
O415 O 0.77421 0.65198 0.51537 0.0
N416 N 0.71469 0.58906 0.52967 0.0
C417 C 0.70093 0.58391 0.5438 0.0
C418 C 0.6953 0.55773 0.53992 0.0
C419 C 0.70266 0.56084 0.53286 0.0
C420 C 0.72057 0.6148 0.53336 0.0
C421 C 0.71375 0.61275 0.54045 0.0
H422 H 0.69934 0.5407 0.53001 0.0
H423 H 0.73083 0.63709 0.53078 0.0
H424 H 0.74279 0.54419 0.51633 0.0
H425 H 0.82031 0.59335 0.52935 0.0
H426 H 0.62829 0.59987 0.51995 0.0
H427 H 0.68611 0.5352 0.54237 0.0
H428 H 0.71841 0.6335 0.54326 0.0
C429 C 0.40529 0.18088 0.52522 0.0
C430 C 0.42055 0.21287 0.52529 0.0
N431 N 0.44491 0.22348 0.52091 0.0
N432 N 0.42006 0.1715 0.52082 0.0
C433 C 0.4439 0.19791 0.51824 0.0
H434 H 0.38481 0.16541 0.52818 0.0
Co435 Co 0.40881 0.13098 0.51858 0.0
C436 C 0.46409 0.14097 0.51073 0.0
O437 O 0.44694 0.12628 0.5053 0.0
N438 N 0.39732 0.09007 0.51634 0.0
C439 C 0.39665 0.04517 0.51577 0.0
C440 C 0.41406 0.07597 0.51752 0.0
C441 C 0.36969 0.06729 0.51396 0.0
N442 N 0.36861 0.03961 0.51356 0.0
O443 O 0.40038 0.1387 0.50936 0.0
H444 H 0.43718 0.08716 0.5197 0.0
H445 H 0.35034 0.07071 0.51283 0.0
O446 O 0.45142 0.14418 0.51619 0.0
C447 C 0.3741 0.13706 0.50883 0.0
O448 O 0.35487 0.1259 0.51413 0.0
N449 N 0.41551 0.12391 0.52777 0.0
C450 C 0.41973 0.11394 0.54188 0.0
C451 C 0.44594 0.13567 0.53816 0.0
C452 C 0.44332 0.14046 0.5311 0.0
C453 C 0.38978 0.1028 0.53128 0.0
C454 C 0.39141 0.09723 0.53834 0.0
H455 H 0.46341 0.15812 0.52839 0.0
H456 H 0.36771 0.09064 0.52861 0.0
H457 H 0.45994 0.19841 0.51437 0.0
H458 H 0.4145 0.22717 0.52841 0.0
H459 H 0.40413 0.02821 0.51616 0.0
H460 H 0.46824 0.14906 0.5407 0.0
H461 H 0.37047 0.08072 0.54103 0.0
C462 C 0.81859 0.21916 0.52825 0.0
C463 C 0.7867 0.20216 0.5277 0.0
N464 N 0.77752 0.21707 0.52328 0.0
N465 N 0.82931 0.24461 0.52422 0.0
C466 C 0.80382 0.24262 0.52124 0.0
H467 H 0.8331 0.21315 0.5313 0.0
Co468 Co 0.87034 0.27377 0.5224 0.0
C469 C 0.86388 0.3222 0.5152 0.0
O470 O 0.87984 0.32062 0.50992 0.0
N471 N 0.91177 0.30313 0.52056 0.0
C472 C 0.95737 0.34667 0.52086 0.0
C473 C 0.92674 0.33285 0.52277 0.0
C474 C 0.93381 0.29937 0.51735 0.0
N475 N 0.96193 0.32561 0.51744 0.0
O476 O 0.86333 0.26041 0.51297 0.0
H477 H 0.91618 0.34361 0.52574 0.0
H478 H 0.92932 0.27771 0.51504 0.0
O479 O 0.85849 0.30464 0.52046 0.0
C480 C 0.86426 0.23567 0.51189 0.0
O481 O 0.87531 0.2256 0.51682 0.0
N482 N 0.87654 0.28472 0.53178 0.0
C483 C 0.88786 0.29761 0.54593 0.0
C484 C 0.86694 0.30389 0.54238 0.0
C485 C 0.8614 0.29704 0.5353 0.0
C486 C 0.89641 0.27784 0.53516 0.0
C487 C 0.90258 0.28428 0.54223 0.0
H488 H 0.84468 0.3013 0.53269 0.0
H489 H 0.90749 0.26722 0.53233 0.0
H490 H 0.80462 0.25904 0.51744 0.0
H491 H 0.77149 0.1806 0.53035 0.0
H492 H 0.97501 0.37018 0.52211 0.0
H493 H 0.85505 0.31415 0.54503 0.0
H494 H 0.91833 0.27836 0.54478 0.0
C495 C 0.91998 0.42619 0.63362 0.0
C496 C 0.90259 0.44061 0.63305 0.0
N497 N 0.88033 0.42897 0.63799 0.0
N498 N 0.90847 0.4053 0.63883 0.0
C499 C 0.88446 0.4076 0.6414 0.0
H500 H 0.94026 0.43125 0.63058 0.0
Co501 Co 0.9247 0.38199 0.64247 0.0
C502 C 0.87104 0.31886 0.64424 0.0
O503 O 0.88835 0.30769 0.64192 0.0
N504 N 0.9417 0.35904 0.64646 0.0
C505 C 0.94951 0.33058 0.65429 0.0
C506 C 0.93232 0.34433 0.65266 0.0
C507 C 0.96569 0.35496 0.6446 0.0
N508 N 0.97047 0.33738 0.64922 0.0
O509 O 0.92752 0.4009 0.65125 0.0
H510 H 0.91409 0.34375 0.65584 0.0
H511 H 0.97988 0.36484 0.64004 0.0
O512 O 0.88255 0.34828 0.64472 0.0
C513 C 0.95443 0.42285 0.65286 0.0
O514 O 0.97811 0.42758 0.64896 0.0
N515 N 0.92328 0.36592 0.6335 0.0
C516 C 0.92554 0.35269 0.61945 0.0
C517 C 0.89703 0.34146 0.62286 0.0
C518 C 0.89638 0.34902 0.62982 0.0
C519 C 0.95113 0.37831 0.63015 0.0
C520 C 0.95288 0.3715 0.62317 0.0
H521 H 0.87415 0.34274 0.63207 0.0
H522 H 0.97206 0.39491 0.63281 0.0
H523 H 0.87069 0.39423 0.6458 0.0
H524 H 0.90681 0.45908 0.62947 0.0
H525 H 0.9475 0.31751 0.65896 0.0
H526 H 0.87532 0.32834 0.62008 0.0
H527 H 0.97538 0.38151 0.62068 0.0
C528 C 0.55824 0.48726 0.63443 0.0
C529 C 0.54142 0.45528 0.63446 0.0
N530 N 0.55575 0.44485 0.63871 0.0
N531 N 0.58302 0.49683 0.63864 0.0
C532 C 0.58077 0.47053 0.64121 0.0
H533 H 0.55286 0.5026 0.63153 0.0
Co534 Co 0.61257 0.5376 0.6406 0.0
C535 C 0.65881 0.52869 0.64832 0.0
O536 O 0.65815 0.54519 0.65359 0.0
N537 N 0.64208 0.57872 0.64254 0.0
C538 C 0.68563 0.62435 0.64263 0.0
C539 C 0.6726 0.59345 0.64098 0.0
C540 C 0.63704 0.60112 0.64508 0.0
N541 N 0.66321 0.62923 0.6452 0.0
O542 O 0.59776 0.5311 0.64991 0.0
H543 H 0.68442 0.5826 0.63856 0.0
H544 H 0.61447 0.5969 0.6467 0.0
O545 O 0.64202 0.52461 0.64299 0.0
C546 C 0.5731 0.53245 0.65073 0.0
O547 O 0.56313 0.54211 0.64549 0.0
N548 N 0.62529 0.54343 0.63134 0.0
C549 C 0.6388 0.55194 0.61718 0.0
C550 C 0.64453 0.53147 0.62107 0.0
C551 C 0.63733 0.5273 0.62814 0.0
C552 C 0.61942 0.56332 0.62766 0.0
C553 C 0.62615 0.56807 0.62057 0.0
H554 H 0.64077 0.51054 0.63097 0.0
H555 H 0.609 0.5752 0.63024 0.0
H556 H 0.59688 0.47018 0.64494 0.0
H557 H 0.52059 0.44087 0.63148 0.0
H558 H 0.70955 0.64199 0.64176 0.0
H559 H 0.65437 0.51862 0.61868 0.0
H560 H 0.62072 0.58359 0.61775 0.0
C561 C 0.50551 0.06632 0.63169 0.0
C562 C 0.53738 0.07993 0.63176 0.0
N563 N 0.54865 0.10202 0.63673 0.0
N564 N 0.49688 0.08003 0.63654 0.0
C565 C 0.52356 0.10146 0.63956 0.0
H566 H 0.48961 0.04754 0.62835 0.0
Co567 Co 0.45685 0.06992 0.63891 0.0
C568 C 0.46875 0.12526 0.64695 0.0
O569 O 0.45337 0.10793 0.6523 0.0
N570 N 0.41646 0.05937 0.64128 0.0
C571 C 0.37182 0.05904 0.64213 0.0
C572 C 0.40252 0.07637 0.64028 0.0
C573 C 0.39378 0.03175 0.64366 0.0
N574 N 0.36625 0.03085 0.64423 0.0
O575 O 0.46471 0.06111 0.64807 0.0
H576 H 0.41375 0.09961 0.63816 0.0
H577 H 0.39717 0.01227 0.64467 0.0
O578 O 0.47146 0.11267 0.64142 0.0
C579 C 0.46401 0.03531 0.64867 0.0
O580 O 0.45274 0.01549 0.64348 0.0
N581 N 0.44972 0.07736 0.62977 0.0
C582 C 0.4408 0.0829 0.61566 0.0
C583 C 0.46282 0.10855 0.61947 0.0
C584 C 0.46708 0.10527 0.62653 0.0
C585 C 0.42809 0.0522 0.62618 0.0
C586 C 0.42304 0.05451 0.61911 0.0
H587 H 0.48512 0.12489 0.62929 0.0
H588 H 0.41523 0.03002 0.62877 0.0
H589 H 0.52453 0.1165 0.64373 0.0
H590 H 0.55108 0.07374 0.62846 0.0
H591 H 0.35493 0.06665 0.6419 0.0
H592 H 0.47698 0.13089 0.61701 0.0
H593 H 0.40621 0.03399 0.61634 0.0
C594 C 0.53655 0.07025 0.13229 0.0
C595 C 0.52154 0.08716 0.1327 0.0
N596 N 0.53617 0.10969 0.1375 0.0
N597 N 0.56052 0.08219 0.13679 0.0
C598 C 0.55951 0.10591 0.13993 0.0
H599 H 0.53064 0.05074 0.12889 0.0
Co600 Co 0.58845 0.06857 0.1384 0.0
C601 C 0.63617 0.11989 0.14672 0.0
O602 O 0.63308 0.10046 0.1517 0.0
N603 N 0.61668 0.05482 0.14002 0.0
C604 C 0.65968 0.05177 0.13979 0.0
C605 C 0.64681 0.06969 0.1381 0.0
C606 C 0.61175 0.02788 0.14284 0.0
N607 N 0.63763 0.02539 0.14279 0.0
O608 O 0.57293 0.05837 0.14764 0.0
H609 H 0.65855 0.09196 0.13551 0.0
H610 H 0.58958 0.01046 0.14488 0.0
O611 O 0.61955 0.10987 0.14125 0.0
C612 C 0.54807 0.03231 0.14819 0.0
O613 O 0.53817 0.01384 0.14275 0.0
N614 N 0.60177 0.07737 0.12918 0.0
C615 C 0.61941 0.08643 0.11526 0.0
C616 C 0.62302 0.11131 0.11938 0.0
C617 C 0.61389 0.10626 0.12634 0.0
C618 C 0.59716 0.05273 0.12522 0.0
C619 C 0.60614 0.05679 0.11825 0.0
H620 H 0.61621 0.12551 0.1294 0.0
H621 H 0.58658 0.02981 0.12751 0.0
H622 H 0.57542 0.11998 0.14398 0.0
H623 H 0.50187 0.08358 0.1296 0.0
H624 H 0.68333 0.05759 0.13873 0.0
H625 H 0.63307 0.13454 0.11726 0.0
H626 H 0.60235 0.03686 0.11521 0.0
C627 C 0.93157 0.46697 0.13236 0.0
C628 C 0.91403 0.43505 0.1325 0.0
N629 N 0.89218 0.42681 0.13748 0.0
N630 N 0.92063 0.47871 0.13717 0.0
C631 C 0.89688 0.45376 0.14025 0.0
H632 H 0.95087 0.48079 0.12892 0.0
Co633 Co 0.93551 0.52037 0.13901 0.0
C634 C 0.88594 0.51794 0.14789 0.0
O635 O 0.90606 0.53489 0.1527 0.0
N636 N 0.95067 0.56242 0.14081 0.0
C637 C 0.95587 0.60939 0.14093 0.0
C638 C 0.93655 0.57878 0.13925 0.0
C639 C 0.97856 0.58358 0.14341 0.0
N640 N 0.98241 0.6125 0.14357 0.0
O641 O 0.94729 0.51436 0.14804 0.0
H642 H 0.91384 0.56914 0.13689 0.0
H643 H 0.99571 0.5778 0.14513 0.0
O644 O 0.89517 0.51088 0.14236 0.0
C645 C 0.97292 0.51447 0.14809 0.0
O646 O 0.98931 0.52183 0.14232 0.0
N647 N 0.92517 0.52564 0.12999 0.0
C648 C 0.91427 0.53484 0.11622 0.0
C649 C 0.88962 0.51503 0.12058 0.0
C650 C 0.89559 0.51051 0.12744 0.0
C651 C 0.9495 0.54443 0.1258 0.0
C652 C 0.94456 0.54954 0.11891 0.0
H653 H 0.87644 0.49452 0.13066 0.0
H654 H 0.97288 0.55547 0.12785 0.0
H655 H 0.88284 0.45533 0.14435 0.0
H656 H 0.9172 0.41921 0.12921 0.0
H657 H 0.95083 0.62792 0.14011 0.0
H658 H 0.86588 0.5032 0.11873 0.0
H659 H 0.96434 0.56445 0.11568 0.0
C660 C 0.53931 0.4682 0.13439 0.0
C661 C 0.57116 0.48312 0.13498 0.0
N662 N 0.57857 0.46684 0.13942 0.0
N663 N 0.52678 0.44266 0.13843 0.0
C664 C 0.55119 0.4426 0.14147 0.0
H665 H 0.52609 0.4752 0.13115 0.0
Co666 Co 0.48487 0.41419 0.13939 0.0
C667 C 0.48628 0.36553 0.14781 0.0
O668 O 0.46827 0.36764 0.15251 0.0
N669 N 0.44257 0.38546 0.1403 0.0
C670 C 0.39716 0.34195 0.13933 0.0
C671 C 0.42859 0.35534 0.13837 0.0
C672 C 0.41913 0.38989 0.14237 0.0
N673 N 0.39117 0.36371 0.14182 0.0
O674 O 0.48696 0.42833 0.14868 0.0
H675 H 0.44047 0.34391 0.13629 0.0
H676 H 0.42238 0.41205 0.14405 0.0
O677 O 0.49451 0.38302 0.14247 0.0
C678 C 0.4852 0.45291 0.14911 0.0
O679 O 0.47829 0.46315 0.14347 0.0
N680 N 0.4834 0.40231 0.13015 0.0
C681 C 0.47831 0.38688 0.11611 0.0
C682 C 0.49701 0.38076 0.12056 0.0
C683 C 0.49947 0.38892 0.12757 0.0
C684 C 0.46587 0.40927 0.1259 0.0
C685 C 0.46286 0.4016 0.11886 0.0
H686 H 0.51444 0.38464 0.13089 0.0
H687 H 0.45408 0.42075 0.128 0.0
H688 H 0.54896 0.42516 0.14515 0.0
H689 H 0.58756 0.50381 0.1322 0.0
H690 H 0.3801 0.31795 0.1383 0.0
H691 H 0.50937 0.36947 0.11866 0.0
H692 H 0.44881 0.40745 0.11558 0.0
C693 C 0.40915 0.20551 0.02799 0.0
C694 C 0.42617 0.19061 0.02763 0.0
N695 N 0.44863 0.2051 0.02282 0.0
N696 N 0.4209 0.22924 0.02343 0.0
C697 C 0.4447 0.22824 0.02032 0.0
H698 H 0.38964 0.19965 0.03138 0.0
Co699 Co 0.40661 0.25662 0.02181 0.0
C700 C 0.4559 0.30313 0.01278 0.0
O701 O 0.43553 0.29959 0.00799 0.0
N702 N 0.39206 0.28419 0.0202 0.0
C703 C 0.38871 0.32703 0.01983 0.0
C704 C 0.4074 0.31497 0.0215 0.0
C705 C 0.36399 0.27801 0.01783 0.0
N706 N 0.36132 0.30373 0.01752 0.0
O707 O 0.39405 0.23916 0.01277 0.0
H708 H 0.43073 0.32787 0.02355 0.0
H709 H 0.34568 0.255 0.01648 0.0
O710 O 0.44694 0.28718 0.01835 0.0
C711 C 0.36762 0.21458 0.01259 0.0
O712 O 0.35067 0.20575 0.01827 0.0
N713 N 0.41778 0.27192 0.03083 0.0
C714 C 0.42997 0.29136 0.04461 0.0
C715 C 0.45414 0.29593 0.04013 0.0
C716 C 0.44752 0.28575 0.03326 0.0
C717 C 0.3939 0.26674 0.03513 0.0
C718 C 0.39949 0.27642 0.04205 0.0
H719 H 0.46625 0.28846 0.02996 0.0
H720 H 0.37038 0.25501 0.03315 0.0
H721 H 0.45872 0.244 0.01624 0.0
H722 H 0.42271 0.17111 0.03079 0.0
H723 H 0.39512 0.35121 0.02018 0.0
H724 H 0.47789 0.30666 0.04197 0.0
H725 H 0.38018 0.27248 0.04534 0.0
C726 C 0.80364 0.20299 0.02667 0.0
C727 C 0.81815 0.23491 0.02634 0.0
N728 N 0.80244 0.24265 0.02181 0.0
N729 N 0.77892 0.19078 0.02238 0.0
C730 C 0.77897 0.21544 0.01945 0.0
H731 H 0.81031 0.1895 0.02991 0.0
Co732 Co 0.75103 0.14901 0.02098 0.0
C733 C 0.7023 0.15115 0.01273 0.0
O734 O 0.70453 0.13382 0.00786 0.0
N735 N 0.72287 0.10683 0.01959 0.0
C736 C 0.68012 0.06063 0.02012 0.0
C737 C 0.69288 0.0916 0.02162 0.0
C738 C 0.72782 0.08462 0.0169 0.0
N739 N 0.7021 0.05615 0.01713 0.0
O740 O 0.76607 0.15328 0.01171 0.0
H741 H 0.68117 0.10228 0.02416 0.0
H742 H 0.74992 0.0893 0.01483 0.0
O743 O 0.71971 0.1587 0.01808 0.0
C744 C 0.79102 0.15217 0.01129 0.0
O745 O 0.8011 0.14489 0.0169 0.0
N746 N 0.7382 0.14542 0.03021 0.0
C747 C 0.72075 0.13735 0.04414 0.0
C748 C 0.71647 0.15799 0.03994 0.0
C749 C 0.72552 0.16183 0.03298 0.0
C750 C 0.74357 0.12613 0.03426 0.0
C751 C 0.73471 0.12149 0.04123 0.0
H752 H 0.72254 0.17815 0.02984 0.0
H753 H 0.75456 0.11408 0.03202 0.0
H754 H 0.76216 0.2135 0.01562 0.0
H755 H 0.83813 0.25108 0.02936 0.0
H756 H 0.65661 0.04281 0.02131 0.0
H757 H 0.70588 0.17076 0.042 0.0
H758 H 0.73904 0.10587 0.04433 0.0
C759 C 0.80134 0.59956 0.02691 0.0
C760 C 0.76948 0.58281 0.0263 0.0
N761 N 0.76203 0.55988 0.02163 0.0
N762 N 0.81381 0.58715 0.02267 0.0
C763 C 0.78936 0.56324 0.01948 0.0
H764 H 0.81461 0.6193 0.03027 0.0
Co765 Co 0.85564 0.60074 0.02149 0.0
C766 C 0.85346 0.55013 0.01312 0.0
O767 O 0.87125 0.56996 0.00834 0.0
N768 N 0.89783 0.61448 0.02034 0.0
C769 C 0.94366 0.61712 0.02097 0.0
C770 C 0.91245 0.59893 0.02222 0.0
C771 C 0.92065 0.64216 0.01799 0.0
N772 N 0.94884 0.64437 0.01832 0.0
O773 O 0.8525 0.61215 0.01221 0.0
H774 H 0.90115 0.57588 0.02445 0.0
H775 H 0.91679 0.6606 0.01625 0.0
O776 O 0.84577 0.55976 0.01848 0.0
C777 C 0.85358 0.63819 0.0118 0.0
O778 O 0.86051 0.65538 0.01743 0.0
N779 N 0.85817 0.59092 0.03072 0.0
C780 C 0.86443 0.58133 0.04474 0.0
C781 C 0.84533 0.55628 0.04039 0.0
C782 C 0.84225 0.5616 0.03339 0.0
C783 C 0.87616 0.61563 0.03489 0.0
C784 C 0.87977 0.61135 0.04192 0.0
H785 H 0.82679 0.54221 0.03016 0.0
H786 H 0.88796 0.63877 0.03271 0.0
H787 H 0.79156 0.54871 0.0156 0.0
H788 H 0.75312 0.58677 0.02919 0.0
H789 H 0.96111 0.61061 0.02188 0.0
H790 H 0.83251 0.53284 0.04241 0.0
H791 H 0.89478 0.63131 0.04509 0.0
C792 C 0.47206 0.93892 0.85733 0.0
C793 C 0.48631 0.92143 0.85661 0.0
N794 N 0.46556 0.89348 0.85395 0.0
N795 N 0.44249 0.9222 0.85514 0.0
C796 C 0.43924 0.89474 0.85311 0.0
H797 H 0.48258 0.96239 0.8593 0.0
Co798 Co 0.41397 0.93591 0.8549 0.0
C799 C 0.36164 0.88744 0.84696 0.0
O800 O 0.36139 0.90854 0.84289 0.0
N801 N 0.38513 0.9499 0.85473 0.0
C802 C 0.34229 0.95223 0.85666 0.0
C803 C 0.35693 0.93548 0.85779 0.0
C804 C 0.387 0.97543 0.85176 0.0
N805 N 0.36115 0.97741 0.85283 0.0
O806 O 0.42621 0.94881 0.84555 0.0
H807 H 0.34744 0.91393 0.86066 0.0
H808 H 0.40667 0.99193 0.84875 0.0
O809 O 0.38169 0.89558 0.85181 0.0
C810 C 0.44971 0.97596 0.84505 0.0
O811 O 0.45951 0.99334 0.85066 0.0
N812 N 0.40438 0.9246 0.86419 0.0
C813 C 0.392 0.91315 0.87834 0.0
C814 C 0.38375 0.88857 0.87366 0.0
C815 C 0.39038 0.8948 0.86659 0.0
C816 C 0.41363 0.94884 0.86867 0.0
C817 C 0.40751 0.94365 0.87577 0.0
H818 H 0.38414 0.87562 0.86308 0.0
H819 H 0.42551 0.97234 0.86669 0.0
H820 H 0.41781 0.87588 0.85112 0.0
H821 H 0.5102 0.929 0.85791 0.0
H822 H 0.31951 0.94622 0.85857 0.0
H823 H 0.37175 0.86468 0.87541 0.0
H824 H 0.41496 0.96335 0.87922 0.0
C825 C 0.06466 0.53665 0.85963 0.0
C826 C 0.08111 0.56858 0.85933 0.0
N827 N 0.10658 0.57745 0.85536 0.0
N828 N 0.07958 0.52534 0.85587 0.0
C829 C 0.10485 0.55061 0.85331 0.0
H830 H 0.04318 0.52253 0.86241 0.0
Co831 Co 0.06644 0.48356 0.85457 0.0
C832 C 0.11489 0.48604 0.84533 0.0
O833 O 0.09398 0.4679 0.84076 0.0
N834 N 0.05306 0.44142 0.8533 0.0
C835 C 0.05165 0.39609 0.85342 0.0
C836 C 0.06949 0.42725 0.85478 0.0
C837 C 0.02519 0.41834 0.85111 0.0
N838 N 0.02371 0.39043 0.85112 0.0
O839 O 0.05206 0.48624 0.84557 0.0
H840 H 0.093 0.43887 0.85675 0.0
H841 H 0.00617 0.42182 0.84967 0.0
O842 O 0.1065 0.49387 0.85087 0.0
C843 C 0.02557 0.4843 0.8456 0.0
O844 O 0.00972 0.47676 0.85144 0.0
N845 N 0.07943 0.4816 0.86356 0.0
C846 C 0.09474 0.47678 0.87725 0.0
C847 C 0.11755 0.49718 0.87259 0.0
C848 C 0.10939 0.49936 0.86576 0.0
C849 C 0.05678 0.46234 0.86805 0.0
C850 C 0.06398 0.45931 0.87491 0.0
H851 H 0.12712 0.51559 0.86228 0.0
H852 H 0.03299 0.44916 0.86628 0.0
H853 H 0.12186 0.54926 0.85008 0.0
H854 H 0.07453 0.58385 0.86186 0.0
H855 H 0.05895 0.37905 0.85399 0.0
H856 H 0.14155 0.51114 0.87419 0.0
H857 H 0.04557 0.4438 0.87839 0.0
C858 C 0.45805 0.5318 0.86056 0.0
C859 C 0.4262 0.51661 0.85989 0.0
N860 N 0.41893 0.53146 0.85503 0.0
N861 N 0.47067 0.55611 0.85616 0.0
C862 C 0.44634 0.55506 0.85281 0.0
H863 H 0.47119 0.52595 0.86412 0.0
Co864 Co 0.51241 0.58494 0.85508 0.0
C865 C 0.51006 0.63211 0.84627 0.0
O866 O 0.52901 0.63054 0.84174 0.0
N867 N 0.55455 0.61409 0.85404 0.0
C868 C 0.59968 0.65812 0.85462 0.0
C869 C 0.5683 0.64449 0.8557 0.0
C870 C 0.5781 0.60972 0.85203 0.0
N871 N 0.60589 0.63622 0.85232 0.0
O872 O 0.51039 0.56937 0.84595 0.0
H873 H 0.55627 0.65599 0.85766 0.0
H874 H 0.57504 0.58742 0.85054 0.0
O875 O 0.50187 0.61503 0.85168 0.0
C876 C 0.51307 0.54525 0.84587 0.0
O877 O 0.52053 0.5367 0.85169 0.0
N878 N 0.51384 0.59825 0.86419 0.0
C879 C 0.51911 0.61615 0.87805 0.0
C880 C 0.49914 0.62005 0.87355 0.0
C881 C 0.49672 0.61079 0.86661 0.0
C882 C 0.53248 0.59326 0.86854 0.0
C883 C 0.5357 0.60231 0.87549 0.0
H884 H 0.48094 0.61353 0.86322 0.0
H885 H 0.54509 0.58236 0.86658 0.0
H886 H 0.44867 0.57134 0.8488 0.0
H887 H 0.40971 0.49684 0.86291 0.0
H888 H 0.61651 0.68238 0.85541 0.0
H889 H 0.48583 0.6305 0.87534 0.0
H890 H 0.55081 0.59823 0.87884 0.0
C891 C 0.59905 0.79664 0.96679 0.0
C892 C 0.58287 0.81232 0.96742 0.0
N893 N 0.56058 0.7978 0.97227 0.0
N894 N 0.5869 0.77236 0.9712 0.0
C895 C 0.56378 0.77386 0.97451 0.0
H896 H 0.61813 0.80224 0.96328 0.0
Co897 Co 0.59967 0.7435 0.97238 0.0
C898 C 0.55004 0.69704 0.98133 0.0
O899 O 0.57042 0.69944 0.986 0.0
N900 N 0.61265 0.71441 0.97355 0.0
C901 C 0.61389 0.67042 0.97322 0.0
C902 C 0.59597 0.68383 0.97206 0.0
C903 C 0.64072 0.7191 0.97552 0.0
N904 N 0.64211 0.69265 0.97538 0.0
O905 O 0.61328 0.75957 0.98148 0.0
H906 H 0.57233 0.67204 0.97017 0.0
H907 H 0.66002 0.74159 0.97687 0.0
O908 O 0.5591 0.71359 0.97585 0.0
C909 C 0.64023 0.78346 0.98169 0.0
O910 O 0.65707 0.79201 0.97599 0.0
N911 N 0.58745 0.72958 0.9633 0.0
C912 C 0.57336 0.71146 0.94948 0.0
C913 C 0.5502 0.70867 0.95407 0.0
C914 C 0.55777 0.71804 0.96097 0.0
C915 C 0.61043 0.73326 0.95888 0.0
C916 C 0.60384 0.72405 0.95195 0.0
H917 H 0.53983 0.71642 0.9644 0.0
H918 H 0.63402 0.74339 0.96077 0.0
H919 H 0.54963 0.75778 0.97853 0.0
H920 H 0.58669 0.8323 0.96441 0.0
H921 H 0.60651 0.6461 0.97256 0.0
H922 H 0.5264 0.69914 0.95236 0.0
H923 H 0.62252 0.72723 0.94853 0.0
C924 C 0.20782 0.79833 0.96653 0.0
C925 C 0.19266 0.76643 0.967 0.0
N926 N 0.20717 0.75861 0.97184 0.0
N927 N 0.23176 0.81045 0.97103 0.0
C928 C 0.23062 0.78576 0.97423 0.0
H929 H 0.20206 0.81186 0.96307 0.0
Co930 Co 0.25963 0.85221 0.97242 0.0
C931 C 0.30642 0.85039 0.98148 0.0
O932 O 0.30361 0.86835 0.98609 0.0
N933 N 0.28772 0.8944 0.97378 0.0
C934 C 0.33079 0.94044 0.9736 0.0
C935 C 0.31808 0.9095 0.97206 0.0
C936 C 0.28247 0.91666 0.97633 0.0
N937 N 0.30837 0.94499 0.9763 0.0
O938 O 0.24258 0.84868 0.98146 0.0
H939 H 0.33017 0.89871 0.96975 0.0
H940 H 0.26011 0.91211 0.9782 0.0
O941 O 0.28994 0.84242 0.97598 0.0
C942 C 0.21756 0.84974 0.98148 0.0
O943 O 0.20854 0.8566 0.97565 0.0
N944 N 0.27452 0.855 0.96339 0.0
C945 C 0.29448 0.86117 0.94966 0.0
C946 C 0.29821 0.84136 0.95424 0.0
C947 C 0.28781 0.83838 0.96109 0.0
C948 C 0.26991 0.87371 0.95897 0.0
C949 C 0.27993 0.87733 0.95208 0.0
H950 H 0.29005 0.82236 0.96449 0.0
H951 H 0.25861 0.88608 0.96084 0.0
H952 H 0.24656 0.78765 0.97828 0.0
H953 H 0.173 0.75029 0.9639 0.0
H954 H 0.35462 0.95821 0.97268 0.0
H955 H 0.3086 0.82787 0.95253 0.0
H956 H 0.27665 0.89291 0.94872 0.0
C957 C 0.20481 0.40326 0.96564 0.0
C958 C 0.23667 0.41983 0.96629 0.0
N959 N 0.2441 0.44187 0.97118 0.0
N960 N 0.19234 0.41491 0.9701 0.0
C961 C 0.21677 0.43812 0.97344 0.0
H962 H 0.19156 0.38429 0.96209 0.0
Co963 Co 0.15057 0.40172 0.97125 0.0
C964 C 0.1531 0.45073 0.9803 0.0
O965 O 0.13494 0.43005 0.98489 0.0
N966 N 0.10841 0.38844 0.97239 0.0
C967 C 0.06311 0.38705 0.97197 0.0
C968 C 0.09441 0.4049 0.97078 0.0
C969 C 0.08511 0.36057 0.97451 0.0
N970 N 0.05724 0.3591 0.97431 0.0
O971 O 0.15289 0.38779 0.98033 0.0
H972 H 0.10622 0.42839 0.96879 0.0
H973 H 0.08839 0.34148 0.97602 0.0
O974 O 0.16087 0.44205 0.97479 0.0
C975 C 0.15068 0.36118 0.98035 0.0
O976 O 0.14324 0.34528 0.97451 0.0
N977 N 0.14894 0.41417 0.96219 0.0
C978 C 0.14465 0.42844 0.94839 0.0
C979 C 0.16498 0.45159 0.95299 0.0
C980 C 0.16689 0.44394 0.95989 0.0
C981 C 0.12979 0.39119 0.95774 0.0
C982 C 0.12702 0.39788 0.95083 0.0
H983 H 0.18308 0.46188 0.96334 0.0
H984 H 0.1165 0.36755 0.9596 0.0
H985 H 0.21457 0.452 0.97749 0.0
H986 H 0.25306 0.41647 0.96325 0.0
H987 H 0.04609 0.39428 0.97124 0.0
H988 H 0.17907 0.47544 0.9513 0.0
H989 H 0.11156 0.37923 0.9474 0.0
C990 C 0.22282 0.40508 0.46628 0.0
C991 C 0.20526 0.41943 0.46639 0.0
N992 N 0.21707 0.44194 0.47127 0.0
N993 N 0.24573 0.41868 0.47101 0.0
C994 C 0.2415 0.44083 0.474 0.0
H995 H 0.21914 0.38592 0.46298 0.0
Co996 Co 0.2754 0.40784 0.47314 0.0
C997 C 0.31919 0.46195 0.48148 0.0
O998 O 0.31629 0.44382 0.48674 0.0
N999 N 0.30512 0.39664 0.47525 0.0
C1000 C 0.34968 0.39663 0.4758 0.0
C1001 C 0.33603 0.41398 0.47423 0.0
C1002 C 0.30048 0.36873 0.47735 0.0
N1003 N 0.32729 0.36804 0.47773 0.0
O1004 O 0.25892 0.3981 0.4823 0.0
H1005 H 0.34786 0.43751 0.47227 0.0
H1006 H 0.27774 0.34897 0.47831 0.0
O1007 O 0.30409 0.45024 0.47587 0.0
C1008 C 0.23443 0.37181 0.48298 0.0
O1009 O 0.22572 0.3521 0.47777 0.0
N1010 N 0.28974 0.41611 0.464 0.0
C1011 C 0.30557 0.42312 0.44994 0.0
C1012 C 0.31005 0.44865 0.45394 0.0
C1013 C 0.30169 0.4446 0.46095 0.0
C1014 C 0.28513 0.39101 0.46021 0.0
C1015 C 0.29302 0.394 0.45318 0.0
H1016 H 0.30409 0.46424 0.46386 0.0
H1017 H 0.27473 0.36841 0.46266 0.0
H1018 H 0.25628 0.45605 0.47807 0.0
H1019 H 0.18516 0.41348 0.46319 0.0
H1020 H 0.37423 0.40455 0.47548 0.0
H1021 H 0.31974 0.47156 0.45168 0.0
H1022 H 0.28851 0.37352 0.45027 0.0
C1023 C 0.59632 0.82045 0.46811 0.0
C1024 C 0.58149 0.78849 0.46823 0.0
N1025 N 0.55817 0.7781 0.4729 0.0
N1026 N 0.58217 0.83004 0.47263 0.0
C1027 C 0.55925 0.80381 0.4755 0.0
H1028 H 0.61608 0.83574 0.46493 0.0
Co1029 Co 0.59271 0.8706 0.4746 0.0
C1030 C 0.53699 0.86171 0.48196 0.0
O1031 O 0.554 0.87813 0.48726 0.0
N1032 N 0.60347 0.91159 0.47657 0.0
C1033 C 0.60386 0.9564 0.47643 0.0
C1034 C 0.58752 0.92565 0.47459 0.0
C1035 C 0.62951 0.9343 0.47957 0.0
N1036 N 0.63039 0.96195 0.47958 0.0
O1037 O 0.60003 0.86368 0.48397 0.0
H1038 H 0.56576 0.91445 0.47178 0.0
H1039 H 0.64763 0.93064 0.48163 0.0
O1040 O 0.54984 0.85713 0.47672 0.0
C1041 C 0.62628 0.8658 0.48499 0.0
O1042 O 0.64723 0.87758 0.48004 0.0
N1043 N 0.58683 0.87672 0.46528 0.0
C1044 C 0.58329 0.88619 0.4511 0.0
C1045 C 0.55676 0.86511 0.45483 0.0
C1046 C 0.55907 0.86047 0.46191 0.0
C1047 C 0.6129 0.8971 0.46176 0.0
C1048 C 0.61165 0.90232 0.45466 0.0
H1049 H 0.53865 0.84334 0.46462 0.0
H1050 H 0.63488 0.90908 0.46447 0.0
H1051 H 0.54336 0.80358 0.47937 0.0
H1052 H 0.58758 0.77409 0.46516 0.0
H1053 H 0.59709 0.97348 0.4753 0.0
H1054 H 0.53437 0.85223 0.45231 0.0
H1055 H 0.63283 0.91831 0.45197 0.0
C1056 C 0.17919 0.77479 0.46464 0.0
C1057 C 0.21118 0.79146 0.4648 0.0
N1058 N 0.22104 0.77844 0.46957 0.0
N1059 N 0.16909 0.75144 0.46929 0.0
C1060 C 0.19505 0.75436 0.47222 0.0
H1061 H 0.16422 0.77953 0.46142 0.0
Co1062 Co 0.12834 0.7234 0.47163 0.0
C1063 C 0.13616 0.67771 0.47978 0.0
O1064 O 0.12115 0.68099 0.48503 0.0
N1065 N 0.08723 0.69526 0.47397 0.0
C1066 C 0.04118 0.65235 0.47455 0.0
C1067 C 0.07166 0.66453 0.47262 0.0
C1068 C 0.06574 0.70127 0.47667 0.0
N1069 N 0.03739 0.6755 0.47709 0.0
O1070 O 0.13681 0.74044 0.48077 0.0
H1071 H 0.08162 0.65194 0.47017 0.0
H1072 H 0.07074 0.72421 0.4782 0.0
O1073 O 0.14033 0.69328 0.47422 0.0
C1074 C 0.13644 0.76579 0.48116 0.0
O1075 O 0.12609 0.77429 0.47579 0.0
N1076 N 0.12053 0.70878 0.46251 0.0
C1077 C 0.10841 0.69241 0.44854 0.0
C1078 C 0.1294 0.68686 0.45227 0.0
C1079 C 0.13532 0.69542 0.45926 0.0
C1080 C 0.1003 0.7146 0.45897 0.0
C1081 C 0.0937 0.70639 0.45198 0.0
H1082 H 0.15231 0.69196 0.462 0.0
H1083 H 0.08953 0.72608 0.46157 0.0
H1084 H 0.19488 0.73967 0.47639 0.0
H1085 H 0.22599 0.81142 0.46162 0.0
H1086 H 0.02304 0.62846 0.47388 0.0
H1087 H 0.14128 0.67613 0.44981 0.0
H1088 H 0.07789 0.71175 0.44927 0.0
C1089 C 0.07738 0.56417 0.35969 0.0
C1090 C 0.09493 0.54988 0.36015 0.0
N1091 N 0.11881 0.56387 0.35565 0.0
N1092 N 0.09028 0.58712 0.35494 0.0
C1093 C 0.11536 0.58631 0.35256 0.0
H1094 H 0.05618 0.55777 0.36249 0.0
Co1095 Co 0.07406 0.61098 0.35167 0.0
C1096 C 0.12787 0.6743 0.35016 0.0
O1097 O 0.11088 0.6854 0.35272 0.0
N1098 N 0.05687 0.63444 0.34807 0.0
C1099 C 0.0475 0.66292 0.34057 0.0
C1100 C 0.06605 0.6505 0.34203 0.0
C1101 C 0.03176 0.63645 0.35001 0.0
N1102 N 0.02591 0.65396 0.34559 0.0
O1103 O 0.0709 0.59343 0.34271 0.0
H1104 H 0.0847 0.65246 0.33879 0.0
H1105 H 0.01721 0.62466 0.35441 0.0
O1106 O 0.11611 0.64492 0.34947 0.0
C1107 C 0.04383 0.57225 0.34097 0.0
O1108 O 0.02023 0.56711 0.34495 0.0
N1109 N 0.07586 0.62574 0.36079 0.0
C1110 C 0.07422 0.63758 0.37495 0.0
C1111 C 0.10258 0.64913 0.37145 0.0
C1112 C 0.10292 0.64225 0.36443 0.0
C1113 C 0.04818 0.61288 0.36421 0.0
C1114 C 0.04673 0.61902 0.37125 0.0
H1115 H 0.12505 0.6488 0.36209 0.0
H1116 H 0.02716 0.59638 0.36157 0.0
H1117 H 0.12998 0.60092 0.34839 0.0
H1118 H 0.09029 0.53054 0.3635 0.0
H1119 H 0.0488 0.67617 0.33599 0.0
H1120 H 0.12442 0.66203 0.3742 0.0
H1121 H 0.02434 0.60874 0.3738 0.0
C1122 C 0.4539 0.52372 0.35944 0.0
C1123 C 0.47035 0.55571 0.35932 0.0
N1124 N 0.45578 0.56556 0.35498 0.0
N1125 N 0.42912 0.51357 0.35521 0.0
C1126 C 0.43102 0.53953 0.35253 0.0
H1127 H 0.4595 0.50878 0.36244 0.0
Co1128 Co 0.39969 0.47259 0.35339 0.0
C1129 C 0.35315 0.48071 0.3456 0.0
O1130 O 0.354 0.4641 0.34038 0.0
N1131 N 0.37021 0.43127 0.3516 0.0
C1132 C 0.32635 0.3859 0.35157 0.0
C1133 C 0.33962 0.41695 0.35309 0.0
C1134 C 0.37506 0.40846 0.34926 0.0
N1135 N 0.3487 0.38052 0.34918 0.0
O1136 O 0.41423 0.47842 0.34407 0.0
H1137 H 0.32782 0.42821 0.35531 0.0
H1138 H 0.3977 0.41206 0.34789 0.0
O1139 O 0.37 0.4852 0.35094 0.0
C1140 C 0.43872 0.47675 0.34326 0.0
O1141 O 0.44882 0.46749 0.34855 0.0
N1142 N 0.38721 0.4673 0.36267 0.0
C1143 C 0.37315 0.45849 0.37679 0.0
C1144 C 0.36704 0.47863 0.37287 0.0
C1145 C 0.37454 0.48298 0.36581 0.0
C1146 C 0.3936 0.44789 0.36639 0.0
C1147 C 0.38665 0.44303 0.37346 0.0
H1148 H 0.3708 0.49948 0.36295 0.0
H1149 H 0.40434 0.43626 0.36384 0.0
H1150 H 0.41479 0.53938 0.34876 0.0
H1151 H 0.49103 0.57052 0.3623 0.0
H1152 H 0.30211 0.36866 0.35221 0.0
H1153 H 0.35731 0.49155 0.37528 0.0
H1154 H 0.39169 0.42726 0.3763 0.0
C1155 C 0.49005 0.93637 0.36162 0.0
C1156 C 0.45807 0.92036 0.36167 0.0
N1157 N 0.44806 0.8977 0.35684 0.0
N1158 N 0.50005 0.92366 0.35682 0.0
C1159 C 0.47402 0.9004 0.35396 0.0
H1160 H 0.50509 0.95593 0.36487 0.0
Co1161 Co 0.5408 0.93598 0.35458 0.0
C1162 C 0.5325 0.88209 0.34644 0.0
O1163 O 0.54801 0.90005 0.34118 0.0
N1164 N 0.5819 0.94854 0.35237 0.0
C1165 C 0.62753 0.9507 0.35192 0.0
C1166 C 0.59674 0.93256 0.35361 0.0
C1167 C 0.60416 0.97641 0.35 0.0
N1168 N 0.63224 0.97838 0.34967 0.0
O1169 O 0.53307 0.94492 0.3454 0.0
H1170 H 0.58604 0.90944 0.3558 0.0
H1171 H 0.6001 0.99532 0.3488 0.0
O1172 O 0.52843 0.89388 0.35194 0.0
C1173 C 0.53393 0.97083 0.34487 0.0
O1174 O 0.54398 0.98987 0.35022 0.0
N1175 N 0.54789 0.92867 0.36372 0.0
C1176 C 0.55842 0.9236 0.37775 0.0
C1177 C 0.53833 0.89719 0.37387 0.0
C1178 C 0.53312 0.90025 0.36685 0.0
C1179 C 0.56745 0.95458 0.3674 0.0
C1180 C 0.57315 0.95258 0.37443 0.0
H1181 H 0.51654 0.8799 0.36403 0.0
H1182 H 0.57836 0.977 0.36486 0.0
H1183 H 0.47413 0.8854 0.3499 0.0
H1184 H 0.4434 0.9252 0.36498 0.0
H1185 H 0.64508 0.94402 0.35236 0.0
H1186 H 0.52597 0.87451 0.37628 0.0
H1187 H 0.58887 0.97351 0.37724 0.0
H1188 H 0.18756 0.21828 0.18705 0.0
H1189 H 0.19684 0.17512 0.185 0.0
H1190 H 0.09905 0.11402 0.18142 0.0
H1191 H 0.08943 0.15686 0.18365 0.0
H1192 H 0.12453 0.09044 0.19075 0.0
H1193 H 0.19617 0.1319 0.16686 0.0
H1194 H 0.21028 0.15997 0.17376 0.0
H1195 H 0.17303 0.1482 0.16992 0.0
C1196 C 0.16802 0.1957 0.18582 0.0
C1197 C 0.13775 0.1911 0.18552 0.0
C1198 C 0.17341 0.17112 0.18456 0.0
C1199 C 0.1487 0.14147 0.18294 0.0
C1200 C 0.11849 0.1368 0.18259 0.0
H1201 H 0.14999 0.96501 0.1813 0.0
H1202 H 0.1329 0.00311 0.17987 0.0
C1203 C 0.11307 0.16138 0.18383 0.0
C1204 C 0.15421 0.11498 0.1821 0.0
H1205 H 0.19723 0.09065 0.17305 0.0
C1206 C 0.14005 0.09019 0.18681 0.0
C1207 C 0.17443 0.11475 0.17696 0.0
C1208 C 0.18913 0.13998 0.17154 0.0
C1209 C 0.14677 0.06594 0.18676 0.0
C1210 C 0.16777 0.06621 0.18175 0.0
C1211 C 0.18113 0.09048 0.17689 0.0
C1212 C 0.17817 0.04298 0.18187 0.0
C1213 C 0.13252 0.04108 0.19227 0.0
C1214 C 0.2095 0.05282 0.18314 0.0
C1215 C 0.21932 0.03118 0.18393 0.0
C1216 C 0.19798 0.99917 0.18348 0.0
C1217 C 0.16687 0.98941 0.18184 0.0
C1218 C 0.15706 0.01116 0.18103 0.0
H1219 H 0.12208 0.04775 0.19657 0.0
H1220 H 0.1139 0.01938 0.1899 0.0
H1221 H 0.15015 0.03609 0.19451 0.0
H1222 H 0.22622 0.07728 0.18377 0.0
H1223 H 0.2435 0.03962 0.18515 0.0
H1224 H 0.97889 0.18573 0.17031 0.0
H1225 H 0.93218 0.13451 0.17136 0.0
H1226 H 0.9776 0.10871 0.18691 0.0
H1227 H 0.02415 0.15973 0.18594 0.0
H1228 H 0.92111 0.0735 0.16987 0.0
H1229 H 0.89945 0.09691 0.19688 0.0
H1230 H 0.92667 0.12709 0.19117 0.0
H1231 H 0.93758 0.10224 0.19565 0.0
C1232 C 0.97906 0.169 0.17388 0.0
C1233 C 0.00503 0.17693 0.17812 0.0
C1234 C 0.95234 0.1398 0.17449 0.0
C1235 C 0.95122 0.11817 0.17934 0.0
C1236 C 0.97773 0.1254 0.18327 0.0
H1237 H 0.82948 0.92319 0.18432 0.0
H1238 H 0.8702 0.97528 0.18122 0.0
C1239 C 0.00434 0.15453 0.18269 0.0
C1240 C 0.92217 0.08831 0.18044 0.0
H1241 H 0.87015 0.04441 0.19301 0.0
C1242 C 0.90977 0.0672 0.17491 0.0
C1243 C 0.90706 0.08044 0.18698 0.0
C1244 C 0.91815 0.10297 0.193 0.0
C1245 C 0.88338 0.03781 0.17583 0.0
C1246 C 0.86942 0.02924 0.18248 0.0
C1247 C 0.88105 0.05089 0.18793 0.0
C1248 C 0.84379 0.99745 0.18402 0.0
C1249 C 0.87073 0.01622 0.16967 0.0
C1250 C 0.8156 0.99262 0.18679 0.0
C1251 C 0.79218 0.96272 0.18861 0.0
C1252 C 0.79661 0.93716 0.18771 0.0
C1253 C 0.82494 0.94218 0.18493 0.0
C1254 C 0.8483 0.972 0.18314 0.0
H1255 H 0.87743 0.02926 0.16468 0.0
H1256 H 0.88046 1.00043 0.16967 0.0
H1257 H 0.84504 0.00188 0.16989 0.0
H1258 H 0.81177 0.01202 0.18757 0.0
H1259 H 0.77059 0.95959 0.1907 0.0
H1260 H 0.83322 0.86866 0.18787 0.0
H1261 H 0.88842 0.88519 0.18819 0.0
H1262 H 0.87375 0.81615 0.17277 0.0
H1263 H 0.81855 0.79996 0.1723 0.0
H1264 H 0.91206 0.85009 0.19229 0.0
H1265 H 0.95118 0.89005 0.16538 0.0
H1266 H 0.91449 0.88369 0.16869 0.0
H1267 H 0.91828 0.85152 0.16564 0.0
C1268 C 0.84182 0.85726 0.18448 0.0
C1269 C 0.82152 0.83288 0.18009 0.0
C1270 C 0.8734 0.86679 0.18466 0.0
C1271 C 0.88535 0.85215 0.18046 0.0
C1272 C 0.86525 0.82832 0.17593 0.0
H1273 H 0.04591 0.83231 0.17972 0.0
H1274 H 0.99661 0.83091 0.17797 0.0
C1275 C 0.83365 0.81895 0.1757 0.0
C1276 C 0.91809 0.85982 0.1813 0.0
H1277 H 0.98473 0.87921 0.17236 0.0
C1278 C 0.92809 0.85694 0.18795 0.0
C1279 C 0.93901 0.86875 0.17563 0.0
C1280 C 0.93031 0.874 0.16845 0.0
C1281 C 0.95799 0.86156 0.18904 0.0
C1282 C 0.97851 0.8695 0.18334 0.0
C1283 C 0.96886 0.87309 0.17672 0.0
C1284 C 0.00928 0.87201 0.18409 0.0
C1285 C 0.96703 0.85672 0.19623 0.0
C1286 C 0.03291 0.89592 0.18803 0.0
C1287 C 0.06116 0.89673 0.18907 0.0
C1288 C 0.06611 0.87353 0.18621 0.0
C1289 C 0.04261 0.85014 0.18212 0.0
C1290 C 0.01454 0.84946 0.18105 0.0
H1291 H 0.94686 0.84592 0.19983 0.0
H1292 H 0.97771 0.84176 0.19599 0.0
H1293 H 0.98451 0.87946 0.19843 0.0
H1294 H 0.02933 0.91369 0.19037 0.0
H1295 H 0.07877 0.915 0.19225 0.0
H1296 H 0.98604 0.14936 0.30632 0.0
H1297 H 0.02676 0.13566 0.30593 0.0
H1298 H 0.07832 0.20473 0.32157 0.0
H1299 H 0.03735 0.21832 0.32206 0.0
H1300 H 0.08678 0.17488 0.3021 0.0
H1301 H 0.0824 0.12978 0.32874 0.0
H1302 H 0.05158 0.13482 0.32521 0.0
H1303 H 0.08637 0.16768 0.32848 0.0
C1304 C 0.00587 0.16142 0.30974 0.0
C1305 C 0.00857 0.18505 0.31419 0.0
C1306 C 0.02911 0.15353 0.30951 0.0
C1307 C 0.0555 0.16904 0.31375 0.0
C1308 C 0.0579 0.19206 0.31835 0.0
H1309 H 0.2301 0.17441 0.30447 0.0
H1310 H 0.19015 0.1884 0.30668 0.0
C1311 C 0.03451 0.19987 0.31861 0.0
C1312 C 0.08133 0.1625 0.31295 0.0
H1313 H 0.12469 0.13747 0.32161 0.0
C1314 C 0.09506 0.16668 0.30636 0.0
C1315 C 0.09192 0.1516 0.31851 0.0
C1316 C 0.07716 0.14541 0.32562 0.0
C1317 C 0.11907 0.16022 0.30517 0.0
C1318 C 0.13012 0.14993 0.31076 0.0
C1319 C 0.11638 0.14568 0.31735 0.0
C1320 C 0.15499 0.14213 0.30978 0.0
C1321 C 0.13179 0.16367 0.29789 0.0
C1322 C 0.14877 0.11175 0.31099 0.0
C1323 C 0.17156 0.10376 0.30976 0.0
C1324 C 0.20108 0.12603 0.3073 0.0
C1325 C 0.20746 0.15664 0.30624 0.0
C1326 C 0.18467 0.16465 0.30751 0.0
H1327 H 0.1158 0.16428 0.29394 0.0
H1328 H 0.15421 0.18577 0.29752 0.0
H1329 H 0.13601 0.14434 0.2966 0.0
H1330 H 0.12602 0.09402 0.31274 0.0
H1331 H 0.16573 0.07992 0.31055 0.0
H1332 H 0.78397 0.82483 0.32418 0.0
H1333 H 0.79497 0.87853 0.32318 0.0
H1334 H 0.86158 0.89555 0.30698 0.0
H1335 H 0.85065 0.84207 0.30789 0.0
H1336 H 0.85013 0.9365 0.3243 0.0
H1337 H 0.80006 0.91686 0.29775 0.0
H1338 H 0.79416 0.88544 0.30342 0.0
H1339 H 0.82981 0.90672 0.29864 0.0
C1340 C 0.80121 0.84012 0.32046 0.0
C1341 C 0.81608 0.82909 0.31604 0.0
C1342 C 0.8074 0.87074 0.31989 0.0
C1343 C 0.82853 0.89072 0.31489 0.0
C1344 C 0.8446 0.88023 0.31074 0.0
H1345 H 0.91918 0.08825 0.3096 0.0
H1346 H 0.9039 0.03496 0.3127 0.0
C1347 C 0.83837 0.84968 0.31129 0.0
C1348 C 0.83326 0.92228 0.31386 0.0
H1349 H 0.82885 0.9694 0.30157 0.0
C1350 C 0.84528 0.94369 0.31935 0.0
C1351 C 0.82631 0.93136 0.30744 0.0
C1352 C 0.81158 0.90883 0.3015 0.0
C1353 C 0.85168 0.97437 0.3185 0.0
C1354 C 0.84632 0.98389 0.31196 0.0
C1355 C 0.83322 0.96214 0.30656 0.0
C1356 C 0.85512 0.01653 0.3105 0.0
C1357 C 0.864 0.99626 0.32462 0.0
C1358 C 0.83288 0.02381 0.30809 0.0
C1359 C 0.84159 0.05431 0.30627 0.0
C1360 C 0.87275 0.07807 0.30681 0.0
C1361 C 0.89491 0.07067 0.30926 0.0
C1362 C 0.8862 0.04019 0.31105 0.0
H1363 H 0.85791 0.98345 0.32963 0.0
H1364 H 0.88968 0.01011 0.32428 0.0
H1365 H 0.85481 0.01252 0.32464 0.0
H1366 H 0.80878 0.00583 0.30759 0.0
H1367 H 0.82395 0.05931 0.30447 0.0
H1368 H 0.16305 0.01704 0.30919 0.0
H1369 H 0.10875 0.97605 0.30883 0.0
H1370 H 0.12576 0.92726 0.32523 0.0
H1371 H 0.18031 0.96851 0.32567 0.0
H1372 H 0.08957 0.91519 0.30554 0.0
H1373 H 0.04511 0.92336 0.33151 0.0
H1374 H 0.08093 0.95417 0.32795 0.0
H1375 H 0.07967 0.92044 0.33166 0.0
C1376 C 0.1552 0.99777 0.31278 0.0
C1377 C 0.17602 0.99587 0.31743 0.0
C1378 C 0.12414 0.97439 0.31257 0.0
C1379 C 0.11317 0.94866 0.31701 0.0
C1380 C 0.13361 0.94716 0.32183 0.0
H1381 H 0.94534 0.77228 0.30808 0.0
H1382 H 0.99876 0.81236 0.3107 0.0
C1383 C 0.16478 0.97071 0.32207 0.0
C1384 C 0.08102 0.92245 0.31617 0.0
H1385 H 0.01131 0.88053 0.32443 0.0
C1386 C 0.07246 0.90758 0.30968 0.0
C1387 C 0.05874 0.91273 0.32156 0.0
C1388 C 0.06638 0.92862 0.32855 0.0
C1389 C 0.04218 0.88334 0.3084 0.0
C1390 C 0.01998 0.87329 0.31382 0.0
C1391 C 0.0285 0.88811 0.32032 0.0
C1392 C 0.98745 0.84836 0.31269 0.0
C1393 C 0.03399 0.86928 0.30121 0.0
C1394 C 0.9633 0.85509 0.31315 0.0
C1395 C 0.93279 0.83227 0.31165 0.0
C1396 C 0.9258 0.80219 0.30969 0.0
C1397 C 0.94999 0.79531 0.30944 0.0
C1398 C 0.98051 0.81817 0.31095 0.0
H1399 H 0.05145 0.88425 0.29728 0.0
H1400 H 0.03305 0.84653 0.30126 0.0
H1401 H 0.01088 0.86533 0.29958 0.0
H1402 H 0.96819 0.87827 0.31448 0.0
H1403 H 0.91486 0.83851 0.31183 0.0
H1404 H 0.84876 0.02328 0.80385 0.0
H1405 H 0.85639 0.97851 0.80386 0.0
H1406 H 0.7992 0.94293 0.82218 0.0
H1407 H 0.79082 0.98745 0.82213 0.0
H1408 H 0.8808 0.9559 0.81377 0.0
H1409 H 0.75686 0.87113 0.80824 0.0
H1410 H 0.77286 0.91249 0.80739 0.0
H1411 H 0.7638 0.89472 0.81585 0.0
C1412 C 0.83775 0.00596 0.80789 0.0
C1413 C 0.81875 0.0087 0.81293 0.0
C1414 C 0.84227 0.98045 0.8079 0.0
C1415 C 0.8279 0.95712 0.81294 0.0
C1416 C 0.80999 0.96037 0.81816 0.0
H1417 H 0.87193 0.80754 0.81699 0.0
H1418 H 0.8636 0.851 0.81955 0.0
C1419 C 0.80541 0.98594 0.81815 0.0
C1420 C 0.8312 0.92914 0.81256 0.0
H1421 H 0.7905 0.85096 0.80962 0.0
C1422 C 0.86106 0.9329 0.81292 0.0
C1423 C 0.8054 0.89925 0.81136 0.0
C1424 C 0.77292 0.89402 0.81062 0.0
C1425 C 0.86591 0.90763 0.81202 0.0
C1426 C 0.84009 0.87771 0.81085 0.0
C1427 C 0.81019 0.87389 0.81057 0.0
C1428 C 0.84382 0.85042 0.80949 0.0
C1429 C 0.89871 0.91337 0.81208 0.0
C1430 C 0.83453 0.83501 0.80307 0.0
C1431 C 0.83918 0.81013 0.8016 0.0
C1432 C 0.85319 0.80012 0.80652 0.0
C1433 C 0.86167 0.81506 0.81303 0.0
C1434 C 0.85692 0.8399 0.81451 0.0
H1435 H 0.9161 0.93839 0.81147 0.0
H1436 H 0.90318 0.90545 0.81712 0.0
H1437 H 0.90219 0.90019 0.80786 0.0
H1438 H 0.82432 0.84273 0.79913 0.0
H1439 H 0.83262 0.79936 0.79652 0.0
H1440 H 0.21911 0.03698 0.80242 0.0
H1441 H 0.17604 0.98511 0.80518 0.0
H1442 H 0.11832 0.02436 0.8102 0.0
H1443 H 0.16108 0.07609 0.80744 0.0
H1444 H 0.1135 0.98017 0.81985 0.0
H1445 H 0.09985 0.93654 0.79272 0.0
H1446 H 0.1381 0.95162 0.79629 0.0
H1447 H 0.1229 0.9772 0.79487 0.0
C1448 C 0.1972 0.03453 0.80407 0.0
C1449 C 0.19353 0.06067 0.80468 0.0
C1450 C 0.17264 0.0049 0.80566 0.0
C1451 C 0.14389 0.00088 0.80781 0.0
C1452 C 0.14034 0.02697 0.80855 0.0
H1453 H 0.96548 0.83408 0.80607 0.0
H1454 H 0.00981 0.88661 0.80516 0.0
C1455 C 0.16487 0.05655 0.80699 0.0
C1456 C 0.11718 0.96948 0.80916 0.0
H1457 H 0.06845 0.9004 0.80129 0.0
C1458 C 0.10364 0.96266 0.8158 0.0
C1459 C 0.10417 0.94689 0.80384 0.0
C1460 C 0.11676 0.9534 0.79651 0.0
C1461 C 0.07741 0.93374 0.81728 0.0
C1462 C 0.06473 0.911 0.81199 0.0
C1463 C 0.07831 0.91785 0.80535 0.0
C1464 C 0.03686 0.88013 0.81311 0.0
C1465 C 0.06304 0.92809 0.82442 0.0
C1466 C 0.03714 0.85919 0.81797 0.0
C1467 C 0.0117 0.82909 0.81852 0.0
C1468 C 0.98577 0.81937 0.81415 0.0
C1469 C 0.98522 0.84075 0.80946 0.0
C1470 C 0.01053 0.87079 0.80894 0.0
H1471 H 0.07066 0.95015 0.82729 0.0
H1472 H 0.0373 0.91529 0.82409 0.0
H1473 H 0.07019 0.91381 0.82749 0.0
H1474 H 0.05744 0.86574 0.82116 0.0
H1475 H 0.01291 0.81309 0.82215 0.0
H1476 H 0.18384 0.2065 0.82052 0.0
H1477 H 0.13076 0.19738 0.8198 0.0
H1478 H 0.11047 0.13114 0.8033 0.0
H1479 H 0.16341 0.14035 0.80393 0.0
H1480 H 0.09467 0.17495 0.79998 0.0
H1481 H 0.04774 0.12423 0.82594 0.0
H1482 H 0.0835 0.16065 0.82619 0.0
H1483 H 0.08286 0.12719 0.82247 0.0
C1484 C 0.16791 0.18963 0.81682 0.0
C1485 C 0.17788 0.17432 0.81224 0.0
C1486 C 0.13755 0.18437 0.81643 0.0
C1487 C 0.1166 0.16343 0.81153 0.0
C1488 C 0.12627 0.14743 0.80711 0.0
H1489 H 0.91922 0.08959 0.80698 0.0
H1490 H 0.97128 0.09854 0.80936 0.0
C1491 C 0.15657 0.15277 0.80747 0.0
C1492 C 0.08527 0.15964 0.81064 0.0
H1493 H 0.01651 0.13714 0.81892 0.0
C1494 C 0.07756 0.16666 0.80412 0.0
C1495 C 0.06295 0.14861 0.81603 0.0
C1496 C 0.06948 0.13945 0.82304 0.0
C1497 C 0.04815 0.16297 0.80285 0.0
C1498 C 0.02602 0.15257 0.80828 0.0
C1499 C 0.03365 0.14543 0.81479 0.0
C1500 C 0.99442 0.14778 0.8072 0.0
C1501 C 0.04078 0.16948 0.79564 0.0
C1502 C 0.99009 0.17262 0.80531 0.0
C1503 C 0.96031 0.16757 0.80394 0.0
C1504 C 0.93427 0.13763 0.8045 0.0
C1505 C 0.93867 0.11298 0.80657 0.0
C1506 C 0.96845 0.11803 0.80792 0.0
H1507 H 0.05728 0.16982 0.79169 0.0
H1508 H 0.01685 0.15182 0.79407 0.0
H1509 H 0.04242 0.19256 0.79559 0.0
H1510 H 0.00978 0.19589 0.80487 0.0
H1511 H 0.95766 0.18712 0.80248 0.0
H1512 H 0.00886 0.84913 0.6868 0.0
H1513 H 0.96826 0.86296 0.68742 0.0
H1514 H 0.91769 0.79744 0.6711 0.0
H1515 H 0.95852 0.78363 0.67037 0.0
H1516 H 0.91796 0.85338 0.66969 0.0
H1517 H 0.88394 0.80628 0.69639 0.0
H1518 H 0.92437 0.83466 0.69562 0.0
H1519 H 0.90895 0.79847 0.691 0.0
C1520 C 0.98916 0.83769 0.68332 0.0
C1521 C 0.98666 0.81494 0.6786 0.0
C1522 C 0.96593 0.84556 0.6837 0.0
C1523 C 0.93961 0.83066 0.67943 0.0
C1524 C 0.93771 0.809 0.67449 0.0
H1525 H 0.76983 0.83514 0.68841 0.0
H1526 H 0.80735 0.81816 0.68598 0.0
C1527 C 0.96107 0.80119 0.67407 0.0
C1528 C 0.91388 0.83731 0.68025 0.0
H1529 H 0.86289 0.83694 0.69218 0.0
C1530 C 0.90575 0.84961 0.67459 0.0
C1531 C 0.89758 0.83179 0.6866 0.0
C1532 C 0.90389 0.81678 0.69273 0.0
C1533 C 0.88242 0.85754 0.67519 0.0
C1534 C 0.86728 0.85355 0.68166 0.0
C1535 C 0.87473 0.8403 0.68725 0.0
C1536 C 0.84412 0.86357 0.68283 0.0
C1537 C 0.87408 0.86989 0.66888 0.0
C1538 C 0.85241 0.89477 0.68193 0.0
C1539 C 0.83104 0.9045 0.68332 0.0
C1540 C 0.80102 0.88329 0.68571 0.0
C1541 C 0.79282 0.85207 0.68664 0.0
C1542 C 0.81418 0.84232 0.68522 0.0
H1543 H 0.88061 0.86273 0.66398 0.0
H1544 H 0.84883 0.86173 0.66874 0.0
H1545 H 0.88688 0.89563 0.66907 0.0
H1546 H 0.87565 0.91176 0.68029 0.0
H1547 H 0.83832 0.92881 0.68268 0.0
H1548 H 0.17231 0.93769 0.68812 0.0
H1549 H 0.18846 0.99177 0.68536 0.0
H1550 H 0.09327 0.96558 0.68119 0.0
H1551 H 0.077 0.91162 0.68393 0.0
H1552 H 0.13487 0.0065 0.67132 0.0
H1553 H 0.17319 0.04826 0.6983 0.0
H1554 H 0.19116 0.02827 0.69445 0.0
H1555 H 0.15016 0.00758 0.69617 0.0
C1556 C 0.15484 0.9435 0.68664 0.0
C1557 C 0.12336 0.92041 0.68629 0.0
C1558 C 0.16409 0.97437 0.68506 0.0
C1559 C 0.14199 0.98271 0.68317 0.0
C1560 C 0.11068 0.95961 0.68264 0.0
H1561 H 0.15773 0.16281 0.68546 0.0
H1562 H 0.14289 0.10819 0.68643 0.0
C1563 C 0.10144 0.92877 0.68419 0.0
C1564 C 0.15121 0.01558 0.6819 0.0
H1565 H 0.1821 0.08624 0.68984 0.0
C1566 C 0.14527 0.02401 0.67535 0.0
C1567 C 0.16437 0.0382 0.68721 0.0
C1568 C 0.16988 0.03019 0.69445 0.0
C1569 C 0.15221 0.05454 0.67397 0.0
C1570 C 0.16584 0.07725 0.67925 0.0
C1571 C 0.17179 0.06879 0.68579 0.0
C1572 C 0.17336 0.1098 0.67821 0.0
C1573 C 0.14414 0.06203 0.66694 0.0
C1574 C 0.19522 0.12877 0.67321 0.0
C1575 C 0.20371 0.16007 0.67262 0.0
C1576 C 0.19075 0.17295 0.67709 0.0
C1577 C 0.16838 0.15369 0.68198 0.0
C1578 C 0.15983 0.12245 0.68255 0.0
H1579 H 0.12706 0.04076 0.66413 0.0
H1580 H 0.13449 0.0778 0.66745 0.0
H1581 H 0.16549 0.07391 0.66372 0.0
H1582 H 0.20636 0.11961 0.6699 0.0
H1583 H 0.22114 0.17435 0.66883 0.0
H1584 H 0.82992 0.04014 0.6666 0.0
H1585 H 0.88463 0.0809 0.66697 0.0
H1586 H 0.898 0.03955 0.6854 0.0
H1587 H 0.84349 0.999 0.68511 0.0
H1588 H 0.91922 0.1023 0.68682 0.0
H1589 H 0.96391 0.07837 0.6625 0.0
H1590 H 0.93028 0.08251 0.66142 0.0
H1591 H 0.92734 0.05047 0.66635 0.0
C1592 C 0.84463 0.03948 0.67067 0.0
C1593 C 0.83231 0.01648 0.67586 0.0
C1594 C 0.87591 0.06273 0.67086 0.0
C1595 C 0.89541 0.06314 0.67619 0.0
C1596 C 0.88333 0.0397 0.68125 0.0
H1597 H 0.0933 0.16749 0.68173 0.0
H1598 H 0.03934 0.12886 0.67926 0.0
C1599 C 0.85214 0.01657 0.68108 0.0
C1600 C 0.9279 0.08893 0.67679 0.0
H1601 H 0.99844 0.12402 0.66868 0.0
C1602 C 0.93654 0.10711 0.68285 0.0
C1603 C 0.95045 0.09498 0.67162 0.0
C1604 C 0.94272 0.07544 0.66513 0.0
C1605 C 0.96717 0.13105 0.68391 0.0
C1606 C 0.98967 0.13737 0.67871 0.0
C1607 C 0.98104 0.11929 0.67263 0.0
C1608 C 0.02265 0.16148 0.67968 0.0
C1609 C 0.97537 0.1487 0.6907 0.0
C1610 C 0.03129 0.19279 0.68059 0.0
C1611 C 0.06216 0.21496 0.68202 0.0
C1612 C 0.08498 0.20625 0.68249 0.0
C1613 C 0.07638 0.17504 0.68134 0.0
C1614 C 0.04552 0.15289 0.67994 0.0
H1615 H 0.9573 0.13637 0.69473 0.0
H1616 H 0.99792 0.15249 0.69272 0.0
H1617 H 0.97751 0.17174 0.68983 0.0
H1618 H 0.01409 0.20001 0.68026 0.0
H1619 H 0.06817 0.23889 0.68275 0.0
H1620 H 0.84258 0.569 0.52252 0.0
H1621 H 0.85702 0.5292 0.5206 0.0
H1622 H 0.76066 0.46058 0.5176 0.0
H1623 H 0.74611 0.50016 0.51949 0.0
H1624 H 0.83999 0.47645 0.52802 0.0
H1625 H 0.80089 0.44641 0.50069 0.0
H1626 H 0.80504 0.48074 0.50489 0.0
H1627 H 0.77098 0.44357 0.50638 0.0
C1628 C 0.82449 0.54544 0.52145 0.0
C1629 C 0.79322 0.53781 0.52112 0.0
C1630 C 0.83277 0.52276 0.52032 0.0
C1631 C 0.80997 0.49203 0.51883 0.0
C1632 C 0.77873 0.4843 0.51855 0.0
H1633 H 0.82516 0.32755 0.52446 0.0
H1634 H 0.81238 0.36892 0.52515 0.0
C1635 C 0.77045 0.50697 0.51964 0.0
C1636 C 0.81868 0.46775 0.5179 0.0
H1637 H 0.81276 0.41165 0.50672 0.0
C1638 C 0.83422 0.46242 0.52335 0.0
C1639 C 0.8115 0.44973 0.51176 0.0
C1640 C 0.79647 0.45556 0.50557 0.0
C1641 C 0.84211 0.43906 0.52289 0.0
C1642 C 0.83366 0.42009 0.51689 0.0
C1643 C 0.81884 0.42594 0.51136 0.0
C1644 C 0.84014 0.39417 0.51624 0.0
C1645 C 0.85977 0.43517 0.52882 0.0
C1646 C 0.85897 0.39394 0.51083 0.0
C1647 C 0.86612 0.37015 0.51038 0.0
C1648 C 0.85454 0.34615 0.51534 0.0
C1649 C 0.83485 0.34593 0.52062 0.0
C1650 C 0.82762 0.36963 0.52104 0.0
H1651 H 0.87186 0.45654 0.53204 0.0
H1652 H 0.84327 0.41601 0.53224 0.0
H1653 H 0.87721 0.42929 0.52687 0.0
H1654 H 0.86868 0.41254 0.50704 0.0
H1655 H 0.88128 0.37096 0.50624 0.0
H1656 H 0.50494 0.24555 0.51728 0.0
H1657 H 0.54439 0.29964 0.51523 0.0
H1658 H 0.47682 0.32785 0.51927 0.0
H1659 H 0.43715 0.27365 0.52135 0.0
H1660 H 0.5472 0.34269 0.5057 0.0
H1661 H 0.54675 0.3812 0.5328 0.0
H1662 H 0.52823 0.34077 0.53039 0.0
H1663 H 0.50947 0.36293 0.52862 0.0
C1664 C 0.49836 0.2632 0.51767 0.0
C1665 C 0.46793 0.25532 0.51952 0.0
C1666 C 0.52098 0.29412 0.51652 0.0
C1667 C 0.51366 0.3178 0.5172 0.0
C1668 C 0.48313 0.31 0.51887 0.0
H1669 H 0.63097 0.51032 0.50398 0.0
H1670 H 0.59052 0.45564 0.50472 0.0
C1671 C 0.4605 0.27905 0.52006 0.0
C1672 C 0.53819 0.35064 0.51623 0.0
H1673 H 0.57744 0.42023 0.52464 0.0
C1674 C 0.55383 0.35969 0.50983 0.0
C1675 C 0.54706 0.37263 0.52167 0.0
C1676 C 0.53224 0.36393 0.52878 0.0
C1677 C 0.57803 0.39022 0.50871 0.0
C1678 C 0.58643 0.41236 0.5141 0.0
C1679 C 0.57083 0.40326 0.5205 0.0
C1680 C 0.61179 0.44497 0.51331 0.0
C1681 C 0.59489 0.39828 0.50183 0.0
C1682 C 0.63706 0.45718 0.51791 0.0
C1683 C 0.66002 0.48842 0.51754 0.0
C1684 C 0.65814 0.50812 0.51256 0.0
C1685 C 0.6332 0.4957 0.50784 0.0
C1686 C 0.61011 0.46442 0.50824 0.0
H1687 H 0.59124 0.37722 0.499 0.0
H1688 H 0.58597 0.41034 0.49851 0.0
H1689 H 0.62021 0.41402 0.50257 0.0
H1690 H 0.63883 0.44258 0.52185 0.0
H1691 H 0.67906 0.49718 0.52122 0.0
H1692 H 0.72863 0.15847 0.52223 0.0
H1693 H 0.67536 0.14329 0.51888 0.0
H1694 H 0.70245 0.23965 0.5162 0.0
H1695 H 0.75556 0.2549 0.51953 0.0
H1696 H 0.63604 0.15838 0.52542 0.0
H1697 H 0.65527 0.2015 0.4983 0.0
H1698 H 0.68393 0.19705 0.50313 0.0
H1699 H 0.68006 0.2308 0.50439 0.0
C1700 C 0.7232 0.17639 0.52093 0.0
C1701 C 0.74631 0.20789 0.52114 0.0
C1702 C 0.69283 0.16769 0.51897 0.0
C1703 C 0.68503 0.19031 0.51718 0.0
C1704 C 0.70808 0.22175 0.51738 0.0
H1705 H 0.50763 0.17953 0.52007 0.0
H1706 H 0.56106 0.19059 0.52122 0.0
C1707 C 0.73844 0.23044 0.5193 0.0
C1708 C 0.65243 0.18131 0.51555 0.0
H1709 H 0.60681 0.18997 0.5035 0.0
C1710 C 0.6296 0.16501 0.5206 0.0
C1711 C 0.64395 0.18959 0.50922 0.0
C1712 C 0.66703 0.20542 0.50342 0.0
C1713 C 0.59876 0.15777 0.5196 0.0
C1714 C 0.59066 0.16764 0.51344 0.0
C1715 C 0.61318 0.18286 0.50827 0.0
C1716 C 0.55901 0.16277 0.51237 0.0
C1717 C 0.57512 0.13956 0.52515 0.0
C1718 C 0.54058 0.14465 0.5068 0.0
C1719 C 0.50997 0.13843 0.50609 0.0
C1720 C 0.49737 0.15026 0.51094 0.0
C1721 C 0.51642 0.16958 0.51632 0.0
C1722 C 0.54696 0.17586 0.517 0.0
H1723 H 0.58276 0.12638 0.52849 0.0
H1724 H 0.57199 0.15585 0.52854 0.0
H1725 H 0.55229 0.12301 0.52282 0.0
H1726 H 0.54956 0.13457 0.50313 0.0
H1727 H 0.49592 0.12353 0.50189 0.0
H1728 H 0.70832 0.54427 0.65698 0.0
H1729 H 0.74624 0.52658 0.65621 0.0
H1730 H 0.6964 0.46827 0.63878 0.0
H1731 H 0.6583 0.48537 0.63956 0.0
H1732 H 0.71559 0.43935 0.64881 0.0
H1733 H 0.81177 0.55474 0.64045 0.0
H1734 H 0.79243 0.55424 0.64839 0.0
H1735 H 0.77162 0.54504 0.6403 0.0
C1736 C 0.70532 0.5275 0.65302 0.0
C1737 C 0.68055 0.51655 0.64827 0.0
C1738 C 0.72709 0.51757 0.65257 0.0
C1739 C 0.72436 0.49652 0.64737 0.0
C1740 C 0.69903 0.4847 0.6428 0.0
H1741 H 0.85692 0.45436 0.62909 0.0
H1742 H 0.81918 0.47073 0.63176 0.0
C1743 C 0.67737 0.49465 0.64323 0.0
C1744 C 0.74818 0.48722 0.64653 0.0
H1745 H 0.82365 0.51471 0.64179 0.0
C1746 C 0.73928 0.45581 0.64732 0.0
C1747 C 0.77892 0.50875 0.64449 0.0
C1748 C 0.78936 0.54256 0.6433 0.0
C1749 C 0.76033 0.4453 0.64611 0.0
C1750 C 0.79113 0.46687 0.64412 0.0
C1751 C 0.80005 0.4983 0.64336 0.0
C1752 C 0.81417 0.45712 0.64258 0.0
C1753 C 0.74922 0.41109 0.64677 0.0
C1754 C 0.82411 0.4444 0.64781 0.0
C1755 C 0.84576 0.43514 0.6463 0.0
C1756 C 0.85798 0.43853 0.63954 0.0
C1757 C 0.84819 0.45164 0.63435 0.0
C1758 C 0.82654 0.4609 0.63586 0.0
H1759 H 0.72347 0.39689 0.64684 0.0
H1760 H 0.75812 0.40308 0.64241 0.0
H1761 H 0.75809 0.40687 0.6517 0.0
H1762 H 0.8153 0.44188 0.65306 0.0
H1763 H 0.85326 0.4258 0.65047 0.0
H1764 H 0.50985 0.16869 0.63794 0.0
H1765 H 0.52569 0.22366 0.63735 0.0
H1766 H 0.46914 0.21324 0.65528 0.0
H1767 H 0.45354 0.15818 0.65598 0.0
H1768 H 0.48797 0.24747 0.63515 0.0
H1769 H 0.55017 0.29079 0.66023 0.0
H1770 H 0.5404 0.25336 0.65669 0.0
H1771 H 0.51145 0.25853 0.66111 0.0
C1772 C 0.50097 0.17812 0.6418 0.0
C1773 C 0.48033 0.15904 0.647 0.0
C1774 C 0.51009 0.20957 0.64146 0.0
C1775 C 0.49881 0.22264 0.6463 0.0
C1776 C 0.47864 0.20381 0.65157 0.0
H1777 H 0.49758 0.39501 0.63869 0.0
H1778 H 0.48285 0.34082 0.64079 0.0
C1779 C 0.46964 0.17231 0.65195 0.0
C1780 C 0.50676 0.25548 0.64552 0.0
H1781 H 0.5402 0.32566 0.65378 0.0
C1782 C 0.49944 0.26458 0.63922 0.0
C1783 C 0.52196 0.27782 0.65082 0.0
C1784 C 0.53175 0.26978 0.65757 0.0
C1785 C 0.50683 0.29537 0.63806 0.0
C1786 C 0.52132 0.31756 0.64342 0.0
C1787 C 0.52879 0.30853 0.64971 0.0
C1788 C 0.52988 0.35048 0.64248 0.0
C1789 C 0.49977 0.30399 0.63104 0.0
C1790 C 0.56106 0.374 0.64295 0.0
C1791 C 0.56949 0.40496 0.64179 0.0
C1792 C 0.54688 0.41303 0.64014 0.0
C1793 C 0.51557 0.38948 0.63982 0.0
C1794 C 0.50714 0.35852 0.64102 0.0
H1795 H 0.49627 0.28655 0.627 0.0
H1796 H 0.47812 0.30515 0.6314 0.0
H1797 H 0.51879 0.32703 0.62933 0.0
H1798 H 0.57898 0.36831 0.64407 0.0
H1799 H 0.59382 0.42248 0.64202 0.0
H1800 H 0.59863 0.12124 0.62832 0.0
H1801 H 0.65263 0.15835 0.63114 0.0
H1802 H 0.62551 0.16815 0.65188 0.0
H1803 H 0.57156 0.13007 0.64918 0.0
H1804 H 0.676 0.21918 0.63496 0.0
H1805 H 0.69838 0.15449 0.65557 0.0
H1806 H 0.66521 0.13609 0.64985 0.0
H1807 H 0.66525 0.15907 0.65706 0.0
C1808 C 0.60417 0.1308 0.63352 0.0
C1809 C 0.58071 0.12273 0.63851 0.0
C1810 C 0.63503 0.1522 0.63511 0.0
C1811 C 0.64312 0.16588 0.64173 0.0
C1812 C 0.61987 0.15759 0.64677 0.0
H1813 H 0.82596 0.33329 0.64755 0.0
H1814 H 0.76974 0.29759 0.64798 0.0
C1815 C 0.58897 0.13609 0.64518 0.0
C1816 C 0.67572 0.18978 0.6432 0.0
H1817 H 0.73847 0.20585 0.65331 0.0
C1818 C 0.68966 0.21638 0.63899 0.0
C1819 C 0.69342 0.18593 0.64846 0.0
C1820 C 0.67997 0.15726 0.65297 0.0
C1821 C 0.72103 0.23896 0.63977 0.0
C1822 C 0.73879 0.23517 0.64503 0.0
C1823 C 0.72469 0.20885 0.64934 0.0
C1824 C 0.77271 0.25659 0.64564 0.0
C1825 C 0.73519 0.26594 0.63476 0.0
C1826 C 0.79301 0.24518 0.64451 0.0
C1827 C 0.825 0.26536 0.64433 0.0
C1828 C 0.83741 0.29746 0.64528 0.0
C1829 C 0.81713 0.30873 0.64675 0.0
C1830 C 0.785 0.2884 0.64696 0.0
H1831 H 0.72015 0.26187 0.63015 0.0
H1832 H 0.73846 0.28712 0.63744 0.0
H1833 H 0.75824 0.27041 0.63293 0.0
H1834 H 0.78404 0.22071 0.64351 0.0
H1835 H 0.83993 0.25583 0.64324 0.0
H1836 H 0.57678 0.16712 0.14236 0.0
H1837 H 0.56584 0.20837 0.14529 0.0
H1838 H 0.46966 0.14872 0.13984 0.0
H1839 H 0.48044 0.10713 0.1369 0.0
H1840 H 0.49487 0.20611 0.13383 0.0
H1841 H 0.52139 0.21825 0.16203 0.0
H1842 H 0.55238 0.22052 0.15681 0.0
H1843 H 0.51562 0.18499 0.15705 0.0
C1844 C 0.55316 0.1625 0.1419 0.0
C1845 C 0.52943 0.13371 0.13942 0.0
C1846 C 0.54694 0.18613 0.1436 0.0
C1847 C 0.51683 0.18143 0.14291 0.0
C1848 C 0.49304 0.15274 0.14045 0.0
H1849 H 0.45888 0.31337 0.15597 0.0
H1850 H 0.46573 0.26797 0.15514 0.0
C1851 C 0.49926 0.12907 0.13874 0.0
C1852 C 0.51073 0.2072 0.14431 0.0
H1853 H 0.51816 0.25999 0.15663 0.0
C1854 C 0.49968 0.2177 0.13884 0.0
C1855 C 0.51667 0.22206 0.15086 0.0
C1856 C 0.52687 0.2107 0.15705 0.0
C1857 C 0.4954 0.2433 0.13967 0.0
C1858 C 0.50291 0.25917 0.14612 0.0
C1859 C 0.51288 0.24804 0.15167 0.0
C1860 C 0.50085 0.2876 0.14711 0.0
C1861 C 0.48281 0.25312 0.13364 0.0
C1862 C 0.51918 0.31403 0.14306 0.0
C1863 C 0.51533 0.33989 0.14352 0.0
C1864 C 0.49319 0.33989 0.14806 0.0
C1865 C 0.47608 0.31405 0.1524 0.0
C1866 C 0.4799 0.28809 0.15193 0.0
H1867 H 0.47054 0.23401 0.12982 0.0
H1868 H 0.46654 0.26079 0.13548 0.0
H1869 H 0.50234 0.27287 0.13091 0.0
H1870 H 0.53602 0.31438 0.13944 0.0
H1871 H 0.52928 0.35964 0.1402 0.0
H1872 H 0.86628 0.3763 0.12906 0.0
H1873 H 0.82321 0.3247 0.13185 0.0
H1874 H 0.81931 0.35538 0.15261 0.0
H1875 H 0.86256 0.40706 0.14988 0.0
H1876 H 0.81747 0.28266 0.1423 0.0
H1877 H 0.7302 0.3205 0.14534 0.0
H1878 H 0.76754 0.34465 0.14132 0.0
H1879 H 0.76439 0.34092 0.15062 0.0
C1880 C 0.85654 0.37204 0.13424 0.0
C1881 C 0.86776 0.39594 0.13922 0.0
C1882 C 0.83182 0.34256 0.13582 0.0
C1883 C 0.81777 0.33638 0.1424 0.0
C1884 C 0.82939 0.35987 0.14745 0.0
H1885 H 0.68409 0.14718 0.15607 0.0
H1886 H 0.72813 0.20037 0.15577 0.0
C1887 C 0.8541 0.3894 0.14588 0.0
C1888 C 0.79081 0.30536 0.14392 0.0
H1889 H 0.71327 0.26775 0.1476 0.0
C1890 C 0.79471 0.27936 0.1435 0.0
C1891 C 0.76112 0.3012 0.14541 0.0
C1892 C 0.75533 0.32821 0.14565 0.0
C1893 C 0.76962 0.24921 0.14448 0.0
C1894 C 0.73997 0.24506 0.14602 0.0
C1895 C 0.73612 0.27108 0.14649 0.0
C1896 C 0.71223 0.21375 0.14663 0.0
C1897 C 0.77481 0.222 0.14361 0.0
C1898 C 0.68815 0.2041 0.14176 0.0
C1899 C 0.66294 0.17389 0.14194 0.0
C1900 C 0.66127 0.15272 0.14701 0.0
C1901 C 0.68476 0.16286 0.15208 0.0
C1902 C 0.71004 0.19316 0.15189 0.0
H1903 H 0.79732 0.2288 0.14104 0.0
H1904 H 0.77493 0.21234 0.14881 0.0
H1905 H 0.75585 0.20333 0.1405 0.0
H1906 H 0.6893 0.21972 0.1377 0.0
H1907 H 0.64505 0.167 0.13802 0.0
H1908 H 0.63185 0.52258 0.13961 0.0
H1909 H 0.68418 0.53214 0.1421 0.0
H1910 H 0.64724 0.43446 0.14588 0.0
H1911 H 0.59501 0.42467 0.14337 0.0
H1912 H 0.69221 0.47327 0.15574 0.0
H1913 H 0.7325 0.50804 0.12853 0.0
H1914 H 0.71672 0.52962 0.13261 0.0
H1915 H 0.69202 0.4889 0.13091 0.0
C1916 C 0.63487 0.50313 0.14095 0.0
C1917 C 0.60922 0.47284 0.14124 0.0
C1918 C 0.66477 0.50863 0.14239 0.0
C1919 C 0.6696 0.48394 0.14409 0.0
C1920 C 0.644 0.45384 0.14458 0.0
H1921 H 0.83723 0.47541 0.14018 0.0
H1922 H 0.78443 0.46668 0.1399 0.0
C1923 C 0.61411 0.44831 0.14316 0.0
C1924 C 0.70139 0.48918 0.14512 0.0
H1925 H 0.76983 0.51213 0.13668 0.0
C1926 C 0.70926 0.48185 0.15159 0.0
C1927 C 0.72339 0.49999 0.13966 0.0
C1928 C 0.71577 0.50686 0.13251 0.0
C1929 C 0.73866 0.48513 0.15274 0.0
C1930 C 0.76077 0.49633 0.1473 0.0
C1931 C 0.75286 0.50368 0.14085 0.0
C1932 C 0.79196 0.49969 0.14805 0.0
C1933 C 0.74556 0.47583 0.15969 0.0
C1934 C 0.81362 0.52082 0.15282 0.0
C1935 C 0.84395 0.52586 0.153 0.0
C1936 C 0.85313 0.51009 0.14836 0.0
C1937 C 0.83103 0.48822 0.14376 0.0
C1938 C 0.80081 0.48314 0.1436 0.0
H1939 H 0.72404 0.46113 0.16271 0.0
H1940 H 0.7583 0.46297 0.15901 0.0
H1941 H 0.76041 0.49701 0.16278 0.0
H1942 H 0.80742 0.5342 0.15623 0.0
H1943 H 0.86048 0.54298 0.15658 0.0
H1944 H 0.69679 0.19357 0.02066 0.0
H1945 H 0.65226 0.20148 0.02142 0.0
H1946 H 0.60579 0.13342 0.00529 0.0
H1947 H 0.65051 0.12548 0.00444 0.0
H1948 H 0.59914 0.18629 0.00401 0.0
H1949 H 0.5708 0.13709 0.03065 0.0
H1950 H 0.60995 0.16852 0.02975 0.0
H1951 H 0.59766 0.13295 0.02506 0.0
C1952 C 0.67718 0.18035 0.01724 0.0
C1953 C 0.67697 0.15854 0.01256 0.0
C1954 C 0.65172 0.18486 0.0177 0.0
C1955 C 0.62546 0.16749 0.01353 0.0
C1956 C 0.62576 0.14685 0.0086 0.0
H1957 H 0.44584 0.1493 0.02343 0.0
H1958 H 0.48738 0.13835 0.02058 0.0
C1959 C 0.65134 0.14239 0.00811 0.0
C1960 C 0.59742 0.1703 0.01449 0.0
H1961 H 0.54411 0.16268 0.02666 0.0
C1962 C 0.58694 0.18096 0.00894 0.0
C1963 C 0.58122 0.16274 0.0209 0.0
C1964 C 0.59024 0.14939 0.02691 0.0
C1965 C 0.56127 0.18528 0.0097 0.0
C1966 C 0.54606 0.17923 0.01622 0.0
C1967 C 0.55595 0.16759 0.02169 0.0
C1968 C 0.52036 0.18551 0.01756 0.0
C1969 C 0.55055 0.19608 0.00351 0.0
C1970 C 0.52519 0.21568 0.01686 0.0
C1971 C 0.50154 0.22198 0.0185 0.0
C1972 C 0.47265 0.19829 0.02093 0.0
C1973 C 0.46788 0.16808 0.02163 0.0
C1974 C 0.49154 0.16177 0.01997 0.0
H1975 H 0.5582 0.19064 -0.00146 0.0
H1976 H 0.52488 0.18521 0.00344 0.0
H1977 H 0.56075 0.22163 0.0038 0.0
H1978 H 0.54751 0.23454 0.01521 0.0
H1979 H 0.50622 0.24562 0.01804 0.0
H1980 H 0.87892 0.52404 0.00477 0.0
H1981 H 0.86972 0.4709 0.00534 0.0
H1982 H 0.80097 0.44895 0.02133 0.0
H1983 H 0.81017 0.50192 0.02084 0.0
H1984 H 0.84522 0.43349 0.02491 0.0
H1985 H 0.79713 0.38806 -0.00132 0.0
H1986 H 0.83332 0.42411 -0.00133 0.0
H1987 H 0.79922 0.42266 0.00223 0.0
C1988 C 0.86146 0.50774 0.00832 0.0
C1989 C 0.84545 0.51725 0.0128 0.0
C1990 C 0.85617 0.47735 0.00862 0.0
C1991 C 0.83454 0.45594 0.01335 0.0
C1992 C 0.81781 0.46513 0.01765 0.0
H1993 H 0.76024 0.25866 0.01765 0.0
H1994 H 0.76957 0.31085 0.0153 0.0
C1995 C 0.82314 0.49544 0.01737 0.0
C1996 C 0.83081 0.42464 0.01419 0.0
H1997 H 0.80916 0.35638 0.00576 0.0
C1998 C 0.83733 0.41662 0.02072 0.0
C1999 C 0.82033 0.40265 0.00873 0.0
C2000 C 0.81181 0.4096 0.0017 0.0
C2001 C 0.83364 0.38718 0.02196 0.0
C2002 C 0.8237 0.36535 0.01647 0.0
C2003 C 0.81709 0.37331 0.00993 0.0
C2004 C 0.81875 0.33368 0.01751 0.0
C2005 C 0.83965 0.37943 0.02918 0.0
C2006 C 0.84344 0.32916 0.01942 0.0
C2007 C 0.83819 0.29929 0.02076 0.0
C2008 C 0.80819 0.27337 0.02017 0.0
C2009 C 0.78368 0.27799 0.01808 0.0
C2010 C 0.78894 0.30785 0.01675 0.0
H2011 H 0.83995 0.39586 0.03313 0.0
H2012 H 0.82173 0.3555 0.03067 0.0
H2013 H 0.86259 0.38079 0.02928 0.0
H2014 H 0.86674 0.34877 0.0199 0.0
H2015 H 0.85763 0.29648 0.02224 0.0
H2016 H 0.74522 0.50182 0.01721 0.0
H2017 H 0.69303 0.46026 0.01435 0.0
H2018 H 0.65675 0.52107 0.01877 0.0
H2019 H 0.70909 0.56293 0.02164 0.0
H2020 H 0.62453 0.46512 0.02534 0.0
H2021 H 0.63842 0.4468 -0.00255 0.0
H2022 H 0.66711 0.44553 0.00288 0.0
H2023 H 0.66609 0.48105 0.00213 0.0
C2024 C 0.72629 0.50662 0.01744 0.0
C2025 C 0.73138 0.53579 0.01964 0.0
C2026 C 0.69643 0.4828 0.01579 0.0
C2027 C 0.67106 0.4877 0.01623 0.0
C2028 C 0.67605 0.51685 0.01836 0.0
H2029 H 0.48027 0.35342 0.00403 0.0
H2030 H 0.53267 0.39887 0.00445 0.0
C2031 C 0.70593 0.54069 0.02003 0.0
C2032 C 0.63911 0.46172 0.01499 0.0
H2033 H 0.59337 0.40639 0.00313 0.0
C2034 C 0.61764 0.45248 0.02046 0.0
C2035 C 0.63003 0.44546 0.00859 0.0
C2036 C 0.65152 0.45538 0.0024 0.0
C2037 C 0.58767 0.4268 0.0198 0.0
C2038 C 0.57913 0.40956 0.01353 0.0
C2039 C 0.60016 0.41941 0.00796 0.0
C2040 C 0.54858 0.38096 0.01276 0.0
C2041 C 0.56538 0.41835 0.02581 0.0
C2042 C 0.54066 0.35543 0.01711 0.0
C2043 C 0.51088 0.32955 0.01689 0.0
C2044 C 0.48846 0.32862 0.01228 0.0
C2045 C 0.497 0.35347 0.00765 0.0
C2046 C 0.52687 0.37947 0.00789 0.0
H2047 H 0.57238 0.43825 0.02941 0.0
H2048 H 0.54143 0.41041 0.02395 0.0
H2049 H 0.56509 0.39914 0.02881 0.0
H2050 H 0.55733 0.35584 0.02079 0.0
H2051 H 0.50523 0.31055 0.02044 0.0
H2052 H 0.46185 0.63367 0.85257 0.0
H2053 H 0.45166 0.67687 0.85287 0.0
H2054 H 0.53032 0.72994 0.83943 0.0
H2055 H 0.54 0.68639 0.83894 0.0
H2056 H 0.4883 0.73216 0.85817 0.0
H2057 H 0.46746 0.74675 0.83051 0.0
H2058 H 0.468 0.71285 0.83364 0.0
H2059 H 0.50378 0.74802 0.83178 0.0
C2060 C 0.47664 0.65436 0.84958 0.0
C2061 C 0.50173 0.65667 0.84573 0.0
C2062 C 0.47081 0.67904 0.84976 0.0
C2063 C 0.49004 0.70661 0.84613 0.0
C2064 C 0.51468 0.70868 0.84214 0.0
H2065 H 0.51336 0.88535 0.85823 0.0
H2066 H 0.5198 0.84074 0.85606 0.0
C2067 C 0.52028 0.6838 0.84188 0.0
C2068 C 0.48582 0.73395 0.847 0.0
H2069 H 0.47734 0.78873 0.83813 0.0
C2070 C 0.48567 0.74437 0.85378 0.0
C2071 C 0.48206 0.74972 0.84129 0.0
C2072 C 0.48 0.73858 0.8339 0.0
C2073 C 0.48223 0.77028 0.85502 0.0
C2074 C 0.47991 0.78692 0.8493 0.0
C2075 C 0.47958 0.77625 0.84251 0.0
C2076 C 0.47704 0.815 0.85026 0.0
C2077 C 0.48044 0.77907 0.86245 0.0
C2078 C 0.45161 0.81609 0.84745 0.0
C2079 C 0.44816 0.84197 0.84854 0.0
C2080 C 0.47001 0.86739 0.85251 0.0
C2081 C 0.49594 0.86646 0.85516 0.0
C2082 C 0.49953 0.84069 0.85399 0.0
H2083 H 0.47327 0.75912 0.86604 0.0
H2084 H 0.5037 0.79778 0.86412 0.0
H2085 H 0.46379 0.78764 0.86299 0.0
H2086 H 0.43411 0.79667 0.84449 0.0
H2087 H 0.42823 0.84178 0.84625 0.0
H2088 H 0.36207 0.83635 0.85194 0.0
H2089 H 0.31889 0.78304 0.85232 0.0
H2090 H 0.26017 0.81169 0.84205 0.0
H2091 H 0.30377 0.86485 0.84137 0.0
H2092 H 0.26717 0.76208 0.85909 0.0
H2093 H 0.23787 0.7351 0.83124 0.0
H2094 H 0.27309 0.76896 0.83408 0.0
H2095 H 0.23702 0.76922 0.83388 0.0
C2096 C 0.34013 0.83119 0.84964 0.0
C2097 C 0.33637 0.85476 0.84658 0.0
C2098 C 0.31541 0.8007 0.84987 0.0
C2099 C 0.28628 0.79315 0.84714 0.0
C2100 C 0.28258 0.81664 0.84402 0.0
H2101 H 0.11611 0.63143 0.86133 0.0
H2102 H 0.15847 0.68362 0.85907 0.0
C2103 C 0.3075 0.84709 0.84366 0.0
C2104 C 0.25941 0.76127 0.84804 0.0
H2105 H 0.20035 0.7003 0.83941 0.0
C2106 C 0.25271 0.74852 0.85477 0.0
C2107 C 0.24067 0.74337 0.8424 0.0
C2108 C 0.2477 0.75473 0.83499 0.0
C2109 C 0.2278 0.71858 0.85603 0.0
C2110 C 0.20825 0.70121 0.85044 0.0
C2111 C 0.21508 0.71379 0.8437 0.0
C2112 C 0.18115 0.66962 0.85147 0.0
C2113 C 0.22327 0.70562 0.86331 0.0
C2114 C 0.17885 0.64443 0.8477 0.0
C2115 C 0.15414 0.61442 0.84885 0.0
C2116 C 0.13115 0.60879 0.85385 0.0
C2117 C 0.13313 0.63439 0.85746 0.0
C2118 C 0.15768 0.66443 0.85624 0.0
H2119 H 0.24502 0.71766 0.8664 0.0
H2120 H 0.20547 0.709 0.86601 0.0
H2121 H 0.2153 0.68041 0.86323 0.0
H2122 H 0.19651 0.64789 0.84393 0.0
H2123 H 0.15342 0.59579 0.84582 0.0
H2124 H 0.40314 0.57286 0.85016 0.0
H2125 H 0.35121 0.56297 0.84732 0.0
H2126 H 0.31316 0.46637 0.85254 0.0
H2127 H 0.36529 0.47604 0.85537 0.0
H2128 H 0.30618 0.52212 0.83778 0.0
H2129 H 0.26561 0.49493 0.86519 0.0
H2130 H 0.30607 0.51279 0.86285 0.0
H2131 H 0.28073 0.47184 0.8616 0.0
C2132 C 0.38387 0.54939 0.85061 0.0
C2133 C 0.3884 0.52523 0.85303 0.0
C2134 C 0.35416 0.54381 0.849 0.0
C2135 C 0.32833 0.51404 0.8498 0.0
C2136 C 0.33276 0.48964 0.85201 0.0
H2137 H 0.13837 0.45793 0.837 0.0
H2138 H 0.19072 0.46492 0.83744 0.0
C2139 C 0.36253 0.49521 0.85364 0.0
C2140 C 0.29676 0.50904 0.84857 0.0
H2141 H 0.22899 0.49057 0.85684 0.0
C2142 C 0.2892 0.51508 0.84193 0.0
C2143 C 0.27486 0.50025 0.85402 0.0
C2144 C 0.28218 0.49481 0.86133 0.0
C2145 C 0.26028 0.51265 0.84061 0.0
C2146 C 0.23835 0.50364 0.84605 0.0
C2147 C 0.24586 0.49739 0.85267 0.0
C2148 C 0.20779 0.50157 0.84514 0.0
C2149 C 0.25376 0.52059 0.83346 0.0
C2150 C 0.20015 0.52002 0.84927 0.0
C2151 C 0.17032 0.51597 0.84906 0.0
C2152 C 0.14747 0.49328 0.84472 0.0
C2153 C 0.15552 0.47573 0.84035 0.0
C2154 C 0.18544 0.47973 0.84059 0.0
H2155 H 0.27534 0.53373 0.83035 0.0
H2156 H 0.23811 0.49883 0.83063 0.0
H2157 H 0.24202 0.53454 0.83383 0.0
H2158 H 0.21709 0.53706 0.85279 0.0
H2159 H 0.16496 0.53008 0.85243 0.0
H2160 H 0.35762 0.87771 0.98995 0.0
H2161 H 0.40291 0.87052 0.98953 0.0
H2162 H 0.35777 0.79972 0.97388 0.0
H2163 H 0.31263 0.80675 0.97424 0.0
H2164 H 0.41046 0.81723 0.99124 0.0
H2165 H 0.43912 0.86597 0.96454 0.0
H2166 H 0.41208 0.87007 0.97008 0.0
H2167 H 0.40005 0.83436 0.96548 0.0
C2168 C 0.35717 0.86029 0.9865 0.0
C2169 C 0.33177 0.84316 0.98204 0.0
C2170 C 0.38307 0.85627 0.98625 0.0
C2171 C 0.3839 0.8351 0.98156 0.0
C2172 C 0.35783 0.81669 0.97742 0.0
H2173 H 0.50303 0.7577 0.97716 0.0
H2174 H 0.46228 0.76931 0.98013 0.0
C2175 C 0.33205 0.82072 0.97764 0.0
C2176 C 0.4124 0.83305 0.98073 0.0
H2177 H 0.4664 0.84124 0.96869 0.0
C2178 C 0.42289 0.82269 0.98633 0.0
C2179 C 0.42887 0.84078 0.97436 0.0
C2180 C 0.41969 0.85371 0.96829 0.0
C2181 C 0.44878 0.81868 0.98564 0.0
C2182 C 0.46422 0.82481 0.97916 0.0
C2183 C 0.4544 0.8363 0.97364 0.0
C2184 C 0.48984 0.81837 0.97785 0.0
C2185 C 0.4594 0.80797 0.99187 0.0
C2186 C 0.51876 0.842 0.97546 0.0
C2187 C 0.54215 0.83539 0.97373 0.0
C2188 C 0.537 0.805 0.97432 0.0
C2189 C 0.50805 0.78147 0.97677 0.0
C2190 C 0.48469 0.78807 0.97849 0.0
H2191 H 0.45158 0.8134 -0.00318 0.0
H2192 H 0.44928 0.78243 0.99159 0.0
H2193 H 0.48507 0.81891 0.99198 0.0
H2194 H 0.52315 0.86552 0.97489 0.0
H2195 H 0.56425 0.85407 0.97192 0.0
H2196 H 0.15124 0.7057 0.97129 0.0
H2197 H 0.14021 0.65314 0.97408 0.0
H2198 H 0.23636 0.689 0.97946 0.0
H2199 H 0.24755 0.74144 0.97668 0.0
H2200 H 0.16502 0.62152 0.96777 0.0
H2201 H 0.19207 0.63289 0.99595 0.0
H2202 H 0.18652 0.66107 0.9912 0.0
H2203 H 0.22308 0.66195 0.99079 0.0
C2204 C 0.17 0.7024 0.97309 0.0
C2205 C 0.20025 0.72781 0.97378 0.0
C2206 C 0.16363 0.67239 0.97472 0.0
C2207 C 0.18736 0.66721 0.97709 0.0
C2208 C 0.21752 0.69253 0.97782 0.0
H2209 H 0.19712 0.50034 0.97305 0.0
H2210 H 0.2051 0.5529 0.97277 0.0
C2211 C 0.22389 0.72253 0.97622 0.0
C2212 C 0.18111 0.63515 0.97828 0.0
H2213 H 0.18804 0.58815 0.99025 0.0
C2214 C 0.16979 0.61416 0.97271 0.0
C2215 C 0.18701 0.62545 0.98475 0.0
C2216 C 0.19754 0.64642 0.99103 0.0
C2217 C 0.16511 0.58405 0.97335 0.0
C2218 C 0.17251 0.57488 0.9797 0.0
C2219 C 0.18283 0.59545 0.98536 0.0
C2220 C 0.16994 0.54407 0.98048 0.0
C2221 C 0.15221 0.56227 0.96722 0.0
C2222 C 0.14859 0.52215 0.98516 0.0
C2223 C 0.14406 0.49203 0.98537 0.0
C2224 C 0.16083 0.48346 0.98088 0.0
C2225 C 0.18343 0.50605 0.97648 0.0
C2226 C 0.18799 0.53608 0.9763 0.0
H2227 H 0.14018 0.56976 0.96349 0.0
H2228 H 0.17154 0.56195 0.96441 0.0
H2229 H 0.13565 0.53823 0.96894 0.0
H2230 H 0.13462 0.528 0.98846 0.0
H2231 H 0.12653 0.47518 0.98882 0.0
H2232 H 0.52528 0.64549 0.9897 0.0
H2233 H 0.47279 0.60032 0.98904 0.0
H2234 H 0.44862 0.64636 0.97331 0.0
H2235 H 0.50084 0.69139 0.9739 0.0
H2236 H 0.41209 0.59251 0.99054 0.0
H2237 H 0.43387 0.56566 0.96382 0.0
H2238 H 0.46464 0.5925 0.96946 0.0
H2239 H 0.44105 0.60458 0.96484 0.0
C2240 C 0.50863 0.64617 0.98618 0.0
C2241 C 0.51735 0.6718 0.98177 0.0
C2242 C 0.47871 0.62033 0.9858 0.0
C2243 C 0.45713 0.61977 0.98101 0.0
C2244 C 0.4652 0.64607 0.97692 0.0
H2245 H 0.26066 0.49911 0.97615 0.0
H2246 H 0.31273 0.54032 0.97919 0.0
C2247 C 0.49504 0.6718 0.97728 0.0
C2248 C 0.42661 0.59133 0.98005 0.0
H2249 H 0.38166 0.53787 0.96782 0.0
C2250 C 0.40545 0.58039 0.98559 0.0
C2251 C 0.41828 0.57524 0.97363 0.0
C2252 C 0.44073 0.58486 0.96761 0.0
C2253 C 0.37566 0.55438 0.9848 0.0
C2254 C 0.36679 0.53929 0.97827 0.0
C2255 C 0.38839 0.54961 0.97281 0.0
C2256 C 0.33492 0.51345 0.97687 0.0
C2257 C 0.35404 0.54325 0.99097 0.0
C2258 C 0.33011 0.48477 0.97443 0.0
C2259 C 0.30028 0.46112 0.97265 0.0
C2260 C 0.27472 0.46575 0.97326 0.0
C2261 C 0.27966 0.49448 0.97575 0.0
C2262 C 0.30946 0.5181 0.97751 0.0
H2263 H 0.36703 0.55093 0.99596 0.0
H2264 H 0.3384 0.55311 0.99069 0.0
H2265 H 0.33952 0.51755 0.99101 0.0
H2266 H 0.34949 0.48076 0.97386 0.0
H2267 H 0.29724 0.43922 0.9708 0.0
H2268 H 0.12025 0.6314 0.48937 0.0
H2269 H 0.13433 0.59069 0.48927 0.0
H2270 H 0.18801 0.62989 0.47061 0.0
H2271 H 0.17443 0.67072 0.47071 0.0
H2272 H 0.12136 0.54717 0.47851 0.0
H2273 H 0.24787 0.61848 0.48338 0.0
H2274 H 0.22123 0.63236 0.48514 0.0
H2275 H 0.23443 0.6328 0.47641 0.0
C2276 C 0.13537 0.63157 0.4853 0.0
C2277 C 0.14615 0.65425 0.48004 0.0
C2278 C 0.1433 0.60826 0.48524 0.0
C2279 C 0.16245 0.60748 0.47997 0.0
C2280 C 0.17361 0.63035 0.47478 0.0
H2281 H 0.1856 0.46101 0.46301 0.0
H2282 H 0.17043 0.49945 0.46581 0.0
C2283 C 0.16561 0.65354 0.47482 0.0
C2284 C 0.16954 0.5819 0.47966 0.0
H2285 H 0.22952 0.56712 0.47907 0.0
C2286 C 0.14497 0.55145 0.47871 0.0
C2287 C 0.20033 0.58751 0.48 0.0
C2288 C 0.22748 0.61951 0.48136 0.0
C2289 C 0.15048 0.52661 0.47781 0.0
C2290 C 0.18138 0.53248 0.47779 0.0
C2291 C 0.20586 0.56273 0.47902 0.0
C2292 C 0.18894 0.5078 0.47627 0.0
C2293 C 0.12322 0.4943 0.47686 0.0
C2294 C 0.20459 0.49989 0.4812 0.0
C2295 C 0.21324 0.47782 0.47962 0.0
C2296 C 0.20666 0.46345 0.47305 0.0
C2297 C 0.19064 0.47122 0.46815 0.0
C2298 C 0.18195 0.49324 0.46974 0.0
H2299 H 0.10137 0.4924 0.47885 0.0
H2300 H 0.12007 0.48854 0.47123 0.0
H2301 H 0.12722 0.47687 0.47956 0.0
H2302 H 0.21022 0.5109 0.48627 0.0
H2303 H 0.22507 0.47207 0.48356 0.0
H2304 H 0.53864 0.72781 0.46454 0.0
H2305 H 0.49854 0.67446 0.46713 0.0
H2306 H 0.48666 0.70268 0.48757 0.0
H2307 H 0.52694 0.75608 0.48505 0.0
H2308 H 0.49436 0.63387 0.47789 0.0
H2309 H 0.39868 0.66085 0.47915 0.0
H2310 H 0.4362 0.68738 0.47549 0.0
H2311 H 0.43116 0.68371 0.48476 0.0
C2312 C 0.52779 0.72265 0.46961 0.0
C2313 C 0.5358 0.74631 0.47456 0.0
C2314 C 0.50478 0.69216 0.47108 0.0
C2315 C 0.48928 0.68474 0.47749 0.0
C2316 C 0.49786 0.70806 0.48253 0.0
H2317 H 0.36497 0.49307 0.49116 0.0
H2318 H 0.40617 0.54763 0.49084 0.0
C2319 C 0.52085 0.73857 0.48107 0.0
C2320 C 0.46386 0.65266 0.47885 0.0
H2321 H 0.38573 0.60929 0.48166 0.0
C2322 C 0.47063 0.62846 0.47875 0.0
C2323 C 0.43289 0.64573 0.47991 0.0
C2324 C 0.4241 0.67069 0.47978 0.0
C2325 C 0.44719 0.59742 0.47964 0.0
C2326 C 0.41626 0.59051 0.48075 0.0
C2327 C 0.40953 0.61474 0.48088 0.0
C2328 C 0.39026 0.55812 0.48129 0.0
C2329 C 0.45553 0.57219 0.47916 0.0
C2330 C 0.36707 0.5463 0.47617 0.0
C2331 C 0.34347 0.51528 0.47636 0.0
C2332 C 0.34253 0.49545 0.48168 0.0
C2333 C 0.36511 0.50768 0.48697 0.0
C2334 C 0.38878 0.53877 0.48677 0.0
H2335 H 0.47896 0.58083 0.47688 0.0
H2336 H 0.4554 0.56322 0.48445 0.0
H2337 H 0.4383 0.55254 0.47595 0.0
H2338 H 0.36767 0.56091 0.47192 0.0
H2339 H 0.32623 0.50677 0.47226 0.0
H2340 H 0.24304 0.7418 0.47422 0.0
H2341 H 0.29664 0.75774 0.47725 0.0
H2342 H 0.32436 0.85265 0.47227 0.0
H2343 H 0.27066 0.83676 0.46918 0.0
H2344 H 0.36219 0.8345 0.46637 0.0
H2345 H 0.3467 0.80315 0.49431 0.0
H2346 H 0.3211 0.77142 0.48881 0.0
H2347 H 0.3174 0.80556 0.48924 0.0
C2348 C 0.26044 0.76613 0.47386 0.0
C2349 C 0.25259 0.78804 0.47147 0.0
C2350 C 0.29107 0.77523 0.47562 0.0
C2351 C 0.31442 0.80647 0.47511 0.0
C2352 C 0.30667 0.82843 0.47273 0.0
H2353 H 0.5046 0.88086 0.49014 0.0
H2354 H 0.45053 0.86809 0.48869 0.0
C2355 C 0.27603 0.81931 0.47094 0.0
C2356 C 0.34717 0.81587 0.47666 0.0
H2357 H 0.39454 0.81287 0.48913 0.0
C2358 C 0.36931 0.83001 0.47137 0.0
C2359 C 0.35653 0.81041 0.48321 0.0
C2360 C 0.33425 0.7971 0.48924 0.0
C2361 C 0.40036 0.83798 0.47237 0.0
C2362 C 0.40936 0.83098 0.4788 0.0
C2363 C 0.38748 0.81778 0.48417 0.0
C2364 C 0.44138 0.83708 0.47999 0.0
C2365 C 0.42327 0.85407 0.46655 0.0
C2366 C 0.4538 0.82308 0.47573 0.0
C2367 C 0.48462 0.83041 0.47652 0.0
C2368 C 0.50356 0.85164 0.48164 0.0
C2369 C 0.49063 0.86447 0.48613 0.0
C2370 C 0.45977 0.85725 0.48531 0.0
H2371 H 0.415 0.86564 0.46288 0.0
H2372 H 0.44629 0.87171 0.46861 0.0
H2373 H 0.42624 0.83664 0.46357 0.0
H2374 H 0.43975 0.80678 0.47172 0.0
H2375 H 0.49372 0.81971 0.47305 0.0
H2376 H 0.35367 0.52516 0.35396 0.0
H2377 H 0.31378 0.53985 0.35496 0.0
H2378 H 0.26137 0.47584 0.33854 0.0
H2379 H 0.30154 0.46127 0.33742 0.0
H2380 H 0.26215 0.53205 0.33754 0.0
H2381 H 0.23025 0.48343 0.36418 0.0
H2382 H 0.27063 0.51177 0.36328 0.0
H2383 H 0.25468 0.47578 0.35856 0.0
C2384 C 0.3337 0.51424 0.35054 0.0
C2385 C 0.33049 0.49169 0.34568 0.0
C2386 C 0.3109 0.52261 0.35114 0.0
C2387 C 0.28427 0.50837 0.34694 0.0
C2388 C 0.28165 0.48691 0.34186 0.0
H2389 H 0.11302 0.5069 0.35672 0.0
H2390 H 0.15264 0.49296 0.35417 0.0
C2391 C 0.30461 0.47864 0.34123 0.0
C2392 C 0.25886 0.51531 0.34801 0.0
H2393 H 0.20844 0.51371 0.36027 0.0
C2394 C 0.25028 0.52794 0.3425 0.0
C2395 C 0.24305 0.5094 0.35445 0.0
C2396 C 0.24986 0.49406 0.36043 0.0
C2397 C 0.22678 0.53553 0.3433 0.0
C2398 C 0.21193 0.53086 0.34983 0.0
C2399 C 0.22007 0.51759 0.35529 0.0
C2400 C 0.18772 0.53935 0.35114 0.0
C2401 C 0.21777 0.548 0.33712 0.0
C2402 C 0.19436 0.57012 0.35035 0.0
C2403 C 0.17172 0.57814 0.35179 0.0
C2404 C 0.14213 0.5556 0.35415 0.0
C2405 C 0.13566 0.52486 0.35499 0.0
C2406 C 0.15823 0.51683 0.3535 0.0
H2407 H 0.22468 0.54182 0.33214 0.0
H2408 H 0.19236 0.539 0.33701 0.0
H2409 H 0.22977 0.57369 0.33745 0.0
H2410 H 0.21721 0.58806 0.34871 0.0
H2411 H 0.17757 0.6021 0.3512 0.0
H2412 H 0.55108 0.8513 0.33758 0.0
H2413 H 0.53786 0.79687 0.33826 0.0
H2414 H 0.47791 0.78292 0.35574 0.0
H2415 H 0.4913 0.83722 0.35516 0.0
H2416 H 0.51799 0.76184 0.35827 0.0
H2417 H 0.45918 0.7173 0.33287 0.0
H2418 H 0.49725 0.75083 0.33223 0.0
H2419 H 0.46667 0.75399 0.33643 0.0
C2420 C 0.53474 0.83651 0.3415 0.0
C2421 C 0.52238 0.84861 0.34634 0.0
C2422 C 0.52712 0.80537 0.34187 0.0
C2423 C 0.5067 0.78576 0.34702 0.0
C2424 C 0.49374 0.79764 0.35173 0.0
H2425 H 0.41688 0.58662 0.35141 0.0
H2426 H 0.43064 0.64038 0.34922 0.0
C2427 C 0.50146 0.82872 0.3514 0.0
C2428 C 0.50016 0.75336 0.3478 0.0
H2429 H 0.46972 0.6834 0.33952 0.0
C2430 C 0.50742 0.74468 0.35417 0.0
C2431 C 0.48616 0.73097 0.34247 0.0
C2432 C 0.47657 0.73857 0.33563 0.0
C2433 C 0.50103 0.71422 0.35536 0.0
C2434 C 0.48761 0.69197 0.34998 0.0
C2435 C 0.4803 0.7006 0.34361 0.0
C2436 C 0.4798 0.65928 0.35099 0.0
C2437 C 0.50791 0.70598 0.36244 0.0
C2438 C 0.50295 0.65199 0.35259 0.0
C2439 C 0.49513 0.62124 0.35386 0.0
C2440 C 0.46406 0.59717 0.35347 0.0
C2441 C 0.44105 0.60452 0.35168 0.0
C2442 C 0.44887 0.63526 0.35045 0.0
H2443 H 0.51073 0.7233 0.36645 0.0
H2444 H 0.48912 0.68275 0.36413 0.0
H2445 H 0.52987 0.70536 0.3622 0.0
H2446 H 0.52706 0.6701 0.35288 0.0
H2447 H 0.51342 0.61628 0.3551 0.0
H2448 H 0.3982 0.876 0.36542 0.0
H2449 H 0.34504 0.83562 0.36284 0.0
H2450 H 0.37284 0.82564 0.3422 0.0
H2451 H 0.42591 0.86681 0.34464 0.0
H2452 H 0.31811 0.82704 0.3423 0.0
H2453 H 0.31403 0.74272 0.36168 0.0
H2454 H 0.32525 0.77992 0.36542 0.0
H2455 H 0.34986 0.77649 0.35905 0.0
C2456 C 0.39302 0.86548 0.36031 0.0
C2457 C 0.41644 0.87454 0.35526 0.0
C2458 C 0.36267 0.8421 0.35887 0.0
C2459 C 0.35516 0.82716 0.35238 0.0
C2460 C 0.37825 0.83662 0.34727 0.0
H2461 H 0.17297 0.6595 0.34722 0.0
H2462 H 0.22911 0.69523 0.34655 0.0
C2463 C 0.40862 0.86002 0.3487 0.0
C2464 C 0.32303 0.80213 0.35091 0.0
H2465 H 0.26518 0.73284 0.35707 0.0
C2466 C 0.30662 0.80625 0.34547 0.0
C2467 C 0.30829 0.77471 0.35495 0.0
C2468 C 0.32536 0.76798 0.36055 0.0
C2469 C 0.27533 0.78442 0.3442 0.0
C2470 C 0.26 0.75808 0.34856 0.0
C2471 C 0.27687 0.75319 0.35377 0.0
C2472 C 0.22602 0.73664 0.3482 0.0
C2473 C 0.25896 0.7899 0.33823 0.0
C2474 C 0.2057 0.74807 0.34931 0.0
C2475 C 0.17376 0.72781 0.34969 0.0
C2476 C 0.16142 0.69561 0.34902 0.0
C2477 C 0.18172 0.68418 0.34773 0.0
C2478 C 0.21379 0.70455 0.34736 0.0
H2479 H 0.27563 0.80441 0.33412 0.0
H2480 H 0.24113 0.76768 0.33588 0.0
H2481 H 0.24729 0.80248 0.34018 0.0
H2482 H 0.21462 0.77264 0.35014 0.0
H2483 H 0.15882 0.73741 0.35069 0.0
H2484 H 0.37822 0.39616 0.15129 0.0
H2485 H 0.32667 0.38567 0.15491 0.0
H2486 H 0.28436 0.31098 0.14005 0.0
H2487 H 0.33567 0.32153 0.13632 0.0
H2488 H 0.27313 0.3805 0.14664 0.0
H2489 H 0.2507 0.27115 0.15967 0.0
H2490 H 0.28929 0.30122 0.1573 0.0
H2491 H 0.263 0.27622 0.15074 0.0
C2492 C 0.358 0.37786 0.14871 0.0
C2493 C 0.36109 0.3594 0.14358 0.0
C2494 C 0.32858 0.37187 0.15079 0.0
C2495 C 0.30181 0.34734 0.1478 0.0
C2496 C 0.30478 0.32975 0.14248 0.0
H2497 H 0.11558 0.26223 0.16562 0.0
H2498 H 0.156 0.27493 0.15686 0.0
C2499 C 0.33414 0.33571 0.14039 0.0
C2500 C 0.27085 0.33889 0.15056 0.0
H2501 H 0.21194 0.28459 0.1605 0.0
C2502 C 0.25955 0.35942 0.14962 0.0
C2503 C 0.25315 0.31123 0.15438 0.0
C2504 C 0.26458 0.28867 0.15564 0.0
C2505 C 0.23113 0.35326 0.15254 0.0
C2506 C 0.21407 0.32624 0.15663 0.0
C2507 C 0.22492 0.3052 0.15734 0.0
C2508 C 0.18702 0.32093 0.1609 0.0
C2509 C 0.2198 0.37583 0.15124 0.0
C2510 C 0.19065 0.34287 0.16595 0.0
C2511 C 0.16762 0.33575 0.17091 0.0
C2512 C 0.14063 0.30638 0.171 0.0
C2513 C 0.13609 0.28508 0.16568 0.0
C2514 C 0.1592 0.29228 0.16069 0.0
H2515 H 0.22838 0.38785 0.14617 0.0
H2516 H 0.19406 0.36405 0.15129 0.0
H2517 H 0.22891 0.39382 0.15538 0.0
H2518 H 0.21213 0.36481 0.16633 0.0
H2519 H 0.17181 0.3527 0.17493 0.0
H2520 H 0.73522 0.86013 0.17048 0.0
H2521 H 0.72114 0.89012 0.16271 0.0
H2522 H 0.62422 0.8278 0.16706 0.0
H2523 H 0.63821 0.79838 0.17501 0.0
H2524 H 0.68416 0.87997 0.15117 0.0
H2525 H 0.63685 0.90991 0.17421 0.0
H2526 H 0.65899 0.8904 0.17496 0.0
H2527 H 0.61868 0.86903 0.17253 0.0
C2528 C 0.71088 0.85237 0.16964 0.0
C2529 C 0.68779 0.82718 0.17341 0.0
C2530 C 0.70287 0.86958 0.16522 0.0
C2531 C 0.67169 0.86168 0.16447 0.0
C2532 C 0.64847 0.83481 0.16772 0.0
H2533 H 0.5919 0.96606 0.14557 0.0
H2534 H 0.5984 0.92401 0.15025 0.0
C2535 C 0.65647 0.8179 0.17222 0.0
C2536 C 0.66377 0.88303 0.1608 0.0
H2537 H 0.63206 0.92934 0.16339 0.0
C2538 C 0.67265 0.89066 0.15383 0.0
C2539 C 0.64895 0.89717 0.16431 0.0
C2540 C 0.64056 0.8915 0.17193 0.0
C2541 C 0.6671 0.91206 0.15026 0.0
C2542 C 0.65244 0.92618 0.15378 0.0
C2543 C 0.64305 0.91817 0.1607 0.0
C2544 C 0.6485 0.95096 0.15055 0.0
C2545 C 0.67705 0.9196 0.14277 0.0
C2546 C 0.67453 0.98009 0.14927 0.0
C2547 C 0.67095 0.00437 0.14672 0.0
C2548 C 0.64119 1.00003 0.14536 0.0
C2549 C 0.61514 0.97057 0.14661 0.0
C2550 C 0.61878 0.94634 0.14923 0.0
H2551 H 0.68176 0.90204 0.14037 0.0
H2552 H 0.65898 0.92105 0.13967 0.0
H2553 H 0.69864 0.94252 0.1425 0.0
H2554 H 0.69764 0.98425 0.15041 0.0
H2555 H 0.69159 0.02669 0.14597 0.0
H2556 H 0.15299 0.87071 0.17121 0.0
H2557 H 0.12459 0.82755 0.16317 0.0
H2558 H 0.18505 0.79162 0.16832 0.0
H2559 H 0.21288 0.83418 0.17659 0.0
H2560 H 0.13564 0.80109 0.15189 0.0
H2561 H 0.10178 0.72229 0.17476 0.0
H2562 H 0.1218 0.76392 0.17563 0.0
H2563 H 0.14283 0.74456 0.17327 0.0
C2564 C 0.1608 0.8541 0.1705 0.0
C2565 C 0.18488 0.85554 0.1746 0.0
C2566 C 0.14446 0.82937 0.16591 0.0
C2567 C 0.15213 0.80588 0.1653 0.0
C2568 C 0.17817 0.809 0.16887 0.0
H2569 H 0.04098 0.62281 0.14598 0.0
H2570 H 0.08509 0.67003 0.15057 0.0
C2571 C 0.1942 0.83345 0.17354 0.0
C2572 C 0.13103 0.7769 0.1615 0.0
H2573 H 0.08193 0.69918 0.1639 0.0
C2574 C 0.12411 0.77877 0.1545 0.0
C2575 C 0.11574 0.74778 0.16494 0.0
C2576 C 0.12062 0.74442 0.17258 0.0
C2577 C 0.10204 0.75238 0.15087 0.0
C2578 C 0.08658 0.72352 0.15434 0.0
C2579 C 0.09411 0.72141 0.16126 0.0
C2580 C 0.06064 0.69567 0.1511 0.0
C2581 C 0.09504 0.75552 0.14338 0.0
C2582 C 0.03225 0.69442 0.14996 0.0
C2583 C 0.00674 0.6673 0.14746 0.0
C2584 C 0.0091 0.64078 0.14602 0.0
C2585 C 0.03791 0.64239 0.14709 0.0
C2586 C 0.06334 0.66951 0.14966 0.0
H2587 H 0.11343 0.77745 0.14102 0.0
H2588 H 0.09254 0.73562 0.14025 0.0
H2589 H 0.07275 0.7555 0.1431 0.0
H2590 H 0.02958 0.71423 0.15117 0.0
H2591 H 0.98506 0.66708 0.14683 0.0
H2592 H 0.38497 0.37026 0.34026 0.0
H2593 H 0.37749 0.31991 0.33654 0.0
H2594 H 0.29698 0.27336 0.34975 0.0
H2595 H 0.30446 0.32344 0.35357 0.0
H2596 H 0.37274 0.26818 0.3448 0.0
H2597 H 0.26541 0.23828 0.3299 0.0
H2598 H 0.29242 0.27741 0.33266 0.0
H2599 H 0.26608 0.24953 0.33882 0.0
C2600 C 0.36589 0.34936 0.34244 0.0
C2601 C 0.34513 0.35097 0.34717 0.0
C2602 C 0.36161 0.32061 0.34029 0.0
C2603 C 0.33647 0.29298 0.34281 0.0
C2604 C 0.31623 0.29444 0.34766 0.0
H2605 H 0.26407 0.1037 0.32769 0.0
H2606 H 0.2737 0.14702 0.33533 0.0
C2607 C 0.32048 0.32313 0.34982 0.0
C2608 C 0.33085 0.26263 0.34018 0.0
H2609 H 0.281 0.20084 0.33022 0.0
C2610 C 0.35263 0.25333 0.34164 0.0
C2611 C 0.30449 0.2433 0.3361 0.0
C2612 C 0.28081 0.2526 0.33421 0.0
C2613 C 0.34882 0.22517 0.33908 0.0
C2614 C 0.32287 0.20622 0.33484 0.0
C2615 C 0.30076 0.21526 0.33352 0.0
C2616 C 0.31937 0.17836 0.33119 0.0
C2617 C 0.37255 0.21598 0.34097 0.0
C2618 C 0.34215 0.18133 0.32645 0.0
C2619 C 0.33678 0.15662 0.32212 0.0
C2620 C 0.30837 0.12853 0.32237 0.0
C2621 C 0.28624 0.12498 0.32738 0.0
C2622 C 0.29167 0.14976 0.33174 0.0
H2623 H 0.38418 0.22665 0.34597 0.0
H2624 H 0.36183 0.19039 0.34138 0.0
H2625 H 0.39068 0.22437 0.33687 0.0
H2626 H 0.3634 0.20332 0.32581 0.0
H2627 H 0.3543 0.16015 0.31831 0.0
H2628 H 0.641 0.02462 0.34083 0.0
H2629 H 0.69077 0.06761 0.33683 0.0
H2630 H 0.73933 0.03483 0.34972 0.0
H2631 H 0.68986 0.99212 0.35381 0.0
H2632 H 0.744 0.11536 0.34473 0.0
H2633 H 0.77088 0.03634 0.32957 0.0
H2634 H 0.73226 0.02463 0.33264 0.0
H2635 H 0.76104 0.02651 0.33856 0.0
C2636 C 0.66224 0.02676 0.34288 0.0
C2637 C 0.6614 0.00466 0.34757 0.0
C2638 C 0.69064 0.0513 0.34058 0.0
C2639 C 0.71864 0.05409 0.34291 0.0
C2640 C 0.71793 0.03274 0.34777 0.0
H2641 H 0.90446 0.16814 0.32583 0.0
H2642 H 0.86315 0.1361 0.33406 0.0
C2643 C 0.68961 0.00824 0.35007 0.0
C2644 C 0.74855 0.07853 0.34004 0.0
H2645 H 0.8084 0.08933 0.32955 0.0
C2646 C 0.75823 0.10976 0.34144 0.0
C2647 C 0.76707 0.07104 0.3358 0.0
C2648 C 0.75731 0.03786 0.33399 0.0
C2649 C 0.78595 0.1338 0.33863 0.0
C2650 C 0.80403 0.12633 0.33421 0.0
C2651 C 0.79466 0.09504 0.33297 0.0
C2652 C 0.83111 0.15023 0.33028 0.0
C2653 C 0.7956 0.16693 0.34043 0.0
C2654 C 0.82716 0.16949 0.32556 0.0
C2655 C 0.85074 0.1879 0.32089 0.0
C2656 C 0.8786 0.18714 0.32078 0.0
C2657 C 0.8833 0.16932 0.32579 0.0
C2658 C 0.85968 0.15091 0.33049 0.0
H2659 H 0.78603 0.16839 0.34555 0.0
H2660 H 0.82126 0.1818 0.34058 0.0
H2661 H 0.78638 0.1763 0.33644 0.0
H2662 H 0.80515 0.16888 0.32519 0.0
H2663 H 0.84636 0.20136 0.31709 0.0
H2664 H 0.85182 0.74747 0.32551 0.0
H2665 H 0.88343 0.73518 0.33315 0.0
H2666 H 0.81242 0.63851 0.33289 0.0
H2667 H 0.78149 0.65051 0.3249 0.0
H2668 H 0.88179 0.7081 0.34539 0.0
H2669 H 0.88257 0.63504 0.32357 0.0
H2670 H 0.8656 0.65945 0.32275 0.0
H2671 H 0.84471 0.62246 0.32707 0.0
C2672 C 0.84255 0.72373 0.32724 0.0
C2673 C 0.81445 0.69982 0.32455 0.0
C2674 C 0.86067 0.71671 0.3316 0.0
C2675 C 0.85073 0.68577 0.3334 0.0
C2676 C 0.82099 0.66239 0.33137 0.0
H2677 H 0.96697 0.61324 0.34948 0.0
H2678 H 0.92157 0.61985 0.34807 0.0
C2679 C 0.80322 0.66928 0.32687 0.0
C2680 C 0.87299 0.67782 0.33661 0.0
H2681 H 0.91185 0.63868 0.33343 0.0
C2682 C 0.88812 0.69266 0.34281 0.0
C2683 C 0.88156 0.65795 0.33319 0.0
C2684 C 0.86803 0.64304 0.32625 0.0
C2685 C 0.91193 0.68855 0.34561 0.0
C2686 C 0.92053 0.669 0.34214 0.0
C2687 C 0.90478 0.65336 0.3361 0.0
C2688 C 0.94797 0.66685 0.34419 0.0
C2689 C 0.9283 0.70559 0.35215 0.0
C2690 C 0.97768 0.69119 0.34252 0.0
C2691 C 0.00346 0.68731 0.34323 0.0
C2692 C 0.99995 0.65912 0.34567 0.0
C2693 C 0.97033 0.6353 0.34766 0.0
C2694 C 0.94445 0.63903 0.34686 0.0
H2695 H 0.9155 0.71546 0.35487 0.0
H2696 H 0.93128 0.68982 0.35575 0.0
H2697 H 0.95177 0.72489 0.35079 0.0
H2698 H 0.98073 0.71265 0.34036 0.0
H2699 H 0.02608 0.70604 0.3417 0.0
H2700 H 0.81857 0.64442 0.81757 0.0
H2701 H 0.77928 0.63465 0.82631 0.0
H2702 H 0.84082 0.72268 0.83599 0.0
H2703 H 0.88018 0.73316 0.82709 0.0
H2704 H 0.77452 0.63151 0.84057 0.0
H2705 H 0.76757 0.73251 0.83029 0.0
H2706 H 0.78943 0.71748 0.82596 0.0
H2707 H 0.8048 0.74121 0.8336 0.0
C2708 C 0.82403 0.66157 0.82162 0.0
C2709 C 0.85227 0.68984 0.82156 0.0
C2710 C 0.80153 0.65586 0.82663 0.0
C2711 C 0.80685 0.67825 0.8317 0.0
C2712 C 0.836 0.70542 0.83202 0.0
H2713 H 0.66214 0.68144 0.85693 0.0
H2714 H 0.71301 0.69147 0.85301 0.0
C2715 C 0.85854 0.71126 0.82696 0.0
C2716 C 0.7807 0.67403 0.83615 0.0
H2717 H 0.73172 0.70243 0.83888 0.0
C2718 C 0.76536 0.6472 0.84027 0.0
C2719 C 0.76869 0.69447 0.83571 0.0
C2720 C 0.78323 0.7229 0.83111 0.0
C2721 C 0.73791 0.6399 0.84384 0.0
C2722 C 0.72547 0.65983 0.84322 0.0
C2723 C 0.74144 0.68726 0.83934 0.0
C2724 C 0.69483 0.6518 0.84613 0.0
C2725 C 0.7222 0.61073 0.84817 0.0
C2726 C 0.66776 0.62613 0.84357 0.0
C2727 C 0.63857 0.62052 0.84572 0.0
C2728 C 0.63593 0.64059 0.85047 0.0
C2729 C 0.66322 0.66581 0.85317 0.0
C2730 C 0.69236 0.67146 0.85099 0.0
H2731 H 0.73856 0.60261 0.84963 0.0
H2732 H 0.71215 0.61449 0.85298 0.0
H2733 H 0.70302 0.59207 0.84511 0.0
H2734 H 0.66918 0.61106 0.8397 0.0
H2735 H 0.61814 0.60114 0.84347 0.0
H2736 H 0.35279 0.18457 0.81717 0.0
H2737 H 0.36184 0.15369 0.82574 0.0
H2738 H 0.26665 0.11188 0.83249 0.0
H2739 H 0.25728 0.1427 0.82389 0.0
H2740 H 0.35064 0.1431 0.84097 0.0
H2741 H 0.2785 0.03994 0.82431 0.0
H2742 H 0.2938 0.07913 0.82119 0.0
H2743 H 0.26132 0.06257 0.82703 0.0
C2744 C 0.33393 0.1693 0.82058 0.0
C2745 C 0.30423 0.16579 0.81981 0.0
C2746 C 0.33918 0.15175 0.82548 0.0
C2747 C 0.31481 0.13026 0.82967 0.0
C2748 C 0.28567 0.12821 0.82926 0.0
H2749 H 0.30451 0.97308 0.85176 0.0
H2750 H 0.29305 0.01161 0.8471 0.0
C2751 C 0.28041 0.14593 0.82437 0.0
C2752 C 0.31927 0.10791 0.83387 0.0
H2753 H 0.30179 0.03231 0.83413 0.0
C2754 C 0.33978 0.11879 0.83954 0.0
C2755 C 0.30513 0.0763 0.83194 0.0
C2756 C 0.2836 0.06365 0.82576 0.0
C2757 C 0.34656 0.09879 0.84334 0.0
C2758 C 0.33307 0.06732 0.84129 0.0
C2759 C 0.31211 0.05642 0.8357 0.0
C2760 C 0.34078 0.04528 0.84472 0.0
C2761 C 0.36788 0.11151 0.84955 0.0
C2762 C 0.37152 0.05133 0.84495 0.0
C2763 C 0.37832 0.02941 0.84772 0.0
C2764 C 0.35445 0.00071 0.85022 0.0
C2765 C 0.32369 0.99491 0.85 0.0
C2766 C 0.31698 0.01693 0.84729 0.0
H2767 H 0.36812 0.13233 0.85172 0.0
H2768 H 0.36091 0.09383 0.85372 0.0
H2769 H 0.3919 0.11855 0.84791 0.0
H2770 H 0.39023 0.07272 0.84284 0.0
H2771 H 0.4023 0.03501 0.84785 0.0
H2772 H 0.81749 0.17923 0.81541 0.0
H2773 H 0.84817 0.21915 0.82394 0.0
H2774 H 0.87451 0.15769 0.8337 0.0
H2775 H 0.84436 0.11762 0.82502 0.0
H2776 H 0.85025 0.22439 0.83821 0.0
H2777 H 0.95771 0.23069 0.82783 0.0
H2778 H 0.92066 0.20888 0.82355 0.0
H2779 H 0.92916 0.1935 0.83117 0.0
C2780 C 0.82942 0.17394 0.81943 0.0
C2781 C 0.8289 0.14543 0.81947 0.0
C2782 C 0.8469 0.19681 0.82432 0.0
C2783 C 0.86419 0.19166 0.82936 0.0
C2784 C 0.86189 0.16237 0.82975 0.0
H2785 H 0.01201 0.33326 0.85514 0.0
H2786 H 0.97126 0.28325 0.85076 0.0
C2787 C 0.84445 0.13943 0.82482 0.0
C2788 C 0.88635 0.21793 0.83376 0.0
H2789 H 0.96385 0.26623 0.83657 0.0
C2790 C 0.87508 0.23337 0.83791 0.0
C2791 C 0.91877 0.22973 0.83332 0.0
C2792 C 0.93244 0.21508 0.82869 0.0
C2793 C 0.89538 0.26058 0.84155 0.0
C2794 C 0.92774 0.27273 0.84096 0.0
C2795 C 0.93898 0.25676 0.83701 0.0
C2796 C 0.95056 0.30288 0.84408 0.0
C2797 C 0.8821 0.27625 0.84595 0.0
C2798 C 0.9524 0.3305 0.84176 0.0
C2799 C 0.97592 0.35922 0.84419 0.0
C2800 C 0.99814 0.36084 0.84896 0.0
C2801 C 0.99569 0.33298 0.85138 0.0
C2802 C 0.97225 0.30432 0.84893 0.0
H2803 H 0.85748 0.26002 0.84735 0.0
H2804 H 0.89575 0.28576 0.8508 0.0
H2805 H 0.88303 0.29582 0.84298 0.0
H2806 H 0.93627 0.32991 0.8379 0.0
H2807 H 0.97729 0.38012 0.84214 0.0
H2808 H 0.7161 0.68127 0.64916 0.0
H2809 H 0.72149 0.73084 0.65272 0.0
H2810 H 0.62331 0.69379 0.64982 0.0
H2811 H 0.61766 0.64431 0.64606 0.0
H2812 H 0.70045 0.77022 0.64484 0.0
H2813 H 0.6449 0.72623 0.67067 0.0
H2814 H 0.66144 0.70728 0.66568 0.0
H2815 H 0.62496 0.70336 0.66314 0.0
C2816 C 0.69565 0.68363 0.64919 0.0
C2817 C 0.6664 0.65855 0.64733 0.0
C2818 C 0.6988 0.71201 0.65124 0.0
C2819 C 0.67279 0.71584 0.65155 0.0
C2820 C 0.64362 0.69112 0.64966 0.0
H2821 H 0.65201 0.86212 0.67073 0.0
H2822 H 0.64225 0.81688 0.66382 0.0
C2823 C 0.64043 0.66276 0.64756 0.0
C2824 C 0.67609 0.74545 0.65405 0.0
H2825 H 0.66081 0.77808 0.66798 0.0
C2826 C 0.69171 0.77204 0.64988 0.0
C2827 C 0.66453 0.74755 0.66061 0.0
C2828 C 0.64816 0.71971 0.66534 0.0
C2829 C 0.696 0.80084 0.65211 0.0
C2830 C 0.68501 0.80313 0.65875 0.0
C2831 C 0.66909 0.77634 0.66287 0.0
C2832 C 0.69075 0.83309 0.66173 0.0
C2833 C 0.71187 0.82837 0.64729 0.0
C2834 C 0.7212 0.8578 0.66266 0.0
C2835 C 0.72679 0.88394 0.66652 0.0
C2836 C 0.70204 0.8855 0.66963 0.0
C2837 C 0.67152 0.86154 0.66839 0.0
C2838 C 0.66593 0.83564 0.66446 0.0
H2839 H 0.70945 0.82093 0.64177 0.0
H2840 H 0.7023 0.84418 0.64789 0.0
H2841 H 0.73701 0.84154 0.64853 0.0
H2842 H 0.74079 0.85611 0.66076 0.0
H2843 H 0.75059 0.90183 0.66748 0.0
H2844 H 0.15045 0.80202 0.67516 0.0
H2845 H 0.19258 0.83838 0.66767 0.0
H2846 H 0.1335 0.87096 0.65934 0.0
H2847 H 0.09126 0.83506 0.66697 0.0
H2848 H 0.20171 0.85112 0.65355 0.0
H2849 H 0.20429 0.9488 0.66823 0.0
H2850 H 0.18179 0.90903 0.67107 0.0
H2851 H 0.16798 0.92299 0.6641 0.0
C2852 C 0.14615 0.81649 0.67164 0.0
C2853 C 0.11766 0.816 0.67174 0.0
C2854 C 0.17029 0.83725 0.66736 0.0
C2855 C 0.1664 0.85789 0.66309 0.0
C2856 C 0.13717 0.8557 0.66273 0.0
H2857 H 0.30859 0.02078 0.64114 0.0
H2858 H 0.25902 0.97787 0.6451 0.0
C2859 C 0.11298 0.83497 0.66704 0.0
C2860 C 0.1937 0.88315 0.65949 0.0
H2861 H 0.24129 0.96186 0.65935 0.0
C2862 C 0.21026 0.87535 0.65477 0.0
C2863 C 0.20493 0.91475 0.66115 0.0
C2864 C 0.18905 0.92452 0.66645 0.0
C2865 C 0.23787 0.89831 0.6517 0.0
C2866 C 0.24928 0.92979 0.65344 0.0
C2867 C 0.23237 0.93766 0.65802 0.0
C2868 C 0.27933 0.95493 0.65078 0.0
C2869 C 0.25467 0.88876 0.64662 0.0
C2870 C 0.30719 0.95635 0.65272 0.0
C2871 C 0.33568 0.98109 0.65054 0.0
C2872 C 0.33685 0.00494 0.64638 0.0
C2873 C 0.30874 0.0032 0.64441 0.0
C2874 C 0.28031 0.97853 0.64663 0.0
H2875 H 0.23928 0.86502 0.64455 0.0
H2876 H 0.264 0.90527 0.64219 0.0
H2877 H 0.2745 0.88892 0.6493 0.0
H2878 H 0.30693 0.93866 0.65605 0.0
H2879 H 0.35676 0.98183 0.65225 0.0
H2880 H 0.21065 0.34837 0.66847 0.0
H2881 H 0.17128 0.35053 0.66126 0.0
H2882 H 0.12552 0.25152 0.65822 0.0
H2883 H 0.16485 0.24904 0.66539 0.0
H2884 H 0.13711 0.31795 0.64654 0.0
H2885 H 0.07124 0.27913 0.6715 0.0
H2886 H 0.11311 0.2989 0.67136 0.0
H2887 H 0.09112 0.2597 0.66832 0.0
C2888 C 0.19287 0.3272 0.66606 0.0
C2889 C 0.19061 0.2985 0.66757 0.0
C2890 C 0.17047 0.32851 0.66193 0.0
C2891 C 0.14551 0.30116 0.65928 0.0
C2892 C 0.14476 0.27285 0.66022 0.0
H2893 H 0.9641 0.28191 0.65241 0.0
H2894 H 0.00565 0.26935 0.65346 0.0
C2895 C 0.16729 0.27153 0.66431 0.0
C2896 C 0.11782 0.30165 0.65671 0.0
H2897 H 0.04907 0.29272 0.66245 0.0
C2898 C 0.1176 0.31211 0.64995 0.0
C2899 C 0.09248 0.29379 0.6612 0.0
C2900 C 0.09175 0.28231 0.66851 0.0
C2901 C 0.0926 0.31531 0.64758 0.0
C2902 C 0.06786 0.30891 0.6522 0.0
C2903 C 0.06793 0.29765 0.6589 0.0
C2904 C 0.04236 0.31506 0.65041 0.0
C2905 C 0.09293 0.32527 0.64016 0.0
C2906 C 0.04895 0.34469 0.6482 0.0
C2907 C 0.02508 0.35159 0.64746 0.0
C2908 C 0.99439 0.32927 0.64911 0.0
C2909 C 0.98768 0.29948 0.65115 0.0
C2910 C 0.01138 0.29235 0.65174 0.0
H2911 H 0.10627 0.31806 0.63676 0.0
H2912 H 0.06907 0.31537 0.63804 0.0
H2913 H 0.10447 0.35096 0.63994 0.0
H2914 H 0.07267 0.36295 0.64736 0.0
H2915 H 0.03078 0.37484 0.64597 0.0
H2916 H 0.80948 0.68813 0.50529 0.0
H2917 H 0.8529 0.69861 0.49764 0.0
H2918 H 0.81571 0.60018 0.4949 0.0
H2919 H 0.77175 0.58963 0.50235 0.0
H2920 H 0.89403 0.68235 0.50115 0.0
H2921 H 0.84537 0.6301 0.47553 0.0
H2922 H 0.82307 0.63692 0.48198 0.0
H2923 H 0.82702 0.60291 0.48248 0.0
C2924 C 0.81004 0.66876 0.50286 0.0
C2925 C 0.78726 0.63808 0.50441 0.0
C2926 C 0.8349 0.67477 0.49851 0.0
C2927 C 0.83756 0.65022 0.49566 0.0
C2928 C 0.81386 0.61955 0.49689 0.0
H2929 H 0.98591 0.62376 0.4817 0.0
H2930 H 0.93741 0.61965 0.48565 0.0
C2931 C 0.78872 0.61352 0.50117 0.0
C2932 C 0.86698 0.65656 0.49227 0.0
H2933 H 0.89699 0.63978 0.47802 0.0
C2934 C 0.8947 0.67349 0.49604 0.0
C2935 C 0.86787 0.64485 0.48561 0.0
C2936 C 0.83926 0.62796 0.48114 0.0
C2937 C 0.92306 0.67815 0.49345 0.0
C2938 C 0.92375 0.66566 0.4869 0.0
C2939 C 0.89625 0.64924 0.48305 0.0
C2940 C 0.9527 0.66826 0.48415 0.0
C2941 C 0.95195 0.69546 0.49783 0.0
C2942 C 0.97725 0.69696 0.48195 0.0
C2943 C 0.00503 0.69941 0.47963 0.0
C2944 C 0.00877 0.67316 0.47948 0.0
C2945 C 0.98387 0.6444 0.48165 0.0
C2946 C 0.95609 0.64197 0.48393 0.0
H2947 H 0.94667 0.69978 0.50319 0.0
H2948 H 0.96446 0.68223 0.49814 0.0
H2949 H 0.96777 0.71818 0.49537 0.0
H2950 H 0.97491 0.71747 0.48204 0.0
H2951 H 0.02338 0.72181 0.47789 0.0
H2952 H 0.37551 0.3595 0.47427 0.0
H2953 H 0.38348 0.317 0.47785 0.0
H2954 H 0.29628 0.2745 0.48883 0.0
H2955 H 0.28832 0.31736 0.48541 0.0
H2956 H 0.38548 0.29996 0.4921 0.0
H2957 H 0.29319 0.20316 0.47675 0.0
H2958 H 0.30786 0.24349 0.47459 0.0
H2959 H 0.2809 0.22596 0.48163 0.0
C2960 C 0.35801 0.34129 0.47747 0.0
C2961 C 0.3313 0.3421 0.47958 0.0
C2962 C 0.36254 0.31685 0.47946 0.0
C2963 C 0.34033 0.29248 0.48353 0.0
C2964 C 0.31344 0.29285 0.48557 0.0
H2965 H 0.32046 0.13754 0.50644 0.0
H2966 H 0.31382 0.17422 0.49929 0.0
C2967 C 0.30894 0.3174 0.48361 0.0
C2968 C 0.34624 0.26771 0.486 0.0
H2969 H 0.31808 0.18952 0.48549 0.0
C2970 C 0.37102 0.27584 0.49061 0.0
C2971 C 0.32724 0.23634 0.48403 0.0
C2972 C 0.30093 0.2266 0.47894 0.0
C2973 C 0.37657 0.25323 0.49353 0.0
C2974 C 0.35731 0.2217 0.49164 0.0
C2975 C 0.33296 0.2137 0.4869 0.0
C2976 C 0.3603 0.19654 0.49504 0.0
C2977 C 0.40206 0.26318 0.49888 0.0
C2978 C 0.38817 0.19585 0.49476 0.0
C2979 C 0.39215 0.17492 0.49889 0.0
C2980 C 0.36819 0.15424 0.50332 0.0
C2981 C 0.33949 0.15335 0.50314 0.0
C2982 C 0.33561 0.17431 0.49904 0.0
H2983 H 0.40993 0.28694 0.50087 0.0
H2984 H 0.39421 0.24691 0.50336 0.0
H2985 H 0.42233 0.26318 0.49648 0.0
H2986 H 0.40727 0.21232 0.49157 0.0
H2987 H 0.41449 0.17611 0.4989 0.0
H2988 H 0.62624 0.01308 0.48271 0.0
H2989 H 0.66782 0.06348 0.48653 0.0
H2990 H 0.73164 0.02865 0.48646 0.0
H2991 H 0.69062 0.97858 0.48226 0.0
H2992 H 0.7009 0.07885 0.49816 0.0
H2993 H 0.78089 0.10808 0.47579 0.0
H2994 H 0.74134 0.07637 0.47555 0.0
H2995 H 0.77118 0.07149 0.47964 0.0
C2996 C 0.64917 0.01612 0.48337 0.0
C2997 C 0.65492 0.99156 0.48208 0.0
C2998 C 0.67295 0.04502 0.48561 0.0
C2999 C 0.70304 0.05011 0.48665 0.0
C3000 C 0.70881 0.02557 0.48551 0.0
H3001 H 0.86695 0.18552 0.50719 0.0
H3002 H 0.82816 0.14307 0.50008 0.0
C3003 C 0.6851 0.99669 0.48321 0.0
C3004 C 0.72793 0.08064 0.48923 0.0
H3005 H 0.80203 0.13898 0.48606 0.0
C3006 C 0.72285 0.09218 0.49546 0.0
C3007 C 0.75653 0.09812 0.48569 0.0
C3008 C 0.76273 0.08805 0.47876 0.0
C3009 C 0.74595 0.12011 0.49838 0.0
C3010 C 0.77485 0.13704 0.49495 0.0
C3011 C 0.7798 0.12589 0.48866 0.0
C3012 C 0.80085 0.16509 0.49813 0.0
C3013 C 0.7397 0.13077 0.50524 0.0
C3014 C 0.79908 0.19212 0.49909 0.0
C3015 C 0.82135 0.21656 0.50312 0.0
C3016 C 0.84558 0.21414 0.50627 0.0
C3017 C 0.84848 0.18798 0.50485 0.0
C3018 C 0.82635 0.16371 0.5008 0.0
H3019 H 0.7182 0.11248 0.50777 0.0
H3020 H 0.75947 0.13771 0.50888 0.0
H3021 H 0.73701 0.15134 0.50436 0.0
H3022 H 0.77968 0.19369 0.497 0.0
H3023 H 0.8184 0.23634 0.50414 0.0
H3024 H 0.91 0.43458 0.65798 0.0
H3025 H 0.91891 0.48073 0.66445 0.0
H3026 H 0.01656 0.51115 0.66573 0.0
H3027 H 0.00799 0.4655 0.65913 0.0
H3028 H 0.94563 0.50828 0.67729 0.0
H3029 H 0.01504 0.58127 0.65504 0.0
H3030 H 0.99172 0.53958 0.65447 0.0
H3031 H 0.02909 0.5573 0.65863 0.0
C3032 C 0.93325 0.45073 0.65978 0.0
C3033 C 0.95839 0.44665 0.65799 0.0
C3034 C 0.93831 0.47713 0.66346 0.0
C3035 C 0.9685 0.4997 0.66541 0.0
C3036 C 0.9932 0.49438 0.66412 0.0
H3037 H 0.04561 0.68679 0.682 0.0
H3038 H 0.0377 0.63643 0.67823 0.0
C3039 C 0.98823 0.46821 0.66038 0.0
C3040 C 0.9745 0.52977 0.66833 0.0
H3041 H 0.01263 0.60766 0.66502 0.0
C3042 C 0.96028 0.53003 0.67462 0.0
C3043 C 0.99349 0.55809 0.6648 0.0
C3044 C 0.008 0.55917 0.65783 0.0
C3045 C 0.96487 0.55795 0.67751 0.0
C3046 C 0.98388 0.58618 0.67398 0.0
C3047 C 0.99825 0.58595 0.66772 0.0
C3048 C 0.98836 0.61621 0.67653 0.0
C3049 C 0.94959 0.55713 0.68434 0.0
C3050 C 0.9633 0.62161 0.67671 0.0
C3051 C 0.96778 0.65049 0.67877 0.0
C3052 C 0.99745 0.67461 0.68069 0.0
C3053 C 0.02253 0.66902 0.68049 0.0
C3054 C 0.01803 0.64014 0.67839 0.0
H3055 H 0.94198 0.53501 0.68718 0.0
H3056 H 0.96563 0.57676 0.68773 0.0
H3057 H 0.92883 0.55937 0.68335 0.0
H3058 H 0.94035 0.60365 0.67513 0.0
H3059 H 0.94803 0.65402 0.67873 0.0
H3060 H 0.51933 0.53154 0.65383 0.0
H3061 H 0.479 0.49642 0.66179 0.0
H3062 H 0.53838 0.4621 0.66899 0.0
H3063 H 0.57882 0.49681 0.66086 0.0
H3064 H 0.48409 0.41631 0.66442 0.0
H3065 H 0.46041 0.4891 0.68219 0.0
H3066 H 0.46013 0.50006 0.67332 0.0
H3067 H 0.49545 0.50472 0.67706 0.0
C3068 C 0.52422 0.51715 0.65724 0.0
C3069 C 0.55218 0.51677 0.65667 0.0
C3070 C 0.50116 0.49723 0.66184 0.0
C3071 C 0.50572 0.4768 0.66604 0.0
C3072 C 0.53443 0.4778 0.66582 0.0
H3073 H 0.35738 0.31159 0.68685 0.0
H3074 H 0.40879 0.3546 0.68389 0.0
C3075 C 0.55756 0.49772 0.66119 0.0
C3076 C 0.47897 0.45151 0.6698 0.0
H3077 H 0.41748 0.43674 0.68022 0.0
C3078 C 0.46994 0.42075 0.66801 0.0
C3079 C 0.46042 0.4573 0.67446 0.0
C3080 C 0.46982 0.48962 0.67692 0.0
C3081 C 0.44199 0.3958 0.67044 0.0
C3082 C 0.42271 0.40178 0.67479 0.0
C3083 C 0.43228 0.43234 0.67683 0.0
C3084 C 0.39165 0.37668 0.67691 0.0
C3085 C 0.43246 0.36333 0.66805 0.0
C3086 C 0.36505 0.37518 0.67403 0.0
C3087 C 0.33562 0.35047 0.67565 0.0
C3088 C 0.33224 0.32687 0.68021 0.0
C3089 C 0.35905 0.32894 0.68321 0.0
C3090 C 0.38848 0.35361 0.68157 0.0
H3091 H 0.44801 0.36314 0.66392 0.0
H3092 H 0.43314 0.34963 0.67253 0.0
H3093 H 0.4083 0.35156 0.66603 0.0
H3094 H 0.36713 0.39278 0.6704 0.0
H3095 H 0.31562 0.34954 0.67318 0.0
H3096 H 0.50342 0.07792 0.65821 0.0
H3097 H 0.5423 0.07403 0.66528 0.0
H3098 H 0.50767 0.98038 0.658 0.0
H3099 H 0.46834 0.98372 0.6511 0.0
H3100 H 0.52419 0.98678 0.67169 0.0
H3101 H 0.6182 0.08025 0.65588 0.0
H3102 H 0.59352 0.0913 0.66034 0.0
H3103 H 0.57781 0.06277 0.65353 0.0
C3104 C 0.50359 0.05624 0.65825 0.0
C3105 C 0.483 0.03122 0.65403 0.0
C3106 C 0.52606 0.05419 0.66223 0.0
C3107 C 0.52842 0.02722 0.66201 0.0
C3108 C 0.50647 0.00152 0.6582 0.0
H3109 H 0.65444 0.96214 0.67175 0.0
H3110 H 0.61093 0.96883 0.66825 0.0
C3111 C 0.48396 0.00348 0.65425 0.0
C3112 C 0.55468 0.02605 0.66535 0.0
H3113 H 0.6334 0.05748 0.66463 0.0
C3114 C 0.54809 0.00237 0.67018 0.0
C3115 C 0.58587 0.04638 0.66335 0.0
C3116 C 0.59438 0.07144 0.65795 0.0
C3117 C 0.57177 0.99821 0.67301 0.0
C3118 C 0.60278 0.01806 0.6709 0.0
C3119 C 0.60953 0.0423 0.66623 0.0
C3120 C 0.62849 0.01343 0.67328 0.0
C3121 C 0.56345 0.97257 0.67823 0.0
C3122 C 0.65293 0.03645 0.67719 0.0
C3123 C 0.67778 0.03265 0.67923 0.0
C3124 C 0.67886 0.00585 0.67734 0.0
C3125 C 0.65423 0.98282 0.6734 0.0
C3126 C 0.62931 0.98661 0.67139 0.0
H3127 H 0.54026 0.96455 0.68058 0.0
H3128 H 0.56288 0.95249 0.67557 0.0
H3129 H 0.58101 0.98031 0.68245 0.0
H3130 H 0.65273 0.05735 0.67868 0.0
H3131 H 0.69599 0.05068 0.68234 0.0
H3132 H 0.34022 0.99166 0.19425 0.0
H3133 H 0.38933 0.00807 0.18829 0.0
H3134 H 0.33978 0.95611 0.17013 0.0
H3135 H 0.29042 0.93867 0.1761 0.0
H3136 H 0.40873 0.96528 0.182 0.0
H3137 H 0.40294 0.04804 0.16344 0.0
H3138 H 0.38098 0.0363 0.17145 0.0
H3139 H 0.36857 0.01045 0.16413 0.0
C3140 C 0.3396 0.98343 0.18901 0.0
C3141 C 0.31117 0.96367 0.18568 0.0
C3142 C 0.36776 0.99303 0.1856 0.0
C3143 C 0.36808 0.98343 0.17877 0.0
C3144 C 0.33991 0.96403 0.17539 0.0
H3145 H 0.50048 0.97602 0.15211 0.0
H3146 H 0.45989 0.96576 0.16059 0.0
C3147 C 0.3117 0.9542 0.17881 0.0
C3148 C 0.39791 0.99308 0.17524 0.0
H3149 H 0.44286 0.03596 0.16162 0.0
C3150 C 0.41638 0.98092 0.17757 0.0
C3151 C 0.40787 0.01375 0.16954 0.0
C3152 C 0.38926 0.02817 0.16699 0.0
C3153 C 0.44415 0.98805 0.17417 0.0
C3154 C 0.4535 0.00778 0.1683 0.0
C3155 C 0.43558 0.02082 0.16613 0.0
C3156 C 0.48052 0.01345 0.16402 0.0
C3157 C 0.46315 0.97426 0.17683 0.0
C3158 C 0.50582 0.04361 0.16322 0.0
C3159 C 0.52923 0.04952 0.15841 0.0
C3160 C 0.52729 0.0254 0.15423 0.0
C3161 C 0.5026 0.99503 0.15526 0.0
C3162 C 0.47945 0.98911 0.16012 0.0
H3163 H 0.45713 0.96612 0.18229 0.0
H3164 H 0.45855 0.95405 0.17355 0.0
H3165 H 0.48834 0.99143 0.17653 0.0
H3166 H 0.50689 0.06271 0.16616 0.0
H3167 H 0.54781 0.07321 0.15767 0.0
H3168 H 0.93819 0.48403 0.15957 0.0
H3169 H 0.94961 0.45441 0.16808 0.0
H3170 H 0.03792 0.48434 0.15817 0.0
H3171 H 0.02709 0.51437 0.1498 0.0
H3172 H 0.95679 0.40635 0.1643 0.0
H3173 H 0.06238 0.49142 0.1783 0.0
H3174 H 0.03893 0.50278 0.17331 0.0
H3175 H 0.06748 0.49628 0.16906 0.0
C3176 C 0.96044 0.48505 0.15934 0.0
C3177 C 0.98168 0.5014 0.15399 0.0
C3178 C 0.96689 0.46806 0.16419 0.0
C3179 C 0.99477 0.4674 0.16381 0.0
C3180 C 0.01661 0.48504 0.15869 0.0
H3181 H 0.06487 0.34728 0.17411 0.0
H3182 H 0.05576 0.38883 0.17016 0.0
C3183 C 0.01022 0.50201 0.15385 0.0
C3184 C 0.99935 0.44514 0.16806 0.0
H3185 H 0.05254 0.43854 0.17806 0.0
C3186 C 0.9774 0.41344 0.16743 0.0
C3187 C 0.02637 0.45439 0.1721 0.0
C3188 C 0.04995 0.48812 0.17329 0.0
C3189 C 0.98244 0.39069 0.17045 0.0
C3190 C 0.01002 0.39992 0.17426 0.0
C3191 C 0.03152 0.4316 0.17509 0.0
C3192 C 0.01733 0.37677 0.17715 0.0
C3193 C 0.95889 0.35689 0.16929 0.0
C3194 C 0.99921 0.35682 0.18251 0.0
C3195 C 0.0044 0.33316 0.18479 0.0
C3196 C 0.02785 0.32902 0.18176 0.0
C3197 C 0.04675 0.34989 0.17658 0.0
C3198 C 0.04154 0.37359 0.1743 0.0
H3199 H 0.9417 0.35367 0.16522 0.0
H3200 H 0.9706 0.34375 0.16776 0.0
H3201 H 0.94614 0.34671 0.17421 0.0
H3202 H 0.98071 0.35924 0.18484 0.0
H3203 H 0.98988 0.31799 0.1889 0.0
H3204 H 0.51611 0.44738 0.16034 0.0
H3205 H 0.54543 0.4873 0.16909 0.0
H3206 H 0.51245 0.54521 0.16025 0.0
H3207 H 0.48271 0.50539 0.15165 0.0
H3208 H 0.59218 0.54333 0.16531 0.0
H3209 H 0.50807 0.56041 0.18066 0.0
H3210 H 0.49654 0.52618 0.17543 0.0
H3211 H 0.50171 0.56136 0.17151 0.0
C3212 C 0.51428 0.46818 0.16042 0.0
C3213 C 0.49727 0.47334 0.15527 0.0
C3214 C 0.53112 0.49101 0.16541 0.0
C3215 C 0.53097 0.51918 0.16537 0.0
C3216 C 0.51243 0.52346 0.1605 0.0
H3217 H 0.64835 0.70901 0.1762 0.0
H3218 H 0.6072 0.65805 0.17231 0.0
C3219 C 0.49561 0.50071 0.15553 0.0
C3220 C 0.55353 0.54582 0.16963 0.0
H3221 H 0.56053 0.60423 0.18019 0.0
C3222 C 0.58524 0.55626 0.16869 0.0
C3223 C 0.54446 0.56281 0.17399 0.0
C3224 C 0.51081 0.55191 0.17551 0.0
C3225 C 0.60811 0.58404 0.17169 0.0
C3226 C 0.59902 0.60164 0.17582 0.0
C3227 C 0.56737 0.59072 0.17698 0.0
C3228 C 0.62219 0.63218 0.17869 0.0
C3229 C 0.64182 0.59511 0.17015 0.0
C3230 C 0.64375 0.63441 0.18368 0.0
C3231 C 0.66724 0.66346 0.18592 0.0
C3232 C 0.66956 0.69085 0.18323 0.0
C3233 C 0.64717 0.68845 0.17841 0.0
C3234 C 0.62367 0.65935 0.17617 0.0
H3235 H 0.64464 0.58184 0.16584 0.0
H3236 H 0.6543 0.62013 0.16876 0.0
H3237 H 0.653 0.59221 0.17486 0.0
H3238 H 0.64266 0.61365 0.18576 0.0
H3239 H 0.68364 0.66442 0.18975 0.0
H3240 H 0.36166 0.99673 0.9802 0.0
H3241 H 0.36712 0.04514 0.9846 0.0
H3242 H 0.26851 0.00793 0.98261 0.0
H3243 H 0.26271 0.9595 0.97799 0.0
H3244 H 0.34296 0.08608 0.97803 0.0
H3245 H 0.29485 0.0337 0.00394 0.0
H3246 H 0.31136 0.01733 -0.00189 0.0
H3247 H 0.27407 0.01297 0.99626 0.0
C3248 C 0.3411 0.99883 0.98057 0.0
C3249 C 0.31168 0.97396 0.97875 0.0
C3250 C 0.34432 0.02658 0.9831 0.0
C3251 C 0.31823 0.02997 0.98393 0.0
C3252 C 0.28889 0.00559 0.98203 0.0
H3253 H 0.30923 0.17038 0.00896 0.0
H3254 H 0.29465 0.12774 0.00075 0.0
C3255 C 0.28563 0.97783 0.97944 0.0
C3256 C 0.3217 0.05847 0.98716 0.0
H3257 H 0.31227 0.08664 0.00255 0.0
C3258 C 0.33602 0.0863 0.98337 0.0
C3259 C 0.3125 0.05846 0.9941 0.0
C3260 C 0.29745 0.02913 -0.00161 0.0
C3261 C 0.34164 0.11437 0.98639 0.0
C3262 C 0.33344 0.11458 0.99343 0.0
C3263 C 0.31846 0.0865 -0.00285 0.0
C3264 C 0.3416 0.14362 -0.00275 0.0
C3265 C 0.35614 0.14338 0.982 0.0
C3266 C 0.37272 0.16736 -0.00216 0.0
C3267 C 0.38103 0.19207 0.00245 0.0
C3268 C 0.35841 0.193 0.00665 0.0
C3269 C 0.32713 0.17015 0.00579 0.0
C3270 C 0.31879 0.14577 0.00111 0.0
H3271 H 0.35094 0.13775 0.97639 0.0
H3272 H 0.34783 0.15946 0.98357 0.0
H3273 H 0.38172 0.15551 0.98264 0.0
H3274 H 0.39086 0.16587 0.99506 0.0
H3275 H 0.40537 0.20915 0.00307 0.0
H3276 H 0.78515 0.18268 2e-05 0.0
H3277 H 0.82461 0.21133 0.99113 0.0
H3278 H 0.88312 0.17928 6e-05 0.0
H3279 H 0.84378 0.15022 0.0088 0.0
H3280 H 0.88097 0.25844 0.99452 0.0
H3281 H 0.89656 0.17216 0.97969 0.0
H3282 H 0.86281 0.16139 0.98504 0.0
H3283 H 0.89829 0.16696 0.98888 0.0
C3284 C 0.80601 0.18096 -6e-05 0.0
C3285 C 0.81144 0.16435 0.00514 0.0
C3286 C 0.82856 0.1974 0.99487 0.0
C3287 C 0.85673 0.19723 0.99488 0.0
C3288 C 0.86135 0.17922 -0.00017 0.0
H3289 H 0.04586 0.31345 0.98358 0.0
H3290 H 0.99503 0.2725 0.9876 0.0
C3291 C 0.83888 0.16281 0.00488 0.0
C3292 C 0.88303 0.21917 0.99045 0.0
H3293 H 0.94066 0.22456 0.97986 0.0
C3294 C 0.89362 0.251 0.99119 0.0
C3295 C 0.89965 0.20944 0.98615 0.0
C3296 C 0.88852 0.17558 0.98484 0.0
C3297 C 0.92122 0.2734 0.98803 0.0
C3298 C 0.9385 0.26368 0.98397 0.0
C3299 C 0.92741 0.23188 0.98302 0.0
C3300 C 0.96893 0.28639 0.98098 0.0
C3301 C 0.93249 0.30733 0.98934 0.0
C3302 C 0.97097 0.3072 0.97582 0.0
C3303 C 0.99993 0.33055 0.9735 0.0
C3304 C 0.02743 0.3335 0.97631 0.0
C3305 C 0.02522 0.31176 0.98128 0.0
C3306 C 0.9962 0.28839 0.9836 0.0
H3307 H 0.91936 0.3108 0.99358 0.0
H3308 H 0.95753 0.31985 0.99072 0.0
H3309 H 0.92962 0.31797 0.98453 0.0
H3310 H 0.95013 0.3057 0.97367 0.0
H3311 H 0.00076 0.34644 0.96955 0.0
H3312 H 0.85182 0.6913 0.00963 0.0
H3313 H 0.82105 0.69985 0.00099 0.0
H3314 H 0.79563 0.61184 0.99144 0.0
H3315 H 0.82582 0.60262 0.00022 0.0
H3316 H 0.81796 0.70195 0.98667 0.0
H3317 H 0.71228 0.60044 -0.00238 0.0
H3318 H 0.7497 0.61661 0.00176 0.0
H3319 H 0.74107 0.59231 0.99422 0.0
C3320 C 0.84014 0.67393 0.00562 0.0
C3321 C 0.84078 0.64601 0.00569 0.0
C3322 C 0.82261 0.67892 0.00068 0.0
C3323 C 0.80546 0.65615 0.99568 0.0
C3324 C 0.80814 0.62938 0.99536 0.0
H3325 H 0.65321 0.64712 0.97105 0.0
H3326 H 0.69492 0.63829 0.97492 0.0
C3327 C 0.82559 0.62427 0.00034 0.0
C3328 C 0.78269 0.65946 0.99134 0.0
H3329 H 0.70479 0.62923 0.98898 0.0
C3330 C 0.79323 0.68586 0.98711 0.0
C3331 C 0.7504 0.63851 0.99195 0.0
C3332 C 0.73754 0.6105 0.99667 0.0
C3333 C 0.77229 0.69222 0.98359 0.0
C3334 C 0.74007 0.67178 0.98438 0.0
C3335 C 0.72956 0.64479 0.98838 0.0
C3336 C 0.71668 0.67886 0.98153 0.0
C3337 C 0.78476 0.72093 0.97913 0.0
C3338 C 0.71511 0.7046 0.98398 0.0
C3339 C 0.69106 0.70954 0.98185 0.0
C3340 C 0.66804 0.68872 0.97725 0.0
C3341 C 0.67018 0.66334 0.97469 0.0
C3342 C 0.69416 0.65838 0.97684 0.0
H3343 H 0.80914 0.7293 0.97752 0.0
H3344 H 0.77031 0.7165 0.9744 0.0
H3345 H 0.78429 0.7397 0.98215 0.0
H3346 H 0.73188 0.7203 0.98773 0.0
H3347 H 0.68996 0.72905 0.98401 0.0
H3348 H 0.70447 0.08242 0.8104 0.0
H3349 H 0.65632 0.07738 0.81503 0.0
H3350 H 0.61728 0.97838 0.81669 0.0
H3351 H 0.66531 0.98309 0.81227 0.0
H3352 H 0.57723 0.0016 0.81027 0.0
H3353 H 0.62905 0.05266 0.83604 0.0
H3354 H 0.64945 0.07356 0.82835 0.0
H3355 H 0.64633 0.03684 0.83028 0.0
C3356 C 0.6858 0.05959 0.81179 0.0
C3357 C 0.68898 0.03318 0.81097 0.0
C3358 C 0.65822 0.05676 0.81439 0.0
C3359 C 0.63335 0.02751 0.81619 0.0
C3360 C 0.63619 0.00112 0.81528 0.0
H3361 H 0.45551 0.93845 0.83553 0.0
H3362 H 0.49838 0.95383 0.82736 0.0
C3363 C 0.66372 0.00391 0.81272 0.0
C3364 C 0.60474 0.02427 0.81933 0.0
H3365 H 0.57604 0.03464 0.83455 0.0
C3366 C 0.5769 0.00909 0.81555 0.0
C3367 C 0.60455 0.03418 0.8262 0.0
C3368 C 0.63383 0.05009 0.8305 0.0
C3369 C 0.54864 0.00317 0.81852 0.0
C3370 C 0.54823 0.01198 0.8255 0.0
C3371 C 0.57632 0.02797 0.82919 0.0
C3372 C 0.519 0.00315 0.82932 0.0
C3373 C 0.51961 0.98761 0.81414 0.0
C3374 C 0.51594 0.0257 0.83306 0.0
C3375 C 0.49175 0.01688 0.83782 0.0
C3376 C 0.47002 0.98537 0.83888 0.0
C3377 C 0.47167 0.96294 0.83475 0.0
C3378 C 0.49617 0.97175 0.83006 0.0
H3379 H 0.52512 0.99245 0.80852 0.0
H3380 H 0.50815 0.96211 0.81488 0.0
H3381 H 0.50299 0.99535 0.81563 0.0
H3382 H 0.53325 0.05005 0.83258 0.0
H3383 H 0.491 0.03464 0.84094 0.0
H3384 H 0.00545 0.67791 0.80477 0.0
H3385 H 0.01412 0.63657 0.80897 0.0
H3386 H 0.93566 0.60488 0.82275 0.0
H3387 H 0.92706 0.64651 0.81866 0.0
H3388 H 0.02655 0.63046 0.82303 0.0
H3389 H 0.9225 0.52418 0.81341 0.0
H3390 H 0.93507 0.56222 0.80982 0.0
H3391 H 0.91428 0.5509 0.81792 0.0
C3392 C 0.98997 0.66218 0.80869 0.0
C3393 C 0.96568 0.66575 0.81142 0.0
C3394 C 0.99483 0.6384 0.81104 0.0
C3395 C 0.97533 0.61749 0.8161 0.0
C3396 C 0.95058 0.6204 0.81872 0.0
H3397 H 0.97174 0.48568 0.8445 0.0
H3398 H 0.96005 0.51552 0.83623 0.0
C3399 C 0.94573 0.64426 0.81639 0.0
C3400 C 0.98263 0.59451 0.81912 0.0
H3401 H 0.95293 0.51706 0.82204 0.0
C3402 C 0.01071 0.60562 0.82273 0.0
C3403 C 0.96181 0.5622 0.81873 0.0
C3404 C 0.93182 0.54905 0.81471 0.0
C3405 C 0.01796 0.58538 0.82625 0.0
C3406 C 0.99687 0.55301 0.82598 0.0
C3407 C 0.96914 0.54184 0.8222 0.0
C3408 C 0.00187 0.53089 0.83017 0.0
C3409 C 0.04736 0.59899 0.83052 0.0
C3410 C 0.02857 0.5284 0.82931 0.0
C3411 C 0.03551 0.5115 0.83408 0.0
C3412 C 0.01566 0.49665 0.83975 0.0
C3413 C 0.98769 0.49711 0.84024 0.0
C3414 C 0.9809 0.51411 0.8355 0.0
H3415 H 0.05742 0.62432 0.83138 0.0
H3416 H 0.04297 0.58739 0.83567 0.0
H3417 H 0.06492 0.59546 0.82775 0.0
H3418 H 0.0447 0.5406 0.82512 0.0
H3419 H 0.05712 0.51139 0.83353 0.0
H3420 H 0.47695 0.54389 0.83495 0.0
H3421 H 0.4482 0.50046 0.82689 0.0
H3422 H 0.49343 0.45342 0.83553 0.0
H3423 H 0.52218 0.4965 0.84359 0.0
H3424 H 0.46851 0.46221 0.81706 0.0
H3425 H 0.39515 0.402 0.84013 0.0
H3426 H 0.41881 0.44374 0.83965 0.0
H3427 H 0.43656 0.42059 0.84124 0.0
C3428 C 0.4815 0.52475 0.83498 0.0
C3429 C 0.50152 0.52339 0.83995 0.0
C3430 C 0.46504 0.49998 0.83038 0.0
C3431 C 0.46855 0.47374 0.8307 0.0
C3432 C 0.49038 0.47348 0.83526 0.0
H3433 H 0.35069 0.283 0.81777 0.0
H3434 H 0.3927 0.33129 0.82256 0.0
C3435 C 0.50673 0.4981 0.83985 0.0
C3436 C 0.44666 0.44502 0.82699 0.0
H3437 H 0.3838 0.37334 0.82976 0.0
C3438 C 0.44994 0.44272 0.8198 0.0
C3439 C 0.42259 0.41977 0.83062 0.0
C3440 C 0.41775 0.42149 0.83833 0.0
C3441 C 0.42983 0.41541 0.81616 0.0
C3442 C 0.40561 0.39017 0.8198 0.0
C3443 C 0.40248 0.39263 0.82699 0.0
C3444 C 0.38252 0.36121 0.81629 0.0
C3445 C 0.43501 0.41362 0.80848 0.0
C3446 C 0.36297 0.362 0.81114 0.0
C3447 C 0.33907 0.33444 0.80835 0.0
C3448 C 0.33399 0.30547 0.81071 0.0
C3449 C 0.35407 0.30481 0.81577 0.0
C3450 C 0.37803 0.33241 0.81854 0.0
H3451 H 0.4592 0.43068 0.80694 0.0
H3452 H 0.43006 0.39 0.80699 0.0
H3453 H 0.41917 0.41898 0.8055 0.0
H3454 H 0.36558 0.38391 0.80942 0.0
H3455 H 0.32436 0.33588 0.8044 0.0
H3456 H 0.60282 0.79098 0.99092 0.0
H3457 H 0.61817 0.83564 -0.00141 0.0
H3458 H 0.71428 0.87015 0.99337 0.0
H3459 H 0.69898 0.82616 0.9855 0.0
H3460 H 0.657 0.86385 0.00976 0.0
H3461 H 0.70006 0.93858 0.98624 0.0
H3462 H 0.67801 0.89683 0.98573 0.0
H3463 H 0.71871 0.91625 0.98782 0.0
C3464 C 0.62728 0.80766 0.99156 0.0
C3465 C 0.64972 0.80539 0.98756 0.0
C3466 C 0.63602 0.83322 0.99592 0.0
C3467 C 0.66728 0.85665 0.99639 0.0
C3468 C 0.68995 0.85279 0.99292 0.0
H3469 H 0.74801 0.04285 0.01433 0.0
H3470 H 0.74162 0.99397 0.0099 0.0
C3471 C 0.68121 0.82755 0.98848 0.0
C3472 C 0.67571 0.88629 -6e-05 0.0
H3473 H 0.70625 0.96389 -0.00304 0.0
C3474 C 0.66793 0.88575 0.00698 0.0
C3475 C 0.68972 0.91483 0.99627 0.0
C3476 C 0.69686 0.91675 0.98858 0.0
C3477 C 0.67373 0.91301 0.01044 0.0
C3478 C 0.68755 0.94137 0.00675 0.0
C3479 C 0.69591 0.94206 -0.00023 0.0
C3480 C 0.69148 0.97028 0.00986 0.0
C3481 C 0.66487 0.91138 0.01799 0.0
C3482 C 0.66538 0.97315 0.0112 0.0
C3483 C 0.66888 0.0012 0.0136 0.0
C3484 C 0.69862 0.02701 0.01475 0.0
C3485 C 0.72476 0.02381 0.01345 0.0
C3486 C 0.72119 0.99576 0.01097 0.0
H3487 H 0.66068 0.88944 0.02047 0.0
H3488 H 0.68332 0.93132 0.02093 0.0
H3489 H 0.64325 0.91259 0.01839 0.0
H3490 H 0.64226 0.95389 0.01023 0.0
H3491 H 0.64816 0.00268 0.01441 0.0
H3492 H 0.95921 0.68783 0.00852 0.0
H3493 H 0.00968 0.72888 0.00433 0.0
H3494 H 0.05587 0.70024 0.01904 0.0
H3495 H 0.00562 0.65943 0.02332 0.0
H3496 H 0.06314 0.77914 0.01176 0.0
H3497 H 0.08785 0.69232 -0.00048 0.0
H3498 H 0.04934 0.68279 0.00222 0.0
H3499 H 0.07749 0.68666 0.00858 0.0
C3500 C 0.98006 0.69055 0.01094 0.0
C3501 C 0.97836 0.67006 0.01619 0.0
C3502 C 0.00887 0.71397 0.00854 0.0
C3503 C 0.03641 0.71725 0.01132 0.0
C3504 C 0.03483 0.69772 0.01675 0.0
H3505 H 0.22205 0.82117 0.99328 0.0
H3506 H 0.18124 0.79315 0.00194 0.0
C3507 C 0.00609 0.67432 0.01916 0.0
C3508 C 0.06671 0.73992 0.00827 0.0
H3509 H 0.12579 0.74478 -0.00165 0.0
C3510 C 0.07702 0.77172 0.00887 0.0
C3511 C 0.08477 0.73009 0.00455 0.0
C3512 C 0.07434 0.69613 0.00361 0.0
C3513 C 0.10485 0.79404 0.00574 0.0
C3514 C 0.12236 0.78415 0.0018 0.0
C3515 C 0.11246 0.75236 0.0014 0.0
C3516 C 0.14917 0.80576 -0.00255 0.0
C3517 C 0.11514 0.82794 0.00667 0.0
C3518 C 0.14496 0.82273 0.99216 0.0
C3519 C 0.1682 0.8388 0.98725 0.0
C3520 C 0.196 0.83794 0.98746 0.0
C3521 C 0.20092 0.82235 0.99298 0.0
C3522 C 0.17761 0.80627 -0.00208 0.0
H3523 H 0.10615 0.83199 0.01162 0.0
H3524 H 0.14083 0.84252 0.00664 0.0
H3525 H 0.10574 0.83556 0.00234 0.0
H3526 H 0.12301 0.82211 0.99159 0.0
H3527 H 0.16367 0.85059 0.98306 0.0
H3528 H 0.14454 0.30428 0.9823 0.0
H3529 H 0.17412 0.29099 0.99033 0.0
H3530 H 0.21481 0.38213 -0.00049 0.0
H3531 H 0.18517 0.39571 0.99148 0.0
H3532 H 0.24073 0.32858 0.98961 0.0
H3533 H 0.19575 0.32191 0.01643 0.0
H3534 H 0.17246 0.31641 0.00876 0.0
H3535 H 0.20207 0.3547 0.01124 0.0
C3536 C 0.15912 0.32125 0.98615 0.0
C3537 C 0.16276 0.35115 0.98622 0.0
C3538 C 0.17597 0.31358 0.99074 0.0
C3539 C 0.19658 0.33555 0.9955 0.0
C3540 C 0.19867 0.36471 0.99593 0.0
H3541 H 0.34804 0.34943 0.02033 0.0
H3542 H 0.30675 0.35588 0.01521 0.0
C3543 C 0.18176 0.37244 0.99133 0.0
C3544 C 0.21906 0.32954 -0.00078 0.0
H3545 H 0.24235 0.32017 0.0153 0.0
C3546 C 0.24097 0.3265 0.99523 0.0
C3547 C 0.21948 0.3273 0.00654 0.0
C3548 C 0.1961 0.33003 0.01103 0.0
C3549 C 0.2636 0.32162 -0.00165 0.0
C3550 C 0.26381 0.31885 0.00567 0.0
C3551 C 0.24196 0.32204 0.00969 0.0
C3552 C 0.28712 0.31344 0.00921 0.0
C3553 C 0.28764 0.32038 0.99377 0.0
C3554 C 0.28931 0.28703 0.00768 0.0
C3555 C 0.31325 0.28351 0.0105 0.0
C3556 C 0.33529 0.30617 0.01499 0.0
C3557 C 0.33203 0.33186 0.01677 0.0
C3558 C 0.3082 0.33545 0.01391 0.0
H3559 H 0.28931 0.33113 0.98861 0.0
H3560 H 0.3109 0.33243 0.99626 0.0
H3561 H 0.28105 0.29579 0.9929 0.0
H3562 H 0.27289 0.26945 0.00417 0.0
H3563 H 0.31492 0.26347 0.00898 0.0
H3564 H 0.97654 0.28124 0.51396 0.0
H3565 H 0.02562 0.28954 0.50925 0.0
H3566 H 0.06321 0.38857 0.51021 0.0
H3567 H 0.01385 0.38062 0.51454 0.0
H3568 H 0.07596 0.37201 0.4981 0.0
H3569 H 0.10612 0.31588 0.51921 0.0
H3570 H 0.06887 0.29052 0.51542 0.0
H3571 H 0.07521 0.32468 0.52004 0.0
C3572 C 0.99506 0.30481 0.51314 0.0
C3573 C 0.991 0.33023 0.51469 0.0
C3574 C 0.02337 0.30952 0.51054 0.0
C3575 C 0.04838 0.3397 0.50954 0.0
C3576 C 0.04437 0.36506 0.51102 0.0
H3577 H 0.23379 0.41495 0.49172 0.0
H3578 H 0.19049 0.40787 0.49907 0.0
C3579 C 0.01606 0.36041 0.51355 0.0
C3580 C 0.07825 0.34499 0.5066 0.0
H3581 H 0.13643 0.32813 0.50881 0.0
C3582 C 0.08933 0.36269 0.50049 0.0
C3583 C 0.09574 0.33287 0.50973 0.0
C3584 C 0.08606 0.31519 0.5165 0.0
C3585 C 0.11694 0.36794 0.49733 0.0
C3586 C 0.13404 0.35529 0.50038 0.0
C3587 C 0.12322 0.33782 0.50651 0.0
C3588 C 0.16227 0.35869 0.497 0.0
C3589 C 0.12724 0.38627 0.49064 0.0
C3590 C 0.16121 0.33308 0.4937 0.0
C3591 C 0.18584 0.33701 0.4895 0.0
C3592 C 0.21202 0.36661 0.48859 0.0
C3593 C 0.214 0.39183 0.49234 0.0
C3594 C 0.18922 0.38789 0.4965 0.0
H3595 H 0.10888 0.39009 0.48837 0.0
H3596 H 0.14796 0.40929 0.49167 0.0
H3597 H 0.13387 0.37416 0.48673 0.0
H3598 H 0.1406 0.31036 0.49405 0.0
H3599 H 0.1837 0.31713 0.4867 0.0
H3600 H 0.58099 0.81725 0.49237 0.0
H3601 H 0.58756 0.77986 0.49938 0.0
H3602 H 0.68685 0.83515 0.49698 0.0
H3603 H 0.68051 0.87254 0.48995 0.0
H3604 H 0.61804 0.74975 0.49294 0.0
H3605 H 0.67476 0.80755 0.51775 0.0
H3606 H 0.65256 0.81978 0.51254 0.0
H3607 H 0.69134 0.83022 0.51002 0.0
C3608 C 0.60428 0.82205 0.49355 0.0
C3609 C 0.63027 0.84781 0.4906 0.0
C3610 C 0.60797 0.80057 0.49752 0.0
C3611 C 0.63769 0.80485 0.49872 0.0
C3612 C 0.66376 0.83166 0.4962 0.0
H3613 H 0.71639 0.69451 0.51327 0.0
H3614 H 0.70689 0.73543 0.50917 0.0
C3615 C 0.66008 0.85295 0.49217 0.0
C3616 C 0.64133 0.77939 0.50168 0.0
H3617 H 0.67462 0.76086 0.51497 0.0
C3618 C 0.63008 0.75197 0.4978 0.0
C3619 C 0.65749 0.78268 0.50795 0.0
C3620 C 0.66958 0.81154 0.51235 0.0
C3621 C 0.6352 0.72795 0.49993 0.0
C3622 C 0.65127 0.73109 0.50623 0.0
C3623 C 0.6623 0.75846 0.51015 0.0
C3624 C 0.65694 0.70624 0.50881 0.0
C3625 C 0.62435 0.69998 0.49527 0.0
C3626 C 0.63202 0.67629 0.51004 0.0
C3627 C 0.63736 0.65265 0.51225 0.0
C3628 C 0.66778 0.6585 0.51343 0.0
C3629 C 0.69269 0.6888 0.51232 0.0
C3630 C 0.6873 0.7124 0.51004 0.0
H3631 H 0.621 0.70522 0.48982 0.0
H3632 H 0.64115 0.69146 0.49525 0.0
H3633 H 0.6017 0.68104 0.49718 0.0
H3634 H 0.60835 0.67114 0.50927 0.0
H3635 H 0.61751 0.62974 0.51297 0.0
H3636 H 0.13928 0.82115 0.48334 0.0
H3637 H 0.1762 0.86375 0.49063 0.0
H3638 H 0.21021 0.80556 0.49878 0.0
H3639 H 0.17374 0.76282 0.49132 0.0
H3640 H 0.18947 0.87359 0.50455 0.0
H3641 H 0.28747 0.87648 0.48996 0.0
H3642 H 0.24769 0.85333 0.48718 0.0
H3643 H 0.26215 0.84036 0.49422 0.0
C3644 C 0.15424 0.81717 0.48676 0.0
C3645 C 0.15389 0.78874 0.48667 0.0
C3646 C 0.17534 0.84158 0.49094 0.0
C3647 C 0.19647 0.83807 0.49512 0.0
C3648 C 0.19459 0.80897 0.49546 0.0
H3649 H 0.35842 0.98218 0.51697 0.0
H3650 H 0.31581 0.93233 0.51308 0.0
C3651 C 0.17352 0.78448 0.49125 0.0
C3652 C 0.22168 0.86563 0.49867 0.0
H3653 H 0.3003 0.91391 0.49874 0.0
C3654 C 0.21372 0.88229 0.50333 0.0
C3655 C 0.25332 0.87707 0.49701 0.0
C3656 C 0.26328 0.86111 0.49178 0.0
C3657 C 0.23652 0.91022 0.50632 0.0
C3658 C 0.26801 0.92184 0.50457 0.0
C3659 C 0.27608 0.90483 0.50007 0.0
C3660 C 0.29298 0.95214 0.50717 0.0
C3661 C 0.2268 0.92716 0.51132 0.0
C3662 C 0.29434 0.97983 0.50509 0.0
C3663 C 0.31895 0.00851 0.50724 0.0
C3664 C 0.34271 0.01004 0.51149 0.0
C3665 C 0.34095 0.98209 0.51361 0.0
C3666 C 0.31644 0.95348 0.51144 0.0
H3667 H 0.203 0.91183 0.51336 0.0
H3668 H 0.24319 0.93664 0.51577 0.0
H3669 H 0.22704 0.94691 0.50858 0.0
H3670 H 0.27671 0.97927 0.50169 0.0
H3671 H 0.31969 0.02945 0.50542 0.0
H3672 H 0.94988 0.31233 0.30982 0.0
H3673 H 0.95798 0.36264 0.31368 0.0
H3674 H 0.05537 0.39515 0.31664 0.0
H3675 H 0.0475 0.34484 0.31293 0.0
H3676 H 0.983 0.38996 0.32696 0.0
H3677 H 0.05386 0.46509 0.30511 0.0
H3678 H 0.03023 0.4234 0.30434 0.0
H3679 H 0.06705 0.44035 0.30871 0.0
C3680 C 0.97302 0.33006 0.31131 0.0
C3681 C 0.99803 0.32439 0.31106 0.0
C3682 C 0.97763 0.35891 0.31346 0.0
C3683 C 0.00735 0.38271 0.31533 0.0
C3684 C 0.03238 0.37729 0.31505 0.0
H3685 H 0.08757 0.56078 0.33533 0.0
H3686 H 0.07779 0.51583 0.32826 0.0
C3687 C 0.02779 0.34844 0.31294 0.0
C3688 C 0.01184 0.41246 0.31807 0.0
H3689 H 0.05071 0.49075 0.31528 0.0
C3690 C 0.9975 0.41199 0.32437 0.0
C3691 C 0.03101 0.44108 0.31469 0.0
C3692 C 0.04627 0.44266 0.30781 0.0
C3693 C 0.00251 0.43952 0.32753 0.0
C3694 C 0.02175 0.46824 0.32417 0.0
C3695 C 0.03586 0.46869 0.31781 0.0
C3696 C 0.02834 0.49799 0.32738 0.0
C3697 C 0.98811 0.43764 0.33456 0.0
C3698 C 0.00404 0.50363 0.32891 0.0
C3699 C 0.00949 0.52909 0.33299 0.0
C3700 C 0.03945 0.5496 0.3355 0.0
C3701 C 0.06424 0.54539 0.33346 0.0
C3702 C 0.05868 0.51969 0.32944 0.0
H3703 H 0.98065 0.41503 0.33715 0.0
H3704 H 0.00463 0.45654 0.33803 0.0
H3705 H 0.9673 0.4401 0.33389 0.0
H3706 H 0.98058 0.48754 0.32722 0.0
H3707 H 0.99002 0.53195 0.33442 0.0
H3708 H 0.43264 0.51114 0.33287 0.0
H3709 H 0.47254 0.54429 0.32447 0.0
H3710 H 0.53182 0.51026 0.33192 0.0
H3711 H 0.492 0.47668 0.34015 0.0
H3712 H 0.52745 0.59039 0.32868 0.0
H3713 H 0.54858 0.51416 0.31145 0.0
H3714 H 0.514 0.49969 0.31671 0.0
H3715 H 0.54948 0.50453 0.3204 0.0
C3716 C 0.45375 0.50995 0.33255 0.0
C3717 C 0.45927 0.49146 0.33721 0.0
C3718 C 0.47657 0.52897 0.32776 0.0
C3719 C 0.5051 0.52961 0.32752 0.0
C3720 C 0.50978 0.5097 0.33188 0.0
H3721 H 0.6949 0.65408 0.31926 0.0
H3722 H 0.64346 0.61132 0.3223 0.0
C3723 C 0.48702 0.49067 0.33664 0.0
C3724 C 0.53165 0.55412 0.32356 0.0
H3725 H 0.59199 0.56661 0.31298 0.0
C3726 C 0.54115 0.5852 0.32511 0.0
C3727 C 0.5496 0.54735 0.31893 0.0
C3728 C 0.53967 0.51459 0.31672 0.0
C3729 C 0.56901 0.60958 0.32248 0.0
C3730 C 0.5877 0.60267 0.31815 0.0
C3731 C 0.57764 0.57174 0.31635 0.0
C3732 C 0.61867 0.62722 0.31582 0.0
C3733 C 0.57907 0.64246 0.32464 0.0
C3734 C 0.62166 0.64995 0.31109 0.0
C3735 C 0.65103 0.67436 0.30931 0.0
C3736 C 0.67797 0.67647 0.31224 0.0
C3737 C 0.67478 0.6531 0.31686 0.0
C3738 C 0.64539 0.62867 0.31861 0.0
H3739 H 0.56418 0.64342 0.32883 0.0
H3740 H 0.6035 0.65442 0.32648 0.0
H3741 H 0.57782 0.65548 0.32008 0.0
H3742 H 0.60125 0.64898 0.30882 0.0
H3743 H 0.65257 0.69153 0.30563 0.0
H3744 H 0.31341 0.96501 0.30858 0.0
H3745 H 0.35632 0.95779 0.31228 0.0
H3746 H 0.39523 0.04307 0.32397 0.0
H3747 H 0.35209 0.05033 0.32037 0.0
H3748 H 0.4393 0.03371 0.31559 0.0
H3749 H 0.36391 0.93318 0.33259 0.0
H3750 H 0.35131 0.93093 0.32373 0.0
H3751 H 0.35203 0.95984 0.32944 0.0
C3752 C 0.33092 0.98216 0.31197 0.0
C3753 C 0.32903 0.00808 0.31424 0.0
C3754 C 0.35552 0.97805 0.31406 0.0
C3755 C 0.37869 0.9997 0.31846 0.0
C3756 C 0.37751 0.02609 0.32057 0.0
H3757 H 0.5336 0.02432 0.34216 0.0
H3758 H 0.49833 0.03086 0.3345 0.0
C3759 C 0.35287 0.03023 0.31849 0.0
C3760 C 0.40357 0.99427 0.32108 0.0
H3761 H 0.41656 0.9476 0.3319 0.0
C3762 C 0.43439 0.01481 0.31913 0.0
C3763 C 0.39699 0.96944 0.32564 0.0
C3764 C 0.36433 0.94714 0.32804 0.0
C3765 C 0.45893 0.01133 0.32169 0.0
C3766 C 0.45246 0.98707 0.32644 0.0
C3767 C 0.42151 0.96608 0.32823 0.0
C3768 C 0.47731 0.98458 0.33014 0.0
C3769 C 0.49151 0.03363 0.31928 0.0
C3770 C 0.47749 0.95643 0.33022 0.0
C3771 C 0.49755 0.9525 0.33467 0.0
C3772 C 0.51756 0.97661 0.33915 0.0
C3773 C 0.51851 0.00529 0.33877 0.0
C3774 C 0.49848 0.00917 0.33434 0.0
H3775 H 0.49149 0.04304 0.31403 0.0
H3776 H 0.50246 0.05351 0.32294 0.0
H3777 H 0.50593 0.02235 0.3191 0.0
H3778 H 0.46121 0.93707 0.32706 0.0
H3779 H 0.49612 0.93006 0.33487 0.0
H3780 H 0.02134 0.21025 0.27669 0.0
H3781 H 0.03631 0.21466 0.26443 0.0
H3782 H 0.95501 0.21932 0.25863 0.0
H3783 H 0.93972 0.21469 0.27086 0.0
H3784 H 0.00267 0.17576 0.25317 0.0
H3785 H 0.02716 0.29668 0.24947 0.0
H3786 H 0.02345 0.27969 0.25796 0.0
H3787 H 0.9894 0.27055 0.25296 0.0
C3788 C 0.00656 0.21203 0.2728 0.0
C3789 C 0.97943 0.21229 0.27474 0.0
C3790 C 0.0152 0.21465 0.26581 0.0
C3791 C 0.99697 0.21772 0.26066 0.0
C3792 C 0.9697 0.2176 0.26256 0.0
H3793 H 0.00109 0.19451 0.21606 0.0
H3794 H 0.98784 0.18813 0.22844 0.0
C3795 C 0.96104 0.21501 0.26954 0.0
C3796 C 0.00635 0.22076 0.25328 0.0
H3797 H 0.02711 0.26946 0.23933 0.0
C3798 C 0.00812 0.19625 0.25013 0.0
C3799 C 0.01378 0.24771 0.24939 0.0
C3800 C 0.01366 0.27531 0.25262 0.0
C3801 C 0.01665 0.19777 0.24313 0.0
C3802 C 0.02315 0.22433 0.23918 0.0
C3803 C 0.02186 0.24903 0.24237 0.0
C3804 C 0.03159 0.22718 0.23174 0.0
C3805 C 0.01905 0.17118 0.24003 0.0
C3806 C 0.0604 0.25145 0.22951 0.0
C3807 C 0.06799 0.25519 0.22246 0.0
C3808 C 0.04681 0.23479 0.2175 0.0
C3809 C 0.01804 0.21032 0.21976 0.0
C3810 C 0.01045 0.20663 0.22683 0.0
H3811 H 0.021 0.15645 0.24412 0.0
H3812 H 0.99788 0.15637 0.23693 0.0
H3813 H 0.03944 0.17983 0.23652 0.0
H3814 H 0.07699 0.26755 0.23324 0.0
H3815 H 0.09049 0.27401 0.22088 0.0
H3816 H 0.72761 0.7485 0.21969 0.0
H3817 H 0.735 0.74214 0.23204 0.0
H3818 H 0.80118 0.83993 0.23365 0.0
H3819 H 0.79343 0.84677 0.22136 0.0
H3820 H 0.81941 0.79642 0.2397 0.0
H3821 H 0.70422 0.77657 0.24842 0.0
H3822 H 0.70405 0.75381 0.24113 0.0
H3823 H 0.72154 0.79511 0.24025 0.0
C3824 C 0.7435 0.76874 0.22268 0.0
C3825 C 0.75982 0.79819 0.21954 0.0
C3826 C 0.74776 0.76502 0.22972 0.0
C3827 C 0.76841 0.79062 0.23373 0.0
C3828 C 0.78514 0.81992 0.23062 0.0
H3829 H 0.78844 0.80715 0.27852 0.0
H3830 H 0.78337 0.81503 0.26611 0.0
C3831 C 0.78079 0.82373 0.22358 0.0
C3832 C 0.77255 0.78682 0.2412 0.0
H3833 H 0.7352 0.77005 0.25684 0.0
C3834 C 0.80107 0.79069 0.24346 0.0
C3835 C 0.74859 0.77963 0.24606 0.0
C3836 C 0.7179 0.77623 0.24389 0.0
C3837 C 0.80611 0.78705 0.25049 0.0
C3838 C 0.78193 0.77924 0.25533 0.0
C3839 C 0.75358 0.77585 0.25308 0.0
C3840 C 0.78565 0.7747 0.26278 0.0
C3841 C 0.8373 0.79189 0.25272 0.0
C3842 C 0.78837 0.74929 0.26497 0.0
C3843 C 0.79122 0.7447 0.27204 0.0
C3844 C 0.79145 0.76552 0.27702 0.0
C3845 C 0.7887 0.79095 0.27479 0.0
C3846 C 0.78566 0.7954 0.26773 0.0
H3847 H 0.85525 0.80372 0.24863 0.0
H3848 H 0.8452 0.80584 0.25757 0.0
H3849 H 0.83524 0.76902 0.25379 0.0
H3850 H 0.78806 0.7329 0.26121 0.0
H3851 H 0.79353 0.72504 0.2736 0.0
H3852 H 0.20429 0.9113 0.22359 0.0
H3853 H 0.21059 0.92412 0.23598 0.0
H3854 H 0.16331 0.97615 0.23329 0.0
H3855 H 0.15635 0.96291 0.22088 0.0
H3856 H 0.24285 0.98666 0.24109 0.0
H3857 H 0.1211 0.92052 0.2506 0.0
H3858 H 0.13336 0.91141 0.24252 0.0
H3859 H 0.12738 0.94408 0.24301 0.0
C3860 C 0.1946 0.92488 0.22566 0.0
C3861 C 0.17971 0.93602 0.22127 0.0
C3862 C 0.1984 0.93234 0.23273 0.0
C3863 C 0.18717 0.95082 0.23554 0.0
C3864 C 0.17174 0.96148 0.23122 0.0
H3865 H 0.20053 0.03377 0.27589 0.0
H3866 H 0.18882 0.01574 0.26384 0.0
C3867 C 0.16803 0.95414 0.22414 0.0
C3868 C 0.19356 0.96069 0.24289 0.0
H3869 H 0.15889 0.95548 0.25854 0.0
C3870 C 0.22455 0.97974 0.24493 0.0
C3871 C 0.16955 0.95173 0.24783 0.0
C3872 C 0.13596 0.93061 0.24592 0.0
C3873 C 0.23221 0.99052 0.25178 0.0
C3874 C 0.20823 0.9814 0.25675 0.0
C3875 C 0.1772 0.96235 0.25471 0.0
C3876 C 0.2149 0.99165 0.26408 0.0
C3877 C 0.26584 0.0122 0.2536 0.0
C3878 C 0.23309 0.98368 0.26823 0.0
C3879 C 0.23984 0.99395 0.27511 0.0
C3880 C 0.22822 0.01209 0.27798 0.0
C3881 C 0.20957 0.01958 0.27384 0.0
C3882 C 0.20294 0.0094 0.26696 0.0
H3883 H 0.28011 0.02325 0.24889 0.0
H3884 H 0.26828 0.03073 0.2572 0.0
H3885 H 0.27534 0.99886 0.25621 0.0
H3886 H 0.24197 0.96941 0.26614 0.0
H3887 H 0.25383 0.98738 0.2782 0.0
H3888 H 0.90529 0.71735 0.77156 0.0
H3889 H 0.91988 0.72318 0.75925 0.0
H3890 H 0.00968 0.80105 0.76429 0.0
H3891 H 0.99544 0.79516 0.77663 0.0
H3892 H 0.94136 0.77915 0.75067 0.0
H3893 H 0.02685 0.73856 0.75306 0.0
H3894 H 0.9974 0.7302 0.75955 0.0
H3895 H 0.03119 0.76813 0.7591 0.0
C3896 C 0.92822 0.73558 0.77005 0.0
C3897 C 0.94931 0.75571 0.77505 0.0
C3898 C 0.93642 0.73896 0.76303 0.0
C3899 C 0.96592 0.76231 0.76091 0.0
C3900 C 0.98692 0.78269 0.76586 0.0
H3901 H 0.03421 0.83121 0.71954 0.0
H3902 H 0.01906 0.8253 0.73179 0.0
C3903 C 0.97867 0.77944 0.77288 0.0
C3904 C 0.97463 0.76542 0.75349 0.0
H3905 H 0.02292 0.7578 0.74208 0.0
C3906 C 0.95917 0.7745 0.74878 0.0
C3907 C 0.99765 0.75899 0.75107 0.0
C3908 C 0.01415 0.74819 0.75593 0.0
C3909 C 0.96648 0.77776 0.74167 0.0
C3910 C 0.98992 0.77192 0.73927 0.0
C3911 C 0.00508 0.76242 0.74397 0.0
C3912 C 0.99894 0.77542 0.73187 0.0
C3913 C 0.94889 0.78707 0.73676 0.0
C3914 C 0.993 0.74933 0.72792 0.0
C3915 C 0.00139 0.75255 0.72091 0.0
C3916 C 0.0161 0.782 0.71775 0.0
C3917 C 0.02237 0.80814 0.72177 0.0
C3918 C 0.01384 0.80485 0.72877 0.0
H3919 H 0.9275 0.7846 0.73919 0.0
H3920 H 0.96395 0.81172 0.73524 0.0
H3921 H 0.9424 0.77281 0.73195 0.0
H3922 H 0.98155 0.72643 0.73026 0.0
H3923 H 0.99594 0.73193 0.71795 0.0
H3924 H 0.20255 0.20904 0.77473 0.0
H3925 H 0.19663 0.21746 0.76242 0.0
H3926 H 0.27687 0.20945 0.75746 0.0
H3927 H 0.28292 0.20094 0.76975 0.0
H3928 H 0.27741 0.26039 0.75124 0.0
H3929 H 0.16511 0.15189 0.74694 0.0
H3930 H 0.16506 0.17539 0.75403 0.0
H3931 H 0.18899 0.15783 0.7545 0.0
C3932 C 0.21873 0.20875 0.77101 0.0
C3933 C 0.24316 0.20425 0.77321 0.0
C3934 C 0.21531 0.21356 0.76398 0.0
C3935 C 0.23609 0.21367 0.75903 0.0
C3936 C 0.2606 0.20941 0.76121 0.0
H3937 H 0.21731 0.19832 0.71436 0.0
H3938 H 0.22223 0.19116 0.72678 0.0
C3939 C 0.26408 0.20468 0.76823 0.0
C3940 C 0.23267 0.21877 0.75158 0.0
H3941 H 0.18387 0.18822 0.73769 0.0
C3942 C 0.25698 0.24464 0.74826 0.0
C3943 C 0.20611 0.19796 0.74772 0.0
C3944 C 0.17992 0.16904 0.75095 0.0
C3945 C 0.25539 0.25038 0.74118 0.0
C3946 C 0.22854 0.22993 0.73735 0.0
C3947 C 0.2043 0.20397 0.74066 0.0
C3948 C 0.22552 0.23454 0.72986 0.0
C3949 C 0.28271 0.27785 0.73781 0.0
C3950 C 0.22543 0.26117 0.72749 0.0
C3951 C 0.22259 0.26532 0.7204 0.0
C3952 C 0.21951 0.24275 0.71556 0.0
C3953 C 0.21932 0.21596 0.71796 0.0
C3954 C 0.22224 0.21189 0.72505 0.0
H3955 H 0.30412 0.28664 0.74099 0.0
H3956 H 0.2873 0.27173 0.73256 0.0
H3957 H 0.27749 0.29696 0.73722 0.0
H3958 H 0.22729 0.27861 0.73114 0.0
H3959 H 0.2223 0.28594 0.71871 0.0
H3960 H 0.84157 0.05843 0.77151 0.0
H3961 H 0.83541 0.04687 0.75905 0.0
H3962 H 0.73922 0.02209 0.76031 0.0
H3963 H 0.74487 0.03288 0.7728 0.0
H3964 H 0.79106 0.98879 0.75234 0.0
H3965 H 0.77769 0.08916 0.74458 0.0
H3966 H 0.79425 0.08747 0.75282 0.0
H3967 H 0.75299 0.06563 0.75155 0.0
C3968 C 0.81899 0.05018 0.76917 0.0
C3969 C 0.79371 0.04665 0.77316 0.0
C3970 C 0.8156 0.04379 0.76204 0.0
C3971 C 0.78699 0.03404 0.75877 0.0
C3972 C 0.76162 0.03012 0.76273 0.0
H3973 H 0.72239 0.94995 0.7183 0.0
H3974 H 0.72921 0.9624 0.73073 0.0
C3975 C 0.76493 0.03637 0.76986 0.0
C3976 C 0.78359 0.02761 0.75123 0.0
H3977 H 0.76939 0.05227 0.73581 0.0
C3978 C 0.78638 0.00266 0.74871 0.0
C3979 C 0.7778 0.04601 0.74654 0.0
C3980 C 0.77573 0.07375 0.74897 0.0
C3981 C 0.78296 0.99524 0.74161 0.0
C3982 C 0.77641 0.01318 0.73694 0.0
C3983 C 0.77418 0.03848 0.73943 0.0
C3984 C 0.77192 0.00605 0.72943 0.0
C3985 C 0.78666 0.9685 0.73913 0.0
C3986 C 0.79336 0.02685 0.7246 0.0
C3987 C 0.78949 0.01988 0.7175 0.0
C3988 C 0.76391 0.99213 0.71512 0.0
C3989 C 0.74217 0.97163 0.71998 0.0
C3990 C 0.74617 0.97855 0.72707 0.0
H3991 H 0.798 0.96128 0.7431 0.0
H3992 H 0.76343 0.94833 0.73798 0.0
H3993 H 0.80058 0.97474 0.73427 0.0
H3994 H 0.81328 0.04829 0.72634 0.0
H3995 H 0.80642 0.03625 0.71387 0.0
H3996 H 0.66301 0.6055 0.60951 0.0
H3997 H 0.6728 0.61136 0.59696 0.0
H3998 H 0.63951 0.5133 0.59517 0.0
H3999 H 0.62889 0.50697 0.60766 0.0
H4000 H 0.69951 0.55541 0.58855 0.0
H4001 H 0.60434 0.57808 0.58129 0.0
H4002 H 0.62902 0.6007 0.58836 0.0
H4003 H 0.60443 0.55955 0.58937 0.0
C4004 C 0.65742 0.5851 0.60644 0.0
C4005 C 0.64515 0.55576 0.60959 0.0
C4006 C 0.66311 0.58853 0.59928 0.0
C4007 C 0.65663 0.56271 0.59517 0.0
C4008 C 0.64465 0.53347 0.59828 0.0
H4009 H 0.64912 0.53961 0.55047 0.0
H4010 H 0.63869 0.53463 0.56301 0.0
C4011 C 0.6388 0.52997 0.60542 0.0
C4012 C 0.66282 0.5662 0.58762 0.0
H4013 H 0.63896 0.58244 0.57234 0.0
C4014 C 0.68634 0.56134 0.58499 0.0
C4015 C 0.64531 0.57365 0.58303 0.0
C4016 C 0.61917 0.57811 0.58562 0.0
C4017 C 0.69309 0.56411 0.57786 0.0
C4018 C 0.67592 0.57205 0.57328 0.0
C4019 C 0.65216 0.57655 0.5759 0.0
C4020 C 0.68213 0.57542 0.56574 0.0
C4021 C 0.71822 0.55814 0.57524 0.0
C4022 C 0.70984 0.6002 0.56317 0.0
C4023 C 0.71583 0.60313 0.55603 0.0
C4024 C 0.69421 0.58126 0.55136 0.0
C4025 C 0.66632 0.5566 0.55396 0.0
C4026 C 0.66027 0.55382 0.5611 0.0
H4027 H 0.72527 0.54672 0.57923 0.0
H4028 H 0.71033 0.54333 0.57051 0.0
H4029 H 0.73893 0.58056 0.57381 0.0
H4030 H 0.72683 0.61722 0.56669 0.0
H4031 H 0.73762 0.62221 0.55418 0.0
H4032 H 0.3871 0.05871 0.60807 0.0
H4033 H 0.38196 0.06169 0.59545 0.0
H4034 H 0.48155 0.11599 0.59351 0.0
H4035 H 0.48694 0.11253 0.60607 0.0
H4036 H 0.404 0.11594 0.58707 0.0
H4037 H 0.45608 0.04417 0.5795 0.0
H4038 H 0.44259 0.04433 0.58822 0.0
H4039 H 0.47944 0.07552 0.58534 0.0
C4040 C 0.40789 0.07107 0.60494 0.0
C4041 C 0.43742 0.08535 0.60806 0.0
C4042 C 0.40491 0.07287 0.59775 0.0
C4043 C 0.4314 0.08869 0.59356 0.0
C4044 C 0.46086 0.10326 0.59666 0.0
H4045 H 0.45005 0.15873 0.55173 0.0
H4046 H 0.45197 0.15166 0.56428 0.0
C4047 C 0.46387 0.10156 0.60384 0.0
C4048 C 0.42829 0.09052 0.58595 0.0
H4049 H 0.44772 0.07164 0.57041 0.0
C4050 C 0.41338 0.10612 0.58342 0.0
C4051 C 0.44027 0.07735 0.58123 0.0
C4052 C 0.45525 0.05914 0.58369 0.0
C4053 C 0.41084 0.10963 0.57625 0.0
C4054 C 0.42386 0.09748 0.57153 0.0
C4055 C 0.43804 0.08116 0.57406 0.0
C4056 C 0.42316 0.10165 0.56393 0.0
C4057 C 0.39409 0.12612 0.57378 0.0
C4058 C 0.40701 0.07578 0.55958 0.0
C4059 C 0.40609 0.07972 0.55241 0.0
C4060 C 0.42154 0.10959 0.54946 0.0
C4061 C 0.43815 0.13541 0.55384 0.0
C4062 C 0.43899 0.13145 0.56101 0.0
H4063 H 0.37898 0.12714 0.5779 0.0
H4064 H 0.41141 0.15027 0.5723 0.0
H4065 H 0.37964 0.11443 0.56914 0.0
H4066 H 0.39487 0.05258 0.56175 0.0
H4067 H 0.39341 0.05937 0.54916 0.0
H4068 H 0.89064 0.29836 0.61237 0.0
H4069 H 0.88846 0.29018 0.59979 0.0
H4070 H 0.95984 0.38558 0.59687 0.0
H4071 H 0.96165 0.39418 0.60943 0.0
H4072 H 0.9071 0.36694 0.58856 0.0
H4073 H 0.95035 0.28377 0.58665 0.0
H4074 H 0.91947 0.27284 0.59282 0.0
H4075 H 0.95625 0.30733 0.59428 0.0
C4076 C 0.90602 0.31754 0.60905 0.0
C4077 C 0.92635 0.3469 0.6119 0.0
C4078 C 0.90495 0.31275 0.60187 0.0
C4079 C 0.92425 0.33718 0.59741 0.0
C4080 C 0.94494 0.36638 0.60024 0.0
H4081 H 0.94353 0.32168 0.55275 0.0
H4082 H 0.95339 0.3323 0.5652 0.0
C4083 C 0.94609 0.37118 0.60742 0.0
C4084 C 0.92131 0.33282 0.58978 0.0
H4085 H 0.92632 0.28993 0.57651 0.0
C4086 C 0.91151 0.35028 0.58591 0.0
C4087 C 0.92735 0.31126 0.58635 0.0
C4088 C 0.93922 0.2929 0.59022 0.0
C4089 C 0.90681 0.34617 0.5787 0.0
C4090 C 0.9117 0.32375 0.57532 0.0
C4091 C 0.92231 0.30689 0.57915 0.0
C4092 C 0.90563 0.31728 0.5678 0.0
C4093 C 0.89678 0.36591 0.57477 0.0
C4094 C 0.87544 0.305 0.56516 0.0
C4095 C 0.86967 0.29871 0.55807 0.0
C4096 C 0.89401 0.3045 0.55347 0.0
C4097 C 0.92422 0.31664 0.55615 0.0
C4098 C 0.92994 0.32286 0.56326 0.0
H4099 H 0.90151 0.38695 0.57776 0.0
H4100 H 0.9088 0.37324 0.56967 0.0
H4101 H 0.87144 0.35217 0.57378 0.0
H4102 H 0.85628 0.29998 0.56861 0.0
H4103 H 0.84606 0.28883 0.5562 0.0
H4104 H 0.72848 0.18104 0.0538 0.0
H4105 H 0.71118 0.17236 0.06594 0.0
H4106 H 0.67323 0.07384 0.06325 0.0
H4107 H 0.68995 0.08224 0.05108 0.0
H4108 H 0.63266 0.09226 0.06985 0.0
H4109 H 0.74985 0.14583 0.08193 0.0
H4110 H 0.74449 0.16906 0.07551 0.0
H4111 H 0.74289 0.13359 0.07294 0.0
C4112 C 0.71633 0.15753 0.05579 0.0
C4113 C 0.71064 0.13231 0.0515 0.0
C4114 C 0.70671 0.15265 0.06273 0.0
C4115 C 0.69128 0.12252 0.06548 0.0
C4116 C 0.6853 0.09728 0.06121 0.0
H4117 H 0.65131 0.06313 0.10839 0.0
H4118 H 0.66792 0.07142 0.0962 0.0
C4119 C 0.69502 0.10213 0.05428 0.0
C4120 C 0.68086 0.11719 0.07279 0.0
H4121 H 0.70719 0.13066 0.08953 0.0
C4122 C 0.64889 0.10061 0.07416 0.0
C4123 C 0.70221 0.12791 0.07837 0.0
C4124 C 0.73681 0.14489 0.07715 0.0
C4125 C 0.63764 0.09477 0.08101 0.0
C4126 C 0.65899 0.10603 0.08659 0.0
C4127 C 0.69096 0.12228 0.08522 0.0
C4128 C 0.64856 0.10085 0.0939 0.0
C4129 C 0.60308 0.07625 0.08223 0.0
C4130 C 0.63241 0.11488 0.09661 0.0
C4131 C 0.62288 0.11017 0.10356 0.0
C4132 C 0.62936 0.09135 0.10789 0.0
C4133 C 0.64564 0.07741 0.10515 0.0
C4134 C 0.65529 0.08226 0.09821 0.0
H4135 H 0.59025 0.0638 0.07746 0.0
H4136 H 0.5975 0.05906 0.08646 0.0
H4137 H 0.59467 0.09219 0.08384 0.0
H4138 H 0.62735 0.1296 0.09337 0.0
H4139 H 0.61018 0.12101 0.10551 0.0
H4140 H 0.8642 0.61498 0.05596 0.0
H4141 H 0.87252 0.60735 0.06819 0.0
H4142 H 0.88143 0.52828 0.06253 0.0
H4143 H 0.87366 0.53604 0.05028 0.0
H4144 H 0.83721 0.55184 0.07658 0.0
H4145 H 0.96175 0.58676 0.07378 0.0
H4146 H 0.94129 0.59643 0.06739 0.0
H4147 H 0.93566 0.55788 0.06773 0.0
C4148 C 0.86815 0.5961 0.05732 0.0
C4149 C 0.86846 0.5762 0.05216 0.0
C4150 C 0.8727 0.59168 0.06429 0.0
C4151 C 0.87791 0.56749 0.06622 0.0
C4152 C 0.87779 0.54731 0.06111 0.0
H4153 H 0.8737 0.49173 0.10698 0.0
H4154 H 0.86412 0.50017 0.09492 0.0
C4155 C 0.8731 0.55161 0.05414 0.0
C4156 C 0.88344 0.56335 0.07358 0.0
H4157 H 0.93831 0.56628 0.08469 0.0
C4158 C 0.85929 0.55502 0.07837 0.0
C4159 C 0.91241 0.56789 0.07587 0.0
C4160 C 0.93941 0.57798 0.07095 0.0
C4161 C 0.86322 0.55058 0.08543 0.0
C4162 C 0.89195 0.55437 0.08769 0.0
C4163 C 0.91626 0.5632 0.08291 0.0
C4164 C 0.89732 0.54939 0.09501 0.0
C4165 C 0.83679 0.54221 0.09042 0.0
C4166 C 0.9195 0.57422 0.09898 0.0
C4167 C 0.92494 0.56954 0.10588 0.0
C4168 C 0.90844 0.53985 0.1089 0.0
C4169 C 0.88639 0.51498 0.10486 0.0
C4170 C 0.88091 0.51972 0.09797 0.0
H4171 H 0.81896 0.5469 0.08818 0.0
H4172 H 0.82548 0.5171 0.09166 0.0
H4173 H 0.84543 0.55536 0.09536 0.0
H4174 H 0.93242 0.59728 0.09676 0.0
H4175 H 0.94181 0.58924 0.10888 0.0
H4176 H 0.47672 0.34649 0.04957 0.0
H4177 H 0.48764 0.36353 0.06172 0.0
H4178 H 0.40874 0.27722 0.06831 0.0
H4179 H 0.39795 0.25977 0.0562 0.0
H4180 H 0.44599 0.36913 0.07123 0.0
H4181 H 0.48241 0.28616 0.08035 0.0
H4182 H 0.48131 0.29471 0.07126 0.0
H4183 H 0.44604 0.26894 0.07577 0.0
C4184 C 0.4619 0.33103 0.05362 0.0
C4185 C 0.43653 0.30177 0.05195 0.0
C4186 C 0.46808 0.34085 0.06054 0.0
C4187 C 0.4492 0.32146 0.06589 0.0
C4188 C 0.4238 0.29231 0.06425 0.0
H4189 H 0.42557 0.36209 0.10821 0.0
H4190 H 0.41998 0.34779 0.09591 0.0
C4191 C 0.41751 0.28252 0.05733 0.0
C4192 C 0.45549 0.33208 0.07318 0.0
H4193 H 0.47464 0.31562 0.08903 0.0
C4194 C 0.45241 0.35758 0.07512 0.0
C4195 C 0.46417 0.31708 0.0782 0.0
C4196 C 0.46897 0.29035 0.07631 0.0
C4197 C 0.45702 0.36803 0.08203 0.0
C4198 C 0.46466 0.35236 0.0871 0.0
C4199 C 0.46854 0.32737 0.08512 0.0
C4200 C 0.46825 0.36131 0.0945 0.0
C4201 C 0.45381 0.39578 0.08386 0.0
C4202 C 0.49716 0.37316 0.09778 0.0
C4203 C 0.50051 0.38156 0.10479 0.0
C4204 C 0.4749 0.37797 0.10866 0.0
C4205 C 0.44588 0.36572 0.10535 0.0
C4206 C 0.4426 0.35745 0.09834 0.0
H4207 H 0.45493 0.40937 0.07917 0.0
H4208 H 0.43104 0.38772 0.08641 0.0
H4209 H 0.47228 0.4113 0.08754 0.0
H4210 H 0.51718 0.3762 0.09488 0.0
H4211 H 0.52324 0.39124 0.10716 0.0
H4212 H 0.34912 0.86715 0.94497 0.0
H4213 H 0.36762 0.87401 0.93294 0.0
H4214 H 0.28386 0.871 0.92591 0.0
H4215 H 0.26481 0.86335 0.93789 0.0
H4216 H 0.30206 0.8339 0.918 0.0
H4217 H 0.39824 0.95531 0.92167 0.0
H4218 H 0.39735 0.92716 0.92767 0.0
H4219 H 0.36669 0.93625 0.92779 0.0
C4220 C 0.33452 0.86767 0.94085 0.0
C4221 C 0.30558 0.86488 0.94237 0.0
C4222 C 0.34525 0.87186 0.934 0.0
C4223 C 0.32724 0.87339 0.92857 0.0
C4224 C 0.29813 0.87005 0.93005 0.0
H4225 H 0.37047 0.94219 0.88685 0.0
H4226 H 0.35619 0.93161 0.89912 0.0
C4227 C 0.28741 0.86592 0.93689 0.0
C4228 C 0.33872 0.87867 0.92133 0.0
H4229 H 0.39389 0.93283 0.91061 0.0
C4230 C 0.32222 0.85543 0.91638 0.0
C4231 C 0.36487 0.90692 0.91926 0.0
C4232 C 0.38276 0.93301 0.92435 0.0
C4233 C 0.33112 0.85979 0.90936 0.0
C4234 C 0.35733 0.888 0.90729 0.0
C4235 C 0.37393 0.91116 0.91225 0.0
C4236 C 0.36688 0.89461 0.89993 0.0
C4237 C 0.31194 0.8346 0.90417 0.0
C4238 C 0.378 0.87752 0.89638 0.0
C4239 C 0.38641 0.88365 0.88937 0.0
C4240 C 0.38391 0.90704 0.88582 0.0
C4241 C 0.37309 0.92432 0.88945 0.0
C4242 C 0.36476 0.91822 0.89644 0.0
H4243 H 0.28927 0.8169 0.90638 0.0
H4244 H 0.3076 0.84465 0.89944 0.0
H4245 H 0.32484 0.82276 0.90258 0.0
H4246 H 0.38024 0.85952 0.89903 0.0
H4247 H 0.39512 0.87026 0.88676 0.0
H4248 H 0.1325 0.52341 0.88614 0.0
H4249 H 0.14553 0.51842 0.89819 0.0
H4250 H 0.08801 0.41891 0.89682 0.0
H4251 H 0.07528 0.42363 0.88475 0.0
H4252 H 0.10216 0.48972 0.90936 0.0
H4253 H 0.17241 0.43326 0.90441 0.0
H4254 H 0.16437 0.4539 0.89775 0.0
H4255 H 0.13531 0.41515 0.90013 0.0
C4256 C 0.12295 0.50046 0.88839 0.0
C4257 C 0.10292 0.47389 0.88451 0.0
C4258 C 0.13029 0.49767 0.89526 0.0
C4259 C 0.11801 0.4683 0.89834 0.0
C4260 C 0.09806 0.44175 0.89449 0.0
H4261 H 0.09161 0.4087 0.94084 0.0
H4262 H 0.08701 0.42071 0.92871 0.0
C4263 C 0.09058 0.44451 0.88763 0.0
C4264 C 0.12498 0.46536 0.90567 0.0
H4265 H 0.15683 0.43326 0.91614 0.0
C4266 C 0.11434 0.47762 0.91085 0.0
C4267 C 0.14117 0.44987 0.90757 0.0
C4268 C 0.15426 0.4375 0.90218 0.0
C4269 C 0.11853 0.47381 0.91792 0.0
C4270 C 0.13349 0.45711 0.91982 0.0
C4271 C 0.14512 0.44582 0.91464 0.0
C4272 C 0.13644 0.45028 0.92716 0.0
C4273 C 0.10684 0.48756 0.92331 0.0
C4274 C 0.1658 0.46255 0.93024 0.0
C4275 C 0.16852 0.45564 0.93716 0.0
C4276 C 0.14189 0.43607 0.94107 0.0
C4277 C 0.11253 0.42366 0.93794 0.0
C4278 C 0.10984 0.43071 0.93104 0.0
H4279 H 0.10284 0.50583 0.92106 0.0
H4280 H 0.08448 0.46897 0.92544 0.0
H4281 H 0.12354 0.4977 0.92769 0.0
H4282 H 0.18657 0.47751 0.9273 0.0
H4283 H 0.19145 0.46523 0.93942 0.0
H4284 H 0.59323 0.67869 0.94176 0.0
H4285 H 0.5815 0.66303 0.92956 0.0
H4286 H 0.52429 0.70539 0.92845 0.0
H4287 H 0.53639 0.72171 0.94061 0.0
H4288 H 0.52091 0.62544 0.92333 0.0
H4289 H 0.58721 0.74418 0.91206 0.0
H4290 H 0.59328 0.73545 0.92085 0.0
H4291 H 0.55986 0.73876 0.9188 0.0
C4292 C 0.57837 0.6849 0.9389 0.0
C4293 C 0.56585 0.70155 0.94213 0.0
C4294 C 0.57155 0.67577 0.93196 0.0
C4295 C 0.5523 0.68334 0.92812 0.0
C4296 C 0.53947 0.69966 0.93133 0.0
H4297 H 0.47364 0.60819 0.88724 0.0
H4298 H 0.48011 0.62472 0.89944 0.0
C4299 C 0.5462 0.70872 0.93828 0.0
C4300 C 0.54569 0.67405 0.92075 0.0
H4301 H 0.5591 0.70289 0.90422 0.0
C4302 C 0.5291 0.6423 0.91914 0.0
C4303 C 0.55668 0.69623 0.91533 0.0
C4304 C 0.57546 0.73059 0.9168 0.0
C4305 C 0.52326 0.63209 0.91221 0.0
C4306 C 0.53414 0.65428 0.9068 0.0
C4307 C 0.55064 0.68602 0.90841 0.0
C4308 C 0.53003 0.64496 0.89942 0.0
C4309 C 0.50627 0.5977 0.91072 0.0
C4310 C 0.55604 0.65148 0.89537 0.0
C4311 C 0.55245 0.64222 0.88843 0.0
C4312 C 0.52278 0.62646 0.88539 0.0
C4313 C 0.49679 0.62044 0.88943 0.0
C4314 C 0.5004 0.62962 0.8964 0.0
H4315 H 0.50445 0.58384 0.91542 0.0
H4316 H 0.48244 0.59046 0.9089 0.0
H4317 H 0.51818 0.59219 0.90655 0.0
H4318 H 0.5791 0.66346 0.89762 0.0
H4319 H 0.57293 0.64757 0.88541 0.0
H4320 H 0.32062 0.44971 0.38333 0.0
H4321 H 0.30958 0.4437 0.39584 0.0
H4322 H 0.39847 0.4513 0.39974 0.0
H4323 H 0.40987 0.45766 0.38725 0.0
H4324 H 0.31038 0.39645 0.40511 0.0
H4325 H 0.39459 0.51864 0.41238 0.0
H4326 H 0.38033 0.50733 0.40361 0.0
H4327 H 0.40918 0.49925 0.40697 0.0
C4328 C 0.33787 0.45027 0.38686 0.0
C4329 C 0.36613 0.45422 0.38433 0.0
C4330 C 0.33147 0.44669 0.39398 0.0
C4331 C 0.35334 0.44734 0.39868 0.0
C4332 C 0.38145 0.45102 0.39618 0.0
H4333 H 0.3318 0.39557 0.44232 0.0
H4334 H 0.34288 0.40071 0.42983 0.0
C4335 C 0.3878 0.4544 0.38905 0.0
C4336 C 0.34668 0.44402 0.40621 0.0
H4337 H 0.36872 0.48352 0.42159 0.0
C4338 C 0.32309 0.41542 0.40873 0.0
C4339 C 0.36322 0.46898 0.41086 0.0
C4340 C 0.38812 0.50041 0.40835 0.0
C4341 C 0.31581 0.411 0.41584 0.0
C4342 C 0.33269 0.43581 0.42051 0.0
C4343 C 0.35603 0.46452 0.41798 0.0
C4344 C 0.32598 0.43259 0.42804 0.0
C4345 C 0.28987 0.38003 0.41831 0.0
C4346 C 0.3132 0.44915 0.43114 0.0
C4347 C 0.3066 0.44609 0.43825 0.0
C4348 C 0.31299 0.42664 0.4424 0.0
C4349 C 0.32616 0.41035 0.43926 0.0
C4350 C 0.33259 0.41331 0.43214 0.0
H4351 H 0.27547 0.3653 0.41393 0.0
H4352 H 0.29989 0.36747 0.42106 0.0
H4353 H 0.27465 0.38329 0.42203 0.0
H4354 H 0.30795 0.46413 0.42804 0.0
H4355 H 0.29602 0.45859 0.44046 0.0
H4356 H 0.55867 0.96084 0.3882 0.0
H4357 H 0.56495 0.9559 0.40069 0.0
H4358 H 0.57398 0.87541 0.39682 0.0
H4359 H 0.5681 0.8804 0.38431 0.0
H4360 H 0.52568 0.90082 0.40903 0.0
H4361 H 0.65052 0.93465 0.40925 0.0
H4362 H 0.63309 0.94456 0.40219 0.0
H4363 H 0.62653 0.90579 0.40295 0.0
C4364 C 0.56242 0.94235 0.39 0.0
C4365 C 0.56304 0.92107 0.38528 0.0
C4366 C 0.56582 0.93947 0.39713 0.0
C4367 C 0.57021 0.9155 0.39964 0.0
C4368 C 0.57098 0.89428 0.39496 0.0
H4369 H 0.54963 0.84219 0.44127 0.0
H4370 H 0.54621 0.84997 0.42882 0.0
C4371 C 0.56738 0.89702 0.38783 0.0
C4372 C 0.57286 0.91204 0.4072 0.0
H4373 H 0.62284 0.91574 0.41982 0.0
C4374 C 0.54691 0.90413 0.4114 0.0
C4375 C 0.6007 0.91665 0.41025 0.0
C4376 C 0.62945 0.92612 0.40595 0.0
C4377 C 0.54791 0.90018 0.4186 0.0
C4378 C 0.57554 0.90414 0.42163 0.0
C4379 C 0.60167 0.91257 0.41745 0.0
C4380 C 0.57767 0.89954 0.42915 0.0
C4381 C 0.51956 0.89205 0.42293 0.0
C4382 C 0.5968 0.92485 0.43342 0.0
C4383 C 0.5986 0.92057 0.44055 0.0
C4384 C 0.58146 0.89083 0.44352 0.0
C4385 C 0.56262 0.86548 0.43918 0.0
C4386 C 0.56074 0.86983 0.43206 0.0
H4387 H 0.50239 0.89585 0.42005 0.0
H4388 H 0.5082 0.86721 0.42443 0.0
H4389 H 0.52615 0.90606 0.42778 0.0
H4390 H 0.61004 0.94796 0.43124 0.0
H4391 H 0.61306 0.94063 0.44375 0.0
H4392 H 0.15096 0.70104 0.4385 0.0
H4393 H 0.14179 0.69019 0.42605 0.0
H4394 H 0.04412 0.65615 0.4291 0.0
H4395 H 0.05299 0.66665 0.44158 0.0
H4396 H 0.10228 0.63338 0.41926 0.0
H4397 H 0.06947 0.72298 0.41382 0.0
H4398 H 0.08869 0.72252 0.42175 0.0
H4399 H 0.04786 0.69611 0.42066 0.0
C4400 C 0.12746 0.69091 0.43654 0.0
C4401 C 0.1027 0.68478 0.44103 0.0
C4402 C 0.12231 0.6849 0.42943 0.0
C4403 C 0.09237 0.67281 0.42666 0.0
C4404 C 0.06749 0.66608 0.43112 0.0
H4405 H 0.03818 0.59561 0.38491 0.0
H4406 H 0.04039 0.60362 0.3975 0.0
C4407 C 0.07261 0.67209 0.43825 0.0
C4408 C 0.0873 0.66715 0.4191 0.0
H4409 H 0.06518 0.69006 0.40449 0.0
C4410 C 0.09409 0.64567 0.41602 0.0
C4411 C 0.07693 0.68353 0.41491 0.0
C4412 C 0.07054 0.70779 0.41792 0.0
C4413 C 0.09072 0.64006 0.40883 0.0
C4414 C 0.07989 0.65608 0.40466 0.0
C4415 C 0.07318 0.67762 0.40773 0.0
C4416 C 0.07673 0.65175 0.39704 0.0
C4417 C 0.09954 0.61765 0.40574 0.0
C4418 C 0.09565 0.6765 0.39261 0.0
C4419 C 0.09424 0.67211 0.38542 0.0
C4420 C 0.07375 0.64291 0.38253 0.0
C4421 C 0.05403 0.61845 0.38697 0.0
C4422 C 0.05548 0.62287 0.39417 0.0
H4423 H 0.11372 0.61252 0.40939 0.0
H4424 H 0.07815 0.59548 0.40451 0.0
H4425 H 0.1128 0.62701 0.40084 0.0
H4426 H 0.11205 0.69902 0.39474 0.0
H4427 H 0.10944 0.69148 0.38212 0.0
loop_
_geom_bond_atom_site_label_1
_geom_bond_atom_site_label_2
_geom_bond_distance
_geom_bond_site_symmetry_2
_ccdc_geom_bond_type
C0 C1 1.351 . S
C0 N3 1.368 . S
C0 H5 0.931 . S
C1 C0 1.351 . S
C1 N2 1.373 . S
C1 H29 0.930 . S
N2 C1 1.373 . S
N2 C4 1.340 . S
N3 C0 1.368 . S
N3 C4 1.321 . S
N3 Co6 2.135 . S
C4 N2 1.340 . S
C4 N3 1.321 . S
C4 H28 0.930 . S
H5 C0 0.931 . S
Co6 N3 2.135 . S
Co6 N9 2.121 . S
Co6 O14 2.055 . S
Co6 O17 2.039 . S
Co6 N20 2.140 . S
C7 O8 1.227 . S
C7 O17 1.265 . S
O8 C7 1.227 . S
N9 Co6 2.121 . S
N9 C11 1.375 . S
N9 C12 1.313 . S
C10 C11 1.338 . S
C10 N13 1.377 . S
C10 H30 0.930 . S
C11 N9 1.375 . S
C11 C10 1.338 . S
C11 H15 0.931 . S
C12 N9 1.313 . S
C12 N13 1.344 . S
C12 H16 0.930 . S
N13 C10 1.377 . S
N13 C12 1.344 . S
O14 Co6 2.055 . S
O14 C18 1.253 . S
H15 C11 0.931 . S
H16 C12 0.930 . S
O17 Co6 2.039 . S
O17 C7 1.265 . S
C18 O14 1.253 . S
C18 O19 1.227 . S
O19 C18 1.227 . S
N20 Co6 2.140 . S
N20 C23 1.346 . S
N20 C24 1.345 . S
C21 C22 1.387 . S
C21 C25 1.391 . S
C22 C21 1.387 . S
C22 C23 1.369 . S
C22 H31 0.929 . S
C23 N20 1.346 . S
C23 C22 1.369 . S
C23 H26 0.928 . S
C24 N20 1.345 . S
C24 C25 1.371 . S
C24 H27 0.931 . S
C25 C21 1.391 . S
C25 C24 1.371 . S
C25 H32 0.930 . S
H26 C23 0.928 . S
H27 C24 0.931 . S
H28 C4 0.930 . S
H29 C1 0.930 . S
H30 C10 0.930 . S
H31 C22 0.929 . S
H32 C25 0.930 . S
C33 C34 1.351 . S
C33 N36 1.368 . S
C33 H38 0.931 . S
C34 C33 1.351 . S
C34 N35 1.373 . S
C34 H62 0.930 . S
N35 C34 1.373 . S
N35 C37 1.340 . S
N36 C33 1.368 . S
N36 C37 1.321 . S
N36 Co39 2.135 . S
C37 N35 1.340 . S
C37 N36 1.321 . S
C37 H61 0.930 . S
H38 C33 0.931 . S
Co39 N36 2.135 . S
Co39 N42 2.121 . S
Co39 O47 2.055 . S
Co39 O50 2.039 . S
Co39 N53 2.140 . S
C40 O41 1.227 . S
C40 O50 1.265 . S
O41 C40 1.227 . S
N42 Co39 2.121 . S
N42 C44 1.375 . S
N42 C45 1.313 . S
C43 C44 1.338 . S
C43 N46 1.377 . S
C43 H63 0.930 . S
C44 N42 1.375 . S
C44 C43 1.338 . S
C44 H48 0.931 . S
C45 N42 1.313 . S
C45 N46 1.344 . S
C45 H49 0.930 . S
N46 C43 1.377 . S
N46 C45 1.344 . S
O47 Co39 2.055 . S
O47 C51 1.253 . S
H48 C44 0.931 . S
H49 C45 0.930 . S
O50 Co39 2.039 . S
O50 C40 1.265 . S
C51 O47 1.253 . S
C51 O52 1.227 . S
O52 C51 1.227 . S
N53 Co39 2.140 . S
N53 C56 1.346 . S
N53 C57 1.345 . S
C54 C55 1.387 . S
C54 C58 1.391 . S
C55 C54 1.387 . S
C55 C56 1.369 . S
C55 H64 0.929 . S
C56 N53 1.346 . S
C56 C55 1.369 . S
C56 H59 0.928 . S
C57 N53 1.345 . S
C57 C58 1.371 . S
C57 H60 0.931 . S
C58 C54 1.391 . S
C58 C57 1.371 . S
C58 H65 0.930 . S
H59 C56 0.928 . S
H60 C57 0.931 . S
H61 C37 0.930 . S
H62 C34 0.930 . S
H63 C43 0.930 . S
H64 C55 0.929 . S
H65 C58 0.930 . S
C66 C67 1.351 . S
C66 N69 1.368 . S
C66 H71 0.931 . S
C67 C66 1.351 . S
C67 N68 1.373 . S
C67 H95 0.930 . S
N68 C67 1.373 . S
N68 C70 1.340 . S
N69 C66 1.368 . S
N69 C70 1.321 . S
N69 Co72 2.135 . S
C70 N68 1.340 . S
C70 N69 1.321 . S
C70 H94 0.930 . S
H71 C66 0.931 . S
Co72 N69 2.135 . S
Co72 N75 2.121 . S
Co72 O80 2.055 . S
Co72 O83 2.039 . S
Co72 N86 2.140 . S
C73 O74 1.227 . S
C73 O83 1.265 . S
O74 C73 1.227 . S
N75 Co72 2.121 . S
N75 C77 1.375 . S
N75 C78 1.313 . S
C76 C77 1.338 . S
C76 N79 1.377 . S
C76 H96 0.930 . S
C77 N75 1.375 . S
C77 C76 1.338 . S
C77 H81 0.931 . S
C78 N75 1.313 . S
C78 N79 1.344 . S
C78 H82 0.930 . S
N79 C76 1.377 . S
N79 C78 1.344 . S
O80 Co72 2.055 . S
O80 C84 1.253 . S
H81 C77 0.931 . S
H82 C78 0.930 . S
O83 Co72 2.039 . S
O83 C73 1.265 . S
C84 O80 1.253 . S
C84 O85 1.227 . S
O85 C84 1.227 . S
N86 Co72 2.140 . S
N86 C89 1.346 . S
N86 C90 1.345 . S
C87 C88 1.387 . S
C87 C91 1.391 . S
C88 C87 1.387 . S
C88 C89 1.369 . S
C88 H97 0.929 . S
C89 N86 1.346 . S
C89 C88 1.369 . S
C89 H92 0.928 . S
C90 N86 1.345 . S
C90 C91 1.371 . S
C90 H93 0.931 . S
C91 C87 1.391 . S
C91 C90 1.371 . S
C91 H98 0.930 . S
H92 C89 0.928 . S
H93 C90 0.931 . S
H94 C70 0.930 . S
H95 C67 0.930 . S
H96 C76 0.930 . S
H97 C88 0.929 . S
H98 C91 0.930 . S
C99 C100 1.351 . S
C99 N102 1.368 . S
C99 H104 0.931 . S
C100 C99 1.351 . S
C100 N101 1.373 . S
C100 H128 0.930 . S
N101 C100 1.373 . S
N101 C103 1.340 . S
N102 C99 1.368 . S
N102 C103 1.321 . S
N102 Co105 2.135 . S
C103 N101 1.340 . S
C103 N102 1.321 . S
C103 H127 0.930 . S
H104 C99 0.931 . S
Co105 N102 2.135 . S
Co105 N108 2.121 . S
Co105 O113 2.055 . S
Co105 O116 2.039 . S
Co105 N119 2.140 . S
C106 O107 1.227 . S
C106 O116 1.265 . S
O107 C106 1.227 . S
N108 Co105 2.121 . S
N108 C110 1.375 . S
N108 C111 1.313 . S
C109 C110 1.338 . S
C109 N112 1.377 . S
C109 H129 0.930 . S
C110 N108 1.375 . S
C110 C109 1.338 . S
C110 H114 0.931 . S
C111 N108 1.313 . S
C111 N112 1.344 . S
C111 H115 0.930 . S
N112 C109 1.377 . S
N112 C111 1.344 . S
O113 Co105 2.055 . S
O113 C117 1.253 . S
H114 C110 0.931 . S
H115 C111 0.930 . S
O116 Co105 2.039 . S
O116 C106 1.265 . S
C117 O113 1.253 . S
C117 O118 1.227 . S
O118 C117 1.227 . S
N119 Co105 2.140 . S
N119 C122 1.346 . S
N119 C123 1.345 . S
C120 C121 1.387 . S
C120 C124 1.391 . S
C121 C120 1.387 . S
C121 C122 1.369 . S
C121 H130 0.929 . S
C122 N119 1.346 . S
C122 C121 1.369 . S
C122 H125 0.928 . S
C123 N119 1.345 . S
C123 C124 1.371 . S
C123 H126 0.931 . S
C124 C120 1.391 . S
C124 C123 1.371 . S
C124 H131 0.930 . S
H125 C122 0.928 . S
H126 C123 0.931 . S
H127 C103 0.930 . S
H128 C100 0.930 . S
H129 C109 0.930 . S
H130 C121 0.929 . S
H131 C124 0.930 . S
C132 C133 1.351 . S
C132 N135 1.368 . S
C132 H137 0.931 . S
C133 C132 1.351 . S
C133 N134 1.373 . S
C133 H161 0.930 . S
N134 C133 1.373 . S
N134 C136 1.340 . S
N135 C132 1.368 . S
N135 C136 1.321 . S
N135 Co138 2.135 . S
C136 N134 1.340 . S
C136 N135 1.321 . S
C136 H160 0.930 . S
H137 C132 0.931 . S
Co138 N135 2.135 . S
Co138 N141 2.121 . S
Co138 O146 2.055 . S
Co138 O149 2.039 . S
Co138 N152 2.140 . S
C139 O140 1.227 . S
C139 O149 1.265 . S
O140 C139 1.227 . S
N141 Co138 2.121 . S
N141 C143 1.375 . S
N141 C144 1.313 . S
C142 C143 1.338 . S
C142 N145 1.377 . S
C142 H162 0.930 . S
C143 N141 1.375 . S
C143 C142 1.338 . S
C143 H147 0.931 . S
C144 N141 1.313 . S
C144 N145 1.344 . S
C144 H148 0.930 . S
N145 C142 1.377 . S
N145 C144 1.344 . S
O146 Co138 2.055 . S
O146 C150 1.253 . S
H147 C143 0.931 . S
H148 C144 0.930 . S
O149 Co138 2.039 . S
O149 C139 1.265 . S
C150 O146 1.253 . S
C150 O151 1.227 . S
O151 C150 1.227 . S
N152 Co138 2.140 . S
N152 C155 1.346 . S
N152 C156 1.345 . S
C153 C154 1.387 . S
C153 C157 1.391 . S
C154 C153 1.387 . S
C154 C155 1.369 . S
C154 H163 0.929 . S
C155 N152 1.346 . S
C155 C154 1.369 . S
C155 H158 0.928 . S
C156 N152 1.345 . S
C156 C157 1.371 . S
C156 H159 0.931 . S
C157 C153 1.391 . S
C157 C156 1.371 . S
C157 H164 0.930 . S
H158 C155 0.928 . S
H159 C156 0.931 . S
H160 C136 0.930 . S
H161 C133 0.930 . S
H162 C142 0.930 . S
H163 C154 0.929 . S
H164 C157 0.930 . S
C165 C166 1.351 . S
C165 N168 1.368 . S
C165 H170 0.931 . S
C166 C165 1.351 . S
C166 N167 1.373 . S
C166 H194 0.930 . S
N167 C166 1.373 . S
N167 C169 1.340 . S
N168 C165 1.368 . S
N168 C169 1.321 . S
N168 Co171 2.135 . S
C169 N167 1.340 . S
C169 N168 1.321 . S
C169 H193 0.930 . S
H170 C165 0.931 . S
Co171 N168 2.135 . S
Co171 N174 2.121 . S
Co171 O179 2.055 . S
Co171 O182 2.039 . S
Co171 N185 2.140 . S
C172 O173 1.227 . S
C172 O182 1.265 . S
O173 C172 1.227 . S
N174 Co171 2.121 . S
N174 C176 1.375 . S
N174 C177 1.313 . S
C175 C176 1.338 . S
C175 N178 1.377 . S
C175 H195 0.930 . S
C176 N174 1.375 . S
C176 C175 1.338 . S
C176 H180 0.931 . S
C177 N174 1.313 . S
C177 N178 1.344 . S
C177 H181 0.930 . S
N178 C175 1.377 . S
N178 C177 1.344 . S
O179 Co171 2.055 . S
O179 C183 1.253 . S
H180 C176 0.931 . S
H181 C177 0.930 . S
O182 Co171 2.039 . S
O182 C172 1.265 . S
C183 O179 1.253 . S
C183 O184 1.227 . S
O184 C183 1.227 . S
N185 Co171 2.140 . S
N185 C188 1.346 . S
N185 C189 1.345 . S
C186 C187 1.387 . S
C186 C190 1.391 . S
C187 C186 1.387 . S
C187 C188 1.369 . S
C187 H196 0.929 . S
C188 N185 1.346 . S
C188 C187 1.369 . S
C188 H191 0.928 . S
C189 N185 1.345 . S
C189 C190 1.371 . S
C189 H192 0.931 . S
C190 C186 1.391 . S
C190 C189 1.371 . S
C190 H197 0.930 . S
H191 C188 0.928 . S
H192 C189 0.931 . S
H193 C169 0.930 . S
H194 C166 0.930 . S
H195 C175 0.930 . S
H196 C187 0.929 . S
H197 C190 0.930 . S
C198 C199 1.351 . S
C198 N201 1.368 . S
C198 H203 0.931 . S
C199 C198 1.351 . S
C199 N200 1.373 . S
C199 H227 0.930 . S
N200 C199 1.373 . S
N200 C202 1.340 . S
N201 C198 1.368 . S
N201 C202 1.321 . S
N201 Co204 2.135 . S
C202 N200 1.340 . S
C202 N201 1.321 . S
C202 H226 0.930 . S
H203 C198 0.931 . S
Co204 N201 2.135 . S
Co204 N207 2.121 . S
Co204 O212 2.055 . S
Co204 O215 2.039 . S
Co204 N218 2.140 . S
C205 O206 1.227 . S
C205 O215 1.265 . S
O206 C205 1.227 . S
N207 Co204 2.121 . S
N207 C209 1.375 . S
N207 C210 1.313 . S
C208 C209 1.338 . S
C208 N211 1.377 . S
C208 H228 0.930 . S
C209 N207 1.375 . S
C209 C208 1.338 . S
C209 H213 0.931 . S
C210 N207 1.313 . S
C210 N211 1.344 . S
C210 H214 0.930 . S
N211 C208 1.377 . S
N211 C210 1.344 . S
O212 Co204 2.055 . S
O212 C216 1.253 . S
H213 C209 0.931 . S
H214 C210 0.930 . S
O215 Co204 2.039 . S
O215 C205 1.265 . S
C216 O212 1.253 . S
C216 O217 1.227 . S
O217 C216 1.227 . S
N218 Co204 2.140 . S
N218 C221 1.346 . S
N218 C222 1.345 . S
C219 C220 1.387 . S
C219 C223 1.391 . S
C220 C219 1.387 . S
C220 C221 1.369 . S
C220 H229 0.929 . S
C221 N218 1.346 . S
C221 C220 1.369 . S
C221 H224 0.928 . S
C222 N218 1.345 . S
C222 C223 1.371 . S
C222 H225 0.931 . S
C223 C219 1.391 . S
C223 C222 1.371 . S
C223 H230 0.930 . S
H224 C221 0.928 . S
H225 C222 0.931 . S
H226 C202 0.930 . S
H227 C199 0.930 . S
H228 C208 0.930 . S
H229 C220 0.929 . S
H230 C223 0.930 . S
C231 C232 1.351 . S
C231 N234 1.368 . S
C231 H236 0.931 . S
C232 C231 1.351 . S
C232 N233 1.373 . S
C232 H260 0.930 . S
N233 C232 1.373 . S
N233 C235 1.340 . S
N234 C231 1.368 . S
N234 C235 1.321 . S
N234 Co237 2.135 . S
C235 N233 1.340 . S
C235 N234 1.321 . S
C235 H259 0.930 . S
H236 C231 0.931 . S
Co237 N234 2.135 . S
Co237 N240 2.121 . S
Co237 O245 2.055 . S
Co237 O248 2.039 . S
Co237 N251 2.140 . S
C238 O239 1.227 . S
C238 O248 1.265 . S
O239 C238 1.227 . S
N240 Co237 2.121 . S
N240 C242 1.375 . S
N240 C243 1.313 . S
C241 C242 1.338 . S
C241 N244 1.377 . S
C241 H261 0.930 . S
C242 N240 1.375 . S
C242 C241 1.338 . S
C242 H246 0.931 . S
C243 N240 1.313 . S
C243 N244 1.344 . S
C243 H247 0.930 . S
N244 C241 1.377 . S
N244 C243 1.344 . S
O245 Co237 2.055 . S
O245 C249 1.253 . S
H246 C242 0.931 . S
H247 C243 0.930 . S
O248 Co237 2.039 . S
O248 C238 1.265 . S
C249 O245 1.253 . S
C249 O250 1.227 . S
O250 C249 1.227 . S
N251 Co237 2.140 . S
N251 C254 1.346 . S
N251 C255 1.345 . S
C252 C253 1.387 . S
C252 C256 1.391 . S
C253 C252 1.387 . S
C253 C254 1.369 . S
C253 H262 0.929 . S
C254 N251 1.346 . S
C254 C253 1.369 . S
C254 H257 0.928 . S
C255 N251 1.345 . S
C255 C256 1.371 . S
C255 H258 0.931 . S
C256 C252 1.391 . S
C256 C255 1.371 . S
C256 H263 0.930 . S
H257 C254 0.928 . S
H258 C255 0.931 . S
H259 C235 0.930 . S
H260 C232 0.930 . S
H261 C241 0.930 . S
H262 C253 0.929 . S
H263 C256 0.930 . S
C264 C265 1.351 . S
C264 N267 1.368 . S
C264 H269 0.931 . S
C265 C264 1.351 . S
C265 N266 1.373 . S
C265 H293 0.930 . S
N266 C265 1.373 . S
N266 C268 1.340 . S
N267 C264 1.368 . S
N267 C268 1.321 . S
N267 Co270 2.135 . S
C268 N266 1.340 . S
C268 N267 1.321 . S
C268 H292 0.930 . S
H269 C264 0.931 . S
Co270 N267 2.135 . S
Co270 N273 2.121 . S
Co270 O278 2.055 . S
Co270 O281 2.039 . S
Co270 N284 2.140 . S
C271 O272 1.227 . S
C271 O281 1.265 . S
O272 C271 1.227 . S
N273 Co270 2.121 . S
N273 C275 1.375 . S
N273 C276 1.313 . S
C274 C275 1.338 . S
C274 N277 1.377 . S
C274 H294 0.930 . S
C275 N273 1.375 . S
C275 C274 1.338 . S
C275 H279 0.931 . S
C276 N273 1.313 . S
C276 N277 1.344 . S
C276 H280 0.930 . S
N277 C274 1.377 . S
N277 C276 1.344 . S
O278 Co270 2.055 . S
O278 C282 1.253 . S
H279 C275 0.931 . S
H280 C276 0.930 . S
O281 Co270 2.039 . S
O281 C271 1.265 . S
C282 O278 1.253 . S
C282 O283 1.227 . S
O283 C282 1.227 . S
N284 Co270 2.140 . S
N284 C287 1.346 . S
N284 C288 1.345 . S
C285 C286 1.387 . S
C285 C289 1.391 . S
C286 C285 1.387 . S
C286 C287 1.369 . S
C286 H295 0.929 . S
C287 N284 1.346 . S
C287 C286 1.369 . S
C287 H290 0.928 . S
C288 N284 1.345 . S
C288 C289 1.371 . S
C288 H291 0.931 . S
C289 C285 1.391 . S
C289 C288 1.371 . S
C289 H296 0.930 . S
H290 C287 0.928 . S
H291 C288 0.931 . S
H292 C268 0.930 . S
H293 C265 0.930 . S
H294 C274 0.930 . S
H295 C286 0.929 . S
H296 C289 0.930 . S
C297 C298 1.351 . S
C297 N300 1.368 . S
C297 H302 0.931 . S
C298 C297 1.351 . S
C298 N299 1.373 . S
C298 H326 0.930 . S
N299 C298 1.373 . S
N299 C301 1.340 . S
N300 C297 1.368 . S
N300 C301 1.321 . S
N300 Co303 2.135 . S
C301 N299 1.340 . S
C301 N300 1.321 . S
C301 H325 0.930 . S
H302 C297 0.931 . S
Co303 N300 2.135 . S
Co303 N306 2.121 . S
Co303 O311 2.055 . S
Co303 O314 2.039 . S
Co303 N317 2.140 . S
C304 O305 1.227 . S
C304 O314 1.265 . S
O305 C304 1.227 . S
N306 Co303 2.121 . S
N306 C308 1.375 . S
N306 C309 1.313 . S
C307 C308 1.338 . S
C307 N310 1.377 . S
C307 H327 0.930 . S
C308 N306 1.375 . S
C308 C307 1.338 . S
C308 H312 0.931 . S
C309 N306 1.313 . S
C309 N310 1.344 . S
C309 H313 0.930 . S
N310 C307 1.377 . S
N310 C309 1.344 . S
O311 Co303 2.055 . S
O311 C315 1.253 . S
H312 C308 0.931 . S
H313 C309 0.930 . S
O314 Co303 2.039 . S
O314 C304 1.265 . S
C315 O311 1.253 . S
C315 O316 1.227 . S
O316 C315 1.227 . S
N317 Co303 2.140 . S
N317 C320 1.346 . S
N317 C321 1.345 . S
C318 C319 1.387 . S
C318 C322 1.391 . S
C319 C318 1.387 . S
C319 C320 1.369 . S
C319 H328 0.929 . S
C320 N317 1.346 . S
C320 C319 1.369 . S
C320 H323 0.928 . S
C321 N317 1.345 . S
C321 C322 1.371 . S
C321 H324 0.931 . S
C322 C318 1.391 . S
C322 C321 1.371 . S
C322 H329 0.930 . S
H323 C320 0.928 . S
H324 C321 0.931 . S
H325 C301 0.930 . S
H326 C298 0.930 . S
H327 C307 0.930 . S
H328 C319 0.929 . S
H329 C322 0.930 . S
C330 C331 1.351 . S
C330 N333 1.368 . S
C330 H335 0.931 . S
C331 C330 1.351 . S
C331 N332 1.373 . S
C331 H359 0.930 . S
N332 C331 1.373 . S
N332 C334 1.340 . S
N333 C330 1.368 . S
N333 C334 1.321 . S
N333 Co336 2.135 . S
C334 N332 1.340 . S
C334 N333 1.321 . S
C334 H358 0.930 . S
H335 C330 0.931 . S
Co336 N333 2.135 . S
Co336 N339 2.121 . S
Co336 O344 2.055 . S
Co336 O347 2.039 . S
Co336 N350 2.140 . S
C337 O338 1.227 . S
C337 O347 1.265 . S
O338 C337 1.227 . S
N339 Co336 2.121 . S
N339 C341 1.375 . S
N339 C342 1.313 . S
C340 C341 1.338 . S
C340 N343 1.377 . S
C340 H360 0.930 . S
C341 N339 1.375 . S
C341 C340 1.338 . S
C341 H345 0.931 . S
C342 N339 1.313 . S
C342 N343 1.344 . S
C342 H346 0.930 . S
N343 C340 1.377 . S
N343 C342 1.344 . S
O344 Co336 2.055 . S
O344 C348 1.253 . S
H345 C341 0.931 . S
H346 C342 0.930 . S
O347 Co336 2.039 . S
O347 C337 1.265 . S
C348 O344 1.253 . S
C348 O349 1.227 . S
O349 C348 1.227 . S
N350 Co336 2.140 . S
N350 C353 1.346 . S
N350 C354 1.345 . S
C351 C352 1.387 . S
C351 C355 1.391 . S
C352 C351 1.387 . S
C352 C353 1.369 . S
C352 H361 0.929 . S
C353 N350 1.346 . S
C353 C352 1.369 . S
C353 H356 0.928 . S
C354 N350 1.345 . S
C354 C355 1.371 . S
C354 H357 0.931 . S
C355 C351 1.391 . S
C355 C354 1.371 . S
C355 H362 0.930 . S
H356 C353 0.928 . S
H357 C354 0.931 . S
H358 C334 0.930 . S
H359 C331 0.930 . S
H360 C340 0.930 . S
H361 C352 0.929 . S
H362 C355 0.930 . S
C363 C364 1.351 . S
C363 N366 1.368 . S
C363 H368 0.931 . S
C364 C363 1.351 . S
C364 N365 1.373 . S
C364 H392 0.930 . S
N365 C364 1.373 . S
N365 C367 1.340 . S
N366 C363 1.368 . S
N366 C367 1.321 . S
N366 Co369 2.135 . S
C367 N365 1.340 . S
C367 N366 1.321 . S
C367 H391 0.930 . S
H368 C363 0.931 . S
Co369 N366 2.135 . S
Co369 N372 2.121 . S
Co369 O377 2.055 . S
Co369 O380 2.039 . S
Co369 N383 2.140 . S
C370 O371 1.227 . S
C370 O380 1.265 . S
O371 C370 1.227 . S
N372 Co369 2.121 . S
N372 C374 1.375 . S
N372 C375 1.313 . S
C373 C374 1.338 . S
C373 N376 1.377 . S
C373 H393 0.930 . S
C374 N372 1.375 . S
C374 C373 1.338 . S
C374 H378 0.931 . S
C375 N372 1.313 . S
C375 N376 1.344 . S
C375 H379 0.930 . S
N376 C373 1.377 . S
N376 C375 1.344 . S
O377 Co369 2.055 . S
O377 C381 1.253 . S
H378 C374 0.931 . S
H379 C375 0.930 . S
O380 Co369 2.039 . S
O380 C370 1.265 . S
C381 O377 1.253 . S
C381 O382 1.227 . S
O382 C381 1.227 . S
N383 Co369 2.140 . S
N383 C386 1.346 . S
N383 C387 1.345 . S
C384 C385 1.387 . S
C384 C388 1.391 . S
C385 C384 1.387 . S
C385 C386 1.369 . S
C385 H394 0.929 . S
C386 N383 1.346 . S
C386 C385 1.369 . S
C386 H389 0.928 . S
C387 N383 1.345 . S
C387 C388 1.371 . S
C387 H390 0.931 . S
C388 C384 1.391 . S
C388 C387 1.371 . S
C388 H395 0.930 . S
H389 C386 0.928 . S
H390 C387 0.931 . S
H391 C367 0.930 . S
H392 C364 0.930 . S
H393 C373 0.930 . S
H394 C385 0.929 . S
H395 C388 0.930 . S
C396 C397 1.351 . S
C396 N399 1.368 . S
C396 H401 0.931 . S
C397 C396 1.351 . S
C397 N398 1.373 . S
C397 H425 0.930 . S
N398 C397 1.373 . S
N398 C400 1.340 . S
N399 C396 1.368 . S
N399 C400 1.321 . S
N399 Co402 2.135 . S
C400 N398 1.340 . S
C400 N399 1.321 . S
C400 H424 0.930 . S
H401 C396 0.931 . S
Co402 N399 2.135 . S
Co402 N405 2.121 . S
Co402 O410 2.055 . S
Co402 O413 2.039 . S
Co402 N416 2.140 . S
C403 O404 1.227 . S
C403 O413 1.265 . S
O404 C403 1.227 . S
N405 Co402 2.121 . S
N405 C407 1.375 . S
N405 C408 1.313 . S
C406 C407 1.338 . S
C406 N409 1.377 . S
C406 H426 0.930 . S
C407 N405 1.375 . S
C407 C406 1.338 . S
C407 H411 0.931 . S
C408 N405 1.313 . S
C408 N409 1.344 . S
C408 H412 0.930 . S
N409 C406 1.377 . S
N409 C408 1.344 . S
O410 Co402 2.055 . S
O410 C414 1.253 . S
H411 C407 0.931 . S
H412 C408 0.930 . S
O413 Co402 2.039 . S
O413 C403 1.265 . S
C414 O410 1.253 . S
C414 O415 1.227 . S
O415 C414 1.227 . S
N416 Co402 2.140 . S
N416 C419 1.346 . S
N416 C420 1.345 . S
C417 C418 1.387 . S
C417 C421 1.391 . S
C418 C417 1.387 . S
C418 C419 1.369 . S
C418 H427 0.929 . S
C419 N416 1.346 . S
C419 C418 1.369 . S
C419 H422 0.928 . S
C420 N416 1.345 . S
C420 C421 1.371 . S
C420 H423 0.931 . S
C421 C417 1.391 . S
C421 C420 1.371 . S
C421 H428 0.930 . S
H422 C419 0.928 . S
H423 C420 0.931 . S
H424 C400 0.930 . S
H425 C397 0.930 . S
H426 C406 0.930 . S
H427 C418 0.929 . S
H428 C421 0.930 . S
C429 C430 1.351 . S
C429 N432 1.368 . S
C429 H434 0.931 . S
C430 C429 1.351 . S
C430 N431 1.373 . S
C430 H458 0.930 . S
N431 C430 1.373 . S
N431 C433 1.340 . S
N432 C429 1.368 . S
N432 C433 1.321 . S
N432 Co435 2.135 . S
C433 N431 1.340 . S
C433 N432 1.321 . S
C433 H457 0.930 . S
H434 C429 0.931 . S
Co435 N432 2.135 . S
Co435 N438 2.121 . S
Co435 O443 2.055 . S
Co435 O446 2.039 . S
Co435 N449 2.140 . S
C436 O437 1.227 . S
C436 O446 1.265 . S
O437 C436 1.227 . S
N438 Co435 2.121 . S
N438 C440 1.375 . S
N438 C441 1.313 . S
C439 C440 1.338 . S
C439 N442 1.377 . S
C439 H459 0.930 . S
C440 N438 1.375 . S
C440 C439 1.338 . S
C440 H444 0.931 . S
C441 N438 1.313 . S
C441 N442 1.344 . S
C441 H445 0.930 . S
N442 C439 1.377 . S
N442 C441 1.344 . S
O443 Co435 2.055 . S
O443 C447 1.253 . S
H444 C440 0.931 . S
H445 C441 0.930 . S
O446 Co435 2.039 . S
O446 C436 1.265 . S
C447 O443 1.253 . S
C447 O448 1.227 . S
O448 C447 1.227 . S
N449 Co435 2.140 . S
N449 C452 1.346 . S
N449 C453 1.345 . S
C450 C451 1.387 . S
C450 C454 1.391 . S
C451 C450 1.387 . S
C451 C452 1.369 . S
C451 H460 0.929 . S
C452 N449 1.346 . S
C452 C451 1.369 . S
C452 H455 0.928 . S
C453 N449 1.345 . S
C453 C454 1.371 . S
C453 H456 0.931 . S
C454 C450 1.391 . S
C454 C453 1.371 . S
C454 H461 0.930 . S
H455 C452 0.928 . S
H456 C453 0.931 . S
H457 C433 0.930 . S
H458 C430 0.930 . S
H459 C439 0.930 . S
H460 C451 0.929 . S
H461 C454 0.930 . S
C462 C463 1.351 . S
C462 N465 1.368 . S
C462 H467 0.931 . S
C463 C462 1.351 . S
C463 N464 1.373 . S
C463 H491 0.930 . S
N464 C463 1.373 . S
N464 C466 1.340 . S
N465 C462 1.368 . S
N465 C466 1.321 . S
N465 Co468 2.135 . S
C466 N464 1.340 . S
C466 N465 1.321 . S
C466 H490 0.930 . S
H467 C462 0.931 . S
Co468 N465 2.135 . S
Co468 N471 2.121 . S
Co468 O476 2.055 . S
Co468 O479 2.039 . S
Co468 N482 2.140 . S
C469 O470 1.227 . S
C469 O479 1.265 . S
O470 C469 1.227 . S
N471 Co468 2.121 . S
N471 C473 1.375 . S
N471 C474 1.313 . S
C472 C473 1.338 . S
C472 N475 1.377 . S
C472 H492 0.930 . S
C473 N471 1.375 . S
C473 C472 1.338 . S
C473 H477 0.931 . S
C474 N471 1.313 . S
C474 N475 1.344 . S
C474 H478 0.930 . S
N475 C472 1.377 . S
N475 C474 1.344 . S
O476 Co468 2.055 . S
O476 C480 1.253 . S
H477 C473 0.931 . S
H478 C474 0.930 . S
O479 Co468 2.039 . S
O479 C469 1.265 . S
C480 O476 1.253 . S
C480 O481 1.227 . S
O481 C480 1.227 . S
N482 Co468 2.140 . S
N482 C485 1.346 . S
N482 C486 1.345 . S
C483 C484 1.387 . S
C483 C487 1.391 . S
C484 C483 1.387 . S
C484 C485 1.369 . S
C484 H493 0.929 . S
C485 N482 1.346 . S
C485 C484 1.369 . S
C485 H488 0.928 . S
C486 N482 1.345 . S
C486 C487 1.371 . S
C486 H489 0.931 . S
C487 C483 1.391 . S
C487 C486 1.371 . S
C487 H494 0.930 . S
H488 C485 0.928 . S
H489 C486 0.931 . S
H490 C466 0.930 . S
H491 C463 0.930 . S
H492 C472 0.930 . S
H493 C484 0.929 . S
H494 C487 0.930 . S
C495 C496 1.351 . S
C495 N498 1.368 . S
C495 H500 0.931 . S
C496 C495 1.351 . S
C496 N497 1.373 . S
C496 H524 0.930 . S
N497 C496 1.373 . S
N497 C499 1.340 . S
N498 C495 1.368 . S
N498 C499 1.321 . S
N498 Co501 2.135 . S
C499 N497 1.340 . S
C499 N498 1.321 . S
C499 H523 0.930 . S
H500 C495 0.931 . S
Co501 N498 2.135 . S
Co501 N504 2.121 . S
Co501 O509 2.055 . S
Co501 O512 2.039 . S
Co501 N515 2.140 . S
C502 O503 1.227 . S
C502 O512 1.265 . S
O503 C502 1.227 . S
N504 Co501 2.121 . S
N504 C506 1.375 . S
N504 C507 1.313 . S
C505 C506 1.338 . S
C505 N508 1.377 . S
C505 H525 0.930 . S
C506 N504 1.375 . S
C506 C505 1.338 . S
C506 H510 0.931 . S
C507 N504 1.313 . S
C507 N508 1.344 . S
C507 H511 0.930 . S
N508 C505 1.377 . S
N508 C507 1.344 . S
O509 Co501 2.055 . S
O509 C513 1.253 . S
H510 C506 0.931 . S
H511 C507 0.930 . S
O512 Co501 2.039 . S
O512 C502 1.265 . S
C513 O509 1.253 . S
C513 O514 1.227 . S
O514 C513 1.227 . S
N515 Co501 2.140 . S
N515 C518 1.346 . S
N515 C519 1.345 . S
C516 C517 1.387 . S
C516 C520 1.391 . S
C517 C516 1.387 . S
C517 C518 1.369 . S
C517 H526 0.929 . S
C518 N515 1.346 . S
C518 C517 1.369 . S
C518 H521 0.928 . S
C519 N515 1.345 . S
C519 C520 1.371 . S
C519 H522 0.931 . S
C520 C516 1.391 . S
C520 C519 1.371 . S
C520 H527 0.930 . S
H521 C518 0.928 . S
H522 C519 0.931 . S
H523 C499 0.930 . S
H524 C496 0.930 . S
H525 C505 0.930 . S
H526 C517 0.929 . S
H527 C520 0.930 . S
C528 C529 1.351 . S
C528 N531 1.368 . S
C528 H533 0.931 . S
C529 C528 1.351 . S
C529 N530 1.373 . S
C529 H557 0.930 . S
N530 C529 1.373 . S
N530 C532 1.340 . S
N531 C528 1.368 . S
N531 C532 1.321 . S
N531 Co534 2.135 . S
C532 N530 1.340 . S
C532 N531 1.321 . S
C532 H556 0.930 . S
H533 C528 0.931 . S
Co534 N531 2.135 . S
Co534 N537 2.121 . S
Co534 O542 2.055 . S
Co534 O545 2.039 . S
Co534 N548 2.140 . S
C535 O536 1.227 . S
C535 O545 1.265 . S
O536 C535 1.227 . S
N537 Co534 2.121 . S
N537 C539 1.375 . S
N537 C540 1.313 . S
C538 C539 1.338 . S
C538 N541 1.377 . S
C538 H558 0.930 . S
C539 N537 1.375 . S
C539 C538 1.338 . S
C539 H543 0.931 . S
C540 N537 1.313 . S
C540 N541 1.344 . S
C540 H544 0.930 . S
N541 C538 1.377 . S
N541 C540 1.344 . S
O542 Co534 2.055 . S
O542 C546 1.253 . S
H543 C539 0.931 . S
H544 C540 0.930 . S
O545 Co534 2.039 . S
O545 C535 1.265 . S
C546 O542 1.253 . S
C546 O547 1.227 . S
O547 C546 1.227 . S
N548 Co534 2.140 . S
N548 C551 1.346 . S
N548 C552 1.345 . S
C549 C550 1.387 . S
C549 C553 1.391 . S
C550 C549 1.387 . S
C550 C551 1.369 . S
C550 H559 0.929 . S
C551 N548 1.346 . S
C551 C550 1.369 . S
C551 H554 0.928 . S
C552 N548 1.345 . S
C552 C553 1.371 . S
C552 H555 0.931 . S
C553 C549 1.391 . S
C553 C552 1.371 . S
C553 H560 0.930 . S
H554 C551 0.928 . S
H555 C552 0.931 . S
H556 C532 0.930 . S
H557 C529 0.930 . S
H558 C538 0.930 . S
H559 C550 0.929 . S
H560 C553 0.930 . S
C561 C562 1.351 . S
C561 N564 1.368 . S
C561 H566 0.931 . S
C562 C561 1.351 . S
C562 N563 1.373 . S
C562 H590 0.930 . S
N563 C562 1.373 . S
N563 C565 1.340 . S
N564 C561 1.368 . S
N564 C565 1.321 . S
N564 Co567 2.135 . S
C565 N563 1.340 . S
C565 N564 1.321 . S
C565 H589 0.930 . S
H566 C561 0.931 . S
Co567 N564 2.135 . S
Co567 N570 2.121 . S
Co567 O575 2.055 . S
Co567 O578 2.039 . S
Co567 N581 2.140 . S
C568 O569 1.227 . S
C568 O578 1.265 . S
O569 C568 1.227 . S
N570 Co567 2.121 . S
N570 C572 1.375 . S
N570 C573 1.313 . S
C571 C572 1.338 . S
C571 N574 1.377 . S
C571 H591 0.930 . S
C572 N570 1.375 . S
C572 C571 1.338 . S
C572 H576 0.931 . S
C573 N570 1.313 . S
C573 N574 1.344 . S
C573 H577 0.930 . S
N574 C571 1.377 . S
N574 C573 1.344 . S
O575 Co567 2.055 . S
O575 C579 1.253 . S
H576 C572 0.931 . S
H577 C573 0.930 . S
O578 Co567 2.039 . S
O578 C568 1.265 . S
C579 O575 1.253 . S
C579 O580 1.227 . S
O580 C579 1.227 . S
N581 Co567 2.140 . S
N581 C584 1.346 . S
N581 C585 1.345 . S
C582 C583 1.387 . S
C582 C586 1.391 . S
C583 C582 1.387 . S
C583 C584 1.369 . S
C583 H592 0.929 . S
C584 N581 1.346 . S
C584 C583 1.369 . S
C584 H587 0.928 . S
C585 N581 1.345 . S
C585 C586 1.371 . S
C585 H588 0.931 . S
C586 C582 1.391 . S
C586 C585 1.371 . S
C586 H593 0.930 . S
H587 C584 0.928 . S
H588 C585 0.931 . S
H589 C565 0.930 . S
H590 C562 0.930 . S
H591 C571 0.930 . S
H592 C583 0.929 . S
H593 C586 0.930 . S
C594 C595 1.351 . S
C594 N597 1.368 . S
C594 H599 0.931 . S
C595 C594 1.351 . S
C595 N596 1.373 . S
C595 H623 0.930 . S
N596 C595 1.373 . S
N596 C598 1.340 . S
N597 C594 1.368 . S
N597 C598 1.321 . S
N597 Co600 2.135 . S
C598 N596 1.340 . S
C598 N597 1.321 . S
C598 H622 0.930 . S
H599 C594 0.931 . S
Co600 N597 2.135 . S
Co600 N603 2.121 . S
Co600 O608 2.055 . S
Co600 O611 2.039 . S
Co600 N614 2.140 . S
C601 O602 1.227 . S
C601 O611 1.265 . S
O602 C601 1.227 . S
N603 Co600 2.121 . S
N603 C605 1.375 . S
N603 C606 1.313 . S
C604 C605 1.338 . S
C604 N607 1.377 . S
C604 H624 0.930 . S
C605 N603 1.375 . S
C605 C604 1.338 . S
C605 H609 0.931 . S
C606 N603 1.313 . S
C606 N607 1.344 . S
C606 H610 0.930 . S
N607 C604 1.377 . S
N607 C606 1.344 . S
O608 Co600 2.055 . S
O608 C612 1.253 . S
H609 C605 0.931 . S
H610 C606 0.930 . S
O611 Co600 2.039 . S
O611 C601 1.265 . S
C612 O608 1.253 . S
C612 O613 1.227 . S
O613 C612 1.227 . S
N614 Co600 2.140 . S
N614 C617 1.346 . S
N614 C618 1.345 . S
C615 C616 1.387 . S
C615 C619 1.391 . S
C616 C615 1.387 . S
C616 C617 1.369 . S
C616 H625 0.929 . S
C617 N614 1.346 . S
C617 C616 1.369 . S
C617 H620 0.928 . S
C618 N614 1.345 . S
C618 C619 1.371 . S
C618 H621 0.931 . S
C619 C615 1.391 . S
C619 C618 1.371 . S
C619 H626 0.930 . S
H620 C617 0.928 . S
H621 C618 0.931 . S
H622 C598 0.930 . S
H623 C595 0.930 . S
H624 C604 0.930 . S
H625 C616 0.929 . S
H626 C619 0.930 . S
C627 C628 1.351 . S
C627 N630 1.368 . S
C627 H632 0.931 . S
C628 C627 1.351 . S
C628 N629 1.373 . S
C628 H656 0.930 . S
N629 C628 1.373 . S
N629 C631 1.340 . S
N630 C627 1.368 . S
N630 C631 1.321 . S
N630 Co633 2.135 . S
C631 N629 1.340 . S
C631 N630 1.321 . S
C631 H655 0.930 . S
H632 C627 0.931 . S
Co633 N630 2.135 . S
Co633 N636 2.121 . S
Co633 O641 2.055 . S
Co633 O644 2.039 . S
Co633 N647 2.140 . S
C634 O635 1.227 . S
C634 O644 1.265 . S
O635 C634 1.227 . S
N636 Co633 2.121 . S
N636 C638 1.375 . S
N636 C639 1.313 . S
C637 C638 1.338 . S
C637 N640 1.377 . S
C637 H657 0.930 . S
C638 N636 1.375 . S
C638 C637 1.338 . S
C638 H642 0.931 . S
C639 N636 1.313 . S
C639 N640 1.344 . S
C639 H643 0.930 . S
N640 C637 1.377 . S
N640 C639 1.344 . S
O641 Co633 2.055 . S
O641 C645 1.253 . S
H642 C638 0.931 . S
H643 C639 0.930 . S
O644 Co633 2.039 . S
O644 C634 1.265 . S
C645 O641 1.253 . S
C645 O646 1.227 . S
O646 C645 1.227 . S
N647 Co633 2.140 . S
N647 C650 1.346 . S
N647 C651 1.345 . S
C648 C649 1.387 . S
C648 C652 1.391 . S
C649 C648 1.387 . S
C649 C650 1.369 . S
C649 H658 0.929 . S
C650 N647 1.346 . S
C650 C649 1.369 . S
C650 H653 0.928 . S
C651 N647 1.345 . S
C651 C652 1.371 . S
C651 H654 0.931 . S
C652 C648 1.391 . S
C652 C651 1.371 . S
C652 H659 0.930 . S
H653 C650 0.928 . S
H654 C651 0.931 . S
H655 C631 0.930 . S
H656 C628 0.930 . S
H657 C637 0.930 . S
H658 C649 0.929 . S
H659 C652 0.930 . S
C660 C661 1.351 . S
C660 N663 1.368 . S
C660 H665 0.931 . S
C661 C660 1.351 . S
C661 N662 1.373 . S
C661 H689 0.930 . S
N662 C661 1.373 . S
N662 C664 1.340 . S
N663 C660 1.368 . S
N663 C664 1.321 . S
N663 Co666 2.135 . S
C664 N662 1.340 . S
C664 N663 1.321 . S
C664 H688 0.930 . S
H665 C660 0.931 . S
Co666 N663 2.135 . S
Co666 N669 2.121 . S
Co666 O674 2.055 . S
Co666 O677 2.039 . S
Co666 N680 2.140 . S
C667 O668 1.227 . S
C667 O677 1.265 . S
O668 C667 1.227 . S
N669 Co666 2.121 . S
N669 C671 1.375 . S
N669 C672 1.313 . S
C670 C671 1.338 . S
C670 N673 1.377 . S
C670 H690 0.930 . S
C671 N669 1.375 . S
C671 C670 1.338 . S
C671 H675 0.931 . S
C672 N669 1.313 . S
C672 N673 1.344 . S
C672 H676 0.930 . S
N673 C670 1.377 . S
N673 C672 1.344 . S
O674 Co666 2.055 . S
O674 C678 1.253 . S
H675 C671 0.931 . S
H676 C672 0.930 . S
O677 Co666 2.039 . S
O677 C667 1.265 . S
C678 O674 1.253 . S
C678 O679 1.227 . S
O679 C678 1.227 . S
N680 Co666 2.140 . S
N680 C683 1.346 . S
N680 C684 1.345 . S
C681 C682 1.387 . S
C681 C685 1.391 . S
C682 C681 1.387 . S
C682 C683 1.369 . S
C682 H691 0.929 . S
C683 N680 1.346 . S
C683 C682 1.369 . S
C683 H686 0.928 . S
C684 N680 1.345 . S
C684 C685 1.371 . S
C684 H687 0.931 . S
C685 C681 1.391 . S
C685 C684 1.371 . S
C685 H692 0.930 . S
H686 C683 0.928 . S
H687 C684 0.931 . S
H688 C664 0.930 . S
H689 C661 0.930 . S
H690 C670 0.930 . S
H691 C682 0.929 . S
H692 C685 0.930 . S
C693 C694 1.351 . S
C693 N696 1.368 . S
C693 H698 0.931 . S
C694 C693 1.351 . S
C694 N695 1.373 . S
C694 H722 0.930 . S
N695 C694 1.373 . S
N695 C697 1.340 . S
N696 C693 1.368 . S
N696 C697 1.321 . S
N696 Co699 2.135 . S
C697 N695 1.340 . S
C697 N696 1.321 . S
C697 H721 0.930 . S
H698 C693 0.931 . S
Co699 N696 2.135 . S
Co699 N702 2.121 . S
Co699 O707 2.055 . S
Co699 O710 2.039 . S
Co699 N713 2.140 . S
C700 O701 1.227 . S
C700 O710 1.265 . S
O701 C700 1.227 . S
N702 Co699 2.121 . S
N702 C704 1.375 . S
N702 C705 1.313 . S
C703 C704 1.338 . S
C703 N706 1.377 . S
C703 H723 0.930 . S
C704 N702 1.375 . S
C704 C703 1.338 . S
C704 H708 0.931 . S
C705 N702 1.313 . S
C705 N706 1.344 . S
C705 H709 0.930 . S
N706 C703 1.377 . S
N706 C705 1.344 . S
O707 Co699 2.055 . S
O707 C711 1.253 . S
H708 C704 0.931 . S
H709 C705 0.930 . S
O710 Co699 2.039 . S
O710 C700 1.265 . S
C711 O707 1.253 . S
C711 O712 1.227 . S
O712 C711 1.227 . S
N713 Co699 2.140 . S
N713 C716 1.346 . S
N713 C717 1.345 . S
C714 C715 1.387 . S
C714 C718 1.391 . S
C715 C714 1.387 . S
C715 C716 1.369 . S
C715 H724 0.929 . S
C716 N713 1.346 . S
C716 C715 1.369 . S
C716 H719 0.928 . S
C717 N713 1.345 . S
C717 C718 1.371 . S
C717 H720 0.931 . S
C718 C714 1.391 . S
C718 C717 1.371 . S
C718 H725 0.930 . S
H719 C716 0.928 . S
H720 C717 0.931 . S
H721 C697 0.930 . S
H722 C694 0.930 . S
H723 C703 0.930 . S
H724 C715 0.929 . S
H725 C718 0.930 . S
C726 C727 1.351 . S
C726 N729 1.368 . S
C726 H731 0.931 . S
C727 C726 1.351 . S
C727 N728 1.373 . S
C727 H755 0.930 . S
N728 C727 1.373 . S
N728 C730 1.340 . S
N729 C726 1.368 . S
N729 C730 1.321 . S
N729 Co732 2.135 . S
C730 N728 1.340 . S
C730 N729 1.321 . S
C730 H754 0.930 . S
H731 C726 0.931 . S
Co732 N729 2.135 . S
Co732 N735 2.121 . S
Co732 O740 2.055 . S
Co732 O743 2.039 . S
Co732 N746 2.140 . S
C733 O734 1.227 . S
C733 O743 1.265 . S
O734 C733 1.227 . S
N735 Co732 2.121 . S
N735 C737 1.375 . S
N735 C738 1.313 . S
C736 C737 1.338 . S
C736 N739 1.377 . S
C736 H756 0.930 . S
C737 N735 1.375 . S
C737 C736 1.338 . S
C737 H741 0.931 . S
C738 N735 1.313 . S
C738 N739 1.344 . S
C738 H742 0.930 . S
N739 C736 1.377 . S
N739 C738 1.344 . S
O740 Co732 2.055 . S
O740 C744 1.253 . S
H741 C737 0.931 . S
H742 C738 0.930 . S
O743 Co732 2.039 . S
O743 C733 1.265 . S
C744 O740 1.253 . S
C744 O745 1.227 . S
O745 C744 1.227 . S
N746 Co732 2.140 . S
N746 C749 1.346 . S
N746 C750 1.345 . S
C747 C748 1.387 . S
C747 C751 1.391 . S
C748 C747 1.387 . S
C748 C749 1.369 . S
C748 H757 0.929 . S
C749 N746 1.346 . S
C749 C748 1.369 . S
C749 H752 0.928 . S
C750 N746 1.345 . S
C750 C751 1.371 . S
C750 H753 0.931 . S
C751 C747 1.391 . S
C751 C750 1.371 . S
C751 H758 0.930 . S
H752 C749 0.928 . S
H753 C750 0.931 . S
H754 C730 0.930 . S
H755 C727 0.930 . S
H756 C736 0.930 . S
H757 C748 0.929 . S
H758 C751 0.930 . S
C759 C760 1.351 . S
C759 N762 1.368 . S
C759 H764 0.931 . S
C760 C759 1.351 . S
C760 N761 1.373 . S
C760 H788 0.930 . S
N761 C760 1.373 . S
N761 C763 1.340 . S
N762 C759 1.368 . S
N762 C763 1.321 . S
N762 Co765 2.135 . S
C763 N761 1.340 . S
C763 N762 1.321 . S
C763 H787 0.930 . S
H764 C759 0.931 . S
Co765 N762 2.135 . S
Co765 N768 2.121 . S
Co765 O773 2.055 . S
Co765 O776 2.039 . S
Co765 N779 2.140 . S
C766 O767 1.227 . S
C766 O776 1.265 . S
O767 C766 1.227 . S
N768 Co765 2.121 . S
N768 C770 1.375 . S
N768 C771 1.313 . S
C769 C770 1.338 . S
C769 N772 1.377 . S
C769 H789 0.930 . S
C770 N768 1.375 . S
C770 C769 1.338 . S
C770 H774 0.931 . S
C771 N768 1.313 . S
C771 N772 1.344 . S
C771 H775 0.930 . S
N772 C769 1.377 . S
N772 C771 1.344 . S
O773 Co765 2.055 . S
O773 C777 1.253 . S
H774 C770 0.931 . S
H775 C771 0.930 . S
O776 Co765 2.039 . S
O776 C766 1.265 . S
C777 O773 1.253 . S
C777 O778 1.227 . S
O778 C777 1.227 . S
N779 Co765 2.140 . S
N779 C782 1.346 . S
N779 C783 1.345 . S
C780 C781 1.387 . S
C780 C784 1.391 . S
C781 C780 1.387 . S
C781 C782 1.369 . S
C781 H790 0.929 . S
C782 N779 1.346 . S
C782 C781 1.369 . S
C782 H785 0.928 . S
C783 N779 1.345 . S
C783 C784 1.371 . S
C783 H786 0.931 . S
C784 C780 1.391 . S
C784 C783 1.371 . S
C784 H791 0.930 . S
H785 C782 0.928 . S
H786 C783 0.931 . S
H787 C763 0.930 . S
H788 C760 0.930 . S
H789 C769 0.930 . S
H790 C781 0.929 . S
H791 C784 0.930 . S
C792 C793 1.351 . S
C792 N795 1.368 . S
C792 H797 0.931 . S
C793 C792 1.351 . S
C793 N794 1.373 . S
C793 H821 0.930 . S
N794 C793 1.373 . S
N794 C796 1.340 . S
N795 C792 1.368 . S
N795 C796 1.321 . S
N795 Co798 2.135 . S
C796 N794 1.340 . S
C796 N795 1.321 . S
C796 H820 0.930 . S
H797 C792 0.931 . S
Co798 N795 2.135 . S
Co798 N801 2.121 . S
Co798 O806 2.055 . S
Co798 O809 2.039 . S
Co798 N812 2.140 . S
C799 O800 1.227 . S
C799 O809 1.265 . S
O800 C799 1.227 . S
N801 Co798 2.121 . S
N801 C803 1.375 . S
N801 C804 1.313 . S
C802 C803 1.338 . S
C802 N805 1.377 . S
C802 H822 0.930 . S
C803 N801 1.375 . S
C803 C802 1.338 . S
C803 H807 0.931 . S
C804 N801 1.313 . S
C804 N805 1.344 . S
C804 H808 0.930 . S
N805 C802 1.377 . S
N805 C804 1.344 . S
O806 Co798 2.055 . S
O806 C810 1.253 . S
H807 C803 0.931 . S
H808 C804 0.930 . S
O809 Co798 2.039 . S
O809 C799 1.265 . S
C810 O806 1.253 . S
C810 O811 1.227 . S
O811 C810 1.227 . S
N812 Co798 2.140 . S
N812 C815 1.346 . S
N812 C816 1.345 . S
C813 C814 1.387 . S
C813 C817 1.391 . S
C814 C813 1.387 . S
C814 C815 1.369 . S
C814 H823 0.929 . S
C815 N812 1.346 . S
C815 C814 1.369 . S
C815 H818 0.928 . S
C816 N812 1.345 . S
C816 C817 1.371 . S
C816 H819 0.931 . S
C817 C813 1.391 . S
C817 C816 1.371 . S
C817 H824 0.930 . S
H818 C815 0.928 . S
H819 C816 0.931 . S
H820 C796 0.930 . S
H821 C793 0.930 . S
H822 C802 0.930 . S
H823 C814 0.929 . S
H824 C817 0.930 . S
C825 C826 1.351 . S
C825 N828 1.368 . S
C825 H830 0.931 . S
C826 C825 1.351 . S
C826 N827 1.373 . S
C826 H854 0.930 . S
N827 C826 1.373 . S
N827 C829 1.340 . S
N828 C825 1.368 . S
N828 C829 1.321 . S
N828 Co831 2.135 . S
C829 N827 1.340 . S
C829 N828 1.321 . S
C829 H853 0.930 . S
H830 C825 0.931 . S
Co831 N828 2.135 . S
Co831 N834 2.121 . S
Co831 O839 2.055 . S
Co831 O842 2.039 . S
Co831 N845 2.140 . S
C832 O833 1.227 . S
C832 O842 1.265 . S
O833 C832 1.227 . S
N834 Co831 2.121 . S
N834 C836 1.375 . S
N834 C837 1.313 . S
C835 C836 1.338 . S
C835 N838 1.377 . S
C835 H855 0.930 . S
C836 N834 1.375 . S
C836 C835 1.338 . S
C836 H840 0.931 . S
C837 N834 1.313 . S
C837 N838 1.344 . S
C837 H841 0.930 . S
N838 C835 1.377 . S
N838 C837 1.344 . S
O839 Co831 2.055 . S
O839 C843 1.253 . S
H840 C836 0.931 . S
H841 C837 0.930 . S
O842 Co831 2.039 . S
O842 C832 1.265 . S
C843 O839 1.253 . S
C843 O844 1.227 . S
O844 C843 1.227 . S
N845 Co831 2.140 . S
N845 C848 1.346 . S
N845 C849 1.345 . S
C846 C847 1.387 . S
C846 C850 1.391 . S
C847 C846 1.387 . S
C847 C848 1.369 . S
C847 H856 0.929 . S
C848 N845 1.346 . S
C848 C847 1.369 . S
C848 H851 0.928 . S
C849 N845 1.345 . S
C849 C850 1.371 . S
C849 H852 0.931 . S
C850 C846 1.391 . S
C850 C849 1.371 . S
C850 H857 0.930 . S
H851 C848 0.928 . S
H852 C849 0.931 . S
H853 C829 0.930 . S
H854 C826 0.930 . S
H855 C835 0.930 . S
H856 C847 0.929 . S
H857 C850 0.930 . S
C858 C859 1.351 . S
C858 N861 1.368 . S
C858 H863 0.931 . S
C859 C858 1.351 . S
C859 N860 1.373 . S
C859 H887 0.930 . S
N860 C859 1.373 . S
N860 C862 1.340 . S
N861 C858 1.368 . S
N861 C862 1.321 . S
N861 Co864 2.135 . S
C862 N860 1.340 . S
C862 N861 1.321 . S
C862 H886 0.930 . S
H863 C858 0.931 . S
Co864 N861 2.135 . S
Co864 N867 2.121 . S
Co864 O872 2.055 . S
Co864 O875 2.039 . S
Co864 N878 2.140 . S
C865 O866 1.227 . S
C865 O875 1.265 . S
O866 C865 1.227 . S
N867 Co864 2.121 . S
N867 C869 1.375 . S
N867 C870 1.313 . S
C868 C869 1.338 . S
C868 N871 1.377 . S
C868 H888 0.930 . S
C869 N867 1.375 . S
C869 C868 1.338 . S
C869 H873 0.931 . S
C870 N867 1.313 . S
C870 N871 1.344 . S
C870 H874 0.930 . S
N871 C868 1.377 . S
N871 C870 1.344 . S
O872 Co864 2.055 . S
O872 C876 1.253 . S
H873 C869 0.931 . S
H874 C870 0.930 . S
O875 Co864 2.039 . S
O875 C865 1.265 . S
C876 O872 1.253 . S
C876 O877 1.227 . S
O877 C876 1.227 . S
N878 Co864 2.140 . S
N878 C881 1.346 . S
N878 C882 1.345 . S
C879 C880 1.387 . S
C879 C883 1.391 . S
C880 C879 1.387 . S
C880 C881 1.369 . S
C880 H889 0.929 . S
C881 N878 1.346 . S
C881 C880 1.369 . S
C881 H884 0.928 . S
C882 N878 1.345 . S
C882 C883 1.371 . S
C882 H885 0.931 . S
C883 C879 1.391 . S
C883 C882 1.371 . S
C883 H890 0.930 . S
H884 C881 0.928 . S
H885 C882 0.931 . S
H886 C862 0.930 . S
H887 C859 0.930 . S
H888 C868 0.930 . S
H889 C880 0.929 . S
H890 C883 0.930 . S
C891 C892 1.351 . S
C891 N894 1.368 . S
C891 H896 0.931 . S
C892 C891 1.351 . S
C892 N893 1.373 . S
C892 H920 0.930 . S
N893 C892 1.373 . S
N893 C895 1.340 . S
N894 C891 1.368 . S
N894 C895 1.321 . S
N894 Co897 2.135 . S
C895 N893 1.340 . S
C895 N894 1.321 . S
C895 H919 0.930 . S
H896 C891 0.931 . S
Co897 N894 2.135 . S
Co897 N900 2.121 . S
Co897 O905 2.055 . S
Co897 O908 2.039 . S
Co897 N911 2.140 . S
C898 O899 1.227 . S
C898 O908 1.265 . S
O899 C898 1.227 . S
N900 Co897 2.121 . S
N900 C902 1.375 . S
N900 C903 1.313 . S
C901 C902 1.338 . S
C901 N904 1.377 . S
C901 H921 0.930 . S
C902 N900 1.375 . S
C902 C901 1.338 . S
C902 H906 0.931 . S
C903 N900 1.313 . S
C903 N904 1.344 . S
C903 H907 0.930 . S
N904 C901 1.377 . S
N904 C903 1.344 . S
O905 Co897 2.055 . S
O905 C909 1.253 . S
H906 C902 0.931 . S
H907 C903 0.930 . S
O908 Co897 2.039 . S
O908 C898 1.265 . S
C909 O905 1.253 . S
C909 O910 1.227 . S
O910 C909 1.227 . S
N911 Co897 2.140 . S
N911 C914 1.346 . S
N911 C915 1.345 . S
C912 C913 1.387 . S
C912 C916 1.391 . S
C913 C912 1.387 . S
C913 C914 1.369 . S
C913 H922 0.929 . S
C914 N911 1.346 . S
C914 C913 1.369 . S
C914 H917 0.928 . S
C915 N911 1.345 . S
C915 C916 1.371 . S
C915 H918 0.931 . S
C916 C912 1.391 . S
C916 C915 1.371 . S
C916 H923 0.930 . S
H917 C914 0.928 . S
H918 C915 0.931 . S
H919 C895 0.930 . S
H920 C892 0.930 . S
H921 C901 0.930 . S
H922 C913 0.929 . S
H923 C916 0.930 . S
C924 C925 1.351 . S
C924 N927 1.368 . S
C924 H929 0.931 . S
C925 C924 1.351 . S
C925 N926 1.373 . S
C925 H953 0.930 . S
N926 C925 1.373 . S
N926 C928 1.340 . S
N927 C924 1.368 . S
N927 C928 1.321 . S
N927 Co930 2.135 . S
C928 N926 1.340 . S
C928 N927 1.321 . S
C928 H952 0.930 . S
H929 C924 0.931 . S
Co930 N927 2.135 . S
Co930 N933 2.121 . S
Co930 O938 2.055 . S
Co930 O941 2.039 . S
Co930 N944 2.140 . S
C931 O932 1.227 . S
C931 O941 1.265 . S
O932 C931 1.227 . S
N933 Co930 2.121 . S
N933 C935 1.375 . S
N933 C936 1.313 . S
C934 C935 1.338 . S
C934 N937 1.377 . S
C934 H954 0.930 . S
C935 N933 1.375 . S
C935 C934 1.338 . S
C935 H939 0.931 . S
C936 N933 1.313 . S
C936 N937 1.344 . S
C936 H940 0.930 . S
N937 C934 1.377 . S
N937 C936 1.344 . S
O938 Co930 2.055 . S
O938 C942 1.253 . S
H939 C935 0.931 . S
H940 C936 0.930 . S
O941 Co930 2.039 . S
O941 C931 1.265 . S
C942 O938 1.253 . S
C942 O943 1.227 . S
O943 C942 1.227 . S
N944 Co930 2.140 . S
N944 C947 1.346 . S
N944 C948 1.345 . S
C945 C946 1.387 . S
C945 C949 1.391 . S
C946 C945 1.387 . S
C946 C947 1.369 . S
C946 H955 0.929 . S
C947 N944 1.346 . S
C947 C946 1.369 . S
C947 H950 0.928 . S
C948 N944 1.345 . S
C948 C949 1.371 . S
C948 H951 0.931 . S
C949 C945 1.391 . S
C949 C948 1.371 . S
C949 H956 0.930 . S
H950 C947 0.928 . S
H951 C948 0.931 . S
H952 C928 0.930 . S
H953 C925 0.930 . S
H954 C934 0.930 . S
H955 C946 0.929 . S
H956 C949 0.930 . S
C957 C958 1.351 . S
C957 N960 1.368 . S
C957 H962 0.931 . S
C958 C957 1.351 . S
C958 N959 1.373 . S
C958 H986 0.930 . S
N959 C958 1.373 . S
N959 C961 1.340 . S
N960 C957 1.368 . S
N960 C961 1.321 . S
N960 Co963 2.135 . S
C961 N959 1.340 . S
C961 N960 1.321 . S
C961 H985 0.930 . S
H962 C957 0.931 . S
Co963 N960 2.135 . S
Co963 N966 2.121 . S
Co963 O971 2.055 . S
Co963 O974 2.039 . S
Co963 N977 2.140 . S
C964 O965 1.227 . S
C964 O974 1.265 . S
O965 C964 1.227 . S
N966 Co963 2.121 . S
N966 C968 1.375 . S
N966 C969 1.313 . S
C967 C968 1.338 . S
C967 N970 1.377 . S
C967 H987 0.930 . S
C968 N966 1.375 . S
C968 C967 1.338 . S
C968 H972 0.931 . S
C969 N966 1.313 . S
C969 N970 1.344 . S
C969 H973 0.930 . S
N970 C967 1.377 . S
N970 C969 1.344 . S
O971 Co963 2.055 . S
O971 C975 1.253 . S
H972 C968 0.931 . S
H973 C969 0.930 . S
O974 Co963 2.039 . S
O974 C964 1.265 . S
C975 O971 1.253 . S
C975 O976 1.227 . S
O976 C975 1.227 . S
N977 Co963 2.140 . S
N977 C980 1.346 . S
N977 C981 1.345 . S
C978 C979 1.387 . S
C978 C982 1.391 . S
C979 C978 1.387 . S
C979 C980 1.369 . S
C979 H988 0.929 . S
C980 N977 1.346 . S
C980 C979 1.369 . S
C980 H983 0.928 . S
C981 N977 1.345 . S
C981 C982 1.371 . S
C981 H984 0.931 . S
C982 C978 1.391 . S
C982 C981 1.371 . S
C982 H989 0.930 . S
H983 C980 0.928 . S
H984 C981 0.931 . S
H985 C961 0.930 . S
H986 C958 0.930 . S
H987 C967 0.930 . S
H988 C979 0.929 . S
H989 C982 0.930 . S
C990 C991 1.351 . S
C990 N993 1.368 . S
C990 H995 0.931 . S
C991 C990 1.351 . S
C991 N992 1.373 . S
C991 H1019 0.930 . S
N992 C991 1.373 . S
N992 C994 1.340 . S
N993 C990 1.368 . S
N993 C994 1.321 . S
N993 Co996 2.135 . S
C994 N992 1.340 . S
C994 N993 1.321 . S
C994 H1018 0.930 . S
H995 C990 0.931 . S
Co996 N993 2.135 . S
Co996 N999 2.121 . S
Co996 O1004 2.055 . S
Co996 O1007 2.039 . S
Co996 N1010 2.140 . S
C997 O998 1.227 . S
C997 O1007 1.265 . S
O998 C997 1.227 . S
N999 Co996 2.121 . S
N999 C1001 1.375 . S
N999 C1002 1.313 . S
C1000 C1001 1.338 . S
C1000 N1003 1.377 . S
C1000 H1020 0.930 . S
C1001 N999 1.375 . S
C1001 C1000 1.338 . S
C1001 H1005 0.931 . S
C1002 N999 1.313 . S
C1002 N1003 1.344 . S
C1002 H1006 0.930 . S
N1003 C1000 1.377 . S
N1003 C1002 1.344 . S
O1004 Co996 2.055 . S
O1004 C1008 1.253 . S
H1005 C1001 0.931 . S
H1006 C1002 0.930 . S
O1007 Co996 2.039 . S
O1007 C997 1.265 . S
C1008 O1004 1.253 . S
C1008 O1009 1.227 . S
O1009 C1008 1.227 . S
N1010 Co996 2.140 . S
N1010 C1013 1.346 . S
N1010 C1014 1.345 . S
C1011 C1012 1.387 . S
C1011 C1015 1.391 . S
C1012 C1011 1.387 . S
C1012 C1013 1.369 . S
C1012 H1021 0.929 . S
C1013 N1010 1.346 . S
C1013 C1012 1.369 . S
C1013 H1016 0.928 . S
C1014 N1010 1.345 . S
C1014 C1015 1.371 . S
C1014 H1017 0.931 . S
C1015 C1011 1.391 . S
C1015 C1014 1.371 . S
C1015 H1022 0.930 . S
H1016 C1013 0.928 . S
H1017 C1014 0.931 . S
H1018 C994 0.930 . S
H1019 C991 0.930 . S
H1020 C1000 0.930 . S
H1021 C1012 0.929 . S
H1022 C1015 0.930 . S
C1023 C1024 1.351 . S
C1023 N1026 1.368 . S
C1023 H1028 0.931 . S
C1024 C1023 1.351 . S
C1024 N1025 1.373 . S
C1024 H1052 0.930 . S
N1025 C1024 1.373 . S
N1025 C1027 1.340 . S
N1026 C1023 1.368 . S
N1026 C1027 1.321 . S
N1026 Co1029 2.135 . S
C1027 N1025 1.340 . S
C1027 N1026 1.321 . S
C1027 H1051 0.930 . S
H1028 C1023 0.931 . S
Co1029 N1026 2.135 . S
Co1029 N1032 2.121 . S
Co1029 O1037 2.055 . S
Co1029 O1040 2.039 . S
Co1029 N1043 2.140 . S
C1030 O1031 1.227 . S
C1030 O1040 1.265 . S
O1031 C1030 1.227 . S
N1032 Co1029 2.121 . S
N1032 C1034 1.375 . S
N1032 C1035 1.313 . S
C1033 C1034 1.338 . S
C1033 N1036 1.377 . S
C1033 H1053 0.930 . S
C1034 N1032 1.375 . S
C1034 C1033 1.338 . S
C1034 H1038 0.931 . S
C1035 N1032 1.313 . S
C1035 N1036 1.344 . S
C1035 H1039 0.930 . S
N1036 C1033 1.377 . S
N1036 C1035 1.344 . S
O1037 Co1029 2.055 . S
O1037 C1041 1.253 . S
H1038 C1034 0.931 . S
H1039 C1035 0.930 . S
O1040 Co1029 2.039 . S
O1040 C1030 1.265 . S
C1041 O1037 1.253 . S
C1041 O1042 1.227 . S
O1042 C1041 1.227 . S
N1043 Co1029 2.140 . S
N1043 C1046 1.346 . S
N1043 C1047 1.345 . S
C1044 C1045 1.387 . S
C1044 C1048 1.391 . S
C1045 C1044 1.387 . S
C1045 C1046 1.369 . S
C1045 H1054 0.929 . S
C1046 N1043 1.346 . S
C1046 C1045 1.369 . S
C1046 H1049 0.928 . S
C1047 N1043 1.345 . S
C1047 C1048 1.371 . S
C1047 H1050 0.931 . S
C1048 C1044 1.391 . S
C1048 C1047 1.371 . S
C1048 H1055 0.930 . S
H1049 C1046 0.928 . S
H1050 C1047 0.931 . S
H1051 C1027 0.930 . S
H1052 C1024 0.930 . S
H1053 C1033 0.930 . S
H1054 C1045 0.929 . S
H1055 C1048 0.930 . S
C1056 C1057 1.351 . S
C1056 N1059 1.368 . S
C1056 H1061 0.931 . S
C1057 C1056 1.351 . S
C1057 N1058 1.373 . S
C1057 H1085 0.930 . S
N1058 C1057 1.373 . S
N1058 C1060 1.340 . S
N1059 C1056 1.368 . S
N1059 C1060 1.321 . S
N1059 Co1062 2.135 . S
C1060 N1058 1.340 . S
C1060 N1059 1.321 . S
C1060 H1084 0.930 . S
H1061 C1056 0.931 . S
Co1062 N1059 2.135 . S
Co1062 N1065 2.121 . S
Co1062 O1070 2.055 . S
Co1062 O1073 2.039 . S
Co1062 N1076 2.140 . S
C1063 O1064 1.227 . S
C1063 O1073 1.265 . S
O1064 C1063 1.227 . S
N1065 Co1062 2.121 . S
N1065 C1067 1.375 . S
N1065 C1068 1.313 . S
C1066 C1067 1.338 . S
C1066 N1069 1.377 . S
C1066 H1086 0.930 . S
C1067 N1065 1.375 . S
C1067 C1066 1.338 . S
C1067 H1071 0.931 . S
C1068 N1065 1.313 . S
C1068 N1069 1.344 . S
C1068 H1072 0.930 . S
N1069 C1066 1.377 . S
N1069 C1068 1.344 . S
O1070 Co1062 2.055 . S
O1070 C1074 1.253 . S
H1071 C1067 0.931 . S
H1072 C1068 0.930 . S
O1073 Co1062 2.039 . S
O1073 C1063 1.265 . S
C1074 O1070 1.253 . S
C1074 O1075 1.227 . S
O1075 C1074 1.227 . S
N1076 Co1062 2.140 . S
N1076 C1079 1.346 . S
N1076 C1080 1.345 . S
C1077 C1078 1.387 . S
C1077 C1081 1.391 . S
C1078 C1077 1.387 . S
C1078 C1079 1.369 . S
C1078 H1087 0.929 . S
C1079 N1076 1.346 . S
C1079 C1078 1.369 . S
C1079 H1082 0.928 . S
C1080 N1076 1.345 . S
C1080 C1081 1.371 . S
C1080 H1083 0.931 . S
C1081 C1077 1.391 . S
C1081 C1080 1.371 . S
C1081 H1088 0.930 . S
H1082 C1079 0.928 . S
H1083 C1080 0.931 . S
H1084 C1060 0.930 . S
H1085 C1057 0.930 . S
H1086 C1066 0.930 . S
H1087 C1078 0.929 . S
H1088 C1081 0.930 . S
C1089 C1090 1.351 . S
C1089 N1092 1.368 . S
C1089 H1094 0.931 . S
C1090 C1089 1.351 . S
C1090 N1091 1.373 . S
C1090 H1118 0.930 . S
N1091 C1090 1.373 . S
N1091 C1093 1.340 . S
N1092 C1089 1.368 . S
N1092 C1093 1.321 . S
N1092 Co1095 2.135 . S
C1093 N1091 1.340 . S
C1093 N1092 1.321 . S
C1093 H1117 0.930 . S
H1094 C1089 0.931 . S
Co1095 N1092 2.135 . S
Co1095 N1098 2.121 . S
Co1095 O1103 2.055 . S
Co1095 O1106 2.039 . S
Co1095 N1109 2.140 . S
C1096 O1097 1.227 . S
C1096 O1106 1.265 . S
O1097 C1096 1.227 . S
N1098 Co1095 2.121 . S
N1098 C1100 1.375 . S
N1098 C1101 1.313 . S
C1099 C1100 1.338 . S
C1099 N1102 1.377 . S
C1099 H1119 0.930 . S
C1100 N1098 1.375 . S
C1100 C1099 1.338 . S
C1100 H1104 0.931 . S
C1101 N1098 1.313 . S
C1101 N1102 1.344 . S
C1101 H1105 0.930 . S
N1102 C1099 1.377 . S
N1102 C1101 1.344 . S
O1103 Co1095 2.055 . S
O1103 C1107 1.253 . S
H1104 C1100 0.931 . S
H1105 C1101 0.930 . S
O1106 Co1095 2.039 . S
O1106 C1096 1.265 . S
C1107 O1103 1.253 . S
C1107 O1108 1.227 . S
O1108 C1107 1.227 . S
N1109 Co1095 2.140 . S
N1109 C1112 1.346 . S
N1109 C1113 1.345 . S
C1110 C1111 1.387 . S
C1110 C1114 1.391 . S
C1111 C1110 1.387 . S
C1111 C1112 1.369 . S
C1111 H1120 0.929 . S
C1112 N1109 1.346 . S
C1112 C1111 1.369 . S
C1112 H1115 0.928 . S
C1113 N1109 1.345 . S
C1113 C1114 1.371 . S
C1113 H1116 0.931 . S
C1114 C1110 1.391 . S
C1114 C1113 1.371 . S
C1114 H1121 0.930 . S
H1115 C1112 0.928 . S
H1116 C1113 0.931 . S
H1117 C1093 0.930 . S
H1118 C1090 0.930 . S
H1119 C1099 0.930 . S
H1120 C1111 0.929 . S
H1121 C1114 0.930 . S
C1122 C1123 1.351 . S
C1122 N1125 1.368 . S
C1122 H1127 0.931 . S
C1123 C1122 1.351 . S
C1123 N1124 1.373 . S
C1123 H1151 0.930 . S
N1124 C1123 1.373 . S
N1124 C1126 1.340 . S
N1125 C1122 1.368 . S
N1125 C1126 1.321 . S
N1125 Co1128 2.135 . S
C1126 N1124 1.340 . S
C1126 N1125 1.321 . S
C1126 H1150 0.930 . S
H1127 C1122 0.931 . S
Co1128 N1125 2.135 . S
Co1128 N1131 2.121 . S
Co1128 O1136 2.055 . S
Co1128 O1139 2.039 . S
Co1128 N1142 2.140 . S
C1129 O1130 1.227 . S
C1129 O1139 1.265 . S
O1130 C1129 1.227 . S
N1131 Co1128 2.121 . S
N1131 C1133 1.375 . S
N1131 C1134 1.313 . S
C1132 C1133 1.338 . S
C1132 N1135 1.377 . S
C1132 H1152 0.930 . S
C1133 N1131 1.375 . S
C1133 C1132 1.338 . S
C1133 H1137 0.931 . S
C1134 N1131 1.313 . S
C1134 N1135 1.344 . S
C1134 H1138 0.930 . S
N1135 C1132 1.377 . S
N1135 C1134 1.344 . S
O1136 Co1128 2.055 . S
O1136 C1140 1.253 . S
H1137 C1133 0.931 . S
H1138 C1134 0.930 . S
O1139 Co1128 2.039 . S
O1139 C1129 1.265 . S
C1140 O1136 1.253 . S
C1140 O1141 1.227 . S
O1141 C1140 1.227 . S
N1142 Co1128 2.140 . S
N1142 C1145 1.346 . S
N1142 C1146 1.345 . S
C1143 C1144 1.387 . S
C1143 C1147 1.391 . S
C1144 C1143 1.387 . S
C1144 C1145 1.369 . S
C1144 H1153 0.929 . S
C1145 N1142 1.346 . S
C1145 C1144 1.369 . S
C1145 H1148 0.928 . S
C1146 N1142 1.345 . S
C1146 C1147 1.371 . S
C1146 H1149 0.931 . S
C1147 C1143 1.391 . S
C1147 C1146 1.371 . S
C1147 H1154 0.930 . S
H1148 C1145 0.928 . S
H1149 C1146 0.931 . S
H1150 C1126 0.930 . S
H1151 C1123 0.930 . S
H1152 C1132 0.930 . S
H1153 C1144 0.929 . S
H1154 C1147 0.930 . S
C1155 C1156 1.351 . S
C1155 N1158 1.368 . S
C1155 H1160 0.931 . S
C1156 C1155 1.351 . S
C1156 N1157 1.373 . S
C1156 H1184 0.930 . S
N1157 C1156 1.373 . S
N1157 C1159 1.340 . S
N1158 C1155 1.368 . S
N1158 C1159 1.321 . S
N1158 Co1161 2.135 . S
C1159 N1157 1.340 . S
C1159 N1158 1.321 . S
C1159 H1183 0.930 . S
H1160 C1155 0.931 . S
Co1161 N1158 2.135 . S
Co1161 N1164 2.121 . S
Co1161 O1169 2.055 . S
Co1161 O1172 2.039 . S
Co1161 N1175 2.140 . S
C1162 O1163 1.227 . S
C1162 O1172 1.265 . S
O1163 C1162 1.227 . S
N1164 Co1161 2.121 . S
N1164 C1166 1.375 . S
N1164 C1167 1.313 . S
C1165 C1166 1.338 . S
C1165 N1168 1.377 . S
C1165 H1185 0.930 . S
C1166 N1164 1.375 . S
C1166 C1165 1.338 . S
C1166 H1170 0.931 . S
C1167 N1164 1.313 . S
C1167 N1168 1.344 . S
C1167 H1171 0.930 . S
N1168 C1165 1.377 . S
N1168 C1167 1.344 . S
O1169 Co1161 2.055 . S
O1169 C1173 1.253 . S
H1170 C1166 0.931 . S
H1171 C1167 0.930 . S
O1172 Co1161 2.039 . S
O1172 C1162 1.265 . S
C1173 O1169 1.253 . S
C1173 O1174 1.227 . S
O1174 C1173 1.227 . S
N1175 Co1161 2.140 . S
N1175 C1178 1.346 . S
N1175 C1179 1.345 . S
C1176 C1177 1.387 . S
C1176 C1180 1.391 . S
C1177 C1176 1.387 . S
C1177 C1178 1.369 . S
C1177 H1186 0.929 . S
C1178 N1175 1.346 . S
C1178 C1177 1.369 . S
C1178 H1181 0.928 . S
C1179 N1175 1.345 . S
C1179 C1180 1.371 . S
C1179 H1182 0.931 . S
C1180 C1176 1.391 . S
C1180 C1179 1.371 . S
C1180 H1187 0.930 . S
H1181 C1178 0.928 . S
H1182 C1179 0.931 . S
H1183 C1159 0.930 . S
H1184 C1156 0.930 . S
H1185 C1165 0.930 . S
H1186 C1177 0.929 . S
H1187 C1180 0.930 . S
H1188 C1196 0.929 . S
H1189 C1198 0.930 . S
H1190 C1200 0.930 . S
H1191 C1203 0.929 . S
H1192 C1206 0.930 . S
H1193 C1208 0.960 . S
H1194 C1208 0.960 . S
H1195 C1208 0.960 . S
C1196 H1188 0.929 . S
C1196 C1197 1.377 . S
C1196 C1198 1.384 . S
C1197 C1196 1.377 . S
C1197 C1203 1.390 . S
C1198 H1189 0.930 . S
C1198 C1196 1.384 . S
C1198 C1199 1.372 . S
C1199 C1198 1.372 . S
C1199 C1200 1.400 . S
C1199 C1204 1.490 . S
C1200 H1190 0.930 . S
C1200 C1199 1.400 . S
C1200 C1203 1.386 . S
H1201 C1217 0.930 . S
H1202 C1218 0.931 . S
C1203 H1191 0.929 . S
C1203 C1197 1.390 . S
C1203 C1200 1.386 . S
C1204 C1199 1.490 . S
C1204 C1206 1.395 . S
C1204 C1207 1.403 . S
H1205 C1211 0.930 . S
C1206 H1192 0.930 . S
C1206 C1204 1.395 . S
C1206 C1209 1.403 . S
C1207 C1204 1.403 . S
C1207 C1208 1.524 . S
C1207 C1211 1.400 . S
C1208 H1193 0.960 . S
C1208 H1194 0.960 . S
C1208 H1195 0.960 . S
C1208 C1207 1.524 . S
C1209 C1206 1.403 . S
C1209 C1210 1.392 . S
C1209 C1213 1.495 . S
C1210 C1209 1.392 . S
C1210 C1211 1.385 . S
C1210 C1212 1.478 . S
C1211 H1205 0.930 . S
C1211 C1207 1.400 . S
C1211 C1210 1.385 . S
C1212 C1210 1.478 . S
C1212 C1214 1.381 . S
C1212 C1218 1.383 . S
C1213 C1209 1.495 . S
C1213 H1219 0.959 . S
C1213 H1220 0.961 . S
C1213 H1221 0.960 . S
C1214 C1212 1.381 . S
C1214 C1215 1.394 1_545 S
C1214 H1222 0.930 . S
C1215 C1214 1.394 1_565 S
C1215 C1216 1.383 . S
C1215 H1223 0.929 . S
C1216 C1215 1.383 . S
C1216 C1217 1.377 1_565 S
C1217 H1201 0.930 . S
C1217 C1216 1.377 1_545 S
C1217 C1218 1.379 . S
C1218 H1202 0.931 . S
C1218 C1212 1.383 . S
C1218 C1217 1.379 . S
H1219 C1213 0.959 . S
H1220 C1213 0.961 . S
H1221 C1213 0.960 . S
H1222 C1214 0.930 . S
H1223 C1215 0.929 . S
H1224 C1232 0.929 1_455 S
H1225 C1234 0.930 . S
H1226 C1236 0.930 . S
H1227 C1239 0.929 . S
H1228 C1242 0.930 . S
H1229 C1244 0.960 . S
H1230 C1244 0.960 . S
H1231 C1244 0.960 . S
C1232 H1224 0.929 1_655 S
C1232 C1233 1.377 1_655 S
C1232 C1234 1.384 . S
C1233 C1232 1.377 1_455 S
C1233 C1239 1.390 . S
C1234 H1225 0.930 . S
C1234 C1232 1.384 . S
C1234 C1235 1.372 . S
C1235 C1234 1.372 . S
C1235 C1236 1.400 . S
C1235 C1240 1.490 . S
C1236 H1226 0.930 . S
C1236 C1235 1.400 . S
C1236 C1239 1.386 1_655 S
H1237 C1253 0.930 . S
H1238 C1254 0.931 . S
C1239 H1227 0.929 . S
C1239 C1233 1.390 . S
C1239 C1236 1.386 1_455 S
C1240 C1235 1.490 . S
C1240 C1242 1.395 . S
C1240 C1243 1.403 . S
H1241 C1247 0.930 . S
C1242 H1228 0.930 . S
C1242 C1240 1.395 . S
C1242 C1245 1.403 . S
C1243 C1240 1.403 . S
C1243 C1244 1.524 . S
C1243 C1247 1.400 . S
C1244 H1229 0.960 . S
C1244 H1230 0.960 . S
C1244 H1231 0.960 . S
C1244 C1243 1.524 . S
C1245 C1242 1.403 . S
C1245 C1246 1.392 . S
C1245 C1249 1.495 . S
C1246 C1245 1.392 . S
C1246 C1247 1.385 . S
C1246 C1248 1.458 1_545 S
C1247 H1241 0.930 . S
C1247 C1243 1.400 . S
C1247 C1246 1.385 . S
C1248 C1246 1.458 1_565 S
C1248 C1250 1.385 . S
C1248 C1254 1.401 . S
C1249 C1245 1.495 . S
C1249 H1255 0.959 . S
C1249 H1256 0.961 . S
C1249 H1257 0.960 . S
C1250 C1248 1.385 . S
C1250 C1251 1.394 . S
C1250 H1258 0.930 1_565 S
C1251 C1250 1.394 . S
C1251 C1252 1.383 . S
C1251 H1259 0.929 . S
C1252 C1251 1.383 . S
C1252 C1253 1.377 . S
C1253 H1237 0.930 . S
C1253 C1252 1.377 . S
C1253 C1254 1.379 . S
C1254 H1238 0.931 . S
C1254 C1248 1.401 . S
C1254 C1253 1.379 . S
H1255 C1249 0.959 . S
H1256 C1249 0.961 . S
H1257 C1249 0.960 . S
H1258 C1250 0.930 1_545 S
H1259 C1251 0.929 . S
H1260 C1268 0.929 . S
H1261 C1270 0.930 . S
H1262 C1272 0.930 . S
H1263 C1275 0.929 . S
H1264 C1278 0.930 . S
H1265 C1280 0.960 . S
H1266 C1280 0.960 . S
H1267 C1280 0.960 . S
C1268 H1260 0.929 . S
C1268 C1269 1.377 . S
C1268 C1270 1.384 . S
C1269 C1268 1.377 . S
C1269 C1275 1.390 . S
C1270 H1261 0.930 . S
C1270 C1268 1.384 . S
C1270 C1271 1.372 . S
C1271 C1270 1.372 . S
C1271 C1272 1.400 . S
C1271 C1276 1.490 . S
C1272 H1262 0.930 . S
C1272 C1271 1.400 . S
C1272 C1275 1.386 . S
H1273 C1289 0.930 . S
H1274 C1290 0.931 1_655 S
C1275 H1263 0.929 . S
C1275 C1269 1.390 . S
C1275 C1272 1.386 . S
C1276 C1271 1.490 . S
C1276 C1278 1.395 . S
C1276 C1279 1.403 . S
H1277 C1283 0.930 . S
C1278 H1264 0.930 . S
C1278 C1276 1.395 . S
C1278 C1281 1.403 . S
C1279 C1276 1.403 . S
C1279 C1280 1.524 . S
C1279 C1283 1.400 . S
C1280 H1265 0.960 . S
C1280 H1266 0.960 . S
C1280 H1267 0.960 . S
C1280 C1279 1.524 . S
C1281 C1278 1.403 . S
C1281 C1282 1.392 . S
C1281 C1285 1.495 . S
C1282 C1281 1.392 . S
C1282 C1283 1.385 . S
C1282 C1284 1.478 1_655 S
C1283 H1277 0.930 . S
C1283 C1279 1.400 . S
C1283 C1282 1.385 . S
C1284 C1282 1.478 1_455 S
C1284 C1286 1.381 . S
C1284 C1290 1.383 . S
C1285 C1281 1.495 . S
C1285 H1291 0.959 . S
C1285 H1292 0.961 . S
C1285 H1293 0.960 . S
C1286 C1284 1.381 . S
C1286 C1287 1.394 . S
C1286 H1294 0.930 . S
C1287 C1286 1.394 . S
C1287 C1288 1.383 . S
C1287 H1295 0.929 . S
C1288 C1287 1.383 . S
C1288 C1289 1.377 . S
C1289 H1273 0.930 . S
C1289 C1288 1.377 . S
C1289 C1290 1.379 . S
C1290 H1274 0.931 1_455 S
C1290 C1284 1.383 . S
C1290 C1289 1.379 . S
H1291 C1285 0.959 . S
H1292 C1285 0.961 . S
H1293 C1285 0.960 . S
H1294 C1286 0.930 . S
H1295 C1287 0.929 . S
H1296 C1304 0.929 . S
H1297 C1306 0.941 1_655 S
H1298 C1308 0.930 . S
H1299 C1311 0.929 . S
H1300 C1314 0.930 . S
H1301 C1316 0.960 . S
H1302 C1316 0.960 . S
H1303 C1316 0.960 . S
C1304 H1296 0.929 . S
C1304 C1305 1.377 . S
C1304 C1306 1.384 1_655 S
C1305 C1304 1.377 . S
C1305 C1311 1.390 1_655 S
C1306 H1297 0.941 1_455 S
C1306 C1304 1.384 1_455 S
C1306 C1307 1.372 . S
C1307 C1306 1.372 . S
C1307 C1308 1.400 . S
C1307 C1312 1.490 . S
C1308 H1298 0.930 . S
C1308 C1307 1.400 . S
C1308 C1311 1.386 . S
H1309 C1325 0.930 . S
H1310 C1326 0.931 . S
C1311 H1299 0.929 . S
C1311 C1305 1.390 1_455 S
C1311 C1308 1.386 . S
C1312 C1307 1.490 . S
C1312 C1314 1.395 . S
C1312 C1315 1.403 . S
H1313 C1319 0.930 . S
C1314 H1300 0.930 . S
C1314 C1312 1.395 . S
C1314 C1317 1.403 . S
C1315 C1312 1.403 . S
C1315 C1316 1.524 . S
C1315 C1319 1.400 . S
C1316 H1301 0.960 . S
C1316 H1302 0.960 . S
C1316 H1303 0.960 . S
C1316 C1315 1.524 . S
C1317 C1314 1.403 . S
C1317 C1318 1.392 . S
C1317 C1321 1.495 . S
C1318 C1317 1.392 . S
C1318 C1319 1.385 . S
C1318 C1320 1.478 . S
C1319 H1313 0.930 . S
C1319 C1315 1.400 . S
C1319 C1318 1.385 . S
C1320 C1318 1.478 . S
C1320 C1322 1.381 . S
C1320 C1326 1.383 . S
C1321 C1317 1.495 . S
C1321 H1327 0.959 . S
C1321 H1328 0.961 . S
C1321 H1329 0.960 . S
C1322 C1320 1.381 . S
C1322 C1323 1.394 . S
C1322 H1330 0.930 . S
C1323 C1322 1.394 . S
C1323 C1324 1.383 . S
C1323 H1331 0.929 . S
C1324 C1323 1.383 . S
C1324 C1325 1.377 . S
C1325 H1309 0.930 . S
C1325 C1324 1.377 . S
C1325 C1326 1.379 . S
C1326 H1310 0.931 . S
C1326 C1320 1.383 . S
C1326 C1325 1.379 . S
H1327 C1321 0.959 . S
H1328 C1321 0.961 . S
H1329 C1321 0.960 . S
H1330 C1322 0.930 . S
H1331 C1323 0.929 . S
H1332 C1340 0.929 . S
H1333 C1342 0.930 . S
H1334 C1344 0.930 . S
H1335 C1347 0.929 . S
H1336 C1350 0.930 . S
H1337 C1352 0.960 . S
H1338 C1352 0.960 . S
H1339 C1352 0.960 . S
C1340 H1332 0.929 . S
C1340 C1341 1.377 . S
C1340 C1342 1.384 . S
C1341 C1340 1.377 . S
C1341 C1347 1.390 . S
C1342 H1333 0.930 . S
C1342 C1340 1.384 . S
C1342 C1343 1.372 . S
C1343 C1342 1.372 . S
C1343 C1344 1.400 . S
C1343 C1348 1.490 . S
C1344 H1334 0.930 . S
C1344 C1343 1.400 . S
C1344 C1347 1.386 . S
H1345 C1361 0.930 . S
H1346 C1362 0.931 . S
C1347 H1335 0.929 . S
C1347 C1341 1.390 . S
C1347 C1344 1.386 . S
C1348 C1343 1.490 . S
C1348 C1350 1.395 . S
C1348 C1351 1.403 . S
H1349 C1355 0.930 . S
C1350 H1336 0.930 . S
C1350 C1348 1.395 . S
C1350 C1353 1.403 . S
C1351 C1348 1.403 . S
C1351 C1352 1.524 . S
C1351 C1355 1.400 . S
C1352 H1337 0.960 . S
C1352 H1338 0.960 . S
C1352 H1339 0.960 . S
C1352 C1351 1.524 . S
C1353 C1350 1.403 . S
C1353 C1354 1.392 . S
C1353 C1357 1.495 . S
C1354 C1353 1.392 . S
C1354 C1355 1.385 . S
C1354 C1356 1.478 1_565 S
C1355 H1349 0.930 . S
C1355 C1351 1.400 . S
C1355 C1354 1.385 . S
C1356 C1354 1.478 1_545 S
C1356 C1358 1.381 . S
C1356 C1362 1.383 . S
C1357 C1353 1.495 . S
C1357 H1363 0.959 . S
C1357 H1364 0.961 . S
C1357 H1365 0.960 . S
C1358 C1356 1.381 . S
C1358 C1359 1.394 . S
C1358 H1366 0.930 1_545 S
C1359 C1358 1.394 . S
C1359 C1360 1.383 . S
C1359 H1367 0.929 . S
C1360 C1359 1.383 . S
C1360 C1361 1.377 . S
C1361 H1345 0.930 . S
C1361 C1360 1.377 . S
C1361 C1362 1.379 . S
C1362 H1346 0.931 . S
C1362 C1356 1.383 . S
C1362 C1361 1.379 . S
H1363 C1357 0.959 . S
H1364 C1357 0.961 . S
H1365 C1357 0.960 . S
H1366 C1358 0.930 1_565 S
H1367 C1359 0.929 . S
H1368 C1376 0.929 1_545 S
H1369 C1378 0.930 . S
H1370 C1380 0.930 . S
H1371 C1383 0.929 . S
H1372 C1386 0.930 . S
H1373 C1388 0.960 . S
H1374 C1388 0.960 . S
H1375 C1388 0.960 . S
C1376 H1368 0.929 1_565 S
C1376 C1377 1.377 1_565 S
C1376 C1378 1.384 . S
C1377 C1376 1.377 1_545 S
C1377 C1383 1.390 . S
C1378 H1369 0.930 . S
C1378 C1376 1.384 . S
C1378 C1379 1.372 . S
C1379 C1378 1.372 . S
C1379 C1380 1.400 . S
C1379 C1384 1.490 . S
C1380 H1370 0.930 . S
C1380 C1379 1.400 . S
C1380 C1383 1.386 1_565 S
H1381 C1397 0.930 . S
H1382 C1398 0.931 . S
C1383 H1371 0.929 . S
C1383 C1377 1.390 . S
C1383 C1380 1.386 1_545 S
C1384 C1379 1.490 . S
C1384 C1386 1.395 . S
C1384 C1387 1.403 . S
H1385 C1391 0.930 . S
C1386 H1372 0.930 . S
C1386 C1384 1.395 . S
C1386 C1389 1.403 . S
C1387 C1384 1.403 . S
C1387 C1388 1.524 . S
C1387 C1391 1.400 . S
C1388 H1373 0.960 . S
C1388 H1374 0.960 . S
C1388 H1375 0.960 . S
C1388 C1387 1.524 . S
C1389 C1386 1.403 . S
C1389 C1390 1.392 . S
C1389 C1393 1.495 . S
C1390 C1389 1.392 . S
C1390 C1391 1.385 . S
C1390 C1392 1.478 1_455 S
C1391 H1385 0.930 . S
C1391 C1387 1.400 . S
C1391 C1390 1.385 . S
C1392 C1390 1.478 1_655 S
C1392 C1394 1.381 . S
C1392 C1398 1.383 . S
C1393 C1389 1.495 . S
C1393 H1399 0.959 . S
C1393 H1400 0.961 1_455 S
C1393 H1401 0.960 1_455 S
C1394 C1392 1.381 . S
C1394 C1395 1.394 . S
C1394 H1402 0.930 . S
C1395 C1394 1.394 . S
C1395 C1396 1.383 . S
C1395 H1403 0.929 . S
C1396 C1395 1.383 . S
C1396 C1397 1.377 . S
C1397 H1381 0.930 . S
C1397 C1396 1.377 . S
C1397 C1398 1.379 . S
C1398 H1382 0.931 . S
C1398 C1392 1.383 . S
C1398 C1397 1.379 . S
H1399 C1393 0.959 . S
H1400 C1393 0.961 1_655 S
H1401 C1393 0.960 1_655 S
H1402 C1394 0.930 . S
H1403 C1395 0.929 . S
H1404 C1412 0.929 . S
H1405 C1414 0.930 . S
H1406 C1416 0.930 . S
H1407 C1419 0.929 . S
H1408 C1422 0.930 . S
H1409 C1424 0.960 . S
H1410 C1424 0.960 . S
H1411 C1424 0.960 . S
C1412 H1404 0.929 . S
C1412 C1413 1.377 . S
C1412 C1414 1.384 1_545 S
C1413 C1412 1.377 . S
C1413 C1419 1.390 1_545 S
C1414 H1405 0.930 . S
C1414 C1412 1.384 1_565 S
C1414 C1415 1.372 . S
C1415 C1414 1.372 . S
C1415 C1416 1.400 . S
C1415 C1420 1.490 . S
C1416 H1406 0.930 . S
C1416 C1415 1.400 . S
C1416 C1419 1.386 . S
H1417 C1433 0.930 . S
H1418 C1434 0.931 . S
C1419 H1407 0.929 . S
C1419 C1413 1.390 1_565 S
C1419 C1416 1.386 . S
C1420 C1415 1.490 . S
C1420 C1422 1.395 . S
C1420 C1423 1.403 . S
H1421 C1427 0.930 . S
C1422 H1408 0.930 . S
C1422 C1420 1.395 . S
C1422 C1425 1.403 . S
C1423 C1420 1.403 . S
C1423 C1424 1.524 . S
C1423 C1427 1.400 . S
C1424 H1409 0.960 . S
C1424 H1410 0.960 . S
C1424 H1411 0.960 . S
C1424 C1423 1.524 . S
C1425 C1422 1.403 . S
C1425 C1426 1.392 . S
C1425 C1429 1.495 . S
C1426 C1425 1.392 . S
C1426 C1427 1.385 . S
C1426 C1428 1.478 . S
C1427 H1421 0.930 . S
C1427 C1423 1.400 . S
C1427 C1426 1.385 . S
C1428 C1426 1.478 . S
C1428 C1430 1.381 . S
C1428 C1434 1.383 . S
C1429 C1425 1.495 . S
C1429 H1435 0.959 . S
C1429 H1436 0.961 . S
C1429 H1437 0.960 . S
C1430 C1428 1.381 . S
C1430 C1431 1.394 . S
C1430 H1438 0.930 . S
C1431 C1430 1.394 . S
C1431 C1432 1.383 . S
C1431 H1439 0.929 . S
C1432 C1431 1.383 . S
C1432 C1433 1.377 . S
C1433 H1417 0.930 . S
C1433 C1432 1.377 . S
C1433 C1434 1.379 . S
C1434 H1418 0.931 . S
C1434 C1428 1.383 . S
C1434 C1433 1.379 . S
H1435 C1429 0.959 . S
H1436 C1429 0.961 . S
H1437 C1429 0.960 . S
H1438 C1430 0.930 . S
H1439 C1431 0.929 . S
H1440 C1448 0.929 . S
H1441 C1450 0.939 . S
H1442 C1452 0.930 . S
H1443 C1455 0.929 . S
H1444 C1458 0.930 . S
H1445 C1460 0.960 . S
H1446 C1460 0.960 . S
H1447 C1460 0.955 1_545 S
C1448 H1440 0.929 . S
C1448 C1449 1.377 . S
C1448 C1450 1.384 . S
C1449 C1448 1.377 . S
C1449 C1455 1.390 . S
C1450 H1441 0.939 . S
C1450 C1448 1.384 . S
C1450 C1451 1.372 . S
C1451 C1450 1.372 . S
C1451 C1452 1.400 . S
C1451 C1456 1.490 1_545 S
C1452 H1442 0.930 . S
C1452 C1451 1.400 . S
C1452 C1455 1.386 . S
H1453 C1469 0.930 . S
H1454 C1470 0.931 . S
C1455 H1443 0.929 . S
C1455 C1449 1.390 . S
C1455 C1452 1.386 . S
C1456 C1451 1.490 1_565 S
C1456 C1458 1.395 . S
C1456 C1459 1.403 . S
H1457 C1463 0.930 . S
C1458 H1444 0.930 . S
C1458 C1456 1.395 . S
C1458 C1461 1.403 . S
C1459 C1456 1.403 . S
C1459 C1460 1.524 . S
C1459 C1463 1.400 . S
C1460 H1445 0.960 . S
C1460 H1446 0.960 . S
C1460 H1447 0.955 1_565 S
C1460 C1459 1.524 . S
C1461 C1458 1.403 . S
C1461 C1462 1.392 . S
C1461 C1465 1.495 . S
C1462 C1461 1.392 . S
C1462 C1463 1.385 . S
C1462 C1464 1.478 . S
C1463 H1457 0.930 . S
C1463 C1459 1.400 . S
C1463 C1462 1.385 . S
C1464 C1462 1.478 . S
C1464 C1466 1.381 . S
C1464 C1470 1.383 . S
C1465 C1461 1.495 . S
C1465 H1471 0.959 . S
C1465 H1472 0.961 . S
C1465 H1473 0.960 . S
C1466 C1464 1.381 . S
C1466 C1467 1.394 1_455 S
C1466 H1474 0.930 . S
C1467 C1466 1.394 1_655 S
C1467 C1468 1.383 . S
C1467 H1475 0.929 . S
C1468 C1467 1.383 . S
C1468 C1469 1.377 1_655 S
C1469 H1453 0.930 . S
C1469 C1468 1.377 1_455 S
C1469 C1470 1.379 . S
C1470 H1454 0.931 . S
C1470 C1464 1.383 . S
C1470 C1469 1.379 . S
H1471 C1465 0.959 . S
H1472 C1465 0.961 . S
H1473 C1465 0.960 . S
H1474 C1466 0.930 . S
H1475 C1467 0.929 . S
H1476 C1484 0.929 . S
H1477 C1486 0.930 . S
H1478 C1488 0.930 . S
H1479 C1491 0.929 . S
H1480 C1494 0.930 . S
H1481 C1496 0.960 . S
H1482 C1496 0.960 . S
H1483 C1496 0.960 . S
C1484 H1476 0.929 . S
C1484 C1485 1.377 . S
C1484 C1486 1.384 . S
C1485 C1484 1.377 . S
C1485 C1491 1.390 . S
C1486 H1477 0.930 . S
C1486 C1484 1.384 . S
C1486 C1487 1.372 . S
C1487 C1486 1.372 . S
C1487 C1488 1.400 . S
C1487 C1492 1.490 . S
C1488 H1478 0.930 . S
C1488 C1487 1.400 . S
C1488 C1491 1.386 . S
H1489 C1505 0.930 . S
H1490 C1506 0.931 . S
C1491 H1479 0.929 . S
C1491 C1485 1.390 . S
C1491 C1488 1.386 . S
C1492 C1487 1.490 . S
C1492 C1494 1.395 . S
C1492 C1495 1.403 . S
H1493 C1499 0.930 . S
C1494 H1480 0.930 . S
C1494 C1492 1.395 . S
C1494 C1497 1.403 . S
C1495 C1492 1.403 . S
C1495 C1496 1.524 . S
C1495 C1499 1.400 . S
C1496 H1481 0.960 . S
C1496 H1482 0.960 . S
C1496 H1483 0.960 . S
C1496 C1495 1.524 . S
C1497 C1494 1.403 . S
C1497 C1498 1.392 . S
C1497 C1501 1.495 . S
C1498 C1497 1.392 . S
C1498 C1499 1.385 . S
C1498 C1500 1.443 1_455 S
C1499 H1493 0.930 . S
C1499 C1495 1.400 . S
C1499 C1498 1.385 . S
C1500 C1498 1.443 1_655 S
C1500 C1502 1.407 . S
C1500 C1506 1.393 . S
C1501 C1497 1.495 . S
C1501 H1507 0.959 . S
C1501 H1508 0.961 . S
C1501 H1509 0.960 . S
C1502 C1500 1.407 . S
C1502 C1503 1.394 . S
C1502 H1510 0.930 1_655 S
C1503 C1502 1.394 . S
C1503 C1504 1.383 . S
C1503 H1511 0.929 . S
C1504 C1503 1.383 . S
C1504 C1505 1.377 . S
C1505 H1489 0.930 . S
C1505 C1504 1.377 . S
C1505 C1506 1.379 . S
C1506 H1490 0.931 . S
C1506 C1500 1.393 . S
C1506 C1505 1.379 . S
H1507 C1501 0.959 . S
H1508 C1501 0.961 . S
H1509 C1501 0.960 . S
H1510 C1502 0.930 1_455 S
H1511 C1503 0.929 . S
H1512 C1520 0.929 . S
H1513 C1522 0.941 1_455 S
H1514 C1524 0.930 . S
H1515 C1527 0.929 . S
H1516 C1530 0.930 . S
H1517 C1532 0.960 . S
H1518 C1532 0.960 . S
H1519 C1532 0.960 . S
C1520 H1512 0.929 . S
C1520 C1521 1.377 . S
C1520 C1522 1.384 1_455 S
C1521 C1520 1.377 . S
C1521 C1527 1.390 1_455 S
C1522 H1513 0.941 1_655 S
C1522 C1520 1.384 1_655 S
C1522 C1523 1.372 . S
C1523 C1522 1.372 . S
C1523 C1524 1.400 . S
C1523 C1528 1.490 . S
C1524 H1514 0.930 . S
C1524 C1523 1.400 . S
C1524 C1527 1.386 . S
H1525 C1541 0.930 . S
H1526 C1542 0.931 . S
C1527 H1515 0.929 . S
C1527 C1521 1.390 1_655 S
C1527 C1524 1.386 . S
C1528 C1523 1.490 . S
C1528 C1530 1.395 . S
C1528 C1531 1.403 . S
H1529 C1535 0.930 . S
C1530 H1516 0.930 . S
C1530 C1528 1.395 . S
C1530 C1533 1.403 . S
C1531 C1528 1.403 . S
C1531 C1532 1.524 . S
C1531 C1535 1.400 . S
C1532 H1517 0.960 . S
C1532 H1518 0.960 . S
C1532 H1519 0.960 . S
C1532 C1531 1.524 . S
C1533 C1530 1.403 . S
C1533 C1534 1.392 . S
C1533 C1537 1.495 . S
C1534 C1533 1.392 . S
C1534 C1535 1.385 . S
C1534 C1536 1.478 . S
C1535 H1529 0.930 . S
C1535 C1531 1.400 . S
C1535 C1534 1.385 . S
C1536 C1534 1.478 . S
C1536 C1538 1.381 . S
C1536 C1542 1.383 . S
C1537 C1533 1.495 . S
C1537 H1543 0.959 . S
C1537 H1544 0.961 . S
C1537 H1545 0.960 . S
C1538 C1536 1.381 . S
C1538 C1539 1.394 . S
C1538 H1546 0.930 . S
C1539 C1538 1.394 . S
C1539 C1540 1.383 . S
C1539 H1547 0.929 . S
C1540 C1539 1.383 . S
C1540 C1541 1.377 . S
C1541 H1525 0.930 . S
C1541 C1540 1.377 . S
C1541 C1542 1.379 . S
C1542 H1526 0.931 . S
C1542 C1536 1.383 . S
C1542 C1541 1.379 . S
H1543 C1537 0.959 . S
H1544 C1537 0.961 . S
H1545 C1537 0.960 . S
H1546 C1538 0.930 . S
H1547 C1539 0.929 . S
H1548 C1556 0.929 . S
H1549 C1558 0.930 1_545 S
H1550 C1560 0.930 . S
H1551 C1563 0.929 . S
H1552 C1566 0.930 . S
H1553 C1568 0.960 . S
H1554 C1568 0.960 . S
H1555 C1568 0.960 . S
C1556 H1548 0.929 . S
C1556 C1557 1.377 . S
C1556 C1558 1.384 . S
C1557 C1556 1.377 . S
C1557 C1563 1.390 . S
C1558 H1549 0.930 1_565 S
C1558 C1556 1.384 . S
C1558 C1559 1.372 . S
C1559 C1558 1.372 . S
C1559 C1560 1.400 . S
C1559 C1564 1.490 1_565 S
C1560 H1550 0.930 . S
C1560 C1559 1.400 . S
C1560 C1563 1.386 . S
H1561 C1577 0.930 . S
H1562 C1578 0.931 . S
C1563 H1551 0.929 . S
C1563 C1557 1.390 . S
C1563 C1560 1.386 . S
C1564 C1559 1.490 1_545 S
C1564 C1566 1.395 . S
C1564 C1567 1.403 . S
H1565 C1571 0.930 . S
C1566 H1552 0.930 . S
C1566 C1564 1.395 . S
C1566 C1569 1.403 . S
C1567 C1564 1.403 . S
C1567 C1568 1.524 . S
C1567 C1571 1.400 . S
C1568 H1553 0.960 . S
C1568 H1554 0.960 . S
C1568 H1555 0.960 . S
C1568 C1567 1.524 . S
C1569 C1566 1.403 . S
C1569 C1570 1.392 . S
C1569 C1573 1.495 . S
C1570 C1569 1.392 . S
C1570 C1571 1.385 . S
C1570 C1572 1.478 . S
C1571 H1565 0.930 . S
C1571 C1567 1.400 . S
C1571 C1570 1.385 . S
C1572 C1570 1.478 . S
C1572 C1574 1.381 . S
C1572 C1578 1.383 . S
C1573 C1569 1.495 . S
C1573 H1579 0.959 . S
C1573 H1580 0.961 . S
C1573 H1581 0.960 . S
C1574 C1572 1.381 . S
C1574 C1575 1.394 . S
C1574 H1582 0.930 . S
C1575 C1574 1.394 . S
C1575 C1576 1.383 . S
C1575 H1583 0.929 . S
C1576 C1575 1.383 . S
C1576 C1577 1.377 . S
C1577 H1561 0.930 . S
C1577 C1576 1.377 . S
C1577 C1578 1.379 . S
C1578 H1562 0.931 . S
C1578 C1572 1.383 . S
C1578 C1577 1.379 . S
H1579 C1573 0.959 . S
H1580 C1573 0.961 . S
H1581 C1573 0.960 . S
H1582 C1574 0.930 . S
H1583 C1575 0.929 . S
H1584 C1592 0.929 . S
H1585 C1594 0.930 . S
H1586 C1596 0.930 . S
H1587 C1599 0.929 . S
H1588 C1602 0.930 . S
H1589 C1604 0.960 . S
H1590 C1604 0.960 . S
H1591 C1604 0.960 . S
C1592 H1584 0.929 . S
C1592 C1593 1.377 1_545 S
C1592 C1594 1.384 . S
C1593 C1592 1.377 1_565 S
C1593 C1599 1.390 . S
C1594 H1585 0.930 . S
C1594 C1592 1.384 . S
C1594 C1595 1.372 . S
C1595 C1594 1.372 . S
C1595 C1596 1.400 . S
C1595 C1600 1.490 . S
C1596 H1586 0.930 . S
C1596 C1595 1.400 . S
C1596 C1599 1.386 1_545 S
H1597 C1613 0.930 . S
H1598 C1614 0.931 . S
C1599 H1587 0.929 . S
C1599 C1593 1.390 . S
C1599 C1596 1.386 1_565 S
C1600 C1595 1.490 . S
C1600 C1602 1.395 . S
C1600 C1603 1.403 . S
H1601 C1607 0.930 . S
C1602 H1588 0.930 . S
C1602 C1600 1.395 . S
C1602 C1605 1.403 . S
C1603 C1600 1.403 . S
C1603 C1604 1.524 . S
C1603 C1607 1.400 . S
C1604 H1589 0.960 . S
C1604 H1590 0.960 . S
C1604 H1591 0.960 . S
C1604 C1603 1.524 . S
C1605 C1602 1.403 . S
C1605 C1606 1.392 . S
C1605 C1609 1.495 . S
C1606 C1605 1.392 . S
C1606 C1607 1.385 . S
C1606 C1608 1.461 1_655 S
C1607 H1601 0.930 . S
C1607 C1603 1.400 . S
C1607 C1606 1.385 . S
C1608 C1606 1.461 1_455 S
C1608 C1610 1.377 . S
C1608 C1614 1.404 . S
C1609 C1605 1.495 . S
C1609 H1615 0.959 . S
C1609 H1616 0.961 . S
C1609 H1617 0.960 . S
C1610 C1608 1.377 . S
C1610 C1611 1.394 . S
C1610 H1618 0.930 1_455 S
C1611 C1610 1.394 . S
C1611 C1612 1.383 . S
C1611 H1619 0.929 . S
C1612 C1611 1.383 . S
C1612 C1613 1.377 . S
C1613 H1597 0.930 . S
C1613 C1612 1.377 . S
C1613 C1614 1.379 . S
C1614 H1598 0.931 . S
C1614 C1608 1.404 . S
C1614 C1613 1.379 . S
H1615 C1609 0.959 . S
H1616 C1609 0.961 . S
H1617 C1609 0.960 . S
H1618 C1610 0.930 1_655 S
H1619 C1611 0.929 . S
H1620 C1628 0.929 . S
H1621 C1630 0.930 . S
H1622 C1632 0.930 . S
H1623 C1635 0.929 . S
H1624 C1638 0.930 . S
H1625 C1640 0.960 . S
H1626 C1640 0.960 . S
H1627 C1640 0.960 . S
C1628 H1620 0.929 . S
C1628 C1629 1.377 . S
C1628 C1630 1.384 . S
C1629 C1628 1.377 . S
C1629 C1635 1.390 . S
C1630 H1621 0.930 . S
C1630 C1628 1.384 . S
C1630 C1631 1.372 . S
C1631 C1630 1.372 . S
C1631 C1632 1.400 . S
C1631 C1636 1.490 . S
C1632 H1622 0.930 . S
C1632 C1631 1.400 . S
C1632 C1635 1.386 . S
H1633 C1649 0.930 . S
H1634 C1650 0.931 . S
C1635 H1623 0.929 . S
C1635 C1629 1.390 . S
C1635 C1632 1.386 . S
C1636 C1631 1.490 . S
C1636 C1638 1.395 . S
C1636 C1639 1.403 . S
H1637 C1643 0.930 . S
C1638 H1624 0.930 . S
C1638 C1636 1.395 . S
C1638 C1641 1.403 . S
C1639 C1636 1.403 . S
C1639 C1640 1.524 . S
C1639 C1643 1.400 . S
C1640 H1625 0.960 . S
C1640 H1626 0.960 . S
C1640 H1627 0.960 . S
C1640 C1639 1.524 . S
C1641 C1638 1.403 . S
C1641 C1642 1.392 . S
C1641 C1645 1.495 . S
C1642 C1641 1.392 . S
C1642 C1643 1.385 . S
C1642 C1644 1.478 . S
C1643 H1637 0.930 . S
C1643 C1639 1.400 . S
C1643 C1642 1.385 . S
C1644 C1642 1.478 . S
C1644 C1646 1.381 . S
C1644 C1650 1.383 . S
C1645 C1641 1.495 . S
C1645 H1651 0.959 . S
C1645 H1652 0.961 . S
C1645 H1653 0.960 . S
C1646 C1644 1.381 . S
C1646 C1647 1.394 . S
C1646 H1654 0.930 . S
C1647 C1646 1.394 . S
C1647 C1648 1.383 . S
C1647 H1655 0.929 . S
C1648 C1647 1.383 . S
C1648 C1649 1.377 . S
C1649 H1633 0.930 . S
C1649 C1648 1.377 . S
C1649 C1650 1.379 . S
C1650 H1634 0.931 . S
C1650 C1644 1.383 . S
C1650 C1649 1.379 . S
H1651 C1645 0.959 . S
H1652 C1645 0.961 . S
H1653 C1645 0.960 . S
H1654 C1646 0.930 . S
H1655 C1647 0.929 . S
H1656 C1664 0.929 . S
H1657 C1666 0.930 . S
H1658 C1668 0.930 . S
H1659 C1671 0.929 . S
H1660 C1674 0.930 . S
H1661 C1676 0.960 . S
H1662 C1676 0.960 . S
H1663 C1676 0.960 . S
C1664 H1656 0.929 . S
C1664 C1665 1.377 . S
C1664 C1666 1.384 . S
C1665 C1664 1.377 . S
C1665 C1671 1.390 . S
C1666 H1657 0.930 . S
C1666 C1664 1.384 . S
C1666 C1667 1.372 . S
C1667 C1666 1.372 . S
C1667 C1668 1.400 . S
C1667 C1672 1.490 . S
C1668 H1658 0.930 . S
C1668 C1667 1.400 . S
C1668 C1671 1.386 . S
H1669 C1685 0.930 . S
H1670 C1686 0.931 . S
C1671 H1659 0.929 . S
C1671 C1665 1.390 . S
C1671 C1668 1.386 . S
C1672 C1667 1.490 . S
C1672 C1674 1.395 . S
C1672 C1675 1.403 . S
H1673 C1679 0.930 . S
C1674 H1660 0.930 . S
C1674 C1672 1.395 . S
C1674 C1677 1.403 . S
C1675 C1672 1.403 . S
C1675 C1676 1.524 . S
C1675 C1679 1.400 . S
C1676 H1661 0.960 . S
C1676 H1662 0.960 . S
C1676 H1663 0.960 . S
C1676 C1675 1.524 . S
C1677 C1674 1.403 . S
C1677 C1678 1.392 . S
C1677 C1681 1.495 . S
C1678 C1677 1.392 . S
C1678 C1679 1.385 . S
C1678 C1680 1.478 . S
C1679 H1673 0.930 . S
C1679 C1675 1.400 . S
C1679 C1678 1.385 . S
C1680 C1678 1.478 . S
C1680 C1682 1.381 . S
C1680 C1686 1.383 . S
C1681 C1677 1.495 . S
C1681 H1687 0.959 . S
C1681 H1688 0.961 . S
C1681 H1689 0.960 . S
C1682 C1680 1.381 . S
C1682 C1683 1.394 . S
C1682 H1690 0.930 . S
C1683 C1682 1.394 . S
C1683 C1684 1.383 . S
C1683 H1691 0.929 . S
C1684 C1683 1.383 . S
C1684 C1685 1.377 . S
C1685 H1669 0.930 . S
C1685 C1684 1.377 . S
C1685 C1686 1.379 . S
C1686 H1670 0.931 . S
C1686 C1680 1.383 . S
C1686 C1685 1.379 . S
H1687 C1681 0.959 . S
H1688 C1681 0.961 . S
H1689 C1681 0.960 . S
H1690 C1682 0.930 . S
H1691 C1683 0.929 . S
H1692 C1700 0.929 . S
H1693 C1702 0.930 . S
H1694 C1704 0.930 . S
H1695 C1707 0.929 . S
H1696 C1710 0.930 . S
H1697 C1712 0.960 . S
H1698 C1712 0.960 . S
H1699 C1712 0.960 . S
C1700 H1692 0.929 . S
C1700 C1701 1.377 . S
C1700 C1702 1.384 . S
C1701 C1700 1.377 . S
C1701 C1707 1.390 . S
C1702 H1693 0.930 . S
C1702 C1700 1.384 . S
C1702 C1703 1.372 . S
C1703 C1702 1.372 . S
C1703 C1704 1.400 . S
C1703 C1708 1.490 . S
C1704 H1694 0.930 . S
C1704 C1703 1.400 . S
C1704 C1707 1.386 . S
H1705 C1721 0.930 . S
H1706 C1722 0.931 . S
C1707 H1695 0.929 . S
C1707 C1701 1.390 . S
C1707 C1704 1.386 . S
C1708 C1703 1.490 . S
C1708 C1710 1.395 . S
C1708 C1711 1.403 . S
H1709 C1715 0.930 . S
C1710 H1696 0.930 . S
C1710 C1708 1.395 . S
C1710 C1713 1.403 . S
C1711 C1708 1.403 . S
C1711 C1712 1.524 . S
C1711 C1715 1.400 . S
C1712 H1697 0.960 . S
C1712 H1698 0.960 . S
C1712 H1699 0.960 . S
C1712 C1711 1.524 . S
C1713 C1710 1.403 . S
C1713 C1714 1.392 . S
C1713 C1717 1.495 . S
C1714 C1713 1.392 . S
C1714 C1715 1.385 . S
C1714 C1716 1.478 . S
C1715 H1709 0.930 . S
C1715 C1711 1.400 . S
C1715 C1714 1.385 . S
C1716 C1714 1.478 . S
C1716 C1718 1.381 . S
C1716 C1722 1.383 . S
C1717 C1713 1.495 . S
C1717 H1723 0.959 . S
C1717 H1724 0.961 . S
C1717 H1725 0.960 . S
C1718 C1716 1.381 . S
C1718 C1719 1.394 . S
C1718 H1726 0.930 . S
C1719 C1718 1.394 . S
C1719 C1720 1.383 . S
C1719 H1727 0.929 . S
C1720 C1719 1.383 . S
C1720 C1721 1.377 . S
C1721 H1705 0.930 . S
C1721 C1720 1.377 . S
C1721 C1722 1.379 . S
C1722 H1706 0.931 . S
C1722 C1716 1.383 . S
C1722 C1721 1.379 . S
H1723 C1717 0.959 . S
H1724 C1717 0.961 . S
H1725 C1717 0.960 . S
H1726 C1718 0.930 . S
H1727 C1719 0.929 . S
H1728 C1736 0.929 . S
H1729 C1738 0.930 . S
H1730 C1740 0.930 . S
H1731 C1743 0.929 . S
H1732 C1746 0.930 . S
H1733 C1748 0.960 . S
H1734 C1748 0.960 . S
H1735 C1748 0.960 . S
C1736 H1728 0.929 . S
C1736 C1737 1.377 . S
C1736 C1738 1.384 . S
C1737 C1736 1.377 . S
C1737 C1743 1.390 . S
C1738 H1729 0.930 . S
C1738 C1736 1.384 . S
C1738 C1739 1.372 . S
C1739 C1738 1.372 . S
C1739 C1740 1.400 . S
C1739 C1744 1.490 . S
C1740 H1730 0.930 . S
C1740 C1739 1.400 . S
C1740 C1743 1.386 . S
H1741 C1757 0.930 . S
H1742 C1758 0.931 . S
C1743 H1731 0.929 . S
C1743 C1737 1.390 . S
C1743 C1740 1.386 . S
C1744 C1739 1.490 . S
C1744 C1746 1.395 . S
C1744 C1747 1.403 . S
H1745 C1751 0.930 . S
C1746 H1732 0.930 . S
C1746 C1744 1.395 . S
C1746 C1749 1.403 . S
C1747 C1744 1.403 . S
C1747 C1748 1.524 . S
C1747 C1751 1.400 . S
C1748 H1733 0.960 . S
C1748 H1734 0.960 . S
C1748 H1735 0.960 . S
C1748 C1747 1.524 . S
C1749 C1746 1.403 . S
C1749 C1750 1.392 . S
C1749 C1753 1.495 . S
C1750 C1749 1.392 . S
C1750 C1751 1.385 . S
C1750 C1752 1.478 . S
C1751 H1745 0.930 . S
C1751 C1747 1.400 . S
C1751 C1750 1.385 . S
C1752 C1750 1.478 . S
C1752 C1754 1.381 . S
C1752 C1758 1.383 . S
C1753 C1749 1.495 . S
C1753 H1759 0.959 . S
C1753 H1760 0.961 . S
C1753 H1761 0.960 . S
C1754 C1752 1.381 . S
C1754 C1755 1.394 . S
C1754 H1762 0.930 . S
C1755 C1754 1.394 . S
C1755 C1756 1.383 . S
C1755 H1763 0.929 . S
C1756 C1755 1.383 . S
C1756 C1757 1.377 . S
C1757 H1741 0.930 . S
C1757 C1756 1.377 . S
C1757 C1758 1.379 . S
C1758 H1742 0.931 . S
C1758 C1752 1.383 . S
C1758 C1757 1.379 . S
H1759 C1753 0.959 . S
H1760 C1753 0.961 . S
H1761 C1753 0.960 . S
H1762 C1754 0.930 . S
H1763 C1755 0.929 . S
H1764 C1772 0.929 . S
H1765 C1774 0.930 . S
H1766 C1776 0.930 . S
H1767 C1779 0.929 . S
H1768 C1782 0.930 . S
H1769 C1784 0.960 . S
H1770 C1784 0.960 . S
H1771 C1784 0.960 . S
C1772 H1764 0.929 . S
C1772 C1773 1.377 . S
C1772 C1774 1.384 . S
C1773 C1772 1.377 . S
C1773 C1779 1.390 . S
C1774 H1765 0.930 . S
C1774 C1772 1.384 . S
C1774 C1775 1.372 . S
C1775 C1774 1.372 . S
C1775 C1776 1.400 . S
C1775 C1780 1.490 . S
C1776 H1766 0.930 . S
C1776 C1775 1.400 . S
C1776 C1779 1.386 . S
H1777 C1793 0.930 . S
H1778 C1794 0.931 . S
C1779 H1767 0.929 . S
C1779 C1773 1.390 . S
C1779 C1776 1.386 . S
C1780 C1775 1.490 . S
C1780 C1782 1.395 . S
C1780 C1783 1.403 . S
H1781 C1787 0.930 . S
C1782 H1768 0.930 . S
C1782 C1780 1.395 . S
C1782 C1785 1.403 . S
C1783 C1780 1.403 . S
C1783 C1784 1.524 . S
C1783 C1787 1.400 . S
C1784 H1769 0.960 . S
C1784 H1770 0.960 . S
C1784 H1771 0.960 . S
C1784 C1783 1.524 . S
C1785 C1782 1.403 . S
C1785 C1786 1.392 . S
C1785 C1789 1.495 . S
C1786 C1785 1.392 . S
C1786 C1787 1.385 . S
C1786 C1788 1.478 . S
C1787 H1781 0.930 . S
C1787 C1783 1.400 . S
C1787 C1786 1.385 . S
C1788 C1786 1.478 . S
C1788 C1790 1.381 . S
C1788 C1794 1.383 . S
C1789 C1785 1.495 . S
C1789 H1795 0.959 . S
C1789 H1796 0.961 . S
C1789 H1797 0.960 . S
C1790 C1788 1.381 . S
C1790 C1791 1.394 . S
C1790 H1798 0.930 . S
C1791 C1790 1.394 . S
C1791 C1792 1.383 . S
C1791 H1799 0.929 . S
C1792 C1791 1.383 . S
C1792 C1793 1.377 . S
C1793 H1777 0.930 . S
C1793 C1792 1.377 . S
C1793 C1794 1.379 . S
C1794 H1778 0.931 . S
C1794 C1788 1.383 . S
C1794 C1793 1.379 . S
H1795 C1789 0.959 . S
H1796 C1789 0.961 . S
H1797 C1789 0.960 . S
H1798 C1790 0.930 . S
H1799 C1791 0.929 . S
H1800 C1808 0.929 . S
H1801 C1810 0.930 . S
H1802 C1812 0.930 . S
H1803 C1815 0.929 . S
H1804 C1818 0.930 . S
H1805 C1820 0.960 . S
H1806 C1820 0.960 . S
H1807 C1820 0.960 . S
C1808 H1800 0.929 . S
C1808 C1809 1.377 . S
C1808 C1810 1.384 . S
C1809 C1808 1.377 . S
C1809 C1815 1.390 . S
C1810 H1801 0.930 . S
C1810 C1808 1.384 . S
C1810 C1811 1.372 . S
C1811 C1810 1.372 . S
C1811 C1812 1.400 . S
C1811 C1816 1.490 . S
C1812 H1802 0.930 . S
C1812 C1811 1.400 . S
C1812 C1815 1.386 . S
H1813 C1829 0.930 . S
H1814 C1830 0.931 . S
C1815 H1803 0.929 . S
C1815 C1809 1.390 . S
C1815 C1812 1.386 . S
C1816 C1811 1.490 . S
C1816 C1818 1.395 . S
C1816 C1819 1.403 . S
H1817 C1823 0.930 . S
C1818 H1804 0.930 . S
C1818 C1816 1.395 . S
C1818 C1821 1.403 . S
C1819 C1816 1.403 . S
C1819 C1820 1.524 . S
C1819 C1823 1.400 . S
C1820 H1805 0.960 . S
C1820 H1806 0.960 . S
C1820 H1807 0.960 . S
C1820 C1819 1.524 . S
C1821 C1818 1.403 . S
C1821 C1822 1.392 . S
C1821 C1825 1.495 . S
C1822 C1821 1.392 . S
C1822 C1823 1.385 . S
C1822 C1824 1.478 . S
C1823 H1817 0.930 . S
C1823 C1819 1.400 . S
C1823 C1822 1.385 . S
C1824 C1822 1.478 . S
C1824 C1826 1.381 . S
C1824 C1830 1.383 . S
C1825 C1821 1.495 . S
C1825 H1831 0.959 . S
C1825 H1832 0.961 . S
C1825 H1833 0.960 . S
C1826 C1824 1.381 . S
C1826 C1827 1.394 . S
C1826 H1834 0.930 . S
C1827 C1826 1.394 . S
C1827 C1828 1.383 . S
C1827 H1835 0.929 . S
C1828 C1827 1.383 . S
C1828 C1829 1.377 . S
C1829 H1813 0.930 . S
C1829 C1828 1.377 . S
C1829 C1830 1.379 . S
C1830 H1814 0.931 . S
C1830 C1824 1.383 . S
C1830 C1829 1.379 . S
H1831 C1825 0.959 . S
H1832 C1825 0.961 . S
H1833 C1825 0.960 . S
H1834 C1826 0.930 . S
H1835 C1827 0.929 . S
H1836 C1844 0.929 . S
H1837 C1846 0.930 . S
H1838 C1848 0.930 . S
H1839 C1851 0.929 . S
H1840 C1854 0.930 . S
H1841 C1856 0.960 . S
H1842 C1856 0.960 . S
H1843 C1856 0.960 . S
C1844 H1836 0.929 . S
C1844 C1845 1.377 . S
C1844 C1846 1.384 . S
C1845 C1844 1.377 . S
C1845 C1851 1.390 . S
C1846 H1837 0.930 . S
C1846 C1844 1.384 . S
C1846 C1847 1.372 . S
C1847 C1846 1.372 . S
C1847 C1848 1.400 . S
C1847 C1852 1.490 . S
C1848 H1838 0.930 . S
C1848 C1847 1.400 . S
C1848 C1851 1.386 . S
H1849 C1865 0.930 . S
H1850 C1866 0.931 . S
C1851 H1839 0.929 . S
C1851 C1845 1.390 . S
C1851 C1848 1.386 . S
C1852 C1847 1.490 . S
C1852 C1854 1.395 . S
C1852 C1855 1.403 . S
H1853 C1859 0.930 . S
C1854 H1840 0.930 . S
C1854 C1852 1.395 . S
C1854 C1857 1.403 . S
C1855 C1852 1.403 . S
C1855 C1856 1.524 . S
C1855 C1859 1.400 . S
C1856 H1841 0.960 . S
C1856 H1842 0.960 . S
C1856 H1843 0.960 . S
C1856 C1855 1.524 . S
C1857 C1854 1.403 . S
C1857 C1858 1.392 . S
C1857 C1861 1.495 . S
C1858 C1857 1.392 . S
C1858 C1859 1.385 . S
C1858 C1860 1.478 . S
C1859 H1853 0.930 . S
C1859 C1855 1.400 . S
C1859 C1858 1.385 . S
C1860 C1858 1.478 . S
C1860 C1862 1.381 . S
C1860 C1866 1.383 . S
C1861 C1857 1.495 . S
C1861 H1867 0.959 . S
C1861 H1868 0.961 . S
C1861 H1869 0.960 . S
C1862 C1860 1.381 . S
C1862 C1863 1.394 . S
C1862 H1870 0.930 . S
C1863 C1862 1.394 . S
C1863 C1864 1.383 . S
C1863 H1871 0.929 . S
C1864 C1863 1.383 . S
C1864 C1865 1.377 . S
C1865 H1849 0.930 . S
C1865 C1864 1.377 . S
C1865 C1866 1.379 . S
C1866 H1850 0.931 . S
C1866 C1860 1.383 . S
C1866 C1865 1.379 . S
H1867 C1861 0.959 . S
H1868 C1861 0.961 . S
H1869 C1861 0.960 . S
H1870 C1862 0.930 . S
H1871 C1863 0.929 . S
H1872 C1880 0.929 . S
H1873 C1882 0.930 . S
H1874 C1884 0.930 . S
H1875 C1887 0.929 . S
H1876 C1890 0.930 . S
H1877 C1892 0.960 . S
H1878 C1892 0.960 . S
H1879 C1892 0.960 . S
C1880 H1872 0.929 . S
C1880 C1881 1.377 . S
C1880 C1882 1.384 . S
C1881 C1880 1.377 . S
C1881 C1887 1.390 . S
C1882 H1873 0.930 . S
C1882 C1880 1.384 . S
C1882 C1883 1.372 . S
C1883 C1882 1.372 . S
C1883 C1884 1.400 . S
C1883 C1888 1.490 . S
C1884 H1874 0.930 . S
C1884 C1883 1.400 . S
C1884 C1887 1.386 . S
H1885 C1901 0.930 . S
H1886 C1902 0.931 . S
C1887 H1875 0.929 . S
C1887 C1881 1.390 . S
C1887 C1884 1.386 . S
C1888 C1883 1.490 . S
C1888 C1890 1.395 . S
C1888 C1891 1.403 . S
H1889 C1895 0.930 . S
C1890 H1876 0.930 . S
C1890 C1888 1.395 . S
C1890 C1893 1.403 . S
C1891 C1888 1.403 . S
C1891 C1892 1.524 . S
C1891 C1895 1.400 . S
C1892 H1877 0.960 . S
C1892 H1878 0.960 . S
C1892 H1879 0.960 . S
C1892 C1891 1.524 . S
C1893 C1890 1.403 . S
C1893 C1894 1.392 . S
C1893 C1897 1.495 . S
C1894 C1893 1.392 . S
C1894 C1895 1.385 . S
C1894 C1896 1.478 . S
C1895 H1889 0.930 . S
C1895 C1891 1.400 . S
C1895 C1894 1.385 . S
C1896 C1894 1.478 . S
C1896 C1898 1.381 . S
C1896 C1902 1.383 . S
C1897 C1893 1.495 . S
C1897 H1903 0.959 . S
C1897 H1904 0.961 . S
C1897 H1905 0.960 . S
C1898 C1896 1.381 . S
C1898 C1899 1.394 . S
C1898 H1906 0.930 . S
C1899 C1898 1.394 . S
C1899 C1900 1.383 . S
C1899 H1907 0.929 . S
C1900 C1899 1.383 . S
C1900 C1901 1.377 . S
C1901 H1885 0.930 . S
C1901 C1900 1.377 . S
C1901 C1902 1.379 . S
C1902 H1886 0.931 . S
C1902 C1896 1.383 . S
C1902 C1901 1.379 . S
H1903 C1897 0.959 . S
H1904 C1897 0.961 . S
H1905 C1897 0.960 . S
H1906 C1898 0.930 . S
H1907 C1899 0.929 . S
H1908 C1916 0.929 . S
H1909 C1918 0.930 . S
H1910 C1920 0.930 . S
H1911 C1923 0.929 . S
H1912 C1926 0.930 . S
H1913 C1928 0.960 . S
H1914 C1928 0.960 . S
H1915 C1928 0.960 . S
C1916 H1908 0.929 . S
C1916 C1917 1.377 . S
C1916 C1918 1.384 . S
C1917 C1916 1.377 . S
C1917 C1923 1.390 . S
C1918 H1909 0.930 . S
C1918 C1916 1.384 . S
C1918 C1919 1.372 . S
C1919 C1918 1.372 . S
C1919 C1920 1.400 . S
C1919 C1924 1.490 . S
C1920 H1910 0.930 . S
C1920 C1919 1.400 . S
C1920 C1923 1.386 . S
H1921 C1937 0.930 . S
H1922 C1938 0.931 . S
C1923 H1911 0.929 . S
C1923 C1917 1.390 . S
C1923 C1920 1.386 . S
C1924 C1919 1.490 . S
C1924 C1926 1.395 . S
C1924 C1927 1.403 . S
H1925 C1931 0.930 . S
C1926 H1912 0.930 . S
C1926 C1924 1.395 . S
C1926 C1929 1.403 . S
C1927 C1924 1.403 . S
C1927 C1928 1.524 . S
C1927 C1931 1.400 . S
C1928 H1913 0.960 . S
C1928 H1914 0.960 . S
C1928 H1915 0.960 . S
C1928 C1927 1.524 . S
C1929 C1926 1.403 . S
C1929 C1930 1.392 . S
C1929 C1933 1.495 . S
C1930 C1929 1.392 . S
C1930 C1931 1.385 . S
C1930 C1932 1.478 . S
C1931 H1925 0.930 . S
C1931 C1927 1.400 . S
C1931 C1930 1.385 . S
C1932 C1930 1.478 . S
C1932 C1934 1.381 . S
C1932 C1938 1.383 . S
C1933 C1929 1.495 . S
C1933 H1939 0.959 . S
C1933 H1940 0.961 . S
C1933 H1941 0.960 . S
C1934 C1932 1.381 . S
C1934 C1935 1.394 . S
C1934 H1942 0.930 . S
C1935 C1934 1.394 . S
C1935 C1936 1.383 . S
C1935 H1943 0.929 . S
C1936 C1935 1.383 . S
C1936 C1937 1.377 . S
C1937 H1921 0.930 . S
C1937 C1936 1.377 . S
C1937 C1938 1.379 . S
C1938 H1922 0.931 . S
C1938 C1932 1.383 . S
C1938 C1937 1.379 . S
H1939 C1933 0.959 . S
H1940 C1933 0.961 . S
H1941 C1933 0.960 . S
H1942 C1934 0.930 . S
H1943 C1935 0.929 . S
H1944 C1952 0.929 . S
H1945 C1954 0.930 . S
H1946 C1956 0.930 . S
H1947 C1959 0.929 . S
H1948 C1962 0.930 . S
H1949 C1964 0.960 . S
H1950 C1964 0.960 . S
H1951 C1964 0.960 . S
C1952 H1944 0.929 . S
C1952 C1953 1.377 . S
C1952 C1954 1.384 . S
C1953 C1952 1.377 . S
C1953 C1959 1.390 . S
C1954 H1945 0.930 . S
C1954 C1952 1.384 . S
C1954 C1955 1.372 . S
C1955 C1954 1.372 . S
C1955 C1956 1.400 . S
C1955 C1960 1.490 . S
C1956 H1946 0.930 . S
C1956 C1955 1.400 . S
C1956 C1959 1.386 . S
H1957 C1973 0.930 . S
H1958 C1974 0.931 . S
C1959 H1947 0.929 . S
C1959 C1953 1.390 . S
C1959 C1956 1.386 . S
C1960 C1955 1.490 . S
C1960 C1962 1.395 . S
C1960 C1963 1.403 . S
H1961 C1967 0.930 . S
C1962 H1948 0.930 . S
C1962 C1960 1.395 . S
C1962 C1965 1.403 . S
C1963 C1960 1.403 . S
C1963 C1964 1.524 . S
C1963 C1967 1.400 . S
C1964 H1949 0.960 . S
C1964 H1950 0.960 . S
C1964 H1951 0.960 . S
C1964 C1963 1.524 . S
C1965 C1962 1.403 . S
C1965 C1966 1.392 . S
C1965 C1969 1.495 . S
C1966 C1965 1.392 . S
C1966 C1967 1.385 . S
C1966 C1968 1.478 . S
C1967 H1961 0.930 . S
C1967 C1963 1.400 . S
C1967 C1966 1.385 . S
C1968 C1966 1.478 . S
C1968 C1970 1.381 . S
C1968 C1974 1.383 . S
C1969 C1965 1.495 . S
C1969 H1975 0.959 . S
C1969 H1976 0.961 . S
C1969 H1977 0.960 . S
C1970 C1968 1.381 . S
C1970 C1971 1.394 . S
C1970 H1978 0.930 . S
C1971 C1970 1.394 . S
C1971 C1972 1.383 . S
C1971 H1979 0.929 . S
C1972 C1971 1.383 . S
C1972 C1973 1.377 . S
C1973 H1957 0.930 . S
C1973 C1972 1.377 . S
C1973 C1974 1.379 . S
C1974 H1958 0.931 . S
C1974 C1968 1.383 . S
C1974 C1973 1.379 . S
H1975 C1969 0.959 . S
H1976 C1969 0.961 . S
H1977 C1969 0.960 . S
H1978 C1970 0.930 . S
H1979 C1971 0.929 . S
H1980 C1988 0.929 . S
H1981 C1990 0.930 . S
H1982 C1992 0.930 . S
H1983 C1995 0.929 . S
H1984 C1998 0.930 . S
H1985 C2000 0.960 . S
H1986 C2000 0.960 . S
H1987 C2000 0.960 . S
C1988 H1980 0.929 . S
C1988 C1989 1.377 . S
C1988 C1990 1.384 . S
C1989 C1988 1.377 . S
C1989 C1995 1.390 . S
C1990 H1981 0.930 . S
C1990 C1988 1.384 . S
C1990 C1991 1.372 . S
C1991 C1990 1.372 . S
C1991 C1992 1.400 . S
C1991 C1996 1.490 . S
C1992 H1982 0.930 . S
C1992 C1991 1.400 . S
C1992 C1995 1.386 . S
H1993 C2009 0.930 . S
H1994 C2010 0.931 . S
C1995 H1983 0.929 . S
C1995 C1989 1.390 . S
C1995 C1992 1.386 . S
C1996 C1991 1.490 . S
C1996 C1998 1.395 . S
C1996 C1999 1.403 . S
H1997 C2003 0.930 . S
C1998 H1984 0.930 . S
C1998 C1996 1.395 . S
C1998 C2001 1.403 . S
C1999 C1996 1.403 . S
C1999 C2000 1.524 . S
C1999 C2003 1.400 . S
C2000 H1985 0.960 . S
C2000 H1986 0.960 . S
C2000 H1987 0.960 . S
C2000 C1999 1.524 . S
C2001 C1998 1.403 . S
C2001 C2002 1.392 . S
C2001 C2005 1.495 . S
C2002 C2001 1.392 . S
C2002 C2003 1.385 . S
C2002 C2004 1.478 . S
C2003 H1997 0.930 . S
C2003 C1999 1.400 . S
C2003 C2002 1.385 . S
C2004 C2002 1.478 . S
C2004 C2006 1.381 . S
C2004 C2010 1.383 . S
C2005 C2001 1.495 . S
C2005 H2011 0.959 . S
C2005 H2012 0.961 . S
C2005 H2013 0.960 . S
C2006 C2004 1.381 . S
C2006 C2007 1.394 . S
C2006 H2014 0.930 . S
C2007 C2006 1.394 . S
C2007 C2008 1.383 . S
C2007 H2015 0.929 . S
C2008 C2007 1.383 . S
C2008 C2009 1.377 . S
C2009 H1993 0.930 . S
C2009 C2008 1.377 . S
C2009 C2010 1.379 . S
C2010 H1994 0.931 . S
C2010 C2004 1.383 . S
C2010 C2009 1.379 . S
H2011 C2005 0.959 . S
H2012 C2005 0.961 . S
H2013 C2005 0.960 . S
H2014 C2006 0.930 . S
H2015 C2007 0.929 . S
H2016 C2024 0.929 . S
H2017 C2026 0.930 . S
H2018 C2028 0.930 . S
H2019 C2031 0.929 . S
H2020 C2034 0.930 . S
H2021 C2036 0.960 . S
H2022 C2036 0.960 . S
H2023 C2036 0.960 . S
C2024 H2016 0.929 . S
C2024 C2025 1.377 . S
C2024 C2026 1.384 . S
C2025 C2024 1.377 . S
C2025 C2031 1.390 . S
C2026 H2017 0.930 . S
C2026 C2024 1.384 . S
C2026 C2027 1.372 . S
C2027 C2026 1.372 . S
C2027 C2028 1.400 . S
C2027 C2032 1.490 . S
C2028 H2018 0.930 . S
C2028 C2027 1.400 . S
C2028 C2031 1.386 . S
H2029 C2045 0.930 . S
H2030 C2046 0.931 . S
C2031 H2019 0.929 . S
C2031 C2025 1.390 . S
C2031 C2028 1.386 . S
C2032 C2027 1.490 . S
C2032 C2034 1.395 . S
C2032 C2035 1.403 . S
H2033 C2039 0.930 . S
C2034 H2020 0.930 . S
C2034 C2032 1.395 . S
C2034 C2037 1.403 . S
C2035 C2032 1.403 . S
C2035 C2036 1.524 . S
C2035 C2039 1.400 . S
C2036 H2021 0.960 . S
C2036 H2022 0.960 . S
C2036 H2023 0.960 . S
C2036 C2035 1.524 . S
C2037 C2034 1.403 . S
C2037 C2038 1.392 . S
C2037 C2041 1.495 . S
C2038 C2037 1.392 . S
C2038 C2039 1.385 . S
C2038 C2040 1.478 . S
C2039 H2033 0.930 . S
C2039 C2035 1.400 . S
C2039 C2038 1.385 . S
C2040 C2038 1.478 . S
C2040 C2042 1.381 . S
C2040 C2046 1.383 . S
C2041 C2037 1.495 . S
C2041 H2047 0.959 . S
C2041 H2048 0.961 . S
C2041 H2049 0.960 . S
C2042 C2040 1.381 . S
C2042 C2043 1.394 . S
C2042 H2050 0.930 . S
C2043 C2042 1.394 . S
C2043 C2044 1.383 . S
C2043 H2051 0.929 . S
C2044 C2043 1.383 . S
C2044 C2045 1.377 . S
C2045 H2029 0.930 . S
C2045 C2044 1.377 . S
C2045 C2046 1.379 . S
C2046 H2030 0.931 . S
C2046 C2040 1.383 . S
C2046 C2045 1.379 . S
H2047 C2041 0.959 . S
H2048 C2041 0.961 . S
H2049 C2041 0.960 . S
H2050 C2042 0.930 . S
H2051 C2043 0.929 . S
H2052 C2060 0.929 . S
H2053 C2062 0.930 . S
H2054 C2064 0.930 . S
H2055 C2067 0.929 . S
H2056 C2070 0.930 . S
H2057 C2072 0.960 . S
H2058 C2072 0.960 . S
H2059 C2072 0.960 . S
C2060 H2052 0.929 . S
C2060 C2061 1.377 . S
C2060 C2062 1.384 . S
C2061 C2060 1.377 . S
C2061 C2067 1.390 . S
C2062 H2053 0.930 . S
C2062 C2060 1.384 . S
C2062 C2063 1.372 . S
C2063 C2062 1.372 . S
C2063 C2064 1.400 . S
C2063 C2068 1.490 . S
C2064 H2054 0.930 . S
C2064 C2063 1.400 . S
C2064 C2067 1.386 . S
H2065 C2081 0.930 . S
H2066 C2082 0.931 . S
C2067 H2055 0.929 . S
C2067 C2061 1.390 . S
C2067 C2064 1.386 . S
C2068 C2063 1.490 . S
C2068 C2070 1.395 . S
C2068 C2071 1.403 . S
H2069 C2075 0.930 . S
C2070 H2056 0.930 . S
C2070 C2068 1.395 . S
C2070 C2073 1.403 . S
C2071 C2068 1.403 . S
C2071 C2072 1.524 . S
C2071 C2075 1.400 . S
C2072 H2057 0.960 . S
C2072 H2058 0.960 . S
C2072 H2059 0.960 . S
C2072 C2071 1.524 . S
C2073 C2070 1.403 . S
C2073 C2074 1.392 . S
C2073 C2077 1.495 . S
C2074 C2073 1.392 . S
C2074 C2075 1.385 . S
C2074 C2076 1.478 . S
C2075 H2069 0.930 . S
C2075 C2071 1.400 . S
C2075 C2074 1.385 . S
C2076 C2074 1.478 . S
C2076 C2078 1.381 . S
C2076 C2082 1.383 . S
C2077 C2073 1.495 . S
C2077 H2083 0.959 . S
C2077 H2084 0.961 . S
C2077 H2085 0.960 . S
C2078 C2076 1.381 . S
C2078 C2079 1.394 . S
C2078 H2086 0.930 . S
C2079 C2078 1.394 . S
C2079 C2080 1.383 . S
C2079 H2087 0.929 . S
C2080 C2079 1.383 . S
C2080 C2081 1.377 . S
C2081 H2065 0.930 . S
C2081 C2080 1.377 . S
C2081 C2082 1.379 . S
C2082 H2066 0.931 . S
C2082 C2076 1.383 . S
C2082 C2081 1.379 . S
H2083 C2077 0.959 . S
H2084 C2077 0.961 . S
H2085 C2077 0.960 . S
H2086 C2078 0.930 . S
H2087 C2079 0.929 . S
H2088 C2096 0.929 . S
H2089 C2098 0.930 . S
H2090 C2100 0.930 . S
H2091 C2103 0.929 . S
H2092 C2106 0.930 . S
H2093 C2108 0.960 . S
H2094 C2108 0.960 . S
H2095 C2108 0.960 . S
C2096 H2088 0.929 . S
C2096 C2097 1.377 . S
C2096 C2098 1.384 . S
C2097 C2096 1.377 . S
C2097 C2103 1.390 . S
C2098 H2089 0.930 . S
C2098 C2096 1.384 . S
C2098 C2099 1.372 . S
C2099 C2098 1.372 . S
C2099 C2100 1.400 . S
C2099 C2104 1.490 . S
C2100 H2090 0.930 . S
C2100 C2099 1.400 . S
C2100 C2103 1.386 . S
H2101 C2117 0.930 . S
H2102 C2118 0.931 . S
C2103 H2091 0.929 . S
C2103 C2097 1.390 . S
C2103 C2100 1.386 . S
C2104 C2099 1.490 . S
C2104 C2106 1.395 . S
C2104 C2107 1.403 . S
H2105 C2111 0.930 . S
C2106 H2092 0.930 . S
C2106 C2104 1.395 . S
C2106 C2109 1.403 . S
C2107 C2104 1.403 . S
C2107 C2108 1.524 . S
C2107 C2111 1.400 . S
C2108 H2093 0.960 . S
C2108 H2094 0.960 . S
C2108 H2095 0.960 . S
C2108 C2107 1.524 . S
C2109 C2106 1.403 . S
C2109 C2110 1.392 . S
C2109 C2113 1.495 . S
C2110 C2109 1.392 . S
C2110 C2111 1.385 . S
C2110 C2112 1.478 . S
C2111 H2105 0.930 . S
C2111 C2107 1.400 . S
C2111 C2110 1.385 . S
C2112 C2110 1.478 . S
C2112 C2114 1.381 . S
C2112 C2118 1.383 . S
C2113 C2109 1.495 . S
C2113 H2119 0.959 . S
C2113 H2120 0.961 . S
C2113 H2121 0.960 . S
C2114 C2112 1.381 . S
C2114 C2115 1.394 . S
C2114 H2122 0.930 . S
C2115 C2114 1.394 . S
C2115 C2116 1.383 . S
C2115 H2123 0.929 . S
C2116 C2115 1.383 . S
C2116 C2117 1.377 . S
C2117 H2101 0.930 . S
C2117 C2116 1.377 . S
C2117 C2118 1.379 . S
C2118 H2102 0.931 . S
C2118 C2112 1.383 . S
C2118 C2117 1.379 . S
H2119 C2113 0.959 . S
H2120 C2113 0.961 . S
H2121 C2113 0.960 . S
H2122 C2114 0.930 . S
H2123 C2115 0.929 . S
H2124 C2132 0.929 . S
H2125 C2134 0.930 . S
H2126 C2136 0.930 . S
H2127 C2139 0.929 . S
H2128 C2142 0.930 . S
H2129 C2144 0.960 . S
H2130 C2144 0.960 . S
H2131 C2144 0.960 . S
C2132 H2124 0.929 . S
C2132 C2133 1.377 . S
C2132 C2134 1.384 . S
C2133 C2132 1.377 . S
C2133 C2139 1.390 . S
C2134 H2125 0.930 . S
C2134 C2132 1.384 . S
C2134 C2135 1.372 . S
C2135 C2134 1.372 . S
C2135 C2136 1.400 . S
C2135 C2140 1.490 . S
C2136 H2126 0.930 . S
C2136 C2135 1.400 . S
C2136 C2139 1.386 . S
H2137 C2153 0.930 . S
H2138 C2154 0.931 . S
C2139 H2127 0.929 . S
C2139 C2133 1.390 . S
C2139 C2136 1.386 . S
C2140 C2135 1.490 . S
C2140 C2142 1.395 . S
C2140 C2143 1.403 . S
H2141 C2147 0.930 . S
C2142 H2128 0.930 . S
C2142 C2140 1.395 . S
C2142 C2145 1.403 . S
C2143 C2140 1.403 . S
C2143 C2144 1.524 . S
C2143 C2147 1.400 . S
C2144 H2129 0.960 . S
C2144 H2130 0.960 . S
C2144 H2131 0.960 . S
C2144 C2143 1.524 . S
C2145 C2142 1.403 . S
C2145 C2146 1.392 . S
C2145 C2149 1.495 . S
C2146 C2145 1.392 . S
C2146 C2147 1.385 . S
C2146 C2148 1.478 . S
C2147 H2141 0.930 . S
C2147 C2143 1.400 . S
C2147 C2146 1.385 . S
C2148 C2146 1.478 . S
C2148 C2150 1.381 . S
C2148 C2154 1.383 . S
C2149 C2145 1.495 . S
C2149 H2155 0.959 . S
C2149 H2156 0.961 . S
C2149 H2157 0.960 . S
C2150 C2148 1.381 . S
C2150 C2151 1.394 . S
C2150 H2158 0.930 . S
C2151 C2150 1.394 . S
C2151 C2152 1.383 . S
C2151 H2159 0.929 . S
C2152 C2151 1.383 . S
C2152 C2153 1.377 . S
C2153 H2137 0.930 . S
C2153 C2152 1.377 . S
C2153 C2154 1.379 . S
C2154 H2138 0.931 . S
C2154 C2148 1.383 . S
C2154 C2153 1.379 . S
H2155 C2149 0.959 . S
H2156 C2149 0.961 . S
H2157 C2149 0.960 . S
H2158 C2150 0.930 . S
H2159 C2151 0.929 . S
H2160 C2168 0.929 . S
H2161 C2170 0.930 . S
H2162 C2172 0.930 . S
H2163 C2175 0.929 . S
H2164 C2178 0.930 . S
H2165 C2180 0.960 . S
H2166 C2180 0.960 . S
H2167 C2180 0.960 . S
C2168 H2160 0.929 . S
C2168 C2169 1.377 . S
C2168 C2170 1.384 . S
C2169 C2168 1.377 . S
C2169 C2175 1.390 . S
C2170 H2161 0.930 . S
C2170 C2168 1.384 . S
C2170 C2171 1.372 . S
C2171 C2170 1.372 . S
C2171 C2172 1.400 . S
C2171 C2176 1.490 . S
C2172 H2162 0.930 . S
C2172 C2171 1.400 . S
C2172 C2175 1.386 . S
H2173 C2189 0.930 . S
H2174 C2190 0.931 . S
C2175 H2163 0.929 . S
C2175 C2169 1.390 . S
C2175 C2172 1.386 . S
C2176 C2171 1.490 . S
C2176 C2178 1.395 . S
C2176 C2179 1.403 . S
H2177 C2183 0.930 . S
C2178 H2164 0.930 . S
C2178 C2176 1.395 . S
C2178 C2181 1.403 . S
C2179 C2176 1.403 . S
C2179 C2180 1.524 . S
C2179 C2183 1.400 . S
C2180 H2165 0.960 . S
C2180 H2166 0.960 . S
C2180 H2167 0.960 . S
C2180 C2179 1.524 . S
C2181 C2178 1.403 . S
C2181 C2182 1.392 . S
C2181 C2185 1.495 . S
C2182 C2181 1.392 . S
C2182 C2183 1.385 . S
C2182 C2184 1.478 . S
C2183 H2177 0.930 . S
C2183 C2179 1.400 . S
C2183 C2182 1.385 . S
C2184 C2182 1.478 . S
C2184 C2186 1.381 . S
C2184 C2190 1.383 . S
C2185 C2181 1.495 . S
C2185 H2191 0.959 . S
C2185 H2192 0.961 . S
C2185 H2193 0.960 . S
C2186 C2184 1.381 . S
C2186 C2187 1.394 . S
C2186 H2194 0.930 . S
C2187 C2186 1.394 . S
C2187 C2188 1.383 . S
C2187 H2195 0.929 . S
C2188 C2187 1.383 . S
C2188 C2189 1.377 . S
C2189 H2173 0.930 . S
C2189 C2188 1.377 . S
C2189 C2190 1.379 . S
C2190 H2174 0.931 . S
C2190 C2184 1.383 . S
C2190 C2189 1.379 . S
H2191 C2185 0.959 . S
H2192 C2185 0.961 . S
H2193 C2185 0.960 . S
H2194 C2186 0.930 . S
H2195 C2187 0.929 . S
H2196 C2204 0.929 . S
H2197 C2206 0.930 . S
H2198 C2208 0.930 . S
H2199 C2211 0.929 . S
H2200 C2214 0.930 . S
H2201 C2216 0.960 . S
H2202 C2216 0.960 . S
H2203 C2216 0.960 . S
C2204 H2196 0.929 . S
C2204 C2205 1.377 . S
C2204 C2206 1.384 . S
C2205 C2204 1.377 . S
C2205 C2211 1.390 . S
C2206 H2197 0.930 . S
C2206 C2204 1.384 . S
C2206 C2207 1.372 . S
C2207 C2206 1.372 . S
C2207 C2208 1.400 . S
C2207 C2212 1.490 . S
C2208 H2198 0.930 . S
C2208 C2207 1.400 . S
C2208 C2211 1.386 . S
H2209 C2225 0.930 . S
H2210 C2226 0.931 . S
C2211 H2199 0.929 . S
C2211 C2205 1.390 . S
C2211 C2208 1.386 . S
C2212 C2207 1.490 . S
C2212 C2214 1.395 . S
C2212 C2215 1.403 . S
H2213 C2219 0.930 . S
C2214 H2200 0.930 . S
C2214 C2212 1.395 . S
C2214 C2217 1.403 . S
C2215 C2212 1.403 . S
C2215 C2216 1.524 . S
C2215 C2219 1.400 . S
C2216 H2201 0.960 . S
C2216 H2202 0.960 . S
C2216 H2203 0.960 . S
C2216 C2215 1.524 . S
C2217 C2214 1.403 . S
C2217 C2218 1.392 . S
C2217 C2221 1.495 . S
C2218 C2217 1.392 . S
C2218 C2219 1.385 . S
C2218 C2220 1.478 . S
C2219 H2213 0.930 . S
C2219 C2215 1.400 . S
C2219 C2218 1.385 . S
C2220 C2218 1.478 . S
C2220 C2222 1.381 . S
C2220 C2226 1.383 . S
C2221 C2217 1.495 . S
C2221 H2227 0.959 . S
C2221 H2228 0.961 . S
C2221 H2229 0.960 . S
C2222 C2220 1.381 . S
C2222 C2223 1.394 . S
C2222 H2230 0.930 . S
C2223 C2222 1.394 . S
C2223 C2224 1.383 . S
C2223 H2231 0.929 . S
C2224 C2223 1.383 . S
C2224 C2225 1.377 . S
C2225 H2209 0.930 . S
C2225 C2224 1.377 . S
C2225 C2226 1.379 . S
C2226 H2210 0.931 . S
C2226 C2220 1.383 . S
C2226 C2225 1.379 . S
H2227 C2221 0.959 . S
H2228 C2221 0.961 . S
H2229 C2221 0.960 . S
H2230 C2222 0.930 . S
H2231 C2223 0.929 . S
H2232 C2240 0.929 . S
H2233 C2242 0.930 . S
H2234 C2244 0.930 . S
H2235 C2247 0.929 . S
H2236 C2250 0.930 . S
H2237 C2252 0.960 . S
H2238 C2252 0.960 . S
H2239 C2252 0.960 . S
C2240 H2232 0.929 . S
C2240 C2241 1.377 . S
C2240 C2242 1.384 . S
C2241 C2240 1.377 . S
C2241 C2247 1.390 . S
C2242 H2233 0.930 . S
C2242 C2240 1.384 . S
C2242 C2243 1.372 . S
C2243 C2242 1.372 . S
C2243 C2244 1.400 . S
C2243 C2248 1.490 . S
C2244 H2234 0.930 . S
C2244 C2243 1.400 . S
C2244 C2247 1.386 . S
H2245 C2261 0.930 . S
H2246 C2262 0.931 . S
C2247 H2235 0.929 . S
C2247 C2241 1.390 . S
C2247 C2244 1.386 . S
C2248 C2243 1.490 . S
C2248 C2250 1.395 . S
C2248 C2251 1.403 . S
H2249 C2255 0.930 . S
C2250 H2236 0.930 . S
C2250 C2248 1.395 . S
C2250 C2253 1.403 . S
C2251 C2248 1.403 . S
C2251 C2252 1.524 . S
C2251 C2255 1.400 . S
C2252 H2237 0.960 . S
C2252 H2238 0.960 . S
C2252 H2239 0.960 . S
C2252 C2251 1.524 . S
C2253 C2250 1.403 . S
C2253 C2254 1.392 . S
C2253 C2257 1.495 . S
C2254 C2253 1.392 . S
C2254 C2255 1.385 . S
C2254 C2256 1.478 . S
C2255 H2249 0.930 . S
C2255 C2251 1.400 . S
C2255 C2254 1.385 . S
C2256 C2254 1.478 . S
C2256 C2258 1.381 . S
C2256 C2262 1.383 . S
C2257 C2253 1.495 . S
C2257 H2263 0.959 . S
C2257 H2264 0.961 . S
C2257 H2265 0.960 . S
C2258 C2256 1.381 . S
C2258 C2259 1.394 . S
C2258 H2266 0.930 . S
C2259 C2258 1.394 . S
C2259 C2260 1.383 . S
C2259 H2267 0.929 . S
C2260 C2259 1.383 . S
C2260 C2261 1.377 . S
C2261 H2245 0.930 . S
C2261 C2260 1.377 . S
C2261 C2262 1.379 . S
C2262 H2246 0.931 . S
C2262 C2256 1.383 . S
C2262 C2261 1.379 . S
H2263 C2257 0.959 . S
H2264 C2257 0.961 . S
H2265 C2257 0.960 . S
H2266 C2258 0.930 . S
H2267 C2259 0.929 . S
H2268 C2276 0.929 . S
H2269 C2278 0.930 . S
H2270 C2280 0.930 . S
H2271 C2283 0.929 . S
H2272 C2286 0.930 . S
H2273 C2288 0.960 . S
H2274 C2288 0.960 . S
H2275 C2288 0.960 . S
C2276 H2268 0.929 . S
C2276 C2277 1.377 . S
C2276 C2278 1.384 . S
C2277 C2276 1.377 . S
C2277 C2283 1.390 . S
C2278 H2269 0.930 . S
C2278 C2276 1.384 . S
C2278 C2279 1.372 . S
C2279 C2278 1.372 . S
C2279 C2280 1.400 . S
C2279 C2284 1.490 . S
C2280 H2270 0.930 . S
C2280 C2279 1.400 . S
C2280 C2283 1.386 . S
H2281 C2297 0.930 . S
H2282 C2298 0.931 . S
C2283 H2271 0.929 . S
C2283 C2277 1.390 . S
C2283 C2280 1.386 . S
C2284 C2279 1.490 . S
C2284 C2286 1.395 . S
C2284 C2287 1.403 . S
H2285 C2291 0.930 . S
C2286 H2272 0.930 . S
C2286 C2284 1.395 . S
C2286 C2289 1.403 . S
C2287 C2284 1.403 . S
C2287 C2288 1.524 . S
C2287 C2291 1.400 . S
C2288 H2273 0.960 . S
C2288 H2274 0.960 . S
C2288 H2275 0.960 . S
C2288 C2287 1.524 . S
C2289 C2286 1.403 . S
C2289 C2290 1.392 . S
C2289 C2293 1.495 . S
C2290 C2289 1.392 . S
C2290 C2291 1.385 . S
C2290 C2292 1.478 . S
C2291 H2285 0.930 . S
C2291 C2287 1.400 . S
C2291 C2290 1.385 . S
C2292 C2290 1.478 . S
C2292 C2294 1.381 . S
C2292 C2298 1.383 . S
C2293 C2289 1.495 . S
C2293 H2299 0.959 . S
C2293 H2300 0.961 . S
C2293 H2301 0.960 . S
C2294 C2292 1.381 . S
C2294 C2295 1.394 . S
C2294 H2302 0.930 . S
C2295 C2294 1.394 . S
C2295 C2296 1.383 . S
C2295 H2303 0.929 . S
C2296 C2295 1.383 . S
C2296 C2297 1.377 . S
C2297 H2281 0.930 . S
C2297 C2296 1.377 . S
C2297 C2298 1.379 . S
C2298 H2282 0.931 . S
C2298 C2292 1.383 . S
C2298 C2297 1.379 . S
H2299 C2293 0.959 . S
H2300 C2293 0.961 . S
H2301 C2293 0.960 . S
H2302 C2294 0.930 . S
H2303 C2295 0.929 . S
H2304 C2312 0.929 . S
H2305 C2314 0.930 . S
H2306 C2316 0.930 . S
H2307 C2319 0.929 . S
H2308 C2322 0.930 . S
H2309 C2324 0.960 . S
H2310 C2324 0.960 . S
H2311 C2324 0.960 . S
C2312 H2304 0.929 . S
C2312 C2313 1.377 . S
C2312 C2314 1.384 . S
C2313 C2312 1.377 . S
C2313 C2319 1.390 . S
C2314 H2305 0.930 . S
C2314 C2312 1.384 . S
C2314 C2315 1.372 . S
C2315 C2314 1.372 . S
C2315 C2316 1.400 . S
C2315 C2320 1.490 . S
C2316 H2306 0.930 . S
C2316 C2315 1.400 . S
C2316 C2319 1.386 . S
H2317 C2333 0.930 . S
H2318 C2334 0.931 . S
C2319 H2307 0.929 . S
C2319 C2313 1.390 . S
C2319 C2316 1.386 . S
C2320 C2315 1.490 . S
C2320 C2322 1.395 . S
C2320 C2323 1.403 . S
H2321 C2327 0.930 . S
C2322 H2308 0.930 . S
C2322 C2320 1.395 . S
C2322 C2325 1.403 . S
C2323 C2320 1.403 . S
C2323 C2324 1.524 . S
C2323 C2327 1.400 . S
C2324 H2309 0.960 . S
C2324 H2310 0.960 . S
C2324 H2311 0.960 . S
C2324 C2323 1.524 . S
C2325 C2322 1.403 . S
C2325 C2326 1.392 . S
C2325 C2329 1.495 . S
C2326 C2325 1.392 . S
C2326 C2327 1.385 . S
C2326 C2328 1.478 . S
C2327 H2321 0.930 . S
C2327 C2323 1.400 . S
C2327 C2326 1.385 . S
C2328 C2326 1.478 . S
C2328 C2330 1.381 . S
C2328 C2334 1.383 . S
C2329 C2325 1.495 . S
C2329 H2335 0.959 . S
C2329 H2336 0.961 . S
C2329 H2337 0.960 . S
C2330 C2328 1.381 . S
C2330 C2331 1.394 . S
C2330 H2338 0.930 . S
C2331 C2330 1.394 . S
C2331 C2332 1.383 . S
C2331 H2339 0.929 . S
C2332 C2331 1.383 . S
C2332 C2333 1.377 . S
C2333 H2317 0.930 . S
C2333 C2332 1.377 . S
C2333 C2334 1.379 . S
C2334 H2318 0.931 . S
C2334 C2328 1.383 . S
C2334 C2333 1.379 . S
H2335 C2329 0.959 . S
H2336 C2329 0.961 . S
H2337 C2329 0.960 . S
H2338 C2330 0.930 . S
H2339 C2331 0.929 . S
H2340 C2348 0.929 . S
H2341 C2350 0.930 . S
H2342 C2352 0.930 . S
H2343 C2355 0.929 . S
H2344 C2358 0.930 . S
H2345 C2360 0.960 . S
H2346 C2360 0.960 . S
H2347 C2360 0.960 . S
C2348 H2340 0.929 . S
C2348 C2349 1.377 . S
C2348 C2350 1.384 . S
C2349 C2348 1.377 . S
C2349 C2355 1.390 . S
C2350 H2341 0.930 . S
C2350 C2348 1.384 . S
C2350 C2351 1.372 . S
C2351 C2350 1.372 . S
C2351 C2352 1.400 . S
C2351 C2356 1.490 . S
C2352 H2342 0.930 . S
C2352 C2351 1.400 . S
C2352 C2355 1.386 . S
H2353 C2369 0.930 . S
H2354 C2370 0.931 . S
C2355 H2343 0.929 . S
C2355 C2349 1.390 . S
C2355 C2352 1.386 . S
C2356 C2351 1.490 . S
C2356 C2358 1.395 . S
C2356 C2359 1.403 . S
H2357 C2363 0.930 . S
C2358 H2344 0.930 . S
C2358 C2356 1.395 . S
C2358 C2361 1.403 . S
C2359 C2356 1.403 . S
C2359 C2360 1.524 . S
C2359 C2363 1.400 . S
C2360 H2345 0.960 . S
C2360 H2346 0.960 . S
C2360 H2347 0.960 . S
C2360 C2359 1.524 . S
C2361 C2358 1.403 . S
C2361 C2362 1.392 . S
C2361 C2365 1.495 . S
C2362 C2361 1.392 . S
C2362 C2363 1.385 . S
C2362 C2364 1.478 . S
C2363 H2357 0.930 . S
C2363 C2359 1.400 . S
C2363 C2362 1.385 . S
C2364 C2362 1.478 . S
C2364 C2366 1.381 . S
C2364 C2370 1.383 . S
C2365 C2361 1.495 . S
C2365 H2371 0.959 . S
C2365 H2372 0.961 . S
C2365 H2373 0.960 . S
C2366 C2364 1.381 . S
C2366 C2367 1.394 . S
C2366 H2374 0.930 . S
C2367 C2366 1.394 . S
C2367 C2368 1.383 . S
C2367 H2375 0.929 . S
C2368 C2367 1.383 . S
C2368 C2369 1.377 . S
C2369 H2353 0.930 . S
C2369 C2368 1.377 . S
C2369 C2370 1.379 . S
C2370 H2354 0.931 . S
C2370 C2364 1.383 . S
C2370 C2369 1.379 . S
H2371 C2365 0.959 . S
H2372 C2365 0.961 . S
H2373 C2365 0.960 . S
H2374 C2366 0.930 . S
H2375 C2367 0.929 . S
H2376 C2384 0.929 . S
H2377 C2386 0.930 . S
H2378 C2388 0.930 . S
H2379 C2391 0.929 . S
H2380 C2394 0.930 . S
H2381 C2396 0.960 . S
H2382 C2396 0.960 . S
H2383 C2396 0.960 . S
C2384 H2376 0.929 . S
C2384 C2385 1.377 . S
C2384 C2386 1.384 . S
C2385 C2384 1.377 . S
C2385 C2391 1.390 . S
C2386 H2377 0.930 . S
C2386 C2384 1.384 . S
C2386 C2387 1.372 . S
C2387 C2386 1.372 . S
C2387 C2388 1.400 . S
C2387 C2392 1.490 . S
C2388 H2378 0.930 . S
C2388 C2387 1.400 . S
C2388 C2391 1.386 . S
H2389 C2405 0.930 . S
H2390 C2406 0.931 . S
C2391 H2379 0.929 . S
C2391 C2385 1.390 . S
C2391 C2388 1.386 . S
C2392 C2387 1.490 . S
C2392 C2394 1.395 . S
C2392 C2395 1.403 . S
H2393 C2399 0.930 . S
C2394 H2380 0.930 . S
C2394 C2392 1.395 . S
C2394 C2397 1.403 . S
C2395 C2392 1.403 . S
C2395 C2396 1.524 . S
C2395 C2399 1.400 . S
C2396 H2381 0.960 . S
C2396 H2382 0.960 . S
C2396 H2383 0.960 . S
C2396 C2395 1.524 . S
C2397 C2394 1.403 . S
C2397 C2398 1.392 . S
C2397 C2401 1.495 . S
C2398 C2397 1.392 . S
C2398 C2399 1.385 . S
C2398 C2400 1.478 . S
C2399 H2393 0.930 . S
C2399 C2395 1.400 . S
C2399 C2398 1.385 . S
C2400 C2398 1.478 . S
C2400 C2402 1.381 . S
C2400 C2406 1.383 . S
C2401 C2397 1.495 . S
C2401 H2407 0.959 . S
C2401 H2408 0.961 . S
C2401 H2409 0.960 . S
C2402 C2400 1.381 . S
C2402 C2403 1.394 . S
C2402 H2410 0.930 . S
C2403 C2402 1.394 . S
C2403 C2404 1.383 . S
C2403 H2411 0.929 . S
C2404 C2403 1.383 . S
C2404 C2405 1.377 . S
C2405 H2389 0.930 . S
C2405 C2404 1.377 . S
C2405 C2406 1.379 . S
C2406 H2390 0.931 . S
C2406 C2400 1.383 . S
C2406 C2405 1.379 . S
H2407 C2401 0.959 . S
H2408 C2401 0.961 . S
H2409 C2401 0.960 . S
H2410 C2402 0.930 . S
H2411 C2403 0.929 . S
H2412 C2420 0.929 . S
H2413 C2422 0.930 . S
H2414 C2424 0.930 . S
H2415 C2427 0.929 . S
H2416 C2430 0.930 . S
H2417 C2432 0.960 . S
H2418 C2432 0.960 . S
H2419 C2432 0.960 . S
C2420 H2412 0.929 . S
C2420 C2421 1.377 . S
C2420 C2422 1.384 . S
C2421 C2420 1.377 . S
C2421 C2427 1.390 . S
C2422 H2413 0.930 . S
C2422 C2420 1.384 . S
C2422 C2423 1.372 . S
C2423 C2422 1.372 . S
C2423 C2424 1.400 . S
C2423 C2428 1.490 . S
C2424 H2414 0.930 . S
C2424 C2423 1.400 . S
C2424 C2427 1.386 . S
H2425 C2441 0.930 . S
H2426 C2442 0.931 . S
C2427 H2415 0.929 . S
C2427 C2421 1.390 . S
C2427 C2424 1.386 . S
C2428 C2423 1.490 . S
C2428 C2430 1.395 . S
C2428 C2431 1.403 . S
H2429 C2435 0.930 . S
C2430 H2416 0.930 . S
C2430 C2428 1.395 . S
C2430 C2433 1.403 . S
C2431 C2428 1.403 . S
C2431 C2432 1.524 . S
C2431 C2435 1.400 . S
C2432 H2417 0.960 . S
C2432 H2418 0.960 . S
C2432 H2419 0.960 . S
C2432 C2431 1.524 . S
C2433 C2430 1.403 . S
C2433 C2434 1.392 . S
C2433 C2437 1.495 . S
C2434 C2433 1.392 . S
C2434 C2435 1.385 . S
C2434 C2436 1.478 . S
C2435 H2429 0.930 . S
C2435 C2431 1.400 . S
C2435 C2434 1.385 . S
C2436 C2434 1.478 . S
C2436 C2438 1.381 . S
C2436 C2442 1.383 . S
C2437 C2433 1.495 . S
C2437 H2443 0.959 . S
C2437 H2444 0.961 . S
C2437 H2445 0.960 . S
C2438 C2436 1.381 . S
C2438 C2439 1.394 . S
C2438 H2446 0.930 . S
C2439 C2438 1.394 . S
C2439 C2440 1.383 . S
C2439 H2447 0.929 . S
C2440 C2439 1.383 . S
C2440 C2441 1.377 . S
C2441 H2425 0.930 . S
C2441 C2440 1.377 . S
C2441 C2442 1.379 . S
C2442 H2426 0.931 . S
C2442 C2436 1.383 . S
C2442 C2441 1.379 . S
H2443 C2437 0.959 . S
H2444 C2437 0.961 . S
H2445 C2437 0.960 . S
H2446 C2438 0.930 . S
H2447 C2439 0.929 . S
H2448 C2456 0.929 . S
H2449 C2458 0.930 . S
H2450 C2460 0.930 . S
H2451 C2463 0.929 . S
H2452 C2466 0.930 . S
H2453 C2468 0.960 . S
H2454 C2468 0.960 . S
H2455 C2468 0.960 . S
C2456 H2448 0.929 . S
C2456 C2457 1.377 . S
C2456 C2458 1.384 . S
C2457 C2456 1.377 . S
C2457 C2463 1.390 . S
C2458 H2449 0.930 . S
C2458 C2456 1.384 . S
C2458 C2459 1.372 . S
C2459 C2458 1.372 . S
C2459 C2460 1.400 . S
C2459 C2464 1.490 . S
C2460 H2450 0.930 . S
C2460 C2459 1.400 . S
C2460 C2463 1.386 . S
H2461 C2477 0.930 . S
H2462 C2478 0.931 . S
C2463 H2451 0.929 . S
C2463 C2457 1.390 . S
C2463 C2460 1.386 . S
C2464 C2459 1.490 . S
C2464 C2466 1.395 . S
C2464 C2467 1.403 . S
H2465 C2471 0.930 . S
C2466 H2452 0.930 . S
C2466 C2464 1.395 . S
C2466 C2469 1.403 . S
C2467 C2464 1.403 . S
C2467 C2468 1.524 . S
C2467 C2471 1.400 . S
C2468 H2453 0.960 . S
C2468 H2454 0.960 . S
C2468 H2455 0.960 . S
C2468 C2467 1.524 . S
C2469 C2466 1.403 . S
C2469 C2470 1.392 . S
C2469 C2473 1.495 . S
C2470 C2469 1.392 . S
C2470 C2471 1.385 . S
C2470 C2472 1.478 . S
C2471 H2465 0.930 . S
C2471 C2467 1.400 . S
C2471 C2470 1.385 . S
C2472 C2470 1.478 . S
C2472 C2474 1.381 . S
C2472 C2478 1.383 . S
C2473 C2469 1.495 . S
C2473 H2479 0.959 . S
C2473 H2480 0.961 . S
C2473 H2481 0.960 . S
C2474 C2472 1.381 . S
C2474 C2475 1.394 . S
C2474 H2482 0.930 . S
C2475 C2474 1.394 . S
C2475 C2476 1.383 . S
C2475 H2483 0.929 . S
C2476 C2475 1.383 . S
C2476 C2477 1.377 . S
C2477 H2461 0.930 . S
C2477 C2476 1.377 . S
C2477 C2478 1.379 . S
C2478 H2462 0.931 . S
C2478 C2472 1.383 . S
C2478 C2477 1.379 . S
H2479 C2473 0.959 . S
H2480 C2473 0.961 . S
H2481 C2473 0.960 . S
H2482 C2474 0.930 . S
H2483 C2475 0.929 . S
H2484 C2492 0.929 . S
H2485 C2494 0.930 . S
H2486 C2496 0.930 . S
H2487 C2499 0.929 . S
H2488 C2502 0.930 . S
H2489 C2504 0.960 . S
H2490 C2504 0.960 . S
H2491 C2504 0.960 . S
C2492 H2484 0.929 . S
C2492 C2493 1.377 . S
C2492 C2494 1.384 . S
C2493 C2492 1.377 . S
C2493 C2499 1.390 . S
C2494 H2485 0.930 . S
C2494 C2492 1.384 . S
C2494 C2495 1.372 . S
C2495 C2494 1.372 . S
C2495 C2496 1.400 . S
C2495 C2500 1.490 . S
C2496 H2486 0.930 . S
C2496 C2495 1.400 . S
C2496 C2499 1.386 . S
H2497 C2513 0.930 . S
H2498 C2514 0.931 . S
C2499 H2487 0.929 . S
C2499 C2493 1.390 . S
C2499 C2496 1.386 . S
C2500 C2495 1.490 . S
C2500 C2502 1.395 . S
C2500 C2503 1.403 . S
H2501 C2507 0.930 . S
C2502 H2488 0.930 . S
C2502 C2500 1.395 . S
C2502 C2505 1.403 . S
C2503 C2500 1.403 . S
C2503 C2504 1.524 . S
C2503 C2507 1.400 . S
C2504 H2489 0.960 . S
C2504 H2490 0.960 . S
C2504 H2491 0.960 . S
C2504 C2503 1.524 . S
C2505 C2502 1.403 . S
C2505 C2506 1.392 . S
C2505 C2509 1.495 . S
C2506 C2505 1.392 . S
C2506 C2507 1.385 . S
C2506 C2508 1.478 . S
C2507 H2501 0.930 . S
C2507 C2503 1.400 . S
C2507 C2506 1.385 . S
C2508 C2506 1.478 . S
C2508 C2510 1.381 . S
C2508 C2514 1.383 . S
C2509 C2505 1.495 . S
C2509 H2515 0.959 . S
C2509 H2516 0.961 . S
C2509 H2517 0.960 . S
C2510 C2508 1.381 . S
C2510 C2511 1.394 . S
C2510 H2518 0.930 . S
C2511 C2510 1.394 . S
C2511 C2512 1.383 . S
C2511 H2519 0.929 . S
C2512 C2511 1.383 . S
C2512 C2513 1.377 . S
C2513 H2497 0.930 . S
C2513 C2512 1.377 . S
C2513 C2514 1.379 . S
C2514 H2498 0.931 . S
C2514 C2508 1.383 . S
C2514 C2513 1.379 . S
H2515 C2509 0.959 . S
H2516 C2509 0.961 . S
H2517 C2509 0.960 . S
H2518 C2510 0.930 . S
H2519 C2511 0.929 . S
H2520 C2528 0.929 . S
H2521 C2530 0.930 . S
H2522 C2532 0.930 . S
H2523 C2535 0.929 . S
H2524 C2538 0.930 . S
H2525 C2540 0.960 . S
H2526 C2540 0.960 . S
H2527 C2540 0.960 . S
C2528 H2520 0.929 . S
C2528 C2529 1.377 . S
C2528 C2530 1.384 . S
C2529 C2528 1.377 . S
C2529 C2535 1.390 . S
C2530 H2521 0.930 . S
C2530 C2528 1.384 . S
C2530 C2531 1.372 . S
C2531 C2530 1.372 . S
C2531 C2532 1.400 . S
C2531 C2536 1.490 . S
C2532 H2522 0.930 . S
C2532 C2531 1.400 . S
C2532 C2535 1.386 . S
H2533 C2549 0.930 . S
H2534 C2550 0.931 . S
C2535 H2523 0.929 . S
C2535 C2529 1.390 . S
C2535 C2532 1.386 . S
C2536 C2531 1.490 . S
C2536 C2538 1.395 . S
C2536 C2539 1.403 . S
H2537 C2543 0.930 . S
C2538 H2524 0.930 . S
C2538 C2536 1.395 . S
C2538 C2541 1.403 . S
C2539 C2536 1.403 . S
C2539 C2540 1.524 . S
C2539 C2543 1.400 . S
C2540 H2525 0.960 . S
C2540 H2526 0.960 . S
C2540 H2527 0.960 . S
C2540 C2539 1.524 . S
C2541 C2538 1.403 . S
C2541 C2542 1.392 . S
C2541 C2545 1.495 . S
C2542 C2541 1.392 . S
C2542 C2543 1.385 . S
C2542 C2544 1.478 . S
C2543 H2537 0.930 . S
C2543 C2539 1.400 . S
C2543 C2542 1.385 . S
C2544 C2542 1.478 . S
C2544 C2546 1.381 . S
C2544 C2550 1.383 . S
C2545 C2541 1.495 . S
C2545 H2551 0.959 . S
C2545 H2552 0.961 . S
C2545 H2553 0.960 . S
C2546 C2544 1.381 . S
C2546 C2547 1.394 1_565 S
C2546 H2554 0.930 . S
C2547 C2546 1.394 1_545 S
C2547 C2548 1.383 1_545 S
C2547 H2555 0.929 . S
C2548 C2547 1.383 1_565 S
C2548 C2549 1.377 . S
C2549 H2533 0.930 . S
C2549 C2548 1.377 . S
C2549 C2550 1.379 . S
C2550 H2534 0.931 . S
C2550 C2544 1.383 . S
C2550 C2549 1.379 . S
H2551 C2545 0.959 . S
H2552 C2545 0.961 . S
H2553 C2545 0.960 . S
H2554 C2546 0.930 . S
H2555 C2547 0.929 . S
H2556 C2564 0.929 . S
H2557 C2566 0.930 . S
H2558 C2568 0.930 . S
H2559 C2571 0.929 . S
H2560 C2574 0.930 . S
H2561 C2576 0.960 . S
H2562 C2576 0.960 . S
H2563 C2576 0.960 . S
C2564 H2556 0.929 . S
C2564 C2565 1.377 . S
C2564 C2566 1.384 . S
C2565 C2564 1.377 . S
C2565 C2571 1.390 . S
C2566 H2557 0.930 . S
C2566 C2564 1.384 . S
C2566 C2567 1.372 . S
C2567 C2566 1.372 . S
C2567 C2568 1.400 . S
C2567 C2572 1.490 . S
C2568 H2558 0.930 . S
C2568 C2567 1.400 . S
C2568 C2571 1.386 . S
H2569 C2585 0.930 . S
H2570 C2586 0.931 . S
C2571 H2559 0.929 . S
C2571 C2565 1.390 . S
C2571 C2568 1.386 . S
C2572 C2567 1.490 . S
C2572 C2574 1.395 . S
C2572 C2575 1.403 . S
H2573 C2579 0.930 . S
C2574 H2560 0.930 . S
C2574 C2572 1.395 . S
C2574 C2577 1.403 . S
C2575 C2572 1.403 . S
C2575 C2576 1.524 . S
C2575 C2579 1.400 . S
C2576 H2561 0.960 . S
C2576 H2562 0.960 . S
C2576 H2563 0.960 . S
C2576 C2575 1.524 . S
C2577 C2574 1.403 . S
C2577 C2578 1.392 . S
C2577 C2581 1.495 . S
C2578 C2577 1.392 . S
C2578 C2579 1.385 . S
C2578 C2580 1.478 . S
C2579 H2573 0.930 . S
C2579 C2575 1.400 . S
C2579 C2578 1.385 . S
C2580 C2578 1.478 . S
C2580 C2582 1.381 . S
C2580 C2586 1.383 . S
C2581 C2577 1.495 . S
C2581 H2587 0.959 . S
C2581 H2588 0.961 . S
C2581 H2589 0.960 . S
C2582 C2580 1.381 . S
C2582 C2583 1.394 1_455 S
C2582 H2590 0.924 1_455 S
C2583 C2582 1.394 1_655 S
C2583 C2584 1.383 1_655 S
C2583 H2591 0.929 . S
C2584 C2583 1.383 1_455 S
C2584 C2585 1.377 . S
C2585 H2569 0.930 . S
C2585 C2584 1.377 . S
C2585 C2586 1.379 . S
C2586 H2570 0.931 . S
C2586 C2580 1.383 . S
C2586 C2585 1.379 . S
H2587 C2581 0.959 . S
H2588 C2581 0.961 . S
H2589 C2581 0.960 . S
H2590 C2582 0.924 1_655 S
H2591 C2583 0.929 . S
H2592 C2600 0.929 . S
H2593 C2602 0.930 . S
H2594 C2604 0.930 . S
H2595 C2607 0.929 . S
H2596 C2610 0.930 . S
H2597 C2612 0.960 . S
H2598 C2612 0.960 . S
H2599 C2612 0.960 . S
C2600 H2592 0.929 . S
C2600 C2601 1.377 . S
C2600 C2602 1.384 . S
C2601 C2600 1.377 . S
C2601 C2607 1.390 . S
C2602 H2593 0.930 . S
C2602 C2600 1.384 . S
C2602 C2603 1.372 . S
C2603 C2602 1.372 . S
C2603 C2604 1.400 . S
C2603 C2608 1.490 . S
C2604 H2594 0.930 . S
C2604 C2603 1.400 . S
C2604 C2607 1.386 . S
H2605 C2621 0.930 . S
H2606 C2622 0.931 . S
C2607 H2595 0.929 . S
C2607 C2601 1.390 . S
C2607 C2604 1.386 . S
C2608 C2603 1.490 . S
C2608 C2610 1.395 . S
C2608 C2611 1.403 . S
H2609 C2615 0.930 . S
C2610 H2596 0.930 . S
C2610 C2608 1.395 . S
C2610 C2613 1.403 . S
C2611 C2608 1.403 . S
C2611 C2612 1.524 . S
C2611 C2615 1.400 . S
C2612 H2597 0.960 . S
C2612 H2598 0.960 . S
C2612 H2599 0.960 . S
C2612 C2611 1.524 . S
C2613 C2610 1.403 . S
C2613 C2614 1.392 . S
C2613 C2617 1.495 . S
C2614 C2613 1.392 . S
C2614 C2615 1.385 . S
C2614 C2616 1.478 . S
C2615 H2609 0.930 . S
C2615 C2611 1.400 . S
C2615 C2614 1.385 . S
C2616 C2614 1.478 . S
C2616 C2618 1.381 . S
C2616 C2622 1.383 . S
C2617 C2613 1.495 . S
C2617 H2623 0.959 . S
C2617 H2624 0.961 . S
C2617 H2625 0.960 . S
C2618 C2616 1.381 . S
C2618 C2619 1.394 . S
C2618 H2626 0.930 . S
C2619 C2618 1.394 . S
C2619 C2620 1.383 . S
C2619 H2627 0.929 . S
C2620 C2619 1.383 . S
C2620 C2621 1.377 . S
C2621 H2605 0.930 . S
C2621 C2620 1.377 . S
C2621 C2622 1.379 . S
C2622 H2606 0.931 . S
C2622 C2616 1.383 . S
C2622 C2621 1.379 . S
H2623 C2617 0.959 . S
H2624 C2617 0.961 . S
H2625 C2617 0.960 . S
H2626 C2618 0.930 . S
H2627 C2619 0.929 . S
H2628 C2636 0.929 . S
H2629 C2638 0.930 . S
H2630 C2640 0.930 . S
H2631 C2643 0.929 . S
H2632 C2646 0.930 . S
H2633 C2648 0.960 . S
H2634 C2648 0.960 . S
H2635 C2648 0.960 . S
C2636 H2628 0.929 . S
C2636 C2637 1.377 . S
C2636 C2638 1.384 . S
C2637 C2636 1.377 . S
C2637 C2643 1.390 1_545 S
C2638 H2629 0.930 . S
C2638 C2636 1.384 . S
C2638 C2639 1.372 . S
C2639 C2638 1.372 . S
C2639 C2640 1.400 . S
C2639 C2644 1.490 . S
C2640 H2630 0.930 . S
C2640 C2639 1.400 . S
C2640 C2643 1.386 1_545 S
H2641 C2657 0.930 . S
H2642 C2658 0.931 . S
C2643 H2631 0.929 . S
C2643 C2637 1.390 1_565 S
C2643 C2640 1.386 1_565 S
C2644 C2639 1.490 . S
C2644 C2646 1.395 . S
C2644 C2647 1.403 . S
H2645 C2651 0.930 . S
C2646 H2632 0.930 . S
C2646 C2644 1.395 . S
C2646 C2649 1.403 . S
C2647 C2644 1.403 . S
C2647 C2648 1.524 . S
C2647 C2651 1.400 . S
C2648 H2633 0.960 . S
C2648 H2634 0.960 . S
C2648 H2635 0.960 . S
C2648 C2647 1.524 . S
C2649 C2646 1.403 . S
C2649 C2650 1.392 . S
C2649 C2653 1.495 . S
C2650 C2649 1.392 . S
C2650 C2651 1.385 . S
C2650 C2652 1.478 . S
C2651 H2645 0.930 . S
C2651 C2647 1.400 . S
C2651 C2650 1.385 . S
C2652 C2650 1.478 . S
C2652 C2654 1.381 . S
C2652 C2658 1.383 . S
C2653 C2649 1.495 . S
C2653 H2659 0.959 . S
C2653 H2660 0.961 . S
C2653 H2661 0.960 . S
C2654 C2652 1.381 . S
C2654 C2655 1.394 . S
C2654 H2662 0.930 . S
C2655 C2654 1.394 . S
C2655 C2656 1.383 . S
C2655 H2663 0.929 . S
C2656 C2655 1.383 . S
C2656 C2657 1.377 . S
C2657 H2641 0.930 . S
C2657 C2656 1.377 . S
C2657 C2658 1.379 . S
C2658 H2642 0.931 . S
C2658 C2652 1.383 . S
C2658 C2657 1.379 . S
H2659 C2653 0.959 . S
H2660 C2653 0.961 . S
H2661 C2653 0.960 . S
H2662 C2654 0.930 . S
H2663 C2655 0.929 . S
H2664 C2672 0.929 . S
H2665 C2674 0.930 . S
H2666 C2676 0.930 . S
H2667 C2679 0.929 . S
H2668 C2682 0.930 . S
H2669 C2684 0.960 . S
H2670 C2684 0.960 . S
H2671 C2684 0.960 . S
C2672 H2664 0.929 . S
C2672 C2673 1.377 . S
C2672 C2674 1.384 . S
C2673 C2672 1.377 . S
C2673 C2679 1.390 . S
C2674 H2665 0.930 . S
C2674 C2672 1.384 . S
C2674 C2675 1.372 . S
C2675 C2674 1.372 . S
C2675 C2676 1.400 . S
C2675 C2680 1.490 . S
C2676 H2666 0.930 . S
C2676 C2675 1.400 . S
C2676 C2679 1.386 . S
H2677 C2693 0.930 . S
H2678 C2694 0.931 . S
C2679 H2667 0.929 . S
C2679 C2673 1.390 . S
C2679 C2676 1.386 . S
C2680 C2675 1.490 . S
C2680 C2682 1.395 . S
C2680 C2683 1.403 . S
H2681 C2687 0.930 . S
C2682 H2668 0.930 . S
C2682 C2680 1.395 . S
C2682 C2685 1.403 . S
C2683 C2680 1.403 . S
C2683 C2684 1.524 . S
C2683 C2687 1.400 . S
C2684 H2669 0.960 . S
C2684 H2670 0.960 . S
C2684 H2671 0.960 . S
C2684 C2683 1.524 . S
C2685 C2682 1.403 . S
C2685 C2686 1.392 . S
C2685 C2689 1.495 . S
C2686 C2685 1.392 . S
C2686 C2687 1.385 . S
C2686 C2688 1.478 . S
C2687 H2681 0.930 . S
C2687 C2683 1.400 . S
C2687 C2686 1.385 . S
C2688 C2686 1.478 . S
C2688 C2690 1.381 . S
C2688 C2694 1.383 . S
C2689 C2685 1.495 . S
C2689 H2695 0.959 . S
C2689 H2696 0.961 . S
C2689 H2697 0.960 . S
C2690 C2688 1.381 . S
C2690 C2691 1.394 . S
C2690 H2698 0.930 . S
C2691 C2690 1.394 . S
C2691 C2692 1.383 . S
C2691 H2699 0.929 1_655 S
C2692 C2691 1.383 . S
C2692 C2693 1.377 . S
C2693 H2677 0.930 . S
C2693 C2692 1.377 . S
C2693 C2694 1.379 . S
C2694 H2678 0.931 . S
C2694 C2688 1.383 . S
C2694 C2693 1.379 . S
H2695 C2689 0.959 . S
H2696 C2689 0.961 . S
H2697 C2689 0.960 . S
H2698 C2690 0.930 . S
H2699 C2691 0.929 1_455 S
H2700 C2708 0.929 . S
H2701 C2710 0.930 . S
H2702 C2712 0.930 . S
H2703 C2715 0.929 . S
H2704 C2718 0.930 . S
H2705 C2720 0.960 . S
H2706 C2720 0.960 . S
H2707 C2720 0.960 . S
C2708 H2700 0.929 . S
C2708 C2709 1.377 . S
C2708 C2710 1.384 . S
C2709 C2708 1.377 . S
C2709 C2715 1.390 . S
C2710 H2701 0.930 . S
C2710 C2708 1.384 . S
C2710 C2711 1.372 . S
C2711 C2710 1.372 . S
C2711 C2712 1.400 . S
C2711 C2716 1.490 . S
C2712 H2702 0.930 . S
C2712 C2711 1.400 . S
C2712 C2715 1.386 . S
H2713 C2729 0.930 . S
H2714 C2730 0.931 . S
C2715 H2703 0.929 . S
C2715 C2709 1.390 . S
C2715 C2712 1.386 . S
C2716 C2711 1.490 . S
C2716 C2718 1.395 . S
C2716 C2719 1.403 . S
H2717 C2723 0.930 . S
C2718 H2704 0.930 . S
C2718 C2716 1.395 . S
C2718 C2721 1.403 . S
C2719 C2716 1.403 . S
C2719 C2720 1.524 . S
C2719 C2723 1.400 . S
C2720 H2705 0.960 . S
C2720 H2706 0.960 . S
C2720 H2707 0.960 . S
C2720 C2719 1.524 . S
C2721 C2718 1.403 . S
C2721 C2722 1.392 . S
C2721 C2725 1.495 . S
C2722 C2721 1.392 . S
C2722 C2723 1.385 . S
C2722 C2724 1.478 . S
C2723 H2717 0.930 . S
C2723 C2719 1.400 . S
C2723 C2722 1.385 . S
C2724 C2722 1.478 . S
C2724 C2726 1.381 . S
C2724 C2730 1.383 . S
C2725 C2721 1.495 . S
C2725 H2731 0.959 . S
C2725 H2732 0.961 . S
C2725 H2733 0.960 . S
C2726 C2724 1.381 . S
C2726 C2727 1.394 . S
C2726 H2734 0.930 . S
C2727 C2726 1.394 . S
C2727 C2728 1.383 . S
C2727 H2735 0.929 . S
C2728 C2727 1.383 . S
C2728 C2729 1.377 . S
C2729 H2713 0.930 . S
C2729 C2728 1.377 . S
C2729 C2730 1.379 . S
C2730 H2714 0.931 . S
C2730 C2724 1.383 . S
C2730 C2729 1.379 . S
H2731 C2725 0.959 . S
H2732 C2725 0.961 . S
H2733 C2725 0.960 . S
H2734 C2726 0.930 . S
H2735 C2727 0.929 . S
H2736 C2744 0.929 . S
H2737 C2746 0.930 . S
H2738 C2748 0.930 . S
H2739 C2751 0.929 . S
H2740 C2754 0.930 . S
H2741 C2756 0.960 . S
H2742 C2756 0.960 . S
H2743 C2756 0.960 . S
C2744 H2736 0.929 . S
C2744 C2745 1.377 . S
C2744 C2746 1.384 . S
C2745 C2744 1.377 . S
C2745 C2751 1.390 . S
C2746 H2737 0.930 . S
C2746 C2744 1.384 . S
C2746 C2747 1.372 . S
C2747 C2746 1.372 . S
C2747 C2748 1.400 . S
C2747 C2752 1.490 . S
C2748 H2738 0.930 . S
C2748 C2747 1.400 . S
C2748 C2751 1.386 . S
H2749 C2765 0.930 1_565 S
H2750 C2766 0.931 . S
C2751 H2739 0.929 . S
C2751 C2745 1.390 . S
C2751 C2748 1.386 . S
C2752 C2747 1.490 . S
C2752 C2754 1.395 . S
C2752 C2755 1.403 . S
H2753 C2759 0.930 . S
C2754 H2740 0.930 . S
C2754 C2752 1.395 . S
C2754 C2757 1.403 . S
C2755 C2752 1.403 . S
C2755 C2756 1.524 . S
C2755 C2759 1.400 . S
C2756 H2741 0.960 . S
C2756 H2742 0.960 . S
C2756 H2743 0.960 . S
C2756 C2755 1.524 . S
C2757 C2754 1.403 . S
C2757 C2758 1.392 . S
C2757 C2761 1.495 . S
C2758 C2757 1.392 . S
C2758 C2759 1.385 . S
C2758 C2760 1.478 . S
C2759 H2753 0.930 . S
C2759 C2755 1.400 . S
C2759 C2758 1.385 . S
C2760 C2758 1.478 . S
C2760 C2762 1.381 . S
C2760 C2766 1.383 . S
C2761 C2757 1.495 . S
C2761 H2767 0.959 . S
C2761 H2768 0.961 . S
C2761 H2769 0.960 . S
C2762 C2760 1.381 . S
C2762 C2763 1.394 . S
C2762 H2770 0.930 . S
C2763 C2762 1.394 . S
C2763 C2764 1.383 . S
C2763 H2771 0.929 . S
C2764 C2763 1.383 . S
C2764 C2765 1.377 . S
C2765 H2749 0.930 1_545 S
C2765 C2764 1.377 . S
C2765 C2766 1.379 . S
C2766 H2750 0.931 . S
C2766 C2760 1.383 . S
C2766 C2765 1.379 . S
H2767 C2761 0.959 . S
H2768 C2761 0.961 . S
H2769 C2761 0.960 . S
H2770 C2762 0.930 . S
H2771 C2763 0.929 . S
H2772 C2780 0.929 . S
H2773 C2782 0.930 . S
H2774 C2784 0.930 . S
H2775 C2787 0.929 . S
H2776 C2790 0.930 . S
H2777 C2792 0.960 . S
H2778 C2792 0.960 . S
H2779 C2792 0.960 . S
C2780 H2772 0.929 . S
C2780 C2781 1.377 . S
C2780 C2782 1.384 . S
C2781 C2780 1.377 . S
C2781 C2787 1.390 . S
C2782 H2773 0.930 . S
C2782 C2780 1.384 . S
C2782 C2783 1.372 . S
C2783 C2782 1.372 . S
C2783 C2784 1.400 . S
C2783 C2788 1.490 . S
C2784 H2774 0.930 . S
C2784 C2783 1.400 . S
C2784 C2787 1.386 . S
H2785 C2801 0.930 . S
H2786 C2802 0.931 . S
C2787 H2775 0.929 . S
C2787 C2781 1.390 . S
C2787 C2784 1.386 . S
C2788 C2783 1.490 . S
C2788 C2790 1.395 . S
C2788 C2791 1.403 . S
H2789 C2795 0.930 . S
C2790 H2776 0.930 . S
C2790 C2788 1.395 . S
C2790 C2793 1.403 . S
C2791 C2788 1.403 . S
C2791 C2792 1.524 . S
C2791 C2795 1.400 . S
C2792 H2777 0.960 . S
C2792 H2778 0.960 . S
C2792 H2779 0.960 . S
C2792 C2791 1.524 . S
C2793 C2790 1.403 . S
C2793 C2794 1.392 . S
C2793 C2797 1.495 . S
C2794 C2793 1.392 . S
C2794 C2795 1.385 . S
C2794 C2796 1.478 . S
C2795 H2789 0.930 . S
C2795 C2791 1.400 . S
C2795 C2794 1.385 . S
C2796 C2794 1.478 . S
C2796 C2798 1.381 . S
C2796 C2802 1.383 . S
C2797 C2793 1.495 . S
C2797 H2803 0.959 . S
C2797 H2804 0.961 . S
C2797 H2805 0.960 . S
C2798 C2796 1.381 . S
C2798 C2799 1.394 . S
C2798 H2806 0.930 . S
C2799 C2798 1.394 . S
C2799 C2800 1.383 . S
C2799 H2807 0.929 . S
C2800 C2799 1.383 . S
C2800 C2801 1.377 . S
C2801 H2785 0.930 . S
C2801 C2800 1.377 . S
C2801 C2802 1.379 . S
C2802 H2786 0.931 . S
C2802 C2796 1.383 . S
C2802 C2801 1.379 . S
H2803 C2797 0.959 . S
H2804 C2797 0.961 . S
H2805 C2797 0.960 . S
H2806 C2798 0.930 . S
H2807 C2799 0.929 . S
H2808 C2816 0.929 . S
H2809 C2818 0.930 . S
H2810 C2820 0.930 . S
H2811 C2823 0.929 . S
H2812 C2826 0.930 . S
H2813 C2828 0.960 . S
H2814 C2828 0.960 . S
H2815 C2828 0.960 . S
C2816 H2808 0.929 . S
C2816 C2817 1.377 . S
C2816 C2818 1.384 . S
C2817 C2816 1.377 . S
C2817 C2823 1.390 . S
C2818 H2809 0.930 . S
C2818 C2816 1.384 . S
C2818 C2819 1.372 . S
C2819 C2818 1.372 . S
C2819 C2820 1.400 . S
C2819 C2824 1.490 . S
C2820 H2810 0.930 . S
C2820 C2819 1.400 . S
C2820 C2823 1.386 . S
H2821 C2837 0.930 . S
H2822 C2838 0.931 . S
C2823 H2811 0.929 . S
C2823 C2817 1.390 . S
C2823 C2820 1.386 . S
C2824 C2819 1.490 . S
C2824 C2826 1.395 . S
C2824 C2827 1.403 . S
H2825 C2831 0.930 . S
C2826 H2812 0.930 . S
C2826 C2824 1.395 . S
C2826 C2829 1.403 . S
C2827 C2824 1.403 . S
C2827 C2828 1.524 . S
C2827 C2831 1.400 . S
C2828 H2813 0.960 . S
C2828 H2814 0.960 . S
C2828 H2815 0.960 . S
C2828 C2827 1.524 . S
C2829 C2826 1.403 . S
C2829 C2830 1.392 . S
C2829 C2833 1.495 . S
C2830 C2829 1.392 . S
C2830 C2831 1.385 . S
C2830 C2832 1.478 . S
C2831 H2825 0.930 . S
C2831 C2827 1.400 . S
C2831 C2830 1.385 . S
C2832 C2830 1.478 . S
C2832 C2834 1.381 . S
C2832 C2838 1.383 . S
C2833 C2829 1.495 . S
C2833 H2839 0.959 . S
C2833 H2840 0.961 . S
C2833 H2841 0.960 . S
C2834 C2832 1.381 . S
C2834 C2835 1.394 . S
C2834 H2842 0.930 . S
C2835 C2834 1.394 . S
C2835 C2836 1.383 . S
C2835 H2843 0.929 . S
C2836 C2835 1.383 . S
C2836 C2837 1.377 . S
C2837 H2821 0.930 . S
C2837 C2836 1.377 . S
C2837 C2838 1.379 . S
C2838 H2822 0.931 . S
C2838 C2832 1.383 . S
C2838 C2837 1.379 . S
H2839 C2833 0.959 . S
H2840 C2833 0.961 . S
H2841 C2833 0.960 . S
H2842 C2834 0.930 . S
H2843 C2835 0.929 . S
H2844 C2852 0.929 . S
H2845 C2854 0.930 . S
H2846 C2856 0.930 . S
H2847 C2859 0.929 . S
H2848 C2862 0.930 . S
H2849 C2864 0.960 . S
H2850 C2864 0.960 . S
H2851 C2864 0.960 . S
C2852 H2844 0.929 . S
C2852 C2853 1.377 . S
C2852 C2854 1.384 . S
C2853 C2852 1.377 . S
C2853 C2859 1.390 . S
C2854 H2845 0.930 . S
C2854 C2852 1.384 . S
C2854 C2855 1.372 . S
C2855 C2854 1.372 . S
C2855 C2856 1.400 . S
C2855 C2860 1.490 . S
C2856 H2846 0.930 . S
C2856 C2855 1.400 . S
C2856 C2859 1.386 . S
H2857 C2873 0.930 . S
H2858 C2874 0.931 . S
C2859 H2847 0.929 . S
C2859 C2853 1.390 . S
C2859 C2856 1.386 . S
C2860 C2855 1.490 . S
C2860 C2862 1.395 . S
C2860 C2863 1.403 . S
H2861 C2867 0.930 . S
C2862 H2848 0.930 . S
C2862 C2860 1.395 . S
C2862 C2865 1.403 . S
C2863 C2860 1.403 . S
C2863 C2864 1.524 . S
C2863 C2867 1.400 . S
C2864 H2849 0.960 . S
C2864 H2850 0.960 . S
C2864 H2851 0.960 . S
C2864 C2863 1.524 . S
C2865 C2862 1.403 . S
C2865 C2866 1.392 . S
C2865 C2869 1.495 . S
C2866 C2865 1.392 . S
C2866 C2867 1.385 . S
C2866 C2868 1.478 . S
C2867 H2861 0.930 . S
C2867 C2863 1.400 . S
C2867 C2866 1.385 . S
C2868 C2866 1.478 . S
C2868 C2870 1.381 . S
C2868 C2874 1.383 . S
C2869 C2865 1.495 . S
C2869 H2875 0.959 . S
C2869 H2876 0.961 . S
C2869 H2877 0.960 . S
C2870 C2868 1.381 . S
C2870 C2871 1.394 . S
C2870 H2878 0.930 . S
C2871 C2870 1.394 . S
C2871 C2872 1.383 . S
C2871 H2879 0.929 1_565 S
C2872 C2871 1.383 . S
C2872 C2873 1.377 . S
C2873 H2857 0.930 . S
C2873 C2872 1.377 . S
C2873 C2874 1.379 . S
C2874 H2858 0.931 . S
C2874 C2868 1.383 . S
C2874 C2873 1.379 . S
H2875 C2869 0.959 . S
H2876 C2869 0.961 . S
H2877 C2869 0.960 . S
H2878 C2870 0.930 . S
H2879 C2871 0.929 1_545 S
H2880 C2888 0.929 . S
H2881 C2890 0.930 . S
H2882 C2892 0.930 . S
H2883 C2895 0.929 . S
H2884 C2898 0.930 . S
H2885 C2900 0.960 . S
H2886 C2900 0.960 . S
H2887 C2900 0.960 . S
C2888 H2880 0.929 . S
C2888 C2889 1.377 . S
C2888 C2890 1.384 . S
C2889 C2888 1.377 . S
C2889 C2895 1.390 . S
C2890 H2881 0.930 . S
C2890 C2888 1.384 . S
C2890 C2891 1.372 . S
C2891 C2890 1.372 . S
C2891 C2892 1.400 . S
C2891 C2896 1.490 . S
C2892 H2882 0.930 . S
C2892 C2891 1.400 . S
C2892 C2895 1.386 . S
H2893 C2909 0.930 1_655 S
H2894 C2910 0.931 . S
C2895 H2883 0.929 . S
C2895 C2889 1.390 . S
C2895 C2892 1.386 . S
C2896 C2891 1.490 . S
C2896 C2898 1.395 . S
C2896 C2899 1.403 . S
H2897 C2903 0.930 . S
C2898 H2884 0.930 . S
C2898 C2896 1.395 . S
C2898 C2901 1.403 . S
C2899 C2896 1.403 . S
C2899 C2900 1.524 . S
C2899 C2903 1.400 . S
C2900 H2885 0.960 . S
C2900 H2886 0.960 . S
C2900 H2887 0.960 . S
C2900 C2899 1.524 . S
C2901 C2898 1.403 . S
C2901 C2902 1.392 . S
C2901 C2905 1.495 . S
C2902 C2901 1.392 . S
C2902 C2903 1.385 . S
C2902 C2904 1.478 . S
C2903 H2897 0.930 . S
C2903 C2899 1.400 . S
C2903 C2902 1.385 . S
C2904 C2902 1.478 . S
C2904 C2906 1.381 . S
C2904 C2910 1.383 . S
C2905 C2901 1.495 . S
C2905 H2911 0.959 . S
C2905 H2912 0.961 . S
C2905 H2913 0.960 . S
C2906 C2904 1.381 . S
C2906 C2907 1.394 . S
C2906 H2914 0.930 . S
C2907 C2906 1.394 . S
C2907 C2908 1.383 . S
C2907 H2915 0.929 . S
C2908 C2907 1.383 . S
C2908 C2909 1.377 . S
C2909 H2893 0.930 1_455 S
C2909 C2908 1.377 . S
C2909 C2910 1.379 . S
C2910 H2894 0.931 . S
C2910 C2904 1.383 . S
C2910 C2909 1.379 . S
H2911 C2905 0.959 . S
H2912 C2905 0.961 . S
H2913 C2905 0.960 . S
H2914 C2906 0.930 . S
H2915 C2907 0.929 . S
H2916 C2924 0.929 . S
H2917 C2926 0.930 . S
H2918 C2928 0.930 . S
H2919 C2931 0.929 . S
H2920 C2934 0.930 . S
H2921 C2936 0.960 . S
H2922 C2936 0.960 . S
H2923 C2936 0.960 . S
C2924 H2916 0.929 . S
C2924 C2925 1.377 . S
C2924 C2926 1.384 . S
C2925 C2924 1.377 . S
C2925 C2931 1.390 . S
C2926 H2917 0.930 . S
C2926 C2924 1.384 . S
C2926 C2927 1.372 . S
C2927 C2926 1.372 . S
C2927 C2928 1.400 . S
C2927 C2932 1.490 . S
C2928 H2918 0.930 . S
C2928 C2927 1.400 . S
C2928 C2931 1.386 . S
H2929 C2945 0.930 . S
H2930 C2946 0.931 . S
C2931 H2919 0.929 . S
C2931 C2925 1.390 . S
C2931 C2928 1.386 . S
C2932 C2927 1.490 . S
C2932 C2934 1.395 . S
C2932 C2935 1.403 . S
H2933 C2939 0.930 . S
C2934 H2920 0.930 . S
C2934 C2932 1.395 . S
C2934 C2937 1.403 . S
C2935 C2932 1.403 . S
C2935 C2936 1.524 . S
C2935 C2939 1.400 . S
C2936 H2921 0.960 . S
C2936 H2922 0.960 . S
C2936 H2923 0.960 . S
C2936 C2935 1.524 . S
C2937 C2934 1.403 . S
C2937 C2938 1.392 . S
C2937 C2941 1.495 . S
C2938 C2937 1.392 . S
C2938 C2939 1.385 . S
C2938 C2940 1.478 . S
C2939 H2933 0.930 . S
C2939 C2935 1.400 . S
C2939 C2938 1.385 . S
C2940 C2938 1.478 . S
C2940 C2942 1.381 1_655 S
C2940 C2946 1.383 . S
C2941 C2937 1.495 . S
C2941 H2947 0.959 . S
C2941 H2948 0.961 . S
C2941 H2949 0.960 1_655 S
C2942 C2940 1.381 1_455 S
C2942 C2943 1.394 . S
C2942 H2950 0.930 . S
C2943 C2942 1.394 . S
C2943 C2944 1.383 . S
C2943 H2951 0.929 . S
C2944 C2943 1.383 . S
C2944 C2945 1.377 . S
C2945 H2929 0.930 . S
C2945 C2944 1.377 . S
C2945 C2946 1.379 1_455 S
C2946 H2930 0.931 . S
C2946 C2940 1.383 . S
C2946 C2945 1.379 1_655 S
H2947 C2941 0.959 . S
H2948 C2941 0.961 . S
H2949 C2941 0.960 1_455 S
H2950 C2942 0.930 . S
H2951 C2943 0.929 . S
H2952 C2960 0.929 . S
H2953 C2962 0.930 . S
H2954 C2964 0.930 . S
H2955 C2967 0.929 . S
H2956 C2970 0.930 . S
H2957 C2972 0.960 . S
H2958 C2972 0.960 . S
H2959 C2972 0.960 . S
C2960 H2952 0.929 . S
C2960 C2961 1.377 . S
C2960 C2962 1.384 . S
C2961 C2960 1.377 . S
C2961 C2967 1.390 . S
C2962 H2953 0.930 . S
C2962 C2960 1.384 . S
C2962 C2963 1.372 . S
C2963 C2962 1.372 . S
C2963 C2964 1.400 . S
C2963 C2968 1.490 . S
C2964 H2954 0.930 . S
C2964 C2963 1.400 . S
C2964 C2967 1.386 . S
H2965 C2981 0.930 . S
H2966 C2982 0.931 . S
C2967 H2955 0.929 . S
C2967 C2961 1.390 . S
C2967 C2964 1.386 . S
C2968 C2963 1.490 . S
C2968 C2970 1.395 . S
C2968 C2971 1.403 . S
H2969 C2975 0.930 . S
C2970 H2956 0.930 . S
C2970 C2968 1.395 . S
C2970 C2973 1.403 . S
C2971 C2968 1.403 . S
C2971 C2972 1.524 . S
C2971 C2975 1.400 . S
C2972 H2957 0.960 . S
C2972 H2958 0.960 . S
C2972 H2959 0.960 . S
C2972 C2971 1.524 . S
C2973 C2970 1.403 . S
C2973 C2974 1.392 . S
C2973 C2977 1.495 . S
C2974 C2973 1.392 . S
C2974 C2975 1.385 . S
C2974 C2976 1.478 . S
C2975 H2969 0.930 . S
C2975 C2971 1.400 . S
C2975 C2974 1.385 . S
C2976 C2974 1.478 . S
C2976 C2978 1.381 . S
C2976 C2982 1.383 . S
C2977 C2973 1.495 . S
C2977 H2983 0.959 . S
C2977 H2984 0.961 . S
C2977 H2985 0.960 . S
C2978 C2976 1.381 . S
C2978 C2979 1.394 . S
C2978 H2986 0.930 . S
C2979 C2978 1.394 . S
C2979 C2980 1.383 . S
C2979 H2987 0.929 . S
C2980 C2979 1.383 . S
C2980 C2981 1.377 . S
C2981 H2965 0.930 . S
C2981 C2980 1.377 . S
C2981 C2982 1.379 . S
C2982 H2966 0.931 . S
C2982 C2976 1.383 . S
C2982 C2981 1.379 . S
H2983 C2977 0.959 . S
H2984 C2977 0.961 . S
H2985 C2977 0.960 . S
H2986 C2978 0.930 . S
H2987 C2979 0.929 . S
H2988 C2996 0.929 . S
H2989 C2998 0.930 . S
H2990 C3000 0.930 . S
H2991 C3003 0.929 . S
H2992 C3006 0.930 . S
H2993 C3008 0.960 . S
H2994 C3008 0.960 . S
H2995 C3008 0.960 . S
C2996 H2988 0.929 . S
C2996 C2997 1.377 . S
C2996 C2998 1.384 . S
C2997 C2996 1.377 . S
C2997 C3003 1.390 . S
C2998 H2989 0.930 . S
C2998 C2996 1.384 . S
C2998 C2999 1.372 1_565 S
C2999 C2998 1.372 1_545 S
C2999 C3000 1.400 . S
C2999 C3004 1.490 . S
C3000 H2990 0.930 . S
C3000 C2999 1.400 . S
C3000 C3003 1.386 1_545 S
H3001 C3017 0.930 . S
H3002 C3018 0.931 . S
C3003 H2991 0.929 . S
C3003 C2997 1.390 . S
C3003 C3000 1.386 1_565 S
C3004 C2999 1.490 . S
C3004 C3006 1.395 . S
C3004 C3007 1.403 . S
H3005 C3011 0.930 . S
C3006 H2992 0.930 . S
C3006 C3004 1.395 . S
C3006 C3009 1.403 . S
C3007 C3004 1.403 . S
C3007 C3008 1.524 . S
C3007 C3011 1.400 . S
C3008 H2993 0.960 . S
C3008 H2994 0.960 . S
C3008 H2995 0.960 . S
C3008 C3007 1.524 . S
C3009 C3006 1.403 . S
C3009 C3010 1.392 . S
C3009 C3013 1.495 . S
C3010 C3009 1.392 . S
C3010 C3011 1.385 . S
C3010 C3012 1.478 . S
C3011 H3005 0.930 . S
C3011 C3007 1.400 . S
C3011 C3010 1.385 . S
C3012 C3010 1.478 . S
C3012 C3014 1.381 . S
C3012 C3018 1.383 . S
C3013 C3009 1.495 . S
C3013 H3019 0.959 . S
C3013 H3020 0.961 . S
C3013 H3021 0.960 . S
C3014 C3012 1.381 . S
C3014 C3015 1.394 . S
C3014 H3022 0.930 . S
C3015 C3014 1.394 . S
C3015 C3016 1.383 . S
C3015 H3023 0.929 . S
C3016 C3015 1.383 . S
C3016 C3017 1.377 . S
C3017 H3001 0.930 . S
C3017 C3016 1.377 . S
C3017 C3018 1.379 . S
C3018 H3002 0.931 . S
C3018 C3012 1.383 . S
C3018 C3017 1.379 . S
H3019 C3013 0.959 . S
H3020 C3013 0.961 . S
H3021 C3013 0.960 . S
H3022 C3014 0.930 . S
H3023 C3015 0.929 . S
H3024 C3032 0.929 . S
H3025 C3034 0.930 . S
H3026 C3036 0.930 . S
H3027 C3039 0.929 . S
H3028 C3042 0.929 . S
H3029 C3044 0.960 . S
H3030 C3044 0.960 . S
H3031 C3044 0.960 . S
C3032 H3024 0.929 . S
C3032 C3033 1.377 . S
C3032 C3034 1.384 . S
C3033 C3032 1.377 . S
C3033 C3039 1.390 1_655 S
C3034 H3025 0.930 . S
C3034 C3032 1.384 . S
C3034 C3035 1.372 . S
C3035 C3034 1.372 . S
C3035 C3036 1.400 1_655 S
C3035 C3040 1.490 1_655 S
C3036 H3026 0.930 . S
C3036 C3035 1.400 1_455 S
C3036 C3039 1.386 . S
H3037 C3053 0.930 . S
H3038 C3054 0.931 . S
C3039 H3027 0.929 . S
C3039 C3033 1.390 1_455 S
C3039 C3036 1.386 . S
C3040 C3035 1.490 1_455 S
C3040 C3042 1.393 1_455 S
C3040 C3043 1.403 . S
H3041 C3047 0.930 . S
C3042 H3028 0.929 . S
C3042 C3040 1.393 1_655 S
C3042 C3045 1.407 1_655 S
C3043 C3040 1.403 . S
C3043 C3044 1.524 . S
C3043 C3047 1.400 . S
C3044 H3029 0.960 . S
C3044 H3030 0.960 . S
C3044 H3031 0.960 . S
C3044 C3043 1.524 . S
C3045 C3042 1.407 1_455 S
C3045 C3046 1.392 . S
C3045 C3049 1.495 . S
C3046 C3045 1.392 . S
C3046 C3047 1.385 . S
C3046 C3048 1.478 . S
C3047 H3041 0.930 . S
C3047 C3043 1.400 . S
C3047 C3046 1.385 . S
C3048 C3046 1.478 . S
C3048 C3050 1.381 . S
C3048 C3054 1.383 . S
C3049 C3045 1.495 . S
C3049 H3055 0.959 1_455 S
C3049 H3056 0.961 . S
C3049 H3057 0.960 1_455 S
C3050 C3048 1.381 . S
C3050 C3051 1.394 . S
C3050 H3058 0.930 1_455 S
C3051 C3050 1.394 . S
C3051 C3052 1.383 . S
C3051 H3059 0.929 . S
C3052 C3051 1.383 . S
C3052 C3053 1.377 . S
C3053 H3037 0.930 . S
C3053 C3052 1.377 . S
C3053 C3054 1.379 . S
C3054 H3038 0.931 . S
C3054 C3048 1.383 . S
C3054 C3053 1.379 . S
H3055 C3049 0.959 1_655 S
H3056 C3049 0.961 . S
H3057 C3049 0.960 1_655 S
H3058 C3050 0.930 1_655 S
H3059 C3051 0.929 . S
H3060 C3068 0.929 . S
H3061 C3070 0.930 . S
H3062 C3072 0.930 . S
H3063 C3075 0.929 . S
H3064 C3078 0.930 . S
H3065 C3080 0.960 . S
H3066 C3080 0.960 . S
H3067 C3080 0.960 . S
C3068 H3060 0.929 . S
C3068 C3069 1.377 . S
C3068 C3070 1.384 . S
C3069 C3068 1.377 . S
C3069 C3075 1.390 . S
C3070 H3061 0.930 . S
C3070 C3068 1.384 . S
C3070 C3071 1.372 . S
C3071 C3070 1.372 . S
C3071 C3072 1.400 . S
C3071 C3076 1.490 . S
C3072 H3062 0.930 . S
C3072 C3071 1.400 . S
C3072 C3075 1.386 . S
H3073 C3089 0.930 . S
H3074 C3090 0.931 . S
C3075 H3063 0.929 . S
C3075 C3069 1.390 . S
C3075 C3072 1.386 . S
C3076 C3071 1.490 . S
C3076 C3078 1.395 . S
C3076 C3079 1.403 . S
H3077 C3083 0.930 . S
C3078 H3064 0.930 . S
C3078 C3076 1.395 . S
C3078 C3081 1.403 . S
C3079 C3076 1.403 . S
C3079 C3080 1.524 . S
C3079 C3083 1.400 . S
C3080 H3065 0.960 . S
C3080 H3066 0.960 . S
C3080 H3067 0.960 . S
C3080 C3079 1.524 . S
C3081 C3078 1.403 . S
C3081 C3082 1.392 . S
C3081 C3085 1.495 . S
C3082 C3081 1.392 . S
C3082 C3083 1.385 . S
C3082 C3084 1.478 . S
C3083 H3077 0.930 . S
C3083 C3079 1.400 . S
C3083 C3082 1.385 . S
C3084 C3082 1.478 . S
C3084 C3086 1.381 . S
C3084 C3090 1.383 . S
C3085 C3081 1.495 . S
C3085 H3091 0.959 . S
C3085 H3092 0.961 . S
C3085 H3093 0.960 . S
C3086 C3084 1.381 . S
C3086 C3087 1.394 . S
C3086 H3094 0.930 . S
C3087 C3086 1.394 . S
C3087 C3088 1.383 . S
C3087 H3095 0.929 . S
C3088 C3087 1.383 . S
C3088 C3089 1.377 . S
C3089 H3073 0.930 . S
C3089 C3088 1.377 . S
C3089 C3090 1.379 . S
C3090 H3074 0.931 . S
C3090 C3084 1.383 . S
C3090 C3089 1.379 . S
H3091 C3085 0.959 . S
H3092 C3085 0.961 . S
H3093 C3085 0.960 . S
H3094 C3086 0.930 . S
H3095 C3087 0.929 . S
H3096 C3104 0.929 . S
H3097 C3106 0.930 . S
H3098 C3108 0.930 . S
H3099 C3111 0.929 . S
H3100 C3114 0.930 . S
H3101 C3116 0.960 . S
H3102 C3116 0.960 . S
H3103 C3116 0.960 . S
C3104 H3096 0.929 . S
C3104 C3105 1.377 . S
C3104 C3106 1.384 . S
C3105 C3104 1.377 . S
C3105 C3111 1.390 . S
C3106 H3097 0.930 . S
C3106 C3104 1.384 . S
C3106 C3107 1.372 . S
C3107 C3106 1.372 . S
C3107 C3108 1.400 1_545 S
C3107 C3112 1.490 1_545 S
C3108 H3098 0.930 . S
C3108 C3107 1.400 1_565 S
C3108 C3111 1.386 1_565 S
H3109 C3125 0.930 . S
H3110 C3126 0.931 . S
C3111 H3099 0.929 . S
C3111 C3105 1.390 . S
C3111 C3108 1.386 1_545 S
C3112 C3107 1.490 1_565 S
C3112 C3114 1.395 . S
C3112 C3115 1.403 1_565 S
H3113 C3119 0.930 1_545 S
C3114 H3100 0.930 . S
C3114 C3112 1.395 . S
C3114 C3117 1.403 . S
C3115 C3112 1.403 1_545 S
C3115 C3116 1.524 . S
C3115 C3119 1.400 1_545 S
C3116 H3101 0.960 . S
C3116 H3102 0.960 . S
C3116 H3103 0.960 . S
C3116 C3115 1.524 . S
C3117 C3114 1.403 . S
C3117 C3118 1.392 . S
C3117 C3121 1.495 . S
C3118 C3117 1.392 . S
C3118 C3119 1.385 . S
C3118 C3120 1.478 . S
C3119 H3113 0.930 1_565 S
C3119 C3115 1.400 1_565 S
C3119 C3118 1.385 . S
C3120 C3118 1.478 . S
C3120 C3122 1.381 . S
C3120 C3126 1.383 . S
C3121 C3117 1.495 . S
C3121 H3127 0.959 . S
C3121 H3128 0.961 . S
C3121 H3129 0.960 . S
C3122 C3120 1.381 . S
C3122 C3123 1.394 . S
C3122 H3130 0.930 . S
C3123 C3122 1.394 . S
C3123 C3124 1.383 . S
C3123 H3131 0.929 . S
C3124 C3123 1.383 . S
C3124 C3125 1.377 . S
C3125 H3109 0.930 . S
C3125 C3124 1.377 . S
C3125 C3126 1.379 . S
C3126 H3110 0.931 . S
C3126 C3120 1.383 . S
C3126 C3125 1.379 . S
H3127 C3121 0.959 . S
H3128 C3121 0.961 . S
H3129 C3121 0.960 . S
H3130 C3122 0.930 . S
H3131 C3123 0.929 . S
H3132 C3140 0.929 . S
H3133 C3142 0.930 1_545 S
H3134 C3144 0.930 . S
H3135 C3147 0.929 . S
H3136 C3150 0.938 . S
H3137 C3152 0.960 . S
H3138 C3152 0.960 . S
H3139 C3152 0.960 . S
C3140 H3132 0.929 . S
C3140 C3141 1.377 . S
C3140 C3142 1.384 . S
C3141 C3140 1.377 . S
C3141 C3147 1.390 . S
C3142 H3133 0.930 1_565 S
C3142 C3140 1.384 . S
C3142 C3143 1.372 . S
C3143 C3142 1.372 . S
C3143 C3144 1.400 . S
C3143 C3148 1.490 . S
C3144 H3134 0.930 . S
C3144 C3143 1.400 . S
C3144 C3147 1.386 . S
H3145 C3161 0.930 . S
H3146 C3162 0.931 . S
C3147 H3135 0.929 . S
C3147 C3141 1.390 . S
C3147 C3144 1.386 . S
C3148 C3143 1.490 . S
C3148 C3150 1.395 . S
C3148 C3151 1.403 . S
H3149 C3155 0.930 . S
C3150 H3136 0.938 . S
C3150 C3148 1.395 . S
C3150 C3153 1.403 1_565 S
C3151 C3148 1.403 . S
C3151 C3152 1.524 . S
C3151 C3155 1.400 . S
C3152 H3137 0.960 . S
C3152 H3138 0.960 . S
C3152 H3139 0.960 . S
C3152 C3151 1.524 . S
C3153 C3150 1.403 1_545 S
C3153 C3154 1.392 1_545 S
C3153 C3157 1.495 . S
C3154 C3153 1.392 1_565 S
C3154 C3155 1.385 . S
C3154 C3156 1.478 1_565 S
C3155 H3149 0.930 . S
C3155 C3151 1.400 . S
C3155 C3154 1.385 . S
C3156 C3154 1.478 1_545 S
C3156 C3158 1.381 . S
C3156 C3162 1.383 1_545 S
C3157 C3153 1.495 . S
C3157 H3163 0.959 . S
C3157 H3164 0.961 . S
C3157 H3165 0.960 . S
C3158 C3156 1.381 . S
C3158 C3159 1.394 . S
C3158 H3166 0.930 . S
C3159 C3158 1.394 . S
C3159 C3160 1.383 . S
C3159 H3167 0.929 . S
C3160 C3159 1.383 . S
C3160 C3161 1.377 1_545 S
C3161 H3145 0.930 . S
C3161 C3160 1.377 1_565 S
C3161 C3162 1.379 . S
C3162 H3146 0.931 . S
C3162 C3156 1.383 1_565 S
C3162 C3161 1.379 . S
H3163 C3157 0.959 . S
H3164 C3157 0.961 . S
H3165 C3157 0.960 . S
H3166 C3158 0.930 . S
H3167 C3159 0.929 . S
H3168 C3176 0.929 . S
H3169 C3178 0.930 . S
H3170 C3180 0.930 . S
H3171 C3183 0.929 . S
H3172 C3186 0.930 . S
H3173 C3188 0.960 . S
H3174 C3188 0.960 . S
H3175 C3188 0.960 . S
C3176 H3168 0.929 . S
C3176 C3177 1.377 . S
C3176 C3178 1.384 . S
C3177 C3176 1.377 . S
C3177 C3183 1.390 . S
C3178 H3169 0.930 . S
C3178 C3176 1.384 . S
C3178 C3179 1.372 . S
C3179 C3178 1.372 . S
C3179 C3180 1.400 1_655 S
C3179 C3184 1.490 1_655 S
C3180 H3170 0.930 . S
C3180 C3179 1.400 1_455 S
C3180 C3183 1.386 1_455 S
H3181 C3197 0.930 . S
H3182 C3198 0.931 . S
C3183 H3171 0.929 . S
C3183 C3177 1.390 . S
C3183 C3180 1.386 1_655 S
C3184 C3179 1.490 1_455 S
C3184 C3186 1.395 1_455 S
C3184 C3187 1.403 . S
H3185 C3191 0.930 . S
C3186 H3172 0.930 . S
C3186 C3184 1.395 1_655 S
C3186 C3189 1.403 . S
C3187 C3184 1.403 . S
C3187 C3188 1.524 . S
C3187 C3191 1.400 . S
C3188 H3173 0.960 . S
C3188 H3174 0.960 . S
C3188 H3175 0.960 . S
C3188 C3187 1.524 . S
C3189 C3186 1.403 . S
C3189 C3190 1.392 1_655 S
C3189 C3193 1.495 . S
C3190 C3189 1.392 1_455 S
C3190 C3191 1.385 . S
C3190 C3192 1.478 . S
C3191 H3185 0.930 . S
C3191 C3187 1.400 . S
C3191 C3190 1.385 . S
C3192 C3190 1.478 . S
C3192 C3194 1.381 . S
C3192 C3198 1.383 . S
C3193 C3189 1.495 . S
C3193 H3199 0.959 . S
C3193 H3200 0.961 . S
C3193 H3201 0.960 . S
C3194 C3192 1.381 . S
C3194 C3195 1.394 . S
C3194 H3202 0.930 . S
C3195 C3194 1.394 . S
C3195 C3196 1.383 . S
C3195 H3203 0.929 . S
C3196 C3195 1.383 . S
C3196 C3197 1.377 . S
C3197 H3181 0.930 . S
C3197 C3196 1.377 . S
C3197 C3198 1.379 . S
C3198 H3182 0.931 . S
C3198 C3192 1.383 . S
C3198 C3197 1.379 . S
H3199 C3193 0.959 . S
H3200 C3193 0.961 . S
H3201 C3193 0.960 . S
H3202 C3194 0.930 . S
H3203 C3195 0.929 . S
H3204 C3212 0.929 . S
H3205 C3214 0.930 . S
H3206 C3216 0.930 . S
H3207 C3219 0.929 . S
H3208 C3222 0.930 . S
H3209 C3224 0.960 . S
H3210 C3224 0.960 . S
H3211 C3224 0.960 . S
C3212 H3204 0.929 . S
C3212 C3213 1.377 . S
C3212 C3214 1.384 . S
C3213 C3212 1.377 . S
C3213 C3219 1.390 . S
C3214 H3205 0.930 . S
C3214 C3212 1.384 . S
C3214 C3215 1.372 . S
C3215 C3214 1.372 . S
C3215 C3216 1.400 . S
C3215 C3220 1.490 . S
C3216 H3206 0.930 . S
C3216 C3215 1.400 . S
C3216 C3219 1.386 . S
H3217 C3233 0.930 . S
H3218 C3234 0.931 . S
C3219 H3207 0.929 . S
C3219 C3213 1.390 . S
C3219 C3216 1.386 . S
C3220 C3215 1.490 . S
C3220 C3222 1.395 . S
C3220 C3223 1.403 . S
H3221 C3227 0.930 . S
C3222 H3208 0.930 . S
C3222 C3220 1.395 . S
C3222 C3225 1.403 . S
C3223 C3220 1.403 . S
C3223 C3224 1.524 . S
C3223 C3227 1.400 . S
C3224 H3209 0.960 . S
C3224 H3210 0.960 . S
C3224 H3211 0.960 . S
C3224 C3223 1.524 . S
C3225 C3222 1.403 . S
C3225 C3226 1.392 . S
C3225 C3229 1.495 . S
C3226 C3225 1.392 . S
C3226 C3227 1.385 . S
C3226 C3228 1.478 . S
C3227 H3221 0.930 . S
C3227 C3223 1.400 . S
C3227 C3226 1.385 . S
C3228 C3226 1.478 . S
C3228 C3230 1.381 . S
C3228 C3234 1.383 . S
C3229 C3225 1.495 . S
C3229 H3235 0.959 . S
C3229 H3236 0.961 . S
C3229 H3237 0.960 . S
C3230 C3228 1.381 . S
C3230 C3231 1.394 . S
C3230 H3238 0.930 . S
C3231 C3230 1.394 . S
C3231 C3232 1.383 . S
C3231 H3239 0.929 . S
C3232 C3231 1.383 . S
C3232 C3233 1.377 . S
C3233 H3217 0.930 . S
C3233 C3232 1.377 . S
C3233 C3234 1.379 . S
C3234 H3218 0.931 . S
C3234 C3228 1.383 . S
C3234 C3233 1.379 . S
H3235 C3229 0.959 . S
H3236 C3229 0.961 . S
H3237 C3229 0.960 . S
H3238 C3230 0.930 . S
H3239 C3231 0.929 . S
H3240 C3248 0.929 . S
H3241 C3250 0.931 1_545 S
H3242 C3252 0.903 1_545 S
H3243 C3255 0.929 . S
H3244 C3258 0.930 . S
H3245 C3260 0.960 . S
H3246 C3260 0.960 1_565 S
H3247 C3260 0.960 1_556 S
C3248 H3240 0.929 . S
C3248 C3249 1.377 . S
C3248 C3250 1.384 . S
C3249 C3248 1.377 . S
C3249 C3255 1.390 . S
C3250 H3241 0.931 1_565 S
C3250 C3248 1.384 . S
C3250 C3251 1.372 1_565 S
C3251 C3250 1.372 1_545 S
C3251 C3252 1.402 1_545 S
C3251 C3256 1.490 . S
C3252 H3242 0.903 1_565 S
C3252 C3251 1.402 1_565 S
C3252 C3255 1.410 . S
H3253 C3269 0.930 . S
H3254 C3270 0.931 . S
C3255 H3243 0.929 . S
C3255 C3249 1.390 . S
C3255 C3252 1.410 . S
C3256 C3251 1.490 . S
C3256 C3258 1.395 . S
C3256 C3259 1.403 1_556 S
H3257 C3263 0.930 . S
C3258 H3244 0.930 . S
C3258 C3256 1.395 . S
C3258 C3261 1.494 . S
C3259 C3256 1.403 1_554 S
C3259 C3260 1.524 . S
C3259 C3263 1.400 . S
C3260 H3245 0.960 . S
C3260 H3246 0.960 1_545 S
C3260 H3247 0.960 1_554 S
C3260 C3259 1.524 . S
C3261 C3258 1.494 . S
C3261 C3262 1.291 1_556 S
C3261 C3265 1.530 . S
C3262 C3261 1.291 1_554 S
C3262 C3263 1.385 . S
C3262 C3264 1.478 . S
C3263 H3257 0.930 . S
C3263 C3259 1.400 . S
C3263 C3262 1.385 . S
C3264 C3262 1.478 . S
C3264 C3266 1.381 . S
C3264 C3270 1.383 . S
C3265 C3261 1.530 . S
C3265 H3271 0.959 . S
C3265 H3272 0.961 . S
C3265 H3273 0.960 1_556 S
C3266 C3264 1.381 . S
C3266 C3267 1.394 . S
C3266 H3274 0.930 . S
C3267 C3266 1.394 . S
C3267 C3268 1.383 . S
C3267 H3275 0.929 . S
C3268 C3267 1.383 . S
C3268 C3269 1.377 . S
C3269 H3253 0.930 . S
C3269 C3268 1.377 . S
C3269 C3270 1.379 . S
C3270 H3254 0.931 . S
C3270 C3264 1.383 . S
C3270 C3269 1.379 . S
H3271 C3265 0.959 . S
H3272 C3265 0.961 . S
H3273 C3265 0.960 1_554 S
H3274 C3266 0.930 . S
H3275 C3267 0.929 . S
H3276 C3284 0.929 . S
H3277 C3286 1.095 . S
H3278 C3288 0.930 . S
H3279 C3291 0.929 . S
H3280 C3294 0.930 . S
H3281 C3296 0.960 . S
H3282 C3296 0.960 . S
H3283 C3296 0.960 . S
C3284 H3276 0.929 . S
C3284 C3285 1.377 . S
C3284 C3286 1.384 . S
C3285 C3284 1.377 . S
C3285 C3291 1.390 . S
C3286 H3277 1.095 . S
C3286 C3284 1.384 . S
C3286 C3287 1.372 . S
C3287 C3286 1.372 . S
C3287 C3288 1.400 . S
C3287 C3292 1.490 . S
C3288 H3278 0.930 . S
C3288 C3287 1.400 . S
C3288 C3291 1.386 . S
H3289 C3305 0.930 . S
H3290 C3306 0.931 . S
C3291 H3279 0.929 . S
C3291 C3285 1.390 . S
C3291 C3288 1.386 . S
C3292 C3287 1.490 . S
C3292 C3294 1.395 1_554 S
C3292 C3295 1.403 . S
H3293 C3299 0.963 . S
C3294 H3280 0.930 . S
C3294 C3292 1.395 1_556 S
C3294 C3297 1.403 . S
C3295 C3292 1.403 . S
C3295 C3296 1.524 . S
C3295 C3299 1.480 . S
C3296 H3281 0.960 . S
C3296 H3282 0.960 . S
C3296 H3283 0.960 . S
C3296 C3295 1.524 . S
C3297 C3294 1.403 . S
C3297 C3298 1.392 . S
C3297 C3301 1.495 . S
C3298 C3297 1.392 . S
C3298 C3299 1.286 1_556 S
C3298 C3300 1.478 . S
C3299 H3293 0.963 . S
C3299 C3295 1.480 . S
C3299 C3298 1.286 1_554 S
C3300 C3298 1.478 . S
C3300 C3302 1.381 . S
C3300 C3306 1.383 1_655 S
C3301 C3297 1.495 . S
C3301 H3307 0.959 . S
C3301 H3308 0.961 . S
C3301 H3309 0.960 . S
C3302 C3300 1.381 . S
C3302 C3303 1.394 1_655 S
C3302 H3310 0.930 . S
C3303 C3302 1.394 1_455 S
C3303 C3304 1.383 . S
C3303 H3311 0.929 . S
C3304 C3303 1.383 . S
C3304 C3305 1.377 . S
C3305 H3289 0.930 . S
C3305 C3304 1.377 . S
C3305 C3306 1.379 . S
C3306 H3290 0.931 . S
C3306 C3300 1.383 1_455 S
C3306 C3305 1.379 . S
H3307 C3301 0.959 . S
H3308 C3301 0.961 . S
H3309 C3301 0.960 . S
H3310 C3302 0.930 . S
H3311 C3303 0.929 . S
H3312 C3320 0.929 . S
H3313 C3322 0.930 . S
H3314 C3324 0.930 . S
H3315 C3327 0.929 . S
H3316 C3330 0.930 . S
H3317 C3332 0.960 . S
H3318 C3332 0.975 . S
H3319 C3332 0.960 . S
C3320 H3312 0.929 . S
C3320 C3321 1.377 . S
C3320 C3322 1.384 . S
C3321 C3320 1.377 . S
C3321 C3327 1.390 . S
C3322 H3313 0.930 . S
C3322 C3320 1.384 . S
C3322 C3323 1.372 . S
C3323 C3322 1.372 . S
C3323 C3324 1.400 . S
C3323 C3328 1.490 . S
C3324 H3314 0.930 . S
C3324 C3323 1.400 . S
C3324 C3327 1.386 . S
H3325 C3341 0.930 . S
H3326 C3342 0.931 . S
C3327 H3315 0.929 . S
C3327 C3321 1.390 . S
C3327 C3324 1.386 . S
C3328 C3323 1.490 . S
C3328 C3330 1.395 . S
C3328 C3331 1.403 1_554 S
H3329 C3335 0.930 . S
C3330 H3316 0.930 . S
C3330 C3328 1.395 . S
C3330 C3333 1.403 . S
C3331 C3328 1.403 1_556 S
C3331 C3332 1.524 . S
C3331 C3335 1.400 . S
C3332 H3317 0.960 . S
C3332 H3318 0.975 . S
C3332 H3319 0.960 . S
C3332 C3331 1.524 . S
C3333 C3330 1.403 . S
C3333 C3334 1.392 1_554 S
C3333 C3337 1.495 . S
C3334 C3333 1.392 1_556 S
C3334 C3335 1.385 . S
C3334 C3336 1.478 . S
C3335 H3329 0.930 . S
C3335 C3331 1.400 . S
C3335 C3334 1.385 . S
C3336 C3334 1.478 . S
C3336 C3338 1.381 . S
C3336 C3342 1.383 . S
C3337 C3333 1.495 . S
C3337 H3343 0.959 . S
C3337 H3344 0.961 . S
C3337 H3345 0.960 . S
C3338 C3336 1.381 . S
C3338 C3339 1.394 . S
C3338 H3346 1.014 . S
C3339 C3338 1.394 . S
C3339 C3340 1.383 . S
C3339 H3347 0.929 . S
C3340 C3339 1.383 . S
C3340 C3341 1.377 . S
C3341 H3325 0.930 . S
C3341 C3340 1.377 . S
C3341 C3342 1.379 . S
C3342 H3326 0.931 . S
C3342 C3336 1.383 . S
C3342 C3341 1.379 . S
H3343 C3337 0.959 . S
H3344 C3337 0.961 . S
H3345 C3337 0.960 . S
H3346 C3338 1.014 . S
H3347 C3339 0.929 . S
H3348 C3356 0.929 . S
H3349 C3358 0.930 . S
H3350 C3360 0.930 . S
H3351 C3363 0.929 . S
H3352 C3366 0.930 . S
H3353 C3368 0.960 . S
H3354 C3368 0.960 . S
H3355 C3368 0.960 . S
C3356 H3348 0.929 . S
C3356 C3357 1.377 . S
C3356 C3358 1.384 . S
C3357 C3356 1.377 . S
C3357 C3363 1.390 . S
C3358 H3349 0.930 . S
C3358 C3356 1.384 . S
C3358 C3359 1.372 . S
C3359 C3358 1.372 . S
C3359 C3360 1.400 . S
C3359 C3364 1.490 . S
C3360 H3350 0.930 . S
C3360 C3359 1.400 . S
C3360 C3363 1.386 . S
H3361 C3377 0.930 . S
H3362 C3378 0.931 . S
C3363 H3351 0.929 . S
C3363 C3357 1.390 . S
C3363 C3360 1.386 . S
C3364 C3359 1.490 . S
C3364 C3366 1.395 . S
C3364 C3367 1.403 . S
H3365 C3371 0.930 . S
C3366 H3352 0.930 . S
C3366 C3364 1.395 . S
C3366 C3369 1.403 . S
C3367 C3364 1.403 . S
C3367 C3368 1.524 . S
C3367 C3371 1.400 . S
C3368 H3353 0.960 . S
C3368 H3354 0.960 . S
C3368 H3355 0.960 . S
C3368 C3367 1.524 . S
C3369 C3366 1.403 . S
C3369 C3370 1.392 . S
C3369 C3373 1.495 1_545 S
C3370 C3369 1.392 . S
C3370 C3371 1.385 . S
C3370 C3372 1.478 1_545 S
C3371 H3365 0.930 . S
C3371 C3367 1.400 . S
C3371 C3370 1.385 . S
C3372 C3370 1.478 1_565 S
C3372 C3374 1.381 1_565 S
C3372 C3378 1.383 . S
C3373 C3369 1.495 1_565 S
C3373 H3379 0.959 . S
C3373 H3380 0.961 . S
C3373 H3381 0.960 1_565 S
C3374 C3372 1.381 1_545 S
C3374 C3375 1.394 . S
C3374 H3382 0.930 . S
C3375 C3374 1.394 . S
C3375 C3376 1.383 1_545 S
C3375 H3383 0.929 . S
C3376 C3375 1.383 1_565 S
C3376 C3377 1.377 . S
C3377 H3361 0.930 . S
C3377 C3376 1.377 . S
C3377 C3378 1.379 . S
C3378 H3362 0.931 . S
C3378 C3372 1.383 . S
C3378 C3377 1.379 . S
H3379 C3373 0.959 . S
H3380 C3373 0.961 . S
H3381 C3373 0.960 1_545 S
H3382 C3374 0.930 . S
H3383 C3375 0.929 . S
H3384 C3392 0.929 . S
H3385 C3394 0.930 . S
H3386 C3396 0.930 . S
H3387 C3399 0.929 . S
H3388 C3402 0.930 . S
H3389 C3404 0.960 . S
H3390 C3404 0.960 . S
H3391 C3404 0.960 . S
C3392 H3384 0.929 . S
C3392 C3393 1.377 . S
C3392 C3394 1.384 . S
C3393 C3392 1.377 . S
C3393 C3399 1.390 . S
C3394 H3385 0.930 . S
C3394 C3392 1.384 . S
C3394 C3395 1.372 . S
C3395 C3394 1.372 . S
C3395 C3396 1.400 . S
C3395 C3400 1.490 . S
C3396 H3386 0.930 . S
C3396 C3395 1.400 . S
C3396 C3399 1.386 . S
H3397 C3413 0.930 . S
H3398 C3414 0.931 . S
C3399 H3387 0.929 . S
C3399 C3393 1.390 . S
C3399 C3396 1.386 . S
C3400 C3395 1.490 . S
C3400 C3402 1.395 1_655 S
C3400 C3403 1.403 . S
H3401 C3407 0.930 . S
C3402 H3388 0.930 . S
C3402 C3400 1.395 1_455 S
C3402 C3405 1.403 . S
C3403 C3400 1.403 . S
C3403 C3404 1.524 . S
C3403 C3407 1.400 . S
C3404 H3389 0.960 . S
C3404 H3390 0.960 . S
C3404 H3391 0.960 . S
C3404 C3403 1.524 . S
C3405 C3402 1.403 . S
C3405 C3406 1.384 1_455 S
C3405 C3409 1.495 . S
C3406 C3405 1.384 1_655 S
C3406 C3407 1.412 . S
C3406 C3408 1.461 1_655 S
C3407 H3401 0.930 . S
C3407 C3403 1.400 . S
C3407 C3406 1.412 . S
C3408 C3406 1.461 1_455 S
C3408 C3410 1.381 . S
C3408 C3414 1.383 . S
C3409 C3405 1.495 . S
C3409 H3415 0.959 . S
C3409 H3416 0.961 . S
C3409 H3417 0.960 . S
C3410 C3408 1.381 . S
C3410 C3411 1.394 . S
C3410 H3418 0.930 . S
C3411 C3410 1.394 . S
C3411 C3412 1.383 . S
C3411 H3419 0.929 . S
C3412 C3411 1.383 . S
C3412 C3413 1.377 . S
C3413 H3397 0.930 . S
C3413 C3412 1.377 . S
C3413 C3414 1.379 . S
C3414 H3398 0.931 . S
C3414 C3408 1.383 . S
C3414 C3413 1.379 . S
H3415 C3409 0.959 . S
H3416 C3409 0.961 . S
H3417 C3409 0.960 . S
H3418 C3410 0.930 . S
H3419 C3411 0.929 . S
H3420 C3428 0.929 . S
H3421 C3430 0.930 . S
H3422 C3432 0.930 . S
H3423 C3435 0.929 . S
H3424 C3438 0.930 . S
H3425 C3440 0.960 . S
H3426 C3440 0.960 . S
H3427 C3440 0.960 . S
C3428 H3420 0.929 . S
C3428 C3429 1.377 . S
C3428 C3430 1.384 . S
C3429 C3428 1.377 . S
C3429 C3435 1.390 . S
C3430 H3421 0.930 . S
C3430 C3428 1.384 . S
C3430 C3431 1.372 . S
C3431 C3430 1.372 . S
C3431 C3432 1.400 . S
C3431 C3436 1.490 . S
C3432 H3422 0.930 . S
C3432 C3431 1.400 . S
C3432 C3435 1.386 . S
H3433 C3449 0.930 . S
H3434 C3450 0.931 . S
C3435 H3423 0.929 . S
C3435 C3429 1.390 . S
C3435 C3432 1.386 . S
C3436 C3431 1.490 . S
C3436 C3438 1.395 . S
C3436 C3439 1.403 . S
H3437 C3443 0.930 . S
C3438 H3424 0.930 . S
C3438 C3436 1.395 . S
C3438 C3441 1.403 . S
C3439 C3436 1.403 . S
C3439 C3440 1.524 . S
C3439 C3443 1.400 . S
C3440 H3425 0.960 . S
C3440 H3426 0.960 . S
C3440 H3427 0.960 . S
C3440 C3439 1.524 . S
C3441 C3438 1.403 . S
C3441 C3442 1.392 . S
C3441 C3445 1.495 . S
C3442 C3441 1.392 . S
C3442 C3443 1.385 . S
C3442 C3444 1.478 . S
C3443 H3437 0.930 . S
C3443 C3439 1.400 . S
C3443 C3442 1.385 . S
C3444 C3442 1.478 . S
C3444 C3446 1.381 . S
C3444 C3450 1.383 . S
C3445 C3441 1.495 . S
C3445 H3451 0.959 . S
C3445 H3452 0.961 . S
C3445 H3453 0.960 . S
C3446 C3444 1.381 . S
C3446 C3447 1.394 . S
C3446 H3454 0.930 . S
C3447 C3446 1.394 . S
C3447 C3448 1.383 . S
C3447 H3455 0.929 . S
C3448 C3447 1.383 . S
C3448 C3449 1.377 . S
C3449 H3433 0.930 . S
C3449 C3448 1.377 . S
C3449 C3450 1.379 . S
C3450 H3434 0.931 . S
C3450 C3444 1.383 . S
C3450 C3449 1.379 . S
H3451 C3445 0.959 . S
H3452 C3445 0.961 . S
H3453 C3445 0.960 . S
H3454 C3446 0.930 . S
H3455 C3447 0.929 . S
H3456 C3464 0.929 . S
H3457 C3466 0.930 . S
H3458 C3468 0.930 . S
H3459 C3471 0.929 . S
H3460 C3474 0.930 . S
H3461 C3476 0.960 . S
H3462 C3476 0.960 . S
H3463 C3476 0.960 . S
C3464 H3456 0.929 . S
C3464 C3465 1.377 . S
C3464 C3466 1.384 . S
C3465 C3464 1.377 . S
C3465 C3471 1.390 . S
C3466 H3457 0.930 . S
C3466 C3464 1.384 . S
C3466 C3467 1.372 . S
C3467 C3466 1.372 . S
C3467 C3468 1.400 . S
C3467 C3472 1.490 . S
C3468 H3458 0.930 . S
C3468 C3467 1.400 . S
C3468 C3471 1.386 . S
H3469 C3485 0.930 . S
H3470 C3486 0.931 1_565 S
C3471 H3459 0.929 . S
C3471 C3465 1.390 . S
C3471 C3468 1.386 . S
C3472 C3467 1.490 . S
C3472 C3474 1.395 1_556 S
C3472 C3475 1.403 . S
H3473 C3479 0.930 . S
C3474 H3460 0.930 . S
C3474 C3472 1.395 1_554 S
C3474 C3477 1.403 . S
C3475 C3472 1.403 . S
C3475 C3476 1.524 . S
C3475 C3479 1.400 . S
C3476 H3461 0.960 . S
C3476 H3462 0.960 . S
C3476 H3463 0.960 . S
C3476 C3475 1.524 . S
C3477 C3474 1.403 . S
C3477 C3478 1.392 . S
C3477 C3481 1.495 . S
C3478 C3477 1.392 . S
C3478 C3479 1.385 1_554 S
C3478 C3480 1.478 . S
C3479 H3473 0.930 . S
C3479 C3475 1.400 . S
C3479 C3478 1.385 1_556 S
C3480 C3478 1.478 . S
C3480 C3482 1.381 . S
C3480 C3486 1.383 1_565 S
C3481 C3477 1.495 . S
C3481 H3487 0.959 . S
C3481 H3488 0.961 . S
C3481 H3489 0.960 . S
C3482 C3480 1.381 . S
C3482 C3483 1.394 1_565 S
C3482 H3490 0.930 . S
C3483 C3482 1.394 1_545 S
C3483 C3484 1.383 . S
C3483 H3491 0.929 . S
C3484 C3483 1.383 . S
C3484 C3485 1.377 . S
C3485 H3469 0.930 . S
C3485 C3484 1.377 . S
C3485 C3486 1.379 . S
C3486 H3470 0.931 1_545 S
C3486 C3480 1.383 1_545 S
C3486 C3485 1.379 . S
H3487 C3481 0.959 . S
H3488 C3481 0.961 . S
H3489 C3481 0.960 . S
H3490 C3482 0.930 . S
H3491 C3483 0.929 . S
H3492 C3500 0.929 . S
H3493 C3502 1.085 . S
H3494 C3504 0.930 . S
H3495 C3507 0.929 . S
H3496 C3510 0.930 . S
H3497 C3512 0.960 . S
H3498 C3512 0.960 . S
H3499 C3512 0.960 . S
C3500 H3492 0.929 . S
C3500 C3501 1.377 . S
C3500 C3502 1.384 . S
C3501 C3500 1.377 . S
C3501 C3507 1.390 . S
C3502 H3493 1.085 . S
C3502 C3500 1.384 . S
C3502 C3503 1.372 1_655 S
C3503 C3502 1.372 1_455 S
C3503 C3504 1.400 . S
C3503 C3508 1.490 . S
C3504 H3494 0.930 . S
C3504 C3503 1.400 . S
C3504 C3507 1.386 1_455 S
H3505 C3521 0.930 . S
H3506 C3522 0.931 . S
C3507 H3495 0.929 . S
C3507 C3501 1.390 . S
C3507 C3504 1.386 1_655 S
C3508 C3503 1.490 . S
C3508 C3510 1.395 1_554 S
C3508 C3511 1.403 . S
H3509 C3515 0.963 . S
C3510 H3496 0.930 . S
C3510 C3508 1.395 1_556 S
C3510 C3513 1.403 . S
C3511 C3508 1.403 . S
C3511 C3512 1.524 . S
C3511 C3515 1.474 . S
C3512 H3497 0.960 . S
C3512 H3498 0.960 . S
C3512 H3499 0.960 . S
C3512 C3511 1.524 . S
C3513 C3510 1.403 . S
C3513 C3514 1.392 . S
C3513 C3517 1.495 . S
C3514 C3513 1.392 . S
C3514 C3515 1.291 1_556 S
C3514 C3516 1.478 . S
C3515 H3509 0.963 . S
C3515 C3511 1.474 . S
C3515 C3514 1.291 1_554 S
C3516 C3514 1.478 . S
C3516 C3518 1.381 . S
C3516 C3522 1.383 . S
C3517 C3513 1.495 . S
C3517 H3523 0.959 . S
C3517 H3524 0.961 . S
C3517 H3525 0.960 . S
C3518 C3516 1.381 . S
C3518 C3519 1.394 . S
C3518 H3526 0.930 . S
C3519 C3518 1.394 . S
C3519 C3520 1.383 . S
C3519 H3527 0.929 . S
C3520 C3519 1.383 . S
C3520 C3521 1.377 . S
C3521 H3505 0.930 . S
C3521 C3520 1.377 . S
C3521 C3522 1.379 . S
C3522 H3506 0.931 . S
C3522 C3516 1.383 . S
C3522 C3521 1.379 . S
H3523 C3517 0.959 . S
H3524 C3517 0.961 . S
H3525 C3517 0.960 . S
H3526 C3518 0.930 . S
H3527 C3519 0.929 . S
H3528 C3536 0.929 . S
H3529 C3538 0.930 . S
H3530 C3540 0.930 . S
H3531 C3543 0.929 . S
H3532 C3546 0.930 . S
H3533 C3548 0.960 . S
H3534 C3548 0.960 . S
H3535 C3548 0.960 . S
C3536 H3528 0.929 . S
C3536 C3537 1.377 . S
C3536 C3538 1.384 . S
C3537 C3536 1.377 . S
C3537 C3543 1.390 . S
C3538 H3529 0.930 . S
C3538 C3536 1.384 . S
C3538 C3539 1.372 . S
C3539 C3538 1.372 . S
C3539 C3540 1.400 . S
C3539 C3544 1.490 . S
C3540 H3530 0.930 . S
C3540 C3539 1.400 . S
C3540 C3543 1.386 . S
H3541 C3557 0.930 . S
H3542 C3558 0.931 . S
C3543 H3531 0.929 . S
C3543 C3537 1.390 . S
C3543 C3540 1.386 . S
C3544 C3539 1.490 . S
C3544 C3546 1.395 . S
C3544 C3547 1.403 1_556 S
H3545 C3551 0.930 . S
C3546 H3532 0.930 . S
C3546 C3544 1.395 . S
C3546 C3549 1.403 . S
C3547 C3544 1.403 1_554 S
C3547 C3548 1.524 . S
C3547 C3551 1.400 . S
C3548 H3533 0.960 . S
C3548 H3534 0.960 . S
C3548 H3535 0.960 . S
C3548 C3547 1.524 . S
C3549 C3546 1.403 . S
C3549 C3550 1.392 1_556 S
C3549 C3553 1.495 . S
C3550 C3549 1.392 1_554 S
C3550 C3551 1.385 . S
C3550 C3552 1.478 . S
C3551 H3545 0.930 . S
C3551 C3547 1.400 . S
C3551 C3550 1.385 . S
C3552 C3550 1.478 . S
C3552 C3554 1.381 . S
C3552 C3558 1.383 . S
C3553 C3549 1.495 . S
C3553 H3559 0.959 . S
C3553 H3560 0.961 . S
C3553 H3561 0.960 . S
C3554 C3552 1.381 . S
C3554 C3555 1.394 . S
C3554 H3562 0.930 . S
C3555 C3554 1.394 . S
C3555 C3556 1.383 . S
C3555 H3563 0.929 . S
C3556 C3555 1.383 . S
C3556 C3557 1.377 . S
C3557 H3541 0.930 . S
C3557 C3556 1.377 . S
C3557 C3558 1.379 . S
C3558 H3542 0.931 . S
C3558 C3552 1.383 . S
C3558 C3557 1.379 . S
H3559 C3553 0.959 . S
H3560 C3553 0.961 . S
H3561 C3553 0.960 . S
H3562 C3554 0.930 . S
H3563 C3555 0.929 . S
H3564 C3572 0.929 . S
H3565 C3574 0.930 . S
H3566 C3576 0.930 . S
H3567 C3579 0.929 . S
H3568 C3582 0.930 . S
H3569 C3584 0.960 . S
H3570 C3584 0.960 . S
H3571 C3584 0.960 . S
C3572 H3564 0.929 . S
C3572 C3573 1.377 . S
C3572 C3574 1.384 . S
C3573 C3572 1.377 . S
C3573 C3579 1.390 . S
C3574 H3565 0.930 . S
C3574 C3572 1.384 . S
C3574 C3575 1.372 1_655 S
C3575 C3574 1.372 1_455 S
C3575 C3576 1.400 . S
C3575 C3580 1.490 . S
C3576 H3566 0.930 . S
C3576 C3575 1.400 . S
C3576 C3579 1.386 1_455 S
H3577 C3593 0.930 . S
H3578 C3594 0.931 . S
C3579 H3567 0.929 . S
C3579 C3573 1.390 . S
C3579 C3576 1.386 1_655 S
C3580 C3575 1.490 . S
C3580 C3582 1.395 . S
C3580 C3583 1.403 . S
H3581 C3587 0.930 . S
C3582 H3568 0.930 . S
C3582 C3580 1.395 . S
C3582 C3585 1.403 . S
C3583 C3580 1.403 . S
C3583 C3584 1.524 . S
C3583 C3587 1.400 . S
C3584 H3569 0.960 . S
C3584 H3570 0.960 . S
C3584 H3571 0.960 . S
C3584 C3583 1.524 . S
C3585 C3582 1.403 . S
C3585 C3586 1.392 . S
C3585 C3589 1.495 . S
C3586 C3585 1.392 . S
C3586 C3587 1.385 . S
C3586 C3588 1.478 . S
C3587 H3581 0.930 . S
C3587 C3583 1.400 . S
C3587 C3586 1.385 . S
C3588 C3586 1.478 . S
C3588 C3590 1.381 . S
C3588 C3594 1.383 . S
C3589 C3585 1.495 . S
C3589 H3595 0.959 . S
C3589 H3596 0.961 . S
C3589 H3597 0.960 . S
C3590 C3588 1.381 . S
C3590 C3591 1.394 . S
C3590 H3598 0.930 . S
C3591 C3590 1.394 . S
C3591 C3592 1.383 . S
C3591 H3599 0.929 . S
C3592 C3591 1.383 . S
C3592 C3593 1.377 . S
C3593 H3577 0.930 . S
C3593 C3592 1.377 . S
C3593 C3594 1.379 . S
C3594 H3578 0.931 . S
C3594 C3588 1.383 . S
C3594 C3593 1.379 . S
H3595 C3589 0.959 . S
H3596 C3589 0.961 . S
H3597 C3589 0.960 . S
H3598 C3590 0.930 . S
H3599 C3591 0.929 . S
H3600 C3608 0.929 . S
H3601 C3610 0.930 . S
H3602 C3612 0.930 . S
H3603 C3615 0.929 . S
H3604 C3618 0.930 . S
H3605 C3620 0.960 . S
H3606 C3620 0.960 . S
H3607 C3620 0.960 . S
C3608 H3600 0.929 . S
C3608 C3609 1.377 . S
C3608 C3610 1.384 . S
C3609 C3608 1.377 . S
C3609 C3615 1.390 . S
C3610 H3601 0.930 . S
C3610 C3608 1.384 . S
C3610 C3611 1.372 . S
C3611 C3610 1.372 . S
C3611 C3612 1.400 . S
C3611 C3616 1.490 . S
C3612 H3602 0.930 . S
C3612 C3611 1.400 . S
C3612 C3615 1.386 . S
H3613 C3629 0.930 . S
H3614 C3630 0.931 . S
C3615 H3603 0.929 . S
C3615 C3609 1.390 . S
C3615 C3612 1.386 . S
C3616 C3611 1.490 . S
C3616 C3618 1.395 . S
C3616 C3619 1.403 . S
H3617 C3623 0.930 . S
C3618 H3604 0.930 . S
C3618 C3616 1.395 . S
C3618 C3621 1.403 . S
C3619 C3616 1.403 . S
C3619 C3620 1.524 . S
C3619 C3623 1.400 . S
C3620 H3605 0.960 . S
C3620 H3606 0.960 . S
C3620 H3607 0.960 . S
C3620 C3619 1.524 . S
C3621 C3618 1.403 . S
C3621 C3622 1.392 . S
C3621 C3625 1.495 . S
C3622 C3621 1.392 . S
C3622 C3623 1.385 . S
C3622 C3624 1.478 . S
C3623 H3617 0.930 . S
C3623 C3619 1.400 . S
C3623 C3622 1.385 . S
C3624 C3622 1.478 . S
C3624 C3626 1.381 . S
C3624 C3630 1.383 . S
C3625 C3621 1.495 . S
C3625 H3631 0.959 . S
C3625 H3632 0.961 . S
C3625 H3633 0.960 . S
C3626 C3624 1.381 . S
C3626 C3627 1.394 . S
C3626 H3634 0.930 . S
C3627 C3626 1.394 . S
C3627 C3628 1.383 . S
C3627 H3635 0.929 . S
C3628 C3627 1.383 . S
C3628 C3629 1.377 . S
C3629 H3613 0.930 . S
C3629 C3628 1.377 . S
C3629 C3630 1.379 . S
C3630 H3614 0.931 . S
C3630 C3624 1.383 . S
C3630 C3629 1.379 . S
H3631 C3625 0.959 . S
H3632 C3625 0.961 . S
H3633 C3625 0.960 . S
H3634 C3626 0.930 . S
H3635 C3627 0.929 . S
H3636 C3644 0.929 . S
H3637 C3646 0.930 . S
H3638 C3648 0.930 . S
H3639 C3651 0.929 . S
H3640 C3654 0.930 . S
H3641 C3656 0.960 . S
H3642 C3656 0.960 . S
H3643 C3656 0.960 . S
C3644 H3636 0.929 . S
C3644 C3645 1.377 . S
C3644 C3646 1.384 . S
C3645 C3644 1.377 . S
C3645 C3651 1.390 . S
C3646 H3637 0.930 . S
C3646 C3644 1.384 . S
C3646 C3647 1.372 . S
C3647 C3646 1.372 . S
C3647 C3648 1.400 . S
C3647 C3652 1.490 . S
C3648 H3638 0.930 . S
C3648 C3647 1.400 . S
C3648 C3651 1.386 . S
H3649 C3665 0.930 . S
H3650 C3666 0.931 . S
C3651 H3639 0.929 . S
C3651 C3645 1.390 . S
C3651 C3648 1.386 . S
C3652 C3647 1.490 . S
C3652 C3654 1.395 . S
C3652 C3655 1.403 . S
H3653 C3659 0.930 . S
C3654 H3640 0.930 . S
C3654 C3652 1.395 . S
C3654 C3657 1.403 . S
C3655 C3652 1.403 . S
C3655 C3656 1.524 . S
C3655 C3659 1.400 . S
C3656 H3641 0.960 . S
C3656 H3642 0.960 . S
C3656 H3643 0.960 . S
C3656 C3655 1.524 . S
C3657 C3654 1.403 . S
C3657 C3658 1.392 . S
C3657 C3661 1.495 . S
C3658 C3657 1.392 . S
C3658 C3659 1.385 . S
C3658 C3660 1.478 . S
C3659 H3653 0.930 . S
C3659 C3655 1.400 . S
C3659 C3658 1.385 . S
C3660 C3658 1.478 . S
C3660 C3662 1.381 1_565 S
C3660 C3666 1.383 . S
C3661 C3657 1.495 . S
C3661 H3667 0.959 . S
C3661 H3668 0.961 . S
C3661 H3669 0.960 1_565 S
C3662 C3660 1.381 1_545 S
C3662 C3663 1.394 . S
C3662 H3670 0.930 . S
C3663 C3662 1.394 . S
C3663 C3664 1.383 . S
C3663 H3671 0.929 . S
C3664 C3663 1.383 . S
C3664 C3665 1.377 . S
C3665 H3649 0.930 . S
C3665 C3664 1.377 . S
C3665 C3666 1.379 1_545 S
C3666 H3650 0.931 . S
C3666 C3660 1.383 . S
C3666 C3665 1.379 1_565 S
H3667 C3661 0.959 . S
H3668 C3661 0.961 . S
H3669 C3661 0.960 1_545 S
H3670 C3662 0.930 . S
H3671 C3663 0.929 . S
H3672 C3680 0.929 . S
H3673 C3682 0.930 . S
H3674 C3684 0.930 1_455 S
H3675 C3687 0.929 . S
H3676 C3690 0.930 . S
H3677 C3692 0.960 . S
H3678 C3692 0.960 . S
H3679 C3692 0.960 . S
C3680 H3672 0.929 . S
C3680 C3681 1.377 . S
C3680 C3682 1.384 . S
C3681 C3680 1.377 . S
C3681 C3687 1.390 . S
C3682 H3673 0.930 . S
C3682 C3680 1.384 . S
C3682 C3683 1.372 . S
C3683 C3682 1.372 . S
C3683 C3684 1.400 . S
C3683 C3688 1.490 . S
C3684 H3674 0.930 1_655 S
C3684 C3683 1.400 . S
C3684 C3687 1.386 . S
H3685 C3701 0.930 . S
H3686 C3702 0.931 . S
C3687 H3675 0.929 . S
C3687 C3681 1.390 . S
C3687 C3684 1.386 . S
C3688 C3683 1.490 . S
C3688 C3690 1.395 . S
C3688 C3691 1.403 . S
H3689 C3695 0.930 . S
C3690 H3676 0.930 . S
C3690 C3688 1.395 . S
C3690 C3693 1.403 . S
C3691 C3688 1.403 . S
C3691 C3692 1.524 1_655 S
C3691 C3695 1.400 1_655 S
C3692 H3677 0.960 . S
C3692 H3678 0.960 . S
C3692 H3679 0.960 . S
C3692 C3691 1.524 1_455 S
C3693 C3690 1.403 . S
C3693 C3694 1.392 . S
C3693 C3697 1.495 . S
C3694 C3693 1.392 . S
C3694 C3695 1.385 1_655 S
C3694 C3696 1.478 . S
C3695 H3689 0.930 . S
C3695 C3691 1.400 1_455 S
C3695 C3694 1.385 1_455 S
C3696 C3694 1.478 . S
C3696 C3698 1.381 . S
C3696 C3702 1.383 1_655 S
C3697 C3693 1.495 . S
C3697 H3703 0.959 . S
C3697 H3704 0.961 . S
C3697 H3705 0.960 . S
C3698 C3696 1.381 . S
C3698 C3699 1.394 . S
C3698 H3706 0.930 . S
C3699 C3698 1.394 . S
C3699 C3700 1.383 1_655 S
C3699 H3707 0.929 . S
C3700 C3699 1.383 1_455 S
C3700 C3701 1.377 . S
C3701 H3685 0.930 . S
C3701 C3700 1.377 . S
C3701 C3702 1.379 . S
C3702 H3686 0.931 . S
C3702 C3696 1.383 1_455 S
C3702 C3701 1.379 . S
H3703 C3697 0.959 . S
H3704 C3697 0.961 . S
H3705 C3697 0.960 . S
H3706 C3698 0.930 . S
H3707 C3699 0.929 . S
H3708 C3716 0.929 . S
H3709 C3718 0.930 . S
H3710 C3720 0.930 . S
H3711 C3723 0.929 . S
H3712 C3726 0.930 . S
H3713 C3728 0.960 . S
H3714 C3728 0.960 . S
H3715 C3728 0.960 . S
C3716 H3708 0.929 . S
C3716 C3717 1.377 . S
C3716 C3718 1.384 . S
C3717 C3716 1.377 . S
C3717 C3723 1.390 . S
C3718 H3709 0.930 . S
C3718 C3716 1.384 . S
C3718 C3719 1.372 . S
C3719 C3718 1.372 . S
C3719 C3720 1.400 . S
C3719 C3724 1.490 . S
C3720 H3710 0.930 . S
C3720 C3719 1.400 . S
C3720 C3723 1.386 . S
H3721 C3737 0.930 . S
H3722 C3738 0.931 . S
C3723 H3711 0.929 . S
C3723 C3717 1.390 . S
C3723 C3720 1.386 . S
C3724 C3719 1.490 . S
C3724 C3726 1.395 . S
C3724 C3727 1.403 . S
H3725 C3731 0.930 . S
C3726 H3712 0.930 . S
C3726 C3724 1.395 . S
C3726 C3729 1.403 . S
C3727 C3724 1.403 . S
C3727 C3728 1.524 . S
C3727 C3731 1.400 . S
C3728 H3713 0.960 . S
C3728 H3714 0.960 . S
C3728 H3715 0.960 . S
C3728 C3727 1.524 . S
C3729 C3726 1.403 . S
C3729 C3730 1.392 . S
C3729 C3733 1.495 . S
C3730 C3729 1.392 . S
C3730 C3731 1.385 . S
C3730 C3732 1.478 . S
C3731 H3725 0.930 . S
C3731 C3727 1.400 . S
C3731 C3730 1.385 . S
C3732 C3730 1.478 . S
C3732 C3734 1.381 . S
C3732 C3738 1.383 . S
C3733 C3729 1.495 . S
C3733 H3739 0.959 . S
C3733 H3740 0.961 . S
C3733 H3741 0.960 . S
C3734 C3732 1.381 . S
C3734 C3735 1.394 . S
C3734 H3742 0.930 . S
C3735 C3734 1.394 . S
C3735 C3736 1.383 . S
C3735 H3743 0.929 . S
C3736 C3735 1.383 . S
C3736 C3737 1.377 . S
C3737 H3721 0.930 . S
C3737 C3736 1.377 . S
C3737 C3738 1.379 . S
C3738 H3722 0.931 . S
C3738 C3732 1.383 . S
C3738 C3737 1.379 . S
H3739 C3733 0.959 . S
H3740 C3733 0.961 . S
H3741 C3733 0.960 . S
H3742 C3734 0.930 . S
H3743 C3735 0.929 . S
H3744 C3752 0.929 . S
H3745 C3754 0.930 . S
H3746 C3756 0.930 . S
H3747 C3759 0.929 . S
H3748 C3762 0.930 . S
H3749 C3764 0.960 . S
H3750 C3764 0.960 . S
H3751 C3764 0.960 . S
C3752 H3744 0.929 . S
C3752 C3753 1.377 . S
C3752 C3754 1.384 . S
C3753 C3752 1.377 . S
C3753 C3759 1.390 . S
C3754 H3745 0.930 . S
C3754 C3752 1.384 . S
C3754 C3755 1.372 . S
C3755 C3754 1.372 . S
C3755 C3756 1.400 . S
C3755 C3760 1.490 . S
C3756 H3746 0.930 . S
C3756 C3755 1.400 . S
C3756 C3759 1.386 . S
H3757 C3773 0.930 . S
H3758 C3774 0.931 . S
C3759 H3747 0.929 . S
C3759 C3753 1.390 . S
C3759 C3756 1.386 . S
C3760 C3755 1.490 . S
C3760 C3762 1.395 . S
C3760 C3763 1.403 1_545 S
H3761 C3767 0.930 . S
C3762 H3748 0.930 . S
C3762 C3760 1.395 . S
C3762 C3765 1.403 . S
C3763 C3760 1.403 1_565 S
C3763 C3764 1.524 . S
C3763 C3767 1.400 . S
C3764 H3749 0.960 . S
C3764 H3750 0.960 . S
C3764 H3751 0.960 . S
C3764 C3763 1.524 . S
C3765 C3762 1.403 . S
C3765 C3766 1.392 . S
C3765 C3769 1.495 . S
C3766 C3765 1.392 . S
C3766 C3767 1.385 1_545 S
C3766 C3768 1.478 . S
C3767 H3761 0.930 . S
C3767 C3763 1.400 . S
C3767 C3766 1.385 1_565 S
C3768 C3766 1.478 . S
C3768 C3770 1.381 1_545 S
C3768 C3774 1.383 . S
C3769 C3765 1.495 . S
C3769 H3775 0.959 . S
C3769 H3776 0.961 . S
C3769 H3777 0.960 . S
C3770 C3768 1.381 1_565 S
C3770 C3771 1.394 . S
C3770 H3778 0.930 . S
C3771 C3770 1.394 . S
C3771 C3772 1.383 . S
C3771 H3779 0.929 . S
C3772 C3771 1.383 . S
C3772 C3773 1.377 . S
C3773 H3757 0.930 . S
C3773 C3772 1.377 . S
C3773 C3774 1.379 1_565 S
C3774 H3758 0.931 . S
C3774 C3768 1.383 . S
C3774 C3773 1.379 1_545 S
H3775 C3769 0.959 . S
H3776 C3769 0.961 . S
H3777 C3769 0.960 . S
H3778 C3770 0.930 . S
H3779 C3771 0.929 . S
H3780 C3788 0.929 . S
H3781 C3790 0.930 1_455 S
H3782 C3792 0.930 . S
H3783 C3795 0.929 . S
H3784 C3798 0.930 . S
H3785 C3800 0.960 . S
H3786 C3800 0.960 . S
H3787 C3800 0.960 . S
C3788 H3780 0.929 . S
C3788 C3789 1.377 . S
C3788 C3790 1.384 . S
C3789 C3788 1.377 . S
C3789 C3795 1.390 . S
C3790 H3781 0.930 1_655 S
C3790 C3788 1.384 . S
C3790 C3791 1.372 . S
C3791 C3790 1.372 . S
C3791 C3792 1.400 . S
C3791 C3796 1.490 . S
C3792 H3782 0.930 . S
C3792 C3791 1.400 . S
C3792 C3795 1.386 . S
H3793 C3809 0.930 . S
H3794 C3810 0.931 . S
C3795 H3783 0.929 . S
C3795 C3789 1.390 . S
C3795 C3792 1.386 . S
C3796 C3791 1.490 . S
C3796 C3798 1.395 1_655 S
C3796 C3799 1.403 . S
H3797 C3803 0.925 1_655 S
C3798 H3784 0.930 . S
C3798 C3796 1.395 1_455 S
C3798 C3801 1.403 . S
C3799 C3796 1.403 . S
C3799 C3800 1.524 . S
C3799 C3803 1.393 1_655 S
C3800 H3785 0.960 . S
C3800 H3786 0.960 . S
C3800 H3787 0.960 . S
C3800 C3799 1.524 . S
C3801 C3798 1.403 . S
C3801 C3802 1.392 . S
C3801 C3805 1.495 . S
C3802 C3801 1.392 . S
C3802 C3803 1.398 . S
C3802 C3804 1.478 . S
C3803 H3797 0.925 1_455 S
C3803 C3799 1.393 1_455 S
C3803 C3802 1.398 . S
C3804 C3802 1.478 . S
C3804 C3806 1.381 . S
C3804 C3810 1.383 . S
C3805 C3801 1.495 . S
C3805 H3811 0.959 . S
C3805 H3812 0.961 . S
C3805 H3813 0.960 . S
C3806 C3804 1.381 . S
C3806 C3807 1.394 . S
C3806 H3814 0.930 . S
C3807 C3806 1.394 . S
C3807 C3808 1.383 . S
C3807 H3815 0.929 . S
C3808 C3807 1.383 . S
C3808 C3809 1.377 . S
C3809 H3793 0.930 . S
C3809 C3808 1.377 . S
C3809 C3810 1.379 . S
C3810 H3794 0.931 . S
C3810 C3804 1.383 . S
C3810 C3809 1.379 . S
H3811 C3805 0.959 . S
H3812 C3805 0.961 . S
H3813 C3805 0.960 . S
H3814 C3806 0.930 . S
H3815 C3807 0.929 . S
H3816 C3824 0.929 . S
H3817 C3826 0.930 . S
H3818 C3828 0.930 . S
H3819 C3831 0.929 . S
H3820 C3834 0.930 . S
H3821 C3836 0.960 . S
H3822 C3836 0.960 . S
H3823 C3836 0.960 . S
C3824 H3816 0.929 . S
C3824 C3825 1.377 . S
C3824 C3826 1.384 . S
C3825 C3824 1.377 . S
C3825 C3831 1.390 . S
C3826 H3817 0.930 . S
C3826 C3824 1.384 . S
C3826 C3827 1.372 . S
C3827 C3826 1.372 . S
C3827 C3828 1.400 . S
C3827 C3832 1.490 . S
C3828 H3818 0.930 . S
C3828 C3827 1.400 . S
C3828 C3831 1.386 . S
H3829 C3845 0.930 . S
H3830 C3846 0.931 . S
C3831 H3819 0.929 . S
C3831 C3825 1.390 . S
C3831 C3828 1.386 . S
C3832 C3827 1.490 . S
C3832 C3834 1.395 . S
C3832 C3835 1.403 . S
H3833 C3839 0.930 . S
C3834 H3820 0.930 . S
C3834 C3832 1.395 . S
C3834 C3837 1.403 . S
C3835 C3832 1.403 . S
C3835 C3836 1.524 . S
C3835 C3839 1.400 . S
C3836 H3821 0.960 . S
C3836 H3822 0.960 . S
C3836 H3823 0.960 . S
C3836 C3835 1.524 . S
C3837 C3834 1.403 . S
C3837 C3838 1.392 . S
C3837 C3841 1.495 . S
C3838 C3837 1.392 . S
C3838 C3839 1.385 . S
C3838 C3840 1.478 . S
C3839 H3833 0.930 . S
C3839 C3835 1.400 . S
C3839 C3838 1.385 . S
C3840 C3838 1.478 . S
C3840 C3842 1.381 . S
C3840 C3846 1.383 . S
C3841 C3837 1.495 . S
C3841 H3847 0.959 . S
C3841 H3848 0.961 . S
C3841 H3849 0.960 . S
C3842 C3840 1.381 . S
C3842 C3843 1.394 . S
C3842 H3850 0.930 . S
C3843 C3842 1.394 . S
C3843 C3844 1.383 . S
C3843 H3851 0.929 . S
C3844 C3843 1.383 . S
C3844 C3845 1.377 . S
C3845 H3829 0.930 . S
C3845 C3844 1.377 . S
C3845 C3846 1.379 . S
C3846 H3830 0.931 . S
C3846 C3840 1.383 . S
C3846 C3845 1.379 . S
H3847 C3841 0.959 . S
H3848 C3841 0.961 . S
H3849 C3841 0.960 . S
H3850 C3842 0.930 . S
H3851 C3843 0.929 . S
H3852 C3860 0.929 . S
H3853 C3862 0.930 . S
H3854 C3864 0.930 . S
H3855 C3867 0.929 . S
H3856 C3870 0.930 . S
H3857 C3872 0.960 . S
H3858 C3872 0.960 . S
H3859 C3872 0.960 . S
C3860 H3852 0.929 . S
C3860 C3861 1.377 . S
C3860 C3862 1.384 . S
C3861 C3860 1.377 . S
C3861 C3867 1.390 . S
C3862 H3853 0.930 . S
C3862 C3860 1.384 . S
C3862 C3863 1.372 . S
C3863 C3862 1.372 . S
C3863 C3864 1.400 . S
C3863 C3868 1.490 . S
C3864 H3854 0.930 . S
C3864 C3863 1.400 . S
C3864 C3867 1.386 . S
H3865 C3881 0.930 . S
H3866 C3882 0.931 . S
C3867 H3855 0.929 . S
C3867 C3861 1.390 . S
C3867 C3864 1.386 . S
C3868 C3863 1.490 . S
C3868 C3870 1.395 1_565 S
C3868 C3871 1.403 . S
H3869 C3875 0.930 . S
C3870 H3856 0.930 . S
C3870 C3868 1.395 1_545 S
C3870 C3873 1.403 . S
C3871 C3868 1.403 . S
C3871 C3872 1.524 . S
C3871 C3875 1.400 . S
C3872 H3857 0.960 . S
C3872 H3858 0.960 . S
C3872 H3859 0.960 . S
C3872 C3871 1.524 . S
C3873 C3870 1.403 . S
C3873 C3874 1.392 . S
C3873 C3877 1.495 . S
C3874 C3873 1.392 . S
C3874 C3875 1.385 1_545 S
C3874 C3876 1.478 . S
C3875 H3869 0.930 . S
C3875 C3871 1.400 . S
C3875 C3874 1.385 1_565 S
C3876 C3874 1.478 . S
C3876 C3878 1.381 . S
C3876 C3882 1.383 . S
C3877 C3873 1.495 . S
C3877 H3883 0.959 . S
C3877 H3884 0.961 . S
C3877 H3885 0.960 . S
C3878 C3876 1.381 . S
C3878 C3879 1.394 . S
C3878 H3886 0.930 . S
C3879 C3878 1.394 . S
C3879 C3880 1.383 . S
C3879 H3887 0.929 . S
C3880 C3879 1.383 . S
C3880 C3881 1.377 . S
C3881 H3865 0.930 . S
C3881 C3880 1.377 . S
C3881 C3882 1.379 . S
C3882 H3866 0.931 . S
C3882 C3876 1.383 . S
C3882 C3881 1.379 . S
H3883 C3877 0.959 . S
H3884 C3877 0.961 . S
H3885 C3877 0.960 . S
H3886 C3878 0.930 . S
H3887 C3879 0.929 . S
H3888 C3896 0.929 . S
H3889 C3898 0.930 . S
H3890 C3900 0.930 . S
H3891 C3903 0.929 . S
H3892 C3906 0.930 . S
H3893 C3908 0.960 . S
H3894 C3908 0.960 . S
H3895 C3908 0.960 . S
C3896 H3888 0.929 . S
C3896 C3897 1.377 . S
C3896 C3898 1.384 . S
C3897 C3896 1.377 . S
C3897 C3903 1.390 . S
C3898 H3889 0.930 . S
C3898 C3896 1.384 . S
C3898 C3899 1.372 . S
C3899 C3898 1.372 . S
C3899 C3900 1.400 . S
C3899 C3904 1.490 . S
C3900 H3890 0.930 . S
C3900 C3899 1.400 . S
C3900 C3903 1.386 . S
H3901 C3917 0.930 . S
H3902 C3918 0.931 . S
C3903 H3891 0.929 . S
C3903 C3897 1.390 . S
C3903 C3900 1.386 . S
C3904 C3899 1.490 . S
C3904 C3906 1.395 . S
C3904 C3907 1.403 1_655 S
H3905 C3911 0.930 . S
C3906 H3892 0.930 . S
C3906 C3904 1.395 . S
C3906 C3909 1.403 . S
C3907 C3904 1.403 1_455 S
C3907 C3908 1.524 . S
C3907 C3911 1.400 . S
C3908 H3893 0.960 . S
C3908 H3894 0.960 . S
C3908 H3895 0.960 . S
C3908 C3907 1.524 . S
C3909 C3906 1.403 . S
C3909 C3910 1.392 1_655 S
C3909 C3913 1.495 . S
C3910 C3909 1.392 1_455 S
C3910 C3911 1.385 . S
C3910 C3912 1.478 . S
C3911 H3905 0.930 . S
C3911 C3907 1.400 . S
C3911 C3910 1.385 . S
C3912 C3910 1.478 . S
C3912 C3914 1.381 . S
C3912 C3918 1.383 . S
C3913 C3909 1.495 . S
C3913 H3919 0.959 . S
C3913 H3920 0.961 . S
C3913 H3921 0.960 . S
C3914 C3912 1.381 . S
C3914 C3915 1.394 . S
C3914 H3922 0.930 . S
C3915 C3914 1.394 . S
C3915 C3916 1.383 . S
C3915 H3923 0.929 . S
C3916 C3915 1.383 . S
C3916 C3917 1.377 . S
C3917 H3901 0.930 . S
C3917 C3916 1.377 . S
C3917 C3918 1.379 . S
C3918 H3902 0.931 . S
C3918 C3912 1.383 . S
C3918 C3917 1.379 . S
H3919 C3913 0.959 . S
H3920 C3913 0.961 . S
H3921 C3913 0.960 . S
H3922 C3914 0.930 . S
H3923 C3915 0.929 . S
H3924 C3932 0.929 . S
H3925 C3934 0.930 . S
H3926 C3936 0.930 . S
H3927 C3939 0.929 . S
H3928 C3942 0.930 . S
H3929 C3944 0.960 . S
H3930 C3944 0.960 . S
H3931 C3944 0.960 . S
C3932 H3924 0.929 . S
C3932 C3933 1.377 . S
C3932 C3934 1.384 . S
C3933 C3932 1.377 . S
C3933 C3939 1.390 . S
C3934 H3925 0.930 . S
C3934 C3932 1.384 . S
C3934 C3935 1.372 . S
C3935 C3934 1.372 . S
C3935 C3936 1.400 . S
C3935 C3940 1.490 . S
C3936 H3926 0.930 . S
C3936 C3935 1.400 . S
C3936 C3939 1.386 . S
H3937 C3953 0.930 . S
H3938 C3954 0.931 . S
C3939 H3927 0.929 . S
C3939 C3933 1.390 . S
C3939 C3936 1.386 . S
C3940 C3935 1.490 . S
C3940 C3942 1.395 . S
C3940 C3943 1.403 . S
H3941 C3947 0.930 . S
C3942 H3928 0.930 . S
C3942 C3940 1.395 . S
C3942 C3945 1.403 . S
C3943 C3940 1.403 . S
C3943 C3944 1.524 . S
C3943 C3947 1.400 . S
C3944 H3929 0.960 . S
C3944 H3930 0.960 . S
C3944 H3931 0.960 . S
C3944 C3943 1.524 . S
C3945 C3942 1.403 . S
C3945 C3946 1.392 . S
C3945 C3949 1.495 . S
C3946 C3945 1.392 . S
C3946 C3947 1.385 . S
C3946 C3948 1.478 . S
C3947 H3941 0.930 . S
C3947 C3943 1.400 . S
C3947 C3946 1.385 . S
C3948 C3946 1.478 . S
C3948 C3950 1.381 . S
C3948 C3954 1.383 . S
C3949 C3945 1.495 . S
C3949 H3955 0.959 . S
C3949 H3956 0.961 . S
C3949 H3957 0.960 . S
C3950 C3948 1.381 . S
C3950 C3951 1.394 . S
C3950 H3958 0.930 . S
C3951 C3950 1.394 . S
C3951 C3952 1.383 . S
C3951 H3959 0.929 . S
C3952 C3951 1.383 . S
C3952 C3953 1.377 . S
C3953 H3937 0.930 . S
C3953 C3952 1.377 . S
C3953 C3954 1.379 . S
C3954 H3938 0.931 . S
C3954 C3948 1.383 . S
C3954 C3953 1.379 . S
H3955 C3949 0.959 . S
H3956 C3949 0.961 . S
H3957 C3949 0.960 . S
H3958 C3950 0.930 . S
H3959 C3951 0.929 . S
H3960 C3968 0.929 . S
H3961 C3970 0.930 . S
H3962 C3972 0.930 . S
H3963 C3975 0.929 . S
H3964 C3978 0.930 . S
H3965 C3980 0.960 . S
H3966 C3980 0.960 . S
H3967 C3980 0.960 . S
C3968 H3960 0.929 . S
C3968 C3969 1.377 . S
C3968 C3970 1.384 . S
C3969 C3968 1.377 . S
C3969 C3975 1.390 . S
C3970 H3961 0.930 . S
C3970 C3968 1.384 . S
C3970 C3971 1.372 . S
C3971 C3970 1.372 . S
C3971 C3972 1.400 . S
C3971 C3976 1.490 . S
C3972 H3962 0.930 . S
C3972 C3971 1.400 . S
C3972 C3975 1.386 . S
H3973 C3989 0.930 . S
H3974 C3990 0.931 . S
C3975 H3963 0.929 . S
C3975 C3969 1.390 . S
C3975 C3972 1.386 . S
C3976 C3971 1.490 . S
C3976 C3978 1.395 1_545 S
C3976 C3979 1.403 . S
H3977 C3983 0.921 . S
C3978 H3964 0.930 . S
C3978 C3976 1.395 1_565 S
C3978 C3981 1.403 . S
C3979 C3976 1.403 . S
C3979 C3980 1.524 . S
C3979 C3983 1.403 . S
C3980 H3965 0.960 . S
C3980 H3966 0.960 . S
C3980 H3967 0.960 . S
C3980 C3979 1.524 . S
C3981 C3978 1.403 . S
C3981 C3982 1.392 . S
C3981 C3985 1.495 . S
C3982 C3981 1.392 . S
C3982 C3983 1.380 1_565 S
C3982 C3984 1.478 . S
C3983 H3977 0.921 . S
C3983 C3979 1.403 . S
C3983 C3982 1.380 1_545 S
C3984 C3982 1.478 . S
C3984 C3986 1.381 . S
C3984 C3990 1.383 . S
C3985 C3981 1.495 . S
C3985 H3991 0.959 . S
C3985 H3992 0.961 . S
C3985 H3993 0.960 . S
C3986 C3984 1.381 . S
C3986 C3987 1.394 . S
C3986 H3994 0.930 . S
C3987 C3986 1.394 . S
C3987 C3988 1.383 . S
C3987 H3995 0.929 . S
C3988 C3987 1.383 . S
C3988 C3989 1.377 . S
C3989 H3973 0.930 . S
C3989 C3988 1.377 . S
C3989 C3990 1.379 . S
C3990 H3974 0.931 . S
C3990 C3984 1.383 . S
C3990 C3989 1.379 . S
H3991 C3985 0.959 . S
H3992 C3985 0.961 . S
H3993 C3985 0.960 . S
H3994 C3986 0.930 . S
H3995 C3987 0.929 . S
H3996 C4004 0.929 . S
H3997 C4006 0.930 . S
H3998 C4008 0.930 . S
H3999 C4011 0.929 . S
H4000 C4014 0.930 . S
H4001 C4016 0.960 . S
H4002 C4016 0.960 . S
H4003 C4016 0.960 . S
C4004 H3996 0.929 . S
C4004 C4005 1.377 . S
C4004 C4006 1.384 . S
C4005 C4004 1.377 . S
C4005 C4011 1.390 . S
C4006 H3997 0.930 . S
C4006 C4004 1.384 . S
C4006 C4007 1.372 . S
C4007 C4006 1.372 . S
C4007 C4008 1.400 . S
C4007 C4012 1.490 . S
C4008 H3998 0.930 . S
C4008 C4007 1.400 . S
C4008 C4011 1.386 . S
H4009 C4025 0.930 . S
H4010 C4026 0.931 . S
C4011 H3999 0.929 . S
C4011 C4005 1.390 . S
C4011 C4008 1.386 . S
C4012 C4007 1.490 . S
C4012 C4014 1.395 . S
C4012 C4015 1.403 . S
H4013 C4019 0.930 . S
C4014 H4000 0.930 . S
C4014 C4012 1.395 . S
C4014 C4017 1.403 . S
C4015 C4012 1.403 . S
C4015 C4016 1.524 . S
C4015 C4019 1.400 . S
C4016 H4001 0.960 . S
C4016 H4002 0.960 . S
C4016 H4003 0.960 . S
C4016 C4015 1.524 . S
C4017 C4014 1.403 . S
C4017 C4018 1.392 . S
C4017 C4021 1.495 . S
C4018 C4017 1.392 . S
C4018 C4019 1.385 . S
C4018 C4020 1.478 . S
C4019 H4013 0.930 . S
C4019 C4015 1.400 . S
C4019 C4018 1.385 . S
C4020 C4018 1.478 . S
C4020 C4022 1.381 . S
C4020 C4026 1.383 . S
C4021 C4017 1.495 . S
C4021 H4027 0.959 . S
C4021 H4028 0.961 . S
C4021 H4029 0.960 . S
C4022 C4020 1.381 . S
C4022 C4023 1.394 . S
C4022 H4030 0.930 . S
C4023 C4022 1.394 . S
C4023 C4024 1.383 . S
C4023 H4031 0.929 . S
C4024 C4023 1.383 . S
C4024 C4025 1.377 . S
C4025 H4009 0.930 . S
C4025 C4024 1.377 . S
C4025 C4026 1.379 . S
C4026 H4010 0.931 . S
C4026 C4020 1.383 . S
C4026 C4025 1.379 . S
H4027 C4021 0.959 . S
H4028 C4021 0.961 . S
H4029 C4021 0.960 . S
H4030 C4022 0.930 . S
H4031 C4023 0.929 . S
H4032 C4040 0.929 . S
H4033 C4042 0.930 . S
H4034 C4044 0.930 . S
H4035 C4047 0.929 . S
H4036 C4050 0.930 . S
H4037 C4052 0.960 . S
H4038 C4052 0.960 . S
H4039 C4052 0.960 . S
C4040 H4032 0.929 . S
C4040 C4041 1.377 . S
C4040 C4042 1.384 . S
C4041 C4040 1.377 . S
C4041 C4047 1.390 . S
C4042 H4033 0.930 . S
C4042 C4040 1.384 . S
C4042 C4043 1.372 . S
C4043 C4042 1.372 . S
C4043 C4044 1.400 . S
C4043 C4048 1.490 . S
C4044 H4034 0.930 . S
C4044 C4043 1.400 . S
C4044 C4047 1.386 . S
H4045 C4061 0.930 . S
H4046 C4062 0.931 . S
C4047 H4035 0.929 . S
C4047 C4041 1.390 . S
C4047 C4044 1.386 . S
C4048 C4043 1.490 . S
C4048 C4050 1.395 . S
C4048 C4051 1.403 . S
H4049 C4055 0.930 . S
C4050 H4036 0.930 . S
C4050 C4048 1.395 . S
C4050 C4053 1.403 . S
C4051 C4048 1.403 . S
C4051 C4052 1.524 . S
C4051 C4055 1.400 . S
C4052 H4037 0.960 . S
C4052 H4038 0.960 . S
C4052 H4039 0.960 . S
C4052 C4051 1.524 . S
C4053 C4050 1.403 . S
C4053 C4054 1.392 . S
C4053 C4057 1.495 . S
C4054 C4053 1.392 . S
C4054 C4055 1.385 . S
C4054 C4056 1.478 . S
C4055 H4049 0.930 . S
C4055 C4051 1.400 . S
C4055 C4054 1.385 . S
C4056 C4054 1.478 . S
C4056 C4058 1.381 . S
C4056 C4062 1.383 . S
C4057 C4053 1.495 . S
C4057 H4063 0.959 . S
C4057 H4064 0.961 . S
C4057 H4065 0.960 . S
C4058 C4056 1.381 . S
C4058 C4059 1.394 . S
C4058 H4066 0.930 . S
C4059 C4058 1.394 . S
C4059 C4060 1.383 . S
C4059 H4067 0.929 . S
C4060 C4059 1.383 . S
C4060 C4061 1.377 . S
C4061 H4045 0.930 . S
C4061 C4060 1.377 . S
C4061 C4062 1.379 . S
C4062 H4046 0.931 . S
C4062 C4056 1.383 . S
C4062 C4061 1.379 . S
H4063 C4057 0.959 . S
H4064 C4057 0.961 . S
H4065 C4057 0.960 . S
H4066 C4058 0.930 . S
H4067 C4059 0.929 . S
H4068 C4076 0.929 . S
H4069 C4078 0.930 . S
H4070 C4080 0.930 . S
H4071 C4083 0.929 . S
H4072 C4086 0.930 . S
H4073 C4088 0.960 . S
H4074 C4088 0.960 . S
H4075 C4088 0.960 . S
C4076 H4068 0.929 . S
C4076 C4077 1.377 . S
C4076 C4078 1.384 . S
C4077 C4076 1.377 . S
C4077 C4083 1.390 . S
C4078 H4069 0.930 . S
C4078 C4076 1.384 . S
C4078 C4079 1.372 . S
C4079 C4078 1.372 . S
C4079 C4080 1.400 . S
C4079 C4084 1.490 . S
C4080 H4070 0.930 . S
C4080 C4079 1.400 . S
C4080 C4083 1.386 . S
H4081 C4097 0.930 . S
H4082 C4098 0.931 . S
C4083 H4071 0.929 . S
C4083 C4077 1.390 . S
C4083 C4080 1.386 . S
C4084 C4079 1.490 . S
C4084 C4086 1.395 . S
C4084 C4087 1.403 . S
H4085 C4091 0.930 . S
C4086 H4072 0.930 . S
C4086 C4084 1.395 . S
C4086 C4089 1.403 . S
C4087 C4084 1.403 . S
C4087 C4088 1.524 . S
C4087 C4091 1.400 . S
C4088 H4073 0.960 . S
C4088 H4074 0.960 . S
C4088 H4075 0.960 . S
C4088 C4087 1.524 . S
C4089 C4086 1.403 . S
C4089 C4090 1.392 . S
C4089 C4093 1.495 . S
C4090 C4089 1.392 . S
C4090 C4091 1.385 . S
C4090 C4092 1.478 . S
C4091 H4085 0.930 . S
C4091 C4087 1.400 . S
C4091 C4090 1.385 . S
C4092 C4090 1.478 . S
C4092 C4094 1.381 . S
C4092 C4098 1.383 . S
C4093 C4089 1.495 . S
C4093 H4099 0.959 . S
C4093 H4100 0.961 . S
C4093 H4101 0.960 . S
C4094 C4092 1.381 . S
C4094 C4095 1.394 . S
C4094 H4102 0.930 . S
C4095 C4094 1.394 . S
C4095 C4096 1.383 . S
C4095 H4103 0.929 . S
C4096 C4095 1.383 . S
C4096 C4097 1.377 . S
C4097 H4081 0.930 . S
C4097 C4096 1.377 . S
C4097 C4098 1.379 . S
C4098 H4082 0.931 . S
C4098 C4092 1.383 . S
C4098 C4097 1.379 . S
H4099 C4093 0.959 . S
H4100 C4093 0.961 . S
H4101 C4093 0.960 . S
H4102 C4094 0.930 . S
H4103 C4095 0.929 . S
H4104 C4112 0.929 . S
H4105 C4114 0.930 . S
H4106 C4116 0.930 . S
H4107 C4119 0.929 . S
H4108 C4122 0.930 . S
H4109 C4124 0.960 . S
H4110 C4124 0.960 . S
H4111 C4124 0.960 . S
C4112 H4104 0.929 . S
C4112 C4113 1.377 . S
C4112 C4114 1.384 . S
C4113 C4112 1.377 . S
C4113 C4119 1.390 . S
C4114 H4105 0.930 . S
C4114 C4112 1.384 . S
C4114 C4115 1.372 . S
C4115 C4114 1.372 . S
C4115 C4116 1.400 . S
C4115 C4120 1.490 . S
C4116 H4106 0.930 . S
C4116 C4115 1.400 . S
C4116 C4119 1.386 . S
H4117 C4133 0.930 . S
H4118 C4134 0.931 . S
C4119 H4107 0.929 . S
C4119 C4113 1.390 . S
C4119 C4116 1.386 . S
C4120 C4115 1.490 . S
C4120 C4122 1.395 . S
C4120 C4123 1.403 . S
H4121 C4127 0.930 . S
C4122 H4108 0.930 . S
C4122 C4120 1.395 . S
C4122 C4125 1.403 . S
C4123 C4120 1.403 . S
C4123 C4124 1.524 . S
C4123 C4127 1.400 . S
C4124 H4109 0.960 . S
C4124 H4110 0.960 . S
C4124 H4111 0.960 . S
C4124 C4123 1.524 . S
C4125 C4122 1.403 . S
C4125 C4126 1.392 . S
C4125 C4129 1.495 . S
C4126 C4125 1.392 . S
C4126 C4127 1.385 . S
C4126 C4128 1.478 . S
C4127 H4121 0.930 . S
C4127 C4123 1.400 . S
C4127 C4126 1.385 . S
C4128 C4126 1.478 . S
C4128 C4130 1.381 . S
C4128 C4134 1.383 . S
C4129 C4125 1.495 . S
C4129 H4135 0.959 . S
C4129 H4136 0.961 . S
C4129 H4137 0.960 . S
C4130 C4128 1.381 . S
C4130 C4131 1.394 . S
C4130 H4138 0.930 . S
C4131 C4130 1.394 . S
C4131 C4132 1.383 . S
C4131 H4139 0.929 . S
C4132 C4131 1.383 . S
C4132 C4133 1.377 . S
C4133 H4117 0.930 . S
C4133 C4132 1.377 . S
C4133 C4134 1.379 . S
C4134 H4118 0.931 . S
C4134 C4128 1.383 . S
C4134 C4133 1.379 . S
H4135 C4129 0.959 . S
H4136 C4129 0.961 . S
H4137 C4129 0.960 . S
H4138 C4130 0.930 . S
H4139 C4131 0.929 . S
H4140 C4148 0.929 . S
H4141 C4150 0.930 . S
H4142 C4152 0.930 . S
H4143 C4155 0.929 . S
H4144 C4158 0.930 . S
H4145 C4160 0.960 . S
H4146 C4160 0.960 . S
H4147 C4160 0.960 . S
C4148 H4140 0.929 . S
C4148 C4149 1.377 . S
C4148 C4150 1.384 . S
C4149 C4148 1.377 . S
C4149 C4155 1.390 . S
C4150 H4141 0.930 . S
C4150 C4148 1.384 . S
C4150 C4151 1.372 . S
C4151 C4150 1.372 . S
C4151 C4152 1.400 . S
C4151 C4156 1.490 . S
C4152 H4142 0.930 . S
C4152 C4151 1.400 . S
C4152 C4155 1.386 . S
H4153 C4169 0.930 . S
H4154 C4170 0.931 . S
C4155 H4143 0.929 . S
C4155 C4149 1.390 . S
C4155 C4152 1.386 . S
C4156 C4151 1.490 . S
C4156 C4158 1.395 . S
C4156 C4159 1.403 . S
H4157 C4163 0.930 . S
C4158 H4144 0.930 . S
C4158 C4156 1.395 . S
C4158 C4161 1.403 . S
C4159 C4156 1.403 . S
C4159 C4160 1.524 . S
C4159 C4163 1.400 . S
C4160 H4145 0.960 . S
C4160 H4146 0.960 . S
C4160 H4147 0.960 . S
C4160 C4159 1.524 . S
C4161 C4158 1.403 . S
C4161 C4162 1.392 . S
C4161 C4165 1.495 . S
C4162 C4161 1.392 . S
C4162 C4163 1.385 . S
C4162 C4164 1.478 . S
C4163 H4157 0.930 . S
C4163 C4159 1.400 . S
C4163 C4162 1.385 . S
C4164 C4162 1.478 . S
C4164 C4166 1.381 . S
C4164 C4170 1.383 . S
C4165 C4161 1.495 . S
C4165 H4171 0.959 . S
C4165 H4172 0.961 . S
C4165 H4173 0.960 . S
C4166 C4164 1.381 . S
C4166 C4167 1.394 . S
C4166 H4174 0.930 . S
C4167 C4166 1.394 . S
C4167 C4168 1.383 . S
C4167 H4175 0.929 . S
C4168 C4167 1.383 . S
C4168 C4169 1.377 . S
C4169 H4153 0.930 . S
C4169 C4168 1.377 . S
C4169 C4170 1.379 . S
C4170 H4154 0.931 . S
C4170 C4164 1.383 . S
C4170 C4169 1.379 . S
H4171 C4165 0.959 . S
H4172 C4165 0.961 . S
H4173 C4165 0.960 . S
H4174 C4166 0.930 . S
H4175 C4167 0.929 . S
H4176 C4184 0.929 . S
H4177 C4186 0.930 . S
H4178 C4188 0.930 . S
H4179 C4191 0.929 . S
H4180 C4194 0.930 . S
H4181 C4196 0.960 . S
H4182 C4196 0.960 . S
H4183 C4196 0.960 . S
C4184 H4176 0.929 . S
C4184 C4185 1.377 . S
C4184 C4186 1.384 . S
C4185 C4184 1.377 . S
C4185 C4191 1.390 . S
C4186 H4177 0.930 . S
C4186 C4184 1.384 . S
C4186 C4187 1.372 . S
C4187 C4186 1.372 . S
C4187 C4188 1.400 . S
C4187 C4192 1.490 . S
C4188 H4178 0.930 . S
C4188 C4187 1.400 . S
C4188 C4191 1.386 . S
H4189 C4205 0.930 . S
H4190 C4206 0.931 . S
C4191 H4179 0.929 . S
C4191 C4185 1.390 . S
C4191 C4188 1.386 . S
C4192 C4187 1.490 . S
C4192 C4194 1.395 . S
C4192 C4195 1.403 . S
H4193 C4199 0.930 . S
C4194 H4180 0.930 . S
C4194 C4192 1.395 . S
C4194 C4197 1.403 . S
C4195 C4192 1.403 . S
C4195 C4196 1.524 . S
C4195 C4199 1.400 . S
C4196 H4181 0.960 . S
C4196 H4182 0.960 . S
C4196 H4183 0.960 . S
C4196 C4195 1.524 . S
C4197 C4194 1.403 . S
C4197 C4198 1.392 . S
C4197 C4201 1.495 . S
C4198 C4197 1.392 . S
C4198 C4199 1.385 . S
C4198 C4200 1.478 . S
C4199 H4193 0.930 . S
C4199 C4195 1.400 . S
C4199 C4198 1.385 . S
C4200 C4198 1.478 . S
C4200 C4202 1.381 . S
C4200 C4206 1.383 . S
C4201 C4197 1.495 . S
C4201 H4207 0.959 . S
C4201 H4208 0.961 . S
C4201 H4209 0.960 . S
C4202 C4200 1.381 . S
C4202 C4203 1.394 . S
C4202 H4210 0.930 . S
C4203 C4202 1.394 . S
C4203 C4204 1.383 . S
C4203 H4211 0.929 . S
C4204 C4203 1.383 . S
C4204 C4205 1.377 . S
C4205 H4189 0.930 . S
C4205 C4204 1.377 . S
C4205 C4206 1.379 . S
C4206 H4190 0.931 . S
C4206 C4200 1.383 . S
C4206 C4205 1.379 . S
H4207 C4201 0.959 . S
H4208 C4201 0.961 . S
H4209 C4201 0.960 . S
H4210 C4202 0.930 . S
H4211 C4203 0.929 . S
H4212 C4220 0.929 . S
H4213 C4222 0.930 . S
H4214 C4224 0.930 . S
H4215 C4227 0.929 . S
H4216 C4230 0.930 . S
H4217 C4232 0.960 . S
H4218 C4232 0.960 . S
H4219 C4232 0.960 . S
C4220 H4212 0.929 . S
C4220 C4221 1.377 . S
C4220 C4222 1.384 . S
C4221 C4220 1.377 . S
C4221 C4227 1.390 . S
C4222 H4213 0.930 . S
C4222 C4220 1.384 . S
C4222 C4223 1.372 . S
C4223 C4222 1.372 . S
C4223 C4224 1.400 . S
C4223 C4228 1.490 . S
C4224 H4214 0.930 . S
C4224 C4223 1.400 . S
C4224 C4227 1.386 . S
H4225 C4241 0.930 . S
H4226 C4242 0.931 . S
C4227 H4215 0.929 . S
C4227 C4221 1.390 . S
C4227 C4224 1.386 . S
C4228 C4223 1.490 . S
C4228 C4230 1.395 . S
C4228 C4231 1.403 . S
H4229 C4235 0.930 . S
C4230 H4216 0.930 . S
C4230 C4228 1.395 . S
C4230 C4233 1.403 . S
C4231 C4228 1.403 . S
C4231 C4232 1.524 . S
C4231 C4235 1.400 . S
C4232 H4217 0.960 . S
C4232 H4218 0.960 . S
C4232 H4219 0.960 . S
C4232 C4231 1.524 . S
C4233 C4230 1.403 . S
C4233 C4234 1.392 . S
C4233 C4237 1.495 . S
C4234 C4233 1.392 . S
C4234 C4235 1.385 . S
C4234 C4236 1.478 . S
C4235 H4229 0.930 . S
C4235 C4231 1.400 . S
C4235 C4234 1.385 . S
C4236 C4234 1.478 . S
C4236 C4238 1.381 . S
C4236 C4242 1.383 . S
C4237 C4233 1.495 . S
C4237 H4243 0.959 . S
C4237 H4244 0.961 . S
C4237 H4245 0.960 . S
C4238 C4236 1.381 . S
C4238 C4239 1.394 . S
C4238 H4246 0.930 . S
C4239 C4238 1.394 . S
C4239 C4240 1.383 . S
C4239 H4247 0.929 . S
C4240 C4239 1.383 . S
C4240 C4241 1.377 . S
C4241 H4225 0.930 . S
C4241 C4240 1.377 . S
C4241 C4242 1.379 . S
C4242 H4226 0.931 . S
C4242 C4236 1.383 . S
C4242 C4241 1.379 . S
H4243 C4237 0.959 . S
H4244 C4237 0.961 . S
H4245 C4237 0.960 . S
H4246 C4238 0.930 . S
H4247 C4239 0.929 . S
H4248 C4256 0.929 . S
H4249 C4258 0.930 . S
H4250 C4260 0.930 . S
H4251 C4263 0.929 . S
H4252 C4266 0.930 . S
H4253 C4268 0.960 . S
H4254 C4268 0.960 . S
H4255 C4268 0.960 . S
C4256 H4248 0.929 . S
C4256 C4257 1.377 . S
C4256 C4258 1.384 . S
C4257 C4256 1.377 . S
C4257 C4263 1.390 . S
C4258 H4249 0.930 . S
C4258 C4256 1.384 . S
C4258 C4259 1.372 . S
C4259 C4258 1.372 . S
C4259 C4260 1.400 . S
C4259 C4264 1.490 . S
C4260 H4250 0.930 . S
C4260 C4259 1.400 . S
C4260 C4263 1.386 . S
H4261 C4277 0.930 . S
H4262 C4278 0.931 . S
C4263 H4251 0.929 . S
C4263 C4257 1.390 . S
C4263 C4260 1.386 . S
C4264 C4259 1.490 . S
C4264 C4266 1.395 . S
C4264 C4267 1.403 . S
H4265 C4271 0.930 . S
C4266 H4252 0.930 . S
C4266 C4264 1.395 . S
C4266 C4269 1.403 . S
C4267 C4264 1.403 . S
C4267 C4268 1.524 . S
C4267 C4271 1.400 . S
C4268 H4253 0.960 . S
C4268 H4254 0.960 . S
C4268 H4255 0.960 . S
C4268 C4267 1.524 . S
C4269 C4266 1.403 . S
C4269 C4270 1.392 . S
C4269 C4273 1.495 . S
C4270 C4269 1.392 . S
C4270 C4271 1.385 . S
C4270 C4272 1.478 . S
C4271 H4265 0.930 . S
C4271 C4267 1.400 . S
C4271 C4270 1.385 . S
C4272 C4270 1.478 . S
C4272 C4274 1.381 . S
C4272 C4278 1.383 . S
C4273 C4269 1.495 . S
C4273 H4279 0.959 . S
C4273 H4280 0.961 . S
C4273 H4281 0.960 . S
C4274 C4272 1.381 . S
C4274 C4275 1.394 . S
C4274 H4282 0.930 . S
C4275 C4274 1.394 . S
C4275 C4276 1.383 . S
C4275 H4283 0.929 . S
C4276 C4275 1.383 . S
C4276 C4277 1.377 . S
C4277 H4261 0.930 . S
C4277 C4276 1.377 . S
C4277 C4278 1.379 . S
C4278 H4262 0.931 . S
C4278 C4272 1.383 . S
C4278 C4277 1.379 . S
H4279 C4273 0.959 . S
H4280 C4273 0.961 . S
H4281 C4273 0.960 . S
H4282 C4274 0.930 . S
H4283 C4275 0.929 . S
H4284 C4292 0.929 . S
H4285 C4294 0.930 . S
H4286 C4296 0.930 . S
H4287 C4299 0.929 . S
H4288 C4302 0.930 . S
H4289 C4304 0.960 . S
H4290 C4304 0.960 . S
H4291 C4304 0.960 . S
C4292 H4284 0.929 . S
C4292 C4293 1.377 . S
C4292 C4294 1.384 . S
C4293 C4292 1.377 . S
C4293 C4299 1.390 . S
C4294 H4285 0.930 . S
C4294 C4292 1.384 . S
C4294 C4295 1.372 . S
C4295 C4294 1.372 . S
C4295 C4296 1.400 . S
C4295 C4300 1.490 . S
C4296 H4286 0.930 . S
C4296 C4295 1.400 . S
C4296 C4299 1.386 . S
H4297 C4313 0.930 . S
H4298 C4314 0.931 . S
C4299 H4287 0.929 . S
C4299 C4293 1.390 . S
C4299 C4296 1.386 . S
C4300 C4295 1.490 . S
C4300 C4302 1.395 . S
C4300 C4303 1.403 . S
H4301 C4307 0.930 . S
C4302 H4288 0.930 . S
C4302 C4300 1.395 . S
C4302 C4305 1.403 . S
C4303 C4300 1.403 . S
C4303 C4304 1.524 . S
C4303 C4307 1.400 . S
C4304 H4289 0.960 . S
C4304 H4290 0.960 . S
C4304 H4291 0.960 . S
C4304 C4303 1.524 . S
C4305 C4302 1.403 . S
C4305 C4306 1.392 . S
C4305 C4309 1.495 . S
C4306 C4305 1.392 . S
C4306 C4307 1.385 . S
C4306 C4308 1.478 . S
C4307 H4301 0.930 . S
C4307 C4303 1.400 . S
C4307 C4306 1.385 . S
C4308 C4306 1.478 . S
C4308 C4310 1.381 . S
C4308 C4314 1.383 . S
C4309 C4305 1.495 . S
C4309 H4315 0.959 . S
C4309 H4316 0.961 . S
C4309 H4317 0.960 . S
C4310 C4308 1.381 . S
C4310 C4311 1.394 . S
C4310 H4318 0.930 . S
C4311 C4310 1.394 . S
C4311 C4312 1.383 . S
C4311 H4319 0.929 . S
C4312 C4311 1.383 . S
C4312 C4313 1.377 . S
C4313 H4297 0.930 . S
C4313 C4312 1.377 . S
C4313 C4314 1.379 . S
C4314 H4298 0.931 . S
C4314 C4308 1.383 . S
C4314 C4313 1.379 . S
H4315 C4309 0.959 . S
H4316 C4309 0.961 . S
H4317 C4309 0.960 . S
H4318 C4310 0.930 . S
H4319 C4311 0.929 . S
H4320 C4328 0.929 . S
H4321 C4330 0.930 . S
H4322 C4332 0.930 . S
H4323 C4335 0.929 . S
H4324 C4338 0.930 . S
H4325 C4340 0.960 . S
H4326 C4340 0.960 . S
H4327 C4340 0.960 . S
C4328 H4320 0.929 . S
C4328 C4329 1.377 . S
C4328 C4330 1.384 . S
C4329 C4328 1.377 . S
C4329 C4335 1.390 . S
C4330 H4321 0.930 . S
C4330 C4328 1.384 . S
C4330 C4331 1.372 . S
C4331 C4330 1.372 . S
C4331 C4332 1.400 . S
C4331 C4336 1.490 . S
C4332 H4322 0.930 . S
C4332 C4331 1.400 . S
C4332 C4335 1.386 . S
H4333 C4349 0.930 . S
H4334 C4350 0.931 . S
C4335 H4323 0.929 . S
C4335 C4329 1.390 . S
C4335 C4332 1.386 . S
C4336 C4331 1.490 . S
C4336 C4338 1.395 . S
C4336 C4339 1.403 . S
H4337 C4343 0.930 . S
C4338 H4324 0.930 . S
C4338 C4336 1.395 . S
C4338 C4341 1.403 . S
C4339 C4336 1.403 . S
C4339 C4340 1.524 . S
C4339 C4343 1.400 . S
C4340 H4325 0.960 . S
C4340 H4326 0.960 . S
C4340 H4327 0.960 . S
C4340 C4339 1.524 . S
C4341 C4338 1.403 . S
C4341 C4342 1.392 . S
C4341 C4345 1.495 . S
C4342 C4341 1.392 . S
C4342 C4343 1.385 . S
C4342 C4344 1.478 . S
C4343 H4337 0.930 . S
C4343 C4339 1.400 . S
C4343 C4342 1.385 . S
C4344 C4342 1.478 . S
C4344 C4346 1.381 . S
C4344 C4350 1.383 . S
C4345 C4341 1.495 . S
C4345 H4351 0.959 . S
C4345 H4352 0.961 . S
C4345 H4353 0.960 . S
C4346 C4344 1.381 . S
C4346 C4347 1.394 . S
C4346 H4354 0.930 . S
C4347 C4346 1.394 . S
C4347 C4348 1.383 . S
C4347 H4355 0.929 . S
C4348 C4347 1.383 . S
C4348 C4349 1.377 . S
C4349 H4333 0.930 . S
C4349 C4348 1.377 . S
C4349 C4350 1.379 . S
C4350 H4334 0.931 . S
C4350 C4344 1.383 . S
C4350 C4349 1.379 . S
H4351 C4345 0.959 . S
H4352 C4345 0.961 . S
H4353 C4345 0.960 . S
H4354 C4346 0.930 . S
H4355 C4347 0.929 . S
H4356 C4364 0.929 . S
H4357 C4366 0.930 . S
H4358 C4368 0.930 . S
H4359 C4371 0.929 . S
H4360 C4374 0.930 . S
H4361 C4376 0.960 . S
H4362 C4376 0.960 . S
H4363 C4376 0.960 . S
C4364 H4356 0.929 . S
C4364 C4365 1.377 . S
C4364 C4366 1.384 . S
C4365 C4364 1.377 . S
C4365 C4371 1.390 . S
C4366 H4357 0.930 . S
C4366 C4364 1.384 . S
C4366 C4367 1.372 . S
C4367 C4366 1.372 . S
C4367 C4368 1.400 . S
C4367 C4372 1.490 . S
C4368 H4358 0.930 . S
C4368 C4367 1.400 . S
C4368 C4371 1.386 . S
H4369 C4385 0.930 . S
H4370 C4386 0.931 . S
C4371 H4359 0.929 . S
C4371 C4365 1.390 . S
C4371 C4368 1.386 . S
C4372 C4367 1.490 . S
C4372 C4374 1.395 . S
C4372 C4375 1.403 . S
H4373 C4379 0.930 . S
C4374 H4360 0.930 . S
C4374 C4372 1.395 . S
C4374 C4377 1.403 . S
C4375 C4372 1.403 . S
C4375 C4376 1.524 . S
C4375 C4379 1.400 . S
C4376 H4361 0.960 . S
C4376 H4362 0.960 . S
C4376 H4363 0.960 . S
C4376 C4375 1.524 . S
C4377 C4374 1.403 . S
C4377 C4378 1.392 . S
C4377 C4381 1.495 . S
C4378 C4377 1.392 . S
C4378 C4379 1.385 . S
C4378 C4380 1.478 . S
C4379 H4373 0.930 . S
C4379 C4375 1.400 . S
C4379 C4378 1.385 . S
C4380 C4378 1.478 . S
C4380 C4382 1.381 . S
C4380 C4386 1.383 . S
C4381 C4377 1.495 . S
C4381 H4387 0.959 . S
C4381 H4388 0.961 . S
C4381 H4389 0.960 . S
C4382 C4380 1.381 . S
C4382 C4383 1.394 . S
C4382 H4390 0.930 . S
C4383 C4382 1.394 . S
C4383 C4384 1.383 . S
C4383 H4391 0.929 . S
C4384 C4383 1.383 . S
C4384 C4385 1.377 . S
C4385 H4369 0.930 . S
C4385 C4384 1.377 . S
C4385 C4386 1.379 . S
C4386 H4370 0.931 . S
C4386 C4380 1.383 . S
C4386 C4385 1.379 . S
H4387 C4381 0.959 . S
H4388 C4381 0.961 . S
H4389 C4381 0.960 . S
H4390 C4382 0.930 . S
H4391 C4383 0.929 . S
H4392 C4400 0.929 . S
H4393 C4402 0.930 . S
H4394 C4404 0.930 . S
H4395 C4407 0.929 . S
H4396 C4410 0.930 . S
H4397 C4412 0.960 . S
H4398 C4412 0.960 . S
H4399 C4412 0.960 . S
C4400 H4392 0.929 . S
C4400 C4401 1.377 . S
C4400 C4402 1.384 . S
C4401 C4400 1.377 . S
C4401 C4407 1.390 . S
C4402 H4393 0.930 . S
C4402 C4400 1.384 . S
C4402 C4403 1.372 . S
C4403 C4402 1.372 . S
C4403 C4404 1.400 . S
C4403 C4408 1.490 . S
C4404 H4394 0.930 . S
C4404 C4403 1.400 . S
C4404 C4407 1.386 . S
H4405 C4421 0.930 . S
H4406 C4422 0.931 . S
C4407 H4395 0.929 . S
C4407 C4401 1.390 . S
C4407 C4404 1.386 . S
C4408 C4403 1.490 . S
C4408 C4410 1.395 . S
C4408 C4411 1.403 . S
H4409 C4415 0.930 . S
C4410 H4396 0.930 . S
C4410 C4408 1.395 . S
C4410 C4413 1.403 . S
C4411 C4408 1.403 . S
C4411 C4412 1.524 . S
C4411 C4415 1.400 . S
C4412 H4397 0.960 . S
C4412 H4398 0.960 . S
C4412 H4399 0.960 . S
C4412 C4411 1.524 . S
C4413 C4410 1.403 . S
C4413 C4414 1.392 . S
C4413 C4417 1.495 . S
C4414 C4413 1.392 . S
C4414 C4415 1.385 . S
C4414 C4416 1.478 . S
C4415 H4409 0.930 . S
C4415 C4411 1.400 . S
C4415 C4414 1.385 . S
C4416 C4414 1.478 . S
C4416 C4418 1.381 . S
C4416 C4422 1.383 . S
C4417 C4413 1.495 . S
C4417 H4423 0.959 . S
C4417 H4424 0.961 . S
C4417 H4425 0.960 . S
C4418 C4416 1.381 . S
C4418 C4419 1.394 . S
C4418 H4426 0.930 . S
C4419 C4418 1.394 . S
C4419 C4420 1.383 . S
C4419 H4427 0.929 . S
C4420 C4419 1.383 . S
C4420 C4421 1.377 . S
C4421 H4405 0.930 . S
C4421 C4420 1.377 . S
C4421 C4422 1.379 . S
C4422 H4406 0.931 . S
C4422 C4416 1.383 . S
C4422 C4421 1.379 . S
H4423 C4417 0.959 . S
H4424 C4417 0.961 . S
H4425 C4417 0.960 . S
H4426 C4418 0.930 . S
H4427 C4419 0.929 . S
C1197 N2 0.913 . S
C1216 C73 0.879 . S
C1233 C7 0.899 . S
C1252 N35 0.883 . S
C1269 C40 0.909 . S
C1288 N68 0.951 . S
C1305 C139 0.912 . S
C1324 N101 0.958 . S
C1341 C172 0.901 . S
C1360 N134 0.856 . S
C1377 C106 0.920 . S
C1396 N167 0.918 . S
C1413 C271 0.901 . S
C1432 N200 0.927 . S
C1449 N233 0.920 . S
C1468 C205 0.908 . S
C1485 C238 0.921 . S
C1504 N266 0.941 . S
C1521 C337 0.898 . S
C1540 N299 0.887 . S
C1557 N332 0.915 . S
C1576 C370 0.962 . S
C1593 C304 0.921 . S
C1612 N365 0.926 . S
C1629 N398 0.907 . S
C1648 C469 0.860 . S
C1665 N431 0.918 . S
C1684 C403 0.906 . S
C1701 N464 0.909 . S
C1720 C436 0.863 . S
C1737 C535 0.917 . S
C1756 N497 0.896 . S
C1773 C568 0.920 . S
C1792 N530 0.952 . S
C1809 N563 0.911 . S
C1828 C502 0.868 . S
C1845 N596 0.907 . S
C1864 C667 0.854 . S
C1881 N629 0.918 . S
C1900 C601 0.890 . S
C1917 N662 0.917 . S
C1936 C634 0.958 . S
C1953 C733 0.903 . S
C1972 N695 0.855 . S
C1989 C766 0.914 . S
C2008 N728 0.962 . S
C2025 N761 0.899 . S
C2044 C700 0.900 . S
C2061 C865 0.921 . S
C2080 N794 0.943 . S
C2097 C799 0.921 . S
C2116 N827 0.935 . S
C2133 N860 0.905 . S
C2152 C832 0.936 . S
C2169 C931 0.907 . S
C2188 N893 0.858 . S
C2205 N926 0.915 . S
C2224 C964 0.883 . S
C2241 C898 0.899 . S
C2260 N959 0.887 . S
C2277 C1063 0.917 . S
C2296 N992 0.885 . S
C2313 N1025 0.917 . S
C2332 C997 0.882 . S
C2349 N1058 0.905 . S
C2368 C1030 0.854 . S
C2385 C1129 0.900 . S
C2404 N1091 0.864 . S
C2421 C1162 0.907 . S
C2440 N1124 0.954 . S
C2457 N1157 0.920 . S
C2476 C1096 0.912 . S
C2493 N673 1.371 . S
C2512 C18 1.383 . S
C2529 C51 1.380 . S
C2548 N607 1.366 1_565 S
C2565 C84 1.380 . S
C2584 N640 1.360 1_455 S
C2601 N1135 1.363 . S
C2620 C117 1.396 . S
C2637 N1168 1.370 1_545 S
C2656 C150 1.388 . S
C2673 C183 1.379 . S
C2692 N1102 1.378 1_655 S
C2709 C216 1.386 . S
C2728 N871 1.370 . S
C2745 C249 1.383 . S
C2764 N805 1.386 1_545 S
C2781 C282 1.382 . S
C2800 N838 1.389 1_655 S
C2817 N541 1.363 . S
C2836 C315 1.385 . S
C2853 C348 1.379 . S
C2872 N574 1.383 1_565 S
C2889 C381 1.383 . S
C2908 N508 1.386 1_455 S
C2925 C414 1.386 . S
C2944 N1069 1.347 . S
C2961 N1003 1.372 . S
C2980 C447 1.363 . S
C2997 N1036 1.364 . S
C3016 C480 1.380 . S
C3033 C513 1.379 . S
C3052 N343 1.372 . S
C3069 C546 1.384 . S
C3088 N376 1.341 . S
C3105 C579 1.380 . S
C3124 N310 1.388 . S
C3141 N79 1.363 . S
C3160 C612 1.380 . S
C3177 C645 1.386 . S
C3196 N13 1.345 . S
C3213 C678 1.382 . S
C3232 N46 1.344 . S
C3249 N937 1.365 . S
C3268 C711 1.367 . S
C3285 C744 1.387 . S
C3304 N970 1.353 . S
C3321 C777 1.379 . S
C3340 N904 1.377 . S
C3357 N277 1.371 . S
C3376 C810 1.381 . S
C3393 N211 1.372 . S
C3412 C843 1.364 . S
C3429 C876 1.379 . S
C3448 N244 1.385 . S
C3465 C909 1.380 . S
C3484 N739 1.362 . S
C3501 N772 1.363 . S
C3520 C942 1.390 . S
C3537 C975 1.385 . S
C3556 N706 1.371 . S
C3573 N475 1.373 . S
C3592 C1008 1.374 . S
C3609 C1041 1.380 . S
C3628 N409 1.355 . S
C3645 C1074 1.380 . S
C3664 N442 1.385 . S
C3681 N145 1.371 . S
C3700 C1107 1.387 . S
C3717 C1140 1.385 . S
C3736 N178 1.342 . S
C3753 N112 1.366 . S
C3772 C1173 1.398 . S
C3789 C153 1.360 . S
C3808 C21 1.354 . S
C3825 C54 1.364 . S
C3844 C186 1.372 . S
C3861 C87 1.367 . S
C3880 C120 1.389 . S
C3897 C219 1.363 . S
C3916 C351 1.327 . S
C3933 C252 1.354 . S
C3952 C384 1.380 . S
C3969 C285 1.366 . S
C3988 C318 1.358 . S
C4005 C549 1.364 . S
C4024 C417 1.372 . S
C4041 C582 1.367 . S
C4060 C450 1.389 . S
C4077 C516 1.355 . S
C4096 C483 1.332 . S
C4113 C747 1.361 . S
C4132 C615 1.379 . S
C4149 C780 1.365 . S
C4168 C648 1.327 . S
C4185 C714 1.356 . S
C4204 C681 1.388 . S
C4221 C945 1.354 . S
C4240 C813 1.329 . S
C4257 C846 1.354 . S
C4276 C978 1.326 . S
C4293 C912 1.367 . S
C4312 C879 1.388 . S
C4329 C1143 1.355 . S
C4348 C1011 1.388 . S
C4365 C1176 1.362 . S
C4384 C1044 1.328 . S
C4401 C1077 1.367 . S
C4420 C1110 1.344 . S
