# Generated by pormake.
# Topology uli, (4)-cn, num edge types: 1
# Building blocks:
#     Node 0, Type 0, BuildingBlock: NAHDIM_clean_sbu_0, # of connection points: 4
#     Node 1, Type 0, BuildingBlock: NAHDIM_clean_sbu_0, # of connection points: 4
#     Node 2, Type 0, BuildingBlock: NAHDIM_clean_sbu_0, # of connection points: 4
#     Node 3, Type 0, BuildingBlock: NAHDIM_clean_sbu_0, # of connection points: 4
#     Node 4, Type 0, BuildingBlock: NAHDIM_clean_sbu_0, # of connection points: 4
#     Node 5, Type 0, BuildingBlock: NAHDIM_clean_sbu_0, # of connection points: 4
#     Node 6, Type 0, BuildingBlock: NAHDIM_clean_sbu_0, # of connection points: 4
#     Node 7, Type 0, BuildingBlock: NAHDIM_clean_sbu_0, # of connection points: 4
#     Node 8, Type 0, BuildingBlock: NAHDIM_clean_sbu_0, # of connection points: 4
#     Node 9, Type 0, BuildingBlock: NAHDIM_clean_sbu_0, # of connection points: 4
#     Node 10, Type 0, BuildingBlock: NAHDIM_clean_sbu_0, # of connection points: 4
#     Node 11, Type 0, BuildingBlock: NAHDIM_clean_sbu_0, # of connection points: 4
#     Node 12, Type 0, BuildingBlock: NAHDIM_clean_sbu_0, # of connection points: 4
#     Node 13, Type 0, BuildingBlock: NAHDIM_clean_sbu_0, # of connection points: 4
#     Node 14, Type 0, BuildingBlock: NAHDIM_clean_sbu_0, # of connection points: 4
#     Node 15, Type 0, BuildingBlock: NAHDIM_clean_sbu_0, # of connection points: 4
#     Node 16, Type 0, BuildingBlock: NAHDIM_clean_sbu_0, # of connection points: 4
#     Node 17, Type 0, BuildingBlock: NAHDIM_clean_sbu_0, # of connection points: 4
#     Node 18, Type 0, BuildingBlock: NAHDIM_clean_sbu_0, # of connection points: 4
#     Node 19, Type 0, BuildingBlock: NAHDIM_clean_sbu_0, # of connection points: 4
#     Node 20, Type 0, BuildingBlock: NAHDIM_clean_sbu_0, # of connection points: 4
#     Node 21, Type 0, BuildingBlock: NAHDIM_clean_sbu_0, # of connection points: 4
#     Node 22, Type 0, BuildingBlock: NAHDIM_clean_sbu_0, # of connection points: 4
#     Node 23, Type 0, BuildingBlock: NAHDIM_clean_sbu_0, # of connection points: 4
#     Node 24, Type 0, BuildingBlock: NAHDIM_clean_sbu_0, # of connection points: 4
#     Node 25, Type 0, BuildingBlock: NAHDIM_clean_sbu_0, # of connection points: 4
#     Node 26, Type 0, BuildingBlock: NAHDIM_clean_sbu_0, # of connection points: 4
#     Node 27, Type 0, BuildingBlock: NAHDIM_clean_sbu_0, # of connection points: 4
#     Node 28, Type 0, BuildingBlock: NAHDIM_clean_sbu_0, # of connection points: 4
#     Node 29, Type 0, BuildingBlock: NAHDIM_clean_sbu_0, # of connection points: 4
#     Node 30, Type 0, BuildingBlock: NAHDIM_clean_sbu_0, # of connection points: 4
#     Node 31, Type 0, BuildingBlock: NAHDIM_clean_sbu_0, # of connection points: 4
#     Node 32, Type 0, BuildingBlock: NAHDIM_clean_sbu_0, # of connection points: 4
#     Node 33, Type 0, BuildingBlock: NAHDIM_clean_sbu_0, # of connection points: 4
#     Node 34, Type 0, BuildingBlock: NAHDIM_clean_sbu_0, # of connection points: 4
#     Node 35, Type 0, BuildingBlock: NAHDIM_clean_sbu_0, # of connection points: 4
#     Node 36, Type 0, BuildingBlock: NAHDIM_clean_sbu_0, # of connection points: 4
#     Node 37, Type 0, BuildingBlock: NAHDIM_clean_sbu_0, # of connection points: 4
#     Node 38, Type 0, BuildingBlock: NAHDIM_clean_sbu_0, # of connection points: 4
#     Node 39, Type 0, BuildingBlock: NAHDIM_clean_sbu_0, # of connection points: 4
#     Node 40, Type 0, BuildingBlock: NAHDIM_clean_sbu_0, # of connection points: 4
#     Node 41, Type 0, BuildingBlock: NAHDIM_clean_sbu_0, # of connection points: 4
#     Node 42, Type 0, BuildingBlock: NAHDIM_clean_sbu_0, # of connection points: 4
#     Node 43, Type 0, BuildingBlock: NAHDIM_clean_sbu_0, # of connection points: 4
#     Node 44, Type 0, BuildingBlock: NAHDIM_clean_sbu_0, # of connection points: 4
#     Node 45, Type 0, BuildingBlock: NAHDIM_clean_sbu_0, # of connection points: 4
#     Node 46, Type 0, BuildingBlock: NAHDIM_clean_sbu_0, # of connection points: 4
#     Node 47, Type 0, BuildingBlock: NAHDIM_clean_sbu_0, # of connection points: 4
#     Edge 48, Type (0, 0), BuildingBlock: EZIPEK_clean_linker_0, # of connection points: 2
#     Edge 49, Type (0, 0), BuildingBlock: EZIPEK_clean_linker_0, # of connection points: 2
#     Edge 50, Type (0, 0), BuildingBlock: EZIPEK_clean_linker_0, # of connection points: 2
#     Edge 51, Type (0, 0), BuildingBlock: EZIPEK_clean_linker_0, # of connection points: 2
#     Edge 52, Type (0, 0), BuildingBlock: EZIPEK_clean_linker_0, # of connection points: 2
#     Edge 53, Type (0, 0), BuildingBlock: EZIPEK_clean_linker_0, # of connection points: 2
#     Edge 54, Type (0, 0), BuildingBlock: EZIPEK_clean_linker_0, # of connection points: 2
#     Edge 55, Type (0, 0), BuildingBlock: EZIPEK_clean_linker_0, # of connection points: 2
#     Edge 56, Type (0, 0), BuildingBlock: EZIPEK_clean_linker_0, # of connection points: 2
#     Edge 57, Type (0, 0), BuildingBlock: EZIPEK_clean_linker_0, # of connection points: 2
#     Edge 58, Type (0, 0), BuildingBlock: EZIPEK_clean_linker_0, # of connection points: 2
#     Edge 59, Type (0, 0), BuildingBlock: EZIPEK_clean_linker_0, # of connection points: 2
#     Edge 60, Type (0, 0), BuildingBlock: EZIPEK_clean_linker_0, # of connection points: 2
#     Edge 61, Type (0, 0), BuildingBlock: EZIPEK_clean_linker_0, # of connection points: 2
#     Edge 62, Type (0, 0), BuildingBlock: EZIPEK_clean_linker_0, # of connection points: 2
#     Edge 63, Type (0, 0), BuildingBlock: EZIPEK_clean_linker_0, # of connection points: 2
#     Edge 64, Type (0, 0), BuildingBlock: EZIPEK_clean_linker_0, # of connection points: 2
#     Edge 65, Type (0, 0), BuildingBlock: EZIPEK_clean_linker_0, # of connection points: 2
#     Edge 66, Type (0, 0), BuildingBlock: EZIPEK_clean_linker_0, # of connection points: 2
#     Edge 67, Type (0, 0), BuildingBlock: EZIPEK_clean_linker_0, # of connection points: 2
#     Edge 68, Type (0, 0), BuildingBlock: EZIPEK_clean_linker_0, # of connection points: 2
#     Edge 69, Type (0, 0), BuildingBlock: EZIPEK_clean_linker_0, # of connection points: 2
#     Edge 70, Type (0, 0), BuildingBlock: EZIPEK_clean_linker_0, # of connection points: 2
#     Edge 71, Type (0, 0), BuildingBlock: EZIPEK_clean_linker_0, # of connection points: 2
#     Edge 72, Type (0, 0), BuildingBlock: EZIPEK_clean_linker_0, # of connection points: 2
#     Edge 73, Type (0, 0), BuildingBlock: EZIPEK_clean_linker_0, # of connection points: 2
#     Edge 74, Type (0, 0), BuildingBlock: EZIPEK_clean_linker_0, # of connection points: 2
#     Edge 75, Type (0, 0), BuildingBlock: EZIPEK_clean_linker_0, # of connection points: 2
#     Edge 76, Type (0, 0), BuildingBlock: EZIPEK_clean_linker_0, # of connection points: 2
#     Edge 77, Type (0, 0), BuildingBlock: EZIPEK_clean_linker_0, # of connection points: 2
#     Edge 78, Type (0, 0), BuildingBlock: EZIPEK_clean_linker_0, # of connection points: 2
#     Edge 79, Type (0, 0), BuildingBlock: EZIPEK_clean_linker_0, # of connection points: 2
#     Edge 80, Type (0, 0), BuildingBlock: EZIPEK_clean_linker_0, # of connection points: 2
#     Edge 81, Type (0, 0), BuildingBlock: EZIPEK_clean_linker_0, # of connection points: 2
#     Edge 82, Type (0, 0), BuildingBlock: EZIPEK_clean_linker_0, # of connection points: 2
#     Edge 83, Type (0, 0), BuildingBlock: EZIPEK_clean_linker_0, # of connection points: 2
#     Edge 84, Type (0, 0), BuildingBlock: EZIPEK_clean_linker_0, # of connection points: 2
#     Edge 85, Type (0, 0), BuildingBlock: EZIPEK_clean_linker_0, # of connection points: 2
#     Edge 86, Type (0, 0), BuildingBlock: EZIPEK_clean_linker_0, # of connection points: 2
#     Edge 87, Type (0, 0), BuildingBlock: EZIPEK_clean_linker_0, # of connection points: 2
#     Edge 88, Type (0, 0), BuildingBlock: EZIPEK_clean_linker_0, # of connection points: 2
#     Edge 89, Type (0, 0), BuildingBlock: EZIPEK_clean_linker_0, # of connection points: 2
#     Edge 90, Type (0, 0), BuildingBlock: EZIPEK_clean_linker_0, # of connection points: 2
#     Edge 91, Type (0, 0), BuildingBlock: EZIPEK_clean_linker_0, # of connection points: 2
#     Edge 92, Type (0, 0), BuildingBlock: EZIPEK_clean_linker_0, # of connection points: 2
#     Edge 93, Type (0, 0), BuildingBlock: EZIPEK_clean_linker_0, # of connection points: 2
#     Edge 94, Type (0, 0), BuildingBlock: EZIPEK_clean_linker_0, # of connection points: 2
#     Edge 95, Type (0, 0), BuildingBlock: EZIPEK_clean_linker_0, # of connection points: 2
#     Edge 96, Type (0, 0), BuildingBlock: EZIPEK_clean_linker_0, # of connection points: 2
#     Edge 97, Type (0, 0), BuildingBlock: EZIPEK_clean_linker_0, # of connection points: 2
#     Edge 98, Type (0, 0), BuildingBlock: EZIPEK_clean_linker_0, # of connection points: 2
#     Edge 99, Type (0, 0), BuildingBlock: EZIPEK_clean_linker_0, # of connection points: 2
#     Edge 100, Type (0, 0), BuildingBlock: EZIPEK_clean_linker_0, # of connection points: 2
#     Edge 101, Type (0, 0), BuildingBlock: EZIPEK_clean_linker_0, # of connection points: 2
#     Edge 102, Type (0, 0), BuildingBlock: EZIPEK_clean_linker_0, # of connection points: 2
#     Edge 103, Type (0, 0), BuildingBlock: EZIPEK_clean_linker_0, # of connection points: 2
#     Edge 104, Type (0, 0), BuildingBlock: EZIPEK_clean_linker_0, # of connection points: 2
#     Edge 105, Type (0, 0), BuildingBlock: EZIPEK_clean_linker_0, # of connection points: 2
#     Edge 106, Type (0, 0), BuildingBlock: EZIPEK_clean_linker_0, # of connection points: 2
#     Edge 107, Type (0, 0), BuildingBlock: EZIPEK_clean_linker_0, # of connection points: 2
#     Edge 108, Type (0, 0), BuildingBlock: EZIPEK_clean_linker_0, # of connection points: 2
#     Edge 109, Type (0, 0), BuildingBlock: EZIPEK_clean_linker_0, # of connection points: 2
#     Edge 110, Type (0, 0), BuildingBlock: EZIPEK_clean_linker_0, # of connection points: 2
#     Edge 111, Type (0, 0), BuildingBlock: EZIPEK_clean_linker_0, # of connection points: 2
#     Edge 112, Type (0, 0), BuildingBlock: EZIPEK_clean_linker_0, # of connection points: 2
#     Edge 113, Type (0, 0), BuildingBlock: EZIPEK_clean_linker_0, # of connection points: 2
#     Edge 114, Type (0, 0), BuildingBlock: EZIPEK_clean_linker_0, # of connection points: 2
#     Edge 115, Type (0, 0), BuildingBlock: EZIPEK_clean_linker_0, # of connection points: 2
#     Edge 116, Type (0, 0), BuildingBlock: EZIPEK_clean_linker_0, # of connection points: 2
#     Edge 117, Type (0, 0), BuildingBlock: EZIPEK_clean_linker_0, # of connection points: 2
#     Edge 118, Type (0, 0), BuildingBlock: EZIPEK_clean_linker_0, # of connection points: 2
#     Edge 119, Type (0, 0), BuildingBlock: EZIPEK_clean_linker_0, # of connection points: 2
#     Edge 120, Type (0, 0), BuildingBlock: EZIPEK_clean_linker_0, # of connection points: 2
#     Edge 121, Type (0, 0), BuildingBlock: EZIPEK_clean_linker_0, # of connection points: 2
#     Edge 122, Type (0, 0), BuildingBlock: EZIPEK_clean_linker_0, # of connection points: 2
#     Edge 123, Type (0, 0), BuildingBlock: EZIPEK_clean_linker_0, # of connection points: 2
#     Edge 124, Type (0, 0), BuildingBlock: EZIPEK_clean_linker_0, # of connection points: 2
#     Edge 125, Type (0, 0), BuildingBlock: EZIPEK_clean_linker_0, # of connection points: 2
#     Edge 126, Type (0, 0), BuildingBlock: EZIPEK_clean_linker_0, # of connection points: 2
#     Edge 127, Type (0, 0), BuildingBlock: EZIPEK_clean_linker_0, # of connection points: 2
#     Edge 128, Type (0, 0), BuildingBlock: EZIPEK_clean_linker_0, # of connection points: 2
#     Edge 129, Type (0, 0), BuildingBlock: EZIPEK_clean_linker_0, # of connection points: 2
#     Edge 130, Type (0, 0), BuildingBlock: EZIPEK_clean_linker_0, # of connection points: 2
#     Edge 131, Type (0, 0), BuildingBlock: EZIPEK_clean_linker_0, # of connection points: 2
#     Edge 132, Type (0, 0), BuildingBlock: EZIPEK_clean_linker_0, # of connection points: 2
#     Edge 133, Type (0, 0), BuildingBlock: EZIPEK_clean_linker_0, # of connection points: 2
#     Edge 134, Type (0, 0), BuildingBlock: EZIPEK_clean_linker_0, # of connection points: 2
#     Edge 135, Type (0, 0), BuildingBlock: EZIPEK_clean_linker_0, # of connection points: 2
#     Edge 136, Type (0, 0), BuildingBlock: EZIPEK_clean_linker_0, # of connection points: 2
#     Edge 137, Type (0, 0), BuildingBlock: EZIPEK_clean_linker_0, # of connection points: 2
#     Edge 138, Type (0, 0), BuildingBlock: EZIPEK_clean_linker_0, # of connection points: 2
#     Edge 139, Type (0, 0), BuildingBlock: EZIPEK_clean_linker_0, # of connection points: 2
#     Edge 140, Type (0, 0), BuildingBlock: EZIPEK_clean_linker_0, # of connection points: 2
#     Edge 141, Type (0, 0), BuildingBlock: EZIPEK_clean_linker_0, # of connection points: 2
#     Edge 142, Type (0, 0), BuildingBlock: EZIPEK_clean_linker_0, # of connection points: 2
#     Edge 143, Type (0, 0), BuildingBlock: EZIPEK_clean_linker_0, # of connection points: 2
# Relax obj value: 0.421
# Max RMSD: 0.223
# Mean RMSD: 0.223
data_MOF--net-uli--node1-NAHDIM_clean_sbu_0--edge1-EZIPEK_clean_linker_0
_symmetry_space_group_name_H-M    P1
_symmetry_Int_Tables_number       1
_symmetry_cell_setting            triclinic
loop_
_symmetry_equiv_pos_as_xyz
'x, y, z'
_cell_length_a     49.803879
_cell_length_b     49.757331
_cell_length_c     49.808326
_cell_angle_alpha  889.910577
_cell_angle_beta   90.006259
_cell_angle_gamma 90.053855
loop_
_atom_site_label
_atom_site_type_symbol
_atom_site_fract_x
_atom_site_fract_y
_atom_site_fract_z
_atom_type_partial_charge
C0 C 0.04691 1.72238 1.49141 0.0
O1 O 0.06254 1.8443 1.61211 0.0
O2 O 0.11767 1.69551 1.44387 0.0
Zn3 Zn 0.09665 1.58035 1.35858 0.0
O4 O 0.10272 1.64957 1.46482 0.0
C5 C 0.13646 1.36708 1.15048 0.0
O6 O 0.14878 1.49972 1.28361 0.0
O7 O 0.05725 1.58969 1.36143 0.0
C8 C 0.12306 1.72241 1.54514 0.0
O9 O 0.14041 1.78123 1.58595 0.0
C10 C 0.11107 1.67346 1.39784 0.0
O11 O 0.08825 1.60387 1.32393 0.0
O12 O 0.11116 1.36509 1.14511 0.0
C13 C 0.70985 1.38075 1.33178 0.0
O14 O 0.7166 1.50176 1.43657 0.0
O15 O 0.69988 1.36763 1.24362 0.0
Zn16 Zn 0.72213 1.24495 1.14929 0.0
O17 O 0.75948 1.33695 1.24159 0.0
C18 C 0.70897 0.99486 0.86895 0.0
O19 O 0.68696 1.07447 0.94372 0.0
O20 O 0.70828 1.25046 1.19227 0.0
C21 C 0.78142 1.26462 1.16764 0.0
O22 O 0.78078 1.1158 1.01721 0.0
C23 C 0.70701 1.49685 1.3612 0.0
O24 O 0.72761 1.56967 1.44327 0.0
O25 O 0.72501 1.03197 0.92428 0.0
C26 C 0.93904 2.28109 1.55523 0.0
O27 O 0.918 2.36085 1.64104 0.0
O28 O 0.87592 2.08501 1.37084 0.0
Zn29 Zn 0.89941 2.08789 1.34082 0.0
O30 O 0.88452 2.2203 1.44127 0.0
C31 C 0.89808 1.75887 1.01978 0.0
O32 O 0.89922 1.78737 1.07368 0.0
O33 O 0.936 2.15953 1.42191 0.0
C34 C 0.86874 2.15883 1.36378 0.0
O35 O 0.86213 2.01346 1.22331 0.0
C36 C 0.85047 2.07842 1.36332 0.0
O37 O 0.83826 2.0872 1.34864 0.0
O38 O 0.90029 1.87159 1.11462 0.0
C39 C 0.26755 2.6629 1.7416 0.0
O40 O 0.26578 2.7579 1.85543 0.0
O41 O 0.28326 2.40511 1.55356 0.0
Zn42 Zn 0.25354 2.4191 1.53972 0.0
O43 O 0.22184 2.52799 1.6631 0.0
C44 C 0.26108 2.10643 1.21676 0.0
O45 O 0.28489 2.15835 1.26099 0.0
O46 O 0.26444 2.51974 1.60437 0.0
C47 C 0.20369 2.4487 1.59662 0.0
O48 O 0.20517 2.29843 1.44857 0.0
C49 C 0.27993 2.30156 1.46948 0.0
O50 O 0.25776 2.21946 1.3888 0.0
O51 O 0.24333 2.20174 1.31779 0.0
C52 C 0.05548 5.04783 4.4393 0.0
O53 O 0.07197 4.93374 4.33171 0.0
O54 O 0.13031 5.06956 4.4575 0.0
Zn55 Zn 0.10225 5.20007 4.56735 0.0
O56 O 0.10148 5.14285 4.47203 0.0
C57 C 0.13564 5.45706 4.83363 0.0
O58 O 0.14434 5.36542 4.76248 0.0
O59 O 0.06465 5.17545 4.55656 0.0
C60 C 0.08141 5.15712 4.47055 0.0
O61 O 0.05826 5.20435 4.52642 0.0
C62 C 0.15071 5.03261 4.40721 0.0
O63 O 0.15153 5.06855 4.41698 0.0
O64 O 0.11487 5.41973 4.78357 0.0
C65 C 0.22011 4.35423 4.3701 0.0
O66 O 0.2246 4.24974 4.24889 0.0
O67 O 0.25858 4.44992 4.40434 0.0
Zn68 Zn 0.22197 4.51877 4.4857 0.0
O69 O 0.19205 4.38554 4.34084 0.0
C70 C 0.2266 4.83246 4.77266 0.0
O71 O 0.25242 4.8242 4.76943 0.0
O72 O 0.21958 4.49482 4.50175 0.0
C73 C 0.19088 4.33306 4.26555 0.0
O74 O 0.21174 4.34538 4.26172 0.0
C75 C 0.26818 4.48569 4.41667 0.0
O76 O 0.25446 4.57376 4.48703 0.0
O77 O 0.211 4.72797 4.67844 0.0
C78 C 0.95175 4.27139 4.04347 0.0
O79 O 0.93189 4.17415 3.94386 0.0
O80 O 0.88302 4.39643 4.1581 0.0
Zn81 Zn 0.90995 4.46441 4.25272 0.0
O82 O 0.89983 4.37223 4.19748 0.0
C83 C 0.89893 4.77773 4.54584 0.0
O84 O 0.89758 4.71749 4.46249 0.0
O85 O 0.94706 4.40439 4.18349 0.0
C86 C 0.90568 4.43707 4.28333 0.0
O87 O 0.92172 4.55715 4.40153 0.0
C88 C 0.86072 4.33948 4.10962 0.0
O89 O 0.85589 4.31788 4.11399 0.0
O90 O 0.90579 4.6916 4.48049 0.0
C91 C 0.78171 5.15475 4.27891 0.0
O92 O 0.79242 5.03571 4.17385 0.0
O93 O 0.75354 5.09285 4.28642 0.0
Zn94 Zn 0.77853 5.25263 4.42868 0.0
O95 O 0.81737 5.20901 4.39379 0.0
C96 C 0.74407 5.48403 4.67862 0.0
O97 O 0.72519 5.40934 4.5921 0.0
O98 O 0.77353 5.26742 4.40359 0.0
C99 C 0.82593 5.23993 4.4476 0.0
O100 O 0.80921 5.29416 4.51894 0.0
C101 C 0.75897 4.98277 4.1939 0.0
O102 O 0.78402 4.95323 4.17113 0.0
O103 O 0.76844 5.44577 4.63788 0.0
C104 C 0.26123 1.6983 1.664 0.0
O105 O 0.27659 1.74758 1.69282 0.0
O106 O 0.24653 1.6643 1.55962 0.0
Zn107 Zn 0.23017 1.53768 1.46477 0.0
O108 O 0.24195 1.31772 1.24473 0.0
C109 C 0.18029 1.68938 1.60725 0.0
O110 O 0.1962 1.80806 1.72789 0.0
O111 O 0.24085 1.61472 1.57685 0.0
C112 C 0.22986 1.22277 1.13615 0.0
O113 O 0.20782 1.26472 1.16501 0.0
C114 C 0.23754 1.64627 1.51817 0.0
O115 O 0.21935 1.54018 1.40903 0.0
O116 O 0.19046 1.55634 1.47836 0.0
C117 C 0.93283 1.7103 1.4958 0.0
O118 O 0.91416 1.74588 1.51327 0.0
O119 O 0.86403 1.78926 1.60029 0.0
Zn120 Zn 0.88768 1.60252 1.4181 0.0
O121 O 0.87494 1.45836 1.24794 0.0
C122 C 0.87831 1.56496 1.43846 0.0
O123 O 0.88789 1.70506 1.57827 0.0
O124 O 0.92625 1.65139 1.46023 0.0
C125 C 0.88659 1.3336 1.11935 0.0
O126 O 0.90942 1.2984 1.09632 0.0
C127 C 0.83968 1.76254 1.58022 0.0
O128 O 0.83228 1.62067 1.44587 0.0
O129 O 0.88019 1.49555 1.34787 0.0
C130 C 0.71732 2.42425 1.48984 0.0
O131 O 0.69859 2.36154 1.4432 0.0
O132 O 0.72282 2.50615 1.64528 0.0
Zn133 Zn 0.74525 2.39203 1.50632 0.0
O134 O 0.7365 2.16593 1.28376 0.0
C135 C 0.80432 2.36781 1.48533 0.0
O136 O 0.80199 2.27983 1.37751 0.0
O137 O 0.73965 2.46215 1.53761 0.0
C138 C 0.74958 2.06754 1.20035 0.0
O139 O 0.76968 2.1122 1.2595 0.0
C140 C 0.72675 2.46476 1.62871 0.0
O141 O 0.74177 2.34488 1.51572 0.0
O142 O 0.78311 2.42531 1.55162 0.0
C143 C 0.05095 2.38514 1.67365 0.0
O144 O 0.06594 2.37441 1.68471 0.0
O145 O 0.1244 2.42561 1.71344 0.0
Zn146 Zn 0.10039 2.33387 1.59479 0.0
O147 O 0.10314 2.10277 1.3672 0.0
C148 C 0.12211 2.55246 1.77196 0.0
O149 O 0.12161 2.64262 1.88172 0.0
O150 O 0.06172 2.38189 1.64739 0.0
C151 C 0.11813 2.03502 1.28375 0.0
O152 O 0.1318 2.11654 1.34639 0.0
C153 C 0.14839 2.37705 1.66676 0.0
O154 O 0.15569 2.26331 1.53928 0.0
O155 O 0.11305 2.41652 1.64067 0.0
C156 C 0.18987 5.12907 4.25302 0.0
O157 O 0.20874 5.06486 4.20438 0.0
O158 O 0.17444 4.84859 4.02715 0.0
Zn159 Zn 0.16512 5.07389 4.24649 0.0
O160 O 0.19252 5.20653 4.39577 0.0
C161 C 0.13167 5.06602 4.28203 0.0
O162 O 0.15396 5.00231 4.22778 0.0
O163 O 0.1664 5.14273 4.27614 0.0
C164 C 0.18794 5.3494 4.53836 0.0
O165 O 0.16577 5.40537 4.58316 0.0
C166 C 0.19577 4.80687 3.99793 0.0
O167 O 0.21247 4.91107 4.10975 0.0
O168 O 0.1299 5.1076 4.29854 0.0
C169 C 0.06447 4.22487 3.99926 0.0
O170 O 0.08362 4.20544 3.96236 0.0
O171 O 0.13471 4.19246 3.99192 0.0
Zn172 Zn 0.1063 4.34295 4.15026 0.0
O173 O 0.11247 4.55749 4.34704 0.0
C174 C 0.11028 4.21479 4.07633 0.0
O175 O 0.10991 4.08905 3.93816 0.0
O176 O 0.07 4.27466 4.07151 0.0
C177 C 0.12158 4.66362 4.46644 0.0
O178 O 0.12849 4.63182 4.45999 0.0
C179 C 0.15911 4.22504 4.02894 0.0
O180 O 0.16572 4.36685 4.17458 0.0
O181 O 0.10751 4.34242 4.18981 0.0
C182 C 0.77529 4.23254 4.24099 0.0
O183 O 0.76292 4.14069 4.13377 0.0
O184 O 0.76418 4.28006 4.21733 0.0
Zn185 Zn 0.78416 4.42797 4.3868 0.0
O186 O 0.76962 4.64287 4.59718 0.0
C187 C 0.83303 4.32298 4.25894 0.0
O188 O 0.82279 4.18624 4.12894 0.0
O189 O 0.78595 4.35639 4.35452 0.0
C190 C 0.77513 4.71969 4.65178 0.0
O191 O 0.78751 4.65249 4.56565 0.0
C192 C 0.74419 4.30553 4.2272 0.0
O193 O 0.73201 4.43867 4.35905 0.0
O194 O 0.82102 4.44082 4.38359 0.0
C195 C 0.94353 5.04727 4.41433 0.0
O196 O 0.92224 5.03551 4.41821 0.0
O197 O 0.88835 4.89669 4.21257 0.0
Zn198 Zn 0.90517 5.09952 4.42291 0.0
O199 O 0.87894 5.21142 4.55671 0.0
C200 C 0.91775 5.15646 4.42365 0.0
O201 O 0.93029 5.02528 4.29717 0.0
O202 O 0.94083 5.07157 4.41323 0.0
C203 C 0.87591 5.35546 4.69584 0.0
O204 O 0.89182 5.43281 4.75575 0.0
C205 C 0.86931 4.90464 4.20341 0.0
O206 O 0.86132 5.03929 4.3273 0.0
O207 O 0.90879 5.21948 4.50678 0.0
C208 C 0.25722 0.50951 0.28414 0.0
O209 O 0.26144 0.64332 0.40439 0.0
O210 O 0.29309 0.80397 0.6195 0.0
Zn211 Zn 0.25732 0.69465 0.51289 0.0
O212 O 0.22877 0.8331 0.63376 0.0
C213 C 0.26595 0.68357 0.55849 0.0
O214 O 0.29094 0.66688 0.53428 0.0
O215 O 0.25605 0.49983 0.30007 0.0
C216 C 0.21697 0.92819 0.74253 0.0
O217 O 0.224 0.9391 0.77859 0.0
C218 C 0.29813 0.90698 0.70355 0.0
O219 O 0.28094 0.93287 0.70962 0.0
O220 O 0.24769 0.66666 0.52428 0.0
C221 C 0.27578 6.15607 5.47029 0.0
O222 O 0.28591 6.07262 5.40766 0.0
O223 O 0.30017 5.75946 5.06448 0.0
Zn224 Zn 0.26434 5.86192 5.16064 0.0
O225 O 0.23877 5.79781 5.12662 0.0
C226 C 0.25621 5.75484 4.99889 0.0
O227 O 0.27996 5.80959 5.04632 0.0
O228 O 0.26652 6.09063 5.3851 0.0
C229 C 0.21717 5.87151 5.20291 0.0
O230 O 0.21344 6.00211 5.31881 0.0
C231 C 0.2992 5.61947 4.93387 0.0
O232 O 0.27596 5.55711 4.87877 0.0
O233 O 0.24698 5.77356 5.04082 0.0
C234 C 0.22986 5.59403 5.40136 0.0
O235 O 0.24547 5.47647 5.29069 0.0
O236 O 0.21568 5.24069 5.0062 0.0
Zn237 Zn 0.19754 5.35016 5.1447 0.0
O238 O 0.20853 5.2419 5.07177 0.0
C239 C 0.14714 5.27694 5.048 0.0
O240 O 0.1591 5.32817 5.0767 0.0
O241 O 0.20771 5.57215 5.36765 0.0
C242 C 0.19633 5.26593 5.11738 0.0
O243 O 0.17625 5.36254 5.21323 0.0
C244 C 0.20962 5.09868 4.86548 0.0
O245 O 0.19365 5.04056 4.82674 0.0
O246 O 0.15796 5.30755 5.10058 0.0
C247 C 0.75365 5.55566 5.34753 0.0
O248 O 0.75013 5.45314 5.22768 0.0
O249 O 0.74567 5.15215 4.97507 0.0
Zn250 Zn 0.77593 5.30392 5.13012 0.0
O251 O 0.80721 5.24682 5.05041 0.0
C252 C 0.76807 5.29961 5.18245 0.0
O253 O 0.74516 5.36096 5.23558 0.0
O254 O 0.76382 5.51685 5.33171 0.0
C255 C 0.82349 5.1451 4.95848 0.0
O256 O 0.82053 5.0861 4.92453 0.0
C257 C 0.74644 5.02498 4.86252 0.0
O258 O 0.76696 4.9928 4.84634 0.0
O259 O 0.78607 5.28435 5.14956 0.0
C260 C 0.70788 6.09145 5.43452 0.0
O261 O 0.68605 6.01692 5.35396 0.0
O262 O 0.70815 5.6695 5.04416 0.0
Zn263 Zn 0.73006 5.7934 5.13988 0.0
O264 O 0.71834 5.75073 5.06011 0.0
C265 C 0.78332 5.69419 5.06327 0.0
O266 O 0.77609 5.73922 5.13164 0.0
O267 O 0.7292 6.01808 5.36746 0.0
C268 C 0.73333 5.80179 5.09167 0.0
O269 O 0.75294 5.89724 5.19151 0.0
C270 C 0.70543 5.5304 4.90023 0.0
O271 O 0.71429 5.48736 4.83428 0.0
O272 O 0.76765 5.71222 5.06116 0.0
C273 C 0.72425 1.10833 0.35367 0.0
O274 O 0.71553 1.21754 0.47695 0.0
O275 O 0.73411 1.50354 0.73934 0.0
Zn276 Zn 0.75741 1.34824 0.56789 0.0
O277 O 0.79519 1.35114 0.58493 0.0
C278 C 0.73568 1.45911 0.62869 0.0
O279 O 0.71373 1.42767 0.61139 0.0
O280 O 0.74164 1.13833 0.36524 0.0
C281 C 0.80967 1.46644 0.69237 0.0
O282 O 0.79975 1.57341 0.78192 0.0
C283 C 0.74171 1.60722 0.85756 0.0
O284 O 0.7669 1.61625 0.874 0.0
O285 O 0.75788 1.41726 0.59761 0.0
C286 C 0.24777 1.17471 0.40728 0.0
O287 O 0.26656 1.28106 0.5114 0.0
O288 O 0.22914 1.52336 0.78936 0.0
Zn289 Zn 0.21572 1.43744 0.66968 0.0
O290 O 0.23414 1.54111 0.74055 0.0
C291 C 0.16056 1.45679 0.70631 0.0
O292 O 0.16955 1.37549 0.6466 0.0
O293 O 0.22331 1.21322 0.44736 0.0
C294 C 0.2233 1.65639 0.84284 0.0
O295 O 0.19997 1.70525 0.89959 0.0
C296 C 0.23092 1.66709 0.93479 0.0
O297 O 0.2248 1.76348 1.01034 0.0
O298 O 0.17643 1.48334 0.713 0.0
C299 C 0.73548 0.57299 0.2789 0.0
O300 O 0.71447 0.66334 0.36825 0.0
O301 O 0.75153 1.00742 0.71142 0.0
Zn302 Zn 0.76152 0.82188 0.55114 0.0
O303 O 0.73936 0.81701 0.57988 0.0
C304 C 0.81429 0.95669 0.68737 0.0
O305 O 0.80804 1.01819 0.72465 0.0
O306 O 0.75794 0.62106 0.33487 0.0
C307 C 0.73898 0.70498 0.48602 0.0
O308 O 0.75142 0.57735 0.35432 0.0
C309 C 0.74509 1.12871 0.84335 0.0
O310 O 0.74259 1.12485 0.86579 0.0
O311 O 0.7991 0.85432 0.59675 0.0
C312 C 0.57418 4.84349 4.09765 0.0
O313 O 0.59589 4.92979 4.18279 0.0
O314 O 0.64281 4.73964 4.00048 0.0
Zn315 Zn 0.61067 4.60907 3.88274 0.0
O316 O 0.60613 4.60441 3.91826 0.0
C317 C 0.62377 4.38229 3.62099 0.0
O318 O 0.61829 4.49617 3.7167 0.0
O319 O 0.57622 4.69912 3.95834 0.0
C320 C 0.62368 4.56291 3.89435 0.0
O321 O 0.64692 4.51127 3.8352 0.0
C322 C 0.666 4.67897 3.9403 0.0
O323 O 0.66904 4.53686 3.8086 0.0
O324 O 0.61768 4.39732 3.66041 0.0
C325 C 0.27235 4.6318 4.14076 0.0
O326 O 0.26117 4.75605 4.25325 0.0
O327 O 0.25296 4.71614 4.15893 0.0
Zn328 Zn 0.28442 4.58243 4.03711 0.0
O329 O 0.31972 4.68922 4.13476 0.0
C330 C 0.26021 4.35529 3.77723 0.0
O331 O 0.28295 4.36906 3.80361 0.0
O332 O 0.28323 4.53632 4.03102 0.0
C333 C 0.33141 4.67454 4.09782 0.0
O334 O 0.32015 4.591 3.99677 0.0
C335 C 0.24704 4.74204 4.16005 0.0
O336 O 0.26281 4.69185 4.09152 0.0
O337 O 0.28191 4.37708 3.8119 0.0
C338 C 0.45514 4.48908 4.35994 0.0
O339 O 0.43362 4.57538 4.44393 0.0
O340 O 0.38924 4.30559 4.19598 0.0
Zn341 Zn 0.41733 4.25165 4.11555 0.0
O342 O 0.40564 4.34715 4.17451 0.0
C343 C 0.40347 3.92204 3.79874 0.0
O344 O 0.42094 4.00299 3.86483 0.0
O345 O 0.45289 4.34431 4.21554 0.0
C346 C 0.39408 4.26945 4.07982 0.0
O347 O 0.3909 4.12091 3.9367 0.0
C348 C 0.3652 4.26751 4.15297 0.0
O349 O 0.36027 4.18561 4.05084 0.0
O350 O 0.41998 4.00919 3.8719 0.0
C351 C 0.736 4.40898 4.02727 0.0
O352 O 0.7446 4.4956 4.13231 0.0
O353 O 0.76802 4.23136 3.91082 0.0
Zn354 Zn 0.73126 4.20323 3.8674 0.0
O355 O 0.70656 4.33103 4.01506 0.0
C356 C 0.73411 3.87867 3.55965 0.0
O357 O 0.75987 3.90064 3.57703 0.0
O358 O 0.72939 4.27052 3.89558 0.0
C359 C 0.68139 4.33098 4.0111 0.0
O360 O 0.67127 4.25641 3.91717 0.0
C361 C 0.76914 4.21918 3.92423 0.0
O362 O 0.7473 4.18472 3.9039 0.0
O363 O 0.71835 3.98871 3.66275 0.0
C364 C 0.5613 1.54104 1.27284 0.0
O365 O 0.58113 1.4865 1.20475 0.0
O366 O 0.62722 1.66456 1.43026 0.0
Zn367 Zn 0.59989 1.77097 1.51179 0.0
O368 O 0.61081 1.79857 1.50049 0.0
C369 C 0.59926 2.01199 1.78857 0.0
O370 O 0.59863 1.89482 1.68993 0.0
O371 O 0.56475 1.66111 1.40499 0.0
C372 C 0.63044 1.73504 1.42634 0.0
O373 O 0.64435 1.62953 1.33512 0.0
C374 C 0.65108 1.71625 1.48293 0.0
O375 O 0.65915 1.82571 1.57431 0.0
O376 O 0.59759 1.98425 1.7363 0.0
C377 C 0.79269 2.00039 1.46555 0.0
O378 O 0.80733 1.94922 1.39527 0.0
O379 O 0.77927 2.08969 1.48219 0.0
Zn380 Zn 0.75359 2.10536 1.52865 0.0
O381 O 0.72137 1.96798 1.38871 0.0
C382 C 0.7519 2.42542 1.8307 0.0
O383 O 0.77694 2.40219 1.80075 0.0
O384 O 0.77068 2.06845 1.52802 0.0
C385 C 0.71226 1.95349 1.3508 0.0
O386 O 0.72574 2.01213 1.38827 0.0
C387 C 0.78878 1.97059 1.35404 0.0
O388 O 0.78294 1.83422 1.22958 0.0
O389 O 0.73869 2.3185 1.73687 0.0
C390 C 0.44945 2.0046 1.26084 0.0
O391 O 0.43066 1.90689 1.15741 0.0
O392 O 0.37994 2.1664 1.41623 0.0
Zn393 Zn 0.40593 2.1502 1.43092 0.0
O394 O 0.39703 1.97873 1.28763 0.0
C395 C 0.38127 2.35148 1.66469 0.0
O396 O 0.36589 2.22952 1.54709 0.0
O397 O 0.44334 2.12252 1.39044 0.0
C398 C 0.41471 1.92396 1.2494 0.0
O399 O 0.43994 1.96631 1.28858 0.0
C400 C 0.3559 2.11793 1.37015 0.0
O401 O 0.34819 2.0384 1.31298 0.0
O402 O 0.40171 2.34737 1.64539 0.0
C403 C 0.22995 1.74692 1.31117 0.0
O404 O 0.22489 1.63439 1.21733 0.0
O405 O 0.199 1.87487 1.50378 0.0
Zn406 Zn 0.23405 1.92288 1.53259 0.0
O407 O 0.26389 1.80022 1.42854 0.0
C408 C 0.22717 2.23218 1.85609 0.0
O409 O 0.20165 2.19346 1.8174 0.0
O410 O 0.23328 1.88253 1.45335 0.0
C411 C 0.27103 1.83588 1.48732 0.0
O412 O 0.25798 1.94304 1.60576 0.0
C413 C 0.19631 1.75727 1.40291 0.0
O414 O 0.21542 1.65434 1.30247 0.0
O415 O 0.24384 2.14065 1.75544 0.0
C416 C 0.71577 4.63656 4.14453 0.0
O417 O 0.73452 4.69731 4.18902 0.0
O418 O 0.68293 4.91219 4.36472 0.0
Zn419 Zn 0.68511 4.68364 4.14408 0.0
O420 O 0.71491 4.61406 4.05167 0.0
C421 C 0.63101 4.65101 4.09101 0.0
O422 O 0.62762 4.78789 4.23605 0.0
O423 O 0.69208 4.62057 4.11981 0.0
C424 C 0.71922 4.47183 3.90872 0.0
O425 O 0.70595 4.37196 3.8252 0.0
C426 C 0.68237 4.95796 4.38552 0.0
O427 O 0.68113 4.85646 4.26623 0.0
O428 O 0.65273 4.58168 4.02798 0.0
C429 C 0.46585 5.01027 4.28523 0.0
O430 O 0.44642 5.05567 4.31396 0.0
O431 O 0.40281 5.1535 4.46301 0.0
Zn432 Zn 0.42269 4.95247 4.26509 0.0
O433 O 0.40351 4.80619 4.09621 0.0
C434 C 0.42147 4.93369 4.30555 0.0
O435 O 0.42725 5.08073 4.44948 0.0
O436 O 0.46058 4.97079 4.27039 0.0
C437 C 0.38771 4.70528 4.0066 0.0
O438 O 0.38418 4.69614 4.02367 0.0
C439 C 0.37977 5.15181 4.47238 0.0
O440 O 0.37075 5.02444 4.35802 0.0
O441 O 0.42098 4.86029 4.21135 0.0
C442 C 0.27601 4.5203 4.1453 0.0
O443 O 0.25572 4.45108 4.08904 0.0
O444 O 0.27302 4.6249 4.32274 0.0
Zn445 Zn 0.29583 4.48491 4.16226 0.0
O446 O 0.28499 4.2617 3.94237 0.0
C447 C 0.32934 4.45079 4.17097 0.0
O448 O 0.30519 4.42111 4.15104 0.0
O449 O 0.29681 4.55415 4.19218 0.0
C450 C 0.26941 4.1945 3.89269 0.0
O451 O 0.25607 4.27481 3.98945 0.0
C452 C 0.24814 4.65516 4.35235 0.0
O453 O 0.232 4.58814 4.26914 0.0
O454 O 0.33208 4.48978 4.18488 0.0
C455 C 0.56598 4.60931 4.46488 0.0
O456 O 0.58534 4.65476 4.52569 0.0
O457 O 0.63697 4.62107 4.45718 0.0
Zn458 Zn 0.60853 4.46891 4.29675 0.0
O459 O 0.61335 4.2684 4.11935 0.0
C460 C 0.62648 4.52261 4.29517 0.0
O461 O 0.63397 4.65689 4.43664 0.0
O462 O 0.57156 4.53976 4.37481 0.0
C463 C 0.61359 4.14333 3.98323 0.0
O464 O 0.61009 4.14665 3.96039 0.0
C465 C 0.66112 4.57567 4.41422 0.0
O466 O 0.66642 4.42896 4.26757 0.0
O467 O 0.61319 4.43107 4.21997 0.0
C468 C 0.78897 1.9509 1.52881 0.0
O469 O 0.80413 1.90394 1.50253 0.0
O470 O 0.75372 1.78342 1.42237 0.0
Zn471 Zn 0.74777 1.98973 1.60738 0.0
O472 O 0.76119 2.16297 1.80099 0.0
C473 C 0.69344 1.91683 1.52032 0.0
O474 O 0.70532 1.80864 1.40001 0.0
O475 O 0.76508 1.99424 1.57577 0.0
C476 C 0.74846 2.18613 1.84548 0.0
O477 O 0.72807 2.09671 1.7637 0.0
C478 C 0.73551 1.72165 1.37606 0.0
O479 O 0.71294 1.79397 1.45165 0.0
O480 O 0.7082 2.01685 1.63006 0.0
C481 C 0.56308 1.97709 1.23675 0.0
O482 O 0.58166 2.00119 1.24218 0.0
O483 O 0.63505 1.97071 1.24594 0.0
Zn484 Zn 0.60473 2.06614 1.36051 0.0
O485 O 0.60307 2.29464 1.57996 0.0
C486 C 0.61951 1.8827 1.22492 0.0
O487 O 0.61992 1.7788 1.10364 0.0
O488 O 0.56905 1.98559 1.26984 0.0
C489 C 0.61559 2.3897 1.68822 0.0
O490 O 0.63036 2.33883 1.65811 0.0
C491 C 0.65879 2.02198 1.29945 0.0
O492 O 0.66291 2.14713 1.43663 0.0
O493 O 0.61196 2.01723 1.35101 0.0
C494 C 0.25777 1.7273 1.1806 0.0
O495 O 0.24257 1.71446 1.14655 0.0
O496 O 0.28033 1.80887 1.191 0.0
Zn497 Zn 0.29711 1.87668 1.29248 0.0
O498 O 0.29154 2.10271 1.51973 0.0
C499 C 0.34433 1.714 1.11775 0.0
O500 O 0.32607 1.61359 1.01146 0.0
O501 O 0.28155 1.77913 1.22952 0.0
C502 C 0.30508 2.21004 1.61446 0.0
O503 O 0.32435 2.17779 1.56568 0.0
C504 C 0.2585 1.86061 1.23251 0.0
O505 O 0.24413 1.95711 1.34156 0.0
O506 O 0.33641 1.83548 1.24884 0.0
C507 C 0.4504 1.41026 1.15079 0.0
O508 O 0.43576 1.29003 1.03897 0.0
O509 O 0.38477 1.40509 1.17311 0.0
Zn510 Zn 0.40299 1.5902 1.33964 0.0
O511 O 0.40497 1.76568 1.53835 0.0
C512 C 0.36279 1.56944 1.27803 0.0
O513 O 0.36347 1.42285 1.13985 0.0
O514 O 0.44017 1.54322 1.28143 0.0
C515 C 0.38276 1.82689 1.60463 0.0
O516 O 0.36036 1.76685 1.53634 0.0
C517 C 0.37771 1.38086 1.17334 0.0
O518 O 0.38427 1.47861 1.28848 0.0
O519 O 0.37936 1.66158 1.37958 0.0
C520 C 0.7819 3.85538 3.12704 0.0
O521 O 0.78741 3.94238 3.19175 0.0
O522 O 0.80629 4.27123 3.5555 0.0
Zn523 Zn 0.77324 4.14154 3.43301 0.0
O524 O 0.74425 4.18269 3.44601 0.0
C525 C 0.77188 4.27275 3.61588 0.0
O526 O 0.79646 4.3187 3.65579 0.0
O527 O 0.7789 3.9165 3.21005 0.0
C528 C 0.72017 4.16587 3.43738 0.0
O529 O 0.7159 4.12886 3.42619 0.0
C530 C 0.80514 4.39611 3.6653 0.0
O531 O 0.78427 4.42319 3.67657 0.0
O532 O 0.75892 4.19354 3.52086 0.0
C533 C 0.75024 2.69774 2.53706 0.0
O534 O 0.75283 2.56334 2.41648 0.0
O535 O 0.76149 2.3488 2.15312 0.0
Zn536 Zn 0.73598 2.52251 2.31747 0.0
O537 O 0.6975 2.4628 2.26516 0.0
C538 C 0.76184 2.55492 2.29836 0.0
O539 O 0.78289 2.52734 2.28634 0.0
O540 O 0.74461 2.706 2.52036 0.0
C541 C 0.68809 2.35932 2.14811 0.0
O542 O 0.70397 2.29495 2.06705 0.0
C543 C 0.7578 2.22793 2.04795 0.0
O544 O 0.7355 2.20892 2.04297 0.0
O545 O 0.73925 2.56832 2.32315 0.0
C546 C 0.7341 3.25422 2.53397 0.0
O547 O 0.74694 3.12473 2.4029 0.0
O548 O 0.69828 2.93891 2.19336 0.0
Zn549 Zn 0.69236 3.044 2.33218 0.0
O550 O 0.70952 2.91981 2.23872 0.0
C551 C 0.63765 3.00954 2.28571 0.0
O552 O 0.6464 3.0535 2.30527 0.0
O553 O 0.70892 3.25201 2.53598 0.0
C554 C 0.70779 2.94645 2.2899 0.0
O555 O 0.69476 3.0672 2.41733 0.0
C556 C 0.71013 2.81073 2.06563 0.0
O557 O 0.71981 2.74572 2.02337 0.0
O558 O 0.65295 3.03403 2.32976 0.0
C559 C 0.26405 3.11873 2.44253 0.0
O560 O 0.25925 2.99778 2.30856 0.0
O561 O 0.23242 2.79536 2.15086 0.0
Zn562 Zn 0.26625 2.89283 2.2617 0.0
O563 O 0.29834 2.77332 2.1318 0.0
C564 C 0.2742 2.81519 2.24471 0.0
O565 O 0.26486 2.92204 2.33418 0.0
O566 O 0.26838 3.10235 2.4514 0.0
C567 C 0.32232 2.82325 2.17979 0.0
O568 O 0.32805 2.96257 2.32511 0.0
C569 C 0.23345 2.66668 2.01236 0.0
O570 O 0.2564 2.59376 1.93937 0.0
O571 O 0.26535 2.91576 2.32708 0.0
C572 C 0.24677 2.63224 2.42914 0.0
O573 O 0.22946 2.52023 2.31502 0.0
O574 O 0.26641 2.23941 2.03421 0.0
Zn575 Zn 0.28354 2.42594 2.20104 0.0
O576 O 0.27516 2.44129 2.1768 0.0
C577 C 0.33363 2.34181 2.14294 0.0
O578 O 0.31792 2.32103 2.1434 0.0
O579 O 0.27119 2.61589 2.40636 0.0
C580 C 0.2534 2.3907 2.11706 0.0
O581 O 0.23484 2.33371 2.07691 0.0
C582 C 0.27262 2.10569 1.89474 0.0
O583 O 0.28835 2.08912 1.85748 0.0
O584 O 0.32326 2.39705 2.17607 0.0
C585 C 0.23871 3.25574 3.07014 0.0
O586 O 0.22149 3.34839 3.17274 0.0
O587 O 0.24561 3.68029 3.4848 0.0
Zn588 Zn 0.27379 3.52337 3.32291 0.0
O589 O 0.30557 3.55007 3.3735 0.0
C590 C 0.26443 3.5947 3.33948 0.0
O591 O 0.24063 3.54853 3.3022 0.0
O592 O 0.26061 3.3068 3.11079 0.0
C593 C 0.31851 3.67576 3.49597 0.0
O594 O 0.31079 3.78299 3.58464 0.0
C595 C 0.2325 3.71686 3.54157 0.0
O596 O 0.23614 3.6422 3.49075 0.0
O597 O 0.28403 3.57749 3.33864 0.0
C598 C 0.7343 3.30467 3.16748 0.0
O599 O 0.7497 3.42192 3.28918 0.0
O600 O 0.71068 3.70395 3.565 0.0
Zn601 Zn 0.69701 3.53318 3.37327 0.0
O602 O 0.70681 3.56152 3.36235 0.0
C603 C 0.65093 3.56388 3.43294 0.0
O604 O 0.66775 3.51284 3.40091 0.0
O605 O 0.71067 3.32702 3.18083 0.0
C606 C 0.70079 3.67874 3.46386 0.0
O607 O 0.68694 3.78984 3.58422 0.0
C608 C 0.7265 3.81389 3.66742 0.0
O609 O 0.73843 3.81761 3.64757 0.0
O610 O 0.65747 3.54925 3.39403 0.0
C611 C 0.25909 3.74917 3.02883 0.0
O612 O 0.23865 3.8228 3.11166 0.0
O613 O 0.25157 4.15029 3.38594 0.0
Zn614 Zn 0.27534 4.053 3.31849 0.0
O615 O 0.26198 4.10145 3.40373 0.0
C616 C 0.31299 4.29103 3.55485 0.0
O617 O 0.29024 4.36263 3.62936 0.0
O618 O 0.27742 3.82415 3.09053 0.0
C619 C 0.27812 4.10126 3.42332 0.0
O620 O 0.30324 4.06254 3.38133 0.0
C621 C 0.23534 4.25335 3.49494 0.0
O622 O 0.23139 4.27385 3.54089 0.0
O623 O 0.31226 4.14872 3.40948 0.0
C624 C 0.97297 1.65221 1.41002 0.0
C625 C 0.96151 1.73117 1.50979 0.0
C626 C 0.00614 1.80925 1.60194 0.0
C627 C 0.01752 1.73766 1.50862 0.0
N628 N 0.01161 1.62242 1.35168 0.0
N629 N 0.96626 1.91617 1.72742 0.0
C630 C 0.00084 1.66911 1.42146 0.0
C631 C 0.97784 1.81989 1.61448 0.0
N632 N 0.95766 1.55404 1.29839 0.0
N633 N 0.02217 1.85827 1.67079 0.0
H634 H 0.94551 1.92832 1.74116 0.0
H635 H 0.97719 1.99499 1.81634 0.0
H636 H 0.04301 1.84879 1.66136 0.0
H637 H 0.01462 1.89526 1.72555 0.0
H638 H 0.96569 1.48031 1.21155 0.0
H639 H 0.93723 1.53609 1.28401 0.0
H640 H 2e-05 1.58555 1.29922 0.0
H641 H 0.03196 1.6348 1.35933 0.0
C642 C 0.69533 1.50043 1.52147 0.0
C643 C 0.71503 2.41413 1.45042 0.0
C644 C 0.73221 1.31513 1.31052 0.0
C645 C 0.71104 1.39001 1.37044 0.0
N646 N 0.67046 1.53897 1.51797 0.0
N647 N 0.748 2.21156 1.25071 0.0
C648 C 0.69201 1.47885 1.47209 0.0
C649 C 0.73229 2.31354 1.33736 0.0
N650 N 0.68041 2.60603 1.63896 0.0
N651 N 0.75299 1.25147 1.2339 0.0
H652 H 0.7483 2.20326 1.26342 0.0
H653 H 0.75869 2.12446 1.15561 0.0
H654 H 0.75421 1.25256 1.21408 0.0
H655 H 0.77038 1.21108 1.20333 0.0
H656 H 0.66769 1.68394 1.70626 0.0
H657 H 0.68228 2.62374 1.67702 0.0
H658 H 0.65442 1.59158 1.57934 0.0
H659 H 0.66759 1.52574 1.48433 0.0
C660 C 0.00903 2.2379 1.54004 0.0
C661 C 0.0214 2.37472 1.66508 0.0
C662 C 0.97849 2.46201 1.73261 0.0
C663 C 0.96622 2.32535 1.60779 0.0
N664 N 0.9675 2.10744 1.42316 0.0
N665 N 0.01718 2.63249 1.90189 0.0
C666 C 0.98078 2.22137 1.52169 0.0
C667 C 0.0058 2.49219 1.76879 0.0
N668 N 0.02429 2.11905 1.43236 0.0
N669 N 0.96459 2.5582 1.81066 0.0
H670 H 0.03715 2.65747 1.93123 0.0
H671 H 0.00633 2.72759 1.9891 0.0
H672 H 0.9445 2.5405 1.78816 0.0
H673 H 0.97341 2.64992 1.89072 0.0
H674 H 0.01646 2.01037 1.3295 0.0
H675 H 0.04512 2.12398 1.43884 0.0
H676 H 0.97668 2.03735 1.36842 0.0
H677 H 0.94669 2.09341 1.40842 0.0
C678 C 0.24849 2.79587 1.83207 0.0
C679 C 0.27026 2.71932 1.76927 0.0
C680 C 0.29015 1.66331 1.67037 0.0
C681 C 0.26769 1.7329 1.72633 0.0
N682 N 0.23034 1.90545 1.89891 0.0
N683 N 0.31527 2.6229 1.67181 0.0
C684 C 0.24854 1.81339 1.82095 0.0
C685 C 0.29235 2.66811 1.70351 0.0
N686 N 0.22689 2.84145 1.89176 0.0
N687 N 0.30828 1.58352 1.57685 0.0
H688 H 0.31722 2.62643 1.69614 0.0
H689 H 0.33301 2.59651 1.63585 0.0
H690 H 0.30759 1.57894 1.55145 0.0
H691 H 0.32314 1.51452 1.51722 0.0
H692 H 0.20901 2.87978 1.92102 0.0
H693 H 0.22611 2.83277 1.90406 0.0
H694 H 0.21731 1.97812 1.98056 0.0
H695 H 0.23015 1.9201 1.89251 0.0
C696 C 0.9815 5.13189 4.52757 0.0
C697 C 0.9708 5.02639 4.40486 0.0
C698 C 0.01535 4.91798 4.29087 0.0
C699 C 0.02613 5.02199 4.41241 0.0
N700 N 0.01883 5.19986 4.62353 0.0
N701 N 0.97564 4.79099 4.14856 0.0
C702 C 0.0089 5.11951 4.5231 0.0
C703 C 0.98715 4.90992 4.27933 0.0
N704 N 0.96605 5.24942 4.65254 0.0
N705 N 0.03193 4.83521 4.19314 0.0
H706 H 0.95492 4.781 4.13601 0.0
H707 H 0.98628 4.69483 4.04774 0.0
H708 H 0.05278 4.83815 4.19737 0.0
H709 H 0.02505 4.77309 4.11553 0.0
H710 H 0.97367 5.34003 4.75301 0.0
H711 H 0.94591 5.26281 4.66055 0.0
H712 H 0.00682 5.2622 4.69797 0.0
H713 H 0.03882 5.19183 4.62174 0.0
C714 C 0.18813 4.21337 4.26124 0.0
C715 C 0.21152 4.30591 4.34958 0.0
C716 C 0.21789 5.30235 4.3947 0.0
C717 C 0.19663 5.1935 4.28986 0.0
N718 N 0.16428 5.02587 4.10365 0.0
N719 N 0.25072 4.42452 4.48589 0.0
C720 C 0.18238 5.14404 4.21813 0.0
C721 C 0.22693 4.3474 4.41316 0.0
N722 N 0.17092 4.19591 4.22287 0.0
N723 N 0.22882 5.36663 4.4805 0.0
H724 H 0.25795 4.46012 4.50225 0.0
H725 H 0.26431 5.44234 4.51901 0.0
H726 H 0.22259 5.33823 4.47192 0.0
H727 H 0.24228 5.4585 4.57039 0.0
H728 H 0.1522 4.14278 4.17225 0.0
H729 H 0.17406 4.24807 4.25557 0.0
H730 H 0.15556 4.97407 4.03596 0.0
H731 H 0.1598 4.9696 4.06625 0.0
C732 C 0.02324 4.30965 4.05813 0.0
C733 C 0.03596 4.2037 3.97135 0.0
C734 C 0.99243 4.1168 3.90294 0.0
C735 C 0.97978 4.22684 3.99451 0.0
N736 N 0.9817 4.39331 4.11975 0.0
N737 N 0.03321 3.97769 3.77657 0.0
C738 C 0.99479 4.31138 4.05852 0.0
C739 C 0.02062 4.09695 3.88139 0.0
N740 N 0.03817 4.41569 4.14865 0.0
N741 N 0.97791 4.03931 3.84573 0.0
H742 H 0.05391 3.96116 3.75891 0.0
H743 H 0.02302 3.88792 3.69768 0.0
H744 H 0.95718 4.04981 3.85814 0.0
H745 H 0.98659 3.97183 3.79423 0.0
H746 H 0.02983 4.50799 4.22919 0.0
H747 H 0.05909 4.41727 4.15027 0.0
H748 H 0.99142 4.44631 4.15584 0.0
H749 H 0.96079 4.39547 4.12048 0.0
C750 C 0.75272 4.19352 4.24706 0.0
C751 C 0.77655 4.19494 4.23284 0.0
C752 C 0.80385 5.16828 4.24719 0.0
C753 C 0.77999 5.16018 4.25473 0.0
N754 N 0.73186 5.13176 4.229 0.0
N755 N 0.82413 4.15054 4.18563 0.0
C756 C 0.75443 5.16264 4.24463 0.0
C757 C 0.80195 4.17209 4.22252 0.0
N758 N 0.72864 4.22918 4.27057 0.0
N759 N 0.82827 5.17985 4.27101 0.0
H760 H 0.82339 4.15139 4.16553 0.0
H761 H 0.84272 4.11769 4.16089 0.0
H762 H 0.83056 5.17798 4.28999 0.0
H763 H 0.84607 5.20381 4.28442 0.0
H764 H 0.71114 4.24754 4.29958 0.0
H765 H 0.72647 4.25238 4.27297 0.0
H766 H 0.71294 5.11592 4.20493 0.0
H767 H 0.73241 5.10807 4.22623 0.0
C768 C 0.26615 0.30632 0.04977 0.0
C769 C 0.24817 0.37891 0.1391 0.0
C770 C 0.21926 5.81525 5.64952 0.0
C771 C 0.23681 5.74523 5.56182 0.0
N772 N 0.27742 5.75674 5.54688 0.0
N773 N 0.20272 0.41584 0.19079 0.0
C774 C 0.26246 5.81042 5.62064 0.0
C775 C 0.2212 0.32803 0.09126 0.0
N776 N 0.29247 0.35149 0.09339 0.0
N777 N 0.19592 5.74417 5.58718 0.0
H778 H 0.20747 0.52064 0.30286 0.0
H779 H 0.18217 0.39253 0.16754 0.0
H780 H 0.18917 5.64136 5.47786 0.0
H781 H 0.1843 5.78077 5.63931 0.0
H782 H 0.30724 0.29209 0.02454 0.0
H783 H 0.29998 0.44254 0.19433 0.0
H784 H 0.29515 5.80857 5.59136 0.0
H785 H 0.27075 5.66872 5.44773 0.0
C786 C 0.27665 0.7991 0.01228 0.0
C787 C 0.27189 6.32271 5.63781 0.0
C788 C 0.24746 0.90996 0.16609 0.0
C789 C 0.25501 1.01104 0.24451 0.0
N790 N 0.27329 1.04967 0.23808 0.0
N791 N 0.24301 6.27622 5.63035 0.0
C792 C 0.26881 0.95541 0.16687 0.0
C793 C 0.25045 0.74969 0.00479 0.0
N794 N 0.30051 6.37648 5.65276 0.0
N795 N 0.23816 0.96721 0.24618 0.0
H796 H 0.24406 6.15759 5.51151 0.0
H797 H 0.22891 6.31027 5.67806 0.0
H798 H 0.23609 1.08439 0.36508 0.0
H799 H 0.23505 0.89961 0.19668 0.0
H800 H 0.30519 0.82256 0.0039 0.0
H801 H 0.30697 6.26296 5.54012 0.0
H802 H 0.28059 1.0108 0.1815 0.0
H803 H 0.26746 1.16435 0.35045 0.0
C804 C 0.75926 5.81306 5.57871 0.0
C805 C 0.74526 5.71625 5.5017 0.0
C806 C 0.71822 0.31068 0.0325 0.0
C807 C 0.73265 0.40817 0.11058 0.0
N808 N 0.75797 0.44022 0.10137 0.0
N809 N 0.70871 5.67978 5.4968 0.0
C810 C 0.74822 0.34573 0.02809 0.0
C811 C 0.72569 5.77692 5.57894 0.0
N812 N 0.77871 5.75385 5.50421 0.0
N813 N 0.70453 0.37091 0.11303 0.0
H814 H 0.70943 5.56083 5.37749 0.0
H815 H 0.69233 5.71714 5.54474 0.0
H816 H 0.70258 0.48823 0.23175 0.0
H817 H 0.69663 0.30444 0.06317 0.0
H818 H 0.79181 5.8212 5.55913 0.0
H819 H 0.78294 5.63702 5.3883 0.0
H820 H 0.76747 0.40064 0.04517 0.0
H821 H 0.75423 0.55795 0.21696 0.0
C822 C 0.70522 6.34047 5.65444 0.0
C823 C 0.70888 6.26053 5.60036 0.0
C824 C 0.71902 0.86843 0.14513 0.0
C825 C 0.71443 0.94936 0.20043 0.0
N826 N 0.69377 0.95918 0.16637 0.0
N827 N 0.71564 6.2671 5.6547 0.0
C828 C 0.7025 0.87485 0.10483 0.0
C829 C 0.71075 0.71276 -0.00606 0.0
N830 N 0.7005 6.26176 5.55373 0.0
N831 N 0.73272 0.93673 0.23291 0.0
H832 H 0.70942 6.15314 5.54466 0.0
H833 H 0.71267 0.69585 0.01983 0.0
H834 H 0.73957 1.04988 0.34356 0.0
H835 H 0.7393 0.8774 0.19146 0.0
H836 H 0.7009 6.31316 5.58541 0.0
H837 H 0.69843 6.14288 5.43593 0.0
H838 H 0.68253 0.9127 0.10496 0.0
H839 H 0.6954 1.07854 0.28302 0.0
C840 C 0.52664 4.86669 4.1052 0.0
C841 C 0.54728 4.91301 4.1686 0.0
C842 C 0.51477 5.06332 4.34206 0.0
C843 C 0.49364 4.99383 4.25902 0.0
N844 N 0.47924 4.81426 4.04816 0.0
N845 N 0.56021 5.03778 4.33293 0.0
C846 C 0.49943 4.89321 4.13838 0.0
C847 C 0.54131 5.00865 4.28499 0.0
N848 N 0.53309 4.79728 4.01321 0.0
N849 N 0.50944 5.18176 4.47568 0.0
H850 H 0.5797 4.99539 4.29061 0.0
H851 H 0.55579 5.09198 4.40434 0.0
H852 H 0.49016 5.22573 4.52149 0.0
H853 H 0.52443 5.24628 4.5485 0.0
H854 H 0.51906 4.77392 3.97524 0.0
H855 H 0.55291 4.77715 3.98767 0.0
H856 H 0.4827 4.72653 3.94812 0.0
H857 H 0.45902 4.82643 4.06497 0.0
C858 C 0.28072 4.69869 4.2815 0.0
C859 C 0.27512 4.54978 4.14511 0.0
C860 C 0.26401 4.46192 4.01339 0.0
C861 C 0.2729 4.6048 4.14349 0.0
N862 N 0.29542 4.84779 4.38994 0.0
N863 N 0.2675 4.28018 3.87104 0.0
C864 C 0.28283 4.72046 4.27477 0.0
C865 C 0.26843 4.42845 4.00794 0.0
N866 N 0.28302 4.82053 4.41847 0.0
N867 N 0.25045 4.3603 3.89744 0.0
H868 H 0.27188 4.24907 3.86016 0.0
H869 H 0.26529 4.18655 3.76611 0.0
H870 H 0.24588 4.38263 3.89935 0.0
H871 H 0.24125 4.26127 3.80744 0.0
H872 H 0.28439 4.93375 4.52323 0.0
H873 H 0.28079 4.81047 4.42932 0.0
H874 H 0.30534 4.92761 4.48052 0.0
H875 H 0.29849 4.86569 4.38707 0.0
C876 C 0.50009 4.51412 4.40579 0.0
C877 C 0.48227 4.55806 4.42832 0.0
C878 C 0.51914 4.68903 4.53392 0.0
C879 C 0.53754 4.61743 4.48108 0.0
N880 N 0.54581 4.4529 4.35751 0.0
N881 N 0.47474 4.68187 4.50728 0.0
C882 C 0.52816 4.53023 4.41756 0.0
C883 C 0.49159 4.64711 4.49387 0.0
N884 N 0.49008 4.45629 4.37239 0.0
N885 N 0.52819 4.79608 4.62127 0.0
H886 H 0.45444 4.65259 4.47823 0.0
H887 H 0.48132 4.73009 4.53672 0.0
H888 H 0.54836 4.82893 4.6525 0.0
H889 H 0.51548 4.8627 4.67503 0.0
H890 H 0.5019 4.4353 4.3686 0.0
H891 H 0.4695 4.44423 4.36401 0.0
H892 H 0.53981 4.37261 4.29286 0.0
H893 H 0.56657 4.45977 4.36209 0.0
C894 C 0.71355 4.59535 4.17973 0.0
C895 C 0.7322 4.4746 4.06484 0.0
C896 C 0.73982 4.459 4.00116 0.0
C897 C 0.72218 4.58431 4.1205 0.0
N898 N 0.69645 4.79213 4.34355 0.0
N899 N 0.76486 4.29892 3.87379 0.0
C900 C 0.71023 4.65851 4.21578 0.0
C901 C 0.74593 4.40971 3.97891 0.0
N902 N 0.69787 4.64352 4.24799 0.0
N903 N 0.75085 4.38145 3.90392 0.0
H904 H 0.77086 4.26181 3.85627 0.0
H905 H 0.77524 4.2484 3.80821 0.0
H906 H 0.74694 4.4053 3.90723 0.0
H907 H 0.74694 4.4053 3.90723 0.0
H908 H 0.68181 4.7183 4.31924 0.0
H909 H 0.69927 4.59866 4.22321 0.0
H910 H 0.68984 4.86068 4.42674 0.0
H911 H 0.69368 4.84216 4.37393 0.0
C912 C 0.49635 1.37634 1.13659 0.0
C913 C 0.47965 1.39782 1.13496 0.0
C914 C 0.5181 1.48341 1.19242 0.0
C915 C 0.53457 1.468 1.20035 0.0
N916 N 0.54176 1.3602 1.13817 0.0
N917 N 0.47503 1.42942 1.11834 0.0
C918 C 0.52443 1.40069 1.15795 0.0
C919 C 0.49078 1.43675 1.148 0.0
N920 N 0.48524 1.34294 1.12817 0.0
N921 N 0.52809 1.55135 1.23658 0.0
H922 H 0.45493 1.39484 1.08507 0.0
H923 H 0.48235 1.44341 1.11267 0.0
H924 H 0.54812 1.58505 1.26774 0.0
H925 H 0.51627 1.58256 1.25095 0.0
H926 H 0.49598 1.34523 1.14836 0.0
H927 H 0.46482 1.32121 1.10949 0.0
H928 H 0.53601 1.29774 1.09361 0.0
H929 H 0.56248 1.37671 1.15287 0.0
C930 C 0.80455 2.09944 1.63512 0.0
C931 C 0.79919 1.95531 1.50541 0.0
C932 C 0.79777 1.83105 1.33921 0.0
C933 C 0.80094 1.97736 1.47102 0.0
N934 N 0.81497 2.24091 1.73347 0.0
N935 N 0.79815 1.67983 1.23148 0.0
C936 C 0.807 2.10846 1.61564 0.0
C937 C 0.79858 1.81927 1.35608 0.0
N938 N 0.80616 2.22787 1.77712 0.0
N939 N 0.7921 1.70592 1.20054 0.0
H940 H 0.79824 1.66872 1.2414 0.0
H941 H 0.79998 1.57568 1.11901 0.0
H942 H 0.79202 1.70991 1.18355 0.0
H943 H 0.78629 1.5997 1.10371 0.0
H944 H 0.80687 2.33912 1.87899 0.0
H945 H 0.80592 2.22283 1.79311 0.0
H946 H 0.82162 2.33829 1.8394 0.0
H947 H 0.8171 2.24858 1.7202 0.0
C948 C 0.52134 2.09104 1.32905 0.0
C949 C 0.53446 1.96487 1.21726 0.0
C950 C 0.4911 1.84771 1.11308 0.0
C951 C 0.47804 1.97445 1.2256 0.0
N952 N 0.48004 2.18988 1.40737 0.0
N953 N 0.53249 1.70538 0.97838 0.0
C954 C 0.49302 2.08687 1.32209 0.0
C955 C 0.51947 1.83686 1.1006 0.0
N956 N 0.53548 2.21983 1.44867 0.0
N957 N 0.47675 1.74374 1.02564 0.0
H958 H 0.55332 1.69475 0.9666 0.0
H959 H 0.52258 1.60312 0.88238 0.0
H960 H 0.45594 1.74669 1.03046 0.0
H961 H 0.48565 1.6604 0.95567 0.0
H962 H 0.52638 2.32159 1.54282 0.0
H963 H 0.55622 2.23035 1.46106 0.0
H964 H 0.49002 2.26571 1.46917 0.0
H965 H 0.45923 2.18832 1.4033 0.0
C966 C 0.22574 1.80606 1.29444 0.0
C967 C 0.24638 1.70717 1.18799 0.0
C968 C 0.25456 1.62039 1.14865 0.0
C969 C 0.23349 1.71661 1.25237 0.0
N970 N 0.19435 1.8664 1.38938 0.0
N971 N 0.27545 1.49268 0.98523 0.0
C972 C 0.21751 1.79789 1.31365 0.0
C973 C 0.25909 1.60482 1.10532 0.0
N974 N 0.21528 1.91542 1.38539 0.0
N975 N 0.27141 1.55221 1.09962 0.0
H976 H 0.27897 1.47841 0.95068 0.0
H977 H 0.2833 1.40528 0.91111 0.0
H978 H 0.26924 1.56231 1.13028 0.0
H979 H 0.28892 1.49576 1.03852 0.0
H980 H 0.2026 2.00198 1.47721 0.0
H981 H 0.22091 1.92864 1.37838 0.0
H982 H 0.1805 1.91461 1.42364 0.0
H983 H 0.18766 1.861 1.40391 0.0
C984 C 0.74959 3.66551 2.9202 0.0
C985 C 0.77239 3.69597 2.96656 0.0
C986 C 0.77026 3.43439 2.72711 0.0
C987 C 0.74861 3.4019 2.67747 0.0
N988 N 0.72278 3.47232 2.70772 0.0
N989 N 0.80791 3.60176 2.90217 0.0
C990 C 0.73991 3.51301 2.768 0.0
C991 C 0.78387 3.57756 2.86577 0.0
N992 N 0.7359 3.78251 3.02327 0.0
N993 N 0.77687 3.33267 2.64686 0.0
H994 H 0.81844 3.70533 3.00264 0.0
H995 H 0.81856 3.51518 2.82663 0.0
H996 H 0.76705 3.22781 2.54639 0.0
H997 H 0.79051 3.35785 2.68688 0.0
H998 H 0.71744 3.76682 2.99835 0.0
H999 H 0.7413 3.89759 3.13816 0.0
H1000 H 0.71795 3.54561 2.76401 0.0
H1001 H 0.71566 3.36049 2.59511 0.0
C1002 C 0.77049 2.95531 2.79723 0.0
C1003 C 0.75211 2.8416 2.69413 0.0
C1004 C 0.73096 3.02879 2.90796 0.0
C1005 C 0.74509 3.1474 3.0112 0.0
N1006 N 0.77818 3.22527 3.05475 0.0
N1007 N 0.71431 2.76774 2.64918 0.0
C1008 C 0.76537 3.11148 2.95684 0.0
C1009 C 0.73259 2.87635 2.74814 0.0
N1010 N 0.79264 2.91329 2.74156 0.0
N1011 N 0.71572 3.06326 2.96384 0.0
H1012 H 0.71474 2.65446 2.53115 0.0
H1013 H 0.69763 2.79216 2.68503 0.0
H1014 H 0.71441 3.17472 3.08102 0.0
H1015 H 0.70669 2.98045 2.89453 0.0
H1016 H 0.80811 2.98913 2.8112 0.0
H1017 H 0.79679 2.79882 2.62448 0.0
H1018 H 0.79052 3.20429 3.01766 0.0
H1019 H 0.77519 3.34163 3.17268 0.0
C1020 C 0.24063 3.33056 2.62606 0.0
C1021 C 0.26398 3.27419 2.58357 0.0
C1022 C 0.28471 3.52889 2.83192 0.0
C1023 C 0.26206 3.58329 2.87101 0.0
N1024 N 0.22146 3.52816 2.79218 0.0
N1025 N 0.31078 3.30794 2.62773 0.0
C1026 C 0.24095 3.48143 2.76367 0.0
C1027 C 0.28684 3.36978 2.68085 0.0
N1028 N 0.21765 3.24396 2.54019 0.0
N1029 N 0.30336 3.62929 2.94072 0.0
H1030 H 0.31323 3.19075 2.51583 0.0
H1031 H 0.32874 3.36994 2.68891 0.0
H1032 H 0.30235 3.74766 3.05453 0.0
H1033 H 0.3185 3.59633 2.9215 0.0
H1034 H 0.19926 3.28629 2.57529 0.0
H1035 H 0.21626 3.13405 2.44023 0.0
H1036 H 0.20704 3.45421 2.71142 0.0
H1037 H 0.22133 3.63747 2.89114 0.0
C1038 C 0.24822 2.98878 2.82229 0.0
C1039 C 0.23342 3.08976 2.90504 0.0
C1040 C 0.22184 2.87991 2.66816 0.0
C1041 C 0.23805 2.78069 2.58625 0.0
N1042 N 0.26028 2.72575 2.57397 0.0
N1043 N 0.20036 3.12852 2.90869 0.0
C1044 C 0.2491 2.83054 2.66 0.0
C1045 C 0.21805 3.03358 2.82798 0.0
N1046 N 0.26224 3.04604 2.90001 0.0
N1047 N 0.21173 2.83077 2.59577 0.0
H1048 H 0.19762 3.24238 3.02647 0.0
H1049 H 0.18677 3.09163 2.85786 0.0
H1050 H 0.21381 2.71871 2.47863 0.0
H1051 H 0.20257 2.90268 2.65261 0.0
H1052 H 0.27606 2.98296 2.849 0.0
H1053 H 0.26066 3.16009 3.01835 0.0
H1054 H 0.26682 2.75173 2.61885 0.0
H1055 H 0.26086 2.60874 2.45447 0.0
C1056 C 0.14738 1.85222 1.74156 0.0
C1057 C 0.15463 1.70766 1.61 0.0
C1058 C 0.13224 1.57589 1.44366 0.0
C1059 C 0.12953 1.71909 1.57094 0.0
N1060 N 0.12957 1.99543 1.84442 0.0
N1061 N 0.13928 1.44896 1.36154 0.0
C1062 C 0.13514 1.85856 1.72191 0.0
C1063 C 0.14193 1.57501 1.46946 0.0
N1064 N 0.15144 1.9806 1.88301 0.0
N1065 N 0.12816 1.43996 1.29689 0.0
H1066 H 0.14525 1.45113 1.38377 0.0
H1067 H 0.12835 1.35168 1.2603 0.0
H1068 H 0.12214 1.43175 1.26891 0.0
H1069 H 0.13311 1.33413 1.20113 0.0
H1070 H 0.1462 2.09091 1.98565 0.0
H1071 H 0.15786 1.97327 1.89571 0.0
H1072 H 0.13528 2.10182 1.95665 0.0
H1073 H 0.11923 2.00224 1.83293 0.0
C1074 C 0.83175 1.58926 1.47814 0.0
C1075 C 0.85639 1.51156 1.4038 0.0
C1076 C 0.83157 1.28567 1.1975 0.0
C1077 C 0.80738 1.3506 1.2513 0.0
N1078 N 0.78791 1.55442 1.42512 0.0
N1079 N 0.88019 1.28267 1.19066 0.0
C1080 C 0.80817 1.50114 1.38852 0.0
C1081 C 0.85646 1.35864 1.26296 0.0
N1082 N 0.83086 1.74526 1.6309 0.0
N1083 N 0.83087 1.15865 1.08858 0.0
H1084 H 0.89863 1.33739 1.24124 0.0
H1085 H 0.88131 1.16556 1.07954 0.0
H1086 H 0.81298 1.1091 1.0465 0.0
H1087 H 0.84795 1.1141 1.05392 0.0
H1088 H 0.81278 1.80499 1.68885 0.0
H1089 H 0.84773 1.81255 1.70114 0.0
H1090 H 0.78849 1.66243 1.52234 0.0
H1091 H 0.77317 1.48159 1.34576 0.0
C1092 C 0.84179 2.3758 1.55787 0.0
C1093 C 0.85853 2.24649 1.42669 0.0
C1094 C 0.84957 2.25646 1.38802 0.0
C1095 C 0.8289 2.3631 1.49805 0.0
N1096 N 0.81722 2.58346 1.74118 0.0
N1097 N 0.88173 2.07595 1.22878 0.0
C1098 C 0.82886 2.44237 1.60082 0.0
C1099 C 0.86375 2.19189 1.34658 0.0
N1100 N 0.83649 2.42764 1.6342 0.0
N1101 N 0.85665 2.22561 1.33176 0.0
H1102 H 0.89401 2.03506 1.20393 0.0
H1103 H 0.88404 2.01729 1.15305 0.0
H1104 H 0.84871 2.28721 1.37627 0.0
H1105 H 0.87251 2.15502 1.25688 0.0
H1106 H 0.82183 2.50899 1.71838 0.0
H1107 H 0.84532 2.38202 1.60651 0.0
H1108 H 0.81817 2.65278 1.82638 0.0
H1109 H 0.80964 2.63854 1.77839 0.0
C1110 C 0.18549 2.62252 1.80366 0.0
C1111 C 0.18097 2.52222 1.68292 0.0
C1112 C 0.13322 2.50998 1.68178 0.0
C1113 C 0.13848 2.59018 1.78483 0.0
N1114 N 0.16523 2.79238 2.0034 0.0
N1115 N 0.14944 2.40068 1.5331 0.0
C1116 C 0.16322 2.6698 1.86591 0.0
C1117 C 0.15445 2.47756 1.63209 0.0
N1118 N 0.21101 2.66401 1.85164 0.0
N1119 N 0.10793 2.46328 1.62934 0.0
H1120 H 0.16432 2.37971 1.49821 0.0
H1121 H 0.13022 2.36315 1.49084 0.0
H1122 H 0.09103 2.48967 1.66679 0.0
H1123 H 0.09103 2.48967 1.66679 0.0
H1124 H 0.21549 2.7232 1.92747 0.0
H1125 H 0.22803 2.63028 1.80792 0.0
H1126 H 0.18244 2.86029 2.07176 0.0
H1127 H 0.1485 2.84002 2.05955 0.0
C1128 C 0.08901 4.98348 4.26071 0.0
C1129 C 0.08549 5.13406 4.41883 0.0
C1130 C 0.1044 5.24317 4.48495 0.0
C1131 C 0.10995 5.09222 4.32747 0.0
N1132 N 0.10042 4.82227 4.06406 0.0
N1133 N 0.08258 5.40576 4.67779 0.0
C1134 C 0.09972 4.96335 4.21474 0.0
C1135 C 0.09052 5.26351 4.52963 0.0
N1136 N 0.08313 4.86047 4.15574 0.0
N1137 N 0.11408 5.36652 4.59231 0.0
H1138 H 0.07301 5.42463 4.71466 0.0
H1139 H 0.0834 5.50301 4.76134 0.0
H1140 H 0.12298 5.35646 4.56362 0.0
H1141 H 0.1142 5.47828 4.70958 0.0
H1142 H 0.08811 4.74788 4.04028 0.0
H1143 H 0.07398 4.87237 4.18615 0.0
H1144 H 0.09171 4.72401 3.97559 0.0
H1145 H 0.10765 4.80715 4.0297 0.0
C1146 C 0.16139 4.13186 4.04707 0.0
C1147 C 0.16474 4.28435 4.20648 0.0
C1148 C 0.12144 4.35435 4.25579 0.0
C1149 C 0.12168 4.21548 4.1047 0.0
N1150 N 0.13188 3.94679 3.84331 0.0
N1151 N 0.14703 4.54104 4.46465 0.0
C1152 C 0.13854 4.09515 3.99505 0.0
C1153 C 0.14408 4.39465 4.3112 0.0
N1154 N 0.1806 4.02479 3.9471 0.0
N1155 N 0.09929 4.44557 4.3442 0.0
H1156 H 0.16297 4.57659 4.51164 0.0
H1157 H 0.13439 4.63073 4.54753 0.0
H1158 H 0.08223 4.41218 4.30059 0.0
H1159 H 0.09666 4.54334 4.45206 0.0
H1160 H 0.18115 3.91722 3.83225 0.0
H1161 H 0.1968 4.04666 3.98138 0.0
H1162 H 0.14256 3.8524 3.75736 0.0
H1163 H 0.1135 3.91794 3.8062 0.0
C1164 C 0.89778 4.34129 4.23618 0.0
C1165 C 0.88787 4.40923 4.27912 0.0
C1166 C 0.8421 4.39848 4.286 0.0
C1167 C 0.85213 4.34425 4.25753 0.0
N1168 N 0.88937 4.27657 4.21931 0.0
N1169 N 0.85181 4.53721 4.38164 0.0
C1170 C 0.87998 4.31877 4.23613 0.0
C1171 C 0.86036 4.44776 4.31453 0.0
N1172 N 0.92392 4.29516 4.19205 0.0
N1173 N 0.81508 4.39811 4.2807 0.0
H1174 H 0.86468 4.58016 4.40912 0.0
H1175 H 0.8325 4.58202 4.42455 0.0
H1176 H 0.80092 4.35954 4.25667 0.0
H1177 H 0.80688 4.42132 4.28472 0.0
H1178 H 0.93176 4.23097 4.14467 0.0
H1179 H 0.93746 4.31287 4.19377 0.0
H1180 H 0.90968 4.27136 4.219 0.0
H1181 H 0.87668 4.25565 4.21502 0.0
C1182 C 0.89292 5.34641 4.58255 0.0
C1183 C 0.90443 5.19883 4.43958 0.0
C1184 C 0.86862 5.08829 4.30359 0.0
C1185 C 0.85486 5.23025 4.44457 0.0
N1186 N 0.85765 5.50503 4.71963 0.0
N1187 N 0.9117 4.9621 4.18313 0.0
C1188 C 0.86837 5.36356 4.58519 0.0
C1189 C 0.89514 5.0802 4.30587 0.0
N1190 N 0.90509 5.46716 4.71395 0.0
N1191 N 0.856 4.95942 4.16751 0.0
H1192 H 0.93193 4.96235 4.18886 0.0
H1193 H 0.90641 4.87661 4.08539 0.0
H1194 H 0.8366 4.95987 4.16015 0.0
H1195 H 0.86424 4.8502 4.06182 0.0
H1196 H 0.89657 5.5752 4.82229 0.0
H1197 H 0.92402 5.45624 4.71202 0.0
H1198 H 0.86715 5.60777 4.82565 0.0
H1199 H 0.84003 5.51985 4.72318 0.0
C1200 C 0.22372 0.93706 0.85145 0.0
C1201 C 0.241 1.06747 0.97865 0.0
C1202 C 0.27815 0.89858 0.80086 0.0
C1203 C 0.25955 0.78296 0.67984 0.0
N1204 N 0.2154 0.67505 0.57896 0.0
N1205 N 0.28522 1.17152 1.07074 0.0
C1206 C 0.23255 0.79619 0.7015 0.0
C1207 C 0.26856 1.04817 0.95305 0.0
N1208 N 0.19927 0.94759 0.87409 0.0
N1209 N 0.30479 0.86578 0.77085 0.0
H1210 H 0.27897 1.28495 1.18375 0.0
H1211 H 0.30471 1.16054 1.05256 0.0
H1212 H 0.31182 0.7534 0.65929 0.0
H1213 H 0.31891 0.94579 0.85627 0.0
H1214 H 0.18654 0.85415 0.78532 0.0
H1215 H 0.19281 1.04772 0.98199 0.0
H1216 H 0.19469 0.68188 0.58823 0.0
H1217 H 0.22227 0.56738 0.46706 0.0
C1218 C 0.82654 1.0972 0.86785 0.0
C1219 C 0.83452 1.03385 0.78048 0.0
C1220 C 0.87868 1.15795 0.9071 0.0
C1221 C 0.87076 1.21468 0.98834 0.0
N1222 N 0.84087 1.19677 1.00869 0.0
N1223 N 0.86972 0.97813 0.694 0.0
C1224 C 0.84591 1.17039 0.95614 0.0
C1225 C 0.86114 1.05614 0.79289 0.0
N1226 N 0.80017 1.09928 0.87742 0.0
N1227 N 0.90235 1.20599 0.94324 0.0
H1228 H 0.85738 0.90185 0.60847 0.0
H1229 H 0.88957 0.97851 0.68783 0.0
H1230 H 0.91587 1.277 1.02323 0.0
H1231 H 0.90786 1.18293 0.90081 0.0
H1232 H 0.79326 1.16507 0.95814 0.0
H1233 H 0.7847 1.04991 0.8178 0.0
H1234 H 0.824 1.15336 0.97584 0.0
H1235 H 0.85492 1.24718 1.07114 0.0
C1236 C 0.7171 1.84457 0.98424 0.0
C1237 C 0.74331 1.902 1.03509 0.0
C1238 C 0.76054 1.63979 0.77585 0.0
C1239 C 0.73585 1.58739 0.73497 0.0
N1240 N 0.68808 1.61978 0.76421 0.0
N1241 N 0.78813 1.84598 0.96329 0.0
C1242 C 0.71315 1.68337 0.82743 0.0
C1243 C 0.76427 1.79785 0.92642 0.0
N1244 N 0.69652 1.94214 1.08597 0.0
N1245 N 0.78052 1.53838 0.67052 0.0
H1246 H 0.79235 1.95954 1.06973 0.0
H1247 H 0.79235 1.95954 1.06973 0.0
H1248 H 0.77746 1.41993 0.55515 0.0
H1249 H 0.79932 1.57311 0.69754 0.0
H1250 H 0.67796 1.90452 1.05614 0.0
H1251 H 0.69846 2.06109 1.2028 0.0
H1252 H 0.67072 1.68324 0.82334 0.0
H1253 H 0.68525 1.50109 0.64661 0.0
C1254 C 0.1263 1.77962 1.05526 0.0
C1255 C 0.11988 1.86531 1.11612 0.0
C1256 C 0.12698 1.63736 0.86412 0.0
C1257 C 0.13705 1.56083 0.81179 0.0
N1258 N 0.1301 1.52489 0.82381 0.0
N1259 N 0.1041 1.86054 1.06566 0.0
C1260 C 0.13117 1.62024 0.89591 0.0
C1261 C 0.11685 1.78874 1.0158 0.0
N1262 N 0.12974 1.85031 1.14903 0.0
N1263 N 0.12804 1.56601 0.76958 0.0
H1264 H 0.09567 1.96928 1.1746 0.0
H1265 H 0.09972 1.80809 0.99581 0.0
H1266 H 0.13328 1.45053 0.6543 0.0
H1267 H 0.12421 1.62026 0.80473 0.0
H1268 H 0.13706 1.79337 1.10988 0.0
H1269 H 0.12747 1.96773 1.26744 0.0
H1270 H 0.1243 1.56159 0.87894 0.0
H1271 H 0.13139 1.40605 0.70485 0.0
C1272 C 0.21671 5.40576 4.63403 0.0
C1273 C 0.20684 5.45124 4.65327 0.0
C1274 C 0.23111 5.69696 4.89917 0.0
C1275 C 0.24195 5.64665 4.87446 0.0
N1276 N 0.24941 5.43525 4.69739 0.0
N1277 N 0.20976 5.6258 4.78726 0.0
C1278 C 0.23631 5.49626 4.73594 0.0
C1279 C 0.21548 5.59295 4.78117 0.0
N1280 N 0.20708 5.27746 4.52045 0.0
N1281 N 0.23471 5.84564 5.03741 0.0
H1282 H 0.19888 5.55222 4.70246 0.0
H1283 H 0.21801 5.71915 4.86887 0.0
H1284 H 0.24637 5.92418 5.12541 0.0
H1285 H 0.22459 5.89402 5.06881 0.0
H1286 H 0.21414 5.24198 4.50428 0.0
H1287 H 0.19083 5.21355 4.45052 0.0
H1288 H 0.26535 5.48935 4.76043 0.0
H1289 H 0.26535 5.48935 4.76043 0.0
C1290 C 0.10898 4.93989 4.74412 0.0
C1291 C 0.12204 4.82503 4.61575 0.0
C1292 C 0.13555 5.02152 4.77663 0.0
C1293 C 0.1298 5.13649 4.90892 0.0
N1294 N 0.10598 5.21062 5.02163 0.0
N1295 N 0.14941 4.75902 4.51239 0.0
C1296 C 0.1145 5.09709 4.89318 0.0
C1297 C 0.13542 4.86583 4.63172 0.0
N1298 N 0.09092 4.89856 4.72287 0.0
N1299 N 0.14059 5.06016 4.78858 0.0
H1300 H 0.15066 4.64418 4.40511 0.0
H1301 H 0.16187 4.7881 4.52493 0.0
H1302 H 0.13778 5.17135 4.8908 0.0
H1303 H 0.14355 4.97886 4.69358 0.0
H1304 H 0.07921 4.97674 4.81027 0.0
H1305 H 0.08573 4.78454 4.61457 0.0
H1306 H 0.09785 5.19063 5.02091 0.0
H1307 H 0.10783 5.32644 5.13044 0.0
C1308 C 0.79645 4.97844 4.90504 0.0
C1309 C 0.77269 4.88826 4.81748 0.0
C1310 C 0.74601 5.11934 5.03772 0.0
C1311 C 0.76957 5.19571 5.10399 0.0
N1312 N 0.81764 5.21891 5.13193 0.0
N1313 N 0.72431 4.87329 4.80338 0.0
C1314 C 0.79479 5.13323 5.04935 0.0
C1315 C 0.7472 4.95936 4.88588 0.0
N1316 N 0.82084 4.91557 4.84892 0.0
N1317 N 0.72299 5.20042 5.12118 0.0
H1318 H 0.72456 4.75629 4.69268 0.0
H1319 H 0.70525 4.91633 4.84178 0.0
H1320 H 0.7227 5.31973 5.23682 0.0
H1321 H 0.70547 5.15283 5.08229 0.0
H1322 H 0.83872 4.97833 4.90934 0.0
H1323 H 0.82294 4.80287 4.74481 0.0
H1324 H 0.81764 5.33543 5.24161 0.0
H1325 H 0.81764 5.33543 5.24161 0.0
C1326 C 0.804 5.45012 4.80826 0.0
C1327 C 0.80746 5.59854 4.9653 0.0
C1328 C 0.85627 5.56856 4.93303 0.0
C1329 C 0.85246 5.43292 4.78423 0.0
N1330 N 0.82185 5.26106 4.59205 0.0
N1331 N 0.83679 5.80597 5.18262 0.0
C1332 C 0.82611 5.37688 4.72398 0.0
C1333 C 0.8336 5.65941 5.02925 0.0
N1334 N 0.77959 5.37823 4.73905 0.0
N1335 N 0.88143 5.60864 4.98097 0.0
H1336 H 0.82066 5.8749 5.25593 0.0
H1337 H 0.85525 5.86269 5.23885 0.0
H1338 H 0.89835 5.54299 4.91214 0.0
H1339 H 0.88515 5.6982 5.08241 0.0
H1340 H 0.77654 5.26437 4.62139 0.0
H1341 H 0.76321 5.42683 4.79665 0.0
H1342 H 0.80277 5.22775 4.55285 0.0
H1343 H 0.83721 5.20946 4.53049 0.0
C1344 C 0.17667 1.22478 0.9958 0.0
C1345 C 0.15288 1.22622 1.0128 0.0
C1346 C 0.16855 1.00041 0.81529 0.0
C1347 C 0.19427 1.02015 0.82291 0.0
N1348 N 0.2237 1.15994 0.93052 0.0
N1349 N 0.12576 1.115 0.93878 0.0
C1350 C 0.1985 1.13287 0.9137 0.0
C1351 C 0.14839 1.11206 0.9204 0.0
N1352 N 0.17832 1.3125 1.05939 0.0
N1353 N 0.16336 0.87377 0.70612 0.0
H1354 H 0.1099 1.18971 1.00887 0.0
H1355 H 0.12327 1.04844 0.8905 0.0
H1356 H 0.17766 0.78925 0.62662 0.0
H1357 H 0.14428 0.84497 0.6848 0.0
H1358 H 0.1942 1.3061 1.03954 0.0
H1359 H 0.16241 1.38005 1.11922 0.0
H1360 H 0.22846 1.25244 1.00911 0.0
H1361 H 0.24038 1.09809 0.87587 0.0
C1362 C 0.18025 5.68701 5.01245 0.0
C1363 C 0.19362 5.78418 5.12653 0.0
C1364 C 0.1644 5.69108 5.07107 0.0
C1365 C 0.15389 5.57794 4.94209 0.0
N1366 N 0.15642 5.44902 4.7721 0.0
N1367 N 0.2 5.87606 5.26199 0.0
C1368 C 0.16277 5.57147 4.90857 0.0
C1369 C 0.18606 5.78624 5.15594 0.0
N1370 N 0.18437 5.70431 5.00248 0.0
N1371 N 0.15328 5.70946 5.11401 0.0
H1372 H 0.21531 5.95059 5.32924 0.0
H1373 H 0.19749 5.87025 5.27701 0.0
H1374 H 0.13715 5.64296 5.05537 0.0
H1375 H 0.15837 5.79874 5.21477 0.0
H1376 H 0.17295 5.64733 4.93197 0.0
H1377 H 0.1973 5.78673 5.07548 0.0
H1378 H 0.16512 5.43091 4.73554 0.0
H1379 H 0.14486 5.35603 4.68686 0.0
C1380 C 0.1929 5.00747 4.88333 0.0
C1381 C 0.20113 5.16196 5.03781 0.0
C1382 C 0.22187 5.10561 5.02591 0.0
C1383 C 0.21642 4.947 4.86582 0.0
N1384 N 0.19745 4.74812 4.64085 0.0
N1385 N 0.22484 5.3607 5.25722 0.0
C1386 C 0.20203 4.89839 4.79466 0.0
C1387 C 0.21582 5.2124 5.11017 0.0
N1388 N 0.17675 4.96236 4.81811 0.0
N1389 N 0.23188 5.15454 5.09814 0.0
H1390 H 0.2201 5.44239 5.32302 0.0
H1391 H 0.23831 5.40058 5.31085 0.0
H1392 H 0.23596 5.07995 5.04061 0.0
H1393 H 0.23388 5.26964 5.21658 0.0
H1394 H 0.17039 4.84895 4.70397 0.0
H1395 H 0.16878 5.03886 4.87938 0.0
H1396 H 0.20429 4.65537 4.5608 0.0
H1397 H 0.20429 4.65537 4.5608 0.0
C1398 C 0.84012 5.02847 4.80058 0.0
C1399 C 0.84559 5.09062 4.88752 0.0
C1400 C 0.89203 5.00093 4.79637 0.0
C1401 C 0.8855 4.92589 4.69814 0.0
N1402 N 0.85937 4.94651 4.67782 0.0
N1403 N 0.87855 5.18064 5.00788 0.0
C1404 C 0.86153 4.96551 4.72361 0.0
C1405 C 0.87225 5.09165 4.89863 0.0
N1406 N 0.81442 5.01934 4.7821 0.0
N1407 N 0.917 4.98204 4.7886 0.0
H1408 H 0.86452 5.2512 5.08664 0.0
H1409 H 0.89795 5.19523 5.02958 0.0
H1410 H 0.93241 4.92881 4.72559 0.0
H1411 H 0.92233 5.01655 4.84182 0.0
H1412 H 0.80938 4.95952 4.70583 0.0
H1413 H 0.7978 5.05905 4.83171 0.0
H1414 H 0.84268 4.98217 4.70197 0.0
H1415 H 0.87579 4.91753 4.63741 0.0
C1416 C 0.73445 5.72832 4.94395 0.0
C1417 C 0.73718 5.56664 4.78475 0.0
C1418 C 0.73858 5.56181 4.82892 0.0
C1419 C 0.73371 5.72197 4.98699 0.0
N1420 N 0.72325 5.9559 5.19358 0.0
N1421 N 0.73447 5.32617 4.57217 0.0
C1422 C 0.7305 5.80507 5.04441 0.0
C1423 C 0.73671 5.48243 4.72623 0.0
N1424 N 0.73625 5.80812 4.99891 0.0
N1425 N 0.74711 5.48687 4.77776 0.0
H1426 H 0.73297 5.2631 4.49244 0.0
H1427 H 0.73112 5.26144 4.52578 0.0
H1428 H 0.75092 5.54224 4.85037 0.0
H1429 H 0.75355 5.3733 4.66592 0.0
H1430 H 0.73737 5.92729 5.11511 0.0
H1431 H 0.73811 5.7539 4.92699 0.0
H1432 H 0.71814 6.01916 5.23884 0.0
H1433 H 0.72035 6.01489 5.26957 0.0
C1434 C 0.84313 1.47841 0.7424 0.0
C1435 C 0.83747 1.48341 0.71931 0.0
C1436 C 0.88198 1.59394 0.8194 0.0
C1437 C 0.88495 1.61558 0.86871 0.0
N1438 N 0.87778 1.49486 0.79272 0.0
N1439 N 0.8548 1.4909 0.68155 0.0
C1440 C 0.86866 1.52919 0.80139 0.0
C1441 C 0.85817 1.52249 0.7393 0.0
N1442 N 0.82384 1.43684 0.71965 0.0
N1443 N 0.90173 1.64521 0.85302 0.0
H1444 H 0.83789 1.43307 0.6174 0.0
H1445 H 0.86927 1.51122 0.6869 0.0
H1446 H 0.92019 1.68378 0.89837 0.0
H1447 H 0.90015 1.64856 0.8355 0.0
H1448 H 0.82632 1.44959 0.75284 0.0
H1449 H 0.80472 1.39928 0.67739 0.0
H1450 H 0.86744 1.42324 0.73551 0.0
H1451 H 0.89737 1.52154 0.82487 0.0
C1452 C 0.22154 1.76526 0.90354 0.0
C1453 C 0.23651 1.73623 0.8987 0.0
C1454 C 0.27429 1.8791 1.0202 0.0
C1455 C 0.25673 1.944 1.06489 0.0
N1456 N 0.2149 1.93338 1.0306 0.0
N1457 N 0.2773 1.77583 0.96342 0.0
C1458 C 0.23084 1.8796 0.99787 0.0
C1459 C 0.26319 1.79304 0.95701 0.0
N1460 N 0.19866 1.68303 0.81753 0.0
N1461 N 0.30137 1.89958 1.03816 0.0
H1462 H 0.26979 1.71871 0.92402 0.0
H1463 H 0.29557 1.83125 1.02145 0.0
H1464 H 0.31016 1.95037 1.07133 0.0
H1465 H 0.31507 1.84696 0.99923 0.0
H1466 H 0.18795 1.69101 0.80749 0.0
H1467 H 0.19184 1.59565 0.74423 0.0
H1468 H 0.19461 1.90604 1.00178 0.0
H1469 H 0.22217 2.01017 1.09172 0.0
C1470 C 0.70055 0.78434 0.62834 0.0
C1471 C 0.71832 0.89477 0.74836 0.0
C1472 C 0.75252 0.82478 0.64662 0.0
C1473 C 0.73305 0.74043 0.54918 0.0
N1474 N 0.68836 0.6372 0.44394 0.0
N1475 N 0.7593 1.04496 0.89132 0.0
C1476 C 0.70702 0.71784 0.53764 0.0
C1477 C 0.74405 0.9202 0.7617 0.0
N1478 N 0.67779 0.74225 0.60042 0.0
N1479 N 0.77895 0.81796 0.63275 0.0
H1480 H 0.75251 1.13272 0.98998 0.0
H1481 H 0.7774 1.07235 0.90895 0.0
H1482 H 0.78574 0.75034 0.55038 0.0
H1483 H 0.79426 0.86685 0.69235 0.0
H1484 H 0.66517 0.65347 0.50686 0.0
H1485 H 0.67289 0.78682 0.66306 0.0
H1486 H 0.66813 0.63122 0.44327 0.0
H1487 H 0.69306 0.58207 0.37174 0.0
C1488 C 0.60492 4.71862 4.11635 0.0
C1489 C 0.61626 4.60373 4.01968 0.0
C1490 C 0.62095 4.43972 3.81867 0.0
C1491 C 0.61785 4.57209 3.93251 0.0
N1492 N 0.60702 4.84251 4.19501 0.0
N1493 N 0.62684 4.33733 3.76307 0.0
C1494 C 0.60925 4.71243 4.0822 0.0
C1495 C 0.62126 4.45724 3.86433 0.0
N1496 N 0.58979 4.83146 4.2386 0.0
N1497 N 0.6232 4.29851 3.66809 0.0
H1498 H 0.62441 4.34626 3.79263 0.0
H1499 H 0.63389 4.23142 3.65247 0.0
H1500 H 0.62217 4.28252 3.63162 0.0
H1501 H 0.62398 4.19603 3.57795 0.0
H1502 H 0.57963 4.91327 4.30775 0.0
H1503 H 0.58461 4.82933 4.2568 0.0
H1504 H 0.60334 4.94994 4.30904 0.0
H1505 H 0.61127 4.84671 4.17867 0.0
C1506 C 0.37973 4.63823 4.05007 0.0
C1507 C 0.3587 4.73835 4.1563 0.0
C1508 C 0.38963 4.95582 4.36611 0.0
C1509 C 0.40689 4.86351 4.25974 0.0
N1510 N 0.42316 4.61128 4.00171 0.0
N1511 N 0.34377 4.9962 4.41972 0.0
C1512 C 0.40362 4.7019 4.10154 0.0
C1513 C 0.36381 4.89812 4.31607 0.0
N1514 N 0.37685 4.48357 3.90162 0.0
N1515 N 0.39813 5.09582 4.51268 0.0
H1516 H 0.32434 4.95972 4.38845 0.0
H1517 H 0.34597 5.11512 4.53597 0.0
H1518 H 0.4179 5.13305 4.5467 0.0
H1519 H 0.38681 5.16395 4.59258 0.0
H1520 H 0.39198 4.40447 3.82019 0.0
H1521 H 0.35986 4.435 3.86278 0.0
H1522 H 0.42105 4.49397 3.88303 0.0
H1523 H 0.44171 4.65665 4.04044 0.0
C1524 C 0.38899 4.28979 4.0501 0.0
C1525 C 0.38243 4.34553 4.13086 0.0
C1526 C 0.34985 4.52024 4.28271 0.0
C1527 C 0.35216 4.44056 4.17973 0.0
N1528 N 0.37417 4.24939 3.96458 0.0
N1529 N 0.35478 4.50734 4.31814 0.0
C1530 C 0.37221 4.32743 4.06502 0.0
C1531 C 0.36278 4.46169 4.24824 0.0
N1532 N 0.41136 4.20193 3.96025 0.0
N1533 N 0.33482 4.65073 4.41224 0.0
H1534 H 0.36288 4.4645 4.29372 0.0
H1535 H 0.33834 4.57828 4.39121 0.0
H1536 H 0.32529 4.69603 4.4399 0.0
H1537 H 0.33417 4.72175 4.49891 0.0
H1538 H 0.41857 4.16907 3.90918 0.0
H1539 H 0.42424 4.17466 3.94924 0.0
H1540 H 0.38587 4.15175 3.86611 0.0
H1541 H 0.36302 4.27741 3.97515 0.0
C1542 C 0.65426 4.33245 4.08288 0.0
C1543 C 0.63809 4.46637 4.21441 0.0
C1544 C 0.64908 4.50914 4.20901 0.0
C1545 C 0.66402 4.37152 4.07378 0.0
N1546 N 0.67488 4.13154 3.85915 0.0
N1547 N 0.61592 4.66634 4.38619 0.0
C1548 C 0.66461 4.27644 4.00328 0.0
C1549 C 0.63424 4.55028 4.27279 0.0
N1550 N 0.66138 4.26417 4.0394 0.0
N1551 N 0.64976 4.60232 4.2786 0.0
H1552 H 0.60452 4.69789 4.43388 0.0
H1553 H 0.61035 4.72245 4.42381 0.0
H1554 H 0.65973 4.57233 4.23146 0.0
H1555 H 0.64183 4.71256 4.38671 0.0
H1556 H 0.67564 4.17751 3.95546 0.0
H1557 H 0.65535 4.30366 4.09698 0.0
H1558 H 0.67328 4.05148 3.79586 0.0
H1559 H 0.68253 4.08591 3.79652 0.0
C1560 C 0.65675 2.00046 1.63276 0.0
C1561 C 0.6663 1.89012 1.50597 0.0
C1562 C 0.64251 1.68832 1.33208 0.0
C1563 C 0.63937 1.79243 1.45626 0.0
N1564 N 0.64448 2.05067 1.72807 0.0
N1565 N 0.65627 1.65241 1.25019 0.0
C1566 C 0.6459 1.95076 1.60867 0.0
C1567 C 0.65529 1.74044 1.35939 0.0
N1568 N 0.65896 2.15229 1.77577 0.0
N1569 N 0.63401 1.53971 1.18855 0.0
H1570 H 0.66333 1.69689 1.27578 0.0
H1571 H 0.64774 1.54363 1.14152 0.0
H1572 H 0.62298 1.5014 1.16739 0.0
H1573 H 0.6383 1.45349 1.08999 0.0
H1574 H 0.65063 2.23954 1.87314 0.0
H1575 H 0.6667 2.18771 1.7921 0.0
H1576 H 0.6519 2.16256 1.83728 0.0
H1577 H 0.6383 2.01948 1.7166 0.0
C1578 C 0.66333 2.01298 1.40846 0.0
C1579 C 0.68423 1.90468 1.29832 0.0
C1580 C 0.65343 1.73594 1.10788 0.0
C1581 C 0.63549 1.86068 1.22837 0.0
N1582 N 0.61614 2.07215 1.46007 0.0
N1583 N 0.69869 1.65355 1.03777 0.0
C1584 C 0.63805 1.98452 1.36829 0.0
C1585 C 0.6789 1.7611 1.14482 0.0
N1586 N 0.66827 2.14748 1.55401 0.0
N1587 N 0.64564 1.59429 0.95978 0.0
H1588 H 0.71711 1.66807 1.06176 0.0
H1589 H 0.69727 1.55348 0.92802 0.0
H1590 H 0.62604 1.57282 0.93219 0.0
H1591 H 0.65721 1.496 0.86523 0.0
H1592 H 0.65499 2.23926 1.64449 0.0
H1593 H 0.68627 2.17012 1.58622 0.0
H1594 H 0.61598 2.15875 1.55963 0.0
H1595 H 0.59724 2.04522 1.42573 0.0
C1596 C 0.38983 1.83187 1.22854 0.0
C1597 C 0.37175 1.71315 1.10482 0.0
C1598 C 0.39292 1.68907 1.0372 0.0
C1599 C 0.40574 1.83257 1.18282 0.0
N1600 N 0.41886 2.03578 1.41322 0.0
N1601 N 0.36745 1.47734 0.84833 0.0
C1602 C 0.40575 1.90007 1.2752 0.0
C1603 C 0.37694 1.62424 0.99423 0.0
N1604 N 0.39156 1.87758 1.29965 0.0
N1605 N 0.39509 1.61948 0.94428 0.0
H1606 H 0.35814 1.42478 0.81303 0.0
H1607 H 0.37163 1.40263 0.75912 0.0
H1608 H 0.40784 1.66115 0.97027 0.0
H1609 H 0.38378 1.52411 0.84477 0.0
H1610 H 0.40569 1.95633 1.38416 0.0
H1611 H 0.38054 1.82249 1.26054 0.0
H1612 H 0.41665 2.09987 1.49374 0.0
H1613 H 0.43102 2.08927 1.45159 0.0
C1614 C 0.31373 1.62705 1.33319 0.0
C1615 C 0.33925 1.63201 1.32537 0.0
C1616 C 0.32033 1.77849 1.43207 0.0
C1617 C 0.29439 1.7614 1.42678 0.0
N1618 N 0.26553 1.64848 1.34936 0.0
N1619 N 0.36653 1.69186 1.34568 0.0
C1620 C 0.29083 1.67971 1.37082 0.0
C1621 C 0.34247 1.70175 1.36848 0.0
N1622 N 0.31151 1.57854 1.31152 0.0
N1623 N 0.32408 1.87433 1.50489 0.0
H1624 H 0.38323 1.63788 1.3009 0.0
H1625 H 0.36932 1.72576 1.35916 0.0
H1626 H 0.3085 1.93491 1.55546 0.0
H1627 H 0.34293 1.90456 1.52723 0.0
H1628 H 0.29404 1.58944 1.33354 0.0
H1629 H 0.32776 1.53959 1.28447 0.0
H1630 H 0.26161 1.57468 1.29276 0.0
H1631 H 0.2482 1.68547 1.37601 0.0
C1632 C 0.75886 4.35506 3.77073 0.0
C1633 C 0.73291 4.41991 3.83307 0.0
C1634 C 0.73368 4.40161 3.76606 0.0
C1635 C 0.75851 4.32286 3.69016 0.0
N1636 N 0.79249 4.19973 3.59596 0.0
N1637 N 0.69328 4.47895 3.86526 0.0
C1638 C 0.77058 4.29297 3.68605 0.0
C1639 C 0.71961 4.43549 3.82337 0.0
N1640 N 0.77258 4.35645 3.79584 0.0
N1641 N 0.72408 4.45076 3.79017 0.0
H1642 H 0.6822 4.50602 3.90898 0.0
H1643 H 0.68169 4.47479 3.84379 0.0
H1644 H 0.73407 4.43348 3.75506 0.0
H1645 H 0.70748 4.52191 3.85825 0.0
H1646 H 0.79268 4.32573 3.76735 0.0
H1647 H 0.76448 4.4012 3.85746 0.0
H1648 H 0.80046 4.16127 3.57623 0.0
H1649 H 0.80126 4.14868 3.529 0.0
C1650 C 0.37784 4.43463 3.72773 0.0
C1651 C 0.37396 4.59309 3.87873 0.0
C1652 C 0.33935 4.53042 3.78412 0.0
C1653 C 0.33853 4.37798 3.64405 0.0
N1654 N 0.35905 4.1786 3.47485 0.0
N1655 N 0.3508 4.79507 4.05376 0.0
C1656 C 0.35875 4.32681 3.61175 0.0
C1657 C 0.35509 4.6422 3.90761 0.0
N1658 N 0.40004 4.38767 3.69537 0.0
N1659 N 0.32495 4.56722 3.79794 0.0
H1660 H 0.36174 4.88124 4.14812 0.0
H1661 H 0.33505 4.83667 4.08305 0.0
H1662 H 0.31414 4.48442 3.70585 0.0
H1663 H 0.32622 4.67338 3.89281 0.0
H1664 H 0.40549 4.27311 3.58476 0.0
H1665 H 0.41455 4.46446 3.77802 0.0
H1666 H 0.37039 4.1425 3.45572 0.0
H1667 H 0.34767 4.09102 3.38022 0.0
C1668 C 0.24421 3.94423 3.64565 0.0
C1669 C 0.26902 4.0248 3.72715 0.0
C1670 C 0.29196 3.78303 3.49874 0.0
C1671 C 0.26677 3.71315 3.43442 0.0
N1672 N 0.22128 3.69666 3.4026 0.0
N1673 N 0.31702 4.02003 3.73108 0.0
C1674 C 0.24344 3.78428 3.49414 0.0
C1675 C 0.29323 3.9435 3.65235 0.0
N1676 N 0.22144 4.02167 3.71493 0.0
N1677 N 0.31448 3.69468 3.41161 0.0
H1678 H 0.31907 4.13833 3.8457 0.0
H1679 H 0.33441 3.96737 3.68623 0.0
H1680 H 0.31334 3.57544 3.2962 0.0
H1681 H 0.33342 3.73644 3.44747 0.0
H1682 H 0.20222 3.97464 3.66977 0.0
H1683 H 0.22173 4.13615 3.82141 0.0
H1684 H 0.20381 3.73834 3.43485 0.0
H1685 H 0.22173 3.57724 3.28662 0.0
C1686 C 0.64266 3.8159 3.70263 0.0
C1687 C 0.63248 3.69203 3.56544 0.0
C1688 C 0.6007 3.86756 3.71711 0.0
C1689 C 0.61707 3.99288 3.84875 0.0
N1690 N 0.65497 4.08312 3.96411 0.0
N1691 N 0.59835 3.59332 3.439 0.0
C1692 C 0.63808 3.96738 3.84249 0.0
C1693 C 0.60995 3.71572 3.57203 0.0
N1694 N 0.65664 3.78936 3.69959 0.0
N1695 N 0.57643 3.89425 3.73154 0.0
H1696 H 0.60408 3.48079 3.33256 0.0
H1697 H 0.58393 3.60377 3.43426 0.0
H1698 H 0.56876 4.00468 3.8379 0.0
H1699 H 0.56283 3.80744 3.64129 0.0
H1700 H 0.66332 3.87723 3.7986 0.0
H1701 H 0.65792 3.6803 3.60081 0.0
H1702 H 0.67231 4.06377 3.95627 0.0
H1703 H 0.65314 4.19606 4.06886 0.0
C1704 C 0.78072 2.33121 2.01786 0.0
C1705 C 0.75499 2.31827 1.99301 0.0
C1706 C 0.73867 2.53058 2.22965 0.0
C1707 C 0.76254 2.52079 2.23534 0.0
N1708 N 0.81027 2.48707 2.19876 0.0
N1709 N 0.71081 2.42207 2.08752 0.0
C1710 C 0.78498 2.44523 2.1499 0.0
C1711 C 0.73445 2.42507 2.10444 0.0
N1712 N 0.80044 2.2281 1.91061 0.0
N1713 N 0.72089 2.64518 2.34779 0.0
H1714 H 0.70803 2.35507 2.00447 0.0
H1715 H 0.69381 2.48353 2.15338 0.0
H1716 H 0.72528 2.73103 2.4462 0.0
H1717 H 0.70339 2.66494 2.35641 0.0
H1718 H 0.81836 2.22186 1.9152 0.0
H1719 H 0.79823 2.1412 1.81095 0.0
H1720 H 0.82758 2.44351 2.14708 0.0
H1721 H 0.81369 2.58118 2.30385 0.0
C1722 C 0.6076 2.65446 1.96663 0.0
C1723 C 0.61276 2.55737 1.84878 0.0
C1724 C 0.61458 2.78414 2.04302 0.0
C1725 C 0.61868 2.87624 2.15657 0.0
N1726 N 0.6106 2.91155 2.23838 0.0
N1727 N 0.62122 2.53351 1.77741 0.0
C1728 C 0.61206 2.81526 2.12213 0.0
C1729 C 0.6156 2.62259 1.88687 0.0
N1730 N 0.59785 2.59309 1.9296 0.0
N1731 N 0.60956 2.85107 2.08463 0.0
H1732 H 0.62374 2.4152 1.66194 0.0
H1733 H 0.62615 2.57979 1.80427 0.0
H1734 H 0.60666 2.9692 2.19908 0.0
H1735 H 0.60471 2.78837 2.00579 0.0
H1736 H 0.59211 2.65813 2.01008 0.0
H1737 H 0.59309 2.47691 1.81729 0.0
H1738 H 0.60932 2.87464 2.22191 0.0
H1739 H 0.61098 3.03062 2.35315 0.0
C1740 C 0.26322 2.56112 1.97387 0.0
C1741 C 0.28259 2.66324 2.08517 0.0
C1742 C 0.31738 2.46629 1.88661 0.0
C1743 C 0.29841 2.371 1.77944 0.0
N1744 N 0.25471 2.3375 1.72645 0.0
N1745 N 0.32785 2.71719 2.15243 0.0
C1746 C 0.27173 2.4214 1.82482 0.0
C1747 C 0.30967 2.61693 2.04284 0.0
N1748 N 0.2365 2.59275 2.00736 0.0
N1749 N 0.34225 2.41008 1.83739 0.0
H1750 H 0.32273 2.82738 2.26708 0.0
H1751 H 0.34825 2.69557 2.13318 0.0
H1752 H 0.34851 2.30057 1.72423 0.0
H1753 H 0.35639 2.46713 1.90523 0.0
H1754 H 0.22152 2.51194 1.92392 0.0
H1755 H 0.22928 2.69348 2.11503 0.0
H1756 H 0.2355 2.37337 1.75644 0.0
H1757 H 0.26085 2.23978 1.62002 0.0
C1758 C 0.36584 2.14151 1.96274 0.0
C1759 C 0.35929 2.25472 2.05484 0.0
C1760 C 0.38226 2.11074 1.87832 0.0
C1761 C 0.38206 1.98169 1.76873 0.0
N1762 N 0.37984 1.8779 1.7113 0.0
N1763 N 0.37522 2.38548 2.14419 0.0
C1764 C 0.37644 1.99937 1.81382 0.0
C1765 C 0.3724 2.25231 2.02735 0.0
N1766 N 0.36211 2.1719 2.01922 0.0
N1767 N 0.39005 2.09486 1.83655 0.0
H1768 H 0.369 2.49026 2.25523 0.0
H1769 H 0.38602 2.39456 2.13529 0.0
H1770 H 0.3982 1.99344 1.72934 0.0
H1771 H 0.38759 2.17991 1.90575 0.0
H1772 H 0.36718 2.09688 1.96084 0.0
H1773 H 0.35638 2.28065 2.13274 0.0
H1774 H 0.37376 1.87709 1.73048 0.0
H1775 H 0.38847 1.77538 1.60407 0.0
C1776 C 0.67405 4.08429 3.34368 0.0
C1777 C 0.69664 4.18089 3.43384 0.0
C1778 C 0.66876 4.3303 3.55014 0.0
C1779 C 0.64576 4.2732 3.50731 0.0
N1780 N 0.62541 4.06828 3.33071 0.0
N1781 N 0.71577 4.39179 3.61529 0.0
C1782 C 0.64807 4.1384 3.39024 0.0
C1783 C 0.69441 4.30035 3.53191 0.0
N1784 N 0.67759 3.94211 3.21474 0.0
N1785 N 0.66603 4.41226 3.60762 0.0
H1786 H 0.73513 4.37595 3.6068 0.0
H1787 H 0.71388 4.48968 3.69974 0.0
H1788 H 0.64741 4.42479 3.61061 0.0
H1789 H 0.68233 4.44896 3.63221 0.0
H1790 H 0.66207 3.86276 3.13914 0.0
H1791 H 0.69666 3.89819 3.17543 0.0
H1792 H 0.62558 3.98002 3.25799 0.0
H1793 H 0.60632 4.10352 3.35932 0.0
C1794 C 0.64494 2.34347 2.10725 0.0
C1795 C 0.65897 2.3246 2.11329 0.0
C1796 C 0.62111 2.17725 1.98646 0.0
C1797 C 0.61139 2.1611 1.94404 0.0
N1798 N 0.60369 2.29694 2.03654 0.0
N1799 N 0.65856 2.25007 2.0867 0.0
C1800 C 0.61991 2.26749 2.02902 0.0
C1801 C 0.64604 2.2544 2.06657 0.0
N1802 N 0.65611 2.42868 2.17087 0.0
N1803 N 0.60622 2.12039 1.9513 0.0
H1804 H 0.67667 2.30642 2.14592 0.0
H1805 H 0.65166 2.18569 2.03959 0.0
H1806 H 0.58717 2.07311 1.90161 0.0
H1807 H 0.61119 2.13462 1.98543 0.0
H1808 H 0.64862 2.43157 2.15421 0.0
H1809 H 0.67348 2.49447 2.23833 0.0
H1810 H 0.60786 2.37953 2.10324 0.0
H1811 H 0.58446 2.24909 1.98808 0.0
C1812 C 0.71532 2.54735 1.92347 0.0
C1813 C 0.73788 2.56359 1.95677 0.0
C1814 C 0.73859 2.84105 2.22151 0.0
C1815 C 0.71574 2.82371 2.18779 0.0
N1816 N 0.67761 2.67184 2.02459 0.0
N1817 N 0.76711 2.72776 2.14418 0.0
C1818 C 0.70246 2.68044 2.04466 0.0
C1819 C 0.74829 2.71144 2.10835 0.0
N1820 N 0.70744 2.406 1.77538 0.0
N1821 N 0.7517 2.97906 2.35839 0.0
H1822 H 0.77433 2.63496 2.06395 0.0
H1823 H 0.77372 2.83378 2.25557 0.0
H1824 H 0.74466 3.07691 2.44489 0.0
H1825 H 0.77026 2.99444 2.38276 0.0
H1826 H 0.69294 2.39018 1.74498 0.0
H1827 H 0.7172 2.30492 1.68101 0.0
H1828 H 0.66586 2.57249 1.92698 0.0
H1829 H 0.66758 2.76828 2.11224 0.0
C1830 C 0.36317 2.65754 2.01625 0.0
C1831 C 0.3424 2.73194 2.07521 0.0
C1832 C 0.3539 2.58794 1.89288 0.0
C1833 C 0.37167 2.49762 1.81958 0.0
N1834 N 0.39562 2.45786 1.82227 0.0
N1835 N 0.31887 2.78075 2.08186 0.0
C1836 C 0.3772 2.53623 1.88462 0.0
C1837 C 0.33827 2.70218 2.0182 0.0
N1838 N 0.36918 2.69928 2.08301 0.0
N1839 N 0.35225 2.56469 1.84289 0.0
H1840 H 0.3088 2.87389 2.1818 0.0
H1841 H 0.3122 2.75244 2.03485 0.0
H1842 H 0.36349 2.48168 1.75129 0.0
H1843 H 0.34129 2.63341 1.89745 0.0
H1844 H 0.38394 2.64436 2.04029 0.0
H1845 H 0.36015 2.79245 2.18407 0.0
H1846 H 0.40713 2.368 1.72632 0.0
H1847 H 0.40713 2.368 1.72632 0.0
C1848 C 0.22517 2.45311 2.1381 0.0
C1849 C 0.24922 2.39133 2.08821 0.0
C1850 C 0.26378 2.32596 1.97859 0.0
C1851 C 0.23703 2.34045 1.98381 0.0
N1852 N 0.19467 2.46693 2.11352 0.0
N1853 N 0.29136 2.25911 1.95064 0.0
C1854 C 0.21847 2.42135 2.07957 0.0
C1855 C 0.26888 2.32816 2.00866 0.0
N1856 N 0.20927 2.54413 2.24323 0.0
N1857 N 0.28414 2.31011 1.94492 0.0
H1858 H 0.29549 2.24855 1.96067 0.0
H1859 H 0.30461 2.19814 1.87854 0.0
H1860 H 0.28081 2.31983 1.93386 0.0
H1861 H 0.30431 2.3081 1.94854 0.0
H1862 H 0.19227 2.6003 2.29154 0.0
H1863 H 0.21436 2.57371 2.29198 0.0
H1864 H 0.17867 2.50974 2.16671 0.0
H1865 H 0.19125 2.46242 2.08841 0.0
C1866 C 0.36352 3.75247 3.63169 0.0
C1867 C 0.38685 3.80305 3.66801 0.0
C1868 C 0.36805 3.72087 3.54414 0.0
C1869 C 0.3428 3.69963 3.53605 0.0
N1870 N 0.31611 3.69123 3.56832 0.0
N1871 N 0.4161 3.7589 3.58704 0.0
C1872 C 0.34055 3.70972 3.57438 0.0
C1873 C 0.39068 3.76432 3.60257 0.0
N1874 N 0.36362 3.74452 3.65125 0.0
N1875 N 0.37018 3.70344 3.4998 0.0
H1876 H 0.43297 3.77272 3.61284 0.0
H1877 H 0.42065 3.722 3.53142 0.0
H1878 H 0.35455 3.66094 3.44614 0.0
H1879 H 0.38702 3.73668 3.52151 0.0
H1880 H 0.3481 3.69636 3.61513 0.0
H1881 H 0.38058 3.77416 3.69165 0.0
H1882 H 0.31261 3.7155 3.61234 0.0
H1883 H 0.29872 3.66117 3.5283 0.0
C1884 C 0.68896 3.71418 3.4502 0.0
C1885 C 0.70882 3.68823 3.44459 0.0
C1886 C 0.74333 3.69151 3.41271 0.0
C1887 C 0.72465 3.75935 3.46176 0.0
N1888 N 0.67783 3.77104 3.46055 0.0
N1889 N 0.75569 3.64938 3.41757 0.0
C1890 C 0.69698 3.74933 3.45827 0.0
C1891 C 0.73621 3.67226 3.4212 0.0
N1892 N 0.66229 3.70609 3.44845 0.0
N1893 N 0.76739 3.64185 3.35422 0.0
H1894 H 0.75174 3.63917 3.42797 0.0
H1895 H 0.77613 3.65275 3.41647 0.0
H1896 H 0.7717 3.64292 3.33477 0.0
H1897 H 0.7812 3.58168 3.30663 0.0
H1898 H 0.64729 3.72826 3.45616 0.0
H1899 H 0.65526 3.67302 3.4348 0.0
H1900 H 0.68225 3.78756 3.4565 0.0
H1901 H 0.68225 3.78756 3.4565 0.0
C1902 C 0.27327 4.12283 3.52065 0.0
C1903 C 0.25899 4.26203 3.66064 0.0
C1904 C 0.25443 4.28692 3.63664 0.0
C1905 C 0.26919 4.14927 3.49771 0.0
N1906 N 0.28518 3.91274 3.28438 0.0
N1907 N 0.22677 4.43692 3.8141 0.0
C1908 C 0.27642 4.05978 3.43244 0.0
C1909 C 0.24622 4.32931 3.70447 0.0
N1910 N 0.28328 4.04997 3.47106 0.0
N1911 N 0.25023 4.38475 3.71186 0.0
H1912 H 0.22012 4.46755 3.86333 0.0
H1913 H 0.21531 4.48157 3.84237 0.0
H1914 H 0.25786 4.36643 3.67471 0.0
H1915 H 0.24186 4.49323 3.82089 0.0
H1916 H 0.29685 3.95977 3.38131 0.0
H1917 H 0.27815 4.08214 3.5222 0.0
H1918 H 0.28873 3.83727 3.22592 0.0
H1919 H 0.28631 3.86063 3.2143 0.0
C1920 C 0.15725 1.60655 1.27222 0.0
C1921 C 0.17291 1.7425 1.40652 0.0
C1922 C 0.14432 1.84442 1.54256 0.0
C1923 C 0.13117 1.70013 1.4026 0.0
N1924 N 0.12961 1.4317 1.12581 0.0
N1925 N 0.18463 1.98006 1.66259 0.0
C1926 C 0.13867 1.57782 1.26496 0.0
C1927 C 0.16728 1.85935 1.54053 0.0
N1928 N 0.15977 1.50577 1.15224 0.0
N1929 N 0.13458 1.96798 1.6778 0.0
H1930 H 0.20234 1.99264 1.66403 0.0
H1931 H 0.18286 2.05964 1.75635 0.0
H1932 H 0.11749 1.96187 1.68386 0.0
H1933 H 0.14183 2.07926 1.78449 0.0
H1934 H 0.14688 1.41252 1.05774 0.0
H1935 H 0.17293 1.52416 1.15434 0.0
H1936 H 0.13681 1.33679 1.02204 0.0
H1937 H 0.11741 1.40149 1.11226 0.0
C1938 C 0.68525 1.70946 1.54427 0.0
C1939 C 0.69423 1.55573 1.39427 0.0
C1940 C 0.67626 1.50864 1.30275 0.0
C1941 C 0.66835 1.66432 1.45429 0.0
N1942 N 0.67185 1.92189 1.7254 0.0
N1943 N 0.70555 1.32406 1.14236 0.0
C1944 C 0.67507 1.76772 1.57702 0.0
C1945 C 0.69176 1.45904 1.27627 0.0
N1946 N 0.68482 1.79767 1.65373 0.0
N1947 N 0.66921 1.40827 1.18412 0.0
H1948 H 0.71853 1.28854 1.12257 0.0
H1949 H 0.70655 1.2558 1.0581 0.0
H1950 H 0.65969 1.44248 1.20011 0.0
H1951 H 0.67154 1.28994 1.0694 0.0
H1952 H 0.6757 1.90487 1.76002 0.0
H1953 H 0.6911 1.75811 1.63353 0.0
H1954 H 0.68056 2.00133 1.81654 0.0
H1955 H 0.66291 1.97129 1.75724 0.0
C1956 C 0.79901 1.90987 1.24592 0.0
C1957 C 0.80565 1.98882 1.34762 0.0
C1958 C 0.83955 2.13894 1.47093 0.0
C1959 C 0.83492 2.0484 1.35865 0.0
N1960 N 0.81498 1.82037 1.1149 0.0
N1961 N 0.83659 2.1532 1.53335 0.0
C1962 C 0.81602 1.92583 1.23891 0.0
C1963 C 0.82724 2.09592 1.45321 0.0
N1964 N 0.77583 1.82581 1.16146 0.0
N1965 N 0.85471 2.26987 1.59812 0.0
H1966 H 0.82875 2.12038 1.51964 0.0
H1967 H 0.85393 2.22018 1.60071 0.0
H1968 H 0.86325 2.30907 1.61881 0.0
H1969 H 0.85645 2.34791 1.69063 0.0
H1970 H 0.76882 1.78082 1.09914 0.0
H1971 H 0.7622 1.81423 1.16582 0.0
H1972 H 0.80319 1.72141 1.01854 0.0
H1973 H 0.82799 1.82227 1.10038 0.0
C1974 C 0.31332 2.25179 1.48859 0.0
C1975 C 0.33622 2.16501 1.39577 0.0
C1976 C 0.32486 2.19751 1.38018 0.0
C1977 C 0.30055 2.26969 1.45873 0.0
N1978 N 0.27015 2.35547 1.57763 0.0
N1979 N 0.36136 2.03188 1.23075 0.0
C1980 C 0.29431 2.29327 1.50942 0.0
C1981 C 0.34142 2.13218 1.33609 0.0
N1982 N 0.3104 2.3017 1.56355 0.0
N1983 N 0.33219 2.19117 1.34753 0.0
H1984 H 0.37349 1.97848 1.19247 0.0
H1985 H 0.3642 1.98981 1.17002 0.0
H1986 H 0.32032 2.23351 1.37368 0.0
H1987 H 0.35102 2.15507 1.30559 0.0
H1988 H 0.29585 2.3799 1.64643 0.0
H1989 H 0.32395 2.27644 1.55398 0.0
H1990 H 0.26286 2.35635 1.5981 0.0
H1991 H 0.25664 2.39964 1.6071 0.0
C1992 C 0.19982 5.04307 4.42795 0.0
C1993 C 0.17478 4.96499 4.35341 0.0
C1994 C 0.19666 4.75552 4.17172 0.0
C1995 C 0.22207 4.82422 4.23387 0.0
N1996 N 0.24838 5.02989 4.41694 0.0
N1997 N 0.14944 4.73992 4.14476 0.0
C1998 C 0.22379 4.96705 4.36082 0.0
C1999 C 0.17312 4.82023 4.22393 0.0
N2000 N 0.20055 5.19242 4.56639 0.0
N2001 N 0.19498 4.62744 4.06154 0.0
H2002 H 0.13178 4.78252 4.17832 0.0
H2003 H 0.14768 4.6261 4.03891 0.0
H2004 H 0.21169 4.56956 4.01193 0.0
H2005 H 0.17692 4.58376 4.02592 0.0
H2006 H 0.2177 5.26119 4.63467 0.0
H2007 H 0.18344 5.25312 4.62068 0.0
H2008 H 0.25114 5.12246 4.49504 0.0
H2009 H 0.26636 4.98479 4.37977 0.0
C2010 C 0.33773 4.48356 4.38406 0.0
C2011 C 0.34246 4.32376 4.22459 0.0
C2012 C 0.29879 4.26819 4.19055 0.0
C2013 C 0.29465 4.42789 4.35109 0.0
N2014 N 0.31307 4.68431 4.60395 0.0
N2015 N 0.3309 4.06546 3.98332 0.0
C2016 C 0.31505 4.53458 4.44889 0.0
C2017 C 0.324 4.21646 4.13005 0.0
N2018 N 0.35391 4.58675 4.47253 0.0
N2019 N 0.2783 4.16636 4.09492 0.0
H2020 H 0.34966 4.02613 3.93857 0.0
H2021 H 0.31936 3.98333 3.91251 0.0
H2022 H 0.25948 4.19894 4.13401 0.0
H2023 H 0.27926 4.05089 3.97608 0.0
H2024 H 0.34937 4.70287 4.58508 0.0
H2025 H 0.3707 4.55543 4.43057 0.0
H2026 H 0.32855 4.76409 4.68012 0.0
H2027 H 0.29706 4.72463 4.65499 0.0
C2028 C 0.80761 4.12487 3.8591 0.0
C2029 C 0.79446 4.24817 3.96732 0.0
C2030 C 0.8254 4.43217 4.16914 0.0
C2031 C 0.83928 4.30815 4.05916 0.0
N2032 N 0.84719 4.0369 3.79632 0.0
N2033 N 0.79294 4.51618 4.21873 0.0
C2034 C 0.83145 4.1544 3.90295 0.0
C2035 C 0.8042 4.40083 4.12001 0.0
N2036 N 0.79698 3.9801 3.71544 0.0
N2037 N 0.83134 4.57965 4.32162 0.0
H2038 H 0.77637 4.49994 4.19027 0.0
H2039 H 0.80116 4.62603 4.32542 0.0
H2040 H 0.84647 4.60729 4.36246 0.0
H2041 H 0.8199 4.674 4.40883 0.0
H2042 H 0.80376 3.88894 3.63739 0.0
H2043 H 0.78019 3.95278 3.67702 0.0
H2044 H 0.84415 3.92257 3.67859 0.0
H2045 H 0.86482 4.05504 3.82507 0.0
C2046 C 0.71611 4.83637 4.0448 0.0
C2047 C 0.73643 4.89489 4.11953 0.0
C2048 C 0.71083 4.80671 4.07207 0.0
C2049 C 0.68941 4.76296 4.01184 0.0
N2050 N 0.66957 4.76214 3.96679 0.0
N2051 N 0.75126 4.95934 4.2278 0.0
C2052 C 0.69136 4.78637 4.00676 0.0
C2053 C 0.73347 4.88534 4.1385 0.0
N2054 N 0.72094 4.82198 4.00373 0.0
N2055 N 0.70934 4.77516 4.06789 0.0
H2056 H 0.7677 5.022 4.28245 0.0
H2057 H 0.74844 4.97092 4.2598 0.0
H2058 H 0.69219 4.72922 4.03174 0.0
H2059 H 0.72549 4.78728 4.09292 0.0
H2060 H 0.70797 4.76507 3.93466 0.0
H2061 H 0.73925 4.85191 4.02437 0.0
H2062 H 0.66908 4.79314 3.97708 0.0
H2063 H 0.65114 4.72339 3.93587 0.0
C2064 C 0.23592 1.94551 1.75688 0.0
C2065 C 0.26374 1.97098 1.77808 0.0
C2066 C 0.27382 1.75877 1.60008 0.0
C2067 C 0.24628 1.75055 1.59897 0.0
N2068 N 0.2011 1.84654 1.68861 0.0
N2069 N 0.30967 1.9094 1.72856 0.0
C2070 C 0.22723 1.84541 1.67918 0.0
C2071 C 0.28288 1.87841 1.70054 0.0
N2072 N 0.21781 2.01458 1.80818 0.0
N2073 N 0.29117 1.6501 1.50256 0.0
H2074 H 0.31732 1.99384 1.79892 0.0
H2075 H 0.32423 1.85871 1.69069 0.0
H2076 H 0.28505 1.55936 1.42558 0.0
H2077 H 0.31103 1.64125 1.48756 0.0
H2078 H 0.19737 1.98854 1.78256 0.0
H2079 H 0.22365 2.08623 1.86291 0.0
H2080 H 0.18715 1.92666 1.76082 0.0
H2081 H 0.19381 1.77591 1.63436 0.0
C2082 C 0.79413 1.86562 1.6707 0.0
C2083 C 0.8195 1.88733 1.70458 0.0
C2084 C 0.8045 2.13619 1.96683 0.0
C2085 C 0.77838 2.10625 1.92716 0.0
N2086 N 0.74715 1.93447 1.73618 0.0
N2087 N 0.84781 2.03477 1.87968 0.0
C2088 C 0.77278 1.96784 1.77706 0.0
C2089 C 0.82454 2.02097 1.8517 0.0
N2090 N 0.79091 1.75287 1.54094 0.0
N2091 N 0.8102 2.27519 2.11502 0.0
H2092 H 0.86309 1.95404 1.79992 0.0
H2093 H 0.8511 2.11974 1.97759 0.0
H2094 H 0.79564 2.35779 2.2001 0.0
H2095 H 0.82962 2.31244 2.15603 0.0
H2096 H 0.77377 1.74082 1.51727 0.0
H2097 H 0.80649 1.68143 1.46458 0.0
H2098 H 0.74128 1.827 1.62337 0.0
H2099 H 0.7312 2.01026 1.81287 0.0
C2100 C 0.70091 2.50996 1.71523 0.0
C2101 C 0.71929 2.56516 1.75005 0.0
C2102 C 0.72795 2.79494 2.00319 0.0
C2103 C 0.71198 2.73106 1.96117 0.0
N2104 N 0.6839 2.52617 1.77667 0.0
N2105 N 0.75299 2.74956 1.91769 0.0
C2106 C 0.69857 2.58816 1.81706 0.0
C2107 C 0.73327 2.70597 1.89241 0.0
N2108 N 0.68522 2.38486 1.58648 0.0
N2109 N 0.73844 2.93959 2.14805 0.0
H2110 H 0.75759 2.68871 1.84044 0.0
H2111 H 0.76631 2.83982 2.01001 0.0
H2112 H 0.7368 3.00477 2.22961 0.0
H2113 H 0.74732 2.99954 2.19124 0.0
H2114 H 0.6694 2.34795 1.56224 0.0
H2115 H 0.68652 2.32529 1.50976 0.0
H2116 H 0.67686 2.41351 1.66596 0.0
H2117 H 0.67967 2.58524 1.85247 0.0
C2118 C 0.18602 2.5652 1.90988 0.0
C2119 C 0.21023 2.60898 1.93985 0.0
C2120 C 0.19137 2.52624 1.81529 0.0
C2121 C 0.16899 2.46206 1.76588 0.0
N2122 N 0.14614 2.40433 1.75058 0.0
N2123 N 0.23642 2.63072 1.92052 0.0
C2124 C 0.16646 2.47832 1.81008 0.0
C2125 C 0.21306 2.58888 1.89191 0.0
N2126 N 0.18154 2.60735 1.97737 0.0
N2127 N 0.19128 2.5345 1.79598 0.0
H2128 H 0.25166 2.69317 1.99134 0.0
H2129 H 0.24125 2.59798 1.8688 0.0
H2130 H 0.17541 2.49457 1.74492 0.0
H2131 H 0.20566 2.594 1.84342 0.0
H2132 H 0.16319 2.59204 1.97199 0.0
H2133 H 0.19523 2.67123 2.05139 0.0
H2134 H 0.14502 2.39689 1.7641 0.0
H2135 H 0.13153 2.33873 1.6763 0.0
C2136 C 0.19534 4.39812 3.62246 0.0
C2137 C 0.22273 4.36259 3.58337 0.0
C2138 C 0.22718 4.58913 3.77733 0.0
C2139 C 0.20228 4.64257 3.83973 0.0
N2140 N 0.16176 4.59691 3.82038 0.0
N2141 N 0.26505 4.42226 3.62018 0.0
C2142 C 0.18573 4.54539 3.76002 0.0
C2143 C 0.23863 4.45503 3.6568 0.0
N2144 N 0.17867 4.2905 3.52772 0.0
N2145 N 0.23975 4.66707 3.83371 0.0
H2146 H 0.27444 4.32384 3.53033 0.0
H2147 H 0.27824 4.49725 3.68431 0.0
H2148 H 0.23151 4.76478 3.92103 0.0
H2149 H 0.25668 4.62649 3.78386 0.0
H2150 H 0.15796 4.30395 3.54249 0.0
H2151 H 0.18537 4.1809 3.42498 0.0
H2152 H 0.15054 4.53836 3.7772 0.0
H2153 H 0.15374 4.70287 3.91949 0.0
C2154 C 0.21428 3.96993 3.80653 0.0
C2155 C 0.21305 3.8445 3.66507 0.0
C2156 C 0.18022 3.98309 3.77406 0.0
C2157 C 0.17874 4.09874 3.90775 0.0
N2158 N 0.19008 4.18092 4.03373 0.0
N2159 N 0.19015 3.71752 3.50351 0.0
C2160 C 0.19459 4.08672 3.91964 0.0
C2161 C 0.19466 3.84696 3.64568 0.0
N2162 N 0.23475 3.98146 3.83607 0.0
N2163 N 0.16864 4.00509 3.77114 0.0
H2164 H 0.19921 3.61275 3.40473 0.0
H2165 H 0.1752 3.70982 3.48135 0.0
H2166 H 0.15869 4.10584 3.86506 0.0
H2167 H 0.17147 3.93065 3.68181 0.0
H2168 H 0.23805 4.07901 3.94369 0.0
H2169 H 0.25008 3.90105 3.7585 0.0
H2170 H 0.19986 4.16811 4.03947 0.0
H2171 H 0.17459 4.26054 4.11276 0.0
C2172 C 0.7341 4.21759 4.09327 0.0
C2173 C 0.73604 4.18513 4.08926 0.0
C2174 C 0.73402 3.91008 3.80908 0.0
C2175 C 0.72981 3.94216 3.813 0.0
N2176 N 0.71737 4.12976 3.96396 0.0
N2177 N 0.72911 4.00301 3.94591 0.0
C2178 C 0.72732 4.09696 3.95661 0.0
C2179 C 0.73326 4.03197 3.94776 0.0
N2180 N 0.73999 4.36068 4.22435 0.0
N2181 N 0.74005 3.76489 3.67458 0.0
H2182 H 0.72691 4.09067 4.0462 0.0
H2183 H 0.72463 3.89401 3.84612 0.0
H2184 H 0.74242 3.67318 3.5712 0.0
H2185 H 0.74567 3.73945 3.66922 0.0
H2186 H 0.74142 4.38472 4.22754 0.0
H2187 H 0.74599 4.45187 4.32619 0.0
H2188 H 0.71285 4.24096 4.06718 0.0
H2189 H 0.71069 4.04556 3.86783 0.0
C2190 C 0.81051 4.63511 3.92758 0.0
C2191 C 0.82192 4.52579 3.80225 0.0
C2192 C 0.86524 4.66057 3.93675 0.0
C2193 C 0.85403 4.76645 4.05934 0.0
N2194 N 0.81818 4.83916 4.16057 0.0
N2195 N 0.86058 4.4191 3.67528 0.0
C2196 C 0.82723 4.74957 4.05181 0.0
C2197 C 0.84948 4.53377 3.80306 0.0
N2198 N 0.78368 4.62939 3.92782 0.0
N2199 N 0.89061 4.6844 3.95056 0.0
H2200 H 0.84933 4.32825 3.57807 0.0
H2201 H 0.88111 4.40848 3.66147 0.0
H2202 H 0.90307 4.77193 4.04367 0.0
H2203 H 0.89883 4.62341 3.87464 0.0
H2204 H 0.77358 4.71545 4.02271 0.0
H2205 H 0.77088 4.54218 3.83551 0.0
H2206 H 0.79982 4.82317 4.15442 0.0
H2207 H 0.83016 4.92166 4.25113 0.0
C2208 C 0.31222 1.16686 0.97446 0.0
C2209 C 0.31952 1.02046 0.82058 0.0
C2210 C 0.36658 1.10177 0.89845 0.0
C2211 C 0.35852 1.25444 1.05407 0.0
N2212 N 0.32314 1.43694 1.24212 0.0
N2213 N 0.35316 0.8449 0.63218 0.0
C2214 C 0.33126 1.28825 1.09304 0.0
C2215 C 0.34666 0.986 0.78091 0.0
N2216 N 0.28719 1.18919 1.00694 0.0
N2217 N 0.39332 1.06818 0.86401 0.0
H2218 H 0.33908 0.75669 0.54318 0.0
H2219 H 0.37207 0.81771 0.59798 0.0
H2220 H 0.40825 1.15102 0.94845 0.0
H2221 H 0.40074 0.95723 0.7532 0.0
H2222 H 0.28168 1.28899 1.11515 0.0
H2223 H 0.27274 1.10223 0.92247 0.0
H2224 H 0.30302 1.46889 1.27404 0.0
H2225 H 0.3363 1.53024 1.33373 0.0
C2226 C 0.35288 5.3513 4.64431 0.0
C2227 C 0.36261 5.28988 4.60841 0.0
C2228 C 0.33287 5.45926 4.80053 0.0
C2229 C 0.32346 5.52239 4.83816 0.0
N2230 N 0.32818 5.55267 4.81997 0.0
N2231 N 0.36662 5.30716 4.67349 0.0
C2232 C 0.33486 5.47716 4.76878 0.0
C2233 C 0.354 5.35059 4.69308 0.0
N2234 N 0.35929 5.28262 4.55293 0.0
N2235 N 0.32124 5.50137 4.86569 0.0
H2236 H 0.38248 5.23 4.59769 0.0
H2237 H 0.36317 5.35735 4.74148 0.0
H2238 H 0.30708 5.58877 4.95304 0.0
H2239 H 0.32463 5.44518 4.82853 0.0
H2240 H 0.35016 5.30959 4.56127 0.0
H2241 H 0.37222 5.18943 4.4598 0.0
H2242 H 0.33803 5.53651 4.78587 0.0
H2243 H 0.31427 5.64105 4.90633 0.0
C2244 C 0.21719 5.01865 4.73858 0.0
C2245 C 0.22151 4.99472 4.74295 0.0
C2246 C 0.24057 4.74191 4.48491 0.0
C2247 C 0.23784 4.76954 4.48417 0.0
N2248 N 0.22843 4.9453 4.62087 0.0
N2249 N 0.24328 4.8515 4.63725 0.0
C2250 C 0.22745 4.91094 4.61385 0.0
C2251 C 0.23494 4.86136 4.62084 0.0
N2252 N 0.20254 5.1411 4.85044 0.0
N2253 N 0.24765 4.59962 4.35396 0.0
H2254 H 0.2404 4.9393 4.73753 0.0
H2255 H 0.25556 4.76414 4.55845 0.0
H2256 H 0.25158 4.50836 4.25132 0.0
H2257 H 0.24712 4.56795 4.34297 0.0
H2258 H 0.19562 5.15293 4.84245 0.0
H2259 H 0.19575 5.22654 4.94729 0.0
H2260 H 0.22407 5.05338 4.71946 0.0
H2261 H 0.23581 4.86978 4.53216 0.0
C2262 C 0.7043 4.68793 4.50713 0.0
C2263 C 0.68326 4.68917 4.52768 0.0
C2264 C 0.70184 4.92437 4.77859 0.0
C2265 C 0.72426 4.91321 4.75023 0.0
N2266 N 0.7493 4.77181 4.57805 0.0
N2267 N 0.66492 4.79083 4.66879 0.0
C2268 C 0.72631 4.79064 4.61117 0.0
C2269 C 0.68279 4.80273 4.65975 0.0
N2270 N 0.70256 4.59577 4.39433 0.0
N2271 N 0.6985 5.05228 4.91983 0.0
H2272 H 0.65122 4.70044 4.58166 0.0
H2273 H 0.66542 4.86188 4.75547 0.0
H2274 H 0.71207 5.14358 5.00947 0.0
H2275 H 0.68119 5.07381 4.95208 0.0
H2276 H 0.71599 4.60183 4.3843 0.0
H2277 H 0.68618 4.52451 4.32036 0.0
H2278 H 0.75313 4.67417 4.4706 0.0
H2279 H 0.76545 4.84849 4.65432 0.0
C2280 C 0.7082 5.20659 4.63086 0.0
C2281 C 0.68487 5.12255 4.54061 0.0
C2282 C 0.67139 5.33008 4.71453 0.0
C2283 C 0.69498 5.41187 4.80211 0.0
N2284 N 0.7314 5.45157 4.87233 0.0
N2285 N 0.64092 5.11965 4.51757 0.0
C2286 C 0.71173 5.35857 4.77066 0.0
C2287 C 0.66533 5.18972 4.58968 0.0
N2288 N 0.72807 5.13763 4.57756 0.0
N2289 N 0.6553 5.38466 4.74817 0.0
H2290 H 0.63588 5.01782 4.42721 0.0
H2291 H 0.6249 5.16876 4.55564 0.0
H2292 H 0.65834 5.49212 4.84509 0.0
H2293 H 0.6397 5.32165 4.67759 0.0
H2294 H 0.7469 5.18704 4.6293 0.0
H2295 H 0.72682 5.02552 4.47443 0.0
H2296 H 0.74256 5.42433 4.86255 0.0
H2297 H 0.73475 5.56289 4.97498 0.0
C2298 C 0.71484 1.73018 1.01499 0.0
C2299 C 0.72221 1.72292 0.98044 0.0
C2300 C 0.68832 1.91542 1.15852 0.0
C2301 C 0.68177 1.92745 1.19795 0.0
N2302 N 0.69273 1.87208 1.18977 0.0
N2303 N 0.72078 1.8328 1.04411 0.0
C2304 C 0.69637 1.84355 1.13499 0.0
C2305 C 0.71033 1.82255 1.05934 0.0
N2306 N 0.72425 1.62317 0.92742 0.0
N2307 N 0.67333 1.99106 1.21419 0.0
H2308 H 0.73697 1.76698 0.9729 0.0
H2309 H 0.71522 1.91737 1.11367 0.0
H2310 H 0.65776 2.0651 1.29211 0.0
H2311 H 0.67523 1.97324 1.17608 0.0
H2312 H 0.71707 1.6116 0.93558 0.0
H2313 H 0.73783 1.53796 0.8382 0.0
H2314 H 0.70562 1.83026 1.16333 0.0
H2315 H 0.67841 1.94781 1.27164 0.0
C2316 C 0.22695 1.73126 1.07318 0.0
C2317 C 0.25046 1.81995 1.16485 0.0
C2318 C 0.26142 1.80872 1.10581 0.0
C2319 C 0.2373 1.72546 1.01937 0.0
N2320 N 0.19403 1.64072 0.95203 0.0
N2321 N 0.28708 1.97136 1.29598 0.0
C2322 C 0.21916 1.69616 1.01194 0.0
C2323 C 0.26686 1.86701 1.18927 0.0
N2324 N 0.21256 1.67596 1.04011 0.0
N2325 N 0.27952 1.82751 1.10389 0.0
H2326 H 0.29146 2.01784 1.36051 0.0
H2327 H 0.29792 2.02249 1.33076 0.0
H2328 H 0.27609 1.78768 1.04526 0.0
H2329 H 0.29874 1.87236 1.15073 0.0
H2330 H 0.1971 1.5957 0.95927 0.0
H2331 H 0.21739 1.70095 1.08458 0.0
H2332 H 0.17899 1.63045 0.95634 0.0
H2333 H 0.18734 1.61981 0.912 0.0
C2334 C 0.72266 1.44431 1.10612 0.0
C2335 C 0.73928 1.56743 1.23596 0.0
C2336 C 0.76195 1.39673 1.09963 0.0
C2337 C 0.74351 1.27769 0.97577 0.0
N2338 N 0.70391 1.19311 0.86884 0.0
N2339 N 0.77189 1.66913 1.36715 0.0
C2340 C 0.72325 1.30246 0.98065 0.0
C2341 C 0.75824 1.54592 1.23563 0.0
N2342 N 0.70687 1.4618 1.1011 0.0
N2343 N 0.78355 1.36606 1.08548 0.0
H2344 H 0.7699 1.78033 1.46907 0.0
H2345 H 0.78351 1.66362 1.3791 0.0
H2346 H 0.7871 1.25822 0.98757 0.0
H2347 H 0.79925 1.44333 1.16472 0.0
H2348 H 0.69627 1.37223 1.00403 0.0
H2349 H 0.70627 1.56344 1.19009 0.0
H2350 H 0.68685 1.21149 0.87529 0.0
H2351 H 0.70373 1.08754 0.77488 0.0
loop_
_geom_bond_atom_site_label_1
_geom_bond_atom_site_label_2
_geom_bond_distance
_geom_bond_site_symmetry_2
_ccdc_geom_bond_type
C0 O1 1.160 . S
C0 O7 1.185 . S
O1 C0 1.160 . S
O2 Zn3 1.899 . S
O2 C10 1.284 . S
Zn3 O2 1.899 . S
Zn3 O4 2.032 . S
Zn3 O7 2.086 . S
Zn3 O12 1.977 . S
O4 Zn3 2.032 . S
O4 C8 1.278 . S
C5 O6 1.203 . S
C5 O12 1.267 . S
O6 C5 1.203 . S
O7 C0 1.185 . S
O7 Zn3 2.086 . S
C8 O4 1.278 . S
C8 O9 1.211 . S
O9 C8 1.211 . S
C10 O2 1.284 . S
C10 O11 1.273 . S
O11 C10 1.273 . S
O12 Zn3 1.977 . S
O12 C5 1.267 . S
C13 O14 1.160 . S
C13 O20 1.185 . S
O14 C13 1.160 . S
O15 Zn16 1.899 . S
O15 C23 1.284 . S
Zn16 O15 1.899 . S
Zn16 O17 2.032 . S
Zn16 O20 2.086 . S
Zn16 O25 1.977 . S
O17 Zn16 2.032 . S
O17 C21 1.278 . S
C18 O19 1.203 . S
C18 O25 1.267 . S
O19 C18 1.203 . S
O20 C13 1.185 . S
O20 Zn16 2.086 . S
C21 O17 1.278 . S
C21 O22 1.211 . S
O22 C21 1.211 . S
C23 O15 1.284 . S
C23 O24 1.273 . S
O24 C23 1.273 . S
O25 Zn16 1.977 . S
O25 C18 1.267 . S
C26 O27 1.160 . S
C26 O33 1.185 . S
O27 C26 1.160 . S
O28 Zn29 1.899 . S
O28 C36 1.284 . S
Zn29 O28 1.899 . S
Zn29 O30 2.032 . S
Zn29 O33 2.086 . S
Zn29 O38 1.977 . S
O30 Zn29 2.032 . S
O30 C34 1.278 . S
C31 O32 1.203 . S
C31 O38 1.267 . S
O32 C31 1.203 . S
O33 C26 1.185 . S
O33 Zn29 2.086 . S
C34 O30 1.278 . S
C34 O35 1.211 . S
O35 C34 1.211 . S
C36 O28 1.284 . S
C36 O37 1.273 . S
O37 C36 1.273 . S
O38 Zn29 1.977 . S
O38 C31 1.267 . S
C39 O40 1.160 . S
C39 O46 1.185 . S
O40 C39 1.160 . S
O41 Zn42 1.899 . S
O41 C49 1.284 . S
Zn42 O41 1.899 . S
Zn42 O43 2.032 . S
Zn42 O46 2.086 . S
Zn42 O51 1.977 . S
O43 Zn42 2.032 . S
O43 C47 1.278 . S
C44 O45 1.203 . S
C44 O51 1.267 . S
O45 C44 1.203 . S
O46 C39 1.185 . S
O46 Zn42 2.086 . S
C47 O43 1.278 . S
C47 O48 1.211 . S
O48 C47 1.211 . S
C49 O41 1.284 . S
C49 O50 1.273 . S
O50 C49 1.273 . S
O51 Zn42 1.977 . S
O51 C44 1.267 . S
C52 O53 1.160 . S
C52 O59 1.185 . S
O53 C52 1.160 . S
O54 Zn55 1.899 . S
O54 C62 1.284 . S
Zn55 O54 1.899 . S
Zn55 O56 2.032 . S
Zn55 O59 2.086 . S
Zn55 O64 1.977 . S
O56 Zn55 2.032 . S
O56 C60 1.278 . S
C57 O58 1.203 . S
C57 O64 1.267 . S
O58 C57 1.203 . S
O59 C52 1.185 . S
O59 Zn55 2.086 . S
C60 O56 1.278 . S
C60 O61 1.211 . S
O61 C60 1.211 . S
C62 O54 1.284 . S
C62 O63 1.273 . S
O63 C62 1.273 . S
O64 Zn55 1.977 . S
O64 C57 1.267 . S
C65 O66 1.160 . S
C65 O72 1.185 . S
O66 C65 1.160 . S
O67 Zn68 1.899 . S
O67 C75 1.284 . S
Zn68 O67 1.899 . S
Zn68 O69 2.032 . S
Zn68 O72 2.086 . S
Zn68 O77 1.977 . S
O69 Zn68 2.032 . S
O69 C73 1.278 . S
C70 O71 1.203 . S
C70 O77 1.267 . S
O71 C70 1.203 . S
O72 C65 1.185 . S
O72 Zn68 2.086 . S
C73 O69 1.278 . S
C73 O74 1.211 . S
O74 C73 1.211 . S
C75 O67 1.284 . S
C75 O76 1.273 . S
O76 C75 1.273 . S
O77 Zn68 1.977 . S
O77 C70 1.267 . S
C78 O79 1.160 . S
C78 O85 1.185 . S
O79 C78 1.160 . S
O80 Zn81 1.899 . S
O80 C88 1.284 . S
Zn81 O80 1.899 . S
Zn81 O82 2.032 . S
Zn81 O85 2.086 . S
Zn81 O90 1.977 . S
O82 Zn81 2.032 . S
O82 C86 1.278 . S
C83 O84 1.203 . S
C83 O90 1.267 . S
O84 C83 1.203 . S
O85 C78 1.185 . S
O85 Zn81 2.086 . S
C86 O82 1.278 . S
C86 O87 1.211 . S
O87 C86 1.211 . S
C88 O80 1.284 . S
C88 O89 1.273 . S
O89 C88 1.273 . S
O90 Zn81 1.977 . S
O90 C83 1.267 . S
C91 O92 1.160 . S
C91 O98 1.185 . S
O92 C91 1.160 . S
O93 Zn94 1.899 . S
O93 C101 1.284 . S
Zn94 O93 1.899 . S
Zn94 O95 2.032 . S
Zn94 O98 2.086 . S
Zn94 O103 1.977 . S
O95 Zn94 2.032 . S
O95 C99 1.278 . S
C96 O97 1.203 . S
C96 O103 1.267 . S
O97 C96 1.203 . S
O98 C91 1.185 . S
O98 Zn94 2.086 . S
C99 O95 1.278 . S
C99 O100 1.211 . S
O100 C99 1.211 . S
C101 O93 1.284 . S
C101 O102 1.273 . S
O102 C101 1.273 . S
O103 Zn94 1.977 . S
O103 C96 1.267 . S
C104 O105 1.160 . S
C104 O111 1.185 . S
O105 C104 1.160 . S
O106 Zn107 1.899 . S
O106 C114 1.284 . S
Zn107 O106 1.899 . S
Zn107 O108 2.032 . S
Zn107 O111 2.086 . S
Zn107 O116 1.977 . S
O108 Zn107 2.032 . S
O108 C112 1.278 . S
C109 O110 1.203 . S
C109 O116 1.267 . S
O110 C109 1.203 . S
O111 C104 1.185 . S
O111 Zn107 2.086 . S
C112 O108 1.278 . S
C112 O113 1.211 . S
O113 C112 1.211 . S
C114 O106 1.284 . S
C114 O115 1.273 . S
O115 C114 1.273 . S
O116 Zn107 1.977 . S
O116 C109 1.267 . S
C117 O118 1.160 . S
C117 O124 1.185 . S
O118 C117 1.160 . S
O119 Zn120 1.899 . S
O119 C127 1.284 . S
Zn120 O119 1.899 . S
Zn120 O121 2.032 . S
Zn120 O124 2.086 . S
Zn120 O129 1.977 . S
O121 Zn120 2.032 . S
O121 C125 1.278 . S
C122 O123 1.203 . S
C122 O129 1.267 . S
O123 C122 1.203 . S
O124 C117 1.185 . S
O124 Zn120 2.086 . S
C125 O121 1.278 . S
C125 O126 1.211 . S
O126 C125 1.211 . S
C127 O119 1.284 . S
C127 O128 1.273 . S
O128 C127 1.273 . S
O129 Zn120 1.977 . S
O129 C122 1.267 . S
C130 O131 1.160 . S
C130 O137 1.185 . S
O131 C130 1.160 . S
O132 Zn133 1.899 . S
O132 C140 1.284 . S
Zn133 O132 1.899 . S
Zn133 O134 2.032 . S
Zn133 O137 2.086 . S
Zn133 O142 1.977 . S
O134 Zn133 2.032 . S
O134 C138 1.278 . S
C135 O136 1.203 . S
C135 O142 1.267 . S
O136 C135 1.203 . S
O137 C130 1.185 . S
O137 Zn133 2.086 . S
C138 O134 1.278 . S
C138 O139 1.211 . S
O139 C138 1.211 . S
C140 O132 1.284 . S
C140 O141 1.273 . S
O141 C140 1.273 . S
O142 Zn133 1.977 . S
O142 C135 1.267 . S
C143 O144 1.160 . S
C143 O150 1.185 . S
O144 C143 1.160 . S
O145 Zn146 1.899 . S
O145 C153 1.284 . S
Zn146 O145 1.899 . S
Zn146 O147 2.032 . S
Zn146 O150 2.086 . S
Zn146 O155 1.977 . S
O147 Zn146 2.032 . S
O147 C151 1.278 . S
C148 O149 1.203 . S
C148 O155 1.267 . S
O149 C148 1.203 . S
O150 C143 1.185 . S
O150 Zn146 2.086 . S
C151 O147 1.278 . S
C151 O152 1.211 . S
O152 C151 1.211 . S
C153 O145 1.284 . S
C153 O154 1.273 . S
O154 C153 1.273 . S
O155 Zn146 1.977 . S
O155 C148 1.267 . S
C156 O157 1.160 . S
C156 O163 1.185 . S
O157 C156 1.160 . S
O158 Zn159 1.899 . S
O158 C166 1.284 . S
Zn159 O158 1.899 . S
Zn159 O160 2.032 . S
Zn159 O163 2.086 . S
Zn159 O168 1.977 . S
O160 Zn159 2.032 . S
O160 C164 1.278 . S
C161 O162 1.203 . S
C161 O168 1.267 . S
O162 C161 1.203 . S
O163 C156 1.185 . S
O163 Zn159 2.086 . S
C164 O160 1.278 . S
C164 O165 1.211 . S
O165 C164 1.211 . S
C166 O158 1.284 . S
C166 O167 1.273 . S
O167 C166 1.273 . S
O168 Zn159 1.977 . S
O168 C161 1.267 . S
C169 O170 1.160 . S
C169 O176 1.185 . S
O170 C169 1.160 . S
O171 Zn172 1.899 . S
O171 C179 1.284 . S
Zn172 O171 1.899 . S
Zn172 O173 2.032 . S
Zn172 O176 2.086 . S
Zn172 O181 1.977 . S
O173 Zn172 2.032 . S
O173 C177 1.278 . S
C174 O175 1.203 . S
C174 O181 1.267 . S
O175 C174 1.203 . S
O176 C169 1.185 . S
O176 Zn172 2.086 . S
C177 O173 1.278 . S
C177 O178 1.211 . S
O178 C177 1.211 . S
C179 O171 1.284 . S
C179 O180 1.273 . S
O180 C179 1.273 . S
O181 Zn172 1.977 . S
O181 C174 1.267 . S
C182 O183 1.160 . S
C182 O189 1.185 . S
O183 C182 1.160 . S
O184 Zn185 1.899 . S
O184 C192 1.284 . S
Zn185 O184 1.899 . S
Zn185 O186 2.032 . S
Zn185 O189 2.086 . S
Zn185 O194 1.977 . S
O186 Zn185 2.032 . S
O186 C190 1.278 . S
C187 O188 1.203 . S
C187 O194 1.267 . S
O188 C187 1.203 . S
O189 C182 1.185 . S
O189 Zn185 2.086 . S
C190 O186 1.278 . S
C190 O191 1.211 . S
O191 C190 1.211 . S
C192 O184 1.284 . S
C192 O193 1.273 . S
O193 C192 1.273 . S
O194 Zn185 1.977 . S
O194 C187 1.267 . S
C195 O196 1.160 . S
C195 O202 1.185 . S
O196 C195 1.160 . S
O197 Zn198 1.899 . S
O197 C205 1.284 . S
Zn198 O197 1.899 . S
Zn198 O199 2.032 . S
Zn198 O202 2.086 . S
Zn198 O207 1.977 . S
O199 Zn198 2.032 . S
O199 C203 1.278 . S
C200 O201 1.203 . S
C200 O207 1.267 . S
O201 C200 1.203 . S
O202 C195 1.185 . S
O202 Zn198 2.086 . S
C203 O199 1.278 . S
C203 O204 1.211 . S
O204 C203 1.211 . S
C205 O197 1.284 . S
C205 O206 1.273 . S
O206 C205 1.273 . S
O207 Zn198 1.977 . S
O207 C200 1.267 . S
C208 O209 1.160 . S
C208 O215 1.185 . S
O209 C208 1.160 . S
O210 Zn211 1.899 . S
O210 C218 1.284 . S
Zn211 O210 1.899 . S
Zn211 O212 2.032 . S
Zn211 O215 2.086 . S
Zn211 O220 1.977 . S
O212 Zn211 2.032 . S
O212 C216 1.278 . S
C213 O214 1.203 . S
C213 O220 1.267 . S
O214 C213 1.203 . S
O215 C208 1.185 . S
O215 Zn211 2.086 . S
C216 O212 1.278 . S
C216 O217 1.211 . S
O217 C216 1.211 . S
C218 O210 1.284 . S
C218 O219 1.273 . S
O219 C218 1.273 . S
O220 Zn211 1.977 . S
O220 C213 1.267 . S
C221 O222 1.160 . S
C221 O228 1.185 . S
O222 C221 1.160 . S
O223 Zn224 1.899 . S
O223 C231 1.284 . S
Zn224 O223 1.899 . S
Zn224 O225 2.032 . S
Zn224 O228 2.086 . S
Zn224 O233 1.977 . S
O225 Zn224 2.032 . S
O225 C229 1.278 . S
C226 O227 1.203 . S
C226 O233 1.267 . S
O227 C226 1.203 . S
O228 C221 1.185 . S
O228 Zn224 2.086 . S
C229 O225 1.278 . S
C229 O230 1.211 . S
O230 C229 1.211 . S
C231 O223 1.284 . S
C231 O232 1.273 . S
O232 C231 1.273 . S
O233 Zn224 1.977 . S
O233 C226 1.267 . S
C234 O235 1.160 . S
C234 O241 1.185 . S
O235 C234 1.160 . S
O236 Zn237 1.899 . S
O236 C244 1.284 . S
Zn237 O236 1.899 . S
Zn237 O238 2.032 . S
Zn237 O241 2.086 . S
Zn237 O246 1.977 . S
O238 Zn237 2.032 . S
O238 C242 1.278 . S
C239 O240 1.203 . S
C239 O246 1.267 . S
O240 C239 1.203 . S
O241 C234 1.185 . S
O241 Zn237 2.086 . S
C242 O238 1.278 . S
C242 O243 1.211 . S
O243 C242 1.211 . S
C244 O236 1.284 . S
C244 O245 1.273 . S
O245 C244 1.273 . S
O246 Zn237 1.977 . S
O246 C239 1.267 . S
C247 O248 1.160 . S
C247 O254 1.185 . S
O248 C247 1.160 . S
O249 Zn250 1.899 . S
O249 C257 1.284 . S
Zn250 O249 1.899 . S
Zn250 O251 2.032 . S
Zn250 O254 2.086 . S
Zn250 O259 1.977 . S
O251 Zn250 2.032 . S
O251 C255 1.278 . S
C252 O253 1.203 . S
C252 O259 1.267 . S
O253 C252 1.203 . S
O254 C247 1.185 . S
O254 Zn250 2.086 . S
C255 O251 1.278 . S
C255 O256 1.211 . S
O256 C255 1.211 . S
C257 O249 1.284 . S
C257 O258 1.273 . S
O258 C257 1.273 . S
O259 Zn250 1.977 . S
O259 C252 1.267 . S
C260 O261 1.160 . S
C260 O267 1.185 . S
O261 C260 1.160 . S
O262 Zn263 1.899 . S
O262 C270 1.284 . S
Zn263 O262 1.899 . S
Zn263 O264 2.032 . S
Zn263 O267 2.086 . S
Zn263 O272 1.977 . S
O264 Zn263 2.032 . S
O264 C268 1.278 . S
C265 O266 1.203 . S
C265 O272 1.267 . S
O266 C265 1.203 . S
O267 C260 1.185 . S
O267 Zn263 2.086 . S
C268 O264 1.278 . S
C268 O269 1.211 . S
O269 C268 1.211 . S
C270 O262 1.284 . S
C270 O271 1.273 . S
O271 C270 1.273 . S
O272 Zn263 1.977 . S
O272 C265 1.267 . S
C273 O274 1.160 . S
C273 O280 1.185 . S
O274 C273 1.160 . S
O275 Zn276 1.899 . S
O275 C283 1.284 . S
Zn276 O275 1.899 . S
Zn276 O277 2.032 . S
Zn276 O280 2.086 . S
Zn276 O285 1.977 . S
O277 Zn276 2.032 . S
O277 C281 1.278 . S
C278 O279 1.203 . S
C278 O285 1.267 . S
O279 C278 1.203 . S
O280 C273 1.185 . S
O280 Zn276 2.086 . S
C281 O277 1.278 . S
C281 O282 1.211 . S
O282 C281 1.211 . S
C283 O275 1.284 . S
C283 O284 1.273 . S
O284 C283 1.273 . S
O285 Zn276 1.977 . S
O285 C278 1.267 . S
C286 O287 1.160 . S
C286 O293 1.185 . S
O287 C286 1.160 . S
O288 Zn289 1.899 . S
O288 C296 1.284 . S
Zn289 O288 1.899 . S
Zn289 O290 2.032 . S
Zn289 O293 2.086 . S
Zn289 O298 1.977 . S
O290 Zn289 2.032 . S
O290 C294 1.278 . S
C291 O292 1.203 . S
C291 O298 1.267 . S
O292 C291 1.203 . S
O293 C286 1.185 . S
O293 Zn289 2.086 . S
C294 O290 1.278 . S
C294 O295 1.211 . S
O295 C294 1.211 . S
C296 O288 1.284 . S
C296 O297 1.273 . S
O297 C296 1.273 . S
O298 Zn289 1.977 . S
O298 C291 1.267 . S
C299 O300 1.160 . S
C299 O306 1.185 . S
O300 C299 1.160 . S
O301 Zn302 1.899 . S
O301 C309 1.284 . S
Zn302 O301 1.899 . S
Zn302 O303 2.032 . S
Zn302 O306 2.086 . S
Zn302 O311 1.977 . S
O303 Zn302 2.032 . S
O303 C307 1.278 . S
C304 O305 1.203 . S
C304 O311 1.267 . S
O305 C304 1.203 . S
O306 C299 1.185 . S
O306 Zn302 2.086 . S
C307 O303 1.278 . S
C307 O308 1.211 . S
O308 C307 1.211 . S
C309 O301 1.284 . S
C309 O310 1.273 . S
O310 C309 1.273 . S
O311 Zn302 1.977 . S
O311 C304 1.267 . S
C312 O313 1.160 . S
C312 O319 1.185 . S
O313 C312 1.160 . S
O314 Zn315 1.899 . S
O314 C322 1.284 . S
Zn315 O314 1.899 . S
Zn315 O316 2.032 . S
Zn315 O319 2.086 . S
Zn315 O324 1.977 . S
O316 Zn315 2.032 . S
O316 C320 1.278 . S
C317 O318 1.203 . S
C317 O324 1.267 . S
O318 C317 1.203 . S
O319 C312 1.185 . S
O319 Zn315 2.086 . S
C320 O316 1.278 . S
C320 O321 1.211 . S
O321 C320 1.211 . S
C322 O314 1.284 . S
C322 O323 1.273 . S
O323 C322 1.273 . S
O324 Zn315 1.977 . S
O324 C317 1.267 . S
C325 O326 1.160 . S
C325 O332 1.185 . S
O326 C325 1.160 . S
O327 Zn328 1.899 . S
O327 C335 1.284 . S
Zn328 O327 1.899 . S
Zn328 O329 2.032 . S
Zn328 O332 2.086 . S
Zn328 O337 1.977 . S
O329 Zn328 2.032 . S
O329 C333 1.278 . S
C330 O331 1.203 . S
C330 O337 1.267 . S
O331 C330 1.203 . S
O332 C325 1.185 . S
O332 Zn328 2.086 . S
C333 O329 1.278 . S
C333 O334 1.211 . S
O334 C333 1.211 . S
C335 O327 1.284 . S
C335 O336 1.273 . S
O336 C335 1.273 . S
O337 Zn328 1.977 . S
O337 C330 1.267 . S
C338 O339 1.160 . S
C338 O345 1.185 . S
O339 C338 1.160 . S
O340 Zn341 1.899 . S
O340 C348 1.284 . S
Zn341 O340 1.899 . S
Zn341 O342 2.032 . S
Zn341 O345 2.086 . S
Zn341 O350 1.977 . S
O342 Zn341 2.032 . S
O342 C346 1.278 . S
C343 O344 1.203 . S
C343 O350 1.267 . S
O344 C343 1.203 . S
O345 C338 1.185 . S
O345 Zn341 2.086 . S
C346 O342 1.278 . S
C346 O347 1.211 . S
O347 C346 1.211 . S
C348 O340 1.284 . S
C348 O349 1.273 . S
O349 C348 1.273 . S
O350 Zn341 1.977 . S
O350 C343 1.267 . S
C351 O352 1.160 . S
C351 O358 1.185 . S
O352 C351 1.160 . S
O353 Zn354 1.899 . S
O353 C361 1.284 . S
Zn354 O353 1.899 . S
Zn354 O355 2.032 . S
Zn354 O358 2.086 . S
Zn354 O363 1.977 . S
O355 Zn354 2.032 . S
O355 C359 1.278 . S
C356 O357 1.203 . S
C356 O363 1.267 . S
O357 C356 1.203 . S
O358 C351 1.185 . S
O358 Zn354 2.086 . S
C359 O355 1.278 . S
C359 O360 1.211 . S
O360 C359 1.211 . S
C361 O353 1.284 . S
C361 O362 1.273 . S
O362 C361 1.273 . S
O363 Zn354 1.977 . S
O363 C356 1.267 . S
C364 O365 1.160 . S
C364 O371 1.185 . S
O365 C364 1.160 . S
O366 Zn367 1.899 . S
O366 C374 1.284 . S
Zn367 O366 1.899 . S
Zn367 O368 2.032 . S
Zn367 O371 2.086 . S
Zn367 O376 1.977 . S
O368 Zn367 2.032 . S
O368 C372 1.278 . S
C369 O370 1.203 . S
C369 O376 1.267 . S
O370 C369 1.203 . S
O371 C364 1.185 . S
O371 Zn367 2.086 . S
C372 O368 1.278 . S
C372 O373 1.211 . S
O373 C372 1.211 . S
C374 O366 1.284 . S
C374 O375 1.273 . S
O375 C374 1.273 . S
O376 Zn367 1.977 . S
O376 C369 1.267 . S
C377 O378 1.160 . S
C377 O384 1.185 . S
O378 C377 1.160 . S
O379 Zn380 1.899 . S
O379 C387 1.284 . S
Zn380 O379 1.899 . S
Zn380 O381 2.032 . S
Zn380 O384 2.086 . S
Zn380 O389 1.977 . S
O381 Zn380 2.032 . S
O381 C385 1.278 . S
C382 O383 1.203 . S
C382 O389 1.267 . S
O383 C382 1.203 . S
O384 C377 1.185 . S
O384 Zn380 2.086 . S
C385 O381 1.278 . S
C385 O386 1.211 . S
O386 C385 1.211 . S
C387 O379 1.284 . S
C387 O388 1.273 . S
O388 C387 1.273 . S
O389 Zn380 1.977 . S
O389 C382 1.267 . S
C390 O391 1.160 . S
C390 O397 1.185 . S
O391 C390 1.160 . S
O392 Zn393 1.899 . S
O392 C400 1.284 . S
Zn393 O392 1.899 . S
Zn393 O394 2.032 . S
Zn393 O397 2.086 . S
Zn393 O402 1.977 . S
O394 Zn393 2.032 . S
O394 C398 1.278 . S
C395 O396 1.203 . S
C395 O402 1.267 . S
O396 C395 1.203 . S
O397 C390 1.185 . S
O397 Zn393 2.086 . S
C398 O394 1.278 . S
C398 O399 1.211 . S
O399 C398 1.211 . S
C400 O392 1.284 . S
C400 O401 1.273 . S
O401 C400 1.273 . S
O402 Zn393 1.977 . S
O402 C395 1.267 . S
C403 O404 1.160 . S
C403 O410 1.185 . S
O404 C403 1.160 . S
O405 Zn406 1.899 . S
O405 C413 1.284 . S
Zn406 O405 1.899 . S
Zn406 O407 2.032 . S
Zn406 O410 2.086 . S
Zn406 O415 1.977 . S
O407 Zn406 2.032 . S
O407 C411 1.278 . S
C408 O409 1.203 . S
C408 O415 1.267 . S
O409 C408 1.203 . S
O410 C403 1.185 . S
O410 Zn406 2.086 . S
C411 O407 1.278 . S
C411 O412 1.211 . S
O412 C411 1.211 . S
C413 O405 1.284 . S
C413 O414 1.273 . S
O414 C413 1.273 . S
O415 Zn406 1.977 . S
O415 C408 1.267 . S
C416 O417 1.160 . S
C416 O423 1.185 . S
O417 C416 1.160 . S
O418 Zn419 1.899 . S
O418 C426 1.284 . S
Zn419 O418 1.899 . S
Zn419 O420 2.032 . S
Zn419 O423 2.086 . S
Zn419 O428 1.977 . S
O420 Zn419 2.032 . S
O420 C424 1.278 . S
C421 O422 1.203 . S
C421 O428 1.267 . S
O422 C421 1.203 . S
O423 C416 1.185 . S
O423 Zn419 2.086 . S
C424 O420 1.278 . S
C424 O425 1.211 . S
O425 C424 1.211 . S
C426 O418 1.284 . S
C426 O427 1.273 . S
O427 C426 1.273 . S
O428 Zn419 1.977 . S
O428 C421 1.267 . S
C429 O430 1.160 . S
C429 O436 1.185 . S
O430 C429 1.160 . S
O431 Zn432 1.899 . S
O431 C439 1.284 . S
Zn432 O431 1.899 . S
Zn432 O433 2.032 . S
Zn432 O436 2.086 . S
Zn432 O441 1.977 . S
O433 Zn432 2.032 . S
O433 C437 1.278 . S
C434 O435 1.203 . S
C434 O441 1.267 . S
O435 C434 1.203 . S
O436 C429 1.185 . S
O436 Zn432 2.086 . S
C437 O433 1.278 . S
C437 O438 1.211 . S
O438 C437 1.211 . S
C439 O431 1.284 . S
C439 O440 1.273 . S
O440 C439 1.273 . S
O441 Zn432 1.977 . S
O441 C434 1.267 . S
C442 O443 1.160 . S
C442 O449 1.185 . S
O443 C442 1.160 . S
O444 Zn445 1.899 . S
O444 C452 1.284 . S
Zn445 O444 1.899 . S
Zn445 O446 2.032 . S
Zn445 O449 2.086 . S
Zn445 O454 1.977 . S
O446 Zn445 2.032 . S
O446 C450 1.278 . S
C447 O448 1.203 . S
C447 O454 1.267 . S
O448 C447 1.203 . S
O449 C442 1.185 . S
O449 Zn445 2.086 . S
C450 O446 1.278 . S
C450 O451 1.211 . S
O451 C450 1.211 . S
C452 O444 1.284 . S
C452 O453 1.273 . S
O453 C452 1.273 . S
O454 Zn445 1.977 . S
O454 C447 1.267 . S
C455 O456 1.160 . S
C455 O462 1.185 . S
O456 C455 1.160 . S
O457 Zn458 1.899 . S
O457 C465 1.284 . S
Zn458 O457 1.899 . S
Zn458 O459 2.032 . S
Zn458 O462 2.086 . S
Zn458 O467 1.977 . S
O459 Zn458 2.032 . S
O459 C463 1.278 . S
C460 O461 1.203 . S
C460 O467 1.267 . S
O461 C460 1.203 . S
O462 C455 1.185 . S
O462 Zn458 2.086 . S
C463 O459 1.278 . S
C463 O464 1.211 . S
O464 C463 1.211 . S
C465 O457 1.284 . S
C465 O466 1.273 . S
O466 C465 1.273 . S
O467 Zn458 1.977 . S
O467 C460 1.267 . S
C468 O469 1.160 . S
C468 O475 1.185 . S
O469 C468 1.160 . S
O470 Zn471 1.899 . S
O470 C478 1.284 . S
Zn471 O470 1.899 . S
Zn471 O472 2.032 . S
Zn471 O475 2.086 . S
Zn471 O480 1.977 . S
O472 Zn471 2.032 . S
O472 C476 1.278 . S
C473 O474 1.203 . S
C473 O480 1.267 . S
O474 C473 1.203 . S
O475 C468 1.185 . S
O475 Zn471 2.086 . S
C476 O472 1.278 . S
C476 O477 1.211 . S
O477 C476 1.211 . S
C478 O470 1.284 . S
C478 O479 1.273 . S
O479 C478 1.273 . S
O480 Zn471 1.977 . S
O480 C473 1.267 . S
C481 O482 1.160 . S
C481 O488 1.185 . S
O482 C481 1.160 . S
O483 Zn484 1.899 . S
O483 C491 1.284 . S
Zn484 O483 1.899 . S
Zn484 O485 2.032 . S
Zn484 O488 2.086 . S
Zn484 O493 1.977 . S
O485 Zn484 2.032 . S
O485 C489 1.278 . S
C486 O487 1.203 . S
C486 O493 1.267 . S
O487 C486 1.203 . S
O488 C481 1.185 . S
O488 Zn484 2.086 . S
C489 O485 1.278 . S
C489 O490 1.211 . S
O490 C489 1.211 . S
C491 O483 1.284 . S
C491 O492 1.273 . S
O492 C491 1.273 . S
O493 Zn484 1.977 . S
O493 C486 1.267 . S
C494 O495 1.160 . S
C494 O501 1.185 . S
O495 C494 1.160 . S
O496 Zn497 1.899 . S
O496 C504 1.284 . S
Zn497 O496 1.899 . S
Zn497 O498 2.032 . S
Zn497 O501 2.086 . S
Zn497 O506 1.977 . S
O498 Zn497 2.032 . S
O498 C502 1.278 . S
C499 O500 1.203 . S
C499 O506 1.267 . S
O500 C499 1.203 . S
O501 C494 1.185 . S
O501 Zn497 2.086 . S
C502 O498 1.278 . S
C502 O503 1.211 . S
O503 C502 1.211 . S
C504 O496 1.284 . S
C504 O505 1.273 . S
O505 C504 1.273 . S
O506 Zn497 1.977 . S
O506 C499 1.267 . S
C507 O508 1.160 . S
C507 O514 1.185 . S
O508 C507 1.160 . S
O509 Zn510 1.899 . S
O509 C517 1.284 . S
Zn510 O509 1.899 . S
Zn510 O511 2.032 . S
Zn510 O514 2.086 . S
Zn510 O519 1.977 . S
O511 Zn510 2.032 . S
O511 C515 1.278 . S
C512 O513 1.203 . S
C512 O519 1.267 . S
O513 C512 1.203 . S
O514 C507 1.185 . S
O514 Zn510 2.086 . S
C515 O511 1.278 . S
C515 O516 1.211 . S
O516 C515 1.211 . S
C517 O509 1.284 . S
C517 O518 1.273 . S
O518 C517 1.273 . S
O519 Zn510 1.977 . S
O519 C512 1.267 . S
C520 O521 1.160 . S
C520 O527 1.185 . S
O521 C520 1.160 . S
O522 Zn523 1.899 . S
O522 C530 1.284 . S
Zn523 O522 1.899 . S
Zn523 O524 2.032 . S
Zn523 O527 2.086 . S
Zn523 O532 1.977 . S
O524 Zn523 2.032 . S
O524 C528 1.278 . S
C525 O526 1.203 . S
C525 O532 1.267 . S
O526 C525 1.203 . S
O527 C520 1.185 . S
O527 Zn523 2.086 . S
C528 O524 1.278 . S
C528 O529 1.211 . S
O529 C528 1.211 . S
C530 O522 1.284 . S
C530 O531 1.273 . S
O531 C530 1.273 . S
O532 Zn523 1.977 . S
O532 C525 1.267 . S
C533 O534 1.160 . S
C533 O540 1.185 . S
O534 C533 1.160 . S
O535 Zn536 1.899 . S
O535 C543 1.284 . S
Zn536 O535 1.899 . S
Zn536 O537 2.032 . S
Zn536 O540 2.086 . S
Zn536 O545 1.977 . S
O537 Zn536 2.032 . S
O537 C541 1.278 . S
C538 O539 1.203 . S
C538 O545 1.267 . S
O539 C538 1.203 . S
O540 C533 1.185 . S
O540 Zn536 2.086 . S
C541 O537 1.278 . S
C541 O542 1.211 . S
O542 C541 1.211 . S
C543 O535 1.284 . S
C543 O544 1.273 . S
O544 C543 1.273 . S
O545 Zn536 1.977 . S
O545 C538 1.267 . S
C546 O547 1.160 . S
C546 O553 1.185 . S
O547 C546 1.160 . S
O548 Zn549 1.899 . S
O548 C556 1.284 . S
Zn549 O548 1.899 . S
Zn549 O550 2.032 . S
Zn549 O553 2.086 . S
Zn549 O558 1.977 . S
O550 Zn549 2.032 . S
O550 C554 1.278 . S
C551 O552 1.203 . S
C551 O558 1.267 . S
O552 C551 1.203 . S
O553 C546 1.185 . S
O553 Zn549 2.086 . S
C554 O550 1.278 . S
C554 O555 1.211 . S
O555 C554 1.211 . S
C556 O548 1.284 . S
C556 O557 1.273 . S
O557 C556 1.273 . S
O558 Zn549 1.977 . S
O558 C551 1.267 . S
C559 O560 1.160 . S
C559 O566 1.185 . S
O560 C559 1.160 . S
O561 Zn562 1.899 . S
O561 C569 1.284 . S
Zn562 O561 1.899 . S
Zn562 O563 2.032 . S
Zn562 O566 2.086 . S
Zn562 O571 1.977 . S
O563 Zn562 2.032 . S
O563 C567 1.278 . S
C564 O565 1.203 . S
C564 O571 1.267 . S
O565 C564 1.203 . S
O566 C559 1.185 . S
O566 Zn562 2.086 . S
C567 O563 1.278 . S
C567 O568 1.211 . S
O568 C567 1.211 . S
C569 O561 1.284 . S
C569 O570 1.273 . S
O570 C569 1.273 . S
O571 Zn562 1.977 . S
O571 C564 1.267 . S
C572 O573 1.160 . S
C572 O579 1.185 . S
O573 C572 1.160 . S
O574 Zn575 1.899 . S
O574 C582 1.284 . S
Zn575 O574 1.899 . S
Zn575 O576 2.032 . S
Zn575 O579 2.086 . S
Zn575 O584 1.977 . S
O576 Zn575 2.032 . S
O576 C580 1.278 . S
C577 O578 1.203 . S
C577 O584 1.267 . S
O578 C577 1.203 . S
O579 C572 1.185 . S
O579 Zn575 2.086 . S
C580 O576 1.278 . S
C580 O581 1.211 . S
O581 C580 1.211 . S
C582 O574 1.284 . S
C582 O583 1.273 . S
O583 C582 1.273 . S
O584 Zn575 1.977 . S
O584 C577 1.267 . S
C585 O586 1.160 . S
C585 O592 1.185 . S
O586 C585 1.160 . S
O587 Zn588 1.899 . S
O587 C595 1.284 . S
Zn588 O587 1.899 . S
Zn588 O589 2.032 . S
Zn588 O592 2.086 . S
Zn588 O597 1.977 . S
O589 Zn588 2.032 . S
O589 C593 1.278 . S
C590 O591 1.203 . S
C590 O597 1.267 . S
O591 C590 1.203 . S
O592 C585 1.185 . S
O592 Zn588 2.086 . S
C593 O589 1.278 . S
C593 O594 1.211 . S
O594 C593 1.211 . S
C595 O587 1.284 . S
C595 O596 1.273 . S
O596 C595 1.273 . S
O597 Zn588 1.977 . S
O597 C590 1.267 . S
C598 O599 1.160 . S
C598 O605 1.185 . S
O599 C598 1.160 . S
O600 Zn601 1.899 . S
O600 C608 1.284 . S
Zn601 O600 1.899 . S
Zn601 O602 2.032 . S
Zn601 O605 2.086 . S
Zn601 O610 1.977 . S
O602 Zn601 2.032 . S
O602 C606 1.278 . S
C603 O604 1.203 . S
C603 O610 1.267 . S
O604 C603 1.203 . S
O605 C598 1.185 . S
O605 Zn601 2.086 . S
C606 O602 1.278 . S
C606 O607 1.211 . S
O607 C606 1.211 . S
C608 O600 1.284 . S
C608 O609 1.273 . S
O609 C608 1.273 . S
O610 Zn601 1.977 . S
O610 C603 1.267 . S
C611 O612 1.160 . S
C611 O618 1.185 . S
O612 C611 1.160 . S
O613 Zn614 1.899 . S
O613 C621 1.284 . S
Zn614 O613 1.899 . S
Zn614 O615 2.032 . S
Zn614 O618 2.086 . S
Zn614 O623 1.977 . S
O615 Zn614 2.032 . S
O615 C619 1.278 . S
C616 O617 1.203 . S
C616 O623 1.267 . S
O617 C616 1.203 . S
O618 C611 1.185 . S
O618 Zn614 2.086 . S
C619 O615 1.278 . S
C619 O620 1.211 . S
O620 C619 1.211 . S
C621 O613 1.284 . S
C621 O622 1.273 . S
O622 C621 1.273 . S
O623 Zn614 1.977 . S
O623 C616 1.267 . S
C624 C625 1.363 . S
C624 C630 1.379 . S
C624 N632 1.356 . S
C625 C624 1.363 . S
C625 C631 1.363 1_655 S
C626 C627 1.363 . S
C626 C631 1.379 . S
C626 N633 1.356 . S
C627 C626 1.363 . S
C627 C630 1.363 1_455 S
N628 C630 1.356 . S
N628 H640 0.984 . S
N628 H641 0.954 1_655 S
N629 C631 1.356 . S
N629 H634 0.954 1_455 S
N629 H635 0.985 . S
C630 C624 1.379 . S
C630 C627 1.363 1_655 S
C630 N628 1.356 . S
C631 C625 1.363 1_455 S
C631 C626 1.379 . S
C631 N629 1.356 . S
N632 C624 1.356 . S
N632 H638 0.984 . S
N632 H639 0.984 . S
N633 C626 1.356 . S
N633 H636 0.984 . S
N633 H637 0.985 . S
H634 N629 0.954 1_655 S
H635 N629 0.985 . S
H636 N633 0.984 . S
H637 N633 0.985 . S
H638 N632 0.984 . S
H639 N632 0.984 . S
H640 N628 0.984 . S
H641 N628 0.954 1_455 S
C642 C643 1.363 . S
C642 C648 1.379 1_565 S
C642 N650 1.356 . S
C643 C642 1.363 . S
C643 C649 1.363 . S
C644 C645 1.363 . S
C644 C649 1.379 1_545 S
C644 N651 1.356 . S
C645 C644 1.363 . S
C645 C648 1.363 . S
N646 C648 1.356 . S
N646 H658 0.984 . S
N646 H659 0.985 . S
N647 C649 1.356 . S
N647 H652 0.984 . S
N647 H653 0.985 . S
C648 C642 1.379 1_545 S
C648 C645 1.363 . S
C648 N646 1.356 . S
C649 C643 1.363 . S
C649 C644 1.379 1_565 S
C649 N647 1.356 . S
N650 C642 1.356 . S
N650 H656 0.984 . S
N650 H657 0.984 . S
N651 C644 1.356 . S
N651 H654 0.984 . S
N651 H655 0.985 . S
H652 N647 0.984 . S
H653 N647 0.985 . S
H654 N651 0.984 . S
H655 N651 0.985 . S
H656 N650 0.984 . S
H657 N650 0.984 . S
H658 N646 0.984 . S
H659 N646 0.985 . S
C660 C661 1.363 . S
C660 C666 1.379 . S
C660 N668 1.356 . S
C661 C660 1.363 . S
C661 C667 1.363 1_455 S
C662 C663 1.363 . S
C662 C667 1.379 . S
C662 N669 1.356 . S
C663 C662 1.363 . S
C663 C666 1.363 1_655 S
N664 C666 1.356 . S
N664 H676 0.984 . S
N664 H677 0.985 . S
N665 C667 1.356 . S
N665 H670 0.985 . S
N665 H671 0.985 . S
C666 C660 1.379 . S
C666 C663 1.363 1_455 S
C666 N664 1.356 . S
C667 C661 1.363 1_655 S
C667 C662 1.379 . S
C667 N665 1.356 . S
N668 C660 1.356 . S
N668 H674 0.984 . S
N668 H675 0.984 . S
N669 C662 1.356 . S
N669 H672 0.984 . S
N669 H673 0.985 . S
H670 N665 0.985 . S
H671 N665 0.985 . S
H672 N669 0.984 . S
H673 N669 0.985 . S
H674 N668 0.984 . S
H675 N668 0.984 . S
H676 N664 0.984 . S
H677 N664 0.985 . S
C678 C679 1.363 . S
C678 C684 1.379 . S
C678 N686 1.356 . S
C679 C678 1.363 . S
C679 C685 1.363 1_565 S
C680 C681 1.363 . S
C680 C685 1.379 . S
C680 N687 1.356 . S
C681 C680 1.363 . S
C681 C684 1.363 1_545 S
N682 C684 1.356 . S
N682 H694 0.984 . S
N682 H695 0.982 1_565 S
N683 C685 1.356 . S
N683 H688 0.982 1_545 S
N683 H689 0.985 . S
C684 C678 1.379 . S
C684 C681 1.363 1_565 S
C684 N682 1.356 . S
C685 C679 1.363 1_545 S
C685 C680 1.379 . S
C685 N683 1.356 . S
N686 C678 1.356 . S
N686 H692 0.984 . S
N686 H693 0.984 . S
N687 C680 1.356 . S
N687 H690 0.984 . S
N687 H691 0.985 . S
H688 N683 0.982 1_565 S
H689 N683 0.985 . S
H690 N687 0.984 . S
H691 N687 0.985 . S
H692 N686 0.984 . S
H693 N686 0.984 . S
H694 N682 0.984 . S
H695 N682 0.982 1_545 S
C696 C697 1.363 . S
C696 C702 1.379 . S
C696 N704 1.356 . S
C697 C696 1.363 . S
C697 C703 1.363 1_655 S
C698 C699 1.363 . S
C698 C703 1.379 . S
C698 N705 1.356 . S
C699 C698 1.363 . S
C699 C702 1.363 1_455 S
N700 C702 1.356 . S
N700 H712 0.984 . S
N700 H713 0.985 . S
N701 C703 1.356 . S
N701 H706 0.984 . S
N701 H707 0.985 . S
C702 C696 1.379 . S
C702 C699 1.363 1_655 S
C702 N700 1.356 . S
C703 C697 1.363 1_455 S
C703 C698 1.379 . S
C703 N701 1.356 . S
N704 C696 1.356 . S
N704 H710 0.984 . S
N704 H711 0.984 . S
N705 C698 1.356 . S
N705 H708 0.984 . S
N705 H709 0.985 . S
H706 N701 0.984 . S
H707 N701 0.985 . S
H708 N705 0.984 . S
H709 N705 0.985 . S
H710 N704 0.984 . S
H711 N704 0.984 . S
H712 N700 0.984 . S
H713 N700 0.985 . S
C714 C715 1.363 . S
C714 C720 1.379 . S
C714 N722 1.356 . S
C715 C714 1.363 . S
C715 C721 1.363 1_545 S
C716 C717 1.363 . S
C716 C721 1.379 . S
C716 N723 1.356 . S
C717 C716 1.363 . S
C717 C720 1.363 1_565 S
N718 C720 1.356 . S
N718 H730 0.984 . S
N718 H731 0.985 . S
N719 C721 1.356 . S
N719 H724 0.984 . S
N719 H725 0.985 . S
C720 C714 1.379 . S
C720 C717 1.363 1_545 S
C720 N718 1.356 . S
C721 C715 1.363 1_565 S
C721 C716 1.379 . S
C721 N719 1.356 . S
N722 C714 1.356 . S
N722 H728 0.984 . S
N722 H729 0.984 . S
N723 C716 1.356 . S
N723 H726 0.984 . S
N723 H727 0.985 . S
H724 N719 0.984 . S
H725 N719 0.985 . S
H726 N723 0.984 . S
H727 N723 0.985 . S
H728 N722 0.984 . S
H729 N722 0.984 . S
H730 N718 0.984 . S
H731 N718 0.985 . S
C732 C733 1.363 . S
C732 C738 1.379 . S
C732 N740 1.356 . S
C733 C732 1.363 . S
C733 C739 1.363 1_455 S
C734 C735 1.363 . S
C734 C739 1.379 . S
C734 N741 1.356 . S
C735 C734 1.363 . S
C735 C738 1.363 1_655 S
N736 C738 1.356 . S
N736 H748 0.984 . S
N736 H749 0.961 1_455 S
N737 C739 1.356 . S
N737 H742 0.961 1_655 S
N737 H743 0.985 . S
C738 C732 1.379 . S
C738 C735 1.363 1_455 S
C738 N736 1.356 . S
C739 C733 1.363 1_655 S
C739 C734 1.379 . S
C739 N737 1.356 . S
N740 C732 1.356 . S
N740 H746 0.984 . S
N740 H747 0.984 . S
N741 C734 1.356 . S
N741 H744 0.984 . S
N741 H745 0.985 . S
H742 N737 0.961 1_455 S
H743 N737 0.985 . S
H744 N741 0.984 . S
H745 N741 0.985 . S
H746 N740 0.984 . S
H747 N740 0.984 . S
H748 N736 0.984 . S
H749 N736 0.961 1_655 S
C750 C751 1.363 . S
C750 C756 1.379 . S
C750 N758 1.356 . S
C751 C750 1.363 . S
C751 C757 1.363 1_545 S
C752 C753 1.363 . S
C752 C757 1.379 . S
C752 N759 1.356 . S
C753 C752 1.363 . S
C753 C756 1.363 1_565 S
N754 C756 1.356 . S
N754 H766 0.984 . S
N754 H767 0.985 . S
N755 C757 1.356 . S
N755 H760 0.984 . S
N755 H761 0.985 . S
C756 C750 1.379 . S
C756 C753 1.363 1_545 S
C756 N754 1.356 . S
C757 C751 1.363 1_565 S
C757 C752 1.379 . S
C757 N755 1.356 . S
N758 C750 1.356 . S
N758 H764 0.984 . S
N758 H765 0.984 . S
N759 C752 1.356 . S
N759 H762 0.984 . S
N759 H763 0.985 . S
H760 N755 0.984 . S
H761 N755 0.985 . S
H762 N759 0.984 . S
H763 N759 0.985 . S
H764 N758 0.984 . S
H765 N758 0.984 . S
H766 N754 0.984 . S
H767 N754 0.985 . S
C768 C769 1.363 . S
C768 C774 1.379 1_554 S
C768 N776 1.356 . S
C769 C768 1.363 . S
C769 C775 1.363 . S
C770 C771 1.363 . S
C770 C775 1.379 1_556 S
C770 N777 1.356 . S
C771 C770 1.363 . S
C771 C774 1.363 . S
N772 C774 1.356 . S
N772 H784 0.984 . S
N772 H785 0.985 . S
N773 C775 1.356 . S
N773 H778 0.984 . S
N773 H779 0.985 . S
C774 C768 1.379 1_556 S
C774 C771 1.363 . S
C774 N772 1.356 . S
C775 C769 1.363 . S
C775 C770 1.379 1_554 S
C775 N773 1.356 . S
N776 C768 1.356 . S
N776 H782 0.984 . S
N776 H783 0.984 . S
N777 C770 1.356 . S
N777 H780 0.984 . S
N777 H781 0.985 . S
H778 N773 0.984 . S
H779 N773 0.985 . S
H780 N777 0.984 . S
H781 N777 0.985 . S
H782 N776 0.984 . S
H783 N776 0.984 . S
H784 N772 0.984 . S
H785 N772 0.985 . S
C786 C787 1.363 1_554 S
C786 C792 1.379 . S
C786 N794 1.356 . S
C787 C786 1.363 1_556 S
C787 C793 1.363 . S
C788 C789 1.363 1_556 S
C788 C793 1.379 . S
C788 N795 1.356 . S
C789 C788 1.363 1_554 S
C789 C792 1.363 . S
N790 C792 1.356 . S
N790 H802 0.984 . S
N790 H803 0.985 . S
N791 C793 1.356 . S
N791 H796 0.984 . S
N791 H797 0.985 . S
C792 C786 1.379 . S
C792 C789 1.363 . S
C792 N790 1.356 . S
C793 C787 1.363 . S
C793 C788 1.379 . S
C793 N791 1.356 . S
N794 C786 1.356 . S
N794 H800 0.984 . S
N794 H801 1.005 . S
N795 C788 1.356 . S
N795 H798 1.005 . S
N795 H799 0.985 . S
H796 N791 0.984 . S
H797 N791 0.985 . S
H798 N795 1.005 . S
H799 N795 0.985 . S
H800 N794 0.984 . S
H801 N794 1.005 . S
H802 N790 0.984 . S
H803 N790 0.985 . S
C804 C805 1.363 . S
C804 C810 1.379 . S
C804 N812 1.356 . S
C805 C804 1.363 . S
C805 C811 1.363 1_556 S
C806 C807 1.363 . S
C806 C811 1.379 . S
C806 N813 1.356 . S
C807 C806 1.363 . S
C807 C810 1.363 1_554 S
N808 C810 1.356 . S
N808 H820 0.984 . S
N808 H821 0.985 . S
N809 C811 1.356 . S
N809 H814 0.984 . S
N809 H815 0.985 . S
C810 C804 1.379 . S
C810 C807 1.363 1_556 S
C810 N808 1.356 . S
C811 C805 1.363 1_554 S
C811 C806 1.379 . S
C811 N809 1.356 . S
N812 C804 1.356 . S
N812 H818 0.984 . S
N812 H819 0.984 . S
N813 C806 1.356 . S
N813 H816 0.984 . S
N813 H817 0.985 . S
H814 N809 0.984 . S
H815 N809 0.985 . S
H816 N813 0.984 . S
H817 N813 0.985 . S
H818 N812 0.984 . S
H819 N812 0.984 . S
H820 N808 0.984 . S
H821 N808 0.985 . S
C822 C823 1.363 . S
C822 C828 1.379 . S
C822 N830 1.356 . S
C823 C822 1.363 . S
C823 C829 1.363 1_556 S
C824 C825 1.363 . S
C824 C829 1.379 . S
C824 N831 1.356 . S
C825 C824 1.363 . S
C825 C828 1.363 1_554 S
N826 C828 1.356 . S
N826 H838 0.984 . S
N826 H839 0.985 1_556 S
N827 C829 1.356 . S
N827 H832 0.984 1_554 S
N827 H833 0.985 . S
C828 C822 1.379 . S
C828 C825 1.363 1_556 S
C828 N826 1.356 . S
C829 C823 1.363 1_554 S
C829 C824 1.379 . S
C829 N827 1.356 . S
N830 C822 1.356 . S
N830 H836 0.984 . S
N830 H837 0.984 . S
N831 C824 1.356 . S
N831 H834 0.984 . S
N831 H835 0.985 . S
H832 N827 0.984 1_556 S
H833 N827 0.985 . S
H834 N831 0.984 . S
H835 N831 0.985 . S
H836 N830 0.984 . S
H837 N830 0.984 . S
H838 N826 0.984 . S
H839 N826 0.985 1_554 S
C840 C841 1.363 . S
C840 C846 1.379 . S
C840 N848 1.356 . S
C841 C840 1.363 . S
C841 C847 1.363 . S
C842 C843 1.363 . S
C842 C847 1.379 . S
C842 N849 1.356 . S
C843 C842 1.363 . S
C843 C846 1.363 . S
N844 C846 1.356 . S
N844 H856 0.984 . S
N844 H857 0.985 . S
N845 C847 1.356 . S
N845 H850 0.984 . S
N845 H851 0.985 . S
C846 C840 1.379 . S
C846 C843 1.363 . S
C846 N844 1.356 . S
C847 C841 1.363 . S
C847 C842 1.379 . S
C847 N845 1.356 . S
N848 C840 1.356 . S
N848 H854 0.984 . S
N848 H855 0.984 . S
N849 C842 1.356 . S
N849 H852 0.984 . S
N849 H853 0.985 . S
H850 N845 0.984 . S
H851 N845 0.985 . S
H852 N849 0.984 . S
H853 N849 0.985 . S
H854 N848 0.984 . S
H855 N848 0.984 . S
H856 N844 0.984 . S
H857 N844 0.985 . S
C858 C859 1.363 . S
C858 C864 1.379 . S
C858 N866 1.356 . S
C859 C858 1.363 . S
C859 C865 1.363 . S
C860 C861 1.363 . S
C860 C865 1.379 . S
C860 N867 1.356 . S
C861 C860 1.363 . S
C861 C864 1.363 . S
N862 C864 1.356 . S
N862 H874 0.984 . S
N862 H875 0.985 . S
N863 C865 1.356 . S
N863 H868 0.984 . S
N863 H869 0.985 . S
C864 C858 1.379 . S
C864 C861 1.363 . S
C864 N862 1.356 . S
C865 C859 1.363 . S
C865 C860 1.379 . S
C865 N863 1.356 . S
N866 C858 1.356 . S
N866 H872 0.984 . S
N866 H873 0.984 . S
N867 C860 1.356 . S
N867 H870 0.984 . S
N867 H871 0.985 . S
H868 N863 0.984 . S
H869 N863 0.985 . S
H870 N867 0.984 . S
H871 N867 0.985 . S
H872 N866 0.984 . S
H873 N866 0.984 . S
H874 N862 0.984 . S
H875 N862 0.985 . S
C876 C877 1.363 . S
C876 C882 1.379 . S
C876 N884 1.356 . S
C877 C876 1.363 . S
C877 C883 1.363 . S
C878 C879 1.363 . S
C878 C883 1.379 . S
C878 N885 1.356 . S
C879 C878 1.363 . S
C879 C882 1.363 . S
N880 C882 1.356 . S
N880 H892 0.984 . S
N880 H893 0.985 . S
N881 C883 1.356 . S
N881 H886 0.984 . S
N881 H887 0.985 . S
C882 C876 1.379 . S
C882 C879 1.363 . S
C882 N880 1.356 . S
C883 C877 1.363 . S
C883 C878 1.379 . S
C883 N881 1.356 . S
N884 C876 1.356 . S
N884 H890 0.984 . S
N884 H891 0.984 . S
N885 C878 1.356 . S
N885 H888 0.984 . S
N885 H889 0.985 . S
H886 N881 0.984 . S
H887 N881 0.985 . S
H888 N885 0.984 . S
H889 N885 0.985 . S
H890 N884 0.984 . S
H891 N884 0.984 . S
H892 N880 0.984 . S
H893 N880 0.985 . S
C894 C895 1.363 . S
C894 C900 1.379 . S
C894 N902 1.356 . S
C895 C894 1.363 . S
C895 C901 1.363 . S
C896 C897 1.363 . S
C896 C901 1.379 . S
C896 N903 1.356 . S
C897 C896 1.363 . S
C897 C900 1.363 . S
N898 C900 1.356 . S
N898 H910 0.984 . S
N898 H911 0.985 . S
N899 C901 1.356 . S
N899 H904 0.984 . S
N899 H905 0.985 . S
C900 C894 1.379 . S
C900 C897 1.363 . S
C900 N898 1.356 . S
C901 C895 1.363 . S
C901 C896 1.379 . S
C901 N899 1.356 . S
N902 C894 1.356 . S
N902 H908 0.984 . S
N902 H909 0.984 . S
N903 C896 1.356 . S
N903 H906 0.984 . S
N903 H907 0.985 . S
H904 N899 0.984 . S
H905 N899 0.985 . S
H906 N903 0.984 . S
H907 N903 0.985 . S
H908 N902 0.984 . S
H909 N902 0.984 . S
H910 N898 0.984 . S
H911 N898 0.985 . S
C912 C913 1.363 . S
C912 C918 1.379 . S
C912 N920 1.356 . S
C913 C912 1.363 . S
C913 C919 1.363 . S
C914 C915 1.363 . S
C914 C919 1.379 . S
C914 N921 1.356 . S
C915 C914 1.363 . S
C915 C918 1.363 . S
N916 C918 1.356 . S
N916 H928 0.984 . S
N916 H929 0.985 . S
N917 C919 1.356 . S
N917 H922 0.984 . S
N917 H923 0.985 . S
C918 C912 1.379 . S
C918 C915 1.363 . S
C918 N916 1.356 . S
C919 C913 1.363 . S
C919 C914 1.379 . S
C919 N917 1.356 . S
N920 C912 1.356 . S
N920 H926 0.984 . S
N920 H927 0.984 . S
N921 C914 1.356 . S
N921 H924 0.984 . S
N921 H925 0.985 . S
H922 N917 0.984 . S
H923 N917 0.985 . S
H924 N921 0.984 . S
H925 N921 0.985 . S
H926 N920 0.984 . S
H927 N920 0.984 . S
H928 N916 0.984 . S
H929 N916 0.985 . S
C930 C931 1.363 . S
C930 C936 1.379 . S
C930 N938 1.356 . S
C931 C930 1.363 . S
C931 C937 1.363 . S
C932 C933 1.363 . S
C932 C937 1.379 . S
C932 N939 1.356 . S
C933 C932 1.363 . S
C933 C936 1.363 . S
N934 C936 1.356 . S
N934 H946 0.984 . S
N934 H947 0.985 . S
N935 C937 1.356 . S
N935 H940 0.984 . S
N935 H941 0.985 . S
C936 C930 1.379 . S
C936 C933 1.363 . S
C936 N934 1.356 . S
C937 C931 1.363 . S
C937 C932 1.379 . S
C937 N935 1.356 . S
N938 C930 1.356 . S
N938 H944 0.984 . S
N938 H945 0.984 . S
N939 C932 1.356 . S
N939 H942 0.984 . S
N939 H943 0.985 . S
H940 N935 0.984 . S
H941 N935 0.985 . S
H942 N939 0.984 . S
H943 N939 0.985 . S
H944 N938 0.984 . S
H945 N938 0.984 . S
H946 N934 0.984 . S
H947 N934 0.985 . S
C948 C949 1.363 . S
C948 C954 1.379 . S
C948 N956 1.356 . S
C949 C948 1.363 . S
C949 C955 1.363 . S
C950 C951 1.363 . S
C950 C955 1.379 . S
C950 N957 1.356 . S
C951 C950 1.363 . S
C951 C954 1.363 . S
N952 C954 1.356 . S
N952 H964 0.984 . S
N952 H965 0.985 . S
N953 C955 1.356 . S
N953 H958 0.984 . S
N953 H959 0.985 . S
C954 C948 1.379 . S
C954 C951 1.363 . S
C954 N952 1.356 . S
C955 C949 1.363 . S
C955 C950 1.379 . S
C955 N953 1.356 . S
N956 C948 1.356 . S
N956 H962 0.984 . S
N956 H963 0.984 . S
N957 C950 1.356 . S
N957 H960 0.984 . S
N957 H961 0.985 . S
H958 N953 0.984 . S
H959 N953 0.985 . S
H960 N957 0.984 . S
H961 N957 0.985 . S
H962 N956 0.984 . S
H963 N956 0.984 . S
H964 N952 0.984 . S
H965 N952 0.985 . S
C966 C967 1.363 . S
C966 C972 1.379 . S
C966 N974 1.356 . S
C967 C966 1.363 . S
C967 C973 1.363 . S
C968 C969 1.363 . S
C968 C973 1.379 . S
C968 N975 1.356 . S
C969 C968 1.363 . S
C969 C972 1.363 . S
N970 C972 1.356 . S
N970 H982 0.984 . S
N970 H983 0.985 . S
N971 C973 1.356 . S
N971 H976 0.984 . S
N971 H977 0.985 . S
C972 C966 1.379 . S
C972 C969 1.363 . S
C972 N970 1.356 . S
C973 C967 1.363 . S
C973 C968 1.379 . S
C973 N971 1.356 . S
N974 C966 1.356 . S
N974 H980 0.984 . S
N974 H981 0.984 . S
N975 C968 1.356 . S
N975 H978 0.984 . S
N975 H979 0.985 . S
H976 N971 0.984 . S
H977 N971 0.985 . S
H978 N975 0.984 . S
H979 N975 0.985 . S
H980 N974 0.984 . S
H981 N974 0.984 . S
H982 N970 0.984 . S
H983 N970 0.985 . S
C984 C985 1.363 . S
C984 C990 1.379 . S
C984 N992 1.356 . S
C985 C984 1.363 . S
C985 C991 1.363 . S
C986 C987 1.363 . S
C986 C991 1.379 . S
C986 N993 1.356 . S
C987 C986 1.363 . S
C987 C990 1.363 . S
N988 C990 1.356 . S
N988 H1000 0.984 . S
N988 H1001 0.985 . S
N989 C991 1.356 . S
N989 H994 0.984 . S
N989 H995 0.985 . S
C990 C984 1.379 . S
C990 C987 1.363 . S
C990 N988 1.356 . S
C991 C985 1.363 . S
C991 C986 1.379 . S
C991 N989 1.356 . S
N992 C984 1.356 . S
N992 H998 0.984 . S
N992 H999 0.984 . S
N993 C986 1.356 . S
N993 H996 0.984 . S
N993 H997 0.985 . S
H994 N989 0.984 . S
H995 N989 0.985 . S
H996 N993 0.984 . S
H997 N993 0.985 . S
H998 N992 0.984 . S
H999 N992 0.984 . S
H1000 N988 0.984 . S
H1001 N988 0.985 . S
C1002 C1003 1.363 . S
C1002 C1008 1.379 . S
C1002 N1010 1.356 . S
C1003 C1002 1.363 . S
C1003 C1009 1.363 . S
C1004 C1005 1.363 . S
C1004 C1009 1.379 . S
C1004 N1011 1.356 . S
C1005 C1004 1.363 . S
C1005 C1008 1.363 . S
N1006 C1008 1.356 . S
N1006 H1018 0.984 . S
N1006 H1019 0.985 . S
N1007 C1009 1.356 . S
N1007 H1012 0.984 . S
N1007 H1013 0.985 . S
C1008 C1002 1.379 . S
C1008 C1005 1.363 . S
C1008 N1006 1.356 . S
C1009 C1003 1.363 . S
C1009 C1004 1.379 . S
C1009 N1007 1.356 . S
N1010 C1002 1.356 . S
N1010 H1016 0.984 . S
N1010 H1017 0.984 . S
N1011 C1004 1.356 . S
N1011 H1014 0.984 . S
N1011 H1015 0.985 . S
H1012 N1007 0.984 . S
H1013 N1007 0.985 . S
H1014 N1011 0.984 . S
H1015 N1011 0.985 . S
H1016 N1010 0.984 . S
H1017 N1010 0.984 . S
H1018 N1006 0.984 . S
H1019 N1006 0.985 . S
C1020 C1021 1.363 . S
C1020 C1026 1.379 . S
C1020 N1028 1.356 . S
C1021 C1020 1.363 . S
C1021 C1027 1.363 . S
C1022 C1023 1.363 . S
C1022 C1027 1.379 . S
C1022 N1029 1.356 . S
C1023 C1022 1.363 . S
C1023 C1026 1.363 . S
N1024 C1026 1.356 . S
N1024 H1036 0.984 . S
N1024 H1037 0.985 . S
N1025 C1027 1.356 . S
N1025 H1030 0.984 . S
N1025 H1031 0.985 . S
C1026 C1020 1.379 . S
C1026 C1023 1.363 . S
C1026 N1024 1.356 . S
C1027 C1021 1.363 . S
C1027 C1022 1.379 . S
C1027 N1025 1.356 . S
N1028 C1020 1.356 . S
N1028 H1034 0.984 . S
N1028 H1035 0.984 . S
N1029 C1022 1.356 . S
N1029 H1032 0.984 . S
N1029 H1033 0.985 . S
H1030 N1025 0.984 . S
H1031 N1025 0.985 . S
H1032 N1029 0.984 . S
H1033 N1029 0.985 . S
H1034 N1028 0.984 . S
H1035 N1028 0.984 . S
H1036 N1024 0.984 . S
H1037 N1024 0.985 . S
C1038 C1039 1.363 . S
C1038 C1044 1.379 . S
C1038 N1046 1.356 . S
C1039 C1038 1.363 . S
C1039 C1045 1.363 . S
C1040 C1041 1.363 . S
C1040 C1045 1.379 . S
C1040 N1047 1.356 . S
C1041 C1040 1.363 . S
C1041 C1044 1.363 . S
N1042 C1044 1.356 . S
N1042 H1054 0.984 . S
N1042 H1055 0.985 . S
N1043 C1045 1.356 . S
N1043 H1048 0.984 . S
N1043 H1049 0.985 . S
C1044 C1038 1.379 . S
C1044 C1041 1.363 . S
C1044 N1042 1.356 . S
C1045 C1039 1.363 . S
C1045 C1040 1.379 . S
C1045 N1043 1.356 . S
N1046 C1038 1.356 . S
N1046 H1052 0.984 . S
N1046 H1053 0.984 . S
N1047 C1040 1.356 . S
N1047 H1050 0.984 . S
N1047 H1051 0.985 . S
H1048 N1043 0.984 . S
H1049 N1043 0.985 . S
H1050 N1047 0.984 . S
H1051 N1047 0.985 . S
H1052 N1046 0.984 . S
H1053 N1046 0.984 . S
H1054 N1042 0.984 . S
H1055 N1042 0.985 . S
C1056 C1057 1.363 . S
C1056 C1062 1.379 . S
C1056 N1064 1.356 . S
C1057 C1056 1.363 . S
C1057 C1063 1.363 . S
C1058 C1059 1.363 . S
C1058 C1063 1.379 . S
C1058 N1065 1.356 . S
C1059 C1058 1.363 . S
C1059 C1062 1.363 . S
N1060 C1062 1.356 . S
N1060 H1072 0.984 . S
N1060 H1073 0.985 . S
N1061 C1063 1.356 . S
N1061 H1066 0.984 . S
N1061 H1067 0.985 . S
C1062 C1056 1.379 . S
C1062 C1059 1.363 . S
C1062 N1060 1.356 . S
C1063 C1057 1.363 . S
C1063 C1058 1.379 . S
C1063 N1061 1.356 . S
N1064 C1056 1.356 . S
N1064 H1070 0.984 . S
N1064 H1071 0.984 . S
N1065 C1058 1.356 . S
N1065 H1068 0.984 . S
N1065 H1069 0.985 . S
H1066 N1061 0.984 . S
H1067 N1061 0.985 . S
H1068 N1065 0.984 . S
H1069 N1065 0.985 . S
H1070 N1064 0.984 . S
H1071 N1064 0.984 . S
H1072 N1060 0.984 . S
H1073 N1060 0.985 . S
C1074 C1075 1.363 . S
C1074 C1080 1.379 . S
C1074 N1082 1.356 . S
C1075 C1074 1.363 . S
C1075 C1081 1.363 . S
C1076 C1077 1.363 . S
C1076 C1081 1.379 . S
C1076 N1083 1.356 . S
C1077 C1076 1.363 . S
C1077 C1080 1.363 . S
N1078 C1080 1.356 . S
N1078 H1090 0.984 . S
N1078 H1091 0.985 . S
N1079 C1081 1.356 . S
N1079 H1084 0.984 . S
N1079 H1085 0.985 . S
C1080 C1074 1.379 . S
C1080 C1077 1.363 . S
C1080 N1078 1.356 . S
C1081 C1075 1.363 . S
C1081 C1076 1.379 . S
C1081 N1079 1.356 . S
N1082 C1074 1.356 . S
N1082 H1088 0.984 . S
N1082 H1089 0.984 . S
N1083 C1076 1.356 . S
N1083 H1086 0.984 . S
N1083 H1087 0.985 . S
H1084 N1079 0.984 . S
H1085 N1079 0.985 . S
H1086 N1083 0.984 . S
H1087 N1083 0.985 . S
H1088 N1082 0.984 . S
H1089 N1082 0.984 . S
H1090 N1078 0.984 . S
H1091 N1078 0.985 . S
C1092 C1093 1.363 . S
C1092 C1098 1.379 . S
C1092 N1100 1.356 . S
C1093 C1092 1.363 . S
C1093 C1099 1.363 . S
C1094 C1095 1.363 . S
C1094 C1099 1.379 . S
C1094 N1101 1.356 . S
C1095 C1094 1.363 . S
C1095 C1098 1.363 . S
N1096 C1098 1.356 . S
N1096 H1108 0.984 . S
N1096 H1109 0.985 . S
N1097 C1099 1.356 . S
N1097 H1102 0.984 . S
N1097 H1103 0.985 . S
C1098 C1092 1.379 . S
C1098 C1095 1.363 . S
C1098 N1096 1.356 . S
C1099 C1093 1.363 . S
C1099 C1094 1.379 . S
C1099 N1097 1.356 . S
N1100 C1092 1.356 . S
N1100 H1106 0.984 . S
N1100 H1107 0.984 . S
N1101 C1094 1.356 . S
N1101 H1104 0.984 . S
N1101 H1105 0.985 . S
H1102 N1097 0.984 . S
H1103 N1097 0.985 . S
H1104 N1101 0.984 . S
H1105 N1101 0.985 . S
H1106 N1100 0.984 . S
H1107 N1100 0.984 . S
H1108 N1096 0.984 . S
H1109 N1096 0.985 . S
C1110 C1111 1.363 . S
C1110 C1116 1.379 . S
C1110 N1118 1.356 . S
C1111 C1110 1.363 . S
C1111 C1117 1.363 . S
C1112 C1113 1.363 . S
C1112 C1117 1.379 . S
C1112 N1119 1.356 . S
C1113 C1112 1.363 . S
C1113 C1116 1.363 . S
N1114 C1116 1.356 . S
N1114 H1126 0.984 . S
N1114 H1127 0.985 . S
N1115 C1117 1.356 . S
N1115 H1120 0.984 . S
N1115 H1121 0.985 . S
C1116 C1110 1.379 . S
C1116 C1113 1.363 . S
C1116 N1114 1.356 . S
C1117 C1111 1.363 . S
C1117 C1112 1.379 . S
C1117 N1115 1.356 . S
N1118 C1110 1.356 . S
N1118 H1124 0.984 . S
N1118 H1125 0.984 . S
N1119 C1112 1.356 . S
N1119 H1122 0.984 . S
N1119 H1123 0.985 . S
H1120 N1115 0.984 . S
H1121 N1115 0.985 . S
H1122 N1119 0.984 . S
H1123 N1119 0.985 . S
H1124 N1118 0.984 . S
H1125 N1118 0.984 . S
H1126 N1114 0.984 . S
H1127 N1114 0.985 . S
C1128 C1129 1.363 . S
C1128 C1134 1.379 . S
C1128 N1136 1.356 . S
C1129 C1128 1.363 . S
C1129 C1135 1.363 . S
C1130 C1131 1.363 . S
C1130 C1135 1.379 . S
C1130 N1137 1.356 . S
C1131 C1130 1.363 . S
C1131 C1134 1.363 . S
N1132 C1134 1.356 . S
N1132 H1144 0.984 . S
N1132 H1145 0.985 . S
N1133 C1135 1.356 . S
N1133 H1138 0.984 . S
N1133 H1139 0.985 . S
C1134 C1128 1.379 . S
C1134 C1131 1.363 . S
C1134 N1132 1.356 . S
C1135 C1129 1.363 . S
C1135 C1130 1.379 . S
C1135 N1133 1.356 . S
N1136 C1128 1.356 . S
N1136 H1142 0.984 . S
N1136 H1143 0.984 . S
N1137 C1130 1.356 . S
N1137 H1140 0.984 . S
N1137 H1141 0.985 . S
H1138 N1133 0.984 . S
H1139 N1133 0.985 . S
H1140 N1137 0.984 . S
H1141 N1137 0.985 . S
H1142 N1136 0.984 . S
H1143 N1136 0.984 . S
H1144 N1132 0.984 . S
H1145 N1132 0.985 . S
C1146 C1147 1.363 . S
C1146 C1152 1.379 . S
C1146 N1154 1.356 . S
C1147 C1146 1.363 . S
C1147 C1153 1.363 . S
C1148 C1149 1.363 . S
C1148 C1153 1.379 . S
C1148 N1155 1.356 . S
C1149 C1148 1.363 . S
C1149 C1152 1.363 . S
N1150 C1152 1.356 . S
N1150 H1162 0.984 . S
N1150 H1163 0.985 . S
N1151 C1153 1.356 . S
N1151 H1156 0.984 . S
N1151 H1157 0.985 . S
C1152 C1146 1.379 . S
C1152 C1149 1.363 . S
C1152 N1150 1.356 . S
C1153 C1147 1.363 . S
C1153 C1148 1.379 . S
C1153 N1151 1.356 . S
N1154 C1146 1.356 . S
N1154 H1160 0.984 . S
N1154 H1161 0.984 . S
N1155 C1148 1.356 . S
N1155 H1158 0.984 . S
N1155 H1159 0.985 . S
H1156 N1151 0.984 . S
H1157 N1151 0.985 . S
H1158 N1155 0.984 . S
H1159 N1155 0.985 . S
H1160 N1154 0.984 . S
H1161 N1154 0.984 . S
H1162 N1150 0.984 . S
H1163 N1150 0.985 . S
C1164 C1165 1.363 . S
C1164 C1170 1.379 . S
C1164 N1172 1.356 . S
C1165 C1164 1.363 . S
C1165 C1171 1.363 . S
C1166 C1167 1.363 . S
C1166 C1171 1.379 . S
C1166 N1173 1.356 . S
C1167 C1166 1.363 . S
C1167 C1170 1.363 . S
N1168 C1170 1.356 . S
N1168 H1180 0.984 . S
N1168 H1181 0.985 . S
N1169 C1171 1.356 . S
N1169 H1174 0.984 . S
N1169 H1175 0.985 . S
C1170 C1164 1.379 . S
C1170 C1167 1.363 . S
C1170 N1168 1.356 . S
C1171 C1165 1.363 . S
C1171 C1166 1.379 . S
C1171 N1169 1.356 . S
N1172 C1164 1.356 . S
N1172 H1178 0.984 . S
N1172 H1179 0.984 . S
N1173 C1166 1.356 . S
N1173 H1176 0.984 . S
N1173 H1177 0.985 . S
H1174 N1169 0.984 . S
H1175 N1169 0.985 . S
H1176 N1173 0.984 . S
H1177 N1173 0.985 . S
H1178 N1172 0.984 . S
H1179 N1172 0.984 . S
H1180 N1168 0.984 . S
H1181 N1168 0.985 . S
C1182 C1183 1.363 . S
C1182 C1188 1.379 . S
C1182 N1190 1.356 . S
C1183 C1182 1.363 . S
C1183 C1189 1.363 . S
C1184 C1185 1.363 . S
C1184 C1189 1.379 . S
C1184 N1191 1.356 . S
C1185 C1184 1.363 . S
C1185 C1188 1.363 . S
N1186 C1188 1.356 . S
N1186 H1198 0.984 . S
N1186 H1199 0.985 . S
N1187 C1189 1.356 . S
N1187 H1192 0.984 . S
N1187 H1193 0.985 . S
C1188 C1182 1.379 . S
C1188 C1185 1.363 . S
C1188 N1186 1.356 . S
C1189 C1183 1.363 . S
C1189 C1184 1.379 . S
C1189 N1187 1.356 . S
N1190 C1182 1.356 . S
N1190 H1196 0.984 . S
N1190 H1197 0.984 . S
N1191 C1184 1.356 . S
N1191 H1194 0.984 . S
N1191 H1195 0.985 . S
H1192 N1187 0.984 . S
H1193 N1187 0.985 . S
H1194 N1191 0.984 . S
H1195 N1191 0.985 . S
H1196 N1190 0.984 . S
H1197 N1190 0.984 . S
H1198 N1186 0.984 . S
H1199 N1186 0.985 . S
C1200 C1201 1.363 . S
C1200 C1206 1.379 . S
C1200 N1208 1.356 . S
C1201 C1200 1.363 . S
C1201 C1207 1.363 . S
C1202 C1203 1.363 . S
C1202 C1207 1.379 . S
C1202 N1209 1.356 . S
C1203 C1202 1.363 . S
C1203 C1206 1.363 . S
N1204 C1206 1.356 . S
N1204 H1216 0.984 . S
N1204 H1217 0.985 . S
N1205 C1207 1.356 . S
N1205 H1210 0.984 . S
N1205 H1211 0.985 . S
C1206 C1200 1.379 . S
C1206 C1203 1.363 . S
C1206 N1204 1.356 . S
C1207 C1201 1.363 . S
C1207 C1202 1.379 . S
C1207 N1205 1.356 . S
N1208 C1200 1.356 . S
N1208 H1214 0.984 . S
N1208 H1215 0.984 . S
N1209 C1202 1.356 . S
N1209 H1212 0.984 . S
N1209 H1213 0.985 . S
H1210 N1205 0.984 . S
H1211 N1205 0.985 . S
H1212 N1209 0.984 . S
H1213 N1209 0.985 . S
H1214 N1208 0.984 . S
H1215 N1208 0.984 . S
H1216 N1204 0.984 . S
H1217 N1204 0.985 . S
C1218 C1219 1.363 . S
C1218 C1224 1.379 . S
C1218 N1226 1.356 . S
C1219 C1218 1.363 . S
C1219 C1225 1.363 . S
C1220 C1221 1.363 . S
C1220 C1225 1.379 . S
C1220 N1227 1.356 . S
C1221 C1220 1.363 . S
C1221 C1224 1.363 . S
N1222 C1224 1.356 . S
N1222 H1234 0.984 . S
N1222 H1235 0.985 . S
N1223 C1225 1.356 . S
N1223 H1228 0.984 . S
N1223 H1229 0.985 . S
C1224 C1218 1.379 . S
C1224 C1221 1.363 . S
C1224 N1222 1.356 . S
C1225 C1219 1.363 . S
C1225 C1220 1.379 . S
C1225 N1223 1.356 . S
N1226 C1218 1.356 . S
N1226 H1232 0.984 . S
N1226 H1233 0.984 . S
N1227 C1220 1.356 . S
N1227 H1230 0.984 . S
N1227 H1231 0.985 . S
H1228 N1223 0.984 . S
H1229 N1223 0.985 . S
H1230 N1227 0.984 . S
H1231 N1227 0.985 . S
H1232 N1226 0.984 . S
H1233 N1226 0.984 . S
H1234 N1222 0.984 . S
H1235 N1222 0.985 . S
C1236 C1237 1.363 . S
C1236 C1242 1.379 . S
C1236 N1244 1.356 . S
C1237 C1236 1.363 . S
C1237 C1243 1.363 . S
C1238 C1239 1.363 . S
C1238 C1243 1.379 . S
C1238 N1245 1.356 . S
C1239 C1238 1.363 . S
C1239 C1242 1.363 . S
N1240 C1242 1.356 . S
N1240 H1252 0.984 . S
N1240 H1253 0.985 . S
N1241 C1243 1.356 . S
N1241 H1246 0.984 . S
N1241 H1247 0.985 . S
C1242 C1236 1.379 . S
C1242 C1239 1.363 . S
C1242 N1240 1.356 . S
C1243 C1237 1.363 . S
C1243 C1238 1.379 . S
C1243 N1241 1.356 . S
N1244 C1236 1.356 . S
N1244 H1250 0.984 . S
N1244 H1251 0.984 . S
N1245 C1238 1.356 . S
N1245 H1248 0.984 . S
N1245 H1249 0.985 . S
H1246 N1241 0.984 . S
H1247 N1241 0.985 . S
H1248 N1245 0.984 . S
H1249 N1245 0.985 . S
H1250 N1244 0.984 . S
H1251 N1244 0.984 . S
H1252 N1240 0.984 . S
H1253 N1240 0.985 . S
C1254 C1255 1.363 . S
C1254 C1260 1.379 . S
C1254 N1262 1.356 . S
C1255 C1254 1.363 . S
C1255 C1261 1.363 . S
C1256 C1257 1.363 . S
C1256 C1261 1.379 . S
C1256 N1263 1.356 . S
C1257 C1256 1.363 . S
C1257 C1260 1.363 . S
N1258 C1260 1.356 . S
N1258 H1270 0.984 . S
N1258 H1271 0.985 . S
N1259 C1261 1.356 . S
N1259 H1264 0.984 . S
N1259 H1265 0.985 . S
C1260 C1254 1.379 . S
C1260 C1257 1.363 . S
C1260 N1258 1.356 . S
C1261 C1255 1.363 . S
C1261 C1256 1.379 . S
C1261 N1259 1.356 . S
N1262 C1254 1.356 . S
N1262 H1268 0.984 . S
N1262 H1269 0.984 . S
N1263 C1256 1.356 . S
N1263 H1266 0.984 . S
N1263 H1267 0.985 . S
H1264 N1259 0.984 . S
H1265 N1259 0.985 . S
H1266 N1263 0.984 . S
H1267 N1263 0.985 . S
H1268 N1262 0.984 . S
H1269 N1262 0.984 . S
H1270 N1258 0.984 . S
H1271 N1258 0.985 . S
C1272 C1273 1.363 . S
C1272 C1278 1.379 . S
C1272 N1280 1.356 . S
C1273 C1272 1.363 . S
C1273 C1279 1.363 . S
C1274 C1275 1.363 . S
C1274 C1279 1.379 . S
C1274 N1281 1.356 . S
C1275 C1274 1.363 . S
C1275 C1278 1.363 . S
N1276 C1278 1.356 . S
N1276 H1288 0.984 . S
N1276 H1289 0.985 . S
N1277 C1279 1.356 . S
N1277 H1282 0.984 . S
N1277 H1283 0.985 . S
C1278 C1272 1.379 . S
C1278 C1275 1.363 . S
C1278 N1276 1.356 . S
C1279 C1273 1.363 . S
C1279 C1274 1.379 . S
C1279 N1277 1.356 . S
N1280 C1272 1.356 . S
N1280 H1286 0.984 . S
N1280 H1287 0.984 . S
N1281 C1274 1.356 . S
N1281 H1284 0.984 . S
N1281 H1285 0.985 . S
H1282 N1277 0.984 . S
H1283 N1277 0.985 . S
H1284 N1281 0.984 . S
H1285 N1281 0.985 . S
H1286 N1280 0.984 . S
H1287 N1280 0.984 . S
H1288 N1276 0.984 . S
H1289 N1276 0.985 . S
C1290 C1291 1.363 . S
C1290 C1296 1.379 . S
C1290 N1298 1.356 . S
C1291 C1290 1.363 . S
C1291 C1297 1.363 . S
C1292 C1293 1.363 . S
C1292 C1297 1.379 . S
C1292 N1299 1.356 . S
C1293 C1292 1.363 . S
C1293 C1296 1.363 . S
N1294 C1296 1.356 . S
N1294 H1306 0.984 . S
N1294 H1307 0.985 . S
N1295 C1297 1.356 . S
N1295 H1300 0.984 . S
N1295 H1301 0.985 . S
C1296 C1290 1.379 . S
C1296 C1293 1.363 . S
C1296 N1294 1.356 . S
C1297 C1291 1.363 . S
C1297 C1292 1.379 . S
C1297 N1295 1.356 . S
N1298 C1290 1.356 . S
N1298 H1304 0.984 . S
N1298 H1305 0.984 . S
N1299 C1292 1.356 . S
N1299 H1302 0.984 . S
N1299 H1303 0.985 . S
H1300 N1295 0.984 . S
H1301 N1295 0.985 . S
H1302 N1299 0.984 . S
H1303 N1299 0.985 . S
H1304 N1298 0.984 . S
H1305 N1298 0.984 . S
H1306 N1294 0.984 . S
H1307 N1294 0.985 . S
C1308 C1309 1.363 . S
C1308 C1314 1.379 . S
C1308 N1316 1.356 . S
C1309 C1308 1.363 . S
C1309 C1315 1.363 . S
C1310 C1311 1.363 . S
C1310 C1315 1.379 . S
C1310 N1317 1.356 . S
C1311 C1310 1.363 . S
C1311 C1314 1.363 . S
N1312 C1314 1.356 . S
N1312 H1324 0.984 . S
N1312 H1325 0.985 . S
N1313 C1315 1.356 . S
N1313 H1318 0.984 . S
N1313 H1319 0.985 . S
C1314 C1308 1.379 . S
C1314 C1311 1.363 . S
C1314 N1312 1.356 . S
C1315 C1309 1.363 . S
C1315 C1310 1.379 . S
C1315 N1313 1.356 . S
N1316 C1308 1.356 . S
N1316 H1322 0.984 . S
N1316 H1323 0.984 . S
N1317 C1310 1.356 . S
N1317 H1320 0.984 . S
N1317 H1321 0.985 . S
H1318 N1313 0.984 . S
H1319 N1313 0.985 . S
H1320 N1317 0.984 . S
H1321 N1317 0.985 . S
H1322 N1316 0.984 . S
H1323 N1316 0.984 . S
H1324 N1312 0.984 . S
H1325 N1312 0.985 . S
C1326 C1327 1.363 . S
C1326 C1332 1.379 . S
C1326 N1334 1.356 . S
C1327 C1326 1.363 . S
C1327 C1333 1.363 . S
C1328 C1329 1.363 . S
C1328 C1333 1.379 . S
C1328 N1335 1.356 . S
C1329 C1328 1.363 . S
C1329 C1332 1.363 . S
N1330 C1332 1.356 . S
N1330 H1342 0.984 . S
N1330 H1343 0.985 . S
N1331 C1333 1.356 . S
N1331 H1336 0.984 . S
N1331 H1337 0.985 . S
C1332 C1326 1.379 . S
C1332 C1329 1.363 . S
C1332 N1330 1.356 . S
C1333 C1327 1.363 . S
C1333 C1328 1.379 . S
C1333 N1331 1.356 . S
N1334 C1326 1.356 . S
N1334 H1340 0.984 . S
N1334 H1341 0.984 . S
N1335 C1328 1.356 . S
N1335 H1338 0.984 . S
N1335 H1339 0.985 . S
H1336 N1331 0.984 . S
H1337 N1331 0.985 . S
H1338 N1335 0.984 . S
H1339 N1335 0.985 . S
H1340 N1334 0.984 . S
H1341 N1334 0.984 . S
H1342 N1330 0.984 . S
H1343 N1330 0.985 . S
C1344 C1345 1.363 . S
C1344 C1350 1.379 . S
C1344 N1352 1.356 . S
C1345 C1344 1.363 . S
C1345 C1351 1.363 . S
C1346 C1347 1.363 . S
C1346 C1351 1.379 . S
C1346 N1353 1.356 . S
C1347 C1346 1.363 . S
C1347 C1350 1.363 . S
N1348 C1350 1.356 . S
N1348 H1360 0.984 . S
N1348 H1361 0.985 . S
N1349 C1351 1.356 . S
N1349 H1354 0.984 . S
N1349 H1355 0.985 . S
C1350 C1344 1.379 . S
C1350 C1347 1.363 . S
C1350 N1348 1.356 . S
C1351 C1345 1.363 . S
C1351 C1346 1.379 . S
C1351 N1349 1.356 . S
N1352 C1344 1.356 . S
N1352 H1358 0.984 . S
N1352 H1359 0.984 . S
N1353 C1346 1.356 . S
N1353 H1356 0.984 . S
N1353 H1357 0.985 . S
H1354 N1349 0.984 . S
H1355 N1349 0.985 . S
H1356 N1353 0.984 . S
H1357 N1353 0.985 . S
H1358 N1352 0.984 . S
H1359 N1352 0.984 . S
H1360 N1348 0.984 . S
H1361 N1348 0.985 . S
C1362 C1363 1.363 . S
C1362 C1368 1.379 . S
C1362 N1370 1.356 . S
C1363 C1362 1.363 . S
C1363 C1369 1.363 . S
C1364 C1365 1.363 . S
C1364 C1369 1.379 . S
C1364 N1371 1.356 . S
C1365 C1364 1.363 . S
C1365 C1368 1.363 . S
N1366 C1368 1.356 . S
N1366 H1378 0.984 . S
N1366 H1379 0.985 . S
N1367 C1369 1.356 . S
N1367 H1372 0.984 . S
N1367 H1373 0.985 . S
C1368 C1362 1.379 . S
C1368 C1365 1.363 . S
C1368 N1366 1.356 . S
C1369 C1363 1.363 . S
C1369 C1364 1.379 . S
C1369 N1367 1.356 . S
N1370 C1362 1.356 . S
N1370 H1376 0.984 . S
N1370 H1377 0.984 . S
N1371 C1364 1.356 . S
N1371 H1374 0.984 . S
N1371 H1375 0.985 . S
H1372 N1367 0.984 . S
H1373 N1367 0.985 . S
H1374 N1371 0.984 . S
H1375 N1371 0.985 . S
H1376 N1370 0.984 . S
H1377 N1370 0.984 . S
H1378 N1366 0.984 . S
H1379 N1366 0.985 . S
C1380 C1381 1.363 . S
C1380 C1386 1.379 . S
C1380 N1388 1.356 . S
C1381 C1380 1.363 . S
C1381 C1387 1.363 . S
C1382 C1383 1.363 . S
C1382 C1387 1.379 . S
C1382 N1389 1.356 . S
C1383 C1382 1.363 . S
C1383 C1386 1.363 . S
N1384 C1386 1.356 . S
N1384 H1396 0.984 . S
N1384 H1397 0.985 . S
N1385 C1387 1.356 . S
N1385 H1390 0.984 . S
N1385 H1391 0.985 . S
C1386 C1380 1.379 . S
C1386 C1383 1.363 . S
C1386 N1384 1.356 . S
C1387 C1381 1.363 . S
C1387 C1382 1.379 . S
C1387 N1385 1.356 . S
N1388 C1380 1.356 . S
N1388 H1394 0.984 . S
N1388 H1395 0.984 . S
N1389 C1382 1.356 . S
N1389 H1392 0.984 . S
N1389 H1393 0.985 . S
H1390 N1385 0.984 . S
H1391 N1385 0.985 . S
H1392 N1389 0.984 . S
H1393 N1389 0.985 . S
H1394 N1388 0.984 . S
H1395 N1388 0.984 . S
H1396 N1384 0.984 . S
H1397 N1384 0.985 . S
C1398 C1399 1.363 . S
C1398 C1404 1.379 . S
C1398 N1406 1.356 . S
C1399 C1398 1.363 . S
C1399 C1405 1.363 . S
C1400 C1401 1.363 . S
C1400 C1405 1.379 . S
C1400 N1407 1.356 . S
C1401 C1400 1.363 . S
C1401 C1404 1.363 . S
N1402 C1404 1.356 . S
N1402 H1414 0.984 . S
N1402 H1415 0.985 . S
N1403 C1405 1.356 . S
N1403 H1408 0.984 . S
N1403 H1409 0.985 . S
C1404 C1398 1.379 . S
C1404 C1401 1.363 . S
C1404 N1402 1.356 . S
C1405 C1399 1.363 . S
C1405 C1400 1.379 . S
C1405 N1403 1.356 . S
N1406 C1398 1.356 . S
N1406 H1412 0.984 . S
N1406 H1413 0.984 . S
N1407 C1400 1.356 . S
N1407 H1410 0.984 . S
N1407 H1411 0.985 . S
H1408 N1403 0.984 . S
H1409 N1403 0.985 . S
H1410 N1407 0.984 . S
H1411 N1407 0.985 . S
H1412 N1406 0.984 . S
H1413 N1406 0.984 . S
H1414 N1402 0.984 . S
H1415 N1402 0.985 . S
C1416 C1417 1.363 . S
C1416 C1422 1.379 . S
C1416 N1424 1.356 . S
C1417 C1416 1.363 . S
C1417 C1423 1.363 . S
C1418 C1419 1.363 . S
C1418 C1423 1.379 . S
C1418 N1425 1.356 . S
C1419 C1418 1.363 . S
C1419 C1422 1.363 . S
N1420 C1422 1.356 . S
N1420 H1432 0.984 . S
N1420 H1433 0.985 . S
N1421 C1423 1.356 . S
N1421 H1426 0.984 . S
N1421 H1427 0.985 . S
C1422 C1416 1.379 . S
C1422 C1419 1.363 . S
C1422 N1420 1.356 . S
C1423 C1417 1.363 . S
C1423 C1418 1.379 . S
C1423 N1421 1.356 . S
N1424 C1416 1.356 . S
N1424 H1430 0.984 . S
N1424 H1431 0.984 . S
N1425 C1418 1.356 . S
N1425 H1428 0.984 . S
N1425 H1429 0.985 . S
H1426 N1421 0.984 . S
H1427 N1421 0.985 . S
H1428 N1425 0.984 . S
H1429 N1425 0.985 . S
H1430 N1424 0.984 . S
H1431 N1424 0.984 . S
H1432 N1420 0.984 . S
H1433 N1420 0.985 . S
C1434 C1435 1.363 . S
C1434 C1440 1.379 . S
C1434 N1442 1.356 . S
C1435 C1434 1.363 . S
C1435 C1441 1.363 . S
C1436 C1437 1.363 . S
C1436 C1441 1.379 . S
C1436 N1443 1.356 . S
C1437 C1436 1.363 . S
C1437 C1440 1.363 . S
N1438 C1440 1.356 . S
N1438 H1450 0.984 . S
N1438 H1451 0.985 . S
N1439 C1441 1.356 . S
N1439 H1444 0.984 . S
N1439 H1445 0.985 . S
C1440 C1434 1.379 . S
C1440 C1437 1.363 . S
C1440 N1438 1.356 . S
C1441 C1435 1.363 . S
C1441 C1436 1.379 . S
C1441 N1439 1.356 . S
N1442 C1434 1.356 . S
N1442 H1448 0.984 . S
N1442 H1449 0.984 . S
N1443 C1436 1.356 . S
N1443 H1446 0.984 . S
N1443 H1447 0.985 . S
H1444 N1439 0.984 . S
H1445 N1439 0.985 . S
H1446 N1443 0.984 . S
H1447 N1443 0.985 . S
H1448 N1442 0.984 . S
H1449 N1442 0.984 . S
H1450 N1438 0.984 . S
H1451 N1438 0.985 . S
C1452 C1453 1.363 . S
C1452 C1458 1.379 . S
C1452 N1460 1.356 . S
C1453 C1452 1.363 . S
C1453 C1459 1.363 . S
C1454 C1455 1.363 . S
C1454 C1459 1.379 . S
C1454 N1461 1.356 . S
C1455 C1454 1.363 . S
C1455 C1458 1.363 . S
N1456 C1458 1.356 . S
N1456 H1468 0.984 . S
N1456 H1469 0.985 . S
N1457 C1459 1.356 . S
N1457 H1462 0.984 . S
N1457 H1463 0.985 . S
C1458 C1452 1.379 . S
C1458 C1455 1.363 . S
C1458 N1456 1.356 . S
C1459 C1453 1.363 . S
C1459 C1454 1.379 . S
C1459 N1457 1.356 . S
N1460 C1452 1.356 . S
N1460 H1466 0.984 . S
N1460 H1467 0.984 . S
N1461 C1454 1.356 . S
N1461 H1464 0.984 . S
N1461 H1465 0.985 . S
H1462 N1457 0.984 . S
H1463 N1457 0.985 . S
H1464 N1461 0.984 . S
H1465 N1461 0.985 . S
H1466 N1460 0.984 . S
H1467 N1460 0.984 . S
H1468 N1456 0.984 . S
H1469 N1456 0.985 . S
C1470 C1471 1.363 . S
C1470 C1476 1.379 . S
C1470 N1478 1.356 . S
C1471 C1470 1.363 . S
C1471 C1477 1.363 . S
C1472 C1473 1.363 . S
C1472 C1477 1.379 . S
C1472 N1479 1.356 . S
C1473 C1472 1.363 . S
C1473 C1476 1.363 . S
N1474 C1476 1.356 . S
N1474 H1486 0.984 . S
N1474 H1487 0.985 . S
N1475 C1477 1.356 . S
N1475 H1480 0.984 . S
N1475 H1481 0.985 . S
C1476 C1470 1.379 . S
C1476 C1473 1.363 . S
C1476 N1474 1.356 . S
C1477 C1471 1.363 . S
C1477 C1472 1.379 . S
C1477 N1475 1.356 . S
N1478 C1470 1.356 . S
N1478 H1484 0.984 . S
N1478 H1485 0.984 . S
N1479 C1472 1.356 . S
N1479 H1482 0.984 . S
N1479 H1483 0.985 . S
H1480 N1475 0.984 . S
H1481 N1475 0.985 . S
H1482 N1479 0.984 . S
H1483 N1479 0.985 . S
H1484 N1478 0.984 . S
H1485 N1478 0.984 . S
H1486 N1474 0.984 . S
H1487 N1474 0.985 . S
C1488 C1489 1.363 . S
C1488 C1494 1.379 . S
C1488 N1496 1.356 . S
C1489 C1488 1.363 . S
C1489 C1495 1.363 . S
C1490 C1491 1.363 . S
C1490 C1495 1.379 . S
C1490 N1497 1.356 . S
C1491 C1490 1.363 . S
C1491 C1494 1.363 . S
N1492 C1494 1.356 . S
N1492 H1504 0.984 . S
N1492 H1505 0.985 . S
N1493 C1495 1.356 . S
N1493 H1498 0.984 . S
N1493 H1499 0.985 . S
C1494 C1488 1.379 . S
C1494 C1491 1.363 . S
C1494 N1492 1.356 . S
C1495 C1489 1.363 . S
C1495 C1490 1.379 . S
C1495 N1493 1.356 . S
N1496 C1488 1.356 . S
N1496 H1502 0.984 . S
N1496 H1503 0.984 . S
N1497 C1490 1.356 . S
N1497 H1500 0.984 . S
N1497 H1501 0.985 . S
H1498 N1493 0.984 . S
H1499 N1493 0.985 . S
H1500 N1497 0.984 . S
H1501 N1497 0.985 . S
H1502 N1496 0.984 . S
H1503 N1496 0.984 . S
H1504 N1492 0.984 . S
H1505 N1492 0.985 . S
C1506 C1507 1.363 . S
C1506 C1512 1.379 . S
C1506 N1514 1.356 . S
C1507 C1506 1.363 . S
C1507 C1513 1.363 . S
C1508 C1509 1.363 . S
C1508 C1513 1.379 . S
C1508 N1515 1.356 . S
C1509 C1508 1.363 . S
C1509 C1512 1.363 . S
N1510 C1512 1.356 . S
N1510 H1522 0.984 . S
N1510 H1523 0.985 . S
N1511 C1513 1.356 . S
N1511 H1516 0.984 . S
N1511 H1517 0.985 . S
C1512 C1506 1.379 . S
C1512 C1509 1.363 . S
C1512 N1510 1.356 . S
C1513 C1507 1.363 . S
C1513 C1508 1.379 . S
C1513 N1511 1.356 . S
N1514 C1506 1.356 . S
N1514 H1520 0.984 . S
N1514 H1521 0.984 . S
N1515 C1508 1.356 . S
N1515 H1518 0.984 . S
N1515 H1519 0.985 . S
H1516 N1511 0.984 . S
H1517 N1511 0.985 . S
H1518 N1515 0.984 . S
H1519 N1515 0.985 . S
H1520 N1514 0.984 . S
H1521 N1514 0.984 . S
H1522 N1510 0.984 . S
H1523 N1510 0.985 . S
C1524 C1525 1.363 . S
C1524 C1530 1.379 . S
C1524 N1532 1.356 . S
C1525 C1524 1.363 . S
C1525 C1531 1.363 . S
C1526 C1527 1.363 . S
C1526 C1531 1.379 . S
C1526 N1533 1.356 . S
C1527 C1526 1.363 . S
C1527 C1530 1.363 . S
N1528 C1530 1.356 . S
N1528 H1540 0.984 . S
N1528 H1541 0.985 . S
N1529 C1531 1.356 . S
N1529 H1534 0.984 . S
N1529 H1535 0.985 . S
C1530 C1524 1.379 . S
C1530 C1527 1.363 . S
C1530 N1528 1.356 . S
C1531 C1525 1.363 . S
C1531 C1526 1.379 . S
C1531 N1529 1.356 . S
N1532 C1524 1.356 . S
N1532 H1538 0.984 . S
N1532 H1539 0.984 . S
N1533 C1526 1.356 . S
N1533 H1536 0.984 . S
N1533 H1537 0.985 . S
H1534 N1529 0.984 . S
H1535 N1529 0.985 . S
H1536 N1533 0.984 . S
H1537 N1533 0.985 . S
H1538 N1532 0.984 . S
H1539 N1532 0.984 . S
H1540 N1528 0.984 . S
H1541 N1528 0.985 . S
C1542 C1543 1.363 . S
C1542 C1548 1.379 . S
C1542 N1550 1.356 . S
C1543 C1542 1.363 . S
C1543 C1549 1.363 . S
C1544 C1545 1.363 . S
C1544 C1549 1.379 . S
C1544 N1551 1.356 . S
C1545 C1544 1.363 . S
C1545 C1548 1.363 . S
N1546 C1548 1.356 . S
N1546 H1558 0.984 . S
N1546 H1559 0.985 . S
N1547 C1549 1.356 . S
N1547 H1552 0.984 . S
N1547 H1553 0.985 . S
C1548 C1542 1.379 . S
C1548 C1545 1.363 . S
C1548 N1546 1.356 . S
C1549 C1543 1.363 . S
C1549 C1544 1.379 . S
C1549 N1547 1.356 . S
N1550 C1542 1.356 . S
N1550 H1556 0.984 . S
N1550 H1557 0.984 . S
N1551 C1544 1.356 . S
N1551 H1554 0.984 . S
N1551 H1555 0.985 . S
H1552 N1547 0.984 . S
H1553 N1547 0.985 . S
H1554 N1551 0.984 . S
H1555 N1551 0.985 . S
H1556 N1550 0.984 . S
H1557 N1550 0.984 . S
H1558 N1546 0.984 . S
H1559 N1546 0.985 . S
C1560 C1561 1.363 . S
C1560 C1566 1.379 . S
C1560 N1568 1.356 . S
C1561 C1560 1.363 . S
C1561 C1567 1.363 . S
C1562 C1563 1.363 . S
C1562 C1567 1.379 . S
C1562 N1569 1.356 . S
C1563 C1562 1.363 . S
C1563 C1566 1.363 . S
N1564 C1566 1.356 . S
N1564 H1576 0.984 . S
N1564 H1577 0.985 . S
N1565 C1567 1.356 . S
N1565 H1570 0.984 . S
N1565 H1571 0.985 . S
C1566 C1560 1.379 . S
C1566 C1563 1.363 . S
C1566 N1564 1.356 . S
C1567 C1561 1.363 . S
C1567 C1562 1.379 . S
C1567 N1565 1.356 . S
N1568 C1560 1.356 . S
N1568 H1574 0.984 . S
N1568 H1575 0.984 . S
N1569 C1562 1.356 . S
N1569 H1572 0.984 . S
N1569 H1573 0.985 . S
H1570 N1565 0.984 . S
H1571 N1565 0.985 . S
H1572 N1569 0.984 . S
H1573 N1569 0.985 . S
H1574 N1568 0.984 . S
H1575 N1568 0.984 . S
H1576 N1564 0.984 . S
H1577 N1564 0.985 . S
C1578 C1579 1.363 . S
C1578 C1584 1.379 . S
C1578 N1586 1.356 . S
C1579 C1578 1.363 . S
C1579 C1585 1.363 . S
C1580 C1581 1.363 . S
C1580 C1585 1.379 . S
C1580 N1587 1.356 . S
C1581 C1580 1.363 . S
C1581 C1584 1.363 . S
N1582 C1584 1.356 . S
N1582 H1594 0.984 . S
N1582 H1595 0.985 . S
N1583 C1585 1.356 . S
N1583 H1588 0.984 . S
N1583 H1589 0.985 . S
C1584 C1578 1.379 . S
C1584 C1581 1.363 . S
C1584 N1582 1.356 . S
C1585 C1579 1.363 . S
C1585 C1580 1.379 . S
C1585 N1583 1.356 . S
N1586 C1578 1.356 . S
N1586 H1592 0.984 . S
N1586 H1593 0.984 . S
N1587 C1580 1.356 . S
N1587 H1590 0.984 . S
N1587 H1591 0.985 . S
H1588 N1583 0.984 . S
H1589 N1583 0.985 . S
H1590 N1587 0.984 . S
H1591 N1587 0.985 . S
H1592 N1586 0.984 . S
H1593 N1586 0.984 . S
H1594 N1582 0.984 . S
H1595 N1582 0.985 . S
C1596 C1597 1.363 . S
C1596 C1602 1.379 . S
C1596 N1604 1.356 . S
C1597 C1596 1.363 . S
C1597 C1603 1.363 . S
C1598 C1599 1.363 . S
C1598 C1603 1.379 . S
C1598 N1605 1.356 . S
C1599 C1598 1.363 . S
C1599 C1602 1.363 . S
N1600 C1602 1.356 . S
N1600 H1612 0.984 . S
N1600 H1613 0.985 . S
N1601 C1603 1.356 . S
N1601 H1606 0.984 . S
N1601 H1607 0.985 . S
C1602 C1596 1.379 . S
C1602 C1599 1.363 . S
C1602 N1600 1.356 . S
C1603 C1597 1.363 . S
C1603 C1598 1.379 . S
C1603 N1601 1.356 . S
N1604 C1596 1.356 . S
N1604 H1610 0.984 . S
N1604 H1611 0.984 . S
N1605 C1598 1.356 . S
N1605 H1608 0.984 . S
N1605 H1609 0.985 . S
H1606 N1601 0.984 . S
H1607 N1601 0.985 . S
H1608 N1605 0.984 . S
H1609 N1605 0.985 . S
H1610 N1604 0.984 . S
H1611 N1604 0.984 . S
H1612 N1600 0.984 . S
H1613 N1600 0.985 . S
C1614 C1615 1.363 . S
C1614 C1620 1.379 . S
C1614 N1622 1.356 . S
C1615 C1614 1.363 . S
C1615 C1621 1.363 . S
C1616 C1617 1.363 . S
C1616 C1621 1.379 . S
C1616 N1623 1.356 . S
C1617 C1616 1.363 . S
C1617 C1620 1.363 . S
N1618 C1620 1.356 . S
N1618 H1630 0.984 . S
N1618 H1631 0.985 . S
N1619 C1621 1.356 . S
N1619 H1624 0.984 . S
N1619 H1625 0.985 . S
C1620 C1614 1.379 . S
C1620 C1617 1.363 . S
C1620 N1618 1.356 . S
C1621 C1615 1.363 . S
C1621 C1616 1.379 . S
C1621 N1619 1.356 . S
N1622 C1614 1.356 . S
N1622 H1628 0.984 . S
N1622 H1629 0.984 . S
N1623 C1616 1.356 . S
N1623 H1626 0.984 . S
N1623 H1627 0.985 . S
H1624 N1619 0.984 . S
H1625 N1619 0.985 . S
H1626 N1623 0.984 . S
H1627 N1623 0.985 . S
H1628 N1622 0.984 . S
H1629 N1622 0.984 . S
H1630 N1618 0.984 . S
H1631 N1618 0.985 . S
C1632 C1633 1.363 . S
C1632 C1638 1.379 . S
C1632 N1640 1.356 . S
C1633 C1632 1.363 . S
C1633 C1639 1.363 . S
C1634 C1635 1.363 . S
C1634 C1639 1.379 . S
C1634 N1641 1.356 . S
C1635 C1634 1.363 . S
C1635 C1638 1.363 . S
N1636 C1638 1.356 . S
N1636 H1648 0.984 . S
N1636 H1649 0.985 . S
N1637 C1639 1.356 . S
N1637 H1642 0.984 . S
N1637 H1643 0.985 . S
C1638 C1632 1.379 . S
C1638 C1635 1.363 . S
C1638 N1636 1.356 . S
C1639 C1633 1.363 . S
C1639 C1634 1.379 . S
C1639 N1637 1.356 . S
N1640 C1632 1.356 . S
N1640 H1646 0.984 . S
N1640 H1647 0.984 . S
N1641 C1634 1.356 . S
N1641 H1644 0.984 . S
N1641 H1645 0.985 . S
H1642 N1637 0.984 . S
H1643 N1637 0.985 . S
H1644 N1641 0.984 . S
H1645 N1641 0.985 . S
H1646 N1640 0.984 . S
H1647 N1640 0.984 . S
H1648 N1636 0.984 . S
H1649 N1636 0.985 . S
C1650 C1651 1.363 . S
C1650 C1656 1.379 . S
C1650 N1658 1.356 . S
C1651 C1650 1.363 . S
C1651 C1657 1.363 . S
C1652 C1653 1.363 . S
C1652 C1657 1.379 . S
C1652 N1659 1.356 . S
C1653 C1652 1.363 . S
C1653 C1656 1.363 . S
N1654 C1656 1.356 . S
N1654 H1666 0.984 . S
N1654 H1667 0.985 . S
N1655 C1657 1.356 . S
N1655 H1660 0.984 . S
N1655 H1661 0.985 . S
C1656 C1650 1.379 . S
C1656 C1653 1.363 . S
C1656 N1654 1.356 . S
C1657 C1651 1.363 . S
C1657 C1652 1.379 . S
C1657 N1655 1.356 . S
N1658 C1650 1.356 . S
N1658 H1664 0.984 . S
N1658 H1665 0.984 . S
N1659 C1652 1.356 . S
N1659 H1662 0.984 . S
N1659 H1663 0.985 . S
H1660 N1655 0.984 . S
H1661 N1655 0.985 . S
H1662 N1659 0.984 . S
H1663 N1659 0.985 . S
H1664 N1658 0.984 . S
H1665 N1658 0.984 . S
H1666 N1654 0.984 . S
H1667 N1654 0.985 . S
C1668 C1669 1.363 . S
C1668 C1674 1.379 . S
C1668 N1676 1.356 . S
C1669 C1668 1.363 . S
C1669 C1675 1.363 . S
C1670 C1671 1.363 . S
C1670 C1675 1.379 . S
C1670 N1677 1.356 . S
C1671 C1670 1.363 . S
C1671 C1674 1.363 . S
N1672 C1674 1.356 . S
N1672 H1684 0.984 . S
N1672 H1685 0.985 . S
N1673 C1675 1.356 . S
N1673 H1678 0.984 . S
N1673 H1679 0.985 . S
C1674 C1668 1.379 . S
C1674 C1671 1.363 . S
C1674 N1672 1.356 . S
C1675 C1669 1.363 . S
C1675 C1670 1.379 . S
C1675 N1673 1.356 . S
N1676 C1668 1.356 . S
N1676 H1682 0.984 . S
N1676 H1683 0.984 . S
N1677 C1670 1.356 . S
N1677 H1680 0.984 . S
N1677 H1681 0.985 . S
H1678 N1673 0.984 . S
H1679 N1673 0.985 . S
H1680 N1677 0.984 . S
H1681 N1677 0.985 . S
H1682 N1676 0.984 . S
H1683 N1676 0.984 . S
H1684 N1672 0.984 . S
H1685 N1672 0.985 . S
C1686 C1687 1.363 . S
C1686 C1692 1.379 . S
C1686 N1694 1.356 . S
C1687 C1686 1.363 . S
C1687 C1693 1.363 . S
C1688 C1689 1.363 . S
C1688 C1693 1.379 . S
C1688 N1695 1.356 . S
C1689 C1688 1.363 . S
C1689 C1692 1.363 . S
N1690 C1692 1.356 . S
N1690 H1702 0.984 . S
N1690 H1703 0.985 . S
N1691 C1693 1.356 . S
N1691 H1696 0.984 . S
N1691 H1697 0.985 . S
C1692 C1686 1.379 . S
C1692 C1689 1.363 . S
C1692 N1690 1.356 . S
C1693 C1687 1.363 . S
C1693 C1688 1.379 . S
C1693 N1691 1.356 . S
N1694 C1686 1.356 . S
N1694 H1700 0.984 . S
N1694 H1701 0.984 . S
N1695 C1688 1.356 . S
N1695 H1698 0.984 . S
N1695 H1699 0.985 . S
H1696 N1691 0.984 . S
H1697 N1691 0.985 . S
H1698 N1695 0.984 . S
H1699 N1695 0.985 . S
H1700 N1694 0.984 . S
H1701 N1694 0.984 . S
H1702 N1690 0.984 . S
H1703 N1690 0.985 . S
C1704 C1705 1.363 . S
C1704 C1710 1.379 . S
C1704 N1712 1.356 . S
C1705 C1704 1.363 . S
C1705 C1711 1.363 . S
C1706 C1707 1.363 . S
C1706 C1711 1.379 . S
C1706 N1713 1.356 . S
C1707 C1706 1.363 . S
C1707 C1710 1.363 . S
N1708 C1710 1.356 . S
N1708 H1720 0.984 . S
N1708 H1721 0.985 . S
N1709 C1711 1.356 . S
N1709 H1714 0.984 . S
N1709 H1715 0.985 . S
C1710 C1704 1.379 . S
C1710 C1707 1.363 . S
C1710 N1708 1.356 . S
C1711 C1705 1.363 . S
C1711 C1706 1.379 . S
C1711 N1709 1.356 . S
N1712 C1704 1.356 . S
N1712 H1718 0.984 . S
N1712 H1719 0.984 . S
N1713 C1706 1.356 . S
N1713 H1716 0.984 . S
N1713 H1717 0.985 . S
H1714 N1709 0.984 . S
H1715 N1709 0.985 . S
H1716 N1713 0.984 . S
H1717 N1713 0.985 . S
H1718 N1712 0.984 . S
H1719 N1712 0.984 . S
H1720 N1708 0.984 . S
H1721 N1708 0.985 . S
C1722 C1723 1.363 . S
C1722 C1728 1.379 . S
C1722 N1730 1.356 . S
C1723 C1722 1.363 . S
C1723 C1729 1.363 . S
C1724 C1725 1.363 . S
C1724 C1729 1.379 . S
C1724 N1731 1.356 . S
C1725 C1724 1.363 . S
C1725 C1728 1.363 . S
N1726 C1728 1.356 . S
N1726 H1738 0.984 . S
N1726 H1739 0.985 . S
N1727 C1729 1.356 . S
N1727 H1732 0.984 . S
N1727 H1733 0.985 . S
C1728 C1722 1.379 . S
C1728 C1725 1.363 . S
C1728 N1726 1.356 . S
C1729 C1723 1.363 . S
C1729 C1724 1.379 . S
C1729 N1727 1.356 . S
N1730 C1722 1.356 . S
N1730 H1736 0.984 . S
N1730 H1737 0.984 . S
N1731 C1724 1.356 . S
N1731 H1734 0.984 . S
N1731 H1735 0.985 . S
H1732 N1727 0.984 . S
H1733 N1727 0.985 . S
H1734 N1731 0.984 . S
H1735 N1731 0.985 . S
H1736 N1730 0.984 . S
H1737 N1730 0.984 . S
H1738 N1726 0.984 . S
H1739 N1726 0.985 . S
C1740 C1741 1.363 . S
C1740 C1746 1.379 . S
C1740 N1748 1.356 . S
C1741 C1740 1.363 . S
C1741 C1747 1.363 . S
C1742 C1743 1.363 . S
C1742 C1747 1.379 . S
C1742 N1749 1.356 . S
C1743 C1742 1.363 . S
C1743 C1746 1.363 . S
N1744 C1746 1.356 . S
N1744 H1756 0.984 . S
N1744 H1757 0.985 . S
N1745 C1747 1.356 . S
N1745 H1750 0.984 . S
N1745 H1751 0.985 . S
C1746 C1740 1.379 . S
C1746 C1743 1.363 . S
C1746 N1744 1.356 . S
C1747 C1741 1.363 . S
C1747 C1742 1.379 . S
C1747 N1745 1.356 . S
N1748 C1740 1.356 . S
N1748 H1754 0.984 . S
N1748 H1755 0.984 . S
N1749 C1742 1.356 . S
N1749 H1752 0.984 . S
N1749 H1753 0.985 . S
H1750 N1745 0.984 . S
H1751 N1745 0.985 . S
H1752 N1749 0.984 . S
H1753 N1749 0.985 . S
H1754 N1748 0.984 . S
H1755 N1748 0.984 . S
H1756 N1744 0.984 . S
H1757 N1744 0.985 . S
C1758 C1759 1.363 . S
C1758 C1764 1.379 . S
C1758 N1766 1.356 . S
C1759 C1758 1.363 . S
C1759 C1765 1.363 . S
C1760 C1761 1.363 . S
C1760 C1765 1.379 . S
C1760 N1767 1.356 . S
C1761 C1760 1.363 . S
C1761 C1764 1.363 . S
N1762 C1764 1.356 . S
N1762 H1774 0.984 . S
N1762 H1775 0.985 . S
N1763 C1765 1.356 . S
N1763 H1768 0.984 . S
N1763 H1769 0.985 . S
C1764 C1758 1.379 . S
C1764 C1761 1.363 . S
C1764 N1762 1.356 . S
C1765 C1759 1.363 . S
C1765 C1760 1.379 . S
C1765 N1763 1.356 . S
N1766 C1758 1.356 . S
N1766 H1772 0.984 . S
N1766 H1773 0.984 . S
N1767 C1760 1.356 . S
N1767 H1770 0.984 . S
N1767 H1771 0.985 . S
H1768 N1763 0.984 . S
H1769 N1763 0.985 . S
H1770 N1767 0.984 . S
H1771 N1767 0.985 . S
H1772 N1766 0.984 . S
H1773 N1766 0.984 . S
H1774 N1762 0.984 . S
H1775 N1762 0.985 . S
C1776 C1777 1.363 . S
C1776 C1782 1.379 . S
C1776 N1784 1.356 . S
C1777 C1776 1.363 . S
C1777 C1783 1.363 . S
C1778 C1779 1.363 . S
C1778 C1783 1.379 . S
C1778 N1785 1.356 . S
C1779 C1778 1.363 . S
C1779 C1782 1.363 . S
N1780 C1782 1.356 . S
N1780 H1792 0.984 . S
N1780 H1793 0.985 . S
N1781 C1783 1.356 . S
N1781 H1786 0.984 . S
N1781 H1787 0.985 . S
C1782 C1776 1.379 . S
C1782 C1779 1.363 . S
C1782 N1780 1.356 . S
C1783 C1777 1.363 . S
C1783 C1778 1.379 . S
C1783 N1781 1.356 . S
N1784 C1776 1.356 . S
N1784 H1790 0.984 . S
N1784 H1791 0.984 . S
N1785 C1778 1.356 . S
N1785 H1788 0.984 . S
N1785 H1789 0.985 . S
H1786 N1781 0.984 . S
H1787 N1781 0.985 . S
H1788 N1785 0.984 . S
H1789 N1785 0.985 . S
H1790 N1784 0.984 . S
H1791 N1784 0.984 . S
H1792 N1780 0.984 . S
H1793 N1780 0.985 . S
C1794 C1795 1.363 . S
C1794 C1800 1.379 . S
C1794 N1802 1.356 . S
C1795 C1794 1.363 . S
C1795 C1801 1.363 . S
C1796 C1797 1.363 . S
C1796 C1801 1.379 . S
C1796 N1803 1.356 . S
C1797 C1796 1.363 . S
C1797 C1800 1.363 . S
N1798 C1800 1.356 . S
N1798 H1810 0.984 . S
N1798 H1811 0.985 . S
N1799 C1801 1.356 . S
N1799 H1804 0.984 . S
N1799 H1805 0.985 . S
C1800 C1794 1.379 . S
C1800 C1797 1.363 . S
C1800 N1798 1.356 . S
C1801 C1795 1.363 . S
C1801 C1796 1.379 . S
C1801 N1799 1.356 . S
N1802 C1794 1.356 . S
N1802 H1808 0.984 . S
N1802 H1809 0.984 . S
N1803 C1796 1.356 . S
N1803 H1806 0.984 . S
N1803 H1807 0.985 . S
H1804 N1799 0.984 . S
H1805 N1799 0.985 . S
H1806 N1803 0.984 . S
H1807 N1803 0.985 . S
H1808 N1802 0.984 . S
H1809 N1802 0.984 . S
H1810 N1798 0.984 . S
H1811 N1798 0.985 . S
C1812 C1813 1.363 . S
C1812 C1818 1.379 . S
C1812 N1820 1.356 . S
C1813 C1812 1.363 . S
C1813 C1819 1.363 . S
C1814 C1815 1.363 . S
C1814 C1819 1.379 . S
C1814 N1821 1.356 . S
C1815 C1814 1.363 . S
C1815 C1818 1.363 . S
N1816 C1818 1.356 . S
N1816 H1828 0.984 . S
N1816 H1829 0.985 . S
N1817 C1819 1.356 . S
N1817 H1822 0.984 . S
N1817 H1823 0.985 . S
C1818 C1812 1.379 . S
C1818 C1815 1.363 . S
C1818 N1816 1.356 . S
C1819 C1813 1.363 . S
C1819 C1814 1.379 . S
C1819 N1817 1.356 . S
N1820 C1812 1.356 . S
N1820 H1826 0.984 . S
N1820 H1827 0.984 . S
N1821 C1814 1.356 . S
N1821 H1824 0.984 . S
N1821 H1825 0.985 . S
H1822 N1817 0.984 . S
H1823 N1817 0.985 . S
H1824 N1821 0.984 . S
H1825 N1821 0.985 . S
H1826 N1820 0.984 . S
H1827 N1820 0.984 . S
H1828 N1816 0.984 . S
H1829 N1816 0.985 . S
C1830 C1831 1.363 . S
C1830 C1836 1.379 . S
C1830 N1838 1.356 . S
C1831 C1830 1.363 . S
C1831 C1837 1.363 . S
C1832 C1833 1.363 . S
C1832 C1837 1.379 . S
C1832 N1839 1.356 . S
C1833 C1832 1.363 . S
C1833 C1836 1.363 . S
N1834 C1836 1.356 . S
N1834 H1846 0.984 . S
N1834 H1847 0.985 . S
N1835 C1837 1.356 . S
N1835 H1840 0.984 . S
N1835 H1841 0.985 . S
C1836 C1830 1.379 . S
C1836 C1833 1.363 . S
C1836 N1834 1.356 . S
C1837 C1831 1.363 . S
C1837 C1832 1.379 . S
C1837 N1835 1.356 . S
N1838 C1830 1.356 . S
N1838 H1844 0.984 . S
N1838 H1845 0.984 . S
N1839 C1832 1.356 . S
N1839 H1842 0.984 . S
N1839 H1843 0.985 . S
H1840 N1835 0.984 . S
H1841 N1835 0.985 . S
H1842 N1839 0.984 . S
H1843 N1839 0.985 . S
H1844 N1838 0.984 . S
H1845 N1838 0.984 . S
H1846 N1834 0.984 . S
H1847 N1834 0.985 . S
C1848 C1849 1.363 . S
C1848 C1854 1.379 . S
C1848 N1856 1.356 . S
C1849 C1848 1.363 . S
C1849 C1855 1.363 . S
C1850 C1851 1.363 . S
C1850 C1855 1.379 . S
C1850 N1857 1.356 . S
C1851 C1850 1.363 . S
C1851 C1854 1.363 . S
N1852 C1854 1.356 . S
N1852 H1864 0.984 . S
N1852 H1865 0.985 . S
N1853 C1855 1.356 . S
N1853 H1858 0.984 . S
N1853 H1859 0.985 . S
C1854 C1848 1.379 . S
C1854 C1851 1.363 . S
C1854 N1852 1.356 . S
C1855 C1849 1.363 . S
C1855 C1850 1.379 . S
C1855 N1853 1.356 . S
N1856 C1848 1.356 . S
N1856 H1862 0.984 . S
N1856 H1863 0.984 . S
N1857 C1850 1.356 . S
N1857 H1860 0.984 . S
N1857 H1861 0.985 . S
H1858 N1853 0.984 . S
H1859 N1853 0.985 . S
H1860 N1857 0.984 . S
H1861 N1857 0.985 . S
H1862 N1856 0.984 . S
H1863 N1856 0.984 . S
H1864 N1852 0.984 . S
H1865 N1852 0.985 . S
C1866 C1867 1.363 . S
C1866 C1872 1.379 . S
C1866 N1874 1.356 . S
C1867 C1866 1.363 . S
C1867 C1873 1.363 . S
C1868 C1869 1.363 . S
C1868 C1873 1.379 . S
C1868 N1875 1.356 . S
C1869 C1868 1.363 . S
C1869 C1872 1.363 . S
N1870 C1872 1.356 . S
N1870 H1882 0.984 . S
N1870 H1883 0.985 . S
N1871 C1873 1.356 . S
N1871 H1876 0.984 . S
N1871 H1877 0.985 . S
C1872 C1866 1.379 . S
C1872 C1869 1.363 . S
C1872 N1870 1.356 . S
C1873 C1867 1.363 . S
C1873 C1868 1.379 . S
C1873 N1871 1.356 . S
N1874 C1866 1.356 . S
N1874 H1880 0.984 . S
N1874 H1881 0.984 . S
N1875 C1868 1.356 . S
N1875 H1878 0.984 . S
N1875 H1879 0.985 . S
H1876 N1871 0.984 . S
H1877 N1871 0.985 . S
H1878 N1875 0.984 . S
H1879 N1875 0.985 . S
H1880 N1874 0.984 . S
H1881 N1874 0.984 . S
H1882 N1870 0.984 . S
H1883 N1870 0.985 . S
C1884 C1885 1.363 . S
C1884 C1890 1.379 . S
C1884 N1892 1.356 . S
C1885 C1884 1.363 . S
C1885 C1891 1.363 . S
C1886 C1887 1.363 . S
C1886 C1891 1.379 . S
C1886 N1893 1.356 . S
C1887 C1886 1.363 . S
C1887 C1890 1.363 . S
N1888 C1890 1.356 . S
N1888 H1900 0.984 . S
N1888 H1901 0.985 . S
N1889 C1891 1.356 . S
N1889 H1894 0.984 . S
N1889 H1895 0.985 . S
C1890 C1884 1.379 . S
C1890 C1887 1.363 . S
C1890 N1888 1.356 . S
C1891 C1885 1.363 . S
C1891 C1886 1.379 . S
C1891 N1889 1.356 . S
N1892 C1884 1.356 . S
N1892 H1898 0.984 . S
N1892 H1899 0.984 . S
N1893 C1886 1.356 . S
N1893 H1896 0.984 . S
N1893 H1897 0.985 . S
H1894 N1889 0.984 . S
H1895 N1889 0.985 . S
H1896 N1893 0.984 . S
H1897 N1893 0.985 . S
H1898 N1892 0.984 . S
H1899 N1892 0.984 . S
H1900 N1888 0.984 . S
H1901 N1888 0.985 . S
C1902 C1903 1.363 . S
C1902 C1908 1.379 . S
C1902 N1910 1.356 . S
C1903 C1902 1.363 . S
C1903 C1909 1.363 . S
C1904 C1905 1.363 . S
C1904 C1909 1.379 . S
C1904 N1911 1.356 . S
C1905 C1904 1.363 . S
C1905 C1908 1.363 . S
N1906 C1908 1.356 . S
N1906 H1918 0.984 . S
N1906 H1919 0.985 . S
N1907 C1909 1.356 . S
N1907 H1912 0.984 . S
N1907 H1913 0.985 . S
C1908 C1902 1.379 . S
C1908 C1905 1.363 . S
C1908 N1906 1.356 . S
C1909 C1903 1.363 . S
C1909 C1904 1.379 . S
C1909 N1907 1.356 . S
N1910 C1902 1.356 . S
N1910 H1916 0.984 . S
N1910 H1917 0.984 . S
N1911 C1904 1.356 . S
N1911 H1914 0.984 . S
N1911 H1915 0.985 . S
H1912 N1907 0.984 . S
H1913 N1907 0.985 . S
H1914 N1911 0.984 . S
H1915 N1911 0.985 . S
H1916 N1910 0.984 . S
H1917 N1910 0.984 . S
H1918 N1906 0.984 . S
H1919 N1906 0.985 . S
C1920 C1921 1.363 . S
C1920 C1926 1.379 . S
C1920 N1928 1.356 . S
C1921 C1920 1.363 . S
C1921 C1927 1.363 . S
C1922 C1923 1.363 . S
C1922 C1927 1.379 . S
C1922 N1929 1.356 . S
C1923 C1922 1.363 . S
C1923 C1926 1.363 . S
N1924 C1926 1.356 . S
N1924 H1936 0.984 . S
N1924 H1937 0.985 . S
N1925 C1927 1.356 . S
N1925 H1930 0.984 . S
N1925 H1931 0.985 . S
C1926 C1920 1.379 . S
C1926 C1923 1.363 . S
C1926 N1924 1.356 . S
C1927 C1921 1.363 . S
C1927 C1922 1.379 . S
C1927 N1925 1.356 . S
N1928 C1920 1.356 . S
N1928 H1934 0.984 . S
N1928 H1935 0.984 . S
N1929 C1922 1.356 . S
N1929 H1932 0.984 . S
N1929 H1933 0.985 . S
H1930 N1925 0.984 . S
H1931 N1925 0.985 . S
H1932 N1929 0.984 . S
H1933 N1929 0.985 . S
H1934 N1928 0.984 . S
H1935 N1928 0.984 . S
H1936 N1924 0.984 . S
H1937 N1924 0.985 . S
C1938 C1939 1.363 . S
C1938 C1944 1.379 . S
C1938 N1946 1.356 . S
C1939 C1938 1.363 . S
C1939 C1945 1.363 . S
C1940 C1941 1.363 . S
C1940 C1945 1.379 . S
C1940 N1947 1.356 . S
C1941 C1940 1.363 . S
C1941 C1944 1.363 . S
N1942 C1944 1.356 . S
N1942 H1954 0.984 . S
N1942 H1955 0.985 . S
N1943 C1945 1.356 . S
N1943 H1948 0.984 . S
N1943 H1949 0.985 . S
C1944 C1938 1.379 . S
C1944 C1941 1.363 . S
C1944 N1942 1.356 . S
C1945 C1939 1.363 . S
C1945 C1940 1.379 . S
C1945 N1943 1.356 . S
N1946 C1938 1.356 . S
N1946 H1952 0.984 . S
N1946 H1953 0.984 . S
N1947 C1940 1.356 . S
N1947 H1950 0.984 . S
N1947 H1951 0.985 . S
H1948 N1943 0.984 . S
H1949 N1943 0.985 . S
H1950 N1947 0.984 . S
H1951 N1947 0.985 . S
H1952 N1946 0.984 . S
H1953 N1946 0.984 . S
H1954 N1942 0.984 . S
H1955 N1942 0.985 . S
C1956 C1957 1.363 . S
C1956 C1962 1.379 . S
C1956 N1964 1.356 . S
C1957 C1956 1.363 . S
C1957 C1963 1.363 . S
C1958 C1959 1.363 . S
C1958 C1963 1.379 . S
C1958 N1965 1.356 . S
C1959 C1958 1.363 . S
C1959 C1962 1.363 . S
N1960 C1962 1.356 . S
N1960 H1972 0.984 . S
N1960 H1973 0.985 . S
N1961 C1963 1.356 . S
N1961 H1966 0.984 . S
N1961 H1967 0.985 . S
C1962 C1956 1.379 . S
C1962 C1959 1.363 . S
C1962 N1960 1.356 . S
C1963 C1957 1.363 . S
C1963 C1958 1.379 . S
C1963 N1961 1.356 . S
N1964 C1956 1.356 . S
N1964 H1970 0.984 . S
N1964 H1971 0.984 . S
N1965 C1958 1.356 . S
N1965 H1968 0.984 . S
N1965 H1969 0.985 . S
H1966 N1961 0.984 . S
H1967 N1961 0.985 . S
H1968 N1965 0.984 . S
H1969 N1965 0.985 . S
H1970 N1964 0.984 . S
H1971 N1964 0.984 . S
H1972 N1960 0.984 . S
H1973 N1960 0.985 . S
C1974 C1975 1.363 . S
C1974 C1980 1.379 . S
C1974 N1982 1.356 . S
C1975 C1974 1.363 . S
C1975 C1981 1.363 . S
C1976 C1977 1.363 . S
C1976 C1981 1.379 . S
C1976 N1983 1.356 . S
C1977 C1976 1.363 . S
C1977 C1980 1.363 . S
N1978 C1980 1.356 . S
N1978 H1990 0.984 . S
N1978 H1991 0.985 . S
N1979 C1981 1.356 . S
N1979 H1984 0.984 . S
N1979 H1985 0.985 . S
C1980 C1974 1.379 . S
C1980 C1977 1.363 . S
C1980 N1978 1.356 . S
C1981 C1975 1.363 . S
C1981 C1976 1.379 . S
C1981 N1979 1.356 . S
N1982 C1974 1.356 . S
N1982 H1988 0.984 . S
N1982 H1989 0.984 . S
N1983 C1976 1.356 . S
N1983 H1986 0.984 . S
N1983 H1987 0.985 . S
H1984 N1979 0.984 . S
H1985 N1979 0.985 . S
H1986 N1983 0.984 . S
H1987 N1983 0.985 . S
H1988 N1982 0.984 . S
H1989 N1982 0.984 . S
H1990 N1978 0.984 . S
H1991 N1978 0.985 . S
C1992 C1993 1.363 . S
C1992 C1998 1.379 . S
C1992 N2000 1.356 . S
C1993 C1992 1.363 . S
C1993 C1999 1.363 . S
C1994 C1995 1.363 . S
C1994 C1999 1.379 . S
C1994 N2001 1.356 . S
C1995 C1994 1.363 . S
C1995 C1998 1.363 . S
N1996 C1998 1.356 . S
N1996 H2008 0.984 . S
N1996 H2009 0.985 . S
N1997 C1999 1.356 . S
N1997 H2002 0.984 . S
N1997 H2003 0.985 . S
C1998 C1992 1.379 . S
C1998 C1995 1.363 . S
C1998 N1996 1.356 . S
C1999 C1993 1.363 . S
C1999 C1994 1.379 . S
C1999 N1997 1.356 . S
N2000 C1992 1.356 . S
N2000 H2006 0.984 . S
N2000 H2007 0.984 . S
N2001 C1994 1.356 . S
N2001 H2004 0.984 . S
N2001 H2005 0.985 . S
H2002 N1997 0.984 . S
H2003 N1997 0.985 . S
H2004 N2001 0.984 . S
H2005 N2001 0.985 . S
H2006 N2000 0.984 . S
H2007 N2000 0.984 . S
H2008 N1996 0.984 . S
H2009 N1996 0.985 . S
C2010 C2011 1.363 . S
C2010 C2016 1.379 . S
C2010 N2018 1.356 . S
C2011 C2010 1.363 . S
C2011 C2017 1.363 . S
C2012 C2013 1.363 . S
C2012 C2017 1.379 . S
C2012 N2019 1.356 . S
C2013 C2012 1.363 . S
C2013 C2016 1.363 . S
N2014 C2016 1.356 . S
N2014 H2026 0.984 . S
N2014 H2027 0.985 . S
N2015 C2017 1.356 . S
N2015 H2020 0.984 . S
N2015 H2021 0.985 . S
C2016 C2010 1.379 . S
C2016 C2013 1.363 . S
C2016 N2014 1.356 . S
C2017 C2011 1.363 . S
C2017 C2012 1.379 . S
C2017 N2015 1.356 . S
N2018 C2010 1.356 . S
N2018 H2024 0.984 . S
N2018 H2025 0.984 . S
N2019 C2012 1.356 . S
N2019 H2022 0.984 . S
N2019 H2023 0.985 . S
H2020 N2015 0.984 . S
H2021 N2015 0.985 . S
H2022 N2019 0.984 . S
H2023 N2019 0.985 . S
H2024 N2018 0.984 . S
H2025 N2018 0.984 . S
H2026 N2014 0.984 . S
H2027 N2014 0.985 . S
C2028 C2029 1.363 . S
C2028 C2034 1.379 . S
C2028 N2036 1.356 . S
C2029 C2028 1.363 . S
C2029 C2035 1.363 . S
C2030 C2031 1.363 . S
C2030 C2035 1.379 . S
C2030 N2037 1.356 . S
C2031 C2030 1.363 . S
C2031 C2034 1.363 . S
N2032 C2034 1.356 . S
N2032 H2044 0.984 . S
N2032 H2045 0.985 . S
N2033 C2035 1.356 . S
N2033 H2038 0.984 . S
N2033 H2039 0.985 . S
C2034 C2028 1.379 . S
C2034 C2031 1.363 . S
C2034 N2032 1.356 . S
C2035 C2029 1.363 . S
C2035 C2030 1.379 . S
C2035 N2033 1.356 . S
N2036 C2028 1.356 . S
N2036 H2042 0.984 . S
N2036 H2043 0.984 . S
N2037 C2030 1.356 . S
N2037 H2040 0.984 . S
N2037 H2041 0.985 . S
H2038 N2033 0.984 . S
H2039 N2033 0.985 . S
H2040 N2037 0.984 . S
H2041 N2037 0.985 . S
H2042 N2036 0.984 . S
H2043 N2036 0.984 . S
H2044 N2032 0.984 . S
H2045 N2032 0.985 . S
C2046 C2047 1.363 . S
C2046 C2052 1.379 . S
C2046 N2054 1.356 . S
C2047 C2046 1.363 . S
C2047 C2053 1.363 . S
C2048 C2049 1.363 . S
C2048 C2053 1.379 . S
C2048 N2055 1.356 . S
C2049 C2048 1.363 . S
C2049 C2052 1.363 . S
N2050 C2052 1.356 . S
N2050 H2062 0.984 . S
N2050 H2063 0.985 . S
N2051 C2053 1.356 . S
N2051 H2056 0.984 . S
N2051 H2057 0.985 . S
C2052 C2046 1.379 . S
C2052 C2049 1.363 . S
C2052 N2050 1.356 . S
C2053 C2047 1.363 . S
C2053 C2048 1.379 . S
C2053 N2051 1.356 . S
N2054 C2046 1.356 . S
N2054 H2060 0.984 . S
N2054 H2061 0.984 . S
N2055 C2048 1.356 . S
N2055 H2058 0.984 . S
N2055 H2059 0.985 . S
H2056 N2051 0.984 . S
H2057 N2051 0.985 . S
H2058 N2055 0.984 . S
H2059 N2055 0.985 . S
H2060 N2054 0.984 . S
H2061 N2054 0.984 . S
H2062 N2050 0.984 . S
H2063 N2050 0.985 . S
C2064 C2065 1.363 . S
C2064 C2070 1.379 . S
C2064 N2072 1.356 . S
C2065 C2064 1.363 . S
C2065 C2071 1.363 . S
C2066 C2067 1.363 . S
C2066 C2071 1.379 . S
C2066 N2073 1.356 . S
C2067 C2066 1.363 . S
C2067 C2070 1.363 . S
N2068 C2070 1.356 . S
N2068 H2080 0.984 . S
N2068 H2081 0.985 . S
N2069 C2071 1.356 . S
N2069 H2074 0.984 . S
N2069 H2075 0.985 . S
C2070 C2064 1.379 . S
C2070 C2067 1.363 . S
C2070 N2068 1.356 . S
C2071 C2065 1.363 . S
C2071 C2066 1.379 . S
C2071 N2069 1.356 . S
N2072 C2064 1.356 . S
N2072 H2078 0.984 . S
N2072 H2079 0.984 . S
N2073 C2066 1.356 . S
N2073 H2076 0.984 . S
N2073 H2077 0.985 . S
H2074 N2069 0.984 . S
H2075 N2069 0.985 . S
H2076 N2073 0.984 . S
H2077 N2073 0.985 . S
H2078 N2072 0.984 . S
H2079 N2072 0.984 . S
H2080 N2068 0.984 . S
H2081 N2068 0.985 . S
C2082 C2083 1.363 . S
C2082 C2088 1.379 . S
C2082 N2090 1.356 . S
C2083 C2082 1.363 . S
C2083 C2089 1.363 . S
C2084 C2085 1.363 . S
C2084 C2089 1.379 . S
C2084 N2091 1.356 . S
C2085 C2084 1.363 . S
C2085 C2088 1.363 . S
N2086 C2088 1.356 . S
N2086 H2098 0.984 . S
N2086 H2099 0.985 . S
N2087 C2089 1.356 . S
N2087 H2092 0.984 . S
N2087 H2093 0.985 . S
C2088 C2082 1.379 . S
C2088 C2085 1.363 . S
C2088 N2086 1.356 . S
C2089 C2083 1.363 . S
C2089 C2084 1.379 . S
C2089 N2087 1.356 . S
N2090 C2082 1.356 . S
N2090 H2096 0.984 . S
N2090 H2097 0.984 . S
N2091 C2084 1.356 . S
N2091 H2094 0.984 . S
N2091 H2095 0.985 . S
H2092 N2087 0.984 . S
H2093 N2087 0.985 . S
H2094 N2091 0.984 . S
H2095 N2091 0.985 . S
H2096 N2090 0.984 . S
H2097 N2090 0.984 . S
H2098 N2086 0.984 . S
H2099 N2086 0.985 . S
C2100 C2101 1.363 . S
C2100 C2106 1.379 . S
C2100 N2108 1.356 . S
C2101 C2100 1.363 . S
C2101 C2107 1.363 . S
C2102 C2103 1.363 . S
C2102 C2107 1.379 . S
C2102 N2109 1.356 . S
C2103 C2102 1.363 . S
C2103 C2106 1.363 . S
N2104 C2106 1.356 . S
N2104 H2116 0.984 . S
N2104 H2117 0.985 . S
N2105 C2107 1.356 . S
N2105 H2110 0.984 . S
N2105 H2111 0.985 . S
C2106 C2100 1.379 . S
C2106 C2103 1.363 . S
C2106 N2104 1.356 . S
C2107 C2101 1.363 . S
C2107 C2102 1.379 . S
C2107 N2105 1.356 . S
N2108 C2100 1.356 . S
N2108 H2114 0.984 . S
N2108 H2115 0.984 . S
N2109 C2102 1.356 . S
N2109 H2112 0.984 . S
N2109 H2113 0.985 . S
H2110 N2105 0.984 . S
H2111 N2105 0.985 . S
H2112 N2109 0.984 . S
H2113 N2109 0.985 . S
H2114 N2108 0.984 . S
H2115 N2108 0.984 . S
H2116 N2104 0.984 . S
H2117 N2104 0.985 . S
C2118 C2119 1.363 . S
C2118 C2124 1.379 . S
C2118 N2126 1.356 . S
C2119 C2118 1.363 . S
C2119 C2125 1.363 . S
C2120 C2121 1.363 . S
C2120 C2125 1.379 . S
C2120 N2127 1.356 . S
C2121 C2120 1.363 . S
C2121 C2124 1.363 . S
N2122 C2124 1.356 . S
N2122 H2134 0.984 . S
N2122 H2135 0.985 . S
N2123 C2125 1.356 . S
N2123 H2128 0.984 . S
N2123 H2129 0.985 . S
C2124 C2118 1.379 . S
C2124 C2121 1.363 . S
C2124 N2122 1.356 . S
C2125 C2119 1.363 . S
C2125 C2120 1.379 . S
C2125 N2123 1.356 . S
N2126 C2118 1.356 . S
N2126 H2132 0.984 . S
N2126 H2133 0.984 . S
N2127 C2120 1.356 . S
N2127 H2130 0.984 . S
N2127 H2131 0.985 . S
H2128 N2123 0.984 . S
H2129 N2123 0.985 . S
H2130 N2127 0.984 . S
H2131 N2127 0.985 . S
H2132 N2126 0.984 . S
H2133 N2126 0.984 . S
H2134 N2122 0.984 . S
H2135 N2122 0.985 . S
C2136 C2137 1.363 . S
C2136 C2142 1.379 . S
C2136 N2144 1.356 . S
C2137 C2136 1.363 . S
C2137 C2143 1.363 . S
C2138 C2139 1.363 . S
C2138 C2143 1.379 . S
C2138 N2145 1.356 . S
C2139 C2138 1.363 . S
C2139 C2142 1.363 . S
N2140 C2142 1.356 . S
N2140 H2152 0.984 . S
N2140 H2153 0.985 . S
N2141 C2143 1.356 . S
N2141 H2146 0.984 . S
N2141 H2147 0.985 . S
C2142 C2136 1.379 . S
C2142 C2139 1.363 . S
C2142 N2140 1.356 . S
C2143 C2137 1.363 . S
C2143 C2138 1.379 . S
C2143 N2141 1.356 . S
N2144 C2136 1.356 . S
N2144 H2150 0.984 . S
N2144 H2151 0.984 . S
N2145 C2138 1.356 . S
N2145 H2148 0.984 . S
N2145 H2149 0.985 . S
H2146 N2141 0.984 . S
H2147 N2141 0.985 . S
H2148 N2145 0.984 . S
H2149 N2145 0.985 . S
H2150 N2144 0.984 . S
H2151 N2144 0.984 . S
H2152 N2140 0.984 . S
H2153 N2140 0.985 . S
C2154 C2155 1.363 . S
C2154 C2160 1.379 . S
C2154 N2162 1.356 . S
C2155 C2154 1.363 . S
C2155 C2161 1.363 . S
C2156 C2157 1.363 . S
C2156 C2161 1.379 . S
C2156 N2163 1.356 . S
C2157 C2156 1.363 . S
C2157 C2160 1.363 . S
N2158 C2160 1.356 . S
N2158 H2170 0.984 . S
N2158 H2171 0.985 . S
N2159 C2161 1.356 . S
N2159 H2164 0.984 . S
N2159 H2165 0.985 . S
C2160 C2154 1.379 . S
C2160 C2157 1.363 . S
C2160 N2158 1.356 . S
C2161 C2155 1.363 . S
C2161 C2156 1.379 . S
C2161 N2159 1.356 . S
N2162 C2154 1.356 . S
N2162 H2168 0.984 . S
N2162 H2169 0.984 . S
N2163 C2156 1.356 . S
N2163 H2166 0.984 . S
N2163 H2167 0.985 . S
H2164 N2159 0.984 . S
H2165 N2159 0.985 . S
H2166 N2163 0.984 . S
H2167 N2163 0.985 . S
H2168 N2162 0.984 . S
H2169 N2162 0.984 . S
H2170 N2158 0.984 . S
H2171 N2158 0.985 . S
C2172 C2173 1.363 . S
C2172 C2178 1.379 . S
C2172 N2180 1.356 . S
C2173 C2172 1.363 . S
C2173 C2179 1.363 . S
C2174 C2175 1.363 . S
C2174 C2179 1.379 . S
C2174 N2181 1.356 . S
C2175 C2174 1.363 . S
C2175 C2178 1.363 . S
N2176 C2178 1.356 . S
N2176 H2188 0.984 . S
N2176 H2189 0.985 . S
N2177 C2179 1.356 . S
N2177 H2182 0.984 . S
N2177 H2183 0.985 . S
C2178 C2172 1.379 . S
C2178 C2175 1.363 . S
C2178 N2176 1.356 . S
C2179 C2173 1.363 . S
C2179 C2174 1.379 . S
C2179 N2177 1.356 . S
N2180 C2172 1.356 . S
N2180 H2186 0.984 . S
N2180 H2187 0.984 . S
N2181 C2174 1.356 . S
N2181 H2184 0.984 . S
N2181 H2185 0.985 . S
H2182 N2177 0.984 . S
H2183 N2177 0.985 . S
H2184 N2181 0.984 . S
H2185 N2181 0.985 . S
H2186 N2180 0.984 . S
H2187 N2180 0.984 . S
H2188 N2176 0.984 . S
H2189 N2176 0.985 . S
C2190 C2191 1.363 . S
C2190 C2196 1.379 . S
C2190 N2198 1.356 . S
C2191 C2190 1.363 . S
C2191 C2197 1.363 . S
C2192 C2193 1.363 . S
C2192 C2197 1.379 . S
C2192 N2199 1.356 . S
C2193 C2192 1.363 . S
C2193 C2196 1.363 . S
N2194 C2196 1.356 . S
N2194 H2206 0.984 . S
N2194 H2207 0.985 . S
N2195 C2197 1.356 . S
N2195 H2200 0.984 . S
N2195 H2201 0.985 . S
C2196 C2190 1.379 . S
C2196 C2193 1.363 . S
C2196 N2194 1.356 . S
C2197 C2191 1.363 . S
C2197 C2192 1.379 . S
C2197 N2195 1.356 . S
N2198 C2190 1.356 . S
N2198 H2204 0.984 . S
N2198 H2205 0.984 . S
N2199 C2192 1.356 . S
N2199 H2202 0.984 . S
N2199 H2203 0.985 . S
H2200 N2195 0.984 . S
H2201 N2195 0.985 . S
H2202 N2199 0.984 . S
H2203 N2199 0.985 . S
H2204 N2198 0.984 . S
H2205 N2198 0.984 . S
H2206 N2194 0.984 . S
H2207 N2194 0.985 . S
C2208 C2209 1.363 . S
C2208 C2214 1.379 . S
C2208 N2216 1.356 . S
C2209 C2208 1.363 . S
C2209 C2215 1.363 . S
C2210 C2211 1.363 . S
C2210 C2215 1.379 . S
C2210 N2217 1.356 . S
C2211 C2210 1.363 . S
C2211 C2214 1.363 . S
N2212 C2214 1.356 . S
N2212 H2224 0.984 . S
N2212 H2225 0.985 . S
N2213 C2215 1.356 . S
N2213 H2218 0.984 . S
N2213 H2219 0.985 . S
C2214 C2208 1.379 . S
C2214 C2211 1.363 . S
C2214 N2212 1.356 . S
C2215 C2209 1.363 . S
C2215 C2210 1.379 . S
C2215 N2213 1.356 . S
N2216 C2208 1.356 . S
N2216 H2222 0.984 . S
N2216 H2223 0.984 . S
N2217 C2210 1.356 . S
N2217 H2220 0.984 . S
N2217 H2221 0.985 . S
H2218 N2213 0.984 . S
H2219 N2213 0.985 . S
H2220 N2217 0.984 . S
H2221 N2217 0.985 . S
H2222 N2216 0.984 . S
H2223 N2216 0.984 . S
H2224 N2212 0.984 . S
H2225 N2212 0.985 . S
C2226 C2227 1.363 . S
C2226 C2232 1.379 . S
C2226 N2234 1.356 . S
C2227 C2226 1.363 . S
C2227 C2233 1.363 . S
C2228 C2229 1.363 . S
C2228 C2233 1.379 . S
C2228 N2235 1.356 . S
C2229 C2228 1.363 . S
C2229 C2232 1.363 . S
N2230 C2232 1.356 . S
N2230 H2242 0.984 . S
N2230 H2243 0.985 . S
N2231 C2233 1.356 . S
N2231 H2236 0.984 . S
N2231 H2237 0.985 . S
C2232 C2226 1.379 . S
C2232 C2229 1.363 . S
C2232 N2230 1.356 . S
C2233 C2227 1.363 . S
C2233 C2228 1.379 . S
C2233 N2231 1.356 . S
N2234 C2226 1.356 . S
N2234 H2240 0.984 . S
N2234 H2241 0.984 . S
N2235 C2228 1.356 . S
N2235 H2238 0.984 . S
N2235 H2239 0.985 . S
H2236 N2231 0.984 . S
H2237 N2231 0.985 . S
H2238 N2235 0.984 . S
H2239 N2235 0.985 . S
H2240 N2234 0.984 . S
H2241 N2234 0.984 . S
H2242 N2230 0.984 . S
H2243 N2230 0.985 . S
C2244 C2245 1.363 . S
C2244 C2250 1.379 . S
C2244 N2252 1.356 . S
C2245 C2244 1.363 . S
C2245 C2251 1.363 . S
C2246 C2247 1.363 . S
C2246 C2251 1.379 . S
C2246 N2253 1.356 . S
C2247 C2246 1.363 . S
C2247 C2250 1.363 . S
N2248 C2250 1.356 . S
N2248 H2260 0.984 . S
N2248 H2261 0.985 . S
N2249 C2251 1.356 . S
N2249 H2254 0.984 . S
N2249 H2255 0.985 . S
C2250 C2244 1.379 . S
C2250 C2247 1.363 . S
C2250 N2248 1.356 . S
C2251 C2245 1.363 . S
C2251 C2246 1.379 . S
C2251 N2249 1.356 . S
N2252 C2244 1.356 . S
N2252 H2258 0.984 . S
N2252 H2259 0.984 . S
N2253 C2246 1.356 . S
N2253 H2256 0.984 . S
N2253 H2257 0.985 . S
H2254 N2249 0.984 . S
H2255 N2249 0.985 . S
H2256 N2253 0.984 . S
H2257 N2253 0.985 . S
H2258 N2252 0.984 . S
H2259 N2252 0.984 . S
H2260 N2248 0.984 . S
H2261 N2248 0.985 . S
C2262 C2263 1.363 . S
C2262 C2268 1.379 . S
C2262 N2270 1.356 . S
C2263 C2262 1.363 . S
C2263 C2269 1.363 . S
C2264 C2265 1.363 . S
C2264 C2269 1.379 . S
C2264 N2271 1.356 . S
C2265 C2264 1.363 . S
C2265 C2268 1.363 . S
N2266 C2268 1.356 . S
N2266 H2278 0.984 . S
N2266 H2279 0.985 . S
N2267 C2269 1.356 . S
N2267 H2272 0.984 . S
N2267 H2273 0.985 . S
C2268 C2262 1.379 . S
C2268 C2265 1.363 . S
C2268 N2266 1.356 . S
C2269 C2263 1.363 . S
C2269 C2264 1.379 . S
C2269 N2267 1.356 . S
N2270 C2262 1.356 . S
N2270 H2276 0.984 . S
N2270 H2277 0.984 . S
N2271 C2264 1.356 . S
N2271 H2274 0.984 . S
N2271 H2275 0.985 . S
H2272 N2267 0.984 . S
H2273 N2267 0.985 . S
H2274 N2271 0.984 . S
H2275 N2271 0.985 . S
H2276 N2270 0.984 . S
H2277 N2270 0.984 . S
H2278 N2266 0.984 . S
H2279 N2266 0.985 . S
C2280 C2281 1.363 . S
C2280 C2286 1.379 . S
C2280 N2288 1.356 . S
C2281 C2280 1.363 . S
C2281 C2287 1.363 . S
C2282 C2283 1.363 . S
C2282 C2287 1.379 . S
C2282 N2289 1.356 . S
C2283 C2282 1.363 . S
C2283 C2286 1.363 . S
N2284 C2286 1.356 . S
N2284 H2296 0.984 . S
N2284 H2297 0.985 . S
N2285 C2287 1.356 . S
N2285 H2290 0.984 . S
N2285 H2291 0.985 . S
C2286 C2280 1.379 . S
C2286 C2283 1.363 . S
C2286 N2284 1.356 . S
C2287 C2281 1.363 . S
C2287 C2282 1.379 . S
C2287 N2285 1.356 . S
N2288 C2280 1.356 . S
N2288 H2294 0.984 . S
N2288 H2295 0.984 . S
N2289 C2282 1.356 . S
N2289 H2292 0.984 . S
N2289 H2293 0.985 . S
H2290 N2285 0.984 . S
H2291 N2285 0.985 . S
H2292 N2289 0.984 . S
H2293 N2289 0.985 . S
H2294 N2288 0.984 . S
H2295 N2288 0.984 . S
H2296 N2284 0.984 . S
H2297 N2284 0.985 . S
C2298 C2299 1.363 . S
C2298 C2304 1.379 . S
C2298 N2306 1.356 . S
C2299 C2298 1.363 . S
C2299 C2305 1.363 . S
C2300 C2301 1.363 . S
C2300 C2305 1.379 . S
C2300 N2307 1.356 . S
C2301 C2300 1.363 . S
C2301 C2304 1.363 . S
N2302 C2304 1.356 . S
N2302 H2314 0.984 . S
N2302 H2315 0.985 . S
N2303 C2305 1.356 . S
N2303 H2308 0.984 . S
N2303 H2309 0.985 . S
C2304 C2298 1.379 . S
C2304 C2301 1.363 . S
C2304 N2302 1.356 . S
C2305 C2299 1.363 . S
C2305 C2300 1.379 . S
C2305 N2303 1.356 . S
N2306 C2298 1.356 . S
N2306 H2312 0.984 . S
N2306 H2313 0.984 . S
N2307 C2300 1.356 . S
N2307 H2310 0.984 . S
N2307 H2311 0.985 . S
H2308 N2303 0.984 . S
H2309 N2303 0.985 . S
H2310 N2307 0.984 . S
H2311 N2307 0.985 . S
H2312 N2306 0.984 . S
H2313 N2306 0.984 . S
H2314 N2302 0.984 . S
H2315 N2302 0.985 . S
C2316 C2317 1.363 . S
C2316 C2322 1.379 . S
C2316 N2324 1.356 . S
C2317 C2316 1.363 . S
C2317 C2323 1.363 . S
C2318 C2319 1.363 . S
C2318 C2323 1.379 . S
C2318 N2325 1.356 . S
C2319 C2318 1.363 . S
C2319 C2322 1.363 . S
N2320 C2322 1.356 . S
N2320 H2332 0.984 . S
N2320 H2333 0.985 . S
N2321 C2323 1.356 . S
N2321 H2326 0.984 . S
N2321 H2327 0.985 . S
C2322 C2316 1.379 . S
C2322 C2319 1.363 . S
C2322 N2320 1.356 . S
C2323 C2317 1.363 . S
C2323 C2318 1.379 . S
C2323 N2321 1.356 . S
N2324 C2316 1.356 . S
N2324 H2330 0.984 . S
N2324 H2331 0.984 . S
N2325 C2318 1.356 . S
N2325 H2328 0.984 . S
N2325 H2329 0.985 . S
H2326 N2321 0.984 . S
H2327 N2321 0.985 . S
H2328 N2325 0.984 . S
H2329 N2325 0.985 . S
H2330 N2324 0.984 . S
H2331 N2324 0.984 . S
H2332 N2320 0.984 . S
H2333 N2320 0.985 . S
C2334 C2335 1.363 . S
C2334 C2340 1.379 . S
C2334 N2342 1.356 . S
C2335 C2334 1.363 . S
C2335 C2341 1.363 . S
C2336 C2337 1.363 . S
C2336 C2341 1.379 . S
C2336 N2343 1.356 . S
C2337 C2336 1.363 . S
C2337 C2340 1.363 . S
N2338 C2340 1.356 . S
N2338 H2350 0.984 . S
N2338 H2351 0.985 . S
N2339 C2341 1.356 . S
N2339 H2344 0.984 . S
N2339 H2345 0.985 . S
C2340 C2334 1.379 . S
C2340 C2337 1.363 . S
C2340 N2338 1.356 . S
C2341 C2335 1.363 . S
C2341 C2336 1.379 . S
C2341 N2339 1.356 . S
N2342 C2334 1.356 . S
N2342 H2348 0.984 . S
N2342 H2349 0.984 . S
N2343 C2336 1.356 . S
N2343 H2346 0.984 . S
N2343 H2347 0.985 . S
H2344 N2339 0.984 . S
H2345 N2339 0.985 . S
H2346 N2343 0.984 . S
H2347 N2343 0.985 . S
H2348 N2342 0.984 . S
H2349 N2342 0.984 . S
H2350 N2338 0.984 . S
H2351 N2338 0.985 . S
C625 C117 1.795 . S
C627 C0 1.795 . S
C643 C130 1.795 . S
C645 C13 1.795 . S
C661 C143 1.795 . S
C663 C26 1.795 . S
C679 C39 1.795 . S
C681 C104 1.795 . S
C697 C195 1.795 . S
C699 C52 1.795 . S
C715 C65 1.795 . S
C717 C156 1.795 . S
C733 C169 1.795 . S
C735 C78 1.795 . S
C751 C182 1.795 . S
C753 C91 1.795 . S
C769 C208 1.795 . S
C771 C234 1.795 . S
C787 C221 1.795 . S
C789 C286 1.795 . S
C805 C247 1.795 . S
C807 C299 1.795 . S
C823 C260 1.795 . S
C825 C273 1.795 . S
C841 C312 1.795 . S
C843 C429 1.795 . S
C859 C442 1.795 . S
C861 C325 1.795 . S
C877 C338 1.795 . S
C879 C455 1.795 . S
C895 C351 1.795 . S
C897 C416 1.795 . S
C913 C507 1.795 . S
C915 C364 1.795 . S
C931 C468 1.795 . S
C933 C377 1.795 . S
C949 C481 1.795 . S
C951 C390 1.795 . S
C967 C494 1.795 . S
C969 C403 1.795 . S
C985 C520 1.795 . S
C987 C546 1.795 . S
C1003 C533 1.795 . S
C1005 C598 1.795 . S
C1021 C559 1.795 . S
C1023 C611 1.795 . S
C1039 C585 1.795 . S
C1041 C572 1.795 . S
C1057 C109 1.134 . S
C1059 C8 1.390 . S
C1075 C122 1.134 . S
C1077 C21 1.390 . S
C1093 C34 1.390 . S
C1095 C135 1.134 . S
C1111 C47 1.390 . S
C1113 C148 1.134 . S
C1129 C60 1.390 . S
C1131 C161 1.134 . S
C1147 C73 1.390 . S
C1149 C174 1.134 . S
C1165 C86 1.390 . S
C1167 C187 1.134 . S
C1183 C200 1.134 . S
C1185 C99 1.390 . S
C1201 C112 1.390 . S
C1203 C213 1.134 . S
C1219 C304 1.134 . S
C1221 C125 1.390 . S
C1237 C138 1.390 . S
C1239 C278 1.134 . S
C1255 C151 1.390 . S
C1257 C291 1.134 . S
C1273 C164 1.390 . S
C1275 C226 1.134 . S
C1291 C177 1.390 . S
C1293 C239 1.134 . S
C1309 C190 1.390 . S
C1311 C252 1.134 . S
C1327 C265 1.134 . S
C1329 C203 1.390 . S
C1345 C5 1.134 . S
C1347 C216 1.390 . S
C1363 C229 1.390 . S
C1365 C57 1.134 . S
C1381 C242 1.390 . S
C1383 C70 1.134 . S
C1399 C255 1.390 . S
C1401 C83 1.134 . S
C1417 C96 1.134 . S
C1419 C268 1.390 . S
C1435 C281 1.390 . S
C1437 C31 1.134 . S
C1453 C294 1.390 . S
C1455 C44 1.134 . S
C1471 C18 1.134 . S
C1473 C307 1.390 . S
C1489 C421 1.134 . S
C1491 C320 1.390 . S
C1507 C333 1.390 . S
C1509 C434 1.134 . S
C1525 C346 1.390 . S
C1527 C447 1.134 . S
C1543 C460 1.134 . S
C1545 C359 1.390 . S
C1561 C473 1.134 . S
C1563 C372 1.390 . S
C1579 C385 1.390 . S
C1581 C486 1.134 . S
C1597 C499 1.134 . S
C1599 C398 1.390 . S
C1615 C512 1.134 . S
C1617 C411 1.390 . S
C1633 C424 1.390 . S
C1635 C525 1.134 . S
C1651 C437 1.390 . S
C1653 C616 1.134 . S
C1669 C450 1.390 . S
C1671 C590 1.134 . S
C1687 C603 1.134 . S
C1689 C463 1.390 . S
C1705 C476 1.390 . S
C1707 C538 1.134 . S
C1723 C489 1.390 . S
C1725 C551 1.134 . S
C1741 C564 1.134 . S
C1743 C502 1.390 . S
C1759 C577 1.134 . S
C1761 C515 1.390 . S
C1777 C528 1.390 . S
C1779 C317 1.134 . S
C1795 C541 1.390 . S
C1797 C369 1.134 . S
C1813 C382 1.134 . S
C1815 C554 1.390 . S
C1831 C567 1.390 . S
C1833 C395 1.134 . S
C1849 C580 1.390 . S
C1851 C408 1.134 . S
C1867 C343 1.134 . S
C1869 C593 1.390 . S
C1885 C606 1.390 . S
C1887 C356 1.134 . S
C1903 C330 1.134 . S
C1905 C619 1.390 . S
C1921 C413 1.459 . S
C1923 C10 1.459 . S
C1939 C23 1.459 . S
C1941 C374 1.459 . S
C1957 C387 1.459 . S
C1959 C36 1.459 . S
C1975 C400 1.459 . S
C1977 C49 1.459 . S
C1993 C62 1.459 . S
C1995 C335 1.459 . S
C2011 C348 1.459 . S
C2013 C75 1.459 . S
C2029 C361 1.459 . S
C2031 C88 1.459 . S
C2047 C101 1.459 . S
C2049 C322 1.459 . S
C2065 C582 1.459 . S
C2067 C114 1.459 . S
C2083 C127 1.459 . S
C2085 C543 1.459 . S
C2101 C140 1.459 . S
C2103 C556 1.459 . S
C2119 C569 1.459 . S
C2121 C153 1.459 . S
C2137 C621 1.459 . S
C2139 C166 1.459 . S
C2155 C595 1.459 . S
C2157 C179 1.459 . S
C2173 C192 1.459 . S
C2175 C608 1.459 . S
C2191 C530 1.459 . S
C2193 C205 1.459 . S
C2209 C218 1.459 . S
C2211 C517 1.459 . S
C2227 C439 1.459 . S
C2229 C231 1.459 . S
C2245 C244 1.459 . S
C2247 C452 1.459 . S
C2263 C465 1.459 . S
C2265 C257 1.459 . S
C2281 C426 1.459 . S
C2283 C270 1.459 . S
C2299 C283 1.459 . S
C2301 C491 1.459 . S
C2317 C504 1.459 . S
C2319 C296 1.459 . S
C2335 C478 1.459 . S
C2337 C309 1.459 . S
