# Generated by pormake.
# Topology ukh, (4)-cn, num edge types: 1
# Building blocks:
#     Node 0, Type 0, BuildingBlock: UXUYUI_clean_sbu_0, # of connection points: 4
#     Node 1, Type 0, BuildingBlock: UXUYUI_clean_sbu_0, # of connection points: 4
#     Node 2, Type 0, BuildingBlock: UXUYUI_clean_sbu_0, # of connection points: 4
#     Node 3, Type 0, BuildingBlock: UXUYUI_clean_sbu_0, # of connection points: 4
#     Node 4, Type 0, BuildingBlock: UXUYUI_clean_sbu_0, # of connection points: 4
#     Node 5, Type 0, BuildingBlock: UXUYUI_clean_sbu_0, # of connection points: 4
#     Node 6, Type 0, BuildingBlock: UXUYUI_clean_sbu_0, # of connection points: 4
#     Node 7, Type 0, BuildingBlock: UXUYUI_clean_sbu_0, # of connection points: 4
#     Node 8, Type 0, BuildingBlock: UXUYUI_clean_sbu_0, # of connection points: 4
#     Node 9, Type 0, BuildingBlock: UXUYUI_clean_sbu_0, # of connection points: 4
#     Node 10, Type 0, BuildingBlock: UXUYUI_clean_sbu_0, # of connection points: 4
#     Node 11, Type 0, BuildingBlock: UXUYUI_clean_sbu_0, # of connection points: 4
#     Edge 12, Type (0, 0), BuildingBlock: XUDNAN_clean_linker_2, # of connection points: 2
#     Edge 13, Type (0, 0), BuildingBlock: XUDNAN_clean_linker_2, # of connection points: 2
#     Edge 14, Type (0, 0), BuildingBlock: XUDNAN_clean_linker_2, # of connection points: 2
#     Edge 15, Type (0, 0), BuildingBlock: XUDNAN_clean_linker_2, # of connection points: 2
#     Edge 16, Type (0, 0), BuildingBlock: XUDNAN_clean_linker_2, # of connection points: 2
#     Edge 17, Type (0, 0), BuildingBlock: XUDNAN_clean_linker_2, # of connection points: 2
#     Edge 18, Type (0, 0), BuildingBlock: XUDNAN_clean_linker_2, # of connection points: 2
#     Edge 19, Type (0, 0), BuildingBlock: XUDNAN_clean_linker_2, # of connection points: 2
#     Edge 20, Type (0, 0), BuildingBlock: XUDNAN_clean_linker_2, # of connection points: 2
#     Edge 21, Type (0, 0), BuildingBlock: XUDNAN_clean_linker_2, # of connection points: 2
#     Edge 22, Type (0, 0), BuildingBlock: XUDNAN_clean_linker_2, # of connection points: 2
#     Edge 23, Type (0, 0), BuildingBlock: XUDNAN_clean_linker_2, # of connection points: 2
#     Edge 24, Type (0, 0), BuildingBlock: XUDNAN_clean_linker_2, # of connection points: 2
#     Edge 25, Type (0, 0), BuildingBlock: XUDNAN_clean_linker_2, # of connection points: 2
#     Edge 26, Type (0, 0), BuildingBlock: XUDNAN_clean_linker_2, # of connection points: 2
#     Edge 27, Type (0, 0), BuildingBlock: XUDNAN_clean_linker_2, # of connection points: 2
#     Edge 28, Type (0, 0), BuildingBlock: XUDNAN_clean_linker_2, # of connection points: 2
#     Edge 29, Type (0, 0), BuildingBlock: XUDNAN_clean_linker_2, # of connection points: 2
#     Edge 30, Type (0, 0), BuildingBlock: XUDNAN_clean_linker_2, # of connection points: 2
#     Edge 31, Type (0, 0), BuildingBlock: XUDNAN_clean_linker_2, # of connection points: 2
#     Edge 32, Type (0, 0), BuildingBlock: XUDNAN_clean_linker_2, # of connection points: 2
#     Edge 33, Type (0, 0), BuildingBlock: XUDNAN_clean_linker_2, # of connection points: 2
#     Edge 34, Type (0, 0), BuildingBlock: XUDNAN_clean_linker_2, # of connection points: 2
#     Edge 35, Type (0, 0), BuildingBlock: XUDNAN_clean_linker_2, # of connection points: 2
# Relax obj value: 0.278
# Max RMSD: 0.251
# Mean RMSD: 0.251
data_MOF--net-ukh--node1-UXUYUI_clean_sbu_0--edge1-XUDNAN_clean_linker_2
_symmetry_space_group_name_H-M    P1
_symmetry_Int_Tables_number       1
_symmetry_cell_setting            triclinic
loop_
_symmetry_equiv_pos_as_xyz
'x, y, z'
_cell_length_a     45.97079
_cell_length_b     45.999825
_cell_length_c     89.322923
_cell_angle_alpha  89.995458
_cell_angle_beta   90.000521
_cell_angle_gamma 119.9588
loop_
_atom_site_label
_atom_site_type_symbol
_atom_site_fract_x
_atom_site_fract_y
_atom_site_fract_z
_atom_type_partial_charge
Li0 Li 0.36764 0.26259 0.04432 0.0
Li1 Li 0.33446 0.22247 0.06353 0.0
Li2 Li 0.34321 0.20349 0.03965 0.0
Li3 Li 0.30659 0.2274 0.04064 0.0
C4 C 0.40866 0.23534 0.05134 0.0
N5 N 0.47149 0.24549 0.04408 0.0
C6 C 0.42664 0.22767 0.06169 0.0
C7 C 0.42269 0.24832 0.03734 0.0
C8 C 0.45834 0.23291 0.05779 0.0
C9 C 0.45448 0.25327 0.03387 0.0
C10 C 0.34431 0.29123 0.06375 0.0
C11 C 0.34986 0.3458 0.06708 0.0
N12 N 0.37466 0.35358 0.07728 0.0
C13 C 0.36978 0.29972 0.0743 0.0
C14 C 0.33419 0.3144 0.06012 0.0
C15 C 0.38482 0.33137 0.08101 0.0
C16 C 0.39553 0.328 0.03339 0.0
N17 N 0.40274 0.30762 0.04168 0.0
C18 C 0.45333 0.35456 0.05058 0.0
C19 C 0.43127 0.32008 0.04996 0.0
C20 C 0.44547 0.37652 0.04297 0.0
C21 C 0.41663 0.36276 0.0339 0.0
H22 H 0.37218 0.31736 0.02723 0.0
H23 H 0.43594 0.30355 0.05686 0.0
C24 C 0.34239 0.19415 0.08966 0.0
N25 N 0.33057 0.21397 0.08435 0.0
C26 C 0.34377 0.18978 0.10505 0.0
C27 C 0.31997 0.22563 0.10915 0.0
C28 C 0.31871 0.22902 0.09367 0.0
C29 C 0.33318 0.20628 0.11499 0.0
H30 H 0.35169 0.1826 0.08192 0.0
H31 H 0.30925 0.24447 0.08912 0.0
C32 C 0.33974 0.22762 0.01173 0.0
N33 N 0.3325 0.20602 0.98239 0.0
C34 C 0.30861 0.20239 0.00653 0.0
C35 C 0.36711 0.24219 0.00194 0.0
C36 C 0.30548 0.1917 0.99169 0.0
C37 C 0.36296 0.23085 0.98716 0.0
C38 C 0.27022 0.16964 0.05813 0.0
C39 C 0.25198 0.1346 0.05843 0.0
C40 C 0.25768 0.18793 0.06549 0.0
C41 C 0.22136 0.11838 0.06604 0.0
C42 C 0.22697 0.17077 0.07298 0.0
N43 N 0.20959 0.13664 0.0731 0.0
C44 C 0.37259 0.16296 0.02965 0.0
C45 C 0.31498 0.14329 0.02501 0.0
C46 C 0.36989 0.13389 0.02332 0.0
N47 N 0.34531 0.16717 0.03031 0.0
C48 C 0.31121 0.11411 0.01853 0.0
C49 C 0.33886 0.10909 0.01764 0.0
H50 H 0.39631 0.18154 0.03424 0.0
H51 H 0.29342 0.14664 0.0261 0.0
C52 C 0.2751 0.2577 0.02632 0.0
N53 N 0.26896 0.22769 0.03191 0.0
C54 C 0.25008 0.26026 0.01862 0.0
C55 C 0.21266 0.20094 0.02262 0.0
C56 C 0.2385 0.1995 0.03021 0.0
C57 C 0.21844 0.23157 0.01657 0.0
H58 H 0.29978 0.27951 0.02757 0.0
H59 H 0.23449 0.17568 0.0343 0.0
O60 O 0.37789 0.2309 0.05514 0.0
O61 O 0.33024 0.26088 0.05661 0.0
O62 O 0.34337 0.23843 0.02625 0.0
O63 O 0.30029 0.18574 0.05075 0.0
H64 H 0.41621 0.21782 0.07262 0.0
H65 H 0.40922 0.25455 0.02926 0.0
H66 H 0.47252 0.22704 0.06568 0.0
H67 H 0.46562 0.26328 0.02307 0.0
H68 H 0.34236 0.36403 0.06434 0.0
H69 H 0.3783 0.28228 0.07706 0.0
H70 H 0.31458 0.30829 0.05196 0.0
H71 H 0.40474 0.33836 0.0891 0.0
H72 H 0.47554 0.36396 0.05752 0.0
H73 H 0.40924 0.37862 0.02801 0.0
H74 H 0.35433 0.17486 0.10913 0.0
H75 H 0.31122 0.23844 0.11648 0.0
H76 H 0.28714 0.19088 0.01391 0.0
H77 H 0.39126 0.26223 0.00566 0.0
H78 H 0.28157 0.17201 0.98756 0.0
H79 H 0.38394 0.24185 0.97947 0.0
H80 H 0.26141 0.1201 0.05282 0.0
H81 H 0.27132 0.21504 0.06536 0.0
H82 H 0.20695 0.09126 0.06635 0.0
H83 H 0.21693 0.18459 0.07869 0.0
H84 H 0.39175 0.13082 0.0229 0.0
H85 H 0.2866 0.09524 0.01464 0.0
H86 H 0.25553 0.28441 0.01423 0.0
H87 H 0.18882 0.17813 0.02106 0.0
Li88 Li 0.09711 0.36153 0.37377 0.0
Li89 Li 0.10939 0.33539 0.39567 0.0
Li90 Li 0.13419 0.33798 0.37188 0.0
Li91 Li 0.07569 0.2992 0.37567 0.0
C92 C 0.17246 0.39917 0.3817 0.0
N93 N 0.23935 0.44303 0.37569 0.0
C94 C 0.19723 0.40092 0.39133 0.0
C95 C 0.18159 0.41986 0.36909 0.0
C96 C 0.23095 0.42323 0.38807 0.0
C97 C 0.21559 0.44185 0.36623 0.0
C98 C 0.05171 0.32953 0.402 0.0
C99 C 0.02789 0.30554 0.42603 0.0
N100 N 0.02711 0.33387 0.42963 0.0
C101 C 0.05052 0.35834 0.4059 0.0
C102 C 0.04015 0.30282 0.4121 0.0
C103 C 0.03803 0.36007 0.41993 0.0
C104 C 0.06026 0.38386 0.35741 0.0
N105 N 0.08492 0.39344 0.36782 0.0
C106 C 0.08585 0.44524 0.37178 0.0
C107 C 0.0982 0.4236 0.37486 0.0
C108 C 0.05995 0.43575 0.36125 0.0
C109 C 0.04754 0.4049 0.35382 0.0
H110 H 0.04989 0.35946 0.35219 0.0
H111 H 0.11751 0.43028 0.38324 0.0
C112 C 0.12302 0.31685 0.42378 0.0
N113 N 0.11895 0.34047 0.41647 0.0
C114 C 0.13338 0.32168 0.4387 0.0
C115 C 0.13491 0.37499 0.43832 0.0
C116 C 0.12451 0.3691 0.42339 0.0
C117 C 0.1399 0.35128 0.4461 0.0
H118 H 0.1193 0.29475 0.41789 0.0
H119 H 0.1216 0.3877 0.4172 0.0
C120 C 0.10862 0.33488 0.34401 0.0
N121 N 0.13241 0.34433 0.31496 0.0
C122 C 0.11188 0.30974 0.33674 0.0
C123 C 0.11747 0.36484 0.33649 0.0
C124 C 0.12399 0.31501 0.32207 0.0
C125 C 0.12942 0.36912 0.32181 0.0
C126 C 0.10508 0.26674 0.38489 0.0
C127 C 0.11806 0.25574 0.37346 0.0
C128 C 0.08225 0.24353 0.39511 0.0
C129 C 0.10801 0.22169 0.37248 0.0
C130 C 0.07276 0.20969 0.39371 0.0
N131 N 0.08574 0.19956 0.38253 0.0
C132 C 0.19129 0.33316 0.37388 0.0
C133 C 0.18944 0.35644 0.3505 0.0
C134 C 0.22013 0.33254 0.36967 0.0
N135 N 0.17582 0.34378 0.36415 0.0
C136 C 0.21809 0.35581 0.34571 0.0
C137 C 0.23329 0.34302 0.35525 0.0
H138 H 0.18054 0.3241 0.38483 0.0
H139 H 0.17795 0.36646 0.3432 0.0
C140 C 0.00777 0.24867 0.37737 0.0
N141 N 0.03749 0.25681 0.37074 0.0
C142 C 0.97885 0.21846 0.37396 0.0
C143 C 0.01149 0.20548 0.35687 0.0
C144 C 0.03977 0.23602 0.36058 0.0
C145 C 0.98046 0.19637 0.36357 0.0
H146 H 0.00637 0.26587 0.38517 0.0
H147 H 0.06348 0.24303 0.35534 0.0
O148 O 0.13942 0.37681 0.38444 0.0
O149 O 0.06459 0.32767 0.38845 0.0
O150 O 0.09623 0.32999 0.35827 0.0
O151 O 0.11438 0.29996 0.386 0.0
H152 H 0.19046 0.38494 0.40112 0.0
H153 H 0.16264 0.4187 0.36153 0.0
H154 H 0.25044 0.42472 0.39536 0.0
H155 H 0.22308 0.45789 0.35646 0.0
H156 H 0.01906 0.28515 0.43399 0.0
H157 H 0.05931 0.37922 0.39823 0.0
H158 H 0.04095 0.28038 0.40927 0.0
H159 H 0.03709 0.38227 0.42312 0.0
H160 H 0.0961 0.46891 0.37768 0.0
H161 H 0.02731 0.39655 0.34577 0.0
H162 H 0.1375 0.30304 0.44417 0.0
H163 H 0.1394 0.39803 0.44363 0.0
H164 H 0.10566 0.28664 0.34243 0.0
H165 H 0.11532 0.38467 0.34193 0.0
H166 H 0.12681 0.29583 0.31634 0.0
H167 H 0.13639 0.39219 0.31587 0.0
H168 H 0.13524 0.27311 0.36527 0.0
H169 H 0.07171 0.25149 0.40394 0.0
H170 H 0.11776 0.21283 0.36365 0.0
H171 H 0.05501 0.19146 0.40151 0.0
H172 H 0.23098 0.32235 0.37735 0.0
H173 H 0.22789 0.36464 0.33458 0.0
H174 H 0.95534 0.21282 0.37918 0.0
H175 H 0.01399 0.18912 0.3489 0.0
Li176 Li 0.78408 0.11821 0.72937 0.0
Li177 Li 0.73953 0.10622 0.71115 0.0
Li178 Li 0.77674 0.08189 0.70797 0.0
Li179 Li 0.79845 0.14208 0.70397 0.0
C180 C 0.73284 0.05258 0.73581 0.0
N181 N 0.70841 0.00778 0.75938 0.0
C182 C 0.70347 0.0464 0.74317 0.0
C183 C 0.74954 0.03566 0.74029 0.0
C184 C 0.69159 0.02376 0.75511 0.0
C185 C 0.73685 0.01319 0.75227 0.0
C186 C 0.76493 0.17409 0.71503 0.0
C187 C 0.7486 0.19903 0.6954 0.0
N188 N 0.74997 0.22213 0.70531 0.0
C189 C 0.76618 0.19806 0.72502 0.0
C190 C 0.75608 0.17453 0.7001 0.0
C191 C 0.75853 0.22215 0.71989 0.0
C192 C 0.8315 0.14921 0.75176 0.0
N193 N 0.79803 0.12872 0.74957 0.0
C194 C 0.78736 0.12983 0.7757 0.0
C195 C 0.7759 0.11892 0.76115 0.0
C196 C 0.82182 0.15139 0.77825 0.0
C197 C 0.84402 0.16073 0.76607 0.0
H198 H 0.84844 0.15729 0.74231 0.0
H199 H 0.74932 0.10354 0.75905 0.0
C200 C 0.67378 0.07124 0.7 0.0
N201 N 0.69424 0.09522 0.70988 0.0
C202 C 0.63902 0.05749 0.7009 0.0
C203 C 0.64736 0.09448 0.72172 0.0
C204 C 0.68191 0.10749 0.72042 0.0
C205 C 0.62538 0.06841 0.71218 0.0
H206 H 0.68438 0.0615 0.69196 0.0
H207 H 0.6988 0.12608 0.72833 0.0
C208 C 0.8452 0.1155 0.71705 0.0
N209 N 0.89948 0.1056 0.71975 0.0
C210 C 0.87142 0.12982 0.70667 0.0
C211 C 0.84676 0.0965 0.72891 0.0
C212 C 0.8986 0.12442 0.7082 0.0
C213 C 0.87437 0.09169 0.73005 0.0
C214 C 0.77041 0.10045 0.67809 0.0
C215 C 0.79893 0.09787 0.6753 0.0
C216 C 0.74987 0.09871 0.66619 0.0
C217 C 0.80657 0.09374 0.66059 0.0
C218 C 0.75838 0.09462 0.65163 0.0
N219 N 0.78631 0.09222 0.64916 0.0
C220 C 0.7443 0.01412 0.70156 0.0
C221 C 0.80317 0.03921 0.6984 0.0
C222 C 0.73978 0.9828 0.69759 0.0
N223 N 0.77559 0.04147 0.70199 0.0
C224 C 0.79979 0.00838 0.69428 0.0
C225 C 0.76777 0.97963 0.69392 0.0
H226 H 0.7228 0.01669 0.70436 0.0
H227 H 0.82781 0.06121 0.69866 0.0
C228 C 0.84804 0.20803 0.70485 0.0
N229 N 0.83265 0.18231 0.69494 0.0
C230 C 0.8783 0.23656 0.70118 0.0
C231 C 0.87594 0.21229 0.67693 0.0
C232 C 0.8452 0.18451 0.68095 0.0
C233 C 0.89362 0.23828 0.68734 0.0
H234 H 0.8378 0.20553 0.71598 0.0
H235 H 0.83269 0.164 0.6732 0.0
O236 O 0.74469 0.07453 0.72406 0.0
O237 O 0.77239 0.15039 0.71995 0.0
O238 O 0.81842 0.12055 0.71571 0.0
O239 O 0.76182 0.10349 0.69242 0.0
H240 H 0.6901 0.0591 0.73976 0.0
H241 H 0.77191 0.03965 0.73451 0.0
H242 H 0.669 0.01887 0.76097 0.0
H243 H 0.74956 -3e-05 0.75588 0.0
H244 H 0.74172 0.19968 0.68388 0.0
H245 H 0.77301 0.19802 0.73662 0.0
H246 H 0.75499 0.15623 0.69219 0.0
H247 H 0.75939 0.24087 0.72749 0.0
H248 H 0.76935 0.1225 0.78474 0.0
H249 H 0.87078 0.17711 0.76755 0.0
H250 H 0.62298 0.03717 0.69344 0.0
H251 H 0.63789 0.10383 0.73048 0.0
H252 H 0.87071 0.14481 0.69749 0.0
H253 H 0.82698 0.08577 0.73718 0.0
H254 H 0.91899 0.13521 0.70021 0.0
H255 H 0.87587 0.07696 0.73914 0.0
H256 H 0.81531 0.09969 0.68435 0.0
H257 H 0.72756 0.10044 0.6682 0.0
H258 H 0.82868 0.09188 0.65827 0.0
H259 H 0.74274 0.09328 0.64231 0.0
H260 H 0.7146 0.96137 0.69725 0.0
H261 H 0.82204 0.00698 0.69162 0.0
H262 H 0.89035 0.25626 0.70944 0.0
H263 H 0.88662 0.21211 0.66616 0.0
Li264 Li 0.6639 0.78272 0.06325 0.0
Li265 Li 0.63202 0.73803 0.04418 0.0
Li266 Li 0.69326 0.7753 0.04178 0.0
Li267 Li 0.65495 0.79572 0.03685 0.0
C268 C 0.68349 0.72574 0.06188 0.0
N269 N 0.71606 0.6907 0.06892 0.0
C270 C 0.66981 0.69221 0.05756 0.0
C271 C 0.7136 0.74132 0.06991 0.0
C272 C 0.68666 0.67494 0.06121 0.0
C273 C 0.72976 0.72324 0.0733 0.0
C274 C 0.58762 0.75577 0.05517 0.0
C275 C 0.53077 0.72739 0.0459 0.0
N276 N 0.51922 0.72258 0.06022 0.0
C277 C 0.57523 0.75073 0.06979 0.0
C278 C 0.56528 0.7442 0.04311 0.0
C279 C 0.54055 0.73382 0.07212 0.0
C280 C 0.66521 0.82072 0.08858 0.0
N281 N 0.66403 0.7921 0.08381 0.0
C282 C 0.65668 0.77132 0.10879 0.0
C283 C 0.66021 0.76775 0.09352 0.0
C284 C 0.65682 0.80014 0.11409 0.0
C285 C 0.66175 0.82536 0.10381 0.0
H286 H 0.66791 0.83946 0.08052 0.0
H287 H 0.65906 0.74513 0.08936 0.0
C288 C 0.59572 0.67362 0.03092 0.0
N289 N 0.59754 0.69268 0.0429 0.0
C290 C 0.57634 0.63862 0.03172 0.0
C291 C 0.55915 0.64407 0.05666 0.0
C292 C 0.57937 0.67872 0.05551 0.0
C293 C 0.55867 0.62339 0.04496 0.0
H294 H 0.61123 0.68541 0.0212 0.0
H295 H 0.58224 0.69431 0.06506 0.0
C296 C 0.7275 0.84239 0.05377 0.0
N297 N 0.79012 0.89279 0.06277 0.0
C298 C 0.7454 0.8711 0.04495 0.0
C299 C 0.74128 0.83958 0.06726 0.0
C300 C 0.77707 0.89623 0.04967 0.0
C301 C 0.77301 0.86525 0.07159 0.0
C302 C 0.65814 0.76759 0.01136 0.0
C303 C 0.68829 0.7847 0.00343 0.0
C304 C 0.62785 0.75895 0.00423 0.0
C305 C 0.68765 0.7934 0.98849 0.0
C306 C 0.62826 0.76813 0.98929 0.0
N307 N 0.6579 0.78505 0.9818 0.0
C308 C 0.72659 0.74422 0.03026 0.0
C309 C 0.76435 0.80138 0.0358 0.0
C310 C 0.753 0.73963 0.02568 0.0
N311 N 0.73266 0.77451 0.03547 0.0
C312 C 0.79153 0.79806 0.03106 0.0
C313 C 0.78598 0.76674 0.02611 0.0
H314 H 0.70108 0.72351 0.02972 0.0
H315 H 0.76876 0.82539 0.03972 0.0
C316 C 0.62259 0.83216 0.02846 0.0
N317 N 0.64903 0.82745 0.02571 0.0
C318 C 0.62166 0.85953 0.02219 0.0
C319 C 0.67459 0.87582 0.01001 0.0
C320 C 0.67444 0.84822 0.01648 0.0
C321 C 0.64835 0.88227 0.01311 0.0
H322 H 0.60301 0.81564 0.03608 0.0
H323 H 0.69555 0.84438 0.01479 0.0
O324 O 0.66734 0.74309 0.05837 0.0
O325 O 0.62149 0.77216 0.05269 0.0
O326 O 0.69637 0.81763 0.04934 0.0
O327 O 0.65828 0.75913 0.02602 0.0
H328 H 0.64651 0.67959 0.0514 0.0
H329 H 0.72455 0.76711 0.07342 0.0
H330 H 0.67636 0.64901 0.0579 0.0
H331 H 0.75318 0.73509 0.07943 0.0
H332 H 0.51318 0.71819 0.03668 0.0
H333 H 0.59221 0.75963 0.07925 0.0
H334 H 0.57451 0.74809 0.03173 0.0
H335 H 0.53058 0.72962 0.08338 0.0
H336 H 0.65348 0.75151 0.11634 0.0
H337 H 0.66173 0.84782 0.10743 0.0
H338 H 0.57704 0.62376 0.02248 0.0
H339 H 0.54543 0.63358 0.06695 0.0
H340 H 0.73507 0.87395 0.03456 0.0
H341 H 0.7276 0.81798 0.07438 0.0
H342 H 0.79125 0.91848 0.04291 0.0
H343 H 0.78399 0.86332 0.08199 0.0
H344 H 0.71197 0.79151 0.00878 0.0
H345 H 0.60429 0.74536 0.01017 0.0
H346 H 0.7108 0.80685 0.98224 0.0
H347 H 0.60501 0.76178 0.98364 0.0
H348 H 0.74767 0.71521 0.0217 0.0
H349 H 0.81667 0.81955 0.03153 0.0
H350 H 0.60089 0.86347 0.02483 0.0
H351 H 0.69612 0.893 0.00339 0.0
Li352 Li 0.90454 0.63942 0.37672 0.0
Li353 Li 0.892 0.66944 0.39659 0.0
Li354 Li 0.86402 0.65728 0.37336 0.0
Li355 Li 0.92206 0.70002 0.37412 0.0
C356 C 0.83088 0.59868 0.38481 0.0
N357 N 0.76672 0.5494 0.37719 0.0
C358 C 0.80356 0.59361 0.39358 0.0
C359 C 0.82565 0.57858 0.37224 0.0
C360 C 0.77128 0.56859 0.38952 0.0
C361 C 0.793 0.55382 0.36856 0.0
C362 C 0.95319 0.66883 0.39933 0.0
C363 C 0.00334 0.67849 0.41221 0.0
N364 N 0.98546 0.64828 0.41916 0.0
C365 C 0.93529 0.6379 0.4066 0.0
C366 C 0.98748 0.68931 0.40214 0.0
C367 C 0.95207 0.62795 0.41658 0.0
C368 C 0.94385 0.61973 0.36123 0.0
N369 N 0.91954 0.609 0.37186 0.0
C370 C 0.92195 0.55879 0.37551 0.0
C371 C 0.90817 0.57908 0.37894 0.0
C372 C 0.94722 0.56933 0.36458 0.0
C373 C 0.95795 0.60009 0.35731 0.0
H374 H 0.95254 0.64381 0.35591 0.0
H375 H 0.88882 0.57124 0.38738 0.0
C376 C 0.85574 0.67468 0.4196 0.0
N377 N 0.8849 0.6746 0.41723 0.0
C378 C 0.84758 0.68076 0.43382 0.0
C379 C 0.89918 0.68561 0.44316 0.0
C380 C 0.90673 0.68012 0.42863 0.0
C381 C 0.86946 0.68635 0.44579 0.0
H382 H 0.83912 0.67072 0.4103 0.0
H383 H 0.93026 0.68103 0.42648 0.0
C384 C 0.89053 0.65996 0.34494 0.0
N385 N 0.87112 0.65321 0.31529 0.0
C386 C 0.88733 0.68532 0.33787 0.0
C387 C 0.884 0.63121 0.33693 0.0
C388 C 0.87743 0.68141 0.32288 0.0
C389 C 0.87419 0.62827 0.32194 0.0
C390 C 0.89567 0.73035 0.3913 0.0
C391 C 0.87664 0.74637 0.39121 0.0
C392 C 0.92638 0.74506 0.39889 0.0
C393 C 0.88865 0.77688 0.39871 0.0
C394 C 0.93751 0.77559 0.40626 0.0
N395 N 0.91857 0.79074 0.40603 0.0
C396 C 0.80554 0.65914 0.3745 0.0
C397 C 0.80923 0.63555 0.35152 0.0
C398 C 0.77712 0.65976 0.3696 0.0
N399 N 0.82169 0.64832 0.3653 0.0
C400 C 0.7812 0.63646 0.346 0.0
C401 C 0.7655 0.6499 0.3549 0.0
H402 H 0.81552 0.66848 0.38552 0.0
H403 H 0.82166 0.62596 0.34454 0.0
C404 C 0.98722 0.74666 0.36436 0.0
N405 N 0.95526 0.74078 0.36551 0.0
C406 C 0.01133 0.77472 0.35656 0.0
C407 C 0.96919 0.79026 0.35151 0.0
C408 C 0.94602 0.76213 0.35953 0.0
C409 C 0.00218 0.79652 0.34976 0.0
H410 H 0.99368 0.72897 0.3691 0.0
H411 H 0.92037 0.75675 0.36062 0.0
O412 O 0.86254 0.62368 0.38831 0.0
O413 O 0.93752 0.67896 0.38931 0.0
O414 O 0.90041 0.66334 0.35956 0.0
O415 O 0.8839 0.70027 0.38409 0.0
H416 H 0.80721 0.60899 0.40334 0.0
H417 H 0.84656 0.58235 0.36531 0.0
H418 H 0.74986 0.56447 0.39615 0.0
H419 H 0.78854 0.5382 0.3588 0.0
H420 H 0.02987 0.69409 0.4145 0.0
H421 H 0.9087 0.62185 0.40469 0.0
H422 H 0.00168 0.71331 0.39658 0.0
H423 H 0.93853 0.60409 0.4223 0.0
H424 H 0.91291 0.53512 0.38129 0.0
H425 H 0.97765 0.60928 0.34895 0.0
H426 H 0.82439 0.68108 0.43547 0.0
H427 H 0.91676 0.69019 0.45216 0.0
H428 H 0.89198 0.70755 0.34394 0.0
H429 H 0.88637 0.61135 0.34224 0.0
H430 H 0.87467 0.70075 0.31728 0.0
H431 H 0.86898 0.60614 0.31561 0.0
H432 H 0.85281 0.7353 0.38539 0.0
H433 H 0.9415 0.73311 0.39914 0.0
H434 H 0.87416 0.78955 0.39873 0.0
H435 H 0.96119 0.78723 0.41219 0.0
H436 H 0.76521 0.66915 0.37711 0.0
H437 H 0.7732 0.62841 0.33461 0.0
H438 H 0.03646 0.77857 0.35534 0.0
H439 H 0.96129 0.80669 0.34654 0.0
Li440 Li 0.26363 0.89754 0.71057 0.0
Li441 Li 0.2196 0.88332 0.7285 0.0
Li442 Li 0.20648 0.86136 0.70344 0.0
Li443 Li 0.22656 0.91999 0.70774 0.0
C444 C 0.24011 0.82947 0.71341 0.0
N445 N 0.25603 0.78278 0.70271 0.0
C446 C 0.23791 0.80417 0.72281 0.0
C447 C 0.25038 0.83102 0.69855 0.0
C448 C 0.24608 0.7808 0.71719 0.0
C449 C 0.25832 0.80718 0.69336 0.0
C450 C 0.28197 0.93933 0.73534 0.0
C451 C 0.32651 0.98454 0.74928 0.0
N452 N 0.33094 0.96182 0.75723 0.0
C453 C 0.28695 0.91642 0.74365 0.0
C454 C 0.30188 0.97366 0.73817 0.0
C455 C 0.31184 0.92829 0.75466 0.0
C456 C 0.32958 0.93788 0.7008 0.0
N457 N 0.30949 0.90991 0.70891 0.0
C458 C 0.35712 0.90865 0.71874 0.0
C459 C 0.32243 0.89468 0.71748 0.0
C460 C 0.37857 0.93852 0.71109 0.0
C461 C 0.36445 0.95261 0.70165 0.0
H462 H 0.3185 0.94978 0.69433 0.0
H463 H 0.30595 0.87284 0.72406 0.0
C464 C 0.18942 0.83777 0.75134 0.0
N465 N 0.20606 0.87131 0.74869 0.0
C466 C 0.1805 0.82562 0.76588 0.0
C467 C 0.20501 0.88279 0.77472 0.0
C468 C 0.21348 0.89388 0.75993 0.0
C469 C 0.18887 0.84824 0.77785 0.0
H470 H 0.18368 0.82047 0.74213 0.0
H471 H 0.22673 0.92046 0.75749 0.0
C472 C 0.22922 0.90277 0.67832 0.0
N473 N 0.20434 0.90875 0.65104 0.0
C474 C 0.19624 0.8965 0.67719 0.0
C475 C 0.24954 0.91212 0.66558 0.0
C476 C 0.18413 0.89965 0.6633 0.0
C477 C 0.2365 0.91498 0.65188 0.0
C478 C 0.16526 0.89184 0.72275 0.0
C479 C 0.13028 0.87351 0.72169 0.0
C480 C 0.18064 0.92086 0.73153 0.0
C481 C 0.1112 0.88456 0.72944 0.0
C482 C 0.16069 0.93106 0.73912 0.0
N483 N 0.12667 0.91286 0.73792 0.0
C484 C 0.14987 0.80033 0.70294 0.0
C485 C 0.17268 0.81589 0.67852 0.0
C486 C 0.12134 0.7724 0.69735 0.0
N487 N 0.17422 0.82192 0.69349 0.0
C488 C 0.14421 0.78841 0.67239 0.0
C489 C 0.11752 0.76693 0.68183 0.0
H490 H 0.15205 0.80568 0.71481 0.0
H491 H 0.19268 0.83315 0.67125 0.0
C492 C 0.2567 0.98728 0.70073 0.0
N493 N 0.22604 0.95917 0.70145 0.0
C494 C 0.25974 0.01763 0.69614 0.0
C495 C 0.19951 0.98949 0.69289 0.0
C496 C 0.19763 0.9596 0.69758 0.0
C497 C 0.23089 0.01907 0.69221 0.0
H498 H 0.27886 0.98599 0.70367 0.0
H499 H 0.17354 0.9368 0.69813 0.0
O500 O 0.23216 0.85244 0.71884 0.0
O501 O 0.25816 0.92847 0.72431 0.0
O502 O 0.24194 0.90019 0.69179 0.0
O503 O 0.18409 0.8812 0.71517 0.0
H504 H 0.23002 0.80266 0.73434 0.0
H505 H 0.25227 0.85037 0.69109 0.0
H506 H 0.24452 0.7611 0.72435 0.0
H507 H 0.26631 0.80808 0.68189 0.0
H508 H 0.34212 0.01105 0.75158 0.0
H509 H 0.27192 0.88976 0.74158 0.0
H510 H 0.29838 0.99172 0.73181 0.0
H511 H 0.316 0.91084 0.76115 0.0
H512 H 0.36707 0.89691 0.72604 0.0
H513 H 0.38013 0.97583 0.69572 0.0
H514 H 0.1675 0.79878 0.76775 0.0
H515 H 0.21207 0.90106 0.78363 0.0
H516 H 0.18001 0.88904 0.68688 0.0
H517 H 0.27515 0.91713 0.66628 0.0
H518 H 0.15865 0.89482 0.66227 0.0
H519 H 0.25196 0.92218 0.64193 0.0
H520 H 0.11802 0.85099 0.71492 0.0
H521 H 0.20766 0.93546 0.73246 0.0
H522 H 0.08409 0.87062 0.72871 0.0
H523 H 0.17225 0.95348 0.74594 0.0
H524 H 0.10182 0.75608 0.70508 0.0
H525 H 0.14235 0.78524 0.66035 0.0
H526 H 0.28449 0.03965 0.69551 0.0
H527 H 0.17664 0.98955 0.69003 0.0
Li528 Li 0.7696 0.69609 0.62442 0.0
Li529 Li 0.79505 0.66069 0.62468 0.0
Li530 Li 0.77404 0.66937 0.60079 0.0
Li531 Li 0.73654 0.63521 0.62038 0.0
C532 C 0.82633 0.73404 0.60665 0.0
N533 N 0.85782 0.79499 0.59193 0.0
C534 C 0.86134 0.75254 0.60588 0.0
C535 C 0.8073 0.74649 0.59992 0.0
C536 C 0.8768 0.78333 0.59839 0.0
C537 C 0.8237 0.77736 0.59253 0.0
C538 C 0.77313 0.65772 0.65205 0.0
C539 C 0.77922 0.62512 0.67166 0.0
N540 N 0.79945 0.65387 0.67929 0.0
C541 C 0.7937 0.68692 0.66015 0.0
C542 C 0.76557 0.62654 0.65789 0.0
C543 C 0.80687 0.68446 0.67388 0.0
C544 C 0.73817 0.72606 0.63885 0.0
N545 N 0.76868 0.73262 0.63376 0.0
C546 C 0.7947 0.78775 0.64427 0.0
C547 C 0.7968 0.76266 0.63634 0.0
C548 C 0.76341 0.78164 0.6497 0.0
C549 C 0.73488 0.75036 0.64677 0.0
H550 H 0.71646 0.70159 0.63701 0.0
H551 H 0.82096 0.76689 0.63259 0.0
C552 C 0.83595 0.63161 0.63199 0.0
N553 N 0.83167 0.65871 0.63323 0.0
C554 C 0.86528 0.63318 0.63742 0.0
C555 C 0.88456 0.69017 0.64544 0.0
C556 C 0.85521 0.68762 0.63975 0.0
C557 C 0.89003 0.66284 0.64421 0.0
H558 H 0.81705 0.60913 0.62649 0.0
H559 H 0.85144 0.70901 0.64021 0.0
C560 C 0.70493 0.65768 0.6014 0.0
N561 N 0.64362 0.62877 0.58693 0.0
C562 C 0.69793 0.63462 0.58985 0.0
C563 C 0.68079 0.66615 0.60555 0.0
C564 C 0.66679 0.62024 0.58269 0.0
C565 C 0.64994 0.65124 0.59811 0.0
C566 C 0.75265 0.59381 0.60601 0.0
C567 C 0.74352 0.58248 0.59131 0.0
C568 C 0.74494 0.57064 0.61758 0.0
C569 C 0.72619 0.548 0.58847 0.0
C570 C 0.72756 0.53637 0.61428 0.0
N571 N 0.71859 0.52586 0.59992 0.0
C572 C 0.80899 0.67104 0.57522 0.0
C573 C 0.76893 0.68815 0.57079 0.0
C574 C 0.81908 0.67673 0.56028 0.0
N575 N 0.78429 0.67667 0.58013 0.0
C576 C 0.77791 0.69378 0.55569 0.0
C577 C 0.8034 0.68813 0.55023 0.0
H578 H 0.82109 0.66242 0.58301 0.0
H579 H 0.7498 0.69307 0.57507 0.0
C580 C 0.68039 0.60257 0.63831 0.0
N581 N 0.69251 0.59927 0.62493 0.0
C582 C 0.64692 0.58117 0.64215 0.0
C583 C 0.63894 0.55266 0.6185 0.0
C584 C 0.67268 0.57466 0.61511 0.0
C585 C 0.62552 0.55615 0.63208 0.0
H586 H 0.69639 0.62282 0.64577 0.0
H587 H 0.68253 0.57284 0.6044 0.0
O588 O 0.81095 0.70376 0.61385 0.0
O589 O 0.76053 0.65964 0.63846 0.0
O590 O 0.73522 0.67183 0.60863 0.0
O591 O 0.76976 0.62746 0.60898 0.0
H592 H 0.8764 0.74318 0.61101 0.0
H593 H 0.78018 0.73256 0.60039 0.0
H594 H 0.90389 0.79794 0.59772 0.0
H595 H 0.8093 0.78731 0.58728 0.0
H596 H 0.77371 0.60117 0.67629 0.0
H597 H 0.79977 0.71125 0.65579 0.0
H598 H 0.74931 0.60369 0.65186 0.0
H599 H 0.82306 0.70686 0.68021 0.0
H600 H 0.81743 0.81126 0.64651 0.0
H601 H 0.71022 0.74462 0.6506 0.0
H602 H 0.86868 0.61163 0.63623 0.0
H603 H 0.90331 0.71375 0.65029 0.0
H604 H 0.71624 0.62768 0.58655 0.0
H605 H 0.6858 0.68413 0.61437 0.0
H606 H 0.66102 0.60223 0.57378 0.0
H607 H 0.63102 0.65757 0.6012 0.0
H608 H 0.74975 0.6001 0.58219 0.0
H609 H 0.75217 0.57902 0.62897 0.0
H610 H 0.71882 0.53885 0.57716 0.0
H611 H 0.72122 0.51814 0.62314 0.0
H612 H 0.83931 0.67271 0.55672 0.0
H613 H 0.76481 0.7022 0.54839 0.0
H614 H 0.63758 0.58522 0.65261 0.0
H615 H 0.62338 0.53357 0.61045 0.0
Li616 Li 0.13346 0.79169 0.95879 0.0
Li617 Li 0.07398 0.77094 0.95777 0.0
Li618 Li 0.09795 0.73195 0.95489 0.0
Li619 Li 0.10621 0.77452 0.93497 0.0
C620 C 0.10512 0.76628 0.9871 0.0
N621 N 0.11869 0.78252 0.01701 0.0
C622 C 0.10433 0.79408 0.99289 0.0
C623 C 0.11266 0.74663 0.99649 0.0
C624 C 0.11131 0.80191 0.00806 0.0
C625 C 0.1195 0.7553 0.01159 0.0
C626 C 0.09893 0.83215 0.94294 0.0
C627 C 0.06308 0.84301 0.92702 0.0
N628 N 0.07569 0.87393 0.9333 0.0
C629 C 0.11166 0.86407 0.9492 0.0
C630 C 0.07454 0.82153 0.93174 0.0
C631 C 0.09954 0.88481 0.94419 0.0
C632 C 0.19084 0.85249 0.95733 0.0
N633 N 0.17449 0.82639 0.96694 0.0
C634 C 0.21472 0.85631 0.98613 0.0
C635 C 0.1865 0.8272 0.98094 0.0
C636 C 0.23104 0.88444 0.97667 0.0
C637 C 0.21953 0.8816 0.96188 0.0
H638 H 0.181 0.85091 0.94617 0.0
H639 H 0.1737 0.80586 0.98828 0.0
C640 C 0.00856 0.73986 0.96781 0.0
N641 N 0.03591 0.7708 0.96607 0.0
C642 C 0.98003 0.73606 0.97505 0.0
C643 C 0.00811 0.79619 0.97849 0.0
C644 C 0.03619 0.79883 0.97112 0.0
C645 C 0.97972 0.76437 0.98075 0.0
H646 H 0.00924 0.71799 0.96384 0.0
H647 H 0.05852 0.82309 0.96987 0.0
C648 C 0.17183 0.77302 0.94544 0.0
N649 N 0.23929 0.79601 0.94988 0.0
C650 C 0.19551 0.79568 0.93535 0.0
C651 C 0.18235 0.76184 0.95774 0.0
C652 C 0.22954 0.80706 0.9378 0.0
C653 C 0.21661 0.77382 0.9598 0.0
C654 C 0.03857 0.71663 0.93293 0.0
C655 C 0.03599 0.68722 0.92711 0.0
C656 C 0.01458 0.72553 0.92908 0.0
C657 C 0.00984 0.66757 0.91726 0.0
C658 C 0.98879 0.70521 0.9192 0.0
N659 N 0.98699 0.67692 0.91353 0.0
C660 C 0.05947 0.66644 0.9654 0.0
C661 C 0.10525 0.67588 0.94985 0.0
C662 C 0.04701 0.63188 0.96505 0.0
N663 N 0.08762 0.68739 0.95759 0.0
C664 C 0.09369 0.64152 0.94918 0.0
C665 C 0.06363 0.61901 0.95646 0.0
H666 H 0.04571 0.67646 0.97118 0.0
H667 H 0.12725 0.69321 0.94355 0.0
C668 C 0.12865 0.81317 0.90823 0.0
N669 N 0.11191 0.78159 0.91398 0.0
C670 C 0.13665 0.81811 0.893 0.0
C671 C 0.10976 0.75795 0.88994 0.0
C672 C 0.10241 0.75422 0.90519 0.0
C673 C 0.12769 0.79024 0.88369 0.0
H674 H 0.13693 0.83457 0.91557 0.0
H675 H 0.09031 0.72952 0.91012 0.0
O676 O 0.09831 0.75804 0.97233 0.0
O677 O 0.11047 0.81159 0.94783 0.0
O678 O 0.13852 0.76229 0.94347 0.0
O679 O 0.06376 0.73591 0.94276 0.0
H680 H 0.09874 0.80962 0.98572 0.0
H681 H 0.11331 0.725 0.99212 0.0
H682 H 0.11092 0.82342 0.01271 0.0
H683 H 0.12546 0.74039 0.01899 0.0
H684 H 0.04421 0.83512 0.91834 0.0
H685 H 0.13061 0.87264 0.95788 0.0
H686 H 0.06483 0.79713 0.92664 0.0
H687 H 0.10908 0.90955 0.94895 0.0
H688 H 0.22253 0.8572 0.99763 0.0
H689 H 0.23182 0.90212 0.954 0.0
H690 H 0.95855 0.71111 0.97633 0.0
H691 H 0.0091 0.81863 0.98285 0.0
H692 H 0.18767 0.80461 0.9258 0.0
H693 H 0.16424 0.74442 0.96569 0.0
H694 H 0.24821 0.82474 0.93014 0.0
H695 H 0.22517 0.76557 0.96932 0.0
H696 H 0.05417 0.67978 0.93006 0.0
H697 H 0.01562 0.74771 0.93377 0.0
H698 H 0.0077 0.64488 0.91259 0.0
H699 H 0.97011 0.71185 0.91609 0.0
H700 H 0.02355 0.61536 0.97066 0.0
H701 H 0.10736 0.63258 0.94256 0.0
H702 H 0.15097 0.84344 0.8887 0.0
H703 H 0.10213 0.73575 0.88318 0.0
Li704 Li 0.29977 0.07663 0.288 0.0
Li705 Li 0.34099 0.13344 0.29439 0.0
Li706 Li 0.33928 0.1149 0.2691 0.0
Li707 Li 0.36032 0.09392 0.29016 0.0
C708 C 0.27778 0.12344 0.28266 0.0
N709 N 0.22459 0.13381 0.28837 0.0
C710 C 0.26781 0.12395 0.29739 0.0
C711 C 0.2607 0.1282 0.27083 0.0
C712 C 0.24089 0.12928 0.30005 0.0
C713 C 0.23384 0.13337 0.27395 0.0
C714 C 0.3277 0.09294 0.32085 0.0
C715 C 0.35445 0.10308 0.34502 0.0
N716 N 0.32459 0.09426 0.35171 0.0
C717 C 0.29717 0.08348 0.32798 0.0
C718 C 0.3565 0.10241 0.32943 0.0
C719 C 0.29617 0.08453 0.34359 0.0
C720 C 0.25596 0.01506 0.30054 0.0
N721 N 0.25649 0.03965 0.29194 0.0
C722 C 0.19657 0.01059 0.29096 0.0
C723 C 0.22768 0.0377 0.2869 0.0
C724 C 0.19515 0.98501 0.30011 0.0
C725 C 0.22548 0.98734 0.30473 0.0
H726 H 0.27936 0.0172 0.30426 0.0
H727 H 0.2287 0.05726 0.27986 0.0
C728 C 0.34488 0.19494 0.29528 0.0
N729 N 0.347 0.17269 0.30458 0.0
C730 C 0.34389 0.22255 0.30104 0.0
C731 C 0.34883 0.2049 0.32593 0.0
C732 C 0.34989 0.1776 0.31965 0.0
C733 C 0.34481 0.22726 0.31659 0.0
H734 H 0.34264 0.19047 0.28334 0.0
H735 H 0.35166 0.15981 0.32687 0.0
C736 C 0.30784 0.04601 0.26264 0.0
N737 N 0.26766 0.00251 0.24052 0.0
C738 C 0.31207 0.01919 0.25827 0.0
C739 C 0.28313 0.05068 0.25579 0.0
C740 C 0.29152 0.99748 0.24705 0.0
C741 C 0.26308 0.02842 0.24462 0.0
C742 C 0.4039 0.17077 0.28659 0.0
C743 C 0.41107 0.19927 0.27823 0.0
C744 C 0.42079 0.17418 0.30005 0.0
C745 C 0.43477 0.23089 0.28364 0.0
C746 C 0.44431 0.20622 0.30507 0.0
N747 N 0.45073 0.23368 0.29684 0.0
C748 C 0.33901 0.15585 0.24698 0.0
C749 C 0.35228 0.11574 0.23747 0.0
C750 C 0.34145 0.16918 0.23275 0.0
N751 N 0.34428 0.12962 0.24906 0.0
C752 C 0.35508 0.1284 0.22297 0.0
C753 C 0.3497 0.15557 0.22049 0.0
H754 H 0.33278 0.16637 0.25644 0.0
H755 H 0.35647 0.09493 0.23949 0.0
C756 C 0.37673 0.05159 0.30562 0.0
N757 N 0.38897 0.07741 0.2957 0.0
C758 C 0.39565 0.03664 0.30946 0.0
C759 C 0.43946 0.07519 0.29278 0.0
C760 C 0.41973 0.08957 0.28933 0.0
C761 C 0.42732 0.04819 0.3029 0.0
H762 H 0.35194 0.04221 0.31032 0.0
H763 H 0.42865 0.11003 0.2814 0.0
O764 O 0.3042 0.11848 0.27975 0.0
O765 O 0.32911 0.09173 0.30559 0.0
O766 O 0.32775 0.06738 0.27364 0.0
O767 O 0.38016 0.13969 0.28171 0.0
H768 H 0.2809 0.12059 0.30666 0.0
H769 H 0.26801 0.12772 0.25935 0.0
H770 H 0.233 0.12985 0.3114 0.0
H771 H 0.22035 0.13701 0.26489 0.0
H772 H 0.37658 0.11056 0.35179 0.0
H773 H 0.27443 0.07522 0.32155 0.0
H774 H 0.3802 0.10923 0.32411 0.0
H775 H 0.27275 0.07745 0.34925 0.0
H776 H 0.17394 0.01011 0.28721 0.0
H777 H 0.22576 0.96795 0.31149 0.0
H778 H 0.34136 0.23945 0.29341 0.0
H779 H 0.34938 0.20742 0.33799 0.0
H780 H 0.33107 0.01523 0.26349 0.0
H781 H 0.27944 0.07126 0.25903 0.0
H782 H 0.29452 0.97662 0.24354 0.0
H783 H 0.24389 0.03175 0.23922 0.0
H784 H 0.39822 0.19701 0.26778 0.0
H785 H 0.41564 0.15231 0.30657 0.0
H786 H 0.44042 0.25321 0.27735 0.0
H787 H 0.45744 0.20926 0.31552 0.0
H788 H 0.33647 0.18968 0.23137 0.0
H789 H 0.36176 0.11734 0.21385 0.0
H790 H 0.38515 0.01559 0.31713 0.0
H791 H 0.46385 0.08498 0.28757 0.0
Li792 Li 0.22741 0.30077 0.62169 0.0
Li793 Li 0.20717 0.33927 0.62399 0.0
Li794 Li 0.22645 0.33511 0.60048 0.0
Li795 Li 0.26686 0.36412 0.62195 0.0
C796 C 0.17335 0.26917 0.60311 0.0
N797 N 0.14467 0.21059 0.58652 0.0
C798 C 0.13948 0.2452 0.60504 0.0
C799 C 0.19261 0.26324 0.59277 0.0
C800 C 0.12545 0.21577 0.59655 0.0
C801 C 0.17767 0.23353 0.58448 0.0
C802 C 0.22384 0.32978 0.65163 0.0
C803 C 0.22402 0.35026 0.67648 0.0
N804 N 0.19444 0.32184 0.6794 0.0
C805 C 0.1936 0.30065 0.6549 0.0
C806 C 0.23933 0.35474 0.6625 0.0
C807 C 0.17907 0.29716 0.669 0.0
C808 C 0.25809 0.26685 0.63228 0.0
N809 N 0.22724 0.26191 0.62872 0.0
C810 C 0.20088 0.20681 0.63928 0.0
C811 C 0.19881 0.23252 0.63186 0.0
C812 C 0.23245 0.21178 0.64361 0.0
C813 C 0.26132 0.24196 0.63968 0.0
H814 H 0.28018 0.29072 0.62984 0.0
H815 H 0.17454 0.22958 0.62922 0.0
C816 C 0.14084 0.32272 0.62872 0.0
N817 N 0.17253 0.3441 0.63354 0.0
C818 C 0.1134 0.32184 0.63576 0.0
C819 C 0.15167 0.36636 0.65217 0.0
C820 C 0.17847 0.36626 0.64482 0.0
C821 C 0.11852 0.34345 0.64785 0.0
H822 H 0.1368 0.30568 0.61962 0.0
H823 H 0.20393 0.38335 0.64833 0.0
C824 C 0.28838 0.32966 0.59881 0.0
N825 N 0.3382 0.33087 0.58105 0.0
C826 C 0.31493 0.36021 0.59379 0.0
C827 C 0.28736 0.29972 0.59492 0.0
C828 C 0.33982 0.3603 0.58479 0.0
C829 C 0.31272 0.30086 0.58589 0.0
C830 C 0.2257 0.39848 0.61297 0.0
C831 C 0.19694 0.39281 0.60521 0.0
C832 C 0.24112 0.42533 0.62297 0.0
C833 C 0.18376 0.41394 0.60775 0.0
C834 C 0.22721 0.44594 0.62518 0.0
N835 N 0.19903 0.43983 0.6176 0.0
C836 C 0.18851 0.32494 0.57431 0.0
C837 C 0.24735 0.35595 0.57048 0.0
C838 C 0.18272 0.32948 0.55938 0.0
N839 N 0.22041 0.33808 0.57953 0.0
C840 C 0.24273 0.36121 0.55548 0.0
C841 C 0.21006 0.34817 0.5498 0.0
H842 H 0.16751 0.31182 0.58185 0.0
H843 H 0.27241 0.36705 0.57498 0.0
C844 C 0.32508 0.38293 0.63745 0.0
N845 N 0.31119 0.39525 0.62773 0.0
C846 C 0.35893 0.40187 0.64121 0.0
C847 C 0.36348 0.44623 0.62509 0.0
C848 C 0.32934 0.4264 0.62169 0.0
C849 C 0.37876 0.43376 0.63483 0.0
H850 H 0.31 0.35783 0.64187 0.0
H851 H 0.31762 0.43532 0.61384 0.0
O852 O 0.18739 0.29785 0.61157 0.0
O853 O 0.23813 0.33394 0.63781 0.0
O854 O 0.26411 0.32907 0.6079 0.0
O855 O 0.23868 0.37779 0.61081 0.0
H856 H 0.12421 0.24913 0.6131 0.0
H857 H 0.2187 0.28144 0.59102 0.0
H858 H 0.09929 0.197 0.59795 0.0
H859 H 0.19231 0.22873 0.5764 0.0
H860 H 0.23561 0.36943 0.68499 0.0
H861 H 0.18126 0.28121 0.64655 0.0
H862 H 0.26277 0.37741 0.66011 0.0
H863 H 0.15552 0.27488 0.67165 0.0
H864 H 0.17801 0.18403 0.64224 0.0
H865 H 0.28615 0.24665 0.64263 0.0
H866 H 0.08839 0.30337 0.63214 0.0
H867 H 0.15685 0.38378 0.66129 0.0
H868 H 0.31609 0.3836 0.59666 0.0
H869 H 0.26723 0.27583 0.59885 0.0
H870 H 0.36041 0.38378 0.58076 0.0
H871 H 0.31219 0.27788 0.58276 0.0
H872 H 0.18474 0.37208 0.59744 0.0
H873 H 0.26339 0.42997 0.62908 0.0
H874 H 0.16137 0.40973 0.60191 0.0
H875 H 0.23873 0.46671 0.63295 0.0
H876 H 0.15713 0.31953 0.55555 0.0
H877 H 0.26451 0.37567 0.54846 0.0
H878 H 0.36974 0.39104 0.64856 0.0
H879 H 0.37785 0.47077 0.62001 0.0
Li880 Li 0.85829 0.19911 0.96115 0.0
Li881 Li 0.91777 0.21905 0.95842 0.0
Li882 Li 0.89582 0.25856 0.95559 0.0
Li883 Li 0.88542 0.21678 0.93671 0.0
C884 C 0.89736 0.22421 0.98815 0.0
N885 N 0.90131 0.20595 0.01722 0.0
C886 C 0.89424 0.19298 0.99112 0.0
C887 C 0.90249 0.2462 -5e-05 0.0
C888 C 0.89631 0.18419 0.00588 0.0
C889 C 0.9044 0.2365 0.01458 0.0
C890 C 0.88491 0.15219 0.95008 0.0
C891 C 0.91408 0.1233 0.94236 0.0
N892 N 0.89548 0.09822 0.95221 0.0
C893 C 0.86589 0.12597 0.96004 0.0
C894 C 0.90903 0.15073 0.94109 0.0
C895 C 0.87169 0.09897 0.96098 0.0
C896 C 0.79493 0.14528 0.95961 0.0
N897 N 0.81716 0.16672 0.96983 0.0
C898 C 0.78118 0.13472 0.98994 0.0
C899 C 0.81037 0.16279 0.98474 0.0
C900 C 0.75876 0.11088 0.97966 0.0
C901 C 0.76534 0.1172 0.96429 0.0
H902 H 0.80095 0.14936 0.94782 0.0
H903 H 0.82809 0.18058 0.99264 0.0
C904 C 0.98557 0.24847 0.96381 0.0
N905 N 0.95694 0.21835 0.96516 0.0
C906 C 0.01648 0.25197 0.96774 0.0
C907 C 0.988 0.19352 0.97491 0.0
C908 C 0.95751 0.19115 0.97082 0.0
C909 C 0.01807 0.22419 0.97322 0.0
H910 H 0.98441 0.26989 0.95958 0.0
H911 H 0.93449 0.16754 0.97209 0.0
C912 C 0.82833 0.23451 0.95061 0.0
N913 N 0.77932 0.24821 0.96025 0.0
C914 C 0.80411 0.23265 0.9406 0.0
C915 C 0.82764 0.24334 0.96554 0.0
C916 C 0.77953 0.23968 0.94569 0.0
C917 C 0.80265 0.25016 0.97019 0.0
C918 C 0.94698 0.2649 0.93036 0.0
C919 C 0.94841 0.2917 0.92237 0.0
C920 C 0.96369 0.24873 0.9249 0.0
C921 C 0.96605 0.30149 0.90886 0.0
C922 C 0.98108 0.25926 0.91135 0.0
N923 N 0.98184 0.28517 0.90366 0.0
C924 C 0.93091 0.32333 0.96788 0.0
C925 C 0.8957 0.31688 0.94723 0.0
C926 C 0.94533 0.35818 0.96726 0.0
N927 N 0.9072 0.3037 0.95771 0.0
C928 C 0.90952 0.35152 0.94616 0.0
C929 C 0.93547 0.37263 0.95593 0.0
H930 H 0.94006 0.31206 0.97585 0.0
H931 H 0.87738 0.30063 0.93907 0.0
C932 C 0.87939 0.1839 0.90872 0.0
N933 N 0.87969 0.21024 0.91576 0.0
C934 C 0.87615 0.18089 0.89316 0.0
C935 C 0.87311 0.23187 0.8925 0.0
C936 C 0.87609 0.23371 0.90805 0.0
C937 C 0.87333 0.20532 0.88487 0.0
H938 H 0.88179 0.16533 0.91515 0.0
H939 H 0.87593 0.2541 0.91401 0.0
O940 O 0.89553 0.23345 0.97378 0.0
O941 O 0.87938 0.17871 0.94894 0.0
O942 O 0.85246 0.22764 0.94573 0.0
O943 O 0.92917 0.25441 0.94342 0.0
H944 H 0.88991 0.17562 0.98214 0.0
H945 H 0.90489 0.27048 0.99783 0.0
H946 H 0.89387 0.16003 0.00834 0.0
H947 H 0.90833 0.25325 0.02383 0.0
H948 H 0.9328 0.12196 0.93553 0.0
H949 H 0.8469 0.12646 0.96701 0.0
H950 H 0.92385 0.17064 0.93327 0.0
H951 H 0.85725 0.07861 0.96868 0.0
H952 H 0.77725 0.13085 0.0019 0.0
H953 H 0.74845 0.09991 0.95595 0.0
H954 H 0.0389 0.27629 0.96658 0.0
H955 H 0.98808 0.17145 0.97908 0.0
H956 H 0.80434 0.22586 0.92901 0.0
H957 H 0.84614 0.24495 0.97347 0.0
H958 H 0.76063 0.23835 0.93806 0.0
H959 H 0.8018 0.25701 0.9817 0.0
H960 H 0.93572 0.30457 0.92646 0.0
H961 H 0.96323 0.22827 0.93105 0.0
H962 H 0.96713 0.32201 0.90249 0.0
H963 H 0.99397 0.24685 0.90694 0.0
H964 H 0.96553 0.37366 0.97489 0.0
H965 H 0.90111 0.36176 0.93734 0.0
H966 H 0.87648 0.16007 0.88766 0.0
H967 H 0.87043 0.2509 0.88654 0.0
Li968 Li 0.69457 0.91674 0.29251 0.0
Li969 Li 0.65525 0.85745 0.29431 0.0
Li970 Li 0.66287 0.88526 0.27042 0.0
Li971 Li 0.63323 0.89569 0.29161 0.0
C972 C 0.72606 0.88344 0.27792 0.0
N973 N 0.78726 0.89084 0.26953 0.0
C974 C 0.74124 0.8695 0.28666 0.0
C975 C 0.74172 0.90062 0.26477 0.0
C976 C 0.77227 0.87368 0.28227 0.0
C977 C 0.77273 0.90423 0.26076 0.0
C978 C 0.67295 0.89111 0.32188 0.0
C979 C 0.67107 0.88991 0.34886 0.0
N980 N 0.69954 0.88779 0.34914 0.0
C981 C 0.70217 0.88894 0.32243 0.0
C982 C 0.65724 0.89164 0.33519 0.0
C983 C 0.71524 0.88728 0.33631 0.0
C984 C 0.72722 0.97156 0.3106 0.0
N985 N 0.73411 0.95337 0.30071 0.0
C986 C 0.79268 0.9856 0.30637 0.0
C987 C 0.76611 0.9601 0.29829 0.0
C988 C 0.78598 0.00381 0.31712 0.0
C989 C 0.75284 0.99689 0.31901 0.0
H990 H 0.70151 0.9656 0.31227 0.0
H991 H 0.77103 0.94529 0.29042 0.0
C992 C 0.65686 0.79823 0.29288 0.0
N993 N 0.64899 0.8164 0.30234 0.0
C994 C 0.65758 0.76999 0.29803 0.0
C995 C 0.64094 0.77899 0.3225 0.0
C996 C 0.64001 0.8068 0.31679 0.0
C997 C 0.65054 0.7607 0.31312 0.0
H998 H 0.66388 0.8065 0.28144 0.0
H999 H 0.63332 0.82136 0.32403 0.0
C1000 C 0.68381 0.95496 0.26848 0.0
N1001 N 0.7127 0.00757 0.2484 0.0
C1002 C 0.66489 0.96829 0.26247 0.0
C1003 C 0.71748 0.9686 0.26442 0.0
C1004 C 0.67994 0.99484 0.25229 0.0
C1005 C 0.73161 0.99512 0.25421 0.0
C1006 C 0.59481 0.82201 0.28387 0.0
C1007 C 0.58946 0.79496 0.27486 0.0
C1008 C 0.57589 0.81633 0.2969 0.0
C1009 C 0.56528 0.76249 0.2791 0.0
C1010 C 0.55195 0.78349 0.30076 0.0
N1011 N 0.5472 0.75747 0.29186 0.0
C1012 C 0.66311 0.84849 0.24654 0.0
C1013 C 0.65993 0.89602 0.23857 0.0
C1014 C 0.65975 0.83707 0.23187 0.0
N1015 N 0.66265 0.87717 0.24963 0.0
C1016 C 0.65689 0.88567 0.22364 0.0
C1017 C 0.65608 0.85546 0.22024 0.0
H1018 H 0.66528 0.83407 0.25559 0.0
H1019 H 0.65918 0.91848 0.24132 0.0
C1020 C 0.60635 0.92643 0.30922 0.0
N1021 N 0.60085 0.9077 0.29668 0.0
C1022 C 0.58513 0.93895 0.31278 0.0
C1023 C 0.55283 0.91237 0.29049 0.0
C1024 C 0.57465 0.90024 0.28739 0.0
C1025 C 0.5582 0.93233 0.30325 0.0
H1026 H 0.62783 0.93245 0.31622 0.0
H1027 H 0.57121 0.88555 0.2774 0.0
O1028 O 0.69553 0.87931 0.28199 0.0
O1029 O 0.65965 0.89276 0.30842 0.0
O1030 O 0.66937 0.92893 0.27841 0.0
O1031 O 0.61911 0.85387 0.28022 0.0
H1032 H 0.72918 0.85551 0.29671 0.0
H1033 H 0.73006 0.91097 0.25769 0.0
H1034 H 0.78437 0.86317 0.28897 0.0
H1035 H 0.7852 0.91759 0.25065 0.0
H1036 H 0.65915 0.89024 0.35925 0.0
H1037 H 0.71467 0.88864 0.31225 0.0
H1038 H 0.63454 0.89323 0.33495 0.0
H1039 H 0.73786 0.88562 0.33689 0.0
H1040 H 0.81796 0.9902 0.30465 0.0
H1041 H 0.74674 0.01069 0.32703 0.0
H1042 H 0.66546 0.75676 0.29051 0.0
H1043 H 0.63521 0.77242 0.33419 0.0
H1044 H 0.63881 0.95809 0.26558 0.0
H1045 H 0.73259 0.95895 0.26916 0.0
H1046 H 0.66558 0.00532 0.24749 0.0
H1047 H 0.75763 0.00587 0.25094 0.0
H1048 H 0.604 0.79895 0.26476 0.0
H1049 H 0.57997 0.83704 0.30405 0.0
H1050 H 0.56095 0.74126 0.27228 0.0
H1051 H 0.53723 0.77867 0.31085 0.0
H1052 H 0.65962 0.81384 0.22966 0.0
H1053 H 0.6539 0.90037 0.21494 0.0
H1054 H 0.5905 0.95466 0.32259 0.0
H1055 H 0.53221 0.90647 0.28292 0.0
H1056 H 0.52457 0.57215 0.02442 0.0
H1057 H 0.55821 0.59106 0.07072 0.0
H1058 H 0.53316 0.53055 0.07495 0.0
H1059 H 0.44636 0.49629 0.03076 0.0
H1060 H 0.44908 0.47561 0.01412 0.0
H1061 H 0.46894 0.52068 0.01462 0.0
H1062 H 0.52584 0.5255 0.00753 0.0
H1063 H 0.50616 0.48042 0.00702 0.0
H1064 H 0.54219 0.50442 0.01883 0.0
H1065 H 0.50411 0.46864 0.07457 0.0
H1066 H 0.4731 0.40812 0.06944 0.0
H1067 H 0.46153 0.42829 0.02293 0.0
C1068 C 0.52677 0.5636 0.03544 0.0
C1069 C 0.54287 0.58655 0.0473 0.0
C1070 C 0.54513 0.57414 0.06154 0.0
C1071 C 0.53129 0.53975 0.06404 0.0
C1072 C 0.51558 0.51793 0.05217 0.0
C1073 C 0.51333 0.52922 0.03812 0.0
C1074 C 0.49542 0.50017 0.02729 0.0
C1075 C 0.46303 0.49807 0.02135 0.0
C1076 C 0.51881 0.50279 0.01441 0.0
C1077 C 0.48778 0.4709 0.03753 0.0
C1078 C 0.49967 0.48184 0.05181 0.0
C1079 C 0.49504 0.45969 0.06338 0.0
C1080 C 0.47765 0.4253 0.06029 0.0
C1081 C 0.46531 0.41327 0.04571 0.0
C1082 C 0.4706 0.43656 0.03419 0.0
H1083 H 0.03883 0.46452 0.38219 0.0
H1084 H 0.04568 0.45398 0.33427 0.0
H1085 H 0.01737 0.48697 0.32984 0.0
H1086 H 0.95713 0.45552 0.38188 0.0
H1087 H 0.96604 0.48571 0.39657 0.0
H1088 H 0.98807 0.46254 0.39596 0.0
H1089 H 0.04506 0.51818 0.39581 0.0
H1090 H 0.02321 0.54153 0.39654 0.0
H1091 H 0.05291 0.54937 0.38174 0.0
H1092 H 0.98836 0.52107 0.33072 0.0
H1093 H 0.95989 0.55316 0.33681 0.0
H1094 H 0.97071 0.54003 0.38418 0.0
C1095 C 0.03479 0.46959 0.37077 0.0
C1096 C 0.04462 0.45697 0.35855 0.0
C1097 C 0.03826 0.46343 0.34376 0.0
C1098 C 0.02229 0.48216 0.34116 0.0
C1099 C 0.01262 0.49398 0.35346 0.0
C1100 C 0.01858 0.48791 0.36798 0.0
C1101 C 0.00484 0.50261 0.37923 0.0
C1102 C 0.97739 0.47494 0.38898 0.0
C1103 C 0.0332 0.52952 0.3889 0.0
C1104 C 0.99027 0.51796 0.36879 0.0
C1105 C 0.99516 0.51285 0.35397 0.0
C1106 C 0.98435 0.52519 0.34228 0.0
C1107 C 0.9683 0.54342 0.34584 0.0
C1108 C 0.96301 0.54891 0.36095 0.0
C1109 C 0.974 0.5358 0.37253 0.0
H1110 H 0.43022 0.96856 0.69072 0.0
H1111 H 0.40947 0.94984 0.73823 0.0
H1112 H 0.47017 0.98194 0.7436 0.0
H1113 H 0.50513 0.9616 0.69057 0.0
H1114 H 0.52662 0.99457 0.67699 0.0
H1115 H 0.48147 0.96996 0.67684 0.0
H1116 H 0.47798 0.02434 0.67895 0.0
H1117 H 0.52314 0.0491 0.67918 0.0
H1118 H 0.49906 0.05302 0.69416 0.0
H1119 H 0.53257 0.01667 0.74395 0.0
H1120 H 0.59343 0.04935 0.73916 0.0
H1121 H 0.57427 0.04606 0.69141 0.0
C1122 C 0.43852 0.97124 0.70224 0.0
C1123 C 0.41519 0.95653 0.71406 0.0
C1124 C 0.42695 0.96041 0.72899 0.0
C1125 C 0.46134 0.97882 0.73217 0.0
C1126 C 0.48366 0.99313 0.72028 0.0
C1127 C 0.47283 0.98939 0.70561 0.0
C1128 C 0.50221 0.00701 0.69494 0.0
C1129 C 0.50395 0.98178 0.6842 0.0
C1130 C 0.50048 0.03503 0.6863 0.0
C1131 C 0.5312 0.02128 0.70592 0.0
C1132 C 0.51986 0.0131 0.72048 0.0
C1133 C 0.54179 0.02333 0.7326 0.0
C1134 C 0.57631 0.04215 0.72977 0.0
C1135 C 0.58863 0.05051 0.71492 0.0
C1136 C 0.56564 0.03998 0.70287 0.0
H1137 H 0.57274 0.53766 0.61273 0.0
H1138 H 0.59588 0.52829 0.65899 0.0
H1139 H 0.53532 0.49761 0.66492 0.0
H1140 H 0.50392 0.55043 0.61997 0.0
H1141 H 0.47938 0.52602 0.60421 0.0
H1142 H 0.52453 0.54682 0.60348 0.0
H1143 H 0.52172 0.49026 0.59766 0.0
H1144 H 0.47655 0.46937 0.59817 0.0
H1145 H 0.49862 0.45503 0.61 0.0
H1146 H 0.47234 0.46884 0.66588 0.0
H1147 H 0.41119 0.44145 0.66155 0.0
H1148 H 0.42931 0.46842 0.61452 0.0
C1149 C 0.56511 0.52868 0.62406 0.0
C1150 C 0.5891 0.53541 0.6354 0.0
C1151 C 0.57799 0.52376 0.65015 0.0
C1152 C 0.54366 0.50624 0.65362 0.0
C1153 C 0.52074 0.5005 0.64221 0.0
C1154 C 0.53097 0.51113 0.62771 0.0
C1155 C 0.50124 0.5017 0.61751 0.0
C1156 C 0.50235 0.53312 0.61091 0.0
C1157 C 0.49943 0.47766 0.60511 0.0
C1158 C 0.47268 0.48416 0.62856 0.0
C1159 C 0.48446 0.48381 0.64275 0.0
C1160 C 0.4628 0.46883 0.65481 0.0
C1161 C 0.42814 0.45328 0.65223 0.0
C1162 C 0.41546 0.45279 0.6377 0.0
C1163 C 0.43819 0.4688 0.62579 0.0
H1164 H 0.95601 0.42369 0.97655 0.0
H1165 H 0.95898 0.40406 0.9292 0.0
H1166 H 0.99341 0.46479 0.92444 0.0
H1167 H 0.94979 0.4984 0.97178 0.0
H1168 H 0.97597 0.51969 0.98768 0.0
H1169 H 0.95156 0.47456 0.98742 0.0
H1170 H 0.0056 0.4714 0.99196 0.0
H1171 H 0.03021 0.51654 0.99214 0.0
H1172 H 0.04065 0.49282 0.97934 0.0
H1173 H 0.02803 0.52694 0.92475 0.0
H1174 H 0.05786 0.5877 0.92983 0.0
H1175 H 0.03271 0.56776 0.97698 0.0
C1176 C 0.96392 0.43226 0.9652 0.0
C1177 C 0.95466 0.40925 0.95322 0.0
C1178 C 0.96532 0.42132 0.9385 0.0
C1179 C 0.98512 0.45572 0.93569 0.0
C1180 C 0.99395 0.47773 0.94773 0.0
C1181 C 0.98352 0.46661 0.96217 0.0
C1182 C 0.99609 0.49577 0.97301 0.0
C1183 C 0.96659 0.49718 0.9804 0.0
C1184 C 0.01953 0.49401 0.98481 0.0
C1185 C 0.0152 0.52493 0.96239 0.0
C1186 C 0.01382 0.51387 0.94789 0.0
C1187 C 0.02941 0.53597 0.93606 0.0
C1188 C 0.04653 0.57041 0.93908 0.0
C1189 C 0.04783 0.58243 0.95381 0.0
C1190 C 0.03208 0.55928 0.96561 0.0
H1191 H 0.46104 0.03037 0.28298 0.0
H1192 H 0.43724 0.02722 0.33018 0.0
H1193 H 0.46746 0.99648 0.33542 0.0
H1194 H 0.4512 0.9485 0.28093 0.0
H1195 H 0.48556 0.96038 0.26808 0.0
H1196 H 0.4627 0.98276 0.26807 0.0
H1197 H 0.51807 0.03886 0.27228 0.0
H1198 H 0.54114 0.0167 0.27217 0.0
H1199 H 0.54464 0.04279 0.2879 0.0
H1200 H 0.49997 0.96573 0.33544 0.0
H1201 H 0.533 0.93784 0.33028 0.0
H1202 H 0.53575 0.96165 0.28309 0.0
C1203 C 0.46257 0.02362 0.29445 0.0
C1204 C 0.44685 0.03123 0.30618 0.0
C1205 C 0.44888 0.02139 0.321 0.0
C1206 C 0.46606 0.00403 0.3241 0.0
C1207 C 0.48098 0.99664 0.31224 0.0
C1208 C 0.47948 0.00619 0.29772 0.0
C1209 C 0.49729 0.99485 0.28697 0.0
C1210 C 0.47271 0.97015 0.27533 0.0
C1211 C 0.52705 0.02511 0.27939 0.0
C1212 C 0.50911 0.97747 0.29772 0.0
C1213 C 0.49947 0.97878 0.31224 0.0
C1214 C 0.50771 0.96461 0.32412 0.0
C1215 C 0.52655 0.94893 0.32109 0.0
C1216 C 0.53689 0.94751 0.30629 0.0
C1217 C 0.5278 0.96186 0.29449 0.0
H1218 H 0.32793 0.12147 0.19378 0.0
H1219 H 0.37731 0.22177 0.21279 0.0
H1220 H 0.37778 0.2453 0.18796 0.0
H1221 H 0.37403 0.14521 0.15844 0.0
H1222 H 0.33821 0.11577 0.14764 0.0
H1223 H 0.34223 0.10682 0.16692 0.0
H1224 H 0.28365 0.09946 0.17261 0.0
H1225 H 0.27957 0.1087 0.15339 0.0
H1226 H 0.27555 0.13302 0.16822 0.0
H1227 H 0.37071 0.25784 0.16147 0.0
H1228 H 0.36023 0.25899 0.13442 0.0
H1229 H 0.31734 0.15096 0.1323 0.0
C1230 C 0.33934 0.14842 0.19268 0.0
C1231 C 0.3523 0.16973 0.20529 0.0
C1232 C 0.36663 0.20486 0.20337 0.0
C1233 C 0.36718 0.21851 0.1893 0.0
C1234 C 0.35361 0.19676 0.1772 0.0
C1235 C 0.3403 0.16253 0.17868 0.0
C1236 C 0.32726 0.14478 0.16383 0.0
C1237 C 0.3466 0.12711 0.15892 0.0
C1238 C 0.28925 0.12003 0.16456 0.0
C1239 C 0.33515 0.17439 0.15382 0.0
C1240 C 0.35018 0.20411 0.16179 0.0
C1241 C 0.3591 0.23477 0.15508 0.0
C1242 C 0.35283 0.23514 0.13976 0.0
C1243 C 0.33795 0.20507 0.13132 0.0
C1244 C 0.32898 0.17434 0.13848 0.0
H1245 H 0.12116 0.30711 0.46968 0.0
H1246 H 0.19008 0.41064 0.4574 0.0
H1247 H 0.21497 0.42132 0.48268 0.0
H1248 H 0.10805 0.32315 0.50807 0.0
H1249 H 0.10669 0.28579 0.51514 0.0
H1250 H 0.09341 0.2867 0.49626 0.0
H1251 H 0.13594 0.26995 0.48626 0.0
H1252 H 0.14943 0.26909 0.5051 0.0
H1253 H 0.17968 0.29506 0.49117 0.0
H1254 H 0.23385 0.42016 0.50894 0.0
H1255 H 0.24385 0.40781 0.53472 0.0
H1256 H 0.16339 0.30476 0.52967 0.0
C1257 C 0.14147 0.33204 0.4723 0.0
C1258 C 0.15357 0.35808 0.46157 0.0
C1259 C 0.18001 0.39043 0.46551 0.0
C1260 C 0.19448 0.39669 0.4798 0.0
C1261 C 0.1822 0.37036 0.49004 0.0
C1262 C 0.15619 0.33872 0.48651 0.0
C1263 C 0.14793 0.31469 0.4995 0.0
C1264 C 0.11188 0.30184 0.50507 0.0
C1265 C 0.15359 0.28548 0.49525 0.0
C1266 C 0.17354 0.3377 0.51085 0.0
C1267 C 0.19308 0.36969 0.50517 0.0
C1268 C 0.21869 0.39521 0.51352 0.0
C1269 C 0.22435 0.38788 0.5281 0.0
C1270 C 0.20447 0.3553 0.53419 0.0
C1271 C 0.17878 0.32997 0.52538 0.0
H1272 H 0.80364 0.11861 0.80534 0.0
H1273 H 0.86827 0.21611 0.78526 0.0
H1274 H 0.88932 0.24005 0.81028 0.0
H1275 H 0.78108 0.14911 0.83779 0.0
H1276 H 0.78113 0.11833 0.85027 0.0
H1277 H 0.77163 0.1086 0.83073 0.0
H1278 H 0.81925 0.09417 0.82867 0.0
H1279 H 0.82895 0.10394 0.84821 0.0
H1280 H 0.86126 0.12484 0.83429 0.0
H1281 H 0.90236 0.25382 0.83735 0.0
H1282 H 0.90714 0.25633 0.86492 0.0
H1283 H 0.83396 0.15008 0.86752 0.0
C1284 C 0.82214 0.14501 0.80622 0.0
C1285 C 0.83447 0.16545 0.79334 0.0
C1286 C 0.85887 0.19984 0.79495 0.0
C1287 C 0.87085 0.21372 0.80911 0.0
C1288 C 0.85822 0.19289 0.82156 0.0
C1289 C 0.83447 0.15928 0.82029 0.0
C1290 C 0.82495 0.1425 0.83549 0.0
C1291 C 0.78748 0.12884 0.83876 0.0
C1292 C 0.83416 0.11472 0.83673 0.0
C1293 C 0.84696 0.172 0.8455 0.0
C1294 C 0.86591 0.20082 0.83723 0.0
C1295 C 0.88769 0.23142 0.84397 0.0
C1296 C 0.89011 0.23264 0.85961 0.0
C1297 C 0.87091 0.20342 0.86833 0.0
C1298 C 0.84921 0.17271 0.86113 0.0
H1299 H 0.68862 0.85578 0.1323 0.0
H1300 H 0.61048 0.75094 0.13218 0.0
H1301 H 0.60082 0.7545 0.15908 0.0
H1302 H 0.72231 0.85554 0.16807 0.0
H1303 H 0.73048 0.89681 0.17328 0.0
H1304 H 0.73065 0.88654 0.15384 0.0
H1305 H 0.6859 0.90356 0.14812 0.0
H1306 H 0.68562 0.91393 0.16755 0.0
H1307 H 0.64703 0.8843 0.15846 0.0
H1308 H 0.60106 0.76833 0.18597 0.0
H1309 H 0.61062 0.79212 0.21144 0.0
H1310 H 0.6875 0.88846 0.19431 0.0
C1311 C 0.6692 0.83371 0.1379 0.0
C1312 C 0.65048 0.803 0.13016 0.0
C1313 C 0.62555 0.77456 0.13793 0.0
C1314 C 0.61968 0.77639 0.15318 0.0
C1315 C 0.63879 0.80688 0.1605 0.0
C1316 C 0.66294 0.83509 0.15315 0.0
C1317 C 0.68046 0.86454 0.1638 0.0
C1318 C 0.71821 0.87655 0.1648 0.0
C1319 C 0.67438 0.89328 0.15921 0.0
C1320 C 0.66256 0.84832 0.17829 0.0
C1321 C 0.63861 0.81505 0.17609 0.0
C1322 C 0.61959 0.7944 0.18783 0.0
C1323 C 0.62531 0.80806 0.20225 0.0
C1324 C 0.64978 0.84205 0.2048 0.0
C1325 C 0.66839 0.8625 0.19262 0.0
H1326 H 0.82308 0.65228 0.53231 0.0
H1327 H 0.80728 0.73787 0.53177 0.0
H1328 H 0.82326 0.74714 0.50513 0.0
H1329 H 0.89696 0.68998 0.50853 0.0
H1330 H 0.88614 0.65098 0.49934 0.0
H1331 H 0.87303 0.65079 0.51836 0.0
H1332 H 0.81117 0.61049 0.51078 0.0
H1333 H 0.82406 0.61055 0.49175 0.0
H1334 H 0.79279 0.62217 0.49579 0.0
H1335 H 0.83887 0.74582 0.4783 0.0
H1336 H 0.85512 0.73512 0.45337 0.0
H1337 H 0.86465 0.65315 0.47188 0.0
C1338 C 0.82341 0.67331 0.5267 0.0
C1339 C 0.81368 0.69421 0.53421 0.0
C1340 C 0.81394 0.72104 0.52627 0.0
C1341 C 0.82327 0.72672 0.51114 0.0
C1342 C 0.83267 0.70562 0.50414 0.0
C1343 C 0.83306 0.67962 0.51168 0.0
C1344 C 0.84427 0.66062 0.50157 0.0
C1345 C 0.87705 0.66327 0.50729 0.0
C1346 C 0.81641 0.62378 0.49987 0.0
C1347 C 0.84986 0.67986 0.48711 0.0
C1348 C 0.84286 0.70562 0.48881 0.0
C1349 C 0.84474 0.72595 0.47686 0.0
C1350 C 0.85389 0.71968 0.46278 0.0
C1351 C 0.86134 0.69355 0.46084 0.0
C1352 C 0.85957 0.67362 0.47318 0.0
H1353 H 0.12845 0.8351 0.86296 0.0
H1354 H 0.15257 0.75571 0.86862 0.0
H1355 H 0.1708 0.76225 0.84232 0.0
H1356 H 0.09689 0.81396 0.82544 0.0
H1357 H 0.11465 0.85689 0.81938 0.0
H1358 H 0.10345 0.84618 0.83873 0.0
H1359 H 0.16407 0.88977 0.84672 0.0
H1360 H 0.17547 0.90062 0.82738 0.0
H1361 H 0.19895 0.88737 0.83888 0.0
H1362 H 0.18631 0.77694 0.81564 0.0
H1363 H 0.19826 0.79902 0.78989 0.0
H1364 H 0.16451 0.86922 0.80119 0.0
C1365 C 0.13776 0.81925 0.85868 0.0
C1366 C 0.13875 0.79465 0.86783 0.0
C1367 C 0.1509 0.77425 0.86177 0.0
C1368 C 0.16158 0.77794 0.84687 0.0
C1369 C 0.1601 0.80223 0.83815 0.0
C1370 C 0.14857 0.8226 0.84379 0.0
C1371 C 0.14948 0.84664 0.83193 0.0
C1372 C 0.114 0.84053 0.82868 0.0
C1373 C 0.17342 0.88327 0.8365 0.0
C1374 C 0.16323 0.83646 0.81876 0.0
C1375 C 0.16918 0.81082 0.82264 0.0
C1376 C 0.18167 0.79695 0.81243 0.0
C1377 C 0.18816 0.80952 0.7978 0.0
C1378 C 0.18208 0.83566 0.79348 0.0
C1379 C 0.16962 0.84939 0.80418 0.0
H1380 H 0.2402 0.94607 0.96936 0.0
H1381 H 0.28031 0.89791 0.99782 0.0
H1382 H 0.3185 0.95274 0.00955 0.0
H1383 H 0.32098 0.02678 0.96443 0.0
H1384 H 0.29927 0.05032 0.96457 0.0
H1385 H 0.27886 0.00826 0.95715 0.0
H1386 H 0.22909 0.99145 0.9754 0.0
H1387 H 0.24935 0.03318 0.98296 0.0
H1388 H 0.23716 0.99783 0.99523 0.0
H1389 H 0.34687 0.01182 0.02026 0.0
H1390 H 0.36191 0.06876 0.02896 0.0
H1391 H 0.30477 0.0774 0.99235 0.0
C1392 C 0.25787 0.94699 0.97761 0.0
C1393 C 0.25731 0.91753 0.98255 0.0
C1394 C 0.28004 0.92002 0.99389 0.0
C1395 C 0.30207 0.95113 0.00052 0.0
C1396 C 0.3014 0.97953 0.99552 0.0
C1397 C 0.28009 0.97767 0.98419 0.0
C1398 C 0.28185 0.01097 0.98162 0.0
C1399 C 0.2961 0.0249 0.96602 0.0
C1400 C 0.24733 0.00816 0.98395 0.0
C1401 C 0.3063 0.03159 0.99377 0.0
C1402 C 0.31782 0.01333 0.00154 0.0
C1403 C 0.33855 0.02654 0.01405 0.0
C1404 C 0.34705 0.05891 0.01888 0.0
C1405 C 0.33449 0.0774 0.0113 0.0
C1406 C 0.31469 0.0638 0.99836 0.0
H1407 H 0.23474 0.31342 0.32912 0.0
H1408 H 0.29163 0.35736 0.3697 0.0
H1409 H 0.33131 0.33815 0.36259 0.0
H1410 H 0.23788 0.24106 0.33076 0.0
H1411 H 0.24143 0.23661 0.3109 0.0
H1412 H 0.22146 0.25911 0.31767 0.0
H1413 H 0.26279 0.31139 0.30228 0.0
H1414 H 0.28277 0.28889 0.29532 0.0
H1415 H 0.30739 0.32868 0.3046 0.0
H1416 H 0.35982 0.30733 0.35278 0.0
H1417 H 0.37524 0.26831 0.34089 0.0
H1418 H 0.29853 0.24388 0.30714 0.0
C1419 C 0.25633 0.32018 0.3362 0.0
C1420 C 0.26042 0.33719 0.34986 0.0
C1421 C 0.28821 0.34446 0.35915 0.0
C1422 C 0.31091 0.33376 0.35517 0.0
C1423 C 0.30547 0.31595 0.34186 0.0
C1424 C 0.27899 0.30947 0.33245 0.0
C1425 C 0.27641 0.28676 0.31966 0.0
C1426 C 0.24229 0.25396 0.31977 0.0
C1427 C 0.28273 0.30503 0.30457 0.0
C1428 C 0.30483 0.28053 0.3236 0.0
C1429 C 0.32163 0.29791 0.33631 0.0
C1430 C 0.34721 0.29405 0.34267 0.0
C1431 C 0.35563 0.27166 0.33592 0.0
C1432 C 0.33835 0.25329 0.32299 0.0
C1433 C 0.31292 0.25824 0.31673 0.0
H1434 H 0.92403 0.26774 0.66045 0.0
H1435 H 0.94481 0.26686 0.70786 0.0
H1436 H 0.00483 0.30359 0.70306 0.0
H1437 H 0.98815 0.25673 0.64851 0.0
H1438 H 0.99892 0.28295 0.63211 0.0
H1439 H 0.95696 0.26349 0.63946 0.0
H1440 H 0.96115 0.32165 0.64161 0.0
H1441 H 0.00323 0.34136 0.63419 0.0
H1442 H 0.99533 0.35474 0.65195 0.0
H1443 H 0.06267 0.33133 0.693 0.0
H1444 H 0.11364 0.34692 0.67829 0.0
H1445 H 0.05672 0.32978 0.63724 0.0
C1446 C 0.94105 0.2758 0.66989 0.0
C1447 C 0.92925 0.26454 0.68457 0.0
C1448 C 0.95268 0.27574 0.69655 0.0
C1449 C 0.98707 0.29659 0.69394 0.0
C1450 C 0.99788 0.3062 0.67929 0.0
C1451 C 0.97558 0.29634 0.66745 0.0
C1452 C 0.99399 0.30643 0.65261 0.0
C1453 C 0.98391 0.27556 0.6426 0.0
C1454 C 0.98807 0.33261 0.64462 0.0
C1455 C 0.02996 0.32175 0.65795 0.0
C1456 C 0.0317 0.3221 0.67339 0.0
C1457 C 0.06179 0.33202 0.68091 0.0
C1458 C 0.09072 0.341 0.67243 0.0
C1459 C 0.08933 0.33976 0.65658 0.0
C1460 C 0.05866 0.33099 0.64933 0.0
H1461 H 0.67203 0.91464 0.98634 0.0
H1462 H 0.6328 0.9235 0.02921 0.0
H1463 H 0.64809 0.98166 0.02308 0.0
H1464 H 0.74299 0.9897 0.98801 0.0
H1465 H 0.74561 -0.00035 0.96836 0.0
H1466 H 0.72399 0.95663 0.97429 0.0
H1467 H 0.67025 0.94683 0.96044 0.0
H1468 H 0.69186 0.98999 0.95438 0.0
H1469 H 0.65284 0.97346 0.96448 0.0
H1470 H 0.67734 0.04166 0.01451 0.0
H1471 H 0.717 0.09747 0.00403 0.0
H1472 H 0.73933 0.04948 0.96752 0.0
C1473 C 0.6658 0.9285 0.99427 0.0
C1474 C 0.65109 0.91441 0.00822 0.0
C1475 C 0.64344 0.93343 0.01832 0.0
C1476 C 0.65217 0.96661 0.01495 0.0
C1477 C 0.66824 0.9803 0.0014 0.0
C1478 C 0.67463 0.96165 0.99114 0.0
C1479 C 0.69616 0.98321 0.97836 0.0
C1480 C 0.72912 0.98224 0.97721 0.0
C1481 C 0.6766 0.97275 0.96354 0.0
C1482 C 0.70241 0.01721 0.98343 0.0
C1483 C 0.68554 0.01502 0.99656 0.0
C1484 C 0.69011 0.04361 0.00406 0.0
C1485 C 0.7129 0.0752 0.9981 0.0
C1486 C 0.7311 0.07792 0.98487 0.0
C1487 C 0.72509 0.04839 0.97736 0.0
H1488 H 0.68844 0.76672 0.33746 0.0
H1489 H 0.62977 0.69754 0.30215 0.0
H1490 H 0.64809 0.65794 0.31075 0.0
H1491 H 0.75739 0.75662 0.33337 0.0
H1492 H 0.7679 0.76041 0.35298 0.0
H1493 H 0.74581 0.78032 0.34563 0.0
H1494 H 0.69822 0.74883 0.36504 0.0
H1495 H 0.7203 0.72888 0.37252 0.0
H1496 H 0.67756 0.70372 0.36618 0.0
H1497 H 0.67733 0.6285 0.32195 0.0
H1498 H 0.71584 0.61278 0.33413 0.0
H1499 H 0.75737 0.70381 0.36079 0.0
C1500 C 0.67851 0.74271 0.33188 0.0
C1501 C 0.65724 0.7348 0.31934 0.0
C1502 C 0.64584 0.70379 0.3119 0.0
C1503 C 0.65603 0.68118 0.31672 0.0
C1504 C 0.67773 0.69012 0.32894 0.0
C1505 C 0.68878 0.72019 0.33641 0.0
C1506 C 0.71474 0.7257 0.34814 0.0
C1507 C 0.74844 0.75764 0.34482 0.0
C1508 C 0.70192 0.72684 0.3639 0.0
C1509 C 0.71712 0.69439 0.34593 0.0
C1510 C 0.69529 0.67386 0.335 0.0
C1511 C 0.69433 0.64428 0.33062 0.0
C1512 C 0.71651 0.6357 0.33752 0.0
C1513 C 0.73962 0.65686 0.34854 0.0
C1514 C 0.73948 0.68641 0.35278 0.0
H1515 H 0.05574 0.75277 0.69166 0.0
H1516 H 0.10448 0.72533 0.65735 0.0
H1517 H 0.04915 0.68856 0.64561 0.0
H1518 H 0.97693 0.6698 0.69408 0.0
H1519 H 0.95207 0.68968 0.6969 0.0
H1520 H 0.99468 0.70952 0.70367 0.0
H1521 H 0.00862 0.7633 0.68875 0.0
H1522 H 0.96628 0.74366 0.68188 0.0
H1523 H 0.00086 0.76036 0.66886 0.0
H1524 H 0.98906 0.66018 0.63609 0.0
H1525 H 0.93093 0.64498 0.62929 0.0
H1526 H 0.9226 0.69041 0.67039 0.0
C1527 C 0.05482 0.73809 0.68201 0.0
C1528 C 0.08447 0.74165 0.67555 0.0
C1529 C 0.0821 0.72303 0.66251 0.0
C1530 C 0.05077 0.70187 0.65584 0.0
C1531 C 0.02209 0.69945 0.66242 0.0
C1532 C 0.02395 0.71697 0.67529 0.0
C1533 C 0.99024 0.71293 0.67941 0.0
C1534 C 0.97774 0.69437 0.69441 0.0
C1535 C 0.99161 0.74708 0.67973 0.0
C1536 C 0.96927 0.69149 0.66652 0.0
C1537 C 0.98779 0.68338 0.65695 0.0
C1538 C 0.97418 0.66586 0.64366 0.0
C1539 C 0.94113 0.65721 0.63991 0.0
C1540 C 0.92234 0.6665 0.64934 0.0
C1541 C 0.9364 0.68297 0.66299 0.0
H1542 H 0.03403 0.19764 0.99741 0.0
H1543 H 0.07674 0.25808 0.95748 0.0
H1544 H 0.13225 0.26589 0.96412 0.0
H1545 H 0.10379 0.2451 0.02139 0.0
H1546 H 0.10022 0.20921 0.03121 0.0
H1547 H 0.06347 0.20748 0.02316 0.0
H1548 H 0.05147 0.15451 0.00807 0.0
H1549 H 0.08814 0.15601 0.01612 0.0
H1550 H 0.08363 0.15584 0.99606 0.0
H1551 H 0.18328 0.26859 0.97533 0.0
H1552 H 0.22657 0.26491 0.99019 0.0
H1553 H 0.15093 0.20227 0.02275 0.0
C1554 C 0.05496 0.21214 0.98996 0.0
C1555 C 0.05105 0.22741 0.97696 0.0
C1556 C 0.07921 0.24658 0.96762 0.0
C1557 C 0.11081 0.251 0.97124 0.0
C1558 C 0.11386 0.23596 0.98421 0.0
C1559 C 0.08673 0.21678 0.9934 0.0
C1560 C 0.09704 0.20381 0.0068 0.0
C1561 C 0.09076 0.21721 0.02151 0.0
C1562 C 0.079 0.16525 0.00675 0.0
C1563 C 0.13425 0.21893 0.00375 0.0
C1564 C 0.14338 0.23735 0.99065 0.0
C1565 C 0.17645 0.2542 0.9856 0.0
C1566 C 0.20089 0.25215 0.99417 0.0
C1567 C 0.19216 0.23342 0.00765 0.0
C1568 C 0.15832 0.21651 0.01243 0.0
H1569 H 0.84818 0.0547 0.3086 0.0
H1570 H 0.78444 0.0098 0.3474 0.0
H1571 H 0.82825 0.05283 0.36365 0.0
H1572 H 0.92793 0.07868 0.32704 0.0
H1573 H 0.95043 0.11771 0.31696 0.0
H1574 H 0.91478 0.08233 0.30845 0.0
H1575 H 0.8867 0.11847 0.3042 0.0
H1576 H 0.92223 0.15392 0.31268 0.0
H1577 H 0.88061 0.13949 0.3199 0.0
H1578 H 0.87802 0.10131 0.37556 0.0
H1579 H 0.93026 0.15302 0.38234 0.0
H1580 H 0.96113 0.16747 0.33571 0.0
C1581 C 0.84371 0.05374 0.32054 0.0
C1582 C 0.81299 0.02901 0.32678 0.0
C1583 C 0.80773 0.02877 0.34241 0.0
C1584 C 0.83251 0.05295 0.35173 0.0
C1585 C 0.86237 0.07722 0.34522 0.0
C1586 C 0.8681 0.07788 0.33 0.0
C1587 C 0.90183 0.10758 0.32581 0.0
C1588 C 0.92512 0.09586 0.31917 0.0
C1589 C 0.89757 0.13126 0.31502 0.0
C1590 C 0.91401 0.12359 0.34104 0.0
C1591 C 0.89096 0.10555 0.35209 0.0
C1592 C 0.8963 0.11568 0.36701 0.0
C1593 C 0.92594 0.14521 0.37073 0.0
C1594 C 0.9498 0.16439 0.35957 0.0
C1595 C 0.94368 0.15316 0.34455 0.0
H1596 H 0.79577 0.84996 0.6452 0.0
H1597 H 0.72464 0.77134 0.67461 0.0
H1598 H 0.71845 0.81344 0.68918 0.0
H1599 H 0.83678 0.91285 0.6742 0.0
H1600 H 0.84239 0.94701 0.66236 0.0
H1601 H 0.84144 0.91067 0.65426 0.0
H1602 H 0.79313 0.90246 0.63663 0.0
H1603 H 0.79389 0.93871 0.64468 0.0
H1604 H 0.75539 0.89889 0.64452 0.0
H1605 H 0.71907 0.86371 0.70028 0.0
H1606 H 0.72721 0.91915 0.70741 0.0
H1607 H 0.79854 0.96521 0.67106 0.0
C1608 C 0.77918 0.84162 0.6548 0.0
C1609 C 0.76052 0.80727 0.65868 0.0
C1610 C 0.73875 0.7974 0.67123 0.0
C1611 C 0.73523 0.82116 0.67966 0.0
C1612 C 0.75378 0.85472 0.67545 0.0
C1613 C 0.77543 0.86501 0.66337 0.0
C1614 C 0.79222 0.90263 0.66116 0.0
C1615 C 0.83048 0.91927 0.66312 0.0
C1616 C 0.7831 0.91116 0.64584 0.0
C1617 C 0.77646 0.91182 0.67385 0.0
C1618 C 0.75437 0.88381 0.68195 0.0
C1619 C 0.73634 0.88585 0.69404 0.0
C1620 C 0.74098 0.9174 0.69794 0.0
C1621 C 0.76348 0.94648 0.68979 0.0
C1622 C 0.78149 0.94352 0.67762 0.0
H1623 H 0.8374 0.80556 0.00679 0.0
H1624 H 0.79813 0.71716 0.03502 0.0
H1625 H 0.84438 0.708 0.02699 0.0
H1626 H 0.86142 0.77143 0.97638 0.0
H1627 H 0.89884 0.81032 0.97187 0.0
H1628 H 0.86358 0.81089 0.98034 0.0
H1629 H 0.90189 0.84829 0.00181 0.0
H1630 H 0.93728 0.84784 0.9934 0.0
H1631 H 0.92596 0.83442 0.01253 0.0
H1632 H 0.89404 0.70797 0.01578 0.0
H1633 H 0.94351 0.71611 0.0016 0.0
H1634 H 0.94991 0.80363 0.97991 0.0
C1635 C 0.83884 0.78453 0.01139 0.0
C1636 C 0.81433 0.76207 0.02155 0.0
C1637 C 0.8166 0.73449 0.02716 0.0
C1638 C 0.84282 0.72919 0.02272 0.0
C1639 C 0.86643 0.75161 0.01261 0.0
C1640 C 0.86469 0.77867 0.00696 0.0
C1641 C 0.89261 0.7982 0.99579 0.0
C1642 C 0.87825 0.79766 0.98017 0.0
C1643 C 0.91581 0.83433 0.00121 0.0
C1644 C 0.91034 0.7779 0.99608 0.0
C1645 C 0.89485 0.75123 0.00589 0.0
C1646 C 0.90634 0.72869 0.00801 0.0
C1647 C 0.93432 0.7334 -0.00019 0.0
C1648 C 0.95046 0.76033 0.98953 0.0
C1649 C 0.93833 0.78297 0.98776 0.0
H1650 H 0.06779 0.84258 0.35609 0.0
H1651 H 0.99119 0.81338 0.32188 0.0
H1652 H 0.03198 0.85869 0.30545 0.0
H1653 H 0.10713 0.93222 0.34974 0.0
H1654 H 0.14892 0.93961 0.35319 0.0
H1655 H 0.11348 0.90516 0.36227 0.0
H1656 H 0.13113 0.86395 0.35146 0.0
H1657 H 0.16651 0.89825 0.34229 0.0
H1658 H 0.13656 0.86264 0.33153 0.0
H1659 H 0.08182 0.90547 0.29236 0.0
H1660 H 0.13633 0.95227 0.284 0.0
H1661 H 0.17951 0.95259 0.32732 0.0
C1662 C 0.05966 0.84578 0.34514 0.0
C1663 C 0.02638 0.82458 0.34023 0.0
C1664 C 0.0165 0.82964 0.32589 0.0
C1665 C 0.03951 0.85515 0.31647 0.0
C1666 C 0.07219 0.87551 0.32161 0.0
C1667 C 0.08219 0.87132 0.33565 0.0
C1668 C 0.1187 0.89677 0.33852 0.0
C1669 C 0.12225 0.9198 0.35171 0.0
C1670 C 0.13944 0.87935 0.3411 0.0
C1671 C 0.12777 0.91567 0.32382 0.0
C1672 C 0.10065 0.90297 0.3142 0.0
C1673 C 0.10317 0.91589 0.29985 0.0
C1674 C 0.13422 0.94264 0.29524 0.0
C1675 C 0.16234 0.95637 0.30499 0.0
C1676 C 0.15879 0.94254 0.31948 0.0
H1677 H 0.19808 0.03037 0.6691 0.0
H1678 H 0.27043 0.08086 0.7047 0.0
H1679 H 0.27767 0.13515 0.69634 0.0
H1680 H 0.23943 0.09331 0.64136 0.0
H1681 H 0.20145 0.08888 0.63333 0.0
H1682 H 0.20089 0.05362 0.64237 0.0
H1683 H 0.15331 0.04736 0.65999 0.0
H1684 H 0.15365 0.08257 0.65097 0.0
H1685 H 0.15923 0.08282 0.67095 0.0
H1686 H 0.27851 0.18386 0.68385 0.0
H1687 H 0.27233 0.22446 0.66813 0.0
H1688 H 0.19911 0.14289 0.64058 0.0
C1689 C 0.21507 0.0528 0.67526 0.0
C1690 C 0.23381 0.05139 0.68752 0.0
C1691 C 0.25618 0.08138 0.69515 0.0
C1692 C 0.26031 0.11231 0.69055 0.0
C1693 C 0.2418 0.11286 0.67833 0.0
C1694 C 0.21952 0.08396 0.67081 0.0
C1695 C 0.20327 0.09177 0.65782 0.0
C1696 C 0.21178 0.08127 0.64284 0.0
C1697 C 0.1651 0.07514 0.66007 0.0
C1698 C 0.22016 0.12961 0.65916 0.0
C1699 C 0.24223 0.14117 0.6711 0.0
C1700 C 0.26129 0.17515 0.67448 0.0
C1701 C 0.25778 0.19802 0.66542 0.0
C1702 C 0.23543 0.18687 0.65307 0.0
C1703 C 0.21622 0.15213 0.65 0.0
loop_
_geom_bond_atom_site_label_1
_geom_bond_atom_site_label_2
_geom_bond_distance
_geom_bond_site_symmetry_2
_ccdc_geom_bond_type
Li0 N17 1.990 . S
Li0 O60 1.956 . S
Li0 O61 1.970 . S
Li0 O62 1.961 . S
Li1 N25 1.990 . S
Li1 O60 1.970 . S
Li1 O61 1.956 . S
Li1 O63 1.961 . S
Li2 N47 1.990 . S
Li2 O60 1.961 . S
Li2 O62 1.956 . S
Li2 O63 1.970 . S
Li3 N53 1.990 . S
Li3 O61 1.961 . S
Li3 O62 1.970 . S
Li3 O63 1.956 . S
C4 C6 1.348 . S
C4 C7 1.356 . S
C4 O60 1.325 . S
N5 C8 1.314 . S
N5 C9 1.279 . S
C6 C4 1.348 . S
C6 C8 1.353 . S
C6 H64 0.929 . S
C7 C4 1.356 . S
C7 C9 1.358 . S
C7 H65 0.930 . S
C8 N5 1.314 . S
C8 C6 1.353 . S
C8 H66 0.930 . S
C9 N5 1.279 . S
C9 C7 1.358 . S
C9 H67 0.930 . S
C10 C13 1.348 . S
C10 C14 1.356 . S
C10 O61 1.325 . S
C11 N12 1.279 . S
C11 C14 1.358 . S
C11 H68 0.930 . S
N12 C11 1.279 . S
N12 C15 1.314 . S
C13 C10 1.348 . S
C13 C15 1.353 . S
C13 H69 0.929 . S
C14 C10 1.356 . S
C14 C11 1.358 . S
C14 H70 0.930 . S
C15 N12 1.314 . S
C15 C13 1.353 . S
C15 H71 0.930 . S
C16 N17 1.314 . S
C16 C21 1.353 . S
C16 H22 0.930 . S
N17 Li0 1.990 . S
N17 C16 1.314 . S
N17 C19 1.279 . S
C18 C19 1.358 . S
C18 C20 1.356 . S
C18 H72 0.930 . S
C19 N17 1.279 . S
C19 C18 1.358 . S
C19 H23 0.930 . S
C20 C18 1.356 . S
C20 C21 1.348 . S
C21 C16 1.353 . S
C21 C20 1.348 . S
C21 H73 0.929 . S
H22 C16 0.930 . S
H23 C19 0.930 . S
C24 N25 1.314 . S
C24 C26 1.353 . S
C24 H30 0.930 . S
N25 Li1 1.990 . S
N25 C24 1.314 . S
N25 C28 1.279 . S
C26 C24 1.353 . S
C26 C29 1.348 . S
C26 H74 0.929 . S
C27 C28 1.358 . S
C27 C29 1.356 . S
C27 H75 0.930 . S
C28 N25 1.279 . S
C28 C27 1.358 . S
C28 H31 0.930 . S
C29 C26 1.348 . S
C29 C27 1.356 . S
H30 C24 0.930 . S
H31 C28 0.930 . S
C32 C34 1.389 . S
C32 C35 1.367 . S
C32 O62 1.325 . S
N33 C36 1.314 . S
N33 C37 1.279 . S
C34 C32 1.389 . S
C34 C36 1.278 1_554 S
C34 H76 0.967 . S
C35 C32 1.367 . S
C35 C37 1.340 1_554 S
C35 H77 0.938 . S
C36 N33 1.314 . S
C36 C34 1.278 1_556 S
C36 H78 0.930 . S
C37 N33 1.279 . S
C37 C35 1.340 1_556 S
C37 H79 0.930 . S
C38 C39 1.348 . S
C38 C40 1.356 . S
C38 O63 1.325 . S
C39 C38 1.348 . S
C39 C41 1.353 . S
C39 H80 0.929 . S
C40 C38 1.356 . S
C40 C42 1.358 . S
C40 H81 0.930 . S
C41 C39 1.353 . S
C41 N43 1.314 . S
C41 H82 0.930 . S
C42 C40 1.358 . S
C42 N43 1.279 . S
C42 H83 0.930 . S
N43 C41 1.314 . S
N43 C42 1.279 . S
C44 C46 1.353 . S
C44 N47 1.314 . S
C44 H50 0.930 . S
C45 N47 1.279 . S
C45 C48 1.358 1_554 S
C45 H51 0.963 . S
C46 C44 1.353 . S
C46 C49 1.348 . S
C46 H84 0.929 . S
N47 Li2 1.990 . S
N47 C44 1.314 . S
N47 C45 1.279 . S
C48 C45 1.358 1_556 S
C48 C49 1.356 1_556 S
C48 H85 0.930 . S
C49 C46 1.348 . S
C49 C48 1.356 1_554 S
H50 C44 0.930 . S
H51 C45 0.963 . S
C52 N53 1.314 . S
C52 C54 1.353 . S
C52 H58 0.930 . S
N53 Li3 1.990 . S
N53 C52 1.314 . S
N53 C56 1.279 . S
C54 C52 1.353 . S
C54 C57 1.348 . S
C54 H86 0.929 . S
C55 C56 1.358 . S
C55 C57 1.356 . S
C55 H87 0.930 . S
C56 N53 1.279 . S
C56 C55 1.358 . S
C56 H59 0.930 . S
C57 C54 1.348 . S
C57 C55 1.356 . S
H58 C52 0.930 . S
H59 C56 0.930 . S
O60 Li0 1.956 . S
O60 Li1 1.970 . S
O60 Li2 1.961 . S
O60 C4 1.325 . S
O61 Li0 1.970 . S
O61 Li1 1.956 . S
O61 Li3 1.961 . S
O61 C10 1.325 . S
O62 Li0 1.961 . S
O62 Li2 1.956 . S
O62 Li3 1.970 . S
O62 C32 1.325 . S
O63 Li1 1.961 . S
O63 Li2 1.970 . S
O63 Li3 1.956 . S
O63 C38 1.325 . S
H64 C6 0.929 . S
H65 C7 0.930 . S
H66 C8 0.930 . S
H67 C9 0.930 . S
H68 C11 0.930 . S
H69 C13 0.929 . S
H70 C14 0.930 . S
H71 C15 0.930 . S
H72 C18 0.930 . S
H73 C21 0.929 . S
H74 C26 0.929 . S
H75 C27 0.930 . S
H76 C34 0.967 . S
H77 C35 0.938 . S
H78 C36 0.930 . S
H79 C37 0.930 . S
H80 C39 0.929 . S
H81 C40 0.930 . S
H82 C41 0.930 . S
H83 C42 0.930 . S
H84 C46 0.929 . S
H85 C48 0.930 . S
H86 C54 0.929 . S
H87 C55 0.930 . S
Li88 N105 1.990 . S
Li88 O148 1.956 . S
Li88 O149 1.970 . S
Li88 O150 1.961 . S
Li89 N113 1.990 . S
Li89 O148 1.970 . S
Li89 O149 1.956 . S
Li89 O151 1.961 . S
Li90 N135 1.990 . S
Li90 O148 1.961 . S
Li90 O150 1.956 . S
Li90 O151 1.970 . S
Li91 N141 1.990 . S
Li91 O149 1.961 . S
Li91 O150 1.970 . S
Li91 O151 1.956 . S
C92 C94 1.348 . S
C92 C95 1.356 . S
C92 O148 1.325 . S
N93 C96 1.314 . S
N93 C97 1.279 . S
C94 C92 1.348 . S
C94 C96 1.353 . S
C94 H152 0.929 . S
C95 C92 1.356 . S
C95 C97 1.358 . S
C95 H153 0.930 . S
C96 N93 1.314 . S
C96 C94 1.353 . S
C96 H154 0.930 . S
C97 N93 1.279 . S
C97 C95 1.358 . S
C97 H155 0.930 . S
C98 C101 1.348 . S
C98 C102 1.356 . S
C98 O149 1.325 . S
C99 N100 1.279 1_455 S
C99 C102 1.358 . S
C99 H156 0.930 1_455 S
N100 C99 1.279 1_655 S
N100 C103 1.314 1_655 S
C101 C98 1.348 . S
C101 C103 1.353 . S
C101 H157 0.929 . S
C102 C98 1.356 . S
C102 C99 1.358 . S
C102 H158 0.930 . S
C103 N100 1.314 1_455 S
C103 C101 1.353 . S
C103 H159 0.930 . S
C104 N105 1.314 . S
C104 C109 1.353 . S
C104 H110 0.930 . S
N105 Li88 1.990 . S
N105 C104 1.314 . S
N105 C107 1.279 . S
C106 C107 1.358 . S
C106 C108 1.356 . S
C106 H160 0.930 . S
C107 N105 1.279 . S
C107 C106 1.358 . S
C107 H111 0.930 . S
C108 C106 1.356 . S
C108 C109 1.348 . S
C109 C104 1.353 . S
C109 C108 1.348 . S
C109 H161 0.929 . S
H110 C104 0.930 . S
H111 C107 0.930 . S
C112 N113 1.314 . S
C112 C114 1.353 . S
C112 H118 0.930 . S
N113 Li89 1.990 . S
N113 C112 1.314 . S
N113 C116 1.279 . S
C114 C112 1.353 . S
C114 C117 1.348 . S
C114 H162 0.929 . S
C115 C116 1.358 . S
C115 C117 1.356 . S
C115 H163 0.930 . S
C116 N113 1.279 . S
C116 C115 1.358 . S
C116 H119 0.930 . S
C117 C114 1.348 . S
C117 C115 1.356 . S
H118 C112 0.930 . S
H119 C116 0.930 . S
C120 C122 1.348 . S
C120 C123 1.356 . S
C120 O150 1.325 . S
N121 C124 1.314 . S
N121 C125 1.279 . S
C122 C120 1.348 . S
C122 C124 1.353 . S
C122 H164 0.929 . S
C123 C120 1.356 . S
C123 C125 1.358 . S
C123 H165 0.930 . S
C124 N121 1.314 . S
C124 C122 1.353 . S
C124 H166 0.930 . S
C125 N121 1.279 . S
C125 C123 1.358 . S
C125 H167 0.930 . S
C126 C127 1.348 . S
C126 C128 1.356 . S
C126 O151 1.325 . S
C127 C126 1.348 . S
C127 C129 1.353 . S
C127 H168 0.929 . S
C128 C126 1.356 . S
C128 C130 1.358 . S
C128 H169 0.930 . S
C129 C127 1.353 . S
C129 N131 1.314 . S
C129 H170 0.930 . S
C130 C128 1.358 . S
C130 N131 1.279 . S
C130 H171 0.930 . S
N131 C129 1.314 . S
N131 C130 1.279 . S
C132 C134 1.353 . S
C132 N135 1.314 . S
C132 H138 0.930 . S
C133 N135 1.279 . S
C133 C136 1.358 . S
C133 H139 0.930 . S
C134 C132 1.353 . S
C134 C137 1.348 . S
C134 H172 0.929 . S
N135 Li90 1.990 . S
N135 C132 1.314 . S
N135 C133 1.279 . S
C136 C133 1.358 . S
C136 C137 1.356 . S
C136 H173 0.930 . S
C137 C134 1.348 . S
C137 C136 1.356 . S
H138 C132 0.930 . S
H139 C133 0.930 . S
C140 N141 1.291 1_655 S
C140 C142 1.367 . S
C140 H146 0.955 1_655 S
N141 Li91 1.990 . S
N141 C140 1.291 1_455 S
N141 C144 1.279 . S
C142 C140 1.367 . S
C142 C145 1.348 . S
C142 H174 0.929 . S
C143 C144 1.358 1_655 S
C143 C145 1.356 . S
C143 H175 0.930 . S
C144 N141 1.279 . S
C144 C143 1.358 1_455 S
C144 H147 0.930 . S
C145 C142 1.348 . S
C145 C143 1.356 . S
H146 C140 0.955 1_455 S
H147 C144 0.930 . S
O148 Li88 1.956 . S
O148 Li89 1.970 . S
O148 Li90 1.961 . S
O148 C92 1.325 . S
O149 Li88 1.970 . S
O149 Li89 1.956 . S
O149 Li91 1.961 . S
O149 C98 1.325 . S
O150 Li88 1.961 . S
O150 Li90 1.956 . S
O150 Li91 1.970 . S
O150 C120 1.325 . S
O151 Li89 1.961 . S
O151 Li90 1.970 . S
O151 Li91 1.956 . S
O151 C126 1.325 . S
H152 C94 0.929 . S
H153 C95 0.930 . S
H154 C96 0.930 . S
H155 C97 0.930 . S
H156 C99 0.930 1_655 S
H157 C101 0.929 . S
H158 C102 0.930 . S
H159 C103 0.930 . S
H160 C106 0.930 . S
H161 C109 0.929 . S
H162 C114 0.929 . S
H163 C115 0.930 . S
H164 C122 0.929 . S
H165 C123 0.930 . S
H166 C124 0.930 . S
H167 C125 0.930 . S
H168 C127 0.929 . S
H169 C128 0.930 . S
H170 C129 0.930 . S
H171 C130 0.930 . S
H172 C134 0.929 . S
H173 C136 0.930 . S
H174 C142 0.929 . S
H175 C143 0.930 . S
Li176 N193 1.990 . S
Li176 O236 1.956 . S
Li176 O237 1.970 . S
Li176 O238 1.961 . S
Li177 N201 1.990 . S
Li177 O236 1.970 . S
Li177 O237 1.956 . S
Li177 O239 1.961 . S
Li178 N223 1.990 . S
Li178 O236 1.961 . S
Li178 O238 1.956 . S
Li178 O239 1.970 . S
Li179 N229 1.990 . S
Li179 O237 1.961 . S
Li179 O238 1.970 . S
Li179 O239 1.956 . S
C180 C182 1.348 . S
C180 C183 1.356 . S
C180 O236 1.325 . S
N181 C184 1.314 1_565 S
N181 C185 1.279 1_565 S
C182 C180 1.348 . S
C182 C184 1.353 . S
C182 H240 0.929 . S
C183 C180 1.356 . S
C183 C185 1.358 . S
C183 H241 0.930 . S
C184 N181 1.314 1_545 S
C184 C182 1.353 . S
C184 H242 0.930 . S
C185 N181 1.279 1_545 S
C185 C183 1.358 . S
C185 H243 0.930 1_545 S
C186 C189 1.348 . S
C186 C190 1.356 . S
C186 O237 1.325 . S
C187 N188 1.279 . S
C187 C190 1.358 . S
C187 H244 0.930 . S
N188 C187 1.279 . S
N188 C191 1.314 . S
C189 C186 1.348 . S
C189 C191 1.353 . S
C189 H245 0.929 . S
C190 C186 1.356 . S
C190 C187 1.358 . S
C190 H246 0.930 . S
C191 N188 1.314 . S
C191 C189 1.353 . S
C191 H247 0.930 . S
C192 N193 1.314 . S
C192 C197 1.353 . S
C192 H198 0.930 . S
N193 Li176 1.990 . S
N193 C192 1.314 . S
N193 C195 1.279 . S
C194 C195 1.358 . S
C194 C196 1.356 . S
C194 H248 0.930 . S
C195 N193 1.279 . S
C195 C194 1.358 . S
C195 H199 0.930 . S
C196 C194 1.356 . S
C196 C197 1.348 . S
C197 C192 1.353 . S
C197 C196 1.348 . S
C197 H249 0.929 . S
H198 C192 0.930 . S
H199 C195 0.930 . S
C200 N201 1.314 . S
C200 C202 1.353 . S
C200 H206 0.930 . S
N201 Li177 1.990 . S
N201 C200 1.314 . S
N201 C204 1.279 . S
C202 C200 1.353 . S
C202 C205 1.348 . S
C202 H250 0.929 . S
C203 C204 1.358 . S
C203 C205 1.356 . S
C203 H251 0.930 . S
C204 N201 1.279 . S
C204 C203 1.358 . S
C204 H207 0.930 . S
C205 C202 1.348 . S
C205 C203 1.356 . S
H206 C200 0.930 . S
H207 C204 0.930 . S
C208 C210 1.348 . S
C208 C211 1.356 . S
C208 O238 1.325 . S
N209 C212 1.314 . S
N209 C213 1.279 . S
C210 C208 1.348 . S
C210 C212 1.353 . S
C210 H252 0.929 . S
C211 C208 1.356 . S
C211 C213 1.358 . S
C211 H253 0.930 . S
C212 N209 1.314 . S
C212 C210 1.353 . S
C212 H254 0.930 . S
C213 N209 1.279 . S
C213 C211 1.358 . S
C213 H255 0.930 . S
C214 C215 1.348 . S
C214 C216 1.356 . S
C214 O239 1.325 . S
C215 C214 1.348 . S
C215 C217 1.353 . S
C215 H256 0.929 . S
C216 C214 1.356 . S
C216 C218 1.358 . S
C216 H257 0.930 . S
C217 C215 1.353 . S
C217 N219 1.314 . S
C217 H258 0.930 . S
C218 C216 1.358 . S
C218 N219 1.279 . S
C218 H259 0.930 . S
N219 C217 1.314 . S
N219 C218 1.279 . S
C220 C222 1.377 . S
C220 N223 1.303 1_565 S
C220 H226 0.900 1_565 S
C221 N223 1.279 . S
C221 C224 1.358 1_545 S
C221 H227 0.930 . S
C222 C220 1.377 . S
C222 C225 1.348 . S
C222 H260 0.929 . S
N223 Li178 1.990 . S
N223 C220 1.303 1_545 S
N223 C221 1.279 . S
C224 C221 1.358 1_565 S
C224 C225 1.356 . S
C224 H261 0.930 . S
C225 C222 1.348 . S
C225 C224 1.356 . S
H226 C220 0.900 1_545 S
H227 C221 0.930 . S
C228 N229 1.314 . S
C228 C230 1.353 . S
C228 H234 0.930 . S
N229 Li179 1.990 . S
N229 C228 1.314 . S
N229 C232 1.279 . S
C230 C228 1.353 . S
C230 C233 1.348 . S
C230 H262 0.929 . S
C231 C232 1.358 . S
C231 C233 1.356 . S
C231 H263 0.930 . S
C232 N229 1.279 . S
C232 C231 1.358 . S
C232 H235 0.930 . S
C233 C230 1.348 . S
C233 C231 1.356 . S
H234 C228 0.930 . S
H235 C232 0.930 . S
O236 Li176 1.956 . S
O236 Li177 1.970 . S
O236 Li178 1.961 . S
O236 C180 1.325 . S
O237 Li176 1.970 . S
O237 Li177 1.956 . S
O237 Li179 1.961 . S
O237 C186 1.325 . S
O238 Li176 1.961 . S
O238 Li178 1.956 . S
O238 Li179 1.970 . S
O238 C208 1.325 . S
O239 Li177 1.961 . S
O239 Li178 1.970 . S
O239 Li179 1.956 . S
O239 C214 1.325 . S
H240 C182 0.929 . S
H241 C183 0.930 . S
H242 C184 0.930 . S
H243 C185 0.930 1_565 S
H244 C187 0.930 . S
H245 C189 0.929 . S
H246 C190 0.930 . S
H247 C191 0.930 . S
H248 C194 0.930 . S
H249 C197 0.929 . S
H250 C202 0.929 . S
H251 C203 0.930 . S
H252 C210 0.929 . S
H253 C211 0.930 . S
H254 C212 0.930 . S
H255 C213 0.930 . S
H256 C215 0.929 . S
H257 C216 0.930 . S
H258 C217 0.930 . S
H259 C218 0.930 . S
H260 C222 0.929 . S
H261 C224 0.930 . S
H262 C230 0.929 . S
H263 C231 0.930 . S
Li264 N281 1.990 . S
Li264 O324 1.956 . S
Li264 O325 1.970 . S
Li264 O326 1.961 . S
Li265 N289 1.990 . S
Li265 O324 1.970 . S
Li265 O325 1.956 . S
Li265 O327 1.961 . S
Li266 N311 1.990 . S
Li266 O324 1.961 . S
Li266 O326 1.956 . S
Li266 O327 1.970 . S
Li267 N317 1.990 . S
Li267 O325 1.961 . S
Li267 O326 1.970 . S
Li267 O327 1.956 . S
C268 C270 1.348 . S
C268 C271 1.356 . S
C268 O324 1.325 . S
N269 C272 1.314 . S
N269 C273 1.279 . S
C270 C268 1.348 . S
C270 C272 1.353 . S
C270 H328 0.929 . S
C271 C268 1.356 . S
C271 C273 1.358 . S
C271 H329 0.930 . S
C272 N269 1.314 . S
C272 C270 1.353 . S
C272 H330 0.930 . S
C273 N269 1.279 . S
C273 C271 1.358 . S
C273 H331 0.930 . S
C274 C277 1.348 . S
C274 C278 1.356 . S
C274 O325 1.325 . S
C275 N276 1.279 . S
C275 C278 1.358 . S
C275 H332 0.930 . S
N276 C275 1.279 . S
N276 C279 1.314 . S
C277 C274 1.348 . S
C277 C279 1.353 . S
C277 H333 0.929 . S
C278 C274 1.356 . S
C278 C275 1.358 . S
C278 H334 0.930 . S
C279 N276 1.314 . S
C279 C277 1.353 . S
C279 H335 0.930 . S
C280 N281 1.314 . S
C280 C285 1.353 . S
C280 H286 0.930 . S
N281 Li264 1.990 . S
N281 C280 1.314 . S
N281 C283 1.279 . S
C282 C283 1.358 . S
C282 C284 1.356 . S
C282 H336 0.930 . S
C283 N281 1.279 . S
C283 C282 1.358 . S
C283 H287 0.930 . S
C284 C282 1.356 . S
C284 C285 1.348 . S
C285 C280 1.353 . S
C285 C284 1.348 . S
C285 H337 0.929 . S
H286 C280 0.930 . S
H287 C283 0.930 . S
C288 N289 1.314 . S
C288 C290 1.353 . S
C288 H294 0.930 . S
N289 Li265 1.990 . S
N289 C288 1.314 . S
N289 C292 1.279 . S
C290 C288 1.353 . S
C290 C293 1.348 . S
C290 H338 0.929 . S
C291 C292 1.358 . S
C291 C293 1.356 . S
C291 H339 0.930 . S
C292 N289 1.279 . S
C292 C291 1.358 . S
C292 H295 0.930 . S
C293 C290 1.348 . S
C293 C291 1.356 . S
H294 C288 0.930 . S
H295 C292 0.930 . S
C296 C298 1.348 . S
C296 C299 1.356 . S
C296 O326 1.325 . S
N297 C300 1.314 . S
N297 C301 1.279 . S
C298 C296 1.348 . S
C298 C300 1.353 . S
C298 H340 0.929 . S
C299 C296 1.356 . S
C299 C301 1.358 . S
C299 H341 0.930 . S
C300 N297 1.314 . S
C300 C298 1.353 . S
C300 H342 0.930 . S
C301 N297 1.279 . S
C301 C299 1.358 . S
C301 H343 0.930 . S
C302 C303 1.389 . S
C302 C304 1.367 . S
C302 O327 1.325 . S
C303 C302 1.389 . S
C303 C305 1.278 1_554 S
C303 H344 0.967 . S
C304 C302 1.367 . S
C304 C306 1.340 1_554 S
C304 H345 0.938 . S
C305 C303 1.278 1_556 S
C305 N307 1.314 . S
C305 H346 0.930 . S
C306 C304 1.340 1_556 S
C306 N307 1.279 . S
C306 H347 0.930 . S
N307 C305 1.314 . S
N307 C306 1.279 . S
C308 C310 1.353 . S
C308 N311 1.314 . S
C308 H314 0.930 . S
C309 N311 1.279 . S
C309 C312 1.358 . S
C309 H315 0.930 . S
C310 C308 1.353 . S
C310 C313 1.348 . S
C310 H348 0.929 . S
N311 Li266 1.990 . S
N311 C308 1.314 . S
N311 C309 1.279 . S
C312 C309 1.358 . S
C312 C313 1.356 . S
C312 H349 0.930 . S
C313 C310 1.348 . S
C313 C312 1.356 . S
H314 C308 0.930 . S
H315 C309 0.930 . S
C316 N317 1.314 . S
C316 C318 1.353 . S
C316 H322 0.930 . S
N317 Li267 1.990 . S
N317 C316 1.314 . S
N317 C320 1.279 . S
C318 C316 1.353 . S
C318 C321 1.348 . S
C318 H350 0.929 . S
C319 C320 1.358 1_556 S
C319 C321 1.356 1_556 S
C319 H351 0.930 . S
C320 N317 1.279 . S
C320 C319 1.358 1_554 S
C320 H323 0.963 . S
C321 C318 1.348 . S
C321 C319 1.356 1_554 S
H322 C316 0.930 . S
H323 C320 0.963 . S
O324 Li264 1.956 . S
O324 Li265 1.970 . S
O324 Li266 1.961 . S
O324 C268 1.325 . S
O325 Li264 1.970 . S
O325 Li265 1.956 . S
O325 Li267 1.961 . S
O325 C274 1.325 . S
O326 Li264 1.961 . S
O326 Li266 1.956 . S
O326 Li267 1.970 . S
O326 C296 1.325 . S
O327 Li265 1.961 . S
O327 Li266 1.970 . S
O327 Li267 1.956 . S
O327 C302 1.325 . S
H328 C270 0.929 . S
H329 C271 0.930 . S
H330 C272 0.930 . S
H331 C273 0.930 . S
H332 C275 0.930 . S
H333 C277 0.929 . S
H334 C278 0.930 . S
H335 C279 0.930 . S
H336 C282 0.930 . S
H337 C285 0.929 . S
H338 C290 0.929 . S
H339 C291 0.930 . S
H340 C298 0.929 . S
H341 C299 0.930 . S
H342 C300 0.930 . S
H343 C301 0.930 . S
H344 C303 0.967 . S
H345 C304 0.938 . S
H346 C305 0.930 . S
H347 C306 0.930 . S
H348 C310 0.929 . S
H349 C312 0.930 . S
H350 C318 0.929 . S
H351 C319 0.930 . S
Li352 N369 1.990 . S
Li352 O412 1.956 . S
Li352 O413 1.970 . S
Li352 O414 1.961 . S
Li353 N377 1.990 . S
Li353 O412 1.970 . S
Li353 O413 1.956 . S
Li353 O415 1.961 . S
Li354 N399 1.990 . S
Li354 O412 1.961 . S
Li354 O414 1.956 . S
Li354 O415 1.970 . S
Li355 N405 1.990 . S
Li355 O413 1.961 . S
Li355 O414 1.970 . S
Li355 O415 1.956 . S
C356 C358 1.348 . S
C356 C359 1.356 . S
C356 O412 1.325 . S
N357 C360 1.314 . S
N357 C361 1.279 . S
C358 C356 1.348 . S
C358 C360 1.353 . S
C358 H416 0.929 . S
C359 C356 1.356 . S
C359 C361 1.358 . S
C359 H417 0.930 . S
C360 N357 1.314 . S
C360 C358 1.353 . S
C360 H418 0.930 . S
C361 N357 1.279 . S
C361 C359 1.358 . S
C361 H419 0.930 . S
C362 C365 1.348 . S
C362 C366 1.356 . S
C362 O413 1.325 . S
C363 N364 1.279 1_655 S
C363 C366 1.358 . S
C363 H420 0.930 1_655 S
N364 C363 1.279 1_455 S
N364 C367 1.314 1_455 S
C365 C362 1.348 . S
C365 C367 1.353 . S
C365 H421 0.929 . S
C366 C362 1.356 . S
C366 C363 1.358 . S
C366 H422 0.930 . S
C367 N364 1.314 1_655 S
C367 C365 1.353 . S
C367 H423 0.930 . S
C368 N369 1.314 . S
C368 C373 1.353 . S
C368 H374 0.930 . S
N369 Li352 1.990 . S
N369 C368 1.314 . S
N369 C371 1.279 . S
C370 C371 1.358 . S
C370 C372 1.356 . S
C370 H424 0.930 . S
C371 N369 1.279 . S
C371 C370 1.358 . S
C371 H375 0.930 . S
C372 C370 1.356 . S
C372 C373 1.348 . S
C373 C368 1.353 . S
C373 C372 1.348 . S
C373 H425 0.929 . S
H374 C368 0.930 . S
H375 C371 0.930 . S
C376 N377 1.314 . S
C376 C378 1.353 . S
C376 H382 0.930 . S
N377 Li353 1.990 . S
N377 C376 1.314 . S
N377 C380 1.279 . S
C378 C376 1.353 . S
C378 C381 1.348 . S
C378 H426 0.929 . S
C379 C380 1.358 . S
C379 C381 1.356 . S
C379 H427 0.930 . S
C380 N377 1.279 . S
C380 C379 1.358 . S
C380 H383 0.930 . S
C381 C378 1.348 . S
C381 C379 1.356 . S
H382 C376 0.930 . S
H383 C380 0.930 . S
C384 C386 1.348 . S
C384 C387 1.356 . S
C384 O414 1.325 . S
N385 C388 1.314 . S
N385 C389 1.279 . S
C386 C384 1.348 . S
C386 C388 1.353 . S
C386 H428 0.929 . S
C387 C384 1.356 . S
C387 C389 1.358 . S
C387 H429 0.930 . S
C388 N385 1.314 . S
C388 C386 1.353 . S
C388 H430 0.930 . S
C389 N385 1.279 . S
C389 C387 1.358 . S
C389 H431 0.930 . S
C390 C391 1.348 . S
C390 C392 1.356 . S
C390 O415 1.325 . S
C391 C390 1.348 . S
C391 C393 1.353 . S
C391 H432 0.929 . S
C392 C390 1.356 . S
C392 C394 1.358 . S
C392 H433 0.930 . S
C393 C391 1.353 . S
C393 N395 1.314 . S
C393 H434 0.930 . S
C394 C392 1.358 . S
C394 N395 1.279 . S
C394 H435 0.930 . S
N395 C393 1.314 . S
N395 C394 1.279 . S
C396 C398 1.353 . S
C396 N399 1.314 . S
C396 H402 0.930 . S
C397 N399 1.279 . S
C397 C400 1.358 . S
C397 H403 0.930 . S
C398 C396 1.353 . S
C398 C401 1.348 . S
C398 H436 0.929 . S
N399 Li354 1.990 . S
N399 C396 1.314 . S
N399 C397 1.279 . S
C400 C397 1.358 . S
C400 C401 1.356 . S
C400 H437 0.930 . S
C401 C398 1.348 . S
C401 C400 1.356 . S
H402 C396 0.930 . S
H403 C397 0.930 . S
C404 N405 1.291 1_455 S
C404 C406 1.367 . S
C404 H410 0.955 1_455 S
N405 Li355 1.990 . S
N405 C404 1.291 1_655 S
N405 C408 1.279 . S
C406 C404 1.367 . S
C406 C409 1.348 . S
C406 H438 0.929 . S
C407 C408 1.358 1_455 S
C407 C409 1.356 . S
C407 H439 0.930 . S
C408 N405 1.279 . S
C408 C407 1.358 1_655 S
C408 H411 0.930 . S
C409 C406 1.348 . S
C409 C407 1.356 . S
H410 C404 0.955 1_655 S
H411 C408 0.930 . S
O412 Li352 1.956 . S
O412 Li353 1.970 . S
O412 Li354 1.961 . S
O412 C356 1.325 . S
O413 Li352 1.970 . S
O413 Li353 1.956 . S
O413 Li355 1.961 . S
O413 C362 1.325 . S
O414 Li352 1.961 . S
O414 Li354 1.956 . S
O414 Li355 1.970 . S
O414 C384 1.325 . S
O415 Li353 1.961 . S
O415 Li354 1.970 . S
O415 Li355 1.956 . S
O415 C390 1.325 . S
H416 C358 0.929 . S
H417 C359 0.930 . S
H418 C360 0.930 . S
H419 C361 0.930 . S
H420 C363 0.930 1_455 S
H421 C365 0.929 . S
H422 C366 0.930 . S
H423 C367 0.930 . S
H424 C370 0.930 . S
H425 C373 0.929 . S
H426 C378 0.929 . S
H427 C379 0.930 . S
H428 C386 0.929 . S
H429 C387 0.930 . S
H430 C388 0.930 . S
H431 C389 0.930 . S
H432 C391 0.929 . S
H433 C392 0.930 . S
H434 C393 0.930 . S
H435 C394 0.930 . S
H436 C398 0.929 . S
H437 C400 0.930 . S
H438 C406 0.929 . S
H439 C407 0.930 . S
Li440 N457 1.990 . S
Li440 O500 1.956 . S
Li440 O501 1.970 . S
Li440 O502 1.961 . S
Li441 N465 1.990 . S
Li441 O500 1.970 . S
Li441 O501 1.956 . S
Li441 O503 1.961 . S
Li442 N487 1.990 . S
Li442 O500 1.961 . S
Li442 O502 1.956 . S
Li442 O503 1.970 . S
Li443 N493 1.990 . S
Li443 O501 1.961 . S
Li443 O502 1.970 . S
Li443 O503 1.956 . S
C444 C446 1.348 . S
C444 C447 1.356 . S
C444 O500 1.325 . S
N445 C448 1.314 . S
N445 C449 1.279 . S
C446 C444 1.348 . S
C446 C448 1.353 . S
C446 H504 0.929 . S
C447 C444 1.356 . S
C447 C449 1.358 . S
C447 H505 0.930 . S
C448 N445 1.314 . S
C448 C446 1.353 . S
C448 H506 0.930 . S
C449 N445 1.279 . S
C449 C447 1.358 . S
C449 H507 0.930 . S
C450 C453 1.348 . S
C450 C454 1.356 . S
C450 O501 1.325 . S
C451 N452 1.279 1_565 S
C451 C454 1.358 . S
C451 H508 0.930 1_565 S
N452 C451 1.279 1_545 S
N452 C455 1.314 1_545 S
C453 C450 1.348 . S
C453 C455 1.353 . S
C453 H509 0.929 . S
C454 C450 1.356 . S
C454 C451 1.358 . S
C454 H510 0.930 . S
C455 N452 1.314 1_565 S
C455 C453 1.353 . S
C455 H511 0.930 . S
C456 N457 1.314 . S
C456 C461 1.353 . S
C456 H462 0.930 . S
N457 Li440 1.990 . S
N457 C456 1.314 . S
N457 C459 1.279 . S
C458 C459 1.358 . S
C458 C460 1.356 . S
C458 H512 0.930 . S
C459 N457 1.279 . S
C459 C458 1.358 . S
C459 H463 0.930 . S
C460 C458 1.356 . S
C460 C461 1.348 . S
C461 C456 1.353 . S
C461 C460 1.348 . S
C461 H513 0.929 . S
H462 C456 0.930 . S
H463 C459 0.930 . S
C464 N465 1.314 . S
C464 C466 1.353 . S
C464 H470 0.930 . S
N465 Li441 1.990 . S
N465 C464 1.314 . S
N465 C468 1.279 . S
C466 C464 1.353 . S
C466 C469 1.348 . S
C466 H514 0.929 . S
C467 C468 1.358 . S
C467 C469 1.356 . S
C467 H515 0.930 . S
C468 N465 1.279 . S
C468 C467 1.358 . S
C468 H471 0.930 . S
C469 C466 1.348 . S
C469 C467 1.356 . S
H470 C464 0.930 . S
H471 C468 0.930 . S
C472 C474 1.348 . S
C472 C475 1.356 . S
C472 O502 1.325 . S
N473 C476 1.314 . S
N473 C477 1.279 . S
C474 C472 1.348 . S
C474 C476 1.353 . S
C474 H516 0.929 . S
C475 C472 1.356 . S
C475 C477 1.358 . S
C475 H517 0.930 . S
C476 N473 1.314 . S
C476 C474 1.353 . S
C476 H518 0.930 . S
C477 N473 1.279 . S
C477 C475 1.358 . S
C477 H519 0.930 . S
C478 C479 1.348 . S
C478 C480 1.356 . S
C478 O503 1.325 . S
C479 C478 1.348 . S
C479 C481 1.353 . S
C479 H520 0.929 . S
C480 C478 1.356 . S
C480 C482 1.358 . S
C480 H521 0.930 . S
C481 C479 1.353 . S
C481 N483 1.314 . S
C481 H522 0.930 . S
C482 C480 1.358 . S
C482 N483 1.279 . S
C482 H523 0.930 . S
N483 C481 1.314 . S
N483 C482 1.279 . S
C484 C486 1.353 . S
C484 N487 1.314 . S
C484 H490 0.930 . S
C485 N487 1.279 . S
C485 C488 1.358 . S
C485 H491 0.930 . S
C486 C484 1.353 . S
C486 C489 1.348 . S
C486 H524 0.929 . S
N487 Li442 1.990 . S
N487 C484 1.314 . S
N487 C485 1.279 . S
C488 C485 1.358 . S
C488 C489 1.356 . S
C488 H525 0.930 . S
C489 C486 1.348 . S
C489 C488 1.356 . S
H490 C484 0.930 . S
H491 C485 0.930 . S
C492 N493 1.303 1_545 S
C492 C494 1.377 . S
C492 H498 0.900 1_545 S
N493 Li443 1.990 . S
N493 C492 1.303 1_565 S
N493 C496 1.279 . S
C494 C492 1.377 . S
C494 C497 1.348 . S
C494 H526 0.929 . S
C495 C496 1.358 1_545 S
C495 C497 1.356 . S
C495 H527 0.930 . S
C496 N493 1.279 . S
C496 C495 1.358 1_565 S
C496 H499 0.930 . S
C497 C494 1.348 . S
C497 C495 1.356 . S
H498 C492 0.900 1_565 S
H499 C496 0.930 . S
O500 Li440 1.956 . S
O500 Li441 1.970 . S
O500 Li442 1.961 . S
O500 C444 1.325 . S
O501 Li440 1.970 . S
O501 Li441 1.956 . S
O501 Li443 1.961 . S
O501 C450 1.325 . S
O502 Li440 1.961 . S
O502 Li442 1.956 . S
O502 Li443 1.970 . S
O502 C472 1.325 . S
O503 Li441 1.961 . S
O503 Li442 1.970 . S
O503 Li443 1.956 . S
O503 C478 1.325 . S
H504 C446 0.929 . S
H505 C447 0.930 . S
H506 C448 0.930 . S
H507 C449 0.930 . S
H508 C451 0.930 1_545 S
H509 C453 0.929 . S
H510 C454 0.930 . S
H511 C455 0.930 . S
H512 C458 0.930 . S
H513 C461 0.929 . S
H514 C466 0.929 . S
H515 C467 0.930 . S
H516 C474 0.929 . S
H517 C475 0.930 . S
H518 C476 0.930 . S
H519 C477 0.930 . S
H520 C479 0.929 . S
H521 C480 0.930 . S
H522 C481 0.930 . S
H523 C482 0.930 . S
H524 C486 0.929 . S
H525 C488 0.930 . S
H526 C494 0.929 . S
H527 C495 0.930 . S
Li528 N545 1.990 . S
Li528 O588 1.956 . S
Li528 O589 1.970 . S
Li528 O590 1.961 . S
Li529 N553 1.990 . S
Li529 O588 1.970 . S
Li529 O589 1.956 . S
Li529 O591 1.961 . S
Li530 N575 1.990 . S
Li530 O588 1.961 . S
Li530 O590 1.956 . S
Li530 O591 1.970 . S
Li531 N581 1.990 . S
Li531 O589 1.961 . S
Li531 O590 1.970 . S
Li531 O591 1.956 . S
C532 C534 1.348 . S
C532 C535 1.356 . S
C532 O588 1.325 . S
N533 C536 1.314 . S
N533 C537 1.279 . S
C534 C532 1.348 . S
C534 C536 1.353 . S
C534 H592 0.929 . S
C535 C532 1.356 . S
C535 C537 1.358 . S
C535 H593 0.930 . S
C536 N533 1.314 . S
C536 C534 1.353 . S
C536 H594 0.930 . S
C537 N533 1.279 . S
C537 C535 1.358 . S
C537 H595 0.930 . S
C538 C541 1.348 . S
C538 C542 1.356 . S
C538 O589 1.325 . S
C539 N540 1.279 . S
C539 C542 1.358 . S
C539 H596 0.930 . S
N540 C539 1.279 . S
N540 C543 1.314 . S
C541 C538 1.348 . S
C541 C543 1.353 . S
C541 H597 0.929 . S
C542 C538 1.356 . S
C542 C539 1.358 . S
C542 H598 0.930 . S
C543 N540 1.314 . S
C543 C541 1.353 . S
C543 H599 0.930 . S
C544 N545 1.314 . S
C544 C549 1.353 . S
C544 H550 0.930 . S
N545 Li528 1.990 . S
N545 C544 1.314 . S
N545 C547 1.279 . S
C546 C547 1.358 . S
C546 C548 1.356 . S
C546 H600 0.930 . S
C547 N545 1.279 . S
C547 C546 1.358 . S
C547 H551 0.930 . S
C548 C546 1.356 . S
C548 C549 1.348 . S
C549 C544 1.353 . S
C549 C548 1.348 . S
C549 H601 0.929 . S
H550 C544 0.930 . S
H551 C547 0.930 . S
C552 N553 1.314 . S
C552 C554 1.353 . S
C552 H558 0.930 . S
N553 Li529 1.990 . S
N553 C552 1.314 . S
N553 C556 1.279 . S
C554 C552 1.353 . S
C554 C557 1.348 . S
C554 H602 0.929 . S
C555 C556 1.358 . S
C555 C557 1.356 . S
C555 H603 0.930 . S
C556 N553 1.279 . S
C556 C555 1.358 . S
C556 H559 0.930 . S
C557 C554 1.348 . S
C557 C555 1.356 . S
H558 C552 0.930 . S
H559 C556 0.930 . S
C560 C562 1.348 . S
C560 C563 1.356 . S
C560 O590 1.325 . S
N561 C564 1.314 . S
N561 C565 1.279 . S
C562 C560 1.348 . S
C562 C564 1.353 . S
C562 H604 0.929 . S
C563 C560 1.356 . S
C563 C565 1.358 . S
C563 H605 0.930 . S
C564 N561 1.314 . S
C564 C562 1.353 . S
C564 H606 0.930 . S
C565 N561 1.279 . S
C565 C563 1.358 . S
C565 H607 0.930 . S
C566 C567 1.348 . S
C566 C568 1.356 . S
C566 O591 1.325 . S
C567 C566 1.348 . S
C567 C569 1.353 . S
C567 H608 0.929 . S
C568 C566 1.356 . S
C568 C570 1.358 . S
C568 H609 0.930 . S
C569 C567 1.353 . S
C569 N571 1.314 . S
C569 H610 0.930 . S
C570 C568 1.358 . S
C570 N571 1.279 . S
C570 H611 0.930 . S
N571 C569 1.314 . S
N571 C570 1.279 . S
C572 C574 1.353 . S
C572 N575 1.314 . S
C572 H578 0.930 . S
C573 N575 1.279 . S
C573 C576 1.358 . S
C573 H579 0.930 . S
C574 C572 1.353 . S
C574 C577 1.348 . S
C574 H612 0.929 . S
N575 Li530 1.990 . S
N575 C572 1.314 . S
N575 C573 1.279 . S
C576 C573 1.358 . S
C576 C577 1.356 . S
C576 H613 0.930 . S
C577 C574 1.348 . S
C577 C576 1.356 . S
H578 C572 0.930 . S
H579 C573 0.930 . S
C580 N581 1.314 . S
C580 C582 1.353 . S
C580 H586 0.930 . S
N581 Li531 1.990 . S
N581 C580 1.314 . S
N581 C584 1.279 . S
C582 C580 1.353 . S
C582 C585 1.348 . S
C582 H614 0.929 . S
C583 C584 1.358 . S
C583 C585 1.356 . S
C583 H615 0.930 . S
C584 N581 1.279 . S
C584 C583 1.358 . S
C584 H587 0.930 . S
C585 C582 1.348 . S
C585 C583 1.356 . S
H586 C580 0.930 . S
H587 C584 0.930 . S
O588 Li528 1.956 . S
O588 Li529 1.970 . S
O588 Li530 1.961 . S
O588 C532 1.325 . S
O589 Li528 1.970 . S
O589 Li529 1.956 . S
O589 Li531 1.961 . S
O589 C538 1.325 . S
O590 Li528 1.961 . S
O590 Li530 1.956 . S
O590 Li531 1.970 . S
O590 C560 1.325 . S
O591 Li529 1.961 . S
O591 Li530 1.970 . S
O591 Li531 1.956 . S
O591 C566 1.325 . S
H592 C534 0.929 . S
H593 C535 0.930 . S
H594 C536 0.930 . S
H595 C537 0.930 . S
H596 C539 0.930 . S
H597 C541 0.929 . S
H598 C542 0.930 . S
H599 C543 0.930 . S
H600 C546 0.930 . S
H601 C549 0.929 . S
H602 C554 0.929 . S
H603 C555 0.930 . S
H604 C562 0.929 . S
H605 C563 0.930 . S
H606 C564 0.930 . S
H607 C565 0.930 . S
H608 C567 0.929 . S
H609 C568 0.930 . S
H610 C569 0.930 . S
H611 C570 0.930 . S
H612 C574 0.929 . S
H613 C576 0.930 . S
H614 C582 0.929 . S
H615 C583 0.930 . S
Li616 N633 1.990 . S
Li616 O676 1.956 . S
Li616 O677 1.970 . S
Li616 O678 1.961 . S
Li617 N641 1.990 . S
Li617 O676 1.970 . S
Li617 O677 1.956 . S
Li617 O679 1.961 . S
Li618 N663 1.990 . S
Li618 O676 1.961 . S
Li618 O678 1.956 . S
Li618 O679 1.970 . S
Li619 N669 1.990 . S
Li619 O677 1.961 . S
Li619 O678 1.970 . S
Li619 O679 1.956 . S
C620 C622 1.389 . S
C620 C623 1.367 . S
C620 O676 1.325 . S
N621 C624 1.314 . S
N621 C625 1.279 . S
C622 C620 1.389 . S
C622 C624 1.278 1_556 S
C622 H680 0.967 . S
C623 C620 1.367 . S
C623 C625 1.340 1_556 S
C623 H681 0.938 . S
C624 N621 1.314 . S
C624 C622 1.278 1_554 S
C624 H682 0.930 . S
C625 N621 1.279 . S
C625 C623 1.340 1_554 S
C625 H683 0.930 . S
C626 C629 1.348 . S
C626 C630 1.356 . S
C626 O677 1.325 . S
C627 N628 1.279 . S
C627 C630 1.358 . S
C627 H684 0.930 . S
N628 C627 1.279 . S
N628 C631 1.314 . S
C629 C626 1.348 . S
C629 C631 1.353 . S
C629 H685 0.929 . S
C630 C626 1.356 . S
C630 C627 1.358 . S
C630 H686 0.930 . S
C631 N628 1.314 . S
C631 C629 1.353 . S
C631 H687 0.930 . S
C632 N633 1.314 . S
C632 C637 1.353 . S
C632 H638 0.930 . S
N633 Li616 1.990 . S
N633 C632 1.314 . S
N633 C635 1.279 . S
C634 C635 1.358 1_554 S
C634 C636 1.356 1_554 S
C634 H688 0.930 . S
C635 N633 1.279 . S
C635 C634 1.358 1_556 S
C635 H639 0.963 . S
C636 C634 1.356 1_556 S
C636 C637 1.348 . S
C637 C632 1.353 . S
C637 C636 1.348 . S
C637 H689 0.929 . S
H638 C632 0.930 . S
H639 C635 0.963 . S
C640 N641 1.303 1_655 S
C640 C642 1.377 . S
C640 H646 0.900 1_655 S
N641 Li617 1.990 . S
N641 C640 1.303 1_455 S
N641 C644 1.279 . S
C642 C640 1.377 . S
C642 C645 1.348 . S
C642 H690 0.929 . S
C643 C644 1.358 1_655 S
C643 C645 1.356 . S
C643 H691 0.930 . S
C644 N641 1.279 . S
C644 C643 1.358 1_455 S
C644 H647 0.930 . S
C645 C642 1.348 . S
C645 C643 1.356 . S
H646 C640 0.900 1_455 S
H647 C644 0.930 . S
C648 C650 1.348 . S
C648 C651 1.356 . S
C648 O678 1.325 . S
N649 C652 1.314 . S
N649 C653 1.279 . S
C650 C648 1.348 . S
C650 C652 1.353 . S
C650 H692 0.929 . S
C651 C648 1.356 . S
C651 C653 1.358 . S
C651 H693 0.930 . S
C652 N649 1.314 . S
C652 C650 1.353 . S
C652 H694 0.930 . S
C653 N649 1.279 . S
C653 C651 1.358 . S
C653 H695 0.930 . S
C654 C655 1.348 . S
C654 C656 1.356 . S
C654 O679 1.325 . S
C655 C654 1.348 . S
C655 C657 1.353 . S
C655 H696 0.929 . S
C656 C654 1.356 . S
C656 C658 1.358 . S
C656 H697 0.930 . S
C657 C655 1.353 . S
C657 N659 1.314 1_455 S
C657 H698 0.930 . S
C658 C656 1.358 . S
C658 N659 1.279 1_455 S
C658 H699 0.930 1_455 S
N659 C657 1.314 1_655 S
N659 C658 1.279 1_655 S
C660 C662 1.353 . S
C660 N663 1.314 . S
C660 H666 0.930 . S
C661 N663 1.279 . S
C661 C664 1.358 . S
C661 H667 0.930 . S
C662 C660 1.353 . S
C662 C665 1.348 . S
C662 H700 0.929 . S
N663 Li618 1.990 . S
N663 C660 1.314 . S
N663 C661 1.279 . S
C664 C661 1.358 . S
C664 C665 1.356 . S
C664 H701 0.930 . S
C665 C662 1.348 . S
C665 C664 1.356 . S
H666 C660 0.930 . S
H667 C661 0.930 . S
C668 N669 1.314 . S
C668 C670 1.353 . S
C668 H674 0.930 . S
N669 Li619 1.990 . S
N669 C668 1.314 . S
N669 C672 1.279 . S
C670 C668 1.353 . S
C670 C673 1.348 . S
C670 H702 0.929 . S
C671 C672 1.358 . S
C671 C673 1.356 . S
C671 H703 0.930 . S
C672 N669 1.279 . S
C672 C671 1.358 . S
C672 H675 0.930 . S
C673 C670 1.348 . S
C673 C671 1.356 . S
H674 C668 0.930 . S
H675 C672 0.930 . S
O676 Li616 1.956 . S
O676 Li617 1.970 . S
O676 Li618 1.961 . S
O676 C620 1.325 . S
O677 Li616 1.970 . S
O677 Li617 1.956 . S
O677 Li619 1.961 . S
O677 C626 1.325 . S
O678 Li616 1.961 . S
O678 Li618 1.956 . S
O678 Li619 1.970 . S
O678 C648 1.325 . S
O679 Li617 1.961 . S
O679 Li618 1.970 . S
O679 Li619 1.956 . S
O679 C654 1.325 . S
H680 C622 0.967 . S
H681 C623 0.938 . S
H682 C624 0.930 . S
H683 C625 0.930 . S
H684 C627 0.930 . S
H685 C629 0.929 . S
H686 C630 0.930 . S
H687 C631 0.930 . S
H688 C634 0.930 . S
H689 C637 0.929 . S
H690 C642 0.929 . S
H691 C643 0.930 . S
H692 C650 0.929 . S
H693 C651 0.930 . S
H694 C652 0.930 . S
H695 C653 0.930 . S
H696 C655 0.929 . S
H697 C656 0.930 . S
H698 C657 0.930 . S
H699 C658 0.930 1_655 S
H700 C662 0.929 . S
H701 C664 0.930 . S
H702 C670 0.929 . S
H703 C671 0.930 . S
Li704 N721 1.990 . S
Li704 O764 1.956 . S
Li704 O765 1.970 . S
Li704 O766 1.961 . S
Li705 N729 1.990 . S
Li705 O764 1.970 . S
Li705 O765 1.956 . S
Li705 O767 1.961 . S
Li706 N751 1.990 . S
Li706 O764 1.961 . S
Li706 O766 1.956 . S
Li706 O767 1.970 . S
Li707 N757 1.990 . S
Li707 O765 1.961 . S
Li707 O766 1.970 . S
Li707 O767 1.956 . S
C708 C710 1.348 . S
C708 C711 1.356 . S
C708 O764 1.325 . S
N709 C712 1.314 . S
N709 C713 1.279 . S
C710 C708 1.348 . S
C710 C712 1.353 . S
C710 H768 0.929 . S
C711 C708 1.356 . S
C711 C713 1.358 . S
C711 H769 0.930 . S
C712 N709 1.314 . S
C712 C710 1.353 . S
C712 H770 0.930 . S
C713 N709 1.279 . S
C713 C711 1.358 . S
C713 H771 0.930 . S
C714 C717 1.348 . S
C714 C718 1.356 . S
C714 O765 1.325 . S
C715 N716 1.279 . S
C715 C718 1.358 . S
C715 H772 0.930 . S
N716 C715 1.279 . S
N716 C719 1.314 . S
C717 C714 1.348 . S
C717 C719 1.353 . S
C717 H773 0.929 . S
C718 C714 1.356 . S
C718 C715 1.358 . S
C718 H774 0.930 . S
C719 N716 1.314 . S
C719 C717 1.353 . S
C719 H775 0.930 . S
C720 N721 1.288 1_565 S
C720 C725 1.369 . S
C720 H726 0.955 1_565 S
N721 Li704 1.990 . S
N721 C720 1.288 1_545 S
N721 C723 1.279 . S
C722 C723 1.358 1_565 S
C722 C724 1.356 . S
C722 H776 0.930 . S
C723 N721 1.279 . S
C723 C722 1.358 1_545 S
C723 H727 0.930 . S
C724 C722 1.356 . S
C724 C725 1.348 . S
C725 C720 1.369 . S
C725 C724 1.348 . S
C725 H777 0.929 . S
H726 C720 0.955 1_545 S
H727 C723 0.930 . S
C728 N729 1.314 . S
C728 C730 1.353 . S
C728 H734 0.930 . S
N729 Li705 1.990 . S
N729 C728 1.314 . S
N729 C732 1.279 . S
C730 C728 1.353 . S
C730 C733 1.348 . S
C730 H778 0.929 . S
C731 C732 1.358 . S
C731 C733 1.356 . S
C731 H779 0.930 . S
C732 N729 1.279 . S
C732 C731 1.358 . S
C732 H735 0.930 . S
C733 C730 1.348 . S
C733 C731 1.356 . S
H734 C728 0.930 . S
H735 C732 0.930 . S
C736 C738 1.348 . S
C736 C739 1.356 . S
C736 O766 1.325 . S
N737 C740 1.314 1_565 S
N737 C741 1.279 1_565 S
C738 C736 1.348 . S
C738 C740 1.353 . S
C738 H780 0.929 . S
C739 C736 1.356 . S
C739 C741 1.358 . S
C739 H781 0.930 . S
C740 N737 1.314 1_545 S
C740 C738 1.353 . S
C740 H782 0.930 . S
C741 N737 1.279 1_545 S
C741 C739 1.358 . S
C741 H783 0.930 1_545 S
C742 C743 1.348 . S
C742 C744 1.356 . S
C742 O767 1.325 . S
C743 C742 1.348 . S
C743 C745 1.353 . S
C743 H784 0.929 . S
C744 C742 1.356 . S
C744 C746 1.358 . S
C744 H785 0.930 . S
C745 C743 1.353 . S
C745 N747 1.314 . S
C745 H786 0.930 . S
C746 C744 1.358 . S
C746 N747 1.279 . S
C746 H787 0.930 . S
N747 C745 1.314 . S
N747 C746 1.279 . S
C748 C750 1.353 . S
C748 N751 1.314 . S
C748 H754 0.930 . S
C749 N751 1.279 . S
C749 C752 1.358 . S
C749 H755 0.930 . S
C750 C748 1.353 . S
C750 C753 1.348 . S
C750 H788 0.929 . S
N751 Li706 1.990 . S
N751 C748 1.314 . S
N751 C749 1.279 . S
C752 C749 1.358 . S
C752 C753 1.356 . S
C752 H789 0.930 . S
C753 C750 1.348 . S
C753 C752 1.356 . S
H754 C748 0.930 . S
H755 C749 0.930 . S
C756 N757 1.314 . S
C756 C758 1.353 . S
C756 H762 0.930 . S
N757 Li707 1.990 . S
N757 C756 1.314 . S
N757 C760 1.279 . S
C758 C756 1.353 . S
C758 C761 1.348 . S
C758 H790 0.929 . S
C759 C760 1.358 . S
C759 C761 1.356 . S
C759 H791 0.930 . S
C760 N757 1.279 . S
C760 C759 1.358 . S
C760 H763 0.930 . S
C761 C758 1.348 . S
C761 C759 1.356 . S
H762 C756 0.930 . S
H763 C760 0.930 . S
O764 Li704 1.956 . S
O764 Li705 1.970 . S
O764 Li706 1.961 . S
O764 C708 1.325 . S
O765 Li704 1.970 . S
O765 Li705 1.956 . S
O765 Li707 1.961 . S
O765 C714 1.325 . S
O766 Li704 1.961 . S
O766 Li706 1.956 . S
O766 Li707 1.970 . S
O766 C736 1.325 . S
O767 Li705 1.961 . S
O767 Li706 1.970 . S
O767 Li707 1.956 . S
O767 C742 1.325 . S
H768 C710 0.929 . S
H769 C711 0.930 . S
H770 C712 0.930 . S
H771 C713 0.930 . S
H772 C715 0.930 . S
H773 C717 0.929 . S
H774 C718 0.930 . S
H775 C719 0.930 . S
H776 C722 0.930 . S
H777 C725 0.929 . S
H778 C730 0.929 . S
H779 C731 0.930 . S
H780 C738 0.929 . S
H781 C739 0.930 . S
H782 C740 0.930 . S
H783 C741 0.930 1_565 S
H784 C743 0.929 . S
H785 C744 0.930 . S
H786 C745 0.930 . S
H787 C746 0.930 . S
H788 C750 0.929 . S
H789 C752 0.930 . S
H790 C758 0.929 . S
H791 C759 0.930 . S
Li792 N809 1.990 . S
Li792 O852 1.956 . S
Li792 O853 1.970 . S
Li792 O854 1.961 . S
Li793 N817 1.990 . S
Li793 O852 1.970 . S
Li793 O853 1.956 . S
Li793 O855 1.961 . S
Li794 N839 1.990 . S
Li794 O852 1.961 . S
Li794 O854 1.956 . S
Li794 O855 1.970 . S
Li795 N845 1.990 . S
Li795 O853 1.961 . S
Li795 O854 1.970 . S
Li795 O855 1.956 . S
C796 C798 1.348 . S
C796 C799 1.356 . S
C796 O852 1.325 . S
N797 C800 1.314 . S
N797 C801 1.279 . S
C798 C796 1.348 . S
C798 C800 1.353 . S
C798 H856 0.929 . S
C799 C796 1.356 . S
C799 C801 1.358 . S
C799 H857 0.930 . S
C800 N797 1.314 . S
C800 C798 1.353 . S
C800 H858 0.930 . S
C801 N797 1.279 . S
C801 C799 1.358 . S
C801 H859 0.930 . S
C802 C805 1.348 . S
C802 C806 1.356 . S
C802 O853 1.325 . S
C803 N804 1.279 . S
C803 C806 1.358 . S
C803 H860 0.930 . S
N804 C803 1.279 . S
N804 C807 1.314 . S
C805 C802 1.348 . S
C805 C807 1.353 . S
C805 H861 0.929 . S
C806 C802 1.356 . S
C806 C803 1.358 . S
C806 H862 0.930 . S
C807 N804 1.314 . S
C807 C805 1.353 . S
C807 H863 0.930 . S
C808 N809 1.314 . S
C808 C813 1.353 . S
C808 H814 0.930 . S
N809 Li792 1.990 . S
N809 C808 1.314 . S
N809 C811 1.279 . S
C810 C811 1.358 . S
C810 C812 1.356 . S
C810 H864 0.930 . S
C811 N809 1.279 . S
C811 C810 1.358 . S
C811 H815 0.930 . S
C812 C810 1.356 . S
C812 C813 1.348 . S
C813 C808 1.353 . S
C813 C812 1.348 . S
C813 H865 0.929 . S
H814 C808 0.930 . S
H815 C811 0.930 . S
C816 N817 1.314 . S
C816 C818 1.353 . S
C816 H822 0.930 . S
N817 Li793 1.990 . S
N817 C816 1.314 . S
N817 C820 1.279 . S
C818 C816 1.353 . S
C818 C821 1.348 . S
C818 H866 0.929 . S
C819 C820 1.358 . S
C819 C821 1.356 . S
C819 H867 0.930 . S
C820 N817 1.279 . S
C820 C819 1.358 . S
C820 H823 0.930 . S
C821 C818 1.348 . S
C821 C819 1.356 . S
H822 C816 0.930 . S
H823 C820 0.930 . S
C824 C826 1.348 . S
C824 C827 1.356 . S
C824 O854 1.325 . S
N825 C828 1.314 . S
N825 C829 1.279 . S
C826 C824 1.348 . S
C826 C828 1.353 . S
C826 H868 0.929 . S
C827 C824 1.356 . S
C827 C829 1.358 . S
C827 H869 0.930 . S
C828 N825 1.314 . S
C828 C826 1.353 . S
C828 H870 0.930 . S
C829 N825 1.279 . S
C829 C827 1.358 . S
C829 H871 0.930 . S
C830 C831 1.348 . S
C830 C832 1.356 . S
C830 O855 1.325 . S
C831 C830 1.348 . S
C831 C833 1.353 . S
C831 H872 0.929 . S
C832 C830 1.356 . S
C832 C834 1.358 . S
C832 H873 0.930 . S
C833 C831 1.353 . S
C833 N835 1.314 . S
C833 H874 0.930 . S
C834 C832 1.358 . S
C834 N835 1.279 . S
C834 H875 0.930 . S
N835 C833 1.314 . S
N835 C834 1.279 . S
C836 C838 1.353 . S
C836 N839 1.314 . S
C836 H842 0.930 . S
C837 N839 1.279 . S
C837 C840 1.358 . S
C837 H843 0.930 . S
C838 C836 1.353 . S
C838 C841 1.348 . S
C838 H876 0.929 . S
N839 Li794 1.990 . S
N839 C836 1.314 . S
N839 C837 1.279 . S
C840 C837 1.358 . S
C840 C841 1.356 . S
C840 H877 0.930 . S
C841 C838 1.348 . S
C841 C840 1.356 . S
H842 C836 0.930 . S
H843 C837 0.930 . S
C844 N845 1.314 . S
C844 C846 1.353 . S
C844 H850 0.930 . S
N845 Li795 1.990 . S
N845 C844 1.314 . S
N845 C848 1.279 . S
C846 C844 1.353 . S
C846 C849 1.348 . S
C846 H878 0.929 . S
C847 C848 1.358 . S
C847 C849 1.356 . S
C847 H879 0.930 . S
C848 N845 1.279 . S
C848 C847 1.358 . S
C848 H851 0.930 . S
C849 C846 1.348 . S
C849 C847 1.356 . S
H850 C844 0.930 . S
H851 C848 0.930 . S
O852 Li792 1.956 . S
O852 Li793 1.970 . S
O852 Li794 1.961 . S
O852 C796 1.325 . S
O853 Li792 1.970 . S
O853 Li793 1.956 . S
O853 Li795 1.961 . S
O853 C802 1.325 . S
O854 Li792 1.961 . S
O854 Li794 1.956 . S
O854 Li795 1.970 . S
O854 C824 1.325 . S
O855 Li793 1.961 . S
O855 Li794 1.970 . S
O855 Li795 1.956 . S
O855 C830 1.325 . S
H856 C798 0.929 . S
H857 C799 0.930 . S
H858 C800 0.930 . S
H859 C801 0.930 . S
H860 C803 0.930 . S
H861 C805 0.929 . S
H862 C806 0.930 . S
H863 C807 0.930 . S
H864 C810 0.930 . S
H865 C813 0.929 . S
H866 C818 0.929 . S
H867 C819 0.930 . S
H868 C826 0.929 . S
H869 C827 0.930 . S
H870 C828 0.930 . S
H871 C829 0.930 . S
H872 C831 0.929 . S
H873 C832 0.930 . S
H874 C833 0.930 . S
H875 C834 0.930 . S
H876 C838 0.929 . S
H877 C840 0.930 . S
H878 C846 0.929 . S
H879 C847 0.930 . S
Li880 N897 1.990 . S
Li880 O940 1.956 . S
Li880 O941 1.970 . S
Li880 O942 1.961 . S
Li881 N905 1.990 . S
Li881 O940 1.970 . S
Li881 O941 1.956 . S
Li881 O943 1.961 . S
Li882 N927 1.990 . S
Li882 O940 1.961 . S
Li882 O942 1.956 . S
Li882 O943 1.970 . S
Li883 N933 1.990 . S
Li883 O941 1.961 . S
Li883 O942 1.970 . S
Li883 O943 1.956 . S
C884 C886 1.389 . S
C884 C887 1.367 . S
C884 O940 1.325 . S
N885 C888 1.314 . S
N885 C889 1.279 . S
C886 C884 1.389 . S
C886 C888 1.278 1_556 S
C886 H944 0.967 . S
C887 C884 1.367 . S
C887 C889 1.340 1_556 S
C887 H945 0.938 . S
C888 N885 1.314 . S
C888 C886 1.278 1_554 S
C888 H946 0.930 . S
C889 N885 1.279 . S
C889 C887 1.340 1_554 S
C889 H947 0.930 . S
C890 C893 1.348 . S
C890 C894 1.356 . S
C890 O941 1.325 . S
C891 N892 1.279 . S
C891 C894 1.358 . S
C891 H948 0.930 . S
N892 C891 1.279 . S
N892 C895 1.314 . S
C893 C890 1.348 . S
C893 C895 1.353 . S
C893 H949 0.929 . S
C894 C890 1.356 . S
C894 C891 1.358 . S
C894 H950 0.930 . S
C895 N892 1.314 . S
C895 C893 1.353 . S
C895 H951 0.930 . S
C896 N897 1.314 . S
C896 C901 1.353 . S
C896 H902 0.930 . S
N897 Li880 1.990 . S
N897 C896 1.314 . S
N897 C899 1.279 . S
C898 C899 1.358 1_554 S
C898 C900 1.356 1_554 S
C898 H952 0.930 . S
C899 N897 1.279 . S
C899 C898 1.358 1_556 S
C899 H903 0.963 . S
C900 C898 1.356 1_556 S
C900 C901 1.348 . S
C901 C896 1.353 . S
C901 C900 1.348 . S
C901 H953 0.929 . S
H902 C896 0.930 . S
H903 C899 0.963 . S
C904 N905 1.303 1_455 S
C904 C906 1.377 . S
C904 H910 0.900 1_455 S
N905 Li881 1.990 . S
N905 C904 1.303 1_655 S
N905 C908 1.279 . S
C906 C904 1.377 . S
C906 C909 1.348 . S
C906 H954 0.929 . S
C907 C908 1.358 1_455 S
C907 C909 1.356 . S
C907 H955 0.930 . S
C908 N905 1.279 . S
C908 C907 1.358 1_655 S
C908 H911 0.930 . S
C909 C906 1.348 . S
C909 C907 1.356 . S
H910 C904 0.900 1_655 S
H911 C908 0.930 . S
C912 C914 1.348 . S
C912 C915 1.356 . S
C912 O942 1.325 . S
N913 C916 1.314 . S
N913 C917 1.279 . S
C914 C912 1.348 . S
C914 C916 1.353 . S
C914 H956 0.929 . S
C915 C912 1.356 . S
C915 C917 1.358 . S
C915 H957 0.930 . S
C916 N913 1.314 . S
C916 C914 1.353 . S
C916 H958 0.930 . S
C917 N913 1.279 . S
C917 C915 1.358 . S
C917 H959 0.930 . S
C918 C919 1.348 . S
C918 C920 1.356 . S
C918 O943 1.325 . S
C919 C918 1.348 . S
C919 C921 1.353 . S
C919 H960 0.929 . S
C920 C918 1.356 . S
C920 C922 1.358 . S
C920 H961 0.930 . S
C921 C919 1.353 . S
C921 N923 1.314 1_655 S
C921 H962 0.930 . S
C922 C920 1.358 . S
C922 N923 1.279 1_655 S
C922 H963 0.930 1_655 S
N923 C921 1.314 1_455 S
N923 C922 1.279 1_455 S
C924 C926 1.353 . S
C924 N927 1.314 . S
C924 H930 0.930 . S
C925 N927 1.279 . S
C925 C928 1.358 . S
C925 H931 0.930 . S
C926 C924 1.353 . S
C926 C929 1.348 . S
C926 H964 0.929 . S
N927 Li882 1.990 . S
N927 C924 1.314 . S
N927 C925 1.279 . S
C928 C925 1.358 . S
C928 C929 1.356 . S
C928 H965 0.930 . S
C929 C926 1.348 . S
C929 C928 1.356 . S
H930 C924 0.930 . S
H931 C925 0.930 . S
C932 N933 1.314 . S
C932 C934 1.353 . S
C932 H938 0.930 . S
N933 Li883 1.990 . S
N933 C932 1.314 . S
N933 C936 1.279 . S
C934 C932 1.353 . S
C934 C937 1.348 . S
C934 H966 0.929 . S
C935 C936 1.358 . S
C935 C937 1.356 . S
C935 H967 0.930 . S
C936 N933 1.279 . S
C936 C935 1.358 . S
C936 H939 0.930 . S
C937 C934 1.348 . S
C937 C935 1.356 . S
H938 C932 0.930 . S
H939 C936 0.930 . S
O940 Li880 1.956 . S
O940 Li881 1.970 . S
O940 Li882 1.961 . S
O940 C884 1.325 . S
O941 Li880 1.970 . S
O941 Li881 1.956 . S
O941 Li883 1.961 . S
O941 C890 1.325 . S
O942 Li880 1.961 . S
O942 Li882 1.956 . S
O942 Li883 1.970 . S
O942 C912 1.325 . S
O943 Li881 1.961 . S
O943 Li882 1.970 . S
O943 Li883 1.956 . S
O943 C918 1.325 . S
H944 C886 0.967 . S
H945 C887 0.938 . S
H946 C888 0.930 . S
H947 C889 0.930 . S
H948 C891 0.930 . S
H949 C893 0.929 . S
H950 C894 0.930 . S
H951 C895 0.930 . S
H952 C898 0.930 . S
H953 C901 0.929 . S
H954 C906 0.929 . S
H955 C907 0.930 . S
H956 C914 0.929 . S
H957 C915 0.930 . S
H958 C916 0.930 . S
H959 C917 0.930 . S
H960 C919 0.929 . S
H961 C920 0.930 . S
H962 C921 0.930 . S
H963 C922 0.930 1_455 S
H964 C926 0.929 . S
H965 C928 0.930 . S
H966 C934 0.929 . S
H967 C935 0.930 . S
Li968 N985 1.990 . S
Li968 O1028 1.956 . S
Li968 O1029 1.970 . S
Li968 O1030 1.961 . S
Li969 N993 1.990 . S
Li969 O1028 1.970 . S
Li969 O1029 1.956 . S
Li969 O1031 1.961 . S
Li970 N1015 1.990 . S
Li970 O1028 1.961 . S
Li970 O1030 1.956 . S
Li970 O1031 1.970 . S
Li971 N1021 1.990 . S
Li971 O1029 1.961 . S
Li971 O1030 1.970 . S
Li971 O1031 1.956 . S
C972 C974 1.348 . S
C972 C975 1.356 . S
C972 O1028 1.325 . S
N973 C976 1.314 . S
N973 C977 1.279 . S
C974 C972 1.348 . S
C974 C976 1.353 . S
C974 H1032 0.929 . S
C975 C972 1.356 . S
C975 C977 1.358 . S
C975 H1033 0.930 . S
C976 N973 1.314 . S
C976 C974 1.353 . S
C976 H1034 0.930 . S
C977 N973 1.279 . S
C977 C975 1.358 . S
C977 H1035 0.930 . S
C978 C981 1.348 . S
C978 C982 1.356 . S
C978 O1029 1.325 . S
C979 N980 1.279 . S
C979 C982 1.358 . S
C979 H1036 0.930 . S
N980 C979 1.279 . S
N980 C983 1.314 . S
C981 C978 1.348 . S
C981 C983 1.353 . S
C981 H1037 0.929 . S
C982 C978 1.356 . S
C982 C979 1.358 . S
C982 H1038 0.930 . S
C983 N980 1.314 . S
C983 C981 1.353 . S
C983 H1039 0.930 . S
C984 N985 1.288 1_545 S
C984 C989 1.369 . S
C984 H990 0.955 1_545 S
N985 Li968 1.990 . S
N985 C984 1.288 1_565 S
N985 C987 1.279 . S
C986 C987 1.358 1_545 S
C986 C988 1.356 . S
C986 H1040 0.930 . S
C987 N985 1.279 . S
C987 C986 1.358 1_565 S
C987 H991 0.930 . S
C988 C986 1.356 . S
C988 C989 1.348 . S
C989 C984 1.369 . S
C989 C988 1.348 . S
C989 H1041 0.929 . S
H990 C984 0.955 1_565 S
H991 C987 0.930 . S
C992 N993 1.314 . S
C992 C994 1.353 . S
C992 H998 0.930 . S
N993 Li969 1.990 . S
N993 C992 1.314 . S
N993 C996 1.279 . S
C994 C992 1.353 . S
C994 C997 1.348 . S
C994 H1042 0.929 . S
C995 C996 1.358 . S
C995 C997 1.356 . S
C995 H1043 0.930 . S
C996 N993 1.279 . S
C996 C995 1.358 . S
C996 H999 0.930 . S
C997 C994 1.348 . S
C997 C995 1.356 . S
H998 C992 0.930 . S
H999 C996 0.930 . S
C1000 C1002 1.348 . S
C1000 C1003 1.356 . S
C1000 O1030 1.325 . S
N1001 C1004 1.314 1_545 S
N1001 C1005 1.279 1_545 S
C1002 C1000 1.348 . S
C1002 C1004 1.353 . S
C1002 H1044 0.929 . S
C1003 C1000 1.356 . S
C1003 C1005 1.358 . S
C1003 H1045 0.930 . S
C1004 N1001 1.314 1_565 S
C1004 C1002 1.353 . S
C1004 H1046 0.930 . S
C1005 N1001 1.279 1_565 S
C1005 C1003 1.358 . S
C1005 H1047 0.930 1_565 S
C1006 C1007 1.348 . S
C1006 C1008 1.356 . S
C1006 O1031 1.325 . S
C1007 C1006 1.348 . S
C1007 C1009 1.353 . S
C1007 H1048 0.929 . S
C1008 C1006 1.356 . S
C1008 C1010 1.358 . S
C1008 H1049 0.930 . S
C1009 C1007 1.353 . S
C1009 N1011 1.314 . S
C1009 H1050 0.930 . S
C1010 C1008 1.358 . S
C1010 N1011 1.279 . S
C1010 H1051 0.930 . S
N1011 C1009 1.314 . S
N1011 C1010 1.279 . S
C1012 C1014 1.353 . S
C1012 N1015 1.314 . S
C1012 H1018 0.930 . S
C1013 N1015 1.279 . S
C1013 C1016 1.358 . S
C1013 H1019 0.930 . S
C1014 C1012 1.353 . S
C1014 C1017 1.348 . S
C1014 H1052 0.929 . S
N1015 Li970 1.990 . S
N1015 C1012 1.314 . S
N1015 C1013 1.279 . S
C1016 C1013 1.358 . S
C1016 C1017 1.356 . S
C1016 H1053 0.930 . S
C1017 C1014 1.348 . S
C1017 C1016 1.356 . S
H1018 C1012 0.930 . S
H1019 C1013 0.930 . S
C1020 N1021 1.314 . S
C1020 C1022 1.353 . S
C1020 H1026 0.930 . S
N1021 Li971 1.990 . S
N1021 C1020 1.314 . S
N1021 C1024 1.279 . S
C1022 C1020 1.353 . S
C1022 C1025 1.348 . S
C1022 H1054 0.929 . S
C1023 C1024 1.358 . S
C1023 C1025 1.356 . S
C1023 H1055 0.930 . S
C1024 N1021 1.279 . S
C1024 C1023 1.358 . S
C1024 H1027 0.930 . S
C1025 C1022 1.348 . S
C1025 C1023 1.356 . S
H1026 C1020 0.930 . S
H1027 C1024 0.930 . S
O1028 Li968 1.956 . S
O1028 Li969 1.970 . S
O1028 Li970 1.961 . S
O1028 C972 1.325 . S
O1029 Li968 1.970 . S
O1029 Li969 1.956 . S
O1029 Li971 1.961 . S
O1029 C978 1.325 . S
O1030 Li968 1.961 . S
O1030 Li970 1.956 . S
O1030 Li971 1.970 . S
O1030 C1000 1.325 . S
O1031 Li969 1.961 . S
O1031 Li970 1.970 . S
O1031 Li971 1.956 . S
O1031 C1006 1.325 . S
H1032 C974 0.929 . S
H1033 C975 0.930 . S
H1034 C976 0.930 . S
H1035 C977 0.930 . S
H1036 C979 0.930 . S
H1037 C981 0.929 . S
H1038 C982 0.930 . S
H1039 C983 0.930 . S
H1040 C986 0.930 . S
H1041 C989 0.929 . S
H1042 C994 0.929 . S
H1043 C995 0.930 . S
H1044 C1002 0.929 . S
H1045 C1003 0.930 . S
H1046 C1004 0.930 . S
H1047 C1005 0.930 1_545 S
H1048 C1007 0.929 . S
H1049 C1008 0.930 . S
H1050 C1009 0.930 . S
H1051 C1010 0.930 . S
H1052 C1014 0.929 . S
H1053 C1016 0.930 . S
H1054 C1022 0.929 . S
H1055 C1023 0.930 . S
H1056 C1068 0.930 . S
H1057 C1070 0.930 . S
H1058 C1071 0.930 . S
H1059 C1075 0.959 . S
H1060 C1075 0.959 1_556 S
H1061 C1075 0.961 1_556 S
H1062 C1076 0.960 . S
H1063 C1076 0.961 . S
H1064 C1076 0.959 . S
H1065 C1079 0.929 . S
H1066 C1080 0.931 . S
H1067 C1082 0.930 . S
C1068 H1056 0.930 . S
C1068 C1069 1.399 . S
C1068 C1073 1.399 . S
C1069 C1068 1.399 . S
C1069 C1070 1.376 . S
C1070 H1057 0.930 . S
C1070 C1069 1.376 . S
C1070 C1071 1.388 . S
C1071 H1058 0.930 . S
C1071 C1070 1.388 . S
C1071 C1072 1.390 . S
C1072 C1071 1.390 . S
C1072 C1073 1.394 . S
C1072 C1078 1.465 . S
C1073 C1068 1.399 . S
C1073 C1072 1.394 . S
C1073 C1074 1.516 . S
C1074 C1073 1.516 . S
C1074 C1075 1.502 . S
C1074 C1076 1.561 1_554 S
C1074 C1077 1.526 . S
C1075 H1059 0.959 . S
C1075 H1060 0.959 1_554 S
C1075 H1061 0.961 1_554 S
C1075 C1074 1.502 . S
C1076 H1062 0.960 . S
C1076 H1063 0.961 . S
C1076 H1064 0.959 . S
C1076 C1074 1.561 1_556 S
C1077 C1074 1.526 . S
C1077 C1078 1.396 . S
C1077 C1082 1.390 . S
C1078 C1072 1.465 . S
C1078 C1077 1.396 . S
C1078 C1079 1.399 . S
C1079 H1065 0.929 . S
C1079 C1078 1.399 . S
C1079 C1080 1.385 . S
C1080 H1066 0.931 . S
C1080 C1079 1.385 . S
C1080 C1081 1.389 . S
C1081 C1080 1.389 . S
C1081 C1082 1.387 . S
C1082 H1067 0.930 . S
C1082 C1077 1.390 . S
C1082 C1081 1.387 . S
H1083 C1095 0.930 . S
H1084 C1097 0.930 . S
H1085 C1098 0.930 . S
H1086 C1102 0.959 . S
H1087 C1102 0.959 . S
H1088 C1102 0.961 . S
H1089 C1103 0.960 . S
H1090 C1103 0.964 1_655 S
H1091 C1103 0.959 . S
H1092 C1106 0.929 . S
H1093 C1107 0.931 . S
H1094 C1109 0.930 . S
C1095 H1083 0.930 . S
C1095 C1096 1.399 . S
C1095 C1100 1.399 . S
C1096 C1095 1.399 . S
C1096 C1097 1.376 . S
C1097 H1084 0.930 . S
C1097 C1096 1.376 . S
C1097 C1098 1.388 . S
C1098 H1085 0.930 . S
C1098 C1097 1.388 . S
C1098 C1099 1.390 . S
C1099 C1098 1.390 . S
C1099 C1100 1.394 . S
C1099 C1105 1.465 1_455 S
C1100 C1095 1.399 . S
C1100 C1099 1.394 . S
C1100 C1101 1.516 1_455 S
C1101 C1100 1.516 1_655 S
C1101 C1102 1.502 . S
C1101 C1103 1.561 1_655 S
C1101 C1104 1.526 . S
C1102 H1086 0.959 . S
C1102 H1087 0.959 . S
C1102 H1088 0.961 . S
C1102 C1101 1.502 . S
C1103 H1089 0.960 . S
C1103 H1090 0.964 1_455 S
C1103 H1091 0.959 . S
C1103 C1101 1.561 1_455 S
C1104 C1101 1.526 . S
C1104 C1105 1.396 . S
C1104 C1109 1.390 . S
C1105 C1099 1.465 1_655 S
C1105 C1104 1.396 . S
C1105 C1106 1.399 . S
C1106 H1092 0.929 . S
C1106 C1105 1.399 . S
C1106 C1107 1.385 . S
C1107 H1093 0.931 . S
C1107 C1106 1.385 . S
C1107 C1108 1.389 . S
C1108 C1107 1.389 . S
C1108 C1109 1.387 . S
C1109 H1094 0.930 . S
C1109 C1104 1.390 . S
C1109 C1108 1.387 . S
H1110 C1122 0.930 . S
H1111 C1124 0.930 . S
H1112 C1125 0.930 . S
H1113 C1129 0.959 . S
H1114 C1129 0.959 . S
H1115 C1129 0.961 . S
H1116 C1130 0.960 1_565 S
H1117 C1130 0.961 . S
H1118 C1130 0.959 . S
H1119 C1133 0.929 . S
H1120 C1134 0.931 . S
H1121 C1136 0.930 . S
C1122 H1110 0.930 . S
C1122 C1123 1.399 . S
C1122 C1127 1.399 . S
C1123 C1122 1.399 . S
C1123 C1124 1.376 . S
C1124 H1111 0.930 . S
C1124 C1123 1.376 . S
C1124 C1125 1.388 . S
C1125 H1112 0.930 . S
C1125 C1124 1.388 . S
C1125 C1126 1.390 . S
C1126 C1125 1.390 . S
C1126 C1127 1.394 . S
C1126 C1132 1.465 1_565 S
C1127 C1122 1.399 . S
C1127 C1126 1.394 . S
C1127 C1128 1.516 . S
C1128 C1127 1.516 . S
C1128 C1129 1.502 . S
C1128 C1130 1.561 1_565 S
C1128 C1131 1.526 1_565 S
C1129 H1113 0.959 . S
C1129 H1114 0.959 . S
C1129 H1115 0.961 . S
C1129 C1128 1.502 . S
C1130 H1116 0.960 1_545 S
C1130 H1117 0.961 . S
C1130 H1118 0.959 . S
C1130 C1128 1.561 1_545 S
C1131 C1128 1.526 1_545 S
C1131 C1132 1.396 . S
C1131 C1136 1.390 . S
C1132 C1126 1.465 1_545 S
C1132 C1131 1.396 . S
C1132 C1133 1.399 . S
C1133 H1119 0.929 . S
C1133 C1132 1.399 . S
C1133 C1134 1.385 . S
C1134 H1120 0.931 . S
C1134 C1133 1.385 . S
C1134 C1135 1.389 . S
C1135 C1134 1.389 . S
C1135 C1136 1.387 . S
C1136 H1121 0.930 . S
C1136 C1131 1.390 . S
C1136 C1135 1.387 . S
H1137 C1149 0.930 . S
H1138 C1151 0.930 . S
H1139 C1152 0.930 . S
H1140 C1156 0.959 . S
H1141 C1156 0.959 . S
H1142 C1156 0.961 . S
H1143 C1157 0.960 . S
H1144 C1157 0.961 . S
H1145 C1157 0.959 . S
H1146 C1160 0.929 . S
H1147 C1161 0.931 . S
H1148 C1163 0.930 . S
C1149 H1137 0.930 . S
C1149 C1150 1.399 . S
C1149 C1154 1.399 . S
C1150 C1149 1.399 . S
C1150 C1151 1.376 . S
C1151 H1138 0.930 . S
C1151 C1150 1.376 . S
C1151 C1152 1.388 . S
C1152 H1139 0.930 . S
C1152 C1151 1.388 . S
C1152 C1153 1.390 . S
C1153 C1152 1.390 . S
C1153 C1154 1.394 . S
C1153 C1159 1.465 . S
C1154 C1149 1.399 . S
C1154 C1153 1.394 . S
C1154 C1155 1.516 . S
C1155 C1154 1.516 . S
C1155 C1156 1.502 . S
C1155 C1157 1.561 . S
C1155 C1158 1.526 . S
C1156 H1140 0.959 . S
C1156 H1141 0.959 . S
C1156 H1142 0.961 . S
C1156 C1155 1.502 . S
C1157 H1143 0.960 . S
C1157 H1144 0.961 . S
C1157 H1145 0.959 . S
C1157 C1155 1.561 . S
C1158 C1155 1.526 . S
C1158 C1159 1.396 . S
C1158 C1163 1.390 . S
C1159 C1153 1.465 . S
C1159 C1158 1.396 . S
C1159 C1160 1.399 . S
C1160 H1146 0.929 . S
C1160 C1159 1.399 . S
C1160 C1161 1.385 . S
C1161 H1147 0.931 . S
C1161 C1160 1.385 . S
C1161 C1162 1.389 . S
C1162 C1161 1.389 . S
C1162 C1163 1.387 . S
C1163 H1148 0.930 . S
C1163 C1158 1.390 . S
C1163 C1162 1.387 . S
H1164 C1176 0.930 . S
H1165 C1178 0.930 . S
H1166 C1179 0.937 . S
H1167 C1183 0.959 . S
H1168 C1183 0.959 . S
H1169 C1183 0.961 . S
H1170 C1184 0.960 . S
H1171 C1184 0.961 1_455 S
H1172 C1184 0.959 1_455 S
H1173 C1187 0.929 . S
H1174 C1188 0.931 . S
H1175 C1190 0.930 . S
C1176 H1164 0.930 . S
C1176 C1177 1.399 . S
C1176 C1181 1.399 . S
C1177 C1176 1.399 . S
C1177 C1178 1.376 . S
C1178 H1165 0.930 . S
C1178 C1177 1.376 . S
C1178 C1179 1.388 . S
C1179 H1166 0.937 . S
C1179 C1178 1.388 . S
C1179 C1180 1.390 . S
C1180 C1179 1.390 . S
C1180 C1181 1.394 . S
C1180 C1186 1.465 1_655 S
C1181 C1176 1.399 . S
C1181 C1180 1.394 . S
C1181 C1182 1.516 . S
C1182 C1181 1.516 . S
C1182 C1183 1.502 . S
C1182 C1184 1.561 1_556 S
C1182 C1185 1.526 1_655 S
C1183 H1167 0.959 . S
C1183 H1168 0.959 . S
C1183 H1169 0.961 . S
C1183 C1182 1.502 . S
C1184 H1170 0.960 . S
C1184 H1171 0.961 1_655 S
C1184 H1172 0.959 1_655 S
C1184 C1182 1.561 1_554 S
C1185 C1182 1.526 1_455 S
C1185 C1186 1.396 . S
C1185 C1190 1.390 . S
C1186 C1180 1.465 1_455 S
C1186 C1185 1.396 . S
C1186 C1187 1.399 . S
C1187 H1173 0.929 . S
C1187 C1186 1.399 . S
C1187 C1188 1.385 . S
C1188 H1174 0.931 . S
C1188 C1187 1.385 . S
C1188 C1189 1.389 . S
C1189 C1188 1.389 . S
C1189 C1190 1.387 . S
C1190 H1175 0.930 . S
C1190 C1185 1.390 . S
C1190 C1189 1.387 . S
H1191 C1203 0.930 . S
H1192 C1205 0.930 . S
H1193 C1206 0.930 . S
H1194 C1210 0.959 . S
H1195 C1210 0.959 . S
H1196 C1210 0.961 . S
H1197 C1211 0.960 . S
H1198 C1211 0.961 . S
H1199 C1211 0.959 . S
H1200 C1214 0.929 . S
H1201 C1215 0.931 . S
H1202 C1217 0.930 . S
C1203 H1191 0.930 . S
C1203 C1204 1.399 . S
C1203 C1208 1.399 . S
C1204 C1203 1.399 . S
C1204 C1205 1.376 . S
C1205 H1192 0.930 . S
C1205 C1204 1.376 . S
C1205 C1206 1.388 . S
C1206 H1193 0.930 . S
C1206 C1205 1.388 . S
C1206 C1207 1.390 . S
C1207 C1206 1.390 . S
C1207 C1208 1.394 . S
C1207 C1213 1.465 1_545 S
C1208 C1203 1.399 . S
C1208 C1207 1.394 . S
C1208 C1209 1.532 . S
C1209 C1208 1.532 . S
C1209 C1210 1.499 1_545 S
C1209 C1211 1.564 . S
C1209 C1212 1.510 1_545 S
C1210 H1194 0.959 . S
C1210 H1195 0.959 . S
C1210 H1196 0.961 . S
C1210 C1209 1.499 1_565 S
C1211 H1197 0.960 . S
C1211 H1198 0.961 . S
C1211 H1199 0.959 . S
C1211 C1209 1.564 . S
C1212 C1209 1.510 1_565 S
C1212 C1213 1.396 . S
C1212 C1217 1.390 . S
C1213 C1207 1.465 1_565 S
C1213 C1212 1.396 . S
C1213 C1214 1.399 . S
C1214 H1200 0.929 . S
C1214 C1213 1.399 . S
C1214 C1215 1.385 . S
C1215 H1201 0.931 . S
C1215 C1214 1.385 . S
C1215 C1216 1.389 . S
C1216 C1215 1.389 . S
C1216 C1217 1.387 . S
C1217 H1202 0.930 . S
C1217 C1212 1.390 . S
C1217 C1216 1.387 . S
H1218 C1230 0.930 . S
H1219 C1232 0.930 . S
H1220 C1233 0.930 . S
H1221 C1237 0.959 . S
H1222 C1237 0.959 . S
H1223 C1237 0.961 . S
H1224 C1238 0.960 . S
H1225 C1238 0.961 . S
H1226 C1238 0.959 . S
H1227 C1241 0.929 . S
H1228 C1242 0.931 . S
H1229 C1244 0.930 . S
C1230 H1218 0.930 . S
C1230 C1231 1.399 . S
C1230 C1235 1.399 . S
C1231 C1230 1.399 . S
C1231 C1232 1.376 . S
C1232 H1219 0.930 . S
C1232 C1231 1.376 . S
C1232 C1233 1.388 . S
C1233 H1220 0.930 . S
C1233 C1232 1.388 . S
C1233 C1234 1.390 . S
C1234 C1233 1.390 . S
C1234 C1235 1.394 . S
C1234 C1240 1.465 . S
C1235 C1230 1.399 . S
C1235 C1234 1.394 . S
C1235 C1236 1.516 . S
C1236 C1235 1.516 . S
C1236 C1237 1.502 . S
C1236 C1238 1.561 . S
C1236 C1239 1.526 . S
C1237 H1221 0.959 . S
C1237 H1222 0.959 . S
C1237 H1223 0.961 . S
C1237 C1236 1.502 . S
C1238 H1224 0.960 . S
C1238 H1225 0.961 . S
C1238 H1226 0.959 . S
C1238 C1236 1.561 . S
C1239 C1236 1.526 . S
C1239 C1240 1.396 . S
C1239 C1244 1.390 . S
C1240 C1234 1.465 . S
C1240 C1239 1.396 . S
C1240 C1241 1.399 . S
C1241 H1227 0.929 . S
C1241 C1240 1.399 . S
C1241 C1242 1.385 . S
C1242 H1228 0.931 . S
C1242 C1241 1.385 . S
C1242 C1243 1.389 . S
C1243 C1242 1.389 . S
C1243 C1244 1.387 . S
C1244 H1229 0.930 . S
C1244 C1239 1.390 . S
C1244 C1243 1.387 . S
H1245 C1257 0.930 . S
H1246 C1259 0.930 . S
H1247 C1260 0.930 . S
H1248 C1264 0.959 . S
H1249 C1264 0.959 . S
H1250 C1264 0.961 . S
H1251 C1265 0.960 . S
H1252 C1265 0.961 . S
H1253 C1265 0.959 . S
H1254 C1268 0.929 . S
H1255 C1269 0.931 . S
H1256 C1271 0.930 . S
C1257 H1245 0.930 . S
C1257 C1258 1.399 . S
C1257 C1262 1.399 . S
C1258 C1257 1.399 . S
C1258 C1259 1.376 . S
C1259 H1246 0.930 . S
C1259 C1258 1.376 . S
C1259 C1260 1.388 . S
C1260 H1247 0.930 . S
C1260 C1259 1.388 . S
C1260 C1261 1.390 . S
C1261 C1260 1.390 . S
C1261 C1262 1.394 . S
C1261 C1267 1.465 . S
C1262 C1257 1.399 . S
C1262 C1261 1.394 . S
C1262 C1263 1.516 . S
C1263 C1262 1.516 . S
C1263 C1264 1.502 . S
C1263 C1265 1.561 . S
C1263 C1266 1.526 . S
C1264 H1248 0.959 . S
C1264 H1249 0.959 . S
C1264 H1250 0.961 . S
C1264 C1263 1.502 . S
C1265 H1251 0.960 . S
C1265 H1252 0.961 . S
C1265 H1253 0.959 . S
C1265 C1263 1.561 . S
C1266 C1263 1.526 . S
C1266 C1267 1.396 . S
C1266 C1271 1.390 . S
C1267 C1261 1.465 . S
C1267 C1266 1.396 . S
C1267 C1268 1.399 . S
C1268 H1254 0.929 . S
C1268 C1267 1.399 . S
C1268 C1269 1.385 . S
C1269 H1255 0.931 . S
C1269 C1268 1.385 . S
C1269 C1270 1.389 . S
C1270 C1269 1.389 . S
C1270 C1271 1.387 . S
C1271 H1256 0.930 . S
C1271 C1266 1.390 . S
C1271 C1270 1.387 . S
H1272 C1284 0.930 . S
H1273 C1286 0.930 . S
H1274 C1287 0.930 . S
H1275 C1291 0.959 . S
H1276 C1291 0.959 . S
H1277 C1291 0.961 . S
H1278 C1292 0.960 . S
H1279 C1292 0.961 . S
H1280 C1292 0.959 . S
H1281 C1295 0.929 . S
H1282 C1296 0.931 . S
H1283 C1298 0.930 . S
C1284 H1272 0.930 . S
C1284 C1285 1.399 . S
C1284 C1289 1.399 . S
C1285 C1284 1.399 . S
C1285 C1286 1.376 . S
C1286 H1273 0.930 . S
C1286 C1285 1.376 . S
C1286 C1287 1.388 . S
C1287 H1274 0.930 . S
C1287 C1286 1.388 . S
C1287 C1288 1.390 . S
C1288 C1287 1.390 . S
C1288 C1289 1.394 . S
C1288 C1294 1.465 . S
C1289 C1284 1.399 . S
C1289 C1288 1.394 . S
C1289 C1290 1.516 . S
C1290 C1289 1.516 . S
C1290 C1291 1.502 . S
C1290 C1292 1.561 . S
C1290 C1293 1.526 . S
C1291 H1275 0.959 . S
C1291 H1276 0.959 . S
C1291 H1277 0.961 . S
C1291 C1290 1.502 . S
C1292 H1278 0.960 . S
C1292 H1279 0.961 . S
C1292 H1280 0.959 . S
C1292 C1290 1.561 . S
C1293 C1290 1.526 . S
C1293 C1294 1.396 . S
C1293 C1298 1.390 . S
C1294 C1288 1.465 . S
C1294 C1293 1.396 . S
C1294 C1295 1.399 . S
C1295 H1281 0.929 . S
C1295 C1294 1.399 . S
C1295 C1296 1.385 . S
C1296 H1282 0.931 . S
C1296 C1295 1.385 . S
C1296 C1297 1.389 . S
C1297 C1296 1.389 . S
C1297 C1298 1.387 . S
C1298 H1283 0.930 . S
C1298 C1293 1.390 . S
C1298 C1297 1.387 . S
H1299 C1311 0.930 . S
H1300 C1313 0.930 . S
H1301 C1314 0.930 . S
H1302 C1318 0.959 . S
H1303 C1318 0.959 . S
H1304 C1318 0.961 . S
H1305 C1319 0.960 . S
H1306 C1319 0.961 . S
H1307 C1319 0.959 . S
H1308 C1322 0.929 . S
H1309 C1323 0.931 . S
H1310 C1325 0.930 . S
C1311 H1299 0.930 . S
C1311 C1312 1.399 . S
C1311 C1316 1.399 . S
C1312 C1311 1.399 . S
C1312 C1313 1.376 . S
C1313 H1300 0.930 . S
C1313 C1312 1.376 . S
C1313 C1314 1.388 . S
C1314 H1301 0.930 . S
C1314 C1313 1.388 . S
C1314 C1315 1.390 . S
C1315 C1314 1.390 . S
C1315 C1316 1.394 . S
C1315 C1321 1.465 . S
C1316 C1311 1.399 . S
C1316 C1315 1.394 . S
C1316 C1317 1.516 . S
C1317 C1316 1.516 . S
C1317 C1318 1.502 . S
C1317 C1319 1.561 . S
C1317 C1320 1.526 . S
C1318 H1302 0.959 . S
C1318 H1303 0.959 . S
C1318 H1304 0.961 . S
C1318 C1317 1.502 . S
C1319 H1305 0.960 . S
C1319 H1306 0.961 . S
C1319 H1307 0.959 . S
C1319 C1317 1.561 . S
C1320 C1317 1.526 . S
C1320 C1321 1.396 . S
C1320 C1325 1.390 . S
C1321 C1315 1.465 . S
C1321 C1320 1.396 . S
C1321 C1322 1.399 . S
C1322 H1308 0.929 . S
C1322 C1321 1.399 . S
C1322 C1323 1.385 . S
C1323 H1309 0.931 . S
C1323 C1322 1.385 . S
C1323 C1324 1.389 . S
C1324 C1323 1.389 . S
C1324 C1325 1.387 . S
C1325 H1310 0.930 . S
C1325 C1320 1.390 . S
C1325 C1324 1.387 . S
H1326 C1338 0.930 . S
H1327 C1340 0.930 . S
H1328 C1341 0.930 . S
H1329 C1345 0.959 . S
H1330 C1345 0.959 . S
H1331 C1345 0.961 . S
H1332 C1346 0.960 . S
H1333 C1346 0.961 . S
H1334 C1346 0.959 . S
H1335 C1349 0.929 . S
H1336 C1350 0.931 . S
H1337 C1352 0.930 . S
C1338 H1326 0.930 . S
C1338 C1339 1.399 . S
C1338 C1343 1.399 . S
C1339 C1338 1.399 . S
C1339 C1340 1.376 . S
C1340 H1327 0.930 . S
C1340 C1339 1.376 . S
C1340 C1341 1.388 . S
C1341 H1328 0.930 . S
C1341 C1340 1.388 . S
C1341 C1342 1.390 . S
C1342 C1341 1.390 . S
C1342 C1343 1.394 . S
C1342 C1348 1.465 . S
C1343 C1338 1.399 . S
C1343 C1342 1.394 . S
C1343 C1344 1.516 . S
C1344 C1343 1.516 . S
C1344 C1345 1.502 . S
C1344 C1346 1.561 . S
C1344 C1347 1.526 . S
C1345 H1329 0.959 . S
C1345 H1330 0.959 . S
C1345 H1331 0.961 . S
C1345 C1344 1.502 . S
C1346 H1332 0.960 . S
C1346 H1333 0.961 . S
C1346 H1334 0.959 . S
C1346 C1344 1.561 . S
C1347 C1344 1.526 . S
C1347 C1348 1.396 . S
C1347 C1352 1.390 . S
C1348 C1342 1.465 . S
C1348 C1347 1.396 . S
C1348 C1349 1.399 . S
C1349 H1335 0.929 . S
C1349 C1348 1.399 . S
C1349 C1350 1.385 . S
C1350 H1336 0.931 . S
C1350 C1349 1.385 . S
C1350 C1351 1.389 . S
C1351 C1350 1.389 . S
C1351 C1352 1.387 . S
C1352 H1337 0.930 . S
C1352 C1347 1.390 . S
C1352 C1351 1.387 . S
H1353 C1365 0.930 . S
H1354 C1367 0.930 . S
H1355 C1368 0.930 . S
H1356 C1372 0.959 . S
H1357 C1372 0.959 . S
H1358 C1372 0.961 . S
H1359 C1373 0.960 . S
H1360 C1373 0.961 . S
H1361 C1373 0.959 . S
H1362 C1376 0.929 . S
H1363 C1377 0.931 . S
H1364 C1379 0.930 . S
C1365 H1353 0.930 . S
C1365 C1366 1.399 . S
C1365 C1370 1.399 . S
C1366 C1365 1.399 . S
C1366 C1367 1.376 . S
C1367 H1354 0.930 . S
C1367 C1366 1.376 . S
C1367 C1368 1.388 . S
C1368 H1355 0.930 . S
C1368 C1367 1.388 . S
C1368 C1369 1.390 . S
C1369 C1368 1.390 . S
C1369 C1370 1.394 . S
C1369 C1375 1.465 . S
C1370 C1365 1.399 . S
C1370 C1369 1.394 . S
C1370 C1371 1.516 . S
C1371 C1370 1.516 . S
C1371 C1372 1.502 . S
C1371 C1373 1.561 . S
C1371 C1374 1.526 . S
C1372 H1356 0.959 . S
C1372 H1357 0.959 . S
C1372 H1358 0.961 . S
C1372 C1371 1.502 . S
C1373 H1359 0.960 . S
C1373 H1360 0.961 . S
C1373 H1361 0.959 . S
C1373 C1371 1.561 . S
C1374 C1371 1.526 . S
C1374 C1375 1.396 . S
C1374 C1379 1.390 . S
C1375 C1369 1.465 . S
C1375 C1374 1.396 . S
C1375 C1376 1.399 . S
C1376 H1362 0.929 . S
C1376 C1375 1.399 . S
C1376 C1377 1.385 . S
C1377 H1363 0.931 . S
C1377 C1376 1.385 . S
C1377 C1378 1.389 . S
C1378 C1377 1.389 . S
C1378 C1379 1.387 . S
C1379 H1364 0.930 . S
C1379 C1374 1.390 . S
C1379 C1378 1.387 . S
H1380 C1392 0.930 . S
H1381 C1394 0.930 . S
H1382 C1395 0.930 . S
H1383 C1399 0.954 . S
H1384 C1399 0.973 . S
H1385 C1399 0.943 1_565 S
H1386 C1400 0.957 . S
H1387 C1400 0.963 1_545 S
H1388 C1400 0.961 1_545 S
H1389 C1403 0.929 . S
H1390 C1404 0.931 . S
H1391 C1406 0.930 . S
C1392 H1380 0.930 . S
C1392 C1393 1.399 1_556 S
C1392 C1397 1.399 . S
C1393 C1392 1.399 1_554 S
C1393 C1394 1.376 . S
C1394 H1381 0.930 . S
C1394 C1393 1.376 . S
C1394 C1395 1.388 . S
C1395 H1382 0.930 . S
C1395 C1394 1.388 . S
C1395 C1396 1.390 . S
C1396 C1395 1.390 . S
C1396 C1397 1.394 1_554 S
C1396 C1402 1.465 1_565 S
C1397 C1392 1.399 . S
C1397 C1396 1.394 1_556 S
C1397 C1398 1.514 . S
C1398 C1397 1.514 . S
C1398 C1399 1.510 1_565 S
C1398 C1400 1.561 . S
C1398 C1401 1.528 1_565 S
C1399 H1383 0.954 . S
C1399 H1384 0.973 . S
C1399 H1385 0.943 1_545 S
C1399 C1398 1.510 1_545 S
C1400 H1386 0.957 . S
C1400 H1387 0.963 1_565 S
C1400 H1388 0.961 1_565 S
C1400 C1398 1.561 . S
C1401 C1398 1.528 1_545 S
C1401 C1402 1.396 1_556 S
C1401 C1406 1.390 . S
C1402 C1396 1.465 1_545 S
C1402 C1401 1.396 1_554 S
C1402 C1403 1.399 . S
C1403 H1389 0.929 . S
C1403 C1402 1.399 . S
C1403 C1404 1.385 . S
C1404 H1390 0.931 . S
C1404 C1403 1.385 . S
C1404 C1405 1.389 . S
C1405 C1404 1.389 . S
C1405 C1406 1.387 1_554 S
C1406 H1391 0.930 . S
C1406 C1401 1.390 . S
C1406 C1405 1.387 1_556 S
H1407 C1419 0.930 . S
H1408 C1421 0.930 . S
H1409 C1422 0.930 . S
H1410 C1426 0.959 . S
H1411 C1426 0.959 . S
H1412 C1426 0.961 . S
H1413 C1427 0.960 . S
H1414 C1427 0.961 . S
H1415 C1427 0.959 . S
H1416 C1430 0.929 . S
H1417 C1431 0.931 . S
H1418 C1433 0.930 . S
C1419 H1407 0.930 . S
C1419 C1420 1.399 . S
C1419 C1424 1.399 . S
C1420 C1419 1.399 . S
C1420 C1421 1.376 . S
C1421 H1408 0.930 . S
C1421 C1420 1.376 . S
C1421 C1422 1.388 . S
C1422 H1409 0.930 . S
C1422 C1421 1.388 . S
C1422 C1423 1.390 . S
C1423 C1422 1.390 . S
C1423 C1424 1.394 . S
C1423 C1429 1.465 . S
C1424 C1419 1.399 . S
C1424 C1423 1.394 . S
C1424 C1425 1.516 . S
C1425 C1424 1.516 . S
C1425 C1426 1.502 . S
C1425 C1427 1.561 . S
C1425 C1428 1.526 . S
C1426 H1410 0.959 . S
C1426 H1411 0.959 . S
C1426 H1412 0.961 . S
C1426 C1425 1.502 . S
C1427 H1413 0.960 . S
C1427 H1414 0.961 . S
C1427 H1415 0.959 . S
C1427 C1425 1.561 . S
C1428 C1425 1.526 . S
C1428 C1429 1.396 . S
C1428 C1433 1.390 . S
C1429 C1423 1.465 . S
C1429 C1428 1.396 . S
C1429 C1430 1.399 . S
C1430 H1416 0.929 . S
C1430 C1429 1.399 . S
C1430 C1431 1.385 . S
C1431 H1417 0.931 . S
C1431 C1430 1.385 . S
C1431 C1432 1.389 . S
C1432 C1431 1.389 . S
C1432 C1433 1.387 . S
C1433 H1418 0.930 . S
C1433 C1428 1.390 . S
C1433 C1432 1.387 . S
H1434 C1446 0.930 . S
H1435 C1448 0.930 . S
H1436 C1449 0.930 . S
H1437 C1453 0.959 . S
H1438 C1453 0.959 . S
H1439 C1453 0.961 1_655 S
H1440 C1454 0.952 1_655 S
H1441 C1454 0.965 . S
H1442 C1454 0.959 . S
H1443 C1457 0.929 . S
H1444 C1458 0.931 . S
H1445 C1460 0.930 . S
C1446 H1434 0.930 . S
C1446 C1447 1.399 . S
C1446 C1451 1.399 . S
C1447 C1446 1.399 . S
C1447 C1448 1.376 . S
C1448 H1435 0.930 . S
C1448 C1447 1.376 . S
C1448 C1449 1.388 . S
C1449 H1436 0.930 . S
C1449 C1448 1.388 . S
C1449 C1450 1.390 . S
C1450 C1449 1.390 . S
C1450 C1451 1.394 . S
C1450 C1456 1.465 1_655 S
C1451 C1446 1.399 . S
C1451 C1450 1.394 . S
C1451 C1452 1.514 1_655 S
C1452 C1451 1.514 1_455 S
C1452 C1453 1.502 . S
C1452 C1454 1.563 . S
C1452 C1455 1.531 . S
C1453 H1437 0.959 . S
C1453 H1438 0.959 . S
C1453 H1439 0.961 1_455 S
C1453 C1452 1.502 . S
C1454 H1440 0.952 1_455 S
C1454 H1441 0.965 . S
C1454 H1442 0.959 . S
C1454 C1452 1.563 . S
C1455 C1452 1.531 . S
C1455 C1456 1.396 . S
C1455 C1460 1.390 . S
C1456 C1450 1.465 1_455 S
C1456 C1455 1.396 . S
C1456 C1457 1.399 . S
C1457 H1443 0.929 . S
C1457 C1456 1.399 . S
C1457 C1458 1.385 . S
C1458 H1444 0.931 . S
C1458 C1457 1.385 . S
C1458 C1459 1.389 . S
C1459 C1458 1.389 . S
C1459 C1460 1.387 . S
C1460 H1445 0.930 . S
C1460 C1455 1.390 . S
C1460 C1459 1.387 . S
H1461 C1473 0.930 . S
H1462 C1475 0.930 . S
H1463 C1476 0.930 . S
H1464 C1480 0.959 . S
H1465 C1480 0.959 . S
H1466 C1480 0.961 1_565 S
H1467 C1481 0.949 1_565 S
H1468 C1481 0.971 . S
H1469 C1481 0.967 . S
H1470 C1484 0.929 . S
H1471 C1485 0.931 . S
H1472 C1487 0.930 . S
C1473 H1461 0.930 . S
C1473 C1474 1.399 1_556 S
C1473 C1478 1.399 . S
C1474 C1473 1.399 1_554 S
C1474 C1475 1.376 . S
C1475 H1462 0.930 . S
C1475 C1474 1.376 . S
C1475 C1476 1.388 . S
C1476 H1463 0.930 . S
C1476 C1475 1.388 . S
C1476 C1477 1.390 . S
C1477 C1476 1.390 . S
C1477 C1478 1.394 1_554 S
C1477 C1483 1.465 1_565 S
C1478 C1473 1.399 . S
C1478 C1477 1.394 1_556 S
C1478 C1479 1.511 1_565 S
C1479 C1478 1.511 1_545 S
C1479 C1480 1.499 . S
C1479 C1481 1.558 . S
C1479 C1482 1.531 . S
C1480 H1464 0.959 . S
C1480 H1465 0.959 . S
C1480 H1466 0.961 1_545 S
C1480 C1479 1.499 . S
C1481 H1467 0.949 1_545 S
C1481 H1468 0.971 . S
C1481 H1469 0.967 . S
C1481 C1479 1.558 . S
C1482 C1479 1.531 . S
C1482 C1483 1.396 1_556 S
C1482 C1487 1.390 . S
C1483 C1477 1.465 1_545 S
C1483 C1482 1.396 1_554 S
C1483 C1484 1.399 . S
C1484 H1470 0.929 . S
C1484 C1483 1.399 . S
C1484 C1485 1.385 . S
C1485 H1471 0.931 . S
C1485 C1484 1.385 . S
C1485 C1486 1.389 . S
C1486 C1485 1.389 . S
C1486 C1487 1.387 1_554 S
C1487 H1472 0.930 . S
C1487 C1482 1.390 . S
C1487 C1486 1.387 1_556 S
H1488 C1500 0.930 . S
H1489 C1502 0.930 . S
H1490 C1503 0.930 . S
H1491 C1507 0.959 . S
H1492 C1507 0.959 . S
H1493 C1507 0.961 . S
H1494 C1508 0.960 . S
H1495 C1508 0.961 . S
H1496 C1508 0.959 . S
H1497 C1511 0.929 . S
H1498 C1512 0.931 . S
H1499 C1514 0.930 . S
C1500 H1488 0.930 . S
C1500 C1501 1.399 . S
C1500 C1505 1.399 . S
C1501 C1500 1.399 . S
C1501 C1502 1.376 . S
C1502 H1489 0.930 . S
C1502 C1501 1.376 . S
C1502 C1503 1.388 . S
C1503 H1490 0.930 . S
C1503 C1502 1.388 . S
C1503 C1504 1.390 . S
C1504 C1503 1.390 . S
C1504 C1505 1.394 . S
C1504 C1510 1.465 . S
C1505 C1500 1.399 . S
C1505 C1504 1.394 . S
C1505 C1506 1.516 . S
C1506 C1505 1.516 . S
C1506 C1507 1.502 . S
C1506 C1508 1.561 . S
C1506 C1509 1.526 . S
C1507 H1491 0.959 . S
C1507 H1492 0.959 . S
C1507 H1493 0.961 . S
C1507 C1506 1.502 . S
C1508 H1494 0.960 . S
C1508 H1495 0.961 . S
C1508 H1496 0.959 . S
C1508 C1506 1.561 . S
C1509 C1506 1.526 . S
C1509 C1510 1.396 . S
C1509 C1514 1.390 . S
C1510 C1504 1.465 . S
C1510 C1509 1.396 . S
C1510 C1511 1.399 . S
C1511 H1497 0.929 . S
C1511 C1510 1.399 . S
C1511 C1512 1.385 . S
C1512 H1498 0.931 . S
C1512 C1511 1.385 . S
C1512 C1513 1.389 . S
C1513 C1512 1.389 . S
C1513 C1514 1.387 . S
C1514 H1499 0.930 . S
C1514 C1509 1.390 . S
C1514 C1513 1.387 . S
H1515 C1527 0.930 . S
H1516 C1529 0.930 . S
H1517 C1530 0.930 . S
H1518 C1534 0.953 . S
H1519 C1534 0.973 . S
H1520 C1534 0.944 1_455 S
H1521 C1535 0.957 . S
H1522 C1535 0.963 1_655 S
H1523 C1535 0.961 1_655 S
H1524 C1538 0.929 . S
H1525 C1539 0.931 . S
H1526 C1541 0.930 . S
C1527 H1515 0.930 . S
C1527 C1528 1.399 . S
C1527 C1532 1.399 . S
C1528 C1527 1.399 . S
C1528 C1529 1.376 . S
C1529 H1516 0.930 . S
C1529 C1528 1.376 . S
C1529 C1530 1.388 . S
C1530 H1517 0.930 . S
C1530 C1529 1.388 . S
C1530 C1531 1.390 . S
C1531 C1530 1.390 . S
C1531 C1532 1.394 . S
C1531 C1537 1.465 1_455 S
C1532 C1527 1.399 . S
C1532 C1531 1.394 . S
C1532 C1533 1.514 . S
C1533 C1532 1.514 . S
C1533 C1534 1.509 1_455 S
C1533 C1535 1.561 . S
C1533 C1536 1.528 1_455 S
C1534 H1518 0.953 . S
C1534 H1519 0.973 . S
C1534 H1520 0.944 1_655 S
C1534 C1533 1.509 1_655 S
C1535 H1521 0.957 . S
C1535 H1522 0.963 1_455 S
C1535 H1523 0.961 1_455 S
C1535 C1533 1.561 . S
C1536 C1533 1.528 1_655 S
C1536 C1537 1.396 . S
C1536 C1541 1.390 . S
C1537 C1531 1.465 1_655 S
C1537 C1536 1.396 . S
C1537 C1538 1.399 . S
C1538 H1524 0.929 . S
C1538 C1537 1.399 . S
C1538 C1539 1.385 . S
C1539 H1525 0.931 . S
C1539 C1538 1.385 . S
C1539 C1540 1.389 . S
C1540 C1539 1.389 . S
C1540 C1541 1.387 . S
C1541 H1526 0.930 . S
C1541 C1536 1.390 . S
C1541 C1540 1.387 . S
H1542 C1554 0.930 . S
H1543 C1556 0.930 . S
H1544 C1557 0.930 . S
H1545 C1561 0.959 . S
H1546 C1561 0.959 . S
H1547 C1561 0.961 . S
H1548 C1562 0.960 . S
H1549 C1562 0.961 . S
H1550 C1562 0.956 . S
H1551 C1565 0.929 . S
H1552 C1566 0.931 . S
H1553 C1568 0.930 . S
C1554 H1542 0.930 . S
C1554 C1555 1.399 . S
C1554 C1559 1.399 . S
C1555 C1554 1.399 . S
C1555 C1556 1.376 . S
C1556 H1543 0.930 . S
C1556 C1555 1.376 . S
C1556 C1557 1.388 . S
C1557 H1544 0.930 . S
C1557 C1556 1.388 . S
C1557 C1558 1.390 . S
C1558 C1557 1.390 . S
C1558 C1559 1.394 . S
C1558 C1564 1.465 . S
C1559 C1554 1.399 . S
C1559 C1558 1.394 . S
C1559 C1560 1.516 1_556 S
C1560 C1559 1.516 1_554 S
C1560 C1561 1.502 . S
C1560 C1562 1.561 . S
C1560 C1563 1.526 . S
C1561 H1545 0.959 . S
C1561 H1546 0.959 . S
C1561 H1547 0.961 . S
C1561 C1560 1.502 . S
C1562 H1548 0.960 . S
C1562 H1549 0.961 . S
C1562 H1550 0.956 . S
C1562 C1560 1.561 . S
C1563 C1560 1.526 . S
C1563 C1564 1.396 1_554 S
C1563 C1568 1.390 . S
C1564 C1558 1.465 . S
C1564 C1563 1.396 1_556 S
C1564 C1565 1.399 . S
C1565 H1551 0.929 . S
C1565 C1564 1.399 . S
C1565 C1566 1.385 1_556 S
C1566 H1552 0.931 . S
C1566 C1565 1.385 1_554 S
C1566 C1567 1.389 . S
C1567 C1566 1.389 . S
C1567 C1568 1.387 . S
C1568 H1553 0.930 . S
C1568 C1563 1.390 . S
C1568 C1567 1.387 . S
H1569 C1581 0.930 . S
H1570 C1583 0.930 . S
H1571 C1584 0.930 . S
H1572 C1588 0.959 . S
H1573 C1588 0.959 . S
H1574 C1588 0.961 . S
H1575 C1589 0.960 . S
H1576 C1589 0.961 . S
H1577 C1589 0.959 . S
H1578 C1592 0.929 . S
H1579 C1593 0.931 . S
H1580 C1595 0.930 . S
C1581 H1569 0.930 . S
C1581 C1582 1.399 . S
C1581 C1586 1.399 . S
C1582 C1581 1.399 . S
C1582 C1583 1.376 . S
C1583 H1570 0.930 . S
C1583 C1582 1.376 . S
C1583 C1584 1.388 . S
C1584 H1571 0.930 . S
C1584 C1583 1.388 . S
C1584 C1585 1.390 . S
C1585 C1584 1.390 . S
C1585 C1586 1.394 . S
C1585 C1591 1.465 . S
C1586 C1581 1.399 . S
C1586 C1585 1.394 . S
C1586 C1587 1.516 . S
C1587 C1586 1.516 . S
C1587 C1588 1.502 . S
C1587 C1589 1.561 . S
C1587 C1590 1.526 . S
C1588 H1572 0.959 . S
C1588 H1573 0.959 . S
C1588 H1574 0.961 . S
C1588 C1587 1.502 . S
C1589 H1575 0.960 . S
C1589 H1576 0.961 . S
C1589 H1577 0.959 . S
C1589 C1587 1.561 . S
C1590 C1587 1.526 . S
C1590 C1591 1.396 . S
C1590 C1595 1.390 . S
C1591 C1585 1.465 . S
C1591 C1590 1.396 . S
C1591 C1592 1.399 . S
C1592 H1578 0.929 . S
C1592 C1591 1.399 . S
C1592 C1593 1.385 . S
C1593 H1579 0.931 . S
C1593 C1592 1.385 . S
C1593 C1594 1.389 . S
C1594 C1593 1.389 . S
C1594 C1595 1.387 . S
C1595 H1580 0.930 . S
C1595 C1590 1.390 . S
C1595 C1594 1.387 . S
H1596 C1608 0.930 . S
H1597 C1610 0.930 . S
H1598 C1611 0.930 . S
H1599 C1615 0.959 . S
H1600 C1615 0.959 . S
H1601 C1615 0.961 . S
H1602 C1616 0.960 . S
H1603 C1616 0.961 . S
H1604 C1616 0.959 . S
H1605 C1619 0.929 . S
H1606 C1620 0.931 . S
H1607 C1622 0.930 . S
C1608 H1596 0.930 . S
C1608 C1609 1.399 . S
C1608 C1613 1.399 . S
C1609 C1608 1.399 . S
C1609 C1610 1.376 . S
C1610 H1597 0.930 . S
C1610 C1609 1.376 . S
C1610 C1611 1.388 . S
C1611 H1598 0.930 . S
C1611 C1610 1.388 . S
C1611 C1612 1.390 . S
C1612 C1611 1.390 . S
C1612 C1613 1.394 . S
C1612 C1618 1.465 . S
C1613 C1608 1.399 . S
C1613 C1612 1.394 . S
C1613 C1614 1.516 . S
C1614 C1613 1.516 . S
C1614 C1615 1.502 . S
C1614 C1616 1.561 . S
C1614 C1617 1.526 . S
C1615 H1599 0.959 . S
C1615 H1600 0.959 . S
C1615 H1601 0.961 . S
C1615 C1614 1.502 . S
C1616 H1602 0.960 . S
C1616 H1603 0.961 . S
C1616 H1604 0.959 . S
C1616 C1614 1.561 . S
C1617 C1614 1.526 . S
C1617 C1618 1.396 . S
C1617 C1622 1.390 . S
C1618 C1612 1.465 . S
C1618 C1617 1.396 . S
C1618 C1619 1.399 . S
C1619 H1605 0.929 . S
C1619 C1618 1.399 . S
C1619 C1620 1.385 . S
C1620 H1606 0.931 . S
C1620 C1619 1.385 . S
C1620 C1621 1.389 . S
C1621 C1620 1.389 . S
C1621 C1622 1.387 . S
C1622 H1607 0.930 . S
C1622 C1617 1.390 . S
C1622 C1621 1.387 . S
H1623 C1635 0.930 . S
H1624 C1637 0.930 . S
H1625 C1638 0.930 . S
H1626 C1642 0.959 . S
H1627 C1642 0.959 . S
H1628 C1642 0.961 . S
H1629 C1643 0.960 . S
H1630 C1643 0.961 . S
H1631 C1643 0.959 . S
H1632 C1646 0.943 . S
H1633 C1647 0.931 . S
H1634 C1649 0.930 . S
C1635 H1623 0.930 . S
C1635 C1636 1.399 . S
C1635 C1640 1.399 . S
C1636 C1635 1.399 . S
C1636 C1637 1.376 . S
C1637 H1624 0.930 . S
C1637 C1636 1.376 . S
C1637 C1638 1.388 . S
C1638 H1625 0.930 . S
C1638 C1637 1.388 . S
C1638 C1639 1.390 . S
C1639 C1638 1.390 . S
C1639 C1640 1.394 . S
C1639 C1645 1.465 1_554 S
C1640 C1635 1.399 . S
C1640 C1639 1.394 . S
C1640 C1641 1.516 1_554 S
C1641 C1640 1.516 1_556 S
C1641 C1642 1.502 . S
C1641 C1643 1.561 1_556 S
C1641 C1644 1.526 . S
C1642 H1626 0.959 . S
C1642 H1627 0.959 . S
C1642 H1628 0.961 . S
C1642 C1641 1.502 . S
C1643 H1629 0.960 . S
C1643 H1630 0.961 . S
C1643 H1631 0.959 . S
C1643 C1641 1.561 1_554 S
C1644 C1641 1.526 . S
C1644 C1645 1.396 . S
C1644 C1649 1.390 . S
C1645 C1639 1.465 1_556 S
C1645 C1644 1.396 . S
C1645 C1646 1.399 . S
C1646 H1632 0.943 . S
C1646 C1645 1.399 . S
C1646 C1647 1.385 . S
C1647 H1633 0.931 . S
C1647 C1646 1.385 . S
C1647 C1648 1.389 . S
C1648 C1647 1.389 . S
C1648 C1649 1.387 . S
C1649 H1634 0.930 . S
C1649 C1644 1.390 . S
C1649 C1648 1.387 . S
H1650 C1662 0.930 . S
H1651 C1664 0.930 . S
H1652 C1665 0.930 . S
H1653 C1669 0.959 . S
H1654 C1669 0.959 . S
H1655 C1669 0.961 . S
H1656 C1670 0.960 . S
H1657 C1670 0.961 . S
H1658 C1670 0.959 . S
H1659 C1673 0.929 . S
H1660 C1674 0.931 . S
H1661 C1676 0.930 . S
C1662 H1650 0.930 . S
C1662 C1663 1.399 . S
C1662 C1667 1.399 . S
C1663 C1662 1.399 . S
C1663 C1664 1.376 . S
C1664 H1651 0.930 . S
C1664 C1663 1.376 . S
C1664 C1665 1.388 . S
C1665 H1652 0.930 . S
C1665 C1664 1.388 . S
C1665 C1666 1.390 . S
C1666 C1665 1.390 . S
C1666 C1667 1.394 . S
C1666 C1672 1.465 . S
C1667 C1662 1.399 . S
C1667 C1666 1.394 . S
C1667 C1668 1.516 . S
C1668 C1667 1.516 . S
C1668 C1669 1.502 . S
C1668 C1670 1.561 . S
C1668 C1671 1.526 . S
C1669 H1653 0.959 . S
C1669 H1654 0.959 . S
C1669 H1655 0.961 . S
C1669 C1668 1.502 . S
C1670 H1656 0.960 . S
C1670 H1657 0.961 . S
C1670 H1658 0.959 . S
C1670 C1668 1.561 . S
C1671 C1668 1.526 . S
C1671 C1672 1.396 . S
C1671 C1676 1.390 . S
C1672 C1666 1.465 . S
C1672 C1671 1.396 . S
C1672 C1673 1.399 . S
C1673 H1659 0.929 . S
C1673 C1672 1.399 . S
C1673 C1674 1.385 . S
C1674 H1660 0.931 . S
C1674 C1673 1.385 . S
C1674 C1675 1.389 . S
C1675 C1674 1.389 . S
C1675 C1676 1.387 . S
C1676 H1661 0.930 . S
C1676 C1671 1.390 . S
C1676 C1675 1.387 . S
H1677 C1689 0.930 . S
H1678 C1691 0.930 . S
H1679 C1692 0.930 . S
H1680 C1696 0.959 . S
H1681 C1696 0.959 . S
H1682 C1696 0.961 . S
H1683 C1697 0.960 . S
H1684 C1697 0.961 . S
H1685 C1697 0.959 . S
H1686 C1700 0.929 . S
H1687 C1701 0.931 . S
H1688 C1703 0.930 . S
C1689 H1677 0.930 . S
C1689 C1690 1.399 . S
C1689 C1694 1.399 . S
C1690 C1689 1.399 . S
C1690 C1691 1.376 . S
C1691 H1678 0.930 . S
C1691 C1690 1.376 . S
C1691 C1692 1.388 . S
C1692 H1679 0.930 . S
C1692 C1691 1.388 . S
C1692 C1693 1.390 . S
C1693 C1692 1.390 . S
C1693 C1694 1.394 . S
C1693 C1699 1.465 . S
C1694 C1689 1.399 . S
C1694 C1693 1.394 . S
C1694 C1695 1.516 . S
C1695 C1694 1.516 . S
C1695 C1696 1.502 . S
C1695 C1697 1.561 . S
C1695 C1698 1.526 . S
C1696 H1680 0.959 . S
C1696 H1681 0.959 . S
C1696 H1682 0.961 . S
C1696 C1695 1.502 . S
C1697 H1683 0.960 . S
C1697 H1684 0.961 . S
C1697 H1685 0.959 . S
C1697 C1695 1.561 . S
C1698 C1695 1.526 . S
C1698 C1699 1.396 . S
C1698 C1703 1.390 . S
C1699 C1693 1.465 . S
C1699 C1698 1.396 . S
C1699 C1700 1.399 . S
C1700 H1686 0.929 . S
C1700 C1699 1.399 . S
C1700 C1701 1.385 . S
C1701 H1687 0.931 . S
C1701 C1700 1.385 . S
C1701 C1702 1.389 . S
C1702 C1701 1.389 . S
C1702 C1703 1.387 . S
C1703 H1688 0.930 . S
C1703 C1698 1.390 . S
C1703 C1702 1.387 . S
C1069 C293 1.889 . S
C1081 C20 1.939 . S
C1096 C108 1.961 . S
C1108 C372 1.926 . S
C1123 C460 1.887 . S
C1135 C205 1.945 . S
C1150 C585 1.951 . S
C1162 C849 1.939 . S
C1177 C929 1.886 . S
C1189 C665 1.949 . S
C1204 C761 1.958 . S
C1216 C1025 1.930 . S
C1231 C753 1.578 . S
C1243 C29 1.585 . S
C1258 C117 1.579 . S
C1270 C841 1.584 . S
C1285 C196 1.577 . S
C1297 C937 1.585 . S
C1312 C284 1.582 . S
C1324 C1017 1.581 . S
C1339 C577 1.583 . S
C1351 C381 1.579 . S
C1366 C673 1.584 . S
C1378 C469 1.580 . S
C1393 C636 1.184 1_554 S
C1405 C49 1.114 . S
C1420 C137 1.169 . S
C1432 C733 1.232 . S
C1447 C233 1.117 . S
C1459 C821 1.194 . S
C1474 C321 1.156 . S
C1486 C900 1.228 1_554 S
C1501 C997 1.166 . S
C1513 C401 1.231 . S
C1528 C489 1.187 . S
C1540 C557 1.115 . S
C1555 C909 1.161 . S
C1567 C57 1.109 . S
C1582 C988 1.107 . S
C1594 C145 1.161 . S
C1609 C548 1.146 . S
C1621 C225 1.139 . S
C1636 C313 1.155 . S
C1648 C645 1.126 . S
C1663 C409 1.106 . S
C1675 C724 1.160 . S
C1690 C497 1.161 . S
C1702 C812 1.112 . S
