# Generated by pormake.
# Topology fnc, (5)-cn, num edge types: 1
# Building blocks:
#     Node 0, Type 0, BuildingBlock: XOMCOT_clean_sbu_0, # of connection points: 5
#     Node 1, Type 0, BuildingBlock: XOMCOT_clean_sbu_0, # of connection points: 5
#     Node 2, Type 0, BuildingBlock: XOMCOT_clean_sbu_0, # of connection points: 5
#     Node 3, Type 0, BuildingBlock: XOMCOT_clean_sbu_0, # of connection points: 5
#     Node 4, Type 0, BuildingBlock: XOMCOT_clean_sbu_0, # of connection points: 5
#     Node 5, Type 0, BuildingBlock: XOMCOT_clean_sbu_0, # of connection points: 5
#     Node 6, Type 0, BuildingBlock: XOMCOT_clean_sbu_0, # of connection points: 5
#     Node 7, Type 0, BuildingBlock: XOMCOT_clean_sbu_0, # of connection points: 5
#     Node 8, Type 0, BuildingBlock: XOMCOT_clean_sbu_0, # of connection points: 5
#     Node 9, Type 0, BuildingBlock: XOMCOT_clean_sbu_0, # of connection points: 5
#     Node 10, Type 0, BuildingBlock: XOMCOT_clean_sbu_0, # of connection points: 5
#     Node 11, Type 0, BuildingBlock: XOMCOT_clean_sbu_0, # of connection points: 5
#     Node 12, Type 0, BuildingBlock: XOMCOT_clean_sbu_0, # of connection points: 5
#     Node 13, Type 0, BuildingBlock: XOMCOT_clean_sbu_0, # of connection points: 5
#     Node 14, Type 0, BuildingBlock: XOMCOT_clean_sbu_0, # of connection points: 5
#     Node 15, Type 0, BuildingBlock: XOMCOT_clean_sbu_0, # of connection points: 5
#     Node 16, Type 0, BuildingBlock: XOMCOT_clean_sbu_0, # of connection points: 5
#     Node 17, Type 0, BuildingBlock: XOMCOT_clean_sbu_0, # of connection points: 5
#     Edge 18, Type (0, 0), BuildingBlock: AJUNOK_clean_linker_0, # of connection points: 2
#     Edge 19, Type (0, 0), BuildingBlock: AJUNOK_clean_linker_0, # of connection points: 2
#     Edge 20, Type (0, 0), BuildingBlock: AJUNOK_clean_linker_0, # of connection points: 2
#     Edge 21, Type (0, 0), BuildingBlock: AJUNOK_clean_linker_0, # of connection points: 2
#     Edge 22, Type (0, 0), BuildingBlock: AJUNOK_clean_linker_0, # of connection points: 2
#     Edge 23, Type (0, 0), BuildingBlock: AJUNOK_clean_linker_0, # of connection points: 2
#     Edge 24, Type (0, 0), BuildingBlock: AJUNOK_clean_linker_0, # of connection points: 2
#     Edge 25, Type (0, 0), BuildingBlock: AJUNOK_clean_linker_0, # of connection points: 2
#     Edge 26, Type (0, 0), BuildingBlock: AJUNOK_clean_linker_0, # of connection points: 2
#     Edge 27, Type (0, 0), BuildingBlock: AJUNOK_clean_linker_0, # of connection points: 2
#     Edge 28, Type (0, 0), BuildingBlock: AJUNOK_clean_linker_0, # of connection points: 2
#     Edge 29, Type (0, 0), BuildingBlock: AJUNOK_clean_linker_0, # of connection points: 2
#     Edge 30, Type (0, 0), BuildingBlock: AJUNOK_clean_linker_0, # of connection points: 2
#     Edge 31, Type (0, 0), BuildingBlock: AJUNOK_clean_linker_0, # of connection points: 2
#     Edge 32, Type (0, 0), BuildingBlock: AJUNOK_clean_linker_0, # of connection points: 2
#     Edge 33, Type (0, 0), BuildingBlock: AJUNOK_clean_linker_0, # of connection points: 2
#     Edge 34, Type (0, 0), BuildingBlock: AJUNOK_clean_linker_0, # of connection points: 2
#     Edge 35, Type (0, 0), BuildingBlock: AJUNOK_clean_linker_0, # of connection points: 2
#     Edge 36, Type (0, 0), BuildingBlock: AJUNOK_clean_linker_0, # of connection points: 2
#     Edge 37, Type (0, 0), BuildingBlock: AJUNOK_clean_linker_0, # of connection points: 2
#     Edge 38, Type (0, 0), BuildingBlock: AJUNOK_clean_linker_0, # of connection points: 2
#     Edge 39, Type (0, 0), BuildingBlock: AJUNOK_clean_linker_0, # of connection points: 2
#     Edge 40, Type (0, 0), BuildingBlock: AJUNOK_clean_linker_0, # of connection points: 2
#     Edge 41, Type (0, 0), BuildingBlock: AJUNOK_clean_linker_0, # of connection points: 2
#     Edge 42, Type (0, 0), BuildingBlock: AJUNOK_clean_linker_0, # of connection points: 2
#     Edge 43, Type (0, 0), BuildingBlock: AJUNOK_clean_linker_0, # of connection points: 2
#     Edge 44, Type (0, 0), BuildingBlock: AJUNOK_clean_linker_0, # of connection points: 2
#     Edge 45, Type (0, 0), BuildingBlock: AJUNOK_clean_linker_0, # of connection points: 2
#     Edge 46, Type (0, 0), BuildingBlock: AJUNOK_clean_linker_0, # of connection points: 2
#     Edge 47, Type (0, 0), BuildingBlock: AJUNOK_clean_linker_0, # of connection points: 2
#     Edge 48, Type (0, 0), BuildingBlock: AJUNOK_clean_linker_0, # of connection points: 2
#     Edge 49, Type (0, 0), BuildingBlock: AJUNOK_clean_linker_0, # of connection points: 2
#     Edge 50, Type (0, 0), BuildingBlock: AJUNOK_clean_linker_0, # of connection points: 2
#     Edge 51, Type (0, 0), BuildingBlock: AJUNOK_clean_linker_0, # of connection points: 2
#     Edge 52, Type (0, 0), BuildingBlock: AJUNOK_clean_linker_0, # of connection points: 2
#     Edge 53, Type (0, 0), BuildingBlock: AJUNOK_clean_linker_0, # of connection points: 2
#     Edge 54, Type (0, 0), BuildingBlock: AJUNOK_clean_linker_0, # of connection points: 2
#     Edge 55, Type (0, 0), BuildingBlock: AJUNOK_clean_linker_0, # of connection points: 2
#     Edge 56, Type (0, 0), BuildingBlock: AJUNOK_clean_linker_0, # of connection points: 2
#     Edge 57, Type (0, 0), BuildingBlock: AJUNOK_clean_linker_0, # of connection points: 2
#     Edge 58, Type (0, 0), BuildingBlock: AJUNOK_clean_linker_0, # of connection points: 2
#     Edge 59, Type (0, 0), BuildingBlock: AJUNOK_clean_linker_0, # of connection points: 2
#     Edge 60, Type (0, 0), BuildingBlock: AJUNOK_clean_linker_0, # of connection points: 2
#     Edge 61, Type (0, 0), BuildingBlock: AJUNOK_clean_linker_0, # of connection points: 2
#     Edge 62, Type (0, 0), BuildingBlock: AJUNOK_clean_linker_0, # of connection points: 2
# Relax obj value: 0.178
# Max RMSD: 0.316
# Mean RMSD: 0.302
data_MOF--net-fnc--node1-XOMCOT_clean_sbu_0--edge1-AJUNOK_clean_linker_0
_symmetry_space_group_name_H-M    P1
_symmetry_Int_Tables_number       1
_symmetry_cell_setting            triclinic
loop_
_symmetry_equiv_pos_as_xyz
'x, y, z'
_cell_length_a     70.573374
_cell_length_b     79.380415
_cell_length_c     13.538901
_cell_angle_alpha  90.457263
_cell_angle_beta   90.998405
_cell_angle_gamma 122.01901
loop_
_atom_site_label
_atom_site_type_symbol
_atom_site_fract_x
_atom_site_fract_y
_atom_site_fract_z
_atom_type_partial_charge
Co0 Co 0.02986 0.45724 0.07332 0.0
C1 C 0.03166 0.4588 0.8538 0.0
C2 C 0.05608 0.45353 0.91575 0.0
C3 C 0.05646 0.45227 0.81425 0.0
N4 N 0.04107 0.45836 0.94102 0.0
N5 N 0.04089 0.45537 0.77592 0.0
H6 H 0.01741 0.46032 0.84648 0.0
H7 H 0.06503 0.44975 0.96723 0.0
C8 C 0.08025 0.47735 0.11706 0.0
O9 O 0.08606 0.48864 0.03914 0.0
N10 N 0.0186 0.45544 0.20425 0.0
C11 C 0.00134 0.45706 0.23115 0.0
C12 C -0.00026 0.4557 0.3327 0.0
C13 C 0.02719 0.45307 0.28903 0.0
N14 N 0.01607 0.45325 0.3685 0.0
C15 C 0.02414 0.4879 1.00125 0.0
C16 C 0.05484 0.51808 0.1267 0.0
C17 C 0.0429 0.52208 0.05681 0.0
C18 C 0.02728 0.50667 0.99433 0.0
C19 C 0.05137 0.49899 0.13027 0.0
N20 N 0.03664 0.48433 0.0657 0.0
H21 H 0.01089 0.47607 0.95712 0.0
H22 H 0.05999 0.49593 0.18709 0.0
H23 H 0.99099 0.45951 0.18083 0.0
H24 H 0.04138 0.45133 0.29322 0.0
O25 O -0.00037 0.4432 1.0172 0.0
O26 O 0.01789 0.4293 0.07129 0.0
O27 O 0.05974 0.46544 0.13656 0.0
C28 C 0.00016 0.42719 0.0275 0.0
H29 H 0.06635 0.44815 0.77214 0.0
H30 H 0.98803 0.45714 0.37699 0.0
H31 H 0.06656 0.52951 0.17847 0.0
H32 H 0.01692 0.50891 0.9428 0.0
Co33 Co 0.62351 0.67245 1.01365 0.0
C34 C 0.62261 0.67032 0.23242 0.0
C35 C 0.65556 0.68127 0.18055 0.0
C36 C 0.65646 0.68203 0.28251 0.0
N37 N 0.63414 0.67321 0.14877 0.0
N38 N 0.63573 0.67531 0.31431 0.0
H39 H 0.60529 0.66582 0.23443 0.0
H40 H 0.66981 0.6872 0.13325 0.0
C41 C 0.65649 0.65898 0.98659 0.0
O42 O 0.64944 0.64792 0.06535 0.0
N43 N 0.61277 0.67211 0.88096 0.0
C44 C 0.59151 0.66558 0.8527 0.0
C45 C 0.59034 0.66614 0.75102 0.0
C46 C 0.62425 0.67667 0.79672 0.0
N47 N 0.61092 0.67301 0.71648 0.0
C48 C 0.58363 0.63764 0.07769 0.0
C49 C 0.58705 0.61063 0.96152 0.0
C50 C 0.56903 0.60374 0.02473 0.0
C51 C 0.56732 0.6175 0.08283 0.0
C52 C 0.60299 0.63095 0.95848 0.0
N53 N 0.60173 0.6441 0.01957 0.0
H54 H 0.58123 0.64803 0.11835 0.0
H55 H 0.61588 0.63604 0.90459 0.0
H56 H 0.57769 0.66015 0.90233 0.0
H57 H 0.64194 0.68247 0.79382 0.0
O58 O 0.606 0.68291 0.06426 0.0
O59 O 0.64091 0.70075 1.01468 0.0
O60 O 0.6474 0.66848 0.95779 0.0
C61 C 0.62408 0.70035 0.05476 0.0
H62 H 0.67131 0.68806 0.32948 0.0
H63 H 0.57541 0.66108 0.70571 0.0
H64 H 0.58846 0.60045 0.91299 0.0
H65 H 0.5534 0.61276 0.1314 0.0
Co66 Co 0.43751 0.07953 0.08833 0.0
C67 C 0.43752 0.07493 0.87039 0.0
C68 C 0.40436 0.06107 0.92483 0.0
C69 C 0.40321 0.06115 0.82302 0.0
N70 N 0.42593 0.06961 0.95481 0.0
N71 N 0.42416 0.07017 0.78907 0.0
H72 H 0.45541 0.08302 0.86775 0.0
H73 H 0.39054 0.05636 0.97385 0.0
C74 C 0.40496 0.03548 0.11371 0.0
O75 O 0.40975 0.03124 0.02734 0.0
N76 N 0.4486 0.08951 0.22031 0.0
C77 C 0.47013 0.10088 0.25035 0.0
C78 C 0.47103 0.10176 0.35196 0.0
C79 C 0.43667 0.08392 0.30347 0.0
N80 N 0.44996 0.09117 0.38558 0.0
C81 C 0.47826 0.08395 0.02422 0.0
C82 C 0.47591 0.0535 0.13136 0.0
C83 C 0.49441 0.06492 0.07209 0.0
C84 C 0.49538 0.08024 0.0178 0.0
C85 C 0.45892 0.05756 0.13466 0.0
N86 N 0.45976 0.07217 0.07834 0.0
H87 H 0.48031 0.09674 0.9871 0.0
H88 H 0.44572 0.04947 0.18601 0.0
H89 H 0.48424 0.10712 0.20209 0.0
H90 H 0.41867 0.07419 0.30371 0.0
O91 O 0.45453 0.10612 0.03686 0.0
O92 O 0.41995 0.09162 0.09072 0.0
O93 O 0.41464 0.05335 0.14626 0.0
C94 C 0.4368 0.10688 0.04997 0.0
H95 H 0.38827 0.05621 0.77799 0.0
H96 H 0.48622 0.10862 0.39689 0.0
H97 H 0.47488 0.0419 0.17696 0.0
H98 H 0.50935 0.08947 0.97108 0.0
Co99 Co 0.04956 0.65774 0.02707 0.0
C100 C 0.04437 0.65232 0.24536 0.0
C101 C 0.0245 0.66269 0.18219 0.0
C102 C 0.02377 0.66369 0.28369 0.0
N103 N 0.03718 0.65532 0.15762 0.0
N104 N 0.03622 0.65706 0.32323 0.0
H105 H 0.05689 0.64858 0.25349 0.0
H106 H 0.01775 0.66848 0.12969 0.0
C107 C -0.00107 0.63431 0.98042 0.0
O108 O -0.00671 0.62498 0.06464 0.0
N109 N 0.0618 0.66066 0.89678 0.0
C110 C 0.07663 0.65588 0.86887 0.0
C111 C 0.07697 0.65555 0.76703 0.0
C112 C 0.05376 0.66367 0.81173 0.0
N113 N 0.06241 0.66025 0.73132 0.0
C114 C 0.06077 0.63005 0.09539 0.0
C115 C 0.0308 0.59824 0.9759 0.0
C116 C 0.0451 0.59613 0.04054 0.0
C117 C 0.06018 0.61227 0.1008 0.0
C118 C 0.03172 0.61627 0.97384 0.0
N119 N 0.04614 0.63177 0.03544 0.0
H120 H 0.07368 0.64266 0.13727 0.0
H121 H 0.02146 0.61786 0.91956 0.0
H122 H 0.08554 0.65172 0.9187 0.0
H123 H 0.04088 0.66714 0.80846 0.0
O124 O 0.07924 0.67405 0.08531 0.0
O125 O 0.05834 0.68525 0.02915 0.0
O126 O 0.01941 0.64662 0.96106 0.0
C127 C 0.07663 0.68896 0.07422 0.0
H128 H 0.01558 0.66966 0.32518 0.0
H129 H 0.08657 0.65145 0.72258 0.0
H130 H 0.01921 0.58613 0.92669 0.0
H131 H 0.07199 0.61138 0.14926 0.0
Co132 Co 0.44632 0.45175 0.08713 0.0
C133 C 0.44579 0.45483 0.86861 0.0
C134 C 0.41275 0.43887 0.92484 0.0
C135 C 0.41126 0.43706 0.82331 0.0
N136 N 0.43442 0.45047 0.95387 0.0
N137 N 0.43212 0.44684 0.78782 0.0
H138 H 0.4637 0.46211 0.86549 0.0
H139 H 0.39895 0.43108 0.97427 0.0
C140 C 0.40926 0.46017 0.12048 0.0
O141 O 0.41065 0.46856 0.03551 0.0
N142 N 0.45787 0.45238 0.21898 0.0
C143 C 0.47932 0.46032 0.2487 0.0
C144 C 0.48026 0.45994 0.35074 0.0
C145 C 0.44608 0.44706 0.30283 0.0
N146 N 0.4593 0.45152 0.38437 0.0
C147 C 0.48763 0.48503 0.02163 0.0
C148 C 0.48355 0.51393 0.11566 0.0
C149 C 0.50194 0.51976 0.05591 0.0
C150 C 0.50416 0.50502 1.01014 0.0
C151 C 0.46732 0.49386 0.12409 0.0
N152 N 0.46901 0.47969 0.07434 0.0
H153 H 0.48987 0.47383 0.98831 0.0
H154 H 0.45377 0.48996 0.17282 0.0
H155 H 0.49338 0.46662 0.20009 0.0
H156 H 0.42833 0.44103 0.30487 0.0
O157 O 0.46115 0.43878 0.03201 0.0
O158 O 0.42744 0.42398 0.09373 0.0
O159 O 0.42442 0.45714 0.15032 0.0
C160 C 0.44228 0.42223 0.04853 0.0
H161 H 0.39593 0.42863 0.77979 0.0
H162 H 0.49522 0.46576 0.39676 0.0
H163 H 0.48183 0.5248 0.15668 0.0
H164 H 0.51843 0.5089 0.96531 0.0
Co165 Co 0.62352 0.03587 0.0487 0.0
C166 C 0.62212 0.03894 0.26785 0.0
C167 C 0.65303 0.06244 0.21222 0.0
C168 C 0.65432 0.0636 0.31377 0.0
N169 N 0.63261 0.04724 0.18259 0.0
N170 N 0.63501 0.04853 0.34885 0.0
H171 H 0.60634 0.02498 0.27139 0.0
H172 H 0.6668 0.07126 0.16437 0.0
C173 C 0.6526 0.08025 1.00218 0.0
O174 O 0.64397 0.08589 0.07029 0.0
N175 N 0.61478 0.02462 0.91611 0.0
C176 C 0.59484 0.00889 0.88598 0.0
C177 C 0.59412 0.00783 0.78398 0.0
C178 C 0.62589 0.03282 0.83238 0.0
N179 N 0.61367 0.02293 0.75054 0.0
C180 C 0.58257 0.03146 0.10747 0.0
C181 C 0.58229 0.0578 0.97624 0.0
C182 C 0.56529 0.04863 0.04512 0.0
C183 C 0.56525 0.03498 0.10969 0.0
C184 C 0.59923 0.05365 0.97585 0.0
N185 N 0.59983 0.04141 0.04447 0.0
H186 H 0.58184 0.02048 0.15589 0.0
H187 H 0.61167 0.06015 0.9197 0.0
H188 H 0.58139 -0.00057 0.93444 0.0
H189 H 0.64206 0.04645 0.83068 0.0
O190 O 0.60732 0.00948 0.10407 0.0
O191 O 0.64292 0.02588 0.06283 0.0
O192 O 0.64614 0.06203 0.98938 0.0
C193 C 0.6262 0.01028 0.10206 0.0
H194 H 0.66878 0.07428 0.35786 0.0
H195 H 0.58004 -0.00287 0.73797 0.0
H196 H 0.58233 0.06787 0.92264 0.0
H197 H 0.55207 0.02726 0.16232 0.0
Co198 Co 0.69872 0.79687 0.40425 0.0
C199 C 0.69473 0.79854 0.6214 0.0
C200 C 0.67036 0.76978 0.56131 0.0
C201 C 0.66978 0.76897 0.66324 0.0
N202 N 0.68583 0.78844 0.53464 0.0
N203 N 0.68507 0.78708 0.70042 0.0
H204 H 0.70923 0.81346 0.62745 0.0
H205 H 0.66144 0.75718 0.51103 0.0
C206 C 0.64921 0.76532 0.32777 0.0
O207 O 0.63636 0.76631 0.39358 0.0
N208 N 0.71178 0.8052 0.27369 0.0
C209 C 0.7334 0.81348 0.24937 0.0
C210 C 0.73482 0.81386 0.14774 0.0
C211 C 0.70057 0.80123 0.18572 0.0
N212 N 0.7141 0.80592 0.10793 0.0
C213 C 0.70417 0.83387 0.46026 0.0
C214 C 0.67053 0.83084 0.33871 0.0
C215 C 0.68334 0.84788 0.39781 0.0
C216 C 0.70021 0.84929 0.45982 0.0
C217 C 0.67486 0.81564 0.34229 0.0
N218 N 0.69142 0.8172 0.40301 0.0
H219 H 0.71787 0.83559 0.50513 0.0
H220 H 0.66517 0.80303 0.29363 0.0
H221 H 0.74725 0.81832 0.30109 0.0
H222 H 0.68267 0.79415 0.17771 0.0
O223 O 0.72837 0.81103 0.4692 0.0
O224 O 0.7098 0.77984 0.41385 0.0
O225 O 0.67041 0.77635 0.33554 0.0
C226 C 0.72729 0.79415 0.45987 0.0
H227 H 0.66 0.75581 0.70663 0.0
H228 H 0.74991 0.81925 0.10644 0.0
H229 H 0.65747 0.82939 0.28933 0.0
H230 H 0.71074 0.8625 0.50506 0.0
Co231 Co 0.2905 -0.00015 0.39501 0.0
C232 C 0.29191 -0.00397 0.61436 0.0
C233 C 0.32456 0.0135 0.55529 0.0
C234 C 0.32648 0.01499 0.65694 0.0
N235 N 0.30286 0.00138 0.52785 0.0
N236 N 0.30585 0.00424 0.69416 0.0
H237 H 0.27401 0.98817 0.61983 0.0
H238 H 0.33802 0.02186 0.50492 0.0
C239 C 0.32867 -0.00629 0.35314 0.0
O240 O 0.32495 0.98281 0.43143 0.0
N241 N 0.27887 -0.00103 0.26286 0.0
C242 C 0.25738 0.98823 0.2311 0.0
C243 C 0.25675 0.98837 0.12908 0.0
C244 C 0.29096 0.00574 0.18001 0.0
N245 N 0.2779 -0.00065 0.097 0.0
C246 C 0.25485 0.96209 0.45498 0.0
C247 C 0.261 0.93905 0.32102 0.0
C248 C 0.24249 0.93 0.38211 0.0
C249 C 0.23977 0.9417 0.45085 0.0
C250 C 0.27589 0.95968 0.32783 0.0
N251 N 0.27291 0.97094 0.39554 0.0
H252 H 0.25102 0.97078 0.50205 0.0
H253 H 0.28892 0.96657 0.2745 0.0
H254 H 0.24327 0.97988 0.27835 0.0
H255 H 0.30902 0.01408 0.1801 0.0
O256 O 0.26912 0.00504 0.45276 0.0
O257 O 0.30286 0.02805 0.40357 0.0
O258 O 0.31664 0.00084 0.33253 0.0
C259 C 0.28446 0.02374 0.44608 0.0
H260 H 0.34188 0.02391 0.69954 0.0
H261 H 0.24191 0.98037 0.08201 0.0
H262 H 0.26325 0.93044 0.26528 0.0
H263 H 0.22546 0.93522 0.49838 0.0
Co264 Co 0.09551 0.3981 0.37338 0.0
C265 C 0.10051 0.40158 0.59276 0.0
C266 C 0.09051 0.42071 0.53393 0.0
C267 C 0.09041 0.42171 0.63557 0.0
N268 N 0.09737 0.40842 0.50673 0.0
N269 N 0.09672 0.40965 0.67239 0.0
H270 H 0.10354 0.38968 0.59779 0.0
H271 H 0.08469 0.42758 0.4834 0.0
C272 C 0.11902 0.44309 0.34385 0.0
O273 O 0.12951 0.44788 0.4302 0.0
N274 N 0.09324 0.38784 0.24112 0.0
C275 C 0.09676 0.37339 0.21368 0.0
C276 C 0.09715 0.37277 0.11197 0.0
C277 C 0.09121 0.39561 0.1562 0.0
N278 N 0.09387 0.38688 0.07629 0.0
C279 C 0.12708 0.38857 0.44163 0.0
C280 C 0.16271 0.4154 0.33054 0.0
C281 C 0.16457 0.4014 0.38558 0.0
C282 C 0.14658 0.38822 0.44318 0.0
C283 C 0.1428 0.4154 0.33185 0.0
N284 N 0.12523 0.40207 0.38729 0.0
H285 H 0.11302 0.37703 0.48003 0.0
H286 H 0.14119 0.42532 0.28345 0.0
H287 H 0.09975 0.3645 0.26412 0.0
H288 H 0.0889 0.40802 0.15269 0.0
O289 O 0.07769 0.37118 0.42169 0.0
O290 O 0.06422 0.38917 0.36798 0.0
O291 O 0.10678 0.42499 0.31498 0.0
C292 C 0.06046 0.37269 0.40561 0.0
H293 H 0.08515 0.42999 0.67882 0.0
H294 H 0.10004 0.36295 0.06784 0.0
H295 H 0.17599 0.42552 0.28282 0.0
H296 H 0.14718 0.37707 0.48639 0.0
Co297 Co 0.70816 0.98902 0.40246 0.0
C298 C 0.70187 0.98166 0.61775 0.0
C299 C 0.68507 -0.0043 0.56339 0.0
C300 C 0.68433 -0.00457 0.66512 0.0
N301 N 0.69601 0.98696 0.53324 0.0
N302 N 0.69526 0.98688 0.69933 0.0
H303 H 0.71217 0.97546 0.62076 0.0
H304 H 0.67966 0.00325 0.51566 0.0
C305 C 0.65937 0.97384 0.35269 0.0
O306 O 0.65148 0.96062 0.42264 0.0
N307 N 0.72024 0.99111 0.27334 0.0
C308 C 0.73403 0.98498 0.24839 0.0
C309 C 0.73456 0.98419 0.14703 0.0
C310 C 0.7128 -0.00578 0.18705 0.0
N311 N 0.72123 0.99004 0.1083 0.0
C312 C 0.70916 0.95491 0.45667 0.0
C313 C 0.6756 0.92801 0.32806 0.0
C314 C 0.68619 0.92149 0.39148 0.0
C315 C 0.70326 0.93522 0.45566 0.0
C316 C 0.68195 0.94795 0.33216 0.0
N317 N 0.69783 0.96094 0.39945 0.0
H318 H 0.72355 0.96544 0.50079 0.0
H319 H 0.67467 0.95295 0.27828 0.0
H320 H 0.74177 0.97996 0.30008 0.0
H321 H 0.70069 -0.00139 0.18175 0.0
O322 O 0.73756 3e-05 0.4643 0.0
O323 O 0.72321 0.01749 0.41315 0.0
O324 O 0.68023 0.98476 0.33803 0.0
C325 C 0.73961 0.01725 0.45649 0.0
H326 H 0.67788 0.00248 0.71057 0.0
H327 H 0.74284 0.9783 0.10577 0.0
H328 H 0.66286 0.91791 0.27491 0.0
H329 H 0.71261 0.93092 0.50208 0.0
Co330 Co 0.10589 0.78372 0.39966 0.0
C331 C 0.10686 0.78459 0.61784 0.0
C332 C 0.12137 0.76864 0.56309 0.0
C333 C 0.12134 0.76797 0.66473 0.0
N334 N 0.11229 0.77912 0.5335 0.0
N335 N 0.11197 0.77783 0.69839 0.0
H336 H 0.09929 0.79338 0.621 0.0
H337 H 0.12723 0.76151 0.51534 0.0
C338 C 0.12984 0.76098 0.31414 0.0
O339 O 0.1509 0.76815 0.3385 0.0
N340 N 0.09947 0.78849 0.26656 0.0
C341 C 0.08924 0.79817 0.24004 0.0
C342 C 0.08823 0.7986 0.13853 0.0
C343 C 0.10492 0.78358 0.18075 0.0
N344 N 0.09802 0.78931 0.10183 0.0
C345 C 0.13622 0.82371 0.46319 0.0
C346 C 0.16896 0.83223 0.32768 0.0
C347 C 0.17126 0.84741 0.38959 0.0
C348 C 0.15489 0.84294 0.4593 0.0
C349 C 0.14991 0.81317 0.33348 0.0
N350 N 0.13377 0.80918 0.40013 0.0
H351 H 0.12335 0.82065 0.51482 0.0
H352 H 0.14784 0.80196 0.28135 0.0
H353 H 0.08318 0.8048 0.29039 0.0
H354 H 0.11401 0.77621 0.17503 0.0
O355 O 0.08609 0.79158 0.4511 0.0
O356 O 0.0761 0.76094 0.40765 0.0
O357 O 0.12044 0.76977 0.34722 0.0
C358 C 0.07044 0.77284 0.44404 0.0
H359 H 0.12719 0.7604 0.71028 0.0
H360 H 0.0814 0.80567 0.09533 0.0
H361 H 0.18124 0.83527 0.27234 0.0
H362 H 0.15624 0.85438 0.50855 0.0
Co363 Co 0.29368 0.37159 0.39055 0.0
C364 C 0.29227 0.3737 0.60886 0.0
C365 C 0.32252 0.39847 0.55504 0.0
C366 C 0.32345 0.39949 0.65676 0.0
N367 N 0.30273 0.38249 0.52455 0.0
N368 N 0.30441 0.38387 0.69017 0.0
H369 H 0.27659 0.3596 0.61157 0.0
H370 H 0.33614 0.40808 0.50798 0.0
C371 C 0.32588 0.4161 0.33265 0.0
O372 O 0.31688 0.42447 0.38076 0.0
N373 N 0.28505 0.36081 0.25723 0.0
C374 C 0.26553 0.34463 0.2264 0.0
C375 C 0.26492 0.34378 0.12436 0.0
C376 C 0.29607 0.36944 0.17399 0.0
N377 N 0.284 0.3596 0.09204 0.0
C378 C 0.25399 0.37012 0.44896 0.0
C379 C 0.25538 0.39621 0.31071 0.0
C380 C 0.23813 0.38804 0.37864 0.0
C381 C 0.23738 0.37464 0.44747 0.0
C382 C 0.2715 0.39101 0.31374 0.0
N383 N 0.2712 0.37874 0.38489 0.0
H384 H 0.25269 0.35931 0.50038 0.0
H385 H 0.28395 0.39662 0.25751 0.0
H386 H 0.25226 0.33466 0.27437 0.0
H387 H 0.31237 0.38295 0.17246 0.0
O388 O 0.27635 0.34483 0.44367 0.0
O389 O 0.31199 0.36043 0.40378 0.0
O390 O 0.31753 0.3974 0.33483 0.0
C391 C 0.29476 0.34476 0.43918 0.0
H392 H 0.3376 0.41017 0.70254 0.0
H393 H 0.25108 0.33299 0.07756 0.0
H394 H 0.25602 0.40604 0.25404 0.0
H395 H 0.22395 0.36762 0.49947 0.0
Co396 Co 0.34858 0.11849 0.75198 0.0
C397 C 0.35355 0.12284 0.53291 0.0
C398 C 0.37476 0.11408 0.59785 0.0
C399 C 0.37566 0.11302 0.49651 0.0
N400 N 0.36113 0.12055 0.62142 0.0
N401 N 0.36198 0.11822 0.45553 0.0
H402 H 0.3406 0.12605 0.52424 0.0
H403 H 0.38244 0.10917 0.65046 0.0
C404 C 0.39794 0.13747 0.80432 0.0
O405 O 0.4044 0.14919 0.72795 0.0
N406 N 0.33626 0.1158 0.88198 0.0
C407 C 0.32182 0.12098 0.91037 0.0
C408 C 0.32078 0.12034 1.01216 0.0
C409 C 0.3435 0.11178 0.96649 0.0
N410 N 0.33451 0.11463 0.04747 0.0
C411 C 0.34632 0.15157 0.6886 0.0
C412 C 0.3753 0.17855 0.83103 0.0
C413 C 0.36465 0.18424 0.76345 0.0
C414 C 0.35002 0.1706 0.69184 0.0
C415 C 0.37104 0.15924 0.82545 0.0
N416 N 0.35722 0.14617 0.75275 0.0
H417 H 0.33371 0.14094 0.63765 0.0
H418 H 0.37803 0.15462 0.88266 0.0
H419 H 0.31365 0.12599 0.8611 0.0
H420 H 0.35623 0.10811 0.96917 0.0
O421 O 0.31921 0.1067 0.69 0.0
O422 O 0.33465 0.09011 0.74168 0.0
O423 O 0.37732 0.12495 0.81903 0.0
C424 C 0.31799 0.08984 0.69715 0.0
H425 H 0.38515 0.10818 0.4567 0.0
H426 H 0.3113 0.12451 0.05696 0.0
H427 H 0.38621 0.18869 0.88925 0.0
H428 H 0.34105 0.17448 0.64044 0.0
Co429 Co 0.9479 0.33038 0.71183 0.0
C430 C 0.94701 0.32788 0.92941 0.0
C431 C 0.97848 0.33405 0.8758 0.0
C432 C 0.97971 0.3351 0.97789 0.0
N433 N 0.95804 0.32978 0.84551 0.0
N434 N 0.95991 0.3312 1.01086 0.0
H435 H 0.93026 0.32511 0.93104 0.0
H436 H 0.99201 0.33732 0.82755 0.0
C437 C 0.97416 0.31943 0.57707 0.0
O438 O 0.9576 0.30738 0.51629 0.0
N439 N 0.9373 0.331 0.57849 0.0
C440 C 0.91571 0.32216 0.54869 0.0
C441 C 0.91455 0.32261 0.44737 0.0
C442 C 0.94902 0.33784 0.49448 0.0
N443 N 0.93547 0.33196 0.41296 0.0
C444 C 0.9041 0.2988 0.7619 0.0
C445 C 0.90956 0.26773 0.71549 0.0
C446 C 0.88884 0.26343 0.74952 0.0
C447 C 0.88636 0.2793 0.77463 0.0
C448 C 0.92696 0.28742 0.70554 0.0
N449 N 0.92393 0.30272 0.72531 0.0
H450 H 0.90177 0.31078 0.78123 0.0
H451 H 0.94279 0.29001 0.68327 0.0
H452 H 0.90156 0.31509 0.59636 0.0
H453 H 0.96704 0.34567 0.49204 0.0
O454 O 0.934 0.34422 0.76528 0.0
O455 O 0.96822 0.35845 0.71045 0.0
O456 O 0.97025 0.32394 0.66178 0.0
C457 C 0.9536 0.36039 0.7567 0.0
H458 H -0.0059 0.33879 0.02425 0.0
H459 H 0.89937 0.31582 0.40221 0.0
H460 H 0.91235 0.25596 0.69625 0.0
H461 H 0.87095 0.27674 0.80478 0.0
Co462 Co 0.7719 0.73692 0.74521 0.0
C463 C 0.77377 0.7365 0.52713 0.0
C464 C 0.74952 0.70758 0.57692 0.0
C465 C 0.74885 0.70727 0.47524 0.0
N466 N 0.76484 0.72608 0.61008 0.0
N467 N 0.76397 0.7256 0.444 0.0
H468 H 0.78721 0.75187 0.52742 0.0
H469 H 0.73948 0.695 0.62178 0.0
C470 C 0.74251 0.69255 0.813 0.0
O471 O 0.75442 0.68555 0.77972 0.0
N472 N 0.77944 0.74801 0.87731 0.0
C473 C 0.79853 0.76482 0.90632 0.0
C474 C 0.79923 0.76622 1.00782 0.0
C475 C 0.76878 0.73942 0.96104 0.0
N476 N 0.78057 0.75019 0.04157 0.0
C477 C 0.81232 0.74061 0.6857 0.0
C478 C 0.81393 0.71643 0.82686 0.0
C479 C 0.8299 0.72408 0.7529 0.0
C480 C 0.82938 0.73676 0.68352 0.0
C481 C 0.79729 0.72095 0.82714 0.0
N482 N 0.79593 0.73196 0.75365 0.0
H483 H 0.81227 0.75055 0.6322 0.0
H484 H 0.7854 0.71544 0.88578 0.0
H485 H 0.8116 0.77478 0.85752 0.0
H486 H 0.75318 0.72525 0.96408 0.0
O487 O 0.78778 0.76375 0.69277 0.0
O488 O 0.75191 0.74606 0.72865 0.0
O489 O 0.74825 0.71053 0.79989 0.0
C490 C 0.76844 0.76223 0.69336 0.0
H491 H 0.73771 0.69458 0.42816 0.0
H492 H 0.813 0.77746 0.05336 0.0
H493 H 0.81436 0.70711 0.88372 0.0
H494 H 0.84177 0.74329 0.62671 0.0
Co495 Co 0.37541 0.32159 0.74113 0.0
C496 C 0.37345 0.31663 0.95738 0.0
C497 C 0.34314 0.31333 0.89943 0.0
C498 C 0.34192 0.31199 1.00082 0.0
N499 N 0.36305 0.31645 0.87232 0.0
N500 N 0.36104 0.31419 0.03718 0.0
H501 H 0.39036 0.3198 0.96124 0.0
H502 H 0.33067 0.31286 0.85014 0.0
C503 C 0.33114 0.30188 0.61291 0.0
O504 O 0.33509 0.29063 0.55606 0.0
N505 N 0.3881 0.32651 0.61001 0.0
C506 C 0.40733 0.32779 0.58689 0.0
C507 C 0.40909 0.32808 0.48588 0.0
C508 C 0.37905 0.32703 0.52214 0.0
N509 N 0.39092 0.327 0.44485 0.0
C510 C 0.3913 0.29565 0.7637 0.0
C511 C 0.35097 0.26011 0.74008 0.0
C512 C 0.37051 0.25983 0.75659 0.0
C513 C 0.39071 0.27794 0.77155 0.0
C514 C 0.35222 0.2783 0.73578 0.0
N515 N 0.37241 0.29581 0.74274 0.0
H516 H 0.40712 0.30927 0.77696 0.0
H517 H 0.33691 0.27815 0.72944 0.0
H518 H 0.41921 0.32812 0.63935 0.0
H519 H 0.36392 0.32713 0.51392 0.0
O520 O 0.40536 0.33804 0.8 0.0
O521 O 0.38352 0.34879 0.75335 0.0
O522 O 0.34455 0.31193 0.68464 0.0
C523 C 0.40213 0.35268 0.79516 0.0
H524 H 0.32833 0.31024 0.04467 0.0
H525 H 0.42272 0.3289 0.4463 0.0
H526 H 0.33483 0.24643 0.73094 0.0
H527 H 0.40601 0.27852 0.79079 0.0
Co528 Co 0.7698 0.11008 0.74945 0.0
C529 C 0.77029 0.11472 0.53215 0.0
C530 C 0.73695 0.09796 0.58474 0.0
C531 C 0.73601 0.0973 0.48297 0.0
N532 N 0.75847 0.10928 0.616 0.0
N533 N 0.75705 0.10781 0.44972 0.0
H534 H 0.78817 0.12173 0.53125 0.0
H535 H 0.72296 0.08971 0.63257 0.0
C536 C 0.73263 0.11801 0.78215 0.0
O537 O 0.73769 0.12886 0.70281 0.0
N538 N 0.78098 0.11047 0.88139 0.0
C539 C 0.80242 0.11768 0.90882 0.0
C540 C 0.80395 0.11788 1.01058 0.0
C541 C 0.76973 0.1062 0.96644 0.0
N542 N 0.7834 0.11085 0.04655 0.0
C543 C 0.80799 0.14724 0.69585 0.0
C544 C 0.80036 0.17123 0.81618 0.0
C545 C 0.81949 0.17984 0.75916 0.0
C546 C 0.82336 0.16765 0.69911 0.0
C547 C 0.78553 0.15063 0.81197 0.0
N548 N 0.78897 0.13893 0.74938 0.0
H549 H 0.812 0.13811 0.65304 0.0
H550 H 0.77192 0.14421 0.86245 0.0
H551 H 0.81613 0.12312 0.85855 0.0
H552 H 0.75208 0.10064 0.97032 0.0
O553 O 0.78998 0.1031 0.6935 0.0
O554 O 0.75554 0.08175 0.74204 0.0
O555 O 0.74404 0.11054 0.80897 0.0
C556 C 0.77355 0.08476 0.70066 0.0
H557 H 0.72098 0.08896 0.4373 0.0
H558 H 0.81908 0.12311 0.05458 0.0
H559 H 0.79734 0.18025 0.8661 0.0
H560 H 0.83834 0.17384 0.656 0.0
Co561 Co 0.95473 0.68988 0.7088 0.0
C562 C 0.95413 0.6919 0.92799 0.0
C563 C 0.98455 0.71646 0.87403 0.0
C564 C 0.98534 0.71767 0.976 0.0
N565 N 0.96469 0.70052 0.8434 0.0
N566 N 0.96617 0.70222 1.00907 0.0
H567 H 0.93844 0.67783 0.93134 0.0
H568 H -0.00182 0.72601 0.82688 0.0
C569 C 0.9873 0.73441 0.65355 0.0
O570 O 0.98081 0.74301 0.71597 0.0
N571 N 0.94495 0.67929 0.57447 0.0
C572 C 0.93232 0.66007 0.54436 0.0
C573 C 0.93159 0.65914 0.44244 0.0
C574 C 0.95124 0.68972 0.48991 0.0
N575 N 0.94353 0.67781 0.40887 0.0
C576 C 0.91452 0.68613 0.77358 0.0
C577 C 0.91545 0.71454 0.65362 0.0
C578 C 0.89796 0.70452 0.71958 0.0
C579 C 0.89759 0.69012 0.77985 0.0
C580 C 0.93214 0.71012 0.64997 0.0
N581 N 0.93191 0.69649 0.71174 0.0
H582 H 0.91343 0.6745 0.81811 0.0
H583 H 0.94492 0.71749 0.59613 0.0
H584 H 0.92464 0.64745 0.59238 0.0
H585 H 0.96185 0.70567 0.48636 0.0
O586 O 0.93834 0.66314 0.76234 0.0
O587 O 0.97339 0.67919 0.71349 0.0
O588 O 0.97804 0.7156 0.65051 0.0
C589 C 0.95683 0.66341 0.75171 0.0
H590 H -0.00068 0.72843 0.02232 0.0
H591 H 0.9233 0.64578 0.39653 0.0
H592 H 0.91604 0.72547 0.60427 0.0
H593 H 0.8844 0.68206 0.83199 0.0
C594 C 0.05067 0.46431 0.60225 0.0
C595 C 0.03438 0.45395 0.67337 0.0
C596 C 0.04459 0.46385 0.50253 0.0
C597 C 0.02201 0.45293 0.47054 0.0
H598 H 0.06816 0.4732 0.62452 0.0
H599 H 0.05759 0.47246 0.45041 0.0
S600 S 0.97342 0.42076 0.62511 0.0
N601 N -0.00498 0.43084 0.70363 0.0
N602 N 0.98362 0.42991 0.51599 0.0
C603 C 0.00568 0.4419 0.54035 0.0
C604 C 0.01185 0.44241 0.64185 0.0
C605 C 0.62629 0.66291 0.5829 0.0
C606 C 0.61679 0.67364 0.61491 0.0
C607 C 0.63273 0.66373 0.48467 0.0
C608 C 0.62923 0.67483 0.41476 0.0
H609 H 0.62843 0.65364 0.63421 0.0
H610 H 0.64014 0.65538 0.46257 0.0
S611 S 0.60457 0.70523 0.46154 0.0
N612 N 0.60411 0.6956 0.56983 0.0
N613 N 0.61549 0.69667 0.38387 0.0
C614 C 0.61925 0.68525 0.44534 0.0
C615 C 0.61309 0.68469 0.54577 0.0
C616 C 0.41753 0.0633 0.6091 0.0
C617 C 0.43091 0.07578 0.68828 0.0
C618 C 0.42361 0.06854 0.51066 0.0
C619 C 0.44325 0.08655 0.48717 0.0
H620 H 0.40241 0.0492 0.62342 0.0
H621 H 0.41297 0.05821 0.45274 0.0
S622 S 0.48253 0.12577 0.66675 0.0
N623 N 0.46403 0.10764 0.73566 0.0
N624 N 0.47469 0.11782 0.55162 0.0
C625 C 0.45629 0.09951 0.56559 0.0
C626 C 0.45035 0.09403 0.66574 0.0
C627 C 0.05279 0.67413 0.58944 0.0
C628 C 0.05526 0.65908 0.62947 0.0
C629 C 0.04636 0.67335 0.48959 0.0
C630 C 0.04205 0.65741 0.42645 0.0
H631 H 0.05629 0.68676 0.63522 0.0
H632 H 0.04521 0.68549 0.46109 0.0
S633 S 0.0429 0.6129 0.49913 0.0
N634 N 0.05073 0.62688 0.60077 0.0
N635 N 0.0387 0.62543 0.41391 0.0
C636 C 0.04373 0.64199 0.46669 0.0
C637 C 0.05028 0.64279 0.56795 0.0
C638 C 0.4655 0.46519 0.55515 0.0
C639 C 0.4526 0.44973 0.48599 0.0
C640 C 0.4587 0.4641 0.65315 0.0
C641 C 0.4388 0.44743 0.68645 0.0
H642 H 0.4807 0.47846 0.53262 0.0
H643 H 0.46895 0.47659 0.70286 0.0
S644 S 0.4005 0.40183 0.53659 0.0
N645 N 0.41984 0.41668 0.45878 0.0
N646 N 0.40735 0.41424 0.64298 0.0
C647 C 0.42611 0.43155 0.61842 0.0
C648 C 0.43294 0.4328 0.51835 0.0
C649 C 0.60267 0.02624 0.58042 0.0
C650 C 0.61927 0.02891 0.64928 0.0
C651 C 0.60796 0.03273 0.48286 0.0
C652 C 0.63006 0.04215 0.45005 0.0
H653 H 0.5855 0.01947 0.60261 0.0
H654 H 0.59467 0.03061 0.43301 0.0
S655 S 0.67926 0.05055 0.59825 0.0
N656 N 0.65844 0.04029 0.67575 0.0
N657 N 0.66837 0.05226 0.4928 0.0
C658 C 0.64674 0.04445 0.51759 0.0
C659 C 0.64135 0.03789 0.61696 0.0
C660 C 0.68349 0.79973 0.86547 0.0
C661 C 0.69271 0.79201 0.80195 0.0
C662 C 0.69056 0.80427 0.96535 0.0
C663 C 0.70728 0.80145 1.00474 0.0
H664 H 0.67068 0.80217 0.8376 0.0
H665 H 0.68304 0.81019 1.01203 0.0
S666 S 0.73519 0.77996 0.86955 0.0
N667 N 0.71843 0.78077 0.78555 0.0
N668 N 0.73174 0.78919 0.97266 0.0
C669 C 0.71638 0.79348 0.94162 0.0
C670 C 0.70909 0.78878 0.84036 0.0
C671 C 0.28036 0.98616 0.83083 0.0
C672 C 0.29935 0.00344 0.79598 0.0
C673 C 0.27339 0.98501 0.9285 0.0
C674 C 0.2851 0.00111 0.99595 0.0
H675 H 0.27093 0.97327 0.78237 0.0
H676 H 0.25891 0.97124 0.95189 0.0
S677 S 0.33467 0.0505 0.94025 0.0
N678 N 0.32884 0.03761 0.83584 0.0
N679 N 0.31595 0.03529 0.01931 0.0
C680 C 0.30395 0.0186 0.96199 0.0
C681 C 0.311 0.01982 0.86222 0.0
C682 C 0.08068 0.40349 0.83928 0.0
C683 C 0.09662 0.40445 0.77448 0.0
C684 C 0.07992 0.39781 0.93782 0.0
C685 C 0.09495 0.39275 0.97503 0.0
H686 H 0.06843 0.4068 0.81326 0.0
H687 H 0.06725 0.39705 0.98491 0.0
S688 S 0.14163 0.39529 0.83993 0.0
N689 N 0.129 0.40153 0.75759 0.0
N690 N 0.12745 0.39077 0.94227 0.0
C691 C 0.11133 0.39417 0.912 0.0
C692 C 0.11218 0.40002 0.81192 0.0
C693 C 0.69358 0.98523 0.97742 0.0
C694 C 0.71503 0.98942 1.00527 0.0
C695 C 0.68719 0.98414 0.87755 0.0
C696 C 0.70177 0.98678 0.80127 0.0
H697 H 0.68149 0.98256 0.03298 0.0
H698 H 0.67061 0.98104 0.85972 0.0
S699 S 0.76021 -0.00106 0.83515 0.0
N700 N 0.75131 -0.00249 0.94835 0.0
N701 N 0.73883 -0.00624 0.76178 0.0
C702 C 0.72317 0.99068 0.82831 0.0
C703 C 0.72991 0.99245 0.92989 0.0
C704 C 0.12438 0.78486 0.87286 0.0
C705 C 0.10802 0.78044 0.79939 0.0
C706 C 0.12104 0.78785 0.97145 0.0
C707 C 0.10118 0.78644 0.99993 0.0
H708 H 0.14 0.78633 0.85352 0.0
H709 H 0.13421 0.79154 0.02562 0.0
S710 S 0.05203 0.77267 0.83759 0.0
N711 N 0.07055 0.77322 0.76259 0.0
N712 N 0.06421 0.7787 0.94838 0.0
C713 C 0.08446 0.78155 0.92753 0.0
C714 C 0.08789 0.77857 0.82708 0.0
C715 C 0.28957 0.35796 0.81696 0.0
C716 C 0.29921 0.37799 0.79129 0.0
C717 C 0.28467 0.35204 0.91539 0.0
C718 C 0.28925 0.36594 0.99148 0.0
H719 H 0.2861 0.34684 0.76073 0.0
H720 H 0.27749 0.33653 0.93248 0.0
S721 S 0.31227 0.41981 0.96132 0.0
N722 N 0.31179 0.41145 0.84862 0.0
N723 N 0.3025 0.40038 0.03343 0.0
C724 C 0.2985 0.38595 0.96643 0.0
C725 C 0.30351 0.39196 0.86638 0.0
C726 C 0.34957 0.1303 0.31568 0.0
C727 C 0.3555 0.11711 0.35219 0.0
C728 C 0.3425 0.12922 0.21693 0.0
C729 C 0.34102 0.11489 0.14989 0.0
H730 H 0.35061 0.14173 0.36377 0.0
H731 H 0.33857 0.13999 0.19246 0.0
S732 S 0.3533 0.07596 0.2084 0.0
N733 N 0.3584 0.08854 0.31339 0.0
N734 N 0.34532 0.08669 0.1281 0.0
C735 C 0.34666 0.10143 0.18536 0.0
C736 C 0.35387 0.10251 0.28617 0.0
C737 C 0.9606 0.34835 0.27231 0.0
C738 C 0.94165 0.3317 0.31185 0.0
C739 C 0.96666 0.34815 0.17381 0.0
C740 C 0.95392 0.33129 0.11187 0.0
H741 H 0.9706 0.36166 0.3175 0.0
H742 H 0.98115 0.36129 0.14527 0.0
S743 S 0.90488 0.28307 0.18242 0.0
N744 N 0.91173 0.2972 0.28311 0.0
N745 N 0.92282 0.29722 0.09825 0.0
C746 C 0.93537 0.31448 0.15092 0.0
C747 C 0.92932 0.31456 0.25089 0.0
C748 C 0.7679 0.72444 0.16761 0.0
C749 C 0.77589 0.7442 0.14236 0.0
C750 C 0.76417 0.71855 0.26615 0.0
C751 C 0.76818 0.73218 0.34309 0.0
H752 H 0.765 0.71355 0.11094 0.0
H753 H 0.75845 0.70326 0.28218 0.0
S754 S 0.78735 0.78546 0.31229 0.0
N755 N 0.78648 0.77712 0.19926 0.0
N756 N 0.77953 0.76633 0.38456 0.0
C757 C 0.77584 0.75199 0.31781 0.0
C758 C 0.77966 0.75792 0.21741 0.0
C759 C 0.36177 0.32624 0.20727 0.0
C760 C 0.36818 0.31669 0.13974 0.0
C761 C 0.36964 0.32993 0.30571 0.0
C762 C 0.3839 0.32385 0.34164 0.0
H763 H 0.3509 0.33128 0.18357 0.0
H764 H 0.36459 0.33774 0.35378 0.0
S765 S 0.4027 0.2954 0.1979 0.0
N766 N 0.38801 0.29969 0.11734 0.0
N767 N 0.40208 0.30577 0.30294 0.0
C768 C 0.3897 0.31354 0.27555 0.0
C769 C 0.38199 0.31013 0.17474 0.0
C770 C 0.75041 0.09359 0.27943 0.0
C771 C 0.76399 0.10893 0.34856 0.0
C772 C 0.75691 0.09427 0.18139 0.0
C773 C 0.77739 0.11016 0.1485 0.0
H774 H 0.73472 0.08077 0.30129 0.0
H775 H 0.74594 0.08213 0.13102 0.0
S776 S 0.81846 0.15476 0.29663 0.0
N777 N 0.79845 0.14109 0.37435 0.0
N778 N 0.81076 0.14206 0.19109 0.0
C779 C 0.79111 0.12563 0.21624 0.0
C780 C 0.78441 0.12508 0.31586 0.0
C781 C 0.94719 0.69928 0.26962 0.0
C782 C 0.94922 0.68388 0.30827 0.0
C783 C 0.95285 0.70533 0.17145 0.0
C784 C 0.96091 0.6963 0.1098 0.0
H785 H 0.94094 0.70647 0.3153 0.0
H786 H 0.95081 0.71702 0.14318 0.0
S787 S 0.97255 0.65776 0.1809 0.0
N788 N 0.9619 0.66128 0.28067 0.0
N789 N 0.97258 0.67269 0.09645 0.0
C790 C 0.96371 0.68143 0.1486 0.0
C791 C 0.95786 0.67522 0.2479 0.0
C792 C 0.04243 0.56791 0.13351 0.0
C793 C 0.04506 0.57749 0.04325 0.0
C794 C 0.04248 0.55029 0.13806 0.0
C795 C 0.04527 0.54174 0.05254 0.0
H796 H 0.03993 0.57391 0.20073 0.0
H797 H 0.0397 0.54302 0.2084 0.0
S798 S 0.0553 0.56229 0.80043 0.0
N799 N 0.05217 0.57802 0.86807 0.0
N800 N 0.05239 0.54494 0.87653 0.0
C801 C 0.04861 0.55154 0.96245 0.0
C802 C 0.04846 0.5694 0.9578 0.0
C803 C 0.54179 0.54818 0.05347 0.0
C804 C 0.51886 0.54112 0.04343 0.0
C805 C 0.55798 0.56846 0.0458 0.0
C806 C 0.55176 0.58234 0.02838 0.0
H807 H 0.54725 0.53803 0.06951 0.0
H808 H 0.57545 0.57337 0.05576 0.0
S809 S 0.49417 0.57129 0.98662 0.0
N810 N 0.49091 0.54946 1.00763 0.0
N811 N 0.52136 0.58759 0.99467 0.0
C812 C 0.52897 0.57544 1.01582 0.0
C813 C 0.51252 0.55483 0.02301 0.0
C814 C 0.52492 0.03764 0.04559 0.0
C815 C 0.54753 0.05314 0.05034 0.0
C816 C 0.50784 0.04155 0.05368 0.0
C817 C 0.51279 0.06108 0.0675 0.0
H818 H 0.52043 0.02241 0.03468 0.0
H819 H 0.49063 0.02923 0.04764 0.0
S820 S 0.56947 0.10658 0.0952 0.0
N821 N 0.57407 0.08851 0.07536 0.0
N822 N 0.54203 0.0959 0.09299 0.0
C823 C 0.53539 0.07665 0.07478 0.0
C824 C 0.55275 0.07266 0.06552 0.0
C825 C 0.67696 0.87273 0.47746 0.0
C826 C 0.68025 0.86478 0.39115 0.0
C827 C 0.67733 0.8905 0.47546 0.0
C828 C 0.68112 0.90093 0.38719 0.0
H829 H 0.67487 0.86551 0.54753 0.0
H830 H 0.67561 0.89659 0.54422 0.0
S831 S 0.68998 0.88594 0.14076 0.0
N832 N 0.68655 0.86811 0.21457 0.0
N833 N 0.68746 0.90173 0.21091 0.0
C834 C 0.68336 0.89265 0.29949 0.0
C835 C 0.6829 0.87449 0.30149 0.0
C836 C 0.21212 0.87377 0.38847 0.0
C837 C 0.18966 0.8682 0.37693 0.0
C838 C 0.22949 0.89385 0.38539 0.0
C839 C 0.22478 0.90878 0.37026 0.0
H840 H 0.21618 0.86264 0.40366 0.0
H841 H 0.24655 0.89778 0.39897 0.0
S842 S 0.16902 0.90142 0.32037 0.0
N843 N 0.16386 0.87884 0.33901 0.0
N844 N 0.19641 0.91645 0.33242 0.0
C845 C 0.2025 0.90319 0.3526 0.0
C846 C 0.18494 0.8829 0.35621 0.0
C847 C 0.19776 0.37649 0.36222 0.0
C848 C 0.22005 0.3923 0.37436 0.0
C849 C 0.18014 0.37976 0.36313 0.0
C850 C 0.18402 0.39897 0.37742 0.0
H851 H 0.19392 0.36142 0.35229 0.0
H852 H 0.16324 0.36706 0.3533 0.0
S853 S 0.23949 0.44539 0.41418 0.0
N854 N 0.24526 0.42787 0.40045 0.0
N855 N 0.21199 0.43404 0.4042 0.0
C856 C 0.20631 0.41499 0.38812 0.0
C857 C 0.22434 0.41164 0.38629 0.0
C858 C 0.35255 0.2245 0.81049 0.0
C859 C 0.36987 0.24082 0.76096 0.0
C860 C 0.35141 0.20635 0.81402 0.0
C861 C 0.36767 0.204 0.76931 0.0
H862 H 0.33976 0.22573 0.84671 0.0
H863 H 0.33754 0.19396 0.85063 0.0
S864 S 0.41618 0.24157 0.62988 0.0
N865 N 0.40342 0.25301 0.66428 0.0
N866 N 0.40147 0.219 0.67486 0.0
C867 C 0.38523 0.2201 0.72127 0.0
C868 C 0.3863 0.23851 0.71625 0.0
C869 C 0.87459 0.22839 0.79797 0.0
C870 C 0.8702 0.24244 0.75931 0.0
C871 C 0.85789 0.2082 0.80005 0.0
C872 C 0.8361 0.20137 0.76511 0.0
H873 H 0.89118 0.23298 0.82567 0.0
H874 H 0.8621 0.1978 0.82803 0.0
S875 S 0.81552 0.2317 0.65824 0.0
N876 N 0.84218 0.24786 0.68529 0.0
N877 N 0.81063 0.20987 0.69297 0.0
C878 C 0.83116 0.21518 0.7295 0.0
C879 C 0.84824 0.23574 0.72585 0.0
C880 C 0.86975 0.73375 0.74571 0.0
C881 C 0.84695 0.71875 0.74653 0.0
C882 C 0.88615 0.72902 0.73608 0.0
C883 C 0.88027 0.70915 0.72632 0.0
H884 H 0.87492 0.74922 0.75324 0.0
H885 H 0.90356 0.74099 0.73758 0.0
S886 S 0.82269 0.66465 0.71358 0.0
N887 N 0.81919 0.68344 0.73063 0.0
N888 N 0.84998 0.6745 0.71096 0.0
C889 C 0.85747 0.69406 0.7248 0.0
C890 C 0.84082 0.69888 0.73532 0.0
C891 C 0.1068 0.46725 0.33376 0.0
C892 C 0.11635 0.45763 0.2878 0.0
C893 C 0.09684 0.47546 0.27729 0.0
C894 C 0.0967 0.47482 0.17331 0.0
H895 H 0.10506 0.46673 0.41323 0.0
H896 H 0.08785 0.48111 0.31502 0.0
S897 S 0.12166 0.45317 0.01847 0.0
N898 N 0.12648 0.44918 0.13311 0.0
N899 N 0.10869 0.46537 0.02728 0.0
C900 C 0.10799 0.46686 0.12702 0.0
C901 C 0.11758 0.45805 0.18431 0.0
C902 C 0.65596 0.74984 0.18373 0.0
C903 C 0.64036 0.75002 0.24679 0.0
C904 C 0.64979 0.73465 0.11496 0.0
C905 C 0.62778 0.7183 0.10754 0.0
H906 H 0.6736 0.76094 0.1902 0.0
H907 H 0.66296 0.73519 0.07248 0.0
S908 S 0.57936 0.7128 0.24092 0.0
N909 N 0.601 0.73382 0.28583 0.0
N910 N 0.58945 0.70423 0.1589 0.0
C911 C 0.61148 0.71872 0.16431 0.0
C912 C 0.61776 0.73475 0.23354 0.0
C913 C 0.36431 0.01163 0.12803 0.0
C914 C 0.38594 0.02019 0.16906 0.0
C915 C 0.34557 0.00154 0.1875 0.0
C916 C 0.34787 -0.00053 0.28953 0.0
H917 H 0.36191 0.01409 0.05142 0.0
H918 H 0.32923 -0.00373 0.15442 0.0
S919 S 0.40093 0.01641 0.42808 0.0
N920 N 0.40869 0.02415 0.31444 0.0
N921 N 0.37335 0.00466 0.42605 0.0
C922 C 0.36933 0.00638 0.32931 0.0
C923 C 0.38844 0.01697 0.26905 0.0
C924 C 0.43893 0.12465 0.89727 0.0
C925 C 0.43348 0.12131 0.99752 0.0
C926 C 0.42922 0.13218 0.83463 0.0
C927 C 0.41416 0.13694 0.87175 0.0
H928 H 0.44894 0.11957 0.86534 0.0
H929 H 0.43185 0.13246 0.75588 0.0
S930 S 0.40033 0.13699 0.13444 0.0
N931 N 0.41592 0.12716 0.13467 0.0
N932 N 0.3984 0.14222 0.01824 0.0
C933 C 0.41108 0.13624 0.97426 0.0
C934 C 0.42057 0.12819 0.03719 0.0
C935 C 0.99155 0.39517 0.95788 0.0
C936 C 0.98469 0.40865 0.97147 0.0
C937 C 0.98111 0.37994 0.88788 0.0
C938 C 0.96247 0.37656 0.83155 0.0
H939 H 0.00614 0.39707 0.99666 0.0
H940 H 0.98834 0.37108 0.8761 0.0
S941 S 0.936 0.40611 0.84571 0.0
N942 N 0.95728 0.41723 0.92593 0.0
N943 N 0.93628 0.38695 0.79858 0.0
C944 C 0.95421 0.38893 0.8485 0.0
C945 C 0.96561 0.40531 0.91773 0.0
C946 C 0.71661 0.67342 0.9498 0.0
C947 C 0.71983 0.67914 0.85044 0.0
C948 C 0.69545 0.6653 0.99243 0.0
C949 C 0.67702 0.66288 0.93701 0.0
H950 H 0.73076 0.67645 0.99634 0.0
H951 H 0.69394 0.66224 0.07069 0.0
S952 S 0.67648 0.6733 0.67102 0.0
N953 N 0.70256 0.68028 0.69662 0.0
N954 N 0.663 0.66456 0.77484 0.0
C955 C 0.67984 0.66719 0.83605 0.0
C956 C 0.70122 0.6755 0.79331 0.0
C957 C 0.98903 0.63983 0.81277 0.0
C958 C 0.98208 0.63327 0.90923 0.0
C959 C 0.97872 0.64743 0.7557 0.0
C960 C 0.96073 0.64826 0.79208 0.0
H961 H 0.00387 0.64088 0.78462 0.0
H962 H 0.98623 0.65436 0.68659 0.0
S963 S 0.92957 0.62402 0.01788 0.0
N964 N 0.95145 0.6216 0.02333 0.0
N965 N 0.93187 0.636 0.91514 0.0
C966 C 0.95084 0.63811 0.8792 0.0
C967 C 0.96154 0.63044 0.93811 0.0
C968 C 0.4469 0.40144 0.91998 0.0
C969 C 0.43484 0.40299 0.99788 0.0
C970 C 0.43674 0.38475 0.85487 0.0
C971 C 0.41405 0.36983 0.8636 0.0
H972 H 0.46381 0.4135 0.9065 0.0
H973 H 0.44626 0.384 0.79497 0.0
S974 S 0.37557 0.3664 0.05603 0.0
N975 N 0.39974 0.38657 0.08572 0.0
N976 N 0.38013 0.3576 0.95487 0.0
C977 C 0.40218 0.37111 0.94179 0.0
C978 C 0.41276 0.38703 1.01148 0.0
C979 C 0.71328 0.11165 0.94221 0.0
C980 C 0.71255 0.11278 0.83863 0.0
C981 C 0.69368 0.10294 0.99682 0.0
C982 C 0.67267 0.0948 0.94948 0.0
H983 H 0.72904 0.11672 0.98089 0.0
H984 H 0.69487 0.10127 0.07561 0.0
S985 S 0.66164 0.09461 0.68089 0.0
N986 N 0.68914 0.106 0.69162 0.0
N987 N 0.65222 0.08904 0.79433 0.0
C988 C 0.67176 0.09665 0.84675 0.0
C989 C 0.69175 0.10586 0.79121 0.0
C990 C 0.65085 -0.00065 0.32039 0.0
C991 C 0.64543 0.97986 0.30212 0.0
C992 C 0.64388 0.00861 0.25556 0.0
C993 C 0.63077 -0.00136 0.17104 0.0
H994 H 0.66195 0.00808 0.38154 0.0
H995 H 0.64973 0.02406 0.2697 0.0
S996 S 0.61113 0.94708 0.09157 0.0
N997 N 0.62581 0.95056 0.19464 0.0
N998 N 0.61166 0.96792 0.07376 0.0
C999 C 0.62409 0.97876 0.15404 0.0
C1000 C 0.63165 0.96934 0.2197 0.0
C1001 C 0.08259 0.71947 0.15768 0.0
C1002 C 0.09143 0.70811 0.12691 0.0
C1003 C 0.09498 0.73624 0.21935 0.0
C1004 C 0.11705 0.74282 0.2502 0.0
H1005 H 0.06558 0.71493 0.1374 0.0
H1006 H 0.087 0.74397 0.24356 0.0
S1007 S 0.14783 0.71803 0.19034 0.0
N1008 N 0.1233 0.7042 0.13314 0.0
N1009 N 0.14707 0.73625 0.24584 0.0
C1010 C 0.12618 0.73165 0.21903 0.0
C1011 C 0.11329 0.71423 0.15795 0.0
C1012 C 0.37441 0.45739 0.18836 0.0
C1013 C 0.38777 0.44935 0.17276 0.0
C1014 C 0.3545 0.44691 0.2421 0.0
C1015 C 0.34733 0.42803 0.2806 0.0
H1016 H 0.37949 0.47188 0.16013 0.0
H1017 H 0.34457 0.45348 0.25235 0.0
S1018 S 0.37608 0.40026 0.25599 0.0
N1019 N 0.39157 0.42091 0.19533 0.0
N1020 N 0.35556 0.40202 0.29947 0.0
C1021 C 0.36066 0.41997 0.26469 0.0
C1022 C 0.38047 0.4304 0.20974 0.0
C1023 C 0.73986 0.77104 0.48538 0.0
C1024 C 0.74299 0.78966 0.50794 0.0
C1025 C 0.74899 0.76293 0.54521 0.0
C1026 C 0.76303 0.77354 0.62618 0.0
H1027 H 0.72884 0.76182 0.42493 0.0
H1028 H 0.74414 0.74774 0.52971 0.0
S1029 S 0.77905 0.82392 0.71145 0.0
N1030 N 0.7622 0.8192 0.61471 0.0
N1031 N 0.78125 0.80429 0.72316 0.0
C1032 C 0.76805 0.79289 0.64576 0.0
C1033 C 0.75776 0.80097 0.58677 0.0
C1034 C 0.28476 0.03666 0.61249 0.0
C1035 C 0.28433 0.03874 0.50957 0.0
C1036 C 0.29386 0.05328 0.67605 0.0
C1037 C 0.30145 0.0722 0.63883 0.0
H1038 H 0.28024 0.02257 0.6436 0.0
H1039 H 0.29644 0.05152 0.75352 0.0
S1040 S 0.29698 0.08406 0.37821 0.0
N1041 N 0.28832 0.06022 0.37493 0.0
N1042 N 0.30284 0.09116 0.4956 0.0
C1043 C 0.29756 0.0738 0.53797 0.0
C1044 C 0.2896 0.05709 0.47266 0.0
C1045 C 0.0257 0.33864 0.41852 0.0
C1046 C 0.0388 0.35869 0.44923 0.0
C1047 C 0.00484 0.3257 0.46118 0.0
C1048 C -0.00292 0.33227 0.53872 0.0
H1049 H 0.03131 0.3331 0.35975 0.0
H1050 H -0.00526 0.31054 0.43328 0.0
S1051 S 0.02658 0.38343 0.64884 0.0
N1052 N 0.04297 0.38447 0.5608 0.0
N1053 N 0.00529 0.36021 0.64679 0.0
C1054 C 0.01082 0.35218 0.57229 0.0
C1055 C 0.0313 0.36539 0.52596 0.0
C1056 C 0.31757 0.32521 0.62679 0.0
C1057 C 0.31618 0.30878 0.57769 0.0
C1058 C 0.30897 0.33581 0.58373 0.0
C1059 C 0.29798 0.33019 0.49121 0.0
H1060 H 0.32685 0.33099 0.6961 0.0
H1061 H 0.31218 0.34927 0.62067 0.0
S1062 S 0.28566 0.2863 0.33979 0.0
N1063 N 0.30003 0.28589 0.43644 0.0
N1064 N 0.28349 0.30586 0.35663 0.0
C1065 C 0.29452 0.31286 0.44495 0.0
C1066 C 0.30358 0.30207 0.48828 0.0
C1067 C 0.75985 0.04916 0.68375 0.0
C1068 C 0.7728 0.06832 0.64606 0.0
C1069 C 0.7513 0.03246 0.62167 0.0
C1070 C 0.75532 0.0342 0.52025 0.0
H1071 H 0.75448 0.0471 0.75959 0.0
H1072 H 0.73927 0.01829 0.65105 0.0
S1073 S 0.79087 0.08091 0.38721 0.0
N1074 N 0.79183 0.08814 0.50299 0.0
N1075 N 0.77481 0.05639 0.38572 0.0
C1076 C 0.76978 0.05314 0.4828 0.0
C1077 C 0.77895 0.0703 0.54639 0.0
C1078 C 0.01224 0.73525 0.52344 0.0
C1079 C 0.00708 0.7459 0.59031 0.0
C1080 C 0.03214 0.74445 0.4724 0.0
C1081 C 0.04801 0.76479 0.48556 0.0
H1082 H 0.00128 0.71935 0.51276 0.0
H1083 H 0.03543 0.73525 0.42524 0.0
S1084 S 0.04163 0.80029 0.63991 0.0
N1085 N 0.01857 0.77854 0.65809 0.0
N1086 N 0.05639 0.79597 0.56189 0.0
C1087 C 0.0426 0.77606 0.54651 0.0
C1088 C 0.02206 0.76659 0.59891 0.0
loop_
_geom_bond_atom_site_label_1
_geom_bond_atom_site_label_2
_geom_bond_distance
_geom_bond_site_symmetry_2
_ccdc_geom_bond_type
Co0 N4 2.148 1_554 S
Co0 N10 2.128 . S
Co0 N20 2.194 . S
Co0 O25 2.348 1_454 S
Co0 O26 2.155 1_554 S
Co0 O27 2.096 . S
C1 N4 1.301 . S
C1 N5 1.328 . S
C1 H6 0.930 . S
C2 C3 1.333 . S
C2 N4 1.317 . S
C2 H7 0.930 . S
C3 C2 1.333 . S
C3 N5 1.350 . S
C3 H29 0.931 . S
N4 Co0 2.148 1_556 S
N4 C1 1.301 . S
N4 C2 1.317 . S
N5 C1 1.328 . S
N5 C3 1.350 . S
H6 C1 0.930 . S
H7 C2 0.930 . S
C8 O9 1.224 . S
C8 O27 1.247 . S
O9 C8 1.224 . S
N10 Co0 2.128 . S
N10 C11 1.355 . S
N10 C13 1.311 . S
C11 N10 1.355 . S
C11 C12 1.363 . S
C11 H23 0.974 . S
C12 C11 1.363 . S
C12 N14 1.375 . S
C12 H30 0.931 1_455 S
C13 N10 1.311 . S
C13 N14 1.347 . S
C13 H24 0.929 . S
N14 C12 1.375 . S
N14 C13 1.347 . S
C15 C18 1.365 . S
C15 N20 1.328 1_556 S
C15 H21 0.929 . S
C16 C17 1.362 . S
C16 C19 1.378 . S
C16 H31 0.929 . S
C17 C16 1.362 . S
C17 C18 1.366 1_554 S
C18 C15 1.365 . S
C18 C17 1.366 1_556 S
C18 H32 0.930 . S
C19 C16 1.378 . S
C19 N20 1.315 . S
C19 H22 0.930 . S
N20 Co0 2.194 . S
N20 C15 1.328 1_554 S
N20 C19 1.315 . S
H21 C15 0.929 . S
H22 C19 0.930 . S
H23 C11 0.974 . S
H24 C13 0.929 . S
O25 Co0 2.348 1_656 S
O25 C28 1.243 . S
O26 Co0 2.155 1_556 S
O26 C28 1.240 1_455 S
O27 Co0 2.096 . S
O27 C8 1.247 . S
C28 O25 1.243 . S
C28 O26 1.240 1_655 S
H29 C3 0.931 . S
H30 C12 0.931 1_655 S
H31 C16 0.929 . S
H32 C18 0.930 . S
Co33 N37 2.148 . S
Co33 N43 2.128 1_554 S
Co33 N53 2.194 . S
Co33 O58 2.351 . S
Co33 O59 2.155 . S
Co33 O60 2.096 1_554 S
C34 N37 1.301 . S
C34 N38 1.328 . S
C34 H39 0.930 . S
C35 C36 1.333 . S
C35 N37 1.317 . S
C35 H40 0.930 . S
C36 C35 1.333 . S
C36 N38 1.350 . S
C36 H62 0.931 . S
N37 Co33 2.148 . S
N37 C34 1.301 . S
N37 C35 1.317 . S
N38 C34 1.328 . S
N38 C36 1.350 . S
H39 C34 0.930 . S
H40 C35 0.930 . S
C41 O42 1.224 . S
C41 O60 1.247 . S
O42 C41 1.224 . S
N43 Co33 2.128 1_556 S
N43 C44 1.355 . S
N43 C46 1.311 . S
C44 N43 1.355 . S
C44 C45 1.363 . S
C44 H56 0.929 . S
C45 C44 1.363 . S
C45 N47 1.375 . S
C45 H63 0.931 . S
C46 N43 1.311 . S
C46 N47 1.347 . S
C46 H57 0.929 . S
N47 C45 1.375 . S
N47 C46 1.347 . S
C48 C51 1.365 . S
C48 N53 1.328 . S
C48 H54 0.929 . S
C49 C50 1.362 1_556 S
C49 C52 1.378 1_556 S
C49 H64 0.929 . S
C50 C49 1.362 1_554 S
C50 C51 1.366 . S
C51 C48 1.365 . S
C51 C50 1.366 . S
C51 H65 0.930 . S
C52 C49 1.378 1_554 S
C52 N53 1.315 . S
C52 H55 0.930 1_554 S
N53 Co33 2.194 . S
N53 C48 1.328 . S
N53 C52 1.315 . S
H54 C48 0.929 . S
H55 C52 0.930 1_556 S
H56 C44 0.929 . S
H57 C46 0.929 . S
O58 Co33 2.351 . S
O58 C61 1.244 . S
O59 Co33 2.155 . S
O59 C61 1.240 . S
O60 Co33 2.096 1_556 S
O60 C41 1.247 . S
C61 O58 1.244 . S
C61 O59 1.240 . S
H62 C36 0.931 . S
H63 C45 0.931 . S
H64 C49 0.929 . S
H65 C51 0.930 . S
Co66 N70 2.148 1_554 S
Co66 N76 2.128 . S
Co66 N86 2.194 . S
Co66 O91 2.351 . S
Co66 O92 2.155 . S
Co66 O93 2.096 . S
C67 N70 1.301 . S
C67 N71 1.328 . S
C67 H72 0.930 . S
C68 C69 1.333 . S
C68 N70 1.317 . S
C68 H73 0.930 . S
C69 C68 1.333 . S
C69 N71 1.350 . S
C69 H95 0.931 . S
N70 Co66 2.148 1_556 S
N70 C67 1.301 . S
N70 C68 1.317 . S
N71 C67 1.328 . S
N71 C69 1.350 . S
H72 C67 0.930 . S
H73 C68 0.930 . S
C74 O75 1.224 . S
C74 O93 1.247 . S
O75 C74 1.224 . S
N76 Co66 2.128 . S
N76 C77 1.355 . S
N76 C79 1.311 . S
C77 N76 1.355 . S
C77 C78 1.363 . S
C77 H89 0.929 . S
C78 C77 1.363 . S
C78 N80 1.375 . S
C78 H96 0.931 . S
C79 N76 1.311 . S
C79 N80 1.347 . S
C79 H90 0.929 . S
N80 C78 1.375 . S
N80 C79 1.347 . S
C81 C84 1.365 . S
C81 N86 1.328 . S
C81 H87 0.929 1_554 S
C82 C83 1.362 . S
C82 C85 1.378 . S
C82 H97 0.929 . S
C83 C82 1.362 . S
C83 C84 1.366 . S
C84 C81 1.365 . S
C84 C83 1.366 . S
C84 H98 0.930 1_554 S
C85 C82 1.378 . S
C85 N86 1.315 . S
C85 H88 0.930 . S
N86 Co66 2.194 . S
N86 C81 1.328 . S
N86 C85 1.315 . S
H87 C81 0.929 1_556 S
H88 C85 0.930 . S
H89 C77 0.929 . S
H90 C79 0.929 . S
O91 Co66 2.351 . S
O91 C94 1.244 . S
O92 Co66 2.155 . S
O92 C94 1.240 . S
O93 Co66 2.096 . S
O93 C74 1.247 . S
C94 O91 1.244 . S
C94 O92 1.240 . S
H95 C69 0.931 . S
H96 C78 0.931 . S
H97 C82 0.929 . S
H98 C84 0.930 1_556 S
Co99 N103 2.148 . S
Co99 N109 2.128 1_554 S
Co99 N119 2.194 . S
Co99 O124 2.351 . S
Co99 O125 2.155 . S
Co99 O126 2.096 1_554 S
C100 N103 1.301 . S
C100 N104 1.328 . S
C100 H105 0.930 . S
C101 C102 1.333 . S
C101 N103 1.317 . S
C101 H106 0.930 . S
C102 C101 1.333 . S
C102 N104 1.350 . S
C102 H128 0.931 . S
N103 Co99 2.148 . S
N103 C100 1.301 . S
N103 C101 1.317 . S
N104 C100 1.328 . S
N104 C102 1.350 . S
H105 C100 0.930 . S
H106 C101 0.930 . S
C107 O108 1.224 . S
C107 O126 1.247 . S
O108 C107 1.224 . S
N109 Co99 2.128 1_556 S
N109 C110 1.355 . S
N109 C112 1.311 . S
C110 N109 1.355 . S
C110 C111 1.363 . S
C110 H122 0.929 . S
C111 C110 1.363 . S
C111 N113 1.375 . S
C111 H129 0.931 . S
C112 N109 1.311 . S
C112 N113 1.347 . S
C112 H123 0.929 . S
N113 C111 1.375 . S
N113 C112 1.347 . S
C114 C117 1.365 . S
C114 N119 1.328 . S
C114 H120 0.929 . S
C115 C116 1.362 1_556 S
C115 C118 1.378 . S
C115 H130 0.929 . S
C116 C115 1.362 1_554 S
C116 C117 1.366 . S
C117 C114 1.365 . S
C117 C116 1.366 . S
C117 H131 0.930 . S
C118 C115 1.378 . S
C118 N119 1.315 1_556 S
C118 H121 0.930 . S
N119 Co99 2.194 . S
N119 C114 1.328 . S
N119 C118 1.315 1_554 S
H120 C114 0.929 . S
H121 C118 0.930 . S
H122 C110 0.929 . S
H123 C112 0.929 . S
O124 Co99 2.351 . S
O124 C127 1.244 . S
O125 Co99 2.155 . S
O125 C127 1.240 . S
O126 Co99 2.096 1_556 S
O126 C107 1.247 . S
C127 O124 1.244 . S
C127 O125 1.240 . S
H128 C102 0.931 . S
H129 C111 0.931 . S
H130 C115 0.929 . S
H131 C117 0.930 . S
Co132 N136 2.148 1_554 S
Co132 N142 2.128 . S
Co132 N152 2.194 . S
Co132 O157 2.351 1_554 S
Co132 O158 2.155 . S
Co132 O159 2.096 . S
C133 N136 1.301 . S
C133 N137 1.328 . S
C133 H138 0.930 . S
C134 C135 1.333 . S
C134 N136 1.317 . S
C134 H139 0.930 . S
C135 C134 1.333 . S
C135 N137 1.350 . S
C135 H161 0.931 . S
N136 Co132 2.148 1_556 S
N136 C133 1.301 . S
N136 C134 1.317 . S
N137 C133 1.328 . S
N137 C135 1.350 . S
H138 C133 0.930 . S
H139 C134 0.930 . S
C140 O141 1.224 . S
C140 O159 1.247 . S
O141 C140 1.224 . S
N142 Co132 2.128 . S
N142 C143 1.355 . S
N142 C145 1.311 . S
C143 N142 1.355 . S
C143 C144 1.363 . S
C143 H155 0.929 . S
C144 C143 1.363 . S
C144 N146 1.375 . S
C144 H162 0.931 . S
C145 N142 1.311 . S
C145 N146 1.347 . S
C145 H156 0.929 . S
N146 C144 1.375 . S
N146 C145 1.347 . S
C147 C150 1.366 . S
C147 N152 1.328 1_556 S
C147 H153 0.929 . S
C148 C149 1.362 . S
C148 C151 1.378 . S
C148 H163 0.929 . S
C149 C148 1.362 . S
C149 C150 1.361 1_554 S
C150 C147 1.366 . S
C150 C149 1.361 1_556 S
C150 H164 0.935 . S
C151 C148 1.378 . S
C151 N152 1.315 . S
C151 H154 0.930 . S
N152 Co132 2.194 . S
N152 C147 1.328 1_554 S
N152 C151 1.315 . S
H153 C147 0.929 . S
H154 C151 0.930 . S
H155 C143 0.929 . S
H156 C145 0.929 . S
O157 Co132 2.351 1_556 S
O157 C160 1.244 . S
O158 Co132 2.155 . S
O158 C160 1.240 1_554 S
O159 Co132 2.096 . S
O159 C140 1.247 . S
C160 O157 1.244 . S
C160 O158 1.240 1_556 S
H161 C135 0.931 . S
H162 C144 0.931 . S
H163 C148 0.929 . S
H164 C150 0.935 . S
Co165 N169 2.148 . S
Co165 N175 2.128 1_554 S
Co165 N185 2.194 . S
Co165 O190 2.351 . S
Co165 O191 2.155 . S
Co165 O192 2.096 1_554 S
C166 N169 1.301 . S
C166 N170 1.328 . S
C166 H171 0.930 . S
C167 C168 1.333 . S
C167 N169 1.317 . S
C167 H172 0.930 . S
C168 C167 1.333 . S
C168 N170 1.350 . S
C168 H194 0.931 . S
N169 Co165 2.148 . S
N169 C166 1.301 . S
N169 C167 1.317 . S
N170 C166 1.328 . S
N170 C168 1.350 . S
H171 C166 0.930 . S
H172 C167 0.930 . S
C173 O174 1.224 . S
C173 O192 1.247 . S
O174 C173 1.224 . S
N175 Co165 2.128 1_556 S
N175 C176 1.355 . S
N175 C178 1.311 . S
C176 N175 1.355 . S
C176 C177 1.363 . S
C176 H188 0.929 . S
C177 C176 1.363 . S
C177 N179 1.375 . S
C177 H195 0.931 . S
C178 N175 1.311 . S
C178 N179 1.347 . S
C178 H189 0.929 . S
N179 C177 1.375 . S
N179 C178 1.347 . S
C180 C183 1.365 . S
C180 N185 1.328 . S
C180 H186 0.929 . S
C181 C182 1.362 . S
C181 C184 1.378 . S
C181 H196 0.929 1_554 S
C182 C181 1.362 . S
C182 C183 1.366 . S
C183 C180 1.365 . S
C183 C182 1.366 . S
C183 H197 0.930 . S
C184 C181 1.378 . S
C184 N185 1.315 . S
C184 H187 0.930 1_554 S
N185 Co165 2.194 . S
N185 C180 1.328 . S
N185 C184 1.315 . S
H186 C180 0.929 . S
H187 C184 0.930 1_556 S
H188 C176 0.929 . S
H189 C178 0.929 . S
O190 Co165 2.351 . S
O190 C193 1.244 . S
O191 Co165 2.155 . S
O191 C193 1.240 . S
O192 Co165 2.096 1_556 S
O192 C173 1.247 . S
C193 O190 1.244 . S
C193 O191 1.240 . S
H194 C168 0.931 . S
H195 C177 0.931 . S
H196 C181 0.929 1_556 S
H197 C183 0.930 . S
Co198 N202 2.148 . S
Co198 N208 2.128 . S
Co198 N218 2.194 . S
Co198 O223 2.351 . S
Co198 O224 2.155 . S
Co198 O225 2.096 . S
C199 N202 1.301 . S
C199 N203 1.328 . S
C199 H204 0.930 . S
C200 C201 1.333 . S
C200 N202 1.317 . S
C200 H205 0.930 . S
C201 C200 1.333 . S
C201 N203 1.350 . S
C201 H227 0.931 . S
N202 Co198 2.148 . S
N202 C199 1.301 . S
N202 C200 1.317 . S
N203 C199 1.328 . S
N203 C201 1.350 . S
H204 C199 0.930 . S
H205 C200 0.930 . S
C206 O207 1.224 . S
C206 O225 1.247 . S
O207 C206 1.224 . S
N208 Co198 2.128 . S
N208 C209 1.355 . S
N208 C211 1.311 . S
C209 N208 1.355 . S
C209 C210 1.363 . S
C209 H221 0.929 . S
C210 C209 1.363 . S
C210 N212 1.375 . S
C210 H228 0.931 . S
C211 N208 1.311 . S
C211 N212 1.347 . S
C211 H222 0.929 . S
N212 C210 1.375 . S
N212 C211 1.347 . S
C213 C216 1.365 . S
C213 N218 1.328 . S
C213 H219 0.929 . S
C214 C215 1.362 . S
C214 C217 1.378 . S
C214 H229 0.929 . S
C215 C214 1.362 . S
C215 C216 1.366 . S
C216 C213 1.365 . S
C216 C215 1.366 . S
C216 H230 0.930 . S
C217 C214 1.378 . S
C217 N218 1.315 . S
C217 H220 0.930 . S
N218 Co198 2.194 . S
N218 C213 1.328 . S
N218 C217 1.315 . S
H219 C213 0.929 . S
H220 C217 0.930 . S
H221 C209 0.929 . S
H222 C211 0.929 . S
O223 Co198 2.351 . S
O223 C226 1.244 . S
O224 Co198 2.155 . S
O224 C226 1.240 . S
O225 Co198 2.096 . S
O225 C206 1.247 . S
C226 O223 1.244 . S
C226 O224 1.240 . S
H227 C201 0.931 . S
H228 C210 0.931 . S
H229 C214 0.929 . S
H230 C216 0.930 . S
Co231 N235 2.148 . S
Co231 N241 2.128 . S
Co231 N251 2.194 1_545 S
Co231 O256 2.351 . S
Co231 O257 2.155 . S
Co231 O258 2.096 . S
C232 N235 1.301 . S
C232 N236 1.328 . S
C232 H237 0.909 . S
C233 C234 1.333 . S
C233 N235 1.317 . S
C233 H238 0.930 . S
C234 C233 1.333 . S
C234 N236 1.350 . S
C234 H260 0.931 . S
N235 Co231 2.148 . S
N235 C232 1.301 . S
N235 C233 1.317 . S
N236 C232 1.328 . S
N236 C234 1.350 . S
H237 C232 0.909 . S
H238 C233 0.930 . S
C239 O240 1.224 1_545 S
C239 O258 1.247 . S
O240 C239 1.224 1_565 S
N241 Co231 2.128 . S
N241 C242 1.353 . S
N241 C244 1.311 . S
C242 N241 1.353 . S
C242 C243 1.359 . S
C242 H254 0.929 1_545 S
C243 C242 1.359 . S
C243 N245 1.373 . S
C243 H261 0.941 1_545 S
C244 N241 1.311 . S
C244 N245 1.347 . S
C244 H255 0.929 . S
N245 C243 1.373 . S
N245 C244 1.347 . S
C246 C249 1.365 . S
C246 N251 1.328 . S
C246 H252 0.929 . S
C247 C248 1.362 . S
C247 C250 1.378 . S
C247 H262 0.929 . S
C248 C247 1.362 . S
C248 C249 1.366 . S
C249 C246 1.365 . S
C249 C248 1.366 . S
C249 H263 0.930 . S
C250 C247 1.378 . S
C250 N251 1.315 . S
C250 H253 0.930 . S
N251 Co231 2.194 1_565 S
N251 C246 1.328 . S
N251 C250 1.315 . S
H252 C246 0.929 . S
H253 C250 0.930 . S
H254 C242 0.929 1_565 S
H255 C244 0.929 . S
O256 Co231 2.351 . S
O256 C259 1.244 . S
O257 Co231 2.155 . S
O257 C259 1.240 . S
O258 Co231 2.096 . S
O258 C239 1.247 . S
C259 O256 1.244 . S
C259 O257 1.240 . S
H260 C234 0.931 . S
H261 C243 0.941 1_565 S
H262 C247 0.929 . S
H263 C249 0.930 . S
Co264 N268 2.148 . S
Co264 N274 2.128 . S
Co264 N284 2.194 . S
Co264 O289 2.351 . S
Co264 O290 2.155 . S
Co264 O291 2.096 . S
C265 N268 1.301 . S
C265 N269 1.328 . S
C265 H270 0.930 . S
C266 C267 1.333 . S
C266 N268 1.317 . S
C266 H271 0.930 . S
C267 C266 1.333 . S
C267 N269 1.350 . S
C267 H293 0.931 . S
N268 Co264 2.148 . S
N268 C265 1.301 . S
N268 C266 1.317 . S
N269 C265 1.328 . S
N269 C267 1.350 . S
H270 C265 0.930 . S
H271 C266 0.930 . S
C272 O273 1.224 . S
C272 O291 1.247 . S
O273 C272 1.224 . S
N274 Co264 2.128 . S
N274 C275 1.355 . S
N274 C277 1.311 . S
C275 N274 1.355 . S
C275 C276 1.363 . S
C275 H287 0.929 . S
C276 C275 1.363 . S
C276 N278 1.375 . S
C276 H294 0.931 . S
C277 N274 1.311 . S
C277 N278 1.347 . S
C277 H288 0.929 . S
N278 C276 1.375 . S
N278 C277 1.347 . S
C279 C282 1.365 . S
C279 N284 1.328 . S
C279 H285 0.929 . S
C280 C281 1.362 . S
C280 C283 1.378 . S
C280 H295 0.929 . S
C281 C280 1.362 . S
C281 C282 1.366 . S
C282 C279 1.365 . S
C282 C281 1.366 . S
C282 H296 0.930 . S
C283 C280 1.378 . S
C283 N284 1.315 . S
C283 H286 0.930 . S
N284 Co264 2.194 . S
N284 C279 1.328 . S
N284 C283 1.315 . S
H285 C279 0.929 . S
H286 C283 0.930 . S
H287 C275 0.929 . S
H288 C277 0.929 . S
O289 Co264 2.351 . S
O289 C292 1.244 . S
O290 Co264 2.155 . S
O290 C292 1.240 . S
O291 Co264 2.096 . S
O291 C272 1.247 . S
C292 O289 1.244 . S
C292 O290 1.240 . S
H293 C267 0.931 . S
H294 C276 0.931 . S
H295 C280 0.929 . S
H296 C282 0.930 . S
Co297 N301 2.148 . S
Co297 N307 2.125 . S
Co297 N317 2.194 . S
Co297 O322 2.351 1_565 S
Co297 O323 2.155 1_565 S
Co297 O324 2.096 1_565 S
C298 N301 1.301 . S
C298 N302 1.328 . S
C298 H303 0.930 . S
C299 C300 1.333 . S
C299 N301 1.317 . S
C299 H304 0.930 . S
C300 C299 1.333 . S
C300 N302 1.350 . S
C300 H326 0.931 . S
N301 Co297 2.148 . S
N301 C298 1.301 . S
N301 C299 1.317 . S
N302 C298 1.328 . S
N302 C300 1.350 . S
H303 C298 0.930 . S
H304 C299 0.930 . S
C305 O306 1.224 . S
C305 O324 1.247 1_565 S
O306 C305 1.224 . S
N307 Co297 2.125 . S
N307 C308 1.376 . S
N307 C310 1.298 1_565 S
C308 N307 1.376 . S
C308 C309 1.363 . S
C308 H320 0.929 . S
C309 C308 1.363 . S
C309 N311 1.375 1_565 S
C309 H327 0.931 . S
C310 N307 1.298 1_545 S
C310 N311 1.347 . S
C310 H321 0.929 . S
N311 C309 1.375 1_545 S
N311 C310 1.347 . S
C312 C315 1.365 . S
C312 N317 1.328 . S
C312 H318 0.929 . S
C313 C314 1.362 . S
C313 C316 1.378 . S
C313 H328 0.929 . S
C314 C313 1.362 . S
C314 C315 1.366 . S
C315 C312 1.365 . S
C315 C314 1.366 . S
C315 H329 0.930 . S
C316 C313 1.378 . S
C316 N317 1.315 . S
C316 H319 0.930 . S
N317 Co297 2.194 . S
N317 C312 1.328 . S
N317 C316 1.315 . S
H318 C312 0.929 . S
H319 C316 0.930 . S
H320 C308 0.929 . S
H321 C310 0.929 . S
O322 Co297 2.351 1_545 S
O322 C325 1.244 . S
O323 Co297 2.155 1_545 S
O323 C325 1.240 . S
O324 Co297 2.096 1_545 S
O324 C305 1.247 1_545 S
C325 O322 1.244 . S
C325 O323 1.240 . S
H326 C300 0.931 . S
H327 C309 0.931 . S
H328 C313 0.929 . S
H329 C315 0.930 . S
Co330 N334 2.148 . S
Co330 N340 2.128 . S
Co330 N350 2.194 . S
Co330 O355 2.351 . S
Co330 O356 2.155 . S
Co330 O357 2.096 . S
C331 N334 1.301 . S
C331 N335 1.328 . S
C331 H336 0.930 . S
C332 C333 1.333 . S
C332 N334 1.317 . S
C332 H337 0.930 . S
C333 C332 1.333 . S
C333 N335 1.350 . S
C333 H359 0.931 . S
N334 Co330 2.148 . S
N334 C331 1.301 . S
N334 C332 1.317 . S
N335 C331 1.328 . S
N335 C333 1.350 . S
H336 C331 0.930 . S
H337 C332 0.930 . S
C338 O339 1.224 . S
C338 O357 1.247 . S
O339 C338 1.224 . S
N340 Co330 2.128 . S
N340 C341 1.355 . S
N340 C343 1.311 . S
C341 N340 1.355 . S
C341 C342 1.363 . S
C341 H353 0.929 . S
C342 C341 1.363 . S
C342 N344 1.375 . S
C342 H360 0.931 . S
C343 N340 1.311 . S
C343 N344 1.347 . S
C343 H354 0.929 . S
N344 C342 1.375 . S
N344 C343 1.347 . S
C345 C348 1.365 . S
C345 N350 1.328 . S
C345 H351 0.929 . S
C346 C347 1.362 . S
C346 C349 1.378 . S
C346 H361 0.929 . S
C347 C346 1.362 . S
C347 C348 1.366 . S
C348 C345 1.365 . S
C348 C347 1.366 . S
C348 H362 0.930 . S
C349 C346 1.378 . S
C349 N350 1.315 . S
C349 H352 0.930 . S
N350 Co330 2.194 . S
N350 C345 1.328 . S
N350 C349 1.315 . S
H351 C345 0.929 . S
H352 C349 0.930 . S
H353 C341 0.929 . S
H354 C343 0.929 . S
O355 Co330 2.351 . S
O355 C358 1.244 . S
O356 Co330 2.155 . S
O356 C358 1.240 . S
O357 Co330 2.096 . S
O357 C338 1.247 . S
C358 O355 1.244 . S
C358 O356 1.240 . S
H359 C333 0.931 . S
H360 C342 0.931 . S
H361 C346 0.929 . S
H362 C348 0.930 . S
Co363 N367 2.148 . S
Co363 N373 2.128 . S
Co363 N383 2.194 . S
Co363 O388 2.351 . S
Co363 O389 2.155 . S
Co363 O390 2.096 . S
C364 N367 1.301 . S
C364 N368 1.328 . S
C364 H369 0.930 . S
C365 C366 1.333 . S
C365 N367 1.317 . S
C365 H370 0.930 . S
C366 C365 1.333 . S
C366 N368 1.350 . S
C366 H392 0.931 . S
N367 Co363 2.148 . S
N367 C364 1.301 . S
N367 C365 1.317 . S
N368 C364 1.328 . S
N368 C366 1.350 . S
H369 C364 0.930 . S
H370 C365 0.930 . S
C371 O372 1.224 . S
C371 O390 1.247 . S
O372 C371 1.224 . S
N373 Co363 2.128 . S
N373 C374 1.355 . S
N373 C376 1.311 . S
C374 N373 1.355 . S
C374 C375 1.363 . S
C374 H386 0.929 . S
C375 C374 1.363 . S
C375 N377 1.375 . S
C375 H393 0.931 . S
C376 N373 1.311 . S
C376 N377 1.347 . S
C376 H387 0.929 . S
N377 C375 1.375 . S
N377 C376 1.347 . S
C378 C381 1.365 . S
C378 N383 1.328 . S
C378 H384 0.929 . S
C379 C380 1.362 . S
C379 C382 1.378 . S
C379 H394 0.929 . S
C380 C379 1.362 . S
C380 C381 1.366 . S
C381 C378 1.365 . S
C381 C380 1.366 . S
C381 H395 0.930 . S
C382 C379 1.378 . S
C382 N383 1.315 . S
C382 H385 0.930 . S
N383 Co363 2.194 . S
N383 C378 1.328 . S
N383 C382 1.315 . S
H384 C378 0.929 . S
H385 C382 0.930 . S
H386 C374 0.929 . S
H387 C376 0.929 . S
O388 Co363 2.351 . S
O388 C391 1.244 . S
O389 Co363 2.155 . S
O389 C391 1.240 . S
O390 Co363 2.096 . S
O390 C371 1.247 . S
C391 O388 1.244 . S
C391 O389 1.240 . S
H392 C366 0.931 . S
H393 C375 0.931 . S
H394 C379 0.929 . S
H395 C381 0.930 . S
Co396 N400 2.148 . S
Co396 N406 2.128 . S
Co396 N416 2.194 . S
Co396 O421 2.351 . S
Co396 O422 2.155 . S
Co396 O423 2.096 . S
C397 N400 1.301 . S
C397 N401 1.328 . S
C397 H402 0.930 . S
C398 C399 1.333 . S
C398 N400 1.317 . S
C398 H403 0.930 . S
C399 C398 1.333 . S
C399 N401 1.350 . S
C399 H425 0.931 . S
N400 Co396 2.148 . S
N400 C397 1.301 . S
N400 C398 1.317 . S
N401 C397 1.328 . S
N401 C399 1.350 . S
H402 C397 0.930 . S
H403 C398 0.930 . S
C404 O405 1.224 . S
C404 O423 1.247 . S
O405 C404 1.224 . S
N406 Co396 2.128 . S
N406 C407 1.355 . S
N406 C409 1.311 . S
C407 N406 1.355 . S
C407 C408 1.363 . S
C407 H419 0.929 . S
C408 C407 1.363 . S
C408 N410 1.375 1_556 S
C408 H426 0.931 1_556 S
C409 N406 1.311 . S
C409 N410 1.347 1_556 S
C409 H420 0.929 . S
N410 C408 1.375 1_554 S
N410 C409 1.347 1_554 S
C411 C414 1.365 . S
C411 N416 1.328 . S
C411 H417 0.929 . S
C412 C413 1.362 . S
C412 C415 1.378 . S
C412 H427 0.929 . S
C413 C412 1.362 . S
C413 C414 1.366 . S
C414 C411 1.365 . S
C414 C413 1.366 . S
C414 H428 0.930 . S
C415 C412 1.378 . S
C415 N416 1.315 . S
C415 H418 0.930 . S
N416 Co396 2.194 . S
N416 C411 1.328 . S
N416 C415 1.315 . S
H417 C411 0.929 . S
H418 C415 0.930 . S
H419 C407 0.929 . S
H420 C409 0.929 . S
O421 Co396 2.351 . S
O421 C424 1.244 . S
O422 Co396 2.155 . S
O422 C424 1.240 . S
O423 Co396 2.096 . S
O423 C404 1.247 . S
C424 O421 1.244 . S
C424 O422 1.240 . S
H425 C399 0.931 . S
H426 C408 0.931 1_554 S
H427 C412 0.929 . S
H428 C414 0.930 . S
Co429 N433 2.148 . S
Co429 N439 2.128 . S
Co429 N449 2.194 . S
Co429 O454 2.351 . S
Co429 O455 2.155 . S
Co429 O456 2.096 . S
C430 N433 1.301 . S
C430 N434 1.328 . S
C430 H435 0.930 . S
C431 C432 1.333 . S
C431 N433 1.317 . S
C431 H436 0.930 1_655 S
C432 C431 1.333 . S
C432 N434 1.350 . S
C432 H458 0.931 1_655 S
N433 Co429 2.148 . S
N433 C430 1.301 . S
N433 C431 1.317 . S
N434 C430 1.328 . S
N434 C432 1.350 . S
H435 C430 0.930 . S
H436 C431 0.930 1_455 S
C437 O438 1.224 . S
C437 O456 1.247 . S
O438 C437 1.224 . S
N439 Co429 2.128 . S
N439 C440 1.355 . S
N439 C442 1.311 . S
C440 N439 1.355 . S
C440 C441 1.363 . S
C440 H452 0.929 . S
C441 C440 1.363 . S
C441 N443 1.375 . S
C441 H459 0.931 . S
C442 N439 1.311 . S
C442 N443 1.347 . S
C442 H453 0.929 . S
N443 C441 1.375 . S
N443 C442 1.347 . S
C444 C447 1.365 . S
C444 N449 1.328 . S
C444 H450 0.929 . S
C445 C446 1.362 . S
C445 C448 1.378 . S
C445 H460 0.929 . S
C446 C445 1.362 . S
C446 C447 1.366 . S
C447 C444 1.365 . S
C447 C446 1.366 . S
C447 H461 0.930 . S
C448 C445 1.378 . S
C448 N449 1.315 . S
C448 H451 0.930 . S
N449 Co429 2.194 . S
N449 C444 1.328 . S
N449 C448 1.315 . S
H450 C444 0.929 . S
H451 C448 0.930 . S
H452 C440 0.929 . S
H453 C442 0.929 . S
O454 Co429 2.351 . S
O454 C457 1.244 . S
O455 Co429 2.155 . S
O455 C457 1.240 . S
O456 Co429 2.096 . S
O456 C437 1.247 . S
C457 O454 1.244 . S
C457 O455 1.240 . S
H458 C432 0.931 1_455 S
H459 C441 0.931 . S
H460 C445 0.929 . S
H461 C447 0.930 . S
Co462 N466 2.148 . S
Co462 N472 2.128 . S
Co462 N482 2.194 . S
Co462 O487 2.351 . S
Co462 O488 2.155 . S
Co462 O489 2.096 . S
C463 N466 1.301 . S
C463 N467 1.328 . S
C463 H468 0.930 . S
C464 C465 1.333 . S
C464 N466 1.317 . S
C464 H469 0.930 . S
C465 C464 1.333 . S
C465 N467 1.350 . S
C465 H491 0.931 . S
N466 Co462 2.148 . S
N466 C463 1.301 . S
N466 C464 1.317 . S
N467 C463 1.328 . S
N467 C465 1.350 . S
H468 C463 0.930 . S
H469 C464 0.930 . S
C470 O471 1.224 . S
C470 O489 1.247 . S
O471 C470 1.224 . S
N472 Co462 2.128 . S
N472 C473 1.355 . S
N472 C475 1.311 . S
C473 N472 1.355 . S
C473 C474 1.363 . S
C473 H485 0.929 . S
C474 C473 1.363 . S
C474 N476 1.377 . S
C474 H492 0.931 1_556 S
C475 N472 1.311 . S
C475 N476 1.352 . S
C475 H486 0.929 . S
N476 C474 1.377 . S
N476 C475 1.352 . S
C477 C480 1.365 . S
C477 N482 1.328 . S
C477 H483 0.929 . S
C478 C479 1.362 . S
C478 C481 1.378 . S
C478 H493 0.929 . S
C479 C478 1.362 . S
C479 C480 1.366 . S
C480 C477 1.365 . S
C480 C479 1.366 . S
C480 H494 0.930 . S
C481 C478 1.378 . S
C481 N482 1.315 . S
C481 H484 0.930 . S
N482 Co462 2.194 . S
N482 C477 1.328 . S
N482 C481 1.315 . S
H483 C477 0.929 . S
H484 C481 0.930 . S
H485 C473 0.929 . S
H486 C475 0.929 . S
O487 Co462 2.351 . S
O487 C490 1.244 . S
O488 Co462 2.155 . S
O488 C490 1.240 . S
O489 Co462 2.096 . S
O489 C470 1.247 . S
C490 O487 1.244 . S
C490 O488 1.240 . S
H491 C465 0.931 . S
H492 C474 0.931 1_554 S
H493 C478 0.929 . S
H494 C480 0.930 . S
Co495 N499 2.148 . S
Co495 N505 2.128 . S
Co495 N515 2.194 . S
Co495 O520 2.351 . S
Co495 O521 2.155 . S
Co495 O522 2.096 . S
C496 N499 1.301 . S
C496 N500 1.328 1_556 S
C496 H501 0.930 . S
C497 C498 1.333 . S
C497 N499 1.317 . S
C497 H502 0.930 . S
C498 C497 1.333 . S
C498 N500 1.350 1_556 S
C498 H524 0.931 . S
N499 Co495 2.148 . S
N499 C496 1.301 . S
N499 C497 1.317 . S
N500 C496 1.328 1_554 S
N500 C498 1.350 1_554 S
H501 C496 0.930 . S
H502 C497 0.930 . S
C503 O504 1.224 . S
C503 O522 1.247 . S
O504 C503 1.224 . S
N505 Co495 2.128 . S
N505 C506 1.355 . S
N505 C508 1.311 . S
C506 N505 1.355 . S
C506 C507 1.363 . S
C506 H518 0.929 . S
C507 C506 1.363 . S
C507 N509 1.375 . S
C507 H525 0.931 . S
C508 N505 1.311 . S
C508 N509 1.347 . S
C508 H519 0.929 . S
N509 C507 1.375 . S
N509 C508 1.347 . S
C510 C513 1.365 . S
C510 N515 1.328 . S
C510 H516 0.929 . S
C511 C512 1.362 . S
C511 C514 1.378 . S
C511 H526 0.929 . S
C512 C511 1.362 . S
C512 C513 1.366 . S
C513 C510 1.365 . S
C513 C512 1.366 . S
C513 H527 0.930 . S
C514 C511 1.378 . S
C514 N515 1.315 . S
C514 H517 0.930 . S
N515 Co495 2.194 . S
N515 C510 1.328 . S
N515 C514 1.315 . S
H516 C510 0.929 . S
H517 C514 0.930 . S
H518 C506 0.929 . S
H519 C508 0.929 . S
O520 Co495 2.351 . S
O520 C523 1.244 . S
O521 Co495 2.155 . S
O521 C523 1.240 . S
O522 Co495 2.096 . S
O522 C503 1.247 . S
C523 O520 1.244 . S
C523 O521 1.240 . S
H524 C498 0.931 . S
H525 C507 0.931 . S
H526 C511 0.929 . S
H527 C513 0.930 . S
Co528 N532 2.148 . S
Co528 N538 2.128 . S
Co528 N548 2.194 . S
Co528 O553 2.351 . S
Co528 O554 2.155 . S
Co528 O555 2.096 . S
C529 N532 1.301 . S
C529 N533 1.328 . S
C529 H534 0.930 . S
C530 C531 1.333 . S
C530 N532 1.317 . S
C530 H535 0.930 . S
C531 C530 1.333 . S
C531 N533 1.350 . S
C531 H557 0.931 . S
N532 Co528 2.148 . S
N532 C529 1.301 . S
N532 C530 1.317 . S
N533 C529 1.328 . S
N533 C531 1.350 . S
H534 C529 0.930 . S
H535 C530 0.930 . S
C536 O537 1.224 . S
C536 O555 1.247 . S
O537 C536 1.224 . S
N538 Co528 2.128 . S
N538 C539 1.355 . S
N538 C541 1.311 . S
C539 N538 1.355 . S
C539 C540 1.363 . S
C539 H551 0.929 . S
C540 C539 1.363 . S
C540 N542 1.375 1_556 S
C540 H558 0.931 1_556 S
C541 N538 1.311 . S
C541 N542 1.347 1_556 S
C541 H552 0.929 . S
N542 C540 1.375 1_554 S
N542 C541 1.347 1_554 S
C543 C546 1.365 . S
C543 N548 1.328 . S
C543 H549 0.929 . S
C544 C545 1.362 . S
C544 C547 1.378 . S
C544 H559 0.929 . S
C545 C544 1.362 . S
C545 C546 1.366 . S
C546 C543 1.365 . S
C546 C545 1.366 . S
C546 H560 0.930 . S
C547 C544 1.378 . S
C547 N548 1.315 . S
C547 H550 0.930 . S
N548 Co528 2.194 . S
N548 C543 1.328 . S
N548 C547 1.315 . S
H549 C543 0.929 . S
H550 C547 0.930 . S
H551 C539 0.929 . S
H552 C541 0.929 . S
O553 Co528 2.351 . S
O553 C556 1.244 . S
O554 Co528 2.155 . S
O554 C556 1.240 . S
O555 Co528 2.096 . S
O555 C536 1.247 . S
C556 O553 1.244 . S
C556 O554 1.240 . S
H557 C531 0.931 . S
H558 C540 0.931 1_554 S
H559 C544 0.929 . S
H560 C546 0.930 . S
Co561 N565 2.148 . S
Co561 N571 2.128 . S
Co561 N581 2.194 . S
Co561 O586 2.351 . S
Co561 O587 2.155 . S
Co561 O588 2.100 . S
C562 N565 1.301 . S
C562 N566 1.328 . S
C562 H567 0.930 . S
C563 C564 1.333 . S
C563 N565 1.317 . S
C563 H568 0.930 1_655 S
C564 C563 1.333 . S
C564 N566 1.350 . S
C564 H590 0.931 1_655 S
N565 Co561 2.148 . S
N565 C562 1.301 . S
N565 C563 1.317 . S
N566 C562 1.328 . S
N566 C564 1.350 . S
H567 C562 0.930 . S
H568 C563 0.930 1_455 S
C569 O570 1.209 1_455 S
C569 O588 1.257 1_455 S
O570 C569 1.209 1_655 S
N571 Co561 2.128 . S
N571 C572 1.355 . S
N571 C574 1.311 . S
C572 N571 1.355 . S
C572 C573 1.363 . S
C572 H584 0.929 . S
C573 C572 1.363 . S
C573 N575 1.375 . S
C573 H591 0.931 . S
C574 N571 1.311 . S
C574 N575 1.347 . S
C574 H585 0.929 . S
N575 C573 1.375 . S
N575 C574 1.347 . S
C576 C579 1.365 . S
C576 N581 1.328 . S
C576 H582 0.929 . S
C577 C578 1.362 . S
C577 C580 1.378 . S
C577 H592 0.929 . S
C578 C577 1.362 . S
C578 C579 1.366 . S
C579 C576 1.365 . S
C579 C578 1.366 . S
C579 H593 0.930 . S
C580 C577 1.378 . S
C580 N581 1.315 . S
C580 H583 0.930 . S
N581 Co561 2.194 . S
N581 C576 1.328 . S
N581 C580 1.315 . S
H582 C576 0.929 . S
H583 C580 0.930 . S
H584 C572 0.929 . S
H585 C574 0.929 . S
O586 Co561 2.351 . S
O586 C589 1.244 . S
O587 Co561 2.155 . S
O587 C589 1.240 . S
O588 Co561 2.100 . S
O588 C569 1.257 1_655 S
C589 O586 1.244 . S
C589 O587 1.240 . S
H590 C564 0.931 1_455 S
H591 C573 0.931 . S
H592 C577 0.929 . S
H593 C579 0.930 . S
C594 C595 1.369 . S
C594 C596 1.419 . S
C594 H598 0.930 . S
C595 C594 1.369 . S
C595 C604 1.429 . S
C596 C594 1.419 . S
C596 C597 1.363 . S
C596 H599 0.929 . S
C597 C596 1.363 . S
C597 C603 1.428 . S
H598 C594 0.930 . S
H599 C596 0.929 . S
S600 N601 1.613 1_655 S
S600 N602 1.610 . S
N601 S600 1.613 1_455 S
N601 C604 1.350 . S
N602 S600 1.610 . S
N602 C603 1.351 1_655 S
C603 C597 1.428 . S
C603 N602 1.351 1_455 S
C603 C604 1.434 . S
C604 C595 1.429 . S
C604 N601 1.350 . S
C604 C603 1.434 . S
C605 C606 1.369 . S
C605 C607 1.419 . S
C605 H609 0.930 . S
C606 C605 1.369 . S
C606 C615 1.429 . S
C607 C605 1.419 . S
C607 C608 1.363 . S
C607 H610 0.929 . S
C608 C607 1.363 . S
C608 C614 1.428 . S
H609 C605 0.930 . S
H610 C607 0.929 . S
S611 N612 1.613 . S
S611 N613 1.610 . S
N612 S611 1.613 . S
N612 C615 1.350 . S
N613 S611 1.610 . S
N613 C614 1.351 . S
C614 C608 1.428 . S
C614 N613 1.351 . S
C614 C615 1.434 . S
C615 C606 1.429 . S
C615 N612 1.350 . S
C615 C614 1.434 . S
C616 C617 1.369 . S
C616 C618 1.419 . S
C616 H620 0.930 . S
C617 C616 1.369 . S
C617 C626 1.429 . S
C618 C616 1.419 . S
C618 C619 1.363 . S
C618 H621 0.929 . S
C619 C618 1.363 . S
C619 C625 1.428 . S
H620 C616 0.930 . S
H621 C618 0.929 . S
S622 N623 1.613 . S
S622 N624 1.610 . S
N623 S622 1.613 . S
N623 C626 1.350 . S
N624 S622 1.610 . S
N624 C625 1.351 . S
C625 C619 1.428 . S
C625 N624 1.351 . S
C625 C626 1.434 . S
C626 C617 1.429 . S
C626 N623 1.350 . S
C626 C625 1.434 . S
C627 C628 1.369 . S
C627 C629 1.419 . S
C627 H631 0.930 . S
C628 C627 1.369 . S
C628 C637 1.429 . S
C629 C627 1.419 . S
C629 C630 1.363 . S
C629 H632 0.929 . S
C630 C629 1.363 . S
C630 C636 1.428 . S
H631 C627 0.930 . S
H632 C629 0.929 . S
S633 N634 1.613 . S
S633 N635 1.610 . S
N634 S633 1.613 . S
N634 C637 1.350 . S
N635 S633 1.610 . S
N635 C636 1.351 . S
C636 C630 1.428 . S
C636 N635 1.351 . S
C636 C637 1.434 . S
C637 C628 1.429 . S
C637 N634 1.350 . S
C637 C636 1.434 . S
C638 C639 1.369 . S
C638 C640 1.419 . S
C638 H642 0.930 . S
C639 C638 1.369 . S
C639 C648 1.429 . S
C640 C638 1.419 . S
C640 C641 1.363 . S
C640 H643 0.929 . S
C641 C640 1.363 . S
C641 C647 1.428 . S
H642 C638 0.930 . S
H643 C640 0.929 . S
S644 N645 1.613 . S
S644 N646 1.610 . S
N645 S644 1.613 . S
N645 C648 1.350 . S
N646 S644 1.610 . S
N646 C647 1.351 . S
C647 C641 1.428 . S
C647 N646 1.351 . S
C647 C648 1.434 . S
C648 C639 1.429 . S
C648 N645 1.350 . S
C648 C647 1.434 . S
C649 C650 1.369 . S
C649 C651 1.419 . S
C649 H653 0.930 . S
C650 C649 1.369 . S
C650 C659 1.429 . S
C651 C649 1.419 . S
C651 C652 1.363 . S
C651 H654 0.929 . S
C652 C651 1.363 . S
C652 C658 1.428 . S
H653 C649 0.930 . S
H654 C651 0.929 . S
S655 N656 1.613 . S
S655 N657 1.610 . S
N656 S655 1.613 . S
N656 C659 1.350 . S
N657 S655 1.610 . S
N657 C658 1.351 . S
C658 C652 1.428 . S
C658 N657 1.351 . S
C658 C659 1.434 . S
C659 C650 1.429 . S
C659 N656 1.350 . S
C659 C658 1.434 . S
C660 C661 1.369 . S
C660 C662 1.419 . S
C660 H664 0.930 . S
C661 C660 1.369 . S
C661 C670 1.429 . S
C662 C660 1.419 . S
C662 C663 1.363 . S
C662 H665 0.929 . S
C663 C662 1.363 . S
C663 C669 1.428 . S
H664 C660 0.930 . S
H665 C662 0.929 . S
S666 N667 1.613 . S
S666 N668 1.610 . S
N667 S666 1.613 . S
N667 C670 1.350 . S
N668 S666 1.610 . S
N668 C669 1.351 . S
C669 C663 1.428 . S
C669 N668 1.351 . S
C669 C670 1.434 . S
C670 C661 1.429 . S
C670 N667 1.350 . S
C670 C669 1.434 . S
C671 C672 1.369 1_565 S
C671 C673 1.419 . S
C671 H675 0.930 . S
C672 C671 1.369 1_545 S
C672 C681 1.429 . S
C673 C671 1.419 . S
C673 C674 1.363 1_565 S
C673 H676 0.929 . S
C674 C673 1.363 1_545 S
C674 C680 1.428 . S
H675 C671 0.930 . S
H676 C673 0.929 . S
S677 N678 1.613 . S
S677 N679 1.610 . S
N678 S677 1.613 . S
N678 C681 1.350 . S
N679 S677 1.610 . S
N679 C680 1.351 . S
C680 C674 1.428 . S
C680 N679 1.351 . S
C680 C681 1.434 . S
C681 C672 1.429 . S
C681 N678 1.350 . S
C681 C680 1.434 . S
C682 C683 1.369 . S
C682 C684 1.419 . S
C682 H686 0.930 . S
C683 C682 1.369 . S
C683 C692 1.429 . S
C684 C682 1.419 . S
C684 C685 1.363 . S
C684 H687 0.929 . S
C685 C684 1.363 . S
C685 C691 1.428 . S
H686 C682 0.930 . S
H687 C684 0.929 . S
S688 N689 1.613 . S
S688 N690 1.610 . S
N689 S688 1.613 . S
N689 C692 1.350 . S
N690 S688 1.610 . S
N690 C691 1.351 . S
C691 C685 1.428 . S
C691 N690 1.351 . S
C691 C692 1.434 . S
C692 C683 1.429 . S
C692 N689 1.350 . S
C692 C691 1.434 . S
C693 C694 1.370 . S
C693 C695 1.419 . S
C693 H697 0.930 1_556 S
C694 C693 1.370 . S
C694 C703 1.427 1_565 S
C695 C693 1.419 . S
C695 C696 1.363 . S
C695 H698 0.929 . S
C696 C695 1.363 . S
C696 C702 1.428 1_565 S
H697 C693 0.930 1_554 S
H698 C695 0.929 . S
S699 N700 1.613 . S
S699 N701 1.610 . S
N700 S699 1.613 . S
N700 C703 1.350 . S
N701 S699 1.610 . S
N701 C702 1.351 . S
C702 C696 1.428 1_545 S
C702 N701 1.351 . S
C702 C703 1.434 . S
C703 C694 1.427 1_545 S
C703 N700 1.350 . S
C703 C702 1.434 . S
C704 C705 1.369 . S
C704 C706 1.419 . S
C704 H708 0.930 . S
C705 C704 1.369 . S
C705 C714 1.429 . S
C706 C704 1.419 . S
C706 C707 1.363 . S
C706 H709 0.937 . S
C707 C706 1.363 . S
C707 C713 1.428 . S
H708 C704 0.930 . S
H709 C706 0.937 . S
S710 N711 1.613 . S
S710 N712 1.610 . S
N711 S710 1.613 . S
N711 C714 1.350 . S
N712 S710 1.610 . S
N712 C713 1.351 . S
C713 C707 1.428 . S
C713 N712 1.351 . S
C713 C714 1.434 . S
C714 C705 1.429 . S
C714 N711 1.350 . S
C714 C713 1.434 . S
C715 C716 1.369 . S
C715 C717 1.419 . S
C715 H719 0.930 . S
C716 C715 1.369 . S
C716 C725 1.429 . S
C717 C715 1.419 . S
C717 C718 1.363 . S
C717 H720 0.929 . S
C718 C717 1.363 . S
C718 C724 1.428 . S
H719 C715 0.930 . S
H720 C717 0.929 . S
S721 N722 1.613 . S
S721 N723 1.610 1_556 S
N722 S721 1.613 . S
N722 C725 1.350 . S
N723 S721 1.610 1_554 S
N723 C724 1.351 1_554 S
C724 C718 1.428 . S
C724 N723 1.351 1_556 S
C724 C725 1.434 . S
C725 C716 1.429 . S
C725 N722 1.350 . S
C725 C724 1.434 . S
C726 C727 1.369 . S
C726 C728 1.419 . S
C726 H730 0.930 . S
C727 C726 1.369 . S
C727 C736 1.429 . S
C728 C726 1.419 . S
C728 C729 1.363 . S
C728 H731 0.929 . S
C729 C728 1.363 . S
C729 C735 1.428 . S
H730 C726 0.930 . S
H731 C728 0.929 . S
S732 N733 1.613 . S
S732 N734 1.610 . S
N733 S732 1.613 . S
N733 C736 1.350 . S
N734 S732 1.610 . S
N734 C735 1.351 . S
C735 C729 1.428 . S
C735 N734 1.351 . S
C735 C736 1.434 . S
C736 C727 1.429 . S
C736 N733 1.350 . S
C736 C735 1.434 . S
C737 C738 1.369 . S
C737 C739 1.419 . S
C737 H741 0.930 . S
C738 C737 1.369 . S
C738 C747 1.429 . S
C739 C737 1.419 . S
C739 C740 1.363 . S
C739 H742 0.929 . S
C740 C739 1.363 . S
C740 C746 1.428 . S
H741 C737 0.930 . S
H742 C739 0.929 . S
S743 N744 1.613 . S
S743 N745 1.610 . S
N744 S743 1.613 . S
N744 C747 1.350 . S
N745 S743 1.610 . S
N745 C746 1.351 . S
C746 C740 1.428 . S
C746 N745 1.351 . S
C746 C747 1.434 . S
C747 C738 1.429 . S
C747 N744 1.350 . S
C747 C746 1.434 . S
C748 C749 1.369 . S
C748 C750 1.419 . S
C748 H752 0.930 . S
C749 C748 1.369 . S
C749 C758 1.429 . S
C750 C748 1.419 . S
C750 C751 1.363 . S
C750 H753 0.929 . S
C751 C750 1.363 . S
C751 C757 1.428 . S
H752 C748 0.930 . S
H753 C750 0.929 . S
S754 N755 1.613 . S
S754 N756 1.610 . S
N755 S754 1.613 . S
N755 C758 1.350 . S
N756 S754 1.610 . S
N756 C757 1.351 . S
C757 C751 1.428 . S
C757 N756 1.351 . S
C757 C758 1.434 . S
C758 C749 1.429 . S
C758 N755 1.350 . S
C758 C757 1.434 . S
C759 C760 1.369 . S
C759 C761 1.419 . S
C759 H763 0.930 . S
C760 C759 1.369 . S
C760 C769 1.429 . S
C761 C759 1.419 . S
C761 C762 1.363 . S
C761 H764 0.929 . S
C762 C761 1.363 . S
C762 C768 1.428 . S
H763 C759 0.930 . S
H764 C761 0.929 . S
S765 N766 1.613 . S
S765 N767 1.610 . S
N766 S765 1.613 . S
N766 C769 1.350 . S
N767 S765 1.610 . S
N767 C768 1.351 . S
C768 C762 1.428 . S
C768 N767 1.351 . S
C768 C769 1.434 . S
C769 C760 1.429 . S
C769 N766 1.350 . S
C769 C768 1.434 . S
C770 C771 1.369 . S
C770 C772 1.419 . S
C770 H774 0.930 . S
C771 C770 1.369 . S
C771 C780 1.429 . S
C772 C770 1.419 . S
C772 C773 1.363 . S
C772 H775 0.929 . S
C773 C772 1.363 . S
C773 C779 1.428 . S
H774 C770 0.930 . S
H775 C772 0.929 . S
S776 N777 1.613 . S
S776 N778 1.610 . S
N777 S776 1.613 . S
N777 C780 1.350 . S
N778 S776 1.610 . S
N778 C779 1.351 . S
C779 C773 1.428 . S
C779 N778 1.351 . S
C779 C780 1.434 . S
C780 C771 1.429 . S
C780 N777 1.350 . S
C780 C779 1.434 . S
C781 C782 1.369 . S
C781 C783 1.419 . S
C781 H785 0.930 . S
C782 C781 1.369 . S
C782 C791 1.429 . S
C783 C781 1.419 . S
C783 C784 1.363 . S
C783 H786 0.929 . S
C784 C783 1.363 . S
C784 C790 1.428 . S
H785 C781 0.930 . S
H786 C783 0.929 . S
S787 N788 1.613 . S
S787 N789 1.610 . S
N788 S787 1.613 . S
N788 C791 1.350 . S
N789 S787 1.610 . S
N789 C790 1.351 . S
C790 C784 1.428 . S
C790 N789 1.351 . S
C790 C791 1.434 . S
C791 C782 1.429 . S
C791 N788 1.350 . S
C791 C790 1.434 . S
C792 C793 1.369 . S
C792 C794 1.419 . S
C792 H796 0.930 . S
C793 C792 1.369 . S
C793 C802 1.429 1_554 S
C794 C792 1.419 . S
C794 C795 1.363 . S
C794 H797 0.929 . S
C795 C794 1.363 . S
C795 C801 1.428 1_554 S
H796 C792 0.930 . S
H797 C794 0.929 . S
S798 N799 1.613 . S
S798 N800 1.610 . S
N799 S798 1.613 . S
N799 C802 1.350 . S
N800 S798 1.610 . S
N800 C801 1.351 . S
C801 C795 1.428 1_556 S
C801 N800 1.351 . S
C801 C802 1.434 . S
C802 C793 1.429 1_556 S
C802 N799 1.350 . S
C802 C801 1.434 . S
C803 C804 1.369 . S
C803 C805 1.419 . S
C803 H807 0.930 . S
C804 C803 1.369 . S
C804 C813 1.429 . S
C805 C803 1.419 . S
C805 C806 1.363 . S
C805 H808 0.929 . S
C806 C805 1.363 . S
C806 C812 1.428 . S
H807 C803 0.930 . S
H808 C805 0.929 . S
S809 N810 1.613 . S
S809 N811 1.610 . S
N810 S809 1.613 . S
N810 C813 1.350 . S
N811 S809 1.610 . S
N811 C812 1.351 . S
C812 C806 1.428 . S
C812 N811 1.351 . S
C812 C813 1.434 . S
C813 C804 1.429 . S
C813 N810 1.350 . S
C813 C812 1.434 . S
C814 C815 1.369 . S
C814 C816 1.419 . S
C814 H818 0.930 . S
C815 C814 1.369 . S
C815 C824 1.429 . S
C816 C814 1.419 . S
C816 C817 1.363 . S
C816 H819 0.929 . S
C817 C816 1.363 . S
C817 C823 1.428 . S
H818 C814 0.930 . S
H819 C816 0.929 . S
S820 N821 1.613 . S
S820 N822 1.610 . S
N821 S820 1.613 . S
N821 C824 1.350 . S
N822 S820 1.610 . S
N822 C823 1.351 . S
C823 C817 1.428 . S
C823 N822 1.351 . S
C823 C824 1.434 . S
C824 C815 1.429 . S
C824 N821 1.350 . S
C824 C823 1.434 . S
C825 C826 1.369 . S
C825 C827 1.419 . S
C825 H829 0.930 . S
C826 C825 1.369 . S
C826 C835 1.429 . S
C827 C825 1.419 . S
C827 C828 1.363 . S
C827 H830 0.929 . S
C828 C827 1.363 . S
C828 C834 1.428 . S
H829 C825 0.930 . S
H830 C827 0.929 . S
S831 N832 1.613 . S
S831 N833 1.610 . S
N832 S831 1.613 . S
N832 C835 1.350 . S
N833 S831 1.610 . S
N833 C834 1.351 . S
C834 C828 1.428 . S
C834 N833 1.351 . S
C834 C835 1.434 . S
C835 C826 1.429 . S
C835 N832 1.350 . S
C835 C834 1.434 . S
C836 C837 1.369 . S
C836 C838 1.419 . S
C836 H840 0.930 . S
C837 C836 1.369 . S
C837 C846 1.429 . S
C838 C836 1.419 . S
C838 C839 1.363 . S
C838 H841 0.929 . S
C839 C838 1.363 . S
C839 C845 1.428 . S
H840 C836 0.930 . S
H841 C838 0.929 . S
S842 N843 1.613 . S
S842 N844 1.610 . S
N843 S842 1.613 . S
N843 C846 1.350 . S
N844 S842 1.610 . S
N844 C845 1.351 . S
C845 C839 1.428 . S
C845 N844 1.351 . S
C845 C846 1.434 . S
C846 C837 1.429 . S
C846 N843 1.350 . S
C846 C845 1.434 . S
C847 C848 1.369 . S
C847 C849 1.419 . S
C847 H851 0.930 . S
C848 C847 1.369 . S
C848 C857 1.429 . S
C849 C847 1.419 . S
C849 C850 1.363 . S
C849 H852 0.929 . S
C850 C849 1.363 . S
C850 C856 1.428 . S
H851 C847 0.930 . S
H852 C849 0.929 . S
S853 N854 1.613 . S
S853 N855 1.610 . S
N854 S853 1.613 . S
N854 C857 1.350 . S
N855 S853 1.610 . S
N855 C856 1.351 . S
C856 C850 1.428 . S
C856 N855 1.351 . S
C856 C857 1.434 . S
C857 C848 1.429 . S
C857 N854 1.350 . S
C857 C856 1.434 . S
C858 C859 1.369 . S
C858 C860 1.419 . S
C858 H862 0.930 . S
C859 C858 1.369 . S
C859 C868 1.429 . S
C860 C858 1.419 . S
C860 C861 1.363 . S
C860 H863 0.929 . S
C861 C860 1.363 . S
C861 C867 1.428 . S
H862 C858 0.930 . S
H863 C860 0.929 . S
S864 N865 1.613 . S
S864 N866 1.610 . S
N865 S864 1.613 . S
N865 C868 1.350 . S
N866 S864 1.610 . S
N866 C867 1.351 . S
C867 C861 1.428 . S
C867 N866 1.351 . S
C867 C868 1.434 . S
C868 C859 1.429 . S
C868 N865 1.350 . S
C868 C867 1.434 . S
C869 C870 1.369 . S
C869 C871 1.419 . S
C869 H873 0.930 . S
C870 C869 1.369 . S
C870 C879 1.429 . S
C871 C869 1.419 . S
C871 C872 1.363 . S
C871 H874 0.929 . S
C872 C871 1.363 . S
C872 C878 1.428 . S
H873 C869 0.930 . S
H874 C871 0.929 . S
S875 N876 1.613 . S
S875 N877 1.610 . S
N876 S875 1.613 . S
N876 C879 1.350 . S
N877 S875 1.610 . S
N877 C878 1.351 . S
C878 C872 1.428 . S
C878 N877 1.351 . S
C878 C879 1.434 . S
C879 C870 1.429 . S
C879 N876 1.350 . S
C879 C878 1.434 . S
C880 C881 1.369 . S
C880 C882 1.419 . S
C880 H884 0.930 . S
C881 C880 1.369 . S
C881 C890 1.429 . S
C882 C880 1.419 . S
C882 C883 1.363 . S
C882 H885 0.929 . S
C883 C882 1.363 . S
C883 C889 1.428 . S
H884 C880 0.930 . S
H885 C882 0.929 . S
S886 N887 1.613 . S
S886 N888 1.610 . S
N887 S886 1.613 . S
N887 C890 1.350 . S
N888 S886 1.610 . S
N888 C889 1.351 . S
C889 C883 1.428 . S
C889 N888 1.351 . S
C889 C890 1.434 . S
C890 C881 1.429 . S
C890 N887 1.350 . S
C890 C889 1.434 . S
C891 C892 1.369 . S
C891 C893 1.419 . S
C891 H895 0.930 . S
C892 C891 1.369 . S
C892 C901 1.429 . S
C893 C891 1.419 . S
C893 C894 1.363 . S
C893 H896 0.929 . S
C894 C893 1.363 . S
C894 C900 1.428 . S
H895 C891 0.930 . S
H896 C893 0.929 . S
S897 N898 1.613 . S
S897 N899 1.610 . S
N898 S897 1.613 . S
N898 C901 1.350 . S
N899 S897 1.610 . S
N899 C900 1.351 . S
C900 C894 1.428 . S
C900 N899 1.351 . S
C900 C901 1.434 . S
C901 C892 1.429 . S
C901 N898 1.350 . S
C901 C900 1.434 . S
C902 C903 1.369 . S
C902 C904 1.419 . S
C902 H906 0.930 . S
C903 C902 1.369 . S
C903 C912 1.429 . S
C904 C902 1.419 . S
C904 C905 1.363 . S
C904 H907 0.929 . S
C905 C904 1.363 . S
C905 C911 1.428 . S
H906 C902 0.930 . S
H907 C904 0.929 . S
S908 N909 1.613 . S
S908 N910 1.610 . S
N909 S908 1.613 . S
N909 C912 1.350 . S
N910 S908 1.610 . S
N910 C911 1.351 . S
C911 C905 1.428 . S
C911 N910 1.351 . S
C911 C912 1.434 . S
C912 C903 1.429 . S
C912 N909 1.350 . S
C912 C911 1.434 . S
C913 C914 1.369 . S
C913 C915 1.419 . S
C913 H917 0.930 . S
C914 C913 1.369 . S
C914 C923 1.429 . S
C915 C913 1.419 . S
C915 C916 1.363 . S
C915 H918 0.929 . S
C916 C915 1.363 . S
C916 C922 1.428 . S
H917 C913 0.930 . S
H918 C915 0.929 . S
S919 N920 1.613 . S
S919 N921 1.610 . S
N920 S919 1.613 . S
N920 C923 1.350 . S
N921 S919 1.610 . S
N921 C922 1.351 . S
C922 C916 1.428 . S
C922 N921 1.351 . S
C922 C923 1.434 . S
C923 C914 1.429 . S
C923 N920 1.350 . S
C923 C922 1.434 . S
C924 C925 1.369 . S
C924 C926 1.419 . S
C924 H928 0.930 . S
C925 C924 1.369 . S
C925 C934 1.429 1_556 S
C926 C924 1.419 . S
C926 C927 1.363 . S
C926 H929 0.929 . S
C927 C926 1.363 . S
C927 C933 1.428 . S
H928 C924 0.930 . S
H929 C926 0.929 . S
S930 N931 1.613 . S
S930 N932 1.611 1_554 S
N931 S930 1.613 . S
N931 C934 1.350 . S
N932 S930 1.611 1_556 S
N932 C933 1.351 . S
C933 C927 1.428 . S
C933 N932 1.351 . S
C933 C934 1.434 1_556 S
C934 C925 1.429 1_554 S
C934 N931 1.350 . S
C934 C933 1.434 1_554 S
C935 C936 1.369 . S
C935 C937 1.419 . S
C935 H939 0.930 1_655 S
C936 C935 1.369 . S
C936 C945 1.429 . S
C937 C935 1.419 . S
C937 C938 1.363 . S
C937 H940 0.929 . S
C938 C937 1.363 . S
C938 C944 1.428 . S
H939 C935 0.930 1_455 S
H940 C937 0.929 . S
S941 N942 1.613 . S
S941 N943 1.610 . S
N942 S941 1.613 . S
N942 C945 1.350 . S
N943 S941 1.610 . S
N943 C944 1.351 . S
C944 C938 1.428 . S
C944 N943 1.351 . S
C944 C945 1.434 . S
C945 C936 1.429 . S
C945 N942 1.350 . S
C945 C944 1.434 . S
C946 C947 1.369 . S
C946 C948 1.419 . S
C946 H950 0.930 . S
C947 C946 1.369 . S
C947 C956 1.429 . S
C948 C946 1.419 . S
C948 C949 1.363 . S
C948 H951 0.929 1_556 S
C949 C948 1.363 . S
C949 C955 1.428 . S
H950 C946 0.930 . S
H951 C948 0.929 1_554 S
S952 N953 1.613 . S
S952 N954 1.610 . S
N953 S952 1.613 . S
N953 C956 1.350 . S
N954 S952 1.610 . S
N954 C955 1.351 . S
C955 C949 1.428 . S
C955 N954 1.351 . S
C955 C956 1.434 . S
C956 C947 1.429 . S
C956 N953 1.350 . S
C956 C955 1.434 . S
C957 C958 1.370 1_455 S
C957 C959 1.378 1_455 S
C957 H961 0.973 . S
C958 C957 1.370 1_655 S
C958 C967 1.444 . S
C959 C957 1.378 1_655 S
C959 C960 1.363 . S
C959 H962 0.929 . S
C960 C959 1.363 . S
C960 C966 1.428 . S
H961 C957 0.973 . S
H962 C959 0.929 . S
S963 N964 1.613 . S
S963 N965 1.610 1_554 S
N964 S963 1.613 . S
N964 C967 1.350 1_554 S
N965 S963 1.610 1_556 S
N965 C966 1.351 . S
C966 C960 1.428 . S
C966 N965 1.351 . S
C966 C967 1.434 . S
C967 C958 1.444 . S
C967 N964 1.350 1_556 S
C967 C966 1.434 . S
C968 C969 1.369 . S
C968 C970 1.419 . S
C968 H972 0.930 . S
C969 C968 1.369 . S
C969 C978 1.429 . S
C970 C968 1.419 . S
C970 C971 1.363 . S
C970 H973 0.929 . S
C971 C970 1.363 . S
C971 C977 1.428 . S
H972 C968 0.930 . S
H973 C970 0.929 . S
S974 N975 1.613 . S
S974 N976 1.610 1_554 S
N975 S974 1.613 . S
N975 C978 1.350 1_554 S
N976 S974 1.610 1_556 S
N976 C977 1.351 . S
C977 C971 1.428 . S
C977 N976 1.351 . S
C977 C978 1.434 . S
C978 C969 1.429 . S
C978 N975 1.350 1_556 S
C978 C977 1.434 . S
C979 C980 1.369 . S
C979 C981 1.419 . S
C979 H983 0.930 . S
C980 C979 1.369 . S
C980 C989 1.429 . S
C981 C979 1.419 . S
C981 C982 1.363 . S
C981 H984 0.929 1_556 S
C982 C981 1.363 . S
C982 C988 1.428 . S
H983 C979 0.930 . S
H984 C981 0.929 1_554 S
S985 N986 1.613 . S
S985 N987 1.610 . S
N986 S985 1.613 . S
N986 C989 1.350 . S
N987 S985 1.610 . S
N987 C988 1.351 . S
C988 C982 1.428 . S
C988 N987 1.351 . S
C988 C989 1.434 . S
C989 C980 1.429 . S
C989 N986 1.350 . S
C989 C988 1.434 . S
C990 C991 1.369 1_545 S
C990 C992 1.419 . S
C990 H994 0.930 . S
C991 C990 1.369 1_565 S
C991 C1000 1.429 . S
C992 C990 1.419 . S
C992 C993 1.353 1_545 S
C992 H995 0.929 . S
C993 C992 1.353 1_565 S
C993 C999 1.461 . S
H994 C990 0.930 . S
H995 C992 0.929 . S
S996 N997 1.613 . S
S996 N998 1.610 . S
N997 S996 1.613 . S
N997 C1000 1.350 . S
N998 S996 1.610 . S
N998 C999 1.351 . S
C999 C993 1.461 . S
C999 N998 1.351 . S
C999 C1000 1.434 . S
C1000 C991 1.429 . S
C1000 N997 1.350 . S
C1000 C999 1.434 . S
C1001 C1002 1.369 . S
C1001 C1003 1.419 . S
C1001 H1005 0.930 . S
C1002 C1001 1.369 . S
C1002 C1011 1.429 . S
C1003 C1001 1.419 . S
C1003 C1004 1.363 . S
C1003 H1006 0.929 . S
C1004 C1003 1.363 . S
C1004 C1010 1.428 . S
H1005 C1001 0.930 . S
H1006 C1003 0.929 . S
S1007 N1008 1.613 . S
S1007 N1009 1.610 . S
N1008 S1007 1.613 . S
N1008 C1011 1.350 . S
N1009 S1007 1.610 . S
N1009 C1010 1.351 . S
C1010 C1004 1.428 . S
C1010 N1009 1.351 . S
C1010 C1011 1.434 . S
C1011 C1002 1.429 . S
C1011 N1008 1.350 . S
C1011 C1010 1.434 . S
C1012 C1013 1.369 . S
C1012 C1014 1.419 . S
C1012 H1016 0.930 . S
C1013 C1012 1.369 . S
C1013 C1022 1.429 . S
C1014 C1012 1.419 . S
C1014 C1015 1.363 . S
C1014 H1017 0.929 . S
C1015 C1014 1.363 . S
C1015 C1021 1.428 . S
H1016 C1012 0.930 . S
H1017 C1014 0.929 . S
S1018 N1019 1.613 . S
S1018 N1020 1.610 . S
N1019 S1018 1.613 . S
N1019 C1022 1.350 . S
N1020 S1018 1.610 . S
N1020 C1021 1.351 . S
C1021 C1015 1.428 . S
C1021 N1020 1.351 . S
C1021 C1022 1.434 . S
C1022 C1013 1.429 . S
C1022 N1019 1.350 . S
C1022 C1021 1.434 . S
C1023 C1024 1.369 . S
C1023 C1025 1.419 . S
C1023 H1027 0.930 . S
C1024 C1023 1.369 . S
C1024 C1033 1.429 . S
C1025 C1023 1.419 . S
C1025 C1026 1.363 . S
C1025 H1028 0.929 . S
C1026 C1025 1.363 . S
C1026 C1032 1.428 . S
H1027 C1023 0.930 . S
H1028 C1025 0.929 . S
S1029 N1030 1.613 . S
S1029 N1031 1.610 . S
N1030 S1029 1.613 . S
N1030 C1033 1.350 . S
N1031 S1029 1.610 . S
N1031 C1032 1.351 . S
C1032 C1026 1.428 . S
C1032 N1031 1.351 . S
C1032 C1033 1.434 . S
C1033 C1024 1.429 . S
C1033 N1030 1.350 . S
C1033 C1032 1.434 . S
C1034 C1035 1.369 . S
C1034 C1036 1.419 . S
C1034 H1038 0.930 . S
C1035 C1034 1.369 . S
C1035 C1044 1.429 . S
C1036 C1034 1.419 . S
C1036 C1037 1.363 . S
C1036 H1039 0.929 . S
C1037 C1036 1.363 . S
C1037 C1043 1.428 . S
H1038 C1034 0.930 . S
H1039 C1036 0.929 . S
S1040 N1041 1.613 . S
S1040 N1042 1.610 . S
N1041 S1040 1.613 . S
N1041 C1044 1.350 . S
N1042 S1040 1.610 . S
N1042 C1043 1.351 . S
C1043 C1037 1.428 . S
C1043 N1042 1.351 . S
C1043 C1044 1.434 . S
C1044 C1035 1.429 . S
C1044 N1041 1.350 . S
C1044 C1043 1.434 . S
C1045 C1046 1.369 . S
C1045 C1047 1.419 . S
C1045 H1049 0.930 . S
C1046 C1045 1.369 . S
C1046 C1055 1.429 . S
C1047 C1045 1.419 . S
C1047 C1048 1.363 . S
C1047 H1050 0.929 . S
C1048 C1047 1.363 . S
C1048 C1054 1.428 . S
H1049 C1045 0.930 . S
H1050 C1047 0.929 . S
S1051 N1052 1.613 . S
S1051 N1053 1.610 . S
N1052 S1051 1.613 . S
N1052 C1055 1.350 . S
N1053 S1051 1.610 . S
N1053 C1054 1.351 . S
C1054 C1048 1.428 . S
C1054 N1053 1.351 . S
C1054 C1055 1.434 . S
C1055 C1046 1.429 . S
C1055 N1052 1.350 . S
C1055 C1054 1.434 . S
C1056 C1057 1.369 . S
C1056 C1058 1.419 . S
C1056 H1060 0.930 . S
C1057 C1056 1.369 . S
C1057 C1066 1.429 . S
C1058 C1056 1.419 . S
C1058 C1059 1.363 . S
C1058 H1061 0.929 . S
C1059 C1058 1.363 . S
C1059 C1065 1.428 . S
H1060 C1056 0.930 . S
H1061 C1058 0.929 . S
S1062 N1063 1.613 . S
S1062 N1064 1.610 . S
N1063 S1062 1.613 . S
N1063 C1066 1.350 . S
N1064 S1062 1.610 . S
N1064 C1065 1.351 . S
C1065 C1059 1.428 . S
C1065 N1064 1.351 . S
C1065 C1066 1.434 . S
C1066 C1057 1.429 . S
C1066 N1063 1.350 . S
C1066 C1065 1.434 . S
C1067 C1068 1.369 . S
C1067 C1069 1.419 . S
C1067 H1071 0.930 . S
C1068 C1067 1.369 . S
C1068 C1077 1.429 . S
C1069 C1067 1.419 . S
C1069 C1070 1.363 . S
C1069 H1072 0.929 . S
C1070 C1069 1.363 . S
C1070 C1076 1.428 . S
H1071 C1067 0.930 . S
H1072 C1069 0.929 . S
S1073 N1074 1.613 . S
S1073 N1075 1.610 . S
N1074 S1073 1.613 . S
N1074 C1077 1.350 . S
N1075 S1073 1.610 . S
N1075 C1076 1.351 . S
C1076 C1070 1.428 . S
C1076 N1075 1.351 . S
C1076 C1077 1.434 . S
C1077 C1068 1.429 . S
C1077 N1074 1.350 . S
C1077 C1076 1.434 . S
C1078 C1079 1.369 . S
C1078 C1080 1.419 . S
C1078 H1082 0.930 . S
C1079 C1078 1.369 . S
C1079 C1088 1.429 . S
C1080 C1078 1.419 . S
C1080 C1081 1.363 . S
C1080 H1083 0.929 . S
C1081 C1080 1.363 . S
C1081 C1087 1.428 . S
H1082 C1078 0.930 . S
H1083 C1080 0.929 . S
S1084 N1085 1.613 . S
S1084 N1086 1.610 . S
N1085 S1084 1.613 . S
N1085 C1088 1.350 . S
N1086 S1084 1.610 . S
N1086 C1087 1.351 . S
C1087 C1081 1.428 . S
C1087 N1086 1.351 . S
C1087 C1088 1.434 . S
C1088 C1079 1.429 . S
C1088 N1085 1.350 . S
C1088 C1087 1.434 . S
C595 N5 1.630 . S
C597 N14 1.632 . S
C606 N47 1.650 . S
C608 N38 1.649 . S
C617 N71 1.649 . S
C619 N80 1.651 . S
C628 N113 1.631 . S
C630 N104 1.637 . S
C639 N146 1.643 . S
C641 N137 1.643 . S
C650 N179 1.649 . S
C652 N170 1.655 . S
C661 N203 1.620 . S
C663 N212 1.620 1_556 S
C672 N236 1.635 . S
C674 N245 1.635 1_556 S
C683 N269 1.649 . S
C685 N278 1.643 1_556 S
C694 N311 1.623 1_566 S
C696 N302 1.620 . S
C705 N335 1.633 . S
C707 N344 1.633 1_556 S
C716 N368 1.652 . S
C718 N377 1.645 1_556 S
C727 N401 1.627 . S
C729 N410 1.622 . S
C738 N443 1.629 . S
C740 N434 1.636 1_554 S
C749 N476 1.636 1_554 S
C751 N467 1.640 . S
C760 N500 1.622 . S
C762 N509 1.618 . S
C771 N533 1.641 . S
C773 N542 1.636 . S
C782 N575 1.640 . S
C784 N566 1.638 1_554 S
C793 C116 1.346 . S
C795 C17 1.348 . S
C804 C149 1.393 . S
C806 C50 1.397 . S
C815 C182 1.390 . S
C817 C83 1.394 . S
C826 C215 1.313 . S
C828 C314 1.312 . S
C837 C347 1.339 . S
C839 C248 1.340 . S
C848 C380 1.335 . S
C850 C281 1.347 . S
C859 C512 1.340 . S
C861 C413 1.335 . S
C870 C446 1.406 . S
C872 C545 1.405 . S
C881 C479 1.405 . S
C883 C578 1.401 . S
C892 C272 1.042 . S
C894 C8 1.078 . S
C903 C206 1.114 . S
C905 C61 1.065 . S
C914 C74 1.074 . S
C916 C239 1.071 . S
C925 C94 1.067 1_556 S
C927 C404 1.138 . S
C936 C28 1.123 . S
C938 C457 1.062 . S
C947 C470 1.076 . S
C949 C41 1.082 . S
C958 C107 1.190 1_655 S
C960 C589 1.102 . S
C969 C160 1.042 . S
C971 C523 1.065 . S
C980 C536 1.085 . S
C982 C173 1.083 . S
C991 C305 1.103 . S
C993 C193 1.032 1_565 S
C1002 C127 1.066 . S
C1004 C338 1.064 . S
C1013 C140 1.078 . S
C1015 C371 1.076 . S
C1024 C226 1.063 . S
C1026 C490 1.022 . S
C1035 C259 1.031 . S
C1037 C424 1.043 . S
C1046 C292 1.045 . S
C1048 C437 1.060 1_455 S
C1057 C503 1.078 . S
C1059 C391 1.037 . S
C1068 C556 1.021 . S
C1070 C325 1.066 . S
C1079 C569 1.060 . S
C1081 C358 1.037 . S
