# Generated by pormake.
# Topology fcs, (5)-cn, num edge types: 1
# Building blocks:
#     Node 0, Type 0, BuildingBlock: BEQFEK_clean_sbu_0, # of connection points: 5
#     Node 1, Type 0, BuildingBlock: BEQFEK_clean_sbu_0, # of connection points: 5
#     Node 2, Type 0, BuildingBlock: BEQFEK_clean_sbu_0, # of connection points: 5
#     Node 3, Type 0, BuildingBlock: BEQFEK_clean_sbu_0, # of connection points: 5
#     Node 4, Type 0, BuildingBlock: BEQFEK_clean_sbu_0, # of connection points: 5
#     Node 5, Type 0, BuildingBlock: BEQFEK_clean_sbu_0, # of connection points: 5
#     Node 6, Type 0, BuildingBlock: BEQFEK_clean_sbu_0, # of connection points: 5
#     Node 7, Type 0, BuildingBlock: BEQFEK_clean_sbu_0, # of connection points: 5
#     Node 8, Type 0, BuildingBlock: BEQFEK_clean_sbu_0, # of connection points: 5
#     Node 9, Type 0, BuildingBlock: BEQFEK_clean_sbu_0, # of connection points: 5
#     Node 10, Type 0, BuildingBlock: BEQFEK_clean_sbu_0, # of connection points: 5
#     Node 11, Type 0, BuildingBlock: BEQFEK_clean_sbu_0, # of connection points: 5
#     Node 12, Type 0, BuildingBlock: BEQFEK_clean_sbu_0, # of connection points: 5
#     Node 13, Type 0, BuildingBlock: BEQFEK_clean_sbu_0, # of connection points: 5
#     Node 14, Type 0, BuildingBlock: BEQFEK_clean_sbu_0, # of connection points: 5
#     Node 15, Type 0, BuildingBlock: BEQFEK_clean_sbu_0, # of connection points: 5
#     Node 16, Type 0, BuildingBlock: BEQFEK_clean_sbu_0, # of connection points: 5
#     Node 17, Type 0, BuildingBlock: BEQFEK_clean_sbu_0, # of connection points: 5
#     Node 18, Type 0, BuildingBlock: BEQFEK_clean_sbu_0, # of connection points: 5
#     Node 19, Type 0, BuildingBlock: BEQFEK_clean_sbu_0, # of connection points: 5
#     Node 20, Type 0, BuildingBlock: BEQFEK_clean_sbu_0, # of connection points: 5
#     Node 21, Type 0, BuildingBlock: BEQFEK_clean_sbu_0, # of connection points: 5
#     Node 22, Type 0, BuildingBlock: BEQFEK_clean_sbu_0, # of connection points: 5
#     Node 23, Type 0, BuildingBlock: BEQFEK_clean_sbu_0, # of connection points: 5
#     Node 24, Type 0, BuildingBlock: BEQFEK_clean_sbu_0, # of connection points: 5
#     Node 25, Type 0, BuildingBlock: BEQFEK_clean_sbu_0, # of connection points: 5
#     Node 26, Type 0, BuildingBlock: BEQFEK_clean_sbu_0, # of connection points: 5
#     Node 27, Type 0, BuildingBlock: BEQFEK_clean_sbu_0, # of connection points: 5
#     Node 28, Type 0, BuildingBlock: BEQFEK_clean_sbu_0, # of connection points: 5
#     Node 29, Type 0, BuildingBlock: BEQFEK_clean_sbu_0, # of connection points: 5
#     Node 30, Type 0, BuildingBlock: BEQFEK_clean_sbu_0, # of connection points: 5
#     Node 31, Type 0, BuildingBlock: BEQFEK_clean_sbu_0, # of connection points: 5
#     Node 32, Type 0, BuildingBlock: BEQFEK_clean_sbu_0, # of connection points: 5
#     Node 33, Type 0, BuildingBlock: BEQFEK_clean_sbu_0, # of connection points: 5
#     Node 34, Type 0, BuildingBlock: BEQFEK_clean_sbu_0, # of connection points: 5
#     Node 35, Type 0, BuildingBlock: BEQFEK_clean_sbu_0, # of connection points: 5
#     Node 36, Type 0, BuildingBlock: BEQFEK_clean_sbu_0, # of connection points: 5
#     Node 37, Type 0, BuildingBlock: BEQFEK_clean_sbu_0, # of connection points: 5
#     Node 38, Type 0, BuildingBlock: BEQFEK_clean_sbu_0, # of connection points: 5
#     Node 39, Type 0, BuildingBlock: BEQFEK_clean_sbu_0, # of connection points: 5
#     Node 40, Type 0, BuildingBlock: BEQFEK_clean_sbu_0, # of connection points: 5
#     Node 41, Type 0, BuildingBlock: BEQFEK_clean_sbu_0, # of connection points: 5
#     Node 42, Type 0, BuildingBlock: BEQFEK_clean_sbu_0, # of connection points: 5
#     Node 43, Type 0, BuildingBlock: BEQFEK_clean_sbu_0, # of connection points: 5
#     Node 44, Type 0, BuildingBlock: BEQFEK_clean_sbu_0, # of connection points: 5
#     Node 45, Type 0, BuildingBlock: BEQFEK_clean_sbu_0, # of connection points: 5
#     Node 46, Type 0, BuildingBlock: BEQFEK_clean_sbu_0, # of connection points: 5
#     Node 47, Type 0, BuildingBlock: BEQFEK_clean_sbu_0, # of connection points: 5
#     Edge 48, Type (0, 0), None
#     Edge 49, Type (0, 0), None
#     Edge 50, Type (0, 0), None
#     Edge 51, Type (0, 0), None
#     Edge 52, Type (0, 0), None
#     Edge 53, Type (0, 0), None
#     Edge 54, Type (0, 0), None
#     Edge 55, Type (0, 0), None
#     Edge 56, Type (0, 0), None
#     Edge 57, Type (0, 0), None
#     Edge 58, Type (0, 0), None
#     Edge 59, Type (0, 0), None
#     Edge 60, Type (0, 0), None
#     Edge 61, Type (0, 0), None
#     Edge 62, Type (0, 0), None
#     Edge 63, Type (0, 0), None
#     Edge 64, Type (0, 0), None
#     Edge 65, Type (0, 0), None
#     Edge 66, Type (0, 0), None
#     Edge 67, Type (0, 0), None
#     Edge 68, Type (0, 0), None
#     Edge 69, Type (0, 0), None
#     Edge 70, Type (0, 0), None
#     Edge 71, Type (0, 0), None
#     Edge 72, Type (0, 0), None
#     Edge 73, Type (0, 0), None
#     Edge 74, Type (0, 0), None
#     Edge 75, Type (0, 0), None
#     Edge 76, Type (0, 0), None
#     Edge 77, Type (0, 0), None
#     Edge 78, Type (0, 0), None
#     Edge 79, Type (0, 0), None
#     Edge 80, Type (0, 0), None
#     Edge 81, Type (0, 0), None
#     Edge 82, Type (0, 0), None
#     Edge 83, Type (0, 0), None
#     Edge 84, Type (0, 0), None
#     Edge 85, Type (0, 0), None
#     Edge 86, Type (0, 0), None
#     Edge 87, Type (0, 0), None
#     Edge 88, Type (0, 0), None
#     Edge 89, Type (0, 0), None
#     Edge 90, Type (0, 0), None
#     Edge 91, Type (0, 0), None
#     Edge 92, Type (0, 0), None
#     Edge 93, Type (0, 0), None
#     Edge 94, Type (0, 0), None
#     Edge 95, Type (0, 0), None
#     Edge 96, Type (0, 0), None
#     Edge 97, Type (0, 0), None
#     Edge 98, Type (0, 0), None
#     Edge 99, Type (0, 0), None
#     Edge 100, Type (0, 0), None
#     Edge 101, Type (0, 0), None
#     Edge 102, Type (0, 0), None
#     Edge 103, Type (0, 0), None
#     Edge 104, Type (0, 0), None
#     Edge 105, Type (0, 0), None
#     Edge 106, Type (0, 0), None
#     Edge 107, Type (0, 0), None
#     Edge 108, Type (0, 0), None
#     Edge 109, Type (0, 0), None
#     Edge 110, Type (0, 0), None
#     Edge 111, Type (0, 0), None
#     Edge 112, Type (0, 0), None
#     Edge 113, Type (0, 0), None
#     Edge 114, Type (0, 0), None
#     Edge 115, Type (0, 0), None
#     Edge 116, Type (0, 0), None
#     Edge 117, Type (0, 0), None
#     Edge 118, Type (0, 0), None
#     Edge 119, Type (0, 0), None
#     Edge 120, Type (0, 0), None
#     Edge 121, Type (0, 0), None
#     Edge 122, Type (0, 0), None
#     Edge 123, Type (0, 0), None
#     Edge 124, Type (0, 0), None
#     Edge 125, Type (0, 0), None
#     Edge 126, Type (0, 0), None
#     Edge 127, Type (0, 0), None
#     Edge 128, Type (0, 0), None
#     Edge 129, Type (0, 0), None
#     Edge 130, Type (0, 0), None
#     Edge 131, Type (0, 0), None
#     Edge 132, Type (0, 0), None
#     Edge 133, Type (0, 0), None
#     Edge 134, Type (0, 0), None
#     Edge 135, Type (0, 0), None
#     Edge 136, Type (0, 0), None
#     Edge 137, Type (0, 0), None
#     Edge 138, Type (0, 0), None
#     Edge 139, Type (0, 0), None
#     Edge 140, Type (0, 0), None
#     Edge 141, Type (0, 0), None
#     Edge 142, Type (0, 0), None
#     Edge 143, Type (0, 0), None
#     Edge 144, Type (0, 0), None
#     Edge 145, Type (0, 0), None
#     Edge 146, Type (0, 0), None
#     Edge 147, Type (0, 0), None
#     Edge 148, Type (0, 0), None
#     Edge 149, Type (0, 0), None
#     Edge 150, Type (0, 0), None
#     Edge 151, Type (0, 0), None
#     Edge 152, Type (0, 0), None
#     Edge 153, Type (0, 0), None
#     Edge 154, Type (0, 0), None
#     Edge 155, Type (0, 0), None
#     Edge 156, Type (0, 0), None
#     Edge 157, Type (0, 0), None
#     Edge 158, Type (0, 0), None
#     Edge 159, Type (0, 0), None
#     Edge 160, Type (0, 0), None
#     Edge 161, Type (0, 0), None
#     Edge 162, Type (0, 0), None
#     Edge 163, Type (0, 0), None
#     Edge 164, Type (0, 0), None
#     Edge 165, Type (0, 0), None
#     Edge 166, Type (0, 0), None
#     Edge 167, Type (0, 0), None
# Relax obj value: 0.296
# Max RMSD: 0.228
# Mean RMSD: 0.228
data_MOF--net-fcs--node1-BEQFEK_clean_sbu_0--edge1-none
_symmetry_space_group_name_H-M    P1
_symmetry_Int_Tables_number       1
_symmetry_cell_setting            triclinic
loop_
_symmetry_equiv_pos_as_xyz
'x, y, z'
_cell_length_a     31.672067
_cell_length_b     31.672567
_cell_length_c     31.673877
_cell_angle_alpha  89.999711
_cell_angle_beta   90.000236
_cell_angle_gamma 89.99935
loop_
_atom_site_label
_atom_site_type_symbol
_atom_site_fract_x
_atom_site_fract_y
_atom_site_fract_z
_atom_type_partial_charge
Co0 Co 0.11678 0.11809 0.25731 0.0
Co1 Co 0.02251 0.13507 0.28626 0.0
C2 C 0.09615 0.14242 0.34544 0.0
O3 O 0.12437 0.13046 0.31922 0.0
O4 O 0.05777 0.14646 0.33493 0.0
C5 C 0.19627 0.07023 0.2285 0.0
O6 O 0.19288 0.03972 0.25633 0.0
C7 C 0.95355 0.12113 0.34513 0.0
C8 C 0.89802 0.14565 0.31174 0.0
C9 C 0.91071 0.12816 0.34989 0.0
N10 N 0.96553 0.13309 0.3062 0.0
N11 N 0.93178 0.14662 0.28581 0.0
C12 C 0.98354 0.10915 0.3797 0.0
H13 H 0.01039 0.09074 0.36684 0.0
H14 H 0.96723 0.09028 0.40432 0.0
H15 H -0.00399 0.13829 0.39465 0.0
C16 C 0.07692 0.03927 0.22942 0.0
N17 N 0.07405 0.07785 0.24649 0.0
N18 N 0.03683 0.08183 0.2644 0.0
C19 C 0.01673 0.04426 0.26301 0.0
C20 C 0.04191 0.01612 0.24117 0.0
C21 C 0.10848 0.02657 0.19653 0.0
H22 H 0.12132 0.05481 0.18031 0.0
H23 H 0.13458 0.00846 0.21076 0.0
H24 H 0.09331 0.00567 0.17281 0.0
O25 O 0.10064 0.17065 0.23 0.0
O26 O 0.03281 0.18272 0.24426 0.0
H27 H 0.95108 0.05552 0.27429 0.0
H28 H 0.96669 0.00101 0.28052 0.0
C29 C 0.97647 0.03425 0.28559 0.0
H30 H 0.9808 0.03933 0.31988 0.0
H31 H 0.93228 0.15886 0.25522 0.0
O32 O 0.17011 0.10085 0.22821 0.0
C33 C 0.06753 0.19295 0.22619 0.0
Co34 Co 0.36806 0.6192 0.97863 0.0
Co35 Co 0.38506 0.71346 0.94965 0.0
C36 C 0.3924 0.63979 0.8905 0.0
O37 O 0.38043 0.61158 0.91673 0.0
O38 O 0.39644 0.67818 0.901 0.0
C39 C 0.32021 0.5397 0.00743 0.0
O40 O 0.28971 0.54307 0.97958 0.0
C41 C 0.37113 0.78239 0.89075 0.0
C42 C 0.39566 0.83793 0.92411 0.0
C43 C 0.37815 0.82522 0.88596 0.0
N44 N 0.38309 0.77043 0.92968 0.0
N45 N 0.39663 0.80418 0.95005 0.0
C46 C 0.35913 0.75238 0.8562 0.0
H47 H 0.34072 0.72555 0.86907 0.0
H48 H 0.34026 0.76868 0.83157 0.0
H49 H 0.38827 0.7399 0.84125 0.0
C50 C 0.28924 0.65907 0.00649 0.0
N51 N 0.32784 0.66194 0.98944 0.0
N52 N 0.33182 0.69915 0.97152 0.0
C53 C 0.29425 0.71925 0.97289 0.0
C54 C 0.2661 0.69407 -0.00529 0.0
C55 C 0.27651 0.6275 0.03936 0.0
H56 H 0.30474 0.61467 0.05561 0.0
H57 H 0.25843 0.6014 0.0251 0.0
H58 H 0.25558 0.64267 0.06305 0.0
O59 O 0.42063 0.63534 0.00594 0.0
O60 O 0.43272 0.70315 0.99164 0.0
H61 H 0.30554 0.78489 0.96156 0.0
H62 H 0.25102 0.76931 0.95537 0.0
C63 C 0.28424 0.75951 0.95029 0.0
H64 H 0.2893 0.75516 0.91599 0.0
H65 H 0.40888 0.8037 0.98064 0.0
O66 O 0.35081 0.56587 0.00774 0.0
C67 C 0.44294 0.66844 0.00973 0.0
Co68 Co 0.86921 0.36778 0.25719 0.0
Co69 Co 0.96347 0.35076 0.28615 0.0
C70 C 0.88982 0.34346 0.34533 0.0
O71 O 0.8616 0.35543 0.31911 0.0
O72 O 0.9282 0.3394 0.33482 0.0
C73 C 0.7897 0.41563 0.22839 0.0
O74 O 0.79308 0.44613 0.25624 0.0
C75 C 0.03241 0.36471 0.34504 0.0
C76 C 0.08795 0.34014 0.3117 0.0
C77 C 0.07524 0.35768 0.34984 0.0
N78 N 0.02044 0.35272 0.30612 0.0
N79 N 0.0542 0.33915 0.28576 0.0
C80 C 0.0024 0.37675 0.37958 0.0
H81 H 0.97557 0.39515 0.36669 0.0
H82 H 0.0187 0.39565 0.40419 0.0
H83 H 0.98992 0.34763 0.39457 0.0
C84 C 0.9091 0.44658 0.2293 0.0
N85 N 0.91196 0.40799 0.24636 0.0
N86 N 0.94917 0.404 0.26427 0.0
C87 C 0.96929 0.44156 0.26287 0.0
C88 C 0.94412 0.46971 0.24105 0.0
C89 C 0.87751 0.45932 0.19645 0.0
H90 H 0.86466 0.43109 0.18021 0.0
H91 H 0.85142 0.4774 0.21073 0.0
H92 H 0.89267 0.48025 0.17275 0.0
O93 O 0.88534 0.3152 0.22989 0.0
O94 O 0.95316 0.30309 0.24417 0.0
H95 H 0.03493 0.43023 0.27418 0.0
H96 H 0.01939 0.48477 0.28033 0.0
C97 C 0.00957 0.45155 0.28545 0.0
H98 H 0.00523 0.44653 0.31975 0.0
H99 H 0.05371 0.32689 0.25518 0.0
O100 O 0.81588 0.38502 0.22809 0.0
C101 C 0.91843 0.29288 0.2261 0.0
Co102 Co 0.61777 0.86674 0.97856 0.0
Co103 Co 0.6008 0.77246 0.94967 0.0
C104 C 0.59347 0.84606 0.89044 0.0
O105 O 0.60543 0.87431 0.91664 0.0
O106 O 0.58943 0.80769 0.90098 0.0
C107 C 0.66561 0.94626 0.00733 0.0
O108 O 0.69612 0.94286 0.9795 0.0
C109 C 0.61478 0.70349 0.89082 0.0
C110 C 0.59016 0.64798 0.92417 0.0
C111 C 0.60771 0.66067 0.88604 0.0
N112 N 0.60278 0.71548 0.92974 0.0
N113 N 0.58919 0.68174 0.95011 0.0
C114 C 0.62685 0.73348 0.85628 0.0
H115 H 0.64523 0.76032 0.86918 0.0
H116 H 0.64577 0.71716 0.8317 0.0
H117 H 0.59774 0.74595 0.84126 0.0
C118 C 0.69658 0.82689 0.00653 0.0
N119 N 0.658 0.82402 0.98943 0.0
N120 N 0.65403 0.78678 0.97155 0.0
C121 C 0.69159 0.76667 0.973 0.0
C122 C 0.71972 0.79186 -0.00517 0.0
C123 C 0.70927 0.85849 0.03938 0.0
H124 H 0.68103 0.87134 0.05559 0.0
H125 H 0.72736 0.88457 0.02511 0.0
H126 H 0.73018 0.84335 0.06311 0.0
O127 O 0.5652 0.85061 0.00586 0.0
O128 O 0.55313 0.78278 0.99164 0.0
H129 H 0.68027 0.70102 0.96176 0.0
H130 H 0.73482 0.71656 0.95563 0.0
C131 C 0.7016 0.72637 0.95048 0.0
H132 H 0.6966 0.73067 0.91617 0.0
H133 H 0.57691 0.68224 0.98067 0.0
O134 O 0.63499 0.92009 0.00764 0.0
C135 C 0.5429 0.81751 0.00968 0.0
Co136 Co 0.11672 0.86797 0.22865 0.0
Co137 Co 0.02246 0.85092 0.1997 0.0
C138 C 0.09612 0.84348 0.14055 0.0
O139 O 0.12434 0.85549 0.16676 0.0
O140 O 0.05774 0.83945 0.15106 0.0
C141 C 0.19628 0.91578 0.25744 0.0
O142 O 0.19299 0.94626 0.22956 0.0
C143 C 0.95353 0.86475 0.14076 0.0
C144 C 0.89796 0.8404 0.17421 0.0
C145 C 0.91068 0.8578 0.13601 0.0
N146 N 0.96549 0.85287 0.17972 0.0
N147 N 0.93172 0.83943 0.20014 0.0
C148 C 0.98354 0.87662 0.10617 0.0
H149 H 0.01038 0.89507 0.11898 0.0
H150 H 0.96725 0.89542 0.08147 0.0
H151 H -0.00398 0.84744 0.09132 0.0
C152 C 0.07693 0.94693 0.25618 0.0
N153 N 0.074 0.90824 0.23934 0.0
N154 N 0.03677 0.90422 0.22144 0.0
C155 C 0.01671 0.94182 0.22263 0.0
C156 C 0.04197 0.97004 0.24424 0.0
C157 C 0.10847 0.95975 0.28904 0.0
H158 H 0.12126 0.93157 0.30541 0.0
H159 H 0.1346 0.97774 0.27474 0.0
H160 H 0.0933 0.98079 0.31263 0.0
O161 O 0.10056 0.81545 0.25605 0.0
O162 O 0.03274 0.80333 0.24177 0.0
H163 H 0.95106 0.93049 0.21139 0.0
H164 H 0.96664 0.985 0.20504 0.0
C165 C 0.97644 0.95175 0.20003 0.0
H166 H 0.98076 0.94661 0.16575 0.0
H167 H 0.93219 0.82727 0.23075 0.0
O168 O 0.17005 0.88522 0.25775 0.0
C169 C 0.06746 0.79314 0.25987 0.0
Co170 Co 0.11799 0.61917 0.00713 0.0
Co171 Co 0.10088 0.71341 0.03612 0.0
C172 C 0.09352 0.63971 0.09523 0.0
O173 O 0.10555 0.61151 0.06902 0.0
O174 O 0.08945 0.67809 0.08473 0.0
C175 C 0.16583 0.53963 0.9783 0.0
O176 O 0.19629 0.5429 0.00619 0.0
C177 C 0.11463 0.78229 0.09511 0.0
C178 C 0.09027 0.8379 0.06166 0.0
C179 C 0.10758 0.82511 0.09986 0.0
N180 N 0.1028 0.77036 0.05612 0.0
N181 N 0.08937 0.80415 0.03571 0.0
C182 C 0.12649 0.75227 0.1297 0.0
H183 H 0.14499 0.72547 0.11689 0.0
H184 H 0.14524 0.76857 0.15443 0.0
H185 H 0.0973 0.73975 0.1445 0.0
C186 C 0.19693 0.65903 0.97962 0.0
N187 N 0.15824 0.66193 -0.00356 0.0
N188 N 0.15418 0.69914 0.01436 0.0
C189 C 0.19177 0.71923 0.01319 0.0
C190 C 0.22002 0.694 0.99159 0.0
C191 C 0.2098 0.62749 0.94678 0.0
H192 H 0.18164 0.6147 0.93037 0.0
H193 H 0.22777 0.60136 0.9611 0.0
H194 H 0.23087 0.64266 0.92321 0.0
O195 O 0.06545 0.63531 0.97977 0.0
O196 O 0.05329 0.70312 -0.00594 0.0
H197 H 0.1804 0.78487 0.02447 0.0
H198 H 0.23491 0.7693 0.03085 0.0
C199 C 0.20167 0.75949 0.03582 0.0
H200 H 0.1965 0.75514 0.0701 0.0
H201 H 0.07727 0.80369 0.00507 0.0
O202 O 0.13527 0.56587 0.97799 0.0
C203 C 0.04312 0.6684 0.97596 0.0
Co204 Co 0.86927 0.61785 0.22877 0.0
Co205 Co 0.96349 0.63495 0.19973 0.0
C206 C 0.88976 0.64239 0.14067 0.0
O207 O 0.86157 0.63035 0.1669 0.0
O208 O 0.92815 0.64643 0.15115 0.0
C209 C 0.78973 0.57001 0.25758 0.0
O210 O 0.793 0.53957 0.22966 0.0
C211 C 0.03234 0.62121 0.14069 0.0
C212 C 0.08798 0.6455 0.17413 0.0
C213 C 0.07516 0.62823 0.13592 0.0
N214 N 0.02043 0.63303 0.17969 0.0
N215 N 0.05424 0.64641 0.2001 0.0
C216 C 0.00229 0.6094 0.10611 0.0
H217 H 0.97549 0.59089 0.11892 0.0
H218 H 0.01857 0.59067 0.08135 0.0
H219 H 0.98977 0.6386 0.09134 0.0
C220 C 0.9091 0.53888 0.25619 0.0
N221 N 0.91202 0.57759 0.2394 0.0
N222 N 0.94922 0.58164 0.22146 0.0
C223 C 0.96929 0.54404 0.22259 0.0
C224 C 0.94405 0.51578 0.24418 0.0
C225 C 0.87759 0.52601 0.28905 0.0
H226 H 0.86481 0.55416 0.30548 0.0
H227 H 0.85145 0.50804 0.27474 0.0
H228 H 0.89278 0.50493 0.3126 0.0
O229 O 0.88544 0.67037 0.25617 0.0
O230 O 0.95323 0.68253 0.24182 0.0
H231 H 0.03492 0.55538 0.21127 0.0
H232 H 0.01933 0.50088 0.20486 0.0
C233 C 0.00953 0.53414 0.19992 0.0
H234 H 0.00517 0.53934 0.16565 0.0
H235 H 0.05381 0.65849 0.23075 0.0
O236 O 0.81597 0.60057 0.25791 0.0
C237 C 0.91853 0.69269 0.25996 0.0
Co238 Co 0.86786 0.86671 0.0072 0.0
Co239 Co 0.88494 0.7725 0.03628 0.0
C240 C 0.89234 0.84624 0.09533 0.0
O241 O 0.88033 0.87441 0.06908 0.0
O242 O 0.89641 0.80784 0.08489 0.0
C243 C 0.82 0.94622 0.97836 0.0
O244 O 0.78954 0.94294 0.00626 0.0
C245 C 0.87123 0.70361 0.09528 0.0
C246 C 0.89549 0.648 0.06178 0.0
C247 C 0.87825 0.66079 0.10001 0.0
N248 N 0.88302 0.71555 0.05629 0.0
N249 N 0.89639 0.68176 0.03584 0.0
C250 C 0.85944 0.73363 0.1299 0.0
H251 H 0.84092 0.76044 0.11713 0.0
H252 H 0.84074 0.71733 0.15466 0.0
H253 H 0.88866 0.74615 0.14465 0.0
C254 C 0.7889 0.82687 0.97974 0.0
N255 N 0.8276 0.82396 -0.00343 0.0
N256 N 0.83164 0.78678 0.01453 0.0
C257 C 0.79404 0.76671 0.01339 0.0
C258 C 0.7658 0.79193 0.99175 0.0
C259 C 0.77606 0.85836 0.94685 0.0
H260 H 0.80423 0.87114 0.93045 0.0
H261 H 0.75807 0.8845 0.96112 0.0
H262 H 0.75501 0.84315 0.92328 0.0
O263 O 0.92037 0.85053 0.9798 0.0
O264 O 0.93252 0.78275 -0.00581 0.0
H265 H 0.80534 0.70107 0.02472 0.0
H266 H 0.75085 0.7167 0.03116 0.0
C267 C 0.78412 0.72648 0.03608 0.0
H268 H 0.78935 0.73085 0.07034 0.0
H269 H 0.90844 0.68223 0.00518 0.0
O270 O 0.85057 0.92 0.97805 0.0
C271 C 0.94269 0.81744 0.97603 0.0
Co272 Co 0.25716 0.11674 0.11807 0.0
Co273 Co 0.28608 0.02247 0.13508 0.0
C274 C 0.34528 0.0961 0.14239 0.0
O275 O 0.31908 0.12433 0.13042 0.0
O276 O 0.33476 0.05772 0.14645 0.0
C277 C 0.22838 0.1963 0.07027 0.0
O278 O 0.25622 0.19295 0.03976 0.0
C279 C 0.34495 0.95351 0.12112 0.0
C280 C 0.31158 0.89798 0.14567 0.0
C281 C 0.34972 0.91067 0.12814 0.0
N282 N 0.30603 0.96549 0.13311 0.0
N283 N 0.28565 0.93174 0.14667 0.0
C284 C 0.37951 0.9835 0.1091 0.0
H285 H 0.36663 0.01034 0.0907 0.0
H286 H 0.40412 0.96719 0.0902 0.0
H287 H 0.39449 -0.00402 0.13822 0.0
C288 C 0.22927 0.07688 0.03925 0.0
N289 N 0.24632 0.07401 0.07784 0.0
N290 N 0.2642 0.03678 0.08184 0.0
C291 C 0.2628 0.01666 0.04428 0.0
C292 C 0.24101 0.04185 0.01612 0.0
C293 C 0.19646 0.1085 0.0265 0.0
H294 H 0.1802 0.12134 0.05471 0.0
H295 H 0.21078 0.13459 0.00846 0.0
H296 H 0.17277 0.09338 0.00552 0.0
O297 O 0.22986 0.10062 0.17064 0.0
O298 O 0.2441 0.03279 0.18274 0.0
H299 H 0.27407 0.95102 0.05562 0.0
H300 H 0.28025 0.96655 0.00108 0.0
C301 C 0.28536 0.97637 0.0343 0.0
H302 H 0.31966 0.98069 0.03933 0.0
H303 H 0.25507 0.93223 0.15893 0.0
O304 O 0.22807 0.17009 0.10085 0.0
C305 C 0.22605 0.06753 0.19296 0.0
Co306 Co 0.36675 0.47877 0.11782 0.0
Co307 Co 0.27248 0.44984 0.10082 0.0
C308 C 0.34612 0.39066 0.09345 0.0
O309 O 0.37435 0.41687 0.10543 0.0
O310 O 0.30775 0.40118 0.08941 0.0
C311 C 0.44629 0.50759 0.16563 0.0
O312 O 0.44293 0.47974 0.19613 0.0
C313 C 0.20354 0.39093 0.11476 0.0
C314 C 0.14799 0.4243 0.09025 0.0
C315 C 0.16071 0.38615 0.10776 0.0
N316 N 0.21551 0.42987 0.10279 0.0
N317 N 0.18174 0.45024 0.08926 0.0
C318 C 0.23355 0.35638 0.12676 0.0
H319 H 0.26039 0.36926 0.14516 0.0
H320 H 0.21726 0.33176 0.14565 0.0
H321 H 0.24603 0.34142 0.09763 0.0
C322 C 0.3269 0.50662 0.19666 0.0
N323 N 0.32403 0.48958 0.15805 0.0
N324 N 0.2868 0.47169 0.15406 0.0
C325 C 0.2667 0.47306 0.19163 0.0
C326 C 0.29189 0.49486 0.21979 0.0
C327 C 0.35849 0.53947 0.20939 0.0
H328 H 0.37132 0.55573 0.18117 0.0
H329 H 0.38459 0.52519 0.22745 0.0
H330 H 0.34334 0.56316 0.23034 0.0
O331 O 0.35061 0.50609 0.06527 0.0
O332 O 0.28278 0.49184 0.05317 0.0
H333 H 0.20105 0.46179 0.18032 0.0
H334 H 0.21661 0.4556 0.23484 0.0
C335 C 0.22642 0.45049 0.20162 0.0
H336 H 0.23074 0.4162 0.19657 0.0
H337 H 0.18223 0.48082 0.07701 0.0
O338 O 0.4201 0.50789 0.13504 0.0
C339 C 0.31751 0.50991 0.04296 0.0
Co340 Co 0.72873 0.36906 0.11804 0.0
Co341 Co 0.6998 0.46333 0.13503 0.0
C342 C 0.64062 0.38969 0.14244 0.0
O343 O 0.66683 0.36146 0.13045 0.0
O344 O 0.65114 0.42807 0.14646 0.0
C345 C 0.75755 0.28954 0.07021 0.0
O346 O 0.72972 0.29292 0.0397 0.0
C347 C 0.6409 0.53228 0.12109 0.0
C348 C 0.6743 0.58783 0.14554 0.0
C349 C 0.63614 0.57512 0.12807 0.0
N350 N 0.67984 0.5203 0.13305 0.0
N351 N 0.70023 0.55407 0.14654 0.0
C352 C 0.60633 0.50227 0.10914 0.0
H353 H 0.61919 0.47543 0.09073 0.0
H354 H 0.58169 0.51857 0.09027 0.0
H355 H 0.5914 0.4898 0.13828 0.0
C356 C 0.75656 0.40891 0.03918 0.0
N357 N 0.73952 0.41178 0.07779 0.0
N358 N 0.72163 0.449 0.08177 0.0
C359 C 0.723 0.46911 0.04421 0.0
C360 C 0.74481 0.44392 0.01605 0.0
C361 C 0.78943 0.37733 0.02646 0.0
H362 H 0.80568 0.36449 0.05468 0.0
H363 H 0.77516 0.35124 0.00837 0.0
H364 H 0.81313 0.3925 0.00552 0.0
O365 O 0.75608 0.38521 0.17057 0.0
O366 O 0.74182 0.45304 0.18266 0.0
H367 H 0.71174 0.53476 0.05551 0.0
H368 H 0.7055 0.51918 0.00099 0.0
C369 C 0.70043 0.50938 0.03422 0.0
H370 H 0.66613 0.50507 0.0393 0.0
H371 H 0.73083 0.55358 0.15876 0.0
O372 O 0.75784 0.31572 0.10082 0.0
C373 C 0.7599 0.41831 0.19288 0.0
Co374 Co 0.61908 0.00719 0.11773 0.0
Co375 Co 0.71336 0.0361 0.10072 0.0
C376 C 0.63973 0.09531 0.0934 0.0
O377 O 0.6115 0.0691 0.10538 0.0
O378 O 0.6781 0.08478 0.08935 0.0
C379 C 0.53954 0.9784 0.16555 0.0
O380 O 0.54292 0.00623 0.19607 0.0
C381 C 0.78232 0.09496 0.11468 0.0
C382 C 0.83786 0.06157 0.09018 0.0
C383 C 0.82516 0.09972 0.10769 0.0
N384 N 0.77034 0.05604 0.1027 0.0
N385 N 0.80409 0.03565 0.08918 0.0
C386 C 0.75233 0.12953 0.12668 0.0
H387 H 0.72548 0.11666 0.14509 0.0
H388 H 0.76863 0.15415 0.14556 0.0
H389 H 0.73985 0.14449 0.09755 0.0
C390 C 0.65895 0.97929 0.19655 0.0
N391 N 0.66182 -0.00365 0.15796 0.0
N392 N 0.69905 0.01423 0.15396 0.0
C393 C 0.71917 0.01282 0.19152 0.0
C394 C 0.69399 0.99101 0.21967 0.0
C395 C 0.62734 0.94646 0.20929 0.0
H396 H 0.61449 0.93021 0.18107 0.0
H397 H 0.60126 0.96076 0.22735 0.0
H398 H 0.64248 0.92276 0.23024 0.0
O399 O 0.63521 0.97987 0.06517 0.0
O400 O 0.70304 -0.00589 0.05307 0.0
H401 H 0.78482 0.02407 0.1802 0.0
H402 H 0.76926 0.03028 0.23473 0.0
C403 C 0.75945 0.03538 0.20151 0.0
H404 H 0.75514 0.06968 0.19645 0.0
H405 H 0.8036 0.00506 0.07693 0.0
O406 O 0.56573 0.9781 0.13496 0.0
C407 C 0.6683 0.97606 0.04285 0.0
Co408 Co 0.25726 0.86914 0.36777 0.0
Co409 Co 0.28626 0.96339 0.35079 0.0
C410 C 0.34539 0.88972 0.34338 0.0
O411 O 0.31916 0.86151 0.35534 0.0
O412 O 0.33491 0.92811 0.33937 0.0
C413 C 0.22846 0.78966 0.41564 0.0
O414 O 0.25631 0.79304 0.44613 0.0
C415 C 0.34518 0.03233 0.3647 0.0
C416 C 0.31177 0.08788 0.34027 0.0
C417 C 0.34994 0.07517 0.35772 0.0
N418 N 0.30623 0.02036 0.35278 0.0
N419 N 0.28583 0.05413 0.33929 0.0
C420 C 0.37975 0.00231 0.37664 0.0
H421 H 0.3669 0.97548 0.39506 0.0
H422 H 0.40441 0.01861 0.39548 0.0
H423 H 0.39465 0.98984 0.34748 0.0
C424 C 0.22943 0.90899 0.44661 0.0
N425 N 0.24649 0.91186 0.40802 0.0
N426 N 0.26442 0.94907 0.40405 0.0
C427 C 0.26306 0.96916 0.44162 0.0
C428 C 0.24122 0.94399 0.46976 0.0
C429 C 0.19653 0.87745 0.45932 0.0
H430 H 0.18029 0.86462 0.43108 0.0
H431 H 0.21075 0.85135 0.47742 0.0
H432 H 0.17282 0.89264 0.48023 0.0
O433 O 0.22989 0.88531 0.31524 0.0
O434 O 0.24422 0.95312 0.30317 0.0
H435 H 0.27437 0.03481 0.43037 0.0
H436 H 0.28063 0.01918 0.48487 0.0
C437 C 0.28567 0.00941 0.45163 0.0
H438 H 0.31996 0.00507 0.44651 0.0
H439 H 0.25523 0.05365 0.32709 0.0
O440 O 0.22815 0.81581 0.38502 0.0
C441 C 0.2261 0.91842 0.29295 0.0
Co442 Co 0.11914 0.47863 0.868 0.0
Co443 Co 0.2134 0.44962 0.88496 0.0
C444 C 0.13973 0.3905 0.89244 0.0
O445 O 0.11152 0.41673 0.88048 0.0
O446 O 0.17812 0.40098 0.89643 0.0
C447 C 0.03964 0.50743 0.82015 0.0
O448 O 0.04301 0.47959 0.78965 0.0
C449 C 0.28234 0.39069 0.87107 0.0
C450 C 0.3379 0.42411 0.89548 0.0
C451 C 0.32518 0.38593 0.87805 0.0
N452 N 0.27037 0.42965 0.88297 0.0
N453 N 0.30414 0.45005 0.89645 0.0
C454 C 0.25232 0.35612 0.85915 0.0
H455 H 0.22548 0.36896 0.84073 0.0
H456 H 0.26861 0.33145 0.84032 0.0
H457 H 0.23985 0.34123 0.88832 0.0
C458 C 0.15898 0.50641 0.78913 0.0
N459 N 0.16185 0.48936 0.82773 0.0
N460 N 0.19906 0.47143 0.8317 0.0
C461 C 0.21915 0.47279 0.79413 0.0
C462 C 0.19397 0.49462 0.76599 0.0
C463 C 0.12743 0.53932 0.77643 0.0
H464 H 0.11461 0.55556 0.80466 0.0
H465 H 0.10133 0.52508 0.75834 0.0
H466 H 0.14262 0.56301 0.75551 0.0
O467 O 0.13534 0.50602 0.92051 0.0
O468 O 0.20315 0.49168 0.93257 0.0
H469 H 0.2848 0.4615 0.80537 0.0
H470 H 0.26917 0.45522 0.75088 0.0
C471 C 0.2594 0.45018 0.78412 0.0
H472 H 0.25508 0.4159 0.78925 0.0
H473 H 0.30366 0.48066 0.90864 0.0
O474 O 0.06581 0.50773 0.85076 0.0
C475 C 0.16845 0.50981 0.94279 0.0
Co476 Co 0.72874 0.61667 0.36789 0.0
Co477 Co 0.69973 0.52241 0.3509 0.0
C478 C 0.64062 0.5961 0.34343 0.0
O479 O 0.66685 0.6243 0.35541 0.0
O480 O 0.6511 0.5577 0.33943 0.0
C481 C 0.75755 0.69617 0.41574 0.0
O482 O 0.72967 0.69283 0.44621 0.0
C483 C 0.64079 0.45349 0.36479 0.0
C484 C 0.67418 0.39793 0.34035 0.0
C485 C 0.63601 0.41065 0.3578 0.0
N486 N 0.67974 0.46545 0.35287 0.0
N487 N 0.70013 0.43168 0.33939 0.0
C488 C 0.60622 0.48351 0.37672 0.0
H489 H 0.61908 0.51036 0.39514 0.0
H490 H 0.58156 0.46723 0.39557 0.0
H491 H 0.59132 0.49599 0.34756 0.0
C492 C 0.75649 0.57682 0.44676 0.0
N493 N 0.73947 0.57394 0.40815 0.0
N494 N 0.72154 0.53674 0.40416 0.0
C495 C 0.72286 0.51665 0.44174 0.0
C496 C 0.74468 0.54183 0.4699 0.0
C497 C 0.78937 0.60837 0.45949 0.0
H498 H 0.80565 0.62118 0.43128 0.0
H499 H 0.77511 0.63448 0.47755 0.0
H500 H 0.81304 0.5932 0.48045 0.0
O501 O 0.75612 0.60048 0.31538 0.0
O502 O 0.74179 0.53267 0.30329 0.0
H503 H 0.71156 0.45101 0.43046 0.0
H504 H 0.7053 0.46662 0.48497 0.0
C505 C 0.70025 0.4764 0.45173 0.0
H506 H 0.66596 0.48074 0.44662 0.0
H507 H 0.73073 0.43215 0.32718 0.0
O508 O 0.75787 0.66999 0.38514 0.0
C509 C 0.75992 0.56737 0.29309 0.0
Co510 Co 0.86663 0.00715 0.86801 0.0
Co511 Co 0.77238 0.03617 0.88501 0.0
C512 C 0.84607 0.09528 0.89241 0.0
O513 O 0.87427 0.06904 0.88043 0.0
O514 O 0.80768 0.08481 0.89643 0.0
C515 C 0.94613 0.97832 0.82017 0.0
O516 O 0.9428 0.00621 0.7897 0.0
C517 C 0.70345 0.09511 0.87111 0.0
C518 C 0.64789 0.06172 0.89556 0.0
C519 C 0.66062 0.09989 0.8781 0.0
N520 N 0.71541 0.05616 0.88303 0.0
N521 N 0.68165 0.03577 0.89653 0.0
C522 C 0.73348 0.12967 0.85917 0.0
H523 H 0.76031 0.11681 0.84075 0.0
H524 H 0.71719 0.15433 0.84032 0.0
H525 H 0.74595 0.14458 0.88832 0.0
C526 C 0.82676 0.97938 0.78916 0.0
N527 N 0.82389 -0.0036 0.82776 0.0
N528 N 0.78669 0.01434 0.83175 0.0
C529 C 0.7666 0.01301 0.79418 0.0
C530 C 0.79177 0.99119 0.76602 0.0
C531 C 0.85832 0.9465 0.77641 0.0
H532 H 0.87113 0.93022 0.80463 0.0
H533 H 0.88443 0.96077 0.75836 0.0
H534 H 0.84315 0.92284 0.75545 0.0
O535 O 0.85045 0.9798 0.92054 0.0
O536 O 0.78264 -0.00586 0.93263 0.0
H537 H 0.70096 0.02434 0.80545 0.0
H538 H 0.71657 0.03059 0.75094 0.0
C539 C 0.72635 0.03564 0.78418 0.0
H540 H 0.73071 0.06992 0.78928 0.0
H541 H 0.68212 0.00518 0.90874 0.0
O542 O 0.91994 0.97801 0.85077 0.0
C543 C 0.81735 0.97602 0.94284 0.0
Co544 Co 0.11805 0.25729 0.11689 0.0
Co545 Co 0.13502 0.28625 0.02264 0.0
C546 C 0.1424 0.34543 0.09627 0.0
O547 O 0.13044 0.3192 0.12449 0.0
O548 O 0.14644 0.33494 0.05789 0.0
C549 C 0.0702 0.22848 0.1964 0.0
O550 O 0.03967 0.25629 0.193 0.0
C551 C 0.12116 0.34512 0.95366 0.0
C552 C 0.14562 0.31162 0.89813 0.0
C553 C 0.12826 0.34982 0.91085 0.0
N554 N 0.13304 0.30616 0.96566 0.0
N555 N 0.14653 0.28572 0.93191 0.0
C556 C 0.10923 0.37973 0.98363 0.0
H557 H 0.09078 0.36691 0.01046 0.0
H558 H 0.09042 0.40438 0.96729 0.0
H559 H 0.13839 0.39462 -0.00389 0.0
C560 C 0.03921 0.2294 0.07704 0.0
N561 N 0.0778 0.24649 0.07418 0.0
N562 N 0.08177 0.2644 0.03697 0.0
C563 C 0.04421 0.26301 0.01686 0.0
C564 C 0.01607 0.24116 0.04203 0.0
C565 C 0.02652 0.19652 0.1086 0.0
H566 H 0.05476 0.1803 0.12144 0.0
H567 H 0.00841 0.21076 0.13469 0.0
H568 H 0.00561 0.1728 0.09343 0.0
O569 O 0.17059 0.22993 0.10074 0.0
O570 O 0.18265 0.24422 0.03292 0.0
H571 H 0.05545 0.27425 0.9512 0.0
H572 H 0.00095 0.28056 0.96684 0.0
C573 C 0.0342 0.28559 0.9766 0.0
H574 H 0.03934 0.31988 0.98091 0.0
H575 H 0.15868 0.2551 0.93243 0.0
O576 O 0.10082 0.2282 0.17023 0.0
C577 C 0.19288 0.22613 0.06763 0.0
Co578 Co 0.118 0.72879 0.36917 0.0
Co579 Co 0.13508 0.69981 0.46341 0.0
C580 C 0.14238 0.64066 0.38973 0.0
O581 O 0.13037 0.66688 0.36153 0.0
O582 O 0.14645 0.65116 0.42811 0.0
C583 C 0.07014 0.75762 0.28967 0.0
O584 O 0.03966 0.72975 0.29301 0.0
C585 C 0.12119 0.64087 0.53233 0.0
C586 C 0.14567 0.67425 0.58789 0.0
C587 C 0.12818 0.6361 0.57517 0.0
N588 N 0.13314 0.67982 0.52037 0.0
N589 N 0.14665 0.70019 0.55414 0.0
C590 C 0.10921 0.60632 0.50232 0.0
H591 H 0.09077 0.61919 0.4755 0.0
H592 H 0.09037 0.58166 0.51862 0.0
H593 H 0.13836 0.5914 0.48981 0.0
C594 C 0.03919 0.75661 0.4091 0.0
N595 N 0.0778 0.73958 0.41194 0.0
N596 N 0.08182 0.72167 0.44914 0.0
C597 C 0.04426 0.72301 0.46927 0.0
C598 C 0.01608 0.74482 0.44412 0.0
C599 C 0.02641 0.78944 0.37751 0.0
H600 H 0.0546 0.80574 0.36468 0.0
H601 H 0.00836 0.77514 0.35142 0.0
H602 H 0.00543 0.81311 0.39267 0.0
O603 O 0.17058 0.75608 0.38528 0.0
O604 O 0.18273 0.74181 0.45309 0.0
H605 H 0.05561 0.71168 0.5349 0.0
H606 H 0.00108 0.70547 0.51935 0.0
C607 C 0.0343 0.7004 0.50953 0.0
H608 H 0.03937 0.66611 0.50517 0.0
H609 H 0.15887 0.73079 0.55366 0.0
O610 O 0.10074 0.75793 0.31586 0.0
C611 C 0.19292 0.75987 0.41836 0.0
Co612 Co 0.97875 0.61786 0.86668 0.0
Co613 Co 0.94976 0.60083 0.77244 0.0
C614 C 0.89062 0.59349 0.84611 0.0
O615 O 0.91684 0.60548 0.87432 0.0
O616 O 0.90112 0.58944 0.80773 0.0
C617 C 0.00758 0.66569 0.94617 0.0
O618 O 0.97971 0.69617 0.94283 0.0
C619 C 0.89082 0.61474 0.70352 0.0
C620 C 0.92418 0.59028 0.64796 0.0
C621 C 0.88603 0.60776 0.66069 0.0
N622 N 0.92976 0.60279 0.71548 0.0
N623 N 0.95013 0.58929 0.68171 0.0
C624 C 0.85626 0.62671 0.73355 0.0
H625 H 0.86914 0.64514 0.76037 0.0
H626 H 0.8316 0.64556 0.71726 0.0
H627 H 0.84135 0.59757 0.74604 0.0
C628 C 0.00657 0.69669 0.8268 0.0
N629 N 0.98954 0.65808 0.82394 0.0
N630 N 0.97162 0.65408 0.78673 0.0
C631 C 0.97297 0.69165 0.76662 0.0
C632 C -0.00522 0.71982 0.79179 0.0
C633 C 0.03942 0.70944 0.85837 0.0
H634 H 0.0557 0.68123 0.8712 0.0
H635 H 0.02514 0.7275 0.88447 0.0
H636 H 0.0631 0.73041 0.84321 0.0
O637 O 0.00606 0.56529 0.85055 0.0
O638 O 0.99177 0.55318 0.78273 0.0
H639 H 0.96164 0.68033 0.70099 0.0
H640 H 0.95545 0.73486 0.71655 0.0
C641 C 0.95036 0.70163 0.72637 0.0
H642 H 0.91607 0.69657 0.73071 0.0
H643 H 0.98073 0.57707 0.68217 0.0
O644 O 0.00789 0.63509 0.91999 0.0
C645 C 0.00985 0.54297 0.81746 0.0
Co646 Co 0.86798 0.7571 0.36924 0.0
Co647 Co 0.85084 0.78615 0.46345 0.0
C648 C 0.84351 0.84522 0.38971 0.0
O649 O 0.85555 0.81899 0.36154 0.0
O650 O 0.83943 0.83475 0.4281 0.0
C651 C 0.91585 0.72823 0.28975 0.0
O652 O 0.94628 0.75616 0.293 0.0
C653 C 0.86463 0.84515 0.53233 0.0
C654 C 0.84033 0.81173 0.58793 0.0
C655 C 0.85771 0.84992 0.57517 0.0
N656 N 0.85275 0.80618 0.52039 0.0
N657 N 0.83934 0.78578 0.55418 0.0
C658 C 0.87649 0.87973 0.50229 0.0
H659 H 0.89497 0.86691 0.47548 0.0
H660 H 0.89525 0.90446 0.51857 0.0
H661 H 0.8473 0.89454 0.48978 0.0
C662 C 0.94692 0.72963 0.40912 0.0
N663 N 0.90821 0.74643 0.41201 0.0
N664 N 0.90415 0.76437 0.44921 0.0
C665 C 0.94174 0.76325 0.46929 0.0
C666 C 0.97001 0.74164 0.44407 0.0
C667 C 0.95981 0.69677 0.3776 0.0
H668 H 0.93166 0.68034 0.36482 0.0
H669 H 0.97779 0.71109 0.35147 0.0
H670 H 0.98088 0.67322 0.3928 0.0
O671 O 0.81543 0.72975 0.38537 0.0
O672 O 0.80325 0.74408 0.45316 0.0
H673 H 0.93036 0.77461 0.53491 0.0
H674 H 0.98488 0.78092 0.51936 0.0
C675 C 0.95165 0.78591 0.50953 0.0
H676 H 0.94651 0.82019 0.50514 0.0
H677 H 0.82719 0.75516 0.55374 0.0
O678 O 0.88528 0.72791 0.31597 0.0
C679 C 0.79308 0.72597 0.41844 0.0
Co680 Co 0.50713 0.36799 0.36674 0.0
Co681 Co 0.53622 0.38503 0.27253 0.0
C682 C 0.5953 0.39235 0.34625 0.0
O683 O 0.56904 0.38038 0.37442 0.0
O684 O 0.58486 0.39641 0.30786 0.0
C685 C 0.47827 0.32014 0.44623 0.0
O686 O 0.50615 0.28966 0.44291 0.0
C687 C 0.59517 0.37119 0.20362 0.0
C688 C 0.56173 0.39561 0.14804 0.0
C689 C 0.59992 0.37825 0.16081 0.0
N690 N 0.5562 0.38307 0.21557 0.0
N691 N 0.5358 0.39654 0.1818 0.0
C692 C 0.62975 0.35926 0.23363 0.0
H693 H 0.61691 0.34079 0.26044 0.0
H694 H 0.65444 0.34047 0.21733 0.0
H695 H 0.64461 0.38842 0.24614 0.0
C696 C 0.47934 0.28916 0.32681 0.0
N697 N 0.49639 0.32777 0.32399 0.0
N698 N 0.51434 0.33177 0.2868 0.0
C699 C 0.513 0.29422 0.26667 0.0
C700 C 0.49115 0.26605 0.2918 0.0
C701 C 0.44649 0.2764 0.35838 0.0
H702 H 0.43019 0.3046 0.3712 0.0
H703 H 0.46078 0.25835 0.38448 0.0
H704 H 0.42283 0.25542 0.34322 0.0
O705 O 0.47981 0.42054 0.35058 0.0
O706 O 0.4942 0.43267 0.28279 0.0
H707 H 0.52434 0.30552 0.20104 0.0
H708 H 0.5306 0.25101 0.21663 0.0
C709 C 0.53564 0.28425 0.22643 0.0
H710 H 0.56992 0.28937 0.23079 0.0
H711 H 0.50517 0.40869 0.18228 0.0
O712 O 0.47797 0.35073 0.42004 0.0
C713 C 0.47605 0.44286 0.31748 0.0
Co714 Co 0.36781 0.72865 0.61668 0.0
Co715 Co 0.35086 0.69971 0.52242 0.0
C716 C 0.34348 0.64053 0.59605 0.0
O717 O 0.35543 0.66674 0.62428 0.0
O718 O 0.33945 0.65104 0.55767 0.0
C719 C 0.41563 0.75738 0.69622 0.0
O720 O 0.44613 0.72953 0.69283 0.0
C721 C 0.3648 0.64083 0.45348 0.0
C722 C 0.34028 0.67422 0.39795 0.0
C723 C 0.35777 0.63606 0.41065 0.0
N724 N 0.35285 0.67977 0.46545 0.0
N725 N 0.33931 0.70015 0.4317 0.0
C726 C 0.37679 0.60627 0.48347 0.0
H727 H 0.3952 0.61913 0.51032 0.0
H728 H 0.39567 0.58164 0.46717 0.0
H729 H 0.34765 0.59131 0.49594 0.0
C730 C 0.44666 0.75651 0.57687 0.0
N731 N 0.40807 0.73946 0.57398 0.0
N732 N 0.4041 0.72157 0.53676 0.0
C733 C 0.44167 0.72295 0.51667 0.0
C734 C 0.46981 0.74477 0.54187 0.0
C735 C 0.45937 0.78938 0.60846 0.0
H736 H 0.43113 0.80562 0.62129 0.0
H737 H 0.47743 0.77511 0.63456 0.0
H738 H 0.48031 0.81308 0.59331 0.0
O739 O 0.31526 0.75599 0.60053 0.0
O740 O 0.3032 0.74172 0.53271 0.0
H741 H 0.4304 0.71169 0.45102 0.0
H742 H 0.48492 0.70548 0.46661 0.0
C743 C 0.45169 0.70039 0.4764 0.0
H744 H 0.44662 0.66609 0.48071 0.0
H745 H 0.32707 0.73074 0.4322 0.0
O746 O 0.38503 0.75771 0.67003 0.0
C747 C 0.29297 0.7598 0.56742 0.0
Co748 Co 0.97865 0.36807 0.61915 0.0
Co749 Co 0.94972 0.38504 0.71342 0.0
C750 C 0.89054 0.39241 0.63979 0.0
O751 O 0.91675 0.38045 0.61157 0.0
O752 O 0.90105 0.39644 0.67817 0.0
C753 C 0.00741 0.32024 0.53962 0.0
O754 O 0.97958 0.28973 0.54301 0.0
C755 C 0.89084 0.37111 0.78236 0.0
C756 C 0.92421 0.39563 0.83789 0.0
C757 C 0.88606 0.37813 0.82519 0.0
N758 N 0.92977 0.38306 0.77039 0.0
N759 N 0.95015 0.3966 0.80414 0.0
C760 C 0.85627 0.35912 0.75236 0.0
H761 H 0.86914 0.34071 0.72552 0.0
H762 H 0.83165 0.34024 0.76866 0.0
H763 H 0.84132 0.38825 0.73988 0.0
C764 C 0.00652 0.28923 0.65898 0.0
N765 N 0.98947 0.32782 0.66187 0.0
N766 N 0.97158 0.3318 0.69909 0.0
C767 C 0.97296 0.29423 0.71918 0.0
C768 C -0.00523 0.26608 0.69399 0.0
C769 C 0.03939 0.27651 0.6274 0.0
H770 H 0.05563 0.30475 0.61457 0.0
H771 H 0.02512 0.25844 0.6013 0.0
H772 H 0.06309 0.25558 0.64255 0.0
O773 O 0.00599 0.42062 0.6353 0.0
O774 O 0.99172 0.43269 0.70312 0.0
H775 H 0.96168 0.3055 0.78483 0.0
H776 H 0.95545 0.25099 0.76924 0.0
C777 C 0.95038 0.28422 0.75945 0.0
H778 H 0.91609 0.2893 0.75513 0.0
H779 H 0.98074 0.40883 0.80365 0.0
O780 O 0.00773 0.35084 0.5658 0.0
C781 C 0.00979 0.44292 0.6684 0.0
Co782 Co 0.00723 0.11792 0.61921 0.0
Co783 Co 0.03622 0.10088 0.71344 0.0
C784 C 0.09534 0.09347 0.63976 0.0
O785 O 0.06912 0.10547 0.61155 0.0
O786 O 0.08485 0.08943 0.67814 0.0
C787 C 0.97846 0.16574 0.53965 0.0
O788 O 0.00636 0.1962 0.54295 0.0
C789 C 0.09518 0.11471 0.78235 0.0
C790 C 0.06174 0.09036 0.83792 0.0
C791 C 0.09993 0.10776 0.82519 0.0
N792 N 0.05621 0.10283 0.77039 0.0
N793 N 0.0358 0.08939 0.80417 0.0
C794 C 0.12977 0.12657 0.75233 0.0
H795 H 0.11695 0.14503 0.72549 0.0
H796 H 0.15447 0.14537 0.76861 0.0
H797 H 0.14461 0.09739 0.73985 0.0
C798 C 0.97972 0.19689 0.65899 0.0
N799 N -0.00345 0.1582 0.66192 0.0
N800 N 0.01446 0.15417 0.69914 0.0
C801 C 0.01329 0.19178 0.71919 0.0
C802 C 0.99169 0.22001 0.69394 0.0
C803 C 0.94686 0.20972 0.62746 0.0
H804 H 0.93047 0.18155 0.61468 0.0
H805 H 0.96116 0.2277 0.60132 0.0
H806 H 0.92328 0.23078 0.64263 0.0
O807 O 0.97983 0.06541 0.63537 0.0
O808 O -0.00585 0.05329 0.70318 0.0
H809 H 0.02458 0.18045 0.78484 0.0
H810 H 0.03093 0.23496 0.76925 0.0
C811 C 0.03592 0.20171 0.75945 0.0
H812 H 0.0702 0.19656 0.75511 0.0
H813 H 0.00518 0.07723 0.8037 0.0
O814 O 0.97813 0.13518 0.56589 0.0
C815 C 0.97603 0.0431 0.66847 0.0
Co816 Co 0.61675 0.61808 0.75716 0.0
Co817 Co 0.52252 0.63508 0.78618 0.0
C818 C 0.5962 0.64239 0.84532 0.0
O819 O 0.62439 0.63043 0.81907 0.0
O820 O 0.55781 0.64646 0.83485 0.0
C821 C 0.69624 0.57024 0.72836 0.0
O822 O 0.69288 0.53976 0.75623 0.0
C823 C 0.45357 0.62123 0.84507 0.0
C824 C 0.39802 0.6457 0.81162 0.0
C825 C 0.41076 0.62832 0.84981 0.0
N826 N 0.46555 0.63311 0.80612 0.0
N827 N 0.43179 0.6466 0.7857 0.0
C828 C 0.48356 0.6093 0.87967 0.0
H829 H 0.51039 0.59084 0.86684 0.0
H830 H 0.46724 0.59049 0.90433 0.0
H831 H 0.49605 0.63846 0.89456 0.0
C832 C 0.57687 0.53924 0.72934 0.0
N833 N 0.57401 0.57784 0.74638 0.0
N834 N 0.53681 0.58183 0.76432 0.0
C835 C 0.51671 0.54427 0.76297 0.0
C836 C 0.54187 0.51611 0.74114 0.0
C837 C 0.60844 0.5265 0.69648 0.0
H838 H 0.62127 0.55471 0.68021 0.0
H839 H 0.63454 0.50843 0.71075 0.0
H840 H 0.59327 0.50554 0.6728 0.0
O841 O 0.60059 0.67063 0.72984 0.0
O842 O 0.53279 0.68272 0.74416 0.0
H843 H 0.45106 0.55553 0.77429 0.0
H844 H 0.46669 0.50103 0.78058 0.0
C845 C 0.47646 0.53427 0.7856 0.0
H846 H 0.48081 0.53941 0.81988 0.0
H847 H 0.43229 0.65876 0.75508 0.0
O848 O 0.67006 0.60084 0.72804 0.0
C849 C 0.56749 0.69293 0.72605 0.0
Co850 Co 0.86807 0.11917 0.47875 0.0
Co851 Co 0.88512 0.21339 0.44972 0.0
C852 C 0.89241 0.13969 0.3906 0.0
O853 O 0.88043 0.11151 0.41685 0.0
O854 O 0.89649 0.17808 0.40107 0.0
C855 C 0.82021 0.03969 0.50755 0.0
O856 O 0.78975 0.04303 0.47966 0.0
C857 C 0.87127 0.28231 0.39079 0.0
C858 C 0.89576 0.33788 0.42421 0.0
C859 C 0.87837 0.32512 0.38603 0.0
N860 N 0.88317 0.27035 0.42975 0.0
N861 N 0.89667 0.30412 0.45015 0.0
C862 C 0.85931 0.25231 0.35622 0.0
H863 H 0.84085 0.22549 0.36907 0.0
H864 H 0.84049 0.26862 0.33156 0.0
H865 H 0.88845 0.2398 0.34133 0.0
C866 C 0.78925 0.15909 0.50656 0.0
N867 N 0.82785 0.16193 0.48952 0.0
N868 N 0.83186 0.19913 0.47159 0.0
C869 C 0.7943 0.21925 0.47294 0.0
C870 C 0.76613 0.19411 0.49477 0.0
C871 C 0.77647 0.12751 0.5394 0.0
H872 H 0.80468 0.11468 0.5557 0.0
H873 H 0.75843 0.10141 0.5251 0.0
H874 H 0.75549 0.14267 0.56306 0.0
O875 O 0.92063 0.13531 0.50607 0.0
O876 O 0.93275 0.20311 0.49173 0.0
H877 H 0.80562 0.28489 0.4616 0.0
H878 H 0.7511 0.26932 0.45537 0.0
C879 C 0.78433 0.25951 0.45031 0.0
H880 H 0.78943 0.25515 0.41603 0.0
H881 H 0.90884 0.30364 0.48076 0.0
O882 O 0.85081 0.06587 0.50788 0.0
C883 C 0.94295 0.1684 0.50985 0.0
Co884 Co 0.36913 0.86781 0.75709 0.0
Co885 Co 0.46336 0.85074 0.78609 0.0
C886 C 0.38968 0.84351 0.84524 0.0
O887 O 0.36149 0.85549 0.819 0.0
O888 O 0.42806 0.8394 0.83476 0.0
C889 C 0.28968 0.91569 0.72824 0.0
O890 O 0.29304 0.94617 0.75611 0.0
C891 C 0.5323 0.8646 0.84499 0.0
C892 C 0.58785 0.84007 0.81157 0.0
C893 C 0.57511 0.85749 0.84973 0.0
N894 N 0.52033 0.85268 0.80604 0.0
N895 N 0.55408 0.83916 0.78564 0.0
C896 C 0.50231 0.87659 0.87956 0.0
H897 H 0.4755 0.89504 0.86671 0.0
H898 H 0.51864 0.89542 0.90421 0.0
H899 H 0.4898 0.84745 0.89448 0.0
C900 C 0.40907 0.9466 0.72921 0.0
N901 N 0.4119 0.908 0.74627 0.0
N902 N 0.4491 0.90399 0.7642 0.0
C903 C 0.46924 0.94154 0.76283 0.0
C904 C 0.4441 0.96971 0.74098 0.0
C905 C 0.3775 0.95936 0.69635 0.0
H906 H 0.36465 0.93115 0.6801 0.0
H907 H 0.35142 0.97745 0.71063 0.0
H908 H 0.39267 0.9803 0.67267 0.0
O909 O 0.38524 0.81523 0.72981 0.0
O910 O 0.45305 0.80309 0.7441 0.0
H911 H 0.53487 0.93021 0.77416 0.0
H912 H 0.51932 0.98474 0.78036 0.0
C913 C 0.5095 0.95151 0.78544 0.0
H914 H 0.50514 0.94644 0.81973 0.0
H915 H 0.55358 0.82697 0.75503 0.0
O916 O 0.31583 0.88507 0.72794 0.0
C917 C 0.41832 0.7929 0.72602 0.0
Co918 Co 0.11781 0.3668 0.47871 0.0
Co919 Co 0.1008 0.27255 0.44976 0.0
C920 C 0.09352 0.34619 0.39057 0.0
O921 O 0.10548 0.3744 0.41679 0.0
O922 O 0.08944 0.30781 0.40107 0.0
C923 C 0.16563 0.4463 0.50751 0.0
O924 O 0.19612 0.44293 0.47965 0.0
C925 C 0.1147 0.20359 0.39088 0.0
C926 C 0.09017 0.14805 0.42431 0.0
C927 C 0.10759 0.16078 0.38614 0.0
N928 N 0.10278 0.21557 0.42983 0.0
N929 N 0.08925 0.18182 0.45023 0.0
C930 C 0.12669 0.23357 0.35631 0.0
H931 H 0.14513 0.2604 0.36915 0.0
H932 H 0.14553 0.21725 0.33167 0.0
H933 H 0.09755 0.24606 0.34137 0.0
C934 C 0.19663 0.32692 0.5066 0.0
N935 N 0.15803 0.32406 0.48954 0.0
N936 N 0.15405 0.28685 0.47164 0.0
C937 C 0.19161 0.26673 0.47303 0.0
C938 C 0.21976 0.2919 0.49485 0.0
C939 C 0.20936 0.35852 0.53944 0.0
H940 H 0.18114 0.37136 0.55569 0.0
H941 H 0.22743 0.38461 0.52516 0.0
H942 H 0.23031 0.34337 0.56314 0.0
O943 O 0.06524 0.35067 0.50601 0.0
O944 O 0.05315 0.28284 0.49175 0.0
H945 H 0.1803 0.20109 0.46175 0.0
H946 H 0.23483 0.21666 0.45554 0.0
C947 C 0.2016 0.22646 0.45045 0.0
H948 H 0.19653 0.23078 0.41616 0.0
H949 H 0.07706 0.18232 0.48084 0.0
O950 O 0.13503 0.42012 0.50782 0.0
C951 C 0.04293 0.31757 0.50981 0.0
Co952 Co 0.61669 0.36798 0.72869 0.0
Co953 Co 0.52244 0.35091 0.69971 0.0
C954 C 0.59613 0.34351 0.64059 0.0
O955 O 0.62434 0.35552 0.6668 0.0
O956 O 0.55775 0.33946 0.65108 0.0
C957 C 0.69624 0.41578 0.75753 0.0
O958 O 0.69298 0.44624 0.72963 0.0
C959 C 0.45353 0.36475 0.64075 0.0
C960 C 0.39795 0.34042 0.67417 0.0
C961 C 0.41069 0.35782 0.63599 0.0
N962 N 0.46548 0.35286 0.67971 0.0
N963 N 0.4317 0.33943 0.70011 0.0
C964 C 0.48356 0.37663 0.60616 0.0
H965 H 0.51039 0.39508 0.61899 0.0
H966 H 0.46728 0.39542 0.58146 0.0
H967 H 0.49605 0.34744 0.59132 0.0
C968 C 0.57688 0.44693 0.75621 0.0
N969 N 0.57396 0.40824 0.73938 0.0
N970 N 0.53674 0.4042 0.72147 0.0
C971 C 0.51667 0.4418 0.72265 0.0
C972 C 0.54192 0.47004 0.74425 0.0
C973 C 0.60842 0.45977 0.78906 0.0
H974 H 0.62121 0.43161 0.80545 0.0
H975 H 0.63455 0.47775 0.77474 0.0
H976 H 0.59325 0.48083 0.81263 0.0
O977 O 0.60053 0.31545 0.75605 0.0
O978 O 0.53272 0.30331 0.74177 0.0
H979 H 0.45103 0.43044 0.71138 0.0
H980 H 0.46658 0.48496 0.70507 0.0
C981 C 0.47639 0.45173 0.70005 0.0
H982 H 0.48073 0.4466 0.66577 0.0
H983 H 0.43216 0.32727 0.73073 0.0
O984 O 0.67001 0.38522 0.75784 0.0
C985 C 0.56744 0.29313 0.75986 0.0
Co986 Co 0.61802 0.11924 0.50708 0.0
Co987 Co 0.60091 0.21346 0.53611 0.0
C988 C 0.59352 0.13974 0.59519 0.0
O989 O 0.60556 0.11155 0.56897 0.0
O990 O 0.58946 0.17812 0.58471 0.0
C991 C 0.66588 0.03973 0.47821 0.0
O992 O 0.69633 0.043 0.50612 0.0
C993 C 0.61464 0.28233 0.59513 0.0
C994 C 0.59031 0.33795 0.56169 0.0
C995 C 0.6076 0.32514 0.59989 0.0
N996 N 0.60282 0.27041 0.55614 0.0
N997 N 0.58941 0.3042 0.53573 0.0
C998 C 0.6265 0.25229 0.62972 0.0
H999 H 0.645 0.22549 0.6169 0.0
H1000 H 0.64523 0.26858 0.65446 0.0
H1001 H 0.5973 0.23976 0.6445 0.0
C1002 C 0.69697 0.1591 0.47961 0.0
N1003 N 0.65827 0.162 0.49642 0.0
N1004 N 0.65421 0.1992 0.51435 0.0
C1005 C 0.6918 0.21928 0.51321 0.0
C1006 C 0.72006 0.19406 0.49161 0.0
C1007 C 0.70985 0.12758 0.44675 0.0
H1008 H 0.6817 0.11479 0.43034 0.0
H1009 H 0.72784 0.10146 0.46106 0.0
H1010 H 0.73091 0.14279 0.42319 0.0
O1011 O 0.56549 0.1354 0.47971 0.0
O1012 O 0.55332 0.20319 0.49405 0.0
H1013 H 0.68043 0.28491 0.52452 0.0
H1014 H 0.73494 0.26936 0.53088 0.0
C1015 C 0.7017 0.25954 0.53586 0.0
H1016 H 0.69654 0.25517 0.57013 0.0
H1017 H 0.57732 0.30375 0.50509 0.0
O1018 O 0.63531 0.06595 0.4779 0.0
C1019 C 0.54315 0.16848 0.47593 0.0
Co1020 Co 0.36925 0.11785 0.72875 0.0
Co1021 Co 0.46349 0.13495 0.6997 0.0
C1022 C 0.38974 0.14241 0.64065 0.0
O1023 O 0.36155 0.13037 0.66688 0.0
O1024 O 0.42813 0.14644 0.65113 0.0
C1025 C 0.28971 0.07002 0.7576 0.0
O1026 O 0.29294 0.03959 0.72967 0.0
C1027 C 0.53233 0.12123 0.64064 0.0
C1028 C 0.58798 0.14549 0.67409 0.0
C1029 C 0.57515 0.12824 0.63588 0.0
N1030 N 0.52043 0.13302 0.67965 0.0
N1031 N 0.55424 0.1464 0.70006 0.0
C1032 C 0.50228 0.10942 0.60606 0.0
H1033 H 0.47548 0.09091 0.61887 0.0
H1034 H 0.51856 0.09071 0.58129 0.0
H1035 H 0.48975 0.13863 0.59131 0.0
C1036 C 0.40909 0.03887 0.75615 0.0
N1037 N 0.412 0.07758 0.73936 0.0
N1038 N 0.44921 0.08164 0.72143 0.0
C1039 C 0.46928 0.04404 0.72255 0.0
C1040 C 0.44404 0.01578 0.74414 0.0
C1041 C 0.37757 0.02599 0.789 0.0
H1042 H 0.3648 0.05413 0.80545 0.0
H1043 H 0.35142 0.00804 0.77467 0.0
H1044 H 0.39275 0.00488 0.81254 0.0
O1045 O 0.38544 0.17036 0.75615 0.0
O1046 O 0.45323 0.18252 0.7418 0.0
H1047 H 0.53491 0.05539 0.71125 0.0
H1048 H 0.51933 0.00089 0.70485 0.0
C1049 C 0.50953 0.03414 0.69989 0.0
H1050 H 0.50517 0.03934 0.66563 0.0
H1051 H 0.55381 0.15846 0.73072 0.0
O1052 O 0.31596 0.10057 0.75793 0.0
C1053 C 0.41853 0.19268 0.75994 0.0
Co1054 Co 0.3679 0.36674 0.50717 0.0
Co1055 Co 0.38498 0.27253 0.53624 0.0
C1056 C 0.39236 0.34627 0.5953 0.0
O1057 O 0.38034 0.37445 0.56905 0.0
O1058 O 0.39643 0.30788 0.58485 0.0
C1059 C 0.32008 0.44627 0.4783 0.0
O1060 O 0.28963 0.44302 0.50621 0.0
C1061 C 0.37126 0.20365 0.59527 0.0
C1062 C 0.39547 0.14802 0.56176 0.0
C1063 C 0.37824 0.16082 0.59999 0.0
N1064 N 0.38304 0.21558 0.55626 0.0
N1065 N 0.39639 0.18178 0.53582 0.0
C1066 C 0.35948 0.23367 0.62988 0.0
H1067 H 0.34095 0.26048 0.61711 0.0
H1068 H 0.34079 0.21738 0.65466 0.0
H1069 H 0.3887 0.2462 0.64461 0.0
C1070 C 0.28894 0.3269 0.47972 0.0
N1071 N 0.32764 0.324 0.49653 0.0
N1072 N 0.33168 0.2868 0.51448 0.0
C1073 C 0.29408 0.26673 0.51335 0.0
C1074 C 0.26583 0.29196 0.49173 0.0
C1075 C 0.27607 0.35842 0.44685 0.0
H1076 H 0.30422 0.37119 0.43042 0.0
H1077 H 0.2581 0.38456 0.46116 0.0
H1078 H 0.25499 0.34323 0.4233 0.0
O1079 O 0.42043 0.35057 0.47981 0.0
O1080 O 0.43257 0.28277 0.49416 0.0
H1081 H 0.30539 0.2011 0.52467 0.0
H1082 H 0.25091 0.21672 0.5311 0.0
C1083 C 0.28416 0.2265 0.53603 0.0
H1084 H 0.28939 0.23087 0.57029 0.0
H1085 H 0.40844 0.18223 0.50516 0.0
O1086 O 0.35064 0.42003 0.47799 0.0
C1087 C 0.44275 0.31748 0.47603 0.0
Co1088 Co 0.75718 0.61676 0.61796 0.0
Co1089 Co 0.78618 0.52253 0.63508 0.0
C1090 C 0.84531 0.59623 0.64239 0.0
O1091 O 0.81908 0.62442 0.63037 0.0
O1092 O 0.83483 0.55785 0.64649 0.0
C1093 C 0.72833 0.69626 0.57011 0.0
O1094 O 0.75624 0.69298 0.53966 0.0
C1095 C 0.84512 0.45361 0.6213 0.0
C1096 C 0.81165 0.39803 0.64569 0.0
C1097 C 0.84984 0.4108 0.62835 0.0
N1098 N 0.80615 0.46557 0.63316 0.0
N1099 N 0.78572 0.43181 0.64661 0.0
C1100 C 0.87972 0.48361 0.60941 0.0
H1101 H 0.86691 0.51043 0.59093 0.0
H1102 H 0.90442 0.4673 0.59063 0.0
H1103 H 0.89456 0.49611 0.63858 0.0
C1104 C 0.72961 0.57688 0.53905 0.0
N1105 N 0.74647 0.57399 0.57773 0.0
N1106 N 0.76439 0.53679 0.58179 0.0
C1107 C 0.76319 0.51668 0.54421 0.0
C1108 C 0.74155 0.5419 0.51597 0.0
C1109 C 0.69677 0.60842 0.52619 0.0
H1110 H 0.68038 0.62123 0.55435 0.0
H1111 H 0.71109 0.63454 0.5082 0.0
H1112 H 0.67318 0.59324 0.50514 0.0
O1113 O 0.72984 0.60063 0.67051 0.0
O1114 O 0.74414 0.53282 0.68267 0.0
H1115 H 0.77448 0.45105 0.55559 0.0
H1116 H 0.7808 0.46659 0.50107 0.0
C1117 C 0.78581 0.47641 0.5343 0.0
H1118 H 0.82009 0.48076 0.53944 0.0
H1119 H 0.75509 0.43229 0.65874 0.0
O1120 O 0.72802 0.67005 0.60069 0.0
C1121 C 0.72604 0.56755 0.69285 0.0
Co1122 Co 0.8667 0.97874 0.61796 0.0
Co1123 Co 0.77248 0.94973 0.60082 0.0
C1124 C 0.84618 0.89062 0.5935 0.0
O1125 O 0.87437 0.91684 0.60554 0.0
O1126 O 0.8078 0.9011 0.5894 0.0
C1127 C 0.94622 0.00758 0.66581 0.0
O1128 O 0.94294 0.97967 0.69626 0.0
C1129 C 0.70356 0.89079 0.61464 0.0
C1130 C 0.64799 0.92422 0.59027 0.0
C1131 C 0.66072 0.88604 0.60769 0.0
N1132 N 0.71552 0.92974 0.60273 0.0
N1133 N 0.68175 0.95015 0.58928 0.0
C1134 C 0.73358 0.8562 0.62654 0.0
H1135 H 0.76041 0.86903 0.64499 0.0
H1136 H 0.71728 0.83151 0.64534 0.0
H1137 H 0.74607 0.84134 0.59737 0.0
C1138 C 0.82682 0.00628 0.69687 0.0
N1139 N 0.82393 0.98943 0.65818 0.0
N1140 N 0.78673 0.97151 0.65412 0.0
C1141 C 0.76662 0.9727 0.69169 0.0
C1142 C 0.79184 -0.00568 0.71995 0.0
C1143 C 0.85836 0.03912 0.70974 0.0
H1144 H 0.87116 0.05552 0.68159 0.0
H1145 H 0.88448 0.02479 0.72772 0.0
H1146 H 0.84318 0.06269 0.7308 0.0
O1147 O 0.85057 0.00609 0.56541 0.0
O1148 O 0.78278 0.99179 0.55323 0.0
H1149 H 0.70099 0.9614 0.68029 0.0
H1150 H 0.71651 0.95511 0.73482 0.0
C1151 C 0.72635 0.95008 0.7016 0.0
H1152 H 0.73071 0.9158 0.69649 0.0
H1153 H 0.68222 0.98076 0.57711 0.0
O1154 O 0.92 0.00789 0.63524 0.0
C1155 C 0.8175 0.00989 0.54307 0.0
Co1156 Co 0.22865 0.86915 0.61789 0.0
Co1157 Co 0.19975 0.96341 0.63495 0.0
C1158 C 0.14058 0.88976 0.6424 0.0
O1159 O 0.16676 0.86153 0.63036 0.0
O1160 O 0.15111 0.92813 0.64643 0.0
C1161 C 0.25744 0.7896 0.57007 0.0
O1162 O 0.22957 0.79291 0.53959 0.0
C1163 C 0.14079 0.03231 0.62118 0.0
C1164 C 0.17423 0.08789 0.64561 0.0
C1165 C 0.13604 0.07512 0.62828 0.0
N1166 N 0.17977 0.02037 0.63302 0.0
N1167 N 0.20018 0.05414 0.64649 0.0
C1168 C 0.10621 0.0023 0.60927 0.0
H1169 H 0.11903 0.97548 0.59081 0.0
H1170 H 0.08151 0.01861 0.59048 0.0
H1171 H 0.09135 0.98981 0.63844 0.0
C1172 C 0.25622 0.90895 0.53894 0.0
N1173 N 0.23937 0.91187 0.57762 0.0
N1174 N 0.22148 0.9491 0.58165 0.0
C1175 C 0.22269 0.96918 0.54407 0.0
C1176 C 0.24429 0.94392 0.51583 0.0
C1177 C 0.28907 0.8774 0.52611 0.0
H1178 H 0.30543 0.86459 0.55428 0.0
H1179 H 0.27476 0.85128 0.50811 0.0
H1180 H 0.31267 0.89257 0.50508 0.0
O1181 O 0.25604 0.8853 0.67041 0.0
O1182 O 0.24181 0.95312 0.68253 0.0
H1183 H 0.21148 0.03483 0.55542 0.0
H1184 H 0.20512 0.01927 0.50091 0.0
C1185 C 0.20011 0.00947 0.53414 0.0
H1186 H 0.16583 0.00516 0.53929 0.0
H1187 H 0.23082 0.05366 0.65862 0.0
O1188 O 0.25776 0.81582 0.60064 0.0
C1189 C 0.25988 0.91839 0.69272 0.0
Co1190 Co 0.1191 0.50726 0.61789 0.0
Co1191 Co 0.21334 0.53621 0.60082 0.0
C1192 C 0.13968 0.59538 0.59348 0.0
O1193 O 0.11147 0.56916 0.60549 0.0
O1194 O 0.17806 0.58488 0.5894 0.0
C1195 C 0.03958 0.47846 0.66573 0.0
O1196 O 0.0429 0.50632 0.69622 0.0
C1197 C 0.28229 0.59511 0.61461 0.0
C1198 C 0.33784 0.56164 0.59013 0.0
C1199 C 0.3251 0.59983 0.6075 0.0
N1200 N 0.27031 0.55615 0.60274 0.0
N1201 N 0.30406 0.53572 0.58925 0.0
C1202 C 0.25231 0.62971 0.62654 0.0
H1203 H 0.22548 0.61689 0.645 0.0
H1204 H 0.26863 0.65437 0.64534 0.0
H1205 H 0.23982 0.6446 0.59738 0.0
C1206 C 0.15893 0.47964 0.6968 0.0
N1207 N 0.16184 0.49652 0.65813 0.0
N1208 N 0.19906 0.51442 0.6541 0.0
C1209 C 0.21915 0.51319 0.69169 0.0
C1210 C 0.19391 0.49155 0.71991 0.0
C1211 C 0.12739 0.44678 0.70962 0.0
H1212 H 0.11457 0.43043 0.68144 0.0
H1213 H 0.10128 0.46108 0.72765 0.0
H1214 H 0.14257 0.42316 0.73063 0.0
O1215 O 0.13523 0.47991 0.56534 0.0
O1216 O 0.20304 0.49418 0.55322 0.0
H1217 H 0.28479 0.52444 0.68033 0.0
H1218 H 0.26925 0.53075 0.73485 0.0
C1219 C 0.25943 0.53578 0.70162 0.0
H1220 H 0.25511 0.57006 0.69649 0.0
H1221 H 0.30356 0.5051 0.5771 0.0
O1222 O 0.06578 0.47815 0.63515 0.0
C1223 C 0.16832 0.4761 0.54302 0.0
Co1224 Co 0.75721 0.36915 0.86789 0.0
Co1225 Co 0.78624 0.46337 0.85085 0.0
C1226 C 0.84534 0.38967 0.84348 0.0
O1227 O 0.8191 0.36148 0.85547 0.0
O1228 O 0.83488 0.42806 0.83941 0.0
C1229 C 0.72842 0.2896 0.91569 0.0
O1230 O 0.75634 0.29287 0.94614 0.0
C1231 C 0.84521 0.53229 0.86463 0.0
C1232 C 0.81172 0.58788 0.8403 0.0
C1233 C 0.84994 0.57511 0.85759 0.0
N1234 N 0.80622 0.52034 0.8528 0.0
N1235 N 0.78579 0.55411 0.83939 0.0
C1236 C 0.87982 0.50228 0.87646 0.0
H1237 H 0.86703 0.47545 0.89494 0.0
H1238 H 0.90454 0.51858 0.89522 0.0
H1239 H 0.89463 0.48979 0.84726 0.0
C1240 C 0.72972 0.40894 0.94686 0.0
N1241 N 0.74654 0.41187 0.90817 0.0
N1242 N 0.76447 0.44908 0.90414 0.0
C1243 C 0.76332 0.46913 0.94175 0.0
C1244 C 0.74171 0.44388 0.96998 0.0
C1245 C 0.69686 0.3774 0.9597 0.0
H1246 H 0.68046 0.36463 0.93154 0.0
H1247 H 0.71118 0.35126 0.97767 0.0
H1248 H 0.67329 0.39258 0.98077 0.0
O1249 O 0.72983 0.38532 0.81536 0.0
O1250 O 0.74418 0.45312 0.80325 0.0
H1251 H 0.77463 0.53477 0.93045 0.0
H1252 H 0.78101 0.51916 0.98494 0.0
C1253 C 0.78597 0.50937 0.95168 0.0
H1254 H 0.82025 0.50502 0.9465 0.0
H1255 H 0.75515 0.55364 0.82729 0.0
O1256 O 0.72809 0.31585 0.88514 0.0
C1257 C 0.72605 0.41842 0.79306 0.0
Co1258 Co 0.61925 0.97874 0.36787 0.0
Co1259 Co 0.71349 0.94972 0.38491 0.0
C1260 C 0.63977 0.89064 0.39238 0.0
O1261 O 0.61157 0.91686 0.38036 0.0
O1262 O 0.67816 0.90112 0.3964 0.0
C1263 C 0.53972 0.00755 0.32007 0.0
O1264 O 0.54298 0.97963 0.28963 0.0
C1265 C 0.78234 0.89067 0.37117 0.0
C1266 C 0.83798 0.92413 0.39545 0.0
C1267 C 0.82516 0.88591 0.3782 0.0
N1268 N 0.77043 0.92968 0.38296 0.0
N1269 N 0.80424 0.9501 0.39634 0.0
C1270 C 0.7523 0.85608 0.35937 0.0
H1271 H 0.72548 0.86888 0.34087 0.0
H1272 H 0.76857 0.83132 0.34065 0.0
H1273 H 0.73979 0.84132 0.38859 0.0
C1274 C 0.65902 0.00615 0.28887 0.0
N1275 N 0.66197 0.98937 0.32758 0.0
N1276 N 0.69917 0.97144 0.3316 0.0
C1277 C 0.71921 0.97254 0.29399 0.0
C1278 C 0.69395 -0.00587 0.26575 0.0
C1279 C 0.62751 0.03903 0.27602 0.0
H1280 H 0.61475 0.05545 0.30418 0.0
H1281 H 0.60136 0.02475 0.25804 0.0
H1282 H 0.64271 0.06259 0.25495 0.0
O1283 O 0.63544 0.00614 0.42038 0.0
O1284 O 0.70325 0.99181 0.43249 0.0
H1285 H 0.78485 0.96123 0.30528 0.0
H1286 H 0.76921 0.95479 0.2508 0.0
C1287 C 0.75944 0.94987 0.28406 0.0
H1288 H 0.75508 0.9156 0.28929 0.0
H1289 H 0.8038 0.98075 0.40841 0.0
O1290 O 0.56595 0.00788 0.35062 0.0
C1291 C 0.66854 0.00993 0.44268 0.0
Co1292 Co 0.22876 0.11664 0.86797 0.0
Co1293 Co 0.19966 0.02244 0.85089 0.0
C1294 C 0.14062 0.09619 0.84351 0.0
O1295 O 0.16688 0.12436 0.85552 0.0
O1296 O 0.15106 0.05779 0.83944 0.0
C1297 C 0.25759 0.19616 0.91579 0.0
O1298 O 0.22966 0.19291 0.94622 0.0
C1299 C 0.14064 0.95357 0.86469 0.0
C1300 C 0.17408 0.89795 0.84043 0.0
C1301 C 0.13588 0.91071 0.85779 0.0
N1302 N 0.17962 0.96549 0.85283 0.0
N1303 N 0.20003 0.9317 0.83944 0.0
C1304 C 0.10605 0.98361 0.8765 0.0
H1305 H 0.11886 0.01044 0.89497 0.0
H1306 H 0.08131 0.96734 0.89526 0.0
H1307 H 0.09127 -0.0039 0.84729 0.0
C1308 C 0.25617 0.07682 0.94694 0.0
N1309 N 0.23938 0.0739 0.90823 0.0
N1310 N 0.22142 0.03671 0.9042 0.0
C1311 C 0.22252 0.01666 0.9418 0.0
C1312 C 0.24414 0.04189 0.97005 0.0
C1313 C 0.28905 0.10832 0.9598 0.0
H1314 H 0.30549 0.12108 0.93165 0.0
H1315 H 0.27476 0.13447 0.97777 0.0
H1316 H 0.3126 0.09312 0.98089 0.0
O1317 O 0.25614 0.10046 0.81545 0.0
O1318 O 0.24175 0.03268 0.8033 0.0
H1319 H 0.21115 0.95103 0.93048 0.0
H1320 H 0.20478 0.96664 0.98498 0.0
C1321 C 0.19983 0.97643 0.95173 0.0
H1322 H 0.16556 0.98083 0.94655 0.0
H1323 H 0.23066 0.93214 0.82732 0.0
O1324 O 0.25793 0.16992 0.88524 0.0
C1325 C 0.25991 0.06737 0.79313 0.0
Co1326 Co 0.36671 0.50721 0.36793 0.0
Co1327 Co 0.27249 0.53628 0.38499 0.0
C1328 C 0.34623 0.59535 0.39235 0.0
O1329 O 0.3744 0.5691 0.38036 0.0
O1330 O 0.30783 0.5849 0.39642 0.0
C1331 C 0.44626 0.47839 0.32013 0.0
O1332 O 0.44301 0.5063 0.28968 0.0
C1333 C 0.20359 0.59526 0.37123 0.0
C1334 C 0.14798 0.56177 0.39553 0.0
C1335 C 0.16076 0.59998 0.37825 0.0
N1336 N 0.21553 0.55627 0.38305 0.0
N1337 N 0.18175 0.53583 0.39645 0.0
C1338 C 0.2336 0.62987 0.35941 0.0
H1339 H 0.26042 0.61708 0.34092 0.0
H1340 H 0.2173 0.65461 0.34068 0.0
H1341 H 0.2461 0.64465 0.38862 0.0
C1342 C 0.32689 0.47974 0.28896 0.0
N1343 N 0.32397 0.49656 0.32766 0.0
N1344 N 0.28677 0.5145 0.3317 0.0
C1345 C 0.26671 0.51336 0.2941 0.0
C1346 C 0.29194 0.49174 0.26586 0.0
C1347 C 0.35842 0.44689 0.2761 0.0
H1348 H 0.37119 0.43047 0.30426 0.0
H1349 H 0.38457 0.46121 0.25815 0.0
H1350 H 0.34325 0.42334 0.25501 0.0
O1351 O 0.35053 0.47984 0.42045 0.0
O1352 O 0.28274 0.49421 0.43258 0.0
H1353 H 0.20107 0.52469 0.30541 0.0
H1354 H 0.21668 0.53109 0.25092 0.0
C1355 C 0.22647 0.53603 0.28417 0.0
H1356 H 0.23084 0.5703 0.28938 0.0
H1357 H 0.18222 0.50518 0.40853 0.0
O1358 O 0.42001 0.47806 0.35067 0.0
C1359 C 0.31744 0.47607 0.44277 0.0
Co1360 Co 0.61795 0.75723 0.6167 0.0
Co1361 Co 0.63502 0.78624 0.52247 0.0
C1362 C 0.64238 0.84534 0.59617 0.0
O1363 O 0.63038 0.81911 0.62436 0.0
O1364 O 0.64646 0.83487 0.55778 0.0
C1365 C 0.57014 0.72844 0.69624 0.0
O1366 O 0.53966 0.75633 0.69295 0.0
C1367 C 0.62125 0.84522 0.45358 0.0
C1368 C 0.64556 0.81174 0.39798 0.0
C1369 C 0.62828 0.84996 0.41076 0.0
N1370 N 0.63307 0.80623 0.46552 0.0
N1371 N 0.64647 0.7858 0.43174 0.0
C1372 C 0.60942 0.87983 0.4836 0.0
H1373 H 0.59092 0.86704 0.51041 0.0
H1374 H 0.59069 0.90457 0.4673 0.0
H1375 H 0.63863 0.89462 0.49611 0.0
C1376 C 0.539 0.72971 0.57688 0.0
N1377 N 0.57769 0.74654 0.57396 0.0
N1378 N 0.58172 0.76447 0.53676 0.0
C1379 C 0.54413 0.7633 0.51669 0.0
C1380 C 0.51589 0.74168 0.54193 0.0
C1381 C 0.52616 0.69685 0.60842 0.0
H1382 H 0.55433 0.68045 0.6212 0.0
H1383 H 0.50818 0.71115 0.63455 0.0
H1384 H 0.5051 0.67327 0.59324 0.0
O1385 O 0.67049 0.72985 0.60054 0.0
O1386 O 0.68261 0.74418 0.53274 0.0
H1387 H 0.55544 0.77459 0.45105 0.0
H1388 H 0.50094 0.781 0.46666 0.0
C1389 C 0.5342 0.78595 0.47644 0.0
H1390 H 0.53939 0.82022 0.48079 0.0
H1391 H 0.65856 0.75515 0.4322 0.0
O1392 O 0.60069 0.72811 0.67001 0.0
C1393 C 0.6928 0.72606 0.56744 0.0
Co1394 Co 0.61799 0.22876 0.86913 0.0
Co1395 Co 0.63505 0.19971 0.96334 0.0
C1396 C 0.64232 0.1406 0.88964 0.0
O1397 O 0.63034 0.16685 0.86146 0.0
O1398 O 0.6464 0.15105 0.92803 0.0
C1399 C 0.57013 0.2576 0.78966 0.0
O1400 O 0.53965 0.22973 0.793 0.0
C1401 C 0.62119 0.14078 0.03226 0.0
C1402 C 0.64571 0.17419 0.08782 0.0
C1403 C 0.6283 0.13602 0.07506 0.0
N1404 N 0.6331 0.17974 0.0203 0.0
N1405 N 0.64662 0.20013 0.05406 0.0
C1406 C 0.6092 0.10622 0.00226 0.0
H1407 H 0.59074 0.11908 0.97545 0.0
H1408 H 0.59037 0.08157 0.01857 0.0
H1409 H 0.63834 0.09131 0.98974 0.0
C1410 C 0.53919 0.2566 0.90907 0.0
N1411 N 0.57779 0.23954 0.91189 0.0
N1412 N 0.5818 0.2216 0.94909 0.0
C1413 C 0.54425 0.22297 0.96922 0.0
C1414 C 0.51608 0.24482 0.94409 0.0
C1415 C 0.52642 0.28945 0.87749 0.0
H1416 H 0.55462 0.30573 0.86465 0.0
H1417 H 0.50836 0.27515 0.8514 0.0
H1418 H 0.50545 0.31312 0.89265 0.0
O1419 O 0.67056 0.25605 0.88526 0.0
O1420 O 0.6827 0.2417 0.95306 0.0
H1421 H 0.55558 0.21163 0.03485 0.0
H1422 H 0.50105 0.20544 0.0193 0.0
C1423 C 0.53428 0.20036 0.00948 0.0
H1424 H 0.53935 0.16606 0.00512 0.0
H1425 H 0.65881 0.23074 0.05358 0.0
O1426 O 0.60073 0.25791 0.81583 0.0
C1427 C 0.69289 0.25981 0.91835 0.0
Co1428 Co 0.47878 0.11794 0.36665 0.0
Co1429 Co 0.44972 0.10084 0.27244 0.0
C1430 C 0.39064 0.09348 0.34617 0.0
O1431 O 0.41689 0.1055 0.37435 0.0
O1432 O 0.4011 0.08941 0.30778 0.0
C1433 C 0.50761 0.16578 0.44615 0.0
O1434 O 0.47968 0.19622 0.44288 0.0
C1435 C 0.39074 0.11461 0.20356 0.0
C1436 C 0.42418 0.0902 0.14797 0.0
C1437 C 0.38599 0.10754 0.16075 0.0
N1438 N 0.42972 0.10276 0.21549 0.0
N1439 N 0.45013 0.0893 0.18172 0.0
C1440 C 0.35616 0.12651 0.23357 0.0
H1441 H 0.36899 0.14498 0.26039 0.0
H1442 H 0.33146 0.1453 0.21728 0.0
H1443 H 0.34132 0.09734 0.24608 0.0
C1444 C 0.50627 0.19688 0.3268 0.0
N1445 N 0.48944 0.15819 0.3239 0.0
N1446 N 0.4715 0.15414 0.2867 0.0
C1447 C 0.47267 0.19173 0.26662 0.0
C1448 C 0.49429 0.21998 0.29185 0.0
C1449 C 0.53913 0.20974 0.35833 0.0
H1450 H 0.55554 0.18159 0.37112 0.0
H1451 H 0.52482 0.22773 0.38445 0.0
H1452 H 0.5627 0.2308 0.34314 0.0
O1453 O 0.50614 0.0654 0.35049 0.0
O1454 O 0.49178 0.05325 0.2827 0.0
H1455 H 0.46135 0.18035 0.201 0.0
H1456 H 0.45506 0.23488 0.21653 0.0
C1457 C 0.45004 0.20165 0.22636 0.0
H1458 H 0.41575 0.19653 0.23072 0.0
H1459 H 0.48076 0.07717 0.18219 0.0
O1460 O 0.50794 0.13521 0.41993 0.0
C1461 C 0.50991 0.04307 0.3174 0.0
Co1462 Co 0.36798 0.25709 0.8692 0.0
Co1463 Co 0.35085 0.2862 0.96339 0.0
C1464 C 0.34349 0.34523 0.88963 0.0
O1465 O 0.35552 0.31897 0.86147 0.0
O1466 O 0.33941 0.3348 0.92802 0.0
C1467 C 0.41584 0.22822 0.78972 0.0
O1468 O 0.44627 0.25616 0.79297 0.0
C1469 C 0.3646 0.34522 0.03226 0.0
C1470 C 0.34027 0.31176 0.08787 0.0
C1471 C 0.35757 0.34996 0.07508 0.0
N1472 N 0.35276 0.30623 0.02033 0.0
N1473 N 0.33935 0.28581 0.05412 0.0
C1474 C 0.37645 0.3798 0.00223 0.0
H1475 H 0.39494 0.36699 0.97542 0.0
H1476 H 0.3952 0.40454 0.01852 0.0
H1477 H 0.34725 0.3946 0.98971 0.0
C1478 C 0.44692 0.22964 0.90909 0.0
N1479 N 0.40822 0.24647 0.91197 0.0
N1480 N 0.40416 0.26443 0.94915 0.0
C1481 C 0.44175 0.26329 0.96924 0.0
C1482 C 0.47001 0.24166 0.94404 0.0
C1483 C 0.4598 0.19678 0.87758 0.0
H1484 H 0.43166 0.18035 0.8648 0.0
H1485 H 0.47779 0.21109 0.85145 0.0
H1486 H 0.48087 0.17323 0.89278 0.0
O1487 O 0.31545 0.22973 0.88537 0.0
O1488 O 0.30327 0.24412 0.95315 0.0
H1489 H 0.43037 0.27464 0.03486 0.0
H1490 H 0.48489 0.28097 0.01931 0.0
C1491 C 0.45165 0.28596 0.00948 0.0
H1492 H 0.4465 0.32023 0.0051 0.0
H1493 H 0.32725 0.25517 0.05367 0.0
O1494 O 0.38527 0.2279 0.81594 0.0
C1495 C 0.29311 0.22596 0.91845 0.0
Co1496 Co 0.00706 0.86791 0.8667 0.0
Co1497 Co 0.03613 0.88505 0.77249 0.0
C1498 C 0.09519 0.89238 0.84623 0.0
O1499 O 0.06895 0.88034 0.8744 0.0
O1500 O 0.08473 0.89648 0.80785 0.0
C1501 C 0.97821 0.82008 0.94622 0.0
O1502 O 0.00614 0.78964 0.94299 0.0
C1503 C 0.09515 0.87132 0.70362 0.0
C1504 C 0.06167 0.89559 0.648 0.0
C1505 C 0.09989 0.87832 0.6608 0.0
N1506 N 0.05616 0.88314 0.71555 0.0
N1507 N 0.03573 0.89652 0.68175 0.0
C1508 C 0.12975 0.8595 0.73365 0.0
H1509 H 0.11695 0.84098 0.76045 0.0
H1510 H 0.15451 0.84079 0.71736 0.0
H1511 H 0.14451 0.88871 0.74618 0.0
C1512 C 0.97961 0.78897 0.82682 0.0
N1513 N -0.00359 0.82768 0.82393 0.0
N1514 N 0.01436 0.83174 0.78674 0.0
C1515 C 0.01323 0.79416 0.76665 0.0
C1516 C 0.99162 0.76589 0.79186 0.0
C1517 C 0.94678 0.77607 0.85835 0.0
H1518 H 0.93033 0.80421 0.87113 0.0
H1519 H 0.96112 0.75812 0.88449 0.0
H1520 H 0.92324 0.75496 0.84318 0.0
O1521 O 0.97971 0.92045 0.85055 0.0
O1522 O -0.00595 0.93264 0.78277 0.0
H1523 H 0.02456 0.80552 0.70102 0.0
H1524 H 0.03095 0.75102 0.71659 0.0
C1525 C 0.0359 0.78426 0.7264 0.0
H1526 H 0.07017 0.78945 0.73078 0.0
H1527 H 0.00508 0.90859 0.6822 0.0
O1528 O 0.97789 0.85063 0.91998 0.0
C1529 C 0.97593 0.9428 0.81748 0.0
Co1530 Co 0.86791 0.22855 0.1168 0.0
Co1531 Co 0.85089 0.19959 0.02255 0.0
C1532 C 0.84349 0.14043 0.09621 0.0
O1533 O 0.85548 0.16665 0.12442 0.0
O1534 O 0.83944 0.15093 0.05782 0.0
C1535 C 0.91574 0.25733 0.19633 0.0
O1536 O 0.94622 0.22946 0.193 0.0
C1537 C 0.86466 0.14068 0.9536 0.0
C1538 C 0.84024 0.17417 0.89805 0.0
C1539 C 0.85757 0.13596 0.91079 0.0
N1540 N 0.85283 0.17965 0.96558 0.0
N1541 N 0.83937 0.2001 0.93182 0.0
C1542 C 0.87655 0.10607 0.98358 0.0
H1543 H 0.89502 0.11886 0.01042 0.0
H1544 H 0.89533 0.08138 0.96726 0.0
H1545 H 0.84737 0.09121 -0.00393 0.0
C1546 C 0.94686 0.25614 0.07702 0.0
N1547 N 0.90818 0.23927 0.07408 0.0
N1548 N 0.90417 0.22136 0.03687 0.0
C1549 C 0.94178 0.22257 0.01681 0.0
C1550 C 0.96999 0.2442 0.04207 0.0
C1551 C 0.95965 0.28902 0.10855 0.0
H1552 H 0.93147 0.30536 0.12135 0.0
H1553 H 0.97768 0.27474 0.13467 0.0
H1554 H 0.98066 0.31263 0.09336 0.0
O1555 O 0.81538 0.25592 0.10065 0.0
O1556 O 0.80328 0.24165 0.03283 0.0
H1557 H 0.93047 0.21134 0.95116 0.0
H1558 H 0.98497 0.20498 0.96676 0.0
C1559 C 0.95173 0.19998 0.97654 0.0
H1560 H 0.94657 0.16569 0.98086 0.0
H1561 H 0.82725 0.23073 0.93232 0.0
O1562 O 0.88516 0.25765 0.17012 0.0
C1563 C 0.79307 0.25973 0.06755 0.0
Co1564 Co 0.47858 0.86804 0.11896 0.0
Co1565 Co 0.44966 0.88501 0.21323 0.0
C1566 C 0.39045 0.89236 0.13961 0.0
O1567 O 0.41667 0.88041 0.11139 0.0
O1568 O 0.40095 0.89641 0.17799 0.0
C1569 C 0.50736 0.8202 0.03946 0.0
O1570 O 0.47955 0.78967 0.04287 0.0
C1571 C 0.39081 0.87112 0.28221 0.0
C1572 C 0.42427 0.89565 0.33773 0.0
C1573 C 0.38608 0.87825 0.32501 0.0
N1574 N 0.42976 0.88302 0.27021 0.0
N1575 N 0.45018 0.89655 0.30395 0.0
C1576 C 0.35621 0.85914 0.25224 0.0
H1577 H 0.36905 0.84071 0.2254 0.0
H1578 H 0.33158 0.8403 0.26857 0.0
H1579 H 0.34127 0.88829 0.23976 0.0
C1580 C 0.50651 0.78922 0.15881 0.0
N1581 N 0.48942 0.8278 0.16168 0.0
N1582 N 0.47152 0.83176 0.19889 0.0
C1583 C 0.47294 0.7942 0.219 0.0
C1584 C 0.49478 0.76607 0.19382 0.0
C1585 C 0.53939 0.77653 0.12723 0.0
H1586 H 0.55559 0.80477 0.11438 0.0
H1587 H 0.52514 0.75842 0.10115 0.0
H1588 H 0.56312 0.75563 0.14239 0.0
O1589 O 0.50592 0.9206 0.1351 0.0
O1590 O 0.49166 0.93265 0.20293 0.0
H1591 H 0.4617 0.80546 0.28466 0.0
H1592 H 0.45545 0.75095 0.26905 0.0
C1593 C 0.45037 0.78419 0.25927 0.0
H1594 H 0.41608 0.78929 0.25497 0.0
H1595 H 0.48079 0.90873 0.30343 0.0
O1596 O 0.50766 0.85082 0.06562 0.0
C1597 C 0.50973 0.94289 0.16821 0.0
Co1598 Co 0.50731 0.61791 0.11902 0.0
Co1599 Co 0.53631 0.60087 0.21326 0.0
C1600 C 0.59543 0.59345 0.13958 0.0
O1601 O 0.5692 0.60545 0.11138 0.0
O1602 O 0.58495 0.5894 0.17796 0.0
C1603 C 0.47849 0.66576 0.0395 0.0
O1604 O 0.50636 0.69624 0.04281 0.0
C1605 C 0.59525 0.61462 0.2822 0.0
C1606 C 0.56173 0.59029 0.33777 0.0
C1607 C 0.59995 0.60758 0.32502 0.0
N1608 N 0.55626 0.60281 0.27023 0.0
N1609 N 0.53581 0.5894 0.30399 0.0
C1610 C 0.62987 0.62646 0.2522 0.0
H1611 H 0.61709 0.64495 0.22538 0.0
H1612 H 0.65459 0.64521 0.26852 0.0
H1613 H 0.64468 0.59726 0.23972 0.0
C1614 C 0.47977 0.69687 0.15882 0.0
N1615 N 0.49663 0.65819 0.16174 0.0
N1616 N 0.51455 0.65417 0.19895 0.0
C1617 C 0.51337 0.69177 0.21901 0.0
C1618 C 0.49173 0.71999 0.19377 0.0
C1619 C 0.44688 0.70968 0.12731 0.0
H1620 H 0.43052 0.6815 0.11452 0.0
H1621 H 0.46114 0.72771 0.10119 0.0
H1622 H 0.42327 0.73069 0.14252 0.0
O1623 O 0.47992 0.5654 0.13518 0.0
O1624 O 0.49422 0.55329 0.20299 0.0
H1625 H 0.52462 0.68047 0.28466 0.0
H1626 H 0.53102 0.73496 0.26905 0.0
C1627 C 0.53599 0.70171 0.25927 0.0
H1628 H 0.57027 0.69652 0.25494 0.0
H1629 H 0.50516 0.57731 0.3035 0.0
O1630 O 0.47818 0.63518 0.06571 0.0
C1631 C 0.47611 0.54309 0.16828 0.0
loop_
_geom_bond_atom_site_label_1
_geom_bond_atom_site_label_2
_geom_bond_distance
_geom_bond_site_symmetry_2
_ccdc_geom_bond_type
Co0 O3 1.970 . S
Co0 N17 1.989 . S
Co0 O25 1.967 . S
Co0 O32 1.920 . S
Co1 O4 1.966 . S
Co1 N10 2.022 . S
Co1 N18 1.993 . S
Co1 O26 1.941 . S
C2 O3 1.258 . S
C2 O4 1.263 . S
O3 Co0 1.970 . S
O3 C2 1.258 . S
O4 Co1 1.966 . S
O4 C2 1.263 . S
C5 O6 1.235 . S
C5 O32 1.289 . S
O6 C5 1.235 . S
C7 C9 1.400 1_455 S
C7 N10 1.351 . S
C7 C12 1.501 . S
C8 C9 1.387 . S
C8 N11 1.341 . S
C9 C7 1.400 1_655 S
C9 C8 1.387 . S
N10 Co1 2.022 . S
N10 C7 1.351 . S
N10 N11 1.365 1_455 S
N11 C8 1.341 . S
N11 N10 1.365 1_655 S
N11 H31 0.862 . S
C12 C7 1.501 . S
C12 H13 0.961 . S
C12 H14 0.961 . S
C12 H15 0.960 . S
H13 C12 0.961 . S
H14 C12 0.961 . S
H15 C12 0.960 . S
C16 N17 1.342 . S
C16 C20 1.401 . S
C16 C21 1.499 . S
N17 Co0 1.989 . S
N17 C16 1.342 . S
N17 N18 1.388 . S
N18 Co1 1.993 . S
N18 N17 1.388 . S
N18 C19 1.346 . S
C19 N18 1.346 . S
C19 C20 1.396 . S
C19 C29 1.510 . S
C20 C16 1.401 . S
C20 C19 1.396 . S
C21 C16 1.499 . S
C21 H22 0.959 . S
C21 H23 0.960 . S
C21 H24 0.961 . S
H22 C21 0.959 . S
H23 C21 0.960 . S
H24 C21 0.961 . S
O25 Co0 1.967 . S
O25 C33 1.258 . S
O26 Co1 1.941 . S
O26 C33 1.266 . S
H27 C29 0.959 . S
H28 C29 0.961 . S
C29 C19 1.510 . S
C29 H27 0.959 . S
C29 H28 0.961 . S
C29 H30 0.960 . S
H30 C29 0.960 . S
H31 N11 0.862 . S
O32 Co0 1.920 . S
O32 C5 1.289 . S
C33 O25 1.258 . S
C33 O26 1.266 . S
Co34 O37 1.970 . S
Co34 N51 1.989 . S
Co34 O59 1.967 1_556 S
Co34 O66 1.920 1_556 S
Co35 O38 1.966 . S
Co35 N44 2.022 . S
Co35 N52 1.993 . S
Co35 O60 1.941 . S
C36 O37 1.258 . S
C36 O38 1.263 . S
O37 Co34 1.970 . S
O37 C36 1.258 . S
O38 Co35 1.966 . S
O38 C36 1.263 . S
C39 O40 1.235 . S
C39 O66 1.289 1_556 S
O40 C39 1.235 . S
C41 C43 1.400 . S
C41 N44 1.351 . S
C41 C46 1.501 . S
C42 C43 1.387 . S
C42 N45 1.341 . S
C43 C41 1.400 . S
C43 C42 1.387 . S
N44 Co35 2.022 . S
N44 C41 1.351 . S
N44 N45 1.365 . S
N45 C42 1.341 . S
N45 N44 1.365 . S
N45 H65 0.862 . S
C46 C41 1.501 . S
C46 H47 0.961 . S
C46 H48 0.961 . S
C46 H49 0.960 . S
H47 C46 0.961 . S
H48 C46 0.961 . S
H49 C46 0.960 . S
C50 N51 1.342 . S
C50 C54 1.401 . S
C50 C55 1.499 1_556 S
N51 Co34 1.989 . S
N51 C50 1.342 . S
N51 N52 1.388 . S
N52 Co35 1.993 . S
N52 N51 1.388 . S
N52 C53 1.346 . S
C53 N52 1.346 . S
C53 C54 1.396 . S
C53 C63 1.510 . S
C54 C50 1.401 . S
C54 C53 1.396 . S
C55 C50 1.499 1_554 S
C55 H56 0.959 . S
C55 H57 0.960 1_554 S
C55 H58 0.961 . S
H56 C55 0.959 . S
H57 C55 0.960 1_556 S
H58 C55 0.961 . S
O59 Co34 1.967 1_554 S
O59 C67 1.258 . S
O60 Co35 1.941 . S
O60 C67 1.266 1_556 S
H61 C63 0.959 . S
H62 C63 0.961 . S
C63 C53 1.510 . S
C63 H61 0.959 . S
C63 H62 0.961 . S
C63 H64 0.960 . S
H64 C63 0.960 . S
H65 N45 0.862 . S
O66 Co34 1.920 1_554 S
O66 C39 1.289 1_554 S
C67 O59 1.258 . S
C67 O60 1.266 1_554 S
Co68 O71 1.970 . S
Co68 N85 1.989 . S
Co68 O93 1.967 . S
Co68 O100 1.920 . S
Co69 O72 1.966 . S
Co69 N78 2.022 . S
Co69 N86 1.993 . S
Co69 O94 1.941 . S
C70 O71 1.258 . S
C70 O72 1.263 . S
O71 Co68 1.970 . S
O71 C70 1.258 . S
O72 Co69 1.966 . S
O72 C70 1.263 . S
C73 O74 1.235 . S
C73 O100 1.289 . S
O74 C73 1.235 . S
C75 C77 1.400 1_655 S
C75 N78 1.351 . S
C75 C80 1.501 . S
C76 C77 1.387 . S
C76 N79 1.341 . S
C77 C75 1.400 1_455 S
C77 C76 1.387 . S
N78 Co69 2.022 . S
N78 C75 1.351 . S
N78 N79 1.365 1_655 S
N79 C76 1.341 . S
N79 N78 1.365 1_455 S
N79 H99 0.862 . S
C80 C75 1.501 . S
C80 H81 0.961 . S
C80 H82 0.961 . S
C80 H83 0.960 . S
H81 C80 0.961 . S
H82 C80 0.961 . S
H83 C80 0.960 . S
C84 N85 1.342 . S
C84 C88 1.401 . S
C84 C89 1.499 . S
N85 Co68 1.989 . S
N85 C84 1.342 . S
N85 N86 1.388 . S
N86 Co69 1.993 . S
N86 N85 1.388 . S
N86 C87 1.346 . S
C87 N86 1.346 . S
C87 C88 1.396 . S
C87 C97 1.510 . S
C88 C84 1.401 . S
C88 C87 1.396 . S
C89 C84 1.499 . S
C89 H90 0.959 . S
C89 H91 0.960 . S
C89 H92 0.961 . S
H90 C89 0.959 . S
H91 C89 0.960 . S
H92 C89 0.961 . S
O93 Co68 1.967 . S
O93 C101 1.258 . S
O94 Co69 1.941 . S
O94 C101 1.266 . S
H95 C97 0.959 . S
H96 C97 0.961 . S
C97 C87 1.510 . S
C97 H95 0.959 . S
C97 H96 0.961 . S
C97 H98 0.960 . S
H98 C97 0.960 . S
H99 N79 0.862 . S
O100 Co68 1.920 . S
O100 C73 1.289 . S
C101 O93 1.258 . S
C101 O94 1.266 . S
Co102 O105 1.970 . S
Co102 N119 1.989 . S
Co102 O127 1.967 1_556 S
Co102 O134 1.920 1_556 S
Co103 O106 1.966 . S
Co103 N112 2.022 . S
Co103 N120 1.993 . S
Co103 O128 1.941 . S
C104 O105 1.258 . S
C104 O106 1.263 . S
O105 Co102 1.970 . S
O105 C104 1.258 . S
O106 Co103 1.966 . S
O106 C104 1.263 . S
C107 O108 1.235 . S
C107 O134 1.289 1_546 S
O108 C107 1.235 . S
C109 C111 1.400 . S
C109 N112 1.351 . S
C109 C114 1.501 . S
C110 C111 1.387 . S
C110 N113 1.341 . S
C111 C109 1.400 . S
C111 C110 1.387 . S
N112 Co103 2.022 . S
N112 C109 1.351 . S
N112 N113 1.365 . S
N113 C110 1.341 . S
N113 N112 1.365 . S
N113 H133 0.862 . S
C114 C109 1.501 . S
C114 H115 0.961 . S
C114 H116 0.961 . S
C114 H117 0.960 . S
H115 C114 0.961 . S
H116 C114 0.961 . S
H117 C114 0.960 . S
C118 N119 1.342 . S
C118 C122 1.401 . S
C118 C123 1.499 1_556 S
N119 Co102 1.989 . S
N119 C118 1.342 . S
N119 N120 1.388 . S
N120 Co103 1.993 . S
N120 N119 1.388 . S
N120 C121 1.346 . S
C121 N120 1.346 . S
C121 C122 1.396 . S
C121 C131 1.510 . S
C122 C118 1.401 . S
C122 C121 1.396 . S
C123 C118 1.499 1_554 S
C123 H124 0.959 . S
C123 H125 0.960 1_554 S
C123 H126 0.961 . S
H124 C123 0.959 . S
H125 C123 0.960 1_556 S
H126 C123 0.961 . S
O127 Co102 1.967 1_554 S
O127 C135 1.258 . S
O128 Co103 1.941 . S
O128 C135 1.266 1_556 S
H129 C131 0.959 . S
H130 C131 0.961 . S
C131 C121 1.510 . S
C131 H129 0.959 . S
C131 H130 0.961 . S
C131 H132 0.960 . S
H132 C131 0.960 . S
H133 N113 0.862 . S
O134 Co102 1.920 1_554 S
O134 C107 1.289 1_564 S
C135 O127 1.258 . S
C135 O128 1.266 1_554 S
Co136 O139 1.970 . S
Co136 N153 1.989 . S
Co136 O161 1.967 . S
Co136 O168 1.920 . S
Co137 O140 1.966 . S
Co137 N146 2.022 . S
Co137 N154 1.993 . S
Co137 O162 1.941 . S
C138 O139 1.258 . S
C138 O140 1.263 . S
O139 Co136 1.970 . S
O139 C138 1.258 . S
O140 Co137 1.966 . S
O140 C138 1.263 . S
C141 O142 1.235 . S
C141 O168 1.289 . S
O142 C141 1.235 . S
C143 C145 1.400 1_455 S
C143 N146 1.351 . S
C143 C148 1.501 . S
C144 C145 1.387 . S
C144 N147 1.341 . S
C145 C143 1.400 1_655 S
C145 C144 1.387 . S
N146 Co137 2.022 . S
N146 C143 1.351 . S
N146 N147 1.365 1_455 S
N147 C144 1.341 . S
N147 N146 1.365 1_655 S
N147 H167 0.862 . S
C148 C143 1.501 . S
C148 H149 0.961 . S
C148 H150 0.961 . S
C148 H151 0.960 . S
H149 C148 0.961 . S
H150 C148 0.961 . S
H151 C148 0.960 . S
C152 N153 1.342 . S
C152 C156 1.401 . S
C152 C157 1.499 . S
N153 Co136 1.989 . S
N153 C152 1.342 . S
N153 N154 1.388 . S
N154 Co137 1.993 . S
N154 N153 1.388 . S
N154 C155 1.346 . S
C155 N154 1.346 . S
C155 C156 1.396 . S
C155 C165 1.510 . S
C156 C152 1.401 . S
C156 C155 1.396 . S
C157 C152 1.499 . S
C157 H158 0.959 . S
C157 H159 0.960 . S
C157 H160 0.961 . S
H158 C157 0.959 . S
H159 C157 0.960 . S
H160 C157 0.961 . S
O161 Co136 1.967 . S
O161 C169 1.258 . S
O162 Co137 1.941 . S
O162 C169 1.266 . S
H163 C165 0.959 . S
H164 C165 0.961 . S
C165 C155 1.510 . S
C165 H163 0.959 . S
C165 H164 0.961 . S
C165 H166 0.960 . S
H166 C165 0.960 . S
H167 N147 0.862 . S
O168 Co136 1.920 . S
O168 C141 1.289 . S
C169 O161 1.258 . S
C169 O162 1.266 . S
Co170 O173 1.970 . S
Co170 N187 1.989 . S
Co170 O195 1.967 1_554 S
Co170 O202 1.920 1_554 S
Co171 O174 1.966 . S
Co171 N180 2.022 . S
Co171 N188 1.993 . S
Co171 O196 1.941 . S
C172 O173 1.258 . S
C172 O174 1.263 . S
O173 Co170 1.970 . S
O173 C172 1.258 . S
O174 Co171 1.966 . S
O174 C172 1.263 . S
C175 O176 1.235 . S
C175 O202 1.289 1_554 S
O176 C175 1.235 . S
C177 C179 1.400 . S
C177 N180 1.351 . S
C177 C182 1.501 . S
C178 C179 1.387 . S
C178 N181 1.341 . S
C179 C177 1.400 . S
C179 C178 1.387 . S
N180 Co171 2.022 . S
N180 C177 1.351 . S
N180 N181 1.365 . S
N181 C178 1.341 . S
N181 N180 1.365 . S
N181 H201 0.862 . S
C182 C177 1.501 . S
C182 H183 0.961 . S
C182 H184 0.961 . S
C182 H185 0.960 . S
H183 C182 0.961 . S
H184 C182 0.961 . S
H185 C182 0.960 . S
C186 N187 1.342 . S
C186 C190 1.401 . S
C186 C191 1.499 1_554 S
N187 Co170 1.989 . S
N187 C186 1.342 . S
N187 N188 1.388 . S
N188 Co171 1.993 . S
N188 N187 1.388 . S
N188 C189 1.346 . S
C189 N188 1.346 . S
C189 C190 1.396 . S
C189 C199 1.510 . S
C190 C186 1.401 . S
C190 C189 1.396 . S
C191 C186 1.499 1_556 S
C191 H192 0.959 . S
C191 H193 0.960 1_556 S
C191 H194 0.961 . S
H192 C191 0.959 . S
H193 C191 0.960 1_554 S
H194 C191 0.961 . S
O195 Co170 1.967 1_556 S
O195 C203 1.258 . S
O196 Co171 1.941 . S
O196 C203 1.266 1_554 S
H197 C199 0.959 . S
H198 C199 0.961 . S
C199 C189 1.510 . S
C199 H197 0.959 . S
C199 H198 0.961 . S
C199 H200 0.960 . S
H200 C199 0.960 . S
H201 N181 0.862 . S
O202 Co170 1.920 1_556 S
O202 C175 1.289 1_556 S
C203 O195 1.258 . S
C203 O196 1.266 1_556 S
Co204 O207 1.970 . S
Co204 N221 1.989 . S
Co204 O229 1.967 . S
Co204 O236 1.920 . S
Co205 O208 1.966 . S
Co205 N214 2.022 . S
Co205 N222 1.993 . S
Co205 O230 1.941 . S
C206 O207 1.258 . S
C206 O208 1.263 . S
O207 Co204 1.970 . S
O207 C206 1.258 . S
O208 Co205 1.966 . S
O208 C206 1.263 . S
C209 O210 1.235 . S
C209 O236 1.289 . S
O210 C209 1.235 . S
C211 C213 1.400 1_655 S
C211 N214 1.351 . S
C211 C216 1.501 . S
C212 C213 1.387 . S
C212 N215 1.341 . S
C213 C211 1.400 1_455 S
C213 C212 1.387 . S
N214 Co205 2.022 . S
N214 C211 1.351 . S
N214 N215 1.365 1_655 S
N215 C212 1.341 . S
N215 N214 1.365 1_455 S
N215 H235 0.862 . S
C216 C211 1.501 . S
C216 H217 0.961 . S
C216 H218 0.961 . S
C216 H219 0.960 . S
H217 C216 0.961 . S
H218 C216 0.961 . S
H219 C216 0.960 . S
C220 N221 1.342 . S
C220 C224 1.401 . S
C220 C225 1.499 . S
N221 Co204 1.989 . S
N221 C220 1.342 . S
N221 N222 1.388 . S
N222 Co205 1.993 . S
N222 N221 1.388 . S
N222 C223 1.346 . S
C223 N222 1.346 . S
C223 C224 1.396 . S
C223 C233 1.510 . S
C224 C220 1.401 . S
C224 C223 1.396 . S
C225 C220 1.499 . S
C225 H226 0.959 . S
C225 H227 0.960 . S
C225 H228 0.961 . S
H226 C225 0.959 . S
H227 C225 0.960 . S
H228 C225 0.961 . S
O229 Co204 1.967 . S
O229 C237 1.258 . S
O230 Co205 1.941 . S
O230 C237 1.266 . S
H231 C233 0.959 . S
H232 C233 0.961 . S
C233 C223 1.510 . S
C233 H231 0.959 . S
C233 H232 0.961 . S
C233 H234 0.960 . S
H234 C233 0.960 . S
H235 N215 0.862 . S
O236 Co204 1.920 . S
O236 C209 1.289 . S
C237 O229 1.258 . S
C237 O230 1.266 . S
Co238 O241 1.970 . S
Co238 N255 1.989 . S
Co238 O263 1.967 1_554 S
Co238 O270 1.920 1_554 S
Co239 O242 1.966 . S
Co239 N248 2.022 . S
Co239 N256 1.993 . S
Co239 O264 1.941 . S
C240 O241 1.258 . S
C240 O242 1.263 . S
O241 Co238 1.970 . S
O241 C240 1.258 . S
O242 Co239 1.966 . S
O242 C240 1.263 . S
C243 O244 1.235 . S
C243 O270 1.289 1_544 S
O244 C243 1.235 . S
C245 C247 1.400 . S
C245 N248 1.351 . S
C245 C250 1.501 . S
C246 C247 1.387 . S
C246 N249 1.341 . S
C247 C245 1.400 . S
C247 C246 1.387 . S
N248 Co239 2.022 . S
N248 C245 1.351 . S
N248 N249 1.365 . S
N249 C246 1.341 . S
N249 N248 1.365 . S
N249 H269 0.862 . S
C250 C245 1.501 . S
C250 H251 0.961 . S
C250 H252 0.961 . S
C250 H253 0.960 . S
H251 C250 0.961 . S
H252 C250 0.961 . S
H253 C250 0.960 . S
C254 N255 1.342 . S
C254 C258 1.401 . S
C254 C259 1.499 1_554 S
N255 Co238 1.989 . S
N255 C254 1.342 . S
N255 N256 1.388 . S
N256 Co239 1.993 . S
N256 N255 1.388 . S
N256 C257 1.346 . S
C257 N256 1.346 . S
C257 C258 1.396 . S
C257 C267 1.510 . S
C258 C254 1.401 . S
C258 C257 1.396 . S
C259 C254 1.499 1_556 S
C259 H260 0.959 . S
C259 H261 0.960 1_556 S
C259 H262 0.961 . S
H260 C259 0.959 . S
H261 C259 0.960 1_554 S
H262 C259 0.961 . S
O263 Co238 1.967 1_556 S
O263 C271 1.258 . S
O264 Co239 1.941 . S
O264 C271 1.266 1_554 S
H265 C267 0.959 . S
H266 C267 0.961 . S
C267 C257 1.510 . S
C267 H265 0.959 . S
C267 H266 0.961 . S
C267 H268 0.960 . S
H268 C267 0.960 . S
H269 N249 0.862 . S
O270 Co238 1.920 1_556 S
O270 C243 1.289 1_566 S
C271 O263 1.258 . S
C271 O264 1.266 1_556 S
Co272 O275 1.970 . S
Co272 N289 1.989 . S
Co272 O297 1.967 . S
Co272 O304 1.920 . S
Co273 O276 1.966 . S
Co273 N282 2.022 . S
Co273 N290 1.993 . S
Co273 O298 1.941 . S
C274 O275 1.258 . S
C274 O276 1.263 . S
O275 Co272 1.970 . S
O275 C274 1.258 . S
O276 Co273 1.966 . S
O276 C274 1.263 . S
C277 O278 1.235 . S
C277 O304 1.289 . S
O278 C277 1.235 . S
C279 C281 1.400 1_545 S
C279 N282 1.351 . S
C279 C284 1.501 . S
C280 C281 1.387 . S
C280 N283 1.341 . S
C281 C279 1.400 1_565 S
C281 C280 1.387 . S
N282 Co273 2.022 . S
N282 C279 1.351 . S
N282 N283 1.365 1_545 S
N283 C280 1.341 . S
N283 N282 1.365 1_565 S
N283 H303 0.862 . S
C284 C279 1.501 . S
C284 H285 0.961 . S
C284 H286 0.961 . S
C284 H287 0.960 . S
H285 C284 0.961 . S
H286 C284 0.961 . S
H287 C284 0.960 . S
C288 N289 1.342 . S
C288 C292 1.401 . S
C288 C293 1.499 . S
N289 Co272 1.989 . S
N289 C288 1.342 . S
N289 N290 1.388 . S
N290 Co273 1.993 . S
N290 N289 1.388 . S
N290 C291 1.346 . S
C291 N290 1.346 . S
C291 C292 1.396 . S
C291 C301 1.510 . S
C292 C288 1.401 . S
C292 C291 1.396 . S
C293 C288 1.499 . S
C293 H294 0.959 . S
C293 H295 0.960 . S
C293 H296 0.961 . S
H294 C293 0.959 . S
H295 C293 0.960 . S
H296 C293 0.961 . S
O297 Co272 1.967 . S
O297 C305 1.258 . S
O298 Co273 1.941 . S
O298 C305 1.266 . S
H299 C301 0.959 . S
H300 C301 0.961 . S
C301 C291 1.510 . S
C301 H299 0.959 . S
C301 H300 0.961 . S
C301 H302 0.960 . S
H302 C301 0.960 . S
H303 N283 0.862 . S
O304 Co272 1.920 . S
O304 C277 1.289 . S
C305 O297 1.258 . S
C305 O298 1.266 . S
Co306 O309 1.970 . S
Co306 N323 1.989 . S
Co306 O331 1.967 . S
Co306 O338 1.920 . S
Co307 O310 1.966 . S
Co307 N316 2.022 . S
Co307 N324 1.993 . S
Co307 O332 1.941 . S
C308 O309 1.258 . S
C308 O310 1.263 . S
O309 Co306 1.970 . S
O309 C308 1.258 . S
O310 Co307 1.966 . S
O310 C308 1.263 . S
C311 O312 1.235 . S
C311 O338 1.289 . S
O312 C311 1.235 . S
C313 C315 1.400 . S
C313 N316 1.351 . S
C313 C318 1.501 . S
C314 C315 1.387 . S
C314 N317 1.341 . S
C315 C313 1.400 . S
C315 C314 1.387 . S
N316 Co307 2.022 . S
N316 C313 1.351 . S
N316 N317 1.365 . S
N317 C314 1.341 . S
N317 N316 1.365 . S
N317 H337 0.862 . S
C318 C313 1.501 . S
C318 H319 0.961 . S
C318 H320 0.961 . S
C318 H321 0.960 . S
H319 C318 0.961 . S
H320 C318 0.961 . S
H321 C318 0.960 . S
C322 N323 1.342 . S
C322 C326 1.401 . S
C322 C327 1.499 . S
N323 Co306 1.989 . S
N323 C322 1.342 . S
N323 N324 1.388 . S
N324 Co307 1.993 . S
N324 N323 1.388 . S
N324 C325 1.346 . S
C325 N324 1.346 . S
C325 C326 1.396 . S
C325 C335 1.510 . S
C326 C322 1.401 . S
C326 C325 1.396 . S
C327 C322 1.499 . S
C327 H328 0.959 . S
C327 H329 0.960 . S
C327 H330 0.961 . S
H328 C327 0.959 . S
H329 C327 0.960 . S
H330 C327 0.961 . S
O331 Co306 1.967 . S
O331 C339 1.258 . S
O332 Co307 1.941 . S
O332 C339 1.266 . S
H333 C335 0.959 . S
H334 C335 0.961 . S
C335 C325 1.510 . S
C335 H333 0.959 . S
C335 H334 0.961 . S
C335 H336 0.960 . S
H336 C335 0.960 . S
H337 N317 0.862 . S
O338 Co306 1.920 . S
O338 C311 1.289 . S
C339 O331 1.258 . S
C339 O332 1.266 . S
Co340 O343 1.970 . S
Co340 N357 1.989 . S
Co340 O365 1.967 . S
Co340 O372 1.920 . S
Co341 O344 1.966 . S
Co341 N350 2.022 . S
Co341 N358 1.993 . S
Co341 O366 1.941 . S
C342 O343 1.258 . S
C342 O344 1.263 . S
O343 Co340 1.970 . S
O343 C342 1.258 . S
O344 Co341 1.966 . S
O344 C342 1.263 . S
C345 O346 1.235 . S
C345 O372 1.289 . S
O346 C345 1.235 . S
C347 C349 1.400 . S
C347 N350 1.351 . S
C347 C352 1.501 . S
C348 C349 1.387 . S
C348 N351 1.341 . S
C349 C347 1.400 . S
C349 C348 1.387 . S
N350 Co341 2.022 . S
N350 C347 1.351 . S
N350 N351 1.365 . S
N351 C348 1.341 . S
N351 N350 1.365 . S
N351 H371 0.862 . S
C352 C347 1.501 . S
C352 H353 0.961 . S
C352 H354 0.961 . S
C352 H355 0.960 . S
H353 C352 0.961 . S
H354 C352 0.961 . S
H355 C352 0.960 . S
C356 N357 1.342 . S
C356 C360 1.401 . S
C356 C361 1.499 . S
N357 Co340 1.989 . S
N357 C356 1.342 . S
N357 N358 1.388 . S
N358 Co341 1.993 . S
N358 N357 1.388 . S
N358 C359 1.346 . S
C359 N358 1.346 . S
C359 C360 1.396 . S
C359 C369 1.510 . S
C360 C356 1.401 . S
C360 C359 1.396 . S
C361 C356 1.499 . S
C361 H362 0.959 . S
C361 H363 0.960 . S
C361 H364 0.961 . S
H362 C361 0.959 . S
H363 C361 0.960 . S
H364 C361 0.961 . S
O365 Co340 1.967 . S
O365 C373 1.258 . S
O366 Co341 1.941 . S
O366 C373 1.266 . S
H367 C369 0.959 . S
H368 C369 0.961 . S
C369 C359 1.510 . S
C369 H367 0.959 . S
C369 H368 0.961 . S
C369 H370 0.960 . S
H370 C369 0.960 . S
H371 N351 0.862 . S
O372 Co340 1.920 . S
O372 C345 1.289 . S
C373 O365 1.258 . S
C373 O366 1.266 . S
Co374 O377 1.970 . S
Co374 N391 1.989 . S
Co374 O399 1.967 1_545 S
Co374 O406 1.920 1_545 S
Co375 O378 1.966 . S
Co375 N384 2.022 . S
Co375 N392 1.993 . S
Co375 O400 1.941 . S
C376 O377 1.258 . S
C376 O378 1.263 . S
O377 Co374 1.970 . S
O377 C376 1.258 . S
O378 Co375 1.966 . S
O378 C376 1.263 . S
C379 O380 1.235 . S
C379 O406 1.289 1_545 S
O380 C379 1.235 . S
C381 C383 1.400 . S
C381 N384 1.351 . S
C381 C386 1.501 . S
C382 C383 1.387 . S
C382 N385 1.341 . S
C383 C381 1.400 . S
C383 C382 1.387 . S
N384 Co375 2.022 . S
N384 C381 1.351 . S
N384 N385 1.365 . S
N385 C382 1.341 . S
N385 N384 1.365 . S
N385 H405 0.862 . S
C386 C381 1.501 . S
C386 H387 0.961 . S
C386 H388 0.961 . S
C386 H389 0.960 . S
H387 C386 0.961 . S
H388 C386 0.961 . S
H389 C386 0.960 . S
C390 N391 1.342 . S
C390 C394 1.401 . S
C390 C395 1.499 1_545 S
N391 Co374 1.989 . S
N391 C390 1.342 . S
N391 N392 1.388 . S
N392 Co375 1.993 . S
N392 N391 1.388 . S
N392 C393 1.346 . S
C393 N392 1.346 . S
C393 C394 1.396 . S
C393 C403 1.510 . S
C394 C390 1.401 . S
C394 C393 1.396 . S
C395 C390 1.499 1_565 S
C395 H396 0.959 . S
C395 H397 0.960 1_565 S
C395 H398 0.961 . S
H396 C395 0.959 . S
H397 C395 0.960 1_545 S
H398 C395 0.961 . S
O399 Co374 1.967 1_565 S
O399 C407 1.258 . S
O400 Co375 1.941 . S
O400 C407 1.266 1_545 S
H401 C403 0.959 . S
H402 C403 0.961 . S
C403 C393 1.510 . S
C403 H401 0.959 . S
C403 H402 0.961 . S
C403 H404 0.960 . S
H404 C403 0.960 . S
H405 N385 0.862 . S
O406 Co374 1.920 1_565 S
O406 C379 1.289 1_565 S
C407 O399 1.258 . S
C407 O400 1.266 1_565 S
Co408 O411 1.970 . S
Co408 N425 1.989 . S
Co408 O433 1.967 . S
Co408 O440 1.920 . S
Co409 O412 1.966 . S
Co409 N418 2.022 . S
Co409 N426 1.993 . S
Co409 O434 1.941 . S
C410 O411 1.258 . S
C410 O412 1.263 . S
O411 Co408 1.970 . S
O411 C410 1.258 . S
O412 Co409 1.966 . S
O412 C410 1.263 . S
C413 O414 1.235 . S
C413 O440 1.289 . S
O414 C413 1.235 . S
C415 C417 1.400 1_565 S
C415 N418 1.351 . S
C415 C420 1.501 . S
C416 C417 1.387 . S
C416 N419 1.341 . S
C417 C415 1.400 1_545 S
C417 C416 1.387 . S
N418 Co409 2.022 . S
N418 C415 1.351 . S
N418 N419 1.365 1_565 S
N419 C416 1.341 . S
N419 N418 1.365 1_545 S
N419 H439 0.862 . S
C420 C415 1.501 . S
C420 H421 0.961 . S
C420 H422 0.961 . S
C420 H423 0.960 . S
H421 C420 0.961 . S
H422 C420 0.961 . S
H423 C420 0.960 . S
C424 N425 1.342 . S
C424 C428 1.401 . S
C424 C429 1.499 . S
N425 Co408 1.989 . S
N425 C424 1.342 . S
N425 N426 1.388 . S
N426 Co409 1.993 . S
N426 N425 1.388 . S
N426 C427 1.346 . S
C427 N426 1.346 . S
C427 C428 1.396 . S
C427 C437 1.510 . S
C428 C424 1.401 . S
C428 C427 1.396 . S
C429 C424 1.499 . S
C429 H430 0.959 . S
C429 H431 0.960 . S
C429 H432 0.961 . S
H430 C429 0.959 . S
H431 C429 0.960 . S
H432 C429 0.961 . S
O433 Co408 1.967 . S
O433 C441 1.258 . S
O434 Co409 1.941 . S
O434 C441 1.266 . S
H435 C437 0.959 . S
H436 C437 0.961 . S
C437 C427 1.510 . S
C437 H435 0.959 . S
C437 H436 0.961 . S
C437 H438 0.960 . S
H438 C437 0.960 . S
H439 N419 0.862 . S
O440 Co408 1.920 . S
O440 C413 1.289 . S
C441 O433 1.258 . S
C441 O434 1.266 . S
Co442 O445 1.970 . S
Co442 N459 1.989 . S
Co442 O467 1.967 . S
Co442 O474 1.920 . S
Co443 O446 1.966 . S
Co443 N452 2.022 . S
Co443 N460 1.993 . S
Co443 O468 1.941 . S
C444 O445 1.258 . S
C444 O446 1.263 . S
O445 Co442 1.970 . S
O445 C444 1.258 . S
O446 Co443 1.966 . S
O446 C444 1.263 . S
C447 O448 1.235 . S
C447 O474 1.289 1_655 S
O448 C447 1.235 . S
C449 C451 1.400 . S
C449 N452 1.351 . S
C449 C454 1.501 . S
C450 C451 1.387 . S
C450 N453 1.341 . S
C451 C449 1.400 . S
C451 C450 1.387 . S
N452 Co443 2.022 . S
N452 C449 1.351 . S
N452 N453 1.365 . S
N453 C450 1.341 . S
N453 N452 1.365 . S
N453 H473 0.862 . S
C454 C449 1.501 . S
C454 H455 0.961 . S
C454 H456 0.961 . S
C454 H457 0.960 . S
H455 C454 0.961 . S
H456 C454 0.961 . S
H457 C454 0.960 . S
C458 N459 1.342 . S
C458 C462 1.401 . S
C458 C463 1.499 . S
N459 Co442 1.989 . S
N459 C458 1.342 . S
N459 N460 1.388 . S
N460 Co443 1.993 . S
N460 N459 1.388 . S
N460 C461 1.346 . S
C461 N460 1.346 . S
C461 C462 1.396 . S
C461 C471 1.510 . S
C462 C458 1.401 . S
C462 C461 1.396 . S
C463 C458 1.499 . S
C463 H464 0.959 . S
C463 H465 0.960 . S
C463 H466 0.961 . S
H464 C463 0.959 . S
H465 C463 0.960 . S
H466 C463 0.961 . S
O467 Co442 1.967 . S
O467 C475 1.258 . S
O468 Co443 1.941 . S
O468 C475 1.266 . S
H469 C471 0.959 . S
H470 C471 0.961 . S
C471 C461 1.510 . S
C471 H469 0.959 . S
C471 H470 0.961 . S
C471 H472 0.960 . S
H472 C471 0.960 . S
H473 N453 0.862 . S
O474 Co442 1.920 . S
O474 C447 1.289 1_455 S
C475 O467 1.258 . S
C475 O468 1.266 . S
Co476 O479 1.970 . S
Co476 N493 1.989 . S
Co476 O501 1.967 . S
Co476 O508 1.920 . S
Co477 O480 1.966 . S
Co477 N486 2.022 . S
Co477 N494 1.993 . S
Co477 O502 1.941 . S
C478 O479 1.258 . S
C478 O480 1.263 . S
O479 Co476 1.970 . S
O479 C478 1.258 . S
O480 Co477 1.966 . S
O480 C478 1.263 . S
C481 O482 1.235 . S
C481 O508 1.289 . S
O482 C481 1.235 . S
C483 C485 1.400 . S
C483 N486 1.351 . S
C483 C488 1.501 . S
C484 C485 1.387 . S
C484 N487 1.341 . S
C485 C483 1.400 . S
C485 C484 1.387 . S
N486 Co477 2.022 . S
N486 C483 1.351 . S
N486 N487 1.365 . S
N487 C484 1.341 . S
N487 N486 1.365 . S
N487 H507 0.862 . S
C488 C483 1.501 . S
C488 H489 0.961 . S
C488 H490 0.961 . S
C488 H491 0.960 . S
H489 C488 0.961 . S
H490 C488 0.961 . S
H491 C488 0.960 . S
C492 N493 1.342 . S
C492 C496 1.401 . S
C492 C497 1.499 . S
N493 Co476 1.989 . S
N493 C492 1.342 . S
N493 N494 1.388 . S
N494 Co477 1.993 . S
N494 N493 1.388 . S
N494 C495 1.346 . S
C495 N494 1.346 . S
C495 C496 1.396 . S
C495 C505 1.510 . S
C496 C492 1.401 . S
C496 C495 1.396 . S
C497 C492 1.499 . S
C497 H498 0.959 . S
C497 H499 0.960 . S
C497 H500 0.961 . S
H498 C497 0.959 . S
H499 C497 0.960 . S
H500 C497 0.961 . S
O501 Co476 1.967 . S
O501 C509 1.258 . S
O502 Co477 1.941 . S
O502 C509 1.266 . S
H503 C505 0.959 . S
H504 C505 0.961 . S
C505 C495 1.510 . S
C505 H503 0.959 . S
C505 H504 0.961 . S
C505 H506 0.960 . S
H506 C505 0.960 . S
H507 N487 0.862 . S
O508 Co476 1.920 . S
O508 C481 1.289 . S
C509 O501 1.258 . S
C509 O502 1.266 . S
Co510 O513 1.970 . S
Co510 N527 1.989 . S
Co510 O535 1.967 1_545 S
Co510 O542 1.920 1_545 S
Co511 O514 1.966 . S
Co511 N520 2.022 . S
Co511 N528 1.993 . S
Co511 O536 1.941 . S
C512 O513 1.258 . S
C512 O514 1.263 . S
O513 Co510 1.970 . S
O513 C512 1.258 . S
O514 Co511 1.966 . S
O514 C512 1.263 . S
C515 O516 1.235 . S
C515 O542 1.289 1_445 S
O516 C515 1.235 . S
C517 C519 1.400 . S
C517 N520 1.351 . S
C517 C522 1.501 . S
C518 C519 1.387 . S
C518 N521 1.341 . S
C519 C517 1.400 . S
C519 C518 1.387 . S
N520 Co511 2.022 . S
N520 C517 1.351 . S
N520 N521 1.365 . S
N521 C518 1.341 . S
N521 N520 1.365 . S
N521 H541 0.862 . S
C522 C517 1.501 . S
C522 H523 0.961 . S
C522 H524 0.961 . S
C522 H525 0.960 . S
H523 C522 0.961 . S
H524 C522 0.961 . S
H525 C522 0.960 . S
C526 N527 1.342 . S
C526 C530 1.401 . S
C526 C531 1.499 1_545 S
N527 Co510 1.989 . S
N527 C526 1.342 . S
N527 N528 1.388 . S
N528 Co511 1.993 . S
N528 N527 1.388 . S
N528 C529 1.346 . S
C529 N528 1.346 . S
C529 C530 1.396 . S
C529 C539 1.510 . S
C530 C526 1.401 . S
C530 C529 1.396 . S
C531 C526 1.499 1_565 S
C531 H532 0.959 . S
C531 H533 0.960 1_565 S
C531 H534 0.961 . S
H532 C531 0.959 . S
H533 C531 0.960 1_545 S
H534 C531 0.961 . S
O535 Co510 1.967 1_565 S
O535 C543 1.258 . S
O536 Co511 1.941 . S
O536 C543 1.266 1_545 S
H537 C539 0.959 . S
H538 C539 0.961 . S
C539 C529 1.510 . S
C539 H537 0.959 . S
C539 H538 0.961 . S
C539 H540 0.960 . S
H540 C539 0.960 . S
H541 N521 0.862 . S
O542 Co510 1.920 1_565 S
O542 C515 1.289 1_665 S
C543 O535 1.258 . S
C543 O536 1.266 1_565 S
Co544 O547 1.970 . S
Co544 N561 1.989 . S
Co544 O569 1.967 . S
Co544 O576 1.920 . S
Co545 O548 1.966 . S
Co545 N554 2.022 . S
Co545 N562 1.993 . S
Co545 O570 1.941 . S
C546 O547 1.258 . S
C546 O548 1.263 . S
O547 Co544 1.970 . S
O547 C546 1.258 . S
O548 Co545 1.966 . S
O548 C546 1.263 . S
C549 O550 1.235 . S
C549 O576 1.289 . S
O550 C549 1.235 . S
C551 C553 1.400 1_554 S
C551 N554 1.351 . S
C551 C556 1.501 . S
C552 C553 1.387 . S
C552 N555 1.341 . S
C553 C551 1.400 1_556 S
C553 C552 1.387 . S
N554 Co545 2.022 . S
N554 C551 1.351 . S
N554 N555 1.365 1_554 S
N555 C552 1.341 . S
N555 N554 1.365 1_556 S
N555 H575 0.862 . S
C556 C551 1.501 . S
C556 H557 0.961 . S
C556 H558 0.961 . S
C556 H559 0.960 . S
H557 C556 0.961 . S
H558 C556 0.961 . S
H559 C556 0.960 . S
C560 N561 1.342 . S
C560 C564 1.401 . S
C560 C565 1.499 . S
N561 Co544 1.989 . S
N561 C560 1.342 . S
N561 N562 1.388 . S
N562 Co545 1.993 . S
N562 N561 1.388 . S
N562 C563 1.346 . S
C563 N562 1.346 . S
C563 C564 1.396 . S
C563 C573 1.510 . S
C564 C560 1.401 . S
C564 C563 1.396 . S
C565 C560 1.499 . S
C565 H566 0.959 . S
C565 H567 0.960 . S
C565 H568 0.961 . S
H566 C565 0.959 . S
H567 C565 0.960 . S
H568 C565 0.961 . S
O569 Co544 1.967 . S
O569 C577 1.258 . S
O570 Co545 1.941 . S
O570 C577 1.266 . S
H571 C573 0.959 . S
H572 C573 0.961 . S
C573 C563 1.510 . S
C573 H571 0.959 . S
C573 H572 0.961 . S
C573 H574 0.960 . S
H574 C573 0.960 . S
H575 N555 0.862 . S
O576 Co544 1.920 . S
O576 C549 1.289 . S
C577 O569 1.258 . S
C577 O570 1.266 . S
Co578 O581 1.970 . S
Co578 N595 1.989 . S
Co578 O603 1.967 . S
Co578 O610 1.920 . S
Co579 O582 1.966 . S
Co579 N588 2.022 . S
Co579 N596 1.993 . S
Co579 O604 1.941 . S
C580 O581 1.258 . S
C580 O582 1.263 . S
O581 Co578 1.970 . S
O581 C580 1.258 . S
O582 Co579 1.966 . S
O582 C580 1.263 . S
C583 O584 1.235 . S
C583 O610 1.289 . S
O584 C583 1.235 . S
C585 C587 1.400 . S
C585 N588 1.351 . S
C585 C590 1.501 . S
C586 C587 1.387 . S
C586 N589 1.341 . S
C587 C585 1.400 . S
C587 C586 1.387 . S
N588 Co579 2.022 . S
N588 C585 1.351 . S
N588 N589 1.365 . S
N589 C586 1.341 . S
N589 N588 1.365 . S
N589 H609 0.862 . S
C590 C585 1.501 . S
C590 H591 0.961 . S
C590 H592 0.961 . S
C590 H593 0.960 . S
H591 C590 0.961 . S
H592 C590 0.961 . S
H593 C590 0.960 . S
C594 N595 1.342 . S
C594 C598 1.401 . S
C594 C599 1.499 . S
N595 Co578 1.989 . S
N595 C594 1.342 . S
N595 N596 1.388 . S
N596 Co579 1.993 . S
N596 N595 1.388 . S
N596 C597 1.346 . S
C597 N596 1.346 . S
C597 C598 1.396 . S
C597 C607 1.510 . S
C598 C594 1.401 . S
C598 C597 1.396 . S
C599 C594 1.499 . S
C599 H600 0.959 . S
C599 H601 0.960 . S
C599 H602 0.961 . S
H600 C599 0.959 . S
H601 C599 0.960 . S
H602 C599 0.961 . S
O603 Co578 1.967 . S
O603 C611 1.258 . S
O604 Co579 1.941 . S
O604 C611 1.266 . S
H605 C607 0.959 . S
H606 C607 0.961 . S
C607 C597 1.510 . S
C607 H605 0.959 . S
C607 H606 0.961 . S
C607 H608 0.960 . S
H608 C607 0.960 . S
H609 N589 0.862 . S
O610 Co578 1.920 . S
O610 C583 1.289 . S
C611 O603 1.258 . S
C611 O604 1.266 . S
Co612 O615 1.970 . S
Co612 N629 1.989 . S
Co612 O637 1.967 1_655 S
Co612 O644 1.920 1_655 S
Co613 O616 1.966 . S
Co613 N622 2.022 . S
Co613 N630 1.993 . S
Co613 O638 1.941 . S
C614 O615 1.258 . S
C614 O616 1.263 . S
O615 Co612 1.970 . S
O615 C614 1.258 . S
O616 Co613 1.966 . S
O616 C614 1.263 . S
C617 O618 1.235 . S
C617 O644 1.289 1_654 S
O618 C617 1.235 . S
C619 C621 1.400 . S
C619 N622 1.351 . S
C619 C624 1.501 . S
C620 C621 1.387 . S
C620 N623 1.341 . S
C621 C619 1.400 . S
C621 C620 1.387 . S
N622 Co613 2.022 . S
N622 C619 1.351 . S
N622 N623 1.365 . S
N623 C620 1.341 . S
N623 N622 1.365 . S
N623 H643 0.862 . S
C624 C619 1.501 . S
C624 H625 0.961 . S
C624 H626 0.961 . S
C624 H627 0.960 . S
H625 C624 0.961 . S
H626 C624 0.961 . S
H627 C624 0.960 . S
C628 N629 1.342 . S
C628 C632 1.401 . S
C628 C633 1.499 1_655 S
N629 Co612 1.989 . S
N629 C628 1.342 . S
N629 N630 1.388 . S
N630 Co613 1.993 . S
N630 N629 1.388 . S
N630 C631 1.346 . S
C631 N630 1.346 . S
C631 C632 1.396 . S
C631 C641 1.510 . S
C632 C628 1.401 . S
C632 C631 1.396 . S
C633 C628 1.499 1_455 S
C633 H634 0.959 . S
C633 H635 0.960 1_455 S
C633 H636 0.961 . S
H634 C633 0.959 . S
H635 C633 0.960 1_655 S
H636 C633 0.961 . S
O637 Co612 1.967 1_455 S
O637 C645 1.258 . S
O638 Co613 1.941 . S
O638 C645 1.266 1_655 S
H639 C641 0.959 . S
H640 C641 0.961 . S
C641 C631 1.510 . S
C641 H639 0.959 . S
C641 H640 0.961 . S
C641 H642 0.960 . S
H642 C641 0.960 . S
H643 N623 0.862 . S
O644 Co612 1.920 1_455 S
O644 C617 1.289 1_456 S
C645 O637 1.258 . S
C645 O638 1.266 1_455 S
Co646 O649 1.970 . S
Co646 N663 1.989 . S
Co646 O671 1.967 . S
Co646 O678 1.920 . S
Co647 O650 1.966 . S
Co647 N656 2.022 . S
Co647 N664 1.993 . S
Co647 O672 1.941 . S
C648 O649 1.258 . S
C648 O650 1.263 . S
O649 Co646 1.970 . S
O649 C648 1.258 . S
O650 Co647 1.966 . S
O650 C648 1.263 . S
C651 O652 1.235 . S
C651 O678 1.289 . S
O652 C651 1.235 . S
C653 C655 1.400 . S
C653 N656 1.351 . S
C653 C658 1.501 . S
C654 C655 1.387 . S
C654 N657 1.341 . S
C655 C653 1.400 . S
C655 C654 1.387 . S
N656 Co647 2.022 . S
N656 C653 1.351 . S
N656 N657 1.365 . S
N657 C654 1.341 . S
N657 N656 1.365 . S
N657 H677 0.862 . S
C658 C653 1.501 . S
C658 H659 0.961 . S
C658 H660 0.961 . S
C658 H661 0.960 . S
H659 C658 0.961 . S
H660 C658 0.961 . S
H661 C658 0.960 . S
C662 N663 1.342 . S
C662 C666 1.401 . S
C662 C667 1.499 . S
N663 Co646 1.989 . S
N663 C662 1.342 . S
N663 N664 1.388 . S
N664 Co647 1.993 . S
N664 N663 1.388 . S
N664 C665 1.346 . S
C665 N664 1.346 . S
C665 C666 1.396 . S
C665 C675 1.510 . S
C666 C662 1.401 . S
C666 C665 1.396 . S
C667 C662 1.499 . S
C667 H668 0.959 . S
C667 H669 0.960 . S
C667 H670 0.961 . S
H668 C667 0.959 . S
H669 C667 0.960 . S
H670 C667 0.961 . S
O671 Co646 1.967 . S
O671 C679 1.258 . S
O672 Co647 1.941 . S
O672 C679 1.266 . S
H673 C675 0.959 . S
H674 C675 0.961 . S
C675 C665 1.510 . S
C675 H673 0.959 . S
C675 H674 0.961 . S
C675 H676 0.960 . S
H676 C675 0.960 . S
H677 N657 0.862 . S
O678 Co646 1.920 . S
O678 C651 1.289 . S
C679 O671 1.258 . S
C679 O672 1.266 . S
Co680 O683 1.970 . S
Co680 N697 1.989 . S
Co680 O705 1.967 . S
Co680 O712 1.920 . S
Co681 O684 1.966 . S
Co681 N690 2.022 . S
Co681 N698 1.993 . S
Co681 O706 1.941 . S
C682 O683 1.258 . S
C682 O684 1.263 . S
O683 Co680 1.970 . S
O683 C682 1.258 . S
O684 Co681 1.966 . S
O684 C682 1.263 . S
C685 O686 1.235 . S
C685 O712 1.289 . S
O686 C685 1.235 . S
C687 C689 1.400 . S
C687 N690 1.351 . S
C687 C692 1.501 . S
C688 C689 1.387 . S
C688 N691 1.341 . S
C689 C687 1.400 . S
C689 C688 1.387 . S
N690 Co681 2.022 . S
N690 C687 1.351 . S
N690 N691 1.365 . S
N691 C688 1.341 . S
N691 N690 1.365 . S
N691 H711 0.862 . S
C692 C687 1.501 . S
C692 H693 0.961 . S
C692 H694 0.961 . S
C692 H695 0.960 . S
H693 C692 0.961 . S
H694 C692 0.961 . S
H695 C692 0.960 . S
C696 N697 1.342 . S
C696 C700 1.401 . S
C696 C701 1.499 . S
N697 Co680 1.989 . S
N697 C696 1.342 . S
N697 N698 1.388 . S
N698 Co681 1.993 . S
N698 N697 1.388 . S
N698 C699 1.346 . S
C699 N698 1.346 . S
C699 C700 1.396 . S
C699 C709 1.510 . S
C700 C696 1.401 . S
C700 C699 1.396 . S
C701 C696 1.499 . S
C701 H702 0.959 . S
C701 H703 0.960 . S
C701 H704 0.961 . S
H702 C701 0.959 . S
H703 C701 0.960 . S
H704 C701 0.961 . S
O705 Co680 1.967 . S
O705 C713 1.258 . S
O706 Co681 1.941 . S
O706 C713 1.266 . S
H707 C709 0.959 . S
H708 C709 0.961 . S
C709 C699 1.510 . S
C709 H707 0.959 . S
C709 H708 0.961 . S
C709 H710 0.960 . S
H710 C709 0.960 . S
H711 N691 0.862 . S
O712 Co680 1.920 . S
O712 C685 1.289 . S
C713 O705 1.258 . S
C713 O706 1.266 . S
Co714 O717 1.970 . S
Co714 N731 1.989 . S
Co714 O739 1.967 . S
Co714 O746 1.920 . S
Co715 O718 1.966 . S
Co715 N724 2.022 . S
Co715 N732 1.993 . S
Co715 O740 1.941 . S
C716 O717 1.258 . S
C716 O718 1.263 . S
O717 Co714 1.970 . S
O717 C716 1.258 . S
O718 Co715 1.966 . S
O718 C716 1.263 . S
C719 O720 1.235 . S
C719 O746 1.289 . S
O720 C719 1.235 . S
C721 C723 1.400 . S
C721 N724 1.351 . S
C721 C726 1.501 . S
C722 C723 1.387 . S
C722 N725 1.341 . S
C723 C721 1.400 . S
C723 C722 1.387 . S
N724 Co715 2.022 . S
N724 C721 1.351 . S
N724 N725 1.365 . S
N725 C722 1.341 . S
N725 N724 1.365 . S
N725 H745 0.862 . S
C726 C721 1.501 . S
C726 H727 0.961 . S
C726 H728 0.961 . S
C726 H729 0.960 . S
H727 C726 0.961 . S
H728 C726 0.961 . S
H729 C726 0.960 . S
C730 N731 1.342 . S
C730 C734 1.401 . S
C730 C735 1.499 . S
N731 Co714 1.989 . S
N731 C730 1.342 . S
N731 N732 1.388 . S
N732 Co715 1.993 . S
N732 N731 1.388 . S
N732 C733 1.346 . S
C733 N732 1.346 . S
C733 C734 1.396 . S
C733 C743 1.510 . S
C734 C730 1.401 . S
C734 C733 1.396 . S
C735 C730 1.499 . S
C735 H736 0.959 . S
C735 H737 0.960 . S
C735 H738 0.961 . S
H736 C735 0.959 . S
H737 C735 0.960 . S
H738 C735 0.961 . S
O739 Co714 1.967 . S
O739 C747 1.258 . S
O740 Co715 1.941 . S
O740 C747 1.266 . S
H741 C743 0.959 . S
H742 C743 0.961 . S
C743 C733 1.510 . S
C743 H741 0.959 . S
C743 H742 0.961 . S
C743 H744 0.960 . S
H744 C743 0.960 . S
H745 N725 0.862 . S
O746 Co714 1.920 . S
O746 C719 1.289 . S
C747 O739 1.258 . S
C747 O740 1.266 . S
Co748 O751 1.970 . S
Co748 N765 1.989 . S
Co748 O773 1.967 1_655 S
Co748 O780 1.920 1_655 S
Co749 O752 1.966 . S
Co749 N758 2.022 . S
Co749 N766 1.993 . S
Co749 O774 1.941 . S
C750 O751 1.258 . S
C750 O752 1.263 . S
O751 Co748 1.970 . S
O751 C750 1.258 . S
O752 Co749 1.966 . S
O752 C750 1.263 . S
C753 O754 1.235 . S
C753 O780 1.289 1_655 S
O754 C753 1.235 . S
C755 C757 1.400 . S
C755 N758 1.351 . S
C755 C760 1.501 . S
C756 C757 1.387 . S
C756 N759 1.341 . S
C757 C755 1.400 . S
C757 C756 1.387 . S
N758 Co749 2.022 . S
N758 C755 1.351 . S
N758 N759 1.365 . S
N759 C756 1.341 . S
N759 N758 1.365 . S
N759 H779 0.862 . S
C760 C755 1.501 . S
C760 H761 0.961 . S
C760 H762 0.961 . S
C760 H763 0.960 . S
H761 C760 0.961 . S
H762 C760 0.961 . S
H763 C760 0.960 . S
C764 N765 1.342 . S
C764 C768 1.401 . S
C764 C769 1.499 1_655 S
N765 Co748 1.989 . S
N765 C764 1.342 . S
N765 N766 1.388 . S
N766 Co749 1.993 . S
N766 N765 1.388 . S
N766 C767 1.346 . S
C767 N766 1.346 . S
C767 C768 1.396 . S
C767 C777 1.510 . S
C768 C764 1.401 . S
C768 C767 1.396 . S
C769 C764 1.499 1_455 S
C769 H770 0.959 . S
C769 H771 0.960 1_455 S
C769 H772 0.961 . S
H770 C769 0.959 . S
H771 C769 0.960 1_655 S
H772 C769 0.961 . S
O773 Co748 1.967 1_455 S
O773 C781 1.258 . S
O774 Co749 1.941 . S
O774 C781 1.266 1_655 S
H775 C777 0.959 . S
H776 C777 0.961 . S
C777 C767 1.510 . S
C777 H775 0.959 . S
C777 H776 0.961 . S
C777 H778 0.960 . S
H778 C777 0.960 . S
H779 N759 0.862 . S
O780 Co748 1.920 1_455 S
O780 C753 1.289 1_455 S
C781 O773 1.258 . S
C781 O774 1.266 1_455 S
Co782 O785 1.970 . S
Co782 N799 1.989 . S
Co782 O807 1.967 1_455 S
Co782 O814 1.920 1_455 S
Co783 O786 1.966 . S
Co783 N792 2.022 . S
Co783 N800 1.993 . S
Co783 O808 1.941 . S
C784 O785 1.258 . S
C784 O786 1.263 . S
O785 Co782 1.970 . S
O785 C784 1.258 . S
O786 Co783 1.966 . S
O786 C784 1.263 . S
C787 O788 1.235 . S
C787 O814 1.289 1_455 S
O788 C787 1.235 . S
C789 C791 1.400 . S
C789 N792 1.351 . S
C789 C794 1.501 . S
C790 C791 1.387 . S
C790 N793 1.341 . S
C791 C789 1.400 . S
C791 C790 1.387 . S
N792 Co783 2.022 . S
N792 C789 1.351 . S
N792 N793 1.365 . S
N793 C790 1.341 . S
N793 N792 1.365 . S
N793 H813 0.862 . S
C794 C789 1.501 . S
C794 H795 0.961 . S
C794 H796 0.961 . S
C794 H797 0.960 . S
H795 C794 0.961 . S
H796 C794 0.961 . S
H797 C794 0.960 . S
C798 N799 1.342 . S
C798 C802 1.401 . S
C798 C803 1.499 1_455 S
N799 Co782 1.989 . S
N799 C798 1.342 . S
N799 N800 1.388 . S
N800 Co783 1.993 . S
N800 N799 1.388 . S
N800 C801 1.346 . S
C801 N800 1.346 . S
C801 C802 1.396 . S
C801 C811 1.510 . S
C802 C798 1.401 . S
C802 C801 1.396 . S
C803 C798 1.499 1_655 S
C803 H804 0.959 . S
C803 H805 0.960 1_655 S
C803 H806 0.961 . S
H804 C803 0.959 . S
H805 C803 0.960 1_455 S
H806 C803 0.961 . S
O807 Co782 1.967 1_655 S
O807 C815 1.258 . S
O808 Co783 1.941 . S
O808 C815 1.266 1_455 S
H809 C811 0.959 . S
H810 C811 0.961 . S
C811 C801 1.510 . S
C811 H809 0.959 . S
C811 H810 0.961 . S
C811 H812 0.960 . S
H812 C811 0.960 . S
H813 N793 0.862 . S
O814 Co782 1.920 1_655 S
O814 C787 1.289 1_655 S
C815 O807 1.258 . S
C815 O808 1.266 1_655 S
Co816 O819 1.970 . S
Co816 N833 1.989 . S
Co816 O841 1.967 . S
Co816 O848 1.920 . S
Co817 O820 1.966 . S
Co817 N826 2.022 . S
Co817 N834 1.993 . S
Co817 O842 1.941 . S
C818 O819 1.258 . S
C818 O820 1.263 . S
O819 Co816 1.970 . S
O819 C818 1.258 . S
O820 Co817 1.966 . S
O820 C818 1.263 . S
C821 O822 1.235 . S
C821 O848 1.289 . S
O822 C821 1.235 . S
C823 C825 1.400 . S
C823 N826 1.351 . S
C823 C828 1.501 . S
C824 C825 1.387 . S
C824 N827 1.341 . S
C825 C823 1.400 . S
C825 C824 1.387 . S
N826 Co817 2.022 . S
N826 C823 1.351 . S
N826 N827 1.365 . S
N827 C824 1.341 . S
N827 N826 1.365 . S
N827 H847 0.862 . S
C828 C823 1.501 . S
C828 H829 0.961 . S
C828 H830 0.961 . S
C828 H831 0.960 . S
H829 C828 0.961 . S
H830 C828 0.961 . S
H831 C828 0.960 . S
C832 N833 1.342 . S
C832 C836 1.401 . S
C832 C837 1.499 . S
N833 Co816 1.989 . S
N833 C832 1.342 . S
N833 N834 1.388 . S
N834 Co817 1.993 . S
N834 N833 1.388 . S
N834 C835 1.346 . S
C835 N834 1.346 . S
C835 C836 1.396 . S
C835 C845 1.510 . S
C836 C832 1.401 . S
C836 C835 1.396 . S
C837 C832 1.499 . S
C837 H838 0.959 . S
C837 H839 0.960 . S
C837 H840 0.961 . S
H838 C837 0.959 . S
H839 C837 0.960 . S
H840 C837 0.961 . S
O841 Co816 1.967 . S
O841 C849 1.258 . S
O842 Co817 1.941 . S
O842 C849 1.266 . S
H843 C845 0.959 . S
H844 C845 0.961 . S
C845 C835 1.510 . S
C845 H843 0.959 . S
C845 H844 0.961 . S
C845 H846 0.960 . S
H846 C845 0.960 . S
H847 N827 0.862 . S
O848 Co816 1.920 . S
O848 C821 1.289 . S
C849 O841 1.258 . S
C849 O842 1.266 . S
Co850 O853 1.970 . S
Co850 N867 1.989 . S
Co850 O875 1.967 . S
Co850 O882 1.920 . S
Co851 O854 1.966 . S
Co851 N860 2.022 . S
Co851 N868 1.993 . S
Co851 O876 1.941 . S
C852 O853 1.258 . S
C852 O854 1.263 . S
O853 Co850 1.970 . S
O853 C852 1.258 . S
O854 Co851 1.966 . S
O854 C852 1.263 . S
C855 O856 1.235 . S
C855 O882 1.289 1_565 S
O856 C855 1.235 . S
C857 C859 1.400 . S
C857 N860 1.351 . S
C857 C862 1.501 . S
C858 C859 1.387 . S
C858 N861 1.341 . S
C859 C857 1.400 . S
C859 C858 1.387 . S
N860 Co851 2.022 . S
N860 C857 1.351 . S
N860 N861 1.365 . S
N861 C858 1.341 . S
N861 N860 1.365 . S
N861 H881 0.862 . S
C862 C857 1.501 . S
C862 H863 0.961 . S
C862 H864 0.961 . S
C862 H865 0.960 . S
H863 C862 0.961 . S
H864 C862 0.961 . S
H865 C862 0.960 . S
C866 N867 1.342 . S
C866 C870 1.401 . S
C866 C871 1.499 . S
N867 Co850 1.989 . S
N867 C866 1.342 . S
N867 N868 1.388 . S
N868 Co851 1.993 . S
N868 N867 1.388 . S
N868 C869 1.346 . S
C869 N868 1.346 . S
C869 C870 1.396 . S
C869 C879 1.510 . S
C870 C866 1.401 . S
C870 C869 1.396 . S
C871 C866 1.499 . S
C871 H872 0.959 . S
C871 H873 0.960 . S
C871 H874 0.961 . S
H872 C871 0.959 . S
H873 C871 0.960 . S
H874 C871 0.961 . S
O875 Co850 1.967 . S
O875 C883 1.258 . S
O876 Co851 1.941 . S
O876 C883 1.266 . S
H877 C879 0.959 . S
H878 C879 0.961 . S
C879 C869 1.510 . S
C879 H877 0.959 . S
C879 H878 0.961 . S
C879 H880 0.960 . S
H880 C879 0.960 . S
H881 N861 0.862 . S
O882 Co850 1.920 . S
O882 C855 1.289 1_545 S
C883 O875 1.258 . S
C883 O876 1.266 . S
Co884 O887 1.970 . S
Co884 N901 1.989 . S
Co884 O909 1.967 . S
Co884 O916 1.920 . S
Co885 O888 1.966 . S
Co885 N894 2.022 . S
Co885 N902 1.993 . S
Co885 O910 1.941 . S
C886 O887 1.258 . S
C886 O888 1.263 . S
O887 Co884 1.970 . S
O887 C886 1.258 . S
O888 Co885 1.966 . S
O888 C886 1.263 . S
C889 O890 1.235 . S
C889 O916 1.289 . S
O890 C889 1.235 . S
C891 C893 1.400 . S
C891 N894 1.351 . S
C891 C896 1.501 . S
C892 C893 1.387 . S
C892 N895 1.341 . S
C893 C891 1.400 . S
C893 C892 1.387 . S
N894 Co885 2.022 . S
N894 C891 1.351 . S
N894 N895 1.365 . S
N895 C892 1.341 . S
N895 N894 1.365 . S
N895 H915 0.862 . S
C896 C891 1.501 . S
C896 H897 0.961 . S
C896 H898 0.961 . S
C896 H899 0.960 . S
H897 C896 0.961 . S
H898 C896 0.961 . S
H899 C896 0.960 . S
C900 N901 1.342 . S
C900 C904 1.401 . S
C900 C905 1.499 . S
N901 Co884 1.989 . S
N901 C900 1.342 . S
N901 N902 1.388 . S
N902 Co885 1.993 . S
N902 N901 1.388 . S
N902 C903 1.346 . S
C903 N902 1.346 . S
C903 C904 1.396 . S
C903 C913 1.510 . S
C904 C900 1.401 . S
C904 C903 1.396 . S
C905 C900 1.499 . S
C905 H906 0.959 . S
C905 H907 0.960 . S
C905 H908 0.961 . S
H906 C905 0.959 . S
H907 C905 0.960 . S
H908 C905 0.961 . S
O909 Co884 1.967 . S
O909 C917 1.258 . S
O910 Co885 1.941 . S
O910 C917 1.266 . S
H911 C913 0.959 . S
H912 C913 0.961 . S
C913 C903 1.510 . S
C913 H911 0.959 . S
C913 H912 0.961 . S
C913 H914 0.960 . S
H914 C913 0.960 . S
H915 N895 0.862 . S
O916 Co884 1.920 . S
O916 C889 1.289 . S
C917 O909 1.258 . S
C917 O910 1.266 . S
Co918 O921 1.970 . S
Co918 N935 1.989 . S
Co918 O943 1.967 . S
Co918 O950 1.920 . S
Co919 O922 1.966 . S
Co919 N928 2.022 . S
Co919 N936 1.993 . S
Co919 O944 1.941 . S
C920 O921 1.258 . S
C920 O922 1.263 . S
O921 Co918 1.970 . S
O921 C920 1.258 . S
O922 Co919 1.966 . S
O922 C920 1.263 . S
C923 O924 1.235 . S
C923 O950 1.289 . S
O924 C923 1.235 . S
C925 C927 1.400 . S
C925 N928 1.351 . S
C925 C930 1.501 . S
C926 C927 1.387 . S
C926 N929 1.341 . S
C927 C925 1.400 . S
C927 C926 1.387 . S
N928 Co919 2.022 . S
N928 C925 1.351 . S
N928 N929 1.365 . S
N929 C926 1.341 . S
N929 N928 1.365 . S
N929 H949 0.862 . S
C930 C925 1.501 . S
C930 H931 0.961 . S
C930 H932 0.961 . S
C930 H933 0.960 . S
H931 C930 0.961 . S
H932 C930 0.961 . S
H933 C930 0.960 . S
C934 N935 1.342 . S
C934 C938 1.401 . S
C934 C939 1.499 . S
N935 Co918 1.989 . S
N935 C934 1.342 . S
N935 N936 1.388 . S
N936 Co919 1.993 . S
N936 N935 1.388 . S
N936 C937 1.346 . S
C937 N936 1.346 . S
C937 C938 1.396 . S
C937 C947 1.510 . S
C938 C934 1.401 . S
C938 C937 1.396 . S
C939 C934 1.499 . S
C939 H940 0.959 . S
C939 H941 0.960 . S
C939 H942 0.961 . S
H940 C939 0.959 . S
H941 C939 0.960 . S
H942 C939 0.961 . S
O943 Co918 1.967 . S
O943 C951 1.258 . S
O944 Co919 1.941 . S
O944 C951 1.266 . S
H945 C947 0.959 . S
H946 C947 0.961 . S
C947 C937 1.510 . S
C947 H945 0.959 . S
C947 H946 0.961 . S
C947 H948 0.960 . S
H948 C947 0.960 . S
H949 N929 0.862 . S
O950 Co918 1.920 . S
O950 C923 1.289 . S
C951 O943 1.258 . S
C951 O944 1.266 . S
Co952 O955 1.970 . S
Co952 N969 1.989 . S
Co952 O977 1.967 . S
Co952 O984 1.920 . S
Co953 O956 1.966 . S
Co953 N962 2.022 . S
Co953 N970 1.993 . S
Co953 O978 1.941 . S
C954 O955 1.258 . S
C954 O956 1.263 . S
O955 Co952 1.970 . S
O955 C954 1.258 . S
O956 Co953 1.966 . S
O956 C954 1.263 . S
C957 O958 1.235 . S
C957 O984 1.289 . S
O958 C957 1.235 . S
C959 C961 1.400 . S
C959 N962 1.351 . S
C959 C964 1.501 . S
C960 C961 1.387 . S
C960 N963 1.341 . S
C961 C959 1.400 . S
C961 C960 1.387 . S
N962 Co953 2.022 . S
N962 C959 1.351 . S
N962 N963 1.365 . S
N963 C960 1.341 . S
N963 N962 1.365 . S
N963 H983 0.862 . S
C964 C959 1.501 . S
C964 H965 0.961 . S
C964 H966 0.961 . S
C964 H967 0.960 . S
H965 C964 0.961 . S
H966 C964 0.961 . S
H967 C964 0.960 . S
C968 N969 1.342 . S
C968 C972 1.401 . S
C968 C973 1.499 . S
N969 Co952 1.989 . S
N969 C968 1.342 . S
N969 N970 1.388 . S
N970 Co953 1.993 . S
N970 N969 1.388 . S
N970 C971 1.346 . S
C971 N970 1.346 . S
C971 C972 1.396 . S
C971 C981 1.510 . S
C972 C968 1.401 . S
C972 C971 1.396 . S
C973 C968 1.499 . S
C973 H974 0.959 . S
C973 H975 0.960 . S
C973 H976 0.961 . S
H974 C973 0.959 . S
H975 C973 0.960 . S
H976 C973 0.961 . S
O977 Co952 1.967 . S
O977 C985 1.258 . S
O978 Co953 1.941 . S
O978 C985 1.266 . S
H979 C981 0.959 . S
H980 C981 0.961 . S
C981 C971 1.510 . S
C981 H979 0.959 . S
C981 H980 0.961 . S
C981 H982 0.960 . S
H982 C981 0.960 . S
H983 N963 0.862 . S
O984 Co952 1.920 . S
O984 C957 1.289 . S
C985 O977 1.258 . S
C985 O978 1.266 . S
Co986 O989 1.970 . S
Co986 N1003 1.989 . S
Co986 O1011 1.967 . S
Co986 O1018 1.920 . S
Co987 O990 1.966 . S
Co987 N996 2.022 . S
Co987 N1004 1.993 . S
Co987 O1012 1.941 . S
C988 O989 1.258 . S
C988 O990 1.263 . S
O989 Co986 1.970 . S
O989 C988 1.258 . S
O990 Co987 1.966 . S
O990 C988 1.263 . S
C991 O992 1.235 . S
C991 O1018 1.289 1_565 S
O992 C991 1.235 . S
C993 C995 1.400 . S
C993 N996 1.351 . S
C993 C998 1.501 . S
C994 C995 1.387 . S
C994 N997 1.341 . S
C995 C993 1.400 . S
C995 C994 1.387 . S
N996 Co987 2.022 . S
N996 C993 1.351 . S
N996 N997 1.365 . S
N997 C994 1.341 . S
N997 N996 1.365 . S
N997 H1017 0.862 . S
C998 C993 1.501 . S
C998 H999 0.961 . S
C998 H1000 0.961 . S
C998 H1001 0.960 . S
H999 C998 0.961 . S
H1000 C998 0.961 . S
H1001 C998 0.960 . S
C1002 N1003 1.342 . S
C1002 C1006 1.401 . S
C1002 C1007 1.499 . S
N1003 Co986 1.989 . S
N1003 C1002 1.342 . S
N1003 N1004 1.388 . S
N1004 Co987 1.993 . S
N1004 N1003 1.388 . S
N1004 C1005 1.346 . S
C1005 N1004 1.346 . S
C1005 C1006 1.396 . S
C1005 C1015 1.510 . S
C1006 C1002 1.401 . S
C1006 C1005 1.396 . S
C1007 C1002 1.499 . S
C1007 H1008 0.959 . S
C1007 H1009 0.960 . S
C1007 H1010 0.961 . S
H1008 C1007 0.959 . S
H1009 C1007 0.960 . S
H1010 C1007 0.961 . S
O1011 Co986 1.967 . S
O1011 C1019 1.258 . S
O1012 Co987 1.941 . S
O1012 C1019 1.266 . S
H1013 C1015 0.959 . S
H1014 C1015 0.961 . S
C1015 C1005 1.510 . S
C1015 H1013 0.959 . S
C1015 H1014 0.961 . S
C1015 H1016 0.960 . S
H1016 C1015 0.960 . S
H1017 N997 0.862 . S
O1018 Co986 1.920 . S
O1018 C991 1.289 1_545 S
C1019 O1011 1.258 . S
C1019 O1012 1.266 . S
Co1020 O1023 1.970 . S
Co1020 N1037 1.989 . S
Co1020 O1045 1.967 . S
Co1020 O1052 1.920 . S
Co1021 O1024 1.966 . S
Co1021 N1030 2.022 . S
Co1021 N1038 1.993 . S
Co1021 O1046 1.941 . S
C1022 O1023 1.258 . S
C1022 O1024 1.263 . S
O1023 Co1020 1.970 . S
O1023 C1022 1.258 . S
O1024 Co1021 1.966 . S
O1024 C1022 1.263 . S
C1025 O1026 1.235 . S
C1025 O1052 1.289 . S
O1026 C1025 1.235 . S
C1027 C1029 1.400 . S
C1027 N1030 1.351 . S
C1027 C1032 1.501 . S
C1028 C1029 1.387 . S
C1028 N1031 1.341 . S
C1029 C1027 1.400 . S
C1029 C1028 1.387 . S
N1030 Co1021 2.022 . S
N1030 C1027 1.351 . S
N1030 N1031 1.365 . S
N1031 C1028 1.341 . S
N1031 N1030 1.365 . S
N1031 H1051 0.862 . S
C1032 C1027 1.501 . S
C1032 H1033 0.961 . S
C1032 H1034 0.961 . S
C1032 H1035 0.960 . S
H1033 C1032 0.961 . S
H1034 C1032 0.961 . S
H1035 C1032 0.960 . S
C1036 N1037 1.342 . S
C1036 C1040 1.401 . S
C1036 C1041 1.499 . S
N1037 Co1020 1.989 . S
N1037 C1036 1.342 . S
N1037 N1038 1.388 . S
N1038 Co1021 1.993 . S
N1038 N1037 1.388 . S
N1038 C1039 1.346 . S
C1039 N1038 1.346 . S
C1039 C1040 1.396 . S
C1039 C1049 1.510 . S
C1040 C1036 1.401 . S
C1040 C1039 1.396 . S
C1041 C1036 1.499 . S
C1041 H1042 0.959 . S
C1041 H1043 0.960 . S
C1041 H1044 0.961 . S
H1042 C1041 0.959 . S
H1043 C1041 0.960 . S
H1044 C1041 0.961 . S
O1045 Co1020 1.967 . S
O1045 C1053 1.258 . S
O1046 Co1021 1.941 . S
O1046 C1053 1.266 . S
H1047 C1049 0.959 . S
H1048 C1049 0.961 . S
C1049 C1039 1.510 . S
C1049 H1047 0.959 . S
C1049 H1048 0.961 . S
C1049 H1050 0.960 . S
H1050 C1049 0.960 . S
H1051 N1031 0.862 . S
O1052 Co1020 1.920 . S
O1052 C1025 1.289 . S
C1053 O1045 1.258 . S
C1053 O1046 1.266 . S
Co1054 O1057 1.970 . S
Co1054 N1071 1.989 . S
Co1054 O1079 1.967 . S
Co1054 O1086 1.920 . S
Co1055 O1058 1.966 . S
Co1055 N1064 2.022 . S
Co1055 N1072 1.993 . S
Co1055 O1080 1.941 . S
C1056 O1057 1.258 . S
C1056 O1058 1.263 . S
O1057 Co1054 1.970 . S
O1057 C1056 1.258 . S
O1058 Co1055 1.966 . S
O1058 C1056 1.263 . S
C1059 O1060 1.235 . S
C1059 O1086 1.289 . S
O1060 C1059 1.235 . S
C1061 C1063 1.400 . S
C1061 N1064 1.351 . S
C1061 C1066 1.501 . S
C1062 C1063 1.387 . S
C1062 N1065 1.341 . S
C1063 C1061 1.400 . S
C1063 C1062 1.387 . S
N1064 Co1055 2.022 . S
N1064 C1061 1.351 . S
N1064 N1065 1.365 . S
N1065 C1062 1.341 . S
N1065 N1064 1.365 . S
N1065 H1085 0.862 . S
C1066 C1061 1.501 . S
C1066 H1067 0.961 . S
C1066 H1068 0.961 . S
C1066 H1069 0.960 . S
H1067 C1066 0.961 . S
H1068 C1066 0.961 . S
H1069 C1066 0.960 . S
C1070 N1071 1.342 . S
C1070 C1074 1.401 . S
C1070 C1075 1.499 . S
N1071 Co1054 1.989 . S
N1071 C1070 1.342 . S
N1071 N1072 1.388 . S
N1072 Co1055 1.993 . S
N1072 N1071 1.388 . S
N1072 C1073 1.346 . S
C1073 N1072 1.346 . S
C1073 C1074 1.396 . S
C1073 C1083 1.510 . S
C1074 C1070 1.401 . S
C1074 C1073 1.396 . S
C1075 C1070 1.499 . S
C1075 H1076 0.959 . S
C1075 H1077 0.960 . S
C1075 H1078 0.961 . S
H1076 C1075 0.959 . S
H1077 C1075 0.960 . S
H1078 C1075 0.961 . S
O1079 Co1054 1.967 . S
O1079 C1087 1.258 . S
O1080 Co1055 1.941 . S
O1080 C1087 1.266 . S
H1081 C1083 0.959 . S
H1082 C1083 0.961 . S
C1083 C1073 1.510 . S
C1083 H1081 0.959 . S
C1083 H1082 0.961 . S
C1083 H1084 0.960 . S
H1084 C1083 0.960 . S
H1085 N1065 0.862 . S
O1086 Co1054 1.920 . S
O1086 C1059 1.289 . S
C1087 O1079 1.258 . S
C1087 O1080 1.266 . S
Co1088 O1091 1.970 . S
Co1088 N1105 1.989 . S
Co1088 O1113 1.967 . S
Co1088 O1120 1.920 . S
Co1089 O1092 1.966 . S
Co1089 N1098 2.022 . S
Co1089 N1106 1.993 . S
Co1089 O1114 1.941 . S
C1090 O1091 1.258 . S
C1090 O1092 1.263 . S
O1091 Co1088 1.970 . S
O1091 C1090 1.258 . S
O1092 Co1089 1.966 . S
O1092 C1090 1.263 . S
C1093 O1094 1.235 . S
C1093 O1120 1.289 . S
O1094 C1093 1.235 . S
C1095 C1097 1.400 . S
C1095 N1098 1.351 . S
C1095 C1100 1.501 . S
C1096 C1097 1.387 . S
C1096 N1099 1.341 . S
C1097 C1095 1.400 . S
C1097 C1096 1.387 . S
N1098 Co1089 2.022 . S
N1098 C1095 1.351 . S
N1098 N1099 1.365 . S
N1099 C1096 1.341 . S
N1099 N1098 1.365 . S
N1099 H1119 0.862 . S
C1100 C1095 1.501 . S
C1100 H1101 0.961 . S
C1100 H1102 0.961 . S
C1100 H1103 0.960 . S
H1101 C1100 0.961 . S
H1102 C1100 0.961 . S
H1103 C1100 0.960 . S
C1104 N1105 1.342 . S
C1104 C1108 1.401 . S
C1104 C1109 1.499 . S
N1105 Co1088 1.989 . S
N1105 C1104 1.342 . S
N1105 N1106 1.388 . S
N1106 Co1089 1.993 . S
N1106 N1105 1.388 . S
N1106 C1107 1.346 . S
C1107 N1106 1.346 . S
C1107 C1108 1.396 . S
C1107 C1117 1.510 . S
C1108 C1104 1.401 . S
C1108 C1107 1.396 . S
C1109 C1104 1.499 . S
C1109 H1110 0.959 . S
C1109 H1111 0.960 . S
C1109 H1112 0.961 . S
H1110 C1109 0.959 . S
H1111 C1109 0.960 . S
H1112 C1109 0.961 . S
O1113 Co1088 1.967 . S
O1113 C1121 1.258 . S
O1114 Co1089 1.941 . S
O1114 C1121 1.266 . S
H1115 C1117 0.959 . S
H1116 C1117 0.961 . S
C1117 C1107 1.510 . S
C1117 H1115 0.959 . S
C1117 H1116 0.961 . S
C1117 H1118 0.960 . S
H1118 C1117 0.960 . S
H1119 N1099 0.862 . S
O1120 Co1088 1.920 . S
O1120 C1093 1.289 . S
C1121 O1113 1.258 . S
C1121 O1114 1.266 . S
Co1122 O1125 1.970 . S
Co1122 N1139 1.989 . S
Co1122 O1147 1.967 1_565 S
Co1122 O1154 1.920 1_565 S
Co1123 O1126 1.966 . S
Co1123 N1132 2.022 . S
Co1123 N1140 1.993 . S
Co1123 O1148 1.941 . S
C1124 O1125 1.258 . S
C1124 O1126 1.263 . S
O1125 Co1122 1.970 . S
O1125 C1124 1.258 . S
O1126 Co1123 1.966 . S
O1126 C1124 1.263 . S
C1127 O1128 1.235 . S
C1127 O1154 1.289 1_465 S
O1128 C1127 1.235 . S
C1129 C1131 1.400 . S
C1129 N1132 1.351 . S
C1129 C1134 1.501 . S
C1130 C1131 1.387 . S
C1130 N1133 1.341 . S
C1131 C1129 1.400 . S
C1131 C1130 1.387 . S
N1132 Co1123 2.022 . S
N1132 C1129 1.351 . S
N1132 N1133 1.365 . S
N1133 C1130 1.341 . S
N1133 N1132 1.365 . S
N1133 H1153 0.862 . S
C1134 C1129 1.501 . S
C1134 H1135 0.961 . S
C1134 H1136 0.961 . S
C1134 H1137 0.960 . S
H1135 C1134 0.961 . S
H1136 C1134 0.961 . S
H1137 C1134 0.960 . S
C1138 N1139 1.342 . S
C1138 C1142 1.401 . S
C1138 C1143 1.499 1_565 S
N1139 Co1122 1.989 . S
N1139 C1138 1.342 . S
N1139 N1140 1.388 . S
N1140 Co1123 1.993 . S
N1140 N1139 1.388 . S
N1140 C1141 1.346 . S
C1141 N1140 1.346 . S
C1141 C1142 1.396 . S
C1141 C1151 1.510 . S
C1142 C1138 1.401 . S
C1142 C1141 1.396 . S
C1143 C1138 1.499 1_545 S
C1143 H1144 0.959 . S
C1143 H1145 0.960 1_545 S
C1143 H1146 0.961 . S
H1144 C1143 0.959 . S
H1145 C1143 0.960 1_565 S
H1146 C1143 0.961 . S
O1147 Co1122 1.967 1_545 S
O1147 C1155 1.258 . S
O1148 Co1123 1.941 . S
O1148 C1155 1.266 1_565 S
H1149 C1151 0.959 . S
H1150 C1151 0.961 . S
C1151 C1141 1.510 . S
C1151 H1149 0.959 . S
C1151 H1150 0.961 . S
C1151 H1152 0.960 . S
H1152 C1151 0.960 . S
H1153 N1133 0.862 . S
O1154 Co1122 1.920 1_545 S
O1154 C1127 1.289 1_645 S
C1155 O1147 1.258 . S
C1155 O1148 1.266 1_545 S
Co1156 O1159 1.970 . S
Co1156 N1173 1.989 . S
Co1156 O1181 1.967 . S
Co1156 O1188 1.920 . S
Co1157 O1160 1.966 . S
Co1157 N1166 2.022 . S
Co1157 N1174 1.993 . S
Co1157 O1182 1.941 . S
C1158 O1159 1.258 . S
C1158 O1160 1.263 . S
O1159 Co1156 1.970 . S
O1159 C1158 1.258 . S
O1160 Co1157 1.966 . S
O1160 C1158 1.263 . S
C1161 O1162 1.235 . S
C1161 O1188 1.289 . S
O1162 C1161 1.235 . S
C1163 C1165 1.400 1_565 S
C1163 N1166 1.351 . S
C1163 C1168 1.501 . S
C1164 C1165 1.387 . S
C1164 N1167 1.341 . S
C1165 C1163 1.400 1_545 S
C1165 C1164 1.387 . S
N1166 Co1157 2.022 . S
N1166 C1163 1.351 . S
N1166 N1167 1.365 1_565 S
N1167 C1164 1.341 . S
N1167 N1166 1.365 1_545 S
N1167 H1187 0.862 . S
C1168 C1163 1.501 . S
C1168 H1169 0.961 . S
C1168 H1170 0.961 . S
C1168 H1171 0.960 . S
H1169 C1168 0.961 . S
H1170 C1168 0.961 . S
H1171 C1168 0.960 . S
C1172 N1173 1.342 . S
C1172 C1176 1.401 . S
C1172 C1177 1.499 . S
N1173 Co1156 1.989 . S
N1173 C1172 1.342 . S
N1173 N1174 1.388 . S
N1174 Co1157 1.993 . S
N1174 N1173 1.388 . S
N1174 C1175 1.346 . S
C1175 N1174 1.346 . S
C1175 C1176 1.396 . S
C1175 C1185 1.510 . S
C1176 C1172 1.401 . S
C1176 C1175 1.396 . S
C1177 C1172 1.499 . S
C1177 H1178 0.959 . S
C1177 H1179 0.960 . S
C1177 H1180 0.961 . S
H1178 C1177 0.959 . S
H1179 C1177 0.960 . S
H1180 C1177 0.961 . S
O1181 Co1156 1.967 . S
O1181 C1189 1.258 . S
O1182 Co1157 1.941 . S
O1182 C1189 1.266 . S
H1183 C1185 0.959 . S
H1184 C1185 0.961 . S
C1185 C1175 1.510 . S
C1185 H1183 0.959 . S
C1185 H1184 0.961 . S
C1185 H1186 0.960 . S
H1186 C1185 0.960 . S
H1187 N1167 0.862 . S
O1188 Co1156 1.920 . S
O1188 C1161 1.289 . S
C1189 O1181 1.258 . S
C1189 O1182 1.266 . S
Co1190 O1193 1.970 . S
Co1190 N1207 1.989 . S
Co1190 O1215 1.967 . S
Co1190 O1222 1.920 . S
Co1191 O1194 1.966 . S
Co1191 N1200 2.022 . S
Co1191 N1208 1.993 . S
Co1191 O1216 1.941 . S
C1192 O1193 1.258 . S
C1192 O1194 1.263 . S
O1193 Co1190 1.970 . S
O1193 C1192 1.258 . S
O1194 Co1191 1.966 . S
O1194 C1192 1.263 . S
C1195 O1196 1.235 . S
C1195 O1222 1.289 1_655 S
O1196 C1195 1.235 . S
C1197 C1199 1.400 . S
C1197 N1200 1.351 . S
C1197 C1202 1.501 . S
C1198 C1199 1.387 . S
C1198 N1201 1.341 . S
C1199 C1197 1.400 . S
C1199 C1198 1.387 . S
N1200 Co1191 2.022 . S
N1200 C1197 1.351 . S
N1200 N1201 1.365 . S
N1201 C1198 1.341 . S
N1201 N1200 1.365 . S
N1201 H1221 0.862 . S
C1202 C1197 1.501 . S
C1202 H1203 0.961 . S
C1202 H1204 0.961 . S
C1202 H1205 0.960 . S
H1203 C1202 0.961 . S
H1204 C1202 0.961 . S
H1205 C1202 0.960 . S
C1206 N1207 1.342 . S
C1206 C1210 1.401 . S
C1206 C1211 1.499 . S
N1207 Co1190 1.989 . S
N1207 C1206 1.342 . S
N1207 N1208 1.388 . S
N1208 Co1191 1.993 . S
N1208 N1207 1.388 . S
N1208 C1209 1.346 . S
C1209 N1208 1.346 . S
C1209 C1210 1.396 . S
C1209 C1219 1.510 . S
C1210 C1206 1.401 . S
C1210 C1209 1.396 . S
C1211 C1206 1.499 . S
C1211 H1212 0.959 . S
C1211 H1213 0.960 . S
C1211 H1214 0.961 . S
H1212 C1211 0.959 . S
H1213 C1211 0.960 . S
H1214 C1211 0.961 . S
O1215 Co1190 1.967 . S
O1215 C1223 1.258 . S
O1216 Co1191 1.941 . S
O1216 C1223 1.266 . S
H1217 C1219 0.959 . S
H1218 C1219 0.961 . S
C1219 C1209 1.510 . S
C1219 H1217 0.959 . S
C1219 H1218 0.961 . S
C1219 H1220 0.960 . S
H1220 C1219 0.960 . S
H1221 N1201 0.862 . S
O1222 Co1190 1.920 . S
O1222 C1195 1.289 1_455 S
C1223 O1215 1.258 . S
C1223 O1216 1.266 . S
Co1224 O1227 1.970 . S
Co1224 N1241 1.989 . S
Co1224 O1249 1.967 . S
Co1224 O1256 1.920 . S
Co1225 O1228 1.966 . S
Co1225 N1234 2.022 . S
Co1225 N1242 1.993 . S
Co1225 O1250 1.941 . S
C1226 O1227 1.258 . S
C1226 O1228 1.263 . S
O1227 Co1224 1.970 . S
O1227 C1226 1.258 . S
O1228 Co1225 1.966 . S
O1228 C1226 1.263 . S
C1229 O1230 1.235 . S
C1229 O1256 1.289 . S
O1230 C1229 1.235 . S
C1231 C1233 1.400 . S
C1231 N1234 1.351 . S
C1231 C1236 1.501 . S
C1232 C1233 1.387 . S
C1232 N1235 1.341 . S
C1233 C1231 1.400 . S
C1233 C1232 1.387 . S
N1234 Co1225 2.022 . S
N1234 C1231 1.351 . S
N1234 N1235 1.365 . S
N1235 C1232 1.341 . S
N1235 N1234 1.365 . S
N1235 H1255 0.862 . S
C1236 C1231 1.501 . S
C1236 H1237 0.961 . S
C1236 H1238 0.961 . S
C1236 H1239 0.960 . S
H1237 C1236 0.961 . S
H1238 C1236 0.961 . S
H1239 C1236 0.960 . S
C1240 N1241 1.342 . S
C1240 C1244 1.401 . S
C1240 C1245 1.499 . S
N1241 Co1224 1.989 . S
N1241 C1240 1.342 . S
N1241 N1242 1.388 . S
N1242 Co1225 1.993 . S
N1242 N1241 1.388 . S
N1242 C1243 1.346 . S
C1243 N1242 1.346 . S
C1243 C1244 1.396 . S
C1243 C1253 1.510 . S
C1244 C1240 1.401 . S
C1244 C1243 1.396 . S
C1245 C1240 1.499 . S
C1245 H1246 0.959 . S
C1245 H1247 0.960 . S
C1245 H1248 0.961 . S
H1246 C1245 0.959 . S
H1247 C1245 0.960 . S
H1248 C1245 0.961 . S
O1249 Co1224 1.967 . S
O1249 C1257 1.258 . S
O1250 Co1225 1.941 . S
O1250 C1257 1.266 . S
H1251 C1253 0.959 . S
H1252 C1253 0.961 . S
C1253 C1243 1.510 . S
C1253 H1251 0.959 . S
C1253 H1252 0.961 . S
C1253 H1254 0.960 . S
H1254 C1253 0.960 . S
H1255 N1235 0.862 . S
O1256 Co1224 1.920 . S
O1256 C1229 1.289 . S
C1257 O1249 1.258 . S
C1257 O1250 1.266 . S
Co1258 O1261 1.970 . S
Co1258 N1275 1.989 . S
Co1258 O1283 1.967 1_565 S
Co1258 O1290 1.920 1_565 S
Co1259 O1262 1.966 . S
Co1259 N1268 2.022 . S
Co1259 N1276 1.993 . S
Co1259 O1284 1.941 . S
C1260 O1261 1.258 . S
C1260 O1262 1.263 . S
O1261 Co1258 1.970 . S
O1261 C1260 1.258 . S
O1262 Co1259 1.966 . S
O1262 C1260 1.263 . S
C1263 O1264 1.235 . S
C1263 O1290 1.289 1_565 S
O1264 C1263 1.235 . S
C1265 C1267 1.400 . S
C1265 N1268 1.351 . S
C1265 C1270 1.501 . S
C1266 C1267 1.387 . S
C1266 N1269 1.341 . S
C1267 C1265 1.400 . S
C1267 C1266 1.387 . S
N1268 Co1259 2.022 . S
N1268 C1265 1.351 . S
N1268 N1269 1.365 . S
N1269 C1266 1.341 . S
N1269 N1268 1.365 . S
N1269 H1289 0.862 . S
C1270 C1265 1.501 . S
C1270 H1271 0.961 . S
C1270 H1272 0.961 . S
C1270 H1273 0.960 . S
H1271 C1270 0.961 . S
H1272 C1270 0.961 . S
H1273 C1270 0.960 . S
C1274 N1275 1.342 . S
C1274 C1278 1.401 . S
C1274 C1279 1.499 1_565 S
N1275 Co1258 1.989 . S
N1275 C1274 1.342 . S
N1275 N1276 1.388 . S
N1276 Co1259 1.993 . S
N1276 N1275 1.388 . S
N1276 C1277 1.346 . S
C1277 N1276 1.346 . S
C1277 C1278 1.396 . S
C1277 C1287 1.510 . S
C1278 C1274 1.401 . S
C1278 C1277 1.396 . S
C1279 C1274 1.499 1_545 S
C1279 H1280 0.959 . S
C1279 H1281 0.960 1_545 S
C1279 H1282 0.961 . S
H1280 C1279 0.959 . S
H1281 C1279 0.960 1_565 S
H1282 C1279 0.961 . S
O1283 Co1258 1.967 1_545 S
O1283 C1291 1.258 . S
O1284 Co1259 1.941 . S
O1284 C1291 1.266 1_565 S
H1285 C1287 0.959 . S
H1286 C1287 0.961 . S
C1287 C1277 1.510 . S
C1287 H1285 0.959 . S
C1287 H1286 0.961 . S
C1287 H1288 0.960 . S
H1288 C1287 0.960 . S
H1289 N1269 0.862 . S
O1290 Co1258 1.920 1_545 S
O1290 C1263 1.289 1_545 S
C1291 O1283 1.258 . S
C1291 O1284 1.266 1_545 S
Co1292 O1295 1.970 . S
Co1292 N1309 1.989 . S
Co1292 O1317 1.967 . S
Co1292 O1324 1.920 . S
Co1293 O1296 1.966 . S
Co1293 N1302 2.022 . S
Co1293 N1310 1.993 . S
Co1293 O1318 1.941 . S
C1294 O1295 1.258 . S
C1294 O1296 1.263 . S
O1295 Co1292 1.970 . S
O1295 C1294 1.258 . S
O1296 Co1293 1.966 . S
O1296 C1294 1.263 . S
C1297 O1298 1.235 . S
C1297 O1324 1.289 . S
O1298 C1297 1.235 . S
C1299 C1301 1.400 1_545 S
C1299 N1302 1.351 . S
C1299 C1304 1.501 . S
C1300 C1301 1.387 . S
C1300 N1303 1.341 . S
C1301 C1299 1.400 1_565 S
C1301 C1300 1.387 . S
N1302 Co1293 2.022 . S
N1302 C1299 1.351 . S
N1302 N1303 1.365 1_545 S
N1303 C1300 1.341 . S
N1303 N1302 1.365 1_565 S
N1303 H1323 0.862 . S
C1304 C1299 1.501 . S
C1304 H1305 0.961 . S
C1304 H1306 0.961 . S
C1304 H1307 0.960 . S
H1305 C1304 0.961 . S
H1306 C1304 0.961 . S
H1307 C1304 0.960 . S
C1308 N1309 1.342 . S
C1308 C1312 1.401 . S
C1308 C1313 1.499 . S
N1309 Co1292 1.989 . S
N1309 C1308 1.342 . S
N1309 N1310 1.388 . S
N1310 Co1293 1.993 . S
N1310 N1309 1.388 . S
N1310 C1311 1.346 . S
C1311 N1310 1.346 . S
C1311 C1312 1.396 . S
C1311 C1321 1.510 . S
C1312 C1308 1.401 . S
C1312 C1311 1.396 . S
C1313 C1308 1.499 . S
C1313 H1314 0.959 . S
C1313 H1315 0.960 . S
C1313 H1316 0.961 . S
H1314 C1313 0.959 . S
H1315 C1313 0.960 . S
H1316 C1313 0.961 . S
O1317 Co1292 1.967 . S
O1317 C1325 1.258 . S
O1318 Co1293 1.941 . S
O1318 C1325 1.266 . S
H1319 C1321 0.959 . S
H1320 C1321 0.961 . S
C1321 C1311 1.510 . S
C1321 H1319 0.959 . S
C1321 H1320 0.961 . S
C1321 H1322 0.960 . S
H1322 C1321 0.960 . S
H1323 N1303 0.862 . S
O1324 Co1292 1.920 . S
O1324 C1297 1.289 . S
C1325 O1317 1.258 . S
C1325 O1318 1.266 . S
Co1326 O1329 1.970 . S
Co1326 N1343 1.989 . S
Co1326 O1351 1.967 . S
Co1326 O1358 1.920 . S
Co1327 O1330 1.966 . S
Co1327 N1336 2.022 . S
Co1327 N1344 1.993 . S
Co1327 O1352 1.941 . S
C1328 O1329 1.258 . S
C1328 O1330 1.263 . S
O1329 Co1326 1.970 . S
O1329 C1328 1.258 . S
O1330 Co1327 1.966 . S
O1330 C1328 1.263 . S
C1331 O1332 1.235 . S
C1331 O1358 1.289 . S
O1332 C1331 1.235 . S
C1333 C1335 1.400 . S
C1333 N1336 1.351 . S
C1333 C1338 1.501 . S
C1334 C1335 1.387 . S
C1334 N1337 1.341 . S
C1335 C1333 1.400 . S
C1335 C1334 1.387 . S
N1336 Co1327 2.022 . S
N1336 C1333 1.351 . S
N1336 N1337 1.365 . S
N1337 C1334 1.341 . S
N1337 N1336 1.365 . S
N1337 H1357 0.862 . S
C1338 C1333 1.501 . S
C1338 H1339 0.961 . S
C1338 H1340 0.961 . S
C1338 H1341 0.960 . S
H1339 C1338 0.961 . S
H1340 C1338 0.961 . S
H1341 C1338 0.960 . S
C1342 N1343 1.342 . S
C1342 C1346 1.401 . S
C1342 C1347 1.499 . S
N1343 Co1326 1.989 . S
N1343 C1342 1.342 . S
N1343 N1344 1.388 . S
N1344 Co1327 1.993 . S
N1344 N1343 1.388 . S
N1344 C1345 1.346 . S
C1345 N1344 1.346 . S
C1345 C1346 1.396 . S
C1345 C1355 1.510 . S
C1346 C1342 1.401 . S
C1346 C1345 1.396 . S
C1347 C1342 1.499 . S
C1347 H1348 0.959 . S
C1347 H1349 0.960 . S
C1347 H1350 0.961 . S
H1348 C1347 0.959 . S
H1349 C1347 0.960 . S
H1350 C1347 0.961 . S
O1351 Co1326 1.967 . S
O1351 C1359 1.258 . S
O1352 Co1327 1.941 . S
O1352 C1359 1.266 . S
H1353 C1355 0.959 . S
H1354 C1355 0.961 . S
C1355 C1345 1.510 . S
C1355 H1353 0.959 . S
C1355 H1354 0.961 . S
C1355 H1356 0.960 . S
H1356 C1355 0.960 . S
H1357 N1337 0.862 . S
O1358 Co1326 1.920 . S
O1358 C1331 1.289 . S
C1359 O1351 1.258 . S
C1359 O1352 1.266 . S
Co1360 O1363 1.970 . S
Co1360 N1377 1.989 . S
Co1360 O1385 1.967 . S
Co1360 O1392 1.920 . S
Co1361 O1364 1.966 . S
Co1361 N1370 2.022 . S
Co1361 N1378 1.993 . S
Co1361 O1386 1.941 . S
C1362 O1363 1.258 . S
C1362 O1364 1.263 . S
O1363 Co1360 1.970 . S
O1363 C1362 1.258 . S
O1364 Co1361 1.966 . S
O1364 C1362 1.263 . S
C1365 O1366 1.235 . S
C1365 O1392 1.289 . S
O1366 C1365 1.235 . S
C1367 C1369 1.400 . S
C1367 N1370 1.351 . S
C1367 C1372 1.501 . S
C1368 C1369 1.387 . S
C1368 N1371 1.341 . S
C1369 C1367 1.400 . S
C1369 C1368 1.387 . S
N1370 Co1361 2.022 . S
N1370 C1367 1.351 . S
N1370 N1371 1.365 . S
N1371 C1368 1.341 . S
N1371 N1370 1.365 . S
N1371 H1391 0.862 . S
C1372 C1367 1.501 . S
C1372 H1373 0.961 . S
C1372 H1374 0.961 . S
C1372 H1375 0.960 . S
H1373 C1372 0.961 . S
H1374 C1372 0.961 . S
H1375 C1372 0.960 . S
C1376 N1377 1.342 . S
C1376 C1380 1.401 . S
C1376 C1381 1.499 . S
N1377 Co1360 1.989 . S
N1377 C1376 1.342 . S
N1377 N1378 1.388 . S
N1378 Co1361 1.993 . S
N1378 N1377 1.388 . S
N1378 C1379 1.346 . S
C1379 N1378 1.346 . S
C1379 C1380 1.396 . S
C1379 C1389 1.510 . S
C1380 C1376 1.401 . S
C1380 C1379 1.396 . S
C1381 C1376 1.499 . S
C1381 H1382 0.959 . S
C1381 H1383 0.960 . S
C1381 H1384 0.961 . S
H1382 C1381 0.959 . S
H1383 C1381 0.960 . S
H1384 C1381 0.961 . S
O1385 Co1360 1.967 . S
O1385 C1393 1.258 . S
O1386 Co1361 1.941 . S
O1386 C1393 1.266 . S
H1387 C1389 0.959 . S
H1388 C1389 0.961 . S
C1389 C1379 1.510 . S
C1389 H1387 0.959 . S
C1389 H1388 0.961 . S
C1389 H1390 0.960 . S
H1390 C1389 0.960 . S
H1391 N1371 0.862 . S
O1392 Co1360 1.920 . S
O1392 C1365 1.289 . S
C1393 O1385 1.258 . S
C1393 O1386 1.266 . S
Co1394 O1397 1.970 . S
Co1394 N1411 1.989 . S
Co1394 O1419 1.967 . S
Co1394 O1426 1.920 . S
Co1395 O1398 1.966 . S
Co1395 N1404 2.022 . S
Co1395 N1412 1.993 . S
Co1395 O1420 1.941 . S
C1396 O1397 1.258 . S
C1396 O1398 1.263 . S
O1397 Co1394 1.970 . S
O1397 C1396 1.258 . S
O1398 Co1395 1.966 . S
O1398 C1396 1.263 . S
C1399 O1400 1.235 . S
C1399 O1426 1.289 . S
O1400 C1399 1.235 . S
C1401 C1403 1.400 1_556 S
C1401 N1404 1.351 . S
C1401 C1406 1.501 . S
C1402 C1403 1.387 . S
C1402 N1405 1.341 . S
C1403 C1401 1.400 1_554 S
C1403 C1402 1.387 . S
N1404 Co1395 2.022 . S
N1404 C1401 1.351 . S
N1404 N1405 1.365 1_556 S
N1405 C1402 1.341 . S
N1405 N1404 1.365 1_554 S
N1405 H1425 0.862 . S
C1406 C1401 1.501 . S
C1406 H1407 0.961 . S
C1406 H1408 0.961 . S
C1406 H1409 0.960 . S
H1407 C1406 0.961 . S
H1408 C1406 0.961 . S
H1409 C1406 0.960 . S
C1410 N1411 1.342 . S
C1410 C1414 1.401 . S
C1410 C1415 1.499 . S
N1411 Co1394 1.989 . S
N1411 C1410 1.342 . S
N1411 N1412 1.388 . S
N1412 Co1395 1.993 . S
N1412 N1411 1.388 . S
N1412 C1413 1.346 . S
C1413 N1412 1.346 . S
C1413 C1414 1.396 . S
C1413 C1423 1.510 . S
C1414 C1410 1.401 . S
C1414 C1413 1.396 . S
C1415 C1410 1.499 . S
C1415 H1416 0.959 . S
C1415 H1417 0.960 . S
C1415 H1418 0.961 . S
H1416 C1415 0.959 . S
H1417 C1415 0.960 . S
H1418 C1415 0.961 . S
O1419 Co1394 1.967 . S
O1419 C1427 1.258 . S
O1420 Co1395 1.941 . S
O1420 C1427 1.266 . S
H1421 C1423 0.959 . S
H1422 C1423 0.961 . S
C1423 C1413 1.510 . S
C1423 H1421 0.959 . S
C1423 H1422 0.961 . S
C1423 H1424 0.960 . S
H1424 C1423 0.960 . S
H1425 N1405 0.862 . S
O1426 Co1394 1.920 . S
O1426 C1399 1.289 . S
C1427 O1419 1.258 . S
C1427 O1420 1.266 . S
Co1428 O1431 1.970 . S
Co1428 N1445 1.989 . S
Co1428 O1453 1.967 . S
Co1428 O1460 1.920 . S
Co1429 O1432 1.966 . S
Co1429 N1438 2.022 . S
Co1429 N1446 1.993 . S
Co1429 O1454 1.941 . S
C1430 O1431 1.258 . S
C1430 O1432 1.263 . S
O1431 Co1428 1.970 . S
O1431 C1430 1.258 . S
O1432 Co1429 1.966 . S
O1432 C1430 1.263 . S
C1433 O1434 1.235 . S
C1433 O1460 1.289 . S
O1434 C1433 1.235 . S
C1435 C1437 1.400 . S
C1435 N1438 1.351 . S
C1435 C1440 1.501 . S
C1436 C1437 1.387 . S
C1436 N1439 1.341 . S
C1437 C1435 1.400 . S
C1437 C1436 1.387 . S
N1438 Co1429 2.022 . S
N1438 C1435 1.351 . S
N1438 N1439 1.365 . S
N1439 C1436 1.341 . S
N1439 N1438 1.365 . S
N1439 H1459 0.862 . S
C1440 C1435 1.501 . S
C1440 H1441 0.961 . S
C1440 H1442 0.961 . S
C1440 H1443 0.960 . S
H1441 C1440 0.961 . S
H1442 C1440 0.961 . S
H1443 C1440 0.960 . S
C1444 N1445 1.342 . S
C1444 C1448 1.401 . S
C1444 C1449 1.499 . S
N1445 Co1428 1.989 . S
N1445 C1444 1.342 . S
N1445 N1446 1.388 . S
N1446 Co1429 1.993 . S
N1446 N1445 1.388 . S
N1446 C1447 1.346 . S
C1447 N1446 1.346 . S
C1447 C1448 1.396 . S
C1447 C1457 1.510 . S
C1448 C1444 1.401 . S
C1448 C1447 1.396 . S
C1449 C1444 1.499 . S
C1449 H1450 0.959 . S
C1449 H1451 0.960 . S
C1449 H1452 0.961 . S
H1450 C1449 0.959 . S
H1451 C1449 0.960 . S
H1452 C1449 0.961 . S
O1453 Co1428 1.967 . S
O1453 C1461 1.258 . S
O1454 Co1429 1.941 . S
O1454 C1461 1.266 . S
H1455 C1457 0.959 . S
H1456 C1457 0.961 . S
C1457 C1447 1.510 . S
C1457 H1455 0.959 . S
C1457 H1456 0.961 . S
C1457 H1458 0.960 . S
H1458 C1457 0.960 . S
H1459 N1439 0.862 . S
O1460 Co1428 1.920 . S
O1460 C1433 1.289 . S
C1461 O1453 1.258 . S
C1461 O1454 1.266 . S
Co1462 O1465 1.970 . S
Co1462 N1479 1.989 . S
Co1462 O1487 1.967 . S
Co1462 O1494 1.920 . S
Co1463 O1466 1.966 . S
Co1463 N1472 2.022 . S
Co1463 N1480 1.993 . S
Co1463 O1488 1.941 . S
C1464 O1465 1.258 . S
C1464 O1466 1.263 . S
O1465 Co1462 1.970 . S
O1465 C1464 1.258 . S
O1466 Co1463 1.966 . S
O1466 C1464 1.263 . S
C1467 O1468 1.235 . S
C1467 O1494 1.289 . S
O1468 C1467 1.235 . S
C1469 C1471 1.400 1_556 S
C1469 N1472 1.351 . S
C1469 C1474 1.501 . S
C1470 C1471 1.387 . S
C1470 N1473 1.341 . S
C1471 C1469 1.400 1_554 S
C1471 C1470 1.387 . S
N1472 Co1463 2.022 . S
N1472 C1469 1.351 . S
N1472 N1473 1.365 1_556 S
N1473 C1470 1.341 . S
N1473 N1472 1.365 1_554 S
N1473 H1493 0.862 . S
C1474 C1469 1.501 . S
C1474 H1475 0.961 . S
C1474 H1476 0.961 . S
C1474 H1477 0.960 . S
H1475 C1474 0.961 . S
H1476 C1474 0.961 . S
H1477 C1474 0.960 . S
C1478 N1479 1.342 . S
C1478 C1482 1.401 . S
C1478 C1483 1.499 . S
N1479 Co1462 1.989 . S
N1479 C1478 1.342 . S
N1479 N1480 1.388 . S
N1480 Co1463 1.993 . S
N1480 N1479 1.388 . S
N1480 C1481 1.346 . S
C1481 N1480 1.346 . S
C1481 C1482 1.396 . S
C1481 C1491 1.510 . S
C1482 C1478 1.401 . S
C1482 C1481 1.396 . S
C1483 C1478 1.499 . S
C1483 H1484 0.959 . S
C1483 H1485 0.960 . S
C1483 H1486 0.961 . S
H1484 C1483 0.959 . S
H1485 C1483 0.960 . S
H1486 C1483 0.961 . S
O1487 Co1462 1.967 . S
O1487 C1495 1.258 . S
O1488 Co1463 1.941 . S
O1488 C1495 1.266 . S
H1489 C1491 0.959 . S
H1490 C1491 0.961 . S
C1491 C1481 1.510 . S
C1491 H1489 0.959 . S
C1491 H1490 0.961 . S
C1491 H1492 0.960 . S
H1492 C1491 0.960 . S
H1493 N1473 0.862 . S
O1494 Co1462 1.920 . S
O1494 C1467 1.289 . S
C1495 O1487 1.258 . S
C1495 O1488 1.266 . S
Co1496 O1499 1.970 . S
Co1496 N1513 1.989 . S
Co1496 O1521 1.967 1_455 S
Co1496 O1528 1.920 1_455 S
Co1497 O1500 1.966 . S
Co1497 N1506 2.022 . S
Co1497 N1514 1.993 . S
Co1497 O1522 1.941 . S
C1498 O1499 1.258 . S
C1498 O1500 1.263 . S
O1499 Co1496 1.970 . S
O1499 C1498 1.258 . S
O1500 Co1497 1.966 . S
O1500 C1498 1.263 . S
C1501 O1502 1.235 . S
C1501 O1528 1.289 1_454 S
O1502 C1501 1.235 . S
C1503 C1505 1.400 . S
C1503 N1506 1.351 . S
C1503 C1508 1.501 . S
C1504 C1505 1.387 . S
C1504 N1507 1.341 . S
C1505 C1503 1.400 . S
C1505 C1504 1.387 . S
N1506 Co1497 2.022 . S
N1506 C1503 1.351 . S
N1506 N1507 1.365 . S
N1507 C1504 1.341 . S
N1507 N1506 1.365 . S
N1507 H1527 0.862 . S
C1508 C1503 1.501 . S
C1508 H1509 0.961 . S
C1508 H1510 0.961 . S
C1508 H1511 0.960 . S
H1509 C1508 0.961 . S
H1510 C1508 0.961 . S
H1511 C1508 0.960 . S
C1512 N1513 1.342 . S
C1512 C1516 1.401 . S
C1512 C1517 1.499 1_455 S
N1513 Co1496 1.989 . S
N1513 C1512 1.342 . S
N1513 N1514 1.388 . S
N1514 Co1497 1.993 . S
N1514 N1513 1.388 . S
N1514 C1515 1.346 . S
C1515 N1514 1.346 . S
C1515 C1516 1.396 . S
C1515 C1525 1.510 . S
C1516 C1512 1.401 . S
C1516 C1515 1.396 . S
C1517 C1512 1.499 1_655 S
C1517 H1518 0.959 . S
C1517 H1519 0.960 1_655 S
C1517 H1520 0.961 . S
H1518 C1517 0.959 . S
H1519 C1517 0.960 1_455 S
H1520 C1517 0.961 . S
O1521 Co1496 1.967 1_655 S
O1521 C1529 1.258 . S
O1522 Co1497 1.941 . S
O1522 C1529 1.266 1_455 S
H1523 C1525 0.959 . S
H1524 C1525 0.961 . S
C1525 C1515 1.510 . S
C1525 H1523 0.959 . S
C1525 H1524 0.961 . S
C1525 H1526 0.960 . S
H1526 C1525 0.960 . S
H1527 N1507 0.862 . S
O1528 Co1496 1.920 1_655 S
O1528 C1501 1.289 1_656 S
C1529 O1521 1.258 . S
C1529 O1522 1.266 1_655 S
Co1530 O1533 1.970 . S
Co1530 N1547 1.989 . S
Co1530 O1555 1.967 . S
Co1530 O1562 1.920 . S
Co1531 O1534 1.966 . S
Co1531 N1540 2.022 . S
Co1531 N1548 1.993 . S
Co1531 O1556 1.941 . S
C1532 O1533 1.258 . S
C1532 O1534 1.263 . S
O1533 Co1530 1.970 . S
O1533 C1532 1.258 . S
O1534 Co1531 1.966 . S
O1534 C1532 1.263 . S
C1535 O1536 1.235 . S
C1535 O1562 1.289 . S
O1536 C1535 1.235 . S
C1537 C1539 1.400 1_554 S
C1537 N1540 1.351 . S
C1537 C1542 1.501 . S
C1538 C1539 1.387 . S
C1538 N1541 1.341 . S
C1539 C1537 1.400 1_556 S
C1539 C1538 1.387 . S
N1540 Co1531 2.022 . S
N1540 C1537 1.351 . S
N1540 N1541 1.365 1_554 S
N1541 C1538 1.341 . S
N1541 N1540 1.365 1_556 S
N1541 H1561 0.862 . S
C1542 C1537 1.501 . S
C1542 H1543 0.961 . S
C1542 H1544 0.961 . S
C1542 H1545 0.960 . S
H1543 C1542 0.961 . S
H1544 C1542 0.961 . S
H1545 C1542 0.960 . S
C1546 N1547 1.342 . S
C1546 C1550 1.401 . S
C1546 C1551 1.499 . S
N1547 Co1530 1.989 . S
N1547 C1546 1.342 . S
N1547 N1548 1.388 . S
N1548 Co1531 1.993 . S
N1548 N1547 1.388 . S
N1548 C1549 1.346 . S
C1549 N1548 1.346 . S
C1549 C1550 1.396 . S
C1549 C1559 1.510 . S
C1550 C1546 1.401 . S
C1550 C1549 1.396 . S
C1551 C1546 1.499 . S
C1551 H1552 0.959 . S
C1551 H1553 0.960 . S
C1551 H1554 0.961 . S
H1552 C1551 0.959 . S
H1553 C1551 0.960 . S
H1554 C1551 0.961 . S
O1555 Co1530 1.967 . S
O1555 C1563 1.258 . S
O1556 Co1531 1.941 . S
O1556 C1563 1.266 . S
H1557 C1559 0.959 . S
H1558 C1559 0.961 . S
C1559 C1549 1.510 . S
C1559 H1557 0.959 . S
C1559 H1558 0.961 . S
C1559 H1560 0.960 . S
H1560 C1559 0.960 . S
H1561 N1541 0.862 . S
O1562 Co1530 1.920 . S
O1562 C1535 1.289 . S
C1563 O1555 1.258 . S
C1563 O1556 1.266 . S
Co1564 O1567 1.970 . S
Co1564 N1581 1.989 . S
Co1564 O1589 1.967 . S
Co1564 O1596 1.920 . S
Co1565 O1568 1.966 . S
Co1565 N1574 2.022 . S
Co1565 N1582 1.993 . S
Co1565 O1590 1.941 . S
C1566 O1567 1.258 . S
C1566 O1568 1.263 . S
O1567 Co1564 1.970 . S
O1567 C1566 1.258 . S
O1568 Co1565 1.966 . S
O1568 C1566 1.263 . S
C1569 O1570 1.235 . S
C1569 O1596 1.289 1_556 S
O1570 C1569 1.235 . S
C1571 C1573 1.400 . S
C1571 N1574 1.351 . S
C1571 C1576 1.501 . S
C1572 C1573 1.387 . S
C1572 N1575 1.341 . S
C1573 C1571 1.400 . S
C1573 C1572 1.387 . S
N1574 Co1565 2.022 . S
N1574 C1571 1.351 . S
N1574 N1575 1.365 . S
N1575 C1572 1.341 . S
N1575 N1574 1.365 . S
N1575 H1595 0.862 . S
C1576 C1571 1.501 . S
C1576 H1577 0.961 . S
C1576 H1578 0.961 . S
C1576 H1579 0.960 . S
H1577 C1576 0.961 . S
H1578 C1576 0.961 . S
H1579 C1576 0.960 . S
C1580 N1581 1.342 . S
C1580 C1584 1.401 . S
C1580 C1585 1.499 . S
N1581 Co1564 1.989 . S
N1581 C1580 1.342 . S
N1581 N1582 1.388 . S
N1582 Co1565 1.993 . S
N1582 N1581 1.388 . S
N1582 C1583 1.346 . S
C1583 N1582 1.346 . S
C1583 C1584 1.396 . S
C1583 C1593 1.510 . S
C1584 C1580 1.401 . S
C1584 C1583 1.396 . S
C1585 C1580 1.499 . S
C1585 H1586 0.959 . S
C1585 H1587 0.960 . S
C1585 H1588 0.961 . S
H1586 C1585 0.959 . S
H1587 C1585 0.960 . S
H1588 C1585 0.961 . S
O1589 Co1564 1.967 . S
O1589 C1597 1.258 . S
O1590 Co1565 1.941 . S
O1590 C1597 1.266 . S
H1591 C1593 0.959 . S
H1592 C1593 0.961 . S
C1593 C1583 1.510 . S
C1593 H1591 0.959 . S
C1593 H1592 0.961 . S
C1593 H1594 0.960 . S
H1594 C1593 0.960 . S
H1595 N1575 0.862 . S
O1596 Co1564 1.920 . S
O1596 C1569 1.289 1_554 S
C1597 O1589 1.258 . S
C1597 O1590 1.266 . S
Co1598 O1601 1.970 . S
Co1598 N1615 1.989 . S
Co1598 O1623 1.967 . S
Co1598 O1630 1.920 . S
Co1599 O1602 1.966 . S
Co1599 N1608 2.022 . S
Co1599 N1616 1.993 . S
Co1599 O1624 1.941 . S
C1600 O1601 1.258 . S
C1600 O1602 1.263 . S
O1601 Co1598 1.970 . S
O1601 C1600 1.258 . S
O1602 Co1599 1.966 . S
O1602 C1600 1.263 . S
C1603 O1604 1.235 . S
C1603 O1630 1.289 1_556 S
O1604 C1603 1.235 . S
C1605 C1607 1.400 . S
C1605 N1608 1.351 . S
C1605 C1610 1.501 . S
C1606 C1607 1.387 . S
C1606 N1609 1.341 . S
C1607 C1605 1.400 . S
C1607 C1606 1.387 . S
N1608 Co1599 2.022 . S
N1608 C1605 1.351 . S
N1608 N1609 1.365 . S
N1609 C1606 1.341 . S
N1609 N1608 1.365 . S
N1609 H1629 0.862 . S
C1610 C1605 1.501 . S
C1610 H1611 0.961 . S
C1610 H1612 0.961 . S
C1610 H1613 0.960 . S
H1611 C1610 0.961 . S
H1612 C1610 0.961 . S
H1613 C1610 0.960 . S
C1614 N1615 1.342 . S
C1614 C1618 1.401 . S
C1614 C1619 1.499 . S
N1615 Co1598 1.989 . S
N1615 C1614 1.342 . S
N1615 N1616 1.388 . S
N1616 Co1599 1.993 . S
N1616 N1615 1.388 . S
N1616 C1617 1.346 . S
C1617 N1616 1.346 . S
C1617 C1618 1.396 . S
C1617 C1627 1.510 . S
C1618 C1614 1.401 . S
C1618 C1617 1.396 . S
C1619 C1614 1.499 . S
C1619 H1620 0.959 . S
C1619 H1621 0.960 . S
C1619 H1622 0.961 . S
H1620 C1619 0.959 . S
H1621 C1619 0.960 . S
H1622 C1619 0.961 . S
O1623 Co1598 1.967 . S
O1623 C1631 1.258 . S
O1624 Co1599 1.941 . S
O1624 C1631 1.266 . S
H1625 C1627 0.959 . S
H1626 C1627 0.961 . S
C1627 C1617 1.510 . S
C1627 H1625 0.959 . S
C1627 H1626 0.961 . S
C1627 H1628 0.960 . S
H1628 C1627 0.960 . S
H1629 N1609 0.862 . S
O1630 Co1598 1.920 . S
O1630 C1603 1.289 1_554 S
C1631 O1623 1.258 . S
C1631 O1624 1.266 . S
C549 C33 2.696 . S
C1603 C67 2.696 1_556 S
C101 C1535 2.696 . S
C135 C1569 2.696 1_554 S
C169 C583 2.696 . S
C617 C203 2.696 1_654 S
C651 C237 2.696 . S
C1501 C271 2.696 1_454 S
C305 C5 2.696 . S
C39 C339 2.696 1_556 S
C373 C73 2.696 . S
C107 C407 2.696 1_546 S
C441 C141 2.696 . S
C475 C175 2.696 1_556 S
C209 C509 2.696 . S
C243 C543 2.696 1_544 S
C277 C577 2.696 . S
C413 C611 2.696 . S
C447 C645 2.696 1_655 S
C481 C679 2.696 . S
C1331 C713 2.696 . S
C747 C1161 2.696 . S
C1195 C781 2.696 1_655 S
C815 C1127 2.696 1_645 S
C849 C1365 2.696 . S
C883 C787 2.696 1_655 S
C719 C917 2.696 . S
C753 C951 2.696 1_655 S
C1399 C985 2.696 . S
C1019 C1433 2.696 . S
C1467 C1053 2.696 . S
C1087 C685 2.696 . S
C821 C1121 2.696 . S
C855 C1155 2.696 1_565 S
C1189 C889 2.696 . S
C1223 C923 2.696 . S
C1257 C957 2.696 . S
C991 C1291 2.696 1_565 S
C1325 C1025 2.696 . S
C1059 C1359 2.696 . S
C1093 C1393 2.696 . S
C1427 C1229 2.696 . S
C1263 C1461 2.696 1_565 S
C1297 C1495 2.696 . S
C1529 C515 2.696 1_665 S
C1563 C345 2.696 . S
C1597 C379 2.696 1_565 S
C311 C1631 2.696 . S
C20 C156 2.028 1_545 S
C54 C190 2.028 1_556 S
C224 C88 2.028 . S
C258 C122 2.028 1_554 S
C1312 C292 2.028 1_556 S
C1346 C326 2.028 . S
C1244 C360 2.028 1_556 S
C394 C1278 2.028 1_545 S
C428 C1176 2.028 . S
C462 C1210 2.028 . S
C496 C1108 2.028 . S
C530 C1142 2.028 1_545 S
C1550 C564 2.028 1_655 S
C666 C598 2.028 1_655 S
C1516 C632 2.028 1_455 S
C1448 C700 2.028 . S
C734 C1380 2.028 . S
C768 C802 2.028 1_655 S
C972 C836 2.028 . S
C1006 C870 2.028 . S
C904 C1040 2.028 1_565 S
C1074 C938 2.028 . S
C1414 C1482 2.028 . S
C1618 C1584 2.028 . S
C2 C927 1.536 . S
C36 C825 1.536 . S
C70 C859 1.536 . S
C893 C104 1.536 . S
C138 C179 1.536 . S
C213 C172 1.536 . S
C247 C206 1.536 . S
C240 C145 1.536 . S
C1437 C274 1.536 . S
C308 C1471 1.536 . S
C689 C342 1.536 . S
C376 C1403 1.536 . S
C410 C1573 1.536 . S
C444 C553 1.536 . S
C1607 C478 1.536 . S
C1539 C512 1.536 . S
C315 C546 1.536 . S
C580 C1335 1.536 . S
C614 C1233 1.536 . S
C648 C1267 1.536 . S
C485 C682 1.536 . S
C716 C1199 1.536 . S
C750 C1097 1.536 . S
C1165 C784 1.536 . S
C818 C111 1.536 . S
C852 C9 1.536 . S
C886 C43 1.536 . S
C920 C77 1.536 . S
C954 C995 1.536 . S
C988 C1029 1.536 . S
C1022 C1063 1.536 . S
C961 C1056 1.536 . S
C1090 C621 1.536 . S
C1124 C655 1.536 . S
C1158 C1505 1.536 . S
C587 C1192 1.536 . S
C757 C1226 1.536 . S
C1260 C1369 1.536 . S
C1294 C791 1.536 . S
C1328 C723 1.536 . S
C1131 C1362 1.536 . S
C1396 C519 1.536 . S
C1430 C417 1.536 . S
C1464 C451 1.536 . S
C1301 C1498 1.536 . S
C383 C1532 1.536 . S
C281 C1566 1.536 . S
C349 C1600 1.536 . S
