# Generated by pormake.
# Topology wfa, (4)-cn, num edge types: 1
# Building blocks:
#     Node 0, Type 0, BuildingBlock: CEKHIL_clean_sbu_0, # of connection points: 4
#     Node 1, Type 0, BuildingBlock: CEKHIL_clean_sbu_0, # of connection points: 4
#     Node 2, Type 0, BuildingBlock: CEKHIL_clean_sbu_0, # of connection points: 4
#     Node 3, Type 0, BuildingBlock: CEKHIL_clean_sbu_0, # of connection points: 4
#     Node 4, Type 0, BuildingBlock: CEKHIL_clean_sbu_0, # of connection points: 4
#     Node 5, Type 0, BuildingBlock: CEKHIL_clean_sbu_0, # of connection points: 4
#     Node 6, Type 0, BuildingBlock: CEKHIL_clean_sbu_0, # of connection points: 4
#     Node 7, Type 0, BuildingBlock: CEKHIL_clean_sbu_0, # of connection points: 4
#     Node 8, Type 0, BuildingBlock: CEKHIL_clean_sbu_0, # of connection points: 4
#     Node 9, Type 0, BuildingBlock: CEKHIL_clean_sbu_0, # of connection points: 4
#     Node 10, Type 0, BuildingBlock: CEKHIL_clean_sbu_0, # of connection points: 4
#     Node 11, Type 0, BuildingBlock: CEKHIL_clean_sbu_0, # of connection points: 4
#     Node 12, Type 0, BuildingBlock: CEKHIL_clean_sbu_0, # of connection points: 4
#     Node 13, Type 0, BuildingBlock: CEKHIL_clean_sbu_0, # of connection points: 4
#     Node 14, Type 0, BuildingBlock: CEKHIL_clean_sbu_0, # of connection points: 4
#     Node 15, Type 0, BuildingBlock: CEKHIL_clean_sbu_0, # of connection points: 4
#     Edge 16, Type (0, 0), BuildingBlock: OJICUG_clean_linker_0, # of connection points: 2
#     Edge 17, Type (0, 0), BuildingBlock: OJICUG_clean_linker_0, # of connection points: 2
#     Edge 18, Type (0, 0), BuildingBlock: OJICUG_clean_linker_0, # of connection points: 2
#     Edge 19, Type (0, 0), BuildingBlock: OJICUG_clean_linker_0, # of connection points: 2
#     Edge 20, Type (0, 0), BuildingBlock: OJICUG_clean_linker_0, # of connection points: 2
#     Edge 21, Type (0, 0), BuildingBlock: OJICUG_clean_linker_0, # of connection points: 2
#     Edge 22, Type (0, 0), BuildingBlock: OJICUG_clean_linker_0, # of connection points: 2
#     Edge 23, Type (0, 0), BuildingBlock: OJICUG_clean_linker_0, # of connection points: 2
#     Edge 24, Type (0, 0), BuildingBlock: OJICUG_clean_linker_0, # of connection points: 2
#     Edge 25, Type (0, 0), BuildingBlock: OJICUG_clean_linker_0, # of connection points: 2
#     Edge 26, Type (0, 0), BuildingBlock: OJICUG_clean_linker_0, # of connection points: 2
#     Edge 27, Type (0, 0), BuildingBlock: OJICUG_clean_linker_0, # of connection points: 2
#     Edge 28, Type (0, 0), BuildingBlock: OJICUG_clean_linker_0, # of connection points: 2
#     Edge 29, Type (0, 0), BuildingBlock: OJICUG_clean_linker_0, # of connection points: 2
#     Edge 30, Type (0, 0), BuildingBlock: OJICUG_clean_linker_0, # of connection points: 2
#     Edge 31, Type (0, 0), BuildingBlock: OJICUG_clean_linker_0, # of connection points: 2
#     Edge 32, Type (0, 0), BuildingBlock: OJICUG_clean_linker_0, # of connection points: 2
#     Edge 33, Type (0, 0), BuildingBlock: OJICUG_clean_linker_0, # of connection points: 2
#     Edge 34, Type (0, 0), BuildingBlock: OJICUG_clean_linker_0, # of connection points: 2
#     Edge 35, Type (0, 0), BuildingBlock: OJICUG_clean_linker_0, # of connection points: 2
#     Edge 36, Type (0, 0), BuildingBlock: OJICUG_clean_linker_0, # of connection points: 2
#     Edge 37, Type (0, 0), BuildingBlock: OJICUG_clean_linker_0, # of connection points: 2
#     Edge 38, Type (0, 0), BuildingBlock: OJICUG_clean_linker_0, # of connection points: 2
#     Edge 39, Type (0, 0), BuildingBlock: OJICUG_clean_linker_0, # of connection points: 2
#     Edge 40, Type (0, 0), BuildingBlock: OJICUG_clean_linker_0, # of connection points: 2
#     Edge 41, Type (0, 0), BuildingBlock: OJICUG_clean_linker_0, # of connection points: 2
#     Edge 42, Type (0, 0), BuildingBlock: OJICUG_clean_linker_0, # of connection points: 2
#     Edge 43, Type (0, 0), BuildingBlock: OJICUG_clean_linker_0, # of connection points: 2
#     Edge 44, Type (0, 0), BuildingBlock: OJICUG_clean_linker_0, # of connection points: 2
#     Edge 45, Type (0, 0), BuildingBlock: OJICUG_clean_linker_0, # of connection points: 2
#     Edge 46, Type (0, 0), BuildingBlock: OJICUG_clean_linker_0, # of connection points: 2
#     Edge 47, Type (0, 0), BuildingBlock: OJICUG_clean_linker_0, # of connection points: 2
# Relax obj value: 0.219
# Max RMSD: 0.278
# Mean RMSD: 0.272
data_MOF--net-wfa--node1-CEKHIL_clean_sbu_0--edge1-OJICUG_clean_linker_0
_symmetry_space_group_name_H-M    P1
_symmetry_Int_Tables_number       1
_symmetry_cell_setting            triclinic
loop_
_symmetry_equiv_pos_as_xyz
'x, y, z'
_cell_length_a     33.079205
_cell_length_b     33.055186
_cell_length_c     17.07527
_cell_angle_alpha  89.578149
_cell_angle_beta   89.638967
_cell_angle_gamma 89.492971
loop_
_atom_site_label
_atom_site_type_symbol
_atom_site_fract_x
_atom_site_fract_y
_atom_site_fract_z
_atom_type_partial_charge
Co0 Co 0.65299 0.98878 0.02519 0.0
O1 O 0.67183 0.9495 0.94998 0.0
O2 O 0.697 0.01088 0.96318 0.0
C3 C 0.58543 0.98492 1.00359 0.0
O4 O 0.64033 0.03629 0.0961 0.0
Co5 Co 0.60166 0.95256 0.16351 0.0
O6 O 0.60519 0.00957 0.1979 0.0
C7 C 0.68983 0.95111 0.1751 0.0
C8 C 0.69729 0.97657 0.92615 0.0
C9 C 0.623 0.03892 0.16356 0.0
O10 O 0.69255 0.96895 0.10784 0.0
O11 O 0.65659 0.9381 0.20392 0.0
O12 O 0.60852 0.00558 0.95683 0.0
O13 O 0.60481 0.96173 0.05213 0.0
Co14 Co 0.5221 0.65571 0.03797 0.0
O15 O 0.56204 0.67496 0.96319 0.0
O16 O 0.50155 0.70241 0.98035 0.0
C17 C 0.52432 0.58828 0.00813 0.0
O18 O 0.47363 0.64371 0.10796 0.0
Co19 Co 0.55352 0.59613 0.16921 0.0
O20 O 0.49649 0.60179 0.20356 0.0
C21 C 0.55393 0.6845 0.19671 0.0
C22 C 0.53565 0.70203 0.94189 0.0
C23 C 0.46893 0.62359 0.17211 0.0
O24 O 0.54307 0.69195 0.1253 0.0
O25 O 0.56171 0.64889 0.22272 0.0
O26 O 0.50418 0.61376 0.96514 0.0
O27 O 0.54756 0.60512 0.05871 0.0
Co28 Co 0.84786 0.51735 0.02297 0.0
O29 O 0.82959 0.55475 0.94329 0.0
O30 O 0.80362 0.49415 0.96455 0.0
C31 C 0.91547 0.52027 0.99928 0.0
O32 O 0.85988 0.47202 0.10067 0.0
Co33 Co 0.89917 0.55757 0.15473 0.0
O34 O 0.89334 0.50232 0.19917 0.0
C35 C 0.81093 0.55773 0.16965 0.0
C36 C 0.80369 0.52756 0.92356 0.0
C37 C 0.87578 0.47189 0.16935 0.0
O38 O 0.80823 0.5396 0.1033 0.0
O39 O 0.84413 0.57105 0.19694 0.0
O40 O 0.89237 0.49828 0.95613 0.0
O41 O 0.89612 0.5448 0.04511 0.0
Co42 Co 0.9907 0.84836 0.02006 0.0
O43 O 0.95177 0.82922 0.94579 0.0
O44 O 0.01364 0.8042 0.95956 0.0
C45 C 0.98507 0.91572 0.99564 0.0
O46 O 0.03789 0.86154 0.09074 0.0
Co47 Co 0.9533 0.90012 0.15616 0.0
O48 O 0.01048 0.8978 0.19009 0.0
C49 C 0.95363 0.81188 0.17095 0.0
C50 C 0.97926 0.80376 0.92275 0.0
C51 C 0.04018 0.87975 0.15692 0.0
O52 O 0.9717 0.80899 0.10405 0.0
O53 O 0.93989 0.8452 0.19838 0.0
O54 O 0.00647 0.8927 0.94997 0.0
O55 O 0.96247 0.89631 0.04499 0.0
Co56 Co 0.15419 0.01156 0.49168 0.0
O57 O 0.1714 0.04656 0.57495 0.0
O58 O 0.2002 0.98789 0.54558 0.0
C59 C 0.0867 0.01291 0.517 0.0
O60 O 0.14324 0.968 0.41139 0.0
Co61 Co 0.10069 0.0534 0.36319 0.0
O62 O 0.10627 0.9988 0.31682 0.0
C63 C 0.18875 0.05531 0.34565 0.0
C64 C 0.19894 0.01963 0.59038 0.0
C65 C 0.1256 0.96836 0.3444 0.0
O66 O 0.19251 0.03672 0.41197 0.0
O67 O 0.15486 0.06802 0.31907 0.0
O68 O 0.11069 0.98993 0.55791 0.0
O69 O 0.105 0.03881 0.47239 0.0
Co70 Co 0.48161 0.15738 0.48289 0.0
O71 O 0.44425 0.17629 0.56303 0.0
O72 O 0.5023 0.20537 0.53345 0.0
C73 C 0.48207 0.0901 0.51613 0.0
O74 O 0.52779 0.14551 0.40728 0.0
Co75 Co 0.44747 0.09689 0.35885 0.0
O76 O 0.50327 0.10231 0.31749 0.0
C77 C 0.44509 0.18491 0.32585 0.0
C78 C 0.47001 0.20455 0.57743 0.0
C79 C 0.53114 0.12469 0.34421 0.0
O80 O 0.45662 0.19288 0.39642 0.0
O81 O 0.43765 0.14909 0.30239 0.0
O82 O 0.50336 0.11578 0.55505 0.0
O83 O 0.45685 0.10667 0.46794 0.0
Co84 Co 0.34826 0.48968 0.49449 0.0
O85 O 0.32991 0.45066 0.57099 0.0
O86 O 0.3036 0.51195 0.55512 0.0
C87 C 0.41576 0.48567 0.51768 0.0
O88 O 0.36042 0.53673 0.42111 0.0
Co89 Co 0.4006 0.45223 0.35903 0.0
O90 O 0.39558 0.5088 0.32068 0.0
C91 C 0.31248 0.45179 0.34554 0.0
C92 C 0.30384 0.4777 0.59341 0.0
C93 C 0.37741 0.53857 0.35313 0.0
O94 O 0.30929 0.46956 0.41232 0.0
O95 O 0.34597 0.43857 0.31755 0.0
O96 O 0.3922 0.50676 0.56285 0.0
O97 O 0.3969 0.4624 0.46977 0.0
Co98 Co 0.01618 0.34785 0.48567 0.0
O99 O 0.05622 0.32706 0.55773 0.0
O100 O 0.99484 0.30212 0.54408 0.0
C101 C 0.02074 0.41468 0.51565 0.0
O102 O 0.96756 0.36215 0.41822 0.0
Co103 Co 0.04816 0.40655 0.35334 0.0
O104 O 0.99036 0.40515 0.3244 0.0
C105 C 0.04682 0.31828 0.3259 0.0
C106 C 0.02931 0.30121 0.58052 0.0
C107 C 0.96263 0.3839 0.35616 0.0
O108 O 0.03574 0.31108 0.39739 0.0
O109 O 0.05526 0.35357 0.29968 0.0
O110 O 0.99995 0.39036 0.55971 0.0
O111 O 0.04298 0.3968 0.46377 0.0
Co112 Co 0.34688 0.01755 0.9944 0.0
O113 O 0.32566 0.05792 0.06542 0.0
O114 O 0.30155 0.99606 0.05348 0.0
C115 C 0.41376 0.02275 0.02355 0.0
O116 O 0.36162 0.96846 0.92891 0.0
Co117 Co 0.40484 0.04893 0.8605 0.0
O118 O 0.40462 0.99067 0.83471 0.0
C119 C 0.31667 0.04638 0.83354 0.0
C120 C 0.30024 0.03076 0.08906 0.0
C121 C 0.38367 0.96304 0.86756 0.0
O122 O 0.30975 0.03594 0.90552 0.0
O123 O 0.35179 0.05489 0.80673 0.0
O124 O 0.38965 0.00233 0.06869 0.0
O125 O 0.3956 0.04458 0.97126 0.0
Co126 Co 0.48299 0.3495 0.98037 0.0
O127 O 0.44507 0.33177 0.06052 0.0
O128 O 0.50277 0.30083 0.03255 0.0
C129 C 0.48432 0.41673 0.01182 0.0
O130 O 0.52967 0.35992 0.90514 0.0
Co131 Co 0.45031 0.41116 0.8541 0.0
O132 O 0.5063 0.4043 0.8143 0.0
C133 C 0.44664 0.32323 0.82358 0.0
C134 C 0.47037 0.30269 0.0761 0.0
C135 C 0.53368 0.3809 0.84189 0.0
O136 O 0.4578 0.31487 0.89452 0.0
O137 O 0.4399 0.35929 0.79898 0.0
O138 O 0.50502 0.39031 0.05177 0.0
O139 O 0.45906 0.40104 0.96361 0.0
Co140 Co 0.1551 0.48906 0.99591 0.0
O141 O 0.17373 0.45076 0.07367 0.0
O142 O 0.19925 0.51179 0.05514 0.0
C143 C 0.08754 0.48552 0.01973 0.0
O144 O 0.14268 0.53539 0.92081 0.0
Co145 Co 0.1037 0.45056 0.86235 0.0
O146 O 0.10873 0.50657 0.82127 0.0
C147 C 0.19191 0.45016 0.8475 0.0
C148 C 0.19943 0.4779 0.09461 0.0
C149 C 0.12632 0.53656 0.85261 0.0
O150 O 0.19467 0.46804 0.91412 0.0
O151 O 0.15869 0.43694 0.82013 0.0
O152 O 0.11059 0.50702 0.06392 0.0
O153 O 0.10695 0.46169 0.97264 0.0
Co154 Co 0.01347 0.1552 0.98507 0.0
O155 O 0.04882 0.17342 0.06686 0.0
O156 O 0.98934 0.20095 0.03892 0.0
C157 C 0.01636 0.08789 0.01147 0.0
O158 O 0.96944 0.14295 0.90654 0.0
Co159 Co 0.05511 0.10197 0.85612 0.0
O160 O 0.99989 0.10573 0.81203 0.0
C161 C 0.05544 0.19005 0.83742 0.0
C162 C 0.02143 0.2004 0.0828 0.0
C163 C 0.96939 0.12467 0.84024 0.0
O164 O 0.03711 0.19372 0.90395 0.0
O165 O 0.06863 0.15629 0.81112 0.0
O166 O 0.99334 0.11162 0.05275 0.0
O167 O 0.04151 0.10648 0.96571 0.0
Co168 Co 0.84742 0.98645 0.5229 0.0
O169 O 0.82798 0.94781 0.44823 0.0
O170 O 0.80358 0.00993 0.4622 0.0
C171 C 0.91478 0.98044 0.49903 0.0
O172 O 0.86097 0.03347 0.5937 0.0
Co173 Co 0.89846 0.94851 0.65944 0.0
O174 O 0.89651 0.00567 0.69369 0.0
C175 C 0.81031 0.94955 0.67358 0.0
C176 C 0.80284 0.97563 0.42513 0.0
C177 C 0.87894 0.03559 0.66016 0.0
O178 O 0.80775 0.96769 0.60663 0.0
O179 O 0.84343 0.93549 0.70134 0.0
O180 O 0.89192 1.00196 0.45319 0.0
O181 O 0.89519 0.95782 0.54814 0.0
Co182 Co 0.51901 0.8493 0.53823 0.0
O183 O 0.55462 0.83178 0.45426 0.0
O184 O 0.49644 0.80311 0.48486 0.0
C185 C 0.51897 0.91721 0.51257 0.0
O186 O 0.47482 0.86008 0.61859 0.0
Co187 Co 0.55891 0.90268 0.66646 0.0
O188 O 0.50459 0.89595 0.71421 0.0
C189 C 0.56127 0.8145 0.68559 0.0
C190 C 0.52825 0.80412 0.43958 0.0
C191 C 0.47463 0.87685 0.68634 0.0
O192 O 0.5442 0.81076 0.61824 0.0
O193 O 0.57277 0.84844 0.71266 0.0
O194 O 0.49692 0.89284 0.47212 0.0
O195 O 0.54511 0.89906 0.55707 0.0
Co196 Co 0.65486 0.51604 0.52198 0.0
O197 O 0.67338 0.55591 0.44729 0.0
O198 O 0.69948 0.49436 0.4606 0.0
C199 C 0.58739 0.52044 0.49887 0.0
O200 O 0.64255 0.46806 0.59282 0.0
Co201 Co 0.60237 0.55162 0.65911 0.0
O202 O 0.60659 0.49438 0.69383 0.0
C203 C 0.69046 0.55253 0.67249 0.0
C204 C 0.69933 0.52901 0.42373 0.0
C205 C 0.62498 0.46514 0.66005 0.0
O206 O 0.69375 0.53512 0.60535 0.0
O207 O 0.6569 0.56548 0.70067 0.0
O208 O 0.61093 0.49988 0.45271 0.0
O209 O 0.60626 0.54307 0.54787 0.0
Co210 Co 0.99059 0.65456 0.52365 0.0
O211 O 0.95203 0.67363 0.44735 0.0
O212 O 0.01335 0.69861 0.46249 0.0
C213 C 0.9864 0.58712 0.50118 0.0
O214 O 0.03732 0.64164 0.59648 0.0
Co215 Co 0.95287 0.60302 0.66025 0.0
O216 O 0.00928 0.60707 0.69772 0.0
C217 C 0.95257 0.69131 0.67285 0.0
C218 C 0.97932 0.69904 0.42446 0.0
C219 C 0.03905 0.62473 0.66453 0.0
O220 O 0.97032 0.69411 0.6056 0.0
O221 O 0.93938 0.65806 0.70147 0.0
O222 O 0.00773 0.6102 0.45559 0.0
O223 O 0.96301 0.60649 0.54926 0.0
C224 C 0.60159 0.10159 0.33285 0.0
C225 C 0.56931 0.12352 0.30065 0.0
H226 H 0.64708 0.05686 0.30983 0.0
C227 C 0.56762 0.12939 0.21909 0.0
H228 H 0.60337 0.0967 0.39557 0.0
C229 C 0.59262 0.10661 0.16989 0.0
C230 C 0.61897 0.07794 0.2027 0.0
H231 H 0.54294 0.14652 0.19335 0.0
H232 H 0.58632 0.10643 0.10767 0.0
C233 C 0.62657 0.07877 0.28363 0.0
C234 C 0.37442 0.57648 0.22933 0.0
C235 C 0.38057 0.57709 0.3108 0.0
H236 H 0.39889 0.59324 0.11749 0.0
C237 C 0.40477 0.60718 0.34276 0.0
H238 H 0.35546 0.55355 0.20375 0.0
C239 C 0.42941 0.63011 0.29318 0.0
C240 C 0.42972 0.62276 0.21213 0.0
H241 H 0.40988 0.60822 0.40535 0.0
H242 H 0.45269 0.64846 0.31907 0.0
C243 C 0.39917 0.5993 0.17978 0.0
C244 C 0.89935 0.40148 0.18675 0.0
C245 C 0.87784 0.43467 0.21635 0.0
H246 H 0.94347 0.35595 0.2133 0.0
C247 C 0.87217 0.43808 0.29782 0.0
H248 H 0.90398 0.39821 0.12422 0.0
C249 C 0.89502 0.41411 0.34885 0.0
C250 C 0.92325 0.38669 0.3181 0.0
H251 H 0.85515 0.46338 0.32167 0.0
H252 H 0.89554 0.42183 0.41041 0.0
C253 C 0.92199 0.37731 0.23793 0.0
C254 C 0.10673 0.91125 0.16546 0.0
C255 C 0.07894 0.88376 0.19666 0.0
H256 H 0.14562 0.96057 0.19175 0.0
C257 C 0.07994 0.8745 0.27719 0.0
H258 H 0.1063 0.9189 0.10364 0.0
C259 C 0.1023 0.89844 0.32783 0.0
C260 C 0.12354 0.93152 0.29755 0.0
H261 H 0.05859 0.85322 0.30215 0.0
H262 H 0.09768 0.89507 0.39042 0.0
C263 C 0.12902 0.93524 0.21606 0.0
C264 C 0.37827 0.92013 0.75244 0.0
C265 C 0.38761 0.92308 0.83242 0.0
H266 H 0.3999 0.90122 0.63995 0.0
C267 C 0.41621 0.89656 0.86486 0.0
H268 H 0.35604 0.94033 0.72657 0.0
C269 C 0.4413 0.87413 0.81528 0.0
C270 C 0.43757 0.87833 0.7336 0.0
H271 H 0.42386 0.89843 0.92636 0.0
H272 H 0.46734 0.85871 0.84011 0.0
C273 C 0.40342 0.89776 0.70271 0.0
C274 C 0.62912 0.42501 0.78083 0.0
C275 C 0.62154 0.426 0.69985 0.0
H276 H 0.60587 0.40747 0.89319 0.0
C277 C 0.59544 0.39756 0.66778 0.0
H278 H 0.64946 0.44671 0.80644 0.0
C279 C 0.57057 0.37503 0.71757 0.0
C280 C 0.57206 0.38098 0.79896 0.0
H281 H 0.58918 0.39784 0.60555 0.0
H282 H 0.54601 0.35821 0.6922 0.0
C283 C 0.60422 0.40249 0.83062 0.0
C284 C 0.07654 0.62952 0.78747 0.0
C285 C 0.07735 0.62162 0.7066 0.0
H286 H 0.09382 0.60773 0.90088 0.0
C287 C 0.10763 0.59643 0.67597 0.0
H288 H 0.05339 0.64922 0.81193 0.0
C289 C 0.13089 0.57284 0.72701 0.0
C290 C 0.12367 0.57453 0.80824 0.0
H291 H 0.10875 0.58995 0.61386 0.0
H292 H 0.14964 0.5489 0.70274 0.0
C293 C 0.09975 0.60589 0.83851 0.0
C294 C 0.90001 0.09929 0.8285 0.0
C295 C 0.93201 0.12111 0.79551 0.0
H296 H 0.85546 0.0543 0.80715 0.0
C297 C 0.93435 0.12584 0.71367 0.0
H298 H 0.89777 0.09521 0.89141 0.0
C299 C 0.91005 0.10257 0.66536 0.0
C300 C 0.88369 0.07447 0.69917 0.0
H301 H 0.95886 0.14284 0.68732 0.0
H302 H 0.91664 0.10183 0.60312 0.0
C303 C 0.87585 0.07587 0.78017 0.0
C304 C 0.73387 1.00002 0.80566 0.0
C305 C 0.72421 0.96876 0.85834 0.0
H306 H 0.7672 0.01758 0.70309 0.0
C307 C 0.73977 0.92968 0.84471 0.0
H308 H 0.72195 0.0303 0.81438 0.0
C309 C 0.7663 0.92251 0.78185 0.0
C310 C 0.77628 0.9539 0.72954 0.0
H311 H 0.73264 0.90501 0.88441 0.0
H312 H 0.77977 0.89274 0.77515 0.0
C313 C 0.75915 0.99252 0.74122 0.0
C314 C 0.51902 0.76425 0.75695 0.0
C315 C 0.55749 0.78081 0.74308 0.0
H316 H 0.48169 0.72779 0.83217 0.0
C317 C 0.58902 0.7707 0.79464 0.0
H318 H 0.4938 0.77246 0.71968 0.0
C319 C 0.58222 0.74433 0.85829 0.0
C320 C 0.54331 0.72921 0.87381 0.0
H321 H 0.61867 0.78379 0.78654 0.0
H322 H 0.60706 0.73691 0.89702 0.0
C323 C 0.51187 0.73928 0.82218 0.0
C324 C 0.76613 0.5027 0.80675 0.0
C325 C 0.77641 0.53456 0.85641 0.0
H326 H 0.73231 0.48427 0.70664 0.0
C327 C 0.76127 0.57363 0.84021 0.0
H328 H 0.77768 0.47241 0.81753 0.0
C329 C 0.73469 0.58031 0.7777 0.0
C330 C 0.72428 0.5484 0.72818 0.0
H331 H 0.76885 0.59874 0.87762 0.0
H332 H 0.72162 0.61016 0.769 0.0
C333 C 0.74081 0.50969 0.74254 0.0
C334 C 0.93265 0.76183 0.84251 0.0
C335 C 0.97169 0.77671 0.85595 0.0
H336 H 0.89574 0.72259 0.77359 0.0
C337 C 0.00299 0.76652 0.80373 0.0
H338 H 0.90795 0.76939 0.88187 0.0
C339 C 0.99551 0.74145 0.73982 0.0
C340 C 0.95688 0.7251 0.72824 0.0
H341 H 0.03323 0.77792 0.81231 0.0
H342 H 0.02056 0.73297 0.70198 0.0
C343 C 0.9255 0.73551 0.78019 0.0
C344 C 0.26771 0.01118 0.64719 0.0
C345 C 0.22801 0.02564 0.6547 0.0
H346 H 0.32666 0.00779 0.69698 0.0
C347 C 0.21685 0.04699 0.72286 0.0
H348 H 0.27718 0.99483 0.59536 0.0
C349 C 0.24504 0.05346 0.78277 0.0
C350 C 0.28515 0.04007 0.77367 0.0
H351 H 0.18624 0.05834 0.73008 0.0
H352 H 0.23581 0.06957 0.835 0.0
C353 C 0.29603 0.01887 0.7053 0.0
C354 C 0.47391 0.27468 0.62978 0.0
C355 C 0.46288 0.23428 0.64095 0.0
H356 H 0.47586 0.33409 0.67734 0.0
C357 C 0.44524 0.22275 0.71312 0.0
H358 H 0.48748 0.28447 0.57498 0.0
C359 C 0.43971 0.25112 0.77367 0.0
C360 C 0.45009 0.29183 0.76158 0.0
H361 H 0.43666 0.1916 0.72335 0.0
H362 H 0.42709 0.24136 0.82928 0.0
C363 C 0.46695 0.30312 0.68858 0.0
C364 C 0.26194 0.43077 0.67546 0.0
C365 C 0.27692 0.46986 0.66117 0.0
H366 H 0.22274 0.39364 0.74604 0.0
C367 C 0.26699 0.50093 0.71353 0.0
H368 H 0.26931 0.40624 0.63598 0.0
C369 C 0.2421 0.49321 0.77844 0.0
C370 C 0.22563 0.45456 0.79096 0.0
H371 H 0.27848 0.5312 0.70429 0.0
H372 H 0.23384 0.51813 0.81638 0.0
C373 C 0.23577 0.42339 0.7388 0.0
C374 C 0.07575 0.25794 0.66196 0.0
C375 C 0.03694 0.27418 0.64843 0.0
H376 H 0.11229 0.21802 0.73277 0.0
C377 C 0.00588 0.26584 0.7023 0.0
H378 H 0.10029 0.26415 0.62146 0.0
C379 C 0.01328 0.24128 0.76789 0.0
C380 C 0.05159 0.2235 0.77974 0.0
H381 H 0.97584 0.2784 0.69383 0.0
H382 H 0.98832 0.23432 0.80699 0.0
C383 C 0.08278 0.23205 0.72605 0.0
C384 C 0.23027 0.08341 0.23422 0.0
C385 C 0.22237 0.05214 0.28826 0.0
H386 H 0.26195 0.10133 0.12938 0.0
C387 C 0.24099 0.01417 0.27688 0.0
H388 H 0.2156 0.11264 0.24054 0.0
C389 C 0.26567 0.00713 0.21142 0.0
C390 C 0.27332 0.03823 0.15713 0.0
H391 H 0.23456 0.98913 0.3162 0.0
H392 H 0.2788 0.9773 0.20328 0.0
C393 C 0.2563 0.07676 0.17022 0.0
C394 C 0.46499 0.2042 0.18975 0.0
C395 C 0.4489 0.21618 0.26284 0.0
H396 H 0.48541 0.22202 0.07526 0.0
C397 C 0.43975 0.25734 0.27407 0.0
H398 H 0.47296 0.17286 0.1791 0.0
C399 C 0.44574 0.2855 0.21267 0.0
C400 C 0.46264 0.27323 0.14045 0.0
H401 H 0.42778 0.26762 0.32971 0.0
H402 H 0.43813 0.31702 0.22228 0.0
C403 C 0.47243 0.23236 0.13008 0.0
C404 C 0.26142 0.49452 0.27714 0.0
C405 C 0.27865 0.45595 0.28982 0.0
H406 H 0.22408 0.53206 0.20356 0.0
C407 C 0.26892 0.42449 0.23868 0.0
H408 H 0.26934 0.51964 0.31431 0.0
C409 C 0.24239 0.43148 0.17621 0.0
C410 C 0.22661 0.47046 0.1617 0.0
H411 H 0.28251 0.39478 0.24608 0.0
H412 H 0.23536 0.40672 0.1375 0.0
C413 C 0.23615 0.50185 0.21301 0.0
C414 C 0.04774 0.21828 0.21596 0.0
C415 C 0.02727 0.22958 0.14684 0.0
H416 H 0.0692 0.23718 0.32895 0.0
C417 C 0.01356 0.26949 0.13812 0.0
H418 H 0.05851 0.1875 0.22401 0.0
C419 C 0.02109 0.29788 0.19613 0.0
C420 C 0.04125 0.28684 0.26564 0.0
H421 H 0.99791 0.27903 0.08548 0.0
H422 H 0.01061 0.32868 0.1869 0.0
C423 C 0.05392 0.24654 0.27582 0.0
C424 C 0.73383 0.92314 0.28207 0.0
C425 C 0.72386 0.9548 0.23023 0.0
H426 H 0.76744 0.90486 0.38371 0.0
C427 C 0.74088 0.99314 0.24191 0.0
H428 H 0.72041 0.8936 0.2754 0.0
C429 C 0.76611 1.00009 0.30587 0.0
C430 C 0.77579 0.96855 0.35804 0.0
H431 H 0.73279 0.0184 0.20417 0.0
H432 H 0.77799 0.03015 0.31458 0.0
C433 C 0.76029 0.92975 0.34441 0.0
C434 C 0.52316 0.73424 0.38707 0.0
C435 C 0.53491 0.77443 0.37598 0.0
H436 H 0.52149 0.67462 0.34035 0.0
C437 C 0.55372 0.78553 0.30469 0.0
H438 H 0.50881 0.72477 0.44133 0.0
C439 C 0.55993 0.75685 0.24501 0.0
C440 C 0.54903 0.71631 0.2573 0.0
H441 H 0.56297 0.8165 0.29467 0.0
H442 H 0.57368 0.76616 0.19013 0.0
C443 C 0.53075 0.70549 0.32919 0.0
C444 C 0.74127 0.57641 0.34265 0.0
C445 C 0.7261 0.53731 0.35595 0.0
H446 H 0.78058 0.6138 0.2728 0.0
C447 C 0.7357 0.50658 0.30264 0.0
H448 H 0.73414 0.60067 0.38288 0.0
C449 C 0.7605 0.51462 0.23778 0.0
C450 C 0.77722 0.55323 0.22623 0.0
H451 H 0.72406 0.47632 0.31111 0.0
H452 H 0.76852 0.48992 0.19913 0.0
C453 C 0.76737 0.58409 0.27931 0.0
C454 C 0.92616 0.76822 0.2792 0.0
C455 C 0.95772 0.77796 0.22723 0.0
H456 H 0.90823 0.73478 0.38176 0.0
C457 C 0.99622 0.76071 0.23956 0.0
H458 H 0.89648 0.78179 0.27197 0.0
C459 C 0.00343 0.7355 0.3043 0.0
C460 C 0.97198 0.72607 0.3566 0.0
H461 H 0.02139 0.76861 0.20166 0.0
H462 H 0.0336 0.72343 0.31352 0.0
C463 C 0.93304 0.74177 0.34235 0.0
C464 C 0.47557 0.98546 0.07218 0.0
C465 C 0.45796 0.01412 0.02093 0.0
H466 H 0.52946 0.95338 0.10675 0.0
C467 C 0.4826 0.03251 0.96393 0.0
H468 H 0.4574 0.97053 0.11656 0.0
C469 C 0.52367 0.02237 0.9579 0.0
C470 C 0.54131 0.99364 0.00882 0.0
H471 H 0.47012 0.05457 0.92338 0.0
H472 H 0.54166 0.03729 0.91323 0.0
C473 C 0.5168 0.97537 0.06626 0.0
C474 C 0.52398 0.47595 0.06221 0.0
C475 C 0.4941 0.46074 0.01214 0.0
H476 H 0.55719 0.5278 0.1001 0.0
C477 C 0.47491 0.48779 0.96014 0.0
H478 H 0.53954 0.45598 0.10281 0.0
C479 C 0.48529 0.52886 0.95816 0.0
C480 C 0.51509 0.54413 0.00828 0.0
H481 H 0.45191 0.47724 0.92054 0.0
H482 H 0.46967 0.54875 0.91749 0.0
C483 C 0.53429 0.51713 0.06042 0.0
C484 C 0.97792 0.48326 0.95439 0.0
C485 C 0.9597 0.51231 1.00359 0.0
H486 H 0.03229 0.4517 0.92113 0.0
C487 C 0.98379 0.53185 0.05885 0.0
H488 H 0.9602 0.46747 0.91133 0.0
C489 C 0.0251 0.52255 0.06472 0.0
C490 C 0.04332 0.49351 0.01549 0.0
H491 H 0.97072 0.55413 0.09792 0.0
H492 H 0.04282 0.53834 0.10777 0.0
C493 C 0.01923 0.47399 0.96022 0.0
C494 C 0.9803 0.02572 0.05861 0.0
C495 C 0.00921 0.04366 0.00869 0.0
H496 H 0.94973 0.97141 0.0935 0.0
C497 C 0.02952 0.01926 0.95395 0.0
H498 H 0.96397 0.04372 0.10132 0.0
C499 C 0.02104 0.97792 0.94907 0.0
C500 C 0.99215 0.95996 0.99897 0.0
H501 H 0.05175 0.03211 0.91439 0.0
H502 H 0.03738 0.95998 0.9063 0.0
C503 C 0.97192 0.98432 0.05392 0.0
C504 C 0.01812 0.0256 0.45893 0.0
C505 C 0.04256 0.00524 0.51361 0.0
H506 H 0.95896 0.03328 0.41082 0.0
C507 C 0.02474 0.97595 0.56293 0.0
H508 H 0.03086 0.04812 0.41981 0.0
C509 C 0.9834 0.96732 0.55779 0.0
C510 C 0.959 0.98764 0.50291 0.0
H511 H 0.04277 0.95957 0.60558 0.0
H512 H 0.97055 0.94488 0.59698 0.0
C513 C 0.97689 0.01685 0.45354 0.0
C514 C 0.53134 0.98781 0.56348 0.0
C515 C 0.51042 0.96163 0.51376 0.0
H516 H 0.5387 0.04875 0.60371 0.0
C517 C 0.47969 0.97807 0.46612 0.0
H518 H 0.555 0.9762 0.60124 0.0
C519 C 0.47015 0.01947 0.46787 0.0
C520 C 0.49108 0.04575 0.51727 0.0
H521 H 0.46276 0.95888 0.42728 0.0
H522 H 0.44644 0.03089 0.43004 0.0
C523 C 0.52182 0.02939 0.56514 0.0
C524 C 0.52567 0.48475 0.45101 0.0
C525 C 0.54326 0.51245 0.5028 0.0
H526 H 0.47189 0.4542 0.41534 0.0
C527 C 0.51868 0.53056 0.56017 0.0
H528 H 0.54379 0.47007 0.40627 0.0
C529 C 0.4775 0.52123 0.56555 0.0
C530 C 0.4599 0.49354 0.51375 0.0
H531 H 0.53127 0.55177 0.60125 0.0
H532 H 0.45939 0.53592 0.61029 0.0
C533 C 0.48448 0.4754 0.45641 0.0
C534 C 0.97502 0.5181 0.5611 0.0
C535 C 0.99416 0.54281 0.50508 0.0
H536 H 0.96868 0.45825 0.60894 0.0
C537 C 0.02278 0.52515 0.4541 0.0
H538 H 0.95308 0.5308 0.60155 0.0
C539 C 0.03201 0.48383 0.45875 0.0
C540 C 0.01279 0.45899 0.51435 0.0
H541 H 0.03831 0.5433 0.41047 0.0
H542 H 0.05404 0.47134 0.41825 0.0
C543 C 0.98421 0.47659 0.56562 0.0
loop_
_geom_bond_atom_site_label_1
_geom_bond_atom_site_label_2
_geom_bond_distance
_geom_bond_site_symmetry_2
_ccdc_geom_bond_type
Co0 O1 2.216 1_544 S
Co0 O2 2.091 1_554 S
Co0 O4 2.004 . S
Co0 O10 2.021 1_545 S
Co0 O12 2.137 1_544 S
Co0 O13 2.244 1_545 S
O1 Co0 2.216 1_566 S
O1 C8 1.247 1_565 S
O2 Co0 2.091 1_556 S
O2 C8 1.261 . S
C3 O12 1.247 1_554 S
C3 O13 1.272 . S
O4 Co0 2.004 . S
O4 C9 1.259 . S
Co5 O6 2.061 1_565 S
Co5 O11 2.052 . S
Co5 O13 2.135 . S
O6 Co5 2.061 1_545 S
O6 C9 1.235 . S
C7 O10 1.238 . S
C7 O11 1.241 . S
C8 O1 1.247 1_545 S
C8 O2 1.261 . S
C9 O4 1.259 . S
C9 O6 1.235 . S
O10 Co0 2.021 1_565 S
O10 C7 1.238 . S
O11 Co5 2.052 . S
O11 C7 1.241 . S
O12 Co0 2.137 1_566 S
O12 C3 1.247 1_556 S
O13 Co0 2.244 1_565 S
O13 C3 1.272 . S
O13 Co5 2.135 . S
Co14 O15 2.216 1_554 S
Co14 O16 2.091 1_554 S
Co14 O18 2.004 . S
Co14 O24 2.021 . S
Co14 O26 2.137 1_554 S
Co14 O27 2.244 . S
O15 Co14 2.216 1_556 S
O15 C22 1.247 . S
O16 Co14 2.091 1_556 S
O16 C22 1.261 . S
C17 O26 1.247 1_554 S
C17 O27 1.272 . S
O18 Co14 2.004 . S
O18 C23 1.259 . S
Co19 O20 2.061 . S
Co19 O25 2.052 . S
Co19 O27 2.135 . S
O20 Co19 2.061 . S
O20 C23 1.235 . S
C21 O24 1.238 . S
C21 O25 1.241 . S
C22 O15 1.247 . S
C22 O16 1.261 . S
C23 O18 1.259 . S
C23 O20 1.235 . S
O24 Co14 2.021 . S
O24 C21 1.238 . S
O25 Co19 2.052 . S
O25 C21 1.241 . S
O26 Co14 2.137 1_556 S
O26 C17 1.247 1_556 S
O27 Co14 2.244 . S
O27 C17 1.272 . S
O27 Co19 2.135 . S
Co28 O29 2.216 1_554 S
Co28 O30 2.091 1_554 S
Co28 O32 2.004 . S
Co28 O38 2.021 . S
Co28 O40 2.137 1_554 S
Co28 O41 2.244 . S
O29 Co28 2.216 1_556 S
O29 C36 1.247 . S
O30 Co28 2.091 1_556 S
O30 C36 1.261 . S
C31 O40 1.247 1_554 S
C31 O41 1.272 . S
O32 Co28 2.004 . S
O32 C37 1.259 . S
Co33 O34 2.061 . S
Co33 O39 2.052 . S
Co33 O41 2.135 . S
O34 Co33 2.061 . S
O34 C37 1.235 . S
C35 O38 1.238 . S
C35 O39 1.241 . S
C36 O29 1.247 . S
C36 O30 1.261 . S
C37 O32 1.259 . S
C37 O34 1.235 . S
O38 Co28 2.021 . S
O38 C35 1.238 . S
O39 Co33 2.052 . S
O39 C35 1.241 . S
O40 Co28 2.137 1_556 S
O40 C31 1.247 1_556 S
O41 Co28 2.244 . S
O41 C31 1.272 . S
O41 Co33 2.135 . S
Co42 O43 2.216 1_454 S
Co42 O44 2.091 1_554 S
Co42 O46 2.004 . S
Co42 O52 2.021 1_455 S
Co42 O54 2.137 1_454 S
Co42 O55 2.244 1_455 S
O43 Co42 2.216 1_656 S
O43 C50 1.247 1_655 S
O44 Co42 2.091 1_556 S
O44 C50 1.261 . S
C45 O54 1.247 1_554 S
C45 O55 1.272 . S
O46 Co42 2.004 . S
O46 C51 1.259 . S
Co47 O48 2.061 1_655 S
Co47 O53 2.052 . S
Co47 O55 2.135 . S
O48 Co47 2.061 1_455 S
O48 C51 1.235 . S
C49 O52 1.238 . S
C49 O53 1.241 . S
C50 O43 1.247 1_455 S
C50 O44 1.261 . S
C51 O46 1.259 . S
C51 O48 1.235 . S
O52 Co42 2.021 1_655 S
O52 C49 1.238 . S
O53 Co47 2.052 . S
O53 C49 1.241 . S
O54 Co42 2.137 1_656 S
O54 C45 1.247 1_556 S
O55 Co42 2.244 1_655 S
O55 C45 1.272 . S
O55 Co47 2.135 . S
Co56 O57 2.216 1_565 S
Co56 O58 2.091 . S
Co56 O60 2.004 . S
Co56 O66 2.021 1_565 S
Co56 O68 2.137 1_565 S
Co56 O69 2.244 1_565 S
O57 Co56 2.216 1_545 S
O57 C64 1.247 1_545 S
O58 Co56 2.091 . S
O58 C64 1.261 . S
C59 O68 1.247 . S
C59 O69 1.272 . S
O60 Co56 2.004 . S
O60 C65 1.259 . S
Co61 O62 2.061 1_545 S
Co61 O67 2.052 . S
Co61 O69 2.135 . S
O62 Co61 2.061 1_565 S
O62 C65 1.235 . S
C63 O66 1.238 . S
C63 O67 1.241 . S
C64 O57 1.247 1_565 S
C64 O58 1.261 . S
C65 O60 1.259 . S
C65 O62 1.235 . S
O66 Co56 2.021 1_545 S
O66 C63 1.238 . S
O67 Co61 2.052 . S
O67 C63 1.241 . S
O68 Co56 2.137 1_545 S
O68 C59 1.247 . S
O69 Co56 2.244 1_545 S
O69 C59 1.272 . S
O69 Co61 2.135 . S
Co70 O71 2.216 . S
Co70 O72 2.091 . S
Co70 O74 2.004 . S
Co70 O80 2.021 . S
Co70 O82 2.137 . S
Co70 O83 2.244 . S
O71 Co70 2.216 . S
O71 C78 1.247 . S
O72 Co70 2.091 . S
O72 C78 1.261 . S
C73 O82 1.247 . S
C73 O83 1.272 . S
O74 Co70 2.004 . S
O74 C79 1.259 . S
Co75 O76 2.061 . S
Co75 O81 2.052 . S
Co75 O83 2.135 . S
O76 Co75 2.061 . S
O76 C79 1.235 . S
C77 O80 1.238 . S
C77 O81 1.241 . S
C78 O71 1.247 . S
C78 O72 1.261 . S
C79 O74 1.259 . S
C79 O76 1.235 . S
O80 Co70 2.021 . S
O80 C77 1.238 . S
O81 Co75 2.052 . S
O81 C77 1.241 . S
O82 Co70 2.137 . S
O82 C73 1.247 . S
O83 Co70 2.244 . S
O83 C73 1.272 . S
O83 Co75 2.135 . S
Co84 O85 2.216 . S
Co84 O86 2.091 . S
Co84 O88 2.004 . S
Co84 O94 2.021 . S
Co84 O96 2.137 . S
Co84 O97 2.244 . S
O85 Co84 2.216 . S
O85 C92 1.247 . S
O86 Co84 2.091 . S
O86 C92 1.261 . S
C87 O96 1.247 . S
C87 O97 1.272 . S
O88 Co84 2.004 . S
O88 C93 1.259 . S
Co89 O90 2.061 . S
Co89 O95 2.052 . S
Co89 O97 2.135 . S
O90 Co89 2.061 . S
O90 C93 1.235 . S
C91 O94 1.238 . S
C91 O95 1.241 . S
C92 O85 1.247 . S
C92 O86 1.261 . S
C93 O88 1.259 . S
C93 O90 1.235 . S
O94 Co84 2.021 . S
O94 C91 1.238 . S
O95 Co89 2.052 . S
O95 C91 1.241 . S
O96 Co84 2.137 . S
O96 C87 1.247 . S
O97 Co84 2.244 . S
O97 C87 1.272 . S
O97 Co89 2.135 . S
Co98 O99 2.216 1_655 S
Co98 O100 2.091 . S
Co98 O102 2.004 . S
Co98 O108 2.021 1_655 S
Co98 O110 2.137 1_655 S
Co98 O111 2.244 1_655 S
O99 Co98 2.216 1_455 S
O99 C106 1.247 1_455 S
O100 Co98 2.091 . S
O100 C106 1.261 . S
C101 O110 1.247 . S
C101 O111 1.272 . S
O102 Co98 2.004 . S
O102 C107 1.259 . S
Co103 O104 2.061 1_455 S
Co103 O109 2.052 . S
Co103 O111 2.135 . S
O104 Co103 2.061 1_655 S
O104 C107 1.235 . S
C105 O108 1.238 . S
C105 O109 1.241 . S
C106 O99 1.247 1_655 S
C106 O100 1.261 . S
C107 O102 1.259 . S
C107 O104 1.235 . S
O108 Co98 2.021 1_455 S
O108 C105 1.238 . S
O109 Co103 2.052 . S
O109 C105 1.241 . S
O110 Co98 2.137 1_455 S
O110 C101 1.247 . S
O111 Co98 2.244 1_455 S
O111 C101 1.272 . S
O111 Co103 2.135 . S
Co112 O113 2.216 1_566 S
Co112 O114 2.091 1_556 S
Co112 O116 2.004 . S
Co112 O122 2.021 1_565 S
Co112 O124 2.137 1_566 S
Co112 O125 2.244 1_565 S
O113 Co112 2.216 1_544 S
O113 C120 1.247 1_545 S
O114 Co112 2.091 1_554 S
O114 C120 1.261 . S
C115 O124 1.247 1_556 S
C115 O125 1.272 . S
O116 Co112 2.004 . S
O116 C121 1.259 . S
Co117 O118 2.061 1_545 S
Co117 O123 2.052 . S
Co117 O125 2.135 . S
O118 Co117 2.061 1_565 S
O118 C121 1.235 . S
C119 O122 1.238 . S
C119 O123 1.241 . S
C120 O113 1.247 1_565 S
C120 O114 1.261 . S
C121 O116 1.259 . S
C121 O118 1.235 . S
O122 Co112 2.021 1_545 S
O122 C119 1.238 . S
O123 Co117 2.052 . S
O123 C119 1.241 . S
O124 Co112 2.137 1_544 S
O124 C115 1.247 1_554 S
O125 Co112 2.244 1_545 S
O125 C115 1.272 . S
O125 Co117 2.135 . S
Co126 O127 2.216 1_556 S
Co126 O128 2.091 1_556 S
Co126 O130 2.004 . S
Co126 O136 2.021 . S
Co126 O138 2.137 1_556 S
Co126 O139 2.244 . S
O127 Co126 2.216 1_554 S
O127 C134 1.247 . S
O128 Co126 2.091 1_554 S
O128 C134 1.261 . S
C129 O138 1.247 1_556 S
C129 O139 1.272 . S
O130 Co126 2.004 . S
O130 C135 1.259 . S
Co131 O132 2.061 . S
Co131 O137 2.052 . S
Co131 O139 2.135 . S
O132 Co131 2.061 . S
O132 C135 1.235 . S
C133 O136 1.238 . S
C133 O137 1.241 . S
C134 O127 1.247 . S
C134 O128 1.261 . S
C135 O130 1.259 . S
C135 O132 1.235 . S
O136 Co126 2.021 . S
O136 C133 1.238 . S
O137 Co131 2.052 . S
O137 C133 1.241 . S
O138 Co126 2.137 1_554 S
O138 C129 1.247 1_554 S
O139 Co126 2.244 . S
O139 C129 1.272 . S
O139 Co131 2.135 . S
Co140 O141 2.216 1_556 S
Co140 O142 2.091 1_556 S
Co140 O144 2.004 . S
Co140 O150 2.021 . S
Co140 O152 2.137 1_556 S
Co140 O153 2.244 . S
O141 Co140 2.216 1_554 S
O141 C148 1.247 . S
O142 Co140 2.091 1_554 S
O142 C148 1.261 . S
C143 O152 1.247 1_556 S
C143 O153 1.272 . S
O144 Co140 2.004 . S
O144 C149 1.259 . S
Co145 O146 2.061 . S
Co145 O151 2.052 . S
Co145 O153 2.135 . S
O146 Co145 2.061 . S
O146 C149 1.235 . S
C147 O150 1.238 . S
C147 O151 1.241 . S
C148 O141 1.247 . S
C148 O142 1.261 . S
C149 O144 1.259 . S
C149 O146 1.235 . S
O150 Co140 2.021 . S
O150 C147 1.238 . S
O151 Co145 2.052 . S
O151 C147 1.241 . S
O152 Co140 2.137 1_554 S
O152 C143 1.247 1_554 S
O153 Co140 2.244 . S
O153 C143 1.272 . S
O153 Co145 2.135 . S
Co154 O155 2.216 1_656 S
Co154 O156 2.091 1_556 S
Co154 O158 2.004 . S
Co154 O164 2.021 1_655 S
Co154 O166 2.137 1_656 S
Co154 O167 2.244 1_655 S
O155 Co154 2.216 1_454 S
O155 C162 1.247 1_455 S
O156 Co154 2.091 1_554 S
O156 C162 1.261 . S
C157 O166 1.247 1_556 S
C157 O167 1.272 . S
O158 Co154 2.004 . S
O158 C163 1.259 . S
Co159 O160 2.061 1_455 S
Co159 O165 2.052 . S
Co159 O167 2.135 . S
O160 Co159 2.061 1_655 S
O160 C163 1.235 . S
C161 O164 1.238 . S
C161 O165 1.241 . S
C162 O155 1.247 1_655 S
C162 O156 1.261 . S
C163 O158 1.259 . S
C163 O160 1.235 . S
O164 Co154 2.021 1_455 S
O164 C161 1.238 . S
O165 Co159 2.052 . S
O165 C161 1.241 . S
O166 Co154 2.137 1_454 S
O166 C157 1.247 1_554 S
O167 Co154 2.244 1_455 S
O167 C157 1.272 . S
O167 Co159 2.135 . S
Co168 O169 2.216 1_545 S
Co168 O170 2.091 . S
Co168 O172 2.004 . S
Co168 O178 2.021 1_545 S
Co168 O180 2.137 1_545 S
Co168 O181 2.244 1_545 S
O169 Co168 2.216 1_565 S
O169 C176 1.247 1_565 S
O170 Co168 2.091 . S
O170 C176 1.261 . S
C171 O180 1.247 . S
C171 O181 1.272 . S
O172 Co168 2.004 . S
O172 C177 1.259 . S
Co173 O174 2.061 1_565 S
Co173 O179 2.052 . S
Co173 O181 2.135 . S
O174 Co173 2.061 1_545 S
O174 C177 1.235 . S
C175 O178 1.238 . S
C175 O179 1.241 . S
C176 O169 1.247 1_545 S
C176 O170 1.261 . S
C177 O172 1.259 . S
C177 O174 1.235 . S
O178 Co168 2.021 1_565 S
O178 C175 1.238 . S
O179 Co173 2.052 . S
O179 C175 1.241 . S
O180 Co168 2.137 1_565 S
O180 C171 1.247 . S
O181 Co168 2.244 1_565 S
O181 C171 1.272 . S
O181 Co173 2.135 . S
Co182 O183 2.216 . S
Co182 O184 2.091 . S
Co182 O186 2.004 . S
Co182 O192 2.021 . S
Co182 O194 2.137 . S
Co182 O195 2.244 . S
O183 Co182 2.216 . S
O183 C190 1.247 . S
O184 Co182 2.091 . S
O184 C190 1.261 . S
C185 O194 1.247 . S
C185 O195 1.272 . S
O186 Co182 2.004 . S
O186 C191 1.259 . S
Co187 O188 2.061 . S
Co187 O193 2.052 . S
Co187 O195 2.135 . S
O188 Co187 2.061 . S
O188 C191 1.235 . S
C189 O192 1.238 . S
C189 O193 1.241 . S
C190 O183 1.247 . S
C190 O184 1.261 . S
C191 O186 1.259 . S
C191 O188 1.235 . S
O192 Co182 2.021 . S
O192 C189 1.238 . S
O193 Co187 2.052 . S
O193 C189 1.241 . S
O194 Co182 2.137 . S
O194 C185 1.247 . S
O195 Co182 2.244 . S
O195 C185 1.272 . S
O195 Co187 2.135 . S
Co196 O197 2.216 . S
Co196 O198 2.091 . S
Co196 O200 2.004 . S
Co196 O206 2.021 . S
Co196 O208 2.137 . S
Co196 O209 2.244 . S
O197 Co196 2.216 . S
O197 C204 1.247 . S
O198 Co196 2.091 . S
O198 C204 1.261 . S
C199 O208 1.247 . S
C199 O209 1.272 . S
O200 Co196 2.004 . S
O200 C205 1.259 . S
Co201 O202 2.061 . S
Co201 O207 2.052 . S
Co201 O209 2.135 . S
O202 Co201 2.061 . S
O202 C205 1.235 . S
C203 O206 1.238 . S
C203 O207 1.241 . S
C204 O197 1.247 . S
C204 O198 1.261 . S
C205 O200 1.259 . S
C205 O202 1.235 . S
O206 Co196 2.021 . S
O206 C203 1.238 . S
O207 Co201 2.052 . S
O207 C203 1.241 . S
O208 Co196 2.137 . S
O208 C199 1.247 . S
O209 Co196 2.244 . S
O209 C199 1.272 . S
O209 Co201 2.135 . S
Co210 O211 2.216 1_455 S
Co210 O212 2.091 . S
Co210 O214 2.004 . S
Co210 O220 2.021 1_455 S
Co210 O222 2.137 1_455 S
Co210 O223 2.244 1_455 S
O211 Co210 2.216 1_655 S
O211 C218 1.247 1_655 S
O212 Co210 2.091 . S
O212 C218 1.261 . S
C213 O222 1.247 . S
C213 O223 1.272 . S
O214 Co210 2.004 . S
O214 C219 1.259 . S
Co215 O216 2.061 1_655 S
Co215 O221 2.052 . S
Co215 O223 2.135 . S
O216 Co215 2.061 1_455 S
O216 C219 1.235 . S
C217 O220 1.238 . S
C217 O221 1.241 . S
C218 O211 1.247 1_455 S
C218 O212 1.261 . S
C219 O214 1.259 . S
C219 O216 1.235 . S
O220 Co210 2.021 1_655 S
O220 C217 1.238 . S
O221 Co215 2.052 . S
O221 C217 1.241 . S
O222 Co210 2.137 1_655 S
O222 C213 1.247 . S
O223 Co210 2.244 1_655 S
O223 C213 1.272 . S
O223 Co215 2.135 . S
C224 C225 1.387 . S
C224 H228 0.950 . S
C224 C233 1.390 . S
C225 C224 1.387 . S
C225 C227 1.387 . S
H226 C233 0.950 . S
C227 C225 1.387 . S
C227 C229 1.390 . S
C227 H231 0.950 . S
H228 C224 0.950 . S
C229 C227 1.390 . S
C229 C230 1.387 . S
C229 H232 0.950 . S
C230 C229 1.387 . S
C230 C233 1.387 . S
H231 C227 0.950 . S
H232 C229 0.950 . S
C233 C224 1.390 . S
C233 H226 0.950 . S
C233 C230 1.387 . S
C234 C235 1.387 . S
C234 H238 0.950 . S
C234 C243 1.390 . S
C235 C234 1.387 . S
C235 C237 1.387 . S
H236 C243 0.950 . S
C237 C235 1.387 . S
C237 C239 1.390 . S
C237 H241 0.950 . S
H238 C234 0.950 . S
C239 C237 1.390 . S
C239 C240 1.387 . S
C239 H242 0.950 . S
C240 C239 1.387 . S
C240 C243 1.387 . S
H241 C237 0.950 . S
H242 C239 0.950 . S
C243 C234 1.390 . S
C243 H236 0.950 . S
C243 C240 1.387 . S
C244 C245 1.387 . S
C244 H248 0.950 . S
C244 C253 1.390 . S
C245 C244 1.387 . S
C245 C247 1.387 . S
H246 C253 0.950 . S
C247 C245 1.387 . S
C247 C249 1.390 . S
C247 H251 0.950 . S
H248 C244 0.950 . S
C249 C247 1.390 . S
C249 C250 1.387 . S
C249 H252 0.950 . S
C250 C249 1.387 . S
C250 C253 1.387 . S
H251 C247 0.950 . S
H252 C249 0.950 . S
C253 C244 1.390 . S
C253 H246 0.950 . S
C253 C250 1.387 . S
C254 C255 1.387 . S
C254 H258 0.950 . S
C254 C263 1.390 . S
C255 C254 1.387 . S
C255 C257 1.387 . S
H256 C263 0.950 . S
C257 C255 1.387 . S
C257 C259 1.390 . S
C257 H261 0.950 . S
H258 C254 0.950 . S
C259 C257 1.390 . S
C259 C260 1.387 . S
C259 H262 0.950 . S
C260 C259 1.387 . S
C260 C263 1.387 . S
H261 C257 0.950 . S
H262 C259 0.950 . S
C263 C254 1.390 . S
C263 H256 0.950 . S
C263 C260 1.387 . S
C264 C265 1.387 . S
C264 H268 0.950 . S
C264 C273 1.390 . S
C265 C264 1.387 . S
C265 C267 1.387 . S
H266 C273 0.950 . S
C267 C265 1.387 . S
C267 C269 1.390 . S
C267 H271 0.950 . S
H268 C264 0.950 . S
C269 C267 1.390 . S
C269 C270 1.387 . S
C269 H272 0.950 . S
C270 C269 1.387 . S
C270 C273 1.387 . S
H271 C267 0.950 . S
H272 C269 0.950 . S
C273 C264 1.390 . S
C273 H266 0.950 . S
C273 C270 1.387 . S
C274 C275 1.387 . S
C274 H278 0.950 . S
C274 C283 1.390 . S
C275 C274 1.387 . S
C275 C277 1.387 . S
H276 C283 0.950 . S
C277 C275 1.387 . S
C277 C279 1.390 . S
C277 H281 0.950 . S
H278 C274 0.950 . S
C279 C277 1.390 . S
C279 C280 1.387 . S
C279 H282 0.950 . S
C280 C279 1.387 . S
C280 C283 1.387 . S
H281 C277 0.950 . S
H282 C279 0.950 . S
C283 C274 1.390 . S
C283 H276 0.950 . S
C283 C280 1.387 . S
C284 C285 1.387 . S
C284 H288 0.950 . S
C284 C293 1.390 . S
C285 C284 1.387 . S
C285 C287 1.387 . S
H286 C293 0.950 . S
C287 C285 1.387 . S
C287 C289 1.390 . S
C287 H291 0.950 . S
H288 C284 0.950 . S
C289 C287 1.390 . S
C289 C290 1.387 . S
C289 H292 0.950 . S
C290 C289 1.387 . S
C290 C293 1.387 . S
H291 C287 0.950 . S
H292 C289 0.950 . S
C293 C284 1.390 . S
C293 H286 0.950 . S
C293 C290 1.387 . S
C294 C295 1.387 . S
C294 H298 0.950 . S
C294 C303 1.390 . S
C295 C294 1.387 . S
C295 C297 1.387 . S
H296 C303 0.950 . S
C297 C295 1.387 . S
C297 C299 1.390 . S
C297 H301 0.950 . S
H298 C294 0.950 . S
C299 C297 1.390 . S
C299 C300 1.387 . S
C299 H302 0.950 . S
C300 C299 1.387 . S
C300 C303 1.387 . S
H301 C297 0.950 . S
H302 C299 0.950 . S
C303 C294 1.390 . S
C303 H296 0.950 . S
C303 C300 1.387 . S
C304 C305 1.387 1_545 S
C304 H308 0.950 . S
C304 C313 1.390 . S
C305 C304 1.387 1_565 S
C305 C307 1.387 . S
H306 C313 0.950 . S
C307 C305 1.387 . S
C307 C309 1.390 . S
C307 H311 0.950 . S
H308 C304 0.950 . S
C309 C307 1.390 . S
C309 C310 1.387 . S
C309 H312 0.950 . S
C310 C309 1.387 . S
C310 C313 1.387 1_565 S
H311 C307 0.950 . S
H312 C309 0.950 . S
C313 C304 1.390 . S
C313 H306 0.950 . S
C313 C310 1.387 1_545 S
C314 C315 1.387 . S
C314 H318 0.950 . S
C314 C323 1.390 . S
C315 C314 1.387 . S
C315 C317 1.387 . S
H316 C323 0.950 . S
C317 C315 1.387 . S
C317 C319 1.390 . S
C317 H321 0.950 . S
H318 C314 0.950 . S
C319 C317 1.390 . S
C319 C320 1.387 . S
C319 H322 0.950 . S
C320 C319 1.387 . S
C320 C323 1.387 . S
H321 C317 0.950 . S
H322 C319 0.950 . S
C323 C314 1.390 . S
C323 H316 0.950 . S
C323 C320 1.387 . S
C324 C325 1.387 . S
C324 H328 0.950 . S
C324 C333 1.390 . S
C325 C324 1.387 . S
C325 C327 1.387 . S
H326 C333 0.950 . S
C327 C325 1.387 . S
C327 C329 1.390 . S
C327 H331 0.950 . S
H328 C324 0.950 . S
C329 C327 1.390 . S
C329 C330 1.387 . S
C329 H332 0.950 . S
C330 C329 1.387 . S
C330 C333 1.387 . S
H331 C327 0.950 . S
H332 C329 0.950 . S
C333 C324 1.390 . S
C333 H326 0.950 . S
C333 C330 1.387 . S
C334 C335 1.387 . S
C334 H338 0.950 . S
C334 C343 1.390 . S
C335 C334 1.387 . S
C335 C337 1.387 1_655 S
H336 C343 0.950 . S
C337 C335 1.387 1_455 S
C337 C339 1.390 . S
C337 H341 0.950 . S
H338 C334 0.950 . S
C339 C337 1.390 . S
C339 C340 1.387 1_455 S
C339 H342 0.950 . S
C340 C339 1.387 1_655 S
C340 C343 1.387 . S
H341 C337 0.950 . S
H342 C339 0.950 . S
C343 C334 1.390 . S
C343 H336 0.950 . S
C343 C340 1.387 . S
C344 C345 1.387 1_565 S
C344 H348 0.950 . S
C344 C353 1.390 1_565 S
C345 C344 1.387 1_545 S
C345 C347 1.387 . S
H346 C353 0.949 1_565 S
C347 C345 1.387 . S
C347 C349 1.390 . S
C347 H351 0.950 . S
H348 C344 0.950 . S
C349 C347 1.390 . S
C349 C350 1.387 . S
C349 H352 0.950 . S
C350 C349 1.387 . S
C350 C353 1.387 . S
H351 C347 0.950 . S
H352 C349 0.950 . S
C353 C344 1.390 1_545 S
C353 H346 0.949 1_545 S
C353 C350 1.387 . S
C354 C355 1.387 . S
C354 H358 0.950 . S
C354 C363 1.390 . S
C355 C354 1.387 . S
C355 C357 1.387 . S
H356 C363 0.950 . S
C357 C355 1.387 . S
C357 C359 1.390 . S
C357 H361 0.950 . S
H358 C354 0.950 . S
C359 C357 1.390 . S
C359 C360 1.387 . S
C359 H362 0.950 . S
C360 C359 1.387 . S
C360 C363 1.387 . S
H361 C357 0.950 . S
H362 C359 0.950 . S
C363 C354 1.390 . S
C363 H356 0.950 . S
C363 C360 1.387 . S
C364 C365 1.387 . S
C364 H368 0.950 . S
C364 C373 1.390 . S
C365 C364 1.387 . S
C365 C367 1.387 . S
H366 C373 0.950 . S
C367 C365 1.387 . S
C367 C369 1.390 . S
C367 H371 0.950 . S
H368 C364 0.950 . S
C369 C367 1.390 . S
C369 C370 1.387 . S
C369 H372 0.950 . S
C370 C369 1.387 . S
C370 C373 1.387 . S
H371 C367 0.950 . S
H372 C369 0.950 . S
C373 C364 1.390 . S
C373 H366 0.950 . S
C373 C370 1.387 . S
C374 C375 1.387 . S
C374 H378 0.950 . S
C374 C383 1.390 . S
C375 C374 1.387 . S
C375 C377 1.387 1_455 S
H376 C383 0.950 . S
C377 C375 1.387 1_655 S
C377 C379 1.390 . S
C377 H381 0.950 . S
H378 C374 0.950 . S
C379 C377 1.390 . S
C379 C380 1.387 1_655 S
C379 H382 0.950 . S
C380 C379 1.387 1_455 S
C380 C383 1.387 . S
H381 C377 0.950 . S
H382 C379 0.950 . S
C383 C374 1.390 . S
C383 H376 0.950 . S
C383 C380 1.387 . S
C384 C385 1.387 . S
C384 H388 0.950 . S
C384 C393 1.390 . S
C385 C384 1.387 . S
C385 C387 1.387 1_545 S
H386 C393 0.950 . S
C387 C385 1.387 1_565 S
C387 C389 1.390 . S
C387 H391 0.950 . S
H388 C384 0.950 . S
C389 C387 1.390 . S
C389 C390 1.387 1_565 S
C389 H392 0.950 . S
C390 C389 1.387 1_545 S
C390 C393 1.387 . S
H391 C387 0.950 . S
H392 C389 0.950 . S
C393 C384 1.390 . S
C393 H386 0.950 . S
C393 C390 1.387 . S
C394 C395 1.387 . S
C394 H398 0.950 . S
C394 C403 1.390 . S
C395 C394 1.387 . S
C395 C397 1.387 . S
H396 C403 0.950 . S
C397 C395 1.387 . S
C397 C399 1.390 . S
C397 H401 0.950 . S
H398 C394 0.950 . S
C399 C397 1.390 . S
C399 C400 1.387 . S
C399 H402 0.950 . S
C400 C399 1.387 . S
C400 C403 1.387 . S
H401 C397 0.950 . S
H402 C399 0.950 . S
C403 C394 1.390 . S
C403 H396 0.950 . S
C403 C400 1.387 . S
C404 C405 1.387 . S
C404 H408 0.950 . S
C404 C413 1.390 . S
C405 C404 1.387 . S
C405 C407 1.387 . S
H406 C413 0.950 . S
C407 C405 1.387 . S
C407 C409 1.390 . S
C407 H411 0.950 . S
H408 C404 0.950 . S
C409 C407 1.390 . S
C409 C410 1.387 . S
C409 H412 0.950 . S
C410 C409 1.387 . S
C410 C413 1.387 . S
H411 C407 0.950 . S
H412 C409 0.950 . S
C413 C404 1.390 . S
C413 H406 0.950 . S
C413 C410 1.387 . S
C414 C415 1.387 . S
C414 H418 0.950 . S
C414 C423 1.390 . S
C415 C414 1.387 . S
C415 C417 1.387 1_455 S
H416 C423 0.950 . S
C417 C415 1.387 1_655 S
C417 C419 1.390 1_655 S
C417 H421 0.950 . S
H418 C414 0.950 . S
C419 C417 1.390 1_455 S
C419 C420 1.387 . S
C419 H422 0.950 1_455 S
C420 C419 1.387 . S
C420 C423 1.387 . S
H421 C417 0.950 . S
H422 C419 0.950 1_655 S
C423 C414 1.390 . S
C423 H416 0.950 . S
C423 C420 1.387 . S
C424 C425 1.387 . S
C424 H428 0.950 . S
C424 C433 1.390 . S
C425 C424 1.387 . S
C425 C427 1.387 1_565 S
H426 C433 0.950 . S
C427 C425 1.387 1_545 S
C427 C429 1.390 . S
C427 H431 0.950 . S
H428 C424 0.950 . S
C429 C427 1.390 . S
C429 C430 1.387 1_545 S
C429 H432 0.950 . S
C430 C429 1.387 1_565 S
C430 C433 1.387 . S
H431 C427 0.950 . S
H432 C429 0.950 . S
C433 C424 1.390 . S
C433 H426 0.950 . S
C433 C430 1.387 . S
C434 C435 1.387 . S
C434 H438 0.950 . S
C434 C443 1.390 . S
C435 C434 1.387 . S
C435 C437 1.387 . S
H436 C443 0.950 . S
C437 C435 1.387 . S
C437 C439 1.390 . S
C437 H441 0.950 . S
H438 C434 0.950 . S
C439 C437 1.390 . S
C439 C440 1.387 . S
C439 H442 0.950 . S
C440 C439 1.387 . S
C440 C443 1.387 . S
H441 C437 0.950 . S
H442 C439 0.950 . S
C443 C434 1.390 . S
C443 H436 0.950 . S
C443 C440 1.387 . S
C444 C445 1.387 . S
C444 H448 0.950 . S
C444 C453 1.390 . S
C445 C444 1.387 . S
C445 C447 1.387 . S
H446 C453 0.950 . S
C447 C445 1.387 . S
C447 C449 1.390 . S
C447 H451 0.950 . S
H448 C444 0.950 . S
C449 C447 1.390 . S
C449 C450 1.387 . S
C449 H452 0.950 . S
C450 C449 1.387 . S
C450 C453 1.387 . S
H451 C447 0.950 . S
H452 C449 0.950 . S
C453 C444 1.390 . S
C453 H446 0.950 . S
C453 C450 1.387 . S
C454 C455 1.387 . S
C454 H458 0.950 . S
C454 C463 1.390 . S
C455 C454 1.387 . S
C455 C457 1.387 1_655 S
H456 C463 0.950 . S
C457 C455 1.387 1_455 S
C457 C459 1.390 . S
C457 H461 0.950 . S
H458 C454 0.950 . S
C459 C457 1.390 . S
C459 C460 1.387 1_455 S
C459 H462 0.950 . S
C460 C459 1.387 1_655 S
C460 C463 1.387 . S
H461 C457 0.950 . S
H462 C459 0.950 . S
C463 C454 1.390 . S
C463 H456 0.950 . S
C463 C460 1.387 . S
C464 C465 1.387 1_554 S
C464 H468 0.950 . S
C464 C473 1.390 1_545 S
C465 C464 1.387 1_556 S
C465 C467 1.387 . S
H466 C473 0.950 . S
C467 C465 1.387 . S
C467 C469 1.390 1_545 S
C467 H471 0.950 . S
H468 C464 0.950 . S
C469 C467 1.390 1_565 S
C469 C470 1.387 1_556 S
C469 H472 0.950 . S
C470 C469 1.387 1_554 S
C470 C473 1.387 . S
H471 C467 0.950 . S
H472 C469 0.950 . S
C473 C464 1.390 1_565 S
C473 H466 0.950 . S
C473 C470 1.387 . S
C474 C475 1.387 1_554 S
C474 H478 0.950 . S
C474 C483 1.390 . S
C475 C474 1.387 1_556 S
C475 C477 1.387 . S
H476 C483 0.950 . S
C477 C475 1.387 . S
C477 C479 1.390 . S
C477 H481 0.950 . S
H478 C474 0.950 . S
C479 C477 1.390 . S
C479 C480 1.387 1_556 S
C479 H482 0.950 . S
C480 C479 1.387 1_554 S
C480 C483 1.387 . S
H481 C477 0.950 . S
H482 C479 0.950 . S
C483 C474 1.390 . S
C483 H476 0.950 . S
C483 C480 1.387 . S
C484 C485 1.387 1_556 S
C484 H488 0.950 . S
C484 C493 1.390 1_655 S
C485 C484 1.387 1_554 S
C485 C487 1.387 . S
H486 C493 0.950 . S
C487 C485 1.387 . S
C487 C489 1.390 1_655 S
C487 H491 0.950 . S
H488 C484 0.950 . S
C489 C487 1.390 1_455 S
C489 C490 1.387 1_554 S
C489 H492 0.950 . S
C490 C489 1.387 1_556 S
C490 C493 1.387 . S
H491 C487 0.950 . S
H492 C489 0.950 . S
C493 C484 1.390 1_455 S
C493 H486 0.950 . S
C493 C490 1.387 . S
C494 C495 1.387 1_654 S
C494 H498 0.950 . S
C494 C503 1.390 1_545 S
C495 C494 1.387 1_456 S
C495 C497 1.387 . S
H496 C503 0.950 . S
C497 C495 1.387 . S
C497 C499 1.390 1_545 S
C497 H501 0.950 . S
H498 C494 0.950 . S
C499 C497 1.390 1_565 S
C499 C500 1.387 1_456 S
C499 H502 0.950 . S
C500 C499 1.387 1_654 S
C500 C503 1.387 . S
H501 C497 0.950 . S
H502 C499 0.950 . S
C503 C494 1.390 1_565 S
C503 H496 0.950 . S
C503 C500 1.387 . S
C504 C505 1.387 . S
C504 H508 0.950 . S
C504 C513 1.390 1_445 S
C505 C504 1.387 . S
C505 C507 1.387 . S
H506 C513 0.950 . S
C507 C505 1.387 . S
C507 C509 1.390 1_445 S
C507 H511 0.950 . S
H508 C504 0.950 . S
C509 C507 1.390 1_665 S
C509 C510 1.387 . S
C509 H512 0.950 . S
C510 C509 1.387 . S
C510 C513 1.387 . S
H511 C507 0.950 . S
H512 C509 0.950 . S
C513 C504 1.390 1_665 S
C513 H506 0.950 . S
C513 C510 1.387 . S
C514 C515 1.387 . S
C514 H518 0.950 . S
C514 C523 1.390 1_565 S
C515 C514 1.387 . S
C515 C517 1.387 . S
H516 C523 0.950 . S
C517 C515 1.387 . S
C517 C519 1.390 1_565 S
C517 H521 0.950 . S
H518 C514 0.950 . S
C519 C517 1.390 1_545 S
C519 C520 1.387 . S
C519 H522 0.950 . S
C520 C519 1.387 . S
C520 C523 1.387 . S
H521 C517 0.950 . S
H522 C519 0.950 . S
C523 C514 1.390 1_545 S
C523 H516 0.950 . S
C523 C520 1.387 . S
C524 C525 1.387 . S
C524 H528 0.950 . S
C524 C533 1.390 . S
C525 C524 1.387 . S
C525 C527 1.387 . S
H526 C533 0.950 . S
C527 C525 1.387 . S
C527 C529 1.390 . S
C527 H531 0.950 . S
H528 C524 0.950 . S
C529 C527 1.390 . S
C529 C530 1.387 . S
C529 H532 0.950 . S
C530 C529 1.387 . S
C530 C533 1.387 . S
H531 C527 0.950 . S
H532 C529 0.950 . S
C533 C524 1.390 . S
C533 H526 0.950 . S
C533 C530 1.387 . S
C534 C535 1.387 . S
C534 H538 0.950 . S
C534 C543 1.390 1_655 S
C535 C534 1.387 . S
C535 C537 1.387 . S
H536 C543 0.950 . S
C537 C535 1.387 . S
C537 C539 1.390 1_655 S
C537 H541 0.950 . S
H538 C534 0.950 . S
C539 C537 1.390 1_455 S
C539 C540 1.387 . S
C539 H542 0.950 . S
C540 C539 1.387 . S
C540 C543 1.387 . S
H541 C537 0.950 . S
H542 C539 0.950 . S
C543 C534 1.390 1_455 S
C543 H536 0.950 . S
C543 C540 1.387 . S
C225 C79 0.611 . S
C230 C9 0.616 . S
C235 C93 0.632 . S
C240 C23 0.638 . S
C245 C37 0.607 . S
C250 C107 0.616 . S
C255 C51 0.609 . S
C260 C65 0.599 . S
C265 C121 0.626 . S
C270 C191 0.605 . S
C275 C205 0.637 . S
C280 C135 0.631 . S
C285 C219 0.627 . S
C290 C149 0.608 . S
C295 C163 0.600 . S
C300 C177 0.599 . S
C305 C8 1.660 1_565 S
C310 C175 1.558 . S
C315 C189 1.610 . S
C320 C22 1.726 . S
C325 C36 1.707 . S
C330 C203 1.609 . S
C335 C50 1.668 1_655 S
C340 C217 1.576 . S
C345 C64 1.669 1_545 S
C350 C119 1.575 . S
C355 C78 1.708 . S
C360 C133 1.611 . S
C365 C92 1.726 . S
C370 C147 1.611 . S
C375 C106 1.661 1_455 S
C380 C161 1.561 . S
C385 C63 1.558 . S
C390 C120 1.660 1_545 S
C395 C77 1.609 . S
C400 C134 1.725 . S
C405 C91 1.612 . S
C410 C148 1.708 . S
C415 C162 1.669 1_455 S
C420 C105 1.575 . S
C425 C7 1.573 . S
C430 C176 1.668 1_565 S
C435 C190 1.707 . S
C440 C21 1.609 . S
C445 C204 1.725 . S
C450 C35 1.608 . S
C455 C49 1.558 . S
C460 C218 1.659 1_655 S
C465 C115 1.717 . S
C470 C3 1.716 . S
C475 C129 1.782 . S
C480 C17 1.782 . S
C485 C31 1.881 . S
C490 C143 1.881 . S
C495 C157 1.767 . S
C500 C45 1.766 . S
C505 C59 1.767 . S
C510 C171 1.766 . S
C515 C185 1.881 . S
C520 C73 1.881 . S
C525 C199 1.782 . S
C530 C87 1.782 . S
C535 C213 1.712 . S
C540 C101 1.711 . S
