# Generated by pormake.
# Topology uoq, (4)-cn, num edge types: 1
# Building blocks:
#     Node 0, Type 0, BuildingBlock: ICAMEG_clean_sbu_1, # of connection points: 4
#     Node 1, Type 0, BuildingBlock: ICAMEG_clean_sbu_1, # of connection points: 4
#     Node 2, Type 0, BuildingBlock: ICAMEG_clean_sbu_1, # of connection points: 4
#     Node 3, Type 0, BuildingBlock: ICAMEG_clean_sbu_1, # of connection points: 4
#     Node 4, Type 0, BuildingBlock: ICAMEG_clean_sbu_1, # of connection points: 4
#     Node 5, Type 0, BuildingBlock: ICAMEG_clean_sbu_1, # of connection points: 4
#     Node 6, Type 0, BuildingBlock: ICAMEG_clean_sbu_1, # of connection points: 4
#     Node 7, Type 0, BuildingBlock: ICAMEG_clean_sbu_1, # of connection points: 4
#     Node 8, Type 0, BuildingBlock: ICAMEG_clean_sbu_1, # of connection points: 4
#     Node 9, Type 0, BuildingBlock: ICAMEG_clean_sbu_1, # of connection points: 4
#     Node 10, Type 0, BuildingBlock: ICAMEG_clean_sbu_1, # of connection points: 4
#     Node 11, Type 0, BuildingBlock: ICAMEG_clean_sbu_1, # of connection points: 4
#     Edge 12, Type (0, 0), BuildingBlock: OJICUG_clean_linker_0, # of connection points: 2
#     Edge 13, Type (0, 0), BuildingBlock: OJICUG_clean_linker_0, # of connection points: 2
#     Edge 14, Type (0, 0), BuildingBlock: OJICUG_clean_linker_0, # of connection points: 2
#     Edge 15, Type (0, 0), BuildingBlock: OJICUG_clean_linker_0, # of connection points: 2
#     Edge 16, Type (0, 0), BuildingBlock: OJICUG_clean_linker_0, # of connection points: 2
#     Edge 17, Type (0, 0), BuildingBlock: OJICUG_clean_linker_0, # of connection points: 2
#     Edge 18, Type (0, 0), BuildingBlock: OJICUG_clean_linker_0, # of connection points: 2
#     Edge 19, Type (0, 0), BuildingBlock: OJICUG_clean_linker_0, # of connection points: 2
#     Edge 20, Type (0, 0), BuildingBlock: OJICUG_clean_linker_0, # of connection points: 2
#     Edge 21, Type (0, 0), BuildingBlock: OJICUG_clean_linker_0, # of connection points: 2
#     Edge 22, Type (0, 0), BuildingBlock: OJICUG_clean_linker_0, # of connection points: 2
#     Edge 23, Type (0, 0), BuildingBlock: OJICUG_clean_linker_0, # of connection points: 2
#     Edge 24, Type (0, 0), BuildingBlock: OJICUG_clean_linker_0, # of connection points: 2
#     Edge 25, Type (0, 0), BuildingBlock: OJICUG_clean_linker_0, # of connection points: 2
#     Edge 26, Type (0, 0), BuildingBlock: OJICUG_clean_linker_0, # of connection points: 2
#     Edge 27, Type (0, 0), BuildingBlock: OJICUG_clean_linker_0, # of connection points: 2
#     Edge 28, Type (0, 0), BuildingBlock: OJICUG_clean_linker_0, # of connection points: 2
#     Edge 29, Type (0, 0), BuildingBlock: OJICUG_clean_linker_0, # of connection points: 2
#     Edge 30, Type (0, 0), BuildingBlock: OJICUG_clean_linker_0, # of connection points: 2
#     Edge 31, Type (0, 0), BuildingBlock: OJICUG_clean_linker_0, # of connection points: 2
#     Edge 32, Type (0, 0), BuildingBlock: OJICUG_clean_linker_0, # of connection points: 2
#     Edge 33, Type (0, 0), BuildingBlock: OJICUG_clean_linker_0, # of connection points: 2
#     Edge 34, Type (0, 0), BuildingBlock: OJICUG_clean_linker_0, # of connection points: 2
#     Edge 35, Type (0, 0), BuildingBlock: OJICUG_clean_linker_0, # of connection points: 2
# Relax obj value: 0.259
# Max RMSD: 0.232
# Mean RMSD: 0.232
data_MOF--net-uoq--node1-ICAMEG_clean_sbu_1--edge1-OJICUG_clean_linker_0
_symmetry_space_group_name_H-M    P1
_symmetry_Int_Tables_number       1
_symmetry_cell_setting            triclinic
loop_
_symmetry_equiv_pos_as_xyz
'x, y, z'
_cell_length_a     44.291283
_cell_length_b     44.195066
_cell_length_c     18.003354
_cell_angle_alpha  89.757581
_cell_angle_beta   90.473839
_cell_angle_gamma 120.06467
loop_
_atom_site_label
_atom_site_type_symbol
_atom_site_fract_x
_atom_site_fract_y
_atom_site_fract_z
_atom_type_partial_charge
Co0 Co 0.3403 0.46522 0.38025 0.0
Co1 Co 0.35332 0.46452 0.19353 0.0
O2 O 0.32621 0.46559 0.27758 0.0
C3 C 0.33184 0.52325 0.44137 0.0
O4 O 0.36505 0.5416 0.45922 0.0
C5 C 0.27593 0.42676 0.14562 0.0
O6 O 0.26662 0.42512 0.21503 0.0
O7 O 0.35106 0.42049 0.2356 0.0
O8 O 0.36055 0.43559 0.35584 0.0
H9 H 0.4476 0.44987 0.07571 0.0
H10 H 0.26639 0.44536 0.35234 0.0
O11 O 0.31995 0.49477 0.40534 0.0
H12 H 0.26098 0.343 0.4756 0.0
H13 H 0.32615 0.45566 0.65964 0.0
H14 H 0.40517 0.47524 0.45099 0.0
H15 H 0.31758 0.3955 0.45042 0.0
H16 H 0.30658 0.45354 0.53082 0.0
O17 O 0.30804 0.43687 0.13056 0.0
H18 H 0.41394 0.45396 0.17973 0.0
H19 H 0.34912 0.46984 0.02822 0.0
H20 H 0.42583 0.47694 0.57905 0.0
H21 H 0.20919 0.39364 0.37777 0.0
H22 H 0.38631 0.46739 0.68472 0.0
H23 H 0.20617 0.34191 0.43982 0.0
O24 O 0.38526 0.50728 0.36048 0.0
H25 H 0.30958 0.54804 0.13744 0.0
H26 H 0.41021 0.52947 0.12518 0.0
H27 H 0.41617 0.58472 0.07926 0.0
H28 H 0.36551 0.59422 0.08453 0.0
H29 H 0.30497 0.49364 0.18421 0.0
H30 H 0.3819 0.46564 0.92259 0.0
H31 H 0.43163 0.45573 0.94601 0.0
O32 O 0.39928 0.49485 0.24971 0.0
C33 C 0.35952 0.41655 0.30217 0.0
C34 C 0.42604 0.45429 0.06479 0.0
C35 C 0.38911 0.46305 0.97885 0.0
N36 N 0.37966 0.46224 0.11018 0.0
C37 C 0.40693 0.4567 0.12348 0.0
C38 C 0.37053 0.46523 0.03893 0.0
C39 C 0.41703 0.45753 0.99203 0.0
C40 C 0.26542 0.42298 0.37916 0.0
N41 N 0.29551 0.42347 0.39901 0.0
C42 C 0.23288 0.39373 0.39345 0.0
C43 C 0.2312 0.36472 0.42821 0.0
C44 C 0.26194 0.3653 0.44817 0.0
C45 C 0.294 0.39503 0.43307 0.0
C46 C 0.34385 0.46046 0.61419 0.0
C47 C 0.3879 0.47152 0.49648 0.0
C48 C 0.33297 0.45982 0.54089 0.0
N49 N 0.35502 0.46581 0.48297 0.0
C50 C 0.39972 0.47231 0.569 0.0
C51 C 0.37754 0.46691 0.62822 0.0
C52 C 0.40733 0.51282 0.31006 0.0
C53 C 0.33175 0.54407 0.1341 0.0
C54 C 0.38799 0.53327 0.12776 0.0
C55 C 0.39155 0.56468 0.10159 0.0
C56 C 0.36314 0.57 0.10458 0.0
N57 N 0.35696 0.50764 0.1557 0.0
C58 C 0.3292 0.51303 0.15995 0.0
Co59 Co 0.87372 0.32847 0.73301 0.0
Co60 Co 0.89514 0.34548 0.54685 0.0
O61 O 0.86285 0.31818 0.62683 0.0
C62 C 0.81398 0.33286 0.78967 0.0
O63 O 0.83664 0.36472 0.81141 0.0
C64 C 0.85557 0.26918 0.49076 0.0
O65 O 0.84144 0.25813 0.55618 0.0
O66 O 0.93406 0.34108 0.59677 0.0
O67 O 0.92329 0.34256 0.71793 0.0
H68 H 1.0104 0.43885 0.44796 0.0
H69 H 0.81345 0.2591 0.6929 0.0
O70 O 0.82406 0.31532 0.7512 0.0
H71 H 0.89677 0.23379 0.82286 0.0
H72 H 0.85143 0.30367 1.00688 0.0
H73 H 0.93078 0.38629 0.81924 0.0
H74 H 0.90965 0.29448 0.80717 0.0
H75 H 0.83864 0.29151 0.87339 0.0
O76 O 0.87951 0.30132 0.48263 0.0
H77 H 0.96774 0.40476 0.5451 0.0
H78 H 0.89248 0.34412 0.38031 0.0
H79 H 0.94459 0.39946 0.95229 0.0
H80 H 0.79986 0.19793 0.70673 0.0
H81 H 0.90476 0.358 0.04718 0.0
H82 H 0.8415 0.18498 0.77214 0.0
O83 O 0.88583 0.37755 0.71631 0.0
H84 H 0.77141 0.30645 0.46676 0.0
H85 H 0.89251 0.40451 0.47244 0.0
H86 H 0.84659 0.41297 0.41545 0.0
H87 H 0.78551 0.36361 0.41164 0.0
H88 H 0.81785 0.29935 0.52452 0.0
H89 H 0.93443 0.37735 0.28146 0.0
H90 H 0.99385 0.42519 0.31502 0.0
O91 O 0.91003 0.3906 0.60299 0.0
C92 C 0.94339 0.34487 0.6656 0.0
C93 C 0.98457 0.4181 0.43262 0.0
C94 C 0.94197 0.38352 0.33919 0.0
N95 N 0.92763 0.37242 0.46855 0.0
C96 C 0.96027 0.39873 0.48739 0.0
C97 C 0.91838 0.36464 0.39548 0.0
C98 C 0.97529 0.41039 0.35805 0.0
C99 C 0.8317 0.25367 0.72175 0.0
N100 N 0.86246 0.28041 0.74848 0.0
C101 C 0.8238 0.21899 0.72951 0.0
C102 C 0.84731 0.21174 0.76591 0.0
C103 C 0.87836 0.2391 0.79413 0.0
C104 C 0.88558 0.27346 0.78474 0.0
C105 C 0.86901 0.32196 0.96611 0.0
C106 C 0.9133 0.36813 0.86016 0.0
C107 C 0.86191 0.31522 0.89038 0.0
N108 N 0.88393 0.33821 0.83841 0.0
C109 C 0.92126 0.37572 0.93544 0.0
C110 C 0.89891 0.35244 0.98865 0.0
C111 C 0.90238 0.39933 0.66482 0.0
C112 C 0.79799 0.32807 0.46738 0.0
C113 C 0.86607 0.38287 0.47127 0.0
C114 C 0.84013 0.38783 0.43875 0.0
C115 C 0.80589 0.36015 0.43663 0.0
N116 N 0.85832 0.35117 0.50042 0.0
C117 C 0.82462 0.32411 0.49956 0.0
Co118 Co 0.58001 0.87597 0.06388 0.0
Co119 Co 0.57721 0.89147 0.87627 0.0
O120 O 0.57635 0.86193 0.9593 0.0
C121 C 0.51501 0.80669 0.07207 0.0
O122 O 0.50078 0.81388 1.0155 0.0
C123 C 0.61135 0.85015 0.81671 0.0
O124 O 0.6105 0.8373 0.88298 0.0
O125 O 0.62218 0.9327 0.91654 0.0
O126 O 0.61366 0.92517 0.03942 0.0
H127 H 0.59268 1.00275 0.76488 0.0
H128 H 0.58981 0.81591 0.02949 0.0
O129 O 0.54619 0.8274 0.09283 0.0
H130 H 0.70036 0.90403 0.14565 0.0
H131 H 0.58397 0.8598 0.34046 0.0
H132 H 0.58208 0.93597 0.14189 0.0
H133 H 0.6518 0.91566 0.12896 0.0
H134 H 0.58329 0.84425 0.20871 0.0
O135 O 0.60351 0.87442 0.80907 0.0
H136 H 0.58917 0.96354 0.86648 0.0
H137 H 0.56896 0.88346 0.71079 0.0
H138 H 0.58417 0.9531 0.27272 0.0
H139 H 0.63754 0.80298 0.04634 0.0
H140 H 0.58498 0.91477 0.3731 0.0
H141 H 0.6934 0.84735 0.1041 0.0
O142 O 0.54114 0.88534 0.05073 0.0
H143 H 0.49026 0.7646 0.82275 0.0
H144 H 0.51235 0.88537 0.81081 0.0
H145 H 0.45594 0.83712 0.76738 0.0
H146 H 0.44462 0.77614 0.77252 0.0
H147 H 0.54584 0.81335 0.86695 0.0
H148 H 0.5726 0.92192 0.60754 0.0
H149 H 0.58438 0.98199 0.63428 0.0
O150 O 0.5486 0.90735 0.93538 0.0
C151 C 0.62971 0.944 0.98387 0.0
C152 C 0.58746 0.9766 0.75252 0.0
C153 C 0.57629 0.93128 0.66421 0.0
N154 N 0.57884 0.92122 0.79474 0.0
C155 C 0.58537 0.95425 0.80984 0.0
C156 C 0.57446 0.90968 0.72294 0.0
C157 C 0.58285 0.96496 0.67925 0.0
C158 C 0.61398 0.83529 0.05508 0.0
N159 N 0.61811 0.86665 0.0775 0.0
C160 C 0.64093 0.82783 0.06432 0.0
C161 C 0.67228 0.85276 0.09665 0.0
C162 C 0.67623 0.8846 0.11985 0.0
C163 C 0.64869 0.89111 0.10989 0.0
C164 C 0.58404 0.87686 0.29712 0.0
C165 C 0.58307 0.91944 0.18513 0.0
C166 C 0.58347 0.86813 0.22242 0.0
N167 N 0.58298 0.88935 0.16748 0.0
C168 C 0.58404 0.92919 0.25918 0.0
C169 C 0.58447 0.90768 0.31545 0.0
C170 C 0.53382 0.90039 0.99911 0.0
C171 C 0.49503 0.7911 0.8193 0.0
C172 C 0.50784 0.85903 0.8132 0.0
C173 C 0.47574 0.83174 0.78845 0.0
C174 C 0.4694 0.79756 0.79136 0.0
N175 N 0.53321 0.85268 0.83954 0.0
C176 C 0.52682 0.81906 0.8436 0.0
Co177 Co 0.71974 0.57004 0.38784 0.0
Co178 Co 0.70361 0.57158 0.19933 0.0
O179 O 0.73086 0.56858 0.28297 0.0
C180 C 0.71581 0.50668 0.45137 0.0
O181 O 0.68416 0.49766 0.47313 0.0
C182 C 0.78008 0.60925 0.14762 0.0
O183 O 0.79076 0.60707 0.21454 0.0
O184 O 0.70586 0.61487 0.24437 0.0
O185 O 0.70544 0.6052 0.367 0.0
H186 H 0.60882 0.58844 0.0873 0.0
H187 H 0.7892 0.57858 0.35563 0.0
O188 O 0.73306 0.53393 0.41131 0.0
H189 H 0.81365 0.68789 0.47967 0.0
H190 H 0.74184 0.57499 0.66408 0.0
H191 H 0.66095 0.56927 0.4674 0.0
H192 H 0.75306 0.64113 0.45679 0.0
H193 H 0.75545 0.57348 0.53219 0.0
O194 O 0.748 0.60073 0.13709 0.0
H195 H 0.6429 0.58229 0.18924 0.0
H196 H 0.7068 0.56905 0.03321 0.0
H197 H 0.64636 0.57084 0.59871 0.0
H198 H 0.85017 0.62462 0.37809 0.0
H199 H 0.68694 0.57367 0.69813 0.0
H200 H 0.86272 0.67974 0.4403 0.0
O201 O 0.67121 0.53236 0.3704 0.0
H202 H 0.747 0.48871 0.13579 0.0
H203 H 0.64705 0.50844 0.12366 0.0
H204 H 0.64107 0.45422 0.07227 0.0
H205 H 0.6914 0.44414 0.07741 0.0
H206 H 0.75164 0.54204 0.1879 0.0
H207 H 0.67363 0.57539 0.92967 0.0
H208 H 0.62414 0.58501 0.95639 0.0
O209 O 0.65836 0.54032 0.25355 0.0
C210 C 0.70233 0.62169 0.31217 0.0
C211 C 0.63027 0.58417 0.07493 0.0
C212 C 0.66671 0.57695 0.98648 0.0
N213 N 0.6768 0.57527 0.11734 0.0
C214 C 0.64963 0.58059 0.13244 0.0
C215 C 0.68554 0.57358 0.0454 0.0
C216 C 0.63892 0.5823 1.00151 0.0
C217 C 0.7944 0.60245 0.383 0.0
N218 N 0.76753 0.60716 0.40445 0.0
C219 C 0.829 0.62844 0.39547 0.0
C220 C 0.83603 0.6594 0.43027 0.0
C221 C 0.80851 0.66403 0.45215 0.0
C222 C 0.77423 0.63752 0.43856 0.0
C223 C 0.72395 0.57379 0.6213 0.0
C224 C 0.67878 0.57057 0.51032 0.0
C225 C 0.73153 0.57297 0.54646 0.0
N226 N 0.70905 0.57138 0.49199 0.0
C227 C 0.67037 0.57143 0.58459 0.0
C228 C 0.69315 0.57303 0.64035 0.0
C229 C 0.64977 0.52493 0.31676 0.0
C230 C 0.72499 0.49296 0.13246 0.0
C231 C 0.66913 0.50441 0.12633 0.0
C232 C 0.66556 0.47357 0.09698 0.0
C233 C 0.69377 0.46792 0.09989 0.0
N234 N 0.7 0.52922 0.15726 0.0
C235 C 0.72756 0.52345 0.16138 0.0
Co236 Co 0.1745 0.71731 0.74914 0.0
Co237 Co 0.15685 0.69876 0.56148 0.0
O238 O 0.18766 0.72626 0.64394 0.0
C239 C 0.23092 0.70899 0.81494 0.0
O240 O 0.20644 0.67828 0.83845 0.0
C241 C 0.20019 0.77443 0.50195 0.0
O242 O 0.21362 0.78579 0.56813 0.0
O243 O 0.11756 0.70478 0.60267 0.0
O244 O 0.1258 0.70519 0.72609 0.0
H245 H 0.04284 0.60665 0.45226 0.0
H246 H 0.23794 0.78468 0.7125 0.0
O247 O 0.22299 0.72796 0.77466 0.0
H248 H 0.1564 0.81679 0.82335 0.0
H249 H 0.19332 0.74315 1.0235 0.0
H250 H 0.11425 0.66201 0.83205 0.0
H251 H 0.14009 0.75492 0.81083 0.0
H252 H 0.20838 0.75424 0.89086 0.0
O253 O 0.17523 0.74261 0.49418 0.0
H254 H 0.08362 0.64089 0.55311 0.0
H255 H 0.16326 0.69852 0.3958 0.0
H256 H 0.09801 0.65015 0.96406 0.0
H257 H 0.25523 0.84696 0.72418 0.0
H258 H 0.13771 0.69085 0.06085 0.0
H259 H 0.21437 0.8633 0.77972 0.0
O260 O 0.16042 0.66763 0.73727 0.0
H261 H 0.28138 0.73312 0.50285 0.0
H262 H 0.15891 0.63797 0.49627 0.0
H263 H 0.2048 0.62708 0.45066 0.0
H264 H 0.2666 0.67496 0.45303 0.0
H265 H 0.23492 0.74266 0.54933 0.0
H266 H 0.12323 0.66513 0.29329 0.0
H267 H 0.06258 0.61871 0.32122 0.0
O268 O 0.13943 0.65392 0.62089 0.0
C269 C 0.10682 0.70212 0.66997 0.0
C270 C 0.06923 0.62677 0.43938 0.0
C271 C 0.11432 0.65965 0.35016 0.0
N272 N 0.12582 0.6717 0.48052 0.0
C273 C 0.09247 0.64621 0.49627 0.0
C274 C 0.13682 0.67862 0.40848 0.0
C275 C 0.0803 0.63358 0.36587 0.0
C276 C 0.22004 0.7916 0.73711 0.0
N277 N 0.18795 0.76615 0.7604 0.0
C278 C 0.23 0.82689 0.74353 0.0
C279 C 0.20698 0.83606 0.77447 0.0
C280 C 0.17442 0.80997 0.79876 0.0
C281 C 0.16527 0.77496 0.79118 0.0
C282 C 0.17572 0.7253 0.98183 0.0
C283 C 0.13156 0.67998 0.87378 0.0
C284 C 0.18409 0.73144 0.90661 0.0
N285 N 0.16211 0.70888 0.85362 0.0
C286 C 0.12226 0.67308 0.94847 0.0
C287 C 0.14455 0.69593 1.00275 0.0
C288 C 0.14487 0.64549 0.68582 0.0
C289 C 0.2545 0.71215 0.50069 0.0
C290 C 0.18565 0.65902 0.49759 0.0
C291 C 0.21158 0.65266 0.47158 0.0
C292 C 0.24622 0.6795 0.47294 0.0
N293 N 0.19379 0.69129 0.52369 0.0
C294 C 0.22786 0.71752 0.52637 0.0
Co295 Co 0.48374 0.16419 0.05762 0.0
Co296 Co 0.47902 0.14257 0.87123 0.0
O297 O 0.48472 0.17513 0.95147 0.0
C298 C 0.54942 0.22259 0.11502 0.0
O299 O 0.55716 0.1989 0.13706 0.0
C300 C 0.44514 0.18448 0.81344 0.0
O301 O 0.44851 0.1987 0.87898 0.0
O302 O 0.43514 0.10389 0.91971 0.0
O303 O 0.44713 0.11484 0.04132 0.0
H304 H 0.45435 0.02633 0.77134 0.0
H305 H 0.47751 0.2262 1.01809 0.0
O306 O 0.52163 0.21354 0.077 0.0
H307 H 0.36724 0.14467 0.1423 0.0
H308 H 0.48296 0.18764 0.33125 0.0
H309 H 0.48246 0.10618 0.14416 0.0
H310 H 0.41358 0.12982 0.12845 0.0
H311 H 0.48352 0.20025 0.19766 0.0
O312 O 0.45154 0.15929 0.80605 0.0
H313 H 0.46379 0.06926 0.86885 0.0
H314 H 0.48048 0.14534 0.70468 0.0
H315 H 0.48174 0.09248 0.27729 0.0
H316 H 0.4316 0.24196 0.03088 0.0
H317 H 0.48202 0.13338 0.3719 0.0
H318 H 0.37611 0.20111 0.09307 0.0
O319 O 0.51941 0.15062 0.04217 0.0
H320 H 0.56686 0.2663 0.79686 0.0
H321 H 0.53953 0.14369 0.79713 0.0
H322 H 0.59457 0.18894 0.74254 0.0
H323 H 0.60848 0.2508 0.74144 0.0
H324 H 0.51265 0.22053 0.85226 0.0
H325 H 0.47083 0.10311 0.60547 0.0
H326 H 0.4578 0.04314 0.63853 0.0
O327 O 0.50842 0.12681 0.92814 0.0
C328 C 0.42935 0.09461 0.98844 0.0
C329 C 0.46005 0.05239 0.75622 0.0
C330 C 0.4692 0.09545 0.66314 0.0
N331 N 0.47267 0.10981 0.79264 0.0
C332 C 0.46549 0.07685 0.81121 0.0
C333 C 0.47443 0.1192 0.71963 0.0
C334 C 0.46194 0.06183 0.68172 0.0
C335 C 0.45347 0.20835 0.04576 0.0
N336 N 0.44815 0.17699 0.07182 0.0
C337 C 0.42763 0.21745 0.05281 0.0
C338 C 0.39637 0.1944 0.08745 0.0
C339 C 0.39134 0.1627 0.11487 0.0
C340 C 0.41765 0.15437 0.10652 0.0
C341 C 0.48276 0.16957 0.2906 0.0
C342 C 0.4825 0.12407 0.18497 0.0
C343 C 0.48305 0.17655 0.21482 0.0
N344 N 0.48293 0.15391 0.16302 0.0
C345 C 0.48212 0.11619 0.26029 0.0
C346 C 0.48227 0.13914 0.31334 0.0
C347 C 0.52449 0.13407 0.99077 0.0
C348 C 0.56094 0.23938 0.79624 0.0
C349 C 0.54523 0.17045 0.79707 0.0
C350 C 0.57652 0.19601 0.76592 0.0
C351 C 0.58432 0.23069 0.76533 0.0
N352 N 0.52204 0.17896 0.82635 0.0
C353 C 0.52992 0.2131 0.82704 0.0
Co354 Co 0.57842 0.71313 0.30753 0.0
Co355 Co 0.57693 0.694 0.49521 0.0
O356 O 0.57427 0.72196 0.41284 0.0
C357 C 0.51386 0.70527 0.24169 0.0
O358 O 0.50751 0.67456 0.21792 0.0
C359 C 0.61048 0.76969 0.555 0.0
O360 O 0.60875 0.78128 0.48883 0.0
O361 O 0.62182 0.69887 0.45392 0.0
O362 O 0.61476 0.70075 0.33054 0.0
H363 H 0.59603 0.59997 0.60393 0.0
H364 H 0.58265 0.78058 0.34469 0.0
O365 O 0.54076 0.72408 0.28209 0.0
H366 H 0.69624 0.81239 0.23396 0.0
H367 H 0.58575 0.73936 0.03329 0.0
H368 H 0.5833 0.65787 0.22435 0.0
H369 H 0.65051 0.75058 0.24611 0.0
H370 H 0.58168 0.75031 0.16599 0.0
O371 O 0.60316 0.73772 0.5626 0.0
H372 H 0.59043 0.63488 0.50327 0.0
H373 H 0.57056 0.69393 0.66096 0.0
H374 H 0.58785 0.64619 0.0923 0.0
H375 H 0.62779 0.84281 0.33327 0.0
H376 H 0.58902 0.68707 0.9957 0.0
H377 H 0.68497 0.85901 0.27781 0.0
O378 O 0.54258 0.6635 0.3189 0.0
H379 H 0.48869 0.73099 0.55373 0.0
H380 H 0.51349 0.63412 0.56102 0.0
H381 H 0.45721 0.62453 0.60682 0.0
H382 H 0.44455 0.67327 0.60411 0.0
H383 H 0.54416 0.73924 0.50707 0.0
H384 H 0.57629 0.65989 0.7633 0.0
H385 H 0.58897 0.61242 0.73508 0.0
O386 O 0.54867 0.64938 0.43574 0.0
C387 C 0.63018 0.6968 0.3865 0.0
C388 C 0.59044 0.62055 0.61694 0.0
C389 C 0.57946 0.65425 0.70638 0.0
N390 N 0.58019 0.66646 0.57606 0.0
C391 C 0.58717 0.64038 0.56015 0.0
C392 C 0.57645 0.67359 0.64816 0.0
C393 C 0.58653 0.62758 0.69051 0.0
C394 C 0.60745 0.78744 0.32008 0.0
N395 N 0.61399 0.76193 0.29664 0.0
C396 C 0.63287 0.8227 0.31383 0.0
C397 C 0.66505 0.83178 0.28294 0.0
C398 C 0.67141 0.80564 0.25851 0.0
C399 C 0.64545 0.77066 0.2659 0.0
C400 C 0.58542 0.72145 0.07487 0.0
C401 C 0.58403 0.67591 0.1827 0.0
C402 C 0.58312 0.72749 0.15012 0.0
N403 N 0.58242 0.70483 0.203 0.0
C404 C 0.58653 0.66912 0.10799 0.0
C405 C 0.5872 0.69207 0.05383 0.0
C406 C 0.53515 0.64124 0.37048 0.0
C407 C 0.49405 0.70964 0.55605 0.0
C408 C 0.50836 0.65554 0.55955 0.0
C409 C 0.47635 0.64992 0.58567 0.0
C410 C 0.46926 0.67725 0.58411 0.0
N411 N 0.53292 0.68757 0.53315 0.0
C412 C 0.52576 0.71427 0.53027 0.0
Co413 Co 0.89127 0.58208 0.64713 0.0
Co414 Co 0.90298 0.57669 0.83604 0.0
O415 O 0.87562 0.57799 0.75042 0.0
C416 C 0.82091 0.51875 0.63328 0.0
O417 O 0.82611 0.50439 0.69232 0.0
C418 C 0.86398 0.6135 0.89209 0.0
O419 O 0.85254 0.61389 0.82484 0.0
O420 O 0.94606 0.62095 0.8001 0.0
O421 O 0.94027 0.61437 0.67646 0.0
H422 H 1.00962 0.58524 0.95693 0.0
H423 H 0.83216 0.59371 0.67605 0.0
O424 O 0.84299 0.54957 0.61292 0.0
H425 H 0.92382 0.70416 0.56776 0.0
H426 H 0.88186 0.59189 0.36981 0.0
H427 H 0.95105 0.58195 0.57446 0.0
H428 H 0.93387 0.65463 0.58717 0.0
H429 H 0.86347 0.58895 0.4999 0.0
O430 O 0.88702 0.60422 0.90165 0.0
H431 H 0.97321 0.58474 0.85208 0.0
H432 H 0.89208 0.56752 1.00068 0.0
H433 H 0.97071 0.5856 0.44536 0.0
H434 H 0.82072 0.64232 0.65613 0.0
H435 H 0.93596 0.59054 0.34195 0.0
H436 H 0.86685 0.69813 0.60203 0.0
O437 O 0.89857 0.5418 0.66059 0.0
H438 H 0.77436 0.494 0.87803 0.0
H439 H 0.89231 0.50989 0.9011 0.0
H440 H 0.84174 0.4543 0.93997 0.0
H441 H 0.78216 0.44609 0.92929 0.0
H442 H 0.82537 0.54867 0.83817 0.0
H443 H 0.92777 0.56824 0.10712 0.0
H444 H 0.98695 0.57697 0.08557 0.0
O445 O 0.91762 0.54684 0.77832 0.0
C446 C 0.95847 0.62912 0.73397 0.0
C447 C 0.98385 0.58135 0.96702 0.0
C448 C 0.93796 0.5719 0.05132 0.0
N449 N 0.93052 0.57609 0.92008 0.0
C450 C 0.96307 0.58096 0.90785 0.0
C451 C 0.91794 0.57174 0.99081 0.0
C452 C 0.97114 0.57676 0.03919 0.0
C453 C 0.85232 0.61787 0.65226 0.0
N454 N 0.88373 0.62139 0.63332 0.0
C455 C 0.84572 0.64534 0.6413 0.0
C456 C 0.87162 0.67665 0.61102 0.0
C457 C 0.90361 0.68006 0.59183 0.0
C458 C 0.90924 0.65199 0.60341 0.0
C459 C 0.89731 0.58998 0.41449 0.0
C460 C 0.93598 0.58451 0.52988 0.0
C461 C 0.887 0.58821 0.48826 0.0
N462 N 0.90637 0.58565 0.5449 0.0
C463 C 0.94718 0.58642 0.45684 0.0
C464 C 0.92766 0.58917 0.39885 0.0
C465 C 0.91131 0.53265 0.71387 0.0
C466 C 0.80023 0.4974 0.88386 0.0
C467 C 0.8666 0.50673 0.89612 0.0
C468 C 0.83799 0.47509 0.91838 0.0
C469 C 0.80459 0.47049 0.91237 0.0
N470 N 0.86232 0.53334 0.86913 0.0
C471 C 0.82947 0.52867 0.86206 0.0
Co472 Co 0.33625 0.87961 0.99287 0.0
Co473 Co 0.35521 0.89508 0.18044 0.0
O474 O 0.32605 0.86579 0.09757 0.0
C475 C 0.33138 0.81005 0.98491 0.0
O476 O 0.35281 0.81714 0.04138 0.0
C477 C 0.27981 0.855 0.24036 0.0
O478 O 0.26758 0.84237 0.17408 0.0
O479 O 0.35256 0.93699 0.14021 0.0
O480 O 0.35215 0.92888 1.01724 0.0
H481 H 0.45283 1.00527 0.29133 0.0
H482 H 0.26634 0.81992 0.02819 0.0
O483 O 0.32111 0.83092 0.9641 0.0
H484 H 0.24423 0.90817 0.91146 0.0
H485 H 0.31566 0.86317 0.71642 0.0
H486 H 0.39414 0.9394 0.91435 0.0
H487 H 0.30434 0.9195 0.92778 0.0
H488 H 0.30092 0.84781 0.8483 0.0
O489 O 0.31206 0.8789 0.24787 0.0
H490 H 0.41645 0.96647 0.18991 0.0
H491 H 0.35538 0.88708 0.34594 0.0
H492 H 0.40901 0.95635 0.78339 0.0
H493 H 0.20574 0.80725 1.01166 0.0
H494 H 0.36966 0.91801 0.68333 0.0
H495 H 0.19443 0.85169 0.95361 0.0
O496 O 0.38438 0.88859 1.00538 0.0
H497 H 0.31278 0.76764 0.23376 0.0
H498 H 0.41309 0.88747 0.2459 0.0
H499 H 0.42001 0.83845 0.28923 0.0
H500 H 0.36954 0.77794 0.28399 0.0
H501 H 0.30718 0.81711 0.18966 0.0
H502 H 0.39085 0.92517 0.44901 0.0
H503 H 0.44009 0.98469 0.422 0.0
O504 O 0.39941 0.90994 0.12112 0.0
C505 C 0.35582 0.94805 0.07275 0.0
C506 C 0.43148 0.97937 0.3038 0.0
C507 C 0.39664 0.93445 0.3923 0.0
N508 N 0.3838 0.92452 0.26184 0.0
C509 C 0.41082 0.95725 0.24659 0.0
C510 C 0.37649 0.91307 0.33368 0.0
C511 C 0.42429 0.96783 0.37711 0.0
C512 C 0.26161 0.83933 1.0025 0.0
N513 N 0.2889 0.87058 0.97974 0.0
C514 C 0.22725 0.83202 0.99344 0.0
C515 C 0.22092 0.85699 0.96094 0.0
C516 C 0.24886 0.88871 0.93741 0.0
C517 C 0.28287 0.89507 0.94719 0.0
C518 C 0.33273 0.88026 0.75963 0.0
C519 C 0.37652 0.92287 0.87125 0.0
C520 C 0.32465 0.87163 0.8344 0.0
N521 N 0.34649 0.89286 0.88916 0.0
C522 C 0.38521 0.93252 0.79713 0.0
C523 C 0.36313 0.91099 0.74104 0.0
C524 C 0.40688 0.90296 0.05705 0.0
C525 C 0.33486 0.79393 0.23726 0.0
C526 C 0.3909 0.86134 0.24348 0.0
C527 C 0.39502 0.83362 0.26816 0.0
C528 C 0.36672 0.7997 0.2652 0.0
N529 N 0.35942 0.85568 0.21714 0.0
C530 C 0.33174 0.82231 0.21302 0.0
Co531 Co 0.47942 0.32145 0.30272 0.0
Co532 Co 0.48158 0.33988 0.48975 0.0
O533 O 0.48281 0.3112 0.40776 0.0
C534 C 0.54523 0.31877 0.29284 0.0
O535 O 0.56062 0.34232 0.34517 0.0
C536 C 0.44615 0.26425 0.54997 0.0
O537 O 0.44686 0.25215 0.484 0.0
O538 O 0.4369 0.33593 0.44833 0.0
O539 O 0.44557 0.33673 0.32558 0.0
H540 H 0.46618 0.43592 0.5977 0.0
H541 H 0.47004 0.25178 0.33901 0.0
O542 O 0.51343 0.30686 0.27524 0.0
H543 H 0.35899 0.22809 0.22345 0.0
H544 H 0.47722 0.30156 0.02675 0.0
H545 H 0.47697 0.37899 0.22265 0.0
H546 H 0.40762 0.28859 0.23734 0.0
H547 H 0.47692 0.28647 0.15899 0.0
O548 O 0.45499 0.29661 0.55733 0.0
H549 H 0.46979 0.40012 0.49734 0.0
H550 H 0.48953 0.34032 0.65533 0.0
H551 H 0.47551 0.39402 0.09126 0.0
H552 H 0.42237 0.19082 0.32448 0.0
H553 H 0.47582 0.35523 0.99221 0.0
H554 H 0.36615 0.17871 0.26751 0.0
O555 O 0.51805 0.37009 0.31534 0.0
H556 H 0.56776 0.29986 0.5489 0.0
H557 H 0.54665 0.39916 0.55332 0.0
H558 H 0.60295 0.40746 0.59787 0.0
H559 H 0.61377 0.3575 0.5965 0.0
H560 H 0.51227 0.29289 0.50354 0.0
H561 H 0.48581 0.37528 0.75741 0.0
H562 H 0.47419 0.42357 0.72888 0.0
O563 O 0.50999 0.38425 0.43014 0.0
C564 C 0.42956 0.33964 0.38073 0.0
C565 C 0.47129 0.41497 0.61085 0.0
C566 C 0.48222 0.38088 0.70048 0.0
N567 N 0.47979 0.36808 0.57031 0.0
C568 C 0.47341 0.39462 0.55422 0.0
C569 C 0.48409 0.36103 0.64242 0.0
C570 C 0.47574 0.408 0.68443 0.0
C571 C 0.44579 0.24671 0.31336 0.0
N572 N 0.44151 0.27377 0.2898 0.0
C573 C 0.41885 0.21214 0.30557 0.0
C574 C 0.38731 0.20537 0.27365 0.0
C575 C 0.38325 0.23307 0.24906 0.0
C576 C 0.41083 0.2673 0.25741 0.0
C577 C 0.47657 0.31834 0.06949 0.0
C578 C 0.47637 0.36155 0.18 0.0
C579 C 0.47663 0.31009 0.14448 0.0
N580 N 0.47664 0.33168 0.19868 0.0
C581 C 0.47577 0.37034 0.10563 0.0
C582 C 0.47596 0.34858 0.0501 0.0
C583 C 0.52484 0.39239 0.36663 0.0
C584 C 0.56322 0.32174 0.55062 0.0
C585 C 0.55097 0.37722 0.55253 0.0
C586 C 0.58299 0.38211 0.57792 0.0
C587 C 0.58906 0.35409 0.57711 0.0
N588 N 0.52544 0.34526 0.52757 0.0
C589 C 0.53153 0.31785 0.5256 0.0
Co590 Co 0.15804 0.46626 0.67699 0.0
Co591 Co 0.14343 0.46579 0.86356 0.0
O592 O 0.17173 0.4664 0.78017 0.0
C593 C 0.22477 0.52402 0.61642 0.0
O594 O 0.20983 0.54209 0.59679 0.0
C595 C 0.18149 0.42662 0.91231 0.0
O596 O 0.18881 0.42434 0.84298 0.0
O597 O 0.10117 0.4223 0.82081 0.0
O598 O 0.10803 0.43666 0.70001 0.0
H599 H 0.03506 0.45361 0.97917 0.0
H600 H 0.21181 0.44628 0.70766 0.0
O601 O 0.20813 0.49584 0.65344 0.0
H602 H 0.11595 0.34421 0.58134 0.0
H603 H 0.16429 0.45674 0.39796 0.0
H604 H 0.10389 0.47668 0.60414 0.0
H605 H 0.11167 0.39668 0.6056 0.0
H606 H 0.18106 0.45467 0.5274 0.0
O607 O 0.15999 0.43739 0.92704 0.0
H608 H 0.07285 0.45692 0.87592 0.0
H609 H 0.15223 0.47065 0.02905 0.0
H610 H 0.08565 0.47835 0.4754 0.0
H611 H 0.21752 0.39462 0.68316 0.0
H612 H 0.11609 0.46859 0.37099 0.0
H613 H 0.16936 0.34302 0.61957 0.0
O614 O 0.15509 0.50837 0.69588 0.0
H615 H 0.27092 0.54718 0.92154 0.0
H616 H 0.15267 0.53115 0.93229 0.0
H617 H 0.20251 0.58582 0.97885 0.0
H618 H 0.26219 0.59403 0.97433 0.0
H619 H 0.22062 0.49339 0.87411 0.0
H620 H 0.11518 0.46717 0.13391 0.0
H621 H 0.05619 0.45875 0.1093 0.0
O622 O 0.12897 0.49691 0.80698 0.0
C623 C 0.08934 0.41825 0.75368 0.0
C624 C 0.06075 0.45737 0.99061 0.0
C625 C 0.10568 0.46489 0.07746 0.0
N626 N 0.11475 0.46407 0.94632 0.0
C627 C 0.0823 0.45934 0.93236 0.0
C628 C 0.12648 0.46666 1.01781 0.0
C629 C 0.0726 0.46021 0.06361 0.0
C630 C 0.19064 0.42396 0.68016 0.0
N631 N 0.16121 0.4245 0.65897 0.0
C632 C 0.19405 0.39474 0.66641 0.0
C633 C 0.16703 0.36581 0.6308 0.0
C634 C 0.13704 0.36644 0.60947 0.0
C635 C 0.13459 0.39614 0.62408 0.0
C636 C 0.15116 0.46159 0.44286 0.0
C637 C 0.11762 0.47284 0.55919 0.0
C638 C 0.16099 0.46095 0.51652 0.0
N639 N 0.14462 0.46698 0.57376 0.0
C640 C 0.10701 0.47363 0.48629 0.0
C641 C 0.12406 0.46812 0.42777 0.0
C642 C 0.13901 0.51456 0.74625 0.0
C643 C 0.245 0.54378 0.92452 0.0
C644 C 0.17848 0.53441 0.92999 0.0
C645 C 0.20665 0.56548 0.95655 0.0
C646 C 0.24011 0.57008 0.95398 0.0
N647 N 0.1833 0.50841 0.90206 0.0
C648 C 0.2162 0.51309 0.89828 0.0
Co649 Co 0.72271 0.15963 0.98008 0.0
Co650 Co 0.70514 0.14331 0.16736 0.0
O651 O 0.73336 0.17337 0.08486 0.0
C652 C 0.72484 0.22796 0.9712 0.0
O653 O 0.70282 0.21972 0.02623 0.0
C654 C 0.7804 0.18558 0.22823 0.0
O655 O 0.79224 0.1985 0.16215 0.0
O656 O 0.70948 0.10264 0.12699 0.0
O657 O 0.70801 0.1105 1.00413 0.0
H658 H 0.61086 0.03102 0.277 0.0
H659 H 0.79211 0.22041 1.01512 0.0
O660 O 0.73651 0.20819 0.95153 0.0
H661 H 0.8161 0.13371 0.8997 0.0
H662 H 0.73969 0.17719 0.70335 0.0
H663 H 0.66507 0.0991 0.90189 0.0
H664 H 0.75559 0.12107 0.91509 0.0
H665 H 0.75619 0.19219 0.83516 0.0
O666 O 0.74858 0.16079 0.23519 0.0
H667 H 0.64587 0.07071 0.17608 0.0
H668 H 0.70505 0.15091 0.33282 0.0
H669 H 0.64882 0.08236 0.7711 0.0
H670 H 0.85304 0.23447 0.99917 0.0
H671 H 0.6862 0.1217 0.67073 0.0
H672 H 0.86531 0.19071 0.94212 0.0
O673 O 0.67432 0.14935 0.99296 0.0
H674 H 0.74301 0.26967 0.22082 0.0
H675 H 0.64597 0.14811 0.23236 0.0
H676 H 0.63685 0.19566 0.27512 0.0
H677 H 0.68568 0.25704 0.27023 0.0
H678 H 0.75077 0.22161 0.17707 0.0
H679 H 0.67091 0.11196 0.43543 0.0
H680 H 0.62331 0.05157 0.40781 0.0
O681 O 0.66053 0.12677 0.10777 0.0
C682 C 0.70543 0.09152 0.05955 0.0
C683 C 0.6315 0.05729 0.28975 0.0
C684 C 0.66526 0.10268 0.37867 0.0
N685 N 0.67754 0.11312 0.24838 0.0
C686 C 0.65139 0.07992 0.23281 0.0
C687 C 0.68467 0.12456 0.32031 0.0
C688 C 0.63853 0.06882 0.36313 0.0
C689 C 0.79726 0.20137 0.98959 0.0
N690 N 0.77031 0.16983 0.96671 0.0
C691 C 0.83181 0.20943 0.98099 0.0
C692 C 0.83867 0.18486 0.94901 0.0
C693 C 0.81106 0.15285 0.92529 0.0
C694 C 0.77684 0.14577 0.93446 0.0
C695 C 0.72362 0.15965 0.74673 0.0
C696 C 0.68198 0.11599 0.85868 0.0
C697 C 0.73265 0.16807 0.82143 0.0
N698 N 0.71182 0.14637 0.87636 0.0
C699 C 0.67247 0.10647 0.78463 0.0
C700 C 0.69343 0.12855 0.72838 0.0
C701 C 0.65227 0.13367 0.04416 0.0
C702 C 0.72164 0.24299 0.22414 0.0
C703 C 0.66744 0.17462 0.22998 0.0
C704 C 0.66208 0.20151 0.2544 0.0
C705 C 0.68946 0.23592 0.25163 0.0
N706 N 0.69923 0.18157 0.20402 0.0
C707 C 0.726 0.21541 0.20009 0.0
C708 C 0.37993 0.37403 0.26705 0.0
C709 C 0.37149 0.39114 0.32131 0.0
H710 H 0.40394 0.34361 0.24332 0.0
C711 C 0.37793 0.38661 0.39676 0.0
H712 H 0.37548 0.37675 0.20878 0.0
C713 C 0.39425 0.36762 0.41698 0.0
C714 C 0.40493 0.35258 0.3625 0.0
H715 H 0.37196 0.39923 0.44096 0.0
H716 H 0.40032 0.36655 0.475 0.0
C717 C 0.39636 0.35498 0.28737 0.0
C718 C 1.00694 0.36985 0.63511 0.0
C719 C 0.98038 0.35698 0.68794 0.0
H720 H 0.06126 0.39894 0.61403 0.0
C721 C 0.99012 0.36052 0.7641 0.0
H722 H 1.00077 0.36787 0.57635 0.0
C723 C 1.0254 0.37849 0.78656 0.0
C724 C 0.05191 0.39346 0.73347 0.0
H725 H 0.97045 0.35084 0.80694 0.0
H726 H 0.03174 0.3822 0.84526 0.0
C727 C 0.04198 0.38785 0.65743 0.0
C728 C 0.6697 1.0073 0.94672 0.0
C729 C 0.65544 0.98151 1.00182 0.0
H730 H 0.69759 0.06181 0.92158 0.0
C731 C 0.66255 0.99248 0.07708 0.0
H732 H 0.66506 1.00018 0.88852 0.0
C733 C 0.68072 0.02804 0.0966 0.0
C734 C 0.69283 0.05388 0.04151 0.0
H735 H 0.65252 0.97359 0.1218 0.0
H736 H 0.68362 0.03517 0.15478 0.0
C737 C 0.68831 0.04287 0.96625 0.0
C738 C 0.67996 0.66255 0.27544 0.0
C739 C 0.69034 0.64712 0.33071 0.0
H740 H 0.65417 0.69123 0.2496 0.0
C741 C 0.68527 0.65293 0.40582 0.0
H742 H 0.68338 0.65891 0.21729 0.0
C743 C 0.66794 0.67111 0.42478 0.0
C744 C 0.6554 0.68445 0.36931 0.0
H745 H 0.69314 0.64189 0.4506 0.0
H746 H 0.6628 0.67305 0.48276 0.0
C747 C 0.66299 0.68109 0.29445 0.0
C748 C 1.00859 0.66242 0.64577 0.0
C749 C 0.99646 0.65412 0.71985 0.0
H750 H 0.05221 0.68385 0.57161 0.0
C751 C 1.02145 0.66645 0.77714 0.0
H752 H 0.99041 0.65384 0.59951 0.0
C753 C 0.05728 0.68441 0.76061 0.0
C754 C 0.06928 0.6902 0.68625 0.0
H755 H 1.01342 0.66079 0.83458 0.0
H756 H 0.07554 0.69216 0.80661 0.0
C757 C 0.04432 0.67994 0.62926 0.0
C758 C 0.38241 1.01216 0.10785 0.0
C759 C 0.36805 0.98563 0.05417 0.0
H760 H 0.41191 0.06704 0.12959 0.0
C761 C 0.36974 0.99578 0.97874 0.0
H762 H 0.38175 1.00569 0.16613 0.0
C763 C 0.38761 0.03105 0.95721 0.0
C764 C 0.40411 0.05753 1.01039 0.0
H765 H 0.35879 0.97636 0.93511 0.0
H766 H 0.38996 0.03738 0.89858 0.0
C767 C 0.39997 0.04754 0.08632 0.0
C768 C 0.23414 0.42211 0.95425 0.0
C769 C 0.20353 0.42296 0.97259 0.0
H770 H 0.28076 0.42287 0.9926 0.0
C771 C 0.1963 0.42307 0.04852 0.0
H772 H 0.24108 0.42232 0.89664 0.0
C773 C 0.219 0.42279 0.10381 0.0
C774 C 0.25017 0.42305 0.08545 0.0
H775 H 0.17334 0.42393 0.06542 0.0
H776 H 0.21254 0.42353 0.16139 0.0
C777 C 0.25716 0.42247 1.00953 0.0
C778 C 0.8083 0.21294 0.43124 0.0
C779 C 0.8391 0.24574 0.42393 0.0
H780 H 0.76603 0.16835 0.37703 0.0
C781 C 0.85176 0.25685 0.35152 0.0
H782 H 0.79742 0.20324 0.48565 0.0
C783 C 0.83366 0.23656 0.28882 0.0
C784 C 0.80205 0.20447 0.29598 0.0
H785 H 0.87525 0.28176 0.34293 0.0
H786 H 0.84393 0.24679 0.23429 0.0
C787 C 0.79008 0.19276 0.36853 0.0
C788 C 0.61629 0.80051 0.75744 0.0
C789 C 0.61548 0.83197 0.74952 0.0
H790 H 0.61553 0.75655 0.70426 0.0
C791 C 0.61559 0.84374 0.6766 0.0
H792 H 0.61607 0.79019 0.81223 0.0
C793 C 0.61553 0.82437 0.61426 0.0
C794 C 0.61504 0.79225 0.62219 0.0
H795 H 0.61492 0.86762 0.66744 0.0
H796 H 0.61472 0.83416 0.55949 0.0
C797 C 0.61593 0.78098 0.6951 0.0
C798 C 0.83574 0.61583 0.09247 0.0
C799 C 0.80373 0.61518 0.08241 0.0
H800 H 0.87969 0.61599 0.04199 0.0
C801 C 0.79347 0.61694 1.00897 0.0
H802 H 0.84474 0.61438 0.14778 0.0
C803 C 0.81385 0.61813 0.94793 0.0
C804 C 0.84511 0.61727 0.9579 0.0
H805 H 0.76915 0.61648 0.99834 0.0
H806 H 0.80429 0.61841 0.89253 0.0
C807 C 0.85595 0.61669 0.03142 0.0
C808 C 0.25008 0.82896 0.44287 0.0
C809 C 0.21826 0.79705 0.43488 0.0
H810 H 0.29409 0.87209 0.38973 0.0
C811 C 0.20591 0.78602 0.36197 0.0
H812 H 0.26082 0.83857 0.49764 0.0
C813 C 0.22508 0.80559 0.29966 0.0
C814 C 0.25753 0.83684 0.30762 0.0
H815 H 0.18174 0.76175 0.35277 0.0
H816 H 0.21484 0.79546 0.24486 0.0
C817 C 0.26939 0.84838 0.38055 0.0
C818 C 0.43874 0.18958 0.67352 0.0
C819 C 0.4405 0.20234 0.74597 0.0
H820 H 0.43858 0.19837 0.55611 0.0
C821 C 0.44118 0.23454 0.75295 0.0
H822 H 0.43815 0.16505 0.66518 0.0
C823 C 0.4416 0.25391 0.69002 0.0
C824 C 0.44112 0.24175 0.61755 0.0
H825 H 0.44265 0.24556 0.80736 0.0
H826 H 0.44325 0.27894 0.69836 0.0
C827 C 0.43893 0.20885 0.61057 0.0
C828 C 0.25275 0.49591 0.554 0.0
C829 C 0.25448 0.52723 0.57421 0.0
H830 H 0.27173 0.47039 0.48895 0.0
C831 C 0.28278 0.55911 0.54975 0.0
H832 H 0.23232 0.47079 0.57277 0.0
C833 C 0.30926 0.55892 0.50688 0.0
C834 C 0.30574 0.52682 0.48433 0.0
H835 H 0.2847 0.58371 0.56478 0.0
H836 H 0.33167 0.58339 0.49014 0.0
C837 C 0.27648 0.49569 0.50658 0.0
C838 C 0.75494 0.28131 0.80175 0.0
C839 C 0.78157 0.31266 0.83183 0.0
H840 H 0.71434 0.2293 0.82502 0.0
C841 C 0.78142 0.31911 0.90837 0.0
H842 H 0.75442 0.27583 0.74298 0.0
C843 C 0.7586 0.29223 0.95559 0.0
C844 C 0.73561 0.25922 0.92603 0.0
H845 H 0.8018 0.34308 0.93303 0.0
H846 H 0.76198 0.29597 1.01517 0.0
C847 C 0.732 0.25475 0.84869 0.0
C848 C 0.49007 0.74292 0.08169 0.0
C849 C 0.49634 0.77427 0.11424 0.0
H850 H 0.48995 0.69497 0.09888 0.0
C851 C 0.49745 0.77728 0.19194 0.0
H852 H 0.4896 0.74037 1.02179 0.0
C853 C 0.4985 0.75188 0.23596 0.0
C854 C 0.49787 0.72302 0.20254 0.0
H855 H 0.50243 0.80147 0.21788 0.0
H856 H 0.5038 0.75679 0.2949 0.0
C857 C 0.49057 0.71711 0.126 0.0
C858 C 0.76726 0.4991 0.46328 0.0
C859 C 0.73614 0.49434 0.49358 0.0
H860 H 0.81901 0.50965 0.48608 0.0
C861 C 0.7299 0.48716 0.57001 0.0
H862 H 0.77257 0.50445 0.40456 0.0
C863 C 0.75669 0.49031 0.61695 0.0
C864 C 0.78949 0.50026 0.58726 0.0
H865 H 0.7061 0.4835 0.59482 0.0
H866 H 0.75305 0.48914 0.67655 0.0
C867 C 0.79379 0.50204 0.50991 0.0
C868 C 0.26585 0.72062 0.93084 0.0
C869 C 0.2646 0.72655 0.85426 0.0
H870 H 0.29001 0.74377 0.03513 0.0
C871 C 0.29298 0.75533 0.82095 0.0
H872 H 0.24421 0.69854 0.95784 0.0
C873 C 0.31946 0.78063 0.86507 0.0
C874 C 0.31744 0.7776 0.94277 0.0
H875 H 0.2927 0.76026 0.76199 0.0
H876 H 0.33879 0.80477 0.83917 0.0
C877 C 0.29219 0.74632 0.97524 0.0
C878 C 0.5725 0.25677 0.23159 0.0
C879 C 0.56446 0.25591 0.15547 0.0
H880 H 0.57314 0.27911 0.33761 0.0
C881 C 0.56193 0.28368 0.12446 0.0
H882 H 0.57452 0.23557 0.25692 0.0
C883 C 0.56204 0.30895 0.17052 0.0
C884 C 0.56411 0.30633 0.24794 0.0
H885 H 0.55595 0.28368 0.06597 0.0
H886 H 0.55576 0.32769 0.14651 0.0
C887 C 0.57199 0.28182 0.27795 0.0
C888 C 0.46555 0.56186 0.26588 0.0
C889 C 0.44351 0.54198 0.32404 0.0
H890 H 0.51194 0.60906 0.23485 0.0
C891 C 0.45484 0.55264 0.39769 0.0
H892 H 0.45796 0.55438 0.20868 0.0
C893 C 0.48617 0.58332 0.41286 0.0
C894 C 0.50661 0.60494 0.35486 0.0
H895 H 0.43878 0.53807 0.44421 0.0
H896 H 0.49311 0.59109 0.47014 0.0
C897 C 0.49655 0.59324 0.28109 0.0
C898 C 0.91659 0.48175 0.76135 0.0
C899 C 0.91582 0.50182 0.70137 0.0
H900 H 0.91247 0.43354 0.79697 0.0
C901 C 0.91541 0.48984 0.62873 0.0
H902 H 0.91763 0.49031 0.81789 0.0
C903 C 0.91353 0.45763 0.6166 0.0
C904 C 0.91109 0.43616 0.67672 0.0
H905 H 0.9153 0.5048 0.581 0.0
H906 H 0.91207 0.44882 0.56011 0.0
C907 C 0.9137 0.44911 0.74924 0.0
C908 C 0.48486 0.90972 0.95482 0.0
C909 C 0.50494 0.90771 1.01339 0.0
H910 H 0.43812 0.90957 0.92253 0.0
C911 C 0.49485 0.90909 0.0868 0.0
H912 H 0.49197 0.90928 0.89774 0.0
C913 C 0.46437 0.91024 0.10118 0.0
C914 C 0.44265 0.90908 0.04263 0.0
H915 H 0.50993 0.90812 0.13349 0.0
H916 H 0.45701 0.91016 0.15827 0.0
C917 C 0.45389 0.90993 0.96921 0.0
C918 C 0.5949 0.47305 0.2677 0.0
C919 C 0.61406 0.49456 0.32762 0.0
H920 H 0.55199 0.42381 0.23286 0.0
C921 C 0.60083 0.4841 0.39985 0.0
H922 H 0.60398 0.48028 0.21142 0.0
C923 C 0.57048 0.45198 0.41219 0.0
C924 C 0.55309 0.42903 0.35285 0.0
H925 H 0.61467 0.5002 0.44737 0.0
H926 H 0.56175 0.4445 0.46867 0.0
C927 C 0.56503 0.4405 0.28018 0.0
C928 C 0.13335 0.58658 0.64341 0.0
C929 C 0.13588 0.60881 0.70141 0.0
H930 H 0.13295 0.53996 0.61208 0.0
C931 C 0.1341 0.5971 0.77521 0.0
H932 H 0.13418 0.59435 0.58612 0.0
C933 C 0.13229 0.56505 0.79042 0.0
C934 C 0.13312 0.54444 0.73224 0.0
H935 H 0.13551 0.61336 0.82146 0.0
H936 H 0.13238 0.55757 0.84762 0.0
C937 C 0.13253 0.55514 0.65858 0.0
C938 C 0.60436 0.12597 0.95713 0.0
C939 C 0.61598 0.12602 0.03023 0.0
H940 H 0.56568 0.12705 0.88713 0.0
C941 C 0.59406 0.12279 0.08935 0.0
H942 H 0.62027 0.12782 0.91005 0.0
C943 C 0.56313 0.12329 0.07611 0.0
C944 C 0.55286 0.12595 1.00327 0.0
H945 H 0.60167 0.12197 0.14614 0.0
H946 H 0.54799 0.12305 0.12326 0.0
C947 C 0.57293 0.12548 0.94382 0.0
loop_
_geom_bond_atom_site_label_1
_geom_bond_atom_site_label_2
_geom_bond_distance
_geom_bond_site_symmetry_2
_ccdc_geom_bond_type
Co0 O2 2.143 . S
Co0 O8 2.074 . S
Co0 O11 2.093 . S
Co0 O24 2.097 . S
Co0 N41 2.151 . S
Co0 N49 2.214 . S
Co1 O2 2.160 . S
Co1 O7 2.058 . S
Co1 O17 2.057 . S
Co1 O32 2.037 . S
Co1 N36 2.145 . S
Co1 N57 2.257 . S
O2 Co0 2.143 . S
O2 Co1 2.160 . S
C3 O4 1.278 . S
C3 O11 1.224 . S
O4 C3 1.278 . S
C5 O6 1.245 . S
C5 O17 1.232 . S
O6 C5 1.245 . S
O7 Co1 2.058 . S
O7 C33 1.269 . S
O8 Co0 2.074 . S
O8 C33 1.257 . S
H9 C34 0.930 . S
H10 C40 0.930 . S
O11 Co0 2.093 . S
O11 C3 1.224 . S
H12 C44 0.929 . S
H13 C46 0.930 . S
H14 C47 0.930 . S
H15 C45 0.929 . S
H16 C48 0.928 . S
O17 Co1 2.057 . S
O17 C5 1.232 . S
H18 C37 0.929 . S
H19 C38 0.929 . S
H20 C50 0.931 . S
H21 C42 0.929 . S
H22 C51 0.930 . S
H23 C43 0.931 . S
O24 Co0 2.097 . S
O24 C52 1.214 . S
H25 C53 0.929 . S
H26 C54 0.929 . S
H27 C55 0.930 . S
H28 C56 0.929 . S
H29 C58 0.930 . S
H30 C35 0.930 . S
H31 C39 0.930 . S
O32 Co1 2.037 . S
O32 C52 1.234 . S
C33 O7 1.269 . S
C33 O8 1.257 . S
C34 H9 0.930 . S
C34 C37 1.388 . S
C34 C39 1.418 1_554 S
C35 H30 0.930 . S
C35 C38 1.404 1_556 S
C35 C39 1.353 . S
N36 Co1 2.145 . S
N36 C37 1.397 . S
N36 C38 1.334 . S
C37 H18 0.929 . S
C37 C34 1.388 . S
C37 N36 1.397 . S
C38 H19 0.929 . S
C38 C35 1.404 1_554 S
C38 N36 1.334 . S
C39 H31 0.930 . S
C39 C34 1.418 1_556 S
C39 C35 1.353 . S
C40 H10 0.930 . S
C40 N41 1.330 . S
C40 C42 1.446 . S
N41 Co0 2.151 . S
N41 C40 1.330 . S
N41 C45 1.418 . S
C42 H21 0.929 . S
C42 C40 1.446 . S
C42 C43 1.332 . S
C43 H23 0.931 . S
C43 C42 1.332 . S
C43 C44 1.267 . S
C44 H12 0.929 . S
C44 C43 1.267 . S
C44 C45 1.251 . S
C45 H15 0.929 . S
C45 N41 1.418 . S
C45 C44 1.251 . S
C46 H13 0.930 . S
C46 C48 1.406 . S
C46 C51 1.261 . S
C47 H14 0.930 . S
C47 N49 1.325 . S
C47 C50 1.357 . S
C48 H16 0.928 . S
C48 C46 1.406 . S
C48 N49 1.261 . S
N49 Co0 2.214 . S
N49 C47 1.325 . S
N49 C48 1.261 . S
C50 H20 0.931 . S
C50 C47 1.357 . S
C50 C51 1.312 . S
C51 H22 0.930 . S
C51 C46 1.261 . S
C51 C50 1.312 . S
C52 O24 1.214 . S
C52 O32 1.234 . S
C53 H25 0.929 . S
C53 C56 1.391 . S
C53 C58 1.391 . S
C54 H26 0.929 . S
C54 C55 1.390 . S
C54 N57 1.391 . S
C55 H27 0.930 . S
C55 C54 1.390 . S
C55 C56 1.392 . S
C56 H28 0.929 . S
C56 C53 1.391 . S
C56 C55 1.392 . S
N57 Co1 2.257 . S
N57 C54 1.391 . S
N57 C58 1.388 . S
C58 H29 0.930 . S
C58 C53 1.391 . S
C58 N57 1.388 . S
Co59 O61 2.143 . S
Co59 O67 2.074 . S
Co59 O70 2.093 . S
Co59 O83 2.097 . S
Co59 N100 2.151 . S
Co59 N108 2.214 . S
Co60 O61 2.160 . S
Co60 O66 2.058 . S
Co60 O76 2.057 . S
Co60 O91 2.037 . S
Co60 N95 2.145 . S
Co60 N116 2.257 . S
O61 Co59 2.143 . S
O61 Co60 2.160 . S
C62 O63 1.278 . S
C62 O70 1.224 . S
O63 C62 1.278 . S
C64 O65 1.245 . S
C64 O76 1.232 . S
O65 C64 1.245 . S
O66 Co60 2.058 . S
O66 C92 1.269 . S
O67 Co59 2.074 . S
O67 C92 1.257 . S
H68 C93 0.930 . S
H69 C99 0.930 . S
O70 Co59 2.093 . S
O70 C62 1.224 . S
H71 C103 0.929 . S
H72 C105 0.930 . S
H73 C106 0.930 . S
H74 C104 0.929 . S
H75 C107 0.928 . S
O76 Co60 2.057 . S
O76 C64 1.232 . S
H77 C96 0.929 . S
H78 C97 0.929 . S
H79 C109 0.931 . S
H80 C101 0.929 . S
H81 C110 0.930 . S
H82 C102 0.931 . S
O83 Co59 2.097 . S
O83 C111 1.214 . S
H84 C112 0.929 . S
H85 C113 0.929 . S
H86 C114 0.930 . S
H87 C115 0.929 . S
H88 C117 0.930 . S
H89 C94 0.930 . S
H90 C98 0.930 . S
O91 Co60 2.037 . S
O91 C111 1.234 . S
C92 O66 1.269 . S
C92 O67 1.257 . S
C93 H68 0.930 . S
C93 C96 1.388 . S
C93 C98 1.418 . S
C94 H89 0.930 . S
C94 C97 1.404 . S
C94 C98 1.353 . S
N95 Co60 2.145 . S
N95 C96 1.397 . S
N95 C97 1.334 . S
C96 H77 0.929 . S
C96 C93 1.388 . S
C96 N95 1.397 . S
C97 H78 0.929 . S
C97 C94 1.404 . S
C97 N95 1.334 . S
C98 H90 0.930 . S
C98 C93 1.418 . S
C98 C94 1.353 . S
C99 H69 0.930 . S
C99 N100 1.330 . S
C99 C101 1.446 . S
N100 Co59 2.151 . S
N100 C99 1.330 . S
N100 C104 1.418 . S
C101 H80 0.929 . S
C101 C99 1.446 . S
C101 C102 1.332 . S
C102 H82 0.931 . S
C102 C101 1.332 . S
C102 C103 1.267 . S
C103 H71 0.929 . S
C103 C102 1.267 . S
C103 C104 1.251 . S
C104 H74 0.929 . S
C104 N100 1.418 . S
C104 C103 1.251 . S
C105 H72 0.930 . S
C105 C107 1.406 . S
C105 C110 1.261 . S
C106 H73 0.930 . S
C106 N108 1.325 . S
C106 C109 1.357 . S
C107 H75 0.928 . S
C107 C105 1.406 . S
C107 N108 1.261 . S
N108 Co59 2.214 . S
N108 C106 1.325 . S
N108 C107 1.261 . S
C109 H79 0.931 . S
C109 C106 1.357 . S
C109 C110 1.312 . S
C110 H81 0.930 . S
C110 C105 1.261 . S
C110 C109 1.312 . S
C111 O83 1.214 . S
C111 O91 1.234 . S
C112 H84 0.929 . S
C112 C115 1.391 . S
C112 C117 1.391 . S
C113 H85 0.929 . S
C113 C114 1.390 . S
C113 N116 1.391 . S
C114 H86 0.930 . S
C114 C113 1.390 . S
C114 C115 1.392 . S
C115 H87 0.929 . S
C115 C112 1.391 . S
C115 C114 1.392 . S
N116 Co60 2.257 . S
N116 C113 1.391 . S
N116 C117 1.388 . S
C117 H88 0.930 . S
C117 C112 1.391 . S
C117 N116 1.388 . S
Co118 O120 2.143 1_554 S
Co118 O126 2.074 1_554 S
Co118 O129 2.093 . S
Co118 O142 2.097 . S
Co118 N159 2.151 . S
Co118 N167 2.214 . S
Co119 O120 2.160 . S
Co119 O125 2.058 . S
Co119 O135 2.057 . S
Co119 O150 2.037 . S
Co119 N154 2.145 . S
Co119 N175 2.257 . S
O120 Co118 2.143 1_556 S
O120 Co119 2.160 . S
C121 O122 1.278 . S
C121 O129 1.224 . S
O122 C121 1.278 . S
C123 O124 1.245 . S
C123 O135 1.232 . S
O124 C123 1.245 . S
O125 Co119 2.058 . S
O125 C151 1.269 . S
O126 Co118 2.074 1_556 S
O126 C151 1.257 . S
H127 C152 0.930 . S
H128 C158 0.930 . S
O129 Co118 2.093 . S
O129 C121 1.224 . S
H130 C162 0.929 . S
H131 C164 0.930 . S
H132 C165 0.930 . S
H133 C163 0.929 . S
H134 C166 0.928 . S
O135 Co119 2.057 . S
O135 C123 1.232 . S
H136 C155 0.929 . S
H137 C156 0.929 . S
H138 C168 0.931 . S
H139 C160 0.929 . S
H140 C169 0.930 . S
H141 C161 0.931 . S
O142 Co118 2.097 . S
O142 C170 1.214 1_554 S
H143 C171 0.929 . S
H144 C172 0.929 . S
H145 C173 0.930 . S
H146 C174 0.929 . S
H147 C176 0.930 . S
H148 C153 0.930 . S
H149 C157 0.930 . S
O150 Co119 2.037 . S
O150 C170 1.234 . S
C151 O125 1.269 . S
C151 O126 1.257 . S
C152 H127 0.930 . S
C152 C155 1.388 . S
C152 C157 1.418 . S
C153 H148 0.930 . S
C153 C156 1.404 . S
C153 C157 1.353 . S
N154 Co119 2.145 . S
N154 C155 1.397 . S
N154 C156 1.334 . S
C155 H136 0.929 . S
C155 C152 1.388 . S
C155 N154 1.397 . S
C156 H137 0.929 . S
C156 C153 1.404 . S
C156 N154 1.334 . S
C157 H149 0.930 . S
C157 C152 1.418 . S
C157 C153 1.353 . S
C158 H128 0.930 . S
C158 N159 1.330 . S
C158 C160 1.446 . S
N159 Co118 2.151 . S
N159 C158 1.330 . S
N159 C163 1.418 . S
C160 H139 0.929 . S
C160 C158 1.446 . S
C160 C161 1.332 . S
C161 H141 0.931 . S
C161 C160 1.332 . S
C161 C162 1.267 . S
C162 H130 0.929 . S
C162 C161 1.267 . S
C162 C163 1.251 . S
C163 H133 0.929 . S
C163 N159 1.418 . S
C163 C162 1.251 . S
C164 H131 0.930 . S
C164 C166 1.406 . S
C164 C169 1.261 . S
C165 H132 0.930 . S
C165 N167 1.325 . S
C165 C168 1.357 . S
C166 H134 0.928 . S
C166 C164 1.406 . S
C166 N167 1.261 . S
N167 Co118 2.214 . S
N167 C165 1.325 . S
N167 C166 1.261 . S
C168 H138 0.931 . S
C168 C165 1.357 . S
C168 C169 1.312 . S
C169 H140 0.930 . S
C169 C164 1.261 . S
C169 C168 1.312 . S
C170 O142 1.214 1_556 S
C170 O150 1.234 . S
C171 H143 0.929 . S
C171 C174 1.391 . S
C171 C176 1.391 . S
C172 H144 0.929 . S
C172 C173 1.390 . S
C172 N175 1.391 . S
C173 H145 0.930 . S
C173 C172 1.390 . S
C173 C174 1.392 . S
C174 H146 0.929 . S
C174 C171 1.391 . S
C174 C173 1.392 . S
N175 Co119 2.257 . S
N175 C172 1.391 . S
N175 C176 1.388 . S
C176 H147 0.930 . S
C176 C171 1.391 . S
C176 N175 1.388 . S
Co177 O179 2.143 . S
Co177 O185 2.074 . S
Co177 O188 2.093 . S
Co177 O201 2.097 . S
Co177 N218 2.151 . S
Co177 N226 2.214 . S
Co178 O179 2.160 . S
Co178 O184 2.058 . S
Co178 O194 2.057 . S
Co178 O209 2.037 . S
Co178 N213 2.145 . S
Co178 N234 2.257 . S
O179 Co177 2.143 . S
O179 Co178 2.160 . S
C180 O181 1.278 . S
C180 O188 1.224 . S
O181 C180 1.278 . S
C182 O183 1.245 . S
C182 O194 1.232 . S
O183 C182 1.245 . S
O184 Co178 2.058 . S
O184 C210 1.269 . S
O185 Co177 2.074 . S
O185 C210 1.257 . S
H186 C211 0.930 . S
H187 C217 0.930 . S
O188 Co177 2.093 . S
O188 C180 1.224 . S
H189 C221 0.929 . S
H190 C223 0.930 . S
H191 C224 0.930 . S
H192 C222 0.929 . S
H193 C225 0.928 . S
O194 Co178 2.057 . S
O194 C182 1.232 . S
H195 C214 0.929 . S
H196 C215 0.929 . S
H197 C227 0.931 . S
H198 C219 0.929 . S
H199 C228 0.930 . S
H200 C220 0.931 . S
O201 Co177 2.097 . S
O201 C229 1.214 . S
H202 C230 0.929 . S
H203 C231 0.929 . S
H204 C232 0.930 . S
H205 C233 0.929 . S
H206 C235 0.930 . S
H207 C212 0.930 . S
H208 C216 0.930 . S
O209 Co178 2.037 . S
O209 C229 1.234 . S
C210 O184 1.269 . S
C210 O185 1.257 . S
C211 H186 0.930 . S
C211 C214 1.388 . S
C211 C216 1.418 1_554 S
C212 H207 0.930 . S
C212 C215 1.404 1_556 S
C212 C216 1.353 . S
N213 Co178 2.145 . S
N213 C214 1.397 . S
N213 C215 1.334 . S
C214 H195 0.929 . S
C214 C211 1.388 . S
C214 N213 1.397 . S
C215 H196 0.929 . S
C215 C212 1.404 1_554 S
C215 N213 1.334 . S
C216 H208 0.930 . S
C216 C211 1.418 1_556 S
C216 C212 1.353 . S
C217 H187 0.930 . S
C217 N218 1.330 . S
C217 C219 1.446 . S
N218 Co177 2.151 . S
N218 C217 1.330 . S
N218 C222 1.418 . S
C219 H198 0.929 . S
C219 C217 1.446 . S
C219 C220 1.332 . S
C220 H200 0.931 . S
C220 C219 1.332 . S
C220 C221 1.267 . S
C221 H189 0.929 . S
C221 C220 1.267 . S
C221 C222 1.251 . S
C222 H192 0.929 . S
C222 N218 1.418 . S
C222 C221 1.251 . S
C223 H190 0.930 . S
C223 C225 1.406 . S
C223 C228 1.261 . S
C224 H191 0.930 . S
C224 N226 1.325 . S
C224 C227 1.357 . S
C225 H193 0.928 . S
C225 C223 1.406 . S
C225 N226 1.261 . S
N226 Co177 2.214 . S
N226 C224 1.325 . S
N226 C225 1.261 . S
C227 H197 0.931 . S
C227 C224 1.357 . S
C227 C228 1.312 . S
C228 H199 0.930 . S
C228 C223 1.261 . S
C228 C227 1.312 . S
C229 O201 1.214 . S
C229 O209 1.234 . S
C230 H202 0.929 . S
C230 C233 1.391 . S
C230 C235 1.391 . S
C231 H203 0.929 . S
C231 C232 1.390 . S
C231 N234 1.391 . S
C232 H204 0.930 . S
C232 C231 1.390 . S
C232 C233 1.392 . S
C233 H205 0.929 . S
C233 C230 1.391 . S
C233 C232 1.392 . S
N234 Co178 2.257 . S
N234 C231 1.391 . S
N234 C235 1.388 . S
C235 H206 0.930 . S
C235 C230 1.391 . S
C235 N234 1.388 . S
Co236 O238 2.143 . S
Co236 O244 2.074 . S
Co236 O247 2.093 . S
Co236 O260 2.097 . S
Co236 N277 2.151 . S
Co236 N285 2.214 . S
Co237 O238 2.160 . S
Co237 O243 2.058 . S
Co237 O253 2.057 . S
Co237 O268 2.037 . S
Co237 N272 2.145 . S
Co237 N293 2.257 . S
O238 Co236 2.143 . S
O238 Co237 2.160 . S
C239 O240 1.278 . S
C239 O247 1.224 . S
O240 C239 1.278 . S
C241 O242 1.245 . S
C241 O253 1.232 . S
O242 C241 1.245 . S
O243 Co237 2.058 . S
O243 C269 1.269 . S
O244 Co236 2.074 . S
O244 C269 1.257 . S
H245 C270 0.930 . S
H246 C276 0.930 . S
O247 Co236 2.093 . S
O247 C239 1.224 . S
H248 C280 0.929 . S
H249 C282 0.930 . S
H250 C283 0.930 . S
H251 C281 0.929 . S
H252 C284 0.928 . S
O253 Co237 2.057 . S
O253 C241 1.232 . S
H254 C273 0.929 . S
H255 C274 0.929 . S
H256 C286 0.931 . S
H257 C278 0.929 . S
H258 C287 0.930 . S
H259 C279 0.931 . S
O260 Co236 2.097 . S
O260 C288 1.214 . S
H261 C289 0.929 . S
H262 C290 0.929 . S
H263 C291 0.930 . S
H264 C292 0.929 . S
H265 C294 0.930 . S
H266 C271 0.930 . S
H267 C275 0.930 . S
O268 Co237 2.037 . S
O268 C288 1.234 . S
C269 O243 1.269 . S
C269 O244 1.257 . S
C270 H245 0.930 . S
C270 C273 1.388 . S
C270 C275 1.418 . S
C271 H266 0.930 . S
C271 C274 1.404 . S
C271 C275 1.353 . S
N272 Co237 2.145 . S
N272 C273 1.397 . S
N272 C274 1.334 . S
C273 H254 0.929 . S
C273 C270 1.388 . S
C273 N272 1.397 . S
C274 H255 0.929 . S
C274 C271 1.404 . S
C274 N272 1.334 . S
C275 H267 0.930 . S
C275 C270 1.418 . S
C275 C271 1.353 . S
C276 H246 0.930 . S
C276 N277 1.330 . S
C276 C278 1.446 . S
N277 Co236 2.151 . S
N277 C276 1.330 . S
N277 C281 1.418 . S
C278 H257 0.929 . S
C278 C276 1.446 . S
C278 C279 1.332 . S
C279 H259 0.931 . S
C279 C278 1.332 . S
C279 C280 1.267 . S
C280 H248 0.929 . S
C280 C279 1.267 . S
C280 C281 1.251 . S
C281 H251 0.929 . S
C281 N277 1.418 . S
C281 C280 1.251 . S
C282 H249 0.930 . S
C282 C284 1.406 . S
C282 C287 1.261 . S
C283 H250 0.930 . S
C283 N285 1.325 . S
C283 C286 1.357 . S
C284 H252 0.928 . S
C284 C282 1.406 . S
C284 N285 1.261 . S
N285 Co236 2.214 . S
N285 C283 1.325 . S
N285 C284 1.261 . S
C286 H256 0.931 . S
C286 C283 1.357 . S
C286 C287 1.312 . S
C287 H258 0.930 . S
C287 C282 1.261 . S
C287 C286 1.312 . S
C288 O260 1.214 . S
C288 O268 1.234 . S
C289 H261 0.929 . S
C289 C292 1.391 . S
C289 C294 1.391 . S
C290 H262 0.929 . S
C290 C291 1.390 . S
C290 N293 1.391 . S
C291 H263 0.930 . S
C291 C290 1.390 . S
C291 C292 1.392 . S
C292 H264 0.929 . S
C292 C289 1.391 . S
C292 C291 1.392 . S
N293 Co237 2.257 . S
N293 C290 1.391 . S
N293 C294 1.388 . S
C294 H265 0.930 . S
C294 C289 1.391 . S
C294 N293 1.388 . S
Co295 O297 2.143 1_554 S
Co295 O303 2.074 1_554 S
Co295 O306 2.093 . S
Co295 O319 2.097 . S
Co295 N336 2.151 . S
Co295 N344 2.214 . S
Co296 O297 2.160 . S
Co296 O302 2.058 . S
Co296 O312 2.057 . S
Co296 O327 2.037 . S
Co296 N331 2.145 . S
Co296 N352 2.257 . S
O297 Co295 2.143 1_556 S
O297 Co296 2.160 . S
C298 O299 1.278 . S
C298 O306 1.224 . S
O299 C298 1.278 . S
C300 O301 1.245 . S
C300 O312 1.232 . S
O301 C300 1.245 . S
O302 Co296 2.058 . S
O302 C328 1.269 . S
O303 Co295 2.074 1_556 S
O303 C328 1.257 . S
H304 C329 0.930 . S
H305 C335 0.930 . S
O306 Co295 2.093 . S
O306 C298 1.224 . S
H307 C339 0.929 . S
H308 C341 0.930 . S
H309 C342 0.930 . S
H310 C340 0.929 . S
H311 C343 0.928 . S
O312 Co296 2.057 . S
O312 C300 1.232 . S
H313 C332 0.929 . S
H314 C333 0.929 . S
H315 C345 0.931 . S
H316 C337 0.929 . S
H317 C346 0.930 . S
H318 C338 0.931 . S
O319 Co295 2.097 . S
O319 C347 1.214 1_554 S
H320 C348 0.929 . S
H321 C349 0.929 . S
H322 C350 0.930 . S
H323 C351 0.929 . S
H324 C353 0.930 . S
H325 C330 0.930 . S
H326 C334 0.930 . S
O327 Co296 2.037 . S
O327 C347 1.234 . S
C328 O302 1.269 . S
C328 O303 1.257 . S
C329 H304 0.930 . S
C329 C332 1.388 . S
C329 C334 1.418 . S
C330 H325 0.930 . S
C330 C333 1.404 . S
C330 C334 1.353 . S
N331 Co296 2.145 . S
N331 C332 1.397 . S
N331 C333 1.334 . S
C332 H313 0.929 . S
C332 C329 1.388 . S
C332 N331 1.397 . S
C333 H314 0.929 . S
C333 C330 1.404 . S
C333 N331 1.334 . S
C334 H326 0.930 . S
C334 C329 1.418 . S
C334 C330 1.353 . S
C335 H305 0.930 . S
C335 N336 1.330 . S
C335 C337 1.446 . S
N336 Co295 2.151 . S
N336 C335 1.330 . S
N336 C340 1.418 . S
C337 H316 0.929 . S
C337 C335 1.446 . S
C337 C338 1.332 . S
C338 H318 0.931 . S
C338 C337 1.332 . S
C338 C339 1.267 . S
C339 H307 0.929 . S
C339 C338 1.267 . S
C339 C340 1.251 . S
C340 H310 0.929 . S
C340 N336 1.418 . S
C340 C339 1.251 . S
C341 H308 0.930 . S
C341 C343 1.406 . S
C341 C346 1.261 . S
C342 H309 0.930 . S
C342 N344 1.325 . S
C342 C345 1.357 . S
C343 H311 0.928 . S
C343 C341 1.406 . S
C343 N344 1.261 . S
N344 Co295 2.214 . S
N344 C342 1.325 . S
N344 C343 1.261 . S
C345 H315 0.931 . S
C345 C342 1.357 . S
C345 C346 1.312 . S
C346 H317 0.930 . S
C346 C341 1.261 . S
C346 C345 1.312 . S
C347 O319 1.214 1_556 S
C347 O327 1.234 . S
C348 H320 0.929 . S
C348 C351 1.391 . S
C348 C353 1.391 . S
C349 H321 0.929 . S
C349 C350 1.390 . S
C349 N352 1.391 . S
C350 H322 0.930 . S
C350 C349 1.390 . S
C350 C351 1.392 . S
C351 H323 0.929 . S
C351 C348 1.391 . S
C351 C350 1.392 . S
N352 Co296 2.257 . S
N352 C349 1.391 . S
N352 C353 1.388 . S
C353 H324 0.930 . S
C353 C348 1.391 . S
C353 N352 1.388 . S
Co354 O356 2.143 . S
Co354 O362 2.074 . S
Co354 O365 2.093 . S
Co354 O378 2.097 . S
Co354 N395 2.151 . S
Co354 N403 2.214 . S
Co355 O356 2.160 . S
Co355 O361 2.058 . S
Co355 O371 2.057 . S
Co355 O386 2.037 . S
Co355 N390 2.145 . S
Co355 N411 2.257 . S
O356 Co354 2.143 . S
O356 Co355 2.160 . S
C357 O358 1.278 . S
C357 O365 1.224 . S
O358 C357 1.278 . S
C359 O360 1.245 . S
C359 O371 1.232 . S
O360 C359 1.245 . S
O361 Co355 2.058 . S
O361 C387 1.269 . S
O362 Co354 2.074 . S
O362 C387 1.257 . S
H363 C388 0.930 . S
H364 C394 0.930 . S
O365 Co354 2.093 . S
O365 C357 1.224 . S
H366 C398 0.929 . S
H367 C400 0.930 . S
H368 C401 0.930 . S
H369 C399 0.929 . S
H370 C402 0.928 . S
O371 Co355 2.057 . S
O371 C359 1.232 . S
H372 C391 0.929 . S
H373 C392 0.929 . S
H374 C404 0.931 . S
H375 C396 0.929 . S
H376 C405 0.930 . S
H377 C397 0.931 . S
O378 Co354 2.097 . S
O378 C406 1.214 . S
H379 C407 0.929 . S
H380 C408 0.929 . S
H381 C409 0.930 . S
H382 C410 0.929 . S
H383 C412 0.930 . S
H384 C389 0.930 . S
H385 C393 0.930 . S
O386 Co355 2.037 . S
O386 C406 1.234 . S
C387 O361 1.269 . S
C387 O362 1.257 . S
C388 H363 0.930 . S
C388 C391 1.388 . S
C388 C393 1.418 . S
C389 H384 0.930 . S
C389 C392 1.404 . S
C389 C393 1.353 . S
N390 Co355 2.145 . S
N390 C391 1.397 . S
N390 C392 1.334 . S
C391 H372 0.929 . S
C391 C388 1.388 . S
C391 N390 1.397 . S
C392 H373 0.929 . S
C392 C389 1.404 . S
C392 N390 1.334 . S
C393 H385 0.930 . S
C393 C388 1.418 . S
C393 C389 1.353 . S
C394 H364 0.930 . S
C394 N395 1.330 . S
C394 C396 1.446 . S
N395 Co354 2.151 . S
N395 C394 1.330 . S
N395 C399 1.418 . S
C396 H375 0.929 . S
C396 C394 1.446 . S
C396 C397 1.332 . S
C397 H377 0.931 . S
C397 C396 1.332 . S
C397 C398 1.267 . S
C398 H366 0.929 . S
C398 C397 1.267 . S
C398 C399 1.251 . S
C399 H369 0.929 . S
C399 N395 1.418 . S
C399 C398 1.251 . S
C400 H367 0.930 . S
C400 C402 1.406 . S
C400 C405 1.261 . S
C401 H368 0.930 . S
C401 N403 1.325 . S
C401 C404 1.357 . S
C402 H370 0.928 . S
C402 C400 1.406 . S
C402 N403 1.261 . S
N403 Co354 2.214 . S
N403 C401 1.325 . S
N403 C402 1.261 . S
C404 H374 0.931 . S
C404 C401 1.357 . S
C404 C405 1.312 . S
C405 H376 0.930 . S
C405 C400 1.261 . S
C405 C404 1.312 . S
C406 O378 1.214 . S
C406 O386 1.234 . S
C407 H379 0.929 . S
C407 C410 1.391 . S
C407 C412 1.391 . S
C408 H380 0.929 . S
C408 C409 1.390 . S
C408 N411 1.391 . S
C409 H381 0.930 . S
C409 C408 1.390 . S
C409 C410 1.392 . S
C410 H382 0.929 . S
C410 C407 1.391 . S
C410 C409 1.392 . S
N411 Co355 2.257 . S
N411 C408 1.391 . S
N411 C412 1.388 . S
C412 H383 0.930 . S
C412 C407 1.391 . S
C412 N411 1.388 . S
Co413 O415 2.143 . S
Co413 O421 2.074 . S
Co413 O424 2.093 . S
Co413 O437 2.097 . S
Co413 N454 2.151 . S
Co413 N462 2.214 . S
Co414 O415 2.160 . S
Co414 O420 2.058 . S
Co414 O430 2.057 . S
Co414 O445 2.037 . S
Co414 N449 2.145 . S
Co414 N470 2.257 . S
O415 Co413 2.143 . S
O415 Co414 2.160 . S
C416 O417 1.278 . S
C416 O424 1.224 . S
O417 C416 1.278 . S
C418 O419 1.245 . S
C418 O430 1.232 . S
O419 C418 1.245 . S
O420 Co414 2.058 . S
O420 C446 1.269 . S
O421 Co413 2.074 . S
O421 C446 1.257 . S
H422 C447 0.930 . S
H423 C453 0.930 . S
O424 Co413 2.093 . S
O424 C416 1.224 . S
H425 C457 0.929 . S
H426 C459 0.930 . S
H427 C460 0.930 . S
H428 C458 0.929 . S
H429 C461 0.928 . S
O430 Co414 2.057 . S
O430 C418 1.232 . S
H431 C450 0.929 . S
H432 C451 0.929 . S
H433 C463 0.931 . S
H434 C455 0.929 . S
H435 C464 0.930 . S
H436 C456 0.931 . S
O437 Co413 2.097 . S
O437 C465 1.214 . S
H438 C466 0.929 . S
H439 C467 0.929 . S
H440 C468 0.930 . S
H441 C469 0.929 . S
H442 C471 0.930 . S
H443 C448 0.930 . S
H444 C452 0.930 . S
O445 Co414 2.037 . S
O445 C465 1.234 . S
C446 O420 1.269 . S
C446 O421 1.257 . S
C447 H422 0.930 . S
C447 C450 1.388 . S
C447 C452 1.418 1_556 S
C448 H443 0.930 . S
C448 C451 1.404 1_554 S
C448 C452 1.353 . S
N449 Co414 2.145 . S
N449 C450 1.397 . S
N449 C451 1.334 . S
C450 H431 0.929 . S
C450 C447 1.388 . S
C450 N449 1.397 . S
C451 H432 0.929 . S
C451 C448 1.404 1_556 S
C451 N449 1.334 . S
C452 H444 0.930 . S
C452 C447 1.418 1_554 S
C452 C448 1.353 . S
C453 H423 0.930 . S
C453 N454 1.330 . S
C453 C455 1.446 . S
N454 Co413 2.151 . S
N454 C453 1.330 . S
N454 C458 1.418 . S
C455 H434 0.929 . S
C455 C453 1.446 . S
C455 C456 1.332 . S
C456 H436 0.931 . S
C456 C455 1.332 . S
C456 C457 1.267 . S
C457 H425 0.929 . S
C457 C456 1.267 . S
C457 C458 1.251 . S
C458 H428 0.929 . S
C458 N454 1.418 . S
C458 C457 1.251 . S
C459 H426 0.930 . S
C459 C461 1.406 . S
C459 C464 1.261 . S
C460 H427 0.930 . S
C460 N462 1.325 . S
C460 C463 1.357 . S
C461 H429 0.928 . S
C461 C459 1.406 . S
C461 N462 1.261 . S
N462 Co413 2.214 . S
N462 C460 1.325 . S
N462 C461 1.261 . S
C463 H433 0.931 . S
C463 C460 1.357 . S
C463 C464 1.312 . S
C464 H435 0.930 . S
C464 C459 1.261 . S
C464 C463 1.312 . S
C465 O437 1.214 . S
C465 O445 1.234 . S
C466 H438 0.929 . S
C466 C469 1.391 . S
C466 C471 1.391 . S
C467 H439 0.929 . S
C467 C468 1.390 . S
C467 N470 1.391 . S
C468 H440 0.930 . S
C468 C467 1.390 . S
C468 C469 1.392 . S
C469 H441 0.929 . S
C469 C466 1.391 . S
C469 C468 1.392 . S
N470 Co414 2.257 . S
N470 C467 1.391 . S
N470 C471 1.388 . S
C471 H442 0.930 . S
C471 C466 1.391 . S
C471 N470 1.388 . S
Co472 O474 2.143 1_556 S
Co472 O480 2.074 1_556 S
Co472 O483 2.093 . S
Co472 O496 2.097 . S
Co472 N513 2.151 . S
Co472 N521 2.214 . S
Co473 O474 2.160 . S
Co473 O479 2.058 . S
Co473 O489 2.057 . S
Co473 O504 2.037 . S
Co473 N508 2.145 . S
Co473 N529 2.257 . S
O474 Co472 2.143 1_554 S
O474 Co473 2.160 . S
C475 O476 1.278 . S
C475 O483 1.224 . S
O476 C475 1.278 . S
C477 O478 1.245 . S
C477 O489 1.232 . S
O478 C477 1.245 . S
O479 Co473 2.058 . S
O479 C505 1.269 . S
O480 Co472 2.074 1_554 S
O480 C505 1.257 . S
H481 C506 0.930 . S
H482 C512 0.930 . S
O483 Co472 2.093 . S
O483 C475 1.224 . S
H484 C516 0.929 . S
H485 C518 0.930 . S
H486 C519 0.930 . S
H487 C517 0.929 . S
H488 C520 0.928 . S
O489 Co473 2.057 . S
O489 C477 1.232 . S
H490 C509 0.929 . S
H491 C510 0.929 . S
H492 C522 0.931 . S
H493 C514 0.929 . S
H494 C523 0.930 . S
H495 C515 0.931 . S
O496 Co472 2.097 . S
O496 C524 1.214 1_556 S
H497 C525 0.929 . S
H498 C526 0.929 . S
H499 C527 0.930 . S
H500 C528 0.929 . S
H501 C530 0.930 . S
H502 C507 0.930 . S
H503 C511 0.930 . S
O504 Co473 2.037 . S
O504 C524 1.234 . S
C505 O479 1.269 . S
C505 O480 1.257 . S
C506 H481 0.930 . S
C506 C509 1.388 . S
C506 C511 1.418 . S
C507 H502 0.930 . S
C507 C510 1.404 . S
C507 C511 1.353 . S
N508 Co473 2.145 . S
N508 C509 1.397 . S
N508 C510 1.334 . S
C509 H490 0.929 . S
C509 C506 1.388 . S
C509 N508 1.397 . S
C510 H491 0.929 . S
C510 C507 1.404 . S
C510 N508 1.334 . S
C511 H503 0.930 . S
C511 C506 1.418 . S
C511 C507 1.353 . S
C512 H482 0.930 . S
C512 N513 1.330 . S
C512 C514 1.446 . S
N513 Co472 2.151 . S
N513 C512 1.330 . S
N513 C517 1.418 . S
C514 H493 0.929 . S
C514 C512 1.446 . S
C514 C515 1.332 . S
C515 H495 0.931 . S
C515 C514 1.332 . S
C515 C516 1.267 . S
C516 H484 0.929 . S
C516 C515 1.267 . S
C516 C517 1.251 . S
C517 H487 0.929 . S
C517 N513 1.418 . S
C517 C516 1.251 . S
C518 H485 0.930 . S
C518 C520 1.406 . S
C518 C523 1.261 . S
C519 H486 0.930 . S
C519 N521 1.325 . S
C519 C522 1.357 . S
C520 H488 0.928 . S
C520 C518 1.406 . S
C520 N521 1.261 . S
N521 Co472 2.214 . S
N521 C519 1.325 . S
N521 C520 1.261 . S
C522 H492 0.931 . S
C522 C519 1.357 . S
C522 C523 1.312 . S
C523 H494 0.930 . S
C523 C518 1.261 . S
C523 C522 1.312 . S
C524 O496 1.214 1_554 S
C524 O504 1.234 . S
C525 H497 0.929 . S
C525 C528 1.391 . S
C525 C530 1.391 . S
C526 H498 0.929 . S
C526 C527 1.390 . S
C526 N529 1.391 . S
C527 H499 0.930 . S
C527 C526 1.390 . S
C527 C528 1.392 . S
C528 H500 0.929 . S
C528 C525 1.391 . S
C528 C527 1.392 . S
N529 Co473 2.257 . S
N529 C526 1.391 . S
N529 C530 1.388 . S
C530 H501 0.930 . S
C530 C525 1.391 . S
C530 N529 1.388 . S
Co531 O533 2.143 . S
Co531 O539 2.074 . S
Co531 O542 2.093 . S
Co531 O555 2.097 . S
Co531 N572 2.151 . S
Co531 N580 2.214 . S
Co532 O533 2.160 . S
Co532 O538 2.058 . S
Co532 O548 2.057 . S
Co532 O563 2.037 . S
Co532 N567 2.145 . S
Co532 N588 2.257 . S
O533 Co531 2.143 . S
O533 Co532 2.160 . S
C534 O535 1.278 . S
C534 O542 1.224 . S
O535 C534 1.278 . S
C536 O537 1.245 . S
C536 O548 1.232 . S
O537 C536 1.245 . S
O538 Co532 2.058 . S
O538 C564 1.269 . S
O539 Co531 2.074 . S
O539 C564 1.257 . S
H540 C565 0.930 . S
H541 C571 0.930 . S
O542 Co531 2.093 . S
O542 C534 1.224 . S
H543 C575 0.929 . S
H544 C577 0.930 . S
H545 C578 0.930 . S
H546 C576 0.929 . S
H547 C579 0.928 . S
O548 Co532 2.057 . S
O548 C536 1.232 . S
H549 C568 0.929 . S
H550 C569 0.929 . S
H551 C581 0.931 . S
H552 C573 0.929 . S
H553 C582 0.930 . S
H554 C574 0.931 . S
O555 Co531 2.097 . S
O555 C583 1.214 . S
H556 C584 0.929 . S
H557 C585 0.929 . S
H558 C586 0.930 . S
H559 C587 0.929 . S
H560 C589 0.930 . S
H561 C566 0.930 . S
H562 C570 0.930 . S
O563 Co532 2.037 . S
O563 C583 1.234 . S
C564 O538 1.269 . S
C564 O539 1.257 . S
C565 H540 0.930 . S
C565 C568 1.388 . S
C565 C570 1.418 . S
C566 H561 0.930 . S
C566 C569 1.404 . S
C566 C570 1.353 . S
N567 Co532 2.145 . S
N567 C568 1.397 . S
N567 C569 1.334 . S
C568 H549 0.929 . S
C568 C565 1.388 . S
C568 N567 1.397 . S
C569 H550 0.929 . S
C569 C566 1.404 . S
C569 N567 1.334 . S
C570 H562 0.930 . S
C570 C565 1.418 . S
C570 C566 1.353 . S
C571 H541 0.930 . S
C571 N572 1.330 . S
C571 C573 1.446 . S
N572 Co531 2.151 . S
N572 C571 1.330 . S
N572 C576 1.418 . S
C573 H552 0.929 . S
C573 C571 1.446 . S
C573 C574 1.332 . S
C574 H554 0.931 . S
C574 C573 1.332 . S
C574 C575 1.267 . S
C575 H543 0.929 . S
C575 C574 1.267 . S
C575 C576 1.251 . S
C576 H546 0.929 . S
C576 N572 1.418 . S
C576 C575 1.251 . S
C577 H544 0.930 . S
C577 C579 1.406 . S
C577 C582 1.261 . S
C578 H545 0.930 . S
C578 N580 1.325 . S
C578 C581 1.357 . S
C579 H547 0.928 . S
C579 C577 1.406 . S
C579 N580 1.261 . S
N580 Co531 2.214 . S
N580 C578 1.325 . S
N580 C579 1.261 . S
C581 H551 0.931 . S
C581 C578 1.357 . S
C581 C582 1.312 . S
C582 H553 0.930 . S
C582 C577 1.261 . S
C582 C581 1.312 . S
C583 O555 1.214 . S
C583 O563 1.234 . S
C584 H556 0.929 . S
C584 C587 1.391 . S
C584 C589 1.391 . S
C585 H557 0.929 . S
C585 C586 1.390 . S
C585 N588 1.391 . S
C586 H558 0.930 . S
C586 C585 1.390 . S
C586 C587 1.392 . S
C587 H559 0.929 . S
C587 C584 1.391 . S
C587 C586 1.392 . S
N588 Co532 2.257 . S
N588 C585 1.391 . S
N588 C589 1.388 . S
C589 H560 0.930 . S
C589 C584 1.391 . S
C589 N588 1.388 . S
Co590 O592 2.143 . S
Co590 O598 2.074 . S
Co590 O601 2.093 . S
Co590 O614 2.097 . S
Co590 N631 2.151 . S
Co590 N639 2.214 . S
Co591 O592 2.160 . S
Co591 O597 2.058 . S
Co591 O607 2.057 . S
Co591 O622 2.037 . S
Co591 N626 2.145 . S
Co591 N647 2.257 . S
O592 Co590 2.143 . S
O592 Co591 2.160 . S
C593 O594 1.278 . S
C593 O601 1.224 . S
O594 C593 1.278 . S
C595 O596 1.245 . S
C595 O607 1.232 . S
O596 C595 1.245 . S
O597 Co591 2.058 . S
O597 C623 1.269 . S
O598 Co590 2.074 . S
O598 C623 1.257 . S
H599 C624 0.930 . S
H600 C630 0.930 . S
O601 Co590 2.093 . S
O601 C593 1.224 . S
H602 C634 0.929 . S
H603 C636 0.930 . S
H604 C637 0.930 . S
H605 C635 0.929 . S
H606 C638 0.928 . S
O607 Co591 2.057 . S
O607 C595 1.232 . S
H608 C627 0.929 . S
H609 C628 0.929 . S
H610 C640 0.931 . S
H611 C632 0.929 . S
H612 C641 0.930 . S
H613 C633 0.931 . S
O614 Co590 2.097 . S
O614 C642 1.214 . S
H615 C643 0.929 . S
H616 C644 0.929 . S
H617 C645 0.930 . S
H618 C646 0.929 . S
H619 C648 0.930 . S
H620 C625 0.930 . S
H621 C629 0.930 . S
O622 Co591 2.037 . S
O622 C642 1.234 . S
C623 O597 1.269 . S
C623 O598 1.257 . S
C624 H599 0.930 . S
C624 C627 1.388 . S
C624 C629 1.418 1_556 S
C625 H620 0.930 . S
C625 C628 1.404 1_554 S
C625 C629 1.353 . S
N626 Co591 2.145 . S
N626 C627 1.397 . S
N626 C628 1.334 . S
C627 H608 0.929 . S
C627 C624 1.388 . S
C627 N626 1.397 . S
C628 H609 0.929 . S
C628 C625 1.404 1_556 S
C628 N626 1.334 . S
C629 H621 0.930 . S
C629 C624 1.418 1_554 S
C629 C625 1.353 . S
C630 H600 0.930 . S
C630 N631 1.330 . S
C630 C632 1.446 . S
N631 Co590 2.151 . S
N631 C630 1.330 . S
N631 C635 1.418 . S
C632 H611 0.929 . S
C632 C630 1.446 . S
C632 C633 1.332 . S
C633 H613 0.931 . S
C633 C632 1.332 . S
C633 C634 1.267 . S
C634 H602 0.929 . S
C634 C633 1.267 . S
C634 C635 1.251 . S
C635 H605 0.929 . S
C635 N631 1.418 . S
C635 C634 1.251 . S
C636 H603 0.930 . S
C636 C638 1.406 . S
C636 C641 1.261 . S
C637 H604 0.930 . S
C637 N639 1.325 . S
C637 C640 1.357 . S
C638 H606 0.928 . S
C638 C636 1.406 . S
C638 N639 1.261 . S
N639 Co590 2.214 . S
N639 C637 1.325 . S
N639 C638 1.261 . S
C640 H610 0.931 . S
C640 C637 1.357 . S
C640 C641 1.312 . S
C641 H612 0.930 . S
C641 C636 1.261 . S
C641 C640 1.312 . S
C642 O614 1.214 . S
C642 O622 1.234 . S
C643 H615 0.929 . S
C643 C646 1.391 . S
C643 C648 1.391 . S
C644 H616 0.929 . S
C644 C645 1.390 . S
C644 N647 1.391 . S
C645 H617 0.930 . S
C645 C644 1.390 . S
C645 C646 1.392 . S
C646 H618 0.929 . S
C646 C643 1.391 . S
C646 C645 1.392 . S
N647 Co591 2.257 . S
N647 C644 1.391 . S
N647 C648 1.388 . S
C648 H619 0.930 . S
C648 C643 1.391 . S
C648 N647 1.388 . S
Co649 O651 2.143 1_556 S
Co649 O657 2.074 1_556 S
Co649 O660 2.093 . S
Co649 O673 2.097 . S
Co649 N690 2.151 . S
Co649 N698 2.214 . S
Co650 O651 2.160 . S
Co650 O656 2.058 . S
Co650 O666 2.057 . S
Co650 O681 2.037 . S
Co650 N685 2.145 . S
Co650 N706 2.257 . S
O651 Co649 2.143 1_554 S
O651 Co650 2.160 . S
C652 O653 1.278 . S
C652 O660 1.224 . S
O653 C652 1.278 . S
C654 O655 1.245 . S
C654 O666 1.232 . S
O655 C654 1.245 . S
O656 Co650 2.058 . S
O656 C682 1.269 . S
O657 Co649 2.074 1_554 S
O657 C682 1.257 . S
H658 C683 0.930 . S
H659 C689 0.930 . S
O660 Co649 2.093 . S
O660 C652 1.224 . S
H661 C693 0.929 . S
H662 C695 0.930 . S
H663 C696 0.930 . S
H664 C694 0.929 . S
H665 C697 0.928 . S
O666 Co650 2.057 . S
O666 C654 1.232 . S
H667 C686 0.929 . S
H668 C687 0.929 . S
H669 C699 0.931 . S
H670 C691 0.929 . S
H671 C700 0.930 . S
H672 C692 0.931 . S
O673 Co649 2.097 . S
O673 C701 1.214 1_556 S
H674 C702 0.929 . S
H675 C703 0.929 . S
H676 C704 0.930 . S
H677 C705 0.929 . S
H678 C707 0.930 . S
H679 C684 0.930 . S
H680 C688 0.930 . S
O681 Co650 2.037 . S
O681 C701 1.234 . S
C682 O656 1.269 . S
C682 O657 1.257 . S
C683 H658 0.930 . S
C683 C686 1.388 . S
C683 C688 1.418 . S
C684 H679 0.930 . S
C684 C687 1.404 . S
C684 C688 1.353 . S
N685 Co650 2.145 . S
N685 C686 1.397 . S
N685 C687 1.334 . S
C686 H667 0.929 . S
C686 C683 1.388 . S
C686 N685 1.397 . S
C687 H668 0.929 . S
C687 C684 1.404 . S
C687 N685 1.334 . S
C688 H680 0.930 . S
C688 C683 1.418 . S
C688 C684 1.353 . S
C689 H659 0.930 . S
C689 N690 1.330 . S
C689 C691 1.446 . S
N690 Co649 2.151 . S
N690 C689 1.330 . S
N690 C694 1.418 . S
C691 H670 0.929 . S
C691 C689 1.446 . S
C691 C692 1.332 . S
C692 H672 0.931 . S
C692 C691 1.332 . S
C692 C693 1.267 . S
C693 H661 0.929 . S
C693 C692 1.267 . S
C693 C694 1.251 . S
C694 H664 0.929 . S
C694 N690 1.418 . S
C694 C693 1.251 . S
C695 H662 0.930 . S
C695 C697 1.406 . S
C695 C700 1.261 . S
C696 H663 0.930 . S
C696 N698 1.325 . S
C696 C699 1.357 . S
C697 H665 0.928 . S
C697 C695 1.406 . S
C697 N698 1.261 . S
N698 Co649 2.214 . S
N698 C696 1.325 . S
N698 C697 1.261 . S
C699 H669 0.931 . S
C699 C696 1.357 . S
C699 C700 1.312 . S
C700 H671 0.930 . S
C700 C695 1.261 . S
C700 C699 1.312 . S
C701 O673 1.214 1_554 S
C701 O681 1.234 . S
C702 H674 0.929 . S
C702 C705 1.391 . S
C702 C707 1.391 . S
C703 H675 0.929 . S
C703 C704 1.390 . S
C703 N706 1.391 . S
C704 H676 0.930 . S
C704 C703 1.390 . S
C704 C705 1.392 . S
C705 H677 0.929 . S
C705 C702 1.391 . S
C705 C704 1.392 . S
N706 Co650 2.257 . S
N706 C703 1.391 . S
N706 C707 1.388 . S
C707 H678 0.930 . S
C707 C702 1.391 . S
C707 N706 1.388 . S
C708 C709 1.387 . S
C708 H712 0.950 . S
C708 C717 1.390 . S
C709 C708 1.387 . S
C709 C711 1.387 . S
H710 C717 0.950 . S
C711 C709 1.387 . S
C711 C713 1.390 . S
C711 H715 0.950 . S
H712 C708 0.950 . S
C713 C711 1.390 . S
C713 C714 1.387 . S
C713 H716 0.950 . S
C714 C713 1.387 . S
C714 C717 1.387 . S
H715 C711 0.950 . S
H716 C713 0.950 . S
C717 C708 1.390 . S
C717 H710 0.950 . S
C717 C714 1.387 . S
C718 C719 1.387 . S
C718 H722 0.950 . S
C718 C727 1.390 1_655 S
C719 C718 1.387 . S
C719 C721 1.387 . S
H720 C727 0.950 . S
C721 C719 1.387 . S
C721 C723 1.390 1_655 S
C721 H725 0.950 . S
H722 C718 0.950 . S
C723 C721 1.390 1_455 S
C723 C724 1.387 . S
C723 H726 0.950 . S
C724 C723 1.387 . S
C724 C727 1.387 . S
H725 C721 0.950 . S
H726 C723 0.950 . S
C727 C718 1.390 1_455 S
C727 H720 0.950 . S
C727 C724 1.387 . S
C728 C729 1.387 . S
C728 H732 0.950 . S
C728 C737 1.390 1_566 S
C729 C728 1.387 . S
C729 C731 1.387 . S
H730 C737 0.950 . S
C731 C729 1.387 . S
C731 C733 1.390 1_566 S
C731 H735 0.950 . S
H732 C728 0.950 . S
C733 C731 1.390 1_544 S
C733 C734 1.387 . S
C733 H736 0.950 . S
C734 C733 1.387 . S
C734 C737 1.387 . S
H735 C731 0.950 . S
H736 C733 0.950 . S
C737 C728 1.390 1_544 S
C737 H730 0.950 . S
C737 C734 1.387 . S
C738 C739 1.387 . S
C738 H742 0.950 . S
C738 C747 1.390 . S
C739 C738 1.387 . S
C739 C741 1.387 . S
H740 C747 0.950 . S
C741 C739 1.387 . S
C741 C743 1.390 . S
C741 H745 0.950 . S
H742 C738 0.950 . S
C743 C741 1.390 . S
C743 C744 1.387 . S
C743 H746 0.950 . S
C744 C743 1.387 . S
C744 C747 1.387 . S
H745 C741 0.950 . S
H746 C743 0.950 . S
C747 C738 1.390 . S
C747 H740 0.950 . S
C747 C744 1.387 . S
C748 C749 1.387 . S
C748 H752 0.950 . S
C748 C757 1.390 1_655 S
C749 C748 1.387 . S
C749 C751 1.387 . S
H750 C757 0.950 . S
C751 C749 1.387 . S
C751 C753 1.390 1_655 S
C751 H755 0.950 . S
H752 C748 0.950 . S
C753 C751 1.390 1_455 S
C753 C754 1.387 . S
C753 H756 0.950 . S
C754 C753 1.387 . S
C754 C757 1.387 . S
H755 C751 0.950 . S
H756 C753 0.950 . S
C757 C748 1.390 1_455 S
C757 H750 0.950 . S
C757 C754 1.387 . S
C758 C759 1.387 . S
C758 H762 0.950 . S
C758 C767 1.390 1_564 S
C759 C758 1.387 . S
C759 C761 1.387 . S
H760 C767 0.950 . S
C761 C759 1.387 . S
C761 C763 1.390 1_564 S
C761 H765 0.950 . S
H762 C758 0.950 . S
C763 C761 1.390 1_546 S
C763 C764 1.387 . S
C763 H766 0.950 . S
C764 C763 1.387 . S
C764 C767 1.387 . S
H765 C761 0.950 . S
H766 C763 0.950 . S
C767 C758 1.390 1_546 S
C767 H760 0.950 . S
C767 C764 1.387 . S
C768 C769 1.387 . S
C768 H772 0.950 . S
C768 C777 1.390 1_556 S
C769 C768 1.387 . S
C769 C771 1.387 . S
H770 C777 0.950 . S
C771 C769 1.387 . S
C771 C773 1.390 1_556 S
C771 H775 0.950 . S
H772 C768 0.950 . S
C773 C771 1.390 1_554 S
C773 C774 1.387 . S
C773 H776 0.950 . S
C774 C773 1.387 . S
C774 C777 1.387 . S
H775 C771 0.950 . S
H776 C773 0.950 . S
C777 C768 1.390 1_554 S
C777 H770 0.950 . S
C777 C774 1.387 . S
C778 C779 1.387 . S
C778 H782 0.950 . S
C778 C787 1.390 . S
C779 C778 1.387 . S
C779 C781 1.387 . S
H780 C787 0.950 . S
C781 C779 1.387 . S
C781 C783 1.390 . S
C781 H785 0.950 . S
H782 C778 0.950 . S
C783 C781 1.390 . S
C783 C784 1.387 . S
C783 H786 0.950 . S
C784 C783 1.387 . S
C784 C787 1.387 . S
H785 C781 0.950 . S
H786 C783 0.950 . S
C787 C778 1.390 . S
C787 H780 0.950 . S
C787 C784 1.387 . S
C788 C789 1.387 . S
C788 H792 0.950 . S
C788 C797 1.390 . S
C789 C788 1.387 . S
C789 C791 1.387 . S
H790 C797 0.950 . S
C791 C789 1.387 . S
C791 C793 1.390 . S
C791 H795 0.950 . S
H792 C788 0.950 . S
C793 C791 1.390 . S
C793 C794 1.387 . S
C793 H796 0.950 . S
C794 C793 1.387 . S
C794 C797 1.387 . S
H795 C791 0.950 . S
H796 C793 0.950 . S
C797 C788 1.390 . S
C797 H790 0.950 . S
C797 C794 1.387 . S
C798 C799 1.387 . S
C798 H802 0.950 . S
C798 C807 1.390 1_554 S
C799 C798 1.387 . S
C799 C801 1.387 . S
H800 C807 0.950 . S
C801 C799 1.387 . S
C801 C803 1.390 1_554 S
C801 H805 0.950 . S
H802 C798 0.950 . S
C803 C801 1.390 1_556 S
C803 C804 1.387 . S
C803 H806 0.950 . S
C804 C803 1.387 . S
C804 C807 1.387 . S
H805 C801 0.950 . S
H806 C803 0.950 . S
C807 C798 1.390 1_556 S
C807 H800 0.950 . S
C807 C804 1.387 . S
C808 C809 1.387 . S
C808 H812 0.950 . S
C808 C817 1.390 . S
C809 C808 1.387 . S
C809 C811 1.387 . S
H810 C817 0.950 . S
C811 C809 1.387 . S
C811 C813 1.390 . S
C811 H815 0.950 . S
H812 C808 0.950 . S
C813 C811 1.390 . S
C813 C814 1.387 . S
C813 H816 0.950 . S
C814 C813 1.387 . S
C814 C817 1.387 . S
H815 C811 0.950 . S
H816 C813 0.950 . S
C817 C808 1.390 . S
C817 H810 0.950 . S
C817 C814 1.387 . S
C818 C819 1.387 . S
C818 H822 0.950 . S
C818 C827 1.390 . S
C819 C818 1.387 . S
C819 C821 1.387 . S
H820 C827 0.950 . S
C821 C819 1.387 . S
C821 C823 1.390 . S
C821 H825 0.950 . S
H822 C818 0.950 . S
C823 C821 1.390 . S
C823 C824 1.387 . S
C823 H826 0.950 . S
C824 C823 1.387 . S
C824 C827 1.387 . S
H825 C821 0.950 . S
H826 C823 0.950 . S
C827 C818 1.390 . S
C827 H820 0.950 . S
C827 C824 1.387 . S
C828 C829 1.387 . S
C828 H832 0.950 . S
C828 C837 1.390 . S
C829 C828 1.387 . S
C829 C831 1.387 . S
H830 C837 0.950 . S
C831 C829 1.387 . S
C831 C833 1.390 . S
C831 H835 0.950 . S
H832 C828 0.950 . S
C833 C831 1.390 . S
C833 C834 1.387 . S
C833 H836 0.950 . S
C834 C833 1.387 . S
C834 C837 1.387 . S
H835 C831 0.950 . S
H836 C833 0.950 . S
C837 C828 1.390 . S
C837 H830 0.950 . S
C837 C834 1.387 . S
C838 C839 1.387 . S
C838 H842 0.950 . S
C838 C847 1.390 . S
C839 C838 1.387 . S
C839 C841 1.387 . S
H840 C847 0.950 . S
C841 C839 1.387 . S
C841 C843 1.390 . S
C841 H845 0.950 . S
H842 C838 0.950 . S
C843 C841 1.390 . S
C843 C844 1.387 . S
C843 H846 0.950 . S
C844 C843 1.387 . S
C844 C847 1.387 . S
H845 C841 0.950 . S
H846 C843 0.950 . S
C847 C838 1.390 . S
C847 H840 0.950 . S
C847 C844 1.387 . S
C848 C849 1.387 . S
C848 H852 0.950 . S
C848 C857 1.390 . S
C849 C848 1.387 . S
C849 C851 1.387 . S
H850 C857 0.950 . S
C851 C849 1.387 . S
C851 C853 1.390 . S
C851 H855 0.950 . S
H852 C848 0.950 . S
C853 C851 1.390 . S
C853 C854 1.387 . S
C853 H856 0.950 . S
C854 C853 1.387 . S
C854 C857 1.387 . S
H855 C851 0.950 . S
H856 C853 0.950 . S
C857 C848 1.390 . S
C857 H850 0.950 . S
C857 C854 1.387 . S
C858 C859 1.387 . S
C858 H862 0.950 . S
C858 C867 1.390 . S
C859 C858 1.387 . S
C859 C861 1.387 . S
H860 C867 0.950 . S
C861 C859 1.387 . S
C861 C863 1.390 . S
C861 H865 0.950 . S
H862 C858 0.950 . S
C863 C861 1.390 . S
C863 C864 1.387 . S
C863 H866 0.950 . S
C864 C863 1.387 . S
C864 C867 1.387 . S
H865 C861 0.950 . S
H866 C863 0.950 . S
C867 C858 1.390 . S
C867 H860 0.950 . S
C867 C864 1.387 . S
C868 C869 1.387 . S
C868 H872 0.950 . S
C868 C877 1.390 . S
C869 C868 1.387 . S
C869 C871 1.387 . S
H870 C877 0.950 . S
C871 C869 1.387 . S
C871 C873 1.390 . S
C871 H875 0.950 . S
H872 C868 0.950 . S
C873 C871 1.390 . S
C873 C874 1.387 . S
C873 H876 0.950 . S
C874 C873 1.387 . S
C874 C877 1.387 . S
H875 C871 0.950 . S
H876 C873 0.950 . S
C877 C868 1.390 . S
C877 H870 0.950 . S
C877 C874 1.387 . S
C878 C879 1.387 . S
C878 H882 0.950 . S
C878 C887 1.390 . S
C879 C878 1.387 . S
C879 C881 1.387 . S
H880 C887 0.950 . S
C881 C879 1.387 . S
C881 C883 1.390 . S
C881 H885 0.950 . S
H882 C878 0.950 . S
C883 C881 1.390 . S
C883 C884 1.387 . S
C883 H886 0.950 . S
C884 C883 1.387 . S
C884 C887 1.387 . S
H885 C881 0.950 . S
H886 C883 0.950 . S
C887 C878 1.390 . S
C887 H880 0.950 . S
C887 C884 1.387 . S
C888 C889 1.387 . S
C888 H892 0.950 . S
C888 C897 1.390 . S
C889 C888 1.387 . S
C889 C891 1.387 . S
H890 C897 0.950 . S
C891 C889 1.387 . S
C891 C893 1.390 . S
C891 H895 0.950 . S
H892 C888 0.950 . S
C893 C891 1.390 . S
C893 C894 1.387 . S
C893 H896 0.950 . S
C894 C893 1.387 . S
C894 C897 1.387 . S
H895 C891 0.950 . S
H896 C893 0.950 . S
C897 C888 1.390 . S
C897 H890 0.950 . S
C897 C894 1.387 . S
C898 C899 1.387 . S
C898 H902 0.950 . S
C898 C907 1.390 . S
C899 C898 1.387 . S
C899 C901 1.387 . S
H900 C907 0.950 . S
C901 C899 1.387 . S
C901 C903 1.390 . S
C901 H905 0.950 . S
H902 C898 0.950 . S
C903 C901 1.390 . S
C903 C904 1.387 . S
C903 H906 0.950 . S
C904 C903 1.387 . S
C904 C907 1.387 . S
H905 C901 0.950 . S
H906 C903 0.950 . S
C907 C898 1.390 . S
C907 H900 0.950 . S
C907 C904 1.387 . S
C908 C909 1.388 . S
C908 H912 0.950 . S
C908 C917 1.390 1_554 S
C909 C908 1.388 . S
C909 C911 1.387 . S
H910 C917 0.950 . S
C911 C909 1.387 . S
C911 C913 1.390 1_554 S
C911 H915 0.950 . S
H912 C908 0.950 . S
C913 C911 1.390 1_556 S
C913 C914 1.388 . S
C913 H916 0.950 . S
C914 C913 1.388 . S
C914 C917 1.387 . S
H915 C911 0.950 . S
H916 C913 0.950 . S
C917 C908 1.390 1_556 S
C917 H910 0.950 . S
C917 C914 1.387 . S
C918 C919 1.387 . S
C918 H922 0.950 . S
C918 C927 1.390 . S
C919 C918 1.387 . S
C919 C921 1.387 . S
H920 C927 0.950 . S
C921 C919 1.387 . S
C921 C923 1.390 . S
C921 H925 0.950 . S
H922 C918 0.950 . S
C923 C921 1.390 . S
C923 C924 1.387 . S
C923 H926 0.950 . S
C924 C923 1.387 . S
C924 C927 1.387 . S
H925 C921 0.950 . S
H926 C923 0.950 . S
C927 C918 1.390 . S
C927 H920 0.950 . S
C927 C924 1.387 . S
C928 C929 1.387 . S
C928 H932 0.950 . S
C928 C937 1.390 . S
C929 C928 1.387 . S
C929 C931 1.387 . S
H930 C937 0.950 . S
C931 C929 1.387 . S
C931 C933 1.390 . S
C931 H935 0.950 . S
H932 C928 0.950 . S
C933 C931 1.390 . S
C933 C934 1.387 . S
C933 H936 0.950 . S
C934 C933 1.387 . S
C934 C937 1.387 . S
H935 C931 0.950 . S
H936 C933 0.950 . S
C937 C928 1.390 . S
C937 H930 0.950 . S
C937 C934 1.387 . S
C938 C939 1.387 . S
C938 H942 0.950 . S
C938 C947 1.390 1_556 S
C939 C938 1.387 . S
C939 C941 1.387 . S
H940 C947 0.950 . S
C941 C939 1.387 . S
C941 C943 1.390 1_556 S
C941 H945 0.950 . S
H942 C938 0.950 . S
C943 C941 1.390 1_554 S
C943 C944 1.387 . S
C943 H946 0.950 . S
C944 C943 1.387 . S
C944 C947 1.387 . S
H945 C941 0.950 . S
H946 C943 0.950 . S
C947 C938 1.390 1_554 S
C947 H940 0.950 . S
C947 C944 1.387 . S
C709 C33 1.680 . S
C714 C564 1.680 . S
C719 C92 1.683 . S
C724 C623 1.682 . S
C729 C151 1.683 . S
C734 C682 1.683 . S
C739 C210 1.681 . S
C744 C387 1.681 . S
C749 C446 1.682 . S
C754 C269 1.682 . S
C759 C505 1.679 . S
C764 C328 1.679 . S
C769 C595 1.989 . S
C774 C5 1.989 . S
C779 C64 1.989 . S
C784 C654 1.989 . S
C789 C123 1.988 . S
C794 C359 1.987 . S
C799 C182 1.988 . S
C804 C418 1.988 . S
C809 C241 1.989 . S
C814 C477 1.988 . S
C819 C300 1.988 . S
C824 C536 1.989 . S
C829 C593 1.008 . S
C834 C3 1.008 . S
C839 C62 1.006 . S
C844 C652 1.007 . S
C849 C121 1.004 . S
C854 C357 1.004 . S
C859 C180 1.008 . S
C864 C416 1.008 . S
C869 C239 1.005 . S
C874 C475 1.004 . S
C879 C298 1.006 . S
C884 C534 1.005 . S
C889 C52 1.737 . S
C894 C406 1.736 . S
C899 C465 1.737 . S
C904 C111 1.736 . S
C909 C170 1.735 1_554 S
C914 C524 1.735 1_556 S
C919 C229 1.737 . S
C924 C583 1.736 . S
C929 C288 1.737 . S
C934 C642 1.736 . S
C939 C701 1.735 1_556 S
C944 C347 1.735 1_554 S
