# Generated by pormake.
# Topology whw, (6)-cn, num edge types: 1
# Building blocks:
#     Node 0, Type 0, BuildingBlock: BETDEL_clean_sbu_0, # of connection points: 6
#     Node 1, Type 0, BuildingBlock: BETDEL_clean_sbu_0, # of connection points: 6
#     Node 2, Type 0, BuildingBlock: BETDEL_clean_sbu_0, # of connection points: 6
#     Node 3, Type 0, BuildingBlock: BETDEL_clean_sbu_0, # of connection points: 6
#     Node 4, Type 0, BuildingBlock: BETDEL_clean_sbu_0, # of connection points: 6
#     Node 5, Type 0, BuildingBlock: BETDEL_clean_sbu_0, # of connection points: 6
#     Node 6, Type 0, BuildingBlock: BETDEL_clean_sbu_0, # of connection points: 6
#     Node 7, Type 0, BuildingBlock: BETDEL_clean_sbu_0, # of connection points: 6
#     Node 8, Type 0, BuildingBlock: BETDEL_clean_sbu_0, # of connection points: 6
#     Node 9, Type 0, BuildingBlock: BETDEL_clean_sbu_0, # of connection points: 6
#     Node 10, Type 0, BuildingBlock: BETDEL_clean_sbu_0, # of connection points: 6
#     Node 11, Type 0, BuildingBlock: BETDEL_clean_sbu_0, # of connection points: 6
#     Node 12, Type 0, BuildingBlock: BETDEL_clean_sbu_0, # of connection points: 6
#     Node 13, Type 0, BuildingBlock: BETDEL_clean_sbu_0, # of connection points: 6
#     Node 14, Type 0, BuildingBlock: BETDEL_clean_sbu_0, # of connection points: 6
#     Node 15, Type 0, BuildingBlock: BETDEL_clean_sbu_0, # of connection points: 6
#     Edge 16, Type (0, 0), BuildingBlock: AJUNOK_clean_linker_0, # of connection points: 2
#     Edge 17, Type (0, 0), BuildingBlock: AJUNOK_clean_linker_0, # of connection points: 2
#     Edge 18, Type (0, 0), BuildingBlock: AJUNOK_clean_linker_0, # of connection points: 2
#     Edge 19, Type (0, 0), BuildingBlock: AJUNOK_clean_linker_0, # of connection points: 2
#     Edge 20, Type (0, 0), BuildingBlock: AJUNOK_clean_linker_0, # of connection points: 2
#     Edge 21, Type (0, 0), BuildingBlock: AJUNOK_clean_linker_0, # of connection points: 2
#     Edge 22, Type (0, 0), BuildingBlock: AJUNOK_clean_linker_0, # of connection points: 2
#     Edge 23, Type (0, 0), BuildingBlock: AJUNOK_clean_linker_0, # of connection points: 2
#     Edge 24, Type (0, 0), BuildingBlock: AJUNOK_clean_linker_0, # of connection points: 2
#     Edge 25, Type (0, 0), BuildingBlock: AJUNOK_clean_linker_0, # of connection points: 2
#     Edge 26, Type (0, 0), BuildingBlock: AJUNOK_clean_linker_0, # of connection points: 2
#     Edge 27, Type (0, 0), BuildingBlock: AJUNOK_clean_linker_0, # of connection points: 2
#     Edge 28, Type (0, 0), BuildingBlock: AJUNOK_clean_linker_0, # of connection points: 2
#     Edge 29, Type (0, 0), BuildingBlock: AJUNOK_clean_linker_0, # of connection points: 2
#     Edge 30, Type (0, 0), BuildingBlock: AJUNOK_clean_linker_0, # of connection points: 2
#     Edge 31, Type (0, 0), BuildingBlock: AJUNOK_clean_linker_0, # of connection points: 2
#     Edge 32, Type (0, 0), BuildingBlock: AJUNOK_clean_linker_0, # of connection points: 2
#     Edge 33, Type (0, 0), BuildingBlock: AJUNOK_clean_linker_0, # of connection points: 2
#     Edge 34, Type (0, 0), BuildingBlock: AJUNOK_clean_linker_0, # of connection points: 2
#     Edge 35, Type (0, 0), BuildingBlock: AJUNOK_clean_linker_0, # of connection points: 2
#     Edge 36, Type (0, 0), BuildingBlock: AJUNOK_clean_linker_0, # of connection points: 2
#     Edge 37, Type (0, 0), BuildingBlock: AJUNOK_clean_linker_0, # of connection points: 2
#     Edge 38, Type (0, 0), BuildingBlock: AJUNOK_clean_linker_0, # of connection points: 2
#     Edge 39, Type (0, 0), BuildingBlock: AJUNOK_clean_linker_0, # of connection points: 2
#     Edge 40, Type (0, 0), BuildingBlock: AJUNOK_clean_linker_0, # of connection points: 2
#     Edge 41, Type (0, 0), BuildingBlock: AJUNOK_clean_linker_0, # of connection points: 2
#     Edge 42, Type (0, 0), BuildingBlock: AJUNOK_clean_linker_0, # of connection points: 2
#     Edge 43, Type (0, 0), BuildingBlock: AJUNOK_clean_linker_0, # of connection points: 2
#     Edge 44, Type (0, 0), BuildingBlock: AJUNOK_clean_linker_0, # of connection points: 2
#     Edge 45, Type (0, 0), BuildingBlock: AJUNOK_clean_linker_0, # of connection points: 2
#     Edge 46, Type (0, 0), BuildingBlock: AJUNOK_clean_linker_0, # of connection points: 2
#     Edge 47, Type (0, 0), BuildingBlock: AJUNOK_clean_linker_0, # of connection points: 2
#     Edge 48, Type (0, 0), BuildingBlock: AJUNOK_clean_linker_0, # of connection points: 2
#     Edge 49, Type (0, 0), BuildingBlock: AJUNOK_clean_linker_0, # of connection points: 2
#     Edge 50, Type (0, 0), BuildingBlock: AJUNOK_clean_linker_0, # of connection points: 2
#     Edge 51, Type (0, 0), BuildingBlock: AJUNOK_clean_linker_0, # of connection points: 2
#     Edge 52, Type (0, 0), BuildingBlock: AJUNOK_clean_linker_0, # of connection points: 2
#     Edge 53, Type (0, 0), BuildingBlock: AJUNOK_clean_linker_0, # of connection points: 2
#     Edge 54, Type (0, 0), BuildingBlock: AJUNOK_clean_linker_0, # of connection points: 2
#     Edge 55, Type (0, 0), BuildingBlock: AJUNOK_clean_linker_0, # of connection points: 2
#     Edge 56, Type (0, 0), BuildingBlock: AJUNOK_clean_linker_0, # of connection points: 2
#     Edge 57, Type (0, 0), BuildingBlock: AJUNOK_clean_linker_0, # of connection points: 2
#     Edge 58, Type (0, 0), BuildingBlock: AJUNOK_clean_linker_0, # of connection points: 2
#     Edge 59, Type (0, 0), BuildingBlock: AJUNOK_clean_linker_0, # of connection points: 2
#     Edge 60, Type (0, 0), BuildingBlock: AJUNOK_clean_linker_0, # of connection points: 2
#     Edge 61, Type (0, 0), BuildingBlock: AJUNOK_clean_linker_0, # of connection points: 2
#     Edge 62, Type (0, 0), BuildingBlock: AJUNOK_clean_linker_0, # of connection points: 2
#     Edge 63, Type (0, 0), BuildingBlock: AJUNOK_clean_linker_0, # of connection points: 2
# Relax obj value: 0.431
# Max RMSD: 0.210
# Mean RMSD: 0.200
data_MOF--net-whw--node1-BETDEL_clean_sbu_0--edge1-AJUNOK_clean_linker_0
_symmetry_space_group_name_H-M    P1
_symmetry_Int_Tables_number       1
_symmetry_cell_setting            triclinic
loop_
_symmetry_equiv_pos_as_xyz
'x, y, z'
_cell_length_a     34.882161
_cell_length_b     35.064816
_cell_length_c     19.863168
_cell_angle_alpha  87.547706
_cell_angle_beta   89.732437
_cell_angle_gamma 92.120847
loop_
_atom_site_label
_atom_site_type_symbol
_atom_site_fract_x
_atom_site_fract_y
_atom_site_fract_z
_atom_type_partial_charge
Dy0 Dy 0.02564 0.08491 0.19532 0.0
C1 C 0.90338 0.07928 1.00705 0.0
C2 C 0.07402 0.08707 0.3028 0.0
Dy3 Dy 0.95367 0.08888 0.10936 0.0
O4 O 0.04133 0.06854 0.3012 0.0
O5 O 0.08104 0.10398 0.24425 0.0
O6 O 0.04011 0.02969 0.15339 0.0
O7 O 0.9819 0.04263 0.16303 0.0
C8 C 0.00486 0.01916 0.14126 0.0
C9 C 0.97277 0.15351 0.16505 0.0
O10 O 0.92597 0.07548 0.2111 0.0
O11 O 0.97928 0.09718 0.26926 0.0
O12 O 0.8948 0.09251 0.06508 0.0
O13 O 0.93905 0.07035 1.00625 0.0
O14 O 0.93801 0.14587 0.14536 0.0
O15 O -0.00466 0.12984 0.1435 0.0
O16 O 0.05378 0.11188 0.10019 0.0
O17 O 0.00126 0.10103 1.03138 0.0
C18 C 0.94228 0.08731 0.26738 0.0
C19 C 0.03783 0.1121 1.03924 0.0
Dy20 Dy 0.11078 0.74802 0.45327 0.0
C21 C 0.11438 0.61318 0.29997 0.0
C22 C 0.12006 0.80418 0.54189 0.0
Dy23 Dy 0.10372 0.67107 0.38468 0.0
O24 O 0.14287 0.77628 0.53522 0.0
O25 O 0.092 0.80171 0.49899 0.0
O26 O 0.15712 0.76763 0.38157 0.0
O27 O 0.15094 0.70933 0.41145 0.0
C28 C 0.16848 0.7335 0.37263 0.0
C29 C 0.0474 0.68457 0.46635 0.0
O30 O 0.11845 0.64765 0.48999 0.0
O31 O 0.10891 0.70424 0.54368 0.0
O32 O 0.08156 0.62386 0.32228 0.0
O33 O 0.14151 0.63398 0.326 0.0
O34 O 0.05512 0.64991 0.45097 0.0
O35 O 0.06506 0.70896 0.42825 0.0
O36 O 0.07669 0.76855 0.36016 0.0
O37 O 0.08593 0.71425 0.29964 0.0
C38 C 0.11298 0.66634 0.54642 0.0
C39 C 0.07404 0.75015 0.30236 0.0
Dy40 Dy 0.44611 0.87613 0.74027 0.0
C41 C 0.56974 0.90645 0.54609 0.0
C42 C 0.40052 0.85596 0.8497 0.0
Dy43 Dy 0.52032 0.88821 0.65132 0.0
O44 O 0.42603 0.88381 0.84638 0.0
O45 O 0.39865 0.84003 0.79163 0.0
O46 O 0.42479 0.93218 0.70313 0.0
O47 O 0.48446 0.92472 0.7086 0.0
C48 C 0.45876 0.94679 0.68837 0.0
C49 C 0.5068 0.81816 0.69983 0.0
O50 O 0.54675 0.89478 0.75544 0.0
O51 O 0.49484 0.86415 0.8112 0.0
O52 O 0.53358 0.91384 0.54767 0.0
O53 O 0.57939 0.8909 0.60378 0.0
O54 O 0.54083 0.83053 0.68086 0.0
O55 O 0.48248 0.8417 0.68206 0.0
O56 O 0.42048 0.855 0.64218 0.0
O57 O 0.47318 0.87414 0.57498 0.0
C58 C 0.53112 0.87697 0.8104 0.0
C59 C 0.43727 0.85956 0.58139 0.0
Dy60 Dy 0.37782 0.23536 0.95769 0.0
C61 C 0.34838 0.37129 0.80135 0.0
C62 C 0.37323 0.17779 0.05239 0.0
Dy63 Dy 0.37257 0.31421 0.88677 0.0
O64 O 0.40253 0.18441 1.01178 0.0
O65 O 0.34677 0.20193 1.03943 0.0
O66 O 0.33507 0.21078 0.89 0.0
O67 O 0.3309 0.26856 0.91518 0.0
C68 C 0.31796 0.24247 0.87822 0.0
C69 C 0.4342 0.30618 0.95784 0.0
O70 O 0.36352 0.33169 0.9967 0.0
O71 O 0.3784 0.27321 1.04737 0.0
O72 O 0.38381 0.36223 0.81079 0.0
O73 O 0.32653 0.34968 0.84107 0.0
O74 O 0.42165 0.34002 0.94273 0.0
O75 O 0.41753 0.28071 0.92462 0.0
O76 O 0.41181 0.22181 0.86434 0.0
O77 O 0.39364 0.2758 0.80159 0.0
C78 C 0.37177 0.31 1.05183 0.0
C79 C 0.4102 0.24162 0.80533 0.0
Dy80 Dy 0.01302 0.84649 0.88297 0.0
C81 C 0.87148 0.87041 1.02623 0.0
C82 C 0.06979 0.85178 0.79008 0.0
Dy83 Dy 0.93126 0.84788 0.95002 0.0
O84 O 0.0412 0.87425 0.7928 0.0
O85 O 0.06763 0.82568 0.83917 0.0
O86 O 0.03246 0.89971 0.9274 0.0
O87 O 0.97342 0.89034 0.90998 0.0
C88 C -0.0017 0.911 0.93949 0.0
C89 C 0.95183 0.78306 0.90997 0.0
O90 O 0.91419 0.84635 0.83612 0.0
O91 O 0.97378 0.82898 0.79686 0.0
O92 O 0.87796 0.83545 1.01189 0.0
O93 O 0.89753 0.89269 0.9974 0.0
O94 O 0.91535 0.78964 0.91473 0.0
O95 O 0.97245 0.8087 0.93373 0.0
O96 O 0.03014 0.82225 0.98748 0.0
O97 O 0.9719 0.83258 1.04189 0.0
C98 C 0.93634 0.83312 0.7868 0.0
C99 C 0.00888 0.82153 1.04436 0.0
Dy100 Dy 0.35236 0.73288 0.24394 0.0
C101 C 0.36713 0.63212 1.01948 0.0
C102 C 0.3698 0.78533 0.34243 0.0
Dy103 Dy 0.34573 0.67422 0.12632 0.0
O104 O 0.39054 0.77845 0.28996 0.0
O105 O 0.3376 0.76501 0.33874 0.0
O106 O 0.39778 0.69483 0.28166 0.0
O107 O 0.39176 0.70349 0.17928 0.0
C108 C 0.4118 0.68733 0.2236 0.0
C109 C 0.27957 0.69623 0.17496 0.0
O110 O 0.34599 0.63654 0.22089 0.0
O111 O 0.32338 0.68107 0.2939 0.0
O112 O 0.33764 0.65385 1.0202 0.0
O113 O 0.38357 0.63234 0.07816 0.0
O114 O 0.28348 0.66279 0.14986 0.0
O115 O 0.31001 0.71657 0.16854 0.0
O116 O 0.3549 0.77371 0.15178 0.0
O117 O 0.35739 0.72881 0.06791 0.0
C118 C 0.33198 0.6455 0.28045 0.0
C119 C 0.35806 0.76448 0.08743 0.0
Dy120 Dy 0.46902 0.13439 0.41052 0.0
C121 C 0.60144 0.10923 0.56757 0.0
C122 C 0.41332 0.13119 0.31647 0.0
Dy123 Dy 0.54587 0.12986 0.47921 0.0
O124 O 0.43532 0.1036 0.33386 0.0
O125 O 0.42069 0.16067 0.35289 0.0
O126 O 0.44152 0.09525 0.48688 0.0
O127 O 0.49961 0.08755 0.46086 0.0
C128 C 0.47213 0.07662 0.50012 0.0
C129 C 0.54145 0.18775 0.39218 0.0
O130 O 0.56659 0.11405 0.37486 0.0
O131 O 0.50965 0.12767 0.3211 0.0
O132 O 0.58946 0.14362 0.5575 0.0
O133 O 0.58366 0.08654 0.52755 0.0
O134 O 0.57439 0.1748 0.41107 0.0
O135 O 0.51481 0.17446 0.43034 0.0
O136 O 0.45467 0.17146 0.49921 0.0
O137 O 0.50783 0.15393 0.56144 0.0
C138 C 0.5468 0.12035 0.31823 0.0
C139 C 0.47421 0.17115 0.55722 0.0
Dy140 Dy 0.12763 0.20844 0.63967 0.0
C141 C 0.1293 0.33169 0.82059 0.0
C142 C 0.12407 0.155 0.54427 0.0
Dy143 Dy 0.12075 0.27939 0.72287 0.0
O144 O 0.14841 0.18384 0.54437 0.0
O145 O 0.10171 0.15524 0.59673 0.0
O146 O 0.18349 0.19586 0.68469 0.0
O147 O 0.16855 0.25371 0.67222 0.0
C148 C 0.19288 0.23109 0.69632 0.0
C149 C 0.05697 0.2555 0.66579 0.0
O150 O 0.12863 0.30842 0.61913 0.0
O151 O 0.11264 0.25402 0.56131 0.0
O152 O 0.11194 0.33752 0.76366 0.0
O153 O 0.14236 0.29756 0.82328 0.0
O154 O 0.06224 0.29066 0.68267 0.0
O155 O 0.08225 0.23503 0.6905 0.0
O156 O 0.10763 0.17811 0.73777 0.0
O157 O 0.11124 0.23135 0.80347 0.0
C158 C 0.11769 0.29171 0.56283 0.0
C159 C 0.10519 0.19384 0.79759 0.0
Dy160 Dy 0.85715 0.24447 0.73363 0.0
C161 C 0.8685 0.14014 0.50884 0.0
C162 C 0.8796 0.28004 0.85163 0.0
Dy163 Dy 0.84674 0.18051 0.61802 0.0
O164 O 0.84517 0.28126 0.82489 0.0
O165 O 0.90053 0.25987 0.81332 0.0
O166 O 0.90784 0.2665 0.67422 0.0
O167 O 0.89193 0.20811 0.67377 0.0
C168 C 0.91353 0.23404 0.64755 0.0
C169 C 0.78534 0.19385 0.68973 0.0
O170 O 0.85964 0.14355 0.70804 0.0
O171 O 0.8464 0.18809 0.78893 0.0
O172 O 0.83485 0.15459 0.5165 0.0
O173 O 0.88931 0.14731 0.56119 0.0
O174 O 0.78894 0.16136 0.66061 0.0
O175 O 0.81217 0.21739 0.67351 0.0
O176 O 0.83666 0.28255 0.64887 0.0
O177 O 0.84549 0.23826 0.56414 0.0
C178 C 0.85333 0.15289 0.77102 0.0
C179 C 0.83907 0.27336 0.5843 0.0
Dy180 Dy 0.6165 0.72922 0.13828 0.0
C181 C 0.6276 0.86491 0.29445 0.0
C182 C 0.61841 0.67735 1.04059 0.0
Dy183 Dy 0.61462 0.80366 0.2157 0.0
O184 O 0.6426 0.70596 1.04652 0.0
O185 O 0.59273 0.67673 0.0887 0.0
O186 O 0.66755 0.71166 0.19412 0.0
O187 O 0.66033 0.77072 0.17381 0.0
C188 C 0.67996 0.74603 0.20481 0.0
C189 C 0.54691 0.7687 0.20002 0.0
O190 O 0.61108 0.83098 0.10911 0.0
O191 O 0.60781 0.77351 0.05529 0.0
O192 O 0.60093 0.862 0.24922 0.0
O193 O 0.64899 0.8354 0.29222 0.0
O194 O 0.55472 0.78984 0.25061 0.0
O195 O 0.57426 0.77044 0.15885 0.0
O196 O 0.59218 0.70441 0.23663 0.0
O197 O 0.61211 0.75601 0.29921 0.0
C198 C 0.60597 0.81129 0.05347 0.0
C199 C 0.5978 0.72016 0.29581 0.0
Dy200 Dy 0.63423 0.27023 0.96994 0.0
C201 C 0.62563 0.13089 0.82883 0.0
C202 C 0.64427 0.32703 0.05838 0.0
Dy203 Dy 0.61135 0.19413 0.89708 0.0
O204 O 0.66272 0.29549 0.06008 0.0
O205 O 0.62103 0.32747 1.00752 0.0
O206 O 0.68904 0.27662 0.91293 0.0
O207 O 0.66367 0.22204 0.93398 0.0
C208 C 0.69012 0.24048 0.90222 0.0
C209 C 0.55554 0.23827 0.93233 0.0
O210 O 0.608 0.16879 1.00379 0.0
O211 O 0.6195 0.22606 0.05847 0.0
O212 O 0.59495 0.13497 0.86542 0.0
O213 O 0.64766 0.16136 0.83068 0.0
O214 O 0.5502 0.21324 0.88608 0.0
O215 O 0.58635 0.23315 0.96109 0.0
O216 O 0.60927 0.2923 0.8664 0.0
O217 O 0.60766 0.23636 0.80709 0.0
C218 C 0.61074 0.18818 0.06014 0.0
C219 C 0.60269 0.27378 0.80915 0.0
Dy220 Dy 0.86431 0.6885 0.43391 0.0
C221 C 0.85539 0.82978 0.28481 0.0
C222 C 0.85004 0.63186 0.53127 0.0
Dy223 Dy 0.8764 0.76842 0.36271 0.0
O224 O 0.86501 0.62641 0.47234 0.0
O225 O 0.84308 0.66766 0.53546 0.0
O226 O 0.80992 0.68122 0.37652 0.0
O227 O 0.82818 0.73551 0.40592 0.0
C228 C 0.80342 0.7173 0.3734 0.0
C229 C 0.93745 0.74234 0.42095 0.0
O230 O 0.87195 0.78732 0.47259 0.0
O231 O 0.88127 0.72707 0.52153 0.0
O232 O 0.89011 0.82384 0.30557 0.0
O233 O 0.83251 0.80193 0.30645 0.0
O234 O 0.9337 0.77894 0.40885 0.0
O235 O 0.91183 0.72283 0.39251 0.0
O236 O 0.89243 0.66913 0.33547 0.0
O237 O 0.88866 0.72743 0.27501 0.0
C238 C 0.8796 0.76498 0.52712 0.0
C239 C 0.89624 0.6898 0.27676 0.0
Dy240 Dy 0.52668 0.60385 0.69319 0.0
C241 C 0.39302 0.58749 0.52186 0.0
C242 C 0.57914 0.60742 0.79533 0.0
Dy243 Dy 0.44922 0.60293 0.61323 0.0
O244 O 0.58259 0.62561 0.73707 0.0
O245 O 0.54774 0.58655 0.79628 0.0
O246 O 0.5439 0.55291 0.63838 0.0
O247 O 0.48571 0.56088 0.6598 0.0
C248 C 0.50875 0.54063 0.63049 0.0
C249 C 0.46461 0.66553 0.6779 0.0
O250 O 0.42718 0.58312 0.7161 0.0
O251 O 0.48063 0.60686 0.77282 0.0
O252 O 0.39065 0.61089 0.57046 0.0
O253 O 0.42621 0.57168 0.52414 0.0
O254 O 0.4298 0.65559 0.6609 0.0
O255 O 0.48838 0.64519 0.65022 0.0
O256 O 0.54772 0.63727 0.5985 0.0
O257 O 0.49308 0.62631 0.53346 0.0
C258 C 0.44443 0.59358 0.77246 0.0
C259 C 0.52932 0.63983 0.53965 0.0
Dy260 Dy 0.9581 0.3627 0.25805 0.0
C261 C 0.08223 0.38887 0.06728 0.0
C262 C 0.90433 0.35008 0.35728 0.0
Dy263 Dy 0.0312 0.37084 0.17021 0.0
O264 O 0.9323 0.37541 0.35778 0.0
O265 O 0.90594 0.33111 0.30249 0.0
O266 O 0.93823 0.41869 0.21939 0.0
O267 O -0.00258 0.41037 0.22511 0.0
C268 C 0.9722 0.43313 0.20536 0.0
C269 C 0.01684 0.30142 0.22421 0.0
O270 O 0.05778 0.37897 0.27262 0.0
O271 O 0.00593 0.35056 0.33216 0.0
O272 O 0.09046 0.37146 0.12412 0.0
O273 O 0.04647 0.39747 0.06827 0.0
O274 O 0.05096 0.31374 0.20555 0.0
O275 O -0.00735 0.32464 0.2033 0.0
O276 O 0.93131 0.34308 0.15934 0.0
O277 O 0.98547 0.3561 0.09248 0.0
C278 C 0.04247 0.36281 0.32904 0.0
C279 C 0.94865 0.34467 0.09895 0.0
Dy280 Dy 0.52552 0.36793 0.39484 0.0
C281 C 0.38395 0.37233 0.54333 0.0
C282 C 0.5796 0.37245 0.29527 0.0
Dy283 Dy 0.44668 0.35459 0.47124 0.0
O284 O 0.58746 0.37628 0.3587 0.0
O285 O 0.54347 0.36412 0.28794 0.0
O286 O 0.53419 0.42616 0.43037 0.0
O287 O 0.47804 0.40243 0.42076 0.0
C288 C 0.49811 0.42949 0.44297 0.0
C289 C 0.47711 0.29578 0.41604 0.0
O290 O 0.42298 0.35759 0.36542 0.0
O291 O 0.48182 0.35717 0.30932 0.0
O292 O 0.39551 0.3378 0.53593 0.0
O293 O 0.40697 0.39692 0.51161 0.0
O294 O 0.43999 0.29716 0.42433 0.0
O295 O 0.4941 0.32222 0.44467 0.0
O296 O 0.54649 0.34324 0.49885 0.0
O297 O 0.48937 0.34713 0.55947 0.0
C298 C 0.44333 0.35546 0.30886 0.0
C299 C 0.52709 0.34024 0.55796 0.0
Dy300 Dy 0.95732 0.57827 0.87542 0.0
C301 C 0.09783 0.56311 1.03439 0.0
C302 C 0.90281 0.57095 0.77797 0.0
Dy303 Dy 0.03629 0.58046 0.95525 0.0
O304 O 0.93547 0.55432 0.77915 0.0
O305 O 0.89974 0.59122 0.831 0.0
O306 O 0.93646 0.52746 0.93747 0.0
O307 O -0.00499 0.5372 0.92453 0.0
C308 C 0.96991 0.51832 0.95881 0.0
C309 C 0.01286 0.6465 0.90957 0.0
O310 O 0.06054 0.57895 0.84761 0.0
O311 O 0.00314 0.5895 0.79046 0.0
O312 O 0.09887 0.58514 0.97994 0.0
O313 O 0.06373 0.54717 1.03904 0.0
O314 O 0.0371 0.64417 0.95902 0.0
O315 O 0.00615 0.61487 0.88626 0.0
O316 O 0.94125 0.61351 0.96842 0.0
O317 O -0.00685 0.59735 1.03679 0.0
C318 C 0.04161 0.58682 0.79021 0.0
C319 C 0.95902 0.61356 1.02889 0.0
C320 C 0.08191 0.16345 0.98296 0.0
C321 C 0.05908 0.12961 0.97848 0.0
C322 C 0.09734 0.18336 0.92478 0.0
C323 C 0.09153 0.17 0.85921 0.0
H324 H 0.08648 0.17567 1.03159 0.0
H325 H 0.11351 0.20989 0.93133 0.0
S326 S 0.03648 0.08083 0.82042 0.0
N327 N 0.03285 0.08279 0.90309 0.0
N328 N 0.06287 0.11886 0.795 0.0
C329 C 0.07019 0.13517 0.85461 0.0
C330 C 0.05373 0.11546 0.91366 0.0
C331 C 0.02248 0.7884 0.23556 0.0
C332 C 0.05811 0.77 0.23758 0.0
C333 C 0.00692 0.80482 0.1744 0.0
C334 C 0.02622 0.80467 0.11108 0.0
H335 H 0.00585 0.78942 0.28158 0.0
H336 H 0.97926 0.81772 0.17699 0.0
S337 S 0.12236 0.76325 0.08896 0.0
N338 N 0.11296 0.7549 0.16992 0.0
N339 N 0.08492 0.78521 0.05763 0.0
C340 C 0.06239 0.7871 0.11328 0.0
C341 C 0.07785 0.77009 0.17519 0.0
C342 C 0.36641 0.80481 0.46559 0.0
C343 C 0.38436 0.80787 0.40148 0.0
C344 C 0.38273 0.82237 0.52273 0.0
C345 C 0.41781 0.84409 0.51883 0.0
H346 H 0.34011 0.78764 0.47232 0.0
H347 H 0.36812 0.81796 0.5708 0.0
S348 S 0.47525 0.86313 0.36136 0.0
N349 N 0.43855 0.83598 0.33754 0.0
N350 N 0.4686 0.86888 0.44254 0.0
C351 C 0.43522 0.84834 0.45417 0.0
C352 C 0.41875 0.83035 0.39647 0.0
C353 C 0.41416 0.23385 0.67577 0.0
C354 C 0.42747 0.22474 0.74179 0.0
C355 C 0.4288 0.21666 0.61715 0.0
C356 C 0.45834 0.18982 0.6204 0.0
H357 H 0.39155 0.254 0.66922 0.0
H358 H 0.41687 0.22475 0.56861 0.0
S359 S 0.50529 0.15747 0.77997 0.0
N360 N 0.47331 0.18742 0.8051 0.0
N361 N 0.50093 0.15645 0.69738 0.0
C362 C 0.47245 0.18129 0.68606 0.0
C363 C 0.45712 0.19823 0.74556 0.0
C364 C 0.87493 0.8835 0.20633 0.0
C365 C 0.84684 0.85579 0.2274 0.0
C366 C 0.87806 0.89543 0.13843 0.0
C367 C 0.85389 0.87881 0.09047 0.0
H368 H 0.89746 0.89225 0.2404 0.0
H369 H 0.90325 0.91259 0.12259 0.0
S370 S 0.76689 0.81784 0.12452 0.0
N371 N 0.78695 0.82236 0.19911 0.0
N372 N 0.79463 0.84313 0.07036 0.0
C373 C 0.82145 0.85732 0.11288 0.0
C374 C 0.8175 0.84604 0.18223 0.0
C375 C 0.83956 0.13042 0.8886 0.0
C376 C 0.85694 0.12407 0.82622 0.0
C377 C 0.85102 0.11107 0.94736 0.0
C378 C 0.88107 0.08571 0.94566 0.0
H379 H 0.81928 0.15283 0.89315 0.0
H380 H 0.83925 0.11933 0.99494 0.0
S381 S 0.9299 0.05281 0.79359 0.0
N382 N 0.90043 0.08534 0.76456 0.0
N383 N 0.92307 0.0497 0.87598 0.0
C384 C 0.89529 0.07547 0.88287 0.0
C385 C 0.88302 0.09468 0.82265 0.0
C386 C 0.6574 0.11362 0.7245 0.0
C387 C 0.6277 0.10567 0.77199 0.0
C388 C 0.65069 0.10995 0.65577 0.0
C389 C 0.61485 0.09655 0.63381 0.0
H390 H 0.68373 0.12829 0.73898 0.0
H391 H 0.67193 0.12157 0.61976 0.0
S392 S 0.53276 0.05995 0.74014 0.0
N393 N 0.56541 0.0744 0.79427 0.0
N394 N 0.55238 0.06802 0.66487 0.0
C395 C 0.5877 0.082 0.68164 0.0
C396 C 0.59452 0.08588 0.75147 0.0
C397 C 0.57628 0.92008 0.42255 0.0
C398 C 0.59262 0.90647 0.48313 0.0
C399 C 0.59102 0.91043 0.36001 0.0
C400 C 0.62256 0.88673 0.35592 0.0
H401 H 0.55005 0.93569 0.42332 0.0
H402 H 0.57541 0.91871 0.315 0.0
S403 S 0.68074 0.85085 0.49949 0.0
N404 N 0.64592 0.87372 0.53499 0.0
N405 N 0.67371 0.85559 0.41745 0.0
C406 C 0.64199 0.87699 0.41582 0.0
C407 C 0.62693 0.88681 0.47959 0.0
C408 C 0.55597 0.6681 0.35524 0.0
C409 C 0.58357 0.69845 0.3594 0.0
C410 C 0.53816 0.65039 0.41312 0.0
C411 C 0.54895 0.65979 0.47888 0.0
H412 H 0.54659 0.6589 0.30646 0.0
H413 H 0.51548 0.62914 0.40594 0.0
S414 S 0.62125 0.73587 0.51942 0.0
N415 N 0.62076 0.73706 0.4362 0.0
N416 N 0.59005 0.70149 0.54433 0.0
C417 C 0.57761 0.68907 0.48412 0.0
C418 C 0.59435 0.70864 0.4249 0.0
C419 C 0.60295 0.29624 0.68264 0.0
C420 C 0.5847 0.29397 0.74678 0.0
C421 C 0.58497 0.31186 0.62328 0.0
C422 C 0.54707 0.32552 0.62343 0.0
H423 H 0.63154 0.28556 0.67803 0.0
H424 H 0.60088 0.31246 0.57628 0.0
S425 S 0.48466 0.32278 0.77672 0.0
N426 N 0.52504 0.30488 0.80444 0.0
N427 N 0.49172 0.33356 0.69576 0.0
C428 C 0.52837 0.32275 0.68731 0.0
C429 C 0.54686 0.30723 0.74761 0.0
C430 C 0.95128 0.31586 0.98395 0.0
C431 C 0.92879 0.32939 1.03669 0.0
C432 C 0.93487 0.30048 0.92557 0.0
C433 C 0.89484 0.29821 0.91501 0.0
H434 H 0.98224 0.31644 0.98808 0.0
H435 H 0.9541 0.29022 0.88797 0.0
S436 S 0.82221 0.33057 1.03538 0.0
N437 N 0.86349 0.33961 0.07321 0.0
N438 N 0.8329 0.31177 0.963 0.0
C439 C 0.87175 0.31215 0.96655 0.0
C440 C 0.88856 0.3273 1.02717 0.0
C441 C 0.93101 0.63583 0.21594 0.0
C442 C 0.91121 0.67063 0.21212 0.0
C443 C 0.94592 0.6181 0.15782 0.0
C444 C 0.9412 0.63294 0.09068 0.0
H445 H 0.9358 0.62219 0.26496 0.0
H446 H 0.96119 0.59197 0.16583 0.0
S447 S 0.89239 0.72362 1.0494 0.0
N448 N 0.88911 0.71948 0.13245 0.0
N449 N 0.91508 0.68588 1.02552 0.0
C450 C 0.92116 0.66749 0.08583 0.0
C451 C 0.90689 0.68617 0.14523 0.0
C452 C 0.33324 0.35301 0.62615 0.0
C453 C 0.35752 0.38206 0.59716 0.0
C454 C 0.32202 0.35405 0.69363 0.0
C455 C 0.33632 0.38335 0.7338 0.0
H456 H 0.32688 0.32724 0.59943 0.0
H457 H 0.30792 0.32866 0.71671 0.0
S458 S 0.38721 0.47282 0.67442 0.0
N459 N 0.38425 0.44679 0.60707 0.0
N460 N 0.36568 0.44694 0.736 0.0
C461 C 0.3541 0.41573 0.70218 0.0
C462 C 0.36427 0.41545 0.63279 0.0
C463 C 0.38274 0.579 0.39941 0.0
C464 C 0.36826 0.58955 0.46181 0.0
C465 C 0.36713 0.59327 0.33885 0.0
C466 C 0.33671 0.61862 0.33908 0.0
H467 H 0.40863 0.56294 0.39711 0.0
H468 H 0.3818 0.58772 0.29228 0.0
S469 S 0.2816 0.64524 0.48893 0.0
N470 N 0.31655 0.61941 0.52004 0.0
N471 N 0.28731 0.64629 0.4063 0.0
C472 C 0.31858 0.6246 0.40086 0.0
C473 C 0.3344 0.61005 0.46238 0.0
C474 C 0.13106 0.56586 0.21406 0.0
C475 C 0.11733 0.6014 0.23086 0.0
C476 C 0.12833 0.554 0.14733 0.0
C477 C 0.11328 0.5782 0.09649 0.0
H478 H 0.14172 0.54649 0.25295 0.0
H479 H 0.13595 0.52526 0.13622 0.0
S480 S 0.07283 0.67336 0.11746 0.0
N481 N 0.08782 0.65998 0.19302 0.0
N482 N 0.0847 0.63898 0.06839 0.0
C483 C 0.10166 0.61457 0.11307 0.0
C484 C 0.10317 0.62587 0.1803 0.0
C485 C 0.14338 0.34322 0.94063 0.0
C486 C 0.1265 0.35553 0.87969 0.0
C487 C 0.13238 0.35796 1.00192 0.0
C488 C 0.10387 0.38517 1.00409 0.0
H489 H 0.16292 0.31989 0.94177 0.0
H490 H 0.14356 0.34523 1.04809 0.0
S491 S 0.05794 0.4333 0.85719 0.0
N492 N 0.08551 0.40163 0.82399 0.0
N493 N 0.06443 0.42899 0.93941 0.0
C494 C 0.09042 0.40107 0.94287 0.0
C495 C 0.10182 0.38626 0.88041 0.0
C496 C 0.96782 0.2497 0.23588 0.0
C497 C 0.00679 0.2612 0.23608 0.0
C498 C 0.95682 0.21306 0.21781 0.0
C499 C 0.98463 0.18741 0.20008 0.0
H500 H 0.94569 0.27012 0.24266 0.0
H501 H 0.92652 0.20595 0.21249 0.0
S502 S 0.09018 0.20058 0.21486 0.0
N503 N 0.073 0.24184 0.23482 0.0
N504 N 0.05232 0.17291 0.19879 0.0
C505 C 0.02353 0.1968 0.21048 0.0
C506 C 0.03469 0.23393 0.22966 0.0
C507 C -0.00855 0.75021 0.49942 0.0
C508 C 0.96268 0.72661 0.47174 0.0
C509 C 0.02194 0.73308 0.53259 0.0
C510 C 0.02537 0.69375 0.52612 0.0
H511 H -0.00786 0.78094 0.49078 0.0
H512 H 0.04642 0.75056 0.54686 0.0
S513 S 0.95017 0.62181 0.50347 0.0
N514 N 0.93331 0.66218 0.47194 0.0
N515 N -0.00885 0.63337 0.53931 0.0
C516 C -0.00825 0.67183 0.52766 0.0
C517 C 0.9609 0.68739 0.49127 0.0
C518 C 0.44725 0.7284 0.7155 0.0
C519 C 0.4754 0.70162 0.70646 0.0
C520 C 0.45789 0.76675 0.7202 0.0
C521 C 0.49673 0.77858 0.71586 0.0
H522 H 0.41702 0.72038 0.71259 0.0
H523 H 0.43555 0.78735 0.72119 0.0
S524 S 0.58089 0.71784 0.71318 0.0
N525 N 0.54325 0.68814 0.70956 0.0
N526 N 0.56328 0.76057 0.71759 0.0
C527 C 0.52502 0.75151 0.71682 0.0
C528 C 0.51423 0.71264 0.71255 0.0
C529 C 0.49704 0.23953 0.99938 0.0
C530 C 0.52645 0.2596 0.96355 0.0
C531 C 0.46689 0.25948 1.02467 0.0
C532 C 0.46426 0.29828 1.00563 0.0
H533 H 0.49643 0.20861 1.00482 0.0
H534 H 0.44233 0.24331 1.04527 0.0
S535 S 0.54148 0.36512 0.9466 0.0
N536 N 0.55751 0.32203 0.9365 0.0
N537 N 0.49922 0.3581 0.98338 0.0
C538 C 0.49766 0.31931 0.9902 0.0
C539 C 0.52874 0.29977 0.96454 0.0
C540 C 0.00857 0.74858 0.88558 0.0
C541 C 0.96856 0.75112 0.88127 0.0
C542 C 0.02468 0.71347 0.88531 0.0
C543 C 0.00093 0.68126 0.8781 0.0
H544 H 0.02695 0.77259 0.89816 0.0
H545 H 0.05463 0.71119 0.89873 0.0
S546 S 0.899 0.67744 0.82794 0.0
N547 N 0.90819 0.72224 0.84606 0.0
N548 N 0.93981 0.65545 0.83864 0.0
C549 C 0.96302 0.68489 0.85684 0.0
C550 C 0.94613 0.72047 0.86046 0.0
C551 C 0.50427 0.72515 0.26731 0.0
C552 C 0.51779 0.73813 0.20366 0.0
C553 C 0.4742 0.69835 0.27354 0.0
C554 C 0.45342 0.68833 0.21623 0.0
H555 H 0.51608 0.73667 0.31285 0.0
H556 H 0.46338 0.69092 0.32385 0.0
S557 S 0.48356 0.70651 1.03844 0.0
N558 N 0.5152 0.73117 0.08245 0.0
N559 N 0.45396 0.6848 0.09417 0.0
C560 C 0.46984 0.69663 0.15237 0.0
C561 C 0.50258 0.72179 0.14602 0.0
C562 C 0.49727 0.21411 0.31101 0.0
C563 C 0.5358 0.21123 0.33043 0.0
C564 C 0.47682 0.24418 0.3351 0.0
C565 C 0.49696 0.27281 0.36884 0.0
H566 H 0.48147 0.18978 0.2923 0.0
H567 H 0.44576 0.24291 0.33355 0.0
S568 S 0.60319 0.28623 0.37748 0.0
N569 N 0.59584 0.2459 0.33938 0.0
N570 N 0.56016 0.30244 0.39087 0.0
C571 C 0.53751 0.27528 0.36303 0.0
C572 C 0.55692 0.24496 0.33522 0.0
C573 C 0.00392 0.26818 0.589 0.0
C574 C 0.02486 0.24156 0.62673 0.0
C575 C 0.96515 0.26072 0.57751 0.0
C576 C 0.94729 0.22769 0.60738 0.0
H577 H 0.01601 0.29653 0.57632 0.0
H578 H 0.94811 0.28398 0.55825 0.0
S579 S -0.00578 0.14241 0.67821 0.0
N580 N 0.02899 0.17549 0.66845 0.0
N581 N 0.95511 0.1623 0.64908 0.0
C582 C 0.96985 0.19719 0.62781 0.0
C583 C 0.00946 0.20438 0.63858 0.0
C584 C 0.02361 0.95836 0.09853 0.0
C585 C -0.00507 -0.01518 0.10459 0.0
C586 C 0.02213 0.93242 1.04785 0.0
C587 C -0.00733 0.93298 0.99963 0.0
H588 H 0.04873 0.95921 0.13044 0.0
H589 H 0.04581 0.91345 1.04417 0.0
S590 S 0.90437 -0.01262 1.00834 0.0
N591 N 0.92993 0.00111 0.07361 0.0
N592 N 0.93122 0.95809 0.96754 0.0
C593 C 0.96189 0.95667 1.00908 0.0
C594 C 0.96195 0.98113 0.06469 0.0
C595 C 0.21038 0.68752 0.31987 0.0
C596 C 0.1959 0.72429 0.3204 0.0
C597 C 0.23556 0.6777 0.26924 0.0
C598 C 0.24869 0.70516 0.22031 0.0
H599 H 0.20288 0.66641 0.35955 0.0
H600 H 0.24636 0.64911 0.27055 0.0
S601 S 0.21994 0.80541 0.19951 0.0
N602 N 0.19557 0.78796 0.26608 0.0
N603 N 0.24576 0.77014 0.17416 0.0
C604 C 0.23493 0.74209 0.22048 0.0
C605 C 0.20799 0.75165 0.27019 0.0
C606 C 0.43641 0.03446 0.58317 0.0
C607 C 0.47094 0.04349 0.54835 0.0
C608 C 0.43325 0.00374 0.6299 0.0
C609 C 0.46501 0.98166 0.64555 0.0
H610 H 0.41104 0.05088 0.57367 0.0
H611 H 0.40567 -0.00288 0.65341 0.0
S612 S 0.56308 -0.0038 0.57443 0.0
N613 N 0.53709 0.02713 0.53162 0.0
N614 N 0.53345 0.97418 0.62978 0.0
C615 C 0.50031 -0.00823 0.61451 0.0
C616 C 0.50278 0.02135 0.56296 0.0
C617 C 0.28648 0.21582 0.77982 0.0
C618 C 0.28914 0.24561 0.82485 0.0
C619 C 0.25672 0.21345 0.73397 0.0
C620 C 0.22897 0.24132 0.72991 0.0
H621 H 0.3065 0.19289 0.78192 0.0
H622 H 0.25444 0.18843 0.7038 0.0
S623 S 0.22896 0.33035 0.82347 0.0
N624 N 0.26387 0.30573 0.85772 0.0
N625 N 0.2114 0.3044 0.7624 0.0
C626 C 0.23415 0.27394 0.76787 0.0
C627 C 0.26334 0.27525 0.818 0.0
C628 C 0.72225 0.2513 0.79308 0.0
C629 C 0.71264 0.22611 0.84773 0.0
C630 C 0.74429 0.23953 0.74012 0.0
C631 C 0.75684 0.20209 0.73973 0.0
H632 H 0.71298 0.28049 0.79134 0.0
H633 H 0.75226 0.26013 0.69973 0.0
S634 S 0.7388 0.125 0.87044 0.0
N635 N 0.71771 0.16241 0.89967 0.0
N636 N 0.75761 0.13933 0.79666 0.0
C637 C 0.74661 0.17612 0.79291 0.0
C638 C 0.725 0.1885 0.8482 0.0
C639 C 0.74877 0.75814 0.34474 0.0
C640 C 0.77768 0.73436 0.32406 0.0
C641 C 0.71836 0.76679 0.30147 0.0
C642 C 0.71699 0.75248 0.23654 0.0
H643 H 0.74781 0.76713 0.39622 0.0
H644 H 0.69414 0.78112 0.32141 0.0
S645 S 0.78995 0.69532 0.15546 0.0
N646 N 0.80608 0.70117 0.23249 0.0
N647 N 0.74943 0.71815 0.15072 0.0
C648 C 0.74794 0.73219 0.21342 0.0
C649 C 0.77832 0.72291 0.25746 0.0
C650 C 0.47949 0.47972 0.59696 0.0
C651 C 0.4972 0.51511 0.57865 0.0
C652 C 0.47417 0.45214 0.549 0.0
C653 C 0.48512 0.46029 0.48175 0.0
H654 H 0.4731 0.47216 0.64938 0.0
H655 H 0.46591 0.42332 0.56631 0.0
S656 S 0.53018 0.54956 0.40878 0.0
N657 N 0.52474 0.5573 0.48963 0.0
N658 N 0.51137 0.50644 0.39819 0.0
C659 C 0.49937 0.49682 0.46213 0.0
C660 C 0.50655 0.52409 0.5112 0.0
C661 C 0.0078 0.48491 1.04854 0.0
C662 C 0.97477 0.5039 1.02856 0.0
C663 C 0.00986 0.46704 0.1129 0.0
C664 C 0.97766 0.46481 0.15543 0.0
H665 H 0.03143 0.48268 1.01364 0.0
H666 H 0.03556 0.45285 0.1279 0.0
S667 S 0.88997 0.52049 0.13595 0.0
N668 N 0.91383 0.52867 0.06458 0.0
N669 N 0.91647 0.49154 0.18207 0.0
C670 C 0.94675 0.48784 0.13976 0.0
C671 C 0.94531 0.50763 0.07626 0.0
C672 C 0.12322 0.12467 0.36469 0.0
C673 C 0.09341 0.09661 0.3659 0.0
C674 C 0.13523 0.14148 0.42408 0.0
C675 C 0.11757 0.13092 0.48627 0.0
H676 H 0.1356 0.13553 0.31722 0.0
H677 H 0.15665 0.16467 0.42042 0.0
S678 S 0.04288 0.05426 0.51782 0.0
N679 N 0.05028 0.05521 0.4356 0.0
N680 N 0.07251 0.08737 0.54694 0.0
C681 C 0.09017 0.1006 0.48895 0.0
C682 C 0.07819 0.08323 0.42868 0.0
C683 C 0.09123 0.85447 0.60622 0.0
C684 C 0.11857 0.82638 0.60255 0.0
C685 C 0.07882 0.86622 0.66856 0.0
C686 C 0.09282 0.84945 0.72876 0.0
H687 H 0.07688 0.86493 0.56118 0.0
H688 H 0.05534 0.88558 0.66925 0.0
S689 S 0.17292 0.78356 0.74526 0.0
N690 N 0.16603 0.78908 0.66324 0.0
N691 N 0.14116 0.81015 0.78109 0.0
C692 C 0.12376 0.82534 0.72561 0.0
C693 C 0.13714 0.81406 0.66197 0.0
C694 C 0.34655 0.78628 0.96888 0.0
C695 C 0.36247 0.7941 1.03218 0.0
C696 C 0.35699 0.80822 0.91069 0.0
C697 C 0.38372 0.83899 0.91336 0.0
H698 H 0.32725 0.76167 0.96357 0.0
H699 H 0.34551 0.79973 0.86277 0.0
S700 S 0.43099 0.87379 0.06762 0.0
N701 N 0.40399 0.83656 0.09495 0.0
N702 N 0.42355 0.87832 0.98562 0.0
C703 C 0.39776 0.84896 0.97708 0.0
C704 C 0.3871 0.82641 1.03656 0.0
C705 C 0.36685 0.16099 0.23895 0.0
C706 C 0.39475 0.13386 0.25064 0.0
C707 C 0.35673 0.17196 0.17323 0.0
C708 C 0.37532 0.15705 0.11759 0.0
H709 H 0.35464 0.17557 0.28054 0.0
H710 H 0.33686 0.1948 0.16629 0.0
S711 S 0.4458 0.08086 0.1216 0.0
N712 N 0.43662 0.08805 0.20162 0.0
N713 N 0.41893 0.11062 0.07778 0.0
C714 C 0.40075 0.12761 0.12852 0.0
C715 C 0.41016 0.11547 0.19543 0.0
C716 C 0.87806 0.81716 0.61862 0.0
C717 C 0.89192 0.78245 0.59469 0.0
C718 C 0.89074 0.83297 0.68098 0.0
C719 C 0.91965 0.81619 0.72153 0.0
H720 H 0.85679 0.83213 0.58931 0.0
H721 H 0.87859 0.85922 0.69632 0.0
S722 S 0.96672 0.72594 0.68195 0.0
N723 N 0.93524 0.73147 0.62102 0.0
N724 N 0.9625 0.76321 0.7289 0.0
C725 C 0.93421 0.78218 0.69673 0.0
C726 C 0.91961 0.76494 0.6364 0.0
C727 C 0.92056 0.10729 0.4498 0.0
C728 C 0.88344 0.12172 0.44793 0.0
C729 C 0.93806 0.09398 0.39198 0.0
C730 C 0.91933 0.09425 0.32922 0.0
H731 H 0.93695 0.10743 0.496 0.0
H732 H 0.96724 0.08459 0.39616 0.0
S733 S 0.82084 0.12704 0.29746 0.0
N734 N 0.8276 0.13369 0.37849 0.0
N735 N 0.86058 0.10868 0.2696 0.0
C736 C 0.88144 0.10687 0.32711 0.0
C737 C 0.86353 0.12063 0.38639 0.0
C738 C 0.56262 0.14597 0.12872 0.0
C739 C 0.59752 0.16784 0.12586 0.0
C740 C 0.54769 0.12893 0.18998 0.0
C741 C 0.56744 0.13136 0.25178 0.0
H742 H 0.54567 0.14334 0.08347 0.0
H743 H 0.51974 0.11451 0.18918 0.0
S744 S 0.66169 0.18307 0.2715 0.0
N745 N 0.65192 0.19008 0.19071 0.0
N746 N 0.62563 0.15634 0.30399 0.0
C747 C 0.60341 0.15166 0.24883 0.0
C748 C 0.61787 0.17029 0.18676 0.0
C749 C 0.57704 0.88476 0.91123 0.0
C750 C 0.5552 0.86168 0.86773 0.0
C751 C 0.59414 0.86894 0.97091 0.0
C752 C 0.59077 0.82934 0.98852 0.0
H753 H 0.5796 0.9153 0.90069 0.0
H754 H 0.60965 0.88788 1.00372 0.0
S755 S 0.5361 0.75696 0.89099 0.0
N756 N 0.53091 0.79762 0.8481 0.0
N757 N 0.56334 0.76799 0.95517 0.0
C758 C 0.56965 0.8063 0.94389 0.0
C759 C 0.55189 0.8224 0.88511 0.0
C760 C 0.61836 0.65492 0.85696 0.0
C761 C 0.59866 0.61925 0.85718 0.0
C762 C 0.62673 0.67253 0.91734 0.0
C763 C 0.61577 0.65494 0.97977 0.0
H764 H 0.625 0.67057 0.80999 0.0
H765 H 0.63961 0.70116 0.91476 0.0
S766 S 0.57547 0.55646 1.008 0.0
N767 N 0.57656 0.56327 0.92513 0.0
N768 N 0.59214 0.59677 1.03895 0.0
C769 C 0.60003 0.6176 0.981 0.0
C770 C 0.59168 0.59953 0.91946 0.0
C771 C 0.59191 0.3866 0.17528 0.0
C772 C 0.60633 0.37415 0.23796 0.0
C773 C 0.60843 0.37562 0.11545 0.0
C774 C 0.63916 0.35086 0.11671 0.0
H775 H 0.56552 0.40196 0.17243 0.0
H776 H 0.59423 0.38309 0.0686 0.0
S777 S 0.6944 0.32036 0.26739 0.0
N778 N 0.65891 0.34461 0.29768 0.0
N779 N 0.68893 0.32163 0.18472 0.0
C780 C 0.65733 0.34297 0.17856 0.0
C781 C 0.64103 0.35522 0.23968 0.0
C782 C 0.84941 0.312 0.40841 0.0
C783 C 0.87897 0.33976 0.41525 0.0
C784 C 0.83151 0.2943 0.46524 0.0
C785 C 0.84294 0.3035 0.53064 0.0
H786 H 0.84209 0.30175 0.35923 0.0
H787 H 0.81151 0.27044 0.45801 0.0
S788 S 0.91343 0.37987 0.5749 0.0
N789 N 0.91425 0.38043 0.49173 0.0
N790 N 0.88105 0.34639 0.59873 0.0
C791 C 0.86891 0.33456 0.53787 0.0
C792 C 0.88705 0.3528 0.4799 0.0
C793 C 0.85216 0.60469 0.71489 0.0
C794 C 0.87922 0.57603 0.71699 0.0
C795 C 0.83888 0.6196 0.65332 0.0
C796 C 0.85197 0.60613 0.59189 0.0
H797 H 0.84384 0.61817 0.76051 0.0
H798 H 0.821 0.64422 0.65391 0.0
S799 S 0.91238 0.52262 0.5717 0.0
N800 N 0.91155 0.52856 0.65377 0.0
N801 N 0.88531 0.55593 0.53772 0.0
C802 C 0.87399 0.5734 0.59382 0.0
C803 C 0.88807 0.55852 0.65668 0.0
C804 C 0.4327 0.36489 0.18088 0.0
C805 C 0.42207 0.34702 0.2438 0.0
C806 C 0.41378 0.35563 0.11982 0.0
C807 C 0.3839 0.32719 0.11795 0.0
H808 H 0.45618 0.38601 0.17859 0.0
H809 H 0.42425 0.36938 0.07312 0.0
S810 S 0.34612 0.27035 0.26757 0.0
N811 N 0.37919 0.29927 0.29917 0.0
N812 N 0.34568 0.28074 0.18568 0.0
C813 C 0.37317 0.3092 0.18053 0.0
C814 C 0.39157 0.31936 0.24272 0.0
C815 C 0.36574 0.61909 0.89513 0.0
C816 C 0.38412 0.61599 0.95814 0.0
C817 C 0.38422 0.609 0.83532 0.0
C818 C 0.42198 0.59599 0.83622 0.0
H819 H 0.33747 0.63075 0.89158 0.0
H820 H 0.3697 0.61362 0.78775 0.0
S821 S 0.48122 0.57964 0.98853 0.0
N822 N 0.44103 0.59604 1.01782 0.0
N823 N 0.47582 0.57803 0.90621 0.0
C824 C 0.43982 0.59114 0.89924 0.0
C825 C 0.42089 0.60086 0.9599 0.0
C826 C 0.08108 0.6074 0.60811 0.0
C827 C 0.10028 0.64373 0.61095 0.0
C828 C 0.0629 0.58862 0.66556 0.0
C829 C 0.06399 0.60446 0.72976 0.0
H830 H 0.07833 0.59403 0.56015 0.0
H831 H 0.0474 0.56169 0.65934 0.0
S832 S 0.10972 0.6986 0.76647 0.0
N833 N 0.118 0.69467 0.68515 0.0
N834 N 0.086 0.65896 0.79204 0.0
C835 C 0.08379 0.64018 0.7337 0.0
C836 C 0.10131 0.65979 0.67503 0.0
C837 C 0.08604 0.31494 0.38179 0.0
C838 C 0.06793 0.35 0.3856 0.0
C839 C 0.10405 0.2977 0.43817 0.0
C840 C 0.10523 0.31478 0.50135 0.0
H841 H 0.08465 0.29967 0.33556 0.0
H842 H 0.11595 0.26989 0.43268 0.0
S843 S 0.06342 0.40775 0.53731 0.0
N844 N 0.05316 0.40185 0.45717 0.0
N845 N 0.08762 0.37017 0.56264 0.0
C846 C 0.08868 0.35081 0.50495 0.0
C847 C 0.06979 0.3681 0.44746 0.0
loop_
_geom_bond_atom_site_label_1
_geom_bond_atom_site_label_2
_geom_bond_distance
_geom_bond_site_symmetry_2
_ccdc_geom_bond_type
Dy0 O4 2.398 . S
Dy0 O5 2.491 . S
Dy0 O6 2.403 . S
Dy0 O7 2.664 1_455 S
Dy0 O11 2.326 1_455 S
Dy0 O15 2.310 . S
Dy0 O16 2.351 . S
C1 O12 1.185 . S
C1 O13 1.355 . S
C2 O4 1.185 . S
C2 O5 1.355 . S
Dy3 O7 2.310 . S
Dy3 O10 2.351 . S
Dy3 O12 2.398 1_554 S
Dy3 O13 2.491 1_554 S
Dy3 O14 2.403 . S
Dy3 O15 2.664 1_655 S
Dy3 O17 2.326 1_654 S
O4 Dy0 2.398 . S
O4 C2 1.185 . S
O5 Dy0 2.491 . S
O5 C2 1.355 . S
O6 Dy0 2.403 . S
O6 C8 1.254 . S
O7 Dy0 2.664 1_655 S
O7 Dy3 2.310 . S
O7 C8 1.268 1_655 S
C8 O6 1.254 . S
C8 O7 1.268 1_455 S
C9 O14 1.254 . S
C9 O15 1.268 1_655 S
O10 Dy3 2.351 . S
O10 C18 1.249 . S
O11 Dy0 2.326 1_655 S
O11 C18 1.267 . S
O12 C1 1.185 . S
O12 Dy3 2.398 1_556 S
O13 C1 1.355 . S
O13 Dy3 2.491 1_556 S
O14 Dy3 2.403 . S
O14 C9 1.254 . S
O15 Dy0 2.310 . S
O15 Dy3 2.664 1_455 S
O15 C9 1.268 1_455 S
O16 Dy0 2.351 . S
O16 C19 1.249 1_554 S
O17 Dy3 2.326 1_456 S
O17 C19 1.267 . S
C18 O10 1.249 . S
C18 O11 1.267 . S
C19 O16 1.249 1_556 S
C19 O17 1.267 . S
Dy20 O24 2.398 . S
Dy20 O25 2.491 . S
Dy20 O26 2.403 . S
Dy20 O27 2.664 . S
Dy20 O31 2.326 . S
Dy20 O35 2.310 . S
Dy20 O36 2.351 . S
C21 O32 1.185 . S
C21 O33 1.355 . S
C22 O24 1.185 . S
C22 O25 1.355 . S
Dy23 O27 2.310 . S
Dy23 O30 2.351 . S
Dy23 O32 2.398 . S
Dy23 O33 2.491 . S
Dy23 O34 2.403 . S
Dy23 O35 2.664 . S
Dy23 O37 2.326 . S
O24 Dy20 2.398 . S
O24 C22 1.185 . S
O25 Dy20 2.491 . S
O25 C22 1.355 . S
O26 Dy20 2.403 . S
O26 C28 1.254 . S
O27 Dy20 2.664 . S
O27 Dy23 2.310 . S
O27 C28 1.268 . S
C28 O26 1.254 . S
C28 O27 1.268 . S
C29 O34 1.254 . S
C29 O35 1.268 . S
O30 Dy23 2.351 . S
O30 C38 1.249 . S
O31 Dy20 2.326 . S
O31 C38 1.267 . S
O32 C21 1.185 . S
O32 Dy23 2.398 . S
O33 C21 1.355 . S
O33 Dy23 2.491 . S
O34 Dy23 2.403 . S
O34 C29 1.254 . S
O35 Dy20 2.310 . S
O35 Dy23 2.664 . S
O35 C29 1.268 . S
O36 Dy20 2.351 . S
O36 C39 1.249 . S
O37 Dy23 2.326 . S
O37 C39 1.267 . S
C38 O30 1.249 . S
C38 O31 1.267 . S
C39 O36 1.249 . S
C39 O37 1.267 . S
Dy40 O44 2.398 . S
Dy40 O45 2.491 . S
Dy40 O46 2.403 . S
Dy40 O47 2.664 . S
Dy40 O51 2.326 . S
Dy40 O55 2.310 . S
Dy40 O56 2.351 . S
C41 O52 1.185 . S
C41 O53 1.355 . S
C42 O44 1.185 . S
C42 O45 1.355 . S
Dy43 O47 2.310 . S
Dy43 O50 2.351 . S
Dy43 O52 2.398 . S
Dy43 O53 2.491 . S
Dy43 O54 2.403 . S
Dy43 O55 2.664 . S
Dy43 O57 2.326 . S
O44 Dy40 2.398 . S
O44 C42 1.185 . S
O45 Dy40 2.491 . S
O45 C42 1.355 . S
O46 Dy40 2.403 . S
O46 C48 1.254 . S
O47 Dy40 2.664 . S
O47 Dy43 2.310 . S
O47 C48 1.268 . S
C48 O46 1.254 . S
C48 O47 1.268 . S
C49 O54 1.254 . S
C49 O55 1.268 . S
O50 Dy43 2.351 . S
O50 C58 1.249 . S
O51 Dy40 2.326 . S
O51 C58 1.267 . S
O52 C41 1.185 . S
O52 Dy43 2.398 . S
O53 C41 1.355 . S
O53 Dy43 2.491 . S
O54 Dy43 2.403 . S
O54 C49 1.254 . S
O55 Dy40 2.310 . S
O55 Dy43 2.664 . S
O55 C49 1.268 . S
O56 Dy40 2.351 . S
O56 C59 1.249 . S
O57 Dy43 2.326 . S
O57 C59 1.267 . S
C58 O50 1.249 . S
C58 O51 1.267 . S
C59 O56 1.249 . S
C59 O57 1.267 . S
Dy60 O64 2.398 1_556 S
Dy60 O65 2.491 1_556 S
Dy60 O66 2.403 . S
Dy60 O67 2.664 . S
Dy60 O71 2.326 . S
Dy60 O75 2.310 . S
Dy60 O76 2.351 . S
C61 O72 1.185 . S
C61 O73 1.355 . S
C62 O64 1.185 . S
C62 O65 1.355 . S
Dy63 O67 2.310 . S
Dy63 O70 2.351 . S
Dy63 O72 2.398 . S
Dy63 O73 2.491 . S
Dy63 O74 2.403 . S
Dy63 O75 2.664 . S
Dy63 O77 2.326 . S
O64 Dy60 2.398 1_554 S
O64 C62 1.185 . S
O65 Dy60 2.491 1_554 S
O65 C62 1.355 . S
O66 Dy60 2.403 . S
O66 C68 1.254 . S
O67 Dy60 2.664 . S
O67 Dy63 2.310 . S
O67 C68 1.268 . S
C68 O66 1.254 . S
C68 O67 1.268 . S
C69 O74 1.254 . S
C69 O75 1.268 . S
O70 Dy63 2.351 . S
O70 C78 1.249 . S
O71 Dy60 2.326 . S
O71 C78 1.267 . S
O72 C61 1.185 . S
O72 Dy63 2.398 . S
O73 C61 1.355 . S
O73 Dy63 2.491 . S
O74 Dy63 2.403 . S
O74 C69 1.254 . S
O75 Dy60 2.310 . S
O75 Dy63 2.664 . S
O75 C69 1.268 . S
O76 Dy60 2.351 . S
O76 C79 1.249 . S
O77 Dy63 2.326 . S
O77 C79 1.267 . S
C78 O70 1.249 . S
C78 O71 1.267 . S
C79 O76 1.249 . S
C79 O77 1.267 . S
Dy80 O84 2.398 . S
Dy80 O85 2.491 . S
Dy80 O86 2.403 . S
Dy80 O87 2.663 1_455 S
Dy80 O91 2.308 1_455 S
Dy80 O95 2.310 . S
Dy80 O96 2.351 . S
C81 O92 1.185 . S
C81 O93 1.355 . S
C82 O84 1.185 . S
C82 O85 1.355 . S
Dy83 O87 2.310 . S
Dy83 O90 2.351 . S
Dy83 O92 2.398 1_556 S
Dy83 O93 2.491 1_556 S
Dy83 O94 2.403 . S
Dy83 O95 2.664 1_655 S
Dy83 O97 2.326 1_655 S
O84 Dy80 2.398 . S
O84 C82 1.185 . S
O85 Dy80 2.491 . S
O85 C82 1.355 . S
O86 Dy80 2.403 . S
O86 C88 1.254 . S
O87 Dy80 2.663 1_655 S
O87 Dy83 2.310 . S
O87 C88 1.267 1_655 S
C88 O86 1.254 . S
C88 O87 1.267 1_455 S
C89 O94 1.254 . S
C89 O95 1.268 1_655 S
O90 Dy83 2.351 . S
O90 C98 1.249 . S
O91 Dy80 2.308 1_655 S
O91 C98 1.288 . S
O92 C81 1.185 . S
O92 Dy83 2.398 1_554 S
O93 C81 1.355 . S
O93 Dy83 2.491 1_554 S
O94 Dy83 2.403 . S
O94 C89 1.254 . S
O95 Dy80 2.310 . S
O95 Dy83 2.664 1_455 S
O95 C89 1.268 1_455 S
O96 Dy80 2.351 . S
O96 C99 1.249 . S
O97 Dy83 2.326 1_455 S
O97 C99 1.267 . S
C98 O90 1.249 . S
C98 O91 1.288 . S
C99 O96 1.249 . S
C99 O97 1.267 . S
Dy100 O104 2.398 . S
Dy100 O105 2.491 . S
Dy100 O106 2.403 . S
Dy100 O107 2.664 . S
Dy100 O111 2.326 . S
Dy100 O115 2.310 . S
Dy100 O116 2.351 . S
C101 O112 1.197 . S
C101 O113 1.355 . S
C102 O104 1.185 . S
C102 O105 1.355 . S
Dy103 O107 2.310 . S
Dy103 O110 2.351 . S
Dy103 O112 2.382 1_554 S
Dy103 O113 2.491 1_554 S
Dy103 O114 2.403 . S
Dy103 O115 2.664 . S
Dy103 O117 2.326 . S
O104 Dy100 2.398 . S
O104 C102 1.185 . S
O105 Dy100 2.491 . S
O105 C102 1.355 . S
O106 Dy100 2.403 . S
O106 C108 1.254 . S
O107 Dy100 2.664 . S
O107 Dy103 2.310 . S
O107 C108 1.268 . S
C108 O106 1.254 . S
C108 O107 1.268 . S
C109 O114 1.254 . S
C109 O115 1.268 . S
O110 Dy103 2.351 . S
O110 C118 1.249 . S
O111 Dy100 2.326 . S
O111 C118 1.267 . S
O112 C101 1.197 . S
O112 Dy103 2.382 1_556 S
O113 C101 1.355 . S
O113 Dy103 2.491 1_556 S
O114 Dy103 2.403 . S
O114 C109 1.254 . S
O115 Dy100 2.310 . S
O115 Dy103 2.664 . S
O115 C109 1.268 . S
O116 Dy100 2.351 . S
O116 C119 1.249 . S
O117 Dy103 2.326 . S
O117 C119 1.267 . S
C118 O110 1.249 . S
C118 O111 1.267 . S
C119 O116 1.249 . S
C119 O117 1.267 . S
Dy120 O124 2.398 . S
Dy120 O125 2.491 . S
Dy120 O126 2.403 . S
Dy120 O127 2.664 . S
Dy120 O131 2.326 . S
Dy120 O135 2.310 . S
Dy120 O136 2.351 . S
C121 O132 1.185 . S
C121 O133 1.355 . S
C122 O124 1.185 . S
C122 O125 1.355 . S
Dy123 O127 2.310 . S
Dy123 O130 2.351 . S
Dy123 O132 2.398 . S
Dy123 O133 2.491 . S
Dy123 O134 2.403 . S
Dy123 O135 2.664 . S
Dy123 O137 2.326 . S
O124 Dy120 2.398 . S
O124 C122 1.185 . S
O125 Dy120 2.491 . S
O125 C122 1.355 . S
O126 Dy120 2.403 . S
O126 C128 1.254 . S
O127 Dy120 2.664 . S
O127 Dy123 2.310 . S
O127 C128 1.268 . S
C128 O126 1.254 . S
C128 O127 1.268 . S
C129 O134 1.254 . S
C129 O135 1.268 . S
O130 Dy123 2.351 . S
O130 C138 1.249 . S
O131 Dy120 2.326 . S
O131 C138 1.267 . S
O132 C121 1.185 . S
O132 Dy123 2.398 . S
O133 C121 1.355 . S
O133 Dy123 2.491 . S
O134 Dy123 2.403 . S
O134 C129 1.254 . S
O135 Dy120 2.310 . S
O135 Dy123 2.664 . S
O135 C129 1.268 . S
O136 Dy120 2.351 . S
O136 C139 1.249 . S
O137 Dy123 2.326 . S
O137 C139 1.267 . S
C138 O130 1.249 . S
C138 O131 1.267 . S
C139 O136 1.249 . S
C139 O137 1.267 . S
Dy140 O144 2.398 . S
Dy140 O145 2.491 . S
Dy140 O146 2.403 . S
Dy140 O147 2.664 . S
Dy140 O151 2.326 . S
Dy140 O155 2.310 . S
Dy140 O156 2.351 . S
C141 O152 1.185 . S
C141 O153 1.355 . S
C142 O144 1.185 . S
C142 O145 1.355 . S
Dy143 O147 2.310 . S
Dy143 O150 2.351 . S
Dy143 O152 2.398 . S
Dy143 O153 2.491 . S
Dy143 O154 2.403 . S
Dy143 O155 2.664 . S
Dy143 O157 2.326 . S
O144 Dy140 2.398 . S
O144 C142 1.185 . S
O145 Dy140 2.491 . S
O145 C142 1.355 . S
O146 Dy140 2.403 . S
O146 C148 1.254 . S
O147 Dy140 2.664 . S
O147 Dy143 2.310 . S
O147 C148 1.268 . S
C148 O146 1.254 . S
C148 O147 1.268 . S
C149 O154 1.254 . S
C149 O155 1.268 . S
O150 Dy143 2.351 . S
O150 C158 1.249 . S
O151 Dy140 2.326 . S
O151 C158 1.267 . S
O152 C141 1.185 . S
O152 Dy143 2.398 . S
O153 C141 1.355 . S
O153 Dy143 2.491 . S
O154 Dy143 2.403 . S
O154 C149 1.254 . S
O155 Dy140 2.310 . S
O155 Dy143 2.664 . S
O155 C149 1.268 . S
O156 Dy140 2.351 . S
O156 C159 1.249 . S
O157 Dy143 2.326 . S
O157 C159 1.267 . S
C158 O150 1.249 . S
C158 O151 1.267 . S
C159 O156 1.249 . S
C159 O157 1.267 . S
Dy160 O164 2.398 . S
Dy160 O165 2.491 . S
Dy160 O166 2.403 . S
Dy160 O167 2.664 . S
Dy160 O171 2.326 . S
Dy160 O175 2.310 . S
Dy160 O176 2.351 . S
C161 O172 1.185 . S
C161 O173 1.355 . S
C162 O164 1.185 . S
C162 O165 1.355 . S
Dy163 O167 2.310 . S
Dy163 O170 2.351 . S
Dy163 O172 2.398 . S
Dy163 O173 2.491 . S
Dy163 O174 2.403 . S
Dy163 O175 2.664 . S
Dy163 O177 2.326 . S
O164 Dy160 2.398 . S
O164 C162 1.185 . S
O165 Dy160 2.491 . S
O165 C162 1.355 . S
O166 Dy160 2.403 . S
O166 C168 1.254 . S
O167 Dy160 2.664 . S
O167 Dy163 2.310 . S
O167 C168 1.268 . S
C168 O166 1.254 . S
C168 O167 1.268 . S
C169 O174 1.254 . S
C169 O175 1.268 . S
O170 Dy163 2.351 . S
O170 C178 1.249 . S
O171 Dy160 2.326 . S
O171 C178 1.267 . S
O172 C161 1.185 . S
O172 Dy163 2.398 . S
O173 C161 1.355 . S
O173 Dy163 2.491 . S
O174 Dy163 2.403 . S
O174 C169 1.254 . S
O175 Dy160 2.310 . S
O175 Dy163 2.664 . S
O175 C169 1.268 . S
O176 Dy160 2.351 . S
O176 C179 1.249 . S
O177 Dy163 2.326 . S
O177 C179 1.267 . S
C178 O170 1.249 . S
C178 O171 1.267 . S
C179 O176 1.249 . S
C179 O177 1.267 . S
Dy180 O184 2.398 1_554 S
Dy180 O185 2.491 1_554 S
Dy180 O186 2.403 . S
Dy180 O187 2.664 . S
Dy180 O191 2.326 . S
Dy180 O195 2.310 . S
Dy180 O196 2.351 . S
C181 O192 1.185 . S
C181 O193 1.355 . S
C182 O184 1.185 . S
C182 O185 1.355 . S
Dy183 O187 2.310 . S
Dy183 O190 2.351 . S
Dy183 O192 2.398 . S
Dy183 O193 2.491 . S
Dy183 O194 2.403 . S
Dy183 O195 2.664 . S
Dy183 O197 2.326 . S
O184 Dy180 2.398 1_556 S
O184 C182 1.185 . S
O185 Dy180 2.491 1_556 S
O185 C182 1.355 . S
O186 Dy180 2.403 . S
O186 C188 1.254 . S
O187 Dy180 2.664 . S
O187 Dy183 2.310 . S
O187 C188 1.268 . S
C188 O186 1.254 . S
C188 O187 1.268 . S
C189 O194 1.254 . S
C189 O195 1.268 . S
O190 Dy183 2.351 . S
O190 C198 1.249 . S
O191 Dy180 2.326 . S
O191 C198 1.267 . S
O192 C181 1.185 . S
O192 Dy183 2.398 . S
O193 C181 1.355 . S
O193 Dy183 2.491 . S
O194 Dy183 2.403 . S
O194 C189 1.254 . S
O195 Dy180 2.310 . S
O195 Dy183 2.664 . S
O195 C189 1.268 . S
O196 Dy180 2.351 . S
O196 C199 1.249 . S
O197 Dy183 2.326 . S
O197 C199 1.267 . S
C198 O190 1.249 . S
C198 O191 1.267 . S
C199 O196 1.249 . S
C199 O197 1.267 . S
Dy200 O204 2.412 . S
Dy200 O205 2.491 1_556 S
Dy200 O206 2.403 . S
Dy200 O207 2.664 . S
Dy200 O211 2.326 . S
Dy200 O215 2.310 . S
Dy200 O216 2.351 . S
C201 O212 1.185 . S
C201 O213 1.355 . S
C202 O204 1.174 1_554 S
C202 O205 1.355 . S
Dy203 O207 2.310 . S
Dy203 O210 2.351 . S
Dy203 O212 2.398 . S
Dy203 O213 2.491 . S
Dy203 O214 2.403 . S
Dy203 O215 2.664 . S
Dy203 O217 2.326 . S
O204 Dy200 2.412 . S
O204 C202 1.174 1_556 S
O205 Dy200 2.491 1_554 S
O205 C202 1.355 . S
O206 Dy200 2.403 . S
O206 C208 1.254 . S
O207 Dy200 2.664 . S
O207 Dy203 2.310 . S
O207 C208 1.268 . S
C208 O206 1.254 . S
C208 O207 1.268 . S
C209 O214 1.254 . S
C209 O215 1.268 . S
O210 Dy203 2.351 . S
O210 C218 1.249 . S
O211 Dy200 2.326 . S
O211 C218 1.267 . S
O212 C201 1.185 . S
O212 Dy203 2.398 . S
O213 C201 1.355 . S
O213 Dy203 2.491 . S
O214 Dy203 2.403 . S
O214 C209 1.254 . S
O215 Dy200 2.310 . S
O215 Dy203 2.664 . S
O215 C209 1.268 . S
O216 Dy200 2.351 . S
O216 C219 1.249 . S
O217 Dy203 2.326 . S
O217 C219 1.267 . S
C218 O210 1.249 . S
C218 O211 1.267 . S
C219 O216 1.249 . S
C219 O217 1.267 . S
Dy220 O224 2.398 . S
Dy220 O225 2.491 . S
Dy220 O226 2.403 . S
Dy220 O227 2.664 . S
Dy220 O231 2.326 . S
Dy220 O235 2.310 . S
Dy220 O236 2.351 . S
C221 O232 1.185 . S
C221 O233 1.355 . S
C222 O224 1.185 . S
C222 O225 1.355 . S
Dy223 O227 2.310 . S
Dy223 O230 2.351 . S
Dy223 O232 2.398 . S
Dy223 O233 2.491 . S
Dy223 O234 2.403 . S
Dy223 O235 2.664 . S
Dy223 O237 2.326 . S
O224 Dy220 2.398 . S
O224 C222 1.185 . S
O225 Dy220 2.491 . S
O225 C222 1.355 . S
O226 Dy220 2.403 . S
O226 C228 1.254 . S
O227 Dy220 2.664 . S
O227 Dy223 2.310 . S
O227 C228 1.268 . S
C228 O226 1.254 . S
C228 O227 1.268 . S
C229 O234 1.254 . S
C229 O235 1.268 . S
O230 Dy223 2.351 . S
O230 C238 1.249 . S
O231 Dy220 2.326 . S
O231 C238 1.267 . S
O232 C221 1.185 . S
O232 Dy223 2.398 . S
O233 C221 1.355 . S
O233 Dy223 2.491 . S
O234 Dy223 2.403 . S
O234 C229 1.254 . S
O235 Dy220 2.310 . S
O235 Dy223 2.664 . S
O235 C229 1.268 . S
O236 Dy220 2.351 . S
O236 C239 1.249 . S
O237 Dy223 2.326 . S
O237 C239 1.267 . S
C238 O230 1.249 . S
C238 O231 1.267 . S
C239 O236 1.249 . S
C239 O237 1.267 . S
Dy240 O244 2.398 . S
Dy240 O245 2.491 . S
Dy240 O246 2.403 . S
Dy240 O247 2.664 . S
Dy240 O251 2.326 . S
Dy240 O255 2.310 . S
Dy240 O256 2.351 . S
C241 O252 1.185 . S
C241 O253 1.355 . S
C242 O244 1.185 . S
C242 O245 1.355 . S
Dy243 O247 2.310 . S
Dy243 O250 2.351 . S
Dy243 O252 2.398 . S
Dy243 O253 2.491 . S
Dy243 O254 2.403 . S
Dy243 O255 2.664 . S
Dy243 O257 2.326 . S
O244 Dy240 2.398 . S
O244 C242 1.185 . S
O245 Dy240 2.491 . S
O245 C242 1.355 . S
O246 Dy240 2.403 . S
O246 C248 1.254 . S
O247 Dy240 2.664 . S
O247 Dy243 2.310 . S
O247 C248 1.268 . S
C248 O246 1.254 . S
C248 O247 1.268 . S
C249 O254 1.254 . S
C249 O255 1.268 . S
O250 Dy243 2.351 . S
O250 C258 1.249 . S
O251 Dy240 2.326 . S
O251 C258 1.267 . S
O252 C241 1.185 . S
O252 Dy243 2.398 . S
O253 C241 1.355 . S
O253 Dy243 2.491 . S
O254 Dy243 2.403 . S
O254 C249 1.254 . S
O255 Dy240 2.310 . S
O255 Dy243 2.664 . S
O255 C249 1.268 . S
O256 Dy240 2.351 . S
O256 C259 1.249 . S
O257 Dy243 2.326 . S
O257 C259 1.267 . S
C258 O250 1.249 . S
C258 O251 1.267 . S
C259 O256 1.249 . S
C259 O257 1.267 . S
Dy260 O264 2.398 . S
Dy260 O265 2.491 . S
Dy260 O266 2.403 . S
Dy260 O267 2.664 1_655 S
Dy260 O271 2.326 1_655 S
Dy260 O275 2.310 . S
Dy260 O276 2.351 . S
C261 O272 1.185 1_556 S
C261 O273 1.355 . S
C262 O264 1.185 . S
C262 O265 1.355 . S
Dy263 O267 2.310 . S
Dy263 O270 2.351 . S
Dy263 O272 2.398 . S
Dy263 O273 2.491 1_554 S
Dy263 O274 2.403 . S
Dy263 O275 2.664 1_455 S
Dy263 O277 2.326 1_455 S
O264 Dy260 2.398 . S
O264 C262 1.185 . S
O265 Dy260 2.491 . S
O265 C262 1.355 . S
O266 Dy260 2.403 . S
O266 C268 1.254 . S
O267 Dy260 2.664 1_455 S
O267 Dy263 2.310 . S
O267 C268 1.268 1_455 S
C268 O266 1.254 . S
C268 O267 1.268 1_655 S
C269 O274 1.254 . S
C269 O275 1.268 1_455 S
O270 Dy263 2.351 . S
O270 C278 1.249 . S
O271 Dy260 2.326 1_455 S
O271 C278 1.267 . S
O272 C261 1.185 1_554 S
O272 Dy263 2.398 . S
O273 C261 1.355 . S
O273 Dy263 2.491 1_556 S
O274 Dy263 2.403 . S
O274 C269 1.254 . S
O275 Dy260 2.310 . S
O275 Dy263 2.664 1_655 S
O275 C269 1.268 1_655 S
O276 Dy260 2.351 . S
O276 C279 1.249 . S
O277 Dy263 2.326 1_655 S
O277 C279 1.267 . S
C278 O270 1.249 . S
C278 O271 1.267 . S
C279 O276 1.249 . S
C279 O277 1.267 . S
Dy280 O284 2.398 . S
Dy280 O285 2.491 . S
Dy280 O286 2.403 . S
Dy280 O287 2.664 . S
Dy280 O291 2.326 . S
Dy280 O295 2.310 . S
Dy280 O296 2.351 . S
C281 O292 1.185 . S
C281 O293 1.355 . S
C282 O284 1.185 . S
C282 O285 1.355 . S
Dy283 O287 2.310 . S
Dy283 O290 2.351 . S
Dy283 O292 2.398 . S
Dy283 O293 2.491 . S
Dy283 O294 2.403 . S
Dy283 O295 2.664 . S
Dy283 O297 2.326 . S
O284 Dy280 2.398 . S
O284 C282 1.185 . S
O285 Dy280 2.491 . S
O285 C282 1.355 . S
O286 Dy280 2.403 . S
O286 C288 1.254 . S
O287 Dy280 2.664 . S
O287 Dy283 2.310 . S
O287 C288 1.268 . S
C288 O286 1.254 . S
C288 O287 1.268 . S
C289 O294 1.254 . S
C289 O295 1.268 . S
O290 Dy283 2.351 . S
O290 C298 1.249 . S
O291 Dy280 2.326 . S
O291 C298 1.267 . S
O292 C281 1.185 . S
O292 Dy283 2.398 . S
O293 C281 1.355 . S
O293 Dy283 2.491 . S
O294 Dy283 2.403 . S
O294 C289 1.254 . S
O295 Dy280 2.310 . S
O295 Dy283 2.664 . S
O295 C289 1.268 . S
O296 Dy280 2.351 . S
O296 C299 1.249 . S
O297 Dy283 2.326 . S
O297 C299 1.267 . S
C298 O290 1.249 . S
C298 O291 1.267 . S
C299 O296 1.249 . S
C299 O297 1.267 . S
Dy300 O304 2.398 . S
Dy300 O305 2.491 . S
Dy300 O306 2.403 . S
Dy300 O307 2.664 1_655 S
Dy300 O311 2.326 1_655 S
Dy300 O315 2.310 . S
Dy300 O316 2.351 . S
C301 O312 1.185 . S
C301 O313 1.355 . S
C302 O304 1.185 . S
C302 O305 1.355 . S
Dy303 O307 2.310 . S
Dy303 O310 2.351 . S
Dy303 O312 2.398 1_556 S
Dy303 O313 2.491 1_556 S
Dy303 O314 2.403 . S
Dy303 O315 2.664 1_455 S
Dy303 O317 2.326 1_455 S
O304 Dy300 2.398 . S
O304 C302 1.185 . S
O305 Dy300 2.491 . S
O305 C302 1.355 . S
O306 Dy300 2.403 . S
O306 C308 1.254 . S
O307 Dy300 2.664 1_455 S
O307 Dy303 2.310 . S
O307 C308 1.268 1_455 S
C308 O306 1.254 . S
C308 O307 1.268 1_655 S
C309 O314 1.254 . S
C309 O315 1.268 1_455 S
O310 Dy303 2.351 . S
O310 C318 1.249 . S
O311 Dy300 2.326 1_455 S
O311 C318 1.267 . S
O312 C301 1.185 . S
O312 Dy303 2.398 1_554 S
O313 C301 1.355 . S
O313 Dy303 2.491 1_554 S
O314 Dy303 2.403 . S
O314 C309 1.254 . S
O315 Dy300 2.310 . S
O315 Dy303 2.664 1_655 S
O315 C309 1.268 1_655 S
O316 Dy300 2.351 . S
O316 C319 1.249 . S
O317 Dy303 2.326 1_655 S
O317 C319 1.267 . S
C318 O310 1.249 . S
C318 O311 1.267 . S
C319 O316 1.249 . S
C319 O317 1.267 . S
C320 C321 1.369 . S
C320 C322 1.419 . S
C320 H324 0.930 . S
C321 C320 1.369 . S
C321 C330 1.429 . S
C322 C320 1.419 . S
C322 C323 1.363 . S
C322 H325 0.929 . S
C323 C322 1.363 . S
C323 C329 1.428 . S
H324 C320 0.930 . S
H325 C322 0.929 . S
S326 N327 1.613 . S
S326 N328 1.610 . S
N327 S326 1.613 . S
N327 C330 1.350 . S
N328 S326 1.610 . S
N328 C329 1.351 . S
C329 C323 1.428 . S
C329 N328 1.351 . S
C329 C330 1.434 . S
C330 C321 1.429 . S
C330 N327 1.350 . S
C330 C329 1.434 . S
C331 C332 1.369 . S
C331 C333 1.419 . S
C331 H335 0.930 . S
C332 C331 1.369 . S
C332 C341 1.429 . S
C333 C331 1.419 . S
C333 C334 1.363 . S
C333 H336 0.929 . S
C334 C333 1.363 . S
C334 C340 1.428 . S
H335 C331 0.930 . S
H336 C333 0.929 . S
S337 N338 1.613 . S
S337 N339 1.610 . S
N338 S337 1.613 . S
N338 C341 1.350 . S
N339 S337 1.610 . S
N339 C340 1.351 . S
C340 C334 1.428 . S
C340 N339 1.351 . S
C340 C341 1.434 . S
C341 C332 1.429 . S
C341 N338 1.350 . S
C341 C340 1.434 . S
C342 C343 1.369 . S
C342 C344 1.419 . S
C342 H346 0.930 . S
C343 C342 1.369 . S
C343 C352 1.429 . S
C344 C342 1.419 . S
C344 C345 1.363 . S
C344 H347 0.929 . S
C345 C344 1.363 . S
C345 C351 1.428 . S
H346 C342 0.930 . S
H347 C344 0.929 . S
S348 N349 1.613 . S
S348 N350 1.610 . S
N349 S348 1.613 . S
N349 C352 1.350 . S
N350 S348 1.610 . S
N350 C351 1.351 . S
C351 C345 1.428 . S
C351 N350 1.351 . S
C351 C352 1.434 . S
C352 C343 1.429 . S
C352 N349 1.350 . S
C352 C351 1.434 . S
C353 C354 1.369 . S
C353 C355 1.419 . S
C353 H357 0.930 . S
C354 C353 1.369 . S
C354 C363 1.429 . S
C355 C353 1.419 . S
C355 C356 1.363 . S
C355 H358 0.929 . S
C356 C355 1.363 . S
C356 C362 1.428 . S
H357 C353 0.930 . S
H358 C355 0.929 . S
S359 N360 1.613 . S
S359 N361 1.610 . S
N360 S359 1.613 . S
N360 C363 1.350 . S
N361 S359 1.610 . S
N361 C362 1.351 . S
C362 C356 1.428 . S
C362 N361 1.351 . S
C362 C363 1.434 . S
C363 C354 1.429 . S
C363 N360 1.350 . S
C363 C362 1.434 . S
C364 C365 1.369 . S
C364 C366 1.419 . S
C364 H368 0.930 . S
C365 C364 1.369 . S
C365 C374 1.429 . S
C366 C364 1.419 . S
C366 C367 1.363 . S
C366 H369 0.929 . S
C367 C366 1.363 . S
C367 C373 1.428 . S
H368 C364 0.930 . S
H369 C366 0.929 . S
S370 N371 1.613 . S
S370 N372 1.610 . S
N371 S370 1.613 . S
N371 C374 1.350 . S
N372 S370 1.610 . S
N372 C373 1.351 . S
C373 C367 1.428 . S
C373 N372 1.351 . S
C373 C374 1.434 . S
C374 C365 1.429 . S
C374 N371 1.350 . S
C374 C373 1.434 . S
C375 C376 1.369 . S
C375 C377 1.419 . S
C375 H379 0.930 . S
C376 C375 1.369 . S
C376 C385 1.429 . S
C377 C375 1.419 . S
C377 C378 1.363 . S
C377 H380 0.929 . S
C378 C377 1.363 . S
C378 C384 1.428 . S
H379 C375 0.930 . S
H380 C377 0.929 . S
S381 N382 1.613 . S
S381 N383 1.610 . S
N382 S381 1.613 . S
N382 C385 1.350 . S
N383 S381 1.610 . S
N383 C384 1.351 . S
C384 C378 1.428 . S
C384 N383 1.351 . S
C384 C385 1.434 . S
C385 C376 1.429 . S
C385 N382 1.350 . S
C385 C384 1.434 . S
C386 C387 1.369 . S
C386 C388 1.419 . S
C386 H390 0.930 . S
C387 C386 1.369 . S
C387 C396 1.429 . S
C388 C386 1.419 . S
C388 C389 1.363 . S
C388 H391 0.929 . S
C389 C388 1.363 . S
C389 C395 1.428 . S
H390 C386 0.930 . S
H391 C388 0.929 . S
S392 N393 1.613 . S
S392 N394 1.610 . S
N393 S392 1.613 . S
N393 C396 1.350 . S
N394 S392 1.610 . S
N394 C395 1.351 . S
C395 C389 1.428 . S
C395 N394 1.351 . S
C395 C396 1.434 . S
C396 C387 1.429 . S
C396 N393 1.350 . S
C396 C395 1.434 . S
C397 C398 1.369 . S
C397 C399 1.419 . S
C397 H401 0.930 . S
C398 C397 1.369 . S
C398 C407 1.429 . S
C399 C397 1.419 . S
C399 C400 1.363 . S
C399 H402 0.929 . S
C400 C399 1.363 . S
C400 C406 1.428 . S
H401 C397 0.930 . S
H402 C399 0.929 . S
S403 N404 1.613 . S
S403 N405 1.610 . S
N404 S403 1.613 . S
N404 C407 1.350 . S
N405 S403 1.610 . S
N405 C406 1.351 . S
C406 C400 1.428 . S
C406 N405 1.351 . S
C406 C407 1.434 . S
C407 C398 1.429 . S
C407 N404 1.350 . S
C407 C406 1.434 . S
C408 C409 1.369 . S
C408 C410 1.419 . S
C408 H412 0.930 . S
C409 C408 1.369 . S
C409 C418 1.429 . S
C410 C408 1.419 . S
C410 C411 1.363 . S
C410 H413 0.929 . S
C411 C410 1.363 . S
C411 C417 1.428 . S
H412 C408 0.930 . S
H413 C410 0.929 . S
S414 N415 1.613 . S
S414 N416 1.610 . S
N415 S414 1.613 . S
N415 C418 1.350 . S
N416 S414 1.610 . S
N416 C417 1.351 . S
C417 C411 1.428 . S
C417 N416 1.351 . S
C417 C418 1.434 . S
C418 C409 1.429 . S
C418 N415 1.350 . S
C418 C417 1.434 . S
C419 C420 1.369 . S
C419 C421 1.419 . S
C419 H423 0.930 . S
C420 C419 1.369 . S
C420 C429 1.429 . S
C421 C419 1.419 . S
C421 C422 1.363 . S
C421 H424 0.929 . S
C422 C421 1.363 . S
C422 C428 1.428 . S
H423 C419 0.930 . S
H424 C421 0.929 . S
S425 N426 1.613 . S
S425 N427 1.610 . S
N426 S425 1.613 . S
N426 C429 1.350 . S
N427 S425 1.610 . S
N427 C428 1.351 . S
C428 C422 1.428 . S
C428 N427 1.351 . S
C428 C429 1.434 . S
C429 C420 1.429 . S
C429 N426 1.350 . S
C429 C428 1.434 . S
C430 C431 1.369 . S
C430 C432 1.419 . S
C430 H434 0.930 1_556 S
C431 C430 1.369 . S
C431 C440 1.429 . S
C432 C430 1.419 . S
C432 C433 1.363 . S
C432 H435 0.929 . S
C433 C432 1.363 . S
C433 C439 1.428 . S
H434 C430 0.930 1_554 S
H435 C432 0.929 . S
S436 N437 1.613 . S
S436 N438 1.610 . S
N437 S436 1.613 . S
N437 C440 1.350 . S
N438 S436 1.610 . S
N438 C439 1.351 . S
C439 C433 1.428 . S
C439 N438 1.351 . S
C439 C440 1.434 . S
C440 C431 1.429 . S
C440 N437 1.350 . S
C440 C439 1.434 . S
C441 C442 1.369 . S
C441 C443 1.419 . S
C441 H445 0.930 . S
C442 C441 1.369 . S
C442 C451 1.429 . S
C443 C441 1.419 . S
C443 C444 1.363 . S
C443 H446 0.929 . S
C444 C443 1.363 . S
C444 C450 1.428 . S
H445 C441 0.930 . S
H446 C443 0.929 . S
S447 N448 1.613 . S
S447 N449 1.610 . S
N448 S447 1.613 . S
N448 C451 1.350 . S
N449 S447 1.610 . S
N449 C450 1.351 . S
C450 C444 1.428 . S
C450 N449 1.351 . S
C450 C451 1.434 . S
C451 C442 1.429 . S
C451 N448 1.350 . S
C451 C450 1.434 . S
C452 C453 1.369 . S
C452 C454 1.419 . S
C452 H456 0.930 . S
C453 C452 1.369 . S
C453 C462 1.429 . S
C454 C452 1.419 . S
C454 C455 1.363 . S
C454 H457 0.929 . S
C455 C454 1.363 . S
C455 C461 1.428 . S
H456 C452 0.930 . S
H457 C454 0.929 . S
S458 N459 1.613 . S
S458 N460 1.610 . S
N459 S458 1.613 . S
N459 C462 1.350 . S
N460 S458 1.610 . S
N460 C461 1.351 . S
C461 C455 1.428 . S
C461 N460 1.351 . S
C461 C462 1.434 . S
C462 C453 1.429 . S
C462 N459 1.350 . S
C462 C461 1.434 . S
C463 C464 1.369 . S
C463 C465 1.419 . S
C463 H467 0.930 . S
C464 C463 1.369 . S
C464 C473 1.429 . S
C465 C463 1.419 . S
C465 C466 1.363 . S
C465 H468 0.929 . S
C466 C465 1.363 . S
C466 C472 1.428 . S
H467 C463 0.930 . S
H468 C465 0.929 . S
S469 N470 1.613 . S
S469 N471 1.610 . S
N470 S469 1.613 . S
N470 C473 1.350 . S
N471 S469 1.610 . S
N471 C472 1.351 . S
C472 C466 1.428 . S
C472 N471 1.351 . S
C472 C473 1.434 . S
C473 C464 1.429 . S
C473 N470 1.350 . S
C473 C472 1.434 . S
C474 C475 1.369 . S
C474 C476 1.419 . S
C474 H478 0.930 . S
C475 C474 1.369 . S
C475 C484 1.429 . S
C476 C474 1.419 . S
C476 C477 1.363 . S
C476 H479 0.929 . S
C477 C476 1.363 . S
C477 C483 1.428 . S
H478 C474 0.930 . S
H479 C476 0.929 . S
S480 N481 1.613 . S
S480 N482 1.610 . S
N481 S480 1.613 . S
N481 C484 1.350 . S
N482 S480 1.610 . S
N482 C483 1.351 . S
C483 C477 1.428 . S
C483 N482 1.351 . S
C483 C484 1.434 . S
C484 C475 1.429 . S
C484 N481 1.350 . S
C484 C483 1.434 . S
C485 C486 1.369 . S
C485 C487 1.419 . S
C485 H489 0.930 . S
C486 C485 1.369 . S
C486 C495 1.429 . S
C487 C485 1.419 . S
C487 C488 1.363 . S
C487 H490 0.929 . S
C488 C487 1.363 . S
C488 C494 1.428 . S
H489 C485 0.930 . S
H490 C487 0.929 . S
S491 N492 1.613 . S
S491 N493 1.610 . S
N492 S491 1.613 . S
N492 C495 1.350 . S
N493 S491 1.610 . S
N493 C494 1.351 . S
C494 C488 1.428 . S
C494 N493 1.351 . S
C494 C495 1.434 . S
C495 C486 1.429 . S
C495 N492 1.350 . S
C495 C494 1.434 . S
C496 C497 1.369 1_655 S
C496 C498 1.419 . S
C496 H500 0.930 . S
C497 C496 1.369 1_455 S
C497 C506 1.429 . S
C498 C496 1.419 . S
C498 C499 1.363 1_655 S
C498 H501 0.929 . S
C499 C498 1.363 1_455 S
C499 C505 1.428 . S
H500 C496 0.930 . S
H501 C498 0.929 . S
S502 N503 1.613 . S
S502 N504 1.610 . S
N503 S502 1.613 . S
N503 C506 1.350 . S
N504 S502 1.610 . S
N504 C505 1.351 . S
C505 C499 1.428 . S
C505 N504 1.351 . S
C505 C506 1.434 . S
C506 C497 1.429 . S
C506 N503 1.350 . S
C506 C505 1.434 . S
C507 C508 1.369 . S
C507 C509 1.419 1_655 S
C507 H511 0.930 . S
C508 C507 1.369 . S
C508 C517 1.429 . S
C509 C507 1.419 1_455 S
C509 C510 1.363 . S
C509 H512 0.929 . S
C510 C509 1.363 . S
C510 C516 1.428 . S
H511 C507 0.930 . S
H512 C509 0.929 . S
S513 N514 1.613 1_455 S
S513 N515 1.610 . S
N514 S513 1.613 1_655 S
N514 C517 1.350 . S
N515 S513 1.610 . S
N515 C516 1.351 . S
C516 C510 1.428 . S
C516 N515 1.351 . S
C516 C517 1.434 1_455 S
C517 C508 1.429 . S
C517 N514 1.350 . S
C517 C516 1.434 1_655 S
C518 C519 1.369 . S
C518 C520 1.419 . S
C518 H522 0.930 . S
C519 C518 1.369 . S
C519 C528 1.429 . S
C520 C518 1.419 . S
C520 C521 1.363 . S
C520 H523 0.929 . S
C521 C520 1.363 . S
C521 C527 1.428 . S
H522 C518 0.930 . S
H523 C520 0.929 . S
S524 N525 1.613 . S
S524 N526 1.610 . S
N525 S524 1.613 . S
N525 C528 1.350 . S
N526 S524 1.610 . S
N526 C527 1.351 . S
C527 C521 1.428 . S
C527 N526 1.351 . S
C527 C528 1.434 . S
C528 C519 1.429 . S
C528 N525 1.350 . S
C528 C527 1.434 . S
C529 C530 1.369 . S
C529 C531 1.419 . S
C529 H533 0.930 . S
C530 C529 1.369 . S
C530 C539 1.429 . S
C531 C529 1.419 . S
C531 C532 1.363 . S
C531 H534 0.929 . S
C532 C531 1.363 . S
C532 C538 1.428 . S
H533 C529 0.930 . S
H534 C531 0.929 . S
S535 N536 1.613 . S
S535 N537 1.610 . S
N536 S535 1.613 . S
N536 C539 1.350 . S
N537 S535 1.610 . S
N537 C538 1.351 . S
C538 C532 1.428 . S
C538 N537 1.351 . S
C538 C539 1.434 . S
C539 C530 1.429 . S
C539 N536 1.350 . S
C539 C538 1.434 . S
C540 C541 1.369 . S
C540 C542 1.419 . S
C540 H544 0.930 . S
C541 C540 1.369 . S
C541 C550 1.429 1_455 S
C542 C540 1.419 . S
C542 C543 1.363 . S
C542 H545 0.929 . S
C543 C542 1.363 . S
C543 C549 1.428 1_455 S
H544 C540 0.930 . S
H545 C542 0.929 . S
S546 N547 1.613 . S
S546 N548 1.610 . S
N547 S546 1.613 . S
N547 C550 1.350 . S
N548 S546 1.610 . S
N548 C549 1.351 . S
C549 C543 1.428 1_655 S
C549 N548 1.351 . S
C549 C550 1.434 . S
C550 C541 1.429 1_655 S
C550 N547 1.350 . S
C550 C549 1.434 . S
C551 C552 1.369 . S
C551 C553 1.419 . S
C551 H555 0.930 . S
C552 C551 1.369 . S
C552 C561 1.429 . S
C553 C551 1.419 . S
C553 C554 1.363 . S
C553 H556 0.929 . S
C554 C553 1.363 . S
C554 C560 1.428 . S
H555 C551 0.930 . S
H556 C553 0.929 . S
S557 N558 1.613 . S
S557 N559 1.610 . S
N558 S557 1.613 . S
N558 C561 1.350 . S
N559 S557 1.610 . S
N559 C560 1.351 . S
C560 C554 1.428 . S
C560 N559 1.351 . S
C560 C561 1.434 . S
C561 C552 1.429 . S
C561 N558 1.350 . S
C561 C560 1.434 . S
C562 C563 1.369 . S
C562 C564 1.419 . S
C562 H566 0.930 . S
C563 C562 1.369 . S
C563 C572 1.429 . S
C564 C562 1.419 . S
C564 C565 1.363 . S
C564 H567 0.929 . S
C565 C564 1.363 . S
C565 C571 1.428 . S
H566 C562 0.930 . S
H567 C564 0.929 . S
S568 N569 1.613 . S
S568 N570 1.610 . S
N569 S568 1.613 . S
N569 C572 1.350 . S
N570 S568 1.610 . S
N570 C571 1.351 . S
C571 C565 1.428 . S
C571 N570 1.351 . S
C571 C572 1.434 . S
C572 C563 1.429 . S
C572 N569 1.350 . S
C572 C571 1.434 . S
C573 C574 1.369 . S
C573 C575 1.419 1_455 S
C573 H577 0.930 . S
C574 C573 1.369 . S
C574 C583 1.429 . S
C575 C573 1.419 1_655 S
C575 C576 1.363 . S
C575 H578 0.929 . S
C576 C575 1.363 . S
C576 C582 1.428 . S
H577 C573 0.930 . S
H578 C575 0.929 . S
S579 N580 1.613 . S
S579 N581 1.610 1_455 S
N580 S579 1.613 . S
N580 C583 1.350 . S
N581 S579 1.610 1_655 S
N581 C582 1.351 . S
C582 C576 1.428 . S
C582 N581 1.351 . S
C582 C583 1.434 1_655 S
C583 C574 1.429 . S
C583 N580 1.350 . S
C583 C582 1.434 1_455 S
C584 C585 1.369 1_565 S
C584 C586 1.419 1_554 S
C584 H588 0.930 . S
C585 C584 1.369 1_545 S
C585 C594 1.429 1_454 S
C586 C584 1.419 1_556 S
C586 C587 1.363 . S
C586 H589 0.929 . S
C587 C586 1.363 . S
C587 C593 1.428 1_465 S
H588 C584 0.930 . S
H589 C586 0.929 . S
S590 N591 1.613 . S
S590 N592 1.610 . S
N591 S590 1.613 . S
N591 C594 1.350 . S
N592 S590 1.610 . S
N592 C593 1.351 . S
C593 C587 1.428 1_645 S
C593 N592 1.351 . S
C593 C594 1.434 . S
C594 C585 1.429 1_656 S
C594 N591 1.350 . S
C594 C593 1.434 . S
C595 C596 1.369 . S
C595 C597 1.419 . S
C595 H599 0.930 . S
C596 C595 1.369 . S
C596 C605 1.429 . S
C597 C595 1.419 . S
C597 C598 1.363 . S
C597 H600 0.929 . S
C598 C597 1.363 . S
C598 C604 1.428 . S
H599 C595 0.930 . S
H600 C597 0.929 . S
S601 N602 1.613 . S
S601 N603 1.610 . S
N602 S601 1.613 . S
N602 C605 1.350 . S
N603 S601 1.610 . S
N603 C604 1.351 . S
C604 C598 1.428 . S
C604 N603 1.351 . S
C604 C605 1.434 . S
C605 C596 1.429 . S
C605 N602 1.350 . S
C605 C604 1.434 . S
C606 C607 1.369 . S
C606 C608 1.419 . S
C606 H610 0.930 . S
C607 C606 1.369 . S
C607 C616 1.429 1_545 S
C608 C606 1.419 . S
C608 C609 1.363 1_545 S
C608 H611 0.929 . S
C609 C608 1.363 1_565 S
C609 C615 1.428 . S
H610 C606 0.930 . S
H611 C608 0.929 . S
S612 N613 1.613 . S
S612 N614 1.610 . S
N613 S612 1.613 . S
N613 C616 1.350 . S
N614 S612 1.610 . S
N614 C615 1.351 . S
C615 C609 1.428 . S
C615 N614 1.351 . S
C615 C616 1.434 . S
C616 C607 1.429 1_565 S
C616 N613 1.350 . S
C616 C615 1.434 . S
C617 C618 1.369 . S
C617 C619 1.419 . S
C617 H621 0.930 . S
C618 C617 1.369 . S
C618 C627 1.429 . S
C619 C617 1.419 . S
C619 C620 1.363 . S
C619 H622 0.929 . S
C620 C619 1.363 . S
C620 C626 1.428 . S
H621 C617 0.930 . S
H622 C619 0.929 . S
S623 N624 1.613 . S
S623 N625 1.610 . S
N624 S623 1.613 . S
N624 C627 1.350 . S
N625 S623 1.610 . S
N625 C626 1.351 . S
C626 C620 1.428 . S
C626 N625 1.351 . S
C626 C627 1.434 . S
C627 C618 1.429 . S
C627 N624 1.350 . S
C627 C626 1.434 . S
C628 C629 1.369 . S
C628 C630 1.419 . S
C628 H632 0.930 . S
C629 C628 1.369 . S
C629 C638 1.429 . S
C630 C628 1.419 . S
C630 C631 1.363 . S
C630 H633 0.929 . S
C631 C630 1.363 . S
C631 C637 1.428 . S
H632 C628 0.930 . S
H633 C630 0.929 . S
S634 N635 1.613 . S
S634 N636 1.610 . S
N635 S634 1.613 . S
N635 C638 1.350 . S
N636 S634 1.610 . S
N636 C637 1.351 . S
C637 C631 1.428 . S
C637 N636 1.351 . S
C637 C638 1.434 . S
C638 C629 1.429 . S
C638 N635 1.350 . S
C638 C637 1.434 . S
C639 C640 1.369 . S
C639 C641 1.419 . S
C639 H643 0.930 . S
C640 C639 1.369 . S
C640 C649 1.429 . S
C641 C639 1.419 . S
C641 C642 1.363 . S
C641 H644 0.929 . S
C642 C641 1.363 . S
C642 C648 1.428 . S
H643 C639 0.930 . S
H644 C641 0.929 . S
S645 N646 1.613 . S
S645 N647 1.610 . S
N646 S645 1.613 . S
N646 C649 1.350 . S
N647 S645 1.610 . S
N647 C648 1.351 . S
C648 C642 1.428 . S
C648 N647 1.351 . S
C648 C649 1.434 . S
C649 C640 1.429 . S
C649 N646 1.350 . S
C649 C648 1.434 . S
C650 C651 1.369 . S
C650 C652 1.419 . S
C650 H654 0.930 . S
C651 C650 1.369 . S
C651 C660 1.429 . S
C652 C650 1.419 . S
C652 C653 1.363 . S
C652 H655 0.929 . S
C653 C652 1.363 . S
C653 C659 1.428 . S
H654 C650 0.930 . S
H655 C652 0.929 . S
S656 N657 1.613 . S
S656 N658 1.610 . S
N657 S656 1.613 . S
N657 C660 1.350 . S
N658 S656 1.610 . S
N658 C659 1.351 . S
C659 C653 1.428 . S
C659 N658 1.351 . S
C659 C660 1.434 . S
C660 C651 1.429 . S
C660 N657 1.350 . S
C660 C659 1.434 . S
C661 C662 1.369 . S
C661 C663 1.419 1_556 S
C661 H665 0.930 . S
C662 C661 1.369 . S
C662 C671 1.429 1_456 S
C663 C661 1.419 1_554 S
C663 C664 1.363 . S
C663 H666 0.929 . S
C664 C663 1.363 . S
C664 C670 1.428 1_455 S
H665 C661 0.930 . S
H666 C663 0.929 . S
S667 N668 1.613 1_554 S
S667 N669 1.610 . S
N668 S667 1.613 1_556 S
N668 C671 1.350 1_556 S
N669 S667 1.610 . S
N669 C670 1.351 . S
C670 C664 1.428 1_655 S
C670 N669 1.351 . S
C670 C671 1.434 . S
C671 C662 1.429 1_654 S
C671 N668 1.350 1_554 S
C671 C670 1.434 . S
C672 C673 1.369 . S
C672 C674 1.419 . S
C672 H676 0.930 . S
C673 C672 1.369 . S
C673 C682 1.429 . S
C674 C672 1.419 . S
C674 C675 1.363 . S
C674 H677 0.929 . S
C675 C674 1.363 . S
C675 C681 1.428 . S
H676 C672 0.930 . S
H677 C674 0.929 . S
S678 N679 1.613 . S
S678 N680 1.610 . S
N679 S678 1.613 . S
N679 C682 1.350 . S
N680 S678 1.610 . S
N680 C681 1.351 . S
C681 C675 1.428 . S
C681 N680 1.351 . S
C681 C682 1.434 . S
C682 C673 1.429 . S
C682 N679 1.350 . S
C682 C681 1.434 . S
C683 C684 1.369 . S
C683 C685 1.419 . S
C683 H687 0.930 . S
C684 C683 1.369 . S
C684 C693 1.429 . S
C685 C683 1.419 . S
C685 C686 1.363 . S
C685 H688 0.929 . S
C686 C685 1.363 . S
C686 C692 1.428 . S
H687 C683 0.930 . S
H688 C685 0.929 . S
S689 N690 1.613 . S
S689 N691 1.610 . S
N690 S689 1.613 . S
N690 C693 1.350 . S
N691 S689 1.610 . S
N691 C692 1.351 . S
C692 C686 1.428 . S
C692 N691 1.351 . S
C692 C693 1.434 . S
C693 C684 1.429 . S
C693 N690 1.350 . S
C693 C692 1.434 . S
C694 C695 1.369 . S
C694 C696 1.419 . S
C694 H698 0.930 . S
C695 C694 1.369 . S
C695 C704 1.429 . S
C696 C694 1.419 . S
C696 C697 1.363 . S
C696 H699 0.929 . S
C697 C696 1.363 . S
C697 C703 1.428 . S
H698 C694 0.930 . S
H699 C696 0.929 . S
S700 N701 1.613 1_556 S
S700 N702 1.610 . S
N701 S700 1.613 1_554 S
N701 C704 1.350 1_554 S
N702 S700 1.610 . S
N702 C703 1.351 . S
C703 C697 1.428 . S
C703 N702 1.351 . S
C703 C704 1.434 . S
C704 C695 1.429 . S
C704 N701 1.350 1_556 S
C704 C703 1.434 . S
C705 C706 1.369 . S
C705 C707 1.419 . S
C705 H709 0.930 . S
C706 C705 1.369 . S
C706 C715 1.429 . S
C707 C705 1.419 . S
C707 C708 1.363 . S
C707 H710 0.929 . S
C708 C707 1.363 . S
C708 C714 1.428 . S
H709 C705 0.930 . S
H710 C707 0.929 . S
S711 N712 1.613 . S
S711 N713 1.610 . S
N712 S711 1.613 . S
N712 C715 1.350 . S
N713 S711 1.610 . S
N713 C714 1.351 . S
C714 C708 1.428 . S
C714 N713 1.351 . S
C714 C715 1.434 . S
C715 C706 1.429 . S
C715 N712 1.350 . S
C715 C714 1.434 . S
C716 C717 1.369 . S
C716 C718 1.419 . S
C716 H720 0.930 . S
C717 C716 1.369 . S
C717 C726 1.429 . S
C718 C716 1.419 . S
C718 C719 1.363 . S
C718 H721 0.929 . S
C719 C718 1.363 . S
C719 C725 1.428 . S
H720 C716 0.930 . S
H721 C718 0.929 . S
S722 N723 1.613 . S
S722 N724 1.610 . S
N723 S722 1.613 . S
N723 C726 1.350 . S
N724 S722 1.610 . S
N724 C725 1.351 . S
C725 C719 1.428 . S
C725 N724 1.351 . S
C725 C726 1.434 . S
C726 C717 1.429 . S
C726 N723 1.350 . S
C726 C725 1.434 . S
C727 C728 1.369 . S
C727 C729 1.419 . S
C727 H731 0.930 . S
C728 C727 1.369 . S
C728 C737 1.429 . S
C729 C727 1.419 . S
C729 C730 1.363 . S
C729 H732 0.929 . S
C730 C729 1.363 . S
C730 C736 1.428 . S
H731 C727 0.930 . S
H732 C729 0.929 . S
S733 N734 1.613 . S
S733 N735 1.610 . S
N734 S733 1.613 . S
N734 C737 1.350 . S
N735 S733 1.610 . S
N735 C736 1.351 . S
C736 C730 1.428 . S
C736 N735 1.351 . S
C736 C737 1.434 . S
C737 C728 1.429 . S
C737 N734 1.350 . S
C737 C736 1.434 . S
C738 C739 1.369 . S
C738 C740 1.419 . S
C738 H742 0.930 . S
C739 C738 1.369 . S
C739 C748 1.429 . S
C740 C738 1.419 . S
C740 C741 1.363 . S
C740 H743 0.929 . S
C741 C740 1.363 . S
C741 C747 1.428 . S
H742 C738 0.930 . S
H743 C740 0.929 . S
S744 N745 1.613 . S
S744 N746 1.610 . S
N745 S744 1.613 . S
N745 C748 1.350 . S
N746 S744 1.610 . S
N746 C747 1.351 . S
C747 C741 1.428 . S
C747 N746 1.351 . S
C747 C748 1.434 . S
C748 C739 1.429 . S
C748 N745 1.350 . S
C748 C747 1.434 . S
C749 C750 1.369 . S
C749 C751 1.419 . S
C749 H753 0.930 . S
C750 C749 1.369 . S
C750 C759 1.429 . S
C751 C749 1.419 . S
C751 C752 1.363 . S
C751 H754 0.929 . S
C752 C751 1.363 . S
C752 C758 1.428 . S
H753 C749 0.930 . S
H754 C751 0.929 . S
S755 N756 1.613 . S
S755 N757 1.610 . S
N756 S755 1.613 . S
N756 C759 1.350 . S
N757 S755 1.610 . S
N757 C758 1.351 . S
C758 C752 1.428 . S
C758 N757 1.351 . S
C758 C759 1.434 . S
C759 C750 1.429 . S
C759 N756 1.350 . S
C759 C758 1.434 . S
C760 C761 1.369 . S
C760 C762 1.419 . S
C760 H764 0.930 . S
C761 C760 1.369 . S
C761 C770 1.429 . S
C762 C760 1.419 . S
C762 C763 1.363 . S
C762 H765 0.929 . S
C763 C762 1.363 . S
C763 C769 1.428 . S
H764 C760 0.930 . S
H765 C762 0.929 . S
S766 N767 1.613 . S
S766 N768 1.610 . S
N767 S766 1.613 . S
N767 C770 1.350 . S
N768 S766 1.610 . S
N768 C769 1.351 . S
C769 C763 1.428 . S
C769 N768 1.351 . S
C769 C770 1.434 . S
C770 C761 1.429 . S
C770 N767 1.350 . S
C770 C769 1.434 . S
C771 C772 1.369 . S
C771 C773 1.419 . S
C771 H775 0.930 . S
C772 C771 1.369 . S
C772 C781 1.429 . S
C773 C771 1.419 . S
C773 C774 1.363 . S
C773 H776 0.929 . S
C774 C773 1.363 . S
C774 C780 1.428 . S
H775 C771 0.930 . S
H776 C773 0.929 . S
S777 N778 1.613 . S
S777 N779 1.610 . S
N778 S777 1.613 . S
N778 C781 1.350 . S
N779 S777 1.610 . S
N779 C780 1.351 . S
C780 C774 1.428 . S
C780 N779 1.351 . S
C780 C781 1.434 . S
C781 C772 1.429 . S
C781 N778 1.350 . S
C781 C780 1.434 . S
C782 C783 1.369 . S
C782 C784 1.419 . S
C782 H786 0.930 . S
C783 C782 1.369 . S
C783 C792 1.429 . S
C784 C782 1.419 . S
C784 C785 1.363 . S
C784 H787 0.929 . S
C785 C784 1.363 . S
C785 C791 1.428 . S
H786 C782 0.930 . S
H787 C784 0.929 . S
S788 N789 1.613 . S
S788 N790 1.610 . S
N789 S788 1.613 . S
N789 C792 1.350 . S
N790 S788 1.610 . S
N790 C791 1.351 . S
C791 C785 1.428 . S
C791 N790 1.351 . S
C791 C792 1.434 . S
C792 C783 1.429 . S
C792 N789 1.350 . S
C792 C791 1.434 . S
C793 C794 1.369 . S
C793 C795 1.419 . S
C793 H797 0.930 . S
C794 C793 1.369 . S
C794 C803 1.429 . S
C795 C793 1.419 . S
C795 C796 1.363 . S
C795 H798 0.929 . S
C796 C795 1.363 . S
C796 C802 1.428 . S
H797 C793 0.930 . S
H798 C795 0.929 . S
S799 N800 1.613 . S
S799 N801 1.610 . S
N800 S799 1.613 . S
N800 C803 1.350 . S
N801 S799 1.610 . S
N801 C802 1.351 . S
C802 C796 1.428 . S
C802 N801 1.351 . S
C802 C803 1.434 . S
C803 C794 1.429 . S
C803 N800 1.350 . S
C803 C802 1.434 . S
C804 C805 1.369 . S
C804 C806 1.419 . S
C804 H808 0.930 . S
C805 C804 1.369 . S
C805 C814 1.429 . S
C806 C804 1.419 . S
C806 C807 1.363 . S
C806 H809 0.929 . S
C807 C806 1.363 . S
C807 C813 1.428 . S
H808 C804 0.930 . S
H809 C806 0.929 . S
S810 N811 1.613 . S
S810 N812 1.610 . S
N811 S810 1.613 . S
N811 C814 1.350 . S
N812 S810 1.610 . S
N812 C813 1.351 . S
C813 C807 1.428 . S
C813 N812 1.351 . S
C813 C814 1.434 . S
C814 C805 1.429 . S
C814 N811 1.350 . S
C814 C813 1.434 . S
C815 C816 1.369 . S
C815 C817 1.419 . S
C815 H819 0.930 . S
C816 C815 1.369 . S
C816 C825 1.429 . S
C817 C815 1.419 . S
C817 C818 1.363 . S
C817 H820 0.929 . S
C818 C817 1.363 . S
C818 C824 1.428 . S
H819 C815 0.930 . S
H820 C817 0.929 . S
S821 N822 1.613 . S
S821 N823 1.610 . S
N822 S821 1.613 . S
N822 C825 1.350 . S
N823 S821 1.610 . S
N823 C824 1.351 . S
C824 C818 1.428 . S
C824 N823 1.351 . S
C824 C825 1.434 . S
C825 C816 1.429 . S
C825 N822 1.350 . S
C825 C824 1.434 . S
C826 C827 1.369 . S
C826 C828 1.419 . S
C826 H830 0.930 . S
C827 C826 1.369 . S
C827 C836 1.429 . S
C828 C826 1.419 . S
C828 C829 1.363 . S
C828 H831 0.929 . S
C829 C828 1.363 . S
C829 C835 1.428 . S
H830 C826 0.930 . S
H831 C828 0.929 . S
S832 N833 1.613 . S
S832 N834 1.610 . S
N833 S832 1.613 . S
N833 C836 1.350 . S
N834 S832 1.610 . S
N834 C835 1.351 . S
C835 C829 1.428 . S
C835 N834 1.351 . S
C835 C836 1.434 . S
C836 C827 1.429 . S
C836 N833 1.350 . S
C836 C835 1.434 . S
C837 C838 1.369 . S
C837 C839 1.419 . S
C837 H841 0.930 . S
C838 C837 1.369 . S
C838 C847 1.429 . S
C839 C837 1.419 . S
C839 C840 1.363 . S
C839 H842 0.929 . S
C840 C839 1.363 . S
C840 C846 1.428 . S
H841 C837 0.930 . S
H842 C839 0.929 . S
S843 N844 1.613 . S
S843 N845 1.610 . S
N844 S843 1.613 . S
N844 C847 1.350 . S
N845 S843 1.610 . S
N845 C846 1.351 . S
C846 C840 1.428 . S
C846 N845 1.351 . S
C846 C847 1.434 . S
C847 C838 1.429 . S
C847 N844 1.350 . S
C847 C846 1.434 . S
C321 C19 1.756 . S
C323 C159 1.734 . S
C332 C39 2.088 . S
C334 C99 2.085 1_554 S
C343 C102 1.553 . S
C345 C59 1.556 . S
C354 C79 2.079 . S
C356 C139 2.081 . S
C365 C221 0.548 . S
C367 C81 0.550 . S
C376 C178 0.898 . S
C378 C1 0.905 . S
C387 C201 0.545 . S
C389 C121 0.549 . S
C398 C41 0.768 . S
C400 C181 0.778 . S
C409 C199 1.735 . S
C411 C259 1.755 . S
C420 C219 2.086 . S
C422 C299 2.085 . S
C431 C279 1.557 1_556 S
C433 C162 1.555 . S
C442 C239 2.081 . S
C444 C319 2.080 1_554 S
C453 C281 0.564 . S
C455 C61 0.550 . S
C464 C241 0.902 . S
C466 C118 0.906 . S
C475 C21 0.541 . S
C477 C301 0.538 . S
C486 C141 0.764 . S
C488 C261 0.779 . S
C497 C269 0.632 . S
C499 C9 0.449 1_455 S
C508 C229 0.430 . S
C510 C29 0.419 . S
C519 C249 0.445 . S
C521 C49 0.635 . S
C530 C209 0.447 . S
C532 C69 0.425 . S
C541 C89 0.415 1_455 S
C543 C309 0.437 . S
C552 C189 0.359 . S
C554 C108 0.477 . S
C563 C129 0.416 . S
C565 C289 0.425 . S
C574 C149 0.383 . S
C576 C168 0.501 . S
C585 C8 1.522 . S
C587 C88 1.525 . S
C596 C28 1.590 . S
C598 C109 1.603 . S
C607 C128 1.652 . S
C609 C48 1.630 . S
C618 C68 1.589 . S
C620 C148 1.574 . S
C629 C208 1.593 . S
C631 C169 1.600 . S
C640 C228 1.580 . S
C642 C188 1.573 . S
C651 C248 1.515 . S
C653 C288 1.521 . S
C662 C308 1.642 1_455 S
C664 C268 1.634 1_455 S
C673 C2 1.293 . S
C675 C142 1.290 . S
C684 C22 1.063 . S
C686 C82 1.053 . S
C695 C119 1.513 1_556 S
C697 C42 1.466 . S
C706 C122 1.050 . S
C708 C62 1.043 . S
C717 C238 2.571 . S
C719 C98 2.570 . S
C728 C161 2.032 . S
C730 C18 2.081 . S
C739 C218 2.561 1_554 S
C741 C138 2.559 . S
C750 C58 2.272 . S
C752 C198 2.260 1_556 S
C761 C242 1.295 . S
C763 C182 1.291 . S
C772 C282 1.054 . S
C774 C202 1.060 . S
C783 C262 1.465 . S
C785 C179 1.514 . S
C794 C302 1.047 . S
C796 C222 1.045 . S
C805 C298 2.570 . S
C807 C78 2.570 1_554 S
C816 C101 2.032 . S
C818 C258 2.079 . S
C827 C38 2.560 . S
C829 C318 2.559 . S
C838 C278 2.273 . S
C840 C158 2.262 . S
