# Generated by pormake.
# Topology zfr, (5)-cn, num edge types: 1
# Building blocks:
#     Node 0, Type 0, BuildingBlock: BEQFEK_clean_sbu_0, # of connection points: 5
#     Node 1, Type 0, BuildingBlock: BEQFEK_clean_sbu_0, # of connection points: 5
#     Node 2, Type 0, BuildingBlock: BEQFEK_clean_sbu_0, # of connection points: 5
#     Node 3, Type 0, BuildingBlock: BEQFEK_clean_sbu_0, # of connection points: 5
#     Node 4, Type 0, BuildingBlock: BEQFEK_clean_sbu_0, # of connection points: 5
#     Node 5, Type 0, BuildingBlock: BEQFEK_clean_sbu_0, # of connection points: 5
#     Node 6, Type 0, BuildingBlock: BEQFEK_clean_sbu_0, # of connection points: 5
#     Node 7, Type 0, BuildingBlock: BEQFEK_clean_sbu_0, # of connection points: 5
#     Edge 8, Type (0, 0), BuildingBlock: MIFKUJ_clean_linker_0, # of connection points: 2
#     Edge 9, Type (0, 0), BuildingBlock: MIFKUJ_clean_linker_0, # of connection points: 2
#     Edge 10, Type (0, 0), BuildingBlock: MIFKUJ_clean_linker_0, # of connection points: 2
#     Edge 11, Type (0, 0), BuildingBlock: MIFKUJ_clean_linker_0, # of connection points: 2
#     Edge 12, Type (0, 0), BuildingBlock: MIFKUJ_clean_linker_0, # of connection points: 2
#     Edge 13, Type (0, 0), BuildingBlock: MIFKUJ_clean_linker_0, # of connection points: 2
#     Edge 14, Type (0, 0), BuildingBlock: MIFKUJ_clean_linker_0, # of connection points: 2
#     Edge 15, Type (0, 0), BuildingBlock: MIFKUJ_clean_linker_0, # of connection points: 2
#     Edge 16, Type (0, 0), BuildingBlock: MIFKUJ_clean_linker_0, # of connection points: 2
#     Edge 17, Type (0, 0), BuildingBlock: MIFKUJ_clean_linker_0, # of connection points: 2
#     Edge 18, Type (0, 0), BuildingBlock: MIFKUJ_clean_linker_0, # of connection points: 2
#     Edge 19, Type (0, 0), BuildingBlock: MIFKUJ_clean_linker_0, # of connection points: 2
#     Edge 20, Type (0, 0), BuildingBlock: MIFKUJ_clean_linker_0, # of connection points: 2
#     Edge 21, Type (0, 0), BuildingBlock: MIFKUJ_clean_linker_0, # of connection points: 2
#     Edge 22, Type (0, 0), BuildingBlock: MIFKUJ_clean_linker_0, # of connection points: 2
#     Edge 23, Type (0, 0), BuildingBlock: MIFKUJ_clean_linker_0, # of connection points: 2
#     Edge 24, Type (0, 0), BuildingBlock: MIFKUJ_clean_linker_0, # of connection points: 2
#     Edge 25, Type (0, 0), BuildingBlock: MIFKUJ_clean_linker_0, # of connection points: 2
#     Edge 26, Type (0, 0), BuildingBlock: MIFKUJ_clean_linker_0, # of connection points: 2
#     Edge 27, Type (0, 0), BuildingBlock: MIFKUJ_clean_linker_0, # of connection points: 2
# Relax obj value: 0.262
# Max RMSD: 0.225
# Mean RMSD: 0.224
data_MOF--net-zfr--node1-BEQFEK_clean_sbu_0--edge1-MIFKUJ_clean_linker_0
_symmetry_space_group_name_H-M    P1
_symmetry_Int_Tables_number       1
_symmetry_cell_setting            triclinic
loop_
_symmetry_equiv_pos_as_xyz
'x, y, z'
_cell_length_a     64.948073
_cell_length_b     64.981514
_cell_length_c     22.450071
_cell_angle_alpha  89.957176
_cell_angle_beta   89.997071
_cell_angle_gamma 90.010869
loop_
_atom_site_label
_atom_site_type_symbol
_atom_site_fract_x
_atom_site_fract_y
_atom_site_fract_z
_atom_type_partial_charge
Co0 Co 0.13579 0.3582 0.17158 0.0
Co1 Co 0.11316 0.35336 0.29303 0.0
C2 C 0.13227 0.39342 0.25524 0.0
O3 O 0.13887 0.38569 0.20684 0.0
O4 O 0.12195 0.38279 0.29241 0.0
C5 C 0.15354 0.37248 0.06366 0.0
O6 O 0.14735 0.3905 0.08319 0.0
C7 C 0.109 0.35469 0.42133 0.0
C8 C 0.08576 0.33057 0.43912 0.0
C9 C 0.09874 0.34455 0.46664 0.0
N10 N 0.10236 0.34715 0.36922 0.0
N11 N 0.08821 0.33299 0.37992 0.0
C12 C 0.12687 0.36915 0.4274 0.0
H13 H 0.13707 0.36812 0.38793 0.0
H14 H 0.13598 0.36565 0.46798 0.0
H15 H 0.12096 0.38511 0.43103 0.0
C16 C 0.16004 0.32364 0.21958 0.0
N17 N 0.1448 0.33756 0.22415 0.0
N18 N 0.13575 0.33563 0.27624 0.0
C19 C 0.14519 0.3205 0.30709 0.0
C20 C 0.16089 0.3124 0.27209 0.0
C21 C 0.17278 0.3207 0.16467 0.0
H22 H 0.16256 0.31994 0.12517 0.0
H23 H 0.18315 0.33413 0.15901 0.0
H24 H 0.18206 0.30639 0.16672 0.0
O25 O 0.10686 0.35392 0.14927 0.0
O26 O 0.09057 0.34897 0.23493 0.0
H27 H 0.12418 0.30921 0.37288 0.0
H28 H 0.15082 0.30331 0.38876 0.0
C29 C 0.14021 0.31501 0.37028 0.0
H30 H 0.14144 0.32893 0.39834 0.0
H31 H 0.08091 0.32436 0.34692 0.0
O32 O 0.1512 0.35677 0.09656 0.0
C33 C 0.0905 0.35016 0.17836 0.0
Co34 Co 0.65131 0.13257 0.38549 0.0
Co35 Co 0.6478 0.11446 0.51329 0.0
C36 C 0.61088 0.13006 0.44488 0.0
O37 O 0.62149 0.13545 0.39999 0.0
O38 O 0.61932 0.12186 0.49013 0.0
C39 C 0.64774 0.16174 0.2911 0.0
O40 O 0.63388 0.17037 0.32561 0.0
C41 C 0.63948 0.12116 0.63787 0.0
C42 C 0.65624 0.0958 0.68195 0.0
C43 C 0.64538 0.11376 0.69311 0.0
N44 N 0.64714 0.1086 0.59594 0.0
N45 N 0.65676 0.0932 0.62244 0.0
C46 C 0.62699 0.14002 0.6245 0.0
H47 H 0.61511 0.13636 0.591 0.0
H48 H 0.63705 0.15213 0.60535 0.0
H49 H 0.61912 0.14598 0.66477 0.0
C50 C 0.68166 0.15959 0.44504 0.0
N51 N 0.66742 0.14453 0.44604 0.0
N52 N 0.66679 0.13632 0.49959 0.0
C53 C 0.68101 0.14565 0.53414 0.0
C54 C 0.69072 0.16078 0.50075 0.0
C55 C 0.68742 0.17165 0.39072 0.0
H56 H 0.69071 0.16095 0.35345 0.0
H57 H 0.67428 0.18156 0.3776 0.0
H58 H 0.70115 0.18143 0.39856 0.0
O59 O 0.65827 0.103 0.37712 0.0
O60 O 0.6562 0.08973 0.46821 0.0
H61 H 0.68538 0.12336 0.60353 0.0
H62 H 0.70008 0.14658 0.61378 0.0
C63 C 0.68523 0.14029 0.59792 0.0
H64 H 0.67301 0.1469 0.62635 0.0
H65 H 0.66454 0.08151 0.59989 0.0
O66 O 0.65716 0.14576 0.30895 0.0
C67 C 0.6597 0.08775 0.41265 0.0
Co68 Co 0.8611 0.6399 0.64939 0.0
Co69 Co 0.8856 0.64669 0.76625 0.0
C70 C 0.8669 0.60544 0.73211 0.0
O71 O 0.85857 0.61244 0.685 0.0
O72 O 0.87789 0.6169 0.76546 0.0
C73 C 0.84494 0.62647 0.5396 0.0
O74 O 0.8528 0.6088 0.55675 0.0
C75 C 0.88751 0.64574 0.89354 0.0
C76 C 0.91192 0.6682 0.91555 0.0
C77 C 0.8973 0.65529 0.94056 0.0
N78 N 0.89593 0.65258 0.84285 0.0
N79 N 0.91076 0.66575 0.85601 0.0
C80 C 0.86861 0.63253 0.896 0.0
H81 H 0.85928 0.63457 0.85503 0.0
H82 H 0.85904 0.63632 0.93545 0.0
H83 H 0.87332 0.61615 0.89915 0.0
C84 C 0.83529 0.67262 0.70076 0.0
N85 N 0.85181 0.66016 0.70232 0.0
N86 N 0.86247 0.66379 0.75097 0.0
C87 C 0.85328 0.67917 0.78133 0.0
C88 C 0.83578 0.68513 0.75055 0.0
C89 C 0.81945 0.67244 0.65241 0.0
H90 H 0.81373 0.6565 0.64597 0.0
H91 H 0.80636 0.68282 0.66273 0.0
H92 H 0.82671 0.67744 0.61006 0.0
O93 O 0.89003 0.64497 0.62518 0.0
O94 O 0.90748 0.6518 0.70774 0.0
H95 H 0.85264 0.70212 0.85133 0.0
H96 H 0.85729 0.67617 0.87538 0.0
C97 C 0.86055 0.68753 0.83978 0.0
H98 H 0.87737 0.69027 0.83805 0.0
H99 H 0.9194 0.67376 0.82438 0.0
O100 O 0.84545 0.64162 0.57511 0.0
C101 C 0.9067 0.64984 0.65146 0.0
Co102 Co 0.3543 0.86416 0.89837 0.0
Co103 Co 0.3496 0.88617 0.021 0.0
C104 C 0.38959 0.86658 0.98016 0.0
O105 O 0.38183 0.85953 0.93226 0.0
O106 O 0.379 0.87734 0.01641 0.0
C107 C 0.3644 0.83995 0.79262 0.0
O108 O 0.38323 0.8381 0.81335 0.0
C109 C 0.35337 0.89102 0.14913 0.0
C110 C 0.3224 0.90249 0.17218 0.0
C111 C 0.34014 0.89421 0.19702 0.0
N112 N 0.3433 0.89576 0.09877 0.0
N113 N 0.32516 0.90349 0.1129 0.0
C114 C 0.37553 0.88472 0.15026 0.0
H115 H 0.38417 0.89357 0.11627 0.0
H116 H 0.37683 0.8681 0.13944 0.0
H117 H 0.38265 0.88791 0.19421 0.0
C118 C 0.3208 0.83877 0.94598 0.0
N119 N 0.3339 0.85474 0.95055 0.0
N120 N 0.33186 0.86344 0.00309 0.0
C121 C 0.31739 0.85295 0.03401 0.0
C122 C 0.30987 0.83721 -0.00145 0.0
C123 C 0.31884 0.82539 0.89205 0.0
H124 H 0.31498 0.83511 0.853 0.0
H125 H 0.33381 0.81778 0.8831 0.0
H126 H 0.3067 0.81354 0.89755 0.0
O127 O 0.35085 0.89365 0.87991 0.0
O128 O 0.34532 0.90945 0.96585 0.0
H129 H 0.30206 0.86996 0.1021 0.0
H130 H 0.30399 0.8429 0.11745 0.0
C131 C 0.31221 0.85632 0.09818 0.0
H132 H 0.32647 0.85888 0.12406 0.0
H133 H 0.31398 0.90772 0.08183 0.0
O134 O 0.35107 0.8499 0.82218 0.0
C135 C 0.34714 0.90992 0.9095 0.0
Co136 Co 0.13781 0.65273 0.32927 0.0
Co137 Co 0.1167 0.64563 0.20618 0.0
C138 C 0.13544 0.611 0.278 0.0
O139 O 0.14121 0.6229 0.31961 0.0
O140 O 0.12595 0.61791 0.23259 0.0
C141 C 0.16683 0.65056 0.42453 0.0
O142 O 0.17474 0.63531 0.3937 0.0
C143 C 0.11986 0.6351 0.0813 0.0
C144 C 0.09354 0.65163 0.04143 0.0
C145 C 0.11106 0.64046 0.02717 0.0
N146 N 0.10855 0.6434 0.12518 0.0
N147 N 0.09253 0.65283 0.10126 0.0
C148 C 0.13887 0.62254 0.09184 0.0
H149 H 0.13604 0.61133 0.12791 0.0
H150 H 0.15163 0.63273 0.10629 0.0
H151 H 0.14347 0.61387 0.05145 0.0
C152 C 0.16341 0.68089 0.25811 0.0
N153 N 0.14797 0.66722 0.26338 0.0
N154 N 0.13839 0.66544 0.21199 0.0
C155 C 0.14713 0.67855 0.1727 0.0
C156 C 0.16336 0.68847 0.20058 0.0
C157 C 0.1774 0.68706 0.30796 0.0
H158 H 0.16806 0.69291 0.3457 0.0
H159 H 0.18599 0.67335 0.32376 0.0
H160 H 0.18849 0.69913 0.29397 0.0
O161 O 0.10839 0.65904 0.34202 0.0
O162 O 0.09276 0.65388 0.2553 0.0
H163 H 0.12313 0.68163 0.10767 0.0
H164 H 0.14588 0.69659 0.09168 0.0
C165 C 0.14016 0.68178 0.10985 0.0
H166 H 0.14629 0.66927 0.08151 0.0
H167 H 0.08159 0.66106 0.12553 0.0
O168 O 0.15188 0.66071 0.40295 0.0
C169 C 0.09218 0.65884 0.31016 0.0
Co170 Co 0.35479 0.1396 0.56252 0.0
Co171 Co 0.35086 0.11501 0.44364 0.0
C172 C 0.39107 0.13342 0.48418 0.0
O173 O 0.3831 0.14104 0.53099 0.0
O174 O 0.38038 0.12306 0.44733 0.0
C175 C 0.36792 0.15926 0.66911 0.0
O176 O 0.38636 0.15455 0.64933 0.0
C177 C 0.35307 0.11243 0.31577 0.0
C178 C 0.33197 0.08686 0.29369 0.0
C179 C 0.34447 0.10181 0.26857 0.0
N180 N 0.34608 0.10415 0.36657 0.0
N181 N 0.33372 0.08865 0.35332 0.0
C182 C 0.36553 0.1318 0.31293 0.0
H183 H 0.36377 0.14081 0.35456 0.0
H184 H 0.36079 0.14141 0.2744 0.0
H185 H 0.382 0.12774 0.30732 0.0
C186 C 0.32206 0.16428 0.50687 0.0
N187 N 0.33551 0.14856 0.50609 0.0
N188 N 0.33344 0.1382 0.4561 0.0
C189 C 0.31849 0.14712 0.42331 0.0
C190 C 0.31091 0.16387 0.45444 0.0
C191 C 0.32034 0.17956 0.55644 0.0
H192 H 0.33586 0.18563 0.5674 0.0
H193 H 0.30998 0.19251 0.54454 0.0
H194 H 0.3143 0.1717 0.59671 0.0
O195 O 0.34858 0.11117 0.58693 0.0
O196 O 0.34547 0.09318 0.50347 0.0
H197 H 0.2959 0.14651 0.35247 0.0
H198 H 0.32222 0.14318 0.32948 0.0
C199 C 0.31085 0.13937 0.36458 0.0
H200 H 0.30893 0.12245 0.36636 0.0
H201 H 0.3258 0.07988 0.38487 0.0
O202 O 0.35239 0.15563 0.63643 0.0
C203 C 0.34519 0.09428 0.56011 0.0
Co204 Co 0.85806 0.34731 0.85887 0.0
Co205 Co 0.88032 0.34863 0.73592 0.0
C206 C 0.8624 0.3866 0.79262 0.0
O207 O 0.85581 0.37677 0.83777 0.0
O208 O 0.87199 0.37746 0.7509 0.0
C209 C 0.83082 0.355 0.95791 0.0
O210 O 0.82572 0.37188 0.92927 0.0
C211 C 0.87974 0.35522 0.60903 0.0
C212 C 0.90794 0.33954 0.57793 0.0
C213 C 0.89077 0.35026 0.55809 0.0
N214 N 0.88989 0.34777 0.65636 0.0
N215 N 0.90689 0.33866 0.63779 0.0
C216 C 0.85886 0.36492 0.61317 0.0
H217 H 0.85148 0.36116 0.65639 0.0
H218 H 0.84882 0.35963 0.57621 0.0
H219 H 0.86049 0.38189 0.61021 0.0
C220 C 0.83238 0.31688 0.79598 0.0
N221 N 0.84812 0.33032 0.79761 0.0
N222 N 0.85775 0.33022 0.74605 0.0
C223 C 0.84848 0.31644 0.70999 0.0
C224 C 0.83206 0.30773 0.74033 0.0
C225 C 0.81763 0.31353 0.84626 0.0
H226 H 0.81182 0.32861 0.86212 0.0
H227 H 0.80444 0.30375 0.83276 0.0
H228 H 0.82588 0.3061 0.88384 0.0
O229 O 0.88714 0.34056 0.87685 0.0
O230 O 0.9033 0.34159 0.78976 0.0
H231 H 0.85049 0.29496 0.63681 0.0
H232 H 0.84947 0.32162 0.616 0.0
C233 C 0.85581 0.31064 0.64903 0.0
H234 H 0.87284 0.31111 0.64704 0.0
H235 H 0.91741 0.3313 0.66575 0.0
O236 O 0.8432 0.34237 0.93381 0.0
C237 C 0.90347 0.33887 0.84591 0.0
Co238 Co 0.64693 0.85254 0.10009 0.0
Co239 Co 0.64938 0.8781 0.98221 0.0
C240 C 0.60961 0.85983 0.02794 0.0
O241 O 0.61826 0.85095 0.07178 0.0
O242 O 0.61984 0.87093 0.99175 0.0
C243 C 0.6349 0.83115 0.2057 0.0
O244 O 0.61641 0.83213 0.18216 0.0
C245 C 0.64349 0.88269 0.85495 0.0
C246 C 0.66437 0.90832 0.8317 0.0
C247 C 0.65073 0.89422 0.80732 0.0
N248 N 0.65239 0.88966 0.90495 0.0
N249 N 0.66462 0.90519 0.89104 0.0
C250 C 0.63029 0.86379 0.85278 0.0
H251 H 0.63298 0.85404 0.89261 0.0
H252 H 0.63355 0.85468 0.81206 0.0
H253 H 0.61385 0.86844 0.85218 0.0
C254 C 0.67844 0.82784 0.03837 0.0
N255 N 0.66535 0.84383 0.04063 0.0
N256 N 0.66657 0.85442 0.99076 0.0
C257 C 0.68061 0.84544 0.95493 0.0
C258 C 0.68855 0.82826 0.98394 0.0
C259 C 0.68167 0.81308 0.08874 0.0
H260 H 0.68448 0.82182 0.13038 0.0
H261 H 0.66746 0.80385 0.0952 0.0
H262 H 0.69489 0.80266 0.0806 0.0
O263 O 0.65313 0.88102 0.1242 0.0
O264 O 0.65666 0.89937 0.04161 0.0
H265 H 0.68925 0.86913 0.89337 0.0
H266 H 0.6982 0.8438 0.87243 0.0
C267 C 0.68539 0.85251 0.8929 0.0
H268 H 0.67163 0.85031 0.86454 0.0
H269 H 0.67365 0.91319 0.92174 0.0
O270 O 0.65026 0.83694 0.17495 0.0
C271 C 0.65695 0.89797 0.09816 0.0
H272 H 0.31316 0.19108 0.36357 0.0
H273 H 0.28666 0.2159 0.33251 0.0
H274 H 0.24613 0.19319 0.46986 0.0
H275 H 0.27293 0.16883 0.5023 0.0
H276 H 0.23147 0.19908 0.33247 0.0
H277 H 0.2607 0.23116 0.51069 0.0
H278 H 0.29011 0.24309 0.57091 0.0
H279 H 0.30933 0.28273 0.42822 0.0
H280 H 0.28022 0.2707 0.3667 0.0
H281 H 0.15298 0.27445 0.31843 0.0
H282 H 0.17805 0.24855 0.34996 0.0
H283 H 0.22755 0.28775 0.28944 0.0
H284 H 0.20253 0.31426 0.26233 0.0
H285 H 0.23794 0.27263 0.38897 0.0
H286 H 0.21032 0.24344 0.21097 0.0
H287 H 0.18343 0.23126 0.14193 0.0
H288 H 0.16382 0.18642 0.27055 0.0
H289 H 0.19042 0.19852 0.34072 0.0
C290 C 0.29856 0.19149 0.38693 0.0
C291 C 0.29489 0.17832 0.43522 0.0
C292 C 0.28353 0.20554 0.36924 0.0
C293 C 0.26457 0.20624 0.39905 0.0
C294 C 0.26072 0.19274 0.4465 0.0
C295 C 0.27594 0.17899 0.46502 0.0
C296 C 0.249 0.22149 0.38135 0.0
C297 C 0.2326 0.21514 0.34535 0.0
C298 C 0.25111 0.24243 0.39666 0.0
C299 C 0.26844 0.24984 0.43387 0.0
C300 C 0.27133 0.24224 0.49192 0.0
C301 C 0.28791 0.24906 0.52634 0.0
C302 C 0.30162 0.26362 0.50334 0.0
C303 C 0.29872 0.27143 0.44593 0.0
C304 C 0.28218 0.26462 0.41129 0.0
C305 C 0.16924 0.27754 0.31247 0.0
C306 C 0.1759 0.2963 0.28828 0.0
C307 C 0.18354 0.26265 0.32971 0.0
C308 C 0.20472 0.26604 0.32126 0.0
C309 C 0.21132 0.28475 0.29639 0.0
C310 C 0.19704 0.2998 0.28038 0.0
C311 C 0.22003 0.25037 0.33982 0.0
C312 C 0.23656 0.25661 0.37595 0.0
C313 C 0.21823 0.22938 0.32345 0.0
C314 C 0.20224 0.22203 0.28132 0.0
C315 C 0.20017 0.23108 0.22471 0.0
C316 C 0.185 0.22418 0.18534 0.0
C317 C 0.17189 0.20811 0.2019 0.0
C318 C 0.17396 0.19888 0.25781 0.0
C319 C 0.1891 0.20574 0.29738 0.0
H320 H 0.16015 0.20278 0.17136 0.0
H321 H 0.31445 0.26889 0.53006 0.0
H322 H 0.82386 0.26968 0.78469 0.0
H323 H 0.79993 0.24399 0.74348 0.0
H324 H 0.78293 0.28648 0.60427 0.0
H325 H 0.80726 0.31191 0.64425 0.0
H326 H 0.75036 0.25778 0.69845 0.0
H327 H 0.80319 0.26211 0.53486 0.0
H328 H 0.83976 0.26185 0.50505 0.0
H329 H 0.84836 0.2041 0.59482 0.0
H330 H 0.81189 0.20426 0.62603 0.0
H331 H 0.68795 0.20232 0.50012 0.0
H332 H 0.71286 0.22701 0.54029 0.0
H333 H 0.75337 0.17695 0.58788 0.0
H334 H 0.72875 0.15233 0.54551 0.0
H335 H 0.775 0.20827 0.54587 0.0
H336 H 0.72228 0.1988 0.6896 0.0
H337 H 0.68667 0.19702 0.72713 0.0
H338 H 0.6785 0.26137 0.69063 0.0
H339 H 0.71385 0.2634 0.65087 0.0
C340 C 0.81492 0.27345 0.74543 0.0
C341 C 0.81725 0.29259 0.71733 0.0
C342 C 0.80135 0.25887 0.72207 0.0
C343 C 0.78984 0.26345 0.67095 0.0
C344 C 0.79182 0.28274 0.64366 0.0
C345 C 0.80566 0.29717 0.66633 0.0
C346 C 0.77602 0.24789 0.64514 0.0
C347 C 0.75555 0.24708 0.66455 0.0
C348 C 0.78321 0.23356 0.60287 0.0
C349 C 0.80496 0.23333 0.58333 0.0
C350 C 0.81295 0.24948 0.54871 0.0
C351 C 0.83364 0.24933 0.53148 0.0
C352 C 0.8464 0.233 0.54819 0.0
C353 C 0.83848 0.21676 0.58202 0.0
C354 C 0.81781 0.21687 0.5995 0.0
C355 C 0.7023 0.1967 0.51858 0.0
C356 C 0.70641 0.17555 0.52095 0.0
C357 C 0.71643 0.21073 0.54178 0.0
C358 C 0.73475 0.20375 0.56821 0.0
C359 C 0.73925 0.18263 0.56813 0.0
C360 C 0.72517 0.16861 0.54446 0.0
C361 C 0.74888 0.21847 0.59745 0.0
C362 C 0.76957 0.21899 0.57939 0.0
C363 C 0.7419 0.2323 0.64189 0.0
C364 C 0.7207 0.23121 0.66666 0.0
C365 C 0.71285 0.21255 0.68903 0.0
C366 C 0.6927 0.21148 0.71069 0.0
C367 C 0.68035 0.22907 0.71134 0.0
C368 C 0.6881 0.24775 0.69011 0.0
C369 C 0.70818 0.24886 0.66786 0.0
H370 H 0.66477 0.22823 0.72833 0.0
H371 H 0.86241 0.2329 0.53479 0.0
H372 H 0.83911 0.72665 0.75458 0.0
H373 H 0.81351 0.75114 0.79254 0.0
H374 H 0.7722 0.70073 0.83092 0.0
H375 H 0.79756 0.67643 0.79077 0.0
H376 H 0.75147 0.73145 0.78636 0.0
H377 H 0.80197 0.72393 0.94004 0.0
H378 H 0.83702 0.72388 0.98227 0.0
H379 H 0.84354 0.78802 0.94012 0.0
H380 H 0.80865 0.78837 0.89666 0.0
H381 H 0.68456 0.7867 0.97798 0.0
H382 H 0.70957 0.76189 0.93917 0.0
H383 H 0.75126 0.81166 0.89782 0.0
H384 H 0.72675 0.8363 0.94002 0.0
H385 H 0.7716 0.78082 0.94445 0.0
H386 H 0.7194 0.78706 0.79044 0.0
H387 H 0.68401 0.78533 0.75066 0.0
H388 H 0.68017 0.72156 0.79874 0.0
H389 H 0.71538 0.72291 0.83967 0.0
C390 C 0.82445 0.72097 0.7707 0.0
C391 C 0.8201 0.69987 0.77017 0.0
C392 C 0.80993 0.73486 0.79267 0.0
C393 C 0.79109 0.72771 0.81557 0.0
C394 C 0.78663 0.70657 0.81359 0.0
C395 C 0.80105 0.69273 0.79087 0.0
C396 C 0.77614 0.7422 0.84238 0.0
C397 C 0.7558 0.7421 0.8214 0.0
C398 C 0.78188 0.75622 0.88765 0.0
C399 C 0.80276 0.75613 0.91461 0.0
C400 C 0.81093 0.738 0.93944 0.0
C401 C 0.83076 0.73791 0.96361 0.0
C402 C 0.84251 0.75593 0.96377 0.0
C403 C 0.83443 0.77407 0.9399 0.0
C404 C 0.81462 0.77423 0.91552 0.0
C405 C 0.69917 0.79224 0.96104 0.0
C406 C 0.70373 0.81334 0.96118 0.0
C407 C 0.71333 0.77812 0.93835 0.0
C408 C 0.7321 0.78496 0.91433 0.0
C409 C 0.73681 0.80605 0.91566 0.0
C410 C 0.72278 0.82011 0.93922 0.0
C411 C 0.74693 0.7702 0.8881 0.0
C412 C 0.76727 0.77021 0.9093 0.0
C413 C 0.74111 0.7559 0.84358 0.0
C414 C 0.71997 0.75514 0.81857 0.0
C415 C 0.71097 0.7727 0.79287 0.0
C416 C 0.69095 0.77179 0.77008 0.0
C417 C 0.67986 0.75339 0.77224 0.0
C418 C 0.68876 0.73581 0.79712 0.0
C419 C 0.70875 0.73663 0.8201 0.0
H420 H 0.66437 0.75275 0.75454 0.0
H421 H 0.85787 0.75583 0.98249 0.0
H422 H 0.20363 0.68214 0.1773 0.0
H423 H 0.22843 0.70702 0.13728 0.0
H424 H 0.18043 0.7529 0.12768 0.0
H425 H 0.15552 0.72768 0.16587 0.0
H426 H 0.20404 0.75515 0.03238 0.0
H427 H 0.21537 0.75176 0.24258 0.0
H428 H 0.22199 0.73477 0.33892 0.0
H429 H 0.28 0.71249 0.27378 0.0
H430 H 0.27356 0.72903 0.1766 0.0
H431 H 0.27014 0.8435 0.03036 0.0
H432 H 0.24474 0.81738 0.0599 0.0
H433 H 0.29027 0.7698 0.03497 0.0
H434 H 0.31558 0.79592 0.00465 0.0
H435 H 0.26816 0.76848 0.14629 0.0
H436 H 0.25591 0.77341 0.93509 0.0
H437 H 0.24852 0.79174 0.84132 0.0
H438 H 0.19124 0.81336 0.91336 0.0
H439 H 0.19845 0.79542 0.00798 0.0
C440 C 0.19848 0.69753 0.16614 0.0
C441 C 0.17789 0.70322 0.17448 0.0
C442 C 0.21258 0.71171 0.14361 0.0
C443 C 0.20634 0.73191 0.13048 0.0
C444 C 0.18557 0.73741 0.13761 0.0
C445 C 0.17141 0.72311 0.15948 0.0
C446 C 0.22158 0.74743 0.11078 0.0
C447 C 0.21793 0.75824 0.05768 0.0
C448 C 0.23985 0.75125 0.14343 0.0
C449 C 0.24388 0.74147 0.20209 0.0
C450 C 0.22948 0.74312 0.24864 0.0
C451 C 0.2332 0.73357 0.30341 0.0
C452 C 0.25138 0.72252 0.31242 0.0
C453 C 0.26591 0.72103 0.2667 0.0
C454 C 0.26223 0.73049 0.21176 0.0
C455 C 0.27458 0.82743 0.03095 0.0
C456 C 0.29459 0.82152 0.01501 0.0
C457 C 0.26015 0.81259 0.04763 0.0
C458 C 0.26569 0.79173 0.04918 0.0
C459 C 0.28577 0.78585 0.03379 0.0
C460 C 0.30011 0.80067 0.01634 0.0
C461 C 0.25059 0.77607 0.06805 0.0
C462 C 0.25427 0.76531 0.12107 0.0
C463 C 0.23224 0.77253 0.03583 0.0
C464 C 0.22783 0.78324 0.97885 0.0
C465 C 0.24183 0.78223 0.93115 0.0
C466 C 0.23766 0.79252 0.8778 0.0
C467 C 0.21945 0.80375 0.87143 0.0
C468 C 0.20535 0.80468 0.91838 0.0
C469 C 0.20947 0.79444 0.97186 0.0
H470 H 0.21624 0.81171 0.83009 0.0
H471 H 0.25424 0.71515 0.35486 0.0
H472 H 0.10194 0.37879 0.53483 0.0
H473 H 0.11613 0.38094 0.63557 0.0
H474 H 0.12162 0.31476 0.64128 0.0
H475 H 0.10707 0.31258 0.5406 0.0
H476 H 0.10882 0.33007 0.74608 0.0
H477 H 0.16306 0.34376 0.609 0.0
H478 H 0.17924 0.36063 0.52248 0.0
H479 H 0.17473 0.41923 0.60973 0.0
H480 H 0.15814 0.40278 0.69637 0.0
H481 H 0.16527 0.33697 0.00822 0.0
H482 H 0.16254 0.32979 0.90182 0.0
H483 H 0.14845 0.39362 0.86827 0.0
H484 H 0.15131 0.40102 0.97447 0.0
H485 H 0.16983 0.37513 0.77439 0.0
H486 H 0.10991 0.36232 0.89939 0.0
H487 H 0.09175 0.34637 0.98387 0.0
H488 H 0.10658 0.28627 0.91746 0.0
H489 H 0.12507 0.30191 0.83254 0.0
C490 C 0.10593 0.36473 0.55809 0.0
C491 C 0.10372 0.34556 0.53027 0.0
C492 C 0.11413 0.36596 0.61524 0.0
C493 C 0.12047 0.34804 0.64494 0.0
C494 C 0.11702 0.32876 0.61867 0.0
C495 C 0.10863 0.32752 0.56154 0.0
C496 C 0.13108 0.34959 0.70288 0.0
C497 C 0.12244 0.33953 0.75203 0.0
C498 C 0.14873 0.36213 0.71047 0.0
C499 C 0.15924 0.37203 0.65911 0.0
C500 C 0.16543 0.36026 0.60966 0.0
C501 C 0.17467 0.36975 0.56057 0.0
C502 C 0.17799 0.39099 0.56058 0.0
C503 C 0.17214 0.40277 0.60979 0.0
C504 C 0.16283 0.39337 0.65894 0.0
C505 C 0.16223 0.34962 0.97805 0.0
C506 C 0.15793 0.36946 -0.00019 0.0
C507 C 0.16069 0.34547 0.91729 0.0
C508 C 0.15478 0.36108 0.8777 0.0
C509 C 0.15288 0.38135 0.89838 0.0
C510 C 0.15446 0.38554 0.95914 0.0
C511 C 0.14733 0.35589 0.81748 0.0
C512 C 0.15653 0.36528 0.76799 0.0
C513 C 0.13019 0.34271 0.80937 0.0
C514 C 0.11909 0.33327 0.86017 0.0
C515 C 0.10944 0.3457 0.90306 0.0
C516 C 0.09906 0.33672 0.95098 0.0
C517 C 0.09808 0.31533 0.95631 0.0
C518 C 0.10741 0.30285 0.91342 0.0
C519 C 0.11783 0.31175 0.86535 0.0
H520 H 0.09006 0.30845 0.99358 0.0
H521 H 0.18512 0.39831 0.52249 0.0
H522 H 0.62248 0.1869 0.226 0.0
H523 H 0.62211 0.19 0.1173 0.0
H524 H 0.67778 0.15394 0.10716 0.0
H525 H 0.67846 0.15109 0.21515 0.0
H526 H 0.67552 0.18095 0.01547 0.0
H527 H 0.63174 0.12988 0.11428 0.0
H528 H 0.60407 0.11986 0.18382 0.0
H529 H 0.56125 0.15795 0.0884 0.0
H530 H 0.58879 0.16839 0.01876 0.0
H531 H 0.63887 0.09614 0.80098 0.0
H532 H 0.63863 0.11309 0.89829 0.0
H533 H 0.64864 0.17184 0.81307 0.0
H534 H 0.6503 0.15482 0.71661 0.0
H535 H 0.61484 0.14098 0.94697 0.0
H536 H 0.67731 0.20248 0.90879 0.0
H537 H 0.7074 0.20905 0.84438 0.0
H538 H 0.71632 0.14404 0.82221 0.0
H539 H 0.68659 0.13708 0.88756 0.0
C540 C 0.63501 0.18026 0.20067 0.0
C541 C 0.65018 0.16825 0.2287 0.0
C542 C 0.63478 0.18206 0.13865 0.0
C543 C 0.64966 0.17181 0.10436 0.0
C544 C 0.6661 0.16188 0.13283 0.0
C545 C 0.66635 0.16009 0.19457 0.0
C546 C 0.64631 0.16785 0.04036 0.0
C547 C 0.66208 0.17259 -2e-05 0.0
C548 C 0.62894 0.1566 0.02071 0.0
C549 C 0.61233 0.15009 0.06186 0.0
C550 C 0.61644 0.13618 0.10837 0.0
C551 C 0.60079 0.13043 0.14777 0.0
C552 C 0.58092 0.13831 0.14064 0.0
C553 C 0.57665 0.1519 0.09395 0.0
C554 C 0.59227 0.15774 0.05452 0.0
C555 C 0.64093 0.11267 0.80318 0.0
C556 C 0.64398 0.12422 0.75119 0.0
C557 C 0.64067 0.12236 0.85858 0.0
C558 C 0.64357 0.14374 0.86284 0.0
C559 C 0.64642 0.15533 0.81084 0.0
C560 C 0.64698 0.1456 0.75558 0.0
C561 C 0.64433 0.15358 0.92212 0.0
C562 C 0.628 0.14996 0.9616 0.0
C563 C 0.66147 0.16537 0.94118 0.0
C564 C 0.67954 0.16929 0.90236 0.0
C565 C 0.68575 0.18959 0.89032 0.0
C566 C 0.70276 0.19338 0.85377 0.0
C567 C 0.71371 0.17698 0.829 0.0
C568 C 0.70777 0.15674 0.84118 0.0
C569 C 0.69085 0.15286 0.87803 0.0
H570 H 0.72681 0.17995 0.80046 0.0
H571 H 0.56883 0.13385 0.17121 0.0
H572 H 0.88787 0.68745 0.01252 0.0
H573 H 0.87289 0.68565 0.11272 0.0
H574 H 0.87746 0.61935 0.10832 0.0
H575 H 0.89183 0.62118 0.00769 0.0
H576 H 0.84071 0.6309 0.14799 0.0
H577 H 0.9116 0.65014 0.18468 0.0
H578 H 0.94224 0.67222 0.17365 0.0
H579 H 0.90909 0.7232 0.24838 0.0
H580 H 0.87811 0.70151 0.25887 0.0
H581 H 0.84675 0.5989 0.44802 0.0
H582 H 0.84864 0.60716 0.34221 0.0
H583 H 0.83609 0.67094 0.38114 0.0
H584 H 0.83417 0.66286 0.48717 0.0
H585 H 0.87226 0.66568 0.32213 0.0
H586 H 0.80268 0.64465 0.29793 0.0
H587 H 0.77231 0.62223 0.30899 0.0
H588 H 0.8031 0.57426 0.21234 0.0
H589 H 0.8338 0.59628 0.20141 0.0
C590 C 0.88594 0.67257 0.03362 0.0
C591 C 0.89099 0.65444 0.00316 0.0
C592 C 0.8773 0.67153 0.09047 0.0
C593 C 0.87409 0.65235 0.11785 0.0
C594 C 0.87965 0.63428 0.08773 0.0
C595 C 0.88799 0.63532 0.03071 0.0
C596 C 0.86505 0.65091 0.17807 0.0
C597 C 0.84765 0.6384 0.18622 0.0
C598 C 0.87372 0.66131 0.22736 0.0
C599 C 0.89245 0.67427 0.22186 0.0
C600 C 0.91077 0.66611 0.1982 0.0
C601 C 0.92821 0.67856 0.19204 0.0
C602 C 0.92758 0.69914 0.21 0.0
C603 C 0.90952 0.70729 0.23423 0.0
C604 C 0.89203 0.69492 0.24032 0.0
C605 C 0.84377 0.61457 0.434 0.0
C606 C 0.8407 0.63028 0.47601 0.0
C607 C 0.8448 0.61926 0.37346 0.0
C608 C 0.84264 0.63969 0.35407 0.0
C609 C 0.83789 0.65511 0.39542 0.0
C610 C 0.83676 0.65042 0.45595 0.0
C611 C 0.84823 0.6452 0.29236 0.0
C612 C 0.86503 0.65848 0.28385 0.0
C613 C 0.83907 0.63543 0.24283 0.0
C614 C 0.82061 0.6221 0.24916 0.0
C615 C 0.80305 0.62927 0.27941 0.0
C616 C 0.78576 0.61663 0.28559 0.0
C617 C 0.78579 0.59682 0.26146 0.0
C618 C 0.8031 0.58962 0.231 0.0
C619 C 0.82044 0.60218 0.22472 0.0
H620 H 0.77238 0.58707 0.26629 0.0
H621 H 0.94111 0.70873 0.20542 0.0
H622 H 0.3648 0.86254 0.24004 0.0
H623 H 0.36566 0.84863 0.33888 0.0
H624 H 0.31476 0.88776 0.38884 0.0
H625 H 0.31628 0.90448 0.29197 0.0
H626 H 0.33634 0.88709 0.47407 0.0
H627 H 0.3121 0.83171 0.35987 0.0
H628 H 0.31014 0.80646 0.27816 0.0
H629 H 0.36781 0.78028 0.33299 0.0
H630 H 0.37029 0.80557 0.41452 0.0
H631 H 0.32629 0.83633 0.74387 0.0
H632 H 0.31806 0.83724 0.63802 0.0
H633 H 0.38254 0.83211 0.59515 0.0
H634 H 0.39104 0.83128 0.70141 0.0
H635 H 0.34891 0.81268 0.50861 0.0
H636 H 0.37001 0.87754 0.61692 0.0
H637 H 0.36477 0.90204 0.69934 0.0
H638 H 0.30072 0.90716 0.65384 0.0
H639 H 0.30565 0.88261 0.57125 0.0
C640 C 0.3546 0.86927 0.27238 0.0
C641 C 0.34127 0.88564 0.25822 0.0
C642 C 0.35445 0.86047 0.32887 0.0
C643 C 0.33995 0.86668 0.37145 0.0
C644 C 0.32623 0.88266 0.3571 0.0
C645 C 0.32708 0.89222 0.30148 0.0
C646 C 0.34002 0.85742 0.43196 0.0
C647 C 0.33861 0.87072 0.48091 0.0
C648 C 0.34285 0.836 0.44202 0.0
C649 C 0.34145 0.82066 0.39314 0.0
C650 C 0.32444 0.82066 0.3543 0.0
C651 C 0.32323 0.80633 0.30802 0.0
C652 C 0.33886 0.7918 0.30033 0.0
C653 C 0.35571 0.79155 0.33899 0.0
C654 C 0.35702 0.80586 0.38532 0.0
C655 C 0.3387 0.83469 0.71202 0.0
C656 C 0.35937 0.83428 0.73078 0.0
C657 C 0.33392 0.83506 0.65159 0.0
C658 C 0.34973 0.83499 0.60925 0.0
C659 C 0.37018 0.83211 0.62754 0.0
C660 C 0.375 0.83174 0.6882 0.0
C661 C 0.3455 0.8425 0.54865 0.0
C662 C 0.34624 0.82891 0.50039 0.0
C663 C 0.34089 0.86345 0.53893 0.0
C664 C 0.33815 0.87816 0.5885 0.0
C665 C 0.35481 0.8838 0.62486 0.0
C666 C 0.35188 0.89772 0.67153 0.0
C667 C 0.33237 0.90609 0.68199 0.0
C668 C 0.31579 0.90063 0.64573 0.0
C669 C 0.31865 0.88676 0.59899 0.0
H670 H 0.33002 0.91686 0.71795 0.0
H671 H 0.33789 0.78072 0.26447 0.0
H672 H 0.15176 0.64384 -0.00381 0.0
H673 H 0.16644 0.6436 0.89693 0.0
H674 H 0.10566 0.63729 0.82146 0.0
H675 H 0.09091 0.63577 0.92186 0.0
H676 H 0.13176 0.61533 0.75944 0.0
H677 H 0.1302 0.6845 0.83453 0.0
H678 H 0.13738 0.71206 0.9071 0.0
H679 H 0.20236 0.70265 0.88487 0.0
H680 H 0.19556 0.6748 0.81278 0.0
H681 H 0.15569 0.68199 0.49772 0.0
H682 H 0.15313 0.68027 0.60582 0.0
H683 H 0.18509 0.62207 0.60505 0.0
H684 H 0.18743 0.6235 0.49643 0.0
H685 H 0.1755 0.67529 0.7063 0.0
H686 H 0.15544 0.58895 0.69062 0.0
H687 H 0.14481 0.56363 0.61464 0.0
H688 H 0.11669 0.61174 0.51178 0.0
H689 H 0.12669 0.63723 0.58778 0.0
C690 C 0.14153 0.64142 0.95889 0.0
C691 C 0.12019 0.63905 0.96705 0.0
C692 C 0.14995 0.64177 0.90188 0.0
C693 C 0.13714 0.64068 0.85176 0.0
C694 C 0.11584 0.63808 0.8596 0.0
C695 C 0.10743 0.63732 0.91684 0.0
C696 C 0.14585 0.64327 0.79129 0.0
C697 C 0.14143 0.62836 0.74798 0.0
C698 C 0.15824 0.66045 0.77612 0.0
C699 C 0.16237 0.67743 0.81871 0.0
C700 C 0.14602 0.68823 0.84537 0.0
C701 C 0.15002 0.7039 0.88641 0.0
C702 C 0.17031 0.70906 0.90071 0.0
C703 C 0.18665 0.69861 0.87382 0.0
C704 C 0.18273 0.68289 0.83284 0.0
C705 C 0.16274 0.66912 0.52063 0.0
C706 C 0.17124 0.6526 0.48861 0.0
C707 C 0.16135 0.66821 0.58248 0.0
C708 C 0.16844 0.65079 0.61304 0.0
C709 C 0.17923 0.63548 0.58189 0.0
C710 C 0.18061 0.63636 0.51988 0.0
C711 C 0.16155 0.64728 0.67487 0.0
C712 C 0.16618 0.66205 0.71827 0.0
C713 C 0.1488 0.63033 0.68965 0.0
C714 C 0.1421 0.61503 0.64451 0.0
C715 C 0.1469 0.59409 0.65193 0.0
C716 C 0.14097 0.57971 0.60887 0.0
C717 C 0.13016 0.58608 0.55827 0.0
C718 C 0.12515 0.60683 0.55082 0.0
C719 C 0.13092 0.62124 0.59393 0.0
H720 H 0.12563 0.57494 0.52493 0.0
H721 H 0.17338 0.72119 0.93254 0.0
H722 H 0.31276 0.10703 0.19124 0.0
H723 H 0.31462 0.12111 0.09006 0.0
H724 H 0.38093 0.12326 0.10295 0.0
H725 H 0.37899 0.10971 0.20449 0.0
H726 H 0.36729 0.15823 0.06205 0.0
H727 H 0.35463 0.08698 0.01736 0.0
H728 H 0.33641 0.05369 0.01934 0.0
H729 H 0.2826 0.08217 0.9448 0.0
H730 H 0.30039 0.11572 0.94327 0.0
H731 H 0.39689 0.16011 0.75731 0.0
H732 H 0.39037 0.15646 0.8637 0.0
H733 H 0.32515 0.16307 0.83277 0.0
H734 H 0.33149 0.16659 0.72611 0.0
H735 H 0.3348 0.12673 0.88434 0.0
H736 H 0.3503 0.19757 0.9187 0.0
H737 H 0.37052 0.22958 0.91134 0.0
H738 H 0.42118 0.20048 0.00083 0.0
H739 H 0.40138 0.16819 0.00799 0.0
C740 C 0.3277 0.11021 0.17185 0.0
C741 C 0.34574 0.10746 0.20528 0.0
C742 C 0.32877 0.11826 0.11423 0.0
C743 C 0.34793 0.12324 0.08895 0.0
C744 C 0.36598 0.11972 0.12178 0.0
C745 C 0.36489 0.11192 0.17953 0.0
C746 C 0.34925 0.13279 0.02918 0.0
C747 C 0.36034 0.15125 0.02304 0.0
C748 C 0.33964 0.12401 0.97868 0.0
C749 C 0.32876 0.10393 0.98097 0.0
C750 C 0.33883 0.0862 0.00208 0.0
C751 C 0.32859 0.06727 0.00297 0.0
C752 C 0.30834 0.06583 0.9824 0.0
C753 C 0.29827 0.08332 0.96089 0.0
C754 C 0.30842 0.1023 0.96001 0.0
C755 C 0.38121 0.16148 0.77325 0.0
C756 C 0.36467 0.16316 0.73319 0.0
C757 C 0.37751 0.15946 0.8342 0.0
C758 C 0.35725 0.15931 0.85594 0.0
C759 C 0.34088 0.16301 0.81669 0.0
C760 C 0.34456 0.16504 0.75577 0.0
C761 C 0.35309 0.15198 0.91708 0.0
C762 C 0.34147 0.13389 0.9235 0.0
C763 C 0.36244 0.16095 0.96755 0.0
C764 C 0.37438 0.18039 0.96353 0.0
C765 C 0.3658 0.19793 0.93641 0.0
C766 C 0.37718 0.21615 0.93236 0.0
C767 C 0.39713 0.21706 0.95552 0.0
C768 C 0.40572 0.19976 0.9829 0.0
C769 C 0.39442 0.18151 0.98706 0.0
H770 H 0.40591 0.23117 0.95232 0.0
H771 H 0.30047 0.05115 0.98296 0.0
H772 H 0.87021 0.38266 0.50672 0.0
H773 H 0.85577 0.38403 0.40625 0.0
H774 H 0.88355 0.3254 0.36596 0.0
H775 H 0.89738 0.32352 0.46719 0.0
H776 H 0.88759 0.3553 0.27465 0.0
H777 H 0.83573 0.32526 0.40135 0.0
H778 H 0.81317 0.32438 0.48965 0.0
H779 H 0.78349 0.37996 0.43184 0.0
H780 H 0.80616 0.38138 0.3437 0.0
H781 H 0.83701 0.32125 0.02738 0.0
H782 H 0.84136 0.3213 0.13516 0.0
H783 H 0.82049 0.3842 0.14278 0.0
H784 H 0.81622 0.38444 0.03441 0.0
H785 H 0.81149 0.3542 0.25115 0.0
H786 H 0.86489 0.38583 0.12963 0.0
H787 H 0.88661 0.38653 0.03952 0.0
H788 H 0.91292 0.32825 0.08793 0.0
H789 H 0.89106 0.32707 0.17794 0.0
C790 C 0.87301 0.36993 0.47682 0.0
C791 C 0.8843 0.35264 0.49543 0.0
C792 C 0.86493 0.37084 0.41931 0.0
C793 C 0.86832 0.35463 0.37935 0.0
C794 C 0.88068 0.33797 0.39651 0.0
C795 C 0.88859 0.33696 0.45421 0.0
C796 C 0.8584 0.35468 0.32026 0.0
C797 C 0.87098 0.35496 0.26961 0.0
C798 C 0.8367 0.35459 0.3139 0.0
C799 C 0.82279 0.35355 0.36626 0.0
C800 C 0.82451 0.33739 0.4077 0.0
C801 C 0.81169 0.33678 0.4577 0.0
C802 C 0.79694 0.35213 0.46643 0.0
C803 C 0.79494 0.36809 0.42507 0.0
C804 C 0.80777 0.36881 0.37507 0.0
C805 C 0.83264 0.33489 0.05206 0.0
C806 C 0.82683 0.35303 0.02234 0.0
C807 C 0.83503 0.33483 0.11367 0.0
C808 C 0.83153 0.35285 0.14636 0.0
C809 C 0.82323 0.37017 0.11797 0.0
C810 C 0.82088 0.37028 0.05605 0.0
C811 C 0.84072 0.35474 0.20607 0.0
C812 C 0.82807 0.35477 0.25655 0.0
C813 C 0.86237 0.35525 0.21256 0.0
C814 C 0.87622 0.35628 0.16011 0.0
C815 C 0.87524 0.37312 0.12088 0.0
C816 C 0.88756 0.37361 0.06987 0.0
C817 C 0.90106 0.35741 0.05791 0.0
C818 C 0.90241 0.34077 0.09722 0.0
C819 C 0.89008 0.34019 0.14828 0.0
H820 H 0.91046 0.35779 0.01818 0.0
H821 H 0.78703 0.35164 0.50517 0.0
H822 H 0.60473 0.82414 0.28829 0.0
H823 H 0.60698 0.83133 0.39483 0.0
H824 H 0.67215 0.8426 0.37746 0.0
H825 H 0.67018 0.835 0.27127 0.0
H826 H 0.6626 0.82613 0.48646 0.0
H827 H 0.63996 0.88263 0.36177 0.0
H828 H 0.61763 0.89735 0.2837 0.0
H829 H 0.56424 0.88492 0.39071 0.0
H830 H 0.58629 0.87002 0.46933 0.0
H831 H 0.67963 0.89556 0.72005 0.0
H832 H 0.67602 0.88364 0.61719 0.0
H833 H 0.61157 0.87148 0.64756 0.0
H834 H 0.61497 0.88394 0.75002 0.0
H835 H 0.61971 0.88727 0.53386 0.0
H836 H 0.64487 0.83436 0.66541 0.0
H837 H 0.66886 0.82139 0.74169 0.0
H838 H 0.71928 0.82761 0.61924 0.0
H839 H 0.69568 0.84136 0.54284 0.0
C840 C 0.61967 0.82749 0.3074 0.0
C841 C 0.63718 0.8295 0.27105 0.0
C842 C 0.62091 0.83168 0.36827 0.0
C843 C 0.63962 0.83808 0.3935 0.0
C844 C 0.65753 0.83788 0.35867 0.0
C845 C 0.65634 0.83357 0.29788 0.0
C846 C 0.64006 0.84757 0.45338 0.0
C847 C 0.65331 0.83952 0.49682 0.0
C848 C 0.62789 0.86506 0.46675 0.0
C849 C 0.61473 0.87505 0.42112 0.0
C850 C 0.62346 0.88304 0.36862 0.0
C851 C 0.61086 0.89139 0.32426 0.0
C852 C 0.58952 0.89191 0.33208 0.0
C853 C 0.58077 0.88442 0.38467 0.0
C854 C 0.59331 0.87607 0.42921 0.0
C855 C 0.66461 0.89075 0.70438 0.0
C856 C 0.6477 0.89009 0.7433 0.0
C857 C 0.66259 0.88387 0.6458 0.0
C858 C 0.64364 0.87625 0.6254 0.0
C859 C 0.62637 0.87709 0.66278 0.0
C860 C 0.62839 0.88398 0.72139 0.0
C861 C 0.64226 0.86583 0.56701 0.0
C862 C 0.62887 0.87375 0.52376 0.0
C863 C 0.65449 0.84836 0.55371 0.0
C864 C 0.66852 0.83908 0.59854 0.0
C865 C 0.66109 0.83307 0.65481 0.0
C866 C 0.67463 0.82562 0.69813 0.0
C867 C 0.69559 0.8237 0.68534 0.0
C868 C 0.70304 0.82914 0.62911 0.0
C869 C 0.68959 0.83681 0.58581 0.0
H870 H 0.70607 0.81796 0.71897 0.0
H871 H 0.57975 0.89813 0.29742 0.0
H872 H 0.05618 0.32865 0.21245 0.0
H873 H 0.02439 0.3238 0.15498 0.0
H874 H 0.04949 0.3607 0.01254 0.0
H875 H 0.081 0.36586 0.06996 0.0
H876 H 0.01034 0.37182 0.04101 0.0
H877 H 0.04752 0.30976 -0.00294 0.0
H878 H 0.06642 0.27786 0.02073 0.0
H879 H 0.01334 0.25405 0.11161 0.0
H880 H 0.99418 0.2859 0.08902 0.0
H881 H 0.94187 0.3493 0.80745 0.0
H882 H 0.97389 0.34811 0.86474 0.0
H883 H 0.94183 0.31945 0.0111 0.0
H884 H 0.90959 0.32088 0.95448 0.0
H885 H 0.98373 0.30308 0.98279 0.0
H886 H 0.94763 0.36566 0.03231 0.0
H887 H 0.92845 0.39747 0.00913 0.0
H888 H 0.97991 0.42004 0.90825 0.0
H889 H 0.99925 0.38819 0.93022 0.0
C890 C 0.05485 0.33574 0.16893 0.0
C891 C 0.07111 0.34742 0.14522 0.0
C892 C 0.03679 0.33284 0.13605 0.0
C893 C 0.03474 0.34171 0.07928 0.0
C894 C 0.05083 0.35364 0.05612 0.0
C895 C 0.06886 0.35644 0.08875 0.0
C896 C 0.01561 0.33909 0.04438 0.0
C897 C 0.00469 0.35679 0.02775 0.0
C898 C 0.008 0.31945 0.02825 0.0
C899 C 0.01949 0.30031 0.04193 0.0
C900 C 0.03994 0.2978 0.02256 0.0
C901 C 0.05069 0.27972 0.03567 0.0
C902 C 0.04111 0.26398 0.06784 0.0
C903 C 0.02075 0.26627 0.08679 0.0
C904 C 0.00993 0.28432 0.07379 0.0
C905 C 0.9417 0.34239 0.85137 0.0
C906 C 0.92321 0.33536 0.87676 0.0
C907 C 0.95997 0.34176 0.88402 0.0
C908 C 0.96008 0.33383 0.94212 0.0
C909 C 0.94196 0.32562 0.96626 0.0
C910 C 0.92359 0.32653 0.93398 0.0
C911 C 0.97872 0.3358 0.97926 0.0
C912 C 0.98947 0.31805 -0.00373 0.0
C913 C 0.98625 0.35537 -0.00415 0.0
C914 C 0.97473 0.37449 0.98228 0.0
C915 C 0.95472 0.37733 0.0046 0.0
C916 C 0.94386 0.39536 0.99184 0.0
C917 C 0.95294 0.41074 0.95714 0.0
C918 C 0.97289 0.4081 0.93508 0.0
C919 C 0.98381 0.39007 0.94771 0.0
H920 H 0.94457 0.42475 0.94765 0.0
H921 H 0.04946 0.24999 0.07794 0.0
H922 H 0.65614 0.90079 0.21953 0.0
H923 H 0.66084 0.93148 0.28034 0.0
H924 H 0.67144 0.96761 0.12199 0.0
H925 H 0.66692 0.93687 0.06041 0.0
H926 H 0.69821 0.97761 0.21307 0.0
H927 H 0.62503 0.96851 0.18581 0.0
H928 H 0.59205 0.94971 0.18934 0.0
H929 H 0.5988 0.94136 0.37808 0.0
H930 H 0.63194 0.95997 0.37556 0.0
H931 H 0.67127 0.07841 0.29894 0.0
H932 H 0.67551 0.04438 0.25525 0.0
H933 H 0.66294 0.01637 0.42569 0.0
H934 H 0.65845 0.05049 0.46998 0.0
H935 H 0.6395 0.00016 0.33851 0.0
H936 H 0.71073 0.01358 0.36721 0.0
H937 H 0.74306 0.0334 0.36296 0.0
H938 H 0.7402 0.03394 0.1719 0.0
H939 H 0.70767 0.01437 0.17497 0.0
C940 C 0.65963 0.91521 0.19745 0.0
C941 C 0.66102 0.9164 0.13495 0.0
C942 C 0.66227 0.93274 0.23239 0.0
C943 C 0.66627 0.95182 0.20558 0.0
C944 C 0.66835 0.95299 0.14345 0.0
C945 C 0.66567 0.93544 0.10835 0.0
C946 C 0.66738 0.97071 0.24212 0.0
C947 C 0.68535 0.98267 0.2402 0.0
C948 C 0.6508 0.97689 0.27884 0.0
C949 C 0.63103 0.96548 0.28041 0.0
C950 C 0.61956 0.96252 0.22798 0.0
C951 C 0.60082 0.95195 0.22982 0.0
C952 C 0.59333 0.9444 0.28391 0.0
C953 C 0.60461 0.94729 0.33625 0.0
C954 C 0.62336 0.95785 0.33465 0.0
C955 C 0.66964 0.06505 0.32745 0.0
C956 C 0.66439 0.06718 0.38792 0.0
C957 C 0.67221 0.04559 0.30243 0.0
C958 C 0.66969 0.02786 0.33733 0.0
C959 C 0.665 0.02989 0.39807 0.0
C960 C 0.66249 0.0494 0.42328 0.0
C961 C 0.67024 0.00732 0.30891 0.0
C962 C 0.65254 0.99501 0.31223 0.0
C963 C 0.68707 0.00086 0.27351 0.0
C964 C 0.70666 0.01262 0.27136 0.0
C965 C 0.7169 0.01806 0.32428 0.0
C966 C 0.73528 0.02923 0.32208 0.0
C967 C 0.74366 0.03496 0.2672 0.0
C968 C 0.73368 0.0295 0.21438 0.0
C969 C 0.71528 0.01834 0.21633 0.0
H970 H 0.7579 0.0436 0.2656 0.0
H971 H 0.57874 0.93637 0.28528 0.0
H972 H 0.08546 0.67882 0.41502 0.0
H973 H 0.05324 0.68103 0.47051 0.0
H974 H 0.02168 0.64927 0.32858 0.0
H975 H 0.05381 0.64758 0.27182 0.0
H976 H 0.99731 0.67786 0.37521 0.0
H977 H 0.04013 0.62348 0.45239 0.0
H978 H 0.07127 0.60766 0.49566 0.0
H979 H 0.06706 0.64789 0.6468 0.0
H980 H 0.03606 0.66413 0.60407 0.0
H981 H 0.91364 0.63742 0.53733 0.0
H982 H 0.94492 0.64178 0.47876 0.0
H983 H 0.97344 0.67405 0.62506 0.0
H984 H 0.94237 0.669 0.68505 0.0
H985 H 0.99925 0.64689 0.57737 0.0
H986 H 0.95698 0.70222 0.49646 0.0
H987 H 0.92355 0.71471 0.45854 0.0
H988 H 0.9252 0.66941 0.31957 0.0
H989 H 0.95891 0.65715 0.3554 0.0
C990 C 0.0716 0.67257 0.39519 0.0
C991 C 0.0722 0.66278 0.33939 0.0
C992 C 0.05322 0.67377 0.42707 0.0
C993 C 0.03519 0.66483 0.40435 0.0
C994 C 0.03546 0.65615 0.3471 0.0
C995 C 0.05382 0.65519 0.31474 0.0
C996 C 0.01645 0.66342 0.44175 0.0
C997 C 0.99775 0.671 0.41926 0.0
C998 C 0.017 0.65467 0.4996 0.0
C999 C 0.03588 0.64515 0.52475 0.0
C1000 C 0.04596 0.62908 0.49457 0.0
C1001 C 0.06356 0.62002 0.51905 0.0
C1002 C 0.07112 0.62678 0.57392 0.0
C1003 C 0.06117 0.64268 0.6043 0.0
C1004 C 0.04359 0.65181 0.57999 0.0
C1005 C 0.92652 0.64554 0.55701 0.0
C1006 C 0.92552 0.65296 0.61572 0.0
C1007 C 0.94436 0.64814 0.52331 0.0
C1008 C 0.96135 0.65865 0.54706 0.0
C1009 C 0.96045 0.66599 0.60578 0.0
C1010 C 0.9427 0.66312 0.63993 0.0
C1011 C 0.98026 0.66144 0.51104 0.0
C1012 C 0.99894 0.65403 0.53367 0.0
C1013 C 0.9797 0.67024 0.45342 0.0
C1014 C 0.96043 0.67883 0.42846 0.0
C1015 C 0.95031 0.69515 0.45726 0.0
C1016 C 0.93135 0.70222 0.43603 0.0
C1017 C 0.92231 0.69297 0.38632 0.0
C1018 C 0.93235 0.6768 0.35735 0.0
C1019 C 0.95146 0.66989 0.37779 0.0
H1020 H 0.90749 0.69824 0.37048 0.0
H1021 H 0.08461 0.61963 0.59314 0.0
H1022 H 0.3582 0.91748 0.79524 0.0
H1023 H 0.35593 0.94964 0.74041 0.0
H1024 H 0.33213 0.97996 0.89693 0.0
H1025 H 0.33342 0.94725 0.95153 0.0
H1026 H 0.31175 0.99248 0.80212 0.0
H1027 H 0.38244 0.98689 0.85202 0.0
H1028 H 0.41639 0.9703 0.86232 0.0
H1029 H 0.42025 0.96335 0.67246 0.0
H1030 H 0.38617 0.97964 0.66105 0.0
H1031 H 0.33526 0.09206 0.678 0.0
H1032 H 0.33332 0.06126 0.74019 0.0
H1033 H 0.34629 0.02339 0.58705 0.0
H1034 H 0.34814 0.05415 0.52415 0.0
H1035 H 0.37236 0.0166 0.68694 0.0
H1036 H 0.29956 0.02236 0.64223 0.0
H1037 H 0.2663 0.04061 0.63782 0.0
H1038 H 0.26813 0.05006 0.82706 0.0
H1039 H 0.30152 0.03205 0.83249 0.0
C1040 C 0.35221 0.93089 0.81784 0.0
C1041 C 0.34576 0.92974 0.87741 0.0
C1042 C 0.35118 0.94937 0.78666 0.0
C1043 C 0.34417 0.96731 0.8148 0.0
C1044 C 0.33763 0.96629 0.87438 0.0
C1045 C 0.33846 0.94764 0.90555 0.0
C1046 C 0.34369 0.98697 0.78132 0.0
C1047 C 0.32511 0.99794 0.77775 0.0
C1048 C 0.36108 0.99405 0.7492 0.0
C1049 C 0.38167 0.98436 0.75573 0.0
C1050 C 0.39046 0.9817 0.81248 0.0
C1051 C 0.40974 0.97237 0.81852 0.0
C1052 C 0.42045 0.96574 0.76809 0.0
C1053 C 0.41192 0.96848 0.71149 0.0
C1054 C 0.39264 0.97779 0.7052 0.0
C1055 C 0.33747 0.07717 0.65733 0.0
C1056 C 0.34196 0.07553 0.59617 0.0
C1057 C 0.33627 0.0596 0.69293 0.0
C1058 C 0.33965 0.04012 0.66809 0.0
C1059 C 0.34363 0.03835 0.60687 0.0
C1060 C 0.34461 0.05591 0.57103 0.0
C1061 C 0.34034 0.02171 0.70668 0.0
C1062 C 0.35906 0.01111 0.7115 0.0
C1063 C 0.32323 0.01528 0.74087 0.0
C1064 C 0.30312 0.02602 0.73766 0.0
C1065 C 0.29294 0.02847 0.68283 0.0
C1066 C 0.27405 0.03873 0.68016 0.0
C1067 C 0.26513 0.04652 0.7321 0.0
C1068 C 0.27506 0.04402 0.78685 0.0
C1069 C 0.29395 0.03376 0.78976 0.0
H1070 H 0.2505 0.05447 0.72993 0.0
H1071 H 0.43537 0.95851 0.77286 0.0
H1072 H 0.13759 0.42362 0.17342 0.0
H1073 H 0.14285 0.46014 0.19105 0.0
H1074 H 0.1416 0.44957 0.38096 0.0
H1075 H 0.13516 0.41288 0.36319 0.0
H1076 H 0.12135 0.48217 0.36014 0.0
H1077 H 0.18779 0.46116 0.3024 0.0
H1078 H 0.21462 0.44361 0.24367 0.0
H1079 H 0.19922 0.4803 0.09092 0.0
H1080 H 0.17209 0.49788 0.14841 0.0
H1081 H 0.14869 0.58971 0.37614 0.0
H1082 H 0.15346 0.55246 0.38548 0.0
H1083 H 0.13598 0.54466 0.20158 0.0
H1084 H 0.13089 0.58169 0.19187 0.0
H1085 H 0.17191 0.52147 0.2394 0.0
H1086 H 0.10069 0.53702 0.30276 0.0
H1087 H 0.07658 0.55561 0.36845 0.0
H1088 H 0.10604 0.52957 0.52226 0.0
H1089 H 0.13043 0.51095 0.45737 0.0
C1090 C 0.13857 0.42904 0.21897 0.0
C1091 C 0.13609 0.41542 0.26696 0.0
C1092 C 0.14174 0.44993 0.22906 0.0
C1093 C 0.14321 0.45761 0.28739 0.0
C1094 C 0.14068 0.44402 0.33557 0.0
C1095 C 0.13701 0.42308 0.32542 0.0
C1096 C 0.14641 0.48 0.29716 0.0
C1097 C 0.13276 0.49063 0.33473 0.0
C1098 C 0.1614 0.49121 0.26462 0.0
C1099 C 0.17782 0.48079 0.22975 0.0
C1100 C 0.19004 0.46542 0.25619 0.0
C1101 C 0.20531 0.45547 0.22311 0.0
C1102 C 0.2086 0.46083 0.16359 0.0
C1103 C 0.19665 0.47618 0.13704 0.0
C1104 C 0.18135 0.48617 0.1699 0.0
C1105 C 0.14602 0.58009 0.33751 0.0
C1106 C 0.13938 0.58867 0.28319 0.0
C1107 C 0.14876 0.55884 0.34302 0.0
C1108 C 0.14507 0.54592 0.2942 0.0
C1109 C 0.139 0.55447 0.23962 0.0
C1110 C 0.13603 0.57563 0.23424 0.0
C1111 C 0.14637 0.52334 0.30005 0.0
C1112 C 0.16089 0.51277 0.26563 0.0
C1113 C 0.13262 0.5122 0.33664 0.0
C1114 C 0.11744 0.52273 0.37532 0.0
C1115 C 0.10203 0.5353 0.35059 0.0
C1116 C 0.08832 0.54583 0.38766 0.0
C1117 C 0.0898 0.5438 0.44949 0.0
C1118 C 0.10491 0.53112 0.47436 0.0
C1119 C 0.11865 0.52055 0.43747 0.0
H1120 H 0.07923 0.55203 0.47813 0.0
H1121 H 0.22043 0.4531 0.13805 0.0
H1122 H 0.58442 0.12759 0.53895 0.0
H1123 H 0.54708 0.12989 0.53736 0.0
H1124 H 0.54838 0.13942 0.34712 0.0
H1125 H 0.58607 0.1381 0.34878 0.0
H1126 H 0.51988 0.16275 0.39379 0.0
H1127 H 0.5364 0.0919 0.40777 0.0
H1128 H 0.55353 0.0607 0.44583 0.0
H1129 H 0.52504 0.06944 0.61653 0.0
H1130 H 0.50796 0.10089 0.57976 0.0
H1131 H 0.41215 0.12945 0.37924 0.0
H1132 H 0.44957 0.13092 0.36475 0.0
H1133 H 0.45783 0.14306 0.55197 0.0
H1134 H 0.42055 0.14212 0.56674 0.0
H1135 H 0.48078 0.1073 0.49553 0.0
H1136 H 0.4657 0.18045 0.47509 0.0
H1137 H 0.4479 0.20996 0.42905 0.0
H1138 H 0.4729 0.19371 0.25838 0.0
H1139 H 0.49061 0.1639 0.30332 0.0
C1140 C 0.57685 0.13038 0.49678 0.0
C1141 C 0.58825 0.13257 0.44396 0.0
C1142 C 0.55544 0.13153 0.49586 0.0
C1143 C 0.54489 0.13431 0.44191 0.0
C1144 C 0.5562 0.13714 0.38923 0.0
C1145 C 0.57773 0.13634 0.39026 0.0
C1146 C 0.52205 0.1339 0.44099 0.0
C1147 C 0.51135 0.15045 0.41524 0.0
C1148 C 0.51085 0.11782 0.46875 0.0
C1149 C 0.52102 0.09886 0.49111 0.0
C1150 C 0.5339 0.08726 0.45355 0.0
C1151 C 0.54358 0.06951 0.47488 0.0
C1152 C 0.54041 0.06312 0.53359 0.0
C1153 C 0.5275 0.07443 0.57107 0.0
C1154 C 0.51779 0.0922 0.54999 0.0
C1155 C 0.42194 0.13265 0.41717 0.0
C1156 C 0.41343 0.13566 0.47414 0.0
C1157 C 0.44325 0.13352 0.40876 0.0
C1158 C 0.45631 0.13709 0.45735 0.0
C1159 C 0.44789 0.14033 0.51403 0.0
C1160 C 0.42661 0.13985 0.52228 0.0
C1161 C 0.47886 0.13636 0.45002 0.0
C1162 C 0.48942 0.11948 0.47386 0.0
C1163 C 0.48983 0.15185 0.41932 0.0
C1164 C 0.47926 0.16981 0.39243 0.0
C1165 C 0.46722 0.18304 0.42764 0.0
C1166 C 0.4572 0.19985 0.40177 0.0
C1167 C 0.45921 0.20367 0.34079 0.0
C1168 C 0.47132 0.19071 0.30559 0.0
C1169 C 0.48137 0.17387 0.33124 0.0
H1170 H 0.45144 0.2167 0.32084 0.0
H1171 H 0.54792 0.04937 0.55002 0.0
H1172 H 0.84326 0.57689 0.67446 0.0
H1173 H 0.84047 0.5402 0.69607 0.0
H1174 H 0.88164 0.54731 0.8454 0.0
H1175 H 0.88465 0.58409 0.82401 0.0
H1176 H 0.89285 0.5156 0.77494 0.0
H1177 H 0.83158 0.53865 0.87036 0.0
H1178 H 0.79866 0.55727 0.87939 0.0
H1179 H 0.77302 0.52093 0.738 0.0
H1180 H 0.80589 0.50228 0.72752 0.0
H1181 H 0.84516 0.41203 0.87632 0.0
H1182 H 0.84406 0.44966 0.87499 0.0
H1183 H 0.87282 0.44995 0.70184 0.0
H1184 H 0.87414 0.41244 0.70275 0.0
H1185 H 0.82672 0.47827 0.80003 0.0
H1186 H 0.90833 0.48864 0.69938 0.0
H1187 H 0.94139 0.46998 0.69606 0.0
H1188 H 0.92675 0.43986 0.86096 0.0
H1189 H 0.89385 0.45866 0.86601 0.0
C1190 C 0.85161 0.57073 0.71222 0.0
C1191 C 0.86425 0.58344 0.74739 0.0
C1192 C 0.84991 0.54976 0.72467 0.0
C1193 C 0.86073 0.54108 0.77256 0.0
C1194 C 0.87314 0.55373 0.80826 0.0
C1195 C 0.87481 0.57475 0.796 0.0
C1196 C 0.85994 0.51861 0.78315 0.0
C1197 C 0.8784 0.50745 0.78072 0.0
C1198 C 0.8411 0.50804 0.7916 0.0
C1199 C 0.82127 0.51917 0.79787 0.0
C1200 C 0.81897 0.53473 0.84088 0.0
C1201 C 0.80031 0.54527 0.84632 0.0
C1202 C 0.78377 0.54031 0.80922 0.0
C1203 C 0.78585 0.52476 0.76669 0.0
C1204 C 0.80449 0.51418 0.76103 0.0
C1205 C 0.85109 0.42008 0.8377 0.0
C1206 C 0.85994 0.40922 0.7899 0.0
C1207 C 0.8504 0.44158 0.83701 0.0
C1208 C 0.85863 0.45254 0.78874 0.0
C1209 C 0.86669 0.44174 0.73995 0.0
C1210 C 0.86738 0.42029 0.74053 0.0
C1211 C 0.85956 0.47529 0.79006 0.0
C1212 C 0.84116 0.48646 0.79467 0.0
C1213 C 0.87848 0.48592 0.78449 0.0
C1214 C 0.89852 0.47494 0.78273 0.0
C1215 C 0.91223 0.47814 0.73515 0.0
C1216 C 0.93095 0.46754 0.73298 0.0
C1217 C 0.93616 0.45372 0.77825 0.0
C1218 C 0.9227 0.45055 0.82593 0.0
C1219 C 0.90401 0.46117 0.82844 0.0
H1220 H 0.95062 0.44548 0.77642 0.0
H1221 H 0.76933 0.54849 0.8135 0.0
H1222 H 0.58481 0.88265 0.95522 0.0
H1223 H 0.54732 0.88198 0.94981 0.0
H1224 H 0.54585 0.83218 0.07706 0.0
H1225 H 0.58336 0.83325 0.08437 0.0
H1226 H 0.5199 0.85578 0.91694 0.0
H1227 H 0.50392 0.83637 0.16527 0.0
H1228 H 0.52056 0.84108 0.26316 0.0
H1229 H 0.5527 0.89416 0.19712 0.0
H1230 H 0.53603 0.88994 0.09916 0.0
H1231 H 0.41409 0.83583 0.93741 0.0
H1232 H 0.45128 0.83212 0.95016 0.0
H1233 H 0.45229 0.88666 0.0598 0.0
H1234 H 0.41503 0.88991 0.04929 0.0
H1235 H 0.47853 0.86097 0.10219 0.0
H1236 H 0.46446 0.88775 0.90799 0.0
H1237 H 0.44826 0.88862 0.80865 0.0
H1238 H 0.47697 0.83111 0.76432 0.0
H1239 H 0.49312 0.82977 0.86376 0.0
C1240 C 0.57654 0.87148 0.98188 0.0
C1241 C 0.58705 0.85815 0.02072 0.0
C1242 C 0.55509 0.87109 0.97862 0.0
C1243 C 0.54375 0.85726 0.01373 0.0
C1244 C 0.55426 0.8433 0.05057 0.0
C1245 C 0.57571 0.84387 0.05449 0.0
C1246 C 0.52093 0.85783 0.01268 0.0
C1247 C 0.51087 0.85684 0.95747 0.0
C1248 C 0.50914 0.85974 0.06547 0.0
C1249 C 0.51889 0.86268 0.12469 0.0
C1250 C 0.51446 0.8491 0.17174 0.0
C1251 C 0.52392 0.85168 0.22722 0.0
C1252 C 0.53774 0.86786 0.23628 0.0
C1253 C 0.54205 0.88158 0.18998 0.0
C1254 C 0.53262 0.87909 0.13446 0.0
C1255 C 0.42223 0.84688 0.9648 0.0
C1256 C 0.41169 0.86324 0.99204 0.0
C1257 C 0.44348 0.8448 0.97188 0.0
C1258 C 0.45466 0.85937 0.00488 0.0
C1259 C 0.44402 0.87523 0.03408 0.0
C1260 C 0.42271 0.87709 0.02798 0.0
C1261 C 0.4775 0.85876 0.00643 0.0
C1262 C 0.48757 0.85975 0.06171 0.0
C1263 C 0.48936 0.85773 0.95353 0.0
C1264 C 0.47982 0.85856 0.89351 0.0
C1265 C 0.46721 0.87523 0.87718 0.0
C1266 C 0.45805 0.87582 0.82085 0.0
C1267 C 0.46154 0.8599 0.78026 0.0
C1268 C 0.47425 0.84341 0.79585 0.0
C1269 C 0.48343 0.84274 0.85217 0.0
H1270 H 0.45442 0.86037 0.73668 0.0
H1271 H 0.54507 0.8698 0.27921 0.0
loop_
_geom_bond_atom_site_label_1
_geom_bond_atom_site_label_2
_geom_bond_distance
_geom_bond_site_symmetry_2
_ccdc_geom_bond_type
Co0 O3 1.970 . S
Co0 N17 1.989 . S
Co0 O25 1.967 . S
Co0 O32 1.920 . S
Co1 O4 1.966 . S
Co1 N10 2.022 . S
Co1 N18 1.993 . S
Co1 O26 1.941 . S
C2 O3 1.258 . S
C2 O4 1.263 . S
O3 Co0 1.970 . S
O3 C2 1.258 . S
O4 Co1 1.966 . S
O4 C2 1.263 . S
C5 O6 1.235 . S
C5 O32 1.289 . S
O6 C5 1.235 . S
C7 C9 1.400 . S
C7 N10 1.351 . S
C7 C12 1.501 . S
C8 C9 1.387 . S
C8 N11 1.341 . S
C9 C7 1.400 . S
C9 C8 1.387 . S
N10 Co1 2.022 . S
N10 C7 1.351 . S
N10 N11 1.365 . S
N11 C8 1.341 . S
N11 N10 1.365 . S
N11 H31 0.862 . S
C12 C7 1.501 . S
C12 H13 0.961 . S
C12 H14 0.961 . S
C12 H15 0.960 . S
H13 C12 0.961 . S
H14 C12 0.961 . S
H15 C12 0.960 . S
C16 N17 1.342 . S
C16 C20 1.401 . S
C16 C21 1.499 . S
N17 Co0 1.989 . S
N17 C16 1.342 . S
N17 N18 1.388 . S
N18 Co1 1.993 . S
N18 N17 1.388 . S
N18 C19 1.346 . S
C19 N18 1.346 . S
C19 C20 1.396 . S
C19 C29 1.510 . S
C20 C16 1.401 . S
C20 C19 1.396 . S
C21 C16 1.499 . S
C21 H22 0.959 . S
C21 H23 0.960 . S
C21 H24 0.961 . S
H22 C21 0.959 . S
H23 C21 0.960 . S
H24 C21 0.961 . S
O25 Co0 1.967 . S
O25 C33 1.258 . S
O26 Co1 1.941 . S
O26 C33 1.266 . S
H27 C29 0.959 . S
H28 C29 0.961 . S
C29 C19 1.510 . S
C29 H27 0.959 . S
C29 H28 0.961 . S
C29 H30 0.960 . S
H30 C29 0.960 . S
H31 N11 0.862 . S
O32 Co0 1.920 . S
O32 C5 1.289 . S
C33 O25 1.258 . S
C33 O26 1.266 . S
Co34 O37 1.970 . S
Co34 N51 1.989 . S
Co34 O59 1.967 . S
Co34 O66 1.920 . S
Co35 O38 1.966 . S
Co35 N44 2.022 . S
Co35 N52 1.993 . S
Co35 O60 1.941 . S
C36 O37 1.258 . S
C36 O38 1.263 . S
O37 Co34 1.970 . S
O37 C36 1.258 . S
O38 Co35 1.966 . S
O38 C36 1.263 . S
C39 O40 1.235 . S
C39 O66 1.289 . S
O40 C39 1.235 . S
C41 C43 1.400 . S
C41 N44 1.351 . S
C41 C46 1.501 . S
C42 C43 1.387 . S
C42 N45 1.341 . S
C43 C41 1.400 . S
C43 C42 1.387 . S
N44 Co35 2.022 . S
N44 C41 1.351 . S
N44 N45 1.365 . S
N45 C42 1.341 . S
N45 N44 1.365 . S
N45 H65 0.862 . S
C46 C41 1.501 . S
C46 H47 0.961 . S
C46 H48 0.961 . S
C46 H49 0.960 . S
H47 C46 0.961 . S
H48 C46 0.961 . S
H49 C46 0.960 . S
C50 N51 1.342 . S
C50 C54 1.401 . S
C50 C55 1.499 . S
N51 Co34 1.989 . S
N51 C50 1.342 . S
N51 N52 1.388 . S
N52 Co35 1.993 . S
N52 N51 1.388 . S
N52 C53 1.346 . S
C53 N52 1.346 . S
C53 C54 1.396 . S
C53 C63 1.510 . S
C54 C50 1.401 . S
C54 C53 1.396 . S
C55 C50 1.499 . S
C55 H56 0.959 . S
C55 H57 0.960 . S
C55 H58 0.961 . S
H56 C55 0.959 . S
H57 C55 0.960 . S
H58 C55 0.961 . S
O59 Co34 1.967 . S
O59 C67 1.258 . S
O60 Co35 1.941 . S
O60 C67 1.266 . S
H61 C63 0.959 . S
H62 C63 0.961 . S
C63 C53 1.510 . S
C63 H61 0.959 . S
C63 H62 0.961 . S
C63 H64 0.960 . S
H64 C63 0.960 . S
H65 N45 0.862 . S
O66 Co34 1.920 . S
O66 C39 1.289 . S
C67 O59 1.258 . S
C67 O60 1.266 . S
Co68 O71 1.970 . S
Co68 N85 1.989 . S
Co68 O93 1.967 . S
Co68 O100 1.920 . S
Co69 O72 1.966 . S
Co69 N78 2.022 . S
Co69 N86 1.993 . S
Co69 O94 1.941 . S
C70 O71 1.258 . S
C70 O72 1.263 . S
O71 Co68 1.970 . S
O71 C70 1.258 . S
O72 Co69 1.966 . S
O72 C70 1.263 . S
C73 O74 1.235 . S
C73 O100 1.289 . S
O74 C73 1.235 . S
C75 C77 1.400 . S
C75 N78 1.351 . S
C75 C80 1.501 . S
C76 C77 1.387 . S
C76 N79 1.341 . S
C77 C75 1.400 . S
C77 C76 1.387 . S
N78 Co69 2.022 . S
N78 C75 1.351 . S
N78 N79 1.365 . S
N79 C76 1.341 . S
N79 N78 1.365 . S
N79 H99 0.862 . S
C80 C75 1.501 . S
C80 H81 0.961 . S
C80 H82 0.961 . S
C80 H83 0.960 . S
H81 C80 0.961 . S
H82 C80 0.961 . S
H83 C80 0.960 . S
C84 N85 1.342 . S
C84 C88 1.401 . S
C84 C89 1.499 . S
N85 Co68 1.989 . S
N85 C84 1.342 . S
N85 N86 1.388 . S
N86 Co69 1.993 . S
N86 N85 1.388 . S
N86 C87 1.346 . S
C87 N86 1.346 . S
C87 C88 1.396 . S
C87 C97 1.510 . S
C88 C84 1.401 . S
C88 C87 1.396 . S
C89 C84 1.499 . S
C89 H90 0.959 . S
C89 H91 0.960 . S
C89 H92 0.961 . S
H90 C89 0.959 . S
H91 C89 0.960 . S
H92 C89 0.961 . S
O93 Co68 1.967 . S
O93 C101 1.258 . S
O94 Co69 1.941 . S
O94 C101 1.266 . S
H95 C97 0.959 . S
H96 C97 0.961 . S
C97 C87 1.510 . S
C97 H95 0.959 . S
C97 H96 0.961 . S
C97 H98 0.960 . S
H98 C97 0.960 . S
H99 N79 0.862 . S
O100 Co68 1.920 . S
O100 C73 1.289 . S
C101 O93 1.258 . S
C101 O94 1.266 . S
Co102 O105 1.970 . S
Co102 N119 1.989 . S
Co102 O127 1.967 . S
Co102 O134 1.920 . S
Co103 O106 1.966 . S
Co103 N112 2.022 . S
Co103 N120 1.993 . S
Co103 O128 1.941 . S
C104 O105 1.258 . S
C104 O106 1.263 1_556 S
O105 Co102 1.970 . S
O105 C104 1.258 . S
O106 Co103 1.966 . S
O106 C104 1.263 1_554 S
C107 O108 1.235 . S
C107 O134 1.289 . S
O108 C107 1.235 . S
C109 C111 1.400 . S
C109 N112 1.351 . S
C109 C114 1.501 . S
C110 C111 1.387 . S
C110 N113 1.341 . S
C111 C109 1.400 . S
C111 C110 1.387 . S
N112 Co103 2.022 . S
N112 C109 1.351 . S
N112 N113 1.365 . S
N113 C110 1.341 . S
N113 N112 1.365 . S
N113 H133 0.862 . S
C114 C109 1.501 . S
C114 H115 0.961 . S
C114 H116 0.961 . S
C114 H117 0.960 . S
H115 C114 0.961 . S
H116 C114 0.961 . S
H117 C114 0.960 . S
C118 N119 1.342 . S
C118 C122 1.401 1_556 S
C118 C123 1.499 . S
N119 Co102 1.989 . S
N119 C118 1.342 . S
N119 N120 1.388 1_556 S
N120 Co103 1.993 . S
N120 N119 1.388 1_554 S
N120 C121 1.346 . S
C121 N120 1.346 . S
C121 C122 1.396 . S
C121 C131 1.510 . S
C122 C118 1.401 1_554 S
C122 C121 1.396 . S
C123 C118 1.499 . S
C123 H124 0.959 . S
C123 H125 0.960 . S
C123 H126 0.961 . S
H124 C123 0.959 . S
H125 C123 0.960 . S
H126 C123 0.961 . S
O127 Co102 1.967 . S
O127 C135 1.258 . S
O128 Co103 1.941 . S
O128 C135 1.266 1_554 S
H129 C131 0.959 . S
H130 C131 0.961 . S
C131 C121 1.510 . S
C131 H129 0.959 . S
C131 H130 0.961 . S
C131 H132 0.960 . S
H132 C131 0.960 . S
H133 N113 0.862 . S
O134 Co102 1.920 . S
O134 C107 1.289 . S
C135 O127 1.258 . S
C135 O128 1.266 1_556 S
Co136 O139 1.970 . S
Co136 N153 1.989 . S
Co136 O161 1.967 . S
Co136 O168 1.920 . S
Co137 O140 1.966 . S
Co137 N146 2.022 . S
Co137 N154 1.993 . S
Co137 O162 1.941 . S
C138 O139 1.258 . S
C138 O140 1.263 . S
O139 Co136 1.970 . S
O139 C138 1.258 . S
O140 Co137 1.966 . S
O140 C138 1.263 . S
C141 O142 1.235 . S
C141 O168 1.289 . S
O142 C141 1.235 . S
C143 C145 1.400 . S
C143 N146 1.351 . S
C143 C148 1.501 . S
C144 C145 1.387 . S
C144 N147 1.341 . S
C145 C143 1.400 . S
C145 C144 1.387 . S
N146 Co137 2.022 . S
N146 C143 1.351 . S
N146 N147 1.365 . S
N147 C144 1.341 . S
N147 N146 1.365 . S
N147 H167 0.862 . S
C148 C143 1.501 . S
C148 H149 0.961 . S
C148 H150 0.961 . S
C148 H151 0.960 . S
H149 C148 0.961 . S
H150 C148 0.961 . S
H151 C148 0.960 . S
C152 N153 1.342 . S
C152 C156 1.401 . S
C152 C157 1.499 . S
N153 Co136 1.989 . S
N153 C152 1.342 . S
N153 N154 1.388 . S
N154 Co137 1.993 . S
N154 N153 1.388 . S
N154 C155 1.346 . S
C155 N154 1.346 . S
C155 C156 1.396 . S
C155 C165 1.510 . S
C156 C152 1.401 . S
C156 C155 1.396 . S
C157 C152 1.499 . S
C157 H158 0.959 . S
C157 H159 0.960 . S
C157 H160 0.961 . S
H158 C157 0.959 . S
H159 C157 0.960 . S
H160 C157 0.961 . S
O161 Co136 1.967 . S
O161 C169 1.258 . S
O162 Co137 1.941 . S
O162 C169 1.266 . S
H163 C165 0.959 . S
H164 C165 0.961 . S
C165 C155 1.510 . S
C165 H163 0.959 . S
C165 H164 0.961 . S
C165 H166 0.960 . S
H166 C165 0.960 . S
H167 N147 0.862 . S
O168 Co136 1.920 . S
O168 C141 1.289 . S
C169 O161 1.258 . S
C169 O162 1.266 . S
Co170 O173 1.970 . S
Co170 N187 1.989 . S
Co170 O195 1.967 . S
Co170 O202 1.920 . S
Co171 O174 1.966 . S
Co171 N180 2.022 . S
Co171 N188 1.993 . S
Co171 O196 1.941 . S
C172 O173 1.258 . S
C172 O174 1.263 . S
O173 Co170 1.970 . S
O173 C172 1.258 . S
O174 Co171 1.966 . S
O174 C172 1.263 . S
C175 O176 1.235 . S
C175 O202 1.289 . S
O176 C175 1.235 . S
C177 C179 1.400 . S
C177 N180 1.351 . S
C177 C182 1.501 . S
C178 C179 1.387 . S
C178 N181 1.341 . S
C179 C177 1.400 . S
C179 C178 1.387 . S
N180 Co171 2.022 . S
N180 C177 1.351 . S
N180 N181 1.365 . S
N181 C178 1.341 . S
N181 N180 1.365 . S
N181 H201 0.862 . S
C182 C177 1.501 . S
C182 H183 0.961 . S
C182 H184 0.961 . S
C182 H185 0.960 . S
H183 C182 0.961 . S
H184 C182 0.961 . S
H185 C182 0.960 . S
C186 N187 1.342 . S
C186 C190 1.401 . S
C186 C191 1.499 . S
N187 Co170 1.989 . S
N187 C186 1.342 . S
N187 N188 1.388 . S
N188 Co171 1.993 . S
N188 N187 1.388 . S
N188 C189 1.346 . S
C189 N188 1.346 . S
C189 C190 1.396 . S
C189 C199 1.510 . S
C190 C186 1.401 . S
C190 C189 1.396 . S
C191 C186 1.499 . S
C191 H192 0.959 . S
C191 H193 0.960 . S
C191 H194 0.961 . S
H192 C191 0.959 . S
H193 C191 0.960 . S
H194 C191 0.961 . S
O195 Co170 1.967 . S
O195 C203 1.258 . S
O196 Co171 1.941 . S
O196 C203 1.266 . S
H197 C199 0.959 . S
H198 C199 0.961 . S
C199 C189 1.510 . S
C199 H197 0.959 . S
C199 H198 0.961 . S
C199 H200 0.960 . S
H200 C199 0.960 . S
H201 N181 0.862 . S
O202 Co170 1.920 . S
O202 C175 1.289 . S
C203 O195 1.258 . S
C203 O196 1.266 . S
Co204 O207 1.970 . S
Co204 N221 1.989 . S
Co204 O229 1.967 . S
Co204 O236 1.920 . S
Co205 O208 1.966 . S
Co205 N214 2.022 . S
Co205 N222 1.993 . S
Co205 O230 1.941 . S
C206 O207 1.258 . S
C206 O208 1.263 . S
O207 Co204 1.970 . S
O207 C206 1.258 . S
O208 Co205 1.966 . S
O208 C206 1.263 . S
C209 O210 1.235 . S
C209 O236 1.289 . S
O210 C209 1.235 . S
C211 C213 1.400 . S
C211 N214 1.351 . S
C211 C216 1.501 . S
C212 C213 1.387 . S
C212 N215 1.341 . S
C213 C211 1.400 . S
C213 C212 1.387 . S
N214 Co205 2.022 . S
N214 C211 1.351 . S
N214 N215 1.365 . S
N215 C212 1.341 . S
N215 N214 1.365 . S
N215 H235 0.862 . S
C216 C211 1.501 . S
C216 H217 0.961 . S
C216 H218 0.961 . S
C216 H219 0.960 . S
H217 C216 0.961 . S
H218 C216 0.961 . S
H219 C216 0.960 . S
C220 N221 1.342 . S
C220 C224 1.401 . S
C220 C225 1.499 . S
N221 Co204 1.989 . S
N221 C220 1.342 . S
N221 N222 1.388 . S
N222 Co205 1.993 . S
N222 N221 1.388 . S
N222 C223 1.346 . S
C223 N222 1.346 . S
C223 C224 1.396 . S
C223 C233 1.510 . S
C224 C220 1.401 . S
C224 C223 1.396 . S
C225 C220 1.499 . S
C225 H226 0.959 . S
C225 H227 0.960 . S
C225 H228 0.961 . S
H226 C225 0.959 . S
H227 C225 0.960 . S
H228 C225 0.961 . S
O229 Co204 1.967 . S
O229 C237 1.258 . S
O230 Co205 1.941 . S
O230 C237 1.266 . S
H231 C233 0.959 . S
H232 C233 0.961 . S
C233 C223 1.510 . S
C233 H231 0.959 . S
C233 H232 0.961 . S
C233 H234 0.960 . S
H234 C233 0.960 . S
H235 N215 0.862 . S
O236 Co204 1.920 . S
O236 C209 1.289 . S
C237 O229 1.258 . S
C237 O230 1.266 . S
Co238 O241 1.970 . S
Co238 N255 1.989 . S
Co238 O263 1.967 . S
Co238 O270 1.920 . S
Co239 O242 1.966 . S
Co239 N248 2.022 . S
Co239 N256 1.993 . S
Co239 O264 1.941 . S
C240 O241 1.258 . S
C240 O242 1.263 1_554 S
O241 Co238 1.970 . S
O241 C240 1.258 . S
O242 Co239 1.966 . S
O242 C240 1.263 1_556 S
C243 O244 1.235 . S
C243 O270 1.289 . S
O244 C243 1.235 . S
C245 C247 1.400 . S
C245 N248 1.351 . S
C245 C250 1.501 . S
C246 C247 1.387 . S
C246 N249 1.341 . S
C247 C245 1.400 . S
C247 C246 1.387 . S
N248 Co239 2.022 . S
N248 C245 1.351 . S
N248 N249 1.365 . S
N249 C246 1.341 . S
N249 N248 1.365 . S
N249 H269 0.862 . S
C250 C245 1.501 . S
C250 H251 0.961 . S
C250 H252 0.961 . S
C250 H253 0.960 . S
H251 C250 0.961 . S
H252 C250 0.961 . S
H253 C250 0.960 . S
C254 N255 1.342 . S
C254 C258 1.401 1_554 S
C254 C259 1.499 . S
N255 Co238 1.989 . S
N255 C254 1.342 . S
N255 N256 1.388 1_554 S
N256 Co239 1.993 . S
N256 N255 1.388 1_556 S
N256 C257 1.346 . S
C257 N256 1.346 . S
C257 C258 1.396 . S
C257 C267 1.510 . S
C258 C254 1.401 1_556 S
C258 C257 1.396 . S
C259 C254 1.499 . S
C259 H260 0.959 . S
C259 H261 0.960 . S
C259 H262 0.961 . S
H260 C259 0.959 . S
H261 C259 0.960 . S
H262 C259 0.961 . S
O263 Co238 1.967 . S
O263 C271 1.258 . S
O264 Co239 1.941 . S
O264 C271 1.266 1_556 S
H265 C267 0.959 . S
H266 C267 0.961 . S
C267 C257 1.510 . S
C267 H265 0.959 . S
C267 H266 0.961 . S
C267 H268 0.960 . S
H268 C267 0.960 . S
H269 N249 0.862 . S
O270 Co238 1.920 . S
O270 C243 1.289 . S
C271 O263 1.258 . S
C271 O264 1.266 1_554 S
H272 C290 0.951 . S
H273 C292 0.951 . S
H274 C294 0.950 . S
H275 C295 0.950 . S
H276 C297 0.950 . S
H277 C300 0.950 . S
H278 C301 0.950 . S
H279 C303 0.950 . S
H280 C304 0.950 . S
H281 C305 0.951 . S
H282 C307 0.951 . S
H283 C309 0.950 . S
H284 C310 0.950 . S
H285 C312 0.950 . S
H286 C315 0.950 . S
H287 C316 0.950 . S
H288 C318 0.950 . S
H289 C319 0.950 . S
C290 H272 0.951 . S
C290 C291 1.366 . S
C290 C292 1.388 . S
C291 C290 1.366 . S
C291 C295 1.385 . S
C292 H273 0.951 . S
C292 C290 1.388 . S
C292 C293 1.366 . S
C293 C292 1.366 . S
C293 C294 1.414 . S
C293 C296 1.499 . S
C294 H274 0.950 . S
C294 C293 1.414 . S
C294 C295 1.374 . S
C295 H275 0.950 . S
C295 C291 1.385 . S
C295 C294 1.374 . S
C296 C293 1.499 . S
C296 C297 1.373 . S
C296 C298 1.389 . S
C297 H276 0.950 . S
C297 C296 1.373 . S
C297 C313 1.377 . S
C298 C296 1.389 . S
C298 C299 1.524 . S
C298 C312 1.377 . S
C299 C298 1.524 . S
C299 C300 1.397 . S
C299 C304 1.363 . S
C300 H277 0.950 . S
C300 C299 1.397 . S
C300 C301 1.334 . S
C301 H278 0.950 . S
C301 C300 1.334 . S
C301 C302 1.287 . S
C302 C301 1.287 . S
C302 C303 1.524 . S
C302 H321 0.913 . S
C303 H279 0.950 . S
C303 C302 1.524 . S
C303 C304 1.415 . S
C304 H280 0.950 . S
C304 C299 1.363 . S
C304 C303 1.415 . S
C305 H281 0.951 . S
C305 C306 1.366 . S
C305 C307 1.388 . S
C306 C305 1.366 . S
C306 C310 1.385 . S
C307 H282 0.951 . S
C307 C305 1.388 . S
C307 C308 1.366 . S
C308 C307 1.366 . S
C308 C309 1.414 . S
C308 C311 1.499 . S
C309 H283 0.950 . S
C309 C308 1.414 . S
C309 C310 1.374 . S
C310 H284 0.950 . S
C310 C306 1.385 . S
C310 C309 1.374 . S
C311 C308 1.499 . S
C311 C312 1.373 . S
C311 C313 1.389 . S
C312 H285 0.950 . S
C312 C298 1.377 . S
C312 C311 1.373 . S
C313 C297 1.377 . S
C313 C311 1.389 . S
C313 C314 1.524 . S
C314 C313 1.524 . S
C314 C315 1.397 . S
C314 C319 1.363 . S
C315 H286 0.950 . S
C315 C314 1.397 . S
C315 C316 1.334 . S
C316 H287 0.950 . S
C316 C315 1.334 . S
C316 C317 1.287 . S
C317 C316 1.287 . S
C317 C318 1.524 . S
C317 H320 0.999 . S
C318 H288 0.950 . S
C318 C317 1.524 . S
C318 C319 1.415 . S
C319 H289 0.950 . S
C319 C314 1.363 . S
C319 C318 1.415 . S
H320 C317 0.999 . S
H321 C302 0.913 . S
H322 C340 0.951 . S
H323 C342 0.951 . S
H324 C344 0.950 . S
H325 C345 0.950 . S
H326 C347 0.950 . S
H327 C350 0.950 . S
H328 C351 0.950 . S
H329 C353 0.950 . S
H330 C354 0.950 . S
H331 C355 0.951 . S
H332 C357 0.951 . S
H333 C359 0.950 . S
H334 C360 0.950 . S
H335 C362 0.950 . S
H336 C365 0.950 . S
H337 C366 0.950 . S
H338 C368 0.950 . S
H339 C369 0.950 . S
C340 H322 0.951 . S
C340 C341 1.366 . S
C340 C342 1.388 . S
C341 C340 1.366 . S
C341 C345 1.385 . S
C342 H323 0.951 . S
C342 C340 1.388 . S
C342 C343 1.366 . S
C343 C342 1.366 . S
C343 C344 1.414 . S
C343 C346 1.499 . S
C344 H324 0.950 . S
C344 C343 1.414 . S
C344 C345 1.374 . S
C345 H325 0.950 . S
C345 C341 1.385 . S
C345 C344 1.374 . S
C346 C343 1.499 . S
C346 C347 1.373 . S
C346 C348 1.389 . S
C347 H326 0.950 . S
C347 C346 1.373 . S
C347 C363 1.377 . S
C348 C346 1.389 . S
C348 C349 1.524 . S
C348 C362 1.377 . S
C349 C348 1.524 . S
C349 C350 1.397 . S
C349 C354 1.363 . S
C350 H327 0.950 . S
C350 C349 1.397 . S
C350 C351 1.334 . S
C351 H328 0.950 . S
C351 C350 1.334 . S
C351 C352 1.287 . S
C352 C351 1.287 . S
C352 C353 1.524 . S
C352 H371 0.913 . S
C353 H329 0.950 . S
C353 C352 1.524 . S
C353 C354 1.415 . S
C354 H330 0.950 . S
C354 C349 1.363 . S
C354 C353 1.415 . S
C355 H331 0.951 . S
C355 C356 1.366 . S
C355 C357 1.388 . S
C356 C355 1.366 . S
C356 C360 1.385 . S
C357 H332 0.951 . S
C357 C355 1.388 . S
C357 C358 1.366 . S
C358 C357 1.366 . S
C358 C359 1.414 . S
C358 C361 1.499 . S
C359 H333 0.950 . S
C359 C358 1.414 . S
C359 C360 1.374 . S
C360 H334 0.950 . S
C360 C356 1.385 . S
C360 C359 1.374 . S
C361 C358 1.499 . S
C361 C362 1.373 . S
C361 C363 1.389 . S
C362 H335 0.950 . S
C362 C348 1.377 . S
C362 C361 1.373 . S
C363 C347 1.377 . S
C363 C361 1.389 . S
C363 C364 1.524 . S
C364 C363 1.524 . S
C364 C365 1.397 . S
C364 C369 1.363 . S
C365 H336 0.950 . S
C365 C364 1.397 . S
C365 C366 1.334 . S
C366 H337 0.950 . S
C366 C365 1.334 . S
C366 C367 1.287 . S
C367 C366 1.287 . S
C367 C368 1.524 . S
C367 H370 0.999 . S
C368 H338 0.950 . S
C368 C367 1.524 . S
C368 C369 1.415 . S
C369 H339 0.950 . S
C369 C364 1.363 . S
C369 C368 1.415 . S
H370 C367 0.999 . S
H371 C352 0.913 . S
H372 C390 0.951 . S
H373 C392 0.951 . S
H374 C394 0.950 . S
H375 C395 0.950 . S
H376 C397 0.950 . S
H377 C400 0.950 . S
H378 C401 0.950 . S
H379 C403 0.950 . S
H380 C404 0.950 . S
H381 C405 0.951 . S
H382 C407 0.951 1_554 S
H383 C409 0.950 . S
H384 C410 0.950 . S
H385 C412 0.950 . S
H386 C415 0.950 . S
H387 C416 0.950 . S
H388 C418 0.950 . S
H389 C419 0.949 1_554 S
C390 H372 0.951 . S
C390 C391 1.366 . S
C390 C392 1.388 . S
C391 C390 1.366 . S
C391 C395 1.385 . S
C392 H373 0.951 . S
C392 C390 1.388 . S
C392 C393 1.366 . S
C393 C392 1.366 . S
C393 C394 1.414 . S
C393 C396 1.499 . S
C394 H374 0.950 . S
C394 C393 1.414 . S
C394 C395 1.374 . S
C395 H375 0.950 . S
C395 C391 1.385 . S
C395 C394 1.374 . S
C396 C393 1.499 . S
C396 C397 1.373 . S
C396 C398 1.389 . S
C397 H376 0.950 . S
C397 C396 1.373 . S
C397 C413 1.377 . S
C398 C396 1.389 . S
C398 C399 1.524 . S
C398 C412 1.377 . S
C399 C398 1.524 . S
C399 C400 1.397 . S
C399 C404 1.363 . S
C400 H377 0.950 . S
C400 C399 1.397 . S
C400 C401 1.334 . S
C401 H378 0.950 . S
C401 C400 1.334 . S
C401 C402 1.287 . S
C402 C401 1.287 . S
C402 C403 1.524 . S
C402 H421 0.913 . S
C403 H379 0.950 . S
C403 C402 1.524 . S
C403 C404 1.415 . S
C404 H380 0.950 . S
C404 C399 1.363 . S
C404 C403 1.415 . S
C405 H381 0.951 . S
C405 C406 1.366 1_554 S
C405 C407 1.388 1_554 S
C406 C405 1.366 1_556 S
C406 C410 1.385 . S
C407 H382 0.951 1_556 S
C407 C405 1.388 1_556 S
C407 C408 1.366 . S
C408 C407 1.366 . S
C408 C409 1.414 . S
C408 C411 1.499 . S
C409 H383 0.950 . S
C409 C408 1.414 . S
C409 C410 1.374 . S
C410 H384 0.950 . S
C410 C406 1.385 . S
C410 C409 1.374 . S
C411 C408 1.499 . S
C411 C412 1.373 . S
C411 C413 1.389 . S
C412 H385 0.950 . S
C412 C398 1.377 . S
C412 C411 1.373 . S
C413 C397 1.377 . S
C413 C411 1.389 . S
C413 C414 1.524 . S
C414 C413 1.524 . S
C414 C415 1.397 . S
C414 C419 1.367 . S
C415 H386 0.950 . S
C415 C414 1.397 . S
C415 C416 1.334 . S
C416 H387 0.950 . S
C416 C415 1.334 . S
C416 C417 1.287 1_556 S
C417 C416 1.287 1_554 S
C417 C418 1.524 . S
C417 H420 0.999 . S
C418 H388 0.950 . S
C418 C417 1.524 . S
C418 C419 1.412 1_554 S
C419 H389 0.949 1_556 S
C419 C414 1.367 . S
C419 C418 1.412 1_556 S
H420 C417 0.999 . S
H421 C402 0.913 . S
H422 C440 0.951 . S
H423 C442 0.951 . S
H424 C444 0.950 . S
H425 C445 0.950 . S
H426 C447 0.950 . S
H427 C450 0.950 . S
H428 C451 0.950 . S
H429 C453 0.950 . S
H430 C454 0.950 . S
H431 C455 0.951 . S
H432 C457 0.951 . S
H433 C459 0.950 . S
H434 C460 0.950 . S
H435 C462 0.950 . S
H436 C465 0.950 . S
H437 C466 0.950 . S
H438 C468 0.950 . S
H439 C469 0.950 . S
C440 H422 0.951 . S
C440 C441 1.366 . S
C440 C442 1.388 . S
C441 C440 1.366 . S
C441 C445 1.385 . S
C442 H423 0.951 . S
C442 C440 1.388 . S
C442 C443 1.366 . S
C443 C442 1.366 . S
C443 C444 1.414 . S
C443 C446 1.499 . S
C444 H424 0.950 . S
C444 C443 1.414 . S
C444 C445 1.374 . S
C445 H425 0.950 . S
C445 C441 1.385 . S
C445 C444 1.374 . S
C446 C443 1.499 . S
C446 C447 1.373 . S
C446 C448 1.389 . S
C447 H426 0.950 . S
C447 C446 1.373 . S
C447 C463 1.377 . S
C448 C446 1.389 . S
C448 C449 1.524 . S
C448 C462 1.377 . S
C449 C448 1.524 . S
C449 C450 1.397 . S
C449 C454 1.363 . S
C450 H427 0.950 . S
C450 C449 1.397 . S
C450 C451 1.334 . S
C451 H428 0.950 . S
C451 C450 1.334 . S
C451 C452 1.287 . S
C452 C451 1.287 . S
C452 C453 1.524 . S
C452 H471 0.913 . S
C453 H429 0.950 . S
C453 C452 1.524 . S
C453 C454 1.415 . S
C454 H430 0.950 . S
C454 C449 1.363 . S
C454 C453 1.415 . S
C455 H431 0.951 . S
C455 C456 1.366 . S
C455 C457 1.388 . S
C456 C455 1.366 . S
C456 C460 1.385 . S
C457 H432 0.951 . S
C457 C455 1.388 . S
C457 C458 1.366 . S
C458 C457 1.366 . S
C458 C459 1.414 . S
C458 C461 1.499 . S
C459 H433 0.950 . S
C459 C458 1.414 . S
C459 C460 1.374 . S
C460 H434 0.950 . S
C460 C456 1.385 . S
C460 C459 1.374 . S
C461 C458 1.499 . S
C461 C462 1.373 . S
C461 C463 1.389 . S
C462 H435 0.950 . S
C462 C448 1.377 . S
C462 C461 1.373 . S
C463 C447 1.377 . S
C463 C461 1.389 . S
C463 C464 1.524 . S
C464 C463 1.524 . S
C464 C465 1.397 1_554 S
C464 C469 1.363 . S
C465 H436 0.950 . S
C465 C464 1.397 1_556 S
C465 C466 1.334 . S
C466 H437 0.950 . S
C466 C465 1.334 . S
C466 C467 1.287 . S
C467 C466 1.287 . S
C467 C468 1.524 . S
C467 H470 0.999 . S
C468 H438 0.950 . S
C468 C467 1.524 . S
C468 C469 1.415 1_556 S
C469 H439 0.950 . S
C469 C464 1.363 . S
C469 C468 1.415 1_554 S
H470 C467 0.999 . S
H471 C452 0.913 . S
H472 C490 0.951 . S
H473 C492 0.951 . S
H474 C494 0.950 . S
H475 C495 0.950 . S
H476 C497 0.950 . S
H477 C500 0.950 . S
H478 C501 0.950 . S
H479 C503 0.950 . S
H480 C504 0.950 . S
H481 C505 0.951 1_554 S
H482 C507 0.951 . S
H483 C509 0.950 . S
H484 C510 0.950 1_554 S
H485 C512 0.950 . S
H486 C515 0.950 . S
H487 C516 0.950 . S
H488 C518 0.950 . S
H489 C519 0.950 . S
C490 H472 0.951 . S
C490 C491 1.366 . S
C490 C492 1.388 . S
C491 C490 1.366 . S
C491 C495 1.385 . S
C492 H473 0.951 . S
C492 C490 1.388 . S
C492 C493 1.366 . S
C493 C492 1.366 . S
C493 C494 1.414 . S
C493 C496 1.499 . S
C494 H474 0.950 . S
C494 C493 1.414 . S
C494 C495 1.374 . S
C495 H475 0.950 . S
C495 C491 1.385 . S
C495 C494 1.374 . S
C496 C493 1.499 . S
C496 C497 1.373 . S
C496 C498 1.389 . S
C497 H476 0.950 . S
C497 C496 1.373 . S
C497 C513 1.377 . S
C498 C496 1.389 . S
C498 C499 1.524 . S
C498 C512 1.377 . S
C499 C498 1.524 . S
C499 C500 1.397 . S
C499 C504 1.363 . S
C500 H477 0.950 . S
C500 C499 1.397 . S
C500 C501 1.334 . S
C501 H478 0.950 . S
C501 C500 1.334 . S
C501 C502 1.287 . S
C502 C501 1.287 . S
C502 C503 1.524 . S
C502 H521 0.913 . S
C503 H479 0.950 . S
C503 C502 1.524 . S
C503 C504 1.415 . S
C504 H480 0.950 . S
C504 C499 1.363 . S
C504 C503 1.415 . S
C505 H481 0.951 1_556 S
C505 C506 1.366 1_556 S
C505 C507 1.388 . S
C506 C505 1.366 1_554 S
C506 C510 1.385 1_554 S
C507 H482 0.951 . S
C507 C505 1.388 . S
C507 C508 1.366 . S
C508 C507 1.366 . S
C508 C509 1.414 . S
C508 C511 1.499 . S
C509 H483 0.950 . S
C509 C508 1.414 . S
C509 C510 1.374 . S
C510 H484 0.950 1_556 S
C510 C506 1.385 1_556 S
C510 C509 1.374 . S
C511 C508 1.499 . S
C511 C512 1.373 . S
C511 C513 1.389 . S
C512 H485 0.950 . S
C512 C498 1.377 . S
C512 C511 1.373 . S
C513 C497 1.377 . S
C513 C511 1.389 . S
C513 C514 1.524 . S
C514 C513 1.524 . S
C514 C515 1.397 . S
C514 C519 1.363 . S
C515 H486 0.950 . S
C515 C514 1.397 . S
C515 C516 1.334 . S
C516 H487 0.950 . S
C516 C515 1.334 . S
C516 C517 1.287 . S
C517 C516 1.287 . S
C517 C518 1.524 . S
C517 H520 0.999 . S
C518 H488 0.950 . S
C518 C517 1.524 . S
C518 C519 1.415 . S
C519 H489 0.950 . S
C519 C514 1.363 . S
C519 C518 1.415 . S
H520 C517 0.999 . S
H521 C502 0.913 . S
H522 C540 0.951 . S
H523 C542 0.951 . S
H524 C544 0.950 . S
H525 C545 0.950 . S
H526 C547 0.950 . S
H527 C550 0.950 . S
H528 C551 0.950 . S
H529 C553 0.950 . S
H530 C554 0.950 . S
H531 C555 0.951 . S
H532 C557 0.951 . S
H533 C559 0.950 . S
H534 C560 0.950 . S
H535 C562 0.950 . S
H536 C565 0.950 . S
H537 C566 0.950 . S
H538 C568 0.950 . S
H539 C569 0.950 . S
C540 H522 0.951 . S
C540 C541 1.366 . S
C540 C542 1.388 . S
C541 C540 1.366 . S
C541 C545 1.385 . S
C542 H523 0.951 . S
C542 C540 1.388 . S
C542 C543 1.366 . S
C543 C542 1.366 . S
C543 C544 1.414 . S
C543 C546 1.499 . S
C544 H524 0.950 . S
C544 C543 1.414 . S
C544 C545 1.374 . S
C545 H525 0.950 . S
C545 C541 1.385 . S
C545 C544 1.374 . S
C546 C543 1.499 . S
C546 C547 1.373 . S
C546 C548 1.389 . S
C547 H526 0.950 . S
C547 C546 1.373 . S
C547 C563 1.377 . S
C548 C546 1.389 . S
C548 C549 1.524 . S
C548 C562 1.377 1_554 S
C549 C548 1.524 . S
C549 C550 1.397 . S
C549 C554 1.363 . S
C550 H527 0.950 . S
C550 C549 1.397 . S
C550 C551 1.334 . S
C551 H528 0.950 . S
C551 C550 1.334 . S
C551 C552 1.287 . S
C552 C551 1.287 . S
C552 C553 1.524 . S
C552 H571 0.913 . S
C553 H529 0.950 . S
C553 C552 1.524 . S
C553 C554 1.415 . S
C554 H530 0.950 . S
C554 C549 1.363 . S
C554 C553 1.415 . S
C555 H531 0.951 . S
C555 C556 1.366 . S
C555 C557 1.388 . S
C556 C555 1.366 . S
C556 C560 1.385 . S
C557 H532 0.951 . S
C557 C555 1.388 . S
C557 C558 1.366 . S
C558 C557 1.366 . S
C558 C559 1.414 . S
C558 C561 1.499 . S
C559 H533 0.950 . S
C559 C558 1.414 . S
C559 C560 1.374 . S
C560 H534 0.950 . S
C560 C556 1.385 . S
C560 C559 1.374 . S
C561 C558 1.499 . S
C561 C562 1.373 . S
C561 C563 1.389 1_556 S
C562 H535 0.950 . S
C562 C548 1.377 1_556 S
C562 C561 1.373 . S
C563 C547 1.377 . S
C563 C561 1.389 1_554 S
C563 C564 1.524 1_554 S
C564 C563 1.524 1_556 S
C564 C565 1.397 . S
C564 C569 1.363 1_556 S
C565 H536 0.950 . S
C565 C564 1.397 . S
C565 C566 1.334 . S
C566 H537 0.950 . S
C566 C565 1.334 . S
C566 C567 1.287 . S
C567 C566 1.287 . S
C567 C568 1.524 . S
C567 H570 0.999 . S
C568 H538 0.950 . S
C568 C567 1.524 . S
C568 C569 1.415 1_556 S
C569 H539 0.950 . S
C569 C564 1.363 1_554 S
C569 C568 1.415 1_554 S
H570 C567 0.999 . S
H571 C552 0.913 . S
H572 C590 0.951 . S
H573 C592 0.951 . S
H574 C594 0.950 . S
H575 C595 0.950 . S
H576 C597 0.950 . S
H577 C600 0.950 . S
H578 C601 0.950 . S
H579 C603 0.950 . S
H580 C604 0.950 . S
H581 C605 0.951 . S
H582 C607 0.951 . S
H583 C609 0.950 . S
H584 C610 0.950 . S
H585 C612 0.950 . S
H586 C615 0.950 . S
H587 C616 0.950 . S
H588 C618 0.950 . S
H589 C619 0.950 . S
C590 H572 0.951 . S
C590 C591 1.366 . S
C590 C592 1.388 . S
C591 C590 1.366 . S
C591 C595 1.385 . S
C592 H573 0.951 . S
C592 C590 1.388 . S
C592 C593 1.366 . S
C593 C592 1.366 . S
C593 C594 1.414 . S
C593 C596 1.499 . S
C594 H574 0.950 . S
C594 C593 1.414 . S
C594 C595 1.374 . S
C595 H575 0.950 . S
C595 C591 1.385 . S
C595 C594 1.374 . S
C596 C593 1.499 . S
C596 C597 1.373 . S
C596 C598 1.389 . S
C597 H576 0.950 . S
C597 C596 1.373 . S
C597 C613 1.377 . S
C598 C596 1.389 . S
C598 C599 1.524 . S
C598 C612 1.377 . S
C599 C598 1.524 . S
C599 C600 1.397 . S
C599 C604 1.363 . S
C600 H577 0.950 . S
C600 C599 1.397 . S
C600 C601 1.334 . S
C601 H578 0.950 . S
C601 C600 1.334 . S
C601 C602 1.287 . S
C602 C601 1.287 . S
C602 C603 1.524 . S
C602 H621 0.913 . S
C603 H579 0.950 . S
C603 C602 1.524 . S
C603 C604 1.415 . S
C604 H580 0.950 . S
C604 C599 1.363 . S
C604 C603 1.415 . S
C605 H581 0.951 . S
C605 C606 1.366 . S
C605 C607 1.388 . S
C606 C605 1.366 . S
C606 C610 1.385 . S
C607 H582 0.951 . S
C607 C605 1.388 . S
C607 C608 1.366 . S
C608 C607 1.366 . S
C608 C609 1.414 . S
C608 C611 1.499 . S
C609 H583 0.950 . S
C609 C608 1.414 . S
C609 C610 1.374 . S
C610 H584 0.950 . S
C610 C606 1.385 . S
C610 C609 1.374 . S
C611 C608 1.499 . S
C611 C612 1.373 . S
C611 C613 1.389 . S
C612 H585 0.950 . S
C612 C598 1.377 . S
C612 C611 1.373 . S
C613 C597 1.377 . S
C613 C611 1.389 . S
C613 C614 1.524 . S
C614 C613 1.524 . S
C614 C615 1.397 . S
C614 C619 1.363 . S
C615 H586 0.950 . S
C615 C614 1.397 . S
C615 C616 1.334 . S
C616 H587 0.950 . S
C616 C615 1.334 . S
C616 C617 1.287 . S
C617 C616 1.287 . S
C617 C618 1.524 . S
C617 H620 0.999 . S
C618 H588 0.950 . S
C618 C617 1.524 . S
C618 C619 1.415 . S
C619 H589 0.950 . S
C619 C614 1.363 . S
C619 C618 1.415 . S
H620 C617 0.999 . S
H621 C602 0.913 . S
H622 C640 0.951 . S
H623 C642 0.951 . S
H624 C644 0.950 . S
H625 C645 0.950 . S
H626 C647 0.950 . S
H627 C650 0.950 . S
H628 C651 0.950 . S
H629 C653 0.950 . S
H630 C654 0.950 . S
H631 C655 0.951 . S
H632 C657 0.951 . S
H633 C659 0.950 . S
H634 C660 0.950 . S
H635 C662 0.950 . S
H636 C665 0.950 . S
H637 C666 0.950 . S
H638 C668 0.950 . S
H639 C669 0.950 . S
C640 H622 0.951 . S
C640 C641 1.366 . S
C640 C642 1.388 . S
C641 C640 1.366 . S
C641 C645 1.385 . S
C642 H623 0.951 . S
C642 C640 1.388 . S
C642 C643 1.366 . S
C643 C642 1.366 . S
C643 C644 1.414 . S
C643 C646 1.499 . S
C644 H624 0.950 . S
C644 C643 1.414 . S
C644 C645 1.374 . S
C645 H625 0.950 . S
C645 C641 1.385 . S
C645 C644 1.374 . S
C646 C643 1.499 . S
C646 C647 1.373 . S
C646 C648 1.389 . S
C647 H626 0.950 . S
C647 C646 1.373 . S
C647 C663 1.377 . S
C648 C646 1.389 . S
C648 C649 1.524 . S
C648 C662 1.377 . S
C649 C648 1.524 . S
C649 C650 1.397 . S
C649 C654 1.363 . S
C650 H627 0.950 . S
C650 C649 1.397 . S
C650 C651 1.334 . S
C651 H628 0.950 . S
C651 C650 1.334 . S
C651 C652 1.287 . S
C652 C651 1.287 . S
C652 C653 1.524 . S
C652 H671 0.913 . S
C653 H629 0.950 . S
C653 C652 1.524 . S
C653 C654 1.415 . S
C654 H630 0.950 . S
C654 C649 1.363 . S
C654 C653 1.415 . S
C655 H631 0.951 . S
C655 C656 1.366 . S
C655 C657 1.388 . S
C656 C655 1.366 . S
C656 C660 1.385 . S
C657 H632 0.951 . S
C657 C655 1.388 . S
C657 C658 1.366 . S
C658 C657 1.366 . S
C658 C659 1.414 . S
C658 C661 1.499 . S
C659 H633 0.950 . S
C659 C658 1.414 . S
C659 C660 1.374 . S
C660 H634 0.950 . S
C660 C656 1.385 . S
C660 C659 1.374 . S
C661 C658 1.499 . S
C661 C662 1.373 . S
C661 C663 1.389 . S
C662 H635 0.950 . S
C662 C648 1.377 . S
C662 C661 1.373 . S
C663 C647 1.377 . S
C663 C661 1.389 . S
C663 C664 1.524 . S
C664 C663 1.524 . S
C664 C665 1.397 . S
C664 C669 1.363 . S
C665 H636 0.950 . S
C665 C664 1.397 . S
C665 C666 1.334 . S
C666 H637 0.950 . S
C666 C665 1.334 . S
C666 C667 1.287 . S
C667 C666 1.287 . S
C667 C668 1.524 . S
C667 H670 0.999 . S
C668 H638 0.950 . S
C668 C667 1.524 . S
C668 C669 1.415 . S
C669 H639 0.950 . S
C669 C664 1.363 . S
C669 C668 1.415 . S
H670 C667 0.999 . S
H671 C652 0.913 . S
H672 C690 0.951 . S
H673 C692 0.951 . S
H674 C694 0.950 . S
H675 C695 0.950 . S
H676 C697 0.950 . S
H677 C700 0.950 . S
H678 C701 0.950 . S
H679 C703 0.950 . S
H680 C704 0.950 . S
H681 C705 0.951 . S
H682 C707 0.951 . S
H683 C709 0.950 . S
H684 C710 0.950 . S
H685 C712 0.950 . S
H686 C715 0.950 . S
H687 C716 0.950 . S
H688 C718 0.950 . S
H689 C719 0.950 . S
C690 H672 0.951 . S
C690 C691 1.366 . S
C690 C692 1.388 . S
C691 C690 1.366 . S
C691 C695 1.385 . S
C692 H673 0.951 . S
C692 C690 1.388 . S
C692 C693 1.366 . S
C693 C692 1.366 . S
C693 C694 1.414 . S
C693 C696 1.499 . S
C694 H674 0.950 . S
C694 C693 1.414 . S
C694 C695 1.374 . S
C695 H675 0.950 . S
C695 C691 1.385 . S
C695 C694 1.374 . S
C696 C693 1.499 . S
C696 C697 1.373 . S
C696 C698 1.389 . S
C697 H676 0.950 . S
C697 C696 1.373 . S
C697 C713 1.377 . S
C698 C696 1.389 . S
C698 C699 1.524 . S
C698 C712 1.377 . S
C699 C698 1.524 . S
C699 C700 1.397 . S
C699 C704 1.363 . S
C700 H677 0.950 . S
C700 C699 1.397 . S
C700 C701 1.334 . S
C701 H678 0.950 . S
C701 C700 1.334 . S
C701 C702 1.287 . S
C702 C701 1.287 . S
C702 C703 1.524 . S
C702 H721 0.913 . S
C703 H679 0.950 . S
C703 C702 1.524 . S
C703 C704 1.415 . S
C704 H680 0.950 . S
C704 C699 1.363 . S
C704 C703 1.415 . S
C705 H681 0.951 . S
C705 C706 1.366 . S
C705 C707 1.388 . S
C706 C705 1.366 . S
C706 C710 1.385 . S
C707 H682 0.951 . S
C707 C705 1.388 . S
C707 C708 1.366 . S
C708 C707 1.366 . S
C708 C709 1.414 . S
C708 C711 1.499 . S
C709 H683 0.950 . S
C709 C708 1.414 . S
C709 C710 1.374 . S
C710 H684 0.950 . S
C710 C706 1.385 . S
C710 C709 1.374 . S
C711 C708 1.499 . S
C711 C712 1.373 . S
C711 C713 1.389 . S
C712 H685 0.950 . S
C712 C698 1.377 . S
C712 C711 1.373 . S
C713 C697 1.377 . S
C713 C711 1.389 . S
C713 C714 1.524 . S
C714 C713 1.524 . S
C714 C715 1.397 . S
C714 C719 1.363 . S
C715 H686 0.950 . S
C715 C714 1.397 . S
C715 C716 1.334 . S
C716 H687 0.950 . S
C716 C715 1.334 . S
C716 C717 1.287 . S
C717 C716 1.287 . S
C717 C718 1.524 . S
C717 H720 0.999 . S
C718 H688 0.950 . S
C718 C717 1.524 . S
C718 C719 1.415 . S
C719 H689 0.950 . S
C719 C714 1.363 . S
C719 C718 1.415 . S
H720 C717 0.999 . S
H721 C702 0.913 . S
H722 C740 0.951 . S
H723 C742 0.951 . S
H724 C744 0.950 . S
H725 C745 0.950 . S
H726 C747 0.950 . S
H727 C750 0.950 . S
H728 C751 0.950 . S
H729 C753 0.950 . S
H730 C754 0.950 . S
H731 C755 0.951 . S
H732 C757 0.951 . S
H733 C759 0.950 . S
H734 C760 0.950 . S
H735 C762 0.950 . S
H736 C765 0.950 . S
H737 C766 0.950 . S
H738 C768 0.950 . S
H739 C769 0.950 . S
C740 H722 0.951 . S
C740 C741 1.366 . S
C740 C742 1.388 . S
C741 C740 1.366 . S
C741 C745 1.385 . S
C742 H723 0.951 . S
C742 C740 1.388 . S
C742 C743 1.366 . S
C743 C742 1.366 . S
C743 C744 1.414 . S
C743 C746 1.499 . S
C744 H724 0.950 . S
C744 C743 1.414 . S
C744 C745 1.374 . S
C745 H725 0.950 . S
C745 C741 1.385 . S
C745 C744 1.374 . S
C746 C743 1.499 . S
C746 C747 1.373 . S
C746 C748 1.389 . S
C747 H726 0.950 . S
C747 C746 1.373 . S
C747 C763 1.377 1_554 S
C748 C746 1.389 . S
C748 C749 1.524 . S
C748 C762 1.377 1_554 S
C749 C748 1.524 . S
C749 C750 1.397 . S
C749 C754 1.363 . S
C750 H727 0.950 . S
C750 C749 1.397 . S
C750 C751 1.334 . S
C751 H728 0.950 . S
C751 C750 1.334 . S
C751 C752 1.287 . S
C752 C751 1.287 . S
C752 C753 1.524 . S
C752 H771 0.913 . S
C753 H729 0.950 . S
C753 C752 1.524 . S
C753 C754 1.415 . S
C754 H730 0.950 . S
C754 C749 1.363 . S
C754 C753 1.415 . S
C755 H731 0.951 . S
C755 C756 1.366 . S
C755 C757 1.388 . S
C756 C755 1.366 . S
C756 C760 1.385 . S
C757 H732 0.951 . S
C757 C755 1.388 . S
C757 C758 1.366 . S
C758 C757 1.366 . S
C758 C759 1.414 . S
C758 C761 1.499 . S
C759 H733 0.950 . S
C759 C758 1.414 . S
C759 C760 1.374 . S
C760 H734 0.950 . S
C760 C756 1.385 . S
C760 C759 1.374 . S
C761 C758 1.499 . S
C761 C762 1.373 . S
C761 C763 1.389 . S
C762 H735 0.950 . S
C762 C748 1.377 1_556 S
C762 C761 1.373 . S
C763 C747 1.377 1_556 S
C763 C761 1.389 . S
C763 C764 1.524 . S
C764 C763 1.524 . S
C764 C765 1.397 . S
C764 C769 1.363 . S
C765 H736 0.950 . S
C765 C764 1.397 . S
C765 C766 1.334 . S
C766 H737 0.950 . S
C766 C765 1.334 . S
C766 C767 1.287 . S
C767 C766 1.287 . S
C767 C768 1.524 . S
C767 H770 0.999 . S
C768 H738 0.950 . S
C768 C767 1.524 . S
C768 C769 1.415 . S
C769 H739 0.950 . S
C769 C764 1.363 . S
C769 C768 1.415 . S
H770 C767 0.999 . S
H771 C752 0.913 . S
H772 C790 0.951 . S
H773 C792 0.951 . S
H774 C794 0.950 . S
H775 C795 0.950 . S
H776 C797 0.950 . S
H777 C800 0.950 . S
H778 C801 0.950 . S
H779 C803 0.950 . S
H780 C804 0.950 . S
H781 C805 0.951 1_556 S
H782 C807 0.951 . S
H783 C809 0.950 . S
H784 C810 0.950 1_556 S
H785 C812 0.950 . S
H786 C815 0.950 . S
H787 C816 0.950 . S
H788 C818 0.950 . S
H789 C819 0.950 . S
C790 H772 0.951 . S
C790 C791 1.366 . S
C790 C792 1.388 . S
C791 C790 1.366 . S
C791 C795 1.385 . S
C792 H773 0.951 . S
C792 C790 1.388 . S
C792 C793 1.366 . S
C793 C792 1.366 . S
C793 C794 1.414 . S
C793 C796 1.499 . S
C794 H774 0.950 . S
C794 C793 1.414 . S
C794 C795 1.374 . S
C795 H775 0.950 . S
C795 C791 1.385 . S
C795 C794 1.374 . S
C796 C793 1.499 . S
C796 C797 1.373 . S
C796 C798 1.389 . S
C797 H776 0.950 . S
C797 C796 1.373 . S
C797 C813 1.377 . S
C798 C796 1.389 . S
C798 C799 1.524 . S
C798 C812 1.377 . S
C799 C798 1.524 . S
C799 C800 1.397 . S
C799 C804 1.363 . S
C800 H777 0.950 . S
C800 C799 1.397 . S
C800 C801 1.334 . S
C801 H778 0.950 . S
C801 C800 1.334 . S
C801 C802 1.287 . S
C802 C801 1.287 . S
C802 C803 1.524 . S
C802 H821 0.913 . S
C803 H779 0.950 . S
C803 C802 1.524 . S
C803 C804 1.415 . S
C804 H780 0.950 . S
C804 C799 1.363 . S
C804 C803 1.415 . S
C805 H781 0.951 1_554 S
C805 C806 1.366 1_554 S
C805 C807 1.388 . S
C806 C805 1.366 1_556 S
C806 C810 1.385 1_556 S
C807 H782 0.951 . S
C807 C805 1.388 . S
C807 C808 1.366 . S
C808 C807 1.366 . S
C808 C809 1.414 . S
C808 C811 1.499 . S
C809 H783 0.950 . S
C809 C808 1.414 . S
C809 C810 1.374 . S
C810 H784 0.950 1_554 S
C810 C806 1.385 1_554 S
C810 C809 1.374 . S
C811 C808 1.499 . S
C811 C812 1.373 . S
C811 C813 1.389 . S
C812 H785 0.950 . S
C812 C798 1.377 . S
C812 C811 1.373 . S
C813 C797 1.377 . S
C813 C811 1.389 . S
C813 C814 1.524 . S
C814 C813 1.524 . S
C814 C815 1.397 . S
C814 C819 1.363 . S
C815 H786 0.950 . S
C815 C814 1.397 . S
C815 C816 1.334 . S
C816 H787 0.950 . S
C816 C815 1.334 . S
C816 C817 1.287 . S
C817 C816 1.287 . S
C817 C818 1.524 . S
C817 H820 0.999 . S
C818 H788 0.950 . S
C818 C817 1.524 . S
C818 C819 1.415 . S
C819 H789 0.950 . S
C819 C814 1.363 . S
C819 C818 1.415 . S
H820 C817 0.999 . S
H821 C802 0.913 . S
H822 C840 0.951 . S
H823 C842 0.951 . S
H824 C844 0.950 . S
H825 C845 0.950 . S
H826 C847 0.950 . S
H827 C850 0.950 . S
H828 C851 0.950 . S
H829 C853 0.950 . S
H830 C854 0.950 . S
H831 C855 0.951 . S
H832 C857 0.951 . S
H833 C859 0.950 . S
H834 C860 0.950 . S
H835 C862 0.950 . S
H836 C865 0.950 . S
H837 C866 0.950 . S
H838 C868 0.950 . S
H839 C869 0.950 . S
C840 H822 0.951 . S
C840 C841 1.366 . S
C840 C842 1.388 . S
C841 C840 1.366 . S
C841 C845 1.385 . S
C842 H823 0.951 . S
C842 C840 1.388 . S
C842 C843 1.366 . S
C843 C842 1.366 . S
C843 C844 1.414 . S
C843 C846 1.499 . S
C844 H824 0.950 . S
C844 C843 1.414 . S
C844 C845 1.374 . S
C845 H825 0.950 . S
C845 C841 1.385 . S
C845 C844 1.374 . S
C846 C843 1.499 . S
C846 C847 1.373 . S
C846 C848 1.389 . S
C847 H826 0.950 . S
C847 C846 1.373 . S
C847 C863 1.377 . S
C848 C846 1.389 . S
C848 C849 1.524 . S
C848 C862 1.377 . S
C849 C848 1.524 . S
C849 C850 1.397 . S
C849 C854 1.363 . S
C850 H827 0.950 . S
C850 C849 1.397 . S
C850 C851 1.334 . S
C851 H828 0.950 . S
C851 C850 1.334 . S
C851 C852 1.287 . S
C852 C851 1.287 . S
C852 C853 1.524 . S
C852 H871 0.913 . S
C853 H829 0.950 . S
C853 C852 1.524 . S
C853 C854 1.415 . S
C854 H830 0.950 . S
C854 C849 1.363 . S
C854 C853 1.415 . S
C855 H831 0.951 . S
C855 C856 1.366 . S
C855 C857 1.388 . S
C856 C855 1.366 . S
C856 C860 1.385 . S
C857 H832 0.951 . S
C857 C855 1.388 . S
C857 C858 1.366 . S
C858 C857 1.366 . S
C858 C859 1.414 . S
C858 C861 1.499 . S
C859 H833 0.950 . S
C859 C858 1.414 . S
C859 C860 1.374 . S
C860 H834 0.950 . S
C860 C856 1.385 . S
C860 C859 1.374 . S
C861 C858 1.499 . S
C861 C862 1.373 . S
C861 C863 1.389 . S
C862 H835 0.950 . S
C862 C848 1.377 . S
C862 C861 1.373 . S
C863 C847 1.377 . S
C863 C861 1.389 . S
C863 C864 1.524 . S
C864 C863 1.524 . S
C864 C865 1.397 . S
C864 C869 1.363 . S
C865 H836 0.950 . S
C865 C864 1.397 . S
C865 C866 1.334 . S
C866 H837 0.950 . S
C866 C865 1.334 . S
C866 C867 1.287 . S
C867 C866 1.287 . S
C867 C868 1.524 . S
C867 H870 0.999 . S
C868 H838 0.950 . S
C868 C867 1.524 . S
C868 C869 1.415 . S
C869 H839 0.950 . S
C869 C864 1.363 . S
C869 C868 1.415 . S
H870 C867 0.999 . S
H871 C852 0.913 . S
H872 C890 0.951 . S
H873 C892 0.951 . S
H874 C894 0.950 . S
H875 C895 0.950 . S
H876 C897 0.950 . S
H877 C900 0.950 . S
H878 C901 0.950 . S
H879 C903 0.950 . S
H880 C904 0.950 . S
H881 C905 0.951 . S
H882 C907 0.951 . S
H883 C909 0.950 . S
H884 C910 0.950 . S
H885 C912 0.950 . S
H886 C915 0.950 . S
H887 C916 0.950 . S
H888 C918 0.950 . S
H889 C919 0.950 . S
C890 H872 0.951 . S
C890 C891 1.366 . S
C890 C892 1.388 . S
C891 C890 1.366 . S
C891 C895 1.385 . S
C892 H873 0.951 . S
C892 C890 1.388 . S
C892 C893 1.366 . S
C893 C892 1.366 . S
C893 C894 1.414 . S
C893 C896 1.499 . S
C894 H874 0.950 . S
C894 C893 1.414 . S
C894 C895 1.374 . S
C895 H875 0.950 . S
C895 C891 1.385 . S
C895 C894 1.374 . S
C896 C893 1.499 . S
C896 C897 1.373 . S
C896 C898 1.389 . S
C897 H876 0.950 . S
C897 C896 1.373 . S
C897 C913 1.377 1_454 S
C898 C896 1.389 . S
C898 C899 1.524 . S
C898 C912 1.377 1_454 S
C899 C898 1.524 . S
C899 C900 1.397 . S
C899 C904 1.363 1_455 S
C900 H877 0.950 . S
C900 C899 1.397 . S
C900 C901 1.334 . S
C901 H878 0.950 . S
C901 C900 1.334 . S
C901 C902 1.287 . S
C902 C901 1.287 . S
C902 C903 1.524 1_455 S
C902 H921 0.913 . S
C903 H879 0.950 . S
C903 C902 1.524 1_655 S
C903 C904 1.415 . S
C904 H880 0.950 . S
C904 C899 1.363 1_655 S
C904 C903 1.415 . S
C905 H881 0.951 . S
C905 C906 1.366 . S
C905 C907 1.388 . S
C906 C905 1.366 . S
C906 C910 1.385 . S
C907 H882 0.951 . S
C907 C905 1.388 . S
C907 C908 1.366 . S
C908 C907 1.366 . S
C908 C909 1.414 . S
C908 C911 1.499 . S
C909 H883 0.950 . S
C909 C908 1.414 . S
C909 C910 1.374 . S
C910 H884 0.950 . S
C910 C906 1.385 . S
C910 C909 1.374 . S
C911 C908 1.499 . S
C911 C912 1.373 . S
C911 C913 1.389 . S
C912 H885 0.950 . S
C912 C898 1.377 1_656 S
C912 C911 1.373 . S
C913 C897 1.377 1_656 S
C913 C911 1.389 . S
C913 C914 1.524 . S
C914 C913 1.524 . S
C914 C915 1.397 . S
C914 C919 1.363 1_655 S
C915 H886 0.950 . S
C915 C914 1.397 . S
C915 C916 1.334 . S
C916 H887 0.950 . S
C916 C915 1.334 . S
C916 C917 1.287 . S
C917 C916 1.287 . S
C917 C918 1.524 1_655 S
C917 H920 0.999 . S
C918 H888 0.950 . S
C918 C917 1.524 1_455 S
C918 C919 1.415 . S
C919 H889 0.950 . S
C919 C914 1.363 1_455 S
C919 C918 1.415 . S
H920 C917 0.999 . S
H921 C902 0.913 . S
H922 C940 0.951 . S
H923 C942 0.951 . S
H924 C944 0.950 . S
H925 C945 0.950 . S
H926 C947 0.950 . S
H927 C950 0.950 . S
H928 C951 0.950 . S
H929 C953 0.950 . S
H930 C954 0.950 . S
H931 C955 0.951 . S
H932 C957 0.951 . S
H933 C959 0.950 . S
H934 C960 0.950 . S
H935 C962 0.950 . S
H936 C965 0.950 . S
H937 C966 0.950 . S
H938 C968 0.950 . S
H939 C969 0.950 . S
C940 H922 0.951 . S
C940 C941 1.366 . S
C940 C942 1.388 . S
C941 C940 1.366 . S
C941 C945 1.385 . S
C942 H923 0.951 . S
C942 C940 1.388 . S
C942 C943 1.366 . S
C943 C942 1.366 . S
C943 C944 1.414 . S
C943 C946 1.499 . S
C944 H924 0.950 . S
C944 C943 1.414 . S
C944 C945 1.374 . S
C945 H925 0.950 . S
C945 C941 1.385 . S
C945 C944 1.374 . S
C946 C943 1.499 . S
C946 C947 1.373 . S
C946 C948 1.389 1_565 S
C947 H926 0.950 . S
C947 C946 1.373 . S
C947 C963 1.377 . S
C948 C946 1.389 1_545 S
C948 C949 1.524 . S
C948 C962 1.377 . S
C949 C948 1.524 . S
C949 C950 1.397 . S
C949 C954 1.363 . S
C950 H927 0.950 . S
C950 C949 1.397 . S
C950 C951 1.334 . S
C951 H928 0.950 . S
C951 C950 1.334 . S
C951 C952 1.287 . S
C952 C951 1.287 . S
C952 C953 1.524 . S
C952 H971 0.913 . S
C953 H929 0.950 . S
C953 C952 1.524 . S
C953 C954 1.415 . S
C954 H930 0.950 . S
C954 C949 1.363 . S
C954 C953 1.415 . S
C955 H931 0.951 . S
C955 C956 1.366 . S
C955 C957 1.388 . S
C956 C955 1.366 . S
C956 C960 1.385 . S
C957 H932 0.951 . S
C957 C955 1.388 . S
C957 C958 1.366 . S
C958 C957 1.366 . S
C958 C959 1.414 . S
C958 C961 1.499 . S
C959 H933 0.950 . S
C959 C958 1.414 . S
C959 C960 1.374 . S
C960 H934 0.950 . S
C960 C956 1.385 . S
C960 C959 1.374 . S
C961 C958 1.499 . S
C961 C962 1.373 . S
C961 C963 1.389 1_545 S
C962 H935 0.950 . S
C962 C948 1.377 . S
C962 C961 1.373 . S
C963 C947 1.377 . S
C963 C961 1.389 1_565 S
C963 C964 1.524 . S
C964 C963 1.524 . S
C964 C965 1.397 . S
C964 C969 1.363 . S
C965 H936 0.950 . S
C965 C964 1.397 . S
C965 C966 1.334 . S
C966 H937 0.950 . S
C966 C965 1.334 . S
C966 C967 1.287 . S
C967 C966 1.287 . S
C967 C968 1.524 . S
C967 H970 0.999 . S
C968 H938 0.950 . S
C968 C967 1.524 . S
C968 C969 1.415 . S
C969 H939 0.950 . S
C969 C964 1.363 . S
C969 C968 1.415 . S
H970 C967 0.999 . S
H971 C952 0.913 . S
H972 C990 0.951 . S
H973 C992 0.951 . S
H974 C994 0.950 . S
H975 C995 0.950 . S
H976 C997 0.950 . S
H977 C1000 0.950 . S
H978 C1001 0.950 . S
H979 C1003 0.950 . S
H980 C1004 0.950 . S
H981 C1005 0.951 . S
H982 C1007 0.951 . S
H983 C1009 0.950 . S
H984 C1010 0.950 . S
H985 C1012 0.950 . S
H986 C1015 0.950 . S
H987 C1016 0.950 . S
H988 C1018 0.950 . S
H989 C1019 0.950 . S
C990 H972 0.951 . S
C990 C991 1.366 . S
C990 C992 1.388 . S
C991 C990 1.366 . S
C991 C995 1.385 . S
C992 H973 0.951 . S
C992 C990 1.388 . S
C992 C993 1.366 . S
C993 C992 1.366 . S
C993 C994 1.414 . S
C993 C996 1.499 . S
C994 H974 0.950 . S
C994 C993 1.414 . S
C994 C995 1.374 . S
C995 H975 0.950 . S
C995 C991 1.385 . S
C995 C994 1.374 . S
C996 C993 1.499 . S
C996 C997 1.373 1_455 S
C996 C998 1.389 . S
C997 H976 0.950 . S
C997 C996 1.373 1_655 S
C997 C1013 1.377 . S
C998 C996 1.389 . S
C998 C999 1.524 . S
C998 C1012 1.377 . S
C999 C998 1.524 . S
C999 C1000 1.397 . S
C999 C1004 1.363 . S
C1000 H977 0.950 . S
C1000 C999 1.397 . S
C1000 C1001 1.334 . S
C1001 H978 0.950 . S
C1001 C1000 1.334 . S
C1001 C1002 1.287 . S
C1002 C1001 1.287 . S
C1002 C1003 1.524 . S
C1002 H1021 0.913 . S
C1003 H979 0.950 . S
C1003 C1002 1.524 . S
C1003 C1004 1.415 . S
C1004 H980 0.950 . S
C1004 C999 1.363 . S
C1004 C1003 1.415 . S
C1005 H981 0.951 . S
C1005 C1006 1.366 . S
C1005 C1007 1.388 . S
C1006 C1005 1.366 . S
C1006 C1010 1.385 . S
C1007 H982 0.951 . S
C1007 C1005 1.388 . S
C1007 C1008 1.366 . S
C1008 C1007 1.366 . S
C1008 C1009 1.414 . S
C1008 C1011 1.499 . S
C1009 H983 0.950 . S
C1009 C1008 1.414 . S
C1009 C1010 1.374 . S
C1010 H984 0.950 . S
C1010 C1006 1.385 . S
C1010 C1009 1.374 . S
C1011 C1008 1.499 . S
C1011 C1012 1.373 1_655 S
C1011 C1013 1.389 . S
C1012 H985 0.950 . S
C1012 C998 1.377 . S
C1012 C1011 1.373 1_455 S
C1013 C997 1.377 . S
C1013 C1011 1.389 . S
C1013 C1014 1.524 . S
C1014 C1013 1.524 . S
C1014 C1015 1.397 . S
C1014 C1019 1.363 . S
C1015 H986 0.950 . S
C1015 C1014 1.397 . S
C1015 C1016 1.334 . S
C1016 H987 0.950 . S
C1016 C1015 1.334 . S
C1016 C1017 1.287 . S
C1017 C1016 1.287 . S
C1017 C1018 1.524 . S
C1017 H1020 0.999 . S
C1018 H988 0.950 . S
C1018 C1017 1.524 . S
C1018 C1019 1.415 . S
C1019 H989 0.950 . S
C1019 C1014 1.363 . S
C1019 C1018 1.415 . S
H1020 C1017 0.999 . S
H1021 C1002 0.913 . S
H1022 C1040 0.951 . S
H1023 C1042 0.951 . S
H1024 C1044 0.950 . S
H1025 C1045 0.950 . S
H1026 C1047 0.950 . S
H1027 C1050 0.950 . S
H1028 C1051 0.950 . S
H1029 C1053 0.950 . S
H1030 C1054 0.950 . S
H1031 C1055 0.951 . S
H1032 C1057 0.951 . S
H1033 C1059 0.950 . S
H1034 C1060 0.950 . S
H1035 C1062 0.950 . S
H1036 C1065 0.950 . S
H1037 C1066 0.950 . S
H1038 C1068 0.950 . S
H1039 C1069 0.950 . S
C1040 H1022 0.951 . S
C1040 C1041 1.366 . S
C1040 C1042 1.388 . S
C1041 C1040 1.366 . S
C1041 C1045 1.385 . S
C1042 H1023 0.951 . S
C1042 C1040 1.388 . S
C1042 C1043 1.366 . S
C1043 C1042 1.366 . S
C1043 C1044 1.414 . S
C1043 C1046 1.499 . S
C1044 H1024 0.950 . S
C1044 C1043 1.414 . S
C1044 C1045 1.374 . S
C1045 H1025 0.950 . S
C1045 C1041 1.385 . S
C1045 C1044 1.374 . S
C1046 C1043 1.499 . S
C1046 C1047 1.373 . S
C1046 C1048 1.389 . S
C1047 H1026 0.950 . S
C1047 C1046 1.373 . S
C1047 C1063 1.377 1_565 S
C1048 C1046 1.389 . S
C1048 C1049 1.524 . S
C1048 C1062 1.377 1_565 S
C1049 C1048 1.524 . S
C1049 C1050 1.397 1_565 S
C1049 C1054 1.363 . S
C1050 H1027 0.950 . S
C1050 C1049 1.397 1_545 S
C1050 C1051 1.334 . S
C1051 H1028 0.950 . S
C1051 C1050 1.334 . S
C1051 C1052 1.287 . S
C1052 C1051 1.287 . S
C1052 C1053 1.524 1_545 S
C1052 H1071 0.913 . S
C1053 H1029 0.950 . S
C1053 C1052 1.524 1_565 S
C1053 C1054 1.415 . S
C1054 H1030 0.950 . S
C1054 C1049 1.363 . S
C1054 C1053 1.415 . S
C1055 H1031 0.951 . S
C1055 C1056 1.366 . S
C1055 C1057 1.388 . S
C1056 C1055 1.366 . S
C1056 C1060 1.385 . S
C1057 H1032 0.951 . S
C1057 C1055 1.388 . S
C1057 C1058 1.366 . S
C1058 C1057 1.366 . S
C1058 C1059 1.414 . S
C1058 C1061 1.499 . S
C1059 H1033 0.950 . S
C1059 C1058 1.414 . S
C1059 C1060 1.374 . S
C1060 H1034 0.950 . S
C1060 C1056 1.385 . S
C1060 C1059 1.374 . S
C1061 C1058 1.499 . S
C1061 C1062 1.373 . S
C1061 C1063 1.389 . S
C1062 H1035 0.950 . S
C1062 C1048 1.377 1_545 S
C1062 C1061 1.373 . S
C1063 C1047 1.377 1_545 S
C1063 C1061 1.389 . S
C1063 C1064 1.524 . S
C1064 C1063 1.524 . S
C1064 C1065 1.397 1_545 S
C1064 C1069 1.363 . S
C1065 H1036 0.950 . S
C1065 C1064 1.397 1_565 S
C1065 C1066 1.334 . S
C1066 H1037 0.950 . S
C1066 C1065 1.334 . S
C1066 C1067 1.287 . S
C1067 C1066 1.287 . S
C1067 C1068 1.524 1_565 S
C1067 H1070 0.999 . S
C1068 H1038 0.950 . S
C1068 C1067 1.524 1_545 S
C1068 C1069 1.415 . S
C1069 H1039 0.950 . S
C1069 C1064 1.363 . S
C1069 C1068 1.415 . S
H1070 C1067 0.999 . S
H1071 C1052 0.913 . S
H1072 C1090 0.951 . S
H1073 C1092 0.951 . S
H1074 C1094 0.950 . S
H1075 C1095 0.950 . S
H1076 C1097 0.950 . S
H1077 C1100 0.950 . S
H1078 C1101 0.950 . S
H1079 C1103 0.950 . S
H1080 C1104 0.950 . S
H1081 C1105 0.951 . S
H1082 C1107 0.951 . S
H1083 C1109 0.950 . S
H1084 C1110 0.950 . S
H1085 C1112 0.950 . S
H1086 C1115 0.950 . S
H1087 C1116 0.950 . S
H1088 C1118 0.950 . S
H1089 C1119 0.950 . S
C1090 H1072 0.951 . S
C1090 C1091 1.366 . S
C1090 C1092 1.388 . S
C1091 C1090 1.366 . S
C1091 C1095 1.385 . S
C1092 H1073 0.951 . S
C1092 C1090 1.388 . S
C1092 C1093 1.366 . S
C1093 C1092 1.366 . S
C1093 C1094 1.414 . S
C1093 C1096 1.499 . S
C1094 H1074 0.950 . S
C1094 C1093 1.414 . S
C1094 C1095 1.374 . S
C1095 H1075 0.950 . S
C1095 C1091 1.385 . S
C1095 C1094 1.374 . S
C1096 C1093 1.499 . S
C1096 C1097 1.373 . S
C1096 C1098 1.389 . S
C1097 H1076 0.950 . S
C1097 C1096 1.373 . S
C1097 C1113 1.377 . S
C1098 C1096 1.389 . S
C1098 C1099 1.524 . S
C1098 C1112 1.377 . S
C1099 C1098 1.524 . S
C1099 C1100 1.397 . S
C1099 C1104 1.363 . S
C1100 H1077 0.950 . S
C1100 C1099 1.397 . S
C1100 C1101 1.334 . S
C1101 H1078 0.950 . S
C1101 C1100 1.334 . S
C1101 C1102 1.287 . S
C1102 C1101 1.287 . S
C1102 C1103 1.524 . S
C1102 H1121 0.913 . S
C1103 H1079 0.950 . S
C1103 C1102 1.524 . S
C1103 C1104 1.415 . S
C1104 H1080 0.950 . S
C1104 C1099 1.363 . S
C1104 C1103 1.415 . S
C1105 H1081 0.951 . S
C1105 C1106 1.366 . S
C1105 C1107 1.388 . S
C1106 C1105 1.366 . S
C1106 C1110 1.385 . S
C1107 H1082 0.951 . S
C1107 C1105 1.388 . S
C1107 C1108 1.366 . S
C1108 C1107 1.366 . S
C1108 C1109 1.414 . S
C1108 C1111 1.499 . S
C1109 H1083 0.950 . S
C1109 C1108 1.414 . S
C1109 C1110 1.374 . S
C1110 H1084 0.950 . S
C1110 C1106 1.385 . S
C1110 C1109 1.374 . S
C1111 C1108 1.499 . S
C1111 C1112 1.373 . S
C1111 C1113 1.389 . S
C1112 H1085 0.950 . S
C1112 C1098 1.377 . S
C1112 C1111 1.373 . S
C1113 C1097 1.377 . S
C1113 C1111 1.389 . S
C1113 C1114 1.524 . S
C1114 C1113 1.524 . S
C1114 C1115 1.397 . S
C1114 C1119 1.363 . S
C1115 H1086 0.950 . S
C1115 C1114 1.397 . S
C1115 C1116 1.334 . S
C1116 H1087 0.950 . S
C1116 C1115 1.334 . S
C1116 C1117 1.287 . S
C1117 C1116 1.287 . S
C1117 C1118 1.524 . S
C1117 H1120 0.999 . S
C1118 H1088 0.950 . S
C1118 C1117 1.524 . S
C1118 C1119 1.415 . S
C1119 H1089 0.950 . S
C1119 C1114 1.363 . S
C1119 C1118 1.415 . S
H1120 C1117 0.999 . S
H1121 C1102 0.913 . S
H1122 C1140 0.951 . S
H1123 C1142 0.951 . S
H1124 C1144 0.950 . S
H1125 C1145 0.950 . S
H1126 C1147 0.950 . S
H1127 C1150 0.950 . S
H1128 C1151 0.950 . S
H1129 C1153 0.950 . S
H1130 C1154 0.950 . S
H1131 C1155 0.951 . S
H1132 C1157 0.951 . S
H1133 C1159 0.950 . S
H1134 C1160 0.950 . S
H1135 C1162 0.950 . S
H1136 C1165 0.950 . S
H1137 C1166 0.950 . S
H1138 C1168 0.950 . S
H1139 C1169 0.950 . S
C1140 H1122 0.951 . S
C1140 C1141 1.366 . S
C1140 C1142 1.388 . S
C1141 C1140 1.366 . S
C1141 C1145 1.385 . S
C1142 H1123 0.951 . S
C1142 C1140 1.388 . S
C1142 C1143 1.366 . S
C1143 C1142 1.366 . S
C1143 C1144 1.414 . S
C1143 C1146 1.499 . S
C1144 H1124 0.950 . S
C1144 C1143 1.414 . S
C1144 C1145 1.374 . S
C1145 H1125 0.950 . S
C1145 C1141 1.385 . S
C1145 C1144 1.374 . S
C1146 C1143 1.499 . S
C1146 C1147 1.373 . S
C1146 C1148 1.389 . S
C1147 H1126 0.950 . S
C1147 C1146 1.373 . S
C1147 C1163 1.377 . S
C1148 C1146 1.389 . S
C1148 C1149 1.524 . S
C1148 C1162 1.377 . S
C1149 C1148 1.524 . S
C1149 C1150 1.397 . S
C1149 C1154 1.363 . S
C1150 H1127 0.950 . S
C1150 C1149 1.397 . S
C1150 C1151 1.334 . S
C1151 H1128 0.950 . S
C1151 C1150 1.334 . S
C1151 C1152 1.287 . S
C1152 C1151 1.287 . S
C1152 C1153 1.524 . S
C1152 H1171 0.913 . S
C1153 H1129 0.950 . S
C1153 C1152 1.524 . S
C1153 C1154 1.415 . S
C1154 H1130 0.950 . S
C1154 C1149 1.363 . S
C1154 C1153 1.415 . S
C1155 H1131 0.951 . S
C1155 C1156 1.366 . S
C1155 C1157 1.388 . S
C1156 C1155 1.366 . S
C1156 C1160 1.385 . S
C1157 H1132 0.951 . S
C1157 C1155 1.388 . S
C1157 C1158 1.366 . S
C1158 C1157 1.366 . S
C1158 C1159 1.414 . S
C1158 C1161 1.499 . S
C1159 H1133 0.950 . S
C1159 C1158 1.414 . S
C1159 C1160 1.374 . S
C1160 H1134 0.950 . S
C1160 C1156 1.385 . S
C1160 C1159 1.374 . S
C1161 C1158 1.499 . S
C1161 C1162 1.373 . S
C1161 C1163 1.389 . S
C1162 H1135 0.950 . S
C1162 C1148 1.377 . S
C1162 C1161 1.373 . S
C1163 C1147 1.377 . S
C1163 C1161 1.389 . S
C1163 C1164 1.524 . S
C1164 C1163 1.524 . S
C1164 C1165 1.397 . S
C1164 C1169 1.363 . S
C1165 H1136 0.950 . S
C1165 C1164 1.397 . S
C1165 C1166 1.334 . S
C1166 H1137 0.950 . S
C1166 C1165 1.334 . S
C1166 C1167 1.287 . S
C1167 C1166 1.287 . S
C1167 C1168 1.524 . S
C1167 H1170 0.999 . S
C1168 H1138 0.950 . S
C1168 C1167 1.524 . S
C1168 C1169 1.415 . S
C1169 H1139 0.950 . S
C1169 C1164 1.363 . S
C1169 C1168 1.415 . S
H1170 C1167 0.999 . S
H1171 C1152 0.913 . S
H1172 C1190 0.951 . S
H1173 C1192 0.951 . S
H1174 C1194 0.950 . S
H1175 C1195 0.950 . S
H1176 C1197 0.950 . S
H1177 C1200 0.950 . S
H1178 C1201 0.950 . S
H1179 C1203 0.950 . S
H1180 C1204 0.950 . S
H1181 C1205 0.951 . S
H1182 C1207 0.951 . S
H1183 C1209 0.950 . S
H1184 C1210 0.950 . S
H1185 C1212 0.950 . S
H1186 C1215 0.950 . S
H1187 C1216 0.950 . S
H1188 C1218 0.950 . S
H1189 C1219 0.950 . S
C1190 H1172 0.951 . S
C1190 C1191 1.366 . S
C1190 C1192 1.388 . S
C1191 C1190 1.366 . S
C1191 C1195 1.385 . S
C1192 H1173 0.951 . S
C1192 C1190 1.388 . S
C1192 C1193 1.366 . S
C1193 C1192 1.366 . S
C1193 C1194 1.414 . S
C1193 C1196 1.499 . S
C1194 H1174 0.950 . S
C1194 C1193 1.414 . S
C1194 C1195 1.374 . S
C1195 H1175 0.950 . S
C1195 C1191 1.385 . S
C1195 C1194 1.374 . S
C1196 C1193 1.499 . S
C1196 C1197 1.373 . S
C1196 C1198 1.389 . S
C1197 H1176 0.950 . S
C1197 C1196 1.373 . S
C1197 C1213 1.377 . S
C1198 C1196 1.389 . S
C1198 C1199 1.524 . S
C1198 C1212 1.377 . S
C1199 C1198 1.524 . S
C1199 C1200 1.397 . S
C1199 C1204 1.363 . S
C1200 H1177 0.950 . S
C1200 C1199 1.397 . S
C1200 C1201 1.334 . S
C1201 H1178 0.950 . S
C1201 C1200 1.334 . S
C1201 C1202 1.287 . S
C1202 C1201 1.287 . S
C1202 C1203 1.524 . S
C1202 H1221 0.913 . S
C1203 H1179 0.950 . S
C1203 C1202 1.524 . S
C1203 C1204 1.415 . S
C1204 H1180 0.950 . S
C1204 C1199 1.363 . S
C1204 C1203 1.415 . S
C1205 H1181 0.951 . S
C1205 C1206 1.366 . S
C1205 C1207 1.388 . S
C1206 C1205 1.366 . S
C1206 C1210 1.385 . S
C1207 H1182 0.951 . S
C1207 C1205 1.388 . S
C1207 C1208 1.366 . S
C1208 C1207 1.366 . S
C1208 C1209 1.414 . S
C1208 C1211 1.499 . S
C1209 H1183 0.950 . S
C1209 C1208 1.414 . S
C1209 C1210 1.374 . S
C1210 H1184 0.950 . S
C1210 C1206 1.385 . S
C1210 C1209 1.374 . S
C1211 C1208 1.499 . S
C1211 C1212 1.373 . S
C1211 C1213 1.389 . S
C1212 H1185 0.950 . S
C1212 C1198 1.377 . S
C1212 C1211 1.373 . S
C1213 C1197 1.377 . S
C1213 C1211 1.389 . S
C1213 C1214 1.524 . S
C1214 C1213 1.524 . S
C1214 C1215 1.397 . S
C1214 C1219 1.363 . S
C1215 H1186 0.950 . S
C1215 C1214 1.397 . S
C1215 C1216 1.334 . S
C1216 H1187 0.950 . S
C1216 C1215 1.334 . S
C1216 C1217 1.287 . S
C1217 C1216 1.287 . S
C1217 C1218 1.524 . S
C1217 H1220 0.999 . S
C1218 H1188 0.950 . S
C1218 C1217 1.524 . S
C1218 C1219 1.415 . S
C1219 H1189 0.950 . S
C1219 C1214 1.363 . S
C1219 C1218 1.415 . S
H1220 C1217 0.999 . S
H1221 C1202 0.913 . S
H1222 C1240 0.951 . S
H1223 C1242 0.951 . S
H1224 C1244 0.950 . S
H1225 C1245 0.950 . S
H1226 C1247 0.950 . S
H1227 C1250 0.950 . S
H1228 C1251 0.950 . S
H1229 C1253 0.950 . S
H1230 C1254 0.950 . S
H1231 C1255 0.951 . S
H1232 C1257 0.951 . S
H1233 C1259 0.950 . S
H1234 C1260 0.950 . S
H1235 C1262 0.950 . S
H1236 C1265 0.950 . S
H1237 C1266 0.950 . S
H1238 C1268 0.950 . S
H1239 C1269 0.950 . S
C1240 H1222 0.951 . S
C1240 C1241 1.366 . S
C1240 C1242 1.388 . S
C1241 C1240 1.366 . S
C1241 C1245 1.385 . S
C1242 H1223 0.951 . S
C1242 C1240 1.388 . S
C1242 C1243 1.366 . S
C1243 C1242 1.366 . S
C1243 C1244 1.414 . S
C1243 C1246 1.499 . S
C1244 H1224 0.950 . S
C1244 C1243 1.414 . S
C1244 C1245 1.374 . S
C1245 H1225 0.950 . S
C1245 C1241 1.385 . S
C1245 C1244 1.374 . S
C1246 C1243 1.499 . S
C1246 C1247 1.373 1_554 S
C1246 C1248 1.389 . S
C1247 H1226 0.950 . S
C1247 C1246 1.373 1_556 S
C1247 C1263 1.377 . S
C1248 C1246 1.389 . S
C1248 C1249 1.524 . S
C1248 C1262 1.377 . S
C1249 C1248 1.524 . S
C1249 C1250 1.397 . S
C1249 C1254 1.363 . S
C1250 H1227 0.950 . S
C1250 C1249 1.397 . S
C1250 C1251 1.334 . S
C1251 H1228 0.950 . S
C1251 C1250 1.334 . S
C1251 C1252 1.287 . S
C1252 C1251 1.287 . S
C1252 C1253 1.524 . S
C1252 H1271 0.913 . S
C1253 H1229 0.950 . S
C1253 C1252 1.524 . S
C1253 C1254 1.415 . S
C1254 H1230 0.950 . S
C1254 C1249 1.363 . S
C1254 C1253 1.415 . S
C1255 H1231 0.951 . S
C1255 C1256 1.366 . S
C1255 C1257 1.388 . S
C1256 C1255 1.366 . S
C1256 C1260 1.385 . S
C1257 H1232 0.951 . S
C1257 C1255 1.388 . S
C1257 C1258 1.366 . S
C1258 C1257 1.366 . S
C1258 C1259 1.414 . S
C1258 C1261 1.499 . S
C1259 H1233 0.950 . S
C1259 C1258 1.414 . S
C1259 C1260 1.374 . S
C1260 H1234 0.950 . S
C1260 C1256 1.385 . S
C1260 C1259 1.374 . S
C1261 C1258 1.499 . S
C1261 C1262 1.373 1_556 S
C1261 C1263 1.389 . S
C1262 H1235 0.950 . S
C1262 C1248 1.377 . S
C1262 C1261 1.373 1_554 S
C1263 C1247 1.377 . S
C1263 C1261 1.389 . S
C1263 C1264 1.524 . S
C1264 C1263 1.524 . S
C1264 C1265 1.397 . S
C1264 C1269 1.363 . S
C1265 H1236 0.950 . S
C1265 C1264 1.397 . S
C1265 C1266 1.334 . S
C1266 H1237 0.950 . S
C1266 C1265 1.334 . S
C1266 C1267 1.287 . S
C1267 C1266 1.287 . S
C1267 C1268 1.524 . S
C1267 H1270 0.999 . S
C1268 H1238 0.950 . S
C1268 C1267 1.524 . S
C1268 C1269 1.415 . S
C1269 H1239 0.950 . S
C1269 C1264 1.363 . S
C1269 C1268 1.415 . S
H1270 C1267 0.999 . S
H1271 C1252 0.913 . S
C291 C190 1.605 . S
C306 C20 1.604 . S
C341 C224 1.604 . S
C356 C54 1.605 . S
C391 C88 1.609 . S
C406 C258 1.610 . S
C441 C156 1.609 . S
C456 C122 1.610 . S
C491 C9 0.760 . S
C506 C5 0.762 . S
C541 C39 0.760 . S
C556 C43 0.760 . S
C591 C77 0.764 1_554 S
C606 C73 0.764 . S
C641 C111 0.761 . S
C656 C107 0.762 . S
C691 C145 0.764 1_556 S
C706 C141 0.764 . S
C741 C179 0.760 . S
C756 C175 0.760 . S
C791 C213 0.760 . S
C806 C209 0.762 . S
C841 C243 0.762 . S
C856 C247 0.760 . S
C891 C33 1.268 . S
C906 C237 1.269 . S
C941 C271 1.270 . S
C956 C67 1.269 . S
C991 C169 1.279 . S
C1006 C101 1.279 . S
C1041 C135 1.271 . S
C1056 C203 1.269 . S
C1091 C2 1.784 . S
C1106 C138 1.784 . S
C1141 C36 1.778 . S
C1156 C172 1.778 . S
C1191 C70 1.784 . S
C1206 C206 1.784 . S
C1241 C240 1.790 . S
C1256 C104 1.790 . S
