# Generated by pormake.
# Topology wlm, (5)-cn, num edge types: 1
# Building blocks:
#     Node 0, Type 0, BuildingBlock: BEQFEK_clean_sbu_0, # of connection points: 5
#     Node 1, Type 0, BuildingBlock: BEQFEK_clean_sbu_0, # of connection points: 5
#     Node 2, Type 0, BuildingBlock: BEQFEK_clean_sbu_0, # of connection points: 5
#     Node 3, Type 0, BuildingBlock: BEQFEK_clean_sbu_0, # of connection points: 5
#     Node 4, Type 0, BuildingBlock: BEQFEK_clean_sbu_0, # of connection points: 5
#     Node 5, Type 0, BuildingBlock: BEQFEK_clean_sbu_0, # of connection points: 5
#     Node 6, Type 0, BuildingBlock: BEQFEK_clean_sbu_0, # of connection points: 5
#     Node 7, Type 0, BuildingBlock: BEQFEK_clean_sbu_0, # of connection points: 5
#     Node 8, Type 0, BuildingBlock: BEQFEK_clean_sbu_0, # of connection points: 5
#     Node 9, Type 0, BuildingBlock: BEQFEK_clean_sbu_0, # of connection points: 5
#     Node 10, Type 0, BuildingBlock: BEQFEK_clean_sbu_0, # of connection points: 5
#     Node 11, Type 0, BuildingBlock: BEQFEK_clean_sbu_0, # of connection points: 5
#     Node 12, Type 0, BuildingBlock: BEQFEK_clean_sbu_0, # of connection points: 5
#     Node 13, Type 0, BuildingBlock: BEQFEK_clean_sbu_0, # of connection points: 5
#     Node 14, Type 0, BuildingBlock: BEQFEK_clean_sbu_0, # of connection points: 5
#     Node 15, Type 0, BuildingBlock: BEQFEK_clean_sbu_0, # of connection points: 5
#     Node 16, Type 0, BuildingBlock: BEQFEK_clean_sbu_0, # of connection points: 5
#     Node 17, Type 0, BuildingBlock: BEQFEK_clean_sbu_0, # of connection points: 5
#     Node 18, Type 0, BuildingBlock: BEQFEK_clean_sbu_0, # of connection points: 5
#     Node 19, Type 0, BuildingBlock: BEQFEK_clean_sbu_0, # of connection points: 5
#     Node 20, Type 0, BuildingBlock: BEQFEK_clean_sbu_0, # of connection points: 5
#     Node 21, Type 0, BuildingBlock: BEQFEK_clean_sbu_0, # of connection points: 5
#     Node 22, Type 0, BuildingBlock: BEQFEK_clean_sbu_0, # of connection points: 5
#     Node 23, Type 0, BuildingBlock: BEQFEK_clean_sbu_0, # of connection points: 5
#     Node 24, Type 0, BuildingBlock: BEQFEK_clean_sbu_0, # of connection points: 5
#     Node 25, Type 0, BuildingBlock: BEQFEK_clean_sbu_0, # of connection points: 5
#     Node 26, Type 0, BuildingBlock: BEQFEK_clean_sbu_0, # of connection points: 5
#     Node 27, Type 0, BuildingBlock: BEQFEK_clean_sbu_0, # of connection points: 5
#     Node 28, Type 0, BuildingBlock: BEQFEK_clean_sbu_0, # of connection points: 5
#     Node 29, Type 0, BuildingBlock: BEQFEK_clean_sbu_0, # of connection points: 5
#     Node 30, Type 0, BuildingBlock: BEQFEK_clean_sbu_0, # of connection points: 5
#     Node 31, Type 0, BuildingBlock: BEQFEK_clean_sbu_0, # of connection points: 5
#     Node 32, Type 0, BuildingBlock: BEQFEK_clean_sbu_0, # of connection points: 5
#     Node 33, Type 0, BuildingBlock: BEQFEK_clean_sbu_0, # of connection points: 5
#     Node 34, Type 0, BuildingBlock: BEQFEK_clean_sbu_0, # of connection points: 5
#     Node 35, Type 0, BuildingBlock: BEQFEK_clean_sbu_0, # of connection points: 5
#     Edge 36, Type (0, 0), BuildingBlock: OJICUG_clean_linker_0, # of connection points: 2
#     Edge 37, Type (0, 0), BuildingBlock: OJICUG_clean_linker_0, # of connection points: 2
#     Edge 38, Type (0, 0), BuildingBlock: OJICUG_clean_linker_0, # of connection points: 2
#     Edge 39, Type (0, 0), BuildingBlock: OJICUG_clean_linker_0, # of connection points: 2
#     Edge 40, Type (0, 0), BuildingBlock: OJICUG_clean_linker_0, # of connection points: 2
#     Edge 41, Type (0, 0), BuildingBlock: OJICUG_clean_linker_0, # of connection points: 2
#     Edge 42, Type (0, 0), BuildingBlock: OJICUG_clean_linker_0, # of connection points: 2
#     Edge 43, Type (0, 0), BuildingBlock: OJICUG_clean_linker_0, # of connection points: 2
#     Edge 44, Type (0, 0), BuildingBlock: OJICUG_clean_linker_0, # of connection points: 2
#     Edge 45, Type (0, 0), BuildingBlock: OJICUG_clean_linker_0, # of connection points: 2
#     Edge 46, Type (0, 0), BuildingBlock: OJICUG_clean_linker_0, # of connection points: 2
#     Edge 47, Type (0, 0), BuildingBlock: OJICUG_clean_linker_0, # of connection points: 2
#     Edge 48, Type (0, 0), BuildingBlock: OJICUG_clean_linker_0, # of connection points: 2
#     Edge 49, Type (0, 0), BuildingBlock: OJICUG_clean_linker_0, # of connection points: 2
#     Edge 50, Type (0, 0), BuildingBlock: OJICUG_clean_linker_0, # of connection points: 2
#     Edge 51, Type (0, 0), BuildingBlock: OJICUG_clean_linker_0, # of connection points: 2
#     Edge 52, Type (0, 0), BuildingBlock: OJICUG_clean_linker_0, # of connection points: 2
#     Edge 53, Type (0, 0), BuildingBlock: OJICUG_clean_linker_0, # of connection points: 2
#     Edge 54, Type (0, 0), BuildingBlock: OJICUG_clean_linker_0, # of connection points: 2
#     Edge 55, Type (0, 0), BuildingBlock: OJICUG_clean_linker_0, # of connection points: 2
#     Edge 56, Type (0, 0), BuildingBlock: OJICUG_clean_linker_0, # of connection points: 2
#     Edge 57, Type (0, 0), BuildingBlock: OJICUG_clean_linker_0, # of connection points: 2
#     Edge 58, Type (0, 0), BuildingBlock: OJICUG_clean_linker_0, # of connection points: 2
#     Edge 59, Type (0, 0), BuildingBlock: OJICUG_clean_linker_0, # of connection points: 2
#     Edge 60, Type (0, 0), BuildingBlock: OJICUG_clean_linker_0, # of connection points: 2
#     Edge 61, Type (0, 0), BuildingBlock: OJICUG_clean_linker_0, # of connection points: 2
#     Edge 62, Type (0, 0), BuildingBlock: OJICUG_clean_linker_0, # of connection points: 2
#     Edge 63, Type (0, 0), BuildingBlock: OJICUG_clean_linker_0, # of connection points: 2
#     Edge 64, Type (0, 0), BuildingBlock: OJICUG_clean_linker_0, # of connection points: 2
#     Edge 65, Type (0, 0), BuildingBlock: OJICUG_clean_linker_0, # of connection points: 2
#     Edge 66, Type (0, 0), BuildingBlock: OJICUG_clean_linker_0, # of connection points: 2
#     Edge 67, Type (0, 0), BuildingBlock: OJICUG_clean_linker_0, # of connection points: 2
#     Edge 68, Type (0, 0), BuildingBlock: OJICUG_clean_linker_0, # of connection points: 2
#     Edge 69, Type (0, 0), BuildingBlock: OJICUG_clean_linker_0, # of connection points: 2
#     Edge 70, Type (0, 0), BuildingBlock: OJICUG_clean_linker_0, # of connection points: 2
#     Edge 71, Type (0, 0), BuildingBlock: OJICUG_clean_linker_0, # of connection points: 2
#     Edge 72, Type (0, 0), BuildingBlock: OJICUG_clean_linker_0, # of connection points: 2
#     Edge 73, Type (0, 0), BuildingBlock: OJICUG_clean_linker_0, # of connection points: 2
#     Edge 74, Type (0, 0), BuildingBlock: OJICUG_clean_linker_0, # of connection points: 2
#     Edge 75, Type (0, 0), BuildingBlock: OJICUG_clean_linker_0, # of connection points: 2
#     Edge 76, Type (0, 0), BuildingBlock: OJICUG_clean_linker_0, # of connection points: 2
#     Edge 77, Type (0, 0), BuildingBlock: OJICUG_clean_linker_0, # of connection points: 2
#     Edge 78, Type (0, 0), BuildingBlock: OJICUG_clean_linker_0, # of connection points: 2
#     Edge 79, Type (0, 0), BuildingBlock: OJICUG_clean_linker_0, # of connection points: 2
#     Edge 80, Type (0, 0), BuildingBlock: OJICUG_clean_linker_0, # of connection points: 2
#     Edge 81, Type (0, 0), BuildingBlock: OJICUG_clean_linker_0, # of connection points: 2
#     Edge 82, Type (0, 0), BuildingBlock: OJICUG_clean_linker_0, # of connection points: 2
#     Edge 83, Type (0, 0), BuildingBlock: OJICUG_clean_linker_0, # of connection points: 2
#     Edge 84, Type (0, 0), BuildingBlock: OJICUG_clean_linker_0, # of connection points: 2
#     Edge 85, Type (0, 0), BuildingBlock: OJICUG_clean_linker_0, # of connection points: 2
#     Edge 86, Type (0, 0), BuildingBlock: OJICUG_clean_linker_0, # of connection points: 2
#     Edge 87, Type (0, 0), BuildingBlock: OJICUG_clean_linker_0, # of connection points: 2
#     Edge 88, Type (0, 0), BuildingBlock: OJICUG_clean_linker_0, # of connection points: 2
#     Edge 89, Type (0, 0), BuildingBlock: OJICUG_clean_linker_0, # of connection points: 2
#     Edge 90, Type (0, 0), BuildingBlock: OJICUG_clean_linker_0, # of connection points: 2
#     Edge 91, Type (0, 0), BuildingBlock: OJICUG_clean_linker_0, # of connection points: 2
#     Edge 92, Type (0, 0), BuildingBlock: OJICUG_clean_linker_0, # of connection points: 2
#     Edge 93, Type (0, 0), BuildingBlock: OJICUG_clean_linker_0, # of connection points: 2
#     Edge 94, Type (0, 0), BuildingBlock: OJICUG_clean_linker_0, # of connection points: 2
#     Edge 95, Type (0, 0), BuildingBlock: OJICUG_clean_linker_0, # of connection points: 2
#     Edge 96, Type (0, 0), BuildingBlock: OJICUG_clean_linker_0, # of connection points: 2
#     Edge 97, Type (0, 0), BuildingBlock: OJICUG_clean_linker_0, # of connection points: 2
#     Edge 98, Type (0, 0), BuildingBlock: OJICUG_clean_linker_0, # of connection points: 2
#     Edge 99, Type (0, 0), BuildingBlock: OJICUG_clean_linker_0, # of connection points: 2
#     Edge 100, Type (0, 0), BuildingBlock: OJICUG_clean_linker_0, # of connection points: 2
#     Edge 101, Type (0, 0), BuildingBlock: OJICUG_clean_linker_0, # of connection points: 2
#     Edge 102, Type (0, 0), BuildingBlock: OJICUG_clean_linker_0, # of connection points: 2
#     Edge 103, Type (0, 0), BuildingBlock: OJICUG_clean_linker_0, # of connection points: 2
#     Edge 104, Type (0, 0), BuildingBlock: OJICUG_clean_linker_0, # of connection points: 2
#     Edge 105, Type (0, 0), BuildingBlock: OJICUG_clean_linker_0, # of connection points: 2
#     Edge 106, Type (0, 0), BuildingBlock: OJICUG_clean_linker_0, # of connection points: 2
#     Edge 107, Type (0, 0), BuildingBlock: OJICUG_clean_linker_0, # of connection points: 2
#     Edge 108, Type (0, 0), BuildingBlock: OJICUG_clean_linker_0, # of connection points: 2
#     Edge 109, Type (0, 0), BuildingBlock: OJICUG_clean_linker_0, # of connection points: 2
#     Edge 110, Type (0, 0), BuildingBlock: OJICUG_clean_linker_0, # of connection points: 2
#     Edge 111, Type (0, 0), BuildingBlock: OJICUG_clean_linker_0, # of connection points: 2
#     Edge 112, Type (0, 0), BuildingBlock: OJICUG_clean_linker_0, # of connection points: 2
#     Edge 113, Type (0, 0), BuildingBlock: OJICUG_clean_linker_0, # of connection points: 2
#     Edge 114, Type (0, 0), BuildingBlock: OJICUG_clean_linker_0, # of connection points: 2
#     Edge 115, Type (0, 0), BuildingBlock: OJICUG_clean_linker_0, # of connection points: 2
#     Edge 116, Type (0, 0), BuildingBlock: OJICUG_clean_linker_0, # of connection points: 2
#     Edge 117, Type (0, 0), BuildingBlock: OJICUG_clean_linker_0, # of connection points: 2
#     Edge 118, Type (0, 0), BuildingBlock: OJICUG_clean_linker_0, # of connection points: 2
#     Edge 119, Type (0, 0), BuildingBlock: OJICUG_clean_linker_0, # of connection points: 2
#     Edge 120, Type (0, 0), BuildingBlock: OJICUG_clean_linker_0, # of connection points: 2
#     Edge 121, Type (0, 0), BuildingBlock: OJICUG_clean_linker_0, # of connection points: 2
#     Edge 122, Type (0, 0), BuildingBlock: OJICUG_clean_linker_0, # of connection points: 2
#     Edge 123, Type (0, 0), BuildingBlock: OJICUG_clean_linker_0, # of connection points: 2
#     Edge 124, Type (0, 0), BuildingBlock: OJICUG_clean_linker_0, # of connection points: 2
#     Edge 125, Type (0, 0), BuildingBlock: OJICUG_clean_linker_0, # of connection points: 2
# Relax obj value: 0.060
# Max RMSD: 0.106
# Mean RMSD: 0.106
data_MOF--net-wlm--node1-BEQFEK_clean_sbu_0--edge1-OJICUG_clean_linker_0
_symmetry_space_group_name_H-M    P1
_symmetry_Int_Tables_number       1
_symmetry_cell_setting            triclinic
loop_
_symmetry_equiv_pos_as_xyz
'x, y, z'
_cell_length_a     95.522395
_cell_length_b     95.539709
_cell_length_c     15.33445
_cell_angle_alpha  89.981875
_cell_angle_beta   90.002372
_cell_angle_gamma 119.99713
loop_
_atom_site_label
_atom_site_type_symbol
_atom_site_fract_x
_atom_site_fract_y
_atom_site_fract_z
_atom_type_partial_charge
Co0 Co 0.14382 0.40083 0.34178 0.0
Co1 Co 0.1403 0.39191 0.14414 0.0
C2 C 0.17216 0.40511 0.23651 0.0
O3 O 0.16622 0.40653 0.30827 0.0
O4 O 0.16346 0.39961 0.16822 0.0
C5 C 0.15382 0.41007 0.52057 0.0
O6 O 0.16862 0.41474 0.49463 0.0
C7 C 0.1455 0.39393 0.9535 0.0
C8 C 0.12026 0.38258 0.90721 0.0
C9 C 0.13616 0.39085 0.8787 0.0
N10 N 0.13554 0.38836 0.02274 0.0
N11 N 0.12048 0.38124 0.99435 0.0
C12 C 0.1634 0.40105 0.95987 0.0
H13 H 0.1661 0.39428 0.00924 0.0
H14 H 0.16902 0.41384 0.98101 0.0
H15 H 0.16871 0.40028 0.89698 0.0
C16 C 0.12935 0.42047 0.28148 0.0
N17 N 0.13526 0.41047 0.26718 0.0
N18 N 0.13477 0.40751 0.18317 0.0
C19 C 0.12924 0.41616 0.14087 0.0
C20 C 0.12527 0.4244 0.20161 0.0
C21 C 0.1267 0.42519 0.37038 0.0
H22 H 0.12259 0.41483 0.41576 0.0
H23 H 0.13832 0.43522 0.3952 0.0
H24 H 0.11759 0.42915 0.3692 0.0
O25 O 0.13013 0.37729 0.34092 0.0
O26 O 0.12678 0.37043 0.20168 0.0
H27 H 0.11789 0.40757 0.01692 0.0
H28 H 0.12954 0.42922 0.02508 0.0
C29 C 0.12912 0.4178 0.0438 0.0
H30 H 0.13973 0.4178 0.01489 0.0
H31 H 0.11035 0.37614 0.03497 0.0
O32 O 0.14256 0.40562 0.46489 0.0
C33 C 0.1241 0.36658 0.28197 0.0
Co34 Co 0.59925 0.74298 0.33323 0.0
Co35 Co 0.60779 0.74846 0.13576 0.0
C36 C 0.59531 0.76747 0.23264 0.0
O37 O 0.59358 0.7598 0.3036 0.0
O38 O 0.60073 0.76427 0.16412 0.0
C39 C 0.58818 0.7414 0.51149 0.0
O40 O 0.58054 0.7489 0.48575 0.0
C41 C 0.60335 0.74994 0.94538 0.0
C42 C 0.6191 0.74084 0.89685 0.0
C43 C 0.60806 0.74534 0.86986 0.0
N44 N 0.61086 0.74767 0.01365 0.0
N45 N 0.62045 0.74251 0.98387 0.0
C46 C 0.59211 0.75653 0.95315 0.0
H47 H 0.57964 0.74643 0.96467 0.0
H48 H 0.59233 0.76312 0.89317 0.0
H49 H 0.59563 0.76494 0.00871 0.0
C50 C 0.57944 0.70895 0.27354 0.0
N51 N 0.58927 0.72486 0.25867 0.0
N52 N 0.59232 0.72726 0.17471 0.0
C53 C 0.58405 0.71298 0.13296 0.0
C54 C 0.5758 0.70084 0.19409 0.0
C55 C 0.57485 0.70171 0.36279 0.0
H56 H 0.5855 0.70757 0.40655 0.0
H57 H 0.5654 0.70402 0.38962 0.0
H58 H 0.57024 0.68851 0.36189 0.0
O59 O 0.6228 0.75275 0.3296 0.0
O60 O 0.62944 0.75612 0.19006 0.0
H61 H 0.59477 0.71228 0.01178 0.0
H62 H 0.57313 0.69912 0.01555 0.0
C63 C 0.58326 0.71104 0.03591 0.0
H64 H 0.58142 0.7205 0.00566 0.0
H65 H 0.62748 0.73955 0.02345 0.0
O66 O 0.59499 0.73693 0.45602 0.0
C67 C 0.63341 0.75729 0.27011 0.0
Co68 Co 0.25744 0.85595 0.33001 0.0
Co69 Co 0.25235 0.8608 0.13285 0.0
C70 C 0.23314 0.82855 0.22174 0.0
O71 O 0.24063 0.83396 0.2936 0.0
O72 O 0.23645 0.83766 0.15514 0.0
C73 C 0.25272 0.84635 0.50673 0.0
O74 O 0.23863 0.83527 0.47631 0.0
C75 C 0.25211 0.85512 0.94518 0.0
C76 C 0.25648 0.87836 0.89033 0.0
C77 C 0.25447 0.86343 0.86743 0.0
N78 N 0.25284 0.86475 0.01094 0.0
N79 N 0.25526 0.87856 0.97771 0.0
C80 C 0.25073 0.83895 0.95806 0.0
H81 H 0.2557 0.83842 0.02262 0.0
H82 H 0.25721 0.83645 0.90571 0.0
H83 H 0.23778 0.82947 0.95617 0.0
C84 C 0.29129 0.86957 0.26925 0.0
N85 N 0.27552 0.86428 0.25469 0.0
N86 N 0.2734 0.86614 0.17155 0.0
C87 C 0.2878 0.87257 0.13047 0.0
C88 C 0.29956 0.87487 0.19086 0.0
C89 C 0.29825 0.86985 0.35701 0.0
H90 H 0.29114 0.85782 0.38823 0.0
H91 H 0.31112 0.8731 0.35234 0.0
H92 H 0.29724 0.87877 0.39895 0.0
O93 O 0.24796 0.87015 0.33097 0.0
O94 O 0.24475 0.87435 0.19222 0.0
H95 H 0.30358 0.88437 0.02002 0.0
H96 H 0.28438 0.86686 0.99467 0.0
C97 C 0.29055 0.8777 0.03686 0.0
H98 H 0.28538 0.88559 0.02358 0.0
H99 H 0.25655 0.88828 0.0149 0.0
O100 O 0.26346 0.85594 0.45354 0.0
C101 C 0.24354 0.87665 0.27304 0.0
Co102 Co 0.40219 0.14567 0.65874 0.0
Co103 Co 0.39231 0.14057 0.85592 0.0
C104 C 0.40514 0.17289 0.76793 0.0
O105 O 0.40725 0.16762 0.69568 0.0
O106 O 0.39941 0.16367 0.83418 0.0
C107 C 0.40698 0.15527 0.48189 0.0
O108 O 0.40385 0.16628 0.51209 0.0
C109 C 0.3978 0.14624 0.04351 0.0
C110 C 0.37901 0.12297 0.09851 0.0
C111 C 0.39187 0.13794 0.1213 0.0
N112 N 0.38892 0.13656 0.9778 0.0
N113 N 0.37759 0.12274 0.01112 0.0
C114 C 0.41253 0.16244 0.03054 0.0
H115 H 0.41806 0.16299 0.96607 0.0
H116 H 0.42151 0.16502 0.083 0.0
H117 H 0.40898 0.17186 0.03217 0.0
C118 C 0.42239 0.13192 0.71813 0.0
N119 N 0.41201 0.13731 0.73342 0.0
N120 N 0.40806 0.13535 0.81658 0.0
C121 C 0.41595 0.12878 0.85698 0.0
C122 C 0.42532 0.12646 0.79608 0.0
C123 C 0.42893 0.13161 0.63001 0.0
H124 H 0.43391 0.14367 0.59899 0.0
H125 H 0.43848 0.12825 0.63407 0.0
H126 H 0.41891 0.12276 0.58826 0.0
O127 O 0.37852 0.13136 0.65785 0.0
O128 O 0.37118 0.12695 0.79669 0.0
H129 H 0.4004 0.11547 0.96294 0.0
H130 H 0.41987 0.11678 0.96672 0.0
C131 C 0.41347 0.12344 0.95025 0.0
H132 H 0.41804 0.13417 0.99315 0.0
H133 H 0.36917 0.113 0.974 0.0
O134 O 0.40822 0.14576 0.53523 0.0
C135 C 0.36764 0.12472 0.71588 0.0
Co136 Co 0.85625 0.25685 0.66249 0.0
Co137 Co 0.86085 0.25189 0.85982 0.0
C138 C 0.82865 0.23282 0.77207 0.0
O139 O 0.83414 0.24023 0.70007 0.0
O140 O 0.83773 0.2361 0.83869 0.0
C141 C 0.84734 0.25081 0.48717 0.0
O142 O 0.83786 0.23635 0.51965 0.0
C143 C 0.85533 0.2503 0.04884 0.0
C144 C 0.87979 0.2581 0.09992 0.0
C145 C 0.86422 0.25378 0.12525 0.0
N146 N 0.86525 0.25262 0.98137 0.0
N147 N 0.87979 0.25707 0.0124 0.0
C148 C 0.83824 0.24667 0.03904 0.0
H149 H 0.83676 0.25168 0.97673 0.0
H150 H 0.83469 0.25176 0.09414 0.0
H151 H 0.83011 0.23337 0.03809 0.0
C152 C 0.87114 0.29109 0.72128 0.0
N153 N 0.86511 0.27519 0.73645 0.0
N154 N 0.86636 0.27296 0.82012 0.0
C155 C 0.8728 0.28732 0.86131 0.0
C156 C 0.87626 0.29936 0.8001 0.0
C157 C 0.87308 0.2982 0.63208 0.0
H158 H 0.87671 0.29173 0.58536 0.0
H159 H 0.8613 0.29663 0.61037 0.0
H160 H 0.88226 0.31125 0.63134 0.0
O161 O 0.87022 0.24716 0.66132 0.0
O162 O 0.87424 0.24404 0.80045 0.0
H163 H 0.885 0.28776 0.97913 0.0
H164 H 0.87713 0.30148 0.97927 0.0
C165 C 0.87481 0.2894 0.95812 0.0
H166 H 0.86364 0.28021 0.99071 0.0
H167 H 0.88984 0.25991 0.97359 0.0
O168 O 0.85581 0.26241 0.53888 0.0
C169 C 0.8766 0.24273 0.71981 0.0
Co170 Co 0.74384 0.59919 0.65976 0.0
Co171 Co 0.74883 0.6089 0.85696 0.0
C172 C 0.76802 0.59587 0.76934 0.0
O173 O 0.76056 0.59384 0.6974 0.0
O174 O 0.76472 0.60168 0.83581 0.0
C175 C 0.74992 0.59639 0.48439 0.0
O176 O 0.7644 0.60147 0.51689 0.0
C177 C 0.75047 0.605 0.04604 0.0
C178 C 0.74259 0.62159 0.09714 0.0
C179 C 0.74697 0.61038 0.12247 0.0
N180 N 0.74812 0.61258 0.97856 0.0
N181 N 0.74362 0.62263 0.00961 0.0
C182 C 0.75415 0.59158 0.03623 0.0
H183 H 0.74916 0.58508 0.97389 0.0
H184 H 0.74906 0.58292 0.0913 0.0
H185 H 0.76745 0.59677 0.03532 0.0
C186 C 0.70963 0.57971 0.71907 0.0
N187 N 0.72552 0.58967 0.73398 0.0
N188 N 0.72777 0.59323 0.81756 0.0
C189 C 0.71342 0.58525 0.85896 0.0
C190 C 0.70138 0.57658 0.79798 0.0
C191 C 0.7025 0.57443 0.63003 0.0
H192 H 0.7089 0.58449 0.583 0.0
H193 H 0.70413 0.56424 0.60865 0.0
H194 H 0.68943 0.57048 0.62938 0.0
O195 O 0.75343 0.62282 0.65825 0.0
O196 O 0.75656 0.63009 0.79716 0.0
H197 H 0.71298 0.59708 0.97652 0.0
H198 H 0.69931 0.57549 0.97716 0.0
C199 C 0.71136 0.58524 0.95577 0.0
H200 H 0.72058 0.58331 0.98839 0.0
H201 H 0.74075 0.62982 0.97081 0.0
O202 O 0.73828 0.59315 0.53612 0.0
C203 C 0.75783 0.63368 0.7164 0.0
Co204 Co 0.85572 0.59891 0.66178 0.0
Co205 Co 0.86027 0.60846 0.8591 0.0
C206 C 0.82817 0.59564 0.77081 0.0
O207 O 0.83367 0.59365 0.69903 0.0
O208 O 0.8372 0.60135 0.83766 0.0
C209 C 0.84682 0.59608 0.48653 0.0
O210 O 0.83744 0.60119 0.51906 0.0
C211 C 0.85473 0.60458 0.04813 0.0
C212 C 0.87924 0.62106 0.09912 0.0
C213 C 0.86364 0.60993 0.12451 0.0
N214 N 0.86467 0.61212 0.98062 0.0
N215 N 0.87925 0.62211 0.0116 0.0
C216 C 0.83759 0.59124 0.03837 0.0
H217 H 0.83605 0.58472 0.97608 0.0
H218 H 0.83397 0.58259 0.0935 0.0
H219 H 0.82955 0.59652 0.03736 0.0
C220 C 0.87034 0.57932 0.72114 0.0
N221 N 0.86441 0.58928 0.73604 0.0
N222 N 0.86562 0.59276 0.81971 0.0
C223 C 0.87193 0.58473 0.86115 0.0
C224 C 0.87535 0.5761 0.80013 0.0
C225 C 0.8723 0.57414 0.63205 0.0
H226 H 0.87596 0.58423 0.58523 0.0
H227 H 0.86052 0.56393 0.61031 0.0
H228 H 0.88147 0.57026 0.63154 0.0
O229 O 0.86986 0.62253 0.66055 0.0
O230 O 0.87383 0.62966 0.79968 0.0
H231 H 0.88411 0.5964 0.97915 0.0
H232 H 0.87607 0.5748 0.97931 0.0
C233 C 0.87386 0.58462 0.95801 0.0
H234 H 0.86271 0.58274 0.99034 0.0
H235 H 0.88931 0.62925 0.97275 0.0
O236 O 0.85523 0.59286 0.5382 0.0
C237 C 0.87626 0.63333 0.71905 0.0
Co238 Co 0.40124 0.25704 0.66126 0.0
Co239 Co 0.3915 0.25189 0.8585 0.0
C240 C 0.40469 0.2329 0.77044 0.0
O241 O 0.40669 0.2404 0.6987 0.0
O242 O 0.39883 0.23609 0.83709 0.0
C243 C 0.40422 0.25107 0.48592 0.0
O244 O 0.39933 0.23663 0.51846 0.0
C245 C 0.39544 0.25026 0.04754 0.0
C246 C 0.37872 0.25795 0.09878 0.0
C247 C 0.39003 0.25371 0.12402 0.0
N248 N 0.38779 0.25252 0.98012 0.0
N249 N 0.37765 0.25691 0.01127 0.0
C250 C 0.40896 0.24672 0.03756 0.0
H251 H 0.41542 0.25174 0.97514 0.0
H252 H 0.41764 0.25188 0.09252 0.0
H253 H 0.40387 0.23344 0.0367 0.0
C254 C 0.42063 0.29121 0.72106 0.0
N255 N 0.41068 0.27531 0.73573 0.0
N256 N 0.40711 0.273 0.8193 0.0
C257 C 0.41505 0.28733 0.86089 0.0
C258 C 0.42373 0.2994 0.80008 0.0
C259 C 0.42595 0.29839 0.63213 0.0
H260 H 0.41592 0.29201 0.58495 0.0
H261 H 0.43616 0.29678 0.61082 0.0
H262 H 0.42988 0.31145 0.63165 0.0
O263 O 0.3776 0.24735 0.65979 0.0
O264 O 0.3703 0.24408 0.79869 0.0
H265 H 0.40316 0.28759 0.97859 0.0
H266 H 0.42472 0.3014 0.97928 0.0
C267 C 0.41504 0.28933 0.95774 0.0
H268 H 0.41707 0.28015 0.99016 0.0
H269 H 0.3704 0.2597 0.97253 0.0
O270 O 0.40728 0.26266 0.5376 0.0
C271 C 0.36672 0.24284 0.71792 0.0
Co272 Co 0.74372 0.14537 0.66472 0.0
Co273 Co 0.74886 0.14078 0.862 0.0
C274 C 0.76811 0.17288 0.77357 0.0
O275 O 0.76057 0.1674 0.70189 0.0
O276 O 0.76481 0.16383 0.84035 0.0
C277 C 0.74983 0.15418 0.48951 0.0
O278 O 0.76432 0.16346 0.52224 0.0
C279 C 0.75063 0.14631 0.05114 0.0
C280 C 0.74259 0.12179 0.10203 0.0
C281 C 0.74705 0.13738 0.1275 0.0
N282 N 0.7482 0.13638 0.98357 0.0
N283 N 0.74362 0.1218 0.01451 0.0
C284 C 0.75442 0.16345 0.04146 0.0
H285 H 0.74947 0.16502 0.97911 0.0
H286 H 0.74936 0.16705 0.09654 0.0
H287 H 0.76773 0.17149 0.04066 0.0
C288 C 0.70955 0.13078 0.72506 0.0
N289 N 0.72546 0.13669 0.73946 0.0
N290 N 0.7278 0.13548 0.82305 0.0
C291 C 0.7135 0.1292 0.86491 0.0
C292 C 0.7014 0.12578 0.80429 0.0
C293 C 0.70232 0.12884 0.63623 0.0
H294 H 0.70875 0.12528 0.58893 0.0
H295 H 0.70378 0.1406 0.61494 0.0
H296 H 0.68928 0.11962 0.636 0.0
O297 O 0.75319 0.13123 0.66312 0.0
O298 O 0.75643 0.12722 0.80211 0.0
H299 H 0.71311 0.11706 0.98295 0.0
H300 H 0.69955 0.12512 0.9835 0.0
C301 C 0.71155 0.1273 0.96183 0.0
H302 H 0.72085 0.13847 0.99388 0.0
H303 H 0.74067 0.11174 0.97561 0.0
O304 O 0.73814 0.14585 0.54107 0.0
C305 C 0.75762 0.12481 0.72141 0.0
Co306 Co 0.59856 0.85513 0.34861 0.0
Co307 Co 0.60804 0.85996 0.1512 0.0
C308 C 0.59528 0.82773 0.24017 0.0
O309 O 0.59336 0.83308 0.31261 0.0
O310 O 0.60086 0.83687 0.17358 0.0
C311 C 0.59322 0.84532 0.52553 0.0
O312 O 0.59571 0.83386 0.49566 0.0
C313 C 0.60232 0.85425 0.96389 0.0
C314 C 0.62135 0.87736 0.90856 0.0
C315 C 0.60831 0.86249 0.88603 0.0
N316 N 0.61134 0.86387 0.0294 0.0
N317 N 0.6228 0.87759 0.9959 0.0
C318 C 0.58745 0.83816 0.97713 0.0
H319 H 0.58206 0.83768 0.04197 0.0
H320 H 0.57843 0.83575 0.92515 0.0
H321 H 0.59079 0.82859 0.97481 0.0
C322 C 0.57812 0.8687 0.28962 0.0
N323 N 0.58857 0.8634 0.2742 0.0
N324 N 0.59244 0.86532 0.19095 0.0
C325 C 0.58448 0.87182 0.15064 0.0
C326 C 0.57509 0.8741 0.21167 0.0
C327 C 0.57151 0.86887 0.37775 0.0
H328 H 0.56689 0.8569 0.40922 0.0
H329 H 0.56167 0.87182 0.37361 0.0
H330 H 0.58141 0.87798 0.41916 0.0
O331 O 0.62231 0.86941 0.34839 0.0
O332 O 0.62926 0.87353 0.20898 0.0
H333 H 0.5809 0.88419 0.04146 0.0
H334 H 0.58205 0.86644 0.0144 0.0
C335 C 0.58696 0.87719 0.05739 0.0
H336 H 0.60006 0.88485 0.04418 0.0
H337 H 0.63135 0.88728 0.03289 0.0
O338 O 0.59264 0.85519 0.47207 0.0
C339 C 0.63304 0.87589 0.28941 0.0
Co340 Co 0.14601 0.74379 0.33424 0.0
Co341 Co 0.14076 0.74847 0.1371 0.0
C342 C 0.17312 0.76808 0.22447 0.0
O343 O 0.16791 0.7607 0.29681 0.0
O344 O 0.16386 0.76456 0.15842 0.0
C345 C 0.15555 0.74874 0.51109 0.0
O346 O 0.1664 0.76295 0.48079 0.0
C347 C 0.14642 0.7487 0.94947 0.0
C348 C 0.12306 0.74399 0.8946 0.0
C349 C 0.13809 0.74626 0.87172 0.0
N350 N 0.1367 0.7478 0.01524 0.0
N351 N 0.12282 0.74516 0.982 0.0
C352 C 0.1627 0.75035 0.96232 0.0
H353 H 0.16329 0.74533 0.02662 0.0
H354 H 0.16539 0.74408 0.90963 0.0
H355 H 0.17202 0.76336 0.96105 0.0
C356 C 0.13228 0.70984 0.27534 0.0
N357 N 0.13765 0.7256 0.25982 0.0
N358 N 0.13565 0.72755 0.17667 0.0
C359 C 0.12908 0.71307 0.13649 0.0
C360 C 0.1268 0.70141 0.19755 0.0
C361 C 0.13196 0.70302 0.36359 0.0
H362 H 0.12318 0.70429 0.4054 0.0
H363 H 0.14405 0.71005 0.39438 0.0
H364 H 0.12852 0.69009 0.35979 0.0
O365 O 0.13166 0.75309 0.33529 0.0
O366 O 0.12712 0.75594 0.19655 0.0
H367 H 0.11559 0.71511 0.03082 0.0
H368 H 0.11719 0.6971 0.02683 0.0
C369 C 0.12371 0.71015 0.0433 0.0
H370 H 0.13441 0.71645 0.00025 0.0
H371 H 0.11304 0.74373 0.01919 0.0
O372 O 0.14617 0.73789 0.4578 0.0
C373 C 0.12495 0.75728 0.27742 0.0
Co374 Co 0.25693 0.40194 0.34307 0.0
Co375 Co 0.25186 0.3931 0.14533 0.0
C376 C 0.23273 0.40578 0.2357 0.0
O377 O 0.24014 0.40732 0.30727 0.0
O378 O 0.23606 0.40037 0.16758 0.0
C379 C 0.25094 0.40494 0.51791 0.0
O380 O 0.23648 0.39995 0.48532 0.0
C381 C 0.25023 0.39696 0.95634 0.0
C382 C 0.25828 0.38044 0.9061 0.0
C383 C 0.25384 0.39157 0.88031 0.0
N384 N 0.25261 0.38947 0.02409 0.0
N385 N 0.25721 0.37945 0.99358 0.0
C386 C 0.2464 0.41028 0.96558 0.0
H387 H 0.25125 0.41678 0.02804 0.0
H388 H 0.25152 0.41895 0.91056 0.0
H389 H 0.23308 0.40499 0.96582 0.0
C390 C 0.2912 0.42142 0.2839 0.0
N391 N 0.27526 0.41171 0.26889 0.0
N392 N 0.27294 0.40856 0.18494 0.0
C393 C 0.28727 0.41658 0.14344 0.0
C394 C 0.29938 0.42482 0.20466 0.0
C395 C 0.29841 0.42615 0.37311 0.0
H396 H 0.29176 0.41597 0.41911 0.0
H397 H 0.29723 0.43651 0.39627 0.0
H398 H 0.31137 0.42967 0.37308 0.0
O399 O 0.24741 0.37829 0.34309 0.0
O400 O 0.24407 0.37178 0.2031 0.0
H401 H 0.28776 0.40534 0.02372 0.0
H402 H 0.30127 0.42695 0.0256 0.0
C403 C 0.28925 0.41703 0.04644 0.0
H404 H 0.27994 0.41899 0.01517 0.0
H405 H 0.26012 0.37234 0.03275 0.0
O406 O 0.26253 0.40793 0.46642 0.0
C407 C 0.24289 0.36775 0.28308 0.0
Co408 Co 0.812 0.73519 0.66268 0.0
Co409 Co 0.8072 0.72523 0.46552 0.0
C410 C 0.83942 0.73824 0.5547 0.0
O411 O 0.83399 0.74033 0.62648 0.0
O412 O 0.83033 0.73245 0.48806 0.0
C413 C 0.82171 0.74036 0.83946 0.0
O414 O 0.833 0.73766 0.80918 0.0
C415 C 0.81292 0.73076 0.27792 0.0
C416 C 0.78978 0.71174 0.22285 0.0
C417 C 0.80465 0.72477 0.20008 0.0
N418 N 0.80331 0.72176 0.34358 0.0
N419 N 0.78958 0.71029 0.31021 0.0
C420 C 0.82898 0.74566 0.29101 0.0
H421 H 0.82946 0.75105 0.35583 0.0
H422 H 0.83136 0.75467 0.23902 0.0
H423 H 0.83859 0.74236 0.28862 0.0
C424 C 0.79828 0.75531 0.6015 0.0
N425 N 0.80367 0.74492 0.58708 0.0
N426 N 0.80183 0.74092 0.50398 0.0
C427 C 0.79531 0.7488 0.4628 0.0
C428 C 0.79293 0.75821 0.52307 0.0
C429 C 0.79787 0.76192 0.68925 0.0
H430 H 0.80989 0.76692 0.72071 0.0
H431 H 0.79451 0.77147 0.68449 0.0
H432 H 0.78896 0.75194 0.73102 0.0
O433 O 0.79779 0.71152 0.66377 0.0
O434 O 0.79363 0.7041 0.52503 0.0
H435 H 0.78232 0.73321 0.35633 0.0
H436 H 0.78329 0.75253 0.35255 0.0
C437 C 0.7901 0.7463 0.36932 0.0
H438 H 0.80091 0.75106 0.32686 0.0
H439 H 0.77989 0.70177 0.34729 0.0
O440 O 0.81197 0.74124 0.78619 0.0
C441 C 0.7913 0.7006 0.60587 0.0
Co442 Co 0.26618 0.07675 0.66368 0.0
Co443 Co 0.27579 0.08172 0.46637 0.0
C444 C 0.26274 0.10086 0.55407 0.0
O445 O 0.26077 0.09341 0.626 0.0
O446 O 0.26854 0.09758 0.48745 0.0
C447 C 0.26338 0.08284 0.83899 0.0
O448 O 0.26846 0.09731 0.80644 0.0
C449 C 0.2719 0.08335 0.27734 0.0
C450 C 0.28845 0.07541 0.2263 0.0
C451 C 0.27727 0.07982 0.20094 0.0
N452 N 0.27946 0.08098 0.34483 0.0
N453 N 0.28949 0.07644 0.31382 0.0
C454 C 0.25851 0.08708 0.28712 0.0
H455 H 0.25197 0.08204 0.34929 0.0
H456 H 0.24989 0.08207 0.23187 0.0
H457 H 0.26375 0.10039 0.2884 0.0
C458 C 0.24669 0.04254 0.60475 0.0
N459 N 0.25666 0.05843 0.58967 0.0
N460 N 0.26017 0.06066 0.50602 0.0
C461 C 0.25215 0.0463 0.46476 0.0
C462 C 0.2435 0.03428 0.52589 0.0
C463 C 0.24145 0.03544 0.69389 0.0
H464 H 0.25153 0.04185 0.74076 0.0
H465 H 0.23127 0.03708 0.71541 0.0
H466 H 0.2375 0.02237 0.69463 0.0
O467 O 0.28982 0.08639 0.66494 0.0
O468 O 0.29702 0.08953 0.52589 0.0
H469 H 0.26387 0.04581 0.3469 0.0
H470 H 0.24227 0.03219 0.34672 0.0
C471 C 0.25207 0.04424 0.36793 0.0
H472 H 0.25016 0.05348 0.33541 0.0
H473 H 0.29666 0.07355 0.35266 0.0
O474 O 0.26016 0.0712 0.78731 0.0
C475 C 0.30066 0.09083 0.60657 0.0
Co476 Co 0.9235 0.18807 0.66901 0.0
Co477 Co 0.91867 0.19304 0.47177 0.0
C478 C 0.89919 0.16079 0.56024 0.0
O479 O 0.9066 0.16612 0.63237 0.0
O480 O 0.90265 0.16995 0.49375 0.0
C481 C 0.91867 0.17848 0.84574 0.0
O482 O 0.90453 0.1675 0.81543 0.0
C483 C 0.91844 0.18738 0.28414 0.0
C484 C 0.92304 0.2107 0.22934 0.0
C485 C 0.92086 0.19571 0.20643 0.0
N486 N 0.91928 0.19706 0.34993 0.0
N487 N 0.92185 0.21091 0.31673 0.0
C488 C 0.91688 0.17113 0.29696 0.0
H489 H 0.92184 0.17054 0.36143 0.0
H490 H 0.92325 0.16852 0.24448 0.0
H491 H 0.90389 0.16176 0.29526 0.0
C492 C 0.95741 0.20162 0.60932 0.0
N493 N 0.94166 0.19634 0.59421 0.0
N494 N 0.93964 0.19824 0.51101 0.0
C495 C 0.95408 0.20467 0.4704 0.0
C496 C 0.96577 0.20694 0.5312 0.0
C497 C 0.96427 0.20189 0.69737 0.0
H498 H 0.95715 0.18985 0.72845 0.0
H499 H 0.97716 0.20518 0.69319 0.0
H500 H 0.96318 0.21079 0.73914 0.0
O501 O 0.91416 0.20239 0.66976 0.0
O502 O 0.91117 0.20668 0.53083 0.0
H503 H 0.95189 0.21788 0.36375 0.0
H504 H 0.96998 0.21644 0.36026 0.0
C505 C 0.95693 0.20987 0.3769 0.0
H506 H 0.95069 0.19908 0.33445 0.0
H507 H 0.92323 0.22067 0.35394 0.0
O508 O 0.92945 0.18798 0.7925 0.0
C509 C 0.90988 0.20897 0.61157 0.0
Co510 Co 0.06901 0.47899 0.99622 0.0
Co511 Co 0.05906 0.47387 0.19332 0.0
C512 C 0.07174 0.50615 0.10493 0.0
O513 O 0.07392 0.50089 0.03281 0.0
O514 O 0.06603 0.49695 0.17126 0.0
C515 C 0.07391 0.48863 0.81927 0.0
O516 O 0.07089 0.49972 0.84941 0.0
C517 C 0.0646 0.47958 0.38085 0.0
C518 C 0.04572 0.45639 0.43609 0.0
C519 C 0.05866 0.47132 0.45874 0.0
N520 N 0.05566 0.46992 0.31525 0.0
N521 N 0.04428 0.45614 0.34872 0.0
C522 C 0.07939 0.49574 0.3677 0.0
H523 H 0.08485 0.49625 0.30303 0.0
H524 H 0.08839 0.49825 0.41991 0.0
H525 H 0.07592 0.50522 0.36964 0.0
C526 C 0.08952 0.46563 0.0564 0.0
N527 N 0.07896 0.47081 0.07127 0.0
N528 N 0.07491 0.46877 0.1543 0.0
C529 C 0.08288 0.4623 0.19499 0.0
C530 C 0.09245 0.46018 0.13447 0.0
C531 C 0.09629 0.46556 0.96859 0.0
H532 H 0.1008 0.47751 0.93703 0.0
H533 H 0.10624 0.46277 0.97328 0.0
H534 H 0.0865 0.45637 0.92696 0.0
O535 O 0.04535 0.46455 0.99534 0.0
O536 O 0.03795 0.46015 0.13408 0.0
H537 H 0.06712 0.44902 0.30032 0.0
H538 H 0.08637 0.44988 0.3042 0.0
C539 C 0.08023 0.4568 0.288 0.0
H540 H 0.08495 0.46748 0.33143 0.0
H541 H 0.03581 0.44641 0.3117 0.0
O542 O 0.07505 0.47907 0.87265 0.0
C543 C 0.03445 0.45788 0.05324 0.0
Co544 Co 0.5221 0.58971 0.99543 0.0
Co545 Co 0.52737 0.58513 0.19258 0.0
C546 C 0.49499 0.56549 0.10536 0.0
O547 O 0.50021 0.57283 0.03292 0.0
O548 O 0.50426 0.56903 0.17141 0.0
C549 C 0.51254 0.58476 0.81854 0.0
O550 O 0.50166 0.57056 0.84874 0.0
C551 C 0.52171 0.58495 0.38016 0.0
C552 C 0.54508 0.58969 0.43508 0.0
C553 C 0.53004 0.5874 0.45792 0.0
N554 N 0.53144 0.58586 0.31442 0.0
N555 N 0.54532 0.58853 0.34768 0.0
C556 C 0.50541 0.58325 0.36729 0.0
H557 H 0.50482 0.58828 0.30301 0.0
H558 H 0.50269 0.5895 0.42 0.0
H559 H 0.49612 0.57024 0.36847 0.0
C560 C 0.53557 0.62364 0.05393 0.0
N561 N 0.5304 0.60793 0.06957 0.0
N562 N 0.53245 0.60603 0.15273 0.0
C563 C 0.53888 0.62052 0.1928 0.0
C564 C 0.54101 0.63211 0.13163 0.0
C565 C 0.53562 0.63036 0.96576 0.0
H566 H 0.54455 0.62938 0.92369 0.0
H567 H 0.52355 0.62307 0.93522 0.0
H568 H 0.53873 0.64319 0.96962 0.0
O569 O 0.53649 0.58045 0.99467 0.0
O570 O 0.54103 0.57764 0.13345 0.0
H571 H 0.55229 0.6185 0.29897 0.0
H572 H 0.55079 0.63655 0.3022 0.0
C573 C 0.54422 0.62349 0.28604 0.0
H574 H 0.5335 0.61726 0.32901 0.0
H575 H 0.55511 0.58997 0.31053 0.0
O576 O 0.52194 0.59558 0.87187 0.0
C577 C 0.54321 0.57629 0.05263 0.0
Co578 Co 0.41074 0.93192 0.9873 0.0
Co579 Co 0.41568 0.94133 0.18474 0.0
C580 C 0.43497 0.92854 0.09624 0.0
O581 O 0.42758 0.92667 0.02421 0.0
O582 O 0.43156 0.93415 0.16318 0.0
C583 C 0.41677 0.92906 0.81209 0.0
O584 O 0.43125 0.93412 0.84454 0.0
C585 C 0.4173 0.93745 0.3738 0.0
C586 C 0.40944 0.95408 0.42458 0.0
C587 C 0.4138 0.94287 0.45009 0.0
N588 N 0.41496 0.94501 0.30621 0.0
N589 N 0.41048 0.95509 0.33706 0.0
C590 C 0.42097 0.92402 0.36427 0.0
H591 H 0.41614 0.91761 0.30156 0.0
H592 H 0.41572 0.91529 0.41898 0.0
H593 H 0.43427 0.92919 0.36451 0.0
C594 C 0.37646 0.9125 0.04653 0.0
N595 N 0.39239 0.92229 0.06154 0.0
N596 N 0.39465 0.92571 0.14526 0.0
C597 C 0.3803 0.9178 0.18662 0.0
C598 C 0.36823 0.90933 0.12552 0.0
C599 C 0.3693 0.90747 0.95737 0.0
H600 H 0.37583 0.91759 0.91084 0.0
H601 H 0.37073 0.8972 0.93517 0.0
H602 H 0.35628 0.90373 0.95696 0.0
O603 O 0.42023 0.95556 0.98621 0.0
O604 O 0.42336 0.96253 0.12558 0.0
H605 H 0.37987 0.92949 0.30474 0.0
H606 H 0.3662 0.9079 0.30468 0.0
C607 C 0.37826 0.91768 0.28349 0.0
H608 H 0.38747 0.9157 0.3158 0.0
H609 H 0.40762 0.96227 0.29812 0.0
O610 O 0.40515 0.92589 0.86379 0.0
C611 C 0.42462 0.96629 0.04509 0.0
Co612 Co 0.52422 0.9336 0.00069 0.0
Co613 Co 0.52727 0.94249 0.19826 0.0
C614 C 0.49565 0.9294 0.10329 0.0
O615 O 0.50178 0.92796 0.03226 0.0
O616 O 0.50417 0.93485 0.17225 0.0
C617 C 0.51436 0.92384 0.82212 0.0
O618 O 0.49942 0.91837 0.84817 0.0
C619 C 0.52188 0.94 0.38905 0.0
C620 C 0.54716 0.95244 0.43544 0.0
C621 C 0.5313 0.94349 0.46388 0.0
N622 N 0.53181 0.94603 0.31986 0.0
N623 N 0.54687 0.95376 0.34834 0.0
C624 C 0.50388 0.93185 0.38257 0.0
H625 H 0.50058 0.93798 0.3323 0.0
H626 H 0.499 0.91907 0.36276 0.0
H627 H 0.49836 0.93239 0.44515 0.0
C628 C 0.53843 0.91385 0.06281 0.0
N629 N 0.53254 0.92388 0.07627 0.0
N630 N 0.53292 0.92689 0.16017 0.0
C631 C 0.53841 0.91827 0.20321 0.0
C632 C 0.54241 0.90997 0.14311 0.0
C633 C 0.54116 0.90905 0.97431 0.0
H634 H 0.54534 0.91938 0.92864 0.0
H635 H 0.52957 0.89902 0.94933 0.0
H636 H 0.55026 0.90508 0.97621 0.0
O637 O 0.53795 0.95713 0.00225 0.0
O638 O 0.54094 0.96402 0.14139 0.0
H639 H 0.54952 0.92731 0.32719 0.0
H640 H 0.53848 0.9056 0.32001 0.0
C641 C 0.53851 0.9168 0.30038 0.0
H642 H 0.52767 0.91644 0.32853 0.0
H643 H 0.55699 0.95931 0.30778 0.0
O644 O 0.5257 0.92891 0.87768 0.0
C645 C 0.54383 0.96785 0.06119 0.0
Co646 Co 0.06787 0.59033 0.99688 0.0
Co647 Co 0.0582 0.58532 0.19416 0.0
C648 C 0.07117 0.56612 0.10635 0.0
O649 O 0.07318 0.5736 0.0345 0.0
O650 O 0.06537 0.56939 0.17299 0.0
C651 C 0.07064 0.58422 0.8216 0.0
O652 O 0.06551 0.56974 0.8542 0.0
C653 C 0.06206 0.58364 0.38323 0.0
C654 C 0.04558 0.59167 0.43427 0.0
C655 C 0.05672 0.58721 0.45964 0.0
N656 N 0.05452 0.58605 0.31573 0.0
N657 N 0.04454 0.59064 0.34675 0.0
C658 C 0.0754 0.57984 0.37344 0.0
H659 H 0.08195 0.58486 0.31125 0.0
H660 H 0.08403 0.58483 0.42866 0.0
H661 H 0.07012 0.56653 0.37219 0.0
C662 C 0.08749 0.62449 0.05621 0.0
N663 N 0.07744 0.60862 0.07109 0.0
N664 N 0.07391 0.60637 0.15471 0.0
C665 C 0.08198 0.6207 0.19615 0.0
C666 C 0.09071 0.63272 0.13517 0.0
C667 C 0.09282 0.63162 0.96718 0.0
H668 H 0.08275 0.62527 0.92014 0.0
H669 H 0.10297 0.62992 0.9458 0.0
H670 H 0.09683 0.6447 0.96657 0.0
O671 O 0.04425 0.5808 0.9955 0.0
O672 O 0.037 0.57762 0.13448 0.0
H673 H 0.07027 0.6212 0.31403 0.0
H674 H 0.09188 0.63475 0.31435 0.0
C675 C 0.08206 0.62274 0.293 0.0
H676 H 0.08393 0.61346 0.3254 0.0
H677 H 0.0374 0.59358 0.30792 0.0
O678 O 0.07392 0.59588 0.87324 0.0
C679 C 0.0334 0.57638 0.05376 0.0
Co680 Co 0.41018 0.47807 0.00031 0.0
Co681 Co 0.41522 0.47311 0.19743 0.0
C682 C 0.43463 0.50535 0.10859 0.0
O683 O 0.42711 0.49999 0.03676 0.0
O684 O 0.43126 0.49621 0.17513 0.0
C685 C 0.41494 0.48767 0.82353 0.0
O686 O 0.42905 0.49871 0.8539 0.0
C687 C 0.41548 0.47881 0.38508 0.0
C688 C 0.41104 0.45556 0.44006 0.0
C689 C 0.4131 0.4705 0.46288 0.0
N690 N 0.41472 0.46915 0.31937 0.0
N691 N 0.41226 0.45534 0.35268 0.0
C692 C 0.4169 0.49499 0.37209 0.0
H693 H 0.41195 0.49554 0.30748 0.0
H694 H 0.41043 0.49752 0.42438 0.0
H695 H 0.42986 0.50445 0.37401 0.0
C696 C 0.37635 0.4646 0.06112 0.0
N697 N 0.39211 0.46983 0.07568 0.0
N698 N 0.3942 0.4679 0.15875 0.0
C699 C 0.3798 0.46149 0.1998 0.0
C700 C 0.36806 0.45927 0.13944 0.0
C701 C 0.36942 0.46442 0.9734 0.0
H702 H 0.37667 0.47642 0.94205 0.0
H703 H 0.35661 0.46136 0.97817 0.0
H704 H 0.37026 0.45539 0.93151 0.0
O705 O 0.41951 0.46375 -0.00074 0.0
O706 O 0.42268 0.45945 0.13792 0.0
H707 H 0.38222 0.44836 0.30618 0.0
H708 H 0.36399 0.44954 0.30995 0.0
C709 C 0.37703 0.45625 0.29324 0.0
H710 H 0.38316 0.46704 0.33579 0.0
H711 H 0.41095 0.44561 0.31556 0.0
O712 O 0.40417 0.47813 0.87676 0.0
C713 C 0.42386 0.45717 0.05703 0.0
Co714 Co 0.26522 0.18816 0.66347 0.0
Co715 Co 0.27526 0.19318 0.46639 0.0
C716 C 0.26232 0.16089 0.55491 0.0
O717 O 0.26016 0.1662 0.62692 0.0
O718 O 0.26811 0.17007 0.48858 0.0
C719 C 0.26034 0.17856 0.84033 0.0
O720 O 0.26335 0.16748 0.81003 0.0
C721 C 0.26978 0.18749 0.27875 0.0
C722 C 0.28872 0.21068 0.22368 0.0
C723 C 0.27575 0.19577 0.20091 0.0
N724 N 0.27872 0.19713 0.34443 0.0
N725 N 0.29014 0.21089 0.31106 0.0
C726 C 0.25494 0.17137 0.29178 0.0
H727 H 0.24949 0.17087 0.35644 0.0
H728 H 0.24595 0.16891 0.23956 0.0
H729 H 0.25835 0.16184 0.28975 0.0
C730 C 0.24507 0.2019 0.60278 0.0
N731 N 0.25547 0.19652 0.58813 0.0
N732 N 0.25951 0.19846 0.50508 0.0
C733 C 0.25166 0.20502 0.46414 0.0
C734 C 0.24222 0.20735 0.52453 0.0
C735 C 0.23842 0.20222 0.69058 0.0
H736 H 0.23352 0.1902 0.72198 0.0
H737 H 0.22879 0.20546 0.68591 0.0
H738 H 0.24837 0.21117 0.73235 0.0
O739 O 0.28889 0.20243 0.66466 0.0
O740 O 0.29636 0.20679 0.52599 0.0
H741 H 0.24801 0.21718 0.35421 0.0
H742 H 0.24957 0.19962 0.32798 0.0
C743 C 0.25424 0.21037 0.37087 0.0
H744 H 0.26735 0.2182 0.35834 0.0
H745 H 0.29862 0.22061 0.34816 0.0
O746 O 0.25917 0.18813 0.78703 0.0
C747 C 0.29983 0.20904 0.60689 0.0
Co748 Co 0.8111 0.07682 0.66955 0.0
Co749 Co 0.80647 0.0818 0.47221 0.0
C750 C 0.83867 0.10084 0.55974 0.0
O751 O 0.83319 0.09341 0.6317 0.0
O752 O 0.82959 0.09759 0.49317 0.0
C753 C 0.81997 0.08292 0.84482 0.0
O754 O 0.82935 0.09739 0.81223 0.0
C755 C 0.81197 0.08343 0.28314 0.0
C756 C 0.78747 0.07548 0.23217 0.0
C757 C 0.80306 0.0799 0.20677 0.0
N758 N 0.80204 0.08105 0.35067 0.0
N759 N 0.78747 0.07651 0.3197 0.0
C760 C 0.82909 0.08716 0.29285 0.0
H761 H 0.8306 0.0821 0.35495 0.0
H762 H 0.8327 0.08217 0.23752 0.0
H763 H 0.83715 0.10046 0.29425 0.0
C764 C 0.79613 0.04258 0.6108 0.0
N765 N 0.80218 0.05848 0.59563 0.0
N766 N 0.80096 0.06073 0.51194 0.0
C767 C 0.79455 0.04637 0.47071 0.0
C768 C 0.79105 0.03433 0.53193 0.0
C769 C 0.79414 0.03547 0.7 0.0
H770 H 0.79064 0.04202 0.7468 0.0
H771 H 0.80587 0.03689 0.72156 0.0
H772 H 0.78485 0.02245 0.70079 0.0
O773 O 0.79719 0.08654 0.67091 0.0
O774 O 0.79311 0.08966 0.53185 0.0
H775 H 0.78241 0.04584 0.35249 0.0
H776 H 0.79046 0.03228 0.35272 0.0
C777 C 0.79265 0.04431 0.37385 0.0
H778 H 0.80382 0.05357 0.34155 0.0
H779 H 0.77741 0.07361 0.35856 0.0
O780 O 0.81157 0.07127 0.79317 0.0
C781 C 0.7908 0.09099 0.61255 0.0
Co782 Co 0.92364 0.7349 0.66802 0.0
Co783 Co 0.919 0.72512 0.47081 0.0
C784 C 0.89957 0.73807 0.55815 0.0
O785 O 0.90688 0.74011 0.63061 0.0
O786 O 0.90305 0.73231 0.49204 0.0
C787 C 0.91878 0.73963 0.84487 0.0
O788 O 0.90463 0.73647 0.8147 0.0
C789 C 0.91885 0.73061 0.28325 0.0
C790 C 0.92343 0.71188 0.2284 0.0
C791 C 0.92125 0.72469 0.20552 0.0
N792 N 0.91969 0.72176 0.34902 0.0
N793 N 0.92226 0.71047 0.3158 0.0
C794 C 0.9173 0.74529 0.29608 0.0
H795 H 0.92234 0.75089 0.36036 0.0
H796 H 0.9236 0.75424 0.24337 0.0
H797 H 0.9043 0.74168 0.29485 0.0
C798 C 0.95764 0.75504 0.60951 0.0
N799 N 0.94188 0.74468 0.59385 0.0
N800 N 0.93995 0.74078 0.51063 0.0
C801 C 0.95445 0.74871 0.47054 0.0
C802 C 0.96609 0.75803 0.53174 0.0
C803 C 0.96442 0.76155 0.69777 0.0
H804 H 0.9574 0.76663 0.72831 0.0
H805 H 0.97737 0.77101 0.69408 0.0
H806 H 0.96311 0.75149 0.73975 0.0
O807 O 0.91416 0.71122 0.66881 0.0
O808 O 0.91132 0.70394 0.52991 0.0
H809 H 0.97043 0.75285 0.36083 0.0
H810 H 0.95114 0.75088 0.33445 0.0
C811 C 0.95737 0.74636 0.37719 0.0
H812 H 0.95235 0.73331 0.36416 0.0
H813 H 0.92362 0.70208 0.353 0.0
O814 O 0.92955 0.7409 0.79152 0.0
C815 C 0.90992 0.70036 0.61068 0.0
Co816 Co 0.47782 0.06792 -0.00111 0.0
Co817 Co 0.47365 0.05859 0.80141 0.0
C818 C 0.50566 0.07166 0.89055 0.0
O819 O 0.49995 0.07345 0.96208 0.0
O820 O 0.49677 0.06594 0.82318 0.0
C821 C 0.48674 0.0708 0.1739 0.0
O822 O 0.49619 0.0658 0.14118 0.0
C823 C 0.47916 0.06241 0.61235 0.0
C824 C 0.45462 0.04589 0.56175 0.0
C825 C 0.4702 0.05703 0.53613 0.0
N826 N 0.46926 0.05489 0.67999 0.0
N827 N 0.45467 0.04488 0.64926 0.0
C828 C 0.4963 0.07576 0.62185 0.0
H829 H 0.49785 0.08234 0.68393 0.0
H830 H 0.49992 0.08436 0.56647 0.0
H831 H 0.50434 0.07049 0.62323 0.0
C832 C 0.46308 0.08737 0.93924 0.0
N833 N 0.46907 0.07746 0.92453 0.0
N834 N 0.46804 0.07409 0.84077 0.0
C835 C 0.46177 0.08215 0.79909 0.0
C836 C 0.45821 0.09067 0.86003 0.0
C837 C 0.461 0.0925 0.02825 0.0
H838 H 0.45741 0.08242 0.07509 0.0
H839 H 0.47272 0.10278 0.05013 0.0
H840 H 0.45174 0.09626 0.02848 0.0
O841 O 0.4639 0.04427 -0.00023 0.0
O842 O 0.46027 0.03732 0.86036 0.0
H843 H 0.44988 0.07068 0.68012 0.0
H844 H 0.45795 0.09229 0.68086 0.0
C845 C 0.46009 0.08242 0.70212 0.0
H846 H 0.47131 0.08434 0.67053 0.0
H847 H 0.44462 0.03775 0.68828 0.0
O848 O 0.47822 0.07392 0.12241 0.0
C849 C 0.45773 0.03354 0.94079 0.0
Co850 Co 0.93296 0.41037 7e-05 0.0
Co851 Co 0.9428 0.41525 0.80287 0.0
C852 C 0.92979 0.43455 0.89105 0.0
O853 O 0.92775 0.42715 0.96318 0.0
O854 O 0.93557 0.43117 0.82462 0.0
C855 C 0.92812 0.41514 0.17682 0.0
O856 O 0.93117 0.42925 0.1465 0.0
C857 C 0.93731 0.41542 0.61526 0.0
C858 C 0.95609 0.41092 0.56041 0.0
C859 C 0.94323 0.41303 0.53753 0.0
N860 N 0.94619 0.41464 0.68102 0.0
N861 N 0.95751 0.41213 0.64779 0.0
C862 C 0.92257 0.4169 0.62813 0.0
H863 H 0.91703 0.41189 0.69256 0.0
H864 H 0.91361 0.41052 0.57561 0.0
H865 H 0.92613 0.42987 0.62659 0.0
C866 C 0.9128 0.37645 0.94067 0.0
N867 N 0.92319 0.39221 0.92542 0.0
N868 N 0.92711 0.39423 0.84222 0.0
C869 C 0.91918 0.37978 0.80175 0.0
C870 C 0.90982 0.36808 0.86265 0.0
C871 C 0.90624 0.36959 0.02876 0.0
H872 H 0.91626 0.37079 0.07065 0.0
H873 H 0.90121 0.37663 0.05963 0.0
H874 H 0.89672 0.35667 0.02471 0.0
O875 O 0.95664 0.41983 0.00081 0.0
O876 O 0.96398 0.42289 0.86197 0.0
H877 H 0.93459 0.38201 0.69508 0.0
H878 H 0.91508 0.36389 0.69171 0.0
C879 C 0.92153 0.37694 0.70827 0.0
H880 H 0.91695 0.38315 0.6658 0.0
H881 H 0.96593 0.4108 0.68497 0.0
O882 O 0.92694 0.40441 0.12359 0.0
C883 C 0.96753 0.42417 0.94277 0.0
Co884 Co 0.59041 0.52204 -0.00065 0.0
Co885 Co 0.58552 0.52702 0.80215 0.0
C886 C 0.56604 0.49477 0.89065 0.0
O887 O 0.57349 0.5001 0.96266 0.0
O888 O 0.56947 0.50392 0.82414 0.0
C889 C 0.5856 0.51242 0.17612 0.0
O890 O 0.57147 0.50141 0.14581 0.0
C891 C 0.58529 0.52133 0.61455 0.0
C892 C 0.58987 0.54464 0.55963 0.0
C893 C 0.58771 0.52965 0.53678 0.0
N894 N 0.58611 0.53101 0.68028 0.0
N895 N 0.58867 0.54486 0.64701 0.0
C896 C 0.58375 0.5051 0.62747 0.0
H897 H 0.58872 0.50453 0.69196 0.0
H898 H 0.59013 0.50249 0.57502 0.0
H899 H 0.57077 0.49571 0.62584 0.0
C900 C 0.62431 0.53569 0.93957 0.0
N901 N 0.60855 0.53032 0.92447 0.0
N902 N 0.60651 0.53223 0.84128 0.0
C903 C 0.62096 0.53873 0.80068 0.0
C904 C 0.63267 0.54107 0.86148 0.0
C905 C 0.6312 0.53606 0.02766 0.0
H906 H 0.62417 0.52401 0.05882 0.0
H907 H 0.64413 0.53946 0.02353 0.0
H908 H 0.63001 0.5449 0.06935 0.0
O909 O 0.58108 0.53636 0.00018 0.0
O910 O 0.57802 0.54067 0.86136 0.0
H911 H 0.61876 0.55199 0.69432 0.0
H912 H 0.63684 0.55052 0.69055 0.0
C913 C 0.62379 0.54396 0.70725 0.0
H914 H 0.61754 0.53319 0.66469 0.0
H915 H 0.59004 0.55462 0.68416 0.0
O916 O 0.59637 0.52195 0.12287 0.0
C917 C 0.57678 0.54296 0.94216 0.0
Co918 Co 0.73508 0.8115 0.31882 0.0
Co919 Co 0.7254 0.8067 0.51613 0.0
C920 C 0.73843 0.83894 0.42906 0.0
O921 O 0.74043 0.83357 0.35685 0.0
O922 O 0.73262 0.82977 0.49534 0.0
C923 C 0.7378 0.82031 0.14344 0.0
O924 O 0.73261 0.82962 0.17593 0.0
C925 C 0.72922 0.81217 0.70523 0.0
C926 C 0.71264 0.78769 0.75624 0.0
C927 C 0.72382 0.80327 0.78163 0.0
N928 N 0.72168 0.80225 0.63769 0.0
N929 N 0.71163 0.78769 0.6687 0.0
C930 C 0.74264 0.82928 0.69557 0.0
H931 H 0.74913 0.83082 0.63318 0.0
H932 H 0.7513 0.83282 0.7506 0.0
H933 H 0.73744 0.83738 0.695 0.0
C934 C 0.7545 0.79663 0.37802 0.0
N935 N 0.74458 0.80262 0.39295 0.0
N936 N 0.74106 0.80135 0.47658 0.0
C937 C 0.74901 0.79495 0.51797 0.0
C938 C 0.75762 0.79152 0.45696 0.0
C939 C 0.75974 0.79474 0.28897 0.0
H940 H 0.7497 0.79116 0.24194 0.0
H941 H 0.76999 0.80653 0.26759 0.0
H942 H 0.7636 0.78555 0.28836 0.0
O943 O 0.71143 0.79747 0.31698 0.0
O944 O 0.70426 0.79327 0.45606 0.0
H945 H 0.73727 0.78275 0.63585 0.0
H946 H 0.75887 0.79073 0.63616 0.0
C947 C 0.74908 0.79297 0.61482 0.0
H948 H 0.751 0.80413 0.64723 0.0
H949 H 0.70446 0.77763 0.62983 0.0
O950 O 0.74115 0.81201 0.1952 0.0
C951 C 0.70061 0.79099 0.37537 0.0
Co952 Co 0.18866 0.92319 0.32709 0.0
Co953 Co 0.19386 0.91849 0.52423 0.0
C954 C 0.16151 0.8989 0.43659 0.0
O955 O 0.16674 0.90628 0.36427 0.0
O956 O 0.17076 0.90241 0.50272 0.0
C957 C 0.17908 0.91831 0.15024 0.0
O958 O 0.16815 0.90413 0.18049 0.0
C959 C 0.18818 0.91828 0.71184 0.0
C960 C 0.21151 0.92295 0.7668 0.0
C961 C 0.19649 0.92072 0.78962 0.0
N962 N 0.19789 0.91916 0.64611 0.0
N963 N 0.21176 0.92177 0.6794 0.0
C964 C 0.17191 0.91667 0.69891 0.0
H965 H 0.17133 0.92166 0.6345 0.0
H966 H 0.16925 0.92299 0.75146 0.0
H967 H 0.16256 0.90367 0.7004 0.0
C968 C 0.20231 0.95713 0.3861 0.0
N969 N 0.19698 0.94138 0.40156 0.0
N970 N 0.19898 0.93943 0.48472 0.0
C971 C 0.20552 0.9539 0.52494 0.0
C972 C 0.20778 0.96556 0.46392 0.0
C973 C 0.2026 0.96395 0.29789 0.0
H974 H 0.21142 0.96274 0.25606 0.0
H975 H 0.19052 0.95688 0.26708 0.0
H976 H 0.20599 0.97687 0.30176 0.0
O977 O 0.20304 0.91392 0.3262 0.0
O978 O 0.20753 0.91103 0.46495 0.0
H979 H 0.21894 0.95183 0.63084 0.0
H980 H 0.2174 0.96987 0.63461 0.0
C981 C 0.21086 0.95681 0.61819 0.0
H982 H 0.20014 0.95055 0.66114 0.0
H983 H 0.22153 0.92318 0.64228 0.0
O984 O 0.18852 0.92911 0.20355 0.0
C985 C 0.20974 0.90973 0.3841 0.0
Co986 Co 0.0766 0.26514 0.32636 0.0
Co987 Co 0.08201 0.27403 0.52358 0.0
C988 C 0.10115 0.26152 0.42754 0.0
O989 O 0.09348 0.25953 0.35634 0.0
O990 O 0.09789 0.2671 0.49518 0.0
C991 C 0.07505 0.25414 0.14792 0.0
O992 O 0.0827 0.24663 0.17337 0.0
C993 C 0.08333 0.26935 0.7139 0.0
C994 C 0.07497 0.28565 0.76328 0.0
C995 C 0.07901 0.27424 0.78978 0.0
N996 N 0.08134 0.27712 0.64593 0.0
N997 N 0.07661 0.28703 0.67623 0.0
C998 C 0.08928 0.2576 0.70554 0.0
H999 H 0.09723 0.26052 0.64832 0.0
H1000 H 0.07882 0.24523 0.69671 0.0
H1001 H 0.09616 0.25785 0.76435 0.0
C1002 C 0.04255 0.24533 0.38657 0.0
N1003 N 0.05846 0.25523 0.40122 0.0
N1004 N 0.06084 0.25849 0.48501 0.0
C1005 C 0.04655 0.25034 0.52684 0.0
C1006 C 0.03442 0.24191 0.46595 0.0
C1007 C 0.03532 0.24048 0.29743 0.0
H1008 H 0.04096 0.2511 0.25329 0.0
H1009 H 0.03796 0.23123 0.27105 0.0
H1010 H 0.02206 0.23555 0.2983 0.0
O1011 O 0.08638 0.28872 0.32915 0.0
O1012 O 0.0895 0.29558 0.46839 0.0
H1013 H 0.04621 0.2616 0.64673 0.0
H1014 H 0.03255 0.24004 0.64478 0.0
C1015 C 0.04459 0.24988 0.62385 0.0
H1016 H 0.05383 0.24778 0.65482 0.0
H1017 H 0.07394 0.29432 0.637 0.0
O1018 O 0.07049 0.26083 0.2036 0.0
C1019 C 0.09078 0.29941 0.38806 0.0
Co1020 Co 0.18961 0.26583 0.32003 0.0
Co1021 Co 0.19355 0.2748 0.51769 0.0
C1022 C 0.16164 0.26191 0.42775 0.0
O1023 O 0.16739 0.26026 0.35603 0.0
O1024 O 0.17048 0.26746 0.49538 0.0
C1025 C 0.18065 0.26285 0.14511 0.0
O1026 O 0.17111 0.26774 0.1777 0.0
C1027 C 0.18803 0.27095 0.70669 0.0
C1028 C 0.2126 0.28746 0.75707 0.0
C1029 C 0.19702 0.27634 0.78279 0.0
N1030 N 0.19793 0.27844 0.63899 0.0
N1031 N 0.21253 0.28845 0.66958 0.0
C1032 C 0.17088 0.25762 0.69736 0.0
H1033 H 0.16926 0.2511 0.635 0.0
H1034 H 0.16731 0.24897 0.75248 0.0
H1035 H 0.16285 0.26291 0.69682 0.0
C1036 C 0.20437 0.24632 0.37927 0.0
N1037 N 0.1983 0.25616 0.39416 0.0
N1038 N 0.19921 0.25939 0.47804 0.0
C1039 C 0.20545 0.25131 0.51962 0.0
C1040 C 0.20916 0.24292 0.45851 0.0
C1041 C 0.20661 0.24136 0.29017 0.0
H1042 H 0.21022 0.25149 0.24372 0.0
H1043 H 0.19495 0.23107 0.26768 0.0
H1044 H 0.21592 0.23766 0.29007 0.0
O1045 O 0.20356 0.28953 0.31992 0.0
O1046 O 0.20695 0.29611 0.45983 0.0
H1047 H 0.21717 0.26254 0.63936 0.0
H1048 H 0.20902 0.24092 0.63762 0.0
C1049 C 0.20697 0.25086 0.61664 0.0
H1050 H 0.19571 0.24893 0.64781 0.0
H1051 H 0.22256 0.29557 0.63047 0.0
O1052 O 0.18928 0.25989 0.19662 0.0
C1053 C 0.20962 0.30011 0.37975 0.0
Co1054 Co 0.73488 0.92351 0.32963 0.0
Co1055 Co 0.72569 0.91825 0.52754 0.0
C1056 C 0.73854 0.89922 0.43487 0.0
O1057 O 0.74018 0.90665 0.36322 0.0
O1058 O 0.73309 0.90256 0.50284 0.0
C1059 C 0.74312 0.9212 0.15251 0.0
O1060 O 0.74407 0.90877 0.18162 0.0
C1061 C 0.73226 0.91893 0.71419 0.0
C1062 C 0.71222 0.92112 0.77152 0.0
C1063 C 0.72609 0.92067 0.79278 0.0
N1064 N 0.72255 0.91854 0.64968 0.0
N1065 N 0.71049 0.91966 0.68438 0.0
C1066 C 0.74786 0.91918 0.69905 0.0
H1067 H 0.75703 0.92691 0.74813 0.0
H1068 H 0.74576 0.9067 0.7049 0.0
H1069 H 0.75246 0.92366 0.6324 0.0
C1070 C 0.75499 0.95735 0.39015 0.0
N1071 N 0.7448 0.94154 0.40519 0.0
N1072 N 0.74101 0.9394 0.48856 0.0
C1073 C 0.74875 0.95385 0.52924 0.0
C1074 C 0.75792 0.96564 0.46839 0.0
C1075 C 0.76135 0.96434 0.302 0.0
H1076 H 0.75124 0.96321 0.26115 0.0
H1077 H 0.76632 0.95736 0.26985 0.0
H1078 H 0.77087 0.97726 0.30626 0.0
O1079 O 0.71114 0.91396 0.33121 0.0
O1080 O 0.70433 0.91052 0.4709 0.0
H1081 H 0.73315 0.95036 0.6374 0.0
H1082 H 0.75154 0.96966 0.63748 0.0
C1083 C 0.74625 0.95661 0.62263 0.0
H1084 H 0.75205 0.95162 0.66527 0.0
H1085 H 0.70135 0.91989 0.64835 0.0
O1086 O 0.74062 0.92985 0.20622 0.0
C1087 C 0.70046 0.90941 0.39067 0.0
Co1088 Co 0.07721 0.81091 0.33084 0.0
Co1089 Co 0.08229 0.80633 0.52813 0.0
C1090 C 0.10143 0.83847 0.43995 0.0
O1091 O 0.09392 0.83296 0.36824 0.0
O1092 O 0.09819 0.82943 0.50673 0.0
C1093 C 0.08329 0.8198 0.15556 0.0
O1094 O 0.09776 0.82917 0.18816 0.0
C1095 C 0.08396 0.81187 0.71719 0.0
C1096 C 0.07601 0.78737 0.76827 0.0
C1097 C 0.08042 0.80296 0.79361 0.0
N1098 N 0.08159 0.80193 0.64971 0.0
N1099 N 0.07705 0.78737 0.68075 0.0
C1100 C 0.0877 0.82898 0.70735 0.0
H1101 H 0.08267 0.83049 0.64514 0.0
H1102 H 0.08268 0.8326 0.76256 0.0
H1103 H 0.10101 0.83705 0.70608 0.0
C1104 C 0.04304 0.79624 0.3904 0.0
N1105 N 0.05893 0.80216 0.40521 0.0
N1106 N 0.06121 0.80092 0.48883 0.0
C1107 C 0.04687 0.79459 0.53034 0.0
C1108 C 0.03482 0.7912 0.4694 0.0
C1109 C 0.03588 0.79433 0.30137 0.0
H1110 H 0.04231 0.7907 0.25438 0.0
H1111 H 0.03745 0.80612 0.27985 0.0
H1112 H 0.02282 0.78517 0.30085 0.0
O1113 O 0.08678 0.79687 0.32946 0.0
O1114 O 0.09001 0.79285 0.46845 0.0
H1115 H 0.04643 0.78239 0.6482 0.0
H1116 H 0.03281 0.79036 0.64858 0.0
C1117 C 0.04485 0.79262 0.6272 0.0
H1118 H 0.05409 0.80378 0.65958 0.0
H1119 H 0.07415 0.77731 0.64194 0.0
O1120 O 0.07164 0.81139 0.20721 0.0
C1121 C 0.09123 0.79047 0.38773 0.0
Co1122 Co 0.93193 0.52164 0.00055 0.0
Co1123 Co 0.94184 0.52679 0.8034 0.0
C1124 C 0.92917 0.49449 0.89135 0.0
O1125 O 0.92699 0.49974 0.96351 0.0
O1126 O 0.93488 0.5037 0.82506 0.0
C1127 C 0.92729 0.51208 0.17737 0.0
O1128 O 0.9306 0.5012 0.14708 0.0
C1129 C 0.93642 0.52111 0.61577 0.0
C1130 C 0.95506 0.54447 0.56088 0.0
C1131 C 0.9423 0.52944 0.53801 0.0
N1132 N 0.94523 0.53083 0.68153 0.0
N1133 N 0.95647 0.5447 0.64828 0.0
C1134 C 0.92179 0.50484 0.62864 0.0
H1135 H 0.9162 0.50424 0.69301 0.0
H1136 H 0.91281 0.50216 0.57604 0.0
H1137 H 0.92547 0.49551 0.62723 0.0
C1138 C 0.91159 0.53522 0.94111 0.0
N1139 N 0.92204 0.52992 0.92585 0.0
N1140 N 0.92599 0.53188 0.84269 0.0
C1141 C 0.91802 0.53837 0.80226 0.0
C1142 C 0.90861 0.54063 0.86315 0.0
C1143 C 0.90505 0.53552 0.02924 0.0
H1144 H 0.90008 0.52346 0.06024 0.0
H1145 H 0.89548 0.53886 0.02521 0.0
H1146 H 0.91506 0.54437 0.07101 0.0
O1147 O 0.95557 0.53602 0.00156 0.0
O1148 O 0.96295 0.54047 0.86278 0.0
H1149 H 0.91391 0.55019 0.69233 0.0
H1150 H 0.916 0.53294 0.66615 0.0
C1151 C 0.92044 0.54368 0.70893 0.0
H1152 H 0.9335 0.55176 0.69623 0.0
H1153 H 0.96482 0.55448 0.68546 0.0
O1154 O 0.92586 0.52149 0.12408 0.0
C1155 C 0.96647 0.5427 0.94363 0.0
Co1156 Co 0.47844 0.41035 0.00157 0.0
Co1157 Co 0.47329 0.41519 0.80448 0.0
C1158 C 0.50564 0.43464 0.89223 0.0
O1159 O 0.50037 0.42722 0.96442 0.0
O1160 O 0.49642 0.43121 0.82606 0.0
C1161 C 0.48798 0.41523 0.17838 0.0
O1162 O 0.49889 0.4294 0.14802 0.0
C1163 C 0.47896 0.41542 0.61681 0.0
C1164 C 0.45564 0.41081 0.56194 0.0
C1165 C 0.47064 0.413 0.53905 0.0
N1166 N 0.46927 0.41457 0.68258 0.0
N1167 N 0.45541 0.412 0.64933 0.0
C1168 C 0.49521 0.41698 0.62967 0.0
H1169 H 0.49578 0.41198 0.69406 0.0
H1170 H 0.49784 0.41065 0.57709 0.0
H1171 H 0.50458 0.42997 0.62821 0.0
C1172 C 0.46472 0.37643 0.942 0.0
N1173 N 0.47008 0.39219 0.92683 0.0
N1174 N 0.46811 0.39421 0.84371 0.0
C1175 C 0.46157 0.37976 0.80321 0.0
C1176 C 0.45929 0.36807 0.86401 0.0
C1177 C 0.46442 0.36956 0.03006 0.0
H1178 H 0.45561 0.37077 0.072 0.0
H1179 H 0.47649 0.37659 0.06091 0.0
H1180 H 0.461 0.35663 0.02595 0.0
O1181 O 0.46412 0.41968 0.00265 0.0
O1182 O 0.45966 0.42268 0.86399 0.0
H1183 H 0.44823 0.38192 0.69719 0.0
H1184 H 0.44972 0.36386 0.69327 0.0
C1185 C 0.45628 0.37691 0.70989 0.0
H1186 H 0.46702 0.38317 0.66711 0.0
H1187 H 0.44565 0.41061 0.68651 0.0
O1188 O 0.47855 0.4044 0.12514 0.0
C1189 C 0.45745 0.42394 0.9449 0.0
Co1190 Co 0.59043 0.06943 0.0076 0.0
Co1191 Co 0.58572 0.05934 0.8106 0.0
C1192 C 0.56616 0.07221 0.89752 0.0
O1193 O 0.57352 0.07444 0.96999 0.0
O1194 O 0.56968 0.06639 0.83182 0.0
C1195 C 0.58546 0.07392 0.18447 0.0
O1196 O 0.57122 0.07045 0.15415 0.0
C1197 C 0.58545 0.06471 0.62285 0.0
C1198 C 0.59008 0.04602 0.56802 0.0
C1199 C 0.58785 0.0588 0.54509 0.0
N1200 N 0.58634 0.05589 0.68868 0.0
N1201 N 0.58893 0.04463 0.65545 0.0
C1202 C 0.58386 0.07938 0.63562 0.0
H1203 H 0.58886 0.08496 0.69997 0.0
H1204 H 0.59019 0.08834 0.58299 0.0
H1205 H 0.57087 0.07574 0.63414 0.0
C1206 C 0.62439 0.08969 0.94787 0.0
N1207 N 0.60863 0.07921 0.93282 0.0
N1208 N 0.60664 0.07518 0.84978 0.0
C1209 C 0.62109 0.08312 0.80923 0.0
C1210 C 0.63276 0.0926 0.86987 0.0
C1211 C 0.63124 0.09634 0.0358 0.0
H1212 H 0.62415 0.10134 0.06644 0.0
H1213 H 0.64415 0.1059 0.03153 0.0
H1214 H 0.6301 0.08639 0.07801 0.0
O1215 O 0.58107 0.04576 0.0093 0.0
O1216 O 0.57828 0.03829 0.87073 0.0
H1217 H 0.63701 0.08709 0.69945 0.0
H1218 H 0.61771 0.08506 0.67299 0.0
C1219 C 0.62396 0.08061 0.71604 0.0
H1220 H 0.61896 0.06754 0.70366 0.0
H1221 H 0.59035 0.03627 0.69265 0.0
O1222 O 0.59636 0.07552 0.13115 0.0
C1223 C 0.57691 0.03483 0.9517 0.0
C1224 C 0.12224 0.4488 0.22522 0.0
C1225 C 0.11717 0.4339 0.18397 0.0
H1226 H 0.11827 0.4689 0.2414 0.0
C1227 C 0.10424 0.42802 0.12455 0.0
H1228 H 0.13229 0.4537 0.27047 0.0
C1229 C 0.09659 0.43688 0.10632 0.0
C1230 C 0.10152 0.45162 0.14836 0.0
H1231 H 0.09986 0.41643 0.09307 0.0
H1232 H 0.08651 0.43199 0.06118 0.0
C1233 C 0.11438 0.45755 0.20801 0.0
C1234 C 0.56444 0.65954 0.10511 0.0
C1235 C 0.54943 0.64974 0.14477 0.0
H1236 H 0.58483 0.68335 0.09255 0.0
C1237 C 0.54301 0.6567 0.20098 0.0
H1238 H 0.56967 0.65431 0.06261 0.0
C1239 C 0.5515 0.67335 0.21686 0.0
C1240 C 0.56663 0.68319 0.17782 0.0
H1241 H 0.53146 0.64924 0.23253 0.0
H1242 H 0.54624 0.67854 0.25935 0.0
C1243 C 0.57305 0.6761 0.1222 0.0
C1244 C 0.34351 0.90711 0.195 0.0
C1245 C 0.35055 0.90037 0.14132 0.0
H1246 H 0.32181 0.90401 0.25443 0.0
C1247 C 0.34066 0.88505 0.10449 0.0
H1248 H 0.35079 0.91905 0.22268 0.0
C1249 C 0.32403 0.87662 0.12132 0.0
C1250 C 0.31715 0.8833 0.17627 0.0
H1251 H 0.3458 0.87955 0.06333 0.0
H1252 H 0.31653 0.86488 0.09172 0.0
C1253 C 0.32699 0.89856 0.21314 0.0
C1254 C 0.45561 0.11534 0.88143 0.0
C1255 C 0.44991 0.10002 0.84386 0.0
H1256 H 0.45215 0.13579 0.89531 0.0
C1257 C 0.43624 0.09365 0.7895 0.0
H1258 H 0.46619 0.12056 0.92305 0.0
C1259 C 0.42857 0.10252 0.77179 0.0
C1260 C 0.43423 0.11774 0.80966 0.0
H1261 H 0.43138 0.08173 0.76117 0.0
H1262 H 0.41798 0.09733 0.73017 0.0
C1263 C 0.44773 0.12409 0.86496 0.0
C1264 C 0.87909 0.32672 0.77871 0.0
C1265 C 0.88477 0.31703 0.81559 0.0
H1266 H 0.88273 0.35071 0.76506 0.0
C1267 C 0.89862 0.32428 0.8687 0.0
H1268 H 0.86839 0.32142 0.73803 0.0
C1269 C 0.90646 0.34083 0.88604 0.0
C1270 C 0.90081 0.35047 0.84898 0.0
H1271 H 0.90346 0.31715 0.89644 0.0
H1272 H 0.91715 0.34617 0.92684 0.0
C1273 C 0.88715 0.34337 0.79475 0.0
C1274 C 0.65744 0.54322 0.79367 0.0
C1275 C 0.65029 0.54974 0.84771 0.0
H1276 H 0.67944 0.54654 0.73681 0.0
C1277 C 0.65986 0.56509 0.88429 0.0
H1278 H 0.65015 0.53142 0.76431 0.0
C1279 C 0.6764 0.57388 0.86666 0.0
C1280 C 0.68371 0.56732 0.81374 0.0
H1281 H 0.65446 0.57041 0.9249 0.0
H1282 H 0.68347 0.58588 0.89402 0.0
C1283 C 0.67409 0.5519 0.77734 0.0
C1284 C 0.88601 0.54281 0.79514 0.0
C1285 C 0.89964 0.54928 0.8496 0.0
H1286 H 0.86737 0.54615 0.73801 0.0
C1287 C 0.90533 0.56457 0.88681 0.0
H1288 H 0.88157 0.53106 0.76529 0.0
C1289 C 0.89756 0.57335 0.86934 0.0
C1290 C 0.88376 0.56684 0.81592 0.0
H1291 H 0.916 0.56985 0.92777 0.0
H1292 H 0.90244 0.58531 0.89716 0.0
C1293 C 0.87804 0.55148 0.77894 0.0
C1294 C 0.44845 0.32667 0.77986 0.0
C1295 C 0.43301 0.31706 0.81609 0.0
H1296 H 0.46895 0.35059 0.76704 0.0
C1297 C 0.42645 0.32436 0.86902 0.0
H1298 H 0.45382 0.32132 0.73933 0.0
C1299 C 0.43525 0.34089 0.88678 0.0
C1300 C 0.45061 0.35045 0.85032 0.0
H1301 H 0.41443 0.31729 0.89627 0.0
H1302 H 0.42992 0.34628 0.92736 0.0
C1303 C 0.45714 0.3433 0.79632 0.0
C1304 C 0.66 0.09589 0.89263 0.0
C1305 C 0.65038 0.1016 0.85601 0.0
H1306 H 0.68362 0.09872 0.90172 0.0
C1307 C 0.65745 0.11519 0.8013 0.0
H1308 H 0.65466 0.08523 0.93368 0.0
C1309 C 0.67407 0.12313 0.7843 0.0
C1310 C 0.68375 0.1174 0.8207 0.0
H1311 H 0.65011 0.11964 0.77181 0.0
H1312 H 0.67937 0.13378 0.7432 0.0
C1313 C 0.67652 0.10362 0.87434 0.0
C1314 C 0.5453 0.88546 0.12083 0.0
C1315 C 0.55042 0.90042 0.16156 0.0
H1316 H 0.54919 0.86531 0.10534 0.0
C1317 C 0.56335 0.90631 0.22101 0.0
H1318 H 0.53525 0.88055 0.07557 0.0
C1319 C 0.57097 0.89743 0.23963 0.0
C1320 C 0.566 0.88264 0.19796 0.0
H1321 H 0.56776 0.91794 0.25217 0.0
H1322 H 0.58106 0.90234 0.28466 0.0
C1323 C 0.55312 0.87669 0.13845 0.0
C1324 C 0.09374 0.65781 0.20403 0.0
C1325 C 0.10014 0.65037 0.15096 0.0
H1326 H 0.09745 0.67984 0.26202 0.0
C1327 C 0.11556 0.65986 0.11427 0.0
H1328 H 0.08174 0.65084 0.23165 0.0
C1329 C 0.12439 0.6765 0.13034 0.0
C1330 C 0.118 0.68379 0.18439 0.0
H1331 H 0.12082 0.65441 0.07363 0.0
H1332 H 0.13618 0.6837 0.10066 0.0
C1333 C 0.10267 0.67435 0.22138 0.0
C1334 C 0.34057 0.43578 0.11531 0.0
C1335 C 0.35046 0.45087 0.15391 0.0
H1336 H 0.31672 0.41542 0.1043 0.0
C1337 C 0.34363 0.45738 0.21037 0.0
H1338 H 0.3457 0.43045 0.0728 0.0
C1339 C 0.327 0.44896 0.22712 0.0
C1340 C 0.31705 0.4338 0.18865 0.0
H1341 H 0.35117 0.46898 0.24126 0.0
H1342 H 0.3219 0.45432 0.26956 0.0
C1343 C 0.32404 0.42724 0.1333 0.0
C1344 C 0.78221 0.78873 0.43658 0.0
C1345 C 0.7668 0.78303 0.47288 0.0
H1346 H 0.80265 0.78519 0.42446 0.0
C1347 C 0.76019 0.76922 0.5263 0.0
H1348 H 0.78761 0.7994 0.39565 0.0
C1349 C 0.76894 0.76146 0.54472 0.0
C1350 C 0.78429 0.76716 0.50841 0.0
H1351 H 0.74818 0.76435 0.55357 0.0
H1352 H 0.76358 0.7508 0.58579 0.0
C1353 C 0.79085 0.78075 0.4537 0.0
C1354 C 0.2318 0.9927 0.44 0.0
C1355 C 0.21649 0.98318 0.47716 0.0
H1356 H 0.25262 0.01627 0.42945 0.0
C1357 C 0.21005 0.9904 0.53129 0.0
H1358 H 0.23706 0.98726 0.39928 0.0
C1359 C 0.21878 0.00705 0.54722 0.0
C1360 C 0.23417 0.01662 0.51032 0.0
H1361 H 0.19828 0.98315 0.56108 0.0
H1362 H 0.21348 0.01245 0.58788 0.0
C1363 C 0.24064 0.00925 0.45721 0.0
C1364 C 0.99036 0.20887 0.46227 0.0
C1365 C 0.98338 0.21544 0.51726 0.0
H1366 H 0.01221 0.21202 0.40415 0.0
C1367 C 0.99313 0.23069 0.55455 0.0
H1368 H 0.98294 0.19714 0.43242 0.0
C1369 C 0.00966 0.23935 0.53652 0.0
C1370 C 0.01678 0.23276 0.48239 0.0
H1371 H 0.98788 0.23605 0.59598 0.0
H1372 H 0.01687 0.25128 0.56446 0.0
C1373 C 0.00699 0.21742 0.44551 0.0
C1374 C 0.2388 0.2312 0.5483 0.0
C1375 C 0.23328 0.21602 0.51018 0.0
H1376 H 0.23585 0.25191 0.55862 0.0
C1377 C 0.21991 0.20969 0.45389 0.0
H1378 H 0.24928 0.23638 0.59064 0.0
C1379 C 0.21201 0.2184 0.4368 0.0
C1380 C 0.21755 0.23366 0.47476 0.0
H1381 H 0.21561 0.19802 0.4233 0.0
H1382 H 0.20153 0.21318 0.39451 0.0
C1383 C 0.23111 0.24002 0.52997 0.0
C1384 C 0.7803 0.99036 0.53777 0.0
C1385 C 0.76679 0.98324 0.48254 0.0
H1386 H 0.79887 0.01232 0.59532 0.0
C1387 C 0.76115 0.99285 0.44482 0.0
H1388 H 0.7847 0.98304 0.56801 0.0
C1389 C 0.76889 0.00938 0.4624 0.0
C1390 C 0.78262 0.01666 0.51636 0.0
H1391 H 0.75056 0.98748 0.40328 0.0
H1392 H 0.76405 0.01647 0.43413 0.0
C1393 C 0.78826 0.007 0.55399 0.0
C1394 C 0.9909 0.78065 0.46437 0.0
C1395 C 0.98372 0.76699 0.51852 0.0
H1396 H 0.01292 0.79931 0.40765 0.0
C1397 C 0.99327 0.76125 0.5557 0.0
H1398 H 0.98362 0.78514 0.43459 0.0
C1399 C 0.00983 0.769 0.53841 0.0
C1400 C 0.01716 0.78283 0.48523 0.0
H1401 H 0.98786 0.75054 0.59644 0.0
H1402 H 0.01688 0.76408 0.56615 0.0
C1403 C 0.00755 0.78861 0.44837 0.0
C1404 C 0.10407 0.32899 0.42373 0.0
C1405 C 0.09822 0.31659 0.36133 0.0
H1406 H 0.11671 0.35443 0.44775 0.0
C1407 C 0.10018 0.32078 0.27222 0.0
H1408 H 0.10274 0.32622 0.49277 0.0
C1409 C 0.10823 0.33698 0.2462 0.0
C1410 C 0.1145 0.34938 0.30862 0.0
H1411 H 0.09577 0.31155 0.22219 0.0
H1412 H 0.1098 0.33975 0.17717 0.0
C1413 C 0.1121 0.34519 0.39771 0.0
C1414 C 0.65488 0.7662 0.38486 0.0
C1415 C 0.65064 0.76479 0.29599 0.0
H1416 H 0.67386 0.77546 0.47961 0.0
C1417 C 0.66302 0.77129 0.23335 0.0
H1418 H 0.64567 0.76128 0.43506 0.0
C1419 C 0.67924 0.77944 0.25914 0.0
C1420 C 0.68346 0.78128 0.34816 0.0
H1421 H 0.6602 0.7704 0.16445 0.0
H1422 H 0.68847 0.78458 0.20912 0.0
C1423 C 0.67108 0.77435 0.41061 0.0
C1424 C 0.22175 0.90068 0.26665 0.0
C1425 C 0.21957 0.90246 0.35598 0.0
H1426 H 0.23106 0.89126 0.17033 0.0
C1427 C 0.22621 0.89653 0.41753 0.0
H1428 H 0.21686 0.90516 0.2173 0.0
C1429 C 0.23437 0.88856 0.39044 0.0
C1430 C 0.23609 0.88632 0.30112 0.0
H1431 H 0.22482 0.89773 0.48677 0.0
H1432 H 0.23904 0.88385 0.43979 0.0
C1433 C 0.22992 0.89271 0.23956 0.0
C1434 C 0.32185 0.10007 0.72324 0.0
C1435 C 0.31781 0.09836 0.63404 0.0
H1436 H 0.34066 0.10961 0.81909 0.0
C1437 C 0.33032 0.10458 0.57214 0.0
H1438 H 0.31253 0.09537 0.77286 0.0
C1439 C 0.34649 0.11277 0.59882 0.0
C1440 C 0.35052 0.11492 0.68805 0.0
H1441 H 0.32766 0.10345 0.50299 0.0
H1442 H 0.35581 0.11769 0.54925 0.0
C1443 C 0.33801 0.10824 0.74991 0.0
C1444 C 0.90062 0.22093 0.72827 0.0
C1445 C 0.90253 0.21875 0.63911 0.0
H1446 H 0.89104 0.23023 0.8238 0.0
C1447 C 0.89664 0.22534 0.57704 0.0
H1448 H 0.90506 0.21607 0.77799 0.0
C1449 C 0.8886 0.23347 0.60344 0.0
C1450 C 0.88625 0.23521 0.69258 0.0
H1451 H 0.89793 0.22394 0.50791 0.0
H1452 H 0.88394 0.23811 0.55368 0.0
C1453 C 0.89258 0.22907 0.75469 0.0
C1454 C 0.77942 0.6795 0.72327 0.0
C1455 C 0.7816 0.68348 0.63396 0.0
H1456 H 0.7702 0.66073 0.81945 0.0
C1457 C 0.77507 0.67094 0.57233 0.0
H1458 H 0.78424 0.68885 0.77267 0.0
C1459 C 0.767 0.6548 0.5993 0.0
C1460 C 0.76527 0.6508 0.68858 0.0
H1461 H 0.77646 0.67355 0.5031 0.0
H1462 H 0.76241 0.64545 0.54984 0.0
C1463 C 0.77136 0.66335 0.75025 0.0
C1464 C 0.88847 0.65457 0.6027 0.0
C1465 C 0.88602 0.65048 0.69183 0.0
H1466 H 0.89796 0.67343 0.50713 0.0
C1467 C 0.89234 0.66296 0.75392 0.0
H1468 H 0.88383 0.64528 0.55295 0.0
C1469 C 0.90046 0.67913 0.72747 0.0
C1470 C 0.90247 0.68322 0.63829 0.0
H1471 H 0.89073 0.66026 0.82302 0.0
H1472 H 0.90488 0.68843 0.77717 0.0
C1473 C 0.8966 0.67074 0.57627 0.0
C1474 C 0.32088 0.22091 0.7245 0.0
C1475 C 0.31692 0.21881 0.63515 0.0
H1476 H 0.33962 0.23017 0.82083 0.0
C1477 C 0.32949 0.22549 0.57363 0.0
H1478 H 0.31151 0.21598 0.77383 0.0
C1479 C 0.34562 0.23364 0.60072 0.0
C1480 C 0.34959 0.23531 0.69003 0.0
H1481 H 0.3269 0.22415 0.50438 0.0
H1482 H 0.35499 0.23836 0.55134 0.0
C1483 C 0.33702 0.22907 0.75161 0.0
C1484 C 0.77098 0.10854 0.75582 0.0
C1485 C 0.76499 0.11505 0.69386 0.0
H1486 H 0.78371 0.0958 0.7789 0.0
C1487 C 0.76678 0.11278 0.60465 0.0
H1488 H 0.76978 0.11001 0.82497 0.0
C1489 C 0.77478 0.10462 0.57806 0.0
C1490 C 0.7812 0.09854 0.64003 0.0
H1491 H 0.76226 0.11758 0.555 0.0
H1492 H 0.77622 0.10339 0.50892 0.0
C1493 C 0.77898 0.10038 0.72923 0.0
C1494 C 0.67095 0.8958 0.42869 0.0
C1495 C 0.68321 0.90198 0.36525 0.0
H1496 H 0.64556 0.88283 0.45471 0.0
C1497 C 0.6788 0.90032 0.27665 0.0
H1498 H 0.6739 0.8969 0.49748 0.0
C1499 C 0.66253 0.89224 0.25202 0.0
C1500 C 0.65027 0.88562 0.31538 0.0
H1501 H 0.68791 0.90498 0.22593 0.0
H1502 H 0.65959 0.89091 0.18319 0.0
C1503 C 0.65468 0.88772 0.40405 0.0
C1504 C 0.10844 0.77041 0.24387 0.0
C1505 C 0.11516 0.76458 0.30552 0.0
H1506 H 0.09558 0.78303 0.22132 0.0
C1507 C 0.11309 0.76651 0.39483 0.0
H1508 H 0.10974 0.7691 0.17465 0.0
C1509 C 0.10496 0.77452 0.42177 0.0
C1510 C 0.0987 0.7808 0.36005 0.0
H1511 H 0.11805 0.76211 0.44425 0.0
H1512 H 0.1039 0.77608 0.49095 0.0
C1513 C 0.10031 0.77842 0.2708 0.0
C1514 C 0.23351 0.34584 0.39583 0.0
C1515 C 0.23546 0.35046 0.30749 0.0
H1516 H 0.22393 0.32641 0.488 0.0
C1517 C 0.22962 0.33836 0.24323 0.0
H1518 H 0.2379 0.35483 0.44716 0.0
C1519 C 0.22161 0.32203 0.26677 0.0
C1520 C 0.21923 0.31742 0.35514 0.0
H1521 H 0.23095 0.34147 0.17462 0.0
H1522 H 0.21699 0.31304 0.21547 0.0
C1523 C 0.22549 0.32952 0.41937 0.0
C1524 C 0.99721 0.43772 0.90898 0.0
C1525 C 0.98465 0.43159 0.97066 0.0
H1526 H 0.02271 0.45072 0.8865 0.0
C1527 C 0.98865 0.43333 0.05994 0.0
H1528 H 0.99459 0.43656 0.83978 0.0
C1529 C 0.00479 0.44146 0.08687 0.0
C1530 C 0.01734 0.44806 0.02521 0.0
H1531 H 0.97929 0.4287 0.10938 0.0
H1532 H 0.0074 0.44287 0.15609 0.0
C1533 C 0.01336 0.44586 0.93593 0.0
C1534 C 0.56771 0.55499 0.05936 0.0
C1535 C 0.56942 0.55271 0.97008 0.0
H1536 H 0.55821 0.56425 0.15552 0.0
C1537 C 0.56331 0.55915 0.90841 0.0
H1538 H 0.57233 0.55026 0.1088 0.0
C1539 C 0.5552 0.56718 0.93536 0.0
C1540 C 0.55301 0.56898 0.02465 0.0
H1541 H 0.56444 0.55767 0.8392 0.0
H1542 H 0.55034 0.57168 0.88593 0.0
C1543 C 0.55961 0.56303 0.08631 0.0
C1544 C 0.43393 0.98775 0.92974 0.0
C1545 C 0.432 0.98348 0.01865 0.0
H1546 H 0.44346 0.00682 0.83534 0.0
C1547 C 0.4378 0.99582 0.08147 0.0
H1548 H 0.42956 0.97856 0.87946 0.0
C1549 C 0.44578 0.01204 0.05602 0.0
C1550 C 0.44815 0.01632 0.96713 0.0
H1551 H 0.43648 0.99298 0.15043 0.0
H1552 H 0.45037 0.02123 0.10632 0.0
C1553 C 0.44191 0.00397 0.90429 0.0
C1554 C 0.55639 0.98911 0.94532 0.0
C1555 C 0.55346 0.98504 0.03437 0.0
H1556 H 0.56609 0.00789 0.84941 0.0
C1557 C 0.55915 0.99754 0.09619 0.0
H1558 H 0.55225 0.97981 0.89573 0.0
C1559 C 0.56713 0.01371 0.06938 0.0
C1560 C 0.5696 0.01775 0.98013 0.0
H1561 H 0.55715 0.99486 0.1652 0.0
H1562 H 0.57107 0.02303 0.11875 0.0
C1563 C 0.56435 0.00525 0.91855 0.0
C1564 C 0.99611 0.55917 0.90995 0.0
C1565 C 0.98357 0.5525 0.97165 0.0
H1566 H 0.0216 0.57197 0.88733 0.0
C1567 C 0.98757 0.55461 0.06094 0.0
H1568 H 0.99349 0.55782 0.84074 0.0
C1569 C 0.00372 0.56274 0.08783 0.0
C1570 C 0.01626 0.56894 0.02608 0.0
H1571 H 0.97822 0.5497 0.11039 0.0
H1572 H 0.00635 0.56383 0.15701 0.0
C1573 C 0.01225 0.56728 0.93683 0.0
C1574 C 0.44549 0.43297 0.06267 0.0
C1575 C 0.44766 0.43124 0.97327 0.0
H1576 H 0.43624 0.4424 0.1593 0.0
C1577 C 0.44104 0.43722 0.91193 0.0
H1578 H 0.45036 0.42844 0.11187 0.0
C1579 C 0.43293 0.44523 0.93929 0.0
C1580 C 0.43123 0.44744 0.02868 0.0
H1581 H 0.44243 0.43606 0.84265 0.0
H1582 H 0.4283 0.44999 0.89009 0.0
C1583 C 0.43737 0.44097 0.09003 0.0
C1584 C 0.19786 0.41094 0.31208 0.0
C1585 C 0.18902 0.40822 0.23445 0.0
H1586 H 0.2187 0.41246 0.37342 0.0
C1587 C 0.19584 0.40688 0.15584 0.0
H1588 H 0.19305 0.41214 0.3738 0.0
C1589 C 0.21052 0.40701 0.15561 0.0
C1590 C 0.21879 0.40856 0.234 0.0
H1591 H 0.18956 0.40508 0.09461 0.0
H1592 H 0.21503 0.40523 0.09427 0.0
C1593 C 0.2126 0.41112 0.31184 0.0
C1594 C 0.59547 0.79067 0.15533 0.0
C1595 C 0.59261 0.78147 0.23174 0.0
H1596 H 0.59834 0.8123 0.09768 0.0
C1597 C 0.58871 0.78674 0.30885 0.0
H1598 H 0.59845 0.787 0.09464 0.0
C1599 C 0.5887 0.80138 0.31067 0.0
C1600 C 0.59259 0.81106 0.23542 0.0
H1601 H 0.58635 0.77994 0.36884 0.0
H1602 H 0.58634 0.80543 0.37204 0.0
C1603 C 0.59543 0.80525 0.1571 0.0
C1604 C 0.21416 0.80215 0.29364 0.0
C1605 C 0.21922 0.81184 0.21825 0.0
H1606 H 0.19573 0.78068 0.35465 0.0
C1607 C 0.20991 0.80597 0.14188 0.0
H1608 H 0.22108 0.80622 0.35347 0.0
C1609 C 0.19534 0.79128 0.14255 0.0
C1610 C 0.18974 0.78214 0.21962 0.0
H1611 H 0.21351 0.81303 0.08238 0.0
H1612 H 0.18815 0.78747 0.08355 0.0
C1613 C 0.19959 0.78747 0.29432 0.0
C1614 C 0.4121 0.19929 0.69742 0.0
C1615 C 0.40777 0.18954 0.77248 0.0
H1616 H 0.41469 0.22071 0.63798 0.0
C1617 C 0.40442 0.19524 0.84976 0.0
H1618 H 0.41487 0.19534 0.63691 0.0
C1619 C 0.40432 0.20981 0.85037 0.0
C1620 C 0.40756 0.21902 0.77373 0.0
H1621 H 0.40119 0.18812 0.90903 0.0
H1622 H 0.40099 0.21347 0.91008 0.0
C1623 C 0.412 0.21387 0.69804 0.0
C1624 C 0.78757 0.19903 0.70075 0.0
C1625 C 0.78214 0.18954 0.77673 0.0
H1626 H 0.80645 0.22023 0.6397 0.0
C1627 C 0.79121 0.19548 0.85377 0.0
H1628 H 0.78084 0.19489 0.64036 0.0
C1629 C 0.80591 0.21002 0.85338 0.0
C1630 C 0.81189 0.21897 0.77596 0.0
H1631 H 0.78734 0.18857 0.91369 0.0
H1632 H 0.81291 0.21386 0.91303 0.0
C1633 C 0.80228 0.21359 0.70037 0.0
C1634 C 0.80195 0.58878 0.69815 0.0
C1635 C 0.81148 0.59294 0.77404 0.0
H1636 H 0.78068 0.5863 0.63717 0.0
C1637 C 0.80552 0.59608 0.85101 0.0
H1638 H 0.80611 0.58619 0.63781 0.0
C1639 C 0.79093 0.59614 0.85063 0.0
C1640 C 0.78194 0.59307 0.77328 0.0
H1641 H 0.81246 0.59919 0.91086 0.0
H1642 H 0.78707 0.5993 0.91021 0.0
C1643 C 0.78735 0.58884 0.69778 0.0
C1644 C 0.87657 0.73745 0.47591 0.0
C1645 C 0.88564 0.74083 0.55318 0.0
H1646 H 0.85496 0.73415 0.41538 0.0
C1647 C 0.88032 0.74535 0.6279 0.0
H1648 H 0.88038 0.73407 0.41689 0.0
C1649 C 0.86572 0.74541 0.62702 0.0
C1650 C 0.8561 0.74093 0.55142 0.0
H1651 H 0.88705 0.74816 0.68836 0.0
H1652 H 0.86165 0.74826 0.68685 0.0
C1653 C 0.86197 0.7375 0.47504 0.0
C1654 C 0.26302 0.13847 0.47374 0.0
C1655 C 0.25969 0.14424 0.55082 0.0
H1656 H 0.26644 0.12019 0.41397 0.0
C1657 C 0.25538 0.13455 0.62613 0.0
H1658 H 0.26625 0.14554 0.41429 0.0
C1659 C 0.25548 0.11997 0.62593 0.0
C1660 C 0.2599 0.11475 0.55042 0.0
H1661 H 0.25262 0.13854 0.6865 0.0
H1662 H 0.2528 0.11317 0.68616 0.0
C1663 C 0.26312 0.1239 0.47355 0.0
C1664 C 0.87977 0.13447 0.63155 0.0
C1665 C 0.88515 0.14415 0.5562 0.0
H1666 H 0.86095 0.11313 0.69171 0.0
C1667 C 0.87604 0.13838 0.47915 0.0
H1668 H 0.88653 0.13847 0.6919 0.0
C1669 C 0.86135 0.12382 0.47905 0.0
C1670 C 0.85543 0.11469 0.55597 0.0
H1671 H 0.87989 0.14544 0.41967 0.0
H1672 H 0.85432 0.12011 0.4195 0.0
C1673 C 0.86507 0.11991 0.63144 0.0
C1674 C 0.07071 0.54302 0.18659 0.0
C1675 C 0.07399 0.55221 0.10988 0.0
H1676 H 0.0676 0.52136 0.24559 0.0
C1677 C 0.07848 0.54706 0.03439 0.0
H1678 H 0.06734 0.54668 0.24614 0.0
C1679 C 0.07862 0.5325 0.03405 0.0
C1680 C 0.07427 0.52277 0.1092 0.0
H1681 H 0.0812 0.55389 0.97428 0.0
H1682 H 0.08145 0.52856 0.9737 0.0
C1683 C 0.07085 0.52846 0.18626 0.0
C1684 C 0.45377 0.53168 0.03669 0.0
C1685 C 0.44867 0.52199 0.11204 0.0
H1686 H 0.47229 0.55308 0.97558 0.0
C1687 C 0.45805 0.52776 0.18824 0.0
H1688 H 0.44679 0.52769 0.97701 0.0
C1689 C 0.47271 0.54235 0.18741 0.0
C1690 C 0.47833 0.55151 0.11037 0.0
H1691 H 0.45443 0.52068 0.24769 0.0
H1692 H 0.47995 0.54609 0.24627 0.0
C1693 C 0.46843 0.54627 0.03587 0.0
C1694 C 0.47007 0.92328 0.02522 0.0
C1695 C 0.4788 0.92632 0.10354 0.0
H1696 H 0.44929 0.92146 0.96139 0.0
C1697 C 0.47186 0.92797 0.18091 0.0
H1698 H 0.47498 0.92185 0.9644 0.0
C1699 C 0.45715 0.92777 0.17919 0.0
C1700 C 0.44898 0.92587 0.10003 0.0
H1701 H 0.47807 0.93008 0.2426 0.0
H1702 H 0.45255 0.92978 0.23958 0.0
C1703 C 0.45531 0.92305 0.02349 0.0
C1704 C 0.54652 0.07906 0.96653 0.0
C1705 C 0.55213 0.0748 0.89196 0.0
H1706 H 0.52754 0.08157 0.02449 0.0
C1707 C 0.54326 0.07152 0.81404 0.0
H1708 H 0.5531 0.08177 0.02751 0.0
C1709 C 0.52858 0.07141 0.81228 0.0
C1710 C 0.52242 0.07457 0.88842 0.0
H1711 H 0.54728 0.06835 0.7551 0.0
H1712 H 0.52173 0.06813 0.7521 0.0
C1713 C 0.53184 0.07894 0.96478 0.0
C1714 C 0.92232 0.45356 0.962 0.0
C1715 C 0.92698 0.44846 0.88694 0.0
H1716 H 0.91919 0.472 0.02216 0.0
C1717 C 0.93041 0.45769 0.81028 0.0
H1718 H 0.91947 0.44669 0.02203 0.0
C1719 C 0.93025 0.47224 0.81034 0.0
C1720 C 0.92665 0.47788 0.88708 0.0
H1721 H 0.9339 0.45406 0.75102 0.0
H1722 H 0.93362 0.47938 0.75114 0.0
C1723 C 0.92216 0.46811 0.96207 0.0
C1724 C 0.52803 0.45779 0.81079 0.0
C1725 C 0.52232 0.44861 0.88769 0.0
H1726 H 0.54638 0.47948 0.751 0.0
C1727 C 0.53214 0.45382 0.96251 0.0
H1728 H 0.52085 0.45408 0.7517 0.0
C1729 C 0.54681 0.4684 0.9621 0.0
C1730 C 0.55199 0.47812 0.88687 0.0
H1731 H 0.52821 0.44699 0.02271 0.0
H1732 H 0.55372 0.47237 0.02201 0.0
C1733 C 0.5427 0.47238 0.81038 0.0
C1734 C 0.7452 0.87993 0.35985 0.0
C1735 C 0.74131 0.88528 0.43674 0.0
H1736 H 0.74748 0.86117 0.2971 0.0
C1737 C 0.7385 0.8762 0.5135 0.0
H1738 H 0.74756 0.88667 0.29964 0.0
C1739 C 0.73846 0.86156 0.51201 0.0
C1740 C 0.74124 0.85566 0.43377 0.0
H1741 H 0.73563 0.88003 0.57412 0.0
H1742 H 0.73554 0.85455 0.57155 0.0
C1743 C 0.74517 0.86528 0.35838 0.0
C1744 C 0.12462 0.86114 0.51951 0.0
C1745 C 0.11536 0.85519 0.44306 0.0
H1746 H 0.14636 0.87967 0.57782 0.0
C1747 C 0.12048 0.86478 0.36734 0.0
H1748 H 0.12099 0.85415 0.57923 0.0
C1749 C 0.13507 0.87945 0.36651 0.0
C1750 C 0.14487 0.88486 0.44137 0.0
H1751 H 0.11359 0.86064 0.30742 0.0
H1752 H 0.13898 0.88617 0.30598 0.0
C1753 C 0.13921 0.8758 0.51869 0.0
C1754 C 0.1387 0.26169 0.50775 0.0
C1755 C 0.14489 0.25905 0.43028 0.0
H1756 H 0.12013 0.26448 0.56777 0.0
C1757 C 0.13555 0.25528 0.35378 0.0
H1758 H 0.14549 0.26451 0.56805 0.0
C1759 C 0.12085 0.2552 0.35367 0.0
C1760 C 0.11521 0.25891 0.43003 0.0
H1761 H 0.1399 0.25309 0.29298 0.0
H1762 H 0.1143 0.25295 0.29284 0.0
C1763 C 0.12408 0.26165 0.50758 0.0
C1764 C 0.13055 0.38725 0.71952 0.0
C1765 C 0.14116 0.39607 0.78748 0.0
H1766 H 0.12616 0.38494 0.58243 0.0
C1767 C 0.15574 0.41025 0.76704 0.0
H1768 H 0.11914 0.37641 0.73285 0.0
C1769 C 0.15997 0.41495 0.68012 0.0
C1770 C 0.14935 0.40597 0.6127 0.0
H1771 H 0.16377 0.41794 0.81764 0.0
H1772 H 0.17139 0.4257 0.66569 0.0
C1773 C 0.13453 0.3922 0.63329 0.0
C1774 C 0.5821 0.74057 0.67104 0.0
C1775 C 0.59254 0.74172 0.60369 0.0
H1776 H 0.57825 0.73966 0.80844 0.0
C1777 C 0.60785 0.74397 0.62443 0.0
H1778 H 0.57018 0.73865 0.65641 0.0
C1779 C 0.6128 0.74538 0.71078 0.0
C1780 C 0.6025 0.74434 0.77876 0.0
H1781 H 0.61624 0.74507 0.57367 0.0
H1782 H 0.62481 0.7474 0.72416 0.0
C1783 C 0.58691 0.74151 0.7581 0.0
C1784 C 0.26675 0.86921 0.71916 0.0
C1785 C 0.25523 0.85821 0.77787 0.0
H1786 H 0.27536 0.87389 0.58768 0.0
C1787 C 0.24384 0.8427 0.74857 0.0
H1788 H 0.27569 0.88123 0.74041 0.0
C1789 C 0.24354 0.83852 0.66093 0.0
C1790 C 0.25472 0.84972 0.60136 0.0
H1791 H 0.23468 0.83408 0.79225 0.0
H1792 H 0.2342 0.82671 0.63926 0.0
C1793 C 0.26663 0.86495 0.63193 0.0
C1794 C 0.4025 0.13666 0.35706 0.0
C1795 C 0.40565 0.15186 0.38731 0.0
H1796 H 0.39547 0.12034 0.24885 0.0
C1797 C 0.40558 0.16297 0.32746 0.0
H1798 H 0.40238 0.12779 0.40154 0.0
C1799 C 0.40176 0.15873 0.23984 0.0
C1800 C 0.3978 0.14324 0.21085 0.0
H1801 H 0.40792 0.17475 0.34889 0.0
H1802 H 0.40114 0.16727 0.1959 0.0
C1803 C 0.39843 0.13234 0.26985 0.0
C1804 C 0.86475 0.26588 0.36 0.0
C1805 C 0.85045 0.25272 0.39237 0.0
H1806 H 0.88036 0.27635 0.24973 0.0
C1807 C 0.84011 0.24046 0.33454 0.0
H1808 H 0.87301 0.27546 0.40297 0.0
C1809 C 0.84429 0.24106 0.24672 0.0
C1810 C 0.85893 0.25384 0.21551 0.0
H1811 H 0.82904 0.23015 0.35769 0.0
H1812 H 0.8364 0.23117 0.20426 0.0
C1813 C 0.86903 0.26633 0.27254 0.0
C1814 C 0.76029 0.59959 0.33176 0.0
C1815 C 0.74801 0.59761 0.38959 0.0
H1816 H 0.76961 0.60523 0.2015 0.0
C1817 C 0.73484 0.59873 0.35723 0.0
H1818 H 0.77062 0.59885 0.35489 0.0
C1819 C 0.73439 0.60258 0.26979 0.0
C1820 C 0.74691 0.60502 0.21275 0.0
H1821 H 0.72524 0.59738 0.40021 0.0
H1822 H 0.72436 0.60388 0.247 0.0
C1823 C 0.7597 0.60319 0.24395 0.0
C1824 C 0.86413 0.59828 0.35919 0.0
C1825 C 0.8499 0.59726 0.3917 0.0
H1826 H 0.87969 0.60331 0.24879 0.0
C1827 C 0.8396 0.59927 0.33398 0.0
H1828 H 0.87237 0.59688 0.40209 0.0
C1829 C 0.84376 0.60284 0.24614 0.0
C1830 C 0.85835 0.60459 0.21479 0.0
H1831 H 0.82858 0.59861 0.35723 0.0
H1832 H 0.83592 0.60492 0.20376 0.0
C1833 C 0.8684 0.60208 0.27171 0.0
C1834 C 0.40165 0.26598 0.35863 0.0
C1835 C 0.40297 0.25293 0.39109 0.0
H1836 H 0.39629 0.27627 0.24835 0.0
C1837 C 0.40116 0.2407 0.33334 0.0
H1838 H 0.40288 0.27554 0.40154 0.0
C1839 C 0.3975 0.24121 0.24555 0.0
C1840 C 0.39546 0.25387 0.21426 0.0
H1841 H 0.40206 0.23047 0.35655 0.0
H1842 H 0.39558 0.23134 0.20319 0.0
C1843 C 0.39775 0.26635 0.2712 0.0
C1844 C 0.73438 0.1326 0.27457 0.0
C1845 C 0.74696 0.14265 0.2178 0.0
H1846 H 0.72513 0.12862 0.40481 0.0
C1847 C 0.75978 0.15723 0.24929 0.0
H1848 H 0.72433 0.12131 0.25155 0.0
C1849 C 0.76032 0.16138 0.3371 0.0
C1850 C 0.74797 0.15109 0.39466 0.0
H1851 H 0.76973 0.16508 0.20705 0.0
H1852 H 0.77066 0.17241 0.36047 0.0
C1853 C 0.73478 0.13686 0.36203 0.0
C1854 C 0.60197 0.86826 0.7375 0.0
C1855 C 0.60232 0.85722 0.79659 0.0
H1856 H 0.59827 0.87297 0.60573 0.0
C1857 C 0.59807 0.84166 0.76773 0.0
H1858 H 0.60515 0.88032 0.75844 0.0
C1859 C 0.59426 0.83745 0.68008 0.0
C1860 C 0.5945 0.84871 0.6201 0.0
H1861 H 0.59848 0.83301 0.81176 0.0
H1862 H 0.5917 0.8256 0.65873 0.0
C1863 C 0.59793 0.86399 0.65026 0.0
C1864 C 0.13699 0.73445 0.63592 0.0
C1865 C 0.15212 0.74662 0.60567 0.0
H1866 H 0.12067 0.72499 0.74416 0.0
C1867 C 0.16315 0.75789 0.6655 0.0
H1868 H 0.12818 0.72564 0.59146 0.0
C1869 C 0.15887 0.7574 0.75312 0.0
C1870 C 0.14344 0.74574 0.78213 0.0
H1871 H 0.17488 0.76744 0.64406 0.0
H1872 H 0.16735 0.76662 0.79706 0.0
C1873 C 0.13263 0.73414 0.72314 0.0
C1874 C 0.2665 0.39928 0.7334 0.0
C1875 C 0.25393 0.39684 0.78996 0.0
H1876 H 0.27569 0.4043 0.60309 0.0
C1877 C 0.2411 0.39856 0.75817 0.0
H1878 H 0.27656 0.39808 0.75672 0.0
C1879 C 0.24053 0.40201 0.67016 0.0
C1880 C 0.25284 0.40392 0.61277 0.0
H1881 H 0.23116 0.39652 0.80032 0.0
H1882 H 0.23017 0.40265 0.64653 0.0
C1883 C 0.26606 0.40296 0.64573 0.0
C1884 C 0.80298 0.73534 0.96457 0.0
C1885 C 0.81831 0.73894 0.9341 0.0
H1886 H 0.78665 0.72785 0.07294 0.0
C1887 C 0.82961 0.73919 0.99375 0.0
H1888 H 0.79397 0.73496 0.92027 0.0
C1889 C 0.82544 0.73524 0.08136 0.0
C1890 C 0.80984 0.73083 0.11057 0.0
H1891 H 0.8415 0.74188 0.97216 0.0
H1892 H 0.83415 0.73487 0.12508 0.0
C1893 C 0.79874 0.73115 0.05178 0.0
C1894 C 0.26564 0.06772 0.96622 0.0
C1895 C 0.26458 0.08092 0.9338 0.0
H1896 H 0.27071 0.05721 0.07652 0.0
C1897 C 0.26659 0.09322 0.99158 0.0
H1898 H 0.26426 0.05811 0.92328 0.0
C1899 C 0.27016 0.09261 0.07939 0.0
C1900 C 0.27194 0.07979 0.11066 0.0
H1901 H 0.26589 0.10357 0.96839 0.0
H1902 H 0.27223 0.10253 0.12182 0.0
C1903 C 0.26946 0.06726 0.05368 0.0
C1904 C 0.93282 0.19702 0.97076 0.0
C1905 C 0.92075 0.18186 0.94034 0.0
H1906 H 0.94213 0.2133 0.07915 0.0
C1907 C 0.90951 0.17075 4e-05 0.0
H1908 H 0.9416 0.20589 0.9264 0.0
C1909 C 0.90993 0.17497 0.08769 0.0
C1910 C 0.92148 0.19042 0.11685 0.0
H1911 H 0.90004 0.15899 0.97847 0.0
H1912 H 0.90072 0.16643 0.1315 0.0
C1913 C 0.93306 0.20132 0.058 0.0
C1914 C 0.07258 0.49637 0.6648 0.0
C1915 C 0.07256 0.48521 0.72468 0.0
H1916 H 0.06818 0.50072 0.53325 0.0
C1917 C 0.06928 0.46997 0.69446 0.0
H1918 H 0.07502 0.50818 0.68621 0.0
C1919 C 0.06518 0.46566 0.60726 0.0
C1920 C 0.06464 0.47661 0.54824 0.0
H1921 H 0.06908 0.46107 0.73894 0.0
H1922 H 0.06212 0.45363 0.58628 0.0
C1923 C 0.06873 0.49213 0.57719 0.0
C1924 C 0.53109 0.59912 0.6938 0.0
C1925 C 0.51597 0.58691 0.72398 0.0
H1926 H 0.5474 0.60865 0.58561 0.0
C1927 C 0.50496 0.57565 0.66406 0.0
H1928 H 0.53988 0.60793 0.73832 0.0
C1929 C 0.50924 0.57618 0.57643 0.0
C1930 C 0.52467 0.58788 0.5475 0.0
H1931 H 0.49324 0.56608 0.68544 0.0
H1932 H 0.50079 0.56696 0.53242 0.0
C1933 C 0.53545 0.59948 0.60657 0.0
C1934 C 0.42652 0.9357 0.57168 0.0
C1935 C 0.41373 0.93754 0.54039 0.0
H1936 H 0.43744 0.93141 0.68274 0.0
C1937 C 0.40122 0.93513 0.59736 0.0
H1938 H 0.43642 0.93771 0.52925 0.0
C1939 C 0.40167 0.93133 0.68485 0.0
C1940 C 0.41485 0.93022 0.71729 0.0
H1941 H 0.3912 0.93643 0.57447 0.0
H1942 H 0.39208 0.93001 0.7278 0.0
C1943 C 0.42711 0.93214 0.65952 0.0
C1944 C 0.50827 0.91873 0.66258 0.0
C1945 C 0.51868 0.92805 0.72993 0.0
H1946 H 0.50449 0.9156 0.5251 0.0
C1947 C 0.5331 0.94227 0.70923 0.0
H1948 H 0.49716 0.90764 0.67709 0.0
C1949 C 0.53688 0.9473 0.62299 0.0
C1950 C 0.52647 0.93812 0.5551 0.0
H1951 H 0.54129 0.94981 0.76001 0.0
H1952 H 0.54797 0.95848 0.6096 0.0
C1953 C 0.51232 0.92353 0.57563 0.0
C1954 C 0.06459 0.5998 0.60682 0.0
C1955 C 0.06206 0.58725 0.54991 0.0
H1956 H 0.06983 0.60898 0.73716 0.0
C1957 C 0.0638 0.5744 0.58125 0.0
H1958 H 0.06336 0.60987 0.58393 0.0
C1959 C 0.06739 0.57381 0.66906 0.0
C1960 C 0.06944 0.58613 0.72677 0.0
H1961 H 0.0617 0.56447 0.53888 0.0
H1962 H 0.06805 0.56345 0.6923 0.0
C1963 C 0.06842 0.59935 0.69428 0.0
C1964 C 0.42378 0.49126 0.58165 0.0
C1965 C 0.41237 0.47576 0.55242 0.0
H1966 H 0.43348 0.50727 0.69088 0.0
C1967 C 0.40083 0.46479 0.61119 0.0
H1968 H 0.43296 0.49986 0.53792 0.0
C1969 C 0.40097 0.46907 0.6984 0.0
C1970 C 0.41292 0.48429 0.7289 0.0
H1971 H 0.39186 0.45277 0.59 0.0
H1972 H 0.39223 0.46015 0.7427 0.0
C1973 C 0.42411 0.49546 0.66927 0.0
C1974 C 0.26556 0.17498 0.08227 0.0
C1975 C 0.26975 0.19052 0.11137 0.0
H1976 H 0.25915 0.15894 0.97316 0.0
C1977 C 0.26927 0.20152 0.05249 0.0
H1978 H 0.26606 0.16636 0.12609 0.0
C1979 C 0.26512 0.19724 0.96529 0.0
C1980 C 0.26173 0.18198 0.93493 0.0
H1981 H 0.27241 0.21357 0.07357 0.0
H1982 H 0.26537 0.20618 0.92091 0.0
C1983 C 0.26166 0.17077 0.99467 0.0
C1984 C 0.8026 0.0678 0.97206 0.0
C1985 C 0.81685 0.08101 0.93963 0.0
H1986 H 0.78702 0.05727 0.08238 0.0
C1987 C 0.82713 0.09332 0.99738 0.0
H1988 H 0.79438 0.05818 0.92914 0.0
C1989 C 0.82295 0.09271 0.08519 0.0
C1990 C 0.80835 0.07987 0.11648 0.0
H1991 H 0.83816 0.10367 0.97418 0.0
H1992 H 0.83079 0.10263 0.12761 0.0
C1993 C 0.79832 0.06733 0.05952 0.0
C1994 C 0.90969 0.73819 -0.00066 0.0
C1995 C 0.92091 0.73834 0.93943 0.0
H1996 H 0.901 0.73374 0.13099 0.0
C1997 C 0.93303 0.73529 0.96964 0.0
H1998 H 0.90019 0.74045 0.97794 0.0
C1999 C 0.93335 0.73127 0.05687 0.0
C2000 C 0.92179 0.73057 0.11593 0.0
H2001 H 0.9418 0.73523 0.92513 0.0
H2002 H 0.94245 0.7284 0.07786 0.0
C2003 C 0.91019 0.73442 0.08698 0.0
C2004 C 0.49 0.06413 0.41412 0.0
C2005 C 0.47543 0.06236 0.4458 0.0
H2006 H 0.50511 0.06836 0.30269 0.0
C2007 C 0.46532 0.06483 0.38917 0.0
H2008 H 0.49789 0.06207 0.4563 0.0
C2009 C 0.46951 0.06862 0.3016 0.0
C2010 C 0.48373 0.06965 0.26876 0.0
H2011 H 0.45404 0.06359 0.41236 0.0
H2012 H 0.46123 0.06998 0.25893 0.0
C2013 C 0.49409 0.06768 0.32621 0.0
C2014 C 0.93331 0.42387 0.41879 0.0
C2015 C 0.9373 0.41237 0.44796 0.0
H2016 H 0.92714 0.4337 0.30956 0.0
C2017 C 0.93668 0.40083 0.38912 0.0
H2018 H 0.93393 0.43305 0.4626 0.0
C2019 C 0.93261 0.40106 0.30188 0.0
C2020 C 0.92944 0.41308 0.27144 0.0
H2021 H 0.93965 0.39181 0.41028 0.0
H2022 H 0.93274 0.3923 0.25753 0.0
C2023 C 0.92949 0.42427 0.33114 0.0
C2024 C 0.57644 0.50468 0.33043 0.0
C2025 C 0.58766 0.5158 0.27073 0.0
H2026 H 0.56764 0.50035 0.46187 0.0
C2027 C 0.59971 0.53098 0.30116 0.0
H2028 H 0.567 0.49291 0.30886 0.0
C2029 C 0.59993 0.53527 0.38839 0.0
C2030 C 0.58836 0.52437 0.44723 0.0
H2031 H 0.60848 0.53986 0.25681 0.0
H2032 H 0.60897 0.54726 0.40953 0.0
C2033 C 0.57684 0.5089 0.41807 0.0
C2034 C 0.73549 0.80288 0.01645 0.0
C2035 C 0.73656 0.81715 0.04867 0.0
H2036 H 0.73038 0.78724 0.90635 0.0
C2037 C 0.73452 0.82741 0.99076 0.0
H2038 H 0.73689 0.79467 0.05951 0.0
C2039 C 0.73092 0.82319 0.90301 0.0
C2040 C 0.72914 0.80858 0.87192 0.0
H2041 H 0.73522 0.83846 0.0138 0.0
H2042 H 0.72884 0.83102 0.86048 0.0
C2043 C 0.73164 0.79855 0.92905 0.0
C2044 C 0.1757 0.90965 0.90819 0.0
C2045 C 0.19115 0.92127 0.87918 0.0
H2046 H 0.15969 0.89967 0.01727 0.0
C2047 C 0.20199 0.93285 0.93816 0.0
H2048 H 0.16721 0.90045 0.86427 0.0
C2049 C 0.19764 0.93255 0.02538 0.0
C2050 C 0.18249 0.92042 0.05565 0.0
H2051 H 0.21396 0.94197 0.91714 0.0
H2052 H 0.20647 0.94135 0.06984 0.0
C2053 C 0.17144 0.90918 0.99582 0.0
C2054 C 0.07781 0.27395 0.03541 0.0
C2055 C 0.07536 0.25856 0.05584 0.0
H2056 H 0.08141 0.29103 0.93599 0.0
C2057 C 0.07396 0.24808 0.98828 0.0
H2058 H 0.07909 0.28237 0.08638 0.0
C2059 C 0.07488 0.25292 0.90131 0.0
C2060 C 0.07794 0.26859 0.88085 0.0
H2061 H 0.07188 0.23608 0.00268 0.0
H2062 H 0.07283 0.24421 0.85095 0.0
C2063 C 0.07921 0.27895 0.9491 0.0
C2064 C 0.20195 0.26862 0.92975 0.0
C2065 C 0.19182 0.27105 0.87313 0.0
H2066 H 0.2061 0.26357 0.06005 0.0
C2067 C 0.17726 0.26931 0.90484 0.0
H2068 H 0.21322 0.26984 0.9065 0.0
C2069 C 0.17321 0.26583 0.99281 0.0
C2070 C 0.1836 0.26391 0.05025 0.0
H2071 H 0.16936 0.27134 0.86265 0.0
H2072 H 0.1622 0.26517 0.01637 0.0
C2073 C 0.1978 0.26491 0.01738 0.0
C2074 C 0.73136 0.9328 0.94113 0.0
C2075 C 0.73267 0.92234 0.88171 0.0
H2076 H 0.73412 0.94104 0.07283 0.0
C2077 C 0.73912 0.91276 0.91007 0.0
H2078 H 0.7265 0.94038 0.92073 0.0
C2079 C 0.74344 0.91306 0.99749 0.0
C2080 C 0.74142 0.92299 0.0579 0.0
H2081 H 0.74003 0.9044 0.86602 0.0
H2082 H 0.74771 0.90501 0.01839 0.0
C2083 C 0.73582 0.93323 0.02814 0.0
C2084 C 0.09315 0.82285 0.91522 0.0
C2085 C 0.08034 0.80824 0.88388 0.0
H2086 H 0.10405 0.83805 0.02628 0.0
C2087 C 0.0678 0.79817 0.94078 0.0
H2088 H 0.10307 0.83071 0.87286 0.0
C2089 C 0.06822 0.80244 0.02824 0.0
C2090 C 0.0814 0.8167 0.06074 0.0
H2091 H 0.05776 0.78687 0.91788 0.0
H2092 H 0.0586 0.79419 0.07112 0.0
C2093 C 0.09371 0.82701 0.00303 0.0
C2094 C 0.92881 0.50443 0.33174 0.0
C2095 C 0.92859 0.51548 0.27196 0.0
H2096 H 0.93333 0.50019 0.46326 0.0
C2097 C 0.93159 0.53062 0.30227 0.0
H2098 H 0.92659 0.49269 0.31025 0.0
C2099 C 0.93564 0.53495 0.38949 0.0
C2100 C 0.93641 0.52412 0.44843 0.0
H2101 H 0.93161 0.53944 0.25785 0.0
H2102 H 0.93848 0.54691 0.41056 0.0
C2103 C 0.9326 0.50868 0.41937 0.0
C2104 C 0.46508 0.40081 0.39059 0.0
C2105 C 0.47595 0.4124 0.44947 0.0
H2106 H 0.46056 0.39227 0.259 0.0
C2107 C 0.49141 0.42397 0.42034 0.0
H2108 H 0.4531 0.39173 0.41171 0.0
C2109 C 0.49566 0.4244 0.33271 0.0
C2110 C 0.48457 0.41315 0.27299 0.0
H2111 H 0.49993 0.43318 0.46417 0.0
H2112 H 0.50741 0.43388 0.31117 0.0
C2113 C 0.46941 0.40106 0.30337 0.0
C2114 C 0.57629 0.07232 0.3389 0.0
C2115 C 0.58756 0.07256 0.27904 0.0
H2116 H 0.56754 0.06776 0.47045 0.0
C2117 C 0.5997 0.06955 0.30925 0.0
H2118 H 0.56676 0.07454 0.31749 0.0
C2119 C 0.59999 0.06547 0.39644 0.0
C2120 C 0.58839 0.06469 0.45547 0.0
H2121 H 0.60851 0.06955 0.26475 0.0
H2122 H 0.60911 0.06262 0.41742 0.0
C2123 C 0.57675 0.0685 0.4265 0.0
loop_
_geom_bond_atom_site_label_1
_geom_bond_atom_site_label_2
_geom_bond_distance
_geom_bond_site_symmetry_2
_ccdc_geom_bond_type
Co0 O3 1.970 . S
Co0 N17 1.989 . S
Co0 O25 1.967 . S
Co0 O32 1.920 . S
Co1 O4 1.966 . S
Co1 N10 2.022 . S
Co1 N18 1.993 . S
Co1 O26 1.941 . S
C2 O3 1.258 . S
C2 O4 1.263 . S
O3 Co0 1.970 . S
O3 C2 1.258 . S
O4 Co1 1.966 . S
O4 C2 1.263 . S
C5 O6 1.235 . S
C5 O32 1.289 . S
O6 C5 1.235 . S
C7 C9 1.400 . S
C7 N10 1.351 1_556 S
C7 C12 1.501 . S
C8 C9 1.387 . S
C8 N11 1.341 . S
C9 C7 1.400 . S
C9 C8 1.387 . S
N10 Co1 2.022 . S
N10 C7 1.351 1_554 S
N10 N11 1.365 1_554 S
N11 C8 1.341 . S
N11 N10 1.365 1_556 S
N11 H31 0.862 . S
C12 C7 1.501 . S
C12 H13 0.961 1_556 S
C12 H14 0.961 . S
C12 H15 0.960 . S
H13 C12 0.961 1_554 S
H14 C12 0.961 . S
H15 C12 0.960 . S
C16 N17 1.342 . S
C16 C20 1.401 . S
C16 C21 1.499 . S
N17 Co0 1.989 . S
N17 C16 1.342 . S
N17 N18 1.388 . S
N18 Co1 1.993 . S
N18 N17 1.388 . S
N18 C19 1.346 . S
C19 N18 1.346 . S
C19 C20 1.396 . S
C19 C29 1.510 . S
C20 C16 1.401 . S
C20 C19 1.396 . S
C21 C16 1.499 . S
C21 H22 0.959 . S
C21 H23 0.960 . S
C21 H24 0.961 . S
H22 C21 0.959 . S
H23 C21 0.960 . S
H24 C21 0.961 . S
O25 Co0 1.967 . S
O25 C33 1.258 . S
O26 Co1 1.941 . S
O26 C33 1.266 . S
H27 C29 0.959 . S
H28 C29 0.961 . S
C29 C19 1.510 . S
C29 H27 0.959 . S
C29 H28 0.961 . S
C29 H30 0.960 . S
H30 C29 0.960 . S
H31 N11 0.862 . S
O32 Co0 1.920 . S
O32 C5 1.289 . S
C33 O25 1.258 . S
C33 O26 1.266 . S
Co34 O37 1.970 . S
Co34 N51 1.989 . S
Co34 O59 1.967 . S
Co34 O66 1.920 . S
Co35 O38 1.966 . S
Co35 N44 2.022 . S
Co35 N52 1.993 . S
Co35 O60 1.941 . S
C36 O37 1.258 . S
C36 O38 1.263 . S
O37 Co34 1.970 . S
O37 C36 1.258 . S
O38 Co35 1.966 . S
O38 C36 1.263 . S
C39 O40 1.235 . S
C39 O66 1.289 . S
O40 C39 1.235 . S
C41 C43 1.400 . S
C41 N44 1.351 1_556 S
C41 C46 1.501 . S
C42 C43 1.387 . S
C42 N45 1.341 . S
C43 C41 1.400 . S
C43 C42 1.387 . S
N44 Co35 2.022 . S
N44 C41 1.351 1_554 S
N44 N45 1.365 1_554 S
N45 C42 1.341 . S
N45 N44 1.365 1_556 S
N45 H65 0.862 . S
C46 C41 1.501 . S
C46 H47 0.961 1_556 S
C46 H48 0.961 . S
C46 H49 0.960 . S
H47 C46 0.961 1_554 S
H48 C46 0.961 . S
H49 C46 0.960 . S
C50 N51 1.342 . S
C50 C54 1.401 . S
C50 C55 1.499 . S
N51 Co34 1.989 . S
N51 C50 1.342 . S
N51 N52 1.388 . S
N52 Co35 1.993 . S
N52 N51 1.388 . S
N52 C53 1.346 . S
C53 N52 1.346 . S
C53 C54 1.396 . S
C53 C63 1.510 . S
C54 C50 1.401 . S
C54 C53 1.396 . S
C55 C50 1.499 . S
C55 H56 0.959 . S
C55 H57 0.960 . S
C55 H58 0.961 . S
H56 C55 0.959 . S
H57 C55 0.960 . S
H58 C55 0.961 . S
O59 Co34 1.967 . S
O59 C67 1.258 . S
O60 Co35 1.941 . S
O60 C67 1.266 . S
H61 C63 0.959 . S
H62 C63 0.961 . S
C63 C53 1.510 . S
C63 H61 0.959 . S
C63 H62 0.961 . S
C63 H64 0.960 . S
H64 C63 0.960 . S
H65 N45 0.862 . S
O66 Co34 1.920 . S
O66 C39 1.289 . S
C67 O59 1.258 . S
C67 O60 1.266 . S
Co68 O71 1.970 . S
Co68 N85 1.989 . S
Co68 O93 1.967 . S
Co68 O100 1.920 . S
Co69 O72 1.966 . S
Co69 N78 2.022 . S
Co69 N86 1.993 . S
Co69 O94 1.941 . S
C70 O71 1.258 . S
C70 O72 1.263 . S
O71 Co68 1.970 . S
O71 C70 1.258 . S
O72 Co69 1.966 . S
O72 C70 1.263 . S
C73 O74 1.235 . S
C73 O100 1.289 . S
O74 C73 1.235 . S
C75 C77 1.400 . S
C75 N78 1.351 1_556 S
C75 C80 1.501 . S
C76 C77 1.387 . S
C76 N79 1.341 . S
C77 C75 1.400 . S
C77 C76 1.387 . S
N78 Co69 2.022 . S
N78 C75 1.351 1_554 S
N78 N79 1.365 1_554 S
N79 C76 1.341 . S
N79 N78 1.365 1_556 S
N79 H99 0.862 . S
C80 C75 1.501 . S
C80 H81 0.961 1_556 S
C80 H82 0.961 . S
C80 H83 0.960 . S
H81 C80 0.961 1_554 S
H82 C80 0.961 . S
H83 C80 0.960 . S
C84 N85 1.342 . S
C84 C88 1.401 . S
C84 C89 1.499 . S
N85 Co68 1.989 . S
N85 C84 1.342 . S
N85 N86 1.388 . S
N86 Co69 1.993 . S
N86 N85 1.388 . S
N86 C87 1.346 . S
C87 N86 1.346 . S
C87 C88 1.396 . S
C87 C97 1.510 . S
C88 C84 1.401 . S
C88 C87 1.396 . S
C89 C84 1.499 . S
C89 H90 0.959 . S
C89 H91 0.960 . S
C89 H92 0.961 . S
H90 C89 0.959 . S
H91 C89 0.960 . S
H92 C89 0.961 . S
O93 Co68 1.967 . S
O93 C101 1.258 . S
O94 Co69 1.941 . S
O94 C101 1.266 . S
H95 C97 0.959 . S
H96 C97 0.961 . S
C97 C87 1.510 . S
C97 H95 0.959 . S
C97 H96 0.961 . S
C97 H98 0.960 . S
H98 C97 0.960 . S
H99 N79 0.862 . S
O100 Co68 1.920 . S
O100 C73 1.289 . S
C101 O93 1.258 . S
C101 O94 1.266 . S
Co102 O105 1.970 . S
Co102 N119 1.989 . S
Co102 O127 1.967 . S
Co102 O134 1.920 . S
Co103 O106 1.966 . S
Co103 N112 2.022 . S
Co103 N120 1.993 . S
Co103 O128 1.941 . S
C104 O105 1.258 . S
C104 O106 1.263 . S
O105 Co102 1.970 . S
O105 C104 1.258 . S
O106 Co103 1.966 . S
O106 C104 1.263 . S
C107 O108 1.235 . S
C107 O134 1.289 . S
O108 C107 1.235 . S
C109 C111 1.400 . S
C109 N112 1.351 1_554 S
C109 C114 1.501 . S
C110 C111 1.387 . S
C110 N113 1.341 . S
C111 C109 1.400 . S
C111 C110 1.387 . S
N112 Co103 2.022 . S
N112 C109 1.351 1_556 S
N112 N113 1.365 1_556 S
N113 C110 1.341 . S
N113 N112 1.365 1_554 S
N113 H133 0.862 . S
C114 C109 1.501 . S
C114 H115 0.961 1_554 S
C114 H116 0.961 . S
C114 H117 0.960 . S
H115 C114 0.961 1_556 S
H116 C114 0.961 . S
H117 C114 0.960 . S
C118 N119 1.342 . S
C118 C122 1.401 . S
C118 C123 1.499 . S
N119 Co102 1.989 . S
N119 C118 1.342 . S
N119 N120 1.388 . S
N120 Co103 1.993 . S
N120 N119 1.388 . S
N120 C121 1.346 . S
C121 N120 1.346 . S
C121 C122 1.396 . S
C121 C131 1.510 . S
C122 C118 1.401 . S
C122 C121 1.396 . S
C123 C118 1.499 . S
C123 H124 0.959 . S
C123 H125 0.960 . S
C123 H126 0.961 . S
H124 C123 0.959 . S
H125 C123 0.960 . S
H126 C123 0.961 . S
O127 Co102 1.967 . S
O127 C135 1.258 . S
O128 Co103 1.941 . S
O128 C135 1.266 . S
H129 C131 0.959 . S
H130 C131 0.961 . S
C131 C121 1.510 . S
C131 H129 0.959 . S
C131 H130 0.961 . S
C131 H132 0.960 . S
H132 C131 0.960 . S
H133 N113 0.862 . S
O134 Co102 1.920 . S
O134 C107 1.289 . S
C135 O127 1.258 . S
C135 O128 1.266 . S
Co136 O139 1.970 . S
Co136 N153 1.989 . S
Co136 O161 1.967 . S
Co136 O168 1.920 . S
Co137 O140 1.966 . S
Co137 N146 2.022 . S
Co137 N154 1.993 . S
Co137 O162 1.941 . S
C138 O139 1.258 . S
C138 O140 1.263 . S
O139 Co136 1.970 . S
O139 C138 1.258 . S
O140 Co137 1.966 . S
O140 C138 1.263 . S
C141 O142 1.235 . S
C141 O168 1.289 . S
O142 C141 1.235 . S
C143 C145 1.400 . S
C143 N146 1.351 1_554 S
C143 C148 1.501 . S
C144 C145 1.387 . S
C144 N147 1.341 . S
C145 C143 1.400 . S
C145 C144 1.387 . S
N146 Co137 2.022 . S
N146 C143 1.351 1_556 S
N146 N147 1.365 1_556 S
N147 C144 1.341 . S
N147 N146 1.365 1_554 S
N147 H167 0.862 . S
C148 C143 1.501 . S
C148 H149 0.961 1_554 S
C148 H150 0.961 . S
C148 H151 0.960 . S
H149 C148 0.961 1_556 S
H150 C148 0.961 . S
H151 C148 0.960 . S
C152 N153 1.342 . S
C152 C156 1.401 . S
C152 C157 1.499 . S
N153 Co136 1.989 . S
N153 C152 1.342 . S
N153 N154 1.388 . S
N154 Co137 1.993 . S
N154 N153 1.388 . S
N154 C155 1.346 . S
C155 N154 1.346 . S
C155 C156 1.396 . S
C155 C165 1.510 . S
C156 C152 1.401 . S
C156 C155 1.396 . S
C157 C152 1.499 . S
C157 H158 0.959 . S
C157 H159 0.960 . S
C157 H160 0.961 . S
H158 C157 0.959 . S
H159 C157 0.960 . S
H160 C157 0.961 . S
O161 Co136 1.967 . S
O161 C169 1.258 . S
O162 Co137 1.941 . S
O162 C169 1.266 . S
H163 C165 0.959 . S
H164 C165 0.961 . S
C165 C155 1.510 . S
C165 H163 0.959 . S
C165 H164 0.961 . S
C165 H166 0.960 . S
H166 C165 0.960 . S
H167 N147 0.862 . S
O168 Co136 1.920 . S
O168 C141 1.289 . S
C169 O161 1.258 . S
C169 O162 1.266 . S
Co170 O173 1.970 . S
Co170 N187 1.989 . S
Co170 O195 1.967 . S
Co170 O202 1.920 . S
Co171 O174 1.966 . S
Co171 N180 2.022 . S
Co171 N188 1.993 . S
Co171 O196 1.941 . S
C172 O173 1.258 . S
C172 O174 1.263 . S
O173 Co170 1.970 . S
O173 C172 1.258 . S
O174 Co171 1.966 . S
O174 C172 1.263 . S
C175 O176 1.235 . S
C175 O202 1.289 . S
O176 C175 1.235 . S
C177 C179 1.400 . S
C177 N180 1.351 1_554 S
C177 C182 1.501 . S
C178 C179 1.387 . S
C178 N181 1.341 . S
C179 C177 1.400 . S
C179 C178 1.387 . S
N180 Co171 2.022 . S
N180 C177 1.351 1_556 S
N180 N181 1.365 1_556 S
N181 C178 1.341 . S
N181 N180 1.365 1_554 S
N181 H201 0.862 . S
C182 C177 1.501 . S
C182 H183 0.961 1_554 S
C182 H184 0.961 . S
C182 H185 0.960 . S
H183 C182 0.961 1_556 S
H184 C182 0.961 . S
H185 C182 0.960 . S
C186 N187 1.342 . S
C186 C190 1.401 . S
C186 C191 1.499 . S
N187 Co170 1.989 . S
N187 C186 1.342 . S
N187 N188 1.388 . S
N188 Co171 1.993 . S
N188 N187 1.388 . S
N188 C189 1.346 . S
C189 N188 1.346 . S
C189 C190 1.396 . S
C189 C199 1.510 . S
C190 C186 1.401 . S
C190 C189 1.396 . S
C191 C186 1.499 . S
C191 H192 0.959 . S
C191 H193 0.960 . S
C191 H194 0.961 . S
H192 C191 0.959 . S
H193 C191 0.960 . S
H194 C191 0.961 . S
O195 Co170 1.967 . S
O195 C203 1.258 . S
O196 Co171 1.941 . S
O196 C203 1.266 . S
H197 C199 0.959 . S
H198 C199 0.961 . S
C199 C189 1.510 . S
C199 H197 0.959 . S
C199 H198 0.961 . S
C199 H200 0.960 . S
H200 C199 0.960 . S
H201 N181 0.862 . S
O202 Co170 1.920 . S
O202 C175 1.289 . S
C203 O195 1.258 . S
C203 O196 1.266 . S
Co204 O207 1.970 . S
Co204 N221 1.989 . S
Co204 O229 1.967 . S
Co204 O236 1.920 . S
Co205 O208 1.966 . S
Co205 N214 2.022 . S
Co205 N222 1.993 . S
Co205 O230 1.941 . S
C206 O207 1.258 . S
C206 O208 1.263 . S
O207 Co204 1.970 . S
O207 C206 1.258 . S
O208 Co205 1.966 . S
O208 C206 1.263 . S
C209 O210 1.235 . S
C209 O236 1.289 . S
O210 C209 1.235 . S
C211 C213 1.400 . S
C211 N214 1.351 1_554 S
C211 C216 1.501 . S
C212 C213 1.387 . S
C212 N215 1.341 . S
C213 C211 1.400 . S
C213 C212 1.387 . S
N214 Co205 2.022 . S
N214 C211 1.351 1_556 S
N214 N215 1.365 1_556 S
N215 C212 1.341 . S
N215 N214 1.365 1_554 S
N215 H235 0.862 . S
C216 C211 1.501 . S
C216 H217 0.961 1_554 S
C216 H218 0.961 . S
C216 H219 0.960 . S
H217 C216 0.961 1_556 S
H218 C216 0.961 . S
H219 C216 0.960 . S
C220 N221 1.342 . S
C220 C224 1.401 . S
C220 C225 1.499 . S
N221 Co204 1.989 . S
N221 C220 1.342 . S
N221 N222 1.388 . S
N222 Co205 1.993 . S
N222 N221 1.388 . S
N222 C223 1.346 . S
C223 N222 1.346 . S
C223 C224 1.396 . S
C223 C233 1.510 . S
C224 C220 1.401 . S
C224 C223 1.396 . S
C225 C220 1.499 . S
C225 H226 0.959 . S
C225 H227 0.960 . S
C225 H228 0.961 . S
H226 C225 0.959 . S
H227 C225 0.960 . S
H228 C225 0.961 . S
O229 Co204 1.967 . S
O229 C237 1.258 . S
O230 Co205 1.941 . S
O230 C237 1.266 . S
H231 C233 0.959 . S
H232 C233 0.961 . S
C233 C223 1.510 . S
C233 H231 0.959 . S
C233 H232 0.961 . S
C233 H234 0.960 . S
H234 C233 0.960 . S
H235 N215 0.862 . S
O236 Co204 1.920 . S
O236 C209 1.289 . S
C237 O229 1.258 . S
C237 O230 1.266 . S
Co238 O241 1.970 . S
Co238 N255 1.989 . S
Co238 O263 1.967 . S
Co238 O270 1.920 . S
Co239 O242 1.966 . S
Co239 N248 2.022 . S
Co239 N256 1.993 . S
Co239 O264 1.941 . S
C240 O241 1.258 . S
C240 O242 1.263 . S
O241 Co238 1.970 . S
O241 C240 1.258 . S
O242 Co239 1.966 . S
O242 C240 1.263 . S
C243 O244 1.235 . S
C243 O270 1.289 . S
O244 C243 1.235 . S
C245 C247 1.400 . S
C245 N248 1.351 1_554 S
C245 C250 1.501 . S
C246 C247 1.387 . S
C246 N249 1.341 . S
C247 C245 1.400 . S
C247 C246 1.387 . S
N248 Co239 2.022 . S
N248 C245 1.351 1_556 S
N248 N249 1.365 1_556 S
N249 C246 1.341 . S
N249 N248 1.365 1_554 S
N249 H269 0.862 . S
C250 C245 1.501 . S
C250 H251 0.961 1_554 S
C250 H252 0.961 . S
C250 H253 0.960 . S
H251 C250 0.961 1_556 S
H252 C250 0.961 . S
H253 C250 0.960 . S
C254 N255 1.342 . S
C254 C258 1.401 . S
C254 C259 1.499 . S
N255 Co238 1.989 . S
N255 C254 1.342 . S
N255 N256 1.388 . S
N256 Co239 1.993 . S
N256 N255 1.388 . S
N256 C257 1.346 . S
C257 N256 1.346 . S
C257 C258 1.396 . S
C257 C267 1.510 . S
C258 C254 1.401 . S
C258 C257 1.396 . S
C259 C254 1.499 . S
C259 H260 0.959 . S
C259 H261 0.960 . S
C259 H262 0.961 . S
H260 C259 0.959 . S
H261 C259 0.960 . S
H262 C259 0.961 . S
O263 Co238 1.967 . S
O263 C271 1.258 . S
O264 Co239 1.941 . S
O264 C271 1.266 . S
H265 C267 0.959 . S
H266 C267 0.961 . S
C267 C257 1.510 . S
C267 H265 0.959 . S
C267 H266 0.961 . S
C267 H268 0.960 . S
H268 C267 0.960 . S
H269 N249 0.862 . S
O270 Co238 1.920 . S
O270 C243 1.289 . S
C271 O263 1.258 . S
C271 O264 1.266 . S
Co272 O275 1.970 . S
Co272 N289 1.989 . S
Co272 O297 1.967 . S
Co272 O304 1.920 . S
Co273 O276 1.966 . S
Co273 N282 2.022 . S
Co273 N290 1.993 . S
Co273 O298 1.941 . S
C274 O275 1.258 . S
C274 O276 1.263 . S
O275 Co272 1.970 . S
O275 C274 1.258 . S
O276 Co273 1.966 . S
O276 C274 1.263 . S
C277 O278 1.235 . S
C277 O304 1.289 . S
O278 C277 1.235 . S
C279 C281 1.400 . S
C279 N282 1.351 1_554 S
C279 C284 1.501 . S
C280 C281 1.387 . S
C280 N283 1.341 . S
C281 C279 1.400 . S
C281 C280 1.387 . S
N282 Co273 2.022 . S
N282 C279 1.351 1_556 S
N282 N283 1.365 1_556 S
N283 C280 1.341 . S
N283 N282 1.365 1_554 S
N283 H303 0.862 . S
C284 C279 1.501 . S
C284 H285 0.961 1_554 S
C284 H286 0.961 . S
C284 H287 0.960 . S
H285 C284 0.961 1_556 S
H286 C284 0.961 . S
H287 C284 0.960 . S
C288 N289 1.342 . S
C288 C292 1.401 . S
C288 C293 1.499 . S
N289 Co272 1.989 . S
N289 C288 1.342 . S
N289 N290 1.388 . S
N290 Co273 1.993 . S
N290 N289 1.388 . S
N290 C291 1.346 . S
C291 N290 1.346 . S
C291 C292 1.396 . S
C291 C301 1.510 . S
C292 C288 1.401 . S
C292 C291 1.396 . S
C293 C288 1.499 . S
C293 H294 0.959 . S
C293 H295 0.960 . S
C293 H296 0.961 . S
H294 C293 0.959 . S
H295 C293 0.960 . S
H296 C293 0.961 . S
O297 Co272 1.967 . S
O297 C305 1.258 . S
O298 Co273 1.941 . S
O298 C305 1.266 . S
H299 C301 0.959 . S
H300 C301 0.961 . S
C301 C291 1.510 . S
C301 H299 0.959 . S
C301 H300 0.961 . S
C301 H302 0.960 . S
H302 C301 0.960 . S
H303 N283 0.862 . S
O304 Co272 1.920 . S
O304 C277 1.289 . S
C305 O297 1.258 . S
C305 O298 1.266 . S
Co306 O309 1.970 . S
Co306 N323 1.989 . S
Co306 O331 1.967 . S
Co306 O338 1.920 . S
Co307 O310 1.966 . S
Co307 N316 2.022 . S
Co307 N324 1.993 . S
Co307 O332 1.941 . S
C308 O309 1.258 . S
C308 O310 1.263 . S
O309 Co306 1.970 . S
O309 C308 1.258 . S
O310 Co307 1.966 . S
O310 C308 1.263 . S
C311 O312 1.235 . S
C311 O338 1.289 . S
O312 C311 1.235 . S
C313 C315 1.400 . S
C313 N316 1.351 1_556 S
C313 C318 1.501 . S
C314 C315 1.387 . S
C314 N317 1.341 . S
C315 C313 1.400 . S
C315 C314 1.387 . S
N316 Co307 2.022 . S
N316 C313 1.351 1_554 S
N316 N317 1.365 1_554 S
N317 C314 1.341 . S
N317 N316 1.365 1_556 S
N317 H337 0.862 . S
C318 C313 1.501 . S
C318 H319 0.961 1_556 S
C318 H320 0.961 . S
C318 H321 0.960 . S
H319 C318 0.961 1_554 S
H320 C318 0.961 . S
H321 C318 0.960 . S
C322 N323 1.342 . S
C322 C326 1.401 . S
C322 C327 1.499 . S
N323 Co306 1.989 . S
N323 C322 1.342 . S
N323 N324 1.388 . S
N324 Co307 1.993 . S
N324 N323 1.388 . S
N324 C325 1.346 . S
C325 N324 1.346 . S
C325 C326 1.396 . S
C325 C335 1.510 . S
C326 C322 1.401 . S
C326 C325 1.396 . S
C327 C322 1.499 . S
C327 H328 0.959 . S
C327 H329 0.960 . S
C327 H330 0.961 . S
H328 C327 0.959 . S
H329 C327 0.960 . S
H330 C327 0.961 . S
O331 Co306 1.967 . S
O331 C339 1.258 . S
O332 Co307 1.941 . S
O332 C339 1.266 . S
H333 C335 0.959 . S
H334 C335 0.961 . S
C335 C325 1.510 . S
C335 H333 0.959 . S
C335 H334 0.961 . S
C335 H336 0.960 . S
H336 C335 0.960 . S
H337 N317 0.862 . S
O338 Co306 1.920 . S
O338 C311 1.289 . S
C339 O331 1.258 . S
C339 O332 1.266 . S
Co340 O343 1.970 . S
Co340 N357 1.989 . S
Co340 O365 1.967 . S
Co340 O372 1.920 . S
Co341 O344 1.966 . S
Co341 N350 2.022 . S
Co341 N358 1.993 . S
Co341 O366 1.941 . S
C342 O343 1.258 . S
C342 O344 1.263 . S
O343 Co340 1.970 . S
O343 C342 1.258 . S
O344 Co341 1.966 . S
O344 C342 1.263 . S
C345 O346 1.235 . S
C345 O372 1.289 . S
O346 C345 1.235 . S
C347 C349 1.400 . S
C347 N350 1.351 1_556 S
C347 C352 1.501 . S
C348 C349 1.387 . S
C348 N351 1.341 . S
C349 C347 1.400 . S
C349 C348 1.387 . S
N350 Co341 2.022 . S
N350 C347 1.351 1_554 S
N350 N351 1.365 1_554 S
N351 C348 1.341 . S
N351 N350 1.365 1_556 S
N351 H371 0.862 . S
C352 C347 1.501 . S
C352 H353 0.961 1_556 S
C352 H354 0.961 . S
C352 H355 0.960 . S
H353 C352 0.961 1_554 S
H354 C352 0.961 . S
H355 C352 0.960 . S
C356 N357 1.342 . S
C356 C360 1.401 . S
C356 C361 1.499 . S
N357 Co340 1.989 . S
N357 C356 1.342 . S
N357 N358 1.388 . S
N358 Co341 1.993 . S
N358 N357 1.388 . S
N358 C359 1.346 . S
C359 N358 1.346 . S
C359 C360 1.396 . S
C359 C369 1.510 . S
C360 C356 1.401 . S
C360 C359 1.396 . S
C361 C356 1.499 . S
C361 H362 0.959 . S
C361 H363 0.960 . S
C361 H364 0.961 . S
H362 C361 0.959 . S
H363 C361 0.960 . S
H364 C361 0.961 . S
O365 Co340 1.967 . S
O365 C373 1.258 . S
O366 Co341 1.941 . S
O366 C373 1.266 . S
H367 C369 0.959 . S
H368 C369 0.961 . S
C369 C359 1.510 . S
C369 H367 0.959 . S
C369 H368 0.961 . S
C369 H370 0.960 . S
H370 C369 0.960 . S
H371 N351 0.862 . S
O372 Co340 1.920 . S
O372 C345 1.289 . S
C373 O365 1.258 . S
C373 O366 1.266 . S
Co374 O377 1.970 . S
Co374 N391 1.989 . S
Co374 O399 1.967 . S
Co374 O406 1.920 . S
Co375 O378 1.966 . S
Co375 N384 2.022 . S
Co375 N392 1.993 . S
Co375 O400 1.941 . S
C376 O377 1.258 . S
C376 O378 1.263 . S
O377 Co374 1.970 . S
O377 C376 1.258 . S
O378 Co375 1.966 . S
O378 C376 1.263 . S
C379 O380 1.235 . S
C379 O406 1.289 . S
O380 C379 1.235 . S
C381 C383 1.400 . S
C381 N384 1.351 1_556 S
C381 C386 1.501 . S
C382 C383 1.387 . S
C382 N385 1.341 . S
C383 C381 1.400 . S
C383 C382 1.387 . S
N384 Co375 2.022 . S
N384 C381 1.351 1_554 S
N384 N385 1.365 1_554 S
N385 C382 1.341 . S
N385 N384 1.365 1_556 S
N385 H405 0.862 . S
C386 C381 1.501 . S
C386 H387 0.961 1_556 S
C386 H388 0.961 . S
C386 H389 0.960 . S
H387 C386 0.961 1_554 S
H388 C386 0.961 . S
H389 C386 0.960 . S
C390 N391 1.342 . S
C390 C394 1.401 . S
C390 C395 1.499 . S
N391 Co374 1.989 . S
N391 C390 1.342 . S
N391 N392 1.388 . S
N392 Co375 1.993 . S
N392 N391 1.388 . S
N392 C393 1.346 . S
C393 N392 1.346 . S
C393 C394 1.396 . S
C393 C403 1.510 . S
C394 C390 1.401 . S
C394 C393 1.396 . S
C395 C390 1.499 . S
C395 H396 0.959 . S
C395 H397 0.960 . S
C395 H398 0.961 . S
H396 C395 0.959 . S
H397 C395 0.960 . S
H398 C395 0.961 . S
O399 Co374 1.967 . S
O399 C407 1.258 . S
O400 Co375 1.941 . S
O400 C407 1.266 . S
H401 C403 0.959 . S
H402 C403 0.961 . S
C403 C393 1.510 . S
C403 H401 0.959 . S
C403 H402 0.961 . S
C403 H404 0.960 . S
H404 C403 0.960 . S
H405 N385 0.862 . S
O406 Co374 1.920 . S
O406 C379 1.289 . S
C407 O399 1.258 . S
C407 O400 1.266 . S
Co408 O411 1.970 . S
Co408 N425 1.989 . S
Co408 O433 1.967 . S
Co408 O440 1.920 . S
Co409 O412 1.966 . S
Co409 N418 2.022 . S
Co409 N426 1.993 . S
Co409 O434 1.941 . S
C410 O411 1.258 . S
C410 O412 1.263 . S
O411 Co408 1.970 . S
O411 C410 1.258 . S
O412 Co409 1.966 . S
O412 C410 1.263 . S
C413 O414 1.235 . S
C413 O440 1.289 . S
O414 C413 1.235 . S
C415 C417 1.400 . S
C415 N418 1.351 . S
C415 C420 1.501 . S
C416 C417 1.387 . S
C416 N419 1.341 . S
C417 C415 1.400 . S
C417 C416 1.387 . S
N418 Co409 2.022 . S
N418 C415 1.351 . S
N418 N419 1.365 . S
N419 C416 1.341 . S
N419 N418 1.365 . S
N419 H439 0.862 . S
C420 C415 1.501 . S
C420 H421 0.961 . S
C420 H422 0.961 . S
C420 H423 0.960 . S
H421 C420 0.961 . S
H422 C420 0.961 . S
H423 C420 0.960 . S
C424 N425 1.342 . S
C424 C428 1.401 . S
C424 C429 1.499 . S
N425 Co408 1.989 . S
N425 C424 1.342 . S
N425 N426 1.388 . S
N426 Co409 1.993 . S
N426 N425 1.388 . S
N426 C427 1.346 . S
C427 N426 1.346 . S
C427 C428 1.396 . S
C427 C437 1.510 . S
C428 C424 1.401 . S
C428 C427 1.396 . S
C429 C424 1.499 . S
C429 H430 0.959 . S
C429 H431 0.960 . S
C429 H432 0.961 . S
H430 C429 0.959 . S
H431 C429 0.960 . S
H432 C429 0.961 . S
O433 Co408 1.967 . S
O433 C441 1.258 . S
O434 Co409 1.941 . S
O434 C441 1.266 . S
H435 C437 0.959 . S
H436 C437 0.961 . S
C437 C427 1.510 . S
C437 H435 0.959 . S
C437 H436 0.961 . S
C437 H438 0.960 . S
H438 C437 0.960 . S
H439 N419 0.862 . S
O440 Co408 1.920 . S
O440 C413 1.289 . S
C441 O433 1.258 . S
C441 O434 1.266 . S
Co442 O445 1.970 . S
Co442 N459 1.989 . S
Co442 O467 1.967 . S
Co442 O474 1.920 . S
Co443 O446 1.966 . S
Co443 N452 2.022 . S
Co443 N460 1.993 . S
Co443 O468 1.941 . S
C444 O445 1.258 . S
C444 O446 1.263 . S
O445 Co442 1.970 . S
O445 C444 1.258 . S
O446 Co443 1.966 . S
O446 C444 1.263 . S
C447 O448 1.235 . S
C447 O474 1.289 . S
O448 C447 1.235 . S
C449 C451 1.400 . S
C449 N452 1.351 . S
C449 C454 1.501 . S
C450 C451 1.387 . S
C450 N453 1.341 . S
C451 C449 1.400 . S
C451 C450 1.387 . S
N452 Co443 2.022 . S
N452 C449 1.351 . S
N452 N453 1.365 . S
N453 C450 1.341 . S
N453 N452 1.365 . S
N453 H473 0.862 . S
C454 C449 1.501 . S
C454 H455 0.961 . S
C454 H456 0.961 . S
C454 H457 0.960 . S
H455 C454 0.961 . S
H456 C454 0.961 . S
H457 C454 0.960 . S
C458 N459 1.342 . S
C458 C462 1.401 . S
C458 C463 1.499 . S
N459 Co442 1.989 . S
N459 C458 1.342 . S
N459 N460 1.388 . S
N460 Co443 1.993 . S
N460 N459 1.388 . S
N460 C461 1.346 . S
C461 N460 1.346 . S
C461 C462 1.396 . S
C461 C471 1.510 . S
C462 C458 1.401 . S
C462 C461 1.396 . S
C463 C458 1.499 . S
C463 H464 0.959 . S
C463 H465 0.960 . S
C463 H466 0.961 . S
H464 C463 0.959 . S
H465 C463 0.960 . S
H466 C463 0.961 . S
O467 Co442 1.967 . S
O467 C475 1.258 . S
O468 Co443 1.941 . S
O468 C475 1.266 . S
H469 C471 0.959 . S
H470 C471 0.961 . S
C471 C461 1.510 . S
C471 H469 0.959 . S
C471 H470 0.961 . S
C471 H472 0.960 . S
H472 C471 0.960 . S
H473 N453 0.862 . S
O474 Co442 1.920 . S
O474 C447 1.289 . S
C475 O467 1.258 . S
C475 O468 1.266 . S
Co476 O479 1.970 . S
Co476 N493 1.989 . S
Co476 O501 1.967 . S
Co476 O508 1.920 . S
Co477 O480 1.966 . S
Co477 N486 2.022 . S
Co477 N494 1.993 . S
Co477 O502 1.941 . S
C478 O479 1.258 . S
C478 O480 1.263 . S
O479 Co476 1.970 . S
O479 C478 1.258 . S
O480 Co477 1.966 . S
O480 C478 1.263 . S
C481 O482 1.235 . S
C481 O508 1.289 . S
O482 C481 1.235 . S
C483 C485 1.400 . S
C483 N486 1.351 . S
C483 C488 1.501 . S
C484 C485 1.387 . S
C484 N487 1.341 . S
C485 C483 1.400 . S
C485 C484 1.387 . S
N486 Co477 2.022 . S
N486 C483 1.351 . S
N486 N487 1.365 . S
N487 C484 1.341 . S
N487 N486 1.365 . S
N487 H507 0.862 . S
C488 C483 1.501 . S
C488 H489 0.961 . S
C488 H490 0.961 . S
C488 H491 0.960 . S
H489 C488 0.961 . S
H490 C488 0.961 . S
H491 C488 0.960 . S
C492 N493 1.342 . S
C492 C496 1.401 . S
C492 C497 1.499 . S
N493 Co476 1.989 . S
N493 C492 1.342 . S
N493 N494 1.388 . S
N494 Co477 1.993 . S
N494 N493 1.388 . S
N494 C495 1.346 . S
C495 N494 1.346 . S
C495 C496 1.396 . S
C495 C505 1.510 . S
C496 C492 1.401 . S
C496 C495 1.396 . S
C497 C492 1.499 . S
C497 H498 0.959 . S
C497 H499 0.960 . S
C497 H500 0.961 . S
H498 C497 0.959 . S
H499 C497 0.960 . S
H500 C497 0.961 . S
O501 Co476 1.967 . S
O501 C509 1.258 . S
O502 Co477 1.941 . S
O502 C509 1.266 . S
H503 C505 0.959 . S
H504 C505 0.961 . S
C505 C495 1.510 . S
C505 H503 0.959 . S
C505 H504 0.961 . S
C505 H506 0.960 . S
H506 C505 0.960 . S
H507 N487 0.862 . S
O508 Co476 1.920 . S
O508 C481 1.289 . S
C509 O501 1.258 . S
C509 O502 1.266 . S
Co510 O513 1.970 1_556 S
Co510 N527 1.989 1_556 S
Co510 O535 1.967 1_556 S
Co510 O542 1.920 . S
Co511 O514 1.966 . S
Co511 N520 2.022 . S
Co511 N528 1.993 . S
Co511 O536 1.941 . S
C512 O513 1.258 . S
C512 O514 1.263 . S
O513 Co510 1.970 1_554 S
O513 C512 1.258 . S
O514 Co511 1.966 . S
O514 C512 1.263 . S
C515 O516 1.235 . S
C515 O542 1.289 . S
O516 C515 1.235 . S
C517 C519 1.400 . S
C517 N520 1.351 . S
C517 C522 1.501 . S
C518 C519 1.387 . S
C518 N521 1.341 . S
C519 C517 1.400 . S
C519 C518 1.387 . S
N520 Co511 2.022 . S
N520 C517 1.351 . S
N520 N521 1.365 . S
N521 C518 1.341 . S
N521 N520 1.365 . S
N521 H541 0.862 . S
C522 C517 1.501 . S
C522 H523 0.961 . S
C522 H524 0.961 . S
C522 H525 0.960 . S
H523 C522 0.961 . S
H524 C522 0.961 . S
H525 C522 0.960 . S
C526 N527 1.342 . S
C526 C530 1.401 . S
C526 C531 1.499 1_554 S
N527 Co510 1.989 1_554 S
N527 C526 1.342 . S
N527 N528 1.388 . S
N528 Co511 1.993 . S
N528 N527 1.388 . S
N528 C529 1.346 . S
C529 N528 1.346 . S
C529 C530 1.396 . S
C529 C539 1.510 . S
C530 C526 1.401 . S
C530 C529 1.396 . S
C531 C526 1.499 1_556 S
C531 H532 0.959 . S
C531 H533 0.960 . S
C531 H534 0.961 . S
H532 C531 0.959 . S
H533 C531 0.960 . S
H534 C531 0.961 . S
O535 Co510 1.967 1_554 S
O535 C543 1.258 . S
O536 Co511 1.941 . S
O536 C543 1.266 . S
H537 C539 0.959 . S
H538 C539 0.961 . S
C539 C529 1.510 . S
C539 H537 0.959 . S
C539 H538 0.961 . S
C539 H540 0.960 . S
H540 C539 0.960 . S
H541 N521 0.862 . S
O542 Co510 1.920 . S
O542 C515 1.289 . S
C543 O535 1.258 . S
C543 O536 1.266 . S
Co544 O547 1.970 1_556 S
Co544 N561 1.989 1_556 S
Co544 O569 1.967 1_556 S
Co544 O576 1.920 . S
Co545 O548 1.966 . S
Co545 N554 2.022 . S
Co545 N562 1.993 . S
Co545 O570 1.941 . S
C546 O547 1.258 . S
C546 O548 1.263 . S
O547 Co544 1.970 1_554 S
O547 C546 1.258 . S
O548 Co545 1.966 . S
O548 C546 1.263 . S
C549 O550 1.235 . S
C549 O576 1.289 . S
O550 C549 1.235 . S
C551 C553 1.400 . S
C551 N554 1.351 . S
C551 C556 1.501 . S
C552 C553 1.387 . S
C552 N555 1.341 . S
C553 C551 1.400 . S
C553 C552 1.387 . S
N554 Co545 2.022 . S
N554 C551 1.351 . S
N554 N555 1.365 . S
N555 C552 1.341 . S
N555 N554 1.365 . S
N555 H575 0.862 . S
C556 C551 1.501 . S
C556 H557 0.961 . S
C556 H558 0.961 . S
C556 H559 0.960 . S
H557 C556 0.961 . S
H558 C556 0.961 . S
H559 C556 0.960 . S
C560 N561 1.342 . S
C560 C564 1.401 . S
C560 C565 1.499 1_554 S
N561 Co544 1.989 1_554 S
N561 C560 1.342 . S
N561 N562 1.388 . S
N562 Co545 1.993 . S
N562 N561 1.388 . S
N562 C563 1.346 . S
C563 N562 1.346 . S
C563 C564 1.396 . S
C563 C573 1.510 . S
C564 C560 1.401 . S
C564 C563 1.396 . S
C565 C560 1.499 1_556 S
C565 H566 0.959 . S
C565 H567 0.960 . S
C565 H568 0.961 . S
H566 C565 0.959 . S
H567 C565 0.960 . S
H568 C565 0.961 . S
O569 Co544 1.967 1_554 S
O569 C577 1.258 . S
O570 Co545 1.941 . S
O570 C577 1.266 . S
H571 C573 0.959 . S
H572 C573 0.961 . S
C573 C563 1.510 . S
C573 H571 0.959 . S
C573 H572 0.961 . S
C573 H574 0.960 . S
H574 C573 0.960 . S
H575 N555 0.862 . S
O576 Co544 1.920 . S
O576 C549 1.289 . S
C577 O569 1.258 . S
C577 O570 1.266 . S
Co578 O581 1.970 1_556 S
Co578 N595 1.989 1_556 S
Co578 O603 1.967 1_556 S
Co578 O610 1.920 . S
Co579 O582 1.966 . S
Co579 N588 2.022 . S
Co579 N596 1.993 . S
Co579 O604 1.941 . S
C580 O581 1.258 . S
C580 O582 1.263 . S
O581 Co578 1.970 1_554 S
O581 C580 1.258 . S
O582 Co579 1.966 . S
O582 C580 1.263 . S
C583 O584 1.235 . S
C583 O610 1.289 . S
O584 C583 1.235 . S
C585 C587 1.400 . S
C585 N588 1.351 . S
C585 C590 1.501 . S
C586 C587 1.387 . S
C586 N589 1.341 . S
C587 C585 1.400 . S
C587 C586 1.387 . S
N588 Co579 2.022 . S
N588 C585 1.351 . S
N588 N589 1.365 . S
N589 C586 1.341 . S
N589 N588 1.365 . S
N589 H609 0.862 . S
C590 C585 1.501 . S
C590 H591 0.961 . S
C590 H592 0.961 . S
C590 H593 0.960 . S
H591 C590 0.961 . S
H592 C590 0.961 . S
H593 C590 0.960 . S
C594 N595 1.342 . S
C594 C598 1.401 . S
C594 C599 1.499 1_554 S
N595 Co578 1.989 1_554 S
N595 C594 1.342 . S
N595 N596 1.388 . S
N596 Co579 1.993 . S
N596 N595 1.388 . S
N596 C597 1.346 . S
C597 N596 1.346 . S
C597 C598 1.396 . S
C597 C607 1.510 . S
C598 C594 1.401 . S
C598 C597 1.396 . S
C599 C594 1.499 1_556 S
C599 H600 0.959 . S
C599 H601 0.960 . S
C599 H602 0.961 . S
H600 C599 0.959 . S
H601 C599 0.960 . S
H602 C599 0.961 . S
O603 Co578 1.967 1_554 S
O603 C611 1.258 . S
O604 Co579 1.941 . S
O604 C611 1.266 . S
H605 C607 0.959 . S
H606 C607 0.961 . S
C607 C597 1.510 . S
C607 H605 0.959 . S
C607 H606 0.961 . S
C607 H608 0.960 . S
H608 C607 0.960 . S
H609 N589 0.862 . S
O610 Co578 1.920 . S
O610 C583 1.289 . S
C611 O603 1.258 . S
C611 O604 1.266 . S
Co612 O615 1.970 1_556 S
Co612 N629 1.989 1_556 S
Co612 O637 1.967 1_556 S
Co612 O644 1.920 . S
Co613 O616 1.966 . S
Co613 N622 2.022 . S
Co613 N630 1.993 . S
Co613 O638 1.941 . S
C614 O615 1.258 . S
C614 O616 1.263 . S
O615 Co612 1.970 1_554 S
O615 C614 1.258 . S
O616 Co613 1.966 . S
O616 C614 1.263 . S
C617 O618 1.235 . S
C617 O644 1.289 . S
O618 C617 1.235 . S
C619 C621 1.400 . S
C619 N622 1.351 . S
C619 C624 1.501 . S
C620 C621 1.387 . S
C620 N623 1.341 . S
C621 C619 1.400 . S
C621 C620 1.387 . S
N622 Co613 2.022 . S
N622 C619 1.351 . S
N622 N623 1.365 . S
N623 C620 1.341 . S
N623 N622 1.365 . S
N623 H643 0.862 . S
C624 C619 1.501 . S
C624 H625 0.961 . S
C624 H626 0.961 . S
C624 H627 0.960 . S
H625 C624 0.961 . S
H626 C624 0.961 . S
H627 C624 0.960 . S
C628 N629 1.342 . S
C628 C632 1.401 . S
C628 C633 1.499 1_554 S
N629 Co612 1.989 1_554 S
N629 C628 1.342 . S
N629 N630 1.388 . S
N630 Co613 1.993 . S
N630 N629 1.388 . S
N630 C631 1.346 . S
C631 N630 1.346 . S
C631 C632 1.396 . S
C631 C641 1.510 . S
C632 C628 1.401 . S
C632 C631 1.396 . S
C633 C628 1.499 1_556 S
C633 H634 0.959 . S
C633 H635 0.960 . S
C633 H636 0.961 . S
H634 C633 0.959 . S
H635 C633 0.960 . S
H636 C633 0.961 . S
O637 Co612 1.967 1_554 S
O637 C645 1.258 . S
O638 Co613 1.941 . S
O638 C645 1.266 . S
H639 C641 0.959 . S
H640 C641 0.961 . S
C641 C631 1.510 . S
C641 H639 0.959 . S
C641 H640 0.961 . S
C641 H642 0.960 . S
H642 C641 0.960 . S
H643 N623 0.862 . S
O644 Co612 1.920 . S
O644 C617 1.289 . S
C645 O637 1.258 . S
C645 O638 1.266 . S
Co646 O649 1.970 1_556 S
Co646 N663 1.989 1_556 S
Co646 O671 1.967 1_556 S
Co646 O678 1.920 . S
Co647 O650 1.966 . S
Co647 N656 2.022 . S
Co647 N664 1.993 . S
Co647 O672 1.941 . S
C648 O649 1.258 . S
C648 O650 1.263 . S
O649 Co646 1.970 1_554 S
O649 C648 1.258 . S
O650 Co647 1.966 . S
O650 C648 1.263 . S
C651 O652 1.235 . S
C651 O678 1.289 . S
O652 C651 1.235 . S
C653 C655 1.400 . S
C653 N656 1.351 . S
C653 C658 1.501 . S
C654 C655 1.387 . S
C654 N657 1.341 . S
C655 C653 1.400 . S
C655 C654 1.387 . S
N656 Co647 2.022 . S
N656 C653 1.351 . S
N656 N657 1.365 . S
N657 C654 1.341 . S
N657 N656 1.365 . S
N657 H677 0.862 . S
C658 C653 1.501 . S
C658 H659 0.961 . S
C658 H660 0.961 . S
C658 H661 0.960 . S
H659 C658 0.961 . S
H660 C658 0.961 . S
H661 C658 0.960 . S
C662 N663 1.342 . S
C662 C666 1.401 . S
C662 C667 1.499 1_554 S
N663 Co646 1.989 1_554 S
N663 C662 1.342 . S
N663 N664 1.388 . S
N664 Co647 1.993 . S
N664 N663 1.388 . S
N664 C665 1.346 . S
C665 N664 1.346 . S
C665 C666 1.396 . S
C665 C675 1.510 . S
C666 C662 1.401 . S
C666 C665 1.396 . S
C667 C662 1.499 1_556 S
C667 H668 0.959 . S
C667 H669 0.960 . S
C667 H670 0.961 . S
H668 C667 0.959 . S
H669 C667 0.960 . S
H670 C667 0.961 . S
O671 Co646 1.967 1_554 S
O671 C679 1.258 . S
O672 Co647 1.941 . S
O672 C679 1.266 . S
H673 C675 0.959 . S
H674 C675 0.961 . S
C675 C665 1.510 . S
C675 H673 0.959 . S
C675 H674 0.961 . S
C675 H676 0.960 . S
H676 C675 0.960 . S
H677 N657 0.862 . S
O678 Co646 1.920 . S
O678 C651 1.289 . S
C679 O671 1.258 . S
C679 O672 1.266 . S
Co680 O683 1.970 1_556 S
Co680 N697 1.989 1_556 S
Co680 O705 1.967 1_556 S
Co680 O712 1.920 . S
Co681 O684 1.966 . S
Co681 N690 2.022 . S
Co681 N698 1.993 . S
Co681 O706 1.941 . S
C682 O683 1.258 . S
C682 O684 1.263 . S
O683 Co680 1.970 1_554 S
O683 C682 1.258 . S
O684 Co681 1.966 . S
O684 C682 1.263 . S
C685 O686 1.235 . S
C685 O712 1.289 . S
O686 C685 1.235 . S
C687 C689 1.400 . S
C687 N690 1.351 . S
C687 C692 1.501 . S
C688 C689 1.387 . S
C688 N691 1.341 . S
C689 C687 1.400 . S
C689 C688 1.387 . S
N690 Co681 2.022 . S
N690 C687 1.351 . S
N690 N691 1.365 . S
N691 C688 1.341 . S
N691 N690 1.365 . S
N691 H711 0.862 . S
C692 C687 1.501 . S
C692 H693 0.961 . S
C692 H694 0.961 . S
C692 H695 0.960 . S
H693 C692 0.961 . S
H694 C692 0.961 . S
H695 C692 0.960 . S
C696 N697 1.342 . S
C696 C700 1.401 . S
C696 C701 1.499 1_554 S
N697 Co680 1.989 1_554 S
N697 C696 1.342 . S
N697 N698 1.388 . S
N698 Co681 1.993 . S
N698 N697 1.388 . S
N698 C699 1.346 . S
C699 N698 1.346 . S
C699 C700 1.396 . S
C699 C709 1.510 . S
C700 C696 1.401 . S
C700 C699 1.396 . S
C701 C696 1.499 1_556 S
C701 H702 0.959 . S
C701 H703 0.960 . S
C701 H704 0.961 . S
H702 C701 0.959 . S
H703 C701 0.960 . S
H704 C701 0.961 . S
O705 Co680 1.967 1_554 S
O705 C713 1.258 . S
O706 Co681 1.941 . S
O706 C713 1.266 . S
H707 C709 0.959 . S
H708 C709 0.961 . S
C709 C699 1.510 . S
C709 H707 0.959 . S
C709 H708 0.961 . S
C709 H710 0.960 . S
H710 C709 0.960 . S
H711 N691 0.862 . S
O712 Co680 1.920 . S
O712 C685 1.289 . S
C713 O705 1.258 . S
C713 O706 1.266 . S
Co714 O717 1.970 . S
Co714 N731 1.989 . S
Co714 O739 1.967 . S
Co714 O746 1.920 . S
Co715 O718 1.966 . S
Co715 N724 2.022 . S
Co715 N732 1.993 . S
Co715 O740 1.941 . S
C716 O717 1.258 . S
C716 O718 1.263 . S
O717 Co714 1.970 . S
O717 C716 1.258 . S
O718 Co715 1.966 . S
O718 C716 1.263 . S
C719 O720 1.235 . S
C719 O746 1.289 . S
O720 C719 1.235 . S
C721 C723 1.400 . S
C721 N724 1.351 . S
C721 C726 1.501 . S
C722 C723 1.387 . S
C722 N725 1.341 . S
C723 C721 1.400 . S
C723 C722 1.387 . S
N724 Co715 2.022 . S
N724 C721 1.351 . S
N724 N725 1.365 . S
N725 C722 1.341 . S
N725 N724 1.365 . S
N725 H745 0.862 . S
C726 C721 1.501 . S
C726 H727 0.961 . S
C726 H728 0.961 . S
C726 H729 0.960 . S
H727 C726 0.961 . S
H728 C726 0.961 . S
H729 C726 0.960 . S
C730 N731 1.342 . S
C730 C734 1.401 . S
C730 C735 1.499 . S
N731 Co714 1.989 . S
N731 C730 1.342 . S
N731 N732 1.388 . S
N732 Co715 1.993 . S
N732 N731 1.388 . S
N732 C733 1.346 . S
C733 N732 1.346 . S
C733 C734 1.396 . S
C733 C743 1.510 . S
C734 C730 1.401 . S
C734 C733 1.396 . S
C735 C730 1.499 . S
C735 H736 0.959 . S
C735 H737 0.960 . S
C735 H738 0.961 . S
H736 C735 0.959 . S
H737 C735 0.960 . S
H738 C735 0.961 . S
O739 Co714 1.967 . S
O739 C747 1.258 . S
O740 Co715 1.941 . S
O740 C747 1.266 . S
H741 C743 0.959 . S
H742 C743 0.961 . S
C743 C733 1.510 . S
C743 H741 0.959 . S
C743 H742 0.961 . S
C743 H744 0.960 . S
H744 C743 0.960 . S
H745 N725 0.862 . S
O746 Co714 1.920 . S
O746 C719 1.289 . S
C747 O739 1.258 . S
C747 O740 1.266 . S
Co748 O751 1.970 . S
Co748 N765 1.989 . S
Co748 O773 1.967 . S
Co748 O780 1.920 . S
Co749 O752 1.966 . S
Co749 N758 2.022 . S
Co749 N766 1.993 . S
Co749 O774 1.941 . S
C750 O751 1.258 . S
C750 O752 1.263 . S
O751 Co748 1.970 . S
O751 C750 1.258 . S
O752 Co749 1.966 . S
O752 C750 1.263 . S
C753 O754 1.235 . S
C753 O780 1.289 . S
O754 C753 1.235 . S
C755 C757 1.400 . S
C755 N758 1.351 . S
C755 C760 1.501 . S
C756 C757 1.387 . S
C756 N759 1.341 . S
C757 C755 1.400 . S
C757 C756 1.387 . S
N758 Co749 2.022 . S
N758 C755 1.351 . S
N758 N759 1.365 . S
N759 C756 1.341 . S
N759 N758 1.365 . S
N759 H779 0.862 . S
C760 C755 1.501 . S
C760 H761 0.961 . S
C760 H762 0.961 . S
C760 H763 0.960 . S
H761 C760 0.961 . S
H762 C760 0.961 . S
H763 C760 0.960 . S
C764 N765 1.342 . S
C764 C768 1.401 . S
C764 C769 1.499 . S
N765 Co748 1.989 . S
N765 C764 1.342 . S
N765 N766 1.388 . S
N766 Co749 1.993 . S
N766 N765 1.388 . S
N766 C767 1.346 . S
C767 N766 1.346 . S
C767 C768 1.396 . S
C767 C777 1.510 . S
C768 C764 1.401 . S
C768 C767 1.396 . S
C769 C764 1.499 . S
C769 H770 0.959 . S
C769 H771 0.960 . S
C769 H772 0.961 . S
H770 C769 0.959 . S
H771 C769 0.960 . S
H772 C769 0.961 . S
O773 Co748 1.967 . S
O773 C781 1.258 . S
O774 Co749 1.941 . S
O774 C781 1.266 . S
H775 C777 0.959 . S
H776 C777 0.961 . S
C777 C767 1.510 . S
C777 H775 0.959 . S
C777 H776 0.961 . S
C777 H778 0.960 . S
H778 C777 0.960 . S
H779 N759 0.862 . S
O780 Co748 1.920 . S
O780 C753 1.289 . S
C781 O773 1.258 . S
C781 O774 1.266 . S
Co782 O785 1.970 . S
Co782 N799 1.989 . S
Co782 O807 1.967 . S
Co782 O814 1.920 . S
Co783 O786 1.966 . S
Co783 N792 2.022 . S
Co783 N800 1.993 . S
Co783 O808 1.941 . S
C784 O785 1.258 . S
C784 O786 1.263 . S
O785 Co782 1.970 . S
O785 C784 1.258 . S
O786 Co783 1.966 . S
O786 C784 1.263 . S
C787 O788 1.235 . S
C787 O814 1.289 . S
O788 C787 1.235 . S
C789 C791 1.400 . S
C789 N792 1.351 . S
C789 C794 1.501 . S
C790 C791 1.387 . S
C790 N793 1.341 . S
C791 C789 1.400 . S
C791 C790 1.387 . S
N792 Co783 2.022 . S
N792 C789 1.351 . S
N792 N793 1.365 . S
N793 C790 1.341 . S
N793 N792 1.365 . S
N793 H813 0.862 . S
C794 C789 1.501 . S
C794 H795 0.961 . S
C794 H796 0.961 . S
C794 H797 0.960 . S
H795 C794 0.961 . S
H796 C794 0.961 . S
H797 C794 0.960 . S
C798 N799 1.342 . S
C798 C802 1.401 . S
C798 C803 1.499 . S
N799 Co782 1.989 . S
N799 C798 1.342 . S
N799 N800 1.388 . S
N800 Co783 1.993 . S
N800 N799 1.388 . S
N800 C801 1.346 . S
C801 N800 1.346 . S
C801 C802 1.396 . S
C801 C811 1.510 . S
C802 C798 1.401 . S
C802 C801 1.396 . S
C803 C798 1.499 . S
C803 H804 0.959 . S
C803 H805 0.960 . S
C803 H806 0.961 . S
H804 C803 0.959 . S
H805 C803 0.960 . S
H806 C803 0.961 . S
O807 Co782 1.967 . S
O807 C815 1.258 . S
O808 Co783 1.941 . S
O808 C815 1.266 . S
H809 C811 0.959 . S
H810 C811 0.961 . S
C811 C801 1.510 . S
C811 H809 0.959 . S
C811 H810 0.961 . S
C811 H812 0.960 . S
H812 C811 0.960 . S
H813 N793 0.862 . S
O814 Co782 1.920 . S
O814 C787 1.289 . S
C815 O807 1.258 . S
C815 O808 1.266 . S
Co816 O819 1.970 1_554 S
Co816 N833 1.989 1_554 S
Co816 O841 1.967 1_554 S
Co816 O848 1.920 . S
Co817 O820 1.966 . S
Co817 N826 2.022 . S
Co817 N834 1.993 . S
Co817 O842 1.941 . S
C818 O819 1.258 . S
C818 O820 1.263 . S
O819 Co816 1.970 1_556 S
O819 C818 1.258 . S
O820 Co817 1.966 . S
O820 C818 1.263 . S
C821 O822 1.235 . S
C821 O848 1.289 . S
O822 C821 1.235 . S
C823 C825 1.400 . S
C823 N826 1.351 . S
C823 C828 1.501 . S
C824 C825 1.387 . S
C824 N827 1.341 . S
C825 C823 1.400 . S
C825 C824 1.387 . S
N826 Co817 2.022 . S
N826 C823 1.351 . S
N826 N827 1.365 . S
N827 C824 1.341 . S
N827 N826 1.365 . S
N827 H847 0.862 . S
C828 C823 1.501 . S
C828 H829 0.961 . S
C828 H830 0.961 . S
C828 H831 0.960 . S
H829 C828 0.961 . S
H830 C828 0.961 . S
H831 C828 0.960 . S
C832 N833 1.342 . S
C832 C836 1.401 . S
C832 C837 1.499 1_556 S
N833 Co816 1.989 1_556 S
N833 C832 1.342 . S
N833 N834 1.388 . S
N834 Co817 1.993 . S
N834 N833 1.388 . S
N834 C835 1.346 . S
C835 N834 1.346 . S
C835 C836 1.396 . S
C835 C845 1.510 . S
C836 C832 1.401 . S
C836 C835 1.396 . S
C837 C832 1.499 1_554 S
C837 H838 0.959 . S
C837 H839 0.960 . S
C837 H840 0.961 . S
H838 C837 0.959 . S
H839 C837 0.960 . S
H840 C837 0.961 . S
O841 Co816 1.967 1_556 S
O841 C849 1.258 . S
O842 Co817 1.941 . S
O842 C849 1.266 . S
H843 C845 0.959 . S
H844 C845 0.961 . S
C845 C835 1.510 . S
C845 H843 0.959 . S
C845 H844 0.961 . S
C845 H846 0.960 . S
H846 C845 0.960 . S
H847 N827 0.862 . S
O848 Co816 1.920 . S
O848 C821 1.289 . S
C849 O841 1.258 . S
C849 O842 1.266 . S
Co850 O853 1.970 1_554 S
Co850 N867 1.989 1_554 S
Co850 O875 1.967 1_554 S
Co850 O882 1.920 . S
Co851 O854 1.966 . S
Co851 N860 2.022 . S
Co851 N868 1.993 . S
Co851 O876 1.941 . S
C852 O853 1.258 . S
C852 O854 1.263 . S
O853 Co850 1.970 1_556 S
O853 C852 1.258 . S
O854 Co851 1.966 . S
O854 C852 1.263 . S
C855 O856 1.235 . S
C855 O882 1.289 . S
O856 C855 1.235 . S
C857 C859 1.400 . S
C857 N860 1.351 . S
C857 C862 1.501 . S
C858 C859 1.387 . S
C858 N861 1.341 . S
C859 C857 1.400 . S
C859 C858 1.387 . S
N860 Co851 2.022 . S
N860 C857 1.351 . S
N860 N861 1.365 . S
N861 C858 1.341 . S
N861 N860 1.365 . S
N861 H881 0.862 . S
C862 C857 1.501 . S
C862 H863 0.961 . S
C862 H864 0.961 . S
C862 H865 0.960 . S
H863 C862 0.961 . S
H864 C862 0.961 . S
H865 C862 0.960 . S
C866 N867 1.342 . S
C866 C870 1.401 . S
C866 C871 1.499 1_556 S
N867 Co850 1.989 1_556 S
N867 C866 1.342 . S
N867 N868 1.388 . S
N868 Co851 1.993 . S
N868 N867 1.388 . S
N868 C869 1.346 . S
C869 N868 1.346 . S
C869 C870 1.396 . S
C869 C879 1.510 . S
C870 C866 1.401 . S
C870 C869 1.396 . S
C871 C866 1.499 1_554 S
C871 H872 0.959 . S
C871 H873 0.960 . S
C871 H874 0.961 . S
H872 C871 0.959 . S
H873 C871 0.960 . S
H874 C871 0.961 . S
O875 Co850 1.967 1_556 S
O875 C883 1.258 . S
O876 Co851 1.941 . S
O876 C883 1.266 . S
H877 C879 0.959 . S
H878 C879 0.961 . S
C879 C869 1.510 . S
C879 H877 0.959 . S
C879 H878 0.961 . S
C879 H880 0.960 . S
H880 C879 0.960 . S
H881 N861 0.862 . S
O882 Co850 1.920 . S
O882 C855 1.289 . S
C883 O875 1.258 . S
C883 O876 1.266 . S
Co884 O887 1.970 1_554 S
Co884 N901 1.989 1_554 S
Co884 O909 1.967 1_554 S
Co884 O916 1.920 . S
Co885 O888 1.966 . S
Co885 N894 2.022 . S
Co885 N902 1.993 . S
Co885 O910 1.941 . S
C886 O887 1.258 . S
C886 O888 1.263 . S
O887 Co884 1.970 1_556 S
O887 C886 1.258 . S
O888 Co885 1.966 . S
O888 C886 1.263 . S
C889 O890 1.235 . S
C889 O916 1.289 . S
O890 C889 1.235 . S
C891 C893 1.400 . S
C891 N894 1.351 . S
C891 C896 1.501 . S
C892 C893 1.387 . S
C892 N895 1.341 . S
C893 C891 1.400 . S
C893 C892 1.387 . S
N894 Co885 2.022 . S
N894 C891 1.351 . S
N894 N895 1.365 . S
N895 C892 1.341 . S
N895 N894 1.365 . S
N895 H915 0.862 . S
C896 C891 1.501 . S
C896 H897 0.961 . S
C896 H898 0.961 . S
C896 H899 0.960 . S
H897 C896 0.961 . S
H898 C896 0.961 . S
H899 C896 0.960 . S
C900 N901 1.342 . S
C900 C904 1.401 . S
C900 C905 1.499 1_556 S
N901 Co884 1.989 1_556 S
N901 C900 1.342 . S
N901 N902 1.388 . S
N902 Co885 1.993 . S
N902 N901 1.388 . S
N902 C903 1.346 . S
C903 N902 1.346 . S
C903 C904 1.396 . S
C903 C913 1.510 . S
C904 C900 1.401 . S
C904 C903 1.396 . S
C905 C900 1.499 1_554 S
C905 H906 0.959 . S
C905 H907 0.960 . S
C905 H908 0.961 . S
H906 C905 0.959 . S
H907 C905 0.960 . S
H908 C905 0.961 . S
O909 Co884 1.967 1_556 S
O909 C917 1.258 . S
O910 Co885 1.941 . S
O910 C917 1.266 . S
H911 C913 0.959 . S
H912 C913 0.961 . S
C913 C903 1.510 . S
C913 H911 0.959 . S
C913 H912 0.961 . S
C913 H914 0.960 . S
H914 C913 0.960 . S
H915 N895 0.862 . S
O916 Co884 1.920 . S
O916 C889 1.289 . S
C917 O909 1.258 . S
C917 O910 1.266 . S
Co918 O921 1.970 . S
Co918 N935 1.989 . S
Co918 O943 1.967 . S
Co918 O950 1.920 . S
Co919 O922 1.966 . S
Co919 N928 2.022 . S
Co919 N936 1.993 . S
Co919 O944 1.941 . S
C920 O921 1.258 . S
C920 O922 1.263 . S
O921 Co918 1.970 . S
O921 C920 1.258 . S
O922 Co919 1.966 . S
O922 C920 1.263 . S
C923 O924 1.235 . S
C923 O950 1.289 . S
O924 C923 1.235 . S
C925 C927 1.400 . S
C925 N928 1.351 . S
C925 C930 1.501 . S
C926 C927 1.387 . S
C926 N929 1.341 . S
C927 C925 1.400 . S
C927 C926 1.387 . S
N928 Co919 2.022 . S
N928 C925 1.351 . S
N928 N929 1.365 . S
N929 C926 1.341 . S
N929 N928 1.365 . S
N929 H949 0.862 . S
C930 C925 1.501 . S
C930 H931 0.961 . S
C930 H932 0.961 . S
C930 H933 0.960 . S
H931 C930 0.961 . S
H932 C930 0.961 . S
H933 C930 0.960 . S
C934 N935 1.342 . S
C934 C938 1.401 . S
C934 C939 1.499 . S
N935 Co918 1.989 . S
N935 C934 1.342 . S
N935 N936 1.388 . S
N936 Co919 1.993 . S
N936 N935 1.388 . S
N936 C937 1.346 . S
C937 N936 1.346 . S
C937 C938 1.396 . S
C937 C947 1.510 . S
C938 C934 1.401 . S
C938 C937 1.396 . S
C939 C934 1.499 . S
C939 H940 0.959 . S
C939 H941 0.960 . S
C939 H942 0.961 . S
H940 C939 0.959 . S
H941 C939 0.960 . S
H942 C939 0.961 . S
O943 Co918 1.967 . S
O943 C951 1.258 . S
O944 Co919 1.941 . S
O944 C951 1.266 . S
H945 C947 0.959 . S
H946 C947 0.961 . S
C947 C937 1.510 . S
C947 H945 0.959 . S
C947 H946 0.961 . S
C947 H948 0.960 . S
H948 C947 0.960 . S
H949 N929 0.862 . S
O950 Co918 1.920 . S
O950 C923 1.289 . S
C951 O943 1.258 . S
C951 O944 1.266 . S
Co952 O955 1.970 . S
Co952 N969 1.989 . S
Co952 O977 1.967 . S
Co952 O984 1.920 . S
Co953 O956 1.966 . S
Co953 N962 2.022 . S
Co953 N970 1.993 . S
Co953 O978 1.941 . S
C954 O955 1.258 . S
C954 O956 1.263 . S
O955 Co952 1.970 . S
O955 C954 1.258 . S
O956 Co953 1.966 . S
O956 C954 1.263 . S
C957 O958 1.235 . S
C957 O984 1.289 . S
O958 C957 1.235 . S
C959 C961 1.400 . S
C959 N962 1.351 . S
C959 C964 1.501 . S
C960 C961 1.387 . S
C960 N963 1.341 . S
C961 C959 1.400 . S
C961 C960 1.387 . S
N962 Co953 2.022 . S
N962 C959 1.351 . S
N962 N963 1.365 . S
N963 C960 1.341 . S
N963 N962 1.365 . S
N963 H983 0.862 . S
C964 C959 1.501 . S
C964 H965 0.961 . S
C964 H966 0.961 . S
C964 H967 0.960 . S
H965 C964 0.961 . S
H966 C964 0.961 . S
H967 C964 0.960 . S
C968 N969 1.342 . S
C968 C972 1.401 . S
C968 C973 1.499 . S
N969 Co952 1.989 . S
N969 C968 1.342 . S
N969 N970 1.388 . S
N970 Co953 1.993 . S
N970 N969 1.388 . S
N970 C971 1.346 . S
C971 N970 1.346 . S
C971 C972 1.396 . S
C971 C981 1.510 . S
C972 C968 1.401 . S
C972 C971 1.396 . S
C973 C968 1.499 . S
C973 H974 0.959 . S
C973 H975 0.960 . S
C973 H976 0.961 . S
H974 C973 0.959 . S
H975 C973 0.960 . S
H976 C973 0.961 . S
O977 Co952 1.967 . S
O977 C985 1.258 . S
O978 Co953 1.941 . S
O978 C985 1.266 . S
H979 C981 0.959 . S
H980 C981 0.961 . S
C981 C971 1.510 . S
C981 H979 0.959 . S
C981 H980 0.961 . S
C981 H982 0.960 . S
H982 C981 0.960 . S
H983 N963 0.862 . S
O984 Co952 1.920 . S
O984 C957 1.289 . S
C985 O977 1.258 . S
C985 O978 1.266 . S
Co986 O989 1.970 . S
Co986 N1003 1.989 . S
Co986 O1011 1.967 . S
Co986 O1018 1.920 . S
Co987 O990 1.966 . S
Co987 N996 2.022 . S
Co987 N1004 1.993 . S
Co987 O1012 1.941 . S
C988 O989 1.258 . S
C988 O990 1.263 . S
O989 Co986 1.970 . S
O989 C988 1.258 . S
O990 Co987 1.966 . S
O990 C988 1.263 . S
C991 O992 1.235 . S
C991 O1018 1.289 . S
O992 C991 1.235 . S
C993 C995 1.400 . S
C993 N996 1.351 . S
C993 C998 1.501 . S
C994 C995 1.387 . S
C994 N997 1.341 . S
C995 C993 1.400 . S
C995 C994 1.387 . S
N996 Co987 2.022 . S
N996 C993 1.351 . S
N996 N997 1.365 . S
N997 C994 1.341 . S
N997 N996 1.365 . S
N997 H1017 0.862 . S
C998 C993 1.501 . S
C998 H999 0.961 . S
C998 H1000 0.961 . S
C998 H1001 0.960 . S
H999 C998 0.961 . S
H1000 C998 0.961 . S
H1001 C998 0.960 . S
C1002 N1003 1.342 . S
C1002 C1006 1.401 . S
C1002 C1007 1.499 . S
N1003 Co986 1.989 . S
N1003 C1002 1.342 . S
N1003 N1004 1.388 . S
N1004 Co987 1.993 . S
N1004 N1003 1.388 . S
N1004 C1005 1.346 . S
C1005 N1004 1.346 . S
C1005 C1006 1.396 . S
C1005 C1015 1.510 . S
C1006 C1002 1.401 . S
C1006 C1005 1.396 . S
C1007 C1002 1.499 . S
C1007 H1008 0.959 . S
C1007 H1009 0.960 . S
C1007 H1010 0.961 . S
H1008 C1007 0.959 . S
H1009 C1007 0.960 . S
H1010 C1007 0.961 . S
O1011 Co986 1.967 . S
O1011 C1019 1.258 . S
O1012 Co987 1.941 . S
O1012 C1019 1.266 . S
H1013 C1015 0.959 . S
H1014 C1015 0.961 . S
C1015 C1005 1.510 . S
C1015 H1013 0.959 . S
C1015 H1014 0.961 . S
C1015 H1016 0.960 . S
H1016 C1015 0.960 . S
H1017 N997 0.862 . S
O1018 Co986 1.920 . S
O1018 C991 1.289 . S
C1019 O1011 1.258 . S
C1019 O1012 1.266 . S
Co1020 O1023 1.970 . S
Co1020 N1037 1.989 . S
Co1020 O1045 1.967 . S
Co1020 O1052 1.920 . S
Co1021 O1024 1.966 . S
Co1021 N1030 2.022 . S
Co1021 N1038 1.993 . S
Co1021 O1046 1.941 . S
C1022 O1023 1.258 . S
C1022 O1024 1.263 . S
O1023 Co1020 1.970 . S
O1023 C1022 1.258 . S
O1024 Co1021 1.966 . S
O1024 C1022 1.263 . S
C1025 O1026 1.235 . S
C1025 O1052 1.289 . S
O1026 C1025 1.235 . S
C1027 C1029 1.400 . S
C1027 N1030 1.351 . S
C1027 C1032 1.501 . S
C1028 C1029 1.387 . S
C1028 N1031 1.341 . S
C1029 C1027 1.400 . S
C1029 C1028 1.387 . S
N1030 Co1021 2.022 . S
N1030 C1027 1.351 . S
N1030 N1031 1.365 . S
N1031 C1028 1.341 . S
N1031 N1030 1.365 . S
N1031 H1051 0.862 . S
C1032 C1027 1.501 . S
C1032 H1033 0.961 . S
C1032 H1034 0.961 . S
C1032 H1035 0.960 . S
H1033 C1032 0.961 . S
H1034 C1032 0.961 . S
H1035 C1032 0.960 . S
C1036 N1037 1.342 . S
C1036 C1040 1.401 . S
C1036 C1041 1.499 . S
N1037 Co1020 1.989 . S
N1037 C1036 1.342 . S
N1037 N1038 1.388 . S
N1038 Co1021 1.993 . S
N1038 N1037 1.388 . S
N1038 C1039 1.346 . S
C1039 N1038 1.346 . S
C1039 C1040 1.396 . S
C1039 C1049 1.510 . S
C1040 C1036 1.401 . S
C1040 C1039 1.396 . S
C1041 C1036 1.499 . S
C1041 H1042 0.959 . S
C1041 H1043 0.960 . S
C1041 H1044 0.961 . S
H1042 C1041 0.959 . S
H1043 C1041 0.960 . S
H1044 C1041 0.961 . S
O1045 Co1020 1.967 . S
O1045 C1053 1.258 . S
O1046 Co1021 1.941 . S
O1046 C1053 1.266 . S
H1047 C1049 0.959 . S
H1048 C1049 0.961 . S
C1049 C1039 1.510 . S
C1049 H1047 0.959 . S
C1049 H1048 0.961 . S
C1049 H1050 0.960 . S
H1050 C1049 0.960 . S
H1051 N1031 0.862 . S
O1052 Co1020 1.920 . S
O1052 C1025 1.289 . S
C1053 O1045 1.258 . S
C1053 O1046 1.266 . S
Co1054 O1057 1.970 . S
Co1054 N1071 1.989 . S
Co1054 O1079 1.967 . S
Co1054 O1086 1.920 . S
Co1055 O1058 1.966 . S
Co1055 N1064 2.022 . S
Co1055 N1072 1.993 . S
Co1055 O1080 1.941 . S
C1056 O1057 1.258 . S
C1056 O1058 1.263 . S
O1057 Co1054 1.970 . S
O1057 C1056 1.258 . S
O1058 Co1055 1.966 . S
O1058 C1056 1.263 . S
C1059 O1060 1.235 . S
C1059 O1086 1.289 . S
O1060 C1059 1.235 . S
C1061 C1063 1.400 . S
C1061 N1064 1.351 . S
C1061 C1066 1.501 . S
C1062 C1063 1.387 . S
C1062 N1065 1.341 . S
C1063 C1061 1.400 . S
C1063 C1062 1.387 . S
N1064 Co1055 2.022 . S
N1064 C1061 1.351 . S
N1064 N1065 1.365 . S
N1065 C1062 1.341 . S
N1065 N1064 1.365 . S
N1065 H1085 0.862 . S
C1066 C1061 1.501 . S
C1066 H1067 0.961 . S
C1066 H1068 0.961 . S
C1066 H1069 0.960 . S
H1067 C1066 0.961 . S
H1068 C1066 0.961 . S
H1069 C1066 0.960 . S
C1070 N1071 1.342 . S
C1070 C1074 1.401 . S
C1070 C1075 1.499 . S
N1071 Co1054 1.989 . S
N1071 C1070 1.342 . S
N1071 N1072 1.388 . S
N1072 Co1055 1.993 . S
N1072 N1071 1.388 . S
N1072 C1073 1.346 . S
C1073 N1072 1.346 . S
C1073 C1074 1.396 . S
C1073 C1083 1.510 . S
C1074 C1070 1.401 . S
C1074 C1073 1.396 . S
C1075 C1070 1.499 . S
C1075 H1076 0.959 . S
C1075 H1077 0.960 . S
C1075 H1078 0.961 . S
H1076 C1075 0.959 . S
H1077 C1075 0.960 . S
H1078 C1075 0.961 . S
O1079 Co1054 1.967 . S
O1079 C1087 1.258 . S
O1080 Co1055 1.941 . S
O1080 C1087 1.266 . S
H1081 C1083 0.959 . S
H1082 C1083 0.961 . S
C1083 C1073 1.510 . S
C1083 H1081 0.959 . S
C1083 H1082 0.961 . S
C1083 H1084 0.960 . S
H1084 C1083 0.960 . S
H1085 N1065 0.862 . S
O1086 Co1054 1.920 . S
O1086 C1059 1.289 . S
C1087 O1079 1.258 . S
C1087 O1080 1.266 . S
Co1088 O1091 1.970 . S
Co1088 N1105 1.989 . S
Co1088 O1113 1.967 . S
Co1088 O1120 1.920 . S
Co1089 O1092 1.966 . S
Co1089 N1098 2.022 . S
Co1089 N1106 1.993 . S
Co1089 O1114 1.941 . S
C1090 O1091 1.258 . S
C1090 O1092 1.263 . S
O1091 Co1088 1.970 . S
O1091 C1090 1.258 . S
O1092 Co1089 1.966 . S
O1092 C1090 1.263 . S
C1093 O1094 1.235 . S
C1093 O1120 1.289 . S
O1094 C1093 1.235 . S
C1095 C1097 1.400 . S
C1095 N1098 1.351 . S
C1095 C1100 1.501 . S
C1096 C1097 1.387 . S
C1096 N1099 1.341 . S
C1097 C1095 1.400 . S
C1097 C1096 1.387 . S
N1098 Co1089 2.022 . S
N1098 C1095 1.351 . S
N1098 N1099 1.365 . S
N1099 C1096 1.341 . S
N1099 N1098 1.365 . S
N1099 H1119 0.862 . S
C1100 C1095 1.501 . S
C1100 H1101 0.961 . S
C1100 H1102 0.961 . S
C1100 H1103 0.960 . S
H1101 C1100 0.961 . S
H1102 C1100 0.961 . S
H1103 C1100 0.960 . S
C1104 N1105 1.342 . S
C1104 C1108 1.401 . S
C1104 C1109 1.499 . S
N1105 Co1088 1.989 . S
N1105 C1104 1.342 . S
N1105 N1106 1.388 . S
N1106 Co1089 1.993 . S
N1106 N1105 1.388 . S
N1106 C1107 1.346 . S
C1107 N1106 1.346 . S
C1107 C1108 1.396 . S
C1107 C1117 1.510 . S
C1108 C1104 1.401 . S
C1108 C1107 1.396 . S
C1109 C1104 1.499 . S
C1109 H1110 0.959 . S
C1109 H1111 0.960 . S
C1109 H1112 0.961 . S
H1110 C1109 0.959 . S
H1111 C1109 0.960 . S
H1112 C1109 0.961 . S
O1113 Co1088 1.967 . S
O1113 C1121 1.258 . S
O1114 Co1089 1.941 . S
O1114 C1121 1.266 . S
H1115 C1117 0.959 . S
H1116 C1117 0.961 . S
C1117 C1107 1.510 . S
C1117 H1115 0.959 . S
C1117 H1116 0.961 . S
C1117 H1118 0.960 . S
H1118 C1117 0.960 . S
H1119 N1099 0.862 . S
O1120 Co1088 1.920 . S
O1120 C1093 1.289 . S
C1121 O1113 1.258 . S
C1121 O1114 1.266 . S
Co1122 O1125 1.970 1_554 S
Co1122 N1139 1.989 1_554 S
Co1122 O1147 1.967 1_554 S
Co1122 O1154 1.920 . S
Co1123 O1126 1.966 . S
Co1123 N1132 2.022 . S
Co1123 N1140 1.993 . S
Co1123 O1148 1.941 . S
C1124 O1125 1.258 . S
C1124 O1126 1.263 . S
O1125 Co1122 1.970 1_556 S
O1125 C1124 1.258 . S
O1126 Co1123 1.966 . S
O1126 C1124 1.263 . S
C1127 O1128 1.235 . S
C1127 O1154 1.289 . S
O1128 C1127 1.235 . S
C1129 C1131 1.400 . S
C1129 N1132 1.351 . S
C1129 C1134 1.501 . S
C1130 C1131 1.387 . S
C1130 N1133 1.341 . S
C1131 C1129 1.400 . S
C1131 C1130 1.387 . S
N1132 Co1123 2.022 . S
N1132 C1129 1.351 . S
N1132 N1133 1.365 . S
N1133 C1130 1.341 . S
N1133 N1132 1.365 . S
N1133 H1153 0.862 . S
C1134 C1129 1.501 . S
C1134 H1135 0.961 . S
C1134 H1136 0.961 . S
C1134 H1137 0.960 . S
H1135 C1134 0.961 . S
H1136 C1134 0.961 . S
H1137 C1134 0.960 . S
C1138 N1139 1.342 . S
C1138 C1142 1.401 . S
C1138 C1143 1.499 1_556 S
N1139 Co1122 1.989 1_556 S
N1139 C1138 1.342 . S
N1139 N1140 1.388 . S
N1140 Co1123 1.993 . S
N1140 N1139 1.388 . S
N1140 C1141 1.346 . S
C1141 N1140 1.346 . S
C1141 C1142 1.396 . S
C1141 C1151 1.510 . S
C1142 C1138 1.401 . S
C1142 C1141 1.396 . S
C1143 C1138 1.499 1_554 S
C1143 H1144 0.959 . S
C1143 H1145 0.960 . S
C1143 H1146 0.961 . S
H1144 C1143 0.959 . S
H1145 C1143 0.960 . S
H1146 C1143 0.961 . S
O1147 Co1122 1.967 1_556 S
O1147 C1155 1.258 . S
O1148 Co1123 1.941 . S
O1148 C1155 1.266 . S
H1149 C1151 0.959 . S
H1150 C1151 0.961 . S
C1151 C1141 1.510 . S
C1151 H1149 0.959 . S
C1151 H1150 0.961 . S
C1151 H1152 0.960 . S
H1152 C1151 0.960 . S
H1153 N1133 0.862 . S
O1154 Co1122 1.920 . S
O1154 C1127 1.289 . S
C1155 O1147 1.258 . S
C1155 O1148 1.266 . S
Co1156 O1159 1.970 1_554 S
Co1156 N1173 1.989 1_554 S
Co1156 O1181 1.967 1_554 S
Co1156 O1188 1.920 . S
Co1157 O1160 1.966 . S
Co1157 N1166 2.022 . S
Co1157 N1174 1.993 . S
Co1157 O1182 1.941 . S
C1158 O1159 1.258 . S
C1158 O1160 1.263 . S
O1159 Co1156 1.970 1_556 S
O1159 C1158 1.258 . S
O1160 Co1157 1.966 . S
O1160 C1158 1.263 . S
C1161 O1162 1.235 . S
C1161 O1188 1.289 . S
O1162 C1161 1.235 . S
C1163 C1165 1.400 . S
C1163 N1166 1.351 . S
C1163 C1168 1.501 . S
C1164 C1165 1.387 . S
C1164 N1167 1.341 . S
C1165 C1163 1.400 . S
C1165 C1164 1.387 . S
N1166 Co1157 2.022 . S
N1166 C1163 1.351 . S
N1166 N1167 1.365 . S
N1167 C1164 1.341 . S
N1167 N1166 1.365 . S
N1167 H1187 0.862 . S
C1168 C1163 1.501 . S
C1168 H1169 0.961 . S
C1168 H1170 0.961 . S
C1168 H1171 0.960 . S
H1169 C1168 0.961 . S
H1170 C1168 0.961 . S
H1171 C1168 0.960 . S
C1172 N1173 1.342 . S
C1172 C1176 1.401 . S
C1172 C1177 1.499 1_556 S
N1173 Co1156 1.989 1_556 S
N1173 C1172 1.342 . S
N1173 N1174 1.388 . S
N1174 Co1157 1.993 . S
N1174 N1173 1.388 . S
N1174 C1175 1.346 . S
C1175 N1174 1.346 . S
C1175 C1176 1.396 . S
C1175 C1185 1.510 . S
C1176 C1172 1.401 . S
C1176 C1175 1.396 . S
C1177 C1172 1.499 1_554 S
C1177 H1178 0.959 . S
C1177 H1179 0.960 . S
C1177 H1180 0.961 . S
H1178 C1177 0.959 . S
H1179 C1177 0.960 . S
H1180 C1177 0.961 . S
O1181 Co1156 1.967 1_556 S
O1181 C1189 1.258 . S
O1182 Co1157 1.941 . S
O1182 C1189 1.266 . S
H1183 C1185 0.959 . S
H1184 C1185 0.961 . S
C1185 C1175 1.510 . S
C1185 H1183 0.959 . S
C1185 H1184 0.961 . S
C1185 H1186 0.960 . S
H1186 C1185 0.960 . S
H1187 N1167 0.862 . S
O1188 Co1156 1.920 . S
O1188 C1161 1.289 . S
C1189 O1181 1.258 . S
C1189 O1182 1.266 . S
Co1190 O1193 1.970 1_554 S
Co1190 N1207 1.989 1_554 S
Co1190 O1215 1.967 1_554 S
Co1190 O1222 1.920 . S
Co1191 O1194 1.966 . S
Co1191 N1200 2.022 . S
Co1191 N1208 1.993 . S
Co1191 O1216 1.941 . S
C1192 O1193 1.258 . S
C1192 O1194 1.263 . S
O1193 Co1190 1.970 1_556 S
O1193 C1192 1.258 . S
O1194 Co1191 1.966 . S
O1194 C1192 1.263 . S
C1195 O1196 1.235 . S
C1195 O1222 1.289 . S
O1196 C1195 1.235 . S
C1197 C1199 1.400 . S
C1197 N1200 1.351 . S
C1197 C1202 1.501 . S
C1198 C1199 1.387 . S
C1198 N1201 1.341 . S
C1199 C1197 1.400 . S
C1199 C1198 1.387 . S
N1200 Co1191 2.022 . S
N1200 C1197 1.351 . S
N1200 N1201 1.365 . S
N1201 C1198 1.341 . S
N1201 N1200 1.365 . S
N1201 H1221 0.862 . S
C1202 C1197 1.501 . S
C1202 H1203 0.961 . S
C1202 H1204 0.961 . S
C1202 H1205 0.960 . S
H1203 C1202 0.961 . S
H1204 C1202 0.961 . S
H1205 C1202 0.960 . S
C1206 N1207 1.342 . S
C1206 C1210 1.401 . S
C1206 C1211 1.499 1_556 S
N1207 Co1190 1.989 1_556 S
N1207 C1206 1.342 . S
N1207 N1208 1.388 . S
N1208 Co1191 1.993 . S
N1208 N1207 1.388 . S
N1208 C1209 1.346 . S
C1209 N1208 1.346 . S
C1209 C1210 1.396 . S
C1209 C1219 1.510 . S
C1210 C1206 1.401 . S
C1210 C1209 1.396 . S
C1211 C1206 1.499 1_554 S
C1211 H1212 0.959 . S
C1211 H1213 0.960 . S
C1211 H1214 0.961 . S
H1212 C1211 0.959 . S
H1213 C1211 0.960 . S
H1214 C1211 0.961 . S
O1215 Co1190 1.967 1_556 S
O1215 C1223 1.258 . S
O1216 Co1191 1.941 . S
O1216 C1223 1.266 . S
H1217 C1219 0.959 . S
H1218 C1219 0.961 . S
C1219 C1209 1.510 . S
C1219 H1217 0.959 . S
C1219 H1218 0.961 . S
C1219 H1220 0.960 . S
H1220 C1219 0.960 . S
H1221 N1201 0.862 . S
O1222 Co1190 1.920 . S
O1222 C1195 1.289 . S
C1223 O1215 1.258 . S
C1223 O1216 1.266 . S
C1224 C1225 1.387 . S
C1224 H1228 0.950 . S
C1224 C1233 1.390 . S
C1225 C1224 1.387 . S
C1225 C1227 1.387 . S
H1226 C1233 0.950 . S
C1227 C1225 1.387 . S
C1227 C1229 1.390 . S
C1227 H1231 0.950 . S
H1228 C1224 0.950 . S
C1229 C1227 1.390 . S
C1229 C1230 1.387 . S
C1229 H1232 0.950 . S
C1230 C1229 1.387 . S
C1230 C1233 1.387 . S
H1231 C1227 0.950 . S
H1232 C1229 0.950 . S
C1233 C1224 1.390 . S
C1233 H1226 0.950 . S
C1233 C1230 1.387 . S
C1234 C1235 1.387 . S
C1234 H1238 0.950 . S
C1234 C1243 1.390 . S
C1235 C1234 1.387 . S
C1235 C1237 1.387 . S
H1236 C1243 0.950 . S
C1237 C1235 1.387 . S
C1237 C1239 1.390 . S
C1237 H1241 0.950 . S
H1238 C1234 0.950 . S
C1239 C1237 1.390 . S
C1239 C1240 1.387 . S
C1239 H1242 0.950 . S
C1240 C1239 1.387 . S
C1240 C1243 1.387 . S
H1241 C1237 0.950 . S
H1242 C1239 0.950 . S
C1243 C1234 1.390 . S
C1243 H1236 0.950 . S
C1243 C1240 1.387 . S
C1244 C1245 1.387 . S
C1244 H1248 0.950 . S
C1244 C1253 1.390 . S
C1245 C1244 1.387 . S
C1245 C1247 1.387 . S
H1246 C1253 0.950 . S
C1247 C1245 1.387 . S
C1247 C1249 1.390 . S
C1247 H1251 0.950 . S
H1248 C1244 0.950 . S
C1249 C1247 1.390 . S
C1249 C1250 1.387 . S
C1249 H1252 0.950 . S
C1250 C1249 1.387 . S
C1250 C1253 1.387 . S
H1251 C1247 0.950 . S
H1252 C1249 0.950 . S
C1253 C1244 1.390 . S
C1253 H1246 0.950 . S
C1253 C1250 1.387 . S
C1254 C1255 1.387 . S
C1254 H1258 0.950 . S
C1254 C1263 1.390 . S
C1255 C1254 1.387 . S
C1255 C1257 1.387 . S
H1256 C1263 0.950 . S
C1257 C1255 1.387 . S
C1257 C1259 1.390 . S
C1257 H1261 0.950 . S
H1258 C1254 0.950 . S
C1259 C1257 1.390 . S
C1259 C1260 1.387 . S
C1259 H1262 0.950 . S
C1260 C1259 1.387 . S
C1260 C1263 1.387 . S
H1261 C1257 0.950 . S
H1262 C1259 0.950 . S
C1263 C1254 1.390 . S
C1263 H1256 0.950 . S
C1263 C1260 1.387 . S
C1264 C1265 1.387 . S
C1264 H1268 0.950 . S
C1264 C1273 1.390 . S
C1265 C1264 1.387 . S
C1265 C1267 1.387 . S
H1266 C1273 0.950 . S
C1267 C1265 1.387 . S
C1267 C1269 1.390 . S
C1267 H1271 0.950 . S
H1268 C1264 0.950 . S
C1269 C1267 1.390 . S
C1269 C1270 1.387 . S
C1269 H1272 0.950 . S
C1270 C1269 1.387 . S
C1270 C1273 1.387 . S
H1271 C1267 0.950 . S
H1272 C1269 0.950 . S
C1273 C1264 1.390 . S
C1273 H1266 0.950 . S
C1273 C1270 1.387 . S
C1274 C1275 1.387 . S
C1274 H1278 0.950 . S
C1274 C1283 1.390 . S
C1275 C1274 1.387 . S
C1275 C1277 1.387 . S
H1276 C1283 0.950 . S
C1277 C1275 1.387 . S
C1277 C1279 1.390 . S
C1277 H1281 0.950 . S
H1278 C1274 0.950 . S
C1279 C1277 1.390 . S
C1279 C1280 1.387 . S
C1279 H1282 0.950 . S
C1280 C1279 1.387 . S
C1280 C1283 1.387 . S
H1281 C1277 0.950 . S
H1282 C1279 0.950 . S
C1283 C1274 1.390 . S
C1283 H1276 0.950 . S
C1283 C1280 1.387 . S
C1284 C1285 1.387 . S
C1284 H1288 0.950 . S
C1284 C1293 1.390 . S
C1285 C1284 1.387 . S
C1285 C1287 1.387 . S
H1286 C1293 0.950 . S
C1287 C1285 1.387 . S
C1287 C1289 1.390 . S
C1287 H1291 0.950 . S
H1288 C1284 0.950 . S
C1289 C1287 1.390 . S
C1289 C1290 1.387 . S
C1289 H1292 0.950 . S
C1290 C1289 1.387 . S
C1290 C1293 1.387 . S
H1291 C1287 0.950 . S
H1292 C1289 0.950 . S
C1293 C1284 1.390 . S
C1293 H1286 0.950 . S
C1293 C1290 1.387 . S
C1294 C1295 1.387 . S
C1294 H1298 0.950 . S
C1294 C1303 1.390 . S
C1295 C1294 1.387 . S
C1295 C1297 1.387 . S
H1296 C1303 0.950 . S
C1297 C1295 1.387 . S
C1297 C1299 1.390 . S
C1297 H1301 0.950 . S
H1298 C1294 0.950 . S
C1299 C1297 1.390 . S
C1299 C1300 1.387 . S
C1299 H1302 0.950 . S
C1300 C1299 1.387 . S
C1300 C1303 1.387 . S
H1301 C1297 0.950 . S
H1302 C1299 0.950 . S
C1303 C1294 1.390 . S
C1303 H1296 0.950 . S
C1303 C1300 1.387 . S
C1304 C1305 1.387 . S
C1304 H1308 0.950 . S
C1304 C1313 1.390 . S
C1305 C1304 1.387 . S
C1305 C1307 1.387 . S
H1306 C1313 0.950 . S
C1307 C1305 1.387 . S
C1307 C1309 1.390 . S
C1307 H1311 0.950 . S
H1308 C1304 0.950 . S
C1309 C1307 1.390 . S
C1309 C1310 1.387 . S
C1309 H1312 0.950 . S
C1310 C1309 1.387 . S
C1310 C1313 1.387 . S
H1311 C1307 0.950 . S
H1312 C1309 0.950 . S
C1313 C1304 1.390 . S
C1313 H1306 0.950 . S
C1313 C1310 1.387 . S
C1314 C1315 1.387 . S
C1314 H1318 0.950 . S
C1314 C1323 1.390 . S
C1315 C1314 1.387 . S
C1315 C1317 1.387 . S
H1316 C1323 0.950 . S
C1317 C1315 1.387 . S
C1317 C1319 1.390 . S
C1317 H1321 0.950 . S
H1318 C1314 0.950 . S
C1319 C1317 1.390 . S
C1319 C1320 1.387 . S
C1319 H1322 0.950 . S
C1320 C1319 1.387 . S
C1320 C1323 1.387 . S
H1321 C1317 0.950 . S
H1322 C1319 0.950 . S
C1323 C1314 1.390 . S
C1323 H1316 0.950 . S
C1323 C1320 1.387 . S
C1324 C1325 1.387 . S
C1324 H1328 0.950 . S
C1324 C1333 1.390 . S
C1325 C1324 1.387 . S
C1325 C1327 1.387 . S
H1326 C1333 0.950 . S
C1327 C1325 1.387 . S
C1327 C1329 1.390 . S
C1327 H1331 0.950 . S
H1328 C1324 0.950 . S
C1329 C1327 1.390 . S
C1329 C1330 1.387 . S
C1329 H1332 0.950 . S
C1330 C1329 1.387 . S
C1330 C1333 1.387 . S
H1331 C1327 0.950 . S
H1332 C1329 0.950 . S
C1333 C1324 1.390 . S
C1333 H1326 0.950 . S
C1333 C1330 1.387 . S
C1334 C1335 1.387 . S
C1334 H1338 0.950 . S
C1334 C1343 1.390 . S
C1335 C1334 1.387 . S
C1335 C1337 1.387 . S
H1336 C1343 0.950 . S
C1337 C1335 1.387 . S
C1337 C1339 1.390 . S
C1337 H1341 0.950 . S
H1338 C1334 0.950 . S
C1339 C1337 1.390 . S
C1339 C1340 1.387 . S
C1339 H1342 0.950 . S
C1340 C1339 1.387 . S
C1340 C1343 1.387 . S
H1341 C1337 0.950 . S
H1342 C1339 0.950 . S
C1343 C1334 1.390 . S
C1343 H1336 0.950 . S
C1343 C1340 1.387 . S
C1344 C1345 1.387 . S
C1344 H1348 0.950 . S
C1344 C1353 1.390 . S
C1345 C1344 1.387 . S
C1345 C1347 1.387 . S
H1346 C1353 0.950 . S
C1347 C1345 1.387 . S
C1347 C1349 1.390 . S
C1347 H1351 0.950 . S
H1348 C1344 0.950 . S
C1349 C1347 1.390 . S
C1349 C1350 1.387 . S
C1349 H1352 0.950 . S
C1350 C1349 1.387 . S
C1350 C1353 1.387 . S
H1351 C1347 0.950 . S
H1352 C1349 0.950 . S
C1353 C1344 1.390 . S
C1353 H1346 0.950 . S
C1353 C1350 1.387 . S
C1354 C1355 1.387 . S
C1354 H1358 0.950 . S
C1354 C1363 1.390 1_565 S
C1355 C1354 1.387 . S
C1355 C1357 1.387 . S
H1356 C1363 0.950 . S
C1357 C1355 1.387 . S
C1357 C1359 1.390 1_565 S
C1357 H1361 0.950 . S
H1358 C1354 0.950 . S
C1359 C1357 1.390 1_545 S
C1359 C1360 1.387 . S
C1359 H1362 0.950 . S
C1360 C1359 1.387 . S
C1360 C1363 1.387 . S
H1361 C1357 0.950 . S
H1362 C1359 0.950 . S
C1363 C1354 1.390 1_545 S
C1363 H1356 0.950 . S
C1363 C1360 1.387 . S
C1364 C1365 1.387 . S
C1364 H1368 0.950 . S
C1364 C1373 1.390 1_655 S
C1365 C1364 1.387 . S
C1365 C1367 1.387 . S
H1366 C1373 0.950 . S
C1367 C1365 1.387 . S
C1367 C1369 1.390 1_655 S
C1367 H1371 0.950 . S
H1368 C1364 0.950 . S
C1369 C1367 1.390 1_455 S
C1369 C1370 1.387 . S
C1369 H1372 0.950 . S
C1370 C1369 1.387 . S
C1370 C1373 1.387 . S
H1371 C1367 0.950 . S
H1372 C1369 0.950 . S
C1373 C1364 1.390 1_455 S
C1373 H1366 0.950 . S
C1373 C1370 1.387 . S
C1374 C1375 1.387 . S
C1374 H1378 0.950 . S
C1374 C1383 1.390 . S
C1375 C1374 1.387 . S
C1375 C1377 1.387 . S
H1376 C1383 0.950 . S
C1377 C1375 1.387 . S
C1377 C1379 1.390 . S
C1377 H1381 0.950 . S
H1378 C1374 0.950 . S
C1379 C1377 1.390 . S
C1379 C1380 1.387 . S
C1379 H1382 0.950 . S
C1380 C1379 1.387 . S
C1380 C1383 1.387 . S
H1381 C1377 0.950 . S
H1382 C1379 0.950 . S
C1383 C1374 1.390 . S
C1383 H1376 0.950 . S
C1383 C1380 1.387 . S
C1384 C1385 1.387 . S
C1384 H1388 0.950 . S
C1384 C1393 1.390 1_565 S
C1385 C1384 1.387 . S
C1385 C1387 1.387 . S
H1386 C1393 0.950 . S
C1387 C1385 1.387 . S
C1387 C1389 1.390 1_565 S
C1387 H1391 0.950 . S
H1388 C1384 0.950 . S
C1389 C1387 1.390 1_545 S
C1389 C1390 1.387 . S
C1389 H1392 0.950 . S
C1390 C1389 1.387 . S
C1390 C1393 1.387 . S
H1391 C1387 0.950 . S
H1392 C1389 0.950 . S
C1393 C1384 1.390 1_545 S
C1393 H1386 0.950 . S
C1393 C1390 1.387 . S
C1394 C1395 1.387 . S
C1394 H1398 0.950 . S
C1394 C1403 1.390 1_655 S
C1395 C1394 1.387 . S
C1395 C1397 1.387 . S
H1396 C1403 0.950 . S
C1397 C1395 1.387 . S
C1397 C1399 1.390 1_655 S
C1397 H1401 0.950 . S
H1398 C1394 0.950 . S
C1399 C1397 1.390 1_455 S
C1399 C1400 1.387 . S
C1399 H1402 0.950 . S
C1400 C1399 1.387 . S
C1400 C1403 1.387 . S
H1401 C1397 0.950 . S
H1402 C1399 0.950 . S
C1403 C1394 1.390 1_455 S
C1403 H1396 0.950 . S
C1403 C1400 1.387 . S
C1404 C1405 1.387 . S
C1404 H1408 0.950 . S
C1404 C1413 1.390 . S
C1405 C1404 1.387 . S
C1405 C1407 1.387 . S
H1406 C1413 0.950 . S
C1407 C1405 1.387 . S
C1407 C1409 1.390 . S
C1407 H1411 0.950 . S
H1408 C1404 0.950 . S
C1409 C1407 1.390 . S
C1409 C1410 1.387 . S
C1409 H1412 0.950 . S
C1410 C1409 1.387 . S
C1410 C1413 1.387 . S
H1411 C1407 0.950 . S
H1412 C1409 0.950 . S
C1413 C1404 1.390 . S
C1413 H1406 0.950 . S
C1413 C1410 1.387 . S
C1414 C1415 1.387 . S
C1414 H1418 0.950 . S
C1414 C1423 1.390 . S
C1415 C1414 1.387 . S
C1415 C1417 1.387 . S
H1416 C1423 0.950 . S
C1417 C1415 1.387 . S
C1417 C1419 1.390 . S
C1417 H1421 0.950 . S
H1418 C1414 0.950 . S
C1419 C1417 1.390 . S
C1419 C1420 1.387 . S
C1419 H1422 0.950 . S
C1420 C1419 1.387 . S
C1420 C1423 1.387 . S
H1421 C1417 0.950 . S
H1422 C1419 0.950 . S
C1423 C1414 1.390 . S
C1423 H1416 0.950 . S
C1423 C1420 1.387 . S
C1424 C1425 1.387 . S
C1424 H1428 0.950 . S
C1424 C1433 1.390 . S
C1425 C1424 1.387 . S
C1425 C1427 1.387 . S
H1426 C1433 0.950 . S
C1427 C1425 1.387 . S
C1427 C1429 1.390 . S
C1427 H1431 0.950 . S
H1428 C1424 0.950 . S
C1429 C1427 1.390 . S
C1429 C1430 1.387 . S
C1429 H1432 0.950 . S
C1430 C1429 1.387 . S
C1430 C1433 1.387 . S
H1431 C1427 0.950 . S
H1432 C1429 0.950 . S
C1433 C1424 1.390 . S
C1433 H1426 0.950 . S
C1433 C1430 1.387 . S
C1434 C1435 1.387 . S
C1434 H1438 0.950 . S
C1434 C1443 1.390 . S
C1435 C1434 1.387 . S
C1435 C1437 1.387 . S
H1436 C1443 0.950 . S
C1437 C1435 1.387 . S
C1437 C1439 1.390 . S
C1437 H1441 0.950 . S
H1438 C1434 0.950 . S
C1439 C1437 1.390 . S
C1439 C1440 1.387 . S
C1439 H1442 0.950 . S
C1440 C1439 1.387 . S
C1440 C1443 1.387 . S
H1441 C1437 0.950 . S
H1442 C1439 0.950 . S
C1443 C1434 1.390 . S
C1443 H1436 0.950 . S
C1443 C1440 1.387 . S
C1444 C1445 1.387 . S
C1444 H1448 0.950 . S
C1444 C1453 1.390 . S
C1445 C1444 1.387 . S
C1445 C1447 1.387 . S
H1446 C1453 0.950 . S
C1447 C1445 1.387 . S
C1447 C1449 1.390 . S
C1447 H1451 0.950 . S
H1448 C1444 0.950 . S
C1449 C1447 1.390 . S
C1449 C1450 1.387 . S
C1449 H1452 0.950 . S
C1450 C1449 1.387 . S
C1450 C1453 1.387 . S
H1451 C1447 0.950 . S
H1452 C1449 0.950 . S
C1453 C1444 1.390 . S
C1453 H1446 0.950 . S
C1453 C1450 1.387 . S
C1454 C1455 1.387 . S
C1454 H1458 0.950 . S
C1454 C1463 1.390 . S
C1455 C1454 1.387 . S
C1455 C1457 1.387 . S
H1456 C1463 0.950 . S
C1457 C1455 1.387 . S
C1457 C1459 1.390 . S
C1457 H1461 0.950 . S
H1458 C1454 0.950 . S
C1459 C1457 1.390 . S
C1459 C1460 1.387 . S
C1459 H1462 0.950 . S
C1460 C1459 1.387 . S
C1460 C1463 1.387 . S
H1461 C1457 0.950 . S
H1462 C1459 0.950 . S
C1463 C1454 1.390 . S
C1463 H1456 0.950 . S
C1463 C1460 1.387 . S
C1464 C1465 1.387 . S
C1464 H1468 0.950 . S
C1464 C1473 1.390 . S
C1465 C1464 1.387 . S
C1465 C1467 1.387 . S
H1466 C1473 0.950 . S
C1467 C1465 1.387 . S
C1467 C1469 1.390 . S
C1467 H1471 0.950 . S
H1468 C1464 0.950 . S
C1469 C1467 1.390 . S
C1469 C1470 1.387 . S
C1469 H1472 0.950 . S
C1470 C1469 1.387 . S
C1470 C1473 1.387 . S
H1471 C1467 0.950 . S
H1472 C1469 0.950 . S
C1473 C1464 1.390 . S
C1473 H1466 0.950 . S
C1473 C1470 1.387 . S
C1474 C1475 1.387 . S
C1474 H1478 0.950 . S
C1474 C1483 1.390 . S
C1475 C1474 1.387 . S
C1475 C1477 1.387 . S
H1476 C1483 0.950 . S
C1477 C1475 1.387 . S
C1477 C1479 1.390 . S
C1477 H1481 0.950 . S
H1478 C1474 0.950 . S
C1479 C1477 1.390 . S
C1479 C1480 1.387 . S
C1479 H1482 0.950 . S
C1480 C1479 1.387 . S
C1480 C1483 1.387 . S
H1481 C1477 0.950 . S
H1482 C1479 0.950 . S
C1483 C1474 1.390 . S
C1483 H1476 0.950 . S
C1483 C1480 1.387 . S
C1484 C1485 1.387 . S
C1484 H1488 0.950 . S
C1484 C1493 1.390 . S
C1485 C1484 1.387 . S
C1485 C1487 1.387 . S
H1486 C1493 0.950 . S
C1487 C1485 1.387 . S
C1487 C1489 1.390 . S
C1487 H1491 0.950 . S
H1488 C1484 0.950 . S
C1489 C1487 1.390 . S
C1489 C1490 1.387 . S
C1489 H1492 0.950 . S
C1490 C1489 1.387 . S
C1490 C1493 1.387 . S
H1491 C1487 0.950 . S
H1492 C1489 0.950 . S
C1493 C1484 1.390 . S
C1493 H1486 0.950 . S
C1493 C1490 1.387 . S
C1494 C1495 1.387 . S
C1494 H1498 0.950 . S
C1494 C1503 1.390 . S
C1495 C1494 1.387 . S
C1495 C1497 1.387 . S
H1496 C1503 0.950 . S
C1497 C1495 1.387 . S
C1497 C1499 1.390 . S
C1497 H1501 0.950 . S
H1498 C1494 0.950 . S
C1499 C1497 1.390 . S
C1499 C1500 1.387 . S
C1499 H1502 0.950 . S
C1500 C1499 1.387 . S
C1500 C1503 1.387 . S
H1501 C1497 0.950 . S
H1502 C1499 0.950 . S
C1503 C1494 1.390 . S
C1503 H1496 0.950 . S
C1503 C1500 1.387 . S
C1504 C1505 1.387 . S
C1504 H1508 0.950 . S
C1504 C1513 1.390 . S
C1505 C1504 1.387 . S
C1505 C1507 1.387 . S
H1506 C1513 0.950 . S
C1507 C1505 1.387 . S
C1507 C1509 1.390 . S
C1507 H1511 0.950 . S
H1508 C1504 0.950 . S
C1509 C1507 1.390 . S
C1509 C1510 1.387 . S
C1509 H1512 0.950 . S
C1510 C1509 1.387 . S
C1510 C1513 1.387 . S
H1511 C1507 0.950 . S
H1512 C1509 0.950 . S
C1513 C1504 1.390 . S
C1513 H1506 0.950 . S
C1513 C1510 1.387 . S
C1514 C1515 1.387 . S
C1514 H1518 0.950 . S
C1514 C1523 1.390 . S
C1515 C1514 1.387 . S
C1515 C1517 1.387 . S
H1516 C1523 0.950 . S
C1517 C1515 1.387 . S
C1517 C1519 1.390 . S
C1517 H1521 0.950 . S
H1518 C1514 0.950 . S
C1519 C1517 1.390 . S
C1519 C1520 1.387 . S
C1519 H1522 0.950 . S
C1520 C1519 1.387 . S
C1520 C1523 1.387 . S
H1521 C1517 0.950 . S
H1522 C1519 0.950 . S
C1523 C1514 1.390 . S
C1523 H1516 0.950 . S
C1523 C1520 1.387 . S
C1524 C1525 1.387 . S
C1524 H1528 0.950 . S
C1524 C1533 1.390 1_655 S
C1525 C1524 1.387 . S
C1525 C1527 1.387 1_556 S
H1526 C1533 0.950 . S
C1527 C1525 1.387 1_554 S
C1527 C1529 1.390 1_655 S
C1527 H1531 0.950 . S
H1528 C1524 0.950 . S
C1529 C1527 1.390 1_455 S
C1529 C1530 1.387 . S
C1529 H1532 0.950 . S
C1530 C1529 1.387 . S
C1530 C1533 1.387 1_554 S
H1531 C1527 0.950 . S
H1532 C1529 0.950 . S
C1533 C1524 1.390 1_455 S
C1533 H1526 0.950 . S
C1533 C1530 1.387 1_556 S
C1534 C1535 1.387 1_554 S
C1534 H1538 0.950 . S
C1534 C1543 1.390 . S
C1535 C1534 1.387 1_556 S
C1535 C1537 1.387 . S
H1536 C1543 0.950 . S
C1537 C1535 1.387 . S
C1537 C1539 1.390 . S
C1537 H1541 0.950 . S
H1538 C1534 0.950 . S
C1539 C1537 1.390 . S
C1539 C1540 1.387 1_556 S
C1539 H1542 0.950 . S
C1540 C1539 1.387 1_554 S
C1540 C1543 1.387 . S
H1541 C1537 0.950 . S
H1542 C1539 0.950 . S
C1543 C1534 1.390 . S
C1543 H1536 0.950 . S
C1543 C1540 1.387 . S
C1544 C1545 1.387 . S
C1544 H1548 0.950 . S
C1544 C1553 1.390 1_564 S
C1545 C1544 1.387 . S
C1545 C1547 1.387 . S
H1546 C1553 0.950 . S
C1547 C1545 1.387 . S
C1547 C1549 1.390 1_564 S
C1547 H1551 0.950 . S
H1548 C1544 0.950 . S
C1549 C1547 1.390 1_546 S
C1549 C1550 1.387 . S
C1549 H1552 0.950 . S
C1550 C1549 1.387 . S
C1550 C1553 1.387 . S
H1551 C1547 0.950 . S
H1552 C1549 0.950 . S
C1553 C1544 1.390 1_546 S
C1553 H1546 0.950 . S
C1553 C1550 1.387 . S
C1554 C1555 1.387 . S
C1554 H1558 0.950 . S
C1554 C1563 1.390 1_564 S
C1555 C1554 1.387 . S
C1555 C1557 1.387 . S
H1556 C1563 0.950 . S
C1557 C1555 1.387 . S
C1557 C1559 1.390 1_564 S
C1557 H1561 0.950 . S
H1558 C1554 0.950 . S
C1559 C1557 1.390 1_546 S
C1559 C1560 1.387 . S
C1559 H1562 0.950 . S
C1560 C1559 1.387 . S
C1560 C1563 1.387 . S
H1561 C1557 0.950 . S
H1562 C1559 0.950 . S
C1563 C1554 1.390 1_546 S
C1563 H1556 0.950 . S
C1563 C1560 1.387 . S
C1564 C1565 1.387 . S
C1564 H1568 0.950 . S
C1564 C1573 1.390 1_655 S
C1565 C1564 1.387 . S
C1565 C1567 1.387 1_556 S
H1566 C1573 0.950 . S
C1567 C1565 1.387 1_554 S
C1567 C1569 1.390 1_655 S
C1567 H1571 0.950 . S
H1568 C1564 0.950 . S
C1569 C1567 1.390 1_455 S
C1569 C1570 1.387 . S
C1569 H1572 0.950 . S
C1570 C1569 1.387 . S
C1570 C1573 1.387 1_554 S
H1571 C1567 0.950 . S
H1572 C1569 0.950 . S
C1573 C1564 1.390 1_455 S
C1573 H1566 0.950 . S
C1573 C1570 1.387 1_556 S
C1574 C1575 1.387 1_554 S
C1574 H1578 0.950 . S
C1574 C1583 1.390 . S
C1575 C1574 1.387 1_556 S
C1575 C1577 1.387 . S
H1576 C1583 0.950 . S
C1577 C1575 1.387 . S
C1577 C1579 1.390 . S
C1577 H1581 0.950 . S
H1578 C1574 0.950 . S
C1579 C1577 1.390 . S
C1579 C1580 1.387 1_556 S
C1579 H1582 0.950 . S
C1580 C1579 1.387 1_554 S
C1580 C1583 1.387 . S
H1581 C1577 0.950 . S
H1582 C1579 0.950 . S
C1583 C1574 1.390 . S
C1583 H1576 0.950 . S
C1583 C1580 1.387 . S
C1584 C1585 1.387 . S
C1584 H1588 0.950 . S
C1584 C1593 1.390 . S
C1585 C1584 1.387 . S
C1585 C1587 1.387 . S
H1586 C1593 0.950 . S
C1587 C1585 1.387 . S
C1587 C1589 1.390 . S
C1587 H1591 0.950 . S
H1588 C1584 0.950 . S
C1589 C1587 1.390 . S
C1589 C1590 1.387 . S
C1589 H1592 0.950 . S
C1590 C1589 1.387 . S
C1590 C1593 1.387 . S
H1591 C1587 0.950 . S
H1592 C1589 0.950 . S
C1593 C1584 1.390 . S
C1593 H1586 0.950 . S
C1593 C1590 1.387 . S
C1594 C1595 1.387 . S
C1594 H1598 0.950 . S
C1594 C1603 1.390 . S
C1595 C1594 1.387 . S
C1595 C1597 1.387 . S
H1596 C1603 0.950 . S
C1597 C1595 1.387 . S
C1597 C1599 1.390 . S
C1597 H1601 0.950 . S
H1598 C1594 0.950 . S
C1599 C1597 1.390 . S
C1599 C1600 1.387 . S
C1599 H1602 0.950 . S
C1600 C1599 1.387 . S
C1600 C1603 1.387 . S
H1601 C1597 0.950 . S
H1602 C1599 0.950 . S
C1603 C1594 1.390 . S
C1603 H1596 0.950 . S
C1603 C1600 1.387 . S
C1604 C1605 1.387 . S
C1604 H1608 0.950 . S
C1604 C1613 1.390 . S
C1605 C1604 1.387 . S
C1605 C1607 1.387 . S
H1606 C1613 0.950 . S
C1607 C1605 1.387 . S
C1607 C1609 1.390 . S
C1607 H1611 0.950 . S
H1608 C1604 0.950 . S
C1609 C1607 1.390 . S
C1609 C1610 1.387 . S
C1609 H1612 0.950 . S
C1610 C1609 1.387 . S
C1610 C1613 1.387 . S
H1611 C1607 0.950 . S
H1612 C1609 0.950 . S
C1613 C1604 1.390 . S
C1613 H1606 0.950 . S
C1613 C1610 1.387 . S
C1614 C1615 1.387 . S
C1614 H1618 0.950 . S
C1614 C1623 1.390 . S
C1615 C1614 1.387 . S
C1615 C1617 1.387 . S
H1616 C1623 0.950 . S
C1617 C1615 1.387 . S
C1617 C1619 1.390 . S
C1617 H1621 0.950 . S
H1618 C1614 0.950 . S
C1619 C1617 1.390 . S
C1619 C1620 1.387 . S
C1619 H1622 0.950 . S
C1620 C1619 1.387 . S
C1620 C1623 1.387 . S
H1621 C1617 0.950 . S
H1622 C1619 0.950 . S
C1623 C1614 1.390 . S
C1623 H1616 0.950 . S
C1623 C1620 1.387 . S
C1624 C1625 1.387 . S
C1624 H1628 0.950 . S
C1624 C1633 1.390 . S
C1625 C1624 1.387 . S
C1625 C1627 1.387 . S
H1626 C1633 0.950 . S
C1627 C1625 1.387 . S
C1627 C1629 1.390 . S
C1627 H1631 0.950 . S
H1628 C1624 0.950 . S
C1629 C1627 1.390 . S
C1629 C1630 1.387 . S
C1629 H1632 0.950 . S
C1630 C1629 1.387 . S
C1630 C1633 1.387 . S
H1631 C1627 0.950 . S
H1632 C1629 0.950 . S
C1633 C1624 1.390 . S
C1633 H1626 0.950 . S
C1633 C1630 1.387 . S
C1634 C1635 1.387 . S
C1634 H1638 0.950 . S
C1634 C1643 1.390 . S
C1635 C1634 1.387 . S
C1635 C1637 1.387 . S
H1636 C1643 0.950 . S
C1637 C1635 1.387 . S
C1637 C1639 1.390 . S
C1637 H1641 0.950 . S
H1638 C1634 0.950 . S
C1639 C1637 1.390 . S
C1639 C1640 1.387 . S
C1639 H1642 0.950 . S
C1640 C1639 1.387 . S
C1640 C1643 1.387 . S
H1641 C1637 0.950 . S
H1642 C1639 0.950 . S
C1643 C1634 1.390 . S
C1643 H1636 0.950 . S
C1643 C1640 1.387 . S
C1644 C1645 1.387 . S
C1644 H1648 0.950 . S
C1644 C1653 1.390 . S
C1645 C1644 1.387 . S
C1645 C1647 1.387 . S
H1646 C1653 0.950 . S
C1647 C1645 1.387 . S
C1647 C1649 1.390 . S
C1647 H1651 0.950 . S
H1648 C1644 0.950 . S
C1649 C1647 1.390 . S
C1649 C1650 1.387 . S
C1649 H1652 0.950 . S
C1650 C1649 1.387 . S
C1650 C1653 1.387 . S
H1651 C1647 0.950 . S
H1652 C1649 0.950 . S
C1653 C1644 1.390 . S
C1653 H1646 0.950 . S
C1653 C1650 1.387 . S
C1654 C1655 1.387 . S
C1654 H1658 0.950 . S
C1654 C1663 1.390 . S
C1655 C1654 1.387 . S
C1655 C1657 1.387 . S
H1656 C1663 0.950 . S
C1657 C1655 1.387 . S
C1657 C1659 1.390 . S
C1657 H1661 0.950 . S
H1658 C1654 0.950 . S
C1659 C1657 1.390 . S
C1659 C1660 1.387 . S
C1659 H1662 0.950 . S
C1660 C1659 1.387 . S
C1660 C1663 1.387 . S
H1661 C1657 0.950 . S
H1662 C1659 0.950 . S
C1663 C1654 1.390 . S
C1663 H1656 0.950 . S
C1663 C1660 1.387 . S
C1664 C1665 1.387 . S
C1664 H1668 0.950 . S
C1664 C1673 1.390 . S
C1665 C1664 1.387 . S
C1665 C1667 1.387 . S
H1666 C1673 0.950 . S
C1667 C1665 1.387 . S
C1667 C1669 1.390 . S
C1667 H1671 0.950 . S
H1668 C1664 0.950 . S
C1669 C1667 1.390 . S
C1669 C1670 1.387 . S
C1669 H1672 0.950 . S
C1670 C1669 1.387 . S
C1670 C1673 1.387 . S
H1671 C1667 0.950 . S
H1672 C1669 0.950 . S
C1673 C1664 1.390 . S
C1673 H1666 0.950 . S
C1673 C1670 1.387 . S
C1674 C1675 1.387 . S
C1674 H1678 0.950 . S
C1674 C1683 1.390 . S
C1675 C1674 1.387 . S
C1675 C1677 1.387 . S
H1676 C1683 0.950 . S
C1677 C1675 1.387 . S
C1677 C1679 1.390 . S
C1677 H1681 0.950 1_554 S
H1678 C1674 0.950 . S
C1679 C1677 1.390 . S
C1679 C1680 1.387 . S
C1679 H1682 0.950 1_554 S
C1680 C1679 1.387 . S
C1680 C1683 1.387 . S
H1681 C1677 0.950 1_556 S
H1682 C1679 0.950 1_556 S
C1683 C1674 1.390 . S
C1683 H1676 0.950 . S
C1683 C1680 1.387 . S
C1684 C1685 1.387 . S
C1684 H1688 0.950 1_554 S
C1684 C1693 1.390 . S
C1685 C1684 1.387 . S
C1685 C1687 1.387 . S
H1686 C1693 0.950 1_556 S
C1687 C1685 1.387 . S
C1687 C1689 1.390 . S
C1687 H1691 0.950 . S
H1688 C1684 0.950 1_556 S
C1689 C1687 1.390 . S
C1689 C1690 1.387 . S
C1689 H1692 0.950 . S
C1690 C1689 1.387 . S
C1690 C1693 1.387 . S
H1691 C1687 0.950 . S
H1692 C1689 0.950 . S
C1693 C1684 1.390 . S
C1693 H1686 0.950 1_554 S
C1693 C1690 1.387 . S
C1694 C1695 1.387 . S
C1694 H1698 0.950 . S
C1694 C1703 1.390 . S
C1695 C1694 1.387 . S
C1695 C1697 1.387 . S
H1696 C1703 0.950 . S
C1697 C1695 1.387 . S
C1697 C1699 1.390 . S
C1697 H1701 0.950 . S
H1698 C1694 0.950 . S
C1699 C1697 1.390 . S
C1699 C1700 1.387 . S
C1699 H1702 0.950 . S
C1700 C1699 1.387 . S
C1700 C1703 1.387 . S
H1701 C1697 0.950 . S
H1702 C1699 0.950 . S
C1703 C1694 1.390 . S
C1703 H1696 0.950 . S
C1703 C1700 1.387 . S
C1704 C1705 1.387 . S
C1704 H1708 0.950 . S
C1704 C1713 1.390 . S
C1705 C1704 1.387 . S
C1705 C1707 1.387 . S
H1706 C1713 0.950 . S
C1707 C1705 1.387 . S
C1707 C1709 1.390 . S
C1707 H1711 0.950 . S
H1708 C1704 0.950 . S
C1709 C1707 1.390 . S
C1709 C1710 1.387 . S
C1709 H1712 0.950 . S
C1710 C1709 1.387 . S
C1710 C1713 1.387 . S
H1711 C1707 0.950 . S
H1712 C1709 0.950 . S
C1713 C1704 1.390 . S
C1713 H1706 0.950 . S
C1713 C1710 1.387 . S
C1714 C1715 1.387 . S
C1714 H1718 0.950 1_556 S
C1714 C1723 1.390 . S
C1715 C1714 1.387 . S
C1715 C1717 1.387 . S
H1716 C1723 0.950 1_554 S
C1717 C1715 1.387 . S
C1717 C1719 1.390 . S
C1717 H1721 0.950 . S
H1718 C1714 0.950 1_554 S
C1719 C1717 1.390 . S
C1719 C1720 1.387 . S
C1719 H1722 0.950 . S
C1720 C1719 1.387 . S
C1720 C1723 1.387 . S
H1721 C1717 0.950 . S
H1722 C1719 0.950 . S
C1723 C1714 1.390 . S
C1723 H1716 0.950 1_556 S
C1723 C1720 1.387 . S
C1724 C1725 1.387 . S
C1724 H1728 0.950 . S
C1724 C1733 1.390 . S
C1725 C1724 1.387 . S
C1725 C1727 1.387 . S
H1726 C1733 0.950 . S
C1727 C1725 1.387 . S
C1727 C1729 1.390 . S
C1727 H1731 0.950 1_556 S
H1728 C1724 0.950 . S
C1729 C1727 1.390 . S
C1729 C1730 1.387 . S
C1729 H1732 0.950 1_556 S
C1730 C1729 1.387 . S
C1730 C1733 1.387 . S
H1731 C1727 0.950 1_554 S
H1732 C1729 0.950 1_554 S
C1733 C1724 1.390 . S
C1733 H1726 0.950 . S
C1733 C1730 1.387 . S
C1734 C1735 1.387 . S
C1734 H1738 0.950 . S
C1734 C1743 1.390 . S
C1735 C1734 1.387 . S
C1735 C1737 1.387 . S
H1736 C1743 0.950 . S
C1737 C1735 1.387 . S
C1737 C1739 1.390 . S
C1737 H1741 0.950 . S
H1738 C1734 0.950 . S
C1739 C1737 1.390 . S
C1739 C1740 1.387 . S
C1739 H1742 0.950 . S
C1740 C1739 1.387 . S
C1740 C1743 1.387 . S
H1741 C1737 0.950 . S
H1742 C1739 0.950 . S
C1743 C1734 1.390 . S
C1743 H1736 0.950 . S
C1743 C1740 1.387 . S
C1744 C1745 1.387 . S
C1744 H1748 0.950 . S
C1744 C1753 1.390 . S
C1745 C1744 1.387 . S
C1745 C1747 1.387 . S
H1746 C1753 0.950 . S
C1747 C1745 1.387 . S
C1747 C1749 1.390 . S
C1747 H1751 0.950 . S
H1748 C1744 0.950 . S
C1749 C1747 1.390 . S
C1749 C1750 1.387 . S
C1749 H1752 0.950 . S
C1750 C1749 1.387 . S
C1750 C1753 1.387 . S
H1751 C1747 0.950 . S
H1752 C1749 0.950 . S
C1753 C1744 1.390 . S
C1753 H1746 0.950 . S
C1753 C1750 1.387 . S
C1754 C1755 1.387 . S
C1754 H1758 0.950 . S
C1754 C1763 1.390 . S
C1755 C1754 1.387 . S
C1755 C1757 1.387 . S
H1756 C1763 0.950 . S
C1757 C1755 1.387 . S
C1757 C1759 1.390 . S
C1757 H1761 0.950 . S
H1758 C1754 0.950 . S
C1759 C1757 1.390 . S
C1759 C1760 1.387 . S
C1759 H1762 0.950 . S
C1760 C1759 1.387 . S
C1760 C1763 1.387 . S
H1761 C1757 0.950 . S
H1762 C1759 0.950 . S
C1763 C1754 1.390 . S
C1763 H1756 0.950 . S
C1763 C1760 1.387 . S
C1764 C1765 1.387 . S
C1764 H1768 0.950 . S
C1764 C1773 1.390 . S
C1765 C1764 1.387 . S
C1765 C1767 1.387 . S
H1766 C1773 0.950 . S
C1767 C1765 1.387 . S
C1767 C1769 1.390 . S
C1767 H1771 0.950 . S
H1768 C1764 0.950 . S
C1769 C1767 1.390 . S
C1769 C1770 1.387 . S
C1769 H1772 0.950 . S
C1770 C1769 1.387 . S
C1770 C1773 1.387 . S
H1771 C1767 0.950 . S
H1772 C1769 0.950 . S
C1773 C1764 1.390 . S
C1773 H1766 0.950 . S
C1773 C1770 1.387 . S
C1774 C1775 1.387 . S
C1774 H1778 0.950 . S
C1774 C1783 1.390 . S
C1775 C1774 1.387 . S
C1775 C1777 1.387 . S
H1776 C1783 0.950 . S
C1777 C1775 1.387 . S
C1777 C1779 1.390 . S
C1777 H1781 0.950 . S
H1778 C1774 0.950 . S
C1779 C1777 1.390 . S
C1779 C1780 1.387 . S
C1779 H1782 0.950 . S
C1780 C1779 1.387 . S
C1780 C1783 1.387 . S
H1781 C1777 0.950 . S
H1782 C1779 0.950 . S
C1783 C1774 1.390 . S
C1783 H1776 0.950 . S
C1783 C1780 1.387 . S
C1784 C1785 1.387 . S
C1784 H1788 0.950 . S
C1784 C1793 1.390 . S
C1785 C1784 1.387 . S
C1785 C1787 1.387 . S
H1786 C1793 0.950 . S
C1787 C1785 1.387 . S
C1787 C1789 1.390 . S
C1787 H1791 0.950 . S
H1788 C1784 0.950 . S
C1789 C1787 1.390 . S
C1789 C1790 1.387 . S
C1789 H1792 0.950 . S
C1790 C1789 1.387 . S
C1790 C1793 1.387 . S
H1791 C1787 0.950 . S
H1792 C1789 0.950 . S
C1793 C1784 1.390 . S
C1793 H1786 0.950 . S
C1793 C1790 1.387 . S
C1794 C1795 1.387 . S
C1794 H1798 0.950 . S
C1794 C1803 1.390 . S
C1795 C1794 1.387 . S
C1795 C1797 1.387 . S
H1796 C1803 0.950 . S
C1797 C1795 1.387 . S
C1797 C1799 1.390 . S
C1797 H1801 0.950 . S
H1798 C1794 0.950 . S
C1799 C1797 1.390 . S
C1799 C1800 1.387 . S
C1799 H1802 0.950 . S
C1800 C1799 1.387 . S
C1800 C1803 1.387 . S
H1801 C1797 0.950 . S
H1802 C1799 0.950 . S
C1803 C1794 1.390 . S
C1803 H1796 0.950 . S
C1803 C1800 1.387 . S
C1804 C1805 1.387 . S
C1804 H1808 0.950 . S
C1804 C1813 1.390 . S
C1805 C1804 1.387 . S
C1805 C1807 1.387 . S
H1806 C1813 0.950 . S
C1807 C1805 1.387 . S
C1807 C1809 1.390 . S
C1807 H1811 0.950 . S
H1808 C1804 0.950 . S
C1809 C1807 1.390 . S
C1809 C1810 1.387 . S
C1809 H1812 0.950 . S
C1810 C1809 1.387 . S
C1810 C1813 1.387 . S
H1811 C1807 0.950 . S
H1812 C1809 0.950 . S
C1813 C1804 1.390 . S
C1813 H1806 0.950 . S
C1813 C1810 1.387 . S
C1814 C1815 1.387 . S
C1814 H1818 0.950 . S
C1814 C1823 1.390 . S
C1815 C1814 1.387 . S
C1815 C1817 1.387 . S
H1816 C1823 0.950 . S
C1817 C1815 1.387 . S
C1817 C1819 1.390 . S
C1817 H1821 0.950 . S
H1818 C1814 0.950 . S
C1819 C1817 1.390 . S
C1819 C1820 1.387 . S
C1819 H1822 0.950 . S
C1820 C1819 1.387 . S
C1820 C1823 1.387 . S
H1821 C1817 0.950 . S
H1822 C1819 0.950 . S
C1823 C1814 1.390 . S
C1823 H1816 0.950 . S
C1823 C1820 1.387 . S
C1824 C1825 1.387 . S
C1824 H1828 0.950 . S
C1824 C1833 1.390 . S
C1825 C1824 1.387 . S
C1825 C1827 1.387 . S
H1826 C1833 0.950 . S
C1827 C1825 1.387 . S
C1827 C1829 1.390 . S
C1827 H1831 0.950 . S
H1828 C1824 0.950 . S
C1829 C1827 1.390 . S
C1829 C1830 1.387 . S
C1829 H1832 0.950 . S
C1830 C1829 1.387 . S
C1830 C1833 1.387 . S
H1831 C1827 0.950 . S
H1832 C1829 0.950 . S
C1833 C1824 1.390 . S
C1833 H1826 0.950 . S
C1833 C1830 1.387 . S
C1834 C1835 1.387 . S
C1834 H1838 0.950 . S
C1834 C1843 1.390 . S
C1835 C1834 1.387 . S
C1835 C1837 1.387 . S
H1836 C1843 0.950 . S
C1837 C1835 1.387 . S
C1837 C1839 1.390 . S
C1837 H1841 0.950 . S
H1838 C1834 0.950 . S
C1839 C1837 1.390 . S
C1839 C1840 1.387 . S
C1839 H1842 0.950 . S
C1840 C1839 1.387 . S
C1840 C1843 1.387 . S
H1841 C1837 0.950 . S
H1842 C1839 0.950 . S
C1843 C1834 1.390 . S
C1843 H1836 0.950 . S
C1843 C1840 1.387 . S
C1844 C1845 1.387 . S
C1844 H1848 0.950 . S
C1844 C1853 1.390 . S
C1845 C1844 1.387 . S
C1845 C1847 1.387 . S
H1846 C1853 0.950 . S
C1847 C1845 1.387 . S
C1847 C1849 1.390 . S
C1847 H1851 0.950 . S
H1848 C1844 0.950 . S
C1849 C1847 1.390 . S
C1849 C1850 1.387 . S
C1849 H1852 0.950 . S
C1850 C1849 1.387 . S
C1850 C1853 1.387 . S
H1851 C1847 0.950 . S
H1852 C1849 0.950 . S
C1853 C1844 1.390 . S
C1853 H1846 0.950 . S
C1853 C1850 1.387 . S
C1854 C1855 1.387 . S
C1854 H1858 0.950 . S
C1854 C1863 1.390 . S
C1855 C1854 1.387 . S
C1855 C1857 1.387 . S
H1856 C1863 0.950 . S
C1857 C1855 1.387 . S
C1857 C1859 1.390 . S
C1857 H1861 0.950 . S
H1858 C1854 0.950 . S
C1859 C1857 1.390 . S
C1859 C1860 1.387 . S
C1859 H1862 0.950 . S
C1860 C1859 1.387 . S
C1860 C1863 1.387 . S
H1861 C1857 0.950 . S
H1862 C1859 0.950 . S
C1863 C1854 1.390 . S
C1863 H1856 0.950 . S
C1863 C1860 1.387 . S
C1864 C1865 1.387 . S
C1864 H1868 0.950 . S
C1864 C1873 1.390 . S
C1865 C1864 1.387 . S
C1865 C1867 1.387 . S
H1866 C1873 0.950 . S
C1867 C1865 1.387 . S
C1867 C1869 1.390 . S
C1867 H1871 0.950 . S
H1868 C1864 0.950 . S
C1869 C1867 1.390 . S
C1869 C1870 1.387 . S
C1869 H1872 0.950 . S
C1870 C1869 1.387 . S
C1870 C1873 1.387 . S
H1871 C1867 0.950 . S
H1872 C1869 0.950 . S
C1873 C1864 1.390 . S
C1873 H1866 0.950 . S
C1873 C1870 1.387 . S
C1874 C1875 1.387 . S
C1874 H1878 0.950 . S
C1874 C1883 1.390 . S
C1875 C1874 1.387 . S
C1875 C1877 1.387 . S
H1876 C1883 0.950 . S
C1877 C1875 1.387 . S
C1877 C1879 1.390 . S
C1877 H1881 0.950 . S
H1878 C1874 0.950 . S
C1879 C1877 1.390 . S
C1879 C1880 1.387 . S
C1879 H1882 0.950 . S
C1880 C1879 1.387 . S
C1880 C1883 1.387 . S
H1881 C1877 0.950 . S
H1882 C1879 0.950 . S
C1883 C1874 1.390 . S
C1883 H1876 0.950 . S
C1883 C1880 1.387 . S
C1884 C1885 1.387 . S
C1884 H1888 0.950 . S
C1884 C1893 1.390 1_556 S
C1885 C1884 1.387 . S
C1885 C1887 1.387 . S
H1886 C1893 0.950 . S
C1887 C1885 1.387 . S
C1887 C1889 1.390 1_556 S
C1887 H1891 0.950 . S
H1888 C1884 0.950 . S
C1889 C1887 1.390 1_554 S
C1889 C1890 1.387 . S
C1889 H1892 0.950 . S
C1890 C1889 1.387 . S
C1890 C1893 1.387 . S
H1891 C1887 0.950 . S
H1892 C1889 0.950 . S
C1893 C1884 1.390 1_554 S
C1893 H1886 0.950 . S
C1893 C1890 1.387 . S
C1894 C1895 1.387 . S
C1894 H1898 0.950 . S
C1894 C1903 1.390 1_556 S
C1895 C1894 1.387 . S
C1895 C1897 1.387 . S
H1896 C1903 0.950 . S
C1897 C1895 1.387 . S
C1897 C1899 1.390 1_556 S
C1897 H1901 0.950 . S
H1898 C1894 0.950 . S
C1899 C1897 1.390 1_554 S
C1899 C1900 1.387 . S
C1899 H1902 0.950 . S
C1900 C1899 1.387 . S
C1900 C1903 1.387 . S
H1901 C1897 0.950 . S
H1902 C1899 0.950 . S
C1903 C1894 1.390 1_554 S
C1903 H1896 0.950 . S
C1903 C1900 1.387 . S
C1904 C1905 1.387 . S
C1904 H1908 0.950 . S
C1904 C1913 1.390 1_556 S
C1905 C1904 1.387 . S
C1905 C1907 1.387 . S
H1906 C1913 0.950 . S
C1907 C1905 1.387 . S
C1907 C1909 1.390 1_556 S
C1907 H1911 0.950 . S
H1908 C1904 0.950 . S
C1909 C1907 1.390 1_554 S
C1909 C1910 1.387 . S
C1909 H1912 0.950 . S
C1910 C1909 1.387 . S
C1910 C1913 1.387 . S
H1911 C1907 0.950 . S
H1912 C1909 0.950 . S
C1913 C1904 1.390 1_554 S
C1913 H1906 0.950 . S
C1913 C1910 1.387 . S
C1914 C1915 1.387 . S
C1914 H1918 0.950 . S
C1914 C1923 1.390 . S
C1915 C1914 1.387 . S
C1915 C1917 1.387 . S
H1916 C1923 0.950 . S
C1917 C1915 1.387 . S
C1917 C1919 1.390 . S
C1917 H1921 0.950 . S
H1918 C1914 0.950 . S
C1919 C1917 1.390 . S
C1919 C1920 1.387 . S
C1919 H1922 0.950 . S
C1920 C1919 1.387 . S
C1920 C1923 1.387 . S
H1921 C1917 0.950 . S
H1922 C1919 0.950 . S
C1923 C1914 1.390 . S
C1923 H1916 0.950 . S
C1923 C1920 1.387 . S
C1924 C1925 1.387 . S
C1924 H1928 0.950 . S
C1924 C1933 1.390 . S
C1925 C1924 1.387 . S
C1925 C1927 1.387 . S
H1926 C1933 0.950 . S
C1927 C1925 1.387 . S
C1927 C1929 1.390 . S
C1927 H1931 0.950 . S
H1928 C1924 0.950 . S
C1929 C1927 1.390 . S
C1929 C1930 1.387 . S
C1929 H1932 0.950 . S
C1930 C1929 1.387 . S
C1930 C1933 1.387 . S
H1931 C1927 0.950 . S
H1932 C1929 0.950 . S
C1933 C1924 1.390 . S
C1933 H1926 0.950 . S
C1933 C1930 1.387 . S
C1934 C1935 1.387 . S
C1934 H1938 0.950 . S
C1934 C1943 1.390 . S
C1935 C1934 1.387 . S
C1935 C1937 1.387 . S
H1936 C1943 0.950 . S
C1937 C1935 1.387 . S
C1937 C1939 1.390 . S
C1937 H1941 0.950 . S
H1938 C1934 0.950 . S
C1939 C1937 1.390 . S
C1939 C1940 1.387 . S
C1939 H1942 0.950 . S
C1940 C1939 1.387 . S
C1940 C1943 1.387 . S
H1941 C1937 0.950 . S
H1942 C1939 0.950 . S
C1943 C1934 1.390 . S
C1943 H1936 0.950 . S
C1943 C1940 1.387 . S
C1944 C1945 1.387 . S
C1944 H1948 0.950 . S
C1944 C1953 1.390 . S
C1945 C1944 1.387 . S
C1945 C1947 1.387 . S
H1946 C1953 0.950 . S
C1947 C1945 1.387 . S
C1947 C1949 1.390 . S
C1947 H1951 0.950 . S
H1948 C1944 0.950 . S
C1949 C1947 1.390 . S
C1949 C1950 1.387 . S
C1949 H1952 0.950 . S
C1950 C1949 1.387 . S
C1950 C1953 1.387 . S
H1951 C1947 0.950 . S
H1952 C1949 0.950 . S
C1953 C1944 1.390 . S
C1953 H1946 0.950 . S
C1953 C1950 1.387 . S
C1954 C1955 1.387 . S
C1954 H1958 0.950 . S
C1954 C1963 1.390 . S
C1955 C1954 1.387 . S
C1955 C1957 1.387 . S
H1956 C1963 0.950 . S
C1957 C1955 1.387 . S
C1957 C1959 1.390 . S
C1957 H1961 0.950 . S
H1958 C1954 0.950 . S
C1959 C1957 1.390 . S
C1959 C1960 1.387 . S
C1959 H1962 0.950 . S
C1960 C1959 1.387 . S
C1960 C1963 1.387 . S
H1961 C1957 0.950 . S
H1962 C1959 0.950 . S
C1963 C1954 1.390 . S
C1963 H1956 0.950 . S
C1963 C1960 1.387 . S
C1964 C1965 1.387 . S
C1964 H1968 0.950 . S
C1964 C1973 1.390 . S
C1965 C1964 1.387 . S
C1965 C1967 1.387 . S
H1966 C1973 0.950 . S
C1967 C1965 1.387 . S
C1967 C1969 1.390 . S
C1967 H1971 0.950 . S
H1968 C1964 0.950 . S
C1969 C1967 1.390 . S
C1969 C1970 1.387 . S
C1969 H1972 0.950 . S
C1970 C1969 1.387 . S
C1970 C1973 1.387 . S
H1971 C1967 0.950 . S
H1972 C1969 0.950 . S
C1973 C1964 1.390 . S
C1973 H1966 0.950 . S
C1973 C1970 1.387 . S
C1974 C1975 1.387 . S
C1974 H1978 0.950 . S
C1974 C1983 1.390 1_554 S
C1975 C1974 1.387 . S
C1975 C1977 1.387 . S
H1976 C1983 0.950 . S
C1977 C1975 1.387 . S
C1977 C1979 1.390 1_554 S
C1977 H1981 0.950 . S
H1978 C1974 0.950 . S
C1979 C1977 1.390 1_556 S
C1979 C1980 1.387 . S
C1979 H1982 0.950 . S
C1980 C1979 1.387 . S
C1980 C1983 1.387 . S
H1981 C1977 0.950 . S
H1982 C1979 0.950 . S
C1983 C1974 1.390 1_556 S
C1983 H1976 0.950 . S
C1983 C1980 1.387 . S
C1984 C1985 1.387 . S
C1984 H1988 0.950 . S
C1984 C1993 1.390 1_556 S
C1985 C1984 1.387 . S
C1985 C1987 1.387 . S
H1986 C1993 0.950 . S
C1987 C1985 1.387 . S
C1987 C1989 1.390 1_556 S
C1987 H1991 0.950 . S
H1988 C1984 0.950 . S
C1989 C1987 1.390 1_554 S
C1989 C1990 1.387 . S
C1989 H1992 0.950 . S
C1990 C1989 1.387 . S
C1990 C1993 1.387 . S
H1991 C1987 0.950 . S
H1992 C1989 0.950 . S
C1993 C1984 1.390 1_554 S
C1993 H1986 0.950 . S
C1993 C1990 1.387 . S
C1994 C1995 1.387 . S
C1994 H1998 0.950 . S
C1994 C2003 1.390 1_556 S
C1995 C1994 1.387 . S
C1995 C1997 1.387 . S
H1996 C2003 0.950 . S
C1997 C1995 1.387 . S
C1997 C1999 1.390 1_556 S
C1997 H2001 0.950 . S
H1998 C1994 0.950 . S
C1999 C1997 1.390 1_554 S
C1999 C2000 1.387 . S
C1999 H2002 0.950 . S
C2000 C1999 1.387 . S
C2000 C2003 1.387 . S
H2001 C1997 0.950 . S
H2002 C1999 0.950 . S
C2003 C1994 1.390 1_554 S
C2003 H1996 0.950 . S
C2003 C2000 1.387 . S
C2004 C2005 1.387 . S
C2004 H2008 0.950 . S
C2004 C2013 1.390 . S
C2005 C2004 1.387 . S
C2005 C2007 1.387 . S
H2006 C2013 0.950 . S
C2007 C2005 1.387 . S
C2007 C2009 1.390 . S
C2007 H2011 0.950 . S
H2008 C2004 0.950 . S
C2009 C2007 1.390 . S
C2009 C2010 1.387 . S
C2009 H2012 0.950 . S
C2010 C2009 1.387 . S
C2010 C2013 1.387 . S
H2011 C2007 0.950 . S
H2012 C2009 0.950 . S
C2013 C2004 1.390 . S
C2013 H2006 0.950 . S
C2013 C2010 1.387 . S
C2014 C2015 1.387 . S
C2014 H2018 0.950 . S
C2014 C2023 1.390 . S
C2015 C2014 1.387 . S
C2015 C2017 1.387 . S
H2016 C2023 0.950 . S
C2017 C2015 1.387 . S
C2017 C2019 1.390 . S
C2017 H2021 0.950 . S
H2018 C2014 0.950 . S
C2019 C2017 1.390 . S
C2019 C2020 1.387 . S
C2019 H2022 0.950 . S
C2020 C2019 1.387 . S
C2020 C2023 1.387 . S
H2021 C2017 0.950 . S
H2022 C2019 0.950 . S
C2023 C2014 1.390 . S
C2023 H2016 0.950 . S
C2023 C2020 1.387 . S
C2024 C2025 1.387 . S
C2024 H2028 0.950 . S
C2024 C2033 1.390 . S
C2025 C2024 1.387 . S
C2025 C2027 1.387 . S
H2026 C2033 0.950 . S
C2027 C2025 1.387 . S
C2027 C2029 1.390 . S
C2027 H2031 0.950 . S
H2028 C2024 0.950 . S
C2029 C2027 1.390 . S
C2029 C2030 1.387 . S
C2029 H2032 0.950 . S
C2030 C2029 1.387 . S
C2030 C2033 1.387 . S
H2031 C2027 0.950 . S
H2032 C2029 0.950 . S
C2033 C2024 1.390 . S
C2033 H2026 0.950 . S
C2033 C2030 1.387 . S
C2034 C2035 1.387 . S
C2034 H2038 0.950 . S
C2034 C2043 1.390 1_554 S
C2035 C2034 1.387 . S
C2035 C2037 1.387 . S
H2036 C2043 0.950 . S
C2037 C2035 1.387 . S
C2037 C2039 1.390 1_554 S
C2037 H2041 0.950 . S
H2038 C2034 0.950 . S
C2039 C2037 1.390 1_556 S
C2039 C2040 1.387 . S
C2039 H2042 0.950 . S
C2040 C2039 1.387 . S
C2040 C2043 1.387 . S
H2041 C2037 0.950 . S
H2042 C2039 0.950 . S
C2043 C2034 1.390 1_556 S
C2043 H2036 0.950 . S
C2043 C2040 1.387 . S
C2044 C2045 1.387 . S
C2044 H2048 0.950 . S
C2044 C2053 1.390 1_556 S
C2045 C2044 1.387 . S
C2045 C2047 1.387 . S
H2046 C2053 0.950 . S
C2047 C2045 1.387 . S
C2047 C2049 1.390 1_556 S
C2047 H2051 0.950 . S
H2048 C2044 0.950 . S
C2049 C2047 1.390 1_554 S
C2049 C2050 1.387 . S
C2049 H2052 0.950 . S
C2050 C2049 1.387 . S
C2050 C2053 1.387 . S
H2051 C2047 0.950 . S
H2052 C2049 0.950 . S
C2053 C2044 1.390 1_554 S
C2053 H2046 0.950 . S
C2053 C2050 1.387 . S
C2054 C2055 1.387 . S
C2054 H2058 0.950 . S
C2054 C2063 1.390 1_554 S
C2055 C2054 1.387 . S
C2055 C2057 1.387 . S
H2056 C2063 0.950 . S
C2057 C2055 1.387 . S
C2057 C2059 1.390 1_554 S
C2057 H2061 0.950 . S
H2058 C2054 0.950 . S
C2059 C2057 1.390 1_556 S
C2059 C2060 1.387 . S
C2059 H2062 0.950 . S
C2060 C2059 1.387 . S
C2060 C2063 1.387 . S
H2061 C2057 0.950 . S
H2062 C2059 0.950 . S
C2063 C2054 1.390 1_556 S
C2063 H2056 0.950 . S
C2063 C2060 1.387 . S
C2064 C2065 1.387 . S
C2064 H2068 0.950 . S
C2064 C2073 1.390 1_556 S
C2065 C2064 1.387 . S
C2065 C2067 1.387 . S
H2066 C2073 0.950 . S
C2067 C2065 1.387 . S
C2067 C2069 1.390 1_556 S
C2067 H2071 0.950 . S
H2068 C2064 0.950 . S
C2069 C2067 1.390 1_554 S
C2069 C2070 1.387 . S
C2069 H2072 0.950 . S
C2070 C2069 1.387 . S
C2070 C2073 1.387 . S
H2071 C2067 0.950 . S
H2072 C2069 0.950 . S
C2073 C2064 1.390 1_554 S
C2073 H2066 0.950 . S
C2073 C2070 1.387 . S
C2074 C2075 1.387 . S
C2074 H2078 0.950 . S
C2074 C2083 1.390 1_556 S
C2075 C2074 1.387 . S
C2075 C2077 1.387 . S
H2076 C2083 0.950 . S
C2077 C2075 1.387 . S
C2077 C2079 1.390 1_556 S
C2077 H2081 0.950 . S
H2078 C2074 0.950 . S
C2079 C2077 1.390 1_554 S
C2079 C2080 1.387 . S
C2079 H2082 0.950 . S
C2080 C2079 1.387 . S
C2080 C2083 1.387 . S
H2081 C2077 0.950 . S
H2082 C2079 0.950 . S
C2083 C2074 1.390 1_554 S
C2083 H2076 0.950 . S
C2083 C2080 1.387 . S
C2084 C2085 1.387 . S
C2084 H2088 0.950 . S
C2084 C2093 1.390 1_556 S
C2085 C2084 1.387 . S
C2085 C2087 1.387 . S
H2086 C2093 0.950 . S
C2087 C2085 1.387 . S
C2087 C2089 1.390 1_556 S
C2087 H2091 0.950 . S
H2088 C2084 0.950 . S
C2089 C2087 1.390 1_554 S
C2089 C2090 1.387 . S
C2089 H2092 0.950 . S
C2090 C2089 1.387 . S
C2090 C2093 1.387 . S
H2091 C2087 0.950 . S
H2092 C2089 0.950 . S
C2093 C2084 1.390 1_554 S
C2093 H2086 0.950 . S
C2093 C2090 1.387 . S
C2094 C2095 1.387 . S
C2094 H2098 0.950 . S
C2094 C2103 1.390 . S
C2095 C2094 1.387 . S
C2095 C2097 1.387 . S
H2096 C2103 0.950 . S
C2097 C2095 1.387 . S
C2097 C2099 1.390 . S
C2097 H2101 0.950 . S
H2098 C2094 0.950 . S
C2099 C2097 1.390 . S
C2099 C2100 1.387 . S
C2099 H2102 0.950 . S
C2100 C2099 1.387 . S
C2100 C2103 1.387 . S
H2101 C2097 0.950 . S
H2102 C2099 0.950 . S
C2103 C2094 1.390 . S
C2103 H2096 0.950 . S
C2103 C2100 1.387 . S
C2104 C2105 1.387 . S
C2104 H2108 0.950 . S
C2104 C2113 1.390 . S
C2105 C2104 1.387 . S
C2105 C2107 1.387 . S
H2106 C2113 0.950 . S
C2107 C2105 1.387 . S
C2107 C2109 1.390 . S
C2107 H2111 0.950 . S
H2108 C2104 0.950 . S
C2109 C2107 1.390 . S
C2109 C2110 1.387 . S
C2109 H2112 0.950 . S
C2110 C2109 1.387 . S
C2110 C2113 1.387 . S
H2111 C2107 0.950 . S
H2112 C2109 0.950 . S
C2113 C2104 1.390 . S
C2113 H2106 0.950 . S
C2113 C2110 1.387 . S
C2114 C2115 1.387 . S
C2114 H2118 0.950 . S
C2114 C2123 1.390 . S
C2115 C2114 1.387 . S
C2115 C2117 1.387 . S
H2116 C2123 0.950 . S
C2117 C2115 1.387 . S
C2117 C2119 1.390 . S
C2117 H2121 0.950 . S
H2118 C2114 0.950 . S
C2119 C2117 1.390 . S
C2119 C2120 1.387 . S
C2119 H2122 0.950 . S
C2120 C2119 1.387 . S
C2120 C2123 1.387 . S
H2121 C2117 0.950 . S
H2122 C2119 0.950 . S
C2123 C2114 1.390 . S
C2123 H2116 0.950 . S
C2123 C2120 1.387 . S
C1225 C20 1.526 . S
C1230 C530 1.526 . S
C1235 C564 1.525 . S
C1240 C54 1.525 . S
C1245 C598 1.525 . S
C1250 C88 1.526 . S
C1255 C836 1.526 . S
C1260 C122 1.526 . S
C1265 C156 1.526 . S
C1270 C870 1.526 . S
C1275 C904 1.526 . S
C1280 C190 1.526 . S
C1285 C1142 1.525 . S
C1290 C224 1.525 . S
C1295 C258 1.525 . S
C1300 C1176 1.525 . S
C1305 C1210 1.526 . S
C1310 C292 1.526 . S
C1315 C632 1.525 . S
C1320 C326 1.525 . S
C1325 C666 1.526 . S
C1330 C360 1.526 . S
C1335 C700 1.526 . S
C1340 C394 1.526 . S
C1345 C938 1.527 . S
C1350 C428 1.526 . S
C1355 C972 1.525 . S
C1360 C462 1.525 . S
C1365 C496 1.526 . S
C1370 C1006 1.526 . S
C1375 C734 1.526 . S
C1380 C1040 1.526 . S
C1385 C1074 1.525 . S
C1390 C768 1.525 . S
C1395 C802 1.526 . S
C1400 C1108 1.525 . S
C1405 C1019 1.506 . S
C1410 C33 1.506 . S
C1415 C67 1.506 . S
C1420 C951 1.506 . S
C1425 C985 1.506 . S
C1430 C101 1.506 . S
C1435 C475 1.507 . S
C1440 C135 1.507 . S
C1445 C509 1.507 . S
C1450 C169 1.507 . S
C1455 C441 1.507 . S
C1460 C203 1.507 . S
C1465 C237 1.507 . S
C1470 C815 1.507 . S
C1475 C747 1.506 . S
C1480 C271 1.506 . S
C1485 C305 1.506 . S
C1490 C781 1.506 . S
C1495 C1087 1.506 . S
C1500 C339 1.506 . S
C1505 C373 1.506 . S
C1510 C1121 1.506 . S
C1515 C407 1.507 . S
C1520 C1053 1.507 . S
C1525 C883 1.507 . S
C1530 C543 1.507 . S
C1535 C917 1.507 . S
C1540 C577 1.507 . S
C1545 C611 1.506 . S
C1550 C849 1.506 . S
C1555 C645 1.507 . S
C1560 C1223 1.507 . S
C1565 C1155 1.506 . S
C1570 C679 1.506 . S
C1575 C1189 1.507 . S
C1580 C713 1.506 . S
C1585 C2 1.492 . S
C1590 C376 1.492 . S
C1595 C36 1.492 . S
C1600 C308 1.492 . S
C1605 C70 1.492 . S
C1610 C342 1.492 . S
C1615 C104 1.492 . S
C1620 C240 1.492 . S
C1625 C274 1.492 . S
C1630 C138 1.492 . S
C1635 C206 1.492 . S
C1640 C172 1.492 . S
C1645 C784 1.492 . S
C1650 C410 1.492 . S
C1655 C716 1.492 . S
C1660 C444 1.492 . S
C1665 C478 1.492 . S
C1670 C750 1.492 . S
C1675 C648 1.492 . S
C1680 C512 1.492 . S
C1685 C682 1.492 . S
C1690 C546 1.492 . S
C1695 C614 1.492 . S
C1700 C580 1.492 . S
C1705 C1192 1.492 . S
C1710 C818 1.492 . S
C1715 C852 1.492 . S
C1720 C1124 1.492 . S
C1725 C1158 1.492 . S
C1730 C886 1.492 . S
C1735 C1056 1.492 . S
C1740 C920 1.492 . S
C1745 C1090 1.492 . S
C1750 C954 1.492 . S
C1755 C1022 1.492 . S
C1760 C988 1.492 . S
C1765 C9 1.409 . S
C1770 C5 1.446 . S
C1775 C39 1.445 . S
C1780 C43 1.407 . S
C1785 C77 1.409 . S
C1790 C73 1.446 . S
C1795 C107 1.446 . S
C1800 C111 1.408 . S
C1805 C141 1.446 . S
C1810 C145 1.408 . S
C1815 C175 1.445 . S
C1820 C179 1.410 . S
C1825 C209 1.445 . S
C1830 C213 1.409 . S
C1835 C243 1.445 . S
C1840 C247 1.408 . S
C1845 C281 1.409 . S
C1850 C277 1.445 . S
C1855 C315 1.409 . S
C1860 C311 1.445 . S
C1865 C345 1.445 . S
C1870 C349 1.410 . S
C1875 C383 1.410 . S
C1880 C379 1.445 . S
C1885 C413 1.446 . S
C1890 C417 1.409 . S
C1895 C447 1.446 . S
C1900 C451 1.407 . S
C1905 C481 1.446 . S
C1910 C485 1.408 . S
C1915 C515 1.445 . S
C1920 C519 1.410 . S
C1925 C549 1.445 . S
C1930 C553 1.407 . S
C1935 C587 1.410 . S
C1940 C583 1.445 . S
C1945 C617 1.446 . S
C1950 C621 1.409 . S
C1955 C655 1.410 . S
C1960 C651 1.445 . S
C1965 C689 1.408 . S
C1970 C685 1.446 . S
C1975 C723 1.409 . S
C1980 C719 1.446 . S
C1985 C753 1.445 . S
C1990 C757 1.410 . S
C1995 C787 1.446 . S
C2000 C791 1.408 . S
C2005 C825 1.410 . S
C2010 C821 1.445 . S
C2015 C859 1.410 . S
C2020 C855 1.445 . S
C2025 C889 1.445 . S
C2030 C893 1.409 . S
C2035 C923 1.446 . S
C2040 C927 1.408 . S
C2045 C961 1.410 . S
C2050 C957 1.445 . S
C2055 C991 1.446 . S
C2060 C995 1.410 . S
C2065 C1029 1.410 . S
C2070 C1025 1.445 . S
C2075 C1063 1.407 . S
C2080 C1059 1.445 . S
C2085 C1097 1.408 . S
C2090 C1093 1.446 . S
C2095 C1127 1.446 . S
C2100 C1131 1.408 . S
C2105 C1165 1.410 . S
C2110 C1161 1.445 . S
C2115 C1195 1.446 . S
C2120 C1199 1.408 . S
