# Generated by pormake.
# Topology wmi, (6)-cn, num edge types: 1
# Building blocks:
#     Node 0, Type 0, BuildingBlock: CUKXOW_clean_sbu_0, # of connection points: 6
#     Node 1, Type 0, BuildingBlock: CUKXOW_clean_sbu_0, # of connection points: 6
#     Node 2, Type 0, BuildingBlock: CUKXOW_clean_sbu_0, # of connection points: 6
#     Node 3, Type 0, BuildingBlock: CUKXOW_clean_sbu_0, # of connection points: 6
#     Node 4, Type 0, BuildingBlock: CUKXOW_clean_sbu_0, # of connection points: 6
#     Node 5, Type 0, BuildingBlock: CUKXOW_clean_sbu_0, # of connection points: 6
#     Node 6, Type 0, BuildingBlock: CUKXOW_clean_sbu_0, # of connection points: 6
#     Node 7, Type 0, BuildingBlock: CUKXOW_clean_sbu_0, # of connection points: 6
#     Node 8, Type 0, BuildingBlock: CUKXOW_clean_sbu_0, # of connection points: 6
#     Node 9, Type 0, BuildingBlock: CUKXOW_clean_sbu_0, # of connection points: 6
#     Node 10, Type 0, BuildingBlock: CUKXOW_clean_sbu_0, # of connection points: 6
#     Node 11, Type 0, BuildingBlock: CUKXOW_clean_sbu_0, # of connection points: 6
#     Node 12, Type 0, BuildingBlock: CUKXOW_clean_sbu_0, # of connection points: 6
#     Node 13, Type 0, BuildingBlock: CUKXOW_clean_sbu_0, # of connection points: 6
#     Node 14, Type 0, BuildingBlock: CUKXOW_clean_sbu_0, # of connection points: 6
#     Node 15, Type 0, BuildingBlock: CUKXOW_clean_sbu_0, # of connection points: 6
#     Node 16, Type 0, BuildingBlock: CUKXOW_clean_sbu_0, # of connection points: 6
#     Node 17, Type 0, BuildingBlock: CUKXOW_clean_sbu_0, # of connection points: 6
#     Edge 18, Type (0, 0), BuildingBlock: XUDNAN_clean_linker_2, # of connection points: 2
#     Edge 19, Type (0, 0), BuildingBlock: XUDNAN_clean_linker_2, # of connection points: 2
#     Edge 20, Type (0, 0), BuildingBlock: XUDNAN_clean_linker_2, # of connection points: 2
#     Edge 21, Type (0, 0), BuildingBlock: XUDNAN_clean_linker_2, # of connection points: 2
#     Edge 22, Type (0, 0), BuildingBlock: XUDNAN_clean_linker_2, # of connection points: 2
#     Edge 23, Type (0, 0), BuildingBlock: XUDNAN_clean_linker_2, # of connection points: 2
#     Edge 24, Type (0, 0), BuildingBlock: XUDNAN_clean_linker_2, # of connection points: 2
#     Edge 25, Type (0, 0), BuildingBlock: XUDNAN_clean_linker_2, # of connection points: 2
#     Edge 26, Type (0, 0), BuildingBlock: XUDNAN_clean_linker_2, # of connection points: 2
#     Edge 27, Type (0, 0), BuildingBlock: XUDNAN_clean_linker_2, # of connection points: 2
#     Edge 28, Type (0, 0), BuildingBlock: XUDNAN_clean_linker_2, # of connection points: 2
#     Edge 29, Type (0, 0), BuildingBlock: XUDNAN_clean_linker_2, # of connection points: 2
#     Edge 30, Type (0, 0), BuildingBlock: XUDNAN_clean_linker_2, # of connection points: 2
#     Edge 31, Type (0, 0), BuildingBlock: XUDNAN_clean_linker_2, # of connection points: 2
#     Edge 32, Type (0, 0), BuildingBlock: XUDNAN_clean_linker_2, # of connection points: 2
#     Edge 33, Type (0, 0), BuildingBlock: XUDNAN_clean_linker_2, # of connection points: 2
#     Edge 34, Type (0, 0), BuildingBlock: XUDNAN_clean_linker_2, # of connection points: 2
#     Edge 35, Type (0, 0), BuildingBlock: XUDNAN_clean_linker_2, # of connection points: 2
#     Edge 36, Type (0, 0), BuildingBlock: XUDNAN_clean_linker_2, # of connection points: 2
#     Edge 37, Type (0, 0), BuildingBlock: XUDNAN_clean_linker_2, # of connection points: 2
#     Edge 38, Type (0, 0), BuildingBlock: XUDNAN_clean_linker_2, # of connection points: 2
#     Edge 39, Type (0, 0), BuildingBlock: XUDNAN_clean_linker_2, # of connection points: 2
#     Edge 40, Type (0, 0), BuildingBlock: XUDNAN_clean_linker_2, # of connection points: 2
#     Edge 41, Type (0, 0), BuildingBlock: XUDNAN_clean_linker_2, # of connection points: 2
#     Edge 42, Type (0, 0), BuildingBlock: XUDNAN_clean_linker_2, # of connection points: 2
#     Edge 43, Type (0, 0), BuildingBlock: XUDNAN_clean_linker_2, # of connection points: 2
#     Edge 44, Type (0, 0), BuildingBlock: XUDNAN_clean_linker_2, # of connection points: 2
#     Edge 45, Type (0, 0), BuildingBlock: XUDNAN_clean_linker_2, # of connection points: 2
#     Edge 46, Type (0, 0), BuildingBlock: XUDNAN_clean_linker_2, # of connection points: 2
#     Edge 47, Type (0, 0), BuildingBlock: XUDNAN_clean_linker_2, # of connection points: 2
#     Edge 48, Type (0, 0), BuildingBlock: XUDNAN_clean_linker_2, # of connection points: 2
#     Edge 49, Type (0, 0), BuildingBlock: XUDNAN_clean_linker_2, # of connection points: 2
#     Edge 50, Type (0, 0), BuildingBlock: XUDNAN_clean_linker_2, # of connection points: 2
#     Edge 51, Type (0, 0), BuildingBlock: XUDNAN_clean_linker_2, # of connection points: 2
#     Edge 52, Type (0, 0), BuildingBlock: XUDNAN_clean_linker_2, # of connection points: 2
#     Edge 53, Type (0, 0), BuildingBlock: XUDNAN_clean_linker_2, # of connection points: 2
#     Edge 54, Type (0, 0), BuildingBlock: XUDNAN_clean_linker_2, # of connection points: 2
#     Edge 55, Type (0, 0), BuildingBlock: XUDNAN_clean_linker_2, # of connection points: 2
#     Edge 56, Type (0, 0), BuildingBlock: XUDNAN_clean_linker_2, # of connection points: 2
#     Edge 57, Type (0, 0), BuildingBlock: XUDNAN_clean_linker_2, # of connection points: 2
#     Edge 58, Type (0, 0), BuildingBlock: XUDNAN_clean_linker_2, # of connection points: 2
#     Edge 59, Type (0, 0), BuildingBlock: XUDNAN_clean_linker_2, # of connection points: 2
#     Edge 60, Type (0, 0), BuildingBlock: XUDNAN_clean_linker_2, # of connection points: 2
#     Edge 61, Type (0, 0), BuildingBlock: XUDNAN_clean_linker_2, # of connection points: 2
#     Edge 62, Type (0, 0), BuildingBlock: XUDNAN_clean_linker_2, # of connection points: 2
#     Edge 63, Type (0, 0), BuildingBlock: XUDNAN_clean_linker_2, # of connection points: 2
#     Edge 64, Type (0, 0), BuildingBlock: XUDNAN_clean_linker_2, # of connection points: 2
#     Edge 65, Type (0, 0), BuildingBlock: XUDNAN_clean_linker_2, # of connection points: 2
#     Edge 66, Type (0, 0), BuildingBlock: XUDNAN_clean_linker_2, # of connection points: 2
#     Edge 67, Type (0, 0), BuildingBlock: XUDNAN_clean_linker_2, # of connection points: 2
#     Edge 68, Type (0, 0), BuildingBlock: XUDNAN_clean_linker_2, # of connection points: 2
#     Edge 69, Type (0, 0), BuildingBlock: XUDNAN_clean_linker_2, # of connection points: 2
#     Edge 70, Type (0, 0), BuildingBlock: XUDNAN_clean_linker_2, # of connection points: 2
#     Edge 71, Type (0, 0), BuildingBlock: XUDNAN_clean_linker_2, # of connection points: 2
# Relax obj value: 0.053
# Max RMSD: 0.152
# Mean RMSD: 0.152
data_MOF--net-wmi--node1-CUKXOW_clean_sbu_0--edge1-XUDNAN_clean_linker_2
_symmetry_space_group_name_H-M    P1
_symmetry_Int_Tables_number       1
_symmetry_cell_setting            triclinic
loop_
_symmetry_equiv_pos_as_xyz
'x, y, z'
_cell_length_a     31.656421
_cell_length_b     31.688516
_cell_length_c     84.824749
_cell_angle_alpha  90.113923
_cell_angle_beta   89.778787
_cell_angle_gamma 119.8416
loop_
_atom_site_label
_atom_site_type_symbol
_atom_site_fract_x
_atom_site_fract_y
_atom_site_fract_z
_atom_type_partial_charge
Tb0 Tb 0.49971 0.07458 0.09505 0.0
C1 C 0.49223 0.03856 0.13112 0.0
Tb2 Tb 0.53282 0.9994 0.10381 0.0
O3 O 0.42636 1.01553 0.08796 0.0
O4 O 0.46958 1.00425 0.10366 0.0
O5 O 0.4955 0.07272 0.12112 0.0
C6 C 0.53631 0.91672 0.10317 0.0
O7 O 0.50065 1.00304 0.12648 0.0
C8 C 0.60092 0.09106 0.10275 0.0
C9 C 0.52665 0.02597 0.06745 0.0
O10 O 0.56309 0.95387 0.11217 0.0
O11 O 0.50773 0.92625 0.09493 0.0
O12 O 0.60425 0.05869 0.11123 0.0
O13 O 0.56383 0.06984 0.09433 0.0
O14 O 0.52778 0.99502 0.07784 0.0
O15 O 0.52297 0.06438 0.07179 0.0
C16 C 0.50283 0.16027 0.09291 0.0
O17 O 0.47286 0.12085 0.08536 0.0
O18 O 0.53101 0.15139 0.10172 0.0
C19 C 0.43182 0.983 0.09566 0.0
Tb20 Tb 1.0008 0.46266 0.09243 0.0
C21 C 0.06039 0.48406 0.12393 0.0
Tb22 Tb 0.07901 0.56654 0.0988 0.0
O23 O 0.0559 0.43946 0.09056 0.0
O24 O 0.07229 0.50935 0.08464 0.0
O25 O 1.02027 0.45376 0.11615 0.0
C26 C 0.16073 0.65057 0.10201 0.0
O27 O 0.08957 0.52976 0.11927 0.0
C28 C 0.99004 0.54899 0.1044 0.0
C29 C 0.02795 0.54087 0.06613 0.0
O30 O 0.15379 0.60925 0.10731 0.0
O31 O 0.12167 0.64466 0.09521 0.0
O32 O 0.02628 0.59171 0.10131 0.0
O33 O 1.00623 0.52031 0.1065 0.0
O34 O 0.07098 0.56528 0.07314 0.0
O35 O 0.99101 0.50314 0.07316 0.0
C36 C 0.91631 0.3818 0.08903 0.0
O37 O 0.94799 0.40259 0.07779 0.0
O38 O 0.93227 0.4062 0.10197 0.0
C39 C 0.09049 0.48269 0.08669 0.0
Tb40 Tb 0.60509 0.56272 0.10017 0.0
C41 C 0.57969 0.59074 0.1333 0.0
Tb42 Tb 0.50206 0.54947 0.10545 0.0
O43 O 0.63738 0.64281 0.10251 0.0
O44 O 0.56707 0.59858 0.09424 0.0
O45 O 0.60751 0.57737 0.12538 0.0
C46 C 0.42388 0.55998 0.10839 0.0
O47 O 0.53842 0.58571 0.1275 0.0
C48 C 0.50654 0.4692 0.10498 0.0
C49 C 0.53303 0.53664 0.07077 0.0
O50 O 0.42777 0.52397 0.11403 0.0
O51 O 0.46434 0.59034 0.10145 0.0
O52 O 0.46826 0.47181 0.10119 0.0
O53 O 0.53844 0.50992 0.11044 0.0
O54 O 0.5033 0.54482 0.07981 0.0
O55 O 0.57308 0.53805 0.07644 0.0
C56 C 0.67712 0.54195 0.09771 0.0
O57 O 0.67995 0.58269 0.09342 0.0
O58 O 0.63367 0.51302 0.10309 0.0
C59 C 0.59702 0.64112 0.09828 0.0
Tb60 Tb 0.06635 0.50172 0.92516 0.0
C61 C 1.01148 0.46451 0.89281 0.0
Tb62 Tb 0.98441 0.52615 0.91663 0.0
O63 O 1.01161 0.42318 0.92561 0.0
O64 O 0.99289 0.4761 0.93053 0.0
O65 O 0.0522 0.47768 0.90083 0.0
C66 C 0.90543 0.53389 0.91017 0.0
O67 O 0.97809 0.47611 0.89739 0.0
C68 C 0.07427 0.59789 0.91493 0.0
C69 C 0.02861 0.54866 0.95111 0.0
O70 O 0.94629 0.55455 0.9024 0.0
O71 O 0.90858 0.50762 0.92135 0.0
O72 O 0.03736 0.60371 0.91797 0.0
O73 O 0.05942 0.55403 0.91158 0.0
O74 O 0.99069 0.53921 0.94199 0.0
O75 O 0.06539 0.54266 0.94613 0.0
C76 C 0.15248 0.50622 0.93035 0.0
O77 O 0.11268 0.48069 0.93843 0.0
O78 O 0.14375 0.52948 0.91944 0.0
C79 C 0.97596 0.4315 0.92848 0.0
Tb80 Tb 0.55359 0.60441 0.92269 0.0
C81 C 0.57672 0.56895 0.89098 0.0
Tb82 Tb 0.54582 0.50364 0.92201 0.0
O83 O 0.63152 0.6408 0.91685 0.0
O84 O 0.59874 0.57476 0.92869 0.0
O85 O 0.55908 0.59505 0.89756 0.0
C86 C 0.55131 0.42195 0.92131 0.0
O87 O 0.57831 0.53314 0.89868 0.0
C88 C 0.46226 0.50329 0.92398 0.0
C89 C 0.53699 0.5462 0.9546 0.0
O90 O 0.52226 0.43029 0.91278 0.0
O91 O 0.57821 0.46024 0.92978 0.0
O92 O 0.4698 0.46959 0.9295 0.0
O93 O 0.49963 0.533 0.91632 0.0
O94 O 0.55052 0.51736 0.94746 0.0
O95 O 0.53044 0.57894 0.94685 0.0
C96 C 0.53434 0.67775 0.92203 0.0
O97 O 0.56947 0.67768 0.92992 0.0
O98 O 0.50978 0.63629 0.91488 0.0
C99 C 0.63758 0.60557 0.922 0.0
Tb100 Tb 0.45584 0.99368 0.92302 0.0
C101 C 0.47994 0.05798 0.89299 0.0
Tb102 Tb 0.55965 0.08043 0.91988 0.0
O103 O 0.42698 0.04453 0.92423 0.0
O104 O 0.49618 0.06384 0.93246 0.0
O105 O 0.4526 1.01384 0.89898 0.0
C106 C 0.63993 0.16728 0.91791 0.0
O107 O 0.52205 0.09076 0.89947 0.0
C108 C 0.54938 0.99462 0.91414 0.0
C109 C 0.52896 0.02254 0.95201 0.0
O110 O 0.63405 0.12784 0.91123 0.0
O111 O 0.60058 0.15778 0.9255 0.0
O112 O 0.58849 0.03043 0.92013 0.0
O113 O 0.52001 1.00912 0.91058 0.0
O114 O 0.55893 0.06483 0.94508 0.0
O115 O 0.48933 0.98789 0.94494 0.0
C116 C 0.38305 0.90197 0.92373 0.0
O117 O 0.3809 0.93887 0.92956 0.0
O118 O 0.42568 0.91697 0.91766 0.0
C119 C 0.46753 0.07957 0.92992 0.0
Tb120 Tb 0.18514 0.39875 0.43153 0.0
C121 C 0.16551 0.34053 0.46329 0.0
Tb122 Tb 0.21778 0.32152 0.43379 0.0
O123 O 0.10793 0.34329 0.4354 0.0
O124 O 0.1575 0.32569 0.42551 0.0
O125 O 0.16962 0.38054 0.45667 0.0
C126 C 0.23243 0.24669 0.43943 0.0
O127 O 0.17934 0.31217 0.45604 0.0
C128 C 0.28804 0.41177 0.43158 0.0
C129 C 0.21381 0.36058 0.40019 0.0
O130 O 0.25433 0.28867 0.44643 0.0
O131 O 0.20207 0.24671 0.42917 0.0
O132 O 0.29105 0.37468 0.42663 0.0
O133 O 0.24834 0.39714 0.43896 0.0
O134 O 0.21204 0.3239 0.40836 0.0
O135 O 0.20962 0.39637 0.40708 0.0
C136 C 0.18801 0.48419 0.42833 0.0
O137 O 0.15971 0.44459 0.4206 0.0
O138 O 0.21461 0.47564 0.438 0.0
C139 C 0.1149 0.30801 0.43072 0.0
Tb140 Tb 0.68225 0.78874 0.43343 0.0
C141 C 0.73001 0.81106 0.46726 0.0
Tb142 Tb 0.76677 0.89239 0.44045 0.0
O143 O 0.72947 0.75725 0.43663 0.0
O144 O 0.75792 0.82902 0.4291 0.0
O145 O 0.69106 0.78235 0.45861 0.0
C146 C 0.85276 0.9725 0.44491 0.0
O147 O 0.76508 0.85438 0.46229 0.0
C148 C 0.67857 0.88082 0.44023 0.0
C149 C 0.72803 0.86676 0.4057 0.0
O150 O 0.81125 0.96658 0.44985 0.0
O151 O 0.84557 0.93304 0.43793 0.0
O152 O 0.71718 0.92131 0.43636 0.0
O153 O 0.69125 0.85138 0.44507 0.0
O154 O 0.76555 0.89463 0.4149 0.0
O155 O 0.68866 0.82724 0.41109 0.0
C156 C 0.59382 0.713 0.42752 0.0
O157 O 0.63307 0.72446 0.41946 0.0
O158 O 0.60455 0.7438 0.43895 0.0
C159 C 0.76915 0.79796 0.43357 0.0
Tb160 Tb 0.29225 0.88896 0.43221 0.0
C161 C 0.26956 0.91637 0.46554 0.0
Tb162 Tb 0.19129 0.87731 0.43811 0.0
O163 O 0.32903 0.96722 0.43709 0.0
O164 O 0.25804 0.93101 0.42839 0.0
O165 O 0.29467 0.89976 0.45766 0.0
C166 C 0.10826 0.87595 0.44514 0.0
O167 O 0.23004 0.91489 0.45961 0.0
C168 C 0.19389 0.79603 0.43515 0.0
C169 C 0.22239 0.87201 0.40311 0.0
O170 O 0.12693 0.85413 0.453 0.0
O171 O 0.13713 0.89979 0.4335 0.0
O172 O 0.1573 0.80111 0.43118 0.0
O173 O 0.22534 0.83457 0.44178 0.0
O174 O 0.19422 0.88136 0.41249 0.0
O175 O 0.26014 0.8687 0.40851 0.0
C176 C 0.3638 0.86781 0.42923 0.0
O177 O 0.3653 0.90697 0.42387 0.0
O178 O 0.32183 0.84058 0.43586 0.0
C179 C 0.29085 0.97094 0.43384 0.0
Tb180 Tb 0.74911 0.82682 0.25851 0.0
C181 C 0.68583 0.79879 0.22868 0.0
Tb182 Tb 0.6636 0.84657 0.25811 0.0
O183 O 0.69787 0.74692 0.25904 0.0
O184 O 0.67911 0.79567 0.26834 0.0
O185 O 0.73147 0.821 0.23373 0.0
C186 C 0.5784 0.84462 0.25974 0.0
O187 O 0.65067 0.79994 0.23707 0.0
C188 C 0.7502 0.92326 0.2536 0.0
C189 C 0.72201 0.86385 0.28994 0.0
O190 O 0.61018 0.86473 0.24846 0.0
O191 O 0.59421 0.82483 0.26969 0.0
O192 O 0.71353 0.92498 0.25973 0.0
O193 O 0.73581 0.88063 0.24866 0.0
O194 O 0.68101 0.85681 0.28331 0.0
O195 O 0.75484 0.85717 0.28221 0.0
C196 C 0.83983 0.84135 0.25922 0.0
O197 O 0.82618 0.87129 0.26431 0.0
O198 O 0.80218 0.80256 0.25379 0.0
C199 C 0.66271 0.75185 0.26504 0.0
Tb200 Tb 0.25924 0.95911 0.25788 0.0
C201 C 0.27674 0.92602 0.22411 0.0
Tb202 Tb 0.23766 0.85342 0.25296 0.0
O203 O 0.32693 0.97766 0.27045 0.0
O204 O 0.29909 0.92375 0.25294 0.0
O205 O 0.26406 0.95408 0.23219 0.0
C206 C 0.23665 0.7688 0.25586 0.0
O207 O 0.27533 0.88707 0.23067 0.0
C208 C 0.16211 0.86737 0.25039 0.0
C209 C 0.23361 0.89292 0.2877 0.0
O210 O 0.21807 0.78055 0.24418 0.0
O211 O 0.2566 0.80506 0.26561 0.0
O212 O 0.16428 0.83182 0.24354 0.0
O213 O 0.19863 0.88845 0.25906 0.0
O214 O 0.238 0.86009 0.27902 0.0
O215 O 0.23518 0.93221 0.28157 0.0
C216 C 0.2448 0.03506 0.25632 0.0
O217 O 0.28723 0.03834 0.25784 0.0
O218 O 0.21149 0.98972 0.25569 0.0
C219 C 0.33108 0.94332 0.26336 0.0
Tb220 Tb 0.12502 0.33528 0.25411 0.0
C221 C 0.16471 0.38916 0.22065 0.0
Tb222 Tb 0.23227 0.41866 0.25076 0.0
O223 O 0.10399 0.38471 0.26552 0.0
O224 O 0.16212 0.41065 0.24963 0.0
O225 O 0.132 0.34991 0.22854 0.0
C226 C 0.31837 0.50052 0.25378 0.0
O227 O 0.20444 0.42449 0.22757 0.0
C228 C 0.21667 0.32908 0.24721 0.0
C229 C 0.18975 0.37108 0.28461 0.0
O230 O 0.30972 0.46414 0.24468 0.0
O231 O 0.27824 0.49118 0.26091 0.0
O232 O 0.25331 0.36698 0.24093 0.0
O233 O 0.19503 0.3438 0.25605 0.0
O234 O 0.22271 0.41007 0.2767 0.0
O235 O 0.1526 0.33355 0.27749 0.0
C236 C 0.04818 0.24541 0.25042 0.0
O237 O 0.04909 0.27913 0.25947 0.0
O238 O 0.08995 0.26285 0.24335 0.0
C239 C 0.14077 0.42326 0.25941 0.0
Tb240 Tb 0.83632 0.73815 0.76687 0.0
C241 C 0.80148 0.6854 0.79977 0.0
Tb242 Tb 0.85077 0.65062 0.77394 0.0
O243 O 0.757 0.69328 0.76934 0.0
O244 O 0.7988 0.66243 0.76235 0.0
O245 O 0.81694 0.72681 0.79187 0.0
C246 C 0.85017 0.56851 0.78145 0.0
O247 O 0.80802 0.64955 0.79449 0.0
C248 C 0.9306 0.73645 0.77297 0.0
C249 C 0.8657 0.68967 0.73898 0.0
O250 O 0.87385 0.60973 0.78882 0.0
O251 O 0.82607 0.57326 0.76988 0.0
O252 O 0.92868 0.69578 0.7694 0.0
O253 O 0.88938 0.72705 0.77817 0.0
O254 O 0.85577 0.6521 0.74832 0.0
O255 O 0.86437 0.72892 0.74405 0.0
C256 C 0.85655 0.83048 0.76396 0.0
O257 O 0.81963 0.79311 0.75748 0.0
O258 O 0.88197 0.81564 0.7717 0.0
C259 C 0.75658 0.6527 0.76638 0.0
Tb260 Tb 0.32393 0.12643 0.76625 0.0
C261 C 0.37571 0.16241 0.79868 0.0
Tb262 Tb 0.4119 0.22977 0.76816 0.0
O263 O 0.36885 0.09416 0.77264 0.0
O264 O 0.39979 0.16071 0.76111 0.0
O265 O 0.33334 0.13417 0.79166 0.0
C266 C 0.49154 0.31505 0.77455 0.0
O267 O 0.41305 0.19862 0.79118 0.0
C268 C 0.3269 0.22489 0.76502 0.0
C269 C 0.3669 0.18996 0.73511 0.0
O270 O 0.4497 0.29712 0.78158 0.0
O271 O 0.48909 0.28442 0.76383 0.0
O272 O 0.36785 0.26045 0.76003 0.0
O273 O 0.33523 0.19591 0.77285 0.0
O274 O 0.40824 0.21967 0.74255 0.0
O275 O 0.3279 0.15565 0.74259 0.0
C276 C 0.23603 0.04668 0.76251 0.0
O277 O 0.27513 0.05733 0.7545 0.0
O278 O 0.2463 0.08121 0.77266 0.0
C279 C 0.40942 0.13125 0.76791 0.0
Tb280 Tb 0.94034 0.23529 0.7644 0.0
C281 C 0.91172 0.25539 0.79797 0.0
Tb282 Tb 0.83409 0.21171 0.77012 0.0
O283 O 0.96973 0.31263 0.76927 0.0
O284 O 0.89898 0.27021 0.76082 0.0
O285 O 0.94121 0.24459 0.78987 0.0
C286 C 0.74786 0.2043 0.77706 0.0
O287 O 0.8702 0.24954 0.79205 0.0
C288 C 0.84921 0.13699 0.76836 0.0
C289 C 0.86771 0.20975 0.73538 0.0
O290 O 0.76689 0.18132 0.78404 0.0
O291 O 0.77781 0.23222 0.76622 0.0
O292 O 0.80897 0.13497 0.76408 0.0
O293 O 0.87639 0.17797 0.77435 0.0
O294 O 0.83695 0.2159 0.74451 0.0
O295 O 0.90631 0.20878 0.74116 0.0
C296 C 1.02009 0.22803 0.75899 0.0
O297 O 1.00897 0.25737 0.75181 0.0
O298 O 0.98631 0.20284 0.76922 0.0
C299 C 0.92882 0.31144 0.76631 0.0
Tb300 Tb 0.426 0.16339 0.59242 0.0
C301 C 0.38009 0.13478 0.55775 0.0
Tb302 Tb 0.33906 0.17846 0.58379 0.0
O303 O 0.37634 0.09884 0.60668 0.0
O304 O 0.3513 0.11986 0.58724 0.0
O305 O 0.41508 0.14026 0.56767 0.0
C306 C 0.25677 0.1778 0.57629 0.0
O307 O 0.34625 0.14649 0.56159 0.0
C308 C 0.42282 0.25852 0.58837 0.0
C309 C 0.37329 0.18705 0.61928 0.0
O310 O 0.29805 0.2011 0.56877 0.0
O311 O 0.26141 0.15338 0.58783 0.0
O312 O 0.38073 0.25483 0.5906 0.0
O313 O 0.41656 0.21944 0.58231 0.0
O314 O 0.33565 0.17329 0.60957 0.0
O315 O 0.4161 0.1935 0.61439 0.0
C316 C 0.51744 0.17829 0.59261 0.0
O317 O 0.47815 0.13667 0.59497 0.0
O318 O 0.50506 0.21121 0.59045 0.0
C319 C 0.33814 0.09036 0.59846 0.0
Tb320 Tb 0.92561 0.27523 0.58603 0.0
C321 C 0.9521 0.22898 0.55757 0.0
Tb322 Tb 0.90835 0.1711 0.58991 0.0
O323 O 1.004 0.3066 0.5829 0.0
O324 O 0.96432 0.24225 0.59538 0.0
O325 O 0.9395 0.26182 0.56171 0.0
C326 C 0.91198 0.08941 0.59436 0.0
O327 O 0.9461 0.193 0.56713 0.0
C328 C 0.82909 0.17802 0.58624 0.0
C329 C 0.89676 0.22332 0.61958 0.0
O330 O 0.89171 0.09788 0.5824 0.0
O331 O 0.93085 0.12717 0.60349 0.0
O332 O 0.82994 0.14282 0.5937 0.0
O333 O 0.87023 0.20409 0.57994 0.0
O334 O 0.90772 0.19038 0.61449 0.0
O335 O 0.89586 0.25615 0.61007 0.0
C336 C 0.91251 0.35204 0.58364 0.0
O337 O 0.94582 0.35045 0.59209 0.0
O338 O 0.88723 0.31078 0.57649 0.0
C339 C 1.00561 0.27014 0.5893 0.0
Tb340 Tb 0.80585 0.65877 0.597 0.0
C341 C 0.83383 0.71204 0.56324 0.0
Tb342 Tb 0.91461 0.74535 0.59045 0.0
O343 O 0.79286 0.7103 0.6111 0.0
O344 O 0.84373 0.73462 0.59306 0.0
O345 O 0.80243 0.67434 0.57206 0.0
C346 C 0.995 0.83232 0.59356 0.0
O347 O 0.87784 0.74627 0.56837 0.0
C348 C 0.90527 0.65777 0.58736 0.0
C349 C 0.8818 0.692 0.6238 0.0
O350 O 0.98364 0.8049 0.58103 0.0
O351 O 0.96031 0.8113 0.60391 0.0
O352 O 0.94628 0.69781 0.58517 0.0
O353 O 0.87474 0.67007 0.59107 0.0
O354 O 0.90888 0.73382 0.61621 0.0
O355 O 0.84502 0.65354 0.61707 0.0
C356 C 0.72195 0.57364 0.59821 0.0
O357 O 0.73291 0.61177 0.60675 0.0
O358 O 0.75806 0.58366 0.58874 0.0
C359 C 0.82729 0.74839 0.60407 0.0
H360 H 0.59448 0.88806 0.11918 0.0
H361 H 0.4865 0.8454 0.08211 0.0
H362 H 0.49377 0.77321 0.07657 0.0
H363 H 0.67103 0.8494 0.09992 0.0
H364 H 0.68369 0.82555 0.11744 0.0
H365 H 0.67046 0.87454 0.11896 0.0
H366 H 0.60037 0.82376 0.13856 0.0
H367 H 0.61356 0.77473 0.13708 0.0
H368 H 0.55311 0.76374 0.13296 0.0
H369 H 0.51222 0.70734 0.07442 0.0
H370 H 0.53761 0.64601 0.07685 0.0
H371 H 0.63363 0.72711 0.11547 0.0
C372 C 0.57231 0.86326 0.10998 0.0
C373 C 0.53999 0.87238 0.10103 0.0
C374 C 0.51145 0.83918 0.08911 0.0
C375 C 0.5154 0.79809 0.08583 0.0
C376 C 0.54785 0.79034 0.09464 0.0
C377 C 0.5755 0.82141 0.10659 0.0
C378 C 0.60675 0.8032 0.11435 0.0
C379 C 0.66122 0.8404 0.11255 0.0
C380 C 0.59258 0.79063 0.13177 0.0
C381 C 0.59266 0.75758 0.1047 0.0
C382 C 0.55857 0.75124 0.09343 0.0
C383 C 0.53884 0.71178 0.0832 0.0
C384 C 0.55353 0.67714 0.08468 0.0
C385 C 0.58756 0.68191 0.09632 0.0
C386 C 0.60805 0.72305 0.10634 0.0
H387 H 0.34137 0.92926 0.08202 0.0
H388 H 0.44265 0.92009 0.11427 0.0
H389 H 0.38632 0.83334 0.11812 0.0
H390 H 0.23601 0.85156 0.10487 0.0
H391 H 0.19704 0.823 0.08816 0.0
H392 H 0.2474 0.88416 0.08653 0.0
H393 H 0.28091 0.85859 0.06262 0.0
H394 H 0.23053 0.79734 0.06416 0.0
H395 H 0.29214 0.80838 0.06462 0.0
H396 H 0.31988 0.74843 0.119 0.0
H397 H 0.24265 0.66992 0.11807 0.0
H398 H 0.18131 0.73417 0.08703 0.0
C399 C 0.3517 0.90868 0.0897 0.0
C400 C 0.39692 0.93101 0.09746 0.0
C401 C 0.40884 0.90346 0.10781 0.0
C402 C 0.377 0.85407 0.11016 0.0
C403 C 0.33283 0.83292 0.10233 0.0
C404 C 0.3197 0.85918 0.09245 0.0
C405 C 0.26839 0.82785 0.08642 0.0
C406 C 0.23526 0.84784 0.09182 0.0
C407 C 0.268 0.82274 0.06839 0.0
C408 C 0.25508 0.78033 0.09455 0.0
C409 C 0.29304 0.78397 0.10351 0.0
C410 C 0.28965 0.74492 0.11208 0.0
C411 C 0.24587 0.7007 0.11152 0.0
C412 C 0.20642 0.69662 0.10262 0.0
C413 C 0.21107 0.73675 0.09402 0.0
H414 H 0.136 0.44073 0.10249 0.0
H415 H 0.16301 0.56887 0.07603 0.0
H416 H 0.25094 0.60624 0.08131 0.0
H417 H 0.22866 0.50602 0.13227 0.0
H418 H 0.24588 0.45984 0.13383 0.0
H419 H 0.18445 0.44329 0.12851 0.0
H420 H 0.19135 0.40213 0.10293 0.0
H421 H 0.25236 0.41764 0.10827 0.0
H422 H 0.24105 0.43646 0.08946 0.0
H423 H 0.33543 0.62866 0.08854 0.0
H424 H 0.41272 0.63206 0.09544 0.0
H425 H 0.33215 0.48976 0.11731 0.0
C426 C 0.16061 0.4764 0.09769 0.0
C427 C 0.14301 0.50197 0.08881 0.0
C428 C 0.17599 0.54877 0.08285 0.0
C429 C 0.22589 0.57041 0.08587 0.0
C430 C 0.24218 0.54471 0.09487 0.0
C431 C 0.21072 0.49863 0.10061 0.0
C432 C 0.23812 0.47852 0.10958 0.0
C433 C 0.2234 0.47147 0.12709 0.0
C434 C 0.23026 0.43088 0.1021 0.0
C435 C 0.29005 0.51963 0.10737 0.0
C436 C 0.29133 0.55785 0.09914 0.0
C437 C 0.33499 0.59917 0.09508 0.0
C438 C 0.37866 0.60082 0.09908 0.0
C439 C 0.37822 0.56126 0.10693 0.0
C440 C 0.3334 0.52073 0.11148 0.0
H441 H 0.82001 0.49831 0.92724 0.0
H442 H 0.90132 0.596 0.88893 0.0
H443 H 0.8401 0.62247 0.88727 0.0
H444 H 0.69792 0.46423 0.91168 0.0
H445 H 0.67289 0.46215 0.93094 0.0
H446 H 0.72098 0.44783 0.92861 0.0
H447 H 0.77286 0.51363 0.94919 0.0
H448 H 0.72482 0.52786 0.95169 0.0
H449 H 0.78525 0.57516 0.94641 0.0
H450 H 0.77514 0.64459 0.89154 0.0
H451 H 0.70547 0.65452 0.89938 0.0
H452 H 0.66407 0.54167 0.93465 0.0
C453 C 0.82442 0.52467 0.91834 0.0
C454 C 0.86545 0.54509 0.90818 0.0
C455 C 0.87016 0.57976 0.89678 0.0
C456 C 0.8356 0.59513 0.89578 0.0
C457 C 0.79622 0.57524 0.90619 0.0
C458 C 0.78997 0.54026 0.91711 0.0
C459 C 0.74471 0.52551 0.92707 0.0
C460 C 0.70691 0.4717 0.92441 0.0
C461 C 0.75771 0.5362 0.94463 0.0
C462 C 0.72728 0.55858 0.92034 0.0
C463 C 0.7576 0.5869 0.90829 0.0
C464 C 0.75054 0.62185 0.9007 0.0
C465 C 0.7111 0.62755 0.90536 0.0
C466 C 0.67912 0.59863 0.91754 0.0
C467 C 0.68741 0.56367 0.92512 0.0
H468 H 0.4384 0.13309 0.91183 0.0
H469 H 0.53105 0.14303 0.95086 0.0
H470 H 0.56495 0.23185 0.95188 0.0
H471 H 0.52618 0.24396 0.89277 0.0
H472 H 0.48249 0.2613 0.88664 0.0
H473 H 0.46397 0.19793 0.88909 0.0
H474 H 0.39644 0.18749 0.90866 0.0
H475 H 0.41432 0.25064 0.90614 0.0
H476 H 0.4123 0.2269 0.9256 0.0
H477 H 0.58974 0.31862 0.94871 0.0
H478 H 0.60027 0.39928 0.94273 0.0
H479 H 0.49303 0.33603 0.90543 0.0
C480 C 0.46511 0.15406 0.92075 0.0
C481 C 0.48208 0.13143 0.93133 0.0
C482 C 0.51766 0.15986 0.94268 0.0
C483 C 0.53725 0.2103 0.94331 0.0
C484 C 0.52086 0.23187 0.9325 0.0
C485 C 0.48535 0.20486 0.92151 0.0
C486 C 0.4747 0.23772 0.91126 0.0
C487 C 0.48761 0.23506 0.89392 0.0
C488 C 0.42126 0.22492 0.91303 0.0
C489 C 0.50921 0.28716 0.91841 0.0
C490 C 0.53574 0.28271 0.93054 0.0
C491 C 0.5694 0.32272 0.93919 0.0
C492 C 0.57544 0.36851 0.93561 0.0
C493 C 0.54809 0.3741 0.92347 0.0
C494 C 0.51487 0.33289 0.91466 0.0
H495 H 0.72954 0.18817 0.9066 0.0
H496 H 0.65365 0.25033 0.93171 0.0
H497 H 0.73183 0.32532 0.93642 0.0
H498 H 0.83036 0.23222 0.93144 0.0
H499 H 0.87515 0.24593 0.91619 0.0
H500 H 0.81307 0.19875 0.91316 0.0
H501 H 0.80871 0.24141 0.88768 0.0
H502 H 0.87103 0.28852 0.89051 0.0
H503 H 0.82391 0.30427 0.88849 0.0
H504 H 0.81701 0.38932 0.94061 0.0
H505 H 0.90579 0.44301 0.94235 0.0
H506 H 0.92834 0.34138 0.91422 0.0
C507 C 0.72945 0.21806 0.91278 0.0
C508 C 0.68581 0.21377 0.91879 0.0
C509 C 0.68683 0.25313 0.92701 0.0
C510 C 0.73098 0.29577 0.92974 0.0
C511 C 0.77359 0.2984 0.9241 0.0
C512 C 0.77334 0.26103 0.91561 0.0
C513 C 0.82473 0.27282 0.91142 0.0
C514 C 0.8365 0.23519 0.91848 0.0
C515 C 0.83254 0.27699 0.89346 0.0
C516 C 0.85383 0.32193 0.91933 0.0
C517 C 0.82338 0.33595 0.92646 0.0
C518 C 0.84124 0.37914 0.93488 0.0
C519 C 0.89164 0.40935 0.93578 0.0
C520 C 0.92355 0.39642 0.92827 0.0
C521 C 0.90453 0.3519 0.92008 0.0
H522 H 0.22372 0.99389 0.42237 0.0
H523 H 0.34515 0.04273 0.45464 0.0
H524 H 0.33823 0.11499 0.46124 0.0
H525 H 0.25749 0.10942 0.40682 0.0
H526 H 0.19637 0.09923 0.40507 0.0
H527 H 0.20711 0.04859 0.40415 0.0
H528 H 0.14607 1.00658 0.42708 0.0
H529 H 0.13503 0.05711 0.42806 0.0
H530 H 0.15448 0.0387 0.44539 0.0
H531 H 0.32206 0.18409 0.4631 0.0
H532 H 0.29945 0.24757 0.4595 0.0
H533 H 0.18976 0.15625 0.42543 0.0
C534 C 0.24838 0.01961 0.43096 0.0
C535 C 0.28506 1.01301 0.43799 0.0
C536 C 0.31707 0.04746 0.44905 0.0
C537 C 0.3132 0.0884 0.45294 0.0
C538 C 0.27726 0.09446 0.44561 0.0
C539 C 0.24539 0.06112 0.43484 0.0
C540 C 0.21222 0.0781 0.42791 0.0
C541 C 0.21872 0.08421 0.40992 0.0
C542 C 0.15879 0.04304 0.43238 0.0
C543 C 0.23145 0.12683 0.43613 0.0
C544 C 0.2684 0.13504 0.44649 0.0
C545 C 0.29298 0.17799 0.45511 0.0
C546 C 0.27993 0.21385 0.45297 0.0
C547 C 0.24296 0.2068 0.44219 0.0
C548 C 0.21806 0.16247 0.4338 0.0
H549 H 0.0295 0.26147 0.44803 0.0
H550 H 0.12332 0.2364 0.41664 0.0
H551 H 0.07114 0.14813 0.41996 0.0
H552 H 0.99626 0.15709 0.47436 0.0
H553 H 0.93383 0.14281 0.47644 0.0
H554 H 0.98111 0.20476 0.47304 0.0
H555 H 0.93499 0.20935 0.44852 0.0
H556 H 0.8875 0.14763 0.4519 0.0
H557 H 0.91835 0.1646 0.43311 0.0
H558 H 1.00867 0.06452 0.42506 0.0
H559 H 0.93334 0.9875 0.4298 0.0
H560 H 0.87544 0.06243 0.4574 0.0
C561 C 0.0389 0.23718 0.44194 0.0
C562 C 0.08103 0.25552 0.43237 0.0
C563 C 0.09207 0.22297 0.4244 0.0
C564 C 0.06258 0.1728 0.42618 0.0
C565 C 1.02176 0.15569 0.43584 0.0
C566 C 1.0093 0.18656 0.44346 0.0
C567 C 0.9612 0.15782 0.45218 0.0
C568 C 0.96855 0.16611 0.47007 0.0
C569 C 0.92327 0.17061 0.44606 0.0
C570 C 0.948 0.10616 0.44776 0.0
C571 C 0.98427 0.10621 0.43862 0.0
C572 C 0.98029 0.06381 0.4324 0.0
C573 C 0.93755 0.02009 0.43527 0.0
C574 C 0.89924 0.01878 0.44422 0.0
C575 C 0.90466 0.06234 0.45075 0.0
H576 H 0.05536 0.89909 0.42501 0.0
H577 H 0.04791 0.8309 0.47 0.0
H578 H 0.96091 0.80677 0.47244 0.0
H579 H 0.97424 0.9444 0.43448 0.0
H580 H 0.94564 0.93083 0.41526 0.0
H581 H 1.00781 0.94461 0.41728 0.0
H582 H 0.98707 0.86357 0.40392 0.0
H583 H 0.92479 0.84925 0.40165 0.0
H584 H 0.93835 0.80735 0.4117 0.0
H585 H 0.87324 0.78186 0.4685 0.0
H586 H 0.79189 0.7647 0.45975 0.0
H587 H 0.85621 0.85384 0.41823 0.0
C588 C 0.03559 0.87994 0.43551 0.0
C589 C 0.05829 0.86717 0.4474 0.0
C590 C 0.03115 0.84128 0.46083 0.0
C591 C 0.98174 0.82728 0.46228 0.0
C592 C 0.96004 0.83938 0.45017 0.0
C593 C 0.98609 0.86532 0.43709 0.0
C594 C 0.95359 0.87204 0.4255 0.0
C595 C 0.97132 0.92624 0.42299 0.0
C596 C 0.9508 0.84653 0.40977 0.0
C597 C 0.90526 0.84652 0.43422 0.0
C598 C 0.90972 0.82708 0.44829 0.0
C599 C 0.86945 0.79778 0.4577 0.0
C600 C 0.82342 0.78814 0.45263 0.0
C601 C 0.81815 0.80883 0.43853 0.0
C602 C 0.85961 0.83864 0.42926 0.0
H603 H 0.37974 0.9226 0.24123 0.0
H604 H 0.36556 0.93345 0.29171 0.0
H605 H 0.42381 0.90369 0.29617 0.0
H606 H 0.3921 0.81618 0.24078 0.0
H607 H 0.43746 0.83831 0.22537 0.0
H608 H 0.39319 0.8582 0.22627 0.0
H609 H 0.46246 0.94829 0.22699 0.0
H610 H 0.50667 0.92843 0.22578 0.0
H611 H 0.50935 0.96738 0.24172 0.0
H612 H 0.47954 0.86853 0.29488 0.0
H613 H 0.54051 0.84426 0.28838 0.0
H614 H 0.52533 0.86514 0.23864 0.0
C615 C 0.38919 0.91882 0.25321 0.0
C616 C 0.36853 0.93001 0.26619 0.0
C617 C 0.38163 0.92528 0.28169 0.0
C618 C 0.41418 0.90805 0.28429 0.0
C619 C 0.43372 0.89685 0.27122 0.0
C620 C 0.4226 0.90312 0.25598 0.0
C621 C 0.4509 0.89149 0.24398 0.0
C622 C 0.41634 0.84848 0.23349 0.0
C623 C 0.48435 0.93659 0.23404 0.0
C624 C 0.47987 0.87765 0.25485 0.0
C625 C 0.46844 0.87985 0.27049 0.0
C626 C 0.48918 0.86719 0.28271 0.0
C627 C 0.52351 0.85319 0.27889 0.0
C628 C 0.53761 0.85316 0.26303 0.0
C629 C 0.51522 0.86512 0.25085 0.0
H630 H 0.21854 0.6955 0.23484 0.0
H631 H 0.23367 0.73064 0.28468 0.0
H632 H 0.20958 0.64557 0.29113 0.0
H633 H 0.11671 0.57732 0.23725 0.0
H634 H 0.13743 0.55011 0.22271 0.0
H635 H 0.15694 0.61398 0.22161 0.0
H636 H 0.24735 0.63598 0.22203 0.0
H637 H 0.22833 0.57214 0.22265 0.0
H638 H 0.26866 0.61257 0.23757 0.0
H639 H 0.17547 0.55471 0.29222 0.0
H640 H 0.14735 0.46724 0.28765 0.0
H641 H 0.16361 0.49319 0.23728 0.0
C642 C 0.2173 0.68525 0.24708 0.0
C643 C 0.22768 0.71937 0.25929 0.0
C644 C 0.226 0.70497 0.27517 0.0
C645 C 0.2121 0.65671 0.27895 0.0
C646 C 0.20118 0.6236 0.26669 0.0
C647 C 0.20491 0.63747 0.25105 0.0
C648 C 0.19261 0.59495 0.24014 0.0
C649 C 0.14829 0.58343 0.22982 0.0
C650 C 0.23688 0.60449 0.23 0.0
C651 C 0.18049 0.55497 0.25209 0.0
C652 C 0.18486 0.57202 0.26734 0.0
C653 C 0.17266 0.54109 0.28034 0.0
C654 C 0.1564 0.49156 0.27767 0.0
C655 C 0.15365 0.47404 0.26218 0.0
C656 C 0.1659 0.5061 0.24926 0.0
H657 H 0.60945 0.66757 0.24762 0.0
H658 H 0.59851 0.7535 0.28559 0.0
H659 H 0.50948 0.69967 0.28638 0.0
H660 H 0.50121 0.64411 0.22769 0.0
H661 H 0.4833 0.58243 0.22227 0.0
H662 H 0.54674 0.62634 0.22508 0.0
H663 H 0.55392 0.5701 0.24568 0.0
H664 H 0.49061 0.52583 0.24286 0.0
H665 H 0.51292 0.54891 0.26233 0.0
H666 H 0.42178 0.63986 0.28232 0.0
H667 H 0.34034 0.57273 0.27507 0.0
H668 H 0.40622 0.52299 0.24012 0.0
C669 C 0.58825 0.67425 0.25629 0.0
C670 C 0.61066 0.7148 0.2665 0.0
C671 C 0.58185 0.72294 0.27754 0.0
C672 C 0.53128 0.69253 0.27811 0.0
C673 C 0.50993 0.65371 0.26762 0.0
C674 C 0.53736 0.64394 0.25705 0.0
C675 C 0.50474 0.59998 0.24698 0.0
C676 C 0.50926 0.61406 0.22947 0.0
C677 C 0.51623 0.55876 0.24963 0.0
C678 C 0.45491 0.58682 0.25354 0.0
C679 C 0.4589 0.61857 0.26538 0.0
C680 C 0.41814 0.61452 0.27314 0.0
C681 C 0.37203 0.57642 0.2689 0.0
C682 C 0.367 0.54272 0.25707 0.0
C683 C 0.40902 0.5483 0.24921 0.0
H684 H 0.81086 0.48246 0.76488 0.0
H685 H 0.90692 0.56077 0.80377 0.0
H686 H 0.93066 0.49782 0.80578 0.0
H687 H 0.77465 0.35602 0.78039 0.0
H688 H 0.77306 0.33348 0.76076 0.0
H689 H 0.75749 0.38036 0.764 0.0
H690 H 0.82278 0.43481 0.74348 0.0
H691 H 0.83906 0.38853 0.7404 0.0
H692 H 0.88499 0.44898 0.74612 0.0
H693 H 0.95615 0.4375 0.80027 0.0
H694 H 0.97342 0.37472 0.79019 0.0
H695 H 0.85763 0.33033 0.75589 0.0
C696 C 0.83562 0.48537 0.77414 0.0
C697 C 0.85708 0.52638 0.78419 0.0
C698 C 0.89 0.52957 0.79599 0.0
C699 C 0.90369 0.49398 0.79723 0.0
C700 C 0.88345 0.45498 0.78676 0.0
C701 C 0.84922 0.44963 0.77568 0.0
C702 C 0.83562 0.40567 0.76525 0.0
C703 C 0.78202 0.36657 0.76775 0.0
C704 C 0.84628 0.42041 0.74778 0.0
C705 C 0.86967 0.38904 0.77164 0.0
C706 C 0.89665 0.41797 0.78411 0.0
C707 C 0.93413 0.41345 0.79092 0.0
C708 C 0.94407 0.37812 0.78498 0.0
C709 C 0.91654 0.34759 0.77239 0.0
C710 C 0.87849 0.3527 0.76574 0.0
H711 H 0.73678 0.56385 0.75446 0.0
H712 H 0.68605 0.63207 0.78815 0.0
H713 H 0.61864 0.55144 0.7959 0.0
H714 H 0.61958 0.47691 0.74095 0.0
H715 H 0.63307 0.42836 0.73835 0.0
H716 H 0.68106 0.49069 0.73681 0.0
H717 H 0.7296 0.4753 0.75823 0.0
H718 H 0.68162 0.41292 0.76008 0.0
H719 H 0.70205 0.4518 0.77718 0.0
H720 H 0.5549 0.46544 0.79906 0.0
H721 H 0.49346 0.37905 0.796 0.0
H722 H 0.58071 0.3643 0.75912 0.0
C723 C 0.71166 0.5615 0.76359 0.0
C724 C 0.71658 0.604 0.7708 0.0
C725 C 0.68277 0.59991 0.78249 0.0
C726 C 0.6446 0.55426 0.78704 0.0
C727 C 0.64029 0.51303 0.77962 0.0
C728 C 0.67251 0.51605 0.76803 0.0
C729 C 0.65675 0.46619 0.76101 0.0
C730 C 0.64703 0.46552 0.74323 0.0
C731 C 0.69476 0.45062 0.76433 0.0
C732 C 0.60995 0.43504 0.77015 0.0
C733 C 0.602 0.46287 0.78106 0.0
C734 C 0.56077 0.44319 0.79062 0.0
C735 C 0.52605 0.39402 0.78878 0.0
C736 C 0.53225 0.36499 0.77731 0.0
C737 C 0.57521 0.38558 0.76805 0.0
H738 H 0.49878 0.19877 0.75563 0.0
H739 H 0.43028 0.08504 0.79083 0.0
H740 H 0.51078 0.09799 0.79866 0.0
H741 H 0.58597 0.16756 0.74315 0.0
H742 H 0.6347 0.22908 0.74017 0.0
H743 H 0.57238 0.21498 0.73842 0.0
H744 H 0.58737 0.28061 0.75932 0.0
H745 H 0.64981 0.29484 0.76122 0.0
H746 H 0.611 0.27808 0.77837 0.0
H747 H 0.59695 0.11932 0.80185 0.0
H748 H 0.68361 0.14359 0.79887 0.0
H749 H 0.69833 0.24243 0.76118 0.0
C750 C 0.50101 0.1772 0.76514 0.0
C751 C 0.45837 0.14087 0.77264 0.0
C752 C 0.46246 0.11283 0.78487 0.0
C753 C 0.50807 0.12022 0.7895 0.0
C754 C 0.54941 0.15588 0.78181 0.0
C755 C 0.54649 0.18386 0.76984 0.0
C756 C 0.59649 0.21708 0.76274 0.0
C757 C 0.59742 0.20652 0.74507 0.0
C758 C 0.61208 0.27084 0.76558 0.0
C759 C 0.62752 0.20211 0.77225 0.0
C760 C 0.5996 0.16748 0.78339 0.0
C761 C 0.61929 0.14662 0.79324 0.0
C762 C 0.66857 0.16064 0.79146 0.0
C763 C 0.69767 0.19488 0.77982 0.0
C764 C 0.67702 0.21648 0.77027 0.0
H765 H 0.02683 0.20295 0.60294 0.0
H766 H 0.06816 0.30744 0.5648 0.0
H767 H 0.12854 0.28595 0.55555 0.0
H768 H 0.14744 0.23058 0.61175 0.0
H769 H 0.13216 0.16905 0.61636 0.0
H770 H 0.0875 0.18785 0.61903 0.0
H771 H 0.02777 0.11742 0.60103 0.0
H772 H 0.07243 0.09859 0.59813 0.0
H773 H 0.04643 0.11219 0.58137 0.0
H774 H 0.18688 0.25749 0.55089 0.0
H775 H 0.24723 0.23032 0.55288 0.0
H776 H 0.17394 0.14656 0.59466 0.0
C777 C 0.04829 0.22074 0.59256 0.0
C778 C 0.04237 0.25653 0.58451 0.0
C779 C 0.07193 0.27993 0.57118 0.0
C780 C 0.10615 0.26768 0.56572 0.0
C781 C 0.11124 0.2324 0.57384 0.0
C782 C 0.08376 0.20962 0.58709 0.0
C783 C 0.10024 0.17637 0.59437 0.0
C784 C 0.1179 0.19191 0.61138 0.0
C785 C 0.05928 0.12297 0.59368 0.0
C786 C 0.14215 0.18541 0.58341 0.0
C787 C 0.14677 0.21695 0.57143 0.0
C788 C 0.18358 0.23256 0.56014 0.0
C789 C 0.21769 0.21687 0.56136 0.0
C790 C 0.21527 0.18631 0.57388 0.0
C791 C 0.1763 0.16947 0.58485 0.0
H792 H 0.84799 0.81465 0.58102 0.0
H793 H 0.83461 0.79632 0.63175 0.0
H794 H 0.8608 0.88404 0.63479 0.0
H795 H 0.95177 0.93531 0.57984 0.0
H796 H 0.92911 0.95473 0.56356 0.0
H797 H 0.91205 0.8916 0.5655 0.0
H798 H 0.82089 0.86674 0.56498 0.0
H799 H 0.83746 0.92961 0.56282 0.0
H800 H 0.79814 0.89407 0.57879 0.0
H801 H 0.89191 0.97438 0.63201 0.0
H802 H 0.91223 0.05726 0.62391 0.0
H803 H 0.89661 1.01384 0.57481 0.0
C804 C 0.85067 0.82923 0.59278 0.0
C805 C 0.83969 0.79928 0.60621 0.0
C806 C 0.84277 0.81901 0.62138 0.0
C807 C 0.85794 0.86867 0.62317 0.0
C808 C 0.86887 0.89743 0.60964 0.0
C809 C 0.8644 0.87814 0.59473 0.0
C810 C 0.87505 0.91578 0.58204 0.0
C811 C 0.91966 0.92489 0.57216 0.0
C812 C 0.8302 0.90065 0.57155 0.0
C813 C 0.88597 0.95948 0.59214 0.0
C814 C 0.88343 0.94842 0.60802 0.0
C815 C 0.89352 0.98328 0.61963 0.0
C816 C 0.90527 0.03027 0.61491 0.0
C817 C 0.9056 0.0416 0.59876 0.0
C818 C 0.89628 1.00589 0.58723 0.0
H819 H 0.26752 0.0462 0.57634 0.0
H820 H 0.29412 0.04832 0.6265 0.0
H821 H 0.20724 0.98637 0.63072 0.0
H822 H 0.14548 0.02798 0.57855 0.0
H823 H 0.1236 0.98713 0.56193 0.0
H824 H 0.18684 0.03348 0.56298 0.0
H825 H 0.21258 0.96815 0.56005 0.0
H826 H 0.14958 0.92152 0.55884 0.0
H827 H 0.18843 0.9174 0.57351 0.0
H828 H 0.11703 0.92647 0.62938 0.0
H829 H 0.03317 0.86381 0.62258 0.0
H830 H 0.06699 0.89438 0.57287 0.0
C831 C 0.25493 0.03361 0.58822 0.0
C832 C 0.28719 0.05197 0.60115 0.0
C833 C 0.26984 0.03441 0.61648 0.0
C834 C 0.22058 0.99959 0.61896 0.0
C835 C 0.18958 0.98227 0.60594 0.0
C836 C 0.20629 0.99806 0.59083 0.0
C837 C 0.16633 0.97149 0.57875 0.0
C838 C 0.15489 1.00715 0.57004 0.0
C839 C 0.18006 0.94294 0.56711 0.0
C840 C 0.12445 0.9377 0.5894 0.0
C841 C 0.13842 0.9455 0.60507 0.0
C842 C 0.10587 0.9198 0.61717 0.0
C843 C 0.05821 0.88443 0.61317 0.0
C844 C 0.04368 0.8741 0.5972 0.0
C845 C 0.0772 0.90142 0.58517 0.0
H846 H 0.55083 0.09126 0.04302 0.0
H847 H 0.51152 0.94193 0.05331 0.0
H848 H 0.51431 0.92656 0.02489 0.0
H849 H 0.48133 0.06761 1.0084 0.0
H850 H 0.52571 0.12115 0.99804 0.0
H851 H 0.52334 0.12116 0.01924 0.0
H852 H 0.61441 0.14529 0.02041 0.0
H853 H 0.61701 0.14524 0.99918 0.0
H854 H 0.63469 0.10829 1.01039 0.0
H855 H 0.51318 0.92506 0.99523 0.0
H856 H 0.51215 0.93898 0.96656 0.0
H857 H 0.55742 0.09035 0.97549 0.0
C858 C 0.54318 0.05542 0.03931 0.0
C859 C 0.53086 0.01776 0.05042 0.0
C860 C 0.52127 0.97144 0.04506 0.0
C861 C 0.52274 0.96233 0.02892 0.0
C862 C 0.53462 1.00009 0.01828 0.0
C863 C 0.54519 0.04588 0.02326 0.0
C864 C 0.55585 0.07982 1.00936 0.0
C865 C 0.51938 0.09851 1.00873 0.0
C866 C 0.60864 0.12216 1.00987 0.0
C867 C 0.54838 0.04563 0.99578 0.0
C868 C 0.53611 0.99977 1.00118 0.0
C869 C 0.52367 0.96103 0.99086 0.0
C870 C 0.52313 0.96921 0.97462 0.0
C871 C 0.5356 0.01587 0.96886 0.0
C872 C 0.54917 0.05468 0.97958 0.0
H873 H 0.09529 0.5665 0.97485 0.0
H874 H 0.9538 0.55254 0.96596 0.0
H875 H 0.94158 0.55639 0.99442 0.0
H876 H 0.06232 0.49278 1.00789 0.0
H877 H 0.11779 0.52876 0.01875 0.0
H878 H 0.11861 0.53083 0.99756 0.0
H879 H 0.15605 0.62443 0.99835 0.0
H880 H 0.15573 0.62272 0.0196 0.0
H881 H 0.12588 0.65049 1.00942 0.0
H882 H 0.93849 0.54843 0.02377 0.0
H883 H 0.94931 0.53814 0.05214 0.0
H884 H 0.09461 0.56332 0.04248 0.0
C885 C 0.06229 0.5655 0.97885 0.0
C886 C 0.02556 0.55911 0.96805 0.0
C887 C 0.98268 0.55751 0.97388 0.0
C888 C 0.97527 0.55964 0.99009 0.0
C889 C 1.01138 0.56428 1.00042 0.0
C890 C 0.05449 0.56819 0.99505 0.0
C891 C 0.08638 0.57073 1.00875 0.0
C892 C 0.09686 0.52824 1.0082 0.0
C893 C 0.13383 0.62004 1.00905 0.0
C894 C 0.05367 0.56583 0.02258 0.0
C895 C 1.01052 0.56211 0.0175 0.0
C896 C 0.97261 0.55257 0.02794 0.0
C897 C 0.97893 0.54658 0.04399 0.0
C898 C 1.02304 0.55091 0.04946 0.0
C899 C 0.06106 0.56129 0.03863 0.0
H900 H 0.58654 0.52839 0.97809 0.0
H901 H 0.46549 0.55325 0.96983 0.0
H902 H 0.44835 0.5469 0.99838 0.0
H903 H 0.53329 0.44408 1.01148 0.0
H904 H 0.58977 0.46944 0.0222 0.0
H905 H 0.59043 0.47148 1.00096 0.0
H906 H 0.64674 0.56498 1.00179 0.0
H907 H 0.64634 0.5632 0.02301 0.0
H908 H 0.62813 0.60155 0.0129 0.0
H909 H 0.44464 0.53951 0.02738 0.0
H910 H 0.45832 0.53903 0.05574 0.0
H911 H 0.58543 0.52405 0.04644 0.0
C912 C 0.55608 0.53182 0.98234 0.0
C913 C 0.52701 0.54095 0.97176 0.0
C914 C 0.48815 0.54631 0.97773 0.0
C915 C 0.47799 0.54249 0.99391 0.0
C916 C 0.50743 0.53393 1.00406 0.0
C917 C 0.54603 0.52918 0.9986 0.0
C918 C 0.57395 0.5238 0.0123 0.0
C919 C 0.57172 0.47424 1.01169 0.0
C920 C 0.62693 0.56589 0.01251 0.0
C921 C 0.54517 0.52669 0.02626 0.0
C922 C 0.50655 0.53174 0.02111 0.0
C923 C 0.47476 0.5356 0.03157 0.0
C924 C 0.48298 0.53524 0.04774 0.0
C925 C 0.52317 0.53168 0.05349 0.0
C926 C 0.55434 0.52671 0.04251 0.0
H927 H 0.21973 0.4275 0.37767 0.0
H928 H 0.21244 0.28751 0.38282 0.0
H929 H 0.20964 0.27819 0.35413 0.0
H930 H 0.13849 0.39496 0.34532 0.0
H931 H 0.17184 0.4521 0.33505 0.0
H932 H 0.17605 0.45013 0.35618 0.0
H933 H 0.26989 0.49102 0.35409 0.0
H934 H 0.26599 0.4933 0.33294 0.0
H935 H 0.29658 0.46409 0.34171 0.0
H936 H 0.19949 0.27884 0.32538 0.0
H937 H 0.18911 0.29317 0.29745 0.0
H938 H 0.20812 0.43465 0.30948 0.0
C939 C 0.21815 0.3952 0.37275 0.0
C940 C 0.21619 0.35824 0.38267 0.0
C941 C 0.21401 0.3165 0.37565 0.0
C942 C 0.21238 0.31072 0.35928 0.0
C943 C 0.21355 0.34718 0.34989 0.0
C944 C 0.21702 0.38896 0.35626 0.0
C945 C 0.21692 0.42198 0.34326 0.0
C946 C 0.17322 0.43027 0.34507 0.0
C947 C 0.26523 0.47048 0.34298 0.0
C948 C 0.21177 0.39159 0.3287 0.0
C949 C 0.20972 0.3485 0.33292 0.0
C950 C 0.20185 0.31277 0.32187 0.0
C951 C 0.19582 0.32112 0.30606 0.0
C952 C 0.1984 0.36512 0.30135 0.0
C953 C 0.20698 0.40111 0.31279 0.0
H954 H 0.65876 0.82455 0.38204 0.0
H955 H 0.80981 0.93393 0.3903 0.0
H956 H 0.82268 0.94817 0.36182 0.0
H957 H 0.67847 0.77381 0.34778 0.0
H958 H 0.62482 0.7647 0.33752 0.0
H959 H 0.62573 0.76489 0.35874 0.0
H960 H 0.60355 0.8333 0.35919 0.0
H961 H 0.60236 0.83317 0.33794 0.0
H962 H 0.64081 0.88881 0.34844 0.0
H963 H 0.82274 0.9443 0.33255 0.0
H964 H 0.80719 0.92737 0.30404 0.0
H965 H 0.65528 0.82547 0.31404 0.0
C966 C 0.69431 0.85201 0.37788 0.0
C967 C 0.73321 0.878 0.38853 0.0
C968 C 0.77923 0.91352 0.38251 0.0
C969 C 0.78705 0.92195 0.36629 0.0
C970 C 0.74839 0.8952 0.35612 0.0
C971 C 0.70268 0.86149 0.36162 0.0
C972 C 0.66782 0.83711 0.348 0.0
C973 C 0.64806 0.78186 0.34802 0.0
C974 C 0.62617 0.84881 0.34842 0.0
C975 C 0.7015 0.86147 0.33404 0.0
C976 C 0.74787 0.89474 0.33904 0.0
C977 C 0.78636 0.91911 0.32845 0.0
C978 C 0.77729 0.90919 0.31232 0.0
C979 C 0.73 0.87584 0.30689 0.0
C980 C 0.69152 0.85209 0.31789 0.0
H981 H 0.27819 0.86749 0.31075 0.0
H982 H 0.16139 0.89872 0.30252 0.0
H983 H 0.14174 0.88926 0.3309 0.0
H984 H 0.21947 0.77973 0.3436 0.0
H985 H 0.27541 0.80248 0.35449 0.0
H986 H 0.27686 0.80558 0.33326 0.0
H987 H 0.33629 0.89847 0.33463 0.0
H988 H 0.33495 0.89567 0.35583 0.0
H989 H 0.3194 0.93623 0.34584 0.0
H990 H 0.13718 0.88134 0.35982 0.0
H991 H 0.15039 0.87993 0.38824 0.0
H992 H 0.2731 0.85778 0.37884 0.0
C993 C 0.24786 0.87119 0.31497 0.0
C994 C 0.22081 0.88324 0.30452 0.0
C995 C 0.18229 0.8893 0.3104 0.0
C996 C 0.17076 0.88379 0.32647 0.0
C997 C 0.19846 0.87275 0.33656 0.0
C998 C 0.2364 0.86675 0.33114 0.0
C999 C 0.26288 0.8593 0.34482 0.0
C1000 C 0.25837 0.80876 0.34399 0.0
C1001 C 0.31656 0.89984 0.3453 0.0
C1002 C 0.23435 0.86292 0.35871 0.0
C1003 C 0.19693 0.8699 0.35357 0.0
C1004 C 0.16619 0.87563 0.36402 0.0
C1005 C 0.17413 0.87484 0.38019 0.0
C1006 C 0.21291 0.86886 0.38588 0.0
C1007 C 0.24305 0.86224 0.37492 0.0
H1008 H 0.88474 0.75579 0.71484 0.0
H1009 H 0.86882 0.614 0.72463 0.0
H1010 H 0.87967 0.60353 0.6965 0.0
H1011 H 0.81889 0.72347 0.6794 0.0
H1012 H 0.85747 0.78 0.66935 0.0
H1013 H 0.85292 0.77888 0.69051 0.0
H1014 H 0.9466 0.81788 0.69264 0.0
H1015 H 0.95141 0.81906 0.67144 0.0
H1016 H 0.97666 0.78927 0.68298 0.0
H1017 H 0.88265 0.60344 0.66728 0.0
H1018 H 0.8803 0.61554 0.6386 0.0
H1019 H 0.89858 0.75861 0.64709 0.0
C1020 C 0.88425 0.72286 0.7111 0.0
C1021 C 0.8758 0.68574 0.72206 0.0
C1022 C 0.87516 0.64308 0.71659 0.0
C1023 C 0.88145 0.63676 0.70058 0.0
C1024 C 0.88893 0.67357 0.69009 0.0
C1025 C 0.89079 0.716 0.69509 0.0
C1026 C 0.89703 0.74872 0.68116 0.0
C1027 C 0.85401 0.75831 0.68004 0.0
C1028 C 0.94584 0.79657 0.68212 0.0
C1029 C 0.89689 0.71733 0.66758 0.0
C1030 C 0.89238 0.67421 0.67306 0.0
C1031 C 0.88723 0.63746 0.66284 0.0
C1032 C 0.88588 0.64458 0.64659 0.0
C1033 C 0.89027 0.6883 0.6407 0.0
C1034 C 0.89673 0.72549 0.65132 0.0
H1035 H 0.43945 0.2118 0.64367 0.0
H1036 H 0.28989 0.17309 0.63368 0.0
H1037 H 0.27487 0.17596 0.66201 0.0
H1038 H 0.41432 0.14078 0.67809 0.0
H1039 H 0.46778 0.18401 0.68869 0.0
H1040 H 0.46854 0.18289 0.66748 0.0
H1041 H 0.49382 0.27416 0.66672 0.0
H1042 H 0.49322 0.2756 0.68796 0.0
H1043 H 0.45708 0.29456 0.67687 0.0
H1044 H 0.2732 0.17581 0.69123 0.0
H1045 H 0.2856 0.17453 0.71982 0.0
H1046 H 0.43673 0.21577 0.7117 0.0
C1047 C 0.40372 0.20457 0.64741 0.0
C1048 C 0.36589 0.19227 0.63634 0.0
C1049 C 0.31959 0.18272 0.64182 0.0
C1050 C 0.31064 0.18432 0.65794 0.0
C1051 C 0.3484 0.19588 0.66851 0.0
C1052 C 0.39413 0.20618 0.66353 0.0
C1053 C 0.4276 0.21562 0.67752 0.0
C1054 C 0.4456 0.17861 0.67797 0.0
C1055 C 0.47047 0.26811 0.67725 0.0
C1056 C 0.39311 0.20786 0.69112 0.0
C1057 C 0.34769 0.1967 0.68558 0.0
C1058 C 0.30875 0.18511 0.69572 0.0
C1059 C 0.31613 0.18431 0.71195 0.0
C1060 C 0.36217 0.19535 0.71797 0.0
C1061 C 0.40141 0.20805 0.70742 0.0
H1062 H 0.92881 0.19199 0.64459 0.0
H1063 H 0.83837 0.25466 0.63283 0.0
H1064 H 0.81739 0.2532 0.66102 0.0
H1065 H 0.85427 0.1134 0.6763 0.0
H1066 H 0.90554 0.12443 0.68835 0.0
H1067 H 0.9115 0.12795 0.66719 0.0
H1068 H 0.98468 0.21557 0.66938 0.0
H1069 H 0.97911 0.21223 0.69054 0.0
H1070 H 0.97758 0.2609 0.68007 0.0
H1071 H 0.8056 0.24411 0.6904 0.0
H1072 H 0.81017 0.23626 0.71913 0.0
H1073 H 0.91223 0.18385 0.71218 0.0
C1074 C 0.90434 0.20511 0.64795 0.0
C1075 C 0.88494 0.2232 0.63651 0.0
C1076 C 0.85372 0.24079 0.6414 0.0
C1077 C 0.84139 0.23983 0.65737 0.0
C1078 C 0.86107 0.22173 0.66834 0.0
C1079 C 0.89238 0.20526 0.66388 0.0
C1080 C 0.91064 0.19021 0.67813 0.0
C1081 C 0.89451 0.13576 0.67745 0.0
C1082 C 0.9663 0.22161 0.67962 0.0
C1083 C 0.88479 0.20088 0.69132 0.0
C1084 C 0.85584 0.21834 0.68537 0.0
C1085 C 0.82823 0.23058 0.69519 0.0
C1086 C 0.83095 0.22575 0.71154 0.0
C1087 C 0.86159 0.20944 0.718 0.0
C1088 C 0.88848 0.19644 0.70766 0.0
H1089 H 0.32899 0.89392 0.20618 0.0
H1090 H 0.28583 1.00439 0.20793 0.0
H1091 H 0.34074 0.04717 0.18581 0.0
H1092 H 0.45369 0.97228 0.19681 0.0
H1093 H 0.45874 0.93143 0.18312 0.0
H1094 H 0.4149 0.90746 0.19894 0.0
H1095 H 0.34527 0.86049 0.17894 0.0
H1096 H 0.38901 0.88344 0.16307 0.0
H1097 H 0.3374 0.89292 0.16282 0.0
H1098 H 0.4042 0.08192 0.16504 0.0
H1099 H 0.46162 0.09891 0.14319 0.0
H1100 H 0.46189 0.96455 0.15321 0.0
C1101 C 0.33032 0.92654 0.2017 0.0
C1102 C 0.30304 0.94576 0.20895 0.0
C1103 C 0.30629 0.98882 0.20273 0.0
C1104 C 0.33769 1.0137 0.19018 0.0
C1105 C 0.36538 0.99495 0.18374 0.0
C1106 C 0.36124 0.95177 0.18896 0.0
C1107 C 0.39456 0.93933 0.17954 0.0
C1108 C 0.43273 0.93753 0.19024 0.0
C1109 C 0.36478 0.89119 0.17056 0.0
C1110 C 0.41807 0.98244 0.16831 0.0
C1111 C 0.4011 1.01432 0.17118 0.0
C1112 C 0.41743 0.057 0.16255 0.0
C1113 C 0.4504 0.06647 0.15018 0.0
C1114 C 0.46637 0.03308 0.14633 0.0
C1115 C 0.45076 0.99105 0.15584 0.0
H1116 H 0.12867 0.53183 0.14795 0.0
H1117 H 1.02367 0.38833 0.13042 0.0
H1118 H 0.04496 0.35063 0.15175 0.0
H1119 H 0.21984 0.49908 0.16181 0.0
H1120 H 0.23469 0.53697 0.17906 0.0
H1121 H 0.21412 0.55293 0.16143 0.0
H1122 H 0.14536 0.55443 0.17806 0.0
H1123 H 0.16623 0.53746 0.19536 0.0
H1124 H 0.10386 0.50102 0.1891 0.0
H1125 H 0.07381 0.32671 0.17495 0.0
H1126 H 0.10584 0.31802 0.20035 0.0
H1127 H 0.19217 0.47524 0.20443 0.0
C1128 C 0.11033 0.49253 0.14861 0.0
C1129 C 0.07412 0.46328 0.13745 0.0
C1130 C 0.05103 0.41189 0.13881 0.0
C1131 C 0.06316 0.38987 0.15086 0.0
C1132 C 0.0985 0.41939 0.16166 0.0
C1133 C 0.12169 0.46956 0.16082 0.0
C1134 C 0.15651 0.49207 0.17467 0.0
C1135 C 0.20943 0.52206 0.16888 0.0
C1136 C 0.1421 0.52306 0.1849 0.0
C1137 C 0.14835 0.44661 0.18341 0.0
C1138 C 0.11514 0.40525 0.17548 0.0
C1139 C 0.10008 0.35878 0.18125 0.0
C1140 C 0.11852 0.35422 0.19572 0.0
C1141 C 0.15174 0.3958 0.20437 0.0
C1142 C 0.16752 0.44271 0.19796 0.0
H1143 H 0.60476 0.75989 0.20844 0.0
H1144 H 0.74138 0.76279 0.21732 0.0
H1145 H 0.72542 0.70695 0.19536 0.0
H1146 H 0.5346 0.63153 0.19548 0.0
H1147 H 0.50336 0.64465 0.18026 0.0
H1148 H 0.52371 0.68197 0.19773 0.0
H1149 H 0.57033 0.75754 0.17961 0.0
H1150 H 0.55188 0.71963 0.16228 0.0
H1151 H 0.61565 0.76008 0.16612 0.0
H1152 H 0.6966 0.65078 0.17302 0.0
H1153 H 0.65961 0.60269 0.1492 0.0
H1154 H 0.54271 0.63681 0.15239 0.0
C1155 C 0.63118 0.74869 0.20573 0.0
C1156 C 0.67455 0.76631 0.21469 0.0
C1157 C 0.70819 0.7507 0.21066 0.0
C1158 C 0.69932 0.71844 0.19822 0.0
C1159 C 0.65671 0.70192 0.18964 0.0
C1160 C 0.62327 0.71669 0.193 0.0
C1161 C 0.58194 0.69503 0.18103 0.0
C1162 C 0.533 0.66133 0.18912 0.0
C1163 C 0.57982 0.73547 0.1717 0.0
C1164 C 0.59776 0.66611 0.17056 0.0
C1165 C 0.64069 0.6703 0.176 0.0
C1166 C 0.66299 0.64725 0.16858 0.0
C1167 C 0.6415 0.61982 0.15501 0.0
C1168 C 0.5981 0.61568 0.14877 0.0
C1169 C 0.57568 0.63884 0.15684 0.0
H1170 H 0.93493 0.42862 0.87114 0.0
H1171 H 0.06729 0.42618 0.88295 0.0
H1172 H 0.05259 0.36972 0.86124 0.0
H1173 H 0.86349 0.3011 0.85915 0.0
H1174 H 0.83452 0.31365 0.84303 0.0
H1175 H 0.85401 0.35265 0.86012 0.0
H1176 H 0.90422 0.42651 0.84186 0.0
H1177 H 0.88644 0.3877 0.82476 0.0
H1178 H 0.95009 0.42686 0.82915 0.0
H1179 H 0.02497 0.31328 0.83877 0.0
H1180 H 0.98897 0.2647 0.81489 0.0
H1181 H 0.87527 0.3036 0.81597 0.0
C1182 C 0.96084 0.41629 0.86912 0.0
C1183 C 1.00236 0.43225 0.87889 0.0
C1184 C 0.03528 0.41505 0.87575 0.0
C1185 C 0.02719 0.38256 0.86343 0.0
C1186 C 0.98606 0.36736 0.85415 0.0
C1187 C 0.95354 0.38382 0.85666 0.0
C1188 C 0.91329 0.36266 0.84436 0.0
C1189 C 0.86336 0.33063 0.85214 0.0
C1190 C 0.91352 0.40334 0.83443 0.0
C1191 C 0.92868 0.33213 0.8346 0.0
C1192 C 0.97049 0.33514 0.84067 0.0
C1193 C 0.99223 0.31062 0.83386 0.0
C1194 C 0.97134 0.28296 0.82028 0.0
C1195 C 0.92913 0.28 0.81348 0.0
C1196 C 0.9072 0.30455 0.82093 0.0
H1197 H 0.63425 0.53945 0.87455 0.0
H1198 H 0.57901 0.64044 0.87257 0.0
H1199 H 0.63174 0.68112 0.84988 0.0
H1200 H 0.75724 0.62271 0.86388 0.0
H1201 H 0.76454 0.58015 0.85172 0.0
H1202 H 0.72146 0.55834 0.86779 0.0
H1203 H 0.65345 0.50333 0.84783 0.0
H1204 H 0.69714 0.52656 0.83193 0.0
H1205 H 0.64262 0.53094 0.8309 0.0
H1206 H 0.69565 0.71682 0.82932 0.0
H1207 H 0.75786 0.73731 0.80879 0.0
H1208 H 0.76952 0.61097 0.82187 0.0
C1209 C 0.63239 0.56936 0.86911 0.0
C1210 C 0.60227 0.5866 0.87553 0.0
C1211 C 0.60156 0.6263 0.86806 0.0
C1212 C 0.63166 0.64999 0.85513 0.0
C1213 C 0.66199 0.63331 0.84947 0.0
C1214 C 0.66187 0.59321 0.8559 0.0
C1215 C 0.69784 0.58279 0.84717 0.0
C1216 C 0.73758 0.58616 0.85832 0.0
C1217 C 0.67116 0.53294 0.83897 0.0
C1218 C 0.71881 0.62403 0.83518 0.0
C1219 C 0.69775 0.65287 0.8369 0.0
C1220 C 0.71203 0.69419 0.82771 0.0
C1221 C 0.74789 0.70581 0.81615 0.0
C1222 C 0.76895 0.67596 0.81365 0.0
C1223 C 0.7543 0.63465 0.82345 0.0
H1224 H 0.46251 0.19144 0.81441 0.0
H1225 H 0.30559 0.10066 0.81913 0.0
H1226 H 0.31675 0.06841 0.84414 0.0
H1227 H 0.49318 0.10645 0.82849 0.0
H1228 H 0.54645 0.1488 0.83935 0.0
H1229 H 0.52714 0.16935 0.82253 0.0
H1230 H 0.52343 0.23495 0.83965 0.0
H1231 H 0.54266 0.21487 0.85665 0.0
H1232 H 0.48699 0.21726 0.85736 0.0
H1233 H 0.34337 0.03948 0.86667 0.0
H1234 H 0.38384 0.01873 0.88725 0.0
H1235 H 0.52513 0.12919 0.86958 0.0
C1236 C 0.43047 0.16575 0.82092 0.0
C1237 C 0.38302 0.14879 0.81478 0.0
C1238 C 0.3422 0.11433 0.82353 0.0
C1239 C 0.34816 0.09576 0.83778 0.0
C1240 C 0.39521 0.11214 0.84326 0.0
C1241 C 0.43577 0.14679 0.83529 0.0
C1242 C 0.48222 0.15629 0.84367 0.0
C1243 C 0.51412 0.14451 0.83286 0.0
C1244 C 0.5105 0.20898 0.84969 0.0
C1245 C 0.46124 0.12042 0.85729 0.0
C1246 C 0.41092 0.09564 0.85673 0.0
C1247 C 0.38272 0.05895 0.86736 0.0
C1248 C 0.40629 0.04715 0.87895 0.0
C1249 C 0.45785 0.07195 0.88002 0.0
C1250 C 0.48573 0.10962 0.8691 0.0
H1251 H 0.97805 0.30005 0.53434 0.0
H1252 H 0.99389 0.17619 0.54763 0.0
H1253 H 0.05149 0.19419 0.52586 0.0
H1254 H 0.98472 0.28369 0.49134 0.0
H1255 H 1.01798 0.34816 0.48747 0.0
H1256 H 0.97628 0.32491 0.5039 0.0
H1257 H 0.04577 0.38227 0.52266 0.0
H1258 H 0.08787 0.40503 0.50633 0.0
H1259 H 0.10115 0.37929 0.52324 0.0
H1260 H 0.11111 0.22741 0.50413 0.0
H1261 H 0.16247 0.26793 0.48117 0.0
H1262 H 0.10761 0.36931 0.48002 0.0
C1263 C 0.99293 0.27618 0.5325 0.0
C1264 C 0.98099 0.23652 0.54283 0.0
C1265 C 1.00178 0.20654 0.53996 0.0
C1266 C 0.03498 0.21664 0.52763 0.0
C1267 C 0.04683 0.25649 0.51798 0.0
C1268 C 0.02588 0.28533 0.51999 0.0
C1269 C 0.04503 0.32558 0.50763 0.0
C1270 C 1.00353 0.32026 0.49695 0.0
C1271 C 0.07153 0.37603 0.51544 0.0
C1272 C 0.08049 0.31515 0.49858 0.0
C1273 C 0.0809 0.27523 0.50492 0.0
C1274 C 0.11076 0.25841 0.49895 0.0
C1275 C 0.14004 0.28199 0.48586 0.0
C1276 C 0.13932 0.322 0.47862 0.0
C1277 C 0.10948 0.3392 0.48529 0.0
H1278 H 0.80736 0.85329 0.48831 0.0
H1279 H 0.66849 0.72217 0.48008 0.0
H1280 H 0.68297 0.68323 0.50275 0.0
H1281 H 0.8733 0.79429 0.50008 0.0
H1282 H 0.90762 0.83726 0.51538 0.0
H1283 H 0.88663 0.85646 0.49861 0.0
H1284 H 0.84259 0.8872 0.51729 0.0
H1285 H 0.86383 0.86839 0.53408 0.0
H1286 H 0.79965 0.84612 0.53161 0.0
H1287 H 0.71315 0.65588 0.5249 0.0
H1288 H 0.75251 0.64458 0.54803 0.0
H1289 H 0.87121 0.79373 0.54374 0.0
C1290 C 0.77962 0.81669 0.49144 0.0
C1291 C 0.73667 0.79095 0.4823 0.0
C1292 C 0.70162 0.74293 0.48678 0.0
C1293 C 0.70959 0.72024 0.49965 0.0
C1294 C 0.75262 0.74601 0.5081 0.0
C1295 C 0.78675 0.79343 0.50444 0.0
C1296 C 0.82958 0.81263 0.51578 0.0
C1297 C 0.87709 0.82595 0.50693 0.0
C1298 C 0.83417 0.85616 0.52525 0.0
C1299 C 0.81399 0.76841 0.5263 0.0
C1300 C 0.7697 0.7304 0.52143 0.0
C1301 C 0.7476 0.6855 0.52895 0.0
C1302 C 0.77048 0.67949 0.54212 0.0
C1303 C 0.81497 0.7183 0.54788 0.0
C1304 C 0.83742 0.76321 0.53964 0.0
H1305 H 0.23667 0.96684 0.48372 0.0
H1306 H 0.35243 0.93124 0.48045 0.0
H1307 H 0.39461 0.98649 0.50259 0.0
H1308 H 0.31221 0.0926 0.49282 0.0
H1309 H 0.27011 0.09523 0.50661 0.0
H1310 H 0.24772 0.05178 0.4907 0.0
H1311 H 0.20278 0.98139 0.51076 0.0
H1312 H 0.22462 0.02471 0.5267 0.0
H1313 H 0.23651 0.9747 0.52671 0.0
H1314 H 0.42649 0.04807 0.52418 0.0
H1315 H 0.44149 0.10475 0.54607 0.0
H1316 H 0.3045 0.09987 0.53619 0.0
C1317 C 0.27046 0.96997 0.48781 0.0
C1318 C 0.29102 0.94434 0.48029 0.0
C1319 C 0.33565 0.95012 0.48598 0.0
C1320 C 0.36014 0.98172 0.49852 0.0
C1321 C 0.33956 1.00729 0.50537 0.0
C1322 C 0.29538 1.00126 0.50042 0.0
C1323 C 0.28123 0.03295 0.51 0.0
C1324 C 0.27761 0.07035 0.4994 0.0
C1325 C 0.23346 1.00156 0.51908 0.0
C1326 C 0.32435 0.05755 0.52112 0.0
C1327 C 0.35773 0.04251 0.51809 0.0
C1328 C 0.40049 0.05992 0.52673 0.0
C1329 C 0.40874 0.09236 0.53914 0.0
C1330 C 0.37424 0.10698 0.54297 0.0
C1331 C 0.33187 0.08987 0.53357 0.0
H1332 H 0.54912 0.42257 0.12039 0.0
H1333 H 0.47713 0.42366 0.07713 0.0
H1334 H 0.47425 0.34804 0.0686 0.0
H1335 H 0.62027 0.36749 0.10343 0.0
H1336 H 0.6109 0.32995 0.12048 0.0
H1337 H 0.61379 0.38786 0.12273 0.0
H1338 H 0.52996 0.34655 0.13646 0.0
H1339 H 0.52644 0.28832 0.13447 0.0
H1340 H 0.47847 0.29721 0.12674 0.0
H1341 H 0.46856 0.2678 0.06615 0.0
H1342 H 0.46643 0.18925 0.06903 0.0
H1343 H 0.54327 0.23789 0.11346 0.0
C1344 C 0.53437 0.4076 0.10891 0.0
C1345 C 0.51386 0.42917 0.09931 0.0
C1346 C 0.4933 0.40782 0.0846 0.0
C1347 C 0.49149 0.36486 0.07964 0.0
C1348 C 0.5103 0.34336 0.08954 0.0
C1349 C 0.53189 0.36406 0.1038 0.0
C1350 C 0.54559 0.33088 0.11264 0.0
C1351 C 0.60096 0.35555 0.11494 0.0
C1352 C 0.51849 0.3148 0.12851 0.0
C1353 C 0.52769 0.28837 0.10123 0.0
C1354 C 0.50741 0.29649 0.088 0.0
C1355 C 0.48518 0.26134 0.07629 0.0
C1356 C 0.48389 0.21675 0.07806 0.0
C1357 C 0.50507 0.20779 0.09135 0.0
C1358 C 0.52752 0.24421 0.10304 0.0
H1359 H 0.68054 0.14809 0.12062 0.0
H1360 H 0.615 0.13907 0.075 0.0
H1361 H 0.68953 0.21256 0.06623 0.0
H1362 H 0.74344 0.28189 0.1228 0.0
H1363 H 0.79537 0.28548 0.13273 0.0
H1364 H 0.73593 0.23299 0.13547 0.0
H1365 H 0.76998 0.17728 0.12658 0.0
H1366 H 0.82928 0.22962 0.12354 0.0
H1367 H 0.79954 0.18731 0.10764 0.0
H1368 H 0.77419 0.28135 0.06151 0.0
H1369 H 0.85915 0.35008 0.0628 0.0
H1370 H 0.86608 0.31788 0.11207 0.0
C1371 C 0.68182 0.16213 0.10889 0.0
C1372 C 0.64257 0.13806 0.09844 0.0
C1373 C 0.64493 0.15723 0.08318 0.0
C1374 C 0.68711 0.19875 0.07806 0.0
C1375 C 0.72589 0.22099 0.08849 0.0
C1376 C 0.7232 0.20418 0.10371 0.0
C1377 C 0.7697 0.23536 0.11265 0.0
C1378 C 0.76055 0.26043 0.12674 0.0
C1379 C 0.79351 0.2056 0.11791 0.0
C1380 C 0.79927 0.27149 0.09995 0.0
C1381 C 0.77365 0.26231 0.08603 0.0
C1382 C 0.79447 0.28948 0.0724 0.0
C1383 C 0.8426 0.32796 0.07318 0.0
C1384 C 0.86834 0.33884 0.08754 0.0
C1385 C 0.84662 0.31021 0.101 0.0
H1386 H 0.77246 0.60215 0.08902 0.0
H1387 H 0.67374 0.45911 0.10787 0.0
H1388 H 0.7423 0.44329 0.11093 0.0
H1389 H 0.85149 0.56734 0.06742 0.0
H1390 H 0.90594 0.62385 0.07183 0.0
H1391 H 0.84839 0.62218 0.07017 0.0
H1392 H 0.86006 0.65945 0.09814 0.0
H1393 H 0.91741 0.6609 0.09992 0.0
H1394 H 0.8705 0.62969 0.11454 0.0
H1395 H 0.82331 0.44562 0.1136 0.0
H1396 H 0.90945 0.46522 0.11474 0.0
H1397 H 0.95451 0.6059 0.0937 0.0
C1398 C 0.76526 0.56727 0.09357 0.0
C1399 C 0.71782 0.53165 0.09816 0.0
C1400 C 0.70982 0.48666 0.10422 0.0
C1401 C 0.74855 0.47742 0.10601 0.0
C1402 C 0.79514 0.51358 0.10162 0.0
C1403 C 0.80357 0.55747 0.09541 0.0
C1404 C 0.85723 0.5908 0.09205 0.0
C1405 C 0.86628 0.60167 0.07432 0.0
C1406 C 0.87747 0.63799 0.10175 0.0
C1407 C 0.87773 0.55925 0.09763 0.0
C1408 C 0.84141 0.51472 0.10304 0.0
C1409 C 0.85196 0.48014 0.10918 0.0
C1410 C 0.90088 0.49137 0.10971 0.0
C1411 C 0.93844 0.53662 0.10409 0.0
C1412 C 0.9265 0.57087 0.09803 0.0
H1413 H 0.41852 0.54822 0.90768 0.0
H1414 H 0.4068 0.46592 0.94989 0.0
H1415 H 0.32983 0.46284 0.95681 0.0
H1416 H 0.36344 0.618 0.92482 0.0
H1417 H 0.33053 0.61475 0.90714 0.0
H1418 H 0.38743 0.61492 0.90581 0.0
H1419 H 0.34626 0.53487 0.88999 0.0
H1420 H 0.28909 0.53416 0.89105 0.0
H1421 H 0.29323 0.48263 0.89801 0.0
H1422 H 0.25106 0.46184 0.95831 0.0
H1423 H 0.1754 0.46498 0.95449 0.0
H1424 H 0.235 0.54789 0.91149 0.0
C1425 C 0.40018 0.53059 0.91854 0.0
C1426 C 0.41888 0.50747 0.9283 0.0
C1427 C 0.39324 0.48379 0.94222 0.0
C1428 C 0.34944 0.48194 0.9463 0.0
C1429 C 0.33121 0.50383 0.93632 0.0
C1430 C 0.35568 0.52798 0.92276 0.0
C1431 C 0.32605 0.54589 0.91376 0.0
C1432 C 0.35349 0.60172 0.91284 0.0
C1433 C 0.31288 0.52301 0.89722 0.0
C1434 C 0.28099 0.52714 0.92422 0.0
C1435 C 0.2851 0.50327 0.93721 0.0
C1436 C 0.24762 0.48091 0.94827 0.0
C1437 C 0.20467 0.48277 0.94599 0.0
C1438 C 0.19929 0.50681 0.93277 0.0
C1439 C 0.23824 0.52963 0.92181 0.0
H1440 H 0.59207 0.95297 0.93119 0.0
H1441 H 0.48586 0.92259 0.89445 0.0
H1442 H 0.46752 0.83696 0.89349 0.0
H1443 H 0.63886 0.87915 0.91518 0.0
H1444 H 0.64764 0.8593 0.93417 0.0
H1445 H 0.65096 0.91746 0.93224 0.0
H1446 H 0.58444 0.89273 0.95377 0.0
H1447 H 0.58071 0.83434 0.9557 0.0
H1448 H 0.52676 0.8377 0.95137 0.0
H1449 H 0.46083 0.75479 0.89663 0.0
H1450 H 0.47021 0.68343 0.90217 0.0
H1451 H 0.58244 0.7675 0.93645 0.0
C1452 C 0.565 0.92823 0.92293 0.0
C1453 C 0.53959 0.94395 0.91309 0.0
C1454 C 0.50485 0.91083 0.90233 0.0
C1455 C 0.49433 0.86225 0.90169 0.0
C1456 C 0.51931 0.84759 0.91178 0.0
C1457 C 0.55426 0.8797 0.9221 0.0
C1458 C 0.57686 0.85506 0.93136 0.0
C1459 C 0.63184 0.87918 0.92803 0.0
C1460 C 0.56657 0.85495 0.9491 0.0
C1461 C 0.54953 0.80411 0.92454 0.0
C1462 C 0.51615 0.80051 0.91337 0.0
C1463 C 0.48679 0.75721 0.90536 0.0
C1464 C 0.4922 0.71678 0.90864 0.0
C1465 C 0.52679 0.71985 0.9198 0.0
C1466 C 0.55554 0.76405 0.92792 0.0
H1467 H 0.28929 0.86437 0.93449 0.0
H1468 H 0.38691 0.82589 0.91064 0.0
H1469 H 0.3192 0.7421 0.90693 0.0
H1470 H 0.21553 0.74617 0.9545 0.0
H1471 H 0.15976 0.74769 0.95213 0.0
H1472 H 0.21683 0.80368 0.95399 0.0
H1473 H 0.2002 0.83414 0.92766 0.0
H1474 H 0.14331 0.77821 0.92566 0.0
H1475 H 0.18813 0.79767 0.91012 0.0
H1476 H 0.23968 0.66517 0.9035 0.0
H1477 H 0.15393 0.59887 0.90193 0.0
H1478 H 0.10883 0.68584 0.92904 0.0
C1479 C 0.29641 0.83802 0.92871 0.0
C1480 C 0.34309 0.85136 0.92284 0.0
C1481 C 0.35125 0.81622 0.91523 0.0
C1482 C 0.31308 0.76856 0.91308 0.0
C1483 C 0.26716 0.75664 0.91873 0.0
C1484 C 0.25871 0.79014 0.92654 0.0
C1485 C 0.20555 0.76834 0.93096 0.0
C1486 C 0.19905 0.76635 0.94896 0.0
C1487 C 0.18299 0.79625 0.92313 0.0
C1488 C 0.18535 0.71789 0.92405 0.0
C1489 C 0.22148 0.71176 0.91711 0.0
C1490 C 0.21119 0.66906 0.90921 0.0
C1491 C 0.16258 0.63148 0.90849 0.0
C1492 C 0.12531 0.63686 0.91577 0.0
C1493 C 0.13688 0.68064 0.92357 0.0
H1494 H 0.23746 0.75136 0.45123 0.0
H1495 H 0.15825 0.74365 0.40871 0.0
H1496 H 0.15387 0.66626 0.40156 0.0
H1497 H 0.3059 0.69441 0.4349 0.0
H1498 H 0.29922 0.65866 0.45222 0.0
H1499 H 0.30162 0.71639 0.45416 0.0
H1500 H 0.2199 0.67788 0.46878 0.0
H1501 H 0.21689 0.61969 0.46776 0.0
H1502 H 0.16741 0.62648 0.46024 0.0
H1503 H 0.14948 0.58646 0.40023 0.0
H1504 H 0.14874 0.50903 0.40423 0.0
H1505 H 0.23091 0.56551 0.44745 0.0
C1506 C 0.22054 0.73392 0.44022 0.0
C1507 C 0.19857 0.75361 0.43041 0.0
C1508 C 0.17541 0.72919 0.41633 0.0
C1509 C 0.1728 0.68525 0.41215 0.0
C1510 C 0.19336 0.66584 0.42222 0.0
C1511 C 0.2171 0.6893 0.43592 0.0
C1512 C 0.23246 0.65802 0.44516 0.0
C1513 C 0.28813 0.6834 0.44667 0.0
C1514 C 0.20767 0.64474 0.46145 0.0
C1515 C 0.2132 0.61349 0.43456 0.0
C1516 C 0.19083 0.619 0.42141 0.0
C1517 C 0.16753 0.58193 0.41035 0.0
C1518 C 0.16709 0.53799 0.41276 0.0
C1519 C 0.18998 0.53143 0.42607 0.0
C1520 C 0.21365 0.56984 0.43706 0.0
H1521 H 0.51417 0.67302 0.44712 0.0
H1522 H 0.56341 0.65982 0.40055 0.0
H1523 H 0.48255 0.58883 0.39514 0.0
H1524 H 0.45178 0.54974 0.45543 0.0
H1525 H 0.40217 0.54927 0.4661 0.0
H1526 H 0.46053 0.60391 0.46534 0.0
H1527 H 0.41981 0.65092 0.45407 0.0
H1528 H 0.36121 0.5961 0.45469 0.0
H1529 H 0.38348 0.62909 0.43646 0.0
H1530 H 0.4017 0.5154 0.39567 0.0
H1531 H 0.32847 0.43868 0.40293 0.0
H1532 H 0.32957 0.49583 0.44948 0.0
C1533 C 0.50741 0.65566 0.43568 0.0
C1534 C 0.54475 0.67192 0.42417 0.0
C1535 C 0.53518 0.64791 0.40947 0.0
C1536 C 0.48926 0.60787 0.40626 0.0
C1537 C 0.4533 0.59226 0.41788 0.0
C1538 C 0.46178 0.61514 0.43235 0.0
C1539 C 0.4187 0.58737 0.44341 0.0
C1540 C 0.43424 0.57163 0.45845 0.0
C1541 C 0.39437 0.61768 0.44739 0.0
C1542 C 0.3858 0.54399 0.43316 0.0
C1543 C 0.40608 0.54856 0.41833 0.0
C1544 C 0.38506 0.51175 0.40713 0.0
C1545 C 0.34346 0.46831 0.41136 0.0
C1546 C 0.32325 0.46179 0.42667 0.0
C1547 C 0.34361 0.50062 0.43756 0.0
H1548 H 0.64275 0.93277 0.42477 0.0
H1549 H 0.60037 0.80806 0.45514 0.0
H1550 H 0.51439 0.78692 0.45315 0.0
H1551 H 0.56032 0.96646 0.44233 0.0
H1552 H 0.54723 0.98689 0.42414 0.0
H1553 H 0.60503 0.98977 0.42672 0.0
H1554 H 0.59013 0.93874 0.40133 0.0
H1555 H 0.53203 0.93537 0.39874 0.0
H1556 H 0.53552 0.88035 0.39963 0.0
H1557 H 0.43378 0.77953 0.44826 0.0
H1558 H 0.36381 0.79157 0.4434 0.0
H1559 H 0.45735 0.9244 0.41776 0.0
C1560 C 0.61521 0.90091 0.43091 0.0
C1561 C 0.62778 0.87074 0.43959 0.0
C1562 C 0.5911 0.83012 0.4478 0.0
C1563 C 0.54225 0.81813 0.44685 0.0
C1564 C 0.53077 0.84783 0.43792 0.0
C1565 C 0.56614 0.88887 0.43031 0.0
C1566 C 0.54402 0.91636 0.42245 0.0
C1567 C 0.56542 0.96792 0.42933 0.0
C1568 C 0.55084 0.91777 0.40447 0.0
C1569 C 0.49086 0.8846 0.42701 0.0
C1570 C 0.48411 0.84486 0.43571 0.0
C1571 C 0.43857 0.81049 0.44146 0.0
C1572 C 0.399 0.81751 0.43859 0.0
C1573 C 0.40516 0.85872 0.43019 0.0
C1574 C 0.45159 0.89237 0.42413 0.0
H1575 H 0.8813 0.79706 0.24206 0.0
H1576 H 0.91219 0.90751 0.27752 0.0
H1577 H 0.99729 0.92539 0.27886 0.0
H1578 H 0.9589 0.75346 0.25755 0.0
H1579 H 0.97967 0.74584 0.2385 0.0
H1580 H 0.92042 0.74025 0.24052 0.0
H1581 H 0.94311 0.80653 0.21917 0.0
H1582 H 1.00247 0.81238 0.21711 0.0
H1583 H 0.99705 0.8651 0.22162 0.0
H1584 H 0.07644 0.92848 0.27763 0.0
H1585 H 0.14909 0.92203 0.2724 0.0
H1586 H 0.07235 0.81572 0.23564 0.0
C1587 C 0.90608 0.82476 0.25014 0.0
C1588 C 0.89028 0.85068 0.25982 0.0
C1589 C 0.92365 0.8872 0.27007 0.0
C1590 C 0.97199 0.89757 0.27093 0.0
C1591 C 0.98659 0.87159 0.26125 0.0
C1592 C 0.95501 0.83632 0.25092 0.0
C1593 C 0.98114 0.81521 0.2415 0.0
C1594 C 0.95869 0.76044 0.24472 0.0
C1595 C 0.98093 0.82543 0.2238 0.0
C1596 C 0.03212 0.84387 0.24831 0.0
C1597 C 0.03396 0.87579 0.25978 0.0
C1598 C 0.07586 0.90454 0.26841 0.0
C1599 C 0.11726 0.90102 0.26519 0.0
C1600 C 0.11725 0.87002 0.25312 0.0
C1601 C 0.07384 0.84068 0.24465 0.0
H1602 H 0.3014 0.12867 0.24501 0.0
H1603 H 0.16302 0.0308 0.2673 0.0
H1604 H 0.14105 0.09528 0.26706 0.0
H1605 H 0.32276 0.23989 0.2641 0.0
H1606 H 0.34698 0.27702 0.2467 0.0
H1607 H 0.3533 0.22399 0.24923 0.0
H1608 H 0.31133 0.19073 0.22231 0.0
H1609 H 0.30466 0.24355 0.21974 0.0
H1610 H 0.25196 0.18353 0.21881 0.0
H1611 H 0.13585 0.1703 0.26601 0.0
H1612 H 0.14418 0.25082 0.26212 0.0
H1613 H 0.28077 0.29905 0.23731 0.0
C1614 C 0.26678 0.12127 0.24995 0.0
C1615 C 0.23405 0.07518 0.25637 0.0
C1616 C 0.18858 0.06607 0.26242 0.0
C1617 C 0.1758 0.1024 0.26234 0.0
C1618 C 0.20849 0.14734 0.25584 0.0
C1619 C 0.25277 0.15693 0.24957 0.0
C1620 C 0.27988 0.20793 0.24269 0.0
C1621 C 0.32862 0.23904 0.25119 0.0
C1622 C 0.28739 0.20632 0.22483 0.0
C1623 C 0.24413 0.22548 0.2463 0.0
C1624 C 0.20352 0.18992 0.25405 0.0
C1625 C 0.16681 0.19807 0.25959 0.0
C1626 C 0.17159 0.24383 0.25714 0.0
C1627 C 0.21197 0.28052 0.2488 0.0
C1628 C 0.24876 0.27117 0.2433 0.0
H1629 H 0.78328 1.01454 0.26539 0.0
H1630 H 0.82822 0.9293 0.23722 0.0
H1631 H 0.90945 1.00249 0.23343 0.0
H1632 H 0.84412 0.12424 0.24286 0.0
H1633 H 0.86105 0.16388 0.25976 0.0
H1634 H 0.80715 0.10475 0.26046 0.0
H1635 H 0.83965 0.08332 0.28539 0.0
H1636 H 0.89358 0.14246 0.28482 0.0
H1637 H 0.89896 0.08844 0.28488 0.0
H1638 H 0.9851 0.08618 0.23215 0.0
H1639 H 0.04999 0.17215 0.23423 0.0
H1640 H 0.95603 0.20279 0.26362 0.0
C1641 C 0.81025 1.01124 0.25843 0.0
C1642 C 0.79946 0.96626 0.25154 0.0
C1643 C 0.83575 0.96338 0.2426 0.0
C1644 C 0.88192 1.00479 0.24038 0.0
C1645 C 0.89123 0.04874 0.24723 0.0
C1646 C 0.85645 0.05211 0.25616 0.0
C1647 C 0.87556 0.10348 0.2623 0.0
C1648 C 0.84516 0.12537 0.25596 0.0
C1649 C 0.87703 0.10447 0.28042 0.0
C1650 C 0.92648 0.12883 0.25532 0.0
C1651 C 0.93476 0.09658 0.24665 0.0
C1652 C 0.97894 0.11159 0.23894 0.0
C1653 C 1.01556 0.16059 0.24016 0.0
C1654 C 1.00805 0.19423 0.24905 0.0
C1655 C 0.96283 0.17796 0.25673 0.0
H1656 H 0.80291 0.86819 0.75037 0.0
H1657 H 0.93034 0.90654 0.77891 0.0
H1658 H 0.9439 0.98964 0.78213 0.0
H1659 H 0.85251 0.98814 0.73074 0.0
H1660 H 0.79466 0.98627 0.73086 0.0
H1661 H 0.79674 0.93051 0.72979 0.0
H1662 H 0.74126 0.8983 0.75448 0.0
H1663 H 0.73931 0.95403 0.75569 0.0
H1664 H 0.75943 0.93363 0.77239 0.0
H1665 H 0.93935 0.06528 0.78457 0.0
H1666 H 0.92044 0.13186 0.78446 0.0
H1667 H 0.79842 0.04832 0.75328 0.0
C1668 C 0.83405 0.89443 0.75706 0.0
C1669 C 0.86585 0.88109 0.76434 0.0
C1670 C 0.90587 0.91616 0.77316 0.0
C1671 C 0.91377 0.96342 0.77508 0.0
C1672 C 0.88141 0.97529 0.76804 0.0
C1673 C 0.84264 0.94215 0.75905 0.0
C1674 C 0.81276 0.96441 0.75315 0.0
C1675 C 0.81427 0.96752 0.73506 0.0
C1676 C 0.76007 0.93589 0.7593 0.0
C1677 C 0.84019 1.01468 0.76055 0.0
C1678 C 0.8797 0.02001 0.76906 0.0
C1679 C 0.90925 0.06203 0.77763 0.0
C1680 C 0.89852 0.09989 0.77738 0.0
C1681 C 0.85911 0.096 0.76843 0.0
C1682 C 0.82932 0.05261 0.76 0.0
H1683 H 0.15638 1.00763 0.78263 0.0
H1684 H 0.20865 0.98315 0.73812 0.0
H1685 H 0.13191 0.90553 0.73493 0.0
H1686 H 0.10111 0.88513 0.79553 0.0
H1687 H 0.0498 0.88438 0.8051 0.0
H1688 H 0.1065 0.94067 0.80323 0.0
H1689 H 0.06266 0.98043 0.78883 0.0
H1690 H 1.00611 0.92435 0.79138 0.0
H1691 H 0.0252 0.95024 0.77195 0.0
H1692 H 0.05395 0.82837 0.73735 0.0
H1693 H 0.97948 0.75402 0.74557 0.0
H1694 H 0.9743 0.82544 0.7886 0.0
C1695 C 0.15115 0.98622 0.7721 0.0
C1696 C 0.18834 1.00159 0.76053 0.0
C1697 C 0.18065 0.97221 0.74708 0.0
C1698 C 0.13706 0.92811 0.74514 0.0
C1699 C 0.10133 0.91362 0.75679 0.0
C1700 C 0.10775 0.94157 0.77004 0.0
C1701 C 0.06479 0.91538 0.7813 0.0
C1702 C 0.08157 0.90583 0.79723 0.0
C1703 C 0.03809 0.94433 0.78348 0.0
C1704 C 0.03358 0.86814 0.77237 0.0
C1705 C 0.05552 0.86836 0.7582 0.0
C1706 C 0.03607 0.828 0.74829 0.0
C1707 C 0.99375 0.78589 0.75307 0.0
C1708 C 0.97078 0.78419 0.76759 0.0
C1709 C 0.99045 0.82621 0.77725 0.0
H1710 H 0.23739 0.17708 0.78056 0.0
H1711 H 0.3099 0.26081 0.73872 0.0
H1712 H 0.23614 0.26329 0.73146 0.0
H1713 H 0.1118 0.10798 0.76255 0.0
H1714 H 0.08248 0.11062 0.78048 0.0
H1715 H 0.13842 0.10871 0.78136 0.0
H1716 H 0.17753 0.18766 0.79803 0.0
H1717 H 0.122 0.19009 0.79708 0.0
H1718 H 0.17845 0.24126 0.79047 0.0
H1719 H 0.16054 0.26713 0.73031 0.0
H1720 H 0.08404 0.26824 0.73475 0.0
H1721 H 0.05694 0.18146 0.77703 0.0
C1722 C 0.23698 0.19461 0.76967 0.0
C1723 C 0.27929 0.21868 0.76017 0.0
C1724 C 0.27794 0.24226 0.74618 0.0
C1725 C 0.23612 0.24374 0.74191 0.0
C1726 C 0.19558 0.22139 0.75173 0.0
C1727 C 0.19518 0.19676 0.76524 0.0
C1728 C 0.14762 0.1792 0.77422 0.0
C1729 C 0.11834 0.12331 0.77468 0.0
C1730 C 0.15698 0.20086 0.79093 0.0
C1731 C 0.12262 0.19963 0.76396 0.0
C1732 C 0.15091 0.22332 0.75097 0.0
C1733 C 0.13757 0.24797 0.74029 0.0
C1734 C 0.09419 0.24863 0.74294 0.0
C1735 C 0.06454 0.22478 0.75615 0.0
C1736 C 0.0787 0.19949 0.76671 0.0
H1737 H 0.55852 0.12688 0.60547 0.0
H1738 H 0.58912 0.24778 0.57462 0.0
H1739 H 0.6712 0.25987 0.56922 0.0
H1740 H 0.68104 0.18447 0.62242 0.0
H1741 H 0.68167 0.1281 0.62412 0.0
H1742 H 0.62482 0.1281 0.62526 0.0
H1743 H 0.59057 0.06542 0.60249 0.0
H1744 H 0.64741 0.06547 0.60121 0.0
H1745 H 0.62313 0.07913 0.58401 0.0
H1746 H 0.74707 0.25366 0.5652 0.0
H1747 H 0.81614 0.23807 0.56609 0.0
H1748 H 0.74228 0.12952 0.60238 0.0
C1749 C 0.58266 0.1559 0.59762 0.0
C1750 C 0.5674 0.18623 0.59036 0.0
C1751 C 0.60013 0.22423 0.58032 0.0
C1752 C 0.64674 0.23121 0.57712 0.0
C1753 C 0.66066 0.20055 0.58433 0.0
C1754 C 0.63006 0.16433 0.59465 0.0
C1755 C 0.65511 0.13808 0.60141 0.0
C1756 C 0.66101 0.14512 0.61937 0.0
C1757 C 0.6274 0.08381 0.59701 0.0
C1758 C 0.7041 0.16457 0.59305 0.0
C1759 C 0.70622 0.20001 0.58308 0.0
C1760 C 0.74644 0.22716 0.57336 0.0
C1761 C 0.78595 0.21868 0.57412 0.0
C1762 C 0.78591 0.18466 0.58489 0.0
C1763 C 0.74395 0.15672 0.59429 0.0
H1764 H 0.97085 0.44566 0.59392 0.0
H1765 H 0.83243 0.35041 0.57147 0.0
H1766 H 0.81474 0.41803 0.57035 0.0
H1767 H 0.93079 0.51398 0.61752 0.0
H1768 H 0.98626 0.57114 0.61486 0.0
H1769 H 0.98759 0.51499 0.61423 0.0
H1770 H 0.02794 0.53758 0.58658 0.0
H1771 H 0.02682 0.59383 0.58715 0.0
H1772 H 0.99878 0.55212 0.57098 0.0
H1773 H 0.81169 0.49571 0.57195 0.0
H1774 H 0.82587 0.57954 0.57486 0.0
H1775 H 0.96699 0.62495 0.59547 0.0
C1776 C 0.93685 0.43917 0.58879 0.0
C1777 C 0.9029 0.39296 0.58281 0.0
C1778 C 0.85892 0.38569 0.57608 0.0
C1779 C 0.84851 0.42379 0.57543 0.0
C1780 C 0.8827 0.469 0.58143 0.0
C1781 C 0.92616 0.47701 0.58786 0.0
C1782 C 0.9572 0.52941 0.5931 0.0
C1783 C 0.96595 0.53254 0.61099 0.0
C1784 C 1.00554 0.55472 0.5839 0.0
C1785 C 0.9244 0.54957 0.58861 0.0
C1786 C 0.88139 0.51401 0.58204 0.0
C1787 C 0.84511 0.52378 0.57715 0.0
C1788 C 0.85309 0.57118 0.57904 0.0
C1789 C 0.89688 0.60801 0.58567 0.0
C1790 C 0.93312 0.59718 0.59038 0.0
H1791 H 0.51457 0.30277 0.57438 0.0
H1792 H 0.43315 0.31082 0.61439 0.0
H1793 H 0.50331 0.38924 0.62214 0.0
H1794 H 0.63736 0.36482 0.594 0.0
H1795 H 0.66829 0.39738 0.57637 0.0
H1796 H 0.61441 0.33835 0.57492 0.0
H1797 H 0.57399 0.37426 0.55716 0.0
H1798 H 0.62744 0.4335 0.55853 0.0
H1799 H 0.56882 0.42534 0.56409 0.0
H1800 H 0.57644 0.4701 0.62392 0.0
H1801 H 0.6522 0.54846 0.62058 0.0
H1802 H 0.68945 0.49149 0.57954 0.0
C1803 C 0.51238 0.32046 0.58504 0.0
C1804 C 0.46868 0.30064 0.59391 0.0
C1805 C 0.46639 0.32537 0.6075 0.0
C1806 C 0.50607 0.36992 0.61201 0.0
C1807 C 0.54802 0.38958 0.60278 0.0
C1808 C 0.55192 0.36566 0.58967 0.0
C1809 C 0.60023 0.39716 0.58127 0.0
C1810 C 0.63196 0.37299 0.58167 0.0
C1811 C 0.5921 0.40821 0.56425 0.0
C1812 C 0.62185 0.44278 0.59144 0.0
C1813 C 0.59105 0.43719 0.60384 0.0
C1814 C 0.60128 0.47475 0.61441 0.0
C1815 C 0.64429 0.51925 0.61236 0.0
C1816 C 0.67673 0.52603 0.59985 0.0
C1817 C 0.66543 0.48715 0.58928 0.0
loop_
_geom_bond_atom_site_label_1
_geom_bond_atom_site_label_2
_geom_bond_distance
_geom_bond_site_symmetry_2
_ccdc_geom_bond_type
Tb0 O3 2.453 1_545 S
Tb0 O4 2.596 1_545 S
Tb0 O5 2.374 . S
Tb0 O13 2.343 . S
Tb0 O15 2.353 . S
Tb0 O17 2.427 . S
Tb0 O18 2.513 . S
C1 O5 1.251 1_565 S
C1 O7 1.263 . S
Tb2 O4 2.343 . S
Tb2 O7 2.353 . S
Tb2 O10 2.427 . S
Tb2 O11 2.513 . S
Tb2 O12 2.453 1_565 S
Tb2 O13 2.596 1_565 S
Tb2 O14 2.374 . S
O3 Tb0 2.453 1_565 S
O3 C19 1.245 . S
O4 Tb0 2.596 1_565 S
O4 Tb2 2.343 . S
O4 C19 1.259 . S
O5 Tb0 2.374 . S
O5 C1 1.251 1_545 S
C6 O10 1.275 . S
C6 O11 1.246 . S
O7 C1 1.263 . S
O7 Tb2 2.353 . S
C8 O12 1.245 . S
C8 O13 1.259 . S
C9 O14 1.250 1_545 S
C9 O15 1.263 . S
O10 Tb2 2.427 . S
O10 C6 1.275 . S
O11 Tb2 2.513 . S
O11 C6 1.246 . S
O12 Tb2 2.453 1_545 S
O12 C8 1.245 . S
O13 Tb0 2.343 . S
O13 Tb2 2.596 1_545 S
O13 C8 1.259 . S
O14 Tb2 2.374 . S
O14 C9 1.250 1_565 S
O15 Tb0 2.353 . S
O15 C9 1.263 . S
C16 O17 1.275 . S
C16 O18 1.246 . S
O17 Tb0 2.427 . S
O17 C16 1.275 . S
O18 Tb0 2.513 . S
O18 C16 1.246 . S
C19 O3 1.245 . S
C19 O4 1.259 . S
Tb20 O23 2.453 . S
Tb20 O24 2.596 . S
Tb20 O25 2.374 . S
Tb20 O33 2.343 1_455 S
Tb20 O35 2.353 . S
Tb20 O37 2.427 1_455 S
Tb20 O38 2.513 1_455 S
C21 O25 1.251 . S
C21 O27 1.263 . S
Tb22 O24 2.343 . S
Tb22 O27 2.353 . S
Tb22 O30 2.427 . S
Tb22 O31 2.513 . S
Tb22 O32 2.453 1_455 S
Tb22 O33 2.596 1_455 S
Tb22 O34 2.374 . S
O23 Tb20 2.453 . S
O23 C39 1.245 . S
O24 Tb20 2.596 . S
O24 Tb22 2.343 . S
O24 C39 1.259 . S
O25 Tb20 2.374 . S
O25 C21 1.251 . S
C26 O30 1.275 . S
C26 O31 1.246 . S
O27 C21 1.263 . S
O27 Tb22 2.353 . S
C28 O32 1.245 . S
C28 O33 1.259 . S
C29 O34 1.250 . S
C29 O35 1.263 . S
O30 Tb22 2.427 . S
O30 C26 1.275 . S
O31 Tb22 2.513 . S
O31 C26 1.246 . S
O32 Tb22 2.453 1_655 S
O32 C28 1.245 . S
O33 Tb20 2.343 1_655 S
O33 Tb22 2.596 1_655 S
O33 C28 1.259 . S
O34 Tb22 2.374 . S
O34 C29 1.250 . S
O35 Tb20 2.353 . S
O35 C29 1.263 . S
C36 O37 1.275 . S
C36 O38 1.246 . S
O37 Tb20 2.427 1_655 S
O37 C36 1.275 . S
O38 Tb20 2.513 1_655 S
O38 C36 1.246 . S
C39 O23 1.245 . S
C39 O24 1.259 . S
Tb40 O43 2.453 . S
Tb40 O44 2.596 . S
Tb40 O45 2.374 . S
Tb40 O53 2.343 . S
Tb40 O55 2.353 . S
Tb40 O57 2.427 . S
Tb40 O58 2.513 . S
C41 O45 1.251 . S
C41 O47 1.263 . S
Tb42 O44 2.343 . S
Tb42 O47 2.353 . S
Tb42 O50 2.427 . S
Tb42 O51 2.513 . S
Tb42 O52 2.453 . S
Tb42 O53 2.596 . S
Tb42 O54 2.374 . S
O43 Tb40 2.453 . S
O43 C59 1.245 . S
O44 Tb40 2.596 . S
O44 Tb42 2.343 . S
O44 C59 1.259 . S
O45 Tb40 2.374 . S
O45 C41 1.251 . S
C46 O50 1.275 . S
C46 O51 1.246 . S
O47 C41 1.263 . S
O47 Tb42 2.353 . S
C48 O52 1.245 . S
C48 O53 1.259 . S
C49 O54 1.250 . S
C49 O55 1.263 . S
O50 Tb42 2.427 . S
O50 C46 1.275 . S
O51 Tb42 2.513 . S
O51 C46 1.246 . S
O52 Tb42 2.453 . S
O52 C48 1.245 . S
O53 Tb40 2.343 . S
O53 Tb42 2.596 . S
O53 C48 1.259 . S
O54 Tb42 2.374 . S
O54 C49 1.250 . S
O55 Tb40 2.353 . S
O55 C49 1.263 . S
C56 O57 1.275 . S
C56 O58 1.246 . S
O57 Tb40 2.427 . S
O57 C56 1.275 . S
O58 Tb40 2.513 . S
O58 C56 1.246 . S
C59 O43 1.245 . S
C59 O44 1.259 . S
Tb60 O63 2.453 1_455 S
Tb60 O64 2.596 1_455 S
Tb60 O65 2.374 . S
Tb60 O73 2.343 . S
Tb60 O75 2.353 . S
Tb60 O77 2.427 . S
Tb60 O78 2.513 . S
C61 O65 1.251 1_655 S
C61 O67 1.263 . S
Tb62 O64 2.343 . S
Tb62 O67 2.353 . S
Tb62 O70 2.427 . S
Tb62 O71 2.513 . S
Tb62 O72 2.453 1_655 S
Tb62 O73 2.596 1_655 S
Tb62 O74 2.374 . S
O63 Tb60 2.453 1_655 S
O63 C79 1.245 . S
O64 Tb60 2.596 1_655 S
O64 Tb62 2.343 . S
O64 C79 1.259 . S
O65 Tb60 2.374 . S
O65 C61 1.251 1_455 S
C66 O70 1.275 . S
C66 O71 1.246 . S
O67 C61 1.263 . S
O67 Tb62 2.353 . S
C68 O72 1.245 . S
C68 O73 1.259 . S
C69 O74 1.250 1_455 S
C69 O75 1.263 . S
O70 Tb62 2.427 . S
O70 C66 1.275 . S
O71 Tb62 2.513 . S
O71 C66 1.246 . S
O72 Tb62 2.453 1_455 S
O72 C68 1.245 . S
O73 Tb60 2.343 . S
O73 Tb62 2.596 1_455 S
O73 C68 1.259 . S
O74 Tb62 2.374 . S
O74 C69 1.250 1_655 S
O75 Tb60 2.353 . S
O75 C69 1.263 . S
C76 O77 1.275 . S
C76 O78 1.246 . S
O77 Tb60 2.427 . S
O77 C76 1.275 . S
O78 Tb60 2.513 . S
O78 C76 1.246 . S
C79 O63 1.245 . S
C79 O64 1.259 . S
Tb80 O83 2.453 . S
Tb80 O84 2.596 . S
Tb80 O85 2.374 . S
Tb80 O93 2.343 . S
Tb80 O95 2.353 . S
Tb80 O97 2.427 . S
Tb80 O98 2.513 . S
C81 O85 1.251 . S
C81 O87 1.263 . S
Tb82 O84 2.343 . S
Tb82 O87 2.353 . S
Tb82 O90 2.427 . S
Tb82 O91 2.513 . S
Tb82 O92 2.453 . S
Tb82 O93 2.596 . S
Tb82 O94 2.374 . S
O83 Tb80 2.453 . S
O83 C99 1.245 . S
O84 Tb80 2.596 . S
O84 Tb82 2.343 . S
O84 C99 1.259 . S
O85 Tb80 2.374 . S
O85 C81 1.251 . S
C86 O90 1.275 . S
C86 O91 1.246 . S
O87 C81 1.263 . S
O87 Tb82 2.353 . S
C88 O92 1.245 . S
C88 O93 1.259 . S
C89 O94 1.250 . S
C89 O95 1.263 . S
O90 Tb82 2.427 . S
O90 C86 1.275 . S
O91 Tb82 2.513 . S
O91 C86 1.246 . S
O92 Tb82 2.453 . S
O92 C88 1.245 . S
O93 Tb80 2.343 . S
O93 Tb82 2.596 . S
O93 C88 1.259 . S
O94 Tb82 2.374 . S
O94 C89 1.250 . S
O95 Tb80 2.353 . S
O95 C89 1.263 . S
C96 O97 1.275 . S
C96 O98 1.246 . S
O97 Tb80 2.427 . S
O97 C96 1.275 . S
O98 Tb80 2.513 . S
O98 C96 1.246 . S
C99 O83 1.245 . S
C99 O84 1.259 . S
Tb100 O103 2.453 . S
Tb100 O104 2.596 . S
Tb100 O105 2.374 . S
Tb100 O113 2.343 1_545 S
Tb100 O115 2.353 . S
Tb100 O117 2.427 1_545 S
Tb100 O118 2.513 1_545 S
C101 O105 1.251 . S
C101 O107 1.263 . S
Tb102 O104 2.343 . S
Tb102 O107 2.353 . S
Tb102 O110 2.427 . S
Tb102 O111 2.513 . S
Tb102 O112 2.453 1_545 S
Tb102 O113 2.596 1_545 S
Tb102 O114 2.374 . S
O103 Tb100 2.453 . S
O103 C119 1.245 . S
O104 Tb100 2.596 . S
O104 Tb102 2.343 . S
O104 C119 1.259 . S
O105 Tb100 2.374 . S
O105 C101 1.251 . S
C106 O110 1.275 . S
C106 O111 1.246 . S
O107 C101 1.263 . S
O107 Tb102 2.353 . S
C108 O112 1.245 . S
C108 O113 1.259 . S
C109 O114 1.250 . S
C109 O115 1.263 . S
O110 Tb102 2.427 . S
O110 C106 1.275 . S
O111 Tb102 2.513 . S
O111 C106 1.246 . S
O112 Tb102 2.453 1_565 S
O112 C108 1.245 . S
O113 Tb100 2.343 1_565 S
O113 Tb102 2.596 1_565 S
O113 C108 1.259 . S
O114 Tb102 2.374 . S
O114 C109 1.250 . S
O115 Tb100 2.353 . S
O115 C109 1.263 . S
C116 O117 1.275 . S
C116 O118 1.246 . S
O117 Tb100 2.427 1_565 S
O117 C116 1.275 . S
O118 Tb100 2.513 1_565 S
O118 C116 1.246 . S
C119 O103 1.245 . S
C119 O104 1.259 . S
Tb120 O123 2.453 . S
Tb120 O124 2.596 . S
Tb120 O125 2.374 . S
Tb120 O133 2.343 . S
Tb120 O135 2.353 . S
Tb120 O137 2.427 . S
Tb120 O138 2.513 . S
C121 O125 1.251 . S
C121 O127 1.263 . S
Tb122 O124 2.343 . S
Tb122 O127 2.353 . S
Tb122 O130 2.427 . S
Tb122 O131 2.513 . S
Tb122 O132 2.453 . S
Tb122 O133 2.596 . S
Tb122 O134 2.374 . S
O123 Tb120 2.453 . S
O123 C139 1.245 . S
O124 Tb120 2.596 . S
O124 Tb122 2.343 . S
O124 C139 1.259 . S
O125 Tb120 2.374 . S
O125 C121 1.251 . S
C126 O130 1.275 . S
C126 O131 1.246 . S
O127 C121 1.263 . S
O127 Tb122 2.353 . S
C128 O132 1.245 . S
C128 O133 1.259 . S
C129 O134 1.250 . S
C129 O135 1.263 . S
O130 Tb122 2.427 . S
O130 C126 1.275 . S
O131 Tb122 2.513 . S
O131 C126 1.246 . S
O132 Tb122 2.453 . S
O132 C128 1.245 . S
O133 Tb120 2.343 . S
O133 Tb122 2.596 . S
O133 C128 1.259 . S
O134 Tb122 2.374 . S
O134 C129 1.250 . S
O135 Tb120 2.353 . S
O135 C129 1.263 . S
C136 O137 1.275 . S
C136 O138 1.246 . S
O137 Tb120 2.427 . S
O137 C136 1.275 . S
O138 Tb120 2.513 . S
O138 C136 1.246 . S
C139 O123 1.245 . S
C139 O124 1.259 . S
Tb140 O143 2.453 . S
Tb140 O144 2.596 . S
Tb140 O145 2.374 . S
Tb140 O153 2.343 . S
Tb140 O155 2.353 . S
Tb140 O157 2.427 . S
Tb140 O158 2.513 . S
C141 O145 1.251 . S
C141 O147 1.263 . S
Tb142 O144 2.343 . S
Tb142 O147 2.353 . S
Tb142 O150 2.427 . S
Tb142 O151 2.513 . S
Tb142 O152 2.453 . S
Tb142 O153 2.596 . S
Tb142 O154 2.374 . S
O143 Tb140 2.453 . S
O143 C159 1.245 . S
O144 Tb140 2.596 . S
O144 Tb142 2.343 . S
O144 C159 1.259 . S
O145 Tb140 2.374 . S
O145 C141 1.251 . S
C146 O150 1.275 . S
C146 O151 1.246 . S
O147 C141 1.263 . S
O147 Tb142 2.353 . S
C148 O152 1.245 . S
C148 O153 1.259 . S
C149 O154 1.250 . S
C149 O155 1.263 . S
O150 Tb142 2.427 . S
O150 C146 1.275 . S
O151 Tb142 2.513 . S
O151 C146 1.246 . S
O152 Tb142 2.453 . S
O152 C148 1.245 . S
O153 Tb140 2.343 . S
O153 Tb142 2.596 . S
O153 C148 1.259 . S
O154 Tb142 2.374 . S
O154 C149 1.250 . S
O155 Tb140 2.353 . S
O155 C149 1.263 . S
C156 O157 1.275 . S
C156 O158 1.246 . S
O157 Tb140 2.427 . S
O157 C156 1.275 . S
O158 Tb140 2.513 . S
O158 C156 1.246 . S
C159 O143 1.245 . S
C159 O144 1.259 . S
Tb160 O163 2.453 . S
Tb160 O164 2.596 . S
Tb160 O165 2.374 . S
Tb160 O173 2.343 . S
Tb160 O175 2.353 . S
Tb160 O177 2.427 . S
Tb160 O178 2.513 . S
C161 O165 1.251 . S
C161 O167 1.263 . S
Tb162 O164 2.343 . S
Tb162 O167 2.353 . S
Tb162 O170 2.427 . S
Tb162 O171 2.513 . S
Tb162 O172 2.453 . S
Tb162 O173 2.596 . S
Tb162 O174 2.374 . S
O163 Tb160 2.453 . S
O163 C179 1.245 . S
O164 Tb160 2.596 . S
O164 Tb162 2.343 . S
O164 C179 1.259 . S
O165 Tb160 2.374 . S
O165 C161 1.251 . S
C166 O170 1.275 . S
C166 O171 1.246 . S
O167 C161 1.263 . S
O167 Tb162 2.353 . S
C168 O172 1.245 . S
C168 O173 1.259 . S
C169 O174 1.250 . S
C169 O175 1.263 . S
O170 Tb162 2.427 . S
O170 C166 1.275 . S
O171 Tb162 2.513 . S
O171 C166 1.246 . S
O172 Tb162 2.453 . S
O172 C168 1.245 . S
O173 Tb160 2.343 . S
O173 Tb162 2.596 . S
O173 C168 1.259 . S
O174 Tb162 2.374 . S
O174 C169 1.250 . S
O175 Tb160 2.353 . S
O175 C169 1.263 . S
C176 O177 1.275 . S
C176 O178 1.246 . S
O177 Tb160 2.427 . S
O177 C176 1.275 . S
O178 Tb160 2.513 . S
O178 C176 1.246 . S
C179 O163 1.245 . S
C179 O164 1.259 . S
Tb180 O183 2.453 . S
Tb180 O184 2.596 . S
Tb180 O185 2.374 . S
Tb180 O193 2.343 . S
Tb180 O195 2.353 . S
Tb180 O197 2.427 . S
Tb180 O198 2.513 . S
C181 O185 1.251 . S
C181 O187 1.263 . S
Tb182 O184 2.343 . S
Tb182 O187 2.353 . S
Tb182 O190 2.427 . S
Tb182 O191 2.513 . S
Tb182 O192 2.453 . S
Tb182 O193 2.596 . S
Tb182 O194 2.374 . S
O183 Tb180 2.453 . S
O183 C199 1.245 . S
O184 Tb180 2.596 . S
O184 Tb182 2.343 . S
O184 C199 1.259 . S
O185 Tb180 2.374 . S
O185 C181 1.251 . S
C186 O190 1.275 . S
C186 O191 1.246 . S
O187 C181 1.263 . S
O187 Tb182 2.353 . S
C188 O192 1.245 . S
C188 O193 1.259 . S
C189 O194 1.250 . S
C189 O195 1.263 . S
O190 Tb182 2.427 . S
O190 C186 1.275 . S
O191 Tb182 2.513 . S
O191 C186 1.246 . S
O192 Tb182 2.453 . S
O192 C188 1.245 . S
O193 Tb180 2.343 . S
O193 Tb182 2.596 . S
O193 C188 1.259 . S
O194 Tb182 2.374 . S
O194 C189 1.250 . S
O195 Tb180 2.353 . S
O195 C189 1.263 . S
C196 O197 1.275 . S
C196 O198 1.246 . S
O197 Tb180 2.427 . S
O197 C196 1.275 . S
O198 Tb180 2.513 . S
O198 C196 1.246 . S
C199 O183 1.245 . S
C199 O184 1.259 . S
Tb200 O203 2.453 . S
Tb200 O204 2.596 . S
Tb200 O205 2.374 . S
Tb200 O213 2.343 . S
Tb200 O215 2.353 . S
Tb200 O217 2.427 . S
Tb200 O218 2.513 . S
C201 O205 1.251 . S
C201 O207 1.263 . S
Tb202 O204 2.343 . S
Tb202 O207 2.353 . S
Tb202 O210 2.427 . S
Tb202 O211 2.513 . S
Tb202 O212 2.453 . S
Tb202 O213 2.596 . S
Tb202 O214 2.374 . S
O203 Tb200 2.453 . S
O203 C219 1.245 . S
O204 Tb200 2.596 . S
O204 Tb202 2.343 . S
O204 C219 1.259 . S
O205 Tb200 2.374 . S
O205 C201 1.251 . S
C206 O210 1.275 . S
C206 O211 1.246 . S
O207 C201 1.263 . S
O207 Tb202 2.353 . S
C208 O212 1.245 . S
C208 O213 1.259 . S
C209 O214 1.250 . S
C209 O215 1.263 . S
O210 Tb202 2.427 . S
O210 C206 1.275 . S
O211 Tb202 2.513 . S
O211 C206 1.246 . S
O212 Tb202 2.453 . S
O212 C208 1.245 . S
O213 Tb200 2.343 . S
O213 Tb202 2.596 . S
O213 C208 1.259 . S
O214 Tb202 2.374 . S
O214 C209 1.250 . S
O215 Tb200 2.353 . S
O215 C209 1.263 . S
C216 O217 1.275 . S
C216 O218 1.246 . S
O217 Tb200 2.427 . S
O217 C216 1.275 . S
O218 Tb200 2.513 . S
O218 C216 1.246 . S
C219 O203 1.245 . S
C219 O204 1.259 . S
Tb220 O223 2.453 . S
Tb220 O224 2.596 . S
Tb220 O225 2.374 . S
Tb220 O233 2.343 . S
Tb220 O235 2.353 . S
Tb220 O237 2.427 . S
Tb220 O238 2.513 . S
C221 O225 1.251 . S
C221 O227 1.263 . S
Tb222 O224 2.343 . S
Tb222 O227 2.353 . S
Tb222 O230 2.427 . S
Tb222 O231 2.513 . S
Tb222 O232 2.453 . S
Tb222 O233 2.596 . S
Tb222 O234 2.374 . S
O223 Tb220 2.453 . S
O223 C239 1.245 . S
O224 Tb220 2.596 . S
O224 Tb222 2.343 . S
O224 C239 1.259 . S
O225 Tb220 2.374 . S
O225 C221 1.251 . S
C226 O230 1.275 . S
C226 O231 1.246 . S
O227 C221 1.263 . S
O227 Tb222 2.353 . S
C228 O232 1.245 . S
C228 O233 1.259 . S
C229 O234 1.250 . S
C229 O235 1.263 . S
O230 Tb222 2.427 . S
O230 C226 1.275 . S
O231 Tb222 2.513 . S
O231 C226 1.246 . S
O232 Tb222 2.453 . S
O232 C228 1.245 . S
O233 Tb220 2.343 . S
O233 Tb222 2.596 . S
O233 C228 1.259 . S
O234 Tb222 2.374 . S
O234 C229 1.250 . S
O235 Tb220 2.353 . S
O235 C229 1.263 . S
C236 O237 1.275 . S
C236 O238 1.246 . S
O237 Tb220 2.427 . S
O237 C236 1.275 . S
O238 Tb220 2.513 . S
O238 C236 1.246 . S
C239 O223 1.245 . S
C239 O224 1.259 . S
Tb240 O243 2.453 . S
Tb240 O244 2.596 . S
Tb240 O245 2.374 . S
Tb240 O253 2.343 . S
Tb240 O255 2.353 . S
Tb240 O257 2.427 . S
Tb240 O258 2.513 . S
C241 O245 1.251 . S
C241 O247 1.263 . S
Tb242 O244 2.343 . S
Tb242 O247 2.353 . S
Tb242 O250 2.427 . S
Tb242 O251 2.513 . S
Tb242 O252 2.453 . S
Tb242 O253 2.596 . S
Tb242 O254 2.374 . S
O243 Tb240 2.453 . S
O243 C259 1.245 . S
O244 Tb240 2.596 . S
O244 Tb242 2.343 . S
O244 C259 1.259 . S
O245 Tb240 2.374 . S
O245 C241 1.251 . S
C246 O250 1.275 . S
C246 O251 1.246 . S
O247 C241 1.263 . S
O247 Tb242 2.353 . S
C248 O252 1.245 . S
C248 O253 1.259 . S
C249 O254 1.250 . S
C249 O255 1.263 . S
O250 Tb242 2.427 . S
O250 C246 1.275 . S
O251 Tb242 2.513 . S
O251 C246 1.246 . S
O252 Tb242 2.453 . S
O252 C248 1.245 . S
O253 Tb240 2.343 . S
O253 Tb242 2.596 . S
O253 C248 1.259 . S
O254 Tb242 2.374 . S
O254 C249 1.250 . S
O255 Tb240 2.353 . S
O255 C249 1.263 . S
C256 O257 1.275 . S
C256 O258 1.246 . S
O257 Tb240 2.427 . S
O257 C256 1.275 . S
O258 Tb240 2.513 . S
O258 C256 1.246 . S
C259 O243 1.245 . S
C259 O244 1.259 . S
Tb260 O263 2.453 . S
Tb260 O264 2.596 . S
Tb260 O265 2.374 . S
Tb260 O273 2.343 . S
Tb260 O275 2.353 . S
Tb260 O277 2.427 . S
Tb260 O278 2.513 . S
C261 O265 1.251 . S
C261 O267 1.263 . S
Tb262 O264 2.343 . S
Tb262 O267 2.353 . S
Tb262 O270 2.427 . S
Tb262 O271 2.513 . S
Tb262 O272 2.453 . S
Tb262 O273 2.596 . S
Tb262 O274 2.374 . S
O263 Tb260 2.453 . S
O263 C279 1.245 . S
O264 Tb260 2.596 . S
O264 Tb262 2.343 . S
O264 C279 1.259 . S
O265 Tb260 2.374 . S
O265 C261 1.251 . S
C266 O270 1.275 . S
C266 O271 1.246 . S
O267 C261 1.263 . S
O267 Tb262 2.353 . S
C268 O272 1.245 . S
C268 O273 1.259 . S
C269 O274 1.250 . S
C269 O275 1.263 . S
O270 Tb262 2.427 . S
O270 C266 1.275 . S
O271 Tb262 2.513 . S
O271 C266 1.246 . S
O272 Tb262 2.453 . S
O272 C268 1.245 . S
O273 Tb260 2.343 . S
O273 Tb262 2.596 . S
O273 C268 1.259 . S
O274 Tb262 2.374 . S
O274 C269 1.250 . S
O275 Tb260 2.353 . S
O275 C269 1.263 . S
C276 O277 1.275 . S
C276 O278 1.246 . S
O277 Tb260 2.427 . S
O277 C276 1.275 . S
O278 Tb260 2.513 . S
O278 C276 1.246 . S
C279 O263 1.245 . S
C279 O264 1.259 . S
Tb280 O283 2.453 . S
Tb280 O284 2.596 . S
Tb280 O285 2.374 . S
Tb280 O293 2.343 . S
Tb280 O295 2.353 . S
Tb280 O297 2.427 . S
Tb280 O298 2.513 . S
C281 O285 1.251 . S
C281 O287 1.263 . S
Tb282 O284 2.343 . S
Tb282 O287 2.353 . S
Tb282 O290 2.427 . S
Tb282 O291 2.513 . S
Tb282 O292 2.453 . S
Tb282 O293 2.596 . S
Tb282 O294 2.374 . S
O283 Tb280 2.453 . S
O283 C299 1.245 . S
O284 Tb280 2.596 . S
O284 Tb282 2.343 . S
O284 C299 1.259 . S
O285 Tb280 2.374 . S
O285 C281 1.251 . S
C286 O290 1.275 . S
C286 O291 1.246 . S
O287 C281 1.263 . S
O287 Tb282 2.353 . S
C288 O292 1.245 . S
C288 O293 1.259 . S
C289 O294 1.250 . S
C289 O295 1.263 . S
O290 Tb282 2.427 . S
O290 C286 1.275 . S
O291 Tb282 2.513 . S
O291 C286 1.246 . S
O292 Tb282 2.453 . S
O292 C288 1.245 . S
O293 Tb280 2.343 . S
O293 Tb282 2.596 . S
O293 C288 1.259 . S
O294 Tb282 2.374 . S
O294 C289 1.250 . S
O295 Tb280 2.353 . S
O295 C289 1.263 . S
C296 O297 1.275 . S
C296 O298 1.246 . S
O297 Tb280 2.427 . S
O297 C296 1.275 . S
O298 Tb280 2.513 . S
O298 C296 1.246 . S
C299 O283 1.245 . S
C299 O284 1.259 . S
Tb300 O303 2.453 . S
Tb300 O304 2.596 . S
Tb300 O305 2.374 . S
Tb300 O313 2.343 . S
Tb300 O315 2.353 . S
Tb300 O317 2.427 . S
Tb300 O318 2.513 . S
C301 O305 1.251 . S
C301 O307 1.263 . S
Tb302 O304 2.343 . S
Tb302 O307 2.353 . S
Tb302 O310 2.427 . S
Tb302 O311 2.513 . S
Tb302 O312 2.453 . S
Tb302 O313 2.596 . S
Tb302 O314 2.374 . S
O303 Tb300 2.453 . S
O303 C319 1.245 . S
O304 Tb300 2.596 . S
O304 Tb302 2.343 . S
O304 C319 1.259 . S
O305 Tb300 2.374 . S
O305 C301 1.251 . S
C306 O310 1.275 . S
C306 O311 1.246 . S
O307 C301 1.263 . S
O307 Tb302 2.353 . S
C308 O312 1.245 . S
C308 O313 1.259 . S
C309 O314 1.250 . S
C309 O315 1.263 . S
O310 Tb302 2.427 . S
O310 C306 1.275 . S
O311 Tb302 2.513 . S
O311 C306 1.246 . S
O312 Tb302 2.453 . S
O312 C308 1.245 . S
O313 Tb300 2.343 . S
O313 Tb302 2.596 . S
O313 C308 1.259 . S
O314 Tb302 2.374 . S
O314 C309 1.250 . S
O315 Tb300 2.353 . S
O315 C309 1.263 . S
C316 O317 1.275 . S
C316 O318 1.246 . S
O317 Tb300 2.427 . S
O317 C316 1.275 . S
O318 Tb300 2.513 . S
O318 C316 1.246 . S
C319 O303 1.245 . S
C319 O304 1.259 . S
Tb320 O323 2.453 . S
Tb320 O324 2.596 . S
Tb320 O325 2.374 . S
Tb320 O333 2.343 . S
Tb320 O335 2.353 . S
Tb320 O337 2.427 . S
Tb320 O338 2.513 . S
C321 O325 1.251 . S
C321 O327 1.263 . S
Tb322 O324 2.343 . S
Tb322 O327 2.353 . S
Tb322 O330 2.427 . S
Tb322 O331 2.513 . S
Tb322 O332 2.453 . S
Tb322 O333 2.596 . S
Tb322 O334 2.374 . S
O323 Tb320 2.453 . S
O323 C339 1.245 . S
O324 Tb320 2.596 . S
O324 Tb322 2.343 . S
O324 C339 1.259 . S
O325 Tb320 2.374 . S
O325 C321 1.251 . S
C326 O330 1.275 . S
C326 O331 1.246 . S
O327 C321 1.263 . S
O327 Tb322 2.353 . S
C328 O332 1.245 . S
C328 O333 1.259 . S
C329 O334 1.250 . S
C329 O335 1.263 . S
O330 Tb322 2.427 . S
O330 C326 1.275 . S
O331 Tb322 2.513 . S
O331 C326 1.246 . S
O332 Tb322 2.453 . S
O332 C328 1.245 . S
O333 Tb320 2.343 . S
O333 Tb322 2.596 . S
O333 C328 1.259 . S
O334 Tb322 2.374 . S
O334 C329 1.250 . S
O335 Tb320 2.353 . S
O335 C329 1.263 . S
C336 O337 1.275 . S
C336 O338 1.246 . S
O337 Tb320 2.427 . S
O337 C336 1.275 . S
O338 Tb320 2.513 . S
O338 C336 1.246 . S
C339 O323 1.245 . S
C339 O324 1.259 . S
Tb340 O343 2.453 . S
Tb340 O344 2.596 . S
Tb340 O345 2.374 . S
Tb340 O353 2.343 . S
Tb340 O355 2.353 . S
Tb340 O357 2.427 . S
Tb340 O358 2.513 . S
C341 O345 1.251 . S
C341 O347 1.263 . S
Tb342 O344 2.343 . S
Tb342 O347 2.353 . S
Tb342 O350 2.427 . S
Tb342 O351 2.513 . S
Tb342 O352 2.453 . S
Tb342 O353 2.596 . S
Tb342 O354 2.374 . S
O343 Tb340 2.453 . S
O343 C359 1.245 . S
O344 Tb340 2.596 . S
O344 Tb342 2.343 . S
O344 C359 1.259 . S
O345 Tb340 2.374 . S
O345 C341 1.251 . S
C346 O350 1.275 . S
C346 O351 1.246 . S
O347 C341 1.263 . S
O347 Tb342 2.353 . S
C348 O352 1.245 . S
C348 O353 1.259 . S
C349 O354 1.250 . S
C349 O355 1.263 . S
O350 Tb342 2.427 . S
O350 C346 1.275 . S
O351 Tb342 2.513 . S
O351 C346 1.246 . S
O352 Tb342 2.453 . S
O352 C348 1.245 . S
O353 Tb340 2.343 . S
O353 Tb342 2.596 . S
O353 C348 1.259 . S
O354 Tb342 2.374 . S
O354 C349 1.250 . S
O355 Tb340 2.353 . S
O355 C349 1.263 . S
C356 O357 1.275 . S
C356 O358 1.246 . S
O357 Tb340 2.427 . S
O357 C356 1.275 . S
O358 Tb340 2.513 . S
O358 C356 1.246 . S
C359 O343 1.245 . S
C359 O344 1.259 . S
H360 C372 0.930 . S
H361 C374 0.930 . S
H362 C375 0.930 . S
H363 C379 0.959 . S
H364 C379 0.959 . S
H365 C379 0.961 . S
H366 C380 0.960 . S
H367 C380 0.961 . S
H368 C380 0.959 . S
H369 C383 0.929 . S
H370 C384 0.931 . S
H371 C386 0.930 . S
C372 H360 0.930 . S
C372 C373 1.399 . S
C372 C377 1.399 . S
C373 C372 1.399 . S
C373 C374 1.376 . S
C374 H361 0.930 . S
C374 C373 1.376 . S
C374 C375 1.388 . S
C375 H362 0.930 . S
C375 C374 1.388 . S
C375 C376 1.390 . S
C376 C375 1.390 . S
C376 C377 1.394 . S
C376 C382 1.465 . S
C377 C372 1.399 . S
C377 C376 1.394 . S
C377 C378 1.516 . S
C378 C377 1.516 . S
C378 C379 1.502 . S
C378 C380 1.561 . S
C378 C381 1.526 . S
C379 H363 0.959 . S
C379 H364 0.959 . S
C379 H365 0.961 . S
C379 C378 1.502 . S
C380 H366 0.960 . S
C380 H367 0.961 . S
C380 H368 0.959 . S
C380 C378 1.561 . S
C381 C378 1.526 . S
C381 C382 1.396 . S
C381 C386 1.390 . S
C382 C376 1.465 . S
C382 C381 1.396 . S
C382 C383 1.399 . S
C383 H369 0.929 . S
C383 C382 1.399 . S
C383 C384 1.385 . S
C384 H370 0.931 . S
C384 C383 1.385 . S
C384 C385 1.389 . S
C385 C384 1.389 . S
C385 C386 1.387 . S
C386 H371 0.930 . S
C386 C381 1.390 . S
C386 C385 1.387 . S
H387 C399 0.930 . S
H388 C401 0.930 . S
H389 C402 0.930 . S
H390 C406 0.959 . S
H391 C406 0.959 . S
H392 C406 0.961 . S
H393 C407 0.960 . S
H394 C407 0.961 . S
H395 C407 0.959 . S
H396 C410 0.929 . S
H397 C411 0.931 . S
H398 C413 0.930 . S
C399 H387 0.930 . S
C399 C400 1.399 . S
C399 C404 1.399 . S
C400 C399 1.399 . S
C400 C401 1.376 . S
C401 H388 0.930 . S
C401 C400 1.376 . S
C401 C402 1.388 . S
C402 H389 0.930 . S
C402 C401 1.388 . S
C402 C403 1.390 . S
C403 C402 1.390 . S
C403 C404 1.394 . S
C403 C409 1.465 . S
C404 C399 1.399 . S
C404 C403 1.394 . S
C404 C405 1.516 . S
C405 C404 1.516 . S
C405 C406 1.502 . S
C405 C407 1.561 . S
C405 C408 1.526 . S
C406 H390 0.959 . S
C406 H391 0.959 . S
C406 H392 0.961 . S
C406 C405 1.502 . S
C407 H393 0.960 . S
C407 H394 0.961 . S
C407 H395 0.959 . S
C407 C405 1.561 . S
C408 C405 1.526 . S
C408 C409 1.396 . S
C408 C413 1.390 . S
C409 C403 1.465 . S
C409 C408 1.396 . S
C409 C410 1.399 . S
C410 H396 0.929 . S
C410 C409 1.399 . S
C410 C411 1.385 . S
C411 H397 0.931 . S
C411 C410 1.385 . S
C411 C412 1.389 . S
C412 C411 1.389 . S
C412 C413 1.387 . S
C413 H398 0.930 . S
C413 C408 1.390 . S
C413 C412 1.387 . S
H414 C426 0.930 . S
H415 C428 0.930 . S
H416 C429 0.930 . S
H417 C433 0.959 . S
H418 C433 0.959 . S
H419 C433 0.961 . S
H420 C434 0.960 . S
H421 C434 0.961 . S
H422 C434 0.959 . S
H423 C437 0.929 . S
H424 C438 0.931 . S
H425 C440 0.930 . S
C426 H414 0.930 . S
C426 C427 1.399 . S
C426 C431 1.399 . S
C427 C426 1.399 . S
C427 C428 1.376 . S
C428 H415 0.930 . S
C428 C427 1.376 . S
C428 C429 1.388 . S
C429 H416 0.930 . S
C429 C428 1.388 . S
C429 C430 1.390 . S
C430 C429 1.390 . S
C430 C431 1.394 . S
C430 C436 1.465 . S
C431 C426 1.399 . S
C431 C430 1.394 . S
C431 C432 1.516 . S
C432 C431 1.516 . S
C432 C433 1.502 . S
C432 C434 1.561 . S
C432 C435 1.526 . S
C433 H417 0.959 . S
C433 H418 0.959 . S
C433 H419 0.961 . S
C433 C432 1.502 . S
C434 H420 0.960 . S
C434 H421 0.961 . S
C434 H422 0.959 . S
C434 C432 1.561 . S
C435 C432 1.526 . S
C435 C436 1.396 . S
C435 C440 1.390 . S
C436 C430 1.465 . S
C436 C435 1.396 . S
C436 C437 1.399 . S
C437 H423 0.929 . S
C437 C436 1.399 . S
C437 C438 1.385 . S
C438 H424 0.931 . S
C438 C437 1.385 . S
C438 C439 1.389 . S
C439 C438 1.389 . S
C439 C440 1.387 . S
C440 H425 0.930 . S
C440 C435 1.390 . S
C440 C439 1.387 . S
H441 C453 0.930 . S
H442 C455 0.930 . S
H443 C456 0.930 . S
H444 C460 0.959 . S
H445 C460 0.959 . S
H446 C460 0.961 . S
H447 C461 0.960 . S
H448 C461 0.961 . S
H449 C461 0.959 . S
H450 C464 0.929 . S
H451 C465 0.931 . S
H452 C467 0.930 . S
C453 H441 0.930 . S
C453 C454 1.399 . S
C453 C458 1.399 . S
C454 C453 1.399 . S
C454 C455 1.376 . S
C455 H442 0.930 . S
C455 C454 1.376 . S
C455 C456 1.388 . S
C456 H443 0.930 . S
C456 C455 1.388 . S
C456 C457 1.390 . S
C457 C456 1.390 . S
C457 C458 1.394 . S
C457 C463 1.465 . S
C458 C453 1.399 . S
C458 C457 1.394 . S
C458 C459 1.516 . S
C459 C458 1.516 . S
C459 C460 1.502 . S
C459 C461 1.561 . S
C459 C462 1.526 . S
C460 H444 0.959 . S
C460 H445 0.959 . S
C460 H446 0.961 . S
C460 C459 1.502 . S
C461 H447 0.960 . S
C461 H448 0.961 . S
C461 H449 0.959 . S
C461 C459 1.561 . S
C462 C459 1.526 . S
C462 C463 1.396 . S
C462 C467 1.390 . S
C463 C457 1.465 . S
C463 C462 1.396 . S
C463 C464 1.399 . S
C464 H450 0.929 . S
C464 C463 1.399 . S
C464 C465 1.385 . S
C465 H451 0.931 . S
C465 C464 1.385 . S
C465 C466 1.389 . S
C466 C465 1.389 . S
C466 C467 1.387 . S
C467 H452 0.930 . S
C467 C462 1.390 . S
C467 C466 1.387 . S
H468 C480 0.930 . S
H469 C482 0.930 . S
H470 C483 0.930 . S
H471 C487 0.959 . S
H472 C487 0.959 . S
H473 C487 0.961 . S
H474 C488 0.960 . S
H475 C488 0.961 . S
H476 C488 0.959 . S
H477 C491 0.929 . S
H478 C492 0.931 . S
H479 C494 0.930 . S
C480 H468 0.930 . S
C480 C481 1.399 . S
C480 C485 1.399 . S
C481 C480 1.399 . S
C481 C482 1.376 . S
C482 H469 0.930 . S
C482 C481 1.376 . S
C482 C483 1.388 . S
C483 H470 0.930 . S
C483 C482 1.388 . S
C483 C484 1.390 . S
C484 C483 1.390 . S
C484 C485 1.394 . S
C484 C490 1.465 . S
C485 C480 1.399 . S
C485 C484 1.394 . S
C485 C486 1.516 . S
C486 C485 1.516 . S
C486 C487 1.502 . S
C486 C488 1.561 . S
C486 C489 1.526 . S
C487 H471 0.959 . S
C487 H472 0.959 . S
C487 H473 0.961 . S
C487 C486 1.502 . S
C488 H474 0.960 . S
C488 H475 0.961 . S
C488 H476 0.959 . S
C488 C486 1.561 . S
C489 C486 1.526 . S
C489 C490 1.396 . S
C489 C494 1.390 . S
C490 C484 1.465 . S
C490 C489 1.396 . S
C490 C491 1.399 . S
C491 H477 0.929 . S
C491 C490 1.399 . S
C491 C492 1.385 . S
C492 H478 0.931 . S
C492 C491 1.385 . S
C492 C493 1.389 . S
C493 C492 1.389 . S
C493 C494 1.387 . S
C494 H479 0.930 . S
C494 C489 1.390 . S
C494 C493 1.387 . S
H495 C507 0.930 . S
H496 C509 0.930 . S
H497 C510 0.930 . S
H498 C514 0.959 . S
H499 C514 0.959 . S
H500 C514 0.961 . S
H501 C515 0.960 . S
H502 C515 0.961 . S
H503 C515 0.959 . S
H504 C518 0.929 . S
H505 C519 0.931 . S
H506 C521 0.930 . S
C507 H495 0.930 . S
C507 C508 1.399 . S
C507 C512 1.399 . S
C508 C507 1.399 . S
C508 C509 1.376 . S
C509 H496 0.930 . S
C509 C508 1.376 . S
C509 C510 1.388 . S
C510 H497 0.930 . S
C510 C509 1.388 . S
C510 C511 1.390 . S
C511 C510 1.390 . S
C511 C512 1.394 . S
C511 C517 1.465 . S
C512 C507 1.399 . S
C512 C511 1.394 . S
C512 C513 1.516 . S
C513 C512 1.516 . S
C513 C514 1.502 . S
C513 C515 1.561 . S
C513 C516 1.526 . S
C514 H498 0.959 . S
C514 H499 0.959 . S
C514 H500 0.961 . S
C514 C513 1.502 . S
C515 H501 0.960 . S
C515 H502 0.961 . S
C515 H503 0.959 . S
C515 C513 1.561 . S
C516 C513 1.526 . S
C516 C517 1.396 . S
C516 C521 1.390 . S
C517 C511 1.465 . S
C517 C516 1.396 . S
C517 C518 1.399 . S
C518 H504 0.929 . S
C518 C517 1.399 . S
C518 C519 1.385 . S
C519 H505 0.931 . S
C519 C518 1.385 . S
C519 C520 1.389 . S
C520 C519 1.389 . S
C520 C521 1.387 . S
C521 H506 0.930 . S
C521 C516 1.390 . S
C521 C520 1.387 . S
H522 C534 0.930 . S
H523 C536 0.930 . S
H524 C537 0.930 . S
H525 C541 0.959 . S
H526 C541 0.959 . S
H527 C541 0.961 . S
H528 C542 0.960 . S
H529 C542 0.961 . S
H530 C542 0.959 . S
H531 C545 0.929 . S
H532 C546 0.931 . S
H533 C548 0.930 . S
C534 H522 0.930 . S
C534 C535 1.399 1_545 S
C534 C539 1.399 . S
C535 C534 1.399 1_565 S
C535 C536 1.376 . S
C536 H523 0.930 . S
C536 C535 1.376 . S
C536 C537 1.388 1_565 S
C537 H524 0.930 . S
C537 C536 1.388 1_545 S
C537 C538 1.390 . S
C538 C537 1.390 . S
C538 C539 1.394 . S
C538 C544 1.465 . S
C539 C534 1.399 . S
C539 C538 1.394 . S
C539 C540 1.516 . S
C540 C539 1.516 . S
C540 C541 1.502 . S
C540 C542 1.561 . S
C540 C543 1.526 . S
C541 H525 0.959 . S
C541 H526 0.959 . S
C541 H527 0.961 . S
C541 C540 1.502 . S
C542 H528 0.960 . S
C542 H529 0.961 . S
C542 H530 0.959 . S
C542 C540 1.561 . S
C543 C540 1.526 . S
C543 C544 1.396 . S
C543 C548 1.390 . S
C544 C538 1.465 . S
C544 C543 1.396 . S
C544 C545 1.399 . S
C545 H531 0.929 . S
C545 C544 1.399 . S
C545 C546 1.385 . S
C546 H532 0.931 . S
C546 C545 1.385 . S
C546 C547 1.389 . S
C547 C546 1.389 . S
C547 C548 1.387 . S
C548 H533 0.930 . S
C548 C543 1.390 . S
C548 C547 1.387 . S
H549 C561 0.930 . S
H550 C563 0.930 . S
H551 C564 0.930 . S
H552 C568 0.959 1_455 S
H553 C568 0.959 . S
H554 C568 0.961 1_455 S
H555 C569 0.960 . S
H556 C569 0.961 . S
H557 C569 0.959 . S
H558 C572 0.929 . S
H559 C573 0.931 . S
H560 C575 0.930 . S
C561 H549 0.930 . S
C561 C562 1.399 . S
C561 C566 1.399 1_455 S
C562 C561 1.399 . S
C562 C563 1.376 . S
C563 H550 0.930 . S
C563 C562 1.376 . S
C563 C564 1.388 1_455 S
C564 H551 0.930 . S
C564 C563 1.388 1_655 S
C564 C565 1.390 . S
C565 C564 1.390 . S
C565 C566 1.394 . S
C565 C571 1.465 . S
C566 C561 1.399 1_655 S
C566 C565 1.394 . S
C566 C567 1.516 . S
C567 C566 1.516 . S
C567 C568 1.502 . S
C567 C569 1.561 . S
C567 C570 1.526 . S
C568 H552 0.959 1_655 S
C568 H553 0.959 . S
C568 H554 0.961 1_655 S
C568 C567 1.502 . S
C569 H555 0.960 . S
C569 H556 0.961 . S
C569 H557 0.959 . S
C569 C567 1.561 . S
C570 C567 1.526 . S
C570 C571 1.396 . S
C570 C575 1.390 . S
C571 C565 1.465 . S
C571 C570 1.396 . S
C571 C572 1.399 . S
C572 H558 0.929 . S
C572 C571 1.399 . S
C572 C573 1.385 . S
C573 H559 0.931 . S
C573 C572 1.385 . S
C573 C574 1.402 . S
C574 C573 1.402 . S
C574 C575 1.393 . S
C575 H560 0.930 . S
C575 C570 1.390 . S
C575 C574 1.393 . S
H576 C588 0.930 . S
H577 C590 0.930 . S
H578 C591 0.930 . S
H579 C595 0.959 . S
H580 C595 0.959 . S
H581 C595 0.961 . S
H582 C596 0.960 . S
H583 C596 0.961 . S
H584 C596 0.959 . S
H585 C599 0.929 . S
H586 C600 0.931 . S
H587 C602 0.930 . S
C588 H576 0.930 . S
C588 C589 1.399 . S
C588 C593 1.399 1_455 S
C589 C588 1.399 . S
C589 C590 1.376 . S
C590 H577 0.930 . S
C590 C589 1.376 . S
C590 C591 1.388 1_455 S
C591 H578 0.930 . S
C591 C590 1.388 1_655 S
C591 C592 1.390 . S
C592 C591 1.390 . S
C592 C593 1.394 . S
C592 C598 1.465 . S
C593 C588 1.399 1_655 S
C593 C592 1.394 . S
C593 C594 1.516 . S
C594 C593 1.516 . S
C594 C595 1.502 . S
C594 C596 1.561 . S
C594 C597 1.526 . S
C595 H579 0.959 . S
C595 H580 0.959 . S
C595 H581 0.961 . S
C595 C594 1.502 . S
C596 H582 0.960 . S
C596 H583 0.961 . S
C596 H584 0.959 . S
C596 C594 1.561 . S
C597 C594 1.526 . S
C597 C598 1.396 . S
C597 C602 1.390 . S
C598 C592 1.465 . S
C598 C597 1.396 . S
C598 C599 1.399 . S
C599 H585 0.929 . S
C599 C598 1.399 . S
C599 C600 1.385 . S
C600 H586 0.931 . S
C600 C599 1.385 . S
C600 C601 1.389 . S
C601 C600 1.389 . S
C601 C602 1.387 . S
C602 H587 0.930 . S
C602 C597 1.390 . S
C602 C601 1.387 . S
H603 C615 0.930 . S
H604 C617 0.930 . S
H605 C618 0.930 . S
H606 C622 0.959 . S
H607 C622 0.959 . S
H608 C622 0.961 . S
H609 C623 0.960 . S
H610 C623 0.961 . S
H611 C623 0.959 . S
H612 C626 0.929 . S
H613 C627 0.931 . S
H614 C629 0.930 . S
C615 H603 0.930 . S
C615 C616 1.399 . S
C615 C620 1.399 . S
C616 C615 1.399 . S
C616 C617 1.376 . S
C617 H604 0.930 . S
C617 C616 1.376 . S
C617 C618 1.388 . S
C618 H605 0.930 . S
C618 C617 1.388 . S
C618 C619 1.390 . S
C619 C618 1.390 . S
C619 C620 1.394 . S
C619 C625 1.465 . S
C620 C615 1.399 . S
C620 C619 1.394 . S
C620 C621 1.516 . S
C621 C620 1.516 . S
C621 C622 1.502 . S
C621 C623 1.561 . S
C621 C624 1.526 . S
C622 H606 0.959 . S
C622 H607 0.959 . S
C622 H608 0.961 . S
C622 C621 1.502 . S
C623 H609 0.960 . S
C623 H610 0.961 . S
C623 H611 0.959 . S
C623 C621 1.561 . S
C624 C621 1.526 . S
C624 C625 1.396 . S
C624 C629 1.390 . S
C625 C619 1.465 . S
C625 C624 1.396 . S
C625 C626 1.399 . S
C626 H612 0.929 . S
C626 C625 1.399 . S
C626 C627 1.385 . S
C627 H613 0.931 . S
C627 C626 1.385 . S
C627 C628 1.389 . S
C628 C627 1.389 . S
C628 C629 1.387 . S
C629 H614 0.930 . S
C629 C624 1.390 . S
C629 C628 1.387 . S
H630 C642 0.930 . S
H631 C644 0.930 . S
H632 C645 0.930 . S
H633 C649 0.959 . S
H634 C649 0.959 . S
H635 C649 0.961 . S
H636 C650 0.960 . S
H637 C650 0.961 . S
H638 C650 0.959 . S
H639 C653 0.929 . S
H640 C654 0.931 . S
H641 C656 0.930 . S
C642 H630 0.930 . S
C642 C643 1.399 . S
C642 C647 1.399 . S
C643 C642 1.399 . S
C643 C644 1.376 . S
C644 H631 0.930 . S
C644 C643 1.376 . S
C644 C645 1.388 . S
C645 H632 0.930 . S
C645 C644 1.388 . S
C645 C646 1.390 . S
C646 C645 1.390 . S
C646 C647 1.394 . S
C646 C652 1.465 . S
C647 C642 1.399 . S
C647 C646 1.394 . S
C647 C648 1.516 . S
C648 C647 1.516 . S
C648 C649 1.502 . S
C648 C650 1.561 . S
C648 C651 1.526 . S
C649 H633 0.959 . S
C649 H634 0.959 . S
C649 H635 0.961 . S
C649 C648 1.502 . S
C650 H636 0.960 . S
C650 H637 0.961 . S
C650 H638 0.959 . S
C650 C648 1.561 . S
C651 C648 1.526 . S
C651 C652 1.396 . S
C651 C656 1.390 . S
C652 C646 1.465 . S
C652 C651 1.396 . S
C652 C653 1.399 . S
C653 H639 0.929 . S
C653 C652 1.399 . S
C653 C654 1.385 . S
C654 H640 0.931 . S
C654 C653 1.385 . S
C654 C655 1.389 . S
C655 C654 1.389 . S
C655 C656 1.387 . S
C656 H641 0.930 . S
C656 C651 1.390 . S
C656 C655 1.387 . S
H657 C669 0.930 . S
H658 C671 0.930 . S
H659 C672 0.930 . S
H660 C676 0.959 . S
H661 C676 0.959 . S
H662 C676 0.961 . S
H663 C677 0.960 . S
H664 C677 0.961 . S
H665 C677 0.959 . S
H666 C680 0.929 . S
H667 C681 0.931 . S
H668 C683 0.930 . S
C669 H657 0.930 . S
C669 C670 1.399 . S
C669 C674 1.399 . S
C670 C669 1.399 . S
C670 C671 1.376 . S
C671 H658 0.930 . S
C671 C670 1.376 . S
C671 C672 1.388 . S
C672 H659 0.930 . S
C672 C671 1.388 . S
C672 C673 1.390 . S
C673 C672 1.390 . S
C673 C674 1.394 . S
C673 C679 1.465 . S
C674 C669 1.399 . S
C674 C673 1.394 . S
C674 C675 1.516 . S
C675 C674 1.516 . S
C675 C676 1.502 . S
C675 C677 1.561 . S
C675 C678 1.526 . S
C676 H660 0.959 . S
C676 H661 0.959 . S
C676 H662 0.961 . S
C676 C675 1.502 . S
C677 H663 0.960 . S
C677 H664 0.961 . S
C677 H665 0.959 . S
C677 C675 1.561 . S
C678 C675 1.526 . S
C678 C679 1.396 . S
C678 C683 1.390 . S
C679 C673 1.465 . S
C679 C678 1.396 . S
C679 C680 1.399 . S
C680 H666 0.929 . S
C680 C679 1.399 . S
C680 C681 1.385 . S
C681 H667 0.931 . S
C681 C680 1.385 . S
C681 C682 1.389 . S
C682 C681 1.389 . S
C682 C683 1.387 . S
C683 H668 0.930 . S
C683 C678 1.390 . S
C683 C682 1.387 . S
H684 C696 0.930 . S
H685 C698 0.930 . S
H686 C699 0.930 . S
H687 C703 0.959 . S
H688 C703 0.959 . S
H689 C703 0.961 . S
H690 C704 0.960 . S
H691 C704 0.961 . S
H692 C704 0.959 . S
H693 C707 0.929 . S
H694 C708 0.931 . S
H695 C710 0.930 . S
C696 H684 0.930 . S
C696 C697 1.399 . S
C696 C701 1.399 . S
C697 C696 1.399 . S
C697 C698 1.376 . S
C698 H685 0.930 . S
C698 C697 1.376 . S
C698 C699 1.388 . S
C699 H686 0.930 . S
C699 C698 1.388 . S
C699 C700 1.390 . S
C700 C699 1.390 . S
C700 C701 1.394 . S
C700 C706 1.465 . S
C701 C696 1.399 . S
C701 C700 1.394 . S
C701 C702 1.516 . S
C702 C701 1.516 . S
C702 C703 1.502 . S
C702 C704 1.561 . S
C702 C705 1.526 . S
C703 H687 0.959 . S
C703 H688 0.959 . S
C703 H689 0.961 . S
C703 C702 1.502 . S
C704 H690 0.960 . S
C704 H691 0.961 . S
C704 H692 0.959 . S
C704 C702 1.561 . S
C705 C702 1.526 . S
C705 C706 1.396 . S
C705 C710 1.390 . S
C706 C700 1.465 . S
C706 C705 1.396 . S
C706 C707 1.399 . S
C707 H693 0.929 . S
C707 C706 1.399 . S
C707 C708 1.385 . S
C708 H694 0.931 . S
C708 C707 1.385 . S
C708 C709 1.389 . S
C709 C708 1.389 . S
C709 C710 1.387 . S
C710 H695 0.930 . S
C710 C705 1.390 . S
C710 C709 1.387 . S
H711 C723 0.930 . S
H712 C725 0.930 . S
H713 C726 0.930 . S
H714 C730 0.959 . S
H715 C730 0.959 . S
H716 C730 0.961 . S
H717 C731 0.960 . S
H718 C731 0.961 . S
H719 C731 0.959 . S
H720 C734 0.929 . S
H721 C735 0.931 . S
H722 C737 0.930 . S
C723 H711 0.930 . S
C723 C724 1.399 . S
C723 C728 1.399 . S
C724 C723 1.399 . S
C724 C725 1.376 . S
C725 H712 0.930 . S
C725 C724 1.376 . S
C725 C726 1.388 . S
C726 H713 0.930 . S
C726 C725 1.388 . S
C726 C727 1.390 . S
C727 C726 1.390 . S
C727 C728 1.394 . S
C727 C733 1.465 . S
C728 C723 1.399 . S
C728 C727 1.394 . S
C728 C729 1.516 . S
C729 C728 1.516 . S
C729 C730 1.502 . S
C729 C731 1.561 . S
C729 C732 1.526 . S
C730 H714 0.959 . S
C730 H715 0.959 . S
C730 H716 0.961 . S
C730 C729 1.502 . S
C731 H717 0.960 . S
C731 H718 0.961 . S
C731 H719 0.959 . S
C731 C729 1.561 . S
C732 C729 1.526 . S
C732 C733 1.396 . S
C732 C737 1.390 . S
C733 C727 1.465 . S
C733 C732 1.396 . S
C733 C734 1.399 . S
C734 H720 0.929 . S
C734 C733 1.399 . S
C734 C735 1.385 . S
C735 H721 0.931 . S
C735 C734 1.385 . S
C735 C736 1.389 . S
C736 C735 1.389 . S
C736 C737 1.387 . S
C737 H722 0.930 . S
C737 C732 1.390 . S
C737 C736 1.387 . S
H738 C750 0.930 . S
H739 C752 0.930 . S
H740 C753 0.930 . S
H741 C757 0.959 . S
H742 C757 0.959 . S
H743 C757 0.961 . S
H744 C758 0.960 . S
H745 C758 0.961 . S
H746 C758 0.959 . S
H747 C761 0.929 . S
H748 C762 0.931 . S
H749 C764 0.930 . S
C750 H738 0.930 . S
C750 C751 1.399 . S
C750 C755 1.399 . S
C751 C750 1.399 . S
C751 C752 1.376 . S
C752 H739 0.930 . S
C752 C751 1.376 . S
C752 C753 1.388 . S
C753 H740 0.930 . S
C753 C752 1.388 . S
C753 C754 1.390 . S
C754 C753 1.390 . S
C754 C755 1.394 . S
C754 C760 1.465 . S
C755 C750 1.399 . S
C755 C754 1.394 . S
C755 C756 1.516 . S
C756 C755 1.516 . S
C756 C757 1.502 . S
C756 C758 1.561 . S
C756 C759 1.526 . S
C757 H741 0.959 . S
C757 H742 0.959 . S
C757 H743 0.961 . S
C757 C756 1.502 . S
C758 H744 0.960 . S
C758 H745 0.961 . S
C758 H746 0.959 . S
C758 C756 1.561 . S
C759 C756 1.526 . S
C759 C760 1.396 . S
C759 C764 1.390 . S
C760 C754 1.465 . S
C760 C759 1.396 . S
C760 C761 1.399 . S
C761 H747 0.929 . S
C761 C760 1.399 . S
C761 C762 1.385 . S
C762 H748 0.931 . S
C762 C761 1.385 . S
C762 C763 1.389 . S
C763 C762 1.389 . S
C763 C764 1.387 . S
C764 H749 0.930 . S
C764 C759 1.390 . S
C764 C763 1.387 . S
H765 C777 0.930 . S
H766 C779 0.930 . S
H767 C780 0.930 . S
H768 C784 0.959 . S
H769 C784 0.959 . S
H770 C784 0.961 . S
H771 C785 0.960 . S
H772 C785 0.961 . S
H773 C785 0.959 . S
H774 C788 0.929 . S
H775 C789 0.931 . S
H776 C791 0.930 . S
C777 H765 0.930 . S
C777 C778 1.399 . S
C777 C782 1.399 1_655 S
C778 C777 1.399 . S
C778 C779 1.376 . S
C779 H766 0.930 . S
C779 C778 1.376 . S
C779 C780 1.388 1_655 S
C780 H767 0.930 . S
C780 C779 1.388 1_455 S
C780 C781 1.390 . S
C781 C780 1.390 . S
C781 C782 1.394 . S
C781 C787 1.465 . S
C782 C777 1.399 1_455 S
C782 C781 1.394 . S
C782 C783 1.516 . S
C783 C782 1.516 . S
C783 C784 1.502 . S
C783 C785 1.561 . S
C783 C786 1.526 . S
C784 H768 0.959 . S
C784 H769 0.959 . S
C784 H770 0.961 . S
C784 C783 1.502 . S
C785 H771 0.960 . S
C785 H772 0.961 . S
C785 H773 0.959 . S
C785 C783 1.561 . S
C786 C783 1.526 . S
C786 C787 1.396 . S
C786 C791 1.390 . S
C787 C781 1.465 . S
C787 C786 1.396 . S
C787 C788 1.399 . S
C788 H774 0.929 . S
C788 C787 1.399 . S
C788 C789 1.385 . S
C789 H775 0.931 . S
C789 C788 1.385 . S
C789 C790 1.389 . S
C790 C789 1.389 . S
C790 C791 1.387 . S
C791 H776 0.930 . S
C791 C786 1.390 . S
C791 C790 1.387 . S
H792 C804 0.930 . S
H793 C806 0.930 . S
H794 C807 0.930 . S
H795 C811 0.959 . S
H796 C811 0.959 . S
H797 C811 0.961 . S
H798 C812 0.960 . S
H799 C812 0.961 . S
H800 C812 0.959 . S
H801 C815 0.929 . S
H802 C816 0.931 . S
H803 C818 0.930 . S
C804 H792 0.930 . S
C804 C805 1.399 . S
C804 C809 1.399 . S
C805 C804 1.399 . S
C805 C806 1.376 . S
C806 H793 0.930 . S
C806 C805 1.376 . S
C806 C807 1.388 . S
C807 H794 0.930 . S
C807 C806 1.388 . S
C807 C808 1.390 . S
C808 C807 1.390 . S
C808 C809 1.394 . S
C808 C814 1.465 . S
C809 C804 1.399 . S
C809 C808 1.394 . S
C809 C810 1.516 . S
C810 C809 1.516 . S
C810 C811 1.502 . S
C810 C812 1.561 . S
C810 C813 1.526 . S
C811 H795 0.959 . S
C811 H796 0.959 . S
C811 H797 0.961 . S
C811 C810 1.502 . S
C812 H798 0.960 . S
C812 H799 0.961 . S
C812 H800 0.959 . S
C812 C810 1.561 . S
C813 C810 1.526 . S
C813 C814 1.396 . S
C813 C818 1.390 1_565 S
C814 C808 1.465 . S
C814 C813 1.396 . S
C814 C815 1.399 . S
C815 H801 0.929 . S
C815 C814 1.399 . S
C815 C816 1.385 1_565 S
C816 H802 0.931 . S
C816 C815 1.385 1_545 S
C816 C817 1.389 . S
C817 C816 1.389 . S
C817 C818 1.387 . S
C818 H803 0.930 . S
C818 C813 1.390 1_545 S
C818 C817 1.387 . S
H819 C831 0.930 . S
H820 C833 0.930 . S
H821 C834 0.930 . S
H822 C838 0.959 . S
H823 C838 0.959 . S
H824 C838 0.961 . S
H825 C839 0.960 1_545 S
H826 C839 0.961 . S
H827 C839 0.959 . S
H828 C842 0.929 . S
H829 C843 0.931 . S
H830 C845 0.930 . S
C831 H819 0.930 . S
C831 C832 1.399 . S
C831 C836 1.413 . S
C832 C831 1.399 . S
C832 C833 1.376 . S
C833 H820 0.930 . S
C833 C832 1.376 . S
C833 C834 1.388 1_545 S
C834 H821 0.930 . S
C834 C833 1.388 1_565 S
C834 C835 1.390 . S
C835 C834 1.390 . S
C835 C836 1.373 1_565 S
C835 C841 1.465 . S
C836 C831 1.413 . S
C836 C835 1.373 1_545 S
C836 C837 1.520 1_545 S
C837 C836 1.520 1_565 S
C837 C838 1.502 1_565 S
C837 C839 1.561 . S
C837 C840 1.526 . S
C838 H822 0.959 . S
C838 H823 0.959 . S
C838 H824 0.961 . S
C838 C837 1.502 1_545 S
C839 H825 0.960 1_565 S
C839 H826 0.961 . S
C839 H827 0.959 . S
C839 C837 1.561 . S
C840 C837 1.526 . S
C840 C841 1.396 . S
C840 C845 1.390 . S
C841 C835 1.465 . S
C841 C840 1.396 . S
C841 C842 1.399 . S
C842 H828 0.929 . S
C842 C841 1.399 . S
C842 C843 1.385 . S
C843 H829 0.931 . S
C843 C842 1.385 . S
C843 C844 1.389 . S
C844 C843 1.389 . S
C844 C845 1.387 . S
C845 H830 0.930 . S
C845 C840 1.390 . S
C845 C844 1.387 . S
H846 C858 0.930 . S
H847 C860 0.930 . S
H848 C861 0.930 . S
H849 C865 0.959 . S
H850 C865 0.959 . S
H851 C865 0.961 1_554 S
H852 C866 0.960 1_554 S
H853 C866 0.961 . S
H854 C866 0.959 . S
H855 C869 0.929 . S
H856 C870 0.931 . S
H857 C872 0.930 . S
C858 H846 0.930 . S
C858 C859 1.399 . S
C858 C863 1.399 . S
C859 C858 1.399 . S
C859 C860 1.376 1_545 S
C860 H847 0.930 . S
C860 C859 1.376 1_565 S
C860 C861 1.388 . S
C861 H848 0.930 . S
C861 C860 1.388 . S
C861 C862 1.393 . S
C862 C861 1.393 . S
C862 C863 1.390 1_565 S
C862 C868 1.465 1_554 S
C863 C858 1.399 . S
C863 C862 1.390 1_545 S
C863 C864 1.516 1_554 S
C864 C863 1.516 1_556 S
C864 C865 1.502 . S
C864 C866 1.561 . S
C864 C867 1.526 . S
C865 H849 0.959 . S
C865 H850 0.959 . S
C865 H851 0.961 1_556 S
C865 C864 1.502 . S
C866 H852 0.960 1_556 S
C866 H853 0.961 . S
C866 H854 0.959 . S
C866 C864 1.561 . S
C867 C864 1.526 . S
C867 C868 1.396 1_545 S
C867 C872 1.390 . S
C868 C862 1.465 1_556 S
C868 C867 1.396 1_565 S
C868 C869 1.399 . S
C869 H855 0.929 . S
C869 C868 1.399 . S
C869 C870 1.385 . S
C870 H856 0.931 . S
C870 C869 1.385 . S
C870 C871 1.389 1_565 S
C871 C870 1.389 1_545 S
C871 C872 1.387 . S
C872 H857 0.930 . S
C872 C867 1.390 . S
C872 C871 1.387 . S
H873 C885 0.930 . S
H874 C887 0.930 . S
H875 C888 0.930 . S
H876 C892 0.959 . S
H877 C892 0.959 . S
H878 C892 0.961 1_556 S
H879 C893 0.910 1_556 S
H880 C893 1.010 . S
H881 C893 0.962 . S
H882 C896 0.929 . S
H883 C897 0.931 . S
H884 C899 0.930 . S
C885 H873 0.930 . S
C885 C886 1.399 . S
C885 C890 1.399 . S
C886 C885 1.399 . S
C886 C887 1.376 1_455 S
C887 H874 0.930 . S
C887 C886 1.376 1_655 S
C887 C888 1.388 . S
C888 H875 0.930 . S
C888 C887 1.388 . S
C888 C889 1.390 . S
C889 C888 1.390 . S
C889 C890 1.394 1_655 S
C889 C895 1.465 1_556 S
C890 C885 1.399 . S
C890 C889 1.394 1_455 S
C890 C891 1.462 1_556 S
C891 C890 1.462 1_554 S
C891 C892 1.509 . S
C891 C893 1.561 . S
C891 C894 1.577 . S
C892 H876 0.959 . S
C892 H877 0.959 . S
C892 H878 0.961 1_554 S
C892 C891 1.509 . S
C893 H879 0.910 1_554 S
C893 H880 1.010 . S
C893 H881 0.962 . S
C893 C891 1.561 . S
C894 C891 1.577 . S
C894 C895 1.396 1_455 S
C894 C899 1.390 . S
C895 C889 1.465 1_554 S
C895 C894 1.396 1_655 S
C895 C896 1.399 . S
C896 H882 0.929 . S
C896 C895 1.399 . S
C896 C897 1.385 . S
C897 H883 0.931 . S
C897 C896 1.385 . S
C897 C898 1.389 1_655 S
C898 C897 1.389 1_455 S
C898 C899 1.387 . S
C899 H884 0.930 . S
C899 C894 1.390 . S
C899 C898 1.387 . S
H900 C912 0.930 . S
H901 C914 0.930 . S
H902 C915 0.930 . S
H903 C919 0.965 . S
H904 C919 0.988 . S
H905 C919 0.929 1_556 S
H906 C920 0.960 . S
H907 C920 0.961 1_554 S
H908 C920 0.964 . S
H909 C923 0.929 . S
H910 C924 0.931 . S
H911 C926 0.930 . S
C912 H900 0.930 . S
C912 C913 1.399 . S
C912 C917 1.399 . S
C913 C912 1.399 . S
C913 C914 1.376 . S
C914 H901 0.930 . S
C914 C913 1.376 . S
C914 C915 1.388 . S
C915 H902 0.930 . S
C915 C914 1.388 . S
C915 C916 1.390 . S
C916 C915 1.390 . S
C916 C917 1.394 . S
C916 C922 1.465 1_556 S
C917 C912 1.399 . S
C917 C916 1.394 . S
C917 C918 1.531 . S
C918 C917 1.531 . S
C918 C919 1.500 1_556 S
C918 C920 1.562 . S
C918 C921 1.510 1_556 S
C919 H903 0.965 . S
C919 H904 0.988 . S
C919 H905 0.929 1_554 S
C919 C918 1.500 1_554 S
C920 H906 0.960 . S
C920 H907 0.961 1_556 S
C920 H908 0.964 . S
C920 C918 1.562 . S
C921 C918 1.510 1_554 S
C921 C922 1.396 . S
C921 C926 1.390 . S
C922 C916 1.465 1_554 S
C922 C921 1.396 . S
C922 C923 1.399 . S
C923 H909 0.929 . S
C923 C922 1.399 . S
C923 C924 1.385 . S
C924 H910 0.931 . S
C924 C923 1.385 . S
C924 C925 1.389 . S
C925 C924 1.389 . S
C925 C926 1.387 . S
C926 H911 0.930 . S
C926 C921 1.390 . S
C926 C925 1.387 . S
H927 C939 0.930 . S
H928 C941 0.930 . S
H929 C942 0.930 . S
H930 C946 0.959 . S
H931 C946 0.959 . S
H932 C946 0.961 . S
H933 C947 0.960 . S
H934 C947 0.961 . S
H935 C947 0.959 . S
H936 C950 0.929 . S
H937 C951 0.931 . S
H938 C953 0.930 . S
C939 H927 0.930 . S
C939 C940 1.399 . S
C939 C944 1.399 . S
C940 C939 1.399 . S
C940 C941 1.376 . S
C941 H928 0.930 . S
C941 C940 1.376 . S
C941 C942 1.388 . S
C942 H929 0.930 . S
C942 C941 1.388 . S
C942 C943 1.390 . S
C943 C942 1.390 . S
C943 C944 1.394 . S
C943 C949 1.465 . S
C944 C939 1.399 . S
C944 C943 1.394 . S
C944 C945 1.516 . S
C945 C944 1.516 . S
C945 C946 1.502 . S
C945 C947 1.561 . S
C945 C948 1.526 . S
C946 H930 0.959 . S
C946 H931 0.959 . S
C946 H932 0.961 . S
C946 C945 1.502 . S
C947 H933 0.960 . S
C947 H934 0.961 . S
C947 H935 0.959 . S
C947 C945 1.561 . S
C948 C945 1.526 . S
C948 C949 1.396 . S
C948 C953 1.390 . S
C949 C943 1.465 . S
C949 C948 1.396 . S
C949 C950 1.399 . S
C950 H936 0.929 . S
C950 C949 1.399 . S
C950 C951 1.385 . S
C951 H937 0.931 . S
C951 C950 1.385 . S
C951 C952 1.389 . S
C952 C951 1.389 . S
C952 C953 1.387 . S
C953 H938 0.930 . S
C953 C948 1.390 . S
C953 C952 1.387 . S
H954 C966 0.930 . S
H955 C968 0.930 . S
H956 C969 0.930 . S
H957 C973 0.959 . S
H958 C973 0.959 . S
H959 C973 0.961 . S
H960 C974 0.960 . S
H961 C974 0.961 . S
H962 C974 0.959 . S
H963 C977 0.929 . S
H964 C978 0.931 . S
H965 C980 0.930 . S
C966 H954 0.930 . S
C966 C967 1.399 . S
C966 C971 1.399 . S
C967 C966 1.399 . S
C967 C968 1.376 . S
C968 H955 0.930 . S
C968 C967 1.376 . S
C968 C969 1.388 . S
C969 H956 0.930 . S
C969 C968 1.388 . S
C969 C970 1.390 . S
C970 C969 1.390 . S
C970 C971 1.394 . S
C970 C976 1.465 . S
C971 C966 1.399 . S
C971 C970 1.394 . S
C971 C972 1.516 . S
C972 C971 1.516 . S
C972 C973 1.502 . S
C972 C974 1.561 . S
C972 C975 1.526 . S
C973 H957 0.959 . S
C973 H958 0.959 . S
C973 H959 0.961 . S
C973 C972 1.502 . S
C974 H960 0.960 . S
C974 H961 0.961 . S
C974 H962 0.959 . S
C974 C972 1.561 . S
C975 C972 1.526 . S
C975 C976 1.396 . S
C975 C980 1.390 . S
C976 C970 1.465 . S
C976 C975 1.396 . S
C976 C977 1.399 . S
C977 H963 0.929 . S
C977 C976 1.399 . S
C977 C978 1.385 . S
C978 H964 0.931 . S
C978 C977 1.385 . S
C978 C979 1.389 . S
C979 C978 1.389 . S
C979 C980 1.387 . S
C980 H965 0.930 . S
C980 C975 1.390 . S
C980 C979 1.387 . S
H981 C993 0.930 . S
H982 C995 0.930 . S
H983 C996 0.930 . S
H984 C1000 0.959 . S
H985 C1000 0.959 . S
H986 C1000 0.961 . S
H987 C1001 0.960 . S
H988 C1001 0.961 . S
H989 C1001 0.959 . S
H990 C1004 0.929 . S
H991 C1005 0.931 . S
H992 C1007 0.930 . S
C993 H981 0.930 . S
C993 C994 1.399 . S
C993 C998 1.399 . S
C994 C993 1.399 . S
C994 C995 1.376 . S
C995 H982 0.930 . S
C995 C994 1.376 . S
C995 C996 1.388 . S
C996 H983 0.930 . S
C996 C995 1.388 . S
C996 C997 1.390 . S
C997 C996 1.390 . S
C997 C998 1.394 . S
C997 C1003 1.465 . S
C998 C993 1.399 . S
C998 C997 1.394 . S
C998 C999 1.516 . S
C999 C998 1.516 . S
C999 C1000 1.502 . S
C999 C1001 1.561 . S
C999 C1002 1.526 . S
C1000 H984 0.959 . S
C1000 H985 0.959 . S
C1000 H986 0.961 . S
C1000 C999 1.502 . S
C1001 H987 0.960 . S
C1001 H988 0.961 . S
C1001 H989 0.959 . S
C1001 C999 1.561 . S
C1002 C999 1.526 . S
C1002 C1003 1.396 . S
C1002 C1007 1.390 . S
C1003 C997 1.465 . S
C1003 C1002 1.396 . S
C1003 C1004 1.399 . S
C1004 H990 0.929 . S
C1004 C1003 1.399 . S
C1004 C1005 1.385 . S
C1005 H991 0.931 . S
C1005 C1004 1.385 . S
C1005 C1006 1.389 . S
C1006 C1005 1.389 . S
C1006 C1007 1.387 . S
C1007 H992 0.930 . S
C1007 C1002 1.390 . S
C1007 C1006 1.387 . S
H1008 C1020 0.930 . S
H1009 C1022 0.930 . S
H1010 C1023 0.930 . S
H1011 C1027 0.959 . S
H1012 C1027 0.959 . S
H1013 C1027 0.961 . S
H1014 C1028 0.960 . S
H1015 C1028 0.961 . S
H1016 C1028 0.959 . S
H1017 C1031 0.929 . S
H1018 C1032 0.931 . S
H1019 C1034 0.930 . S
C1020 H1008 0.930 . S
C1020 C1021 1.399 . S
C1020 C1025 1.399 . S
C1021 C1020 1.399 . S
C1021 C1022 1.376 . S
C1022 H1009 0.930 . S
C1022 C1021 1.376 . S
C1022 C1023 1.388 . S
C1023 H1010 0.930 . S
C1023 C1022 1.388 . S
C1023 C1024 1.390 . S
C1024 C1023 1.390 . S
C1024 C1025 1.394 . S
C1024 C1030 1.465 . S
C1025 C1020 1.399 . S
C1025 C1024 1.394 . S
C1025 C1026 1.516 . S
C1026 C1025 1.516 . S
C1026 C1027 1.502 . S
C1026 C1028 1.561 . S
C1026 C1029 1.526 . S
C1027 H1011 0.959 . S
C1027 H1012 0.959 . S
C1027 H1013 0.961 . S
C1027 C1026 1.502 . S
C1028 H1014 0.960 . S
C1028 H1015 0.961 . S
C1028 H1016 0.959 . S
C1028 C1026 1.561 . S
C1029 C1026 1.526 . S
C1029 C1030 1.396 . S
C1029 C1034 1.390 . S
C1030 C1024 1.465 . S
C1030 C1029 1.396 . S
C1030 C1031 1.399 . S
C1031 H1017 0.929 . S
C1031 C1030 1.399 . S
C1031 C1032 1.385 . S
C1032 H1018 0.931 . S
C1032 C1031 1.385 . S
C1032 C1033 1.389 . S
C1033 C1032 1.389 . S
C1033 C1034 1.387 . S
C1034 H1019 0.930 . S
C1034 C1029 1.390 . S
C1034 C1033 1.387 . S
H1035 C1047 0.930 . S
H1036 C1049 0.930 . S
H1037 C1050 0.930 . S
H1038 C1054 0.959 . S
H1039 C1054 0.959 . S
H1040 C1054 0.961 . S
H1041 C1055 0.960 . S
H1042 C1055 0.961 . S
H1043 C1055 0.959 . S
H1044 C1058 0.929 . S
H1045 C1059 0.931 . S
H1046 C1061 0.930 . S
C1047 H1035 0.930 . S
C1047 C1048 1.399 . S
C1047 C1052 1.399 . S
C1048 C1047 1.399 . S
C1048 C1049 1.376 . S
C1049 H1036 0.930 . S
C1049 C1048 1.376 . S
C1049 C1050 1.388 . S
C1050 H1037 0.930 . S
C1050 C1049 1.388 . S
C1050 C1051 1.390 . S
C1051 C1050 1.390 . S
C1051 C1052 1.394 . S
C1051 C1057 1.465 . S
C1052 C1047 1.399 . S
C1052 C1051 1.394 . S
C1052 C1053 1.516 . S
C1053 C1052 1.516 . S
C1053 C1054 1.502 . S
C1053 C1055 1.561 . S
C1053 C1056 1.526 . S
C1054 H1038 0.959 . S
C1054 H1039 0.959 . S
C1054 H1040 0.961 . S
C1054 C1053 1.502 . S
C1055 H1041 0.960 . S
C1055 H1042 0.961 . S
C1055 H1043 0.959 . S
C1055 C1053 1.561 . S
C1056 C1053 1.526 . S
C1056 C1057 1.396 . S
C1056 C1061 1.390 . S
C1057 C1051 1.465 . S
C1057 C1056 1.396 . S
C1057 C1058 1.399 . S
C1058 H1044 0.929 . S
C1058 C1057 1.399 . S
C1058 C1059 1.385 . S
C1059 H1045 0.931 . S
C1059 C1058 1.385 . S
C1059 C1060 1.389 . S
C1060 C1059 1.389 . S
C1060 C1061 1.387 . S
C1061 H1046 0.930 . S
C1061 C1056 1.390 . S
C1061 C1060 1.387 . S
H1062 C1074 0.930 . S
H1063 C1076 0.930 . S
H1064 C1077 0.930 . S
H1065 C1081 0.959 . S
H1066 C1081 0.959 . S
H1067 C1081 0.961 . S
H1068 C1082 0.960 . S
H1069 C1082 0.961 . S
H1070 C1082 0.959 . S
H1071 C1085 0.929 . S
H1072 C1086 0.931 . S
H1073 C1088 0.930 . S
C1074 H1062 0.930 . S
C1074 C1075 1.399 . S
C1074 C1079 1.399 . S
C1075 C1074 1.399 . S
C1075 C1076 1.376 . S
C1076 H1063 0.930 . S
C1076 C1075 1.376 . S
C1076 C1077 1.388 . S
C1077 H1064 0.930 . S
C1077 C1076 1.388 . S
C1077 C1078 1.390 . S
C1078 C1077 1.390 . S
C1078 C1079 1.394 . S
C1078 C1084 1.465 . S
C1079 C1074 1.399 . S
C1079 C1078 1.394 . S
C1079 C1080 1.516 . S
C1080 C1079 1.516 . S
C1080 C1081 1.502 . S
C1080 C1082 1.561 . S
C1080 C1083 1.526 . S
C1081 H1065 0.959 . S
C1081 H1066 0.959 . S
C1081 H1067 0.961 . S
C1081 C1080 1.502 . S
C1082 H1068 0.960 . S
C1082 H1069 0.961 . S
C1082 H1070 0.959 . S
C1082 C1080 1.561 . S
C1083 C1080 1.526 . S
C1083 C1084 1.396 . S
C1083 C1088 1.390 . S
C1084 C1078 1.465 . S
C1084 C1083 1.396 . S
C1084 C1085 1.399 . S
C1085 H1071 0.929 . S
C1085 C1084 1.399 . S
C1085 C1086 1.385 . S
C1086 H1072 0.931 . S
C1086 C1085 1.385 . S
C1086 C1087 1.389 . S
C1087 C1086 1.389 . S
C1087 C1088 1.387 . S
C1088 H1073 0.930 . S
C1088 C1083 1.390 . S
C1088 C1087 1.387 . S
H1089 C1101 0.930 . S
H1090 C1103 0.930 . S
H1091 C1104 0.930 . S
H1092 C1108 0.959 . S
H1093 C1108 0.959 . S
H1094 C1108 0.961 . S
H1095 C1109 0.960 . S
H1096 C1109 0.961 . S
H1097 C1109 0.959 . S
H1098 C1112 0.929 . S
H1099 C1113 0.931 . S
H1100 C1115 0.930 . S
C1101 H1089 0.930 . S
C1101 C1102 1.399 . S
C1101 C1106 1.399 . S
C1102 C1101 1.399 . S
C1102 C1103 1.376 . S
C1103 H1090 0.930 . S
C1103 C1102 1.376 . S
C1103 C1104 1.388 . S
C1104 H1091 0.930 . S
C1104 C1103 1.388 . S
C1104 C1105 1.390 . S
C1105 C1104 1.390 . S
C1105 C1106 1.394 . S
C1105 C1111 1.465 . S
C1106 C1101 1.399 . S
C1106 C1105 1.394 . S
C1106 C1107 1.516 . S
C1107 C1106 1.516 . S
C1107 C1108 1.502 . S
C1107 C1109 1.561 . S
C1107 C1110 1.526 . S
C1108 H1092 0.959 . S
C1108 H1093 0.959 . S
C1108 H1094 0.961 . S
C1108 C1107 1.502 . S
C1109 H1095 0.960 . S
C1109 H1096 0.961 . S
C1109 H1097 0.959 . S
C1109 C1107 1.561 . S
C1110 C1107 1.526 . S
C1110 C1111 1.396 . S
C1110 C1115 1.390 . S
C1111 C1105 1.465 . S
C1111 C1110 1.396 . S
C1111 C1112 1.399 1_565 S
C1112 H1098 0.929 . S
C1112 C1111 1.399 1_545 S
C1112 C1113 1.385 . S
C1113 H1099 0.931 . S
C1113 C1112 1.385 . S
C1113 C1114 1.389 1_545 S
C1114 C1113 1.389 1_565 S
C1114 C1115 1.387 . S
C1115 H1100 0.930 . S
C1115 C1110 1.390 . S
C1115 C1114 1.387 . S
H1116 C1128 0.930 . S
H1117 C1130 0.930 . S
H1118 C1131 0.930 . S
H1119 C1135 0.959 . S
H1120 C1135 0.959 . S
H1121 C1135 0.961 . S
H1122 C1136 0.960 . S
H1123 C1136 0.961 . S
H1124 C1136 0.959 . S
H1125 C1139 0.929 . S
H1126 C1140 0.931 . S
H1127 C1142 0.930 . S
C1128 H1116 0.930 . S
C1128 C1129 1.399 . S
C1128 C1133 1.399 . S
C1129 C1128 1.399 . S
C1129 C1130 1.376 . S
C1130 H1117 0.930 . S
C1130 C1129 1.376 . S
C1130 C1131 1.388 . S
C1131 H1118 0.930 . S
C1131 C1130 1.388 . S
C1131 C1132 1.390 . S
C1132 C1131 1.390 . S
C1132 C1133 1.394 . S
C1132 C1138 1.465 . S
C1133 C1128 1.399 . S
C1133 C1132 1.394 . S
C1133 C1134 1.516 . S
C1134 C1133 1.516 . S
C1134 C1135 1.502 . S
C1134 C1136 1.561 . S
C1134 C1137 1.526 . S
C1135 H1119 0.959 . S
C1135 H1120 0.959 . S
C1135 H1121 0.961 . S
C1135 C1134 1.502 . S
C1136 H1122 0.960 . S
C1136 H1123 0.961 . S
C1136 H1124 0.959 . S
C1136 C1134 1.561 . S
C1137 C1134 1.526 . S
C1137 C1138 1.396 . S
C1137 C1142 1.390 . S
C1138 C1132 1.465 . S
C1138 C1137 1.396 . S
C1138 C1139 1.399 . S
C1139 H1125 0.929 . S
C1139 C1138 1.399 . S
C1139 C1140 1.385 . S
C1140 H1126 0.931 . S
C1140 C1139 1.385 . S
C1140 C1141 1.389 . S
C1141 C1140 1.389 . S
C1141 C1142 1.387 . S
C1142 H1127 0.930 . S
C1142 C1137 1.390 . S
C1142 C1141 1.387 . S
H1143 C1155 0.930 . S
H1144 C1157 0.930 . S
H1145 C1158 0.930 . S
H1146 C1162 0.959 . S
H1147 C1162 0.959 . S
H1148 C1162 0.961 . S
H1149 C1163 0.960 . S
H1150 C1163 0.961 . S
H1151 C1163 0.959 . S
H1152 C1166 0.929 . S
H1153 C1167 0.931 . S
H1154 C1169 0.930 . S
C1155 H1143 0.930 . S
C1155 C1156 1.399 . S
C1155 C1160 1.399 . S
C1156 C1155 1.399 . S
C1156 C1157 1.376 . S
C1157 H1144 0.930 . S
C1157 C1156 1.376 . S
C1157 C1158 1.388 . S
C1158 H1145 0.930 . S
C1158 C1157 1.388 . S
C1158 C1159 1.390 . S
C1159 C1158 1.390 . S
C1159 C1160 1.394 . S
C1159 C1165 1.465 . S
C1160 C1155 1.399 . S
C1160 C1159 1.394 . S
C1160 C1161 1.516 . S
C1161 C1160 1.516 . S
C1161 C1162 1.502 . S
C1161 C1163 1.561 . S
C1161 C1164 1.526 . S
C1162 H1146 0.959 . S
C1162 H1147 0.959 . S
C1162 H1148 0.961 . S
C1162 C1161 1.502 . S
C1163 H1149 0.960 . S
C1163 H1150 0.961 . S
C1163 H1151 0.959 . S
C1163 C1161 1.561 . S
C1164 C1161 1.526 . S
C1164 C1165 1.396 . S
C1164 C1169 1.390 . S
C1165 C1159 1.465 . S
C1165 C1164 1.396 . S
C1165 C1166 1.399 . S
C1166 H1152 0.929 . S
C1166 C1165 1.399 . S
C1166 C1167 1.385 . S
C1167 H1153 0.931 . S
C1167 C1166 1.385 . S
C1167 C1168 1.389 . S
C1168 C1167 1.389 . S
C1168 C1169 1.387 . S
C1169 H1154 0.930 . S
C1169 C1164 1.390 . S
C1169 C1168 1.387 . S
H1170 C1182 0.930 . S
H1171 C1184 0.930 1_455 S
H1172 C1185 0.930 . S
H1173 C1189 0.959 . S
H1174 C1189 0.959 . S
H1175 C1189 0.961 . S
H1176 C1190 0.960 . S
H1177 C1190 0.961 . S
H1178 C1190 0.959 . S
H1179 C1193 0.929 . S
H1180 C1194 0.931 . S
H1181 C1196 0.930 . S
C1182 H1170 0.930 . S
C1182 C1183 1.399 . S
C1182 C1187 1.399 . S
C1183 C1182 1.399 . S
C1183 C1184 1.376 . S
C1184 H1171 0.930 1_655 S
C1184 C1183 1.376 . S
C1184 C1185 1.388 . S
C1185 H1172 0.930 . S
C1185 C1184 1.388 . S
C1185 C1186 1.390 . S
C1186 C1185 1.390 . S
C1186 C1187 1.394 . S
C1186 C1192 1.465 . S
C1187 C1182 1.399 . S
C1187 C1186 1.394 . S
C1187 C1188 1.516 . S
C1188 C1187 1.516 . S
C1188 C1189 1.502 . S
C1188 C1190 1.561 . S
C1188 C1191 1.526 . S
C1189 H1173 0.959 . S
C1189 H1174 0.959 . S
C1189 H1175 0.961 . S
C1189 C1188 1.502 . S
C1190 H1176 0.960 . S
C1190 H1177 0.961 . S
C1190 H1178 0.959 . S
C1190 C1188 1.561 . S
C1191 C1188 1.526 . S
C1191 C1192 1.396 . S
C1191 C1196 1.390 . S
C1192 C1186 1.465 . S
C1192 C1191 1.396 . S
C1192 C1193 1.399 . S
C1193 H1179 0.929 . S
C1193 C1192 1.399 . S
C1193 C1194 1.385 . S
C1194 H1180 0.931 . S
C1194 C1193 1.385 . S
C1194 C1195 1.389 . S
C1195 C1194 1.389 . S
C1195 C1196 1.387 . S
C1196 H1181 0.930 . S
C1196 C1191 1.390 . S
C1196 C1195 1.387 . S
H1197 C1209 0.930 . S
H1198 C1211 0.930 . S
H1199 C1212 0.930 . S
H1200 C1216 0.959 . S
H1201 C1216 0.959 . S
H1202 C1216 0.961 . S
H1203 C1217 0.960 . S
H1204 C1217 0.961 . S
H1205 C1217 0.959 . S
H1206 C1220 0.929 . S
H1207 C1221 0.931 . S
H1208 C1223 0.930 . S
C1209 H1197 0.930 . S
C1209 C1210 1.399 . S
C1209 C1214 1.399 . S
C1210 C1209 1.399 . S
C1210 C1211 1.376 . S
C1211 H1198 0.930 . S
C1211 C1210 1.376 . S
C1211 C1212 1.388 . S
C1212 H1199 0.930 . S
C1212 C1211 1.388 . S
C1212 C1213 1.390 . S
C1213 C1212 1.390 . S
C1213 C1214 1.394 . S
C1213 C1219 1.465 . S
C1214 C1209 1.399 . S
C1214 C1213 1.394 . S
C1214 C1215 1.516 . S
C1215 C1214 1.516 . S
C1215 C1216 1.502 . S
C1215 C1217 1.561 . S
C1215 C1218 1.526 . S
C1216 H1200 0.959 . S
C1216 H1201 0.959 . S
C1216 H1202 0.961 . S
C1216 C1215 1.502 . S
C1217 H1203 0.960 . S
C1217 H1204 0.961 . S
C1217 H1205 0.959 . S
C1217 C1215 1.561 . S
C1218 C1215 1.526 . S
C1218 C1219 1.396 . S
C1218 C1223 1.390 . S
C1219 C1213 1.465 . S
C1219 C1218 1.396 . S
C1219 C1220 1.399 . S
C1220 H1206 0.929 . S
C1220 C1219 1.399 . S
C1220 C1221 1.385 . S
C1221 H1207 0.931 . S
C1221 C1220 1.385 . S
C1221 C1222 1.389 . S
C1222 C1221 1.389 . S
C1222 C1223 1.387 . S
C1223 H1208 0.930 . S
C1223 C1218 1.390 . S
C1223 C1222 1.387 . S
H1224 C1236 0.930 . S
H1225 C1238 0.930 . S
H1226 C1239 0.930 . S
H1227 C1243 0.959 . S
H1228 C1243 0.959 . S
H1229 C1243 0.961 . S
H1230 C1244 0.960 . S
H1231 C1244 0.961 . S
H1232 C1244 0.959 . S
H1233 C1247 0.929 . S
H1234 C1248 0.939 . S
H1235 C1250 0.930 . S
C1236 H1224 0.930 . S
C1236 C1237 1.399 . S
C1236 C1241 1.399 . S
C1237 C1236 1.399 . S
C1237 C1238 1.376 . S
C1238 H1225 0.930 . S
C1238 C1237 1.376 . S
C1238 C1239 1.388 . S
C1239 H1226 0.930 . S
C1239 C1238 1.388 . S
C1239 C1240 1.390 . S
C1240 C1239 1.390 . S
C1240 C1241 1.394 . S
C1240 C1246 1.465 . S
C1241 C1236 1.399 . S
C1241 C1240 1.394 . S
C1241 C1242 1.516 . S
C1242 C1241 1.516 . S
C1242 C1243 1.502 . S
C1242 C1244 1.561 . S
C1242 C1245 1.526 . S
C1243 H1227 0.959 . S
C1243 H1228 0.959 . S
C1243 H1229 0.961 . S
C1243 C1242 1.502 . S
C1244 H1230 0.960 . S
C1244 H1231 0.961 . S
C1244 H1232 0.959 . S
C1244 C1242 1.561 . S
C1245 C1242 1.526 . S
C1245 C1246 1.396 . S
C1245 C1250 1.390 . S
C1246 C1240 1.465 . S
C1246 C1245 1.396 . S
C1246 C1247 1.399 . S
C1247 H1233 0.929 . S
C1247 C1246 1.399 . S
C1247 C1248 1.385 . S
C1248 H1234 0.939 . S
C1248 C1247 1.385 . S
C1248 C1249 1.389 . S
C1249 C1248 1.389 . S
C1249 C1250 1.387 . S
C1250 H1235 0.930 . S
C1250 C1245 1.390 . S
C1250 C1249 1.387 . S
H1251 C1263 0.930 . S
H1252 C1265 0.930 . S
H1253 C1266 0.930 . S
H1254 C1270 0.959 . S
H1255 C1270 0.959 1_455 S
H1256 C1270 0.961 . S
H1257 C1271 0.960 . S
H1258 C1271 0.961 . S
H1259 C1271 0.959 . S
H1260 C1274 0.929 . S
H1261 C1275 0.931 . S
H1262 C1277 0.930 . S
C1263 H1251 0.930 . S
C1263 C1264 1.399 . S
C1263 C1268 1.399 . S
C1264 C1263 1.399 . S
C1264 C1265 1.376 . S
C1265 H1252 0.930 . S
C1265 C1264 1.376 . S
C1265 C1266 1.388 . S
C1266 H1253 0.930 . S
C1266 C1265 1.388 . S
C1266 C1267 1.390 1_655 S
C1267 C1266 1.390 1_455 S
C1267 C1268 1.394 1_455 S
C1267 C1273 1.465 . S
C1268 C1263 1.399 . S
C1268 C1267 1.394 1_655 S
C1268 C1269 1.516 1_655 S
C1269 C1268 1.516 1_455 S
C1269 C1270 1.502 1_455 S
C1269 C1271 1.561 . S
C1269 C1272 1.526 . S
C1270 H1254 0.959 . S
C1270 H1255 0.959 1_655 S
C1270 H1256 0.961 . S
C1270 C1269 1.502 1_655 S
C1271 H1257 0.960 . S
C1271 H1258 0.961 . S
C1271 H1259 0.959 . S
C1271 C1269 1.561 . S
C1272 C1269 1.526 . S
C1272 C1273 1.396 . S
C1272 C1277 1.390 . S
C1273 C1267 1.465 . S
C1273 C1272 1.396 . S
C1273 C1274 1.399 . S
C1274 H1260 0.929 . S
C1274 C1273 1.399 . S
C1274 C1275 1.385 . S
C1275 H1261 0.931 . S
C1275 C1274 1.385 . S
C1275 C1276 1.389 . S
C1276 C1275 1.389 . S
C1276 C1277 1.387 . S
C1277 H1262 0.930 . S
C1277 C1272 1.390 . S
C1277 C1276 1.387 . S
H1278 C1290 0.930 . S
H1279 C1292 0.930 . S
H1280 C1293 0.930 . S
H1281 C1297 0.959 . S
H1282 C1297 0.959 . S
H1283 C1297 0.961 . S
H1284 C1298 0.960 . S
H1285 C1298 0.961 . S
H1286 C1298 0.959 . S
H1287 C1301 0.929 . S
H1288 C1302 0.931 . S
H1289 C1304 0.930 . S
C1290 H1278 0.930 . S
C1290 C1291 1.399 . S
C1290 C1295 1.399 . S
C1291 C1290 1.399 . S
C1291 C1292 1.376 . S
C1292 H1279 0.930 . S
C1292 C1291 1.376 . S
C1292 C1293 1.388 . S
C1293 H1280 0.930 . S
C1293 C1292 1.388 . S
C1293 C1294 1.390 . S
C1294 C1293 1.390 . S
C1294 C1295 1.394 . S
C1294 C1300 1.465 . S
C1295 C1290 1.399 . S
C1295 C1294 1.394 . S
C1295 C1296 1.516 . S
C1296 C1295 1.516 . S
C1296 C1297 1.502 . S
C1296 C1298 1.561 . S
C1296 C1299 1.526 . S
C1297 H1281 0.959 . S
C1297 H1282 0.959 . S
C1297 H1283 0.961 . S
C1297 C1296 1.502 . S
C1298 H1284 0.960 . S
C1298 H1285 0.961 . S
C1298 H1286 0.959 . S
C1298 C1296 1.561 . S
C1299 C1296 1.526 . S
C1299 C1300 1.396 . S
C1299 C1304 1.390 . S
C1300 C1294 1.465 . S
C1300 C1299 1.396 . S
C1300 C1301 1.399 . S
C1301 H1287 0.929 . S
C1301 C1300 1.399 . S
C1301 C1302 1.385 . S
C1302 H1288 0.931 . S
C1302 C1301 1.385 . S
C1302 C1303 1.389 . S
C1303 C1302 1.389 . S
C1303 C1304 1.387 . S
C1304 H1289 0.930 . S
C1304 C1299 1.390 . S
C1304 C1303 1.387 . S
H1305 C1317 0.930 . S
H1306 C1319 0.930 . S
H1307 C1320 0.930 . S
H1308 C1324 0.959 . S
H1309 C1324 0.959 . S
H1310 C1324 0.961 . S
H1311 C1325 0.960 . S
H1312 C1325 0.961 . S
H1313 C1325 0.959 . S
H1314 C1328 0.929 . S
H1315 C1329 0.931 . S
H1316 C1331 0.930 . S
C1317 H1305 0.930 . S
C1317 C1318 1.399 . S
C1317 C1322 1.399 . S
C1318 C1317 1.399 . S
C1318 C1319 1.376 . S
C1319 H1306 0.930 . S
C1319 C1318 1.376 . S
C1319 C1320 1.388 1_565 S
C1320 H1307 0.930 . S
C1320 C1319 1.388 1_545 S
C1320 C1321 1.390 . S
C1321 C1320 1.390 . S
C1321 C1322 1.394 1_545 S
C1321 C1327 1.465 . S
C1322 C1317 1.399 . S
C1322 C1321 1.394 1_565 S
C1322 C1323 1.516 . S
C1323 C1322 1.516 . S
C1323 C1324 1.502 . S
C1323 C1325 1.561 . S
C1323 C1326 1.526 1_565 S
C1324 H1308 0.959 . S
C1324 H1309 0.959 . S
C1324 H1310 0.961 . S
C1324 C1323 1.502 . S
C1325 H1311 0.960 . S
C1325 H1312 0.961 . S
C1325 H1313 0.959 . S
C1325 C1323 1.561 . S
C1326 C1323 1.526 1_545 S
C1326 C1327 1.396 . S
C1326 C1331 1.390 . S
C1327 C1321 1.465 . S
C1327 C1326 1.396 . S
C1327 C1328 1.399 . S
C1328 H1314 0.929 . S
C1328 C1327 1.399 . S
C1328 C1329 1.385 . S
C1329 H1315 0.931 . S
C1329 C1328 1.385 . S
C1329 C1330 1.389 . S
C1330 C1329 1.389 . S
C1330 C1331 1.387 . S
C1331 H1316 0.930 . S
C1331 C1326 1.390 . S
C1331 C1330 1.387 . S
H1332 C1344 0.930 . S
H1333 C1346 0.930 . S
H1334 C1347 0.930 . S
H1335 C1351 0.959 . S
H1336 C1351 0.959 . S
H1337 C1351 0.961 . S
H1338 C1352 0.960 . S
H1339 C1352 0.961 . S
H1340 C1352 0.959 . S
H1341 C1355 0.929 . S
H1342 C1356 0.931 . S
H1343 C1358 0.930 . S
C1344 H1332 0.930 . S
C1344 C1345 1.399 . S
C1344 C1349 1.399 . S
C1345 C1344 1.399 . S
C1345 C1346 1.376 . S
C1346 H1333 0.930 . S
C1346 C1345 1.376 . S
C1346 C1347 1.388 . S
C1347 H1334 0.930 . S
C1347 C1346 1.388 . S
C1347 C1348 1.390 . S
C1348 C1347 1.390 . S
C1348 C1349 1.394 . S
C1348 C1354 1.465 . S
C1349 C1344 1.399 . S
C1349 C1348 1.394 . S
C1349 C1350 1.516 . S
C1350 C1349 1.516 . S
C1350 C1351 1.502 . S
C1350 C1352 1.561 . S
C1350 C1353 1.526 . S
C1351 H1335 0.959 . S
C1351 H1336 0.959 . S
C1351 H1337 0.961 . S
C1351 C1350 1.502 . S
C1352 H1338 0.960 . S
C1352 H1339 0.961 . S
C1352 H1340 0.959 . S
C1352 C1350 1.561 . S
C1353 C1350 1.526 . S
C1353 C1354 1.396 . S
C1353 C1358 1.390 . S
C1354 C1348 1.465 . S
C1354 C1353 1.396 . S
C1354 C1355 1.399 . S
C1355 H1341 0.929 . S
C1355 C1354 1.399 . S
C1355 C1356 1.385 . S
C1356 H1342 0.931 . S
C1356 C1355 1.385 . S
C1356 C1357 1.389 . S
C1357 C1356 1.389 . S
C1357 C1358 1.387 . S
C1358 H1343 0.930 . S
C1358 C1353 1.390 . S
C1358 C1357 1.387 . S
H1359 C1371 0.930 . S
H1360 C1373 0.930 . S
H1361 C1374 0.930 . S
H1362 C1378 0.959 . S
H1363 C1378 0.959 . S
H1364 C1378 0.961 . S
H1365 C1379 0.960 . S
H1366 C1379 0.961 . S
H1367 C1379 0.959 . S
H1368 C1382 0.929 . S
H1369 C1383 0.931 . S
H1370 C1385 0.930 . S
C1371 H1359 0.930 . S
C1371 C1372 1.399 . S
C1371 C1376 1.399 . S
C1372 C1371 1.399 . S
C1372 C1373 1.376 . S
C1373 H1360 0.930 . S
C1373 C1372 1.376 . S
C1373 C1374 1.388 . S
C1374 H1361 0.930 . S
C1374 C1373 1.388 . S
C1374 C1375 1.390 . S
C1375 C1374 1.390 . S
C1375 C1376 1.394 . S
C1375 C1381 1.465 . S
C1376 C1371 1.399 . S
C1376 C1375 1.394 . S
C1376 C1377 1.516 . S
C1377 C1376 1.516 . S
C1377 C1378 1.502 . S
C1377 C1379 1.561 . S
C1377 C1380 1.526 . S
C1378 H1362 0.959 . S
C1378 H1363 0.959 . S
C1378 H1364 0.961 . S
C1378 C1377 1.502 . S
C1379 H1365 0.960 . S
C1379 H1366 0.961 . S
C1379 H1367 0.959 . S
C1379 C1377 1.561 . S
C1380 C1377 1.526 . S
C1380 C1381 1.396 . S
C1380 C1385 1.390 . S
C1381 C1375 1.465 . S
C1381 C1380 1.396 . S
C1381 C1382 1.399 . S
C1382 H1368 0.929 . S
C1382 C1381 1.399 . S
C1382 C1383 1.385 . S
C1383 H1369 0.931 . S
C1383 C1382 1.385 . S
C1383 C1384 1.389 . S
C1384 C1383 1.389 . S
C1384 C1385 1.387 . S
C1385 H1370 0.930 . S
C1385 C1380 1.390 . S
C1385 C1384 1.387 . S
H1386 C1398 0.930 . S
H1387 C1400 0.930 . S
H1388 C1401 0.930 . S
H1389 C1405 0.959 . S
H1390 C1405 0.959 . S
H1391 C1405 0.961 . S
H1392 C1406 0.960 . S
H1393 C1406 0.961 . S
H1394 C1406 0.959 . S
H1395 C1409 0.929 . S
H1396 C1410 0.931 . S
H1397 C1412 0.930 . S
C1398 H1386 0.930 . S
C1398 C1399 1.399 . S
C1398 C1403 1.399 . S
C1399 C1398 1.399 . S
C1399 C1400 1.376 . S
C1400 H1387 0.930 . S
C1400 C1399 1.376 . S
C1400 C1401 1.388 . S
C1401 H1388 0.930 . S
C1401 C1400 1.388 . S
C1401 C1402 1.390 . S
C1402 C1401 1.390 . S
C1402 C1403 1.394 . S
C1402 C1408 1.465 . S
C1403 C1398 1.399 . S
C1403 C1402 1.394 . S
C1403 C1404 1.516 . S
C1404 C1403 1.516 . S
C1404 C1405 1.502 . S
C1404 C1406 1.561 . S
C1404 C1407 1.526 . S
C1405 H1389 0.959 . S
C1405 H1390 0.959 . S
C1405 H1391 0.961 . S
C1405 C1404 1.502 . S
C1406 H1392 0.960 . S
C1406 H1393 0.961 . S
C1406 H1394 0.959 . S
C1406 C1404 1.561 . S
C1407 C1404 1.526 . S
C1407 C1408 1.396 . S
C1407 C1412 1.390 . S
C1408 C1402 1.465 . S
C1408 C1407 1.396 . S
C1408 C1409 1.399 . S
C1409 H1395 0.929 . S
C1409 C1408 1.399 . S
C1409 C1410 1.385 . S
C1410 H1396 0.931 . S
C1410 C1409 1.385 . S
C1410 C1411 1.389 . S
C1411 C1410 1.389 . S
C1411 C1412 1.387 . S
C1412 H1397 0.930 . S
C1412 C1407 1.390 . S
C1412 C1411 1.387 . S
H1413 C1425 0.930 . S
H1414 C1427 0.930 . S
H1415 C1428 0.930 . S
H1416 C1432 0.959 . S
H1417 C1432 0.959 . S
H1418 C1432 0.961 . S
H1419 C1433 0.960 . S
H1420 C1433 0.961 . S
H1421 C1433 0.959 . S
H1422 C1436 0.929 . S
H1423 C1437 0.931 . S
H1424 C1439 0.930 . S
C1425 H1413 0.930 . S
C1425 C1426 1.399 . S
C1425 C1430 1.399 . S
C1426 C1425 1.399 . S
C1426 C1427 1.376 . S
C1427 H1414 0.930 . S
C1427 C1426 1.376 . S
C1427 C1428 1.388 . S
C1428 H1415 0.930 . S
C1428 C1427 1.388 . S
C1428 C1429 1.390 . S
C1429 C1428 1.390 . S
C1429 C1430 1.394 . S
C1429 C1435 1.465 . S
C1430 C1425 1.399 . S
C1430 C1429 1.394 . S
C1430 C1431 1.516 . S
C1431 C1430 1.516 . S
C1431 C1432 1.502 . S
C1431 C1433 1.561 . S
C1431 C1434 1.526 . S
C1432 H1416 0.959 . S
C1432 H1417 0.959 . S
C1432 H1418 0.961 . S
C1432 C1431 1.502 . S
C1433 H1419 0.960 . S
C1433 H1420 0.961 . S
C1433 H1421 0.959 . S
C1433 C1431 1.561 . S
C1434 C1431 1.526 . S
C1434 C1435 1.396 . S
C1434 C1439 1.390 . S
C1435 C1429 1.465 . S
C1435 C1434 1.396 . S
C1435 C1436 1.399 . S
C1436 H1422 0.929 . S
C1436 C1435 1.399 . S
C1436 C1437 1.385 . S
C1437 H1423 0.931 . S
C1437 C1436 1.385 . S
C1437 C1438 1.389 . S
C1438 C1437 1.389 . S
C1438 C1439 1.387 . S
C1439 H1424 0.930 . S
C1439 C1434 1.390 . S
C1439 C1438 1.387 . S
H1440 C1452 0.930 . S
H1441 C1454 0.930 . S
H1442 C1455 0.930 . S
H1443 C1459 0.959 . S
H1444 C1459 0.959 . S
H1445 C1459 0.961 . S
H1446 C1460 0.960 . S
H1447 C1460 0.961 . S
H1448 C1460 0.959 . S
H1449 C1463 0.929 . S
H1450 C1464 0.931 . S
H1451 C1466 0.930 . S
C1452 H1440 0.930 . S
C1452 C1453 1.399 . S
C1452 C1457 1.399 . S
C1453 C1452 1.399 . S
C1453 C1454 1.376 . S
C1454 H1441 0.930 . S
C1454 C1453 1.376 . S
C1454 C1455 1.388 . S
C1455 H1442 0.930 . S
C1455 C1454 1.388 . S
C1455 C1456 1.390 . S
C1456 C1455 1.390 . S
C1456 C1457 1.394 . S
C1456 C1462 1.465 . S
C1457 C1452 1.399 . S
C1457 C1456 1.394 . S
C1457 C1458 1.516 . S
C1458 C1457 1.516 . S
C1458 C1459 1.502 . S
C1458 C1460 1.561 . S
C1458 C1461 1.526 . S
C1459 H1443 0.959 . S
C1459 H1444 0.959 . S
C1459 H1445 0.961 . S
C1459 C1458 1.502 . S
C1460 H1446 0.960 . S
C1460 H1447 0.961 . S
C1460 H1448 0.959 . S
C1460 C1458 1.561 . S
C1461 C1458 1.526 . S
C1461 C1462 1.396 . S
C1461 C1466 1.390 . S
C1462 C1456 1.465 . S
C1462 C1461 1.396 . S
C1462 C1463 1.399 . S
C1463 H1449 0.929 . S
C1463 C1462 1.399 . S
C1463 C1464 1.385 . S
C1464 H1450 0.931 . S
C1464 C1463 1.385 . S
C1464 C1465 1.389 . S
C1465 C1464 1.389 . S
C1465 C1466 1.387 . S
C1466 H1451 0.930 . S
C1466 C1461 1.390 . S
C1466 C1465 1.387 . S
H1467 C1479 0.930 . S
H1468 C1481 0.930 . S
H1469 C1482 0.930 . S
H1470 C1486 0.959 . S
H1471 C1486 0.959 . S
H1472 C1486 0.961 . S
H1473 C1487 0.960 . S
H1474 C1487 0.961 . S
H1475 C1487 0.959 . S
H1476 C1490 0.929 . S
H1477 C1491 0.931 . S
H1478 C1493 0.930 . S
C1479 H1467 0.930 . S
C1479 C1480 1.399 . S
C1479 C1484 1.399 . S
C1480 C1479 1.399 . S
C1480 C1481 1.376 . S
C1481 H1468 0.930 . S
C1481 C1480 1.376 . S
C1481 C1482 1.388 . S
C1482 H1469 0.930 . S
C1482 C1481 1.388 . S
C1482 C1483 1.390 . S
C1483 C1482 1.390 . S
C1483 C1484 1.394 . S
C1483 C1489 1.465 . S
C1484 C1479 1.399 . S
C1484 C1483 1.394 . S
C1484 C1485 1.516 . S
C1485 C1484 1.516 . S
C1485 C1486 1.502 . S
C1485 C1487 1.561 . S
C1485 C1488 1.526 . S
C1486 H1470 0.959 . S
C1486 H1471 0.959 . S
C1486 H1472 0.961 . S
C1486 C1485 1.502 . S
C1487 H1473 0.960 . S
C1487 H1474 0.961 . S
C1487 H1475 0.959 . S
C1487 C1485 1.561 . S
C1488 C1485 1.526 . S
C1488 C1489 1.396 . S
C1488 C1493 1.390 . S
C1489 C1483 1.465 . S
C1489 C1488 1.396 . S
C1489 C1490 1.399 . S
C1490 H1476 0.929 . S
C1490 C1489 1.399 . S
C1490 C1491 1.385 . S
C1491 H1477 0.931 . S
C1491 C1490 1.385 . S
C1491 C1492 1.389 . S
C1492 C1491 1.389 . S
C1492 C1493 1.387 . S
C1493 H1478 0.930 . S
C1493 C1488 1.390 . S
C1493 C1492 1.387 . S
H1494 C1506 0.930 . S
H1495 C1508 0.930 . S
H1496 C1509 0.930 . S
H1497 C1513 0.959 . S
H1498 C1513 0.959 . S
H1499 C1513 0.961 . S
H1500 C1514 0.960 . S
H1501 C1514 0.961 . S
H1502 C1514 0.959 . S
H1503 C1517 0.929 . S
H1504 C1518 0.931 . S
H1505 C1520 0.930 . S
C1506 H1494 0.930 . S
C1506 C1507 1.399 . S
C1506 C1511 1.399 . S
C1507 C1506 1.399 . S
C1507 C1508 1.376 . S
C1508 H1495 0.930 . S
C1508 C1507 1.376 . S
C1508 C1509 1.388 . S
C1509 H1496 0.930 . S
C1509 C1508 1.388 . S
C1509 C1510 1.390 . S
C1510 C1509 1.390 . S
C1510 C1511 1.394 . S
C1510 C1516 1.465 . S
C1511 C1506 1.399 . S
C1511 C1510 1.394 . S
C1511 C1512 1.516 . S
C1512 C1511 1.516 . S
C1512 C1513 1.502 . S
C1512 C1514 1.561 . S
C1512 C1515 1.526 . S
C1513 H1497 0.959 . S
C1513 H1498 0.959 . S
C1513 H1499 0.961 . S
C1513 C1512 1.502 . S
C1514 H1500 0.960 . S
C1514 H1501 0.961 . S
C1514 H1502 0.959 . S
C1514 C1512 1.561 . S
C1515 C1512 1.526 . S
C1515 C1516 1.396 . S
C1515 C1520 1.390 . S
C1516 C1510 1.465 . S
C1516 C1515 1.396 . S
C1516 C1517 1.399 . S
C1517 H1503 0.929 . S
C1517 C1516 1.399 . S
C1517 C1518 1.385 . S
C1518 H1504 0.931 . S
C1518 C1517 1.385 . S
C1518 C1519 1.389 . S
C1519 C1518 1.389 . S
C1519 C1520 1.387 . S
C1520 H1505 0.930 . S
C1520 C1515 1.390 . S
C1520 C1519 1.387 . S
H1521 C1533 0.930 . S
H1522 C1535 0.930 . S
H1523 C1536 0.930 . S
H1524 C1540 0.959 . S
H1525 C1540 0.959 . S
H1526 C1540 0.961 . S
H1527 C1541 0.960 . S
H1528 C1541 0.961 . S
H1529 C1541 0.959 . S
H1530 C1544 0.929 . S
H1531 C1545 0.931 . S
H1532 C1547 0.930 . S
C1533 H1521 0.930 . S
C1533 C1534 1.399 . S
C1533 C1538 1.399 . S
C1534 C1533 1.399 . S
C1534 C1535 1.376 . S
C1535 H1522 0.930 . S
C1535 C1534 1.376 . S
C1535 C1536 1.388 . S
C1536 H1523 0.930 . S
C1536 C1535 1.388 . S
C1536 C1537 1.390 . S
C1537 C1536 1.390 . S
C1537 C1538 1.394 . S
C1537 C1543 1.465 . S
C1538 C1533 1.399 . S
C1538 C1537 1.394 . S
C1538 C1539 1.516 . S
C1539 C1538 1.516 . S
C1539 C1540 1.502 . S
C1539 C1541 1.561 . S
C1539 C1542 1.526 . S
C1540 H1524 0.959 . S
C1540 H1525 0.959 . S
C1540 H1526 0.961 . S
C1540 C1539 1.502 . S
C1541 H1527 0.960 . S
C1541 H1528 0.961 . S
C1541 H1529 0.959 . S
C1541 C1539 1.561 . S
C1542 C1539 1.526 . S
C1542 C1543 1.396 . S
C1542 C1547 1.390 . S
C1543 C1537 1.465 . S
C1543 C1542 1.396 . S
C1543 C1544 1.399 . S
C1544 H1530 0.929 . S
C1544 C1543 1.399 . S
C1544 C1545 1.385 . S
C1545 H1531 0.931 . S
C1545 C1544 1.385 . S
C1545 C1546 1.389 . S
C1546 C1545 1.389 . S
C1546 C1547 1.387 . S
C1547 H1532 0.930 . S
C1547 C1542 1.390 . S
C1547 C1546 1.387 . S
H1548 C1560 0.930 . S
H1549 C1562 0.930 . S
H1550 C1563 0.930 . S
H1551 C1567 0.959 . S
H1552 C1567 0.959 . S
H1553 C1567 0.961 . S
H1554 C1568 0.960 . S
H1555 C1568 0.961 . S
H1556 C1568 0.959 . S
H1557 C1571 0.929 . S
H1558 C1572 0.931 . S
H1559 C1574 0.930 . S
C1560 H1548 0.930 . S
C1560 C1561 1.399 . S
C1560 C1565 1.399 . S
C1561 C1560 1.399 . S
C1561 C1562 1.376 . S
C1562 H1549 0.930 . S
C1562 C1561 1.376 . S
C1562 C1563 1.388 . S
C1563 H1550 0.930 . S
C1563 C1562 1.388 . S
C1563 C1564 1.390 . S
C1564 C1563 1.390 . S
C1564 C1565 1.394 . S
C1564 C1570 1.465 . S
C1565 C1560 1.399 . S
C1565 C1564 1.394 . S
C1565 C1566 1.516 . S
C1566 C1565 1.516 . S
C1566 C1567 1.502 . S
C1566 C1568 1.561 . S
C1566 C1569 1.526 . S
C1567 H1551 0.959 . S
C1567 H1552 0.959 . S
C1567 H1553 0.961 . S
C1567 C1566 1.502 . S
C1568 H1554 0.960 . S
C1568 H1555 0.961 . S
C1568 H1556 0.959 . S
C1568 C1566 1.561 . S
C1569 C1566 1.526 . S
C1569 C1570 1.396 . S
C1569 C1574 1.390 . S
C1570 C1564 1.465 . S
C1570 C1569 1.396 . S
C1570 C1571 1.399 . S
C1571 H1557 0.929 . S
C1571 C1570 1.399 . S
C1571 C1572 1.385 . S
C1572 H1558 0.931 . S
C1572 C1571 1.385 . S
C1572 C1573 1.389 . S
C1573 C1572 1.389 . S
C1573 C1574 1.387 . S
C1574 H1559 0.930 . S
C1574 C1569 1.390 . S
C1574 C1573 1.387 . S
H1575 C1587 0.930 . S
H1576 C1589 0.930 . S
H1577 C1590 0.930 . S
H1578 C1594 0.959 . S
H1579 C1594 0.959 . S
H1580 C1594 0.961 . S
H1581 C1595 0.960 . S
H1582 C1595 0.961 . S
H1583 C1595 0.959 . S
H1584 C1598 0.929 . S
H1585 C1599 0.931 . S
H1586 C1601 0.930 . S
C1587 H1575 0.930 . S
C1587 C1588 1.399 . S
C1587 C1592 1.399 . S
C1588 C1587 1.399 . S
C1588 C1589 1.376 . S
C1589 H1576 0.930 . S
C1589 C1588 1.376 . S
C1589 C1590 1.388 . S
C1590 H1577 0.930 . S
C1590 C1589 1.388 . S
C1590 C1591 1.390 . S
C1591 C1590 1.390 . S
C1591 C1592 1.394 . S
C1591 C1597 1.465 . S
C1592 C1587 1.399 . S
C1592 C1591 1.394 . S
C1592 C1593 1.516 . S
C1593 C1592 1.516 . S
C1593 C1594 1.502 . S
C1593 C1595 1.561 . S
C1593 C1596 1.506 1_655 S
C1594 H1578 0.959 . S
C1594 H1579 0.959 . S
C1594 H1580 0.961 . S
C1594 C1593 1.502 . S
C1595 H1581 0.960 . S
C1595 H1582 0.961 . S
C1595 H1583 0.959 . S
C1595 C1593 1.561 . S
C1596 C1593 1.506 1_455 S
C1596 C1597 1.387 1_455 S
C1596 C1601 1.415 . S
C1597 C1591 1.465 . S
C1597 C1596 1.387 1_655 S
C1597 C1598 1.399 1_655 S
C1598 H1584 0.929 . S
C1598 C1597 1.399 1_455 S
C1598 C1599 1.385 . S
C1599 H1585 0.931 . S
C1599 C1598 1.385 . S
C1599 C1600 1.389 . S
C1600 C1599 1.389 . S
C1600 C1601 1.387 . S
C1601 H1586 0.930 . S
C1601 C1596 1.415 . S
C1601 C1600 1.387 . S
H1602 C1614 0.930 . S
H1603 C1616 0.930 1_565 S
H1604 C1617 0.930 . S
H1605 C1621 0.959 . S
H1606 C1621 0.959 . S
H1607 C1621 0.961 . S
H1608 C1622 0.960 . S
H1609 C1622 0.961 . S
H1610 C1622 0.959 . S
H1611 C1625 0.929 . S
H1612 C1626 0.931 . S
H1613 C1628 0.930 . S
C1614 H1602 0.930 . S
C1614 C1615 1.399 . S
C1614 C1619 1.399 . S
C1615 C1614 1.399 . S
C1615 C1616 1.376 . S
C1616 H1603 0.930 1_545 S
C1616 C1615 1.376 . S
C1616 C1617 1.388 . S
C1617 H1604 0.930 . S
C1617 C1616 1.388 . S
C1617 C1618 1.390 . S
C1618 C1617 1.390 . S
C1618 C1619 1.394 . S
C1618 C1624 1.465 . S
C1619 C1614 1.399 . S
C1619 C1618 1.394 . S
C1619 C1620 1.516 . S
C1620 C1619 1.516 . S
C1620 C1621 1.502 . S
C1620 C1622 1.561 . S
C1620 C1623 1.526 . S
C1621 H1605 0.959 . S
C1621 H1606 0.959 . S
C1621 H1607 0.961 . S
C1621 C1620 1.502 . S
C1622 H1608 0.960 . S
C1622 H1609 0.961 . S
C1622 H1610 0.959 . S
C1622 C1620 1.561 . S
C1623 C1620 1.526 . S
C1623 C1624 1.396 . S
C1623 C1628 1.390 . S
C1624 C1618 1.465 . S
C1624 C1623 1.396 . S
C1624 C1625 1.399 . S
C1625 H1611 0.929 . S
C1625 C1624 1.399 . S
C1625 C1626 1.385 . S
C1626 H1612 0.931 . S
C1626 C1625 1.385 . S
C1626 C1627 1.389 . S
C1627 C1626 1.389 . S
C1627 C1628 1.387 . S
C1628 H1613 0.930 . S
C1628 C1623 1.390 . S
C1628 C1627 1.387 . S
H1629 C1641 0.930 . S
H1630 C1643 0.930 . S
H1631 C1644 0.929 . S
H1632 C1648 0.959 . S
H1633 C1648 0.959 . S
H1634 C1648 0.961 . S
H1635 C1649 0.960 . S
H1636 C1649 0.961 . S
H1637 C1649 0.959 . S
H1638 C1652 0.929 . S
H1639 C1653 0.931 . S
H1640 C1655 0.930 . S
C1641 H1629 0.930 . S
C1641 C1642 1.399 . S
C1641 C1646 1.399 1_565 S
C1642 C1641 1.399 . S
C1642 C1643 1.376 . S
C1643 H1630 0.930 . S
C1643 C1642 1.376 . S
C1643 C1644 1.387 1_565 S
C1644 H1631 0.929 . S
C1644 C1643 1.387 1_545 S
C1644 C1645 1.393 . S
C1645 C1644 1.393 . S
C1645 C1646 1.394 . S
C1645 C1651 1.465 . S
C1646 C1641 1.399 1_545 S
C1646 C1645 1.394 . S
C1646 C1647 1.516 . S
C1647 C1646 1.516 . S
C1647 C1648 1.502 . S
C1647 C1649 1.561 . S
C1647 C1650 1.526 . S
C1648 H1632 0.959 . S
C1648 H1633 0.959 . S
C1648 H1634 0.961 . S
C1648 C1647 1.502 . S
C1649 H1635 0.960 . S
C1649 H1636 0.961 . S
C1649 H1637 0.959 . S
C1649 C1647 1.561 . S
C1650 C1647 1.526 . S
C1650 C1651 1.396 . S
C1650 C1655 1.390 . S
C1651 C1645 1.465 . S
C1651 C1650 1.396 . S
C1651 C1652 1.399 . S
C1652 H1638 0.929 . S
C1652 C1651 1.399 . S
C1652 C1653 1.385 1_655 S
C1653 H1639 0.931 . S
C1653 C1652 1.385 1_455 S
C1653 C1654 1.389 . S
C1654 C1653 1.389 . S
C1654 C1655 1.387 1_455 S
C1655 H1640 0.930 . S
C1655 C1650 1.390 . S
C1655 C1654 1.387 1_655 S
H1656 C1668 0.930 . S
H1657 C1670 0.930 . S
H1658 C1671 0.930 . S
H1659 C1675 0.959 1_545 S
H1660 C1675 0.959 1_545 S
H1661 C1675 0.961 . S
H1662 C1676 0.960 . S
H1663 C1676 0.961 . S
H1664 C1676 0.959 . S
H1665 C1679 0.929 1_565 S
H1666 C1680 0.931 . S
H1667 C1682 0.930 . S
C1668 H1656 0.930 . S
C1668 C1669 1.399 . S
C1668 C1673 1.399 . S
C1669 C1668 1.399 . S
C1669 C1670 1.376 . S
C1670 H1657 0.930 . S
C1670 C1669 1.376 . S
C1670 C1671 1.388 . S
C1671 H1658 0.930 . S
C1671 C1670 1.388 . S
C1671 C1672 1.390 . S
C1672 C1671 1.390 . S
C1672 C1673 1.394 . S
C1672 C1678 1.465 . S
C1673 C1668 1.399 . S
C1673 C1672 1.394 . S
C1673 C1674 1.516 . S
C1674 C1673 1.516 . S
C1674 C1675 1.502 . S
C1674 C1676 1.561 . S
C1674 C1677 1.526 1_565 S
C1675 H1659 0.959 1_565 S
C1675 H1660 0.959 1_565 S
C1675 H1661 0.961 . S
C1675 C1674 1.502 . S
C1676 H1662 0.960 . S
C1676 H1663 0.961 . S
C1676 H1664 0.959 . S
C1676 C1674 1.561 . S
C1677 C1674 1.526 1_545 S
C1677 C1678 1.396 1_545 S
C1677 C1682 1.390 . S
C1678 C1672 1.465 . S
C1678 C1677 1.396 1_565 S
C1678 C1679 1.399 1_565 S
C1679 H1665 0.929 1_545 S
C1679 C1678 1.399 1_545 S
C1679 C1680 1.385 . S
C1680 H1666 0.931 . S
C1680 C1679 1.385 . S
C1680 C1681 1.389 . S
C1681 C1680 1.389 . S
C1681 C1682 1.387 . S
C1682 H1667 0.930 . S
C1682 C1677 1.390 . S
C1682 C1681 1.387 . S
H1683 C1695 0.930 1_545 S
H1684 C1697 0.930 . S
H1685 C1698 0.930 . S
H1686 C1702 0.959 . S
H1687 C1702 0.959 1_655 S
H1688 C1702 0.961 . S
H1689 C1703 0.960 . S
H1690 C1703 0.961 . S
H1691 C1703 0.959 . S
H1692 C1706 0.929 . S
H1693 C1707 0.931 . S
H1694 C1709 0.930 . S
C1695 H1683 0.930 1_565 S
C1695 C1696 1.399 . S
C1695 C1700 1.399 . S
C1696 C1695 1.399 . S
C1696 C1697 1.376 . S
C1697 H1684 0.930 . S
C1697 C1696 1.376 . S
C1697 C1698 1.388 . S
C1698 H1685 0.930 . S
C1698 C1697 1.388 . S
C1698 C1699 1.390 . S
C1699 C1698 1.390 . S
C1699 C1700 1.394 . S
C1699 C1705 1.465 . S
C1700 C1695 1.399 . S
C1700 C1699 1.394 . S
C1700 C1701 1.516 . S
C1701 C1700 1.516 . S
C1701 C1702 1.502 . S
C1701 C1703 1.561 . S
C1701 C1704 1.526 . S
C1702 H1686 0.959 . S
C1702 H1687 0.959 1_455 S
C1702 H1688 0.961 . S
C1702 C1701 1.502 . S
C1703 H1689 0.960 . S
C1703 H1690 0.961 . S
C1703 H1691 0.959 . S
C1703 C1701 1.561 . S
C1704 C1701 1.526 . S
C1704 C1705 1.396 . S
C1704 C1709 1.390 1_455 S
C1705 C1699 1.465 . S
C1705 C1704 1.396 . S
C1705 C1706 1.399 . S
C1706 H1692 0.929 . S
C1706 C1705 1.399 . S
C1706 C1707 1.385 1_455 S
C1707 H1693 0.931 . S
C1707 C1706 1.385 1_655 S
C1707 C1708 1.389 . S
C1708 C1707 1.389 . S
C1708 C1709 1.387 . S
C1709 H1694 0.930 . S
C1709 C1704 1.390 1_655 S
C1709 C1708 1.387 . S
H1710 C1722 0.930 . S
H1711 C1724 0.930 . S
H1712 C1725 0.930 . S
H1713 C1729 0.959 . S
H1714 C1729 0.959 . S
H1715 C1729 0.961 . S
H1716 C1730 0.960 . S
H1717 C1730 0.961 . S
H1718 C1730 0.959 . S
H1719 C1733 0.929 . S
H1720 C1734 0.931 . S
H1721 C1736 0.930 . S
C1722 H1710 0.930 . S
C1722 C1723 1.399 . S
C1722 C1727 1.399 . S
C1723 C1722 1.399 . S
C1723 C1724 1.376 . S
C1724 H1711 0.930 . S
C1724 C1723 1.376 . S
C1724 C1725 1.388 . S
C1725 H1712 0.930 . S
C1725 C1724 1.388 . S
C1725 C1726 1.390 . S
C1726 C1725 1.390 . S
C1726 C1727 1.394 . S
C1726 C1732 1.465 . S
C1727 C1722 1.399 . S
C1727 C1726 1.394 . S
C1727 C1728 1.516 . S
C1728 C1727 1.516 . S
C1728 C1729 1.502 . S
C1728 C1730 1.561 . S
C1728 C1731 1.526 . S
C1729 H1713 0.959 . S
C1729 H1714 0.959 . S
C1729 H1715 0.961 . S
C1729 C1728 1.502 . S
C1730 H1716 0.960 . S
C1730 H1717 0.961 . S
C1730 H1718 0.959 . S
C1730 C1728 1.561 . S
C1731 C1728 1.526 . S
C1731 C1732 1.396 . S
C1731 C1736 1.390 . S
C1732 C1726 1.465 . S
C1732 C1731 1.396 . S
C1732 C1733 1.399 . S
C1733 H1719 0.929 . S
C1733 C1732 1.399 . S
C1733 C1734 1.385 . S
C1734 H1720 0.931 . S
C1734 C1733 1.385 . S
C1734 C1735 1.389 . S
C1735 C1734 1.389 . S
C1735 C1736 1.387 . S
C1736 H1721 0.930 . S
C1736 C1731 1.390 . S
C1736 C1735 1.387 . S
H1737 C1749 0.930 . S
H1738 C1751 0.930 . S
H1739 C1752 0.930 . S
H1740 C1756 0.959 . S
H1741 C1756 0.959 . S
H1742 C1756 0.961 . S
H1743 C1757 0.960 . S
H1744 C1757 0.961 . S
H1745 C1757 0.959 . S
H1746 C1760 0.929 . S
H1747 C1761 0.931 . S
H1748 C1763 0.930 . S
C1749 H1737 0.930 . S
C1749 C1750 1.399 . S
C1749 C1754 1.399 . S
C1750 C1749 1.399 . S
C1750 C1751 1.376 . S
C1751 H1738 0.930 . S
C1751 C1750 1.376 . S
C1751 C1752 1.388 . S
C1752 H1739 0.930 . S
C1752 C1751 1.388 . S
C1752 C1753 1.390 . S
C1753 C1752 1.390 . S
C1753 C1754 1.394 . S
C1753 C1759 1.465 . S
C1754 C1749 1.399 . S
C1754 C1753 1.394 . S
C1754 C1755 1.516 . S
C1755 C1754 1.516 . S
C1755 C1756 1.502 . S
C1755 C1757 1.561 . S
C1755 C1758 1.526 . S
C1756 H1740 0.959 . S
C1756 H1741 0.959 . S
C1756 H1742 0.961 . S
C1756 C1755 1.502 . S
C1757 H1743 0.960 . S
C1757 H1744 0.961 . S
C1757 H1745 0.959 . S
C1757 C1755 1.561 . S
C1758 C1755 1.526 . S
C1758 C1759 1.396 . S
C1758 C1763 1.390 . S
C1759 C1753 1.465 . S
C1759 C1758 1.396 . S
C1759 C1760 1.399 . S
C1760 H1746 0.929 . S
C1760 C1759 1.399 . S
C1760 C1761 1.385 . S
C1761 H1747 0.931 . S
C1761 C1760 1.385 . S
C1761 C1762 1.389 . S
C1762 C1761 1.389 . S
C1762 C1763 1.387 . S
C1763 H1748 0.930 . S
C1763 C1758 1.390 . S
C1763 C1762 1.387 . S
H1764 C1776 0.930 . S
H1765 C1778 0.930 . S
H1766 C1779 0.930 . S
H1767 C1783 0.959 . S
H1768 C1783 0.959 . S
H1769 C1783 0.961 . S
H1770 C1784 0.960 . S
H1771 C1784 0.961 . S
H1772 C1784 0.959 . S
H1773 C1787 0.929 . S
H1774 C1788 0.931 . S
H1775 C1790 0.930 . S
C1776 H1764 0.930 . S
C1776 C1777 1.399 . S
C1776 C1781 1.399 . S
C1777 C1776 1.399 . S
C1777 C1778 1.376 . S
C1778 H1765 0.930 . S
C1778 C1777 1.376 . S
C1778 C1779 1.388 . S
C1779 H1766 0.930 . S
C1779 C1778 1.388 . S
C1779 C1780 1.390 . S
C1780 C1779 1.390 . S
C1780 C1781 1.394 . S
C1780 C1786 1.465 . S
C1781 C1776 1.399 . S
C1781 C1780 1.394 . S
C1781 C1782 1.516 . S
C1782 C1781 1.516 . S
C1782 C1783 1.502 . S
C1782 C1784 1.561 . S
C1782 C1785 1.526 . S
C1783 H1767 0.959 . S
C1783 H1768 0.959 . S
C1783 H1769 0.961 . S
C1783 C1782 1.502 . S
C1784 H1770 0.960 . S
C1784 H1771 0.961 . S
C1784 H1772 0.959 . S
C1784 C1782 1.561 . S
C1785 C1782 1.526 . S
C1785 C1786 1.396 . S
C1785 C1790 1.390 . S
C1786 C1780 1.465 . S
C1786 C1785 1.396 . S
C1786 C1787 1.399 . S
C1787 H1773 0.929 . S
C1787 C1786 1.399 . S
C1787 C1788 1.385 . S
C1788 H1774 0.931 . S
C1788 C1787 1.385 . S
C1788 C1789 1.389 . S
C1789 C1788 1.389 . S
C1789 C1790 1.387 . S
C1790 H1775 0.930 . S
C1790 C1785 1.390 . S
C1790 C1789 1.387 . S
H1791 C1803 0.930 . S
H1792 C1805 0.930 . S
H1793 C1806 0.930 . S
H1794 C1810 0.959 . S
H1795 C1810 0.959 . S
H1796 C1810 0.961 . S
H1797 C1811 0.960 . S
H1798 C1811 0.961 . S
H1799 C1811 0.959 . S
H1800 C1814 0.929 . S
H1801 C1815 0.931 . S
H1802 C1817 0.930 . S
C1803 H1791 0.930 . S
C1803 C1804 1.399 . S
C1803 C1808 1.399 . S
C1804 C1803 1.399 . S
C1804 C1805 1.376 . S
C1805 H1792 0.930 . S
C1805 C1804 1.376 . S
C1805 C1806 1.388 . S
C1806 H1793 0.930 . S
C1806 C1805 1.388 . S
C1806 C1807 1.390 . S
C1807 C1806 1.390 . S
C1807 C1808 1.394 . S
C1807 C1813 1.465 . S
C1808 C1803 1.399 . S
C1808 C1807 1.394 . S
C1808 C1809 1.516 . S
C1809 C1808 1.516 . S
C1809 C1810 1.502 . S
C1809 C1811 1.561 . S
C1809 C1812 1.526 . S
C1810 H1794 0.959 . S
C1810 H1795 0.959 . S
C1810 H1796 0.961 . S
C1810 C1809 1.502 . S
C1811 H1797 0.960 . S
C1811 H1798 0.961 . S
C1811 H1799 0.959 . S
C1811 C1809 1.561 . S
C1812 C1809 1.526 . S
C1812 C1813 1.396 . S
C1812 C1817 1.390 . S
C1813 C1807 1.465 . S
C1813 C1812 1.396 . S
C1813 C1814 1.399 . S
C1814 H1800 0.929 . S
C1814 C1813 1.399 . S
C1814 C1815 1.385 . S
C1815 H1801 0.931 . S
C1815 C1814 1.385 . S
C1815 C1816 1.389 . S
C1816 C1815 1.389 . S
C1816 C1817 1.387 . S
C1817 H1802 0.930 . S
C1817 C1812 1.390 . S
C1817 C1816 1.387 . S
C373 C6 1.160 . S
C385 C59 1.134 . S
C400 C19 1.177 . S
C412 C26 1.152 . S
C427 C39 1.097 . S
C439 C46 1.111 . S
C454 C66 1.094 . S
C466 C99 1.135 . S
C481 C119 1.094 . S
C493 C86 1.101 . S
C508 C106 1.162 . S
C520 C79 1.137 . S
C535 C179 1.177 . S
C547 C126 1.152 . S
C562 C139 1.095 . S
C574 C146 1.096 1_545 S
C589 C166 1.092 . S
C601 C159 1.131 . S
C616 C219 1.096 . S
C628 C186 1.108 . S
C643 C206 1.116 . S
C655 C239 1.100 . S
C670 C199 1.093 . S
C682 C226 1.091 . S
C697 C246 1.106 . S
C709 C299 1.147 . S
C724 C259 1.094 . S
C736 C266 1.104 . S
C751 C279 1.151 . S
C763 C286 1.110 . S
C778 C339 1.164 . S
C790 C306 1.127 . S
C805 C359 1.093 . S
C817 C326 1.094 . S
C832 C319 1.095 . S
C844 C346 1.087 1_455 S
C859 C9 1.711 . S
C871 C109 1.751 . S
C886 C69 1.683 . S
C898 C29 1.735 . S
C913 C89 1.693 . S
C925 C49 1.696 . S
C940 C129 1.711 . S
C952 C229 1.751 . S
C967 C149 1.684 . S
C979 C189 1.709 . S
C994 C209 1.690 . S
C1006 C169 1.699 . S
C1021 C249 1.710 . S
C1033 C349 1.750 . S
C1048 C309 1.685 . S
C1060 C269 1.737 . S
C1075 C329 1.690 . S
C1087 C289 1.701 . S
C1102 C201 1.869 . S
C1114 C1 1.875 . S
C1129 C21 1.873 . S
C1141 C221 1.870 . S
C1156 C181 1.864 . S
C1168 C41 1.881 . S
C1183 C61 1.867 . S
C1195 C281 1.879 . S
C1210 C81 1.865 . S
C1222 C241 1.880 . S
C1237 C261 1.877 . S
C1249 C101 1.868 . S
C1264 C321 1.888 . S
C1276 C121 1.897 . S
C1291 C141 1.864 . S
C1303 C341 1.883 . S
C1318 C161 1.862 . S
C1330 C301 1.893 . S
C1345 C48 1.710 . S
C1357 C16 1.789 . S
C1372 C8 1.703 . S
C1384 C36 1.786 . S
C1399 C56 1.811 . S
C1411 C28 1.758 . S
C1426 C88 1.717 . S
C1438 C76 1.793 . S
C1453 C108 1.738 . S
C1465 C96 1.801 . S
C1480 C116 1.778 . S
C1492 C68 1.692 . S
C1507 C168 1.698 . S
C1519 C136 1.784 . S
C1534 C156 1.806 . S
C1546 C128 1.746 . S
C1561 C148 1.736 . S
C1573 C176 1.800 . S
C1588 C196 1.810 . S
C1600 C208 1.754 . S
C1615 C216 1.811 1_545 S
C1627 C228 1.758 . S
C1642 C188 1.742 . S
C1654 C236 1.802 . S
C1669 C256 1.777 . S
C1681 C288 1.690 . S
C1696 C276 1.774 1_565 S
C1708 C248 1.682 . S
C1723 C268 1.707 . S
C1735 C296 1.788 1_455 S
C1750 C316 1.782 . S
C1762 C328 1.699 . S
C1777 C336 1.780 . S
C1789 C348 1.696 . S
C1804 C308 1.706 . S
C1816 C356 1.788 . S
