# Generated by pormake.
# Topology umz, (4)-cn, num edge types: 1
# Building blocks:
#     Node 0, Type 0, BuildingBlock: ICAMEG_clean_sbu_1, # of connection points: 4
#     Node 1, Type 0, BuildingBlock: ICAMEG_clean_sbu_1, # of connection points: 4
#     Node 2, Type 0, BuildingBlock: ICAMEG_clean_sbu_1, # of connection points: 4
#     Node 3, Type 0, BuildingBlock: ICAMEG_clean_sbu_1, # of connection points: 4
#     Node 4, Type 0, BuildingBlock: ICAMEG_clean_sbu_1, # of connection points: 4
#     Node 5, Type 0, BuildingBlock: ICAMEG_clean_sbu_1, # of connection points: 4
#     Node 6, Type 0, BuildingBlock: ICAMEG_clean_sbu_1, # of connection points: 4
#     Node 7, Type 0, BuildingBlock: ICAMEG_clean_sbu_1, # of connection points: 4
#     Node 8, Type 0, BuildingBlock: ICAMEG_clean_sbu_1, # of connection points: 4
#     Node 9, Type 0, BuildingBlock: ICAMEG_clean_sbu_1, # of connection points: 4
#     Node 10, Type 0, BuildingBlock: ICAMEG_clean_sbu_1, # of connection points: 4
#     Node 11, Type 0, BuildingBlock: ICAMEG_clean_sbu_1, # of connection points: 4
#     Node 12, Type 0, BuildingBlock: ICAMEG_clean_sbu_1, # of connection points: 4
#     Node 13, Type 0, BuildingBlock: ICAMEG_clean_sbu_1, # of connection points: 4
#     Node 14, Type 0, BuildingBlock: ICAMEG_clean_sbu_1, # of connection points: 4
#     Node 15, Type 0, BuildingBlock: ICAMEG_clean_sbu_1, # of connection points: 4
#     Edge 16, Type (0, 0), None
#     Edge 17, Type (0, 0), None
#     Edge 18, Type (0, 0), None
#     Edge 19, Type (0, 0), None
#     Edge 20, Type (0, 0), None
#     Edge 21, Type (0, 0), None
#     Edge 22, Type (0, 0), None
#     Edge 23, Type (0, 0), None
#     Edge 24, Type (0, 0), None
#     Edge 25, Type (0, 0), None
#     Edge 26, Type (0, 0), None
#     Edge 27, Type (0, 0), None
#     Edge 28, Type (0, 0), None
#     Edge 29, Type (0, 0), None
#     Edge 30, Type (0, 0), None
#     Edge 31, Type (0, 0), None
#     Edge 32, Type (0, 0), None
#     Edge 33, Type (0, 0), None
#     Edge 34, Type (0, 0), None
#     Edge 35, Type (0, 0), None
#     Edge 36, Type (0, 0), None
#     Edge 37, Type (0, 0), None
#     Edge 38, Type (0, 0), None
#     Edge 39, Type (0, 0), None
#     Edge 40, Type (0, 0), None
#     Edge 41, Type (0, 0), None
#     Edge 42, Type (0, 0), None
#     Edge 43, Type (0, 0), None
#     Edge 44, Type (0, 0), None
#     Edge 45, Type (0, 0), None
#     Edge 46, Type (0, 0), None
#     Edge 47, Type (0, 0), None
# Relax obj value: 0.198
# Max RMSD: 0.207
# Mean RMSD: 0.177
data_MOF--net-umz--node1-ICAMEG_clean_sbu_1--edge1-none
_symmetry_space_group_name_H-M    P1
_symmetry_Int_Tables_number       1
_symmetry_cell_setting            triclinic
loop_
_symmetry_equiv_pos_as_xyz
'x, y, z'
_cell_length_a     29.316079
_cell_length_b     29.312179
_cell_length_c     12.243829
_cell_angle_alpha  90.149624
_cell_angle_beta   89.734405
_cell_angle_gamma 89.091933
loop_
_atom_site_label
_atom_site_type_symbol
_atom_site_fract_x
_atom_site_fract_y
_atom_site_fract_z
_atom_type_partial_charge
Co0 Co 0.95488 0.56325 0.96927 0.0
Co1 Co 0.00358 0.6489 0.11601 0.0
O2 O 0.99279 0.6138 -0.01324 0.0
C3 C 0.01978 0.55312 0.74831 0.0
O4 O 0.04292 0.58911 0.77609 0.0
C5 C 0.94726 0.73357 0.08642 0.0
O6 O 0.94351 0.73181 0.1928 0.0
O7 O 0.94228 0.63584 0.19077 0.0
O8 O 0.9214 0.57255 0.10972 0.0
H9 H -0.00507 0.71023 0.50488 0.0
H10 H 0.85829 0.59402 0.00805 0.0
O11 O 0.98736 0.54177 0.81657 0.0
H12 H 0.91452 0.69287 0.71869 0.0
H13 H 0.84448 0.51852 0.86904 0.0
H14 H 0.93306 0.48408 0.08444 0.0
H15 H 0.96528 0.63581 0.80435 0.0
H16 H 0.91011 0.52537 0.88216 0.0
O17 O 0.97362 0.70415 0.03855 0.0
H18 H 0.97836 0.65492 0.35869 0.0
H19 H 0.05548 0.73434 0.13784 0.0
H20 H 0.88236 0.41475 0.06446 0.0
H21 H 0.80756 0.65291 0.9363 0.0
H22 H 0.83247 0.4132 0.90733 0.0
H23 H 0.83402 0.70168 0.78797 0.0
O24 O 0.00223 0.52982 0.07703 0.0
H25 H 0.1157 0.67172 0.80821 0.0
H26 H 0.09807 0.64623 0.20227 0.0
H27 H 0.1747 0.65951 0.12656 0.0
H28 H 0.18414 0.67089 0.92678 0.0
H29 H 0.03913 0.66843 0.89076 0.0
H30 H 0.07872 0.78474 0.28586 0.0
H31 H 0.04981 0.77147 0.47361 0.0
O32 O 0.02832 0.58999 0.1828 0.0
C33 C 0.91646 0.60104 0.18622 0.0
C34 C 0.01088 0.71329 0.42593 0.0
C35 C 0.05747 0.75574 0.30315 0.0
N36 N 0.01952 0.68805 0.24032 0.0
C37 C 0.0013 0.68238 0.34204 0.0
C38 C 0.04482 0.7262 0.21968 0.0
C39 C 0.04117 0.74843 0.40791 0.0
C40 C 0.87036 0.61405 0.94172 0.0
N41 N 0.91289 0.60634 0.89798 0.0
C42 C 0.84159 0.64832 0.90291 0.0
C43 C 0.85707 0.67638 0.82068 0.0
C44 C 0.90159 0.67103 0.78176 0.0
C45 C 0.92962 0.63687 0.82542 0.0
C46 C 0.84254 0.4822 0.86153 0.0
C47 C 0.91152 0.47904 0.01975 0.0
C48 C 0.87292 0.51971 0.87757 0.0
N49 N 0.91201 0.51348 0.94386 0.0
C50 C 0.88176 0.44311 0.00937 0.0
C51 C 0.85114 0.44343 0.92408 0.0
C52 C 0.02593 0.5464 0.16153 0.0
C53 C 0.11208 0.66839 0.89557 0.0
C54 C 0.10156 0.65426 0.11653 0.0
C55 C 0.14515 0.66137 0.07402 0.0
C56 C 0.15044 0.66761 0.96208 0.0
N57 N 0.06369 0.65881 0.052 0.0
C58 C 0.06868 0.66588 0.94262 0.0
Co59 Co 0.93094 0.97962 0.48495 0.0
Co60 Co 0.81676 0.94784 0.60857 0.0
O61 O 0.85693 0.97351 0.49759 0.0
C62 C 0.94474 0.09965 0.28724 0.0
O63 O 0.93407 0.129 0.3651 0.0
C64 C 0.75518 0.90718 0.42362 0.0
O65 O 0.74689 0.86718 0.38003 0.0
O66 O 0.86501 0.90114 0.63079 0.0
O67 O 0.92833 0.9422 0.62326 0.0
H68 H 0.74875 0.92713 -0.01117 0.0
H69 H 0.85606 0.92338 0.35904 0.0
O70 O 0.94474 0.05697 0.30041 0.0
H71 H 0.97978 0.813 0.41665 0.0
H72 H 0.11166 0.92048 0.46335 0.0
H73 H 0.99367 0.02283 0.64655 0.0
H74 H 0.97903 0.88482 0.51523 0.0
H75 H 0.02867 0.91797 0.40734 0.0
O76 O 0.78532 0.90768 0.49937 0.0
H77 H 0.78418 0.97193 0.84281 0.0
H78 H 0.79079 0.8536 0.64238 0.0
H79 H 0.07855 0.02583 0.7096 0.0
H80 H 0.84441 0.84449 0.31645 0.0
H81 H 0.13547 0.97105 0.62938 0.0
H82 H 0.91023 0.79137 0.31463 0.0
O83 O 0.91133 0.00853 0.63233 0.0
H84 H 0.79093 0.09849 0.46767 0.0
H85 H 0.72796 0.9891 0.72551 0.0
H86 H 0.72978 0.07037 0.77788 0.0
H87 H 0.76466 0.1258 0.65031 0.0
H88 H 0.79382 0.01595 0.43008 0.0
H89 H 0.76663 0.80689 0.79743 0.0
H90 H 0.74716 0.84375 0.97362 0.0
O91 O 0.84441 0.98911 0.71187 0.0
C92 C 0.90288 0.91295 0.67031 0.0
C93 C 0.75876 0.91108 0.91314 0.0
C94 C 0.76824 0.84356 0.80557 0.0
N95 N 0.78424 0.91715 0.72691 0.0
C96 C 0.77679 0.93656 0.82746 0.0
C97 C 0.7811 0.87068 0.71723 0.0
C98 C 0.75679 0.86412 0.90396 0.0
C99 C 0.88351 0.90007 0.37873 0.0
N100 N 0.92326 0.91369 0.42904 0.0
C101 C 0.87716 0.85523 0.34615 0.0
C102 C 0.91374 0.82515 0.34806 0.0
C103 C 0.95279 0.83748 0.40351 0.0
C104 C 0.95437 0.88013 0.45314 0.0
C105 C 0.08725 0.9434 0.50222 0.0
C106 C 0.01852 0.00183 0.60907 0.0
C107 C 0.03714 0.94147 0.47172 0.0
N108 N 0.00273 0.96758 0.53346 0.0
C109 C 0.06786 0.00468 0.64257 0.0
C110 C 0.10168 0.97331 0.59487 0.0
C111 C 0.87829 0.0148 0.7005 0.0
C112 C 0.77971 0.0745 0.52884 0.0
C113 C 0.74637 0.01232 0.67516 0.0
C114 C 0.74579 0.05863 0.70289 0.0
C115 C 0.76493 0.08975 0.63091 0.0
N116 N 0.77123 -0.00307 0.58774 0.0
C117 C 0.78119 0.02763 0.5077 0.0
Co118 Co 0.53543 0.93131 0.96147 0.0
Co119 Co 0.49725 0.8429 0.1107 0.0
O120 O 0.49857 0.87882 -0.02045 0.0
C121 C 0.47155 0.93251 0.74268 0.0
O122 O 0.45498 0.89258 0.7674 0.0
C123 C 0.55407 0.76445 0.00929 0.0
O124 O 0.59116 0.7756 0.06196 0.0
O125 O 0.56237 0.85698 0.16164 0.0
O126 O 0.57132 0.92471 0.09529 0.0
H127 H 0.56169 0.79262 0.46721 0.0
H128 H 0.55807 0.89076 0.84839 0.0
O129 O 0.50019 0.94947 0.81279 0.0
H130 H 0.67378 0.82777 0.93993 0.0
H131 H 0.66249 0.02292 0.79007 0.0
H132 H 0.55806 0.00797 0.09101 0.0
H133 H 0.63682 0.90106 -0.01349 0.0
H134 H 0.61477 0.95603 0.81404 0.0
O135 O 0.51743 0.78817 0.01924 0.0
H136 H 0.52777 0.85164 0.34548 0.0
H137 H 0.48521 0.79029 0.19803 0.0
H138 H 0.60086 0.08162 0.073 0.0
H139 H 0.56944 0.79986 0.70913 0.0
H140 H 0.65308 0.08856 0.91547 0.0
H141 H 0.64049 0.7778 0.80127 0.0
O142 O 0.48799 0.96081 0.07644 0.0
H143 H 0.36926 0.79784 0.85898 0.0
H144 H 0.41096 0.8357 0.23711 0.0
H145 H 0.33258 0.81129 0.19624 0.0
H146 H 0.3112 0.79348 0.00561 0.0
H147 H 0.44841 0.81833 0.90426 0.0
H148 H 0.50998 0.69013 0.26102 0.0
H149 H 0.55857 0.714 0.4107 0.0
O150 O 0.47431 0.89984 0.19043 0.0
C151 C 0.58176 0.89563 0.16496 0.0
C152 C 0.54182 0.78397 0.39658 0.0
C153 C 0.51198 0.72555 0.28008 0.0
N154 N 0.49536 0.80294 0.23891 0.0
C155 C 0.52004 0.81669 0.33351 0.0
C156 C 0.48692 0.7564 0.21824 0.0
C157 C 0.54066 0.73918 0.36362 0.0
C158 C 0.55924 0.86248 0.79749 0.0
N159 N 0.57801 0.89061 0.87897 0.0
C160 C 0.58317 0.82226 0.77067 0.0
C161 C 0.62365 0.80978 0.82226 0.0
C162 C 0.64309 0.83842 0.89873 0.0
C163 C 0.62154 0.8794 0.92586 0.0
C164 C 0.63748 0.02205 0.85454 0.0
C165 C 0.57528 0.01627 0.01977 0.0
C166 C 0.6101 0.98386 0.86774 0.0
N167 N 0.57587 0.98341 0.94292 0.0
C168 C 0.60127 0.05574 0.0103 0.0
C169 C 0.63143 0.05928 0.92341 0.0
C170 C 0.46965 0.943 0.16718 0.0
C171 C 0.37836 0.80586 0.94214 0.0
C172 C 0.40199 0.82753 0.15409 0.0
C173 C 0.35757 0.8139 0.13151 0.0
C174 C 0.34565 0.80351 0.02453 0.0
N175 N 0.43428 0.82878 0.07328 0.0
C176 C 0.42294 0.81797 0.9683 0.0
Co177 Co 0.55668 0.53746 0.46456 0.0
Co178 Co 0.64761 0.48968 0.59823 0.0
O179 O 0.61106 0.50183 0.47275 0.0
C180 C 0.55152 0.46875 0.25177 0.0
O181 O 0.58894 0.44844 0.28501 0.0
C182 C 0.72159 0.55233 0.50884 0.0
O183 O 0.70278 0.58923 0.55132 0.0
O184 O 0.63294 0.55134 0.6754 0.0
O185 O 0.56742 0.57159 0.60163 0.0
H186 H 0.69975 0.48486 -0.01565 0.0
H187 H 0.56619 0.63849 0.48563 0.0
O188 O 0.53759 0.50295 0.31348 0.0
H189 H 0.69461 0.58803 0.257 0.0
H190 H 0.44797 0.65487 0.29318 0.0
H191 H 0.48808 0.56616 0.60986 0.0
H192 H 0.63338 0.53447 0.30491 0.0
H193 H 0.52032 0.6085 0.30583 0.0
O194 O 0.7031 0.51353 0.5199 0.0
H195 H 0.65395 0.51406 0.83608 0.0
H196 H 0.73647 0.43976 0.61206 0.0
H197 H 0.41473 0.61351 0.61135 0.0
H198 H 0.62986 0.68971 0.45289 0.0
H199 H 0.39639 0.65688 0.44821 0.0
H200 H 0.69425 0.66472 0.33585 0.0
O201 O 0.52821 0.48866 0.5759 0.0
H202 H 0.70029 0.3857 0.29331 0.0
H203 H 0.64683 0.39291 0.67543 0.0
H204 H 0.67525 0.31965 0.59981 0.0
H205 H 0.70104 0.3155 0.40645 0.0
H206 H 0.67598 0.45894 0.37546 0.0
H207 H 0.78043 0.40619 0.7624 0.0
H208 H 0.7592 0.42696 0.95474 0.0
O209 O 0.5908 0.46429 0.6728 0.0
C210 C 0.59653 0.57654 0.67527 0.0
C211 C 0.7083 0.47504 0.9038 0.0
C212 C 0.75272 0.42988 0.77937 0.0
N213 N 0.6886 0.47432 0.71641 0.0
C214 C 0.6817 0.49092 0.81844 0.0
C215 C 0.727 0.44845 0.69474 0.0
C216 C 0.74179 0.44213 0.8859 0.0
C217 C 0.59292 0.62712 0.43106 0.0
N218 N 0.59319 0.58358 0.38913 0.0
C219 C 0.62927 0.65656 0.41393 0.0
C220 C 0.66572 0.64242 0.34959 0.0
C221 C 0.66557 0.59906 0.30428 0.0
C222 C 0.62951 0.56971 0.32667 0.0
C223 C 0.45523 0.63314 0.3621 0.0
C224 C 0.47444 0.58015 0.53891 0.0
C225 C 0.49566 0.60696 0.36949 0.0
N226 N 0.5022 0.57676 0.45223 0.0
C227 C 0.43473 0.60748 0.5386 0.0
C228 C 0.42439 0.63268 0.44707 0.0
C229 C 0.5467 0.46618 0.66042 0.0
C230 C 0.68886 0.387 0.37749 0.0
C231 C 0.65848 0.39147 0.5917 0.0
C232 C 0.67501 0.34999 0.5496 0.0
C233 C 0.68939 0.34766 0.44107 0.0
N234 N 0.66008 0.43039 0.53053 0.0
C235 C 0.67462 0.42835 0.42426 0.0
Co236 Co 0.97962 0.93092 0.9697 0.0
Co237 Co 0.94786 0.81679 0.8463 0.0
O238 O 0.97355 0.85689 0.9572 0.0
C239 C 0.09963 0.9448 0.16683 0.0
O240 O 0.12897 0.93416 0.08887 0.0
C241 C 0.90732 0.75503 0.03111 0.0
O242 O 0.86739 0.74651 0.07501 0.0
O243 O 0.90114 0.86503 0.82442 0.0
O244 O 0.94219 0.92835 0.83153 0.0
H245 H 0.92725 0.74888 0.46628 0.0
H246 H 0.92351 0.85593 0.09611 0.0
O247 O 0.05694 0.9447 0.15391 0.0
H248 H 0.81286 0.97938 0.03825 0.0
H249 H 0.92044 0.11164 -0.00914 0.0
H250 H 0.02281 0.99369 0.80772 0.0
H251 H 0.8848 0.97898 0.93992 0.0
H252 H 0.91794 0.02862 0.0472 0.0
O253 O 0.90767 0.78529 0.95552 0.0
H254 H 0.97201 0.78425 0.61205 0.0
H255 H 0.8536 0.79095 0.8127 0.0
H256 H 0.0258 0.07859 0.74431 0.0
H257 H 0.84463 0.84398 0.13845 0.0
H258 H 0.97105 0.13552 0.82465 0.0
H259 H 0.79128 0.90959 0.13989 0.0
O260 O 0.00858 0.91132 0.82233 0.0
H261 H 0.09879 0.791 -0.01498 0.0
H262 H 0.98887 0.72783 0.72967 0.0
H263 H 0.07003 0.72966 0.67584 0.0
H264 H 0.12571 0.76458 0.80219 0.0
H265 H 0.01636 0.79396 0.02396 0.0
H266 H 0.80694 0.76694 0.65777 0.0
H267 H 0.84387 0.7474 0.48162 0.0
O268 O 0.98908 0.84451 0.74282 0.0
C269 C 0.91292 0.90292 0.78477 0.0
C270 C 0.91118 0.75892 0.54193 0.0
C271 C 0.84362 0.7685 0.64956 0.0
N272 N 0.91718 0.78437 0.72805 0.0
C273 C 0.93663 0.77692 0.62749 0.0
C274 C 0.8707 0.78128 0.73783 0.0
C275 C 0.86421 0.75701 0.55119 0.0
C276 C 0.90015 0.88332 0.07631 0.0
N277 N 0.9137 0.92314 0.02593 0.0
C278 C 0.85529 0.87679 0.10871 0.0
C279 C 0.8251 0.91327 0.10664 0.0
C280 C 0.8374 0.95244 0.05137 0.0
C281 C 0.88011 0.95422 0.00192 0.0
C282 C 0.94336 0.08724 0.952 0.0
C283 C 0.0018 0.01854 0.84518 0.0
C284 C 0.94144 0.03712 -0.01729 0.0
N285 N 0.96756 0.00272 0.92099 0.0
C286 C 0.00465 0.06789 0.81147 0.0
C287 C 0.97329 0.1017 0.85922 0.0
C288 C 0.01485 0.87831 0.75422 0.0
C289 C 0.07467 0.77975 0.92435 0.0
C290 C 0.01219 0.74629 0.77942 0.0
C291 C 0.05844 0.7457 0.75089 0.0
C292 C 0.08971 0.76488 0.82218 0.0
N293 N -0.00302 0.77126 0.86681 0.0
C294 C 0.02785 0.78128 0.94624 0.0
Co295 Co 0.56318 0.95481 0.48486 0.0
Co296 Co 0.64895 0.00337 0.33768 0.0
O297 O 0.61373 0.99271 0.46698 0.0
C298 C 0.55297 0.01992 0.70531 0.0
O299 O 0.58892 0.04311 0.67723 0.0
C300 C 0.7336 0.947 0.3678 0.0
O301 O 0.73189 0.94311 0.26146 0.0
O302 O 0.63584 0.94206 0.26326 0.0
O303 O 0.57247 0.92128 0.34455 0.0
H304 H 0.70996 -0.00511 0.94833 0.0
H305 H 0.59388 0.85816 0.44671 0.0
O306 O 0.54171 0.98739 0.63743 0.0
H307 H 0.69294 0.9146 0.73467 0.0
H308 H 0.51842 0.84446 0.58612 0.0
H309 H 0.48395 0.933 0.37034 0.0
H310 H 0.63581 0.96528 0.64917 0.0
H311 H 0.5253 0.91007 0.57243 0.0
O312 O 0.70412 0.97337 0.41542 0.0
H313 H 0.65479 0.97825 0.0951 0.0
H314 H 0.7346 0.05492 0.31527 0.0
H315 H 0.41462 0.88233 0.39113 0.0
H316 H 0.65285 0.80749 0.51831 0.0
H317 H 0.41307 0.83255 0.54874 0.0
H318 H 0.70176 0.83407 0.66591 0.0
O319 O 0.52982 0.00216 0.37687 0.0
H320 H 0.67179 0.11542 0.64484 0.0
H321 H 0.64669 0.09787 0.25083 0.0
H322 H 0.66025 0.17447 0.32616 0.0
H323 H 0.67132 0.18389 0.52593 0.0
H324 H 0.66845 0.03888 0.56266 0.0
H325 H 0.78496 0.07817 0.16675 0.0
H326 H 0.7714 0.04954 -0.02092 0.0
O327 O 0.59008 0.02819 0.27086 0.0
C328 C 0.60098 0.91631 0.26801 0.0
C329 C 0.71315 0.01073 0.02727 0.0
C330 C 0.75589 0.05702 0.14973 0.0
N331 N 0.68817 0.01917 0.21318 0.0
C332 C 0.68234 0.00109 0.11149 0.0
C333 C 0.7264 0.04434 0.23349 0.0
C334 C 0.7484 0.04088 0.04499 0.0
C335 C 0.61396 0.87027 0.51277 0.0
N336 N 0.60627 0.91283 0.55624 0.0
C337 C 0.64827 0.84153 0.55149 0.0
C338 C 0.6764 0.85707 0.63331 0.0
C339 C 0.67105 0.90161 0.67194 0.0
C340 C 0.63685 0.92961 0.62837 0.0
C341 C 0.48211 0.8425 0.59381 0.0
C342 C 0.47895 0.91144 0.43513 0.0
C343 C 0.51963 0.87287 0.57733 0.0
N344 N 0.51341 0.91195 0.51081 0.0
C345 C 0.443 0.88171 0.44598 0.0
C346 C 0.44333 0.85112 0.5315 0.0
C347 C 0.54647 0.02584 0.29221 0.0
C348 C 0.66854 0.11182 0.55749 0.0
C349 C 0.65465 0.10135 0.33656 0.0
C350 C 0.66188 0.14491 0.37886 0.0
C351 C 0.66796 0.15019 0.49079 0.0
N352 N 0.65898 0.06347 0.4013 0.0
C353 C 0.66598 0.06844 0.51065 0.0
Co354 Co 0.53757 0.55667 -0.00911 0.0
Co355 Co 0.48935 0.64747 0.85711 0.0
O356 O 0.50176 0.61094 -0.01738 0.0
C357 C 0.469 0.55118 0.204 0.0
O358 O 0.4486 0.58858 0.17079 0.0
C359 C 0.552 0.7215 0.9457 0.0
O360 O 0.58888 0.70264 0.90312 0.0
O361 O 0.55091 0.63295 0.77916 0.0
O362 O 0.57167 0.56762 0.85361 0.0
H363 H 0.48328 0.6999 0.4707 0.0
H364 H 0.63855 0.56655 0.96951 0.0
O365 O 0.50319 0.53735 0.14209 0.0
H366 H 0.58758 0.69473 0.19796 0.0
H367 H 0.65523 0.44835 0.16256 0.0
H368 H 0.56658 0.48821 0.84587 0.0
H369 H 0.53426 0.63334 0.15042 0.0
H370 H 0.60854 0.52052 0.14974 0.0
O371 O 0.51319 0.70304 0.93492 0.0
H372 H 0.51317 0.654 0.6186 0.0
H373 H 0.43933 0.73625 0.844 0.0
H374 H 0.61423 0.41503 0.84452 0.0
H375 H 0.68949 0.63043 0.00169 0.0
H376 H 0.65764 0.39687 0.00767 0.0
H377 H 0.66426 0.6947 0.1187 0.0
O378 O 0.48882 0.52803 0.88002 0.0
H379 H 0.38559 0.70005 0.16276 0.0
H380 H 0.39255 0.64621 0.78113 0.0
H381 H 0.31927 0.67437 0.85735 0.0
H382 H 0.31527 0.70043 0.05042 0.0
H383 H 0.45881 0.67588 0.08006 0.0
H384 H 0.40539 0.78037 0.6943 0.0
H385 H 0.42548 0.75921 0.50164 0.0
O386 O 0.46405 0.59056 0.78311 0.0
C387 C 0.57635 0.5967 0.7796 0.0
C388 C 0.47373 0.70829 0.55154 0.0
C389 C 0.429 0.75264 0.67691 0.0
N390 N 0.47367 0.68849 0.73901 0.0
C391 C 0.48996 0.68166 0.63661 0.0
C392 C 0.44781 0.72685 0.76116 0.0
C393 C 0.44088 0.74175 0.57015 0.0
C394 C 0.62706 0.59324 0.02396 0.0
N395 N 0.58352 0.59334 0.06604 0.0
C396 C 0.65635 0.62971 0.04081 0.0
C397 C 0.64207 0.66609 0.10513 0.0
C398 C 0.59872 0.66576 0.15066 0.0
C399 C 0.56952 0.62959 0.12848 0.0
C400 C 0.63355 0.45557 0.09361 0.0
C401 C 0.5806 0.4746 0.91682 0.0
C402 C 0.60718 0.49588 0.08614 0.0
N403 N 0.57703 0.50232 0.00339 0.0
C404 C 0.60811 0.43501 0.91721 0.0
C405 C 0.63332 0.42476 0.00872 0.0
C406 C 0.46613 0.54646 0.79573 0.0
C407 C 0.38682 0.68853 0.0787 0.0
C408 C 0.39115 0.65792 0.86479 0.0
C409 C 0.34967 0.67431 0.90721 0.0
C410 C 0.34742 0.68884 0.01557 0.0
N411 N 0.43013 0.65974 0.92548 0.0
C412 C 0.42816 0.67437 0.03163 0.0
Co413 Co 0.93133 0.53552 0.49286 0.0
Co414 Co 0.84297 0.49729 0.34418 0.0
O415 O 0.87883 0.49869 0.4752 0.0
C416 C 0.93243 0.47165 0.7119 0.0
O417 O 0.89249 0.45513 0.68747 0.0
C418 C 0.76457 0.55431 0.44518 0.0
O419 O 0.77577 0.59133 0.39209 0.0
O420 O 0.85711 0.56237 0.29263 0.0
O421 O 0.92476 0.57142 0.359 0.0
H422 H 0.7926 0.56223 -0.01141 0.0
H423 H 0.89079 0.55818 0.60605 0.0
O424 O 0.94944 0.50027 0.6416 0.0
H425 H 0.82779 0.67389 0.51418 0.0
H426 H 0.0229 0.66276 0.66256 0.0
H427 H 0.00806 0.55793 0.36294 0.0
H428 H 0.90105 0.63693 0.46741 0.0
H429 H 0.95602 0.61508 0.63934 0.0
O430 O 0.78824 0.51762 0.43556 0.0
H431 H 0.85168 0.52782 0.10916 0.0
H432 H 0.79042 0.48513 0.25712 0.0
H433 H 0.08171 0.60064 0.38029 0.0
H434 H 0.79991 0.56955 0.7457 0.0
H435 H 0.08854 0.65319 0.537 0.0
H436 H 0.77781 0.64058 0.65322 0.0
O437 O 0.96083 0.48805 0.37799 0.0
H438 H 0.79784 0.3696 0.59754 0.0
H439 H 0.8358 0.41083 0.21875 0.0
H440 H 0.81149 0.33245 0.26068 0.0
H441 H 0.79365 0.31131 0.45165 0.0
H442 H 0.81828 0.44871 0.55119 0.0
H443 H 0.69029 0.51025 0.19552 0.0
H444 H 0.71411 0.5595 0.04676 0.0
O445 O 0.89988 0.47427 0.26443 0.0
C446 C 0.89572 0.58182 0.28933 0.0
C447 C 0.78401 0.54221 0.05917 0.0
C448 C 0.72568 0.51223 0.17612 0.0
N449 N 0.80306 0.49529 0.21611 0.0
C450 C 0.81675 0.52011 0.12147 0.0
C451 C 0.75654 0.48681 0.23709 0.0
C452 C 0.73929 0.54123 0.09299 0.0
C453 C 0.86252 0.55936 0.6571 0.0
N454 N 0.89064 0.57812 0.57535 0.0
C455 C 0.8223 0.58328 0.68395 0.0
C456 C 0.8098 0.62374 0.63216 0.0
C457 C 0.83843 0.64319 0.55546 0.0
C458 C 0.87941 0.62164 0.52824 0.0
C459 C 0.02206 0.63763 0.59844 0.0
C460 C 0.01633 0.57522 0.43397 0.0
C461 C 0.98387 0.61027 0.58566 0.0
N462 N 0.98344 0.57594 0.5109 0.0
C463 C 0.05581 0.60118 0.44304 0.0
C464 C 0.05931 0.63148 0.52952 0.0
C465 C 0.94303 0.46965 0.28747 0.0
C466 C 0.80589 0.37859 0.51423 0.0
C467 C 0.82761 0.40196 0.3019 0.0
C468 C 0.81403 0.35755 0.32509 0.0
C469 C 0.80363 0.34575 0.43226 0.0
N470 N 0.82881 0.43435 0.38231 0.0
C471 C 0.81796 0.42315 0.48747 0.0
Co472 Co 0.03355 0.42541 -0.01546 0.0
Co473 Co 0.98492 0.33969 0.83786 0.0
O474 O -0.00434 0.37484 0.96707 0.0
C475 C 0.96857 0.43555 0.20541 0.0
O476 O 0.9454 0.39957 0.17774 0.0
C477 C 0.04134 0.25506 0.86758 0.0
O478 O 0.04511 0.25682 0.76119 0.0
O479 O 0.04619 0.35282 0.76304 0.0
O480 O 0.06705 0.41611 0.84416 0.0
H481 H 0.99358 0.27844 0.44894 0.0
H482 H 0.13018 0.39473 0.94595 0.0
O483 O 0.00103 0.44687 0.13722 0.0
H484 H 0.07393 0.29578 0.23508 0.0
H485 H 0.14401 0.47007 0.08427 0.0
H486 H 0.05537 0.50452 0.86908 0.0
H487 H 0.02315 0.35282 0.14938 0.0
H488 H 0.07833 0.46336 0.07155 0.0
O489 O 0.01496 0.28448 0.91539 0.0
H490 H 0.01011 0.33374 0.59517 0.0
H491 H 0.93319 0.25414 0.81605 0.0
H492 H 0.10627 0.57371 0.88841 0.0
H493 H 0.18092 0.33583 0.0177 0.0
H494 H 0.15651 0.57522 0.04494 0.0
H495 H 0.15444 0.28703 0.16596 0.0
O496 O 0.9862 0.45879 0.87669 0.0
H497 H 0.87294 0.31677 0.14583 0.0
H498 H 0.89041 0.34213 0.75167 0.0
H499 H 0.81382 0.32868 0.82754 0.0
H500 H 0.80445 0.31744 0.02737 0.0
H501 H 0.94946 0.32014 0.06315 0.0
H502 H 0.91 0.20373 0.66801 0.0
H503 H 0.93882 0.2171 0.48022 0.0
O504 O 0.96011 0.39858 0.77104 0.0
C505 C 0.07198 0.38765 0.76763 0.0
C506 C 0.97766 0.27534 0.5279 0.0
C507 C 0.93119 0.23277 0.65072 0.0
N508 N 0.96905 0.30051 0.71357 0.0
C509 C 0.98722 0.30624 0.61182 0.0
C510 C 0.94382 0.26231 0.73421 0.0
C511 C 0.94745 0.24014 0.54594 0.0
C512 C 0.1181 0.37466 0.0122 0.0
N513 N 0.07555 0.38234 0.05589 0.0
C514 C 0.14688 0.3404 0.05104 0.0
C515 C 0.1314 0.31232 0.13322 0.0
C516 C 0.08686 0.31764 0.17206 0.0
C517 C 0.05882 0.35178 0.12837 0.0
C518 C 0.14601 0.5064 0.09166 0.0
C519 C 0.07691 0.50959 0.93377 0.0
C520 C 0.11554 0.46895 0.07598 0.0
N521 N 0.0764 0.47521 0.00983 0.0
C522 C 0.10679 0.54545 0.94378 0.0
C523 C 0.13754 0.54511 0.02883 0.0
C524 C 0.9625 0.44218 0.79222 0.0
C525 C 0.87652 0.32008 0.05845 0.0
C526 C 0.88695 0.33412 0.83744 0.0
C527 C 0.84339 0.32694 0.88004 0.0
C528 C 0.83814 0.32077 -0.00799 0.0
N529 N 0.92484 0.32969 0.90193 0.0
C530 C 0.91989 0.32264 0.01133 0.0
Co531 Co 0.0577 0.009 0.46941 0.0
Co532 Co 0.17186 0.04074 0.34575 0.0
O533 O 0.1317 0.01509 0.45674 0.0
C534 C 0.04394 0.88897 0.66717 0.0
O535 O 0.05452 0.85961 0.58927 0.0
C536 C 0.23347 0.08131 0.53075 0.0
O537 O 0.24182 0.1213 0.57435 0.0
O538 O 0.12363 0.08746 0.32352 0.0
O539 O 0.0603 0.04641 0.33108 0.0
H540 H 0.23985 0.06145 0.96548 0.0
H541 H 0.13258 0.06521 0.59531 0.0
O542 O 0.04391 0.93165 0.65399 0.0
H543 H 0.00894 0.17566 0.53756 0.0
H544 H 0.87699 0.06815 0.49106 0.0
H545 H -0.00505 0.96578 0.30783 0.0
H546 H 0.0096 0.1038 0.43917 0.0
H547 H 0.95998 0.07065 0.54705 0.0
O548 O 0.20334 0.08087 0.45495 0.0
H549 H 0.20443 0.01665 0.1115 0.0
H550 H 0.19783 0.13497 0.31195 0.0
H551 H 0.91006 0.96282 0.24479 0.0
H552 H 0.1443 0.1441 0.63777 0.0
H553 H 0.85316 0.0176 0.32503 0.0
H554 H 0.07853 0.19729 0.63943 0.0
O555 O 0.07727 0.98007 0.32202 0.0
H556 H 0.19768 0.89007 0.48674 0.0
H557 H 0.26061 -0.00059 0.22874 0.0
H558 H 0.25882 0.91813 0.17649 0.0
H559 H 0.22396 0.86273 0.30414 0.0
H560 H 0.19478 0.97261 0.52424 0.0
H561 H 0.22197 0.18168 0.1569 0.0
H562 H 0.24141 0.14483 -0.01932 0.0
O563 O 0.14418 -0.0005 0.24244 0.0
C564 C 0.08575 0.07566 0.28402 0.0
C565 C 0.22984 0.07749 0.04117 0.0
C566 C 0.22037 0.14501 0.14875 0.0
N567 N 0.20438 0.07142 0.2274 0.0
C568 C 0.21183 0.05201 0.12686 0.0
C569 C 0.20752 0.11789 0.23709 0.0
C570 C 0.2318 0.12446 0.05034 0.0
C571 C 0.10515 0.08854 0.57559 0.0
N572 N 0.06539 0.07493 0.5253 0.0
C573 C 0.11154 0.13338 0.60807 0.0
C574 C 0.07498 0.16349 0.60608 0.0
C575 C 0.03591 0.15117 0.55071 0.0
C576 C 0.03429 0.10849 0.5012 0.0
C577 C 0.90139 0.04523 0.45218 0.0
C578 C 0.9701 0.98679 0.34531 0.0
C579 C 0.9515 0.04715 0.48268 0.0
N580 N 0.9859 0.02104 0.42093 0.0
C581 C 0.92076 0.98396 0.31182 0.0
C582 C 0.88695 0.01534 0.35953 0.0
C583 C 0.11034 0.97375 0.25397 0.0
C584 C 0.2089 0.91405 0.42554 0.0
C585 C 0.24222 0.97621 0.27913 0.0
C586 C 0.24281 0.92988 0.25148 0.0
C587 C 0.22368 0.89878 0.32349 0.0
N588 N 0.21736 0.99161 0.36655 0.0
C589 C 0.20741 0.96092 0.44662 0.0
Co590 Co 0.45314 0.05711 -0.0069 0.0
Co591 Co 0.49123 0.14556 0.84393 0.0
O592 O 0.49001 0.1096 0.97502 0.0
C593 C 0.51703 0.05593 0.2118 0.0
O594 O 0.53363 0.09584 0.18705 0.0
C595 C 0.43449 0.22398 0.94589 0.0
O596 O 0.39737 0.21292 0.89327 0.0
O597 O 0.42609 0.13149 0.79314 0.0
O598 O 0.41727 0.06371 0.85924 0.0
H599 H 0.4272 0.19554 0.48646 0.0
H600 H 0.43049 0.09767 0.10616 0.0
O601 O 0.48836 0.03896 0.14179 0.0
H602 H 0.31479 0.16066 0.01464 0.0
H603 H 0.32606 0.9655 0.16442 0.0
H604 H 0.43052 0.98046 0.86354 0.0
H605 H 0.35174 0.08738 0.96802 0.0
H606 H 0.37378 0.03239 0.14049 0.0
O607 O 0.47112 0.20025 0.93565 0.0
H608 H 0.46086 0.13671 0.6092 0.0
H609 H 0.50307 0.19827 0.75669 0.0
H610 H 0.38772 0.90682 0.88148 0.0
H611 H 0.4191 0.18854 0.24553 0.0
H612 H 0.33545 0.89989 0.03894 0.0
H613 H 0.34804 0.2106 0.15341 0.0
O614 O 0.50057 0.02764 0.87814 0.0
H615 H 0.61945 0.19043 0.09518 0.0
H616 H 0.57737 0.15294 0.71709 0.0
H617 H 0.6558 0.17729 0.75767 0.0
H618 H 0.67738 0.19489 0.94828 0.0
H619 H 0.54025 0.17 0.05023 0.0
H620 H 0.47798 0.29832 0.69306 0.0
H621 H 0.43015 0.27422 0.54219 0.0
O622 O 0.51415 0.08862 0.76406 0.0
C623 C 0.40677 0.0928 0.78966 0.0
C624 C 0.44686 0.20429 0.55737 0.0
C625 C 0.47618 0.26289 0.67408 0.0
N626 N 0.49298 0.18557 0.71578 0.0
C627 C 0.46849 0.17168 0.62103 0.0
C628 C 0.50115 0.23216 0.7365 0.0
C629 C 0.44787 0.24913 0.58995 0.0
C630 C 0.42931 0.12594 0.15709 0.0
N631 N 0.41055 0.09782 0.07559 0.0
C632 C 0.40537 0.16614 0.18397 0.0
C633 C 0.36489 0.17862 0.13239 0.0
C634 C 0.34547 0.15 0.05587 0.0
C635 C 0.36702 0.10903 0.0287 0.0
C636 C 0.35107 0.96638 0.09995 0.0
C637 C 0.41329 0.97216 0.93476 0.0
C638 C 0.37846 0.00457 0.08678 0.0
N639 N 0.41269 0.00502 0.01162 0.0
C640 C 0.38729 0.93269 0.94419 0.0
C641 C 0.35711 0.92916 0.03104 0.0
C642 C 0.51886 0.04546 0.78736 0.0
C643 C 0.61026 0.18249 0.01204 0.0
C644 C 0.58643 0.16103 0.8001 0.0
C645 C 0.63087 0.17462 0.82252 0.0
C646 C 0.6429 0.1849 0.92948 0.0
N647 N 0.55422 0.1597 0.88108 0.0
C648 C 0.56566 0.17042 -0.01395 0.0
Co649 Co 0.4321 0.45088 0.49144 0.0
Co650 Co 0.34121 0.49852 0.35744 0.0
O651 O 0.37769 0.48654 0.48316 0.0
C652 C 0.43714 0.51945 0.7044 0.0
O653 O 0.39962 0.53966 0.67142 0.0
C654 C 0.26697 0.43614 0.44656 0.0
O655 O 0.2857 0.39917 0.4042 0.0
O656 O 0.35582 0.43667 0.28112 0.0
O657 O 0.42151 0.41679 0.35427 0.0
H658 H 0.2897 0.50124 0.9713 0.0
H659 H 0.42255 0.34986 0.47008 0.0
O660 O 0.45115 0.48534 0.64254 0.0
H661 H 0.29409 0.40041 0.6984 0.0
H662 H 0.54041 0.33343 0.66362 0.0
H663 H 0.50079 0.42187 0.34625 0.0
H664 H 0.35548 0.45384 0.651 0.0
H665 H 0.46828 0.38007 0.6505 0.0
O666 O 0.28561 0.47488 0.43566 0.0
H667 H 0.33545 0.47352 0.12042 0.0
H668 H 0.25242 0.5487 0.34172 0.0
H669 H 0.57411 0.37453 0.34544 0.0
H670 H 0.35878 0.29869 0.50259 0.0
H671 H 0.59219 0.33125 0.509 0.0
H672 H 0.29438 0.32373 0.61947 0.0
O673 O 0.46061 0.4997 0.38032 0.0
H674 H 0.28829 0.60303 0.66101 0.0
H675 H 0.34202 0.59519 0.27921 0.0
H676 H 0.31353 0.66856 0.35395 0.0
H677 H 0.28753 0.67302 0.54713 0.0
H678 H 0.31276 0.52967 0.57972 0.0
H679 H 0.20842 0.58114 0.19003 0.0
H680 H 0.22969 0.55899 -0.00154 0.0
O681 O 0.39806 0.52378 0.28292 0.0
C682 C 0.39233 0.41165 0.28092 0.0
C683 C 0.28088 0.51161 0.05133 0.0
C684 C 0.23621 0.55742 0.17397 0.0
N685 N 0.30042 0.51361 0.23875 0.0
C686 C 0.30751 0.49649 0.13729 0.0
C687 C 0.26197 0.53954 0.25937 0.0
C688 C 0.24718 0.54443 0.06791 0.0
C689 C 0.39581 0.36122 0.52463 0.0
N690 N 0.39557 0.40475 0.56665 0.0
C691 C 0.35942 0.33182 0.54164 0.0
C692 C 0.32295 0.34599 0.60588 0.0
C693 C 0.32314 0.38934 0.65126 0.0
C694 C 0.35926 0.41862 0.62912 0.0
C695 C 0.5333 0.35515 0.59457 0.0
C696 C 0.51436 0.40801 0.4174 0.0
C697 C 0.49297 0.38145 0.58689 0.0
N698 N 0.48656 0.41157 0.50397 0.0
C699 C 0.55405 0.38066 0.41809 0.0
C700 C 0.56426 0.35552 0.50984 0.0
C701 C 0.44214 0.52207 0.29561 0.0
C702 C 0.29977 0.60159 0.57689 0.0
C703 C 0.33032 0.59677 0.36286 0.0
C704 C 0.31374 0.63831 0.40447 0.0
C705 C 0.29924 0.64081 0.5129 0.0
N706 N 0.32869 0.55795 0.4244 0.0
C707 C 0.31411 0.56017 0.53061 0.0
Co708 Co 0.00897 0.05771 -0.01535 0.0
Co709 Co 0.04073 0.17185 0.10797 0.0
O710 O 0.01504 0.13173 -0.00289 0.0
C711 C 0.88896 0.04385 0.7875 0.0
O712 O 0.85959 0.05439 0.86549 0.0
C713 C 0.08126 0.23359 0.92297 0.0
O714 O 0.1212 0.24207 0.87909 0.0
O715 O 0.08746 0.12362 0.12992 0.0
O716 O 0.0464 0.06029 0.12281 0.0
H717 H 0.06136 0.23982 0.48791 0.0
H718 H 0.06507 0.13269 0.85819 0.0
O719 O 0.93164 0.04393 0.80044 0.0
H720 H 0.17574 0.00924 0.91609 0.0
H721 H 0.06814 0.87698 0.96349 0.0
H722 H 0.96578 -0.00506 0.14664 0.0
H723 H 0.10379 0.00964 0.01443 0.0
H724 H 0.07065 0.96 0.90715 0.0
O725 O 0.08089 0.20336 -0.00135 0.0
H726 H 0.01661 0.20439 0.34222 0.0
H727 H 0.13499 0.19772 0.14146 0.0
H728 H 0.96277 0.91004 0.21003 0.0
H729 H 0.14395 0.14463 0.81582 0.0
H730 H 0.01751 0.85311 0.12969 0.0
H731 H 0.19731 0.07904 0.81445 0.0
O732 O 0.98001 0.07731 0.13202 0.0
H733 H 0.88987 0.19756 0.9689 0.0
H734 H -0.00039 0.26075 0.22469 0.0
H735 H 0.91843 0.2588 0.27832 0.0
H736 H 0.86284 0.22386 0.15175 0.0
H737 H 0.97232 0.19471 0.93016 0.0
H738 H 0.18165 0.2218 0.29632 0.0
H739 H 0.14474 0.24137 0.47246 0.0
O740 O -0.00047 0.14413 0.21149 0.0
C741 C 0.07568 0.08572 0.16957 0.0
C742 C 0.07743 0.22978 0.41224 0.0
C743 C 0.14498 0.22023 0.30456 0.0
N744 N 0.07141 0.2043 0.22615 0.0
C745 C 0.05198 0.21175 0.32673 0.0
C746 C 0.11789 0.20741 0.21633 0.0
C747 C 0.1244 0.23173 0.40293 0.0
C748 C 0.08844 0.1053 0.87799 0.0
N749 N 0.07488 0.06548 0.9284 0.0
C750 C 0.13329 0.11183 0.84559 0.0
C751 C 0.16349 0.07535 0.84769 0.0
C752 C 0.15119 0.03618 0.90297 0.0
C753 C 0.10848 0.03441 0.95242 0.0
C754 C 0.04522 0.90139 0.00235 0.0
C755 C 0.98678 0.97009 0.10917 0.0
C756 C 0.04714 0.95151 0.97164 0.0
N757 N 0.02102 0.98591 0.03336 0.0
C758 C 0.98393 0.92075 0.14288 0.0
C759 C 0.01529 0.88693 0.09513 0.0
C760 C 0.97371 0.11037 0.2 0.0
C761 C 0.91395 0.20882 0.02966 0.0
C762 C 0.97633 0.24228 0.17484 0.0
C763 C 0.93006 0.2428 0.20326 0.0
C764 C 0.89885 0.22362 0.13184 0.0
N765 N 0.9916 0.21737 0.08742 0.0
C766 C 0.96077 0.20736 0.00788 0.0
Co767 Co 0.42538 0.03363 0.4697 0.0
Co768 Co 0.33962 0.9851 0.61687 0.0
O769 O 0.37483 -0.00427 0.48757 0.0
C770 C 0.43556 0.96853 0.24927 0.0
O771 O 0.39961 0.94534 0.27734 0.0
C772 C 0.25495 0.04145 0.58661 0.0
O773 O 0.25659 0.04532 0.69297 0.0
O774 O 0.3527 0.04642 0.69123 0.0
O775 O 0.41611 0.06714 0.61007 0.0
H776 H 0.2786 0.99365 0.00619 0.0
H777 H 0.39466 0.13026 0.50799 0.0
O778 O 0.44684 0.00107 0.3171 0.0
H779 H 0.29564 0.07389 0.21988 0.0
H780 H 0.4702 0.14392 0.36823 0.0
H781 H 0.5046 0.05543 0.58421 0.0
H782 H 0.35276 0.02318 0.30536 0.0
H783 H 0.46325 0.07834 0.38213 0.0
O784 O 0.28446 0.01508 0.53906 0.0
H785 H 0.33379 0.01023 0.85942 0.0
H786 H 0.25397 0.93354 0.63931 0.0
H787 H 0.57398 0.10604 0.56331 0.0
H788 H 0.33571 0.18095 0.43641 0.0
H789 H 0.57558 0.15567 0.40549 0.0
H790 H 0.28681 0.1544 0.28875 0.0
O791 O 0.45874 0.98627 0.57763 0.0
H792 H 0.31676 0.87299 0.30984 0.0
H793 H 0.34194 0.89061 0.7038 0.0
H794 H 0.32848 0.81399 0.62854 0.0
H795 H 0.31735 0.80453 0.4288 0.0
H796 H 0.32008 0.94955 0.39195 0.0
H797 H 0.20359 0.91034 0.78784 0.0
H798 H 0.21713 0.93903 0.97548 0.0
O799 O 0.39849 0.96029 0.68373 0.0
C800 C 0.38758 0.07215 0.68656 0.0
C801 C 0.2754 0.9778 0.92727 0.0
C802 C 0.23267 0.93149 0.80484 0.0
N803 N 0.3004 0.96931 0.74138 0.0
C804 C 0.30623 0.9874 0.84305 0.0
C805 C 0.26217 0.94413 0.72108 0.0
C806 C 0.24014 0.94766 0.90956 0.0
C807 C 0.3746 0.11817 0.44188 0.0
N808 N 0.38229 0.07561 0.39837 0.0
C809 C 0.3403 0.14691 0.40319 0.0
C810 C 0.31217 0.13139 0.32133 0.0
C811 C 0.31752 0.08686 0.28264 0.0
C812 C 0.35172 0.05886 0.32619 0.0
C813 C 0.50651 0.14587 0.36061 0.0
C814 C 0.50961 0.07697 0.51939 0.0
C815 C 0.46896 0.11554 0.37714 0.0
N816 N 0.47516 0.07647 0.44373 0.0
C817 C 0.54559 0.10666 0.50848 0.0
C818 C 0.54529 0.13721 0.42288 0.0
C819 C 0.4421 0.96261 0.66233 0.0
C820 C 0.32003 0.8766 0.39717 0.0
C821 C 0.33398 0.88712 0.61808 0.0
C822 C 0.32679 0.84354 0.57582 0.0
C823 C 0.32067 0.83824 0.4639 0.0
N824 N 0.3296 0.92499 0.55331 0.0
C825 C 0.32257 0.91999 0.44398 0.0
Co826 Co 0.4511 0.43159 0.96506 0.0
Co827 Co 0.49937 0.34076 0.09866 0.0
O828 O 0.48689 0.37734 0.97327 0.0
C829 C 0.51984 0.43715 0.75225 0.0
O830 O 0.54027 0.3998 0.78563 0.0
C831 C 0.43663 0.26686 0.00977 0.0
O832 O 0.39977 0.28576 0.05234 0.0
O833 O 0.4379 0.35527 0.17689 0.0
O834 O 0.417 0.42058 0.10239 0.0
H835 H 0.50629 0.28811 0.48504 0.0
H836 H 0.35008 0.42179 -0.01377 0.0
O837 O 0.48553 0.45093 0.81385 0.0
H838 H 0.40093 0.29359 0.75773 0.0
H839 H 0.33334 0.54025 0.79422 0.0
H840 H 0.42251 0.50005 0.10992 0.0
H841 H 0.45437 0.35485 0.80559 0.0
H842 H 0.37984 0.4679 0.80649 0.0
O843 O 0.47547 0.28524 0.02073 0.0
H844 H 0.47586 0.33405 0.3375 0.0
H845 H 0.54923 0.25192 0.111 0.0
H846 H 0.3747 0.57317 0.11213 0.0
H847 H 0.29909 0.35802 0.95406 0.0
H848 H 0.33095 0.59143 0.94964 0.0
H849 H 0.32423 0.29373 0.83691 0.0
O850 O 0.49986 0.4602 0.07605 0.0
H851 H 0.60298 0.28833 0.79254 0.0
H852 H 0.5962 0.34194 0.17438 0.0
H853 H 0.66943 0.31376 0.0979 0.0
H854 H 0.67335 0.28786 0.9047 0.0
H855 H 0.5298 0.31244 0.87552 0.0
H856 H 0.58365 0.20785 0.26012 0.0
H857 H 0.56413 0.22901 0.45309 0.0
O858 O 0.52469 0.39765 0.17278 0.0
C859 C 0.41242 0.3915 0.17649 0.0
C860 C 0.51563 0.27982 0.40399 0.0
C861 C 0.56005 0.23555 0.27789 0.0
N862 N 0.51515 0.29966 0.21654 0.0
C863 C 0.4991 0.30644 0.31917 0.0
C864 C 0.54095 0.2613 0.19397 0.0
C865 C 0.5485 0.24643 0.38484 0.0
C866 C 0.36158 0.39509 0.93187 0.0
N867 N 0.40513 0.39495 0.88984 0.0
C868 C 0.33225 0.35866 0.91499 0.0
C869 C 0.34648 0.32229 0.85058 0.0
C870 C 0.38984 0.32257 0.80509 0.0
C871 C 0.41911 0.35867 0.82742 0.0
C872 C 0.35502 0.53287 0.86304 0.0
C873 C 0.40826 0.51368 0.03926 0.0
C874 C 0.38136 0.4925 0.87013 0.0
N875 N 0.41163 0.48598 0.95265 0.0
C876 C 0.38068 0.55323 0.03936 0.0
C877 C 0.35527 0.56353 0.94822 0.0
C878 C 0.52255 0.44176 0.16033 0.0
C879 C 0.60178 0.2998 0.87664 0.0
C880 C 0.59756 0.33027 0.09068 0.0
C881 C 0.63901 0.31387 0.0481 0.0
C882 C 0.64121 0.29943 0.93967 0.0
N883 N 0.55855 0.32851 0.03006 0.0
C884 C 0.56046 0.31393 0.92387 0.0
Co885 Co 0.05709 0.45308 0.46089 0.0
Co886 Co 0.1454 0.49154 0.60955 0.0
O887 O 0.1096 0.48989 0.47848 0.0
C888 C 0.05599 0.51691 0.2418 0.0
O889 O 0.096 0.53336 0.26593 0.0
C890 C 0.22386 0.43432 0.50972 0.0
O891 O 0.21254 0.3974 0.56309 0.0
O892 O 0.13125 0.42653 0.66158 0.0
O893 O 0.06372 0.41714 0.5947 0.0
H894 H 0.19634 0.42575 0.96302 0.0
H895 H 0.0976 0.43043 0.34761 0.0
O896 O 0.03896 0.48834 0.3122 0.0
H897 H 0.16081 0.31488 0.43976 0.0
H898 H 0.96551 0.32589 0.29101 0.0
H899 H 0.98037 0.43062 0.59085 0.0
H900 H 0.08746 0.3517 0.48633 0.0
H901 H 0.03241 0.37356 0.31435 0.0
O902 O 0.2002 0.47104 0.51868 0.0
H903 H 0.13693 0.46084 0.84473 0.0
H904 H 0.19777 0.50413 0.69672 0.0
H905 H 0.90673 0.38785 0.57347 0.0
H906 H 0.18854 0.41921 0.20808 0.0
H907 H 0.89986 0.33543 0.41656 0.0
H908 H 0.21077 0.34827 0.30078 0.0
O909 O 0.02755 0.50055 0.5758 0.0
H910 H 0.19094 0.61855 0.35472 0.0
H911 H 0.15227 0.57838 0.73379 0.0
H912 H 0.17663 0.65665 0.69088 0.0
H913 H 0.19488 0.67725 0.49977 0.0
H914 H 0.17037 0.5396 0.4021 0.0
H915 H 0.29807 0.4792 0.75649 0.0
H916 H 0.27465 0.42849 0.90277 0.0
O917 O 0.08851 0.51463 0.68904 0.0
C918 C 0.09273 0.40691 0.66459 0.0
C919 C 0.20474 0.4462 0.893 0.0
C920 C 0.26273 0.47698 0.77624 0.0
N921 N 0.18523 0.49385 0.73772 0.0
C922 C 0.17181 0.46868 0.83207 0.0
C923 C 0.23166 0.50274 0.71671 0.0
C924 C 0.24933 0.4473 0.85818 0.0
C925 C 0.12587 0.42929 0.29656 0.0
N926 N 0.09779 0.4105 0.37834 0.0
C927 C 0.16616 0.40546 0.26984 0.0
C928 C 0.17874 0.36504 0.32175 0.0
C929 C 0.15013 0.34555 0.39841 0.0
C930 C 0.10909 0.36702 0.42551 0.0
C931 C 0.96636 0.35099 0.35519 0.0
C932 C 0.9721 0.41334 0.51979 0.0
C933 C 0.00455 0.37835 0.36801 0.0
N934 N 0.00498 0.41266 0.44284 0.0
C935 C 0.93263 0.38736 0.51069 0.0
C936 C 0.92912 0.35711 0.42413 0.0
C937 C 0.04534 0.51907 0.66618 0.0
C938 C 0.18272 0.60981 0.4381 0.0
C939 C 0.1606 0.58702 0.65058 0.0
C940 C 0.17424 0.63137 0.62685 0.0
C941 C 0.18485 0.64286 0.5196 0.0
N942 N 0.15954 0.55441 0.57066 0.0
C943 C 0.17058 0.56533 0.46544 0.0
loop_
_geom_bond_atom_site_label_1
_geom_bond_atom_site_label_2
_geom_bond_distance
_geom_bond_site_symmetry_2
_ccdc_geom_bond_type
Co0 O2 2.143 1_654 S
Co0 O8 2.074 . S
Co0 O11 2.093 1_654 S
Co0 O24 2.097 1_655 S
Co0 N41 2.151 1_554 S
Co0 N49 2.214 . S
Co1 O2 2.160 1_554 S
Co1 O7 2.058 1_455 S
Co1 O17 2.057 1_455 S
Co1 O32 2.037 . S
Co1 N36 2.145 . S
Co1 N57 2.257 . S
O2 Co0 2.143 1_456 S
O2 Co1 2.160 1_556 S
C3 O4 1.278 . S
C3 O11 1.224 . S
O4 C3 1.278 . S
C5 O6 1.245 . S
C5 O17 1.232 1_556 S
O6 C5 1.245 . S
O7 Co1 2.058 1_655 S
O7 C33 1.269 . S
O8 Co0 2.074 . S
O8 C33 1.257 . S
H9 C34 0.930 . S
H10 C40 0.930 . S
O11 Co0 2.093 1_456 S
O11 C3 1.224 . S
H12 C44 0.929 . S
H13 C46 0.930 . S
H14 C47 0.930 . S
H15 C45 0.929 . S
H16 C48 0.928 . S
O17 Co1 2.057 1_655 S
O17 C5 1.232 1_554 S
H18 C37 0.929 . S
H19 C38 0.929 . S
H20 C50 0.931 . S
H21 C42 0.929 . S
H22 C51 0.930 . S
H23 C43 0.931 . S
O24 Co0 2.097 1_455 S
O24 C52 1.214 . S
H25 C53 0.929 . S
H26 C54 0.929 . S
H27 C55 0.930 . S
H28 C56 0.929 . S
H29 C58 0.930 . S
H30 C35 0.930 . S
H31 C39 0.930 . S
O32 Co1 2.037 . S
O32 C52 1.234 . S
C33 O7 1.269 . S
C33 O8 1.257 . S
C34 H9 0.930 . S
C34 C37 1.388 . S
C34 C39 1.418 . S
C35 H30 0.930 . S
C35 C38 1.404 . S
C35 C39 1.353 . S
N36 Co1 2.145 . S
N36 C37 1.397 . S
N36 C38 1.334 . S
C37 H18 0.929 . S
C37 C34 1.388 . S
C37 N36 1.397 . S
C38 H19 0.929 . S
C38 C35 1.404 . S
C38 N36 1.334 . S
C39 H31 0.930 . S
C39 C34 1.418 . S
C39 C35 1.353 . S
C40 H10 0.930 . S
C40 N41 1.330 . S
C40 C42 1.446 . S
N41 Co0 2.151 1_556 S
N41 C40 1.330 . S
N41 C45 1.418 . S
C42 H21 0.929 . S
C42 C40 1.446 . S
C42 C43 1.332 . S
C43 H23 0.931 . S
C43 C42 1.332 . S
C43 C44 1.267 . S
C44 H12 0.929 . S
C44 C43 1.267 . S
C44 C45 1.251 . S
C45 H15 0.929 . S
C45 N41 1.418 . S
C45 C44 1.251 . S
C46 H13 0.930 . S
C46 C48 1.406 . S
C46 C51 1.261 1_556 S
C47 H14 0.930 . S
C47 N49 1.325 . S
C47 C50 1.357 . S
C48 H16 0.928 . S
C48 C46 1.406 . S
C48 N49 1.261 1_556 S
N49 Co0 2.214 . S
N49 C47 1.325 . S
N49 C48 1.261 1_554 S
C50 H20 0.931 . S
C50 C47 1.357 . S
C50 C51 1.312 . S
C51 H22 0.930 . S
C51 C46 1.261 1_554 S
C51 C50 1.312 . S
C52 O24 1.214 . S
C52 O32 1.234 . S
C53 H25 0.929 . S
C53 C56 1.391 1_556 S
C53 C58 1.391 . S
C54 H26 0.929 . S
C54 C55 1.390 . S
C54 N57 1.391 . S
C55 H27 0.930 . S
C55 C54 1.390 . S
C55 C56 1.392 . S
C56 H28 0.929 . S
C56 C53 1.391 1_554 S
C56 C55 1.392 . S
N57 Co1 2.257 . S
N57 C54 1.391 . S
N57 C58 1.388 1_554 S
C58 H29 0.930 . S
C58 C53 1.391 . S
C58 N57 1.388 1_556 S
Co59 O61 2.143 1_565 S
Co59 O67 2.074 . S
Co59 O70 2.093 1_565 S
Co59 O83 2.097 1_565 S
Co59 N100 2.151 . S
Co59 N108 2.214 1_655 S
Co60 O61 2.160 . S
Co60 O66 2.058 1_545 S
Co60 O76 2.057 1_545 S
Co60 O91 2.037 . S
Co60 N95 2.145 . S
Co60 N116 2.257 . S
O61 Co59 2.143 1_545 S
O61 Co60 2.160 . S
C62 O63 1.278 . S
C62 O70 1.224 . S
O63 C62 1.278 . S
C64 O65 1.245 . S
C64 O76 1.232 . S
O65 C64 1.245 . S
O66 Co60 2.058 1_565 S
O66 C92 1.269 . S
O67 Co59 2.074 . S
O67 C92 1.257 . S
H68 C93 0.930 . S
H69 C99 0.930 . S
O70 Co59 2.093 1_545 S
O70 C62 1.224 . S
H71 C103 0.929 . S
H72 C105 0.930 . S
H73 C106 0.930 . S
H74 C104 0.929 . S
H75 C107 0.928 . S
O76 Co60 2.057 1_565 S
O76 C64 1.232 . S
H77 C96 0.929 . S
H78 C97 0.929 . S
H79 C109 0.931 . S
H80 C101 0.929 . S
H81 C110 0.930 . S
H82 C102 0.931 . S
O83 Co59 2.097 1_545 S
O83 C111 1.214 . S
H84 C112 0.929 . S
H85 C113 0.929 . S
H86 C114 0.930 . S
H87 C115 0.929 . S
H88 C117 0.930 . S
H89 C94 0.930 . S
H90 C98 0.930 . S
O91 Co60 2.037 . S
O91 C111 1.234 . S
C92 O66 1.269 . S
C92 O67 1.257 . S
C93 H68 0.930 . S
C93 C96 1.388 1_554 S
C93 C98 1.418 . S
C94 H89 0.930 . S
C94 C97 1.404 . S
C94 C98 1.353 1_556 S
N95 Co60 2.145 . S
N95 C96 1.397 . S
N95 C97 1.334 . S
C96 H77 0.929 . S
C96 C93 1.388 1_556 S
C96 N95 1.397 . S
C97 H78 0.929 . S
C97 C94 1.404 . S
C97 N95 1.334 . S
C98 H90 0.930 . S
C98 C93 1.418 . S
C98 C94 1.353 1_554 S
C99 H69 0.930 . S
C99 N100 1.330 . S
C99 C101 1.446 . S
N100 Co59 2.151 . S
N100 C99 1.330 . S
N100 C104 1.418 . S
C101 H80 0.929 . S
C101 C99 1.446 . S
C101 C102 1.332 . S
C102 H82 0.931 . S
C102 C101 1.332 . S
C102 C103 1.267 . S
C103 H71 0.929 . S
C103 C102 1.267 . S
C103 C104 1.251 . S
C104 H74 0.929 . S
C104 N100 1.418 . S
C104 C103 1.251 . S
C105 H72 0.930 . S
C105 C107 1.406 . S
C105 C110 1.261 . S
C106 H73 0.930 . S
C106 N108 1.325 . S
C106 C109 1.357 . S
C107 H75 0.928 . S
C107 C105 1.406 . S
C107 N108 1.261 . S
N108 Co59 2.214 1_455 S
N108 C106 1.325 . S
N108 C107 1.261 . S
C109 H79 0.931 . S
C109 C106 1.357 . S
C109 C110 1.312 . S
C110 H81 0.930 . S
C110 C105 1.261 . S
C110 C109 1.312 . S
C111 O83 1.214 . S
C111 O91 1.234 . S
C112 H84 0.929 . S
C112 C115 1.391 . S
C112 C117 1.391 . S
C113 H85 0.929 . S
C113 C114 1.390 . S
C113 N116 1.391 . S
C114 H86 0.930 . S
C114 C113 1.390 . S
C114 C115 1.392 . S
C115 H87 0.929 . S
C115 C112 1.391 . S
C115 C114 1.392 . S
N116 Co60 2.257 . S
N116 C113 1.391 . S
N116 C117 1.388 . S
C117 H88 0.930 . S
C117 C112 1.391 . S
C117 N116 1.388 . S
Co118 O120 2.143 . S
Co118 O126 2.074 . S
Co118 O129 2.093 1_554 S
Co118 O142 2.097 . S
Co118 N159 2.151 1_554 S
Co118 N167 2.214 1_565 S
Co119 O120 2.160 . S
Co119 O125 2.058 . S
Co119 O135 2.057 . S
Co119 O150 2.037 . S
Co119 N154 2.145 . S
Co119 N175 2.257 . S
O120 Co118 2.143 . S
O120 Co119 2.160 . S
C121 O122 1.278 . S
C121 O129 1.224 . S
O122 C121 1.278 . S
C123 O124 1.245 1_554 S
C123 O135 1.232 . S
O124 C123 1.245 1_556 S
O125 Co119 2.058 . S
O125 C151 1.269 . S
O126 Co118 2.074 . S
O126 C151 1.257 . S
H127 C152 0.930 . S
H128 C158 0.930 . S
O129 Co118 2.093 1_556 S
O129 C121 1.224 . S
H130 C162 0.929 . S
H131 C164 0.930 . S
H132 C165 0.930 . S
H133 C163 0.929 . S
H134 C166 0.928 . S
O135 Co119 2.057 . S
O135 C123 1.232 . S
H136 C155 0.929 . S
H137 C156 0.929 . S
H138 C168 0.931 . S
H139 C160 0.929 . S
H140 C169 0.930 . S
H141 C161 0.931 . S
O142 Co118 2.097 . S
O142 C170 1.214 . S
H143 C171 0.929 . S
H144 C172 0.929 . S
H145 C173 0.930 . S
H146 C174 0.929 . S
H147 C176 0.930 1_556 S
H148 C153 0.930 . S
H149 C157 0.930 . S
O150 Co119 2.037 . S
O150 C170 1.234 . S
C151 O125 1.269 . S
C151 O126 1.257 . S
C152 H127 0.930 . S
C152 C155 1.388 . S
C152 C157 1.418 . S
C153 H148 0.930 . S
C153 C156 1.404 . S
C153 C157 1.353 . S
N154 Co119 2.145 . S
N154 C155 1.397 . S
N154 C156 1.334 . S
C155 H136 0.929 . S
C155 C152 1.388 . S
C155 N154 1.397 . S
C156 H137 0.929 . S
C156 C153 1.404 . S
C156 N154 1.334 . S
C157 H149 0.930 . S
C157 C152 1.418 . S
C157 C153 1.353 . S
C158 H128 0.930 . S
C158 N159 1.330 . S
C158 C160 1.446 . S
N159 Co118 2.151 1_556 S
N159 C158 1.330 . S
N159 C163 1.418 . S
C160 H139 0.929 . S
C160 C158 1.446 . S
C160 C161 1.332 . S
C161 H141 0.931 . S
C161 C160 1.332 . S
C161 C162 1.267 . S
C162 H130 0.929 . S
C162 C161 1.267 . S
C162 C163 1.251 . S
C163 H133 0.929 . S
C163 N159 1.418 . S
C163 C162 1.251 . S
C164 H131 0.930 . S
C164 C166 1.406 . S
C164 C169 1.261 1_556 S
C165 H132 0.930 . S
C165 N167 1.325 . S
C165 C168 1.357 . S
C166 H134 0.928 . S
C166 C164 1.406 . S
C166 N167 1.261 1_556 S
N167 Co118 2.214 1_545 S
N167 C165 1.325 . S
N167 C166 1.261 1_554 S
C168 H138 0.931 . S
C168 C165 1.357 . S
C168 C169 1.312 . S
C169 H140 0.930 . S
C169 C164 1.261 1_554 S
C169 C168 1.312 . S
C170 O142 1.214 . S
C170 O150 1.234 . S
C171 H143 0.929 . S
C171 C174 1.391 1_556 S
C171 C176 1.391 1_556 S
C172 H144 0.929 . S
C172 C173 1.390 . S
C172 N175 1.391 . S
C173 H145 0.930 . S
C173 C172 1.390 . S
C173 C174 1.392 . S
C174 H146 0.929 . S
C174 C171 1.391 1_554 S
C174 C173 1.392 . S
N175 Co119 2.257 . S
N175 C172 1.391 . S
N175 C176 1.388 . S
C176 H147 0.930 1_554 S
C176 C171 1.391 1_554 S
C176 N175 1.388 . S
Co177 O179 2.143 . S
Co177 O185 2.074 . S
Co177 O188 2.093 . S
Co177 O201 2.097 . S
Co177 N218 2.151 . S
Co177 N226 2.214 . S
Co178 O179 2.160 . S
Co178 O184 2.058 . S
Co178 O194 2.057 . S
Co178 O209 2.037 . S
Co178 N213 2.145 . S
Co178 N234 2.257 . S
O179 Co177 2.143 . S
O179 Co178 2.160 . S
C180 O181 1.278 . S
C180 O188 1.224 . S
O181 C180 1.278 . S
C182 O183 1.245 . S
C182 O194 1.232 . S
O183 C182 1.245 . S
O184 Co178 2.058 . S
O184 C210 1.269 . S
O185 Co177 2.074 . S
O185 C210 1.257 . S
H186 C211 0.930 1_554 S
H187 C217 0.930 . S
O188 Co177 2.093 . S
O188 C180 1.224 . S
H189 C221 0.929 . S
H190 C223 0.930 . S
H191 C224 0.930 . S
H192 C222 0.929 . S
H193 C225 0.928 . S
O194 Co178 2.057 . S
O194 C182 1.232 . S
H195 C214 0.929 . S
H196 C215 0.929 . S
H197 C227 0.931 . S
H198 C219 0.929 . S
H199 C228 0.930 . S
H200 C220 0.931 . S
O201 Co177 2.097 . S
O201 C229 1.214 . S
H202 C230 0.929 . S
H203 C231 0.929 . S
H204 C232 0.930 . S
H205 C233 0.929 . S
H206 C235 0.930 . S
H207 C212 0.930 . S
H208 C216 0.930 1_554 S
O209 Co178 2.037 . S
O209 C229 1.234 . S
C210 O184 1.269 . S
C210 O185 1.257 . S
C211 H186 0.930 1_556 S
C211 C214 1.388 . S
C211 C216 1.418 . S
C212 H207 0.930 . S
C212 C215 1.404 . S
C212 C216 1.353 . S
N213 Co178 2.145 . S
N213 C214 1.397 . S
N213 C215 1.334 . S
C214 H195 0.929 . S
C214 C211 1.388 . S
C214 N213 1.397 . S
C215 H196 0.929 . S
C215 C212 1.404 . S
C215 N213 1.334 . S
C216 H208 0.930 1_556 S
C216 C211 1.418 . S
C216 C212 1.353 . S
C217 H187 0.930 . S
C217 N218 1.330 . S
C217 C219 1.446 . S
N218 Co177 2.151 . S
N218 C217 1.330 . S
N218 C222 1.418 . S
C219 H198 0.929 . S
C219 C217 1.446 . S
C219 C220 1.332 . S
C220 H200 0.931 . S
C220 C219 1.332 . S
C220 C221 1.267 . S
C221 H189 0.929 . S
C221 C220 1.267 . S
C221 C222 1.251 . S
C222 H192 0.929 . S
C222 N218 1.418 . S
C222 C221 1.251 . S
C223 H190 0.930 . S
C223 C225 1.406 . S
C223 C228 1.261 . S
C224 H191 0.930 . S
C224 N226 1.325 . S
C224 C227 1.357 . S
C225 H193 0.928 . S
C225 C223 1.406 . S
C225 N226 1.261 . S
N226 Co177 2.214 . S
N226 C224 1.325 . S
N226 C225 1.261 . S
C227 H197 0.931 . S
C227 C224 1.357 . S
C227 C228 1.312 . S
C228 H199 0.930 . S
C228 C223 1.261 . S
C228 C227 1.312 . S
C229 O201 1.214 . S
C229 O209 1.234 . S
C230 H202 0.929 . S
C230 C233 1.391 . S
C230 C235 1.391 . S
C231 H203 0.929 . S
C231 C232 1.390 . S
C231 N234 1.391 . S
C232 H204 0.930 . S
C232 C231 1.390 . S
C232 C233 1.392 . S
C233 H205 0.929 . S
C233 C230 1.391 . S
C233 C232 1.392 . S
N234 Co178 2.257 . S
N234 C231 1.391 . S
N234 C235 1.388 . S
C235 H206 0.930 . S
C235 C230 1.391 . S
C235 N234 1.388 . S
Co236 O238 2.143 1_655 S
Co236 O244 2.074 . S
Co236 O247 2.093 1_656 S
Co236 O260 2.097 1_655 S
Co236 N277 2.151 1_556 S
Co236 N285 2.214 1_565 S
Co237 O238 2.160 . S
Co237 O243 2.058 1_455 S
Co237 O253 2.057 1_455 S
Co237 O268 2.037 . S
Co237 N272 2.145 . S
Co237 N293 2.257 . S
O238 Co236 2.143 1_455 S
O238 Co237 2.160 . S
C239 O240 1.278 . S
C239 O247 1.224 . S
O240 C239 1.278 . S
C241 O242 1.245 1_556 S
C241 O253 1.232 . S
O242 C241 1.245 1_554 S
O243 Co237 2.058 1_655 S
O243 C269 1.269 . S
O244 Co236 2.074 . S
O244 C269 1.257 . S
H245 C270 0.930 . S
H246 C276 0.930 . S
O247 Co236 2.093 1_454 S
O247 C239 1.224 . S
H248 C280 0.929 . S
H249 C282 0.930 . S
H250 C283 0.930 . S
H251 C281 0.929 . S
H252 C284 0.928 . S
O253 Co237 2.057 1_655 S
O253 C241 1.232 . S
H254 C273 0.929 . S
H255 C274 0.929 . S
H256 C286 0.931 . S
H257 C278 0.929 . S
H258 C287 0.930 . S
H259 C279 0.931 . S
O260 Co236 2.097 1_455 S
O260 C288 1.214 . S
H261 C289 0.929 1_554 S
H262 C290 0.929 . S
H263 C291 0.930 . S
H264 C292 0.929 . S
H265 C294 0.930 1_554 S
H266 C271 0.930 . S
H267 C275 0.930 . S
O268 Co237 2.037 . S
O268 C288 1.234 . S
C269 O243 1.269 . S
C269 O244 1.257 . S
C270 H245 0.930 . S
C270 C273 1.388 . S
C270 C275 1.418 . S
C271 H266 0.930 . S
C271 C274 1.404 . S
C271 C275 1.353 . S
N272 Co237 2.145 . S
N272 C273 1.397 . S
N272 C274 1.334 . S
C273 H254 0.929 . S
C273 C270 1.388 . S
C273 N272 1.397 . S
C274 H255 0.929 . S
C274 C271 1.404 . S
C274 N272 1.334 . S
C275 H267 0.930 . S
C275 C270 1.418 . S
C275 C271 1.353 . S
C276 H246 0.930 . S
C276 N277 1.330 . S
C276 C278 1.446 . S
N277 Co236 2.151 1_554 S
N277 C276 1.330 . S
N277 C281 1.418 . S
C278 H257 0.929 . S
C278 C276 1.446 . S
C278 C279 1.332 . S
C279 H259 0.931 . S
C279 C278 1.332 . S
C279 C280 1.267 . S
C280 H248 0.929 . S
C280 C279 1.267 . S
C280 C281 1.251 . S
C281 H251 0.929 . S
C281 N277 1.418 . S
C281 C280 1.251 . S
C282 H249 0.930 . S
C282 C284 1.406 . S
C282 C287 1.261 1_554 S
C283 H250 0.930 . S
C283 N285 1.325 . S
C283 C286 1.357 . S
C284 H252 0.928 . S
C284 C282 1.406 . S
C284 N285 1.261 1_554 S
N285 Co236 2.214 1_545 S
N285 C283 1.325 . S
N285 C284 1.261 1_556 S
C286 H256 0.931 . S
C286 C283 1.357 . S
C286 C287 1.312 . S
C287 H258 0.930 . S
C287 C282 1.261 1_556 S
C287 C286 1.312 . S
C288 O260 1.214 . S
C288 O268 1.234 . S
C289 H261 0.929 1_556 S
C289 C292 1.391 . S
C289 C294 1.391 . S
C290 H262 0.929 . S
C290 C291 1.390 . S
C290 N293 1.391 . S
C291 H263 0.930 . S
C291 C290 1.390 . S
C291 C292 1.392 . S
C292 H264 0.929 . S
C292 C289 1.391 . S
C292 C291 1.392 . S
N293 Co237 2.257 . S
N293 C290 1.391 . S
N293 C294 1.388 . S
C294 H265 0.930 1_556 S
C294 C289 1.391 . S
C294 N293 1.388 . S
Co295 O297 2.143 1_565 S
Co295 O303 2.074 . S
Co295 O306 2.093 1_565 S
Co295 O319 2.097 1_565 S
Co295 N336 2.151 . S
Co295 N344 2.214 . S
Co296 O297 2.160 . S
Co296 O302 2.058 1_545 S
Co296 O312 2.057 1_545 S
Co296 O327 2.037 . S
Co296 N331 2.145 . S
Co296 N352 2.257 . S
O297 Co295 2.143 1_545 S
O297 Co296 2.160 . S
C298 O299 1.278 . S
C298 O306 1.224 . S
O299 C298 1.278 . S
C300 O301 1.245 . S
C300 O312 1.232 . S
O301 C300 1.245 . S
O302 Co296 2.058 1_565 S
O302 C328 1.269 . S
O303 Co295 2.074 . S
O303 C328 1.257 . S
H304 C329 0.930 . S
H305 C335 0.930 . S
O306 Co295 2.093 1_545 S
O306 C298 1.224 . S
H307 C339 0.929 . S
H308 C341 0.930 . S
H309 C342 0.930 . S
H310 C340 0.929 . S
H311 C343 0.928 . S
O312 Co296 2.057 1_565 S
O312 C300 1.232 . S
H313 C332 0.929 . S
H314 C333 0.929 . S
H315 C345 0.931 . S
H316 C337 0.929 . S
H317 C346 0.930 . S
H318 C338 0.931 . S
O319 Co295 2.097 1_545 S
O319 C347 1.214 . S
H320 C348 0.929 . S
H321 C349 0.929 . S
H322 C350 0.930 . S
H323 C351 0.929 . S
H324 C353 0.930 . S
H325 C330 0.930 . S
H326 C334 0.930 . S
O327 Co296 2.037 . S
O327 C347 1.234 . S
C328 O302 1.269 . S
C328 O303 1.257 . S
C329 H304 0.930 . S
C329 C332 1.388 1_556 S
C329 C334 1.418 . S
C330 H325 0.930 . S
C330 C333 1.404 . S
C330 C334 1.353 1_554 S
N331 Co296 2.145 . S
N331 C332 1.397 . S
N331 C333 1.334 . S
C332 H313 0.929 . S
C332 C329 1.388 1_554 S
C332 N331 1.397 . S
C333 H314 0.929 . S
C333 C330 1.404 . S
C333 N331 1.334 . S
C334 H326 0.930 . S
C334 C329 1.418 . S
C334 C330 1.353 1_556 S
C335 H305 0.930 . S
C335 N336 1.330 . S
C335 C337 1.446 . S
N336 Co295 2.151 . S
N336 C335 1.330 . S
N336 C340 1.418 . S
C337 H316 0.929 . S
C337 C335 1.446 . S
C337 C338 1.332 . S
C338 H318 0.931 . S
C338 C337 1.332 . S
C338 C339 1.267 . S
C339 H307 0.929 . S
C339 C338 1.267 . S
C339 C340 1.251 . S
C340 H310 0.929 . S
C340 N336 1.418 . S
C340 C339 1.251 . S
C341 H308 0.930 . S
C341 C343 1.406 . S
C341 C346 1.261 . S
C342 H309 0.930 . S
C342 N344 1.325 . S
C342 C345 1.357 . S
C343 H311 0.928 . S
C343 C341 1.406 . S
C343 N344 1.261 . S
N344 Co295 2.214 . S
N344 C342 1.325 . S
N344 C343 1.261 . S
C345 H315 0.931 . S
C345 C342 1.357 . S
C345 C346 1.312 . S
C346 H317 0.930 . S
C346 C341 1.261 . S
C346 C345 1.312 . S
C347 O319 1.214 . S
C347 O327 1.234 . S
C348 H320 0.929 . S
C348 C351 1.391 . S
C348 C353 1.391 . S
C349 H321 0.929 . S
C349 C350 1.390 . S
C349 N352 1.391 . S
C350 H322 0.930 . S
C350 C349 1.390 . S
C350 C351 1.392 . S
C351 H323 0.929 . S
C351 C348 1.391 . S
C351 C350 1.392 . S
N352 Co296 2.257 . S
N352 C349 1.391 . S
N352 C353 1.388 . S
C353 H324 0.930 . S
C353 C348 1.391 . S
C353 N352 1.388 . S
Co354 O356 2.143 . S
Co354 O362 2.074 1_554 S
Co354 O365 2.093 . S
Co354 O378 2.097 1_554 S
Co354 N395 2.151 . S
Co354 N403 2.214 1_554 S
Co355 O356 2.160 1_556 S
Co355 O361 2.058 . S
Co355 O371 2.057 . S
Co355 O386 2.037 . S
Co355 N390 2.145 . S
Co355 N411 2.257 . S
O356 Co354 2.143 . S
O356 Co355 2.160 1_554 S
C357 O358 1.278 . S
C357 O365 1.224 . S
O358 C357 1.278 . S
C359 O360 1.245 . S
C359 O371 1.232 1_554 S
O360 C359 1.245 . S
O361 Co355 2.058 . S
O361 C387 1.269 . S
O362 Co354 2.074 1_556 S
O362 C387 1.257 . S
H363 C388 0.930 . S
H364 C394 0.930 . S
O365 Co354 2.093 . S
O365 C357 1.224 . S
H366 C398 0.929 . S
H367 C400 0.930 . S
H368 C401 0.930 . S
H369 C399 0.929 . S
H370 C402 0.928 . S
O371 Co355 2.057 . S
O371 C359 1.232 1_556 S
H372 C391 0.929 . S
H373 C392 0.929 . S
H374 C404 0.931 . S
H375 C396 0.929 . S
H376 C405 0.930 . S
H377 C397 0.931 . S
O378 Co354 2.097 1_556 S
O378 C406 1.214 . S
H379 C407 0.929 . S
H380 C408 0.929 . S
H381 C409 0.930 . S
H382 C410 0.929 . S
H383 C412 0.930 . S
H384 C389 0.930 . S
H385 C393 0.930 . S
O386 Co355 2.037 . S
O386 C406 1.234 . S
C387 O361 1.269 . S
C387 O362 1.257 . S
C388 H363 0.930 . S
C388 C391 1.388 . S
C388 C393 1.418 . S
C389 H384 0.930 . S
C389 C392 1.404 . S
C389 C393 1.353 . S
N390 Co355 2.145 . S
N390 C391 1.397 . S
N390 C392 1.334 . S
C391 H372 0.929 . S
C391 C388 1.388 . S
C391 N390 1.397 . S
C392 H373 0.929 . S
C392 C389 1.404 . S
C392 N390 1.334 . S
C393 H385 0.930 . S
C393 C388 1.418 . S
C393 C389 1.353 . S
C394 H364 0.930 . S
C394 N395 1.330 . S
C394 C396 1.446 . S
N395 Co354 2.151 . S
N395 C394 1.330 . S
N395 C399 1.418 . S
C396 H375 0.929 . S
C396 C394 1.446 . S
C396 C397 1.332 . S
C397 H377 0.931 . S
C397 C396 1.332 . S
C397 C398 1.267 . S
C398 H366 0.929 . S
C398 C397 1.267 . S
C398 C399 1.251 . S
C399 H369 0.929 . S
C399 N395 1.418 . S
C399 C398 1.251 . S
C400 H367 0.930 . S
C400 C402 1.406 . S
C400 C405 1.261 1_554 S
C401 H368 0.930 . S
C401 N403 1.325 . S
C401 C404 1.357 . S
C402 H370 0.928 . S
C402 C400 1.406 . S
C402 N403 1.261 1_554 S
N403 Co354 2.214 1_556 S
N403 C401 1.325 . S
N403 C402 1.261 1_556 S
C404 H374 0.931 . S
C404 C401 1.357 . S
C404 C405 1.312 . S
C405 H376 0.930 . S
C405 C400 1.261 1_556 S
C405 C404 1.312 . S
C406 O378 1.214 . S
C406 O386 1.234 . S
C407 H379 0.929 . S
C407 C410 1.391 . S
C407 C412 1.391 . S
C408 H380 0.929 . S
C408 C409 1.390 . S
C408 N411 1.391 . S
C409 H381 0.930 . S
C409 C408 1.390 . S
C409 C410 1.392 1_556 S
C410 H382 0.929 . S
C410 C407 1.391 . S
C410 C409 1.392 1_554 S
N411 Co355 2.257 . S
N411 C408 1.391 . S
N411 C412 1.388 1_556 S
C412 H383 0.930 . S
C412 C407 1.391 . S
C412 N411 1.388 1_554 S
Co413 O415 2.143 . S
Co413 O421 2.074 . S
Co413 O424 2.093 . S
Co413 O437 2.097 . S
Co413 N454 2.151 . S
Co413 N462 2.214 1_655 S
Co414 O415 2.160 . S
Co414 O420 2.058 . S
Co414 O430 2.057 . S
Co414 O445 2.037 . S
Co414 N449 2.145 . S
Co414 N470 2.257 . S
O415 Co413 2.143 . S
O415 Co414 2.160 . S
C416 O417 1.278 . S
C416 O424 1.224 . S
O417 C416 1.278 . S
C418 O419 1.245 . S
C418 O430 1.232 . S
O419 C418 1.245 . S
O420 Co414 2.058 . S
O420 C446 1.269 . S
O421 Co413 2.074 . S
O421 C446 1.257 . S
H422 C447 0.930 . S
H423 C453 0.930 . S
O424 Co413 2.093 . S
O424 C416 1.224 . S
H425 C457 0.929 . S
H426 C459 0.930 . S
H427 C460 0.930 . S
H428 C458 0.929 . S
H429 C461 0.928 . S
O430 Co414 2.057 . S
O430 C418 1.232 . S
H431 C450 0.929 . S
H432 C451 0.929 . S
H433 C463 0.931 . S
H434 C455 0.929 . S
H435 C464 0.930 . S
H436 C456 0.931 . S
O437 Co413 2.097 . S
O437 C465 1.214 . S
H438 C466 0.929 . S
H439 C467 0.929 . S
H440 C468 0.930 . S
H441 C469 0.929 . S
H442 C471 0.930 . S
H443 C448 0.930 . S
H444 C452 0.930 . S
O445 Co414 2.037 . S
O445 C465 1.234 . S
C446 O420 1.269 . S
C446 O421 1.257 . S
C447 H422 0.930 . S
C447 C450 1.388 1_556 S
C447 C452 1.418 . S
C448 H443 0.930 . S
C448 C451 1.404 . S
C448 C452 1.353 1_554 S
N449 Co414 2.145 . S
N449 C450 1.397 . S
N449 C451 1.334 . S
C450 H431 0.929 . S
C450 C447 1.388 1_554 S
C450 N449 1.397 . S
C451 H432 0.929 . S
C451 C448 1.404 . S
C451 N449 1.334 . S
C452 H444 0.930 . S
C452 C447 1.418 . S
C452 C448 1.353 1_556 S
C453 H423 0.930 . S
C453 N454 1.330 . S
C453 C455 1.446 . S
N454 Co413 2.151 . S
N454 C453 1.330 . S
N454 C458 1.418 . S
C455 H434 0.929 . S
C455 C453 1.446 . S
C455 C456 1.332 . S
C456 H436 0.931 . S
C456 C455 1.332 . S
C456 C457 1.267 . S
C457 H425 0.929 . S
C457 C456 1.267 . S
C457 C458 1.251 . S
C458 H428 0.929 . S
C458 N454 1.418 . S
C458 C457 1.251 . S
C459 H426 0.930 . S
C459 C461 1.406 . S
C459 C464 1.261 . S
C460 H427 0.930 . S
C460 N462 1.325 . S
C460 C463 1.357 . S
C461 H429 0.928 . S
C461 C459 1.406 . S
C461 N462 1.261 . S
N462 Co413 2.214 1_455 S
N462 C460 1.325 . S
N462 C461 1.261 . S
C463 H433 0.931 . S
C463 C460 1.357 . S
C463 C464 1.312 . S
C464 H435 0.930 . S
C464 C459 1.261 . S
C464 C463 1.312 . S
C465 O437 1.214 . S
C465 O445 1.234 . S
C466 H438 0.929 . S
C466 C469 1.391 . S
C466 C471 1.391 . S
C467 H439 0.929 . S
C467 C468 1.390 . S
C467 N470 1.391 . S
C468 H440 0.930 . S
C468 C467 1.390 . S
C468 C469 1.392 . S
C469 H441 0.929 . S
C469 C466 1.391 . S
C469 C468 1.392 . S
N470 Co414 2.257 . S
N470 C467 1.391 . S
N470 C471 1.388 . S
C471 H442 0.930 . S
C471 C466 1.391 . S
C471 N470 1.388 . S
Co472 O474 2.143 1_456 S
Co472 O480 2.074 . S
Co472 O483 2.093 1_456 S
Co472 O496 2.097 1_455 S
Co472 N513 2.151 1_556 S
Co472 N521 2.214 . S
Co473 O474 2.160 1_556 S
Co473 O479 2.058 1_655 S
Co473 O489 2.057 1_655 S
Co473 O504 2.037 . S
Co473 N508 2.145 . S
Co473 N529 2.257 . S
O474 Co472 2.143 1_654 S
O474 Co473 2.160 1_554 S
C475 O476 1.278 . S
C475 O483 1.224 . S
O476 C475 1.278 . S
C477 O478 1.245 . S
C477 O489 1.232 1_554 S
O478 C477 1.245 . S
O479 Co473 2.058 1_455 S
O479 C505 1.269 . S
O480 Co472 2.074 . S
O480 C505 1.257 . S
H481 C506 0.930 . S
H482 C512 0.930 . S
O483 Co472 2.093 1_654 S
O483 C475 1.224 . S
H484 C516 0.929 . S
H485 C518 0.930 . S
H486 C519 0.930 . S
H487 C517 0.929 . S
H488 C520 0.928 . S
O489 Co473 2.057 1_455 S
O489 C477 1.232 1_556 S
H490 C509 0.929 . S
H491 C510 0.929 . S
H492 C522 0.931 . S
H493 C514 0.929 . S
H494 C523 0.930 . S
H495 C515 0.931 . S
O496 Co472 2.097 1_655 S
O496 C524 1.214 . S
H497 C525 0.929 . S
H498 C526 0.929 . S
H499 C527 0.930 . S
H500 C528 0.929 . S
H501 C530 0.930 . S
H502 C507 0.930 . S
H503 C511 0.930 . S
O504 Co473 2.037 . S
O504 C524 1.234 . S
C505 O479 1.269 . S
C505 O480 1.257 . S
C506 H481 0.930 . S
C506 C509 1.388 . S
C506 C511 1.418 . S
C507 H502 0.930 . S
C507 C510 1.404 . S
C507 C511 1.353 . S
N508 Co473 2.145 . S
N508 C509 1.397 . S
N508 C510 1.334 . S
C509 H490 0.929 . S
C509 C506 1.388 . S
C509 N508 1.397 . S
C510 H491 0.929 . S
C510 C507 1.404 . S
C510 N508 1.334 . S
C511 H503 0.930 . S
C511 C506 1.418 . S
C511 C507 1.353 . S
C512 H482 0.930 . S
C512 N513 1.330 . S
C512 C514 1.446 . S
N513 Co472 2.151 1_554 S
N513 C512 1.330 . S
N513 C517 1.418 . S
C514 H493 0.929 . S
C514 C512 1.446 . S
C514 C515 1.332 . S
C515 H495 0.931 . S
C515 C514 1.332 . S
C515 C516 1.267 . S
C516 H484 0.929 . S
C516 C515 1.267 . S
C516 C517 1.251 . S
C517 H487 0.929 . S
C517 N513 1.418 . S
C517 C516 1.251 . S
C518 H485 0.930 . S
C518 C520 1.406 . S
C518 C523 1.261 1_554 S
C519 H486 0.930 . S
C519 N521 1.325 . S
C519 C522 1.357 . S
C520 H488 0.928 . S
C520 C518 1.406 . S
C520 N521 1.261 1_554 S
N521 Co472 2.214 . S
N521 C519 1.325 . S
N521 C520 1.261 1_556 S
C522 H492 0.931 . S
C522 C519 1.357 . S
C522 C523 1.312 . S
C523 H494 0.930 . S
C523 C518 1.261 1_556 S
C523 C522 1.312 . S
C524 O496 1.214 . S
C524 O504 1.234 . S
C525 H497 0.929 . S
C525 C528 1.391 1_554 S
C525 C530 1.391 . S
C526 H498 0.929 . S
C526 C527 1.390 . S
C526 N529 1.391 . S
C527 H499 0.930 . S
C527 C526 1.390 . S
C527 C528 1.392 . S
C528 H500 0.929 . S
C528 C525 1.391 1_556 S
C528 C527 1.392 . S
N529 Co473 2.257 . S
N529 C526 1.391 . S
N529 C530 1.388 1_556 S
C530 H501 0.930 . S
C530 C525 1.391 . S
C530 N529 1.388 1_554 S
Co531 O533 2.143 1_545 S
Co531 O539 2.074 . S
Co531 O542 2.093 1_545 S
Co531 O555 2.097 1_545 S
Co531 N572 2.151 . S
Co531 N580 2.214 1_455 S
Co532 O533 2.160 . S
Co532 O538 2.058 1_565 S
Co532 O548 2.057 1_565 S
Co532 O563 2.037 . S
Co532 N567 2.145 . S
Co532 N588 2.257 . S
O533 Co531 2.143 1_565 S
O533 Co532 2.160 . S
C534 O535 1.278 . S
C534 O542 1.224 . S
O535 C534 1.278 . S
C536 O537 1.245 . S
C536 O548 1.232 . S
O537 C536 1.245 . S
O538 Co532 2.058 1_545 S
O538 C564 1.269 . S
O539 Co531 2.074 . S
O539 C564 1.257 . S
H540 C565 0.930 . S
H541 C571 0.930 . S
O542 Co531 2.093 1_565 S
O542 C534 1.224 . S
H543 C575 0.929 . S
H544 C577 0.930 . S
H545 C578 0.930 . S
H546 C576 0.929 . S
H547 C579 0.928 . S
O548 Co532 2.057 1_545 S
O548 C536 1.232 . S
H549 C568 0.929 . S
H550 C569 0.929 . S
H551 C581 0.931 . S
H552 C573 0.929 . S
H553 C582 0.930 . S
H554 C574 0.931 . S
O555 Co531 2.097 1_565 S
O555 C583 1.214 . S
H556 C584 0.929 . S
H557 C585 0.929 . S
H558 C586 0.930 . S
H559 C587 0.929 . S
H560 C589 0.930 . S
H561 C566 0.930 . S
H562 C570 0.930 . S
O563 Co532 2.037 . S
O563 C583 1.234 . S
C564 O538 1.269 . S
C564 O539 1.257 . S
C565 H540 0.930 . S
C565 C568 1.388 1_556 S
C565 C570 1.418 . S
C566 H561 0.930 . S
C566 C569 1.404 . S
C566 C570 1.353 1_554 S
N567 Co532 2.145 . S
N567 C568 1.397 . S
N567 C569 1.334 . S
C568 H549 0.929 . S
C568 C565 1.388 1_554 S
C568 N567 1.397 . S
C569 H550 0.929 . S
C569 C566 1.404 . S
C569 N567 1.334 . S
C570 H562 0.930 . S
C570 C565 1.418 . S
C570 C566 1.353 1_556 S
C571 H541 0.930 . S
C571 N572 1.330 . S
C571 C573 1.446 . S
N572 Co531 2.151 . S
N572 C571 1.330 . S
N572 C576 1.418 . S
C573 H552 0.929 . S
C573 C571 1.446 . S
C573 C574 1.332 . S
C574 H554 0.931 . S
C574 C573 1.332 . S
C574 C575 1.267 . S
C575 H543 0.929 . S
C575 C574 1.267 . S
C575 C576 1.251 . S
C576 H546 0.929 . S
C576 N572 1.418 . S
C576 C575 1.251 . S
C577 H544 0.930 . S
C577 C579 1.406 . S
C577 C582 1.261 . S
C578 H545 0.930 . S
C578 N580 1.325 . S
C578 C581 1.357 . S
C579 H547 0.928 . S
C579 C577 1.406 . S
C579 N580 1.261 . S
N580 Co531 2.214 1_655 S
N580 C578 1.325 . S
N580 C579 1.261 . S
C581 H551 0.931 . S
C581 C578 1.357 . S
C581 C582 1.312 . S
C582 H553 0.930 . S
C582 C577 1.261 . S
C582 C581 1.312 . S
C583 O555 1.214 . S
C583 O563 1.234 . S
C584 H556 0.929 . S
C584 C587 1.391 . S
C584 C589 1.391 . S
C585 H557 0.929 . S
C585 C586 1.390 . S
C585 N588 1.391 . S
C586 H558 0.930 . S
C586 C585 1.390 . S
C586 C587 1.392 . S
C587 H559 0.929 . S
C587 C584 1.391 . S
C587 C586 1.392 . S
N588 Co532 2.257 . S
N588 C585 1.391 . S
N588 C589 1.388 . S
C589 H560 0.930 . S
C589 C584 1.391 . S
C589 N588 1.388 . S
Co590 O592 2.143 . S
Co590 O598 2.074 . S
Co590 O601 2.093 1_556 S
Co590 O614 2.097 . S
Co590 N631 2.151 1_556 S
Co590 N639 2.214 1_545 S
Co591 O592 2.160 . S
Co591 O597 2.058 . S
Co591 O607 2.057 . S
Co591 O622 2.037 . S
Co591 N626 2.145 . S
Co591 N647 2.257 . S
O592 Co590 2.143 . S
O592 Co591 2.160 . S
C593 O594 1.278 . S
C593 O601 1.224 . S
O594 C593 1.278 . S
C595 O596 1.245 1_556 S
C595 O607 1.232 . S
O596 C595 1.245 1_554 S
O597 Co591 2.058 . S
O597 C623 1.269 . S
O598 Co590 2.074 . S
O598 C623 1.257 . S
H599 C624 0.930 . S
H600 C630 0.930 . S
O601 Co590 2.093 1_554 S
O601 C593 1.224 . S
H602 C634 0.929 . S
H603 C636 0.930 . S
H604 C637 0.930 . S
H605 C635 0.929 . S
H606 C638 0.928 . S
O607 Co591 2.057 . S
O607 C595 1.232 . S
H608 C627 0.929 . S
H609 C628 0.929 . S
H610 C640 0.931 . S
H611 C632 0.929 . S
H612 C641 0.930 . S
H613 C633 0.931 . S
O614 Co590 2.097 . S
O614 C642 1.214 . S
H615 C643 0.929 . S
H616 C644 0.929 . S
H617 C645 0.930 . S
H618 C646 0.929 . S
H619 C648 0.930 1_554 S
H620 C625 0.930 . S
H621 C629 0.930 . S
O622 Co591 2.037 . S
O622 C642 1.234 . S
C623 O597 1.269 . S
C623 O598 1.257 . S
C624 H599 0.930 . S
C624 C627 1.388 . S
C624 C629 1.418 . S
C625 H620 0.930 . S
C625 C628 1.404 . S
C625 C629 1.353 . S
N626 Co591 2.145 . S
N626 C627 1.397 . S
N626 C628 1.334 . S
C627 H608 0.929 . S
C627 C624 1.388 . S
C627 N626 1.397 . S
C628 H609 0.929 . S
C628 C625 1.404 . S
C628 N626 1.334 . S
C629 H621 0.930 . S
C629 C624 1.418 . S
C629 C625 1.353 . S
C630 H600 0.930 . S
C630 N631 1.330 . S
C630 C632 1.446 . S
N631 Co590 2.151 1_554 S
N631 C630 1.330 . S
N631 C635 1.418 . S
C632 H611 0.929 . S
C632 C630 1.446 . S
C632 C633 1.332 . S
C633 H613 0.931 . S
C633 C632 1.332 . S
C633 C634 1.267 . S
C634 H602 0.929 . S
C634 C633 1.267 . S
C634 C635 1.251 . S
C635 H605 0.929 . S
C635 N631 1.418 . S
C635 C634 1.251 . S
C636 H603 0.930 . S
C636 C638 1.406 . S
C636 C641 1.261 1_554 S
C637 H604 0.930 . S
C637 N639 1.325 . S
C637 C640 1.357 . S
C638 H606 0.928 . S
C638 C636 1.406 . S
C638 N639 1.261 1_554 S
N639 Co590 2.214 1_565 S
N639 C637 1.325 . S
N639 C638 1.261 1_556 S
C640 H610 0.931 . S
C640 C637 1.357 . S
C640 C641 1.312 . S
C641 H612 0.930 . S
C641 C636 1.261 1_556 S
C641 C640 1.312 . S
C642 O614 1.214 . S
C642 O622 1.234 . S
C643 H615 0.929 . S
C643 C646 1.391 1_554 S
C643 C648 1.391 1_554 S
C644 H616 0.929 . S
C644 C645 1.390 . S
C644 N647 1.391 . S
C645 H617 0.930 . S
C645 C644 1.390 . S
C645 C646 1.392 . S
C646 H618 0.929 . S
C646 C643 1.391 1_556 S
C646 C645 1.392 . S
N647 Co591 2.257 . S
N647 C644 1.391 . S
N647 C648 1.388 . S
C648 H619 0.930 1_556 S
C648 C643 1.391 1_556 S
C648 N647 1.388 . S
Co649 O651 2.143 . S
Co649 O657 2.074 . S
Co649 O660 2.093 . S
Co649 O673 2.097 . S
Co649 N690 2.151 . S
Co649 N698 2.214 . S
Co650 O651 2.160 . S
Co650 O656 2.058 . S
Co650 O666 2.057 . S
Co650 O681 2.037 . S
Co650 N685 2.145 . S
Co650 N706 2.257 . S
O651 Co649 2.143 . S
O651 Co650 2.160 . S
C652 O653 1.278 . S
C652 O660 1.224 . S
O653 C652 1.278 . S
C654 O655 1.245 . S
C654 O666 1.232 . S
O655 C654 1.245 . S
O656 Co650 2.058 . S
O656 C682 1.269 . S
O657 Co649 2.074 . S
O657 C682 1.257 . S
H658 C683 0.930 1_556 S
H659 C689 0.930 . S
O660 Co649 2.093 . S
O660 C652 1.224 . S
H661 C693 0.929 . S
H662 C695 0.930 . S
H663 C696 0.930 . S
H664 C694 0.929 . S
H665 C697 0.928 . S
O666 Co650 2.057 . S
O666 C654 1.232 . S
H667 C686 0.929 . S
H668 C687 0.929 . S
H669 C699 0.931 . S
H670 C691 0.929 . S
H671 C700 0.930 . S
H672 C692 0.931 . S
O673 Co649 2.097 . S
O673 C701 1.214 . S
H674 C702 0.929 . S
H675 C703 0.929 . S
H676 C704 0.930 . S
H677 C705 0.929 . S
H678 C707 0.930 . S
H679 C684 0.930 . S
H680 C688 0.930 1_556 S
O681 Co650 2.037 . S
O681 C701 1.234 . S
C682 O656 1.269 . S
C682 O657 1.257 . S
C683 H658 0.930 1_554 S
C683 C686 1.388 . S
C683 C688 1.418 . S
C684 H679 0.930 . S
C684 C687 1.404 . S
C684 C688 1.353 . S
N685 Co650 2.145 . S
N685 C686 1.397 . S
N685 C687 1.334 . S
C686 H667 0.929 . S
C686 C683 1.388 . S
C686 N685 1.397 . S
C687 H668 0.929 . S
C687 C684 1.404 . S
C687 N685 1.334 . S
C688 H680 0.930 1_554 S
C688 C683 1.418 . S
C688 C684 1.353 . S
C689 H659 0.930 . S
C689 N690 1.330 . S
C689 C691 1.446 . S
N690 Co649 2.151 . S
N690 C689 1.330 . S
N690 C694 1.418 . S
C691 H670 0.929 . S
C691 C689 1.446 . S
C691 C692 1.332 . S
C692 H672 0.931 . S
C692 C691 1.332 . S
C692 C693 1.267 . S
C693 H661 0.929 . S
C693 C692 1.267 . S
C693 C694 1.251 . S
C694 H664 0.929 . S
C694 N690 1.418 . S
C694 C693 1.251 . S
C695 H662 0.930 . S
C695 C697 1.406 . S
C695 C700 1.261 . S
C696 H663 0.930 . S
C696 N698 1.325 . S
C696 C699 1.357 . S
C697 H665 0.928 . S
C697 C695 1.406 . S
C697 N698 1.261 . S
N698 Co649 2.214 . S
N698 C696 1.325 . S
N698 C697 1.261 . S
C699 H669 0.931 . S
C699 C696 1.357 . S
C699 C700 1.312 . S
C700 H671 0.930 . S
C700 C695 1.261 . S
C700 C699 1.312 . S
C701 O673 1.214 . S
C701 O681 1.234 . S
C702 H674 0.929 . S
C702 C705 1.391 . S
C702 C707 1.391 . S
C703 H675 0.929 . S
C703 C704 1.390 . S
C703 N706 1.391 . S
C704 H676 0.930 . S
C704 C703 1.390 . S
C704 C705 1.392 . S
C705 H677 0.929 . S
C705 C702 1.391 . S
C705 C704 1.392 . S
N706 Co650 2.257 . S
N706 C703 1.391 . S
N706 C707 1.388 . S
C707 H678 0.930 . S
C707 C702 1.391 . S
C707 N706 1.388 . S
Co708 O710 2.143 1_455 S
Co708 O716 2.074 . S
Co708 O719 2.093 1_454 S
Co708 O732 2.097 1_455 S
Co708 N749 2.151 1_554 S
Co708 N757 2.214 1_545 S
Co709 O710 2.160 . S
Co709 O715 2.058 1_655 S
Co709 O725 2.057 1_655 S
Co709 O740 2.037 . S
Co709 N744 2.145 . S
Co709 N765 2.257 . S
O710 Co708 2.143 1_655 S
O710 Co709 2.160 . S
C711 O712 1.278 . S
C711 O719 1.224 . S
O712 C711 1.278 . S
C713 O714 1.245 1_554 S
C713 O725 1.232 . S
O714 C713 1.245 1_556 S
O715 Co709 2.058 1_455 S
O715 C741 1.269 . S
O716 Co708 2.074 . S
O716 C741 1.257 . S
H717 C742 0.930 . S
H718 C748 0.930 . S
O719 Co708 2.093 1_656 S
O719 C711 1.224 . S
H720 C752 0.929 . S
H721 C754 0.930 . S
H722 C755 0.930 . S
H723 C753 0.929 . S
H724 C756 0.928 . S
O725 Co709 2.057 1_455 S
O725 C713 1.232 . S
H726 C745 0.929 . S
H727 C746 0.929 . S
H728 C758 0.931 . S
H729 C750 0.929 . S
H730 C759 0.930 . S
H731 C751 0.931 . S
O732 Co708 2.097 1_655 S
O732 C760 1.214 . S
H733 C761 0.929 1_556 S
H734 C762 0.929 . S
H735 C763 0.930 . S
H736 C764 0.929 . S
H737 C766 0.930 1_556 S
H738 C743 0.930 . S
H739 C747 0.930 . S
O740 Co709 2.037 . S
O740 C760 1.234 . S
C741 O715 1.269 . S
C741 O716 1.257 . S
C742 H717 0.930 . S
C742 C745 1.388 . S
C742 C747 1.418 . S
C743 H738 0.930 . S
C743 C746 1.404 . S
C743 C747 1.353 . S
N744 Co709 2.145 . S
N744 C745 1.397 . S
N744 C746 1.334 . S
C745 H726 0.929 . S
C745 C742 1.388 . S
C745 N744 1.397 . S
C746 H727 0.929 . S
C746 C743 1.404 . S
C746 N744 1.334 . S
C747 H739 0.930 . S
C747 C742 1.418 . S
C747 C743 1.353 . S
C748 H718 0.930 . S
C748 N749 1.330 . S
C748 C750 1.446 . S
N749 Co708 2.151 1_556 S
N749 C748 1.330 . S
N749 C753 1.418 . S
C750 H729 0.929 . S
C750 C748 1.446 . S
C750 C751 1.332 . S
C751 H731 0.931 . S
C751 C750 1.332 . S
C751 C752 1.267 . S
C752 H720 0.929 . S
C752 C751 1.267 . S
C752 C753 1.251 . S
C753 H723 0.929 . S
C753 N749 1.418 . S
C753 C752 1.251 . S
C754 H721 0.930 . S
C754 C756 1.406 . S
C754 C759 1.261 1_556 S
C755 H722 0.930 . S
C755 N757 1.325 . S
C755 C758 1.357 . S
C756 H724 0.928 . S
C756 C754 1.406 . S
C756 N757 1.261 1_556 S
N757 Co708 2.214 1_565 S
N757 C755 1.325 . S
N757 C756 1.261 1_554 S
C758 H728 0.931 . S
C758 C755 1.357 . S
C758 C759 1.312 . S
C759 H730 0.930 . S
C759 C754 1.261 1_554 S
C759 C758 1.312 . S
C760 O732 1.214 . S
C760 O740 1.234 . S
C761 H733 0.929 1_554 S
C761 C764 1.391 . S
C761 C766 1.391 . S
C762 H734 0.929 . S
C762 C763 1.390 . S
C762 N765 1.391 . S
C763 H735 0.930 . S
C763 C762 1.390 . S
C763 C764 1.392 . S
C764 H736 0.929 . S
C764 C761 1.391 . S
C764 C763 1.392 . S
N765 Co709 2.257 . S
N765 C762 1.391 . S
N765 C766 1.388 . S
C766 H737 0.930 1_554 S
C766 C761 1.391 . S
C766 N765 1.388 . S
Co767 O769 2.143 1_545 S
Co767 O775 2.074 . S
Co767 O778 2.093 1_545 S
Co767 O791 2.097 1_545 S
Co767 N808 2.151 . S
Co767 N816 2.214 . S
Co768 O769 2.160 . S
Co768 O774 2.058 1_565 S
Co768 O784 2.057 1_565 S
Co768 O799 2.037 . S
Co768 N803 2.145 . S
Co768 N824 2.257 . S
O769 Co767 2.143 1_565 S
O769 Co768 2.160 . S
C770 O771 1.278 . S
C770 O778 1.224 . S
O771 C770 1.278 . S
C772 O773 1.245 . S
C772 O784 1.232 . S
O773 C772 1.245 . S
O774 Co768 2.058 1_545 S
O774 C800 1.269 . S
O775 Co767 2.074 . S
O775 C800 1.257 . S
H776 C801 0.930 . S
H777 C807 0.930 . S
O778 Co767 2.093 1_565 S
O778 C770 1.224 . S
H779 C811 0.929 . S
H780 C813 0.930 . S
H781 C814 0.930 . S
H782 C812 0.929 . S
H783 C815 0.928 . S
O784 Co768 2.057 1_545 S
O784 C772 1.232 . S
H785 C804 0.929 . S
H786 C805 0.929 . S
H787 C817 0.931 . S
H788 C809 0.929 . S
H789 C818 0.930 . S
H790 C810 0.931 . S
O791 Co767 2.097 1_565 S
O791 C819 1.214 . S
H792 C820 0.929 . S
H793 C821 0.929 . S
H794 C822 0.930 . S
H795 C823 0.929 . S
H796 C825 0.930 . S
H797 C802 0.930 . S
H798 C806 0.930 . S
O799 Co768 2.037 . S
O799 C819 1.234 . S
C800 O774 1.269 . S
C800 O775 1.257 . S
C801 H776 0.930 . S
C801 C804 1.388 1_554 S
C801 C806 1.418 . S
C802 H797 0.930 . S
C802 C805 1.404 . S
C802 C806 1.353 1_556 S
N803 Co768 2.145 . S
N803 C804 1.397 . S
N803 C805 1.334 . S
C804 H785 0.929 . S
C804 C801 1.388 1_556 S
C804 N803 1.397 . S
C805 H786 0.929 . S
C805 C802 1.404 . S
C805 N803 1.334 . S
C806 H798 0.930 . S
C806 C801 1.418 . S
C806 C802 1.353 1_554 S
C807 H777 0.930 . S
C807 N808 1.330 . S
C807 C809 1.446 . S
N808 Co767 2.151 . S
N808 C807 1.330 . S
N808 C812 1.418 . S
C809 H788 0.929 . S
C809 C807 1.446 . S
C809 C810 1.332 . S
C810 H790 0.931 . S
C810 C809 1.332 . S
C810 C811 1.267 . S
C811 H779 0.929 . S
C811 C810 1.267 . S
C811 C812 1.251 . S
C812 H782 0.929 . S
C812 N808 1.418 . S
C812 C811 1.251 . S
C813 H780 0.930 . S
C813 C815 1.406 . S
C813 C818 1.261 . S
C814 H781 0.930 . S
C814 N816 1.325 . S
C814 C817 1.357 . S
C815 H783 0.928 . S
C815 C813 1.406 . S
C815 N816 1.261 . S
N816 Co767 2.214 . S
N816 C814 1.325 . S
N816 C815 1.261 . S
C817 H787 0.931 . S
C817 C814 1.357 . S
C817 C818 1.312 . S
C818 H789 0.930 . S
C818 C813 1.261 . S
C818 C817 1.312 . S
C819 O791 1.214 . S
C819 O799 1.234 . S
C820 H792 0.929 . S
C820 C823 1.391 . S
C820 C825 1.391 . S
C821 H793 0.929 . S
C821 C822 1.390 . S
C821 N824 1.391 . S
C822 H794 0.930 . S
C822 C821 1.390 . S
C822 C823 1.392 . S
C823 H795 0.929 . S
C823 C820 1.391 . S
C823 C822 1.392 . S
N824 Co768 2.257 . S
N824 C821 1.391 . S
N824 C825 1.388 . S
C825 H796 0.930 . S
C825 C820 1.391 . S
C825 N824 1.388 . S
Co826 O828 2.143 . S
Co826 O834 2.074 1_556 S
Co826 O837 2.093 . S
Co826 O850 2.097 1_556 S
Co826 N867 2.151 . S
Co826 N875 2.214 1_556 S
Co827 O828 2.160 1_554 S
Co827 O833 2.058 . S
Co827 O843 2.057 . S
Co827 O858 2.037 . S
Co827 N862 2.145 . S
Co827 N883 2.257 . S
O828 Co826 2.143 . S
O828 Co827 2.160 1_556 S
C829 O830 1.278 . S
C829 O837 1.224 . S
O830 C829 1.278 . S
C831 O832 1.245 . S
C831 O843 1.232 1_556 S
O832 C831 1.245 . S
O833 Co827 2.058 . S
O833 C859 1.269 . S
O834 Co826 2.074 1_554 S
O834 C859 1.257 . S
H835 C860 0.930 . S
H836 C866 0.930 . S
O837 Co826 2.093 . S
O837 C829 1.224 . S
H838 C870 0.929 . S
H839 C872 0.930 . S
H840 C873 0.930 . S
H841 C871 0.929 . S
H842 C874 0.928 . S
O843 Co827 2.057 . S
O843 C831 1.232 1_554 S
H844 C863 0.929 . S
H845 C864 0.929 . S
H846 C876 0.931 . S
H847 C868 0.929 . S
H848 C877 0.930 . S
H849 C869 0.931 . S
O850 Co826 2.097 1_554 S
O850 C878 1.214 . S
H851 C879 0.929 . S
H852 C880 0.929 . S
H853 C881 0.930 . S
H854 C882 0.929 . S
H855 C884 0.930 . S
H856 C861 0.930 . S
H857 C865 0.930 . S
O858 Co827 2.037 . S
O858 C878 1.234 . S
C859 O833 1.269 . S
C859 O834 1.257 . S
C860 H835 0.930 . S
C860 C863 1.388 . S
C860 C865 1.418 . S
C861 H856 0.930 . S
C861 C864 1.404 . S
C861 C865 1.353 . S
N862 Co827 2.145 . S
N862 C863 1.397 . S
N862 C864 1.334 . S
C863 H844 0.929 . S
C863 C860 1.388 . S
C863 N862 1.397 . S
C864 H845 0.929 . S
C864 C861 1.404 . S
C864 N862 1.334 . S
C865 H857 0.930 . S
C865 C860 1.418 . S
C865 C861 1.353 . S
C866 H836 0.930 . S
C866 N867 1.330 . S
C866 C868 1.446 . S
N867 Co826 2.151 . S
N867 C866 1.330 . S
N867 C871 1.418 . S
C868 H847 0.929 . S
C868 C866 1.446 . S
C868 C869 1.332 . S
C869 H849 0.931 . S
C869 C868 1.332 . S
C869 C870 1.267 . S
C870 H838 0.929 . S
C870 C869 1.267 . S
C870 C871 1.251 . S
C871 H841 0.929 . S
C871 N867 1.418 . S
C871 C870 1.251 . S
C872 H839 0.930 . S
C872 C874 1.406 . S
C872 C877 1.261 1_556 S
C873 H840 0.930 . S
C873 N875 1.325 . S
C873 C876 1.357 . S
C874 H842 0.928 . S
C874 C872 1.406 . S
C874 N875 1.261 1_556 S
N875 Co826 2.214 1_554 S
N875 C873 1.325 . S
N875 C874 1.261 1_554 S
C876 H846 0.931 . S
C876 C873 1.357 . S
C876 C877 1.312 . S
C877 H848 0.930 . S
C877 C872 1.261 1_554 S
C877 C876 1.312 . S
C878 O850 1.214 . S
C878 O858 1.234 . S
C879 H851 0.929 . S
C879 C882 1.391 . S
C879 C884 1.391 . S
C880 H852 0.929 . S
C880 C881 1.390 . S
C880 N883 1.391 . S
C881 H853 0.930 . S
C881 C880 1.390 . S
C881 C882 1.392 1_554 S
C882 H854 0.929 . S
C882 C879 1.391 . S
C882 C881 1.392 1_556 S
N883 Co827 2.257 . S
N883 C880 1.391 . S
N883 C884 1.388 1_554 S
C884 H855 0.930 . S
C884 C879 1.391 . S
C884 N883 1.388 1_556 S
Co885 O887 2.143 . S
Co885 O893 2.074 . S
Co885 O896 2.093 . S
Co885 O909 2.097 . S
Co885 N926 2.151 . S
Co885 N934 2.214 1_455 S
Co886 O887 2.160 . S
Co886 O892 2.058 . S
Co886 O902 2.057 . S
Co886 O917 2.037 . S
Co886 N921 2.145 . S
Co886 N942 2.257 . S
O887 Co885 2.143 . S
O887 Co886 2.160 . S
C888 O889 1.278 . S
C888 O896 1.224 . S
O889 C888 1.278 . S
C890 O891 1.245 . S
C890 O902 1.232 . S
O891 C890 1.245 . S
O892 Co886 2.058 . S
O892 C918 1.269 . S
O893 Co885 2.074 . S
O893 C918 1.257 . S
H894 C919 0.930 . S
H895 C925 0.930 . S
O896 Co885 2.093 . S
O896 C888 1.224 . S
H897 C929 0.929 . S
H898 C931 0.930 . S
H899 C932 0.930 . S
H900 C930 0.929 . S
H901 C933 0.928 . S
O902 Co886 2.057 . S
O902 C890 1.232 . S
H903 C922 0.929 . S
H904 C923 0.929 . S
H905 C935 0.931 . S
H906 C927 0.929 . S
H907 C936 0.930 . S
H908 C928 0.931 . S
O909 Co885 2.097 . S
O909 C937 1.214 . S
H910 C938 0.929 . S
H911 C939 0.929 . S
H912 C940 0.930 . S
H913 C941 0.929 . S
H914 C943 0.930 . S
H915 C920 0.930 . S
H916 C924 0.930 . S
O917 Co886 2.037 . S
O917 C937 1.234 . S
C918 O892 1.269 . S
C918 O893 1.257 . S
C919 H894 0.930 . S
C919 C922 1.388 1_554 S
C919 C924 1.418 . S
C920 H915 0.930 . S
C920 C923 1.404 . S
C920 C924 1.353 1_556 S
N921 Co886 2.145 . S
N921 C922 1.397 . S
N921 C923 1.334 . S
C922 H903 0.929 . S
C922 C919 1.388 1_556 S
C922 N921 1.397 . S
C923 H904 0.929 . S
C923 C920 1.404 . S
C923 N921 1.334 . S
C924 H916 0.930 . S
C924 C919 1.418 . S
C924 C920 1.353 1_554 S
C925 H895 0.930 . S
C925 N926 1.330 . S
C925 C927 1.446 . S
N926 Co885 2.151 . S
N926 C925 1.330 . S
N926 C930 1.418 . S
C927 H906 0.929 . S
C927 C925 1.446 . S
C927 C928 1.332 . S
C928 H908 0.931 . S
C928 C927 1.332 . S
C928 C929 1.267 . S
C929 H897 0.929 . S
C929 C928 1.267 . S
C929 C930 1.251 . S
C930 H900 0.929 . S
C930 N926 1.418 . S
C930 C929 1.251 . S
C931 H898 0.930 . S
C931 C933 1.406 . S
C931 C936 1.261 . S
C932 H899 0.930 . S
C932 N934 1.325 . S
C932 C935 1.357 . S
C933 H901 0.928 . S
C933 C931 1.406 . S
C933 N934 1.261 . S
N934 Co885 2.214 1_655 S
N934 C932 1.325 . S
N934 C933 1.261 . S
C935 H905 0.931 . S
C935 C932 1.357 . S
C935 C936 1.312 . S
C936 H907 0.930 . S
C936 C931 1.261 . S
C936 C935 1.312 . S
C937 O909 1.214 . S
C937 O917 1.234 . S
C938 H910 0.929 . S
C938 C941 1.391 . S
C938 C943 1.391 . S
C939 H911 0.929 . S
C939 C940 1.390 . S
C939 N942 1.391 . S
C940 H912 0.930 . S
C940 C939 1.390 . S
C940 C941 1.392 . S
C941 H913 0.929 . S
C941 C938 1.391 . S
C941 C940 1.392 . S
N942 Co886 2.257 . S
N942 C939 1.391 . S
N942 C943 1.388 . S
C943 H914 0.930 . S
C943 C938 1.391 . S
C943 N942 1.388 . S
C5 C241 1.509 . S
C300 C64 1.509 . S
C123 C359 1.822 . S
C182 C418 1.822 . S
C477 C713 1.509 . S
C772 C536 1.509 . S
C595 C831 1.822 . S
C654 C890 1.822 . S
C3 C937 1.517 . S
C760 C62 1.508 . S
C121 C819 1.620 . S
C878 C180 1.725 . S
C583 C239 1.508 . S
C642 C298 1.517 . S
C701 C357 1.725 . S
C524 C416 1.620 . S
C475 C465 1.517 . S
C288 C534 1.508 . S
C347 C593 1.620 . S
C652 C406 1.725 . S
C111 C711 1.508 . S
C770 C170 1.517 . S
C829 C229 1.725 . S
C888 C52 1.620 . S
C446 C33 1.307 . S
C92 C269 1.269 . S
C151 C328 1.307 . S
C210 C387 1.645 . S
C918 C505 1.307 . S
C741 C564 1.269 . S
C800 C623 1.307 . S
C859 C682 1.645 . S
