# Generated by pormake.
# Topology gsi, (4)-cn, num edge types: 1
# Building blocks:
#     Node 0, Type 0, BuildingBlock: QUQFOY_clean_sbu_1, # of connection points: 4
#     Node 1, Type 0, BuildingBlock: QUQFOY_clean_sbu_1, # of connection points: 4
#     Node 2, Type 0, BuildingBlock: QUQFOY_clean_sbu_1, # of connection points: 4
#     Node 3, Type 0, BuildingBlock: QUQFOY_clean_sbu_1, # of connection points: 4
#     Node 4, Type 0, BuildingBlock: QUQFOY_clean_sbu_1, # of connection points: 4
#     Node 5, Type 0, BuildingBlock: QUQFOY_clean_sbu_1, # of connection points: 4
#     Node 6, Type 0, BuildingBlock: QUQFOY_clean_sbu_1, # of connection points: 4
#     Node 7, Type 0, BuildingBlock: QUQFOY_clean_sbu_1, # of connection points: 4
#     Node 8, Type 0, BuildingBlock: QUQFOY_clean_sbu_1, # of connection points: 4
#     Node 9, Type 0, BuildingBlock: QUQFOY_clean_sbu_1, # of connection points: 4
#     Node 10, Type 0, BuildingBlock: QUQFOY_clean_sbu_1, # of connection points: 4
#     Node 11, Type 0, BuildingBlock: QUQFOY_clean_sbu_1, # of connection points: 4
#     Node 12, Type 0, BuildingBlock: QUQFOY_clean_sbu_1, # of connection points: 4
#     Node 13, Type 0, BuildingBlock: QUQFOY_clean_sbu_1, # of connection points: 4
#     Node 14, Type 0, BuildingBlock: QUQFOY_clean_sbu_1, # of connection points: 4
#     Node 15, Type 0, BuildingBlock: QUQFOY_clean_sbu_1, # of connection points: 4
#     Edge 16, Type (0, 0), BuildingBlock: UVAHIK_clean_linker_0, # of connection points: 2
#     Edge 17, Type (0, 0), BuildingBlock: UVAHIK_clean_linker_0, # of connection points: 2
#     Edge 18, Type (0, 0), BuildingBlock: UVAHIK_clean_linker_0, # of connection points: 2
#     Edge 19, Type (0, 0), BuildingBlock: UVAHIK_clean_linker_0, # of connection points: 2
#     Edge 20, Type (0, 0), BuildingBlock: UVAHIK_clean_linker_0, # of connection points: 2
#     Edge 21, Type (0, 0), BuildingBlock: UVAHIK_clean_linker_0, # of connection points: 2
#     Edge 22, Type (0, 0), BuildingBlock: UVAHIK_clean_linker_0, # of connection points: 2
#     Edge 23, Type (0, 0), BuildingBlock: UVAHIK_clean_linker_0, # of connection points: 2
#     Edge 24, Type (0, 0), BuildingBlock: UVAHIK_clean_linker_0, # of connection points: 2
#     Edge 25, Type (0, 0), BuildingBlock: UVAHIK_clean_linker_0, # of connection points: 2
#     Edge 26, Type (0, 0), BuildingBlock: UVAHIK_clean_linker_0, # of connection points: 2
#     Edge 27, Type (0, 0), BuildingBlock: UVAHIK_clean_linker_0, # of connection points: 2
#     Edge 28, Type (0, 0), BuildingBlock: UVAHIK_clean_linker_0, # of connection points: 2
#     Edge 29, Type (0, 0), BuildingBlock: UVAHIK_clean_linker_0, # of connection points: 2
#     Edge 30, Type (0, 0), BuildingBlock: UVAHIK_clean_linker_0, # of connection points: 2
#     Edge 31, Type (0, 0), BuildingBlock: UVAHIK_clean_linker_0, # of connection points: 2
#     Edge 32, Type (0, 0), BuildingBlock: UVAHIK_clean_linker_0, # of connection points: 2
#     Edge 33, Type (0, 0), BuildingBlock: UVAHIK_clean_linker_0, # of connection points: 2
#     Edge 34, Type (0, 0), BuildingBlock: UVAHIK_clean_linker_0, # of connection points: 2
#     Edge 35, Type (0, 0), BuildingBlock: UVAHIK_clean_linker_0, # of connection points: 2
#     Edge 36, Type (0, 0), BuildingBlock: UVAHIK_clean_linker_0, # of connection points: 2
#     Edge 37, Type (0, 0), BuildingBlock: UVAHIK_clean_linker_0, # of connection points: 2
#     Edge 38, Type (0, 0), BuildingBlock: UVAHIK_clean_linker_0, # of connection points: 2
#     Edge 39, Type (0, 0), BuildingBlock: UVAHIK_clean_linker_0, # of connection points: 2
#     Edge 40, Type (0, 0), BuildingBlock: UVAHIK_clean_linker_0, # of connection points: 2
#     Edge 41, Type (0, 0), BuildingBlock: UVAHIK_clean_linker_0, # of connection points: 2
#     Edge 42, Type (0, 0), BuildingBlock: UVAHIK_clean_linker_0, # of connection points: 2
#     Edge 43, Type (0, 0), BuildingBlock: UVAHIK_clean_linker_0, # of connection points: 2
#     Edge 44, Type (0, 0), BuildingBlock: UVAHIK_clean_linker_0, # of connection points: 2
#     Edge 45, Type (0, 0), BuildingBlock: UVAHIK_clean_linker_0, # of connection points: 2
#     Edge 46, Type (0, 0), BuildingBlock: UVAHIK_clean_linker_0, # of connection points: 2
#     Edge 47, Type (0, 0), BuildingBlock: UVAHIK_clean_linker_0, # of connection points: 2
# Relax obj value: 0.160
# Max RMSD: 0.219
# Mean RMSD: 0.173
data_MOF--net-gsi--node1-QUQFOY_clean_sbu_1--edge1-UVAHIK_clean_linker_0
_symmetry_space_group_name_H-M    P1
_symmetry_Int_Tables_number       1
_symmetry_cell_setting            triclinic
loop_
_symmetry_equiv_pos_as_xyz
'x, y, z'
_cell_length_a     46.577261
_cell_length_b     59.25718
_cell_length_c     61.448356
_cell_angle_alpha  89.993155
_cell_angle_beta   89.960839
_cell_angle_gamma 100.9377
loop_
_atom_site_label
_atom_site_type_symbol
_atom_site_fract_x
_atom_site_fract_y
_atom_site_fract_z
_atom_type_partial_charge
O0 O 0.12425 0.18406 0.1256 0.0
Cd1 Cd 0.15939 0.16831 0.13174 0.0
Cd2 Cd 0.12366 0.14841 0.16252 0.0
O3 O 0.0919 0.16133 0.14586 0.0
O4 O 0.18504 0.17518 0.10584 0.0
O5 O 0.16397 0.13984 0.11507 0.0
C6 C 0.18058 0.15345 0.10187 0.0
C7 C 0.11816 0.11045 0.1739 0.0
C8 C 0.09811 0.17768 0.13224 0.0
C9 C 0.17693 0.18135 0.177 0.0
O10 O 0.15141 0.17094 0.18206 0.0
O11 O 0.18593 0.18077 0.15754 0.0
O12 O 0.10432 0.12466 0.1833 0.0
O13 O 0.13375 0.11745 0.15693 0.0
O14 O 0.86229 0.3182 0.12437 0.0
Cd15 Cd 0.82787 0.33523 0.12848 0.0
Cd16 Cd 0.86341 0.35501 0.15982 0.0
O17 O 0.89503 0.34063 0.14447 0.0
O18 O 0.80486 0.32732 0.10146 0.0
O19 O 0.82533 0.36299 0.10997 0.0
C20 C 0.8105 0.34879 0.09633 0.0
C21 C 0.87139 0.39285 0.17199 0.0
C22 C 0.88834 0.3239 0.13134 0.0
C23 C 0.80766 0.32368 0.17327 0.0
O24 O 0.83335 0.33347 0.17861 0.0
O25 O 0.79936 0.32413 0.15361 0.0
O26 O 0.8833 0.37754 0.18147 0.0
O27 O 0.85642 0.38701 0.15449 0.0
O28 O 0.13674 0.84313 0.34815 0.0
Cd29 Cd 0.1808 0.85707 0.34747 0.0
Cd30 Cd 0.16243 0.87266 0.30566 0.0
O31 O 0.12368 0.85235 0.31525 0.0
O32 O 0.19268 0.8439 0.37503 0.0
O33 O 0.1994 0.88121 0.36953 0.0
C34 C 0.20215 0.86433 0.38211 0.0
C35 C 0.15898 0.9068 0.28757 0.0
C36 C 0.11758 0.84207 0.33328 0.0
C37 C 0.20822 0.84307 0.30569 0.0
O38 O 0.19374 0.85523 0.29474 0.0
O39 O 0.20595 0.84195 0.32628 0.0
O40 O 0.15185 0.8871 0.27826 0.0
O41 O 0.16822 0.9073 0.3074 0.0
O42 O 0.85466 0.65525 0.35499 0.0
Cd43 Cd 0.8106 0.64141 0.35636 0.0
Cd44 Cd 0.82656 0.62439 0.31347 0.0
O45 O 0.86544 0.64532 0.32173 0.0
O46 O 0.80118 0.65594 0.38396 0.0
O47 O 0.79338 0.6184 0.37985 0.0
C48 C 0.792 0.63589 0.39203 0.0
C49 C 0.83073 0.59121 0.29387 0.0
C50 C 0.87274 0.65601 0.33939 0.0
C51 C 0.77982 0.65337 0.31526 0.0
O52 O 0.79366 0.64093 0.30405 0.0
O53 O 0.78377 0.65546 0.33567 0.0
O54 O 0.83622 0.61127 0.28511 0.0
O55 O 0.82265 0.58976 0.314 0.0
O56 O 0.36265 0.81871 0.62518 0.0
Cd57 Cd 0.32732 0.83482 0.62889 0.0
Cd58 Cd 0.36231 0.85603 0.66028 0.0
O59 O 0.39453 0.84239 0.64492 0.0
O60 O 0.30428 0.82576 0.6021 0.0
O61 O 0.32348 0.86189 0.60981 0.0
C62 C 0.30891 0.8471 0.59653 0.0
C63 C 0.37009 0.89364 0.67317 0.0
C64 C 0.3886 0.82535 0.63206 0.0
C65 C 0.30734 0.82363 0.6738 0.0
O66 O 0.33275 0.83405 0.67912 0.0
O67 O 0.29907 0.82358 0.65411 0.0
O68 O 0.38205 0.87817 0.68231 0.0
O69 O 0.35512 0.88812 0.65561 0.0
O70 O 0.86603 0.90271 0.85244 0.0
Cd71 Cd 0.85151 0.87185 0.86831 0.0
Cd72 Cd 0.89911 0.86161 0.84902 0.0
O73 O 0.90749 0.89559 0.83923 0.0
O74 O 0.82333 0.87893 0.89058 0.0
O75 O 0.86399 0.86675 0.899 0.0
C76 C 0.84048 0.87342 0.9053 0.0
C77 C 0.93217 0.84233 0.86597 0.0
C78 C 0.88946 0.90906 0.84162 0.0
C79 C 0.84122 0.83485 0.8346 0.0
O80 O 0.8685 0.84019 0.83097 0.0
O81 O 0.8297 0.84463 0.84985 0.0
O82 O 0.93548 0.8488 0.84592 0.0
O83 O 0.91122 0.84842 0.87696 0.0
O84 O 0.14448 0.60297 0.84686 0.0
Cd85 Cd 0.15111 0.63329 0.86428 0.0
Cd86 Cd 0.09973 0.63461 0.8475 0.0
O87 O 0.09734 0.60006 0.84063 0.0
O88 O 0.18309 0.63117 0.88534 0.0
O89 O 0.13807 0.63309 0.89552 0.0
C90 C 0.1644 0.63136 0.9008 0.0
C91 C 0.0665 0.65168 0.86672 0.0
C92 C 0.12051 0.59168 0.83948 0.0
C93 C 0.15004 0.66836 0.83023 0.0
O94 O 0.12445 0.65726 0.82636 0.0
O95 O 0.16415 0.66313 0.8466 0.0
O96 O 0.06033 0.64313 0.84757 0.0
O97 O 0.09051 0.64854 0.87575 0.0
O98 O 0.87644 0.14704 0.66712 0.0
Cd99 Cd 0.84229 0.12875 0.685 0.0
Cd100 Cd 0.80904 0.14154 0.64605 0.0
O101 O 0.85159 0.15658 0.63901 0.0
O102 O 0.86197 0.11845 0.71106 0.0
O103 O 0.83669 0.09408 0.68783 0.0
C104 C 0.85211 0.09753 0.70539 0.0
C105 C 0.77974 0.13377 0.61464 0.0
C106 C 0.87559 0.15736 0.64905 0.0
C107 C 0.7952 0.15744 0.69141 0.0
O108 O 0.78947 0.15591 0.67119 0.0
O109 O 0.81485 0.14779 0.69957 0.0
O110 O 0.78944 0.15431 0.62134 0.0
O111 O 0.78638 0.11713 0.62591 0.0
O112 O 0.11414 0.34984 0.66312 0.0
Cd113 Cd 0.14767 0.36579 0.68288 0.0
Cd114 Cd 0.18241 0.35138 0.64672 0.0
O115 O 0.1404 0.33718 0.63751 0.0
O116 O 0.12608 0.37894 0.70631 0.0
O117 O 0.15977 0.40029 0.68593 0.0
C118 C 0.14101 0.39891 0.70159 0.0
C119 C 0.21463 0.35955 0.61693 0.0
C120 C 0.11576 0.33838 0.64582 0.0
C121 C 0.19027 0.33443 0.69275 0.0
O122 O 0.19871 0.3364 0.67305 0.0
O123 O 0.17015 0.34444 0.69957 0.0
O124 O 0.20408 0.3389 0.62298 0.0
O125 O 0.2073 0.37604 0.62805 0.0
O126 O 0.64351 0.10246 0.34504 0.0
Cd127 Cd 0.65012 0.13271 0.36256 0.0
Cd128 Cd 0.5988 0.13412 0.34566 0.0
O129 O 0.5964 0.09959 0.33866 0.0
O130 O 0.68202 0.13049 0.38367 0.0
O131 O 0.63696 0.13236 0.39377 0.0
C132 C 0.66326 0.1306 0.3991 0.0
C133 C 0.56569 0.15125 0.36496 0.0
C134 C 0.61958 0.09119 0.33756 0.0
C135 C 0.64917 0.16793 0.32862 0.0
O136 O 0.62361 0.15684 0.32465 0.0
O137 O 0.66321 0.16264 0.34499 0.0
O138 O 0.55947 0.14277 0.34578 0.0
O139 O 0.58963 0.14797 0.37398 0.0
O140 O 0.62379 0.68434 0.63067 0.0
Cd141 Cd 0.65818 0.66781 0.63701 0.0
Cd142 Cd 0.61988 0.64762 0.66613 0.0
O143 O 0.58934 0.66136 0.64891 0.0
O144 O 0.6847 0.67706 0.61193 0.0
O145 O 0.66393 0.64095 0.61824 0.0
C146 C 0.68039 0.65582 0.60605 0.0
C147 C 0.61366 0.60937 0.67665 0.0
C148 C 0.5971 0.67827 0.6361 0.0
C149 C 0.67276 0.67949 0.68291 0.0
O150 O 0.64661 0.66961 0.68674 0.0
O151 O 0.68339 0.67884 0.66392 0.0
O152 O 0.59939 0.62336 0.68595 0.0
O153 O 0.63011 0.61677 0.6602 0.0
O154 O 0.64083 0.34221 0.85199 0.0
Cd155 Cd 0.68406 0.35784 0.84873 0.0
Cd156 Cd 0.65928 0.37233 0.8087 0.0
O157 O 0.62168 0.35343 0.82191 0.0
O158 O 0.7001 0.34584 0.87539 0.0
O159 O 0.70297 0.38287 0.86983 0.0
C160 C 0.70845 0.36655 0.88211 0.0
C161 C 0.65477 0.40603 0.79026 0.0
C162 C 0.61899 0.34209 0.83958 0.0
C163 C 0.70572 0.34306 0.80538 0.0
O164 O 0.68812 0.35362 0.79568 0.0
O165 O 0.70781 0.34358 0.82598 0.0
O166 O 0.64543 0.38605 0.78199 0.0
O167 O 0.66675 0.40706 0.80927 0.0
O168 O 0.35059 0.15811 0.85664 0.0
Cd169 Cd 0.30751 0.14162 0.856 0.0
Cd170 Cd 0.32979 0.12623 0.81515 0.0
O171 O 0.36804 0.14616 0.82622 0.0
O172 O 0.29509 0.15352 0.88401 0.0
O173 O 0.2918 0.11649 0.87793 0.0
C174 C 0.28847 0.13278 0.89107 0.0
C175 C 0.33445 0.09309 0.79575 0.0
C176 C 0.37161 0.15818 0.84346 0.0
C177 C 0.28133 0.15426 0.81387 0.0
O178 O 0.29867 0.14374 0.8038 0.0
O179 O 0.28084 0.15466 0.83454 0.0
O180 O 0.34204 0.11328 0.78748 0.0
O181 O 0.32417 0.09152 0.81533 0.0
O182 O 0.36233 0.39872 0.35121 0.0
Cd183 Cd 0.35203 0.36747 0.36705 0.0
Cd184 Cd 0.40131 0.36215 0.34791 0.0
O185 O 0.40701 0.3968 0.34057 0.0
O186 O 0.32095 0.37134 0.38828 0.0
O187 O 0.3642 0.36479 0.39827 0.0
C188 C 0.33874 0.36858 0.40368 0.0
C189 C 0.43386 0.34326 0.36584 0.0
C190 C 0.38616 0.40784 0.34198 0.0
C191 C 0.34676 0.33232 0.33189 0.0
O192 O 0.37336 0.34074 0.3278 0.0
O193 O 0.33425 0.33926 0.34831 0.0
O194 O 0.43912 0.35118 0.34636 0.0
O195 O 0.41123 0.34787 0.37585 0.0
O196 O 0.38274 0.64704 0.16464 0.0
Cd197 Cd 0.34898 0.63022 0.1838 0.0
Cd198 Cd 0.31483 0.64344 0.14576 0.0
O199 O 0.35721 0.65759 0.1374 0.0
O200 O 0.37007 0.61903 0.20867 0.0
O201 O 0.34025 0.59559 0.18724 0.0
C202 C 0.35764 0.59837 0.20378 0.0
C203 C 0.2839 0.63553 0.11524 0.0
C204 C 0.38155 0.65748 0.14668 0.0
C205 C 0.30392 0.66025 0.19149 0.0
O206 O 0.29707 0.65837 0.17147 0.0
O207 O 0.32375 0.6505 0.19921 0.0
O208 O 0.29425 0.65612 0.12153 0.0
O209 O 0.29074 0.61894 0.12647 0.0
O210 O 0.61855 0.84909 0.16138 0.0
Cd211 Cd 0.65051 0.86524 0.18238 0.0
Cd212 Cd 0.68763 0.85108 0.14859 0.0
O213 O 0.64688 0.8352 0.13806 0.0
O214 O 0.62732 0.87868 0.2046 0.0
O215 O 0.66267 0.89973 0.18542 0.0
C216 C 0.64283 0.89855 0.20029 0.0
C217 C 0.72108 0.86157 0.11999 0.0
C218 C 0.62159 0.83677 0.14491 0.0
C219 C 0.6927 0.83448 0.19489 0.0
O220 O 0.70314 0.83689 0.17573 0.0
O221 O 0.6715 0.84393 0.20045 0.0
O222 O 0.71304 0.84058 0.12607 0.0
O223 O 0.71059 0.87708 0.13042 0.0
C224 C 0.18462 0.1979 0.21449 0.0
C225 C 0.19577 0.19475 0.19368 0.0
C226 C 0.20189 0.21144 0.22995 0.0
C227 C 0.26672 0.25788 0.23429 0.0
H228 H 0.26216 0.24185 0.29557 0.0
C229 C 0.34342 0.30884 0.29785 0.0
C230 C 0.33028 0.31487 0.31706 0.0
C231 C 0.32766 0.29315 0.2833 0.0
C232 C 0.26348 0.2466 0.27853 0.0
H233 H 0.23411 0.20283 0.17298 0.0
H234 H 0.26443 0.22611 0.2001 0.0
H235 H 0.23392 0.21596 0.26912 0.0
H236 H 0.29044 0.30871 0.33627 0.0
H237 H 0.2629 0.28121 0.31076 0.0
H238 H 0.29634 0.28847 0.2437 0.0
C239 C 0.24211 0.21849 0.20432 0.0
C240 C 0.2473 0.23181 0.26338 0.0
C241 C 0.22478 0.20504 0.18882 0.0
C242 C 0.30119 0.30446 0.3216 0.0
C243 C 0.28546 0.28863 0.30706 0.0
C244 C 0.28299 0.27258 0.24941 0.0
C245 C 0.23076 0.22205 0.22499 0.0
C246 C 0.24865 0.23733 0.24109 0.0
C247 C 0.29847 0.28302 0.28766 0.0
C248 C 0.28147 0.26713 0.27168 0.0
H249 H 0.16232 0.19027 0.21876 0.0
H250 H 0.19232 0.21406 0.24559 0.0
H251 H 0.26784 0.26289 0.21732 0.0
H252 H 0.36582 0.31645 0.29387 0.0
H253 H 0.33836 0.28891 0.2686 0.0
C254 C 0.79824 0.30881 0.2112 0.0
C255 C 0.78804 0.31089 0.1899 0.0
C256 C 0.78063 0.29549 0.22661 0.0
C257 C 0.71834 0.24715 0.23048 0.0
H258 H 0.72063 0.26386 0.29158 0.0
C259 C 0.6481 0.1911 0.29469 0.0
C260 C 0.66276 0.18655 0.31373 0.0
C261 C 0.66135 0.20789 0.28003 0.0
C262 C 0.7199 0.25894 0.27458 0.0
H263 H 0.75089 0.30124 0.16832 0.0
H264 H 0.71993 0.27824 0.19539 0.0
H265 H 0.74676 0.29079 0.26498 0.0
H266 H 0.70255 0.1965 0.33255 0.0
H267 H 0.72569 0.22582 0.30687 0.0
H268 H 0.69165 0.21526 0.24012 0.0
C269 C 0.74179 0.2866 0.20002 0.0
C270 C 0.73486 0.27433 0.25935 0.0
C271 C 0.75948 0.29988 0.18454 0.0
C272 C 0.69068 0.19955 0.31802 0.0
C273 C 0.70388 0.21644 0.30339 0.0
C274 C 0.70327 0.23183 0.2457 0.0
C275 C 0.75233 0.284 0.22114 0.0
C276 C 0.73456 0.26849 0.23715 0.0
C277 C 0.68947 0.22058 0.28412 0.0
C278 C 0.70417 0.23745 0.26793 0.0
H279 H 0.82014 0.31703 0.21589 0.0
H280 H 0.78961 0.29362 0.24261 0.0
H281 H 0.71804 0.24192 0.21358 0.0
H282 H 0.62652 0.18148 0.2909 0.0
H283 H 0.64958 0.2109 0.26544 0.0
C284 C 0.27258 0.68984 0.19603 0.0
C285 C 0.29094 0.67617 0.20532 0.0
C286 C 0.26366 0.70723 0.20808 0.0
C287 C 0.28573 0.74464 0.2556 0.0
H288 H 0.21003 0.76127 0.24654 0.0
C289 C 0.23947 0.81295 0.30591 0.0
C290 C 0.22433 0.82738 0.29416 0.0
C291 C 0.24981 0.79512 0.29543 0.0
C292 C 0.23137 0.75694 0.24906 0.0
H293 H 0.31299 0.66929 0.23501 0.0
H294 H 0.29672 0.69931 0.25624 0.0
H295 H 0.22112 0.72715 0.22889 0.0
H296 H 0.21 0.83537 0.26191 0.0
H297 H 0.22803 0.80428 0.24374 0.0
H298 H 0.29562 0.7744 0.27611 0.0
C299 C 0.28988 0.69693 0.23942 0.0
C300 C 0.23773 0.73739 0.23897 0.0
C301 C 0.29897 0.67958 0.2273 0.0
C302 C 0.22142 0.82452 0.2715 0.0
C303 C 0.23153 0.8066 0.26109 0.0
C304 C 0.27922 0.76412 0.26588 0.0
C305 C 0.27264 0.7113 0.2298 0.0
C306 C 0.26512 0.73113 0.24188 0.0
C307 C 0.245 0.79132 0.27306 0.0
C308 C 0.25212 0.77061 0.26247 0.0
H309 H 0.26601 0.68777 0.17913 0.0
H310 H 0.25068 0.71809 0.20002 0.0
H311 H 0.3072 0.74055 0.25796 0.0
H312 H 0.24218 0.81472 0.32337 0.0
H313 H 0.26017 0.78359 0.30503 0.0
C314 C 0.74748 0.68275 0.31586 0.0
C315 C 0.76221 0.66815 0.30398 0.0
C316 C 0.73547 0.69967 0.30526 0.0
C317 C 0.71763 0.72009 0.25029 0.0
H318 H 0.73359 0.78013 0.27777 0.0
C319 C 0.7204 0.803 0.20192 0.0
C320 C 0.70278 0.81801 0.20985 0.0
C321 C 0.72602 0.78491 0.21474 0.0
C322 C 0.72877 0.76342 0.27002 0.0
H323 H 0.77427 0.65898 0.27148 0.0
H324 H 0.75403 0.6886 0.25315 0.0
H325 H 0.74358 0.7467 0.2975 0.0
H326 H 0.67875 0.82658 0.23798 0.0
H327 H 0.68927 0.79512 0.26059 0.0
H328 H 0.704 0.7371 0.22248 0.0
C329 C 0.7513 0.68691 0.27061 0.0
C330 C 0.73428 0.74421 0.28134 0.0
C331 C 0.76307 0.66991 0.28117 0.0
C332 C 0.69234 0.81529 0.23137 0.0
C333 C 0.69832 0.79731 0.24432 0.0
C334 C 0.71252 0.73932 0.23891 0.0
C335 C 0.73808 0.70243 0.28256 0.0
C336 C 0.7292 0.72235 0.27148 0.0
C337 C 0.7145 0.78159 0.23586 0.0
C338 C 0.71847 0.76119 0.24854 0.0
H339 H 0.74621 0.68174 0.33345 0.0
H340 H 0.72486 0.71099 0.31492 0.0
H341 H 0.71286 0.70349 0.24235 0.0
H342 H 0.72884 0.80457 0.18545 0.0
H343 H 0.73897 0.77322 0.20799 0.0
C344 C 0.29833 0.80891 0.71181 0.0
C345 C 0.288 0.8107 0.69051 0.0
C346 C 0.28096 0.79554 0.72732 0.0
C347 C 0.21918 0.74677 0.73158 0.0
H348 H 0.22124 0.76406 0.79253 0.0
C349 C 0.14896 0.69123 0.79611 0.0
C350 C 0.1636 0.68687 0.81523 0.0
C351 C 0.16221 0.70789 0.78134 0.0
C352 C 0.22058 0.75898 0.77558 0.0
H353 H 0.25089 0.80048 0.66901 0.0
H354 H 0.22033 0.77741 0.69624 0.0
H355 H 0.24721 0.79083 0.76574 0.0
H356 H 0.20335 0.69704 0.83406 0.0
H357 H 0.22648 0.72615 0.80817 0.0
H358 H 0.19269 0.71488 0.74145 0.0
C359 C 0.24212 0.78602 0.70081 0.0
C360 C 0.23546 0.77428 0.76023 0.0
C361 C 0.25957 0.79934 0.68524 0.0
C362 C 0.1915 0.69994 0.81947 0.0
C363 C 0.20469 0.71671 0.80472 0.0
C364 C 0.20419 0.73154 0.7469 0.0
C365 C 0.25277 0.78372 0.72195 0.0
C366 C 0.23522 0.76824 0.73808 0.0
C367 C 0.1903 0.72065 0.78538 0.0
C368 C 0.205 0.73738 0.76908 0.0
H369 H 0.32014 0.8174 0.71644 0.0
H370 H 0.29003 0.7939 0.74334 0.0
H371 H 0.21894 0.74139 0.71473 0.0
H372 H 0.1274 0.68155 0.79237 0.0
H373 H 0.15047 0.71075 0.76669 0.0
C374 C 0.7199 0.70237 0.69707 0.0
C375 C 0.69027 0.69269 0.70038 0.0
C376 C 0.73587 0.71589 0.7132 0.0
C377 C 0.72637 0.75276 0.75931 0.0
H378 H 0.80557 0.74688 0.77392 0.0
C379 C 0.79347 0.80892 0.82557 0.0
C380 C 0.82308 0.81726 0.82077 0.0
C381 C 0.77666 0.79229 0.81228 0.0
C382 C 0.78357 0.7489 0.76988 0.0
H383 H 0.65432 0.68926 0.72343 0.0
H384 H 0.68223 0.71294 0.75148 0.0
H385 H 0.77765 0.72033 0.74791 0.0
H386 H 0.85819 0.81479 0.79814 0.0
H387 H 0.82887 0.78638 0.77485 0.0
H388 H 0.73246 0.78169 0.78076 0.0
C389 C 0.69301 0.71014 0.73636 0.0
C390 C 0.76759 0.73365 0.75503 0.0
C391 C 0.67711 0.69648 0.72032 0.0
C392 C 0.83549 0.80865 0.80242 0.0
C393 C 0.8187 0.79219 0.78912 0.0
C394 C 0.74242 0.76813 0.77404 0.0
C395 C 0.72247 0.72013 0.73289 0.0
C396 C 0.73893 0.73556 0.74945 0.0
C397 C 0.78911 0.78376 0.79388 0.0
C398 C 0.77133 0.76654 0.77932 0.0
H399 H 0.7307 0.69977 0.68191 0.0
H400 H 0.75851 0.72354 0.71003 0.0
H401 H 0.70441 0.75478 0.75511 0.0
H402 H 0.78329 0.81513 0.83964 0.0
H403 H 0.75399 0.78599 0.81654 0.0
C404 C 0.71427 0.32309 0.77073 0.0
C405 C 0.72071 0.32733 0.79288 0.0
C406 C 0.72397 0.30521 0.75991 0.0
C407 C 0.74538 0.24976 0.77166 0.0
H408 H 0.76769 0.25258 0.71079 0.0
C409 C 0.79056 0.17783 0.72664 0.0
C410 C 0.78177 0.17337 0.70492 0.0
C411 C 0.78206 0.19586 0.73811 0.0
C412 C 0.76116 0.25146 0.72774 0.0
H413 H 0.74421 0.31711 0.82057 0.0
H414 H 0.76163 0.28626 0.80152 0.0
H415 H 0.75824 0.28703 0.72888 0.0
H416 H 0.75544 0.18338 0.67876 0.0
H417 H 0.74047 0.21461 0.69886 0.0
H418 H 0.74848 0.21416 0.77047 0.0
C419 C 0.74841 0.29638 0.7927 0.0
C420 C 0.75583 0.27121 0.73812 0.0
C421 C 0.73865 0.31422 0.80355 0.0
C422 C 0.76281 0.18641 0.69541 0.0
C423 C 0.75442 0.20446 0.70684 0.0
C424 C 0.75084 0.23001 0.76129 0.0
C425 C 0.74044 0.29123 0.77094 0.0
C426 C 0.74773 0.27058 0.76017 0.0
C427 C 0.76466 0.2098 0.72807 0.0
C428 C 0.75859 0.23062 0.73918 0.0
H429 H 0.7005 0.33282 0.76199 0.0
H430 H 0.71728 0.30166 0.74318 0.0
H431 H 0.73866 0.24856 0.78856 0.0
H432 H 0.80512 0.16811 0.73449 0.0
H433 H 0.79031 0.19957 0.75445 0.0
C434 C 0.22067 0.30447 0.69876 0.0
C435 C 0.20185 0.31825 0.70718 0.0
C436 C 0.22861 0.28704 0.71133 0.0
C437 C 0.20369 0.24988 0.75857 0.0
H438 H 0.28035 0.234 0.75287 0.0
C439 C 0.24841 0.18321 0.8122 0.0
C440 C 0.26495 0.16907 0.80139 0.0
C441 C 0.23801 0.2005 0.80089 0.0
C442 C 0.25874 0.2381 0.75445 0.0
H443 H 0.17773 0.32522 0.73585 0.0
H444 H 0.19227 0.29513 0.75803 0.0
H445 H 0.26992 0.26769 0.73411 0.0
H446 H 0.28144 0.16084 0.76987 0.0
H447 H 0.26328 0.19094 0.75028 0.0
H448 H 0.19287 0.22033 0.7793 0.0
C449 C 0.20028 0.29746 0.74148 0.0
C450 C 0.25276 0.25742 0.74371 0.0
C451 C 0.19218 0.31485 0.72883 0.0
C452 C 0.26902 0.17152 0.77878 0.0
C453 C 0.25881 0.18887 0.76754 0.0
C454 C 0.2098 0.23063 0.76951 0.0
C455 C 0.21815 0.28307 0.73272 0.0
C456 C 0.22506 0.26341 0.74541 0.0
C457 C 0.24409 0.20401 0.77862 0.0
C458 C 0.23727 0.22441 0.7673 0.0
H459 H 0.22847 0.30652 0.68213 0.0
H460 H 0.2421 0.27614 0.70393 0.0
H461 H 0.18199 0.2538 0.76001 0.0
H462 H 0.24478 0.18173 0.8296 0.0
H463 H 0.22666 0.21192 0.80981 0.0
C464 C 0.15556 0.92792 0.25286 0.0
C465 C 0.15614 0.92794 0.27571 0.0
C466 C 0.15162 0.94744 0.24139 0.0
C467 C 0.15258 0.01023 0.24798 0.0
H468 H 0.10901 0.00193 0.19383 0.0
C469 C 0.10904 0.08346 0.20538 0.0
C470 C 0.11849 0.08774 0.18377 0.0
C471 C 0.11284 0.06341 0.21598 0.0
C472 C 0.12132 0.00444 0.20888 0.0
H473 H 0.15309 0.94837 0.30452 0.0
H474 H 0.1449 0.9822 0.28462 0.0
H475 H 0.11734 0.96836 0.21408 0.0
H476 H 0.13811 0.07387 0.15602 0.0
H477 H 0.14386 0.03828 0.17449 0.0
H478 H 0.15539 0.04639 0.24301 0.0
C479 C 0.14841 0.96738 0.27543 0.0
C480 C 0.12632 0.98524 0.22046 0.0
C481 C 0.15295 0.94795 0.2869 0.0
C482 C 0.1306 0.07103 0.17266 0.0
C483 C 0.13389 0.05071 0.18319 0.0
C484 C 0.14707 0.02937 0.2366 0.0
C485 C 0.14755 0.96736 0.25249 0.0
C486 C 0.14212 0.98786 0.24016 0.0
C487 C 0.12565 0.04702 0.20509 0.0
C488 C 0.13145 0.02664 0.21695 0.0
H489 H 0.15828 0.91279 0.24378 0.0
H490 H 0.1519 0.94685 0.22379 0.0
H491 H 0.16535 0.01306 0.26278 0.0
H492 H 0.09973 0.096 0.21444 0.0
H493 H 0.10608 0.06082 0.23282 0.0
C494 C 0.88192 0.41904 0.20395 0.0
C495 C 0.8723 0.41552 0.18234 0.0
C496 C 0.87906 0.43902 0.21508 0.0
C497 C 0.83673 0.4862 0.21338 0.0
H498 H 0.89005 0.51111 0.25964 0.0
C499 C 0.83406 0.57177 0.25821 0.0
C500 C 0.83418 0.5708 0.28107 0.0
C501 C 0.83861 0.553 0.24584 0.0
C502 C 0.87492 0.5042 0.24685 0.0
H503 H 0.85355 0.43077 0.15504 0.0
H504 H 0.84975 0.46622 0.17413 0.0
H505 H 0.90063 0.47956 0.23744 0.0
H506 H 0.83909 0.54943 0.30892 0.0
H507 H 0.84782 0.51665 0.28716 0.0
H508 H 0.8116 0.5115 0.22252 0.0
C509 C 0.85859 0.45316 0.18278 0.0
C510 C 0.88088 0.48608 0.23413 0.0
C511 C 0.86105 0.43295 0.17173 0.0
C512 C 0.83877 0.5506 0.29133 0.0
C513 C 0.84393 0.53195 0.27892 0.0
C514 C 0.83108 0.50459 0.22585 0.0
C515 C 0.86692 0.45623 0.20479 0.0
C516 C 0.8617 0.47663 0.21736 0.0
C517 C 0.84393 0.53304 0.25607 0.0
C518 C 0.84996 0.51359 0.24283 0.0
H519 H 0.8905 0.40589 0.21269 0.0
H520 H 0.88531 0.44045 0.23206 0.0
H521 H 0.8211 0.47917 0.20096 0.0
H522 H 0.83049 0.58709 0.24984 0.0
H523 H 0.83864 0.55429 0.22825 0.0
C524 C 0.26439 0.10659 0.92093 0.0
C525 C 0.2786 0.12843 0.91381 0.0
C526 C 0.25507 0.10323 0.94263 0.0
C527 C 0.26992 0.1278 0.99723 0.0
H528 H 0.18755 0.10714 0.00987 0.0
C529 C 0.21571 0.15964 0.0709 0.0
C530 C 0.19395 0.14478 0.08249 0.0
C531 C 0.22763 0.15228 0.05199 0.0
C532 C 0.21073 0.11243 0.0067 0.0
H533 H 0.29463 0.16368 0.92387 0.0
H534 H 0.27894 0.15774 0.96142 0.0
H535 H 0.2058 0.1034 0.97287 0.0
H536 H 0.16784 0.11036 0.08349 0.0
H537 H 0.18865 0.09747 0.05002 0.0
H538 H 0.27484 0.1377 0.03067 0.0
C539 C 0.27488 0.14323 0.95036 0.0
C540 C 0.22114 0.11028 0.98554 0.0
C541 C 0.28366 0.14666 0.92878 0.0
C542 C 0.18464 0.12218 0.07491 0.0
C543 C 0.19643 0.11484 0.05574 0.0
C544 C 0.2596 0.12985 0.0183 0.0
C545 C 0.26049 0.12155 0.95754 0.0
C546 C 0.25061 0.11885 0.98047 0.0
C547 C 0.21802 0.12988 0.04407 0.0
C548 C 0.22969 0.12312 0.02305 0.0
H549 H 0.26018 0.09225 0.90971 0.0
H550 H 0.2439 0.08636 0.94781 0.0
H551 H 0.29284 0.13422 0.99379 0.0
H552 H 0.22341 0.17715 0.07629 0.0
H553 H 0.24384 0.16444 0.0432 0.0
C554 C 0.79178 0.33971 0.0588 0.0
C555 C 0.80167 0.35631 0.07478 0.0
C556 C 0.78544 0.34628 0.03787 0.0
C557 C 0.76081 0.3885 0.00499 0.0
H558 H 0.79856 0.36082 0.95844 0.0
C559 C 0.72844 0.39259 0.91329 0.0
C560 C 0.72368 0.37086 0.90325 0.0
C561 C 0.74187 0.39574 0.93381 0.0
C562 C 0.7879 0.36877 0.97122 0.0
H563 H 0.81174 0.39289 0.08152 0.0
H564 H 0.79971 0.40442 0.04462 0.0
H565 H 0.81399 0.3572 0.99596 0.0
H566 H 0.72969 0.33559 0.90669 0.0
H567 H 0.75278 0.34105 0.94202 0.0
H568 H 0.73344 0.39885 0.98025 0.0
C569 C 0.79734 0.38632 0.04849 0.0
C570 C 0.79681 0.36676 0.99266 0.0
C571 C 0.80421 0.37972 0.06951 0.0
C572 C 0.733 0.35256 0.91391 0.0
C573 C 0.74651 0.35574 0.93415 0.0
C574 C 0.75166 0.39037 0.98343 0.0
C575 C 0.78844 0.3696 0.03243 0.0
C576 C 0.78266 0.37587 0.00978 0.0
C577 C 0.75108 0.3773 0.9444 0.0
C578 C 0.76438 0.3797 0.96645 0.0
H579 H 0.78957 0.32153 0.06226 0.0
H580 H 0.77826 0.33307 0.02581 0.0
H581 H 0.74957 0.39562 0.01799 0.0
H582 H 0.72141 0.40699 0.90547 0.0
H583 H 0.74511 0.41255 0.94136 0.0
C584 C 0.28749 0.83669 0.55996 0.0
C585 C 0.29909 0.85386 0.575 0.0
C586 C 0.28011 0.84247 0.53901 0.0
C587 C 0.25758 0.88568 0.50508 0.0
H588 H 0.28674 0.8516 0.45879 0.0
C589 C 0.22457 0.88964 0.41315 0.0
C590 C 0.21604 0.8677 0.40383 0.0
C591 C 0.23782 0.89211 0.43376 0.0
C592 C 0.27848 0.86131 0.4715 0.0
H593 H 0.31108 0.89068 0.58004 0.0
H594 H 0.29747 0.90082 0.54313 0.0
H595 H 0.30374 0.84836 0.49592 0.0
H596 H 0.21457 0.83122 0.40891 0.0
H597 H 0.2374 0.83553 0.44439 0.0
H598 H 0.23121 0.89777 0.48061 0.0
C599 C 0.29446 0.88288 0.54774 0.0
C600 C 0.28824 0.85948 0.49273 0.0
C601 C 0.30226 0.87707 0.56878 0.0
C602 C 0.22093 0.8484 0.4155 0.0
C603 C 0.23425 0.85087 0.43583 0.0
C604 C 0.24763 0.88744 0.48371 0.0
C605 C 0.28387 0.86556 0.53257 0.0
C606 C 0.27713 0.87098 0.50983 0.0
C607 C 0.24304 0.8727 0.44517 0.0
C608 C 0.25721 0.87457 0.46689 0.0
H609 H 0.28465 0.81865 0.56417 0.0
H610 H 0.27154 0.82879 0.52773 0.0
H611 H 0.24872 0.89471 0.51803 0.0
H612 H 0.22099 0.90482 0.40455 0.0
H613 H 0.24434 0.90914 0.44063 0.0
C614 C 0.68694 0.62651 0.57761 0.0
C615 C 0.69262 0.64933 0.58522 0.0
C616 C 0.69642 0.62125 0.55685 0.0
C617 C 0.71258 0.64855 0.50396 0.0
H618 H 0.75882 0.60224 0.49099 0.0
C619 C 0.78002 0.65355 0.42677 0.0
C620 C 0.7799 0.63361 0.41439 0.0
C621 C 0.76757 0.65222 0.44742 0.0
C622 C 0.74548 0.61495 0.49433 0.0
H623 H 0.7138 0.68428 0.57739 0.0
H624 H 0.72998 0.67511 0.54147 0.0
H625 H 0.74037 0.60559 0.52814 0.0
H626 H 0.7673 0.59646 0.4143 0.0
H627 H 0.74527 0.59412 0.45083 0.0
H628 H 0.71782 0.65826 0.47053 0.0
C629 C 0.718 0.66134 0.55138 0.0
C630 C 0.73499 0.61688 0.51554 0.0
C631 C 0.70881 0.66655 0.57203 0.0
C632 C 0.76763 0.61213 0.42344 0.0
C633 C 0.75512 0.61078 0.44432 0.0
C634 C 0.72285 0.64657 0.4829 0.0
C635 C 0.71141 0.63877 0.54338 0.0
C636 C 0.71926 0.63422 0.52064 0.0
C637 C 0.75455 0.63091 0.45633 0.0
C638 C 0.74024 0.6303 0.47798 0.0
H639 H 0.67456 0.61286 0.58743 0.0
H640 H 0.69113 0.60369 0.55104 0.0
H641 H 0.69994 0.66173 0.50734 0.0
H642 H 0.78953 0.67038 0.42045 0.0
H643 H 0.76812 0.66799 0.45645 0.0
C644 C 0.94008 0.31756 0.12904 0.0
C645 C 0.91001 0.30954 0.1257 0.0
C646 C 0.96005 0.30299 0.12558 0.0
C647 C 0.96575 0.24412 0.13111 0.0
H648 H 0.03362 0.25687 0.0934 0.0
C649 C 0.04574 0.18137 0.12764 0.0
C650 C 0.0756 0.19097 0.12593 0.0
C651 C 0.02464 0.19487 0.12395 0.0
C652 C 0.01502 0.25314 0.10425 0.0
H653 H 0.87742 0.28016 0.11563 0.0
H654 H 0.91227 0.25466 0.11029 0.0
H655 H -0.00064 0.28339 0.09427 0.0
H656 H 0.10682 0.22208 0.11856 0.0
H657 H 0.0704 0.24585 0.11327 0.0
H658 H 0.98182 0.21481 0.14225 0.0
C659 C 0.9203 0.27226 0.11528 0.0
C660 C 0.99535 0.26829 0.10459 0.0
C661 C 0.90044 0.2869 0.11829 0.0
C662 C 0.08394 0.21413 0.11983 0.0
C663 C 0.06292 0.22777 0.11666 0.0
C664 C 0.98569 0.22927 0.13118 0.0
C665 C 0.95018 0.28009 0.11916 0.0
C666 C 0.97063 0.26389 0.11807 0.0
C667 C 0.03294 0.21846 0.11905 0.0
C668 C 0.01073 0.23358 0.11782 0.0
H669 H 0.9481 0.33492 0.1347 0.0
H670 H 0.98305 0.30932 0.12876 0.0
H671 H 0.94692 0.24054 0.14181 0.0
H672 H 0.03869 0.16349 0.13211 0.0
H673 H 0.00182 0.18684 0.12534 0.0
C674 C 0.91128 0.68204 0.36077 0.0
C675 C 0.90128 0.67189 0.34082 0.0
C676 C 0.93591 0.69965 0.36151 0.0
C677 C -0.00128 0.72971 0.32814 0.0
H678 H 0.99384 0.78089 0.36646 0.0
C679 C 0.07259 0.81801 0.31747 0.0
C680 C 0.08932 0.82605 0.3359 0.0
C681 C 0.04895 0.79972 0.31924 0.0
C682 C 0.99547 0.76665 0.35577 0.0
H683 H 0.90998 0.67166 0.30614 0.0
H684 H 0.95218 0.70266 0.3073 0.0
H685 H 0.95558 0.74646 0.36759 0.0
H686 H 0.09306 0.82231 0.37086 0.0
H687 H 0.0511 0.79064 0.37396 0.0
H688 H 0.03807 0.7504 0.3158 0.0
C689 C 0.94154 0.69679 0.3225 0.0
C690 C 0.97374 0.74683 0.35651 0.0
C691 C 0.91719 0.679 0.3218 0.0
C692 C 0.08066 0.81644 0.35636 0.0
C693 C 0.05668 0.79836 0.35816 0.0
C694 C 0.02012 0.74964 0.32716 0.0
C695 C 0.95086 0.7077 0.34229 0.0
C696 C 0.97498 0.72815 0.34258 0.0
C697 C 0.04127 0.78938 0.3395 0.0
C698 C 0.01856 0.76833 0.34084 0.0
H699 H 0.89962 0.67681 0.37574 0.0
H700 H 0.94287 0.70725 0.37712 0.0
H701 H 0.0008 0.71553 0.31751 0.0
H702 H 0.07867 0.825 0.30147 0.0
H703 H 0.03711 0.79322 0.30467 0.0
C704 C 0.58588 0.71518 0.62205 0.0
C705 C 0.57582 0.69255 0.62935 0.0
C706 C 0.56628 0.72991 0.61842 0.0
C707 C 0.49142 0.73417 0.60654 0.0
H708 H 0.50474 0.78776 0.64404 0.0
C709 C 0.4029 0.78852 0.62093 0.0
C710 C 0.4112 0.81178 0.62668 0.0
C711 C 0.42391 0.77481 0.61816 0.0
C712 C 0.50094 0.77327 0.63301 0.0
H713 H 0.53718 0.66725 0.63734 0.0
H714 H 0.50275 0.69299 0.63033 0.0
H715 H 0.53949 0.76191 0.64394 0.0
H716 H 0.44809 0.83929 0.63281 0.0
H717 H 0.48497 0.81575 0.62681 0.0
H718 H 0.45333 0.74566 0.5951 0.0
C719 C 0.5259 0.69925 0.62772 0.0
C720 C 0.5208 0.75835 0.63313 0.0
C721 C 0.54558 0.68459 0.63179 0.0
C722 C 0.44105 0.82135 0.6286 0.0
C723 C 0.46215 0.80774 0.62534 0.0
C724 C 0.47183 0.74938 0.60603 0.0
C725 C 0.53621 0.72218 0.62156 0.0
C726 C 0.51598 0.73854 0.62015 0.0
C727 C 0.45385 0.78412 0.62062 0.0
C728 C 0.47603 0.76896 0.61956 0.0
H729 H 0.60903 0.72188 0.62005 0.0
H730 H 0.57467 0.74752 0.6136 0.0
H731 H 0.48744 0.71904 0.59627 0.0
H732 H 0.38002 0.78059 0.6195 0.0
H733 H 0.41643 0.75669 0.61494 0.0
C734 C 0.86504 0.08201 0.74105 0.0
C735 C 0.85819 0.07833 0.71893 0.0
C736 C 0.87106 0.06418 0.75409 0.0
C737 C 0.86409 0.00026 0.7556 0.0
H738 H 0.91673 0.0146 0.80471 0.0
C739 C 0.90821 0.93314 0.8093 0.0
C740 C 0.89346 0.93097 0.8294 0.0
C741 C 0.90725 0.95197 0.79575 0.0
C742 C 0.90211 0.01044 0.79098 0.0
H743 H 0.85263 0.05318 0.69299 0.0
H744 H 0.86454 0.02222 0.71542 0.0
H745 H 0.9087 0.04533 0.7803 0.0
H746 H 0.86767 0.94745 0.85161 0.0
H747 H 0.86711 0.98087 0.82819 0.0
H748 H 0.85847 0.96516 0.76617 0.0
C749 C 0.86432 0.03866 0.723 0.0
C750 C 0.89718 0.02802 0.77708 0.0
C751 C 0.85764 0.05644 0.71005 0.0
C752 C 0.87927 0.94868 0.83624 0.0
C753 C 0.87891 0.96775 0.82289 0.0
C754 C 0.86955 0.98266 0.76924 0.0
C755 C 0.87108 0.04225 0.74527 0.0
C756 C 0.87771 0.02327 0.75935 0.0
C757 C 0.8922 0.96918 0.80232 0.0
C758 C 0.8883 0.98767 0.78715 0.0
H759 H 0.86533 0.09866 0.74842 0.0
H760 H 0.8753 0.06762 0.7712 0.0
H761 H 0.84858 0.99581 0.74247 0.0
H762 H 0.91905 0.91966 0.80349 0.0
H763 H 0.91759 0.9528 0.77989 0.0
C764 C 0.09457 0.55545 0.82114 0.0
C765 C 0.12071 0.57007 0.82734 0.0
C766 C 0.09526 0.53634 0.80782 0.0
C767 C 0.13856 0.51701 0.76513 0.0
H768 H 0.10185 0.45483 0.7806 0.0
C769 C 0.15928 0.43887 0.71542 0.0
C770 C 0.13703 0.41929 0.7143 0.0
C771 C 0.15615 0.45735 0.72884 0.0
C772 C 0.11177 0.47211 0.77573 0.0
H773 H 0.16806 0.57578 0.82471 0.0
H774 H 0.16906 0.54286 0.80122 0.0
H775 H 0.09755 0.48649 0.805 0.0
H776 H 0.09358 0.40404 0.72559 0.0
H777 H 0.08746 0.43657 0.74804 0.0
H778 H 0.15212 0.50308 0.73564 0.0
C779 C 0.14812 0.54612 0.80675 0.0
C780 C 0.10939 0.49021 0.78984 0.0
C781 C 0.14749 0.56488 0.82033 0.0
C782 C 0.11125 0.41884 0.72629 0.0
C783 C 0.10787 0.43746 0.73935 0.0
C784 C 0.14048 0.49902 0.75082 0.0
C785 C 0.12205 0.53184 0.80015 0.0
C786 C 0.12308 0.51276 0.78478 0.0
C787 C 0.13045 0.45686 0.74112 0.0
C788 C 0.12741 0.47624 0.75601 0.0
H789 H 0.0736 0.55898 0.82625 0.0
H790 H 0.07486 0.52552 0.80293 0.0
H791 H 0.14905 0.53433 0.76077 0.0
H792 H 0.17949 0.43961 0.70649 0.0
H793 H 0.17428 0.47173 0.72997 0.0
C794 C 0.73785 0.88539 0.08703 0.0
C795 C 0.74034 0.86702 0.10085 0.0
C796 C 0.75286 0.88812 0.06714 0.0
C797 C 0.78749 0.85361 0.02775 0.0
H798 H 0.81103 0.91235 0.99882 0.0
C799 C 0.84654 0.863 0.9444 0.0
C800 C 0.83312 0.8747 0.92864 0.0
C801 C 0.83841 0.86347 0.96631 0.0
C802 C 0.80457 0.89585 0.00676 0.0
H803 H 0.76204 0.83815 0.10563 0.0
H804 H 0.7894 0.84358 0.07173 0.0
H805 H 0.7922 0.91114 0.03601 0.0
H806 H 0.80141 0.89668 0.92355 0.0
H807 H 0.78766 0.89781 0.96183 0.0
H808 H 0.80023 0.83844 0.99852 0.0
C809 C 0.7749 0.85531 0.07554 0.0
C810 C 0.79361 0.8951 0.02803 0.0
C811 C 0.75945 0.85231 0.09513 0.0
C812 C 0.81204 0.88739 0.9353 0.0
C813 C 0.80431 0.88819 0.95722 0.0
C814 C 0.79887 0.85441 0.00667 0.0
C815 C 0.77109 0.87276 0.06089 0.0
C816 C 0.78458 0.87393 0.03875 0.0
C817 C 0.81713 0.87601 0.97291 0.0
C818 C 0.80718 0.87549 0.99586 0.0
H819 H 0.72309 0.89688 0.09101 0.0
H820 H 0.74907 0.90164 0.05629 0.0
H821 H 0.78016 0.83692 0.03511 0.0
H822 H 0.86285 0.85308 0.93975 0.0
H823 H 0.8487 0.85399 0.97811 0.0
C824 C 0.15233 0.6281 0.94068 0.0
C825 C 0.17297 0.62925 0.92382 0.0
C826 C 0.16058 0.6258 0.96235 0.0
C827 C 0.2194 0.60931 0.99636 0.0
H828 H 0.191 0.64652 0.04035 0.0
C829 C 0.25766 0.6096 0.08612 0.0
C830 C 0.26573 0.63159 0.09533 0.0
C831 C 0.24236 0.60665 0.06635 0.0
C832 C 0.19913 0.63599 0.02826 0.0
H833 H 0.21846 0.62891 0.91651 0.0
H834 H 0.23291 0.62535 0.95418 0.0
H835 H 0.17277 0.64671 0.00322 0.0
H836 H 0.26326 0.66758 0.09139 0.0
H837 H 0.23708 0.66249 0.05714 0.0
H838 H 0.24678 0.59945 0.02119 0.0
C839 C 0.21023 0.62577 0.95071 0.0
C840 C 0.18843 0.63591 0.00701 0.0
C841 C 0.20198 0.62802 0.92909 0.0
C842 C 0.25744 0.65039 0.08475 0.0
C843 C 0.24216 0.64744 0.06514 0.0
C844 C 0.23014 0.60942 0.01761 0.0
C845 C 0.18965 0.62461 0.96763 0.0
C846 C 0.1989 0.62296 0.99068 0.0
C847 C 0.23472 0.62561 0.05553 0.0
C848 C 0.22061 0.62317 0.03371 0.0
H849 H 0.12976 0.62888 0.93714 0.0
H850 H 0.14412 0.62476 0.97495 0.0
H851 H 0.22756 0.59882 0.98426 0.0
H852 H 0.2637 0.59478 0.0939 0.0
H853 H 0.23672 0.58956 0.05946 0.0
C854 C 0.70073 0.1272 0.42747 0.0
C855 C 0.67172 0.12838 0.42212 0.0
C856 C 0.70886 0.12485 0.4491 0.0
C857 C 0.68656 0.13463 0.50536 0.0
H858 H 0.74511 0.09838 0.51968 0.0
C859 C 0.75432 0.14881 0.58369 0.0
C860 C 0.76238 0.12996 0.59433 0.0
C861 C 0.73956 0.14598 0.56386 0.0
C862 C 0.72841 0.10829 0.51605 0.0
H863 H 0.62839 0.12779 0.43533 0.0
H864 H 0.64255 0.12349 0.47315 0.0
H865 H 0.72623 0.09789 0.48265 0.0
H866 H 0.7606 0.09318 0.59273 0.0
H867 H 0.73453 0.08816 0.55789 0.0
H868 H 0.68872 0.14502 0.53876 0.0
C869 C 0.6591 0.12465 0.4606 0.0
C870 C 0.71787 0.10826 0.49474 0.0
C871 C 0.65096 0.12706 0.43892 0.0
C872 C 0.75472 0.10804 0.5849 0.0
C873 C 0.73994 0.1052 0.56491 0.0
C874 C 0.69706 0.13462 0.52666 0.0
C875 C 0.68817 0.12354 0.46596 0.0
C876 C 0.69729 0.12182 0.48903 0.0
C877 C 0.73242 0.12421 0.55409 0.0
C878 C 0.7186 0.12188 0.53216 0.0
H879 H 0.71729 0.12822 0.41494 0.0
H880 H 0.73154 0.1245 0.45263 0.0
H881 H 0.67084 0.14536 0.50156 0.0
H882 H 0.75986 0.16595 0.59048 0.0
H883 H 0.73458 0.16106 0.55585 0.0
C884 C 0.24302 0.38593 0.58901 0.0
C885 C 0.23349 0.36369 0.59736 0.0
C886 C 0.25905 0.3892 0.56956 0.0
C887 C 0.273 0.38838 0.52104 0.0
H888 H 0.32697 0.34859 0.50543 0.0
C889 C 0.30159 0.37285 0.43201 0.0
C890 C 0.33008 0.37006 0.42676 0.0
C891 C 0.29318 0.37448 0.45368 0.0
C892 C 0.31231 0.36009 0.50957 0.0
H893 H 0.23404 0.32754 0.59218 0.0
H894 H 0.26135 0.33316 0.55843 0.0
H895 H 0.30794 0.34784 0.54238 0.0
H896 H 0.37221 0.36701 0.44019 0.0
H897 H 0.35761 0.37012 0.47812 0.0
H898 H 0.27748 0.40072 0.48826 0.0
C899 C 0.25695 0.34817 0.5669 0.0
C900 C 0.30111 0.35947 0.53072 0.0
C901 C 0.24102 0.34492 0.58623 0.0
C902 C 0.35004 0.36903 0.4437 0.0
C903 C 0.34164 0.37075 0.46544 0.0
C904 C 0.28429 0.38906 0.49991 0.0
C905 C 0.26591 0.37029 0.55815 0.0
C906 C 0.28076 0.37319 0.53658 0.0
C907 C 0.31307 0.37349 0.47069 0.0
C908 C 0.30353 0.37453 0.49376 0.0
H909 H 0.23763 0.40074 0.59724 0.0
H910 H 0.26587 0.4065 0.56338 0.0
H911 H 0.25727 0.39909 0.5249 0.0
H912 H 0.28561 0.37363 0.41937 0.0
H913 H 0.27084 0.3761 0.45707 0.0
C914 C 0.06062 0.6828 0.89302 0.0
C915 C 0.0489 0.66752 0.87637 0.0
C916 C 0.04722 0.70122 0.89871 0.0
C917 C 0.02937 0.74753 0.89083 0.0
H918 H 0.94564 0.74524 0.89198 0.0
C919 C 0.97469 0.82223 0.86396 0.0
C920 C 0.94958 0.82602 0.87496 0.0
C921 C 0.98815 0.80396 0.86985 0.0
C922 C 0.96909 0.74619 0.89206 0.0
H923 H 0.01268 0.65852 0.85389 0.0
H924 H 0.98918 0.6904 0.86398 0.0
H925 H 0.96457 0.70949 0.89268 0.0
H926 H 0.91976 0.81432 0.90151 0.0
H927 H 0.94321 0.78221 0.91168 0.0
H928 H 0.03387 0.78418 0.88935 0.0
C929 C 0.00876 0.68826 0.8726 0.0
C930 C 0.97991 0.7257 0.89228 0.0
C931 C 0.0223 0.67 0.86676 0.0
C932 C 0.93915 0.8119 0.89277 0.0
C933 C 0.95241 0.7934 0.89848 0.0
C934 C 0.01855 0.76799 0.8904 0.0
C935 C 0.02165 0.70457 0.88806 0.0
C936 C 0.01016 0.72613 0.89116 0.0
C937 C 0.97663 0.78891 0.88673 0.0
C938 C 0.98827 0.76753 0.8905 0.0
H939 H 0.0811 0.68141 0.90075 0.0
H940 H 0.05747 0.71335 0.91088 0.0
H941 H 0.05278 0.74848 0.88975 0.0
H942 H 0.98326 0.83279 0.85018 0.0
H943 H 0.00663 0.80088 0.86036 0.0
C944 C 0.06185 0.32287 0.64715 0.0
C945 C 0.08911 0.32346 0.63712 0.0
C946 C 0.03804 0.30555 0.642 0.0
C947 C 0.02477 0.24576 0.6252 0.0
H948 H 0.94355 0.25235 0.6243 0.0
C949 C 0.90021 0.18748 0.62308 0.0
C950 C 0.90214 0.17284 0.64085 0.0
C951 C 0.92376 0.20487 0.61761 0.0
C952 C 0.96614 0.25022 0.62418 0.0
H953 H 0.11201 0.30745 0.61243 0.0
H954 H 0.07044 0.27727 0.60354 0.0
H955 H 0.98213 0.28657 0.62284 0.0
H956 H 0.93108 0.16401 0.66579 0.0
H957 H 0.97222 0.1943 0.65611 0.0
H958 H 0.00878 0.20946 0.62728 0.0
C959 C 0.06766 0.29003 0.61559 0.0
C960 C 0.98818 0.26981 0.62352 0.0
C961 C 0.09141 0.30742 0.62063 0.0
C962 C 0.92881 0.17502 0.65207 0.0
C963 C 0.95244 0.19233 0.64647 0.0
C964 C 0.00273 0.22619 0.62604 0.0
C965 C 0.04107 0.28845 0.62678 0.0
C966 C 0.01771 0.2678 0.62445 0.0
C967 C 0.94982 0.20786 0.62962 0.0
C968 C 0.9732 0.22824 0.62597 0.0
H969 H 0.05927 0.33501 0.65984 0.0
H970 H 0.01783 0.30472 0.65096 0.0
H971 H 0.04734 0.24367 0.62618 0.0
H972 H 0.88006 0.18623 0.61399 0.0
H973 H 0.9213 0.21642 0.60436 0.0
C974 C 0.55985 0.18213 0.39157 0.0
C975 C 0.54822 0.16718 0.37465 0.0
C976 C 0.54665 0.20061 0.39739 0.0
C977 C 0.52949 0.2473 0.39036 0.0
H978 H 0.44587 0.24557 0.39025 0.0
C979 C 0.47677 0.32349 0.36466 0.0
C980 C 0.45096 0.32681 0.375 0.0
C981 C 0.48991 0.305 0.3704 0.0
C982 C 0.46929 0.24637 0.3907 0.0
H983 H 0.51234 0.15886 0.35178 0.0
H984 H 0.48921 0.19085 0.36207 0.0
H985 H 0.46433 0.20965 0.39049 0.0
H986 H 0.41967 0.31406 0.40036 0.0
H987 H 0.44261 0.28166 0.41033 0.0
H988 H 0.53445 0.28401 0.38981 0.0
C989 C 0.50856 0.1884 0.37082 0.0
C990 C 0.47985 0.22577 0.39063 0.0
C991 C 0.52189 0.17006 0.36486 0.0
C992 C 0.43957 0.31201 0.39211 0.0
C993 C 0.45256 0.29334 0.3977 0.0
C994 C 0.51893 0.26789 0.39025 0.0
C995 C 0.52137 0.20438 0.38659 0.0
C996 C 0.51007 0.226 0.38996 0.0
C997 C 0.47741 0.28927 0.38649 0.0
C998 C 0.48871 0.26766 0.3899 0.0
H999 H 0.58013 0.18041 0.39944 0.0
H1000 H 0.55683 0.21245 0.40981 0.0
H1001 H 0.5529 0.24811 0.38964 0.0
H1002 H 0.48611 0.33457 0.35142 0.0
H1003 H 0.50891 0.30228 0.36133 0.0
C1004 C 0.62534 0.56973 0.67487 0.0
C1005 C 0.61348 0.58641 0.68616 0.0
C1006 C 0.62807 0.54911 0.68507 0.0
C1007 C 0.60566 0.51386 0.73523 0.0
H1008 H 0.67431 0.48837 0.72157 0.0
C1009 C 0.6498 0.44741 0.7891 0.0
C1010 C 0.65148 0.4269 0.77815 0.0
C1011 C 0.64483 0.46662 0.77747 0.0
C1012 C 0.65504 0.49534 0.72548 0.0
H1013 H 0.59478 0.59443 0.71688 0.0
H1014 H 0.6006 0.55927 0.73487 0.0
H1015 H 0.66507 0.52182 0.70157 0.0
H1016 H 0.65026 0.41056 0.74648 0.0
H1017 H 0.64265 0.44442 0.72616 0.0
H1018 H 0.59661 0.48781 0.75987 0.0
C1019 C 0.60697 0.56149 0.71795 0.0
C1020 C 0.6495 0.51436 0.71388 0.0
C1021 C 0.60374 0.58183 0.70763 0.0
C1022 C 0.64894 0.42614 0.75535 0.0
C1023 C 0.64469 0.44547 0.74371 0.0
C1024 C 0.61159 0.49517 0.74713 0.0
C1025 C 0.61951 0.54492 0.70694 0.0
C1026 C 0.62473 0.52395 0.71861 0.0
C1027 C 0.64222 0.46576 0.75469 0.0
C1028 C 0.63632 0.48579 0.74235 0.0
H1029 H 0.63294 0.57276 0.65826 0.0
H1030 H 0.63719 0.53659 0.67584 0.0
H1031 H 0.586 0.52029 0.73908 0.0
H1032 H 0.65157 0.44842 0.80666 0.0
H1033 H 0.64309 0.48217 0.78622 0.0
C1034 C 0.33948 0.07398 0.76018 0.0
C1035 C 0.33768 0.07261 0.78297 0.0
C1036 C 0.34337 0.055 0.74786 0.0
C1037 C 0.33939 0.99159 0.7514 0.0
H1038 H 0.38499 0.00171 0.69821 0.0
C1039 C 0.38006 0.91896 0.70577 0.0
C1040 C 0.37098 0.91607 0.68395 0.0
C1041 C 0.37722 0.93873 0.71722 0.0
C1042 C 0.37211 0.99871 0.71298 0.0
H1043 H 0.33867 0.05037 0.8108 0.0
H1044 H 0.34678 0.01744 0.78945 0.0
H1045 H 0.37766 0.03456 0.72002 0.0
H1046 H 0.35313 0.93219 0.65674 0.0
H1047 H 0.34904 0.96729 0.67675 0.0
H1048 H 0.33496 0.95563 0.74461 0.0
C1049 C 0.34425 0.03293 0.78093 0.0
C1050 C 0.3677 0.01749 0.72546 0.0
C1051 C 0.33976 0.05184 0.79324 0.0
C1052 C 0.36032 0.93393 0.67352 0.0
C1053 C 0.35798 0.95397 0.68493 0.0
C1054 C 0.34431 0.97284 0.73914 0.0
C1055 C 0.34617 0.03426 0.75804 0.0
C1056 C 0.35116 0.01421 0.74483 0.0
C1057 C 0.36574 0.95624 0.70702 0.0
C1058 C 0.36064 0.97624 0.71982 0.0
H1059 H 0.33764 0.08973 0.7518 0.0
H1060 H 0.34395 0.05662 0.73032 0.0
H1061 H 0.32602 0.98828 0.76589 0.0
H1062 H 0.3883 0.90552 0.71432 0.0
H1063 H 0.38359 0.94021 0.7342 0.0
C1064 C 0.40161 0.19092 0.86383 0.0
C1065 C 0.39943 0.17453 0.84706 0.0
C1066 C 0.42595 0.20868 0.86524 0.0
C1067 C 0.4848 0.24066 0.86955 0.0
H1068 H 0.51348 0.26768 0.81436 0.0
C1069 C 0.58987 0.3098 0.86108 0.0
C1070 C 0.59114 0.32625 0.84443 0.0
C1071 C 0.56542 0.29224 0.86329 0.0
C1072 C 0.50549 0.26056 0.82994 0.0
H1073 H 0.42208 0.16303 0.81954 0.0
H1074 H 0.46493 0.1937 0.82237 0.0
H1075 H 0.47452 0.23406 0.81478 0.0
H1076 H 0.56677 0.33819 0.81814 0.0
H1077 H 0.52376 0.30791 0.82239 0.0
H1078 H 0.51527 0.26767 0.88469 0.0
C1079 C 0.44739 0.19319 0.83404 0.0
C1080 C 0.4835 0.24098 0.83017 0.0
C1081 C 0.42294 0.1755 0.83253 0.0
C1082 C 0.56662 0.32565 0.83098 0.0
C1083 C 0.54207 0.30818 0.83331 0.0
C1084 C 0.50674 0.26036 0.86932 0.0
C1085 C 0.44878 0.21037 0.85002 0.0
C1086 C 0.47293 0.23074 0.84996 0.0
C1087 C 0.54159 0.29083 0.84901 0.0
C1088 C 0.51735 0.27053 0.8495 0.0
H1089 H 0.38391 0.19071 0.87532 0.0
H1090 H 0.42617 0.22168 0.87766 0.0
H1091 H 0.47729 0.23312 0.88508 0.0
H1092 H 0.60837 0.30974 0.87174 0.0
H1093 H 0.56589 0.27912 0.87548 0.0
C1094 C 0.34838 0.55619 0.21278 0.0
C1095 C 0.36292 0.57874 0.21717 0.0
C1096 C 0.35276 0.53796 0.22611 0.0
C1097 C 0.40327 0.52136 0.26737 0.0
H1098 H 0.33546 0.47596 0.28396 0.0
C1099 C 0.36525 0.44265 0.33308 0.0
C1100 C 0.38788 0.43016 0.3306 0.0
C1101 C 0.36403 0.46163 0.31989 0.0
C1102 C 0.35462 0.4886 0.27965 0.0
H1103 H 0.3938 0.59976 0.23882 0.0
H1104 H 0.40117 0.56812 0.26204 0.0
H1105 H 0.32969 0.50676 0.25909 0.0
H1106 H 0.42785 0.42864 0.313 0.0
H1107 H 0.42566 0.4618 0.28988 0.0
H1108 H 0.42808 0.50338 0.28832 0.0
C1109 C 0.38665 0.56441 0.2482 0.0
C1110 C 0.35136 0.50608 0.26512 0.0
C1111 C 0.38225 0.58259 0.23494 0.0
C1112 C 0.41015 0.43789 0.31538 0.0
C1113 C 0.4089 0.45692 0.30212 0.0
C1114 C 0.40655 0.50382 0.28189 0.0
C1115 C 0.37182 0.54188 0.24407 0.0
C1116 C 0.3756 0.52275 0.25887 0.0
C1117 C 0.38537 0.46862 0.30383 0.0
C1118 C 0.38221 0.48731 0.28833 0.0
H1119 H 0.33342 0.55263 0.19919 0.0
H1120 H 0.34126 0.52076 0.2223 0.0
H1121 H 0.42247 0.53379 0.26273 0.0
H1122 H 0.34786 0.43732 0.34476 0.0
H1123 H 0.346 0.47059 0.32201 0.0
C1124 C 0.64671 0.06428 0.31874 0.0
C1125 C 0.61985 0.06961 0.32539 0.0
C1126 C 0.6475 0.04556 0.30513 0.0
C1127 C 0.60852 0.98993 0.28744 0.0
H1128 H 0.65351 0.00278 0.23423 0.0
C1129 C 0.61211 0.91876 0.22396 0.0
C1130 C 0.63842 0.91902 0.21269 0.0
C1131 C 0.60836 0.9374 0.23687 0.0
C1132 C 0.64122 0.99873 0.24913 0.0
H1133 H 0.57275 0.0588 0.32362 0.0
H1134 H 0.57426 0.02543 0.30024 0.0
H1135 H 0.64993 0.03397 0.25931 0.0
H1136 H 0.68143 0.93906 0.20601 0.0
H1137 H 0.67551 0.97121 0.22922 0.0
H1138 H 0.60079 0.95462 0.27797 0.0
C1139 C 0.59461 0.0361 0.30544 0.0
C1140 C 0.63902 0.01668 0.26342 0.0
C1141 C 0.59377 0.05516 0.31879 0.0
C1142 C 0.66081 0.93846 0.21437 0.0
C1143 C 0.65729 0.95696 0.22763 0.0
C1144 C 0.61115 0.97187 0.27336 0.0
C1145 C 0.62151 0.03147 0.29813 0.0
C1146 C 0.62275 0.01244 0.28273 0.0
C1147 C 0.63106 0.95664 0.23921 0.0
C1148 C 0.62763 0.97599 0.254 0.0
H1149 H 0.66725 0.07503 0.32343 0.0
H1150 H 0.66851 0.0422 0.2999 0.0
H1151 H 0.59605 0.98622 0.30233 0.0
H1152 H 0.59433 0.90408 0.22283 0.0
H1153 H 0.58758 0.93664 0.24501 0.0
C1154 C 0.56769 0.82116 0.14427 0.0
C1155 C 0.59566 0.82156 0.1355 0.0
C1156 C 0.54427 0.80379 0.13846 0.0
C1157 C 0.53188 0.74378 0.12196 0.0
H1158 H 0.45088 0.75073 0.11913 0.0
C1159 C 0.4065 0.68652 0.11982 0.0
C1160 C 0.4083 0.67218 0.13783 0.0
C1161 C 0.43036 0.70343 0.11387 0.0
C1162 C 0.47341 0.74847 0.1195 0.0
H1163 H 0.62034 0.80513 0.11232 0.0
H1164 H 0.57939 0.77492 0.1022 0.0
H1165 H 0.48967 0.78476 0.118 0.0
H1166 H 0.43735 0.66325 0.16264 0.0
H1167 H 0.47892 0.69274 0.15225 0.0
H1168 H 0.51559 0.70753 0.12413 0.0
C1169 C 0.57575 0.78783 0.11382 0.0
C1170 C 0.49559 0.76797 0.11906 0.0
C1171 C 0.59916 0.80523 0.11956 0.0
C1172 C 0.43515 0.67405 0.14875 0.0
C1173 C 0.45905 0.69091 0.14273 0.0
C1174 C 0.5097 0.72428 0.12251 0.0
C1175 C 0.54833 0.78647 0.12378 0.0
C1176 C 0.52502 0.76587 0.12083 0.0
C1177 C 0.45658 0.70626 0.12569 0.0
C1178 C 0.48021 0.72646 0.12183 0.0
H1179 H 0.56418 0.83351 0.15651 0.0
H1180 H 0.52344 0.80316 0.14651 0.0
H1181 H 0.55434 0.74158 0.12356 0.0
H1182 H 0.38622 0.68546 0.11092 0.0
H1183 H 0.42799 0.7148 0.10046 0.0
loop_
_geom_bond_atom_site_label_1
_geom_bond_atom_site_label_2
_geom_bond_distance
_geom_bond_site_symmetry_2
_ccdc_geom_bond_type
O0 Cd1 2.223 . S
O0 C8 1.315 . S
Cd1 O0 2.223 . S
Cd1 O4 2.297 . S
Cd1 O5 2.439 . S
Cd1 O11 2.240 . S
Cd2 O3 2.240 . S
Cd2 O10 2.223 . S
Cd2 O12 2.297 . S
Cd2 O13 2.439 . S
O3 Cd2 2.240 . S
O3 C8 1.279 . S
O4 Cd1 2.297 . S
O4 C6 1.247 . S
O5 Cd1 2.439 . S
O5 C6 1.208 . S
C6 O4 1.247 . S
C6 O5 1.208 . S
C7 O12 1.247 . S
C7 O13 1.208 . S
C8 O0 1.315 . S
C8 O3 1.279 . S
C9 O10 1.315 . S
C9 O11 1.279 . S
O10 Cd2 2.223 . S
O10 C9 1.315 . S
O11 Cd1 2.240 . S
O11 C9 1.279 . S
O12 Cd2 2.297 . S
O12 C7 1.247 . S
O13 Cd2 2.439 . S
O13 C7 1.208 . S
O14 Cd15 2.223 . S
O14 C22 1.315 . S
Cd15 O14 2.223 . S
Cd15 O18 2.297 . S
Cd15 O19 2.439 . S
Cd15 O25 2.240 . S
Cd16 O17 2.240 . S
Cd16 O24 2.223 . S
Cd16 O26 2.297 . S
Cd16 O27 2.439 . S
O17 Cd16 2.240 . S
O17 C22 1.279 . S
O18 Cd15 2.297 . S
O18 C20 1.247 . S
O19 Cd15 2.439 . S
O19 C20 1.208 . S
C20 O18 1.247 . S
C20 O19 1.208 . S
C21 O26 1.247 . S
C21 O27 1.208 . S
C22 O14 1.315 . S
C22 O17 1.279 . S
C23 O24 1.315 . S
C23 O25 1.279 . S
O24 Cd16 2.223 . S
O24 C23 1.315 . S
O25 Cd15 2.240 . S
O25 C23 1.279 . S
O26 Cd16 2.297 . S
O26 C21 1.247 . S
O27 Cd16 2.439 . S
O27 C21 1.208 . S
O28 Cd29 2.223 . S
O28 C36 1.315 . S
Cd29 O28 2.223 . S
Cd29 O32 2.297 . S
Cd29 O33 2.439 . S
Cd29 O39 2.240 . S
Cd30 O31 2.240 . S
Cd30 O38 2.223 . S
Cd30 O40 2.297 . S
Cd30 O41 2.439 . S
O31 Cd30 2.240 . S
O31 C36 1.279 . S
O32 Cd29 2.297 . S
O32 C34 1.247 . S
O33 Cd29 2.439 . S
O33 C34 1.208 . S
C34 O32 1.247 . S
C34 O33 1.208 . S
C35 O40 1.247 . S
C35 O41 1.208 . S
C36 O28 1.315 . S
C36 O31 1.279 . S
C37 O38 1.315 . S
C37 O39 1.279 . S
O38 Cd30 2.223 . S
O38 C37 1.315 . S
O39 Cd29 2.240 . S
O39 C37 1.279 . S
O40 Cd30 2.297 . S
O40 C35 1.247 . S
O41 Cd30 2.439 . S
O41 C35 1.208 . S
O42 Cd43 2.223 . S
O42 C50 1.315 . S
Cd43 O42 2.223 . S
Cd43 O46 2.297 . S
Cd43 O47 2.439 . S
Cd43 O53 2.240 . S
Cd44 O45 2.240 . S
Cd44 O52 2.223 . S
Cd44 O54 2.297 . S
Cd44 O55 2.439 . S
O45 Cd44 2.240 . S
O45 C50 1.279 . S
O46 Cd43 2.297 . S
O46 C48 1.247 . S
O47 Cd43 2.439 . S
O47 C48 1.208 . S
C48 O46 1.247 . S
C48 O47 1.208 . S
C49 O54 1.247 . S
C49 O55 1.208 . S
C50 O42 1.315 . S
C50 O45 1.279 . S
C51 O52 1.315 . S
C51 O53 1.279 . S
O52 Cd44 2.223 . S
O52 C51 1.315 . S
O53 Cd43 2.240 . S
O53 C51 1.279 . S
O54 Cd44 2.297 . S
O54 C49 1.247 . S
O55 Cd44 2.439 . S
O55 C49 1.208 . S
O56 Cd57 2.223 . S
O56 C64 1.315 . S
Cd57 O56 2.223 . S
Cd57 O60 2.297 . S
Cd57 O61 2.439 . S
Cd57 O67 2.240 . S
Cd58 O59 2.240 . S
Cd58 O66 2.223 . S
Cd58 O68 2.297 . S
Cd58 O69 2.439 . S
O59 Cd58 2.240 . S
O59 C64 1.279 . S
O60 Cd57 2.297 . S
O60 C62 1.247 . S
O61 Cd57 2.439 . S
O61 C62 1.208 . S
C62 O60 1.247 . S
C62 O61 1.208 . S
C63 O68 1.247 . S
C63 O69 1.208 . S
C64 O56 1.315 . S
C64 O59 1.279 . S
C65 O66 1.315 . S
C65 O67 1.279 . S
O66 Cd58 2.223 . S
O66 C65 1.315 . S
O67 Cd57 2.240 . S
O67 C65 1.279 . S
O68 Cd58 2.297 . S
O68 C63 1.247 . S
O69 Cd58 2.439 . S
O69 C63 1.208 . S
O70 Cd71 2.223 . S
O70 C78 1.315 . S
Cd71 O70 2.223 . S
Cd71 O74 2.297 . S
Cd71 O75 2.439 . S
Cd71 O81 2.240 . S
Cd72 O73 2.240 . S
Cd72 O80 2.223 . S
Cd72 O82 2.297 . S
Cd72 O83 2.439 . S
O73 Cd72 2.240 . S
O73 C78 1.279 . S
O74 Cd71 2.297 . S
O74 C76 1.247 . S
O75 Cd71 2.439 . S
O75 C76 1.208 . S
C76 O74 1.247 . S
C76 O75 1.208 . S
C77 O82 1.247 . S
C77 O83 1.208 . S
C78 O70 1.315 . S
C78 O73 1.279 . S
C79 O80 1.315 . S
C79 O81 1.279 . S
O80 Cd72 2.223 . S
O80 C79 1.315 . S
O81 Cd71 2.240 . S
O81 C79 1.279 . S
O82 Cd72 2.297 . S
O82 C77 1.247 . S
O83 Cd72 2.439 . S
O83 C77 1.208 . S
O84 Cd85 2.223 . S
O84 C92 1.315 . S
Cd85 O84 2.223 . S
Cd85 O88 2.297 . S
Cd85 O89 2.439 . S
Cd85 O95 2.240 . S
Cd86 O87 2.240 . S
Cd86 O94 2.223 . S
Cd86 O96 2.297 . S
Cd86 O97 2.439 . S
O87 Cd86 2.240 . S
O87 C92 1.279 . S
O88 Cd85 2.297 . S
O88 C90 1.247 . S
O89 Cd85 2.439 . S
O89 C90 1.208 . S
C90 O88 1.247 . S
C90 O89 1.208 . S
C91 O96 1.247 . S
C91 O97 1.208 . S
C92 O84 1.315 . S
C92 O87 1.279 . S
C93 O94 1.315 . S
C93 O95 1.279 . S
O94 Cd86 2.223 . S
O94 C93 1.315 . S
O95 Cd85 2.240 . S
O95 C93 1.279 . S
O96 Cd86 2.297 . S
O96 C91 1.247 . S
O97 Cd86 2.439 . S
O97 C91 1.208 . S
O98 Cd99 2.223 . S
O98 C106 1.315 . S
Cd99 O98 2.223 . S
Cd99 O102 2.297 . S
Cd99 O103 2.439 . S
Cd99 O109 2.240 . S
Cd100 O101 2.240 . S
Cd100 O108 2.223 . S
Cd100 O110 2.297 . S
Cd100 O111 2.439 . S
O101 Cd100 2.240 . S
O101 C106 1.279 . S
O102 Cd99 2.297 . S
O102 C104 1.247 . S
O103 Cd99 2.439 . S
O103 C104 1.208 . S
C104 O102 1.247 . S
C104 O103 1.208 . S
C105 O110 1.247 . S
C105 O111 1.208 . S
C106 O98 1.315 . S
C106 O101 1.279 . S
C107 O108 1.315 . S
C107 O109 1.279 . S
O108 Cd100 2.223 . S
O108 C107 1.315 . S
O109 Cd99 2.240 . S
O109 C107 1.279 . S
O110 Cd100 2.297 . S
O110 C105 1.247 . S
O111 Cd100 2.439 . S
O111 C105 1.208 . S
O112 Cd113 2.223 . S
O112 C120 1.315 . S
Cd113 O112 2.223 . S
Cd113 O116 2.297 . S
Cd113 O117 2.439 . S
Cd113 O123 2.240 . S
Cd114 O115 2.240 . S
Cd114 O122 2.223 . S
Cd114 O124 2.297 . S
Cd114 O125 2.439 . S
O115 Cd114 2.240 . S
O115 C120 1.279 . S
O116 Cd113 2.297 . S
O116 C118 1.247 . S
O117 Cd113 2.439 . S
O117 C118 1.208 . S
C118 O116 1.247 . S
C118 O117 1.208 . S
C119 O124 1.247 . S
C119 O125 1.208 . S
C120 O112 1.315 . S
C120 O115 1.279 . S
C121 O122 1.315 . S
C121 O123 1.279 . S
O122 Cd114 2.223 . S
O122 C121 1.315 . S
O123 Cd113 2.240 . S
O123 C121 1.279 . S
O124 Cd114 2.297 . S
O124 C119 1.247 . S
O125 Cd114 2.439 . S
O125 C119 1.208 . S
O126 Cd127 2.223 . S
O126 C134 1.315 . S
Cd127 O126 2.223 . S
Cd127 O130 2.297 . S
Cd127 O131 2.439 . S
Cd127 O137 2.240 . S
Cd128 O129 2.240 . S
Cd128 O136 2.223 . S
Cd128 O138 2.297 . S
Cd128 O139 2.439 . S
O129 Cd128 2.240 . S
O129 C134 1.279 . S
O130 Cd127 2.297 . S
O130 C132 1.247 . S
O131 Cd127 2.439 . S
O131 C132 1.208 . S
C132 O130 1.247 . S
C132 O131 1.208 . S
C133 O138 1.247 . S
C133 O139 1.208 . S
C134 O126 1.315 . S
C134 O129 1.279 . S
C135 O136 1.315 . S
C135 O137 1.279 . S
O136 Cd128 2.223 . S
O136 C135 1.315 . S
O137 Cd127 2.240 . S
O137 C135 1.279 . S
O138 Cd128 2.297 . S
O138 C133 1.247 . S
O139 Cd128 2.439 . S
O139 C133 1.208 . S
O140 Cd141 2.223 . S
O140 C148 1.315 . S
Cd141 O140 2.223 . S
Cd141 O144 2.297 . S
Cd141 O145 2.439 . S
Cd141 O151 2.240 . S
Cd142 O143 2.240 . S
Cd142 O150 2.223 . S
Cd142 O152 2.297 . S
Cd142 O153 2.439 . S
O143 Cd142 2.240 . S
O143 C148 1.279 . S
O144 Cd141 2.297 . S
O144 C146 1.247 . S
O145 Cd141 2.439 . S
O145 C146 1.208 . S
C146 O144 1.247 . S
C146 O145 1.208 . S
C147 O152 1.247 . S
C147 O153 1.208 . S
C148 O140 1.315 . S
C148 O143 1.279 . S
C149 O150 1.315 . S
C149 O151 1.279 . S
O150 Cd142 2.223 . S
O150 C149 1.315 . S
O151 Cd141 2.240 . S
O151 C149 1.279 . S
O152 Cd142 2.297 . S
O152 C147 1.247 . S
O153 Cd142 2.439 . S
O153 C147 1.208 . S
O154 Cd155 2.223 . S
O154 C162 1.315 . S
Cd155 O154 2.223 . S
Cd155 O158 2.297 . S
Cd155 O159 2.439 . S
Cd155 O165 2.240 . S
Cd156 O157 2.240 . S
Cd156 O164 2.223 . S
Cd156 O166 2.297 . S
Cd156 O167 2.439 . S
O157 Cd156 2.240 . S
O157 C162 1.279 . S
O158 Cd155 2.297 . S
O158 C160 1.247 . S
O159 Cd155 2.439 . S
O159 C160 1.208 . S
C160 O158 1.247 . S
C160 O159 1.208 . S
C161 O166 1.247 . S
C161 O167 1.208 . S
C162 O154 1.315 . S
C162 O157 1.279 . S
C163 O164 1.315 . S
C163 O165 1.279 . S
O164 Cd156 2.223 . S
O164 C163 1.315 . S
O165 Cd155 2.240 . S
O165 C163 1.279 . S
O166 Cd156 2.297 . S
O166 C161 1.247 . S
O167 Cd156 2.439 . S
O167 C161 1.208 . S
O168 Cd169 2.223 . S
O168 C176 1.315 . S
Cd169 O168 2.223 . S
Cd169 O172 2.297 . S
Cd169 O173 2.439 . S
Cd169 O179 2.240 . S
Cd170 O171 2.240 . S
Cd170 O178 2.223 . S
Cd170 O180 2.297 . S
Cd170 O181 2.439 . S
O171 Cd170 2.240 . S
O171 C176 1.279 . S
O172 Cd169 2.297 . S
O172 C174 1.247 . S
O173 Cd169 2.439 . S
O173 C174 1.208 . S
C174 O172 1.247 . S
C174 O173 1.208 . S
C175 O180 1.247 . S
C175 O181 1.208 . S
C176 O168 1.315 . S
C176 O171 1.279 . S
C177 O178 1.315 . S
C177 O179 1.279 . S
O178 Cd170 2.223 . S
O178 C177 1.315 . S
O179 Cd169 2.240 . S
O179 C177 1.279 . S
O180 Cd170 2.297 . S
O180 C175 1.247 . S
O181 Cd170 2.439 . S
O181 C175 1.208 . S
O182 Cd183 2.223 . S
O182 C190 1.315 . S
Cd183 O182 2.223 . S
Cd183 O186 2.297 . S
Cd183 O187 2.439 . S
Cd183 O193 2.240 . S
Cd184 O185 2.240 . S
Cd184 O192 2.223 . S
Cd184 O194 2.297 . S
Cd184 O195 2.439 . S
O185 Cd184 2.240 . S
O185 C190 1.279 . S
O186 Cd183 2.297 . S
O186 C188 1.247 . S
O187 Cd183 2.439 . S
O187 C188 1.208 . S
C188 O186 1.247 . S
C188 O187 1.208 . S
C189 O194 1.247 . S
C189 O195 1.208 . S
C190 O182 1.315 . S
C190 O185 1.279 . S
C191 O192 1.315 . S
C191 O193 1.279 . S
O192 Cd184 2.223 . S
O192 C191 1.315 . S
O193 Cd183 2.240 . S
O193 C191 1.279 . S
O194 Cd184 2.297 . S
O194 C189 1.247 . S
O195 Cd184 2.439 . S
O195 C189 1.208 . S
O196 Cd197 2.223 . S
O196 C204 1.315 . S
Cd197 O196 2.223 . S
Cd197 O200 2.297 . S
Cd197 O201 2.439 . S
Cd197 O207 2.240 . S
Cd198 O199 2.240 . S
Cd198 O206 2.223 . S
Cd198 O208 2.297 . S
Cd198 O209 2.439 . S
O199 Cd198 2.240 . S
O199 C204 1.279 . S
O200 Cd197 2.297 . S
O200 C202 1.247 . S
O201 Cd197 2.439 . S
O201 C202 1.208 . S
C202 O200 1.247 . S
C202 O201 1.208 . S
C203 O208 1.247 . S
C203 O209 1.208 . S
C204 O196 1.315 . S
C204 O199 1.279 . S
C205 O206 1.315 . S
C205 O207 1.279 . S
O206 Cd198 2.223 . S
O206 C205 1.315 . S
O207 Cd197 2.240 . S
O207 C205 1.279 . S
O208 Cd198 2.297 . S
O208 C203 1.247 . S
O209 Cd198 2.439 . S
O209 C203 1.208 . S
O210 Cd211 2.223 . S
O210 C218 1.315 . S
Cd211 O210 2.223 . S
Cd211 O214 2.297 . S
Cd211 O215 2.439 . S
Cd211 O221 2.240 . S
Cd212 O213 2.240 . S
Cd212 O220 2.223 . S
Cd212 O222 2.297 . S
Cd212 O223 2.439 . S
O213 Cd212 2.240 . S
O213 C218 1.279 . S
O214 Cd211 2.297 . S
O214 C216 1.247 . S
O215 Cd211 2.439 . S
O215 C216 1.208 . S
C216 O214 1.247 . S
C216 O215 1.208 . S
C217 O222 1.247 . S
C217 O223 1.208 . S
C218 O210 1.315 . S
C218 O213 1.279 . S
C219 O220 1.315 . S
C219 O221 1.279 . S
O220 Cd212 2.223 . S
O220 C219 1.315 . S
O221 Cd211 2.240 . S
O221 C219 1.279 . S
O222 Cd212 2.297 . S
O222 C217 1.247 . S
O223 Cd212 2.439 . S
O223 C217 1.208 . S
C224 C225 1.349 . S
C224 C226 1.327 . S
C224 H249 0.950 . S
C225 C224 1.349 . S
C225 C241 1.349 . S
C226 C224 1.327 . S
C226 C245 1.429 . S
C226 H250 0.950 . S
C227 C244 1.574 . S
C227 C246 1.368 . S
C227 H251 0.949 . S
H228 C232 0.949 . S
C229 C230 1.349 . S
C229 C231 1.327 . S
C229 H252 0.950 . S
C230 C229 1.349 . S
C230 C242 1.349 . S
C231 C229 1.327 . S
C231 C247 1.429 . S
C231 H253 0.950 . S
C232 H228 0.949 . S
C232 C240 1.574 . S
C232 C248 1.368 . S
H233 C241 0.950 . S
H234 C239 0.950 . S
H235 C240 0.949 . S
H236 C242 0.950 . S
H237 C243 0.950 . S
H238 C244 0.949 . S
C239 H234 0.950 . S
C239 C241 1.327 . S
C239 C245 1.429 . S
C240 C232 1.574 . S
C240 H235 0.949 . S
C240 C246 1.368 . S
C241 C225 1.349 . S
C241 H233 0.950 . S
C241 C239 1.327 . S
C242 C230 1.349 . S
C242 H236 0.950 . S
C242 C243 1.327 . S
C243 H237 0.950 . S
C243 C242 1.327 . S
C243 C247 1.429 . S
C244 C227 1.574 . S
C244 H238 0.949 . S
C244 C248 1.368 . S
C245 C226 1.429 . S
C245 C239 1.429 . S
C245 C246 1.523 . S
C246 C227 1.368 . S
C246 C240 1.368 . S
C246 C245 1.523 . S
C247 C231 1.429 . S
C247 C243 1.429 . S
C247 C248 1.523 . S
C248 C232 1.368 . S
C248 C244 1.368 . S
C248 C247 1.523 . S
H249 C224 0.950 . S
H250 C226 0.950 . S
H251 C227 0.949 . S
H252 C229 0.950 . S
H253 C231 0.950 . S
C254 C255 1.349 . S
C254 C256 1.327 . S
C254 H279 0.950 . S
C255 C254 1.349 . S
C255 C271 1.349 . S
C256 C254 1.327 . S
C256 C275 1.429 . S
C256 H280 0.950 . S
C257 C274 1.574 . S
C257 C276 1.368 . S
C257 H281 0.949 . S
H258 C262 0.949 . S
C259 C260 1.349 . S
C259 C261 1.327 . S
C259 H282 0.950 . S
C260 C259 1.349 . S
C260 C272 1.349 . S
C261 C259 1.327 . S
C261 C277 1.429 . S
C261 H283 0.950 . S
C262 H258 0.949 . S
C262 C270 1.574 . S
C262 C278 1.368 . S
H263 C271 0.950 . S
H264 C269 0.950 . S
H265 C270 0.949 . S
H266 C272 0.950 . S
H267 C273 0.950 . S
H268 C274 0.949 . S
C269 H264 0.950 . S
C269 C271 1.327 . S
C269 C275 1.429 . S
C270 C262 1.574 . S
C270 H265 0.949 . S
C270 C276 1.368 . S
C271 C255 1.349 . S
C271 H263 0.950 . S
C271 C269 1.327 . S
C272 C260 1.349 . S
C272 H266 0.950 . S
C272 C273 1.327 . S
C273 H267 0.950 . S
C273 C272 1.327 . S
C273 C277 1.429 . S
C274 C257 1.574 . S
C274 H268 0.949 . S
C274 C278 1.368 . S
C275 C256 1.429 . S
C275 C269 1.429 . S
C275 C276 1.523 . S
C276 C257 1.368 . S
C276 C270 1.368 . S
C276 C275 1.523 . S
C277 C261 1.429 . S
C277 C273 1.429 . S
C277 C278 1.523 . S
C278 C262 1.368 . S
C278 C274 1.368 . S
C278 C277 1.523 . S
H279 C254 0.950 . S
H280 C256 0.950 . S
H281 C257 0.949 . S
H282 C259 0.950 . S
H283 C261 0.950 . S
C284 C285 1.349 . S
C284 C286 1.327 . S
C284 H309 0.950 . S
C285 C284 1.349 . S
C285 C301 1.349 . S
C286 C284 1.327 . S
C286 C305 1.429 . S
C286 H310 0.950 . S
C287 C304 1.574 . S
C287 C306 1.368 . S
C287 H311 0.949 . S
H288 C292 0.949 . S
C289 C290 1.349 . S
C289 C291 1.327 . S
C289 H312 0.950 . S
C290 C289 1.349 . S
C290 C302 1.349 . S
C291 C289 1.327 . S
C291 C307 1.429 . S
C291 H313 0.950 . S
C292 H288 0.949 . S
C292 C300 1.574 . S
C292 C308 1.368 . S
H293 C301 0.950 . S
H294 C299 0.950 . S
H295 C300 0.949 . S
H296 C302 0.950 . S
H297 C303 0.950 . S
H298 C304 0.949 . S
C299 H294 0.950 . S
C299 C301 1.327 . S
C299 C305 1.429 . S
C300 C292 1.574 . S
C300 H295 0.949 . S
C300 C306 1.368 . S
C301 C285 1.349 . S
C301 H293 0.950 . S
C301 C299 1.327 . S
C302 C290 1.349 . S
C302 H296 0.950 . S
C302 C303 1.327 . S
C303 H297 0.950 . S
C303 C302 1.327 . S
C303 C307 1.429 . S
C304 C287 1.574 . S
C304 H298 0.949 . S
C304 C308 1.368 . S
C305 C286 1.429 . S
C305 C299 1.429 . S
C305 C306 1.523 . S
C306 C287 1.368 . S
C306 C300 1.368 . S
C306 C305 1.523 . S
C307 C291 1.429 . S
C307 C303 1.429 . S
C307 C308 1.523 . S
C308 C292 1.368 . S
C308 C304 1.368 . S
C308 C307 1.523 . S
H309 C284 0.950 . S
H310 C286 0.950 . S
H311 C287 0.949 . S
H312 C289 0.950 . S
H313 C291 0.950 . S
C314 C315 1.349 . S
C314 C316 1.327 . S
C314 H339 0.950 . S
C315 C314 1.349 . S
C315 C331 1.349 . S
C316 C314 1.327 . S
C316 C335 1.429 . S
C316 H340 0.950 . S
C317 C334 1.574 . S
C317 C336 1.368 . S
C317 H341 0.949 . S
H318 C322 0.949 . S
C319 C320 1.349 . S
C319 C321 1.327 . S
C319 H342 0.950 . S
C320 C319 1.349 . S
C320 C332 1.349 . S
C321 C319 1.327 . S
C321 C337 1.429 . S
C321 H343 0.950 . S
C322 H318 0.949 . S
C322 C330 1.574 . S
C322 C338 1.368 . S
H323 C331 0.950 . S
H324 C329 0.950 . S
H325 C330 0.949 . S
H326 C332 0.950 . S
H327 C333 0.950 . S
H328 C334 0.949 . S
C329 H324 0.950 . S
C329 C331 1.327 . S
C329 C335 1.429 . S
C330 C322 1.574 . S
C330 H325 0.949 . S
C330 C336 1.368 . S
C331 C315 1.349 . S
C331 H323 0.950 . S
C331 C329 1.327 . S
C332 C320 1.349 . S
C332 H326 0.950 . S
C332 C333 1.327 . S
C333 H327 0.950 . S
C333 C332 1.327 . S
C333 C337 1.429 . S
C334 C317 1.574 . S
C334 H328 0.949 . S
C334 C338 1.368 . S
C335 C316 1.429 . S
C335 C329 1.429 . S
C335 C336 1.523 . S
C336 C317 1.368 . S
C336 C330 1.368 . S
C336 C335 1.523 . S
C337 C321 1.429 . S
C337 C333 1.429 . S
C337 C338 1.523 . S
C338 C322 1.368 . S
C338 C334 1.368 . S
C338 C337 1.523 . S
H339 C314 0.950 . S
H340 C316 0.950 . S
H341 C317 0.949 . S
H342 C319 0.950 . S
H343 C321 0.950 . S
C344 C345 1.349 . S
C344 C346 1.327 . S
C344 H369 0.950 . S
C345 C344 1.349 . S
C345 C361 1.349 . S
C346 C344 1.327 . S
C346 C365 1.429 . S
C346 H370 0.950 . S
C347 C364 1.574 . S
C347 C366 1.368 . S
C347 H371 0.949 . S
H348 C352 0.949 . S
C349 C350 1.349 . S
C349 C351 1.327 . S
C349 H372 0.950 . S
C350 C349 1.349 . S
C350 C362 1.349 . S
C351 C349 1.327 . S
C351 C367 1.429 . S
C351 H373 0.950 . S
C352 H348 0.949 . S
C352 C360 1.574 . S
C352 C368 1.368 . S
H353 C361 0.950 . S
H354 C359 0.950 . S
H355 C360 0.949 . S
H356 C362 0.950 . S
H357 C363 0.950 . S
H358 C364 0.949 . S
C359 H354 0.950 . S
C359 C361 1.327 . S
C359 C365 1.429 . S
C360 C352 1.574 . S
C360 H355 0.949 . S
C360 C366 1.368 . S
C361 C345 1.349 . S
C361 H353 0.950 . S
C361 C359 1.327 . S
C362 C350 1.349 . S
C362 H356 0.950 . S
C362 C363 1.327 . S
C363 H357 0.950 . S
C363 C362 1.327 . S
C363 C367 1.429 . S
C364 C347 1.574 . S
C364 H358 0.949 . S
C364 C368 1.368 . S
C365 C346 1.429 . S
C365 C359 1.429 . S
C365 C366 1.523 . S
C366 C347 1.368 . S
C366 C360 1.368 . S
C366 C365 1.523 . S
C367 C351 1.429 . S
C367 C363 1.429 . S
C367 C368 1.523 . S
C368 C352 1.368 . S
C368 C364 1.368 . S
C368 C367 1.523 . S
H369 C344 0.950 . S
H370 C346 0.950 . S
H371 C347 0.949 . S
H372 C349 0.950 . S
H373 C351 0.950 . S
C374 C375 1.349 . S
C374 C376 1.327 . S
C374 H399 0.950 . S
C375 C374 1.349 . S
C375 C391 1.349 . S
C376 C374 1.327 . S
C376 C395 1.429 . S
C376 H400 0.950 . S
C377 C394 1.574 . S
C377 C396 1.368 . S
C377 H401 0.949 . S
H378 C382 0.949 . S
C379 C380 1.349 . S
C379 C381 1.327 . S
C379 H402 0.950 . S
C380 C379 1.349 . S
C380 C392 1.349 . S
C381 C379 1.327 . S
C381 C397 1.429 . S
C381 H403 0.950 . S
C382 H378 0.949 . S
C382 C390 1.574 . S
C382 C398 1.368 . S
H383 C391 0.950 . S
H384 C389 0.950 . S
H385 C390 0.949 . S
H386 C392 0.950 . S
H387 C393 0.950 . S
H388 C394 0.949 . S
C389 H384 0.950 . S
C389 C391 1.327 . S
C389 C395 1.429 . S
C390 C382 1.574 . S
C390 H385 0.949 . S
C390 C396 1.368 . S
C391 C375 1.349 . S
C391 H383 0.950 . S
C391 C389 1.327 . S
C392 C380 1.349 . S
C392 H386 0.950 . S
C392 C393 1.327 . S
C393 H387 0.950 . S
C393 C392 1.327 . S
C393 C397 1.429 . S
C394 C377 1.574 . S
C394 H388 0.949 . S
C394 C398 1.368 . S
C395 C376 1.429 . S
C395 C389 1.429 . S
C395 C396 1.523 . S
C396 C377 1.368 . S
C396 C390 1.368 . S
C396 C395 1.523 . S
C397 C381 1.429 . S
C397 C393 1.429 . S
C397 C398 1.523 . S
C398 C382 1.368 . S
C398 C394 1.368 . S
C398 C397 1.523 . S
H399 C374 0.950 . S
H400 C376 0.950 . S
H401 C377 0.949 . S
H402 C379 0.950 . S
H403 C381 0.950 . S
C404 C405 1.349 . S
C404 C406 1.327 . S
C404 H429 0.950 . S
C405 C404 1.349 . S
C405 C421 1.349 . S
C406 C404 1.327 . S
C406 C425 1.429 . S
C406 H430 0.950 . S
C407 C424 1.574 . S
C407 C426 1.368 . S
C407 H431 0.949 . S
H408 C412 0.949 . S
C409 C410 1.349 . S
C409 C411 1.327 . S
C409 H432 0.950 . S
C410 C409 1.349 . S
C410 C422 1.349 . S
C411 C409 1.327 . S
C411 C427 1.429 . S
C411 H433 0.950 . S
C412 H408 0.949 . S
C412 C420 1.574 . S
C412 C428 1.368 . S
H413 C421 0.950 . S
H414 C419 0.950 . S
H415 C420 0.949 . S
H416 C422 0.950 . S
H417 C423 0.950 . S
H418 C424 0.949 . S
C419 H414 0.950 . S
C419 C421 1.327 . S
C419 C425 1.429 . S
C420 C412 1.574 . S
C420 H415 0.949 . S
C420 C426 1.368 . S
C421 C405 1.349 . S
C421 H413 0.950 . S
C421 C419 1.327 . S
C422 C410 1.349 . S
C422 H416 0.950 . S
C422 C423 1.327 . S
C423 H417 0.950 . S
C423 C422 1.327 . S
C423 C427 1.429 . S
C424 C407 1.574 . S
C424 H418 0.949 . S
C424 C428 1.368 . S
C425 C406 1.429 . S
C425 C419 1.429 . S
C425 C426 1.523 . S
C426 C407 1.368 . S
C426 C420 1.368 . S
C426 C425 1.523 . S
C427 C411 1.429 . S
C427 C423 1.429 . S
C427 C428 1.523 . S
C428 C412 1.368 . S
C428 C424 1.368 . S
C428 C427 1.523 . S
H429 C404 0.950 . S
H430 C406 0.950 . S
H431 C407 0.949 . S
H432 C409 0.950 . S
H433 C411 0.950 . S
C434 C435 1.349 . S
C434 C436 1.327 . S
C434 H459 0.950 . S
C435 C434 1.349 . S
C435 C451 1.349 . S
C436 C434 1.327 . S
C436 C455 1.429 . S
C436 H460 0.950 . S
C437 C454 1.574 . S
C437 C456 1.368 . S
C437 H461 0.949 . S
H438 C442 0.949 . S
C439 C440 1.349 . S
C439 C441 1.327 . S
C439 H462 0.950 . S
C440 C439 1.349 . S
C440 C452 1.349 . S
C441 C439 1.327 . S
C441 C457 1.429 . S
C441 H463 0.950 . S
C442 H438 0.949 . S
C442 C450 1.574 . S
C442 C458 1.368 . S
H443 C451 0.950 . S
H444 C449 0.950 . S
H445 C450 0.949 . S
H446 C452 0.950 . S
H447 C453 0.950 . S
H448 C454 0.949 . S
C449 H444 0.950 . S
C449 C451 1.327 . S
C449 C455 1.429 . S
C450 C442 1.574 . S
C450 H445 0.949 . S
C450 C456 1.368 . S
C451 C435 1.349 . S
C451 H443 0.950 . S
C451 C449 1.327 . S
C452 C440 1.349 . S
C452 H446 0.950 . S
C452 C453 1.327 . S
C453 H447 0.950 . S
C453 C452 1.327 . S
C453 C457 1.429 . S
C454 C437 1.574 . S
C454 H448 0.949 . S
C454 C458 1.368 . S
C455 C436 1.429 . S
C455 C449 1.429 . S
C455 C456 1.523 . S
C456 C437 1.368 . S
C456 C450 1.368 . S
C456 C455 1.523 . S
C457 C441 1.429 . S
C457 C453 1.429 . S
C457 C458 1.523 . S
C458 C442 1.368 . S
C458 C454 1.368 . S
C458 C457 1.523 . S
H459 C434 0.950 . S
H460 C436 0.950 . S
H461 C437 0.949 . S
H462 C439 0.950 . S
H463 C441 0.950 . S
C464 C465 1.349 . S
C464 C466 1.327 . S
C464 H489 0.950 . S
C465 C464 1.349 . S
C465 C481 1.349 . S
C466 C464 1.327 . S
C466 C485 1.429 . S
C466 H490 0.950 . S
C467 C484 1.574 . S
C467 C486 1.368 1_545 S
C467 H491 0.949 . S
H468 C472 0.949 . S
C469 C470 1.349 . S
C469 C471 1.327 . S
C469 H492 0.950 . S
C470 C469 1.349 . S
C470 C482 1.349 . S
C471 C469 1.327 . S
C471 C487 1.429 . S
C471 H493 0.950 . S
C472 H468 0.949 . S
C472 C480 1.574 1_545 S
C472 C488 1.368 . S
H473 C481 0.950 . S
H474 C479 0.950 . S
H475 C480 0.949 . S
H476 C482 0.950 . S
H477 C483 0.950 . S
H478 C484 0.949 . S
C479 H474 0.950 . S
C479 C481 1.327 . S
C479 C485 1.429 . S
C480 C472 1.574 1_565 S
C480 H475 0.949 . S
C480 C486 1.368 . S
C481 C465 1.349 . S
C481 H473 0.950 . S
C481 C479 1.327 . S
C482 C470 1.349 . S
C482 H476 0.950 . S
C482 C483 1.327 . S
C483 H477 0.950 . S
C483 C482 1.327 . S
C483 C487 1.429 . S
C484 C467 1.574 . S
C484 H478 0.949 . S
C484 C488 1.368 . S
C485 C466 1.429 . S
C485 C479 1.429 . S
C485 C486 1.523 . S
C486 C467 1.368 1_565 S
C486 C480 1.368 . S
C486 C485 1.523 . S
C487 C471 1.429 . S
C487 C483 1.429 . S
C487 C488 1.523 . S
C488 C472 1.368 . S
C488 C484 1.368 . S
C488 C487 1.523 . S
H489 C464 0.950 . S
H490 C466 0.950 . S
H491 C467 0.949 . S
H492 C469 0.950 . S
H493 C471 0.950 . S
C494 C495 1.349 . S
C494 C496 1.327 . S
C494 H519 0.950 . S
C495 C494 1.349 . S
C495 C511 1.349 . S
C496 C494 1.327 . S
C496 C515 1.429 . S
C496 H520 0.950 . S
C497 C514 1.574 . S
C497 C516 1.368 . S
C497 H521 0.949 . S
H498 C502 0.949 . S
C499 C500 1.349 . S
C499 C501 1.327 . S
C499 H522 0.950 . S
C500 C499 1.349 . S
C500 C512 1.349 . S
C501 C499 1.327 . S
C501 C517 1.429 . S
C501 H523 0.950 . S
C502 H498 0.949 . S
C502 C510 1.574 . S
C502 C518 1.368 . S
H503 C511 0.950 . S
H504 C509 0.950 . S
H505 C510 0.949 . S
H506 C512 0.950 . S
H507 C513 0.950 . S
H508 C514 0.949 . S
C509 H504 0.950 . S
C509 C511 1.327 . S
C509 C515 1.429 . S
C510 C502 1.574 . S
C510 H505 0.949 . S
C510 C516 1.368 . S
C511 C495 1.349 . S
C511 H503 0.950 . S
C511 C509 1.327 . S
C512 C500 1.349 . S
C512 H506 0.950 . S
C512 C513 1.327 . S
C513 H507 0.950 . S
C513 C512 1.327 . S
C513 C517 1.429 . S
C514 C497 1.574 . S
C514 H508 0.949 . S
C514 C518 1.368 . S
C515 C496 1.429 . S
C515 C509 1.429 . S
C515 C516 1.523 . S
C516 C497 1.368 . S
C516 C510 1.368 . S
C516 C515 1.523 . S
C517 C501 1.429 . S
C517 C513 1.429 . S
C517 C518 1.523 . S
C518 C502 1.368 . S
C518 C514 1.368 . S
C518 C517 1.523 . S
H519 C494 0.950 . S
H520 C496 0.950 . S
H521 C497 0.949 . S
H522 C499 0.950 . S
H523 C501 0.950 . S
C524 C525 1.349 . S
C524 C526 1.327 . S
C524 H549 0.950 . S
C525 C524 1.349 . S
C525 C541 1.349 . S
C526 C524 1.327 . S
C526 C545 1.429 . S
C526 H550 0.950 . S
C527 C544 1.574 . S
C527 C546 1.368 . S
C527 H551 0.949 . S
H528 C532 0.949 . S
C529 C530 1.349 . S
C529 C531 1.327 . S
C529 H552 0.950 . S
C530 C529 1.349 . S
C530 C542 1.349 . S
C531 C529 1.327 . S
C531 C547 1.429 . S
C531 H553 0.950 . S
C532 H528 0.949 . S
C532 C540 1.574 1_554 S
C532 C548 1.368 . S
H533 C541 0.950 . S
H534 C539 0.950 . S
H535 C540 0.949 . S
H536 C542 0.950 . S
H537 C543 0.950 . S
H538 C544 0.949 . S
C539 H534 0.950 . S
C539 C541 1.327 . S
C539 C545 1.429 . S
C540 C532 1.574 1_556 S
C540 H535 0.949 . S
C540 C546 1.368 . S
C541 C525 1.349 . S
C541 H533 0.950 . S
C541 C539 1.327 . S
C542 C530 1.349 . S
C542 H536 0.950 . S
C542 C543 1.327 . S
C543 H537 0.950 . S
C543 C542 1.327 . S
C543 C547 1.429 . S
C544 C527 1.574 . S
C544 H538 0.949 . S
C544 C548 1.368 1_556 S
C545 C526 1.429 . S
C545 C539 1.429 . S
C545 C546 1.523 . S
C546 C527 1.368 . S
C546 C540 1.368 . S
C546 C545 1.523 . S
C547 C531 1.429 . S
C547 C543 1.429 . S
C547 C548 1.523 . S
C548 C532 1.368 . S
C548 C544 1.368 1_554 S
C548 C547 1.523 . S
H549 C524 0.950 . S
H550 C526 0.950 . S
H551 C527 0.949 . S
H552 C529 0.950 . S
H553 C531 0.950 . S
C554 C555 1.349 . S
C554 C556 1.327 . S
C554 H579 0.950 . S
C555 C554 1.349 . S
C555 C571 1.349 . S
C556 C554 1.327 . S
C556 C575 1.429 . S
C556 H580 0.950 . S
C557 C574 1.574 . S
C557 C576 1.368 1_556 S
C557 H581 0.941 1_556 S
H558 C562 0.949 . S
C559 C560 1.349 . S
C559 C561 1.327 . S
C559 H582 0.950 . S
C560 C559 1.349 . S
C560 C572 1.349 . S
C561 C559 1.327 . S
C561 C577 1.429 . S
C561 H583 0.950 . S
C562 H558 0.949 . S
C562 C570 1.574 . S
C562 C578 1.368 . S
H563 C571 0.950 . S
H564 C569 0.950 . S
H565 C570 0.949 1_554 S
H566 C572 0.950 . S
H567 C573 0.950 . S
H568 C574 0.949 . S
C569 H564 0.950 . S
C569 C571 1.327 . S
C569 C575 1.429 . S
C570 C562 1.574 . S
C570 H565 0.949 1_556 S
C570 C576 1.368 1_556 S
C571 C555 1.349 . S
C571 H563 0.950 . S
C571 C569 1.327 . S
C572 C560 1.349 . S
C572 H566 0.950 . S
C572 C573 1.327 . S
C573 H567 0.950 . S
C573 C572 1.327 . S
C573 C577 1.429 . S
C574 C557 1.574 . S
C574 H568 0.949 . S
C574 C578 1.368 . S
C575 C556 1.429 . S
C575 C569 1.429 . S
C575 C576 1.523 . S
C576 C557 1.368 1_554 S
C576 C570 1.368 1_554 S
C576 C575 1.523 . S
C577 C561 1.429 . S
C577 C573 1.429 . S
C577 C578 1.523 . S
C578 C562 1.368 . S
C578 C574 1.368 . S
C578 C577 1.523 . S
H579 C554 0.950 . S
H580 C556 0.950 . S
H581 C557 0.941 1_554 S
H582 C559 0.950 . S
H583 C561 0.950 . S
C584 C585 1.349 . S
C584 C586 1.327 . S
C584 H609 0.950 . S
C585 C584 1.349 . S
C585 C601 1.349 . S
C586 C584 1.327 . S
C586 C605 1.429 . S
C586 H610 0.950 . S
C587 C604 1.574 . S
C587 C606 1.368 . S
C587 H611 0.949 . S
H588 C592 0.949 . S
C589 C590 1.349 . S
C589 C591 1.327 . S
C589 H612 0.950 . S
C590 C589 1.349 . S
C590 C602 1.349 . S
C591 C589 1.327 . S
C591 C607 1.429 . S
C591 H613 0.950 . S
C592 H588 0.949 . S
C592 C600 1.574 . S
C592 C608 1.368 . S
H593 C601 0.950 . S
H594 C599 0.950 . S
H595 C600 0.949 . S
H596 C602 0.950 . S
H597 C603 0.950 . S
H598 C604 0.949 . S
C599 H594 0.950 . S
C599 C601 1.327 . S
C599 C605 1.429 . S
C600 C592 1.574 . S
C600 H595 0.949 . S
C600 C606 1.368 . S
C601 C585 1.349 . S
C601 H593 0.950 . S
C601 C599 1.327 . S
C602 C590 1.349 . S
C602 H596 0.950 . S
C602 C603 1.327 . S
C603 H597 0.950 . S
C603 C602 1.327 . S
C603 C607 1.429 . S
C604 C587 1.574 . S
C604 H598 0.949 . S
C604 C608 1.368 . S
C605 C586 1.429 . S
C605 C599 1.429 . S
C605 C606 1.523 . S
C606 C587 1.368 . S
C606 C600 1.368 . S
C606 C605 1.523 . S
C607 C591 1.429 . S
C607 C603 1.429 . S
C607 C608 1.523 . S
C608 C592 1.368 . S
C608 C604 1.368 . S
C608 C607 1.523 . S
H609 C584 0.950 . S
H610 C586 0.950 . S
H611 C587 0.949 . S
H612 C589 0.950 . S
H613 C591 0.950 . S
C614 C615 1.349 . S
C614 C616 1.327 . S
C614 H639 0.950 . S
C615 C614 1.349 . S
C615 C631 1.349 . S
C616 C614 1.327 . S
C616 C635 1.429 . S
C616 H640 0.950 . S
C617 C634 1.574 . S
C617 C636 1.368 . S
C617 H641 0.949 . S
H618 C622 0.949 . S
C619 C620 1.349 . S
C619 C621 1.327 . S
C619 H642 0.950 . S
C620 C619 1.349 . S
C620 C632 1.349 . S
C621 C619 1.327 . S
C621 C637 1.429 . S
C621 H643 0.950 . S
C622 H618 0.949 . S
C622 C630 1.574 . S
C622 C638 1.368 . S
H623 C631 0.950 . S
H624 C629 0.950 . S
H625 C630 0.949 . S
H626 C632 0.950 . S
H627 C633 0.950 . S
H628 C634 0.949 . S
C629 H624 0.950 . S
C629 C631 1.327 . S
C629 C635 1.429 . S
C630 C622 1.574 . S
C630 H625 0.949 . S
C630 C636 1.368 . S
C631 C615 1.349 . S
C631 H623 0.950 . S
C631 C629 1.327 . S
C632 C620 1.349 . S
C632 H626 0.950 . S
C632 C633 1.327 . S
C633 H627 0.950 . S
C633 C632 1.327 . S
C633 C637 1.429 . S
C634 C617 1.574 . S
C634 H628 0.949 . S
C634 C638 1.368 . S
C635 C616 1.429 . S
C635 C629 1.429 . S
C635 C636 1.523 . S
C636 C617 1.368 . S
C636 C630 1.368 . S
C636 C635 1.523 . S
C637 C621 1.429 . S
C637 C633 1.429 . S
C637 C638 1.523 . S
C638 C622 1.368 . S
C638 C634 1.368 . S
C638 C637 1.523 . S
H639 C614 0.950 . S
H640 C616 0.950 . S
H641 C617 0.949 . S
H642 C619 0.950 . S
H643 C621 0.950 . S
C644 C645 1.349 . S
C644 C646 1.327 . S
C644 H669 0.950 . S
C645 C644 1.349 . S
C645 C661 1.349 . S
C646 C644 1.327 . S
C646 C665 1.429 . S
C646 H670 0.950 . S
C647 C664 1.574 1_655 S
C647 C666 1.368 . S
C647 H671 0.949 . S
H648 C652 0.949 . S
C649 C650 1.349 . S
C649 C651 1.327 . S
C649 H672 0.950 . S
C650 C649 1.349 . S
C650 C662 1.349 . S
C651 C649 1.327 . S
C651 C667 1.429 . S
C651 H673 0.950 . S
C652 H648 0.949 . S
C652 C660 1.574 1_455 S
C652 C668 1.368 . S
H653 C661 0.950 . S
H654 C659 0.950 . S
H655 C660 0.949 . S
H656 C662 0.950 . S
H657 C663 0.950 . S
H658 C664 0.949 . S
C659 H654 0.950 . S
C659 C661 1.327 . S
C659 C665 1.429 . S
C660 C652 1.574 1_655 S
C660 H655 0.949 . S
C660 C666 1.368 . S
C661 C645 1.349 . S
C661 H653 0.950 . S
C661 C659 1.327 . S
C662 C650 1.349 . S
C662 H656 0.950 . S
C662 C663 1.327 . S
C663 H657 0.950 . S
C663 C662 1.327 . S
C663 C667 1.429 . S
C664 C647 1.574 1_455 S
C664 H658 0.949 . S
C664 C668 1.368 . S
C665 C646 1.429 . S
C665 C659 1.429 . S
C665 C666 1.523 . S
C666 C647 1.368 . S
C666 C660 1.368 . S
C666 C665 1.523 . S
C667 C651 1.429 . S
C667 C663 1.429 . S
C667 C668 1.523 . S
C668 C652 1.368 . S
C668 C664 1.368 . S
C668 C667 1.523 . S
H669 C644 0.950 . S
H670 C646 0.950 . S
H671 C647 0.949 . S
H672 C649 0.950 . S
H673 C651 0.950 . S
C674 C675 1.349 . S
C674 C676 1.327 . S
C674 H699 0.950 . S
C675 C674 1.349 . S
C675 C691 1.349 . S
C676 C674 1.327 . S
C676 C695 1.429 . S
C676 H700 0.950 . S
C677 C694 1.574 1_655 S
C677 C696 1.368 . S
C677 H701 0.949 . S
H678 C682 0.949 . S
C679 C680 1.349 . S
C679 C681 1.327 . S
C679 H702 0.950 . S
C680 C679 1.349 . S
C680 C692 1.349 . S
C681 C679 1.327 . S
C681 C697 1.429 . S
C681 H703 0.950 . S
C682 H678 0.949 . S
C682 C690 1.574 1_455 S
C682 C698 1.368 . S
H683 C691 0.950 . S
H684 C689 0.950 . S
H685 C690 0.949 . S
H686 C692 0.950 . S
H687 C693 0.950 . S
H688 C694 0.949 . S
C689 H684 0.950 . S
C689 C691 1.327 . S
C689 C695 1.429 . S
C690 C682 1.574 1_655 S
C690 H685 0.949 . S
C690 C696 1.368 . S
C691 C675 1.349 . S
C691 H683 0.950 . S
C691 C689 1.327 . S
C692 C680 1.349 . S
C692 H686 0.950 . S
C692 C693 1.327 . S
C693 H687 0.950 . S
C693 C692 1.327 . S
C693 C697 1.429 . S
C694 C677 1.574 1_455 S
C694 H688 0.949 . S
C694 C698 1.368 . S
C695 C676 1.429 . S
C695 C689 1.429 . S
C695 C696 1.523 . S
C696 C677 1.368 . S
C696 C690 1.368 . S
C696 C695 1.523 . S
C697 C681 1.429 . S
C697 C693 1.429 . S
C697 C698 1.523 . S
C698 C682 1.368 . S
C698 C694 1.368 . S
C698 C697 1.523 . S
H699 C674 0.950 . S
H700 C676 0.950 . S
H701 C677 0.949 . S
H702 C679 0.950 . S
H703 C681 0.950 . S
C704 C705 1.349 . S
C704 C706 1.327 . S
C704 H729 0.950 . S
C705 C704 1.349 . S
C705 C721 1.349 . S
C706 C704 1.327 . S
C706 C725 1.429 . S
C706 H730 0.950 . S
C707 C724 1.574 . S
C707 C726 1.368 . S
C707 H731 0.949 . S
H708 C712 0.949 . S
C709 C710 1.349 . S
C709 C711 1.327 . S
C709 H732 0.950 . S
C710 C709 1.349 . S
C710 C722 1.349 . S
C711 C709 1.327 . S
C711 C727 1.429 . S
C711 H733 0.950 . S
C712 H708 0.949 . S
C712 C720 1.574 . S
C712 C728 1.368 . S
H713 C721 0.950 . S
H714 C719 0.950 . S
H715 C720 0.949 . S
H716 C722 0.950 . S
H717 C723 0.950 . S
H718 C724 0.949 . S
C719 H714 0.950 . S
C719 C721 1.327 . S
C719 C725 1.429 . S
C720 C712 1.574 . S
C720 H715 0.949 . S
C720 C726 1.368 . S
C721 C705 1.349 . S
C721 H713 0.950 . S
C721 C719 1.327 . S
C722 C710 1.349 . S
C722 H716 0.950 . S
C722 C723 1.327 . S
C723 H717 0.950 . S
C723 C722 1.327 . S
C723 C727 1.429 . S
C724 C707 1.574 . S
C724 H718 0.949 . S
C724 C728 1.368 . S
C725 C706 1.429 . S
C725 C719 1.429 . S
C725 C726 1.523 . S
C726 C707 1.368 . S
C726 C720 1.368 . S
C726 C725 1.523 . S
C727 C711 1.429 . S
C727 C723 1.429 . S
C727 C728 1.523 . S
C728 C712 1.368 . S
C728 C724 1.368 . S
C728 C727 1.523 . S
H729 C704 0.950 . S
H730 C706 0.950 . S
H731 C707 0.949 . S
H732 C709 0.950 . S
H733 C711 0.950 . S
C734 C735 1.349 . S
C734 C736 1.327 . S
C734 H759 0.950 . S
C735 C734 1.349 . S
C735 C751 1.349 . S
C736 C734 1.327 . S
C736 C755 1.429 . S
C736 H760 0.950 . S
C737 C754 1.574 . S
C737 C756 1.368 1_565 S
C737 H761 0.949 . S
H738 C742 0.949 . S
C739 C740 1.349 . S
C739 C741 1.327 . S
C739 H762 0.950 . S
C740 C739 1.349 . S
C740 C752 1.349 . S
C741 C739 1.327 . S
C741 C757 1.429 . S
C741 H763 0.950 . S
C742 H738 0.949 . S
C742 C750 1.574 1_565 S
C742 C758 1.368 . S
H743 C751 0.950 . S
H744 C749 0.950 . S
H745 C750 0.949 . S
H746 C752 0.950 . S
H747 C753 0.950 . S
H748 C754 0.949 . S
C749 H744 0.950 . S
C749 C751 1.327 . S
C749 C755 1.429 . S
C750 C742 1.574 1_545 S
C750 H745 0.949 . S
C750 C756 1.368 . S
C751 C735 1.349 . S
C751 H743 0.950 . S
C751 C749 1.327 . S
C752 C740 1.349 . S
C752 H746 0.950 . S
C752 C753 1.327 . S
C753 H747 0.950 . S
C753 C752 1.327 . S
C753 C757 1.429 . S
C754 C737 1.574 . S
C754 H748 0.949 . S
C754 C758 1.368 . S
C755 C736 1.429 . S
C755 C749 1.429 . S
C755 C756 1.523 . S
C756 C737 1.368 1_545 S
C756 C750 1.368 . S
C756 C755 1.523 . S
C757 C741 1.429 . S
C757 C753 1.429 . S
C757 C758 1.523 . S
C758 C742 1.368 . S
C758 C754 1.368 . S
C758 C757 1.523 . S
H759 C734 0.950 . S
H760 C736 0.950 . S
H761 C737 0.949 . S
H762 C739 0.950 . S
H763 C741 0.950 . S
C764 C765 1.349 . S
C764 C766 1.327 . S
C764 H789 0.950 . S
C765 C764 1.349 . S
C765 C781 1.349 . S
C766 C764 1.327 . S
C766 C785 1.429 . S
C766 H790 0.950 . S
C767 C784 1.574 . S
C767 C786 1.368 . S
C767 H791 0.949 . S
H768 C772 0.949 . S
C769 C770 1.349 . S
C769 C771 1.327 . S
C769 H792 0.950 . S
C770 C769 1.349 . S
C770 C782 1.349 . S
C771 C769 1.327 . S
C771 C787 1.429 . S
C771 H793 0.950 . S
C772 H768 0.949 . S
C772 C780 1.574 . S
C772 C788 1.368 . S
H773 C781 0.950 . S
H774 C779 0.950 . S
H775 C780 0.949 . S
H776 C782 0.950 . S
H777 C783 0.950 . S
H778 C784 0.949 . S
C779 H774 0.950 . S
C779 C781 1.327 . S
C779 C785 1.429 . S
C780 C772 1.574 . S
C780 H775 0.949 . S
C780 C786 1.368 . S
C781 C765 1.349 . S
C781 H773 0.950 . S
C781 C779 1.327 . S
C782 C770 1.349 . S
C782 H776 0.950 . S
C782 C783 1.327 . S
C783 H777 0.950 . S
C783 C782 1.327 . S
C783 C787 1.429 . S
C784 C767 1.574 . S
C784 H778 0.949 . S
C784 C788 1.368 . S
C785 C766 1.429 . S
C785 C779 1.429 . S
C785 C786 1.523 . S
C786 C767 1.368 . S
C786 C780 1.368 . S
C786 C785 1.523 . S
C787 C771 1.429 . S
C787 C783 1.429 . S
C787 C788 1.523 . S
C788 C772 1.368 . S
C788 C784 1.368 . S
C788 C787 1.523 . S
H789 C764 0.950 . S
H790 C766 0.950 . S
H791 C767 0.949 . S
H792 C769 0.950 . S
H793 C771 0.950 . S
C794 C795 1.349 . S
C794 C796 1.327 . S
C794 H819 0.950 . S
C795 C794 1.349 . S
C795 C811 1.349 . S
C796 C794 1.327 . S
C796 C815 1.429 . S
C796 H820 0.950 . S
C797 C814 1.574 . S
C797 C816 1.368 . S
C797 H821 0.949 . S
H798 C802 0.949 . S
C799 C800 1.349 . S
C799 C801 1.327 . S
C799 H822 0.950 . S
C800 C799 1.349 . S
C800 C812 1.349 . S
C801 C799 1.327 . S
C801 C817 1.429 . S
C801 H823 0.950 . S
C802 H798 0.949 . S
C802 C810 1.574 . S
C802 C818 1.366 1_554 S
H803 C811 0.950 . S
H804 C809 0.950 . S
H805 C810 0.949 . S
H806 C812 0.950 . S
H807 C813 0.950 . S
H808 C814 0.949 1_556 S
C809 H804 0.950 . S
C809 C811 1.327 . S
C809 C815 1.429 . S
C810 C802 1.574 . S
C810 H805 0.949 . S
C810 C816 1.368 . S
C811 C795 1.349 . S
C811 H803 0.950 . S
C811 C809 1.327 . S
C812 C800 1.349 . S
C812 H806 0.950 . S
C812 C813 1.327 . S
C813 H807 0.950 . S
C813 C812 1.327 . S
C813 C817 1.429 . S
C814 C797 1.574 . S
C814 H808 0.949 1_554 S
C814 C818 1.368 1_554 S
C815 C796 1.429 . S
C815 C809 1.429 . S
C815 C816 1.523 . S
C816 C797 1.368 . S
C816 C810 1.368 . S
C816 C815 1.523 . S
C817 C801 1.429 . S
C817 C813 1.429 . S
C817 C818 1.527 . S
C818 C802 1.366 1_556 S
C818 C814 1.368 1_556 S
C818 C817 1.527 . S
H819 C794 0.950 . S
H820 C796 0.950 . S
H821 C797 0.949 . S
H822 C799 0.950 . S
H823 C801 0.950 . S
C824 C825 1.349 . S
C824 C826 1.327 . S
C824 H849 0.950 . S
C825 C824 1.349 . S
C825 C841 1.349 . S
C826 C824 1.327 . S
C826 C845 1.429 . S
C826 H850 0.950 . S
C827 C844 1.574 . S
C827 C846 1.367 1_554 S
C827 H851 0.949 1_554 S
H828 C832 0.949 . S
C829 C830 1.349 . S
C829 C831 1.327 . S
C829 H852 0.950 . S
C830 C829 1.349 . S
C830 C842 1.349 . S
C831 C829 1.327 . S
C831 C847 1.429 . S
C831 H853 0.950 . S
C832 H828 0.949 . S
C832 C840 1.574 . S
C832 C848 1.368 . S
H833 C841 0.950 . S
H834 C839 0.950 . S
H835 C840 0.949 . S
H836 C842 0.950 . S
H837 C843 0.950 . S
H838 C844 0.949 . S
C839 H834 0.950 . S
C839 C841 1.327 . S
C839 C845 1.429 . S
C840 C832 1.574 . S
C840 H835 0.949 . S
C840 C846 1.366 1_554 S
C841 C825 1.349 . S
C841 H833 0.950 . S
C841 C839 1.327 . S
C842 C830 1.349 . S
C842 H836 0.950 . S
C842 C843 1.327 . S
C843 H837 0.950 . S
C843 C842 1.327 . S
C843 C847 1.429 . S
C844 C827 1.574 . S
C844 H838 0.949 . S
C844 C848 1.368 . S
C845 C826 1.429 . S
C845 C839 1.429 . S
C845 C846 1.527 . S
C846 C827 1.367 1_556 S
C846 C840 1.366 1_556 S
C846 C845 1.527 . S
C847 C831 1.429 . S
C847 C843 1.429 . S
C847 C848 1.523 . S
C848 C832 1.368 . S
C848 C844 1.368 . S
C848 C847 1.523 . S
H849 C824 0.950 . S
H850 C826 0.950 . S
H851 C827 0.949 1_556 S
H852 C829 0.950 . S
H853 C831 0.950 . S
C854 C855 1.349 . S
C854 C856 1.327 . S
C854 H879 0.950 . S
C855 C854 1.349 . S
C855 C871 1.349 . S
C856 C854 1.327 . S
C856 C875 1.429 . S
C856 H880 0.950 . S
C857 C874 1.574 . S
C857 C876 1.368 . S
C857 H881 0.949 . S
H858 C862 0.949 . S
C859 C860 1.349 . S
C859 C861 1.327 . S
C859 H882 0.950 . S
C860 C859 1.349 . S
C860 C872 1.349 . S
C861 C859 1.327 . S
C861 C877 1.429 . S
C861 H883 0.950 . S
C862 H858 0.949 . S
C862 C870 1.574 . S
C862 C878 1.368 . S
H863 C871 0.950 . S
H864 C869 0.950 . S
H865 C870 0.949 . S
H866 C872 0.950 . S
H867 C873 0.950 . S
H868 C874 0.949 . S
C869 H864 0.950 . S
C869 C871 1.327 . S
C869 C875 1.429 . S
C870 C862 1.574 . S
C870 H865 0.949 . S
C870 C876 1.368 . S
C871 C855 1.349 . S
C871 H863 0.950 . S
C871 C869 1.327 . S
C872 C860 1.349 . S
C872 H866 0.950 . S
C872 C873 1.327 . S
C873 H867 0.950 . S
C873 C872 1.327 . S
C873 C877 1.429 . S
C874 C857 1.574 . S
C874 H868 0.949 . S
C874 C878 1.368 . S
C875 C856 1.429 . S
C875 C869 1.429 . S
C875 C876 1.523 . S
C876 C857 1.368 . S
C876 C870 1.368 . S
C876 C875 1.523 . S
C877 C861 1.429 . S
C877 C873 1.429 . S
C877 C878 1.523 . S
C878 C862 1.368 . S
C878 C874 1.368 . S
C878 C877 1.523 . S
H879 C854 0.950 . S
H880 C856 0.950 . S
H881 C857 0.949 . S
H882 C859 0.950 . S
H883 C861 0.950 . S
C884 C885 1.349 . S
C884 C886 1.327 . S
C884 H909 0.950 . S
C885 C884 1.349 . S
C885 C901 1.349 . S
C886 C884 1.327 . S
C886 C905 1.429 . S
C886 H910 0.950 . S
C887 C904 1.574 . S
C887 C906 1.368 . S
C887 H911 0.949 . S
H888 C892 0.949 . S
C889 C890 1.349 . S
C889 C891 1.327 . S
C889 H912 0.950 . S
C890 C889 1.349 . S
C890 C902 1.349 . S
C891 C889 1.327 . S
C891 C907 1.429 . S
C891 H913 0.950 . S
C892 H888 0.949 . S
C892 C900 1.574 . S
C892 C908 1.368 . S
H893 C901 0.950 . S
H894 C899 0.950 . S
H895 C900 0.949 . S
H896 C902 0.950 . S
H897 C903 0.950 . S
H898 C904 0.949 . S
C899 H894 0.950 . S
C899 C901 1.327 . S
C899 C905 1.429 . S
C900 C892 1.574 . S
C900 H895 0.949 . S
C900 C906 1.368 . S
C901 C885 1.349 . S
C901 H893 0.950 . S
C901 C899 1.327 . S
C902 C890 1.349 . S
C902 H896 0.950 . S
C902 C903 1.327 . S
C903 H897 0.950 . S
C903 C902 1.327 . S
C903 C907 1.429 . S
C904 C887 1.574 . S
C904 H898 0.949 . S
C904 C908 1.368 . S
C905 C886 1.429 . S
C905 C899 1.429 . S
C905 C906 1.523 . S
C906 C887 1.368 . S
C906 C900 1.368 . S
C906 C905 1.523 . S
C907 C891 1.429 . S
C907 C903 1.429 . S
C907 C908 1.523 . S
C908 C892 1.368 . S
C908 C904 1.368 . S
C908 C907 1.523 . S
H909 C884 0.950 . S
H910 C886 0.950 . S
H911 C887 0.949 . S
H912 C889 0.950 . S
H913 C891 0.950 . S
C914 C915 1.349 . S
C914 C916 1.327 . S
C914 H939 0.950 . S
C915 C914 1.349 . S
C915 C931 1.349 . S
C916 C914 1.327 . S
C916 C935 1.429 . S
C916 H940 0.950 . S
C917 C934 1.574 . S
C917 C936 1.368 1_655 S
C917 H941 0.949 . S
H918 C922 0.949 . S
C919 C920 1.349 . S
C919 C921 1.327 . S
C919 H942 0.950 . S
C920 C919 1.349 . S
C920 C932 1.349 . S
C921 C919 1.327 . S
C921 C937 1.429 . S
C921 H943 0.950 . S
C922 H918 0.949 . S
C922 C930 1.574 . S
C922 C938 1.368 1_455 S
H923 C931 0.950 . S
H924 C929 0.950 . S
H925 C930 0.949 . S
H926 C932 0.950 . S
H927 C933 0.950 . S
H928 C934 0.949 . S
C929 H924 0.950 . S
C929 C931 1.327 . S
C929 C935 1.429 . S
C930 C922 1.574 . S
C930 H925 0.949 . S
C930 C936 1.368 . S
C931 C915 1.349 . S
C931 H923 0.950 . S
C931 C929 1.327 . S
C932 C920 1.349 . S
C932 H926 0.950 . S
C932 C933 1.327 . S
C933 H927 0.950 . S
C933 C932 1.327 . S
C933 C937 1.429 . S
C934 C917 1.574 . S
C934 H928 0.949 . S
C934 C938 1.368 . S
C935 C916 1.429 . S
C935 C929 1.429 . S
C935 C936 1.523 . S
C936 C917 1.368 1_455 S
C936 C930 1.368 . S
C936 C935 1.523 . S
C937 C921 1.429 . S
C937 C933 1.429 . S
C937 C938 1.523 . S
C938 C922 1.368 1_655 S
C938 C934 1.368 . S
C938 C937 1.523 . S
H939 C914 0.950 . S
H940 C916 0.950 . S
H941 C917 0.949 . S
H942 C919 0.950 . S
H943 C921 0.950 . S
C944 C945 1.349 . S
C944 C946 1.327 . S
C944 H969 0.950 . S
C945 C944 1.349 . S
C945 C961 1.349 . S
C946 C944 1.327 . S
C946 C965 1.429 . S
C946 H970 0.950 . S
C947 C964 1.574 1_455 S
C947 C966 1.368 . S
C947 H971 0.949 . S
H948 C952 0.949 . S
C949 C950 1.349 . S
C949 C951 1.327 . S
C949 H972 0.950 . S
C950 C949 1.349 . S
C950 C962 1.349 . S
C951 C949 1.327 . S
C951 C967 1.429 . S
C951 H973 0.950 . S
C952 H948 0.949 . S
C952 C960 1.574 1_655 S
C952 C968 1.368 . S
H953 C961 0.950 . S
H954 C959 0.950 . S
H955 C960 0.949 . S
H956 C962 0.950 . S
H957 C963 0.950 . S
H958 C964 0.949 . S
C959 H954 0.950 . S
C959 C961 1.327 . S
C959 C965 1.429 . S
C960 C952 1.574 1_455 S
C960 H955 0.949 . S
C960 C966 1.368 . S
C961 C945 1.349 . S
C961 H953 0.950 . S
C961 C959 1.327 . S
C962 C950 1.349 . S
C962 H956 0.950 . S
C962 C963 1.327 . S
C963 H957 0.950 . S
C963 C962 1.327 . S
C963 C967 1.429 . S
C964 C947 1.574 1_655 S
C964 H958 0.949 . S
C964 C968 1.368 . S
C965 C946 1.429 . S
C965 C959 1.429 . S
C965 C966 1.523 . S
C966 C947 1.368 . S
C966 C960 1.368 . S
C966 C965 1.523 . S
C967 C951 1.429 . S
C967 C963 1.429 . S
C967 C968 1.523 . S
C968 C952 1.368 . S
C968 C964 1.368 . S
C968 C967 1.523 . S
H969 C944 0.950 . S
H970 C946 0.950 . S
H971 C947 0.949 . S
H972 C949 0.950 . S
H973 C951 0.950 . S
C974 C975 1.349 . S
C974 C976 1.327 . S
C974 H999 0.950 . S
C975 C974 1.349 . S
C975 C991 1.349 . S
C976 C974 1.327 . S
C976 C995 1.429 . S
C976 H1000 0.950 . S
C977 C994 1.574 . S
C977 C996 1.368 . S
C977 H1001 0.949 . S
H978 C982 0.949 . S
C979 C980 1.349 . S
C979 C981 1.327 . S
C979 H1002 0.950 . S
C980 C979 1.349 . S
C980 C992 1.349 . S
C981 C979 1.327 . S
C981 C997 1.429 . S
C981 H1003 0.950 . S
C982 H978 0.949 . S
C982 C990 1.574 . S
C982 C998 1.368 . S
H983 C991 0.950 . S
H984 C989 0.950 . S
H985 C990 0.949 . S
H986 C992 0.950 . S
H987 C993 0.950 . S
H988 C994 0.949 . S
C989 H984 0.950 . S
C989 C991 1.327 . S
C989 C995 1.429 . S
C990 C982 1.574 . S
C990 H985 0.949 . S
C990 C996 1.368 . S
C991 C975 1.349 . S
C991 H983 0.950 . S
C991 C989 1.327 . S
C992 C980 1.349 . S
C992 H986 0.950 . S
C992 C993 1.327 . S
C993 H987 0.950 . S
C993 C992 1.327 . S
C993 C997 1.429 . S
C994 C977 1.574 . S
C994 H988 0.949 . S
C994 C998 1.368 . S
C995 C976 1.429 . S
C995 C989 1.429 . S
C995 C996 1.523 . S
C996 C977 1.368 . S
C996 C990 1.368 . S
C996 C995 1.523 . S
C997 C981 1.429 . S
C997 C993 1.429 . S
C997 C998 1.523 . S
C998 C982 1.368 . S
C998 C994 1.368 . S
C998 C997 1.523 . S
H999 C974 0.950 . S
H1000 C976 0.950 . S
H1001 C977 0.949 . S
H1002 C979 0.950 . S
H1003 C981 0.950 . S
C1004 C1005 1.349 . S
C1004 C1006 1.327 . S
C1004 H1029 0.950 . S
C1005 C1004 1.349 . S
C1005 C1021 1.349 . S
C1006 C1004 1.327 . S
C1006 C1025 1.429 . S
C1006 H1030 0.950 . S
C1007 C1024 1.574 . S
C1007 C1026 1.368 . S
C1007 H1031 0.949 . S
H1008 C1012 0.949 . S
C1009 C1010 1.349 . S
C1009 C1011 1.327 . S
C1009 H1032 0.950 . S
C1010 C1009 1.349 . S
C1010 C1022 1.349 . S
C1011 C1009 1.327 . S
C1011 C1027 1.429 . S
C1011 H1033 0.950 . S
C1012 H1008 0.949 . S
C1012 C1020 1.574 . S
C1012 C1028 1.368 . S
H1013 C1021 0.950 . S
H1014 C1019 0.950 . S
H1015 C1020 0.949 . S
H1016 C1022 0.950 . S
H1017 C1023 0.950 . S
H1018 C1024 0.949 . S
C1019 H1014 0.950 . S
C1019 C1021 1.327 . S
C1019 C1025 1.429 . S
C1020 C1012 1.574 . S
C1020 H1015 0.949 . S
C1020 C1026 1.368 . S
C1021 C1005 1.349 . S
C1021 H1013 0.950 . S
C1021 C1019 1.327 . S
C1022 C1010 1.349 . S
C1022 H1016 0.950 . S
C1022 C1023 1.327 . S
C1023 H1017 0.950 . S
C1023 C1022 1.327 . S
C1023 C1027 1.429 . S
C1024 C1007 1.574 . S
C1024 H1018 0.949 . S
C1024 C1028 1.368 . S
C1025 C1006 1.429 . S
C1025 C1019 1.429 . S
C1025 C1026 1.523 . S
C1026 C1007 1.368 . S
C1026 C1020 1.368 . S
C1026 C1025 1.523 . S
C1027 C1011 1.429 . S
C1027 C1023 1.429 . S
C1027 C1028 1.523 . S
C1028 C1012 1.368 . S
C1028 C1024 1.368 . S
C1028 C1027 1.523 . S
H1029 C1004 0.950 . S
H1030 C1006 0.950 . S
H1031 C1007 0.949 . S
H1032 C1009 0.950 . S
H1033 C1011 0.950 . S
C1034 C1035 1.349 . S
C1034 C1036 1.327 . S
C1034 H1059 0.950 . S
C1035 C1034 1.349 . S
C1035 C1051 1.349 . S
C1036 C1034 1.327 . S
C1036 C1055 1.429 . S
C1036 H1060 0.950 . S
C1037 C1054 1.574 . S
C1037 C1056 1.368 1_565 S
C1037 H1061 0.949 . S
H1038 C1042 0.949 . S
C1039 C1040 1.349 . S
C1039 C1041 1.327 . S
C1039 H1062 0.950 . S
C1040 C1039 1.349 . S
C1040 C1052 1.349 . S
C1041 C1039 1.327 . S
C1041 C1057 1.429 . S
C1041 H1063 0.950 . S
C1042 H1038 0.949 . S
C1042 C1050 1.574 1_565 S
C1042 C1058 1.368 . S
H1043 C1051 0.950 . S
H1044 C1049 0.950 . S
H1045 C1050 0.949 . S
H1046 C1052 0.950 . S
H1047 C1053 0.950 . S
H1048 C1054 0.949 . S
C1049 H1044 0.950 . S
C1049 C1051 1.327 . S
C1049 C1055 1.429 . S
C1050 C1042 1.574 1_545 S
C1050 H1045 0.949 . S
C1050 C1056 1.368 . S
C1051 C1035 1.349 . S
C1051 H1043 0.950 . S
C1051 C1049 1.327 . S
C1052 C1040 1.349 . S
C1052 H1046 0.950 . S
C1052 C1053 1.327 . S
C1053 H1047 0.950 . S
C1053 C1052 1.327 . S
C1053 C1057 1.429 . S
C1054 C1037 1.574 . S
C1054 H1048 0.949 . S
C1054 C1058 1.368 . S
C1055 C1036 1.429 . S
C1055 C1049 1.429 . S
C1055 C1056 1.523 . S
C1056 C1037 1.368 1_545 S
C1056 C1050 1.368 . S
C1056 C1055 1.523 . S
C1057 C1041 1.429 . S
C1057 C1053 1.429 . S
C1057 C1058 1.523 . S
C1058 C1042 1.368 . S
C1058 C1054 1.368 . S
C1058 C1057 1.523 . S
H1059 C1034 0.950 . S
H1060 C1036 0.950 . S
H1061 C1037 0.949 . S
H1062 C1039 0.950 . S
H1063 C1041 0.950 . S
C1064 C1065 1.349 . S
C1064 C1066 1.327 . S
C1064 H1089 0.950 . S
C1065 C1064 1.349 . S
C1065 C1081 1.349 . S
C1066 C1064 1.327 . S
C1066 C1085 1.429 . S
C1066 H1090 0.950 . S
C1067 C1084 1.574 . S
C1067 C1086 1.368 . S
C1067 H1091 0.949 . S
H1068 C1072 0.949 . S
C1069 C1070 1.349 . S
C1069 C1071 1.327 . S
C1069 H1092 0.950 . S
C1070 C1069 1.349 . S
C1070 C1082 1.349 . S
C1071 C1069 1.327 . S
C1071 C1087 1.429 . S
C1071 H1093 0.950 . S
C1072 H1068 0.949 . S
C1072 C1080 1.574 . S
C1072 C1088 1.368 . S
H1073 C1081 0.950 . S
H1074 C1079 0.950 . S
H1075 C1080 0.949 . S
H1076 C1082 0.950 . S
H1077 C1083 0.950 . S
H1078 C1084 0.949 . S
C1079 H1074 0.950 . S
C1079 C1081 1.327 . S
C1079 C1085 1.429 . S
C1080 C1072 1.574 . S
C1080 H1075 0.949 . S
C1080 C1086 1.368 . S
C1081 C1065 1.349 . S
C1081 H1073 0.950 . S
C1081 C1079 1.327 . S
C1082 C1070 1.349 . S
C1082 H1076 0.950 . S
C1082 C1083 1.327 . S
C1083 H1077 0.950 . S
C1083 C1082 1.327 . S
C1083 C1087 1.429 . S
C1084 C1067 1.574 . S
C1084 H1078 0.949 . S
C1084 C1088 1.368 . S
C1085 C1066 1.429 . S
C1085 C1079 1.429 . S
C1085 C1086 1.523 . S
C1086 C1067 1.368 . S
C1086 C1080 1.368 . S
C1086 C1085 1.523 . S
C1087 C1071 1.429 . S
C1087 C1083 1.429 . S
C1087 C1088 1.523 . S
C1088 C1072 1.368 . S
C1088 C1084 1.368 . S
C1088 C1087 1.523 . S
H1089 C1064 0.950 . S
H1090 C1066 0.950 . S
H1091 C1067 0.949 . S
H1092 C1069 0.950 . S
H1093 C1071 0.950 . S
C1094 C1095 1.349 . S
C1094 C1096 1.327 . S
C1094 H1119 0.950 . S
C1095 C1094 1.349 . S
C1095 C1111 1.349 . S
C1096 C1094 1.327 . S
C1096 C1115 1.429 . S
C1096 H1120 0.950 . S
C1097 C1114 1.574 . S
C1097 C1116 1.368 . S
C1097 H1121 0.949 . S
H1098 C1102 0.949 . S
C1099 C1100 1.349 . S
C1099 C1101 1.327 . S
C1099 H1122 0.950 . S
C1100 C1099 1.349 . S
C1100 C1112 1.349 . S
C1101 C1099 1.327 . S
C1101 C1117 1.429 . S
C1101 H1123 0.950 . S
C1102 H1098 0.949 . S
C1102 C1110 1.574 . S
C1102 C1118 1.368 . S
H1103 C1111 0.950 . S
H1104 C1109 0.950 . S
H1105 C1110 0.949 . S
H1106 C1112 0.950 . S
H1107 C1113 0.950 . S
H1108 C1114 0.949 . S
C1109 H1104 0.950 . S
C1109 C1111 1.327 . S
C1109 C1115 1.429 . S
C1110 C1102 1.574 . S
C1110 H1105 0.949 . S
C1110 C1116 1.368 . S
C1111 C1095 1.349 . S
C1111 H1103 0.950 . S
C1111 C1109 1.327 . S
C1112 C1100 1.349 . S
C1112 H1106 0.950 . S
C1112 C1113 1.327 . S
C1113 H1107 0.950 . S
C1113 C1112 1.327 . S
C1113 C1117 1.429 . S
C1114 C1097 1.574 . S
C1114 H1108 0.949 . S
C1114 C1118 1.368 . S
C1115 C1096 1.429 . S
C1115 C1109 1.429 . S
C1115 C1116 1.523 . S
C1116 C1097 1.368 . S
C1116 C1110 1.368 . S
C1116 C1115 1.523 . S
C1117 C1101 1.429 . S
C1117 C1113 1.429 . S
C1117 C1118 1.523 . S
C1118 C1102 1.368 . S
C1118 C1114 1.368 . S
C1118 C1117 1.523 . S
H1119 C1094 0.950 . S
H1120 C1096 0.950 . S
H1121 C1097 0.949 . S
H1122 C1099 0.950 . S
H1123 C1101 0.950 . S
C1124 C1125 1.349 . S
C1124 C1126 1.327 . S
C1124 H1149 0.950 . S
C1125 C1124 1.349 . S
C1125 C1141 1.349 . S
C1126 C1124 1.327 . S
C1126 C1145 1.429 . S
C1126 H1150 0.950 . S
C1127 C1144 1.574 1_545 S
C1127 C1146 1.368 . S
C1127 H1151 0.949 . S
H1128 C1132 0.949 . S
C1129 C1130 1.349 . S
C1129 C1131 1.327 . S
C1129 H1152 0.950 . S
C1130 C1129 1.349 . S
C1130 C1142 1.349 . S
C1131 C1129 1.327 . S
C1131 C1147 1.429 . S
C1131 H1153 0.950 . S
C1132 H1128 0.949 . S
C1132 C1140 1.574 . S
C1132 C1148 1.368 1_545 S
H1133 C1141 0.950 . S
H1134 C1139 0.950 . S
H1135 C1140 0.949 . S
H1136 C1142 0.950 . S
H1137 C1143 0.950 . S
H1138 C1144 0.949 . S
C1139 H1134 0.950 . S
C1139 C1141 1.327 . S
C1139 C1145 1.429 . S
C1140 C1132 1.574 . S
C1140 H1135 0.949 . S
C1140 C1146 1.368 . S
C1141 C1125 1.349 . S
C1141 H1133 0.950 . S
C1141 C1139 1.327 . S
C1142 C1130 1.349 . S
C1142 H1136 0.950 . S
C1142 C1143 1.327 . S
C1143 H1137 0.950 . S
C1143 C1142 1.327 . S
C1143 C1147 1.429 . S
C1144 C1127 1.574 1_565 S
C1144 H1138 0.949 . S
C1144 C1148 1.368 . S
C1145 C1126 1.429 . S
C1145 C1139 1.429 . S
C1145 C1146 1.523 . S
C1146 C1127 1.368 . S
C1146 C1140 1.368 . S
C1146 C1145 1.523 . S
C1147 C1131 1.429 . S
C1147 C1143 1.429 . S
C1147 C1148 1.523 . S
C1148 C1132 1.368 1_565 S
C1148 C1144 1.368 . S
C1148 C1147 1.523 . S
H1149 C1124 0.950 . S
H1150 C1126 0.950 . S
H1151 C1127 0.949 . S
H1152 C1129 0.950 . S
H1153 C1131 0.950 . S
C1154 C1155 1.349 . S
C1154 C1156 1.327 . S
C1154 H1179 0.950 . S
C1155 C1154 1.349 . S
C1155 C1171 1.349 . S
C1156 C1154 1.327 . S
C1156 C1175 1.429 . S
C1156 H1180 0.950 . S
C1157 C1174 1.574 . S
C1157 C1176 1.368 . S
C1157 H1181 0.949 . S
H1158 C1162 0.949 . S
C1159 C1160 1.349 . S
C1159 C1161 1.327 . S
C1159 H1182 0.950 . S
C1160 C1159 1.349 . S
C1160 C1172 1.349 . S
C1161 C1159 1.327 . S
C1161 C1177 1.429 . S
C1161 H1183 0.950 . S
C1162 H1158 0.949 . S
C1162 C1170 1.574 . S
C1162 C1178 1.368 . S
H1163 C1171 0.950 . S
H1164 C1169 0.950 . S
H1165 C1170 0.949 . S
H1166 C1172 0.950 . S
H1167 C1173 0.950 . S
H1168 C1174 0.949 . S
C1169 H1164 0.950 . S
C1169 C1171 1.327 . S
C1169 C1175 1.429 . S
C1170 C1162 1.574 . S
C1170 H1165 0.949 . S
C1170 C1176 1.368 . S
C1171 C1155 1.349 . S
C1171 H1163 0.950 . S
C1171 C1169 1.327 . S
C1172 C1160 1.349 . S
C1172 H1166 0.950 . S
C1172 C1173 1.327 . S
C1173 H1167 0.950 . S
C1173 C1172 1.327 . S
C1173 C1177 1.429 . S
C1174 C1157 1.574 . S
C1174 H1168 0.949 . S
C1174 C1178 1.368 . S
C1175 C1156 1.429 . S
C1175 C1169 1.429 . S
C1175 C1176 1.523 . S
C1176 C1157 1.368 . S
C1176 C1170 1.368 . S
C1176 C1175 1.523 . S
C1177 C1161 1.429 . S
C1177 C1173 1.429 . S
C1177 C1178 1.523 . S
C1178 C1162 1.368 . S
C1178 C1174 1.368 . S
C1178 C1177 1.523 . S
H1179 C1154 0.950 . S
H1180 C1156 0.950 . S
H1181 C1157 0.949 . S
H1182 C1159 0.950 . S
H1183 C1161 0.950 . S
C225 C9 1.498 . S
C230 C191 1.488 . S
C255 C23 1.498 . S
C260 C135 1.487 . S
C285 C205 1.064 . S
C290 C37 1.068 . S
C315 C51 1.068 . S
C320 C219 1.064 . S
C345 C65 1.498 . S
C350 C93 1.487 . S
C375 C149 1.498 . S
C380 C79 1.488 . S
C405 C163 1.068 . S
C410 C107 1.064 . S
C435 C121 1.064 . S
C440 C177 1.068 . S
C465 C35 1.391 . S
C470 C7 1.429 . S
C495 C21 1.429 . S
C500 C49 1.391 . S
C525 C174 1.346 . S
C530 C6 1.404 . S
C555 C20 1.405 . S
C560 C160 1.346 . S
C585 C62 1.405 . S
C590 C34 1.346 . S
C615 C146 1.405 . S
C620 C48 1.346 . S
C645 C22 2.501 . S
C650 C8 2.501 . S
C675 C50 1.506 . S
C680 C36 1.506 . S
C705 C148 2.501 . S
C710 C64 2.501 . S
C735 C104 1.754 . S
C740 C78 1.829 . S
C765 C92 1.829 . S
C770 C118 1.754 . S
C795 C217 1.678 . S
C800 C76 1.719 . S
C825 C90 1.719 . S
C830 C203 1.678 . S
C855 C132 1.719 . S
C860 C105 1.678 . S
C885 C119 1.678 . S
C890 C188 1.719 . S
C915 C91 0.853 . S
C920 C77 0.853 . S
C945 C120 1.885 . S
C950 C106 1.885 . S
C975 C133 0.853 . S
C980 C189 0.853 . S
C1005 C147 1.429 . S
C1010 C161 1.391 . S
C1035 C175 1.391 . S
C1040 C63 1.429 . S
C1065 C176 1.506 . S
C1070 C162 1.506 . S
C1095 C202 1.754 . S
C1100 C190 1.829 . S
C1125 C134 1.829 . S
C1130 C216 1.754 . S
C1155 C218 1.885 . S
C1160 C204 1.885 . S
