# Generated by pormake.
# Topology wgu, (5)-cn, num edge types: 1
# Building blocks:
#     Node 0, Type 0, BuildingBlock: BEQFEK_clean_sbu_0, # of connection points: 5
#     Node 1, Type 0, BuildingBlock: BEQFEK_clean_sbu_0, # of connection points: 5
#     Node 2, Type 0, BuildingBlock: BEQFEK_clean_sbu_0, # of connection points: 5
#     Node 3, Type 0, BuildingBlock: BEQFEK_clean_sbu_0, # of connection points: 5
#     Node 4, Type 0, BuildingBlock: BEQFEK_clean_sbu_0, # of connection points: 5
#     Node 5, Type 0, BuildingBlock: BEQFEK_clean_sbu_0, # of connection points: 5
#     Node 6, Type 0, BuildingBlock: BEQFEK_clean_sbu_0, # of connection points: 5
#     Node 7, Type 0, BuildingBlock: BEQFEK_clean_sbu_0, # of connection points: 5
#     Edge 8, Type (0, 0), BuildingBlock: ZUJKAS_clean_linker_0, # of connection points: 2
#     Edge 9, Type (0, 0), BuildingBlock: ZUJKAS_clean_linker_0, # of connection points: 2
#     Edge 10, Type (0, 0), BuildingBlock: ZUJKAS_clean_linker_0, # of connection points: 2
#     Edge 11, Type (0, 0), BuildingBlock: ZUJKAS_clean_linker_0, # of connection points: 2
#     Edge 12, Type (0, 0), BuildingBlock: ZUJKAS_clean_linker_0, # of connection points: 2
#     Edge 13, Type (0, 0), BuildingBlock: ZUJKAS_clean_linker_0, # of connection points: 2
#     Edge 14, Type (0, 0), BuildingBlock: ZUJKAS_clean_linker_0, # of connection points: 2
#     Edge 15, Type (0, 0), BuildingBlock: ZUJKAS_clean_linker_0, # of connection points: 2
#     Edge 16, Type (0, 0), BuildingBlock: ZUJKAS_clean_linker_0, # of connection points: 2
#     Edge 17, Type (0, 0), BuildingBlock: ZUJKAS_clean_linker_0, # of connection points: 2
#     Edge 18, Type (0, 0), BuildingBlock: ZUJKAS_clean_linker_0, # of connection points: 2
#     Edge 19, Type (0, 0), BuildingBlock: ZUJKAS_clean_linker_0, # of connection points: 2
#     Edge 20, Type (0, 0), BuildingBlock: ZUJKAS_clean_linker_0, # of connection points: 2
#     Edge 21, Type (0, 0), BuildingBlock: ZUJKAS_clean_linker_0, # of connection points: 2
#     Edge 22, Type (0, 0), BuildingBlock: ZUJKAS_clean_linker_0, # of connection points: 2
#     Edge 23, Type (0, 0), BuildingBlock: ZUJKAS_clean_linker_0, # of connection points: 2
#     Edge 24, Type (0, 0), BuildingBlock: ZUJKAS_clean_linker_0, # of connection points: 2
#     Edge 25, Type (0, 0), BuildingBlock: ZUJKAS_clean_linker_0, # of connection points: 2
#     Edge 26, Type (0, 0), BuildingBlock: ZUJKAS_clean_linker_0, # of connection points: 2
#     Edge 27, Type (0, 0), BuildingBlock: ZUJKAS_clean_linker_0, # of connection points: 2
# Relax obj value: 0.410
# Max RMSD: 0.220
# Mean RMSD: 0.220
data_MOF--net-wgu--node1-BEQFEK_clean_sbu_0--edge1-ZUJKAS_clean_linker_0
_symmetry_space_group_name_H-M    P1
_symmetry_Int_Tables_number       1
_symmetry_cell_setting            triclinic
loop_
_symmetry_equiv_pos_as_xyz
'x, y, z'
_cell_length_a     41.063478
_cell_length_b     41.01065
_cell_length_c     36.919634
_cell_angle_alpha  90.031354
_cell_angle_beta   90.176582
_cell_angle_gamma 89.969647
loop_
_atom_site_label
_atom_site_type_symbol
_atom_site_fract_x
_atom_site_fract_y
_atom_site_fract_z
_atom_type_partial_charge
Co0 Co 0.30387 0.37513 0.02799 0.0
Co1 Co 0.35334 0.31712 0.0286 0.0
C2 C 0.30611 0.32726 0.96697 0.0
O3 O 0.29326 0.35205 0.98203 0.0
O4 O 0.32966 0.31215 0.98191 0.0
C5 C 0.2418 0.40826 0.02495 0.0
O6 O 0.23124 0.38135 1.00959 0.0
C7 C 0.37119 0.24848 0.0258 0.0
C8 C 0.41857 0.24718 0.05427 0.0
C9 C 0.39545 0.22748 0.03775 0.0
N10 N 0.3796 0.27909 0.03475 0.0
N11 N 0.40819 0.27826 0.05126 0.0
C12 C 0.3385 0.23944 1.01071 0.0
H13 H 0.32035 0.25872 1.01666 0.0
H14 H 0.3299 0.21602 1.02228 0.0
H15 H 0.34044 0.23664 0.9809 0.0
C16 C 0.28665 0.3466 0.09938 0.0
N17 N 0.30357 0.3463 0.06816 0.0
N18 N 0.32367 0.32131 0.06822 0.0
C19 C 0.31966 0.30445 0.09931 0.0
C20 C 0.29612 0.31998 0.12024 0.0
C21 C 0.26403 0.37354 0.11016 0.0
H22 H 0.27456 0.39739 0.10235 0.0
H23 H 0.24053 0.37049 0.09563 0.0
H24 H 0.25948 0.37365 0.13976 0.0
O25 O 0.3469 0.39663 0.0245 0.0
O26 O 0.38257 0.35594 0.0263 0.0
H27 H 0.36354 0.27817 0.1108 0.0
H28 H 0.32789 0.26162 0.13293 0.0
C29 C 0.33709 0.27331 0.10795 0.0
H30 H 0.33353 0.25585 0.08548 0.0
H31 H 0.42002 0.29876 0.06167 0.0
O32 O 0.27143 0.41024 0.03477 0.0
C33 C 0.37618 0.38635 0.0245 0.0
Co34 Co 0.63077 0.30426 0.52275 0.0
Co35 Co 0.68801 0.35424 0.52348 0.0
C36 C 0.67894 0.30556 0.46266 0.0
O37 O 0.65396 0.29287 0.47732 0.0
O38 O 0.6937 0.32934 0.47759 0.0
C39 C 0.59819 0.2419 0.52196 0.0
O40 O 0.62562 0.23086 0.50842 0.0
C41 C 0.75676 0.36802 0.52576 0.0
C42 C 0.75969 0.41948 0.54309 0.0
C43 C 0.77848 0.39252 0.53453 0.0
N44 N 0.72643 0.37969 0.52905 0.0
N45 N 0.72822 0.41065 0.53892 0.0
C46 C 0.7645 0.33366 0.51494 0.0
H47 H 0.74451 0.31703 0.52307 0.0
H48 H 0.78781 0.32529 0.52698 0.0
H49 H 0.76685 0.33259 0.48503 0.0
C50 C 0.65966 0.28695 0.59437 0.0
N51 N 0.65941 0.30424 0.5633 0.0
N52 N 0.68317 0.32576 0.56417 0.0
C53 C 0.69909 0.32304 0.59612 0.0
C54 C 0.68485 0.29821 0.6162 0.0
C55 C 0.63489 0.26165 0.60394 0.0
H56 H 0.61011 0.27111 0.5982 0.0
H57 H 0.63889 0.23971 0.58695 0.0
H58 H 0.63645 0.25463 0.63291 0.0
O59 O 0.60928 0.34767 0.51826 0.0
O60 O 0.64969 0.38362 0.51971 0.0
H61 H 0.72314 0.36928 0.60068 0.0
H62 H 0.73416 0.34068 0.63583 0.0
C63 C 0.72792 0.34326 0.60679 0.0
H64 H 0.74931 0.33517 0.59097 0.0
H65 H 0.70802 0.42542 0.54392 0.0
O66 O 0.59568 0.27196 0.52989 0.0
C67 C 0.61939 0.37706 0.51773 0.0
Co68 Co 0.70781 0.63413 0.02704 0.0
Co69 Co 0.65842 0.69208 0.02665 0.0
C70 C 0.70646 0.68183 0.96601 0.0
O71 O 0.71916 0.65712 0.98143 0.0
O72 O 0.68269 0.69694 0.98039 0.0
C73 C 0.77011 0.60116 0.02764 0.0
O74 O 0.78187 0.62883 1.01542 0.0
C75 C 0.64159 0.76085 0.02518 0.0
C76 C 0.59339 0.7624 0.05155 0.0
C77 C 0.61765 0.782 0.03735 0.0
N78 N 0.6323 0.73021 0.03255 0.0
N79 N 0.60319 0.73118 0.04773 0.0
C80 C 0.67291 0.76921 1.00664 0.0
H81 H 0.69339 0.75589 1.01959 0.0
H82 H 0.67786 0.79576 1.00655 0.0
H83 H 0.6714 0.76097 0.9781 0.0
C84 C 0.72463 0.66285 0.0987 0.0
N85 N 0.70787 0.66296 0.06724 0.0
N86 N 0.68772 0.68792 0.06691 0.0
C87 C 0.6915 0.7049 0.09802 0.0
C88 C 0.71498 0.68952 0.1193 0.0
C89 C 0.74738 0.63615 0.10996 0.0
H90 H 0.73727 0.61219 0.1018 0.0
H91 H 0.77108 0.63955 0.09612 0.0
H92 H 0.75147 0.63609 0.13967 0.0
O93 O 0.66473 0.61275 1.0228 0.0
O94 O 0.62905 0.65341 1.02411 0.0
H95 H 0.64745 0.73159 0.10711 0.0
H96 H 0.68205 0.74715 0.1322 0.0
C97 C 0.67406 0.73609 0.10631 0.0
H98 H 0.67911 0.75395 0.08465 0.0
H99 H 0.59057 0.71065 0.0567 0.0
O100 O 0.73986 0.59884 0.0343 0.0
C101 C 0.63545 0.62301 1.02245 0.0
Co102 Co 0.36942 0.70885 0.51952 0.0
Co103 Co 0.31294 0.65784 0.52036 0.0
C104 C 0.3221 0.70587 0.45866 0.0
O105 O 0.3466 0.71935 0.47361 0.0
O106 O 0.30768 0.68195 0.47367 0.0
C107 C 0.4179 0.757 0.50269 0.0
O108 O 0.40903 0.75147 0.46903 0.0
C109 C 0.24402 0.6434 0.52644 0.0
C110 C 0.24281 0.59009 0.53497 0.0
C111 C 0.22315 0.61747 0.5325 0.0
N112 N 0.27468 0.63208 0.52601 0.0
N113 N 0.27386 0.60015 0.53092 0.0
C114 C 0.23491 0.6782 0.51915 0.0
H115 H 0.25579 0.692 0.50812 0.0
H116 H 0.22724 0.69026 0.54458 0.0
H117 H 0.21408 0.67921 0.49994 0.0
C118 C 0.33917 0.72758 0.58933 0.0
N119 N 0.34008 0.7093 0.559 0.0
N120 N 0.31714 0.68696 0.5605 0.0
C121 C 0.30144 0.68981 0.59245 0.0
C122 C 0.31458 0.7159 0.61153 0.0
C123 C 0.36126 0.75589 0.59647 0.0
H124 H 0.38592 0.74663 0.60327 0.0
H125 H 0.36325 0.77106 0.57171 0.0
H126 H 0.35225 0.77119 0.61912 0.0
O127 O 0.39147 0.66554 0.51632 0.0
O128 O 0.35161 0.62898 0.51785 0.0
H129 H 0.28198 0.64117 0.59557 0.0
H130 H 0.27836 0.6646 0.63675 0.0
C131 C 0.27722 0.66578 0.60673 0.0
H132 H 0.25232 0.67356 0.59904 0.0
H133 H 0.29448 0.58528 0.53178 0.0
O134 O 0.40397 0.74157 0.52814 0.0
C135 C 0.38181 0.63598 0.51623 0.0
Co136 Co 0.79631 0.13569 0.06115 0.0
Co137 Co 0.84756 0.1919 0.06062 0.0
C138 C 0.79971 0.18245 0.12236 0.0
O139 O 0.78614 0.15808 0.10726 0.0
O140 O 0.82358 0.19693 0.10741 0.0
C141 C 0.73507 0.10124 0.06611 0.0
O142 O 0.72535 0.12653 0.08508 0.0
C143 C 0.8617 0.26099 0.05489 0.0
C144 C 0.91505 0.26256 0.0475 0.0
C145 C 0.88758 0.2821 0.04958 0.0
N146 N 0.87316 0.23034 0.05527 0.0
N147 N 0.90511 0.23137 0.051 0.0
C148 C 0.8268 0.26982 0.06163 0.0
H149 H 0.81324 0.24896 0.07313 0.0
H150 H 0.81481 0.27673 0.03585 0.0
H151 H 0.82538 0.29106 0.08022 0.0
C152 C 0.7777 0.16652 0.99122 0.0
N153 N 0.79584 0.16528 1.02169 0.0
N154 N 0.81849 0.18793 1.02031 0.0
C155 C 0.81607 0.20365 0.98827 0.0
C156 C 0.78988 0.19093 0.96898 0.0
C157 C 0.74885 0.14513 0.9842 0.0
H158 H 0.73264 0.14556 1.00813 0.0
H159 H 0.73478 0.15319 0.96014 0.0
H160 H 0.75722 0.11966 0.98014 0.0
O161 O 0.83958 0.11353 0.06416 0.0
O162 O 0.87641 0.15317 0.06297 0.0
H163 H 0.84207 0.22613 0.94415 0.0
H164 H 0.83338 0.2525 0.98161 0.0
C165 C 0.84067 0.22738 0.97414 0.0
H166 H 0.86506 0.22215 0.98565 0.0
H167 H 0.92009 0.21081 0.05034 0.0
O168 O 0.76377 0.10081 0.05331 0.0
C169 C 0.86919 0.12297 0.06436 0.0
Co170 Co 0.87638 0.80274 0.56556 0.0
Co171 Co 0.8185 0.85212 0.56601 0.0
C172 C 0.82917 0.80433 0.62694 0.0
O173 O 0.85374 0.79159 0.61143 0.0
O174 O 0.81399 0.82812 0.61255 0.0
C175 C 0.90818 0.73996 0.56443 0.0
O176 O 0.88022 0.72864 0.57618 0.0
C177 C 0.75004 0.87 0.56973 0.0
C178 C 0.74815 0.91689 0.54038 0.0
C179 C 0.72883 0.89395 0.55756 0.0
N180 N 0.78046 0.8784 0.56032 0.0
N181 N 0.77929 0.90674 0.54332 0.0
C182 C 0.74122 0.83742 0.58524 0.0
H183 H 0.76027 0.81912 0.57894 0.0
H184 H 0.71755 0.82879 0.57428 0.0
H185 H 0.73907 0.83965 0.61508 0.0
C186 C 0.84725 0.78591 0.49405 0.0
N187 N 0.8473 0.80263 0.5255 0.0
N188 N 0.82223 0.82263 0.52601 0.0
C189 C 0.80495 0.81868 0.49512 0.0
C190 C 0.82029 0.79533 0.47371 0.0
C191 C 0.8741 0.76355 0.48244 0.0
H192 H 0.89795 0.77364 0.49098 0.0
H193 H 0.87079 0.73948 0.49561 0.0
H194 H 0.87428 0.76015 0.45263 0.0
O195 O 0.89791 0.84579 0.56945 0.0
O196 O 0.85726 0.88148 0.56812 0.0
H197 H 0.77825 0.86242 0.48417 0.0
H198 H 0.76154 0.82658 0.46231 0.0
C199 C 0.77359 0.83592 0.4871 0.0
H200 H 0.75659 0.83229 0.50989 0.0
H201 H 0.79956 0.91845 0.5324 0.0
O202 O 0.91124 0.77029 0.5583 0.0
C203 C 0.88764 0.8751 0.56969 0.0
Co204 Co 0.20201 0.8761 0.05778 0.0
Co205 Co 0.15293 0.81787 0.0557 0.0
C206 C 0.19994 0.82866 0.11829 0.0
O207 O 0.21292 0.8535 0.10363 0.0
O208 O 0.17658 0.81364 0.10285 0.0
C209 C 0.26211 0.91225 0.06329 0.0
O210 O 0.27305 0.88619 0.08007 0.0
C211 C 0.14225 0.74809 0.04932 0.0
C212 C 0.08927 0.74404 0.03979 0.0
C213 C 0.11757 0.72579 0.04275 0.0
N214 N 0.12932 0.77818 0.04951 0.0
N215 N 0.0976 0.77564 0.044 0.0
C216 C 0.17737 0.74086 0.05718 0.0
H217 H 0.18945 0.76191 0.07028 0.0
H218 H 0.19046 0.73571 0.03162 0.0
H219 H 0.17946 0.719 0.07476 0.0
C220 C 0.22201 0.84687 0.98748 0.0
N221 N 0.20376 0.84709 1.01779 0.0
N222 N 0.18221 0.82338 1.01601 0.0
C223 C 0.18561 0.80783 0.98399 0.0
C224 C 0.21121 0.82185 0.96514 0.0
C225 C 0.2495 0.86993 0.98055 0.0
H226 H 0.26692 0.86883 1.00352 0.0
H227 H 0.26261 0.86398 0.95518 0.0
H228 H 0.23988 0.89518 0.97898 0.0
O229 O 0.15786 0.89623 0.06076 0.0
O230 O 0.12239 0.8554 0.05793 0.0
H231 H 0.13765 0.78691 0.98022 0.0
H232 H 0.16146 0.78383 0.93937 0.0
C233 C 0.16244 0.78282 0.9694 0.0
H234 H 0.17086 0.75814 0.97719 0.0
H235 H 0.08168 0.79546 0.04286 0.0
O236 O 0.23308 0.91252 0.05124 0.0
C237 C 0.12859 0.88581 0.06019 0.0
Co238 Co 0.13731 0.206 0.56551 0.0
Co239 Co 0.19462 0.15575 0.56576 0.0
C240 C 0.18546 0.20417 0.62634 0.0
O241 O 0.16084 0.21703 0.61094 0.0
O242 O 0.20025 0.18015 0.61199 0.0
C243 C 0.09099 0.25608 0.583 0.0
O244 O 0.10127 0.25144 0.61633 0.0
C245 C 0.26314 0.13918 0.56622 0.0
C246 C 0.26458 0.08962 0.54283 0.0
C247 C 0.2842 0.11471 0.55533 0.0
N248 N 0.23249 0.12934 0.55995 0.0
N249 N 0.23339 0.09947 0.54649 0.0
C250 C 0.27162 0.17154 0.58261 0.0
H251 H 0.25583 0.1909 0.57103 0.0
H252 H 0.29759 0.17793 0.57884 0.0
H253 H 0.2668 0.17047 0.61211 0.0
C254 C 0.16573 0.22241 0.49428 0.0
N255 N 0.16593 0.20542 0.52548 0.0
N256 N 0.19053 0.18486 0.52541 0.0
C257 C 0.20713 0.18847 0.4941 0.0
C258 C 0.19194 0.21243 0.47326 0.0
C259 C 0.13923 0.24573 0.48385 0.0
H260 H 0.1152 0.23442 0.48924 0.0
H261 H 0.14122 0.26802 0.50076 0.0
H262 H 0.14036 0.25251 0.45482 0.0
O263 O 0.11523 0.16321 0.56981 0.0
O264 O 0.15549 0.127 0.56873 0.0
H265 H 0.23312 0.14376 0.4861 0.0
H266 H 0.24778 0.17707 0.45845 0.0
C267 C 0.23778 0.17038 0.48522 0.0
H268 H 0.25653 0.1763 0.50573 0.0
H269 H 0.21282 0.08625 0.5387 0.0
O270 O 0.10322 0.23934 0.55747 0.0
C271 C 0.12519 0.13377 0.57035 0.0
H272 H 0.32583 0.92 0.0841 0.0
H273 H 0.35856 0.96998 0.08104 0.0
H274 H 0.27796 0.02054 0.03138 0.0
H275 H 0.24515 0.97097 0.0341 0.0
H276 H 0.3712 0.01394 1.01406 0.0
H277 H 0.30492 0.07103 0.12888 0.0
H278 H 0.30616 0.02744 0.12185 0.0
H279 H 0.27987 0.05242 0.09457 0.0
C280 C 0.31515 0.94169 0.0723 0.0
C281 C 0.2828 0.94158 0.05959 0.0
C282 C 0.3339 0.97014 0.07052 0.0
C283 C 0.32048 0.99883 0.05627 0.0
C284 C 0.28858 0.99858 0.0427 0.0
H285 H 0.3763 0.18589 0.98398 0.0
H286 H 0.365 0.1276 0.98982 0.0
C287 C 0.2699 0.97022 0.04428 0.0
C288 C 0.33908 0.02962 0.05663 0.0
H289 H 0.3384 0.10578 0.09359 0.0
C290 C 0.36443 0.03395 0.03173 0.0
C291 C 0.33038 0.05538 0.08008 0.0
C292 C 0.30402 0.05143 0.10812 0.0
C293 C 0.38031 0.06415 0.02849 0.0
C294 C 0.37027 0.09051 0.05052 0.0
C295 C 0.34602 0.08556 0.07665 0.0
C296 C 0.38236 0.12416 0.04513 0.0
C297 C 0.40733 0.06772 1.00122 0.0
C298 C 0.39618 0.14151 0.07413 0.0
C299 C 0.40231 0.17491 0.07094 0.0
C300 C 0.3942 0.1915 0.03889 0.0
C301 C 0.38217 0.17375 1.00921 0.0
C302 C 0.37613 0.14037 1.01236 0.0
H303 H 0.4188 0.04383 0.99501 0.0
H304 H 0.39713 0.07764 0.97562 0.0
H305 H 0.4264 0.08476 1.01112 0.0
H306 H 0.40099 0.12946 0.09971 0.0
H307 H 0.41165 0.18806 0.09421 0.0
H308 H 0.0551 0.29085 0.63191 0.0
H309 H 0.00603 0.32295 0.6199 0.0
H310 H 0.01616 0.30475 0.50546 0.0
H311 H 0.06506 0.27232 0.51713 0.0
H312 H 0.99147 0.37845 0.57276 0.0
H313 H 0.92731 0.26387 0.53434 0.0
H314 H 0.96596 0.26379 0.55771 0.0
H315 H 0.9642 0.27248 0.51008 0.0
C316 C 0.04715 0.29398 0.60414 0.0
C317 C 0.06365 0.27858 0.57553 0.0
C318 C 0.0192 0.31246 0.59733 0.0
C319 C 0.00735 0.31581 0.56188 0.0
C320 C 0.02478 0.30206 0.53306 0.0
H321 H 0.82862 0.41787 0.49533 0.0
H322 H 0.88677 0.40372 0.50146 0.0
C323 C 0.05267 0.28352 0.53981 0.0
C324 C 0.9752 0.33098 0.55556 0.0
H325 H 0.89702 0.31239 0.53198 0.0
C326 C 0.97082 0.36418 0.56354 0.0
C327 C 0.94836 0.31207 0.54388 0.0
C328 C 0.95144 0.27602 0.53624 0.0
C329 C 0.94002 0.37891 0.56041 0.0
C330 C 0.91325 0.35986 0.54905 0.0
C331 C 0.91778 0.32686 0.54054 0.0
C332 C 0.87968 0.3727 0.5482 0.0
C333 C 0.93593 0.41433 0.57034 0.0
C334 C 0.85686 0.36033 0.57277 0.0
C335 C 0.82403 0.36829 0.56925 0.0
C336 C 0.81354 0.38856 0.54099 0.0
C337 C 0.83644 0.40228 0.51738 0.0
C338 C 0.86947 0.39428 0.5209 0.0
H339 H 0.9585 0.42488 0.58218 0.0
H340 H 0.92936 0.42847 0.54576 0.0
H341 H 0.91577 0.41715 0.59008 0.0
H342 H 0.86433 0.34358 0.59392 0.0
H343 H 0.80664 0.3576 0.58777 0.0
H344 H 0.67245 0.093 0.09022 0.0
H345 H 0.63849 0.04411 0.08432 0.0
H346 H 0.71501 0.99652 0.02441 0.0
H347 H 0.74869 0.04519 0.02947 0.0
H348 H 0.6531 0.98562 0.99544 0.0
H349 H 0.65714 0.96199 0.14403 0.0
H350 H 0.6411 1.00071 0.12976 0.0
H351 H 0.68335 0.9915 0.12266 0.0
C352 C 0.68191 0.0722 0.07554 0.0
C353 C 0.71341 0.07284 0.06067 0.0
C354 C 0.66252 0.04428 0.07231 0.0
C355 C 0.67445 0.01658 0.05438 0.0
C356 C 0.70536 0.01765 0.03839 0.0
H357 H 0.66707 0.81572 0.06819 0.0
H358 H 0.67312 0.87477 0.07271 0.0
C359 C 0.72465 0.04547 0.04147 0.0
C360 C 0.65597 0.9856 0.05364 0.0
H361 H 0.63431 0.92148 0.10727 0.0
C362 C 0.64835 0.97177 1.01988 0.0
C363 C 0.64995 0.96767 0.08565 0.0
C364 C 0.65844 0.98098 0.12263 0.0
C365 C 0.63668 0.9397 1.01711 0.0
C366 C 0.63208 0.92128 0.04905 0.0
C367 C 0.63777 0.93582 0.0829 0.0
C368 C 0.62658 0.88565 0.04779 0.0
C369 C 0.63156 0.92503 0.98003 0.0
C370 C 0.59809 0.87217 0.03287 0.0
C371 C 0.59478 0.83826 0.02988 0.0
C372 C 0.62005 0.81765 0.04149 0.0
C373 C 0.64777 0.8312 0.05787 0.0
C374 C 0.65107 0.86487 0.06083 0.0
H375 H 0.64038 0.94125 0.95806 0.0
H376 H 0.64437 0.90125 0.97792 0.0
H377 H 0.6052 0.92056 0.97564 0.0
H378 H 0.57865 0.88782 1.02327 0.0
H379 H 0.57292 0.82818 1.01781 0.0
H380 H 0.91131 0.67372 0.57511 0.0
H381 H 0.95889 0.63823 0.56696 0.0
H382 H 0.01556 0.72106 0.53249 0.0
H383 H 0.96841 0.75638 0.53991 0.0
H384 H 0.02424 0.6652 0.48934 0.0
H385 H 0.03748 0.63852 0.63671 0.0
H386 H 0.99906 0.62924 0.61559 0.0
H387 H 0.01166 0.67093 0.62023 0.0
C388 C 0.9339 0.6843 0.56565 0.0
C389 C 0.93617 0.71792 0.55845 0.0
C390 C 0.96103 0.66402 0.56112 0.0
C391 C 0.99078 0.67713 0.54948 0.0
C392 C 0.9928 0.71047 0.54147 0.0
H393 H 0.18866 0.65926 0.57461 0.0
H394 H 0.12968 0.66527 0.57762 0.0
C395 C 0.96582 0.73066 0.5459 0.0
C396 C 0.02054 0.65695 0.54671 0.0
H397 H 0.08002 0.6223 0.59871 0.0
C398 C 0.03621 0.65511 0.51305 0.0
C399 C 0.03596 0.64394 0.57781 0.0
C400 C 0.02041 0.64579 0.61474 0.0
C401 C 0.0679 0.64262 0.51003 0.0
C402 C 0.08401 0.63122 0.54148 0.0
C403 C 0.06746 0.63099 0.57469 0.0
C404 C 0.11947 0.62484 0.54162 0.0
C405 C 0.08477 0.64404 0.47379 0.0
C406 C 0.13328 0.59958 0.52104 0.0
C407 C 0.16719 0.59647 0.51884 0.0
C408 C 0.18751 0.6187 0.53699 0.0
C409 C 0.17355 0.64273 0.55908 0.0
C410 C 0.13986 0.64583 0.56129 0.0
H411 H 0.07025 0.65749 0.4532 0.0
H412 H 0.1089 0.65602 0.47651 0.0
H413 H 0.08883 0.61889 0.46367 0.0
H414 H 0.1179 0.58279 0.50617 0.0
H415 H 0.17751 0.57744 0.50205 0.0
H416 H 0.83589 0.59623 1.0153 0.0
H417 H 0.87003 0.54741 1.02176 0.0
H418 H 0.78653 0.4928 0.058 0.0
H419 H 0.75258 0.54118 0.05231 0.0
H420 H 0.84279 0.48109 0.09889 0.0
H421 H 0.86553 0.4704 0.95058 0.0
H422 H 0.87686 0.50803 0.97222 0.0
H423 H 0.83465 0.4971 0.96865 0.0
C424 C 0.82489 0.57384 0.02483 0.0
C425 C 0.79146 0.5725 0.03297 0.0
C426 C 0.8444 0.54599 0.02838 0.0
C427 C 0.83069 0.51644 0.03994 0.0
C428 C 0.79758 0.51537 0.04902 0.0
H429 H 0.84527 0.31785 1.00906 0.0
H430 H 0.83945 0.37698 1.00778 0.0
C431 C 0.77817 0.54306 0.0456 0.0
C432 C 0.84992 0.48595 0.04144 0.0
H433 H 0.8821 0.42682 0.98718 0.0
C434 C 0.85206 0.46942 0.07464 0.0
C435 C 0.86184 0.47089 1.00966 0.0
C436 C 0.85955 0.48729 0.97314 0.0
C437 C 0.86386 0.43736 0.07658 0.0
C438 C 0.87432 0.42173 0.0445 0.0
C439 C 0.87416 0.43902 1.0117 0.0
C440 C 0.88041 0.38618 0.04341 0.0
C441 C 0.86282 0.41969 0.11242 0.0
C442 C 0.90587 0.37175 0.06319 0.0
C443 C 0.90888 0.33774 0.06442 0.0
C444 C 0.88635 0.3179 0.04606 0.0
C445 C 0.86207 0.33251 0.02475 0.0
C446 C 0.85906 0.36632 1.02353 0.0
H447 H 0.84978 0.43387 0.13353 0.0
H448 H 0.85064 0.39568 0.10931 0.0
H449 H 0.88804 0.41524 0.12208 0.0
H450 H 0.92295 0.38672 0.07817 0.0
H451 H 0.92811 0.32695 0.08061 0.0
H452 H 0.45626 0.79016 0.4547 0.0
H453 H 0.50503 0.82226 0.46837 0.0
H454 H 0.49037 0.80622 0.58256 0.0
H455 H 0.44176 0.77392 0.56928 0.0
H456 H 0.51632 0.87907 0.51584 0.0
H457 H 0.58137 0.76644 0.55894 0.0
H458 H 0.54403 0.76533 0.53307 0.0
H459 H 0.54303 0.774 0.58073 0.0
C460 C 0.4632 0.79372 0.48275 0.0
C461 C 0.44541 0.77909 0.51088 0.0
C462 C 0.49099 0.81216 0.49049 0.0
C463 C 0.50141 0.8162 0.52641 0.0
C464 C 0.48286 0.80299 0.55463 0.0
H465 H 0.68794 0.87799 0.6127 0.0
H466 H 0.62995 0.86474 0.60775 0.0
C467 C 0.45512 0.78455 0.54696 0.0
C468 C 0.53296 0.83209 0.53418 0.0
H469 H 0.60982 0.81587 0.56429 0.0
C470 C 0.53679 0.86539 0.52658 0.0
C471 C 0.55952 0.81405 0.5481 0.0
C472 C 0.55705 0.77792 0.55547 0.0
C473 C 0.56664 0.88124 0.53281 0.0
C474 C 0.59332 0.86307 0.54635 0.0
C475 C 0.58926 0.82984 0.55422 0.0
C476 C 0.6263 0.87714 0.55089 0.0
C477 C 0.56923 0.91727 0.52519 0.0
C478 C 0.64322 0.88943 0.52085 0.0
C479 C 0.67629 0.89713 0.52372 0.0
C480 C 0.69298 0.89205 0.55648 0.0
C481 C 0.67562 0.88164 0.58703 0.0
C482 C 0.64255 0.87419 0.58425 0.0
H483 H 0.545 0.92931 0.52609 0.0
H484 H 0.58565 0.92948 0.54492 0.0
H485 H 0.57933 0.92083 0.49763 0.0
H486 H 0.63141 0.89125 0.49467 0.0
H487 H 0.68925 0.90496 0.49974 0.0
H488 H 0.25554 0.46553 0.05918 0.0
H489 H 0.22122 0.51378 0.06368 0.0
H490 H 0.14424 0.46391 1.00644 0.0
H491 H 0.17877 0.41533 1.00132 0.0
H492 H 0.15714 0.52401 0.9781 0.0
H493 H 0.1429 0.53443 0.12626 0.0
H494 H 0.18493 0.52991 0.11423 0.0
H495 H 0.15669 0.49739 0.10468 0.0
C496 C 0.23119 0.4646 0.04785 0.0
C497 C 0.21992 0.43659 0.0298 0.0
C498 C 0.21147 0.49215 0.05077 0.0
C499 C 0.17996 0.49225 0.03599 0.0
C500 C 0.16838 0.4642 1.01835 0.0
H501 H 0.07796 0.67881 0.07076 0.0
H502 H 0.08523 0.61936 0.06683 0.0
C503 C 0.18814 0.4365 1.01544 0.0
C504 C 0.16061 0.52274 0.03634 0.0
H505 H 0.13752 0.58483 0.09217 0.0
C506 C 0.15216 0.53701 1.00307 0.0
C507 C 0.15347 0.53941 0.06891 0.0
C508 C 0.15965 0.52429 0.10553 0.0
C509 C 0.13917 0.56862 1.00144 0.0
C510 C 0.13515 0.58654 0.03387 0.0
C511 C 0.14109 0.57127 0.06725 0.0
C512 C 0.12851 0.62205 0.03364 0.0
C513 C 0.1308 0.58284 0.96491 0.0
C514 C 0.15032 0.64313 1.01624 0.0
C515 C 0.14621 0.6768 1.01846 0.0
C516 C 0.12053 0.69011 0.03865 0.0
C517 C 0.09808 0.66907 0.05522 0.0
C518 C 0.10222 0.63523 0.05303 0.0
H519 H 0.1239 0.5634 0.94537 0.0
H520 H 0.11049 0.60064 0.96682 0.0
H521 H 0.15247 0.59555 0.95389 0.0
H522 H 0.17108 0.63357 1.00164 0.0
H523 H 0.16321 0.69237 1.00434 0.0
H524 H 0.33119 0.07388 0.58185 0.0
H525 H 0.39067 0.08096 0.57698 0.0
H526 H 0.37563 0.16781 0.51313 0.0
H527 H 0.31676 0.16048 0.51744 0.0
H528 H 0.42539 0.12599 0.48682 0.0
H529 H 0.4385 0.15411 0.63394 0.0
H530 H 0.41969 0.1161 0.6214 0.0
H531 H 0.39932 0.15382 0.61168 0.0
C532 C 0.34082 0.09427 0.56662 0.0
C533 C 0.31971 0.11717 0.55082 0.0
C534 C 0.37462 0.09835 0.56395 0.0
C535 C 0.38745 0.12519 0.54516 0.0
C536 C 0.36621 0.14704 0.52791 0.0
H537 H 0.53879 0.25762 0.54961 0.0
H538 H 0.49161 0.22227 0.55674 0.0
C539 C 0.33265 0.14303 0.53065 0.0
C540 C 0.42278 0.13215 0.5446 0.0
H541 H 0.4834 0.16448 0.59682 0.0
C542 C 0.43846 0.13371 0.51092 0.0
C543 C 0.43951 0.14235 0.57616 0.0
C544 C 0.42352 0.14176 0.61291 0.0
C545 C 0.46973 0.14715 0.50761 0.0
C546 C 0.4858 0.15886 0.53895 0.0
C547 C 0.47095 0.15538 0.57291 0.0
C548 C 0.51561 0.179 0.53645 0.0
C549 C 0.48431 0.15083 0.47036 0.0
C550 C 0.54494 0.16625 0.52312 0.0
C551 C 0.57206 0.18655 0.51876 0.0
C552 C 0.57022 0.21983 0.52784 0.0
C553 C 0.54103 0.23218 0.54215 0.0
C554 C 0.51405 0.21196 0.5464 0.0
H555 H 0.46664 0.14478 0.44852 0.0
H556 H 0.49304 0.17618 0.46619 0.0
H557 H 0.50554 0.13426 0.46775 0.0
H558 H 0.54675 0.14075 0.51578 0.0
H559 H 0.59429 0.17625 0.50793 0.0
H560 H 0.56951 0.63454 1.02346 0.0
H561 H 0.52558 0.59411 1.02319 0.0
H562 H 0.59639 0.51664 1.01751 0.0
H563 H 0.64037 0.5566 1.01812 0.0
H564 H 0.51109 0.54534 0.97107 0.0
H565 H 0.54047 0.49121 0.10506 0.0
H566 H 0.55669 0.52994 0.09051 0.0
H567 H 0.57412 0.49254 0.07414 0.0
C568 C 0.57576 0.6089 1.02215 0.0
C569 C 0.60853 0.59887 1.02104 0.0
C570 C 0.55062 0.58585 1.02199 0.0
C571 C 0.55777 0.55238 1.02095 0.0
C572 C 0.59036 0.54232 1.0191 0.0
H573 H 0.44205 0.3746 1.02231 0.0
H574 H 0.48605 0.41485 1.01995 0.0
C575 C 0.61547 0.56528 1.01925 0.0
C576 C 0.53119 0.5279 1.02136 0.0
H577 H 0.50082 0.46374 0.06957 0.0
C578 C 0.50871 0.52758 0.99267 0.0
C579 C 0.52827 0.5047 0.04952 0.0
C580 C 0.55097 0.50467 0.08175 0.0
C581 C 0.48367 0.50429 0.99104 0.0
C582 C 0.4807 0.48111 1.01924 0.0
C583 C 0.50321 0.48144 0.04792 0.0
C584 C 0.454 0.45674 1.01992 0.0
C585 C 0.46105 0.5043 0.95875 0.0
C586 C 0.42142 0.46695 1.02112 0.0
C587 C 0.39625 0.44408 1.02236 0.0
C588 C 0.40312 0.41044 1.02277 0.0
C589 C 0.43585 0.40027 1.02191 0.0
C590 C 0.46104 0.42323 1.02059 0.0
H591 H 0.47194 0.51715 0.93523 0.0
H592 H 0.45477 0.47905 0.95042 0.0
H593 H 0.43819 0.51713 0.96601 0.0
H594 H 0.41544 0.49267 1.0215 0.0
H595 H 0.37139 0.45286 1.02328 0.0
H596 H 0.55295 0.3724 0.51343 0.0
H597 H 0.51327 0.41676 0.51133 0.0
H598 H 0.59113 0.48714 0.51587 0.0
H599 H 0.63114 0.44295 0.51758 0.0
H600 H 0.50366 0.46581 0.56289 0.0
H601 H 0.53661 0.51841 0.42937 0.0
H602 H 0.54985 0.47841 0.44359 0.0
H603 H 0.57006 0.5142 0.46049 0.0
C604 C 0.56174 0.39729 0.51372 0.0
C605 C 0.59532 0.40405 0.51553 0.0
C606 C 0.53897 0.42263 0.51257 0.0
C607 C 0.54924 0.45524 0.51296 0.0
C608 C 0.58269 0.46214 0.51481 0.0
H609 H 0.44834 0.64138 0.51556 0.0
H610 H 0.48851 0.59738 0.51517 0.0
C611 C 0.60552 0.43682 0.51597 0.0
C612 C 0.52483 0.48195 0.51274 0.0
H613 H 0.49871 0.5482 0.4647 0.0
C614 C 0.50246 0.48375 0.54135 0.0
C615 C 0.52342 0.50538 0.48467 0.0
C616 C 0.54605 0.50397 0.4526 0.0
C617 C 0.47901 0.50865 0.54296 0.0
C618 C 0.47749 0.53201 0.5148 0.0
C619 C 0.49991 0.53026 0.48623 0.0
C620 C 0.45288 0.55856 0.51459 0.0
C621 C 0.45659 0.51014 0.57524 0.0
C622 C 0.41947 0.55135 0.51381 0.0
C623 C 0.39638 0.57645 0.51413 0.0
C624 C 0.40626 0.6093 0.51494 0.0
C625 C 0.4398 0.6164 0.51502 0.0
C626 C 0.46285 0.59127 0.51477 0.0
H627 H 0.46645 0.49615 0.59859 0.0
H628 H 0.45247 0.53574 0.58391 0.0
H629 H 0.43271 0.49939 0.56776 0.0
H630 H 0.41123 0.52629 0.51286 0.0
H631 H 0.37079 0.57005 0.51381 0.0
H632 H 0.06278 0.87372 0.0585 0.0
H633 H 0.0184 0.91366 0.05949 0.0
H634 H 0.08835 0.99177 0.06667 0.0
H635 H 0.13279 0.95227 0.06532 0.0
H636 H 0.00345 0.96108 0.11248 0.0
H637 H 0.03153 0.01849 0.98012 0.0
H638 H 0.04844 0.97972 0.99369 0.0
H639 H 0.06538 0.01705 1.01098 0.0
C640 C 0.06876 0.8994 0.06023 0.0
C641 C 0.10143 0.90973 0.06161 0.0
C642 C 0.04335 0.92218 0.06082 0.0
C643 C 0.05009 0.9557 0.06255 0.0
C644 C 0.0826 0.96606 0.06455 0.0
H645 H 0.93517 0.13335 0.06689 0.0
H646 H 0.97851 0.09241 0.06781 0.0
C647 C 0.10799 0.94337 0.06398 0.0
C648 C 0.02319 0.9799 0.06278 0.0
H649 H 0.99206 0.04504 1.01657 0.0
C650 C 1.00081 0.97933 0.09142 0.0
C651 C 0.01987 1.00373 0.03531 0.0
C652 C 0.04238 0.00472 1.00309 0.0
C653 C 0.97559 1.00242 0.09378 0.0
C654 C 0.97234 0.02633 0.06636 0.0
C655 C 0.99466 0.02679 0.03763 0.0
C656 C 0.94586 0.05103 0.06677 0.0
C657 C 0.95318 1.00151 0.12607 0.0
C658 C 0.91309 0.04139 0.06558 0.0
C659 C 0.88823 0.06471 0.06516 0.0
C660 C 0.89563 0.09823 0.06561 0.0
C661 C 0.92853 0.1078 0.06661 0.0
C662 C 0.95337 0.08442 0.0671 0.0
H663 H 0.96413 0.98782 0.14905 0.0
H664 H 0.9471 0.02652 0.13541 0.0
H665 H 0.93019 0.98909 0.11832 0.0
H666 H 0.90672 0.01579 0.06447 0.0
H667 H 0.86321 0.05641 0.06411 0.0
H668 H 0.8761 0.94114 0.56861 0.0
H669 H 0.91645 0.98516 0.5693 0.0
H670 H 0.99384 0.91428 0.57523 0.0
H671 H 0.95397 0.87023 0.57418 0.0
H672 H 0.96477 0.99952 0.62177 0.0
H673 H 0.01985 0.97077 0.4884 0.0
H674 H 0.98113 0.95434 0.50248 0.0
H675 H 0.01845 0.93689 0.51914 0.0
C676 C 0.9017 0.93489 0.57003 0.0
C677 C 0.91174 0.90208 0.57111 0.0
C678 C 0.92472 0.96009 0.57043 0.0
C679 C 0.95815 0.95296 0.5717 0.0
C680 C 0.9682 0.92032 0.57346 0.0
H681 H 0.13624 0.06773 0.57297 0.0
H682 H 0.09563 0.02405 0.57489 0.0
C683 C 0.94529 0.89515 0.57306 0.0
C684 C 0.9826 0.97959 0.57167 0.0
H685 H 0.04724 0.01005 0.52453 0.0
C686 C 0.98271 1.00197 0.60043 0.0
C687 C 0.00604 0.98262 0.54385 0.0
C688 C 0.0063 0.96008 0.51152 0.0
C689 C 0.00605 0.02695 0.60251 0.0
C690 C 0.02951 0.02997 0.57469 0.0
C691 C 0.02934 0.00761 0.5459 0.0
C692 C 0.05408 0.05652 0.57455 0.0
C693 C 0.00581 0.04942 0.63489 0.0
C694 C 0.04421 0.08925 0.57338 0.0
C695 C 0.0673 0.11425 0.5724 0.0
C696 C 0.10084 0.10706 0.57223 0.0
C697 C 0.11066 0.07418 0.57319 0.0
C698 C 0.08748 0.04917 0.57424 0.0
H699 H 0.99264 0.03848 0.65814 0.0
H700 H 0.03098 0.05551 0.64366 0.0
H701 H 0.99323 0.07244 0.62749 0.0
H702 H 0.01858 0.09549 0.57274 0.0
H703 H 0.05877 0.13923 0.5714 0.0
H704 H 0.23332 0.31692 0.14401 0.0
H705 H 0.21408 0.30265 0.20463 0.0
H706 H 0.31328 0.28538 0.23864 0.0
H707 H 0.33262 0.30279 0.17926 0.0
H708 H 0.21506 0.25013 0.24022 0.0
H709 H 0.28556 0.33857 0.32122 0.0
H710 H 0.28401 0.3405 0.2725 0.0
H711 H 0.31249 0.31371 0.295 0.0
C712 C 0.25101 0.31075 0.16472 0.0
C713 C 0.28446 0.31093 0.15691 0.0
C714 C 0.24 0.30232 0.19929 0.0
C715 C 0.2622 0.29345 0.22666 0.0
C716 C 0.29563 0.29309 0.21857 0.0
H717 H 0.20644 0.17649 0.41303 0.0
H718 H 0.22356 0.19649 0.35375 0.0
C719 C 0.30666 0.30239 0.18432 0.0
C720 C 0.25029 0.2833 0.26305 0.0
H721 H 0.2633 0.29317 0.3538 0.0
C722 C 0.22538 0.25987 0.26504 0.0
C723 C 0.26313 0.29638 0.29564 0.0
C724 C 0.28748 0.32394 0.29597 0.0
C725 C 0.21349 0.24873 0.29844 0.0
C726 C 0.22802 0.26005 0.33098 0.0
C727 C 0.25243 0.28398 0.329 0.0
C728 C 0.21827 0.24765 0.36732 0.0
C729 C 0.18491 0.22559 0.29826 0.0
C730 C 0.21113 0.26958 0.3955 0.0
C731 C 0.2029 0.2581 0.42994 0.0
C732 C 0.20116 0.22448 0.43682 0.0
C733 C 0.20807 0.20255 0.40865 0.0
C734 C 0.21719 0.214 0.37449 0.0
H735 H 0.16976 0.2288 0.27352 0.0
H736 H 0.19403 0.20012 0.29824 0.0
H737 H 0.16914 0.22918 0.3223 0.0
H738 H 0.21192 0.29565 0.39089 0.0
H739 H 0.19796 0.27555 0.45127 0.0
H740 H 0.77641 0.25238 0.94578 0.0
H741 H 0.75738 0.26938 0.88567 0.0
H742 H 0.75922 0.16922 0.84994 0.0
H743 H 0.778 0.15219 0.91017 0.0
H744 H 0.78662 0.26243 0.81979 0.0
H745 H 0.66826 0.19719 0.82003 0.0
H746 H 0.69239 0.20261 0.86052 0.0
H747 H 0.70271 0.17128 0.82843 0.0
C748 C 0.77266 0.23405 0.92505 0.0
C749 C 0.77826 0.20097 0.93262 0.0
C750 C 0.76176 0.24374 0.89079 0.0
C751 C 0.75626 0.22053 0.86346 0.0
C752 C 0.7624 0.18748 0.87085 0.0
H753 H 0.70093 0.2363 0.63589 0.0
H754 H 0.71819 0.21703 0.69602 0.0
C755 C 0.77319 0.17777 0.90519 0.0
C756 C 0.74505 0.23112 0.827 0.0
H757 H 0.68418 0.22159 0.76449 0.0
C758 C 0.76415 0.2536 0.80779 0.0
C759 C 0.71574 0.21955 0.81129 0.0
C760 C 0.6934 0.19656 0.83123 0.0
C761 C 0.75494 0.26453 0.77319 0.0
C762 C 0.72566 0.25297 0.75754 0.0
C763 C 0.70664 0.23036 0.77658 0.0
C764 C 0.71428 0.26438 0.72154 0.0
C765 C 0.77687 0.28798 0.75337 0.0
C766 C 0.70568 0.29717 0.71624 0.0
C767 C 0.69569 0.30809 0.68209 0.0
C768 C 0.69427 0.28643 0.65267 0.0
C769 C 0.70203 0.25345 0.65819 0.0
C770 C 0.71189 0.24248 0.69241 0.0
H771 H 0.80176 0.28859 0.76526 0.0
H772 H 0.77873 0.28135 0.72428 0.0
H773 H 0.76646 0.31291 0.75512 0.0
H774 H 0.70669 0.31431 0.73854 0.0
H775 H 0.68909 0.33348 0.67863 0.0
H776 H 0.80227 0.83188 0.41513 0.0
H777 H 0.7839 0.81252 0.35586 0.0
H778 H 0.80213 0.71325 0.38908 0.0
H779 H 0.81761 0.73247 0.44945 0.0
H780 H 0.81191 0.78286 0.304 0.0
H781 H 0.71307 0.70185 0.35098 0.0
H782 H 0.73407 0.72928 0.38117 0.0
H783 H 0.75156 0.69023 0.36995 0.0
C784 C 0.80158 0.80588 0.41002 0.0
C785 C 0.81065 0.78365 0.43715 0.0
C786 C 0.79144 0.79482 0.37599 0.0
C787 C 0.79079 0.76129 0.36809 0.0
C788 C 0.80123 0.73913 0.39475 0.0
H789 H 0.77781 0.69355 0.14328 0.0
H790 H 0.79699 0.70908 0.20369 0.0
C791 C 0.8106 0.75017 0.4291 0.0
C792 C 0.77979 0.74978 0.33177 0.0
H793 H 0.72841 0.6966 0.28912 0.0
C794 C 0.79348 0.76413 0.30079 0.0
C795 C 0.75535 0.72571 0.32738 0.0
C796 C 0.73742 0.71116 0.35915 0.0
C797 C 0.78351 0.75517 0.26574 0.0
C798 C 0.76024 0.72995 0.26135 0.0
C799 C 0.74653 0.71562 0.29233 0.0
C800 C 0.74884 0.71882 0.22503 0.0
C801 C 0.79728 0.77374 0.23399 0.0
C802 C 0.71533 0.7172 0.21733 0.0
C803 C 0.70436 0.70704 0.18328 0.0
C804 C 0.72663 0.69895 0.15593 0.0
C805 C 0.7601 0.69986 0.1638 0.0
C806 C 0.77109 0.70925 0.19817 0.0
H807 H 0.80589 0.79834 0.24222 0.0
H808 H 0.81852 0.76029 0.223 0.0
H809 H 0.77894 0.77669 0.21208 0.0
H810 H 0.69759 0.72404 0.23762 0.0
H811 H 0.67839 0.70563 0.17829 0.0
H812 H 0.23188 0.76181 0.94478 0.0
H813 H 0.25162 0.74469 0.88515 0.0
H814 H 0.23624 0.84218 0.84453 0.0
H815 H 0.21759 0.8595 0.90462 0.0
H816 H 0.22199 0.74223 0.82254 0.0
H817 H 0.32668 0.82628 0.80927 0.0
H818 H 0.30511 0.82105 0.85134 0.0
H819 H 0.28918 0.84761 0.81671 0.0
C820 C 0.23307 0.77958 0.92312 0.0
C821 C 0.22369 0.81201 0.92922 0.0
C822 C 0.24429 0.76982 0.88909 0.0
C823 C 0.24605 0.79226 0.8604 0.0
C824 C 0.23613 0.82463 0.86642 0.0
H825 H 0.25397 0.73307 0.6337 0.0
H826 H 0.23739 0.75203 0.69383 0.0
C827 C 0.22532 0.8345 0.90065 0.0
C828 C 0.25701 0.7813 0.82395 0.0
H829 H 0.31057 0.79786 0.75574 0.0
C830 C 0.2415 0.75431 0.80805 0.0
C831 C 0.28281 0.79669 0.80518 0.0
C832 C 0.30214 0.82428 0.82165 0.0
C833 C 0.25074 0.74252 0.77387 0.0
C834 C 0.27549 0.75885 0.75436 0.0
C835 C 0.29132 0.78557 0.77044 0.0
C836 C 0.28561 0.74836 0.71746 0.0
C837 C 0.23438 0.71216 0.75954 0.0
C838 C 0.31845 0.74126 0.71018 0.0
C839 C 0.32801 0.73108 0.67561 0.0
C840 C 0.30487 0.72772 0.6478 0.0
C841 C 0.27215 0.73516 0.6549 0.0
C842 C 0.26266 0.74577 0.68928 0.0
H843 H 0.22412 0.69718 0.78182 0.0
H844 H 0.21394 0.71927 0.74147 0.0
H845 H 0.25162 0.69685 0.74386 0.0
H846 H 0.33664 0.74318 0.73138 0.0
H847 H 0.35336 0.72527 0.67078 0.0
H848 H 0.76049 0.65974 0.9299 0.0
H849 H 0.78281 0.68009 0.87279 0.0
H850 H 0.7048 0.75017 0.86538 0.0
H851 H 0.68233 0.73015 0.92231 0.0
H852 H 0.75297 0.68347 0.8037 0.0
H853 H 0.78691 0.80639 0.85413 0.0
H854 H 0.77749 0.77297 0.88413 0.0
H855 H 0.74527 0.79536 0.86237 0.0
C856 C 0.74807 0.67951 0.91617 0.0
C857 C 0.71977 0.69353 0.93098 0.0
C858 C 0.76088 0.6911 0.88353 0.0
C859 C 0.74579 0.71702 0.86519 0.0
C860 C 0.71726 0.73065 0.87951 0.0
H861 H 0.77726 0.82484 0.66742 0.0
H862 H 0.75783 0.80246 0.72468 0.0
C863 C 0.7044 0.71909 0.91208 0.0
C864 C 0.75952 0.72951 0.83074 0.0
H865 H 0.78975 0.79806 0.79054 0.0
C866 C 0.76125 0.70844 0.80084 0.0
C867 C 0.77025 0.76212 0.82711 0.0
C868 C 0.77021 0.78549 0.8587 0.0
C869 C 0.7726 0.71937 0.76707 0.0
C870 C 0.78308 0.75207 0.76337 0.0
C871 C 0.78165 0.77302 0.79341 0.0
C872 C 0.79508 0.76527 0.72841 0.0
C873 C 0.77231 0.69607 0.73542 0.0
C874 C 0.82275 0.75206 0.71164 0.0
C875 C 0.83389 0.76472 0.67873 0.0
C876 C 0.81772 0.79105 0.66209 0.0
C877 C 0.79026 0.80449 0.67929 0.0
C878 C 0.77912 0.79176 0.71211 0.0
H879 H 0.75601 0.67492 0.74032 0.0
H880 H 0.76433 0.70855 0.71023 0.0
H881 H 0.7973 0.68657 0.73108 0.0
H882 H 0.83588 0.73208 0.72412 0.0
H883 H 0.8552 0.75388 0.66639 0.0
H884 H 0.26946 0.6844 0.41955 0.0
H885 H 0.24916 0.70535 0.36177 0.0
H886 H 0.3264 0.77648 0.35989 0.0
H887 H 0.34681 0.75593 0.41788 0.0
H888 H 0.26442 0.80232 0.34379 0.0
H889 H 0.29004 0.69193 0.26153 0.0
H890 H 0.26647 0.6845 0.30158 0.0
H891 H 0.3078 0.69842 0.30575 0.0
C892 C 0.28229 0.7044 0.40682 0.0
C893 C 0.30991 0.71834 0.42335 0.0
C894 C 0.27071 0.71624 0.37367 0.0
C895 C 0.28656 0.74214 0.35625 0.0
C896 C 0.31392 0.75634 0.37278 0.0
H897 H 0.25123 0.85246 0.15806 0.0
H898 H 0.2722 0.83201 0.21578 0.0
C899 C 0.32556 0.74451 0.40593 0.0
C900 C 0.27416 0.75493 0.32121 0.0
H901 H 0.25897 0.73359 0.23332 0.0
C902 C 0.26337 0.78738 0.31956 0.0
C903 C 0.27274 0.73534 0.28969 0.0
C904 C 0.28513 0.70069 0.28947 0.0
C905 C 0.25057 0.8006 0.28742 0.0
C906 C 0.24915 0.78101 0.25587 0.0
C907 C 0.26002 0.74857 0.25752 0.0
C908 C 0.23637 0.79361 0.22086 0.0
C909 C 0.23793 0.83516 0.28781 0.0
C910 C 0.20978 0.77832 0.204 0.0
C911 C 0.19788 0.78975 0.17081 0.0
C912 C 0.21242 0.81671 0.1537 0.0
C913 C 0.23924 0.83183 0.17057 0.0
C914 C 0.25117 0.82029 0.20372 0.0
H915 H 0.23258 0.8436 0.31576 0.0
H916 H 0.25667 0.8516 0.27627 0.0
H917 H 0.21546 0.83747 0.27119 0.0
H918 H 0.1981 0.75757 0.21663 0.0
H919 H 0.17729 0.7774 0.15858 0.0
H920 H 0.23492 0.18097 0.6692 0.0
H921 H 0.25422 0.20298 0.72691 0.0
H922 H 0.18228 0.27942 0.72085 0.0
H923 H 0.16258 0.25749 0.66323 0.0
H924 H 0.2792 0.26514 0.74147 0.0
H925 H 0.16773 0.2413 0.82204 0.0
H926 H 0.17482 0.22261 0.77849 0.0
H927 H 0.16102 0.26413 0.78119 0.0
C928 C 0.22313 0.20244 0.68008 0.0
C929 C 0.19713 0.2174 0.6615 0.0
C930 C 0.2342 0.21497 0.71312 0.0
C931 C 0.21941 0.24256 0.72842 0.0
C932 C 0.19363 0.25771 0.7099 0.0
H933 H 0.2559 0.35262 0.92657 0.0
H934 H 0.23535 0.33304 0.86815 0.0
C935 C 0.18251 0.24521 0.67684 0.0
C936 C 0.23155 0.25589 0.76332 0.0
H937 H 0.20934 0.27206 0.85061 0.0
C938 C 0.26397 0.26658 0.76538 0.0
C939 C 0.21158 0.25786 0.79441 0.0
C940 C 0.17693 0.24562 0.79419 0.0
C941 C 0.27689 0.2795 0.79759 0.0
C942 C 0.25701 0.28121 0.82878 0.0
C943 C 0.22451 0.27075 0.82666 0.0
C944 C 0.26968 0.29318 0.86406 0.0
C945 C 0.31155 0.29171 0.79775 0.0
C946 C 0.29551 0.27702 0.88135 0.0
C947 C 0.30737 0.28816 0.91465 0.0
C948 C 0.29346 0.31559 0.93154 0.0
C949 C 0.26729 0.33152 0.91431 0.0
C950 C 0.25547 0.32034 0.88094 0.0
H951 H 0.3203 0.29706 0.76993 0.0
H952 H 0.31398 0.31412 0.81445 0.0
H953 H 0.32764 0.27269 0.8095 0.0
H954 H 0.30638 0.25558 0.86921 0.0
H955 H 0.32742 0.27516 0.92716 0.0
H956 H 0.82294 0.23322 0.16331 0.0
H957 H 0.80226 0.25296 0.22137 0.0
H958 H 0.72724 0.17946 0.21917 0.0
H959 H 0.74802 0.15916 0.16144 0.0
H960 H 0.74132 0.27746 0.23776 0.0
H961 H 0.76684 0.1667 0.31938 0.0
H962 H 0.78412 0.17306 0.27506 0.0
H963 H 0.74279 0.15923 0.27956 0.0
C964 C 0.80217 0.22107 0.17524 0.0
C965 C 0.78731 0.19441 0.15774 0.0
C966 C 0.79034 0.23245 0.20843 0.0
C967 C 0.76353 0.21737 0.22493 0.0
C968 C 0.74842 0.19101 0.20739 0.0
H969 H 0.65408 0.25507 0.42231 0.0
H970 H 0.6741 0.23425 0.36434 0.0
C971 C 0.76025 0.17955 0.17423 0.0
C972 C 0.75085 0.22986 0.25997 0.0
H973 H 0.73551 0.20813 0.34763 0.0
C974 C 0.74018 0.26235 0.26183 0.0
C975 C 0.74928 0.21008 0.29133 0.0
C976 C 0.76163 0.17542 0.29147 0.0
C977 C 0.72757 0.27547 0.29403 0.0
C978 C 0.72608 0.25573 0.32541 0.0
C979 C 0.73662 0.22321 0.32353 0.0
C980 C 0.71399 0.26849 0.36056 0.0
C981 C 0.71535 0.31018 0.29398 0.0
C982 C 0.73005 0.29436 0.37794 0.0
C983 C 0.71868 0.30636 0.41104 0.0
C984 C 0.69108 0.2926 0.42761 0.0
C985 C 0.6753 0.26636 0.41032 0.0
C986 C 0.68673 0.25438 0.37718 0.0
H987 H 0.71019 0.31899 0.26609 0.0
H988 H 0.69287 0.31258 0.31041 0.0
H989 H 0.73424 0.32627 0.30598 0.0
H990 H 0.75154 0.30517 0.366 0.0
H991 H 0.73159 0.32643 0.42362 0.0
loop_
_geom_bond_atom_site_label_1
_geom_bond_atom_site_label_2
_geom_bond_distance
_geom_bond_site_symmetry_2
_ccdc_geom_bond_type
Co0 O3 1.970 1_554 S
Co0 N17 1.989 . S
Co0 O25 1.967 1_554 S
Co0 O32 1.920 . S
Co1 O4 1.966 1_554 S
Co1 N10 2.022 . S
Co1 N18 1.993 . S
Co1 O26 1.941 . S
C2 O3 1.258 . S
C2 O4 1.263 . S
O3 Co0 1.970 1_556 S
O3 C2 1.258 . S
O4 Co1 1.966 1_556 S
O4 C2 1.263 . S
C5 O6 1.235 . S
C5 O32 1.289 . S
O6 C5 1.235 . S
C7 C9 1.400 1_556 S
C7 N10 1.351 1_556 S
C7 C12 1.501 . S
C8 C9 1.387 . S
C8 N11 1.341 . S
C9 C7 1.400 1_554 S
C9 C8 1.387 . S
N10 Co1 2.022 . S
N10 C7 1.351 1_554 S
N10 N11 1.365 . S
N11 C8 1.341 . S
N11 N10 1.365 . S
N11 H31 0.862 . S
C12 C7 1.501 . S
C12 H13 0.961 . S
C12 H14 0.961 . S
C12 H15 0.960 . S
H13 C12 0.961 . S
H14 C12 0.961 . S
H15 C12 0.960 . S
C16 N17 1.342 . S
C16 C20 1.401 . S
C16 C21 1.499 . S
N17 Co0 1.989 . S
N17 C16 1.342 . S
N17 N18 1.388 . S
N18 Co1 1.993 . S
N18 N17 1.388 . S
N18 C19 1.346 . S
C19 N18 1.346 . S
C19 C20 1.396 . S
C19 C29 1.510 . S
C20 C16 1.401 . S
C20 C19 1.396 . S
C21 C16 1.499 . S
C21 H22 0.959 . S
C21 H23 0.960 . S
C21 H24 0.961 . S
H22 C21 0.959 . S
H23 C21 0.960 . S
H24 C21 0.961 . S
O25 Co0 1.967 1_556 S
O25 C33 1.258 . S
O26 Co1 1.941 . S
O26 C33 1.266 1_554 S
H27 C29 0.959 . S
H28 C29 0.961 . S
C29 C19 1.510 . S
C29 H27 0.959 . S
C29 H28 0.961 . S
C29 H30 0.960 . S
H30 C29 0.960 . S
H31 N11 0.862 . S
O32 Co0 1.920 . S
O32 C5 1.289 . S
C33 O25 1.258 . S
C33 O26 1.266 1_556 S
Co34 O37 1.970 . S
Co34 N51 1.989 . S
Co34 O59 1.967 . S
Co34 O66 1.920 . S
Co35 O38 1.966 . S
Co35 N44 2.022 . S
Co35 N52 1.993 . S
Co35 O60 1.941 . S
C36 O37 1.258 . S
C36 O38 1.263 . S
O37 Co34 1.970 . S
O37 C36 1.258 . S
O38 Co35 1.966 . S
O38 C36 1.263 . S
C39 O40 1.235 . S
C39 O66 1.289 . S
O40 C39 1.235 . S
C41 C43 1.400 . S
C41 N44 1.351 . S
C41 C46 1.501 . S
C42 C43 1.387 . S
C42 N45 1.341 . S
C43 C41 1.400 . S
C43 C42 1.387 . S
N44 Co35 2.022 . S
N44 C41 1.351 . S
N44 N45 1.365 . S
N45 C42 1.341 . S
N45 N44 1.365 . S
N45 H65 0.862 . S
C46 C41 1.501 . S
C46 H47 0.961 . S
C46 H48 0.961 . S
C46 H49 0.960 . S
H47 C46 0.961 . S
H48 C46 0.961 . S
H49 C46 0.960 . S
C50 N51 1.342 . S
C50 C54 1.401 . S
C50 C55 1.499 . S
N51 Co34 1.989 . S
N51 C50 1.342 . S
N51 N52 1.388 . S
N52 Co35 1.993 . S
N52 N51 1.388 . S
N52 C53 1.346 . S
C53 N52 1.346 . S
C53 C54 1.396 . S
C53 C63 1.510 . S
C54 C50 1.401 . S
C54 C53 1.396 . S
C55 C50 1.499 . S
C55 H56 0.959 . S
C55 H57 0.960 . S
C55 H58 0.961 . S
H56 C55 0.959 . S
H57 C55 0.960 . S
H58 C55 0.961 . S
O59 Co34 1.967 . S
O59 C67 1.258 . S
O60 Co35 1.941 . S
O60 C67 1.266 . S
H61 C63 0.959 . S
H62 C63 0.961 . S
C63 C53 1.510 . S
C63 H61 0.959 . S
C63 H62 0.961 . S
C63 H64 0.960 . S
H64 C63 0.960 . S
H65 N45 0.862 . S
O66 Co34 1.920 . S
O66 C39 1.289 . S
C67 O59 1.258 . S
C67 O60 1.266 . S
Co68 O71 1.970 1_554 S
Co68 N85 1.989 . S
Co68 O93 1.967 1_554 S
Co68 O100 1.920 . S
Co69 O72 1.966 1_554 S
Co69 N78 2.022 . S
Co69 N86 1.993 . S
Co69 O94 1.941 . S
C70 O71 1.258 . S
C70 O72 1.263 . S
O71 Co68 1.970 1_556 S
O71 C70 1.258 . S
O72 Co69 1.966 1_556 S
O72 C70 1.263 . S
C73 O74 1.235 . S
C73 O100 1.289 . S
O74 C73 1.235 . S
C75 C77 1.400 1_556 S
C75 N78 1.351 1_556 S
C75 C80 1.501 . S
C76 C77 1.387 . S
C76 N79 1.341 . S
C77 C75 1.400 1_554 S
C77 C76 1.387 . S
N78 Co69 2.022 . S
N78 C75 1.351 1_554 S
N78 N79 1.365 . S
N79 C76 1.341 . S
N79 N78 1.365 . S
N79 H99 0.862 . S
C80 C75 1.501 . S
C80 H81 0.961 . S
C80 H82 0.961 . S
C80 H83 0.960 . S
H81 C80 0.961 . S
H82 C80 0.961 . S
H83 C80 0.960 . S
C84 N85 1.342 . S
C84 C88 1.401 . S
C84 C89 1.499 . S
N85 Co68 1.989 . S
N85 C84 1.342 . S
N85 N86 1.388 . S
N86 Co69 1.993 . S
N86 N85 1.388 . S
N86 C87 1.346 . S
C87 N86 1.346 . S
C87 C88 1.396 . S
C87 C97 1.510 . S
C88 C84 1.401 . S
C88 C87 1.396 . S
C89 C84 1.499 . S
C89 H90 0.959 . S
C89 H91 0.960 . S
C89 H92 0.961 . S
H90 C89 0.959 . S
H91 C89 0.960 . S
H92 C89 0.961 . S
O93 Co68 1.967 1_556 S
O93 C101 1.258 . S
O94 Co69 1.941 . S
O94 C101 1.266 1_554 S
H95 C97 0.959 . S
H96 C97 0.961 . S
C97 C87 1.510 . S
C97 H95 0.959 . S
C97 H96 0.961 . S
C97 H98 0.960 . S
H98 C97 0.960 . S
H99 N79 0.862 . S
O100 Co68 1.920 . S
O100 C73 1.289 . S
C101 O93 1.258 . S
C101 O94 1.266 1_556 S
Co102 O105 1.970 . S
Co102 N119 1.989 . S
Co102 O127 1.967 . S
Co102 O134 1.920 . S
Co103 O106 1.966 . S
Co103 N112 2.022 . S
Co103 N120 1.993 . S
Co103 O128 1.941 . S
C104 O105 1.258 . S
C104 O106 1.263 . S
O105 Co102 1.970 . S
O105 C104 1.258 . S
O106 Co103 1.966 . S
O106 C104 1.263 . S
C107 O108 1.235 . S
C107 O134 1.289 . S
O108 C107 1.235 . S
C109 C111 1.400 . S
C109 N112 1.351 . S
C109 C114 1.501 . S
C110 C111 1.387 . S
C110 N113 1.341 . S
C111 C109 1.400 . S
C111 C110 1.387 . S
N112 Co103 2.022 . S
N112 C109 1.351 . S
N112 N113 1.365 . S
N113 C110 1.341 . S
N113 N112 1.365 . S
N113 H133 0.862 . S
C114 C109 1.501 . S
C114 H115 0.961 . S
C114 H116 0.961 . S
C114 H117 0.960 . S
H115 C114 0.961 . S
H116 C114 0.961 . S
H117 C114 0.960 . S
C118 N119 1.342 . S
C118 C122 1.401 . S
C118 C123 1.499 . S
N119 Co102 1.989 . S
N119 C118 1.342 . S
N119 N120 1.388 . S
N120 Co103 1.993 . S
N120 N119 1.388 . S
N120 C121 1.346 . S
C121 N120 1.346 . S
C121 C122 1.396 . S
C121 C131 1.510 . S
C122 C118 1.401 . S
C122 C121 1.396 . S
C123 C118 1.499 . S
C123 H124 0.959 . S
C123 H125 0.960 . S
C123 H126 0.961 . S
H124 C123 0.959 . S
H125 C123 0.960 . S
H126 C123 0.961 . S
O127 Co102 1.967 . S
O127 C135 1.258 . S
O128 Co103 1.941 . S
O128 C135 1.266 . S
H129 C131 0.959 . S
H130 C131 0.961 . S
C131 C121 1.510 . S
C131 H129 0.959 . S
C131 H130 0.961 . S
C131 H132 0.960 . S
H132 C131 0.960 . S
H133 N113 0.862 . S
O134 Co102 1.920 . S
O134 C107 1.289 . S
C135 O127 1.258 . S
C135 O128 1.266 . S
Co136 O139 1.970 . S
Co136 N153 1.989 1_554 S
Co136 O161 1.967 . S
Co136 O168 1.920 . S
Co137 O140 1.966 . S
Co137 N146 2.022 . S
Co137 N154 1.993 1_554 S
Co137 O162 1.941 . S
C138 O139 1.258 . S
C138 O140 1.263 . S
O139 Co136 1.970 . S
O139 C138 1.258 . S
O140 Co137 1.966 . S
O140 C138 1.263 . S
C141 O142 1.235 . S
C141 O168 1.289 . S
O142 C141 1.235 . S
C143 C145 1.400 . S
C143 N146 1.351 . S
C143 C148 1.501 . S
C144 C145 1.387 . S
C144 N147 1.341 . S
C145 C143 1.400 . S
C145 C144 1.387 . S
N146 Co137 2.022 . S
N146 C143 1.351 . S
N146 N147 1.365 . S
N147 C144 1.341 . S
N147 N146 1.365 . S
N147 H167 0.862 1_554 S
C148 C143 1.501 . S
C148 H149 0.961 . S
C148 H150 0.961 . S
C148 H151 0.960 . S
H149 C148 0.961 . S
H150 C148 0.961 . S
H151 C148 0.960 . S
C152 N153 1.342 . S
C152 C156 1.401 . S
C152 C157 1.499 . S
N153 Co136 1.989 1_556 S
N153 C152 1.342 . S
N153 N154 1.388 . S
N154 Co137 1.993 1_556 S
N154 N153 1.388 . S
N154 C155 1.346 . S
C155 N154 1.346 . S
C155 C156 1.396 . S
C155 C165 1.510 . S
C156 C152 1.401 . S
C156 C155 1.396 . S
C157 C152 1.499 . S
C157 H158 0.959 . S
C157 H159 0.960 . S
C157 H160 0.961 . S
H158 C157 0.959 . S
H159 C157 0.960 . S
H160 C157 0.961 . S
O161 Co136 1.967 . S
O161 C169 1.258 . S
O162 Co137 1.941 . S
O162 C169 1.266 . S
H163 C165 0.959 . S
H164 C165 0.961 . S
C165 C155 1.510 . S
C165 H163 0.959 . S
C165 H164 0.961 . S
C165 H166 0.960 . S
H166 C165 0.960 . S
H167 N147 0.862 1_556 S
O168 Co136 1.920 . S
O168 C141 1.289 . S
C169 O161 1.258 . S
C169 O162 1.266 . S
Co170 O173 1.970 . S
Co170 N187 1.989 . S
Co170 O195 1.967 . S
Co170 O202 1.920 . S
Co171 O174 1.966 . S
Co171 N180 2.022 . S
Co171 N188 1.993 . S
Co171 O196 1.941 . S
C172 O173 1.258 . S
C172 O174 1.263 . S
O173 Co170 1.970 . S
O173 C172 1.258 . S
O174 Co171 1.966 . S
O174 C172 1.263 . S
C175 O176 1.235 . S
C175 O202 1.289 . S
O176 C175 1.235 . S
C177 C179 1.400 . S
C177 N180 1.351 . S
C177 C182 1.501 . S
C178 C179 1.387 . S
C178 N181 1.341 . S
C179 C177 1.400 . S
C179 C178 1.387 . S
N180 Co171 2.022 . S
N180 C177 1.351 . S
N180 N181 1.365 . S
N181 C178 1.341 . S
N181 N180 1.365 . S
N181 H201 0.862 . S
C182 C177 1.501 . S
C182 H183 0.961 . S
C182 H184 0.961 . S
C182 H185 0.960 . S
H183 C182 0.961 . S
H184 C182 0.961 . S
H185 C182 0.960 . S
C186 N187 1.342 . S
C186 C190 1.401 . S
C186 C191 1.499 . S
N187 Co170 1.989 . S
N187 C186 1.342 . S
N187 N188 1.388 . S
N188 Co171 1.993 . S
N188 N187 1.388 . S
N188 C189 1.346 . S
C189 N188 1.346 . S
C189 C190 1.396 . S
C189 C199 1.510 . S
C190 C186 1.401 . S
C190 C189 1.396 . S
C191 C186 1.499 . S
C191 H192 0.959 . S
C191 H193 0.960 . S
C191 H194 0.961 . S
H192 C191 0.959 . S
H193 C191 0.960 . S
H194 C191 0.961 . S
O195 Co170 1.967 . S
O195 C203 1.258 . S
O196 Co171 1.941 . S
O196 C203 1.266 . S
H197 C199 0.959 . S
H198 C199 0.961 . S
C199 C189 1.510 . S
C199 H197 0.959 . S
C199 H198 0.961 . S
C199 H200 0.960 . S
H200 C199 0.960 . S
H201 N181 0.862 . S
O202 Co170 1.920 . S
O202 C175 1.289 . S
C203 O195 1.258 . S
C203 O196 1.266 . S
Co204 O207 1.970 . S
Co204 N221 1.989 1_554 S
Co204 O229 1.967 . S
Co204 O236 1.920 . S
Co205 O208 1.966 . S
Co205 N214 2.022 . S
Co205 N222 1.993 1_554 S
Co205 O230 1.941 . S
C206 O207 1.258 . S
C206 O208 1.263 . S
O207 Co204 1.970 . S
O207 C206 1.258 . S
O208 Co205 1.966 . S
O208 C206 1.263 . S
C209 O210 1.235 . S
C209 O236 1.289 . S
O210 C209 1.235 . S
C211 C213 1.400 . S
C211 N214 1.351 . S
C211 C216 1.501 . S
C212 C213 1.387 . S
C212 N215 1.341 . S
C213 C211 1.400 . S
C213 C212 1.387 . S
N214 Co205 2.022 . S
N214 C211 1.351 . S
N214 N215 1.365 . S
N215 C212 1.341 . S
N215 N214 1.365 . S
N215 H235 0.862 1_554 S
C216 C211 1.501 . S
C216 H217 0.961 . S
C216 H218 0.961 . S
C216 H219 0.960 . S
H217 C216 0.961 . S
H218 C216 0.961 . S
H219 C216 0.960 . S
C220 N221 1.342 . S
C220 C224 1.401 . S
C220 C225 1.499 . S
N221 Co204 1.989 1_556 S
N221 C220 1.342 . S
N221 N222 1.388 . S
N222 Co205 1.993 1_556 S
N222 N221 1.388 . S
N222 C223 1.346 . S
C223 N222 1.346 . S
C223 C224 1.396 . S
C223 C233 1.510 . S
C224 C220 1.401 . S
C224 C223 1.396 . S
C225 C220 1.499 . S
C225 H226 0.959 . S
C225 H227 0.960 . S
C225 H228 0.961 . S
H226 C225 0.959 . S
H227 C225 0.960 . S
H228 C225 0.961 . S
O229 Co204 1.967 . S
O229 C237 1.258 . S
O230 Co205 1.941 . S
O230 C237 1.266 . S
H231 C233 0.959 . S
H232 C233 0.961 . S
C233 C223 1.510 . S
C233 H231 0.959 . S
C233 H232 0.961 . S
C233 H234 0.960 . S
H234 C233 0.960 . S
H235 N215 0.862 1_556 S
O236 Co204 1.920 . S
O236 C209 1.289 . S
C237 O229 1.258 . S
C237 O230 1.266 . S
Co238 O241 1.970 . S
Co238 N255 1.989 . S
Co238 O263 1.967 . S
Co238 O270 1.920 . S
Co239 O242 1.966 . S
Co239 N248 2.022 . S
Co239 N256 1.993 . S
Co239 O264 1.941 . S
C240 O241 1.258 . S
C240 O242 1.263 . S
O241 Co238 1.970 . S
O241 C240 1.258 . S
O242 Co239 1.966 . S
O242 C240 1.263 . S
C243 O244 1.235 . S
C243 O270 1.289 . S
O244 C243 1.235 . S
C245 C247 1.400 . S
C245 N248 1.351 . S
C245 C250 1.501 . S
C246 C247 1.387 . S
C246 N249 1.341 . S
C247 C245 1.400 . S
C247 C246 1.387 . S
N248 Co239 2.022 . S
N248 C245 1.351 . S
N248 N249 1.365 . S
N249 C246 1.341 . S
N249 N248 1.365 . S
N249 H269 0.862 . S
C250 C245 1.501 . S
C250 H251 0.961 . S
C250 H252 0.961 . S
C250 H253 0.960 . S
H251 C250 0.961 . S
H252 C250 0.961 . S
H253 C250 0.960 . S
C254 N255 1.342 . S
C254 C258 1.401 . S
C254 C259 1.499 . S
N255 Co238 1.989 . S
N255 C254 1.342 . S
N255 N256 1.388 . S
N256 Co239 1.993 . S
N256 N255 1.388 . S
N256 C257 1.346 . S
C257 N256 1.346 . S
C257 C258 1.396 . S
C257 C267 1.510 . S
C258 C254 1.401 . S
C258 C257 1.396 . S
C259 C254 1.499 . S
C259 H260 0.959 . S
C259 H261 0.960 . S
C259 H262 0.961 . S
H260 C259 0.959 . S
H261 C259 0.960 . S
H262 C259 0.961 . S
O263 Co238 1.967 . S
O263 C271 1.258 . S
O264 Co239 1.941 . S
O264 C271 1.266 . S
H265 C267 0.959 . S
H266 C267 0.961 . S
C267 C257 1.510 . S
C267 H265 0.959 . S
C267 H266 0.961 . S
C267 H268 0.960 . S
H268 C267 0.960 . S
H269 N249 0.862 . S
O270 Co238 1.920 . S
O270 C243 1.289 . S
C271 O263 1.258 . S
C271 O264 1.266 . S
H272 C280 0.929 1_565 S
H273 C282 0.930 . S
H274 C284 0.930 1_556 S
H275 C287 0.913 1_566 S
H276 C290 0.930 . S
H277 C292 0.960 . S
H278 C292 0.960 . S
H279 C292 0.960 . S
C280 H272 0.929 1_545 S
C280 C281 1.377 1_545 S
C280 C282 1.384 . S
C281 C280 1.377 1_565 S
C281 C287 1.379 1_565 S
C282 H273 0.930 . S
C282 C280 1.384 . S
C282 C283 1.372 . S
C283 C282 1.372 . S
C283 C284 1.400 . S
C283 C288 1.490 . S
C284 H274 0.930 1_554 S
C284 C283 1.400 . S
C284 C287 1.413 . S
H285 C301 0.930 . S
H286 C302 0.931 . S
C287 H275 0.913 1_544 S
C287 C281 1.379 1_545 S
C287 C284 1.413 . S
C288 C283 1.490 . S
C288 C290 1.395 . S
C288 C291 1.403 . S
H289 C295 0.930 . S
C290 H276 0.930 . S
C290 C288 1.395 . S
C290 C293 1.403 . S
C291 C288 1.403 . S
C291 C292 1.524 . S
C291 C295 1.400 . S
C292 H277 0.960 . S
C292 H278 0.960 . S
C292 H279 0.960 . S
C292 C291 1.524 . S
C293 C290 1.403 . S
C293 C294 1.392 . S
C293 C297 1.495 . S
C294 C293 1.392 . S
C294 C295 1.385 . S
C294 C296 1.478 . S
C295 H289 0.930 . S
C295 C291 1.400 . S
C295 C294 1.385 . S
C296 C294 1.478 . S
C296 C298 1.381 . S
C296 C302 1.383 1_554 S
C297 C293 1.495 . S
C297 H303 0.959 . S
C297 H304 0.961 . S
C297 H305 0.960 . S
C298 C296 1.381 . S
C298 C299 1.394 . S
C298 H306 0.930 . S
C299 C298 1.394 . S
C299 C300 1.383 . S
C299 H307 0.929 . S
C300 C299 1.383 . S
C300 C301 1.377 1_554 S
C301 H285 0.930 . S
C301 C300 1.377 1_556 S
C301 C302 1.379 . S
C302 H286 0.931 . S
C302 C296 1.383 1_556 S
C302 C301 1.379 . S
H303 C297 0.959 . S
H304 C297 0.961 . S
H305 C297 0.960 . S
H306 C298 0.930 . S
H307 C299 0.929 . S
H308 C316 0.929 1_455 S
H309 C318 0.930 . S
H310 C320 0.930 . S
H311 C323 0.929 1_455 S
H312 C326 0.930 . S
H313 C328 0.960 . S
H314 C328 0.960 . S
H315 C328 0.960 . S
C316 H308 0.929 1_655 S
C316 C317 1.377 1_655 S
C316 C318 1.384 . S
C317 C316 1.377 1_455 S
C317 C323 1.390 1_455 S
C318 H309 0.930 . S
C318 C316 1.384 . S
C318 C319 1.372 . S
C319 C318 1.372 . S
C319 C320 1.400 . S
C319 C324 1.490 . S
C320 H310 0.930 . S
C320 C319 1.400 . S
C320 C323 1.386 . S
H321 C337 0.930 . S
H322 C338 0.931 . S
C323 H311 0.929 1_655 S
C323 C317 1.390 1_655 S
C323 C320 1.386 . S
C324 C319 1.490 . S
C324 C326 1.395 . S
C324 C327 1.403 . S
H325 C331 0.930 . S
C326 H312 0.930 . S
C326 C324 1.395 . S
C326 C329 1.403 . S
C327 C324 1.403 . S
C327 C328 1.524 . S
C327 C331 1.400 . S
C328 H313 0.960 . S
C328 H314 0.960 . S
C328 H315 0.960 . S
C328 C327 1.524 . S
C329 C326 1.403 . S
C329 C330 1.392 . S
C329 C333 1.495 . S
C330 C329 1.392 . S
C330 C331 1.385 . S
C330 C332 1.478 . S
C331 H325 0.930 . S
C331 C327 1.400 . S
C331 C330 1.385 . S
C332 C330 1.478 . S
C332 C334 1.381 . S
C332 C338 1.383 . S
C333 C329 1.495 . S
C333 H339 0.959 . S
C333 H340 0.961 . S
C333 H341 0.960 . S
C334 C332 1.381 . S
C334 C335 1.394 . S
C334 H342 0.930 . S
C335 C334 1.394 . S
C335 C336 1.383 . S
C335 H343 0.929 . S
C336 C335 1.383 . S
C336 C337 1.377 . S
C337 H321 0.930 . S
C337 C336 1.377 . S
C337 C338 1.379 . S
C338 H322 0.931 . S
C338 C332 1.383 . S
C338 C337 1.379 . S
H339 C333 0.959 . S
H340 C333 0.961 . S
H341 C333 0.960 . S
H342 C334 0.930 . S
H343 C335 0.929 . S
H344 C352 0.928 . S
H345 C354 0.930 . S
H346 C356 0.930 . S
H347 C359 0.929 1_545 S
H348 C362 0.930 1_556 S
H349 C364 0.960 . S
H350 C364 0.960 . S
H351 C364 0.960 . S
C352 H344 0.928 . S
C352 C353 1.377 1_565 S
C352 C354 1.384 . S
C353 C352 1.377 1_545 S
C353 C359 1.390 1_545 S
C354 H345 0.930 . S
C354 C352 1.384 . S
C354 C355 1.372 . S
C355 C354 1.372 . S
C355 C356 1.400 . S
C355 C360 1.490 . S
C356 H346 0.930 . S
C356 C355 1.400 . S
C356 C359 1.386 . S
H357 C373 0.930 . S
H358 C374 0.931 . S
C359 H347 0.929 1_565 S
C359 C353 1.390 1_565 S
C359 C356 1.386 . S
C360 C355 1.490 . S
C360 C362 1.395 . S
C360 C363 1.403 . S
H361 C367 0.930 . S
C362 H348 0.930 1_554 S
C362 C360 1.395 . S
C362 C365 1.403 1_554 S
C363 C360 1.403 . S
C363 C364 1.524 . S
C363 C367 1.400 . S
C364 H349 0.960 . S
C364 H350 0.960 . S
C364 H351 0.960 . S
C364 C363 1.524 . S
C365 C362 1.403 1_556 S
C365 C366 1.392 1_556 S
C365 C369 1.495 . S
C366 C365 1.392 1_554 S
C366 C367 1.385 . S
C366 C368 1.478 . S
C367 H361 0.930 . S
C367 C363 1.400 . S
C367 C366 1.385 . S
C368 C366 1.478 . S
C368 C370 1.381 . S
C368 C374 1.383 1_554 S
C369 C365 1.495 . S
C369 H375 0.959 . S
C369 H376 0.961 . S
C369 H377 0.960 . S
C370 C368 1.381 . S
C370 C371 1.394 . S
C370 H378 0.930 . S
C371 C370 1.394 . S
C371 C372 1.383 . S
C371 H379 0.929 . S
C372 C371 1.383 . S
C372 C373 1.377 1_554 S
C373 H357 0.930 . S
C373 C372 1.377 1_556 S
C373 C374 1.379 . S
C374 H358 0.931 . S
C374 C368 1.383 1_556 S
C374 C373 1.379 . S
H375 C369 0.959 . S
H376 C369 0.961 . S
H377 C369 0.960 . S
H378 C370 0.930 . S
H379 C371 0.929 . S
H380 C388 0.929 1_655 S
H381 C390 0.930 . S
H382 C392 0.930 . S
H383 C395 0.929 1_655 S
H384 C398 0.930 . S
H385 C400 0.960 . S
H386 C400 0.960 . S
H387 C400 0.960 . S
C388 H380 0.929 1_455 S
C388 C389 1.377 1_455 S
C388 C390 1.384 . S
C389 C388 1.377 1_655 S
C389 C395 1.390 1_655 S
C390 H381 0.930 . S
C390 C388 1.384 . S
C390 C391 1.372 . S
C391 C390 1.372 . S
C391 C392 1.400 . S
C391 C396 1.490 . S
C392 H382 0.930 . S
C392 C391 1.400 . S
C392 C395 1.386 . S
H393 C409 0.930 . S
H394 C410 0.931 . S
C395 H383 0.929 1_455 S
C395 C389 1.390 1_455 S
C395 C392 1.386 . S
C396 C391 1.490 . S
C396 C398 1.395 . S
C396 C399 1.403 . S
H397 C403 0.930 . S
C398 H384 0.930 . S
C398 C396 1.395 . S
C398 C401 1.403 . S
C399 C396 1.403 . S
C399 C400 1.524 . S
C399 C403 1.400 . S
C400 H385 0.960 . S
C400 H386 0.960 . S
C400 H387 0.960 . S
C400 C399 1.524 . S
C401 C398 1.403 . S
C401 C402 1.392 . S
C401 C405 1.495 . S
C402 C401 1.392 . S
C402 C403 1.385 . S
C402 C404 1.478 . S
C403 H397 0.930 . S
C403 C399 1.400 . S
C403 C402 1.385 . S
C404 C402 1.478 . S
C404 C406 1.381 . S
C404 C410 1.383 . S
C405 C401 1.495 . S
C405 H411 0.959 . S
C405 H412 0.961 . S
C405 H413 0.960 . S
C406 C404 1.381 . S
C406 C407 1.394 . S
C406 H414 0.930 . S
C407 C406 1.394 . S
C407 C408 1.383 . S
C407 H415 0.929 . S
C408 C407 1.383 . S
C408 C409 1.377 . S
C409 H393 0.930 . S
C409 C408 1.377 . S
C409 C410 1.379 . S
C410 H394 0.931 . S
C410 C404 1.383 . S
C410 C409 1.379 . S
H411 C405 0.959 . S
H412 C405 0.961 . S
H413 C405 0.960 . S
H414 C406 0.930 . S
H415 C407 0.929 . S
H416 C424 0.929 . S
H417 C426 0.930 . S
H418 C428 0.930 . S
H419 C431 0.929 . S
H420 C434 0.930 . S
H421 C436 0.960 . S
H422 C436 0.960 . S
H423 C436 0.960 . S
C424 H416 0.929 . S
C424 C425 1.377 . S
C424 C426 1.384 . S
C425 C424 1.377 . S
C425 C431 1.390 1_554 S
C426 H417 0.930 . S
C426 C424 1.384 . S
C426 C427 1.372 . S
C427 C426 1.372 . S
C427 C428 1.400 1_554 S
C427 C432 1.490 . S
C428 H418 0.930 . S
C428 C427 1.400 1_556 S
C428 C431 1.386 . S
H429 C445 0.930 . S
H430 C446 0.931 . S
C431 H419 0.929 . S
C431 C425 1.390 1_556 S
C431 C428 1.386 . S
C432 C427 1.490 . S
C432 C434 1.395 . S
C432 C435 1.403 1_554 S
H433 C439 0.930 . S
C434 H420 0.930 . S
C434 C432 1.395 . S
C434 C437 1.403 . S
C435 C432 1.403 1_556 S
C435 C436 1.524 . S
C435 C439 1.400 . S
C436 H421 0.960 . S
C436 H422 0.960 . S
C436 H423 0.960 . S
C436 C435 1.524 . S
C437 C434 1.403 . S
C437 C438 1.392 . S
C437 C441 1.495 . S
C438 C437 1.392 . S
C438 C439 1.385 1_554 S
C438 C440 1.478 . S
C439 H433 0.930 . S
C439 C435 1.400 . S
C439 C438 1.385 1_556 S
C440 C438 1.478 . S
C440 C442 1.381 . S
C440 C446 1.383 . S
C441 C437 1.495 . S
C441 H447 0.959 . S
C441 H448 0.961 . S
C441 H449 0.960 . S
C442 C440 1.381 . S
C442 C443 1.394 . S
C442 H450 0.930 . S
C443 C442 1.394 . S
C443 C444 1.383 . S
C443 H451 0.929 . S
C444 C443 1.383 . S
C444 C445 1.377 . S
C445 H429 0.930 . S
C445 C444 1.377 . S
C445 C446 1.379 . S
C446 H430 0.931 . S
C446 C440 1.383 . S
C446 C445 1.379 . S
H447 C441 0.959 . S
H448 C441 0.961 . S
H449 C441 0.960 . S
H450 C442 0.930 . S
H451 C443 0.929 . S
H452 C460 0.929 . S
H453 C462 0.930 . S
H454 C464 0.930 . S
H455 C467 0.929 . S
H456 C470 0.930 . S
H457 C472 0.960 . S
H458 C472 0.960 . S
H459 C472 0.960 . S
C460 H452 0.929 . S
C460 C461 1.377 . S
C460 C462 1.384 . S
C461 C460 1.377 . S
C461 C467 1.390 . S
C462 H453 0.930 . S
C462 C460 1.384 . S
C462 C463 1.372 . S
C463 C462 1.372 . S
C463 C464 1.400 . S
C463 C468 1.490 . S
C464 H454 0.930 . S
C464 C463 1.400 . S
C464 C467 1.386 . S
H465 C481 0.930 . S
H466 C482 0.931 . S
C467 H455 0.929 . S
C467 C461 1.390 . S
C467 C464 1.386 . S
C468 C463 1.490 . S
C468 C470 1.395 . S
C468 C471 1.403 . S
H469 C475 0.930 . S
C470 H456 0.930 . S
C470 C468 1.395 . S
C470 C473 1.403 . S
C471 C468 1.403 . S
C471 C472 1.524 . S
C471 C475 1.400 . S
C472 H457 0.960 . S
C472 H458 0.960 . S
C472 H459 0.960 . S
C472 C471 1.524 . S
C473 C470 1.403 . S
C473 C474 1.392 . S
C473 C477 1.495 . S
C474 C473 1.392 . S
C474 C475 1.385 . S
C474 C476 1.478 . S
C475 H469 0.930 . S
C475 C471 1.400 . S
C475 C474 1.385 . S
C476 C474 1.478 . S
C476 C478 1.381 . S
C476 C482 1.383 . S
C477 C473 1.495 . S
C477 H483 0.959 . S
C477 H484 0.961 . S
C477 H485 0.960 . S
C478 C476 1.381 . S
C478 C479 1.394 . S
C478 H486 0.930 . S
C479 C478 1.394 . S
C479 C480 1.383 . S
C479 H487 0.929 . S
C480 C479 1.383 . S
C480 C481 1.377 . S
C481 H465 0.930 . S
C481 C480 1.377 . S
C481 C482 1.379 . S
C482 H466 0.931 . S
C482 C476 1.383 . S
C482 C481 1.379 . S
H483 C477 0.959 . S
H484 C477 0.961 . S
H485 C477 0.960 . S
H486 C478 0.930 . S
H487 C479 0.929 . S
H488 C496 0.929 . S
H489 C498 0.930 . S
H490 C500 0.930 1_556 S
H491 C503 0.929 . S
H492 C506 0.937 . S
H493 C508 0.960 . S
H494 C508 0.960 . S
H495 C508 0.960 . S
C496 H488 0.929 . S
C496 C497 1.377 . S
C496 C498 1.384 . S
C497 C496 1.377 . S
C497 C503 1.390 1_554 S
C498 H489 0.930 . S
C498 C496 1.384 . S
C498 C499 1.372 . S
C499 C498 1.372 . S
C499 C500 1.400 . S
C499 C504 1.490 . S
C500 H490 0.930 1_554 S
C500 C499 1.400 . S
C500 C503 1.386 1_554 S
H501 C517 0.930 . S
H502 C518 0.931 1_556 S
C503 H491 0.929 . S
C503 C497 1.390 1_556 S
C503 C500 1.386 1_556 S
C504 C499 1.490 . S
C504 C506 1.388 1_554 S
C504 C507 1.403 . S
H505 C511 0.930 . S
C506 H492 0.937 . S
C506 C504 1.388 1_556 S
C506 C509 1.403 1_556 S
C507 C504 1.403 . S
C507 C508 1.524 . S
C507 C511 1.400 . S
C508 H493 0.960 . S
C508 H494 0.960 . S
C508 H495 0.960 . S
C508 C507 1.524 . S
C509 C506 1.403 1_554 S
C509 C510 1.397 . S
C509 C513 1.491 1_554 S
C510 C509 1.397 . S
C510 C511 1.385 . S
C510 C512 1.478 . S
C511 H505 0.930 . S
C511 C507 1.400 . S
C511 C510 1.385 . S
C512 C510 1.478 . S
C512 C514 1.381 . S
C512 C518 1.383 . S
C513 C509 1.491 1_556 S
C513 H519 0.959 . S
C513 H520 0.961 . S
C513 H521 0.960 . S
C514 C512 1.381 . S
C514 C515 1.394 . S
C514 H522 0.930 . S
C515 C514 1.394 . S
C515 C516 1.383 . S
C515 H523 0.929 . S
C516 C515 1.383 . S
C516 C517 1.377 . S
C517 H501 0.930 . S
C517 C516 1.377 . S
C517 C518 1.379 . S
C518 H502 0.931 1_554 S
C518 C512 1.383 . S
C518 C517 1.379 . S
H519 C513 0.959 . S
H520 C513 0.961 . S
H521 C513 0.960 . S
H522 C514 0.930 . S
H523 C515 0.929 . S
H524 C532 0.929 . S
H525 C534 0.930 . S
H526 C536 0.930 . S
H527 C539 0.929 . S
H528 C542 0.930 . S
H529 C544 0.960 . S
H530 C544 0.960 . S
H531 C544 0.960 . S
C532 H524 0.929 . S
C532 C533 1.377 . S
C532 C534 1.384 . S
C533 C532 1.377 . S
C533 C539 1.390 . S
C534 H525 0.930 . S
C534 C532 1.384 . S
C534 C535 1.372 . S
C535 C534 1.372 . S
C535 C536 1.400 . S
C535 C540 1.490 . S
C536 H526 0.930 . S
C536 C535 1.400 . S
C536 C539 1.386 . S
H537 C553 0.930 . S
H538 C554 0.931 . S
C539 H527 0.929 . S
C539 C533 1.390 . S
C539 C536 1.386 . S
C540 C535 1.490 . S
C540 C542 1.395 . S
C540 C543 1.403 . S
H541 C547 0.930 . S
C542 H528 0.930 . S
C542 C540 1.395 . S
C542 C545 1.403 . S
C543 C540 1.403 . S
C543 C544 1.524 . S
C543 C547 1.400 . S
C544 H529 0.960 . S
C544 H530 0.960 . S
C544 H531 0.960 . S
C544 C543 1.524 . S
C545 C542 1.403 . S
C545 C546 1.392 . S
C545 C549 1.495 . S
C546 C545 1.392 . S
C546 C547 1.385 . S
C546 C548 1.478 . S
C547 H541 0.930 . S
C547 C543 1.400 . S
C547 C546 1.385 . S
C548 C546 1.478 . S
C548 C550 1.381 . S
C548 C554 1.383 . S
C549 C545 1.495 . S
C549 H555 0.959 . S
C549 H556 0.961 . S
C549 H557 0.960 . S
C550 C548 1.381 . S
C550 C551 1.394 . S
C550 H558 0.930 . S
C551 C550 1.394 . S
C551 C552 1.383 . S
C551 H559 0.929 . S
C552 C551 1.383 . S
C552 C553 1.377 . S
C553 H537 0.930 . S
C553 C552 1.377 . S
C553 C554 1.379 . S
C554 H538 0.931 . S
C554 C548 1.383 . S
C554 C553 1.379 . S
H555 C549 0.959 . S
H556 C549 0.961 . S
H557 C549 0.960 . S
H558 C550 0.930 . S
H559 C551 0.929 . S
H560 C568 0.929 . S
H561 C570 0.930 . S
H562 C572 0.930 . S
H563 C575 0.929 . S
H564 C578 0.930 . S
H565 C580 0.960 . S
H566 C580 0.960 . S
H567 C580 0.960 . S
C568 H560 0.929 . S
C568 C569 1.377 1_554 S
C568 C570 1.384 . S
C569 C568 1.377 1_556 S
C569 C575 1.390 . S
C570 H561 0.930 . S
C570 C568 1.384 . S
C570 C571 1.372 1_554 S
C571 C570 1.372 1_556 S
C571 C572 1.400 . S
C571 C576 1.490 . S
C572 H562 0.930 . S
C572 C571 1.400 . S
C572 C575 1.386 . S
H573 C589 0.930 . S
H574 C590 0.931 . S
C575 H563 0.929 . S
C575 C569 1.390 . S
C575 C572 1.386 . S
C576 C571 1.490 . S
C576 C578 1.395 . S
C576 C579 1.403 1_556 S
H577 C583 0.930 . S
C578 H564 0.930 . S
C578 C576 1.395 . S
C578 C581 1.403 . S
C579 C576 1.403 1_554 S
C579 C580 1.524 . S
C579 C583 1.400 . S
C580 H565 0.960 . S
C580 H566 0.960 . S
C580 H567 0.960 . S
C580 C579 1.524 . S
C581 C578 1.403 . S
C581 C582 1.392 . S
C581 C585 1.495 . S
C582 C581 1.392 . S
C582 C583 1.385 1_556 S
C582 C584 1.478 . S
C583 H577 0.930 . S
C583 C579 1.400 . S
C583 C582 1.385 1_554 S
C584 C582 1.478 . S
C584 C586 1.381 1_556 S
C584 C590 1.383 . S
C585 C581 1.495 . S
C585 H591 0.959 . S
C585 H592 0.961 . S
C585 H593 0.960 . S
C586 C584 1.381 1_554 S
C586 C587 1.394 . S
C586 H594 0.930 . S
C587 C586 1.394 . S
C587 C588 1.383 1_554 S
C587 H595 0.929 . S
C588 C587 1.383 1_556 S
C588 C589 1.377 . S
C589 H573 0.930 . S
C589 C588 1.377 . S
C589 C590 1.379 . S
C590 H574 0.931 . S
C590 C584 1.383 . S
C590 C589 1.379 . S
H591 C585 0.959 . S
H592 C585 0.961 . S
H593 C585 0.960 . S
H594 C586 0.930 . S
H595 C587 0.929 . S
H596 C604 0.929 . S
H597 C606 0.930 . S
H598 C608 0.930 . S
H599 C611 0.929 . S
H600 C614 0.930 . S
H601 C616 0.960 . S
H602 C616 0.960 . S
H603 C616 0.960 . S
C604 H596 0.929 . S
C604 C605 1.377 . S
C604 C606 1.384 . S
C605 C604 1.377 . S
C605 C611 1.390 . S
C606 H597 0.930 . S
C606 C604 1.384 . S
C606 C607 1.372 . S
C607 C606 1.372 . S
C607 C608 1.400 . S
C607 C612 1.490 . S
C608 H598 0.930 . S
C608 C607 1.400 . S
C608 C611 1.386 . S
H609 C625 0.930 . S
H610 C626 0.931 . S
C611 H599 0.929 . S
C611 C605 1.390 . S
C611 C608 1.386 . S
C612 C607 1.490 . S
C612 C614 1.395 . S
C612 C615 1.403 . S
H613 C619 0.930 . S
C614 H600 0.930 . S
C614 C612 1.395 . S
C614 C617 1.403 . S
C615 C612 1.403 . S
C615 C616 1.524 . S
C615 C619 1.400 . S
C616 H601 0.960 . S
C616 H602 0.960 . S
C616 H603 0.960 . S
C616 C615 1.524 . S
C617 C614 1.403 . S
C617 C618 1.392 . S
C617 C621 1.495 . S
C618 C617 1.392 . S
C618 C619 1.385 . S
C618 C620 1.478 . S
C619 H613 0.930 . S
C619 C615 1.400 . S
C619 C618 1.385 . S
C620 C618 1.478 . S
C620 C622 1.381 . S
C620 C626 1.383 . S
C621 C617 1.495 . S
C621 H627 0.959 . S
C621 H628 0.961 . S
C621 H629 0.960 . S
C622 C620 1.381 . S
C622 C623 1.394 . S
C622 H630 0.930 . S
C623 C622 1.394 . S
C623 C624 1.383 . S
C623 H631 0.929 . S
C624 C623 1.383 . S
C624 C625 1.377 . S
C625 H609 0.930 . S
C625 C624 1.377 . S
C625 C626 1.379 . S
C626 H610 0.931 . S
C626 C620 1.383 . S
C626 C625 1.379 . S
H627 C621 0.959 . S
H628 C621 0.961 . S
H629 C621 0.960 . S
H630 C622 0.930 . S
H631 C623 0.929 . S
H632 C640 0.929 1_556 S
H633 C642 0.930 1_556 S
H634 C644 0.930 . S
H635 C647 0.929 . S
H636 C650 0.930 . S
H637 C652 0.960 . S
H638 C652 0.960 . S
H639 C652 0.960 . S
C640 H632 0.929 1_554 S
C640 C641 1.377 . S
C640 C642 1.384 . S
C641 C640 1.377 . S
C641 C647 1.390 . S
C642 H633 0.930 1_554 S
C642 C640 1.384 . S
C642 C643 1.372 . S
C643 C642 1.372 . S
C643 C644 1.400 . S
C643 C648 1.490 . S
C644 H634 0.930 . S
C644 C643 1.400 . S
C644 C647 1.386 . S
H645 C661 0.930 . S
H646 C662 0.931 . S
C647 H635 0.929 . S
C647 C641 1.390 . S
C647 C644 1.386 . S
C648 C643 1.490 . S
C648 C650 1.395 . S
C648 C651 1.403 1_565 S
H649 C655 0.930 . S
C650 H636 0.930 . S
C650 C648 1.395 . S
C650 C653 1.403 1_455 S
C651 C648 1.403 1_545 S
C651 C652 1.524 . S
C651 C655 1.400 1_455 S
C652 H637 0.960 . S
C652 H638 0.960 . S
C652 H639 0.960 . S
C652 C651 1.524 . S
C653 C650 1.403 1_655 S
C653 C654 1.392 1_565 S
C653 C657 1.495 . S
C654 C653 1.392 1_545 S
C654 C655 1.385 . S
C654 C656 1.478 . S
C655 H649 0.930 . S
C655 C651 1.400 1_655 S
C655 C654 1.385 . S
C656 C654 1.478 . S
C656 C658 1.381 . S
C656 C662 1.383 . S
C657 C653 1.495 . S
C657 H663 0.959 . S
C657 H664 0.961 . S
C657 H665 0.953 1_554 S
C658 C656 1.381 . S
C658 C659 1.394 . S
C658 H666 0.930 1_554 S
C659 C658 1.394 . S
C659 C660 1.383 . S
C659 H667 0.929 1_554 S
C660 C659 1.383 . S
C660 C661 1.377 . S
C661 H645 0.930 . S
C661 C660 1.377 . S
C661 C662 1.379 . S
C662 H646 0.931 . S
C662 C656 1.383 . S
C662 C661 1.379 . S
H663 C657 0.959 . S
H664 C657 0.961 . S
H665 C657 0.953 1_556 S
H666 C658 0.930 1_556 S
H667 C659 0.929 1_556 S
H668 C676 0.929 . S
H669 C678 0.930 . S
H670 C680 0.930 . S
H671 C683 0.929 . S
H672 C686 0.930 . S
H673 C688 0.960 . S
H674 C688 0.960 . S
H675 C688 0.960 . S
C676 H668 0.929 . S
C676 C677 1.377 . S
C676 C678 1.384 . S
C677 C676 1.377 . S
C677 C683 1.390 . S
C678 H669 0.930 . S
C678 C676 1.384 . S
C678 C679 1.372 . S
C679 C678 1.372 . S
C679 C680 1.400 . S
C679 C684 1.490 . S
C680 H670 0.930 . S
C680 C679 1.400 . S
C680 C683 1.386 . S
H681 C697 0.930 . S
H682 C698 0.931 . S
C683 H671 0.929 . S
C683 C677 1.390 . S
C683 C680 1.386 . S
C684 C679 1.490 . S
C684 C686 1.395 . S
C684 C687 1.403 1_655 S
H685 C691 0.930 . S
C686 H672 0.930 . S
C686 C684 1.395 . S
C686 C689 1.403 1_565 S
C687 C684 1.403 1_455 S
C687 C688 1.524 . S
C687 C691 1.400 1_565 S
C688 H673 0.960 . S
C688 H674 0.960 . S
C688 H675 0.960 . S
C688 C687 1.524 . S
C689 C686 1.403 1_545 S
C689 C690 1.392 1_655 S
C689 C693 1.495 . S
C690 C689 1.392 1_455 S
C690 C691 1.385 . S
C690 C692 1.478 . S
C691 H685 0.930 . S
C691 C687 1.400 1_545 S
C691 C690 1.385 . S
C692 C690 1.478 . S
C692 C694 1.381 . S
C692 C698 1.383 . S
C693 C689 1.495 . S
C693 H699 0.959 . S
C693 H700 0.961 . S
C693 H701 0.960 . S
C694 C692 1.381 . S
C694 C695 1.394 . S
C694 H702 0.930 . S
C695 C694 1.394 . S
C695 C696 1.383 . S
C695 H703 0.929 . S
C696 C695 1.383 . S
C696 C697 1.377 . S
C697 H681 0.930 . S
C697 C696 1.377 . S
C697 C698 1.379 . S
C698 H682 0.931 . S
C698 C692 1.383 . S
C698 C697 1.379 . S
H699 C693 0.959 . S
H700 C693 0.961 . S
H701 C693 0.960 . S
H702 C694 0.930 . S
H703 C695 0.929 . S
H704 C712 0.929 . S
H705 C714 0.930 . S
H706 C716 0.930 . S
H707 C719 0.929 . S
H708 C722 0.930 . S
H709 C724 0.960 . S
H710 C724 0.960 . S
H711 C724 0.960 . S
C712 H704 0.929 . S
C712 C713 1.377 . S
C712 C714 1.384 . S
C713 C712 1.377 . S
C713 C719 1.390 . S
C714 H705 0.930 . S
C714 C712 1.384 . S
C714 C715 1.372 . S
C715 C714 1.372 . S
C715 C716 1.400 . S
C715 C720 1.490 . S
C716 H706 0.930 . S
C716 C715 1.400 . S
C716 C719 1.386 . S
H717 C733 0.930 . S
H718 C734 0.931 . S
C719 H707 0.929 . S
C719 C713 1.390 . S
C719 C716 1.386 . S
C720 C715 1.490 . S
C720 C722 1.395 . S
C720 C723 1.403 . S
H721 C727 0.930 . S
C722 H708 0.930 . S
C722 C720 1.395 . S
C722 C725 1.403 . S
C723 C720 1.403 . S
C723 C724 1.524 . S
C723 C727 1.400 . S
C724 H709 0.960 . S
C724 H710 0.960 . S
C724 H711 0.960 . S
C724 C723 1.524 . S
C725 C722 1.403 . S
C725 C726 1.392 . S
C725 C729 1.495 . S
C726 C725 1.392 . S
C726 C727 1.385 . S
C726 C728 1.478 . S
C727 H721 0.930 . S
C727 C723 1.400 . S
C727 C726 1.385 . S
C728 C726 1.478 . S
C728 C730 1.381 . S
C728 C734 1.383 . S
C729 C725 1.495 . S
C729 H735 0.959 . S
C729 H736 0.961 . S
C729 H737 0.960 . S
C730 C728 1.381 . S
C730 C731 1.394 . S
C730 H738 0.930 . S
C731 C730 1.394 . S
C731 C732 1.383 . S
C731 H739 0.929 . S
C732 C731 1.383 . S
C732 C733 1.377 . S
C733 H717 0.930 . S
C733 C732 1.377 . S
C733 C734 1.379 . S
C734 H718 0.931 . S
C734 C728 1.383 . S
C734 C733 1.379 . S
H735 C729 0.959 . S
H736 C729 0.961 . S
H737 C729 0.960 . S
H738 C730 0.930 . S
H739 C731 0.929 . S
H740 C748 0.929 . S
H741 C750 0.930 . S
H742 C752 0.930 . S
H743 C755 0.929 . S
H744 C758 0.930 . S
H745 C760 0.960 . S
H746 C760 0.960 . S
H747 C760 0.960 . S
C748 H740 0.929 . S
C748 C749 1.377 . S
C748 C750 1.384 . S
C749 C748 1.377 . S
C749 C755 1.390 . S
C750 H741 0.930 . S
C750 C748 1.384 . S
C750 C751 1.372 . S
C751 C750 1.372 . S
C751 C752 1.400 . S
C751 C756 1.490 . S
C752 H742 0.930 . S
C752 C751 1.400 . S
C752 C755 1.386 . S
H753 C769 0.930 . S
H754 C770 0.931 . S
C755 H743 0.929 . S
C755 C749 1.390 . S
C755 C752 1.386 . S
C756 C751 1.490 . S
C756 C758 1.395 . S
C756 C759 1.403 . S
H757 C763 0.930 . S
C758 H744 0.930 . S
C758 C756 1.395 . S
C758 C761 1.403 . S
C759 C756 1.403 . S
C759 C760 1.524 . S
C759 C763 1.400 . S
C760 H745 0.960 . S
C760 H746 0.960 . S
C760 H747 0.960 . S
C760 C759 1.524 . S
C761 C758 1.403 . S
C761 C762 1.392 . S
C761 C765 1.495 . S
C762 C761 1.392 . S
C762 C763 1.385 . S
C762 C764 1.478 . S
C763 H757 0.930 . S
C763 C759 1.400 . S
C763 C762 1.385 . S
C764 C762 1.478 . S
C764 C766 1.381 . S
C764 C770 1.383 . S
C765 C761 1.495 . S
C765 H771 0.959 . S
C765 H772 0.961 . S
C765 H773 0.960 . S
C766 C764 1.381 . S
C766 C767 1.394 . S
C766 H774 0.930 . S
C767 C766 1.394 . S
C767 C768 1.383 . S
C767 H775 0.929 . S
C768 C767 1.383 . S
C768 C769 1.377 . S
C769 H753 0.930 . S
C769 C768 1.377 . S
C769 C770 1.379 . S
C770 H754 0.931 . S
C770 C764 1.383 . S
C770 C769 1.379 . S
H771 C765 0.959 . S
H772 C765 0.961 . S
H773 C765 0.960 . S
H774 C766 0.930 . S
H775 C767 0.929 . S
H776 C784 0.929 . S
H777 C786 0.930 . S
H778 C788 0.930 . S
H779 C791 0.929 . S
H780 C794 0.930 . S
H781 C796 0.960 . S
H782 C796 0.960 . S
H783 C796 0.960 . S
C784 H776 0.929 . S
C784 C785 1.377 . S
C784 C786 1.384 . S
C785 C784 1.377 . S
C785 C791 1.390 . S
C786 H777 0.930 . S
C786 C784 1.384 . S
C786 C787 1.372 . S
C787 C786 1.372 . S
C787 C788 1.400 . S
C787 C792 1.490 . S
C788 H778 0.930 . S
C788 C787 1.400 . S
C788 C791 1.386 . S
H789 C805 0.930 . S
H790 C806 0.931 . S
C791 H779 0.929 . S
C791 C785 1.390 . S
C791 C788 1.386 . S
C792 C787 1.490 . S
C792 C794 1.395 . S
C792 C795 1.403 . S
H793 C799 0.930 . S
C794 H780 0.930 . S
C794 C792 1.395 . S
C794 C797 1.403 . S
C795 C792 1.403 . S
C795 C796 1.524 . S
C795 C799 1.400 . S
C796 H781 0.960 . S
C796 H782 0.960 . S
C796 H783 0.960 . S
C796 C795 1.524 . S
C797 C794 1.403 . S
C797 C798 1.392 . S
C797 C801 1.495 . S
C798 C797 1.392 . S
C798 C799 1.385 . S
C798 C800 1.478 . S
C799 H793 0.930 . S
C799 C795 1.400 . S
C799 C798 1.385 . S
C800 C798 1.478 . S
C800 C802 1.381 . S
C800 C806 1.383 . S
C801 C797 1.495 . S
C801 H807 0.959 . S
C801 H808 0.961 . S
C801 H809 0.960 . S
C802 C800 1.381 . S
C802 C803 1.394 . S
C802 H810 0.930 . S
C803 C802 1.394 . S
C803 C804 1.383 . S
C803 H811 0.929 . S
C804 C803 1.383 . S
C804 C805 1.377 . S
C805 H789 0.930 . S
C805 C804 1.377 . S
C805 C806 1.379 . S
C806 H790 0.931 . S
C806 C800 1.383 . S
C806 C805 1.379 . S
H807 C801 0.959 . S
H808 C801 0.961 . S
H809 C801 0.960 . S
H810 C802 0.930 . S
H811 C803 0.929 . S
H812 C820 0.929 . S
H813 C822 0.930 . S
H814 C824 0.930 . S
H815 C827 0.929 . S
H816 C830 0.930 . S
H817 C832 0.960 . S
H818 C832 0.960 . S
H819 C832 0.960 . S
C820 H812 0.929 . S
C820 C821 1.377 . S
C820 C822 1.384 . S
C821 C820 1.377 . S
C821 C827 1.390 . S
C822 H813 0.930 . S
C822 C820 1.384 . S
C822 C823 1.372 . S
C823 C822 1.372 . S
C823 C824 1.400 . S
C823 C828 1.490 . S
C824 H814 0.930 . S
C824 C823 1.400 . S
C824 C827 1.386 . S
H825 C841 0.930 . S
H826 C842 0.931 . S
C827 H815 0.929 . S
C827 C821 1.390 . S
C827 C824 1.386 . S
C828 C823 1.490 . S
C828 C830 1.395 . S
C828 C831 1.403 . S
H829 C835 0.930 . S
C830 H816 0.930 . S
C830 C828 1.395 . S
C830 C833 1.403 . S
C831 C828 1.403 . S
C831 C832 1.524 . S
C831 C835 1.400 . S
C832 H817 0.960 . S
C832 H818 0.960 . S
C832 H819 0.960 . S
C832 C831 1.524 . S
C833 C830 1.403 . S
C833 C834 1.392 . S
C833 C837 1.495 . S
C834 C833 1.392 . S
C834 C835 1.385 . S
C834 C836 1.478 . S
C835 H829 0.930 . S
C835 C831 1.400 . S
C835 C834 1.385 . S
C836 C834 1.478 . S
C836 C838 1.381 . S
C836 C842 1.383 . S
C837 C833 1.495 . S
C837 H843 0.959 . S
C837 H844 0.961 . S
C837 H845 0.960 . S
C838 C836 1.381 . S
C838 C839 1.394 . S
C838 H846 0.930 . S
C839 C838 1.394 . S
C839 C840 1.383 . S
C839 H847 0.929 . S
C840 C839 1.383 . S
C840 C841 1.377 . S
C841 H825 0.930 . S
C841 C840 1.377 . S
C841 C842 1.379 . S
C842 H826 0.931 . S
C842 C836 1.383 . S
C842 C841 1.379 . S
H843 C837 0.959 . S
H844 C837 0.961 . S
H845 C837 0.960 . S
H846 C838 0.930 . S
H847 C839 0.929 . S
H848 C856 0.929 . S
H849 C858 0.930 . S
H850 C860 0.930 . S
H851 C863 0.929 . S
H852 C866 0.930 . S
H853 C868 0.960 . S
H854 C868 0.960 . S
H855 C868 0.960 . S
C856 H848 0.929 . S
C856 C857 1.377 . S
C856 C858 1.384 . S
C857 C856 1.377 . S
C857 C863 1.390 . S
C858 H849 0.930 . S
C858 C856 1.384 . S
C858 C859 1.372 . S
C859 C858 1.372 . S
C859 C860 1.400 . S
C859 C864 1.490 . S
C860 H850 0.930 . S
C860 C859 1.400 . S
C860 C863 1.386 . S
H861 C877 0.930 . S
H862 C878 0.931 . S
C863 H851 0.929 . S
C863 C857 1.390 . S
C863 C860 1.386 . S
C864 C859 1.490 . S
C864 C866 1.395 . S
C864 C867 1.403 . S
H865 C871 0.930 . S
C866 H852 0.930 . S
C866 C864 1.395 . S
C866 C869 1.403 . S
C867 C864 1.403 . S
C867 C868 1.524 . S
C867 C871 1.400 . S
C868 H853 0.960 . S
C868 H854 0.960 . S
C868 H855 0.960 . S
C868 C867 1.524 . S
C869 C866 1.403 . S
C869 C870 1.392 . S
C869 C873 1.495 . S
C870 C869 1.392 . S
C870 C871 1.385 . S
C870 C872 1.478 . S
C871 H865 0.930 . S
C871 C867 1.400 . S
C871 C870 1.385 . S
C872 C870 1.478 . S
C872 C874 1.381 . S
C872 C878 1.383 . S
C873 C869 1.495 . S
C873 H879 0.959 . S
C873 H880 0.961 . S
C873 H881 0.960 . S
C874 C872 1.381 . S
C874 C875 1.394 . S
C874 H882 0.930 . S
C875 C874 1.394 . S
C875 C876 1.383 . S
C875 H883 0.929 . S
C876 C875 1.383 . S
C876 C877 1.377 . S
C877 H861 0.930 . S
C877 C876 1.377 . S
C877 C878 1.379 . S
C878 H862 0.931 . S
C878 C872 1.383 . S
C878 C877 1.379 . S
H879 C873 0.959 . S
H880 C873 0.961 . S
H881 C873 0.960 . S
H882 C874 0.930 . S
H883 C875 0.929 . S
H884 C892 0.929 . S
H885 C894 0.930 . S
H886 C896 0.930 . S
H887 C899 0.929 . S
H888 C902 0.930 . S
H889 C904 0.960 . S
H890 C904 0.960 . S
H891 C904 0.960 . S
C892 H884 0.929 . S
C892 C893 1.377 . S
C892 C894 1.384 . S
C893 C892 1.377 . S
C893 C899 1.390 . S
C894 H885 0.930 . S
C894 C892 1.384 . S
C894 C895 1.372 . S
C895 C894 1.372 . S
C895 C896 1.400 . S
C895 C900 1.490 . S
C896 H886 0.930 . S
C896 C895 1.400 . S
C896 C899 1.386 . S
H897 C913 0.930 . S
H898 C914 0.931 . S
C899 H887 0.929 . S
C899 C893 1.390 . S
C899 C896 1.386 . S
C900 C895 1.490 . S
C900 C902 1.395 . S
C900 C903 1.403 . S
H901 C907 0.930 . S
C902 H888 0.930 . S
C902 C900 1.395 . S
C902 C905 1.403 . S
C903 C900 1.403 . S
C903 C904 1.524 . S
C903 C907 1.400 . S
C904 H889 0.960 . S
C904 H890 0.960 . S
C904 H891 0.960 . S
C904 C903 1.524 . S
C905 C902 1.403 . S
C905 C906 1.392 . S
C905 C909 1.495 . S
C906 C905 1.392 . S
C906 C907 1.385 . S
C906 C908 1.478 . S
C907 H901 0.930 . S
C907 C903 1.400 . S
C907 C906 1.385 . S
C908 C906 1.478 . S
C908 C910 1.381 . S
C908 C914 1.383 . S
C909 C905 1.495 . S
C909 H915 0.959 . S
C909 H916 0.961 . S
C909 H917 0.960 . S
C910 C908 1.381 . S
C910 C911 1.394 . S
C910 H918 0.930 . S
C911 C910 1.394 . S
C911 C912 1.383 . S
C911 H919 0.929 . S
C912 C911 1.383 . S
C912 C913 1.377 . S
C913 H897 0.930 . S
C913 C912 1.377 . S
C913 C914 1.379 . S
C914 H898 0.931 . S
C914 C908 1.383 . S
C914 C913 1.379 . S
H915 C909 0.959 . S
H916 C909 0.961 . S
H917 C909 0.960 . S
H918 C910 0.930 . S
H919 C911 0.929 . S
H920 C928 0.929 . S
H921 C930 0.930 . S
H922 C932 0.930 . S
H923 C935 0.929 . S
H924 C938 0.930 . S
H925 C940 0.960 . S
H926 C940 0.960 . S
H927 C940 0.960 . S
C928 H920 0.929 . S
C928 C929 1.377 . S
C928 C930 1.384 . S
C929 C928 1.377 . S
C929 C935 1.390 . S
C930 H921 0.930 . S
C930 C928 1.384 . S
C930 C931 1.372 . S
C931 C930 1.372 . S
C931 C932 1.400 . S
C931 C936 1.490 . S
C932 H922 0.930 . S
C932 C931 1.400 . S
C932 C935 1.386 . S
H933 C949 0.930 . S
H934 C950 0.931 . S
C935 H923 0.929 . S
C935 C929 1.390 . S
C935 C932 1.386 . S
C936 C931 1.490 . S
C936 C938 1.395 . S
C936 C939 1.403 . S
H937 C943 0.930 . S
C938 H924 0.930 . S
C938 C936 1.395 . S
C938 C941 1.403 . S
C939 C936 1.403 . S
C939 C940 1.524 . S
C939 C943 1.400 . S
C940 H925 0.960 . S
C940 H926 0.960 . S
C940 H927 0.960 . S
C940 C939 1.524 . S
C941 C938 1.403 . S
C941 C942 1.392 . S
C941 C945 1.495 . S
C942 C941 1.392 . S
C942 C943 1.385 . S
C942 C944 1.478 . S
C943 H937 0.930 . S
C943 C939 1.400 . S
C943 C942 1.385 . S
C944 C942 1.478 . S
C944 C946 1.381 . S
C944 C950 1.383 . S
C945 C941 1.495 . S
C945 H951 0.959 . S
C945 H952 0.961 . S
C945 H953 0.960 . S
C946 C944 1.381 . S
C946 C947 1.394 . S
C946 H954 0.930 . S
C947 C946 1.394 . S
C947 C948 1.383 . S
C947 H955 0.929 . S
C948 C947 1.383 . S
C948 C949 1.377 . S
C949 H933 0.930 . S
C949 C948 1.377 . S
C949 C950 1.379 . S
C950 H934 0.931 . S
C950 C944 1.383 . S
C950 C949 1.379 . S
H951 C945 0.959 . S
H952 C945 0.961 . S
H953 C945 0.960 . S
H954 C946 0.930 . S
H955 C947 0.929 . S
H956 C964 0.929 . S
H957 C966 0.930 . S
H958 C968 0.930 . S
H959 C971 0.929 . S
H960 C974 0.930 . S
H961 C976 0.960 . S
H962 C976 0.960 . S
H963 C976 0.960 . S
C964 H956 0.929 . S
C964 C965 1.377 . S
C964 C966 1.384 . S
C965 C964 1.377 . S
C965 C971 1.390 . S
C966 H957 0.930 . S
C966 C964 1.384 . S
C966 C967 1.372 . S
C967 C966 1.372 . S
C967 C968 1.400 . S
C967 C972 1.490 . S
C968 H958 0.930 . S
C968 C967 1.400 . S
C968 C971 1.386 . S
H969 C985 0.930 . S
H970 C986 0.931 . S
C971 H959 0.929 . S
C971 C965 1.390 . S
C971 C968 1.386 . S
C972 C967 1.490 . S
C972 C974 1.395 . S
C972 C975 1.403 . S
H973 C979 0.930 . S
C974 H960 0.930 . S
C974 C972 1.395 . S
C974 C977 1.403 . S
C975 C972 1.403 . S
C975 C976 1.524 . S
C975 C979 1.400 . S
C976 H961 0.960 . S
C976 H962 0.960 . S
C976 H963 0.960 . S
C976 C975 1.524 . S
C977 C974 1.403 . S
C977 C978 1.392 . S
C977 C981 1.495 . S
C978 C977 1.392 . S
C978 C979 1.385 . S
C978 C980 1.478 . S
C979 H973 0.930 . S
C979 C975 1.400 . S
C979 C978 1.385 . S
C980 C978 1.478 . S
C980 C982 1.381 . S
C980 C986 1.383 . S
C981 C977 1.495 . S
C981 H987 0.959 . S
C981 H988 0.961 . S
C981 H989 0.960 . S
C982 C980 1.381 . S
C982 C983 1.394 . S
C982 H990 0.930 . S
C983 C982 1.394 . S
C983 C984 1.383 . S
C983 H991 0.929 . S
C984 C983 1.383 . S
C984 C985 1.377 . S
C985 H969 0.930 . S
C985 C984 1.377 . S
C985 C986 1.379 . S
C986 H970 0.931 . S
C986 C980 1.383 . S
C986 C985 1.379 . S
H987 C981 0.959 . S
H988 C981 0.961 . S
H989 C981 0.960 . S
H990 C982 0.930 . S
H991 C983 0.929 . S
C281 C209 0.137 . S
C300 C9 0.455 . S
C317 C243 0.126 . S
C336 C43 0.451 . S
C353 C141 0.149 . S
C372 C77 0.504 . S
C389 C175 0.157 . S
C408 C111 0.621 . S
C425 C73 0.159 . S
C444 C145 0.597 . S
C461 C107 0.127 . S
C480 C179 0.448 . S
C497 C5 0.136 . S
C516 C213 0.577 . S
C533 C247 0.534 . S
C552 C39 0.225 . S
C569 C101 2.851 . S
C588 C33 2.844 . S
C605 C67 2.853 . S
C624 C135 2.852 . S
C641 C237 2.851 . S
C660 C169 2.842 . S
C677 C203 2.851 . S
C696 C271 2.842 . S
C713 C20 1.718 . S
C732 C258 1.719 . S
C749 C156 1.715 . S
C768 C54 1.707 . S
C785 C190 1.714 . S
C804 C88 1.704 . S
C821 C224 1.716 . S
C840 C122 1.710 . S
C857 C70 2.066 . S
C876 C172 2.055 . S
C893 C104 2.065 . S
C912 C206 2.072 . S
C929 C240 2.067 . S
C948 C2 2.072 . S
C965 C138 2.069 . S
C984 C36 2.063 . S
