# Generated by pormake.
# Topology wkh, (6)-cn, num edge types: 1
# Building blocks:
#     Node 0, Type 0, BuildingBlock: IZENUY_clean_sbu_0, # of connection points: 6
#     Node 1, Type 0, BuildingBlock: IZENUY_clean_sbu_0, # of connection points: 6
#     Node 2, Type 0, BuildingBlock: IZENUY_clean_sbu_0, # of connection points: 6
#     Node 3, Type 0, BuildingBlock: IZENUY_clean_sbu_0, # of connection points: 6
#     Node 4, Type 0, BuildingBlock: IZENUY_clean_sbu_0, # of connection points: 6
#     Node 5, Type 0, BuildingBlock: IZENUY_clean_sbu_0, # of connection points: 6
#     Node 6, Type 0, BuildingBlock: IZENUY_clean_sbu_0, # of connection points: 6
#     Node 7, Type 0, BuildingBlock: IZENUY_clean_sbu_0, # of connection points: 6
#     Node 8, Type 0, BuildingBlock: IZENUY_clean_sbu_0, # of connection points: 6
#     Node 9, Type 0, BuildingBlock: IZENUY_clean_sbu_0, # of connection points: 6
#     Node 10, Type 0, BuildingBlock: IZENUY_clean_sbu_0, # of connection points: 6
#     Node 11, Type 0, BuildingBlock: IZENUY_clean_sbu_0, # of connection points: 6
#     Edge 12, Type (0, 0), BuildingBlock: MIFKUJ_clean_linker_0, # of connection points: 2
#     Edge 13, Type (0, 0), BuildingBlock: MIFKUJ_clean_linker_0, # of connection points: 2
#     Edge 14, Type (0, 0), BuildingBlock: MIFKUJ_clean_linker_0, # of connection points: 2
#     Edge 15, Type (0, 0), BuildingBlock: MIFKUJ_clean_linker_0, # of connection points: 2
#     Edge 16, Type (0, 0), BuildingBlock: MIFKUJ_clean_linker_0, # of connection points: 2
#     Edge 17, Type (0, 0), BuildingBlock: MIFKUJ_clean_linker_0, # of connection points: 2
#     Edge 18, Type (0, 0), BuildingBlock: MIFKUJ_clean_linker_0, # of connection points: 2
#     Edge 19, Type (0, 0), BuildingBlock: MIFKUJ_clean_linker_0, # of connection points: 2
#     Edge 20, Type (0, 0), BuildingBlock: MIFKUJ_clean_linker_0, # of connection points: 2
#     Edge 21, Type (0, 0), BuildingBlock: MIFKUJ_clean_linker_0, # of connection points: 2
#     Edge 22, Type (0, 0), BuildingBlock: MIFKUJ_clean_linker_0, # of connection points: 2
#     Edge 23, Type (0, 0), BuildingBlock: MIFKUJ_clean_linker_0, # of connection points: 2
#     Edge 24, Type (0, 0), BuildingBlock: MIFKUJ_clean_linker_0, # of connection points: 2
#     Edge 25, Type (0, 0), BuildingBlock: MIFKUJ_clean_linker_0, # of connection points: 2
#     Edge 26, Type (0, 0), BuildingBlock: MIFKUJ_clean_linker_0, # of connection points: 2
#     Edge 27, Type (0, 0), BuildingBlock: MIFKUJ_clean_linker_0, # of connection points: 2
#     Edge 28, Type (0, 0), BuildingBlock: MIFKUJ_clean_linker_0, # of connection points: 2
#     Edge 29, Type (0, 0), BuildingBlock: MIFKUJ_clean_linker_0, # of connection points: 2
#     Edge 30, Type (0, 0), BuildingBlock: MIFKUJ_clean_linker_0, # of connection points: 2
#     Edge 31, Type (0, 0), BuildingBlock: MIFKUJ_clean_linker_0, # of connection points: 2
#     Edge 32, Type (0, 0), BuildingBlock: MIFKUJ_clean_linker_0, # of connection points: 2
#     Edge 33, Type (0, 0), BuildingBlock: MIFKUJ_clean_linker_0, # of connection points: 2
#     Edge 34, Type (0, 0), BuildingBlock: MIFKUJ_clean_linker_0, # of connection points: 2
#     Edge 35, Type (0, 0), BuildingBlock: MIFKUJ_clean_linker_0, # of connection points: 2
#     Edge 36, Type (0, 0), BuildingBlock: MIFKUJ_clean_linker_0, # of connection points: 2
#     Edge 37, Type (0, 0), BuildingBlock: MIFKUJ_clean_linker_0, # of connection points: 2
#     Edge 38, Type (0, 0), BuildingBlock: MIFKUJ_clean_linker_0, # of connection points: 2
#     Edge 39, Type (0, 0), BuildingBlock: MIFKUJ_clean_linker_0, # of connection points: 2
#     Edge 40, Type (0, 0), BuildingBlock: MIFKUJ_clean_linker_0, # of connection points: 2
#     Edge 41, Type (0, 0), BuildingBlock: MIFKUJ_clean_linker_0, # of connection points: 2
#     Edge 42, Type (0, 0), BuildingBlock: MIFKUJ_clean_linker_0, # of connection points: 2
#     Edge 43, Type (0, 0), BuildingBlock: MIFKUJ_clean_linker_0, # of connection points: 2
#     Edge 44, Type (0, 0), BuildingBlock: MIFKUJ_clean_linker_0, # of connection points: 2
#     Edge 45, Type (0, 0), BuildingBlock: MIFKUJ_clean_linker_0, # of connection points: 2
#     Edge 46, Type (0, 0), BuildingBlock: MIFKUJ_clean_linker_0, # of connection points: 2
#     Edge 47, Type (0, 0), BuildingBlock: MIFKUJ_clean_linker_0, # of connection points: 2
# Relax obj value: 0.287
# Max RMSD: 0.256
# Mean RMSD: 0.256
data_MOF--net-wkh--node1-IZENUY_clean_sbu_0--edge1-MIFKUJ_clean_linker_0
_symmetry_space_group_name_H-M    P1
_symmetry_Int_Tables_number       1
_symmetry_cell_setting            triclinic
loop_
_symmetry_equiv_pos_as_xyz
'x, y, z'
_cell_length_a     34.148109
_cell_length_b     34.195367
_cell_length_c     103.20104
_cell_angle_alpha  89.956913
_cell_angle_beta   90.018505
_cell_angle_gamma 120.00805
loop_
_atom_site_label
_atom_site_type_symbol
_atom_site_fract_x
_atom_site_fract_y
_atom_site_fract_z
_atom_type_partial_charge
Fe0 Fe 0.23552 0.31491 0.01987 0.0
Fe1 Fe 0.31552 0.29901 0.0217 0.0
O2 O 0.28857 0.32912 0.02667 0.0
Fe3 Fe 0.31407 0.37231 0.03856 0.0
O4 O 0.26595 0.3434 0.04934 0.0
O5 O 0.21317 0.32764 0.03475 0.0
O6 O 0.21016 0.2582 0.026 0.0
C7 C 0.22474 0.2318 0.02364 0.0
C8 C 0.27243 0.40549 0.02075 0.0
O9 O 0.2633 0.24617 0.01867 0.0
C10 C 0.38819 0.38823 0.02435 0.0
O11 O 0.24745 0.29825 1.00371 0.0
O12 O 0.31892 0.31708 1.00503 0.0
O13 O 0.29081 0.40668 0.03161 0.0
O14 O 0.25791 0.37123 1.01357 0.0
C15 C 0.32847 0.30269 0.04789 0.0
O16 O 0.37274 0.34612 0.02395 0.0
O17 O 0.36477 0.40449 0.02873 0.0
C18 C 0.28422 0.30615 0.99824 0.0
O19 O 0.31291 0.27863 0.03794 0.0
O20 O 0.34014 0.34431 0.04774 0.0
C21 C 0.2254 0.33082 0.04653 0.0
Fe22 Fe 0.94373 0.30937 0.20527 0.0
Fe23 Fe 0.92303 0.23203 0.1861 0.0
O24 O 0.96147 0.28539 0.19292 0.0
Fe25 Fe 0.01798 0.31433 0.18743 0.0
O26 O 0.03893 0.31346 0.20329 0.0
O27 O 0.99887 0.33693 0.21401 0.0
O28 O 0.92766 0.26118 0.21576 0.0
C29 C 0.90016 0.2205 0.21302 0.0
C30 C 0.99875 0.3852 0.19104 0.0
O31 O 0.88981 0.20847 0.20126 0.0
C32 C 0.97778 0.2825 0.16422 0.0
O33 O 0.88482 0.28434 0.19892 0.0
O34 O 0.88667 0.25278 0.18055 0.0
O35 O 0.02599 0.37059 0.18989 0.0
O36 O 0.95958 0.36043 0.19573 0.0
C37 C 0.9978 0.22407 0.18876 0.0
O38 O 0.94989 0.24522 0.16963 0.0
O39 O 1.0007 0.31699 0.17109 0.0
C40 C 0.86647 0.26552 0.18819 0.0
O41 O 0.95663 0.20781 0.19139 0.0
O42 O 0.0208 0.26337 0.18413 0.0
C43 C 0.032 0.32976 0.21335 0.0
Fe44 Fe 0.6958 0.9213 0.35337 0.0
Fe45 Fe 0.70817 0.01607 0.35409 0.0
O46 O 0.67998 0.95972 0.35971 0.0
Fe47 Fe 0.63742 0.94225 0.37183 0.0
O48 O 0.66839 0.92558 0.38268 0.0
O49 O 0.68392 0.88757 0.36849 0.0
O50 O 0.75282 0.95481 0.35939 0.0
C51 C 0.77767 0.99619 0.35708 0.0
C52 C 0.60536 0.86536 0.35461 0.0
O53 O 0.76207 0.01839 0.3515 0.0
C54 C 0.61787 0.99776 0.35726 0.0
O55 O 0.71193 0.94834 0.33697 0.0
O56 O 0.69013 0.99864 0.33759 0.0
O57 O 0.60372 0.88364 0.36525 0.0
O58 O 0.63938 0.88526 0.34728 0.0
C59 C 0.70592 0.02899 0.38022 0.0
O60 O 0.6598 0.02448 0.35595 0.0
O61 O 0.60313 0.95876 0.36207 0.0
C62 C 0.70331 0.97611 0.33114 0.0
O63 O 0.72864 0.03698 0.37001 0.0
O64 O 0.66495 0.99716 0.38066 0.0
C65 C 0.68159 0.89797 0.38018 0.0
Fe66 Fe 0.69942 0.63689 0.53911 0.0
Fe67 Fe 0.77679 0.68977 0.5196 0.0
O68 O 0.72426 0.67759 0.52654 0.0
Fe69 Fe 0.6971 0.70675 0.52094 0.0
O70 O 0.69923 0.72963 0.53671 0.0
O71 O 0.67391 0.66651 0.54773 0.0
O72 O 0.74848 0.66832 0.54942 0.0
C73 C 0.78854 0.67903 0.54654 0.0
C74 C 0.62388 0.6179 0.5249 0.0
O75 O 0.79961 0.67915 0.53476 0.0
C76 C 0.72749 0.69588 0.49775 0.0
O77 O 0.72228 0.6011 0.53296 0.0
O78 O 0.75307 0.63201 0.51428 0.0
O79 O 0.63987 0.65991 0.52351 0.0
O80 O 0.64765 0.60259 0.52974 0.0
C81 C 0.78854 0.77392 0.52229 0.0
O82 O 0.76439 0.70398 0.50314 0.0
O83 O 0.69336 0.68604 0.50463 0.0
C84 C 0.7399 0.59976 0.5222 0.0
O85 O 0.80363 0.7479 0.52471 0.0
O86 O 0.74952 0.75924 0.51757 0.0
C87 C 0.68314 0.70739 0.54694 0.0
Fe88 Fe 0.06508 0.70014 0.70518 0.0
Fe89 Fe 0.08946 0.77525 0.68479 0.0
O90 O 0.04967 0.72328 0.69203 0.0
Fe91 Fe 0.99365 0.69434 0.68613 0.0
O92 O 0.97252 0.70051 0.70149 0.0
O93 O 0.00903 0.67558 0.71335 0.0
O94 O 0.08171 0.74983 0.71499 0.0
C95 C 0.11028 0.78999 0.71202 0.0
C96 C 0.00961 0.62277 0.69174 0.0
O97 O 0.12061 0.80117 0.70018 0.0
C98 C 0.03712 0.72045 0.6631 0.0
O99 O 0.12443 0.7228 0.6996 0.0
O100 O 0.1262 0.75335 0.68072 0.0
O101 O 0.98318 0.63815 0.69025 0.0
O102 O 0.04882 0.64755 0.69637 0.0
C103 C 0.01543 0.78508 0.68455 0.0
O104 O 0.06485 0.75861 0.66813 0.0
O105 O 0.01215 0.68738 0.67031 0.0
C106 C 0.14457 0.74061 0.68899 0.0
O107 O 0.05559 0.80116 0.68834 0.0
O108 O 0.99261 0.74458 0.68093 0.0
C109 C 0.97886 0.6869 0.7122 0.0
Fe110 Fe 0.31882 0.0864 0.85252 0.0
Fe111 Fe 0.30694 0.9916 0.85381 0.0
O112 O 0.33437 0.0482 0.85922 0.0
Fe113 Fe 0.37684 0.06624 0.87139 0.0
O114 O 0.34513 0.08198 0.8821 0.0
O115 O 0.32806 0.11897 0.86785 0.0
O116 O 0.26078 0.05222 0.85765 0.0
C117 C 0.23608 0.01152 0.85452 0.0
C118 C 0.40909 0.14338 0.85449 0.0
O119 O 0.25298 0.98831 0.85053 0.0
C120 C 0.39749 0.01161 0.85701 0.0
O121 O 0.30547 0.05997 0.836 0.0
O122 O 0.32598 0.00863 0.83737 0.0
O123 O 0.41007 0.12495 0.86512 0.0
O124 O 0.37581 0.12344 0.84695 0.0
C125 C 0.3095 0.979 0.87982 0.0
O126 O 0.35561 0.984 0.85613 0.0
O127 O 0.41182 0.05078 0.86161 0.0
C128 C 0.31388 0.03141 0.83059 0.0
O129 O 0.28574 0.97093 0.86979 0.0
O130 O 0.3501 0.01149 0.88011 0.0
C131 C 0.33116 0.10899 0.87958 0.0
Fe132 Fe 0.70379 0.68748 0.83874 0.0
Fe133 Fe 0.63065 0.70158 0.82603 0.0
O134 O 0.67943 0.72209 0.83601 0.0
Fe135 Fe 0.7054 0.777 0.84277 0.0
O136 O 0.76264 0.78677 0.84084 0.0
O137 O 0.75513 0.72715 0.83043 0.0
O138 O 0.68463 0.65616 0.82354 0.0
C139 C 0.68016 0.67102 0.81282 0.0
C140 C 0.71865 0.7321 0.86291 0.0
O141 O 0.66087 0.69422 0.81243 0.0
C142 C 0.61094 0.74659 0.84473 0.0
O143 O 0.65337 0.64618 0.84704 0.0
O144 O 0.60667 0.64207 0.83165 0.0
O145 O 0.70098 0.75541 0.85944 0.0
O146 O 0.72836 0.71159 0.85448 0.0
C147 C 0.68331 0.7932 0.81811 0.0
O148 O 0.59779 0.70986 0.83862 0.0
O149 O 0.65238 0.77629 0.84543 0.0
C150 C 0.6155 0.62487 0.84144 0.0
O151 O 0.64601 0.75647 0.81873 0.0
O152 O 0.71288 0.80349 0.82684 0.0
C153 C 0.77747 0.76868 0.83305 0.0
Fe154 Fe 0.01241 0.69956 1.00983 0.0
Fe155 Fe 0.94371 0.62989 0.99099 0.0
O156 O 0.9567 0.66894 1.00384 0.0
Fe157 Fe 0.91419 0.67766 1.01072 0.0
O158 O 0.9437 0.73641 1.00641 0.0
O159 O 0.00918 0.74978 1.01409 0.0
O160 O 0.03335 0.72539 0.9943 0.0
C161 C 0.02931 0.7043 0.98395 0.0
C162 C 0.96861 0.68248 0.03278 0.0
O163 O 0.9998 0.66259 0.98297 0.0
C164 C 0.86476 0.58765 1.00724 0.0
O165 O 0.02591 0.65516 1.00664 0.0
O166 O 0.96193 0.59643 1.00036 0.0
O167 O 0.93905 0.68982 0.02749 0.0
O168 O 0.99469 0.67559 0.02577 0.0
C169 C 0.89529 0.67024 0.98347 0.0
O170 O 0.88458 0.59137 0.99648 0.0
O171 O 0.8819 0.61919 1.01538 0.0
C172 C 1.00087 0.61295 1.00536 0.0
O173 O 0.92559 0.66077 0.98078 0.0
O174 O 0.88247 0.66852 0.99518 0.0
C175 C 0.98359 0.76344 1.00972 0.0
Fe176 Fe 0.32192 0.01659 0.17065 0.0
Fe177 Fe 0.30801 0.92929 0.15802 0.0
O178 O 0.28694 0.95781 0.16764 0.0
Fe179 Fe 0.23115 0.92911 0.17378 0.0
O180 O 0.22244 0.97719 0.17173 0.0
O181 O 0.2838 0.0295 0.16201 0.0
O182 O 0.35463 0.02903 0.1556 0.0
C183 C 0.34069 0.0095 0.14486 0.0
C184 C 0.27423 0.98538 0.19436 0.0
O185 O 0.31689 0.96709 0.14443 0.0
C186 C 0.26022 0.86425 0.17637 0.0
O187 O 0.36185 0.00646 0.17932 0.0
O188 O 0.36735 0.96453 0.16404 0.0
O189 O 0.25074 0.94494 0.19056 0.0
O190 O 0.29625 0.01661 0.18629 0.0
C191 C 0.21686 0.89076 0.14934 0.0
O192 O 0.29801 0.88789 0.17073 0.0
O193 O 0.23066 0.87626 0.17653 0.0
C194 C 0.38396 0.99061 0.17385 0.0
O195 O 0.25348 0.89 0.15033 0.0
O196 O 0.20656 0.91116 0.15767 0.0
C197 C 0.24207 0.0111 0.1643 0.0
Fe198 Fe 0.38 0.30775 0.32494 0.0
Fe199 Fe 0.30443 0.22983 0.34093 0.0
O200 O 0.33125 0.28607 0.33506 0.0
Fe201 Fe 0.30799 0.32101 0.33878 0.0
O202 O 0.32684 0.35394 0.32387 0.0
O203 O 0.34972 0.31742 0.31173 0.0
O204 O 0.36433 0.2539 0.31691 0.0
C205 C 0.32679 0.21763 0.31589 0.0
C206 C 0.39632 0.38301 0.34127 0.0
O207 O 0.29691 0.20647 0.32456 0.0
C208 C 0.29314 0.27226 0.3622 0.0
O209 O 0.41251 0.29703 0.33714 0.0
O210 O 0.35728 0.22955 0.34317 0.0
O211 O 0.35912 0.36049 0.34713 0.0
O212 O 0.40469 0.3667 0.3312 0.0
C213 C 0.23279 0.24156 0.33238 0.0
O214 O 0.3085 0.24777 0.35797 0.0
O215 O 0.28419 0.29525 0.35444 0.0
C216 C 0.39887 0.2592 0.34273 0.0
O217 O 0.24751 0.22122 0.33935 0.0
O218 O 0.25584 0.28349 0.33047 0.0
C219 C 0.32967 0.33979 0.31287 0.0
Fe220 Fe 0.07571 0.3784 0.49145 0.0
Fe221 Fe 0.07554 0.30293 0.50799 0.0
O222 O 0.04754 0.33101 0.50198 0.0
Fe223 Fe 0.98986 0.31065 0.50596 0.0
O224 O 0.97575 0.32828 0.49074 0.0
O225 O 0.03478 0.3477 0.47857 0.0
O226 O 0.11237 0.36018 0.48366 0.0
C227 C 0.10941 0.32186 0.48287 0.0
C228 C 0.02045 0.40007 0.50758 0.0
O229 O 0.08956 0.29275 0.49166 0.0
C230 C 0.024 0.29587 0.52944 0.0
O231 O 0.1197 0.41094 0.50344 0.0
O232 O 0.12991 0.3547 0.50973 0.0
O233 O 1.00426 0.36342 0.51375 0.0
O234 O 0.04351 0.40575 0.49732 0.0
C235 C 0.98975 0.2326 0.50059 0.0
O236 O 0.06334 0.30925 0.52501 0.0
O237 O 0.99199 0.28857 0.52188 0.0
C238 C 0.14313 0.39652 0.5091 0.0
O239 O 0.02588 0.24709 0.50702 0.0
O240 O 0.97228 0.25678 0.49836 0.0
C241 C 0.99246 0.32989 0.47973 0.0
Fe242 Fe 0.68852 0.99006 0.67321 0.0
Fe243 Fe 0.70322 0.07565 0.65927 0.0
O244 O 0.72386 0.04827 0.6696 0.0
Fe245 Fe 0.77976 0.07738 0.67571 0.0
O246 O 0.78793 0.02888 0.6746 0.0
O247 O 0.72672 0.97578 0.66509 0.0
O248 O 0.6565 0.97636 0.65814 0.0
C249 C 0.67185 0.99348 0.64722 0.0
C250 C 0.73542 0.02418 0.69684 0.0
O251 O 0.69439 0.03588 0.64613 0.0
C252 C 0.75105 0.14272 0.67712 0.0
O253 O 0.64839 1.00154 0.68131 0.0
O254 O 0.64384 0.04153 0.66524 0.0
O255 O 0.76041 0.06404 0.69265 0.0
O256 O 0.71354 0.99216 0.68901 0.0
C257 C 0.79357 0.11131 0.65058 0.0
O258 O 0.71331 0.11871 0.67146 0.0
O259 O 0.78062 0.13073 0.67757 0.0
C260 C 0.6269 0.01719 0.67535 0.0
O261 O 0.75786 0.11372 0.65153 0.0
O262 O 0.80399 0.09238 0.65937 0.0
C263 C 0.76863 0.9951 0.66717 0.0
H264 H 0.80178 0.53902 0.98845 0.0
H265 H 0.71946 0.50176 0.9908 0.0
H266 H 0.73486 0.52753 0.03194 0.0
H267 H 0.81657 0.56315 0.02972 0.0
H268 H 0.66236 0.45282 0.02871 0.0
H269 H 0.72305 0.59853 1.0094 0.0
H270 H 0.75978 0.66188 0.99398 0.0
H271 H 0.66828 0.5797 0.96403 0.0
H272 H 0.63167 0.51556 0.97917 0.0
H273 H 0.45468 0.45143 0.03978 0.0
H274 H 0.53665 0.48414 0.03653 0.0
H275 H 0.51169 0.42036 0.99905 0.0
H276 H 0.43012 0.38687 1.00241 0.0
H277 H 0.58722 0.5131 1.00045 0.0
H278 H 0.52516 0.36783 0.02196 0.0
H279 H 0.48192 0.31482 0.03956 0.0
H280 H 0.57539 0.40692 0.0676 0.0
H281 H 0.61872 0.4609 0.05018 0.0
C282 C 0.78755 0.53529 0.99805 0.0
C283 C 0.81588 0.55441 1.00888 0.0
C284 C 0.74043 0.51461 0.99937 0.0
C285 C 0.7208 0.51296 1.0115 0.0
C286 C 0.74892 0.52861 0.02245 0.0
C287 C 0.79582 0.54899 0.02116 0.0
C288 C 0.67164 0.49769 1.0128 0.0
C289 C 0.64622 0.46634 0.02254 0.0
C290 C 0.65001 0.51508 1.00482 0.0
C291 C 0.67498 0.55207 0.99538 0.0
C292 C 0.71141 0.59366 0.99945 0.0
C293 C 0.73213 0.62977 0.99077 0.0
C294 C 0.7164 0.62479 0.97804 0.0
C295 C 0.6805 0.58348 0.97389 0.0
C296 C 0.65986 0.54721 0.9825 0.0
C297 C 0.46694 0.44574 0.0307 0.0
C298 C 0.43641 0.4172 0.02126 0.0
C299 C 0.51357 0.46394 0.02891 0.0
C300 C 0.53007 0.45422 0.0176 0.0
C301 C 0.49963 0.4282 1.00783 0.0
C302 C 0.45316 0.40933 1.00972 0.0
C303 C 0.57864 0.46856 0.01621 0.0
C304 C 0.60368 0.49955 1.00648 0.0
C305 C 0.60008 0.45167 0.02436 0.0
C306 C 0.57494 0.41858 0.03478 0.0
C307 C 0.53634 0.3769 0.03189 0.0
C308 C 0.51181 0.34667 0.04183 0.0
C309 C 0.52582 0.35754 0.05469 0.0
C310 C 0.56453 0.39857 0.05763 0.0
C311 C 0.5891 0.42899 0.04773 0.0
H312 H 0.50673 0.33414 0.06238 0.0
H313 H 0.73167 0.65301 0.97141 0.0
H314 H 0.20246 0.81911 0.19599 0.0
H315 H 0.15903 0.73759 0.19901 0.0
H316 H 0.23637 0.72022 0.16883 0.0
H317 H 0.2797 0.80243 0.16561 0.0
H318 H 0.14777 0.66848 0.16439 0.0
H319 H 0.24332 0.6944 0.20114 0.0
H320 H 0.28212 0.73054 0.22154 0.0
H321 H 0.15403 0.68554 0.24009 0.0
H322 H 0.11443 0.64962 0.21975 0.0
H323 H 0.06126 0.43488 0.17302 0.0
H324 H 0.10433 0.51662 0.17104 0.0
H325 H 0.023 0.52881 0.201 0.0
H326 H 0.97981 0.44593 0.2032 0.0
H327 H 0.11204 0.58325 0.20573 0.0
H328 H 0.01666 0.55969 0.16902 0.0
H329 H 0.97737 0.52389 0.14862 0.0
H330 H 0.1048 0.564 0.13027 0.0
H331 H 0.14482 0.59977 0.15059 0.0
C332 C 0.2113 0.79806 0.19028 0.0
C333 C 0.24474 0.81729 0.18061 0.0
C334 C 0.18632 0.7513 0.19201 0.0
C335 C 0.19426 0.72247 0.18416 0.0
C336 C 0.22954 0.74171 0.17501 0.0
C337 C 0.25478 0.78875 0.17329 0.0
C338 C 0.16305 0.67258 0.18478 0.0
C339 C 0.14062 0.64977 0.17341 0.0
C340 C 0.1522 0.64822 0.19661 0.0
C341 C 0.17592 0.66964 0.20888 0.0
C342 C 0.22342 0.6925 0.20954 0.0
C343 C 0.24556 0.71289 0.2211 0.0
C344 C 0.22056 0.71043 0.23209 0.0
C345 C 0.17335 0.68745 0.23156 0.0
C346 C 0.15104 0.66702 0.22002 0.0
C347 C 0.05178 0.45483 0.17902 0.0
C348 C 0.01705 0.43388 0.18827 0.0
C349 C 0.07643 0.50172 0.17783 0.0
C350 C 0.06692 0.52915 0.1858 0.0
C351 C 0.03096 0.50837 0.19471 0.0
C352 C 0.00596 0.46103 0.19588 0.0
C353 C 0.09699 0.57924 0.18535 0.0
C354 C 0.11918 0.60206 0.19674 0.0
C355 C 0.1076 0.60368 0.17356 0.0
C356 C 0.08369 0.58225 0.16133 0.0
C357 C 0.03627 0.56067 0.16065 0.0
C358 C 0.01388 0.54045 0.1491 0.0
C359 C 0.03857 0.54163 0.13816 0.0
C360 C 0.08571 0.56306 0.13875 0.0
C361 C 0.10826 0.58342 0.15027 0.0
H362 H 0.02118 0.52599 0.12923 0.0
H363 H 0.23777 0.72625 0.24103 0.0
H364 H 0.47777 0.27607 0.33086 0.0
H365 H 0.51692 0.23291 0.33393 0.0
H366 H 0.42938 0.16247 0.36616 0.0
H367 H 0.39026 0.20524 0.36309 0.0
H368 H 0.51637 0.17831 0.37021 0.0
H369 H 0.40196 0.11736 0.33713 0.0
H370 H 0.36467 0.12145 0.31712 0.0
H371 H 0.48423 0.15434 0.29525 0.0
H372 H 0.5226 0.15141 0.3152 0.0
H373 H 0.54204 0.98393 0.37063 0.0
H374 H 0.50378 0.02848 0.36854 0.0
H375 H 0.58904 0.0998 0.336 0.0
H376 H 0.6272 0.05584 0.33809 0.0
H377 H 0.50233 0.08295 0.33228 0.0
H378 H 0.6168 0.14407 0.36532 0.0
H379 H 0.65437 0.14051 0.38532 0.0
H380 H 0.53504 0.10783 0.40728 0.0
H381 H 0.4963 0.11007 0.38733 0.0
C382 C 0.46808 0.25267 0.3389 0.0
C383 C 0.431 0.24415 0.34675 0.0
C384 C 0.4901 0.22758 0.34056 0.0
C385 C 0.47559 0.1938 0.35015 0.0
C386 C 0.44115 0.18813 0.35868 0.0
C387 C 0.41888 0.21274 0.35693 0.0
C388 C 0.49289 0.16139 0.35054 0.0
C389 C 0.51293 0.15719 0.36196 0.0
C390 C 0.4887 0.13389 0.33975 0.0
C391 C 0.46534 0.13464 0.32769 0.0
C392 C 0.42043 0.12578 0.32807 0.0
C393 C 0.39908 0.12788 0.31674 0.0
C394 C 0.4221 0.13824 0.30493 0.0
C395 C 0.46646 0.14639 0.30442 0.0
C396 C 0.48804 0.14453 0.31573 0.0
C397 C 0.55164 0.00819 0.36281 0.0
C398 C 0.58763 0.01639 0.35453 0.0
C399 C 0.5301 0.03397 0.36169 0.0
C400 C 0.54394 0.06804 0.3522 0.0
C401 C 0.57775 0.07392 0.3434 0.0
C402 C 0.59956 0.04871 0.34462 0.0
C403 C 0.52596 0.09993 0.35195 0.0
C404 C 0.50574 0.10401 0.34055 0.0
C405 C 0.52998 0.1273 0.36275 0.0
C406 C 0.55344 0.12669 0.3748 0.0
C407 C 0.59841 0.13575 0.37439 0.0
C408 C 0.61994 0.13399 0.38572 0.0
C409 C 0.59708 0.12386 0.39756 0.0
C410 C 0.55267 0.11557 0.39809 0.0
C411 C 0.53089 0.11703 0.38677 0.0
H412 H 0.61382 0.12255 0.40632 0.0
H413 H 0.40552 0.13986 0.29617 0.0
H414 H 0.18929 0.38329 0.52832 0.0
H415 H 0.27091 0.42232 0.5314 0.0
H416 H 0.28731 0.51787 0.5016 0.0
H417 H 0.20497 0.47808 0.49832 0.0
H418 H 0.34079 0.48267 0.49716 0.0
H419 H 0.31139 0.54934 0.5339 0.0
H420 H 0.27392 0.55034 0.55421 0.0
H421 H 0.32081 0.46892 0.57277 0.0
H422 H 0.35807 0.4669 0.55251 0.0
H423 H 0.57471 0.63268 0.50705 0.0
H424 H 0.49289 0.59352 0.50459 0.0
H425 H 0.47931 0.49789 0.53402 0.0
H426 H 0.56211 0.53767 0.53663 0.0
H427 H 0.42426 0.532 0.53876 0.0
H428 H 0.45381 0.46551 0.50214 0.0
H429 H 0.48973 0.46266 0.48171 0.0
H430 H 0.44185 0.5428 0.46288 0.0
H431 H 0.40612 0.54665 0.48324 0.0
C432 C 0.21012 0.4134 0.52266 0.0
C433 C 0.19057 0.42767 0.5131 0.0
C434 C 0.25693 0.43576 0.52445 0.0
C435 C 0.28553 0.47318 0.51676 0.0
C436 C 0.26599 0.48906 0.50766 0.0
C437 C 0.21887 0.46668 0.5059 0.0
C438 C 0.33561 0.4929 0.51753 0.0
C439 C 0.35917 0.4943 0.50622 0.0
C440 C 0.35947 0.50639 0.52943 0.0
C441 C 0.3372 0.50765 0.54164 0.0
C442 C 0.31342 0.53135 0.54228 0.0
C443 C 0.29227 0.53216 0.55379 0.0
C444 C 0.29489 0.50962 0.56477 0.0
C445 C 0.31877 0.48633 0.56426 0.0
C446 C 0.33996 0.48539 0.55277 0.0
C447 C 0.55444 0.60279 0.51286 0.0
C448 C 0.57497 0.58833 0.52206 0.0
C449 C 0.50752 0.58028 0.51139 0.0
C450 C 0.47968 0.54256 0.51907 0.0
C451 C 0.50007 0.5269 0.52797 0.0
C452 C 0.54738 0.54937 0.52938 0.0
C453 C 0.4295 0.52206 0.51838 0.0
C454 C 0.40589 0.52045 0.5297 0.0
C455 C 0.40558 0.50836 0.50648 0.0
C456 C 0.42766 0.50673 0.49427 0.0
C457 C 0.45133 0.48292 0.49368 0.0
C458 C 0.47156 0.48103 0.4821 0.0
C459 C 0.46819 0.50264 0.47102 0.0
C460 C 0.44455 0.52618 0.47148 0.0
C461 C 0.42424 0.52817 0.48304 0.0
H462 H 0.4838 0.50106 0.46206 0.0
H463 H 0.27849 0.51028 0.57367 0.0
H464 H 0.80896 0.18807 0.69666 0.0
H465 H 0.85149 0.26943 0.69986 0.0
H466 H 0.7728 0.28646 0.67 0.0
H467 H 0.73054 0.20431 0.66653 0.0
H468 H 0.86055 0.33933 0.66548 0.0
H469 H 0.76673 0.31077 0.70284 0.0
H470 H 0.72967 0.27361 0.72334 0.0
H471 H 0.85937 0.32009 0.74104 0.0
H472 H 0.89723 0.35704 0.72059 0.0
H473 H 0.9449 0.57203 0.67439 0.0
H474 H 0.902 0.4903 0.67262 0.0
H475 H 0.98596 0.47922 0.70196 0.0
H476 H 0.02902 0.56221 0.70398 0.0
H477 H 0.89742 0.42321 0.70702 0.0
H478 H 0.99136 0.45255 0.66992 0.0
H479 H 0.02893 0.48943 0.64945 0.0
H480 H 0.89967 0.44104 0.63127 0.0
H481 H 0.86128 0.40438 0.65168 0.0
C482 C 0.79969 0.20897 0.69103 0.0
C483 C 0.76623 0.18965 0.68136 0.0
C484 C 0.82412 0.25567 0.69288 0.0
C485 C 0.81551 0.28441 0.6852 0.0
C486 C 0.78016 0.26505 0.67605 0.0
C487 C 0.75554 0.21802 0.67419 0.0
C488 C 0.84625 0.33441 0.68592 0.0
C489 C 0.86791 0.35777 0.67453 0.0
C490 C 0.85751 0.35838 0.69781 0.0
C491 C 0.83481 0.33636 0.71014 0.0
C492 C 0.78735 0.31279 0.71107 0.0
C493 C 0.7662 0.29182 0.72269 0.0
C494 C 0.79214 0.2944 0.73347 0.0
C495 C 0.83931 0.31808 0.73267 0.0
C496 C 0.86064 0.3391 0.72108 0.0
C497 C 0.95488 0.55236 0.68035 0.0
C498 C 0.99041 0.57369 0.68935 0.0
C499 C 0.93032 0.50544 0.67927 0.0
C500 C 0.94074 0.47831 0.68708 0.0
C501 C 0.97728 0.49943 0.6958 0.0
C502 C 1.00219 0.54682 0.69687 0.0
C503 C 0.91134 0.42812 0.68656 0.0
C504 C 0.89003 0.40472 0.69797 0.0
C505 C 0.90045 0.40404 0.6747 0.0
C506 C 0.92344 0.42599 0.66238 0.0
C507 C 0.97093 0.45005 0.66159 0.0
C508 C 0.99238 0.47087 0.64998 0.0
C509 C 0.96671 0.46766 0.63907 0.0
C510 C 0.91952 0.44353 0.63973 0.0
C511 C 0.8979 0.42267 0.65131 0.0
H512 H 0.98338 0.48379 0.6301 0.0
H513 H 0.7757 0.27813 0.74246 0.0
H514 H 0.53116 0.72824 0.83315 0.0
H515 H 0.49263 0.77201 0.83595 0.0
H516 H 0.58164 0.84437 0.86773 0.0
H517 H 0.61969 0.80054 0.86507 0.0
H518 H 0.49818 0.83302 0.87183 0.0
H519 H 0.60786 0.88479 0.83724 0.0
H520 H 0.64071 0.87493 0.81706 0.0
H521 H 0.51836 0.84117 0.79657 0.0
H522 H 0.48444 0.84996 0.81668 0.0
H523 H 0.47477 0.02796 0.87002 0.0
H524 H 0.51302 0.98335 0.86827 0.0
H525 H 0.42538 0.90822 0.83652 0.0
H526 H 0.38757 0.95252 0.8382 0.0
H527 H 0.50973 0.92222 0.83259 0.0
H528 H 0.39936 0.86818 0.8671 0.0
H529 H 0.3656 0.87703 0.88723 0.0
H530 H 0.48898 0.91514 0.90775 0.0
H531 H 0.5237 0.90715 0.88769 0.0
C532 C 0.5412 0.7521 0.84107 0.0
C533 C 0.57854 0.76104 0.84886 0.0
C534 C 0.51958 0.77758 0.84256 0.0
C535 C 0.53499 0.81233 0.85186 0.0
C536 C 0.56932 0.81809 0.86044 0.0
C537 C 0.59098 0.79286 0.85892 0.0
C538 C 0.51895 0.84569 0.85184 0.0
C539 C 0.50108 0.85276 0.86328 0.0
C540 C 0.52252 0.87149 0.84068 0.0
C541 C 0.54341 0.86753 0.8285 0.0
C542 C 0.58786 0.87499 0.82844 0.0
C543 C 0.60664 0.86952 0.81703 0.0
C544 C 0.58153 0.8572 0.80556 0.0
C545 C 0.53771 0.85059 0.80547 0.0
C546 C 0.51868 0.85578 0.81687 0.0
C547 C 0.46474 1.00291 0.86243 0.0
C548 C 0.42812 0.99361 0.85428 0.0
C549 C 0.48624 0.97709 0.86151 0.0
C550 C 0.47152 0.94179 0.8524 0.0
C551 C 0.43728 0.93501 0.84365 0.0
C552 C 0.41567 0.9604 0.84463 0.0
C553 C 0.48874 0.90939 0.85256 0.0
C554 C 0.50692 0.90254 0.84115 0.0
C555 C 0.48546 0.88381 0.86374 0.0
C556 C 0.46428 0.88754 0.87587 0.0
C557 C 0.41936 0.87868 0.87589 0.0
C558 C 0.40006 0.88354 0.88729 0.0
C559 C 0.4252 0.89682 0.89875 0.0
C560 C 0.46959 0.90497 0.89886 0.0
C561 C 0.4891 0.90026 0.88748 0.0
H562 H 0.41027 0.90072 0.90755 0.0
H563 H 0.59602 0.85287 0.79674 0.0
H564 H 0.62081 0.57906 0.86246 0.0
H565 H 0.58615 0.49747 0.86508 0.0
H566 H 0.51328 0.47692 0.82927 0.0
H567 H 0.5476 0.55881 0.82662 0.0
H568 H 0.46166 0.41352 0.84718 0.0
H569 H 0.61088 0.47405 0.82975 0.0
H570 H 0.69336 0.52551 0.82899 0.0
H571 H 0.70784 0.47479 0.86569 0.0
H572 H 0.62528 0.42348 0.86676 0.0
H573 H 0.41452 0.1933 0.83314 0.0
H574 H 0.45086 0.27525 0.83158 0.0
H575 H 0.50898 0.28848 0.86951 0.0
H576 H 0.47211 0.20599 0.87129 0.0
H577 H 0.56839 0.35527 0.85098 0.0
H578 H 0.41852 0.29558 0.86837 0.0
H579 H 0.33592 0.24494 0.86901 0.0
H580 H 0.32323 0.29377 0.8318 0.0
H581 H 0.4059 0.34473 0.83093 0.0
C582 C 0.5968 0.55727 0.85523 0.0
C583 C 0.5874 0.57568 0.84425 0.0
C584 C 0.5772 0.51053 0.85671 0.0
C585 C 0.54795 0.48097 0.84721 0.0
C586 C 0.53604 0.49902 0.83669 0.0
C587 C 0.55558 0.54592 0.83521 0.0
C588 C 0.53173 0.43159 0.84797 0.0
C589 C 0.48507 0.40086 0.84785 0.0
C590 C 0.56214 0.41484 0.84908 0.0
C591 C 0.61185 0.44523 0.8484 0.0
C592 C 0.63161 0.47408 0.8377 0.0
C593 C 0.67838 0.5032 0.83721 0.0
C594 C 0.70581 0.50349 0.8473 0.0
C595 C 0.68654 0.47456 0.85789 0.0
C596 C 0.63976 0.44543 0.85844 0.0
C597 C 0.43573 0.21345 0.84109 0.0
C598 C 0.43992 0.19273 0.85241 0.0
C599 C 0.45634 0.26043 0.84019 0.0
C600 C 0.48193 0.288 0.85052 0.0
C601 C 0.48914 0.26783 0.86144 0.0
C602 C 0.46817 0.2206 0.86241 0.0
C603 C 0.49844 0.3374 0.85018 0.0
C604 C 0.54509 0.36806 0.85034 0.0
C605 C 0.46808 0.35413 0.84905 0.0
C606 C 0.4184 0.32361 0.84953 0.0
C607 C 0.39815 0.29526 0.86028 0.0
C608 C 0.35131 0.26654 0.86069 0.0
C609 C 0.32435 0.26592 0.85042 0.0
C610 C 0.34417 0.29422 0.83974 0.0
C611 C 0.391 0.32311 0.8393 0.0
H612 H 0.28808 0.24362 0.85076 0.0
H613 H 0.74202 0.52607 0.84691 0.0
H614 H 0.99229 0.53929 0.99209 0.0
H615 H 0.03902 0.50388 0.99503 0.0
H616 H 0.10243 0.58842 0.02837 0.0
H617 H 0.05718 0.62466 0.02517 0.0
H618 H 0.16471 0.59318 1.01366 0.0
H619 H 0.02779 0.4707 0.03047 0.0
H620 H 0.94697 0.4126 0.03068 0.0
H621 H 0.96611 0.35061 0.99695 0.0
H622 H 0.04698 0.40872 0.99643 0.0
H623 H 0.27262 0.46966 0.03692 0.0
H624 H 0.22763 0.50691 0.03428 0.0
H625 H 0.18582 0.44764 0.99636 0.0
H626 H 0.2311 0.41114 0.99875 0.0
H627 H 0.11309 0.42948 1.01363 0.0
H628 H 0.25229 0.55468 0.99767 0.0
H629 H 0.33317 0.61225 0.9988 0.0
H630 H 0.30872 0.66816 0.03303 0.0
H631 H 0.22773 0.61047 0.0322 0.0
C632 C 0.01542 0.54939 1.00022 0.0
C633 C 0.02122 0.5847 1.00839 0.0
C634 C 0.04222 0.52925 1.00189 0.0
C635 C 0.0745 0.54351 1.01193 0.0
C636 C 0.07826 0.57708 0.02049 0.0
C637 C 0.05214 0.59757 0.0187 0.0
C638 C 0.10657 0.52601 1.01306 0.0
C639 C 0.15319 0.55732 1.01384 0.0
C640 C 0.09197 0.47928 1.01308 0.0
C641 C 0.04334 0.44435 1.01333 0.0
C642 C 0.01469 0.44491 0.02303 0.0
C643 C 0.96889 0.41193 0.02322 0.0
C644 C 0.95139 0.37802 1.01381 0.0
C645 C 0.9797 0.37695 1.00422 0.0
C646 C 0.02553 0.40987 1.00398 0.0
C647 C 0.25504 0.46567 0.02786 0.0
C648 C 0.25531 0.43705 0.0181 0.0
C649 C 0.22905 0.48673 0.0264 0.0
C650 C 0.2029 0.47946 1.0152 0.0
C651 C 0.20535 0.45327 1.00514 0.0
C652 C 0.23157 0.43267 1.00651 0.0
C653 C 0.17078 0.49666 1.01422 0.0
C654 C 0.12429 0.46529 1.01347 0.0
C655 C 0.18539 0.54326 1.01444 0.0
C656 C 0.23405 0.57795 1.01495 0.0
C657 C 0.26423 0.57898 1.00551 0.0
C658 C 0.31008 0.61169 1.00608 0.0
C659 C 0.3261 0.64376 0.016 0.0
C660 C 0.29627 0.64325 0.02536 0.0
C661 C 0.25039 0.61058 0.02484 0.0
H662 H 0.3616 0.66907 0.01643 0.0
H663 H 0.91592 0.35251 1.01398 0.0
H664 H 0.42978 0.05071 0.19327 0.0
H665 H 0.51128 0.09849 0.19572 0.0
H666 H 0.53281 0.03041 0.16376 0.0
H667 H 0.45064 0.98253 0.16102 0.0
H668 H 0.59379 0.04991 0.18543 0.0
H669 H 0.54045 0.12525 0.15744 0.0
H670 H 0.49065 0.15495 0.1511 0.0
H671 H 0.53531 0.24337 0.18405 0.0
H672 H 0.58485 0.21362 0.19072 0.0
H673 H 0.81588 0.21607 0.16752 0.0
H674 H 0.73384 0.17126 0.16599 0.0
H675 H 0.72098 0.22573 0.20231 0.0
H676 H 0.80384 0.27014 0.20421 0.0
H677 H 0.65574 0.21437 0.17873 0.0
H678 H 0.70373 0.13629 0.20762 0.0
H679 H 0.75033 0.10442 0.21507 0.0
H680 H 0.7156 0.02213 0.18089 0.0
H681 H 0.66817 0.05334 0.17329 0.0
C682 C 0.45161 0.04521 0.18683 0.0
C683 C 0.4333 0.01281 0.17683 0.0
C684 C 0.49837 0.07284 0.18824 0.0
C685 C 0.5282 0.06864 0.17979 0.0
C686 C 0.51038 0.03444 0.17035 0.0
C687 C 0.46336 0.00694 0.16882 0.0
C688 C 0.57771 0.10145 0.18053 0.0
C689 C 0.60731 0.08574 0.1838 0.0
C690 C 0.5954 0.14848 0.17872 0.0
C691 C 0.56605 0.16686 0.17466 0.0
C692 C 0.53938 0.15075 0.1634 0.0
C693 C 0.51123 0.16764 0.15973 0.0
C694 C 0.50972 0.20095 0.16719 0.0
C695 C 0.53647 0.21752 0.1783 0.0
C696 C 0.56462 0.20068 0.18202 0.0
C697 C 0.79593 0.21942 0.17513 0.0
C698 C 0.81691 0.24676 0.18606 0.0
C699 C 0.74882 0.19354 0.17422 0.0
C700 C 0.72127 0.19482 0.18407 0.0
C701 C 0.74167 0.22426 0.19459 0.0
C702 C 0.78909 0.24977 0.19563 0.0
C703 C 0.6716 0.16272 0.18368 0.0
C704 C 0.64208 0.17853 0.18039 0.0
C705 C 0.65384 0.11579 0.18552 0.0
C706 C 0.68291 0.09754 0.18983 0.0
C707 C 0.70642 0.11176 0.20162 0.0
C708 C 0.73288 0.0937 0.20589 0.0
C709 C 0.73634 0.06154 0.19841 0.0
C710 C 0.71302 0.04715 0.18667 0.0
C711 C 0.68618 0.06488 0.1824 0.0
H712 H 0.75691 0.04763 0.20175 0.0
H713 H 0.48791 0.21399 0.16433 0.0
H714 H 0.37956 0.43008 0.35978 0.0
H715 H 0.41335 0.51163 0.36172 0.0
H716 H 0.50724 0.53094 0.33115 0.0
H717 H 0.47283 0.44871 0.32886 0.0
H718 H 0.54568 0.59228 0.35318 0.0
H719 H 0.42395 0.54006 0.32288 0.0
H720 H 0.34604 0.49084 0.31513 0.0
H721 H 0.29513 0.53693 0.34604 0.0
H722 H 0.37276 0.58569 0.35417 0.0
H723 H 0.60595 0.81505 0.3341 0.0
H724 H 0.56821 0.73312 0.33246 0.0
H725 H 0.49678 0.72014 0.36803 0.0
H726 H 0.53577 0.80287 0.37007 0.0
H727 H 0.44609 0.65576 0.34339 0.0
H728 H 0.56575 0.70195 0.37464 0.0
H729 H 0.64255 0.74717 0.38343 0.0
H730 H 0.69658 0.71261 0.35064 0.0
H731 H 0.61953 0.66641 0.34174 0.0
C732 C 0.40784 0.4514 0.35354 0.0
C733 C 0.42313 0.43245 0.34406 0.0
C734 C 0.42699 0.4982 0.35466 0.0
C735 C 0.46232 0.52742 0.34645 0.0
C736 C 0.47978 0.50898 0.33753 0.0
C737 C 0.46016 0.46193 0.33627 0.0
C738 C 0.47941 0.57696 0.3469 0.0
C739 C 0.52404 0.60614 0.35087 0.0
C740 C 0.45092 0.59509 0.34415 0.0
C741 C 0.40419 0.56618 0.33922 0.0
C742 C 0.39613 0.53939 0.32811 0.0
C743 C 0.35202 0.5116 0.32363 0.0
C744 C 0.31564 0.51069 0.3301 0.0
C745 C 0.32334 0.53762 0.34105 0.0
C746 C 0.36741 0.56533 0.3456 0.0
C747 C 0.58164 0.79511 0.34151 0.0
C748 C 0.57431 0.81602 0.35229 0.0
C749 C 0.56012 0.74806 0.34054 0.0
C750 C 0.52999 0.7205 0.35016 0.0
C751 C 0.51996 0.74085 0.36048 0.0
C752 C 0.54217 0.7882 0.36161 0.0
C753 C 0.51217 0.67084 0.34978 0.0
C754 C 0.46757 0.64176 0.34572 0.0
C755 C 0.54057 0.65267 0.35244 0.0
C756 C 0.58702 0.68125 0.35747 0.0
C757 C 0.59406 0.70437 0.36925 0.0
C758 C 0.63764 0.73007 0.37427 0.0
C759 C 0.67462 0.7332 0.36755 0.0
C760 C 0.66794 0.7103 0.35582 0.0
C761 C 0.62427 0.68417 0.35081 0.0
H762 H 0.70838 0.75318 0.37147 0.0
H763 H 0.28151 0.48922 0.32661 0.0
H764 H 0.01038 0.45729 0.49102 0.0
H765 H 0.96372 0.49206 0.49444 0.0
H766 H 0.93877 0.44368 0.53388 0.0
H767 H 0.98424 0.4077 0.53038 0.0
H768 H 0.86262 0.42354 0.52354 0.0
H769 H 1.00491 0.55956 0.52563 0.0
H770 H 0.08165 0.6167 0.51866 0.0
H771 H 0.02755 0.63996 0.48382 0.0
H772 H 0.95049 0.58251 0.4905 0.0
H773 H 0.75348 0.55051 0.54094 0.0
H774 H 0.80163 0.51657 0.53924 0.0
H775 H 0.82034 0.54822 0.49846 0.0
H776 H 0.7726 0.58245 0.50009 0.0
H777 H 0.90064 0.5783 0.51066 0.0
H778 H 0.75748 0.43882 0.50911 0.0
H779 H 0.68162 0.38301 0.51708 0.0
H780 H 0.73965 0.36894 0.55247 0.0
H781 H 0.81583 0.42513 0.54477 0.0
C782 C 0.99601 0.4551 0.50053 0.0
C783 C 1.00114 0.42969 0.51042 0.0
C784 C 0.96915 0.47499 0.50248 0.0
C785 C 0.9475 0.47067 0.51445 0.0
C786 C 0.95467 0.44733 0.52454 0.0
C787 C 0.98104 0.42703 0.52255 0.0
C788 C 0.91499 0.48758 0.51617 0.0
C789 C 0.87135 0.45768 0.52091 0.0
C790 C 0.92568 0.53184 0.51257 0.0
C791 C 0.97196 0.56641 0.50851 0.0
C792 C 0.00941 0.5766 0.51643 0.0
C793 C 0.05296 0.60909 0.51254 0.0
C794 C 0.05949 0.63186 0.50079 0.0
C795 C 0.02245 0.62226 0.49291 0.0
C796 C 0.97882 0.58977 0.49675 0.0
C797 C 0.76661 0.54899 0.53152 0.0
C798 C 0.75898 0.56923 0.52064 0.0
C799 C 0.79446 0.52978 0.53058 0.0
C800 C 0.81493 0.53001 0.51873 0.0
C801 C 0.80531 0.54794 0.50773 0.0
C802 C 0.77761 0.56716 0.50866 0.0
C803 C 0.84838 0.5141 0.51787 0.0
C804 C 0.89216 0.54424 0.51332 0.0
C805 C 0.83802 0.4703 0.5218 0.0
C806 C 0.79228 0.43646 0.52641 0.0
C807 C 0.75402 0.42407 0.51863 0.0
C808 C 0.71098 0.39233 0.5231 0.0
C809 C 0.70581 0.37252 0.53529 0.0
C810 C 0.7437 0.38435 0.54303 0.0
C811 C 0.78681 0.4161 0.53862 0.0
H812 H 0.67246 0.34795 0.53873 0.0
H813 H 0.09323 0.65701 0.4978 0.0
H814 H 0.55946 0.00935 0.65918 0.0
H815 H 0.47796 0.96192 0.66234 0.0
H816 H 0.50079 0.929 0.70095 0.0
H817 H 0.5824 0.97524 0.69766 0.0
H818 H 0.44346 0.85524 0.68977 0.0
H819 H 0.45288 0.99852 0.69438 0.0
H820 H 0.47388 0.07655 0.68855 0.0
H821 H 0.39581 0.02901 0.65359 0.0
H822 H 0.37481 0.95072 0.65912 0.0
H823 H 0.20647 0.75019 0.70772 0.0
H824 H 0.28909 0.7959 0.70613 0.0
H825 H 0.2777 0.81947 0.66562 0.0
H826 H 0.19558 0.7738 0.66708 0.0
H827 H 0.32876 0.89848 0.6789 0.0
H828 H 0.32096 0.75439 0.67477 0.0
H829 H 0.29952 0.67694 0.68143 0.0
H830 H 0.37409 0.72768 0.71685 0.0
H831 H 0.39548 0.80542 0.71047 0.0
C832 C 0.54716 0.99294 0.66846 0.0
C833 C 0.57765 0.9963 0.67817 0.0
C834 C 0.50035 0.96564 0.67027 0.0
C835 C 0.48278 0.94172 0.68193 0.0
C836 C 0.5132 0.94672 0.69183 0.0
C837 C 0.55997 0.97354 0.68998 0.0
C838 C 0.43309 0.9096 0.68352 0.0
C839 C 0.4185 0.86508 0.68759 0.0
C840 C 0.40007 0.92174 0.68048 0.0
C841 C 0.41262 0.96878 0.67712 0.0
C842 C 0.44047 0.00474 0.6854 0.0
C843 C 0.45232 0.04901 0.68216 0.0
C844 C 0.43628 0.05775 0.67069 0.0
C845 C 0.40826 0.0222 0.66246 0.0
C846 C 0.39633 0.97786 0.66565 0.0
C847 C 0.22156 0.76389 0.69838 0.0
C848 C 0.19412 0.75828 0.68754 0.0
C849 C 0.2689 0.79034 0.6975 0.0
C850 C 0.28973 0.81162 0.68577 0.0
C851 C 0.26252 0.80386 0.6748 0.0
C852 C 0.21544 0.77737 0.67565 0.0
C853 C 0.33937 0.84429 0.68503 0.0
C854 C 0.35387 0.88888 0.68113 0.0
C855 C 0.37224 0.83236 0.68836 0.0
C856 C 0.35939 0.78566 0.69221 0.0
C857 C 0.33244 0.74899 0.68403 0.0
C858 C 0.32038 0.70505 0.68774 0.0
C859 C 0.33532 0.69738 0.69957 0.0
C860 C 0.36247 0.73366 0.7077 0.0
C861 C 0.3746 0.77767 0.70404 0.0
H862 H 0.32596 0.66334 0.70243 0.0
H863 H 0.44549 0.09205 0.6682 0.0
H864 H 0.35775 0.32607 0.98305 0.0
H865 H 0.35907 0.29558 0.96178 0.0
H866 H 0.21335 0.22386 0.96075 0.0
H867 H 0.21176 0.25408 0.98219 0.0
H868 H 0.24383 0.1688 0.95378 0.0
H869 H 0.27684 0.31603 0.94085 0.0
H870 H 0.31649 0.39924 0.94136 0.0
H871 H 0.44154 0.40469 0.93185 0.0
H872 H 0.40275 0.32147 0.93147 0.0
H873 H 0.30024 0.17018 0.87926 0.0
H874 H 0.2856 0.20575 0.89795 0.0
H875 H 0.32621 0.13352 0.92385 0.0
H876 H 0.34039 0.09799 0.90546 0.0
H877 H 0.33775 0.26082 0.91684 0.0
H878 H 0.26885 0.10794 0.95196 0.0
H879 H 0.226 0.02474 0.951 0.0
H880 H 0.165 0.03029 0.91517 0.0
H881 H 0.20705 0.11352 0.916 0.0
C882 C 0.32586 0.3044 0.97824 0.0
C883 C 0.28461 0.29282 0.98441 0.0
C884 C 0.3267 0.28697 0.966 0.0
C885 C 0.28634 0.25742 0.95949 0.0
C886 C 0.24505 0.24655 0.96549 0.0
C887 C 0.24417 0.26423 0.97774 0.0
C888 C 0.28751 0.23637 0.9468 0.0
C889 C 0.26424 0.18902 0.9457 0.0
C890 C 0.31349 0.26241 0.93607 0.0
C891 C 0.33692 0.31248 0.93622 0.0
C892 C 0.31285 0.33496 0.93896 0.0
C893 C 0.33517 0.38214 0.93921 0.0
C894 C 0.38152 0.40724 0.93667 0.0
C895 C 0.40564 0.3852 0.93383 0.0
C896 C 0.38349 0.33803 0.93358 0.0
C897 C 0.30609 0.16196 0.88894 0.0
C898 C 0.32163 0.13115 0.89074 0.0
C899 C 0.29768 0.18233 0.89965 0.0
C900 C 0.3041 0.17201 0.91243 0.0
C901 C 0.31997 0.14157 0.91419 0.0
C902 C 0.32836 0.12135 0.90356 0.0
C903 C 0.29515 0.19326 0.92398 0.0
C904 C 0.31704 0.2406 0.92488 0.0
C905 C 0.26752 0.16719 0.93449 0.0
C906 C 0.24142 0.11705 0.934 0.0
C907 C 0.24611 0.09143 0.94391 0.0
C908 C 0.22199 0.04424 0.94338 0.0
C909 C 0.19286 0.02222 0.93302 0.0
C910 C 0.18768 0.04737 0.92318 0.0
C911 C 0.2117 0.09457 0.92366 0.0
H912 H 0.17427 0.98569 0.93262 0.0
H913 H 0.39874 0.44376 0.93687 0.0
H914 H 0.94363 0.21506 0.14547 0.0
H915 H 0.97449 0.21813 0.12375 0.0
H916 H 0.0773 0.35676 0.13033 0.0
H917 H 0.04536 0.35472 0.15143 0.0
H918 H 0.05732 0.35244 0.10707 0.0
H919 H 0.09086 0.25642 0.13385 0.0
H920 H 0.07017 0.19045 0.1479 0.0
H921 H 0.99307 0.10133 0.11691 0.0
H922 H 0.0127 0.1668 0.10274 0.0
H923 H 0.24494 0.36573 0.07104 0.0
H924 H 0.19276 0.35221 0.08896 0.0
H925 H 0.08028 0.26306 0.06482 0.0
H926 H 0.13241 0.27754 0.04658 0.0
H927 H 0.09636 0.23595 0.09469 0.0
H928 H 0.07006 0.33739 0.06764 0.0
H929 H 0.09637 0.40623 0.05444 0.0
H930 H 0.168 0.48817 0.08723 0.0
H931 H 0.14273 0.41971 0.10056 0.0
C932 C 0.97229 0.2464 0.14218 0.0
C933 C 0.99191 0.2845 0.15035 0.0
C934 C 0.99038 0.24803 0.12977 0.0
C935 C 0.02924 0.28743 0.12534 0.0
C936 C 0.04753 0.32581 0.13334 0.0
C937 C 0.02908 0.32449 0.14555 0.0
C938 C 0.05216 0.28918 0.11268 0.0
C939 C 0.06572 0.32678 0.10447 0.0
C940 C 0.06314 0.25578 0.10894 0.0
C941 C 0.05266 0.21649 0.11731 0.0
C942 C 0.06934 0.22275 0.13006 0.0
C943 C 0.0578 0.18547 0.13804 0.0
C944 C 0.03 0.14179 0.13332 0.0
C945 C 0.01433 0.13523 0.12056 0.0
C946 C 0.02565 0.17239 0.11255 0.0
C947 C 0.2091 0.34331 0.06948 0.0
C948 C 0.19294 0.32288 0.0573 0.0
C949 C 0.17929 0.33558 0.07977 0.0
C950 C 0.1326 0.30653 0.07828 0.0
C951 C 0.11619 0.28556 0.06621 0.0
C952 C 0.146 0.29409 0.05577 0.0
C953 C 0.10145 0.29913 0.08937 0.0
C954 C 0.08697 0.2609 0.09729 0.0
C955 C 0.09026 0.33222 0.09298 0.0
C956 C 0.10491 0.37342 0.08505 0.0
C957 C 0.09179 0.37007 0.072 0.0
C958 C 0.10644 0.40901 0.0645 0.0
C959 C 0.13396 0.45154 0.06998 0.0
C960 C 0.14674 0.45521 0.08299 0.0
C961 C 0.13224 0.41634 0.09052 0.0
H962 H 0.14529 0.48166 0.06416 0.0
H963 H 0.02042 0.11299 0.13955 0.0
H964 H 0.83456 0.13 0.21191 0.0
H965 H 0.79761 0.07794 0.23016 0.0
H966 H 0.879 0.18464 0.257 0.0
H967 H 0.91543 0.23648 0.23901 0.0
H968 H 0.87706 0.10651 0.26332 0.0
H969 H 0.76934 0.15353 0.25175 0.0
H970 H 0.71592 0.16174 0.23748 0.0
H971 H 0.63889 0.01791 0.23253 0.0
H972 H 0.6922 0.00888 0.24666 0.0
H973 H 0.71234 0.0507 0.3186 0.0
H974 H 0.74494 0.08013 0.2974 0.0
H975 H 0.76108 0.96459 0.29089 0.0
H976 H 0.7306 0.93581 0.3126 0.0
H977 H 0.71305 0.03507 0.27251 0.0
H978 H 0.83182 0.99183 0.28241 0.0
H979 H 0.89162 0.99019 0.29536 0.0
H980 H 0.95406 0.13304 0.30175 0.0
H981 H 0.89272 0.13478 0.28962 0.0
C982 C 0.84441 0.1424 0.2217 0.0
C983 C 0.87774 0.18774 0.22391 0.0
C984 C 0.8232 0.11257 0.23215 0.0
C985 C 0.83518 0.12731 0.24503 0.0
C986 C 0.86898 0.17228 0.2472 0.0
C987 C 0.88978 0.20204 0.23684 0.0
C988 C 0.81337 0.0965 0.25637 0.0
C989 C 0.84107 0.09059 0.26527 0.0
C990 C 0.76634 0.07502 0.25889 0.0
C991 C 0.73499 0.08056 0.25015 0.0
C992 C 0.74127 0.12369 0.24751 0.0
C993 C 0.7109 0.12847 0.2395 0.0
C994 C 0.67393 0.09035 0.23415 0.0
C995 C 0.66745 0.04739 0.23672 0.0
C996 C 0.69772 0.04242 0.24473 0.0
C997 C 0.72278 0.03126 0.31274 0.0
C998 C 0.71881 0.99071 0.31747 0.0
C999 C 0.7418 0.04846 0.30056 0.0
C1000 C 0.75728 0.02571 0.29261 0.0
C1001 C 0.7517 0.98421 0.29701 0.0
C1002 C 0.73328 0.9672 0.30937 0.0
C1003 C 0.77685 0.04524 0.27957 0.0
C1004 C 0.7488 0.04974 0.27039 0.0
C1005 C 0.82367 0.06536 0.27675 0.0
C1006 C 0.85643 0.06296 0.28563 0.0
C1007 C 0.85697 0.02241 0.28713 0.0
C1008 C 0.89146 0.02157 0.29421 0.0
C1009 C 0.92645 0.06142 0.29947 0.0
C1010 C 0.92675 0.1021 0.29778 0.0
C1011 C 0.89176 0.10289 0.29097 0.0
H1012 H 0.9534 0.06084 0.30484 0.0
H1013 H 0.6504 0.09411 0.22797 0.0
H1014 H 0.70367 0.8305 0.37934 0.0
H1015 H 0.71644 0.79228 0.39769 0.0
H1016 H 0.69595 0.87738 0.42432 0.0
H1017 H 0.68243 0.91497 0.40617 0.0
H1018 H 0.7708 0.86782 0.43091 0.0
H1019 H 0.61305 0.77445 0.41961 0.0
H1020 H 0.54756 0.72612 0.40576 0.0
H1021 H 0.59891 0.6357 0.39985 0.0
H1022 H 0.66512 0.68391 0.41352 0.0
H1023 H 0.65449 0.68636 0.48414 0.0
H1024 H 0.65325 0.71683 0.46299 0.0
H1025 H 0.79498 0.76194 0.45801 0.0
H1026 H 0.79697 0.73309 0.47966 0.0
H1027 H 0.66522 0.70518 0.43916 0.0
H1028 H 0.84327 0.85676 0.43865 0.0
H1029 H 0.90591 0.90042 0.4539 0.0
H1030 H 0.81054 0.87465 0.48443 0.0
H1031 H 0.74733 0.83152 0.46929 0.0
C1032 C 0.70172 0.84097 0.3891 0.0
C1033 C 0.69127 0.87544 0.3912 0.0
C1034 C 0.70912 0.81912 0.3996 0.0
C1035 C 0.70686 0.83163 0.41244 0.0
C1036 C 0.69785 0.86695 0.41454 0.0
C1037 C 0.6899 0.88834 0.40409 0.0
C1038 C 0.71275 0.80756 0.42377 0.0
C1039 C 0.74786 0.83216 0.43266 0.0
C1040 C 0.68307 0.76099 0.42613 0.0
C1041 C 0.64428 0.73304 0.41748 0.0
C1042 C 0.61069 0.74459 0.41523 0.0
C1043 C 0.57332 0.71709 0.40746 0.0
C1044 C 0.56896 0.67774 0.402 0.0
C1045 C 0.60222 0.66607 0.40415 0.0
C1046 C 0.6397 0.6935 0.41189 0.0
C1047 C 0.68553 0.70238 0.47857 0.0
C1048 C 0.72603 0.70759 0.4838 0.0
C1049 C 0.68467 0.71979 0.46635 0.0
C1050 C 0.72416 0.74279 0.45886 0.0
C1051 C 0.76414 0.74548 0.46366 0.0
C1052 C 0.76518 0.72848 0.47603 0.0
C1053 C 0.72305 0.76544 0.44644 0.0
C1054 C 0.68872 0.74065 0.43734 0.0
C1055 C 0.75335 0.81189 0.44391 0.0
C1056 C 0.79068 0.84042 0.45289 0.0
C1057 C 0.8357 0.86079 0.44859 0.0
C1058 C 0.87127 0.88534 0.45721 0.0
C1059 C 0.8622 0.88987 0.47014 0.0
C1060 C 0.81752 0.87086 0.47442 0.0
C1061 C 0.7818 0.84642 0.46582 0.0
H1062 H 0.88989 0.90805 0.47682 0.0
H1063 H 0.53989 0.65636 0.39604 0.0
H1064 H 0.8742 0.68966 0.54512 0.0
H1065 H 0.92595 0.70079 0.56307 0.0
H1066 H 0.82878 0.69818 0.59024 0.0
H1067 H 0.77742 0.68772 0.57245 0.0
H1068 H 0.91136 0.76299 0.59678 0.0
H1069 H 0.84196 0.60537 0.58494 0.0
H1070 H 0.82222 0.54337 0.56943 0.0
H1071 H 0.96313 0.59122 0.56271 0.0
H1072 H 0.98371 0.65397 0.57803 0.0
H1073 H 0.97352 0.64594 0.64997 0.0
H1074 H 0.94233 0.64303 0.62856 0.0
H1075 H 0.04171 0.78306 0.6224 0.0
H1076 H 0.07207 0.78681 0.64419 0.0
H1077 H 0.96413 0.65341 0.60411 0.0
H1078 H 0.99297 0.83374 0.60471 0.0
H1079 H 0.01183 0.89499 0.62044 0.0
H1080 H 0.94585 0.79715 0.65065 0.0
H1081 H 0.92514 0.73545 0.63504 0.0
C1082 C 0.86393 0.69169 0.5549 0.0
C1083 C 0.82134 0.68745 0.55727 0.0
C1084 C 0.89355 0.69789 0.56519 0.0
C1085 C 0.88128 0.69992 0.5781 0.0
C1086 C 0.83926 0.69677 0.58042 0.0
C1087 C 0.8097 0.69051 0.57019 0.0
C1088 C 0.91128 0.70421 0.58929 0.0
C1089 C 0.92314 0.73918 0.59831 0.0
C1090 C 0.9267 0.67315 0.59142 0.0
C1091 C 0.91437 0.63461 0.58254 0.0
C1092 C 0.86874 0.60277 0.58011 0.0
C1093 C 0.85739 0.56751 0.57135 0.0
C1094 C 0.8914 0.56343 0.56506 0.0
C1095 C 0.93682 0.59447 0.56757 0.0
C1096 C 0.94835 0.62988 0.5763 0.0
C1097 C 0.98937 0.67614 0.64405 0.0
C1098 C 0.02506 0.71689 0.64901 0.0
C1099 C 0.97144 0.67431 0.6317 0.0
C1100 C 0.98873 0.71302 0.62385 0.0
C1101 C 0.02684 0.75285 0.62832 0.0
C1102 C 0.0445 0.75491 0.6408 0.0
C1103 C 0.96413 0.71218 0.61166 0.0
C1104 C 0.95303 0.6777 0.60248 0.0
C1105 C 0.9489 0.7434 0.60943 0.0
C1106 C 0.95815 0.78004 0.61874 0.0
C1107 C 0.98205 0.82534 0.61468 0.0
C1108 C 0.99302 0.86014 0.62358 0.0
C1109 C 0.98027 0.85002 0.63655 0.0
C1110 C 0.95579 0.80504 0.64061 0.0
C1111 C 0.94422 0.77013 0.63173 0.0
H1112 H 0.98934 0.87706 0.64343 0.0
H1113 H 0.88254 0.53619 0.55825 0.0
H1114 H 0.27266 0.94475 0.82245 0.0
H1115 H 0.24297 0.91392 0.80123 0.0
H1116 H 0.28794 0.04801 0.7866 0.0
H1117 H 0.31529 0.0791 0.80847 0.0
H1118 H 0.21379 0.99524 0.77492 0.0
H1119 H 0.34547 0.98472 0.78007 0.0
H1120 H 0.39994 0.96795 0.7908 0.0
H1121 H 0.30045 0.82685 0.79167 0.0
H1122 H 0.24513 0.84281 0.78111 0.0
H1123 H 0.17018 0.88269 0.71104 0.0
H1124 H 0.2104 0.93361 0.72932 0.0
H1125 H 0.1463 0.8213 0.75575 0.0
H1126 H 0.10599 0.77094 0.73785 0.0
H1127 H 0.24216 0.87509 0.75873 0.0
H1128 H 0.11073 0.89432 0.7525 0.0
H1129 H 0.066 0.91798 0.73927 0.0
H1130 H 0.17816 0.05347 0.73795 0.0
H1131 H 0.22442 0.03031 0.75063 0.0
C1132 C 0.27674 0.968 0.81473 0.0
C1133 C 0.29748 0.01468 0.81716 0.0
C1134 C 0.2598 0.95019 0.80248 0.0
C1135 C 0.26451 0.97844 0.79197 0.0
C1136 C 0.28423 0.02521 0.7944 0.0
C1137 C 0.30015 0.0431 0.8069 0.0
C1138 C 0.2485 0.95827 0.77867 0.0
C1139 C 0.22076 0.96956 0.77132 0.0
C1140 C 0.25773 0.92499 0.77364 0.0
C1141 C 0.29105 0.91504 0.77985 0.0
C1142 C 0.33513 0.95014 0.7826 0.0
C1143 C 0.36616 0.94077 0.78865 0.0
C1144 C 0.35364 0.89638 0.79193 0.0
C1145 C 0.31009 0.86123 0.78912 0.0
C1146 C 0.2789 0.87041 0.78308 0.0
C1147 C 0.16453 0.86892 0.72075 0.0
C1148 C 0.13466 0.82247 0.72286 0.0
C1149 C 0.18753 0.89811 0.73121 0.0
C1150 C 0.18149 0.88137 0.74398 0.0
C1151 C 0.15175 0.83517 0.74604 0.0
C1152 C 0.12851 0.80632 0.73571 0.0
C1153 C 0.20629 0.91085 0.75533 0.0
C1154 C 0.23577 0.90122 0.7623 0.0
C1155 C 0.19985 0.94657 0.75969 0.0
C1156 C 0.17131 0.96042 0.75239 0.0
C1157 C 0.12609 0.92905 0.74928 0.0
C1158 C 0.10041 0.94238 0.74189 0.0
C1159 C 0.11915 0.98717 0.73783 0.0
C1160 C 0.16368 0.01876 0.7411 0.0
C1161 C 0.18971 0.00552 0.74834 0.0
H1162 H 0.09915 0.99741 0.73215 0.0
H1163 H 0.3777 0.88921 0.79663 0.0
H1164 H 0.69785 0.76141 0.88588 0.0
H1165 H 0.72079 0.75452 0.90809 0.0
H1166 H 0.79576 0.69418 0.89279 0.0
H1167 H 0.77289 0.70008 0.87107 0.0
H1168 H 0.74753 0.64606 0.91218 0.0
H1169 H 0.84621 0.8064 0.9044 0.0
H1170 H 0.86274 0.88392 0.89969 0.0
H1171 H 0.78894 0.88185 0.93361 0.0
H1172 H 0.77153 0.80405 0.93844 0.0
H1173 H 0.90245 0.6569 0.95773 0.0
H1174 H 0.86698 0.67135 0.93939 0.0
H1175 H 0.80226 0.72088 0.96514 0.0
H1176 H 0.8381 0.70621 0.98385 0.0
H1177 H 0.83154 0.7722 0.943 0.0
H1178 H 0.74326 0.61532 0.95212 0.0
H1179 H 0.72828 0.53833 0.95687 0.0
H1180 H 0.78323 0.5337 0.91985 0.0
H1181 H 0.79906 0.61094 0.91503 0.0
C1182 C 0.71936 0.74688 0.88729 0.0
C1183 C 0.73306 0.73104 0.87658 0.0
C1184 C 0.73261 0.74303 0.9 0.0
C1185 C 0.76008 0.72362 0.90223 0.0
C1186 C 0.77425 0.7088 0.89149 0.0
C1187 C 0.76102 0.71235 0.87896 0.0
C1188 C 0.77375 0.717 0.91554 0.0
C1189 C 0.76612 0.67384 0.91886 0.0
C1190 C 0.79664 0.75259 0.92459 0.0
C1191 C 0.80709 0.79925 0.92168 0.0
C1192 C 0.83319 0.82235 0.91079 0.0
C1193 C 0.84279 0.86636 0.90811 0.0
C1194 C 0.82676 0.88774 0.91632 0.0
C1195 C 0.80123 0.8652 0.92725 0.0
C1196 C 0.79151 0.82117 0.92996 0.0
C1197 C 0.88056 0.6707 0.95962 0.0
C1198 C 0.87266 0.6796 0.97241 0.0
C1199 C 0.86009 0.67889 0.94904 0.0
C1200 C 0.83079 0.69613 0.9508 0.0
C1201 C 0.82402 0.70678 0.96349 0.0
C1202 C 0.84433 0.69814 0.9742 0.0
C1203 C 0.80697 0.7017 0.9393 0.0
C1204 C 0.81246 0.74439 0.93638 0.0
C1205 C 0.78223 0.66569 0.93051 0.0
C1206 C 0.77247 0.61901 0.93328 0.0
C1207 C 0.75228 0.5979 0.94505 0.0
C1208 C 0.74366 0.55424 0.94775 0.0
C1209 C 0.75484 0.53113 0.93867 0.0
C1210 C 0.77458 0.55164 0.92688 0.0
C1211 C 0.78333 0.59537 0.92416 0.0
H1212 H 0.74816 0.49732 0.94076 0.0
H1213 H 0.83424 0.92181 0.91423 0.0
H1214 H 0.92867 0.70761 0.05213 0.0
H1215 H 0.95747 0.73329 0.07417 0.0
H1216 H 0.06738 0.70824 0.06684 0.0
H1217 H 0.03746 0.68003 0.04548 0.0
H1218 H 0.04805 0.69103 0.09036 0.0
H1219 H 0.06569 0.81349 0.06279 0.0
H1220 H 0.03634 0.85239 0.04942 0.0
H1221 H 0.96905 0.8678 0.08252 0.0
H1222 H 0.9961 0.82648 0.09601 0.0
H1223 H 0.22964 0.84694 0.12892 0.0
H1224 H 0.17787 0.80599 0.11122 0.0
H1225 H 0.07906 0.83552 0.12734 0.0
H1226 H 0.13137 0.87774 0.14498 0.0
H1227 H 0.08136 0.8454 0.10192 0.0
H1228 H 0.06832 0.72774 0.12991 0.0
H1229 H 0.09904 0.68954 0.14334 0.0
H1230 H 0.16034 0.66881 0.1097 0.0
H1231 H 0.13044 0.70728 0.09609 0.0
C1232 C 0.95835 0.70661 0.05534 0.0
C1233 C 0.98079 0.69206 0.04685 0.0
C1234 C 0.97517 0.72177 0.06795 0.0
C1235 C 0.01565 0.72413 0.07221 0.0
C1236 C 0.03639 0.70724 0.06395 0.0
C1237 C 0.01914 0.69119 0.05158 0.0
C1238 C 0.03871 0.74655 0.08474 0.0
C1239 C 0.05535 0.72486 0.0928 0.0
C1240 C 0.04756 0.79036 0.08836 0.0
C1241 C 0.03238 0.81629 0.08036 0.0
C1242 C 0.04425 0.82475 0.06721 0.0
C1243 C 0.02779 0.84707 0.05958 0.0
C1244 C 1.00085 0.86276 0.06509 0.0
C1245 C 0.98991 0.85563 0.07824 0.0
C1246 C 1.0055 0.83241 0.08587 0.0
C1247 C 0.19688 0.84472 0.12877 0.0
C1248 C 0.18478 0.86552 0.13852 0.0
C1249 C 0.16704 0.82095 0.11862 0.0
C1250 C 0.12387 0.81662 0.11798 0.0
C1251 C 0.11192 0.83795 0.12759 0.0
C1252 C 0.14192 0.86204 0.13773 0.0
C1253 C 0.09177 0.79039 0.1072 0.0
C1254 C 0.07344 0.81132 0.09954 0.0
C1255 C 0.08137 0.74592 0.10394 0.0
C1256 C 0.09743 0.72073 0.11199 0.0
C1257 C 0.08838 0.71506 0.12538 0.0
C1258 C 0.10567 0.6934 0.13302 0.0
C1259 C 0.13186 0.67708 0.12738 0.0
C1260 C 0.14017 0.68164 0.11405 0.0
C1261 C 0.12297 0.70327 0.10636 0.0
H1262 H 0.1459 0.66107 0.13332 0.0
H1263 H 0.98852 0.88048 0.05918 0.0
H1264 H 0.31336 0.97628 0.21649 0.0
H1265 H 0.31706 0.01019 0.23776 0.0
H1266 H 0.23073 0.05951 0.22359 0.0
H1267 H 0.22904 0.02744 0.20224 0.0
H1268 H 0.2922 0.12299 0.23587 0.0
H1269 H 0.19688 0.96836 0.24697 0.0
H1270 H 0.17284 0.88748 0.24864 0.0
H1271 H 0.28893 0.9196 0.27212 0.0
H1272 H 0.31399 1.00076 0.27046 0.0
H1273 H 0.25112 0.13582 0.30996 0.0
H1274 H 0.23647 0.09071 0.29017 0.0
H1275 H 0.3683 0.1875 0.27562 0.0
H1276 H 0.38321 0.23255 0.29524 0.0
H1277 H 0.27609 0.04795 0.27826 0.0
H1278 H 0.36081 0.20185 0.24325 0.0
H1279 H 0.37299 0.27917 0.24166 0.0
H1280 H 0.25776 0.24196 0.26606 0.0
H1281 H 0.24452 0.1643 0.26765 0.0
C1282 C 0.29441 0.9935 0.21806 0.0
C1283 C 0.27022 0.99851 0.2078 0.0
C1284 C 0.29647 0.01297 0.23024 0.0
C1285 C 0.27379 0.03732 0.23251 0.0
C1286 C 0.24871 0.04119 0.22225 0.0
C1287 C 0.2473 0.02241 0.21005 0.0
C1288 C 0.27807 0.06085 0.24523 0.0
C1289 C 0.2886 0.10629 0.24509 0.0
C1290 C 0.27247 0.03942 0.25744 0.0
C1291 C 0.25752 0.99067 0.25848 0.0
C1292 C 0.21745 0.9582 0.25241 0.0
C1293 C 0.20362 0.9123 0.25337 0.0
C1294 C 0.22941 0.89842 0.26045 0.0
C1295 C 0.26902 0.93041 0.26663 0.0
C1296 C 0.28304 0.97636 0.26569 0.0
C1297 C 0.27716 0.14739 0.3026 0.0
C1298 C 0.31831 0.18816 0.30426 0.0
C1299 C 0.26874 0.12143 0.29127 0.0
C1300 C 0.301 0.13581 0.28126 0.0
C1301 C 0.34249 0.17584 0.28306 0.0
C1302 C 0.35103 0.2016 0.29437 0.0
C1303 C 0.29117 0.10999 0.26877 0.0
C1304 C 0.27966 0.06435 0.26898 0.0
C1305 C 0.29437 0.13072 0.25662 0.0
C1306 C 0.30202 0.17737 0.25567 0.0
C1307 C 0.33801 0.21013 0.24825 0.0
C1308 C 0.34509 0.25402 0.24735 0.0
C1309 C 0.31626 0.2655 0.2538 0.0
C1310 C 0.28019 0.23308 0.26112 0.0
C1311 C 0.27293 0.18914 0.26204 0.0
H1312 H 0.32181 0.29948 0.25308 0.0
H1313 H 0.21864 0.86287 0.26118 0.0
H1314 H 0.26258 0.20391 0.3807 0.0
H1315 H 0.23388 0.20492 0.40259 0.0
H1316 H 0.26843 0.34345 0.39691 0.0
H1317 H 0.29604 0.34233 0.37522 0.0
H1318 H 0.29271 0.33053 0.42121 0.0
H1319 H 0.15466 0.26228 0.39476 0.0
H1320 H 0.09776 0.20581 0.37995 0.0
H1321 H 0.0833 0.09887 0.40494 0.0
H1322 H 0.13928 0.15497 0.42008 0.0
H1323 H 0.16298 0.38033 0.4639 0.0
H1324 H 0.19738 0.36524 0.4453 0.0
H1325 H 0.14003 0.22655 0.45738 0.0
H1326 H 0.10484 0.24137 0.47608 0.0
H1327 H 0.1305 0.23048 0.4317 0.0
H1328 H 0.2538 0.30208 0.46086 0.0
H1329 H 0.30587 0.35979 0.47626 0.0
H1330 H 0.35111 0.4606 0.4464 0.0
H1331 H 0.29871 0.40364 0.43084 0.0
C1332 C 0.26466 0.23471 0.38423 0.0
C1333 C 0.28161 0.273 0.37616 0.0
C1334 C 0.24783 0.23517 0.3967 0.0
C1335 C 0.24855 0.27423 0.40145 0.0
C1336 C 0.26729 0.31286 0.39357 0.0
C1337 C 0.28315 0.31214 0.38112 0.0
C1338 C 0.22939 0.27554 0.41445 0.0
C1339 C 0.25721 0.30869 0.42348 0.0
C1340 C 0.1834 0.24641 0.41771 0.0
C1341 C 0.15135 0.21264 0.40844 0.0
C1342 C 0.13951 0.22669 0.39703 0.0
C1343 C 0.10723 0.19479 0.38864 0.0
C1344 C 0.08708 0.14874 0.39147 0.0
C1345 C 0.09897 0.13454 0.40275 0.0
C1346 C 0.13074 0.16636 0.41128 0.0
C1347 C 0.1577 0.34656 0.4627 0.0
C1348 C 0.1312 0.3122 0.47164 0.0
C1349 C 0.17773 0.33801 0.45203 0.0
C1350 C 0.17213 0.29486 0.44993 0.0
C1351 C 0.14525 0.26023 0.45875 0.0
C1352 C 0.12524 0.26882 0.4695 0.0
C1353 C 0.19359 0.28619 0.43838 0.0
C1354 C 0.16623 0.25178 0.4296 0.0
C1355 C 0.24018 0.3141 0.43541 0.0
C1356 C 0.27199 0.34857 0.4447 0.0
C1357 C 0.27458 0.33661 0.45759 0.0
C1358 C 0.30419 0.36919 0.46635 0.0
C1359 C 0.33169 0.41384 0.46232 0.0
C1360 C 0.32973 0.42599 0.44951 0.0
C1361 C 0.3001 0.39355 0.44071 0.0
H1362 H 0.35453 0.43897 0.46913 0.0
H1363 H 0.06221 0.12409 0.38493 0.0
H1364 H 0.95997 0.30244 0.54312 0.0
H1365 H 0.93063 0.27313 0.56463 0.0
H1366 H 0.02904 0.23018 0.56893 0.0
H1367 H 0.05895 0.25994 0.54712 0.0
H1368 H 0.94059 0.16248 0.57616 0.0
H1369 H 0.04123 0.31743 0.5864 0.0
H1370 H 0.07611 0.39993 0.58396 0.0
H1371 H 0.94769 0.39041 0.59098 0.0
H1372 H 0.91185 0.30775 0.59326 0.0
H1373 H 0.8666 0.10324 0.64266 0.0
H1374 H 0.91334 0.13526 0.62321 0.0
H1375 H 0.83512 0.19776 0.61272 0.0
H1376 H 0.78849 0.16603 0.63203 0.0
H1377 H 0.9233 0.25632 0.6098 0.0
H1378 H 0.82101 0.10274 0.59698 0.0
H1379 H 0.78321 0.01971 0.59857 0.0
H1380 H 0.91181 0.02609 0.59626 0.0
H1381 H 0.95039 0.10919 0.59465 0.0
C1382 C 0.976 0.28742 0.54868 0.0
C1383 C 0.01211 0.2839 0.54338 0.0
C1384 C 0.95908 0.27057 0.56104 0.0
C1385 C 0.97752 0.24942 0.56852 0.0
C1386 C 0.01416 0.24635 0.56338 0.0
C1387 C 0.03161 0.26384 0.55097 0.0
C1388 C 0.95725 0.22994 0.58151 0.0
C1389 C 0.93774 0.18319 0.58365 0.0
C1390 C 0.95233 0.25651 0.59122 0.0
C1391 C 0.97379 0.3063 0.58992 0.0
C1392 C 0.02034 0.33287 0.58733 0.0
C1393 C 0.0403 0.37968 0.58599 0.0
C1394 C 0.01412 0.40039 0.58729 0.0
C1395 C 0.96793 0.37432 0.58997 0.0
C1396 C 0.94778 0.32749 0.5913 0.0
C1397 C 0.85941 0.12392 0.63625 0.0
C1398 C 0.82361 0.13197 0.63902 0.0
C1399 C 0.88606 0.14202 0.62505 0.0
C1400 C 0.87775 0.16882 0.61636 0.0
C1401 C 0.84243 0.1773 0.61921 0.0
C1402 C 0.81563 0.15898 0.63031 0.0
C1403 C 0.90591 0.18876 0.60439 0.0
C1404 C 0.92678 0.23565 0.60243 0.0
C1405 C 0.91174 0.16221 0.59484 0.0
C1406 C 0.88865 0.11225 0.59585 0.0
C1407 C 0.84127 0.08647 0.5969 0.0
C1408 C 0.81968 0.03937 0.59775 0.0
C1409 C 0.84509 0.01763 0.59752 0.0
C1410 C 0.89215 0.04296 0.59641 0.0
C1411 C 0.91389 0.09005 0.5955 0.0
H1412 H 0.82833 0.98117 0.59816 0.0
H1413 H 0.02964 0.43663 0.58625 0.0
H1414 H 0.75745 0.87754 0.81334 0.0
H1415 H 0.77246 0.92507 0.79404 0.0
H1416 H 0.64426 0.82612 0.77789 0.0
H1417 H 0.62905 0.77875 0.79701 0.0
H1418 H 0.71067 0.85161 0.76029 0.0
H1419 H 0.66109 0.92833 0.78979 0.0
H1420 H 0.66375 0.9679 0.81005 0.0
H1421 H 0.80103 0.06933 0.80196 0.0
H1422 H 0.7992 0.0301 0.7817 0.0
H1423 H 0.6661 0.95376 0.70912 0.0
H1424 H 0.66466 0.92412 0.73064 0.0
H1425 H 0.7988 0.03505 0.73804 0.0
H1426 H 0.80033 0.06558 0.71621 0.0
H1427 H 0.74163 0.0097 0.76031 0.0
H1428 H 0.78879 0.93772 0.72964 0.0
H1429 H 0.78599 0.89885 0.70926 0.0
H1430 H 0.65547 0.78838 0.71963 0.0
H1431 H 0.65714 0.82694 0.73999 0.0
C1432 C 0.73225 0.86606 0.80573 0.0
C1433 C 0.69198 0.82408 0.80681 0.0
C1434 C 0.74085 0.89341 0.79469 0.0
C1435 C 0.70949 0.87942 0.78443 0.0
C1436 C 0.66917 0.8378 0.78559 0.0
C1437 C 0.66044 0.81069 0.79661 0.0
C1438 C 0.71888 0.90676 0.77225 0.0
C1439 C 0.71707 0.88605 0.76034 0.0
C1440 C 0.72901 0.95238 0.7722 0.0
C1441 C 0.73017 0.97599 0.78434 0.0
C1442 C 0.69194 0.95882 0.79241 0.0
C1443 C 0.69327 0.98123 0.80387 0.0
C1444 C 0.73261 0.02096 0.80732 0.0
C1445 C 0.77062 0.03849 0.79929 0.0
C1446 C 0.76943 0.01622 0.78781 0.0
C1447 C 0.69527 0.97237 0.71533 0.0
C1448 C 0.73358 0.01187 0.71082 0.0
C1449 C 0.69438 0.95521 0.72768 0.0
C1450 C 0.73195 0.97663 0.73594 0.0
C1451 C 0.76944 0.01767 0.73184 0.0
C1452 C 0.77027 0.03518 0.71937 0.0
C1453 C 0.73208 0.95397 0.74838 0.0
C1454 C 0.73576 0.97546 0.7603 0.0
C1455 C 0.72396 0.90902 0.74849 0.0
C1456 C 0.72298 0.8854 0.73631 0.0
C1457 C 0.75935 0.90528 0.72754 0.0
C1458 C 0.75798 0.88328 0.71599 0.0
C1459 C 0.72054 0.84121 0.71314 0.0
C1460 C 0.68444 0.82099 0.72185 0.0
C1461 C 0.68561 0.84288 0.7334 0.0
H1462 H 0.71953 0.82424 0.70419 0.0
H1463 H 0.73358 0.03826 0.8162 0.0
H1464 H 0.41451 0.09005 0.13836 0.0
H1465 H 0.41951 0.14212 0.12131 0.0
H1466 H 0.28355 0.04613 0.10919 0.0
H1467 H 0.28001 0.99285 0.12559 0.0
H1468 H 0.32604 0.08573 0.08917 0.0
H1469 H 0.31439 0.14334 0.13089 0.0
H1470 H 0.33768 0.16901 0.15337 0.0
H1471 H 0.46734 0.27295 0.13992 0.0
H1472 H 0.4449 0.24791 0.11734 0.0
H1473 H 0.26268 0.22747 0.05896 0.0
H1474 H 0.27026 0.18148 0.07579 0.0
H1475 H 0.41225 0.2795 0.0794 0.0
H1476 H 0.40411 0.32681 0.06276 0.0
H1477 H 0.37344 0.24221 0.103 0.0
H1478 H 0.37594 0.18535 0.06025 0.0
H1479 H 0.34492 0.15971 0.03832 0.0
H1480 H 0.223 0.05157 0.05463 0.0
H1481 H 0.25303 0.07696 0.07667 0.0
C1482 C 0.38621 0.07974 0.13182 0.0
C1483 C 0.34696 0.03739 0.13325 0.0
C1484 C 0.38877 0.10977 0.12218 0.0
C1485 C 0.35134 0.09894 0.11417 0.0
C1486 C 0.31292 0.05565 0.11523 0.0
C1487 C 0.31092 0.02504 0.12459 0.0
C1488 C 0.35126 0.13297 0.10505 0.0
C1489 C 0.33608 0.11977 0.09228 0.0
C1490 C 0.36496 0.17788 0.10892 0.0
C1491 C 0.37814 0.1935 0.12245 0.0
C1492 C 0.34791 0.17159 0.13273 0.0
C1493 C 0.36094 0.18601 0.14549 0.0
C1494 C 0.404 0.22242 0.14808 0.0
C1495 C 0.43403 0.24471 0.1379 0.0
C1496 C 0.42114 0.23051 0.12512 0.0
C1497 C 0.29528 0.2397 0.06358 0.0
C1498 C 0.33281 0.28057 0.05963 0.0
C1499 C 0.29968 0.21324 0.07311 0.0
C1500 C 0.34208 0.22634 0.07861 0.0
C1501 C 0.37926 0.26855 0.07522 0.0
C1502 C 0.37462 0.29563 0.06578 0.0
C1503 C 0.34757 0.19456 0.08729 0.0
C1504 C 0.3638 0.20823 0.09993 0.0
C1505 C 0.33387 0.14975 0.08339 0.0
C1506 C 0.31669 0.13322 0.07012 0.0
C1507 C 0.34251 0.15613 0.05916 0.0
C1508 C 0.32507 0.14168 0.04671 0.0
C1509 C 0.28198 0.1041 0.04509 0.0
C1510 C 0.25636 0.08069 0.05591 0.0
C1511 C 0.27361 0.09505 0.06838 0.0
H1512 H 0.26846 0.09308 0.03544 0.0
H1513 H 0.41406 0.23342 0.15796 0.0
H1514 H 0.11999 0.35354 0.2108 0.0
H1515 H 0.17381 0.36419 0.22778 0.0
H1516 H 0.07543 0.3458 0.25686 0.0
H1517 H 0.02068 0.33539 0.23969 0.0
H1518 H 0.17344 0.41731 0.26191 0.0
H1519 H 0.08047 0.25614 0.25125 0.0
H1520 H 0.04509 0.19872 0.23405 0.0
H1521 H 0.17577 0.2408 0.21763 0.0
H1522 H 0.21192 0.29812 0.23482 0.0
H1523 H 0.26449 0.36253 0.31463 0.0
H1524 H 0.21798 0.3665 0.29763 0.0
H1525 H 0.29126 0.33598 0.26913 0.0
H1526 H 0.33665 0.32878 0.28651 0.0
H1527 H 0.2083 0.29262 0.26292 0.0
H1528 H 0.30425 0.44686 0.27368 0.0
H1529 H 0.3443 0.51367 0.28777 0.0
H1530 H 0.21735 0.49598 0.3011 0.0
H1531 H 0.17647 0.42869 0.28721 0.0
C1532 C 0.10978 0.35237 0.2208 0.0
C1533 C 0.06577 0.34301 0.22391 0.0
C1534 C 0.14075 0.35862 0.23049 0.0
C1535 C 0.12845 0.35517 0.24356 0.0
C1536 C 0.08552 0.34857 0.2468 0.0
C1537 C 0.05432 0.34261 0.23701 0.0
C1538 C 0.1591 0.35398 0.25357 0.0
C1539 C 0.18057 0.38978 0.26234 0.0
C1540 C 0.16992 0.31907 0.25367 0.0
C1541 C 0.14883 0.28129 0.2443 0.0
C1542 C 0.10164 0.25271 0.24405 0.0
C1543 C 0.08147 0.22029 0.2343 0.0
C1544 C 0.10817 0.21621 0.22475 0.0
C1545 C 0.15517 0.24392 0.22507 0.0
C1546 C 0.17555 0.27616 0.23486 0.0
C1547 C 0.27138 0.35716 0.30475 0.0
C1548 C 0.30498 0.34603 0.30194 0.0
C1549 C 0.24468 0.35973 0.29496 0.0
C1550 C 0.25171 0.35291 0.28197 0.0
C1551 C 0.28532 0.34179 0.27906 0.0
C1552 C 0.3115 0.33801 0.28898 0.0
C1553 C 0.22255 0.35581 0.27164 0.0
C1554 C 0.20134 0.32029 0.26268 0.0
C1555 C 0.21285 0.3917 0.2712 0.0
C1556 C 0.23728 0.43252 0.27946 0.0
C1557 C 0.28485 0.45707 0.27966 0.0
C1558 C 0.3077 0.49506 0.2876 0.0
C1559 C 0.28338 0.50905 0.29532 0.0
C1560 C 0.23614 0.48512 0.2951 0.0
C1561 C 0.2131 0.44709 0.28718 0.0
H1562 H 0.30114 0.53845 0.30146 0.0
H1563 H 0.09243 0.19154 0.21712 0.0
H1564 H 0.66962 0.04579 0.40228 0.0
H1565 H 0.7124 0.09755 0.42021 0.0
H1566 H 0.8376 0.12988 0.40123 0.0
H1567 H 0.79606 0.0789 0.38376 0.0
H1568 H 0.84064 0.11279 0.42627 0.0
H1569 H 0.79513 0.2017 0.40016 0.0
H1570 H 0.73929 0.2174 0.38982 0.0
H1571 H 0.68063 0.21321 0.42695 0.0
H1572 H 0.73589 0.19703 0.43751 0.0
H1573 H 0.01262 0.30781 0.45602 0.0
H1574 H 0.95894 0.25757 0.4397 0.0
H1575 H 0.84793 0.24587 0.46258 0.0
H1576 H 0.90121 0.29655 0.47878 0.0
H1577 H 0.83051 0.24847 0.43751 0.0
H1578 H 0.87157 0.15791 0.46357 0.0
H1579 H 0.92185 0.13626 0.47448 0.0
H1580 H 0.98579 0.14096 0.43827 0.0
H1581 H 0.93475 0.16153 0.42702 0.0
C1582 C 0.70623 0.06386 0.40202 0.0
C1583 C 0.72931 0.05841 0.39152 0.0
C1584 C 0.73063 0.09359 0.41221 0.0
C1585 C 0.7783 0.11783 0.41202 0.0
C1586 C 0.80097 0.11167 0.40163 0.0
C1587 C 0.77694 0.08253 0.39156 0.0
C1588 C 0.80577 0.14954 0.42253 0.0
C1589 C 0.83855 0.14261 0.42864 0.0
C1590 C 0.80236 0.18782 0.42594 0.0
C1591 C 0.76932 0.19771 0.4196 0.0
C1592 C 0.77012 0.20382 0.40611 0.0
C1593 C 0.73866 0.21291 0.40021 0.0
C1594 C 0.70644 0.21629 0.40772 0.0
C1595 C 0.70563 0.21061 0.42115 0.0
C1596 C 0.73703 0.20152 0.42709 0.0
C1597 C 0.97687 0.29537 0.45744 0.0
C1598 C 0.96132 0.30617 0.46875 0.0
C1599 C 0.94612 0.26621 0.44817 0.0
C1600 C 0.89922 0.24711 0.45003 0.0
C1601 C 0.88383 0.25989 0.46094 0.0
C1602 C 0.91447 0.28896 0.4702 0.0
C1603 C 0.86624 0.21232 0.44093 0.0
C1604 C 0.83241 0.21856 0.43516 0.0
C1605 C 0.86839 0.17313 0.43783 0.0
C1606 C 0.89985 0.16185 0.44451 0.0
C1607 C 0.89667 0.15479 0.45796 0.0
C1608 C 0.92534 0.14273 0.46421 0.0
C1609 C 0.95765 0.13803 0.45715 0.0
C1610 C 0.96097 0.14489 0.44376 0.0
C1611 C 0.93198 0.15649 0.43741 0.0
H1612 H 0.97971 0.12855 0.46205 0.0
H1613 H 0.68209 0.2233 0.40314 0.0
H1614 H 0.67421 0.78167 0.54523 0.0
H1615 H 0.66747 0.82546 0.56269 0.0
H1616 H 0.66457 0.7304 0.59067 0.0
H1617 H 0.671 0.68536 0.573 0.0
H1618 H 0.6004 0.76472 0.59493 0.0
H1619 H 0.76226 0.82285 0.58802 0.0
H1620 H 0.82383 0.84445 0.57216 0.0
H1621 H 0.79778 0.94546 0.55638 0.0
H1622 H 0.73679 0.9251 0.57231 0.0
H1623 H 0.64486 0.90439 0.64896 0.0
H1624 H 0.64461 0.85464 0.63227 0.0
H1625 H 0.68882 0.96196 0.60413 0.0
H1626 H 0.69168 0.01345 0.62121 0.0
H1627 H 0.73187 0.91956 0.59991 0.0
H1628 H 0.57529 0.86851 0.60591 0.0
H1629 H 0.5041 0.84299 0.6179 0.0
H1630 H 0.50955 0.7275 0.63188 0.0
H1631 H 0.58113 0.75265 0.62011 0.0
C1632 C 0.67173 0.76956 0.55507 0.0
C1633 C 0.6736 0.73012 0.55772 0.0
C1634 C 0.66786 0.79478 0.56504 0.0
C1635 C 0.66625 0.78161 0.57797 0.0
C1636 C 0.66592 0.74115 0.58073 0.0
C1637 C 0.66956 0.71549 0.57065 0.0
C1638 C 0.66756 0.81199 0.58844 0.0
C1639 C 0.62939 0.79823 0.59626 0.0
C1640 C 0.7047 0.85634 0.58973 0.0
C1641 C 0.7451 0.87253 0.58135 0.0
C1642 C 0.77025 0.85019 0.5813 0.0
C1643 C 0.80499 0.86217 0.57229 0.0
C1644 C 0.81473 0.89631 0.56327 0.0
C1645 C 0.79048 0.91927 0.56343 0.0
C1646 C 0.75605 0.90778 0.57252 0.0
C1647 C 0.65399 0.91757 0.6392 0.0
C1648 C 0.66755 0.96292 0.6364 0.0
C1649 C 0.65368 0.88879 0.6296 0.0
C1650 C 0.66551 0.90392 0.6168 0.0
C1651 C 0.67914 0.94925 0.61391 0.0
C1652 C 0.68041 0.97859 0.62364 0.0
C1653 C 0.66451 0.87237 0.60665 0.0
C1654 C 0.70285 0.88594 0.59881 0.0
C1655 C 0.62695 0.82806 0.60516 0.0
C1656 C 0.5838 0.8127 0.61222 0.0
C1657 C 0.56148 0.83784 0.61161 0.0
C1658 C 0.52103 0.82341 0.61836 0.0
C1659 C 0.50238 0.7837 0.62567 0.0
C1660 C 0.52407 0.75827 0.62622 0.0
C1661 C 0.56455 0.77257 0.6195 0.0
H1662 H 0.47106 0.7726 0.63089 0.0
H1663 H 0.84089 0.90477 0.55611 0.0
H1664 H 0.92762 0.72679 0.7142 0.0
H1665 H 0.87659 0.72022 0.73156 0.0
H1666 H 0.90952 0.63112 0.7524 0.0
H1667 H 0.96153 0.63772 0.73489 0.0
H1668 H 0.81514 0.60059 0.75126 0.0
H1669 H 0.9524 0.73317 0.76192 0.0
H1670 H 0.01982 0.80858 0.75972 0.0
H1671 H 0.93537 0.86645 0.75296 0.0
H1672 H 0.86732 0.79123 0.75485 0.0
H1673 H 0.71322 0.61354 0.81019 0.0
H1674 H 0.76168 0.61264 0.79304 0.0
H1675 H 0.74762 0.71426 0.77216 0.0
H1676 H 0.6995 0.71604 0.78953 0.0
H1677 H 0.83468 0.73684 0.77409 0.0
H1678 H 0.69772 0.60345 0.76147 0.0
H1679 H 0.63002 0.52869 0.76472 0.0
H1680 H 0.71395 0.47327 0.77534 0.0
H1681 H 0.78218 0.54787 0.77232 0.0
C1682 C 0.92416 0.70566 0.72244 0.0
C1683 C 0.94865 0.68262 0.72312 0.0
C1684 C 0.895 0.70213 0.7324 0.0
C1685 C 0.88938 0.6754 0.74331 0.0
C1686 C 0.91343 0.65197 0.74405 0.0
C1687 C 0.94324 0.65592 0.73409 0.0
C1688 C 0.85808 0.67225 0.75379 0.0
C1689 C 0.81974 0.63024 0.75641 0.0
C1690 C 0.86357 0.71122 0.76025 0.0
C1691 C 0.90459 0.7563 0.75845 0.0
C1692 C 0.9481 0.76177 0.75972 0.0
C1693 C 0.98648 0.80456 0.75859 0.0
C1694 C 0.98184 0.84225 0.75623 0.0
C1695 C 0.93887 0.83719 0.75482 0.0
C1696 C 0.90037 0.79447 0.75593 0.0
C1697 C 0.71966 0.63517 0.80185 0.0
C1698 C 0.70232 0.66484 0.80124 0.0
C1699 C 0.74739 0.6345 0.792 0.0
C1700 C 0.75826 0.66321 0.78124 0.0
C1701 C 0.73972 0.69177 0.78037 0.0
C1702 C 0.71185 0.69245 0.79024 0.0
C1703 C 0.79114 0.66534 0.77137 0.0
C1704 C 0.82996 0.70719 0.76891 0.0
C1705 C 0.78601 0.62631 0.76502 0.0
C1706 C 0.74505 0.58136 0.76678 0.0
C1707 C 0.70174 0.5754 0.76459 0.0
C1708 C 0.66326 0.53304 0.76638 0.0
C1709 C 0.66767 0.49628 0.77027 0.0
C1710 C 0.71058 0.50179 0.77234 0.0
C1711 C 0.74917 0.54409 0.77058 0.0
H1712 H 0.63785 0.46351 0.77164 0.0
H1713 H 0.0115 0.87542 0.7556 0.0
H1714 H 0.10666 0.78571 0.98555 0.0
H1715 H 0.15827 0.82957 0.96826 0.0
H1716 H 0.078 0.72429 0.94088 0.0
H1717 H 0.02597 0.67919 0.95837 0.0
H1718 H 0.16802 0.75915 0.93658 0.0
H1719 H 0.06909 0.81873 0.94319 0.0
H1720 H 0.02964 0.84977 0.95583 0.0
H1721 H 0.15711 0.96371 0.96674 0.0
H1722 H 0.1974 0.93293 0.95436 0.0
H1723 H 0.24152 0.89172 0.87942 0.0
H1724 H 0.20073 0.84379 0.89779 0.0
H1725 H 0.28884 0.94926 0.92413 0.0
H1726 H 0.33031 0.9978 0.90561 0.0
H1727 H 0.19756 0.91513 0.92933 0.0
H1728 H 0.29639 0.8557 0.92257 0.0
H1729 H 0.33557 0.82425 0.90998 0.0
H1730 H 0.20788 0.71126 0.89881 0.0
H1731 H 0.16784 0.74204 0.91132 0.0
C1732 C 0.09982 0.77153 0.97588 0.0
C1733 C 0.06181 0.72893 0.97334 0.0
C1734 C 0.12945 0.79688 0.96597 0.0
C1735 C 0.12158 0.78072 0.95322 0.0
C1736 C 0.08458 0.73754 0.95066 0.0
C1737 C 0.05487 0.71182 0.96064 0.0
C1738 C 0.15171 0.8096 0.94262 0.0
C1739 C 0.17401 0.79302 0.93489 0.0
C1740 C 0.1605 0.85434 0.94062 0.0
C1741 C 0.1363 0.8732 0.94796 0.0
C1742 C 0.08875 0.85021 0.94837 0.0
C1743 C 0.06622 0.86778 0.95548 0.0
C1744 C 0.09086 0.9086 0.96213 0.0
C1745 C 0.13807 0.93202 0.96162 0.0
C1746 C 0.16077 0.91452 0.95456 0.0
C1747 C 0.25274 0.90459 0.88912 0.0
C1748 C 0.28915 0.94858 0.89108 0.0
C1749 C 0.22946 0.87701 0.89962 0.0
C1750 C 0.24185 0.89281 0.91233 0.0
C1751 C 0.27887 0.93637 0.91438 0.0
C1752 C 0.30267 0.96393 0.90382 0.0
C1753 C 0.21388 0.86468 0.92333 0.0
C1754 C 0.1918 0.88136 0.9311 0.0
C1755 C 0.20518 0.82007 0.92533 0.0
C1756 C 0.22911 0.80138 0.9178 0.0
C1757 C 0.27664 0.82431 0.91735 0.0
C1758 C 0.29902 0.80658 0.91024 0.0
C1759 C 0.27425 0.76594 0.90354 0.0
C1760 C 0.22703 0.74278 0.90399 0.0
C1761 C 0.20447 0.76028 0.91112 0.0
H1762 H 0.29166 0.75232 0.89802 0.0
H1763 H 0.07336 0.92212 0.96764 0.0
H1764 H 0.2457 0.16628 0.01929 0.0
H1765 H 0.19452 0.0853 0.01983 0.0
H1766 H 0.08588 0.10612 0.0326 0.0
H1767 H 0.13686 0.18785 0.03181 0.0
H1768 H 0.14529 0.02647 0.03778 0.0
H1769 H 0.99027 0.02649 0.01654 0.0
H1770 H 0.97163 0.07657 1.004 0.0
H1771 H 0.10232 0.13844 0.98588 0.0
H1772 H 0.12143 0.08835 0.99818 0.0
H1773 H 0.96878 0.79921 0.03095 0.0
H1774 H 0.99911 0.88003 0.03527 0.0
H1775 H 0.05813 0.91216 0.99706 0.0
H1776 H 0.02745 0.83135 0.99265 0.0
H1777 H 0.01611 0.96429 1.00706 0.0
H1778 H 0.11704 0.90919 0.01714 0.0
H1779 H 0.14647 0.8646 0.02764 0.0
H1780 H 0.14211 0.9195 0.06464 0.0
H1781 H 0.10995 0.96242 0.05448 0.0
C1782 C 0.21096 0.15374 0.02227 0.0
C1783 C 0.19484 0.18322 0.0252 0.0
C1784 C 0.18196 0.10752 0.02268 0.0
C1785 C 0.13655 0.09019 0.02609 0.0
C1786 C 0.12083 0.1193 0.02978 0.0
C1787 C 0.14988 0.16577 0.0293 0.0
C1788 C 0.10554 0.04168 0.02477 0.0
C1789 C 0.11643 0.01253 0.03128 0.0
C1790 C 0.06881 0.02441 0.01603 0.0
C1791 C 0.05741 0.0541 1.0084 0.0
C1792 C 0.01493 0.05071 1.00985 0.0
C1793 C 1.0043 0.07909 1.00279 0.0
C1794 C 0.03583 0.11078 0.99419 0.0
C1795 C 0.07798 0.11401 0.99258 0.0
C1796 C 0.08874 0.08566 0.9996 0.0
C1797 C 0.98759 0.82375 0.02345 0.0
C1798 C 0.99655 0.81019 1.01156 0.0
C1799 C 1.00485 0.86939 0.02594 0.0
C1800 C 0.0314 0.9013 0.01659 0.0
C1801 C 0.03772 0.88751 1.00435 0.0
C1802 C 0.02057 0.84183 1.00187 0.0
C1803 C 0.05622 0.94904 0.02 0.0
C1804 C 0.04399 0.97793 1.0139 0.0
C1805 C 0.09281 0.96624 0.02884 0.0
C1806 C 0.10942 0.93795 0.03506 0.0
C1807 C 0.12069 0.9106 0.02757 0.0
C1808 C 0.13821 0.88579 0.03346 0.0
C1809 C 0.14585 0.88894 0.04681 0.0
C1810 C 0.13603 0.91696 0.0543 0.0
C1811 C 0.11773 0.9412 0.04849 0.0
H1812 H 0.15961 0.86986 0.05135 0.0
H1813 H 0.02756 0.13276 0.98875 0.0
H1814 H 0.15385 0.97269 0.15791 0.0
H1815 H 0.1085 0.00968 0.15892 0.0
H1816 H 0.22974 0.13841 0.16444 0.0
H1817 H 0.27534 0.10158 0.16329 0.0
H1818 H 0.1666 0.09797 0.18629 0.0
H1819 H 0.16926 0.13909 0.1412 0.0
H1820 H 0.15964 0.1248 0.11767 0.0
H1821 H 0.02089 0.023 0.12356 0.0
H1822 H 0.02985 0.03643 0.14715 0.0
H1823 H 0.08546 0.24995 0.19299 0.0
H1824 H 0.1218 0.20503 0.18926 0.0
H1825 H 0.9919 0.08836 0.18094 0.0
H1826 H 0.95513 0.13314 0.18486 0.0
H1827 H 0.05348 0.1153 0.16066 0.0
H1828 H 0.04567 0.07872 0.20469 0.0
H1829 H 0.05188 0.08444 0.22847 0.0
H1830 H 0.19608 0.16778 0.2255 0.0
H1831 H 0.19075 0.16355 0.20168 0.0
C1832 C 0.17085 0.00914 0.15879 0.0
C1833 C 0.21771 0.03445 0.16079 0.0
C1834 C 0.14504 0.03019 0.15925 0.0
C1835 C 0.16602 0.07648 0.16186 0.0
C1836 C 0.2133 0.10259 0.16236 0.0
C1837 C 0.23922 0.08161 0.1617 0.0
C1838 C 0.13873 0.09448 0.16732 0.0
C1839 C 0.14257 0.103 0.18068 0.0
C1840 C 0.1055 0.0975 0.16005 0.0
C1841 C 0.10029 0.08859 0.14593 0.0
C1842 C 0.13682 0.11338 0.13748 0.0
C1843 C 0.13146 0.10552 0.12413 0.0
C1844 C 0.08969 0.07297 0.11912 0.0
C1845 C 0.05324 0.04814 0.12745 0.0
C1846 C 0.05844 0.05587 0.14081 0.0
C1847 C 0.06461 0.21444 0.19067 0.0
C1848 C 0.01778 0.19498 0.18898 0.0
C1849 C 0.08528 0.18879 0.18865 0.0
C1850 C 0.05935 0.14359 0.18482 0.0
C1851 C 0.01219 0.12324 0.18397 0.0
C1852 C 0.99136 0.14876 0.18619 0.0
C1853 C 0.08256 0.12077 0.17959 0.0
C1854 C 0.07768 0.11072 0.1663 0.0
C1855 C 0.11449 0.11572 0.187 0.0
C1856 C 0.11771 0.12116 0.20133 0.0
C1857 C 0.07866 0.09893 0.20907 0.0
C1858 C 0.08206 0.10167 0.22258 0.0
C1859 C 0.12435 0.12636 0.2285 0.0
C1860 C 0.16334 0.14854 0.22091 0.0
C1861 C 0.16013 0.14609 0.20739 0.0
H1862 H 0.1269 0.12844 0.23896 0.0
H1863 H 0.08557 0.06702 0.10878 0.0
H1864 H 0.17463 0.27421 0.33078 0.0
H1865 H 0.09234 0.22781 0.33238 0.0
H1866 H 0.10164 0.10752 0.32716 0.0
H1867 H 0.18381 0.15357 0.32583 0.0
H1868 H 0.01263 0.1537 0.32198 0.0
H1869 H 0.05767 0.04667 0.35619 0.0
H1870 H 0.12451 0.05345 0.3675 0.0
H1871 H 0.18584 0.1979 0.36748 0.0
H1872 H 0.11896 0.19189 0.35666 0.0
H1873 H 0.83035 0.95713 0.35551 0.0
H1874 H 0.9124 0.99807 0.35219 0.0
H1875 H 0.91632 0.12412 0.35964 0.0
H1876 H 0.83454 0.08376 0.36256 0.0
H1877 H 0.9978 0.07269 0.36338 0.0
H1878 H 0.95749 0.18401 0.33105 0.0
H1879 H 0.8903 0.18332 0.32196 0.0
H1880 H 0.8203 0.0385 0.32032 0.0
H1881 H 0.88737 0.03837 0.32899 0.0
C1882 C 0.15889 0.23804 0.32942 0.0
C1883 C 0.18509 0.217 0.32872 0.0
C1884 C 0.11195 0.21164 0.33024 0.0
C1885 C 0.09155 0.16442 0.3303 0.0
C1886 C 0.11722 0.14398 0.32737 0.0
C1887 C 0.16401 0.17022 0.32672 0.0
C1888 C 0.04738 0.13752 0.33658 0.0
C1889 C 0.0093 0.13596 0.331 0.0
C1890 C 0.04357 0.11495 0.34846 0.0
C1891 C 0.08359 0.11882 0.35536 0.0
C1892 C 0.08536 0.07985 0.35866 0.0
C1893 C 0.12325 0.08357 0.36502 0.0
C1894 C 0.15957 0.12609 0.36815 0.0
C1895 C 0.15794 0.16497 0.365 0.0
C1896 C 0.12 0.16141 0.35875 0.0
C1897 C 0.84906 0.99338 0.3569 0.0
C1898 C 0.82649 0.01772 0.35883 0.0
C1899 C 0.89579 0.0166 0.35512 0.0
C1900 C 0.91965 0.06393 0.35538 0.0
C1901 C 0.89798 0.08754 0.35926 0.0
C1902 C 0.85139 0.06455 0.3608 0.0
C1903 C 0.96319 0.0885 0.3487 0.0
C1904 C 1.0011 0.08982 0.35424 0.0
C1905 C 0.96698 0.11154 0.33693 0.0
C1906 C 0.92734 0.11121 0.33085 0.0
C1907 C 0.92788 0.15204 0.32865 0.0
C1908 C 0.88977 0.15178 0.32358 0.0
C1909 C 0.85088 0.11087 0.32067 0.0
C1910 C 0.85019 0.07014 0.32269 0.0
C1911 C 0.88829 0.07023 0.32768 0.0
H1912 H 0.82143 0.1108 0.31678 0.0
H1913 H 0.18888 0.12889 0.37306 0.0
H1914 H 0.02317 0.18169 0.49147 0.0
H1915 H 0.98704 0.09961 0.49336 0.0
H1916 H 0.86449 0.09356 0.50681 0.0
H1917 H 0.9002 0.17583 0.50461 0.0
H1918 H 0.91987 0.06962 0.52486 0.0
H1919 H 0.84327 0.03178 0.48312 0.0
H1920 H 0.83955 0.03769 0.45936 0.0
H1921 H 0.94318 1.00261 0.45474 0.0
H1922 H 0.94755 0.99665 0.47848 0.0
H1923 H 0.76701 0.83424 0.53163 0.0
H1924 H 0.81114 0.9163 0.52917 0.0
H1925 H 0.92006 0.9046 0.512 0.0
H1926 H 0.87638 0.82233 0.51479 0.0
H1927 H 0.8778 0.93939 0.49578 0.0
H1928 H 0.9453 0.96339 0.53672 0.0
H1929 H 0.95628 0.96178 0.56024 0.0
H1930 H 0.88051 0.02911 0.56687 0.0
H1931 H 0.86785 0.02998 0.54341 0.0
C1932 C 0.98793 0.1625 0.49432 0.0
C1933 C 0.96428 0.18443 0.49802 0.0
C1934 C 0.9674 0.11588 0.49534 0.0
C1935 C 0.92347 0.0912 0.50028 0.0
C1936 C 0.89842 0.11256 0.50291 0.0
C1937 C 0.91868 0.15923 0.50163 0.0
C1938 C 0.90798 0.04574 0.50517 0.0
C1939 C 0.90953 0.04058 0.5186 0.0
C1940 C 0.89774 0.00952 0.49679 0.0
C1941 C 0.89577 0.01383 0.48255 0.0
C1942 C 0.86538 0.02552 0.47703 0.0
C1943 C 0.86301 0.02868 0.46357 0.0
C1944 C 0.89105 0.02044 0.45555 0.0
C1945 C 0.92148 0.00898 0.46096 0.0
C1946 C 0.92383 0.00559 0.47441 0.0
C1947 C 0.80094 0.84948 0.52769 0.0
C1948 C 0.81838 0.82258 0.5232 0.0
C1949 C 0.82618 0.89614 0.52641 0.0
C1950 C 0.86862 0.91608 0.52041 0.0
C1951 C 0.88742 0.88948 0.51675 0.0
C1952 C 0.86254 0.84277 0.51831 0.0
C1953 C 0.88821 0.96241 0.51558 0.0
C1954 C 0.88789 0.96808 0.50212 0.0
C1955 C 0.90009 0.99922 0.52399 0.0
C1956 C 0.90508 0.99619 0.53822 0.0
C1957 C 0.93017 0.97708 0.54317 0.0
C1958 C 0.93696 0.97655 0.55652 0.0
C1959 C 0.91913 0.99533 0.56505 0.0
C1960 C 0.89441 0.01464 0.56026 0.0
C1961 C 0.8873 0.01504 0.54692 0.0
H1962 H 0.92442 0.99483 0.57537 0.0
H1963 H 0.88929 0.02309 0.44514 0.0
H1964 H 0.06136 0.8742 0.67759 0.0
H1965 H 0.02766 0.918 0.66926 0.0
H1966 H 0.89427 0.80524 0.67669 0.0
H1967 H 0.92752 0.76139 0.68481 0.0
H1968 H 0.90176 0.83915 0.65221 0.0
H1969 H 0.93941 0.89413 0.69652 0.0
H1970 H 0.99133 0.92966 0.71496 0.0
H1971 H 0.0706 0.04927 0.6923 0.0
H1972 H 0.01944 0.01416 0.67367 0.0
H1973 H 0.74428 0.90657 0.66423 0.0
H1974 H 0.79619 0.87818 0.66025 0.0
H1975 H 0.9051 0.01448 0.65369 0.0
H1976 H 0.85383 0.04288 0.65837 0.0
H1977 H 0.92437 0.97968 0.67285 0.0
H1978 H 0.87441 0.93159 0.63029 0.0
H1979 H 0.82022 0.89681 0.61232 0.0
H1980 H 0.76524 0.76688 0.63049 0.0
H1981 H 0.81842 0.80088 0.6487 0.0
C1982 C 0.02493 0.85929 0.67768 0.0
C1983 C 0.99689 0.8146 0.6818 0.0
C1984 C 0.00578 0.88406 0.67283 0.0
C1985 C 0.95857 0.86445 0.67224 0.0
C1986 C 0.93075 0.82057 0.6769 0.0
C1987 C 0.94976 0.7958 0.68162 0.0
C1988 C 0.93748 0.88935 0.66692 0.0
C1989 C 0.90689 0.87015 0.65658 0.0
C1990 C 0.94529 0.93029 0.67246 0.0
C1991 C 0.97601 0.95132 0.68366 0.0
C1992 C 0.96816 0.92785 0.69544 0.0
C1993 C 0.99739 0.94793 0.70593 0.0
C1994 C 0.03433 0.99163 0.70479 0.0
C1995 C 0.04204 0.01538 0.69316 0.0
C1996 C 0.01295 0.99542 0.68264 0.0
C1997 C 0.77899 0.93013 0.66157 0.0
C1998 C 0.79568 0.97675 0.6619 0.0
C1999 C 0.80854 0.91399 0.65915 0.0
C2000 C 0.85458 0.94438 0.65672 0.0
C2001 C 0.86981 0.99061 0.65562 0.0
C2002 C 0.84063 0.00674 0.65835 0.0
C2003 C 0.88774 0.92913 0.65821 0.0
C2004 C 0.92059 0.94992 0.66795 0.0
C2005 C 0.88221 0.88993 0.65199 0.0
C2006 C 0.85045 0.86894 0.64093 0.0
C2007 C 0.85061 0.89563 0.63051 0.0
C2008 C 0.82005 0.87604 0.62026 0.0
C2009 C 0.78927 0.82968 0.62027 0.0
C2010 C 0.78912 0.80279 0.6305 0.0
C2011 C 0.81955 0.82221 0.64078 0.0
H2012 H 0.76551 0.81459 0.61237 0.0
H2013 H 0.05688 0.00717 0.71292 0.0
H2014 H 0.19295 0.05816 0.84852 0.0
H2015 H 0.11535 0.0255 0.84046 0.0
H2016 H 0.0934 0.8916 0.84769 0.0
H2017 H 0.17092 0.9239 0.85545 0.0
H2018 H 0.07001 0.89982 0.82336 0.0
H2019 H 0.04751 0.93869 0.86701 0.0
H2020 H 0.06173 0.99091 0.8852 0.0
H2021 H 0.0246 0.06999 0.86126 0.0
H2022 H 0.01071 0.01848 0.84287 0.0
H2023 H 0.84139 0.74379 0.83241 0.0
H2024 H 0.9227 0.79507 0.83055 0.0
H2025 H 0.8992 0.90525 0.82176 0.0
H2026 H 0.81789 0.85428 0.82435 0.0
H2027 H 0.95004 0.92432 0.84185 0.0
H2028 H 0.952 0.867 0.80001 0.0
H2029 H 0.93084 0.80634 0.78401 0.0
H2030 H 1.00372 0.75578 0.80557 0.0
H2031 H 0.02409 0.81518 0.82197 0.0
C2032 C 0.17111 0.02183 0.84868 0.0
C2033 C 0.18765 0.99337 0.85252 0.0
C2034 C 0.12705 1.00328 0.84399 0.0
C2035 C 0.09914 0.95624 0.84334 0.0
C2036 C 0.11485 0.928 0.84794 0.0
C2037 C 0.15884 0.94642 0.85247 0.0
C2038 C 0.05381 0.93573 0.83757 0.0
C2039 C 0.04357 0.90503 0.82735 0.0
C2040 C 0.02022 0.94416 0.84249 0.0
C2041 C 0.0287 0.97515 0.85353 0.0
C2042 C 0.0428 0.96746 0.8656 0.0
C2043 C 0.0507 0.99686 0.87595 0.0
C2044 C 0.04424 0.03384 0.87437 0.0
C2045 C 0.02972 0.04141 0.86245 0.0
C2046 C 0.02181 0.01212 0.85207 0.0
C2047 C 0.85369 0.77862 0.82967 0.0
C2048 C 0.8241 0.79562 0.8287 0.0
C2049 C 0.90005 0.80788 0.82851 0.0
C2050 C 0.91694 0.854 0.82597 0.0
C2051 C 0.88679 0.86985 0.82376 0.0
C2052 C 0.84058 0.84087 0.82525 0.0
C2053 C 0.9653 0.88641 0.82802 0.0
C2054 C 0.97646 0.91986 0.83749 0.0
C2055 C 0.99951 0.87991 0.82252 0.0
C2056 C 0.98951 0.84564 0.81226 0.0
C2057 C 0.9635 0.84295 0.80137 0.0
C2058 C 0.95157 0.80868 0.79222 0.0
C2059 C 0.96596 0.77723 0.79376 0.0
C2060 C 0.99262 0.78019 0.80439 0.0
C2061 C 1.00438 0.81418 0.81362 0.0
H2062 H 0.95632 0.7504 0.78677 0.0
H2063 H 0.05036 0.05656 0.8824 0.0
loop_
_geom_bond_atom_site_label_1
_geom_bond_atom_site_label_2
_geom_bond_distance
_geom_bond_site_symmetry_2
_ccdc_geom_bond_type
Fe0 O2 1.918 . S
Fe0 O5 1.997 . S
Fe0 O6 2.002 . S
Fe0 O11 1.976 1_554 S
Fe0 O14 1.995 1_554 S
Fe1 O2 1.918 . S
Fe1 O9 1.997 . S
Fe1 O12 1.996 1_554 S
Fe1 O16 1.976 . S
Fe1 O19 2.002 . S
O2 Fe0 1.918 . S
O2 Fe1 1.918 . S
O2 Fe3 1.918 . S
Fe3 O2 1.918 . S
Fe3 O4 2.002 . S
Fe3 O13 1.976 . S
Fe3 O17 1.996 . S
Fe3 O20 1.997 . S
O4 Fe3 2.002 . S
O4 C21 1.295 . S
O5 Fe0 1.997 . S
O5 C21 1.235 . S
O6 Fe0 2.002 . S
O6 C7 1.295 . S
C7 O6 1.295 . S
C7 O9 1.235 . S
C8 O13 1.287 . S
C8 O14 1.252 1_554 S
O9 Fe1 1.997 . S
O9 C7 1.235 . S
C10 O16 1.287 . S
C10 O17 1.255 . S
O11 Fe0 1.976 1_556 S
O11 C18 1.287 . S
O12 Fe1 1.996 1_556 S
O12 C18 1.255 . S
O13 Fe3 1.976 . S
O13 C8 1.287 . S
O14 Fe0 1.995 1_556 S
O14 C8 1.252 1_556 S
C15 O19 1.295 . S
C15 O20 1.235 . S
O16 Fe1 1.976 . S
O16 C10 1.287 . S
O17 Fe3 1.996 . S
O17 C10 1.255 . S
C18 O11 1.287 . S
C18 O12 1.255 . S
O19 Fe1 2.002 . S
O19 C15 1.295 . S
O20 Fe3 1.997 . S
O20 C15 1.235 . S
C21 O4 1.295 . S
C21 O5 1.235 . S
Fe22 O24 1.918 . S
Fe22 O27 1.997 . S
Fe22 O28 2.002 . S
Fe22 O33 1.976 . S
Fe22 O36 1.996 . S
Fe23 O24 1.918 . S
Fe23 O31 1.997 . S
Fe23 O34 1.996 . S
Fe23 O38 1.976 . S
Fe23 O41 2.002 . S
O24 Fe22 1.918 . S
O24 Fe23 1.918 . S
O24 Fe25 1.918 1_655 S
Fe25 O24 1.918 1_455 S
Fe25 O26 2.002 . S
Fe25 O35 1.976 . S
Fe25 O39 1.996 . S
Fe25 O42 1.997 . S
O26 Fe25 2.002 . S
O26 C43 1.295 . S
O27 Fe22 1.997 . S
O27 C43 1.235 1_655 S
O28 Fe22 2.002 . S
O28 C29 1.295 . S
C29 O28 1.295 . S
C29 O31 1.235 . S
C30 O35 1.274 1_655 S
C30 O36 1.264 . S
O31 Fe23 1.997 . S
O31 C29 1.235 . S
C32 O38 1.287 . S
C32 O39 1.255 1_655 S
O33 Fe22 1.976 . S
O33 C40 1.287 . S
O34 Fe23 1.996 . S
O34 C40 1.255 . S
O35 Fe25 1.976 . S
O35 C30 1.274 1_455 S
O36 Fe22 1.996 . S
O36 C30 1.264 . S
C37 O41 1.295 1_455 S
C37 O42 1.235 . S
O38 Fe23 1.976 . S
O38 C32 1.287 . S
O39 Fe25 1.996 . S
O39 C32 1.255 1_455 S
C40 O33 1.287 . S
C40 O34 1.255 . S
O41 Fe23 2.002 . S
O41 C37 1.295 1_655 S
O42 Fe25 1.997 . S
O42 C37 1.235 . S
C43 O26 1.295 . S
C43 O27 1.235 1_455 S
Fe44 O46 1.918 . S
Fe44 O49 1.997 . S
Fe44 O50 2.002 . S
Fe44 O55 1.976 . S
Fe44 O58 1.996 . S
Fe45 O46 1.918 1_545 S
Fe45 O53 1.997 . S
Fe45 O56 1.996 . S
Fe45 O60 1.976 . S
Fe45 O63 2.002 . S
O46 Fe44 1.918 . S
O46 Fe45 1.918 1_565 S
O46 Fe47 1.918 . S
Fe47 O46 1.918 . S
Fe47 O48 2.002 . S
Fe47 O57 1.976 . S
Fe47 O61 1.996 . S
Fe47 O64 1.997 . S
O48 Fe47 2.002 . S
O48 C65 1.295 . S
O49 Fe44 1.997 . S
O49 C65 1.235 . S
O50 Fe44 2.002 . S
O50 C51 1.295 1_565 S
C51 O50 1.295 1_545 S
C51 O53 1.235 . S
C52 O57 1.287 . S
C52 O58 1.255 . S
O53 Fe45 1.997 . S
O53 C51 1.235 . S
C54 O60 1.286 . S
C54 O61 1.257 1_545 S
O55 Fe44 1.976 . S
O55 C62 1.287 . S
O56 Fe45 1.996 . S
O56 C62 1.255 1_545 S
O57 Fe47 1.976 . S
O57 C52 1.287 . S
O58 Fe44 1.996 . S
O58 C52 1.255 . S
C59 O63 1.295 . S
C59 O64 1.235 1_545 S
O60 Fe45 1.976 . S
O60 C54 1.286 . S
O61 Fe47 1.996 . S
O61 C54 1.257 1_565 S
C62 O55 1.287 . S
C62 O56 1.255 1_565 S
O63 Fe45 2.002 . S
O63 C59 1.295 . S
O64 Fe47 1.997 . S
O64 C59 1.235 1_565 S
C65 O48 1.295 . S
C65 O49 1.235 . S
Fe66 O68 1.918 . S
Fe66 O71 1.997 . S
Fe66 O72 2.002 . S
Fe66 O77 1.976 . S
Fe66 O80 1.996 . S
Fe67 O68 1.918 . S
Fe67 O75 1.997 . S
Fe67 O78 1.996 . S
Fe67 O82 1.976 . S
Fe67 O85 2.002 . S
O68 Fe66 1.918 . S
O68 Fe67 1.918 . S
O68 Fe69 1.918 . S
Fe69 O68 1.918 . S
Fe69 O70 2.002 . S
Fe69 O79 1.976 . S
Fe69 O83 1.996 . S
Fe69 O86 1.997 . S
O70 Fe69 2.002 . S
O70 C87 1.295 . S
O71 Fe66 1.997 . S
O71 C87 1.235 . S
O72 Fe66 2.002 . S
O72 C73 1.295 . S
C73 O72 1.295 . S
C73 O75 1.235 . S
C74 O79 1.287 . S
C74 O80 1.255 . S
O75 Fe67 1.997 . S
O75 C73 1.235 . S
C76 O82 1.287 . S
C76 O83 1.255 . S
O77 Fe66 1.976 . S
O77 C84 1.287 . S
O78 Fe67 1.996 . S
O78 C84 1.255 . S
O79 Fe69 1.976 . S
O79 C74 1.287 . S
O80 Fe66 1.996 . S
O80 C74 1.255 . S
C81 O85 1.295 . S
C81 O86 1.235 . S
O82 Fe67 1.976 . S
O82 C76 1.287 . S
O83 Fe69 1.996 . S
O83 C76 1.255 . S
C84 O77 1.287 . S
C84 O78 1.255 . S
O85 Fe67 2.002 . S
O85 C81 1.295 . S
O86 Fe69 1.997 . S
O86 C81 1.235 . S
C87 O70 1.295 . S
C87 O71 1.235 . S
Fe88 O90 1.918 . S
Fe88 O93 1.997 . S
Fe88 O94 2.002 . S
Fe88 O99 1.976 . S
Fe88 O102 1.996 . S
Fe89 O90 1.918 . S
Fe89 O97 1.997 . S
Fe89 O100 1.996 . S
Fe89 O104 1.976 . S
Fe89 O107 2.002 . S
O90 Fe88 1.918 . S
O90 Fe89 1.918 . S
O90 Fe91 1.918 1_455 S
Fe91 O90 1.918 1_655 S
Fe91 O92 2.002 . S
Fe91 O101 1.976 . S
Fe91 O105 1.996 . S
Fe91 O108 1.997 . S
O92 Fe91 2.002 . S
O92 C109 1.295 . S
O93 Fe88 1.997 . S
O93 C109 1.235 1_455 S
O94 Fe88 2.002 . S
O94 C95 1.295 . S
C95 O94 1.295 . S
C95 O97 1.235 . S
C96 O101 1.299 . S
C96 O102 1.246 1_655 S
O97 Fe89 1.997 . S
O97 C95 1.235 . S
C98 O104 1.287 . S
C98 O105 1.255 1_455 S
O99 Fe88 1.976 . S
O99 C106 1.287 . S
O100 Fe89 1.996 . S
O100 C106 1.255 . S
O101 Fe91 1.976 . S
O101 C96 1.299 . S
O102 Fe88 1.996 . S
O102 C96 1.246 1_455 S
C103 O107 1.295 1_655 S
C103 O108 1.235 . S
O104 Fe89 1.976 . S
O104 C98 1.287 . S
O105 Fe91 1.996 . S
O105 C98 1.255 1_655 S
C106 O99 1.287 . S
C106 O100 1.255 . S
O107 Fe89 2.002 . S
O107 C103 1.295 1_455 S
O108 Fe91 1.997 . S
O108 C103 1.235 . S
C109 O92 1.295 . S
C109 O93 1.235 1_655 S
Fe110 O112 1.918 . S
Fe110 O115 1.997 . S
Fe110 O116 2.002 . S
Fe110 O121 1.976 . S
Fe110 O124 1.996 . S
Fe111 O112 1.918 1_565 S
Fe111 O119 1.997 . S
Fe111 O122 1.996 . S
Fe111 O126 1.976 . S
Fe111 O129 2.002 . S
O112 Fe110 1.918 . S
O112 Fe111 1.918 1_545 S
O112 Fe113 1.918 . S
Fe113 O112 1.918 . S
Fe113 O114 2.002 . S
Fe113 O123 1.976 . S
Fe113 O127 1.996 . S
Fe113 O130 1.997 . S
O114 Fe113 2.002 . S
O114 C131 1.295 . S
O115 Fe110 1.997 . S
O115 C131 1.235 . S
O116 Fe110 2.002 . S
O116 C117 1.295 1_545 S
C117 O116 1.295 1_565 S
C117 O119 1.235 . S
C118 O123 1.287 . S
C118 O124 1.255 . S
O119 Fe111 1.997 . S
O119 C117 1.235 . S
C120 O126 1.286 . S
C120 O127 1.257 1_565 S
O121 Fe110 1.976 . S
O121 C128 1.287 . S
O122 Fe111 1.996 . S
O122 C128 1.255 1_565 S
O123 Fe113 1.976 . S
O123 C118 1.287 . S
O124 Fe110 1.996 . S
O124 C118 1.255 . S
C125 O129 1.295 . S
C125 O130 1.235 1_565 S
O126 Fe111 1.976 . S
O126 C120 1.286 . S
O127 Fe113 1.996 . S
O127 C120 1.257 1_545 S
C128 O121 1.287 . S
C128 O122 1.255 1_545 S
O129 Fe111 2.002 . S
O129 C125 1.295 . S
O130 Fe113 1.997 . S
O130 C125 1.235 1_545 S
C131 O114 1.295 . S
C131 O115 1.235 . S
Fe132 O134 1.918 . S
Fe132 O137 1.997 . S
Fe132 O138 2.002 . S
Fe132 O143 1.976 . S
Fe132 O146 1.996 . S
Fe133 O134 1.918 . S
Fe133 O141 1.997 . S
Fe133 O144 1.996 . S
Fe133 O148 1.976 . S
Fe133 O151 2.002 . S
O134 Fe132 1.918 . S
O134 Fe133 1.918 . S
O134 Fe135 1.918 . S
Fe135 O134 1.918 . S
Fe135 O136 2.002 . S
Fe135 O145 1.976 . S
Fe135 O149 1.996 . S
Fe135 O152 1.997 . S
O136 Fe135 2.002 . S
O136 C153 1.295 . S
O137 Fe132 1.997 . S
O137 C153 1.235 . S
O138 Fe132 2.002 . S
O138 C139 1.295 . S
C139 O138 1.295 . S
C139 O141 1.235 . S
C140 O145 1.287 . S
C140 O146 1.255 . S
O141 Fe133 1.997 . S
O141 C139 1.235 . S
C142 O148 1.287 . S
C142 O149 1.255 . S
O143 Fe132 1.976 . S
O143 C150 1.287 . S
O144 Fe133 1.996 . S
O144 C150 1.255 . S
O145 Fe135 1.976 . S
O145 C140 1.287 . S
O146 Fe132 1.996 . S
O146 C140 1.255 . S
C147 O151 1.295 . S
C147 O152 1.235 . S
O148 Fe133 1.976 . S
O148 C142 1.287 . S
O149 Fe135 1.996 . S
O149 C142 1.255 . S
C150 O143 1.287 . S
C150 O144 1.255 . S
O151 Fe133 2.002 . S
O151 C147 1.295 . S
O152 Fe135 1.997 . S
O152 C147 1.235 . S
C153 O136 1.295 . S
C153 O137 1.235 . S
Fe154 O156 1.918 1_455 S
Fe154 O159 1.997 . S
Fe154 O160 2.002 . S
Fe154 O165 1.976 . S
Fe154 O168 1.996 1_556 S
Fe155 O156 1.918 . S
Fe155 O163 1.997 . S
Fe155 O166 1.996 . S
Fe155 O170 1.976 . S
Fe155 O173 2.002 . S
O156 Fe154 1.918 1_655 S
O156 Fe155 1.918 . S
O156 Fe157 1.918 . S
Fe157 O156 1.918 . S
Fe157 O158 2.002 . S
Fe157 O167 1.976 1_556 S
Fe157 O171 1.996 . S
Fe157 O174 1.997 . S
O158 Fe157 2.002 . S
O158 C175 1.295 1_655 S
O159 Fe154 1.997 . S
O159 C175 1.235 . S
O160 Fe154 2.002 . S
O160 C161 1.295 . S
C161 O160 1.295 . S
C161 O163 1.235 1_455 S
C162 O167 1.287 . S
C162 O168 1.255 1_655 S
O163 Fe155 1.997 . S
O163 C161 1.235 1_655 S
C164 O170 1.287 . S
C164 O171 1.255 . S
O165 Fe154 1.976 . S
O165 C172 1.285 1_455 S
O166 Fe155 1.996 . S
O166 C172 1.266 . S
O167 Fe157 1.976 1_554 S
O167 C162 1.287 . S
O168 Fe154 1.996 1_554 S
O168 C162 1.255 1_455 S
C169 O173 1.295 . S
C169 O174 1.235 . S
O170 Fe155 1.976 . S
O170 C164 1.287 . S
O171 Fe157 1.996 . S
O171 C164 1.255 . S
C172 O165 1.285 1_655 S
C172 O166 1.266 . S
O173 Fe155 2.002 . S
O173 C169 1.295 . S
O174 Fe157 1.997 . S
O174 C169 1.235 . S
C175 O158 1.295 1_455 S
C175 O159 1.235 . S
Fe176 O178 1.918 1_545 S
Fe176 O181 1.997 . S
Fe176 O182 2.002 . S
Fe176 O187 1.976 . S
Fe176 O190 1.996 . S
Fe177 O178 1.918 . S
Fe177 O185 1.997 . S
Fe177 O188 1.996 . S
Fe177 O192 1.976 . S
Fe177 O195 2.002 . S
O178 Fe176 1.918 1_565 S
O178 Fe177 1.918 . S
O178 Fe179 1.918 . S
Fe179 O178 1.918 . S
Fe179 O180 2.002 . S
Fe179 O189 1.976 . S
Fe179 O193 1.996 . S
Fe179 O196 1.997 . S
O180 Fe179 2.002 . S
O180 C197 1.295 1_565 S
O181 Fe176 1.997 . S
O181 C197 1.235 . S
O182 Fe176 2.002 . S
O182 C183 1.295 . S
C183 O182 1.295 . S
C183 O185 1.235 1_545 S
C184 O189 1.287 . S
C184 O190 1.255 1_565 S
O185 Fe177 1.997 . S
O185 C183 1.235 1_565 S
C186 O192 1.287 . S
C186 O193 1.255 . S
O187 Fe176 1.976 . S
O187 C194 1.289 1_545 S
O188 Fe177 1.996 . S
O188 C194 1.253 . S
O189 Fe179 1.976 . S
O189 C184 1.287 . S
O190 Fe176 1.996 . S
O190 C184 1.255 1_545 S
C191 O195 1.295 . S
C191 O196 1.235 . S
O192 Fe177 1.976 . S
O192 C186 1.287 . S
O193 Fe179 1.996 . S
O193 C186 1.255 . S
C194 O187 1.289 1_565 S
C194 O188 1.253 . S
O195 Fe177 2.002 . S
O195 C191 1.295 . S
O196 Fe179 1.997 . S
O196 C191 1.235 . S
C197 O180 1.295 1_545 S
C197 O181 1.235 . S
Fe198 O200 1.918 . S
Fe198 O203 1.997 . S
Fe198 O204 2.002 . S
Fe198 O209 1.976 . S
Fe198 O212 1.996 . S
Fe199 O200 1.918 . S
Fe199 O207 1.997 . S
Fe199 O210 1.996 . S
Fe199 O214 1.976 . S
Fe199 O217 2.002 . S
O200 Fe198 1.918 . S
O200 Fe199 1.918 . S
O200 Fe201 1.918 . S
Fe201 O200 1.918 . S
Fe201 O202 2.002 . S
Fe201 O211 1.976 . S
Fe201 O215 1.996 . S
Fe201 O218 1.997 . S
O202 Fe201 2.002 . S
O202 C219 1.295 . S
O203 Fe198 1.997 . S
O203 C219 1.235 . S
O204 Fe198 2.002 . S
O204 C205 1.295 . S
C205 O204 1.295 . S
C205 O207 1.235 . S
C206 O211 1.287 . S
C206 O212 1.255 . S
O207 Fe199 1.997 . S
O207 C205 1.235 . S
C208 O214 1.287 . S
C208 O215 1.255 . S
O209 Fe198 1.976 . S
O209 C216 1.287 . S
O210 Fe199 1.996 . S
O210 C216 1.255 . S
O211 Fe201 1.976 . S
O211 C206 1.287 . S
O212 Fe198 1.996 . S
O212 C206 1.255 . S
C213 O217 1.295 . S
C213 O218 1.235 . S
O214 Fe199 1.976 . S
O214 C208 1.287 . S
O215 Fe201 1.996 . S
O215 C208 1.255 . S
C216 O209 1.287 . S
C216 O210 1.255 . S
O217 Fe199 2.002 . S
O217 C213 1.295 . S
O218 Fe201 1.997 . S
O218 C213 1.235 . S
C219 O202 1.295 . S
C219 O203 1.235 . S
Fe220 O222 1.918 . S
Fe220 O225 1.997 . S
Fe220 O226 2.002 . S
Fe220 O231 1.976 . S
Fe220 O234 1.996 . S
Fe221 O222 1.918 . S
Fe221 O229 1.997 . S
Fe221 O232 1.996 . S
Fe221 O236 1.976 . S
Fe221 O239 2.002 . S
O222 Fe220 1.918 . S
O222 Fe221 1.918 . S
O222 Fe223 1.918 1_455 S
Fe223 O222 1.918 1_655 S
Fe223 O224 2.002 . S
Fe223 O233 1.976 . S
Fe223 O237 1.996 . S
Fe223 O240 1.997 . S
O224 Fe223 2.002 . S
O224 C241 1.295 . S
O225 Fe220 1.997 . S
O225 C241 1.235 1_455 S
O226 Fe220 2.002 . S
O226 C227 1.295 . S
C227 O226 1.295 . S
C227 O229 1.235 . S
C228 O233 1.288 . S
C228 O234 1.244 1_655 S
O229 Fe221 1.997 . S
O229 C227 1.235 . S
C230 O236 1.287 . S
C230 O237 1.255 1_455 S
O231 Fe220 1.976 . S
O231 C238 1.287 . S
O232 Fe221 1.996 . S
O232 C238 1.255 . S
O233 Fe223 1.976 . S
O233 C228 1.288 . S
O234 Fe220 1.996 . S
O234 C228 1.244 1_455 S
C235 O239 1.295 1_655 S
C235 O240 1.235 . S
O236 Fe221 1.976 . S
O236 C230 1.287 . S
O237 Fe223 1.996 . S
O237 C230 1.255 1_655 S
C238 O231 1.287 . S
C238 O232 1.255 . S
O239 Fe221 2.002 . S
O239 C235 1.295 1_455 S
O240 Fe223 1.997 . S
O240 C235 1.235 . S
C241 O224 1.295 . S
C241 O225 1.235 1_655 S
Fe242 O244 1.918 1_565 S
Fe242 O247 1.997 . S
Fe242 O248 2.002 . S
Fe242 O253 1.976 . S
Fe242 O256 1.996 . S
Fe243 O244 1.918 . S
Fe243 O251 1.997 . S
Fe243 O254 1.996 . S
Fe243 O258 1.976 . S
Fe243 O261 2.002 . S
O244 Fe242 1.918 1_545 S
O244 Fe243 1.918 . S
O244 Fe245 1.918 . S
Fe245 O244 1.918 . S
Fe245 O246 2.002 . S
Fe245 O255 1.976 . S
Fe245 O259 1.996 . S
Fe245 O262 1.997 . S
O246 Fe245 2.002 . S
O246 C263 1.295 1_545 S
O247 Fe242 1.997 . S
O247 C263 1.235 . S
O248 Fe242 2.002 . S
O248 C249 1.295 . S
C249 O248 1.295 . S
C249 O251 1.235 1_565 S
C250 O255 1.287 . S
C250 O256 1.255 1_545 S
O251 Fe243 1.997 . S
O251 C249 1.235 1_545 S
C252 O258 1.287 . S
C252 O259 1.255 . S
O253 Fe242 1.976 . S
O253 C260 1.289 1_565 S
O254 Fe243 1.996 . S
O254 C260 1.253 . S
O255 Fe245 1.976 . S
O255 C250 1.287 . S
O256 Fe242 1.996 . S
O256 C250 1.255 1_565 S
C257 O261 1.295 . S
C257 O262 1.235 . S
O258 Fe243 1.976 . S
O258 C252 1.287 . S
O259 Fe245 1.996 . S
O259 C252 1.255 . S
C260 O253 1.289 1_545 S
C260 O254 1.253 . S
O261 Fe243 2.002 . S
O261 C257 1.295 . S
O262 Fe245 1.997 . S
O262 C257 1.235 . S
C263 O246 1.295 1_565 S
C263 O247 1.235 . S
H264 C282 0.951 . S
H265 C284 0.951 . S
H266 C286 0.950 . S
H267 C287 0.982 . S
H268 C289 0.950 . S
H269 C292 0.950 . S
H270 C293 0.950 . S
H271 C295 0.950 . S
H272 C296 0.950 . S
H273 C297 0.951 . S
H274 C299 0.951 . S
H275 C301 0.975 . S
H276 C302 0.927 1_556 S
H277 C304 0.950 . S
H278 C307 0.950 . S
H279 C308 0.950 . S
H280 C310 0.950 . S
H281 C311 0.950 . S
C282 H264 0.951 . S
C282 C283 1.366 . S
C282 C284 1.388 . S
C283 C282 1.366 . S
C283 C287 1.349 1_556 S
C284 H265 0.951 . S
C284 C282 1.388 . S
C284 C285 1.366 . S
C285 C284 1.366 . S
C285 C286 1.414 1_556 S
C285 C288 1.499 . S
C286 H266 0.950 . S
C286 C285 1.414 1_554 S
C286 C287 1.385 . S
C287 H267 0.982 . S
C287 C283 1.349 1_554 S
C287 C286 1.385 . S
C288 C285 1.499 . S
C288 C289 1.373 1_556 S
C288 C290 1.389 . S
C289 H268 0.950 . S
C289 C288 1.373 1_554 S
C289 C305 1.377 . S
C290 C288 1.389 . S
C290 C291 1.524 . S
C290 C304 1.377 . S
C291 C290 1.524 . S
C291 C292 1.397 . S
C291 C296 1.363 . S
C292 H269 0.950 . S
C292 C291 1.397 . S
C292 C293 1.334 . S
C293 H270 0.950 . S
C293 C292 1.334 . S
C293 C294 1.287 . S
C294 C293 1.287 . S
C294 C295 1.524 . S
C294 H313 0.913 . S
C295 H271 0.950 . S
C295 C294 1.524 . S
C295 C296 1.415 . S
C296 H272 0.950 . S
C296 C291 1.363 . S
C296 C295 1.415 . S
C297 H273 0.951 . S
C297 C298 1.366 . S
C297 C299 1.388 . S
C298 C297 1.366 . S
C298 C302 1.418 . S
C299 H274 0.951 . S
C299 C297 1.388 . S
C299 C300 1.366 . S
C300 C299 1.366 . S
C300 C301 1.397 1_554 S
C300 C303 1.499 . S
C301 H275 0.975 . S
C301 C300 1.397 1_556 S
C301 C302 1.367 1_556 S
C302 H276 0.927 1_554 S
C302 C298 1.418 . S
C302 C301 1.367 1_554 S
C303 C300 1.499 . S
C303 C304 1.373 1_554 S
C303 C305 1.389 . S
C304 H277 0.950 . S
C304 C290 1.377 . S
C304 C303 1.373 1_556 S
C305 C289 1.377 . S
C305 C303 1.389 . S
C305 C306 1.524 . S
C306 C305 1.524 . S
C306 C307 1.397 . S
C306 C311 1.363 . S
C307 H278 0.950 . S
C307 C306 1.397 . S
C307 C308 1.334 . S
C308 H279 0.950 . S
C308 C307 1.334 . S
C308 C309 1.287 . S
C309 C308 1.287 . S
C309 C310 1.524 . S
C309 H312 0.999 . S
C310 H280 0.950 . S
C310 C309 1.524 . S
C310 C311 1.415 . S
C311 H281 0.950 . S
C311 C306 1.363 . S
C311 C310 1.415 . S
H312 C309 0.999 . S
H313 C294 0.913 . S
H314 C332 0.951 . S
H315 C334 0.951 . S
H316 C336 0.950 . S
H317 C337 0.950 . S
H318 C339 0.950 . S
H319 C342 0.950 . S
H320 C343 0.950 . S
H321 C345 0.950 . S
H322 C346 0.950 . S
H323 C347 0.951 . S
H324 C349 0.951 . S
H325 C351 0.950 . S
H326 C352 0.950 1_655 S
H327 C354 0.950 . S
H328 C357 0.950 . S
H329 C358 0.950 . S
H330 C360 0.950 . S
H331 C361 0.950 . S
C332 H314 0.951 . S
C332 C333 1.366 . S
C332 C334 1.388 . S
C333 C332 1.366 . S
C333 C337 1.385 . S
C334 H315 0.951 . S
C334 C332 1.388 . S
C334 C335 1.366 . S
C335 C334 1.366 . S
C335 C336 1.414 . S
C335 C338 1.499 . S
C336 H316 0.950 . S
C336 C335 1.414 . S
C336 C337 1.374 . S
C337 H317 0.950 . S
C337 C333 1.385 . S
C337 C336 1.374 . S
C338 C335 1.499 . S
C338 C339 1.373 . S
C338 C340 1.389 . S
C339 H318 0.950 . S
C339 C338 1.373 . S
C339 C355 1.377 . S
C340 C338 1.389 . S
C340 C341 1.524 . S
C340 C354 1.377 . S
C341 C340 1.524 . S
C341 C342 1.397 . S
C341 C346 1.363 . S
C342 H319 0.950 . S
C342 C341 1.397 . S
C342 C343 1.334 . S
C343 H320 0.950 . S
C343 C342 1.334 . S
C343 C344 1.287 . S
C344 C343 1.287 . S
C344 C345 1.524 . S
C344 H363 0.913 . S
C345 H321 0.950 . S
C345 C344 1.524 . S
C345 C346 1.415 . S
C346 H322 0.950 . S
C346 C341 1.363 . S
C346 C345 1.415 . S
C347 H323 0.951 . S
C347 C348 1.366 . S
C347 C349 1.388 . S
C348 C347 1.366 . S
C348 C352 1.385 . S
C349 H324 0.951 . S
C349 C347 1.388 . S
C349 C350 1.366 . S
C350 C349 1.366 . S
C350 C351 1.414 . S
C350 C353 1.499 . S
C351 H325 0.950 . S
C351 C350 1.414 . S
C351 C352 1.374 . S
C352 H326 0.950 1_455 S
C352 C348 1.385 . S
C352 C351 1.374 . S
C353 C350 1.499 . S
C353 C354 1.373 . S
C353 C355 1.389 . S
C354 H327 0.950 . S
C354 C340 1.377 . S
C354 C353 1.373 . S
C355 C339 1.377 . S
C355 C353 1.389 . S
C355 C356 1.524 . S
C356 C355 1.524 . S
C356 C357 1.397 . S
C356 C361 1.363 . S
C357 H328 0.950 . S
C357 C356 1.397 . S
C357 C358 1.334 . S
C358 H329 0.950 . S
C358 C357 1.334 . S
C358 C359 1.287 . S
C359 C358 1.287 . S
C359 C360 1.524 . S
C359 H362 0.999 . S
C360 H330 0.950 . S
C360 C359 1.524 . S
C360 C361 1.415 . S
C361 H331 0.950 . S
C361 C356 1.363 . S
C361 C360 1.415 . S
H362 C359 0.999 . S
H363 C344 0.913 . S
H364 C382 0.951 . S
H365 C384 0.951 . S
H366 C386 0.950 . S
H367 C387 0.950 . S
H368 C389 0.950 . S
H369 C392 0.950 . S
H370 C393 0.950 . S
H371 C395 0.950 . S
H372 C396 0.950 . S
H373 C397 0.951 1_565 S
H374 C399 0.951 . S
H375 C401 0.950 . S
H376 C402 0.950 . S
H377 C404 0.950 . S
H378 C407 0.950 . S
H379 C408 0.950 . S
H380 C410 0.950 . S
H381 C411 0.950 . S
C382 H364 0.951 . S
C382 C383 1.366 . S
C382 C384 1.388 . S
C383 C382 1.366 . S
C383 C387 1.385 . S
C384 H365 0.951 . S
C384 C382 1.388 . S
C384 C385 1.366 . S
C385 C384 1.366 . S
C385 C386 1.414 . S
C385 C388 1.499 . S
C386 H366 0.950 . S
C386 C385 1.414 . S
C386 C387 1.374 . S
C387 H367 0.950 . S
C387 C383 1.385 . S
C387 C386 1.374 . S
C388 C385 1.499 . S
C388 C389 1.373 . S
C388 C390 1.389 . S
C389 H368 0.950 . S
C389 C388 1.373 . S
C389 C405 1.377 . S
C390 C388 1.389 . S
C390 C391 1.524 . S
C390 C404 1.377 . S
C391 C390 1.524 . S
C391 C392 1.397 . S
C391 C396 1.363 . S
C392 H369 0.950 . S
C392 C391 1.397 . S
C392 C393 1.334 . S
C393 H370 0.950 . S
C393 C392 1.334 . S
C393 C394 1.287 . S
C394 C393 1.287 . S
C394 C395 1.524 . S
C394 H413 0.913 . S
C395 H371 0.950 . S
C395 C394 1.524 . S
C395 C396 1.415 . S
C396 H372 0.950 . S
C396 C391 1.363 . S
C396 C395 1.415 . S
C397 H373 0.951 1_545 S
C397 C398 1.366 . S
C397 C399 1.388 . S
C398 C397 1.366 . S
C398 C402 1.385 . S
C399 H374 0.951 . S
C399 C397 1.388 . S
C399 C400 1.366 . S
C400 C399 1.366 . S
C400 C401 1.414 . S
C400 C403 1.499 . S
C401 H375 0.950 . S
C401 C400 1.414 . S
C401 C402 1.374 . S
C402 H376 0.950 . S
C402 C398 1.385 . S
C402 C401 1.374 . S
C403 C400 1.499 . S
C403 C404 1.373 . S
C403 C405 1.389 . S
C404 H377 0.950 . S
C404 C390 1.377 . S
C404 C403 1.373 . S
C405 C389 1.377 . S
C405 C403 1.389 . S
C405 C406 1.524 . S
C406 C405 1.524 . S
C406 C407 1.397 . S
C406 C411 1.363 . S
C407 H378 0.950 . S
C407 C406 1.397 . S
C407 C408 1.334 . S
C408 H379 0.950 . S
C408 C407 1.334 . S
C408 C409 1.287 . S
C409 C408 1.287 . S
C409 C410 1.524 1_545 S
C409 H412 0.999 1_545 S
C410 H380 0.950 . S
C410 C409 1.524 1_565 S
C410 C411 1.415 1_565 S
C411 H381 0.950 . S
C411 C406 1.363 . S
C411 C410 1.415 1_545 S
H412 C409 0.999 1_565 S
H413 C394 0.913 . S
H414 C432 0.951 . S
H415 C434 0.951 . S
H416 C436 0.950 . S
H417 C437 0.950 . S
H418 C439 0.950 . S
H419 C442 0.950 . S
H420 C443 0.950 . S
H421 C445 0.950 . S
H422 C446 0.950 . S
H423 C447 0.951 . S
H424 C449 0.951 . S
H425 C451 0.950 . S
H426 C452 0.950 . S
H427 C454 0.950 . S
H428 C457 0.950 . S
H429 C458 0.950 . S
H430 C460 0.950 . S
H431 C461 0.950 . S
C432 H414 0.951 . S
C432 C433 1.366 . S
C432 C434 1.388 . S
C433 C432 1.366 . S
C433 C437 1.385 . S
C434 H415 0.951 . S
C434 C432 1.388 . S
C434 C435 1.366 . S
C435 C434 1.366 . S
C435 C436 1.414 . S
C435 C438 1.499 . S
C436 H416 0.950 . S
C436 C435 1.414 . S
C436 C437 1.374 . S
C437 H417 0.950 . S
C437 C433 1.385 . S
C437 C436 1.374 . S
C438 C435 1.499 . S
C438 C439 1.373 . S
C438 C440 1.389 . S
C439 H418 0.950 . S
C439 C438 1.373 . S
C439 C455 1.377 . S
C440 C438 1.389 . S
C440 C441 1.524 . S
C440 C454 1.377 . S
C441 C440 1.524 . S
C441 C442 1.397 . S
C441 C446 1.363 . S
C442 H419 0.950 . S
C442 C441 1.397 . S
C442 C443 1.334 . S
C443 H420 0.950 . S
C443 C442 1.334 . S
C443 C444 1.287 . S
C444 C443 1.287 . S
C444 C445 1.524 . S
C444 H463 0.913 . S
C445 H421 0.950 . S
C445 C444 1.524 . S
C445 C446 1.415 . S
C446 H422 0.950 . S
C446 C441 1.363 . S
C446 C445 1.415 . S
C447 H423 0.951 . S
C447 C448 1.366 . S
C447 C449 1.388 . S
C448 C447 1.366 . S
C448 C452 1.385 . S
C449 H424 0.951 . S
C449 C447 1.388 . S
C449 C450 1.366 . S
C450 C449 1.366 . S
C450 C451 1.414 . S
C450 C453 1.499 . S
C451 H425 0.950 . S
C451 C450 1.414 . S
C451 C452 1.374 . S
C452 H426 0.950 . S
C452 C448 1.385 . S
C452 C451 1.374 . S
C453 C450 1.499 . S
C453 C454 1.373 . S
C453 C455 1.389 . S
C454 H427 0.950 . S
C454 C440 1.377 . S
C454 C453 1.373 . S
C455 C439 1.377 . S
C455 C453 1.389 . S
C455 C456 1.524 . S
C456 C455 1.524 . S
C456 C457 1.397 . S
C456 C461 1.363 . S
C457 H428 0.950 . S
C457 C456 1.397 . S
C457 C458 1.334 . S
C458 H429 0.950 . S
C458 C457 1.334 . S
C458 C459 1.287 . S
C459 C458 1.287 . S
C459 C460 1.524 . S
C459 H462 0.999 . S
C460 H430 0.950 . S
C460 C459 1.524 . S
C460 C461 1.415 . S
C461 H431 0.950 . S
C461 C456 1.363 . S
C461 C460 1.415 . S
H462 C459 0.999 . S
H463 C444 0.913 . S
H464 C482 0.951 . S
H465 C484 0.951 . S
H466 C486 0.950 . S
H467 C487 0.950 . S
H468 C489 0.950 . S
H469 C492 0.950 . S
H470 C493 0.950 . S
H471 C495 0.930 1_455 S
H472 C496 0.950 . S
H473 C497 0.951 . S
H474 C499 0.951 . S
H475 C501 0.950 . S
H476 C502 0.950 1_455 S
H477 C504 0.950 . S
H478 C507 0.950 . S
H479 C508 0.950 . S
H480 C510 0.950 . S
H481 C511 0.950 . S
C482 H464 0.951 . S
C482 C483 1.366 . S
C482 C484 1.388 . S
C483 C482 1.366 . S
C483 C487 1.385 . S
C484 H465 0.951 . S
C484 C482 1.388 . S
C484 C485 1.366 . S
C485 C484 1.366 . S
C485 C486 1.414 . S
C485 C488 1.499 . S
C486 H466 0.950 . S
C486 C485 1.414 . S
C486 C487 1.374 . S
C487 H467 0.950 . S
C487 C483 1.385 . S
C487 C486 1.374 . S
C488 C485 1.499 . S
C488 C489 1.373 . S
C488 C490 1.389 . S
C489 H468 0.950 . S
C489 C488 1.373 . S
C489 C505 1.377 . S
C490 C488 1.389 . S
C490 C491 1.524 . S
C490 C504 1.377 . S
C491 C490 1.524 . S
C491 C492 1.397 . S
C491 C496 1.363 . S
C492 H469 0.950 . S
C492 C491 1.397 . S
C492 C493 1.334 . S
C493 H470 0.950 . S
C493 C492 1.334 . S
C493 C494 1.287 . S
C494 C493 1.287 . S
C494 C495 1.524 . S
C494 H513 0.913 . S
C495 H471 0.930 1_655 S
C495 C494 1.524 . S
C495 C496 1.415 . S
C496 H472 0.950 . S
C496 C491 1.363 . S
C496 C495 1.415 . S
C497 H473 0.951 . S
C497 C498 1.366 . S
C497 C499 1.388 . S
C498 C497 1.366 . S
C498 C502 1.385 . S
C499 H474 0.951 . S
C499 C497 1.388 . S
C499 C500 1.366 . S
C500 C499 1.366 . S
C500 C501 1.414 . S
C500 C503 1.499 . S
C501 H475 0.950 . S
C501 C500 1.414 . S
C501 C502 1.374 . S
C502 H476 0.950 1_655 S
C502 C498 1.385 . S
C502 C501 1.374 . S
C503 C500 1.499 . S
C503 C504 1.373 . S
C503 C505 1.389 . S
C504 H477 0.950 . S
C504 C490 1.377 . S
C504 C503 1.373 . S
C505 C489 1.377 . S
C505 C503 1.389 . S
C505 C506 1.524 . S
C506 C505 1.524 . S
C506 C507 1.397 . S
C506 C511 1.363 . S
C507 H478 0.950 . S
C507 C506 1.397 . S
C507 C508 1.334 . S
C508 H479 0.950 . S
C508 C507 1.334 . S
C508 C509 1.287 . S
C509 C508 1.287 . S
C509 C510 1.524 . S
C509 H512 0.999 . S
C510 H480 0.950 . S
C510 C509 1.524 . S
C510 C511 1.415 . S
C511 H481 0.950 . S
C511 C506 1.363 . S
C511 C510 1.415 . S
H512 C509 0.999 . S
H513 C494 0.913 . S
H514 C532 0.951 . S
H515 C534 0.951 . S
H516 C536 0.950 . S
H517 C537 0.950 . S
H518 C539 0.950 . S
H519 C542 0.950 . S
H520 C543 0.950 . S
H521 C545 0.950 . S
H522 C546 0.950 . S
H523 C547 0.951 1_545 S
H524 C549 0.951 . S
H525 C551 0.950 . S
H526 C552 0.950 . S
H527 C554 0.950 . S
H528 C557 0.950 . S
H529 C558 0.950 . S
H530 C560 0.950 1_545 S
H531 C561 0.950 . S
C532 H514 0.951 . S
C532 C533 1.366 . S
C532 C534 1.388 . S
C533 C532 1.366 . S
C533 C537 1.385 . S
C534 H515 0.951 . S
C534 C532 1.388 . S
C534 C535 1.366 . S
C535 C534 1.366 . S
C535 C536 1.414 . S
C535 C538 1.499 . S
C536 H516 0.950 . S
C536 C535 1.414 . S
C536 C537 1.374 . S
C537 H517 0.950 . S
C537 C533 1.385 . S
C537 C536 1.374 . S
C538 C535 1.499 . S
C538 C539 1.373 . S
C538 C540 1.389 . S
C539 H518 0.950 . S
C539 C538 1.373 . S
C539 C555 1.377 . S
C540 C538 1.389 . S
C540 C541 1.524 . S
C540 C554 1.377 . S
C541 C540 1.524 . S
C541 C542 1.397 . S
C541 C546 1.363 . S
C542 H519 0.950 . S
C542 C541 1.397 . S
C542 C543 1.334 . S
C543 H520 0.950 . S
C543 C542 1.334 . S
C543 C544 1.287 . S
C544 C543 1.287 . S
C544 C545 1.524 . S
C544 H563 0.913 . S
C545 H521 0.950 . S
C545 C544 1.524 . S
C545 C546 1.415 . S
C546 H522 0.950 . S
C546 C541 1.363 . S
C546 C545 1.415 . S
C547 H523 0.951 1_565 S
C547 C548 1.366 . S
C547 C549 1.388 . S
C548 C547 1.366 . S
C548 C552 1.385 . S
C549 H524 0.951 . S
C549 C547 1.388 . S
C549 C550 1.366 . S
C550 C549 1.366 . S
C550 C551 1.414 . S
C550 C553 1.499 . S
C551 H525 0.950 . S
C551 C550 1.414 . S
C551 C552 1.374 . S
C552 H526 0.950 . S
C552 C548 1.385 . S
C552 C551 1.374 . S
C553 C550 1.499 . S
C553 C554 1.373 . S
C553 C555 1.389 . S
C554 H527 0.950 . S
C554 C540 1.377 . S
C554 C553 1.373 . S
C555 C539 1.377 . S
C555 C553 1.389 . S
C555 C556 1.524 . S
C556 C555 1.524 . S
C556 C557 1.397 . S
C556 C561 1.363 . S
C557 H528 0.950 . S
C557 C556 1.397 . S
C557 C558 1.334 . S
C558 H529 0.950 . S
C558 C557 1.334 . S
C558 C559 1.287 . S
C559 C558 1.287 . S
C559 C560 1.524 . S
C559 H562 0.999 . S
C560 H530 0.950 1_565 S
C560 C559 1.524 . S
C560 C561 1.415 . S
C561 H531 0.950 . S
C561 C556 1.363 . S
C561 C560 1.415 . S
H562 C559 0.999 . S
H563 C544 0.913 . S
H564 C582 0.951 . S
H565 C584 0.951 . S
H566 C586 0.950 . S
H567 C587 0.950 . S
H568 C589 0.950 . S
H569 C592 0.950 . S
H570 C593 0.950 . S
H571 C595 0.950 . S
H572 C596 0.950 . S
H573 C597 0.951 . S
H574 C599 0.951 . S
H575 C601 0.950 . S
H576 C602 0.950 . S
H577 C604 0.950 . S
H578 C607 0.950 . S
H579 C608 0.950 . S
H580 C610 0.950 . S
H581 C611 0.950 . S
C582 H564 0.951 . S
C582 C583 1.366 . S
C582 C584 1.388 . S
C583 C582 1.366 . S
C583 C587 1.385 . S
C584 H565 0.951 . S
C584 C582 1.388 . S
C584 C585 1.366 . S
C585 C584 1.366 . S
C585 C586 1.414 . S
C585 C588 1.499 . S
C586 H566 0.950 . S
C586 C585 1.414 . S
C586 C587 1.374 . S
C587 H567 0.950 . S
C587 C583 1.385 . S
C587 C586 1.374 . S
C588 C585 1.499 . S
C588 C589 1.373 . S
C588 C590 1.389 . S
C589 H568 0.950 . S
C589 C588 1.373 . S
C589 C605 1.377 . S
C590 C588 1.389 . S
C590 C591 1.524 . S
C590 C604 1.377 . S
C591 C590 1.524 . S
C591 C592 1.397 . S
C591 C596 1.363 . S
C592 H569 0.950 . S
C592 C591 1.397 . S
C592 C593 1.334 . S
C593 H570 0.950 . S
C593 C592 1.334 . S
C593 C594 1.287 . S
C594 C593 1.287 . S
C594 C595 1.524 . S
C594 H613 0.913 . S
C595 H571 0.950 . S
C595 C594 1.524 . S
C595 C596 1.415 . S
C596 H572 0.950 . S
C596 C591 1.363 . S
C596 C595 1.415 . S
C597 H573 0.951 . S
C597 C598 1.366 . S
C597 C599 1.388 . S
C598 C597 1.366 . S
C598 C602 1.385 . S
C599 H574 0.951 . S
C599 C597 1.388 . S
C599 C600 1.366 . S
C600 C599 1.366 . S
C600 C601 1.414 . S
C600 C603 1.499 . S
C601 H575 0.950 . S
C601 C600 1.414 . S
C601 C602 1.374 . S
C602 H576 0.950 . S
C602 C598 1.385 . S
C602 C601 1.374 . S
C603 C600 1.499 . S
C603 C604 1.373 . S
C603 C605 1.389 . S
C604 H577 0.950 . S
C604 C590 1.377 . S
C604 C603 1.373 . S
C605 C589 1.377 . S
C605 C603 1.389 . S
C605 C606 1.524 . S
C606 C605 1.524 . S
C606 C607 1.397 . S
C606 C611 1.363 . S
C607 H578 0.950 . S
C607 C606 1.397 . S
C607 C608 1.334 . S
C608 H579 0.950 . S
C608 C607 1.334 . S
C608 C609 1.287 . S
C609 C608 1.287 . S
C609 C610 1.524 . S
C609 H612 0.999 . S
C610 H580 0.950 . S
C610 C609 1.524 . S
C610 C611 1.415 . S
C611 H581 0.950 . S
C611 C606 1.363 . S
C611 C610 1.415 . S
H612 C609 0.999 . S
H613 C594 0.913 . S
H614 C632 0.951 1_655 S
H615 C634 0.951 . S
H616 C636 0.950 . S
H617 C637 0.950 . S
H618 C639 0.950 . S
H619 C642 0.950 . S
H620 C643 0.950 . S
H621 C645 0.950 . S
H622 C646 0.950 . S
H623 C647 0.951 . S
H624 C649 0.951 . S
H625 C651 0.950 . S
H626 C652 0.950 . S
H627 C654 0.950 . S
H628 C657 0.950 . S
H629 C658 0.950 . S
H630 C660 0.950 . S
H631 C661 0.950 . S
C632 H614 0.951 1_455 S
C632 C633 1.366 . S
C632 C634 1.388 . S
C633 C632 1.366 . S
C633 C637 1.385 . S
C634 H615 0.951 . S
C634 C632 1.388 . S
C634 C635 1.366 . S
C635 C634 1.366 . S
C635 C636 1.414 . S
C635 C638 1.499 . S
C636 H616 0.950 . S
C636 C635 1.414 . S
C636 C637 1.374 . S
C637 H617 0.950 . S
C637 C633 1.385 . S
C637 C636 1.374 . S
C638 C635 1.499 . S
C638 C639 1.373 . S
C638 C640 1.389 1_556 S
C639 H618 0.950 . S
C639 C638 1.373 . S
C639 C655 1.377 . S
C640 C638 1.389 1_554 S
C640 C641 1.524 . S
C640 C654 1.377 . S
C641 C640 1.524 . S
C641 C642 1.397 . S
C641 C646 1.363 . S
C642 H619 0.950 . S
C642 C641 1.397 . S
C642 C643 1.334 . S
C643 H620 0.950 . S
C643 C642 1.334 . S
C643 C644 1.287 1_455 S
C644 C643 1.287 1_655 S
C644 C645 1.524 . S
C644 H663 0.913 . S
C645 H621 0.950 . S
C645 C644 1.524 . S
C645 C646 1.415 1_655 S
C646 H622 0.950 . S
C646 C641 1.363 . S
C646 C645 1.415 1_455 S
C647 H623 0.951 . S
C647 C648 1.366 . S
C647 C649 1.388 1_554 S
C648 C647 1.366 . S
C648 C652 1.387 . S
C649 H624 0.951 . S
C649 C647 1.388 1_556 S
C649 C650 1.365 . S
C650 C649 1.365 . S
C650 C651 1.414 . S
C650 C653 1.499 . S
C651 H625 0.950 . S
C651 C650 1.414 . S
C651 C652 1.371 1_556 S
C652 H626 0.950 . S
C652 C648 1.387 . S
C652 C651 1.371 1_554 S
C653 C650 1.499 . S
C653 C654 1.373 1_556 S
C653 C655 1.389 . S
C654 H627 0.950 . S
C654 C640 1.377 . S
C654 C653 1.373 1_554 S
C655 C639 1.377 . S
C655 C653 1.389 . S
C655 C656 1.524 . S
C656 C655 1.524 . S
C656 C657 1.397 . S
C656 C661 1.363 . S
C657 H628 0.950 . S
C657 C656 1.397 . S
C657 C658 1.334 . S
C658 H629 0.950 . S
C658 C657 1.334 . S
C658 C659 1.287 . S
C659 C658 1.287 . S
C659 C660 1.524 . S
C659 H662 0.999 . S
C660 H630 0.950 . S
C660 C659 1.524 . S
C660 C661 1.415 . S
C661 H631 0.950 . S
C661 C656 1.363 . S
C661 C660 1.415 . S
H662 C659 0.999 . S
H663 C644 0.913 . S
H664 C682 0.951 . S
H665 C684 0.951 . S
H666 C686 0.950 . S
H667 C687 0.950 1_565 S
H668 C689 0.950 . S
H669 C692 0.950 . S
H670 C693 0.950 . S
H671 C695 0.950 . S
H672 C696 0.950 . S
H673 C697 0.951 . S
H674 C699 0.951 . S
H675 C701 0.950 . S
H676 C702 0.950 . S
H677 C704 0.950 . S
H678 C707 0.950 . S
H679 C708 0.950 . S
H680 C710 0.950 . S
H681 C711 0.950 . S
C682 H664 0.951 . S
C682 C683 1.366 . S
C682 C684 1.388 . S
C683 C682 1.366 . S
C683 C687 1.385 . S
C684 H665 0.951 . S
C684 C682 1.388 . S
C684 C685 1.366 . S
C685 C684 1.366 . S
C685 C686 1.414 . S
C685 C688 1.499 . S
C686 H666 0.950 . S
C686 C685 1.414 . S
C686 C687 1.374 . S
C687 H667 0.950 1_545 S
C687 C683 1.385 . S
C687 C686 1.374 . S
C688 C685 1.499 . S
C688 C689 1.373 . S
C688 C690 1.389 . S
C689 H668 0.950 . S
C689 C688 1.373 . S
C689 C705 1.377 . S
C690 C688 1.389 . S
C690 C691 1.524 . S
C690 C704 1.377 . S
C691 C690 1.524 . S
C691 C692 1.397 . S
C691 C696 1.363 . S
C692 H669 0.950 . S
C692 C691 1.397 . S
C692 C693 1.334 . S
C693 H670 0.950 . S
C693 C692 1.334 . S
C693 C694 1.287 . S
C694 C693 1.287 . S
C694 C695 1.524 . S
C694 H713 0.913 . S
C695 H671 0.950 . S
C695 C694 1.524 . S
C695 C696 1.415 . S
C696 H672 0.950 . S
C696 C691 1.363 . S
C696 C695 1.415 . S
C697 H673 0.951 . S
C697 C698 1.366 . S
C697 C699 1.388 . S
C698 C697 1.366 . S
C698 C702 1.385 . S
C699 H674 0.951 . S
C699 C697 1.388 . S
C699 C700 1.366 . S
C700 C699 1.366 . S
C700 C701 1.414 . S
C700 C703 1.499 . S
C701 H675 0.950 . S
C701 C700 1.414 . S
C701 C702 1.374 . S
C702 H676 0.950 . S
C702 C698 1.385 . S
C702 C701 1.374 . S
C703 C700 1.499 . S
C703 C704 1.373 . S
C703 C705 1.389 . S
C704 H677 0.950 . S
C704 C690 1.377 . S
C704 C703 1.373 . S
C705 C689 1.377 . S
C705 C703 1.389 . S
C705 C706 1.524 . S
C706 C705 1.524 . S
C706 C707 1.397 . S
C706 C711 1.363 . S
C707 H678 0.950 . S
C707 C706 1.397 . S
C707 C708 1.334 . S
C708 H679 0.950 . S
C708 C707 1.334 . S
C708 C709 1.287 . S
C709 C708 1.287 . S
C709 C710 1.524 . S
C709 H712 0.999 . S
C710 H680 0.950 . S
C710 C709 1.524 . S
C710 C711 1.415 . S
C711 H681 0.950 . S
C711 C706 1.363 . S
C711 C710 1.415 . S
H712 C709 0.999 . S
H713 C694 0.913 . S
H714 C732 0.951 . S
H715 C734 0.951 . S
H716 C736 0.950 . S
H717 C737 0.950 . S
H718 C739 0.950 . S
H719 C742 0.950 . S
H720 C743 0.950 . S
H721 C745 0.950 . S
H722 C746 0.950 . S
H723 C747 0.951 . S
H724 C749 0.951 . S
H725 C751 0.950 . S
H726 C752 0.950 . S
H727 C754 0.950 . S
H728 C757 0.950 . S
H729 C758 0.950 . S
H730 C760 0.950 . S
H731 C761 0.950 . S
C732 H714 0.951 . S
C732 C733 1.366 . S
C732 C734 1.388 . S
C733 C732 1.366 . S
C733 C737 1.385 . S
C734 H715 0.951 . S
C734 C732 1.388 . S
C734 C735 1.366 . S
C735 C734 1.366 . S
C735 C736 1.414 . S
C735 C738 1.499 . S
C736 H716 0.950 . S
C736 C735 1.414 . S
C736 C737 1.374 . S
C737 H717 0.950 . S
C737 C733 1.385 . S
C737 C736 1.374 . S
C738 C735 1.499 . S
C738 C739 1.373 . S
C738 C740 1.389 . S
C739 H718 0.950 . S
C739 C738 1.373 . S
C739 C755 1.377 . S
C740 C738 1.389 . S
C740 C741 1.524 . S
C740 C754 1.377 . S
C741 C740 1.524 . S
C741 C742 1.397 . S
C741 C746 1.363 . S
C742 H719 0.950 . S
C742 C741 1.397 . S
C742 C743 1.334 . S
C743 H720 0.950 . S
C743 C742 1.334 . S
C743 C744 1.287 . S
C744 C743 1.287 . S
C744 C745 1.524 . S
C744 H763 0.913 . S
C745 H721 0.950 . S
C745 C744 1.524 . S
C745 C746 1.415 . S
C746 H722 0.950 . S
C746 C741 1.363 . S
C746 C745 1.415 . S
C747 H723 0.951 . S
C747 C748 1.366 . S
C747 C749 1.388 . S
C748 C747 1.366 . S
C748 C752 1.385 . S
C749 H724 0.951 . S
C749 C747 1.388 . S
C749 C750 1.366 . S
C750 C749 1.366 . S
C750 C751 1.414 . S
C750 C753 1.499 . S
C751 H725 0.950 . S
C751 C750 1.414 . S
C751 C752 1.374 . S
C752 H726 0.950 . S
C752 C748 1.385 . S
C752 C751 1.374 . S
C753 C750 1.499 . S
C753 C754 1.373 . S
C753 C755 1.389 . S
C754 H727 0.950 . S
C754 C740 1.377 . S
C754 C753 1.373 . S
C755 C739 1.377 . S
C755 C753 1.389 . S
C755 C756 1.524 . S
C756 C755 1.524 . S
C756 C757 1.397 . S
C756 C761 1.363 . S
C757 H728 0.950 . S
C757 C756 1.397 . S
C757 C758 1.334 . S
C758 H729 0.950 . S
C758 C757 1.334 . S
C758 C759 1.287 . S
C759 C758 1.287 . S
C759 C760 1.524 . S
C759 H762 0.999 . S
C760 H730 0.950 . S
C760 C759 1.524 . S
C760 C761 1.415 . S
C761 H731 0.950 . S
C761 C756 1.363 . S
C761 C760 1.415 . S
H762 C759 0.999 . S
H763 C744 0.913 . S
H764 C782 0.951 1_455 S
H765 C784 0.951 . S
H766 C786 0.950 . S
H767 C787 0.950 . S
H768 C789 0.950 . S
H769 C792 0.950 . S
H770 C793 0.950 . S
H771 C795 0.950 . S
H772 C796 0.937 1_655 S
H773 C797 0.951 . S
H774 C799 0.951 . S
H775 C801 0.950 . S
H776 C802 0.950 . S
H777 C804 0.950 . S
H778 C807 0.950 . S
H779 C808 0.950 . S
H780 C810 0.950 . S
H781 C811 0.950 . S
C782 H764 0.951 1_655 S
C782 C783 1.366 . S
C782 C784 1.388 . S
C783 C782 1.366 . S
C783 C787 1.385 . S
C784 H765 0.951 . S
C784 C782 1.388 . S
C784 C785 1.366 . S
C785 C784 1.366 . S
C785 C786 1.414 . S
C785 C788 1.499 . S
C786 H766 0.950 . S
C786 C785 1.414 . S
C786 C787 1.374 . S
C787 H767 0.950 . S
C787 C783 1.385 . S
C787 C786 1.374 . S
C788 C785 1.499 . S
C788 C789 1.373 . S
C788 C790 1.389 . S
C789 H768 0.950 . S
C789 C788 1.373 . S
C789 C805 1.377 . S
C790 C788 1.389 . S
C790 C791 1.524 . S
C790 C804 1.377 . S
C791 C790 1.524 . S
C791 C792 1.397 . S
C791 C796 1.359 1_655 S
C792 H769 0.950 . S
C792 C791 1.397 . S
C792 C793 1.334 1_655 S
C793 H770 0.950 . S
C793 C792 1.334 1_455 S
C793 C794 1.287 . S
C794 C793 1.287 . S
C794 C795 1.524 . S
C794 H813 0.913 . S
C795 H771 0.950 . S
C795 C794 1.524 . S
C795 C796 1.432 . S
C796 H772 0.937 1_455 S
C796 C791 1.359 1_455 S
C796 C795 1.432 . S
C797 H773 0.951 . S
C797 C798 1.366 . S
C797 C799 1.388 . S
C798 C797 1.366 . S
C798 C802 1.385 . S
C799 H774 0.951 . S
C799 C797 1.388 . S
C799 C800 1.366 . S
C800 C799 1.366 . S
C800 C801 1.414 . S
C800 C803 1.499 . S
C801 H775 0.950 . S
C801 C800 1.414 . S
C801 C802 1.374 . S
C802 H776 0.950 . S
C802 C798 1.385 . S
C802 C801 1.374 . S
C803 C800 1.499 . S
C803 C804 1.373 . S
C803 C805 1.389 . S
C804 H777 0.950 . S
C804 C790 1.377 . S
C804 C803 1.373 . S
C805 C789 1.377 . S
C805 C803 1.389 . S
C805 C806 1.524 . S
C806 C805 1.524 . S
C806 C807 1.397 . S
C806 C811 1.363 . S
C807 H778 0.950 . S
C807 C806 1.397 . S
C807 C808 1.334 . S
C808 H779 0.950 . S
C808 C807 1.334 . S
C808 C809 1.287 . S
C809 C808 1.287 . S
C809 C810 1.524 . S
C809 H812 0.999 . S
C810 H780 0.950 . S
C810 C809 1.524 . S
C810 C811 1.415 . S
C811 H781 0.950 . S
C811 C806 1.363 . S
C811 C810 1.415 . S
H812 C809 0.999 . S
H813 C794 0.913 . S
H814 C832 0.951 . S
H815 C834 0.951 . S
H816 C836 0.950 . S
H817 C837 0.950 1_545 S
H818 C839 0.950 . S
H819 C842 0.950 . S
H820 C843 0.950 . S
H821 C845 0.950 . S
H822 C846 0.950 . S
H823 C847 0.951 . S
H824 C849 0.951 . S
H825 C851 0.950 . S
H826 C852 0.950 . S
H827 C854 0.950 . S
H828 C857 0.950 . S
H829 C858 0.950 . S
H830 C860 0.950 . S
H831 C861 0.950 . S
C832 H814 0.951 . S
C832 C833 1.366 . S
C832 C834 1.388 . S
C833 C832 1.366 . S
C833 C837 1.385 . S
C834 H815 0.951 . S
C834 C832 1.388 . S
C834 C835 1.366 . S
C835 C834 1.366 . S
C835 C836 1.414 . S
C835 C838 1.499 . S
C836 H816 0.950 . S
C836 C835 1.414 . S
C836 C837 1.374 . S
C837 H817 0.950 1_565 S
C837 C833 1.385 . S
C837 C836 1.374 . S
C838 C835 1.499 . S
C838 C839 1.373 . S
C838 C840 1.389 . S
C839 H818 0.950 . S
C839 C838 1.373 . S
C839 C855 1.377 . S
C840 C838 1.389 . S
C840 C841 1.524 . S
C840 C854 1.377 . S
C841 C840 1.524 . S
C841 C842 1.397 . S
C841 C846 1.363 . S
C842 H819 0.950 . S
C842 C841 1.397 . S
C842 C843 1.334 . S
C843 H820 0.950 . S
C843 C842 1.334 . S
C843 C844 1.287 . S
C844 C843 1.287 . S
C844 C845 1.524 . S
C844 H863 0.913 . S
C845 H821 0.950 . S
C845 C844 1.524 . S
C845 C846 1.415 . S
C846 H822 0.950 . S
C846 C841 1.363 . S
C846 C845 1.415 . S
C847 H823 0.951 . S
C847 C848 1.366 . S
C847 C849 1.388 . S
C848 C847 1.366 . S
C848 C852 1.385 . S
C849 H824 0.951 . S
C849 C847 1.388 . S
C849 C850 1.366 . S
C850 C849 1.366 . S
C850 C851 1.414 . S
C850 C853 1.499 . S
C851 H825 0.950 . S
C851 C850 1.414 . S
C851 C852 1.374 . S
C852 H826 0.950 . S
C852 C848 1.385 . S
C852 C851 1.374 . S
C853 C850 1.499 . S
C853 C854 1.373 . S
C853 C855 1.389 . S
C854 H827 0.950 . S
C854 C840 1.377 . S
C854 C853 1.373 . S
C855 C839 1.377 . S
C855 C853 1.389 . S
C855 C856 1.524 . S
C856 C855 1.524 . S
C856 C857 1.397 . S
C856 C861 1.363 . S
C857 H828 0.950 . S
C857 C856 1.397 . S
C857 C858 1.334 . S
C858 H829 0.950 . S
C858 C857 1.334 . S
C858 C859 1.287 . S
C859 C858 1.287 . S
C859 C860 1.524 . S
C859 H862 0.999 . S
C860 H830 0.950 . S
C860 C859 1.524 . S
C860 C861 1.415 . S
C861 H831 0.950 . S
C861 C856 1.363 . S
C861 C860 1.415 . S
H862 C859 0.999 . S
H863 C844 0.913 . S
H864 C882 0.951 . S
H865 C884 0.951 . S
H866 C886 0.950 . S
H867 C887 0.950 . S
H868 C889 0.950 . S
H869 C892 0.950 . S
H870 C893 0.950 . S
H871 C895 0.950 . S
H872 C896 0.950 . S
H873 C897 0.951 . S
H874 C899 0.951 . S
H875 C901 0.950 . S
H876 C902 0.950 . S
H877 C904 0.950 . S
H878 C907 0.950 . S
H879 C908 0.950 . S
H880 C910 0.950 . S
H881 C911 0.950 . S
C882 H864 0.951 . S
C882 C883 1.366 . S
C882 C884 1.388 . S
C883 C882 1.366 . S
C883 C887 1.385 . S
C884 H865 0.951 . S
C884 C882 1.388 . S
C884 C885 1.366 . S
C885 C884 1.366 . S
C885 C886 1.414 . S
C885 C888 1.499 . S
C886 H866 0.950 . S
C886 C885 1.414 . S
C886 C887 1.374 . S
C887 H867 0.950 . S
C887 C883 1.385 . S
C887 C886 1.374 . S
C888 C885 1.499 . S
C888 C889 1.373 . S
C888 C890 1.389 . S
C889 H868 0.950 . S
C889 C888 1.373 . S
C889 C905 1.377 . S
C890 C888 1.389 . S
C890 C891 1.524 . S
C890 C904 1.377 . S
C891 C890 1.524 . S
C891 C892 1.397 . S
C891 C896 1.363 . S
C892 H869 0.950 . S
C892 C891 1.397 . S
C892 C893 1.334 . S
C893 H870 0.950 . S
C893 C892 1.334 . S
C893 C894 1.287 . S
C894 C893 1.287 . S
C894 C895 1.524 . S
C894 H913 0.913 . S
C895 H871 0.950 . S
C895 C894 1.524 . S
C895 C896 1.415 . S
C896 H872 0.950 . S
C896 C891 1.363 . S
C896 C895 1.415 . S
C897 H873 0.951 . S
C897 C898 1.366 . S
C897 C899 1.388 . S
C898 C897 1.366 . S
C898 C902 1.385 . S
C899 H874 0.951 . S
C899 C897 1.388 . S
C899 C900 1.366 . S
C900 C899 1.366 . S
C900 C901 1.414 . S
C900 C903 1.499 . S
C901 H875 0.950 . S
C901 C900 1.414 . S
C901 C902 1.374 . S
C902 H876 0.950 . S
C902 C898 1.385 . S
C902 C901 1.374 . S
C903 C900 1.499 . S
C903 C904 1.373 . S
C903 C905 1.389 . S
C904 H877 0.950 . S
C904 C890 1.377 . S
C904 C903 1.373 . S
C905 C889 1.377 . S
C905 C903 1.389 . S
C905 C906 1.524 . S
C906 C905 1.524 . S
C906 C907 1.397 . S
C906 C911 1.363 . S
C907 H878 0.950 . S
C907 C906 1.397 . S
C907 C908 1.334 . S
C908 H879 0.950 . S
C908 C907 1.334 . S
C908 C909 1.287 . S
C909 C908 1.287 . S
C909 C910 1.524 . S
C909 H912 0.999 1_545 S
C910 H880 0.950 . S
C910 C909 1.524 . S
C910 C911 1.415 . S
C911 H881 0.950 . S
C911 C906 1.363 . S
C911 C910 1.415 . S
H912 C909 0.999 1_565 S
H913 C894 0.913 . S
H914 C932 0.951 . S
H915 C934 0.951 . S
H916 C936 0.950 . S
H917 C937 0.950 . S
H918 C939 0.950 . S
H919 C942 0.950 . S
H920 C943 0.950 . S
H921 C945 0.950 1_655 S
H922 C946 0.950 . S
H923 C947 0.951 . S
H924 C949 0.951 . S
H925 C951 0.950 . S
H926 C952 0.950 . S
H927 C954 0.950 . S
H928 C957 0.950 . S
H929 C958 0.950 . S
H930 C960 0.950 . S
H931 C961 0.950 . S
C932 H914 0.951 . S
C932 C933 1.366 . S
C932 C934 1.388 . S
C933 C932 1.366 . S
C933 C937 1.385 1_655 S
C934 H915 0.951 . S
C934 C932 1.388 . S
C934 C935 1.366 1_655 S
C935 C934 1.366 1_455 S
C935 C936 1.414 . S
C935 C938 1.499 . S
C936 H916 0.950 . S
C936 C935 1.414 . S
C936 C937 1.374 . S
C937 H917 0.950 . S
C937 C933 1.385 1_455 S
C937 C936 1.374 . S
C938 C935 1.499 . S
C938 C939 1.373 . S
C938 C940 1.389 . S
C939 H918 0.950 . S
C939 C938 1.373 . S
C939 C955 1.377 . S
C940 C938 1.389 . S
C940 C941 1.524 . S
C940 C954 1.377 . S
C941 C940 1.524 . S
C941 C942 1.397 . S
C941 C946 1.363 . S
C942 H919 0.950 . S
C942 C941 1.397 . S
C942 C943 1.334 . S
C943 H920 0.950 . S
C943 C942 1.334 . S
C943 C944 1.287 . S
C944 C943 1.287 . S
C944 C945 1.524 . S
C944 H963 0.913 . S
C945 H921 0.950 1_455 S
C945 C944 1.524 . S
C945 C946 1.415 . S
C946 H922 0.950 . S
C946 C941 1.363 . S
C946 C945 1.415 . S
C947 H923 0.951 . S
C947 C948 1.366 . S
C947 C949 1.388 . S
C948 C947 1.366 . S
C948 C952 1.385 . S
C949 H924 0.951 . S
C949 C947 1.388 . S
C949 C950 1.366 . S
C950 C949 1.366 . S
C950 C951 1.414 . S
C950 C953 1.499 . S
C951 H925 0.950 . S
C951 C950 1.414 . S
C951 C952 1.374 . S
C952 H926 0.950 . S
C952 C948 1.385 . S
C952 C951 1.374 . S
C953 C950 1.499 . S
C953 C954 1.373 . S
C953 C955 1.389 . S
C954 H927 0.950 . S
C954 C940 1.377 . S
C954 C953 1.373 . S
C955 C939 1.377 . S
C955 C953 1.389 . S
C955 C956 1.524 . S
C956 C955 1.524 . S
C956 C957 1.397 . S
C956 C961 1.363 . S
C957 H928 0.950 . S
C957 C956 1.397 . S
C957 C958 1.334 . S
C958 H929 0.950 . S
C958 C957 1.334 . S
C958 C959 1.287 . S
C959 C958 1.287 . S
C959 C960 1.524 . S
C959 H962 0.999 . S
C960 H930 0.950 . S
C960 C959 1.524 . S
C960 C961 1.415 . S
C961 H931 0.950 . S
C961 C956 1.363 . S
C961 C960 1.415 . S
H962 C959 0.999 . S
H963 C944 0.913 . S
H964 C982 0.951 . S
H965 C984 0.951 . S
H966 C986 0.950 . S
H967 C987 0.950 . S
H968 C989 0.950 . S
H969 C992 0.950 . S
H970 C993 0.950 . S
H971 C995 0.950 . S
H972 C996 0.950 . S
H973 C997 0.951 . S
H974 C999 0.951 . S
H975 C1001 0.950 . S
H976 C1002 0.950 . S
H977 C1004 0.950 . S
H978 C1007 0.950 1_565 S
H979 C1008 0.950 . S
H980 C1010 0.950 . S
H981 C1011 0.950 . S
C982 H964 0.951 . S
C982 C983 1.366 . S
C982 C984 1.388 . S
C983 C982 1.366 . S
C983 C987 1.385 . S
C984 H965 0.951 . S
C984 C982 1.388 . S
C984 C985 1.366 . S
C985 C984 1.366 . S
C985 C986 1.414 . S
C985 C988 1.499 . S
C986 H966 0.950 . S
C986 C985 1.414 . S
C986 C987 1.374 . S
C987 H967 0.950 . S
C987 C983 1.385 . S
C987 C986 1.374 . S
C988 C985 1.499 . S
C988 C989 1.373 . S
C988 C990 1.389 . S
C989 H968 0.950 . S
C989 C988 1.373 . S
C989 C1005 1.377 . S
C990 C988 1.389 . S
C990 C991 1.524 . S
C990 C1004 1.377 . S
C991 C990 1.524 . S
C991 C992 1.397 . S
C991 C996 1.363 . S
C992 H969 0.950 . S
C992 C991 1.397 . S
C992 C993 1.334 . S
C993 H970 0.950 . S
C993 C992 1.334 . S
C993 C994 1.287 . S
C994 C993 1.287 . S
C994 C995 1.524 . S
C994 H1013 0.913 . S
C995 H971 0.950 . S
C995 C994 1.524 . S
C995 C996 1.415 . S
C996 H972 0.950 . S
C996 C991 1.363 . S
C996 C995 1.415 . S
C997 H973 0.951 . S
C997 C998 1.366 1_545 S
C997 C999 1.388 . S
C998 C997 1.366 1_565 S
C998 C1002 1.385 . S
C999 H974 0.951 . S
C999 C997 1.388 . S
C999 C1000 1.366 . S
C1000 C999 1.366 . S
C1000 C1001 1.414 1_545 S
C1000 C1003 1.499 . S
C1001 H975 0.950 . S
C1001 C1000 1.414 1_565 S
C1001 C1002 1.374 . S
C1002 H976 0.950 . S
C1002 C998 1.385 . S
C1002 C1001 1.374 . S
C1003 C1000 1.499 . S
C1003 C1004 1.373 . S
C1003 C1005 1.389 . S
C1004 H977 0.950 . S
C1004 C990 1.377 . S
C1004 C1003 1.373 . S
C1005 C989 1.377 . S
C1005 C1003 1.389 . S
C1005 C1006 1.524 . S
C1006 C1005 1.524 . S
C1006 C1007 1.397 . S
C1006 C1011 1.363 . S
C1007 H978 0.950 1_545 S
C1007 C1006 1.397 . S
C1007 C1008 1.334 1_545 S
C1008 H979 0.950 . S
C1008 C1007 1.334 1_565 S
C1008 C1009 1.287 1_565 S
C1009 C1008 1.287 1_545 S
C1009 C1010 1.524 . S
C1009 H1012 0.999 . S
C1010 H980 0.950 . S
C1010 C1009 1.524 . S
C1010 C1011 1.415 . S
C1011 H981 0.950 . S
C1011 C1006 1.363 . S
C1011 C1010 1.415 . S
H1012 C1009 0.999 . S
H1013 C994 0.913 . S
H1014 C1032 0.951 . S
H1015 C1034 0.951 . S
H1016 C1036 0.950 . S
H1017 C1037 0.950 . S
H1018 C1039 0.950 . S
H1019 C1042 0.950 . S
H1020 C1043 0.950 . S
H1021 C1045 0.950 . S
H1022 C1046 0.950 . S
H1023 C1047 0.951 . S
H1024 C1049 0.951 . S
H1025 C1051 0.950 . S
H1026 C1052 0.950 . S
H1027 C1054 0.950 . S
H1028 C1057 0.950 . S
H1029 C1058 0.950 . S
H1030 C1060 0.950 . S
H1031 C1061 0.950 . S
C1032 H1014 0.951 . S
C1032 C1033 1.366 . S
C1032 C1034 1.388 . S
C1033 C1032 1.366 . S
C1033 C1037 1.385 . S
C1034 H1015 0.951 . S
C1034 C1032 1.388 . S
C1034 C1035 1.366 . S
C1035 C1034 1.366 . S
C1035 C1036 1.414 . S
C1035 C1038 1.499 . S
C1036 H1016 0.950 . S
C1036 C1035 1.414 . S
C1036 C1037 1.374 . S
C1037 H1017 0.950 . S
C1037 C1033 1.385 . S
C1037 C1036 1.374 . S
C1038 C1035 1.499 . S
C1038 C1039 1.373 . S
C1038 C1040 1.389 . S
C1039 H1018 0.950 . S
C1039 C1038 1.373 . S
C1039 C1055 1.377 . S
C1040 C1038 1.389 . S
C1040 C1041 1.524 . S
C1040 C1054 1.377 . S
C1041 C1040 1.524 . S
C1041 C1042 1.397 . S
C1041 C1046 1.363 . S
C1042 H1019 0.950 . S
C1042 C1041 1.397 . S
C1042 C1043 1.334 . S
C1043 H1020 0.950 . S
C1043 C1042 1.334 . S
C1043 C1044 1.287 . S
C1044 C1043 1.287 . S
C1044 C1045 1.524 . S
C1044 H1063 0.913 . S
C1045 H1021 0.950 . S
C1045 C1044 1.524 . S
C1045 C1046 1.415 . S
C1046 H1022 0.950 . S
C1046 C1041 1.363 . S
C1046 C1045 1.415 . S
C1047 H1023 0.951 . S
C1047 C1048 1.366 . S
C1047 C1049 1.388 . S
C1048 C1047 1.366 . S
C1048 C1052 1.385 . S
C1049 H1024 0.951 . S
C1049 C1047 1.388 . S
C1049 C1050 1.366 . S
C1050 C1049 1.366 . S
C1050 C1051 1.414 . S
C1050 C1053 1.499 . S
C1051 H1025 0.950 . S
C1051 C1050 1.414 . S
C1051 C1052 1.374 . S
C1052 H1026 0.950 . S
C1052 C1048 1.385 . S
C1052 C1051 1.374 . S
C1053 C1050 1.499 . S
C1053 C1054 1.373 . S
C1053 C1055 1.389 . S
C1054 H1027 0.950 . S
C1054 C1040 1.377 . S
C1054 C1053 1.373 . S
C1055 C1039 1.377 . S
C1055 C1053 1.389 . S
C1055 C1056 1.524 . S
C1056 C1055 1.524 . S
C1056 C1057 1.397 . S
C1056 C1061 1.363 . S
C1057 H1028 0.950 . S
C1057 C1056 1.397 . S
C1057 C1058 1.334 . S
C1058 H1029 0.950 . S
C1058 C1057 1.334 . S
C1058 C1059 1.287 . S
C1059 C1058 1.287 . S
C1059 C1060 1.524 . S
C1059 H1062 0.999 . S
C1060 H1030 0.950 . S
C1060 C1059 1.524 . S
C1060 C1061 1.415 . S
C1061 H1031 0.950 . S
C1061 C1056 1.363 . S
C1061 C1060 1.415 . S
H1062 C1059 0.999 . S
H1063 C1044 0.913 . S
H1064 C1082 0.951 . S
H1065 C1084 0.951 . S
H1066 C1086 0.950 . S
H1067 C1087 0.950 . S
H1068 C1089 0.950 . S
H1069 C1092 0.950 . S
H1070 C1093 0.950 . S
H1071 C1095 0.950 . S
H1072 C1096 0.950 . S
H1073 C1097 0.951 . S
H1074 C1099 0.951 . S
H1075 C1101 0.950 . S
H1076 C1102 0.950 . S
H1077 C1104 0.950 . S
H1078 C1107 0.952 1_455 S
H1079 C1108 0.950 . S
H1080 C1110 0.950 . S
H1081 C1111 0.950 . S
C1082 H1064 0.951 . S
C1082 C1083 1.366 . S
C1082 C1084 1.388 . S
C1083 C1082 1.366 . S
C1083 C1087 1.385 . S
C1084 H1065 0.951 . S
C1084 C1082 1.388 . S
C1084 C1085 1.366 . S
C1085 C1084 1.366 . S
C1085 C1086 1.414 . S
C1085 C1088 1.499 . S
C1086 H1066 0.950 . S
C1086 C1085 1.414 . S
C1086 C1087 1.374 . S
C1087 H1067 0.950 . S
C1087 C1083 1.385 . S
C1087 C1086 1.374 . S
C1088 C1085 1.499 . S
C1088 C1089 1.373 . S
C1088 C1090 1.389 . S
C1089 H1068 0.950 . S
C1089 C1088 1.373 . S
C1089 C1105 1.377 . S
C1090 C1088 1.389 . S
C1090 C1091 1.524 . S
C1090 C1104 1.377 . S
C1091 C1090 1.524 . S
C1091 C1092 1.397 . S
C1091 C1096 1.363 . S
C1092 H1069 0.950 . S
C1092 C1091 1.397 . S
C1092 C1093 1.334 . S
C1093 H1070 0.950 . S
C1093 C1092 1.334 . S
C1093 C1094 1.287 . S
C1094 C1093 1.287 . S
C1094 C1095 1.524 . S
C1094 H1113 0.913 . S
C1095 H1071 0.950 . S
C1095 C1094 1.524 . S
C1095 C1096 1.415 . S
C1096 H1072 0.950 . S
C1096 C1091 1.363 . S
C1096 C1095 1.415 . S
C1097 H1073 0.951 . S
C1097 C1098 1.366 1_655 S
C1097 C1099 1.388 . S
C1098 C1097 1.366 1_455 S
C1098 C1102 1.385 . S
C1099 H1074 0.951 . S
C1099 C1097 1.388 . S
C1099 C1100 1.366 . S
C1100 C1099 1.366 . S
C1100 C1101 1.414 1_655 S
C1100 C1103 1.499 . S
C1101 H1075 0.950 . S
C1101 C1100 1.414 1_455 S
C1101 C1102 1.374 . S
C1102 H1076 0.950 . S
C1102 C1098 1.385 . S
C1102 C1101 1.374 . S
C1103 C1100 1.499 . S
C1103 C1104 1.373 . S
C1103 C1105 1.389 . S
C1104 H1077 0.950 . S
C1104 C1090 1.377 . S
C1104 C1103 1.373 . S
C1105 C1089 1.377 . S
C1105 C1103 1.389 . S
C1105 C1106 1.524 . S
C1106 C1105 1.524 . S
C1106 C1107 1.395 . S
C1106 C1111 1.363 . S
C1107 H1078 0.952 1_655 S
C1107 C1106 1.395 . S
C1107 C1108 1.334 1_655 S
C1108 H1079 0.950 . S
C1108 C1107 1.334 1_455 S
C1108 C1109 1.287 1_455 S
C1109 C1108 1.287 1_655 S
C1109 C1110 1.524 . S
C1109 H1112 0.995 . S
C1110 H1080 0.950 . S
C1110 C1109 1.524 . S
C1110 C1111 1.415 . S
C1111 H1081 0.950 . S
C1111 C1106 1.363 . S
C1111 C1110 1.415 . S
H1112 C1109 0.995 . S
H1113 C1094 0.913 . S
H1114 C1132 0.951 . S
H1115 C1134 0.951 . S
H1116 C1136 0.950 . S
H1117 C1137 0.950 . S
H1118 C1139 0.950 . S
H1119 C1142 0.950 . S
H1120 C1143 0.950 . S
H1121 C1145 0.950 . S
H1122 C1146 0.950 . S
H1123 C1147 0.951 . S
H1124 C1149 0.951 . S
H1125 C1151 0.950 . S
H1126 C1152 0.950 . S
H1127 C1154 0.950 . S
H1128 C1157 0.950 . S
H1129 C1158 0.950 . S
H1130 C1160 0.950 . S
H1131 C1161 0.950 . S
C1132 H1114 0.951 . S
C1132 C1133 1.366 1_565 S
C1132 C1134 1.388 . S
C1133 C1132 1.366 1_545 S
C1133 C1137 1.385 . S
C1134 H1115 0.951 . S
C1134 C1132 1.388 . S
C1134 C1135 1.366 . S
C1135 C1134 1.366 . S
C1135 C1136 1.414 1_565 S
C1135 C1138 1.499 . S
C1136 H1116 0.950 . S
C1136 C1135 1.414 1_545 S
C1136 C1137 1.374 . S
C1137 H1117 0.950 . S
C1137 C1133 1.385 . S
C1137 C1136 1.374 . S
C1138 C1135 1.499 . S
C1138 C1139 1.373 . S
C1138 C1140 1.389 . S
C1139 H1118 0.950 . S
C1139 C1138 1.373 . S
C1139 C1155 1.377 . S
C1140 C1138 1.389 . S
C1140 C1141 1.524 . S
C1140 C1154 1.377 . S
C1141 C1140 1.524 . S
C1141 C1142 1.397 . S
C1141 C1146 1.363 . S
C1142 H1119 0.950 . S
C1142 C1141 1.397 . S
C1142 C1143 1.334 . S
C1143 H1120 0.950 . S
C1143 C1142 1.334 . S
C1143 C1144 1.287 . S
C1144 C1143 1.287 . S
C1144 C1145 1.524 . S
C1144 H1163 0.913 . S
C1145 H1121 0.950 . S
C1145 C1144 1.524 . S
C1145 C1146 1.415 . S
C1146 H1122 0.950 . S
C1146 C1141 1.363 . S
C1146 C1145 1.415 . S
C1147 H1123 0.951 . S
C1147 C1148 1.366 . S
C1147 C1149 1.388 . S
C1148 C1147 1.366 . S
C1148 C1152 1.385 . S
C1149 H1124 0.951 . S
C1149 C1147 1.388 . S
C1149 C1150 1.366 . S
C1150 C1149 1.366 . S
C1150 C1151 1.414 . S
C1150 C1153 1.499 . S
C1151 H1125 0.950 . S
C1151 C1150 1.414 . S
C1151 C1152 1.374 . S
C1152 H1126 0.950 . S
C1152 C1148 1.385 . S
C1152 C1151 1.374 . S
C1153 C1150 1.499 . S
C1153 C1154 1.373 . S
C1153 C1155 1.389 . S
C1154 H1127 0.950 . S
C1154 C1140 1.377 . S
C1154 C1153 1.373 . S
C1155 C1139 1.377 . S
C1155 C1153 1.389 . S
C1155 C1156 1.524 . S
C1156 C1155 1.524 . S
C1156 C1157 1.397 . S
C1156 C1161 1.363 1_565 S
C1157 H1128 0.950 . S
C1157 C1156 1.397 . S
C1157 C1158 1.334 . S
C1158 H1129 0.950 . S
C1158 C1157 1.334 . S
C1158 C1159 1.287 . S
C1159 C1158 1.287 . S
C1159 C1160 1.524 1_565 S
C1159 H1162 0.999 1_565 S
C1160 H1130 0.950 . S
C1160 C1159 1.524 1_545 S
C1160 C1161 1.415 . S
C1161 H1131 0.950 . S
C1161 C1156 1.363 1_545 S
C1161 C1160 1.415 . S
H1162 C1159 0.999 1_545 S
H1163 C1144 0.913 . S
H1164 C1182 0.951 . S
H1165 C1184 0.951 . S
H1166 C1186 0.950 . S
H1167 C1187 0.950 . S
H1168 C1189 0.950 . S
H1169 C1192 0.950 . S
H1170 C1193 0.950 . S
H1171 C1195 0.950 . S
H1172 C1196 0.950 . S
H1173 C1197 0.951 . S
H1174 C1199 0.951 . S
H1175 C1201 0.950 . S
H1176 C1202 0.950 . S
H1177 C1204 0.950 . S
H1178 C1207 0.950 . S
H1179 C1208 0.950 . S
H1180 C1210 0.950 . S
H1181 C1211 0.950 . S
C1182 H1164 0.951 . S
C1182 C1183 1.366 . S
C1182 C1184 1.388 . S
C1183 C1182 1.366 . S
C1183 C1187 1.385 . S
C1184 H1165 0.951 . S
C1184 C1182 1.388 . S
C1184 C1185 1.366 . S
C1185 C1184 1.366 . S
C1185 C1186 1.414 . S
C1185 C1188 1.499 . S
C1186 H1166 0.950 . S
C1186 C1185 1.414 . S
C1186 C1187 1.374 . S
C1187 H1167 0.950 . S
C1187 C1183 1.385 . S
C1187 C1186 1.374 . S
C1188 C1185 1.499 . S
C1188 C1189 1.373 . S
C1188 C1190 1.389 . S
C1189 H1168 0.950 . S
C1189 C1188 1.373 . S
C1189 C1205 1.377 . S
C1190 C1188 1.389 . S
C1190 C1191 1.524 . S
C1190 C1204 1.377 . S
C1191 C1190 1.524 . S
C1191 C1192 1.397 . S
C1191 C1196 1.363 . S
C1192 H1169 0.950 . S
C1192 C1191 1.397 . S
C1192 C1193 1.334 . S
C1193 H1170 0.950 . S
C1193 C1192 1.334 . S
C1193 C1194 1.287 . S
C1194 C1193 1.287 . S
C1194 C1195 1.524 . S
C1194 H1213 0.913 . S
C1195 H1171 0.950 . S
C1195 C1194 1.524 . S
C1195 C1196 1.415 . S
C1196 H1172 0.950 . S
C1196 C1191 1.363 . S
C1196 C1195 1.415 . S
C1197 H1173 0.951 . S
C1197 C1198 1.366 . S
C1197 C1199 1.388 . S
C1198 C1197 1.366 . S
C1198 C1202 1.385 . S
C1199 H1174 0.951 . S
C1199 C1197 1.388 . S
C1199 C1200 1.366 . S
C1200 C1199 1.366 . S
C1200 C1201 1.414 . S
C1200 C1203 1.499 . S
C1201 H1175 0.950 . S
C1201 C1200 1.414 . S
C1201 C1202 1.374 . S
C1202 H1176 0.950 . S
C1202 C1198 1.385 . S
C1202 C1201 1.374 . S
C1203 C1200 1.499 . S
C1203 C1204 1.373 . S
C1203 C1205 1.389 . S
C1204 H1177 0.950 . S
C1204 C1190 1.377 . S
C1204 C1203 1.373 . S
C1205 C1189 1.377 . S
C1205 C1203 1.389 . S
C1205 C1206 1.524 . S
C1206 C1205 1.524 . S
C1206 C1207 1.397 . S
C1206 C1211 1.363 . S
C1207 H1178 0.950 . S
C1207 C1206 1.397 . S
C1207 C1208 1.334 . S
C1208 H1179 0.950 . S
C1208 C1207 1.334 . S
C1208 C1209 1.287 . S
C1209 C1208 1.287 . S
C1209 C1210 1.524 . S
C1209 H1212 0.999 . S
C1210 H1180 0.950 . S
C1210 C1209 1.524 . S
C1210 C1211 1.415 . S
C1211 H1181 0.950 . S
C1211 C1206 1.363 . S
C1211 C1210 1.415 . S
H1212 C1209 0.999 . S
H1213 C1194 0.913 . S
H1214 C1232 0.951 . S
H1215 C1234 0.951 . S
H1216 C1236 0.950 . S
H1217 C1237 0.950 . S
H1218 C1239 0.950 . S
H1219 C1242 0.950 . S
H1220 C1243 0.950 . S
H1221 C1245 0.950 . S
H1222 C1246 0.950 . S
H1223 C1247 0.951 . S
H1224 C1249 0.951 . S
H1225 C1251 0.950 . S
H1226 C1252 0.950 . S
H1227 C1254 0.950 . S
H1228 C1257 0.950 . S
H1229 C1258 0.950 . S
H1230 C1260 0.950 . S
H1231 C1261 0.950 . S
C1232 H1214 0.951 . S
C1232 C1233 1.366 . S
C1232 C1234 1.388 . S
C1233 C1232 1.366 . S
C1233 C1237 1.385 1_655 S
C1234 H1215 0.951 . S
C1234 C1232 1.388 . S
C1234 C1235 1.366 1_655 S
C1235 C1234 1.366 1_455 S
C1235 C1236 1.414 . S
C1235 C1238 1.499 . S
C1236 H1216 0.950 . S
C1236 C1235 1.414 . S
C1236 C1237 1.374 . S
C1237 H1217 0.950 . S
C1237 C1233 1.385 1_455 S
C1237 C1236 1.374 . S
C1238 C1235 1.499 . S
C1238 C1239 1.373 . S
C1238 C1240 1.389 . S
C1239 H1218 0.950 . S
C1239 C1238 1.373 . S
C1239 C1255 1.377 . S
C1240 C1238 1.389 . S
C1240 C1241 1.524 . S
C1240 C1254 1.377 . S
C1241 C1240 1.524 . S
C1241 C1242 1.397 . S
C1241 C1246 1.363 1_455 S
C1242 H1219 0.950 . S
C1242 C1241 1.397 . S
C1242 C1243 1.334 1_455 S
C1243 H1220 0.950 . S
C1243 C1242 1.334 1_655 S
C1243 C1244 1.287 . S
C1244 C1243 1.287 . S
C1244 C1245 1.524 . S
C1244 H1263 0.913 . S
C1245 H1221 0.950 . S
C1245 C1244 1.524 . S
C1245 C1246 1.415 . S
C1246 H1222 0.950 . S
C1246 C1241 1.363 1_655 S
C1246 C1245 1.415 . S
C1247 H1223 0.951 . S
C1247 C1248 1.366 . S
C1247 C1249 1.388 . S
C1248 C1247 1.366 . S
C1248 C1252 1.385 . S
C1249 H1224 0.951 . S
C1249 C1247 1.388 . S
C1249 C1250 1.366 . S
C1250 C1249 1.366 . S
C1250 C1251 1.414 . S
C1250 C1253 1.499 . S
C1251 H1225 0.950 . S
C1251 C1250 1.414 . S
C1251 C1252 1.374 . S
C1252 H1226 0.950 . S
C1252 C1248 1.385 . S
C1252 C1251 1.374 . S
C1253 C1250 1.499 . S
C1253 C1254 1.373 . S
C1253 C1255 1.389 . S
C1254 H1227 0.950 . S
C1254 C1240 1.377 . S
C1254 C1253 1.373 . S
C1255 C1239 1.377 . S
C1255 C1253 1.389 . S
C1255 C1256 1.524 . S
C1256 C1255 1.524 . S
C1256 C1257 1.397 . S
C1256 C1261 1.363 . S
C1257 H1228 0.950 . S
C1257 C1256 1.397 . S
C1257 C1258 1.334 . S
C1258 H1229 0.950 . S
C1258 C1257 1.334 . S
C1258 C1259 1.287 . S
C1259 C1258 1.287 . S
C1259 C1260 1.524 . S
C1259 H1262 0.999 . S
C1260 H1230 0.950 . S
C1260 C1259 1.524 . S
C1260 C1261 1.415 . S
C1261 H1231 0.950 . S
C1261 C1256 1.363 . S
C1261 C1260 1.415 . S
H1262 C1259 0.999 . S
H1263 C1244 0.913 . S
H1264 C1282 0.951 . S
H1265 C1284 0.951 . S
H1266 C1286 0.950 . S
H1267 C1287 0.950 . S
H1268 C1289 0.950 . S
H1269 C1292 0.950 . S
H1270 C1293 0.950 . S
H1271 C1295 0.950 . S
H1272 C1296 0.950 . S
H1273 C1297 0.951 . S
H1274 C1299 0.951 . S
H1275 C1301 0.950 . S
H1276 C1302 0.950 . S
H1277 C1304 0.950 . S
H1278 C1307 0.950 . S
H1279 C1308 0.950 . S
H1280 C1310 0.950 . S
H1281 C1311 0.950 . S
C1282 H1264 0.951 . S
C1282 C1283 1.366 . S
C1282 C1284 1.388 1_565 S
C1283 C1282 1.366 . S
C1283 C1287 1.385 1_565 S
C1284 H1265 0.951 . S
C1284 C1282 1.388 1_545 S
C1284 C1285 1.366 . S
C1285 C1284 1.366 . S
C1285 C1286 1.414 . S
C1285 C1288 1.499 . S
C1286 H1266 0.950 . S
C1286 C1285 1.414 . S
C1286 C1287 1.374 . S
C1287 H1267 0.950 . S
C1287 C1283 1.385 1_545 S
C1287 C1286 1.374 . S
C1288 C1285 1.499 . S
C1288 C1289 1.373 . S
C1288 C1290 1.389 . S
C1289 H1268 0.950 . S
C1289 C1288 1.373 . S
C1289 C1305 1.377 . S
C1290 C1288 1.389 . S
C1290 C1291 1.524 1_545 S
C1290 C1304 1.377 . S
C1291 C1290 1.524 1_565 S
C1291 C1292 1.397 . S
C1291 C1296 1.363 . S
C1292 H1269 0.950 . S
C1292 C1291 1.397 . S
C1292 C1293 1.334 . S
C1293 H1270 0.950 . S
C1293 C1292 1.334 . S
C1293 C1294 1.287 . S
C1294 C1293 1.287 . S
C1294 C1295 1.524 . S
C1294 H1313 0.913 . S
C1295 H1271 0.950 . S
C1295 C1294 1.524 . S
C1295 C1296 1.415 . S
C1296 H1272 0.950 . S
C1296 C1291 1.363 . S
C1296 C1295 1.415 . S
C1297 H1273 0.951 . S
C1297 C1298 1.366 . S
C1297 C1299 1.388 . S
C1298 C1297 1.366 . S
C1298 C1302 1.385 . S
C1299 H1274 0.951 . S
C1299 C1297 1.388 . S
C1299 C1300 1.366 . S
C1300 C1299 1.366 . S
C1300 C1301 1.414 . S
C1300 C1303 1.499 . S
C1301 H1275 0.950 . S
C1301 C1300 1.414 . S
C1301 C1302 1.374 . S
C1302 H1276 0.950 . S
C1302 C1298 1.385 . S
C1302 C1301 1.374 . S
C1303 C1300 1.499 . S
C1303 C1304 1.373 . S
C1303 C1305 1.389 . S
C1304 H1277 0.950 . S
C1304 C1290 1.377 . S
C1304 C1303 1.373 . S
C1305 C1289 1.377 . S
C1305 C1303 1.389 . S
C1305 C1306 1.524 . S
C1306 C1305 1.524 . S
C1306 C1307 1.397 . S
C1306 C1311 1.363 . S
C1307 H1278 0.950 . S
C1307 C1306 1.397 . S
C1307 C1308 1.334 . S
C1308 H1279 0.950 . S
C1308 C1307 1.334 . S
C1308 C1309 1.287 . S
C1309 C1308 1.287 . S
C1309 C1310 1.524 . S
C1309 H1312 0.999 . S
C1310 H1280 0.950 . S
C1310 C1309 1.524 . S
C1310 C1311 1.415 . S
C1311 H1281 0.950 . S
C1311 C1306 1.363 . S
C1311 C1310 1.415 . S
H1312 C1309 0.999 . S
H1313 C1294 0.913 . S
H1314 C1332 0.951 . S
H1315 C1334 0.951 . S
H1316 C1336 0.950 . S
H1317 C1337 0.950 . S
H1318 C1339 0.950 . S
H1319 C1342 0.950 . S
H1320 C1343 0.950 . S
H1321 C1345 0.950 . S
H1322 C1346 0.950 . S
H1323 C1347 0.951 . S
H1324 C1349 0.951 . S
H1325 C1351 0.950 . S
H1326 C1352 0.950 . S
H1327 C1354 0.950 . S
H1328 C1357 0.950 . S
H1329 C1358 0.950 . S
H1330 C1360 0.950 . S
H1331 C1361 0.950 . S
C1332 H1314 0.951 . S
C1332 C1333 1.366 . S
C1332 C1334 1.388 . S
C1333 C1332 1.366 . S
C1333 C1337 1.385 . S
C1334 H1315 0.951 . S
C1334 C1332 1.388 . S
C1334 C1335 1.366 . S
C1335 C1334 1.366 . S
C1335 C1336 1.414 . S
C1335 C1338 1.499 . S
C1336 H1316 0.950 . S
C1336 C1335 1.414 . S
C1336 C1337 1.374 . S
C1337 H1317 0.950 . S
C1337 C1333 1.385 . S
C1337 C1336 1.374 . S
C1338 C1335 1.499 . S
C1338 C1339 1.373 . S
C1338 C1340 1.389 . S
C1339 H1318 0.950 . S
C1339 C1338 1.373 . S
C1339 C1355 1.377 . S
C1340 C1338 1.389 . S
C1340 C1341 1.524 . S
C1340 C1354 1.377 . S
C1341 C1340 1.524 . S
C1341 C1342 1.397 . S
C1341 C1346 1.363 . S
C1342 H1319 0.950 . S
C1342 C1341 1.397 . S
C1342 C1343 1.334 . S
C1343 H1320 0.950 . S
C1343 C1342 1.334 . S
C1343 C1344 1.287 . S
C1344 C1343 1.287 . S
C1344 C1345 1.524 . S
C1344 H1363 0.913 . S
C1345 H1321 0.950 . S
C1345 C1344 1.524 . S
C1345 C1346 1.415 . S
C1346 H1322 0.950 . S
C1346 C1341 1.363 . S
C1346 C1345 1.415 . S
C1347 H1323 0.951 . S
C1347 C1348 1.366 . S
C1347 C1349 1.388 . S
C1348 C1347 1.366 . S
C1348 C1352 1.385 . S
C1349 H1324 0.951 . S
C1349 C1347 1.388 . S
C1349 C1350 1.366 . S
C1350 C1349 1.366 . S
C1350 C1351 1.414 . S
C1350 C1353 1.499 . S
C1351 H1325 0.950 . S
C1351 C1350 1.414 . S
C1351 C1352 1.374 . S
C1352 H1326 0.950 . S
C1352 C1348 1.385 . S
C1352 C1351 1.374 . S
C1353 C1350 1.499 . S
C1353 C1354 1.373 . S
C1353 C1355 1.389 . S
C1354 H1327 0.950 . S
C1354 C1340 1.377 . S
C1354 C1353 1.373 . S
C1355 C1339 1.377 . S
C1355 C1353 1.389 . S
C1355 C1356 1.524 . S
C1356 C1355 1.524 . S
C1356 C1357 1.397 . S
C1356 C1361 1.363 . S
C1357 H1328 0.950 . S
C1357 C1356 1.397 . S
C1357 C1358 1.334 . S
C1358 H1329 0.950 . S
C1358 C1357 1.334 . S
C1358 C1359 1.287 . S
C1359 C1358 1.287 . S
C1359 C1360 1.524 . S
C1359 H1362 0.999 . S
C1360 H1330 0.950 . S
C1360 C1359 1.524 . S
C1360 C1361 1.415 . S
C1361 H1331 0.950 . S
C1361 C1356 1.363 . S
C1361 C1360 1.415 . S
H1362 C1359 0.999 . S
H1363 C1344 0.913 . S
H1364 C1382 0.951 . S
H1365 C1384 0.951 . S
H1366 C1386 0.950 . S
H1367 C1387 0.950 . S
H1368 C1389 0.950 . S
H1369 C1392 0.950 1_455 S
H1370 C1393 0.950 1_455 S
H1371 C1395 0.950 . S
H1372 C1396 0.950 . S
H1373 C1397 0.951 . S
H1374 C1399 0.951 . S
H1375 C1401 0.950 . S
H1376 C1402 0.950 . S
H1377 C1404 0.950 . S
H1378 C1407 0.950 . S
H1379 C1408 0.950 . S
H1380 C1410 0.950 . S
H1381 C1411 0.950 . S
C1382 H1364 0.951 . S
C1382 C1383 1.366 1_655 S
C1382 C1384 1.388 . S
C1383 C1382 1.366 1_455 S
C1383 C1387 1.385 . S
C1384 H1365 0.951 . S
C1384 C1382 1.388 . S
C1384 C1385 1.366 . S
C1385 C1384 1.366 . S
C1385 C1386 1.414 1_655 S
C1385 C1388 1.499 . S
C1386 H1366 0.950 . S
C1386 C1385 1.414 1_455 S
C1386 C1387 1.374 . S
C1387 H1367 0.950 . S
C1387 C1383 1.385 . S
C1387 C1386 1.374 . S
C1388 C1385 1.499 . S
C1388 C1389 1.373 . S
C1388 C1390 1.389 . S
C1389 H1368 0.950 . S
C1389 C1388 1.373 . S
C1389 C1405 1.377 . S
C1390 C1388 1.389 . S
C1390 C1391 1.524 . S
C1390 C1404 1.377 . S
C1391 C1390 1.524 . S
C1391 C1392 1.397 . S
C1391 C1396 1.363 . S
C1392 H1369 0.950 1_655 S
C1392 C1391 1.397 . S
C1392 C1393 1.334 . S
C1393 H1370 0.950 1_655 S
C1393 C1392 1.334 . S
C1393 C1394 1.287 . S
C1394 C1393 1.287 . S
C1394 C1395 1.524 . S
C1394 H1413 0.913 . S
C1395 H1371 0.950 . S
C1395 C1394 1.524 . S
C1395 C1396 1.415 . S
C1396 H1372 0.950 . S
C1396 C1391 1.363 . S
C1396 C1395 1.415 . S
C1397 H1373 0.951 . S
C1397 C1398 1.366 . S
C1397 C1399 1.388 . S
C1398 C1397 1.366 . S
C1398 C1402 1.385 . S
C1399 H1374 0.951 . S
C1399 C1397 1.388 . S
C1399 C1400 1.366 . S
C1400 C1399 1.366 . S
C1400 C1401 1.414 . S
C1400 C1403 1.499 . S
C1401 H1375 0.950 . S
C1401 C1400 1.414 . S
C1401 C1402 1.374 . S
C1402 H1376 0.950 . S
C1402 C1398 1.385 . S
C1402 C1401 1.374 . S
C1403 C1400 1.499 . S
C1403 C1404 1.373 . S
C1403 C1405 1.389 . S
C1404 H1377 0.950 . S
C1404 C1390 1.377 . S
C1404 C1403 1.373 . S
C1405 C1389 1.377 . S
C1405 C1403 1.389 . S
C1405 C1406 1.524 . S
C1406 C1405 1.524 . S
C1406 C1407 1.397 . S
C1406 C1411 1.363 . S
C1407 H1378 0.950 . S
C1407 C1406 1.397 . S
C1407 C1408 1.334 . S
C1408 H1379 0.950 . S
C1408 C1407 1.334 . S
C1408 C1409 1.287 . S
C1409 C1408 1.287 . S
C1409 C1410 1.524 . S
C1409 H1412 0.999 1_545 S
C1410 H1380 0.950 . S
C1410 C1409 1.524 . S
C1410 C1411 1.415 . S
C1411 H1381 0.950 . S
C1411 C1406 1.363 . S
C1411 C1410 1.415 . S
H1412 C1409 0.999 1_565 S
H1413 C1394 0.913 . S
H1414 C1432 0.951 . S
H1415 C1434 0.951 . S
H1416 C1436 0.950 . S
H1417 C1437 0.950 . S
H1418 C1439 0.950 . S
H1419 C1442 0.950 . S
H1420 C1443 0.950 . S
H1421 C1445 0.950 1_545 S
H1422 C1446 0.950 1_545 S
H1423 C1447 0.951 . S
H1424 C1449 0.951 . S
H1425 C1451 0.950 . S
H1426 C1452 0.950 . S
H1427 C1454 0.950 . S
H1428 C1457 0.950 . S
H1429 C1458 0.950 . S
H1430 C1460 0.950 . S
H1431 C1461 0.950 . S
C1432 H1414 0.951 . S
C1432 C1433 1.366 . S
C1432 C1434 1.388 . S
C1433 C1432 1.366 . S
C1433 C1437 1.385 . S
C1434 H1415 0.951 . S
C1434 C1432 1.388 . S
C1434 C1435 1.366 . S
C1435 C1434 1.366 . S
C1435 C1436 1.414 . S
C1435 C1438 1.499 . S
C1436 H1416 0.950 . S
C1436 C1435 1.414 . S
C1436 C1437 1.374 . S
C1437 H1417 0.950 . S
C1437 C1433 1.385 . S
C1437 C1436 1.374 . S
C1438 C1435 1.499 . S
C1438 C1439 1.373 . S
C1438 C1440 1.389 . S
C1439 H1418 0.950 . S
C1439 C1438 1.373 . S
C1439 C1455 1.377 . S
C1440 C1438 1.389 . S
C1440 C1441 1.524 . S
C1440 C1454 1.377 . S
C1441 C1440 1.524 . S
C1441 C1442 1.397 . S
C1441 C1446 1.363 . S
C1442 H1419 0.950 . S
C1442 C1441 1.397 . S
C1442 C1443 1.334 . S
C1443 H1420 0.950 . S
C1443 C1442 1.334 . S
C1443 C1444 1.287 . S
C1444 C1443 1.287 . S
C1444 C1445 1.524 . S
C1444 H1463 0.913 . S
C1445 H1421 0.950 1_565 S
C1445 C1444 1.524 . S
C1445 C1446 1.415 . S
C1446 H1422 0.950 1_565 S
C1446 C1441 1.363 . S
C1446 C1445 1.415 . S
C1447 H1423 0.951 . S
C1447 C1448 1.366 1_565 S
C1447 C1449 1.388 . S
C1448 C1447 1.366 1_545 S
C1448 C1452 1.385 . S
C1449 H1424 0.951 . S
C1449 C1447 1.388 . S
C1449 C1450 1.366 . S
C1450 C1449 1.366 . S
C1450 C1451 1.414 1_565 S
C1450 C1453 1.499 . S
C1451 H1425 0.950 . S
C1451 C1450 1.414 1_545 S
C1451 C1452 1.374 . S
C1452 H1426 0.950 . S
C1452 C1448 1.385 . S
C1452 C1451 1.374 . S
C1453 C1450 1.499 . S
C1453 C1454 1.373 . S
C1453 C1455 1.389 . S
C1454 H1427 0.950 . S
C1454 C1440 1.377 . S
C1454 C1453 1.373 . S
C1455 C1439 1.377 . S
C1455 C1453 1.389 . S
C1455 C1456 1.524 . S
C1456 C1455 1.524 . S
C1456 C1457 1.397 . S
C1456 C1461 1.363 . S
C1457 H1428 0.950 . S
C1457 C1456 1.397 . S
C1457 C1458 1.334 . S
C1458 H1429 0.950 . S
C1458 C1457 1.334 . S
C1458 C1459 1.287 . S
C1459 C1458 1.287 . S
C1459 C1460 1.524 . S
C1459 H1462 0.999 . S
C1460 H1430 0.950 . S
C1460 C1459 1.524 . S
C1460 C1461 1.415 . S
C1461 H1431 0.950 . S
C1461 C1456 1.363 . S
C1461 C1460 1.415 . S
H1462 C1459 0.999 . S
H1463 C1444 0.913 . S
H1464 C1482 0.951 . S
H1465 C1484 0.951 . S
H1466 C1486 0.950 . S
H1467 C1487 0.950 . S
H1468 C1489 0.950 . S
H1469 C1492 0.950 . S
H1470 C1493 0.950 . S
H1471 C1495 0.950 . S
H1472 C1496 0.950 . S
H1473 C1497 0.951 . S
H1474 C1499 0.951 . S
H1475 C1501 0.950 . S
H1476 C1502 0.950 . S
H1477 C1504 0.950 . S
H1478 C1507 0.950 . S
H1479 C1508 0.950 . S
H1480 C1510 0.950 . S
H1481 C1511 0.950 . S
C1482 H1464 0.951 . S
C1482 C1483 1.366 . S
C1482 C1484 1.388 . S
C1483 C1482 1.366 . S
C1483 C1487 1.385 . S
C1484 H1465 0.951 . S
C1484 C1482 1.388 . S
C1484 C1485 1.366 . S
C1485 C1484 1.366 . S
C1485 C1486 1.414 . S
C1485 C1488 1.499 . S
C1486 H1466 0.950 . S
C1486 C1485 1.414 . S
C1486 C1487 1.374 . S
C1487 H1467 0.950 . S
C1487 C1483 1.385 . S
C1487 C1486 1.374 . S
C1488 C1485 1.499 . S
C1488 C1489 1.373 . S
C1488 C1490 1.389 . S
C1489 H1468 0.950 . S
C1489 C1488 1.373 . S
C1489 C1505 1.377 . S
C1490 C1488 1.389 . S
C1490 C1491 1.524 . S
C1490 C1504 1.377 . S
C1491 C1490 1.524 . S
C1491 C1492 1.397 . S
C1491 C1496 1.363 . S
C1492 H1469 0.950 . S
C1492 C1491 1.397 . S
C1492 C1493 1.334 . S
C1493 H1470 0.950 . S
C1493 C1492 1.334 . S
C1493 C1494 1.287 . S
C1494 C1493 1.287 . S
C1494 C1495 1.524 . S
C1494 H1513 0.913 . S
C1495 H1471 0.950 . S
C1495 C1494 1.524 . S
C1495 C1496 1.415 . S
C1496 H1472 0.950 . S
C1496 C1491 1.363 . S
C1496 C1495 1.415 . S
C1497 H1473 0.951 . S
C1497 C1498 1.366 . S
C1497 C1499 1.388 . S
C1498 C1497 1.366 . S
C1498 C1502 1.385 . S
C1499 H1474 0.951 . S
C1499 C1497 1.388 . S
C1499 C1500 1.366 . S
C1500 C1499 1.366 . S
C1500 C1501 1.414 . S
C1500 C1503 1.499 . S
C1501 H1475 0.950 . S
C1501 C1500 1.414 . S
C1501 C1502 1.374 . S
C1502 H1476 0.950 . S
C1502 C1498 1.385 . S
C1502 C1501 1.374 . S
C1503 C1500 1.499 . S
C1503 C1504 1.373 . S
C1503 C1505 1.389 . S
C1504 H1477 0.950 . S
C1504 C1490 1.377 . S
C1504 C1503 1.373 . S
C1505 C1489 1.377 . S
C1505 C1503 1.389 . S
C1505 C1506 1.524 . S
C1506 C1505 1.524 . S
C1506 C1507 1.397 . S
C1506 C1511 1.363 . S
C1507 H1478 0.950 . S
C1507 C1506 1.397 . S
C1507 C1508 1.334 . S
C1508 H1479 0.950 . S
C1508 C1507 1.334 . S
C1508 C1509 1.287 . S
C1509 C1508 1.287 . S
C1509 C1510 1.524 . S
C1509 H1512 0.999 . S
C1510 H1480 0.950 . S
C1510 C1509 1.524 . S
C1510 C1511 1.415 . S
C1511 H1481 0.950 . S
C1511 C1506 1.363 . S
C1511 C1510 1.415 . S
H1512 C1509 0.999 . S
H1513 C1494 0.913 . S
H1514 C1532 0.951 . S
H1515 C1534 0.951 . S
H1516 C1536 0.950 . S
H1517 C1537 0.950 . S
H1518 C1539 0.950 . S
H1519 C1542 0.950 . S
H1520 C1543 0.950 1_655 S
H1521 C1545 0.950 . S
H1522 C1546 0.950 . S
H1523 C1547 0.951 . S
H1524 C1549 0.951 . S
H1525 C1551 0.950 . S
H1526 C1552 0.950 . S
H1527 C1554 0.950 . S
H1528 C1557 0.950 . S
H1529 C1558 0.950 . S
H1530 C1560 0.950 . S
H1531 C1561 0.950 . S
C1532 H1514 0.951 . S
C1532 C1533 1.366 . S
C1532 C1534 1.388 . S
C1533 C1532 1.366 . S
C1533 C1537 1.385 . S
C1534 H1515 0.951 . S
C1534 C1532 1.388 . S
C1534 C1535 1.366 . S
C1535 C1534 1.366 . S
C1535 C1536 1.414 . S
C1535 C1538 1.499 . S
C1536 H1516 0.950 . S
C1536 C1535 1.414 . S
C1536 C1537 1.374 . S
C1537 H1517 0.950 . S
C1537 C1533 1.385 . S
C1537 C1536 1.374 . S
C1538 C1535 1.499 . S
C1538 C1539 1.373 . S
C1538 C1540 1.389 . S
C1539 H1518 0.950 . S
C1539 C1538 1.373 . S
C1539 C1555 1.377 . S
C1540 C1538 1.389 . S
C1540 C1541 1.524 . S
C1540 C1554 1.377 . S
C1541 C1540 1.524 . S
C1541 C1542 1.397 . S
C1541 C1546 1.363 . S
C1542 H1519 0.950 . S
C1542 C1541 1.397 . S
C1542 C1543 1.334 . S
C1543 H1520 0.950 1_455 S
C1543 C1542 1.334 . S
C1543 C1544 1.287 . S
C1544 C1543 1.287 . S
C1544 C1545 1.524 . S
C1544 H1563 0.913 . S
C1545 H1521 0.950 . S
C1545 C1544 1.524 . S
C1545 C1546 1.415 . S
C1546 H1522 0.950 . S
C1546 C1541 1.363 . S
C1546 C1545 1.415 . S
C1547 H1523 0.951 . S
C1547 C1548 1.366 . S
C1547 C1549 1.388 . S
C1548 C1547 1.366 . S
C1548 C1552 1.385 . S
C1549 H1524 0.951 . S
C1549 C1547 1.388 . S
C1549 C1550 1.366 . S
C1550 C1549 1.366 . S
C1550 C1551 1.414 . S
C1550 C1553 1.499 . S
C1551 H1525 0.950 . S
C1551 C1550 1.414 . S
C1551 C1552 1.374 . S
C1552 H1526 0.950 . S
C1552 C1548 1.385 . S
C1552 C1551 1.374 . S
C1553 C1550 1.499 . S
C1553 C1554 1.373 . S
C1553 C1555 1.389 . S
C1554 H1527 0.950 . S
C1554 C1540 1.377 . S
C1554 C1553 1.373 . S
C1555 C1539 1.377 . S
C1555 C1553 1.389 . S
C1555 C1556 1.524 . S
C1556 C1555 1.524 . S
C1556 C1557 1.397 . S
C1556 C1561 1.363 . S
C1557 H1528 0.950 . S
C1557 C1556 1.397 . S
C1557 C1558 1.334 . S
C1558 H1529 0.950 . S
C1558 C1557 1.334 . S
C1558 C1559 1.287 . S
C1559 C1558 1.287 . S
C1559 C1560 1.524 . S
C1559 H1562 0.999 . S
C1560 H1530 0.950 . S
C1560 C1559 1.524 . S
C1560 C1561 1.415 . S
C1561 H1531 0.950 . S
C1561 C1556 1.363 . S
C1561 C1560 1.415 . S
H1562 C1559 0.999 . S
H1563 C1544 0.913 . S
H1564 C1582 0.951 . S
H1565 C1584 0.951 . S
H1566 C1586 0.950 . S
H1567 C1587 0.950 . S
H1568 C1589 0.950 . S
H1569 C1592 0.950 . S
H1570 C1593 0.950 . S
H1571 C1595 0.950 . S
H1572 C1596 0.950 . S
H1573 C1597 0.951 1_455 S
H1574 C1599 0.951 . S
H1575 C1601 0.950 . S
H1576 C1602 0.950 . S
H1577 C1604 0.950 . S
H1578 C1607 0.950 . S
H1579 C1608 0.950 . S
H1580 C1610 0.950 . S
H1581 C1611 0.950 . S
C1582 H1564 0.951 . S
C1582 C1583 1.366 . S
C1582 C1584 1.388 . S
C1583 C1582 1.366 . S
C1583 C1587 1.385 . S
C1584 H1565 0.951 . S
C1584 C1582 1.388 . S
C1584 C1585 1.366 . S
C1585 C1584 1.366 . S
C1585 C1586 1.414 . S
C1585 C1588 1.499 . S
C1586 H1566 0.950 . S
C1586 C1585 1.414 . S
C1586 C1587 1.374 . S
C1587 H1567 0.950 . S
C1587 C1583 1.385 . S
C1587 C1586 1.374 . S
C1588 C1585 1.499 . S
C1588 C1589 1.373 . S
C1588 C1590 1.389 . S
C1589 H1568 0.950 . S
C1589 C1588 1.373 . S
C1589 C1605 1.377 . S
C1590 C1588 1.389 . S
C1590 C1591 1.524 . S
C1590 C1604 1.377 . S
C1591 C1590 1.524 . S
C1591 C1592 1.397 . S
C1591 C1596 1.363 . S
C1592 H1569 0.950 . S
C1592 C1591 1.397 . S
C1592 C1593 1.334 . S
C1593 H1570 0.950 . S
C1593 C1592 1.334 . S
C1593 C1594 1.287 . S
C1594 C1593 1.287 . S
C1594 C1595 1.524 . S
C1594 H1613 0.913 . S
C1595 H1571 0.950 . S
C1595 C1594 1.524 . S
C1595 C1596 1.415 . S
C1596 H1572 0.950 . S
C1596 C1591 1.363 . S
C1596 C1595 1.415 . S
C1597 H1573 0.951 1_655 S
C1597 C1598 1.366 . S
C1597 C1599 1.388 . S
C1598 C1597 1.366 . S
C1598 C1602 1.385 . S
C1599 H1574 0.951 . S
C1599 C1597 1.388 . S
C1599 C1600 1.366 . S
C1600 C1599 1.366 . S
C1600 C1601 1.414 . S
C1600 C1603 1.499 . S
C1601 H1575 0.950 . S
C1601 C1600 1.414 . S
C1601 C1602 1.374 . S
C1602 H1576 0.950 . S
C1602 C1598 1.385 . S
C1602 C1601 1.374 . S
C1603 C1600 1.499 . S
C1603 C1604 1.373 . S
C1603 C1605 1.389 . S
C1604 H1577 0.950 . S
C1604 C1590 1.377 . S
C1604 C1603 1.373 . S
C1605 C1589 1.377 . S
C1605 C1603 1.389 . S
C1605 C1606 1.524 . S
C1606 C1605 1.524 . S
C1606 C1607 1.397 . S
C1606 C1611 1.363 . S
C1607 H1578 0.950 . S
C1607 C1606 1.397 . S
C1607 C1608 1.334 . S
C1608 H1579 0.950 . S
C1608 C1607 1.334 . S
C1608 C1609 1.287 . S
C1609 C1608 1.287 . S
C1609 C1610 1.524 . S
C1609 H1612 0.999 . S
C1610 H1580 0.950 . S
C1610 C1609 1.524 . S
C1610 C1611 1.415 . S
C1611 H1581 0.950 . S
C1611 C1606 1.363 . S
C1611 C1610 1.415 . S
H1612 C1609 0.999 . S
H1613 C1594 0.913 . S
H1614 C1632 0.951 . S
H1615 C1634 0.951 . S
H1616 C1636 0.950 . S
H1617 C1637 0.950 . S
H1618 C1639 0.950 . S
H1619 C1642 0.950 . S
H1620 C1643 0.950 . S
H1621 C1645 0.950 . S
H1622 C1646 0.950 . S
H1623 C1647 0.951 . S
H1624 C1649 0.951 . S
H1625 C1651 0.950 . S
H1626 C1652 0.950 . S
H1627 C1654 0.950 . S
H1628 C1657 0.950 . S
H1629 C1658 0.950 . S
H1630 C1660 0.950 . S
H1631 C1661 0.950 . S
C1632 H1614 0.951 . S
C1632 C1633 1.366 . S
C1632 C1634 1.388 . S
C1633 C1632 1.366 . S
C1633 C1637 1.385 . S
C1634 H1615 0.951 . S
C1634 C1632 1.388 . S
C1634 C1635 1.366 . S
C1635 C1634 1.366 . S
C1635 C1636 1.414 . S
C1635 C1638 1.499 . S
C1636 H1616 0.950 . S
C1636 C1635 1.414 . S
C1636 C1637 1.374 . S
C1637 H1617 0.950 . S
C1637 C1633 1.385 . S
C1637 C1636 1.374 . S
C1638 C1635 1.499 . S
C1638 C1639 1.373 . S
C1638 C1640 1.389 . S
C1639 H1618 0.950 . S
C1639 C1638 1.373 . S
C1639 C1655 1.377 . S
C1640 C1638 1.389 . S
C1640 C1641 1.524 . S
C1640 C1654 1.377 . S
C1641 C1640 1.524 . S
C1641 C1642 1.397 . S
C1641 C1646 1.363 . S
C1642 H1619 0.950 . S
C1642 C1641 1.397 . S
C1642 C1643 1.334 . S
C1643 H1620 0.950 . S
C1643 C1642 1.334 . S
C1643 C1644 1.287 . S
C1644 C1643 1.287 . S
C1644 C1645 1.524 . S
C1644 H1663 0.913 . S
C1645 H1621 0.950 . S
C1645 C1644 1.524 . S
C1645 C1646 1.415 . S
C1646 H1622 0.950 . S
C1646 C1641 1.363 . S
C1646 C1645 1.415 . S
C1647 H1623 0.951 . S
C1647 C1648 1.366 . S
C1647 C1649 1.388 . S
C1648 C1647 1.366 . S
C1648 C1652 1.385 . S
C1649 H1624 0.951 . S
C1649 C1647 1.388 . S
C1649 C1650 1.366 . S
C1650 C1649 1.366 . S
C1650 C1651 1.414 . S
C1650 C1653 1.499 . S
C1651 H1625 0.950 . S
C1651 C1650 1.414 . S
C1651 C1652 1.374 . S
C1652 H1626 0.950 . S
C1652 C1648 1.385 . S
C1652 C1651 1.374 . S
C1653 C1650 1.499 . S
C1653 C1654 1.373 . S
C1653 C1655 1.389 . S
C1654 H1627 0.950 . S
C1654 C1640 1.377 . S
C1654 C1653 1.373 . S
C1655 C1639 1.377 . S
C1655 C1653 1.389 . S
C1655 C1656 1.524 . S
C1656 C1655 1.524 . S
C1656 C1657 1.397 . S
C1656 C1661 1.363 . S
C1657 H1628 0.950 . S
C1657 C1656 1.397 . S
C1657 C1658 1.334 . S
C1658 H1629 0.950 . S
C1658 C1657 1.334 . S
C1658 C1659 1.287 . S
C1659 C1658 1.287 . S
C1659 C1660 1.524 . S
C1659 H1662 0.999 . S
C1660 H1630 0.950 . S
C1660 C1659 1.524 . S
C1660 C1661 1.415 . S
C1661 H1631 0.950 . S
C1661 C1656 1.363 . S
C1661 C1660 1.415 . S
H1662 C1659 0.999 . S
H1663 C1644 0.913 . S
H1664 C1682 0.951 . S
H1665 C1684 0.951 . S
H1666 C1686 0.950 . S
H1667 C1687 0.950 . S
H1668 C1689 0.950 . S
H1669 C1692 0.950 . S
H1670 C1693 0.950 . S
H1671 C1695 0.950 . S
H1672 C1696 0.950 . S
H1673 C1697 0.951 . S
H1674 C1699 0.951 . S
H1675 C1701 0.950 . S
H1676 C1702 0.950 . S
H1677 C1704 0.950 . S
H1678 C1707 0.950 . S
H1679 C1708 0.950 . S
H1680 C1710 0.950 . S
H1681 C1711 0.950 . S
C1682 H1664 0.951 . S
C1682 C1683 1.366 . S
C1682 C1684 1.388 . S
C1683 C1682 1.366 . S
C1683 C1687 1.385 . S
C1684 H1665 0.951 . S
C1684 C1682 1.388 . S
C1684 C1685 1.366 . S
C1685 C1684 1.366 . S
C1685 C1686 1.414 . S
C1685 C1688 1.499 . S
C1686 H1666 0.950 . S
C1686 C1685 1.414 . S
C1686 C1687 1.374 . S
C1687 H1667 0.950 . S
C1687 C1683 1.385 . S
C1687 C1686 1.374 . S
C1688 C1685 1.499 . S
C1688 C1689 1.373 . S
C1688 C1690 1.389 . S
C1689 H1668 0.950 . S
C1689 C1688 1.373 . S
C1689 C1705 1.377 . S
C1690 C1688 1.389 . S
C1690 C1691 1.524 . S
C1690 C1704 1.377 . S
C1691 C1690 1.524 . S
C1691 C1692 1.397 . S
C1691 C1696 1.363 . S
C1692 H1669 0.950 . S
C1692 C1691 1.397 . S
C1692 C1693 1.334 1_655 S
C1693 H1670 0.950 . S
C1693 C1692 1.334 1_455 S
C1693 C1694 1.287 . S
C1694 C1693 1.287 . S
C1694 C1695 1.524 . S
C1694 H1713 0.913 . S
C1695 H1671 0.950 . S
C1695 C1694 1.524 . S
C1695 C1696 1.415 1_455 S
C1696 H1672 0.950 . S
C1696 C1691 1.363 . S
C1696 C1695 1.415 1_655 S
C1697 H1673 0.951 . S
C1697 C1698 1.366 . S
C1697 C1699 1.388 . S
C1698 C1697 1.366 . S
C1698 C1702 1.385 . S
C1699 H1674 0.951 . S
C1699 C1697 1.388 . S
C1699 C1700 1.366 . S
C1700 C1699 1.366 . S
C1700 C1701 1.414 . S
C1700 C1703 1.499 . S
C1701 H1675 0.950 . S
C1701 C1700 1.414 . S
C1701 C1702 1.374 . S
C1702 H1676 0.950 . S
C1702 C1698 1.385 . S
C1702 C1701 1.374 . S
C1703 C1700 1.499 . S
C1703 C1704 1.373 . S
C1703 C1705 1.389 . S
C1704 H1677 0.950 . S
C1704 C1690 1.377 . S
C1704 C1703 1.373 . S
C1705 C1689 1.377 . S
C1705 C1703 1.389 . S
C1705 C1706 1.524 . S
C1706 C1705 1.524 . S
C1706 C1707 1.397 . S
C1706 C1711 1.363 . S
C1707 H1678 0.950 . S
C1707 C1706 1.397 . S
C1707 C1708 1.334 . S
C1708 H1679 0.950 . S
C1708 C1707 1.334 . S
C1708 C1709 1.287 . S
C1709 C1708 1.287 . S
C1709 C1710 1.524 . S
C1709 H1712 0.999 . S
C1710 H1680 0.950 . S
C1710 C1709 1.524 . S
C1710 C1711 1.415 . S
C1711 H1681 0.950 . S
C1711 C1706 1.363 . S
C1711 C1710 1.415 . S
H1712 C1709 0.999 . S
H1713 C1694 0.913 . S
H1714 C1732 0.951 . S
H1715 C1734 0.951 . S
H1716 C1736 0.950 . S
H1717 C1737 0.950 . S
H1718 C1739 0.950 . S
H1719 C1742 0.950 . S
H1720 C1743 0.950 . S
H1721 C1745 0.950 . S
H1722 C1746 0.950 . S
H1723 C1747 0.951 . S
H1724 C1749 0.951 . S
H1725 C1751 0.950 . S
H1726 C1752 0.975 . S
H1727 C1754 0.950 . S
H1728 C1757 0.950 . S
H1729 C1758 0.950 . S
H1730 C1760 0.950 . S
H1731 C1761 0.950 . S
C1732 H1714 0.951 . S
C1732 C1733 1.366 . S
C1732 C1734 1.388 . S
C1733 C1732 1.366 . S
C1733 C1737 1.385 . S
C1734 H1715 0.951 . S
C1734 C1732 1.388 . S
C1734 C1735 1.366 . S
C1735 C1734 1.366 . S
C1735 C1736 1.414 . S
C1735 C1738 1.499 . S
C1736 H1716 0.950 . S
C1736 C1735 1.414 . S
C1736 C1737 1.374 . S
C1737 H1717 0.950 . S
C1737 C1733 1.385 . S
C1737 C1736 1.374 . S
C1738 C1735 1.499 . S
C1738 C1739 1.373 . S
C1738 C1740 1.389 . S
C1739 H1718 0.950 . S
C1739 C1738 1.373 . S
C1739 C1755 1.377 . S
C1740 C1738 1.389 . S
C1740 C1741 1.524 . S
C1740 C1754 1.377 . S
C1741 C1740 1.524 . S
C1741 C1742 1.397 . S
C1741 C1746 1.363 . S
C1742 H1719 0.950 . S
C1742 C1741 1.397 . S
C1742 C1743 1.334 1_455 S
C1743 H1720 0.950 . S
C1743 C1742 1.334 1_655 S
C1743 C1744 1.287 . S
C1744 C1743 1.287 . S
C1744 C1745 1.524 1_655 S
C1744 H1763 0.913 . S
C1745 H1721 0.950 . S
C1745 C1744 1.524 1_455 S
C1745 C1746 1.415 . S
C1746 H1722 0.950 . S
C1746 C1741 1.363 . S
C1746 C1745 1.415 . S
C1747 H1723 0.951 . S
C1747 C1748 1.366 . S
C1747 C1749 1.388 . S
C1748 C1747 1.366 . S
C1748 C1752 1.385 . S
C1749 H1724 0.951 . S
C1749 C1747 1.388 . S
C1749 C1750 1.366 . S
C1750 C1749 1.366 . S
C1750 C1751 1.414 . S
C1750 C1753 1.499 . S
C1751 H1725 0.950 . S
C1751 C1750 1.414 . S
C1751 C1752 1.374 . S
C1752 H1726 0.975 . S
C1752 C1748 1.385 . S
C1752 C1751 1.374 . S
C1753 C1750 1.499 . S
C1753 C1754 1.373 . S
C1753 C1755 1.389 . S
C1754 H1727 0.950 . S
C1754 C1740 1.377 . S
C1754 C1753 1.373 . S
C1755 C1739 1.377 . S
C1755 C1753 1.389 . S
C1755 C1756 1.524 . S
C1756 C1755 1.524 . S
C1756 C1757 1.397 . S
C1756 C1761 1.363 . S
C1757 H1728 0.950 . S
C1757 C1756 1.397 . S
C1757 C1758 1.334 . S
C1758 H1729 0.950 . S
C1758 C1757 1.334 . S
C1758 C1759 1.287 . S
C1759 C1758 1.287 . S
C1759 C1760 1.524 . S
C1759 H1762 0.999 . S
C1760 H1730 0.950 . S
C1760 C1759 1.524 . S
C1760 C1761 1.415 . S
C1761 H1731 0.950 . S
C1761 C1756 1.363 . S
C1761 C1760 1.415 . S
H1762 C1759 0.999 . S
H1763 C1744 0.913 . S
H1764 C1782 0.951 . S
H1765 C1784 0.951 . S
H1766 C1786 0.950 . S
H1767 C1787 0.950 . S
H1768 C1789 0.950 . S
H1769 C1792 0.918 1_554 S
H1770 C1793 0.950 . S
H1771 C1795 0.950 . S
H1772 C1796 0.950 . S
H1773 C1797 0.951 1_655 S
H1774 C1799 0.951 . S
H1775 C1801 0.950 . S
H1776 C1802 0.950 . S
H1777 C1804 0.950 . S
H1778 C1807 0.950 1_556 S
H1779 C1808 0.950 . S
H1780 C1810 0.950 . S
H1781 C1811 0.950 . S
C1782 H1764 0.951 . S
C1782 C1783 1.366 1_556 S
C1782 C1784 1.388 . S
C1783 C1782 1.366 1_554 S
C1783 C1787 1.385 . S
C1784 H1765 0.951 . S
C1784 C1782 1.388 . S
C1784 C1785 1.366 1_556 S
C1785 C1784 1.366 1_554 S
C1785 C1786 1.414 . S
C1785 C1788 1.499 . S
C1786 H1766 0.950 . S
C1786 C1785 1.414 . S
C1786 C1787 1.374 . S
C1787 H1767 0.950 . S
C1787 C1783 1.385 . S
C1787 C1786 1.374 . S
C1788 C1785 1.499 . S
C1788 C1789 1.373 . S
C1788 C1790 1.389 1_554 S
C1789 H1768 0.950 . S
C1789 C1788 1.373 . S
C1789 C1805 1.377 1_545 S
C1790 C1788 1.389 1_556 S
C1790 C1791 1.524 . S
C1790 C1804 1.377 1_545 S
C1791 C1790 1.524 . S
C1791 C1792 1.397 . S
C1791 C1796 1.363 . S
C1792 H1769 0.918 1_556 S
C1792 C1791 1.397 . S
C1792 C1793 1.334 . S
C1793 H1770 0.950 . S
C1793 C1792 1.334 . S
C1793 C1794 1.287 . S
C1794 C1793 1.287 . S
C1794 C1795 1.524 . S
C1794 H1813 0.913 . S
C1795 H1771 0.950 . S
C1795 C1794 1.524 . S
C1795 C1796 1.415 . S
C1796 H1772 0.950 . S
C1796 C1791 1.363 . S
C1796 C1795 1.415 . S
C1797 H1773 0.951 1_455 S
C1797 C1798 1.366 1_554 S
C1797 C1799 1.388 . S
C1798 C1797 1.366 1_556 S
C1798 C1802 1.385 . S
C1799 H1774 0.951 . S
C1799 C1797 1.388 . S
C1799 C1800 1.366 1_554 S
C1800 C1799 1.366 1_556 S
C1800 C1801 1.414 . S
C1800 C1803 1.499 . S
C1801 H1775 0.950 . S
C1801 C1800 1.414 . S
C1801 C1802 1.374 . S
C1802 H1776 0.950 . S
C1802 C1798 1.385 . S
C1802 C1801 1.374 . S
C1803 C1800 1.499 . S
C1803 C1804 1.373 . S
C1803 C1805 1.389 1_556 S
C1804 H1777 0.950 . S
C1804 C1790 1.377 1_565 S
C1804 C1803 1.373 . S
C1805 C1789 1.377 1_565 S
C1805 C1803 1.389 1_554 S
C1805 C1806 1.524 . S
C1806 C1805 1.524 . S
C1806 C1807 1.397 . S
C1806 C1811 1.363 . S
C1807 H1778 0.950 1_554 S
C1807 C1806 1.397 . S
C1807 C1808 1.334 . S
C1808 H1779 0.950 . S
C1808 C1807 1.334 . S
C1808 C1809 1.287 . S
C1809 C1808 1.287 . S
C1809 C1810 1.524 . S
C1809 H1812 0.999 . S
C1810 H1780 0.950 . S
C1810 C1809 1.524 . S
C1810 C1811 1.415 . S
C1811 H1781 0.950 . S
C1811 C1806 1.363 . S
C1811 C1810 1.415 . S
H1812 C1809 0.999 . S
H1813 C1794 0.913 . S
H1814 C1832 0.943 1_565 S
H1815 C1834 0.951 . S
H1816 C1836 0.950 . S
H1817 C1837 0.950 . S
H1818 C1839 0.950 . S
H1819 C1842 0.950 . S
H1820 C1843 0.950 . S
H1821 C1845 0.950 . S
H1822 C1846 0.950 . S
H1823 C1847 0.951 . S
H1824 C1849 0.951 . S
H1825 C1851 0.950 . S
H1826 C1852 0.950 . S
H1827 C1854 0.950 . S
H1828 C1857 0.950 1_655 S
H1829 C1858 0.950 . S
H1830 C1860 0.950 . S
H1831 C1861 0.950 . S
C1832 H1814 0.943 1_545 S
C1832 C1833 1.361 . S
C1832 C1834 1.401 . S
C1833 C1832 1.361 . S
C1833 C1837 1.385 . S
C1834 H1815 0.951 . S
C1834 C1832 1.401 . S
C1834 C1835 1.366 . S
C1835 C1834 1.366 . S
C1835 C1836 1.414 . S
C1835 C1838 1.499 . S
C1836 H1816 0.950 . S
C1836 C1835 1.414 . S
C1836 C1837 1.374 . S
C1837 H1817 0.950 . S
C1837 C1833 1.385 . S
C1837 C1836 1.374 . S
C1838 C1835 1.499 . S
C1838 C1839 1.373 . S
C1838 C1840 1.389 . S
C1839 H1818 0.950 . S
C1839 C1838 1.373 . S
C1839 C1855 1.377 . S
C1840 C1838 1.389 . S
C1840 C1841 1.524 . S
C1840 C1854 1.377 . S
C1841 C1840 1.524 . S
C1841 C1842 1.397 . S
C1841 C1846 1.363 . S
C1842 H1819 0.950 . S
C1842 C1841 1.397 . S
C1842 C1843 1.334 . S
C1843 H1820 0.950 . S
C1843 C1842 1.334 . S
C1843 C1844 1.287 . S
C1844 C1843 1.287 . S
C1844 C1845 1.524 . S
C1844 H1863 0.913 . S
C1845 H1821 0.950 . S
C1845 C1844 1.524 . S
C1845 C1846 1.415 . S
C1846 H1822 0.950 . S
C1846 C1841 1.363 . S
C1846 C1845 1.415 . S
C1847 H1823 0.951 . S
C1847 C1848 1.366 . S
C1847 C1849 1.388 . S
C1848 C1847 1.366 . S
C1848 C1852 1.385 1_455 S
C1849 H1824 0.951 . S
C1849 C1847 1.388 . S
C1849 C1850 1.366 . S
C1850 C1849 1.366 . S
C1850 C1851 1.414 . S
C1850 C1853 1.499 . S
C1851 H1825 0.950 . S
C1851 C1850 1.414 . S
C1851 C1852 1.374 1_455 S
C1852 H1826 0.950 . S
C1852 C1848 1.385 1_655 S
C1852 C1851 1.374 1_655 S
C1853 C1850 1.499 . S
C1853 C1854 1.373 . S
C1853 C1855 1.389 . S
C1854 H1827 0.950 . S
C1854 C1840 1.377 . S
C1854 C1853 1.373 . S
C1855 C1839 1.377 . S
C1855 C1853 1.389 . S
C1855 C1856 1.524 . S
C1856 C1855 1.524 . S
C1856 C1857 1.397 . S
C1856 C1861 1.363 . S
C1857 H1828 0.950 1_455 S
C1857 C1856 1.397 . S
C1857 C1858 1.334 1_455 S
C1858 H1829 0.950 . S
C1858 C1857 1.334 1_655 S
C1858 C1859 1.287 1_655 S
C1859 C1858 1.287 1_455 S
C1859 C1860 1.524 . S
C1859 H1862 0.999 1_455 S
C1860 H1830 0.950 . S
C1860 C1859 1.524 . S
C1860 C1861 1.415 . S
C1861 H1831 0.950 . S
C1861 C1856 1.363 . S
C1861 C1860 1.415 . S
H1862 C1859 0.999 1_655 S
H1863 C1844 0.913 . S
H1864 C1882 0.951 . S
H1865 C1884 0.951 . S
H1866 C1886 0.950 . S
H1867 C1887 0.950 . S
H1868 C1889 0.950 . S
H1869 C1892 0.950 . S
H1870 C1893 0.950 . S
H1871 C1895 0.950 . S
H1872 C1896 0.950 . S
H1873 C1897 0.951 . S
H1874 C1899 0.951 . S
H1875 C1901 0.950 . S
H1876 C1902 0.950 . S
H1877 C1904 0.950 . S
H1878 C1907 0.950 . S
H1879 C1908 0.950 . S
H1880 C1910 0.950 . S
H1881 C1911 0.950 . S
C1882 H1864 0.951 . S
C1882 C1883 1.366 . S
C1882 C1884 1.388 . S
C1883 C1882 1.366 . S
C1883 C1887 1.385 . S
C1884 H1865 0.951 . S
C1884 C1882 1.388 . S
C1884 C1885 1.366 . S
C1885 C1884 1.366 . S
C1885 C1886 1.414 . S
C1885 C1888 1.499 . S
C1886 H1866 0.950 . S
C1886 C1885 1.414 . S
C1886 C1887 1.374 . S
C1887 H1867 0.950 . S
C1887 C1883 1.385 . S
C1887 C1886 1.374 . S
C1888 C1885 1.499 . S
C1888 C1889 1.373 . S
C1888 C1890 1.389 . S
C1889 H1868 0.950 . S
C1889 C1888 1.373 . S
C1889 C1905 1.377 1_455 S
C1890 C1888 1.389 . S
C1890 C1891 1.524 . S
C1890 C1904 1.377 1_455 S
C1891 C1890 1.524 . S
C1891 C1892 1.397 . S
C1891 C1896 1.363 . S
C1892 H1869 0.950 . S
C1892 C1891 1.397 . S
C1892 C1893 1.334 . S
C1893 H1870 0.950 . S
C1893 C1892 1.334 . S
C1893 C1894 1.287 . S
C1894 C1893 1.287 . S
C1894 C1895 1.524 . S
C1894 H1913 0.913 . S
C1895 H1871 0.950 . S
C1895 C1894 1.524 . S
C1895 C1896 1.415 . S
C1896 H1872 0.950 . S
C1896 C1891 1.363 . S
C1896 C1895 1.415 . S
C1897 H1873 0.951 . S
C1897 C1898 1.366 1_565 S
C1897 C1899 1.388 1_565 S
C1898 C1897 1.366 1_545 S
C1898 C1902 1.385 . S
C1899 H1874 0.951 . S
C1899 C1897 1.388 1_545 S
C1899 C1900 1.366 . S
C1900 C1899 1.366 . S
C1900 C1901 1.414 . S
C1900 C1903 1.499 . S
C1901 H1875 0.950 . S
C1901 C1900 1.414 . S
C1901 C1902 1.374 . S
C1902 H1876 0.950 . S
C1902 C1898 1.385 . S
C1902 C1901 1.374 . S
C1903 C1900 1.499 . S
C1903 C1904 1.373 . S
C1903 C1905 1.389 . S
C1904 H1877 0.950 . S
C1904 C1890 1.377 1_655 S
C1904 C1903 1.373 . S
C1905 C1889 1.377 1_655 S
C1905 C1903 1.389 . S
C1905 C1906 1.524 . S
C1906 C1905 1.524 . S
C1906 C1907 1.397 . S
C1906 C1911 1.363 . S
C1907 H1878 0.950 . S
C1907 C1906 1.397 . S
C1907 C1908 1.334 . S
C1908 H1879 0.950 . S
C1908 C1907 1.334 . S
C1908 C1909 1.287 . S
C1909 C1908 1.287 . S
C1909 C1910 1.524 . S
C1909 H1912 0.999 . S
C1910 H1880 0.950 . S
C1910 C1909 1.524 . S
C1910 C1911 1.415 . S
C1911 H1881 0.950 . S
C1911 C1906 1.363 . S
C1911 C1910 1.415 . S
H1912 C1909 0.999 . S
H1913 C1894 0.913 . S
H1914 C1932 0.937 1_455 S
H1915 C1934 0.951 . S
H1916 C1936 0.950 . S
H1917 C1937 0.950 . S
H1918 C1939 0.950 . S
H1919 C1942 0.950 . S
H1920 C1943 0.950 . S
H1921 C1945 0.950 . S
H1922 C1946 0.950 1_565 S
H1923 C1947 0.951 . S
H1924 C1949 0.951 . S
H1925 C1951 0.950 . S
H1926 C1952 0.950 . S
H1927 C1954 0.950 . S
H1928 C1957 0.950 . S
H1929 C1958 0.950 . S
H1930 C1960 0.950 . S
H1931 C1961 0.950 1_545 S
C1932 H1914 0.937 1_655 S
C1932 C1933 1.380 . S
C1932 C1934 1.389 . S
C1933 C1932 1.380 . S
C1933 C1937 1.385 . S
C1934 H1915 0.951 . S
C1934 C1932 1.389 . S
C1934 C1935 1.366 . S
C1935 C1934 1.366 . S
C1935 C1936 1.414 . S
C1935 C1938 1.499 . S
C1936 H1916 0.950 . S
C1936 C1935 1.414 . S
C1936 C1937 1.374 . S
C1937 H1917 0.950 . S
C1937 C1933 1.385 . S
C1937 C1936 1.374 . S
C1938 C1935 1.499 . S
C1938 C1939 1.373 . S
C1938 C1940 1.389 . S
C1939 H1918 0.950 . S
C1939 C1938 1.373 . S
C1939 C1955 1.377 1_545 S
C1940 C1938 1.389 . S
C1940 C1941 1.524 . S
C1940 C1954 1.377 1_545 S
C1941 C1940 1.524 . S
C1941 C1942 1.397 . S
C1941 C1946 1.363 . S
C1942 H1919 0.950 . S
C1942 C1941 1.397 . S
C1942 C1943 1.334 . S
C1943 H1920 0.950 . S
C1943 C1942 1.334 . S
C1943 C1944 1.287 . S
C1944 C1943 1.287 . S
C1944 C1945 1.524 . S
C1944 H1963 0.913 . S
C1945 H1921 0.950 . S
C1945 C1944 1.524 . S
C1945 C1946 1.415 . S
C1946 H1922 0.950 1_545 S
C1946 C1941 1.363 . S
C1946 C1945 1.415 . S
C1947 H1923 0.951 . S
C1947 C1948 1.366 . S
C1947 C1949 1.388 . S
C1948 C1947 1.366 . S
C1948 C1952 1.385 . S
C1949 H1924 0.951 . S
C1949 C1947 1.388 . S
C1949 C1950 1.366 . S
C1950 C1949 1.366 . S
C1950 C1951 1.414 . S
C1950 C1953 1.499 . S
C1951 H1925 0.950 . S
C1951 C1950 1.414 . S
C1951 C1952 1.374 . S
C1952 H1926 0.950 . S
C1952 C1948 1.385 . S
C1952 C1951 1.374 . S
C1953 C1950 1.499 . S
C1953 C1954 1.373 . S
C1953 C1955 1.389 . S
C1954 H1927 0.950 . S
C1954 C1940 1.377 1_565 S
C1954 C1953 1.373 . S
C1955 C1939 1.377 1_565 S
C1955 C1953 1.389 . S
C1955 C1956 1.524 . S
C1956 C1955 1.524 . S
C1956 C1957 1.397 . S
C1956 C1961 1.363 . S
C1957 H1928 0.950 . S
C1957 C1956 1.397 . S
C1957 C1958 1.334 . S
C1958 H1929 0.950 . S
C1958 C1957 1.334 . S
C1958 C1959 1.287 . S
C1959 C1958 1.287 . S
C1959 C1960 1.524 . S
C1959 H1962 0.999 . S
C1960 H1930 0.950 . S
C1960 C1959 1.524 . S
C1960 C1961 1.415 . S
C1961 H1931 0.950 1_565 S
C1961 C1956 1.363 . S
C1961 C1960 1.415 . S
H1962 C1959 0.999 . S
H1963 C1944 0.913 . S
H1964 C1982 0.951 . S
H1965 C1984 0.951 1_455 S
H1966 C1986 0.950 . S
H1967 C1987 0.950 . S
H1968 C1989 0.950 . S
H1969 C1992 0.950 . S
H1970 C1993 0.950 . S
H1971 C1995 0.950 . S
H1972 C1996 0.950 1_545 S
H1973 C1997 0.951 . S
H1974 C1999 0.951 . S
H1975 C2001 0.950 1_545 S
H1976 C2002 0.950 . S
H1977 C2004 0.950 . S
H1978 C2007 0.950 . S
H1979 C2008 0.950 . S
H1980 C2010 0.950 . S
H1981 C2011 0.950 . S
C1982 H1964 0.951 . S
C1982 C1983 1.366 1_455 S
C1982 C1984 1.388 1_455 S
C1983 C1982 1.366 1_655 S
C1983 C1987 1.385 . S
C1984 H1965 0.951 1_655 S
C1984 C1982 1.388 1_655 S
C1984 C1985 1.366 . S
C1985 C1984 1.366 . S
C1985 C1986 1.414 . S
C1985 C1988 1.499 . S
C1986 H1966 0.950 . S
C1986 C1985 1.414 . S
C1986 C1987 1.374 . S
C1987 H1967 0.950 . S
C1987 C1983 1.385 . S
C1987 C1986 1.374 . S
C1988 C1985 1.499 . S
C1988 C1989 1.373 . S
C1988 C1990 1.389 . S
C1989 H1968 0.950 . S
C1989 C1988 1.373 . S
C1989 C2005 1.377 . S
C1990 C1988 1.389 . S
C1990 C1991 1.524 . S
C1990 C2004 1.377 . S
C1991 C1990 1.524 . S
C1991 C1992 1.397 . S
C1991 C1996 1.363 1_655 S
C1992 H1969 0.950 . S
C1992 C1991 1.397 . S
C1992 C1993 1.334 1_655 S
C1993 H1970 0.950 . S
C1993 C1992 1.334 1_455 S
C1993 C1994 1.287 . S
C1994 C1993 1.287 . S
C1994 C1995 1.524 1_565 S
C1994 H2013 0.913 . S
C1995 H1971 0.950 . S
C1995 C1994 1.524 1_545 S
C1995 C1996 1.415 1_545 S
C1996 H1972 0.950 1_565 S
C1996 C1991 1.363 1_455 S
C1996 C1995 1.415 1_565 S
C1997 H1973 0.951 . S
C1997 C1998 1.366 . S
C1997 C1999 1.388 . S
C1998 C1997 1.366 . S
C1998 C2002 1.385 1_565 S
C1999 H1974 0.951 . S
C1999 C1997 1.388 . S
C1999 C2000 1.366 . S
C2000 C1999 1.366 . S
C2000 C2001 1.414 . S
C2000 C2003 1.499 . S
C2001 H1975 0.950 1_565 S
C2001 C2000 1.414 . S
C2001 C2002 1.374 1_565 S
C2002 H1976 0.950 . S
C2002 C1998 1.385 1_545 S
C2002 C2001 1.374 1_545 S
C2003 C2000 1.499 . S
C2003 C2004 1.373 . S
C2003 C2005 1.389 . S
C2004 H1977 0.950 . S
C2004 C1990 1.377 . S
C2004 C2003 1.373 . S
C2005 C1989 1.377 . S
C2005 C2003 1.389 . S
C2005 C2006 1.524 . S
C2006 C2005 1.524 . S
C2006 C2007 1.397 . S
C2006 C2011 1.363 . S
C2007 H1978 0.950 . S
C2007 C2006 1.397 . S
C2007 C2008 1.334 . S
C2008 H1979 0.950 . S
C2008 C2007 1.334 . S
C2008 C2009 1.287 . S
C2009 C2008 1.287 . S
C2009 C2010 1.524 . S
C2009 H2012 0.999 . S
C2010 H1980 0.950 . S
C2010 C2009 1.524 . S
C2010 C2011 1.415 . S
C2011 H1981 0.950 . S
C2011 C2006 1.363 . S
C2011 C2010 1.415 . S
H2012 C2009 0.999 . S
H2013 C1994 0.913 . S
H2014 C2032 0.951 . S
H2015 C2034 0.951 1_545 S
H2016 C2036 0.950 . S
H2017 C2037 0.950 . S
H2018 C2039 0.950 . S
H2019 C2042 0.950 . S
H2020 C2043 0.950 . S
H2021 C2045 0.950 . S
H2022 C2046 0.950 . S
H2023 C2047 0.951 . S
H2024 C2049 0.951 . S
H2025 C2051 0.950 . S
H2026 C2052 0.950 . S
H2027 C2054 0.950 . S
H2028 C2057 0.950 . S
H2029 C2058 0.950 . S
H2030 C2060 0.950 . S
H2031 C2061 0.950 . S
C2032 H2014 0.951 . S
C2032 C2033 1.366 1_545 S
C2032 C2034 1.388 1_545 S
C2033 C2032 1.366 1_565 S
C2033 C2037 1.385 . S
C2034 H2015 0.951 1_565 S
C2034 C2032 1.388 1_565 S
C2034 C2035 1.366 . S
C2035 C2034 1.366 . S
C2035 C2036 1.414 . S
C2035 C2038 1.499 . S
C2036 H2016 0.950 . S
C2036 C2035 1.414 . S
C2036 C2037 1.374 . S
C2037 H2017 0.950 . S
C2037 C2033 1.385 . S
C2037 C2036 1.374 . S
C2038 C2035 1.499 . S
C2038 C2039 1.373 . S
C2038 C2040 1.389 . S
C2039 H2018 0.950 . S
C2039 C2038 1.373 . S
C2039 C2055 1.377 1_455 S
C2040 C2038 1.389 . S
C2040 C2041 1.524 . S
C2040 C2054 1.377 1_455 S
C2041 C2040 1.524 . S
C2041 C2042 1.397 . S
C2041 C2046 1.363 1_565 S
C2042 H2019 0.950 . S
C2042 C2041 1.397 . S
C2042 C2043 1.334 . S
C2043 H2020 0.950 . S
C2043 C2042 1.334 . S
C2043 C2044 1.287 1_565 S
C2044 C2043 1.287 1_545 S
C2044 C2045 1.524 . S
C2044 H2063 0.913 . S
C2045 H2021 0.950 . S
C2045 C2044 1.524 . S
C2045 C2046 1.415 . S
C2046 H2022 0.950 . S
C2046 C2041 1.363 1_545 S
C2046 C2045 1.415 . S
C2047 H2023 0.951 . S
C2047 C2048 1.366 . S
C2047 C2049 1.388 . S
C2048 C2047 1.366 . S
C2048 C2052 1.385 . S
C2049 H2024 0.951 . S
C2049 C2047 1.388 . S
C2049 C2050 1.366 . S
C2050 C2049 1.366 . S
C2050 C2051 1.414 . S
C2050 C2053 1.499 . S
C2051 H2025 0.950 . S
C2051 C2050 1.414 . S
C2051 C2052 1.374 . S
C2052 H2026 0.950 . S
C2052 C2048 1.385 . S
C2052 C2051 1.374 . S
C2053 C2050 1.499 . S
C2053 C2054 1.373 . S
C2053 C2055 1.389 . S
C2054 H2027 0.950 . S
C2054 C2040 1.377 1_655 S
C2054 C2053 1.373 . S
C2055 C2039 1.377 1_655 S
C2055 C2053 1.389 . S
C2055 C2056 1.524 . S
C2056 C2055 1.524 . S
C2056 C2057 1.397 . S
C2056 C2061 1.363 . S
C2057 H2028 0.950 . S
C2057 C2056 1.397 . S
C2057 C2058 1.334 . S
C2058 H2029 0.950 . S
C2058 C2057 1.334 . S
C2058 C2059 1.287 . S
C2059 C2058 1.287 . S
C2059 C2060 1.524 . S
C2059 H2062 0.999 . S
C2060 H2030 0.950 . S
C2060 C2059 1.524 . S
C2060 C2061 1.415 . S
C2061 H2031 0.950 . S
C2061 C2056 1.363 . S
C2061 C2060 1.415 . S
H2062 C2059 0.999 . S
H2063 C2044 0.913 . S
C283 C164 1.835 . S
C298 C10 1.878 . S
C333 C186 1.835 . S
C348 C30 1.880 1_455 S
C383 C216 1.835 . S
C398 C54 1.876 . S
C433 C238 1.835 . S
C448 C74 1.878 . S
C483 C252 1.835 . S
C498 C96 1.877 . S
C533 C142 1.835 . S
C548 C120 1.876 . S
C583 C150 1.879 . S
C598 C118 1.836 . S
C633 C172 1.866 1_455 S
C648 C8 1.835 . S
C683 C194 1.878 1_545 S
C698 C40 1.835 . S
C733 C206 1.878 . S
C748 C52 1.835 . S
C783 C228 1.890 . S
C798 C84 1.834 . S
C833 C260 1.878 1_565 S
C848 C106 1.835 . S
C883 C18 1.361 . S
C898 C131 1.370 . S
C933 C32 1.362 . S
C948 C21 1.370 . S
C983 C29 1.370 . S
C998 C62 1.362 . S
C1033 C65 1.370 . S
C1048 C76 1.362 . S
C1083 C73 1.370 . S
C1098 C98 1.362 . S
C1133 C128 1.362 . S
C1148 C95 1.369 . S
C1183 C140 1.361 . S
C1198 C169 1.370 . S
C1233 C162 1.362 . S
C1248 C191 1.370 . S
C1283 C184 1.362 . S
C1298 C205 1.370 . S
C1333 C208 1.362 . S
C1348 C227 1.370 . S
C1383 C230 1.362 . S
C1398 C257 1.370 . S
C1433 C147 1.370 . S
C1448 C250 1.362 . S
C1483 C183 0.954 . S
C1498 C15 0.954 . S
C1533 C43 0.954 . S
C1548 C219 0.953 . S
C1583 C59 0.954 . S
C1598 C241 0.955 . S
C1633 C87 0.954 . S
C1648 C249 0.954 . S
C1683 C109 0.954 . S
C1698 C139 0.954 . S
C1733 C161 0.954 . S
C1748 C125 0.954 . S
C1783 C7 0.242 . S
C1798 C175 0.243 . S
C1833 C197 0.240 . S
C1848 C37 0.239 . S
C1883 C213 0.243 . S
C1898 C51 0.243 . S
C1933 C235 0.240 . S
C1948 C81 0.239 . S
C1983 C103 0.239 . S
C1998 C263 0.240 . S
C2033 C117 0.239 . S
C2048 C153 0.240 . S
