# Generated by pormake.
# Topology svo, (7)-cn, num edge types: 1
# Building blocks:
#     Node 0, Type 0, BuildingBlock: NUHQUE_clean_sbu_2, # of connection points: 7
#     Node 1, Type 0, BuildingBlock: NUHQUE_clean_sbu_2, # of connection points: 7
#     Node 2, Type 0, BuildingBlock: NUHQUE_clean_sbu_2, # of connection points: 7
#     Node 3, Type 0, BuildingBlock: NUHQUE_clean_sbu_2, # of connection points: 7
#     Node 4, Type 0, BuildingBlock: NUHQUE_clean_sbu_2, # of connection points: 7
#     Node 5, Type 0, BuildingBlock: NUHQUE_clean_sbu_2, # of connection points: 7
#     Node 6, Type 0, BuildingBlock: NUHQUE_clean_sbu_2, # of connection points: 7
#     Node 7, Type 0, BuildingBlock: NUHQUE_clean_sbu_2, # of connection points: 7
#     Node 8, Type 0, BuildingBlock: NUHQUE_clean_sbu_2, # of connection points: 7
#     Node 9, Type 0, BuildingBlock: NUHQUE_clean_sbu_2, # of connection points: 7
#     Node 10, Type 0, BuildingBlock: NUHQUE_clean_sbu_2, # of connection points: 7
#     Node 11, Type 0, BuildingBlock: NUHQUE_clean_sbu_2, # of connection points: 7
#     Node 12, Type 0, BuildingBlock: NUHQUE_clean_sbu_2, # of connection points: 7
#     Node 13, Type 0, BuildingBlock: NUHQUE_clean_sbu_2, # of connection points: 7
#     Node 14, Type 0, BuildingBlock: NUHQUE_clean_sbu_2, # of connection points: 7
#     Node 15, Type 0, BuildingBlock: NUHQUE_clean_sbu_2, # of connection points: 7
#     Edge 16, Type (0, 0), BuildingBlock: TEMPAE_clean_linker_10, # of connection points: 2
#     Edge 17, Type (0, 0), BuildingBlock: TEMPAE_clean_linker_10, # of connection points: 2
#     Edge 18, Type (0, 0), BuildingBlock: TEMPAE_clean_linker_10, # of connection points: 2
#     Edge 19, Type (0, 0), BuildingBlock: TEMPAE_clean_linker_10, # of connection points: 2
#     Edge 20, Type (0, 0), BuildingBlock: TEMPAE_clean_linker_10, # of connection points: 2
#     Edge 21, Type (0, 0), BuildingBlock: TEMPAE_clean_linker_10, # of connection points: 2
#     Edge 22, Type (0, 0), BuildingBlock: TEMPAE_clean_linker_10, # of connection points: 2
#     Edge 23, Type (0, 0), BuildingBlock: TEMPAE_clean_linker_10, # of connection points: 2
#     Edge 24, Type (0, 0), BuildingBlock: TEMPAE_clean_linker_10, # of connection points: 2
#     Edge 25, Type (0, 0), BuildingBlock: TEMPAE_clean_linker_10, # of connection points: 2
#     Edge 26, Type (0, 0), BuildingBlock: TEMPAE_clean_linker_10, # of connection points: 2
#     Edge 27, Type (0, 0), BuildingBlock: TEMPAE_clean_linker_10, # of connection points: 2
#     Edge 28, Type (0, 0), BuildingBlock: TEMPAE_clean_linker_10, # of connection points: 2
#     Edge 29, Type (0, 0), BuildingBlock: TEMPAE_clean_linker_10, # of connection points: 2
#     Edge 30, Type (0, 0), BuildingBlock: TEMPAE_clean_linker_10, # of connection points: 2
#     Edge 31, Type (0, 0), BuildingBlock: TEMPAE_clean_linker_10, # of connection points: 2
#     Edge 32, Type (0, 0), BuildingBlock: TEMPAE_clean_linker_10, # of connection points: 2
#     Edge 33, Type (0, 0), BuildingBlock: TEMPAE_clean_linker_10, # of connection points: 2
#     Edge 34, Type (0, 0), BuildingBlock: TEMPAE_clean_linker_10, # of connection points: 2
#     Edge 35, Type (0, 0), BuildingBlock: TEMPAE_clean_linker_10, # of connection points: 2
#     Edge 36, Type (0, 0), BuildingBlock: TEMPAE_clean_linker_10, # of connection points: 2
#     Edge 37, Type (0, 0), BuildingBlock: TEMPAE_clean_linker_10, # of connection points: 2
#     Edge 38, Type (0, 0), BuildingBlock: TEMPAE_clean_linker_10, # of connection points: 2
#     Edge 39, Type (0, 0), BuildingBlock: TEMPAE_clean_linker_10, # of connection points: 2
#     Edge 40, Type (0, 0), BuildingBlock: TEMPAE_clean_linker_10, # of connection points: 2
#     Edge 41, Type (0, 0), BuildingBlock: TEMPAE_clean_linker_10, # of connection points: 2
#     Edge 42, Type (0, 0), BuildingBlock: TEMPAE_clean_linker_10, # of connection points: 2
#     Edge 43, Type (0, 0), BuildingBlock: TEMPAE_clean_linker_10, # of connection points: 2
#     Edge 44, Type (0, 0), BuildingBlock: TEMPAE_clean_linker_10, # of connection points: 2
#     Edge 45, Type (0, 0), BuildingBlock: TEMPAE_clean_linker_10, # of connection points: 2
#     Edge 46, Type (0, 0), BuildingBlock: TEMPAE_clean_linker_10, # of connection points: 2
#     Edge 47, Type (0, 0), BuildingBlock: TEMPAE_clean_linker_10, # of connection points: 2
#     Edge 48, Type (0, 0), BuildingBlock: TEMPAE_clean_linker_10, # of connection points: 2
#     Edge 49, Type (0, 0), BuildingBlock: TEMPAE_clean_linker_10, # of connection points: 2
#     Edge 50, Type (0, 0), BuildingBlock: TEMPAE_clean_linker_10, # of connection points: 2
#     Edge 51, Type (0, 0), BuildingBlock: TEMPAE_clean_linker_10, # of connection points: 2
#     Edge 52, Type (0, 0), BuildingBlock: TEMPAE_clean_linker_10, # of connection points: 2
#     Edge 53, Type (0, 0), BuildingBlock: TEMPAE_clean_linker_10, # of connection points: 2
#     Edge 54, Type (0, 0), BuildingBlock: TEMPAE_clean_linker_10, # of connection points: 2
#     Edge 55, Type (0, 0), BuildingBlock: TEMPAE_clean_linker_10, # of connection points: 2
#     Edge 56, Type (0, 0), BuildingBlock: TEMPAE_clean_linker_10, # of connection points: 2
#     Edge 57, Type (0, 0), BuildingBlock: TEMPAE_clean_linker_10, # of connection points: 2
#     Edge 58, Type (0, 0), BuildingBlock: TEMPAE_clean_linker_10, # of connection points: 2
#     Edge 59, Type (0, 0), BuildingBlock: TEMPAE_clean_linker_10, # of connection points: 2
#     Edge 60, Type (0, 0), BuildingBlock: TEMPAE_clean_linker_10, # of connection points: 2
#     Edge 61, Type (0, 0), BuildingBlock: TEMPAE_clean_linker_10, # of connection points: 2
#     Edge 62, Type (0, 0), BuildingBlock: TEMPAE_clean_linker_10, # of connection points: 2
#     Edge 63, Type (0, 0), BuildingBlock: TEMPAE_clean_linker_10, # of connection points: 2
#     Edge 64, Type (0, 0), BuildingBlock: TEMPAE_clean_linker_10, # of connection points: 2
#     Edge 65, Type (0, 0), BuildingBlock: TEMPAE_clean_linker_10, # of connection points: 2
#     Edge 66, Type (0, 0), BuildingBlock: TEMPAE_clean_linker_10, # of connection points: 2
#     Edge 67, Type (0, 0), BuildingBlock: TEMPAE_clean_linker_10, # of connection points: 2
#     Edge 68, Type (0, 0), BuildingBlock: TEMPAE_clean_linker_10, # of connection points: 2
#     Edge 69, Type (0, 0), BuildingBlock: TEMPAE_clean_linker_10, # of connection points: 2
#     Edge 70, Type (0, 0), BuildingBlock: TEMPAE_clean_linker_10, # of connection points: 2
#     Edge 71, Type (0, 0), BuildingBlock: TEMPAE_clean_linker_10, # of connection points: 2
# Relax obj value: 0.166
# Max RMSD: 0.275
# Mean RMSD: 0.275
data_MOF--net-svo--node1-NUHQUE_clean_sbu_2--edge1-TEMPAE_clean_linker_10
_symmetry_space_group_name_H-M    P1
_symmetry_Int_Tables_number       1
_symmetry_cell_setting            triclinic
loop_
_symmetry_equiv_pos_as_xyz
'x, y, z'
_cell_length_a     38.74292
_cell_length_b     38.584127
_cell_length_c     55.457747
_cell_angle_alpha  89.999852
_cell_angle_beta   90.007321
_cell_angle_gamma 90.027319
loop_
_atom_site_label
_atom_site_type_symbol
_atom_site_fract_x
_atom_site_fract_y
_atom_site_fract_z
_atom_type_partial_charge
O0 O 0.24535 0.21165 0.14796 0.0
Tb1 Tb 0.25142 0.26535 0.13689 0.0
Eu2 Eu 0.1908 0.36849 0.12326 0.0
C3 C 0.22218 0.19047 0.13881 0.0
O4 O 0.19872 0.20261 0.12394 0.0
C5 C 0.21822 0.32597 0.1655 0.0
O6 O 0.19839 0.42666 0.12073 0.0
C7 C 0.12823 0.34811 0.11434 0.0
C8 C 0.22494 0.44035 0.10932 0.0
O9 O 0.24647 0.41973 0.09797 0.0
C10 C 0.22155 0.3042 0.0937 0.0
C11 C 0.09251 0.36038 0.11166 0.0
C12 C 0.06528 0.33761 0.11728 0.0
C13 C 0.03092 0.34799 0.114 0.0
C14 C 0.02409 0.38143 0.1054 0.0
C15 C 0.05084 0.40452 0.09989 0.0
C16 C 0.08522 0.39398 0.10321 0.0
O17 O 0.21447 0.30427 0.14763 0.0
O18 O 0.20676 0.35751 0.16182 0.0
O19 O 0.29753 0.28378 0.1558 0.0
O20 O 0.30016 0.27228 0.11821 0.0
C21 C 0.31759 0.28261 0.13693 0.0
O22 O 0.23009 0.33155 0.10682 0.0
O23 O 0.23116 0.27306 0.10099 0.0
O24 O 0.14137 0.34907 0.13617 0.0
O25 O 0.15031 0.35699 0.09738 0.0
H26 H 0.07084 0.31175 0.12387 0.0
H27 H 0.99752 0.38999 0.10374 0.0
H28 H 0.10613 0.41167 0.09904 0.0
O29 O 0.77341 0.27058 0.13822 0.0
Tb30 Tb 0.72397 0.28153 0.12139 0.0
Eu31 Eu 0.63647 0.2021 0.11122 0.0
C32 C 0.79139 0.29663 0.14692 0.0
O33 O 0.77688 0.32736 0.14766 0.0
C34 C 0.67395 0.23578 0.15281 0.0
O35 O 0.58064 0.21441 0.11756 0.0
C36 C 0.64778 0.14062 0.09429 0.0
C37 C 0.57188 0.24593 0.12409 0.0
O38 O 0.59606 0.26962 0.12628 0.0
C39 C 0.69591 0.23502 0.08064 0.0
C40 C 0.64095 0.10347 0.09784 0.0
C41 C 0.66939 0.08108 0.09946 0.0
C42 C 0.66455 0.04533 0.10185 0.0
C43 C 0.63088 0.03207 0.10279 0.0
C44 C 0.60208 0.05385 0.10068 0.0
C45 C 0.60723 0.0898 0.09843 0.0
O46 O 0.67787 0.25555 0.13381 0.0
O47 O 0.6532 0.20924 0.14991 0.0
O48 O 0.70914 0.3347 0.13041 0.0
O49 O 0.72949 0.32355 0.09556 0.0
C50 C 0.71799 0.34787 0.10966 0.0
O51 O 0.66585 0.24262 0.09033 0.0
O52 O 0.72406 0.25022 0.08886 0.0
O53 O 0.66792 0.15563 0.11026 0.0
O54 O 0.62236 0.16045 0.08672 0.0
H55 H 0.69535 0.0915 0.0984 0.0
H56 H 0.62704 0.00452 0.10556 0.0
H57 H 0.58518 0.10688 0.09672 0.0
O58 O 0.75454 0.81419 0.13265 0.0
Tb59 Tb 0.74296 0.76205 0.12127 0.0
Eu60 Eu 0.81154 0.6669 0.10256 0.0
C61 C 0.78114 0.83138 0.12413 0.0
O62 O 0.80252 0.81587 0.10925 0.0
C63 C 0.78359 0.70225 0.1472 0.0
O64 O 0.80516 0.61006 0.09575 0.0
C65 C 0.87102 0.6938 0.09188 0.0
C66 C 0.77443 0.59948 0.08894 0.0
O67 O 0.75031 0.62278 0.08515 0.0
C68 C 0.76847 0.72609 0.07615 0.0
C69 C 0.90723 0.68498 0.08734 0.0
C70 C 0.93178 0.71172 0.08727 0.0
C71 C 0.96692 0.70422 0.08424 0.0
C72 C 0.9771 0.6696 0.08114 0.0
C73 C 0.95287 0.64258 0.08103 0.0
C74 C 0.91773 0.65043 0.08422 0.0
O75 O 0.7833 0.72528 0.12992 0.0
O76 O 0.79861 0.67272 0.14206 0.0
O77 O 0.7002 0.7432 0.14369 0.0
O78 O 0.69059 0.75823 0.10734 0.0
C79 C 0.67656 0.74681 0.12711 0.0
O80 O 0.76613 0.6998 0.09109 0.0
O81 O 0.75659 0.75634 0.08341 0.0
O82 O 0.86012 0.68957 0.11412 0.0
O83 O 0.84843 0.68418 0.07552 0.0
H84 H 0.92351 0.7383 0.0899 0.0
H85 H 0.00434 0.66338 0.08009 0.0
H86 H 0.89869 0.62985 0.08451 0.0
O87 O 0.20939 0.77782 0.13591 0.0
Tb88 Tb 0.26393 0.76694 0.1324 0.0
Eu89 Eu 0.34591 0.79663 0.1434 0.0
C90 C 0.19321 0.80025 0.12211 0.0
O91 O 0.21106 0.82019 0.10752 0.0
C92 C 0.29824 0.76204 0.18144 0.0
O93 O 0.40377 0.79077 0.14251 0.0
C94 C 0.32934 0.86001 0.15447 0.0
C95 C 0.41796 0.75982 0.1433 0.0
O96 O 0.39784 0.73243 0.14425 0.0
C97 C 0.31091 0.79777 0.09227 0.0
C98 C 0.3343 0.8951 0.1442 0.0
C99 C 0.30679 0.91907 0.14414 0.0
C100 C 0.31168 0.95277 0.13501 0.0
C101 C 0.34442 0.96237 0.12655 0.0
C102 C 0.37209 0.93908 0.12658 0.0
C103 C 0.36679 0.90528 0.13521 0.0
O104 O 0.27275 0.7775 0.17027 0.0
O105 O 0.32789 0.75729 0.17056 0.0
O106 O 0.28985 0.71606 0.13301 0.0
O107 O 0.24107 0.72095 0.11596 0.0
C108 C 0.26546 0.69936 0.12162 0.0
O109 O 0.33926 0.78826 0.1035 0.0
O110 O 0.28157 0.80116 0.10393 0.0
O111 O 0.35714 0.84433 0.16258 0.0
O112 O 0.30842 0.83908 0.14282 0.0
H113 H 0.28179 0.91155 0.1512 0.0
H114 H 0.3488 0.98892 0.12088 0.0
H115 H 0.38809 0.88708 0.13516 0.0
O116 O 0.25645 0.78172 0.35937 0.0
Tb117 Tb 0.26942 0.72969 0.37164 0.0
Eu118 Eu 0.20248 0.63102 0.38632 0.0
C119 C 0.23867 0.80355 0.37275 0.0
O120 O 0.22372 0.79223 0.39249 0.0
C121 C 0.22915 0.66885 0.34272 0.0
O122 O 0.21166 0.57305 0.38535 0.0
C123 C 0.14092 0.64813 0.40041 0.0
C124 C 0.23867 0.55918 0.39609 0.0
O125 O 0.26 0.57956 0.40786 0.0
C126 C 0.23664 0.69319 0.4159 0.0
C127 C 0.10433 0.63932 0.39687 0.0
C128 C 0.07995 0.66634 0.39669 0.0
C129 C 0.04487 0.65902 0.39335 0.0
C130 C 0.03444 0.62473 0.38964 0.0
C131 C 0.05836 0.59761 0.38923 0.0
C132 C 0.09346 0.60486 0.39319 0.0
O133 O 0.23793 0.68539 0.36232 0.0
O134 O 0.21019 0.64123 0.34637 0.0
O135 O 0.31665 0.71803 0.35191 0.0
O136 O 0.3196 0.72909 0.3895 0.0
C137 C 0.33732 0.72153 0.37025 0.0
O138 O 0.24384 0.66432 0.40408 0.0
O139 O 0.24873 0.72323 0.40791 0.0
O140 O 0.15651 0.66268 0.38199 0.0
O141 O 0.16034 0.62566 0.412 0.0
H142 H 0.08824 0.69293 0.39928 0.0
H143 H 0.00731 0.61911 0.3867 0.0
H144 H 0.11218 0.58399 0.39288 0.0
O145 O 0.20584 0.23298 0.36455 0.0
Tb146 Tb 0.26126 0.23351 0.37179 0.0
Eu147 Eu 0.3506 0.19951 0.36168 0.0
C148 C 0.18382 0.2106 0.37381 0.0
O149 O 0.1954 0.18471 0.3869 0.0
C150 C 0.30019 0.23561 0.32416 0.0
O151 O 0.4074 0.21203 0.3675 0.0
C152 C 0.34321 0.13508 0.34834 0.0
C153 C 0.42586 0.22608 0.35005 0.0
O154 O 0.41063 0.23276 0.32939 0.0
C155 C 0.30609 0.19668 0.41032 0.0
C156 C 0.35099 0.09871 0.3556 0.0
C157 C 0.32371 0.07518 0.36019 0.0
C158 C 0.33075 0.0401 0.36525 0.0
C159 C 0.365 0.02858 0.36497 0.0
C160 C 0.39228 0.05102 0.35976 0.0
C161 C 0.38533 0.08626 0.35559 0.0
O162 O 0.27508 0.21946 0.33538 0.0
O163 O 0.33127 0.23738 0.33366 0.0
O164 O 0.24867 0.27897 0.39353 0.0
O165 O 0.2903 0.28238 0.36881 0.0
C166 C 0.2719 0.29952 0.3845 0.0
O167 O 0.33578 0.20647 0.40082 0.0
O168 O 0.27768 0.19438 0.39737 0.0
O169 O 0.36934 0.15476 0.34193 0.0
O170 O 0.31939 0.1521 0.36039 0.0
H171 H 0.29717 0.08402 0.3596 0.0
H172 H 0.37049 1.00138 0.36817 0.0
H173 H 0.40657 0.10348 0.35133 0.0
O174 O 0.76696 0.20713 0.37168 0.0
Tb175 Tb 0.75446 0.2611 0.36457 0.0
Eu176 Eu 0.79148 0.34665 0.35708 0.0
C177 C 0.78406 0.18749 0.3564 0.0
O178 O 0.7982 0.20164 0.33726 0.0
C179 C 0.76412 0.29779 0.31714 0.0
O180 O 0.78759 0.40557 0.35836 0.0
C181 C 0.85517 0.32579 0.35145 0.0
C182 C 0.76158 0.42094 0.36944 0.0
O183 O 0.73815 0.40154 0.37998 0.0
C184 C 0.77514 0.31013 0.40795 0.0
C185 C 0.89094 0.32981 0.36081 0.0
C186 C 0.91246 0.30036 0.36345 0.0
C187 C 0.94717 0.30424 0.37067 0.0
C188 C 0.96023 0.33754 0.37458 0.0
C189 C 0.93994 0.36701 0.37098 0.0
C190 C 0.905 0.36309 0.36477 0.0
O191 O 0.77797 0.27315 0.33017 0.0
O192 O 0.75724 0.32789 0.32702 0.0
O193 O 0.70586 0.23395 0.35848 0.0
O194 O 0.70383 0.28732 0.36744 0.0
C195 C 0.68531 0.25992 0.36232 0.0
O196 O 0.77253 0.33874 0.39507 0.0
O197 O 0.7769 0.27895 0.39826 0.0
O198 O 0.84166 0.35248 0.34015 0.0
O199 O 0.83262 0.30907 0.36481 0.0
H200 H 0.90243 0.27471 0.35963 0.0
H201 H 0.98715 0.34061 0.3796 0.0
H202 H 0.88931 0.38597 0.3619 0.0
O203 O 0.79881 0.76257 0.3665 0.0
Tb204 Tb 0.7439 0.75224 0.36684 0.0
Eu205 Eu 0.66378 0.79188 0.35332 0.0
C206 C 0.81857 0.74541 0.35144 0.0
O207 O 0.80401 0.72409 0.33601 0.0
C208 C 0.71362 0.75695 0.31633 0.0
O209 O 0.60657 0.78336 0.35498 0.0
C210 C 0.67686 0.85589 0.34174 0.0
C211 C 0.59461 0.75186 0.35831 0.0
O212 O 0.6166 0.72612 0.36048 0.0
C213 C 0.69648 0.78761 0.40575 0.0
C214 C 0.66935 0.89239 0.34836 0.0
C215 C 0.69648 0.91686 0.3484 0.0
C216 C 0.68929 0.9524 0.35087 0.0
C217 C 0.65509 0.96318 0.35393 0.0
C218 C 0.62779 0.93953 0.35356 0.0
C219 C 0.63497 0.90399 0.35127 0.0
O220 O 0.73916 0.76825 0.32968 0.0
O221 O 0.68254 0.75403 0.32545 0.0
O222 O 0.7633 0.70306 0.38102 0.0
O223 O 0.71577 0.70294 0.36207 0.0
C224 C 0.73853 0.68349 0.37299 0.0
O225 O 0.66814 0.78247 0.39323 0.0
O226 O 0.72729 0.78585 0.39591 0.0
O227 O 0.65118 0.83776 0.33272 0.0
O228 O 0.69729 0.83763 0.35585 0.0
H229 H 0.72281 0.90849 0.34528 0.0
H230 H 0.64954 0.99061 0.35589 0.0
H231 H 0.61373 0.88573 0.35045 0.0
O232 O 0.70683 0.71825 0.86745 0.0
Tb233 Tb 0.76089 0.73158 0.8629 0.0
Eu234 Eu 0.84643 0.70495 0.84876 0.0
C235 C 0.68377 0.72529 0.85077 0.0
O236 O 0.69418 0.73628 0.82959 0.0
C237 C 0.79128 0.73618 0.81204 0.0
O238 O 0.90113 0.7245 0.84866 0.0
C239 C 0.84317 0.63961 0.83714 0.0
C240 C 0.92693 0.70574 0.85676 0.0
O241 O 0.92078 0.6746 0.86535 0.0
C242 C 0.81222 0.70399 0.90012 0.0
C243 C 0.8541 0.60435 0.84497 0.0
C244 C 0.82922 0.58043 0.85339 0.0
C245 C 0.83878 0.54625 0.85916 0.0
C246 C 0.87308 0.5359 0.85586 0.0
C247 C 0.89795 0.55864 0.8467 0.0
C248 C 0.88858 0.5931 0.84173 0.0
O249 O 0.76597 0.72241 0.82458 0.0
O250 O 0.82211 0.74052 0.82145 0.0
O251 O 0.73824 0.77784 0.87909 0.0
O252 O 0.78825 0.78179 0.86388 0.0
C253 C 0.76361 0.79886 0.87469 0.0
O254 O 0.84001 0.71408 0.88856 0.0
O255 O 0.7841 0.69595 0.88823 0.0
O256 O 0.86732 0.6608 0.82941 0.0
O257 O 0.81882 0.65543 0.84952 0.0
H258 H 0.80246 0.58821 0.85519 0.0
H259 H 0.88033 0.50933 0.85977 0.0
H260 H 0.90782 0.61058 0.83443 0.0
O261 O 0.24341 0.70887 0.87264 0.0
Tb262 Tb 0.23841 0.76456 0.87633 0.0
Eu263 Eu 0.30765 0.86396 0.88727 0.0
C264 C 0.27069 0.69235 0.8645 0.0
O265 O 0.29867 0.70972 0.85871 0.0
C266 C 0.28137 0.81822 0.84587 0.0
O267 O 0.30104 0.92204 0.88394 0.0
C268 C 0.3675 0.84249 0.90202 0.0
C269 C 0.30078 0.94329 0.90251 0.0
O270 O 0.30639 0.93091 0.92422 0.0
C271 C 0.26692 0.80676 0.91815 0.0
C272 C 0.40408 0.85201 0.90508 0.0
C273 C 0.42966 0.8288 0.89708 0.0
C274 C 0.46483 0.83653 0.90017 0.0
C275 C 0.47396 0.86721 0.91217 0.0
C276 C 0.44887 0.891 0.91967 0.0
C277 C 0.41384 0.88342 0.916 0.0
O278 O 0.28 0.79841 0.86499 0.0
O279 O 0.29661 0.84837 0.84866 0.0
O280 O 0.19658 0.77645 0.85117 0.0
O281 O 0.18697 0.77807 0.88894 0.0
C282 C 0.17311 0.78129 0.86767 0.0
O283 O 0.26352 0.83205 0.90232 0.0
O284 O 0.25319 0.77631 0.91313 0.0
O285 O 0.35646 0.83819 0.87981 0.0
O286 O 0.34475 0.8574 0.91628 0.0
H287 H 0.42209 0.8051 0.88801 0.0
H288 H 0.50098 0.87336 0.91492 0.0
H289 H 0.39438 0.90194 0.92158 0.0
O290 O 0.30822 0.28381 0.87869 0.0
Tb291 Tb 0.25493 0.2686 0.87263 0.0
Eu292 Eu 0.16826 0.2988 0.86834 0.0
C293 C 0.33085 0.28423 0.861 0.0
O294 O 0.31987 0.28067 0.83873 0.0
C295 C 0.21529 0.2746 0.82441 0.0
O296 O 0.11224 0.28638 0.8619 0.0
C297 C 0.1774 0.36557 0.86787 0.0
C298 C 0.10229 0.25414 0.85853 0.0
O299 O 0.12562 0.22943 0.85865 0.0
C300 C 0.20886 0.28818 0.91619 0.0
C301 C 0.17106 0.39847 0.85478 0.0
C302 C 0.19891 0.42124 0.85086 0.0
C303 C 0.19323 0.4547 0.84167 0.0
C304 C 0.15941 0.4652 0.83635 0.0
C305 C 0.13116 0.44334 0.84059 0.0
C306 C 0.1372 0.40973 0.84953 0.0
O307 O 0.24214 0.28625 0.83649 0.0
O308 O 0.18498 0.27095 0.83474 0.0
O309 O 0.28319 0.21997 0.87044 0.0
O310 O 0.23017 0.21813 0.88 0.0
C311 C 0.25793 0.19959 0.87636 0.0
O312 O 0.18204 0.27639 0.90432 0.0
O313 O 0.23798 0.2952 0.90505 0.0
O314 O 0.20052 0.34376 0.85936 0.0
O315 O 0.15057 0.35021 0.87766 0.0
H316 H 0.22481 0.41347 0.85592 0.0
H317 H 0.15479 0.49172 0.83075 0.0
H318 H 0.11543 0.39291 0.85322 0.0
O319 O 0.77345 0.28662 0.86452 0.0
Tb320 Tb 0.78114 0.232 0.8726 0.0
Eu321 Eu 0.70886 0.13382 0.88449 0.0
C322 C 0.75513 0.30754 0.8782 0.0
O323 O 0.73806 0.2948 0.89665 0.0
C324 C 0.73733 0.1776 0.84299 0.0
O325 O 0.71154 0.0751 0.8841 0.0
C326 C 0.64995 0.15978 0.8979 0.0
C327 C 0.73564 0.05841 0.8962 0.0
O328 O 0.75709 0.0763 0.9097 0.0
C329 C 0.75152 0.19013 0.91497 0.0
C330 C 0.61318 0.1518 0.90196 0.0
C331 C 0.58799 0.1761 0.89486 0.0
C332 C 0.55273 0.16935 0.89866 0.0
C333 C 0.54319 0.13868 0.91049 0.0
C334 C 0.56784 0.11402 0.91727 0.0
C335 C 0.60291 0.12053 0.91283 0.0
O336 O 0.74053 0.19634 0.86246 0.0
O337 O 0.72109 0.14797 0.8457 0.0
O338 O 0.82372 0.21474 0.84952 0.0
O339 O 0.83276 0.2244 0.88688 0.0
C340 C 0.847 0.21537 0.86657 0.0
O341 O 0.75441 0.16394 0.89976 0.0
O342 O 0.76534 0.22044 0.90931 0.0
O343 O 0.66071 0.16001 0.87543 0.0
O344 O 0.67247 0.14635 0.913 0.0
H345 H 0.59583 0.1998 0.8859 0.0
H346 H 0.5161 0.1333 0.91369 0.0
H347 H 0.62203 0.1013 0.91778 0.0
O348 O 0.69151 0.28125 0.63321 0.0
Tb349 Tb 0.74667 0.27445 0.62831 0.0
Eu350 Eu 0.83137 0.30491 0.63823 0.0
C351 C 0.67235 0.29934 0.61822 0.0
O352 O 0.68727 0.31738 0.60105 0.0
C353 C 0.78318 0.26996 0.67718 0.0
O354 O 0.88781 0.29207 0.63496 0.0
C355 C 0.82498 0.3694 0.65129 0.0
C356 C 0.89873 0.26026 0.63872 0.0
O357 O 0.87605 0.23581 0.64333 0.0
C358 C 0.79145 0.30795 0.58862 0.0
C359 C 0.83334 0.40526 0.64328 0.0
C360 C 0.80649 0.42823 0.63681 0.0
C361 C 0.81392 0.46286 0.63086 0.0
C362 C 0.84801 0.47472 0.63213 0.0
C363 C 0.87486 0.45284 0.63921 0.0
C364 C 0.86763 0.41791 0.64431 0.0
O365 O 0.75646 0.28375 0.66622 0.0
O366 O 0.81292 0.26689 0.66608 0.0
O367 O 0.77526 0.22507 0.62796 0.0
O368 O 0.72706 0.22846 0.60994 0.0
C369 C 0.75231 0.20784 0.61555 0.0
O370 O 0.82029 0.29748 0.59878 0.0
O371 O 0.76304 0.31167 0.6013 0.0
O372 O 0.851 0.34953 0.65758 0.0
O373 O 0.80047 0.35242 0.63983 0.0
H374 H 0.77994 0.41936 0.63664 0.0
H375 H 0.85362 0.50172 0.62825 0.0
H376 H 0.88853 0.40115 0.65001 0.0
O377 O 0.76294 0.7216 0.62785 0.0
Tb378 Tb 0.76986 0.77609 0.61926 0.0
Eu379 Eu 0.69882 0.87261 0.60842 0.0
C380 C 0.73833 0.70238 0.61845 0.0
O381 O 0.71534 0.71676 0.6042 0.0
C382 C 0.72745 0.83045 0.64963 0.0
O383 O 0.70207 0.93125 0.60957 0.0
C384 C 0.6389 0.84742 0.59673 0.0
C385 C 0.72625 0.9477 0.59738 0.0
O386 O 0.74735 0.92953 0.58381 0.0
C387 C 0.73755 0.8155 0.57709 0.0
C388 C 0.60202 0.85538 0.59909 0.0
C389 C 0.57784 0.82811 0.59905 0.0
C390 C 0.54256 0.83522 0.60192 0.0
C391 C 0.53191 0.86953 0.60535 0.0
C392 C 0.55576 0.89675 0.60605 0.0
C393 C 0.59091 0.88966 0.60262 0.0
O394 O 0.72995 0.81211 0.62992 0.0
O395 O 0.71148 0.86022 0.64731 0.0
O396 O 0.81211 0.79476 0.642 0.0
O397 O 0.82116 0.78516 0.60463 0.0
C398 C 0.8352 0.7949 0.62487 0.0
O399 O 0.74265 0.84259 0.59117 0.0
O400 O 0.75158 0.78542 0.58288 0.0
O401 O 0.65481 0.83999 0.61696 0.0
O402 O 0.65722 0.86728 0.58226 0.0
H403 H 0.58642 0.80157 0.59678 0.0
H404 H 0.50468 0.87505 0.6078 0.0
H405 H 0.60961 0.91056 0.60326 0.0
O406 O 0.29564 0.7289 0.63007 0.0
Tb407 Tb 0.24071 0.73967 0.62921 0.0
Eu408 Eu 0.15647 0.71558 0.64191 0.0
C409 C 0.31543 0.74797 0.644 0.0
O410 O 0.30068 0.7706 0.65841 0.0
C411 C 0.20973 0.74426 0.67979 0.0
O412 O 0.10055 0.73074 0.63981 0.0
C413 C 0.16014 0.65102 0.65501 0.0
C414 C 0.09051 0.76312 0.64195 0.0
O415 O 0.11378 0.78753 0.64492 0.0
C416 C 0.19207 0.70874 0.5909 0.0
C417 C 0.15059 0.61544 0.64734 0.0
C418 C 0.17692 0.59097 0.64306 0.0
C419 C 0.16854 0.55643 0.63777 0.0
C420 C 0.13392 0.54615 0.63739 0.0
C421 C 0.10746 0.56963 0.64233 0.0
C422 C 0.1157 0.60451 0.64681 0.0
O423 O 0.2341 0.72907 0.6672 0.0
O424 O 0.1795 0.75086 0.67004 0.0
O425 O 0.21391 0.78999 0.63072 0.0
O426 O 0.26071 0.78574 0.61111 0.0
C427 C 0.23665 0.80698 0.61798 0.0
O428 O 0.1646 0.72122 0.60179 0.0
O429 O 0.22085 0.70354 0.60283 0.0
O430 O 0.13492 0.67189 0.66129 0.0
O431 O 0.18518 0.66681 0.64329 0.0
H432 H 0.20381 0.59855 0.64432 0.0
H433 H 0.12753 0.51913 0.63421 0.0
H434 H 0.09509 0.62253 0.65094 0.0
O435 O 0.23462 0.29254 0.63308 0.0
Tb436 Tb 0.2221 0.23851 0.62666 0.0
Eu437 Eu 0.29303 0.14207 0.61703 0.0
C438 C 0.21149 0.31234 0.64353 0.0
O439 O 0.18246 0.29823 0.65085 0.0
C440 C 0.26328 0.18357 0.6581 0.0
O441 O 0.29146 0.08336 0.61694 0.0
C442 C 0.35126 0.17073 0.60478 0.0
C443 C 0.2666 0.0673 0.60517 0.0
O444 O 0.24429 0.08602 0.59297 0.0
C445 C 0.25187 0.19617 0.58451 0.0
C446 C 0.38879 0.16554 0.60495 0.0
C447 C 0.41079 0.19441 0.60252 0.0
C448 C 0.44673 0.1899 0.60252 0.0
C449 C 0.46034 0.15658 0.60553 0.0
C450 C 0.43879 0.12778 0.60857 0.0
C451 C 0.40285 0.13231 0.60804 0.0
O452 O 0.25981 0.20081 0.638 0.0
O453 O 0.28 0.1542 0.65598 0.0
O454 O 0.17763 0.22397 0.64893 0.0
O455 O 0.17093 0.2327 0.6112 0.0
C456 C 0.15535 0.22478 0.63125 0.0
O457 O 0.2479 0.16997 0.59956 0.0
O458 O 0.23889 0.22679 0.59019 0.0
O459 O 0.3367 0.17509 0.62591 0.0
O460 O 0.33302 0.1511 0.59014 0.0
H461 H 0.40001 0.22016 0.60041 0.0
H462 H 0.48812 0.15308 0.6056 0.0
H463 H 0.38587 0.11021 0.61038 0.0
C464 C 0.20957 0.33918 0.05651 0.0
C465 C 0.20758 0.30771 0.06905 0.0
C466 C 0.20421 0.34024 0.03144 0.0
C467 C 0.19722 0.30906 0.01884 0.0
C468 C 0.19208 0.27794 0.03181 0.0
C469 C 0.19699 0.27775 0.05678 0.0
C470 C 0.20869 0.37417 0.01829 0.0
C471 C 0.18466 0.24406 0.01914 0.0
C472 C 0.17364 0.30266 0.95258 0.0
C473 C 0.20585 0.29525 0.94224 0.0
C474 C 0.17059 0.30933 0.97739 0.0
C475 C 0.20029 0.30749 0.99217 0.0
C476 C 0.23294 0.30062 0.98169 0.0
C477 C 0.23536 0.295 0.9568 0.0
C478 C 0.13555 0.31754 0.98782 0.0
C479 C 0.26518 0.29782 -0.0031 0.0
H480 H 0.21739 0.36251 0.06594 0.0
H481 H 0.19473 0.25345 0.06647 0.0
H482 H 0.23443 0.37473 0.00954 0.0
H483 H 0.18898 0.37704 0.0039 0.0
H484 H 0.20687 0.39666 0.03073 0.0
H485 H 0.17796 0.22302 0.03199 0.0
H486 H 0.16313 0.2471 0.00615 0.0
H487 H 0.20777 0.23596 0.00875 0.0
H488 H 0.15084 0.30347 0.94127 0.0
H489 H 0.26027 0.28933 0.94882 0.0
H490 H 0.13715 0.34038 -7e-05 0.0
H491 H 0.12637 0.29537 -0.00119 0.0
H492 H 0.1161 0.32283 0.97356 0.0
H493 H 0.26887 0.32183 0.00759 0.0
H494 H 0.28868 0.29338 0.98585 0.0
H495 H 0.26247 0.27604 0.00984 0.0
C496 C 0.66857 0.2034 0.04606 0.0
C497 C 0.69822 0.21269 0.05907 0.0
C498 C 0.67134 0.18926 0.02279 0.0
C499 C 0.70439 0.1854 0.01228 0.0
C500 C 0.73426 0.19084 0.02649 0.0
C501 C 0.73077 0.20421 0.0498 0.0
C502 C 0.63891 0.18162 0.00871 0.0
C503 C 0.77008 0.18644 0.01618 0.0
C504 C 0.72878 0.15505 0.9496 0.0
C505 C 0.73258 0.18705 0.93792 0.0
C506 C 0.71615 0.15341 0.97335 0.0
C507 C 0.70825 0.18457 0.98567 0.0
C508 C 0.70958 0.21658 0.97319 0.0
C509 C 0.72147 0.21732 0.94944 0.0
C510 C 0.71354 0.11859 0.98556 0.0
C511 C 0.70129 0.25055 0.9855 0.0
H512 H 0.64326 0.20928 0.05328 0.0
H513 H 0.7538 0.21039 0.06004 0.0
H514 H 0.63224 0.20438 -0.00259 0.0
H515 H 0.64264 0.15909 -0.00345 0.0
H516 H 0.6168 0.1763 0.02092 0.0
H517 H 0.79039 0.18809 0.03028 0.0
H518 H 0.77243 0.1611 0.00691 0.0
H519 H 0.77497 0.20702 0.00261 0.0
H520 H 0.73706 0.13151 0.94065 0.0
H521 H 0.72372 0.24205 0.94028 0.0
H522 H 0.69338 0.11843 -0.00023 0.0
H523 H 0.73864 0.11222 0.99409 0.0
H524 H 0.70768 0.09788 0.97224 0.0
H525 H 0.67526 0.24949 0.99375 0.0
H526 H 0.70209 0.27287 0.97285 0.0
H527 H 0.72016 0.2554 0.00018 0.0
C528 C 0.84137 0.70679 0.94047 0.0
C529 C 0.81113 0.70395 0.9267 0.0
C530 C 0.83974 0.70892 0.96574 0.0
C531 C 0.80712 0.70888 0.97725 0.0
C532 C 0.77664 0.70551 0.96341 0.0
C533 C 0.77905 0.70281 0.93836 0.0
C534 C 0.87273 0.71177 0.98008 0.0
C535 C 0.7413 0.70572 0.97499 0.0
C536 C 0.78966 0.68873 0.04263 0.0
C537 C 0.78368 0.72194 0.05197 0.0
C538 C 0.80038 0.68417 0.01873 0.0
C539 C 0.80413 0.71351 0.00367 0.0
C540 C 0.79967 0.74719 0.01329 0.0
C541 C 0.78963 0.75101 0.03742 0.0
C542 C 0.80552 0.64786 0.00924 0.0
C543 C 0.80303 0.7791 -0.00231 0.0
H544 H 0.86622 0.70754 0.93151 0.0
H545 H 0.75554 0.70084 0.92785 0.0
H546 H 0.87397 0.73742 0.98907 0.0
H547 H 0.87329 0.69179 0.99447 0.0
H548 H 0.89602 0.70869 0.96859 0.0
H549 H 0.72018 0.70279 0.96159 0.0
H550 H 0.73924 0.68436 0.9883 0.0
H551 H 0.73736 0.7304 0.98489 0.0
H552 H 0.78503 0.66615 0.05377 0.0
H553 H 0.78511 0.77676 0.04457 0.0
H554 H 0.82918 0.64636 -0.00198 0.0
H555 H 0.78334 0.64065 -0.00238 0.0
H556 H 0.80748 0.62855 0.02404 0.0
H557 H 0.82728 0.77825 0.9871 0.0
H558 H 0.80267 0.80336 0.00848 0.0
H559 H 0.78129 0.77994 0.98466 0.0
C560 C 0.2884 0.84334 0.9523 0.0
C561 C 0.28607 0.81101 0.94094 0.0
C562 C 0.30015 0.84591 0.97623 0.0
C563 C 0.30887 0.81533 0.98901 0.0
C564 C 0.30953 0.78315 0.9768 0.0
C565 C 0.29823 0.78144 0.95288 0.0
C566 C 0.30036 0.88086 0.98839 0.0
C567 C 0.31865 0.74988 0.98967 0.0
C568 C 0.34204 0.81089 0.0535 0.0
C569 C 0.31119 0.80511 0.06611 0.0
C570 C 0.34176 0.81655 0.02842 0.0
C571 C 0.31 0.81542 0.01578 0.0
C572 C 0.27879 0.81053 0.02861 0.0
C573 C 0.27978 0.80573 0.05357 0.0
C574 C 0.37545 0.82261 0.01544 0.0
C575 C 0.24432 0.80868 0.01587 0.0
H576 H 0.27918 0.86629 0.94305 0.0
H577 H 0.29702 0.75644 0.94399 0.0
H578 H 0.27679 0.8836 -0.00041 0.0
H579 H 0.32302 0.88348 0.00049 0.0
H580 H 0.30074 0.90232 0.97503 0.0
H581 H 0.32212 0.72791 0.97695 0.0
H582 H 0.34268 0.75306 0.00028 0.0
H583 H 0.29768 0.74309 0.00247 0.0
H584 H 0.36637 0.81085 0.06315 0.0
H585 H 0.25581 0.80126 0.06315 0.0
H586 H 0.37253 0.84268 0.00126 0.0
H587 H 0.3837 0.79829 0.00648 0.0
H588 H 0.39622 0.83072 0.02806 0.0
H589 H 0.24012 0.83238 0.00495 0.0
H590 H 0.2224 0.80588 0.02864 0.0
H591 H 0.24403 0.78623 0.00335 0.0
C592 C 0.21177 0.66073 0.45104 0.0
C593 C 0.21833 0.69222 0.43928 0.0
C594 C 0.19997 0.66021 0.47499 0.0
C595 C 0.19536 0.69189 0.48748 0.0
C596 C 0.19915 0.72366 0.47501 0.0
C597 C 0.21036 0.72341 0.45102 0.0
C598 C 0.19514 0.6258 0.48746 0.0
C599 C 0.19462 0.75807 0.48762 0.0
C600 C 0.1609 0.70015 0.55151 0.0
C601 C 0.19179 0.70159 0.56469 0.0
C602 C 0.16133 0.69509 0.52637 0.0
C603 C 0.19339 0.6923 0.51424 0.0
C604 C 0.2245 0.69289 0.5276 0.0
C605 C 0.22328 0.69722 0.5526 0.0
C606 C 0.12763 0.69373 0.51276 0.0
C607 C 0.25933 0.69044 0.5154 0.0
H608 H 0.21755 0.63649 0.44203 0.0
H609 H 0.21475 0.74789 0.44193 0.0
H610 H 0.21798 0.62032 0.49891 0.0
H611 H 0.17214 0.62633 0.49938 0.0
H612 H 0.19226 0.60427 0.4743 0.0
H613 H 0.19418 0.78011 0.47473 0.0
H614 H 0.17038 0.75838 0.49822 0.0
H615 H 0.2163 0.76211 0.5004 0.0
H616 H 0.13646 0.70319 0.56078 0.0
H617 H 0.2473 0.69835 0.56259 0.0
H618 H 0.12788 0.67237 0.49936 0.0
H619 H 0.12392 0.7183 0.50271 0.0
H620 H 0.10526 0.69009 0.52504 0.0
H621 H 0.26087 0.66643 0.50446 0.0
H622 H 0.28101 0.69042 0.52851 0.0
H623 H 0.26281 0.7127 0.50296 0.0
C624 C 0.27621 0.15908 0.5515 0.0
C625 C 0.26978 0.19201 0.56119 0.0
C626 C 0.28832 0.15539 0.52775 0.0
C627 C 0.29342 0.18533 0.51341 0.0
C628 C 0.28926 0.2186 0.52371 0.0
C629 C 0.27767 0.22151 0.5475 0.0
C630 C 0.29339 0.11949 0.51758 0.0
C631 C 0.29435 0.25123 0.50906 0.0
C632 C 0.3334 0.18815 0.45099 0.0
C633 C 0.30375 0.18941 0.43647 0.0
C634 C 0.33071 0.18434 0.47613 0.0
C635 C 0.29763 0.1824 0.48689 0.0
C636 C 0.26778 0.18199 0.47219 0.0
C637 C 0.27123 0.18528 0.4472 0.0
C638 C 0.36313 0.18401 0.49122 0.0
C639 C 0.23196 0.18023 0.48293 0.0
H640 H 0.27042 0.13619 0.56205 0.0
H641 H 0.27328 0.24708 0.55499 0.0
H642 H 0.27114 0.11277 0.50589 0.0
H643 H 0.31702 0.11835 0.5063 0.0
H644 H 0.29531 0.09967 0.53205 0.0
H645 H 0.29326 0.27499 0.52035 0.0
H646 H 0.31955 0.25062 0.49959 0.0
H647 H 0.27389 0.25299 0.4951 0.0
H648 H 0.35867 0.19087 0.44282 0.0
H649 H 0.24814 0.186 0.43617 0.0
H650 H 0.36152 0.16386 0.50546 0.0
H651 H 0.36615 0.20941 0.50036 0.0
H652 H 0.38651 0.17924 0.48012 0.0
H653 H 0.22981 0.15777 0.49532 0.0
H654 H 0.21157 0.17793 0.46893 0.0
H655 H 0.22694 0.20398 0.49366 0.0
C656 C 0.75861 0.32099 0.55096 0.0
C657 C 0.79026 0.31421 0.56232 0.0
C658 C 0.75633 0.32358 0.52581 0.0
C659 C 0.78646 0.3195 0.51171 0.0
C660 C 0.81875 0.31431 0.52309 0.0
C661 C 0.82026 0.3116 0.54829 0.0
C662 C 0.7214 0.32902 0.51431 0.0
C663 C 0.85148 0.31017 0.50859 0.0
C664 C 0.77522 0.28311 0.44882 0.0
C665 C 0.77764 0.31297 0.4345 0.0
C666 C 0.77806 0.28499 0.47395 0.0
C667 C 0.78366 0.31751 0.48507 0.0
C668 C 0.78613 0.34781 0.47079 0.0
C669 C 0.78295 0.34521 0.44564 0.0
C670 C 0.77496 0.25212 0.48862 0.0
C671 C 0.79226 0.38288 0.48209 0.0
H672 H 0.73528 0.32318 0.56162 0.0
H673 H 0.84486 0.30664 0.55694 0.0
H674 H 0.72241 0.3508 0.50129 0.0
H675 H 0.71394 0.30545 0.50409 0.0
H676 H 0.70098 0.33452 0.52785 0.0
H677 H 0.87486 0.30968 0.52019 0.0
H678 H 0.85038 0.28561 0.49821 0.0
H679 H 0.85407 0.33161 0.49539 0.0
H680 H 0.77093 0.25811 0.44043 0.0
H681 H 0.78499 0.36841 0.43471 0.0
H682 H 0.75329 0.25445 0.50159 0.0
H683 H 0.79885 0.24798 0.49927 0.0
H684 H 0.77049 0.22891 0.47718 0.0
H685 H 0.77118 0.389 0.49493 0.0
H686 H 0.79374 0.40391 0.46844 0.0
H687 H 0.81669 0.38255 0.49253 0.0
C688 C 0.6628 0.80541 0.44254 0.0
C689 C 0.69433 0.79685 0.43158 0.0
C690 C 0.66125 0.81361 0.46724 0.0
C691 C 0.69183 0.81251 0.4812 0.0
C692 C 0.72374 0.8046 0.47005 0.0
C693 C 0.72457 0.79704 0.44544 0.0
C694 C 0.62681 0.82237 0.47838 0.0
C695 C 0.75706 0.80292 0.48424 0.0
C696 C 0.71341 0.84851 0.54222 0.0
C697 C 0.71598 0.81757 0.55529 0.0
C698 C 0.70086 0.84828 0.51846 0.0
C699 C 0.69111 0.81637 0.50781 0.0
C700 C 0.68933 0.7861 0.52213 0.0
C701 C 0.70192 0.78707 0.54574 0.0
C702 C 0.70174 0.88135 0.50399 0.0
C703 C 0.67833 0.7517 0.51167 0.0
H704 H 0.63933 0.80561 0.4319 0.0
H705 H 0.74908 0.7905 0.4372 0.0
H706 H 0.6157 0.79874 0.48671 0.0
H707 H 0.62951 0.84225 0.49271 0.0
H708 H 0.60826 0.83192 0.46462 0.0
H709 H 0.77976 0.79734 0.47263 0.0
H710 H 0.76166 0.82784 0.49368 0.0
H711 H 0.75526 0.78233 0.49816 0.0
H712 H 0.72373 0.87228 0.54977 0.0
H713 H 0.70296 0.76328 0.55613 0.0
H714 H 0.67923 0.88291 0.49167 0.0
H715 H 0.72547 0.88181 0.49279 0.0
H716 H 0.70195 0.90456 0.51586 0.0
H717 H 0.65498 0.75476 0.50032 0.0
H718 H 0.67287 0.73226 0.52596 0.0
H719 H 0.69928 0.74147 0.50002 0.0
C720 C 0.28023 1.00133 0.1152 0.0
C721 C 0.28422 0.97971 0.13535 0.0
C722 C 0.26301 0.03314 0.11698 0.0
C723 C 0.24849 0.04322 0.13934 0.0
C724 C 0.24869 0.01955 0.1589 0.0
C725 C 0.2669 0.98809 0.15677 0.0
C726 C 0.26367 0.05743 0.09562 0.0
C727 C 0.2322 0.02864 0.1827 0.0
C728 C 0.25787 0.13954 0.15085 0.0
C729 C 0.22632 0.15255 0.14236 0.0
C730 C 0.26468 0.10386 0.151 0.0
C731 C 0.23898 0.08031 0.1431 0.0
C732 C 0.20613 0.09308 0.13623 0.0
C733 C 0.20035 0.12912 0.13556 0.0
C734 C 0.3003 0.0916 0.15814 0.0
C735 C 0.1776 0.06885 0.12856 0.0
H736 H 0.29306 0.99457 0.09847 0.0
H737 H 0.26972 0.97142 0.17238 0.0
H738 H 0.23762 0.06817 0.09215 0.0
H739 H 0.28109 0.07955 0.09959 0.0
H740 H 0.27293 0.04444 0.07896 0.0
H741 H 0.2275 0.0052 0.19387 0.0
H742 H 0.24954 0.04621 0.19291 0.0
H743 H 0.20737 0.04239 0.1799 0.0
H744 H 0.27811 0.15735 0.1562 0.0
H745 H 0.17575 0.13893 0.12923 0.0
H746 H 0.31312 0.07933 0.14241 0.0
H747 H 0.29848 0.07174 0.17254 0.0
H748 H 0.31692 0.11309 0.1647 0.0
H749 H 0.18228 0.06007 0.1098 0.0
H750 H 0.15196 0.08172 0.12916 0.0
H751 H 0.1769 0.04549 0.14023 0.0
C752 C 0.97362 0.32292 0.10392 0.0
C753 C 1.0013 0.32526 0.12008 0.0
C754 C 0.94157 0.31002 0.1113 0.0
C755 C 0.93726 0.29859 0.13538 0.0
C756 C 0.96624 0.29708 0.15094 0.0
C757 C 0.99804 0.31075 0.14315 0.0
C758 C 0.91153 0.31198 0.09397 0.0
C759 C 0.96308 0.28379 0.17642 0.0
C760 C 0.84824 0.3233 0.15646 0.0
C761 C 0.82922 0.29371 0.15024 0.0
C762 C 0.88415 0.32419 0.15369 0.0
C763 C 0.90159 0.29449 0.14493 0.0
C764 C 0.88304 0.26328 0.14139 0.0
C765 C 0.8469 0.2633 0.1439 0.0
C766 C 0.90284 0.35806 0.15782 0.0
C767 C 0.90085 0.23066 0.13305 0.0
H768 H 0.97639 0.33353 0.08591 0.0
H769 H 0.01949 0.31232 0.15566 0.0
H770 H 0.89748 0.28696 0.09345 0.0
H771 H 0.8931 0.33211 0.10019 0.0
H772 H 0.91986 0.31859 0.07536 0.0
H773 H 0.98852 0.27557 0.18368 0.0
H774 H 0.95292 0.3047 0.18816 0.0
H775 H 0.94488 0.26162 0.17742 0.0
H776 H 0.83487 0.34672 0.16186 0.0
H777 H 0.83246 0.24009 0.13945 0.0
H778 H 0.91158 0.36871 0.14025 0.0
H779 H 0.92608 0.35396 0.16912 0.0
H780 H 0.88618 0.37769 0.16673 0.0
H781 H 0.90452 0.23174 0.11323 0.0
H782 H 0.8853 0.20724 0.1373 0.0
H783 H 0.92669 0.22804 0.14149 0.0
C784 C 0.7995 0.89042 0.11053 0.0
C785 C 0.7813 0.86942 0.1268 0.0
C786 C 0.791 0.92561 0.10796 0.0
C787 C 0.76341 0.93941 0.12162 0.0
C788 C 0.74876 0.91959 0.14049 0.0
C789 C 0.75815 0.8848 0.14298 0.0
C790 C 0.80883 0.94679 0.0888 0.0
C791 C 0.7198 0.93353 0.15594 0.0
C792 C 0.72231 0.02824 0.1187 0.0
C793 C 0.69425 0.02128 0.10344 0.0
C794 C 0.74747 1.00282 0.12316 0.0
C795 C 0.74381 0.96969 0.1125 0.0
C796 C 0.71712 0.96369 0.09552 0.0
C797 C 0.69298 0.98974 0.09101 0.0
C798 C 0.77639 0.01089 0.14048 0.0
C799 C 0.71222 0.92881 0.08356 0.0
H800 H 0.81818 0.8789 0.09839 0.0
H801 H 0.7449 0.8689 0.15619 0.0
H802 H 0.79342 0.946 0.07195 0.0
H803 H 0.8112 0.9743 0.09442 0.0
H804 H 0.83493 0.93639 0.08477 0.0
H805 H 0.71408 0.91635 0.17151 0.0
H806 H 0.72633 0.95966 0.16286 0.0
H807 H 0.69605 0.93595 0.14487 0.0
H808 H 0.72365 0.05278 0.12817 0.0
H809 H 0.67196 0.98479 0.07855 0.0
H810 H 0.79966 0.99499 0.1368 0.0
H811 H 0.7677 0.00546 0.15916 0.0
H812 H 0.78354 0.03874 0.13954 0.0
H813 H 0.73628 0.92072 0.07434 0.0
H814 H 0.69099 0.92903 0.07009 0.0
H815 H 0.70616 0.90895 0.09741 0.0
C816 C 0.13684 0.82033 0.10468 0.0
C817 C 0.15529 0.79752 0.11959 0.0
C818 C 0.10209 0.81389 0.09888 0.0
C819 C 0.08596 0.78349 0.10768 0.0
C820 C 0.10382 0.76172 0.12402 0.0
C821 C 0.13806 0.76928 0.13001 0.0
C822 C 0.08348 0.83848 0.08221 0.0
C823 C 0.08774 0.72884 0.13373 0.0
C824 C 0.99255 0.75594 0.10511 0.0
C825 C 0.99383 0.73149 0.08638 0.0
C826 C 0.02154 0.7763 0.11071 0.0
C827 C 0.05252 0.77138 0.09764 0.0
C828 C 0.05277 0.74931 0.07725 0.0
C829 C 0.02323 0.73001 0.07169 0.0
C830 C 0.01984 0.80076 0.1319 0.0
C831 C 0.08523 0.74327 0.06275 0.0
H832 H 0.14985 0.84249 0.09681 0.0
H833 H 0.15196 0.75165 0.14171 0.0
H834 H 0.08442 0.82823 0.06354 0.0
H835 H 0.05593 0.84114 0.08736 0.0
H836 H 0.09566 0.86455 0.08222 0.0
H837 H 0.10452 0.71569 0.14715 0.0
H838 H 0.06258 0.73456 0.14236 0.0
H839 H 0.0828 0.71057 0.11865 0.0
H840 H 0.96986 0.75748 0.11648 0.0
H841 H 0.02394 0.71193 0.05672 0.0
H842 H 0.03479 0.82474 0.12826 0.0
H843 H 0.0313 0.78809 0.14797 0.0
H844 H 0.99278 0.8079 0.13628 0.0
H845 H 0.09719 0.76828 0.05756 0.0
H846 H 0.08022 0.728 0.04613 0.0
H847 H 0.10424 0.72896 0.07394 0.0
C848 C 0.30717 0.9902 0.3884 0.0
C849 C 0.30339 0.01364 0.36926 0.0
C850 C 0.28959 0.95844 0.38857 0.0
C851 C 0.26688 0.95019 0.36939 0.0
C852 C 0.25987 0.97552 0.3515 0.0
C853 C 0.2785 0.00694 0.3515 0.0
C854 C 0.29811 0.93239 0.40801 0.0
C855 C 0.23481 0.96839 0.33129 0.0
C856 C 0.26868 0.85433 0.35418 0.0
C857 C 0.24149 0.84144 0.36826 0.0
C858 C 0.27601 0.88996 0.35336 0.0
C859 C 0.25508 0.91354 0.36641 0.0
C860 C 0.22582 0.90096 0.379 0.0
C861 C 0.21968 0.865 0.38009 0.0
C862 C 0.30775 0.90202 0.33992 0.0
C863 C 0.20206 0.92523 0.39237 0.0
H864 H 0.3262 0.99551 0.40227 0.0
H865 H 0.27549 0.02494 0.33664 0.0
H866 H 0.27418 0.92163 0.41601 0.0
H867 H 0.31267 0.91046 0.39999 0.0
H868 H 0.31397 0.94385 0.42268 0.0
H869 H 0.22631 0.99272 0.32238 0.0
H870 H 0.24743 0.95181 0.31754 0.0
H871 H 0.21177 0.9543 0.33804 0.0
H872 H 0.2857 0.8364 0.34496 0.0
H873 H 0.19837 0.8553 0.39082 0.0
H874 H 0.32684 0.91258 0.35293 0.0
H875 H 0.30102 0.92316 0.32723 0.0
H876 H 0.3202 0.88076 0.32959 0.0
H877 H 0.21436 0.93328 0.40954 0.0
H878 H 0.17698 0.91272 0.39669 0.0
H879 H 0.19714 0.94901 0.38165 0.0
C880 C 0.1218 0.19096 0.37694 0.0
C881 C 0.14602 0.21682 0.37129 0.0
C882 C 0.08602 0.1977 0.37604 0.0
C883 C 0.07417 0.23133 0.36993 0.0
C884 C 0.09855 0.25727 0.36374 0.0
C885 C 0.134 0.2496 0.36425 0.0
C886 C 0.06095 0.16909 0.38216 0.0
C887 C 0.08729 0.29366 0.35745 0.0
C888 C 0.98353 0.25849 0.35131 0.0
C889 C 0.9722 0.27514 0.37233 0.0
C890 C 0.01552 0.24104 0.35077 0.0
C891 C 0.0367 0.24069 0.37165 0.0
C892 C 0.02363 0.25449 0.39349 0.0
C893 C 0.9915 0.27134 0.39357 0.0
C894 C 0.02796 0.22589 0.32726 0.0
C895 C 0.04511 0.25493 0.4162 0.0
H896 H 0.13078 0.16547 0.38223 0.0
H897 H 0.1524 0.26984 0.35992 0.0
H898 H 0.04809 0.17493 0.39955 0.0
H899 H 0.04048 0.16736 0.36821 0.0
H900 H 0.07391 0.14351 0.38369 0.0
H901 H 0.10938 0.31064 0.3526 0.0
H902 H 0.06898 0.2931 0.34208 0.0
H903 H 0.07355 0.30538 0.373 0.0
H904 H 0.96894 0.26172 0.33478 0.0
H905 H 0.9829 0.28445 0.4098 0.0
H906 H 0.0413 0.20083 0.3303 0.0
H907 H 0.04678 0.24389 0.31885 0.0
H908 H 0.00636 0.2218 0.31439 0.0
H909 H 0.0569 0.2292 0.41951 0.0
H910 H 0.02967 0.26236 0.43228 0.0
H911 H 0.06646 0.2739 0.4141 0.0
C912 C 0.74308 0.98264 0.36504 0.0
C913 C 0.71604 0.97966 0.3484 0.0
C914 C 0.76256 0.01345 0.36651 0.0
C915 C 0.75422 0.04179 0.35128 0.0
C916 C 0.72895 0.0375 0.33308 0.0
C917 C 0.71049 0.00638 0.33173 0.0
C918 C 0.79019 0.01652 0.38554 0.0
C919 C 0.71892 0.06689 0.31649 0.0
C920 C 0.75611 0.13453 0.37332 0.0
C921 C 0.78149 0.14922 0.35846 0.0
C922 C 0.74856 0.09901 0.37229 0.0
C923 C 0.76742 0.07735 0.35642 0.0
C924 C 0.79515 0.09146 0.34297 0.0
C925 C 0.80156 0.12736 0.34387 0.0
C926 C 0.71845 0.08529 0.38675 0.0
C927 C 0.81669 0.06907 0.32652 0.0
H928 H 0.74743 0.96196 0.37791 0.0
H929 H 0.68975 0.00386 0.31869 0.0
H930 H 0.81273 0.03123 0.37862 0.0
H931 H 0.77978 0.03083 0.40129 0.0
H932 H 0.79901 0.99066 0.39183 0.0
H933 H 0.70077 0.05845 0.30213 0.0
H934 H 0.70634 0.08774 0.32712 0.0
H935 H 0.7421 0.07822 0.30782 0.0
H936 H 0.7405 0.15112 0.38471 0.0
H937 H 0.82153 0.13842 0.33255 0.0
H938 H 0.72623 0.06203 0.39714 0.0
H939 H 0.69739 0.07739 0.37433 0.0
H940 H 0.70807 0.10488 0.39952 0.0
H941 H 0.82237 0.04372 0.3351 0.0
H942 H 0.84143 0.08188 0.32167 0.0
H943 H 0.8022 0.06388 0.30965 0.0
C944 C 0.98785 0.68222 0.40555 0.0
C945 C 0.01833 0.68648 0.39231 0.0
C946 C 0.95796 0.70053 0.39947 0.0
C947 C 0.95885 0.72408 0.3799 0.0
C948 C 0.9907 0.73175 0.36855 0.0
C949 C 0.02022 0.71257 0.37479 0.0
C950 C 0.92465 0.69161 0.41221 0.0
C951 C 0.99294 0.7577 0.34827 0.0
C952 C 0.87603 0.71844 0.3444 0.0
C953 C 0.85637 0.74477 0.35505 0.0
C954 C 0.91039 0.71297 0.3512 0.0
C955 C 0.92571 0.73486 0.36872 0.0
C956 C 0.90703 0.76351 0.37782 0.0
C957 C 0.87235 0.76792 0.37108 0.0
C958 C 0.92931 0.68195 0.34108 0.0
C959 C 0.92281 0.78814 0.39585 0.0
H960 H 0.98666 0.66231 0.41934 0.0
H961 H 0.04387 0.71597 0.36461 0.0
H962 H 0.91057 0.71546 0.4174 0.0
H963 H 0.90777 0.67667 0.3998 0.0
H964 H 0.92908 0.6758 0.42866 0.0
H965 H 0.01985 0.7669 0.34558 0.0
H966 H 0.98413 0.74537 0.33127 0.0
H967 H 0.97604 0.78035 0.35177 0.0
H968 H 0.86397 0.70063 0.33184 0.0
H969 H 0.85742 0.78868 0.37912 0.0
H970 H 0.93394 0.6628 0.35566 0.0
H971 H 0.95483 0.68984 0.33388 0.0
H972 H 0.91461 0.66897 0.32643 0.0
H973 H 0.9216 0.77646 0.4141 0.0
H974 H 0.90876 0.81322 0.39635 0.0
H975 H 0.95036 0.79318 0.39163 0.0
C976 C 0.7358 0.85031 0.89376 0.0
C977 C 0.76229 0.83673 0.87934 0.0
C978 C 0.73207 0.88622 0.89714 0.0
C979 C 0.75509 0.90935 0.88552 0.0
C980 C 0.78221 0.89574 0.87115 0.0
C981 C 0.78564 0.85956 0.86837 0.0
C982 C 0.70313 0.89941 0.9129 0.0
C983 C 0.80708 0.91944 0.85823 0.0
C984 C 0.72298 1.00184 0.87536 0.0
C985 C 0.73993 0.02017 0.89374 0.0
C986 C 0.72807 0.96596 0.87226 0.0
C987 C 0.75029 0.94772 0.88813 0.0
C988 C 0.76717 0.96602 0.90688 0.0
C989 C 0.76199 1.00196 0.90935 0.0
C990 C 0.70976 0.94757 0.85192 0.0
C991 C 0.79057 0.94758 0.92447 0.0
H992 H 0.71767 0.83277 0.90231 0.0
H993 H 0.80599 0.84919 0.85706 0.0
H994 H 0.71363 0.91646 0.92725 0.0
H995 H 0.68502 0.91522 0.90199 0.0
H996 H 0.68839 0.87803 0.92151 0.0
H997 H 0.8271 0.90487 0.84809 0.0
H998 H 0.79274 0.93619 0.84542 0.0
H999 H 0.82008 0.93678 0.87136 0.0
H1000 H 0.70606 0.01563 0.8631 0.0
H1001 H 0.77516 0.01579 0.92366 0.0
H1002 H 0.69244 0.92727 0.85928 0.0
H1003 H 0.72887 0.93441 0.84016 0.0
H1004 H 0.69417 0.96557 0.8407 0.0
H1005 H 0.77596 0.927 0.93403 0.0
H1006 H 0.80178 0.96547 0.93807 0.0
H1007 H 0.81196 0.93473 0.91464 0.0
C1008 C 0.96829 0.75475 0.85036 0.0
C1009 C 0.96249 0.71985 0.85628 0.0
C1010 C 0.00175 0.76876 0.8504 0.0
C1011 C 0.03009 0.7473 0.85636 0.0
C1012 C 0.02447 0.71186 0.86185 0.0
C1013 C 0.99072 0.6986 0.86184 0.0
C1014 C 0.0067 0.80666 0.84457 0.0
C1015 C 0.05407 0.68803 0.8681 0.0
C1016 C 0.12273 0.77045 0.84073 0.0
C1017 C 0.13558 0.78006 0.86339 0.0
C1018 C 0.08787 0.76127 0.83782 0.0
C1019 C 0.06551 0.76203 0.85803 0.0
C1020 C 0.07791 0.77422 0.8805 0.0
C1021 C 0.11286 0.783 0.88292 0.0
C1022 C 0.07563 0.74856 0.81354 0.0
C1023 C 0.0548 0.7759 0.9024 0.0
H1024 H 0.94661 0.77136 0.84602 0.0
H1025 H 0.98649 0.67156 0.86624 0.0
H1026 H 0.01732 0.82036 0.86052 0.0
H1027 H 0.02566 0.80969 0.82973 0.0
H1028 H 0.98219 0.81945 0.8392 0.0
H1029 H 0.04553 0.66081 0.87079 0.0
H1030 H 0.07373 0.68857 0.85356 0.0
H1031 H 0.0668 0.69712 0.88487 0.0
H1032 H 0.1403 0.76805 0.82561 0.0
H1033 H 0.12276 0.79052 0.90044 0.0
H1034 H 0.05091 0.76113 0.80853 0.0
H1035 H 0.07085 0.72023 0.81445 0.0
H1036 H 0.09487 0.75359 0.79909 0.0
H1037 H 0.03041 0.78958 0.89803 0.0
H1038 H 0.06741 0.78931 0.9178 0.0
H1039 H 0.0479 0.74924 0.90815 0.0
C1040 C 0.23472 0.14096 0.88811 0.0
C1041 C 0.26188 0.16166 0.87968 0.0
C1042 C 0.23947 0.10516 0.8921 0.0
C1043 C 0.27212 0.08983 0.88754 0.0
C1044 C 0.29946 0.11072 0.87883 0.0
C1045 C 0.29399 0.14625 0.87502 0.0
C1046 C 0.20966 0.08379 0.90136 0.0
C1047 C 0.33467 0.09559 0.87369 0.0
C1048 C 0.29746 0.00465 0.91772 0.0
C1049 C 0.29306 0.98074 0.89889 0.0
C1050 C 0.29024 0.04009 0.91441 0.0
C1051 C 0.27797 0.05198 0.89179 0.0
C1052 C 0.27303 0.02789 0.87282 0.0
C1053 C 0.28079 0.99269 0.87655 0.0
C1054 C 0.29628 0.06493 0.93501 0.0
C1055 C 0.2599 0.03938 0.84847 0.0
H1056 H 0.2099 0.15278 0.8918 0.0
H1057 H 0.31514 0.16211 0.8685 0.0
H1058 H 0.20411 0.06227 0.88866 0.0
H1059 H 0.21657 0.07195 0.91893 0.0
H1060 H 0.18584 0.09943 0.90373 0.0
H1061 H 0.35323 0.11539 0.86706 0.0
H1062 H 0.34536 0.08364 0.89027 0.0
H1063 H 0.33251 0.07481 0.85995 0.0
H1064 H 0.30696 0.99574 0.93503 0.0
H1065 H 0.27705 0.97446 0.86192 0.0
H1066 H 0.2723 0.07956 0.93898 0.0
H1067 H 0.3163 0.08414 0.92988 0.0
H1068 H 0.30479 0.05149 0.9517 0.0
H1069 H 0.2351 0.05345 0.85053 0.0
H1070 H 0.25591 0.01726 0.83595 0.0
H1071 H 0.27856 0.05763 0.84015 0.0
C1072 C 0.05423 0.21099 0.85422 0.0
C1073 C 0.06512 0.2456 0.85605 0.0
C1074 C 0.01897 0.20246 0.85362 0.0
C1075 C 0.99401 0.22917 0.85488 0.0
C1076 C 0.00485 0.26421 0.85581 0.0
C1077 C 0.04024 0.272 0.8564 0.0
C1078 C 0.00845 0.16481 0.85256 0.0
C1079 C 0.97906 0.29349 0.85711 0.0
C1080 C 0.89915 0.21471 0.83992 0.0
C1081 C 0.88469 0.21308 0.86305 0.0
C1082 C 0.935 0.21855 0.83684 0.0
C1083 C 0.95668 0.22062 0.85739 0.0
C1084 C 0.94223 0.21702 0.8807 0.0
C1085 C 0.90642 0.21338 0.88323 0.0
C1086 C 0.94943 0.22218 0.81169 0.0
C1087 C 0.96439 0.21879 0.90309 0.0
H1088 H 0.07325 0.19041 0.85381 0.0
H1089 H 0.04837 0.29882 0.85765 0.0
H1090 H 0.99603 0.1573 0.86981 0.0
H1091 H 0.98919 0.16067 0.83804 0.0
H1092 H 0.03081 0.14739 0.84937 0.0
H1093 H 0.9916 0.31934 0.85597 0.0
H1094 H 0.95998 0.29121 0.84227 0.0
H1095 H 0.9646 0.29197 0.87435 0.0
H1096 H 0.88234 0.21463 0.82428 0.0
H1097 H 0.89529 0.21202 0.90115 0.0
H1098 H 0.97188 0.20471 0.80919 0.0
H1099 H 0.95873 0.2491 0.80896 0.0
H1100 H 0.92986 0.21628 0.79763 0.0
H1101 H 0.9862 0.20027 0.90172 0.0
H1102 H 0.94955 0.2129 0.91973 0.0
H1103 H 0.97559 0.24515 0.90484 0.0
C1104 C 0.77398 0.1476 0.62381 0.0
C1105 C 0.75189 0.1699 0.61117 0.0
C1106 C 0.7709 0.11133 0.62158 0.0
C1107 C 0.74541 0.09705 0.6061 0.0
C1108 C 0.72381 0.11961 0.59274 0.0
C1109 C 0.72716 0.15566 0.59557 0.0
C1110 C 0.79425 0.08826 0.63629 0.0
C1111 C 0.69668 0.10566 0.57576 0.0
C1112 C 0.7544 1.00347 0.58467 0.0
C1113 C 0.73073 0.98596 0.59951 0.0
C1114 C 0.75954 0.03947 0.58669 0.0
C1115 C 0.74081 0.05859 0.60411 0.0
C1116 C 0.71696 0.04107 0.61921 0.0
C1117 C 0.71209 0.00507 0.61665 0.0
C1118 C 0.78487 0.05709 0.57001 0.0
C1119 C 0.69657 0.06039 0.63812 0.0
H1120 H 0.79295 0.15848 0.63603 0.0
H1121 H 0.71 0.17279 0.58575 0.0
H1122 H 0.77854 0.07229 0.64881 0.0
H1123 H 0.80841 0.07016 0.62431 0.0
H1124 H 0.8133 0.10331 0.64701 0.0
H1125 H 0.68306 0.12661 0.56585 0.0
H1126 H 0.70867 0.08789 0.56245 0.0
H1127 H 0.67734 0.09043 0.58602 0.0
H1128 H 0.76893 0.98905 0.57133 0.0
H1129 H 0.69386 0.99184 0.62828 0.0
H1130 H 0.8051 0.07048 0.58067 0.0
H1131 H 0.7714 0.07713 0.55918 0.0
H1132 H 0.79757 0.03856 0.55751 0.0
H1133 H 0.71439 0.07413 0.65053 0.0
H1134 H 0.67978 0.04291 0.64888 0.0
H1135 H 0.68013 0.08031 0.6294 0.0
C1136 C 0.04201 0.80627 0.64105 0.0
C1137 C 0.05324 0.77169 0.64098 0.0
C1138 C 0.0067 0.81442 0.63955 0.0
C1139 C 0.98212 0.78734 0.63805 0.0
C1140 C 0.9933 0.75241 0.63843 0.0
C1141 C 0.02867 0.74503 0.63983 0.0
C1142 C 0.99573 0.85195 0.63911 0.0
C1143 C 0.96791 0.72274 0.63694 0.0
C1144 C 0.88678 0.79943 0.6517 0.0
C1145 C 0.8727 0.79902 0.62843 0.0
C1146 C 0.92266 0.7974 0.65518 0.0
C1147 C 0.94477 0.79514 0.63488 0.0
C1148 C 0.93066 0.79689 0.61136 0.0
C1149 C 0.89476 0.79868 0.60843 0.0
C1150 C 0.9367 0.79558 0.68054 0.0
C1151 C 0.95332 0.79483 0.58925 0.0
H1152 H 0.06082 0.82703 0.64197 0.0
H1153 H 0.03704 0.71823 0.63991 0.0
H1154 H 0.98311 0.8579 0.62164 0.0
H1155 H 0.97648 0.85694 0.6535 0.0
H1156 H 0.01786 0.86992 0.64159 0.0
H1157 H 0.9807 0.69707 0.63846 0.0
H1158 H 0.94842 0.725 0.65151 0.0
H1159 H 0.95388 0.72379 0.61952 0.0
H1160 H 0.86972 0.79962 0.6672 0.0
H1161 H 0.88389 0.7985 0.59042 0.0
H1162 H 0.95848 0.81395 0.68281 0.0
H1163 H 0.94683 0.76915 0.68403 0.0
H1164 H 0.91665 0.80148 0.69426 0.0
H1165 H 0.97495 0.81357 0.59061 0.0
H1166 H 0.93874 0.80015 0.5724 0.0
H1167 H 0.96475 0.76853 0.58792 0.0
C1168 C 0.23859 0.01217 0.59127 0.0
C1169 C 0.26241 0.02896 0.6064 0.0
C1170 C 0.23328 0.97616 0.5926 0.0
C1171 C 0.25195 0.95628 0.60964 0.0
C1172 C 0.27608 0.97303 0.62495 0.0
C1173 C 0.28116 0.0091 0.62306 0.0
C1174 C 0.20773 0.95936 0.57568 0.0
C1175 C 0.29638 0.95286 0.64347 0.0
C1176 C 0.21692 0.86736 0.62779 0.0
C1177 C 0.23826 0.84507 0.61455 0.0
C1178 C 0.22098 0.90362 0.62634 0.0
C1179 C 0.24674 0.91787 0.61108 0.0
C1180 C 0.26772 0.89536 0.59723 0.0
C1181 C 0.26335 0.85931 0.59924 0.0
C1182 C 0.19824 0.92664 0.64154 0.0
C1183 C 0.29514 0.90933 0.58049 0.0
H1184 H 0.22403 0.02719 0.57827 0.0
H1185 H 0.29948 0.0218 0.6349 0.0
H1186 H 0.22088 0.93934 0.56464 0.0
H1187 H 0.18724 0.94607 0.58616 0.0
H1188 H 0.19537 0.97839 0.56337 0.0
H1189 H 0.31366 0.96975 0.65432 0.0
H1190 H 0.27847 0.93917 0.65584 0.0
H1191 H 0.3123 0.93284 0.6344 0.0
H1192 H 0.19769 0.85646 0.6398 0.0
H1193 H 0.27998 0.84217 0.58899 0.0
H1194 H 0.18414 0.94524 0.6299 0.0
H1195 H 0.21439 0.94207 0.65411 0.0
H1196 H 0.17915 0.91161 0.65223 0.0
H1197 H 0.28347 0.92763 0.56739 0.0
H1198 H 0.3085 0.88844 0.57035 0.0
H1199 H 0.31467 0.924 0.59098 0.0
C1200 C 0.94781 0.21803 0.64076 0.0
C1201 C 0.93617 0.25233 0.63857 0.0
C1202 C 0.98324 0.21025 0.64072 0.0
C1203 C 0.00759 0.23744 0.63858 0.0
C1204 C 0.99599 0.27214 0.63666 0.0
C1205 C 0.96045 0.27914 0.63659 0.0
C1206 C 0.99461 0.17293 0.64262 0.0
C1207 C 0.02114 0.30189 0.63443 0.0
C1208 C 0.10174 0.22573 0.65635 0.0
C1209 C 0.11749 0.22293 0.6337 0.0
C1210 C 0.06573 0.22927 0.65834 0.0
C1211 C 0.04518 0.22971 0.63719 0.0
C1212 C 0.06095 0.22508 0.61439 0.0
C1213 C 0.09693 0.22192 0.61293 0.0
C1214 C 0.04987 0.23423 0.68296 0.0
C1215 C 0.03999 0.22501 0.59143 0.0
H1216 H 0.92923 0.19714 0.64233 0.0
H1217 H 0.95172 0.30573 0.63504 0.0
H1218 H 0.00892 0.1654 0.6261 0.0
H1219 H 0.01252 0.1697 0.65807 0.0
H1220 H 0.9725 0.15491 0.64498 0.0
H1221 H 0.00799 0.32747 0.63407 0.0
H1222 H 0.03957 0.30155 0.64974 0.0
H1223 H 0.03645 0.29907 0.61763 0.0
H1224 H 0.11766 0.22669 0.67242 0.0
H1225 H 0.10909 0.21965 0.5954 0.0
H1226 H 0.02808 0.21596 0.68559 0.0
H1227 H 0.03928 0.26086 0.68441 0.0
H1228 H 0.06891 0.23033 0.6977 0.0
H1229 H 0.01836 0.20627 0.59284 0.0
H1230 H 0.0558 0.21826 0.57539 0.0
H1231 H 0.02854 0.25104 0.58853 0.0
C1232 C 0.76722 0.64914 0.63407 0.0
C1233 C 0.73932 0.66423 0.62185 0.0
C1234 C 0.77129 0.61309 0.63505 0.0
C1235 C 0.74651 0.59133 0.6239 0.0
C1236 C 0.71711 0.60625 0.61283 0.0
C1237 C 0.71401 0.64259 0.61173 0.0
C1238 C 0.80317 0.5984 0.64699 0.0
C1239 C 0.68971 0.58398 0.60126 0.0
C1240 C 0.79061 0.50908 0.60444 0.0
C1241 C 0.78687 0.48868 0.62517 0.0
C1242 C 0.77446 0.54146 0.60262 0.0
C1243 C 0.75383 0.55351 0.62195 0.0
C1244 C 0.7464 0.531 0.64148 0.0
C1245 C 0.76325 0.49876 0.64296 0.0
C1246 C 0.78304 0.56437 0.58138 0.0
C1247 C 0.72364 0.54239 0.66207 0.0
H1248 H 0.7868 0.66554 0.64213 0.0
H1249 H 0.69217 0.65399 0.60244 0.0
H1250 H 0.79581 0.5792 0.66095 0.0
H1251 H 0.81917 0.5847 0.6334 0.0
H1252 H 0.81927 0.61877 0.65561 0.0
H1253 H 0.66554 0.59873 0.59796 0.0
H1254 H 0.69929 0.57414 0.58371 0.0
H1255 H 0.68369 0.56118 0.61272 0.0
H1256 H 0.80885 0.50114 0.59066 0.0
H1257 H 0.76041 0.48304 0.65904 0.0
H1258 H 0.80138 0.58484 0.58721 0.0
H1259 H 0.75957 0.57744 0.57447 0.0
H1260 H 0.7951 0.54956 0.5664 0.0
H1261 H 0.73862 0.55943 0.67433 0.0
H1262 H 0.7141 0.5199 0.67266 0.0
H1263 H 0.70121 0.55744 0.65537 0.0
C1264 C 0.36942 0.72611 0.62407 0.0
C1265 C 0.35323 0.74919 0.64003 0.0
C1266 C 0.40405 0.73091 0.6172 0.0
C1267 C 0.42252 0.75986 0.62612 0.0
C1268 C 0.40694 0.78184 0.64345 0.0
C1269 C 0.37265 0.776 0.65037 0.0
C1270 C 0.42007 0.70622 0.59932 0.0
C1271 C 0.42557 0.81318 0.65338 0.0
C1272 C 0.51736 0.78194 0.62065 0.0
C1273 C 0.51595 0.80769 0.60287 0.0
C1274 C 0.48761 0.76298 0.62683 0.0
C1275 C 0.45595 0.77053 0.61516 0.0
C1276 C 0.45553 0.79377 0.5954 0.0
C1277 C 0.48566 0.81182 0.58937 0.0
C1278 C 0.4894 0.73739 0.64735 0.0
C1279 C 0.42246 0.80266 0.58236 0.0
H1280 H 0.35471 0.70503 0.61621 0.0
H1281 H 0.3605 0.7938 0.66287 0.0
H1282 H 0.41935 0.71794 0.58107 0.0
H1283 H 0.44749 0.70109 0.60385 0.0
H1284 H 0.40592 0.68119 0.59864 0.0
H1285 H 0.41061 0.8264 0.66779 0.0
H1286 H 0.45101 0.80558 0.66084 0.0
H1287 H 0.43034 0.83204 0.63864 0.0
H1288 H 0.54082 0.77864 0.63108 0.0
H1289 H 0.48477 0.83149 0.57541 0.0
H1290 H 0.47265 0.71462 0.64381 0.0
H1291 H 0.48011 0.74996 0.66412 0.0
H1292 H 0.51625 0.72833 0.65046 0.0
H1293 H 0.40824 0.7788 0.57733 0.0
H1294 H 0.42723 0.81809 0.56578 0.0
H1295 H 0.40555 0.81797 0.59451 0.0
C1296 C 0.2134 0.51842 0.65566 0.0
C1297 C 0.19487 0.52905 0.63529 0.0
C1298 C 0.2267 0.48461 0.6571 0.0
C1299 C 0.22083 0.46125 0.63782 0.0
C1300 C 0.20658 0.47367 0.61596 0.0
C1301 C 0.19378 0.50757 0.61495 0.0
C1302 C 0.24299 0.47271 0.68037 0.0
C1303 C 0.20028 0.44989 0.5948 0.0
C1304 C 0.24683 0.36617 0.637 0.0
C1305 C 0.21616 0.35037 0.64484 0.0
C1306 C 0.24975 0.40248 0.63589 0.0
C1307 C 0.2211 0.42326 0.64234 0.0
C1308 C 0.19068 0.40738 0.65129 0.0
C1309 C 0.18873 0.37121 0.6526 0.0
C1310 C 0.28288 0.41836 0.62681 0.0
C1311 C 0.15939 0.42849 0.65837 0.0
H1312 H 0.21422 0.53508 0.6714 0.0
H1313 H 0.1795 0.516 0.59918 0.0
H1314 H 0.2233 0.45927 0.69149 0.0
H1315 H 0.26426 0.45413 0.67687 0.0
H1316 H 0.25321 0.49493 0.69094 0.0
H1317 H 0.19457 0.46459 0.57804 0.0
H1318 H 0.22295 0.433 0.59155 0.0
H1319 H 0.17789 0.43287 0.59882 0.0
H1320 H 0.26828 0.35021 0.63118 0.0
H1321 H 0.16504 0.35927 0.65885 0.0
H1322 H 0.28907 0.44261 0.63666 0.0
H1323 H 0.27999 0.42496 0.60746 0.0
H1324 H 0.30492 0.40013 0.62861 0.0
H1325 H 0.1665 0.44798 0.6722 0.0
H1326 H 0.1382 0.41217 0.66568 0.0
H1327 H 0.14944 0.44275 0.64244 0.0
C1328 C 0.49857 0.21658 0.58388 0.0
C1329 C 0.47125 0.2192 0.60032 0.0
C1330 C 0.52801 0.23736 0.58617 0.0
C1331 C 0.52992 0.26176 0.6052 0.0
C1332 C 0.50067 0.26738 0.62005 0.0
C1333 C 0.4716 0.24577 0.61754 0.0
C1334 C 0.55845 0.23043 0.56985 0.0
C1335 C 0.50122 0.29396 0.63998 0.0
C1336 C 0.62014 0.26632 0.63098 0.0
C1337 C 0.63443 0.29411 0.6181 0.0
C1338 C 0.58551 0.25681 0.62793 0.0
C1339 C 0.56429 0.27606 0.61201 0.0
C1340 C 0.57775 0.3059 0.6005 0.0
C1341 C 0.61285 0.31433 0.60342 0.0
C1342 C 0.57241 0.22457 0.64043 0.0
C1343 C 0.55569 0.32779 0.58406 0.0
H1344 H 0.49806 0.19622 0.57039 0.0
H1345 H 0.45044 0.24787 0.63025 0.0
H1346 H 0.56917 0.25504 0.56276 0.0
H1347 H 0.57917 0.21744 0.58031 0.0
H1348 H 0.55146 0.21355 0.55437 0.0
H1349 H 0.47471 0.30081 0.64594 0.0
H1350 H 0.51539 0.28332 0.65571 0.0
H1351 H 0.51475 0.31787 0.63412 0.0
H1352 H 0.63652 0.25059 0.64244 0.0
H1353 H 0.62359 0.33611 0.59361 0.0
H1354 H 0.56623 0.20444 0.62679 0.0
H1355 H 0.54833 0.2303 0.65046 0.0
H1356 H 0.59159 0.21368 0.65326 0.0
H1357 H 0.55312 0.31477 0.56632 0.0
H1358 H 0.56722 0.3538 0.58105 0.0
H1359 H 0.52935 0.33104 0.5916 0.0
C1360 C 0.78274 0.35898 0.8588 0.0
C1361 C 0.75771 0.34561 0.87453 0.0
C1362 C 0.78899 0.39472 0.85729 0.0
C1363 C 0.76924 0.41794 0.87148 0.0
C1364 C 0.74241 0.40482 0.88624 0.0
C1365 C 0.7372 0.36875 0.88781 0.0
C1366 C 0.81812 0.40742 0.84145 0.0
C1367 C 0.72015 0.42872 0.90113 0.0
C1368 C 0.82168 0.49769 0.88618 0.0
C1369 C 0.81351 0.5194 0.86672 0.0
C1370 C 0.80526 0.4656 0.88918 0.0
C1371 C 0.77956 0.45519 0.87252 0.0
C1372 C 0.76836 0.47881 0.85456 0.0
C1373 C 0.78567 0.51067 0.85175 0.0
C1374 C 0.81812 0.44142 0.90862 0.0
C1375 C 0.74029 0.46921 0.83695 0.0
H1376 H 0.79866 0.34141 0.84837 0.0
H1377 H 0.71756 0.35869 0.89984 0.0
H1378 H 0.8086 0.42749 0.82878 0.0
H1379 H 0.83841 0.41957 0.85278 0.0
H1380 H 0.83007 0.38619 0.83081 0.0
H1381 H 0.69669 0.4154 0.90798 0.0
H1382 H 0.73513 0.43831 0.91681 0.0
H1383 H 0.71216 0.45164 0.8904 0.0
H1384 H 0.84301 0.50459 0.89791 0.0
H1385 H 0.77928 0.52736 0.83667 0.0
H1386 H 0.83297 0.42 0.9002 0.0
H1387 H 0.7962 0.42965 0.91852 0.0
H1388 H 0.83513 0.45484 0.92177 0.0
H1389 H 0.75103 0.4517 0.82297 0.0
H1390 H 0.72952 0.49243 0.8278 0.0
H1391 H 0.71904 0.45518 0.84616 0.0
C1392 C 0.52189 0.82902 0.87981 0.0
C1393 C 0.4925 0.81386 0.89021 0.0
C1394 C 0.55014 0.80892 0.87269 0.0
C1395 C 0.54867 0.77245 0.87519 0.0
C1396 C 0.51826 0.75665 0.88417 0.0
C1397 C 0.4906 0.7776 0.89184 0.0
C1398 C 0.58211 0.82698 0.86336 0.0
C1399 C 0.51537 0.71779 0.88641 0.0
C1400 C 0.62146 0.73162 0.83978 0.0
C1401 C 0.64704 0.72901 0.85758 0.0
C1402 C 0.58786 0.74239 0.84566 0.0
C1403 C 0.5801 0.7517 0.86976 0.0
C1404 C 0.6051 0.74655 0.88804 0.0
C1405 C 0.63816 0.73483 0.88175 0.0
C1406 C 0.56154 0.74632 0.82579 0.0
C1407 C 0.59815 0.75665 0.91389 0.0
H1408 H 0.52315 0.85691 0.87764 0.0
H1409 H 0.46799 0.76561 0.89977 0.0
H1410 H 0.60441 0.821 0.87521 0.0
H1411 H 0.58851 0.81747 0.84503 0.0
H1412 H 0.57898 0.85558 0.86255 0.0
H1413 H 0.48839 0.7094 0.88988 0.0
H1414 H 0.52479 0.70494 0.86977 0.0
H1415 H 0.53174 0.7087 0.90154 0.0
H1416 H 0.62808 0.72672 0.8211 0.0
H1417 H 0.65778 0.73287 0.89562 0.0
H1418 H 0.55926 0.77407 0.82082 0.0
H1419 H 0.53575 0.73741 0.8319 0.0
H1420 H 0.56897 0.73153 0.80941 0.0
H1421 H 0.59687 0.78532 0.91527 0.0
H1422 H 0.6186 0.74723 0.92632 0.0
H1423 H 0.57295 0.74625 0.92 0.0
C1424 C 0.22303 0.50429 0.82161 0.0
C1425 C 0.22093 0.4813 0.84114 0.0
C1426 C 0.23993 0.53626 0.8239 0.0
C1427 C 0.2552 0.54527 0.84623 0.0
C1428 C 0.25725 0.52016 0.86482 0.0
C1429 C 0.23992 0.4884 0.86209 0.0
C1430 C 0.23745 0.562 0.80348 0.0
C1431 C 0.27403 0.52836 0.88869 0.0
C1432 C 0.2962 0.63496 0.85186 0.0
C1433 C 0.26833 0.65433 0.86082 0.0
C1434 C 0.29288 0.5991 0.84754 0.0
C1435 C 0.26088 0.58253 0.85202 0.0
C1436 C 0.23294 0.60195 0.8614 0.0
C1437 C 0.23707 0.63741 0.86575 0.0
C1438 C 0.3233 0.57921 0.83773 0.0
C1439 C 0.19823 0.58547 0.86642 0.0
H1440 H 0.2088 0.49858 0.80523 0.0
H1441 H 0.23849 0.4707 0.87724 0.0
H1442 H 0.21686 0.5811 0.80759 0.0
H1443 H 0.26198 0.57648 0.80132 0.0
H1444 H 0.23103 0.54914 0.78612 0.0
H1445 H 0.28038 0.50442 0.89889 0.0
H1446 H 0.29795 0.54373 0.8861 0.0
H1447 H 0.25603 0.54409 0.89976 0.0
H1448 H 0.32046 0.64781 0.84802 0.0
H1449 H 0.21534 0.65199 0.87271 0.0
H1450 H 0.31851 0.57256 0.81856 0.0
H1451 H 0.32679 0.55451 0.84768 0.0
H1452 H 0.34762 0.59442 0.8388 0.0
H1453 H 0.1874 0.57451 0.84954 0.0
H1454 H 0.1793 0.6042 0.87393 0.0
H1455 H 0.20121 0.56383 0.87942 0.0
C1456 C 0.52698 0.22898 0.89331 0.0
C1457 C 0.52518 0.19302 0.88975 0.0
C1458 C 0.4988 0.2505 0.88748 0.0
C1459 C 0.4681 0.23555 0.87821 0.0
C1460 C 0.46693 0.19951 0.87347 0.0
C1461 C 0.49556 0.17889 0.87899 0.0
C1462 C 0.50136 0.28891 0.89219 0.0
C1463 C 0.43478 0.18232 0.86366 0.0
C1464 C 0.37843 0.27036 0.88984 0.0
C1465 C 0.36808 0.27993 0.86653 0.0
C1466 C 0.41199 0.25831 0.89432 0.0
C1467 C 0.43603 0.25641 0.87513 0.0
C1468 C 0.42677 0.26932 0.85212 0.0
C1469 C 0.39276 0.28061 0.84801 0.0
C1470 C 0.42062 0.24458 0.9191 0.0
C1471 C 0.45193 0.26877 0.83136 0.0
H1472 H 0.54981 0.24012 0.90153 0.0
H1473 H 0.49436 0.15126 0.8755 0.0
H1474 H 0.49064 0.30386 0.87683 0.0
H1475 H 0.48594 0.29558 0.90839 0.0
H1476 H 0.52844 0.29724 0.89533 0.0
H1477 H 0.43844 0.15415 0.86043 0.0
H1478 H 0.41316 0.18569 0.87658 0.0
H1479 H 0.42697 0.19468 0.84645 0.0
H1480 H 0.35965 0.26989 0.90432 0.0
H1481 H 0.38512 0.28839 0.83 0.0
H1482 H 0.44594 0.25464 0.92525 0.0
H1483 H 0.42256 0.21589 0.91836 0.0
H1484 H 0.40072 0.2516 0.93267 0.0
H1485 H 0.47796 0.27713 0.83735 0.0
H1486 H 0.44338 0.28577 0.81634 0.0
H1487 H 0.45425 0.24193 0.82437 0.0
C1488 C 0.25167 0.35239 0.40626 0.0
C1489 C 0.27219 0.33762 0.38814 0.0
C1490 C 0.24781 0.38852 0.40819 0.0
C1491 C 0.26456 0.41053 0.39142 0.0
C1492 C 0.28615 0.39576 0.37349 0.0
C1493 C 0.28984 0.35947 0.37215 0.0
C1494 C 0.22493 0.40306 0.42776 0.0
C1495 C 0.30433 0.41822 0.35518 0.0
C1496 C 0.22406 0.49946 0.38091 0.0
C1497 C 0.24536 0.52118 0.39474 0.0
C1498 C 0.23029 0.46357 0.37943 0.0
C1499 C 0.25843 0.44884 0.39217 0.0
C1500 C 0.28005 0.47063 0.40612 0.0
C1501 C 0.27332 0.50645 0.40719 0.0
C1502 C 0.20663 0.44135 0.36429 0.0
C1503 C 0.31015 0.45604 0.42012 0.0
H1504 H 0.23793 0.33561 0.41865 0.0
H1505 H 0.30549 0.34817 0.35798 0.0
H1506 H 0.23915 0.42282 0.43838 0.0
H1507 H 0.20232 0.41615 0.41953 0.0
H1508 H 0.21543 0.38267 0.44025 0.0
H1509 H 0.3215 0.40295 0.34316 0.0
H1510 H 0.28496 0.43187 0.34392 0.0
H1511 H 0.31996 0.43833 0.36442 0.0
H1512 H 0.20245 0.51051 0.37116 0.0
H1513 H 0.28998 0.5229 0.41794 0.0
H1514 H 0.19375 0.42173 0.37582 0.0
H1515 H 0.22182 0.4271 0.35053 0.0
H1516 H 0.18645 0.45683 0.35498 0.0
H1517 H 0.30075 0.4368 0.43347 0.0
H1518 H 0.32484 0.47646 0.42983 0.0
H1519 H 0.32799 0.44227 0.40776 0.0
C1520 C 0.4826 0.24761 0.3339 0.0
C1521 C 0.46344 0.2337 0.35313 0.0
C1522 C 0.51826 0.25395 0.33598 0.0
C1523 C 0.53552 0.24637 0.35787 0.0
C1524 C 0.51624 0.233 0.37754 0.0
C1525 C 0.48053 0.22677 0.37494 0.0
C1526 C 0.53765 0.26799 0.31446 0.0
C1527 C 0.53351 0.22458 0.40122 0.0
C1528 C 0.6317 0.22604 0.3541 0.0
C1529 C 0.647 0.25737 0.36129 0.0
C1530 C 0.59565 0.22216 0.35308 0.0
C1531 C 0.57402 0.25025 0.35954 0.0
C1532 C 0.5893 0.28199 0.36694 0.0
C1533 C 0.62562 0.28522 0.36765 0.0
C1534 C 0.58073 0.18795 0.3449 0.0
C1535 C 0.56725 0.31253 0.37406 0.0
H1536 H 0.4698 0.25317 0.31696 0.0
H1537 H 0.46608 0.21614 0.38994 0.0
H1538 H 0.55197 0.2918 0.31954 0.0
H1539 H 0.55696 0.24868 0.30833 0.0
H1540 H 0.52027 0.27416 0.29912 0.0
H1541 H 0.5147 0.21646 0.41524 0.0
H1542 H 0.55244 0.20335 0.39857 0.0
H1543 H 0.54801 0.24744 0.40791 0.0
H1544 H 0.64801 0.20436 0.34914 0.0
H1545 H 0.63726 0.30945 0.3733 0.0
H1546 H 0.56467 0.19188 0.32856 0.0
H1547 H 0.56366 0.17717 0.3591 0.0
H1548 H 0.60103 0.16854 0.3407 0.0
H1549 H 0.55082 0.3205 0.35864 0.0
H1550 H 0.58295 0.33513 0.37988 0.0
H1551 H 0.5497 0.30509 0.389 0.0
C1552 C 0.76369 0.62779 0.38797 0.0
C1553 C 0.73932 0.64492 0.37354 0.0
C1554 C 0.76706 0.59147 0.38748 0.0
C1555 C 0.74593 0.57157 0.37186 0.0
C1556 C 0.72105 0.58875 0.35735 0.0
C1557 C 0.71787 0.62517 0.35849 0.0
C1558 C 0.79349 0.5744 0.40358 0.0
C1559 C 0.69826 0.56871 0.34025 0.0
C1560 C 0.77808 0.48082 0.35495 0.0
C1561 C 0.75808 0.45951 0.36999 0.0
C1562 C 0.77405 0.5172 0.35509 0.0
C1563 C 0.74981 0.53283 0.3709 0.0
C1564 C 0.7298 0.51143 0.38624 0.0
C1565 C 0.734 0.47519 0.38549 0.0
C1566 C 0.7957 0.53892 0.33825 0.0
C1567 C 0.7041 0.52683 0.40368 0.0
H1568 H 0.78042 0.64289 0.39961 0.0
H1569 H 0.69924 0.63827 0.3471 0.0
H1570 H 0.78079 0.55486 0.41528 0.0
H1571 H 0.81284 0.56052 0.39246 0.0
H1572 H 0.80719 0.59338 0.41522 0.0
H1573 H 0.68024 0.58579 0.33017 0.0
H1574 H 0.71443 0.55436 0.3271 0.0
H1575 H 0.68294 0.54923 0.35035 0.0
H1576 H 0.79663 0.46906 0.34283 0.0
H1577 H 0.71848 0.45911 0.39728 0.0
H1578 H 0.81211 0.55695 0.3488 0.0
H1579 H 0.77873 0.55495 0.32661 0.0
H1580 H 0.81262 0.52287 0.32656 0.0
H1581 H 0.71747 0.54478 0.41622 0.0
H1582 H 0.69055 0.50672 0.41445 0.0
H1583 H 0.68457 0.54222 0.39373 0.0
C1584 C 0.54425 0.7119 0.3635 0.0
C1585 C 0.557 0.74553 0.35984 0.0
C1586 C 0.50864 0.70564 0.36522 0.0
C1587 C 0.48529 0.73368 0.36322 0.0
C1588 C 0.49799 0.76766 0.35942 0.0
C1589 C 0.5337 0.77317 0.35778 0.0
C1590 C 0.49601 0.66907 0.36927 0.0
C1591 C 0.47386 0.79823 0.35718 0.0
C1592 C 0.39165 0.71783 0.34643 0.0
C1593 C 0.37528 0.72133 0.3688 0.0
C1594 C 0.42761 0.72095 0.3444 0.0
C1595 C 0.44753 0.72767 0.3653 0.0
C1596 C 0.43115 0.73015 0.38806 0.0
C1597 C 0.39514 0.72698 0.38953 0.0
C1598 C 0.44413 0.71815 0.31982 0.0
C1599 C 0.45155 0.73718 0.41074 0.0
H1600 H 0.56208 0.6904 0.3651 0.0
H1601 H 0.54333 0.79924 0.35494 0.0
H1602 H 0.48106 0.66771 0.38631 0.0
H1603 H 0.47836 0.66131 0.35446 0.0
H1604 H 0.51751 0.65009 0.37022 0.0
H1605 H 0.48787 0.82296 0.35407 0.0
H1606 H 0.45565 0.79401 0.34202 0.0
H1607 H 0.45821 0.80083 0.37383 0.0
H1608 H 0.37628 0.71361 0.33037 0.0
H1609 H 0.38245 0.72971 0.40685 0.0
H1610 H 0.46503 0.69851 0.32011 0.0
H1611 H 0.45608 0.74331 0.31489 0.0
H1612 H 0.42523 0.71096 0.3056 0.0
H1613 H 0.47249 0.71779 0.41275 0.0
H1614 H 0.43514 0.73649 0.42717 0.0
H1615 H 0.46393 0.76306 0.40953 0.0
C1616 C 0.23809 0.6478 0.10232 0.0
C1617 C 0.26306 0.66132 0.11803 0.0
C1618 C 0.23291 0.61187 0.1001 0.0
C1619 C 0.25275 0.58873 0.11428 0.0
C1620 C 0.27842 0.60226 0.12995 0.0
C1621 C 0.28346 0.6384 0.13149 0.0
C1622 C 0.20567 0.59871 0.08289 0.0
C1623 C 0.29983 0.57861 0.14562 0.0
C1624 C 0.21338 0.49963 0.12642 0.0
C1625 C 0.23158 0.4784 0.11028 0.0
C1626 C 0.22037 0.53537 0.12815 0.0
C1627 C 0.24587 0.55053 0.11314 0.0
C1628 C 0.26409 0.52929 0.09664 0.0
C1629 C 0.25691 0.49354 0.09552 0.0
C1630 C 0.2005 0.55693 0.14614 0.0
C1631 C 0.29104 0.5444 0.08002 0.0
H1632 H 0.22223 0.66542 0.09187 0.0
H1633 H 0.30255 0.64875 0.14384 0.0
H1634 H 0.21706 0.57951 0.07031 0.0
H1635 H 0.18498 0.58531 0.0931 0.0
H1636 H 0.19381 0.61992 0.07217 0.0
H1637 H 0.31929 0.59304 0.15638 0.0
H1638 H 0.28274 0.56417 0.15816 0.0
H1639 H 0.31337 0.55916 0.13433 0.0
H1640 H 0.19392 0.48824 0.13801 0.0
H1641 H 0.27108 0.47745 0.08293 0.0
H1642 H 0.18562 0.5773 0.1366 0.0
H1643 H 0.21866 0.57025 0.15853 0.0
H1644 H 0.18229 0.54111 0.15702 0.0
H1645 H 0.27925 0.56471 0.06849 0.0
H1646 H 0.30293 0.52447 0.06819 0.0
H1647 H 0.31173 0.557 0.09072 0.0
C1648 C 0.52519 0.28927 0.13216 0.0
C1649 C 0.53529 0.25472 0.12862 0.0
C1650 C 0.49033 0.29799 0.13546 0.0
C1651 C 0.46508 0.27148 0.13535 0.0
C1652 C 0.47526 0.23646 0.13253 0.0
C1653 C 0.51022 0.22853 0.1291 0.0
C1654 C 0.48039 0.3356 0.13826 0.0
C1655 C 0.44911 0.20741 0.13249 0.0
C1656 C 0.37386 0.28412 0.15879 0.0
C1657 C 0.35539 0.28614 0.13713 0.0
C1658 C 0.40999 0.28098 0.15864 0.0
C1659 C 0.42777 0.28023 0.13632 0.0
C1660 C 0.40926 0.28464 0.11452 0.0
C1661 C 0.37324 0.28734 0.11521 0.0
C1662 C 0.42883 0.27627 0.18224 0.0
C1663 C 0.42727 0.28447 0.09037 0.0
H1664 H 0.54445 0.30965 0.13187 0.0
H1665 H 0.51784 0.20174 0.12659 0.0
H1666 H 0.46491 0.34394 0.12246 0.0
H1667 H 0.46403 0.33912 0.15449 0.0
H1668 H 0.50328 0.35281 0.13979 0.0
H1669 H 0.46146 0.18145 0.13171 0.0
H1670 H 0.43281 0.20876 0.14891 0.0
H1671 H 0.43174 0.21015 0.11669 0.0
H1672 H 0.35998 0.28309 0.17576 0.0
H1673 H 0.35891 0.2891 0.09845 0.0
H1674 H 0.45163 0.29362 0.18314 0.0
H1675 H 0.43839 0.24924 0.18356 0.0
H1676 H 0.41195 0.28154 0.19802 0.0
H1677 H 0.44943 0.30268 0.09048 0.0
H1678 H 0.40965 0.29172 0.07539 0.0
H1679 H 0.43765 0.25819 0.08669 0.0
C1680 C 0.78972 0.53741 0.09615 0.0
C1681 C 0.76568 0.56221 0.0885 0.0
C1682 C 0.78046 0.50239 0.09818 0.0
C1683 C 0.74641 0.492 0.09231 0.0
C1684 C 0.72241 0.5167 0.08375 0.0
C1685 C 0.73233 0.55154 0.08196 0.0
C1686 C 0.80681 0.47667 0.10727 0.0
C1687 C 0.68598 0.50649 0.07715 0.0
C1688 C 0.7328 0.39595 0.08172 0.0
C1689 C 0.72084 0.3851 0.10433 0.0
C1690 C 0.74024 0.43092 0.07727 0.0
C1691 C 0.73567 0.45545 0.09596 0.0
C1692 C 0.72228 0.44479 0.11854 0.0
C1693 C 0.71494 0.40963 0.12245 0.0
C1694 C 0.75422 0.44138 0.05292 0.0
C1695 C 0.71699 0.47028 0.13887 0.0
H1696 H 0.81553 0.54546 0.1012 0.0
H1697 H 0.71365 0.57055 0.07591 0.0
H1698 H 0.79794 0.46541 0.12461 0.0
H1699 H 0.80959 0.45498 0.09429 0.0
H1700 H 0.83256 0.48869 0.11012 0.0
H1701 H 0.67107 0.52848 0.06949 0.0
H1702 H 0.68628 0.48506 0.06382 0.0
H1703 H 0.6723 0.49684 0.09339 0.0
H1704 H 0.73736 0.37693 0.06768 0.0
H1705 H 0.7058 0.40119 0.13997 0.0
H1706 H 0.78123 0.45054 0.05487 0.0
H1707 H 0.73899 0.4632 0.04541 0.0
H1708 H 0.75382 0.41962 0.0398 0.0
H1709 H 0.74225 0.48121 0.14445 0.0
H1710 H 0.70462 0.45813 0.15484 0.0
H1711 H 0.70069 0.49221 0.13274 0.0
C1712 C 0.4711 0.7228 0.14139 0.0
C1713 C 0.45607 0.75583 0.14287 0.0
C1714 C 0.50711 0.71871 0.1402 0.0
C1715 C 0.52866 0.74835 0.14063 0.0
C1716 C 0.51368 0.78171 0.1427 0.0
C1717 C 0.4776 0.78505 0.14371 0.0
C1718 C 0.52204 0.68273 0.13784 0.0
C1719 C 0.53575 0.81398 0.14333 0.0
C1720 C 0.6249 0.74026 0.15388 0.0
C1721 C 0.63895 0.74327 0.1307 0.0
C1722 C 0.58894 0.74112 0.15744 0.0
C1723 C 0.56668 0.74476 0.13729 0.0
C1724 C 0.58086 0.74644 0.11379 0.0
C1725 C 0.6168 0.74584 0.11081 0.0
C1726 C 0.57485 0.73938 0.18278 0.0
C1727 C 0.55811 0.74994 0.0918 0.0
H1728 H 0.4547 0.70005 0.14076 0.0
H1729 H 0.46627 0.81067 0.145 0.0
H1730 H 0.53537 0.68019 0.12022 0.0
H1731 H 0.54159 0.67818 0.15211 0.0
H1732 H 0.50195 0.66226 0.1391 0.0
H1733 H 0.52027 0.8378 0.14642 0.0
H1734 H 0.55541 0.81185 0.1578 0.0
H1735 H 0.54978 0.81678 0.126 0.0
H1736 H 0.64202 0.73844 0.1693 0.0
H1737 H 0.62762 0.7481 0.09285 0.0
H1738 H 0.55515 0.71861 0.18419 0.0
H1739 H 0.5619 0.76419 0.18729 0.0
H1740 H 0.59539 0.73447 0.19634 0.0
H1741 H 0.5385 0.72898 0.09153 0.0
H1742 H 0.57308 0.74889 0.07474 0.0
H1743 H 0.54404 0.77496 0.09248 0.0
C1744 C 0.31851 0.26111 0.28458 0.0
C1745 C 0.29238 0.25311 0.30116 0.0
C1746 C 0.31042 0.27589 0.26211 0.0
C1747 C 0.27551 0.28317 0.25643 0.0
C1748 C 0.24932 0.27651 0.27358 0.0
C1749 C 0.25806 0.26139 0.29565 0.0
C1750 C 0.33892 0.28245 0.24412 0.0
C1751 C 0.21181 0.2842 0.26832 0.0
C1752 C 0.24698 0.34063 0.20465 0.0
C1753 C 0.23615 0.31578 0.18785 0.0
C1754 C 0.26168 0.3305 0.22671 0.0
C1755 C 0.26553 0.29477 0.23191 0.0
C1756 C 0.25579 0.26971 0.21459 0.0
C1757 C 0.2408 0.28054 0.19293 0.0
C1758 C 0.27157 0.3579 0.24487 0.0
C1759 C 0.25954 0.23134 0.21938 0.0
H1760 H 0.34509 0.25483 0.28885 0.0
H1761 H 0.23781 0.25583 0.30858 0.0
H1762 H 0.3358 0.26483 0.22845 0.0
H1763 H 0.33742 0.30936 0.23716 0.0
H1764 H 0.36493 0.27823 0.25203 0.0
H1765 H 0.19502 0.27998 0.28429 0.0
H1766 H 0.20877 0.31142 0.26224 0.0
H1767 H 0.20259 0.26723 0.2535 0.0
H1768 H 0.2433 0.36792 0.20079 0.0
H1769 H 0.23182 0.26123 0.18024 0.0
H1770 H 0.29791 0.35302 0.25193 0.0
H1771 H 0.25357 0.35685 0.26041 0.0
H1772 H 0.27069 0.3844 0.23705 0.0
H1773 H 0.28595 0.2254 0.22591 0.0
H1774 H 0.25435 0.21549 0.20304 0.0
H1775 H 0.24118 0.22339 0.2337 0.0
C1776 C 0.77267 0.26734 0.27812 0.0
C1777 C 0.75308 0.28991 0.29239 0.0
C1778 C 0.7618 0.25832 0.25484 0.0
C1779 C 0.72998 0.27118 0.24611 0.0
C1780 C 0.71007 0.29396 0.26053 0.0
C1781 C 0.72218 0.30352 0.28341 0.0
C1782 C 0.78436 0.23519 0.23956 0.0
C1783 C 0.67595 0.30809 0.2518 0.0
C1784 C 0.7111 0.27295 0.17906 0.0
C1785 C 0.69101 0.24307 0.17612 0.0
C1786 C 0.72453 0.28214 0.20164 0.0
C1787 C 0.71745 0.26094 0.22185 0.0
C1788 C 0.69746 0.23049 0.21901 0.0
C1789 C 0.68464 0.2218 0.19613 0.0
C1790 C 0.74628 0.31454 0.20366 0.0
C1791 C 0.68864 0.20773 0.2403 0.0
H1792 H 0.79671 0.25703 0.28511 0.0
H1793 H 0.70693 0.32075 0.2946 0.0
H1794 H 0.77027 0.21109 0.23486 0.0
H1795 H 0.79078 0.24852 0.22239 0.0
H1796 H 0.80877 0.22807 0.24882 0.0
H1797 H 0.66305 0.32452 0.26555 0.0
H1798 H 0.68 0.32379 0.23527 0.0
H1799 H 0.65842 0.28641 0.24697 0.0
H1800 H 0.71571 0.28973 0.16386 0.0
H1801 H 0.6688 0.19882 0.19407 0.0
H1802 H 0.77395 0.30716 0.20308 0.0
H1803 H 0.74169 0.32847 0.22084 0.0
H1804 H 0.74114 0.33277 0.1886 0.0
H1805 H 0.71259 0.19862 0.24923 0.0
H1806 H 0.67305 0.18478 0.23502 0.0
H1807 H 0.6739 0.22294 0.25381 0.0
C1808 C 0.693 0.7402 0.27515 0.0
C1809 C 0.7203 0.74727 0.29103 0.0
C1810 C 0.69946 0.73168 0.25096 0.0
C1811 C 0.73397 0.72982 0.24272 0.0
C1812 C 0.76157 0.73639 0.25878 0.0
C1813 C 0.75437 0.74528 0.28268 0.0
C1814 C 0.66947 0.72519 0.23414 0.0
C1815 C 0.79877 0.73443 0.25068 0.0
C1816 C 0.76071 0.6812 0.18657 0.0
C1817 C 0.76703 0.70863 0.17063 0.0
C1818 C 0.74806 0.68754 0.20983 0.0
C1819 C 0.7417 0.72209 0.21716 0.0
C1820 C 0.74665 0.7497 0.20075 0.0
C1821 C 0.75969 0.74263 0.17776 0.0
C1822 C 0.74325 0.65749 0.22695 0.0
C1823 C 0.73994 0.78689 0.20785 0.0
H1824 H 0.6666 0.74181 0.2815 0.0
H1825 H 0.7756 0.75068 0.29483 0.0
H1826 H 0.66983 0.74439 0.21925 0.0
H1827 H 0.6718 0.69914 0.22583 0.0
H1828 H 0.64418 0.72691 0.24351 0.0
H1829 H 0.81719 0.73897 0.26571 0.0
H1830 H 0.80417 0.70859 0.24275 0.0
H1831 H 0.80364 0.75403 0.23645 0.0
H1832 H 0.76646 0.65486 0.18108 0.0
H1833 H 0.76511 0.76391 0.16561 0.0
H1834 H 0.71748 0.65876 0.23562 0.0
H1835 H 0.76284 0.65899 0.24152 0.0
H1836 H 0.7459 0.63206 0.21774 0.0
H1837 H 0.71422 0.78938 0.21646 0.0
H1838 H 0.74113 0.80474 0.19215 0.0
H1839 H 0.75949 0.79528 0.22126 0.0
C1840 C 0.2755 0.68072 0.31311 0.0
C1841 C 0.24037 0.67937 0.31859 0.0
C1842 C 0.28688 0.69282 0.29065 0.0
C1843 C 0.26223 0.70262 0.27309 0.0
C1844 C 0.22652 0.69914 0.2781 0.0
C1845 C 0.21598 0.68762 0.30095 0.0
C1846 C 0.32517 0.69626 0.28617 0.0
C1847 C 0.1995 0.70821 0.25953 0.0
C1848 C 0.28459 0.76838 0.2248 0.0
C1849 C 0.29189 0.74688 0.20519 0.0
C1850 C 0.27612 0.7542 0.2473 0.0
C1851 C 0.27364 0.71774 0.24981 0.0
C1852 C 0.28111 0.69596 0.22992 0.0
C1853 C 0.29069 0.71087 0.20784 0.0
C1854 C 0.26939 0.77819 0.2683 0.0
C1855 C 0.27807 0.65703 0.23179 0.0
H1856 H 0.29404 0.67193 0.32636 0.0
H1857 H 0.18872 0.68568 0.30518 0.0
H1858 H 0.33218 0.68679 0.26794 0.0
H1859 H 0.33247 0.72405 0.28714 0.0
H1860 H 0.3406 0.68181 0.29972 0.0
H1861 H 0.17301 0.70154 0.26565 0.0
H1862 H 0.20047 0.73639 0.25561 0.0
H1863 H 0.2048 0.69436 0.24239 0.0
H1864 H 0.28555 0.79628 0.22249 0.0
H1865 H 0.29599 0.69447 0.19239 0.0
H1866 H 0.28588 0.77082 0.28384 0.0
H1867 H 0.24213 0.77574 0.27418 0.0
H1868 H 0.2745 0.80574 0.26371 0.0
H1869 H 0.29512 0.64719 0.24632 0.0
H1870 H 0.28499 0.64381 0.21466 0.0
H1871 H 0.25122 0.64987 0.23666 0.0
C1872 C 0.74426 0.84083 0.69248 0.0
C1873 C 0.74166 0.81837 0.67274 0.0
C1874 C 0.75478 0.82845 0.71511 0.0
C1875 C 0.76289 0.79288 0.71783 0.0
C1876 C 0.76133 0.77039 0.69775 0.0
C1877 C 0.75028 0.78337 0.67554 0.0
C1878 C 0.75593 0.85307 0.73625 0.0
C1879 C 0.76999 0.73233 0.69991 0.0
C1880 C 0.81125 0.76295 0.77343 0.0
C1881 C 0.78425 0.74989 0.78767 0.0
C1882 C 0.80474 0.77711 0.7506 0.0
C1883 C 0.77041 0.77853 0.74201 0.0
C1884 C 0.74309 0.76535 0.75623 0.0
C1885 C 0.7504 0.75092 0.77881 0.0
C1886 C 0.83452 0.79041 0.73564 0.0
C1887 C 0.7061 0.76652 0.74763 0.0
H1888 H 0.73735 0.86789 0.69039 0.0
H1889 H 0.74736 0.76579 0.66051 0.0
H1890 H 0.7362 0.84539 0.74974 0.0
H1891 H 0.78145 0.8517 0.74528 0.0
H1892 H 0.75102 0.88033 0.73079 0.0
H1893 H 0.77051 0.71913 0.6821 0.0
H1894 H 0.79549 0.72893 0.70869 0.0
H1895 H 0.75053 0.71926 0.71143 0.0
H1896 H 0.83754 0.76209 0.78009 0.0
H1897 H 0.72943 0.74075 0.78958 0.0
H1898 H 0.83069 0.81827 0.73147 0.0
H1899 H 0.83556 0.7764 0.71819 0.0
H1900 H 0.85974 0.78729 0.74493 0.0
H1901 H 0.69866 0.79361 0.74339 0.0
H1902 H 0.68777 0.7561 0.76123 0.0
H1903 H 0.70335 0.75124 0.7308 0.0
C1904 C 0.26149 0.83253 0.80425 0.0
C1905 C 0.26557 0.80808 0.82272 0.0
C1906 C 0.24927 0.82261 0.78148 0.0
C1907 C 0.24086 0.78743 0.77717 0.0
C1908 C 0.24381 0.76288 0.796 0.0
C1909 C 0.25653 0.77348 0.81847 0.0
C1910 C 0.24676 0.84946 0.76174 0.0
C1911 C 0.23481 0.72519 0.79219 0.0
C1912 C 0.19056 0.76558 0.72034 0.0
C1913 C 0.21714 0.75489 0.70486 0.0
C1914 C 0.19773 0.7758 0.74414 0.0
C1915 C 0.23231 0.77579 0.75239 0.0
C1916 C 0.25918 0.76502 0.73683 0.0
C1917 C 0.25123 0.75446 0.71334 0.0
C1918 C 0.16842 0.7866 0.76043 0.0
C1919 C 0.29644 0.76493 0.74491 0.0
H1920 H 0.26856 0.85933 0.80743 0.0
H1921 H 0.26002 0.75445 0.83259 0.0
H1922 H 0.26573 0.84344 0.74735 0.0
H1923 H 0.22075 0.84889 0.7534 0.0
H1924 H 0.25189 0.87609 0.76848 0.0
H1925 H 0.2351 0.71024 0.80932 0.0
H1926 H 0.20887 0.72277 0.78388 0.0
H1927 H 0.25362 0.71328 0.7796 0.0
H1928 H 0.16413 0.76574 0.71393 0.0
H1929 H 0.27193 0.74624 0.70152 0.0
H1930 H 0.17205 0.81388 0.76622 0.0
H1931 H 0.1683 0.77042 0.77697 0.0
H1932 H 0.14288 0.78424 0.75147 0.0
H1933 H 0.30423 0.7914 0.75055 0.0
H1934 H 0.31427 0.75605 0.73049 0.0
H1935 H 0.29959 0.74771 0.76077 0.0
C1936 C 0.19115 0.25267 0.78538 0.0
C1937 C 0.21967 0.26374 0.79899 0.0
C1938 C 0.19533 0.23996 0.76185 0.0
C1939 C 0.22882 0.23809 0.75179 0.0
C1940 C 0.2576 0.24987 0.76522 0.0
C1941 C 0.25266 0.26265 0.78862 0.0
C1942 C 0.16403 0.22799 0.74791 0.0
C1943 C 0.2937 0.24858 0.75497 0.0
C1944 C 0.24943 0.17461 0.7016 0.0
C1945 C 0.25047 0.19653 0.68148 0.0
C1946 C 0.24117 0.1876 0.72451 0.0
C1947 C 0.23408 0.22339 0.72732 0.0
C1948 C 0.23425 0.24545 0.70695 0.0
C1949 C 0.24235 0.23168 0.68425 0.0
C1950 C 0.2413 0.16331 0.74586 0.0
C1951 C 0.2267 0.28373 0.70918 0.0
H1952 H 0.16553 0.25352 0.7932 0.0
H1953 H 0.27484 0.27114 0.79895 0.0
H1954 H 0.16226 0.24221 0.73057 0.0
H1955 H 0.16653 0.20005 0.74352 0.0
H1956 H 0.13966 0.23195 0.7581 0.0
H1957 H 0.31325 0.25917 0.76765 0.0
H1958 H 0.30069 0.22141 0.75061 0.0
H1959 H 0.29487 0.26361 0.73793 0.0
H1960 H 0.25583 0.14742 0.69953 0.0
H1961 H 0.24369 0.24877 0.66884 0.0
H1962 H 0.2166 0.16534 0.75588 0.0
H1963 H 0.26227 0.17075 0.75847 0.0
H1964 H 0.24519 0.13587 0.74042 0.0
H1965 H 0.24195 0.29541 0.72404 0.0
H1966 H 0.19901 0.28745 0.71355 0.0
H1967 H 0.23257 0.29806 0.69232 0.0
C1968 C 0.751 0.16668 0.79968 0.0
C1969 C 0.75041 0.18932 0.81942 0.0
C1970 C 0.75935 0.17878 0.77654 0.0
C1971 C 0.7672 0.2143 0.77322 0.0
C1972 C 0.76806 0.23691 0.79327 0.0
C1973 C 0.75937 0.22416 0.8161 0.0
C1974 C 0.75822 0.15392 0.75553 0.0
C1975 C 0.77647 0.27494 0.79049 0.0
C1976 C 0.80812 0.24376 0.71457 0.0
C1977 C 0.7793 0.25617 0.70189 0.0
C1978 C 0.80464 0.22999 0.73785 0.0
C1979 C 0.77156 0.22847 0.74857 0.0
C1980 C 0.74241 0.24095 0.73587 0.0
C1981 C 0.74665 0.25474 0.71271 0.0
C1982 C 0.8363 0.21715 0.75099 0.0
C1983 C 0.70668 0.23969 0.74676 0.0
H1984 H 0.74398 0.13972 0.80217 0.0
H1985 H 0.75824 0.24187 0.83118 0.0
H1986 H 0.73663 0.16103 0.74334 0.0
H1987 H 0.78239 0.15568 0.74488 0.0
H1988 H 0.75457 0.12665 0.76142 0.0
H1989 H 0.77946 0.28818 0.80816 0.0
H1990 H 0.80064 0.27832 0.78002 0.0
H1991 H 0.75551 0.28797 0.78031 0.0
H1992 H 0.83347 0.24483 0.70634 0.0
H1993 H 0.72424 0.26415 0.703 0.0
H1994 H 0.83318 0.18936 0.75565 0.0
H1995 H 0.83952 0.23152 0.76818 0.0
H1996 H 0.8602 0.22022 0.74012 0.0
H1997 H 0.69984 0.21257 0.7514 0.0
H1998 H 0.68667 0.25012 0.73439 0.0
H1999 H 0.70611 0.25491 0.76373 0.0
C2000 C 0.0158 0.44455 0.07445 0.0
C2001 C 0.04177 0.43995 0.0918 0.0
C2002 C 0.00177 0.47736 0.06992 0.0
C2003 C 0.01416 0.50627 0.08298 0.0
C2004 C 0.04201 0.50217 0.09932 0.0
C2005 C 0.05553 0.46896 0.10354 0.0
C2006 C 0.97236 0.48069 0.05219 0.0
C2007 C 0.05615 0.53251 0.11339 0.0
C2008 C 0.99177 0.59763 0.06317 0.0
C2009 C 0.96533 0.60628 0.0794 0.0
C2010 C 0.00749 0.56492 0.06376 0.0
C2011 C 0.99635 0.54022 0.08091 0.0
C2012 C 0.9686 0.54823 0.0966 0.0
C2013 C 0.95342 0.58121 0.09567 0.0
C2014 C 0.03678 0.55723 0.04661 0.0
C2015 C 0.95578 0.52237 0.11499 0.0
H2016 H 0.00545 0.42213 0.06513 0.0
H2017 H 0.07547 0.46543 0.11704 0.0
H2018 H 0.94822 0.4869 0.06205 0.0
H2019 H 0.97728 0.50223 0.0394 0.0
H2020 H 0.96819 0.45648 0.04174 0.0
H2021 H 0.07984 0.52562 0.12362 0.0
H2022 H 0.06222 0.55437 0.1011 0.0
H2023 H 0.03636 0.54179 0.12633 0.0
H2024 H 1.00074 0.61683 0.05034 0.0
H2025 H 0.93326 0.58786 0.1084 0.0
H2026 H 0.03162 0.53289 0.0366 0.0
H2027 H 0.06098 0.55333 0.05696 0.0
H2028 H 0.04094 0.57848 0.03341 0.0
H2029 H 0.94872 0.49768 0.106 0.0
H2030 H 0.93296 0.53205 0.12508 0.0
H2031 H 0.97664 0.51651 0.12808 0.0
C2032 C 0.43579 0.94449 0.13351 0.0
C2033 C 0.40681 0.95157 0.1192 0.0
C2034 C 0.46763 0.96052 0.12883 0.0
C2035 C 0.47044 0.98433 0.10948 0.0
C2036 C 0.44172 0.99036 0.09431 0.0
C2037 C 0.41032 0.97375 0.09927 0.0
C2038 C 0.49789 0.95302 0.14518 0.0
C2039 C 0.44375 0.01539 0.07342 0.0
C2040 C 0.54075 0.05255 0.11524 0.0
C2041 C 0.567 0.03829 0.10099 0.0
C2042 C 0.50881 0.03566 0.11768 0.0
C2043 C 0.50313 0.00376 0.10563 0.0
C2044 C 0.52907 0.98994 0.09051 0.0
C2045 C 0.56059 0.00746 0.08828 0.0
C2046 C 0.48154 0.05139 0.13375 0.0
C2047 C 0.52396 0.9561 0.07729 0.0
H2048 H 0.43321 0.92764 0.14905 0.0
H2049 H 0.38812 0.97889 0.08791 0.0
H2050 H 0.52068 0.94521 0.13436 0.0
H2051 H 0.50504 0.97685 0.15521 0.0
H2052 H 0.49212 0.93218 0.1584 0.0
H2053 H 0.41966 0.01567 0.06254 0.0
H2054 H 0.44855 0.04196 0.0803 0.0
H2055 H 0.46565 0.00859 0.06144 0.0
H2056 H 0.54562 0.07624 0.12519 0.0
H2057 H 0.58059 0.99666 0.07686 0.0
H2058 H 0.47657 0.03398 0.14929 0.0
H2059 H 0.4569 0.05412 0.12372 0.0
H2060 H 0.48924 0.07725 0.14074 0.0
H2061 H 0.52066 0.93474 0.09049 0.0
H2062 H 0.54609 0.94973 0.06535 0.0
H2063 H 0.50014 0.95712 0.06622 0.0
C2064 C 0.02292 0.55647 0.36514 0.0
C2065 C 0.04558 0.56212 0.38447 0.0
C2066 C 0.00586 0.52475 0.36232 0.0
C2067 C 0.01174 0.49793 0.3792 0.0
C2068 C 0.03574 0.50294 0.39819 0.0
C2069 C 0.05249 0.53508 0.40059 0.0
C2070 C 0.98081 0.5203 0.34167 0.0
C2071 C 0.04285 0.47475 0.41639 0.0
C2072 C 0.94251 0.42857 0.38563 0.0
C2073 C 0.95677 0.40149 0.37211 0.0
C2074 C 0.9602 0.46019 0.38818 0.0
C2075 C 0.99273 0.46466 0.37686 0.0
C2076 C 0.0068 0.43763 0.36277 0.0
C2077 C 0.98858 0.40648 0.36048 0.0
C2078 C 0.94434 0.48864 0.4032 0.0
C2079 C 0.0412 0.44149 0.35022 0.0
H2080 H 0.01782 0.57736 0.35255 0.0
H2081 H 0.0698 0.53957 0.41563 0.0
H2082 H 0.98801 0.49739 0.33068 0.0
H2083 H 0.95448 0.51557 0.34881 0.0
H2084 H 0.97997 0.5434 0.32972 0.0
H2085 H 0.06314 0.48231 0.42954 0.0
H2086 H 0.01884 0.46858 0.42642 0.0
H2087 H 0.05112 0.4507 0.40707 0.0
H2088 H 0.91802 0.42469 0.39469 0.0
H2089 H 0.9994 0.38575 0.34966 0.0
H2090 H 0.94097 0.51233 0.39211 0.0
H2091 H 0.96186 0.49542 0.41831 0.0
H2092 H 0.91886 0.4811 0.41075 0.0
H2093 H 0.0403 0.46361 0.33746 0.0
H2094 H 0.04863 0.4178 0.34009 0.0
H2095 H 0.06167 0.44725 0.36363 0.0
C2096 C 0.56751 0.9424 0.37025 0.0
C2097 C 0.59203 0.95328 0.35332 0.0
C2098 C 0.53493 0.95846 0.37149 0.0
C2099 C 0.52675 0.98568 0.35525 0.0
C2100 C 0.55115 0.99593 0.33768 0.0
C2101 C 0.58344 0.97965 0.33696 0.0
C2102 C 0.50951 0.94681 0.39045 0.0
C2103 C 0.54332 0.02437 0.31978 0.0
C2104 C 0.43261 0.0066 0.34328 0.0
C2105 C 0.42752 0.0363 0.35745 0.0
C2106 C 0.46469 0.98988 0.34248 0.0
C2107 C 0.49247 1.00312 0.35622 0.0
C2108 C 0.48774 0.03354 0.37021 0.0
C2109 C 0.45528 0.04991 0.37057 0.0
C2110 C 0.46875 0.95791 0.327 0.0
C2111 C 0.51681 0.04844 0.38507 0.0
H2112 H 0.57424 0.92217 0.38297 0.0
H2113 H 0.60231 0.98784 0.32369 0.0
H2114 H 0.50302 0.96887 0.40246 0.0
H2115 H 0.48515 0.93821 0.38179 0.0
H2116 H 0.51972 0.92523 0.40162 0.0
H2117 H 0.56498 0.02891 0.30704 0.0
H2118 H 0.5199 0.0177 0.30923 0.0
H2119 H 0.53785 0.04892 0.32946 0.0
H2120 H 0.41122 0.99623 0.33292 0.0
H2121 H 0.45129 0.0727 0.38166 0.0
H2122 H 0.47662 0.93558 0.33833 0.0
H2123 H 0.48945 0.96207 0.31348 0.0
H2124 H 0.44457 0.95101 0.31736 0.0
H2125 H 0.52603 0.02882 0.3982 0.0
H2126 H 0.5089 0.07208 0.39508 0.0
H2127 H 0.53894 0.05507 0.37324 0.0
C2128 C 0.07173 0.45337 0.85718 0.0
C2129 C 0.09563 0.45783 0.83844 0.0
C2130 C 0.03994 0.47091 0.85705 0.0
C2131 C 0.03178 0.49349 0.83771 0.0
C2132 C 0.05536 0.49734 0.8184 0.0
C2133 C 0.08692 0.47944 0.81898 0.0
C2134 C 0.01539 0.46588 0.8779 0.0
C2135 C 0.04752 0.52088 0.79735 0.0
C2136 C 0.93657 0.51316 0.82945 0.0
C2137 C 0.93307 0.54492 0.84157 0.0
C2138 C 0.96869 0.49674 0.82739 0.0
C2139 C 0.99825 0.51251 0.83758 0.0
C2140 C 0.99526 0.54551 0.84871 0.0
C2141 C 0.96263 0.56139 0.85055 0.0
C2142 C 0.97068 0.46179 0.8152 0.0
C2143 C 0.02625 0.56333 0.85959 0.0
H2144 H 0.07844 0.43722 0.87247 0.0
H2145 H 0.10518 0.48284 0.80435 0.0
H2146 H 0.01085 0.49103 0.88707 0.0
H2147 H 0.99005 0.45652 0.8712 0.0
H2148 H 0.02533 0.44704 0.89136 0.0
H2149 H 0.06832 0.52058 0.78356 0.0
H2150 H 0.02296 0.51298 0.78865 0.0
H2151 H 0.04411 0.54787 0.80382 0.0
H2152 H 0.91381 0.50062 0.82212 0.0
H2153 H 0.96002 0.58589 0.85995 0.0
H2154 H 0.97792 0.44172 0.82861 0.0
H2155 H 0.99097 0.46194 0.80109 0.0
H2156 H 0.94579 0.45418 0.80678 0.0
H2157 H 0.03563 0.54817 0.87528 0.0
H2158 H 0.02022 0.59007 0.86572 0.0
H2159 H 0.04763 0.56453 0.84631 0.0
C2160 C 0.53058 0.0787 0.9446 0.0
C2161 C 0.55571 0.08015 0.92641 0.0
C2162 C 0.51252 0.04792 0.94929 0.0
C2163 C 0.51954 0.01821 0.9352 0.0
C2164 C 0.54684 0.01885 0.91818 0.0
C2165 C 0.56476 0.04986 0.91409 0.0
C2166 C 0.48431 0.048 0.96805 0.0
C2167 C 0.55526 0.98762 0.90285 0.0
C2168 C 0.48643 0.9274 0.94608 0.0
C2169 C 0.46038 0.92522 0.92857 0.0
C2170 C 0.50423 0.95855 0.95002 0.0
C2171 C 0.49597 0.98787 0.93585 0.0
C2172 C 0.4676 0.98656 0.91973 0.0
C2173 C 0.44999 0.95519 0.91637 0.0
C2174 C 0.53359 0.9592 0.96789 0.0
C2175 C 0.45781 0.01737 0.90439 0.0
H2176 H 0.5238 0.10216 0.95427 0.0
H2177 H 0.58402 0.05104 0.89992 0.0
H2178 H 0.45884 0.04957 0.95898 0.0
H2179 H 0.4847 0.0237 0.97875 0.0
H2180 H 0.48669 0.0704 0.98053 0.0
H2181 H 0.57905 0.99146 0.89198 0.0
H2182 H 0.55869 0.96433 0.91431 0.0
H2183 H 0.53348 0.98233 0.89036 0.0
H2184 H 0.49423 0.9042 0.95567 0.0
H2185 H 0.42998 0.95345 0.90275 0.0
H2186 H 0.53365 0.98377 0.97829 0.0
H2187 H 0.55848 0.95758 0.95806 0.0
H2188 H 0.53219 0.9371 0.9807 0.0
H2189 H 0.45539 0.04099 0.91564 0.0
H2190 H 0.43309 0.01322 0.89463 0.0
H2191 H 0.47842 0.02227 0.89091 0.0
C2192 C 0.06506 0.52959 0.66123 0.0
C2193 C 0.07185 0.55604 0.64454 0.0
C2194 C 0.0331 0.51254 0.66163 0.0
C2195 C 0.0074 0.52184 0.6447 0.0
C2196 C 0.01382 0.5492 0.62818 0.0
C2197 C 0.046 0.56618 0.62841 0.0
C2198 C 0.02715 0.48403 0.67983 0.0
C2199 C 0.98712 0.55976 0.60978 0.0
C2200 C 0.93809 0.4551 0.62945 0.0
C2201 C 0.9098 0.46793 0.64236 0.0
C2202 C 0.97012 0.47233 0.63009 0.0
C2203 C 0.97391 0.50277 0.64422 0.0
C2204 C 0.94566 0.51499 0.65796 0.0
C2205 C 0.91395 0.49754 0.65676 0.0
C2206 C 0.99961 0.45856 0.61512 0.0
C2207 C 0.94876 0.54685 0.67364 0.0
H2208 H 0.0852 0.52176 0.67367 0.0
H2209 H 0.05149 0.58634 0.61534 0.0
H2210 H 0.00345 0.48939 0.69042 0.0
H2211 H 0.02314 0.45902 0.67037 0.0
H2212 H 0.04918 0.4811 0.6925 0.0
H2213 H 0.99583 0.58194 0.59855 0.0
H2214 H 0.9813 0.53752 0.59776 0.0
H2215 H 0.96271 0.56702 0.61892 0.0
H2216 H 0.93477 0.43239 0.61817 0.0
H2217 H 0.89206 0.50736 0.66684 0.0
H2218 H 0.02225 0.45321 0.62678 0.0
H2219 H 0.00764 0.47837 0.60174 0.0
H2220 H 0.99264 0.4344 0.60536 0.0
H2221 H 0.97029 0.54366 0.68664 0.0
H2222 H 0.92469 0.55223 0.68387 0.0
H2223 H 0.95484 0.56976 0.66232 0.0
C2224 C 0.5529 0.95943 0.59492 0.0
C2225 C 0.54305 0.93236 0.61024 0.0
C2226 C 0.53677 0.9919 0.59645 0.0
C2227 C 0.51026 0.99712 0.61366 0.0
C2228 C 0.50158 0.97042 0.63002 0.0
C2229 C 0.51824 0.93838 0.62818 0.0
C2230 C 0.54696 0.02006 0.57893 0.0
C2231 C 0.47362 0.97513 0.64871 0.0
C2232 C 0.48322 0.0893 0.62709 0.0
C2233 C 0.45457 0.09319 0.61184 0.0
C2234 C 0.5014 0.05801 0.62812 0.0
C2235 C 0.49037 0.02987 0.61375 0.0
C2236 C 0.46057 0.03312 0.59911 0.0
C2237 C 0.443 0.06486 0.5983 0.0
C2238 C 0.53296 0.0554 0.64402 0.0
C2239 C 0.44788 1.00341 0.58376 0.0
H2240 H 0.57199 0.95474 0.58101 0.0
H2241 H 0.51106 0.91756 0.64032 0.0
H2242 H 0.52509 0.02557 0.5666 0.0
H2243 H 0.55287 0.04439 0.58876 0.0
H2244 H 0.56979 0.01274 0.56794 0.0
H2245 H 0.47176 0.95265 0.66117 0.0
H2246 H 0.47843 0.99886 0.65949 0.0
H2247 H 0.44833 0.97848 0.63961 0.0
H2248 H 0.49186 0.11107 0.63789 0.0
H2249 H 0.42103 0.06789 0.58639 0.0
H2250 H 0.55614 0.05066 0.63275 0.0
H2251 H 0.53043 0.03311 0.65653 0.0
H2252 H 0.53727 0.07929 0.65479 0.0
H2253 H 0.46778 0.99655 0.57019 0.0
H2254 H 0.4235 0.00972 0.57417 0.0
H2255 H 0.44351 0.98013 0.59511 0.0
loop_
_geom_bond_atom_site_label_1
_geom_bond_atom_site_label_2
_geom_bond_distance
_geom_bond_site_symmetry_2
_ccdc_geom_bond_type
O0 Tb1 2.292 . S
O0 C3 1.255 . S
Tb1 O0 2.292 . S
Tb1 O17 2.326 . S
Tb1 O19 2.500 . S
Tb1 O20 2.473 . S
Tb1 O23 2.324 . S
Eu2 O6 2.292 . S
Eu2 C7 2.852 . S
Eu2 O18 2.324 . S
Eu2 O22 2.326 . S
Eu2 O24 2.500 . S
Eu2 O25 2.473 . S
C3 O0 1.255 . S
C3 O4 1.247 . S
O4 C3 1.247 . S
C5 O17 1.242 . S
C5 O18 1.258 . S
O6 Eu2 2.292 . S
O6 C8 1.255 . S
C7 Eu2 2.852 . S
C7 C11 1.503 . S
C7 O24 1.273 . S
C7 O25 1.257 . S
C8 O6 1.255 . S
C8 O9 1.247 . S
O9 C8 1.247 . S
C10 O22 1.242 . S
C10 O23 1.258 . S
C11 C7 1.503 . S
C11 C12 1.379 . S
C11 C16 1.392 . S
C12 C11 1.379 . S
C12 C13 1.404 . S
C12 H26 0.929 . S
C13 C12 1.404 . S
C13 C14 1.389 . S
C14 C13 1.389 . S
C14 C15 1.399 . S
C14 H27 0.931 . S
C15 C14 1.399 . S
C15 C16 1.390 . S
C16 C11 1.392 . S
C16 C15 1.390 . S
C16 H28 0.929 . S
O17 Tb1 2.326 . S
O17 C5 1.242 . S
O18 Eu2 2.324 . S
O18 C5 1.258 . S
O19 Tb1 2.500 . S
O19 C21 1.273 . S
O20 Tb1 2.473 . S
O20 C21 1.257 . S
C21 O19 1.273 . S
C21 O20 1.257 . S
O22 Eu2 2.326 . S
O22 C10 1.242 . S
O23 Tb1 2.324 . S
O23 C10 1.258 . S
O24 Eu2 2.500 . S
O24 C7 1.273 . S
O25 Eu2 2.473 . S
O25 C7 1.257 . S
H26 C12 0.929 . S
H27 C14 0.931 . S
H28 C16 0.929 . S
O29 Tb30 2.292 . S
O29 C32 1.255 . S
Tb30 O29 2.292 . S
Tb30 O46 2.326 . S
Tb30 O48 2.500 . S
Tb30 O49 2.473 . S
Tb30 O52 2.324 . S
Eu31 O35 2.292 . S
Eu31 C36 2.852 . S
Eu31 O47 2.324 . S
Eu31 O51 2.326 . S
Eu31 O53 2.500 . S
Eu31 O54 2.473 . S
C32 O29 1.255 . S
C32 O33 1.247 . S
O33 C32 1.247 . S
C34 O46 1.242 . S
C34 O47 1.258 . S
O35 Eu31 2.292 . S
O35 C37 1.255 . S
C36 Eu31 2.852 . S
C36 C40 1.503 . S
C36 O53 1.273 . S
C36 O54 1.257 . S
C37 O35 1.255 . S
C37 O38 1.247 . S
O38 C37 1.247 . S
C39 O51 1.242 . S
C39 O52 1.258 . S
C40 C36 1.503 . S
C40 C41 1.379 . S
C40 C45 1.392 . S
C41 C40 1.379 . S
C41 C42 1.404 . S
C41 H55 0.929 . S
C42 C41 1.404 . S
C42 C43 1.389 . S
C43 C42 1.389 . S
C43 C44 1.399 . S
C43 H56 0.931 . S
C44 C43 1.399 . S
C44 C45 1.390 . S
C45 C40 1.392 . S
C45 C44 1.390 . S
C45 H57 0.929 . S
O46 Tb30 2.326 . S
O46 C34 1.242 . S
O47 Eu31 2.324 . S
O47 C34 1.258 . S
O48 Tb30 2.500 . S
O48 C50 1.273 . S
O49 Tb30 2.473 . S
O49 C50 1.257 . S
C50 O48 1.273 . S
C50 O49 1.257 . S
O51 Eu31 2.326 . S
O51 C39 1.242 . S
O52 Tb30 2.324 . S
O52 C39 1.258 . S
O53 Eu31 2.500 . S
O53 C36 1.273 . S
O54 Eu31 2.473 . S
O54 C36 1.257 . S
H55 C41 0.929 . S
H56 C43 0.931 . S
H57 C45 0.929 . S
O58 Tb59 2.292 . S
O58 C61 1.255 . S
Tb59 O58 2.292 . S
Tb59 O75 2.326 . S
Tb59 O77 2.500 . S
Tb59 O78 2.473 . S
Tb59 O81 2.324 . S
Eu60 O64 2.292 . S
Eu60 C65 2.852 . S
Eu60 O76 2.324 . S
Eu60 O80 2.326 . S
Eu60 O82 2.500 . S
Eu60 O83 2.473 . S
C61 O58 1.255 . S
C61 O62 1.247 . S
O62 C61 1.247 . S
C63 O75 1.242 . S
C63 O76 1.258 . S
O64 Eu60 2.292 . S
O64 C66 1.255 . S
C65 Eu60 2.852 . S
C65 C69 1.503 . S
C65 O82 1.273 . S
C65 O83 1.257 . S
C66 O64 1.255 . S
C66 O67 1.247 . S
O67 C66 1.247 . S
C68 O80 1.242 . S
C68 O81 1.258 . S
C69 C65 1.503 . S
C69 C70 1.379 . S
C69 C74 1.392 . S
C70 C69 1.379 . S
C70 C71 1.404 . S
C70 H84 0.929 . S
C71 C70 1.404 . S
C71 C72 1.389 . S
C72 C71 1.389 . S
C72 C73 1.399 . S
C72 H85 0.931 . S
C73 C72 1.399 . S
C73 C74 1.390 . S
C74 C69 1.392 . S
C74 C73 1.390 . S
C74 H86 0.929 . S
O75 Tb59 2.326 . S
O75 C63 1.242 . S
O76 Eu60 2.324 . S
O76 C63 1.258 . S
O77 Tb59 2.500 . S
O77 C79 1.273 . S
O78 Tb59 2.473 . S
O78 C79 1.257 . S
C79 O77 1.273 . S
C79 O78 1.257 . S
O80 Eu60 2.326 . S
O80 C68 1.242 . S
O81 Tb59 2.324 . S
O81 C68 1.258 . S
O82 Eu60 2.500 . S
O82 C65 1.273 . S
O83 Eu60 2.473 . S
O83 C65 1.257 . S
H84 C70 0.929 . S
H85 C72 0.931 . S
H86 C74 0.929 . S
O87 Tb88 2.292 . S
O87 C90 1.255 . S
Tb88 O87 2.292 . S
Tb88 O104 2.326 . S
Tb88 O106 2.500 . S
Tb88 O107 2.473 . S
Tb88 O110 2.324 . S
Eu89 O93 2.292 . S
Eu89 C94 2.852 . S
Eu89 O105 2.324 . S
Eu89 O109 2.326 . S
Eu89 O111 2.500 . S
Eu89 O112 2.473 . S
C90 O87 1.255 . S
C90 O91 1.247 . S
O91 C90 1.247 . S
C92 O104 1.242 . S
C92 O105 1.258 . S
O93 Eu89 2.292 . S
O93 C95 1.255 . S
C94 Eu89 2.852 . S
C94 C98 1.503 . S
C94 O111 1.273 . S
C94 O112 1.257 . S
C95 O93 1.255 . S
C95 O96 1.247 . S
O96 C95 1.247 . S
C97 O109 1.242 . S
C97 O110 1.258 . S
C98 C94 1.503 . S
C98 C99 1.379 . S
C98 C103 1.392 . S
C99 C98 1.379 . S
C99 C100 1.404 . S
C99 H113 0.929 . S
C100 C99 1.404 . S
C100 C101 1.389 . S
C101 C100 1.389 . S
C101 C102 1.399 . S
C101 H114 0.931 . S
C102 C101 1.399 . S
C102 C103 1.390 . S
C103 C98 1.392 . S
C103 C102 1.390 . S
C103 H115 0.929 . S
O104 Tb88 2.326 . S
O104 C92 1.242 . S
O105 Eu89 2.324 . S
O105 C92 1.258 . S
O106 Tb88 2.500 . S
O106 C108 1.273 . S
O107 Tb88 2.473 . S
O107 C108 1.257 . S
C108 O106 1.273 . S
C108 O107 1.257 . S
O109 Eu89 2.326 . S
O109 C97 1.242 . S
O110 Tb88 2.324 . S
O110 C97 1.258 . S
O111 Eu89 2.500 . S
O111 C94 1.273 . S
O112 Eu89 2.473 . S
O112 C94 1.257 . S
H113 C99 0.929 . S
H114 C101 0.931 . S
H115 C103 0.929 . S
O116 Tb117 2.292 . S
O116 C119 1.255 . S
Tb117 O116 2.292 . S
Tb117 O133 2.326 . S
Tb117 O135 2.500 . S
Tb117 O136 2.473 . S
Tb117 O139 2.324 . S
Eu118 O122 2.292 . S
Eu118 C123 2.852 . S
Eu118 O134 2.324 . S
Eu118 O138 2.326 . S
Eu118 O140 2.500 . S
Eu118 O141 2.473 . S
C119 O116 1.255 . S
C119 O120 1.247 . S
O120 C119 1.247 . S
C121 O133 1.242 . S
C121 O134 1.258 . S
O122 Eu118 2.292 . S
O122 C124 1.255 . S
C123 Eu118 2.852 . S
C123 C127 1.503 . S
C123 O140 1.273 . S
C123 O141 1.257 . S
C124 O122 1.255 . S
C124 O125 1.247 . S
O125 C124 1.247 . S
C126 O138 1.242 . S
C126 O139 1.258 . S
C127 C123 1.503 . S
C127 C128 1.379 . S
C127 C132 1.392 . S
C128 C127 1.379 . S
C128 C129 1.404 . S
C128 H142 0.929 . S
C129 C128 1.404 . S
C129 C130 1.389 . S
C130 C129 1.389 . S
C130 C131 1.399 . S
C130 H143 0.931 . S
C131 C130 1.399 . S
C131 C132 1.390 . S
C132 C127 1.392 . S
C132 C131 1.390 . S
C132 H144 0.929 . S
O133 Tb117 2.326 . S
O133 C121 1.242 . S
O134 Eu118 2.324 . S
O134 C121 1.258 . S
O135 Tb117 2.500 . S
O135 C137 1.273 . S
O136 Tb117 2.473 . S
O136 C137 1.257 . S
C137 O135 1.273 . S
C137 O136 1.257 . S
O138 Eu118 2.326 . S
O138 C126 1.242 . S
O139 Tb117 2.324 . S
O139 C126 1.258 . S
O140 Eu118 2.500 . S
O140 C123 1.273 . S
O141 Eu118 2.473 . S
O141 C123 1.257 . S
H142 C128 0.929 . S
H143 C130 0.931 . S
H144 C132 0.929 . S
O145 Tb146 2.292 . S
O145 C148 1.255 . S
Tb146 O145 2.292 . S
Tb146 O162 2.326 . S
Tb146 O164 2.500 . S
Tb146 O165 2.473 . S
Tb146 O168 2.324 . S
Eu147 O151 2.292 . S
Eu147 C152 2.852 . S
Eu147 O163 2.324 . S
Eu147 O167 2.326 . S
Eu147 O169 2.500 . S
Eu147 O170 2.473 . S
C148 O145 1.255 . S
C148 O149 1.247 . S
O149 C148 1.247 . S
C150 O162 1.242 . S
C150 O163 1.258 . S
O151 Eu147 2.292 . S
O151 C153 1.255 . S
C152 Eu147 2.852 . S
C152 C156 1.503 . S
C152 O169 1.273 . S
C152 O170 1.257 . S
C153 O151 1.255 . S
C153 O154 1.247 . S
O154 C153 1.247 . S
C155 O167 1.242 . S
C155 O168 1.258 . S
C156 C152 1.503 . S
C156 C157 1.379 . S
C156 C161 1.392 . S
C157 C156 1.379 . S
C157 C158 1.404 . S
C157 H171 0.929 . S
C158 C157 1.404 . S
C158 C159 1.389 . S
C159 C158 1.389 . S
C159 C160 1.399 . S
C159 H172 0.931 . S
C160 C159 1.399 . S
C160 C161 1.390 . S
C161 C156 1.392 . S
C161 C160 1.390 . S
C161 H173 0.929 . S
O162 Tb146 2.326 . S
O162 C150 1.242 . S
O163 Eu147 2.324 . S
O163 C150 1.258 . S
O164 Tb146 2.500 . S
O164 C166 1.273 . S
O165 Tb146 2.473 . S
O165 C166 1.257 . S
C166 O164 1.273 . S
C166 O165 1.257 . S
O167 Eu147 2.326 . S
O167 C155 1.242 . S
O168 Tb146 2.324 . S
O168 C155 1.258 . S
O169 Eu147 2.500 . S
O169 C152 1.273 . S
O170 Eu147 2.473 . S
O170 C152 1.257 . S
H171 C157 0.929 . S
H172 C159 0.931 . S
H173 C161 0.929 . S
O174 Tb175 2.292 . S
O174 C177 1.255 . S
Tb175 O174 2.292 . S
Tb175 O191 2.326 . S
Tb175 O193 2.500 . S
Tb175 O194 2.473 . S
Tb175 O197 2.324 . S
Eu176 O180 2.292 . S
Eu176 C181 2.852 . S
Eu176 O192 2.324 . S
Eu176 O196 2.326 . S
Eu176 O198 2.500 . S
Eu176 O199 2.473 . S
C177 O174 1.255 . S
C177 O178 1.247 . S
O178 C177 1.247 . S
C179 O191 1.242 . S
C179 O192 1.258 . S
O180 Eu176 2.292 . S
O180 C182 1.255 . S
C181 Eu176 2.852 . S
C181 C185 1.503 . S
C181 O198 1.273 . S
C181 O199 1.257 . S
C182 O180 1.255 . S
C182 O183 1.247 . S
O183 C182 1.247 . S
C184 O196 1.242 . S
C184 O197 1.258 . S
C185 C181 1.503 . S
C185 C186 1.379 . S
C185 C190 1.392 . S
C186 C185 1.379 . S
C186 C187 1.404 . S
C186 H200 0.929 . S
C187 C186 1.404 . S
C187 C188 1.389 . S
C188 C187 1.389 . S
C188 C189 1.399 . S
C188 H201 0.931 . S
C189 C188 1.399 . S
C189 C190 1.390 . S
C190 C185 1.392 . S
C190 C189 1.390 . S
C190 H202 0.929 . S
O191 Tb175 2.326 . S
O191 C179 1.242 . S
O192 Eu176 2.324 . S
O192 C179 1.258 . S
O193 Tb175 2.500 . S
O193 C195 1.273 . S
O194 Tb175 2.473 . S
O194 C195 1.257 . S
C195 O193 1.273 . S
C195 O194 1.257 . S
O196 Eu176 2.326 . S
O196 C184 1.242 . S
O197 Tb175 2.324 . S
O197 C184 1.258 . S
O198 Eu176 2.500 . S
O198 C181 1.273 . S
O199 Eu176 2.473 . S
O199 C181 1.257 . S
H200 C186 0.929 . S
H201 C188 0.931 . S
H202 C190 0.929 . S
O203 Tb204 2.292 . S
O203 C206 1.255 . S
Tb204 O203 2.292 . S
Tb204 O220 2.326 . S
Tb204 O222 2.500 . S
Tb204 O223 2.473 . S
Tb204 O226 2.324 . S
Eu205 O209 2.292 . S
Eu205 C210 2.852 . S
Eu205 O221 2.324 . S
Eu205 O225 2.326 . S
Eu205 O227 2.500 . S
Eu205 O228 2.473 . S
C206 O203 1.255 . S
C206 O207 1.247 . S
O207 C206 1.247 . S
C208 O220 1.242 . S
C208 O221 1.258 . S
O209 Eu205 2.292 . S
O209 C211 1.255 . S
C210 Eu205 2.852 . S
C210 C214 1.503 . S
C210 O227 1.273 . S
C210 O228 1.257 . S
C211 O209 1.255 . S
C211 O212 1.247 . S
O212 C211 1.247 . S
C213 O225 1.242 . S
C213 O226 1.258 . S
C214 C210 1.503 . S
C214 C215 1.379 . S
C214 C219 1.392 . S
C215 C214 1.379 . S
C215 C216 1.404 . S
C215 H229 0.929 . S
C216 C215 1.404 . S
C216 C217 1.389 . S
C217 C216 1.389 . S
C217 C218 1.399 . S
C217 H230 0.931 . S
C218 C217 1.399 . S
C218 C219 1.390 . S
C219 C214 1.392 . S
C219 C218 1.390 . S
C219 H231 0.929 . S
O220 Tb204 2.326 . S
O220 C208 1.242 . S
O221 Eu205 2.324 . S
O221 C208 1.258 . S
O222 Tb204 2.500 . S
O222 C224 1.273 . S
O223 Tb204 2.473 . S
O223 C224 1.257 . S
C224 O222 1.273 . S
C224 O223 1.257 . S
O225 Eu205 2.326 . S
O225 C213 1.242 . S
O226 Tb204 2.324 . S
O226 C213 1.258 . S
O227 Eu205 2.500 . S
O227 C210 1.273 . S
O228 Eu205 2.473 . S
O228 C210 1.257 . S
H229 C215 0.929 . S
H230 C217 0.931 . S
H231 C219 0.929 . S
O232 Tb233 2.292 . S
O232 C235 1.255 . S
Tb233 O232 2.292 . S
Tb233 O249 2.326 . S
Tb233 O251 2.500 . S
Tb233 O252 2.473 . S
Tb233 O255 2.324 . S
Eu234 O238 2.292 . S
Eu234 C239 2.852 . S
Eu234 O250 2.324 . S
Eu234 O254 2.326 . S
Eu234 O256 2.500 . S
Eu234 O257 2.473 . S
C235 O232 1.255 . S
C235 O236 1.247 . S
O236 C235 1.247 . S
C237 O249 1.242 . S
C237 O250 1.258 . S
O238 Eu234 2.292 . S
O238 C240 1.255 . S
C239 Eu234 2.852 . S
C239 C243 1.503 . S
C239 O256 1.273 . S
C239 O257 1.257 . S
C240 O238 1.255 . S
C240 O241 1.247 . S
O241 C240 1.247 . S
C242 O254 1.242 . S
C242 O255 1.258 . S
C243 C239 1.503 . S
C243 C244 1.379 . S
C243 C248 1.392 . S
C244 C243 1.379 . S
C244 C245 1.404 . S
C244 H258 0.929 . S
C245 C244 1.404 . S
C245 C246 1.389 . S
C246 C245 1.389 . S
C246 C247 1.399 . S
C246 H259 0.931 . S
C247 C246 1.399 . S
C247 C248 1.390 . S
C248 C243 1.392 . S
C248 C247 1.390 . S
C248 H260 0.929 . S
O249 Tb233 2.326 . S
O249 C237 1.242 . S
O250 Eu234 2.324 . S
O250 C237 1.258 . S
O251 Tb233 2.500 . S
O251 C253 1.273 . S
O252 Tb233 2.473 . S
O252 C253 1.257 . S
C253 O251 1.273 . S
C253 O252 1.257 . S
O254 Eu234 2.326 . S
O254 C242 1.242 . S
O255 Tb233 2.324 . S
O255 C242 1.258 . S
O256 Eu234 2.500 . S
O256 C239 1.273 . S
O257 Eu234 2.473 . S
O257 C239 1.257 . S
H258 C244 0.929 . S
H259 C246 0.931 . S
H260 C248 0.929 . S
O261 Tb262 2.292 . S
O261 C264 1.255 . S
Tb262 O261 2.292 . S
Tb262 O278 2.326 . S
Tb262 O280 2.500 . S
Tb262 O281 2.473 . S
Tb262 O284 2.324 . S
Eu263 O267 2.292 . S
Eu263 C268 2.852 . S
Eu263 O279 2.324 . S
Eu263 O283 2.326 . S
Eu263 O285 2.500 . S
Eu263 O286 2.473 . S
C264 O261 1.255 . S
C264 O265 1.247 . S
O265 C264 1.247 . S
C266 O278 1.242 . S
C266 O279 1.258 . S
O267 Eu263 2.292 . S
O267 C269 1.255 . S
C268 Eu263 2.852 . S
C268 C272 1.503 . S
C268 O285 1.273 . S
C268 O286 1.257 . S
C269 O267 1.255 . S
C269 O270 1.247 . S
O270 C269 1.247 . S
C271 O283 1.242 . S
C271 O284 1.258 . S
C272 C268 1.503 . S
C272 C273 1.379 . S
C272 C277 1.392 . S
C273 C272 1.379 . S
C273 C274 1.404 . S
C273 H287 0.929 . S
C274 C273 1.404 . S
C274 C275 1.389 . S
C275 C274 1.389 . S
C275 C276 1.399 . S
C275 H288 0.931 . S
C276 C275 1.399 . S
C276 C277 1.390 . S
C277 C272 1.392 . S
C277 C276 1.390 . S
C277 H289 0.929 . S
O278 Tb262 2.326 . S
O278 C266 1.242 . S
O279 Eu263 2.324 . S
O279 C266 1.258 . S
O280 Tb262 2.500 . S
O280 C282 1.273 . S
O281 Tb262 2.473 . S
O281 C282 1.257 . S
C282 O280 1.273 . S
C282 O281 1.257 . S
O283 Eu263 2.326 . S
O283 C271 1.242 . S
O284 Tb262 2.324 . S
O284 C271 1.258 . S
O285 Eu263 2.500 . S
O285 C268 1.273 . S
O286 Eu263 2.473 . S
O286 C268 1.257 . S
H287 C273 0.929 . S
H288 C275 0.931 . S
H289 C277 0.929 . S
O290 Tb291 2.292 . S
O290 C293 1.255 . S
Tb291 O290 2.292 . S
Tb291 O307 2.326 . S
Tb291 O309 2.500 . S
Tb291 O310 2.473 . S
Tb291 O313 2.324 . S
Eu292 O296 2.292 . S
Eu292 C297 2.852 . S
Eu292 O308 2.324 . S
Eu292 O312 2.326 . S
Eu292 O314 2.500 . S
Eu292 O315 2.473 . S
C293 O290 1.255 . S
C293 O294 1.247 . S
O294 C293 1.247 . S
C295 O307 1.242 . S
C295 O308 1.258 . S
O296 Eu292 2.292 . S
O296 C298 1.255 . S
C297 Eu292 2.852 . S
C297 C301 1.503 . S
C297 O314 1.273 . S
C297 O315 1.257 . S
C298 O296 1.255 . S
C298 O299 1.247 . S
O299 C298 1.247 . S
C300 O312 1.242 . S
C300 O313 1.258 . S
C301 C297 1.503 . S
C301 C302 1.379 . S
C301 C306 1.392 . S
C302 C301 1.379 . S
C302 C303 1.404 . S
C302 H316 0.929 . S
C303 C302 1.404 . S
C303 C304 1.389 . S
C304 C303 1.389 . S
C304 C305 1.399 . S
C304 H317 0.931 . S
C305 C304 1.399 . S
C305 C306 1.390 . S
C306 C301 1.392 . S
C306 C305 1.390 . S
C306 H318 0.929 . S
O307 Tb291 2.326 . S
O307 C295 1.242 . S
O308 Eu292 2.324 . S
O308 C295 1.258 . S
O309 Tb291 2.500 . S
O309 C311 1.273 . S
O310 Tb291 2.473 . S
O310 C311 1.257 . S
C311 O309 1.273 . S
C311 O310 1.257 . S
O312 Eu292 2.326 . S
O312 C300 1.242 . S
O313 Tb291 2.324 . S
O313 C300 1.258 . S
O314 Eu292 2.500 . S
O314 C297 1.273 . S
O315 Eu292 2.473 . S
O315 C297 1.257 . S
H316 C302 0.929 . S
H317 C304 0.931 . S
H318 C306 0.929 . S
O319 Tb320 2.292 . S
O319 C322 1.255 . S
Tb320 O319 2.292 . S
Tb320 O336 2.326 . S
Tb320 O338 2.500 . S
Tb320 O339 2.473 . S
Tb320 O342 2.324 . S
Eu321 O325 2.292 . S
Eu321 C326 2.852 . S
Eu321 O337 2.324 . S
Eu321 O341 2.326 . S
Eu321 O343 2.500 . S
Eu321 O344 2.473 . S
C322 O319 1.255 . S
C322 O323 1.247 . S
O323 C322 1.247 . S
C324 O336 1.242 . S
C324 O337 1.258 . S
O325 Eu321 2.292 . S
O325 C327 1.255 . S
C326 Eu321 2.852 . S
C326 C330 1.503 . S
C326 O343 1.273 . S
C326 O344 1.257 . S
C327 O325 1.255 . S
C327 O328 1.247 . S
O328 C327 1.247 . S
C329 O341 1.242 . S
C329 O342 1.258 . S
C330 C326 1.503 . S
C330 C331 1.379 . S
C330 C335 1.392 . S
C331 C330 1.379 . S
C331 C332 1.404 . S
C331 H345 0.929 . S
C332 C331 1.404 . S
C332 C333 1.389 . S
C333 C332 1.389 . S
C333 C334 1.399 . S
C333 H346 0.931 . S
C334 C333 1.399 . S
C334 C335 1.390 . S
C335 C330 1.392 . S
C335 C334 1.390 . S
C335 H347 0.929 . S
O336 Tb320 2.326 . S
O336 C324 1.242 . S
O337 Eu321 2.324 . S
O337 C324 1.258 . S
O338 Tb320 2.500 . S
O338 C340 1.273 . S
O339 Tb320 2.473 . S
O339 C340 1.257 . S
C340 O338 1.273 . S
C340 O339 1.257 . S
O341 Eu321 2.326 . S
O341 C329 1.242 . S
O342 Tb320 2.324 . S
O342 C329 1.258 . S
O343 Eu321 2.500 . S
O343 C326 1.273 . S
O344 Eu321 2.473 . S
O344 C326 1.257 . S
H345 C331 0.929 . S
H346 C333 0.931 . S
H347 C335 0.929 . S
O348 Tb349 2.292 . S
O348 C351 1.255 . S
Tb349 O348 2.292 . S
Tb349 O365 2.326 . S
Tb349 O367 2.500 . S
Tb349 O368 2.473 . S
Tb349 O371 2.324 . S
Eu350 O354 2.292 . S
Eu350 C355 2.852 . S
Eu350 O366 2.324 . S
Eu350 O370 2.326 . S
Eu350 O372 2.500 . S
Eu350 O373 2.473 . S
C351 O348 1.255 . S
C351 O352 1.247 . S
O352 C351 1.247 . S
C353 O365 1.242 . S
C353 O366 1.258 . S
O354 Eu350 2.292 . S
O354 C356 1.255 . S
C355 Eu350 2.852 . S
C355 C359 1.503 . S
C355 O372 1.273 . S
C355 O373 1.257 . S
C356 O354 1.255 . S
C356 O357 1.247 . S
O357 C356 1.247 . S
C358 O370 1.242 . S
C358 O371 1.258 . S
C359 C355 1.503 . S
C359 C360 1.379 . S
C359 C364 1.392 . S
C360 C359 1.379 . S
C360 C361 1.404 . S
C360 H374 0.929 . S
C361 C360 1.404 . S
C361 C362 1.389 . S
C362 C361 1.389 . S
C362 C363 1.399 . S
C362 H375 0.931 . S
C363 C362 1.399 . S
C363 C364 1.390 . S
C364 C359 1.392 . S
C364 C363 1.390 . S
C364 H376 0.929 . S
O365 Tb349 2.326 . S
O365 C353 1.242 . S
O366 Eu350 2.324 . S
O366 C353 1.258 . S
O367 Tb349 2.500 . S
O367 C369 1.273 . S
O368 Tb349 2.473 . S
O368 C369 1.257 . S
C369 O367 1.273 . S
C369 O368 1.257 . S
O370 Eu350 2.326 . S
O370 C358 1.242 . S
O371 Tb349 2.324 . S
O371 C358 1.258 . S
O372 Eu350 2.500 . S
O372 C355 1.273 . S
O373 Eu350 2.473 . S
O373 C355 1.257 . S
H374 C360 0.929 . S
H375 C362 0.931 . S
H376 C364 0.929 . S
O377 Tb378 2.292 . S
O377 C380 1.255 . S
Tb378 O377 2.292 . S
Tb378 O394 2.326 . S
Tb378 O396 2.500 . S
Tb378 O397 2.473 . S
Tb378 O400 2.324 . S
Eu379 O383 2.292 . S
Eu379 C384 2.852 . S
Eu379 O395 2.324 . S
Eu379 O399 2.326 . S
Eu379 O401 2.500 . S
Eu379 O402 2.473 . S
C380 O377 1.255 . S
C380 O381 1.247 . S
O381 C380 1.247 . S
C382 O394 1.242 . S
C382 O395 1.258 . S
O383 Eu379 2.292 . S
O383 C385 1.255 . S
C384 Eu379 2.852 . S
C384 C388 1.503 . S
C384 O401 1.273 . S
C384 O402 1.257 . S
C385 O383 1.255 . S
C385 O386 1.247 . S
O386 C385 1.247 . S
C387 O399 1.242 . S
C387 O400 1.258 . S
C388 C384 1.503 . S
C388 C389 1.379 . S
C388 C393 1.392 . S
C389 C388 1.379 . S
C389 C390 1.404 . S
C389 H403 0.929 . S
C390 C389 1.404 . S
C390 C391 1.389 . S
C391 C390 1.389 . S
C391 C392 1.399 . S
C391 H404 0.931 . S
C392 C391 1.399 . S
C392 C393 1.390 . S
C393 C388 1.392 . S
C393 C392 1.390 . S
C393 H405 0.929 . S
O394 Tb378 2.326 . S
O394 C382 1.242 . S
O395 Eu379 2.324 . S
O395 C382 1.258 . S
O396 Tb378 2.500 . S
O396 C398 1.273 . S
O397 Tb378 2.473 . S
O397 C398 1.257 . S
C398 O396 1.273 . S
C398 O397 1.257 . S
O399 Eu379 2.326 . S
O399 C387 1.242 . S
O400 Tb378 2.324 . S
O400 C387 1.258 . S
O401 Eu379 2.500 . S
O401 C384 1.273 . S
O402 Eu379 2.473 . S
O402 C384 1.257 . S
H403 C389 0.929 . S
H404 C391 0.931 . S
H405 C393 0.929 . S
O406 Tb407 2.292 . S
O406 C409 1.255 . S
Tb407 O406 2.292 . S
Tb407 O423 2.326 . S
Tb407 O425 2.500 . S
Tb407 O426 2.473 . S
Tb407 O429 2.324 . S
Eu408 O412 2.292 . S
Eu408 C413 2.852 . S
Eu408 O424 2.324 . S
Eu408 O428 2.326 . S
Eu408 O430 2.500 . S
Eu408 O431 2.473 . S
C409 O406 1.255 . S
C409 O410 1.247 . S
O410 C409 1.247 . S
C411 O423 1.242 . S
C411 O424 1.258 . S
O412 Eu408 2.292 . S
O412 C414 1.255 . S
C413 Eu408 2.852 . S
C413 C417 1.503 . S
C413 O430 1.273 . S
C413 O431 1.257 . S
C414 O412 1.255 . S
C414 O415 1.247 . S
O415 C414 1.247 . S
C416 O428 1.242 . S
C416 O429 1.258 . S
C417 C413 1.503 . S
C417 C418 1.379 . S
C417 C422 1.392 . S
C418 C417 1.379 . S
C418 C419 1.404 . S
C418 H432 0.929 . S
C419 C418 1.404 . S
C419 C420 1.389 . S
C420 C419 1.389 . S
C420 C421 1.399 . S
C420 H433 0.931 . S
C421 C420 1.399 . S
C421 C422 1.390 . S
C422 C417 1.392 . S
C422 C421 1.390 . S
C422 H434 0.929 . S
O423 Tb407 2.326 . S
O423 C411 1.242 . S
O424 Eu408 2.324 . S
O424 C411 1.258 . S
O425 Tb407 2.500 . S
O425 C427 1.273 . S
O426 Tb407 2.473 . S
O426 C427 1.257 . S
C427 O425 1.273 . S
C427 O426 1.257 . S
O428 Eu408 2.326 . S
O428 C416 1.242 . S
O429 Tb407 2.324 . S
O429 C416 1.258 . S
O430 Eu408 2.500 . S
O430 C413 1.273 . S
O431 Eu408 2.473 . S
O431 C413 1.257 . S
H432 C418 0.929 . S
H433 C420 0.931 . S
H434 C422 0.929 . S
O435 Tb436 2.292 . S
O435 C438 1.255 . S
Tb436 O435 2.292 . S
Tb436 O452 2.326 . S
Tb436 O454 2.500 . S
Tb436 O455 2.473 . S
Tb436 O458 2.324 . S
Eu437 O441 2.292 . S
Eu437 C442 2.852 . S
Eu437 O453 2.324 . S
Eu437 O457 2.326 . S
Eu437 O459 2.500 . S
Eu437 O460 2.473 . S
C438 O435 1.255 . S
C438 O439 1.247 . S
O439 C438 1.247 . S
C440 O452 1.242 . S
C440 O453 1.258 . S
O441 Eu437 2.292 . S
O441 C443 1.255 . S
C442 Eu437 2.852 . S
C442 C446 1.503 . S
C442 O459 1.273 . S
C442 O460 1.257 . S
C443 O441 1.255 . S
C443 O444 1.247 . S
O444 C443 1.247 . S
C445 O457 1.242 . S
C445 O458 1.258 . S
C446 C442 1.503 . S
C446 C447 1.379 . S
C446 C451 1.392 . S
C447 C446 1.379 . S
C447 C448 1.404 . S
C447 H461 0.929 . S
C448 C447 1.404 . S
C448 C449 1.389 . S
C449 C448 1.389 . S
C449 C450 1.399 . S
C449 H462 0.931 . S
C450 C449 1.399 . S
C450 C451 1.390 . S
C451 C446 1.392 . S
C451 C450 1.390 . S
C451 H463 0.929 . S
O452 Tb436 2.326 . S
O452 C440 1.242 . S
O453 Eu437 2.324 . S
O453 C440 1.258 . S
O454 Tb436 2.500 . S
O454 C456 1.273 . S
O455 Tb436 2.473 . S
O455 C456 1.257 . S
C456 O454 1.273 . S
C456 O455 1.257 . S
O457 Eu437 2.326 . S
O457 C445 1.242 . S
O458 Tb436 2.324 . S
O458 C445 1.258 . S
O459 Eu437 2.500 . S
O459 C442 1.273 . S
O460 Eu437 2.473 . S
O460 C442 1.257 . S
H461 C447 0.929 . S
H462 C449 0.931 . S
H463 C451 0.929 . S
C464 C465 1.391 . S
C464 C466 1.394 . S
C464 H480 0.931 . S
C465 C464 1.391 . S
C465 C469 1.376 . S
C466 C464 1.394 . S
C466 C467 1.369 . S
C466 C470 1.531 . S
C467 C466 1.369 . S
C467 C468 1.410 . S
C467 C475 1.503 1_554 S
C468 C467 1.410 . S
C468 C469 1.392 . S
C468 C471 1.511 . S
C469 C465 1.376 . S
C469 C468 1.392 . S
C469 H481 0.929 . S
C470 C466 1.531 . S
C470 H482 0.960 . S
C470 H483 0.962 . S
C470 H484 0.960 . S
C471 C468 1.511 . S
C471 H485 0.961 . S
C471 H486 0.961 1_554 S
C471 H487 0.961 1_554 S
C472 C473 1.370 . S
C472 C474 1.363 . S
C472 H488 0.931 . S
C473 C472 1.370 . S
C473 C477 1.408 . S
C474 C472 1.363 . S
C474 C475 1.370 . S
C474 C478 1.524 1_556 S
C475 C467 1.503 1_556 S
C475 C474 1.370 . S
C475 C476 1.403 . S
C476 C475 1.403 . S
C476 C477 1.404 . S
C476 C479 1.539 . S
C477 C473 1.408 . S
C477 C476 1.404 . S
C477 H489 0.930 . S
C478 C474 1.524 1_554 S
C478 H490 0.956 . S
C478 H491 0.961 . S
C478 H492 0.961 1_554 S
C479 C476 1.539 . S
C479 H493 0.958 . S
C479 H494 0.961 . S
C479 H495 0.960 . S
H480 C464 0.931 . S
H481 C469 0.929 . S
H482 C470 0.960 . S
H483 C470 0.962 . S
H484 C470 0.960 . S
H485 C471 0.961 . S
H486 C471 0.961 1_556 S
H487 C471 0.961 1_556 S
H488 C472 0.931 . S
H489 C477 0.930 . S
H490 C478 0.956 . S
H491 C478 0.961 . S
H492 C478 0.961 1_556 S
H493 C479 0.958 . S
H494 C479 0.961 . S
H495 C479 0.960 . S
C496 C497 1.391 . S
C496 C498 1.394 . S
C496 H512 0.931 . S
C497 C496 1.391 . S
C497 C501 1.376 . S
C498 C496 1.394 . S
C498 C499 1.369 . S
C498 C502 1.531 . S
C499 C498 1.369 . S
C499 C500 1.410 . S
C499 C507 1.503 1_554 S
C500 C499 1.410 . S
C500 C501 1.392 . S
C500 C503 1.511 . S
C501 C497 1.376 . S
C501 C500 1.392 . S
C501 H513 0.929 . S
C502 C498 1.531 . S
C502 H514 0.920 1_554 S
C502 H515 0.962 . S
C502 H516 0.960 . S
C503 C500 1.511 . S
C503 H517 0.961 . S
C503 H518 0.961 1_554 S
C503 H519 0.961 1_554 S
C504 C505 1.370 . S
C504 C506 1.363 . S
C504 H520 0.931 . S
C505 C504 1.370 . S
C505 C509 1.408 . S
C506 C504 1.363 . S
C506 C507 1.370 . S
C506 C510 1.524 1_556 S
C507 C499 1.503 1_556 S
C507 C506 1.370 . S
C507 C508 1.403 . S
C508 C507 1.403 . S
C508 C509 1.404 . S
C508 C511 1.539 . S
C509 C505 1.408 . S
C509 C508 1.404 . S
C509 H521 0.930 . S
C510 C506 1.524 1_554 S
C510 H522 0.956 . S
C510 H523 0.961 . S
C510 H524 0.961 1_554 S
C511 C508 1.539 . S
C511 H525 0.958 . S
C511 H526 0.961 . S
C511 H527 0.960 . S
H512 C496 0.931 . S
H513 C501 0.929 . S
H514 C502 0.920 1_556 S
H515 C502 0.962 . S
H516 C502 0.960 . S
H517 C503 0.961 . S
H518 C503 0.961 1_556 S
H519 C503 0.961 1_556 S
H520 C504 0.931 . S
H521 C509 0.930 . S
H522 C510 0.956 . S
H523 C510 0.961 . S
H524 C510 0.961 1_556 S
H525 C511 0.958 . S
H526 C511 0.961 . S
H527 C511 0.960 . S
C528 C529 1.391 . S
C528 C530 1.394 . S
C528 H544 0.931 . S
C529 C528 1.391 . S
C529 C533 1.376 . S
C530 C528 1.394 . S
C530 C531 1.369 . S
C530 C534 1.531 . S
C531 C530 1.369 . S
C531 C532 1.410 . S
C531 C539 1.503 1_556 S
C532 C531 1.410 . S
C532 C533 1.392 . S
C532 C535 1.511 . S
C533 C529 1.376 . S
C533 C532 1.392 . S
C533 H545 0.929 . S
C534 C530 1.531 . S
C534 H546 0.960 1_556 S
C534 H547 0.962 . S
C534 H548 0.960 . S
C535 C532 1.511 . S
C535 H549 0.961 . S
C535 H550 0.961 1_556 S
C535 H551 0.961 . S
C536 C537 1.370 . S
C536 C538 1.363 . S
C536 H552 0.931 . S
C537 C536 1.370 . S
C537 C541 1.408 . S
C538 C536 1.363 . S
C538 C539 1.370 . S
C538 C542 1.524 1_554 S
C539 C531 1.503 1_554 S
C539 C538 1.370 . S
C539 C540 1.403 . S
C540 C539 1.403 . S
C540 C541 1.404 . S
C540 C543 1.539 . S
C541 C537 1.408 . S
C541 C540 1.404 . S
C541 H553 0.930 . S
C542 C538 1.524 1_556 S
C542 H554 0.956 . S
C542 H555 0.961 . S
C542 H556 0.961 1_556 S
C543 C540 1.539 . S
C543 H557 0.958 . S
C543 H558 0.961 . S
C543 H559 0.960 . S
H544 C528 0.931 . S
H545 C533 0.929 . S
H546 C534 0.960 1_554 S
H547 C534 0.962 . S
H548 C534 0.960 . S
H549 C535 0.961 . S
H550 C535 0.961 1_554 S
H551 C535 0.961 . S
H552 C536 0.931 . S
H553 C541 0.930 . S
H554 C542 0.956 . S
H555 C542 0.961 . S
H556 C542 0.961 1_554 S
H557 C543 0.958 . S
H558 C543 0.961 . S
H559 C543 0.960 . S
C560 C561 1.391 . S
C560 C562 1.394 . S
C560 H576 0.931 . S
C561 C560 1.391 . S
C561 C565 1.376 . S
C562 C560 1.394 . S
C562 C563 1.369 . S
C562 C566 1.531 . S
C563 C562 1.369 . S
C563 C564 1.410 . S
C563 C571 1.503 1_556 S
C564 C563 1.410 . S
C564 C565 1.392 . S
C564 C567 1.511 . S
C565 C561 1.376 . S
C565 C564 1.392 . S
C565 H577 0.929 . S
C566 C562 1.531 . S
C566 H578 0.960 1_556 S
C566 H579 0.962 1_556 S
C566 H580 0.961 . S
C567 C564 1.511 . S
C567 H581 0.961 . S
C567 H582 0.961 . S
C567 H583 0.961 . S
C568 C569 1.370 . S
C568 C570 1.363 . S
C568 H584 0.931 . S
C569 C568 1.370 . S
C569 C573 1.408 . S
C570 C568 1.363 . S
C570 C571 1.370 . S
C570 C574 1.524 . S
C571 C563 1.503 1_554 S
C571 C570 1.370 . S
C571 C572 1.403 . S
C572 C571 1.403 . S
C572 C573 1.404 . S
C572 C575 1.539 . S
C573 C569 1.408 . S
C573 C572 1.404 . S
C573 H585 0.930 . S
C574 C570 1.524 . S
C574 H586 0.956 . S
C574 H587 0.961 . S
C574 H588 0.961 . S
C575 C572 1.539 . S
C575 H589 0.958 . S
C575 H590 0.961 . S
C575 H591 0.960 1_554 S
H576 C560 0.931 . S
H577 C565 0.929 . S
H578 C566 0.960 1_554 S
H579 C566 0.962 1_554 S
H580 C566 0.961 . S
H581 C567 0.961 . S
H582 C567 0.961 . S
H583 C567 0.961 . S
H584 C568 0.931 . S
H585 C573 0.930 . S
H586 C574 0.956 . S
H587 C574 0.961 . S
H588 C574 0.961 . S
H589 C575 0.958 . S
H590 C575 0.961 . S
H591 C575 0.960 1_556 S
C592 C593 1.391 . S
C592 C594 1.394 . S
C592 H608 0.931 . S
C593 C592 1.391 . S
C593 C597 1.376 . S
C594 C592 1.394 . S
C594 C595 1.369 . S
C594 C598 1.531 . S
C595 C594 1.369 . S
C595 C596 1.410 . S
C595 C603 1.503 . S
C596 C595 1.410 . S
C596 C597 1.392 . S
C596 C599 1.511 . S
C597 C593 1.376 . S
C597 C596 1.392 . S
C597 H609 0.929 . S
C598 C594 1.531 . S
C598 H610 0.960 . S
C598 H611 0.962 . S
C598 H612 0.960 . S
C599 C596 1.511 . S
C599 H613 0.961 . S
C599 H614 0.961 . S
C599 H615 0.961 . S
C600 C601 1.370 . S
C600 C602 1.363 . S
C600 H616 0.931 . S
C601 C600 1.370 . S
C601 C605 1.408 . S
C602 C600 1.363 . S
C602 C603 1.370 . S
C602 C606 1.524 . S
C603 C595 1.503 . S
C603 C602 1.370 . S
C603 C604 1.403 . S
C604 C603 1.403 . S
C604 C605 1.404 . S
C604 C607 1.539 . S
C605 C601 1.408 . S
C605 C604 1.404 . S
C605 H617 0.930 . S
C606 C602 1.524 . S
C606 H618 0.956 . S
C606 H619 0.961 . S
C606 H620 0.961 . S
C607 C604 1.539 . S
C607 H621 0.958 . S
C607 H622 0.961 . S
C607 H623 0.960 . S
H608 C592 0.931 . S
H609 C597 0.929 . S
H610 C598 0.960 . S
H611 C598 0.962 . S
H612 C598 0.960 . S
H613 C599 0.961 . S
H614 C599 0.961 . S
H615 C599 0.961 . S
H616 C600 0.931 . S
H617 C605 0.930 . S
H618 C606 0.956 . S
H619 C606 0.961 . S
H620 C606 0.961 . S
H621 C607 0.958 . S
H622 C607 0.961 . S
H623 C607 0.960 . S
C624 C625 1.391 . S
C624 C626 1.394 . S
C624 H640 0.931 . S
C625 C624 1.391 . S
C625 C629 1.376 . S
C626 C624 1.394 . S
C626 C627 1.369 . S
C626 C630 1.531 . S
C627 C626 1.369 . S
C627 C628 1.410 . S
C627 C635 1.503 . S
C628 C627 1.410 . S
C628 C629 1.392 . S
C628 C631 1.511 . S
C629 C625 1.376 . S
C629 C628 1.392 . S
C629 H641 0.929 . S
C630 C626 1.531 . S
C630 H642 0.960 . S
C630 H643 0.962 . S
C630 H644 0.960 . S
C631 C628 1.511 . S
C631 H645 0.961 . S
C631 H646 0.961 . S
C631 H647 0.961 . S
C632 C633 1.370 . S
C632 C634 1.363 . S
C632 H648 0.931 . S
C633 C632 1.370 . S
C633 C637 1.408 . S
C634 C632 1.363 . S
C634 C635 1.370 . S
C634 C638 1.524 . S
C635 C627 1.503 . S
C635 C634 1.370 . S
C635 C636 1.403 . S
C636 C635 1.403 . S
C636 C637 1.404 . S
C636 C639 1.539 . S
C637 C633 1.408 . S
C637 C636 1.404 . S
C637 H649 0.930 . S
C638 C634 1.524 . S
C638 H650 0.956 . S
C638 H651 0.961 . S
C638 H652 0.961 . S
C639 C636 1.539 . S
C639 H653 0.958 . S
C639 H654 0.961 . S
C639 H655 0.960 . S
H640 C624 0.931 . S
H641 C629 0.929 . S
H642 C630 0.960 . S
H643 C630 0.962 . S
H644 C630 0.960 . S
H645 C631 0.961 . S
H646 C631 0.961 . S
H647 C631 0.961 . S
H648 C632 0.931 . S
H649 C637 0.930 . S
H650 C638 0.956 . S
H651 C638 0.961 . S
H652 C638 0.961 . S
H653 C639 0.958 . S
H654 C639 0.961 . S
H655 C639 0.960 . S
C656 C657 1.391 . S
C656 C658 1.394 . S
C656 H672 0.931 . S
C657 C656 1.391 . S
C657 C661 1.376 . S
C658 C656 1.394 . S
C658 C659 1.369 . S
C658 C662 1.531 . S
C659 C658 1.369 . S
C659 C660 1.410 . S
C659 C667 1.503 . S
C660 C659 1.410 . S
C660 C661 1.392 . S
C660 C663 1.511 . S
C661 C657 1.376 . S
C661 C660 1.392 . S
C661 H673 0.929 . S
C662 C658 1.531 . S
C662 H674 0.960 . S
C662 H675 0.962 . S
C662 H676 0.960 . S
C663 C660 1.511 . S
C663 H677 0.961 . S
C663 H678 0.961 . S
C663 H679 0.961 . S
C664 C665 1.370 . S
C664 C666 1.363 . S
C664 H680 0.931 . S
C665 C664 1.370 . S
C665 C669 1.408 . S
C666 C664 1.363 . S
C666 C667 1.370 . S
C666 C670 1.524 . S
C667 C659 1.503 . S
C667 C666 1.370 . S
C667 C668 1.403 . S
C668 C667 1.403 . S
C668 C669 1.404 . S
C668 C671 1.539 . S
C669 C665 1.408 . S
C669 C668 1.404 . S
C669 H681 0.930 . S
C670 C666 1.524 . S
C670 H682 0.956 . S
C670 H683 0.961 . S
C670 H684 0.961 . S
C671 C668 1.539 . S
C671 H685 0.958 . S
C671 H686 0.961 . S
C671 H687 0.960 . S
H672 C656 0.931 . S
H673 C661 0.929 . S
H674 C662 0.960 . S
H675 C662 0.962 . S
H676 C662 0.960 . S
H677 C663 0.961 . S
H678 C663 0.961 . S
H679 C663 0.961 . S
H680 C664 0.931 . S
H681 C669 0.930 . S
H682 C670 0.956 . S
H683 C670 0.961 . S
H684 C670 0.961 . S
H685 C671 0.958 . S
H686 C671 0.961 . S
H687 C671 0.960 . S
C688 C689 1.391 . S
C688 C690 1.394 . S
C688 H704 0.931 . S
C689 C688 1.391 . S
C689 C693 1.376 . S
C690 C688 1.394 . S
C690 C691 1.369 . S
C690 C694 1.531 . S
C691 C690 1.369 . S
C691 C692 1.410 . S
C691 C699 1.503 . S
C692 C691 1.410 . S
C692 C693 1.392 . S
C692 C695 1.511 . S
C693 C689 1.376 . S
C693 C692 1.392 . S
C693 H705 0.929 . S
C694 C690 1.531 . S
C694 H706 0.960 . S
C694 H707 0.962 . S
C694 H708 0.960 . S
C695 C692 1.511 . S
C695 H709 0.961 . S
C695 H710 0.961 . S
C695 H711 0.961 . S
C696 C697 1.370 . S
C696 C698 1.363 . S
C696 H712 0.931 . S
C697 C696 1.370 . S
C697 C701 1.408 . S
C698 C696 1.363 . S
C698 C699 1.370 . S
C698 C702 1.524 . S
C699 C691 1.503 . S
C699 C698 1.370 . S
C699 C700 1.403 . S
C700 C699 1.403 . S
C700 C701 1.404 . S
C700 C703 1.539 . S
C701 C697 1.408 . S
C701 C700 1.404 . S
C701 H713 0.930 . S
C702 C698 1.524 . S
C702 H714 0.956 . S
C702 H715 0.961 . S
C702 H716 0.961 . S
C703 C700 1.539 . S
C703 H717 0.958 . S
C703 H718 0.961 . S
C703 H719 0.960 . S
H704 C688 0.931 . S
H705 C693 0.929 . S
H706 C694 0.960 . S
H707 C694 0.962 . S
H708 C694 0.960 . S
H709 C695 0.961 . S
H710 C695 0.961 . S
H711 C695 0.961 . S
H712 C696 0.931 . S
H713 C701 0.930 . S
H714 C702 0.956 . S
H715 C702 0.961 . S
H716 C702 0.961 . S
H717 C703 0.958 . S
H718 C703 0.961 . S
H719 C703 0.960 . S
C720 C721 1.380 1_545 S
C720 C722 1.417 . S
C720 H736 0.919 1_545 S
C721 C720 1.380 1_565 S
C721 C725 1.370 1_565 S
C722 C720 1.417 . S
C722 C723 1.369 . S
C722 C726 1.531 . S
C723 C722 1.369 . S
C723 C724 1.410 . S
C723 C731 1.503 . S
C724 C723 1.410 . S
C724 C725 1.404 . S
C724 C727 1.511 . S
C725 C721 1.370 1_545 S
C725 C724 1.404 . S
C725 H737 0.923 1_545 S
C726 C722 1.531 . S
C726 H738 0.960 . S
C726 H739 0.962 . S
C726 H740 0.960 . S
C727 C724 1.511 . S
C727 H741 0.961 . S
C727 H742 0.961 . S
C727 H743 0.961 . S
C728 C729 1.370 . S
C728 C730 1.363 . S
C728 H744 0.931 . S
C729 C728 1.370 . S
C729 C733 1.408 . S
C730 C728 1.363 . S
C730 C731 1.370 . S
C730 C734 1.524 . S
C731 C723 1.503 . S
C731 C730 1.370 . S
C731 C732 1.403 . S
C732 C731 1.403 . S
C732 C733 1.404 . S
C732 C735 1.539 . S
C733 C729 1.408 . S
C733 C732 1.404 . S
C733 H745 0.930 . S
C734 C730 1.524 . S
C734 H746 0.956 . S
C734 H747 0.961 . S
C734 H748 0.961 . S
C735 C732 1.539 . S
C735 H749 0.958 . S
C735 H750 0.961 . S
C735 H751 0.960 . S
H736 C720 0.919 1_565 S
H737 C725 0.923 1_565 S
H738 C726 0.960 . S
H739 C726 0.962 . S
H740 C726 0.960 . S
H741 C727 0.961 . S
H742 C727 0.961 . S
H743 C727 0.961 . S
H744 C728 0.931 . S
H745 C733 0.930 . S
H746 C734 0.956 . S
H747 C734 0.961 . S
H748 C734 0.961 . S
H749 C735 0.958 . S
H750 C735 0.961 . S
H751 C735 0.960 . S
C752 C753 1.391 1_655 S
C752 C754 1.394 . S
C752 H768 0.931 . S
C753 C752 1.391 1_455 S
C753 C757 1.376 . S
C754 C752 1.394 . S
C754 C755 1.369 . S
C754 C758 1.531 . S
C755 C754 1.369 . S
C755 C756 1.410 . S
C755 C763 1.503 . S
C756 C755 1.410 . S
C756 C757 1.392 1_655 S
C756 C759 1.511 . S
C757 C753 1.376 . S
C757 C756 1.392 1_455 S
C757 H769 0.929 . S
C758 C754 1.531 . S
C758 H770 0.960 . S
C758 H771 0.962 . S
C758 H772 0.960 . S
C759 C756 1.511 . S
C759 H773 0.961 . S
C759 H774 0.961 . S
C759 H775 0.961 . S
C760 C761 1.370 . S
C760 C762 1.363 . S
C760 H776 0.931 . S
C761 C760 1.370 . S
C761 C765 1.408 . S
C762 C760 1.363 . S
C762 C763 1.370 . S
C762 C766 1.524 . S
C763 C755 1.503 . S
C763 C762 1.370 . S
C763 C764 1.403 . S
C764 C763 1.403 . S
C764 C765 1.404 . S
C764 C767 1.539 . S
C765 C761 1.408 . S
C765 C764 1.404 . S
C765 H777 0.930 . S
C766 C762 1.524 . S
C766 H778 0.956 . S
C766 H779 0.961 . S
C766 H780 0.961 . S
C767 C764 1.539 . S
C767 H781 0.958 . S
C767 H782 0.961 . S
C767 H783 0.960 . S
H768 C752 0.931 . S
H769 C757 0.929 . S
H770 C758 0.960 . S
H771 C758 0.962 . S
H772 C758 0.960 . S
H773 C759 0.961 . S
H774 C759 0.961 . S
H775 C759 0.961 . S
H776 C760 0.931 . S
H777 C765 0.930 . S
H778 C766 0.956 . S
H779 C766 0.961 . S
H780 C766 0.961 . S
H781 C767 0.958 . S
H782 C767 0.961 . S
H783 C767 0.960 . S
C784 C785 1.391 . S
C784 C786 1.394 . S
C784 H800 0.931 . S
C785 C784 1.391 . S
C785 C789 1.376 . S
C786 C784 1.394 . S
C786 C787 1.369 . S
C786 C790 1.531 . S
C787 C786 1.369 . S
C787 C788 1.410 . S
C787 C795 1.503 . S
C788 C787 1.410 . S
C788 C789 1.392 . S
C788 C791 1.511 . S
C789 C785 1.376 . S
C789 C788 1.392 . S
C789 H801 0.929 . S
C790 C786 1.531 . S
C790 H802 0.960 . S
C790 H803 0.962 . S
C790 H804 0.960 . S
C791 C788 1.511 . S
C791 H805 0.961 . S
C791 H806 0.961 . S
C791 H807 0.961 . S
C792 C793 1.370 . S
C792 C794 1.363 1_545 S
C792 H808 0.931 . S
C793 C792 1.370 . S
C793 C797 1.408 1_545 S
C794 C792 1.363 1_565 S
C794 C795 1.370 . S
C794 C798 1.524 . S
C795 C787 1.503 . S
C795 C794 1.370 . S
C795 C796 1.403 . S
C796 C795 1.403 . S
C796 C797 1.404 . S
C796 C799 1.539 . S
C797 C793 1.408 1_565 S
C797 C796 1.404 . S
C797 H809 0.930 . S
C798 C794 1.524 . S
C798 H810 0.956 . S
C798 H811 0.961 . S
C798 H812 0.961 . S
C799 C796 1.539 . S
C799 H813 0.958 . S
C799 H814 0.961 . S
C799 H815 0.960 . S
H800 C784 0.931 . S
H801 C789 0.929 . S
H802 C790 0.960 . S
H803 C790 0.962 . S
H804 C790 0.960 . S
H805 C791 0.961 . S
H806 C791 0.961 . S
H807 C791 0.961 . S
H808 C792 0.931 . S
H809 C797 0.930 . S
H810 C798 0.956 . S
H811 C798 0.961 . S
H812 C798 0.961 . S
H813 C799 0.958 . S
H814 C799 0.961 . S
H815 C799 0.960 . S
C816 C817 1.391 . S
C816 C818 1.394 . S
C816 H832 0.931 . S
C817 C816 1.391 . S
C817 C821 1.376 . S
C818 C816 1.394 . S
C818 C819 1.369 . S
C818 C822 1.531 . S
C819 C818 1.369 . S
C819 C820 1.410 . S
C819 C827 1.503 . S
C820 C819 1.410 . S
C820 C821 1.392 . S
C820 C823 1.511 . S
C821 C817 1.376 . S
C821 C820 1.392 . S
C821 H833 0.929 . S
C822 C818 1.531 . S
C822 H834 0.960 . S
C822 H835 0.962 . S
C822 H836 0.960 . S
C823 C820 1.511 . S
C823 H837 0.961 . S
C823 H838 0.961 . S
C823 H839 0.961 . S
C824 C825 1.370 1_455 S
C824 C826 1.363 . S
C824 H840 0.931 1_455 S
C825 C824 1.370 1_655 S
C825 C829 1.408 1_655 S
C826 C824 1.363 . S
C826 C827 1.370 . S
C826 C830 1.524 . S
C827 C819 1.503 . S
C827 C826 1.370 . S
C827 C828 1.403 . S
C828 C827 1.403 . S
C828 C829 1.404 . S
C828 C831 1.539 . S
C829 C825 1.408 1_455 S
C829 C828 1.404 . S
C829 H841 0.930 1_455 S
C830 C826 1.524 . S
C830 H842 0.956 . S
C830 H843 0.961 . S
C830 H844 0.961 . S
C831 C828 1.539 . S
C831 H845 0.958 . S
C831 H846 0.961 . S
C831 H847 0.960 . S
H832 C816 0.931 . S
H833 C821 0.929 . S
H834 C822 0.960 . S
H835 C822 0.962 . S
H836 C822 0.960 . S
H837 C823 0.961 . S
H838 C823 0.961 . S
H839 C823 0.961 . S
H840 C824 0.931 1_655 S
H841 C829 0.930 1_655 S
H842 C830 0.956 . S
H843 C830 0.961 . S
H844 C830 0.961 . S
H845 C831 0.958 . S
H846 C831 0.961 . S
H847 C831 0.960 . S
C848 C849 1.391 1_565 S
C848 C850 1.394 . S
C848 H864 0.931 . S
C849 C848 1.391 1_545 S
C849 C853 1.376 . S
C850 C848 1.394 . S
C850 C851 1.369 . S
C850 C854 1.531 . S
C851 C850 1.369 . S
C851 C852 1.410 . S
C851 C859 1.503 . S
C852 C851 1.410 . S
C852 C853 1.392 1_565 S
C852 C855 1.511 . S
C853 C849 1.376 . S
C853 C852 1.392 1_545 S
C853 H865 0.929 . S
C854 C850 1.531 . S
C854 H866 0.960 . S
C854 H867 0.962 . S
C854 H868 0.960 . S
C855 C852 1.511 . S
C855 H869 0.961 . S
C855 H870 0.961 . S
C855 H871 0.961 . S
C856 C857 1.370 . S
C856 C858 1.363 . S
C856 H872 0.931 . S
C857 C856 1.370 . S
C857 C861 1.408 . S
C858 C856 1.363 . S
C858 C859 1.370 . S
C858 C862 1.524 . S
C859 C851 1.503 . S
C859 C858 1.370 . S
C859 C860 1.403 . S
C860 C859 1.403 . S
C860 C861 1.404 . S
C860 C863 1.539 . S
C861 C857 1.408 . S
C861 C860 1.404 . S
C861 H873 0.930 . S
C862 C858 1.524 . S
C862 H874 0.956 . S
C862 H875 0.961 . S
C862 H876 0.961 . S
C863 C860 1.539 . S
C863 H877 0.958 . S
C863 H878 0.961 . S
C863 H879 0.960 . S
H864 C848 0.931 . S
H865 C853 0.929 . S
H866 C854 0.960 . S
H867 C854 0.962 . S
H868 C854 0.960 . S
H869 C855 0.961 . S
H870 C855 0.961 . S
H871 C855 0.961 . S
H872 C856 0.931 . S
H873 C861 0.930 . S
H874 C862 0.956 . S
H875 C862 0.961 . S
H876 C862 0.961 . S
H877 C863 0.958 . S
H878 C863 0.961 . S
H879 C863 0.960 . S
C880 C881 1.391 . S
C880 C882 1.394 . S
C880 H896 0.931 . S
C881 C880 1.391 . S
C881 C885 1.376 . S
C882 C880 1.394 . S
C882 C883 1.369 . S
C882 C886 1.531 . S
C883 C882 1.369 . S
C883 C884 1.410 . S
C883 C891 1.503 . S
C884 C883 1.410 . S
C884 C885 1.392 . S
C884 C887 1.511 . S
C885 C881 1.376 . S
C885 C884 1.392 . S
C885 H897 0.929 . S
C886 C882 1.531 . S
C886 H898 0.960 . S
C886 H899 0.962 . S
C886 H900 0.960 . S
C887 C884 1.511 . S
C887 H901 0.961 . S
C887 H902 0.961 . S
C887 H903 0.961 . S
C888 C889 1.370 1_455 S
C888 C890 1.363 . S
C888 H904 0.931 . S
C889 C888 1.370 1_655 S
C889 C893 1.408 . S
C890 C888 1.363 . S
C890 C891 1.370 . S
C890 C894 1.524 . S
C891 C883 1.503 . S
C891 C890 1.370 . S
C891 C892 1.403 . S
C892 C891 1.403 . S
C892 C893 1.404 1_455 S
C892 C895 1.539 . S
C893 C889 1.408 . S
C893 C892 1.404 1_655 S
C893 H905 0.930 . S
C894 C890 1.524 . S
C894 H906 0.956 . S
C894 H907 0.961 . S
C894 H908 0.961 . S
C895 C892 1.539 . S
C895 H909 0.958 . S
C895 H910 0.961 . S
C895 H911 0.960 . S
H896 C880 0.931 . S
H897 C885 0.929 . S
H898 C886 0.960 . S
H899 C886 0.962 . S
H900 C886 0.960 . S
H901 C887 0.961 . S
H902 C887 0.961 . S
H903 C887 0.961 . S
H904 C888 0.931 . S
H905 C893 0.930 . S
H906 C894 0.956 . S
H907 C894 0.961 . S
H908 C894 0.961 . S
H909 C895 0.958 . S
H910 C895 0.961 . S
H911 C895 0.960 . S
C912 C913 1.391 . S
C912 C914 1.394 1_565 S
C912 H928 0.931 . S
C913 C912 1.391 . S
C913 C917 1.376 1_565 S
C914 C912 1.394 1_545 S
C914 C915 1.369 . S
C914 C918 1.531 . S
C915 C914 1.369 . S
C915 C916 1.410 . S
C915 C923 1.503 . S
C916 C915 1.410 . S
C916 C917 1.392 . S
C916 C919 1.511 . S
C917 C913 1.376 1_545 S
C917 C916 1.392 . S
C917 H929 0.929 . S
C918 C914 1.531 . S
C918 H930 0.960 . S
C918 H931 0.962 . S
C918 H932 0.960 . S
C919 C916 1.511 . S
C919 H933 0.961 . S
C919 H934 0.961 . S
C919 H935 0.961 . S
C920 C921 1.370 . S
C920 C922 1.363 . S
C920 H936 0.931 . S
C921 C920 1.370 . S
C921 C925 1.408 . S
C922 C920 1.363 . S
C922 C923 1.370 . S
C922 C926 1.524 . S
C923 C915 1.503 . S
C923 C922 1.370 . S
C923 C924 1.403 . S
C924 C923 1.403 . S
C924 C925 1.404 . S
C924 C927 1.539 . S
C925 C921 1.408 . S
C925 C924 1.404 . S
C925 H937 0.930 . S
C926 C922 1.524 . S
C926 H938 0.956 . S
C926 H939 0.961 . S
C926 H940 0.961 . S
C927 C924 1.539 . S
C927 H941 0.958 . S
C927 H942 0.961 . S
C927 H943 0.960 . S
H928 C912 0.931 . S
H929 C917 0.929 . S
H930 C918 0.960 . S
H931 C918 0.962 . S
H932 C918 0.960 . S
H933 C919 0.961 . S
H934 C919 0.961 . S
H935 C919 0.961 . S
H936 C920 0.931 . S
H937 C925 0.930 . S
H938 C926 0.956 . S
H939 C926 0.961 . S
H940 C926 0.961 . S
H941 C927 0.958 . S
H942 C927 0.961 . S
H943 C927 0.960 . S
C944 C945 1.391 1_655 S
C944 C946 1.394 . S
C944 H960 0.931 . S
C945 C944 1.391 1_455 S
C945 C949 1.376 . S
C946 C944 1.394 . S
C946 C947 1.369 . S
C946 C950 1.531 . S
C947 C946 1.369 . S
C947 C948 1.410 . S
C947 C955 1.503 . S
C948 C947 1.410 . S
C948 C949 1.392 1_655 S
C948 C951 1.511 . S
C949 C945 1.376 . S
C949 C948 1.392 1_455 S
C949 H961 0.929 . S
C950 C946 1.531 . S
C950 H962 0.960 . S
C950 H963 0.962 . S
C950 H964 0.960 . S
C951 C948 1.511 . S
C951 H965 0.961 . S
C951 H966 0.961 . S
C951 H967 0.961 . S
C952 C953 1.370 . S
C952 C954 1.363 . S
C952 H968 0.931 . S
C953 C952 1.370 . S
C953 C957 1.408 . S
C954 C952 1.363 . S
C954 C955 1.370 . S
C954 C958 1.524 . S
C955 C947 1.503 . S
C955 C954 1.370 . S
C955 C956 1.403 . S
C956 C955 1.403 . S
C956 C957 1.404 . S
C956 C959 1.539 . S
C957 C953 1.408 . S
C957 C956 1.404 . S
C957 H969 0.930 . S
C958 C954 1.524 . S
C958 H970 0.956 . S
C958 H971 0.961 . S
C958 H972 0.961 . S
C959 C956 1.539 . S
C959 H973 0.958 . S
C959 H974 0.961 . S
C959 H975 0.960 . S
H960 C944 0.931 . S
H961 C949 0.929 . S
H962 C950 0.960 . S
H963 C950 0.962 . S
H964 C950 0.960 . S
H965 C951 0.961 . S
H966 C951 0.961 . S
H967 C951 0.961 . S
H968 C952 0.931 . S
H969 C957 0.930 . S
H970 C958 0.956 . S
H971 C958 0.961 . S
H972 C958 0.961 . S
H973 C959 0.958 . S
H974 C959 0.961 . S
H975 C959 0.960 . S
C976 C977 1.391 . S
C976 C978 1.394 . S
C976 H992 0.931 . S
C977 C976 1.391 . S
C977 C981 1.376 . S
C978 C976 1.394 . S
C978 C979 1.369 . S
C978 C982 1.531 . S
C979 C978 1.369 . S
C979 C980 1.410 . S
C979 C987 1.503 . S
C980 C979 1.410 . S
C980 C981 1.392 . S
C980 C983 1.511 . S
C981 C977 1.376 . S
C981 C980 1.392 . S
C981 H993 0.929 . S
C982 C978 1.531 . S
C982 H994 0.960 . S
C982 H995 0.962 . S
C982 H996 0.960 . S
C983 C980 1.511 . S
C983 H997 0.961 . S
C983 H998 0.961 . S
C983 H999 0.961 . S
C984 C985 1.378 . S
C984 C986 1.350 1_545 S
C984 H1000 0.936 . S
C985 C984 1.378 . S
C985 C989 1.408 . S
C986 C984 1.350 1_565 S
C986 C987 1.370 . S
C986 C990 1.524 . S
C987 C979 1.503 . S
C987 C986 1.370 . S
C987 C988 1.403 . S
C988 C987 1.403 . S
C988 C989 1.404 1_565 S
C988 C991 1.539 . S
C989 C985 1.408 . S
C989 C988 1.404 1_545 S
C989 H1001 0.930 . S
C990 C986 1.524 . S
C990 H1002 0.956 . S
C990 H1003 0.961 . S
C990 H1004 0.961 . S
C991 C988 1.539 . S
C991 H1005 0.958 . S
C991 H1006 0.961 . S
C991 H1007 0.960 . S
H992 C976 0.931 . S
H993 C981 0.929 . S
H994 C982 0.960 . S
H995 C982 0.962 . S
H996 C982 0.960 . S
H997 C983 0.961 . S
H998 C983 0.961 . S
H999 C983 0.961 . S
H1000 C984 0.936 . S
H1001 C989 0.930 . S
H1002 C990 0.956 . S
H1003 C990 0.961 . S
H1004 C990 0.961 . S
H1005 C991 0.958 . S
H1006 C991 0.961 . S
H1007 C991 0.960 . S
C1008 C1009 1.391 . S
C1008 C1010 1.394 1_655 S
C1008 H1024 0.931 . S
C1009 C1008 1.391 . S
C1009 C1013 1.376 . S
C1010 C1008 1.394 1_455 S
C1010 C1011 1.369 . S
C1010 C1014 1.531 . S
C1011 C1010 1.369 . S
C1011 C1012 1.410 . S
C1011 C1019 1.503 . S
C1012 C1011 1.410 . S
C1012 C1013 1.392 1_455 S
C1012 C1015 1.511 . S
C1013 C1009 1.376 . S
C1013 C1012 1.392 1_655 S
C1013 H1025 0.929 . S
C1014 C1010 1.531 . S
C1014 H1026 0.960 . S
C1014 H1027 0.962 . S
C1014 H1028 0.960 . S
C1015 C1012 1.511 . S
C1015 H1029 0.961 . S
C1015 H1030 0.961 . S
C1015 H1031 0.961 . S
C1016 C1017 1.370 . S
C1016 C1018 1.363 . S
C1016 H1032 0.931 . S
C1017 C1016 1.370 . S
C1017 C1021 1.408 . S
C1018 C1016 1.363 . S
C1018 C1019 1.370 . S
C1018 C1022 1.524 . S
C1019 C1011 1.503 . S
C1019 C1018 1.370 . S
C1019 C1020 1.403 . S
C1020 C1019 1.403 . S
C1020 C1021 1.404 . S
C1020 C1023 1.539 . S
C1021 C1017 1.408 . S
C1021 C1020 1.404 . S
C1021 H1033 0.930 . S
C1022 C1018 1.524 . S
C1022 H1034 0.956 . S
C1022 H1035 0.961 . S
C1022 H1036 0.961 . S
C1023 C1020 1.539 . S
C1023 H1037 0.958 . S
C1023 H1038 0.961 . S
C1023 H1039 0.960 . S
H1024 C1008 0.931 . S
H1025 C1013 0.929 . S
H1026 C1014 0.960 . S
H1027 C1014 0.962 . S
H1028 C1014 0.960 . S
H1029 C1015 0.961 . S
H1030 C1015 0.961 . S
H1031 C1015 0.961 . S
H1032 C1016 0.931 . S
H1033 C1021 0.930 . S
H1034 C1022 0.956 . S
H1035 C1022 0.961 . S
H1036 C1022 0.961 . S
H1037 C1023 0.958 . S
H1038 C1023 0.961 . S
H1039 C1023 0.960 . S
C1040 C1041 1.391 . S
C1040 C1042 1.394 . S
C1040 H1056 0.931 . S
C1041 C1040 1.391 . S
C1041 C1045 1.376 . S
C1042 C1040 1.394 . S
C1042 C1043 1.369 . S
C1042 C1046 1.531 . S
C1043 C1042 1.369 . S
C1043 C1044 1.410 . S
C1043 C1051 1.503 . S
C1044 C1043 1.410 . S
C1044 C1045 1.392 . S
C1044 C1047 1.511 . S
C1045 C1041 1.376 . S
C1045 C1044 1.392 . S
C1045 H1057 0.929 . S
C1046 C1042 1.531 . S
C1046 H1058 0.960 . S
C1046 H1059 0.962 . S
C1046 H1060 0.960 . S
C1047 C1044 1.511 . S
C1047 H1061 0.961 . S
C1047 H1062 0.961 . S
C1047 H1063 0.961 . S
C1048 C1049 1.370 1_545 S
C1048 C1050 1.363 . S
C1048 H1064 0.931 1_545 S
C1049 C1048 1.370 1_565 S
C1049 C1053 1.408 . S
C1050 C1048 1.363 . S
C1050 C1051 1.370 . S
C1050 C1054 1.524 . S
C1051 C1043 1.503 . S
C1051 C1050 1.370 . S
C1051 C1052 1.403 . S
C1052 C1051 1.403 . S
C1052 C1053 1.404 1_545 S
C1052 C1055 1.539 . S
C1053 C1049 1.408 . S
C1053 C1052 1.404 1_565 S
C1053 H1065 0.930 . S
C1054 C1050 1.524 . S
C1054 H1066 0.956 . S
C1054 H1067 0.961 . S
C1054 H1068 0.961 . S
C1055 C1052 1.539 . S
C1055 H1069 0.958 . S
C1055 H1070 0.961 . S
C1055 H1071 0.960 . S
H1056 C1040 0.931 . S
H1057 C1045 0.929 . S
H1058 C1046 0.960 . S
H1059 C1046 0.962 . S
H1060 C1046 0.960 . S
H1061 C1047 0.961 . S
H1062 C1047 0.961 . S
H1063 C1047 0.961 . S
H1064 C1048 0.931 1_565 S
H1065 C1053 0.930 . S
H1066 C1054 0.956 . S
H1067 C1054 0.961 . S
H1068 C1054 0.961 . S
H1069 C1055 0.958 . S
H1070 C1055 0.961 . S
H1071 C1055 0.960 . S
C1072 C1073 1.391 . S
C1072 C1074 1.394 1_455 S
C1072 H1088 0.931 . S
C1073 C1072 1.391 . S
C1073 C1077 1.376 1_455 S
C1074 C1072 1.394 1_655 S
C1074 C1075 1.369 . S
C1074 C1078 1.531 . S
C1075 C1074 1.369 . S
C1075 C1076 1.410 . S
C1075 C1083 1.503 . S
C1076 C1075 1.410 . S
C1076 C1077 1.392 . S
C1076 C1079 1.511 . S
C1077 C1073 1.376 1_655 S
C1077 C1076 1.392 . S
C1077 H1089 0.929 1_655 S
C1078 C1074 1.531 . S
C1078 H1090 0.960 . S
C1078 H1091 0.962 . S
C1078 H1092 0.960 . S
C1079 C1076 1.511 . S
C1079 H1093 0.961 . S
C1079 H1094 0.961 . S
C1079 H1095 0.961 . S
C1080 C1081 1.370 . S
C1080 C1082 1.363 . S
C1080 H1096 0.931 . S
C1081 C1080 1.370 . S
C1081 C1085 1.408 . S
C1082 C1080 1.363 . S
C1082 C1083 1.370 . S
C1082 C1086 1.524 . S
C1083 C1075 1.503 . S
C1083 C1082 1.370 . S
C1083 C1084 1.403 . S
C1084 C1083 1.403 . S
C1084 C1085 1.404 . S
C1084 C1087 1.539 . S
C1085 C1081 1.408 . S
C1085 C1084 1.404 . S
C1085 H1097 0.930 . S
C1086 C1082 1.524 . S
C1086 H1098 0.956 . S
C1086 H1099 0.961 . S
C1086 H1100 0.961 . S
C1087 C1084 1.539 . S
C1087 H1101 0.958 . S
C1087 H1102 0.961 . S
C1087 H1103 0.960 . S
H1088 C1072 0.931 . S
H1089 C1077 0.929 1_455 S
H1090 C1078 0.960 . S
H1091 C1078 0.962 . S
H1092 C1078 0.960 . S
H1093 C1079 0.961 . S
H1094 C1079 0.961 . S
H1095 C1079 0.961 . S
H1096 C1080 0.931 . S
H1097 C1085 0.930 . S
H1098 C1086 0.956 . S
H1099 C1086 0.961 . S
H1100 C1086 0.961 . S
H1101 C1087 0.958 . S
H1102 C1087 0.961 . S
H1103 C1087 0.960 . S
C1104 C1105 1.391 . S
C1104 C1106 1.394 . S
C1104 H1120 0.931 . S
C1105 C1104 1.391 . S
C1105 C1109 1.376 . S
C1106 C1104 1.394 . S
C1106 C1107 1.369 . S
C1106 C1110 1.531 . S
C1107 C1106 1.369 . S
C1107 C1108 1.410 . S
C1107 C1115 1.503 . S
C1108 C1107 1.410 . S
C1108 C1109 1.392 . S
C1108 C1111 1.511 . S
C1109 C1105 1.376 . S
C1109 C1108 1.392 . S
C1109 H1121 0.929 . S
C1110 C1106 1.531 . S
C1110 H1122 0.960 . S
C1110 H1123 0.962 . S
C1110 H1124 0.960 . S
C1111 C1108 1.511 . S
C1111 H1125 0.961 . S
C1111 H1126 0.961 . S
C1111 H1127 0.961 . S
C1112 C1113 1.370 . S
C1112 C1114 1.363 1_565 S
C1112 H1128 0.931 . S
C1113 C1112 1.370 . S
C1113 C1117 1.408 . S
C1114 C1112 1.363 1_545 S
C1114 C1115 1.370 . S
C1114 C1118 1.524 . S
C1115 C1107 1.503 . S
C1115 C1114 1.370 . S
C1115 C1116 1.403 . S
C1116 C1115 1.403 . S
C1116 C1117 1.404 1_545 S
C1116 C1119 1.539 . S
C1117 C1113 1.408 . S
C1117 C1116 1.404 1_565 S
C1117 H1129 0.930 . S
C1118 C1114 1.524 . S
C1118 H1130 0.956 . S
C1118 H1131 0.961 . S
C1118 H1132 0.961 . S
C1119 C1116 1.539 . S
C1119 H1133 0.958 . S
C1119 H1134 0.961 . S
C1119 H1135 0.960 . S
H1120 C1104 0.931 . S
H1121 C1109 0.929 . S
H1122 C1110 0.960 . S
H1123 C1110 0.962 . S
H1124 C1110 0.960 . S
H1125 C1111 0.961 . S
H1126 C1111 0.961 . S
H1127 C1111 0.961 . S
H1128 C1112 0.931 . S
H1129 C1117 0.930 . S
H1130 C1118 0.956 . S
H1131 C1118 0.961 . S
H1132 C1118 0.961 . S
H1133 C1119 0.958 . S
H1134 C1119 0.961 . S
H1135 C1119 0.960 . S
C1136 C1137 1.391 . S
C1136 C1138 1.394 1_455 S
C1136 H1152 0.931 . S
C1137 C1136 1.391 . S
C1137 C1141 1.393 . S
C1138 C1136 1.394 1_655 S
C1138 C1139 1.369 . S
C1138 C1142 1.531 . S
C1139 C1138 1.369 . S
C1139 C1140 1.410 . S
C1139 C1147 1.503 . S
C1140 C1139 1.410 . S
C1140 C1141 1.362 1_655 S
C1140 C1143 1.511 . S
C1141 C1137 1.393 . S
C1141 C1140 1.362 1_455 S
C1141 H1153 0.942 . S
C1142 C1138 1.531 . S
C1142 H1154 0.960 . S
C1142 H1155 0.962 . S
C1142 H1156 0.960 . S
C1143 C1140 1.511 . S
C1143 H1157 0.961 . S
C1143 H1158 0.961 . S
C1143 H1159 0.961 . S
C1144 C1145 1.370 . S
C1144 C1146 1.363 . S
C1144 H1160 0.931 . S
C1145 C1144 1.370 . S
C1145 C1149 1.408 . S
C1146 C1144 1.363 . S
C1146 C1147 1.370 . S
C1146 C1150 1.524 . S
C1147 C1139 1.503 . S
C1147 C1146 1.370 . S
C1147 C1148 1.403 . S
C1148 C1147 1.403 . S
C1148 C1149 1.404 . S
C1148 C1151 1.539 . S
C1149 C1145 1.408 . S
C1149 C1148 1.404 . S
C1149 H1161 0.930 . S
C1150 C1146 1.524 . S
C1150 H1162 0.956 . S
C1150 H1163 0.961 . S
C1150 H1164 0.961 . S
C1151 C1148 1.539 . S
C1151 H1165 0.958 . S
C1151 H1166 0.961 . S
C1151 H1167 0.960 . S
H1152 C1136 0.931 . S
H1153 C1141 0.942 . S
H1154 C1142 0.960 . S
H1155 C1142 0.962 . S
H1156 C1142 0.960 . S
H1157 C1143 0.961 . S
H1158 C1143 0.961 . S
H1159 C1143 0.961 . S
H1160 C1144 0.931 . S
H1161 C1149 0.930 . S
H1162 C1150 0.956 . S
H1163 C1150 0.961 . S
H1164 C1150 0.961 . S
H1165 C1151 0.958 . S
H1166 C1151 0.961 . S
H1167 C1151 0.960 . S
C1168 C1169 1.391 . S
C1168 C1170 1.394 1_545 S
C1168 H1184 0.931 . S
C1169 C1168 1.391 . S
C1169 C1173 1.376 1_545 S
C1170 C1168 1.394 1_565 S
C1170 C1171 1.369 . S
C1170 C1174 1.531 . S
C1171 C1170 1.369 . S
C1171 C1172 1.410 . S
C1171 C1179 1.503 . S
C1172 C1171 1.410 . S
C1172 C1173 1.392 . S
C1172 C1175 1.511 . S
C1173 C1169 1.376 1_565 S
C1173 C1172 1.392 . S
C1173 H1185 0.929 1_565 S
C1174 C1170 1.531 . S
C1174 H1186 0.960 . S
C1174 H1187 0.962 . S
C1174 H1188 0.960 . S
C1175 C1172 1.511 . S
C1175 H1189 0.961 . S
C1175 H1190 0.961 . S
C1175 H1191 0.961 . S
C1176 C1177 1.370 . S
C1176 C1178 1.363 . S
C1176 H1192 0.931 . S
C1177 C1176 1.370 . S
C1177 C1181 1.408 . S
C1178 C1176 1.363 . S
C1178 C1179 1.370 . S
C1178 C1182 1.524 . S
C1179 C1171 1.503 . S
C1179 C1178 1.370 . S
C1179 C1180 1.403 . S
C1180 C1179 1.403 . S
C1180 C1181 1.404 . S
C1180 C1183 1.539 . S
C1181 C1177 1.408 . S
C1181 C1180 1.404 . S
C1181 H1193 0.930 . S
C1182 C1178 1.524 . S
C1182 H1194 0.956 . S
C1182 H1195 0.961 . S
C1182 H1196 0.961 . S
C1183 C1180 1.539 . S
C1183 H1197 0.958 . S
C1183 H1198 0.961 . S
C1183 H1199 0.960 . S
H1184 C1168 0.931 . S
H1185 C1173 0.929 1_545 S
H1186 C1174 0.960 . S
H1187 C1174 0.962 . S
H1188 C1174 0.960 . S
H1189 C1175 0.961 . S
H1190 C1175 0.961 . S
H1191 C1175 0.961 . S
H1192 C1176 0.931 . S
H1193 C1181 0.930 . S
H1194 C1182 0.956 . S
H1195 C1182 0.961 . S
H1196 C1182 0.961 . S
H1197 C1183 0.958 . S
H1198 C1183 0.961 . S
H1199 C1183 0.960 . S
C1200 C1201 1.391 . S
C1200 C1202 1.394 1_655 S
C1200 H1216 0.931 . S
C1201 C1200 1.391 . S
C1201 C1205 1.376 1_655 S
C1202 C1200 1.394 1_455 S
C1202 C1203 1.369 . S
C1202 C1206 1.531 . S
C1203 C1202 1.369 . S
C1203 C1204 1.410 . S
C1203 C1211 1.503 . S
C1204 C1203 1.410 . S
C1204 C1205 1.392 . S
C1204 C1207 1.511 . S
C1205 C1201 1.376 1_455 S
C1205 C1204 1.392 . S
C1205 H1217 0.929 1_455 S
C1206 C1202 1.531 . S
C1206 H1218 0.960 . S
C1206 H1219 0.962 . S
C1206 H1220 0.960 . S
C1207 C1204 1.511 . S
C1207 H1221 0.961 . S
C1207 H1222 0.961 . S
C1207 H1223 0.961 . S
C1208 C1209 1.370 . S
C1208 C1210 1.363 . S
C1208 H1224 0.931 . S
C1209 C1208 1.370 . S
C1209 C1213 1.408 . S
C1210 C1208 1.363 . S
C1210 C1211 1.370 . S
C1210 C1214 1.524 . S
C1211 C1203 1.503 . S
C1211 C1210 1.370 . S
C1211 C1212 1.403 . S
C1212 C1211 1.403 . S
C1212 C1213 1.404 . S
C1212 C1215 1.539 . S
C1213 C1209 1.408 . S
C1213 C1212 1.404 . S
C1213 H1225 0.930 . S
C1214 C1210 1.524 . S
C1214 H1226 0.956 . S
C1214 H1227 0.961 . S
C1214 H1228 0.961 . S
C1215 C1212 1.539 . S
C1215 H1229 0.958 . S
C1215 H1230 0.961 . S
C1215 H1231 0.960 . S
H1216 C1200 0.931 . S
H1217 C1205 0.929 1_655 S
H1218 C1206 0.960 . S
H1219 C1206 0.962 . S
H1220 C1206 0.960 . S
H1221 C1207 0.961 . S
H1222 C1207 0.961 . S
H1223 C1207 0.961 . S
H1224 C1208 0.931 . S
H1225 C1213 0.930 . S
H1226 C1214 0.956 . S
H1227 C1214 0.961 . S
H1228 C1214 0.961 . S
H1229 C1215 0.958 . S
H1230 C1215 0.961 . S
H1231 C1215 0.960 . S
C1232 C1233 1.391 . S
C1232 C1234 1.394 . S
C1232 H1248 0.931 . S
C1233 C1232 1.391 . S
C1233 C1237 1.376 . S
C1234 C1232 1.394 . S
C1234 C1235 1.369 . S
C1234 C1238 1.531 . S
C1235 C1234 1.369 . S
C1235 C1236 1.410 . S
C1235 C1243 1.503 . S
C1236 C1235 1.410 . S
C1236 C1237 1.392 . S
C1236 C1239 1.511 . S
C1237 C1233 1.376 . S
C1237 C1236 1.392 . S
C1237 H1249 0.929 . S
C1238 C1234 1.531 . S
C1238 H1250 0.960 . S
C1238 H1251 0.962 . S
C1238 H1252 0.960 . S
C1239 C1236 1.511 . S
C1239 H1253 0.961 . S
C1239 H1254 0.961 . S
C1239 H1255 0.961 . S
C1240 C1241 1.370 . S
C1240 C1242 1.363 . S
C1240 H1256 0.931 . S
C1241 C1240 1.370 . S
C1241 C1245 1.408 . S
C1242 C1240 1.363 . S
C1242 C1243 1.370 . S
C1242 C1246 1.524 . S
C1243 C1235 1.503 . S
C1243 C1242 1.370 . S
C1243 C1244 1.403 . S
C1244 C1243 1.403 . S
C1244 C1245 1.404 . S
C1244 C1247 1.539 . S
C1245 C1241 1.408 . S
C1245 C1244 1.404 . S
C1245 H1257 0.930 . S
C1246 C1242 1.524 . S
C1246 H1258 0.956 . S
C1246 H1259 0.961 . S
C1246 H1260 0.961 . S
C1247 C1244 1.539 . S
C1247 H1261 0.958 . S
C1247 H1262 0.961 . S
C1247 H1263 0.960 . S
H1248 C1232 0.931 . S
H1249 C1237 0.929 . S
H1250 C1238 0.960 . S
H1251 C1238 0.962 . S
H1252 C1238 0.960 . S
H1253 C1239 0.961 . S
H1254 C1239 0.961 . S
H1255 C1239 0.961 . S
H1256 C1240 0.931 . S
H1257 C1245 0.930 . S
H1258 C1246 0.956 . S
H1259 C1246 0.961 . S
H1260 C1246 0.961 . S
H1261 C1247 0.958 . S
H1262 C1247 0.961 . S
H1263 C1247 0.960 . S
C1264 C1265 1.391 . S
C1264 C1266 1.394 . S
C1264 H1280 0.931 . S
C1265 C1264 1.391 . S
C1265 C1269 1.376 . S
C1266 C1264 1.394 . S
C1266 C1267 1.369 . S
C1266 C1270 1.531 . S
C1267 C1266 1.369 . S
C1267 C1268 1.410 . S
C1267 C1275 1.503 . S
C1268 C1267 1.410 . S
C1268 C1269 1.392 . S
C1268 C1271 1.511 . S
C1269 C1265 1.376 . S
C1269 C1268 1.392 . S
C1269 H1281 0.929 . S
C1270 C1266 1.531 . S
C1270 H1282 0.960 . S
C1270 H1283 0.962 . S
C1270 H1284 0.960 . S
C1271 C1268 1.511 . S
C1271 H1285 0.961 . S
C1271 H1286 0.961 . S
C1271 H1287 0.961 . S
C1272 C1273 1.370 . S
C1272 C1274 1.363 . S
C1272 H1288 0.931 . S
C1273 C1272 1.370 . S
C1273 C1277 1.408 . S
C1274 C1272 1.363 . S
C1274 C1275 1.370 . S
C1274 C1278 1.524 . S
C1275 C1267 1.503 . S
C1275 C1274 1.370 . S
C1275 C1276 1.403 . S
C1276 C1275 1.403 . S
C1276 C1277 1.404 . S
C1276 C1279 1.539 . S
C1277 C1273 1.408 . S
C1277 C1276 1.404 . S
C1277 H1289 0.930 . S
C1278 C1274 1.524 . S
C1278 H1290 0.956 . S
C1278 H1291 0.961 . S
C1278 H1292 0.961 . S
C1279 C1276 1.539 . S
C1279 H1293 0.958 . S
C1279 H1294 0.961 . S
C1279 H1295 0.960 . S
H1280 C1264 0.931 . S
H1281 C1269 0.929 . S
H1282 C1270 0.960 . S
H1283 C1270 0.962 . S
H1284 C1270 0.960 . S
H1285 C1271 0.961 . S
H1286 C1271 0.961 . S
H1287 C1271 0.961 . S
H1288 C1272 0.931 . S
H1289 C1277 0.930 . S
H1290 C1278 0.956 . S
H1291 C1278 0.961 . S
H1292 C1278 0.961 . S
H1293 C1279 0.958 . S
H1294 C1279 0.961 . S
H1295 C1279 0.960 . S
C1296 C1297 1.391 . S
C1296 C1298 1.394 . S
C1296 H1312 0.931 . S
C1297 C1296 1.391 . S
C1297 C1301 1.376 . S
C1298 C1296 1.394 . S
C1298 C1299 1.369 . S
C1298 C1302 1.531 . S
C1299 C1298 1.369 . S
C1299 C1300 1.410 . S
C1299 C1307 1.503 . S
C1300 C1299 1.410 . S
C1300 C1301 1.392 . S
C1300 C1303 1.511 . S
C1301 C1297 1.376 . S
C1301 C1300 1.392 . S
C1301 H1313 0.929 . S
C1302 C1298 1.531 . S
C1302 H1314 0.960 . S
C1302 H1315 0.962 . S
C1302 H1316 0.960 . S
C1303 C1300 1.511 . S
C1303 H1317 0.961 . S
C1303 H1318 0.961 . S
C1303 H1319 0.961 . S
C1304 C1305 1.370 . S
C1304 C1306 1.363 . S
C1304 H1320 0.931 . S
C1305 C1304 1.370 . S
C1305 C1309 1.408 . S
C1306 C1304 1.363 . S
C1306 C1307 1.370 . S
C1306 C1310 1.524 . S
C1307 C1299 1.503 . S
C1307 C1306 1.370 . S
C1307 C1308 1.403 . S
C1308 C1307 1.403 . S
C1308 C1309 1.404 . S
C1308 C1311 1.539 . S
C1309 C1305 1.408 . S
C1309 C1308 1.404 . S
C1309 H1321 0.930 . S
C1310 C1306 1.524 . S
C1310 H1322 0.956 . S
C1310 H1323 0.961 . S
C1310 H1324 0.961 . S
C1311 C1308 1.539 . S
C1311 H1325 0.958 . S
C1311 H1326 0.961 . S
C1311 H1327 0.960 . S
H1312 C1296 0.931 . S
H1313 C1301 0.929 . S
H1314 C1302 0.960 . S
H1315 C1302 0.962 . S
H1316 C1302 0.960 . S
H1317 C1303 0.961 . S
H1318 C1303 0.961 . S
H1319 C1303 0.961 . S
H1320 C1304 0.931 . S
H1321 C1309 0.930 . S
H1322 C1310 0.956 . S
H1323 C1310 0.961 . S
H1324 C1310 0.961 . S
H1325 C1311 0.958 . S
H1326 C1311 0.961 . S
H1327 C1311 0.960 . S
C1328 C1329 1.391 . S
C1328 C1330 1.394 . S
C1328 H1344 0.931 . S
C1329 C1328 1.391 . S
C1329 C1333 1.376 . S
C1330 C1328 1.394 . S
C1330 C1331 1.369 . S
C1330 C1334 1.531 . S
C1331 C1330 1.369 . S
C1331 C1332 1.410 . S
C1331 C1339 1.503 . S
C1332 C1331 1.410 . S
C1332 C1333 1.392 . S
C1332 C1335 1.511 . S
C1333 C1329 1.376 . S
C1333 C1332 1.392 . S
C1333 H1345 0.929 . S
C1334 C1330 1.531 . S
C1334 H1346 0.960 . S
C1334 H1347 0.962 . S
C1334 H1348 0.960 . S
C1335 C1332 1.511 . S
C1335 H1349 0.961 . S
C1335 H1350 0.961 . S
C1335 H1351 0.961 . S
C1336 C1337 1.370 . S
C1336 C1338 1.363 . S
C1336 H1352 0.931 . S
C1337 C1336 1.370 . S
C1337 C1341 1.408 . S
C1338 C1336 1.363 . S
C1338 C1339 1.370 . S
C1338 C1342 1.524 . S
C1339 C1331 1.503 . S
C1339 C1338 1.370 . S
C1339 C1340 1.403 . S
C1340 C1339 1.403 . S
C1340 C1341 1.404 . S
C1340 C1343 1.539 . S
C1341 C1337 1.408 . S
C1341 C1340 1.404 . S
C1341 H1353 0.930 . S
C1342 C1338 1.524 . S
C1342 H1354 0.956 . S
C1342 H1355 0.961 . S
C1342 H1356 0.961 . S
C1343 C1340 1.539 . S
C1343 H1357 0.958 . S
C1343 H1358 0.961 . S
C1343 H1359 0.960 . S
H1344 C1328 0.931 . S
H1345 C1333 0.929 . S
H1346 C1334 0.960 . S
H1347 C1334 0.962 . S
H1348 C1334 0.960 . S
H1349 C1335 0.961 . S
H1350 C1335 0.961 . S
H1351 C1335 0.961 . S
H1352 C1336 0.931 . S
H1353 C1341 0.930 . S
H1354 C1342 0.956 . S
H1355 C1342 0.961 . S
H1356 C1342 0.961 . S
H1357 C1343 0.958 . S
H1358 C1343 0.961 . S
H1359 C1343 0.960 . S
C1360 C1361 1.391 . S
C1360 C1362 1.394 . S
C1360 H1376 0.931 . S
C1361 C1360 1.391 . S
C1361 C1365 1.376 . S
C1362 C1360 1.394 . S
C1362 C1363 1.369 . S
C1362 C1366 1.531 . S
C1363 C1362 1.369 . S
C1363 C1364 1.410 . S
C1363 C1371 1.503 . S
C1364 C1363 1.410 . S
C1364 C1365 1.392 . S
C1364 C1367 1.511 . S
C1365 C1361 1.376 . S
C1365 C1364 1.392 . S
C1365 H1377 0.929 . S
C1366 C1362 1.531 . S
C1366 H1378 0.960 . S
C1366 H1379 0.962 . S
C1366 H1380 0.960 . S
C1367 C1364 1.511 . S
C1367 H1381 0.961 . S
C1367 H1382 0.961 . S
C1367 H1383 0.961 . S
C1368 C1369 1.370 . S
C1368 C1370 1.363 . S
C1368 H1384 0.931 . S
C1369 C1368 1.370 . S
C1369 C1373 1.408 . S
C1370 C1368 1.363 . S
C1370 C1371 1.370 . S
C1370 C1374 1.524 . S
C1371 C1363 1.503 . S
C1371 C1370 1.370 . S
C1371 C1372 1.403 . S
C1372 C1371 1.403 . S
C1372 C1373 1.404 . S
C1372 C1375 1.539 . S
C1373 C1369 1.408 . S
C1373 C1372 1.404 . S
C1373 H1385 0.930 . S
C1374 C1370 1.524 . S
C1374 H1386 0.956 . S
C1374 H1387 0.961 . S
C1374 H1388 0.961 . S
C1375 C1372 1.539 . S
C1375 H1389 0.958 . S
C1375 H1390 0.961 . S
C1375 H1391 0.960 . S
H1376 C1360 0.931 . S
H1377 C1365 0.929 . S
H1378 C1366 0.960 . S
H1379 C1366 0.962 . S
H1380 C1366 0.960 . S
H1381 C1367 0.961 . S
H1382 C1367 0.961 . S
H1383 C1367 0.961 . S
H1384 C1368 0.931 . S
H1385 C1373 0.930 . S
H1386 C1374 0.956 . S
H1387 C1374 0.961 . S
H1388 C1374 0.961 . S
H1389 C1375 0.958 . S
H1390 C1375 0.961 . S
H1391 C1375 0.960 . S
C1392 C1393 1.391 . S
C1392 C1394 1.394 . S
C1392 H1408 0.931 . S
C1393 C1392 1.391 . S
C1393 C1397 1.376 . S
C1394 C1392 1.394 . S
C1394 C1395 1.369 . S
C1394 C1398 1.531 . S
C1395 C1394 1.369 . S
C1395 C1396 1.410 . S
C1395 C1403 1.503 . S
C1396 C1395 1.410 . S
C1396 C1397 1.392 . S
C1396 C1399 1.511 . S
C1397 C1393 1.376 . S
C1397 C1396 1.392 . S
C1397 H1409 0.929 . S
C1398 C1394 1.531 . S
C1398 H1410 0.960 . S
C1398 H1411 0.962 . S
C1398 H1412 0.960 . S
C1399 C1396 1.511 . S
C1399 H1413 0.961 . S
C1399 H1414 0.961 . S
C1399 H1415 0.961 . S
C1400 C1401 1.370 . S
C1400 C1402 1.363 . S
C1400 H1416 0.931 . S
C1401 C1400 1.370 . S
C1401 C1405 1.408 . S
C1402 C1400 1.363 . S
C1402 C1403 1.370 . S
C1402 C1406 1.524 . S
C1403 C1395 1.503 . S
C1403 C1402 1.370 . S
C1403 C1404 1.403 . S
C1404 C1403 1.403 . S
C1404 C1405 1.404 . S
C1404 C1407 1.539 . S
C1405 C1401 1.408 . S
C1405 C1404 1.404 . S
C1405 H1417 0.930 . S
C1406 C1402 1.524 . S
C1406 H1418 0.956 . S
C1406 H1419 0.961 . S
C1406 H1420 0.961 . S
C1407 C1404 1.539 . S
C1407 H1421 0.958 . S
C1407 H1422 0.961 . S
C1407 H1423 0.960 . S
H1408 C1392 0.931 . S
H1409 C1397 0.929 . S
H1410 C1398 0.960 . S
H1411 C1398 0.962 . S
H1412 C1398 0.960 . S
H1413 C1399 0.961 . S
H1414 C1399 0.961 . S
H1415 C1399 0.961 . S
H1416 C1400 0.931 . S
H1417 C1405 0.930 . S
H1418 C1406 0.956 . S
H1419 C1406 0.961 . S
H1420 C1406 0.961 . S
H1421 C1407 0.958 . S
H1422 C1407 0.961 . S
H1423 C1407 0.960 . S
C1424 C1425 1.391 . S
C1424 C1426 1.394 . S
C1424 H1440 0.931 . S
C1425 C1424 1.391 . S
C1425 C1429 1.376 . S
C1426 C1424 1.394 . S
C1426 C1427 1.369 . S
C1426 C1430 1.531 . S
C1427 C1426 1.369 . S
C1427 C1428 1.410 . S
C1427 C1435 1.503 . S
C1428 C1427 1.410 . S
C1428 C1429 1.392 . S
C1428 C1431 1.511 . S
C1429 C1425 1.376 . S
C1429 C1428 1.392 . S
C1429 H1441 0.929 . S
C1430 C1426 1.531 . S
C1430 H1442 0.960 . S
C1430 H1443 0.962 . S
C1430 H1444 0.960 . S
C1431 C1428 1.511 . S
C1431 H1445 0.961 . S
C1431 H1446 0.961 . S
C1431 H1447 0.961 . S
C1432 C1433 1.370 . S
C1432 C1434 1.363 . S
C1432 H1448 0.931 . S
C1433 C1432 1.370 . S
C1433 C1437 1.408 . S
C1434 C1432 1.363 . S
C1434 C1435 1.370 . S
C1434 C1438 1.524 . S
C1435 C1427 1.503 . S
C1435 C1434 1.370 . S
C1435 C1436 1.403 . S
C1436 C1435 1.403 . S
C1436 C1437 1.404 . S
C1436 C1439 1.539 . S
C1437 C1433 1.408 . S
C1437 C1436 1.404 . S
C1437 H1449 0.930 . S
C1438 C1434 1.524 . S
C1438 H1450 0.956 . S
C1438 H1451 0.961 . S
C1438 H1452 0.961 . S
C1439 C1436 1.539 . S
C1439 H1453 0.958 . S
C1439 H1454 0.961 . S
C1439 H1455 0.960 . S
H1440 C1424 0.931 . S
H1441 C1429 0.929 . S
H1442 C1430 0.960 . S
H1443 C1430 0.962 . S
H1444 C1430 0.960 . S
H1445 C1431 0.961 . S
H1446 C1431 0.961 . S
H1447 C1431 0.961 . S
H1448 C1432 0.931 . S
H1449 C1437 0.930 . S
H1450 C1438 0.956 . S
H1451 C1438 0.961 . S
H1452 C1438 0.961 . S
H1453 C1439 0.958 . S
H1454 C1439 0.961 . S
H1455 C1439 0.960 . S
C1456 C1457 1.391 . S
C1456 C1458 1.394 . S
C1456 H1472 0.931 . S
C1457 C1456 1.391 . S
C1457 C1461 1.376 . S
C1458 C1456 1.394 . S
C1458 C1459 1.369 . S
C1458 C1462 1.531 . S
C1459 C1458 1.369 . S
C1459 C1460 1.410 . S
C1459 C1467 1.503 . S
C1460 C1459 1.410 . S
C1460 C1461 1.392 . S
C1460 C1463 1.511 . S
C1461 C1457 1.376 . S
C1461 C1460 1.392 . S
C1461 H1473 0.929 . S
C1462 C1458 1.531 . S
C1462 H1474 0.960 . S
C1462 H1475 0.962 . S
C1462 H1476 0.960 . S
C1463 C1460 1.511 . S
C1463 H1477 0.961 . S
C1463 H1478 0.961 . S
C1463 H1479 0.961 . S
C1464 C1465 1.370 . S
C1464 C1466 1.363 . S
C1464 H1480 0.931 . S
C1465 C1464 1.370 . S
C1465 C1469 1.408 . S
C1466 C1464 1.363 . S
C1466 C1467 1.370 . S
C1466 C1470 1.524 . S
C1467 C1459 1.503 . S
C1467 C1466 1.370 . S
C1467 C1468 1.403 . S
C1468 C1467 1.403 . S
C1468 C1469 1.404 . S
C1468 C1471 1.539 . S
C1469 C1465 1.408 . S
C1469 C1468 1.404 . S
C1469 H1481 0.930 . S
C1470 C1466 1.524 . S
C1470 H1482 0.956 . S
C1470 H1483 0.961 . S
C1470 H1484 0.961 . S
C1471 C1468 1.539 . S
C1471 H1485 0.958 . S
C1471 H1486 0.961 . S
C1471 H1487 0.960 . S
H1472 C1456 0.931 . S
H1473 C1461 0.929 . S
H1474 C1462 0.960 . S
H1475 C1462 0.962 . S
H1476 C1462 0.960 . S
H1477 C1463 0.961 . S
H1478 C1463 0.961 . S
H1479 C1463 0.961 . S
H1480 C1464 0.931 . S
H1481 C1469 0.930 . S
H1482 C1470 0.956 . S
H1483 C1470 0.961 . S
H1484 C1470 0.961 . S
H1485 C1471 0.958 . S
H1486 C1471 0.961 . S
H1487 C1471 0.960 . S
C1488 C1489 1.391 . S
C1488 C1490 1.394 . S
C1488 H1504 0.931 . S
C1489 C1488 1.391 . S
C1489 C1493 1.376 . S
C1490 C1488 1.394 . S
C1490 C1491 1.369 . S
C1490 C1494 1.531 . S
C1491 C1490 1.369 . S
C1491 C1492 1.410 . S
C1491 C1499 1.503 . S
C1492 C1491 1.410 . S
C1492 C1493 1.392 . S
C1492 C1495 1.511 . S
C1493 C1489 1.376 . S
C1493 C1492 1.392 . S
C1493 H1505 0.929 . S
C1494 C1490 1.531 . S
C1494 H1506 0.960 . S
C1494 H1507 0.962 . S
C1494 H1508 0.960 . S
C1495 C1492 1.511 . S
C1495 H1509 0.961 . S
C1495 H1510 0.961 . S
C1495 H1511 0.961 . S
C1496 C1497 1.370 . S
C1496 C1498 1.363 . S
C1496 H1512 0.931 . S
C1497 C1496 1.370 . S
C1497 C1501 1.408 . S
C1498 C1496 1.363 . S
C1498 C1499 1.370 . S
C1498 C1502 1.524 . S
C1499 C1491 1.503 . S
C1499 C1498 1.370 . S
C1499 C1500 1.403 . S
C1500 C1499 1.403 . S
C1500 C1501 1.404 . S
C1500 C1503 1.539 . S
C1501 C1497 1.408 . S
C1501 C1500 1.404 . S
C1501 H1513 0.930 . S
C1502 C1498 1.524 . S
C1502 H1514 0.956 . S
C1502 H1515 0.961 . S
C1502 H1516 0.961 . S
C1503 C1500 1.539 . S
C1503 H1517 0.958 . S
C1503 H1518 0.961 . S
C1503 H1519 0.960 . S
H1504 C1488 0.931 . S
H1505 C1493 0.929 . S
H1506 C1494 0.960 . S
H1507 C1494 0.962 . S
H1508 C1494 0.960 . S
H1509 C1495 0.961 . S
H1510 C1495 0.961 . S
H1511 C1495 0.961 . S
H1512 C1496 0.931 . S
H1513 C1501 0.930 . S
H1514 C1502 0.956 . S
H1515 C1502 0.961 . S
H1516 C1502 0.961 . S
H1517 C1503 0.958 . S
H1518 C1503 0.961 . S
H1519 C1503 0.960 . S
C1520 C1521 1.391 . S
C1520 C1522 1.394 . S
C1520 H1536 0.931 . S
C1521 C1520 1.391 . S
C1521 C1525 1.376 . S
C1522 C1520 1.394 . S
C1522 C1523 1.369 . S
C1522 C1526 1.531 . S
C1523 C1522 1.369 . S
C1523 C1524 1.410 . S
C1523 C1531 1.503 . S
C1524 C1523 1.410 . S
C1524 C1525 1.392 . S
C1524 C1527 1.511 . S
C1525 C1521 1.376 . S
C1525 C1524 1.392 . S
C1525 H1537 0.929 . S
C1526 C1522 1.531 . S
C1526 H1538 0.960 . S
C1526 H1539 0.962 . S
C1526 H1540 0.960 . S
C1527 C1524 1.511 . S
C1527 H1541 0.961 . S
C1527 H1542 0.961 . S
C1527 H1543 0.961 . S
C1528 C1529 1.370 . S
C1528 C1530 1.363 . S
C1528 H1544 0.931 . S
C1529 C1528 1.370 . S
C1529 C1533 1.408 . S
C1530 C1528 1.363 . S
C1530 C1531 1.370 . S
C1530 C1534 1.524 . S
C1531 C1523 1.503 . S
C1531 C1530 1.370 . S
C1531 C1532 1.403 . S
C1532 C1531 1.403 . S
C1532 C1533 1.404 . S
C1532 C1535 1.539 . S
C1533 C1529 1.408 . S
C1533 C1532 1.404 . S
C1533 H1545 0.930 . S
C1534 C1530 1.524 . S
C1534 H1546 0.956 . S
C1534 H1547 0.961 . S
C1534 H1548 0.961 . S
C1535 C1532 1.539 . S
C1535 H1549 0.958 . S
C1535 H1550 0.961 . S
C1535 H1551 0.960 . S
H1536 C1520 0.931 . S
H1537 C1525 0.929 . S
H1538 C1526 0.960 . S
H1539 C1526 0.962 . S
H1540 C1526 0.960 . S
H1541 C1527 0.961 . S
H1542 C1527 0.961 . S
H1543 C1527 0.961 . S
H1544 C1528 0.931 . S
H1545 C1533 0.930 . S
H1546 C1534 0.956 . S
H1547 C1534 0.961 . S
H1548 C1534 0.961 . S
H1549 C1535 0.958 . S
H1550 C1535 0.961 . S
H1551 C1535 0.960 . S
C1552 C1553 1.391 . S
C1552 C1554 1.394 . S
C1552 H1568 0.931 . S
C1553 C1552 1.391 . S
C1553 C1557 1.376 . S
C1554 C1552 1.394 . S
C1554 C1555 1.369 . S
C1554 C1558 1.531 . S
C1555 C1554 1.369 . S
C1555 C1556 1.410 . S
C1555 C1563 1.503 . S
C1556 C1555 1.410 . S
C1556 C1557 1.392 . S
C1556 C1559 1.511 . S
C1557 C1553 1.376 . S
C1557 C1556 1.392 . S
C1557 H1569 0.929 . S
C1558 C1554 1.531 . S
C1558 H1570 0.960 . S
C1558 H1571 0.962 . S
C1558 H1572 0.960 . S
C1559 C1556 1.511 . S
C1559 H1573 0.961 . S
C1559 H1574 0.961 . S
C1559 H1575 0.961 . S
C1560 C1561 1.370 . S
C1560 C1562 1.363 . S
C1560 H1576 0.931 . S
C1561 C1560 1.370 . S
C1561 C1565 1.408 . S
C1562 C1560 1.363 . S
C1562 C1563 1.370 . S
C1562 C1566 1.524 . S
C1563 C1555 1.503 . S
C1563 C1562 1.370 . S
C1563 C1564 1.403 . S
C1564 C1563 1.403 . S
C1564 C1565 1.404 . S
C1564 C1567 1.539 . S
C1565 C1561 1.408 . S
C1565 C1564 1.404 . S
C1565 H1577 0.930 . S
C1566 C1562 1.524 . S
C1566 H1578 0.956 . S
C1566 H1579 0.961 . S
C1566 H1580 0.961 . S
C1567 C1564 1.539 . S
C1567 H1581 0.958 . S
C1567 H1582 0.961 . S
C1567 H1583 0.960 . S
H1568 C1552 0.931 . S
H1569 C1557 0.929 . S
H1570 C1558 0.960 . S
H1571 C1558 0.962 . S
H1572 C1558 0.960 . S
H1573 C1559 0.961 . S
H1574 C1559 0.961 . S
H1575 C1559 0.961 . S
H1576 C1560 0.931 . S
H1577 C1565 0.930 . S
H1578 C1566 0.956 . S
H1579 C1566 0.961 . S
H1580 C1566 0.961 . S
H1581 C1567 0.958 . S
H1582 C1567 0.961 . S
H1583 C1567 0.960 . S
C1584 C1585 1.391 . S
C1584 C1586 1.394 . S
C1584 H1600 0.931 . S
C1585 C1584 1.391 . S
C1585 C1589 1.376 . S
C1586 C1584 1.394 . S
C1586 C1587 1.369 . S
C1586 C1590 1.531 . S
C1587 C1586 1.369 . S
C1587 C1588 1.410 . S
C1587 C1595 1.503 . S
C1588 C1587 1.410 . S
C1588 C1589 1.392 . S
C1588 C1591 1.511 . S
C1589 C1585 1.376 . S
C1589 C1588 1.392 . S
C1589 H1601 0.929 . S
C1590 C1586 1.531 . S
C1590 H1602 0.960 . S
C1590 H1603 0.962 . S
C1590 H1604 0.960 . S
C1591 C1588 1.511 . S
C1591 H1605 0.961 . S
C1591 H1606 0.961 . S
C1591 H1607 0.961 . S
C1592 C1593 1.370 . S
C1592 C1594 1.363 . S
C1592 H1608 0.931 . S
C1593 C1592 1.370 . S
C1593 C1597 1.408 . S
C1594 C1592 1.363 . S
C1594 C1595 1.370 . S
C1594 C1598 1.524 . S
C1595 C1587 1.503 . S
C1595 C1594 1.370 . S
C1595 C1596 1.403 . S
C1596 C1595 1.403 . S
C1596 C1597 1.404 . S
C1596 C1599 1.539 . S
C1597 C1593 1.408 . S
C1597 C1596 1.404 . S
C1597 H1609 0.930 . S
C1598 C1594 1.524 . S
C1598 H1610 0.956 . S
C1598 H1611 0.961 . S
C1598 H1612 0.961 . S
C1599 C1596 1.539 . S
C1599 H1613 0.958 . S
C1599 H1614 0.961 . S
C1599 H1615 0.960 . S
H1600 C1584 0.931 . S
H1601 C1589 0.929 . S
H1602 C1590 0.960 . S
H1603 C1590 0.962 . S
H1604 C1590 0.960 . S
H1605 C1591 0.961 . S
H1606 C1591 0.961 . S
H1607 C1591 0.961 . S
H1608 C1592 0.931 . S
H1609 C1597 0.930 . S
H1610 C1598 0.956 . S
H1611 C1598 0.961 . S
H1612 C1598 0.961 . S
H1613 C1599 0.958 . S
H1614 C1599 0.961 . S
H1615 C1599 0.960 . S
C1616 C1617 1.391 . S
C1616 C1618 1.394 . S
C1616 H1632 0.931 . S
C1617 C1616 1.391 . S
C1617 C1621 1.376 . S
C1618 C1616 1.394 . S
C1618 C1619 1.369 . S
C1618 C1622 1.531 . S
C1619 C1618 1.369 . S
C1619 C1620 1.410 . S
C1619 C1627 1.503 . S
C1620 C1619 1.410 . S
C1620 C1621 1.392 . S
C1620 C1623 1.511 . S
C1621 C1617 1.376 . S
C1621 C1620 1.392 . S
C1621 H1633 0.929 . S
C1622 C1618 1.531 . S
C1622 H1634 0.960 . S
C1622 H1635 0.962 . S
C1622 H1636 0.960 . S
C1623 C1620 1.511 . S
C1623 H1637 0.961 . S
C1623 H1638 0.961 . S
C1623 H1639 0.961 . S
C1624 C1625 1.370 . S
C1624 C1626 1.363 . S
C1624 H1640 0.931 . S
C1625 C1624 1.370 . S
C1625 C1629 1.408 . S
C1626 C1624 1.363 . S
C1626 C1627 1.370 . S
C1626 C1630 1.524 . S
C1627 C1619 1.503 . S
C1627 C1626 1.370 . S
C1627 C1628 1.403 . S
C1628 C1627 1.403 . S
C1628 C1629 1.404 . S
C1628 C1631 1.539 . S
C1629 C1625 1.408 . S
C1629 C1628 1.404 . S
C1629 H1641 0.930 . S
C1630 C1626 1.524 . S
C1630 H1642 0.956 . S
C1630 H1643 0.961 . S
C1630 H1644 0.961 . S
C1631 C1628 1.539 . S
C1631 H1645 0.958 . S
C1631 H1646 0.961 . S
C1631 H1647 0.960 . S
H1632 C1616 0.931 . S
H1633 C1621 0.929 . S
H1634 C1622 0.960 . S
H1635 C1622 0.962 . S
H1636 C1622 0.960 . S
H1637 C1623 0.961 . S
H1638 C1623 0.961 . S
H1639 C1623 0.961 . S
H1640 C1624 0.931 . S
H1641 C1629 0.930 . S
H1642 C1630 0.956 . S
H1643 C1630 0.961 . S
H1644 C1630 0.961 . S
H1645 C1631 0.958 . S
H1646 C1631 0.961 . S
H1647 C1631 0.960 . S
C1648 C1649 1.391 . S
C1648 C1650 1.394 . S
C1648 H1664 0.931 . S
C1649 C1648 1.391 . S
C1649 C1653 1.376 . S
C1650 C1648 1.394 . S
C1650 C1651 1.369 . S
C1650 C1654 1.531 . S
C1651 C1650 1.369 . S
C1651 C1652 1.410 . S
C1651 C1659 1.503 . S
C1652 C1651 1.410 . S
C1652 C1653 1.392 . S
C1652 C1655 1.511 . S
C1653 C1649 1.376 . S
C1653 C1652 1.392 . S
C1653 H1665 0.929 . S
C1654 C1650 1.531 . S
C1654 H1666 0.960 . S
C1654 H1667 0.962 . S
C1654 H1668 0.960 . S
C1655 C1652 1.511 . S
C1655 H1669 0.961 . S
C1655 H1670 0.961 . S
C1655 H1671 0.961 . S
C1656 C1657 1.370 . S
C1656 C1658 1.363 . S
C1656 H1672 0.931 . S
C1657 C1656 1.370 . S
C1657 C1661 1.408 . S
C1658 C1656 1.363 . S
C1658 C1659 1.370 . S
C1658 C1662 1.524 . S
C1659 C1651 1.503 . S
C1659 C1658 1.370 . S
C1659 C1660 1.403 . S
C1660 C1659 1.403 . S
C1660 C1661 1.404 . S
C1660 C1663 1.539 . S
C1661 C1657 1.408 . S
C1661 C1660 1.404 . S
C1661 H1673 0.930 . S
C1662 C1658 1.524 . S
C1662 H1674 0.956 . S
C1662 H1675 0.961 . S
C1662 H1676 0.961 . S
C1663 C1660 1.539 . S
C1663 H1677 0.958 . S
C1663 H1678 0.961 . S
C1663 H1679 0.960 . S
H1664 C1648 0.931 . S
H1665 C1653 0.929 . S
H1666 C1654 0.960 . S
H1667 C1654 0.962 . S
H1668 C1654 0.960 . S
H1669 C1655 0.961 . S
H1670 C1655 0.961 . S
H1671 C1655 0.961 . S
H1672 C1656 0.931 . S
H1673 C1661 0.930 . S
H1674 C1662 0.956 . S
H1675 C1662 0.961 . S
H1676 C1662 0.961 . S
H1677 C1663 0.958 . S
H1678 C1663 0.961 . S
H1679 C1663 0.960 . S
C1680 C1681 1.391 . S
C1680 C1682 1.394 . S
C1680 H1696 0.931 . S
C1681 C1680 1.391 . S
C1681 C1685 1.376 . S
C1682 C1680 1.394 . S
C1682 C1683 1.369 . S
C1682 C1686 1.531 . S
C1683 C1682 1.369 . S
C1683 C1684 1.410 . S
C1683 C1691 1.503 . S
C1684 C1683 1.410 . S
C1684 C1685 1.392 . S
C1684 C1687 1.511 . S
C1685 C1681 1.376 . S
C1685 C1684 1.392 . S
C1685 H1697 0.929 . S
C1686 C1682 1.531 . S
C1686 H1698 0.960 . S
C1686 H1699 0.962 . S
C1686 H1700 0.960 . S
C1687 C1684 1.511 . S
C1687 H1701 0.961 . S
C1687 H1702 0.961 . S
C1687 H1703 0.961 . S
C1688 C1689 1.370 . S
C1688 C1690 1.363 . S
C1688 H1704 0.931 . S
C1689 C1688 1.370 . S
C1689 C1693 1.408 . S
C1690 C1688 1.363 . S
C1690 C1691 1.370 . S
C1690 C1694 1.524 . S
C1691 C1683 1.503 . S
C1691 C1690 1.370 . S
C1691 C1692 1.403 . S
C1692 C1691 1.403 . S
C1692 C1693 1.404 . S
C1692 C1695 1.539 . S
C1693 C1689 1.408 . S
C1693 C1692 1.404 . S
C1693 H1705 0.930 . S
C1694 C1690 1.524 . S
C1694 H1706 0.956 . S
C1694 H1707 0.961 . S
C1694 H1708 0.961 . S
C1695 C1692 1.539 . S
C1695 H1709 0.958 . S
C1695 H1710 0.961 . S
C1695 H1711 0.960 . S
H1696 C1680 0.931 . S
H1697 C1685 0.929 . S
H1698 C1686 0.960 . S
H1699 C1686 0.962 . S
H1700 C1686 0.960 . S
H1701 C1687 0.961 . S
H1702 C1687 0.961 . S
H1703 C1687 0.961 . S
H1704 C1688 0.931 . S
H1705 C1693 0.930 . S
H1706 C1694 0.956 . S
H1707 C1694 0.961 . S
H1708 C1694 0.961 . S
H1709 C1695 0.958 . S
H1710 C1695 0.961 . S
H1711 C1695 0.960 . S
C1712 C1713 1.391 . S
C1712 C1714 1.394 . S
C1712 H1728 0.931 . S
C1713 C1712 1.391 . S
C1713 C1717 1.376 . S
C1714 C1712 1.394 . S
C1714 C1715 1.369 . S
C1714 C1718 1.531 . S
C1715 C1714 1.369 . S
C1715 C1716 1.410 . S
C1715 C1723 1.503 . S
C1716 C1715 1.410 . S
C1716 C1717 1.392 . S
C1716 C1719 1.511 . S
C1717 C1713 1.376 . S
C1717 C1716 1.392 . S
C1717 H1729 0.929 . S
C1718 C1714 1.531 . S
C1718 H1730 0.960 . S
C1718 H1731 0.962 . S
C1718 H1732 0.960 . S
C1719 C1716 1.511 . S
C1719 H1733 0.961 . S
C1719 H1734 0.961 . S
C1719 H1735 0.961 . S
C1720 C1721 1.370 . S
C1720 C1722 1.363 . S
C1720 H1736 0.931 . S
C1721 C1720 1.370 . S
C1721 C1725 1.408 . S
C1722 C1720 1.363 . S
C1722 C1723 1.370 . S
C1722 C1726 1.524 . S
C1723 C1715 1.503 . S
C1723 C1722 1.370 . S
C1723 C1724 1.403 . S
C1724 C1723 1.403 . S
C1724 C1725 1.404 . S
C1724 C1727 1.539 . S
C1725 C1721 1.408 . S
C1725 C1724 1.404 . S
C1725 H1737 0.930 . S
C1726 C1722 1.524 . S
C1726 H1738 0.956 . S
C1726 H1739 0.961 . S
C1726 H1740 0.961 . S
C1727 C1724 1.539 . S
C1727 H1741 0.958 . S
C1727 H1742 0.961 . S
C1727 H1743 0.960 . S
H1728 C1712 0.931 . S
H1729 C1717 0.929 . S
H1730 C1718 0.960 . S
H1731 C1718 0.962 . S
H1732 C1718 0.960 . S
H1733 C1719 0.961 . S
H1734 C1719 0.961 . S
H1735 C1719 0.961 . S
H1736 C1720 0.931 . S
H1737 C1725 0.930 . S
H1738 C1726 0.956 . S
H1739 C1726 0.961 . S
H1740 C1726 0.961 . S
H1741 C1727 0.958 . S
H1742 C1727 0.961 . S
H1743 C1727 0.960 . S
C1744 C1745 1.391 . S
C1744 C1746 1.394 . S
C1744 H1760 0.931 . S
C1745 C1744 1.391 . S
C1745 C1749 1.376 . S
C1746 C1744 1.394 . S
C1746 C1747 1.369 . S
C1746 C1750 1.531 . S
C1747 C1746 1.369 . S
C1747 C1748 1.410 . S
C1747 C1755 1.503 . S
C1748 C1747 1.410 . S
C1748 C1749 1.392 . S
C1748 C1751 1.511 . S
C1749 C1745 1.376 . S
C1749 C1748 1.392 . S
C1749 H1761 0.929 . S
C1750 C1746 1.531 . S
C1750 H1762 0.960 . S
C1750 H1763 0.962 . S
C1750 H1764 0.960 . S
C1751 C1748 1.511 . S
C1751 H1765 0.961 . S
C1751 H1766 0.961 . S
C1751 H1767 0.961 . S
C1752 C1753 1.370 . S
C1752 C1754 1.363 . S
C1752 H1768 0.931 . S
C1753 C1752 1.370 . S
C1753 C1757 1.408 . S
C1754 C1752 1.363 . S
C1754 C1755 1.370 . S
C1754 C1758 1.524 . S
C1755 C1747 1.503 . S
C1755 C1754 1.370 . S
C1755 C1756 1.403 . S
C1756 C1755 1.403 . S
C1756 C1757 1.404 . S
C1756 C1759 1.539 . S
C1757 C1753 1.408 . S
C1757 C1756 1.404 . S
C1757 H1769 0.930 . S
C1758 C1754 1.524 . S
C1758 H1770 0.956 . S
C1758 H1771 0.961 . S
C1758 H1772 0.961 . S
C1759 C1756 1.539 . S
C1759 H1773 0.958 . S
C1759 H1774 0.961 . S
C1759 H1775 0.960 . S
H1760 C1744 0.931 . S
H1761 C1749 0.929 . S
H1762 C1750 0.960 . S
H1763 C1750 0.962 . S
H1764 C1750 0.960 . S
H1765 C1751 0.961 . S
H1766 C1751 0.961 . S
H1767 C1751 0.961 . S
H1768 C1752 0.931 . S
H1769 C1757 0.930 . S
H1770 C1758 0.956 . S
H1771 C1758 0.961 . S
H1772 C1758 0.961 . S
H1773 C1759 0.958 . S
H1774 C1759 0.961 . S
H1775 C1759 0.960 . S
C1776 C1777 1.391 . S
C1776 C1778 1.394 . S
C1776 H1792 0.931 . S
C1777 C1776 1.391 . S
C1777 C1781 1.376 . S
C1778 C1776 1.394 . S
C1778 C1779 1.369 . S
C1778 C1782 1.531 . S
C1779 C1778 1.369 . S
C1779 C1780 1.410 . S
C1779 C1787 1.503 . S
C1780 C1779 1.410 . S
C1780 C1781 1.392 . S
C1780 C1783 1.511 . S
C1781 C1777 1.376 . S
C1781 C1780 1.392 . S
C1781 H1793 0.929 . S
C1782 C1778 1.531 . S
C1782 H1794 0.960 . S
C1782 H1795 0.962 . S
C1782 H1796 0.960 . S
C1783 C1780 1.511 . S
C1783 H1797 0.961 . S
C1783 H1798 0.961 . S
C1783 H1799 0.961 . S
C1784 C1785 1.370 . S
C1784 C1786 1.363 . S
C1784 H1800 0.931 . S
C1785 C1784 1.370 . S
C1785 C1789 1.408 . S
C1786 C1784 1.363 . S
C1786 C1787 1.370 . S
C1786 C1790 1.524 . S
C1787 C1779 1.503 . S
C1787 C1786 1.370 . S
C1787 C1788 1.403 . S
C1788 C1787 1.403 . S
C1788 C1789 1.404 . S
C1788 C1791 1.539 . S
C1789 C1785 1.408 . S
C1789 C1788 1.404 . S
C1789 H1801 0.930 . S
C1790 C1786 1.524 . S
C1790 H1802 0.956 . S
C1790 H1803 0.961 . S
C1790 H1804 0.961 . S
C1791 C1788 1.539 . S
C1791 H1805 0.958 . S
C1791 H1806 0.961 . S
C1791 H1807 0.960 . S
H1792 C1776 0.931 . S
H1793 C1781 0.929 . S
H1794 C1782 0.960 . S
H1795 C1782 0.962 . S
H1796 C1782 0.960 . S
H1797 C1783 0.961 . S
H1798 C1783 0.961 . S
H1799 C1783 0.961 . S
H1800 C1784 0.931 . S
H1801 C1789 0.930 . S
H1802 C1790 0.956 . S
H1803 C1790 0.961 . S
H1804 C1790 0.961 . S
H1805 C1791 0.958 . S
H1806 C1791 0.961 . S
H1807 C1791 0.960 . S
C1808 C1809 1.391 . S
C1808 C1810 1.394 . S
C1808 H1824 0.931 . S
C1809 C1808 1.391 . S
C1809 C1813 1.376 . S
C1810 C1808 1.394 . S
C1810 C1811 1.369 . S
C1810 C1814 1.531 . S
C1811 C1810 1.369 . S
C1811 C1812 1.410 . S
C1811 C1819 1.503 . S
C1812 C1811 1.410 . S
C1812 C1813 1.392 . S
C1812 C1815 1.511 . S
C1813 C1809 1.376 . S
C1813 C1812 1.392 . S
C1813 H1825 0.929 . S
C1814 C1810 1.531 . S
C1814 H1826 0.960 . S
C1814 H1827 0.962 . S
C1814 H1828 0.960 . S
C1815 C1812 1.511 . S
C1815 H1829 0.961 . S
C1815 H1830 0.961 . S
C1815 H1831 0.961 . S
C1816 C1817 1.370 . S
C1816 C1818 1.363 . S
C1816 H1832 0.931 . S
C1817 C1816 1.370 . S
C1817 C1821 1.408 . S
C1818 C1816 1.363 . S
C1818 C1819 1.370 . S
C1818 C1822 1.524 . S
C1819 C1811 1.503 . S
C1819 C1818 1.370 . S
C1819 C1820 1.403 . S
C1820 C1819 1.403 . S
C1820 C1821 1.404 . S
C1820 C1823 1.539 . S
C1821 C1817 1.408 . S
C1821 C1820 1.404 . S
C1821 H1833 0.930 . S
C1822 C1818 1.524 . S
C1822 H1834 0.956 . S
C1822 H1835 0.961 . S
C1822 H1836 0.961 . S
C1823 C1820 1.539 . S
C1823 H1837 0.958 . S
C1823 H1838 0.961 . S
C1823 H1839 0.960 . S
H1824 C1808 0.931 . S
H1825 C1813 0.929 . S
H1826 C1814 0.960 . S
H1827 C1814 0.962 . S
H1828 C1814 0.960 . S
H1829 C1815 0.961 . S
H1830 C1815 0.961 . S
H1831 C1815 0.961 . S
H1832 C1816 0.931 . S
H1833 C1821 0.930 . S
H1834 C1822 0.956 . S
H1835 C1822 0.961 . S
H1836 C1822 0.961 . S
H1837 C1823 0.958 . S
H1838 C1823 0.961 . S
H1839 C1823 0.960 . S
C1840 C1841 1.391 . S
C1840 C1842 1.394 . S
C1840 H1856 0.931 . S
C1841 C1840 1.391 . S
C1841 C1845 1.376 . S
C1842 C1840 1.394 . S
C1842 C1843 1.369 . S
C1842 C1846 1.531 . S
C1843 C1842 1.369 . S
C1843 C1844 1.410 . S
C1843 C1851 1.503 . S
C1844 C1843 1.410 . S
C1844 C1845 1.392 . S
C1844 C1847 1.511 . S
C1845 C1841 1.376 . S
C1845 C1844 1.392 . S
C1845 H1857 0.929 . S
C1846 C1842 1.531 . S
C1846 H1858 0.960 . S
C1846 H1859 0.962 . S
C1846 H1860 0.960 . S
C1847 C1844 1.511 . S
C1847 H1861 0.961 . S
C1847 H1862 0.961 . S
C1847 H1863 0.961 . S
C1848 C1849 1.370 . S
C1848 C1850 1.363 . S
C1848 H1864 0.931 . S
C1849 C1848 1.370 . S
C1849 C1853 1.408 . S
C1850 C1848 1.363 . S
C1850 C1851 1.370 . S
C1850 C1854 1.524 . S
C1851 C1843 1.503 . S
C1851 C1850 1.370 . S
C1851 C1852 1.403 . S
C1852 C1851 1.403 . S
C1852 C1853 1.404 . S
C1852 C1855 1.539 . S
C1853 C1849 1.408 . S
C1853 C1852 1.404 . S
C1853 H1865 0.930 . S
C1854 C1850 1.524 . S
C1854 H1866 0.956 . S
C1854 H1867 0.961 . S
C1854 H1868 0.961 . S
C1855 C1852 1.539 . S
C1855 H1869 0.958 . S
C1855 H1870 0.961 . S
C1855 H1871 0.960 . S
H1856 C1840 0.931 . S
H1857 C1845 0.929 . S
H1858 C1846 0.960 . S
H1859 C1846 0.962 . S
H1860 C1846 0.960 . S
H1861 C1847 0.961 . S
H1862 C1847 0.961 . S
H1863 C1847 0.961 . S
H1864 C1848 0.931 . S
H1865 C1853 0.930 . S
H1866 C1854 0.956 . S
H1867 C1854 0.961 . S
H1868 C1854 0.961 . S
H1869 C1855 0.958 . S
H1870 C1855 0.961 . S
H1871 C1855 0.960 . S
C1872 C1873 1.391 . S
C1872 C1874 1.394 . S
C1872 H1888 0.931 . S
C1873 C1872 1.391 . S
C1873 C1877 1.376 . S
C1874 C1872 1.394 . S
C1874 C1875 1.369 . S
C1874 C1878 1.531 . S
C1875 C1874 1.369 . S
C1875 C1876 1.410 . S
C1875 C1883 1.503 . S
C1876 C1875 1.410 . S
C1876 C1877 1.392 . S
C1876 C1879 1.511 . S
C1877 C1873 1.376 . S
C1877 C1876 1.392 . S
C1877 H1889 0.929 . S
C1878 C1874 1.531 . S
C1878 H1890 0.960 . S
C1878 H1891 0.962 . S
C1878 H1892 0.960 . S
C1879 C1876 1.511 . S
C1879 H1893 0.961 . S
C1879 H1894 0.961 . S
C1879 H1895 0.961 . S
C1880 C1881 1.370 . S
C1880 C1882 1.363 . S
C1880 H1896 0.931 . S
C1881 C1880 1.370 . S
C1881 C1885 1.408 . S
C1882 C1880 1.363 . S
C1882 C1883 1.370 . S
C1882 C1886 1.524 . S
C1883 C1875 1.503 . S
C1883 C1882 1.370 . S
C1883 C1884 1.403 . S
C1884 C1883 1.403 . S
C1884 C1885 1.404 . S
C1884 C1887 1.539 . S
C1885 C1881 1.408 . S
C1885 C1884 1.404 . S
C1885 H1897 0.930 . S
C1886 C1882 1.524 . S
C1886 H1898 0.956 . S
C1886 H1899 0.961 . S
C1886 H1900 0.961 . S
C1887 C1884 1.539 . S
C1887 H1901 0.958 . S
C1887 H1902 0.961 . S
C1887 H1903 0.960 . S
H1888 C1872 0.931 . S
H1889 C1877 0.929 . S
H1890 C1878 0.960 . S
H1891 C1878 0.962 . S
H1892 C1878 0.960 . S
H1893 C1879 0.961 . S
H1894 C1879 0.961 . S
H1895 C1879 0.961 . S
H1896 C1880 0.931 . S
H1897 C1885 0.930 . S
H1898 C1886 0.956 . S
H1899 C1886 0.961 . S
H1900 C1886 0.961 . S
H1901 C1887 0.958 . S
H1902 C1887 0.961 . S
H1903 C1887 0.960 . S
C1904 C1905 1.391 . S
C1904 C1906 1.394 . S
C1904 H1920 0.931 . S
C1905 C1904 1.391 . S
C1905 C1909 1.376 . S
C1906 C1904 1.394 . S
C1906 C1907 1.369 . S
C1906 C1910 1.531 . S
C1907 C1906 1.369 . S
C1907 C1908 1.410 . S
C1907 C1915 1.503 . S
C1908 C1907 1.410 . S
C1908 C1909 1.392 . S
C1908 C1911 1.511 . S
C1909 C1905 1.376 . S
C1909 C1908 1.392 . S
C1909 H1921 0.929 . S
C1910 C1906 1.531 . S
C1910 H1922 0.960 . S
C1910 H1923 0.962 . S
C1910 H1924 0.960 . S
C1911 C1908 1.511 . S
C1911 H1925 0.961 . S
C1911 H1926 0.961 . S
C1911 H1927 0.961 . S
C1912 C1913 1.370 . S
C1912 C1914 1.363 . S
C1912 H1928 0.931 . S
C1913 C1912 1.370 . S
C1913 C1917 1.408 . S
C1914 C1912 1.363 . S
C1914 C1915 1.370 . S
C1914 C1918 1.524 . S
C1915 C1907 1.503 . S
C1915 C1914 1.370 . S
C1915 C1916 1.403 . S
C1916 C1915 1.403 . S
C1916 C1917 1.404 . S
C1916 C1919 1.539 . S
C1917 C1913 1.408 . S
C1917 C1916 1.404 . S
C1917 H1929 0.930 . S
C1918 C1914 1.524 . S
C1918 H1930 0.956 . S
C1918 H1931 0.961 . S
C1918 H1932 0.961 . S
C1919 C1916 1.539 . S
C1919 H1933 0.958 . S
C1919 H1934 0.961 . S
C1919 H1935 0.960 . S
H1920 C1904 0.931 . S
H1921 C1909 0.929 . S
H1922 C1910 0.960 . S
H1923 C1910 0.962 . S
H1924 C1910 0.960 . S
H1925 C1911 0.961 . S
H1926 C1911 0.961 . S
H1927 C1911 0.961 . S
H1928 C1912 0.931 . S
H1929 C1917 0.930 . S
H1930 C1918 0.956 . S
H1931 C1918 0.961 . S
H1932 C1918 0.961 . S
H1933 C1919 0.958 . S
H1934 C1919 0.961 . S
H1935 C1919 0.960 . S
C1936 C1937 1.391 . S
C1936 C1938 1.394 . S
C1936 H1952 0.931 . S
C1937 C1936 1.391 . S
C1937 C1941 1.376 . S
C1938 C1936 1.394 . S
C1938 C1939 1.369 . S
C1938 C1942 1.531 . S
C1939 C1938 1.369 . S
C1939 C1940 1.410 . S
C1939 C1947 1.503 . S
C1940 C1939 1.410 . S
C1940 C1941 1.392 . S
C1940 C1943 1.511 . S
C1941 C1937 1.376 . S
C1941 C1940 1.392 . S
C1941 H1953 0.929 . S
C1942 C1938 1.531 . S
C1942 H1954 0.960 . S
C1942 H1955 0.962 . S
C1942 H1956 0.960 . S
C1943 C1940 1.511 . S
C1943 H1957 0.961 . S
C1943 H1958 0.961 . S
C1943 H1959 0.961 . S
C1944 C1945 1.370 . S
C1944 C1946 1.363 . S
C1944 H1960 0.931 . S
C1945 C1944 1.370 . S
C1945 C1949 1.408 . S
C1946 C1944 1.363 . S
C1946 C1947 1.370 . S
C1946 C1950 1.524 . S
C1947 C1939 1.503 . S
C1947 C1946 1.370 . S
C1947 C1948 1.403 . S
C1948 C1947 1.403 . S
C1948 C1949 1.404 . S
C1948 C1951 1.539 . S
C1949 C1945 1.408 . S
C1949 C1948 1.404 . S
C1949 H1961 0.930 . S
C1950 C1946 1.524 . S
C1950 H1962 0.956 . S
C1950 H1963 0.961 . S
C1950 H1964 0.961 . S
C1951 C1948 1.539 . S
C1951 H1965 0.958 . S
C1951 H1966 0.961 . S
C1951 H1967 0.960 . S
H1952 C1936 0.931 . S
H1953 C1941 0.929 . S
H1954 C1942 0.960 . S
H1955 C1942 0.962 . S
H1956 C1942 0.960 . S
H1957 C1943 0.961 . S
H1958 C1943 0.961 . S
H1959 C1943 0.961 . S
H1960 C1944 0.931 . S
H1961 C1949 0.930 . S
H1962 C1950 0.956 . S
H1963 C1950 0.961 . S
H1964 C1950 0.961 . S
H1965 C1951 0.958 . S
H1966 C1951 0.961 . S
H1967 C1951 0.960 . S
C1968 C1969 1.391 . S
C1968 C1970 1.394 . S
C1968 H1984 0.931 . S
C1969 C1968 1.391 . S
C1969 C1973 1.376 . S
C1970 C1968 1.394 . S
C1970 C1971 1.369 . S
C1970 C1974 1.531 . S
C1971 C1970 1.369 . S
C1971 C1972 1.410 . S
C1971 C1979 1.503 . S
C1972 C1971 1.410 . S
C1972 C1973 1.392 . S
C1972 C1975 1.511 . S
C1973 C1969 1.376 . S
C1973 C1972 1.392 . S
C1973 H1985 0.929 . S
C1974 C1970 1.531 . S
C1974 H1986 0.960 . S
C1974 H1987 0.962 . S
C1974 H1988 0.960 . S
C1975 C1972 1.511 . S
C1975 H1989 0.961 . S
C1975 H1990 0.961 . S
C1975 H1991 0.961 . S
C1976 C1977 1.370 . S
C1976 C1978 1.363 . S
C1976 H1992 0.931 . S
C1977 C1976 1.370 . S
C1977 C1981 1.408 . S
C1978 C1976 1.363 . S
C1978 C1979 1.370 . S
C1978 C1982 1.524 . S
C1979 C1971 1.503 . S
C1979 C1978 1.370 . S
C1979 C1980 1.403 . S
C1980 C1979 1.403 . S
C1980 C1981 1.404 . S
C1980 C1983 1.539 . S
C1981 C1977 1.408 . S
C1981 C1980 1.404 . S
C1981 H1993 0.930 . S
C1982 C1978 1.524 . S
C1982 H1994 0.956 . S
C1982 H1995 0.961 . S
C1982 H1996 0.961 . S
C1983 C1980 1.539 . S
C1983 H1997 0.958 . S
C1983 H1998 0.961 . S
C1983 H1999 0.960 . S
H1984 C1968 0.931 . S
H1985 C1973 0.929 . S
H1986 C1974 0.960 . S
H1987 C1974 0.962 . S
H1988 C1974 0.960 . S
H1989 C1975 0.961 . S
H1990 C1975 0.961 . S
H1991 C1975 0.961 . S
H1992 C1976 0.931 . S
H1993 C1981 0.930 . S
H1994 C1982 0.956 . S
H1995 C1982 0.961 . S
H1996 C1982 0.961 . S
H1997 C1983 0.958 . S
H1998 C1983 0.961 . S
H1999 C1983 0.960 . S
C2000 C2001 1.391 1_655 S
C2000 C2002 1.394 . S
C2000 H2016 0.931 . S
C2001 C2000 1.391 1_455 S
C2001 C2005 1.376 . S
C2002 C2000 1.394 . S
C2002 C2003 1.369 1_655 S
C2002 C2006 1.531 . S
C2003 C2002 1.369 1_455 S
C2003 C2004 1.410 . S
C2003 C2011 1.503 1_455 S
C2004 C2003 1.410 . S
C2004 C2005 1.392 . S
C2004 C2007 1.511 . S
C2005 C2001 1.376 . S
C2005 C2004 1.392 . S
C2005 H2017 0.929 . S
C2006 C2002 1.531 . S
C2006 H2018 0.960 . S
C2006 H2019 0.962 . S
C2006 H2020 0.960 . S
C2007 C2004 1.511 . S
C2007 H2021 0.961 . S
C2007 H2022 0.961 . S
C2007 H2023 0.961 . S
C2008 C2009 1.370 . S
C2008 C2010 1.363 . S
C2008 H2024 0.931 . S
C2009 C2008 1.370 . S
C2009 C2013 1.408 . S
C2010 C2008 1.363 . S
C2010 C2011 1.370 . S
C2010 C2014 1.521 1_655 S
C2011 C2003 1.503 1_655 S
C2011 C2010 1.370 . S
C2011 C2012 1.403 . S
C2012 C2011 1.403 . S
C2012 C2013 1.404 . S
C2012 C2015 1.539 . S
C2013 C2009 1.408 . S
C2013 C2012 1.404 . S
C2013 H2025 0.930 . S
C2014 C2010 1.521 1_455 S
C2014 H2026 0.946 1_455 S
C2014 H2027 0.975 . S
C2014 H2028 0.960 1_455 S
C2015 C2012 1.539 . S
C2015 H2029 0.958 . S
C2015 H2030 0.961 . S
C2015 H2031 0.960 1_655 S
H2016 C2000 0.931 . S
H2017 C2005 0.929 . S
H2018 C2006 0.960 . S
H2019 C2006 0.962 . S
H2020 C2006 0.960 . S
H2021 C2007 0.961 . S
H2022 C2007 0.961 . S
H2023 C2007 0.961 . S
H2024 C2008 0.931 . S
H2025 C2013 0.930 . S
H2026 C2014 0.946 1_655 S
H2027 C2014 0.975 . S
H2028 C2014 0.960 1_655 S
H2029 C2015 0.958 . S
H2030 C2015 0.961 . S
H2031 C2015 0.960 1_455 S
C2032 C2033 1.391 . S
C2032 C2034 1.394 . S
C2032 H2048 0.931 . S
C2033 C2032 1.391 . S
C2033 C2037 1.376 . S
C2034 C2032 1.394 . S
C2034 C2035 1.369 . S
C2034 C2038 1.531 . S
C2035 C2034 1.369 . S
C2035 C2036 1.410 . S
C2035 C2043 1.499 1_565 S
C2036 C2035 1.410 . S
C2036 C2037 1.392 . S
C2036 C2039 1.511 1_565 S
C2037 C2033 1.376 . S
C2037 C2036 1.392 . S
C2037 H2049 0.929 . S
C2038 C2034 1.531 . S
C2038 H2050 0.960 . S
C2038 H2051 0.962 . S
C2038 H2052 0.960 . S
C2039 C2036 1.511 1_545 S
C2039 H2053 0.961 . S
C2039 H2054 0.961 . S
C2039 H2055 0.961 1_545 S
C2040 C2041 1.370 . S
C2040 C2042 1.363 . S
C2040 H2056 0.931 . S
C2041 C2040 1.370 . S
C2041 C2045 1.408 1_545 S
C2042 C2040 1.363 . S
C2042 C2043 1.381 . S
C2042 C2046 1.524 . S
C2043 C2035 1.499 1_545 S
C2043 C2042 1.381 . S
C2043 C2044 1.396 1_545 S
C2044 C2043 1.396 1_565 S
C2044 C2045 1.404 . S
C2044 C2047 1.539 . S
C2045 C2041 1.408 1_565 S
C2045 C2044 1.404 . S
C2045 H2057 0.930 . S
C2046 C2042 1.524 . S
C2046 H2058 0.956 . S
C2046 H2059 0.961 . S
C2046 H2060 0.961 . S
C2047 C2044 1.539 . S
C2047 H2061 0.958 . S
C2047 H2062 0.961 . S
C2047 H2063 0.960 . S
H2048 C2032 0.931 . S
H2049 C2037 0.929 . S
H2050 C2038 0.960 . S
H2051 C2038 0.962 . S
H2052 C2038 0.960 . S
H2053 C2039 0.961 . S
H2054 C2039 0.961 . S
H2055 C2039 0.961 1_565 S
H2056 C2040 0.931 . S
H2057 C2045 0.930 . S
H2058 C2046 0.956 . S
H2059 C2046 0.961 . S
H2060 C2046 0.961 . S
H2061 C2047 0.958 . S
H2062 C2047 0.961 . S
H2063 C2047 0.960 . S
C2064 C2065 1.391 . S
C2064 C2066 1.394 . S
C2064 H2080 0.931 . S
C2065 C2064 1.391 . S
C2065 C2069 1.376 . S
C2066 C2064 1.394 . S
C2066 C2067 1.369 . S
C2066 C2070 1.531 . S
C2067 C2066 1.369 . S
C2067 C2068 1.410 . S
C2067 C2075 1.501 1_455 S
C2068 C2067 1.410 . S
C2068 C2069 1.392 . S
C2068 C2071 1.511 . S
C2069 C2065 1.376 . S
C2069 C2068 1.392 . S
C2069 H2081 0.929 . S
C2070 C2066 1.531 . S
C2070 H2082 0.960 . S
C2070 H2083 0.962 1_455 S
C2070 H2084 0.960 . S
C2071 C2068 1.511 . S
C2071 H2085 0.961 . S
C2071 H2086 0.961 . S
C2071 H2087 0.961 . S
C2072 C2073 1.370 . S
C2072 C2074 1.363 . S
C2072 H2088 0.931 . S
C2073 C2072 1.370 . S
C2073 C2077 1.408 1_655 S
C2074 C2072 1.363 . S
C2074 C2075 1.378 . S
C2074 C2078 1.524 . S
C2075 C2067 1.501 1_655 S
C2075 C2074 1.378 . S
C2075 C2076 1.398 1_655 S
C2076 C2075 1.398 1_455 S
C2076 C2077 1.404 . S
C2076 C2079 1.539 . S
C2077 C2073 1.408 1_455 S
C2077 C2076 1.404 . S
C2077 H2089 0.930 . S
C2078 C2074 1.524 . S
C2078 H2090 0.956 . S
C2078 H2091 0.961 . S
C2078 H2092 0.961 . S
C2079 C2076 1.539 . S
C2079 H2093 0.958 . S
C2079 H2094 0.961 . S
C2079 H2095 0.960 . S
H2080 C2064 0.931 . S
H2081 C2069 0.929 . S
H2082 C2070 0.960 . S
H2083 C2070 0.962 1_655 S
H2084 C2070 0.960 . S
H2085 C2071 0.961 . S
H2086 C2071 0.961 . S
H2087 C2071 0.961 . S
H2088 C2072 0.931 . S
H2089 C2077 0.930 . S
H2090 C2078 0.956 . S
H2091 C2078 0.961 . S
H2092 C2078 0.961 . S
H2093 C2079 0.958 . S
H2094 C2079 0.961 . S
H2095 C2079 0.960 . S
C2096 C2097 1.391 . S
C2096 C2098 1.394 . S
C2096 H2112 0.931 . S
C2097 C2096 1.391 . S
C2097 C2101 1.376 . S
C2098 C2096 1.394 . S
C2098 C2099 1.358 1_565 S
C2098 C2102 1.531 . S
C2099 C2098 1.358 1_545 S
C2099 C2100 1.414 . S
C2099 C2107 1.508 . S
C2100 C2099 1.414 . S
C2100 C2101 1.392 1_545 S
C2100 C2103 1.511 . S
C2101 C2097 1.376 . S
C2101 C2100 1.392 1_565 S
C2101 H2113 0.929 1_565 S
C2102 C2098 1.531 . S
C2102 H2114 0.960 . S
C2102 H2115 0.962 . S
C2102 H2116 0.960 . S
C2103 C2100 1.511 . S
C2103 H2117 0.961 . S
C2103 H2118 0.961 . S
C2103 H2119 0.961 . S
C2104 C2105 1.370 1_565 S
C2104 C2106 1.363 . S
C2104 H2120 0.931 . S
C2105 C2104 1.370 1_545 S
C2105 C2109 1.408 . S
C2106 C2104 1.363 . S
C2106 C2107 1.370 1_565 S
C2106 C2110 1.524 . S
C2107 C2099 1.508 . S
C2107 C2106 1.370 1_545 S
C2107 C2108 1.403 . S
C2108 C2107 1.403 . S
C2108 C2109 1.404 . S
C2108 C2111 1.539 . S
C2109 C2105 1.408 . S
C2109 C2108 1.404 . S
C2109 H2121 0.930 . S
C2110 C2106 1.524 . S
C2110 H2122 0.956 . S
C2110 H2123 0.961 . S
C2110 H2124 0.961 . S
C2111 C2108 1.539 . S
C2111 H2125 0.958 . S
C2111 H2126 0.961 . S
C2111 H2127 0.960 . S
H2112 C2096 0.931 . S
H2113 C2101 0.929 1_545 S
H2114 C2102 0.960 . S
H2115 C2102 0.962 . S
H2116 C2102 0.960 . S
H2117 C2103 0.961 . S
H2118 C2103 0.961 . S
H2119 C2103 0.961 . S
H2120 C2104 0.931 . S
H2121 C2109 0.930 . S
H2122 C2110 0.956 . S
H2123 C2110 0.961 . S
H2124 C2110 0.961 . S
H2125 C2111 0.958 . S
H2126 C2111 0.961 . S
H2127 C2111 0.960 . S
C2128 C2129 1.391 . S
C2128 C2130 1.394 . S
C2128 H2144 0.931 . S
C2129 C2128 1.391 . S
C2129 C2133 1.376 . S
C2130 C2128 1.394 . S
C2130 C2131 1.369 . S
C2130 C2134 1.531 . S
C2131 C2130 1.369 . S
C2131 C2132 1.410 . S
C2131 C2139 1.503 1_455 S
C2132 C2131 1.410 . S
C2132 C2133 1.392 . S
C2132 C2135 1.511 . S
C2133 C2129 1.376 . S
C2133 C2132 1.392 . S
C2133 H2145 0.929 . S
C2134 C2130 1.531 . S
C2134 H2146 0.960 1_455 S
C2134 H2147 0.962 1_455 S
C2134 H2148 0.960 . S
C2135 C2132 1.511 . S
C2135 H2149 0.961 . S
C2135 H2150 0.961 . S
C2135 H2151 0.961 . S
C2136 C2137 1.370 . S
C2136 C2138 1.363 . S
C2136 H2152 0.931 . S
C2137 C2136 1.370 . S
C2137 C2141 1.408 . S
C2138 C2136 1.363 . S
C2138 C2139 1.370 . S
C2138 C2142 1.524 . S
C2139 C2131 1.503 1_655 S
C2139 C2138 1.370 . S
C2139 C2140 1.403 . S
C2140 C2139 1.403 . S
C2140 C2141 1.404 . S
C2140 C2143 1.539 . S
C2141 C2137 1.408 . S
C2141 C2140 1.404 . S
C2141 H2153 0.930 . S
C2142 C2138 1.524 . S
C2142 H2154 0.956 . S
C2142 H2155 0.961 . S
C2142 H2156 0.961 . S
C2143 C2140 1.539 . S
C2143 H2157 0.958 . S
C2143 H2158 0.961 . S
C2143 H2159 0.960 1_655 S
H2144 C2128 0.931 . S
H2145 C2133 0.929 . S
H2146 C2134 0.960 1_655 S
H2147 C2134 0.962 1_655 S
H2148 C2134 0.960 . S
H2149 C2135 0.961 . S
H2150 C2135 0.961 . S
H2151 C2135 0.961 . S
H2152 C2136 0.931 . S
H2153 C2141 0.930 . S
H2154 C2142 0.956 . S
H2155 C2142 0.961 . S
H2156 C2142 0.961 . S
H2157 C2143 0.958 . S
H2158 C2143 0.961 . S
H2159 C2143 0.960 1_455 S
C2160 C2161 1.391 . S
C2160 C2162 1.394 . S
C2160 H2176 0.931 . S
C2161 C2160 1.391 . S
C2161 C2165 1.376 . S
C2162 C2160 1.394 . S
C2162 C2163 1.369 . S
C2162 C2166 1.531 . S
C2163 C2162 1.369 . S
C2163 C2164 1.410 . S
C2163 C2171 1.503 1_545 S
C2164 C2163 1.410 . S
C2164 C2165 1.392 . S
C2164 C2167 1.511 . S
C2165 C2161 1.376 . S
C2165 C2164 1.392 . S
C2165 H2177 0.929 . S
C2166 C2162 1.531 . S
C2166 H2178 0.960 . S
C2166 H2179 0.962 . S
C2166 H2180 0.960 . S
C2167 C2164 1.511 . S
C2167 H2181 0.961 . S
C2167 H2182 0.961 1_545 S
C2167 H2183 0.961 . S
C2168 C2169 1.370 . S
C2168 C2170 1.363 . S
C2168 H2184 0.931 . S
C2169 C2168 1.370 . S
C2169 C2173 1.408 . S
C2170 C2168 1.363 . S
C2170 C2171 1.370 . S
C2170 C2174 1.524 . S
C2171 C2163 1.503 1_565 S
C2171 C2170 1.370 . S
C2171 C2172 1.403 . S
C2172 C2171 1.403 . S
C2172 C2173 1.404 . S
C2172 C2175 1.539 . S
C2173 C2169 1.408 . S
C2173 C2172 1.404 . S
C2173 H2185 0.930 . S
C2174 C2170 1.524 . S
C2174 H2186 0.956 . S
C2174 H2187 0.961 . S
C2174 H2188 0.961 . S
C2175 C2172 1.539 . S
C2175 H2189 0.958 1_565 S
C2175 H2190 0.961 . S
C2175 H2191 0.960 1_565 S
H2176 C2160 0.931 . S
H2177 C2165 0.929 . S
H2178 C2166 0.960 . S
H2179 C2166 0.962 . S
H2180 C2166 0.960 . S
H2181 C2167 0.961 . S
H2182 C2167 0.961 1_565 S
H2183 C2167 0.961 . S
H2184 C2168 0.931 . S
H2185 C2173 0.930 . S
H2186 C2174 0.956 . S
H2187 C2174 0.961 . S
H2188 C2174 0.961 . S
H2189 C2175 0.958 1_545 S
H2190 C2175 0.961 . S
H2191 C2175 0.960 1_545 S
C2192 C2193 1.391 . S
C2192 C2194 1.394 . S
C2192 H2208 0.931 . S
C2193 C2192 1.391 . S
C2193 C2197 1.376 . S
C2194 C2192 1.394 . S
C2194 C2195 1.369 . S
C2194 C2198 1.531 . S
C2195 C2194 1.369 . S
C2195 C2196 1.410 . S
C2195 C2203 1.503 1_455 S
C2196 C2195 1.410 . S
C2196 C2197 1.392 . S
C2196 C2199 1.511 1_455 S
C2197 C2193 1.376 . S
C2197 C2196 1.392 . S
C2197 H2209 0.929 . S
C2198 C2194 1.531 . S
C2198 H2210 0.960 . S
C2198 H2211 0.962 . S
C2198 H2212 0.960 . S
C2199 C2196 1.511 1_655 S
C2199 H2213 0.961 1_655 S
C2199 H2214 0.961 . S
C2199 H2215 0.961 . S
C2200 C2201 1.370 . S
C2200 C2202 1.363 . S
C2200 H2216 0.931 . S
C2201 C2200 1.370 . S
C2201 C2205 1.408 . S
C2202 C2200 1.363 . S
C2202 C2203 1.370 . S
C2202 C2206 1.524 . S
C2203 C2195 1.503 1_655 S
C2203 C2202 1.370 . S
C2203 C2204 1.403 . S
C2204 C2203 1.403 . S
C2204 C2205 1.404 . S
C2204 C2207 1.539 . S
C2205 C2201 1.408 . S
C2205 C2204 1.404 . S
C2205 H2217 0.930 . S
C2206 C2202 1.524 . S
C2206 H2218 0.956 1_655 S
C2206 H2219 0.961 . S
C2206 H2220 0.961 . S
C2207 C2204 1.539 . S
C2207 H2221 0.958 . S
C2207 H2222 0.961 . S
C2207 H2223 0.960 . S
H2208 C2192 0.931 . S
H2209 C2197 0.929 . S
H2210 C2198 0.960 . S
H2211 C2198 0.962 . S
H2212 C2198 0.960 . S
H2213 C2199 0.961 1_455 S
H2214 C2199 0.961 . S
H2215 C2199 0.961 . S
H2216 C2200 0.931 . S
H2217 C2205 0.930 . S
H2218 C2206 0.956 1_455 S
H2219 C2206 0.961 . S
H2220 C2206 0.961 . S
H2221 C2207 0.958 . S
H2222 C2207 0.961 . S
H2223 C2207 0.960 . S
C2224 C2225 1.391 . S
C2224 C2226 1.394 . S
C2224 H2240 0.931 . S
C2225 C2224 1.391 . S
C2225 C2229 1.376 . S
C2226 C2224 1.394 . S
C2226 C2227 1.369 . S
C2226 C2230 1.531 . S
C2227 C2226 1.369 . S
C2227 C2228 1.410 . S
C2227 C2235 1.503 1_565 S
C2228 C2227 1.410 . S
C2228 C2229 1.392 . S
C2228 C2231 1.511 . S
C2229 C2225 1.376 . S
C2229 C2228 1.392 . S
C2229 H2241 0.929 . S
C2230 C2226 1.531 . S
C2230 H2242 0.960 1_565 S
C2230 H2243 0.962 1_565 S
C2230 H2244 0.960 . S
C2231 C2228 1.511 . S
C2231 H2245 0.961 . S
C2231 H2246 0.961 . S
C2231 H2247 0.961 . S
C2232 C2233 1.370 . S
C2232 C2234 1.363 . S
C2232 H2248 0.931 . S
C2233 C2232 1.370 . S
C2233 C2237 1.408 . S
C2234 C2232 1.363 . S
C2234 C2235 1.370 . S
C2234 C2238 1.524 . S
C2235 C2227 1.503 1_545 S
C2235 C2234 1.370 . S
C2235 C2236 1.403 . S
C2236 C2235 1.403 . S
C2236 C2237 1.404 . S
C2236 C2239 1.539 . S
C2237 C2233 1.408 . S
C2237 C2236 1.404 . S
C2237 H2249 0.930 . S
C2238 C2234 1.524 . S
C2238 H2250 0.956 . S
C2238 H2251 0.961 . S
C2238 H2252 0.961 . S
C2239 C2236 1.539 . S
C2239 H2253 0.958 . S
C2239 H2254 0.961 . S
C2239 H2255 0.960 1_545 S
H2240 C2224 0.931 . S
H2241 C2229 0.929 . S
H2242 C2230 0.960 1_545 S
H2243 C2230 0.962 1_545 S
H2244 C2230 0.960 . S
H2245 C2231 0.961 . S
H2246 C2231 0.961 . S
H2247 C2231 0.961 . S
H2248 C2232 0.931 . S
H2249 C2237 0.930 . S
H2250 C2238 0.956 . S
H2251 C2238 0.961 . S
H2252 C2238 0.961 . S
H2253 C2239 0.958 . S
H2254 C2239 0.961 . S
H2255 C2239 0.960 1_565 S
C465 C10 1.632 . S
C473 C300 1.591 . S
C497 C39 1.629 . S
C505 C329 1.587 . S
C529 C242 1.619 . S
C537 C68 1.582 . S
C561 C271 1.549 . S
C569 C97 1.592 . S
C593 C126 1.625 . S
C601 C416 1.584 . S
C625 C445 1.611 . S
C633 C155 1.579 . S
C657 C358 1.591 . S
C665 C184 1.613 . S
C689 C213 1.553 . S
C697 C387 1.587 . S
C721 C100 1.953 . S
C729 C3 2.027 . S
C753 C13 1.940 . S
C761 C32 2.017 . S
C785 C61 1.997 . S
C793 C42 1.917 . S
C817 C90 1.998 . S
C825 C71 1.925 . S
C849 C158 1.950 . S
C857 C119 2.021 . S
C881 C148 2.020 . S
C889 C187 1.939 . S
C913 C216 1.907 . S
C921 C177 2.026 . S
C945 C129 1.942 . S
C953 C206 2.018 . S
C977 C253 1.569 . S
C985 C327 1.561 . S
C1009 C240 1.535 . S
C1017 C282 1.583 . S
C1041 C311 1.596 . S
C1049 C269 1.549 . S
C1073 C298 1.568 . S
C1081 C340 1.571 . S
C1105 C369 1.562 . S
C1113 C385 1.566 . S
C1137 C414 1.586 . S
C1145 C398 1.566 . S
C1169 C443 1.581 . S
C1177 C427 1.567 . S
C1201 C356 1.564 . S
C1209 C456 1.573 . S
C1233 C380 2.033 . S
C1241 C361 1.926 . S
C1265 C409 1.998 . S
C1273 C390 1.915 . S
C1297 C419 1.904 . S
C1305 C438 2.025 . S
C1329 C448 1.947 . S
C1337 C351 2.028 . S
C1361 C322 2.035 . S
C1369 C245 1.935 . S
C1393 C274 1.891 . S
C1401 C235 2.015 . S
C1425 C303 1.920 . S
C1433 C264 2.014 . S
C1457 C332 1.912 . S
C1465 C293 2.027 . S
C1489 C166 1.563 . S
C1497 C124 1.564 . S
C1521 C153 1.564 . S
C1529 C195 1.573 . S
C1553 C224 1.554 . S
C1561 C182 1.568 . S
C1585 C211 1.582 . S
C1593 C137 1.566 . S
C1617 C108 1.570 . S
C1625 C8 1.560 . S
C1649 C37 1.553 . S
C1657 C21 1.577 . S
C1681 C66 1.528 . S
C1689 C50 1.587 . S
C1713 C95 1.578 . S
C1721 C79 1.568 . S
C1745 C150 1.387 . S
C1753 C5 1.404 . S
C1777 C179 1.414 . S
C1785 C34 1.387 . S
C1809 C208 1.401 . S
C1817 C63 1.401 . S
C1841 C121 1.365 . S
C1849 C92 1.395 . S
C1873 C382 1.411 . S
C1881 C237 1.397 . S
C1905 C266 1.416 . S
C1913 C411 1.392 . S
C1937 C295 1.371 . S
C1945 C440 1.403 . S
C1969 C324 1.396 . S
C1977 C353 1.403 . S
C2001 C15 1.499 . S
C2009 C73 1.516 . S
C2033 C102 1.510 . S
C2041 C44 1.536 . S
C2065 C131 1.502 . S
C2073 C189 1.534 . S
C2097 C218 1.549 . S
C2105 C160 1.522 . S
C2129 C305 1.551 . S
C2137 C247 1.524 . S
C2161 C334 1.524 . S
C2169 C276 1.513 . S
C2193 C421 1.499 . S
C2201 C363 1.516 . S
C2225 C392 1.551 . S
C2233 C450 1.527 . S
