# Generated by pormake.
# Topology zfj, (5)-cn, num edge types: 1
# Building blocks:
#     Node 0, Type 0, BuildingBlock: XOMCOT_clean_sbu_0, # of connection points: 5
#     Node 1, Type 0, BuildingBlock: XOMCOT_clean_sbu_0, # of connection points: 5
#     Node 2, Type 0, BuildingBlock: XOMCOT_clean_sbu_0, # of connection points: 5
#     Node 3, Type 0, BuildingBlock: XOMCOT_clean_sbu_0, # of connection points: 5
#     Node 4, Type 0, BuildingBlock: XOMCOT_clean_sbu_0, # of connection points: 5
#     Node 5, Type 0, BuildingBlock: XOMCOT_clean_sbu_0, # of connection points: 5
#     Node 6, Type 0, BuildingBlock: XOMCOT_clean_sbu_0, # of connection points: 5
#     Node 7, Type 0, BuildingBlock: XOMCOT_clean_sbu_0, # of connection points: 5
#     Node 8, Type 0, BuildingBlock: XOMCOT_clean_sbu_0, # of connection points: 5
#     Node 9, Type 0, BuildingBlock: XOMCOT_clean_sbu_0, # of connection points: 5
#     Node 10, Type 0, BuildingBlock: XOMCOT_clean_sbu_0, # of connection points: 5
#     Node 11, Type 0, BuildingBlock: XOMCOT_clean_sbu_0, # of connection points: 5
#     Node 12, Type 0, BuildingBlock: XOMCOT_clean_sbu_0, # of connection points: 5
#     Node 13, Type 0, BuildingBlock: XOMCOT_clean_sbu_0, # of connection points: 5
#     Node 14, Type 0, BuildingBlock: XOMCOT_clean_sbu_0, # of connection points: 5
#     Node 15, Type 0, BuildingBlock: XOMCOT_clean_sbu_0, # of connection points: 5
#     Edge 16, Type (0, 0), BuildingBlock: KIFKEQ_clean_linker_1, # of connection points: 2
#     Edge 17, Type (0, 0), BuildingBlock: KIFKEQ_clean_linker_1, # of connection points: 2
#     Edge 18, Type (0, 0), BuildingBlock: KIFKEQ_clean_linker_1, # of connection points: 2
#     Edge 19, Type (0, 0), BuildingBlock: KIFKEQ_clean_linker_1, # of connection points: 2
#     Edge 20, Type (0, 0), BuildingBlock: KIFKEQ_clean_linker_1, # of connection points: 2
#     Edge 21, Type (0, 0), BuildingBlock: KIFKEQ_clean_linker_1, # of connection points: 2
#     Edge 22, Type (0, 0), BuildingBlock: KIFKEQ_clean_linker_1, # of connection points: 2
#     Edge 23, Type (0, 0), BuildingBlock: KIFKEQ_clean_linker_1, # of connection points: 2
#     Edge 24, Type (0, 0), BuildingBlock: KIFKEQ_clean_linker_1, # of connection points: 2
#     Edge 25, Type (0, 0), BuildingBlock: KIFKEQ_clean_linker_1, # of connection points: 2
#     Edge 26, Type (0, 0), BuildingBlock: KIFKEQ_clean_linker_1, # of connection points: 2
#     Edge 27, Type (0, 0), BuildingBlock: KIFKEQ_clean_linker_1, # of connection points: 2
#     Edge 28, Type (0, 0), BuildingBlock: KIFKEQ_clean_linker_1, # of connection points: 2
#     Edge 29, Type (0, 0), BuildingBlock: KIFKEQ_clean_linker_1, # of connection points: 2
#     Edge 30, Type (0, 0), BuildingBlock: KIFKEQ_clean_linker_1, # of connection points: 2
#     Edge 31, Type (0, 0), BuildingBlock: KIFKEQ_clean_linker_1, # of connection points: 2
#     Edge 32, Type (0, 0), BuildingBlock: KIFKEQ_clean_linker_1, # of connection points: 2
#     Edge 33, Type (0, 0), BuildingBlock: KIFKEQ_clean_linker_1, # of connection points: 2
#     Edge 34, Type (0, 0), BuildingBlock: KIFKEQ_clean_linker_1, # of connection points: 2
#     Edge 35, Type (0, 0), BuildingBlock: KIFKEQ_clean_linker_1, # of connection points: 2
#     Edge 36, Type (0, 0), BuildingBlock: KIFKEQ_clean_linker_1, # of connection points: 2
#     Edge 37, Type (0, 0), BuildingBlock: KIFKEQ_clean_linker_1, # of connection points: 2
#     Edge 38, Type (0, 0), BuildingBlock: KIFKEQ_clean_linker_1, # of connection points: 2
#     Edge 39, Type (0, 0), BuildingBlock: KIFKEQ_clean_linker_1, # of connection points: 2
#     Edge 40, Type (0, 0), BuildingBlock: KIFKEQ_clean_linker_1, # of connection points: 2
#     Edge 41, Type (0, 0), BuildingBlock: KIFKEQ_clean_linker_1, # of connection points: 2
#     Edge 42, Type (0, 0), BuildingBlock: KIFKEQ_clean_linker_1, # of connection points: 2
#     Edge 43, Type (0, 0), BuildingBlock: KIFKEQ_clean_linker_1, # of connection points: 2
#     Edge 44, Type (0, 0), BuildingBlock: KIFKEQ_clean_linker_1, # of connection points: 2
#     Edge 45, Type (0, 0), BuildingBlock: KIFKEQ_clean_linker_1, # of connection points: 2
#     Edge 46, Type (0, 0), BuildingBlock: KIFKEQ_clean_linker_1, # of connection points: 2
#     Edge 47, Type (0, 0), BuildingBlock: KIFKEQ_clean_linker_1, # of connection points: 2
#     Edge 48, Type (0, 0), BuildingBlock: KIFKEQ_clean_linker_1, # of connection points: 2
#     Edge 49, Type (0, 0), BuildingBlock: KIFKEQ_clean_linker_1, # of connection points: 2
#     Edge 50, Type (0, 0), BuildingBlock: KIFKEQ_clean_linker_1, # of connection points: 2
#     Edge 51, Type (0, 0), BuildingBlock: KIFKEQ_clean_linker_1, # of connection points: 2
#     Edge 52, Type (0, 0), BuildingBlock: KIFKEQ_clean_linker_1, # of connection points: 2
#     Edge 53, Type (0, 0), BuildingBlock: KIFKEQ_clean_linker_1, # of connection points: 2
#     Edge 54, Type (0, 0), BuildingBlock: KIFKEQ_clean_linker_1, # of connection points: 2
#     Edge 55, Type (0, 0), BuildingBlock: KIFKEQ_clean_linker_1, # of connection points: 2
# Relax obj value: 0.189
# Max RMSD: 0.167
# Mean RMSD: 0.167
data_MOF--net-zfj--node1-XOMCOT_clean_sbu_0--edge1-KIFKEQ_clean_linker_1
_symmetry_space_group_name_H-M    P1
_symmetry_Int_Tables_number       1
_symmetry_cell_setting            triclinic
loop_
_symmetry_equiv_pos_as_xyz
'x, y, z'
_cell_length_a     35.477848
_cell_length_b     35.469172
_cell_length_c     50.169363
_cell_angle_alpha  89.982365
_cell_angle_beta   90.008064
_cell_angle_gamma 89.903597
loop_
_atom_site_label
_atom_site_type_symbol
_atom_site_fract_x
_atom_site_fract_y
_atom_site_fract_z
_atom_type_partial_charge
Co0 Co 0.51552 0.23079 0.14014 0.0
C1 C 0.49999 0.31423 0.14227 0.0
C2 C 0.45337 0.28132 0.15597 0.0
C3 C 0.44288 0.31868 0.15601 0.0
N4 N 0.48965 0.27831 0.14808 0.0
N5 N 0.47228 0.33937 0.14748 0.0
H6 H 0.52582 0.32198 0.13241 0.0
H7 H 0.43493 0.25787 0.16024 0.0
C8 C 0.4779 0.21216 0.19183 0.0
O9 O 0.49363 0.24201 0.20259 0.0
N10 N 0.54024 0.18344 0.13166 0.0
C11 C 0.57611 0.17958 0.12329 0.0
C12 C 0.58479 0.14178 0.12215 0.0
C13 C 0.52737 0.14789 0.1352 0.0
N14 N 0.55422 0.12185 0.12972 0.0
C15 C 0.57828 0.27143 0.16169 0.0
C16 C 0.59978 0.21741 0.19837 0.0
C17 C 0.62301 0.24878 0.19427 0.0
C18 C 0.61139 0.2764 0.17614 0.0
C19 C 0.56629 0.21393 0.18384 0.0
N20 N 0.55571 0.24088 0.16575 0.0
H21 H 0.5729 0.29059 0.14564 0.0
H22 H 0.55018 0.18829 0.18592 0.0
H23 H 0.59505 0.20273 0.11919 0.0
H24 H 0.49955 0.14122 0.14267 0.0
O25 O 0.53815 0.25334 0.10918 0.0
O26 O 0.48271 0.22443 0.10972 0.0
O27 O 0.48385 0.2039 0.16742 0.0
C28 C 0.50847 0.24224 0.09617 0.0
H29 H 0.41544 0.32969 0.16139 0.0
H30 H 0.61174 0.12988 0.11649 0.0
H31 H 0.60827 0.19496 0.21174 0.0
H32 H 0.62936 0.30017 0.17145 0.0
Co33 Co 0.29219 0.51291 0.63827 0.0
C34 C 0.20863 0.49936 0.6432 0.0
C35 C 0.24186 0.44969 0.64954 0.0
C36 C 0.20444 0.43972 0.64997 0.0
N37 N 0.24474 0.48722 0.64571 0.0
N38 N 0.18353 0.47095 0.64593 0.0
H39 H 0.20048 0.52753 0.63769 0.0
H40 H 0.26552 0.43051 0.65085 0.0
C41 C 0.30706 0.47317 0.69001 0.0
O42 O 0.27448 0.48538 0.69905 0.0
N43 N 0.33966 0.5374 0.63035 0.0
C44 C 0.34427 0.57122 0.61858 0.0
C45 C 0.38231 0.57832 0.6162 0.0
C46 C 0.37486 0.52444 0.63511 0.0
N47 N 0.40145 0.54895 0.62668 0.0
C48 C 0.25348 0.57934 0.65472 0.0
C49 C 0.29871 0.59673 0.69776 0.0
C50 C 0.27084 0.62262 0.68989 0.0
C51 C 0.24789 0.61313 0.66819 0.0
C52 C 0.30351 0.56305 0.68353 0.0
N53 N 0.28049 0.55426 0.66254 0.0
H54 H 0.23781 0.57506 0.63665 0.0
H55 H 0.32724 0.54534 0.68849 0.0
H56 H 0.32155 0.58955 0.61229 0.0
H57 H 0.38102 0.49751 0.64425 0.0
O58 O 0.27078 0.53383 0.60633 0.0
O59 O 0.30021 0.47879 0.60854 0.0
O60 O 0.31815 0.48236 0.6667 0.0
C61 C 0.28265 0.50382 0.59413 0.0
H62 H 0.1935 0.41146 0.65245 0.0
H63 H 0.39493 0.60349 0.6079 0.0
H64 H 0.31765 0.60299 0.71408 0.0
H65 H 0.22732 0.63277 0.66031 0.0
Co66 Co 1.00686 0.28848 0.13902 0.0
C67 C 0.02099 0.20511 0.14072 0.0
C68 C 0.06531 0.23583 0.15968 0.0
C69 C 0.07374 0.19798 0.16104 0.0
N70 N 0.03129 0.24047 0.14799 0.0
N71 N 0.0458 0.17873 0.14911 0.0
H72 H 0.99661 0.19855 0.12872 0.0
H73 H 0.08384 0.25827 0.16591 0.0
C74 C 0.04286 0.30909 0.19108 0.0
O75 O 0.02676 0.27958 0.20208 0.0
N76 N 0.98347 0.33603 0.12939 0.0
C77 C 0.94832 0.34059 0.11982 0.0
C78 C 0.94124 0.37856 0.11707 0.0
C79 C 0.99743 0.37124 0.13222 0.0
N80 N 0.97207 0.39791 0.12493 0.0
C81 C 0.94401 0.24884 0.16149 0.0
C82 C 0.92135 0.30535 0.19586 0.0
C83 C 0.89854 0.27342 0.19286 0.0
C84 C 0.91074 0.2446 0.17588 0.0
C85 C 0.95492 0.30819 0.18138 0.0
N86 N 0.96601 0.28007 0.16438 0.0
H87 H 0.95021 0.22821 0.14654 0.0
H88 H 0.97087 0.33403 0.18271 0.0
H89 H 0.92877 0.31789 0.11589 0.0
H90 H 0.02539 0.3772 0.13965 0.0
O91 O 0.98421 0.26547 0.10828 0.0
O92 O 0.04032 0.29305 0.10874 0.0
O93 O 0.03822 0.31594 0.1663 0.0
C94 C 0.01426 0.27552 0.09528 0.0
H95 H 0.09918 0.18565 0.16921 0.0
H96 H 0.91482 0.39091 0.11069 0.0
H97 H 0.91255 0.32859 0.20842 0.0
H98 H 0.89324 0.22017 0.17211 0.0
Co99 Co 0.22828 1.00709 0.63795 0.0
C100 C 0.31166 0.02294 0.64172 0.0
C101 C 0.27741 0.07239 0.64574 0.0
C102 C 0.31466 0.08311 0.64586 0.0
N103 N 0.2753 0.03456 0.64351 0.0
N104 N 0.33623 0.052 0.64329 0.0
H105 H 0.32042 0.99444 0.6378 0.0
H106 H 0.25334 0.09111 0.64641 0.0
C107 C 0.2149 0.0491 0.68896 0.0
O108 O 0.2485 0.03889 0.69735 0.0
N109 N 0.18128 0.98069 0.632 0.0
C110 C 0.17758 0.94403 0.62556 0.0
C111 C 0.13982 0.93517 0.62511 0.0
C112 C 0.14573 0.99384 0.63502 0.0
N113 N 0.11981 0.96644 0.6311 0.0
C114 C 0.26974 0.94232 0.65434 0.0
C115 C 0.22821 0.92562 0.69931 0.0
C116 C 0.25575 0.89984 0.69072 0.0
C117 C 0.27693 0.90907 0.6681 0.0
C118 C 0.2218 0.95881 0.68479 0.0
N119 N 0.24289 0.9672 0.66273 0.0
H120 H 0.28392 0.94621 0.6356 0.0
H121 H 0.19816 0.97624 0.69038 0.0
H122 H 0.20078 0.92487 0.62199 0.0
H123 H 0.13901 0.02247 0.64077 0.0
O124 O 0.24842 0.98555 0.6058 0.0
O125 O 0.21742 0.03975 0.60787 0.0
O126 O 0.20281 0.03793 0.66636 0.0
C127 C 0.235 0.01479 0.59342 0.0
H128 H 0.32501 0.11172 0.64732 0.0
H129 H 0.12798 0.90773 0.62078 0.0
H130 H 0.21061 0.91953 0.7164 0.0
H131 H 0.29715 0.8895 0.6597 0.0
Co132 Co 0.51362 0.28731 0.85313 0.0
C133 C 0.49998 0.20372 0.84993 0.0
C134 C 0.45213 0.23625 0.8378 0.0
C135 C 0.44217 0.19879 0.8378 0.0
N136 N 0.48877 0.23957 0.8447 0.0
N137 N 0.47233 0.17837 0.84538 0.0
H138 H 0.52636 0.19611 0.85912 0.0
H139 H 0.43311 0.25958 0.83435 0.0
C140 C 0.47507 0.30535 0.80162 0.0
O141 O 0.48997 0.27467 0.79135 0.0
N142 N 0.53707 0.33494 0.86221 0.0
C143 C 0.57106 0.33981 0.87368 0.0
C144 C 0.57759 0.3779 0.87648 0.0
C145 C 0.52342 0.37005 0.8581 0.0
N146 N 0.54769 0.39683 0.86657 0.0
C147 C 0.57788 0.24863 0.83197 0.0
C148 C 0.59786 0.30306 0.79523 0.0
C149 C 0.62206 0.27238 0.79948 0.0
C150 C 0.61124 0.24456 0.81766 0.0
C151 C 0.56409 0.30558 0.80959 0.0
N152 N 0.55429 0.27842 0.8277 0.0
H153 H 0.57304 0.22942 0.84808 0.0
H154 H 0.54713 0.3307 0.80736 0.0
H155 H 0.59003 0.31724 0.87925 0.0
H156 H 0.49631 0.376 0.84918 0.0
O157 O 0.53641 0.26451 0.88394 0.0
O158 O 0.48045 0.29252 0.88355 0.0
O159 O 0.48178 0.31421 0.82582 0.0
C160 C 0.50652 0.27492 0.89701 0.0
H161 H 0.41454 0.18755 0.83332 0.0
H162 H 0.60285 0.39071 0.88447 0.0
H163 H 0.60572 0.32566 0.78183 0.0
H164 H 0.62993 0.22133 0.82247 0.0
Co165 Co 0.23641 0.51084 0.35187 0.0
C166 C 0.31959 0.49695 0.34986 0.0
C167 C 0.28929 0.45368 0.32941 0.0
C168 C 0.32721 0.44546 0.32811 0.0
N169 N 0.28437 0.48696 0.34208 0.0
N170 N 0.34618 0.47273 0.34101 0.0
H171 H 0.32588 0.52069 0.36256 0.0
H172 H 0.26702 0.43542 0.32253 0.0
C173 C 0.21447 0.47652 0.29948 0.0
O174 O 0.24353 0.49313 0.28828 0.0
N175 N 0.18903 0.53384 0.36235 0.0
C176 C 0.18481 0.56863 0.37264 0.0
C177 C 0.14696 0.57575 0.37595 0.0
C178 C 0.15369 0.52014 0.35962 0.0
N179 N 0.12731 0.54531 0.36772 0.0
C180 C 0.27557 0.57432 0.32995 0.0
C181 C 0.21824 0.59837 0.29674 0.0
C182 C 0.25023 0.62108 0.29983 0.0
C183 C 0.27947 0.60817 0.31619 0.0
C184 C 0.21572 0.56425 0.31063 0.0
N185 N 0.24422 0.55251 0.32708 0.0
H186 H 0.29664 0.56746 0.34446 0.0
H187 H 0.18984 0.54835 0.30929 0.0
H188 H 0.20766 0.58794 0.3767 0.0
H189 H 0.14743 0.49251 0.35171 0.0
O190 O 0.25998 0.53261 0.38267 0.0
O191 O 0.2326 0.47639 0.38168 0.0
O192 O 0.20844 0.48024 0.32444 0.0
C193 C 0.25044 0.50207 0.39531 0.0
H194 H 0.33973 0.42051 0.31937 0.0
H195 H 0.13489 0.60196 0.38297 0.0
H196 H 0.19472 0.60762 0.28461 0.0
H197 H 0.30401 0.62548 0.32002 0.0
Co198 Co 1.00654 0.23291 0.8519 0.0
C199 C 0.0221 0.31615 0.85117 0.0
C200 C 0.06843 0.28402 0.83605 0.0
C201 C 0.07849 0.32147 0.83628 0.0
N202 N 0.03249 0.28052 0.84452 0.0
N203 N 0.04927 0.34175 0.84577 0.0
H204 H 0.9966 0.32322 0.86172 0.0
H205 H 0.08696 0.26087 0.83108 0.0
C206 C 0.04495 0.21503 0.80028 0.0
O207 O 0.03028 0.24588 0.79009 0.0
N208 N 0.98155 0.18564 0.85994 0.0
C209 C 0.94552 0.18202 0.86798 0.0
C210 C 0.93673 0.14429 0.86912 0.0
C211 C 0.99442 0.15002 0.85659 0.0
N212 N 0.96739 0.12417 0.86188 0.0
C213 C 0.94397 0.27429 0.83047 0.0
C214 C 0.92229 0.22061 0.79368 0.0
C215 C 0.8988 0.25175 0.7982 0.0
C216 C 0.91057 0.27929 0.8163 0.0
C217 C 0.95606 0.21711 0.80791 0.0
N218 N 0.96657 0.24373 0.82622 0.0
H219 H 0.94953 0.29341 0.8465 0.0
H220 H 0.9723 0.19155 0.80556 0.0
H221 H 0.92658 0.20529 0.87192 0.0
H222 H 0.02239 0.14317 0.84947 0.0
O223 O 0.98375 0.25503 0.88298 0.0
O224 O 0.03911 0.22581 0.88241 0.0
O225 O 0.0382 0.20606 0.82446 0.0
C226 C 0.01329 0.24351 0.89602 0.0
H227 H 0.10557 0.3327 0.83038 0.0
H228 H 0.90967 0.13256 0.8746 0.0
H229 H 0.91377 0.19829 0.78025 0.0
H230 H 0.89253 0.30296 0.82123 0.0
Co231 Co 0.28378 1.00913 0.35148 0.0
C232 C 0.20055 0.02263 0.34943 0.0
C233 C 0.23035 0.06405 0.32678 0.0
C234 C 0.1924 0.07201 0.32542 0.0
N235 N 0.23563 0.03209 0.341 0.0
N236 N 0.17373 0.04591 0.33969 0.0
H237 H 0.19454 0.99972 0.36298 0.0
H238 H 0.25234 0.08179 0.31888 0.0
C239 C 0.30756 0.04204 0.299 0.0
O240 O 0.28093 0.02273 0.287 0.0
N241 N 0.3314 0.98701 0.36261 0.0
C242 C 0.33554 0.95307 0.3743 0.0
C243 C 0.37337 0.94518 0.3766 0.0
C244 C 0.36687 0.9995 0.35813 0.0
N245 N 0.39312 0.97423 0.36627 0.0
C246 C 0.24536 0.94572 0.32887 0.0
C247 C 0.30447 0.92034 0.2978 0.0
C248 C 0.27205 0.89805 0.30007 0.0
C249 C 0.24196 0.91162 0.31536 0.0
C250 C 0.30656 0.95464 0.31147 0.0
N251 N 0.27717 0.96705 0.32685 0.0
H252 H 0.22332 0.95328 0.34247 0.0
H253 H 0.33256 0.97038 0.3106 0.0
H254 H 0.3126 0.93465 0.3799 0.0
H255 H 0.37337 0.02562 0.34801 0.0
O256 O 0.2599 0.98707 0.38204 0.0
O257 O 0.28625 0.04377 0.38127 0.0
O258 O 0.31158 0.04032 0.32427 0.0
C259 C 0.26856 0.01779 0.39473 0.0
H260 H 0.17965 0.09607 0.31565 0.0
H261 H 0.38534 0.91964 0.38485 0.0
H262 H 0.32856 0.91072 0.2864 0.0
H263 H 0.21694 0.89473 0.31854 0.0
Co264 Co 0.50668 0.78722 0.85378 0.0
C265 C 0.52101 0.70397 0.85238 0.0
C266 C 0.56335 0.73424 0.83093 0.0
C267 C 0.57162 0.69636 0.8296 0.0
N268 N 0.53063 0.73917 0.84429 0.0
N269 N 0.54492 0.67739 0.84308 0.0
H270 H 0.49755 0.69769 0.86536 0.0
H271 H 0.58126 0.75644 0.82351 0.0
C272 C 0.54067 0.80956 0.80134 0.0
O273 O 0.52226 0.782 0.78969 0.0
N274 N 0.4836 0.83475 0.86387 0.0
C275 C 0.44835 0.83892 0.87342 0.0
C276 C 0.44017 0.87677 0.87503 0.0
C277 C 0.49666 0.87019 0.86015 0.0
N278 N 0.47045 0.89639 0.8666 0.0
C279 C 0.44381 0.74762 0.83135 0.0
C280 C 0.41903 0.80542 0.7988 0.0
C281 C 0.39654 0.77323 0.80173 0.0
C282 C 0.40984 0.74375 0.81772 0.0
C283 C 0.45317 0.80798 0.8126 0.0
N284 N 0.46528 0.77928 0.82876 0.0
H285 H 0.45104 0.72625 0.84556 0.0
H286 H 0.46888 0.83398 0.81138 0.0
H287 H 0.42931 0.81595 0.87781 0.0
H288 H 0.52393 0.8767 0.85167 0.0
O289 O 0.48427 0.764 0.88451 0.0
O290 O 0.54058 0.79117 0.88389 0.0
O291 O 0.53805 0.81471 0.82648 0.0
C292 C 0.51453 0.77368 0.89741 0.0
H293 H 0.59617 0.68383 0.8203 0.0
H294 H 0.41365 0.88893 0.88138 0.0
H295 H 0.40958 0.82907 0.78686 0.0
H296 H 0.39279 0.71898 0.8214 0.0
Co297 Co 0.73614 0.50765 0.35336 0.0
C298 C 0.81967 0.52078 0.35119 0.0
C299 C 0.78845 0.56724 0.3353 0.0
C300 C 0.82611 0.57639 0.33507 0.0
N301 N 0.78421 0.53176 0.34459 0.0
N302 N 0.84579 0.54709 0.34503 0.0
H303 H 0.82631 0.49558 0.36228 0.0
H304 H 0.76569 0.58619 0.33022 0.0
C305 C 0.71708 0.54474 0.30133 0.0
O306 O 0.74702 0.52892 0.29067 0.0
N307 N 0.68834 0.48468 0.36278 0.0
C308 C 0.68349 0.45112 0.37489 0.0
C309 C 0.64542 0.44438 0.37748 0.0
C310 C 0.65318 0.49784 0.35805 0.0
N311 N 0.62644 0.47369 0.36678 0.0
C312 C 0.77502 0.44358 0.3319 0.0
C313 C 0.71956 0.42241 0.2963 0.0
C314 C 0.75077 0.39873 0.30004 0.0
C315 C 0.77909 0.41016 0.31764 0.0
C316 C 0.71696 0.45617 0.31064 0.0
N317 N 0.74459 0.46655 0.3282 0.0
H318 H 0.79497 0.44909 0.34743 0.0
H319 H 0.69158 0.47281 0.30873 0.0
H320 H 0.70606 0.43248 0.38098 0.0
H321 H 0.64715 0.52445 0.34841 0.0
O322 O 0.75885 0.48515 0.38434 0.0
O323 O 0.73138 0.54139 0.3835 0.0
O324 O 0.70928 0.53924 0.32587 0.0
C325 C 0.74877 0.51538 0.39716 0.0
H326 H 0.83793 0.60298 0.32862 0.0
H327 H 0.63268 0.41932 0.38584 0.0
H328 H 0.69665 0.41416 0.28329 0.0
H329 H 0.80285 0.39195 0.32202 0.0
Co330 Co 0.01243 0.73259 0.85616 0.0
C331 C 0.99735 0.81608 0.85201 0.0
C332 C 0.94891 0.7825 0.84309 0.0
C333 C 0.93848 0.81987 0.84251 0.0
N334 N 0.98612 0.77987 0.84842 0.0
N335 N 0.969 0.84099 0.84808 0.0
H336 H 0.02458 0.82443 0.85931 0.0
H337 H 0.93013 0.75875 0.84081 0.0
C338 C 0.97312 0.71555 0.80486 0.0
O339 O 0.98589 0.74754 0.79522 0.0
N340 N 0.03752 0.68543 0.86442 0.0
C341 C 0.0731 0.68147 0.8733 0.0
C342 C 0.08104 0.6436 0.87568 0.0
C343 C 0.0242 0.64997 0.86156 0.0
N344 N 0.05032 0.62373 0.86826 0.0
C345 C 0.07651 0.77247 0.83635 0.0
C346 C 0.09554 0.72167 0.79685 0.0
C347 C 0.11986 0.75179 0.80229 0.0
C348 C 0.10954 0.77777 0.82193 0.0
C349 C 0.06212 0.71788 0.81143 0.0
N350 N 0.05264 0.7434 0.8308 0.0
H351 H 0.07223 0.78989 0.85355 0.0
H352 H 0.04534 0.69289 0.80838 0.0
H353 H 0.09223 0.70453 0.87721 0.0
H354 H 0.99604 0.64354 0.85471 0.0
O355 O 0.03456 0.75506 0.88728 0.0
O356 O 0.97952 0.7255 0.88652 0.0
O357 O 0.98133 0.7056 0.82861 0.0
C358 C 1.00503 0.74349 0.90019 0.0
H359 H 0.91039 0.83061 0.83879 0.0
H360 H 0.10784 0.6317 0.88165 0.0
H361 H 0.10312 0.70034 0.78236 0.0
H362 H 0.12844 0.80029 0.82773 0.0
Co363 Co 0.78432 0.01383 0.35361 0.0
C364 C 0.70072 1.001 0.34963 0.0
C365 C 0.73269 0.95377 0.33577 0.0
C366 C 0.69504 0.94485 0.33436 0.0
N367 N 0.7365 0.98958 0.34444 0.0
N368 N 0.67482 0.97463 0.34301 0.0
H369 H 0.69356 0.02709 0.35934 0.0
H370 H 0.75569 0.93454 0.3319 0.0
C371 C 0.80417 0.97589 0.30201 0.0
O372 O 0.77414 0.99108 0.291 0.0
N373 N 0.83194 0.03685 0.36334 0.0
C374 C 0.83681 0.07074 0.37497 0.0
C375 C 0.87491 0.07742 0.37757 0.0
C376 C 0.86706 0.02341 0.35897 0.0
N377 N 0.89385 0.04773 0.36737 0.0
C378 C 0.74648 0.07847 0.33225 0.0
C379 C 0.8016 0.09838 0.29604 0.0
C380 C 0.77081 0.12256 0.29991 0.0
C381 C 0.74268 0.1118 0.31786 0.0
C382 C 0.80387 0.06466 0.31049 0.0
N383 N 0.77631 0.05484 0.32829 0.0
H384 H 0.72694 0.07364 0.34815 0.0
H385 H 0.82902 0.0477 0.30854 0.0
H386 H 0.81425 0.08966 0.38062 0.0
H387 H 0.87304 0.99652 0.34976 0.0
O388 O 0.76104 0.03644 0.3843 0.0
O389 O 0.78861 0.98025 0.38387 0.0
O390 O 0.81172 0.9821 0.32649 0.0
C391 C 0.77097 1.00631 0.39731 0.0
H392 H 0.68363 0.91777 0.32861 0.0
H393 H 0.88769 0.10273 0.3855 0.0
H394 H 0.82444 0.1062 0.28284 0.0
H395 H 0.71937 0.1305 0.32242 0.0
Co396 Co 0.50712 0.73076 0.1408 0.0
C397 C 0.52285 0.81416 0.14365 0.0
C398 C 0.57116 0.7804 0.1529 0.0
C399 C 0.58182 0.81769 0.15284 0.0
N400 N 0.53388 0.77796 0.14779 0.0
N401 N 0.55139 0.83892 0.14706 0.0
H402 H 0.49564 0.82253 0.13625 0.0
H403 H 0.58985 0.75657 0.15542 0.0
C404 C 0.5478 0.71394 0.19171 0.0
O405 O 0.53521 0.74599 0.20142 0.0
N406 N 0.48148 0.68375 0.13325 0.0
C407 C 0.44503 0.68015 0.12622 0.0
C408 C 0.43624 0.64239 0.12517 0.0
C409 C 0.49459 0.64813 0.13604 0.0
N410 N 0.46735 0.62228 0.13139 0.0
C411 C 0.44381 0.77163 0.16131 0.0
C412 C 0.42492 0.7207 0.20074 0.0
C413 C 0.40055 0.75088 0.19539 0.0
C414 C 0.41085 0.77702 0.17588 0.0
C415 C 0.45834 0.71692 0.18612 0.0
N416 N 0.46762 0.74233 0.16664 0.0
H417 H 0.44796 0.78908 0.14411 0.0
H418 H 0.47513 0.69186 0.18911 0.0
H419 H 0.42587 0.70343 0.12288 0.0
H420 H 0.52298 0.64127 0.14228 0.0
O421 O 0.48437 0.75291 0.10968 0.0
O422 O 0.53927 0.72289 0.11016 0.0
O423 O 0.53886 0.70384 0.16813 0.0
C424 C 0.51363 0.74089 0.09658 0.0
H425 H 0.61001 0.82828 0.15624 0.0
H426 H 0.40892 0.63064 0.12042 0.0
H427 H 0.41731 0.69925 0.21513 0.0
H428 H 0.3919 0.79965 0.17022 0.0
Co429 Co 0.79175 0.50803 0.64042 0.0
C430 C 0.7085 0.52299 0.641 0.0
C431 C 0.73919 0.56726 0.66004 0.0
C432 C 0.70138 0.57596 0.66103 0.0
N433 N 0.74379 0.5331 0.64856 0.0
N434 N 0.68215 0.54804 0.64906 0.0
H435 H 0.70196 0.49856 0.62905 0.0
H436 H 0.76165 0.58564 0.66645 0.0
C437 C 0.81076 0.54391 0.69277 0.0
O438 O 0.78081 0.52785 0.70318 0.0
N439 N 0.83926 0.48388 0.63164 0.0
C440 C 0.84326 0.44834 0.62262 0.0
C441 C 0.88106 0.43982 0.62139 0.0
C442 C 0.87473 0.49674 0.63549 0.0
N443 N 0.90085 0.47016 0.62958 0.0
C444 C 0.75077 0.44542 0.66205 0.0
C445 C 0.80581 0.42214 0.6974 0.0
C446 C 0.77393 0.3995 0.69364 0.0
C447 C 0.74581 0.41202 0.67621 0.0
C448 C 0.80933 0.45588 0.68317 0.0
N449 N 0.78196 0.46726 0.66565 0.0
H450 H 0.73081 0.45177 0.64667 0.0
H451 H 0.8352 0.47166 0.68507 0.0
H452 H 0.8202 0.42947 0.61814 0.0
H453 H 0.88129 0.52428 0.64347 0.0
O454 O 0.76947 0.48567 0.6093 0.0
O455 O 0.79776 0.54142 0.6102 0.0
O456 O 0.8186 0.53915 0.66815 0.0
C457 C 0.78029 0.5156 0.59646 0.0
H458 H 0.68908 0.60151 0.66904 0.0
H459 H 0.89305 0.41312 0.61526 0.0
H460 H 0.82854 0.41306 0.71033 0.0
H461 H 0.72148 0.39465 0.67186 0.0
Co462 Co 0.01444 0.78823 0.14289 0.0
C463 C 1.0006 0.70484 0.14481 0.0
C464 C 0.95498 0.73623 0.16167 0.0
C465 C 0.94542 0.69866 0.16166 0.0
N466 N 0.99022 0.74029 0.15191 0.0
N467 N 0.97418 0.67887 0.15107 0.0
H468 H 0.02537 0.69818 0.13326 0.0
H469 H 0.93635 0.75906 0.16713 0.0
C470 C 0.97801 0.80803 0.19501 0.0
O471 O 0.99389 0.77823 0.20585 0.0
N472 N 0.03739 0.83591 0.13316 0.0
C473 C 0.07102 0.84075 0.12116 0.0
C474 C 0.07732 0.87882 0.11795 0.0
C475 C 0.02374 0.87106 0.13718 0.0
N476 N 0.04766 0.89779 0.12814 0.0
C477 C 0.0782 0.74889 0.16434 0.0
C478 C 0.10084 0.80491 0.19904 0.0
C479 C 0.12411 0.77336 0.19536 0.0
C480 C 0.11191 0.74476 0.17825 0.0
C481 C 0.06677 0.80758 0.18507 0.0
N482 N 0.05574 0.77973 0.16788 0.0
H483 H 0.07203 0.72858 0.14918 0.0
H484 H 0.0504 0.83316 0.18691 0.0
H485 H 0.08991 0.81817 0.11548 0.0
H486 H 0.99688 0.87707 0.14644 0.0
O487 O 0.03661 0.76528 0.11194 0.0
O488 O 0.98044 0.79291 0.11292 0.0
O489 O 0.98326 0.81544 0.17039 0.0
C490 C 1.00628 0.77534 0.09923 0.0
H491 H 0.91886 0.68701 0.16832 0.0
H492 H 0.10228 0.8916 0.10947 0.0
H493 H 0.10962 0.82799 0.21173 0.0
H494 H 0.1297 0.72066 0.17396 0.0
Co495 Co 0.72847 0.01556 0.64054 0.0
C496 C 0.81189 0.99989 0.64236 0.0
C497 C 0.77908 0.9536 0.65674 0.0
C498 C 0.81641 0.94305 0.6567 0.0
N499 N 0.77603 0.98973 0.64847 0.0
N500 N 0.83705 0.97224 0.64775 0.0
H501 H 0.81957 0.02551 0.63219 0.0
H502 H 0.75566 0.93528 0.66132 0.0
C503 C 0.71005 0.97864 0.69253 0.0
O504 O 0.73988 0.99462 0.70315 0.0
N505 N 0.68109 0.04021 0.63205 0.0
C506 C 0.67723 0.07585 0.62319 0.0
C507 C 0.63945 0.08449 0.62192 0.0
C508 C 0.64555 0.02745 0.63579 0.0
N509 N 0.6195 0.05415 0.62993 0.0
C510 C 0.76942 0.07839 0.66173 0.0
C511 C 0.71549 0.10063 0.69821 0.0
C512 C 0.74699 0.12363 0.69401 0.0
C513 C 0.77455 0.11165 0.67598 0.0
C514 C 0.71184 0.06697 0.68389 0.0
N515 N 0.73874 0.05603 0.66589 0.0
H516 H 0.78858 0.07269 0.64574 0.0
H517 H 0.68614 0.05098 0.68609 0.0
H518 H 0.70037 0.09465 0.61875 0.0
H519 H 0.6389 0.9998 0.64359 0.0
O520 O 0.75083 0.03789 0.60941 0.0
O521 O 0.72191 0.98247 0.61027 0.0
O522 O 0.70174 0.98417 0.66809 0.0
C523 C 0.7396 1.00814 0.59655 0.0
H524 H 0.82743 0.91571 0.66234 0.0
H525 H 0.62759 0.11125 0.61577 0.0
H526 H 0.6931 0.10939 0.71153 0.0
H527 H 0.79844 0.12942 0.67121 0.0
H528 H 0.44905 0.22508 0.06337 0.0
H529 H 0.5607 0.27363 0.06346 0.0
H530 H 0.44605 0.23264 0.01483 0.0
H531 H 0.55758 0.2812 0.01533 0.0
H532 H 0.55928 0.24323 0.92917 0.0
H533 H 0.55719 0.23568 0.9773 0.0
H534 H 0.44556 0.28434 0.97895 0.0
H535 H 0.44753 0.29191 0.93036 0.0
C536 C 0.47279 0.23755 0.05307 0.0
C537 C 0.50521 0.24852 0.06717 0.0
C538 C 0.47099 0.242 0.02536 0.0
C539 C 0.50173 0.25716 0.01134 0.0
C540 C 0.5337 0.26888 0.02558 0.0
C541 C 0.53539 0.2647 0.05317 0.0
C542 C 0.53415 0.25218 0.9397 0.0
C543 C 0.50364 0.2684 0.926 0.0
C544 C 0.53306 0.24801 0.9673 0.0
C545 C 0.50139 0.2598 0.98187 0.0
C546 C 0.4703 0.27495 0.96816 0.0
C547 C 0.47148 0.27938 0.94042 0.0
H548 H 0.28613 0.55233 0.42721 0.0
H549 H 0.23262 0.44294 0.42839 0.0
H550 H 0.29476 0.54925 0.4752 0.0
H551 H 0.24137 0.44 0.4769 0.0
H552 H 0.30075 0.44334 0.56225 0.0
H553 H 0.29441 0.4394 0.51353 0.0
H554 H 0.24646 0.55134 0.51229 0.0
H555 H 0.25263 0.55536 0.56039 0.0
C556 C 0.27642 0.52746 0.43768 0.0
C557 C 0.2583 0.49804 0.42406 0.0
C558 C 0.2813 0.52579 0.46519 0.0
C559 C 0.26832 0.4946 0.47975 0.0
C560 C 0.25167 0.46432 0.46609 0.0
C561 C 0.24655 0.4661 0.43841 0.0
C562 C 0.2887 0.46694 0.5515 0.0
C563 C 0.27743 0.49974 0.56509 0.0
C564 C 0.28496 0.46462 0.52372 0.0
C565 C 0.27036 0.49525 0.50921 0.0
C566 C 0.25838 0.52756 0.52295 0.0
C567 C 0.26178 0.52975 0.55054 0.0
H568 H 0.07265 0.22604 0.92888 0.0
H569 H 0.96065 0.27415 0.92883 0.0
H570 H 0.07542 0.2331 0.97747 0.0
H571 H 0.96354 0.28121 0.97699 0.0
H572 H 0.96191 0.2433 0.06312 0.0
H573 H 0.96421 0.23558 0.015 0.0
H574 H 0.07547 0.28468 0.01342 0.0
H575 H 0.0733 0.29242 0.06199 0.0
C576 C 0.04878 0.23828 0.9392 0.0
C577 C 0.01635 0.24932 0.92508 0.0
C578 C 0.05044 0.24245 0.96694 0.0
C579 C 0.01955 0.25736 0.98098 0.0
C580 C 0.98753 0.26907 0.96673 0.0
C581 C 0.98598 0.26519 0.93911 0.0
C582 C 0.98701 0.25229 0.05261 0.0
C583 C 0.01734 0.26872 0.06632 0.0
C584 C 0.98821 0.24803 0.02502 0.0
C585 C 0.01984 0.25991 0.01046 0.0
C586 C 0.05079 0.2752 0.0242 0.0
C587 C 0.04948 0.27973 0.05192 0.0
H588 H 0.28594 0.07647 0.42834 0.0
H589 H 0.23149 0.96759 0.42586 0.0
H590 H 0.2761 0.07883 0.47677 0.0
H591 H 0.22176 0.9701 0.47375 0.0
H592 H 0.21675 0.0753 0.56166 0.0
H593 H 0.22289 0.07949 0.51296 0.0
H594 H 0.26905 0.96681 0.51126 0.0
H595 H 0.26305 0.96256 0.55938 0.0
C596 C 0.27154 0.05333 0.43805 0.0
C597 C 0.25989 0.02166 0.42338 0.0
C598 C 0.26581 0.05476 0.46568 0.0
C599 C 0.2486 0.02443 0.47896 0.0
C600 C 0.23565 0.99359 0.46405 0.0
C601 C 0.24117 0.99224 0.4366 0.0
C602 C 0.22825 0.05154 0.5508 0.0
C603 C 0.23921 0.01853 0.56428 0.0
C604 C 0.2319 0.05401 0.52303 0.0
C605 C 0.24609 0.02333 0.5084 0.0
C606 C 0.25748 0.99066 0.52201 0.0
C607 C 0.25419 0.98833 0.5496 0.0
H608 H 0.46242 0.74094 0.92947 0.0
H609 H 0.57367 0.79037 0.9307 0.0
H610 H 0.46477 0.7329 0.97754 0.0
H611 H 0.5759 0.78228 0.97926 0.0
H612 H 0.57294 0.72322 0.06376 0.0
H613 H 0.5758 0.73037 0.01517 0.0
H614 H 0.46399 0.77864 0.01556 0.0
H615 H 0.46102 0.77151 0.06372 0.0
C616 C 0.48751 0.74992 0.93999 0.0
C617 C 0.51777 0.76655 0.92632 0.0
C618 C 0.48875 0.74547 0.96756 0.0
C619 C 0.52033 0.75736 0.98214 0.0
C620 C 0.55124 0.77281 0.96845 0.0
C621 C 0.54991 0.77753 0.94073 0.0
C622 C 0.54909 0.73549 0.05342 0.0
C623 C 0.51666 0.74658 0.06751 0.0
C624 C 0.55082 0.73972 0.02568 0.0
C625 C 0.51998 0.75472 0.01162 0.0
C626 C 0.48795 0.76645 0.02584 0.0
C627 C 0.48634 0.76252 0.05345 0.0
H628 H 0.78014 0.46299 0.42981 0.0
H629 H 0.73225 0.5751 0.43 0.0
H630 H 0.78758 0.46583 0.47793 0.0
H631 H 0.7397 0.57783 0.47858 0.0
H632 H 0.79819 0.57478 0.56349 0.0
H633 H 0.79112 0.5774 0.51486 0.0
H634 H 0.7415 0.46633 0.51567 0.0
H635 H 0.74854 0.46359 0.56381 0.0
C636 C 0.77137 0.48836 0.44011 0.0
C637 C 0.75536 0.51874 0.42613 0.0
C638 C 0.77547 0.48989 0.46771 0.0
C639 C 0.76384 0.52188 0.48201 0.0
C640 C 0.74898 0.55286 0.46801 0.0
C641 C 0.7446 0.55123 0.44027 0.0
C642 C 0.78557 0.55108 0.55323 0.0
C643 C 0.77417 0.51888 0.56743 0.0
C644 C 0.78142 0.55265 0.52547 0.0
C645 C 0.76615 0.5219 0.51151 0.0
C646 C 0.75394 0.49019 0.52586 0.0
C647 C 0.75782 0.48873 0.55347 0.0
H648 H 0.94637 0.79188 0.06657 0.0
H649 H 0.05817 0.74327 0.0666 0.0
H650 H 0.94328 0.78408 0.01802 0.0
H651 H 0.05496 0.73552 0.01853 0.0
H652 H 0.05697 0.77537 0.93277 0.0
H653 H 0.05433 0.78229 0.98091 0.0
H654 H 0.94359 0.73199 0.98183 0.0
H655 H 0.94611 0.72501 0.93319 0.0
C656 C 0.97008 0.77928 0.05627 0.0
C657 C 1.00262 0.76845 0.07034 0.0
C658 C 0.96824 0.77472 0.02857 0.0
C659 C 0.99905 0.75959 0.01456 0.0
C660 C 0.03104 0.74782 0.02879 0.0
C661 C 0.03278 0.75212 0.05635 0.0
C662 C 0.03192 0.76591 0.94313 0.0
C663 C 1.00184 0.7494 0.92922 0.0
C664 C 0.03052 0.76972 0.97074 0.0
C665 C 0.99894 0.75729 0.98509 0.0
C666 C 0.96824 0.74184 0.97118 0.0
C667 C 0.96976 0.73774 0.94343 0.0
H668 H 0.73859 0.0587 0.42943 0.0
H669 H 0.78797 0.94723 0.4306 0.0
H670 H 0.73107 0.0565 0.47756 0.0
H671 H 0.78043 0.94516 0.47919 0.0
H672 H 0.7222 0.94852 0.56396 0.0
H673 H 0.72904 0.94545 0.51535 0.0
H674 H 0.7771 0.05722 0.51536 0.0
H675 H 0.77027 0.0604 0.56353 0.0
C676 C 0.74766 0.03359 0.43995 0.0
C677 C 0.76412 1.00322 0.42625 0.0
C678 C 0.74351 0.03244 0.46755 0.0
C679 C 0.75556 1.00084 0.48212 0.0
C680 C 0.77084 0.96983 0.4684 0.0
C681 C 0.77525 0.97108 0.44066 0.0
C682 C 0.73441 0.97229 0.55353 0.0
C683 C 0.74548 1.00479 0.56751 0.0
C684 C 0.73844 0.97046 0.52579 0.0
C685 C 0.75324 1.00125 0.51161 0.0
C686 C 0.76504 0.03331 0.52573 0.0
C687 C 0.7613 0.03502 0.55335 0.0
H688 H 0.49287 0.88592 0.15767 0.0
H689 H 0.60726 0.88381 0.12866 0.0
H690 H 0.49212 0.95467 0.15402 0.0
H691 H 0.60638 0.95203 0.12413 0.0
H692 H 0.61041 0.07522 0.1451 0.0
H693 H 0.60831 1.00707 0.14944 0.0
H694 H 0.49126 1.00791 0.12544 0.0
H695 H 0.49336 0.07674 0.12201 0.0
C696 C 0.51769 0.90015 0.1502 0.0
C697 C 0.55024 0.87941 0.14371 0.0
C698 C 0.51728 0.93961 0.14802 0.0
C699 C 0.54933 0.9593 0.13902 0.0
C700 C 0.58148 0.93823 0.13186 0.0
C701 C 0.582 0.89895 0.13435 0.0
C702 C 0.58427 0.06086 0.14062 0.0
C703 C 0.55216 0.0814 0.13294 0.0
C704 C 0.58304 0.02161 0.143 0.0
C705 C 0.54975 1.00153 0.13742 0.0
C706 C 0.51735 0.02221 0.13015 0.0
C707 C 0.5185 0.0617 0.12809 0.0
H708 H 0.62882 0.5697 0.68417 0.0
H709 H 0.64433 0.52131 0.60608 0.0
H710 H 0.56035 0.56682 0.6784 0.0
H711 H 0.57569 0.51883 0.6001 0.0
H712 H 0.45398 0.57294 0.59155 0.0
H713 H 0.52259 0.57003 0.59663 0.0
H714 H 0.50903 0.5147 0.67264 0.0
H715 H 0.44035 0.51725 0.66738 0.0
C716 C 0.61751 0.55856 0.66575 0.0
C717 C 0.64186 0.54583 0.64556 0.0
C718 C 0.57839 0.55661 0.66253 0.0
C719 C 0.56271 0.54256 0.63882 0.0
C720 C 0.58703 0.52988 0.61856 0.0
C721 C 0.62622 0.53112 0.62202 0.0
C722 C 0.4657 0.56003 0.60927 0.0
C723 C 0.44183 0.54542 0.6291 0.0
C724 C 0.50492 0.55813 0.61209 0.0
C725 C 0.52113 0.54222 0.63505 0.0
C726 C 0.49729 0.52728 0.65479 0.0
C727 C 0.45805 0.52851 0.65171 0.0
H728 H 0.9338 0.4505 0.0964 0.0
H729 H 0.01843 0.43797 0.15769 0.0
H730 H 0.93597 0.51862 0.1017 0.0
H731 H 0.02075 0.50638 0.16286 0.0
H732 H 0.03627 0.63414 0.14835 0.0
H733 H 0.03815 0.56606 0.14051 0.0
H734 H 0.91667 0.56437 0.13528 0.0
H735 H 0.91489 0.63219 0.14238 0.0
C736 C 0.95282 0.46219 0.11108 0.0
C737 C 0.97563 0.43849 0.12679 0.0
C738 C 0.95407 0.50135 0.11411 0.0
C739 C 0.97825 0.51805 0.1329 0.0
C740 C 1.00199 0.49451 0.14805 0.0
C741 C 1.00068 0.45521 0.14506 0.0
C742 C 1.01002 0.61926 0.14525 0.0
C743 C 0.97543 0.63873 0.14603 0.0
C744 C 0.01107 0.58018 0.14102 0.0
C745 C 0.97757 0.55968 0.13722 0.0
C746 C 0.94306 0.57926 0.13782 0.0
C747 C 0.942 0.61818 0.1422 0.0
H748 H 0.88173 0.91413 0.63281 0.0
H749 H 0.88383 0.03199 0.6537 0.0
H750 H 0.94992 0.9142 0.62805 0.0
H751 H 0.95256 0.03205 0.64999 0.0
H752 H 0.07487 0.02626 0.61935 0.0
H753 H 1.00604 0.02897 0.62211 0.0
H754 H 1.00483 0.91528 0.65325 0.0
H755 H 0.07301 0.91243 0.64947 0.0
C756 C 0.89689 0.94003 0.63662 0.0
C757 C 0.87739 0.97297 0.64381 0.0
C758 C 0.93615 0.9401 0.63404 0.0
C759 C 0.95722 0.97301 0.639 0.0
C760 C 0.93752 1.00622 0.64572 0.0
C761 C 0.89808 1.00623 0.64793 0.0
C762 C 0.05974 1.00199 0.62684 0.0
C763 C 0.07934 0.96899 0.6339 0.0
C764 C 0.02024 1.0035 0.62852 0.0
C765 C 0.99945 0.97218 0.63763 0.0
C766 C 0.01944 0.93962 0.64536 0.0
C767 C 0.0587 0.93798 0.64333 0.0
H768 H 0.56365 0.62365 0.80741 0.0
H769 H 0.52147 0.63999 0.88721 0.0
H770 H 0.56126 0.55528 0.81366 0.0
H771 H 0.51934 0.57143 0.89361 0.0
H772 H 0.57299 0.44967 0.90103 0.0
H773 H 0.56964 0.51824 0.89579 0.0
H774 H 0.51068 0.50402 0.82123 0.0
H775 H 0.51384 0.43542 0.82658 0.0
C776 C 0.55395 0.61256 0.8263 0.0
C777 C 0.54285 0.63712 0.84684 0.0
C778 C 0.55227 0.57347 0.82981 0.0
C779 C 0.54007 0.55803 0.85411 0.0
C780 C 0.52897 0.58256 0.8747 0.0
C781 C 0.52998 0.62173 0.871 0.0
C782 C 0.5592 0.46124 0.8836 0.0
C783 C 0.54378 0.43719 0.86419 0.0
C784 C 0.55703 0.50044 0.88069 0.0
C785 C 0.53998 0.51646 0.85807 0.0
C786 C 0.52417 0.49244 0.8388 0.0
C787 C 0.52574 0.45323 0.84194 0.0
H788 H 0.89343 0.60548 0.35409 0.0
H789 H 0.8898 0.48437 0.34605 0.0
H790 H 0.96139 0.60262 0.36028 0.0
H791 H 0.95805 0.48138 0.35293 0.0
H792 H 0.08608 0.50053 0.33455 0.0
H793 H 0.01751 0.49904 0.33013 0.0
H794 H 1.00753 0.58136 0.39311 0.0
H795 H 0.07574 0.58267 0.39769 0.0
C796 C 0.9071 0.5782 0.35362 0.0
C797 C 0.88604 0.54516 0.3495 0.0
C798 C 0.94611 0.57651 0.35747 0.0
C799 C 0.96526 0.54175 0.35721 0.0
C800 C 0.94426 0.50864 0.35308 0.0
C801 C 0.90509 0.51032 0.3494 0.0
C802 C 0.06929 0.5179 0.34773 0.0
C803 C 0.08667 0.54206 0.36629 0.0
C804 C 0.02991 0.51707 0.34517 0.0
C805 C 1.00697 0.54042 0.36106 0.0
C806 C 0.02432 0.56362 0.38015 0.0
C807 C 0.06355 0.56438 0.38276 0.0
H808 H 0.91146 0.07773 0.84613 0.0
H809 H 0.02795 0.07881 0.87061 0.0
H810 H 0.91333 1.00949 0.84255 0.0
H811 H 0.0298 1.00988 0.86792 0.0
H812 H 0.02797 0.88709 0.83718 0.0
H813 H 0.02913 0.95593 0.83985 0.0
H814 H 0.91442 0.95524 0.8689 0.0
H815 H 0.91316 0.88693 0.86538 0.0
C816 C 0.93743 0.06326 0.85105 0.0
C817 C 0.96943 0.08369 0.85894 0.0
C818 C 0.93852 0.02397 0.84911 0.0
C819 C 0.97155 1.00375 0.85534 0.0
C820 C 1.0039 0.02431 0.86275 0.0
C821 C 1.00289 0.06384 0.86437 0.0
C822 C 1.00314 0.90177 0.84425 0.0
C823 C 0.97036 0.88154 0.85081 0.0
C824 C 1.00378 0.94127 0.84587 0.0
C825 C 0.97173 0.96151 0.85434 0.0
C826 C 0.93934 0.94098 0.86156 0.0
C827 C 0.93859 0.90165 0.85965 0.0
H828 H 0.43732 0.0368 0.36381 0.0
H829 H 0.44091 0.91524 0.36007 0.0
H830 H 0.50581 0.03888 0.35742 0.0
H831 H 0.50885 0.91726 0.35437 0.0
H832 H 0.62282 0.93439 0.31551 0.0
H833 H 0.55472 0.93602 0.32062 0.0
H834 H 0.56544 0.02192 0.38106 0.0
H835 H 0.63387 0.02008 0.37619 0.0
C836 C 0.45264 0.01057 0.36161 0.0
C837 C 0.43353 0.97587 0.36259 0.0
C838 C 0.49191 0.01174 0.35818 0.0
C839 C 0.51285 0.97823 0.35532 0.0
C840 C 0.49363 0.94363 0.3562 0.0
C841 C 0.45461 0.94246 0.35981 0.0
C842 C 0.61086 0.95342 0.33009 0.0
C843 C 0.63419 0.97678 0.34561 0.0
C844 C 0.57168 0.95442 0.33297 0.0
C845 C 0.55455 0.9789 0.3514 0.0
C846 C 0.57768 1.00296 0.36651 0.0
C847 C 0.61702 1.00187 0.3637 0.0
H848 H 0.41632 0.13391 0.86378 0.0
H849 H 0.53156 0.13172 0.83662 0.0
H850 H 0.41751 0.06588 0.86952 0.0
H851 H 0.53263 0.06305 0.84122 0.0
H852 H 0.53114 0.94163 0.87406 0.0
H853 H 0.5331 0.01042 0.86995 0.0
H854 H 0.4163 0.01034 0.84522 0.0
H855 H 0.41432 0.94233 0.85047 0.0
C856 C 0.44183 0.11872 0.85876 0.0
C857 C 0.47373 0.13812 0.84955 0.0
C858 C 0.44255 0.07956 0.86191 0.0
C859 C 0.47501 0.0585 0.85547 0.0
C860 C 0.50721 0.07811 0.84666 0.0
C861 C 0.50663 0.11748 0.84391 0.0
C862 C 0.50603 0.95653 0.86772 0.0
C863 C 0.47246 0.9367 0.86295 0.0
C864 C 0.5071 0.99595 0.86525 0.0
C865 C 0.4747 0.01636 0.85756 0.0
C866 C 0.44153 0.99607 0.85201 0.0
C867 C 0.44037 0.95692 0.85488 0.0
H868 H 0.38298 0.49811 0.38483 0.0
H869 H 0.40046 0.45235 0.30614 0.0
H870 H 0.45137 0.50103 0.39154 0.0
H871 H 0.46877 0.45549 0.31272 0.0
H872 H 0.58824 0.50492 0.32553 0.0
H873 H 0.5197 0.50677 0.3194 0.0
H874 H 0.5048 0.45156 0.39534 0.0
H875 H 0.57326 0.44951 0.40133 0.0
C876 C 0.40146 0.48896 0.36892 0.0
C877 C 0.38641 0.47492 0.34498 0.0
C878 C 0.44055 0.49041 0.37281 0.0
C879 C 0.4654 0.47856 0.35263 0.0
C880 C 0.45033 0.46508 0.32855 0.0
C881 C 0.41128 0.46297 0.32486 0.0
C882 C 0.57028 0.49358 0.34101 0.0
C883 C 0.58609 0.47698 0.36388 0.0
C884 C 0.53111 0.49437 0.33742 0.0
C885 C 0.50691 0.47923 0.35687 0.0
C886 C 0.52271 0.46362 0.38008 0.0
C887 C 0.56187 0.46221 0.38343 0.0
H888 H 0.98723 0.38684 0.84709 0.0
H889 H 0.10847 0.38869 0.85448 0.0
H890 H 0.98533 0.45505 0.85392 0.0
H891 H 0.1067 0.45668 0.86038 0.0
H892 H 0.08963 0.57204 0.89687 0.0
H893 H 0.08781 0.5038 0.89241 0.0
H894 H 1.00222 0.5141 0.83162 0.0
H895 H 1.00406 0.58265 0.8361 0.0
C896 C 0.01346 0.4017 0.85028 0.0
C897 C 0.048 0.38208 0.85023 0.0
C898 C 0.01241 0.44091 0.85391 0.0
C899 C 0.04585 0.46149 0.85774 0.0
C900 C 0.08032 0.4418 0.85783 0.0
C901 C 0.08138 0.40272 0.85411 0.0
C902 C 0.07052 0.55988 0.88245 0.0
C903 C 0.04728 0.58308 0.86667 0.0
C904 C 0.06947 0.52063 0.87988 0.0
C905 C 0.04515 0.50331 0.86146 0.0
C906 C 0.02109 0.52639 0.84618 0.0
C907 C 0.02214 0.56578 0.84875 0.0
H908 H 0.93152 0.014 0.32688 0.0
H909 H 0.94755 0.07389 0.40085 0.0
H910 H 0.9999 0.01136 0.3205 0.0
H911 H 0.01593 0.07117 0.39454 0.0
H912 H 0.13758 0.02394 0.38471 0.0
H913 H 0.06929 0.02184 0.39207 0.0
H914 H 0.05079 0.06131 0.31172 0.0
H915 H 0.11895 0.06357 0.30448 0.0
C916 C 0.94967 0.02619 0.34193 0.0
C917 C 0.93416 0.04423 0.36435 0.0
C918 C 0.98877 0.02494 0.33817 0.0
C919 C 0.01326 0.04114 0.357 0.0
C920 C 0.99779 0.05827 0.37978 0.0
C921 C 0.95868 0.06007 0.3833 0.0
C922 C 0.11888 0.03192 0.36861 0.0
C923 C 0.13357 0.04401 0.34403 0.0
C924 C 0.07984 0.03094 0.37286 0.0
C925 C 0.0547 0.04135 0.35245 0.0
C926 C 0.06944 0.05285 0.32775 0.0
C927 C 0.10842 0.05446 0.32367 0.0
H928 H 0.41456 0.38424 0.13204 0.0
H929 H 0.53193 0.38603 0.15425 0.0
H930 H 0.41485 0.45247 0.12743 0.0
H931 H 0.53219 0.4548 0.1507 0.0
H932 H 0.52731 0.57728 0.12024 0.0
H933 H 0.52984 0.5084 0.12289 0.0
H934 H 0.41548 0.50728 0.1527 0.0
H935 H 0.41284 0.57549 0.14901 0.0
C936 C 0.44039 0.39935 0.13618 0.0
C937 C 0.47314 0.37975 0.14369 0.0
C938 C 0.44059 0.43862 0.13368 0.0
C939 C 0.47342 0.45962 0.13905 0.0
C940 C 0.50644 0.43982 0.14611 0.0
C941 C 0.50633 0.40036 0.14823 0.0
C942 C 0.50285 0.56215 0.1274 0.0
C943 C 0.46974 0.58178 0.1341 0.0
C944 C 0.50426 0.52263 0.12902 0.0
C945 C 0.4727 0.50186 0.13773 0.0
C946 C 0.44002 0.52188 0.14512 0.0
C947 C 0.43849 0.56116 0.14314 0.0
H948 H 0.138 0.41711 0.62559 0.0
H949 H 0.13718 0.52896 0.65928 0.0
H950 H 0.06981 0.41878 0.62164 0.0
H951 H 0.06831 0.53048 0.65607 0.0
H952 H 0.94585 0.53153 0.62361 0.0
H953 H 0.01471 0.53348 0.62718 0.0
H954 H 0.01554 0.41525 0.64811 0.0
H955 H 0.94743 0.41334 0.64376 0.0
C956 C 0.12315 0.44195 0.63245 0.0
C957 C 0.14304 0.47274 0.64301 0.0
C958 C 0.08389 0.44293 0.63027 0.0
C959 C 0.06318 0.47456 0.63889 0.0
C960 C 0.08317 0.50573 0.64902 0.0
C961 C 0.12265 0.50488 0.65094 0.0
C962 C 0.9609 0.50609 0.62907 0.0
C963 C 0.94124 0.47216 0.63301 0.0
C964 C 1.00037 0.50717 0.63119 0.0
C965 C 0.02101 0.47438 0.63757 0.0
C966 C 1.00097 0.44083 0.64235 0.0
C967 C 0.96176 0.43971 0.63995 0.0
H968 H 0.07104 0.95008 0.0926 0.0
H969 H 0.01569 0.93697 0.16859 0.0
H970 H 0.06778 0.01875 0.0973 0.0
H971 H 0.01274 1.00569 0.17344 0.0
H972 H 0.06721 0.12565 0.18453 0.0
H973 H 0.06442 0.05714 0.17901 0.0
H974 H 0.01678 0.07186 0.10053 0.0
H975 H 0.01919 0.14056 0.10624 0.0
C976 C 0.05809 0.96193 0.11026 0.0
C977 C 0.0437 0.93818 0.13025 0.0
C978 C 0.05599 1.00118 0.11286 0.0
C979 C 0.04009 0.01755 0.13576 0.0
C980 C 0.02531 0.99382 0.15564 0.0
C981 C 0.02676 0.95455 0.15279 0.0
C982 C 0.05614 0.11421 0.16612 0.0
C983 C 0.04351 0.1384 0.1458 0.0
C984 C 0.05426 0.07505 0.16305 0.0
C985 C 0.04034 0.05917 0.13936 0.0
C986 C 0.02773 0.08334 0.11897 0.0
C987 C 0.02891 0.12257 0.12228 0.0
H988 H 0.38188 0.10561 0.62257 0.0
H989 H 0.38296 0.99512 0.65853 0.0
H990 H 0.45018 0.10443 0.6195 0.0
H991 H 0.45184 0.99409 0.65606 0.0
H992 H 0.57471 0.99248 0.62438 0.0
H993 H 0.50583 0.99036 0.6274 0.0
H994 H 0.50414 0.10917 0.64648 0.0
H995 H 0.57234 0.11122 0.64283 0.0
C996 C 0.39676 0.08118 0.63012 0.0
C997 C 0.37687 0.05061 0.64102 0.0
C998 C 0.43609 0.08049 0.62843 0.0
C999 C 0.45689 0.04935 0.63783 0.0
C1000 C 0.43693 0.01844 0.64837 0.0
C1001 C 0.3974 0.01902 0.64986 0.0
C1002 C 0.55951 0.01802 0.62934 0.0
C1003 C 0.57902 0.05212 0.63299 0.0
C1004 C 0.52 0.01685 0.63114 0.0
C1005 C 0.4991 0.04972 0.63685 0.0
C1006 C 0.51894 0.08348 0.64128 0.0
C1007 C 0.5582 0.08468 0.63925 0.0
H1008 H 0.86369 0.21467 0.21813 0.0
H1009 H 0.8455 0.32881 0.19116 0.0
H1010 H 0.79639 0.20807 0.2268 0.0
H1011 H 0.77839 0.32218 0.19906 0.0
H1012 H 0.65821 0.30816 0.21843 0.0
H1013 H 0.72571 0.31491 0.22643 0.0
H1014 H 0.74303 0.19998 0.20022 0.0
H1015 H 0.67572 0.19317 0.19319 0.0
C1016 C 0.84531 0.23855 0.2145 0.0
C1017 C 0.85975 0.27213 0.20377 0.0
C1018 C 0.8067 0.23471 0.21923 0.0
C1019 C 0.78166 0.26432 0.21316 0.0
C1020 C 0.79664 0.29882 0.20423 0.0
C1021 C 0.83526 0.30272 0.19971 0.0
C1022 C 0.67651 0.28413 0.21508 0.0
C1023 C 0.66184 0.25024 0.20504 0.0
C1024 C 0.71521 0.28806 0.21937 0.0
C1025 C 0.74011 0.25827 0.21346 0.0
C1026 C 0.72492 0.22351 0.20524 0.0
C1027 C 0.68619 0.2195 0.20123 0.0
H1028 H 0.20753 0.66534 0.69826 0.0
H1029 H 0.32839 0.66788 0.70791 0.0
H1030 H 0.20442 0.73192 0.70567 0.0
H1031 H 0.32539 0.73393 0.71852 0.0
H1032 H 0.31984 0.85752 0.69712 0.0
H1033 H 0.32364 0.79082 0.70403 0.0
H1034 H 0.20371 0.78831 0.72095 0.0
H1035 H 0.19982 0.85447 0.71096 0.0
C1036 C 0.23352 0.68012 0.70255 0.0
C1037 C 0.26832 0.66125 0.7015 0.0
C1038 C 0.2318 0.71884 0.70732 0.0
C1039 C 0.26483 0.73999 0.712 0.0
C1040 C 0.29924 0.71999 0.71367 0.0
C1041 C 0.301 0.68135 0.70826 0.0
C1042 C 0.29424 0.84261 0.70227 0.0
C1043 C 0.25934 0.86136 0.70246 0.0
C1044 C 0.29639 0.80382 0.70673 0.0
C1045 C 0.26375 0.7825 0.71231 0.0
C1046 C 0.22949 0.8024 0.71542 0.0
C1047 C 0.22725 0.84111 0.71032 0.0
H1048 H 0.84684 0.19564 0.79971 0.0
H1049 H 0.86211 0.31102 0.77475 0.0
H1050 H 0.77937 0.20155 0.79305 0.0
H1051 H 0.79444 0.31686 0.76704 0.0
H1052 H 0.67364 0.32893 0.80075 0.0
H1053 H 0.74108 0.32341 0.7935 0.0
H1054 H 0.72599 0.20843 0.7668 0.0
H1055 H 0.65848 0.21389 0.77506 0.0
C1056 C 0.83583 0.22189 0.79183 0.0
C1057 C 0.85965 0.25295 0.78792 0.0
C1058 C 0.797 0.22539 0.78802 0.0
C1059 C 0.78109 0.25993 0.77989 0.0
C1060 C 0.80544 0.29014 0.77403 0.0
C1061 C 0.84426 0.28674 0.77815 0.0
C1062 C 0.68465 0.30287 0.79259 0.0
C1063 C 0.66092 0.27175 0.78868 0.0
C1064 C 0.72345 0.29959 0.78844 0.0
C1065 C 0.73936 0.2652 0.77999 0.0
C1066 C 0.71503 0.23502 0.77405 0.0
C1067 C 0.67627 0.23821 0.77848 0.0
H1068 H 0.32767 0.84515 0.30332 0.0
H1069 H 0.2139 0.86178 0.27501 0.0
H1070 H 0.32171 0.77781 0.2961 0.0
H1071 H 0.20785 0.79417 0.26752 0.0
H1072 H 0.19442 0.67372 0.30227 0.0
H1073 H 0.20051 0.74115 0.29533 0.0
H1074 H 0.315 0.72503 0.26798 0.0
H1075 H 0.30888 0.65735 0.27543 0.0
C1076 C 0.30178 0.83454 0.2947 0.0
C1077 C 0.27111 0.85873 0.29001 0.0
C1078 C 0.29828 0.79578 0.2906 0.0
C1079 C 0.26406 0.78033 0.28159 0.0
C1080 C 0.2343 0.80494 0.27509 0.0
C1081 C 0.23782 0.84371 0.27921 0.0
C1082 C 0.22049 0.68443 0.294 0.0
C1083 C 0.2513 0.66031 0.28965 0.0
C1084 C 0.22407 0.72322 0.29006 0.0
C1085 C 0.2585 0.73875 0.2815 0.0
C1086 C 0.2884 0.71419 0.27524 0.0
C1087 C 0.28484 0.6754 0.27929 0.0
H1088 H 0.15609 0.81257 0.78099 0.0
H1089 H 0.17109 0.69484 0.7998 0.0
H1090 H 0.22335 0.81863 0.77283 0.0
H1091 H 0.23829 0.70071 0.79269 0.0
H1092 H 0.35985 0.71443 0.77778 0.0
H1093 H 0.29251 0.70874 0.76995 0.0
H1094 H 0.27698 0.82374 0.79675 0.0
H1095 H 0.34406 0.82924 0.80399 0.0
C1096 C 0.17383 0.78781 0.78288 0.0
C1097 C 0.15847 0.75332 0.79116 0.0
C1098 C 0.21254 0.7913 0.77855 0.0
C1099 C 0.2369 0.7604 0.78254 0.0
C1100 C 0.22086 0.72519 0.78896 0.0
C1101 C 0.1821 0.72169 0.79308 0.0
C1102 C 0.34197 0.73866 0.78147 0.0
C1103 C 0.35723 0.77218 0.79167 0.0
C1104 C 0.30321 0.73539 0.77715 0.0
C1105 C 0.27871 0.76559 0.78288 0.0
C1106 C 0.29454 0.79991 0.79151 0.0
C1107 C 0.33328 0.80318 0.79574 0.0
H1108 H 0.71246 0.15889 0.27525 0.0
H1109 H 0.82744 0.17408 0.30106 0.0
H1110 H 0.70697 0.22645 0.26705 0.0
H1111 H 0.82192 0.24153 0.29376 0.0
H1112 H 0.80938 0.36254 0.27548 0.0
H1113 H 0.81504 0.29501 0.26712 0.0
H1114 H 0.70023 0.27948 0.294 0.0
H1115 H 0.69452 0.34683 0.30143 0.0
C1116 C 0.73677 0.17669 0.27868 0.0
C1117 C 0.77027 0.16135 0.28895 0.0
C1118 C 0.73356 0.21545 0.27427 0.0
C1119 C 0.76372 0.23977 0.28026 0.0
C1120 C 0.79812 0.22388 0.28869 0.0
C1121 C 0.8014 0.18507 0.29285 0.0
C1122 C 0.78515 0.34464 0.27895 0.0
C1123 C 0.75161 0.35984 0.28927 0.0
C1124 C 0.78845 0.3059 0.27443 0.0
C1125 C 0.75837 0.28147 0.28037 0.0
C1126 C 0.72397 0.29722 0.28893 0.0
C1127 C 0.72059 0.33598 0.29319 0.0
H1128 H 0.36456 0.81028 0.21899 0.0
H1129 H 0.34881 0.69467 0.1949 0.0
H1130 H 0.29699 0.81634 0.22714 0.0
H1131 H 0.28134 0.70085 0.20172 0.0
H1132 H 0.16026 0.71462 0.21983 0.0
H1133 H 0.22778 0.70846 0.22779 0.0
H1134 H 0.24395 0.82294 0.2003 0.0
H1135 H 0.17657 0.82911 0.19317 0.0
C1136 C 0.34661 0.78599 0.21593 0.0
C1137 C 0.36178 0.75207 0.20625 0.0
C1138 C 0.30785 0.78952 0.22024 0.0
C1139 C 0.28335 0.75938 0.21452 0.0
C1140 C 0.29908 0.72466 0.20658 0.0
C1141 C 0.33789 0.721 0.20268 0.0
C1142 C 0.1783 0.73867 0.2161 0.0
C1143 C 0.16323 0.77225 0.20573 0.0
C1144 C 0.21706 0.73508 0.2204 0.0
C1145 C 0.24167 0.76495 0.21426 0.0
C1146 C 0.22609 0.79937 0.20556 0.0
C1147 C 0.18731 0.80302 0.20148 0.0
H1148 H 0.69184 0.17682 0.69266 0.0
H1149 H 0.80657 0.15851 0.71815 0.0
H1150 H 0.69909 0.24411 0.69967 0.0
H1151 H 0.81376 0.22596 0.72616 0.0
H1152 H 0.82889 0.34607 0.69198 0.0
H1153 H 0.82163 0.27886 0.69927 0.0
H1154 H 0.70724 0.2973 0.72623 0.0
H1155 H 0.71446 0.36469 0.71805 0.0
C1156 C 0.71821 0.18712 0.70073 0.0
C1157 C 0.74874 0.16254 0.70464 0.0
C1158 C 0.72247 0.22583 0.70474 0.0
C1159 C 0.75729 0.24079 0.71306 0.0
C1160 C 0.78688 0.21566 0.71901 0.0
C1161 C 0.7827 0.17698 0.71472 0.0
C1162 C 0.80258 0.33587 0.70021 0.0
C1163 C 0.77213 0.36053 0.70421 0.0
C1164 C 0.79831 0.29719 0.70438 0.0
C1165 C 0.76357 0.28233 0.71294 0.0
C1166 C 0.73406 0.30752 0.71892 0.0
C1167 C 0.73825 0.34618 0.7145 0.0
H1168 H 0.34183 0.10641 0.31566 0.0
H1169 H 0.32919 0.03379 0.24728 0.0
H1170 H 0.38191 0.14835 0.28988 0.0
H1171 H 0.37144 0.07406 0.22183 0.0
H1172 H 0.41902 0.17035 0.17404 0.0
H1173 H 0.37718 0.13043 0.19993 0.0
H1174 H 0.44035 0.15727 0.27128 0.0
H1175 H 0.48039 0.19932 0.24539 0.0
C1176 C 0.34807 0.09925 0.29514 0.0
C1177 C 0.3323 0.06703 0.28338 0.0
C1178 C 0.37135 0.12312 0.28035 0.0
C1179 C 0.3802 0.11482 0.25362 0.0
C1180 C 0.3647 0.08209 0.24209 0.0
C1181 C 0.34064 0.05876 0.2567 0.0
C1182 C 0.42377 0.16775 0.1953 0.0
C1183 C 0.45281 0.18794 0.20777 0.0
C1184 C 0.39998 0.14456 0.21019 0.0
C1185 C 0.40527 0.1402 0.23784 0.0
C1186 C 0.4347 0.16035 0.25019 0.0
C1187 C 0.4579 0.18432 0.23536 0.0
H1188 H 0.45589 0.29692 0.74909 0.0
H1189 H 0.43775 0.36912 0.81731 0.0
H1190 H 0.41469 0.33721 0.72247 0.0
H1191 H 0.39706 0.40957 0.79058 0.0
H1192 H 0.29495 0.44975 0.74142 0.0
H1193 H 0.33511 0.40877 0.76842 0.0
H1194 H 0.41464 0.40093 0.70347 0.0
H1195 H 0.37447 0.44126 0.67641 0.0
C1196 C 0.44321 0.32139 0.7584 0.0
C1197 C 0.45016 0.32976 0.78533 0.0
C1198 C 0.41974 0.34459 0.74311 0.0
C1199 C 0.4026 0.37661 0.75441 0.0
C1200 C 0.40945 0.38488 0.78136 0.0
C1201 C 0.433 0.36178 0.79663 0.0
C1202 C 0.321 0.43928 0.73291 0.0
C1203 C 0.33143 0.4488 0.70674 0.0
C1204 C 0.34409 0.41595 0.74842 0.0
C1205 C 0.37802 0.40151 0.73806 0.0
C1206 C 0.38844 0.41113 0.71192 0.0
C1207 C 0.36548 0.43451 0.69647 0.0
H1208 H 0.2215 0.45689 0.24694 0.0
H1209 H 0.14978 0.44171 0.31574 0.0
H1210 H 0.18 0.41637 0.22091 0.0
H1211 H 0.10791 0.40206 0.28958 0.0
H1212 H 0.06473 0.29999 0.24301 0.0
H1213 H 0.10631 0.34046 0.26898 0.0
H1214 H 0.11753 0.41544 0.20155 0.0
H1215 H 0.07678 0.37458 0.1754 0.0
C1216 C 0.1968 0.44511 0.25648 0.0
C1217 C 0.18905 0.45248 0.28344 0.0
C1218 C 0.17288 0.42203 0.24152 0.0
C1219 C 0.14064 0.40591 0.25317 0.0
C1220 C 0.13281 0.41352 0.28009 0.0
C1221 C 0.15674 0.43648 0.29505 0.0
C1222 C 0.07605 0.32511 0.23373 0.0
C1223 C 0.06749 0.33396 0.20711 0.0
C1224 C 0.09974 0.34843 0.24866 0.0
C1225 C 0.1153 0.38119 0.23734 0.0
C1226 C 0.10651 0.39013 0.21076 0.0
C1227 C 0.08293 0.36678 0.19581 0.0
H1228 H 0.0631 0.22294 0.74754 0.0
H1229 H 0.08395 0.15243 0.81629 0.0
H1230 H 0.1049 0.1832 0.721 0.0
H1231 H 0.1254 0.11259 0.78965 0.0
H1232 H 0.22796 0.07463 0.73976 0.0
H1233 H 0.18732 0.11519 0.76675 0.0
H1234 H 0.10568 0.11855 0.70292 0.0
H1235 H 0.1462 0.07852 0.67591 0.0
C1236 C 0.07653 0.19897 0.75699 0.0
C1237 C 0.07014 0.19089 0.78404 0.0
C1238 C 0.10035 0.1761 0.74175 0.0
C1239 C 0.11846 0.14475 0.75324 0.0
C1240 C 0.11221 0.13678 0.78031 0.0
C1241 C 0.08825 0.15951 0.79551 0.0
C1242 C 0.20136 0.08404 0.7315 0.0
C1243 C 0.19039 0.07333 0.70567 0.0
C1244 C 0.178 0.10712 0.747 0.0
C1245 C 0.14334 0.12016 0.73693 0.0
C1246 C 0.13243 0.1094 0.71112 0.0
C1247 C 0.15561 0.08622 0.69571 0.0
H1248 H 0.66914 0.91875 0.67541 0.0
H1249 H 0.69666 0.98252 0.74597 0.0
H1250 H 0.6295 0.87716 0.70172 0.0
H1251 H 0.65482 0.94277 0.77224 0.0
H1252 H 0.60425 0.84535 0.81795 0.0
H1253 H 0.6461 0.88504 0.7918 0.0
H1254 H 0.57311 0.87113 0.72333 0.0
H1255 H 0.53303 0.82924 0.7492 0.0
C1256 C 0.66627 0.92407 0.69658 0.0
C1257 C 0.68598 0.95372 0.70871 0.0
C1258 C 0.64323 0.90043 0.71171 0.0
C1259 C 0.63851 0.90647 0.73925 0.0
C1260 C 0.65819 0.93652 0.75126 0.0
C1261 C 0.68203 0.95956 0.73621 0.0
C1262 C 0.59736 0.85076 0.79725 0.0
C1263 C 0.56557 0.83412 0.78551 0.0
C1264 C 0.62118 0.87381 0.78225 0.0
C1265 C 0.61323 0.88159 0.75529 0.0
C1266 C 0.5809 0.86523 0.74377 0.0
C1267 C 0.55766 0.84138 0.75862 0.0
H1268 H 0.57899 0.64644 0.17735 0.0
H1269 H 0.57269 0.72549 0.24277 0.0
H1270 H 0.61974 0.60575 0.20379 0.0
H1271 H 0.61405 0.68493 0.26908 0.0
H1272 H 0.6541 0.5828 0.31759 0.0
H1273 H 0.61331 0.62347 0.29118 0.0
H1274 H 0.68356 0.60428 0.22216 0.0
H1275 H 0.72414 0.56296 0.24849 0.0
C1276 C 0.58636 0.65523 0.19735 0.0
C1277 C 0.57253 0.68927 0.20794 0.0
C1278 C 0.60995 0.63197 0.21245 0.0
C1279 C 0.62024 0.64212 0.23852 0.0
C1280 C 0.60632 0.6761 0.24915 0.0
C1281 C 0.58276 0.69944 0.23402 0.0
C1282 C 0.6609 0.58718 0.29678 0.0
C1283 C 0.69243 0.56956 0.28516 0.0
C1284 C 0.63761 0.61073 0.28168 0.0
C1285 C 0.64521 0.61721 0.25458 0.0
C1286 C 0.67669 0.59955 0.24293 0.0
C1287 C 0.70006 0.57601 0.25806 0.0
H1288 H 0.80216 0.56182 0.74546 0.0
H1289 H 0.87373 0.5825 0.67729 0.0
H1290 H 0.84124 0.60367 0.77228 0.0
H1291 H 0.91309 0.6238 0.70425 0.0
H1292 H 0.94969 0.7268 0.75342 0.0
H1293 H 0.91031 0.68539 0.72636 0.0
H1294 H 0.90449 0.60588 0.79147 0.0
H1295 H 0.94319 0.64738 0.81863 0.0
C1296 C 0.82628 0.57515 0.73621 0.0
C1297 C 0.83476 0.56883 0.70923 0.0
C1298 C 0.8488 0.599 0.75162 0.0
C1299 C 0.88026 0.61709 0.74039 0.0
C1300 C 0.88876 0.6107 0.71341 0.0
C1301 C 0.86631 0.58682 0.69801 0.0
C1302 C 0.93999 0.7005 0.76196 0.0
C1303 C 0.94954 0.69048 0.78821 0.0
C1304 C 0.91759 0.67668 0.74641 0.0
C1305 C 0.90421 0.64238 0.75679 0.0
C1306 C 0.91388 0.63235 0.78301 0.0
C1307 C 0.93628 0.65609 0.79853 0.0
H1308 H 0.95635 0.79922 0.24707 0.0
H1309 H 0.94249 0.87256 0.17894 0.0
H1310 H 0.9138 0.83929 0.27276 0.0
H1311 H 0.90081 0.91295 0.20475 0.0
H1312 H 0.79663 0.95428 0.24983 0.0
H1313 H 0.83833 0.91323 0.22423 0.0
H1314 H 0.91109 0.90134 0.2928 0.0
H1315 H 0.86908 0.94147 0.31853 0.0
C1316 C 0.94442 0.82397 0.23761 0.0
C1317 C 0.95283 0.83261 0.21094 0.0
C1318 C 0.92016 0.84705 0.25237 0.0
C1319 C 0.90382 0.87932 0.2408 0.0
C1320 C 0.91241 0.88801 0.21416 0.0
C1321 C 0.93658 0.86494 0.19941 0.0
C1322 C 0.82149 0.94287 0.25945 0.0
C1323 C 0.82946 0.9512 0.28624 0.0
C1324 C 0.84552 0.9195 0.24473 0.0
C1325 C 0.87808 0.90397 0.25646 0.0
C1326 C 0.886 0.91236 0.28325 0.0
C1327 C 0.86199 0.93564 0.29795 0.0
loop_
_geom_bond_atom_site_label_1
_geom_bond_atom_site_label_2
_geom_bond_distance
_geom_bond_site_symmetry_2
_ccdc_geom_bond_type
Co0 N4 2.148 . S
Co0 N10 2.128 . S
Co0 N20 2.194 . S
Co0 O25 2.351 . S
Co0 O26 2.155 . S
Co0 O27 2.096 . S
C1 N4 1.301 . S
C1 N5 1.328 . S
C1 H6 0.930 . S
C2 C3 1.333 . S
C2 N4 1.317 . S
C2 H7 0.930 . S
C3 C2 1.333 . S
C3 N5 1.350 . S
C3 H29 0.931 . S
N4 Co0 2.148 . S
N4 C1 1.301 . S
N4 C2 1.317 . S
N5 C1 1.328 . S
N5 C3 1.350 . S
H6 C1 0.930 . S
H7 C2 0.930 . S
C8 O9 1.224 . S
C8 O27 1.247 . S
O9 C8 1.224 . S
N10 Co0 2.128 . S
N10 C11 1.355 . S
N10 C13 1.311 . S
C11 N10 1.355 . S
C11 C12 1.363 . S
C11 H23 0.929 . S
C12 C11 1.363 . S
C12 N14 1.375 . S
C12 H30 0.931 . S
C13 N10 1.311 . S
C13 N14 1.347 . S
C13 H24 0.929 . S
N14 C12 1.375 . S
N14 C13 1.347 . S
C15 C18 1.365 . S
C15 N20 1.328 . S
C15 H21 0.929 . S
C16 C17 1.362 . S
C16 C19 1.378 . S
C16 H31 0.929 . S
C17 C16 1.362 . S
C17 C18 1.366 . S
C18 C15 1.365 . S
C18 C17 1.366 . S
C18 H32 0.930 . S
C19 C16 1.378 . S
C19 N20 1.315 . S
C19 H22 0.930 . S
N20 Co0 2.194 . S
N20 C15 1.328 . S
N20 C19 1.315 . S
H21 C15 0.929 . S
H22 C19 0.930 . S
H23 C11 0.929 . S
H24 C13 0.929 . S
O25 Co0 2.351 . S
O25 C28 1.244 . S
O26 Co0 2.155 . S
O26 C28 1.240 . S
O27 Co0 2.096 . S
O27 C8 1.247 . S
C28 O25 1.244 . S
C28 O26 1.240 . S
H29 C3 0.931 . S
H30 C12 0.931 . S
H31 C16 0.929 . S
H32 C18 0.930 . S
Co33 N37 2.148 . S
Co33 N43 2.128 . S
Co33 N53 2.194 . S
Co33 O58 2.351 . S
Co33 O59 2.155 . S
Co33 O60 2.096 . S
C34 N37 1.301 . S
C34 N38 1.328 . S
C34 H39 0.930 . S
C35 C36 1.333 . S
C35 N37 1.317 . S
C35 H40 0.930 . S
C36 C35 1.333 . S
C36 N38 1.350 . S
C36 H62 0.931 . S
N37 Co33 2.148 . S
N37 C34 1.301 . S
N37 C35 1.317 . S
N38 C34 1.328 . S
N38 C36 1.350 . S
H39 C34 0.930 . S
H40 C35 0.930 . S
C41 O42 1.224 . S
C41 O60 1.247 . S
O42 C41 1.224 . S
N43 Co33 2.128 . S
N43 C44 1.355 . S
N43 C46 1.311 . S
C44 N43 1.355 . S
C44 C45 1.363 . S
C44 H56 0.929 . S
C45 C44 1.363 . S
C45 N47 1.375 . S
C45 H63 0.931 . S
C46 N43 1.311 . S
C46 N47 1.347 . S
C46 H57 0.929 . S
N47 C45 1.375 . S
N47 C46 1.347 . S
C48 C51 1.365 . S
C48 N53 1.328 . S
C48 H54 0.929 . S
C49 C50 1.362 . S
C49 C52 1.378 . S
C49 H64 0.929 . S
C50 C49 1.362 . S
C50 C51 1.366 . S
C51 C48 1.365 . S
C51 C50 1.366 . S
C51 H65 0.930 . S
C52 C49 1.378 . S
C52 N53 1.315 . S
C52 H55 0.930 . S
N53 Co33 2.194 . S
N53 C48 1.328 . S
N53 C52 1.315 . S
H54 C48 0.929 . S
H55 C52 0.930 . S
H56 C44 0.929 . S
H57 C46 0.929 . S
O58 Co33 2.351 . S
O58 C61 1.244 . S
O59 Co33 2.155 . S
O59 C61 1.240 . S
O60 Co33 2.096 . S
O60 C41 1.247 . S
C61 O58 1.244 . S
C61 O59 1.240 . S
H62 C36 0.931 . S
H63 C45 0.931 . S
H64 C49 0.929 . S
H65 C51 0.930 . S
Co66 N70 2.148 . S
Co66 N76 2.128 . S
Co66 N86 2.194 1_455 S
Co66 O91 2.351 1_455 S
Co66 O92 2.155 . S
Co66 O93 2.096 . S
C67 N70 1.301 . S
C67 N71 1.328 . S
C67 H72 0.930 1_455 S
C68 C69 1.333 . S
C68 N70 1.317 . S
C68 H73 0.930 . S
C69 C68 1.333 . S
C69 N71 1.350 . S
C69 H95 0.931 . S
N70 Co66 2.148 . S
N70 C67 1.301 . S
N70 C68 1.317 . S
N71 C67 1.328 . S
N71 C69 1.350 . S
H72 C67 0.930 1_655 S
H73 C68 0.930 . S
C74 O75 1.224 . S
C74 O93 1.247 . S
O75 C74 1.224 . S
N76 Co66 2.128 . S
N76 C77 1.355 1_455 S
N76 C79 1.311 . S
C77 N76 1.355 1_655 S
C77 C78 1.363 . S
C77 H89 0.929 . S
C78 C77 1.363 . S
C78 N80 1.367 1_655 S
C78 H96 0.931 . S
C79 N76 1.311 . S
C79 N80 1.353 . S
C79 H90 0.929 . S
N80 C78 1.367 1_455 S
N80 C79 1.353 . S
C81 C84 1.365 . S
C81 N86 1.328 . S
C81 H87 0.929 . S
C82 C83 1.362 . S
C82 C85 1.378 . S
C82 H97 0.929 . S
C83 C82 1.362 . S
C83 C84 1.366 . S
C84 C81 1.365 . S
C84 C83 1.366 . S
C84 H98 0.930 . S
C85 C82 1.378 . S
C85 N86 1.315 . S
C85 H88 0.930 . S
N86 Co66 2.194 1_655 S
N86 C81 1.328 . S
N86 C85 1.315 . S
H87 C81 0.929 . S
H88 C85 0.930 . S
H89 C77 0.929 . S
H90 C79 0.929 . S
O91 Co66 2.351 1_655 S
O91 C94 1.244 1_655 S
O92 Co66 2.155 . S
O92 C94 1.240 . S
O93 Co66 2.096 . S
O93 C74 1.247 . S
C94 O91 1.244 1_455 S
C94 O92 1.240 . S
H95 C69 0.931 . S
H96 C78 0.931 . S
H97 C82 0.929 . S
H98 C84 0.930 . S
Co99 N103 2.148 . S
Co99 N109 2.128 . S
Co99 N119 2.194 1_545 S
Co99 O124 2.351 1_545 S
Co99 O125 2.155 . S
Co99 O126 2.096 . S
C100 N103 1.301 . S
C100 N104 1.328 . S
C100 H105 0.930 1_545 S
C101 C102 1.333 . S
C101 N103 1.317 . S
C101 H106 0.930 . S
C102 C101 1.333 . S
C102 N104 1.350 . S
C102 H128 0.931 . S
N103 Co99 2.148 . S
N103 C100 1.301 . S
N103 C101 1.317 . S
N104 C100 1.328 . S
N104 C102 1.350 . S
H105 C100 0.930 1_565 S
H106 C101 0.930 . S
C107 O108 1.224 . S
C107 O126 1.247 . S
O108 C107 1.224 . S
N109 Co99 2.128 . S
N109 C110 1.355 1_545 S
N109 C112 1.311 . S
C110 N109 1.355 1_565 S
C110 C111 1.363 . S
C110 H122 0.929 . S
C111 C110 1.363 . S
C111 N113 1.367 1_565 S
C111 H129 0.931 . S
C112 N109 1.311 . S
C112 N113 1.353 . S
C112 H123 0.929 . S
N113 C111 1.367 1_545 S
N113 C112 1.353 . S
C114 C117 1.365 . S
C114 N119 1.328 . S
C114 H120 0.929 . S
C115 C116 1.362 . S
C115 C118 1.378 . S
C115 H130 0.929 . S
C116 C115 1.362 . S
C116 C117 1.366 . S
C117 C114 1.365 . S
C117 C116 1.366 . S
C117 H131 0.930 . S
C118 C115 1.378 . S
C118 N119 1.315 . S
C118 H121 0.930 . S
N119 Co99 2.194 1_565 S
N119 C114 1.328 . S
N119 C118 1.315 . S
H120 C114 0.929 . S
H121 C118 0.930 . S
H122 C110 0.929 . S
H123 C112 0.929 . S
O124 Co99 2.351 1_565 S
O124 C127 1.244 1_565 S
O125 Co99 2.155 . S
O125 C127 1.240 . S
O126 Co99 2.096 . S
O126 C107 1.247 . S
C127 O124 1.244 1_545 S
C127 O125 1.240 . S
H128 C102 0.931 . S
H129 C111 0.931 . S
H130 C115 0.929 . S
H131 C117 0.930 . S
Co132 N136 2.148 . S
Co132 N142 2.128 . S
Co132 N152 2.194 . S
Co132 O157 2.351 . S
Co132 O158 2.155 . S
Co132 O159 2.096 . S
C133 N136 1.301 . S
C133 N137 1.328 . S
C133 H138 0.930 . S
C134 C135 1.333 . S
C134 N136 1.317 . S
C134 H139 0.930 . S
C135 C134 1.333 . S
C135 N137 1.350 . S
C135 H161 0.931 . S
N136 Co132 2.148 . S
N136 C133 1.301 . S
N136 C134 1.317 . S
N137 C133 1.328 . S
N137 C135 1.350 . S
H138 C133 0.930 . S
H139 C134 0.930 . S
C140 O141 1.224 . S
C140 O159 1.247 . S
O141 C140 1.224 . S
N142 Co132 2.128 . S
N142 C143 1.355 . S
N142 C145 1.311 . S
C143 N142 1.355 . S
C143 C144 1.363 . S
C143 H155 0.929 . S
C144 C143 1.363 . S
C144 N146 1.375 . S
C144 H162 0.931 . S
C145 N142 1.311 . S
C145 N146 1.347 . S
C145 H156 0.929 . S
N146 C144 1.375 . S
N146 C145 1.347 . S
C147 C150 1.365 . S
C147 N152 1.328 . S
C147 H153 0.929 . S
C148 C149 1.362 . S
C148 C151 1.378 . S
C148 H163 0.929 . S
C149 C148 1.362 . S
C149 C150 1.366 . S
C150 C147 1.365 . S
C150 C149 1.366 . S
C150 H164 0.930 . S
C151 C148 1.378 . S
C151 N152 1.315 . S
C151 H154 0.930 . S
N152 Co132 2.194 . S
N152 C147 1.328 . S
N152 C151 1.315 . S
H153 C147 0.929 . S
H154 C151 0.930 . S
H155 C143 0.929 . S
H156 C145 0.929 . S
O157 Co132 2.351 . S
O157 C160 1.244 . S
O158 Co132 2.155 . S
O158 C160 1.240 . S
O159 Co132 2.096 . S
O159 C140 1.247 . S
C160 O157 1.244 . S
C160 O158 1.240 . S
H161 C135 0.931 . S
H162 C144 0.931 . S
H163 C148 0.929 . S
H164 C150 0.930 . S
Co165 N169 2.148 . S
Co165 N175 2.128 . S
Co165 N185 2.194 . S
Co165 O190 2.351 . S
Co165 O191 2.155 . S
Co165 O192 2.096 . S
C166 N169 1.301 . S
C166 N170 1.328 . S
C166 H171 0.930 . S
C167 C168 1.333 . S
C167 N169 1.317 . S
C167 H172 0.930 . S
C168 C167 1.333 . S
C168 N170 1.350 . S
C168 H194 0.931 . S
N169 Co165 2.148 . S
N169 C166 1.301 . S
N169 C167 1.317 . S
N170 C166 1.328 . S
N170 C168 1.350 . S
H171 C166 0.930 . S
H172 C167 0.930 . S
C173 O174 1.224 . S
C173 O192 1.247 . S
O174 C173 1.224 . S
N175 Co165 2.128 . S
N175 C176 1.355 . S
N175 C178 1.311 . S
C176 N175 1.355 . S
C176 C177 1.363 . S
C176 H188 0.929 . S
C177 C176 1.363 . S
C177 N179 1.375 . S
C177 H195 0.931 . S
C178 N175 1.311 . S
C178 N179 1.347 . S
C178 H189 0.929 . S
N179 C177 1.375 . S
N179 C178 1.347 . S
C180 C183 1.365 . S
C180 N185 1.328 . S
C180 H186 0.929 . S
C181 C182 1.362 . S
C181 C184 1.378 . S
C181 H196 0.929 . S
C182 C181 1.362 . S
C182 C183 1.366 . S
C183 C180 1.365 . S
C183 C182 1.366 . S
C183 H197 0.930 . S
C184 C181 1.378 . S
C184 N185 1.315 . S
C184 H187 0.930 . S
N185 Co165 2.194 . S
N185 C180 1.328 . S
N185 C184 1.315 . S
H186 C180 0.929 . S
H187 C184 0.930 . S
H188 C176 0.929 . S
H189 C178 0.929 . S
O190 Co165 2.351 . S
O190 C193 1.244 . S
O191 Co165 2.155 . S
O191 C193 1.240 . S
O192 Co165 2.096 . S
O192 C173 1.247 . S
C193 O190 1.244 . S
C193 O191 1.240 . S
H194 C168 0.931 . S
H195 C177 0.931 . S
H196 C181 0.929 . S
H197 C183 0.930 . S
Co198 N202 2.148 . S
Co198 N208 2.128 . S
Co198 N218 2.194 1_455 S
Co198 O223 2.351 1_455 S
Co198 O224 2.155 . S
Co198 O225 2.096 . S
C199 N202 1.301 . S
C199 N203 1.328 . S
C199 H204 0.930 1_455 S
C200 C201 1.333 . S
C200 N202 1.317 . S
C200 H205 0.930 . S
C201 C200 1.333 . S
C201 N203 1.350 . S
C201 H227 0.931 . S
N202 Co198 2.148 . S
N202 C199 1.301 . S
N202 C200 1.317 . S
N203 C199 1.328 . S
N203 C201 1.350 . S
H204 C199 0.930 1_655 S
H205 C200 0.930 . S
C206 O207 1.224 . S
C206 O225 1.247 . S
O207 C206 1.224 . S
N208 Co198 2.128 . S
N208 C209 1.355 1_455 S
N208 C211 1.311 . S
C209 N208 1.355 1_655 S
C209 C210 1.363 . S
C209 H221 0.929 . S
C210 C209 1.363 . S
C210 N212 1.367 1_655 S
C210 H228 0.931 . S
C211 N208 1.311 . S
C211 N212 1.353 . S
C211 H222 0.929 . S
N212 C210 1.367 1_455 S
N212 C211 1.353 . S
C213 C216 1.365 . S
C213 N218 1.328 . S
C213 H219 0.929 . S
C214 C215 1.362 . S
C214 C217 1.378 . S
C214 H229 0.929 . S
C215 C214 1.362 . S
C215 C216 1.366 . S
C216 C213 1.365 . S
C216 C215 1.366 . S
C216 H230 0.930 . S
C217 C214 1.378 . S
C217 N218 1.315 . S
C217 H220 0.930 . S
N218 Co198 2.194 1_655 S
N218 C213 1.328 . S
N218 C217 1.315 . S
H219 C213 0.929 . S
H220 C217 0.930 . S
H221 C209 0.929 . S
H222 C211 0.929 . S
O223 Co198 2.351 1_655 S
O223 C226 1.244 1_655 S
O224 Co198 2.155 . S
O224 C226 1.240 . S
O225 Co198 2.096 . S
O225 C206 1.247 . S
C226 O223 1.244 1_455 S
C226 O224 1.240 . S
H227 C201 0.931 . S
H228 C210 0.931 . S
H229 C214 0.929 . S
H230 C216 0.930 . S
Co231 N235 2.148 . S
Co231 N241 2.128 . S
Co231 N251 2.194 1_545 S
Co231 O256 2.351 1_545 S
Co231 O257 2.155 . S
Co231 O258 2.096 . S
C232 N235 1.301 . S
C232 N236 1.328 . S
C232 H237 0.930 1_545 S
C233 C234 1.333 . S
C233 N235 1.317 . S
C233 H238 0.930 . S
C234 C233 1.333 . S
C234 N236 1.350 . S
C234 H260 0.931 . S
N235 Co231 2.148 . S
N235 C232 1.301 . S
N235 C233 1.317 . S
N236 C232 1.328 . S
N236 C234 1.350 . S
H237 C232 0.930 1_565 S
H238 C233 0.930 . S
C239 O240 1.224 . S
C239 O258 1.247 . S
O240 C239 1.224 . S
N241 Co231 2.128 . S
N241 C242 1.355 1_545 S
N241 C244 1.311 . S
C242 N241 1.355 1_565 S
C242 C243 1.363 . S
C242 H254 0.929 . S
C243 C242 1.363 . S
C243 N245 1.367 1_565 S
C243 H261 0.931 . S
C244 N241 1.311 . S
C244 N245 1.353 . S
C244 H255 0.929 . S
N245 C243 1.367 1_545 S
N245 C244 1.353 . S
C246 C249 1.365 . S
C246 N251 1.328 . S
C246 H252 0.929 . S
C247 C248 1.362 . S
C247 C250 1.378 . S
C247 H262 0.929 . S
C248 C247 1.362 . S
C248 C249 1.366 . S
C249 C246 1.365 . S
C249 C248 1.366 . S
C249 H263 0.930 . S
C250 C247 1.378 . S
C250 N251 1.315 . S
C250 H253 0.930 . S
N251 Co231 2.194 1_565 S
N251 C246 1.328 . S
N251 C250 1.315 . S
H252 C246 0.929 . S
H253 C250 0.930 . S
H254 C242 0.929 . S
H255 C244 0.929 . S
O256 Co231 2.351 1_565 S
O256 C259 1.244 1_565 S
O257 Co231 2.155 . S
O257 C259 1.240 . S
O258 Co231 2.096 . S
O258 C239 1.247 . S
C259 O256 1.244 1_545 S
C259 O257 1.240 . S
H260 C234 0.931 . S
H261 C243 0.931 . S
H262 C247 0.929 . S
H263 C249 0.930 . S
Co264 N268 2.148 . S
Co264 N274 2.128 . S
Co264 N284 2.194 . S
Co264 O289 2.351 . S
Co264 O290 2.155 . S
Co264 O291 2.096 . S
C265 N268 1.301 . S
C265 N269 1.328 . S
C265 H270 0.930 . S
C266 C267 1.333 . S
C266 N268 1.317 . S
C266 H271 0.930 . S
C267 C266 1.333 . S
C267 N269 1.350 . S
C267 H293 0.931 . S
N268 Co264 2.148 . S
N268 C265 1.301 . S
N268 C266 1.317 . S
N269 C265 1.328 . S
N269 C267 1.350 . S
H270 C265 0.930 . S
H271 C266 0.930 . S
C272 O273 1.224 . S
C272 O291 1.247 . S
O273 C272 1.224 . S
N274 Co264 2.128 . S
N274 C275 1.355 . S
N274 C277 1.311 . S
C275 N274 1.355 . S
C275 C276 1.363 . S
C275 H287 0.929 . S
C276 C275 1.363 . S
C276 N278 1.375 . S
C276 H294 0.931 . S
C277 N274 1.311 . S
C277 N278 1.347 . S
C277 H288 0.929 . S
N278 C276 1.375 . S
N278 C277 1.347 . S
C279 C282 1.365 . S
C279 N284 1.328 . S
C279 H285 0.929 . S
C280 C281 1.362 . S
C280 C283 1.378 . S
C280 H295 0.929 . S
C281 C280 1.362 . S
C281 C282 1.366 . S
C282 C279 1.365 . S
C282 C281 1.366 . S
C282 H296 0.930 . S
C283 C280 1.378 . S
C283 N284 1.315 . S
C283 H286 0.930 . S
N284 Co264 2.194 . S
N284 C279 1.328 . S
N284 C283 1.315 . S
H285 C279 0.929 . S
H286 C283 0.930 . S
H287 C275 0.929 . S
H288 C277 0.929 . S
O289 Co264 2.351 . S
O289 C292 1.244 . S
O290 Co264 2.155 . S
O290 C292 1.240 . S
O291 Co264 2.096 . S
O291 C272 1.247 . S
C292 O289 1.244 . S
C292 O290 1.240 . S
H293 C267 0.931 . S
H294 C276 0.931 . S
H295 C280 0.929 . S
H296 C282 0.930 . S
Co297 N301 2.148 . S
Co297 N307 2.128 . S
Co297 N317 2.194 . S
Co297 O322 2.351 . S
Co297 O323 2.155 . S
Co297 O324 2.096 . S
C298 N301 1.301 . S
C298 N302 1.328 . S
C298 H303 0.930 . S
C299 C300 1.333 . S
C299 N301 1.317 . S
C299 H304 0.930 . S
C300 C299 1.333 . S
C300 N302 1.350 . S
C300 H326 0.931 . S
N301 Co297 2.148 . S
N301 C298 1.301 . S
N301 C299 1.317 . S
N302 C298 1.328 . S
N302 C300 1.350 . S
H303 C298 0.930 . S
H304 C299 0.930 . S
C305 O306 1.224 . S
C305 O324 1.247 . S
O306 C305 1.224 . S
N307 Co297 2.128 . S
N307 C308 1.355 . S
N307 C310 1.311 . S
C308 N307 1.355 . S
C308 C309 1.363 . S
C308 H320 0.929 . S
C309 C308 1.363 . S
C309 N311 1.375 . S
C309 H327 0.931 . S
C310 N307 1.311 . S
C310 N311 1.347 . S
C310 H321 0.929 . S
N311 C309 1.375 . S
N311 C310 1.347 . S
C312 C315 1.365 . S
C312 N317 1.328 . S
C312 H318 0.929 . S
C313 C314 1.362 . S
C313 C316 1.378 . S
C313 H328 0.929 . S
C314 C313 1.362 . S
C314 C315 1.366 . S
C315 C312 1.365 . S
C315 C314 1.366 . S
C315 H329 0.930 . S
C316 C313 1.378 . S
C316 N317 1.315 . S
C316 H319 0.930 . S
N317 Co297 2.194 . S
N317 C312 1.328 . S
N317 C316 1.315 . S
H318 C312 0.929 . S
H319 C316 0.930 . S
H320 C308 0.929 . S
H321 C310 0.929 . S
O322 Co297 2.351 . S
O322 C325 1.244 . S
O323 Co297 2.155 . S
O323 C325 1.240 . S
O324 Co297 2.096 . S
O324 C305 1.247 . S
C325 O322 1.244 . S
C325 O323 1.240 . S
H326 C300 0.931 . S
H327 C309 0.931 . S
H328 C313 0.929 . S
H329 C315 0.930 . S
Co330 N334 2.148 . S
Co330 N340 2.128 . S
Co330 N350 2.194 1_655 S
Co330 O355 2.351 1_655 S
Co330 O356 2.155 . S
Co330 O357 2.096 . S
C331 N334 1.301 . S
C331 N335 1.328 . S
C331 H336 0.930 1_655 S
C332 C333 1.333 . S
C332 N334 1.317 . S
C332 H337 0.930 . S
C333 C332 1.333 . S
C333 N335 1.350 . S
C333 H359 0.931 . S
N334 Co330 2.148 . S
N334 C331 1.301 . S
N334 C332 1.317 . S
N335 C331 1.328 . S
N335 C333 1.350 . S
H336 C331 0.930 1_455 S
H337 C332 0.930 . S
C338 O339 1.224 . S
C338 O357 1.247 . S
O339 C338 1.224 . S
N340 Co330 2.128 . S
N340 C341 1.355 1_655 S
N340 C343 1.311 . S
C341 N340 1.355 1_455 S
C341 C342 1.363 . S
C341 H353 0.929 . S
C342 C341 1.363 . S
C342 N344 1.367 1_455 S
C342 H360 0.931 . S
C343 N340 1.311 . S
C343 N344 1.353 . S
C343 H354 0.929 . S
N344 C342 1.367 1_655 S
N344 C343 1.353 . S
C345 C348 1.365 . S
C345 N350 1.328 . S
C345 H351 0.929 . S
C346 C347 1.362 . S
C346 C349 1.378 . S
C346 H361 0.929 . S
C347 C346 1.362 . S
C347 C348 1.366 . S
C348 C345 1.365 . S
C348 C347 1.366 . S
C348 H362 0.930 . S
C349 C346 1.378 . S
C349 N350 1.315 . S
C349 H352 0.930 . S
N350 Co330 2.194 1_455 S
N350 C345 1.328 . S
N350 C349 1.315 . S
H351 C345 0.929 . S
H352 C349 0.930 . S
H353 C341 0.929 . S
H354 C343 0.929 . S
O355 Co330 2.351 1_455 S
O355 C358 1.244 1_455 S
O356 Co330 2.155 . S
O356 C358 1.240 . S
O357 Co330 2.096 . S
O357 C338 1.247 . S
C358 O355 1.244 1_655 S
C358 O356 1.240 . S
H359 C333 0.931 . S
H360 C342 0.931 . S
H361 C346 0.929 . S
H362 C348 0.930 . S
Co363 N367 2.148 . S
Co363 N373 2.128 . S
Co363 N383 2.194 1_565 S
Co363 O388 2.351 1_565 S
Co363 O389 2.155 . S
Co363 O390 2.096 . S
C364 N367 1.301 . S
C364 N368 1.328 . S
C364 H369 0.930 1_565 S
C365 C366 1.333 . S
C365 N367 1.317 . S
C365 H370 0.930 . S
C366 C365 1.333 . S
C366 N368 1.350 . S
C366 H392 0.931 . S
N367 Co363 2.148 . S
N367 C364 1.301 . S
N367 C365 1.317 . S
N368 C364 1.328 . S
N368 C366 1.350 . S
H369 C364 0.930 1_545 S
H370 C365 0.930 . S
C371 O372 1.224 . S
C371 O390 1.247 . S
O372 C371 1.224 . S
N373 Co363 2.128 . S
N373 C374 1.355 1_565 S
N373 C376 1.311 . S
C374 N373 1.355 1_545 S
C374 C375 1.363 . S
C374 H386 0.929 . S
C375 C374 1.363 . S
C375 N377 1.367 1_545 S
C375 H393 0.931 . S
C376 N373 1.311 . S
C376 N377 1.353 . S
C376 H387 0.929 . S
N377 C375 1.367 1_565 S
N377 C376 1.353 . S
C378 C381 1.365 . S
C378 N383 1.328 . S
C378 H384 0.929 . S
C379 C380 1.362 . S
C379 C382 1.378 . S
C379 H394 0.929 . S
C380 C379 1.362 . S
C380 C381 1.366 . S
C381 C378 1.365 . S
C381 C380 1.366 . S
C381 H395 0.930 . S
C382 C379 1.378 . S
C382 N383 1.315 . S
C382 H385 0.930 . S
N383 Co363 2.194 1_545 S
N383 C378 1.328 . S
N383 C382 1.315 . S
H384 C378 0.929 . S
H385 C382 0.930 . S
H386 C374 0.929 . S
H387 C376 0.929 . S
O388 Co363 2.351 1_545 S
O388 C391 1.244 1_545 S
O389 Co363 2.155 . S
O389 C391 1.240 . S
O390 Co363 2.096 . S
O390 C371 1.247 . S
C391 O388 1.244 1_565 S
C391 O389 1.240 . S
H392 C366 0.931 . S
H393 C375 0.931 . S
H394 C379 0.929 . S
H395 C381 0.930 . S
Co396 N400 2.148 . S
Co396 N406 2.128 . S
Co396 N416 2.194 . S
Co396 O421 2.351 . S
Co396 O422 2.155 . S
Co396 O423 2.096 . S
C397 N400 1.301 . S
C397 N401 1.328 . S
C397 H402 0.930 . S
C398 C399 1.333 . S
C398 N400 1.317 . S
C398 H403 0.930 . S
C399 C398 1.333 . S
C399 N401 1.350 . S
C399 H425 0.931 . S
N400 Co396 2.148 . S
N400 C397 1.301 . S
N400 C398 1.317 . S
N401 C397 1.328 . S
N401 C399 1.350 . S
H402 C397 0.930 . S
H403 C398 0.930 . S
C404 O405 1.224 . S
C404 O423 1.247 . S
O405 C404 1.224 . S
N406 Co396 2.128 . S
N406 C407 1.355 . S
N406 C409 1.311 . S
C407 N406 1.355 . S
C407 C408 1.363 . S
C407 H419 0.929 . S
C408 C407 1.363 . S
C408 N410 1.375 . S
C408 H426 0.931 . S
C409 N406 1.311 . S
C409 N410 1.347 . S
C409 H420 0.929 . S
N410 C408 1.375 . S
N410 C409 1.347 . S
C411 C414 1.365 . S
C411 N416 1.328 . S
C411 H417 0.929 . S
C412 C413 1.362 . S
C412 C415 1.378 . S
C412 H427 0.929 . S
C413 C412 1.362 . S
C413 C414 1.366 . S
C414 C411 1.365 . S
C414 C413 1.366 . S
C414 H428 0.930 . S
C415 C412 1.378 . S
C415 N416 1.315 . S
C415 H418 0.930 . S
N416 Co396 2.194 . S
N416 C411 1.328 . S
N416 C415 1.315 . S
H417 C411 0.929 . S
H418 C415 0.930 . S
H419 C407 0.929 . S
H420 C409 0.929 . S
O421 Co396 2.351 . S
O421 C424 1.244 . S
O422 Co396 2.155 . S
O422 C424 1.240 . S
O423 Co396 2.096 . S
O423 C404 1.247 . S
C424 O421 1.244 . S
C424 O422 1.240 . S
H425 C399 0.931 . S
H426 C408 0.931 . S
H427 C412 0.929 . S
H428 C414 0.930 . S
Co429 N433 2.148 . S
Co429 N439 2.128 . S
Co429 N449 2.194 . S
Co429 O454 2.351 . S
Co429 O455 2.155 . S
Co429 O456 2.096 . S
C430 N433 1.301 . S
C430 N434 1.328 . S
C430 H435 0.930 . S
C431 C432 1.333 . S
C431 N433 1.317 . S
C431 H436 0.930 . S
C432 C431 1.333 . S
C432 N434 1.350 . S
C432 H458 0.931 . S
N433 Co429 2.148 . S
N433 C430 1.301 . S
N433 C431 1.317 . S
N434 C430 1.328 . S
N434 C432 1.350 . S
H435 C430 0.930 . S
H436 C431 0.930 . S
C437 O438 1.224 . S
C437 O456 1.247 . S
O438 C437 1.224 . S
N439 Co429 2.128 . S
N439 C440 1.355 . S
N439 C442 1.311 . S
C440 N439 1.355 . S
C440 C441 1.363 . S
C440 H452 0.929 . S
C441 C440 1.363 . S
C441 N443 1.375 . S
C441 H459 0.931 . S
C442 N439 1.311 . S
C442 N443 1.347 . S
C442 H453 0.929 . S
N443 C441 1.375 . S
N443 C442 1.347 . S
C444 C447 1.365 . S
C444 N449 1.328 . S
C444 H450 0.929 . S
C445 C446 1.362 . S
C445 C448 1.378 . S
C445 H460 0.929 . S
C446 C445 1.362 . S
C446 C447 1.366 . S
C447 C444 1.365 . S
C447 C446 1.366 . S
C447 H461 0.930 . S
C448 C445 1.378 . S
C448 N449 1.315 . S
C448 H451 0.930 . S
N449 Co429 2.194 . S
N449 C444 1.328 . S
N449 C448 1.315 . S
H450 C444 0.929 . S
H451 C448 0.930 . S
H452 C440 0.929 . S
H453 C442 0.929 . S
O454 Co429 2.351 . S
O454 C457 1.244 . S
O455 Co429 2.155 . S
O455 C457 1.240 . S
O456 Co429 2.096 . S
O456 C437 1.247 . S
C457 O454 1.244 . S
C457 O455 1.240 . S
H458 C432 0.931 . S
H459 C441 0.931 . S
H460 C445 0.929 . S
H461 C447 0.930 . S
Co462 N466 2.148 . S
Co462 N472 2.128 . S
Co462 N482 2.194 1_655 S
Co462 O487 2.351 1_655 S
Co462 O488 2.155 . S
Co462 O489 2.096 . S
C463 N466 1.301 . S
C463 N467 1.328 . S
C463 H468 0.930 1_655 S
C464 C465 1.333 . S
C464 N466 1.317 . S
C464 H469 0.930 . S
C465 C464 1.333 . S
C465 N467 1.350 . S
C465 H491 0.931 . S
N466 Co462 2.148 . S
N466 C463 1.301 . S
N466 C464 1.317 . S
N467 C463 1.328 . S
N467 C465 1.350 . S
H468 C463 0.930 1_455 S
H469 C464 0.930 . S
C470 O471 1.224 . S
C470 O489 1.247 . S
O471 C470 1.224 . S
N472 Co462 2.128 . S
N472 C473 1.355 1_655 S
N472 C475 1.311 . S
C473 N472 1.355 1_455 S
C473 C474 1.363 . S
C473 H485 0.929 . S
C474 C473 1.363 . S
C474 N476 1.367 1_455 S
C474 H492 0.931 . S
C475 N472 1.311 . S
C475 N476 1.353 . S
C475 H486 0.929 . S
N476 C474 1.367 1_655 S
N476 C475 1.353 . S
C477 C480 1.365 . S
C477 N482 1.328 . S
C477 H483 0.929 . S
C478 C479 1.362 . S
C478 C481 1.378 . S
C478 H493 0.929 . S
C479 C478 1.362 . S
C479 C480 1.366 . S
C480 C477 1.365 . S
C480 C479 1.366 . S
C480 H494 0.930 . S
C481 C478 1.378 . S
C481 N482 1.315 . S
C481 H484 0.930 . S
N482 Co462 2.194 1_455 S
N482 C477 1.328 . S
N482 C481 1.315 . S
H483 C477 0.929 . S
H484 C481 0.930 . S
H485 C473 0.929 . S
H486 C475 0.929 . S
O487 Co462 2.351 1_455 S
O487 C490 1.244 1_455 S
O488 Co462 2.155 . S
O488 C490 1.240 . S
O489 Co462 2.096 . S
O489 C470 1.247 . S
C490 O487 1.244 1_655 S
C490 O488 1.240 . S
H491 C465 0.931 . S
H492 C474 0.931 . S
H493 C478 0.929 . S
H494 C480 0.930 . S
Co495 N499 2.148 . S
Co495 N505 2.128 . S
Co495 N515 2.194 1_565 S
Co495 O520 2.351 1_565 S
Co495 O521 2.155 . S
Co495 O522 2.096 . S
C496 N499 1.301 . S
C496 N500 1.328 . S
C496 H501 0.930 1_565 S
C497 C498 1.333 . S
C497 N499 1.317 . S
C497 H502 0.930 . S
C498 C497 1.333 . S
C498 N500 1.350 . S
C498 H524 0.931 . S
N499 Co495 2.148 . S
N499 C496 1.301 . S
N499 C497 1.317 . S
N500 C496 1.328 . S
N500 C498 1.350 . S
H501 C496 0.930 1_545 S
H502 C497 0.930 . S
C503 O504 1.224 . S
C503 O522 1.247 . S
O504 C503 1.224 . S
N505 Co495 2.128 . S
N505 C506 1.355 1_565 S
N505 C508 1.311 . S
C506 N505 1.355 1_545 S
C506 C507 1.363 . S
C506 H518 0.929 . S
C507 C506 1.363 . S
C507 N509 1.367 1_545 S
C507 H525 0.931 . S
C508 N505 1.311 . S
C508 N509 1.353 . S
C508 H519 0.929 . S
N509 C507 1.367 1_565 S
N509 C508 1.353 . S
C510 C513 1.365 . S
C510 N515 1.328 . S
C510 H516 0.929 . S
C511 C512 1.362 . S
C511 C514 1.378 . S
C511 H526 0.929 . S
C512 C511 1.362 . S
C512 C513 1.366 . S
C513 C510 1.365 . S
C513 C512 1.366 . S
C513 H527 0.930 . S
C514 C511 1.378 . S
C514 N515 1.315 . S
C514 H517 0.930 . S
N515 Co495 2.194 1_545 S
N515 C510 1.328 . S
N515 C514 1.315 . S
H516 C510 0.929 . S
H517 C514 0.930 . S
H518 C506 0.929 . S
H519 C508 0.929 . S
O520 Co495 2.351 1_545 S
O520 C523 1.244 1_545 S
O521 Co495 2.155 . S
O521 C523 1.240 . S
O522 Co495 2.096 . S
O522 C503 1.247 . S
C523 O520 1.244 1_565 S
C523 O521 1.240 . S
H524 C498 0.931 . S
H525 C507 0.931 . S
H526 C511 0.929 . S
H527 C513 0.930 . S
H528 C536 0.950 . S
H529 C541 0.950 . S
H530 C538 0.950 . S
H531 C540 0.950 . S
H532 C542 0.950 . S
H533 C544 0.950 . S
H534 C546 0.950 . S
H535 C547 0.950 . S
C536 H528 0.950 . S
C536 C537 1.386 . S
C536 C538 1.391 . S
C537 C536 1.386 . S
C537 C541 1.393 . S
C538 H530 0.950 . S
C538 C536 1.391 . S
C538 C539 1.400 . S
C539 C538 1.400 . S
C539 C540 1.398 . S
C539 C545 1.491 1_554 S
C540 H531 0.950 . S
C540 C539 1.398 . S
C540 C541 1.391 . S
C541 H529 0.950 . S
C541 C537 1.393 . S
C541 C540 1.391 . S
C542 H532 0.950 . S
C542 C543 1.386 . S
C542 C544 1.391 . S
C543 C542 1.386 . S
C543 C547 1.393 . S
C544 H533 0.950 . S
C544 C542 1.391 . S
C544 C545 1.400 . S
C545 C539 1.491 1_556 S
C545 C544 1.400 . S
C545 C546 1.398 . S
C546 H534 0.950 . S
C546 C545 1.398 . S
C546 C547 1.391 . S
C547 H535 0.950 . S
C547 C543 1.393 . S
C547 C546 1.391 . S
H548 C556 0.950 . S
H549 C561 0.950 . S
H550 C558 0.950 . S
H551 C560 0.950 . S
H552 C562 0.950 . S
H553 C564 0.950 . S
H554 C566 0.950 . S
H555 C567 0.950 . S
C556 H548 0.950 . S
C556 C557 1.386 . S
C556 C558 1.391 . S
C557 C556 1.386 . S
C557 C561 1.393 . S
C558 H550 0.950 . S
C558 C556 1.391 . S
C558 C559 1.400 . S
C559 C558 1.400 . S
C559 C560 1.398 . S
C559 C565 1.491 . S
C560 H551 0.950 . S
C560 C559 1.398 . S
C560 C561 1.391 . S
C561 H549 0.950 . S
C561 C557 1.393 . S
C561 C560 1.391 . S
C562 H552 0.950 . S
C562 C563 1.386 . S
C562 C564 1.391 . S
C563 C562 1.386 . S
C563 C567 1.393 . S
C564 H553 0.950 . S
C564 C562 1.391 . S
C564 C565 1.400 . S
C565 C559 1.491 . S
C565 C564 1.400 . S
C565 C566 1.398 . S
C566 H554 0.950 . S
C566 C565 1.398 . S
C566 C567 1.391 . S
C567 H555 0.950 . S
C567 C563 1.393 . S
C567 C566 1.391 . S
H568 C576 0.950 . S
H569 C581 0.950 1_655 S
H570 C578 0.950 . S
H571 C580 0.950 1_655 S
H572 C582 0.950 1_655 S
H573 C584 0.950 1_655 S
H574 C586 0.950 . S
H575 C587 0.950 . S
C576 H568 0.950 . S
C576 C577 1.386 . S
C576 C578 1.391 . S
C577 C576 1.386 . S
C577 C581 1.393 . S
C578 H570 0.950 . S
C578 C576 1.391 . S
C578 C579 1.400 . S
C579 C578 1.400 . S
C579 C580 1.398 . S
C579 C585 1.491 1_556 S
C580 H571 0.950 1_455 S
C580 C579 1.398 . S
C580 C581 1.391 . S
C581 H569 0.950 1_455 S
C581 C577 1.393 . S
C581 C580 1.391 . S
C582 H572 0.950 1_455 S
C582 C583 1.386 . S
C582 C584 1.391 . S
C583 C582 1.386 . S
C583 C587 1.393 . S
C584 H573 0.950 1_455 S
C584 C582 1.391 . S
C584 C585 1.400 . S
C585 C579 1.491 1_554 S
C585 C584 1.400 . S
C585 C586 1.398 . S
C586 H574 0.950 . S
C586 C585 1.398 . S
C586 C587 1.391 . S
C587 H575 0.950 . S
C587 C583 1.393 . S
C587 C586 1.391 . S
H588 C596 0.950 . S
H589 C601 0.950 . S
H590 C598 0.950 . S
H591 C600 0.950 . S
H592 C602 0.950 . S
H593 C604 0.950 . S
H594 C606 0.950 . S
H595 C607 0.950 . S
C596 H588 0.950 . S
C596 C597 1.386 . S
C596 C598 1.391 . S
C597 C596 1.386 . S
C597 C601 1.393 . S
C598 H590 0.950 . S
C598 C596 1.391 . S
C598 C599 1.400 . S
C599 C598 1.400 . S
C599 C600 1.398 . S
C599 C605 1.491 . S
C600 H591 0.950 . S
C600 C599 1.398 . S
C600 C601 1.391 . S
C601 H589 0.950 . S
C601 C597 1.393 . S
C601 C600 1.391 . S
C602 H592 0.950 . S
C602 C603 1.386 . S
C602 C604 1.391 . S
C603 C602 1.386 . S
C603 C607 1.393 . S
C604 H593 0.950 . S
C604 C602 1.391 . S
C604 C605 1.400 . S
C605 C599 1.491 . S
C605 C604 1.400 . S
C605 C606 1.398 . S
C606 H594 0.950 . S
C606 C605 1.398 . S
C606 C607 1.391 . S
C607 H595 0.950 . S
C607 C603 1.393 . S
C607 C606 1.391 . S
H608 C616 0.950 . S
H609 C621 0.950 . S
H610 C618 0.950 . S
H611 C620 0.950 . S
H612 C622 0.950 . S
H613 C624 0.950 . S
H614 C626 0.950 . S
H615 C627 0.950 . S
C616 H608 0.950 . S
C616 C617 1.386 . S
C616 C618 1.391 . S
C617 C616 1.386 . S
C617 C621 1.393 . S
C618 H610 0.950 . S
C618 C616 1.391 . S
C618 C619 1.400 . S
C619 C618 1.400 . S
C619 C620 1.398 . S
C619 C625 1.491 1_556 S
C620 H611 0.950 . S
C620 C619 1.398 . S
C620 C621 1.391 . S
C621 H609 0.950 . S
C621 C617 1.393 . S
C621 C620 1.391 . S
C622 H612 0.950 . S
C622 C623 1.386 . S
C622 C624 1.391 . S
C623 C622 1.386 . S
C623 C627 1.393 . S
C624 H613 0.950 . S
C624 C622 1.391 . S
C624 C625 1.400 . S
C625 C619 1.491 1_554 S
C625 C624 1.400 . S
C625 C626 1.398 . S
C626 H614 0.950 . S
C626 C625 1.398 . S
C626 C627 1.391 . S
C627 H615 0.950 . S
C627 C623 1.393 . S
C627 C626 1.391 . S
H628 C636 0.950 . S
H629 C641 0.950 . S
H630 C638 0.950 . S
H631 C640 0.950 . S
H632 C642 0.950 . S
H633 C644 0.950 . S
H634 C646 0.950 . S
H635 C647 0.950 . S
C636 H628 0.950 . S
C636 C637 1.386 . S
C636 C638 1.391 . S
C637 C636 1.386 . S
C637 C641 1.393 . S
C638 H630 0.950 . S
C638 C636 1.391 . S
C638 C639 1.400 . S
C639 C638 1.400 . S
C639 C640 1.398 . S
C639 C645 1.491 . S
C640 H631 0.950 . S
C640 C639 1.398 . S
C640 C641 1.391 . S
C641 H629 0.950 . S
C641 C637 1.393 . S
C641 C640 1.391 . S
C642 H632 0.950 . S
C642 C643 1.386 . S
C642 C644 1.391 . S
C643 C642 1.386 . S
C643 C647 1.393 . S
C644 H633 0.950 . S
C644 C642 1.391 . S
C644 C645 1.400 . S
C645 C639 1.491 . S
C645 C644 1.400 . S
C645 C646 1.398 . S
C646 H634 0.950 . S
C646 C645 1.398 . S
C646 C647 1.391 . S
C647 H635 0.950 . S
C647 C643 1.393 . S
C647 C646 1.391 . S
H648 C656 0.950 . S
H649 C661 0.950 1_455 S
H650 C658 0.950 . S
H651 C660 0.950 1_455 S
H652 C662 0.950 1_455 S
H653 C664 0.950 1_455 S
H654 C666 0.950 . S
H655 C667 0.950 . S
C656 H648 0.950 . S
C656 C657 1.386 . S
C656 C658 1.391 . S
C657 C656 1.386 . S
C657 C661 1.393 . S
C658 H650 0.950 . S
C658 C656 1.391 . S
C658 C659 1.400 . S
C659 C658 1.400 . S
C659 C660 1.398 . S
C659 C665 1.491 1_554 S
C660 H651 0.950 1_655 S
C660 C659 1.398 . S
C660 C661 1.391 . S
C661 H649 0.950 1_655 S
C661 C657 1.393 . S
C661 C660 1.391 . S
C662 H652 0.950 1_655 S
C662 C663 1.386 . S
C662 C664 1.391 . S
C663 C662 1.386 . S
C663 C667 1.393 . S
C664 H653 0.950 1_655 S
C664 C662 1.391 . S
C664 C665 1.400 . S
C665 C659 1.491 1_556 S
C665 C664 1.400 . S
C665 C666 1.398 . S
C666 H654 0.950 . S
C666 C665 1.398 . S
C666 C667 1.391 . S
C667 H655 0.950 . S
C667 C663 1.393 . S
C667 C666 1.391 . S
H668 C676 0.950 1_545 S
H669 C681 0.950 . S
H670 C678 0.950 1_545 S
H671 C680 0.950 . S
H672 C682 0.950 . S
H673 C684 0.950 . S
H674 C686 0.950 1_545 S
H675 C687 0.950 1_545 S
C676 H668 0.950 1_565 S
C676 C677 1.386 . S
C676 C678 1.391 . S
C677 C676 1.386 . S
C677 C681 1.393 . S
C678 H670 0.950 1_565 S
C678 C676 1.391 . S
C678 C679 1.400 . S
C679 C678 1.400 . S
C679 C680 1.398 . S
C679 C685 1.491 . S
C680 H671 0.950 . S
C680 C679 1.398 . S
C680 C681 1.391 . S
C681 H669 0.950 . S
C681 C677 1.393 . S
C681 C680 1.391 . S
C682 H672 0.950 . S
C682 C683 1.386 . S
C682 C684 1.391 . S
C683 C682 1.386 . S
C683 C687 1.393 . S
C684 H673 0.950 . S
C684 C682 1.391 . S
C684 C685 1.400 . S
C685 C679 1.491 . S
C685 C684 1.400 . S
C685 C686 1.398 . S
C686 H674 0.950 1_565 S
C686 C685 1.398 . S
C686 C687 1.391 . S
C687 H675 0.950 1_565 S
C687 C683 1.393 . S
C687 C686 1.391 . S
H688 C696 0.950 . S
H689 C701 0.950 . S
H690 C698 0.950 . S
H691 C700 0.950 . S
H692 C702 0.950 . S
H693 C704 0.950 . S
H694 C706 0.950 1_565 S
H695 C707 0.950 . S
C696 H688 0.950 . S
C696 C697 1.386 . S
C696 C698 1.391 . S
C697 C696 1.386 . S
C697 C701 1.393 . S
C698 H690 0.950 . S
C698 C696 1.391 . S
C698 C699 1.400 . S
C699 C698 1.400 . S
C699 C700 1.398 . S
C699 C705 1.491 . S
C700 H691 0.950 . S
C700 C699 1.398 . S
C700 C701 1.391 . S
C701 H689 0.950 . S
C701 C697 1.393 . S
C701 C700 1.391 . S
C702 H692 0.950 . S
C702 C703 1.386 . S
C702 C704 1.391 . S
C703 C702 1.386 . S
C703 C707 1.393 . S
C704 H693 0.950 . S
C704 C702 1.391 . S
C704 C705 1.400 1_545 S
C705 C699 1.491 . S
C705 C704 1.400 1_565 S
C705 C706 1.398 1_565 S
C706 H694 0.950 1_545 S
C706 C705 1.398 1_545 S
C706 C707 1.391 . S
C707 H695 0.950 . S
C707 C703 1.393 . S
C707 C706 1.391 . S
H708 C716 0.950 . S
H709 C721 0.950 . S
H710 C718 0.950 . S
H711 C720 0.950 . S
H712 C722 0.950 . S
H713 C724 0.950 . S
H714 C726 0.950 . S
H715 C727 0.950 . S
C716 H708 0.950 . S
C716 C717 1.386 . S
C716 C718 1.391 . S
C717 C716 1.386 . S
C717 C721 1.393 . S
C718 H710 0.950 . S
C718 C716 1.391 . S
C718 C719 1.400 . S
C719 C718 1.400 . S
C719 C720 1.398 . S
C719 C725 1.491 . S
C720 H711 0.950 . S
C720 C719 1.398 . S
C720 C721 1.391 . S
C721 H709 0.950 . S
C721 C717 1.393 . S
C721 C720 1.391 . S
C722 H712 0.950 . S
C722 C723 1.386 . S
C722 C724 1.391 . S
C723 C722 1.386 . S
C723 C727 1.393 . S
C724 H713 0.950 . S
C724 C722 1.391 . S
C724 C725 1.400 . S
C725 C719 1.491 . S
C725 C724 1.400 . S
C725 C726 1.398 . S
C726 H714 0.950 . S
C726 C725 1.398 . S
C726 C727 1.391 . S
C727 H715 0.950 . S
C727 C723 1.393 . S
C727 C726 1.391 . S
H728 C736 0.950 . S
H729 C741 0.950 . S
H730 C738 0.950 . S
H731 C740 0.950 . S
H732 C742 0.950 1_455 S
H733 C744 0.950 1_455 S
H734 C746 0.950 . S
H735 C747 0.950 . S
C736 H728 0.950 . S
C736 C737 1.386 1_655 S
C736 C738 1.391 . S
C737 C736 1.386 1_455 S
C737 C741 1.393 . S
C738 H730 0.950 . S
C738 C736 1.391 . S
C738 C739 1.400 . S
C739 C738 1.400 . S
C739 C740 1.398 1_655 S
C739 C745 1.491 . S
C740 H731 0.950 . S
C740 C739 1.398 1_455 S
C740 C741 1.391 . S
C741 H729 0.950 . S
C741 C737 1.393 . S
C741 C740 1.391 . S
C742 H732 0.950 1_655 S
C742 C743 1.386 . S
C742 C744 1.391 . S
C743 C742 1.386 . S
C743 C747 1.393 . S
C744 H733 0.950 1_655 S
C744 C742 1.391 . S
C744 C745 1.400 . S
C745 C739 1.491 . S
C745 C744 1.400 . S
C745 C746 1.398 . S
C746 H734 0.950 . S
C746 C745 1.398 . S
C746 C747 1.391 . S
C747 H735 0.950 . S
C747 C743 1.393 . S
C747 C746 1.391 . S
H748 C756 0.950 . S
H749 C761 0.950 . S
H750 C758 0.950 . S
H751 C760 0.950 . S
H752 C762 0.950 . S
H753 C764 0.950 1_655 S
H754 C766 0.950 . S
H755 C767 0.950 . S
C756 H748 0.950 . S
C756 C757 1.386 . S
C756 C758 1.391 . S
C757 C756 1.386 . S
C757 C761 1.393 1_565 S
C758 H750 0.950 . S
C758 C756 1.391 . S
C758 C759 1.400 . S
C759 C758 1.400 . S
C759 C760 1.398 1_565 S
C759 C765 1.491 . S
C760 H751 0.950 . S
C760 C759 1.398 1_545 S
C760 C761 1.391 . S
C761 H749 0.950 . S
C761 C757 1.393 1_545 S
C761 C760 1.391 . S
C762 H752 0.950 . S
C762 C763 1.386 . S
C762 C764 1.391 . S
C763 C762 1.386 . S
C763 C767 1.393 1_545 S
C764 H753 0.950 1_455 S
C764 C762 1.391 . S
C764 C765 1.400 1_445 S
C765 C759 1.491 . S
C765 C764 1.400 1_665 S
C765 C766 1.398 1_655 S
C766 H754 0.950 . S
C766 C765 1.398 1_455 S
C766 C767 1.391 . S
C767 H755 0.950 . S
C767 C763 1.393 1_565 S
C767 C766 1.391 . S
H768 C776 0.950 . S
H769 C781 0.950 . S
H770 C778 0.950 . S
H771 C780 0.950 . S
H772 C782 0.950 . S
H773 C784 0.950 . S
H774 C786 0.950 . S
H775 C787 0.950 . S
C776 H768 0.950 . S
C776 C777 1.386 . S
C776 C778 1.391 . S
C777 C776 1.386 . S
C777 C781 1.393 . S
C778 H770 0.950 . S
C778 C776 1.391 . S
C778 C779 1.400 . S
C779 C778 1.400 . S
C779 C780 1.398 . S
C779 C785 1.491 . S
C780 H771 0.950 . S
C780 C779 1.398 . S
C780 C781 1.391 . S
C781 H769 0.950 . S
C781 C777 1.393 . S
C781 C780 1.391 . S
C782 H772 0.950 . S
C782 C783 1.386 . S
C782 C784 1.391 . S
C783 C782 1.386 . S
C783 C787 1.393 . S
C784 H773 0.950 . S
C784 C782 1.391 . S
C784 C785 1.400 . S
C785 C779 1.491 . S
C785 C784 1.400 . S
C785 C786 1.398 . S
C786 H774 0.950 . S
C786 C785 1.398 . S
C786 C787 1.391 . S
C787 H775 0.950 . S
C787 C783 1.393 . S
C787 C786 1.391 . S
H788 C796 0.950 . S
H789 C801 0.950 . S
H790 C798 0.950 . S
H791 C800 0.950 . S
H792 C802 0.950 . S
H793 C804 0.950 1_655 S
H794 C806 0.950 . S
H795 C807 0.950 . S
C796 H788 0.950 . S
C796 C797 1.386 . S
C796 C798 1.391 . S
C797 C796 1.386 . S
C797 C801 1.393 . S
C798 H790 0.950 . S
C798 C796 1.391 . S
C798 C799 1.400 . S
C799 C798 1.400 . S
C799 C800 1.398 . S
C799 C805 1.491 . S
C800 H791 0.950 . S
C800 C799 1.398 . S
C800 C801 1.391 . S
C801 H789 0.950 . S
C801 C797 1.393 . S
C801 C800 1.391 . S
C802 H792 0.950 . S
C802 C803 1.386 . S
C802 C804 1.391 . S
C803 C802 1.386 . S
C803 C807 1.393 . S
C804 H793 0.950 1_455 S
C804 C802 1.391 . S
C804 C805 1.400 1_455 S
C805 C799 1.491 . S
C805 C804 1.400 1_655 S
C805 C806 1.398 1_655 S
C806 H794 0.950 . S
C806 C805 1.398 1_455 S
C806 C807 1.391 . S
C807 H795 0.950 . S
C807 C803 1.393 . S
C807 C806 1.391 . S
H808 C816 0.950 . S
H809 C821 0.950 . S
H810 C818 0.950 . S
H811 C820 0.950 1_565 S
H812 C822 0.950 . S
H813 C824 0.950 . S
H814 C826 0.950 . S
H815 C827 0.950 . S
C816 H808 0.950 . S
C816 C817 1.386 1_655 S
C816 C818 1.391 . S
C817 C816 1.386 1_455 S
C817 C821 1.393 . S
C818 H810 0.950 . S
C818 C816 1.391 . S
C818 C819 1.400 1_545 S
C819 C818 1.400 1_565 S
C819 C820 1.398 1_665 S
C819 C825 1.491 . S
C820 H811 0.950 1_545 S
C820 C819 1.398 1_445 S
C820 C821 1.391 . S
C821 H809 0.950 . S
C821 C817 1.393 . S
C821 C820 1.391 . S
C822 H812 0.950 . S
C822 C823 1.386 1_455 S
C822 C824 1.391 . S
C823 C822 1.386 1_655 S
C823 C827 1.393 . S
C824 H813 0.950 . S
C824 C822 1.391 . S
C824 C825 1.400 1_455 S
C825 C819 1.491 . S
C825 C824 1.400 1_655 S
C825 C826 1.398 . S
C826 H814 0.950 . S
C826 C825 1.398 . S
C826 C827 1.391 . S
C827 H815 0.950 . S
C827 C823 1.393 . S
C827 C826 1.391 . S
H828 C836 0.950 . S
H829 C841 0.950 . S
H830 C838 0.950 . S
H831 C840 0.950 . S
H832 C842 0.950 . S
H833 C844 0.950 . S
H834 C846 0.950 1_545 S
H835 C847 0.950 . S
C836 H828 0.950 . S
C836 C837 1.386 . S
C836 C838 1.391 . S
C837 C836 1.386 . S
C837 C841 1.393 1_545 S
C838 H830 0.950 . S
C838 C836 1.391 . S
C838 C839 1.400 1_545 S
C839 C838 1.400 1_565 S
C839 C840 1.398 . S
C839 C845 1.491 . S
C840 H831 0.950 . S
C840 C839 1.398 . S
C840 C841 1.391 . S
C841 H829 0.950 . S
C841 C837 1.393 1_565 S
C841 C840 1.391 . S
C842 H832 0.950 . S
C842 C843 1.386 . S
C842 C844 1.391 . S
C843 C842 1.386 . S
C843 C847 1.393 . S
C844 H833 0.950 . S
C844 C842 1.391 . S
C844 C845 1.400 . S
C845 C839 1.491 . S
C845 C844 1.400 . S
C845 C846 1.398 . S
C846 H834 0.950 1_565 S
C846 C845 1.398 . S
C846 C847 1.391 . S
C847 H835 0.950 . S
C847 C843 1.393 . S
C847 C846 1.391 . S
H848 C856 0.950 . S
H849 C861 0.950 . S
H850 C858 0.950 . S
H851 C860 0.950 . S
H852 C862 0.950 . S
H853 C864 0.950 1_545 S
H854 C866 0.950 . S
H855 C867 0.950 . S
C856 H848 0.950 . S
C856 C857 1.386 . S
C856 C858 1.391 . S
C857 C856 1.386 . S
C857 C861 1.393 . S
C858 H850 0.950 . S
C858 C856 1.391 . S
C858 C859 1.400 . S
C859 C858 1.400 . S
C859 C860 1.398 . S
C859 C865 1.491 . S
C860 H851 0.950 . S
C860 C859 1.398 . S
C860 C861 1.391 . S
C861 H849 0.950 . S
C861 C857 1.393 . S
C861 C860 1.391 . S
C862 H852 0.950 . S
C862 C863 1.386 . S
C862 C864 1.391 . S
C863 C862 1.386 . S
C863 C867 1.393 . S
C864 H853 0.950 1_565 S
C864 C862 1.391 . S
C864 C865 1.400 1_565 S
C865 C859 1.491 . S
C865 C864 1.400 1_545 S
C865 C866 1.398 1_545 S
C866 H854 0.950 . S
C866 C865 1.398 1_565 S
C866 C867 1.391 . S
C867 H855 0.950 . S
C867 C863 1.393 . S
C867 C866 1.391 . S
H868 C876 0.950 . S
H869 C881 0.950 . S
H870 C878 0.950 . S
H871 C880 0.950 . S
H872 C882 0.950 . S
H873 C884 0.950 . S
H874 C886 0.950 . S
H875 C887 0.950 . S
C876 H868 0.950 . S
C876 C877 1.386 . S
C876 C878 1.391 . S
C877 C876 1.386 . S
C877 C881 1.393 . S
C878 H870 0.950 . S
C878 C876 1.391 . S
C878 C879 1.400 . S
C879 C878 1.400 . S
C879 C880 1.398 . S
C879 C885 1.491 . S
C880 H871 0.950 . S
C880 C879 1.398 . S
C880 C881 1.391 . S
C881 H869 0.950 . S
C881 C877 1.393 . S
C881 C880 1.391 . S
C882 H872 0.950 . S
C882 C883 1.386 . S
C882 C884 1.391 . S
C883 C882 1.386 . S
C883 C887 1.393 . S
C884 H873 0.950 . S
C884 C882 1.391 . S
C884 C885 1.400 . S
C885 C879 1.491 . S
C885 C884 1.400 . S
C885 C886 1.398 . S
C886 H874 0.950 . S
C886 C885 1.398 . S
C886 C887 1.391 . S
C887 H875 0.950 . S
C887 C883 1.393 . S
C887 C886 1.391 . S
H888 C896 0.950 . S
H889 C901 0.950 . S
H890 C898 0.950 . S
H891 C900 0.950 . S
H892 C902 0.950 . S
H893 C904 0.950 . S
H894 C906 0.950 . S
H895 C907 0.950 . S
C896 H888 0.950 . S
C896 C897 1.386 1_655 S
C896 C898 1.391 . S
C897 C896 1.386 1_455 S
C897 C901 1.393 . S
C898 H890 0.950 . S
C898 C896 1.391 . S
C898 C899 1.400 1_655 S
C899 C898 1.400 1_455 S
C899 C900 1.398 . S
C899 C905 1.491 . S
C900 H891 0.950 . S
C900 C899 1.398 . S
C900 C901 1.391 . S
C901 H889 0.950 . S
C901 C897 1.393 . S
C901 C900 1.391 . S
C902 H892 0.950 . S
C902 C903 1.386 1_455 S
C902 C904 1.391 . S
C903 C902 1.386 1_655 S
C903 C907 1.393 . S
C904 H893 0.950 . S
C904 C902 1.391 . S
C904 C905 1.400 . S
C905 C899 1.491 . S
C905 C904 1.400 . S
C905 C906 1.398 1_455 S
C906 H894 0.950 . S
C906 C905 1.398 1_655 S
C906 C907 1.391 . S
C907 H895 0.950 . S
C907 C903 1.393 . S
C907 C906 1.391 . S
H908 C916 0.950 . S
H909 C921 0.950 . S
H910 C918 0.950 . S
H911 C920 0.950 . S
H912 C922 0.950 . S
H913 C924 0.950 . S
H914 C926 0.950 1_565 S
H915 C927 0.950 . S
C916 H908 0.950 . S
C916 C917 1.386 . S
C916 C918 1.391 . S
C917 C916 1.386 . S
C917 C921 1.393 1_565 S
C918 H910 0.950 . S
C918 C916 1.391 . S
C918 C919 1.400 1_665 S
C919 C918 1.400 1_445 S
C919 C920 1.398 1_455 S
C919 C925 1.491 . S
C920 H911 0.950 . S
C920 C919 1.398 1_655 S
C920 C921 1.391 . S
C921 H909 0.950 . S
C921 C917 1.393 1_545 S
C921 C920 1.391 . S
C922 H912 0.950 . S
C922 C923 1.386 . S
C922 C924 1.391 . S
C923 C922 1.386 . S
C923 C927 1.393 . S
C924 H913 0.950 . S
C924 C922 1.391 . S
C924 C925 1.400 . S
C925 C919 1.491 . S
C925 C924 1.400 . S
C925 C926 1.398 . S
C926 H914 0.950 1_545 S
C926 C925 1.398 . S
C926 C927 1.391 . S
C927 H915 0.950 . S
C927 C923 1.393 . S
C927 C926 1.391 . S
H928 C936 0.950 . S
H929 C941 0.950 . S
H930 C938 0.950 . S
H931 C940 0.950 . S
H932 C942 0.950 . S
H933 C944 0.950 . S
H934 C946 0.950 . S
H935 C947 0.950 . S
C936 H928 0.950 . S
C936 C937 1.386 . S
C936 C938 1.391 . S
C937 C936 1.386 . S
C937 C941 1.393 . S
C938 H930 0.950 . S
C938 C936 1.391 . S
C938 C939 1.400 . S
C939 C938 1.400 . S
C939 C940 1.398 . S
C939 C945 1.491 . S
C940 H931 0.950 . S
C940 C939 1.398 . S
C940 C941 1.391 . S
C941 H929 0.950 . S
C941 C937 1.393 . S
C941 C940 1.391 . S
C942 H932 0.950 . S
C942 C943 1.386 . S
C942 C944 1.391 . S
C943 C942 1.386 . S
C943 C947 1.393 . S
C944 H933 0.950 . S
C944 C942 1.391 . S
C944 C945 1.400 . S
C945 C939 1.491 . S
C945 C944 1.400 . S
C945 C946 1.398 . S
C946 H934 0.950 . S
C946 C945 1.398 . S
C946 C947 1.391 . S
C947 H935 0.950 . S
C947 C943 1.393 . S
C947 C946 1.391 . S
H948 C956 0.950 . S
H949 C961 0.950 . S
H950 C958 0.950 . S
H951 C960 0.950 . S
H952 C962 0.950 . S
H953 C964 0.950 1_455 S
H954 C966 0.950 . S
H955 C967 0.950 . S
C956 H948 0.950 . S
C956 C957 1.386 . S
C956 C958 1.391 . S
C957 C956 1.386 . S
C957 C961 1.393 . S
C958 H950 0.950 . S
C958 C956 1.391 . S
C958 C959 1.400 . S
C959 C958 1.400 . S
C959 C960 1.398 . S
C959 C965 1.491 . S
C960 H951 0.950 . S
C960 C959 1.398 . S
C960 C961 1.391 . S
C961 H949 0.950 . S
C961 C957 1.393 . S
C961 C960 1.391 . S
C962 H952 0.950 . S
C962 C963 1.386 . S
C962 C964 1.391 . S
C963 C962 1.386 . S
C963 C967 1.393 . S
C964 H953 0.950 1_655 S
C964 C962 1.391 . S
C964 C965 1.400 1_655 S
C965 C959 1.491 . S
C965 C964 1.400 1_455 S
C965 C966 1.398 1_455 S
C966 H954 0.950 . S
C966 C965 1.398 1_655 S
C966 C967 1.391 . S
C967 H955 0.950 . S
C967 C963 1.393 . S
C967 C966 1.391 . S
H968 C976 0.950 . S
H969 C981 0.950 . S
H970 C978 0.950 . S
H971 C980 0.952 . S
H972 C982 0.950 . S
H973 C984 0.950 . S
H974 C986 0.950 . S
H975 C987 0.950 . S
C976 H968 0.950 . S
C976 C977 1.386 1_455 S
C976 C978 1.391 . S
C977 C976 1.386 1_655 S
C977 C981 1.393 . S
C978 H970 0.950 . S
C978 C976 1.391 . S
C978 C979 1.400 1_565 S
C979 C978 1.400 1_545 S
C979 C980 1.394 1_445 S
C979 C985 1.491 . S
C980 H971 0.952 . S
C980 C979 1.394 1_665 S
C980 C981 1.394 . S
C981 H969 0.950 . S
C981 C977 1.393 . S
C981 C980 1.394 . S
C982 H972 0.950 . S
C982 C983 1.386 . S
C982 C984 1.391 . S
C983 C982 1.386 . S
C983 C987 1.393 . S
C984 H973 0.950 . S
C984 C982 1.391 . S
C984 C985 1.400 . S
C985 C979 1.491 . S
C985 C984 1.400 . S
C985 C986 1.398 . S
C986 H974 0.950 . S
C986 C985 1.398 . S
C986 C987 1.391 . S
C987 H975 0.950 . S
C987 C983 1.393 . S
C987 C986 1.391 . S
H988 C996 0.950 . S
H989 C1001 0.950 . S
H990 C998 0.950 . S
H991 C1000 0.950 . S
H992 C1002 0.950 . S
H993 C1004 0.950 . S
H994 C1006 0.950 . S
H995 C1007 0.950 . S
C996 H988 0.950 . S
C996 C997 1.386 . S
C996 C998 1.391 . S
C997 C996 1.386 . S
C997 C1001 1.393 1_545 S
C998 H990 0.950 . S
C998 C996 1.391 . S
C998 C999 1.400 . S
C999 C998 1.400 . S
C999 C1000 1.398 1_545 S
C999 C1005 1.491 . S
C1000 H991 0.950 . S
C1000 C999 1.398 1_565 S
C1000 C1001 1.391 . S
C1001 H989 0.950 . S
C1001 C997 1.393 1_565 S
C1001 C1000 1.391 . S
C1002 H992 0.950 . S
C1002 C1003 1.386 . S
C1002 C1004 1.391 . S
C1003 C1002 1.386 . S
C1003 C1007 1.393 1_565 S
C1004 H993 0.950 . S
C1004 C1002 1.391 . S
C1004 C1005 1.400 1_565 S
C1005 C999 1.491 . S
C1005 C1004 1.400 1_545 S
C1005 C1006 1.398 . S
C1006 H994 0.950 . S
C1006 C1005 1.398 . S
C1006 C1007 1.391 . S
C1007 H995 0.950 . S
C1007 C1003 1.393 1_545 S
C1007 C1006 1.391 . S
H1008 C1016 0.950 . S
H1009 C1021 0.950 . S
H1010 C1018 0.950 . S
H1011 C1020 0.950 . S
H1012 C1022 0.950 . S
H1013 C1024 0.950 . S
H1014 C1026 0.950 . S
H1015 C1027 0.950 . S
C1016 H1008 0.950 . S
C1016 C1017 1.386 . S
C1016 C1018 1.391 . S
C1017 C1016 1.386 . S
C1017 C1021 1.393 . S
C1018 H1010 0.950 . S
C1018 C1016 1.391 . S
C1018 C1019 1.400 . S
C1019 C1018 1.400 . S
C1019 C1020 1.398 . S
C1019 C1025 1.491 . S
C1020 H1011 0.950 . S
C1020 C1019 1.398 . S
C1020 C1021 1.391 . S
C1021 H1009 0.950 . S
C1021 C1017 1.393 . S
C1021 C1020 1.391 . S
C1022 H1012 0.950 . S
C1022 C1023 1.386 . S
C1022 C1024 1.391 . S
C1023 C1022 1.386 . S
C1023 C1027 1.393 . S
C1024 H1013 0.950 . S
C1024 C1022 1.391 . S
C1024 C1025 1.400 . S
C1025 C1019 1.491 . S
C1025 C1024 1.400 . S
C1025 C1026 1.398 . S
C1026 H1014 0.950 . S
C1026 C1025 1.398 . S
C1026 C1027 1.391 . S
C1027 H1015 0.950 . S
C1027 C1023 1.393 . S
C1027 C1026 1.391 . S
H1028 C1036 0.950 . S
H1029 C1041 0.950 . S
H1030 C1038 0.950 . S
H1031 C1040 0.950 . S
H1032 C1042 0.950 . S
H1033 C1044 0.950 . S
H1034 C1046 0.950 . S
H1035 C1047 0.950 . S
C1036 H1028 0.950 . S
C1036 C1037 1.386 . S
C1036 C1038 1.391 . S
C1037 C1036 1.386 . S
C1037 C1041 1.393 . S
C1038 H1030 0.950 . S
C1038 C1036 1.391 . S
C1038 C1039 1.400 . S
C1039 C1038 1.400 . S
C1039 C1040 1.398 . S
C1039 C1045 1.491 . S
C1040 H1031 0.950 . S
C1040 C1039 1.398 . S
C1040 C1041 1.391 . S
C1041 H1029 0.950 . S
C1041 C1037 1.393 . S
C1041 C1040 1.391 . S
C1042 H1032 0.950 . S
C1042 C1043 1.386 . S
C1042 C1044 1.391 . S
C1043 C1042 1.386 . S
C1043 C1047 1.393 . S
C1044 H1033 0.950 . S
C1044 C1042 1.391 . S
C1044 C1045 1.400 . S
C1045 C1039 1.491 . S
C1045 C1044 1.400 . S
C1045 C1046 1.398 . S
C1046 H1034 0.950 . S
C1046 C1045 1.398 . S
C1046 C1047 1.391 . S
C1047 H1035 0.950 . S
C1047 C1043 1.393 . S
C1047 C1046 1.391 . S
H1048 C1056 0.950 . S
H1049 C1061 0.950 . S
H1050 C1058 0.950 . S
H1051 C1060 0.950 . S
H1052 C1062 0.950 . S
H1053 C1064 0.950 . S
H1054 C1066 0.950 . S
H1055 C1067 0.950 . S
C1056 H1048 0.950 . S
C1056 C1057 1.386 . S
C1056 C1058 1.391 . S
C1057 C1056 1.386 . S
C1057 C1061 1.393 . S
C1058 H1050 0.950 . S
C1058 C1056 1.391 . S
C1058 C1059 1.400 . S
C1059 C1058 1.400 . S
C1059 C1060 1.398 . S
C1059 C1065 1.491 . S
C1060 H1051 0.950 . S
C1060 C1059 1.398 . S
C1060 C1061 1.391 . S
C1061 H1049 0.950 . S
C1061 C1057 1.393 . S
C1061 C1060 1.391 . S
C1062 H1052 0.950 . S
C1062 C1063 1.386 . S
C1062 C1064 1.391 . S
C1063 C1062 1.386 . S
C1063 C1067 1.393 . S
C1064 H1053 0.950 . S
C1064 C1062 1.391 . S
C1064 C1065 1.400 . S
C1065 C1059 1.491 . S
C1065 C1064 1.400 . S
C1065 C1066 1.398 . S
C1066 H1054 0.950 . S
C1066 C1065 1.398 . S
C1066 C1067 1.391 . S
C1067 H1055 0.950 . S
C1067 C1063 1.393 . S
C1067 C1066 1.391 . S
H1068 C1076 0.950 . S
H1069 C1081 0.950 . S
H1070 C1078 0.950 . S
H1071 C1080 0.950 . S
H1072 C1082 0.950 . S
H1073 C1084 0.950 . S
H1074 C1086 0.950 . S
H1075 C1087 0.950 . S
C1076 H1068 0.950 . S
C1076 C1077 1.386 . S
C1076 C1078 1.391 . S
C1077 C1076 1.386 . S
C1077 C1081 1.393 . S
C1078 H1070 0.950 . S
C1078 C1076 1.391 . S
C1078 C1079 1.400 . S
C1079 C1078 1.400 . S
C1079 C1080 1.398 . S
C1079 C1085 1.491 . S
C1080 H1071 0.950 . S
C1080 C1079 1.398 . S
C1080 C1081 1.391 . S
C1081 H1069 0.950 . S
C1081 C1077 1.393 . S
C1081 C1080 1.391 . S
C1082 H1072 0.950 . S
C1082 C1083 1.386 . S
C1082 C1084 1.391 . S
C1083 C1082 1.386 . S
C1083 C1087 1.393 . S
C1084 H1073 0.950 . S
C1084 C1082 1.391 . S
C1084 C1085 1.400 . S
C1085 C1079 1.491 . S
C1085 C1084 1.400 . S
C1085 C1086 1.398 . S
C1086 H1074 0.950 . S
C1086 C1085 1.398 . S
C1086 C1087 1.391 . S
C1087 H1075 0.950 . S
C1087 C1083 1.393 . S
C1087 C1086 1.391 . S
H1088 C1096 0.950 . S
H1089 C1101 0.950 . S
H1090 C1098 0.950 . S
H1091 C1100 0.950 . S
H1092 C1102 0.950 . S
H1093 C1104 0.950 . S
H1094 C1106 0.950 . S
H1095 C1107 0.950 . S
C1096 H1088 0.950 . S
C1096 C1097 1.386 . S
C1096 C1098 1.391 . S
C1097 C1096 1.386 . S
C1097 C1101 1.393 . S
C1098 H1090 0.950 . S
C1098 C1096 1.391 . S
C1098 C1099 1.400 . S
C1099 C1098 1.400 . S
C1099 C1100 1.398 . S
C1099 C1105 1.491 . S
C1100 H1091 0.950 . S
C1100 C1099 1.398 . S
C1100 C1101 1.391 . S
C1101 H1089 0.950 . S
C1101 C1097 1.393 . S
C1101 C1100 1.391 . S
C1102 H1092 0.950 . S
C1102 C1103 1.386 . S
C1102 C1104 1.391 . S
C1103 C1102 1.386 . S
C1103 C1107 1.393 . S
C1104 H1093 0.950 . S
C1104 C1102 1.391 . S
C1104 C1105 1.400 . S
C1105 C1099 1.491 . S
C1105 C1104 1.400 . S
C1105 C1106 1.398 . S
C1106 H1094 0.950 . S
C1106 C1105 1.398 . S
C1106 C1107 1.391 . S
C1107 H1095 0.950 . S
C1107 C1103 1.393 . S
C1107 C1106 1.391 . S
H1108 C1116 0.950 . S
H1109 C1121 0.950 . S
H1110 C1118 0.950 . S
H1111 C1120 0.950 . S
H1112 C1122 0.950 . S
H1113 C1124 0.950 . S
H1114 C1126 0.950 . S
H1115 C1127 0.950 . S
C1116 H1108 0.950 . S
C1116 C1117 1.386 . S
C1116 C1118 1.391 . S
C1117 C1116 1.386 . S
C1117 C1121 1.393 . S
C1118 H1110 0.950 . S
C1118 C1116 1.391 . S
C1118 C1119 1.400 . S
C1119 C1118 1.400 . S
C1119 C1120 1.398 . S
C1119 C1125 1.491 . S
C1120 H1111 0.950 . S
C1120 C1119 1.398 . S
C1120 C1121 1.391 . S
C1121 H1109 0.950 . S
C1121 C1117 1.393 . S
C1121 C1120 1.391 . S
C1122 H1112 0.950 . S
C1122 C1123 1.386 . S
C1122 C1124 1.391 . S
C1123 C1122 1.386 . S
C1123 C1127 1.393 . S
C1124 H1113 0.950 . S
C1124 C1122 1.391 . S
C1124 C1125 1.400 . S
C1125 C1119 1.491 . S
C1125 C1124 1.400 . S
C1125 C1126 1.398 . S
C1126 H1114 0.950 . S
C1126 C1125 1.398 . S
C1126 C1127 1.391 . S
C1127 H1115 0.950 . S
C1127 C1123 1.393 . S
C1127 C1126 1.391 . S
H1128 C1136 0.950 . S
H1129 C1141 0.950 . S
H1130 C1138 0.950 . S
H1131 C1140 0.950 . S
H1132 C1142 0.950 . S
H1133 C1144 0.950 . S
H1134 C1146 0.950 . S
H1135 C1147 0.950 . S
C1136 H1128 0.950 . S
C1136 C1137 1.386 . S
C1136 C1138 1.391 . S
C1137 C1136 1.386 . S
C1137 C1141 1.393 . S
C1138 H1130 0.950 . S
C1138 C1136 1.391 . S
C1138 C1139 1.400 . S
C1139 C1138 1.400 . S
C1139 C1140 1.398 . S
C1139 C1145 1.491 . S
C1140 H1131 0.950 . S
C1140 C1139 1.398 . S
C1140 C1141 1.391 . S
C1141 H1129 0.950 . S
C1141 C1137 1.393 . S
C1141 C1140 1.391 . S
C1142 H1132 0.950 . S
C1142 C1143 1.386 . S
C1142 C1144 1.391 . S
C1143 C1142 1.386 . S
C1143 C1147 1.393 . S
C1144 H1133 0.950 . S
C1144 C1142 1.391 . S
C1144 C1145 1.400 . S
C1145 C1139 1.491 . S
C1145 C1144 1.400 . S
C1145 C1146 1.398 . S
C1146 H1134 0.950 . S
C1146 C1145 1.398 . S
C1146 C1147 1.391 . S
C1147 H1135 0.950 . S
C1147 C1143 1.393 . S
C1147 C1146 1.391 . S
H1148 C1156 0.950 . S
H1149 C1161 0.950 . S
H1150 C1158 0.950 . S
H1151 C1160 0.950 . S
H1152 C1162 0.950 . S
H1153 C1164 0.950 . S
H1154 C1166 0.950 . S
H1155 C1167 0.950 . S
C1156 H1148 0.950 . S
C1156 C1157 1.386 . S
C1156 C1158 1.391 . S
C1157 C1156 1.386 . S
C1157 C1161 1.393 . S
C1158 H1150 0.950 . S
C1158 C1156 1.391 . S
C1158 C1159 1.400 . S
C1159 C1158 1.400 . S
C1159 C1160 1.398 . S
C1159 C1165 1.491 . S
C1160 H1151 0.950 . S
C1160 C1159 1.398 . S
C1160 C1161 1.391 . S
C1161 H1149 0.950 . S
C1161 C1157 1.393 . S
C1161 C1160 1.391 . S
C1162 H1152 0.950 . S
C1162 C1163 1.386 . S
C1162 C1164 1.391 . S
C1163 C1162 1.386 . S
C1163 C1167 1.393 . S
C1164 H1153 0.950 . S
C1164 C1162 1.391 . S
C1164 C1165 1.400 . S
C1165 C1159 1.491 . S
C1165 C1164 1.400 . S
C1165 C1166 1.398 . S
C1166 H1154 0.950 . S
C1166 C1165 1.398 . S
C1166 C1167 1.391 . S
C1167 H1155 0.950 . S
C1167 C1163 1.393 . S
C1167 C1166 1.391 . S
H1168 C1176 0.950 . S
H1169 C1181 0.950 . S
H1170 C1178 0.950 . S
H1171 C1180 0.950 . S
H1172 C1182 0.950 . S
H1173 C1184 0.950 . S
H1174 C1186 0.950 . S
H1175 C1187 0.950 . S
C1176 H1168 0.950 . S
C1176 C1177 1.386 . S
C1176 C1178 1.391 . S
C1177 C1176 1.386 . S
C1177 C1181 1.393 . S
C1178 H1170 0.950 . S
C1178 C1176 1.391 . S
C1178 C1179 1.400 . S
C1179 C1178 1.400 . S
C1179 C1180 1.398 . S
C1179 C1185 1.491 . S
C1180 H1171 0.950 . S
C1180 C1179 1.398 . S
C1180 C1181 1.391 . S
C1181 H1169 0.950 . S
C1181 C1177 1.393 . S
C1181 C1180 1.391 . S
C1182 H1172 0.950 . S
C1182 C1183 1.386 . S
C1182 C1184 1.391 . S
C1183 C1182 1.386 . S
C1183 C1187 1.393 . S
C1184 H1173 0.950 . S
C1184 C1182 1.391 . S
C1184 C1185 1.400 . S
C1185 C1179 1.491 . S
C1185 C1184 1.400 . S
C1185 C1186 1.398 . S
C1186 H1174 0.950 . S
C1186 C1185 1.398 . S
C1186 C1187 1.391 . S
C1187 H1175 0.950 . S
C1187 C1183 1.393 . S
C1187 C1186 1.391 . S
H1188 C1196 0.950 . S
H1189 C1201 0.950 . S
H1190 C1198 0.950 . S
H1191 C1200 0.950 . S
H1192 C1202 0.950 . S
H1193 C1204 0.950 . S
H1194 C1206 0.950 . S
H1195 C1207 0.950 . S
C1196 H1188 0.950 . S
C1196 C1197 1.386 . S
C1196 C1198 1.391 . S
C1197 C1196 1.386 . S
C1197 C1201 1.393 . S
C1198 H1190 0.950 . S
C1198 C1196 1.391 . S
C1198 C1199 1.400 . S
C1199 C1198 1.400 . S
C1199 C1200 1.398 . S
C1199 C1205 1.491 . S
C1200 H1191 0.950 . S
C1200 C1199 1.398 . S
C1200 C1201 1.391 . S
C1201 H1189 0.950 . S
C1201 C1197 1.393 . S
C1201 C1200 1.391 . S
C1202 H1192 0.950 . S
C1202 C1203 1.386 . S
C1202 C1204 1.391 . S
C1203 C1202 1.386 . S
C1203 C1207 1.393 . S
C1204 H1193 0.950 . S
C1204 C1202 1.391 . S
C1204 C1205 1.400 . S
C1205 C1199 1.491 . S
C1205 C1204 1.400 . S
C1205 C1206 1.398 . S
C1206 H1194 0.950 . S
C1206 C1205 1.398 . S
C1206 C1207 1.391 . S
C1207 H1195 0.950 . S
C1207 C1203 1.393 . S
C1207 C1206 1.391 . S
H1208 C1216 0.950 . S
H1209 C1221 0.950 . S
H1210 C1218 0.950 . S
H1211 C1220 0.950 . S
H1212 C1222 0.950 . S
H1213 C1224 0.950 . S
H1214 C1226 0.950 . S
H1215 C1227 0.950 . S
C1216 H1208 0.950 . S
C1216 C1217 1.386 . S
C1216 C1218 1.391 . S
C1217 C1216 1.386 . S
C1217 C1221 1.393 . S
C1218 H1210 0.950 . S
C1218 C1216 1.391 . S
C1218 C1219 1.400 . S
C1219 C1218 1.400 . S
C1219 C1220 1.398 . S
C1219 C1225 1.491 . S
C1220 H1211 0.950 . S
C1220 C1219 1.398 . S
C1220 C1221 1.391 . S
C1221 H1209 0.950 . S
C1221 C1217 1.393 . S
C1221 C1220 1.391 . S
C1222 H1212 0.950 . S
C1222 C1223 1.386 . S
C1222 C1224 1.391 . S
C1223 C1222 1.386 . S
C1223 C1227 1.393 . S
C1224 H1213 0.950 . S
C1224 C1222 1.391 . S
C1224 C1225 1.400 . S
C1225 C1219 1.491 . S
C1225 C1224 1.400 . S
C1225 C1226 1.398 . S
C1226 H1214 0.950 . S
C1226 C1225 1.398 . S
C1226 C1227 1.391 . S
C1227 H1215 0.950 . S
C1227 C1223 1.393 . S
C1227 C1226 1.391 . S
H1228 C1236 0.950 . S
H1229 C1241 0.950 . S
H1230 C1238 0.950 . S
H1231 C1240 0.950 . S
H1232 C1242 0.950 . S
H1233 C1244 0.950 . S
H1234 C1246 0.950 . S
H1235 C1247 0.950 . S
C1236 H1228 0.950 . S
C1236 C1237 1.386 . S
C1236 C1238 1.391 . S
C1237 C1236 1.386 . S
C1237 C1241 1.393 . S
C1238 H1230 0.950 . S
C1238 C1236 1.391 . S
C1238 C1239 1.400 . S
C1239 C1238 1.400 . S
C1239 C1240 1.398 . S
C1239 C1245 1.491 . S
C1240 H1231 0.950 . S
C1240 C1239 1.398 . S
C1240 C1241 1.391 . S
C1241 H1229 0.950 . S
C1241 C1237 1.393 . S
C1241 C1240 1.391 . S
C1242 H1232 0.950 . S
C1242 C1243 1.386 . S
C1242 C1244 1.391 . S
C1243 C1242 1.386 . S
C1243 C1247 1.393 . S
C1244 H1233 0.950 . S
C1244 C1242 1.391 . S
C1244 C1245 1.400 . S
C1245 C1239 1.491 . S
C1245 C1244 1.400 . S
C1245 C1246 1.398 . S
C1246 H1234 0.950 . S
C1246 C1245 1.398 . S
C1246 C1247 1.391 . S
C1247 H1235 0.950 . S
C1247 C1243 1.393 . S
C1247 C1246 1.391 . S
H1248 C1256 0.950 . S
H1249 C1261 0.950 . S
H1250 C1258 0.950 . S
H1251 C1260 0.950 . S
H1252 C1262 0.950 . S
H1253 C1264 0.950 . S
H1254 C1266 0.950 . S
H1255 C1267 0.950 . S
C1256 H1248 0.950 . S
C1256 C1257 1.386 . S
C1256 C1258 1.391 . S
C1257 C1256 1.386 . S
C1257 C1261 1.393 . S
C1258 H1250 0.950 . S
C1258 C1256 1.391 . S
C1258 C1259 1.400 . S
C1259 C1258 1.400 . S
C1259 C1260 1.398 . S
C1259 C1265 1.491 . S
C1260 H1251 0.950 . S
C1260 C1259 1.398 . S
C1260 C1261 1.391 . S
C1261 H1249 0.950 . S
C1261 C1257 1.393 . S
C1261 C1260 1.391 . S
C1262 H1252 0.950 . S
C1262 C1263 1.386 . S
C1262 C1264 1.391 . S
C1263 C1262 1.386 . S
C1263 C1267 1.393 . S
C1264 H1253 0.950 . S
C1264 C1262 1.391 . S
C1264 C1265 1.400 . S
C1265 C1259 1.491 . S
C1265 C1264 1.400 . S
C1265 C1266 1.398 . S
C1266 H1254 0.950 . S
C1266 C1265 1.398 . S
C1266 C1267 1.391 . S
C1267 H1255 0.950 . S
C1267 C1263 1.393 . S
C1267 C1266 1.391 . S
H1268 C1276 0.950 . S
H1269 C1281 0.950 . S
H1270 C1278 0.950 . S
H1271 C1280 0.950 . S
H1272 C1282 0.950 . S
H1273 C1284 0.950 . S
H1274 C1286 0.950 . S
H1275 C1287 0.950 . S
C1276 H1268 0.950 . S
C1276 C1277 1.386 . S
C1276 C1278 1.391 . S
C1277 C1276 1.386 . S
C1277 C1281 1.393 . S
C1278 H1270 0.950 . S
C1278 C1276 1.391 . S
C1278 C1279 1.400 . S
C1279 C1278 1.400 . S
C1279 C1280 1.398 . S
C1279 C1285 1.491 . S
C1280 H1271 0.950 . S
C1280 C1279 1.398 . S
C1280 C1281 1.391 . S
C1281 H1269 0.950 . S
C1281 C1277 1.393 . S
C1281 C1280 1.391 . S
C1282 H1272 0.950 . S
C1282 C1283 1.386 . S
C1282 C1284 1.391 . S
C1283 C1282 1.386 . S
C1283 C1287 1.393 . S
C1284 H1273 0.950 . S
C1284 C1282 1.391 . S
C1284 C1285 1.400 . S
C1285 C1279 1.491 . S
C1285 C1284 1.400 . S
C1285 C1286 1.398 . S
C1286 H1274 0.950 . S
C1286 C1285 1.398 . S
C1286 C1287 1.391 . S
C1287 H1275 0.950 . S
C1287 C1283 1.393 . S
C1287 C1286 1.391 . S
H1288 C1296 0.950 . S
H1289 C1301 0.950 . S
H1290 C1298 0.950 . S
H1291 C1300 0.950 . S
H1292 C1302 0.950 . S
H1293 C1304 0.950 . S
H1294 C1306 0.950 . S
H1295 C1307 0.950 . S
C1296 H1288 0.950 . S
C1296 C1297 1.386 . S
C1296 C1298 1.391 . S
C1297 C1296 1.386 . S
C1297 C1301 1.393 . S
C1298 H1290 0.950 . S
C1298 C1296 1.391 . S
C1298 C1299 1.400 . S
C1299 C1298 1.400 . S
C1299 C1300 1.398 . S
C1299 C1305 1.491 . S
C1300 H1291 0.950 . S
C1300 C1299 1.398 . S
C1300 C1301 1.391 . S
C1301 H1289 0.950 . S
C1301 C1297 1.393 . S
C1301 C1300 1.391 . S
C1302 H1292 0.950 . S
C1302 C1303 1.386 . S
C1302 C1304 1.391 . S
C1303 C1302 1.386 . S
C1303 C1307 1.393 . S
C1304 H1293 0.950 . S
C1304 C1302 1.391 . S
C1304 C1305 1.400 . S
C1305 C1299 1.491 . S
C1305 C1304 1.400 . S
C1305 C1306 1.398 . S
C1306 H1294 0.950 . S
C1306 C1305 1.398 . S
C1306 C1307 1.391 . S
C1307 H1295 0.950 . S
C1307 C1303 1.393 . S
C1307 C1306 1.391 . S
H1308 C1316 0.950 . S
H1309 C1321 0.950 . S
H1310 C1318 0.950 . S
H1311 C1320 0.950 . S
H1312 C1322 0.950 . S
H1313 C1324 0.950 . S
H1314 C1326 0.950 . S
H1315 C1327 0.950 . S
C1316 H1308 0.950 . S
C1316 C1317 1.386 . S
C1316 C1318 1.391 . S
C1317 C1316 1.386 . S
C1317 C1321 1.393 . S
C1318 H1310 0.950 . S
C1318 C1316 1.391 . S
C1318 C1319 1.400 . S
C1319 C1318 1.400 . S
C1319 C1320 1.398 . S
C1319 C1325 1.491 . S
C1320 H1311 0.950 . S
C1320 C1319 1.398 . S
C1320 C1321 1.391 . S
C1321 H1309 0.950 . S
C1321 C1317 1.393 . S
C1321 C1320 1.391 . S
C1322 H1312 0.950 . S
C1322 C1323 1.386 . S
C1322 C1324 1.391 . S
C1323 C1322 1.386 . S
C1323 C1327 1.393 . S
C1324 H1313 0.950 . S
C1324 C1322 1.391 . S
C1324 C1325 1.400 . S
C1325 C1319 1.491 . S
C1325 C1324 1.400 . S
C1325 C1326 1.398 . S
C1326 H1314 0.950 . S
C1326 C1325 1.398 . S
C1326 C1327 1.391 . S
C1327 H1315 0.950 . S
C1327 C1323 1.393 . S
C1327 C1326 1.391 . S
C537 C28 1.520 . S
C543 C160 1.522 . S
C557 C193 1.509 . S
C563 C61 1.515 . S
C577 C226 1.520 . S
C583 C94 1.522 . S
C597 C259 1.524 . S
C603 C127 1.513 . S
C617 C292 1.523 . S
C623 C424 1.519 . S
C637 C325 1.522 . S
C643 C457 1.520 . S
C657 C490 1.513 . S
C663 C358 1.510 . S
C677 C391 1.524 . S
C683 C523 1.515 . S
C697 N401 1.314 . S
C703 N14 1.298 . S
C717 N434 1.319 . S
C723 N47 1.309 . S
C737 N80 1.294 . S
C743 N467 1.324 . S
C757 N500 1.326 . S
C763 N113 1.305 . S
C777 N269 1.320 . S
C783 N146 1.310 . S
C797 N302 1.325 . S
C803 N179 1.297 . S
C817 N212 1.310 . S
C823 N335 1.325 . S
C837 N245 1.289 . S
C843 N368 1.320 . S
C857 N137 1.314 . S
C863 N278 1.294 . S
C877 N170 1.317 . S
C883 N311 1.307 . S
C897 N203 1.325 . S
C903 N344 1.298 . S
C917 N377 1.291 . S
C923 N236 1.322 . S
C937 N5 1.316 . S
C943 N410 1.288 . S
C957 N38 1.316 . S
C963 N443 1.289 . S
C977 N476 1.310 . S
C983 N71 1.319 . S
C997 N104 1.314 . S
C1003 N509 1.297 . S
C1017 C83 1.374 . S
C1023 C17 1.366 . S
C1037 C50 1.375 . S
C1043 C116 1.362 . S
C1057 C215 1.361 . S
C1063 C149 1.369 . S
C1077 C248 1.365 . S
C1083 C182 1.374 . S
C1097 C347 1.360 . S
C1103 C281 1.371 . S
C1117 C380 1.360 . S
C1123 C314 1.371 . S
C1137 C413 1.360 . S
C1143 C479 1.371 . S
C1157 C512 1.375 . S
C1163 C446 1.364 . S
C1177 C239 1.048 . S
C1183 C8 1.067 . S
C1197 C140 1.072 . S
C1203 C41 1.060 . S
C1217 C173 1.073 . S
C1223 C74 1.055 . S
C1237 C206 1.073 . S
C1243 C107 1.057 . S
C1257 C503 1.069 . S
C1263 C272 1.048 . S
C1277 C404 1.069 . S
C1283 C305 1.064 . S
C1297 C437 1.059 . S
C1303 C338 1.073 . S
C1317 C470 1.059 . S
C1323 C371 1.073 . S
