# Generated by pormake.
# Topology snp, (6)-cn, num edge types: 1
# Building blocks:
#     Node 0, Type 0, BuildingBlock: VOLQOD_clean_sbu_1, # of connection points: 6
#     Node 1, Type 0, BuildingBlock: VOLQOD_clean_sbu_1, # of connection points: 6
#     Node 2, Type 0, BuildingBlock: VOLQOD_clean_sbu_1, # of connection points: 6
#     Node 3, Type 0, BuildingBlock: VOLQOD_clean_sbu_1, # of connection points: 6
#     Edge 4, Type (0, 0), BuildingBlock: ZUJKAS_clean_linker_0, # of connection points: 2
#     Edge 5, Type (0, 0), BuildingBlock: ZUJKAS_clean_linker_0, # of connection points: 2
#     Edge 6, Type (0, 0), BuildingBlock: ZUJKAS_clean_linker_0, # of connection points: 2
#     Edge 7, Type (0, 0), BuildingBlock: ZUJKAS_clean_linker_0, # of connection points: 2
#     Edge 8, Type (0, 0), BuildingBlock: ZUJKAS_clean_linker_0, # of connection points: 2
#     Edge 9, Type (0, 0), BuildingBlock: ZUJKAS_clean_linker_0, # of connection points: 2
#     Edge 10, Type (0, 0), BuildingBlock: ZUJKAS_clean_linker_0, # of connection points: 2
#     Edge 11, Type (0, 0), BuildingBlock: ZUJKAS_clean_linker_0, # of connection points: 2
#     Edge 12, Type (0, 0), BuildingBlock: ZUJKAS_clean_linker_0, # of connection points: 2
#     Edge 13, Type (0, 0), BuildingBlock: ZUJKAS_clean_linker_0, # of connection points: 2
#     Edge 14, Type (0, 0), BuildingBlock: ZUJKAS_clean_linker_0, # of connection points: 2
#     Edge 15, Type (0, 0), BuildingBlock: ZUJKAS_clean_linker_0, # of connection points: 2
# Relax obj value: 0.789
# Max RMSD: 0.301
# Mean RMSD: 0.301
data_MOF--net-snp--node1-VOLQOD_clean_sbu_1--edge1-ZUJKAS_clean_linker_0
_symmetry_space_group_name_H-M    P1
_symmetry_Int_Tables_number       1
_symmetry_cell_setting            triclinic
loop_
_symmetry_equiv_pos_as_xyz
'x, y, z'
_cell_length_a     36.891087
_cell_length_b     36.832018
_cell_length_c     31.360962
_cell_angle_alpha  90.167241
_cell_angle_beta   89.943157
_cell_angle_gamma 101.87665
loop_
_atom_site_label
_atom_site_type_symbol
_atom_site_fract_x
_atom_site_fract_y
_atom_site_fract_z
_atom_type_partial_charge
O0 O 0.19458 0.12689 0.01464 0.0
Zn1 Zn 0.23621 0.10054 0.0174 0.0
O2 O 0.28308 0.136 0.01738 0.0
Zn3 Zn 0.31059 0.12944 0.96534 0.0
Zn4 Zn 0.2746 0.18667 0.01905 0.0
Zn5 Zn 0.30985 0.12714 0.06845 0.0
O6 O 0.35841 0.11414 0.98096 0.0
O7 O 0.35716 0.11281 0.05193 0.0
O8 O 0.23077 0.06788 0.9659 0.0
O9 O 0.28141 0.08873 0.9279 0.0
O10 O 0.31912 0.17608 0.92908 0.0
O11 O 0.29906 0.21666 0.97056 0.0
O12 O 0.29211 0.2125 0.07408 0.0
O13 O 0.22883 0.06789 0.06865 0.0
O14 O 0.31943 0.17179 0.10658 0.0
O15 O 0.28096 0.08568 0.10486 0.0
C16 C 0.19198 0.16056 0.01069 0.0
C17 C 0.37276 0.10827 0.01664 0.0
C18 C 0.31342 0.20862 0.93585 0.0
C19 C 0.25024 0.06661 0.93268 0.0
C20 C 0.31005 0.20315 0.10544 0.0
C21 C 0.24898 0.06495 0.10076 0.0
O22 O 0.22034 0.18689 0.0105 0.0
O23 O 0.0353 0.14422 0.5404 0.0
Zn24 Zn 0.0077 0.18193 0.51993 0.0
O25 O 0.03837 0.23091 0.52391 0.0
Zn26 Zn 0.02277 0.25828 0.57171 0.0
Zn27 Zn 0.08901 0.22705 0.53532 0.0
Zn28 Zn 0.03516 0.25469 0.46938 0.0
O29 O 0.0131 0.30615 0.54917 0.0
O30 O 0.02381 0.305 0.47933 0.0
O31 O 0.9649 0.17776 0.56005 0.0
O32 O 0.97624 0.229 0.59952 0.0
O33 O 0.06353 0.2728 0.61647 0.0
O34 O 0.11179 0.26286 0.57959 0.0
O35 O 0.12115 0.23885 0.48366 0.0
O36 O 0.98652 0.16925 0.46142 0.0
O37 O 0.08414 0.26111 0.43901 0.0
O38 O -0.00315 0.22426 0.42997 0.0
C39 C 0.06657 0.14653 0.55845 0.0
C40 C 0.01538 0.32145 0.51259 0.0
C41 C 0.09842 0.27602 0.61208 0.0
C42 C 0.9562 0.19742 0.59033 0.0
C43 C 0.11532 0.25344 0.44825 0.0
C44 C 0.98211 0.18977 0.43004 0.0
O45 O 0.0901 0.17703 0.56067 0.0
O46 O 0.8257 -0.0002 0.95504 0.0
Zn47 Zn 0.77644 0.98902 0.98248 0.0
O48 O 0.7614 0.93616 0.98799 0.0
Zn49 Zn 0.72481 0.92058 0.94425 0.0
Zn50 Zn 0.80263 0.9121 0.98008 0.0
Zn51 Zn 0.74113 0.9262 0.04413 0.0
O52 O 0.67453 0.91452 0.97092 0.0
O53 O 0.68569 0.91904 0.04074 0.0
O54 O 0.74443 0.0106 0.94233 0.0
O55 O 0.73008 0.96138 0.90024 0.0
O56 O 0.73207 0.87349 0.91485 0.0
O57 O 0.78929 0.87238 0.93596 0.0
O58 O 0.81071 0.88436 0.03335 0.0
O59 O 0.78319 0.015 0.03935 0.0
O60 O 0.75799 0.88235 0.0689 0.0
O61 O 0.76095 0.96915 0.08382 0.0
C62 C 0.85175 0.98256 0.94899 0.0
C63 C 0.66323 0.91515 0.00933 0.0
C64 C 0.76059 0.85895 0.91406 0.0
C65 C 0.73514 -0.00362 0.90588 0.0
C66 C 0.78844 0.87166 0.06349 0.0
C67 C 0.7768 0.00278 0.07714 0.0
O68 O 0.84865 0.9487 0.95995 0.0
O69 O 0.97196 0.86797 0.52827 0.0
Zn70 Zn 0.01307 0.84126 0.5177 0.0
O71 O -0.00522 0.78846 0.51839 0.0
Zn72 Zn 0.00984 0.76686 0.57001 0.0
Zn73 Zn 0.94121 0.77822 0.51867 0.0
Zn74 Zn 0.01237 0.76802 0.46766 0.0
O75 O 0.03234 0.72348 0.55408 0.0
O76 O 0.03333 0.72393 0.4831 0.0
O77 O 0.04815 0.85601 0.56636 0.0
O78 O 0.0461 0.80472 0.60411 0.0
O79 O 0.96497 0.74715 0.60691 0.0
O80 O 0.92006 0.73729 0.55879 0.0
O81 O 0.92097 0.76533 0.45983 0.0
O82 O 0.04113 0.85872 0.46424 0.0
O83 O 0.9701 0.75219 0.4269 0.0
O84 O 0.04996 0.806 0.43572 0.0
C85 C 0.93921 0.85673 0.54238 0.0
C86 C 0.03953 0.70955 0.51856 0.0
C87 C 0.93154 0.73346 0.59641 0.0
C88 C 0.05835 0.83933 0.59827 0.0
C89 C 0.93597 0.75397 0.42712 0.0
C90 C 0.05605 0.84135 0.43628 0.0
O91 O 0.92404 0.82245 0.543 0.0
H92 H 0.86056 0.04388 0.8992 0.0
H93 H 0.91827 0.08793 0.8848 0.0
H94 H 0.97962 0.01483 0.9461 0.0
H95 H 0.92187 0.97037 0.96035 0.0
H96 H 0.95752 0.11946 0.95372 0.0
H97 H 0.04843 0.05734 0.84825 0.0
H98 H -0.00118 0.04051 0.85029 0.0
H99 H 0.02843 0.02574 0.88939 0.0
C100 C 0.88646 0.03671 0.9086 0.0
C101 C 0.88679 0.00405 0.93166 0.0
C102 C 0.91938 0.06185 0.90011 0.0
C103 C 0.95316 0.05466 0.91433 0.0
C104 C 0.95386 0.02061 0.93416 0.0
H105 H 0.128 0.13994 0.05406 0.0
H106 H 0.06641 0.12873 0.02213 0.0
C107 C 0.92085 -0.00471 0.94254 0.0
C108 C 0.98624 0.08504 0.91613 0.0
H109 H 0.07952 0.10252 0.90045 0.0
C110 C 0.98406 0.11637 0.94091 0.0
C111 C 0.02066 0.08135 0.89889 0.0
C112 C 0.02418 0.04958 0.86983 0.0
C113 C 0.01604 0.14203 0.95264 0.0
C114 C 0.05084 0.136 0.93936 0.0
C115 C 0.05269 0.10694 0.91084 0.0
C116 C 0.08519 0.15376 0.9615 0.0
C117 C 0.0126 0.17394 0.98152 0.0
C118 C 0.11576 0.17319 0.93863 0.0
C119 C 0.15091 0.1804 0.95734 0.0
C120 C 0.15571 0.1673 -0.00146 0.0
C121 C 0.12468 0.1508 0.02254 0.0
C122 C 0.08957 0.14436 0.00424 0.0
H123 H 0.98541 0.18198 0.9773 0.0
H124 H 0.01461 0.1654 0.0152 0.0
H125 H 0.0351 0.19846 0.9754 0.0
H126 H 0.11289 0.18022 0.90545 0.0
H127 H 0.17471 0.19246 0.93803 0.0
H128 H 0.93697 0.92811 0.52471 0.0
H129 H 0.94726 0.97629 0.57896 0.0
H130 H 0.92299 0.89326 0.67743 0.0
H131 H 0.91215 0.84471 0.62273 0.0
H132 H 0.92265 0.00256 0.6604 0.0
H133 H 0.0375 0.92656 0.67911 0.0
H134 H 0.00635 0.91347 0.63491 0.0
H135 H 0.98998 0.90448 0.68866 0.0
C136 C 0.93138 0.92025 0.55772 0.0
C137 C 0.92464 0.88287 0.56965 0.0
C138 C 0.9374 0.9478 0.5889 0.0
C139 C 0.93715 0.93819 0.63227 0.0
C140 C 0.92395 0.90115 0.64415 0.0
H141 H 0.07873 0.14931 0.64349 0.0
H142 H 0.05483 0.09767 0.6919 0.0
C143 C 0.9174 0.87347 0.61276 0.0
C144 C 0.96031 0.96515 0.66122 0.0
H145 H 0.05402 0.99151 0.67034 0.0
C146 C 0.95113 7e-05 0.6654 0.0
C147 C -0.00268 0.96169 0.66904 0.0
C148 C 0.00857 0.92455 0.668 0.0
C149 C 0.97901 0.03226 0.66769 0.0
C150 C 0.01652 0.02885 0.66562 0.0
C151 C 0.02519 0.99389 0.67092 0.0
C152 C 0.04309 0.05677 0.64153 0.0
C153 C 0.96828 0.06956 0.66478 0.0
C154 C 0.04689 0.05012 0.59777 0.0
C155 C 0.06002 0.07942 0.5702 0.0
C156 C 0.07023 0.11558 0.58619 0.0
C157 C 0.07149 0.12143 0.63058 0.0
C158 C 0.05756 0.09209 0.65825 0.0
H159 H 0.9383 0.06765 0.67115 0.0
H160 H 0.98449 0.08917 0.68804 0.0
H161 H 0.9746 0.0812 0.63235 0.0
H162 H 0.03574 0.02299 0.58428 0.0
H163 H 0.05843 0.07443 0.53611 0.0
H164 H 0.63117 0.92841 0.08501 0.0
H165 H 0.57499 0.95303 0.09305 0.0
H166 H 0.55253 0.93655 0.95867 0.0
H167 H 0.60812 0.91139 0.95033 0.0
H168 H 0.57414 0.01749 0.04961 0.0
H169 H 0.44906 0.91164 0.00944 0.0
H170 H 0.49239 0.89962 0.02443 0.0
H171 H 0.48534 0.91392 0.97078 0.0
C172 C 0.61356 0.92865 0.05744 0.0
C173 C 0.62456 0.91868 0.01683 0.0
C174 C 0.58148 0.94279 0.06214 0.0
C175 C 0.55977 0.94676 0.02644 0.0
C176 C 0.56863 0.9333 0.98674 0.0
H177 H 0.40549 0.07983 0.94944 0.0
H178 H 0.45274 0.04207 0.9533 0.0
C179 C 0.60065 0.91912 0.982 0.0
C180 C 0.53246 0.97088 0.02877 0.0
H181 H 0.44362 0.97542 0.00366 0.0
C182 C 0.54542 0.00817 0.04026 0.0
C183 C 0.49524 0.95869 0.01599 0.0
C184 C 0.47957 0.91868 0.00485 0.0
C185 C 0.52241 0.03396 0.03802 0.0
C186 C 0.48543 0.02192 0.02441 0.0
C187 C 0.47219 0.98451 0.01369 0.0
C188 C 0.45977 0.04765 0.02163 0.0
C189 C 0.53815 0.07406 0.04885 0.0
C190 C 0.44891 0.06383 0.0587 0.0
C191 C 0.42214 0.08551 0.05664 0.0
C192 C 0.40559 0.09114 0.01746 0.0
C193 C 0.41778 0.07617 0.98008 0.0
C194 C 0.44454 0.0544 0.98222 0.0
H195 H 0.56893 0.08026 0.04902 0.0
H196 H 0.52848 0.09284 0.0258 0.0
H197 H 0.52853 0.08026 0.08108 0.0
H198 H 0.46015 0.05859 0.08944 0.0
H199 H 0.4134 0.09662 0.08605 0.0
H200 H 0.00066 0.36616 0.57712 0.0
H201 H 0.00649 0.43317 0.57508 0.0
H202 H 0.03001 0.43322 0.44033 0.0
H203 H 0.02487 0.366 0.44202 0.0
H204 H 0.08242 0.48264 0.48732 0.0
H205 H 0.93992 0.49846 0.52679 0.0
H206 H 0.95793 0.46955 0.56375 0.0
H207 H 0.95022 0.45499 0.50912 0.0
C208 C 0.00636 0.38021 0.54681 0.0
C209 C 0.01252 0.36074 0.50976 0.0
C210 C 0.00953 0.41852 0.54572 0.0
C211 C 0.01846 0.43796 0.50752 0.0
C212 C 0.02306 0.41853 0.47008 0.0
H213 H 0.05693 0.67092 0.44955 0.0
H214 H 0.05816 0.60497 0.44733 0.0
C215 C 0.01996 0.38015 0.47112 0.0
C216 C 0.02591 0.4788 0.50763 0.0
H217 H 0.98774 0.55273 0.53307 0.0
C218 C 0.06168 0.49807 0.49691 0.0
C219 C -0.00125 0.49861 0.52032 0.0
C220 C 0.95945 0.47938 0.53026 0.0
C221 C 0.07126 0.53686 0.49956 0.0
C222 C 0.04428 0.55651 0.51307 0.0
C223 C 0.00844 0.53729 0.52328 0.0
C224 C 0.05185 0.59724 0.51547 0.0
C225 C 0.1102 0.55653 0.48881 0.0
C226 C 0.04912 0.61472 0.55473 0.0
C227 C 0.04835 0.65237 0.5562 0.0
C228 C 0.04978 0.67289 0.51826 0.0
C229 C 0.0555 0.65584 0.47932 0.0
C230 C 0.05639 0.6182 0.47795 0.0
H231 H 0.12954 0.53709 0.48729 0.0
H232 H 0.11022 0.5701 0.45726 0.0
H233 H 0.12062 0.57848 0.51274 0.0
H234 H 0.04556 0.59877 0.58397 0.0
H235 H 0.04412 0.66467 0.58674 0.0
H236 H 0.1127 0.23343 0.36533 0.0
H237 H 0.16304 0.24595 0.31343 0.0
H238 H 0.23484 0.30869 0.40839 0.0
H239 H 0.18508 0.29316 0.46138 0.0
H240 H 0.1989 0.30521 0.27952 0.0
H241 H 0.30157 0.24489 0.37078 0.0
H242 H 0.25446 0.24036 0.38854 0.0
H243 H 0.28717 0.28355 0.39548 0.0
C244 C 0.1394 0.24957 0.37504 0.0
C245 C 0.14547 0.26192 0.41714 0.0
C246 C 0.16811 0.25696 0.34544 0.0
C247 C 0.20311 0.27785 0.35704 0.0
C248 C 0.20865 0.29149 0.39892 0.0
H249 H 0.31814 0.27869 0.11327 0.0
H250 H 0.3075 0.31219 0.17833 0.0
C251 C 0.18022 0.28287 0.42905 0.0
C252 C 0.2332 0.28424 0.32473 0.0
H253 H 0.31636 0.26241 0.30068 0.0
C254 C 0.22476 0.29607 0.28412 0.0
C255 C 0.26744 0.27337 0.33121 0.0
C256 C 0.27823 0.2596 0.37372 0.0
C257 C 0.24679 0.29238 0.2486 0.0
C258 C 0.27982 0.27891 0.25449 0.0
C259 C 0.29084 0.2722 0.29614 0.0
C260 C 0.29803 0.26332 0.21846 0.0
C261 C 0.23212 0.2993 0.20503 0.0
C262 C 0.30087 0.22589 0.22049 0.0
C263 C 0.30891 0.20736 0.18412 0.0
C264 C 0.31323 0.22559 0.14469 0.0
C265 C 0.31418 0.2639 0.14327 0.0
C266 C 0.30762 0.2829 0.18029 0.0
H267 H 0.20326 0.30378 0.20633 0.0
H268 H 0.24965 0.32454 0.19103 0.0
H269 H 0.23247 0.27546 0.18341 0.0
H270 H 0.29397 0.21 0.24947 0.0
H271 H 0.30813 0.17784 0.18625 0.0
H272 H 0.90816 0.13106 0.57947 0.0
H273 H 0.85904 0.10143 0.62745 0.0
H274 H 0.88137 0.19722 0.71003 0.0
H275 H 0.93073 0.22746 0.66194 0.0
H276 H 0.87459 0.08671 0.71273 0.0
H277 H 0.76656 0.17158 0.70193 0.0
H278 H 0.80154 0.17234 0.66135 0.0
H279 H 0.8131 0.19697 0.71059 0.0
C280 C 0.90232 0.14625 0.60741 0.0
C281 C 0.92359 0.18164 0.61694 0.0
C282 C 0.87413 0.12923 0.63474 0.0
C283 C 0.86636 0.14727 0.672 0.0
C284 C 0.88651 0.18313 0.68098 0.0
H285 H 0.75513 0.07223 0.90483 0.0
H286 H 0.781 0.11018 0.84412 0.0
C287 C 0.91486 0.20026 0.65359 0.0
C288 C 0.84023 0.12673 0.70361 0.0
H289 H 0.75906 0.12586 0.75654 0.0
C290 C 0.84915 0.09505 0.72202 0.0
C291 C 0.80733 0.138 0.71585 0.0
C292 C 0.79626 0.17142 0.69624 0.0
C293 C 0.82634 0.07456 0.75293 0.0
C294 C 0.79322 0.08556 0.76499 0.0
C295 C 0.78424 0.11731 0.74671 0.0
C296 C 0.76909 0.06523 0.79846 0.0
C297 C 0.83848 0.04194 0.77341 0.0
C298 C 0.75171 0.02799 0.7922 0.0
C299 C 0.73698 0.00608 0.82686 0.0
C300 C 0.73947 0.02118 0.86828 0.0
C301 C 0.75311 0.05956 0.87347 0.0
C302 C 0.76791 0.08139 0.83879 0.0
H303 H 0.86803 0.04178 0.76675 0.0
H304 H 0.83447 0.04223 0.80851 0.0
H305 H 0.82144 0.01577 0.76072 0.0
H306 H 0.75193 0.01524 0.76105 0.0
H307 H 0.72632 0.97675 0.8216 0.0
H308 H 0.86578 0.76401 0.41111 0.0
H309 H 0.8363 0.76371 0.34154 0.0
H310 H 0.92814 0.72675 0.28276 0.0
H311 H 0.95814 0.72735 0.35213 0.0
H312 H 0.91739 0.79327 0.25279 0.0
H313 H 0.78446 0.69126 0.25117 0.0
H314 H 0.79008 0.71971 0.29822 0.0
H315 H 0.82114 0.68877 0.28855 0.0
C316 C 0.87927 0.75478 0.38362 0.0
C317 C 0.91462 0.74635 0.38707 0.0
C318 C 0.86217 0.75428 0.34387 0.0
C319 C 0.87994 0.74496 0.30707 0.0
C320 C 0.91391 0.73382 0.31087 0.0
H321 H 0.84088 0.82955 0.05339 0.0
H322 H 0.86195 0.79027 0.10687 0.0
C323 C 0.93107 0.73439 0.35055 0.0
C324 C 0.86669 0.75379 0.26467 0.0
H325 H 0.78966 0.74266 0.20204 0.0
C326 C 0.88978 0.78159 0.24106 0.0
C327 C 0.83061 0.73864 0.2498 0.0
C328 C 0.80527 0.70767 0.27309 0.0
C329 C 0.87696 0.79653 0.20445 0.0
C330 C 0.84028 0.7825 0.19046 0.0
C331 C 0.81777 0.75332 0.21285 0.0
C332 C 0.82376 0.80066 0.15565 0.0
C333 C 0.90201 0.82893 0.18291 0.0
C334 C 0.79401 0.81778 0.16469 0.0
C335 C 0.78157 0.83975 0.13409 0.0
C336 C 0.79893 0.84521 0.09404 0.0
C337 C 0.82743 0.8264 0.08427 0.0
C338 C 0.8395 0.80398 0.11474 0.0
H339 H 0.92626 0.84118 0.20301 0.0
H340 H 0.9126 0.81937 0.15266 0.0
H341 H 0.88667 0.85105 0.17526 0.0
H342 H 0.78146 0.81549 0.19608 0.0
H343 H 0.75941 0.8537 0.14251 0.0
H344 H 0.08926 0.91337 0.59572 0.0
H345 H 0.12672 0.95074 0.6503 0.0
H346 H 0.12064 0.85341 0.72824 0.0
H347 H 0.08335 0.8155 0.67351 0.0
H348 H 0.10472 0.96022 0.73296 0.0
H349 H 0.23145 0.90103 0.73018 0.0
H350 H 0.19761 0.89337 0.68778 0.0
H351 H 0.18914 0.86719 0.73635 0.0
C352 C 0.09627 0.89968 0.62416 0.0
C353 C 0.08335 0.86133 0.63014 0.0
C354 C 0.11767 0.92117 0.65535 0.0
C355 C 0.12683 0.90478 0.69304 0.0
C356 C 0.11449 0.86647 0.69898 0.0
H357 H 0.18618 0.014 0.93383 0.0
H358 H 0.15785 0.97476 0.87508 0.0
C359 C 0.09302 0.84488 0.66774 0.0
C360 C 0.14727 0.92828 0.72718 0.0
H361 H 0.2258 0.94186 0.78777 0.0
C362 C 0.13128 0.95633 0.74482 0.0
C363 C 0.18209 0.9234 0.74217 0.0
C364 C 0.20133 0.89486 0.72292 0.0
C365 C 0.14881 0.97917 0.77776 0.0
C366 C 0.18298 0.97338 0.79386 0.0
C367 C 0.19943 0.94593 0.77557 0.0
C368 C 0.20167 -0.00462 0.83009 0.0
C369 C 0.13074 0.00949 0.79479 0.0
C370 C 0.23644 0.01893 0.82468 0.0
C371 C 0.25293 0.04139 0.85837 0.0
C372 C 0.23491 0.04049 0.89804 0.0
C373 C 0.20073 0.0157 0.90366 0.0
C374 C 0.18436 0.99333 0.87005 0.0
H375 H 0.11014 0.01642 0.77201 0.0
H376 H 0.11604 5e-05 0.82493 0.0
H377 H 0.15173 0.03506 0.80173 0.0
H378 H 0.25033 0.02066 0.79408 0.0
H379 H 0.27929 0.06008 0.85297 0.0
H380 H 0.71194 0.82968 0.85033 0.0
H381 H 0.72042 0.78316 0.79719 0.0
H382 H 0.82109 0.77083 0.86019 0.0
H383 H 0.81246 0.8161 0.91343 0.0
H384 H 0.77722 0.7961 0.74477 0.0
H385 H 0.78184 0.66552 0.82673 0.0
H386 H 0.76177 0.70127 0.85124 0.0
H387 H 0.81093 0.70297 0.85462 0.0
C388 C 0.73528 0.81623 0.85349 0.0
C389 C 0.7618 0.82698 0.88576 0.0
C390 C 0.74002 0.78957 0.8232 0.0
C391 C 0.77111 0.77305 0.82499 0.0
C392 C 0.79633 0.78227 0.85868 0.0
H393 H 0.94183 0.7348 0.68285 0.0
H394 H 0.89343 0.73134 0.73658 0.0
C395 C 0.79164 0.80874 0.88882 0.0
C396 C 0.78148 0.75198 0.78817 0.0
H397 H 0.82402 0.68031 0.76475 0.0
C398 C 0.78619 0.77004 0.74863 0.0
C399 C 0.79316 0.71796 0.79317 0.0
C400 C 0.78623 0.69571 0.83371 0.0
C401 C 0.80572 0.75716 0.71548 0.0
C402 C 0.82038 0.72498 0.7219 0.0
C403 C 0.81295 0.7051 0.76008 0.0
C404 C 0.84812 0.71561 0.69207 0.0
C405 C 0.81334 0.77996 0.67524 0.0
C406 C 0.83856 0.70549 0.64982 0.0
C407 C 0.86619 0.70765 0.61889 0.0
C408 C 0.90375 0.71995 0.6299 0.0
C409 C 0.91322 0.72564 0.67317 0.0
C410 C 0.88556 0.72357 0.70401 0.0
H411 H 0.80347 0.80644 0.67745 0.0
H412 H 0.8435 0.78647 0.66824 0.0
H413 H 0.79908 0.76383 0.64796 0.0
H414 H 0.80976 0.6988 0.64019 0.0
H415 H 0.85793 0.70248 0.58593 0.0
H416 H 0.27563 0.06027 0.18181 0.0
H417 H 0.24685 0.01929 0.23918 0.0
H418 H 0.1599 0.96776 0.15343 0.0
H419 H 0.18791 0.00896 0.09633 0.0
H420 H 0.13294 0.98989 0.22693 0.0
H421 H 0.24119 0.90967 0.26222 0.0
H422 H 0.25753 0.95906 0.26395 0.0
H423 H 0.24162 0.93685 0.21433 0.0
C424 C 0.25069 0.03984 0.17501 0.0
C425 C 0.23399 0.038 0.13454 0.0
C426 C 0.23438 0.0163 0.20779 0.0
C427 C 0.20143 0.99021 0.20045 0.0
C428 C 0.18535 0.98766 0.15976 0.0
H429 H 0.08687 0.81473 0.36618 0.0
H430 H 0.12336 0.85081 0.30964 0.0
C431 C 0.20141 0.01128 0.12716 0.0
C432 C 0.18195 0.96752 0.23576 0.0
H433 H 0.19092 0.90332 0.3113 0.0
C434 C 0.1456 0.97086 0.24527 0.0
C435 C 0.19839 0.94248 0.25937 0.0
C436 C 0.2367 0.93644 0.24927 0.0
C437 C 0.12529 0.95011 0.27795 0.0
C438 C 0.1421 0.92595 0.30246 0.0
C439 C 0.17829 0.92219 0.29269 0.0
C440 C 0.12219 0.90414 0.33806 0.0
C441 C 0.08576 0.95379 0.28542 0.0
C442 C 0.11022 0.9222 0.37318 0.0
C443 C 0.08923 0.90176 0.40537 0.0
C444 C 0.08007 0.86277 0.40325 0.0
C445 C 0.09329 0.8447 0.36874 0.0
C446 C 0.1142 0.86524 0.33643 0.0
H447 H 0.07413 0.96564 0.25726 0.0
H448 H 0.06779 0.92648 0.29292 0.0
H449 H 0.08487 0.97264 0.31289 0.0
H450 H 0.11675 0.95219 0.37543 0.0
H451 H 0.07989 0.9166 0.43169 0.0
H452 H 0.08253 0.28843 0.69597 0.0
H453 H 0.12695 0.29907 0.75505 0.0
H454 H 0.21702 0.30565 0.66562 0.0
H455 H 0.17338 0.29651 0.60695 0.0
H456 H 0.16548 0.24919 0.77198 0.0
H457 H 0.26576 0.38083 0.74976 0.0
H458 H 0.22189 0.37075 0.72211 0.0
H459 H 0.26137 0.35471 0.70111 0.0
C460 C 0.11188 0.29357 0.68887 0.0
C461 C 0.12437 0.291 0.64685 0.0
C462 C 0.13726 0.29961 0.72265 0.0
C463 C 0.17543 0.30334 0.71485 0.0
C464 C 0.18794 0.30373 0.67261 0.0
H465 H 0.31776 0.19369 0.8506 0.0
H466 H 0.29033 0.22517 0.79459 0.0
C467 C 0.16275 0.29794 0.639 0.0
C468 C 0.20126 0.2995 0.75002 0.0
H469 H 0.28942 0.33175 0.78653 0.0
C470 C 0.19221 0.26778 0.77569 0.0
C471 C 0.23623 0.32369 0.75509 0.0
C472 C 0.24664 0.35958 0.73078 0.0
C473 C 0.21774 0.25852 0.80451 0.0
C474 C 0.25365 0.28109 0.80708 0.0
C475 C 0.2622 0.31397 0.78341 0.0
C476 C 0.28186 0.27036 0.83501 0.0
C477 C 0.20631 0.22412 0.83149 0.0
C478 C 0.28907 0.28724 0.875 0.0
C479 C 0.30496 0.26943 0.90711 0.0
C480 C 0.31336 0.23431 0.89961 0.0
C481 C 0.31126 0.22044 0.85766 0.0
C482 C 0.29542 0.23834 0.82557 0.0
H483 H 0.17574 0.21429 0.83222 0.0
H484 H 0.21872 0.20155 0.8181 0.0
H485 H 0.21639 0.22938 0.86474 0.0
H486 H 0.27901 0.31212 0.8827 0.0
H487 H 0.30682 0.28121 0.93892 0.0
H488 H 0.8218 0.07191 0.07477 0.0
H489 H 0.85382 0.10739 0.13463 0.0
H490 H 0.7989 0.02393 0.22215 0.0
H491 H 0.76681 0.98792 0.16253 0.0
H492 H 0.80649 0.11027 0.24286 0.0
H493 H 0.93478 0.05884 0.20472 0.0
H494 H 0.91014 0.07521 0.16164 0.0
H495 H 0.88937 0.03359 0.18927 0.0
C496 C 0.81595 0.0613 0.10677 0.0
C497 C 0.79183 0.02687 0.11376 0.0
C498 C 0.83437 0.08163 0.1409 0.0
C499 C 0.82883 0.06809 0.18262 0.0
C500 C 0.80348 0.03475 0.19007 0.0
H501 H 0.95467 0.11617 0.41439 0.0
H502 H 0.91691 0.08843 0.35408 0.0
C503 C 0.7852 0.01424 0.15594 0.0
C504 C 0.8514 0.08739 0.21808 0.0
H505 H 0.93752 0.10008 0.26266 0.0
C506 C 0.83518 0.10826 0.24719 0.0
C507 C 0.88868 0.08437 0.2236 0.0
C508 C 0.90698 0.0617 0.1934 0.0
C509 C 0.85549 0.12636 0.28183 0.0
C510 C 0.89282 0.1234 0.28728 0.0
C511 C 0.90894 0.10242 0.25819 0.0
C512 C 0.91529 0.14076 0.32389 0.0
C513 C 0.83681 0.14791 0.31291 0.0
C514 C 0.92716 0.17941 0.32661 0.0
C515 C 0.94904 0.19544 0.36095 0.0
C516 C 0.95926 0.17305 0.39326 0.0
C517 C 0.94725 0.1343 0.39024 0.0
C518 C 0.92568 0.11834 0.35577 0.0
H519 H 0.80637 0.14291 0.30786 0.0
H520 H 0.8423 0.14035 0.3462 0.0
H521 H 0.84833 0.17801 0.309 0.0
H522 H 0.91974 0.19713 0.302 0.0
H523 H 0.95778 0.22536 0.36224 0.0
loop_
_geom_bond_atom_site_label_1
_geom_bond_atom_site_label_2
_geom_bond_distance
_geom_bond_site_symmetry_2
_ccdc_geom_bond_type
O0 Zn1 1.953 . S
O0 C16 1.225 . S
Zn1 O0 1.953 . S
Zn1 O2 1.949 . S
Zn1 O8 1.919 1_544 S
Zn1 O13 1.924 1_545 S
O2 Zn1 1.949 . S
O2 Zn3 1.923 1_554 S
O2 Zn4 1.950 . S
O2 Zn5 1.945 . S
Zn3 O2 1.923 1_556 S
Zn3 O6 1.933 . S
Zn3 O9 1.941 . S
Zn3 O10 1.965 . S
Zn4 O2 1.950 . S
Zn4 O11 1.938 1_554 S
Zn4 O12 1.906 . S
Zn4 O22 1.953 . S
Zn5 O2 1.945 . S
Zn5 O7 1.932 . S
Zn5 O14 1.977 . S
Zn5 O15 1.910 . S
O6 Zn3 1.933 . S
O6 C17 1.226 1_556 S
O7 Zn5 1.932 . S
O7 C17 1.307 . S
O8 Zn1 1.919 1_566 S
O8 C19 1.253 . S
O9 Zn3 1.941 . S
O9 C19 1.283 1_545 S
O10 Zn3 1.965 . S
O10 C18 1.303 . S
O11 Zn4 1.938 1_556 S
O11 C18 1.247 . S
O12 Zn4 1.906 . S
O12 C20 1.304 . S
O13 Zn1 1.924 1_565 S
O13 C21 1.311 . S
O14 Zn5 1.977 . S
O14 C20 1.272 . S
O15 Zn5 1.910 . S
O15 C21 1.231 1_545 S
C16 O0 1.225 . S
C16 O22 1.298 . S
C17 O6 1.226 1_554 S
C17 O7 1.307 . S
C18 O10 1.303 . S
C18 O11 1.247 . S
C19 O8 1.253 . S
C19 O9 1.283 1_565 S
C20 O12 1.304 . S
C20 O14 1.272 . S
C21 O13 1.311 . S
C21 O15 1.231 1_565 S
O22 Zn4 1.953 . S
O22 C16 1.298 . S
O23 Zn24 1.953 . S
O23 C39 1.225 . S
Zn24 O23 1.953 . S
Zn24 O25 1.949 . S
Zn24 O31 1.919 1_455 S
Zn24 O36 1.924 1_455 S
O25 Zn24 1.949 . S
O25 Zn26 1.923 . S
O25 Zn27 1.950 . S
O25 Zn28 1.945 . S
Zn26 O25 1.923 . S
Zn26 O29 1.933 . S
Zn26 O32 1.941 . S
Zn26 O33 1.965 . S
Zn27 O25 1.950 . S
Zn27 O34 1.938 . S
Zn27 O35 1.906 . S
Zn27 O45 1.953 . S
Zn28 O25 1.945 . S
Zn28 O30 1.932 . S
Zn28 O37 1.977 . S
Zn28 O38 1.910 . S
O29 Zn26 1.933 . S
O29 C40 1.226 . S
O30 Zn28 1.932 . S
O30 C40 1.307 . S
O31 Zn24 1.919 1_655 S
O31 C42 1.253 . S
O32 Zn26 1.941 . S
O32 C42 1.283 1_455 S
O33 Zn26 1.965 . S
O33 C41 1.303 . S
O34 Zn27 1.938 . S
O34 C41 1.247 . S
O35 Zn27 1.906 . S
O35 C43 1.304 . S
O36 Zn24 1.924 1_655 S
O36 C44 1.311 . S
O37 Zn28 1.977 . S
O37 C43 1.272 . S
O38 Zn28 1.910 . S
O38 C44 1.231 1_455 S
C39 O23 1.225 . S
C39 O45 1.298 . S
C40 O29 1.226 . S
C40 O30 1.307 . S
C41 O33 1.303 . S
C41 O34 1.247 . S
C42 O31 1.253 . S
C42 O32 1.283 1_655 S
C43 O35 1.304 . S
C43 O37 1.272 . S
C44 O36 1.311 . S
C44 O38 1.231 1_655 S
O45 Zn27 1.953 . S
O45 C39 1.298 . S
O46 Zn47 1.953 . S
O46 C62 1.225 . S
Zn47 O46 1.953 . S
Zn47 O48 1.963 . S
Zn47 O54 1.919 1_554 S
Zn47 O59 1.924 . S
O48 Zn47 1.963 . S
O48 Zn49 1.921 1_544 S
O48 Zn50 1.932 1_545 S
O48 Zn51 1.950 . S
Zn49 O48 1.921 1_566 S
Zn49 O52 1.933 . S
Zn49 O55 1.941 1_565 S
Zn49 O56 1.965 . S
Zn50 O48 1.932 1_565 S
Zn50 O57 1.938 1_554 S
Zn50 O58 1.906 . S
Zn50 O68 1.953 . S
Zn51 O48 1.950 . S
Zn51 O53 1.932 . S
Zn51 O60 1.977 1_545 S
Zn51 O61 1.910 . S
O52 Zn49 1.933 . S
O52 C63 1.226 1_556 S
O53 Zn51 1.932 . S
O53 C63 1.307 1_545 S
O54 Zn47 1.919 1_556 S
O54 C65 1.253 . S
O55 Zn49 1.941 1_545 S
O55 C65 1.283 . S
O56 Zn49 1.965 . S
O56 C64 1.303 . S
O57 Zn50 1.938 1_556 S
O57 C64 1.247 . S
O58 Zn50 1.906 . S
O58 C66 1.304 . S
O59 Zn47 1.924 . S
O59 C67 1.311 . S
O60 Zn51 1.977 1_565 S
O60 C66 1.272 . S
O61 Zn51 1.910 . S
O61 C67 1.231 . S
C62 O46 1.225 . S
C62 O68 1.298 1_545 S
C63 O52 1.226 1_554 S
C63 O53 1.307 1_565 S
C64 O56 1.303 . S
C64 O57 1.247 . S
C65 O54 1.253 . S
C65 O55 1.283 . S
C66 O58 1.304 . S
C66 O60 1.272 . S
C67 O59 1.311 . S
C67 O61 1.231 . S
O68 Zn50 1.953 . S
O68 C62 1.298 1_565 S
O69 Zn70 1.953 . S
O69 C85 1.225 . S
Zn70 O69 1.953 . S
Zn70 O71 1.963 . S
Zn70 O77 1.919 . S
Zn70 O82 1.924 . S
O71 Zn70 1.963 . S
O71 Zn72 1.921 1_455 S
O71 Zn73 1.932 1_455 S
O71 Zn74 1.950 . S
Zn72 O71 1.921 1_655 S
Zn72 O75 1.933 . S
Zn72 O78 1.941 1_655 S
Zn72 O79 1.965 . S
Zn73 O71 1.932 1_655 S
Zn73 O80 1.938 . S
Zn73 O81 1.906 . S
Zn73 O91 1.953 . S
Zn74 O71 1.950 . S
Zn74 O76 1.932 . S
Zn74 O83 1.977 1_455 S
Zn74 O84 1.910 . S
O75 Zn72 1.933 . S
O75 C86 1.226 . S
O76 Zn74 1.932 . S
O76 C86 1.307 1_455 S
O77 Zn70 1.919 . S
O77 C88 1.253 . S
O78 Zn72 1.941 1_455 S
O78 C88 1.283 . S
O79 Zn72 1.965 . S
O79 C87 1.303 . S
O80 Zn73 1.938 . S
O80 C87 1.247 . S
O81 Zn73 1.906 . S
O81 C89 1.304 . S
O82 Zn70 1.924 . S
O82 C90 1.311 . S
O83 Zn74 1.977 1_655 S
O83 C89 1.272 . S
O84 Zn74 1.910 . S
O84 C90 1.231 . S
C85 O69 1.225 . S
C85 O91 1.298 1_455 S
C86 O75 1.226 . S
C86 O76 1.307 1_655 S
C87 O79 1.303 . S
C87 O80 1.247 . S
C88 O77 1.253 . S
C88 O78 1.283 . S
C89 O81 1.304 . S
C89 O83 1.272 . S
C90 O82 1.311 . S
C90 O84 1.231 . S
O91 Zn73 1.953 . S
O91 C85 1.298 1_655 S
H92 C100 0.929 . S
H93 C102 0.930 . S
H94 C104 0.930 . S
H95 C107 0.929 . S
H96 C110 0.930 1_655 S
H97 C112 0.960 1_455 S
H98 C112 0.960 1_556 S
H99 C112 0.960 . S
C100 H92 0.929 . S
C100 C101 1.377 1_546 S
C100 C102 1.384 . S
C101 C100 1.377 1_564 S
C101 C107 1.390 . S
C102 H93 0.930 . S
C102 C100 1.384 . S
C102 C103 1.372 1_556 S
C103 C102 1.372 1_554 S
C103 C104 1.400 1_545 S
C103 C108 1.490 . S
C104 H94 0.930 . S
C104 C103 1.400 1_565 S
C104 C107 1.386 . S
H105 C121 0.930 . S
H106 C122 0.931 . S
C107 H95 0.929 . S
C107 C101 1.390 . S
C107 C104 1.386 . S
C108 C103 1.490 . S
C108 C110 1.395 1_655 S
C108 C111 1.403 1_645 S
H109 C115 0.930 1_565 S
C110 H96 0.930 1_455 S
C110 C108 1.395 1_455 S
C110 C113 1.403 . S
C111 C108 1.403 1_465 S
C111 C112 1.524 1_455 S
C111 C115 1.400 1_565 S
C112 H97 0.960 1_655 S
C112 H98 0.960 1_554 S
C112 H99 0.960 . S
C112 C111 1.524 1_655 S
C113 C110 1.403 . S
C113 C114 1.392 . S
C113 C117 1.495 . S
C114 C113 1.392 . S
C114 C115 1.385 . S
C114 C116 1.478 . S
C115 H109 0.930 1_545 S
C115 C111 1.400 1_545 S
C115 C114 1.385 . S
C116 C114 1.478 . S
C116 C118 1.381 1_554 S
C116 C122 1.383 . S
C117 C113 1.495 . S
C117 H123 0.959 . S
C117 H124 0.961 . S
C117 H125 0.960 1_554 S
C118 C116 1.381 1_556 S
C118 C119 1.394 . S
C118 H126 0.930 . S
C119 C118 1.394 . S
C119 C120 1.383 1_556 S
C119 H127 0.929 . S
C120 C119 1.383 1_554 S
C120 C121 1.377 . S
C121 H105 0.930 . S
C121 C120 1.377 . S
C121 C122 1.379 . S
C122 H106 0.931 . S
C122 C116 1.383 . S
C122 C121 1.379 . S
H123 C117 0.959 . S
H124 C117 0.961 . S
H125 C117 0.960 1_556 S
H126 C118 0.930 . S
H127 C119 0.929 . S
H128 C136 0.929 . S
H129 C138 0.930 . S
H130 C140 0.930 . S
H131 C143 0.929 . S
H132 C146 0.930 1_565 S
H133 C148 0.960 1_545 S
H134 C148 0.960 . S
H135 C148 0.960 . S
C136 H128 0.929 . S
C136 C137 1.377 . S
C136 C138 1.384 . S
C137 C136 1.377 . S
C137 C143 1.390 1_655 S
C138 H129 0.930 . S
C138 C136 1.384 . S
C138 C139 1.372 1_655 S
C139 C138 1.372 1_455 S
C139 C140 1.400 . S
C139 C144 1.490 . S
C140 H130 0.930 . S
C140 C139 1.400 . S
C140 C143 1.386 . S
H141 C157 0.930 . S
H142 C158 0.931 . S
C143 H131 0.929 . S
C143 C137 1.390 1_455 S
C143 C140 1.386 . S
C144 C139 1.490 . S
C144 C146 1.395 1_465 S
C144 C147 1.403 1_565 S
H145 C151 0.930 . S
C146 H132 0.930 1_545 S
C146 C144 1.395 1_645 S
C146 C149 1.403 . S
C147 C144 1.403 1_545 S
C147 C148 1.524 1_545 S
C147 C151 1.400 . S
C148 H133 0.960 1_565 S
C148 H134 0.960 . S
C148 H135 0.960 . S
C148 C147 1.524 1_565 S
C149 C146 1.403 . S
C149 C150 1.392 1_655 S
C149 C153 1.495 . S
C150 C149 1.392 1_455 S
C150 C151 1.385 . S
C150 C152 1.478 . S
C151 H145 0.930 . S
C151 C147 1.400 . S
C151 C150 1.385 . S
C152 C150 1.478 . S
C152 C154 1.381 . S
C152 C158 1.383 . S
C153 C149 1.495 . S
C153 H159 0.959 . S
C153 H160 0.961 . S
C153 H161 0.960 . S
C154 C152 1.381 . S
C154 C155 1.394 . S
C154 H162 0.930 . S
C155 C154 1.394 . S
C155 C156 1.383 . S
C155 H163 0.929 . S
C156 C155 1.383 . S
C156 C157 1.377 . S
C157 H141 0.930 . S
C157 C156 1.377 . S
C157 C158 1.379 . S
C158 H142 0.931 . S
C158 C152 1.383 . S
C158 C157 1.379 . S
H159 C153 0.959 . S
H160 C153 0.961 . S
H161 C153 0.960 . S
H162 C154 0.930 . S
H163 C155 0.929 . S
H164 C172 0.929 . S
H165 C174 0.930 . S
H166 C176 0.930 . S
H167 C179 0.929 . S
H168 C182 0.930 . S
H169 C184 0.960 . S
H170 C184 0.960 . S
H171 C184 0.960 1_556 S
C172 H164 0.929 . S
C172 C173 1.377 1_545 S
C172 C174 1.384 . S
C173 C172 1.377 1_565 S
C173 C179 1.390 1_554 S
C174 H165 0.930 . S
C174 C172 1.384 . S
C174 C175 1.372 . S
C175 C174 1.372 . S
C175 C176 1.400 1_544 S
C175 C180 1.490 . S
C176 H166 0.930 . S
C176 C175 1.400 1_566 S
C176 C179 1.386 . S
H177 C193 0.930 . S
H178 C194 0.931 . S
C179 H167 0.929 . S
C179 C173 1.390 1_556 S
C179 C176 1.386 . S
C180 C175 1.490 . S
C180 C182 1.395 . S
C180 C183 1.403 1_545 S
H181 C187 0.930 1_565 S
C182 H168 0.930 . S
C182 C180 1.395 . S
C182 C185 1.403 . S
C183 C180 1.403 1_565 S
C183 C184 1.524 . S
C183 C187 1.400 1_565 S
C184 H169 0.960 . S
C184 H170 0.960 . S
C184 H171 0.960 1_554 S
C184 C183 1.524 . S
C185 C182 1.403 . S
C185 C186 1.392 . S
C185 C189 1.495 . S
C186 C185 1.392 . S
C186 C187 1.385 . S
C186 C188 1.478 . S
C187 H181 0.930 1_545 S
C187 C183 1.400 1_545 S
C187 C186 1.385 . S
C188 C186 1.478 . S
C188 C190 1.381 . S
C188 C194 1.383 1_554 S
C189 C185 1.495 . S
C189 H195 0.959 . S
C189 H196 0.961 . S
C189 H197 0.960 . S
C190 C188 1.381 . S
C190 C191 1.394 . S
C190 H198 0.930 . S
C191 C190 1.394 . S
C191 C192 1.383 . S
C191 H199 0.929 . S
C192 C191 1.383 . S
C192 C193 1.377 1_554 S
C193 H177 0.930 . S
C193 C192 1.377 1_556 S
C193 C194 1.379 . S
C194 H178 0.931 . S
C194 C188 1.383 1_556 S
C194 C193 1.379 . S
H195 C189 0.959 . S
H196 C189 0.961 . S
H197 C189 0.960 . S
H198 C190 0.930 . S
H199 C191 0.929 . S
H200 C208 0.929 . S
H201 C210 0.930 . S
H202 C212 0.930 1_655 S
H203 C215 0.929 . S
H204 C218 0.930 . S
H205 C220 0.960 . S
H206 C220 0.960 1_455 S
H207 C220 0.960 . S
C208 H200 0.929 . S
C208 C209 1.377 . S
C208 C210 1.384 . S
C209 C208 1.377 . S
C209 C215 1.390 . S
C210 H201 0.930 . S
C210 C208 1.384 . S
C210 C211 1.372 . S
C211 C210 1.372 . S
C211 C212 1.400 . S
C211 C216 1.490 . S
C212 H202 0.930 1_455 S
C212 C211 1.400 . S
C212 C215 1.386 . S
H213 C229 0.930 . S
H214 C230 0.931 . S
C215 H203 0.929 . S
C215 C209 1.390 . S
C215 C212 1.386 . S
C216 C211 1.490 . S
C216 C218 1.395 . S
C216 C219 1.403 . S
H217 C223 0.930 1_655 S
C218 H204 0.930 . S
C218 C216 1.395 . S
C218 C221 1.403 . S
C219 C216 1.403 . S
C219 C220 1.524 1_455 S
C219 C223 1.400 . S
C220 H205 0.960 . S
C220 H206 0.960 1_655 S
C220 H207 0.960 . S
C220 C219 1.524 1_655 S
C221 C218 1.403 . S
C221 C222 1.392 . S
C221 C225 1.495 . S
C222 C221 1.392 . S
C222 C223 1.385 . S
C222 C224 1.478 . S
C223 H217 0.930 1_455 S
C223 C219 1.400 . S
C223 C222 1.385 . S
C224 C222 1.478 . S
C224 C226 1.381 . S
C224 C230 1.383 1_455 S
C225 C221 1.495 . S
C225 H231 0.959 . S
C225 H232 0.961 . S
C225 H233 0.960 . S
C226 C224 1.381 . S
C226 C227 1.394 . S
C226 H234 0.930 . S
C227 C226 1.394 . S
C227 C228 1.373 1_455 S
C227 H235 0.929 . S
C228 C227 1.373 1_655 S
C228 C229 1.383 . S
C229 H213 0.930 . S
C229 C228 1.383 . S
C229 C230 1.379 . S
C230 H214 0.931 . S
C230 C224 1.383 1_655 S
C230 C229 1.379 . S
H231 C225 0.959 . S
H232 C225 0.961 . S
H233 C225 0.960 . S
H234 C226 0.930 . S
H235 C227 0.929 . S
H236 C244 0.929 . S
H237 C246 0.930 . S
H238 C248 0.930 . S
H239 C251 0.929 . S
H240 C254 0.930 . S
H241 C256 0.960 . S
H242 C256 0.960 . S
H243 C256 0.960 . S
C244 H236 0.929 . S
C244 C245 1.377 . S
C244 C246 1.384 . S
C245 C244 1.377 . S
C245 C251 1.390 . S
C246 H237 0.930 . S
C246 C244 1.384 . S
C246 C247 1.372 . S
C247 C246 1.372 . S
C247 C248 1.400 . S
C247 C252 1.490 . S
C248 H238 0.930 . S
C248 C247 1.400 . S
C248 C251 1.386 . S
H249 C265 0.930 . S
H250 C266 0.931 . S
C251 H239 0.929 . S
C251 C245 1.390 . S
C251 C248 1.386 . S
C252 C247 1.490 . S
C252 C254 1.395 . S
C252 C255 1.403 . S
H253 C259 0.930 . S
C254 H240 0.930 . S
C254 C252 1.395 . S
C254 C257 1.403 . S
C255 C252 1.403 . S
C255 C256 1.524 . S
C255 C259 1.400 . S
C256 H241 0.960 . S
C256 H242 0.960 . S
C256 H243 0.960 . S
C256 C255 1.524 . S
C257 C254 1.403 . S
C257 C258 1.392 . S
C257 C261 1.495 . S
C258 C257 1.392 . S
C258 C259 1.385 . S
C258 C260 1.478 . S
C259 H253 0.930 . S
C259 C255 1.400 . S
C259 C258 1.385 . S
C260 C258 1.478 . S
C260 C262 1.381 . S
C260 C266 1.383 . S
C261 C257 1.495 . S
C261 H267 0.959 . S
C261 H268 0.961 . S
C261 H269 0.960 . S
C262 C260 1.381 . S
C262 C263 1.394 . S
C262 H270 0.930 . S
C263 C262 1.394 . S
C263 C264 1.383 . S
C263 H271 0.929 . S
C264 C263 1.383 . S
C264 C265 1.377 . S
C265 H249 0.930 . S
C265 C264 1.377 . S
C265 C266 1.379 . S
C266 H250 0.931 . S
C266 C260 1.383 . S
C266 C265 1.379 . S
H267 C261 0.959 . S
H268 C261 0.961 . S
H269 C261 0.960 . S
H270 C262 0.930 . S
H271 C263 0.929 . S
H272 C280 0.929 . S
H273 C282 0.930 . S
H274 C284 0.930 . S
H275 C287 0.929 1_455 S
H276 C290 0.930 . S
H277 C292 0.960 . S
H278 C292 0.960 . S
H279 C292 0.960 . S
C280 H272 0.929 . S
C280 C281 1.377 . S
C280 C282 1.384 . S
C281 C280 1.377 . S
C281 C287 1.390 . S
C282 H273 0.930 . S
C282 C280 1.384 . S
C282 C283 1.372 . S
C283 C282 1.372 . S
C283 C284 1.400 . S
C283 C288 1.490 . S
C284 H274 0.930 . S
C284 C283 1.400 . S
C284 C287 1.386 . S
H285 C301 0.930 . S
H286 C302 0.931 . S
C287 H275 0.929 1_655 S
C287 C281 1.390 . S
C287 C284 1.386 . S
C288 C283 1.490 . S
C288 C290 1.395 . S
C288 C291 1.403 . S
H289 C295 0.930 . S
C290 H276 0.930 . S
C290 C288 1.395 . S
C290 C293 1.403 . S
C291 C288 1.403 . S
C291 C292 1.524 . S
C291 C295 1.400 . S
C292 H277 0.960 . S
C292 H278 0.960 . S
C292 H279 0.960 . S
C292 C291 1.524 . S
C293 C290 1.403 . S
C293 C294 1.392 . S
C293 C297 1.495 . S
C294 C293 1.392 . S
C294 C295 1.385 . S
C294 C296 1.478 . S
C295 H289 0.930 . S
C295 C291 1.400 . S
C295 C294 1.385 . S
C296 C294 1.478 . S
C296 C298 1.381 . S
C296 C302 1.383 . S
C297 C293 1.495 . S
C297 H303 0.959 . S
C297 H304 0.961 . S
C297 H305 0.960 . S
C298 C296 1.381 . S
C298 C299 1.394 . S
C298 H306 0.930 . S
C299 C298 1.394 . S
C299 C300 1.383 . S
C299 H307 0.929 . S
C300 C299 1.383 . S
C300 C301 1.377 . S
C301 H285 0.930 . S
C301 C300 1.377 . S
C301 C302 1.379 . S
C302 H286 0.931 . S
C302 C296 1.383 . S
C302 C301 1.379 . S
H303 C297 0.959 . S
H304 C297 0.961 . S
H305 C297 0.960 . S
H306 C298 0.930 . S
H307 C299 0.929 . S
H308 C316 0.929 . S
H309 C318 0.930 . S
H310 C320 0.930 . S
H311 C323 0.929 . S
H312 C326 0.930 . S
H313 C328 0.960 . S
H314 C328 0.960 . S
H315 C328 0.960 . S
C316 H308 0.929 . S
C316 C317 1.377 . S
C316 C318 1.384 . S
C317 C316 1.377 . S
C317 C323 1.390 . S
C318 H309 0.930 . S
C318 C316 1.384 . S
C318 C319 1.372 . S
C319 C318 1.372 . S
C319 C320 1.400 . S
C319 C324 1.490 . S
C320 H310 0.930 . S
C320 C319 1.400 . S
C320 C323 1.386 . S
H321 C337 0.930 . S
H322 C338 0.931 . S
C323 H311 0.929 . S
C323 C317 1.390 . S
C323 C320 1.386 . S
C324 C319 1.490 . S
C324 C326 1.395 . S
C324 C327 1.403 . S
H325 C331 0.930 . S
C326 H312 0.930 . S
C326 C324 1.395 . S
C326 C329 1.403 . S
C327 C324 1.403 . S
C327 C328 1.524 . S
C327 C331 1.400 . S
C328 H313 0.960 . S
C328 H314 0.960 . S
C328 H315 0.960 . S
C328 C327 1.524 . S
C329 C326 1.403 . S
C329 C330 1.392 . S
C329 C333 1.495 . S
C330 C329 1.392 . S
C330 C331 1.385 . S
C330 C332 1.478 . S
C331 H325 0.930 . S
C331 C327 1.400 . S
C331 C330 1.385 . S
C332 C330 1.478 . S
C332 C334 1.381 . S
C332 C338 1.383 . S
C333 C329 1.495 . S
C333 H339 0.959 . S
C333 H340 0.961 . S
C333 H341 0.960 . S
C334 C332 1.381 . S
C334 C335 1.394 . S
C334 H342 0.930 . S
C335 C334 1.394 . S
C335 C336 1.383 . S
C335 H343 0.929 . S
C336 C335 1.383 . S
C336 C337 1.377 . S
C337 H321 0.930 . S
C337 C336 1.377 . S
C337 C338 1.379 . S
C338 H322 0.931 . S
C338 C332 1.383 . S
C338 C337 1.379 . S
H339 C333 0.959 . S
H340 C333 0.961 . S
H341 C333 0.960 . S
H342 C334 0.930 . S
H343 C335 0.929 . S
H344 C352 0.929 . S
H345 C354 0.930 . S
H346 C356 0.930 . S
H347 C359 0.929 . S
H348 C362 0.930 . S
H349 C364 0.960 . S
H350 C364 0.960 . S
H351 C364 0.960 . S
C352 H344 0.929 . S
C352 C353 1.377 . S
C352 C354 1.384 . S
C353 C352 1.377 . S
C353 C359 1.390 . S
C354 H345 0.930 . S
C354 C352 1.384 . S
C354 C355 1.372 . S
C355 C354 1.372 . S
C355 C356 1.400 . S
C355 C360 1.490 . S
C356 H346 0.930 . S
C356 C355 1.400 . S
C356 C359 1.386 . S
H357 C373 0.930 . S
H358 C374 0.931 . S
C359 H347 0.929 . S
C359 C353 1.390 . S
C359 C356 1.386 . S
C360 C355 1.490 . S
C360 C362 1.395 . S
C360 C363 1.403 . S
H361 C367 0.930 . S
C362 H348 0.930 . S
C362 C360 1.395 . S
C362 C365 1.403 . S
C363 C360 1.403 . S
C363 C364 1.524 . S
C363 C367 1.400 . S
C364 H349 0.960 . S
C364 H350 0.960 . S
C364 H351 0.960 . S
C364 C363 1.524 . S
C365 C362 1.403 . S
C365 C366 1.392 . S
C365 C369 1.495 . S
C366 C365 1.392 . S
C366 C367 1.385 . S
C366 C368 1.478 . S
C367 H361 0.930 . S
C367 C363 1.400 . S
C367 C366 1.385 . S
C368 C366 1.478 . S
C368 C370 1.381 . S
C368 C374 1.383 . S
C369 C365 1.495 . S
C369 H375 0.959 . S
C369 H376 0.961 . S
C369 H377 0.960 . S
C370 C368 1.381 . S
C370 C371 1.394 . S
C370 H378 0.930 . S
C371 C370 1.394 . S
C371 C372 1.383 . S
C371 H379 0.929 1_565 S
C372 C371 1.383 . S
C372 C373 1.377 . S
C373 H357 0.930 . S
C373 C372 1.377 . S
C373 C374 1.379 . S
C374 H358 0.931 . S
C374 C368 1.383 . S
C374 C373 1.379 . S
H375 C369 0.959 . S
H376 C369 0.961 . S
H377 C369 0.960 . S
H378 C370 0.930 . S
H379 C371 0.929 1_545 S
H380 C388 0.929 . S
H381 C390 0.930 . S
H382 C392 0.930 . S
H383 C395 0.929 . S
H384 C398 0.930 . S
H385 C400 0.960 . S
H386 C400 0.960 . S
H387 C400 0.960 . S
C388 H380 0.929 . S
C388 C389 1.377 . S
C388 C390 1.384 . S
C389 C388 1.377 . S
C389 C395 1.390 . S
C390 H381 0.930 . S
C390 C388 1.384 . S
C390 C391 1.372 . S
C391 C390 1.372 . S
C391 C392 1.400 . S
C391 C396 1.490 . S
C392 H382 0.930 . S
C392 C391 1.400 . S
C392 C395 1.386 . S
H393 C409 0.930 . S
H394 C410 0.931 . S
C395 H383 0.929 . S
C395 C389 1.390 . S
C395 C392 1.386 . S
C396 C391 1.490 . S
C396 C398 1.395 . S
C396 C399 1.403 . S
H397 C403 0.930 . S
C398 H384 0.930 . S
C398 C396 1.395 . S
C398 C401 1.403 . S
C399 C396 1.403 . S
C399 C400 1.524 . S
C399 C403 1.400 . S
C400 H385 0.960 . S
C400 H386 0.960 . S
C400 H387 0.960 . S
C400 C399 1.524 . S
C401 C398 1.403 . S
C401 C402 1.392 . S
C401 C405 1.495 . S
C402 C401 1.392 . S
C402 C403 1.385 . S
C402 C404 1.478 . S
C403 H397 0.930 . S
C403 C399 1.400 . S
C403 C402 1.385 . S
C404 C402 1.478 . S
C404 C406 1.381 . S
C404 C410 1.383 . S
C405 C401 1.495 . S
C405 H411 0.959 . S
C405 H412 0.961 . S
C405 H413 0.960 . S
C406 C404 1.381 . S
C406 C407 1.394 . S
C406 H414 0.930 . S
C407 C406 1.394 . S
C407 C408 1.383 . S
C407 H415 0.929 . S
C408 C407 1.383 . S
C408 C409 1.377 . S
C409 H393 0.930 . S
C409 C408 1.377 . S
C409 C410 1.379 . S
C410 H394 0.931 . S
C410 C404 1.383 . S
C410 C409 1.379 . S
H411 C405 0.959 . S
H412 C405 0.961 . S
H413 C405 0.960 . S
H414 C406 0.930 . S
H415 C407 0.929 . S
H416 C424 0.929 1_545 S
H417 C426 0.930 . S
H418 C428 0.930 . S
H419 C431 0.929 . S
H420 C434 0.930 . S
H421 C436 0.960 . S
H422 C436 0.960 . S
H423 C436 0.960 . S
C424 H416 0.929 1_565 S
C424 C425 1.377 . S
C424 C426 1.384 . S
C425 C424 1.377 . S
C425 C431 1.390 . S
C426 H417 0.930 . S
C426 C424 1.384 . S
C426 C427 1.372 . S
C427 C426 1.372 . S
C427 C428 1.400 . S
C427 C432 1.490 . S
C428 H418 0.930 . S
C428 C427 1.400 . S
C428 C431 1.386 . S
H429 C445 0.930 . S
H430 C446 0.931 . S
C431 H419 0.929 . S
C431 C425 1.390 . S
C431 C428 1.386 . S
C432 C427 1.490 . S
C432 C434 1.395 . S
C432 C435 1.403 . S
H433 C439 0.930 . S
C434 H420 0.930 . S
C434 C432 1.395 . S
C434 C437 1.403 . S
C435 C432 1.403 . S
C435 C436 1.524 . S
C435 C439 1.400 . S
C436 H421 0.960 . S
C436 H422 0.960 . S
C436 H423 0.960 . S
C436 C435 1.524 . S
C437 C434 1.403 . S
C437 C438 1.392 . S
C437 C441 1.495 . S
C438 C437 1.392 . S
C438 C439 1.385 . S
C438 C440 1.478 . S
C439 H433 0.930 . S
C439 C435 1.400 . S
C439 C438 1.385 . S
C440 C438 1.478 . S
C440 C442 1.381 . S
C440 C446 1.383 . S
C441 C437 1.495 . S
C441 H447 0.959 . S
C441 H448 0.961 . S
C441 H449 0.960 . S
C442 C440 1.381 . S
C442 C443 1.394 . S
C442 H450 0.930 . S
C443 C442 1.394 . S
C443 C444 1.383 . S
C443 H451 0.929 . S
C444 C443 1.383 . S
C444 C445 1.377 . S
C445 H429 0.930 . S
C445 C444 1.377 . S
C445 C446 1.379 . S
C446 H430 0.931 . S
C446 C440 1.383 . S
C446 C445 1.379 . S
H447 C441 0.959 . S
H448 C441 0.961 . S
H449 C441 0.960 . S
H450 C442 0.930 . S
H451 C443 0.929 . S
H452 C460 0.929 . S
H453 C462 0.930 . S
H454 C464 0.930 . S
H455 C467 0.929 . S
H456 C470 0.930 . S
H457 C472 0.960 . S
H458 C472 0.960 . S
H459 C472 0.960 . S
C460 H452 0.929 . S
C460 C461 1.377 . S
C460 C462 1.384 . S
C461 C460 1.377 . S
C461 C467 1.390 . S
C462 H453 0.930 . S
C462 C460 1.384 . S
C462 C463 1.372 . S
C463 C462 1.372 . S
C463 C464 1.400 . S
C463 C468 1.490 . S
C464 H454 0.930 . S
C464 C463 1.400 . S
C464 C467 1.386 . S
H465 C481 0.930 . S
H466 C482 0.931 . S
C467 H455 0.929 . S
C467 C461 1.390 . S
C467 C464 1.386 . S
C468 C463 1.490 . S
C468 C470 1.395 . S
C468 C471 1.403 . S
H469 C475 0.930 . S
C470 H456 0.930 . S
C470 C468 1.395 . S
C470 C473 1.403 . S
C471 C468 1.403 . S
C471 C472 1.524 . S
C471 C475 1.400 . S
C472 H457 0.960 . S
C472 H458 0.960 . S
C472 H459 0.960 . S
C472 C471 1.524 . S
C473 C470 1.403 . S
C473 C474 1.392 . S
C473 C477 1.495 . S
C474 C473 1.392 . S
C474 C475 1.385 . S
C474 C476 1.478 . S
C475 H469 0.930 . S
C475 C471 1.400 . S
C475 C474 1.385 . S
C476 C474 1.478 . S
C476 C478 1.381 . S
C476 C482 1.383 . S
C477 C473 1.495 . S
C477 H483 0.959 . S
C477 H484 0.961 . S
C477 H485 0.960 . S
C478 C476 1.381 . S
C478 C479 1.394 . S
C478 H486 0.930 . S
C479 C478 1.394 . S
C479 C480 1.383 . S
C479 H487 0.929 . S
C480 C479 1.383 . S
C480 C481 1.377 . S
C481 H465 0.930 . S
C481 C480 1.377 . S
C481 C482 1.379 . S
C482 H466 0.931 . S
C482 C476 1.383 . S
C482 C481 1.379 . S
H483 C477 0.959 . S
H484 C477 0.961 . S
H485 C477 0.960 . S
H486 C478 0.930 . S
H487 C479 0.929 . S
H488 C496 0.929 . S
H489 C498 0.930 . S
H490 C500 0.930 . S
H491 C503 0.929 . S
H492 C506 0.930 . S
H493 C508 0.960 . S
H494 C508 0.960 . S
H495 C508 0.960 . S
C496 H488 0.929 . S
C496 C497 1.377 . S
C496 C498 1.384 . S
C497 C496 1.377 . S
C497 C503 1.390 . S
C498 H489 0.930 . S
C498 C496 1.384 . S
C498 C499 1.372 . S
C499 C498 1.372 . S
C499 C500 1.400 . S
C499 C504 1.490 . S
C500 H490 0.930 . S
C500 C499 1.400 . S
C500 C503 1.386 . S
H501 C517 0.930 . S
H502 C518 0.931 . S
C503 H491 0.929 . S
C503 C497 1.390 . S
C503 C500 1.386 . S
C504 C499 1.490 . S
C504 C506 1.395 . S
C504 C507 1.403 . S
H505 C511 0.930 . S
C506 H492 0.930 . S
C506 C504 1.395 . S
C506 C509 1.403 . S
C507 C504 1.403 . S
C507 C508 1.524 . S
C507 C511 1.400 . S
C508 H493 0.960 . S
C508 H494 0.960 . S
C508 H495 0.960 . S
C508 C507 1.524 . S
C509 C506 1.403 . S
C509 C510 1.392 . S
C509 C513 1.495 . S
C510 C509 1.392 . S
C510 C511 1.385 . S
C510 C512 1.478 . S
C511 H505 0.930 . S
C511 C507 1.400 . S
C511 C510 1.385 . S
C512 C510 1.478 . S
C512 C514 1.381 . S
C512 C518 1.383 . S
C513 C509 1.495 . S
C513 H519 0.959 . S
C513 H520 0.961 . S
C513 H521 0.960 . S
C514 C512 1.381 . S
C514 C515 1.394 . S
C514 H522 0.930 . S
C515 C514 1.394 . S
C515 C516 1.383 . S
C515 H523 0.929 . S
C516 C515 1.383 . S
C516 C517 1.377 . S
C517 H501 0.930 . S
C517 C516 1.377 . S
C517 C518 1.379 . S
C518 H502 0.931 . S
C518 C512 1.383 . S
C518 C517 1.379 . S
H519 C513 0.959 . S
H520 C513 0.961 . S
H521 C513 0.960 . S
H522 C514 0.930 . S
H523 C515 0.929 . S
C101 C62 0.822 1_565 S
C120 C16 0.852 . S
C137 C85 0.821 1_655 S
C156 C39 0.815 . S
C173 C63 0.614 . S
C192 C17 0.632 . S
C209 C40 0.613 . S
C228 C86 0.607 . S
C245 C43 1.354 . S
C264 C20 1.342 . S
C281 C42 1.470 . S
C300 C65 1.435 . S
C317 C89 1.360 . S
C336 C66 1.315 . S
C353 C88 1.458 . S
C372 C19 1.423 . S
C389 C64 0.942 . S
C408 C87 0.935 . S
C425 C21 0.999 . S
C444 C90 0.994 . S
C461 C41 0.942 . S
C480 C18 0.935 . S
C497 C67 1.002 . S
C516 C44 1.007 . S
