# Generated by pormake.
# Topology oof, (8)-cn, num edge types: 1
# Building blocks:
#     Node 0, Type 0, BuildingBlock: EBIMEJ_clean_sbu_0, # of connection points: 8
#     Node 1, Type 0, BuildingBlock: EBIMEJ_clean_sbu_0, # of connection points: 8
#     Node 2, Type 0, BuildingBlock: EBIMEJ_clean_sbu_0, # of connection points: 8
#     Node 3, Type 0, BuildingBlock: EBIMEJ_clean_sbu_0, # of connection points: 8
#     Edge 4, Type (0, 0), BuildingBlock: UVAHIK_clean_linker_0, # of connection points: 2
#     Edge 5, Type (0, 0), BuildingBlock: UVAHIK_clean_linker_0, # of connection points: 2
#     Edge 6, Type (0, 0), BuildingBlock: UVAHIK_clean_linker_0, # of connection points: 2
#     Edge 7, Type (0, 0), BuildingBlock: UVAHIK_clean_linker_0, # of connection points: 2
#     Edge 8, Type (0, 0), BuildingBlock: UVAHIK_clean_linker_0, # of connection points: 2
#     Edge 9, Type (0, 0), BuildingBlock: UVAHIK_clean_linker_0, # of connection points: 2
#     Edge 10, Type (0, 0), BuildingBlock: UVAHIK_clean_linker_0, # of connection points: 2
#     Edge 11, Type (0, 0), BuildingBlock: UVAHIK_clean_linker_0, # of connection points: 2
#     Edge 12, Type (0, 0), BuildingBlock: UVAHIK_clean_linker_0, # of connection points: 2
#     Edge 13, Type (0, 0), BuildingBlock: UVAHIK_clean_linker_0, # of connection points: 2
#     Edge 14, Type (0, 0), BuildingBlock: UVAHIK_clean_linker_0, # of connection points: 2
#     Edge 15, Type (0, 0), BuildingBlock: UVAHIK_clean_linker_0, # of connection points: 2
#     Edge 16, Type (0, 0), BuildingBlock: UVAHIK_clean_linker_0, # of connection points: 2
#     Edge 17, Type (0, 0), BuildingBlock: UVAHIK_clean_linker_0, # of connection points: 2
#     Edge 18, Type (0, 0), BuildingBlock: UVAHIK_clean_linker_0, # of connection points: 2
#     Edge 19, Type (0, 0), BuildingBlock: UVAHIK_clean_linker_0, # of connection points: 2
# Relax obj value: 0.057
# Max RMSD: 0.158
# Mean RMSD: 0.158
data_MOF--net-oof--node1-EBIMEJ_clean_sbu_0--edge1-UVAHIK_clean_linker_0
_symmetry_space_group_name_H-M    P1
_symmetry_Int_Tables_number       1
_symmetry_cell_setting            triclinic
loop_
_symmetry_equiv_pos_as_xyz
'x, y, z'
_cell_length_a     19.054041
_cell_length_b     83.801561
_cell_length_c     21.992219
_cell_angle_alpha  79.578591
_cell_angle_beta   123.76515
_cell_angle_gamma 96.388213
loop_
_atom_site_label
_atom_site_type_symbol
_atom_site_fract_x
_atom_site_fract_y
_atom_site_fract_z
_atom_type_partial_charge
Co0 Co 0.9698 0.16957 0.28281 0.0
Co1 Co 0.95512 0.15165 0.15582 0.0
Co2 Co 0.98433 0.13141 0.29667 0.0
H3 H 0.98845 0.15041 0.2803 0.0
O4 O 0.01767 0.15372 0.26165 0.0
H5 H 0.96255 0.13244 0.17628 0.0
O6 O 0.93089 0.12859 0.19223 0.0
Co7 Co 0.99848 0.11422 0.18174 0.0
O8 O 0.96479 0.12392 0.07755 0.0
O9 O 0.90364 0.14782 0.05154 0.0
O10 O 0.99874 0.09673 0.25976 0.0
O11 O 0.96418 0.10822 0.32448 0.0
O12 O 0.98805 0.18634 0.3487 0.0
O13 O 0.06415 0.18687 0.3082 0.0
O14 O 0.1072 0.12555 0.24982 0.0
O15 O 0.06917 0.14919 0.1767 0.0
C16 C 0.01543 0.14669 0.42187 0.0
C17 C 0.92889 0.18694 0.13596 0.0
C18 C 0.00148 0.08909 0.13623 0.0
C19 C 0.82485 0.14896 0.23235 0.0
C20 C 0.92377 0.1364 0.03232 0.0
C21 C 0.98005 0.09576 0.30798 0.0
C22 C 0.04806 0.19344 0.34596 0.0
C23 C 0.12558 0.13982 0.23092 0.0
O24 O 0.98317 0.16 0.3796 0.0
O25 O 0.03281 0.13514 0.4012 0.0
O26 O 0.9598 0.17583 0.12412 0.0
O27 O 0.91525 0.18491 0.18738 0.0
O28 O 0.04789 0.10137 0.14167 0.0
O29 O 0.9535 0.09112 0.15644 0.0
O30 O 0.85439 0.16135 0.21107 0.0
O31 O 0.87106 0.13668 0.27246 0.0
Co32 Co 0.01998 0.91703 0.83607 0.0
Co33 Co 0.03121 0.89979 0.71964 0.0
Co34 Co 0.05822 0.87936 0.85921 0.0
H35 H 0.0536 0.89862 0.84037 0.0
O36 O 0.08541 0.90238 0.82452 0.0
H37 H 0.03254 0.88068 0.73738 0.0
O38 O 0.00201 0.87711 0.75451 0.0
Co39 Co 0.05509 0.86173 0.736 0.0
O40 O 0.03272 0.87142 0.63594 0.0
O41 O 0.98218 0.89617 0.6152 0.0
O42 O 0.11267 0.84785 0.83608 0.0
O43 O 0.0505 0.85527 0.88837 0.0
O44 O 0.97239 0.92959 0.87862 0.0
O45 O 0.06603 0.93999 0.86319 0.0
O46 O 0.17245 0.86985 0.77332 0.0
O47 O 0.14546 0.89636 0.74201 0.0
C48 C 0.08542 0.89445 0.98241 0.0
C49 C 0.03087 0.93572 0.70738 0.0
C50 C 0.97898 0.83678 0.68219 0.0
C51 C 0.89061 0.89234 0.77373 0.0
C52 C 0.99845 0.88463 0.59374 0.0
C53 C 0.08925 0.84484 0.88121 0.0
C54 C 0.01872 0.94189 0.88426 0.0
C55 C 0.1943 0.88448 0.76392 0.0
O56 O 0.04784 0.90725 0.93817 0.0
O57 O 0.10441 0.88293 0.96293 0.0
O58 O 0.04595 0.92328 0.6903 0.0
O59 O 0.01523 0.93479 0.75742 0.0
O60 O 0.05615 0.83738 0.73188 0.0
O61 O 0.945 0.85034 0.66313 0.0
O62 O 0.91654 0.90618 0.75887 0.0
O63 O 0.94076 0.88247 0.83022 0.0
Co64 Co 0.47185 0.66971 0.28158 0.0
Co65 Co 0.4596 0.65206 0.15504 0.0
Co66 Co 0.48872 0.63159 0.29544 0.0
H67 H 0.49201 0.65064 0.2793 0.0
O68 O 0.52143 0.65406 0.26092 0.0
H69 H 0.46758 0.63285 0.17527 0.0
O70 O 0.43582 0.62891 0.19099 0.0
Co71 Co 0.50415 0.61468 0.18076 0.0
O72 O 0.46962 0.62446 0.07634 0.0
O73 O 0.40862 0.64835 0.05071 0.0
O74 O 0.50512 0.59702 0.25853 0.0
O75 O 0.46928 0.60832 0.32282 0.0
O76 O 0.46938 0.69353 0.29245 0.0
O77 O 0.57939 0.68031 0.36236 0.0
O78 O 0.61245 0.6261 0.24904 0.0
O79 O 0.57387 0.64977 0.17614 0.0
C80 C 0.51884 0.64667 0.42075 0.0
C81 C 0.43259 0.6873 0.13553 0.0
C82 C 0.5081 0.58972 0.13485 0.0
C83 C 0.32847 0.64879 0.22946 0.0
C84 C 0.42863 0.63695 0.03129 0.0
C85 C 0.48593 0.59594 0.30645 0.0
C86 C 0.54537 0.6938 0.34498 0.0
C87 C 0.63049 0.64041 0.23026 0.0
O88 O 0.48607 0.65996 0.37856 0.0
O89 O 0.53657 0.63519 0.39998 0.0
O90 O 0.46388 0.67627 0.1237 0.0
O91 O 0.41829 0.68517 0.18656 0.0
O92 O 0.56723 0.59438 0.19426 0.0
O93 O 0.447 0.59924 0.10163 0.0
O94 O 0.35828 0.66109 0.208 0.0
O95 O 0.37505 0.63663 0.27083 0.0
Co96 Co 0.5176 0.41743 0.83207 0.0
Co97 Co 0.53419 0.40027 0.71868 0.0
Co98 Co 0.56277 0.38004 0.85915 0.0
H99 H 0.55454 0.39923 0.83841 0.0
O100 O 0.58638 0.40314 0.82276 0.0
H101 H 0.52976 0.38129 0.73488 0.0
O102 O 0.50038 0.37797 0.75338 0.0
Co103 Co 0.54849 0.36216 0.73241 0.0
O104 O 0.53777 0.3717 0.63675 0.0
O105 O 0.48752 0.39651 0.61454 0.0
O106 O 0.60224 0.34669 0.8274 0.0
O107 O 0.55837 0.35585 0.89099 0.0
O108 O 0.45391 0.43774 0.8176 0.0
O109 O 0.57405 0.433 0.91058 0.0
O110 O 0.66404 0.37009 0.80563 0.0
O111 O 0.64865 0.395 0.74596 0.0
C112 C 0.59411 0.39534 0.9823 0.0
C113 C 0.53732 0.4359 0.70668 0.0
C114 C 0.46874 0.3385 0.66807 0.0
C115 C 0.39218 0.39159 0.78352 0.0
C116 C 0.50565 0.38498 0.59432 0.0
C117 C 0.58877 0.34469 0.8789 0.0
C118 C 0.51278 0.44249 0.87688 0.0
C119 C 0.69495 0.38283 0.78794 0.0
O120 O 0.55275 0.40777 0.93685 0.0
O121 O 0.61428 0.38389 0.96326 0.0
O122 O 0.5546 0.42346 0.69113 0.0
O123 O 0.51723 0.43491 0.75398 0.0
O124 O 0.52915 0.3455 0.66568 0.0
O125 O 0.45309 0.34506 0.70615 0.0
O126 O 0.40976 0.40586 0.76395 0.0
O127 O 0.44898 0.38244 0.83857 0.0
C128 C 0.91549 0.15322 0.92153 0.0
C129 C 0.9095 0.13804 0.95795 0.0
C130 C 0.9229 0.15419 0.8609 0.0
C131 C 0.89956 0.13058 0.72212 0.0
H132 H 0.07988 0.15892 0.73215 0.0
C133 C 0.01217 0.12921 0.52637 0.0
C134 C 0.02394 0.14448 0.49417 0.0
C135 C 0.00227 0.12792 0.58581 0.0
C136 C 0.02879 0.15103 0.728 0.0
H137 H 0.90067 0.11207 0.95621 0.0
H138 H 0.91219 0.11379 0.85052 0.0
H139 H 0.04328 0.15863 0.82231 0.0
H140 H 0.0397 0.17022 0.50196 0.0
H141 H 0.02273 0.16801 0.60455 0.0
H142 H 0.88474 0.12304 0.6275 0.0
C143 C 0.91159 0.12495 0.86851 0.0
C144 C 0.0075 0.15094 0.77958 0.0
C145 C 0.90505 0.12397 0.92928 0.0
C146 C 0.03064 0.15826 0.52542 0.0
C147 C 0.02118 0.15698 0.58465 0.0
C148 C 0.92062 0.13072 0.67026 0.0
C149 C 0.92348 0.14002 0.83505 0.0
C150 C 0.94257 0.14072 0.77733 0.0
C151 C 0.00462 0.14187 0.61452 0.0
C152 C 0.98547 0.14097 0.6724 0.0
H153 H 0.91996 0.16425 0.94271 0.0
H154 H 0.93078 0.16601 0.83565 0.0
H155 H 0.84886 0.12263 0.71846 0.0
H156 H 0.00594 0.11838 0.50314 0.0
H157 H 0.99088 0.11605 0.60818 0.0
C158 C 0.99925 0.90208 0.48838 0.0
C159 C 0.98677 0.88685 0.52034 0.0
C160 C 0.0076 0.90331 0.42818 0.0
C161 C 0.97669 0.88037 0.28414 0.0
H162 H 0.16162 0.90756 0.29692 0.0
C163 C 0.08997 0.87754 0.09129 0.0
C164 C 0.0982 0.89271 0.05615 0.0
C165 C 0.08227 0.87658 0.15172 0.0
C166 C 0.10953 0.89996 0.29238 0.0
H167 H 0.96767 0.86116 0.5114 0.0
H168 H 0.98177 0.86329 0.40715 0.0
H169 H 0.12581 0.90738 0.38772 0.0
H170 H 0.11078 0.91863 0.05987 0.0
H171 H 0.09858 0.91692 0.16514 0.0
H172 H 0.96079 0.87288 0.18908 0.0
C173 C 0.98515 0.87432 0.42791 0.0
C174 C 0.08851 0.89995 0.34409 0.0
C175 C 0.97727 0.87308 0.48797 0.0
C176 C 0.10451 0.90674 0.08578 0.0
C177 C 0.09766 0.90577 0.14631 0.0
C178 C 0.99792 0.88033 0.23264 0.0
C179 C 0.00296 0.88936 0.39856 0.0
C180 C 0.02186 0.89014 0.34072 0.0
C181 C 0.08367 0.89074 0.17855 0.0
C182 C 0.06462 0.89011 0.23612 0.0
H183 H 0.00766 0.91287 0.51257 0.0
H184 H 0.01999 0.91513 0.40614 0.0
H185 H 0.92432 0.87281 0.27923 0.0
H186 H 0.08416 0.86654 0.06935 0.0
H187 H 0.07271 0.86479 0.17608 0.0
C188 C 0.40765 0.62457 0.9273 0.0
C189 C 0.41401 0.63863 0.9568 0.0
C190 C 0.41421 0.62549 0.86657 0.0
C191 C 0.5133 0.65102 0.77938 0.0
H192 H 0.38763 0.62356 0.62573 0.0
C193 C 0.53617 0.6582 0.52514 0.0
C194 C 0.52805 0.64443 0.49329 0.0
C195 C 0.52706 0.65696 0.58455 0.0
C196 C 0.42431 0.63111 0.66894 0.0
H197 H 0.42774 0.66479 0.94303 0.0
H198 H 0.43851 0.66646 0.836 0.0
H199 H 0.35161 0.62336 0.71645 0.0
H200 H 0.50798 0.61839 0.50133 0.0
H201 H 0.49343 0.61612 0.60665 0.0
H202 H 0.58653 0.65868 0.73254 0.0
C203 C 0.42919 0.65468 0.86058 0.0
C204 C 0.40318 0.63109 0.72066 0.0
C205 C 0.42178 0.65377 0.92118 0.0
C206 C 0.51531 0.62919 0.52507 0.0
C207 C 0.50571 0.62795 0.58465 0.0
C208 C 0.53463 0.651 0.7279 0.0
C209 C 0.428 0.64049 0.83398 0.0
C210 C 0.44723 0.64108 0.77642 0.0
C211 C 0.50938 0.64191 0.61392 0.0
C212 C 0.49025 0.6411 0.67175 0.0
H213 H 0.40178 0.6127 0.95355 0.0
H214 H 0.41337 0.61431 0.84797 0.0
H215 H 0.54988 0.65858 0.82254 0.0
H216 H 0.54598 0.67013 0.50195 0.0
H217 H 0.52967 0.66799 0.60493 0.0
C218 C 0.60336 0.37857 0.09351 0.0
C219 C 0.60878 0.39375 0.05677 0.0
C220 C 0.59634 0.37761 0.15432 0.0
C221 C 0.6195 0.4013 0.29277 0.0
H222 H 0.44067 0.37268 0.28411 0.0
C223 C 0.50788 0.40247 0.48931 0.0
C224 C 0.4974 0.38716 0.52216 0.0
C225 C 0.51735 0.40378 0.42963 0.0
C226 C 0.49132 0.38065 0.28784 0.0
H227 H 0.61729 0.41972 0.05824 0.0
H228 H 0.60624 0.41803 0.16412 0.0
H229 H 0.47669 0.37302 0.19354 0.0
H230 H 0.4834 0.36138 0.51527 0.0
H231 H 0.49968 0.36365 0.41228 0.0
H232 H 0.63441 0.40887 0.38735 0.0
C233 C 0.60697 0.40686 0.14624 0.0
C234 C 0.5123 0.38077 0.23605 0.0
C235 C 0.61319 0.40783 0.08532 0.0
C236 C 0.49157 0.37337 0.49137 0.0
C237 C 0.50059 0.37467 0.43189 0.0
C238 C 0.59873 0.40113 0.3448 0.0
C239 C 0.59555 0.39179 0.18 0.0
C240 C 0.57673 0.39108 0.23786 0.0
C241 C 0.5158 0.38983 0.40134 0.0
C242 C 0.53445 0.39077 0.34316 0.0
H243 H 0.59902 0.36752 0.07246 0.0
H244 H 0.58889 0.36578 0.17984 0.0
H245 H 0.66982 0.40932 0.29606 0.0
H246 H 0.51331 0.41331 0.51213 0.0
H247 H 0.52771 0.41568 0.4067 0.0
C248 C 0.72451 0.13869 0.26958 0.0
C249 C 0.75068 0.1512 0.23427 0.0
C250 C 0.66989 0.14195 0.28891 0.0
C251 C 0.51092 0.17028 0.24423 0.0
H252 H 0.54138 0.14694 0.4265 0.0
C253 C 0.23146 0.16229 0.26376 0.0
C254 C 0.2135 0.14558 0.26993 0.0
C255 C 0.31375 0.16776 0.28956 0.0
C256 C 0.53296 0.1538 0.37619 0.0
H257 H 0.7356 0.17671 0.18708 0.0
H258 H 0.64016 0.1823 0.22079 0.0
H259 H 0.65354 0.147 0.40424 0.0
H260 H 0.26776 0.1216 0.31603 0.0
H261 H 0.41088 0.13103 0.35822 0.0
H262 H 0.38885 0.17627 0.21369 0.0
C263 C 0.66248 0.17004 0.23404 0.0
C264 C 0.59655 0.1537 0.3631 0.0
C265 C 0.71662 0.16677 0.2142 0.0
C266 C 0.27993 0.13453 0.30947 0.0
C267 C 0.36215 0.13998 0.33459 0.0
C268 C 0.44764 0.17043 0.25738 0.0
C269 C 0.64052 0.15776 0.27335 0.0
C270 C 0.58362 0.1611 0.29501 0.0
C271 C 0.3788 0.15657 0.32082 0.0
C272 C 0.45593 0.16131 0.32131 0.0
H273 H 0.74928 0.12656 0.28547 0.0
H274 H 0.65141 0.13211 0.31683 0.0
H275 H 0.49937 0.17616 0.19141 0.0
H276 H 0.18137 0.17111 0.23558 0.0
H277 H 0.32531 0.18063 0.27961 0.0
C278 C 0.76703 0.87429 0.74825 0.0
C279 C 0.80102 0.88805 0.72619 0.0
C280 C 0.67992 0.87225 0.7118 0.0
C281 C 0.49186 0.87253 0.63825 0.0
H282 H 0.46009 0.91338 0.67903 0.0
C283 C 0.27033 0.90115 0.71242 0.0
C284 C 0.26786 0.8873 0.75812 0.0
C285 C 0.32168 0.90155 0.68561 0.0
C286 C 0.46621 0.90202 0.66556 0.0
H287 H 0.77216 0.9088 0.64103 0.0
H288 H 0.61974 0.90534 0.5783 0.0
H289 H 0.56449 0.91171 0.65085 0.0
H290 H 0.32418 0.8639 0.8187 0.0
H291 H 0.41754 0.86502 0.77512 0.0
H292 H 0.39609 0.86269 0.65714 0.0
C293 C 0.66022 0.89632 0.62429 0.0
C294 C 0.52565 0.90107 0.64864 0.0
C295 C 0.74733 0.89841 0.6609 0.0
C296 C 0.32418 0.87465 0.78288 0.0
C297 C 0.37623 0.87514 0.75671 0.0
C298 C 0.43165 0.87352 0.65453 0.0
C299 C 0.62613 0.88398 0.65314 0.0
C300 C 0.54278 0.88608 0.63967 0.0
C301 C 0.37243 0.88825 0.70516 0.0
C302 C 0.42224 0.88803 0.67279 0.0
H303 H 0.80718 0.86585 0.79719 0.0
H304 H 0.65539 0.86256 0.7352 0.0
H305 H 0.50347 0.8609 0.63073 0.0
H306 H 0.22753 0.91112 0.69217 0.0
H307 H 0.31818 0.9119 0.64657 0.0
C308 C 0.78491 0.63517 0.3085 0.0
C309 C 0.71839 0.6462 0.26884 0.0
C310 C 0.86696 0.64062 0.33286 0.0
C311 C 0.95091 0.67073 0.25317 0.0
H312 H 0.1576 0.64756 0.40036 0.0
C313 C 0.21975 0.6667 0.20983 0.0
C314 C 0.25394 0.65111 0.23068 0.0
C315 C 0.16529 0.67008 0.22915 0.0
C316 C 0.10038 0.6542 0.35913 0.0
H317 H 0.68605 0.67172 0.23353 0.0
H318 H 0.82968 0.68122 0.27618 0.0
H319 H 0.04625 0.64772 0.42347 0.0
H320 H 0.25221 0.62655 0.28238 0.0
H321 H 0.15399 0.6323 0.31301 0.0
H322 H 0.0017 0.67617 0.18638 0.0
C323 C 0.8183 0.66837 0.28685 0.0
C324 C 0.03727 0.65442 0.37269 0.0
C325 C 0.73618 0.66291 0.26185 0.0
C326 C 0.22743 0.63869 0.26601 0.0
C327 C 0.17258 0.64206 0.28489 0.0
C328 C 0.01375 0.67046 0.23957 0.0
C329 C 0.88334 0.65717 0.31817 0.0
C330 C 0.95998 0.66183 0.31778 0.0
C331 C 0.14327 0.6579 0.26877 0.0
C332 C 0.08673 0.66138 0.29054 0.0
H333 H 0.7729 0.62224 0.31569 0.0
H334 H 0.91571 0.63166 0.35658 0.0
H335 H 0.89188 0.67648 0.20946 0.0
H336 H 0.23893 0.67657 0.18258 0.0
H337 H 0.14289 0.68235 0.21541 0.0
C338 C 0.80243 0.39392 0.76066 0.0
C339 C 0.77525 0.38135 0.79488 0.0
C340 C 0.86123 0.39086 0.74575 0.0
C341 C 0.02359 0.36309 0.79261 0.0
H342 H 0.97665 0.38322 0.60034 0.0
C343 C 0.28779 0.36895 0.75428 0.0
C344 C 0.30466 0.38566 0.74538 0.0
C345 C 0.20645 0.36344 0.7319 0.0
C346 C 0.98957 0.37723 0.65348 0.0
H347 H 0.79593 0.35628 0.84858 0.0
H348 H 0.89887 0.35103 0.82256 0.0
H349 H 0.87131 0.38414 0.62996 0.0
H350 H 0.24898 0.40949 0.69654 0.0
H351 H 0.10749 0.4 0.66 0.0
H352 H 0.14341 0.35699 0.81816 0.0
C353 C 0.87338 0.36312 0.80598 0.0
C354 C 0.93007 0.37793 0.6708 0.0
C355 C 0.81482 0.36619 0.82124 0.0
C356 C 0.23767 0.39658 0.70535 0.0
C357 C 0.15638 0.39108 0.68349 0.0
C358 C 0.08289 0.36234 0.77526 0.0
C359 C 0.89389 0.37522 0.76507 0.0
C360 C 0.94887 0.37167 0.74197 0.0
C361 C 0.14152 0.37462 0.70132 0.0
C362 C 0.06836 0.37025 0.70719 0.0
H363 H 0.77411 0.40581 0.74075 0.0
H364 H 0.87893 0.40059 0.71678 0.0
H365 H 0.0393 0.35808 0.84768 0.0
H366 H 0.3383 0.36022 0.78276 0.0
H367 H 0.19601 0.35065 0.74486 0.0
C368 C 0.44206 0.31776 0.58816 0.0
C369 C 0.42368 0.32396 0.63296 0.0
C370 C 0.40093 0.30374 0.55668 0.0
C371 C 0.28319 0.26729 0.57856 0.0
H372 H 0.21096 0.26434 0.37769 0.0
C373 C 0.07368 0.21427 0.42511 0.0
C374 C 0.09239 0.20808 0.38053 0.0
C375 C 0.11432 0.22835 0.45627 0.0
C376 C 0.23158 0.26488 0.43417 0.0
H377 H 0.34756 0.32041 0.67967 0.0
H378 H 0.27529 0.29603 0.62436 0.0
H379 H 0.28061 0.28905 0.43053 0.0
H380 H 0.16849 0.21169 0.33379 0.0
H381 H 0.23992 0.23616 0.38856 0.0
H382 H 0.23419 0.24311 0.58221 0.0
C383 C 0.32209 0.30187 0.61408 0.0
C384 C 0.27154 0.27907 0.46448 0.0
C385 C 0.36303 0.31592 0.64533 0.0
C386 C 0.15278 0.21618 0.36797 0.0
C387 C 0.19324 0.23028 0.39892 0.0
C388 C 0.24323 0.2531 0.54825 0.0
C389 C 0.34069 0.29556 0.56952 0.0
C390 C 0.29789 0.28046 0.53708 0.0
C391 C 0.17439 0.23658 0.44333 0.0
C392 C 0.21693 0.2517 0.47566 0.0
H393 H 0.48863 0.3237 0.57775 0.0
H394 H 0.41752 0.29914 0.52335 0.0
H395 H 0.30383 0.26783 0.63504 0.0
H396 H 0.02728 0.20829 0.43564 0.0
H397 H 0.09754 0.23295 0.48949 0.0
C398 C 0.6918 0.32571 0.98663 0.0
C399 C 0.61001 0.32845 0.92344 0.0
C400 C 0.72624 0.3101 0.01198 0.0
C401 C 0.67564 0.26621 0.98885 0.0
H402 H 0.90529 0.26544 0.03905 0.0
C403 C 0.82549 0.20588 0.02825 0.0
C404 C 0.90738 0.20317 0.09135 0.0
C405 C 0.7909 0.22148 1.00283 0.0
C406 C 0.84133 0.26539 0.02568 0.0
H407 H 0.49928 0.31701 0.83858 0.0
H408 H 0.55782 0.28981 0.88337 0.0
H409 H 0.84028 0.29131 0.01371 0.0
H410 H 0.01808 0.21466 0.17601 0.0
H411 H 0.95927 0.24183 0.13115 0.0
H412 H 0.6767 0.24028 1.00083 0.0
C413 C 0.59552 0.29954 0.9144 0.0
C414 C 0.80407 0.28027 0.01157 0.0
C415 C 0.56137 0.31513 0.88907 0.0
C416 C 0.95593 0.21651 0.12559 0.0
C417 C 0.92162 0.23209 0.10021 0.0
C418 C 0.71292 0.25133 1.00297 0.0
C419 C 0.67975 0.29691 0.97432 0.0
C420 C 0.72065 0.28092 0.99301 0.0
C421 C 0.83733 0.23468 0.04035 0.0
C422 C 0.79635 0.25068 0.02156 0.0
H423 H 0.73167 0.33584 0.01264 0.0
H424 H 0.7908 0.30853 0.059 0.0
H425 H 0.61168 0.26616 0.97546 0.0
H426 H 0.7857 0.19574 1.00235 0.0
H427 H 0.7263 0.22302 0.95587 0.0
C428 C 0.54848 0.72331 0.35331 0.0
C429 C 0.58964 0.70834 0.38065 0.0
C430 C 0.59056 0.73713 0.38625 0.0
C431 C 0.77395 0.75004 0.55976 0.0
H432 H 0.74127 0.79154 0.43641 0.0
C433 C 0.97538 0.80703 0.67729 0.0
C434 C 0.93405 0.822 0.64922 0.0
C435 C 0.93336 0.79312 0.64515 0.0
C436 C 0.75039 0.78009 0.47179 0.0
H437 H 0.7072 0.69608 0.46366 0.0
H438 H 0.78099 0.7202 0.52095 0.0
H439 H 0.66845 0.76745 0.3792 0.0
H440 H 0.8161 0.83412 0.56604 0.0
H441 H 0.74245 0.80985 0.51029 0.0
H442 H 0.85594 0.76269 0.65234 0.0
C443 C 0.71583 0.72126 0.47465 0.0
C444 C 0.70857 0.76625 0.43892 0.0
C445 C 0.67374 0.70745 0.44159 0.0
C446 C 0.84967 0.82276 0.58875 0.0
C447 C 0.80768 0.80886 0.55649 0.0
C448 C 0.81578 0.76388 0.59263 0.0
C449 C 0.67483 0.7363 0.44739 0.0
C450 C 0.7197 0.75104 0.48245 0.0
C451 C 0.84903 0.79386 0.58408 0.0
C452 C 0.80451 0.7791 0.5491 0.0
H453 H 0.48371 0.72438 0.30624 0.0
H454 H 0.55663 0.74844 0.36427 0.0
H455 H 0.78308 0.73859 0.59511 0.0
H456 H 0.0404 0.80607 0.72397 0.0
H457 H 0.96751 0.78184 0.66743 0.0
C458 C 0.45895 0.71688 0.12579 0.0
C459 C 0.41089 0.70355 0.0911 0.0
C460 C 0.42415 0.7324 0.10083 0.0
C461 C 0.23884 0.75737 0.94908 0.0
H462 H 0.28963 0.78009 0.10824 0.0
C463 C 0.05932 0.81533 0.88736 0.0
C464 C 0.10877 0.82839 0.92368 0.0
C465 C 0.09235 0.79965 0.91109 0.0
C466 C 0.2751 0.77401 0.06297 0.0
H467 H 0.28948 0.6961 1.00185 0.0
H468 H 0.22872 0.72322 0.95695 0.0
H469 H 0.35893 0.75458 0.13684 0.0
H470 H 0.23083 0.83521 0.01414 0.0
H471 H 0.28831 0.80788 0.05695 0.0
H472 H 0.15511 0.77685 0.8752 0.0
C473 C 0.29395 0.72181 1.00282 0.0
C474 C 0.3153 0.75936 0.07935 0.0
C475 C 0.32905 0.70626 0.02787 0.0
C476 C 0.19018 0.82527 0.98693 0.0
C477 C 0.22337 0.80958 0.01082 0.0
C478 C 0.19866 0.77204 0.93267 0.0
C479 C 0.33983 0.73496 0.04098 0.0
C480 C 0.29811 0.75084 0.02267 0.0
C481 C 0.17613 0.79667 0.97139 0.0
C482 C 0.21623 0.78061 0.98938 0.0
H483 H 0.52122 0.71505 0.17609 0.0
H484 H 0.46212 0.74225 0.13084 0.0
H485 H 0.22435 0.75128 0.90388 0.0
H486 H 0.99743 0.81749 0.83691 0.0
H487 H 0.05341 0.79002 0.87997 0.0
C488 C 0.05514 0.07301 0.08416 0.0
C489 C 0.00312 0.07407 0.10997 0.0
C490 C 0.05656 0.05878 0.05966 0.0
C491 C 0.00361 1.01459 0.07124 0.0
H492 H 0.01798 0.01735 0.90063 0.0
C493 C 0.96507 0.95782 0.9368 0.0
C494 C 0.01707 0.95685 0.91089 0.0
C495 C 0.96315 0.97205 0.96111 0.0
C496 C 0.01496 1.01631 0.94893 0.0
H497 H 0.91169 0.06099 0.13018 0.0
H498 H 0.9135 0.03626 0.08702 0.0
H499 H 0.01537 0.04214 0.94265 0.0
H500 H 0.10792 0.97007 0.89027 0.0
H501 H 0.10541 0.99476 0.93323 0.0
H502 H 0.00325 0.98876 0.07756 0.0
C503 C 0.95409 0.04633 0.0864 0.0
C504 C 0.01347 0.03058 0.97311 0.0
C505 C 0.95257 0.06057 0.11071 0.0
C506 C 0.06715 0.97042 0.90991 0.0
C507 C 0.06517 0.98464 0.93406 0.0
C508 C 0.00512 1.00032 0.04708 0.0
C509 C 0.00614 0.0452 0.06051 0.0
C510 C 0.00781 0.02995 0.03467 0.0
C511 C 0.01307 0.9857 0.95997 0.0
C512 C 0.0109 1.00095 0.98558 0.0
H513 H 0.09492 0.0832 0.08297 0.0
H514 H 0.09823 0.05835 0.04104 0.0
H515 H 0.00057 1.01355 0.11953 0.0
H516 H 0.92558 0.94759 0.9381 0.0
H517 H 0.92145 0.97242 0.97975 0.0
C518 C 0.96983 0.07722 0.40701 0.0
C519 C 0.97934 0.07934 0.34702 0.0
C520 C 0.97382 0.06169 0.44546 0.0
C521 C 0.95765 0.01786 0.42935 0.0
H522 H 0.08529 1.01218 0.6434 0.0
C523 C 0.03797 0.95423 0.60661 0.0
C524 C 0.0295 0.95211 0.66717 0.0
C525 C 0.03293 0.96973 0.56762 0.0
C526 C 0.04872 1.01356 0.5836 0.0
H527 H 0.99922 0.06661 0.28003 0.0
H528 H 0.00656 0.03984 0.34693 0.0
H529 H 0.07009 0.03927 0.57461 0.0
H530 H 0.00996 0.96484 0.7344 0.0
H531 H 0.00065 0.99157 0.66649 0.0
H532 H 0.9363 0.99215 0.43835 0.0
C533 C 0.99519 0.05009 0.36397 0.0
C534 C 0.03982 0.02911 0.54415 0.0
C535 C 0.99145 0.06554 0.32579 0.0
C536 C 0.01699 0.96591 0.68822 0.0
C537 C 0.01213 0.98133 0.64946 0.0
C538 C 0.96653 1.0023 0.4688 0.0
C539 C 0.98703 0.04795 0.42459 0.0
C540 C 0.99423 0.03146 0.46653 0.0
C541 C 0.01963 0.98347 0.58848 0.0
C542 C 0.01213 0.99996 0.54643 0.0
H543 H 0.96044 0.08755 0.42495 0.0
H544 H 0.96634 0.06044 0.49145 0.0
H545 H 0.92117 0.01924 0.36955 0.0
H546 H 0.04766 0.94391 0.58882 0.0
H547 H 0.0399 0.97097 0.52135 0.0
C548 C 0.57803 0.56417 0.15065 0.0
C549 C 0.50918 0.57474 0.10802 0.0
C550 C 0.57833 0.54994 0.12559 0.0
C551 C 0.47657 0.53039 0.9553 0.0
H552 H 0.56742 0.49097 0.09481 0.0
C553 C 0.44226 0.46803 0.86027 0.0
C554 C 0.51128 0.45751 0.90321 0.0
C555 C 0.44161 0.48229 0.885 0.0
C556 C 0.54266 0.5019 0.0551 0.0
H557 H 0.38663 0.57864 1.00553 0.0
H558 H 0.3866 0.55381 0.96209 0.0
H559 H 0.56756 0.51577 0.13807 0.0
H560 H 0.63378 0.45371 1.00583 0.0
H561 H 0.6332 0.47858 0.04868 0.0
H562 H 0.45169 0.5165 0.87232 0.0
C563 C 0.44104 0.55656 0.01453 0.0
C564 C 0.54277 0.51617 0.08 0.0
C565 C 0.44075 0.57078 0.03965 0.0
C566 C 0.57952 0.46155 0.97149 0.0
C567 C 0.57889 0.47578 0.99628 0.0
C568 C 0.47647 0.51611 0.93038 0.0
C569 C 0.50977 0.5459 0.05716 0.0
C570 C 0.50977 0.53065 0.03051 0.0
C571 C 0.50996 0.48639 0.95341 0.0
C572 C 0.50957 0.50164 0.9799 0.0
H573 H 0.63178 0.56689 0.20354 0.0
H574 H 0.6329 0.54219 0.1596 0.0
H575 H 0.45181 0.54131 0.9156 0.0
H576 H 0.38866 0.46526 0.80742 0.0
H577 H 0.38692 0.49001 0.8508 0.0
C578 C 0.52485 0.46612 0.68796 0.0
C579 C 0.53761 0.4523 0.66725 0.0
C580 C 0.52054 0.48154 0.64929 0.0
C581 C 0.47627 0.50238 0.46881 0.0
H582 H 0.5781 0.53949 0.57386 0.0
C583 C 0.49859 0.56573 0.32449 0.0
C584 C 0.48592 0.57949 0.34563 0.0
C585 C 0.50315 0.55027 0.36295 0.0
C586 C 0.54832 0.52929 0.54358 0.0
H587 H 0.55702 0.44404 0.58974 0.0
H588 H 0.55025 0.47108 0.52247 0.0
H589 H 0.59358 0.51244 0.64307 0.0
H590 H 0.4668 0.58759 0.42361 0.0
H591 H 0.47398 0.56049 0.49048 0.0
H592 H 0.43099 0.51924 0.36931 0.0
C593 C 0.54265 0.46987 0.56838 0.0
C594 C 0.55739 0.51376 0.58329 0.0
C595 C 0.54718 0.45438 0.6073 0.0
C596 C 0.47662 0.5773 0.40574 0.0
C597 C 0.48138 0.56177 0.44443 0.0
C598 C 0.4672 0.51791 0.42909 0.0
C599 C 0.52883 0.48363 0.58872 0.0
C600 C 0.52138 0.5001 0.54643 0.0
C601 C 0.49521 0.54807 0.42374 0.0
C602 C 0.50309 0.53158 0.46596 0.0
H603 H 0.51711 0.46506 0.73375 0.0
H604 H 0.50872 0.4918 0.66595 0.0
H605 H 0.44649 0.49218 0.43855 0.0
H606 H 0.5061 0.56687 0.27853 0.0
H607 H 0.51492 0.54005 0.34599 0.0
loop_
_geom_bond_atom_site_label_1
_geom_bond_atom_site_label_2
_geom_bond_distance
_geom_bond_site_symmetry_2
_ccdc_geom_bond_type
Co0 H3 2.400 1_655 S
Co0 O4 2.009 1_655 S
Co0 O12 2.115 . S
Co0 O13 2.315 1_655 S
Co0 O24 2.054 1_655 S
Co0 O27 2.094 . S
Co0 O30 2.122 . S
Co1 O4 2.126 1_655 S
Co1 H5 2.388 . S
Co1 O6 2.053 . S
Co1 O9 2.047 . S
Co1 O15 2.113 1_655 S
Co1 O26 2.063 1_655 S
Co2 H3 2.388 . S
Co2 O4 2.053 . S
Co2 O6 2.126 1_455 S
Co2 O11 2.063 1_455 S
Co2 O25 2.047 . S
Co2 O31 2.113 1_455 S
H3 Co0 2.400 1_455 S
H3 Co2 2.388 . S
H3 O4 0.760 . S
O4 Co0 2.009 1_455 S
O4 Co1 2.126 1_455 S
O4 Co2 2.053 . S
O4 H3 0.760 . S
H5 Co1 2.388 . S
H5 O6 0.760 . S
H5 Co7 2.400 1_655 S
O6 Co1 2.053 . S
O6 Co2 2.126 1_655 S
O6 H5 0.760 . S
O6 Co7 2.009 1_655 S
Co7 H5 2.400 1_455 S
Co7 O6 2.009 1_455 S
Co7 O8 2.053 . S
Co7 O10 2.094 . S
Co7 O14 2.122 . S
Co7 O28 2.115 . S
Co7 O29 2.315 1_455 S
O8 Co7 2.053 . S
O8 C20 1.259 1_455 S
O9 Co1 2.047 . S
O9 C20 1.257 . S
O10 Co7 2.094 . S
O10 C21 1.253 . S
O11 Co2 2.063 1_655 S
O11 C21 1.268 1_655 S
O12 Co0 2.115 . S
O12 C22 1.281 1_655 S
O13 Co0 2.315 1_455 S
O13 C22 1.252 . S
O14 Co7 2.122 . S
O14 C23 1.272 . S
O15 Co1 2.113 1_455 S
O15 C23 1.245 . S
C16 O24 1.260 . S
C16 O25 1.257 . S
C17 O26 1.268 1_655 S
C17 O27 1.253 . S
C18 O28 1.281 1_655 S
C18 O29 1.252 . S
C19 O30 1.272 . S
C19 O31 1.245 . S
C20 O8 1.259 1_655 S
C20 O9 1.257 . S
C21 O10 1.253 . S
C21 O11 1.268 1_455 S
C22 O12 1.281 1_455 S
C22 O13 1.252 . S
C23 O14 1.272 . S
C23 O15 1.245 . S
O24 Co0 2.054 1_455 S
O24 C16 1.260 . S
O25 Co2 2.047 . S
O25 C16 1.257 . S
O26 Co1 2.063 1_455 S
O26 C17 1.268 1_455 S
O27 Co0 2.094 . S
O27 C17 1.253 . S
O28 Co7 2.115 . S
O28 C18 1.281 1_455 S
O29 Co7 2.315 1_655 S
O29 C18 1.252 . S
O30 Co0 2.122 . S
O30 C19 1.272 . S
O31 Co2 2.113 1_655 S
O31 C19 1.245 . S
Co32 H35 2.400 1_655 S
Co32 O36 2.009 1_655 S
Co32 O44 2.115 . S
Co32 O45 2.315 1_655 S
Co32 O56 2.053 1_655 S
Co32 O59 2.094 . S
Co32 O62 2.122 . S
Co33 O36 2.126 . S
Co33 H37 2.388 1_455 S
Co33 O38 2.053 1_455 S
Co33 O41 2.047 1_455 S
Co33 O47 2.113 . S
Co33 O58 2.063 . S
Co34 H35 2.388 . S
Co34 O36 2.053 . S
Co34 O38 2.126 1_455 S
Co34 O43 2.063 . S
Co34 O57 2.047 . S
Co34 O63 2.113 1_455 S
H35 Co32 2.400 1_455 S
H35 Co34 2.388 . S
H35 O36 0.760 . S
O36 Co32 2.009 1_455 S
O36 Co33 2.126 . S
O36 Co34 2.053 . S
O36 H35 0.760 . S
H37 Co33 2.388 1_655 S
H37 O38 0.760 . S
H37 Co39 2.400 1_655 S
O38 Co33 2.053 1_655 S
O38 Co34 2.126 1_655 S
O38 H37 0.760 . S
O38 Co39 2.009 1_655 S
Co39 H37 2.400 1_455 S
Co39 O38 2.009 1_455 S
Co39 O40 2.053 . S
Co39 O42 2.094 . S
Co39 O46 2.122 . S
Co39 O60 2.115 . S
Co39 O61 2.315 1_455 S
O40 Co39 2.053 . S
O40 C52 1.259 1_455 S
O41 Co33 2.047 1_655 S
O41 C52 1.257 . S
O42 Co39 2.094 . S
O42 C53 1.253 . S
O43 Co34 2.063 . S
O43 C53 1.268 . S
O44 Co32 2.115 . S
O44 C54 1.281 1_655 S
O45 Co32 2.315 1_455 S
O45 C54 1.252 . S
O46 Co39 2.122 . S
O46 C55 1.272 . S
O47 Co33 2.113 . S
O47 C55 1.245 . S
C48 O56 1.259 . S
C48 O57 1.257 . S
C49 O58 1.268 1_655 S
C49 O59 1.253 . S
C50 O60 1.281 1_655 S
C50 O61 1.252 . S
C51 O62 1.272 . S
C51 O63 1.245 . S
C52 O40 1.259 1_655 S
C52 O41 1.257 . S
C53 O42 1.253 . S
C53 O43 1.268 . S
C54 O44 1.281 1_455 S
C54 O45 1.252 . S
C55 O46 1.272 . S
C55 O47 1.245 . S
O56 Co32 2.053 1_455 S
O56 C48 1.259 . S
O57 Co34 2.047 . S
O57 C48 1.257 . S
O58 Co33 2.063 . S
O58 C49 1.268 1_455 S
O59 Co32 2.094 . S
O59 C49 1.253 . S
O60 Co39 2.115 . S
O60 C50 1.281 1_455 S
O61 Co39 2.315 1_655 S
O61 C50 1.252 . S
O62 Co32 2.122 . S
O62 C51 1.272 . S
O63 Co34 2.113 1_655 S
O63 C51 1.245 . S
Co64 H67 2.400 . S
Co64 O68 2.009 . S
Co64 O76 2.115 . S
Co64 O77 2.315 . S
Co64 O88 2.053 . S
Co64 O91 2.094 . S
Co64 O94 2.122 . S
Co65 O68 2.126 . S
Co65 H69 2.388 . S
Co65 O70 2.053 . S
Co65 O73 2.047 . S
Co65 O79 2.113 . S
Co65 O90 2.063 . S
Co66 H67 2.388 . S
Co66 O68 2.053 . S
Co66 O70 2.126 . S
Co66 O75 2.063 . S
Co66 O89 2.047 . S
Co66 O95 2.113 . S
H67 Co64 2.400 . S
H67 Co66 2.388 . S
H67 O68 0.760 . S
O68 Co64 2.009 . S
O68 Co65 2.126 . S
O68 Co66 2.053 . S
O68 H67 0.760 . S
H69 Co65 2.388 . S
H69 O70 0.760 . S
H69 Co71 2.400 . S
O70 Co65 2.053 . S
O70 Co66 2.126 . S
O70 H69 0.760 . S
O70 Co71 2.009 . S
Co71 H69 2.400 . S
Co71 O70 2.009 . S
Co71 O72 2.053 . S
Co71 O74 2.094 . S
Co71 O78 2.122 . S
Co71 O92 2.115 . S
Co71 O93 2.315 . S
O72 Co71 2.053 . S
O72 C84 1.259 . S
O73 Co65 2.047 . S
O73 C84 1.257 . S
O74 Co71 2.094 . S
O74 C85 1.253 . S
O75 Co66 2.063 . S
O75 C85 1.268 . S
O76 Co64 2.115 . S
O76 C86 1.281 . S
O77 Co64 2.315 . S
O77 C86 1.252 . S
O78 Co71 2.122 . S
O78 C87 1.272 . S
O79 Co65 2.113 . S
O79 C87 1.245 . S
C80 O88 1.259 . S
C80 O89 1.257 . S
C81 O90 1.268 . S
C81 O91 1.253 . S
C82 O92 1.281 . S
C82 O93 1.252 . S
C83 O94 1.272 . S
C83 O95 1.245 . S
C84 O72 1.259 . S
C84 O73 1.257 . S
C85 O74 1.253 . S
C85 O75 1.268 . S
C86 O76 1.281 . S
C86 O77 1.252 . S
C87 O78 1.272 . S
C87 O79 1.245 . S
O88 Co64 2.053 . S
O88 C80 1.259 . S
O89 Co66 2.047 . S
O89 C80 1.257 . S
O90 Co65 2.063 . S
O90 C81 1.268 . S
O91 Co64 2.094 . S
O91 C81 1.253 . S
O92 Co71 2.115 . S
O92 C82 1.281 . S
O93 Co71 2.315 . S
O93 C82 1.252 . S
O94 Co64 2.122 . S
O94 C83 1.272 . S
O95 Co66 2.113 . S
O95 C83 1.245 . S
Co96 H99 2.400 . S
Co96 O100 2.009 . S
Co96 O108 2.115 . S
Co96 O109 2.315 . S
Co96 O120 2.053 . S
Co96 O123 2.094 . S
Co96 O126 2.122 . S
Co97 O100 2.126 . S
Co97 H101 2.388 . S
Co97 O102 2.053 . S
Co97 O105 2.047 . S
Co97 O111 2.113 . S
Co97 O122 2.063 . S
Co98 H99 2.388 . S
Co98 O100 2.053 . S
Co98 O102 2.126 . S
Co98 O107 2.063 . S
Co98 O121 2.047 . S
Co98 O127 2.113 . S
H99 Co96 2.400 . S
H99 Co98 2.388 . S
H99 O100 0.760 . S
O100 Co96 2.009 . S
O100 Co97 2.126 . S
O100 Co98 2.053 . S
O100 H99 0.760 . S
H101 Co97 2.388 . S
H101 O102 0.760 . S
H101 Co103 2.400 . S
O102 Co97 2.053 . S
O102 Co98 2.126 . S
O102 H101 0.760 . S
O102 Co103 2.009 . S
Co103 H101 2.400 . S
Co103 O102 2.009 . S
Co103 O104 2.053 . S
Co103 O106 2.094 . S
Co103 O110 2.122 . S
Co103 O124 2.115 . S
Co103 O125 2.315 . S
O104 Co103 2.053 . S
O104 C116 1.259 . S
O105 Co97 2.047 . S
O105 C116 1.257 . S
O106 Co103 2.094 . S
O106 C117 1.253 . S
O107 Co98 2.063 . S
O107 C117 1.268 . S
O108 Co96 2.115 . S
O108 C118 1.281 . S
O109 Co96 2.315 . S
O109 C118 1.252 . S
O110 Co103 2.122 . S
O110 C119 1.272 . S
O111 Co97 2.113 . S
O111 C119 1.245 . S
C112 O120 1.259 . S
C112 O121 1.257 . S
C113 O122 1.268 . S
C113 O123 1.253 . S
C114 O124 1.281 . S
C114 O125 1.252 . S
C115 O126 1.272 . S
C115 O127 1.245 . S
C116 O104 1.259 . S
C116 O105 1.257 . S
C117 O106 1.253 . S
C117 O107 1.268 . S
C118 O108 1.281 . S
C118 O109 1.252 . S
C119 O110 1.272 . S
C119 O111 1.245 . S
O120 Co96 2.053 . S
O120 C112 1.259 . S
O121 Co98 2.047 . S
O121 C112 1.257 . S
O122 Co97 2.063 . S
O122 C113 1.268 . S
O123 Co96 2.094 . S
O123 C113 1.253 . S
O124 Co103 2.115 . S
O124 C114 1.281 . S
O125 Co103 2.315 . S
O125 C114 1.252 . S
O126 Co96 2.122 . S
O126 C115 1.272 . S
O127 Co98 2.113 . S
O127 C115 1.245 . S
C128 C129 1.349 1_455 S
C128 C130 1.327 . S
C128 H153 0.950 . S
C129 C128 1.349 1_655 S
C129 C145 1.349 . S
C130 C128 1.327 . S
C130 C149 1.429 1_455 S
C130 H154 0.950 . S
C131 C148 1.574 . S
C131 C150 1.368 . S
C131 H155 0.949 . S
H132 C136 0.949 . S
C133 C134 1.349 1_655 S
C133 C135 1.327 . S
C133 H156 0.950 . S
C134 C133 1.349 1_455 S
C134 C146 1.349 . S
C135 C133 1.327 . S
C135 C151 1.429 1_655 S
C135 H157 0.950 . S
C136 H132 0.949 . S
C136 C144 1.574 . S
C136 C152 1.368 . S
H137 C145 0.950 . S
H138 C143 0.950 . S
H139 C144 0.949 . S
H140 C146 0.950 . S
H141 C147 0.950 . S
H142 C148 0.949 . S
C143 H138 0.950 . S
C143 C145 1.327 . S
C143 C149 1.429 . S
C144 C136 1.574 . S
C144 H139 0.949 . S
C144 C150 1.368 1_455 S
C145 C129 1.349 . S
C145 H137 0.950 . S
C145 C143 1.327 . S
C146 C134 1.349 . S
C146 H140 0.950 . S
C146 C147 1.327 . S
C147 H141 0.950 . S
C147 C146 1.327 . S
C147 C151 1.429 . S
C148 C131 1.574 . S
C148 H142 0.949 . S
C148 C152 1.368 1_655 S
C149 C130 1.429 1_655 S
C149 C143 1.429 . S
C149 C150 1.523 . S
C150 C131 1.368 . S
C150 C144 1.368 1_655 S
C150 C149 1.523 . S
C151 C135 1.429 1_455 S
C151 C147 1.429 . S
C151 C152 1.523 . S
C152 C136 1.368 . S
C152 C148 1.368 1_455 S
C152 C151 1.523 . S
H153 C128 0.950 . S
H154 C130 0.950 . S
H155 C131 0.949 . S
H156 C133 0.950 . S
H157 C135 0.950 . S
C158 C159 1.349 1_455 S
C158 C160 1.327 . S
C158 H183 0.950 . S
C159 C158 1.349 1_655 S
C159 C175 1.349 . S
C160 C158 1.327 . S
C160 C179 1.429 . S
C160 H184 0.950 . S
C161 C178 1.574 . S
C161 C180 1.368 1_655 S
C161 H185 0.949 . S
H162 C166 0.949 . S
C163 C164 1.349 1_655 S
C163 C165 1.327 . S
C163 H186 0.950 . S
C164 C163 1.349 1_455 S
C164 C176 1.349 . S
C165 C163 1.327 . S
C165 C181 1.429 1_655 S
C165 H187 0.950 . S
C166 H162 0.949 . S
C166 C174 1.574 . S
C166 C182 1.368 . S
H167 C175 0.950 . S
H168 C173 0.950 . S
H169 C174 0.949 . S
H170 C176 0.950 . S
H171 C177 0.950 . S
H172 C178 0.949 . S
C173 H168 0.950 . S
C173 C175 1.327 . S
C173 C179 1.429 1_655 S
C174 C166 1.574 . S
C174 H169 0.949 . S
C174 C180 1.368 . S
C175 C159 1.349 . S
C175 H167 0.950 . S
C175 C173 1.327 . S
C176 C164 1.349 . S
C176 H170 0.950 . S
C176 C177 1.327 . S
C177 H171 0.950 . S
C177 C176 1.327 . S
C177 C181 1.429 . S
C178 C161 1.574 . S
C178 H172 0.949 . S
C178 C182 1.368 1_655 S
C179 C160 1.429 . S
C179 C173 1.429 1_455 S
C179 C180 1.523 . S
C180 C161 1.368 1_455 S
C180 C174 1.368 . S
C180 C179 1.523 . S
C181 C165 1.429 1_455 S
C181 C177 1.429 . S
C181 C182 1.523 . S
C182 C166 1.368 . S
C182 C178 1.368 1_455 S
C182 C181 1.523 . S
H183 C158 0.950 . S
H184 C160 0.950 . S
H185 C161 0.949 . S
H186 C163 0.950 . S
H187 C165 0.950 . S
C188 C189 1.349 . S
C188 C190 1.327 . S
C188 H213 0.950 . S
C189 C188 1.349 . S
C189 C205 1.349 . S
C190 C188 1.327 . S
C190 C209 1.429 . S
C190 H214 0.950 . S
C191 C208 1.574 . S
C191 C210 1.368 . S
C191 H215 0.949 . S
H192 C196 0.949 . S
C193 C194 1.349 . S
C193 C195 1.327 . S
C193 H216 0.950 . S
C194 C193 1.349 . S
C194 C206 1.349 . S
C195 C193 1.327 . S
C195 C211 1.429 . S
C195 H217 0.950 . S
C196 H192 0.949 . S
C196 C204 1.574 . S
C196 C212 1.368 . S
H197 C205 0.950 . S
H198 C203 0.950 . S
H199 C204 0.949 . S
H200 C206 0.950 . S
H201 C207 0.950 . S
H202 C208 0.949 . S
C203 H198 0.950 . S
C203 C205 1.327 . S
C203 C209 1.429 . S
C204 C196 1.574 . S
C204 H199 0.949 . S
C204 C210 1.368 . S
C205 C189 1.349 . S
C205 H197 0.950 . S
C205 C203 1.327 . S
C206 C194 1.349 . S
C206 H200 0.950 . S
C206 C207 1.327 . S
C207 H201 0.950 . S
C207 C206 1.327 . S
C207 C211 1.429 . S
C208 C191 1.574 . S
C208 H202 0.949 . S
C208 C212 1.368 . S
C209 C190 1.429 . S
C209 C203 1.429 . S
C209 C210 1.523 . S
C210 C191 1.368 . S
C210 C204 1.368 . S
C210 C209 1.523 . S
C211 C195 1.429 . S
C211 C207 1.429 . S
C211 C212 1.523 . S
C212 C196 1.368 . S
C212 C208 1.368 . S
C212 C211 1.523 . S
H213 C188 0.950 . S
H214 C190 0.950 . S
H215 C191 0.949 . S
H216 C193 0.950 . S
H217 C195 0.950 . S
C218 C219 1.349 . S
C218 C220 1.327 . S
C218 H243 0.950 . S
C219 C218 1.349 . S
C219 C235 1.349 . S
C220 C218 1.327 . S
C220 C239 1.429 . S
C220 H244 0.950 . S
C221 C238 1.574 . S
C221 C240 1.368 . S
C221 H245 0.949 . S
H222 C226 0.949 . S
C223 C224 1.349 . S
C223 C225 1.327 . S
C223 H246 0.950 . S
C224 C223 1.349 . S
C224 C236 1.349 . S
C225 C223 1.327 . S
C225 C241 1.429 . S
C225 H247 0.950 . S
C226 H222 0.949 . S
C226 C234 1.574 . S
C226 C242 1.368 . S
H227 C235 0.950 1_556 S
H228 C233 0.950 . S
H229 C234 0.949 . S
H230 C236 0.950 . S
H231 C237 0.950 . S
H232 C238 0.949 . S
C233 H228 0.950 . S
C233 C235 1.327 . S
C233 C239 1.429 . S
C234 C226 1.574 . S
C234 H229 0.949 . S
C234 C240 1.368 . S
C235 C219 1.349 . S
C235 H227 0.950 1_554 S
C235 C233 1.327 . S
C236 C224 1.349 . S
C236 H230 0.950 . S
C236 C237 1.327 . S
C237 H231 0.950 . S
C237 C236 1.327 . S
C237 C241 1.429 . S
C238 C221 1.574 . S
C238 H232 0.949 . S
C238 C242 1.368 . S
C239 C220 1.429 . S
C239 C233 1.429 . S
C239 C240 1.523 . S
C240 C221 1.368 . S
C240 C234 1.368 . S
C240 C239 1.523 . S
C241 C225 1.429 . S
C241 C237 1.429 . S
C241 C242 1.523 . S
C242 C226 1.368 . S
C242 C238 1.368 . S
C242 C241 1.523 . S
H243 C218 0.950 . S
H244 C220 0.950 . S
H245 C221 0.949 . S
H246 C223 0.950 . S
H247 C225 0.950 . S
C248 C249 1.349 . S
C248 C250 1.327 . S
C248 H273 0.950 . S
C249 C248 1.349 . S
C249 C265 1.349 . S
C250 C248 1.327 . S
C250 C269 1.429 . S
C250 H274 0.950 . S
C251 C268 1.574 . S
C251 C270 1.368 . S
C251 H275 0.949 . S
H252 C256 0.949 . S
C253 C254 1.349 . S
C253 C255 1.327 . S
C253 H276 0.950 . S
C254 C253 1.349 . S
C254 C266 1.349 . S
C255 C253 1.327 . S
C255 C271 1.429 . S
C255 H277 0.950 . S
C256 H252 0.949 . S
C256 C264 1.574 . S
C256 C272 1.368 . S
H257 C265 0.950 . S
H258 C263 0.950 . S
H259 C264 0.949 . S
H260 C266 0.950 . S
H261 C267 0.950 . S
H262 C268 0.949 . S
C263 H258 0.950 . S
C263 C265 1.327 . S
C263 C269 1.429 . S
C264 C256 1.574 . S
C264 H259 0.949 . S
C264 C270 1.368 . S
C265 C249 1.349 . S
C265 H257 0.950 . S
C265 C263 1.327 . S
C266 C254 1.349 . S
C266 H260 0.950 . S
C266 C267 1.327 . S
C267 H261 0.950 . S
C267 C266 1.327 . S
C267 C271 1.429 . S
C268 C251 1.574 . S
C268 H262 0.949 . S
C268 C272 1.368 . S
C269 C250 1.429 . S
C269 C263 1.429 . S
C269 C270 1.523 . S
C270 C251 1.368 . S
C270 C264 1.368 . S
C270 C269 1.523 . S
C271 C255 1.429 . S
C271 C267 1.429 . S
C271 C272 1.523 . S
C272 C256 1.368 . S
C272 C268 1.368 . S
C272 C271 1.523 . S
H273 C248 0.950 . S
H274 C250 0.950 . S
H275 C251 0.949 . S
H276 C253 0.950 . S
H277 C255 0.950 . S
C278 C279 1.349 . S
C278 C280 1.327 . S
C278 H303 0.950 . S
C279 C278 1.349 . S
C279 C295 1.349 . S
C280 C278 1.327 . S
C280 C299 1.429 . S
C280 H304 0.950 . S
C281 C298 1.574 . S
C281 C300 1.368 . S
C281 H305 0.949 . S
H282 C286 0.949 . S
C283 C284 1.349 . S
C283 C285 1.327 . S
C283 H306 0.950 . S
C284 C283 1.349 . S
C284 C296 1.349 . S
C285 C283 1.327 . S
C285 C301 1.429 . S
C285 H307 0.950 . S
C286 H282 0.949 . S
C286 C294 1.574 . S
C286 C302 1.368 . S
H287 C295 0.950 . S
H288 C293 0.950 . S
H289 C294 0.949 . S
H290 C296 0.950 . S
H291 C297 0.950 . S
H292 C298 0.949 . S
C293 H288 0.950 . S
C293 C295 1.327 . S
C293 C299 1.429 . S
C294 C286 1.574 . S
C294 H289 0.949 . S
C294 C300 1.368 . S
C295 C279 1.349 . S
C295 H287 0.950 . S
C295 C293 1.327 . S
C296 C284 1.349 . S
C296 H290 0.950 . S
C296 C297 1.327 . S
C297 H291 0.950 . S
C297 C296 1.327 . S
C297 C301 1.429 . S
C298 C281 1.574 . S
C298 H292 0.949 . S
C298 C302 1.368 . S
C299 C280 1.429 . S
C299 C293 1.429 . S
C299 C300 1.523 . S
C300 C281 1.368 . S
C300 C294 1.368 . S
C300 C299 1.523 . S
C301 C285 1.429 . S
C301 C297 1.429 . S
C301 C302 1.523 . S
C302 C286 1.368 . S
C302 C298 1.368 . S
C302 C301 1.523 . S
H303 C278 0.950 . S
H304 C280 0.950 . S
H305 C281 0.949 . S
H306 C283 0.950 . S
H307 C285 0.950 . S
C308 C309 1.349 . S
C308 C310 1.327 . S
C308 H333 0.950 . S
C309 C308 1.349 . S
C309 C325 1.349 . S
C310 C308 1.327 . S
C310 C329 1.429 . S
C310 H334 0.950 . S
C311 C328 1.574 1_655 S
C311 C330 1.368 . S
C311 H335 0.949 . S
H312 C316 0.949 . S
C313 C314 1.349 . S
C313 C315 1.327 . S
C313 H336 0.950 . S
C314 C313 1.349 . S
C314 C326 1.349 . S
C315 C313 1.327 . S
C315 C331 1.429 . S
C315 H337 0.950 . S
C316 H312 0.949 . S
C316 C324 1.574 1_455 S
C316 C332 1.368 . S
H317 C325 0.950 . S
H318 C323 0.950 . S
H319 C324 0.949 . S
H320 C326 0.950 . S
H321 C327 0.950 . S
H322 C328 0.949 . S
C323 H318 0.950 . S
C323 C325 1.327 . S
C323 C329 1.429 . S
C324 C316 1.574 1_655 S
C324 H319 0.949 . S
C324 C330 1.368 . S
C325 C309 1.349 . S
C325 H317 0.950 . S
C325 C323 1.327 . S
C326 C314 1.349 . S
C326 H320 0.950 . S
C326 C327 1.327 . S
C327 H321 0.950 . S
C327 C326 1.327 . S
C327 C331 1.429 . S
C328 C311 1.574 1_455 S
C328 H322 0.949 . S
C328 C332 1.368 . S
C329 C310 1.429 . S
C329 C323 1.429 . S
C329 C330 1.523 . S
C330 C311 1.368 . S
C330 C324 1.368 . S
C330 C329 1.523 . S
C331 C315 1.429 . S
C331 C327 1.429 . S
C331 C332 1.523 . S
C332 C316 1.368 . S
C332 C328 1.368 . S
C332 C331 1.523 . S
H333 C308 0.950 . S
H334 C310 0.950 . S
H335 C311 0.949 . S
H336 C313 0.950 . S
H337 C315 0.950 . S
C338 C339 1.349 . S
C338 C340 1.327 . S
C338 H363 0.950 . S
C339 C338 1.349 . S
C339 C355 1.349 . S
C340 C338 1.327 . S
C340 C359 1.429 . S
C340 H364 0.950 . S
C341 C358 1.574 1_655 S
C341 C360 1.368 . S
C341 H365 0.949 . S
H342 C346 0.949 . S
C343 C344 1.349 . S
C343 C345 1.327 . S
C343 H366 0.950 . S
C344 C343 1.349 . S
C344 C356 1.349 . S
C345 C343 1.327 . S
C345 C361 1.429 . S
C345 H367 0.950 . S
C346 H342 0.949 . S
C346 C354 1.574 1_455 S
C346 C362 1.368 . S
H347 C355 0.950 . S
H348 C353 0.950 . S
H349 C354 0.949 . S
H350 C356 0.950 . S
H351 C357 0.950 . S
H352 C358 0.949 . S
C353 H348 0.950 . S
C353 C355 1.327 . S
C353 C359 1.429 . S
C354 C346 1.574 1_655 S
C354 H349 0.949 . S
C354 C360 1.368 . S
C355 C339 1.349 . S
C355 H347 0.950 . S
C355 C353 1.327 . S
C356 C344 1.349 . S
C356 H350 0.950 . S
C356 C357 1.327 . S
C357 H351 0.950 . S
C357 C356 1.327 . S
C357 C361 1.429 . S
C358 C341 1.574 1_455 S
C358 H352 0.949 . S
C358 C362 1.368 . S
C359 C340 1.429 . S
C359 C353 1.429 . S
C359 C360 1.523 . S
C360 C341 1.368 . S
C360 C354 1.368 . S
C360 C359 1.523 . S
C361 C345 1.429 . S
C361 C357 1.429 . S
C361 C362 1.523 . S
C362 C346 1.368 . S
C362 C358 1.368 . S
C362 C361 1.523 . S
H363 C338 0.950 . S
H364 C340 0.950 . S
H365 C341 0.949 . S
H366 C343 0.950 . S
H367 C345 0.950 . S
C368 C369 1.349 . S
C368 C370 1.327 . S
C368 H393 0.950 . S
C369 C368 1.349 . S
C369 C385 1.349 . S
C370 C368 1.327 . S
C370 C389 1.429 . S
C370 H394 0.950 . S
C371 C388 1.574 . S
C371 C390 1.368 . S
C371 H395 0.949 . S
H372 C376 0.949 . S
C373 C374 1.349 . S
C373 C375 1.327 . S
C373 H396 0.950 . S
C374 C373 1.349 . S
C374 C386 1.349 . S
C375 C373 1.327 . S
C375 C391 1.429 . S
C375 H397 0.950 . S
C376 H372 0.949 . S
C376 C384 1.574 . S
C376 C392 1.368 . S
H377 C385 0.950 . S
H378 C383 0.950 . S
H379 C384 0.949 . S
H380 C386 0.950 . S
H381 C387 0.950 . S
H382 C388 0.949 . S
C383 H378 0.950 . S
C383 C385 1.327 . S
C383 C389 1.429 . S
C384 C376 1.574 . S
C384 H379 0.949 . S
C384 C390 1.368 . S
C385 C369 1.349 . S
C385 H377 0.950 . S
C385 C383 1.327 . S
C386 C374 1.349 . S
C386 H380 0.950 . S
C386 C387 1.327 . S
C387 H381 0.950 . S
C387 C386 1.327 . S
C387 C391 1.429 . S
C388 C371 1.574 . S
C388 H382 0.949 . S
C388 C392 1.368 . S
C389 C370 1.429 . S
C389 C383 1.429 . S
C389 C390 1.523 . S
C390 C371 1.368 . S
C390 C384 1.368 . S
C390 C389 1.523 . S
C391 C375 1.429 . S
C391 C387 1.429 . S
C391 C392 1.523 . S
C392 C376 1.368 . S
C392 C388 1.368 . S
C392 C391 1.523 . S
H393 C368 0.950 . S
H394 C370 0.950 . S
H395 C371 0.949 . S
H396 C373 0.950 . S
H397 C375 0.950 . S
C398 C399 1.349 . S
C398 C400 1.327 . S
C398 H423 0.950 . S
C399 C398 1.349 . S
C399 C415 1.349 . S
C400 C398 1.327 . S
C400 C419 1.429 . S
C400 H424 0.950 . S
C401 C418 1.574 . S
C401 C420 1.368 1_554 S
C401 H425 0.949 . S
H402 C406 0.949 . S
C403 C404 1.349 . S
C403 C405 1.327 . S
C403 H426 0.950 . S
C404 C403 1.349 . S
C404 C416 1.349 . S
C405 C403 1.327 . S
C405 C421 1.429 . S
C405 H427 0.950 . S
C406 H402 0.949 . S
C406 C414 1.574 . S
C406 C422 1.368 1_556 S
H407 C415 0.950 . S
H408 C413 0.950 . S
H409 C414 0.949 . S
H410 C416 0.950 . S
H411 C417 0.950 . S
H412 C418 0.949 . S
C413 H408 0.950 . S
C413 C415 1.327 . S
C413 C419 1.429 . S
C414 C406 1.574 . S
C414 H409 0.949 . S
C414 C420 1.368 . S
C415 C399 1.349 . S
C415 H407 0.950 . S
C415 C413 1.327 . S
C416 C404 1.349 . S
C416 H410 0.950 . S
C416 C417 1.327 . S
C417 H411 0.950 . S
C417 C416 1.327 . S
C417 C421 1.429 . S
C418 C401 1.574 . S
C418 H412 0.949 . S
C418 C422 1.368 . S
C419 C400 1.429 . S
C419 C413 1.429 . S
C419 C420 1.523 . S
C420 C401 1.368 1_556 S
C420 C414 1.368 . S
C420 C419 1.523 . S
C421 C405 1.429 . S
C421 C417 1.429 . S
C421 C422 1.523 . S
C422 C406 1.368 1_554 S
C422 C418 1.368 . S
C422 C421 1.523 . S
H423 C398 0.950 . S
H424 C400 0.950 . S
H425 C401 0.949 . S
H426 C403 0.950 . S
H427 C405 0.950 . S
C428 C429 1.349 . S
C428 C430 1.327 . S
C428 H453 0.950 . S
C429 C428 1.349 . S
C429 C445 1.349 . S
C430 C428 1.327 . S
C430 C449 1.429 . S
C430 H454 0.950 . S
C431 C448 1.574 . S
C431 C450 1.368 . S
C431 H455 0.949 . S
H432 C436 0.949 . S
C433 C434 1.349 . S
C433 C435 1.327 . S
C433 H456 0.950 . S
C434 C433 1.349 . S
C434 C446 1.349 . S
C435 C433 1.327 . S
C435 C451 1.429 . S
C435 H457 0.950 . S
C436 H432 0.949 . S
C436 C444 1.574 . S
C436 C452 1.368 . S
H437 C445 0.950 . S
H438 C443 0.950 . S
H439 C444 0.949 . S
H440 C446 0.950 . S
H441 C447 0.950 . S
H442 C448 0.949 . S
C443 H438 0.950 . S
C443 C445 1.327 . S
C443 C449 1.429 . S
C444 C436 1.574 . S
C444 H439 0.949 . S
C444 C450 1.368 . S
C445 C429 1.349 . S
C445 H437 0.950 . S
C445 C443 1.327 . S
C446 C434 1.349 . S
C446 H440 0.950 . S
C446 C447 1.327 . S
C447 H441 0.950 . S
C447 C446 1.327 . S
C447 C451 1.429 . S
C448 C431 1.574 . S
C448 H442 0.949 . S
C448 C452 1.368 . S
C449 C430 1.429 . S
C449 C443 1.429 . S
C449 C450 1.523 . S
C450 C431 1.368 . S
C450 C444 1.368 . S
C450 C449 1.523 . S
C451 C435 1.429 . S
C451 C447 1.429 . S
C451 C452 1.523 . S
C452 C436 1.368 . S
C452 C448 1.368 . S
C452 C451 1.523 . S
H453 C428 0.950 . S
H454 C430 0.950 . S
H455 C431 0.949 . S
H456 C433 0.950 . S
H457 C435 0.950 . S
C458 C459 1.349 . S
C458 C460 1.327 . S
C458 H483 0.950 . S
C459 C458 1.349 . S
C459 C475 1.349 . S
C460 C458 1.327 . S
C460 C479 1.429 . S
C460 H484 0.950 . S
C461 C478 1.574 . S
C461 C480 1.368 1_556 S
C461 H485 0.949 . S
H462 C466 0.949 . S
C463 C464 1.349 . S
C463 C465 1.327 . S
C463 H486 0.950 . S
C464 C463 1.349 . S
C464 C476 1.349 . S
C465 C463 1.327 . S
C465 C481 1.429 . S
C465 H487 0.950 . S
C466 H462 0.949 . S
C466 C474 1.574 . S
C466 C482 1.368 1_554 S
H467 C475 0.950 . S
H468 C473 0.950 1_556 S
H469 C474 0.949 . S
H470 C476 0.950 . S
H471 C477 0.950 1_554 S
H472 C478 0.949 . S
C473 H468 0.950 1_554 S
C473 C475 1.327 . S
C473 C479 1.429 . S
C474 C466 1.574 . S
C474 H469 0.949 . S
C474 C480 1.368 . S
C475 C459 1.349 . S
C475 H467 0.950 . S
C475 C473 1.327 . S
C476 C464 1.349 . S
C476 H470 0.950 . S
C476 C477 1.327 . S
C477 H471 0.950 1_556 S
C477 C476 1.327 . S
C477 C481 1.429 . S
C478 C461 1.574 . S
C478 H472 0.949 . S
C478 C482 1.368 . S
C479 C460 1.429 . S
C479 C473 1.429 . S
C479 C480 1.523 . S
C480 C461 1.368 1_554 S
C480 C474 1.368 . S
C480 C479 1.523 . S
C481 C465 1.429 . S
C481 C477 1.429 . S
C481 C482 1.523 . S
C482 C466 1.368 1_556 S
C482 C478 1.368 . S
C482 C481 1.523 . S
H483 C458 0.950 . S
H484 C460 0.950 . S
H485 C461 0.949 . S
H486 C463 0.950 . S
H487 C465 0.950 . S
C488 C489 1.349 1_455 S
C488 C490 1.327 . S
C488 H513 0.950 . S
C489 C488 1.349 1_655 S
C489 C505 1.349 . S
C490 C488 1.327 . S
C490 C509 1.429 1_455 S
C490 H514 0.950 . S
C491 C508 1.574 . S
C491 C510 1.368 1_665 S
C491 H515 0.949 . S
H492 C496 0.949 . S
C493 C494 1.349 . S
C493 C495 1.327 1_455 S
C493 H516 0.950 1_455 S
C494 C493 1.349 . S
C494 C506 1.349 . S
C495 C493 1.327 1_655 S
C495 C511 1.429 1_655 S
C495 H517 0.950 . S
C496 H492 0.949 . S
C496 C504 1.574 . S
C496 C512 1.368 1_545 S
H497 C505 0.950 . S
H498 C503 0.950 . S
H499 C504 0.949 . S
H500 C506 0.950 . S
H501 C507 0.950 . S
H502 C508 0.949 . S
C503 H498 0.950 . S
C503 C505 1.327 . S
C503 C509 1.429 . S
C504 C496 1.574 . S
C504 H499 0.949 . S
C504 C510 1.368 1_556 S
C505 C489 1.349 . S
C505 H497 0.950 . S
C505 C503 1.327 . S
C506 C494 1.349 . S
C506 H500 0.950 . S
C506 C507 1.327 . S
C507 H501 0.950 . S
C507 C506 1.327 . S
C507 C511 1.429 . S
C508 C491 1.574 . S
C508 H502 0.949 . S
C508 C512 1.368 1_654 S
C509 C490 1.429 1_655 S
C509 C503 1.429 . S
C509 C510 1.523 1_655 S
C510 C491 1.368 1_445 S
C510 C504 1.368 1_554 S
C510 C509 1.523 1_455 S
C511 C495 1.429 1_455 S
C511 C507 1.429 . S
C511 C512 1.523 . S
C512 C496 1.368 1_565 S
C512 C508 1.368 1_456 S
C512 C511 1.523 . S
H513 C488 0.950 . S
H514 C490 0.950 . S
H515 C491 0.949 . S
H516 C493 0.950 1_655 S
H517 C495 0.950 . S
C518 C519 1.349 . S
C518 C520 1.327 . S
C518 H543 0.950 . S
C519 C518 1.349 . S
C519 C535 1.349 . S
C520 C518 1.327 . S
C520 C539 1.429 . S
C520 H544 0.950 . S
C521 C538 1.574 1_545 S
C521 C540 1.368 . S
C521 H545 0.949 . S
H522 C526 0.949 . S
C523 C524 1.349 . S
C523 C525 1.327 . S
C523 H546 0.950 . S
C524 C523 1.349 . S
C524 C536 1.349 . S
C525 C523 1.327 . S
C525 C541 1.431 1_655 S
C525 H547 0.950 . S
C526 H522 0.949 . S
C526 C534 1.574 1_565 S
C526 C542 1.368 . S
H527 C535 0.950 . S
H528 C533 0.950 . S
H529 C534 0.949 . S
H530 C536 0.950 . S
H531 C537 0.950 . S
H532 C538 0.949 . S
C533 H528 0.950 . S
C533 C535 1.327 . S
C533 C539 1.429 . S
C534 C526 1.574 1_545 S
C534 H529 0.949 . S
C534 C540 1.368 . S
C535 C519 1.349 . S
C535 H527 0.950 . S
C535 C533 1.327 . S
C536 C524 1.349 . S
C536 H530 0.950 . S
C536 C537 1.327 1_655 S
C537 H531 0.950 . S
C537 C536 1.327 1_455 S
C537 C541 1.424 . S
C538 C521 1.574 1_565 S
C538 H532 0.949 . S
C538 C542 1.368 . S
C539 C520 1.429 . S
C539 C533 1.429 . S
C539 C540 1.523 . S
C540 C521 1.368 . S
C540 C534 1.368 . S
C540 C539 1.523 . S
C541 C525 1.431 1_455 S
C541 C537 1.424 . S
C541 C542 1.525 . S
C542 C526 1.368 . S
C542 C538 1.368 . S
C542 C541 1.525 . S
H543 C518 0.950 . S
H544 C520 0.950 . S
H545 C521 0.949 . S
H546 C523 0.950 . S
H547 C525 0.950 . S
C548 C549 1.349 . S
C548 C550 1.327 . S
C548 H573 0.950 . S
C549 C548 1.349 . S
C549 C565 1.349 . S
C550 C548 1.327 . S
C550 C569 1.429 . S
C550 H574 0.950 . S
C551 C568 1.574 . S
C551 C570 1.368 1_556 S
C551 H575 0.949 . S
H552 C556 0.949 . S
C553 C554 1.349 . S
C553 C555 1.327 . S
C553 H576 0.950 . S
C554 C553 1.349 . S
C554 C566 1.349 . S
C555 C553 1.327 . S
C555 C571 1.429 . S
C555 H577 0.950 . S
C556 H552 0.949 . S
C556 C564 1.574 . S
C556 C572 1.368 1_554 S
H557 C565 0.950 . S
H558 C563 0.950 1_556 S
H559 C564 0.949 . S
H560 C566 0.950 . S
H561 C567 0.950 1_554 S
H562 C568 0.949 . S
C563 H558 0.950 1_554 S
C563 C565 1.327 . S
C563 C569 1.429 . S
C564 C556 1.574 . S
C564 H559 0.949 . S
C564 C570 1.368 . S
C565 C549 1.349 . S
C565 H557 0.950 . S
C565 C563 1.327 . S
C566 C554 1.349 . S
C566 H560 0.950 . S
C566 C567 1.327 . S
C567 H561 0.950 1_556 S
C567 C566 1.327 . S
C567 C571 1.429 . S
C568 C551 1.574 . S
C568 H562 0.949 . S
C568 C572 1.368 . S
C569 C550 1.429 . S
C569 C563 1.429 . S
C569 C570 1.523 . S
C570 C551 1.368 1_554 S
C570 C564 1.368 . S
C570 C569 1.523 . S
C571 C555 1.429 . S
C571 C567 1.429 . S
C571 C572 1.523 . S
C572 C556 1.368 1_556 S
C572 C568 1.368 . S
C572 C571 1.523 . S
H573 C548 0.950 . S
H574 C550 0.950 . S
H575 C551 0.949 . S
H576 C553 0.950 . S
H577 C555 0.950 . S
C578 C579 1.349 . S
C578 C580 1.327 . S
C578 H603 0.950 . S
C579 C578 1.349 . S
C579 C595 1.349 . S
C580 C578 1.327 . S
C580 C599 1.429 . S
C580 H604 0.950 . S
C581 C598 1.574 . S
C581 C600 1.368 . S
C581 H605 0.949 . S
H582 C586 0.949 . S
C583 C584 1.349 . S
C583 C585 1.327 . S
C583 H606 0.950 . S
C584 C583 1.349 . S
C584 C596 1.349 . S
C585 C583 1.327 . S
C585 C601 1.429 . S
C585 H607 0.950 . S
C586 H582 0.949 . S
C586 C594 1.574 . S
C586 C602 1.368 . S
H587 C595 0.950 . S
H588 C593 0.950 . S
H589 C594 0.949 . S
H590 C596 0.950 . S
H591 C597 0.950 . S
H592 C598 0.949 . S
C593 H588 0.950 . S
C593 C595 1.327 . S
C593 C599 1.429 . S
C594 C586 1.574 . S
C594 H589 0.949 . S
C594 C600 1.368 . S
C595 C579 1.349 . S
C595 H587 0.950 . S
C595 C593 1.327 . S
C596 C584 1.349 . S
C596 H590 0.950 . S
C596 C597 1.327 . S
C597 H591 0.950 . S
C597 C596 1.327 . S
C597 C601 1.429 . S
C598 C581 1.574 . S
C598 H592 0.949 . S
C598 C602 1.368 . S
C599 C580 1.429 . S
C599 C593 1.429 . S
C599 C600 1.523 . S
C600 C581 1.368 . S
C600 C594 1.368 . S
C600 C599 1.523 . S
C601 C585 1.429 . S
C601 C597 1.429 . S
C601 C602 1.523 . S
C602 C586 1.368 . S
C602 C598 1.368 . S
C602 C601 1.523 . S
H603 C578 0.950 . S
H604 C580 0.950 . S
H605 C581 0.949 . S
H606 C583 0.950 . S
H607 C585 0.950 . S
C129 C20 1.503 1_556 S
C134 C16 1.503 . S
C159 C52 1.503 . S
C164 C48 1.503 1_554 S
C189 C84 1.503 1_556 S
C194 C80 1.503 . S
C219 C112 1.503 1_554 S
C224 C116 1.503 . S
C249 C19 0.454 . S
C254 C23 0.454 . S
C279 C51 0.454 . S
C284 C55 0.454 . S
C309 C87 0.454 . S
C314 C83 0.454 . S
C339 C119 0.454 . S
C344 C115 0.454 . S
C369 C114 1.845 . S
C374 C22 1.845 . S
C399 C117 2.116 . S
C404 C17 2.116 . S
C429 C86 1.844 . S
C434 C50 1.844 . S
C459 C81 2.117 . S
C464 C53 2.117 . S
C489 C18 2.057 . S
C494 C54 2.057 . S
C519 C21 1.717 . S
C524 C49 1.717 . S
C549 C82 2.057 . S
C554 C118 2.057 . S
C579 C113 1.717 . S
C584 C85 1.717 . S
