# Generated by pormake.
# Topology bsn, (6)-cn, num edge types: 1
# Building blocks:
#     Node 0, Type 0, BuildingBlock: FUNLAD_clean_sbu_0, # of connection points: 6
#     Node 1, Type 0, BuildingBlock: FUNLAD_clean_sbu_0, # of connection points: 6
#     Node 2, Type 0, BuildingBlock: FUNLAD_clean_sbu_0, # of connection points: 6
#     Node 3, Type 0, BuildingBlock: FUNLAD_clean_sbu_0, # of connection points: 6
#     Edge 4, Type (0, 0), BuildingBlock: MIFKUJ_clean_linker_0, # of connection points: 2
#     Edge 5, Type (0, 0), BuildingBlock: MIFKUJ_clean_linker_0, # of connection points: 2
#     Edge 6, Type (0, 0), BuildingBlock: MIFKUJ_clean_linker_0, # of connection points: 2
#     Edge 7, Type (0, 0), BuildingBlock: MIFKUJ_clean_linker_0, # of connection points: 2
#     Edge 8, Type (0, 0), BuildingBlock: MIFKUJ_clean_linker_0, # of connection points: 2
#     Edge 9, Type (0, 0), BuildingBlock: MIFKUJ_clean_linker_0, # of connection points: 2
#     Edge 10, Type (0, 0), BuildingBlock: MIFKUJ_clean_linker_0, # of connection points: 2
#     Edge 11, Type (0, 0), BuildingBlock: MIFKUJ_clean_linker_0, # of connection points: 2
#     Edge 12, Type (0, 0), BuildingBlock: MIFKUJ_clean_linker_0, # of connection points: 2
#     Edge 13, Type (0, 0), BuildingBlock: MIFKUJ_clean_linker_0, # of connection points: 2
#     Edge 14, Type (0, 0), BuildingBlock: MIFKUJ_clean_linker_0, # of connection points: 2
#     Edge 15, Type (0, 0), BuildingBlock: MIFKUJ_clean_linker_0, # of connection points: 2
# Relax obj value: 0.396
# Max RMSD: 0.254
# Mean RMSD: 0.254
data_MOF--net-bsn--node1-FUNLAD_clean_sbu_0--edge1-MIFKUJ_clean_linker_0
_symmetry_space_group_name_H-M    P1
_symmetry_Int_Tables_number       1
_symmetry_cell_setting            triclinic
loop_
_symmetry_equiv_pos_as_xyz
'x, y, z'
_cell_length_a     36.828652
_cell_length_b     36.614052
_cell_length_c     25.369431
_cell_angle_alpha  91.576584
_cell_angle_beta   93.026154
_cell_angle_gamma 95.734951
loop_
_atom_site_label
_atom_site_type_symbol
_atom_site_fract_x
_atom_site_fract_y
_atom_site_fract_z
_atom_type_partial_charge
C0 C 0.10963 0.25619 0.36313 0.0
N1 N 0.03299 0.24762 0.24009 0.0
C2 C 0.05441 0.27425 0.21693 0.0
C3 C 0.04885 0.28027 0.16364 0.0
C4 C 1.02122 0.25849 0.13414 0.0
C5 C 1.00138 0.22929 0.15783 0.0
C6 C 1.00768 0.22438 0.21168 0.0
Zn7 Zn 0.03377 0.25089 0.31883 0.0
C8 C 0.02829 0.17954 0.3727 0.0
N9 N 0.03398 0.26502 0.48227 0.0
C10 C 0.05898 0.28986 0.50839 0.0
C11 C 1.00686 0.24591 0.50739 0.0
C12 C 1.00376 0.25192 0.56115 0.0
C13 C 0.02862 0.27805 0.58867 0.0
C14 C 0.05662 0.29706 0.56208 0.0
Zn15 Zn 0.03435 0.25943 0.40386 0.0
O16 O 0.08972 0.25412 0.32098 0.0
C17 C 0.03972 0.33142 0.35838 0.0
O18 O 0.09475 0.25822 0.40737 0.0
H19 H 0.98722 0.22652 0.48549 0.0
H20 H 0.07436 0.29233 0.2404 0.0
H21 H 0.08027 0.30466 0.48733 0.0
O22 O 0.03512 0.3122 0.31538 0.0
O23 O 0.04139 0.31535 0.40144 0.0
H24 H 0.99092 0.20356 0.23133 0.0
O25 O 0.9739 0.26103 0.39643 0.0
O26 O 0.97762 0.24635 0.31302 0.0
O27 O 0.02728 0.20287 0.41012 0.0
O28 O 0.03237 0.1908 0.32594 0.0
C29 C 0.95821 0.25274 0.35099 0.0
H30 H 0.06521 0.30245 0.14597 0.0
H31 H 0.98005 0.21186 0.1357 0.0
H32 H 0.98181 0.23689 0.58082 0.0
H33 H 0.07647 0.31704 0.58265 0.0
C34 C 0.11027 0.75905 0.60567 0.0
N35 N 1.01838 0.76111 0.49495 0.0
C36 C 0.04062 0.78445 0.4673 0.0
C37 C 0.0324 0.78943 0.41405 0.0
C38 C 1.00121 0.76991 0.38907 0.0
C39 C 0.9792 0.74527 0.41803 0.0
C40 C 0.98823 0.74145 0.47152 0.0
Zn41 Zn 0.02888 0.75901 0.57355 0.0
C42 C 0.02859 0.6826 0.60586 0.0
N43 N 0.05151 0.75751 0.73732 0.0
C44 C 0.07483 0.78405 0.76301 0.0
C45 C 0.03052 0.73241 0.76393 0.0
C46 C 0.03081 0.73481 0.8187 0.0
C47 C 0.05306 0.76322 0.84625 0.0
C48 C 0.07615 0.78738 0.81794 0.0
Zn49 Zn 0.04269 0.75875 0.65849 0.0
O50 O 0.08888 0.75727 0.56399 0.0
C51 C 0.04358 0.83516 0.61751 0.0
O52 O 0.09711 0.7608 0.65038 0.0
H53 H 1.01195 0.71177 0.74251 0.0
H54 H 0.06446 0.79972 0.4868 0.0
H55 H 0.0911 0.80364 0.7407 0.0
O56 O 0.03649 0.81542 0.57608 0.0
O57 O 0.0467 0.81975 0.66183 0.0
H58 H 0.97092 0.72319 0.49452 0.0
O59 O 0.98787 0.75671 0.67045 0.0
O60 O 0.97003 0.76084 0.58774 0.0
O61 O 0.03943 0.69791 0.65059 0.0
O62 O 1.02105 0.70246 0.56767 0.0
C63 C 0.96221 0.7587 0.63607 0.0
H64 H 0.05042 0.80807 0.39247 0.0
H65 H 0.95506 0.72966 0.39972 0.0
H66 H 1.01213 0.71595 0.83886 0.0
H67 H 0.094 0.80937 0.83786 0.0
C68 C 0.60713 0.77282 0.84791 0.0
N69 N 0.52134 0.77836 0.74081 0.0
C70 C 0.54354 0.80316 0.71549 0.0
C71 C 0.53905 0.80592 0.6612 0.0
C72 C 0.5112 0.78327 0.63341 0.0
C73 C 0.48845 0.75813 0.66031 0.0
C74 C 0.4943 0.75589 0.71462 0.0
Zn75 Zn 0.52774 0.77652 0.81897 0.0
C76 C 0.52202 0.70001 0.86018 0.0
N77 N 0.54397 0.77536 0.98201 0.0
C78 C 0.57143 0.79718 0.00846 0.0
C79 C 0.51608 0.75766 0.00724 0.0
C80 C 0.51331 0.76415 0.0608 0.0
C81 C 0.53961 0.78883 0.0882 0.0
C82 C 0.56991 0.80418 0.06242 0.0
Zn83 Zn 0.53836 0.77563 0.90358 0.0
O84 O 0.58305 0.77658 0.81172 0.0
C85 C 0.54319 0.8523 0.87119 0.0
O86 O 0.59735 0.7706 0.89537 0.0
H87 H 0.49476 0.74025 0.98525 0.0
H88 H 0.56466 0.82083 0.73747 0.0
H89 H 0.59322 0.81095 0.98718 0.0
O90 O 0.53263 0.83754 0.8261 0.0
O91 O 0.54904 0.83185 0.90918 0.0
H92 H 0.47721 0.73642 0.73604 0.0
O93 O 0.47826 0.78074 0.90808 0.0
O94 O 0.47288 0.77639 0.82192 0.0
O95 O 0.5279 0.71965 0.90196 0.0
O96 O 0.52186 0.71548 0.81566 0.0
C97 C 0.45825 0.7793 0.86524 0.0
H98 H 0.55691 0.82565 0.64112 0.0
H99 H 0.46698 0.74012 0.63943 0.0
H100 H 0.49013 0.75113 0.08023 0.0
H101 H 0.5909 0.82293 0.08298 0.0
C102 C 0.60165 0.27685 0.11265 0.0
N103 N 0.51659 0.26169 -0.00906 0.0
C104 C 0.54389 0.27584 0.96119 0.0
C105 C 0.54004 0.27247 0.90647 0.0
C106 C 0.5075 0.2551 0.8824 0.0
C107 C 0.47973 0.24071 0.9138 0.0
C108 C 0.48515 0.24378 0.96853 0.0
Zn109 Zn 0.52234 0.27006 0.06979 0.0
C110 C 0.52017 0.20043 0.12099 0.0
N111 N 0.53508 0.29089 0.23289 0.0
C112 C 0.5564 0.32068 0.25441 0.0
C113 C 0.515 0.26736 0.26312 0.0
C114 C 0.51528 0.27377 0.31729 0.0
C115 C 0.53613 0.30476 0.34009 0.0
C116 C 0.55735 0.32821 0.30868 0.0
Zn117 Zn 0.52982 0.28205 0.15422 0.0
O118 O 0.58271 0.26605 0.07036 0.0
C119 C 0.53236 0.3507 0.09327 0.0
O120 O 0.58541 0.28659 0.15243 0.0
H121 H 0.49818 0.24399 0.24505 0.0
H122 H 0.56833 0.29053 0.97983 0.0
H123 H 0.57217 0.33887 0.22938 0.0
O124 O 0.53091 0.32573 0.05765 0.0
O125 O 0.53038 0.34156 0.14131 0.0
H126 H 0.464 0.23238 -0.00696 0.0
O127 O 0.4741 0.2788 0.1601 0.0
O128 O 0.46261 0.27368 0.07467 0.0
O129 O 0.52952 0.22101 0.16208 0.0
O130 O 0.51369 0.21505 0.07761 0.0
C131 C 0.45122 0.27656 0.12112 0.0
H132 H 0.56171 0.28447 0.88314 0.0
H133 H 0.45433 0.2271 0.89617 0.0
H134 H 0.49924 0.25488 0.34116 0.0
H135 H 0.57393 0.35215 0.32579 0.0
H136 H 0.98612 0.37643 0.33867 0.0
H137 H 0.98523 0.43813 0.37887 0.0
H138 H 0.09814 0.43774 0.43322 0.0
H139 H 0.09879 0.37618 0.39361 0.0
H140 H 0.05749 0.45151 0.51362 0.0
H141 H 0.07103 0.49815 0.34004 0.0
H142 H 0.05576 0.50302 0.24486 0.0
H143 H 0.94942 0.53299 0.27862 0.0
H144 H 0.96388 0.52781 0.37402 0.0
H145 H 0.0819 0.63658 0.62449 0.0
H146 H 0.08485 0.57646 0.5803 0.0
H147 H 0.97492 0.57943 0.51383 0.0
H148 H 0.97261 0.63974 0.55632 0.0
H149 H 1.01534 0.56453 0.43873 0.0
H150 H 1.00007 0.51658 0.6111 0.0
H151 H 1.01375 0.51056 0.70648 0.0
H152 H 0.12105 0.48185 0.67573 0.0
H153 H 0.10817 0.48816 0.58017 0.0
C154 C 1.01123 0.39041 0.35668 0.0
C155 C 0.04282 0.37194 0.36176 0.0
C156 C 1.01063 0.42552 0.38035 0.0
C157 C 0.0416 0.4427 0.40954 0.0
C158 C 0.07385 0.42518 0.41125 0.0
C159 C 0.07441 0.39023 0.38775 0.0
C160 C 0.03957 0.47691 0.44251 0.0
C161 C 0.04879 0.47642 0.49704 0.0
C162 C 0.02719 0.50915 0.42151 0.0
C163 C 1.01842 0.51223 0.36416 0.0
C164 C 0.04427 0.50546 0.32716 0.0
C165 C 0.03579 0.50835 0.27316 0.0
C166 C 1.00161 0.51821 0.25569 0.0
C167 C 0.97587 0.5253 0.2922 0.0
C168 C 0.98421 0.52243 0.34624 0.0
C169 C 0.05792 0.62362 0.60219 0.0
C170 C 0.02681 0.64254 0.59451 0.0
C171 C 0.05967 0.58933 0.57649 0.0
C172 C 0.03011 0.57316 0.54329 0.0
C173 C 0.99823 0.5912 0.53865 0.0
C174 C 0.99672 0.62551 0.5636 0.0
C175 C 0.03308 0.53916 0.51006 0.0
C176 C 0.02406 0.53966 0.45543 0.0
C177 C 0.0454 0.50683 0.53105 0.0
C178 C 0.05329 0.50325 0.58851 0.0
C179 C 0.0267 0.50931 0.62471 0.0
C180 C 0.03429 0.50577 0.6788 0.0
C181 C 0.06828 0.49593 0.69717 0.0
C182 C 0.09474 0.48953 0.66146 0.0
C183 C 0.08731 0.49306 0.60732 0.0
H184 H 0.0741 0.49318 0.73906 0.0
H185 H 0.99509 0.52044 0.21388 0.0
H186 H 0.62875 0.76986 0.74775 0.0
H187 H 0.68899 0.76564 0.71673 0.0
H188 H 0.73351 0.76527 0.87729 0.0
H189 H 0.67186 0.76978 0.90972 0.0
H190 H 0.77603 0.81173 0.81284 0.0
H191 H 0.72536 0.68727 0.80569 0.0
H192 H 0.67883 0.63484 0.78572 0.0
H193 H 0.68273 0.65463 0.61999 0.0
H194 H 0.72888 0.70758 0.63899 0.0
H195 H 0.94352 0.75693 0.73788 0.0
H196 H 0.88413 0.75867 0.77329 0.0
H197 H 0.83494 0.76327 0.61594 0.0
H198 H 0.89558 0.7614 0.57906 0.0
H199 H 0.7957 0.71328 0.68196 0.0
H200 H 0.84583 0.83979 0.69184 0.0
H201 H 0.89348 0.89091 0.71402 0.0
H202 H 0.89198 0.86488 0.87796 0.0
H203 H 0.84463 0.8133 0.85666 0.0
C204 C 0.65105 0.76886 0.7771 0.0
C205 C 0.64514 0.77009 0.83162 0.0
C206 C 0.6857 0.76624 0.75893 0.0
C207 C 0.71581 0.76455 0.79443 0.0
C208 C 0.71054 0.76628 0.84909 0.0
C209 C 0.67536 0.76877 0.86761 0.0
C210 C 0.75242 0.7616 0.77304 0.0
C211 C 0.78054 0.78981 0.78503 0.0
C212 C 0.75812 0.73353 0.73557 0.0
C213 C 0.7304 0.70162 0.72383 0.0
C214 C 0.71609 0.68065 0.765 0.0
C215 C 0.68981 0.65079 0.75385 0.0
C216 C 0.67778 0.64146 0.70163 0.0
C217 C 0.69206 0.66192 0.66043 0.0
C218 C 0.71831 0.69184 0.67137 0.0
C219 C 0.92033 0.75834 0.71017 0.0
C220 C 0.92463 0.75922 0.65522 0.0
C221 C 0.8862 0.75947 0.73088 0.0
C222 C 0.85507 0.76167 0.69755 0.0
C223 C 0.85873 0.76181 0.64249 0.0
C224 C 0.89333 0.76081 0.62142 0.0
C225 C 0.81908 0.7636 0.7213 0.0
C226 C 0.79115 0.73515 0.70981 0.0
C227 C 0.81368 0.79126 0.75956 0.0
C228 C 0.84184 0.82254 0.77259 0.0
C229 C 0.85581 0.84484 0.73258 0.0
C230 C 0.88274 0.87392 0.745 0.0
C231 C 0.89578 0.88111 0.79736 0.0
C232 C 0.88185 0.85929 0.83742 0.0
C233 C 0.85492 0.83016 0.82521 0.0
H234 H 0.91665 0.90363 0.80689 0.0
H235 H 0.65744 0.61832 0.69307 0.0
H236 H 0.56962 0.37703 0.01166 0.0
H237 H 0.56671 0.43576 0.96996 0.0
H238 H 0.49845 0.47029 0.09111 0.0
H239 H 0.50117 0.41059 0.13337 0.0
H240 H 0.46993 0.48102 -0.01039 0.0
H241 H 0.58569 0.50945 0.08557 0.0
H242 H 0.64839 0.49883 0.11577 0.0
H243 H 0.68036 0.49863 0.95544 0.0
H244 H 0.6177 0.50875 0.92418 0.0
H245 H 0.47521 0.66744 0.92562 0.0
H246 H 0.47561 0.6063 0.96015 0.0
H247 H 0.55439 0.58077 0.84817 0.0
H248 H 0.55482 0.64334 0.8144 0.0
H249 H 0.5774 0.56396 0.94259 0.0
H250 H 0.46356 0.53644 0.84525 0.0
H251 H 0.40106 0.54584 0.81252 0.0
H252 H 0.36526 0.54217 0.97081 0.0
H253 H 0.42768 0.53331 0.00464 0.0
C254 C 0.55458 0.39738 0.03023 0.0
C255 C 0.53575 0.38923 0.07602 0.0
C256 C 0.55297 0.43105 0.00625 0.0
C257 C 0.53248 0.45765 0.02732 0.0
C258 C 0.51451 0.45019 0.07415 0.0
C259 C 0.51638 0.41631 0.09864 0.0
C260 C 0.52845 0.49207 -0.00174 0.0
C261 C 0.49337 0.49955 0.98011 0.0
C262 C 0.55912 0.51539 0.98375 0.0
C263 C 0.5969 0.50957 0.00251 0.0
C264 C 0.60602 0.50688 0.05671 0.0
C265 C 0.64157 0.501 0.07403 0.0
C266 C 0.66832 0.49798 0.03754 0.0
C267 C 0.6596 0.50095 0.98366 0.0
C268 C 0.62409 0.50681 0.96613 0.0
C269 C 0.49165 0.64836 0.90696 0.0
C270 C 0.51464 0.66 0.86685 0.0
C271 C 0.49186 0.61324 0.92682 0.0
C272 C 0.51481 0.58848 0.90675 0.0
C273 C 0.53634 0.59928 0.86434 0.0
C274 C 0.5362 0.6348 0.84441 0.0
C275 C 0.51876 0.55322 0.93401 0.0
C276 C 0.55388 0.54548 0.95184 0.0
C277 C 0.48811 0.52945 0.94776 0.0
C278 C 0.45041 0.53447 0.92752 0.0
C279 C 0.44243 0.53788 0.87314 0.0
C280 C 0.407 0.54308 0.85438 0.0
C281 C 0.37922 0.54467 0.88957 0.0
C282 C 0.38681 0.54095 0.9436 0.0
C283 C 0.4222 0.53579 0.96258 0.0
H284 H 0.35182 0.54872 0.87498 0.0
H285 H 0.69583 0.49341 0.05102 0.0
H286 H 0.9098 0.30204 0.37844 0.0
H287 H 0.84841 0.30534 0.33645 0.0
H288 H 0.85631 0.20301 0.2514 0.0
H289 H 0.91732 0.20015 0.29228 0.0
H290 H 0.83697 0.25106 0.1846 0.0
H291 H 0.79611 0.21118 0.35137 0.0
H292 H 0.79228 0.21256 0.44813 0.0
H293 H 0.75338 0.31919 0.44287 0.0
H294 H 0.75748 0.31867 0.34609 0.0
H295 H 0.64559 0.223 0.08607 0.0
H296 H 0.70775 0.21803 0.12464 0.0
H297 H 0.70901 0.32568 0.19845 0.0
H298 H 0.64772 0.33075 0.16003 0.0
H299 H 0.72316 0.2737 0.2704 0.0
H300 H 0.76448 0.31259 0.1024 0.0
H301 H 0.76775 0.30972 0.00559 0.0
H302 H 0.80484 0.20239 0.0135 0.0
H303 H 0.80128 0.20439 0.11039 0.0
C304 C 0.89777 0.27968 0.35229 0.0
C305 C 0.91819 0.25068 0.33905 0.0
C306 C 0.86279 0.28167 0.32786 0.0
C307 C 0.84761 0.2545 0.29022 0.0
C308 C 0.86733 0.22452 0.27968 0.0
C309 C 0.9021 0.2227 0.30361 0.0
C310 C 0.81247 0.2581 0.25912 0.0
C311 C 0.81198 0.25549 0.20356 0.0
C312 C 0.77985 0.26457 0.28334 0.0
C313 C 0.7775 0.26506 0.34154 0.0
C314 C 0.78707 0.23507 0.37089 0.0
C315 C 0.78478 0.23567 0.42573 0.0
C316 C 0.7727 0.26599 0.45165 0.0
C317 C 0.7628 0.29575 0.42275 0.0
C318 C 0.76508 0.29531 0.3679 0.0
C319 C 0.65986 0.24615 0.10857 0.0
C320 C 0.64193 0.27738 0.11966 0.0
C321 C 0.6952 0.24316 0.13119 0.0
C322 C 0.71294 0.27133 0.16517 0.0
C323 C 0.69588 0.30344 0.17297 0.0
C324 C 0.66095 0.30645 0.15043 0.0
C325 C 0.74778 0.26669 0.1961 0.0
C326 C 0.74817 0.26914 0.25159 0.0
C327 C 0.78022 0.25981 0.17184 0.0
C328 C 0.78217 0.25846 0.11359 0.0
C329 C 0.77296 0.28821 0.08346 0.0
C330 C 0.77495 0.28678 0.02858 0.0
C331 C 0.78637 0.25584 0.00339 0.0
C332 C 0.79592 0.2263 0.03306 0.0
C333 C 0.79393 0.22758 0.08796 0.0
H334 H 0.78793 0.25481 0.9609 0.0
H335 H 0.77092 0.26639 0.49411 0.0
H336 H 0.42529 0.32874 0.18058 0.0
H337 H 0.36732 0.3247 0.2234 0.0
H338 H 0.33261 0.22315 0.13669 0.0
H339 H 0.39108 0.2275 0.09293 0.0
H340 H 0.27528 0.26411 0.14916 0.0
H341 H 0.36915 0.22228 0.26159 0.0
H342 H 0.42809 0.22319 0.31271 0.0
H343 H 0.40345 0.31732 0.40356 0.0
H344 H 0.34458 0.31743 0.35238 0.0
H345 H 0.14002 0.20067 0.31771 0.0
H346 H 0.19916 0.20454 0.27781 0.0
H347 H 0.22664 0.31267 0.3491 0.0
H348 H 0.16681 0.30886 0.38908 0.0
H349 H 0.28744 0.26748 0.34516 0.0
H350 H 0.19372 0.30942 0.2289 0.0
H351 H 0.13352 0.30494 0.18064 0.0
H352 H 0.15756 0.20662 0.09918 0.0
H353 H 0.21796 0.21045 0.14721 0.0
C354 C 0.40479 0.30616 0.16926 0.0
C355 C 0.41252 0.27865 0.13295 0.0
C356 C 0.37182 0.30361 0.19436 0.0
C357 C 0.34585 0.27314 0.18448 0.0
C358 C 0.3523 0.24683 0.14531 0.0
C359 C 0.38551 0.2495 0.11981 0.0
C360 C 0.31315 0.2682 0.21715 0.0
C361 C 0.27805 0.26437 0.19195 0.0
C362 C 0.3165 0.26914 0.27327 0.0
C363 C 0.35253 0.27004 0.30278 0.0
C364 C 0.37647 0.24348 0.29198 0.0
C365 C 0.40982 0.24375 0.32108 0.0
C366 C 0.41941 0.27026 0.36138 0.0
C367 C 0.3959 0.29679 0.37234 0.0
C368 C 0.36255 0.2967 0.3433 0.0
C369 C 0.15931 0.22465 0.32677 0.0
C370 C 0.14911 0.25419 0.35733 0.0
C371 C 0.19292 0.22703 0.30332 0.0
C372 C 0.21711 0.25914 0.30958 0.0
C373 C 0.20835 0.28763 0.34362 0.0
C374 C 0.17441 0.28528 0.36708 0.0
C375 C 0.24983 0.26373 0.27712 0.0
C376 C 0.28484 0.26738 0.30236 0.0
C377 C 0.24644 0.26236 0.22111 0.0
C378 C 0.21021 0.26002 0.19204 0.0
C379 C 0.18606 0.28668 0.201 0.0
C380 C 0.15191 0.28429 0.17362 0.0
C381 C 0.14162 0.25539 0.13705 0.0
C382 C 0.16554 0.22893 0.12763 0.0
C383 C 0.19977 0.23125 0.1548 0.0
H384 H 0.1152 0.25359 0.1158 0.0
H385 H 0.44495 0.27012 0.38436 0.0
H386 H 0.40341 0.72572 0.88142 0.0
H387 H 0.34233 0.72208 0.83671 0.0
H388 H 0.36488 0.8334 0.78686 0.0
H389 H 0.42489 0.83736 0.83338 0.0
H390 H 0.29618 0.82224 0.79858 0.0
H391 H 0.38097 0.75191 0.70654 0.0
H392 H 0.42237 0.70329 0.69761 0.0
H393 H 0.33646 0.62184 0.7352 0.0
H394 H 0.29438 0.66982 0.74375 0.0
H395 H 0.16332 0.81439 0.58895 0.0
H396 H 0.22506 0.81892 0.63155 0.0
H397 H 0.20628 0.70623 0.6773 0.0
H398 H 0.14587 0.70134 0.63219 0.0
H399 H 0.27361 0.71851 0.66727 0.0
H400 H 0.18938 0.78752 0.76236 0.0
H401 H 0.14743 0.83534 0.77382 0.0
H402 H 0.23101 0.91814 0.7326 0.0
H403 H 0.27372 0.87094 0.72185 0.0
C404 C 0.39436 0.75004 0.86361 0.0
C405 C 0.41856 0.78212 0.86198 0.0
C406 C 0.3598 0.74768 0.83671 0.0
C407 C 0.34927 0.77703 0.80654 0.0
C408 C 0.37217 0.81019 0.80929 0.0
C409 C 0.40638 0.81267 0.83664 0.0
C410 C 0.31614 0.77276 0.76901 0.0
C411 C 0.2915 0.79968 0.76961 0.0
C412 C 0.30935 0.74316 0.73132 0.0
C413 C 0.33468 0.71444 0.72625 0.0
C414 C 0.37099 0.72364 0.71312 0.0
C415 C 0.39455 0.69623 0.7081 0.0
C416 C 0.38217 0.65961 0.71625 0.0
C417 C 0.34606 0.65024 0.72903 0.0
C418 C 0.3223 0.67748 0.73375 0.0
C419 C 0.17337 0.79002 0.60523 0.0
C420 C 0.15009 0.75726 0.60618 0.0
C421 C 0.2083 0.79288 0.63109 0.0
C422 C 0.22007 0.76337 0.65982 0.0
C423 C 0.1981 0.72961 0.65608 0.0
C424 C 0.16362 0.72661 0.62948 0.0
C425 C 0.25348 0.76792 0.69693 0.0
C426 C 0.27823 0.74108 0.69622 0.0
C427 C 0.26026 0.79748 0.73474 0.0
C428 C 0.23455 0.82572 0.74078 0.0
C429 C 0.19872 0.81591 0.75551 0.0
C430 C 0.17483 0.84288 0.76192 0.0
C431 C 0.1864 0.87966 0.75343 0.0
C432 C 0.22204 0.88963 0.739 0.0
C433 C 0.24615 0.86283 0.733 0.0
H434 H 0.16781 0.90045 0.7583 0.0
H435 H 0.40051 0.63848 0.71245 0.0
H436 H 0.59845 0.8932 0.92564 0.0
H437 H 0.5954 0.95233 0.97128 0.0
H438 H 0.4882 0.95901 0.89722 0.0
H439 H 0.49181 0.89998 0.85009 0.0
H440 H 0.52325 0.02504 0.90719 0.0
H441 H 0.50273 0.92612 0.02501 0.0
H442 H 0.51526 0.87146 0.07485 0.0
H443 H 0.61165 0.93066 0.14977 0.0
H444 H 0.60012 0.98547 0.09961 0.0
H445 H 0.46373 0.15229 0.08563 0.0
H446 H 0.46894 0.09204 0.04459 0.0
H447 H 0.58154 0.09792 0.10278 0.0
H448 H 0.57636 0.15876 0.14381 0.0
H449 H 0.54455 0.02585 0.10202 0.0
H450 H 0.56318 0.12537 0.9836 0.0
H451 H 0.55003 0.1789 0.93149 0.0
H452 H 0.45466 0.11726 0.85767 0.0
H453 H 0.4667 0.06364 0.91012 0.0
C454 C 0.57481 0.90799 0.91754 0.0
C455 C 0.54558 0.89223 0.88371 0.0
C456 C 0.57278 0.94151 0.94446 0.0
C457 C 0.54107 0.95974 0.93925 0.0
C458 C 0.51287 0.9454 0.90241 0.0
C459 C 0.5151 0.91189 0.87485 0.0
C460 C 0.53689 0.99284 0.97362 0.0
C461 C 0.52738 0.02496 0.94985 0.0
C462 C 0.54308 0.99326 0.02943 0.0
C463 C 0.55072 0.95985 0.05818 0.0
C464 C 0.52684 0.92737 0.05163 0.0
C465 C 0.53372 0.89637 0.08006 0.0
C466 C 0.56419 0.89765 0.11555 0.0
C467 C 0.58804 0.92976 0.1223 0.0
C468 C 0.58136 0.96077 0.09386 0.0
C469 C 0.48909 0.13994 0.09195 0.0
C470 C 0.51945 0.15999 0.11879 0.0
C471 C 0.49223 0.10576 0.06761 0.0
C472 C 0.52587 0.0908 0.0694 0.0
C473 C 0.55534 0.10902 0.10058 0.0
C474 C 0.55222 0.14351 0.12487 0.0
C475 C 0.53074 0.05782 0.03549 0.0
C476 C 0.54039 0.02581 0.05936 0.0
C477 C 0.52435 0.05737 0.9798 0.0
C478 C 0.51572 0.09052 0.95114 0.0
C479 C 0.53905 0.12341 0.95697 0.0
C480 C 0.53187 0.15373 0.9272 0.0
C481 C 0.50165 0.15134 0.89113 0.0
C482 C 0.47811 0.11898 0.88553 0.0
C483 C 0.48506 0.08866 0.91532 0.0
H484 H 0.49659 0.1744 0.86708 0.0
H485 H 0.56931 0.87387 0.13804 0.0
H486 H 0.09544 0.86926 0.56118 0.0
H487 H 0.09413 0.9289 0.5214 0.0
H488 H 1.00242 0.95039 0.61249 0.0
H489 H 1.00323 0.88957 0.65145 0.0
H490 H 0.98721 0.96194 0.51274 0.0
H491 H 0.09031 1.001 0.63041 0.0
H492 H 0.15094 0.99739 0.67493 0.0
H493 H 0.20036 1.00241 0.52541 0.0
H494 H 0.13995 1.0055 0.47987 0.0
H495 H 0.98316 0.14707 0.4413 0.0
H496 H 0.98716 0.08829 0.48264 0.0
H497 H 0.07291 0.06492 0.38119 0.0
H498 H 0.06903 0.12466 0.33953 0.0
H499 H 0.09183 0.05434 0.48501 0.0
H500 H 0.98854 1.01551 0.36777 0.0
H501 H 0.92781 1.01911 0.32358 0.0
H502 H 0.87879 1.01409 0.47339 0.0
H503 H 0.93931 1.01097 0.5186 0.0
C504 C 0.07604 0.88741 0.57453 0.0
C505 C 0.05002 0.87516 0.61042 0.0
C506 C 0.07516 0.92156 0.55149 0.0
C507 C 0.04833 0.9446 0.56393 0.0
C508 C 0.02351 0.93328 0.60222 0.0
C509 C 0.02433 0.89881 0.62528 0.0
C510 C 0.04415 0.97839 0.53301 0.0
C511 C 1.00999 0.98247 0.50761 0.0
C512 C 0.07408 1.00467 0.52433 0.0
C513 C 0.11052 1.00319 0.55168 0.0
C514 C 0.11407 1.00109 0.60697 0.0
C515 C 0.14841 0.99917 0.6324 0.0
C516 C 0.17947 0.99959 0.60301 0.0
C517 C 0.17627 1.00206 0.54813 0.0
C518 C 0.14199 1.00394 0.52249 0.0
C519 C 1.00218 0.12897 0.42663 0.0
C520 C 0.0255 0.14032 0.3867 0.0
C521 C 1.00448 0.09529 0.45045 0.0
C522 C 0.03023 0.07189 0.43511 0.0
C523 C 0.05274 0.08244 0.3937 0.0
C524 C 0.0502 0.11631 0.36936 0.0
C525 C 0.0349 0.03789 0.46513 0.0
C526 C 0.06911 0.03377 0.49027 0.0
C527 C 1.00502 1.01161 0.47371 0.0
C528 C 0.96853 1.01329 0.44661 0.0
C529 C 0.96485 1.01544 0.39134 0.0
C530 C 0.93045 1.01735 0.3661 0.0
C531 C 0.89947 1.01691 0.39567 0.0
C532 C 0.90281 1.01446 0.45054 0.0
C533 C 0.93715 1.01257 0.47599 0.0
H534 H 0.87287 1.0184 0.37605 0.0
H535 H 0.20602 0.99807 0.62277 0.0
H536 H 1.01497 0.21158 0.04884 0.0
H537 H 1.01177 0.22842 0.95615 0.0
H538 H 1.00656 0.34181 0.00345 0.0
H539 H 1.00938 0.32507 0.09635 0.0
H540 H 0.96157 0.31453 0.90737 0.0
H541 H 0.08368 0.3269 0.9828 0.0
H542 H 0.13609 0.30837 0.03652 0.0
H543 H 0.13831 0.21278 0.93531 0.0
H544 H 0.08543 0.23036 0.88155 0.0
H545 H 0.02721 0.34395 0.6406 0.0
H546 H 0.02325 0.35443 0.7363 0.0
H547 H 1.02013 0.23771 0.75831 0.0
H548 H 0.02382 0.22711 0.66338 0.0
H549 H 0.07478 0.28637 0.82331 0.0
H550 H 0.94499 0.26988 0.76027 0.0
H551 H 0.89202 0.2884 0.70772 0.0
H552 H 0.90614 0.39479 0.78595 0.0
H553 H 0.95955 0.37699 0.83849 0.0
C554 C 1.01213 0.23985 0.0393 0.0
C555 C 1.01305 0.2672 0.07912 0.0
C556 C 1.01037 0.24944 0.98669 0.0
C557 C 1.00948 0.28635 0.97371 0.0
C558 C 1.00737 0.31327 0.01322 0.0
C559 C 1.0093 0.30373 0.06589 0.0
C560 C 1.0154 0.29689 0.91947 0.0
C561 C 0.98656 0.30927 0.889 0.0
C562 C 0.04833 0.29045 0.8964 0.0
C563 C 0.08045 0.27989 0.92827 0.0
C564 C 0.09515 0.30178 0.97222 0.0
C565 C 0.12497 0.29146 0.00265 0.0
C566 C 0.14052 0.25942 -0.01069 0.0
C567 C 0.12625 0.23761 0.94555 0.0
C568 C 0.09638 0.24776 0.91505 0.0
C569 C 0.02569 0.32069 0.66618 0.0
C570 C 0.0258 0.28476 0.64531 0.0
C571 C 0.0233 0.32669 0.72033 0.0
C572 C 1.02148 0.29678 0.75359 0.0
C573 C 1.02158 0.26098 0.73273 0.0
C574 C 0.0235 0.25496 0.67882 0.0
C575 C 1.02024 0.30201 0.81068 0.0
C576 C 0.05023 0.29284 0.8419 0.0
C577 C 0.98856 0.31174 0.83429 0.0
C578 C 0.95653 0.32231 0.8027 0.0
C579 C 0.93703 0.29735 0.76584 0.0
C580 C 0.90688 0.30768 0.73617 0.0
C581 C 0.8958 0.3428 0.74334 0.0
C582 C 0.91481 0.36763 0.78033 0.0
C583 C 0.94501 0.35743 0.81006 0.0
H584 H 0.87244 0.35074 0.72036 0.0
H585 H 0.16369 0.25154 0.01279 0.0
H586 H 0.04552 0.71194 0.9221 0.0
H587 H 0.02886 0.7219 0.01292 0.0
H588 H 0.03504 0.83863 -0.00958 0.0
H589 H 0.05057 0.82893 0.89887 0.0
H590 H 0.06824 0.81672 0.08835 0.0
H591 H 0.9554 0.79963 0.98576 0.0
H592 H 0.91087 0.76943 0.91829 0.0
H593 H 0.90392 0.67062 0.00612 0.0
H594 H 0.94884 0.70005 0.07377 0.0
H595 H 0.99822 0.83381 0.33757 0.0
H596 H 0.99662 0.84119 0.24187 0.0
H597 H 0.98552 0.72335 0.21774 0.0
H598 H 0.98643 0.71589 0.31324 0.0
H599 H 0.94872 0.75693 0.13944 0.0
H600 H 0.06911 0.7705 0.23171 0.0
H601 H 0.11489 0.79922 0.29876 0.0
H602 H 0.1084 0.90406 0.22893 0.0
H603 H 0.06212 0.876 0.16194 0.0
C604 C 0.04346 0.73974 0.9365 0.0
C605 C 0.04903 0.76961 0.90327 0.0
C606 C 0.03397 0.74536 -0.01175 0.0
C607 C 0.03016 0.7809 0.0076 0.0
C608 C 0.03772 0.81102 0.97573 0.0
C609 C 0.04689 0.80541 0.92371 0.0
C610 C 1.01748 0.78614 0.06096 0.0
C611 C 0.04179 0.80445 0.09944 0.0
C612 C 0.98308 0.76975 0.07495 0.0
C613 C 0.9557 0.75199 0.03469 0.0
C614 C 0.94458 0.77137 -0.00948 0.0
C615 C 0.91924 0.75441 0.95226 0.0
C616 C 0.90463 0.71811 0.95787 0.0
C617 C 0.91527 0.69873 0.00183 0.0
C618 C 0.94063 0.71557 0.04019 0.0
C619 C 0.9946 0.80956 0.31164 0.0
C620 C 0.99307 0.77431 0.33236 0.0
C621 C 0.99358 0.81379 0.2572 0.0
C622 C 0.99171 0.78281 0.22306 0.0
C623 C 0.98702 0.74757 0.2436 0.0
C624 C 0.98763 0.74332 0.29804 0.0
C625 C 0.99986 0.78673 0.16716 0.0
C626 C 0.97476 0.77005 0.12816 0.0
C627 C 0.03362 0.80455 0.15262 0.0
C628 C 0.06191 0.82126 0.19225 0.0
C629 C 0.07732 0.79971 0.23086 0.0
C630 C 0.10334 0.81586 0.26884 0.0
C631 C 0.11447 0.85346 0.26819 0.0
C632 C 0.09969 0.87496 0.22945 0.0
C633 C 0.07357 0.85895 0.19148 0.0
H634 H 0.13462 0.86593 0.29763 0.0
H635 H 0.88502 0.70501 0.9282 0.0
H636 H 0.5879 0.78796 0.17255 0.0
H637 H 0.57422 0.79499 0.26551 0.0
H638 H 0.46537 0.82032 0.21901 0.0
H639 H 0.479 0.81361 0.12601 0.0
H640 H 0.50009 0.85925 0.31545 0.0
H641 H 0.46761 0.73916 0.23637 0.0
H642 H 0.47815 0.68498 0.18157 0.0
H643 H 0.56963 0.66566 0.28546 0.0
H644 H 0.56008 0.72021 0.34031 0.0
H645 H 0.45 0.79543 0.57456 0.0
H646 H 0.44451 0.80084 0.47797 0.0
H647 H 0.55741 0.78012 0.46872 0.0
H648 H 0.56306 0.77517 0.56457 0.0
H649 H 0.50479 0.73758 0.3962 0.0
H650 H 0.54169 0.86288 0.46647 0.0
H651 H 0.53207 0.9179 0.52018 0.0
H652 H 0.43031 0.92649 0.43293 0.0
H653 H 0.43914 0.87115 0.37918 0.0
C654 C 0.56149 0.79601 0.18235 0.0
C655 C 0.53412 0.79937 0.14292 0.0
C656 C 0.55374 0.8001 0.23507 0.0
C657 C 0.51866 0.80756 0.24835 0.0
C658 C 0.49247 0.81443 0.20901 0.0
C659 C 0.50014 0.81016 0.1563 0.0
C660 C 0.50789 0.80223 0.30237 0.0
C661 C 0.50037 0.83261 0.33309 0.0
C662 C 0.50786 0.76724 0.32446 0.0
C663 C 0.51328 0.73394 0.29221 0.0
C664 C 0.49014 0.72352 0.24731 0.0
C665 C 0.49592 0.69273 0.21625 0.0
C666 C 0.52457 0.67192 0.22998 0.0
C667 C 0.54745 0.68182 0.27486 0.0
C668 C 0.54185 0.71266 0.30597 0.0
C669 C 0.4734 0.79187 0.55149 0.0
C670 C 0.50697 0.78509 0.57612 0.0
C671 C 0.47028 0.79503 0.49687 0.0
C672 C 0.5006 0.79089 0.46703 0.0
C673 C 0.53383 0.78331 0.49162 0.0
C674 C 0.53708 0.78067 0.54599 0.0
C675 C 0.49866 0.7949 0.40995 0.0
C676 C 0.50351 0.76406 0.37836 0.0
C677 C 0.49597 0.82936 0.38721 0.0
C678 C 0.49081 0.86264 0.41936 0.0
C679 C 0.5171 0.87629 0.45912 0.0
C680 C 0.51183 0.90757 0.48948 0.0
C681 C 0.48053 0.9256 0.48011 0.0
C682 C 0.45449 0.91245 0.44023 0.0
C683 C 0.45961 0.88114 0.40981 0.0
H684 H 0.4765 0.94983 0.50364 0.0
H685 H 0.52901 0.64808 0.20589 0.0
H686 H 0.58479 0.28639 0.41522 0.0
H687 H 0.57447 0.28218 0.50964 0.0
H688 H 0.47378 0.33205 0.48564 0.0
H689 H 0.48427 0.33638 0.39109 0.0
H690 H 0.51584 0.35158 0.58645 0.0
H691 H 0.4624 0.24829 0.47908 0.0
H692 H 0.4628 0.20031 0.40906 0.0
H693 H 0.54858 0.15288 0.49608 0.0
H694 H 0.54919 0.20109 0.56616 0.0
H695 H 0.45123 0.27894 0.82395 0.0
H696 H 0.44856 0.28798 0.72841 0.0
H697 H 0.54969 0.23885 0.71638 0.0
H698 H 0.55242 0.22981 0.8117 0.0
H699 H 0.4979 0.2199 0.63104 0.0
H700 H 0.55448 0.32689 0.73387 0.0
H701 H 0.55502 0.37586 0.80269 0.0
H702 H 0.462 0.41651 0.72354 0.0
H703 H 0.46057 0.36733 0.65465 0.0
C704 C 0.5613 0.29773 0.43074 0.0
C705 C 0.53528 0.31172 0.39685 0.0
C706 C 0.55533 0.29519 0.48427 0.0
C707 C 0.52318 0.30643 0.50397 0.0
C708 C 0.49874 0.3234 0.47087 0.0
C709 C 0.50471 0.32585 0.41723 0.0
C710 C 0.51289 0.29563 0.55687 0.0
C711 C 0.51125 0.32287 0.59617 0.0
C712 C 0.50694 0.25811 0.56897 0.0
C713 C 0.50605 0.22848 0.52763 0.0
C714 C 0.48154 0.22779 0.48309 0.0
C715 C 0.48156 0.20055 0.4434 0.0
C716 C 0.50576 0.1736 0.44807 0.0
C717 C 0.52988 0.17379 0.49251 0.0
C718 C 0.53004 0.20106 0.53225 0.0
C719 C 0.47227 0.2692 0.8005 0.0
C720 C 0.50223 0.25408 0.82466 0.0
C721 C 0.4708 0.27448 0.74626 0.0
C722 C 0.49917 0.26446 0.71592 0.0
C723 C 0.52763 0.24678 0.73943 0.0
C724 C 0.52928 0.24182 0.79364 0.0
C725 C 0.50163 0.27583 0.66104 0.0
C726 C 0.50179 0.24863 0.62122 0.0
C727 C 0.506 0.31339 0.64849 0.0
C728 C 0.50714 0.34319 0.6895 0.0
C729 C 0.53397 0.34609 0.73138 0.0
C730 C 0.53446 0.3739 0.77036 0.0
C731 C 0.50849 0.39922 0.76758 0.0
C732 C 0.48204 0.39683 0.7257 0.0
C733 C 0.48138 0.369 0.68669 0.0
H734 H 0.50891 0.42074 0.79779 0.0
H735 H 0.50576 0.15254 0.41729 0.0
loop_
_geom_bond_atom_site_label_1
_geom_bond_atom_site_label_2
_geom_bond_distance
_geom_bond_site_symmetry_2
_ccdc_geom_bond_type
C0 O16 1.251 . S
C0 O18 1.254 . S
N1 C2 1.333 . S
N1 C6 1.307 1_455 S
N1 Zn7 2.020 . S
C2 N1 1.333 . S
C2 C3 1.379 . S
C2 H20 0.952 . S
C3 C2 1.379 . S
C3 C4 1.390 . S
C3 H30 0.949 . S
C4 C3 1.390 . S
C4 C5 1.357 1_455 S
C5 C4 1.357 1_655 S
C5 C6 1.370 . S
C5 H31 0.950 . S
C6 N1 1.307 1_655 S
C6 C5 1.370 . S
C6 H24 0.948 . S
Zn7 N1 2.020 . S
Zn7 O16 2.039 . S
Zn7 O22 2.034 . S
Zn7 O26 2.025 1_455 S
Zn7 O28 2.023 . S
C8 O27 1.246 . S
C8 O28 1.251 . S
N9 C10 1.307 . S
N9 C11 1.333 1_455 S
N9 Zn15 2.020 . S
C10 N9 1.307 . S
C10 C14 1.370 . S
C10 H21 0.948 . S
C11 N9 1.333 1_655 S
C11 C12 1.379 . S
C11 H19 0.952 . S
C12 C11 1.379 . S
C12 C13 1.390 1_655 S
C12 H32 0.949 . S
C13 C12 1.390 1_455 S
C13 C14 1.357 . S
C14 C10 1.370 . S
C14 C13 1.357 . S
C14 H33 0.950 . S
Zn15 N9 2.020 . S
Zn15 O18 2.025 . S
Zn15 O23 2.024 . S
Zn15 O25 2.039 1_455 S
Zn15 O27 2.034 . S
O16 C0 1.251 . S
O16 Zn7 2.039 . S
C17 O22 1.246 . S
C17 O23 1.249 . S
O18 C0 1.254 . S
O18 Zn15 2.025 . S
H19 C11 0.952 . S
H20 C2 0.952 . S
H21 C10 0.948 . S
O22 Zn7 2.034 . S
O22 C17 1.246 . S
O23 Zn15 2.024 . S
O23 C17 1.249 . S
H24 C6 0.948 . S
O25 Zn15 2.039 1_655 S
O25 C29 1.251 . S
O26 Zn7 2.025 1_655 S
O26 C29 1.254 . S
O27 C8 1.246 . S
O27 Zn15 2.034 . S
O28 Zn7 2.023 . S
O28 C8 1.251 . S
C29 O25 1.251 . S
C29 O26 1.254 . S
H30 C3 0.949 . S
H31 C5 0.950 . S
H32 C12 0.949 . S
H33 C14 0.950 . S
C34 O50 1.251 . S
C34 O52 1.254 . S
N35 C36 1.333 1_655 S
N35 C40 1.307 . S
N35 Zn41 2.020 . S
C36 N35 1.333 1_455 S
C36 C37 1.379 . S
C36 H54 0.952 . S
C37 C36 1.379 . S
C37 C38 1.390 . S
C37 H64 0.949 . S
C38 C37 1.390 . S
C38 C39 1.357 1_455 S
C39 C38 1.357 1_655 S
C39 C40 1.370 . S
C39 H65 0.950 . S
C40 N35 1.307 . S
C40 C39 1.370 . S
C40 H58 0.948 . S
Zn41 N35 2.020 . S
Zn41 O50 2.032 1_655 S
Zn41 O56 2.034 1_655 S
Zn41 O60 2.032 . S
Zn41 O62 2.024 . S
C42 O61 1.245 . S
C42 O62 1.249 1_455 S
N43 C44 1.307 . S
N43 C45 1.333 1_455 S
N43 Zn49 2.020 . S
C44 N43 1.307 . S
C44 C48 1.370 . S
C44 H55 0.948 . S
C45 N43 1.333 1_655 S
C45 C46 1.379 . S
C45 H53 0.952 . S
C46 C45 1.379 . S
C46 C47 1.390 1_655 S
C46 H66 0.949 . S
C47 C46 1.390 1_455 S
C47 C48 1.357 . S
C48 C44 1.370 . S
C48 C47 1.357 . S
C48 H67 0.950 . S
Zn49 N43 2.020 . S
Zn49 O52 2.025 . S
Zn49 O57 2.024 . S
Zn49 O59 2.039 1_455 S
Zn49 O61 2.034 . S
O50 C34 1.251 . S
O50 Zn41 2.032 1_455 S
C51 O56 1.246 . S
C51 O57 1.249 . S
O52 C34 1.254 . S
O52 Zn49 2.025 . S
H53 C45 0.952 . S
H54 C36 0.952 . S
H55 C44 0.948 . S
O56 Zn41 2.034 1_455 S
O56 C51 1.246 . S
O57 Zn49 2.024 . S
O57 C51 1.249 . S
H58 C40 0.948 . S
O59 Zn49 2.039 1_655 S
O59 C63 1.251 . S
O60 Zn41 2.032 . S
O60 C63 1.254 . S
O61 C42 1.245 . S
O61 Zn49 2.034 . S
O62 Zn41 2.024 . S
O62 C42 1.249 1_655 S
C63 O59 1.251 . S
C63 O60 1.254 . S
H64 C37 0.949 . S
H65 C39 0.950 . S
H66 C46 0.949 . S
H67 C48 0.950 . S
C68 O84 1.251 . S
C68 O86 1.254 . S
N69 C70 1.333 . S
N69 C74 1.307 . S
N69 Zn75 2.020 . S
C70 N69 1.333 . S
C70 C71 1.379 . S
C70 H88 0.952 . S
C71 C70 1.379 . S
C71 C72 1.390 . S
C71 H98 0.949 . S
C72 C71 1.390 . S
C72 C73 1.357 . S
C73 C72 1.357 . S
C73 C74 1.370 . S
C73 H99 0.950 . S
C74 N69 1.307 . S
C74 C73 1.370 . S
C74 H92 0.948 . S
Zn75 N69 2.020 . S
Zn75 O84 2.039 . S
Zn75 O90 2.034 . S
Zn75 O94 2.025 . S
Zn75 O96 2.024 . S
C76 O95 1.246 . S
C76 O96 1.249 . S
N77 C78 1.307 . S
N77 C79 1.333 . S
N77 Zn83 2.020 1_554 S
C78 N77 1.307 . S
C78 C82 1.370 . S
C78 H89 0.948 . S
C79 N77 1.333 . S
C79 C80 1.379 . S
C79 H87 0.952 . S
C80 C79 1.379 . S
C80 C81 1.390 . S
C80 H100 0.949 . S
C81 C80 1.390 . S
C81 C82 1.357 . S
C82 C78 1.370 . S
C82 C81 1.357 . S
C82 H101 0.950 . S
Zn83 N77 2.020 1_556 S
Zn83 O86 2.025 . S
Zn83 O91 2.024 . S
Zn83 O93 2.039 . S
Zn83 O95 2.034 . S
O84 C68 1.251 . S
O84 Zn75 2.039 . S
C85 O90 1.246 . S
C85 O91 1.249 . S
O86 C68 1.254 . S
O86 Zn83 2.025 . S
H87 C79 0.952 . S
H88 C70 0.952 . S
H89 C78 0.948 . S
O90 Zn75 2.034 . S
O90 C85 1.246 . S
O91 Zn83 2.024 . S
O91 C85 1.249 . S
H92 C74 0.948 . S
O93 Zn83 2.039 . S
O93 C97 1.251 . S
O94 Zn75 2.025 . S
O94 C97 1.254 . S
O95 C76 1.246 . S
O95 Zn83 2.034 . S
O96 Zn75 2.024 . S
O96 C76 1.249 . S
C97 O93 1.251 . S
C97 O94 1.254 . S
H98 C71 0.949 . S
H99 C73 0.950 . S
H100 C80 0.949 . S
H101 C82 0.950 . S
C102 O118 1.251 . S
C102 O120 1.254 . S
N103 C104 1.333 . S
N103 C108 1.307 . S
N103 Zn109 2.020 1_556 S
C104 N103 1.333 . S
C104 C105 1.379 . S
C104 H122 0.952 . S
C105 C104 1.379 . S
C105 C106 1.390 . S
C105 H132 0.949 . S
C106 C105 1.390 . S
C106 C107 1.357 . S
C107 C106 1.357 . S
C107 C108 1.370 . S
C107 H133 0.950 . S
C108 N103 1.307 . S
C108 C107 1.370 . S
C108 H126 0.948 . S
Zn109 N103 2.020 1_554 S
Zn109 O118 2.039 . S
Zn109 O124 2.034 . S
Zn109 O128 2.025 . S
Zn109 O130 2.024 . S
C110 O129 1.246 . S
C110 O130 1.249 . S
N111 C112 1.307 . S
N111 C113 1.333 . S
N111 Zn117 2.020 . S
C112 N111 1.307 . S
C112 C116 1.370 . S
C112 H123 0.948 . S
C113 N111 1.333 . S
C113 C114 1.379 . S
C113 H121 0.952 . S
C114 C113 1.379 . S
C114 C115 1.390 . S
C114 H134 0.949 . S
C115 C114 1.390 . S
C115 C116 1.357 . S
C116 C112 1.370 . S
C116 C115 1.357 . S
C116 H135 0.950 . S
Zn117 N111 2.020 . S
Zn117 O120 2.025 . S
Zn117 O125 2.024 . S
Zn117 O127 2.039 . S
Zn117 O129 2.034 . S
O118 C102 1.251 . S
O118 Zn109 2.039 . S
C119 O124 1.246 . S
C119 O125 1.249 . S
O120 C102 1.254 . S
O120 Zn117 2.025 . S
H121 C113 0.952 . S
H122 C104 0.952 . S
H123 C112 0.948 . S
O124 Zn109 2.034 . S
O124 C119 1.246 . S
O125 Zn117 2.024 . S
O125 C119 1.249 . S
H126 C108 0.948 . S
O127 Zn117 2.039 . S
O127 C131 1.251 . S
O128 Zn109 2.025 . S
O128 C131 1.254 . S
O129 C110 1.246 . S
O129 Zn117 2.034 . S
O130 Zn109 2.024 . S
O130 C110 1.249 . S
C131 O127 1.251 . S
C131 O128 1.254 . S
H132 C105 0.949 . S
H133 C107 0.950 . S
H134 C114 0.949 . S
H135 C116 0.950 . S
H136 C154 0.951 . S
H137 C156 0.951 . S
H138 C158 0.950 . S
H139 C159 0.950 . S
H140 C161 0.950 . S
H141 C164 0.950 . S
H142 C165 0.950 . S
H143 C167 0.950 . S
H144 C168 0.950 . S
H145 C169 0.951 . S
H146 C171 0.951 . S
H147 C173 0.950 . S
H148 C174 0.950 . S
H149 C176 0.950 . S
H150 C179 0.950 . S
H151 C180 0.950 . S
H152 C182 0.950 . S
H153 C183 0.950 . S
C154 H136 0.951 . S
C154 C155 1.366 1_655 S
C154 C156 1.388 . S
C155 C154 1.366 1_455 S
C155 C159 1.385 . S
C156 H137 0.951 . S
C156 C154 1.388 . S
C156 C157 1.366 1_655 S
C157 C156 1.366 1_455 S
C157 C158 1.414 . S
C157 C160 1.499 . S
C158 H138 0.950 . S
C158 C157 1.414 . S
C158 C159 1.374 . S
C159 H139 0.950 . S
C159 C155 1.385 . S
C159 C158 1.374 . S
C160 C157 1.499 . S
C160 C161 1.373 . S
C160 C162 1.389 1_455 S
C161 H140 0.950 . S
C161 C160 1.373 . S
C161 C177 1.377 . S
C162 C160 1.389 1_655 S
C162 C163 1.524 . S
C162 C176 1.377 . S
C163 C162 1.524 . S
C163 C164 1.397 . S
C163 C168 1.363 . S
C164 H141 0.950 . S
C164 C163 1.397 . S
C164 C165 1.334 . S
C165 H142 0.950 . S
C165 C164 1.334 . S
C165 C166 1.287 . S
C166 C165 1.287 . S
C166 C167 1.524 . S
C166 H185 0.913 . S
C167 H143 0.950 . S
C167 C166 1.524 . S
C167 C168 1.415 . S
C168 H144 0.950 . S
C168 C163 1.363 . S
C168 C167 1.415 . S
C169 H145 0.951 . S
C169 C170 1.366 . S
C169 C171 1.388 . S
C170 C169 1.366 . S
C170 C174 1.385 1_455 S
C171 H146 0.951 . S
C171 C169 1.388 . S
C171 C172 1.366 . S
C172 C171 1.366 . S
C172 C173 1.414 1_455 S
C172 C175 1.499 . S
C173 H147 0.950 . S
C173 C172 1.414 1_655 S
C173 C174 1.374 . S
C174 H148 0.950 . S
C174 C170 1.385 1_655 S
C174 C173 1.374 . S
C175 C172 1.499 . S
C175 C176 1.373 1_455 S
C175 C177 1.389 . S
C176 H149 0.950 . S
C176 C162 1.377 . S
C176 C175 1.373 1_655 S
C177 C161 1.377 . S
C177 C175 1.389 . S
C177 C178 1.524 . S
C178 C177 1.524 . S
C178 C179 1.397 . S
C178 C183 1.363 . S
C179 H150 0.950 . S
C179 C178 1.397 . S
C179 C180 1.334 . S
C180 H151 0.950 . S
C180 C179 1.334 . S
C180 C181 1.287 . S
C181 C180 1.287 . S
C181 C182 1.524 . S
C181 H184 0.999 . S
C182 H152 0.950 . S
C182 C181 1.524 . S
C182 C183 1.415 . S
C183 H153 0.950 . S
C183 C178 1.363 . S
C183 C182 1.415 . S
H184 C181 0.999 . S
H185 C166 0.913 . S
H186 C204 0.951 . S
H187 C206 0.951 . S
H188 C208 0.950 . S
H189 C209 0.950 . S
H190 C211 0.950 . S
H191 C214 0.950 . S
H192 C215 0.950 . S
H193 C217 0.950 . S
H194 C218 0.950 . S
H195 C219 0.951 . S
H196 C221 0.951 . S
H197 C223 0.950 . S
H198 C224 0.950 . S
H199 C226 0.950 . S
H200 C229 0.950 . S
H201 C230 0.950 . S
H202 C232 0.950 . S
H203 C233 0.950 . S
C204 H186 0.951 . S
C204 C205 1.366 . S
C204 C206 1.388 . S
C205 C204 1.366 . S
C205 C209 1.385 . S
C206 H187 0.951 . S
C206 C204 1.388 . S
C206 C207 1.366 . S
C207 C206 1.366 . S
C207 C208 1.414 . S
C207 C210 1.499 . S
C208 H188 0.950 . S
C208 C207 1.414 . S
C208 C209 1.374 . S
C209 H189 0.950 . S
C209 C205 1.385 . S
C209 C208 1.374 . S
C210 C207 1.499 . S
C210 C211 1.373 . S
C210 C212 1.389 . S
C211 H190 0.950 . S
C211 C210 1.373 . S
C211 C227 1.377 . S
C212 C210 1.389 . S
C212 C213 1.524 . S
C212 C226 1.377 . S
C213 C212 1.524 . S
C213 C214 1.397 . S
C213 C218 1.363 . S
C214 H191 0.950 . S
C214 C213 1.397 . S
C214 C215 1.334 . S
C215 H192 0.950 . S
C215 C214 1.334 . S
C215 C216 1.287 . S
C216 C215 1.287 . S
C216 C217 1.524 . S
C216 H235 0.913 . S
C217 H193 0.950 . S
C217 C216 1.524 . S
C217 C218 1.415 . S
C218 H194 0.950 . S
C218 C213 1.363 . S
C218 C217 1.415 . S
C219 H195 0.951 . S
C219 C220 1.366 . S
C219 C221 1.388 . S
C220 C219 1.366 . S
C220 C224 1.385 . S
C221 H196 0.951 . S
C221 C219 1.388 . S
C221 C222 1.366 . S
C222 C221 1.366 . S
C222 C223 1.414 . S
C222 C225 1.499 . S
C223 H197 0.950 . S
C223 C222 1.414 . S
C223 C224 1.374 . S
C224 H198 0.950 . S
C224 C220 1.385 . S
C224 C223 1.374 . S
C225 C222 1.499 . S
C225 C226 1.373 . S
C225 C227 1.389 . S
C226 H199 0.950 . S
C226 C212 1.377 . S
C226 C225 1.373 . S
C227 C211 1.377 . S
C227 C225 1.389 . S
C227 C228 1.524 . S
C228 C227 1.524 . S
C228 C229 1.397 . S
C228 C233 1.363 . S
C229 H200 0.950 . S
C229 C228 1.397 . S
C229 C230 1.334 . S
C230 H201 0.950 . S
C230 C229 1.334 . S
C230 C231 1.287 . S
C231 C230 1.287 . S
C231 C232 1.524 . S
C231 H234 0.999 . S
C232 H202 0.950 . S
C232 C231 1.524 . S
C232 C233 1.415 . S
C233 H203 0.950 . S
C233 C228 1.363 . S
C233 C232 1.415 . S
H234 C231 0.999 . S
H235 C216 0.913 . S
H236 C254 0.951 . S
H237 C256 0.951 1_556 S
H238 C258 0.950 . S
H239 C259 0.950 . S
H240 C261 0.950 . S
H241 C264 0.950 . S
H242 C265 0.950 . S
H243 C267 0.950 . S
H244 C268 0.950 . S
H245 C269 0.951 . S
H246 C271 0.951 1_554 S
H247 C273 0.950 . S
H248 C274 0.950 . S
H249 C276 0.950 . S
H250 C279 0.950 . S
H251 C280 0.950 . S
H252 C282 0.950 . S
H253 C283 0.950 . S
C254 H236 0.951 . S
C254 C255 1.366 . S
C254 C256 1.388 . S
C255 C254 1.366 . S
C255 C259 1.385 . S
C256 H237 0.951 1_554 S
C256 C254 1.388 . S
C256 C257 1.366 . S
C257 C256 1.366 . S
C257 C258 1.414 . S
C257 C260 1.499 . S
C258 H238 0.950 . S
C258 C257 1.414 . S
C258 C259 1.374 . S
C259 H239 0.950 . S
C259 C255 1.385 . S
C259 C258 1.374 . S
C260 C257 1.499 . S
C260 C261 1.373 . S
C260 C262 1.389 . S
C261 H240 0.950 . S
C261 C260 1.373 . S
C261 C277 1.377 1_554 S
C262 C260 1.389 . S
C262 C263 1.524 . S
C262 C276 1.377 1_554 S
C263 C262 1.524 . S
C263 C264 1.397 . S
C263 C268 1.363 1_554 S
C264 H241 0.950 . S
C264 C263 1.397 . S
C264 C265 1.334 . S
C265 H242 0.950 . S
C265 C264 1.334 . S
C265 C266 1.287 . S
C266 C265 1.287 . S
C266 C267 1.524 1_554 S
C266 H285 0.913 . S
C267 H243 0.950 . S
C267 C266 1.524 1_556 S
C267 C268 1.415 . S
C268 H244 0.950 . S
C268 C263 1.363 1_556 S
C268 C267 1.415 . S
C269 H245 0.951 . S
C269 C270 1.366 . S
C269 C271 1.388 . S
C270 C269 1.366 . S
C270 C274 1.385 . S
C271 H246 0.951 1_556 S
C271 C269 1.388 . S
C271 C272 1.366 . S
C272 C271 1.366 . S
C272 C273 1.414 . S
C272 C275 1.499 . S
C273 H247 0.950 . S
C273 C272 1.414 . S
C273 C274 1.374 . S
C274 H248 0.950 . S
C274 C270 1.385 . S
C274 C273 1.374 . S
C275 C272 1.499 . S
C275 C276 1.373 . S
C275 C277 1.389 . S
C276 H249 0.950 . S
C276 C262 1.377 1_556 S
C276 C275 1.373 . S
C277 C261 1.377 1_556 S
C277 C275 1.389 . S
C277 C278 1.524 . S
C278 C277 1.524 . S
C278 C279 1.397 . S
C278 C283 1.363 1_556 S
C279 H250 0.950 . S
C279 C278 1.397 . S
C279 C280 1.334 . S
C280 H251 0.950 . S
C280 C279 1.334 . S
C280 C281 1.287 . S
C281 C280 1.287 . S
C281 C282 1.524 1_556 S
C281 H284 0.999 . S
C282 H252 0.950 . S
C282 C281 1.524 1_554 S
C282 C283 1.415 . S
C283 H253 0.950 . S
C283 C278 1.363 1_554 S
C283 C282 1.415 . S
H284 C281 0.999 . S
H285 C266 0.913 . S
H286 C304 0.951 . S
H287 C306 0.951 . S
H288 C308 0.950 . S
H289 C309 0.950 . S
H290 C311 0.950 . S
H291 C314 0.950 . S
H292 C315 0.950 . S
H293 C317 0.950 . S
H294 C318 0.950 . S
H295 C319 0.951 . S
H296 C321 0.951 . S
H297 C323 0.950 . S
H298 C324 0.950 . S
H299 C326 0.950 . S
H300 C329 0.950 . S
H301 C330 0.950 . S
H302 C332 0.950 . S
H303 C333 0.950 . S
C304 H286 0.951 . S
C304 C305 1.366 . S
C304 C306 1.388 . S
C305 C304 1.366 . S
C305 C309 1.385 . S
C306 H287 0.951 . S
C306 C304 1.388 . S
C306 C307 1.366 . S
C307 C306 1.366 . S
C307 C308 1.414 . S
C307 C310 1.499 . S
C308 H288 0.950 . S
C308 C307 1.414 . S
C308 C309 1.374 . S
C309 H289 0.950 . S
C309 C305 1.385 . S
C309 C308 1.374 . S
C310 C307 1.499 . S
C310 C311 1.373 . S
C310 C312 1.389 . S
C311 H290 0.950 . S
C311 C310 1.373 . S
C311 C327 1.377 . S
C312 C310 1.389 . S
C312 C313 1.524 . S
C312 C326 1.377 . S
C313 C312 1.524 . S
C313 C314 1.397 . S
C313 C318 1.363 . S
C314 H291 0.950 . S
C314 C313 1.397 . S
C314 C315 1.334 . S
C315 H292 0.950 . S
C315 C314 1.334 . S
C315 C316 1.287 . S
C316 C315 1.287 . S
C316 C317 1.524 . S
C316 H335 0.913 . S
C317 H293 0.950 . S
C317 C316 1.524 . S
C317 C318 1.415 . S
C318 H294 0.950 . S
C318 C313 1.363 . S
C318 C317 1.415 . S
C319 H295 0.951 . S
C319 C320 1.366 . S
C319 C321 1.388 . S
C320 C319 1.366 . S
C320 C324 1.385 . S
C321 H296 0.951 . S
C321 C319 1.388 . S
C321 C322 1.366 . S
C322 C321 1.366 . S
C322 C323 1.414 . S
C322 C325 1.499 . S
C323 H297 0.950 . S
C323 C322 1.414 . S
C323 C324 1.374 . S
C324 H298 0.950 . S
C324 C320 1.385 . S
C324 C323 1.374 . S
C325 C322 1.499 . S
C325 C326 1.373 . S
C325 C327 1.389 . S
C326 H299 0.950 . S
C326 C312 1.377 . S
C326 C325 1.373 . S
C327 C311 1.377 . S
C327 C325 1.389 . S
C327 C328 1.524 . S
C328 C327 1.524 . S
C328 C329 1.397 . S
C328 C333 1.363 . S
C329 H300 0.950 . S
C329 C328 1.397 . S
C329 C330 1.334 . S
C330 H301 0.950 . S
C330 C329 1.334 . S
C330 C331 1.287 . S
C331 C330 1.287 . S
C331 C332 1.524 . S
C331 H334 0.999 . S
C332 H302 0.950 . S
C332 C331 1.524 . S
C332 C333 1.415 . S
C333 H303 0.950 . S
C333 C328 1.363 . S
C333 C332 1.415 . S
H334 C331 0.999 . S
H335 C316 0.913 . S
H336 C354 0.951 . S
H337 C356 0.951 . S
H338 C358 0.950 . S
H339 C359 0.950 . S
H340 C361 0.950 . S
H341 C364 0.950 . S
H342 C365 0.950 . S
H343 C367 0.950 . S
H344 C368 0.950 . S
H345 C369 0.951 . S
H346 C371 0.951 . S
H347 C373 0.950 . S
H348 C374 0.950 . S
H349 C376 0.950 . S
H350 C379 0.950 . S
H351 C380 0.950 . S
H352 C382 0.950 . S
H353 C383 0.950 . S
C354 H336 0.951 . S
C354 C355 1.366 . S
C354 C356 1.388 . S
C355 C354 1.366 . S
C355 C359 1.385 . S
C356 H337 0.951 . S
C356 C354 1.388 . S
C356 C357 1.366 . S
C357 C356 1.366 . S
C357 C358 1.414 . S
C357 C360 1.499 . S
C358 H338 0.950 . S
C358 C357 1.414 . S
C358 C359 1.374 . S
C359 H339 0.950 . S
C359 C355 1.385 . S
C359 C358 1.374 . S
C360 C357 1.499 . S
C360 C361 1.373 . S
C360 C362 1.389 . S
C361 H340 0.950 . S
C361 C360 1.373 . S
C361 C377 1.377 . S
C362 C360 1.389 . S
C362 C363 1.524 . S
C362 C376 1.377 . S
C363 C362 1.524 . S
C363 C364 1.397 . S
C363 C368 1.363 . S
C364 H341 0.950 . S
C364 C363 1.397 . S
C364 C365 1.334 . S
C365 H342 0.950 . S
C365 C364 1.334 . S
C365 C366 1.287 . S
C366 C365 1.287 . S
C366 C367 1.524 . S
C366 H385 0.913 . S
C367 H343 0.950 . S
C367 C366 1.524 . S
C367 C368 1.415 . S
C368 H344 0.950 . S
C368 C363 1.363 . S
C368 C367 1.415 . S
C369 H345 0.951 . S
C369 C370 1.366 . S
C369 C371 1.388 . S
C370 C369 1.366 . S
C370 C374 1.385 . S
C371 H346 0.951 . S
C371 C369 1.388 . S
C371 C372 1.366 . S
C372 C371 1.366 . S
C372 C373 1.414 . S
C372 C375 1.499 . S
C373 H347 0.950 . S
C373 C372 1.414 . S
C373 C374 1.374 . S
C374 H348 0.950 . S
C374 C370 1.385 . S
C374 C373 1.374 . S
C375 C372 1.499 . S
C375 C376 1.373 . S
C375 C377 1.389 . S
C376 H349 0.950 . S
C376 C362 1.377 . S
C376 C375 1.373 . S
C377 C361 1.377 . S
C377 C375 1.389 . S
C377 C378 1.524 . S
C378 C377 1.524 . S
C378 C379 1.397 . S
C378 C383 1.363 . S
C379 H350 0.950 . S
C379 C378 1.397 . S
C379 C380 1.334 . S
C380 H351 0.950 . S
C380 C379 1.334 . S
C380 C381 1.287 . S
C381 C380 1.287 . S
C381 C382 1.524 . S
C381 H384 0.999 . S
C382 H352 0.950 . S
C382 C381 1.524 . S
C382 C383 1.415 . S
C383 H353 0.950 . S
C383 C378 1.363 . S
C383 C382 1.415 . S
H384 C381 0.999 . S
H385 C366 0.913 . S
H386 C404 0.951 . S
H387 C406 0.951 . S
H388 C408 0.950 . S
H389 C409 0.950 . S
H390 C411 0.950 . S
H391 C414 0.950 . S
H392 C415 0.950 . S
H393 C417 0.950 . S
H394 C418 0.950 . S
H395 C419 0.951 . S
H396 C421 0.951 . S
H397 C423 0.950 . S
H398 C424 0.950 . S
H399 C426 0.950 . S
H400 C429 0.950 . S
H401 C430 0.950 . S
H402 C432 0.950 . S
H403 C433 0.950 . S
C404 H386 0.951 . S
C404 C405 1.366 . S
C404 C406 1.388 . S
C405 C404 1.366 . S
C405 C409 1.385 . S
C406 H387 0.951 . S
C406 C404 1.388 . S
C406 C407 1.366 . S
C407 C406 1.366 . S
C407 C408 1.414 . S
C407 C410 1.499 . S
C408 H388 0.950 . S
C408 C407 1.414 . S
C408 C409 1.374 . S
C409 H389 0.950 . S
C409 C405 1.385 . S
C409 C408 1.374 . S
C410 C407 1.499 . S
C410 C411 1.373 . S
C410 C412 1.389 . S
C411 H390 0.950 . S
C411 C410 1.373 . S
C411 C427 1.377 . S
C412 C410 1.389 . S
C412 C413 1.524 . S
C412 C426 1.377 . S
C413 C412 1.524 . S
C413 C414 1.397 . S
C413 C418 1.363 . S
C414 H391 0.950 . S
C414 C413 1.397 . S
C414 C415 1.334 . S
C415 H392 0.950 . S
C415 C414 1.334 . S
C415 C416 1.287 . S
C416 C415 1.287 . S
C416 C417 1.524 . S
C416 H435 0.913 . S
C417 H393 0.950 . S
C417 C416 1.524 . S
C417 C418 1.415 . S
C418 H394 0.950 . S
C418 C413 1.363 . S
C418 C417 1.415 . S
C419 H395 0.951 . S
C419 C420 1.366 . S
C419 C421 1.388 . S
C420 C419 1.366 . S
C420 C424 1.385 . S
C421 H396 0.951 . S
C421 C419 1.388 . S
C421 C422 1.366 . S
C422 C421 1.366 . S
C422 C423 1.414 . S
C422 C425 1.499 . S
C423 H397 0.950 . S
C423 C422 1.414 . S
C423 C424 1.374 . S
C424 H398 0.950 . S
C424 C420 1.385 . S
C424 C423 1.374 . S
C425 C422 1.499 . S
C425 C426 1.373 . S
C425 C427 1.389 . S
C426 H399 0.950 . S
C426 C412 1.377 . S
C426 C425 1.373 . S
C427 C411 1.377 . S
C427 C425 1.389 . S
C427 C428 1.524 . S
C428 C427 1.524 . S
C428 C429 1.397 . S
C428 C433 1.363 . S
C429 H400 0.950 . S
C429 C428 1.397 . S
C429 C430 1.334 . S
C430 H401 0.950 . S
C430 C429 1.334 . S
C430 C431 1.287 . S
C431 C430 1.287 . S
C431 C432 1.524 . S
C431 H434 0.999 . S
C432 H402 0.950 . S
C432 C431 1.524 . S
C432 C433 1.415 . S
C433 H403 0.950 . S
C433 C428 1.363 . S
C433 C432 1.415 . S
H434 C431 0.999 . S
H435 C416 0.913 . S
H436 C454 0.951 . S
H437 C456 0.951 1_554 S
H438 C458 0.950 . S
H439 C459 0.950 . S
H440 C461 0.950 . S
H441 C464 0.950 . S
H442 C465 0.950 . S
H443 C467 0.950 . S
H444 C468 0.950 . S
H445 C469 0.951 . S
H446 C471 0.951 1_556 S
H447 C473 0.950 . S
H448 C474 0.950 . S
H449 C476 0.950 . S
H450 C479 0.950 . S
H451 C480 0.950 . S
H452 C482 0.950 . S
H453 C483 0.950 . S
C454 H436 0.951 . S
C454 C455 1.366 . S
C454 C456 1.388 . S
C455 C454 1.366 . S
C455 C459 1.385 . S
C456 H437 0.951 1_556 S
C456 C454 1.388 . S
C456 C457 1.366 . S
C457 C456 1.366 . S
C457 C458 1.414 . S
C457 C460 1.499 . S
C458 H438 0.950 . S
C458 C457 1.414 . S
C458 C459 1.374 . S
C459 H439 0.950 . S
C459 C455 1.385 . S
C459 C458 1.374 . S
C460 C457 1.499 . S
C460 C461 1.373 . S
C460 C462 1.389 1_556 S
C461 H440 0.950 . S
C461 C460 1.373 . S
C461 C477 1.377 1_565 S
C462 C460 1.389 1_554 S
C462 C463 1.524 . S
C462 C476 1.377 1_565 S
C463 C462 1.524 . S
C463 C464 1.397 . S
C463 C468 1.363 . S
C464 H441 0.950 . S
C464 C463 1.397 . S
C464 C465 1.334 . S
C465 H442 0.950 . S
C465 C464 1.334 . S
C465 C466 1.287 . S
C466 C465 1.287 . S
C466 C467 1.524 . S
C466 H485 0.913 . S
C467 H443 0.950 . S
C467 C466 1.524 . S
C467 C468 1.415 . S
C468 H444 0.950 . S
C468 C463 1.363 . S
C468 C467 1.415 . S
C469 H445 0.951 . S
C469 C470 1.366 . S
C469 C471 1.388 . S
C470 C469 1.366 . S
C470 C474 1.385 . S
C471 H446 0.951 1_554 S
C471 C469 1.388 . S
C471 C472 1.366 . S
C472 C471 1.366 . S
C472 C473 1.414 . S
C472 C475 1.499 . S
C473 H447 0.950 . S
C473 C472 1.414 . S
C473 C474 1.374 . S
C474 H448 0.950 . S
C474 C470 1.385 . S
C474 C473 1.374 . S
C475 C472 1.499 . S
C475 C476 1.373 . S
C475 C477 1.389 1_554 S
C476 H449 0.950 . S
C476 C462 1.377 1_545 S
C476 C475 1.373 . S
C477 C461 1.377 1_545 S
C477 C475 1.389 1_556 S
C477 C478 1.524 . S
C478 C477 1.524 . S
C478 C479 1.397 . S
C478 C483 1.363 . S
C479 H450 0.950 . S
C479 C478 1.397 . S
C479 C480 1.334 . S
C480 H451 0.950 . S
C480 C479 1.334 . S
C480 C481 1.287 . S
C481 C480 1.287 . S
C481 C482 1.524 . S
C481 H484 0.999 . S
C482 H452 0.950 . S
C482 C481 1.524 . S
C482 C483 1.415 . S
C483 H453 0.950 . S
C483 C478 1.363 . S
C483 C482 1.415 . S
H484 C481 0.999 . S
H485 C466 0.913 . S
H486 C504 0.951 . S
H487 C506 0.951 . S
H488 C508 0.950 . S
H489 C509 0.950 . S
H490 C511 0.950 . S
H491 C514 0.950 . S
H492 C515 0.950 . S
H493 C517 0.950 1_545 S
H494 C518 0.944 1_545 S
H495 C519 0.951 . S
H496 C521 0.951 . S
H497 C523 0.950 . S
H498 C524 0.950 . S
H499 C526 0.950 . S
H500 C529 0.950 . S
H501 C530 0.950 . S
H502 C532 0.950 1_565 S
H503 C533 0.944 1_565 S
C504 H486 0.951 . S
C504 C505 1.366 . S
C504 C506 1.388 . S
C505 C504 1.366 . S
C505 C509 1.385 1_455 S
C506 H487 0.951 . S
C506 C504 1.388 . S
C506 C507 1.366 . S
C507 C506 1.366 . S
C507 C508 1.414 1_455 S
C507 C510 1.499 . S
C508 H488 0.950 . S
C508 C507 1.414 1_655 S
C508 C509 1.374 . S
C509 H489 0.950 . S
C509 C505 1.385 1_655 S
C509 C508 1.374 . S
C510 C507 1.499 . S
C510 C511 1.373 1_455 S
C510 C512 1.389 . S
C511 H490 0.950 . S
C511 C510 1.373 1_655 S
C511 C527 1.377 1_565 S
C512 C510 1.389 . S
C512 C513 1.524 . S
C512 C526 1.377 1_565 S
C513 C512 1.524 . S
C513 C514 1.397 . S
C513 C518 1.366 . S
C514 H491 0.950 . S
C514 C513 1.397 . S
C514 C515 1.334 . S
C515 H492 0.950 . S
C515 C514 1.334 . S
C515 C516 1.287 . S
C516 C515 1.287 . S
C516 C517 1.524 . S
C516 H535 0.913 . S
C517 H493 0.950 1_565 S
C517 C516 1.524 . S
C517 C518 1.418 . S
C518 H494 0.944 1_565 S
C518 C513 1.366 . S
C518 C517 1.418 . S
C519 H495 0.951 . S
C519 C520 1.366 1_655 S
C519 C521 1.388 . S
C520 C519 1.366 1_455 S
C520 C524 1.385 . S
C521 H496 0.951 . S
C521 C519 1.388 . S
C521 C522 1.366 1_655 S
C522 C521 1.366 1_455 S
C522 C523 1.414 . S
C522 C525 1.499 . S
C523 H497 0.950 . S
C523 C522 1.414 . S
C523 C524 1.374 . S
C524 H498 0.950 . S
C524 C520 1.385 . S
C524 C523 1.374 . S
C525 C522 1.499 . S
C525 C526 1.373 . S
C525 C527 1.389 1_455 S
C526 H499 0.950 . S
C526 C512 1.377 1_545 S
C526 C525 1.373 . S
C527 C511 1.377 1_545 S
C527 C525 1.389 1_655 S
C527 C528 1.524 . S
C528 C527 1.524 . S
C528 C529 1.397 . S
C528 C533 1.366 . S
C529 H500 0.950 . S
C529 C528 1.397 . S
C529 C530 1.334 . S
C530 H501 0.950 . S
C530 C529 1.334 . S
C530 C531 1.287 . S
C531 C530 1.287 . S
C531 C532 1.524 . S
C531 H534 0.999 . S
C532 H502 0.950 1_545 S
C532 C531 1.524 . S
C532 C533 1.418 . S
C533 H503 0.944 1_545 S
C533 C528 1.366 . S
C533 C532 1.418 . S
H534 C531 0.999 . S
H535 C516 0.913 . S
H536 C554 0.951 . S
H537 C556 0.951 1_556 S
H538 C558 0.950 . S
H539 C559 0.950 . S
H540 C561 0.950 . S
H541 C564 0.950 . S
H542 C565 0.950 1_554 S
H543 C567 0.950 . S
H544 C568 0.950 . S
H545 C569 0.951 . S
H546 C571 0.951 . S
H547 C573 0.950 . S
H548 C574 0.950 . S
H549 C576 0.950 . S
H550 C579 0.950 . S
H551 C580 0.950 . S
H552 C582 0.950 . S
H553 C583 0.950 . S
C554 H536 0.951 . S
C554 C555 1.366 1_655 S
C554 C556 1.388 . S
C555 C554 1.366 1_455 S
C555 C559 1.385 . S
C556 H537 0.951 1_554 S
C556 C554 1.388 . S
C556 C557 1.366 1_654 S
C557 C556 1.366 1_456 S
C557 C558 1.414 1_556 S
C557 C560 1.499 . S
C558 H538 0.950 . S
C558 C557 1.414 1_554 S
C558 C559 1.374 . S
C559 H539 0.950 . S
C559 C555 1.385 . S
C559 C558 1.374 . S
C560 C557 1.499 . S
C560 C561 1.373 1_455 S
C560 C562 1.389 . S
C561 H540 0.950 . S
C561 C560 1.373 1_655 S
C561 C577 1.377 . S
C562 C560 1.389 . S
C562 C563 1.524 . S
C562 C576 1.377 . S
C563 C562 1.524 . S
C563 C564 1.397 . S
C563 C568 1.363 . S
C564 H541 0.950 . S
C564 C563 1.397 . S
C564 C565 1.334 . S
C565 H542 0.950 1_556 S
C565 C564 1.334 . S
C565 C566 1.287 . S
C566 C565 1.287 . S
C566 C567 1.524 . S
C566 H585 0.913 . S
C567 H543 0.950 . S
C567 C566 1.524 . S
C567 C568 1.415 . S
C568 H544 0.950 . S
C568 C563 1.363 . S
C568 C567 1.415 . S
C569 H545 0.951 . S
C569 C570 1.366 . S
C569 C571 1.388 . S
C570 C569 1.366 . S
C570 C574 1.385 1_455 S
C571 H546 0.951 . S
C571 C569 1.388 . S
C571 C572 1.366 . S
C572 C571 1.366 . S
C572 C573 1.414 1_455 S
C572 C575 1.499 . S
C573 H547 0.950 . S
C573 C572 1.414 1_655 S
C573 C574 1.374 . S
C574 H548 0.950 . S
C574 C570 1.385 1_655 S
C574 C573 1.374 . S
C575 C572 1.499 . S
C575 C576 1.373 . S
C575 C577 1.389 1_455 S
C576 H549 0.950 . S
C576 C562 1.377 . S
C576 C575 1.373 . S
C577 C561 1.377 . S
C577 C575 1.389 1_655 S
C577 C578 1.524 . S
C578 C577 1.524 . S
C578 C579 1.397 . S
C578 C583 1.363 . S
C579 H550 0.950 . S
C579 C578 1.397 . S
C579 C580 1.334 . S
C580 H551 0.950 . S
C580 C579 1.334 . S
C580 C581 1.287 . S
C581 C580 1.287 . S
C581 C582 1.524 . S
C581 H584 0.999 . S
C582 H552 0.950 . S
C582 C581 1.524 . S
C582 C583 1.415 . S
C583 H553 0.950 . S
C583 C578 1.363 . S
C583 C582 1.415 . S
H584 C581 0.999 . S
H585 C566 0.913 . S
H586 C604 0.951 . S
H587 C606 0.961 . S
H588 C608 0.950 . S
H589 C609 0.950 . S
H590 C611 0.950 . S
H591 C614 0.950 . S
H592 C615 0.950 1_556 S
H593 C617 0.950 . S
H594 C618 0.950 . S
H595 C619 0.951 . S
H596 C621 0.951 . S
H597 C623 0.950 . S
H598 C624 0.950 . S
H599 C626 0.950 . S
H600 C629 0.950 . S
H601 C630 0.950 . S
H602 C632 0.950 . S
H603 C633 0.950 . S
C604 H586 0.951 . S
C604 C605 1.366 . S
C604 C606 1.388 . S
C605 C604 1.366 . S
C605 C609 1.385 1_455 S
C606 H587 0.961 . S
C606 C604 1.388 . S
C606 C607 1.370 1_556 S
C607 C606 1.370 1_554 S
C607 C608 1.411 1_454 S
C607 C610 1.498 1_455 S
C608 H588 0.950 . S
C608 C607 1.411 1_656 S
C608 C609 1.374 . S
C609 H589 0.950 . S
C609 C605 1.385 1_655 S
C609 C608 1.374 . S
C610 C607 1.498 1_655 S
C610 C611 1.374 1_655 S
C610 C612 1.388 . S
C611 H590 0.950 . S
C611 C610 1.374 1_455 S
C611 C627 1.377 . S
C612 C610 1.388 . S
C612 C613 1.524 . S
C612 C626 1.377 . S
C613 C612 1.524 . S
C613 C614 1.397 . S
C613 C618 1.363 . S
C614 H591 0.950 . S
C614 C613 1.397 . S
C614 C615 1.334 . S
C615 H592 0.950 1_554 S
C615 C614 1.334 . S
C615 C616 1.287 . S
C616 C615 1.287 . S
C616 C617 1.524 . S
C616 H635 0.913 . S
C617 H593 0.950 . S
C617 C616 1.524 . S
C617 C618 1.415 . S
C618 H594 0.950 . S
C618 C613 1.363 . S
C618 C617 1.415 . S
C619 H595 0.951 . S
C619 C620 1.366 1_655 S
C619 C621 1.388 . S
C620 C619 1.366 1_455 S
C620 C624 1.385 . S
C621 H596 0.951 . S
C621 C619 1.388 . S
C621 C622 1.366 1_655 S
C622 C621 1.366 1_455 S
C622 C623 1.414 . S
C622 C625 1.499 . S
C623 H597 0.950 . S
C623 C622 1.414 . S
C623 C624 1.374 . S
C624 H598 0.950 . S
C624 C620 1.385 . S
C624 C623 1.374 . S
C625 C622 1.499 . S
C625 C626 1.373 1_455 S
C625 C627 1.389 . S
C626 H599 0.950 . S
C626 C612 1.377 . S
C626 C625 1.373 1_655 S
C627 C611 1.377 . S
C627 C625 1.389 . S
C627 C628 1.524 . S
C628 C627 1.524 . S
C628 C629 1.397 . S
C628 C633 1.363 . S
C629 H600 0.950 . S
C629 C628 1.397 . S
C629 C630 1.334 . S
C630 H601 0.950 . S
C630 C629 1.334 . S
C630 C631 1.287 . S
C631 C630 1.287 . S
C631 C632 1.524 . S
C631 H634 0.999 . S
C632 H602 0.950 . S
C632 C631 1.524 . S
C632 C633 1.415 . S
C633 H603 0.950 . S
C633 C628 1.363 . S
C633 C632 1.415 . S
H634 C631 0.999 . S
H635 C616 0.913 . S
H636 C654 0.951 . S
H637 C656 0.951 . S
H638 C658 0.950 . S
H639 C659 0.950 . S
H640 C661 0.950 . S
H641 C664 0.950 . S
H642 C665 0.950 . S
H643 C667 0.950 . S
H644 C668 0.950 . S
H645 C669 0.951 . S
H646 C671 0.951 . S
H647 C673 0.950 . S
H648 C674 0.950 . S
H649 C676 0.950 . S
H650 C679 0.950 . S
H651 C680 0.950 . S
H652 C682 0.950 . S
H653 C683 0.950 . S
C654 H636 0.951 . S
C654 C655 1.366 . S
C654 C656 1.388 . S
C655 C654 1.366 . S
C655 C659 1.385 . S
C656 H637 0.951 . S
C656 C654 1.388 . S
C656 C657 1.366 . S
C657 C656 1.366 . S
C657 C658 1.414 . S
C657 C660 1.499 . S
C658 H638 0.950 . S
C658 C657 1.414 . S
C658 C659 1.374 . S
C659 H639 0.950 . S
C659 C655 1.385 . S
C659 C658 1.374 . S
C660 C657 1.499 . S
C660 C661 1.373 . S
C660 C662 1.389 . S
C661 H640 0.950 . S
C661 C660 1.373 . S
C661 C677 1.377 . S
C662 C660 1.389 . S
C662 C663 1.524 . S
C662 C676 1.377 . S
C663 C662 1.524 . S
C663 C664 1.397 . S
C663 C668 1.363 . S
C664 H641 0.950 . S
C664 C663 1.397 . S
C664 C665 1.334 . S
C665 H642 0.950 . S
C665 C664 1.334 . S
C665 C666 1.287 . S
C666 C665 1.287 . S
C666 C667 1.524 . S
C666 H685 0.913 . S
C667 H643 0.950 . S
C667 C666 1.524 . S
C667 C668 1.415 . S
C668 H644 0.950 . S
C668 C663 1.363 . S
C668 C667 1.415 . S
C669 H645 0.951 . S
C669 C670 1.366 . S
C669 C671 1.388 . S
C670 C669 1.366 . S
C670 C674 1.385 . S
C671 H646 0.951 . S
C671 C669 1.388 . S
C671 C672 1.366 . S
C672 C671 1.366 . S
C672 C673 1.414 . S
C672 C675 1.499 . S
C673 H647 0.950 . S
C673 C672 1.414 . S
C673 C674 1.374 . S
C674 H648 0.950 . S
C674 C670 1.385 . S
C674 C673 1.374 . S
C675 C672 1.499 . S
C675 C676 1.373 . S
C675 C677 1.389 . S
C676 H649 0.950 . S
C676 C662 1.377 . S
C676 C675 1.373 . S
C677 C661 1.377 . S
C677 C675 1.389 . S
C677 C678 1.524 . S
C678 C677 1.524 . S
C678 C679 1.397 . S
C678 C683 1.363 . S
C679 H650 0.950 . S
C679 C678 1.397 . S
C679 C680 1.334 . S
C680 H651 0.950 . S
C680 C679 1.334 . S
C680 C681 1.287 . S
C681 C680 1.287 . S
C681 C682 1.524 . S
C681 H684 0.999 . S
C682 H652 0.950 . S
C682 C681 1.524 . S
C682 C683 1.415 . S
C683 H653 0.950 . S
C683 C678 1.363 . S
C683 C682 1.415 . S
H684 C681 0.999 . S
H685 C666 0.913 . S
H686 C704 0.951 . S
H687 C706 0.951 . S
H688 C708 0.950 . S
H689 C709 0.950 . S
H690 C711 0.950 . S
H691 C714 0.950 . S
H692 C715 0.950 . S
H693 C717 0.950 . S
H694 C718 0.950 . S
H695 C719 0.951 . S
H696 C721 0.951 . S
H697 C723 0.950 . S
H698 C724 0.950 . S
H699 C726 0.950 . S
H700 C729 0.950 . S
H701 C730 0.950 . S
H702 C732 0.950 . S
H703 C733 0.950 . S
C704 H686 0.951 . S
C704 C705 1.366 . S
C704 C706 1.388 . S
C705 C704 1.366 . S
C705 C709 1.385 . S
C706 H687 0.951 . S
C706 C704 1.388 . S
C706 C707 1.366 . S
C707 C706 1.366 . S
C707 C708 1.414 . S
C707 C710 1.499 . S
C708 H688 0.950 . S
C708 C707 1.414 . S
C708 C709 1.374 . S
C709 H689 0.950 . S
C709 C705 1.385 . S
C709 C708 1.374 . S
C710 C707 1.499 . S
C710 C711 1.373 . S
C710 C712 1.389 . S
C711 H690 0.950 . S
C711 C710 1.373 . S
C711 C727 1.377 . S
C712 C710 1.389 . S
C712 C713 1.524 . S
C712 C726 1.377 . S
C713 C712 1.524 . S
C713 C714 1.397 . S
C713 C718 1.363 . S
C714 H691 0.950 . S
C714 C713 1.397 . S
C714 C715 1.334 . S
C715 H692 0.950 . S
C715 C714 1.334 . S
C715 C716 1.287 . S
C716 C715 1.287 . S
C716 C717 1.524 . S
C716 H735 0.913 . S
C717 H693 0.950 . S
C717 C716 1.524 . S
C717 C718 1.415 . S
C718 H694 0.950 . S
C718 C713 1.363 . S
C718 C717 1.415 . S
C719 H695 0.951 . S
C719 C720 1.366 . S
C719 C721 1.388 . S
C720 C719 1.366 . S
C720 C724 1.385 . S
C721 H696 0.951 . S
C721 C719 1.388 . S
C721 C722 1.366 . S
C722 C721 1.366 . S
C722 C723 1.414 . S
C722 C725 1.499 . S
C723 H697 0.950 . S
C723 C722 1.414 . S
C723 C724 1.374 . S
C724 H698 0.950 . S
C724 C720 1.385 . S
C724 C723 1.374 . S
C725 C722 1.499 . S
C725 C726 1.373 . S
C725 C727 1.389 . S
C726 H699 0.950 . S
C726 C712 1.377 . S
C726 C725 1.373 . S
C727 C711 1.377 . S
C727 C725 1.389 . S
C727 C728 1.524 . S
C728 C727 1.524 . S
C728 C729 1.397 . S
C728 C733 1.363 . S
C729 H700 0.950 . S
C729 C728 1.397 . S
C729 C730 1.334 . S
C730 H701 0.950 . S
C730 C729 1.334 . S
C730 C731 1.287 . S
C731 C730 1.287 . S
C731 C732 1.524 . S
C731 H734 0.999 . S
C732 H702 0.950 . S
C732 C731 1.524 . S
C732 C733 1.415 . S
C733 H703 0.950 . S
C733 C728 1.363 . S
C733 C732 1.415 . S
H734 C731 0.999 . S
H735 C716 0.913 . S
C155 C17 1.958 . S
C170 C42 1.958 . S
C205 C68 2.125 . S
C220 C63 2.125 . S
C255 C119 2.049 . S
C270 C76 2.049 . S
C305 C29 1.888 . S
C320 C102 1.888 . S
C355 C131 2.125 . S
C370 C0 2.125 . S
C405 C97 1.888 . S
C420 C34 1.888 . S
C455 C85 1.959 . S
C470 C110 1.959 . S
C505 C51 2.049 . S
C520 C8 2.049 . S
C555 C4 0.443 . S
C570 C13 0.443 . S
C605 C47 0.443 . S
C620 C38 0.443 . S
C655 C81 0.443 . S
C670 C72 0.443 . S
C705 C115 0.443 . S
C720 C106 0.443 . S
