# Generated by pormake.
# Topology wfs, (7)-cn, num edge types: 1
# Building blocks:
#     Node 0, Type 0, BuildingBlock: HICVOG_clean_sbu_0, # of connection points: 7
#     Node 1, Type 0, BuildingBlock: HICVOG_clean_sbu_0, # of connection points: 7
#     Node 2, Type 0, BuildingBlock: HICVOG_clean_sbu_0, # of connection points: 7
#     Node 3, Type 0, BuildingBlock: HICVOG_clean_sbu_0, # of connection points: 7
#     Node 4, Type 0, BuildingBlock: HICVOG_clean_sbu_0, # of connection points: 7
#     Node 5, Type 0, BuildingBlock: HICVOG_clean_sbu_0, # of connection points: 7
#     Node 6, Type 0, BuildingBlock: HICVOG_clean_sbu_0, # of connection points: 7
#     Node 7, Type 0, BuildingBlock: HICVOG_clean_sbu_0, # of connection points: 7
#     Edge 8, Type (0, 0), BuildingBlock: EZIPEK_clean_linker_0, # of connection points: 2
#     Edge 9, Type (0, 0), BuildingBlock: EZIPEK_clean_linker_0, # of connection points: 2
#     Edge 10, Type (0, 0), BuildingBlock: EZIPEK_clean_linker_0, # of connection points: 2
#     Edge 11, Type (0, 0), BuildingBlock: EZIPEK_clean_linker_0, # of connection points: 2
#     Edge 12, Type (0, 0), BuildingBlock: EZIPEK_clean_linker_0, # of connection points: 2
#     Edge 13, Type (0, 0), BuildingBlock: EZIPEK_clean_linker_0, # of connection points: 2
#     Edge 14, Type (0, 0), BuildingBlock: EZIPEK_clean_linker_0, # of connection points: 2
#     Edge 15, Type (0, 0), BuildingBlock: EZIPEK_clean_linker_0, # of connection points: 2
#     Edge 16, Type (0, 0), BuildingBlock: EZIPEK_clean_linker_0, # of connection points: 2
#     Edge 17, Type (0, 0), BuildingBlock: EZIPEK_clean_linker_0, # of connection points: 2
#     Edge 18, Type (0, 0), BuildingBlock: EZIPEK_clean_linker_0, # of connection points: 2
#     Edge 19, Type (0, 0), BuildingBlock: EZIPEK_clean_linker_0, # of connection points: 2
#     Edge 20, Type (0, 0), BuildingBlock: EZIPEK_clean_linker_0, # of connection points: 2
#     Edge 21, Type (0, 0), BuildingBlock: EZIPEK_clean_linker_0, # of connection points: 2
#     Edge 22, Type (0, 0), BuildingBlock: EZIPEK_clean_linker_0, # of connection points: 2
#     Edge 23, Type (0, 0), BuildingBlock: EZIPEK_clean_linker_0, # of connection points: 2
#     Edge 24, Type (0, 0), BuildingBlock: EZIPEK_clean_linker_0, # of connection points: 2
#     Edge 25, Type (0, 0), BuildingBlock: EZIPEK_clean_linker_0, # of connection points: 2
#     Edge 26, Type (0, 0), BuildingBlock: EZIPEK_clean_linker_0, # of connection points: 2
#     Edge 27, Type (0, 0), BuildingBlock: EZIPEK_clean_linker_0, # of connection points: 2
#     Edge 28, Type (0, 0), BuildingBlock: EZIPEK_clean_linker_0, # of connection points: 2
#     Edge 29, Type (0, 0), BuildingBlock: EZIPEK_clean_linker_0, # of connection points: 2
#     Edge 30, Type (0, 0), BuildingBlock: EZIPEK_clean_linker_0, # of connection points: 2
#     Edge 31, Type (0, 0), BuildingBlock: EZIPEK_clean_linker_0, # of connection points: 2
#     Edge 32, Type (0, 0), BuildingBlock: EZIPEK_clean_linker_0, # of connection points: 2
#     Edge 33, Type (0, 0), BuildingBlock: EZIPEK_clean_linker_0, # of connection points: 2
#     Edge 34, Type (0, 0), BuildingBlock: EZIPEK_clean_linker_0, # of connection points: 2
#     Edge 35, Type (0, 0), BuildingBlock: EZIPEK_clean_linker_0, # of connection points: 2
# Relax obj value: 0.591
# Max RMSD: 0.327
# Mean RMSD: 0.327
data_MOF--net-wfs--node1-HICVOG_clean_sbu_0--edge1-EZIPEK_clean_linker_0
_symmetry_space_group_name_H-M    P1
_symmetry_Int_Tables_number       1
_symmetry_cell_setting            triclinic
loop_
_symmetry_equiv_pos_as_xyz
'x, y, z'
_cell_length_a     23.945331
_cell_length_b     22.183352
_cell_length_c     26.116742
_cell_angle_alpha  89.976244
_cell_angle_beta   89.862301
_cell_angle_gamma 89.997633
loop_
_atom_site_label
_atom_site_type_symbol
_atom_site_fract_x
_atom_site_fract_y
_atom_site_fract_z
_atom_type_partial_charge
Zn0 Zn 0.21013 0.13528 0.16035 0.0
C1 C 0.2105 0.30965 0.21189 0.0
N2 N 0.26551 0.30013 0.20648 0.0
C3 C 0.2677 0.24316 0.19024 0.0
N4 N 0.21681 0.21797 0.1857 0.0
N5 N 0.17971 0.2601 0.19846 0.0
C6 C 0.07699 0.28879 0.0916 0.0
O7 O 0.13025 0.27738 0.08484 0.0
O8 O 0.25931 0.07725 0.20137 0.0
Zn9 Zn 0.09744 0.24847 0.19794 0.0
N10 N 0.2435 0.13536 0.09255 0.0
C11 C 0.24737 0.17175 0.00714 0.0
C12 C 0.21923 0.16581 0.05354 0.0
C13 C 0.29449 0.10918 0.08667 0.0
N14 N 0.29829 0.14576 1.00138 0.0
C15 C 0.32353 0.11437 0.03983 0.0
O16 O 0.06957 0.16168 0.19143 0.0
C17 C 0.08238 0.10943 0.17479 0.0
O18 O 0.13193 0.09697 0.16014 0.0
H19 H 0.17901 0.1861 0.05887 0.0
H20 H 0.31171 0.08504 0.1186 0.0
C21 C 0.01202 0.29583 0.26422 0.0
C22 C 0.99084 0.31905 0.31042 0.0
C23 C 0.081 0.31252 0.34698 0.0
C24 C 0.10079 0.28573 0.30221 0.0
N25 N 0.06683 0.28063 0.26095 0.0
N26 N 0.02639 0.32843 0.35022 0.0
H27 H 0.98493 0.2881 0.23175 0.0
C28 C 0.23951 0.03947 0.23319 0.0
O29 O 0.18641 0.04218 0.24553 0.0
O30 O 0.05659 0.28604 0.13657 0.0
H31 H 0.14268 0.26856 0.30026 0.0
H32 H 0.22877 0.19638 0.97575 0.0
H33 H 0.10833 0.31865 0.37947 0.0
Zn34 Zn 0.10789 0.78804 0.82707 0.0
C35 C 0.27602 0.79472 0.82575 0.0
N36 N 0.27165 0.73596 0.81454 0.0
C37 C 0.21635 0.72692 0.81493 0.0
N38 N 0.18809 0.77847 0.82605 0.0
N39 N 0.2261 0.82165 0.83148 0.0
C40 C 0.25161 1.00176 0.77489 0.0
O41 O 0.19795 1.00064 0.76485 0.0
O42 O 0.06704 0.74544 0.88556 0.0
Zn43 Zn 0.22016 0.90765 0.84873 0.0
N44 N 0.08176 0.76352 0.7615 0.0
C45 C 0.07462 0.79344 0.67463 0.0
C46 C 0.10217 0.79558 0.72132 0.0
C47 C 0.0367 0.72698 0.75657 0.0
N48 N 0.02558 0.76318 0.67158 0.0
C49 C 0.00473 0.73078 0.71171 0.0
O50 O 0.14238 0.94545 0.84688 0.0
C51 C 0.09186 0.9289 0.8413 0.0
O52 O 0.07923 0.87385 0.83418 0.0
H53 H 0.13761 0.82517 0.72651 0.0
H54 H 0.02232 0.70151 0.78939 0.0
C55 C 0.30002 0.93531 0.92527 0.0
C56 C 0.32386 0.93329 0.97449 0.0
C57 C 0.24054 0.88668 0.00528 0.0
C58 C 0.21742 0.88968 0.95655 0.0
N59 N 0.2479 0.91301 0.91753 0.0
N60 N 0.2927 0.9087 0.01305 0.0
H61 H 0.32221 0.95342 0.89289 0.0
C62 C 0.08604 0.74953 0.93086 0.0
O63 O 0.13717 0.76929 0.93744 0.0
O64 O 0.2718 0.96288 0.80567 0.0
H65 H 0.176 0.87291 0.94946 0.0
H66 H 0.08979 0.81905 0.64221 0.0
H67 H 0.21709 0.86767 0.03685 0.0
Zn68 Zn 0.77258 0.91032 0.15616 0.0
C69 C 0.77588 0.73238 0.20121 0.0
N70 N 0.7207 0.73926 0.19747 0.0
C71 C 0.71559 0.79725 0.18423 0.0
N72 N 0.76519 0.826 0.1809 0.0
N73 N 0.80371 0.78429 0.19084 0.0
C74 C 0.92733 0.76744 0.0974 0.0
O75 O 0.89425 0.81349 0.08919 0.0
O76 O 0.73034 0.97661 0.19705 0.0
Zn77 Zn 0.88388 0.79404 0.19438 0.0
N78 N 0.74237 0.91003 0.08725 0.0
C79 C 0.74663 0.87829 1.00047 0.0
C80 C 0.77151 0.88437 0.04835 0.0
C81 C 0.68968 0.93096 0.07988 0.0
N82 N 0.69403 0.8994 0.99326 0.0
C83 C 0.6641 0.92594 0.03164 0.0
O84 O 0.91292 0.87875 0.18374 0.0
C85 C 0.90132 0.93174 0.16877 0.0
O86 O 0.85192 0.94636 0.1556 0.0
H87 H 0.81315 0.86782 0.05474 0.0
H88 H 0.66801 0.95002 0.11173 0.0
C89 C 0.95152 0.74035 0.27077 0.0
C90 C 0.98579 0.75123 0.31329 0.0
C91 C 0.91933 0.82227 0.34412 0.0
C92 C 0.88965 0.81696 0.29871 0.0
N93 N 0.90722 0.77716 0.26262 0.0
N94 N 0.96778 0.79127 0.34936 0.0
H95 H 0.96417 0.70934 0.24095 0.0
C96 C 0.68131 0.99224 0.21128 0.0
O97 O 0.63818 0.95783 0.20138 0.0
O98 O 0.92803 0.74432 0.14199 0.0
H99 H 0.85503 0.84685 0.29076 0.0
H100 H 0.76906 0.85748 0.96912 0.0
H101 H 0.90648 0.85413 0.37318 0.0
Zn102 Zn 0.89181 0.24346 0.82112 0.0
C103 C 0.72382 0.23528 0.82461 0.0
N104 N 0.72748 0.29419 0.81398 0.0
C105 C 0.78267 0.30353 0.81287 0.0
N106 N 0.81166 0.2521 0.82227 0.0
N107 N 0.7741 0.20861 0.82856 0.0
C108 C 0.74443 1.01169 0.80218 0.0
O109 O 0.78236 0.99465 0.83546 0.0
O110 O 0.93275 0.29499 0.87388 0.0
Zn111 Zn 0.78094 0.12261 0.84517 0.0
N112 N 0.91662 0.25987 0.75334 0.0
C113 C 0.92996 0.2161 0.67139 0.0
C114 C 0.90012 0.21996 0.71696 0.0
C115 C 0.96033 0.29759 0.74562 0.0
N116 N 0.97776 0.24834 0.66637 0.0
C117 C -0.00516 0.28807 0.70297 0.0
O118 O 0.85968 0.08719 0.84644 0.0
C119 C 0.91005 0.10457 0.84193 0.0
O120 O 0.92228 0.15933 0.83322 0.0
H121 H 0.86601 0.18923 0.72463 0.0
H122 H 0.97261 0.32809 0.77591 0.0
C123 C 0.69615 0.09295 0.91723 0.0
C124 C 0.66839 0.0966 0.96475 0.0
C125 C 0.74957 0.14288 1.00001 0.0
C126 C 0.77629 0.13923 0.95279 0.0
N127 N 0.74873 0.11533 0.91232 0.0
N128 N 0.69669 0.12163 0.00477 0.0
H129 H 0.67646 0.07427 0.88384 0.0
C130 C 0.92428 0.28102 0.92052 0.0
O131 O 0.8847 0.24217 0.93122 0.0
O132 O 0.73441 0.06792 0.79769 0.0
H133 H 0.81805 0.1565 0.94791 0.0
H134 H 0.91778 0.18444 0.64197 0.0
H135 H 0.77055 0.16241 0.03268 0.0
Zn136 Zn 0.60869 0.7367 0.67899 0.0
C137 C 0.77713 0.73343 0.68273 0.0
N138 N 0.77182 0.79161 0.69533 0.0
C139 C 0.71647 0.8 0.6946 0.0
N140 N 0.68888 0.74848 0.68206 0.0
N141 N 0.72761 0.70616 0.67572 0.0
C142 C 0.76056 0.53873 0.74004 0.0
O143 O 0.71575 0.5567 0.76465 0.0
O144 O 0.56818 0.78022 0.6208 0.0
Zn145 Zn 0.7239 0.6209 0.65605 0.0
N146 N 0.57826 0.753 0.74506 0.0
C147 C 0.56164 0.70671 0.82555 0.0
C148 C 0.59248 0.71114 0.78068 0.0
C149 C 0.53545 0.79208 0.75286 0.0
N150 N 0.51537 0.74123 0.83098 0.0
C151 C 0.50032 0.78316 0.79538 0.0
O152 O 0.64694 0.58021 0.65465 0.0
C153 C 0.59623 0.59652 0.6598 0.0
O154 O 0.58332 0.65107 0.66827 0.0
H155 H 0.62584 0.6795 0.77292 0.0
H156 H 0.52528 0.82466 0.72347 0.0
C157 C 0.80253 0.58355 0.58152 0.0
C158 C 0.83159 0.5855 0.5346 0.0
C159 C 0.7637 0.65506 0.5036 0.0
C160 C 0.73566 0.65271 0.55033 0.0
N161 N 0.75591 0.61745 0.58837 0.0
N162 N 0.81051 0.62141 0.49686 0.0
H163 H 0.8161 0.55551 0.61264 0.0
C164 C 0.58946 0.78643 0.57637 0.0
O165 O 0.64316 0.77705 0.57007 0.0
O166 O 0.77471 0.56558 0.69897 0.0
H167 H 0.69962 0.68048 0.55723 0.0
H168 H 0.5721 0.67346 0.85428 0.0
H169 H 0.74853 0.68343 0.47293 0.0
Zn170 Zn 0.58758 0.29445 0.30015 0.0
C171 C 0.75729 0.29641 0.30602 0.0
N172 N 0.7524 0.23913 0.29082 0.0
C173 C 0.697 0.23209 0.28764 0.0
N174 N 0.66879 0.28293 0.30115 0.0
N175 N 0.70752 0.32393 0.31207 0.0
C176 C 0.73846 0.50521 0.27259 0.0
O177 O 0.68627 0.50389 0.25734 0.0
O178 O 0.54454 0.24953 0.35701 0.0
Zn179 Zn 0.7019 0.40561 0.33977 0.0
N180 N 0.56204 0.26785 0.23388 0.0
C181 C 0.57911 0.26025 0.14454 0.0
C182 C 0.59481 0.28041 0.19282 0.0
C183 C 0.51247 0.23888 0.22834 0.0
N184 N 0.52971 0.23114 0.13896 0.0
C185 C 0.49519 0.21963 0.1793 0.0
O186 O 0.62472 0.44454 0.33919 0.0
C187 C 0.57488 0.43286 0.32546 0.0
O188 O 0.56071 0.38101 0.30903 0.0
H189 H 0.63271 0.30611 0.19776 0.0
H190 H 0.48611 0.23336 0.26169 0.0
C191 C 0.78265 0.41379 0.41777 0.0
C192 C 0.80581 0.40578 0.46684 0.0
C193 C 0.71729 0.36973 0.49569 0.0
C194 C 0.69485 0.37914 0.44722 0.0
N195 N 0.72828 0.39979 0.40913 0.0
N196 N 0.77168 0.38365 0.50434 0.0
H197 H 0.80663 0.43148 0.3863 0.0
C198 C 0.55981 0.25071 0.40368 0.0
O199 O 0.60887 0.27317 0.41491 0.0
O200 O 0.75536 0.46556 0.30423 0.0
H201 H 0.65135 0.37015 0.43986 0.0
H202 H 0.60523 0.26897 0.1115 0.0
H203 H 0.69149 0.3527 0.52652 0.0
Zn204 Zn 0.28151 0.41043 0.6604 0.0
C205 C 0.28242 0.22851 0.69417 0.0
N206 N 0.22732 0.23751 0.69354 0.0
C207 C 0.22318 0.29645 0.68329 0.0
N208 N 0.27326 0.32391 0.67917 0.0
N209 N 0.311 0.28024 0.68456 0.0
C210 C 0.41005 0.24846 0.57901 0.0
O211 O 0.36056 0.27319 0.57393 0.0
O212 O 0.2446 0.47571 0.70733 0.0
Zn213 Zn 0.39145 0.28715 0.68221 0.0
N214 N 0.24905 0.41672 0.59331 0.0
C215 C 0.25027 0.39246 0.50484 0.0
C216 C 0.27692 0.3946 0.55214 0.0
C217 C 0.1963 0.43834 0.58901 0.0
N218 N 0.19737 0.41389 0.50062 0.0
C219 C 0.16891 0.43709 0.54147 0.0
O220 O 0.42215 0.37068 0.67136 0.0
C221 C 0.41091 0.42537 0.66161 0.0
O222 O 0.36083 0.44317 0.65614 0.0
H223 H 0.31898 0.37789 0.55637 0.0
H224 H 0.17616 0.45505 0.62275 0.0
C225 C 0.46325 0.23074 0.75574 0.0
C226 C 0.49671 0.23921 0.79927 0.0
C227 C 0.42999 0.30894 0.83173 0.0
C228 C 0.40084 0.30565 0.78597 0.0
N229 N 0.4188 0.26768 0.74864 0.0
N230 N 0.47821 0.27755 0.83645 0.0
H231 H 0.47611 0.201 0.72507 0.0
C232 C 0.19714 0.49214 0.72508 0.0
O233 O 0.15231 0.46008 0.71582 0.0
O234 O 0.42953 0.24106 0.62391 0.0
H235 H 0.36616 0.33574 0.77884 0.0
H236 H 0.27155 0.3744 0.47164 0.0
H237 H 0.41676 0.33938 0.86174 0.0
Zn238 Zn 0.38244 0.75293 0.31645 0.0
C239 C 0.21485 0.74831 0.3306 0.0
N240 N 0.21874 0.80638 0.31714 0.0
C241 C 0.27392 0.81428 0.3125 0.0
N242 N 0.3027 0.76298 0.32222 0.0
N243 N 0.26498 0.72096 0.33299 0.0
C244 C 0.23935 0.5425 0.2844 0.0
O245 O 0.29169 0.54682 0.26996 0.0
O246 O 0.42724 0.80221 0.36825 0.0
Zn247 Zn 0.27229 0.63764 0.35581 0.0
N248 N 0.40446 0.77014 0.24773 0.0
C249 C 0.41515 0.72481 0.16606 0.0
C250 C 0.38563 0.73111 0.21164 0.0
C251 C 0.44995 0.80519 0.23943 0.0
N252 N 0.46475 0.7537 0.16077 0.0
C253 C 0.48401 0.79287 0.19688 0.0
O254 O 0.35025 0.59934 0.35329 0.0
C255 C 0.39945 0.61447 0.33982 0.0
O256 O 0.41106 0.66784 0.32584 0.0
H257 H 0.35038 0.70212 0.21982 0.0
H258 H 0.46394 0.83511 0.26949 0.0
C259 C 0.19433 0.61063 0.43333 0.0
C260 C 0.16642 0.61786 0.48044 0.0
C261 C 0.24236 0.67853 0.50915 0.0
C262 C 0.26886 0.67172 0.46201 0.0
N263 N 0.24413 0.63823 0.42502 0.0
N264 N 0.19224 0.65151 0.51715 0.0
H265 H 0.17714 0.58401 0.40292 0.0
C266 C 0.42838 0.77892 0.41277 0.0
O267 O 0.39753 0.7313 0.42168 0.0
O268 O 0.22025 0.57995 0.31687 0.0
H269 H 0.30758 0.69462 0.45433 0.0
H270 H 0.40129 0.69348 0.13702 0.0
H271 H 0.26118 0.70537 0.53906 0.0
C272 C 0.28596 0.97925 0.30268 0.0
C273 C 0.27274 0.98642 0.2501 0.0
C274 C 0.28716 0.87853 0.23565 0.0
C275 C 0.29534 0.87046 0.289 0.0
N276 N 0.31884 0.91249 0.37044 0.0
N277 N 0.2793 0.94746 0.16399 0.0
C278 C 0.30123 0.9211 0.32133 0.0
C279 C 0.28064 0.93771 0.21562 0.0
N280 N 0.28104 0.02739 0.33495 0.0
N281 N 0.27955 0.82924 0.20509 0.0
H282 H 0.27246 0.98976 0.14794 0.0
H283 H 0.2899 0.91471 0.13711 0.0
H284 H 0.28291 0.78533 0.21895 0.0
H285 H 0.26638 0.8316 0.16717 0.0
H286 H 0.28448 0.02444 0.37457 0.0
H287 H 0.2716 0.0706 0.32173 0.0
H288 H 0.32759 0.94736 0.39583 0.0
H289 H 0.32895 0.86964 0.38415 0.0
C290 C 0.90672 0.71506 0.74905 0.0
C291 C 0.9462 0.70816 0.70825 0.0
C292 C 0.86921 0.70017 0.64813 0.0
C293 C 0.83085 0.70281 0.68918 0.0
N294 N 0.81429 0.68839 0.77909 0.0
N295 N 0.96155 0.6685 0.62303 0.0
C296 C 0.85057 0.69904 0.73981 0.0
C297 C 0.92615 0.69072 0.6593 0.0
N298 N 0.91909 0.74547 0.79308 0.0
N299 N 0.85297 0.71339 0.59945 0.0
H300 H 0.00321 0.65917 0.63132 0.0
H301 H 0.94757 0.65332 0.58748 0.0
H302 H 0.81219 0.72605 0.59076 0.0
H303 H 0.88125 0.71682 0.56913 0.0
H304 H 0.88938 0.75359 0.82152 0.0
H305 H 0.95485 0.77131 0.798 0.0
H306 H 0.82762 0.68326 0.81685 0.0
H307 H 0.77224 0.67869 0.77248 0.0
C308 C 0.65694 0.12835 0.29817 0.0
C309 C 0.6742 0.17576 0.26509 0.0
C310 C 0.68344 0.10343 0.19422 0.0
C311 C 0.6721 0.05545 0.2286 0.0
N312 N 0.63428 0.02213 0.30921 0.0
N313 N 0.71032 0.2076 0.18295 0.0
C314 C 0.65398 0.06799 0.27923 0.0
C315 C 0.68792 0.16322 0.21312 0.0
N316 N 0.64926 0.14015 0.349 0.0
N317 N 0.68873 0.09198 0.14303 0.0
H318 H 0.71416 0.25226 0.19479 0.0
H319 H 0.72875 0.19973 0.14744 0.0
H320 H 0.68577 0.04887 0.12767 0.0
H321 H 0.69046 0.12551 0.11519 0.0
H322 H 0.64472 0.107 0.37686 0.0
H323 H 0.65131 0.18362 0.36389 0.0
H324 H 0.61482 0.02868 0.34444 0.0
H325 H 0.63369 0.97732 0.29717 0.0
C326 C 0.08974 0.31036 0.74271 0.0
C327 C 0.05267 0.31231 0.6999 0.0
C328 C 0.1328 0.32284 0.64305 0.0
C329 C 0.16853 0.32565 0.686 0.0
N330 N 0.17884 0.34319 0.77613 0.0
N331 N 0.03977 0.34227 0.61161 0.0
C332 C 0.14553 0.32917 0.73555 0.0
C333 C 0.0745 0.327 0.65087 0.0
N334 N 0.07558 0.28243 0.78758 0.0
N335 N 0.15375 0.3101 0.59566 0.0
H336 H -0.00316 0.34784 0.61691 0.0
H337 H 0.0547 0.35586 0.57586 0.0
H338 H 0.19645 0.30495 0.58891 0.0
H339 H 0.12829 0.30147 0.56415 0.0
H340 H 0.10361 0.27723 0.81776 0.0
H341 H 0.04005 0.25608 0.7923 0.0
H342 H 0.16311 0.34898 0.81309 0.0
H343 H 0.22072 0.35507 0.77118 0.0
C344 C 0.29412 0.06171 0.70288 0.0
C345 C 0.28505 0.05427 0.7562 0.0
C346 C 0.30005 0.16249 0.76965 0.0
C347 C 0.30418 0.17101 0.71581 0.0
N348 N 0.31872 0.12891 0.63245 0.0
N349 N 0.29753 0.09311 0.84154 0.0
C350 C 0.30676 0.12022 0.68301 0.0
C351 C 0.29515 0.10309 0.78998 0.0
N352 N 0.28787 1.01312 0.67129 0.0
N353 N 0.29465 0.21157 0.8009 0.0
H354 H 0.29274 0.0505 0.85766 0.0
H355 H 0.30927 0.12588 0.86792 0.0
H356 H 0.29672 0.25561 0.78716 0.0
H357 H 0.28436 0.20898 0.83959 0.0
H358 H 0.28814 1.01557 0.63152 0.0
H359 H 0.28116 0.96971 0.68549 0.0
H360 H 0.32496 0.09426 0.60624 0.0
H361 H 0.32622 0.17181 0.61769 0.0
C362 C 0.13698 0.70878 0.28176 0.0
C363 C 0.16032 0.71822 0.3305 0.0
C364 C 0.06651 0.71739 0.36651 0.0
C365 C 0.04406 0.72787 0.317 0.0
N366 N 0.06685 0.75119 0.22771 0.0
N367 N 0.14554 0.74126 0.41972 0.0
C368 C 0.08102 0.72659 0.27388 0.0
C369 C 0.12474 0.72387 0.3735 0.0
N370 N 0.17006 0.69117 0.24193 0.0
N371 N 0.03244 0.7039 0.40686 0.0
H372 H 0.18797 0.74935 0.42535 0.0
H373 H 0.12 0.75146 0.45095 0.0
H374 H 0.98972 0.69634 0.40223 0.0
H375 H 0.04799 0.69345 0.44308 0.0
H376 H 0.15395 0.68159 0.20575 0.0
H377 H 0.2122 0.68063 0.24705 0.0
H378 H 0.09479 0.75372 0.19709 0.0
H379 H 0.03175 0.77794 0.22206 0.0
C380 C 0.70899 0.96391 0.71914 0.0
C381 C 0.7132 0.96383 0.77352 0.0
C382 C 0.6942 0.85517 0.77502 0.0
C383 C 0.69352 0.85422 0.7207 0.0
N384 N 0.68306 0.90855 0.64219 0.0
N385 N 0.68823 0.91483 0.85255 0.0
C386 C 0.6942 0.90933 0.69335 0.0
C387 C 0.69775 0.91124 0.80107 0.0
N388 N 0.72339 1.01406 0.6918 0.0
N389 N 0.69731 0.80228 0.80167 0.0
H390 H 0.68894 0.9558 0.8722 0.0
H391 H 0.67437 0.87856 0.87445 0.0
H392 H 0.69612 0.76035 0.78379 0.0
H393 H 0.7052 0.79993 0.84082 0.0
H394 H 0.72782 1.01441 0.65214 0.0
H395 H 0.73375 0.05499 0.70868 0.0
H396 H 0.67821 0.94727 0.6201 0.0
H397 H 0.67349 0.86852 0.62326 0.0
C398 C 0.84077 0.35599 0.27936 0.0
C399 C 0.8125 0.32201 0.31724 0.0
C400 C 0.90117 0.29217 0.35537 0.0
C401 C 0.92983 0.32666 0.3176 0.0
N402 N 0.92654 0.40614 0.25465 0.0
N403 N 0.81359 0.27297 0.39921 0.0
C404 C 0.8994 0.36375 0.28331 0.0
C405 C 0.84221 0.29604 0.35835 0.0
N406 N 0.81245 0.37693 0.23769 0.0
N407 N 0.92922 0.25175 0.38536 0.0
H408 H 0.77006 0.27449 0.40147 0.0
H409 H 0.83298 0.25857 0.43272 0.0
H410 H 0.97203 0.24421 0.38292 0.0
H411 H 0.90919 0.22116 0.40946 0.0
H412 H 0.83234 0.39521 0.20573 0.0
H413 H 0.76922 0.37281 0.23405 0.0
H414 H 0.90568 0.43776 0.23219 0.0
H415 H 0.96948 0.41343 0.25755 0.0
C416 C 0.78256 0.42948 0.72003 0.0
C417 C 0.78628 0.47954 0.75413 0.0
C418 C 0.81169 0.41089 0.82441 0.0
C419 C 0.80426 0.36104 0.7913 0.0
N420 N 0.79718 0.32243 0.7058 0.0
N421 N 0.81973 0.51969 0.83384 0.0
C422 C 0.79591 0.37067 0.73824 0.0
C423 C 0.8063 0.4707 0.80473 0.0
N424 N 0.76086 0.4367 0.67197 0.0
N425 N 0.82002 0.40066 0.87536 0.0
H426 H 0.81643 0.56366 0.81993 0.0
H427 H 0.83864 0.51676 0.86961 0.0
H428 H 0.82561 0.35725 0.88993 0.0
H429 H 0.81917 0.43433 0.9031 0.0
H430 H 0.75092 0.40105 0.64777 0.0
H431 H 0.74857 0.47793 0.6568 0.0
H432 H 0.79816 0.32625 0.66607 0.0
H433 H 0.80159 0.27837 0.71901 0.0
C434 C 0.34957 0.18139 0.21739 0.0
C435 C 0.32139 0.21394 0.17848 0.0
C436 C 0.40666 0.21515 0.12686 0.0
C437 C 0.43694 0.1967 0.17067 0.0
N438 N 0.43501 0.13071 0.24327 0.0
N439 N 0.32174 0.26081 0.09513 0.0
C440 C 0.40743 0.16926 0.21143 0.0
C441 C 0.34932 0.22963 0.13244 0.0
N442 N 0.32237 0.16704 0.26176 0.0
N443 N 0.43137 0.21466 0.07974 0.0
H444 H 0.27906 0.27013 0.09716 0.0
H445 H 0.34169 0.27978 0.06351 0.0
H446 H 0.4702 0.19473 0.07348 0.0
H447 H 0.41011 0.22458 0.04604 0.0
H448 H 0.34252 0.15026 0.29405 0.0
H449 H 0.2797 0.17458 0.26695 0.0
H450 H 0.41529 0.10512 0.27144 0.0
H451 H 0.47709 0.12023 0.2374 0.0
C452 C 0.17936 0.62108 0.82193 0.0
C453 C 0.19342 0.67125 0.79074 0.0
C454 C 0.19762 0.60494 0.71516 0.0
C455 C 0.191 0.55385 0.74743 0.0
N456 N 0.17253 0.51181 0.83068 0.0
N457 N 0.21699 0.71199 0.70794 0.0
C458 C 0.17986 0.56161 0.80052 0.0
C459 C 0.20175 0.6635 0.73721 0.0
N460 N 0.16725 0.63059 0.87239 0.0
N461 N 0.19929 0.59742 0.66321 0.0
H462 H 0.21791 0.7559 0.72213 0.0
H463 H 0.23136 0.70889 0.67041 0.0
H464 H 0.19642 0.55539 0.64569 0.0
H465 H 0.19902 0.63275 0.63702 0.0
H466 H 0.15287 0.59762 0.89745 0.0
H467 H 0.16893 0.67335 0.88874 0.0
H468 H 0.1687 0.51286 0.87031 0.0
H469 H 0.17213 0.46811 0.81598 0.0
C470 C 0.5788 0.8124 0.2379 0.0
C471 C 0.54332 0.81315 0.19397 0.0
C472 C 0.62619 0.81878 0.13971 0.0
C473 C 0.66007 0.82477 0.18371 0.0
N474 N 0.6661 0.84718 0.27349 0.0
N475 N 0.53495 0.83729 0.10384 0.0
C476 C 0.63484 0.83079 0.23218 0.0
C477 C 0.56756 0.82398 0.14509 0.0
N478 N 0.56294 0.7856 0.28276 0.0
N479 N 0.64914 0.8027 0.09386 0.0
H480 H 0.49205 0.8446 0.10717 0.0
H481 H 0.55174 0.84792 0.06806 0.0
H482 H 0.69207 0.7969 0.08898 0.0
H483 H 0.62503 0.79187 0.06195 0.0
H484 H 0.58971 0.78154 0.31401 0.0
H485 H 0.5276 0.75865 0.28625 0.0
H486 H 0.64849 0.8547 0.30951 0.0
H487 H 0.70813 0.85911 0.26984 0.0
C488 C 0.78694 0.60304 0.29238 0.0
C489 C 0.77442 0.55698 0.2565 0.0
C490 C 0.80072 0.62584 0.18664 0.0
C491 C 0.79843 0.67472 0.22129 0.0
N492 N 0.78877 0.71073 0.30771 0.0
N493 N 0.77574 0.52146 0.16955 0.0
C494 C 0.79344 0.66336 0.27461 0.0
C495 C 0.78451 0.56718 0.20359 0.0
N496 N 0.79023 0.58983 0.34337 0.0
N497 N 0.8154 0.63683 0.137 0.0
H498 H 0.7658 0.47782 0.18136 0.0
H499 H 0.77657 0.52691 0.12998 0.0
H500 H 0.82598 0.68012 0.12455 0.0
H501 H 0.82138 0.60327 0.10971 0.0
H502 H 0.80376 0.62071 0.3707 0.0
H503 H 0.78512 0.54639 0.35773 0.0
H504 H 0.77815 0.70606 0.3462 0.0
H505 H 0.79176 0.75536 0.29553 0.0
C506 C 0.59309 0.21491 0.76207 0.0
C507 C 0.55441 0.21461 0.8039 0.0
C508 C 0.63255 0.20782 0.86315 0.0
C509 C 0.66987 0.20447 0.82129 0.0
N510 N 0.68377 0.18154 0.73238 0.0
N511 N 0.53888 0.18663 0.89242 0.0
C512 C 0.64878 0.19711 0.77145 0.0
C513 C 0.57471 0.20182 0.85383 0.0
N514 N 0.58068 0.24095 0.71605 0.0
N515 N 0.65149 0.22224 0.9108 0.0
H516 H 0.49642 0.17938 0.88593 0.0
H517 H 0.5527 0.17467 0.92889 0.0
H518 H 0.69386 0.22819 0.91858 0.0
H519 H 0.62472 0.23119 0.94143 0.0
H520 H 0.60985 0.24468 0.6865 0.0
H521 H 0.54567 0.26758 0.70976 0.0
H522 H 0.66935 0.17302 0.69541 0.0
H523 H 0.72583 0.17163 0.7387 0.0
C524 C 0.21398 0.43702 0.30741 0.0
C525 C 0.20884 0.48571 0.2728 0.0
C526 C 0.1744 0.41562 0.20724 0.0
C527 C 0.19202 0.36626 0.23775 0.0
N528 N 0.23407 0.33102 0.31651 0.0
N529 N 0.17978 0.52368 0.19107 0.0
C530 C 0.21187 0.37715 0.28834 0.0
C531 C 0.18659 0.47578 0.22332 0.0
N532 N 0.22311 0.44786 0.35818 0.0
N533 N 0.14843 0.40454 0.16192 0.0
H534 H 0.18634 0.568 0.20301 0.0
H535 H 0.16947 0.51966 0.15255 0.0
H536 H 0.14101 0.36074 0.14979 0.0
H537 H 0.13071 0.4377 0.13891 0.0
H538 H 0.22155 0.41413 0.38593 0.0
H539 H 0.22645 0.49121 0.37319 0.0
H540 H 0.25575 0.33761 0.35059 0.0
H541 H 0.23434 0.28632 0.30415 0.0
C542 C 0.36802 0.82205 0.86216 0.0
C543 C 0.32992 0.82547 0.82114 0.0
C544 C 0.40511 0.81435 0.75983 0.0
C545 C 0.44445 0.81203 0.80092 0.0
N546 N 0.46323 0.83824 0.88908 0.0
N547 N 0.31413 0.84999 0.73295 0.0
C548 C 0.4258 0.82549 0.85134 0.0
C549 C 0.34988 0.83291 0.77083 0.0
N550 N 0.34963 0.80953 0.91047 0.0
N551 N 0.41653 0.79066 0.71264 0.0
H552 H 0.27253 0.86093 0.74071 0.0
H553 H 0.32754 0.8589 0.69568 0.0
H554 H 0.45184 0.76537 0.70417 0.0
H555 H 0.38674 0.78823 0.68367 0.0
H556 H 0.37661 0.80037 0.94077 0.0
H557 H 0.30726 0.80516 0.91919 0.0
H558 H 0.45105 0.85131 0.92581 0.0
H559 H 0.5059 0.84175 0.88161 0.0
C560 C 0.02038 0.03627 0.12563 0.0
C561 C 0.03767 0.06167 0.1732 0.0
C562 C 0.9666 0.99997 0.21784 0.0
C563 C 0.94671 0.97833 0.16995 0.0
N564 N 0.9503 0.98013 0.07791 0.0
N565 N 0.02627 0.06921 0.26477 0.0
C566 C 0.97239 0.9978 0.12377 0.0
C567 C 0.01034 0.04391 0.21931 0.0
N568 N 0.05038 0.0479 0.08217 0.0
N569 N 0.94415 0.97758 0.26218 0.0
H570 H 0.06144 0.09655 0.26851 0.0
H571 H 0.00368 0.06516 0.29867 0.0
H572 H 0.90969 0.94885 0.26288 0.0
H573 H 0.96101 0.98481 0.29833 0.0
H574 H 0.04467 0.02484 0.04791 0.0
H575 H 0.08419 0.07732 0.081 0.0
H576 H 0.96252 0.99782 0.04272 0.0
H577 H 0.91684 0.95024 0.07504 0.0
C578 C 0.98794 0.04966 0.88729 0.0
C579 C 0.95599 0.05902 0.84228 0.0
C580 C 0.0123 0.98269 0.79696 0.0
C581 C 0.04607 0.97511 0.84136 0.0
N582 N 0.0703 1.0063 0.92704 0.0
N583 N 0.94133 0.04099 0.75243 0.0
C584 C 0.03524 1.01028 0.88594 0.0
C585 C 0.96902 0.02706 0.79668 0.0
N586 N 0.97167 0.07685 0.9319 0.0
N587 N 0.02181 0.94761 0.75475 0.0
H588 H 0.90866 0.07205 0.75092 0.0
H589 H 0.95277 0.02504 0.71645 0.0
H590 H 0.05641 0.91945 0.75097 0.0
H591 H 0.99435 0.94436 0.72406 0.0
H592 H 0.98916 0.06753 0.96745 0.0
H593 H 0.93775 0.10629 0.93404 0.0
H594 H 0.06967 0.03646 0.95752 0.0
H595 H 0.10265 0.97504 0.92951 0.0
C596 C 0.51084 0.55098 0.61791 0.0
C597 C 0.55023 0.55084 0.65863 0.0
C598 C 0.49397 0.47439 0.70358 0.0
C599 C 0.45773 0.4701 0.66065 0.0
N600 N 0.43522 0.49956 0.57418 0.0
N601 N 0.58214 0.50854 0.73841 0.0
C602 C 0.46696 0.50734 0.61712 0.0
C603 C 0.54284 0.51092 0.70064 0.0
N604 N 0.51485 0.59352 0.58025 0.0
N605 N 0.4796 0.44683 0.7486 0.0
H606 H 0.61586 0.53802 0.74005 0.0
H607 H 0.58324 0.47504 0.76633 0.0
H608 H 0.44262 0.4227 0.75341 0.0
H609 H 0.501 0.45305 0.78284 0.0
H610 H 0.48375 0.60138 0.55327 0.0
H611 H 0.54781 0.62401 0.57809 0.0
H612 H 0.44409 0.51993 0.53918 0.0
H613 H 0.40228 0.46897 0.57215 0.0
C614 C 0.50436 0.50188 0.28426 0.0
C615 C 0.53124 0.48091 0.32933 0.0
C616 C 0.47455 0.5511 0.3811 0.0
C617 C 0.44428 0.56786 0.33664 0.0
N618 N 0.42688 0.55654 0.2463 0.0
N619 N 0.53821 0.48053 0.42153 0.0
C620 C 0.4583 0.54248 0.28832 0.0
C621 C 0.51558 0.50447 0.378 0.0
N622 N 0.52461 0.48506 0.23737 0.0
N623 N 0.46515 0.58101 0.42605 0.0
H624 H 0.56834 0.4466 0.42105 0.0
H625 H 0.52402 0.49058 0.45826 0.0
H626 H 0.4343 0.61386 0.43012 0.0
H627 H 0.49056 0.57673 0.45812 0.0
H628 H 0.51111 0.50357 0.20294 0.0
H629 H 0.5586 0.45612 0.23283 0.0
H630 H 0.4302 0.53431 0.21135 0.0
H631 H 0.39459 0.58807 0.24716 0.0
C632 C 0.39071 0.03041 0.06088 0.0
C633 C 0.3753 0.07853 0.02818 0.0
C634 C 0.39461 1.01355 0.95574 0.0
C635 C 0.37697 0.96557 0.98753 0.0
N636 N 0.39501 0.92099 0.06946 0.0
N637 N 0.39923 0.12285 0.94706 0.0
C638 C 0.3895 0.97135 0.04012 0.0
C639 C 0.39111 0.0727 0.97616 0.0
N640 N 0.40688 0.04192 0.10976 0.0
N641 N 0.41492 1.00176 0.90812 0.0
H642 H 0.39847 0.16575 0.96354 0.0
H643 H 0.40655 0.12163 0.90776 0.0
H644 H 0.41891 0.95738 0.89526 0.0
H645 H 0.43075 0.03476 0.88371 0.0
H646 H 0.42081 1.00888 0.13502 0.0
H647 H 0.40945 0.08616 0.12299 0.0
H648 H 0.3996 0.92187 0.1091 0.0
H649 H 0.39441 0.8782 0.05272 0.0
C650 C 0.04005 0.8053 1.00266 0.0
C651 C 0.0466 0.75068 0.975 0.0
C652 C 0.97624 0.70283 0.03068 0.0
C653 C 0.97334 0.7565 0.06019 0.0
N654 N 0.01555 0.85122 0.08338 0.0
N655 N 0.02685 0.64469 0.9665 0.0
C656 C 0.00958 0.80521 0.04907 0.0
C657 C 0.01641 0.69843 0.99015 0.0
N658 N 0.05957 0.85838 0.98294 0.0
N659 N 0.93956 0.65709 0.04033 0.0
H660 H 0.05541 0.64047 0.93646 0.0
H661 H 0.01032 0.60378 0.97885 0.0
H662 H 0.91136 0.65845 0.07079 0.0
H663 H 0.93515 0.61949 0.01685 0.0
H664 H 0.05117 0.90017 0.9995 0.0
H665 H 0.078 0.86155 0.94685 0.0
H666 H 0.04526 0.88523 0.07916 0.0
H667 H -0.00466 0.85146 0.11879 0.0
C668 C 0.59675 0.018 0.9437 0.0
C669 C 0.61313 0.06704 0.97483 0.0
C670 C 0.59288 1.00624 0.04944 0.0
C671 C 0.6099 0.95658 0.0192 0.0
N672 N 0.58749 0.90844 0.93993 0.0
N673 N 0.588 0.11613 0.05334 0.0
C674 C 0.59617 0.96005 0.96678 0.0
C675 C 0.59604 0.0642 0.0266 0.0
N676 N 0.58179 0.02766 0.89418 0.0
N677 N 0.57393 0.99716 0.09795 0.0
H678 H 0.59073 0.15794 0.03501 0.0
H679 H 0.579 0.11746 0.09234 0.0
H680 H 0.57046 0.95361 0.11273 0.0
H681 H 0.55931 0.03154 0.12156 0.0
H682 H 0.56808 0.99378 0.86967 0.0
H683 H 0.58057 0.07129 0.87924 0.0
H684 H 0.58036 0.9075 0.90067 0.0
H685 H 0.5876 0.86664 0.95843 0.0
C686 C 0.04071 0.24238 0.01076 0.0
C687 C 0.03915 0.2907 0.04637 0.0
C688 C 0.96272 0.33681 0.99717 0.0
C689 C 0.96837 0.29105 0.9595 0.0
N690 N 0.02269 0.20928 0.9243 0.0
N691 N 0.00418 0.38879 0.06977 0.0
C692 C 0.01096 0.24713 0.96416 0.0
C693 C 0.00168 0.3395 0.03853 0.0
N694 N 0.06667 0.18956 0.02325 0.0
N695 N 0.9195 0.37676 0.99396 0.0
H696 H 0.03215 0.392 0.10021 0.0
H697 H 0.98172 0.42822 0.06319 0.0
H698 H 0.89204 0.37734 0.96303 0.0
H699 H 0.90916 0.40693 0.02301 0.0
H700 H 0.06483 0.15102 1.00052 0.0
H701 H 0.08357 0.18177 0.05936 0.0
H702 H 0.05693 0.18025 0.92415 0.0
H703 H 0.00174 0.21119 0.88941 0.0
C704 C 0.87485 0.43418 0.53394 0.0
C705 C 0.86191 0.43088 0.48118 0.0
C706 C 0.89195 0.53432 0.4702 0.0
C707 C 0.87799 0.54234 0.52234 0.0
N708 N 0.90547 0.50018 0.60315 0.0
N709 N 0.90507 0.46068 0.40204 0.0
C710 C 0.88649 0.49196 0.5546 0.0
C711 C 0.88647 0.4755 0.44959 0.0
N712 N 0.87191 0.38374 0.56351 0.0
N713 N 0.90666 0.58275 0.44113 0.0
H714 H 0.90273 0.41619 0.38935 0.0
H715 H 0.9257 0.49065 0.37781 0.0
H716 H 0.91237 0.62511 0.45784 0.0
H717 H 0.91274 0.58068 0.40167 0.0
H718 H 0.87606 0.38418 0.6032 0.0
H719 H 0.8648 0.34153 0.54698 0.0
H720 H 0.91483 0.46482 0.62793 0.0
H721 H 0.91491 0.54339 0.61651 0.0
C722 C 0.45787 0.3007 0.50603 0.0
C723 C 0.44813 0.2466 0.53374 0.0
C724 C 0.51193 0.19299 0.47529 0.0
C725 C 0.51736 0.24616 0.44531 0.0
N726 N 0.48525 0.34674 0.42608 0.0
N727 N 0.4602 0.13924 0.54151 0.0
C728 C 0.48689 0.29862 0.45871 0.0
C729 C 0.47368 0.19203 0.51752 0.0
N730 N 0.44279 0.35504 0.52652 0.0
N731 N 0.54387 0.14383 0.46378 0.0
H732 H 0.43282 0.13735 0.57261 0.0
H733 H 0.47288 0.09704 0.52852 0.0
H734 H 0.57004 0.14252 0.43185 0.0
H735 H 0.54666 0.10588 0.48708 0.0
H736 H 0.45445 0.39619 0.51051 0.0
H737 H 0.42443 0.35937 0.56253 0.0
H738 H 0.45821 0.38309 0.43113 0.0
H739 H 0.50676 0.34782 0.39143 0.0
C740 C 0.09804 0.47605 0.48141 0.0
C741 C 0.11429 0.46843 0.53289 0.0
C742 C 0.10257 0.57552 0.54671 0.0
C743 C 0.11506 0.58237 0.49403 0.0
N744 N 0.08125 0.5462 0.41253 0.0
N745 N 0.08208 0.50341 0.61477 0.0
C746 C 0.09726 0.53506 0.46151 0.0
C747 C 0.09945 0.51594 0.56632 0.0
N748 N 0.08808 0.42798 0.45068 0.0
N749 N 0.09743 0.62501 0.57709 0.0
H750 H 0.07862 0.45885 0.62727 0.0
H751 H 0.06828 0.53612 0.64044 0.0
H752 H 0.09675 0.66831 0.56132 0.0
H753 H 0.09427 0.62277 0.61681 0.0
H754 H 0.08907 0.38377 0.4645 0.0
H755 H 0.08907 0.38377 0.4645 0.0
H756 H 0.0687 0.51179 0.38782 0.0
H757 H 0.07935 0.59018 0.39842 0.0
C758 C 0.51171 0.83736 0.52699 0.0
C759 C 0.5521 0.79057 0.53076 0.0
C760 C 0.52079 0.7504 0.44799 0.0
C761 C 0.4753 0.79107 0.44831 0.0
N762 N 0.42488 0.87192 0.48864 0.0
N763 N 0.58701 0.6951 0.49887 0.0
C764 C 0.47022 0.8346 0.48779 0.0
C765 C 0.5551 0.74552 0.49196 0.0
N766 N 0.51377 0.88492 0.56015 0.0
N767 N 0.53066 0.71549 0.40578 0.0
H768 H 0.60931 0.68659 0.53216 0.0
H769 H 0.58592 0.65802 0.47442 0.0
H770 H 0.50566 0.7171 0.37317 0.0
H771 H 0.56655 0.68948 0.40118 0.0
H772 H 0.48882 0.92313 0.55662 0.0
H773 H 0.54396 0.88851 0.58874 0.0
H774 H 0.41508 0.89994 0.51934 0.0
H775 H 0.39533 0.87241 0.45935 0.0
loop_
_geom_bond_atom_site_label_1
_geom_bond_atom_site_label_2
_geom_bond_distance
_geom_bond_site_symmetry_2
_ccdc_geom_bond_type
Zn0 N4 2.020 . S
Zn0 O8 2.019 . S
Zn0 N10 2.119 . S
Zn0 O18 1.975 . S
C1 N2 1.334 . S
C1 N5 1.336 . S
N2 C1 1.334 . S
N2 C3 1.334 . S
C3 N2 1.334 . S
C3 N4 1.336 . S
N4 Zn0 2.020 . S
N4 C3 1.336 . S
N4 N5 1.354 . S
N5 C1 1.336 . S
N5 N4 1.354 . S
N5 Zn9 2.020 . S
C6 O7 1.244 . S
C6 O30 1.257 . S
O7 C6 1.244 . S
O8 Zn0 2.019 . S
O8 C28 1.257 . S
Zn9 N5 2.020 . S
Zn9 O16 1.975 . S
Zn9 N25 2.119 . S
Zn9 O30 2.019 . S
N10 Zn0 2.119 . S
N10 C12 1.334 . S
N10 C13 1.328 . S
C11 C12 1.391 . S
C11 N14 1.330 . S
C11 H32 0.930 1_554 S
C12 N10 1.334 . S
C12 C11 1.391 . S
C12 H19 0.930 . S
C13 N10 1.328 . S
C13 C15 1.392 . S
C13 H20 0.930 . S
N14 C11 1.330 . S
N14 C15 1.335 . S
C15 C13 1.392 . S
C15 N14 1.335 . S
O16 Zn9 1.975 . S
O16 C17 1.252 . S
C17 O16 1.252 . S
C17 O18 1.252 . S
O18 Zn0 1.975 . S
O18 C17 1.252 . S
H19 C12 0.930 . S
H20 C13 0.930 . S
C21 C22 1.395 . S
C21 N25 1.328 . S
C21 H27 0.930 . S
C22 C21 1.395 . S
C22 N26 1.333 . S
C23 C24 1.391 . S
C23 N26 1.329 . S
C23 H33 0.930 . S
C24 C23 1.391 . S
C24 N25 1.334 . S
C24 H31 0.930 . S
N25 Zn9 2.119 . S
N25 C21 1.328 . S
N25 C24 1.334 . S
N26 C22 1.333 . S
N26 C23 1.329 . S
H27 C21 0.930 . S
C28 O8 1.257 . S
C28 O29 1.244 . S
O29 C28 1.244 . S
O30 C6 1.257 . S
O30 Zn9 2.019 . S
H31 C24 0.930 . S
H32 C11 0.930 1_556 S
H33 C23 0.930 . S
Zn34 N38 2.020 . S
Zn34 O42 2.019 . S
Zn34 N44 2.119 . S
Zn34 O52 1.975 . S
C35 N36 1.334 . S
C35 N39 1.336 . S
N36 C35 1.334 . S
N36 C37 1.334 . S
C37 N36 1.334 . S
C37 N38 1.336 . S
N38 Zn34 2.020 . S
N38 C37 1.336 . S
N38 N39 1.354 . S
N39 C35 1.336 . S
N39 N38 1.354 . S
N39 Zn43 2.020 . S
C40 O41 1.244 . S
C40 O64 1.257 . S
O41 C40 1.244 . S
O42 Zn34 2.019 . S
O42 C62 1.257 . S
Zn43 N39 2.020 . S
Zn43 O50 1.975 . S
Zn43 N59 2.119 . S
Zn43 O64 2.019 . S
N44 Zn34 2.119 . S
N44 C46 1.334 . S
N44 C47 1.328 . S
C45 C46 1.391 . S
C45 N48 1.329 . S
C45 H66 0.930 . S
C46 N44 1.334 . S
C46 C45 1.391 . S
C46 H53 0.930 . S
C47 N44 1.328 . S
C47 C49 1.395 . S
C47 H54 0.930 . S
N48 C45 1.329 . S
N48 C49 1.333 . S
C49 C47 1.395 . S
C49 N48 1.333 . S
O50 Zn43 1.975 . S
O50 C51 1.252 . S
C51 O50 1.252 . S
C51 O52 1.252 . S
O52 Zn34 1.975 . S
O52 C51 1.252 . S
H53 C46 0.930 . S
H54 C47 0.930 . S
C55 C56 1.392 . S
C55 N59 1.328 . S
C55 H61 0.930 . S
C56 C55 1.392 . S
C56 N60 1.335 . S
C57 C58 1.391 . S
C57 N60 1.330 . S
C57 H67 0.930 1_556 S
C58 C57 1.391 . S
C58 N59 1.334 . S
C58 H65 0.930 . S
N59 Zn43 2.119 . S
N59 C55 1.328 . S
N59 C58 1.334 . S
N60 C56 1.335 . S
N60 C57 1.330 . S
H61 C55 0.930 . S
C62 O42 1.257 . S
C62 O63 1.244 . S
O63 C62 1.244 . S
O64 C40 1.257 . S
O64 Zn43 2.019 . S
H65 C58 0.930 . S
H66 C45 0.930 . S
H67 C57 0.930 1_554 S
Zn68 N72 2.020 . S
Zn68 O76 2.019 . S
Zn68 N78 2.119 . S
Zn68 O86 1.975 . S
C69 N70 1.334 . S
C69 N73 1.336 . S
N70 C69 1.334 . S
N70 C71 1.334 . S
C71 N70 1.334 . S
C71 N72 1.336 . S
N72 Zn68 2.020 . S
N72 C71 1.336 . S
N72 N73 1.354 . S
N73 C69 1.336 . S
N73 N72 1.354 . S
N73 Zn77 2.020 . S
C74 O75 1.244 . S
C74 O98 1.257 . S
O75 C74 1.244 . S
O76 Zn68 2.019 . S
O76 C96 1.257 . S
Zn77 N73 2.020 . S
Zn77 O84 1.975 . S
Zn77 N93 2.119 . S
Zn77 O98 2.019 . S
N78 Zn68 2.119 . S
N78 C80 1.334 . S
N78 C81 1.328 . S
C79 C80 1.391 . S
C79 N82 1.330 . S
C79 H100 0.930 1_554 S
C80 N78 1.334 . S
C80 C79 1.391 . S
C80 H87 0.930 . S
C81 N78 1.328 . S
C81 C83 1.392 . S
C81 H88 0.930 . S
N82 C79 1.330 . S
N82 C83 1.335 . S
C83 C81 1.392 . S
C83 N82 1.335 . S
O84 Zn77 1.975 . S
O84 C85 1.252 . S
C85 O84 1.252 . S
C85 O86 1.252 . S
O86 Zn68 1.975 . S
O86 C85 1.252 . S
H87 C80 0.930 . S
H88 C81 0.930 . S
C89 C90 1.395 . S
C89 N93 1.328 . S
C89 H95 0.930 . S
C90 C89 1.395 . S
C90 N94 1.333 . S
C91 C92 1.391 . S
C91 N94 1.329 . S
C91 H101 0.930 . S
C92 C91 1.391 . S
C92 N93 1.334 . S
C92 H99 0.930 . S
N93 Zn77 2.119 . S
N93 C89 1.328 . S
N93 C92 1.334 . S
N94 C90 1.333 . S
N94 C91 1.329 . S
H95 C89 0.930 . S
C96 O76 1.257 . S
C96 O97 1.244 . S
O97 C96 1.244 . S
O98 C74 1.257 . S
O98 Zn77 2.019 . S
H99 C92 0.930 . S
H100 C79 0.930 1_556 S
H101 C91 0.930 . S
Zn102 N106 2.020 . S
Zn102 O110 2.019 . S
Zn102 N112 2.119 . S
Zn102 O120 1.975 . S
C103 N104 1.334 . S
C103 N107 1.336 . S
N104 C103 1.334 . S
N104 C105 1.334 . S
C105 N104 1.334 . S
C105 N106 1.336 . S
N106 Zn102 2.020 . S
N106 C105 1.336 . S
N106 N107 1.354 . S
N107 C103 1.336 . S
N107 N106 1.354 . S
N107 Zn111 2.020 . S
C108 O109 1.244 . S
C108 O132 1.257 . S
O109 C108 1.244 . S
O110 Zn102 2.019 . S
O110 C130 1.257 . S
Zn111 N107 2.020 . S
Zn111 O118 1.975 . S
Zn111 N127 2.119 . S
Zn111 O132 2.019 . S
N112 Zn102 2.119 . S
N112 C114 1.334 . S
N112 C115 1.328 . S
C113 C114 1.391 . S
C113 N116 1.329 . S
C113 H134 0.930 . S
C114 N112 1.334 . S
C114 C113 1.391 . S
C114 H121 0.930 . S
C115 N112 1.328 . S
C115 C117 1.395 . S
C115 H122 0.930 . S
N116 C113 1.329 . S
N116 C117 1.333 . S
C117 C115 1.395 . S
C117 N116 1.333 . S
O118 Zn111 1.975 . S
O118 C119 1.252 . S
C119 O118 1.252 . S
C119 O120 1.252 . S
O120 Zn102 1.975 . S
O120 C119 1.252 . S
H121 C114 0.930 . S
H122 C115 0.930 . S
C123 C124 1.392 . S
C123 N127 1.328 . S
C123 H129 0.930 . S
C124 C123 1.392 . S
C124 N128 1.335 . S
C125 C126 1.391 . S
C125 N128 1.330 . S
C125 H135 0.930 1_556 S
C126 C125 1.391 . S
C126 N127 1.334 . S
C126 H133 0.930 . S
N127 Zn111 2.119 . S
N127 C123 1.328 . S
N127 C126 1.334 . S
N128 C124 1.335 . S
N128 C125 1.330 . S
H129 C123 0.930 . S
C130 O110 1.257 . S
C130 O131 1.244 . S
O131 C130 1.244 . S
O132 C108 1.257 . S
O132 Zn111 2.019 . S
H133 C126 0.930 . S
H134 C113 0.930 . S
H135 C125 0.930 1_554 S
Zn136 N140 2.020 . S
Zn136 O144 2.019 . S
Zn136 N146 2.119 . S
Zn136 O154 1.975 . S
C137 N138 1.334 . S
C137 N141 1.336 . S
N138 C137 1.334 . S
N138 C139 1.334 . S
C139 N138 1.334 . S
C139 N140 1.336 . S
N140 Zn136 2.020 . S
N140 C139 1.336 . S
N140 N141 1.354 . S
N141 C137 1.336 . S
N141 N140 1.354 . S
N141 Zn145 2.020 . S
C142 O143 1.244 . S
C142 O166 1.257 . S
O143 C142 1.244 . S
O144 Zn136 2.019 . S
O144 C164 1.257 . S
Zn145 N141 2.020 . S
Zn145 O152 1.975 . S
Zn145 N161 2.119 . S
Zn145 O166 2.019 . S
N146 Zn136 2.119 . S
N146 C148 1.334 . S
N146 C149 1.328 . S
C147 C148 1.391 . S
C147 N150 1.329 . S
C147 H168 0.930 . S
C148 N146 1.334 . S
C148 C147 1.391 . S
C148 H155 0.930 . S
C149 N146 1.328 . S
C149 C151 1.392 . S
C149 H156 0.930 . S
N150 C147 1.329 . S
N150 C151 1.331 . S
C151 C149 1.392 . S
C151 N150 1.331 . S
O152 Zn145 1.975 . S
O152 C153 1.252 . S
C153 O152 1.252 . S
C153 O154 1.252 . S
O154 Zn136 1.975 . S
O154 C153 1.252 . S
H155 C148 0.930 . S
H156 C149 0.930 . S
C157 C158 1.392 . S
C157 N161 1.328 . S
C157 H163 0.930 . S
C158 C157 1.392 . S
C158 N162 1.331 . S
C159 C160 1.391 . S
C159 N162 1.329 . S
C159 H169 0.930 . S
C160 C159 1.391 . S
C160 N161 1.334 . S
C160 H167 0.930 . S
N161 Zn145 2.119 . S
N161 C157 1.328 . S
N161 C160 1.334 . S
N162 C158 1.331 . S
N162 C159 1.329 . S
H163 C157 0.930 . S
C164 O144 1.257 . S
C164 O165 1.244 . S
O165 C164 1.244 . S
O166 C142 1.257 . S
O166 Zn145 2.019 . S
H167 C160 0.930 . S
H168 C147 0.930 . S
H169 C159 0.930 . S
Zn170 N174 2.020 . S
Zn170 O178 2.019 . S
Zn170 N180 2.119 . S
Zn170 O188 1.975 . S
C171 N172 1.334 . S
C171 N175 1.336 . S
N172 C171 1.334 . S
N172 C173 1.334 . S
C173 N172 1.334 . S
C173 N174 1.336 . S
N174 Zn170 2.020 . S
N174 C173 1.336 . S
N174 N175 1.354 . S
N175 C171 1.336 . S
N175 N174 1.354 . S
N175 Zn179 2.020 . S
C176 O177 1.244 . S
C176 O200 1.257 . S
O177 C176 1.244 . S
O178 Zn170 2.019 . S
O178 C198 1.257 . S
Zn179 N175 2.020 . S
Zn179 O186 1.975 . S
Zn179 N195 2.119 . S
Zn179 O200 2.019 . S
N180 Zn170 2.119 . S
N180 C182 1.334 . S
N180 C183 1.328 . S
C181 C182 1.391 . S
C181 N184 1.329 . S
C181 H202 0.930 . S
C182 N180 1.334 . S
C182 C181 1.391 . S
C182 H189 0.930 . S
C183 N180 1.328 . S
C183 C185 1.392 . S
C183 H190 0.930 . S
N184 C181 1.329 . S
N184 C185 1.331 . S
C185 C183 1.392 . S
C185 N184 1.331 . S
O186 Zn179 1.975 . S
O186 C187 1.252 . S
C187 O186 1.252 . S
C187 O188 1.252 . S
O188 Zn170 1.975 . S
O188 C187 1.252 . S
H189 C182 0.930 . S
H190 C183 0.930 . S
C191 C192 1.392 . S
C191 N195 1.328 . S
C191 H197 0.930 . S
C192 C191 1.392 . S
C192 N196 1.331 . S
C193 C194 1.391 . S
C193 N196 1.329 . S
C193 H203 0.930 . S
C194 C193 1.391 . S
C194 N195 1.334 . S
C194 H201 0.930 . S
N195 Zn179 2.119 . S
N195 C191 1.328 . S
N195 C194 1.334 . S
N196 C192 1.331 . S
N196 C193 1.329 . S
H197 C191 0.930 . S
C198 O178 1.257 . S
C198 O199 1.244 . S
O199 C198 1.244 . S
O200 C176 1.257 . S
O200 Zn179 2.019 . S
H201 C194 0.930 . S
H202 C181 0.930 . S
H203 C193 0.930 . S
Zn204 N208 2.020 . S
Zn204 O212 2.019 . S
Zn204 N214 2.119 . S
Zn204 O222 1.975 . S
C205 N206 1.334 . S
C205 N209 1.336 . S
N206 C205 1.334 . S
N206 C207 1.334 . S
C207 N206 1.334 . S
C207 N208 1.336 . S
N208 Zn204 2.020 . S
N208 C207 1.336 . S
N208 N209 1.354 . S
N209 C205 1.336 . S
N209 N208 1.354 . S
N209 Zn213 2.020 . S
C210 O211 1.244 . S
C210 O234 1.257 . S
O211 C210 1.244 . S
O212 Zn204 2.019 . S
O212 C232 1.257 . S
Zn213 N209 2.020 . S
Zn213 O220 1.975 . S
Zn213 N229 2.119 . S
Zn213 O234 2.019 . S
N214 Zn204 2.119 . S
N214 C216 1.334 . S
N214 C217 1.328 . S
C215 C216 1.391 . S
C215 N218 1.329 . S
C215 H236 0.930 . S
C216 N214 1.334 . S
C216 C215 1.391 . S
C216 H223 0.930 . S
C217 N214 1.328 . S
C217 C219 1.392 . S
C217 H224 0.930 . S
N218 C215 1.329 . S
N218 C219 1.331 . S
C219 C217 1.392 . S
C219 N218 1.331 . S
O220 Zn213 1.975 . S
O220 C221 1.252 . S
C221 O220 1.252 . S
C221 O222 1.252 . S
O222 Zn204 1.975 . S
O222 C221 1.252 . S
H223 C216 0.930 . S
H224 C217 0.930 . S
C225 C226 1.392 . S
C225 N229 1.328 . S
C225 H231 0.930 . S
C226 C225 1.392 . S
C226 N230 1.331 . S
C227 C228 1.391 . S
C227 N230 1.329 . S
C227 H237 0.930 . S
C228 C227 1.391 . S
C228 N229 1.334 . S
C228 H235 0.930 . S
N229 Zn213 2.119 . S
N229 C225 1.328 . S
N229 C228 1.334 . S
N230 C226 1.331 . S
N230 C227 1.329 . S
H231 C225 0.930 . S
C232 O212 1.257 . S
C232 O233 1.244 . S
O233 C232 1.244 . S
O234 C210 1.257 . S
O234 Zn213 2.019 . S
H235 C228 0.930 . S
H236 C215 0.930 . S
H237 C227 0.930 . S
Zn238 N242 2.020 . S
Zn238 O246 2.019 . S
Zn238 N248 2.119 . S
Zn238 O256 1.975 . S
C239 N240 1.334 . S
C239 N243 1.336 . S
N240 C239 1.334 . S
N240 C241 1.334 . S
C241 N240 1.334 . S
C241 N242 1.336 . S
N242 Zn238 2.020 . S
N242 C241 1.336 . S
N242 N243 1.354 . S
N243 C239 1.336 . S
N243 N242 1.354 . S
N243 Zn247 2.020 . S
C244 O245 1.244 . S
C244 O268 1.257 . S
O245 C244 1.244 . S
O246 Zn238 2.019 . S
O246 C266 1.257 . S
Zn247 N243 2.020 . S
Zn247 O254 1.975 . S
Zn247 N263 2.119 . S
Zn247 O268 2.019 . S
N248 Zn238 2.119 . S
N248 C250 1.334 . S
N248 C251 1.328 . S
C249 C250 1.391 . S
C249 N252 1.329 . S
C249 H270 0.930 . S
C250 N248 1.334 . S
C250 C249 1.391 . S
C250 H257 0.930 . S
C251 N248 1.328 . S
C251 C253 1.392 . S
C251 H258 0.930 . S
N252 C249 1.329 . S
N252 C253 1.331 . S
C253 C251 1.392 . S
C253 N252 1.331 . S
O254 Zn247 1.975 . S
O254 C255 1.252 . S
C255 O254 1.252 . S
C255 O256 1.252 . S
O256 Zn238 1.975 . S
O256 C255 1.252 . S
H257 C250 0.930 . S
H258 C251 0.930 . S
C259 C260 1.392 . S
C259 N263 1.328 . S
C259 H265 0.930 . S
C260 C259 1.392 . S
C260 N264 1.331 . S
C261 C262 1.391 . S
C261 N264 1.329 . S
C261 H271 0.930 . S
C262 C261 1.391 . S
C262 N263 1.334 . S
C262 H269 0.930 . S
N263 Zn247 2.119 . S
N263 C259 1.328 . S
N263 C262 1.334 . S
N264 C260 1.331 . S
N264 C261 1.329 . S
H265 C259 0.930 . S
C266 O246 1.257 . S
C266 O267 1.244 . S
O267 C266 1.244 . S
O268 C244 1.257 . S
O268 Zn247 2.019 . S
H269 C262 0.930 . S
H270 C249 0.930 . S
H271 C261 0.930 . S
C272 C273 1.363 . S
C272 C278 1.379 . S
C272 N280 1.356 1_565 S
C273 C272 1.363 . S
C273 C279 1.363 . S
C274 C275 1.363 . S
C274 C279 1.379 . S
C274 N281 1.356 . S
C275 C274 1.363 . S
C275 C278 1.363 . S
N276 C278 1.356 . S
N276 H288 0.984 . S
N276 H289 0.985 . S
N277 C279 1.356 . S
N277 H282 0.984 . S
N277 H283 0.985 . S
C278 C272 1.379 . S
C278 C275 1.363 . S
C278 N276 1.356 . S
C279 C273 1.363 . S
C279 C274 1.379 . S
C279 N277 1.356 . S
N280 C272 1.356 1_545 S
N280 H286 0.984 . S
N280 H287 0.984 . S
N281 C274 1.356 . S
N281 H284 0.984 . S
N281 H285 0.985 . S
H282 N277 0.984 . S
H283 N277 0.985 . S
H284 N281 0.984 . S
H285 N281 0.985 . S
H286 N280 0.984 . S
H287 N280 0.984 . S
H288 N276 0.984 . S
H289 N276 0.985 . S
C290 C291 1.363 . S
C290 C296 1.379 . S
C290 N298 1.356 . S
C291 C290 1.363 . S
C291 C297 1.363 . S
C292 C293 1.363 . S
C292 C297 1.379 . S
C292 N299 1.356 . S
C293 C292 1.363 . S
C293 C296 1.363 . S
N294 C296 1.356 . S
N294 H306 0.984 . S
N294 H307 0.985 . S
N295 C297 1.356 . S
N295 H300 0.984 . S
N295 H301 0.985 . S
C296 C290 1.379 . S
C296 C293 1.363 . S
C296 N294 1.356 . S
C297 C291 1.363 . S
C297 C292 1.379 . S
C297 N295 1.356 . S
N298 C290 1.356 . S
N298 H304 0.984 . S
N298 H305 0.984 1_655 S
N299 C292 1.356 . S
N299 H302 0.984 . S
N299 H303 0.985 . S
H300 N295 0.984 . S
H301 N295 0.985 . S
H302 N299 0.984 . S
H303 N299 0.985 . S
H304 N298 0.984 . S
H305 N298 0.984 1_455 S
H306 N294 0.984 . S
H307 N294 0.985 . S
C308 C309 1.363 . S
C308 C314 1.379 . S
C308 N316 1.356 . S
C309 C308 1.363 . S
C309 C315 1.363 . S
C310 C311 1.363 . S
C310 C315 1.379 . S
C310 N317 1.356 . S
C311 C310 1.363 . S
C311 C314 1.363 . S
N312 C314 1.356 . S
N312 H324 0.984 . S
N312 H325 0.985 1_545 S
N313 C315 1.356 . S
N313 H318 0.984 . S
N313 H319 0.985 . S
C314 C308 1.379 . S
C314 C311 1.363 . S
C314 N312 1.356 . S
C315 C309 1.363 . S
C315 C310 1.379 . S
C315 N313 1.356 . S
N316 C308 1.356 . S
N316 H322 0.984 . S
N316 H323 0.984 . S
N317 C310 1.356 . S
N317 H320 0.984 1_545 S
N317 H321 0.985 . S
H318 N313 0.984 . S
H319 N313 0.985 . S
H320 N317 0.984 1_565 S
H321 N317 0.985 . S
H322 N316 0.984 . S
H323 N316 0.984 . S
H324 N312 0.984 . S
H325 N312 0.985 1_565 S
C326 C327 1.363 . S
C326 C332 1.379 . S
C326 N334 1.356 . S
C327 C326 1.363 . S
C327 C333 1.363 . S
C328 C329 1.363 . S
C328 C333 1.379 . S
C328 N335 1.356 . S
C329 C328 1.363 . S
C329 C332 1.363 . S
N330 C332 1.356 . S
N330 H342 0.984 . S
N330 H343 0.985 . S
N331 C333 1.356 . S
N331 H336 0.984 1_455 S
N331 H337 0.985 . S
C332 C326 1.379 . S
C332 C329 1.363 . S
C332 N330 1.356 . S
C333 C327 1.363 . S
C333 C328 1.379 . S
C333 N331 1.356 . S
N334 C326 1.356 . S
N334 H340 0.984 . S
N334 H341 0.984 . S
N335 C328 1.356 . S
N335 H338 0.984 . S
N335 H339 0.985 . S
H336 N331 0.984 1_655 S
H337 N331 0.985 . S
H338 N335 0.984 . S
H339 N335 0.985 . S
H340 N334 0.984 . S
H341 N334 0.984 . S
H342 N330 0.984 . S
H343 N330 0.985 . S
C344 C345 1.363 . S
C344 C350 1.379 . S
C344 N352 1.356 1_545 S
C345 C344 1.363 . S
C345 C351 1.363 . S
C346 C347 1.363 . S
C346 C351 1.379 . S
C346 N353 1.356 . S
C347 C346 1.363 . S
C347 C350 1.363 . S
N348 C350 1.356 . S
N348 H360 0.984 . S
N348 H361 0.985 . S
N349 C351 1.356 . S
N349 H354 0.984 1_545 S
N349 H355 0.985 . S
C350 C344 1.379 . S
C350 C347 1.363 . S
C350 N348 1.356 . S
C351 C345 1.363 . S
C351 C346 1.379 . S
C351 N349 1.356 . S
N352 C344 1.356 1_565 S
N352 H358 0.984 . S
N352 H359 0.984 . S
N353 C346 1.356 . S
N353 H356 0.984 . S
N353 H357 0.985 . S
H354 N349 0.984 1_565 S
H355 N349 0.985 . S
H356 N353 0.984 . S
H357 N353 0.985 . S
H358 N352 0.984 . S
H359 N352 0.984 . S
H360 N348 0.984 . S
H361 N348 0.985 . S
C362 C363 1.363 . S
C362 C368 1.379 . S
C362 N370 1.356 . S
C363 C362 1.363 . S
C363 C369 1.363 . S
C364 C365 1.363 . S
C364 C369 1.379 . S
C364 N371 1.356 . S
C365 C364 1.363 . S
C365 C368 1.363 . S
N366 C368 1.356 . S
N366 H378 0.984 . S
N366 H379 0.985 . S
N367 C369 1.356 . S
N367 H372 0.984 . S
N367 H373 0.985 . S
C368 C362 1.379 . S
C368 C365 1.363 . S
C368 N366 1.356 . S
C369 C363 1.363 . S
C369 C364 1.379 . S
C369 N367 1.356 . S
N370 C362 1.356 . S
N370 H376 0.984 . S
N370 H377 0.984 . S
N371 C364 1.356 . S
N371 H374 0.984 1_455 S
N371 H375 0.985 . S
H372 N367 0.984 . S
H373 N367 0.985 . S
H374 N371 0.984 1_655 S
H375 N371 0.985 . S
H376 N370 0.984 . S
H377 N370 0.984 . S
H378 N366 0.984 . S
H379 N366 0.985 . S
C380 C381 1.363 . S
C380 C386 1.379 . S
C380 N388 1.356 1_565 S
C381 C380 1.363 . S
C381 C387 1.363 . S
C382 C383 1.363 . S
C382 C387 1.379 . S
C382 N389 1.356 . S
C383 C382 1.363 . S
C383 C386 1.363 . S
N384 C386 1.356 . S
N384 H396 0.984 . S
N384 H397 0.985 . S
N385 C387 1.356 . S
N385 H390 0.984 . S
N385 H391 0.985 . S
C386 C380 1.379 . S
C386 C383 1.363 . S
C386 N384 1.356 . S
C387 C381 1.363 . S
C387 C382 1.379 . S
C387 N385 1.356 . S
N388 C380 1.356 1_545 S
N388 H394 0.984 . S
N388 H395 0.984 . S
N389 C382 1.356 . S
N389 H392 0.984 . S
N389 H393 0.985 . S
H390 N385 0.984 . S
H391 N385 0.985 . S
H392 N389 0.984 . S
H393 N389 0.985 . S
H394 N388 0.984 . S
H395 N388 0.984 . S
H396 N384 0.984 . S
H397 N384 0.985 . S
C398 C399 1.363 . S
C398 C404 1.379 . S
C398 N406 1.356 . S
C399 C398 1.363 . S
C399 C405 1.363 . S
C400 C401 1.363 . S
C400 C405 1.379 . S
C400 N407 1.356 . S
C401 C400 1.363 . S
C401 C404 1.363 . S
N402 C404 1.356 . S
N402 H414 0.984 . S
N402 H415 0.985 . S
N403 C405 1.356 . S
N403 H408 0.984 . S
N403 H409 0.985 . S
C404 C398 1.379 . S
C404 C401 1.363 . S
C404 N402 1.356 . S
C405 C399 1.363 . S
C405 C400 1.379 . S
C405 N403 1.356 . S
N406 C398 1.356 . S
N406 H412 0.984 . S
N406 H413 0.984 . S
N407 C400 1.356 . S
N407 H410 0.984 1_655 S
N407 H411 0.985 . S
H408 N403 0.984 . S
H409 N403 0.985 . S
H410 N407 0.984 1_455 S
H411 N407 0.985 . S
H412 N406 0.984 . S
H413 N406 0.984 . S
H414 N402 0.984 . S
H415 N402 0.985 . S
C416 C417 1.363 . S
C416 C422 1.379 . S
C416 N424 1.356 . S
C417 C416 1.363 . S
C417 C423 1.363 . S
C418 C419 1.363 . S
C418 C423 1.379 . S
C418 N425 1.356 . S
C419 C418 1.363 . S
C419 C422 1.363 . S
N420 C422 1.356 . S
N420 H432 0.984 . S
N420 H433 0.985 . S
N421 C423 1.356 . S
N421 H426 0.984 . S
N421 H427 0.985 . S
C422 C416 1.379 . S
C422 C419 1.363 . S
C422 N420 1.356 . S
C423 C417 1.363 . S
C423 C418 1.379 . S
C423 N421 1.356 . S
N424 C416 1.356 . S
N424 H430 0.984 . S
N424 H431 0.984 . S
N425 C418 1.356 . S
N425 H428 0.984 . S
N425 H429 0.985 . S
H426 N421 0.984 . S
H427 N421 0.985 . S
H428 N425 0.984 . S
H429 N425 0.985 . S
H430 N424 0.984 . S
H431 N424 0.984 . S
H432 N420 0.984 . S
H433 N420 0.985 . S
C434 C435 1.363 . S
C434 C440 1.379 . S
C434 N442 1.356 . S
C435 C434 1.363 . S
C435 C441 1.363 . S
C436 C437 1.363 . S
C436 C441 1.379 . S
C436 N443 1.356 . S
C437 C436 1.363 . S
C437 C440 1.363 . S
N438 C440 1.356 . S
N438 H450 0.984 . S
N438 H451 0.985 . S
N439 C441 1.356 . S
N439 H444 0.984 . S
N439 H445 0.985 . S
C440 C434 1.379 . S
C440 C437 1.363 . S
C440 N438 1.356 . S
C441 C435 1.363 . S
C441 C436 1.379 . S
C441 N439 1.356 . S
N442 C434 1.356 . S
N442 H448 0.984 . S
N442 H449 0.984 . S
N443 C436 1.356 . S
N443 H446 0.984 . S
N443 H447 0.985 . S
H444 N439 0.984 . S
H445 N439 0.985 . S
H446 N443 0.984 . S
H447 N443 0.985 . S
H448 N442 0.984 . S
H449 N442 0.984 . S
H450 N438 0.984 . S
H451 N438 0.985 . S
C452 C453 1.363 . S
C452 C458 1.379 . S
C452 N460 1.356 . S
C453 C452 1.363 . S
C453 C459 1.363 . S
C454 C455 1.363 . S
C454 C459 1.379 . S
C454 N461 1.356 . S
C455 C454 1.363 . S
C455 C458 1.363 . S
N456 C458 1.356 . S
N456 H468 0.984 . S
N456 H469 0.985 . S
N457 C459 1.356 . S
N457 H462 0.984 . S
N457 H463 0.985 . S
C458 C452 1.379 . S
C458 C455 1.363 . S
C458 N456 1.356 . S
C459 C453 1.363 . S
C459 C454 1.379 . S
C459 N457 1.356 . S
N460 C452 1.356 . S
N460 H466 0.984 . S
N460 H467 0.984 . S
N461 C454 1.356 . S
N461 H464 0.984 . S
N461 H465 0.985 . S
H462 N457 0.984 . S
H463 N457 0.985 . S
H464 N461 0.984 . S
H465 N461 0.985 . S
H466 N460 0.984 . S
H467 N460 0.984 . S
H468 N456 0.984 . S
H469 N456 0.985 . S
C470 C471 1.363 . S
C470 C476 1.379 . S
C470 N478 1.356 . S
C471 C470 1.363 . S
C471 C477 1.363 . S
C472 C473 1.363 . S
C472 C477 1.379 . S
C472 N479 1.356 . S
C473 C472 1.363 . S
C473 C476 1.363 . S
N474 C476 1.356 . S
N474 H486 0.984 . S
N474 H487 0.985 . S
N475 C477 1.356 . S
N475 H480 0.984 . S
N475 H481 0.985 . S
C476 C470 1.379 . S
C476 C473 1.363 . S
C476 N474 1.356 . S
C477 C471 1.363 . S
C477 C472 1.379 . S
C477 N475 1.356 . S
N478 C470 1.356 . S
N478 H484 0.984 . S
N478 H485 0.984 . S
N479 C472 1.356 . S
N479 H482 0.984 . S
N479 H483 0.985 . S
H480 N475 0.984 . S
H481 N475 0.985 . S
H482 N479 0.984 . S
H483 N479 0.985 . S
H484 N478 0.984 . S
H485 N478 0.984 . S
H486 N474 0.984 . S
H487 N474 0.985 . S
C488 C489 1.363 . S
C488 C494 1.379 . S
C488 N496 1.356 . S
C489 C488 1.363 . S
C489 C495 1.363 . S
C490 C491 1.363 . S
C490 C495 1.379 . S
C490 N497 1.356 . S
C491 C490 1.363 . S
C491 C494 1.363 . S
N492 C494 1.356 . S
N492 H504 0.984 . S
N492 H505 0.985 . S
N493 C495 1.356 . S
N493 H498 0.984 . S
N493 H499 0.985 . S
C494 C488 1.379 . S
C494 C491 1.363 . S
C494 N492 1.356 . S
C495 C489 1.363 . S
C495 C490 1.379 . S
C495 N493 1.356 . S
N496 C488 1.356 . S
N496 H502 0.984 . S
N496 H503 0.984 . S
N497 C490 1.356 . S
N497 H500 0.984 . S
N497 H501 0.985 . S
H498 N493 0.984 . S
H499 N493 0.985 . S
H500 N497 0.984 . S
H501 N497 0.985 . S
H502 N496 0.984 . S
H503 N496 0.984 . S
H504 N492 0.984 . S
H505 N492 0.985 . S
C506 C507 1.363 . S
C506 C512 1.379 . S
C506 N514 1.356 . S
C507 C506 1.363 . S
C507 C513 1.363 . S
C508 C509 1.363 . S
C508 C513 1.379 . S
C508 N515 1.356 . S
C509 C508 1.363 . S
C509 C512 1.363 . S
N510 C512 1.356 . S
N510 H522 0.984 . S
N510 H523 0.985 . S
N511 C513 1.356 . S
N511 H516 0.984 . S
N511 H517 0.985 . S
C512 C506 1.379 . S
C512 C509 1.363 . S
C512 N510 1.356 . S
C513 C507 1.363 . S
C513 C508 1.379 . S
C513 N511 1.356 . S
N514 C506 1.356 . S
N514 H520 0.984 . S
N514 H521 0.984 . S
N515 C508 1.356 . S
N515 H518 0.984 . S
N515 H519 0.985 . S
H516 N511 0.984 . S
H517 N511 0.985 . S
H518 N515 0.984 . S
H519 N515 0.985 . S
H520 N514 0.984 . S
H521 N514 0.984 . S
H522 N510 0.984 . S
H523 N510 0.985 . S
C524 C525 1.363 . S
C524 C530 1.379 . S
C524 N532 1.356 . S
C525 C524 1.363 . S
C525 C531 1.363 . S
C526 C527 1.363 . S
C526 C531 1.379 . S
C526 N533 1.356 . S
C527 C526 1.363 . S
C527 C530 1.363 . S
N528 C530 1.356 . S
N528 H540 0.984 . S
N528 H541 0.985 . S
N529 C531 1.356 . S
N529 H534 0.984 . S
N529 H535 0.985 . S
C530 C524 1.379 . S
C530 C527 1.363 . S
C530 N528 1.356 . S
C531 C525 1.363 . S
C531 C526 1.379 . S
C531 N529 1.356 . S
N532 C524 1.356 . S
N532 H538 0.984 . S
N532 H539 0.984 . S
N533 C526 1.356 . S
N533 H536 0.984 . S
N533 H537 0.985 . S
H534 N529 0.984 . S
H535 N529 0.985 . S
H536 N533 0.984 . S
H537 N533 0.985 . S
H538 N532 0.984 . S
H539 N532 0.984 . S
H540 N528 0.984 . S
H541 N528 0.985 . S
C542 C543 1.363 . S
C542 C548 1.379 . S
C542 N550 1.356 . S
C543 C542 1.363 . S
C543 C549 1.363 . S
C544 C545 1.363 . S
C544 C549 1.379 . S
C544 N551 1.356 . S
C545 C544 1.363 . S
C545 C548 1.363 . S
N546 C548 1.356 . S
N546 H558 0.984 . S
N546 H559 0.985 . S
N547 C549 1.356 . S
N547 H552 0.984 . S
N547 H553 0.985 . S
C548 C542 1.379 . S
C548 C545 1.363 . S
C548 N546 1.356 . S
C549 C543 1.363 . S
C549 C544 1.379 . S
C549 N547 1.356 . S
N550 C542 1.356 . S
N550 H556 0.984 . S
N550 H557 0.984 . S
N551 C544 1.356 . S
N551 H554 0.984 . S
N551 H555 0.985 . S
H552 N547 0.984 . S
H553 N547 0.985 . S
H554 N551 0.984 . S
H555 N551 0.985 . S
H556 N550 0.984 . S
H557 N550 0.984 . S
H558 N546 0.984 . S
H559 N546 0.985 . S
C560 C561 1.363 1_655 S
C560 C566 1.379 1_545 S
C560 N568 1.356 1_655 S
C561 C560 1.363 1_455 S
C561 C567 1.363 . S
C562 C563 1.363 1_455 S
C562 C567 1.379 1_565 S
C562 N569 1.356 1_455 S
C563 C562 1.363 1_655 S
C563 C566 1.363 . S
N564 C566 1.356 . S
N564 H576 0.984 1_565 S
N564 H577 0.985 . S
N565 C567 1.356 . S
N565 H570 0.984 . S
N565 H571 0.985 1_545 S
C566 C560 1.379 1_565 S
C566 C563 1.363 . S
C566 N564 1.356 . S
C567 C561 1.363 . S
C567 C562 1.379 1_545 S
C567 N565 1.356 . S
N568 C560 1.356 1_455 S
N568 H574 0.984 1_455 S
N568 H575 0.984 . S
N569 C562 1.356 1_655 S
N569 H572 0.984 . S
N569 H573 0.985 1_655 S
H570 N565 0.984 . S
H571 N565 0.985 1_565 S
H572 N569 0.984 . S
H573 N569 0.985 1_455 S
H574 N568 0.984 1_655 S
H575 N568 0.984 . S
H576 N564 0.984 1_545 S
H577 N564 0.985 . S
C578 C579 1.363 1_455 S
C578 C584 1.379 1_545 S
C578 N586 1.356 1_455 S
C579 C578 1.363 1_655 S
C579 C585 1.363 . S
C580 C581 1.363 1_655 S
C580 C585 1.379 1_565 S
C580 N587 1.356 1_655 S
C581 C580 1.363 1_455 S
C581 C584 1.363 . S
N582 C584 1.356 . S
N582 H594 0.984 1_565 S
N582 H595 0.985 . S
N583 C585 1.356 . S
N583 H588 0.984 . S
N583 H589 0.985 1_545 S
C584 C578 1.379 1_565 S
C584 C581 1.363 . S
C584 N582 1.356 . S
C585 C579 1.363 . S
C585 C580 1.379 1_545 S
C585 N583 1.356 . S
N586 C578 1.356 1_655 S
N586 H592 0.984 1_655 S
N586 H593 0.984 . S
N587 C580 1.356 1_455 S
N587 H590 0.984 . S
N587 H591 0.985 1_455 S
H588 N583 0.984 . S
H589 N583 0.985 1_565 S
H590 N587 0.984 . S
H591 N587 0.985 1_655 S
H592 N586 0.984 1_455 S
H593 N586 0.984 . S
H594 N582 0.984 1_545 S
H595 N582 0.985 . S
C596 C597 1.363 . S
C596 C602 1.379 . S
C596 N604 1.356 . S
C597 C596 1.363 . S
C597 C603 1.363 . S
C598 C599 1.363 . S
C598 C603 1.379 . S
C598 N605 1.356 . S
C599 C598 1.363 . S
C599 C602 1.363 . S
N600 C602 1.356 . S
N600 H612 0.984 . S
N600 H613 0.985 . S
N601 C603 1.356 . S
N601 H606 0.984 . S
N601 H607 0.985 . S
C602 C596 1.379 . S
C602 C599 1.363 . S
C602 N600 1.356 . S
C603 C597 1.363 . S
C603 C598 1.379 . S
C603 N601 1.356 . S
N604 C596 1.356 . S
N604 H610 0.984 . S
N604 H611 0.984 . S
N605 C598 1.356 . S
N605 H608 0.984 . S
N605 H609 0.985 . S
H606 N601 0.984 . S
H607 N601 0.985 . S
H608 N605 0.984 . S
H609 N605 0.985 . S
H610 N604 0.984 . S
H611 N604 0.984 . S
H612 N600 0.984 . S
H613 N600 0.985 . S
C614 C615 1.363 . S
C614 C620 1.379 . S
C614 N622 1.356 . S
C615 C614 1.363 . S
C615 C621 1.363 . S
C616 C617 1.363 . S
C616 C621 1.379 . S
C616 N623 1.356 . S
C617 C616 1.363 . S
C617 C620 1.363 . S
N618 C620 1.356 . S
N618 H630 0.984 . S
N618 H631 0.985 . S
N619 C621 1.356 . S
N619 H624 0.984 . S
N619 H625 0.985 . S
C620 C614 1.379 . S
C620 C617 1.363 . S
C620 N618 1.356 . S
C621 C615 1.363 . S
C621 C616 1.379 . S
C621 N619 1.356 . S
N622 C614 1.356 . S
N622 H628 0.984 . S
N622 H629 0.984 . S
N623 C616 1.356 . S
N623 H626 0.984 . S
N623 H627 0.985 . S
H624 N619 0.984 . S
H625 N619 0.985 . S
H626 N623 0.984 . S
H627 N623 0.985 . S
H628 N622 0.984 . S
H629 N622 0.984 . S
H630 N618 0.984 . S
H631 N618 0.985 . S
C632 C633 1.363 1_565 S
C632 C638 1.379 1_554 S
C632 N640 1.356 . S
C633 C632 1.363 1_545 S
C633 C639 1.363 . S
C634 C635 1.363 1_545 S
C634 C639 1.379 1_556 S
C634 N641 1.356 . S
C635 C634 1.363 1_565 S
C635 C638 1.363 . S
N636 C638 1.356 . S
N636 H648 0.984 . S
N636 H649 0.985 . S
N637 C639 1.356 . S
N637 H642 0.984 . S
N637 H643 0.985 . S
C638 C632 1.379 1_556 S
C638 C635 1.363 . S
C638 N636 1.356 . S
C639 C633 1.363 . S
C639 C634 1.379 1_554 S
C639 N637 1.356 . S
N640 C632 1.356 . S
N640 H646 0.984 . S
N640 H647 0.984 . S
N641 C634 1.356 . S
N641 H644 0.984 . S
N641 H645 0.985 . S
H642 N637 0.984 . S
H643 N637 0.985 . S
H644 N641 0.984 . S
H645 N641 0.985 . S
H646 N640 0.984 . S
H647 N640 0.984 . S
H648 N636 0.984 . S
H649 N636 0.985 . S
C650 C651 1.363 . S
C650 C656 1.379 1_556 S
C650 N658 1.356 . S
C651 C650 1.363 . S
C651 C657 1.363 1_455 S
C652 C653 1.363 . S
C652 C657 1.379 1_554 S
C652 N659 1.356 . S
C653 C652 1.363 . S
C653 C656 1.363 1_655 S
N654 C656 1.356 . S
N654 H666 0.984 . S
N654 H667 0.985 1_455 S
N655 C657 1.356 . S
N655 H660 0.984 1_655 S
N655 H661 0.985 . S
C656 C650 1.379 1_554 S
C656 C653 1.363 1_455 S
C656 N654 1.356 . S
C657 C651 1.363 1_655 S
C657 C652 1.379 1_556 S
C657 N655 1.356 . S
N658 C650 1.356 . S
N658 H664 0.984 . S
N658 H665 0.984 . S
N659 C652 1.356 . S
N659 H662 0.984 . S
N659 H663 0.985 . S
H660 N655 0.984 1_455 S
H661 N655 0.985 . S
H662 N659 0.984 . S
H663 N659 0.985 . S
H664 N658 0.984 . S
H665 N658 0.984 . S
H666 N654 0.984 . S
H667 N654 0.985 1_655 S
C668 C669 1.363 1_565 S
C668 C674 1.379 1_556 S
C668 N676 1.356 . S
C669 C668 1.363 1_545 S
C669 C675 1.363 . S
C670 C671 1.363 1_545 S
C670 C675 1.379 1_554 S
C670 N677 1.356 . S
C671 C670 1.363 1_565 S
C671 C674 1.363 . S
N672 C674 1.356 . S
N672 H684 0.984 . S
N672 H685 0.985 . S
N673 C675 1.356 . S
N673 H678 0.984 . S
N673 H679 0.985 . S
C674 C668 1.379 1_554 S
C674 C671 1.363 . S
C674 N672 1.356 . S
C675 C669 1.363 . S
C675 C670 1.379 1_556 S
C675 N673 1.356 . S
N676 C668 1.356 . S
N676 H682 0.984 . S
N676 H683 0.984 . S
N677 C670 1.356 . S
N677 H680 0.984 . S
N677 H681 0.985 . S
H678 N673 0.984 . S
H679 N673 0.985 . S
H680 N677 0.984 . S
H681 N677 0.985 . S
H682 N676 0.984 . S
H683 N676 0.984 . S
H684 N672 0.984 . S
H685 N672 0.985 . S
C686 C687 1.363 . S
C686 C692 1.379 1_554 S
C686 N694 1.356 . S
C687 C686 1.363 . S
C687 C693 1.363 1_455 S
C688 C689 1.363 . S
C688 C693 1.379 1_556 S
C688 N695 1.356 . S
C689 C688 1.363 . S
C689 C692 1.363 1_655 S
N690 C692 1.356 . S
N690 H702 0.984 . S
N690 H703 0.985 1_455 S
N691 C693 1.356 . S
N691 H696 0.984 1_655 S
N691 H697 0.985 . S
C692 C686 1.379 1_556 S
C692 C689 1.363 1_455 S
C692 N690 1.356 . S
C693 C687 1.363 1_655 S
C693 C688 1.379 1_554 S
C693 N691 1.356 . S
N694 C686 1.356 . S
N694 H700 0.984 . S
N694 H701 0.984 . S
N695 C688 1.356 . S
N695 H698 0.984 . S
N695 H699 0.985 . S
H696 N691 0.984 1_455 S
H697 N691 0.985 . S
H698 N695 0.984 . S
H699 N695 0.985 . S
H700 N694 0.984 . S
H701 N694 0.984 . S
H702 N690 0.984 . S
H703 N690 0.985 1_655 S
C704 C705 1.363 . S
C704 C710 1.379 . S
C704 N712 1.356 . S
C705 C704 1.363 . S
C705 C711 1.363 . S
C706 C707 1.363 . S
C706 C711 1.379 . S
C706 N713 1.356 . S
C707 C706 1.363 . S
C707 C710 1.363 . S
N708 C710 1.356 . S
N708 H720 0.984 . S
N708 H721 0.985 . S
N709 C711 1.356 . S
N709 H714 0.984 . S
N709 H715 0.985 . S
C710 C704 1.379 . S
C710 C707 1.363 . S
C710 N708 1.356 . S
C711 C705 1.363 . S
C711 C706 1.379 . S
C711 N709 1.356 . S
N712 C704 1.356 . S
N712 H718 0.984 . S
N712 H719 0.984 . S
N713 C706 1.356 . S
N713 H716 0.984 . S
N713 H717 0.985 . S
H714 N709 0.984 . S
H715 N709 0.985 . S
H716 N713 0.984 . S
H717 N713 0.985 . S
H718 N712 0.984 . S
H719 N712 0.984 . S
H720 N708 0.984 . S
H721 N708 0.985 . S
C722 C723 1.363 . S
C722 C728 1.379 . S
C722 N730 1.356 . S
C723 C722 1.363 . S
C723 C729 1.363 . S
C724 C725 1.363 . S
C724 C729 1.379 . S
C724 N731 1.356 . S
C725 C724 1.363 . S
C725 C728 1.363 . S
N726 C728 1.356 . S
N726 H738 0.984 . S
N726 H739 0.985 . S
N727 C729 1.356 . S
N727 H732 0.984 . S
N727 H733 0.985 . S
C728 C722 1.379 . S
C728 C725 1.363 . S
C728 N726 1.356 . S
C729 C723 1.363 . S
C729 C724 1.379 . S
C729 N727 1.356 . S
N730 C722 1.356 . S
N730 H736 0.984 . S
N730 H737 0.984 . S
N731 C724 1.356 . S
N731 H734 0.984 . S
N731 H735 0.985 . S
H732 N727 0.984 . S
H733 N727 0.985 . S
H734 N731 0.984 . S
H735 N731 0.985 . S
H736 N730 0.984 . S
H737 N730 0.984 . S
H738 N726 0.984 . S
H739 N726 0.985 . S
C740 C741 1.363 . S
C740 C746 1.379 . S
C740 N748 1.356 . S
C741 C740 1.363 . S
C741 C747 1.363 . S
C742 C743 1.363 . S
C742 C747 1.379 . S
C742 N749 1.356 . S
C743 C742 1.363 . S
C743 C746 1.363 . S
N744 C746 1.356 . S
N744 H756 0.984 . S
N744 H757 0.985 . S
N745 C747 1.356 . S
N745 H750 0.984 . S
N745 H751 0.985 . S
C746 C740 1.379 . S
C746 C743 1.363 . S
C746 N744 1.356 . S
C747 C741 1.363 . S
C747 C742 1.379 . S
C747 N745 1.356 . S
N748 C740 1.356 . S
N748 H754 0.984 . S
N748 H755 0.984 . S
N749 C742 1.356 . S
N749 H752 0.984 . S
N749 H753 0.985 . S
H750 N745 0.984 . S
H751 N745 0.985 . S
H752 N749 0.984 . S
H753 N749 0.985 . S
H754 N748 0.984 . S
H755 N748 0.984 . S
H756 N744 0.984 . S
H757 N744 0.985 . S
C758 C759 1.363 . S
C758 C764 1.379 . S
C758 N766 1.356 . S
C759 C758 1.363 . S
C759 C765 1.363 . S
C760 C761 1.363 . S
C760 C765 1.379 . S
C760 N767 1.356 . S
C761 C760 1.363 . S
C761 C764 1.363 . S
N762 C764 1.356 . S
N762 H774 0.984 . S
N762 H775 0.985 . S
N763 C765 1.356 . S
N763 H768 0.984 . S
N763 H769 0.985 . S
C764 C758 1.379 . S
C764 C761 1.363 . S
C764 N762 1.356 . S
C765 C759 1.363 . S
C765 C760 1.379 . S
C765 N763 1.356 . S
N766 C758 1.356 . S
N766 H772 0.984 . S
N766 H773 0.984 . S
N767 C760 1.356 . S
N767 H770 0.984 . S
N767 H771 0.985 . S
H768 N763 0.984 . S
H769 N763 0.985 . S
H770 N767 0.984 . S
H771 N767 0.985 . S
H772 N766 0.984 . S
H773 N766 0.984 . S
H774 N762 0.984 . S
H775 N762 0.985 . S
C273 C28 1.757 1_565 S
C275 C241 1.664 . S
C291 C49 1.332 1_655 S
C293 C137 1.399 . S
C309 C173 1.664 . S
C311 C96 1.757 1_545 S
C327 C117 1.332 1_455 S
C329 C207 1.399 . S
C345 C40 1.757 1_545 S
C347 C205 1.664 . S
C363 C239 1.399 . S
C365 C90 1.332 1_455 S
C381 C108 1.757 1_565 S
C383 C139 1.664 . S
C399 C171 1.399 . S
C401 C22 1.332 1_655 S
C417 C142 1.757 . S
C419 C105 1.664 . S
C435 C3 1.399 . S
C437 C185 1.339 . S
C453 C37 1.664 . S
C455 C232 1.757 . S
C471 C253 1.339 . S
C473 C71 1.399 . S
C489 C176 1.757 . S
C491 C69 1.664 . S
C507 C226 1.339 . S
C509 C103 1.399 . S
C525 C244 1.757 . S
C527 C1 1.664 . S
C543 C35 1.399 . S
C545 C151 1.339 . S
C561 C17 1.883 . S
C563 C85 1.883 . S
C579 C119 1.883 . S
C581 C51 1.883 . S
C597 C153 1.883 . S
C599 C221 1.883 . S
C615 C187 1.883 . S
C617 C255 1.883 . S
C633 C15 0.702 . S
C635 C56 0.702 . S
C651 C62 1.213 . S
C653 C74 1.213 . S
C669 C124 0.702 . S
C671 C83 0.702 . S
C687 C6 1.213 . S
C689 C130 1.213 . S
C705 C192 0.702 . S
C707 C158 0.702 . S
C723 C210 1.213 . S
C725 C198 1.213 . S
C741 C219 0.702 . S
C743 C260 0.702 . S
C759 C164 1.213 . S
C761 C266 1.213 . S
