# Generated by pormake.
# Topology unm, (4)-cn, num edge types: 1
# Building blocks:
#     Node 0, Type 0, BuildingBlock: ICAMEG_clean_sbu_1, # of connection points: 4
#     Node 1, Type 0, BuildingBlock: ICAMEG_clean_sbu_1, # of connection points: 4
#     Node 2, Type 0, BuildingBlock: ICAMEG_clean_sbu_1, # of connection points: 4
#     Node 3, Type 0, BuildingBlock: ICAMEG_clean_sbu_1, # of connection points: 4
#     Node 4, Type 0, BuildingBlock: ICAMEG_clean_sbu_1, # of connection points: 4
#     Node 5, Type 0, BuildingBlock: ICAMEG_clean_sbu_1, # of connection points: 4
#     Node 6, Type 0, BuildingBlock: ICAMEG_clean_sbu_1, # of connection points: 4
#     Node 7, Type 0, BuildingBlock: ICAMEG_clean_sbu_1, # of connection points: 4
#     Edge 8, Type (0, 0), BuildingBlock: AJUNOK_clean_linker_0, # of connection points: 2
#     Edge 9, Type (0, 0), BuildingBlock: AJUNOK_clean_linker_0, # of connection points: 2
#     Edge 10, Type (0, 0), BuildingBlock: AJUNOK_clean_linker_0, # of connection points: 2
#     Edge 11, Type (0, 0), BuildingBlock: AJUNOK_clean_linker_0, # of connection points: 2
#     Edge 12, Type (0, 0), BuildingBlock: AJUNOK_clean_linker_0, # of connection points: 2
#     Edge 13, Type (0, 0), BuildingBlock: AJUNOK_clean_linker_0, # of connection points: 2
#     Edge 14, Type (0, 0), BuildingBlock: AJUNOK_clean_linker_0, # of connection points: 2
#     Edge 15, Type (0, 0), BuildingBlock: AJUNOK_clean_linker_0, # of connection points: 2
#     Edge 16, Type (0, 0), BuildingBlock: AJUNOK_clean_linker_0, # of connection points: 2
#     Edge 17, Type (0, 0), BuildingBlock: AJUNOK_clean_linker_0, # of connection points: 2
#     Edge 18, Type (0, 0), BuildingBlock: AJUNOK_clean_linker_0, # of connection points: 2
#     Edge 19, Type (0, 0), BuildingBlock: AJUNOK_clean_linker_0, # of connection points: 2
#     Edge 20, Type (0, 0), BuildingBlock: AJUNOK_clean_linker_0, # of connection points: 2
#     Edge 21, Type (0, 0), BuildingBlock: AJUNOK_clean_linker_0, # of connection points: 2
#     Edge 22, Type (0, 0), BuildingBlock: AJUNOK_clean_linker_0, # of connection points: 2
#     Edge 23, Type (0, 0), BuildingBlock: AJUNOK_clean_linker_0, # of connection points: 2
# Relax obj value: 0.080
# Max RMSD: 0.087
# Mean RMSD: 0.087
data_MOF--net-unm--node1-ICAMEG_clean_sbu_1--edge1-AJUNOK_clean_linker_0
_symmetry_space_group_name_H-M    P1
_symmetry_Int_Tables_number       1
_symmetry_cell_setting            triclinic
loop_
_symmetry_equiv_pos_as_xyz
'x, y, z'
_cell_length_a     18.825722
_cell_length_b     18.846565
_cell_length_c     38.951639
_cell_angle_alpha  90.133498
_cell_angle_beta   89.972613
_cell_angle_gamma 90.127303
loop_
_atom_site_label
_atom_site_type_symbol
_atom_site_fract_x
_atom_site_fract_y
_atom_site_fract_z
_atom_type_partial_charge
Co0 Co 0.16176 0.2398 0.12512 0.0
Co1 Co 0.22959 0.35871 0.18381 0.0
O2 O 0.24228 0.28626 0.14808 0.0
C3 C 0.24891 0.28799 0.0659 0.0
O4 O 0.25158 0.35164 0.07964 0.0
C5 C 0.35852 0.27321 0.20545 0.0
O6 O 0.34408 0.224 0.18267 0.0
O7 O 0.16787 0.29252 0.21086 0.0
O8 O 0.10495 0.24066 0.16874 0.0
H9 H 0.08638 0.49898 0.26892 0.0
H10 H 0.3044 0.17425 0.1187 0.0
O11 O 0.21585 0.23821 0.0811 0.0
H12 H 0.14973 0.98679 0.16585 0.0
H13 H 0.04987 0.06099 0.0451 0.0
H14 H 1.00531 0.26077 0.12386 0.0
H15 H 0.10347 0.10737 0.15628 0.0
H16 H 0.14902 0.1203 0.07488 0.0
O17 O 0.31693 0.32598 0.20943 0.0
H18 H 0.1051 0.41138 0.22281 0.0
H19 H 0.32559 0.45964 0.22091 0.0
H20 H 0.90429 0.20282 0.09495 0.0
H21 H 0.35356 0.05491 0.12886 0.0
H22 H 0.92624 0.10176 0.05529 0.0
H23 H 0.27565 0.95985 0.15206 0.0
O24 O 0.12008 0.33347 0.1127 0.0
H25 H 0.4429 0.42848 0.11322 0.0
H26 H 0.21498 0.50919 0.1616 0.0
H27 H 0.28776 0.59239 0.12777 0.0
H28 H 0.40314 0.55238 0.10359 0.0
H29 H 0.36791 0.34689 0.14664 0.0
H30 H 0.30825 0.55143 0.26523 0.0
H31 H 0.18804 0.57048 0.2901 0.0
O32 O 0.14306 0.39584 0.16049 0.0
C33 C 0.11342 0.258 0.20026 0.0
C34 C 0.13909 0.49056 0.2586 0.0
C35 C 0.26365 0.51985 0.25662 0.0
N36 N 0.21645 0.42993 0.21932 0.0
C37 C 0.15009 0.44086 0.23252 0.0
C38 C 0.27304 0.46815 0.23132 0.0
C39 C 0.19627 0.53056 0.27053 0.0
C40 C 0.27055 0.13354 0.12942 0.0
N41 N 0.20122 0.14794 0.13703 0.0
C42 C 0.29857 0.06595 0.13493 0.0
C43 C 0.25482 0.01261 0.14789 0.0
C44 C 0.18419 0.02773 0.1557 0.0
C45 C 0.15847 0.09635 0.15056 0.0
C46 C 0.03954 0.10484 0.06238 0.0
C47 C 0.01529 0.21702 0.10676 0.0
C48 C 0.09557 0.13887 0.07924 0.0
N49 N 0.08302 0.19371 0.10149 0.0
C50 C 0.95787 0.18435 0.09036 0.0
C51 C 0.97021 0.12772 0.06811 0.0
C52 C 0.11068 0.38702 0.13215 0.0
C53 C 0.39311 0.44678 0.12391 0.0
C54 C 0.26491 0.49128 0.15112 0.0
C55 C 0.30599 0.53869 0.13199 0.0
C56 C 0.37067 0.51623 0.11843 0.0
N57 N 0.28776 0.42355 0.15691 0.0
C58 C 0.35058 0.40087 0.14317 0.0
Co59 Co 0.27156 0.66869 0.62796 0.0
Co60 Co 0.14926 0.74871 0.6826 0.0
O61 O 0.22459 0.7519 0.64783 0.0
C62 C 0.21388 0.74106 0.56594 0.0
O63 O 0.15472 0.75503 0.58245 0.0
C64 C 0.25052 0.86626 0.70554 0.0
O65 O 0.29785 0.84498 0.68318 0.0
O66 O 0.2026 0.67598 0.71104 0.0
O67 O 0.27847 0.62459 0.67402 0.0
H68 H 0.96745 0.62669 0.75644 0.0
H69 H 0.32593 0.81232 0.61145 0.0
O70 O 0.26486 0.70953 0.5809 0.0
H71 H 0.52707 0.68915 0.66595 0.0
H72 H 0.44597 0.54546 0.54999 0.0
H73 H 0.26565 0.51313 0.64046 0.0
H74 H 0.41261 0.6282 0.65742 0.0
H75 H 0.38204 0.64836 0.57378 0.0
O76 O 0.19294 0.83087 0.70948 0.0
H77 H 0.07067 0.63273 0.71752 0.0
H78 H 0.06393 0.85803 0.71992 0.0
H79 H 0.3289 0.40887 0.61765 0.0
H80 H 0.43967 0.87552 0.61918 0.0
H81 H 0.42014 0.42466 0.57218 0.0
H82 H 0.54116 0.81399 0.64681 0.0
O83 O 0.17874 0.61838 0.62061 0.0
H84 H 0.11961 0.96699 0.60927 0.0
H85 H 0.99902 0.75879 0.65892 0.0
H86 H 0.93125 0.84148 0.62273 0.0
H87 H 0.9915 0.94664 0.59767 0.0
H88 H 0.18553 0.8826 0.64506 0.0
H89 H 0.96076 0.85429 0.75884 0.0
H90 H 0.91091 0.73811 0.77667 0.0
O91 O 0.1022 0.66965 0.65726 0.0
C92 C 0.24911 0.62861 0.70343 0.0
C93 C 0.98848 0.67767 0.74863 0.0
C94 C 0.98479 0.80543 0.75002 0.0
N95 N 0.07321 0.74564 0.71631 0.0
C96 C 0.04706 0.68145 0.72669 0.0
C97 C 0.04366 0.80718 0.72822 0.0
C98 C 0.95679 0.74017 0.76001 0.0
C99 C 0.36987 0.78507 0.62341 0.0
N100 N 0.36203 0.71685 0.63464 0.0
C101 C 0.43415 0.8212 0.62776 0.0
C102 C 0.49104 0.78669 0.64328 0.0
C103 C 0.48309 0.71675 0.65413 0.0
C104 C 0.4178 0.68262 0.64965 0.0
C105 C 0.40629 0.53784 0.56976 0.0
C106 C 0.30491 0.52051 0.62055 0.0
C107 C 0.36951 0.5959 0.58319 0.0
N108 N 0.31977 0.58688 0.60842 0.0
C109 C 0.34065 0.46121 0.60775 0.0
C110 C 0.39179 0.4701 0.58223 0.0
C111 C 0.11732 0.62364 0.63439 0.0
C112 C 0.0926 0.92167 0.62028 0.0
C113 C 0.02576 0.80436 0.64818 0.0
C114 C 0.98699 0.85113 0.62772 0.0
C115 C 0.02077 0.91017 0.61372 0.0
N116 N 0.09612 0.81624 0.65486 0.0
C117 C 0.12963 0.87383 0.64091 0.0
Co118 Co 0.86083 0.74655 0.13003 0.0
Co119 Co 0.76532 0.63885 0.1846 0.0
O120 O 0.7711 0.71571 0.15085 0.0
C121 C 0.77407 0.71608 0.06783 0.0
O122 O 0.75637 0.65463 0.08118 0.0
C123 C 0.67149 0.74911 0.21871 0.0
O124 O 0.72303 0.79605 0.21707 0.0
O125 O 0.83838 0.68793 0.21493 0.0
O126 O 0.91098 0.73429 0.17462 0.0
H127 H 0.86598 0.45166 0.26216 0.0
H128 H 0.73291 0.83589 0.1211 0.0
O129 O 0.81338 0.75894 0.08458 0.0
H130 H 0.91101 0.99029 0.17648 0.0
H131 H 0.01279 0.90319 0.05511 0.0
H132 H 0.0112 0.70001 0.13455 0.0
H133 H 0.93712 0.86455 0.16537 0.0
H134 H 0.90067 0.86155 0.08094 0.0
O135 O 0.68182 0.68613 0.20796 0.0
H136 H 0.87072 0.558 0.22548 0.0
H137 H 0.64598 0.5554 0.21561 0.0
H138 H 0.12458 0.74009 0.10956 0.0
H139 H 0.70463 0.96193 0.13144 0.0
H140 H 0.12591 0.84258 0.06954 0.0
H141 H 0.7942 0.04031 0.15879 0.0
O142 O 0.88715 0.6474 0.11728 0.0
H143 H 0.5503 0.62824 0.10818 0.0
H144 H 0.74813 0.49091 0.15697 0.0
H145 H 0.66356 0.43197 0.118 0.0
H146 H 0.56334 0.5007 0.09344 0.0
H147 H 0.63696 0.68533 0.14682 0.0
H148 H 0.63911 0.44794 0.25152 0.0
H149 H 0.74994 0.39396 0.274 0.0
O150 O 0.84504 0.5868 0.16213 0.0
C151 C 0.89791 0.71544 0.2054 0.0
C152 C 0.81744 0.47411 0.25204 0.0
C153 C 0.69013 0.47197 0.24601 0.0
N154 N 0.75884 0.56221 0.21782 0.0
C155 C 0.8197 0.5347 0.23146 0.0
C156 C 0.69435 0.53312 0.22589 0.0
C157 C 0.75231 0.44175 0.25868 0.0
C158 C 0.77203 0.86969 0.13323 0.0
N159 N 0.83685 0.84322 0.14227 0.0
C160 C 0.75583 0.941 0.1389 0.0
C161 C 0.80625 0.985 0.15425 0.0
C162 C 0.87156 0.95705 0.16422 0.0
C163 C 0.88583 0.8855 0.15821 0.0
C164 C 0.01292 0.85844 0.07249 0.0
C165 C 0.01129 0.74461 0.11725 0.0
C166 C 0.94952 0.83439 0.08708 0.0
N167 N 0.9493 0.77838 0.10935 0.0
C168 C 0.07568 0.76705 0.1031 0.0
C169 C 0.07638 0.82448 0.08062 0.0
C170 C 0.88409 0.59145 0.13553 0.0
C171 C 0.59364 0.59768 0.11878 0.0
C172 C 0.70547 0.5214 0.14612 0.0
C173 C 0.65732 0.48762 0.12419 0.0
C174 C 0.60105 0.52615 0.11047 0.0
N175 N 0.69775 0.59148 0.15435 0.0
C176 C 0.6428 0.62963 0.14081 0.0
Co177 Co 0.74954 0.35546 0.63119 0.0
Co178 Co 0.88069 0.28191 0.6831 0.0
O179 O 0.80203 0.27441 0.65015 0.0
C180 C 0.80636 0.2831 0.5689 0.0
O181 O 0.86455 0.26622 0.58544 0.0
C182 C 0.78631 0.16182 0.70971 0.0
O183 O 0.73501 0.18135 0.6891 0.0
O184 O 0.82661 0.35305 0.71224 0.0
O185 O 0.74294 0.39883 0.67755 0.0
H186 H 0.05527 0.41524 0.75677 0.0
H187 H 0.70225 0.20874 0.61592 0.0
O188 O 0.75594 0.31572 0.58381 0.0
H189 H 0.49555 0.32445 0.66973 0.0
H190 H 0.56586 0.47094 0.55575 0.0
H191 H 0.75056 0.51127 0.64341 0.0
H192 H 0.60785 0.38982 0.66177 0.0
H193 H 0.63526 0.37088 0.57852 0.0
O194 O 0.84341 0.19878 0.71137 0.0
H195 H 0.95347 0.40256 0.71736 0.0
H196 H 0.97965 0.17897 0.71627 0.0
H197 H 0.68134 0.61268 0.62182 0.0
H198 H 0.59131 0.1408 0.62389 0.0
H199 H 0.58792 0.59281 0.57778 0.0
H200 H 0.48694 0.19874 0.65101 0.0
O201 O 0.83871 0.41062 0.62275 0.0
H202 H 0.91414 0.06019 0.61227 0.0
H203 H 0.02853 0.27808 0.65565 0.0
H204 H 0.09685 0.1961 0.61908 0.0
H205 H 0.03987 0.08583 0.59734 0.0
H206 H 0.84739 0.14429 0.64814 0.0
H207 H 0.08162 0.18905 0.75562 0.0
H208 H 0.12007 0.30784 0.77603 0.0
O209 O 0.92222 0.3618 0.6564 0.0
C210 C 0.77627 0.39717 0.70601 0.0
C211 C 0.03862 0.3631 0.74823 0.0
C212 C 0.05331 0.23615 0.74765 0.0
N213 N 0.95953 0.2899 0.7151 0.0
C214 C 0.98076 0.35554 0.72606 0.0
C215 C 0.99495 0.23065 0.72571 0.0
C216 C 0.07507 0.30289 0.75899 0.0
C217 C 0.65719 0.23421 0.62789 0.0
N218 N 0.66195 0.30301 0.63882 0.0
C219 C 0.59448 0.19549 0.63231 0.0
C220 C 0.53593 0.22801 0.6475 0.0
C221 C 0.5408 0.29851 0.65809 0.0
C222 C 0.60477 0.33515 0.65381 0.0
C223 C 0.60621 0.48028 0.57503 0.0
C224 C 0.70995 0.50209 0.62431 0.0
C225 C 0.64599 0.42383 0.58791 0.0
N226 N 0.69659 0.43501 0.61254 0.0
C227 C 0.67101 0.5598 0.61211 0.0
C228 C 0.61865 0.54863 0.58738 0.0
C229 C 0.90194 0.40709 0.63433 0.0
C230 C 0.93978 0.10775 0.62181 0.0
C231 C 1.00307 0.23055 0.64611 0.0
C232 C 0.04219 0.18412 0.62552 0.0
C233 C 1.01024 0.12225 0.61337 0.0
N234 N 0.93413 0.21572 0.65463 0.0
C235 C 0.90231 0.15543 0.64246 0.0
Co236 Co 0.65707 0.28377 0.36487 0.0
Co237 Co 0.72983 0.15885 0.31022 0.0
O238 O 0.73915 0.23487 0.34443 0.0
C239 C 0.73891 0.23698 0.42588 0.0
O240 O 0.74258 0.17341 0.41213 0.0
C241 C 0.86054 0.24362 0.28775 0.0
O242 O 0.85157 0.2912 0.31199 0.0
O243 O 0.66792 0.22036 0.28096 0.0
O244 O 0.60527 0.2816 0.32007 0.0
H245 H 0.59394 1.00599 0.22722 0.0
H246 H 0.80068 0.34668 0.37355 0.0
O247 O 0.70659 0.28652 0.4102 0.0
H248 H 0.65594 0.53394 0.31999 0.0
H249 H 0.54054 0.46888 0.43954 0.0
H250 H 0.50005 0.26925 0.36003 0.0
H251 H 0.60522 0.41527 0.3307 0.0
H252 H 0.64151 0.4044 0.4142 0.0
O253 O 0.81687 0.19212 0.28441 0.0
H254 H 0.60812 0.09736 0.27204 0.0
H255 H 0.83024 0.05879 0.27569 0.0
H256 H 0.39734 0.33279 0.38427 0.0
H257 H 0.85434 0.46384 0.36213 0.0
H258 H 0.41726 0.4337 0.4243 0.0
H259 H 0.78146 0.55875 0.3356 0.0
O260 O 0.6111 0.19173 0.37742 0.0
H261 H 0.94102 0.10057 0.38456 0.0
H262 H 0.71761 0.00998 0.335 0.0
H263 H 0.79046 0.93146 0.37107 0.0
H264 H 0.90359 0.9764 0.39585 0.0
H265 H 0.86601 0.17752 0.34893 0.0
H266 H 0.81765 0.96384 0.23256 0.0
H267 H 0.69886 0.93804 0.20745 0.0
O268 O 0.64341 0.12149 0.33358 0.0
C269 C 0.61486 0.25891 0.2895 0.0
C270 C 0.64601 0.01732 0.23768 0.0
C271 C 0.77159 0.9938 0.24058 0.0
N272 N 0.72003 0.08398 0.27625 0.0
C273 C 0.65442 0.06901 0.26308 0.0
C274 C 0.77832 0.04735 0.26517 0.0
C275 C 0.70503 0.97931 0.22654 0.0
C276 C 0.76903 0.38733 0.36146 0.0
N277 N 0.69999 0.37406 0.35275 0.0
C278 C 0.79957 0.45368 0.35522 0.0
C279 C 0.75863 0.50695 0.34039 0.0
C280 C 0.68822 0.49304 0.33159 0.0
C281 C 0.65996 0.42556 0.33748 0.0
C282 C 0.53112 0.42492 0.42218 0.0
C283 C 0.50918 0.3128 0.37742 0.0
C284 C 0.58817 0.3878 0.40794 0.0
N285 N 0.57686 0.33282 0.38561 0.0
C286 C 0.45079 0.34867 0.39112 0.0
C287 C 0.46198 0.40523 0.4136 0.0
C288 C 0.60611 0.13456 0.36004 0.0
C289 C 0.89225 0.08013 0.37361 0.0
C290 C 0.76658 0.03012 0.34572 0.0
C291 C 0.8077 0.98531 0.36613 0.0
C292 C 0.87111 0.01053 0.38002 0.0
N293 N 0.78821 0.09804 0.33901 0.0
C294 C 0.84974 0.12341 0.35307 0.0
Co295 Co 0.25833 0.16588 0.86083 0.0
Co296 Co 0.38364 0.25064 0.80954 0.0
O297 O 0.30396 0.25111 0.84202 0.0
C298 C 0.31181 0.24115 0.92267 0.0
O299 O 0.36896 0.25988 0.90568 0.0
C300 C 0.28307 0.36702 0.78395 0.0
O301 O 0.2355 0.35078 0.80725 0.0
O302 O 0.33583 0.1751 0.78013 0.0
O303 O 0.25494 0.12281 0.81442 0.0
H304 H 0.5757 0.13455 0.7396 0.0
H305 H 0.19748 0.3068 0.87758 0.0
O306 O 0.26229 0.20606 0.90823 0.0
H307 H 1.00426 0.17438 0.8207 0.0
H308 H 0.08686 0.03548 0.93751 0.0
H309 H 0.27018 0.01078 0.84784 0.0
H310 H 0.12248 0.12028 0.828 0.0
H311 H 0.14673 0.14104 0.91395 0.0
O312 O 0.33969 0.32979 0.7811 0.0
H313 H 0.4699 0.13732 0.7769 0.0
H314 H 0.471 0.36255 0.77527 0.0
H315 H 0.21066 0.90384 0.87028 0.0
H316 H 0.08037 0.36337 0.87027 0.0
H317 H 0.11806 0.9158 0.91538 0.0
H318 H 0.98268 0.29678 0.84181 0.0
O319 O 0.3513 0.11815 0.86913 0.0
H320 H 0.39754 0.47108 0.88339 0.0
H321 H 0.53145 0.26989 0.83525 0.0
H322 H 0.59269 0.35607 0.87248 0.0
H323 H 0.52578 0.45779 0.89677 0.0
H324 H 0.33807 0.38277 0.84693 0.0
H325 H 0.57646 0.36227 0.73779 0.0
H326 H 0.63039 0.24781 0.72036 0.0
O327 O 0.43159 0.17441 0.83636 0.0
C328 C 0.28824 0.12752 0.78602 0.0
C329 C 0.55271 0.18483 0.74708 0.0
C330 C 0.55304 0.31264 0.74601 0.0
N331 N 0.46342 0.25002 0.77781 0.0
C332 C 0.4925 0.18674 0.76803 0.0
C333 C 0.49263 0.31245 0.7668 0.0
C334 C 0.58337 0.24832 0.73628 0.0
C335 C 0.1553 0.27767 0.86503 0.0
N336 N 0.16684 0.21039 0.8532 0.0
C337 C 0.08911 0.30994 0.86098 0.0
C338 C 0.03432 0.27256 0.84502 0.0
C339 C 0.04645 0.20389 0.83309 0.0
C340 C 0.11363 0.17372 0.83712 0.0
C341 C 0.12693 0.02954 0.91778 0.0
C342 C 0.22986 0.0165 0.8674 0.0
C343 C 0.16134 0.08915 0.90446 0.0
N344 N 0.21185 0.08221 0.87943 0.0
C345 C 0.1964 0.9557 0.88005 0.0
C346 C 0.14451 0.96243 0.90538 0.0
C347 C 0.41436 0.12674 0.85794 0.0
C348 C 0.42742 0.42718 0.87279 0.0
C349 C 0.50166 0.31357 0.84585 0.0
C350 C 0.53681 0.36253 0.8668 0.0
C351 C 0.4993 0.41969 0.88034 0.0
N352 N 0.43116 0.3213 0.83826 0.0
C353 C 0.39405 0.37714 0.8517 0.0
Co354 Co 0.36011 0.76919 0.36163 0.0
Co355 Co 0.26617 0.87336 0.30513 0.0
O356 O 0.27107 0.79787 0.3396 0.0
C357 C 0.27061 0.8029 0.42232 0.0
O358 O 0.25473 0.86379 0.40798 0.0
C359 C 0.17042 0.76111 0.27275 0.0
O360 O 0.21986 0.71262 0.27625 0.0
O361 O 0.34005 0.82304 0.2759 0.0
O362 O 0.41199 0.78006 0.31734 0.0
H363 H 0.36911 0.05801 0.22662 0.0
H364 H 0.23301 0.67752 0.37048 0.0
O365 O 0.31032 0.75879 0.40664 0.0
H366 H 0.4166 0.52293 0.31989 0.0
H367 H 0.50883 0.61837 0.44035 0.0
H368 H 0.51035 0.81737 0.35855 0.0
H369 H 0.43948 0.65065 0.32851 0.0
H370 H 0.39798 0.65739 0.41263 0.0
O371 O 0.18294 0.82495 0.28176 0.0
H372 H 0.37273 0.95274 0.26403 0.0
H373 H 0.14774 0.95492 0.2726 0.0
H374 H 0.62262 0.77988 0.38536 0.0
H375 H 0.20807 0.5499 0.36254 0.0
H376 H 0.62236 0.67947 0.4266 0.0
H377 H 0.30075 0.47152 0.33764 0.0
O378 O 0.38531 0.86937 0.37351 0.0
H379 H 0.04941 0.88641 0.38038 0.0
H380 H 0.24825 0.02248 0.33107 0.0
H381 H 0.16282 0.08274 0.36901 0.0
H382 H 0.06206 0.01467 0.39382 0.0
H383 H 0.13695 0.82803 0.34278 0.0
H384 H 0.14196 0.06121 0.23588 0.0
H385 H 0.25346 0.11506 0.21382 0.0
O386 O 0.3454 0.92707 0.32744 0.0
C387 C 0.39966 0.7972 0.28623 0.0
C388 C 0.32028 0.03565 0.23659 0.0
C389 C 0.1928 0.03749 0.24183 0.0
N390 N 0.26065 0.94845 0.2711 0.0
C391 C 0.3219 0.97567 0.25758 0.0
C392 C 0.19641 0.977 0.26241 0.0
C393 C 0.25537 0.06761 0.22939 0.0
C394 C 0.27328 0.64383 0.3593 0.0
N395 N 0.33783 0.67132 0.35031 0.0
C396 C 0.259 0.57159 0.35501 0.0
C397 C 0.31102 0.52763 0.34103 0.0
C398 C 0.37598 0.55648 0.33098 0.0
C399 C 0.38833 0.62898 0.33559 0.0
C400 C 0.50968 0.66215 0.42241 0.0
C401 C 0.50984 0.77357 0.37626 0.0
C402 C 0.44699 0.68471 0.40672 0.0
N403 N 0.44769 0.73946 0.38374 0.0
C404 C 0.57356 0.75264 0.39149 0.0
C405 C 0.57336 0.6964 0.41466 0.0
C406 C 0.38324 0.92425 0.35448 0.0
C407 C 0.09296 0.91671 0.36966 0.0
C408 C 0.20536 0.99228 0.34204 0.0
C409 C 0.15672 0.0268 0.36337 0.0
C410 C 0.10016 0.98863 0.37724 0.0
N411 N 0.19785 0.9218 0.33451 0.0
C412 C 0.14261 0.88401 0.3482 0.0
Co413 Co 0.78071 0.85817 0.8624 0.0
Co414 Co 0.65031 0.78202 0.81068 0.0
O415 O 0.72857 0.77636 0.84377 0.0
C416 C 0.7214 0.78881 0.92492 0.0
O417 O 0.66157 0.77736 0.90852 0.0
C418 C 0.74517 0.66158 0.78478 0.0
O419 O 0.79605 0.68078 0.80581 0.0
O420 O 0.70419 0.85257 0.78125 0.0
O421 O 0.78811 0.89968 0.81569 0.0
H422 H 0.47521 0.91053 0.73604 0.0
H423 H 0.82739 0.71189 0.87852 0.0
O424 O 0.77333 0.81907 0.90992 0.0
H425 H 0.03621 0.82797 0.82658 0.0
H426 H 0.96235 0.97585 0.93874 0.0
H427 H 0.78649 0.01285 0.84685 0.0
H428 H 0.92309 0.89227 0.83266 0.0
H429 H 0.89134 0.87578 0.91677 0.0
O430 O 0.68824 0.69846 0.78299 0.0
H431 H 0.57575 0.90064 0.77619 0.0
H432 H 0.55361 0.6765 0.77726 0.0
H433 H 0.85741 0.11411 0.86762 0.0
H434 H 0.93909 0.64487 0.87235 0.0
H435 H 0.94645 0.09598 0.91382 0.0
H436 H 0.04462 0.70305 0.84631 0.0
O437 O 0.69134 0.91368 0.87014 0.0
H438 H 0.6179 0.56465 0.88435 0.0
H439 H 0.5024 0.77832 0.83796 0.0
H440 H 0.43474 0.69861 0.87591 0.0
H441 H 0.49237 0.59076 0.89934 0.0
H442 H 0.68391 0.64628 0.84683 0.0
H443 H 0.45346 0.68376 0.73663 0.0
H444 H 0.41333 0.80152 0.71599 0.0
O445 O 0.60854 0.86261 0.83668 0.0
C446 C 0.75467 0.89694 0.78725 0.0
C447 C 0.49247 0.85888 0.74467 0.0
C448 C 0.48033 0.73161 0.745 0.0
N449 N 0.57168 0.78791 0.77848 0.0
C450 C 0.54961 0.85291 0.76732 0.0
C451 C 0.53765 0.72774 0.76766 0.0
C452 C 0.45772 0.79773 0.73347 0.0
C453 C 0.87287 0.73736 0.86687 0.0
N454 N 0.86833 0.80572 0.85549 0.0
C455 C 0.93604 0.69918 0.86352 0.0
C456 C 0.99523 0.73185 0.84893 0.0
C457 C 0.99049 0.80186 0.83778 0.0
C458 C 0.92605 0.83788 0.84095 0.0
C459 C 0.92361 0.98453 0.91868 0.0
C460 C 0.8246 1.00443 0.86712 0.0
C461 C 0.88263 0.92811 0.90634 0.0
N462 N 0.83402 0.93835 0.88074 0.0
C463 C 0.86477 0.06207 0.87876 0.0
C464 C 0.91468 0.05188 0.90467 0.0
C465 C 0.62828 0.90957 0.8582 0.0
C466 C 0.59199 0.61121 0.87408 0.0
C467 C 0.52802 0.73157 0.84802 0.0
C468 C 0.48931 0.6865 0.86946 0.0
C469 C 0.52165 0.62593 0.88255 0.0
N470 N 0.59691 0.71661 0.83955 0.0
C471 C 0.62903 0.65747 0.85251 0.0
C472 C 0.29524 0.33187 0.00913 0.0
C473 C 0.27644 0.27483 0.03072 0.0
C474 C 0.3108 0.32068 0.9742 0.0
C475 C 0.30717 0.25233 0.95991 0.0
H476 H 0.29501 0.38577 0.01883 0.0
H477 H 0.32207 0.36597 0.95799 0.0
S478 S 0.27228 0.08411 0.00592 0.0
N479 N 0.26517 0.14623 0.03564 0.0
N480 N 0.29136 0.12642 0.97004 0.0
C481 C 0.29278 0.19468 0.98145 0.0
C482 C 0.2783 0.20561 0.0169 0.0
C483 C 0.26812 0.71451 0.50938 0.0
C484 C 0.22185 0.75684 0.52894 0.0
C485 C 0.28131 0.72893 0.47488 0.0
C486 C 0.24952 0.78697 0.45825 0.0
H487 H 0.29498 0.66965 0.52084 0.0
H488 H 0.31831 0.69479 0.46147 0.0
S489 S 0.12088 0.91241 0.49753 0.0
N490 N 0.14129 0.85744 0.529 0.0
N491 N 0.16675 0.88553 0.46375 0.0
C492 C 0.20147 0.82894 0.4772 0.0
C493 C 0.18737 0.81356 0.51258 0.0
C494 C 0.79203 0.79011 0.01569 0.0
C495 C 0.75525 0.73433 0.03189 0.0
C496 C 0.77974 0.80724 0.98139 0.0
C497 C 0.72947 0.77005 0.96162 0.0
H498 H 0.83207 0.82035 0.02932 0.0
H499 H 0.81027 0.85027 0.97031 0.0
S500 S 0.61611 0.62146 0.99179 0.0
N501 N 0.66451 0.64295 0.02565 0.0
N502 N 0.64076 0.67608 0.96085 0.0
C503 C 0.69067 0.7153 0.9775 0.0
C504 C 0.70382 0.69713 0.01264 0.0
C505 C 0.78855 0.19378 0.48211 0.0
C506 C 0.76632 0.25046 0.46109 0.0
C507 C 0.80584 0.20479 0.51687 0.0
C508 C 0.80071 0.27261 0.53161 0.0
H509 H 0.79004 0.14016 0.47208 0.0
H510 H 0.81971 0.15962 0.53264 0.0
S511 S 0.75592 0.44018 0.4872 0.0
N512 N 0.74938 0.37851 0.45722 0.0
N513 N 0.77913 0.39791 0.52248 0.0
C514 C 0.78258 0.33005 0.51063 0.0
C515 C 0.76618 0.31932 0.47535 0.0
C516 C 0.43296 0.31108 0.25554 0.0
C517 C 0.42641 0.27154 0.22504 0.0
C518 C 0.49567 0.31009 0.27492 0.0
C519 C 0.55527 0.26989 0.26465 0.0
H520 H 0.38856 0.34181 0.26511 0.0
H521 H 0.49625 0.33956 0.29882 0.0
S522 S 0.56957 0.16665 0.18352 0.0
N523 N 0.48736 0.19694 0.18344 0.0
N524 N 0.60603 0.19695 0.2192 0.0
C525 C 0.55101 0.23392 0.23292 0.0
C526 C 0.48643 0.23397 0.21342 0.0
C527 C 0.21085 0.95639 0.74921 0.0
C528 C 0.26019 0.93557 0.72402 0.0
C529 C 0.21818 0.02056 0.76722 0.0
C530 C 0.27537 0.06771 0.76117 0.0
H531 H 0.16645 0.92228 0.75565 0.0
H532 H 0.17926 0.03205 0.78693 0.0
S533 S 0.41553 0.04246 0.69513 0.0
N534 N 0.36569 0.97053 0.69189 0.0
N535 N 0.3793 0.09087 0.72584 0.0
C536 C 0.32336 0.04928 0.73486 0.0
C537 C 0.31601 0.98341 0.71644 0.0
C538 C 0.47113 0.74519 0.23734 0.0
C539 C 0.46342 0.79588 0.26359 0.0
C540 C 0.53824 0.73174 0.22237 0.0
C541 C 0.60023 0.76814 0.2332 0.0
H542 H 0.42599 0.7132 0.22962 0.0
H543 H 0.54189 0.69111 0.20273 0.0
S544 S 0.60785 0.90374 0.30233 0.0
N545 N 0.52288 0.88303 0.29946 0.0
N546 N 0.64842 0.85543 0.27284 0.0
C547 C 0.59249 0.81976 0.25902 0.0
C548 C 0.52435 0.83407 0.27379 0.0
C549 C 0.72046 0.04831 0.72423 0.0
C550 C 0.78099 0.09207 0.72821 0.0
C551 C 0.71428 0.98247 0.74121 0.0
C552 C 0.76846 0.95708 0.7629 0.0
H553 H 0.67669 0.06541 0.70826 0.0
H554 H 0.66532 0.95287 0.73837 0.0
S555 S 0.9413 0.04691 0.77938 0.0
N556 N 0.89794 0.10218 0.75427 0.0
N557 N 0.88765 0.97858 0.78463 0.0
C558 C 0.83069 0.99864 0.76561 0.0
C559 C 0.83654 0.06592 0.74881 0.0
C560 C 0.98745 0.28051 0.27664 0.0
C561 C 0.92537 0.24519 0.26576 0.0
C562 C 0.04952 0.28078 0.2564 0.0
C563 C 0.05193 0.24653 0.22415 0.0
H564 H 0.9883 0.30813 0.30105 0.0
H565 H 0.09523 0.30982 0.2658 0.0
S566 S 0.90303 0.1462 0.18406 0.0
N567 N 0.8702 0.17491 0.22075 0.0
N568 N 0.98601 0.17405 0.1832 0.0
C569 C 0.99042 0.20943 0.21355 0.0
C570 C 0.92745 0.20934 0.23409 0.0
C571 C 0.21385 0.54772 0.75273 0.0
C572 C 0.26345 0.56765 0.72735 0.0
C573 C 0.22 0.48281 0.77064 0.0
C574 C 0.2757 0.43454 0.76382 0.0
H575 H 0.16851 0.58123 0.75807 0.0
H576 H 0.1802 0.47021 0.78977 0.0
S577 S 0.42106 0.46172 0.70059 0.0
N578 N 0.37277 0.53428 0.69808 0.0
N579 N 0.38126 0.41218 0.72961 0.0
C580 C 0.32589 0.45429 0.73881 0.0
C581 C 0.32066 0.5207 0.72128 0.0
C582 C 0.03776 0.78168 0.26844 0.0
C583 C 0.09866 0.74274 0.25847 0.0
C584 C 0.97035 0.76881 0.25361 0.0
C585 C 0.96113 0.71615 0.22837 0.0
H586 H 0.04254 0.82382 0.28726 0.0
H587 H 0.92623 0.80271 0.26059 0.0
S588 S 0.10254 0.60218 0.19168 0.0
N589 N 0.14434 0.65116 0.22055 0.0
N590 N 0.01827 0.62547 0.1939 0.0
C591 C 0.02098 0.67582 0.2189 0.0
C592 C 0.08944 0.68931 0.23362 0.0
C593 C 0.81451 0.48083 0.75366 0.0
C594 C 0.76227 0.45796 0.73014 0.0
C595 C 0.80875 0.54641 0.77106 0.0
C596 C 0.75059 0.59238 0.76573 0.0
H597 H 0.8617 0.44928 0.75776 0.0
H598 H 0.85096 0.5615 0.78852 0.0
S599 S 0.59662 0.55589 0.70857 0.0
N600 N 0.64749 0.4853 0.70465 0.0
N601 N 0.63864 0.60839 0.73571 0.0
C602 C 0.69714 0.56916 0.74302 0.0
C603 C 0.70237 0.50217 0.72581 0.0
C604 C 0.99483 0.54279 0.10755 0.0
C605 C 0.93486 0.53235 0.12881 0.0
C606 C 0.05076 0.49328 0.10674 0.0
C607 C 0.04792 0.43166 0.12684 0.0
H608 H 1.00064 0.59122 0.09292 0.0
H609 H 0.09781 0.50497 0.09173 0.0
S610 S 0.90177 0.37487 0.18417 0.0
N611 N 0.87484 0.45086 0.16791 0.0
N612 N 0.98064 0.36081 0.16717 0.0
C613 C 0.9874 0.41879 0.14671 0.0
C614 C 0.9305 0.4682 0.14736 0.0
C615 C 0.93639 0.53433 0.63278 0.0
C616 C 0.95323 0.46344 0.62544 0.0
C617 C 0.98932 0.58682 0.63331 0.0
C618 C 0.061 0.57062 0.6261 0.0
H619 H 0.88303 0.54847 0.64063 0.0
H620 H 0.97428 0.63984 0.64108 0.0
S621 S 0.12943 0.39403 0.59976 0.0
N622 N 0.04401 0.38063 0.60697 0.0
N623 N 0.14341 0.47927 0.60707 0.0
C624 C 0.077 0.50083 0.61572 0.0
C625 C 0.02317 0.4472 0.61575 0.0
C626 C 0.54659 0.02711 0.38499 0.0
C627 C 0.54365 0.08873 0.36486 0.0
C628 C 0.49182 0.97608 0.38346 0.0
C629 C 0.43312 0.98452 0.36123 0.0
H630 H 0.59287 0.01678 0.4007 0.0
H631 H 0.49762 0.92807 0.3984 0.0
S632 S 0.40127 0.13988 0.30437 0.0
N633 N 0.47797 0.15687 0.32303 0.0
N634 N 0.3749 0.06332 0.32039 0.0
C635 C 0.42893 0.04816 0.34225 0.0
C636 C 0.4844 0.09947 0.34388 0.0
C637 C 0.45023 1.0008 0.86686 0.0
C638 C 0.46886 0.07306 0.86662 0.0
C639 C 0.50249 0.9479 0.86667 0.0
C640 C 0.57537 0.96511 0.86685 0.0
H641 H 0.39513 0.98484 0.8647 0.0
H642 H 0.48559 0.89311 0.86475 0.0
S643 S 0.65145 0.14649 0.87238 0.0
N644 N 0.56472 0.159 0.87106 0.0
N645 N 0.66287 0.0597 0.8711 0.0
C646 C 0.59443 0.03701 0.8698 0.0
C647 C 0.54119 0.09094 0.8695 0.0
loop_
_geom_bond_atom_site_label_1
_geom_bond_atom_site_label_2
_geom_bond_distance
_geom_bond_site_symmetry_2
_ccdc_geom_bond_type
Co0 O2 2.143 . S
Co0 O8 2.074 . S
Co0 O11 2.093 . S
Co0 O24 2.097 . S
Co0 N41 2.151 . S
Co0 N49 2.214 . S
Co1 O2 2.160 . S
Co1 O7 2.058 . S
Co1 O17 2.057 . S
Co1 O32 2.037 . S
Co1 N36 2.145 . S
Co1 N57 2.257 . S
O2 Co0 2.143 . S
O2 Co1 2.160 . S
C3 O4 1.278 . S
C3 O11 1.224 . S
O4 C3 1.278 . S
C5 O6 1.245 . S
C5 O17 1.232 . S
O6 C5 1.245 . S
O7 Co1 2.058 . S
O7 C33 1.269 . S
O8 Co0 2.074 . S
O8 C33 1.257 . S
H9 C34 0.930 . S
H10 C40 0.930 . S
O11 Co0 2.093 . S
O11 C3 1.224 . S
H12 C44 0.929 . S
H13 C46 0.930 . S
H14 C47 0.930 . S
H15 C45 0.929 . S
H16 C48 0.928 . S
O17 Co1 2.057 . S
O17 C5 1.232 . S
H18 C37 0.929 . S
H19 C38 0.929 . S
H20 C50 0.931 . S
H21 C42 0.929 . S
H22 C51 0.930 . S
H23 C43 0.931 1_565 S
O24 Co0 2.097 . S
O24 C52 1.214 . S
H25 C53 0.929 . S
H26 C54 0.929 . S
H27 C55 0.930 . S
H28 C56 0.929 . S
H29 C58 0.930 . S
H30 C35 0.930 . S
H31 C39 0.930 . S
O32 Co1 2.037 . S
O32 C52 1.234 . S
C33 O7 1.269 . S
C33 O8 1.257 . S
C34 H9 0.930 . S
C34 C37 1.388 . S
C34 C39 1.418 . S
C35 H30 0.930 . S
C35 C38 1.404 . S
C35 C39 1.353 . S
N36 Co1 2.145 . S
N36 C37 1.397 . S
N36 C38 1.334 . S
C37 H18 0.929 . S
C37 C34 1.388 . S
C37 N36 1.397 . S
C38 H19 0.929 . S
C38 C35 1.404 . S
C38 N36 1.334 . S
C39 H31 0.930 . S
C39 C34 1.418 . S
C39 C35 1.353 . S
C40 H10 0.930 . S
C40 N41 1.330 . S
C40 C42 1.446 . S
N41 Co0 2.151 . S
N41 C40 1.330 . S
N41 C45 1.418 . S
C42 H21 0.929 . S
C42 C40 1.446 . S
C42 C43 1.332 . S
C43 H23 0.931 1_545 S
C43 C42 1.332 . S
C43 C44 1.267 . S
C44 H12 0.929 . S
C44 C43 1.267 . S
C44 C45 1.251 . S
C45 H15 0.929 . S
C45 N41 1.418 . S
C45 C44 1.251 . S
C46 H13 0.930 . S
C46 C48 1.406 1_655 S
C46 C51 1.261 . S
C47 H14 0.930 . S
C47 N49 1.325 1_655 S
C47 C50 1.357 . S
C48 H16 0.928 . S
C48 C46 1.406 1_455 S
C48 N49 1.261 . S
N49 Co0 2.214 . S
N49 C47 1.325 1_455 S
N49 C48 1.261 . S
C50 H20 0.931 . S
C50 C47 1.357 . S
C50 C51 1.312 . S
C51 H22 0.930 . S
C51 C46 1.261 . S
C51 C50 1.312 . S
C52 O24 1.214 . S
C52 O32 1.234 . S
C53 H25 0.929 . S
C53 C56 1.391 . S
C53 C58 1.391 . S
C54 H26 0.929 . S
C54 C55 1.390 . S
C54 N57 1.391 . S
C55 H27 0.930 . S
C55 C54 1.390 . S
C55 C56 1.392 . S
C56 H28 0.929 . S
C56 C53 1.391 . S
C56 C55 1.392 . S
N57 Co1 2.257 . S
N57 C54 1.391 . S
N57 C58 1.388 . S
C58 H29 0.930 . S
C58 C53 1.391 . S
C58 N57 1.388 . S
Co59 O61 2.143 . S
Co59 O67 2.074 . S
Co59 O70 2.093 . S
Co59 O83 2.097 . S
Co59 N100 2.151 . S
Co59 N108 2.214 . S
Co60 O61 2.160 . S
Co60 O66 2.058 . S
Co60 O76 2.057 . S
Co60 O91 2.037 . S
Co60 N95 2.145 . S
Co60 N116 2.257 . S
O61 Co59 2.143 . S
O61 Co60 2.160 . S
C62 O63 1.278 . S
C62 O70 1.224 . S
O63 C62 1.278 . S
C64 O65 1.245 . S
C64 O76 1.232 . S
O65 C64 1.245 . S
O66 Co60 2.058 . S
O66 C92 1.269 . S
O67 Co59 2.074 . S
O67 C92 1.257 . S
H68 C93 0.930 . S
H69 C99 0.930 . S
O70 Co59 2.093 . S
O70 C62 1.224 . S
H71 C103 0.929 . S
H72 C105 0.930 . S
H73 C106 0.930 . S
H74 C104 0.929 . S
H75 C107 0.928 . S
O76 Co60 2.057 . S
O76 C64 1.232 . S
H77 C96 0.929 . S
H78 C97 0.929 . S
H79 C109 0.931 . S
H80 C101 0.929 . S
H81 C110 0.930 . S
H82 C102 0.931 . S
O83 Co59 2.097 . S
O83 C111 1.214 . S
H84 C112 0.929 . S
H85 C113 0.929 . S
H86 C114 0.930 . S
H87 C115 0.929 . S
H88 C117 0.930 . S
H89 C94 0.930 . S
H90 C98 0.930 . S
O91 Co60 2.037 . S
O91 C111 1.234 . S
C92 O66 1.269 . S
C92 O67 1.257 . S
C93 H68 0.930 . S
C93 C96 1.388 1_655 S
C93 C98 1.418 . S
C94 H89 0.930 . S
C94 C97 1.404 . S
C94 C98 1.353 1_455 S
N95 Co60 2.145 . S
N95 C96 1.397 . S
N95 C97 1.334 . S
C96 H77 0.929 . S
C96 C93 1.388 1_455 S
C96 N95 1.397 . S
C97 H78 0.929 . S
C97 C94 1.404 . S
C97 N95 1.334 . S
C98 H90 0.930 . S
C98 C93 1.418 . S
C98 C94 1.353 1_655 S
C99 H69 0.930 . S
C99 N100 1.330 . S
C99 C101 1.446 . S
N100 Co59 2.151 . S
N100 C99 1.330 . S
N100 C104 1.418 . S
C101 H80 0.929 . S
C101 C99 1.446 . S
C101 C102 1.332 . S
C102 H82 0.931 . S
C102 C101 1.332 . S
C102 C103 1.267 . S
C103 H71 0.929 . S
C103 C102 1.267 . S
C103 C104 1.251 . S
C104 H74 0.929 . S
C104 N100 1.418 . S
C104 C103 1.251 . S
C105 H72 0.930 . S
C105 C107 1.406 . S
C105 C110 1.261 . S
C106 H73 0.930 . S
C106 N108 1.325 . S
C106 C109 1.357 . S
C107 H75 0.928 . S
C107 C105 1.406 . S
C107 N108 1.261 . S
N108 Co59 2.214 . S
N108 C106 1.325 . S
N108 C107 1.261 . S
C109 H79 0.931 . S
C109 C106 1.357 . S
C109 C110 1.312 . S
C110 H81 0.930 . S
C110 C105 1.261 . S
C110 C109 1.312 . S
C111 O83 1.214 . S
C111 O91 1.234 . S
C112 H84 0.929 . S
C112 C115 1.391 1_455 S
C112 C117 1.391 . S
C113 H85 0.929 . S
C113 C114 1.390 . S
C113 N116 1.391 1_655 S
C114 H86 0.930 . S
C114 C113 1.390 . S
C114 C115 1.392 . S
C115 H87 0.929 . S
C115 C112 1.391 1_655 S
C115 C114 1.392 . S
N116 Co60 2.257 . S
N116 C113 1.391 1_455 S
N116 C117 1.388 . S
C117 H88 0.930 . S
C117 C112 1.391 . S
C117 N116 1.388 . S
Co118 O120 2.143 . S
Co118 O126 2.074 . S
Co118 O129 2.093 . S
Co118 O142 2.097 . S
Co118 N159 2.151 . S
Co118 N167 2.214 . S
Co119 O120 2.160 . S
Co119 O125 2.058 . S
Co119 O135 2.057 . S
Co119 O150 2.037 . S
Co119 N154 2.145 . S
Co119 N175 2.257 . S
O120 Co118 2.143 . S
O120 Co119 2.160 . S
C121 O122 1.278 . S
C121 O129 1.224 . S
O122 C121 1.278 . S
C123 O124 1.245 . S
C123 O135 1.232 . S
O124 C123 1.245 . S
O125 Co119 2.058 . S
O125 C151 1.269 . S
O126 Co118 2.074 . S
O126 C151 1.257 . S
H127 C152 0.930 . S
H128 C158 0.930 . S
O129 Co118 2.093 . S
O129 C121 1.224 . S
H130 C162 0.929 . S
H131 C164 0.930 . S
H132 C165 0.930 . S
H133 C163 0.929 . S
H134 C166 0.928 . S
O135 Co119 2.057 . S
O135 C123 1.232 . S
H136 C155 0.929 . S
H137 C156 0.929 . S
H138 C168 0.931 . S
H139 C160 0.929 . S
H140 C169 0.930 . S
H141 C161 0.931 1_545 S
O142 Co118 2.097 . S
O142 C170 1.214 . S
H143 C171 0.929 . S
H144 C172 0.929 . S
H145 C173 0.930 . S
H146 C174 0.929 . S
H147 C176 0.930 . S
H148 C153 0.930 . S
H149 C157 0.930 . S
O150 Co119 2.037 . S
O150 C170 1.234 . S
C151 O125 1.269 . S
C151 O126 1.257 . S
C152 H127 0.930 . S
C152 C155 1.388 . S
C152 C157 1.418 . S
C153 H148 0.930 . S
C153 C156 1.404 . S
C153 C157 1.353 . S
N154 Co119 2.145 . S
N154 C155 1.397 . S
N154 C156 1.334 . S
C155 H136 0.929 . S
C155 C152 1.388 . S
C155 N154 1.397 . S
C156 H137 0.929 . S
C156 C153 1.404 . S
C156 N154 1.334 . S
C157 H149 0.930 . S
C157 C152 1.418 . S
C157 C153 1.353 . S
C158 H128 0.930 . S
C158 N159 1.330 . S
C158 C160 1.446 . S
N159 Co118 2.151 . S
N159 C158 1.330 . S
N159 C163 1.418 . S
C160 H139 0.929 . S
C160 C158 1.446 . S
C160 C161 1.332 . S
C161 H141 0.931 1_565 S
C161 C160 1.332 . S
C161 C162 1.267 . S
C162 H130 0.929 . S
C162 C161 1.267 . S
C162 C163 1.251 . S
C163 H133 0.929 . S
C163 N159 1.418 . S
C163 C162 1.251 . S
C164 H131 0.930 . S
C164 C166 1.406 1_455 S
C164 C169 1.261 . S
C165 H132 0.930 . S
C165 N167 1.325 1_455 S
C165 C168 1.357 . S
C166 H134 0.928 . S
C166 C164 1.406 1_655 S
C166 N167 1.261 . S
N167 Co118 2.214 . S
N167 C165 1.325 1_655 S
N167 C166 1.261 . S
C168 H138 0.931 . S
C168 C165 1.357 . S
C168 C169 1.312 . S
C169 H140 0.930 . S
C169 C164 1.261 . S
C169 C168 1.312 . S
C170 O142 1.214 . S
C170 O150 1.234 . S
C171 H143 0.929 . S
C171 C174 1.391 . S
C171 C176 1.391 . S
C172 H144 0.929 . S
C172 C173 1.390 . S
C172 N175 1.391 . S
C173 H145 0.930 . S
C173 C172 1.390 . S
C173 C174 1.392 . S
C174 H146 0.929 . S
C174 C171 1.391 . S
C174 C173 1.392 . S
N175 Co119 2.257 . S
N175 C172 1.391 . S
N175 C176 1.388 . S
C176 H147 0.930 . S
C176 C171 1.391 . S
C176 N175 1.388 . S
Co177 O179 2.143 . S
Co177 O185 2.074 . S
Co177 O188 2.093 . S
Co177 O201 2.097 . S
Co177 N218 2.151 . S
Co177 N226 2.214 . S
Co178 O179 2.160 . S
Co178 O184 2.058 . S
Co178 O194 2.057 . S
Co178 O209 2.037 . S
Co178 N213 2.145 . S
Co178 N234 2.257 . S
O179 Co177 2.143 . S
O179 Co178 2.160 . S
C180 O181 1.278 . S
C180 O188 1.224 . S
O181 C180 1.278 . S
C182 O183 1.245 . S
C182 O194 1.232 . S
O183 C182 1.245 . S
O184 Co178 2.058 . S
O184 C210 1.269 . S
O185 Co177 2.074 . S
O185 C210 1.257 . S
H186 C211 0.930 . S
H187 C217 0.930 . S
O188 Co177 2.093 . S
O188 C180 1.224 . S
H189 C221 0.929 . S
H190 C223 0.930 . S
H191 C224 0.930 . S
H192 C222 0.929 . S
H193 C225 0.928 . S
O194 Co178 2.057 . S
O194 C182 1.232 . S
H195 C214 0.929 . S
H196 C215 0.929 . S
H197 C227 0.931 . S
H198 C219 0.929 . S
H199 C228 0.930 . S
H200 C220 0.931 . S
O201 Co177 2.097 . S
O201 C229 1.214 . S
H202 C230 0.929 . S
H203 C231 0.929 . S
H204 C232 0.930 . S
H205 C233 0.929 . S
H206 C235 0.930 . S
H207 C212 0.930 . S
H208 C216 0.930 . S
O209 Co178 2.037 . S
O209 C229 1.234 . S
C210 O184 1.269 . S
C210 O185 1.257 . S
C211 H186 0.930 . S
C211 C214 1.388 1_455 S
C211 C216 1.418 . S
C212 H207 0.930 . S
C212 C215 1.404 . S
C212 C216 1.353 1_655 S
N213 Co178 2.145 . S
N213 C214 1.397 . S
N213 C215 1.334 . S
C214 H195 0.929 . S
C214 C211 1.388 1_655 S
C214 N213 1.397 . S
C215 H196 0.929 . S
C215 C212 1.404 . S
C215 N213 1.334 . S
C216 H208 0.930 . S
C216 C211 1.418 . S
C216 C212 1.353 1_455 S
C217 H187 0.930 . S
C217 N218 1.330 . S
C217 C219 1.446 . S
N218 Co177 2.151 . S
N218 C217 1.330 . S
N218 C222 1.418 . S
C219 H198 0.929 . S
C219 C217 1.446 . S
C219 C220 1.332 . S
C220 H200 0.931 . S
C220 C219 1.332 . S
C220 C221 1.267 . S
C221 H189 0.929 . S
C221 C220 1.267 . S
C221 C222 1.251 . S
C222 H192 0.929 . S
C222 N218 1.418 . S
C222 C221 1.251 . S
C223 H190 0.930 . S
C223 C225 1.406 . S
C223 C228 1.261 . S
C224 H191 0.930 . S
C224 N226 1.325 . S
C224 C227 1.357 . S
C225 H193 0.928 . S
C225 C223 1.406 . S
C225 N226 1.261 . S
N226 Co177 2.214 . S
N226 C224 1.325 . S
N226 C225 1.261 . S
C227 H197 0.931 . S
C227 C224 1.357 . S
C227 C228 1.312 . S
C228 H199 0.930 . S
C228 C223 1.261 . S
C228 C227 1.312 . S
C229 O201 1.214 . S
C229 O209 1.234 . S
C230 H202 0.929 . S
C230 C233 1.391 1_655 S
C230 C235 1.391 . S
C231 H203 0.929 . S
C231 C232 1.390 . S
C231 N234 1.391 1_455 S
C232 H204 0.930 . S
C232 C231 1.390 . S
C232 C233 1.392 . S
C233 H205 0.929 . S
C233 C230 1.391 1_455 S
C233 C232 1.392 . S
N234 Co178 2.257 . S
N234 C231 1.391 1_655 S
N234 C235 1.388 . S
C235 H206 0.930 . S
C235 C230 1.391 . S
C235 N234 1.388 . S
Co236 O238 2.143 . S
Co236 O244 2.074 . S
Co236 O247 2.093 . S
Co236 O260 2.097 . S
Co236 N277 2.151 . S
Co236 N285 2.214 . S
Co237 O238 2.160 . S
Co237 O243 2.058 . S
Co237 O253 2.057 . S
Co237 O268 2.037 . S
Co237 N272 2.145 . S
Co237 N293 2.257 . S
O238 Co236 2.143 . S
O238 Co237 2.160 . S
C239 O240 1.278 . S
C239 O247 1.224 . S
O240 C239 1.278 . S
C241 O242 1.245 . S
C241 O253 1.232 . S
O242 C241 1.245 . S
O243 Co237 2.058 . S
O243 C269 1.269 . S
O244 Co236 2.074 . S
O244 C269 1.257 . S
H245 C270 0.930 . S
H246 C276 0.930 . S
O247 Co236 2.093 . S
O247 C239 1.224 . S
H248 C280 0.929 . S
H249 C282 0.930 . S
H250 C283 0.930 . S
H251 C281 0.929 . S
H252 C284 0.928 . S
O253 Co237 2.057 . S
O253 C241 1.232 . S
H254 C273 0.929 . S
H255 C274 0.929 . S
H256 C286 0.931 . S
H257 C278 0.929 . S
H258 C287 0.930 . S
H259 C279 0.931 . S
O260 Co236 2.097 . S
O260 C288 1.214 . S
H261 C289 0.929 . S
H262 C290 0.929 . S
H263 C291 0.930 . S
H264 C292 0.929 . S
H265 C294 0.930 . S
H266 C271 0.930 . S
H267 C275 0.930 . S
O268 Co237 2.037 . S
O268 C288 1.234 . S
C269 O243 1.269 . S
C269 O244 1.257 . S
C270 H245 0.930 . S
C270 C273 1.388 1_565 S
C270 C275 1.418 . S
C271 H266 0.930 . S
C271 C274 1.404 . S
C271 C275 1.353 1_545 S
N272 Co237 2.145 . S
N272 C273 1.397 . S
N272 C274 1.334 . S
C273 H254 0.929 . S
C273 C270 1.388 1_545 S
C273 N272 1.397 . S
C274 H255 0.929 . S
C274 C271 1.404 . S
C274 N272 1.334 . S
C275 H267 0.930 . S
C275 C270 1.418 . S
C275 C271 1.353 1_565 S
C276 H246 0.930 . S
C276 N277 1.330 . S
C276 C278 1.446 . S
N277 Co236 2.151 . S
N277 C276 1.330 . S
N277 C281 1.418 . S
C278 H257 0.929 . S
C278 C276 1.446 . S
C278 C279 1.332 . S
C279 H259 0.931 . S
C279 C278 1.332 . S
C279 C280 1.267 . S
C280 H248 0.929 . S
C280 C279 1.267 . S
C280 C281 1.251 . S
C281 H251 0.929 . S
C281 N277 1.418 . S
C281 C280 1.251 . S
C282 H249 0.930 . S
C282 C284 1.406 . S
C282 C287 1.261 . S
C283 H250 0.930 . S
C283 N285 1.325 . S
C283 C286 1.357 . S
C284 H252 0.928 . S
C284 C282 1.406 . S
C284 N285 1.261 . S
N285 Co236 2.214 . S
N285 C283 1.325 . S
N285 C284 1.261 . S
C286 H256 0.931 . S
C286 C283 1.357 . S
C286 C287 1.312 . S
C287 H258 0.930 . S
C287 C282 1.261 . S
C287 C286 1.312 . S
C288 O260 1.214 . S
C288 O268 1.234 . S
C289 H261 0.929 . S
C289 C292 1.391 1_545 S
C289 C294 1.391 . S
C290 H262 0.929 . S
C290 C291 1.390 . S
C290 N293 1.391 1_565 S
C291 H263 0.930 . S
C291 C290 1.390 . S
C291 C292 1.392 . S
C292 H264 0.929 . S
C292 C289 1.391 1_565 S
C292 C291 1.392 . S
N293 Co237 2.257 . S
N293 C290 1.391 1_545 S
N293 C294 1.388 . S
C294 H265 0.930 . S
C294 C289 1.391 . S
C294 N293 1.388 . S
Co295 O297 2.143 . S
Co295 O303 2.074 . S
Co295 O306 2.093 . S
Co295 O319 2.097 . S
Co295 N336 2.151 . S
Co295 N344 2.214 . S
Co296 O297 2.160 . S
Co296 O302 2.058 . S
Co296 O312 2.057 . S
Co296 O327 2.037 . S
Co296 N331 2.145 . S
Co296 N352 2.257 . S
O297 Co295 2.143 . S
O297 Co296 2.160 . S
C298 O299 1.278 . S
C298 O306 1.224 . S
O299 C298 1.278 . S
C300 O301 1.245 . S
C300 O312 1.232 . S
O301 C300 1.245 . S
O302 Co296 2.058 . S
O302 C328 1.269 . S
O303 Co295 2.074 . S
O303 C328 1.257 . S
H304 C329 0.930 . S
H305 C335 0.930 . S
O306 Co295 2.093 . S
O306 C298 1.224 . S
H307 C339 0.929 . S
H308 C341 0.930 . S
H309 C342 0.930 . S
H310 C340 0.929 . S
H311 C343 0.928 . S
O312 Co296 2.057 . S
O312 C300 1.232 . S
H313 C332 0.929 . S
H314 C333 0.929 . S
H315 C345 0.931 . S
H316 C337 0.929 . S
H317 C346 0.930 . S
H318 C338 0.931 1_655 S
O319 Co295 2.097 . S
O319 C347 1.214 . S
H320 C348 0.929 . S
H321 C349 0.929 . S
H322 C350 0.930 . S
H323 C351 0.929 . S
H324 C353 0.930 . S
H325 C330 0.930 . S
H326 C334 0.930 . S
O327 Co296 2.037 . S
O327 C347 1.234 . S
C328 O302 1.269 . S
C328 O303 1.257 . S
C329 H304 0.930 . S
C329 C332 1.388 . S
C329 C334 1.418 . S
C330 H325 0.930 . S
C330 C333 1.404 . S
C330 C334 1.353 . S
N331 Co296 2.145 . S
N331 C332 1.397 . S
N331 C333 1.334 . S
C332 H313 0.929 . S
C332 C329 1.388 . S
C332 N331 1.397 . S
C333 H314 0.929 . S
C333 C330 1.404 . S
C333 N331 1.334 . S
C334 H326 0.930 . S
C334 C329 1.418 . S
C334 C330 1.353 . S
C335 H305 0.930 . S
C335 N336 1.330 . S
C335 C337 1.446 . S
N336 Co295 2.151 . S
N336 C335 1.330 . S
N336 C340 1.418 . S
C337 H316 0.929 . S
C337 C335 1.446 . S
C337 C338 1.332 . S
C338 H318 0.931 1_455 S
C338 C337 1.332 . S
C338 C339 1.267 . S
C339 H307 0.929 . S
C339 C338 1.267 . S
C339 C340 1.251 . S
C340 H310 0.929 . S
C340 N336 1.418 . S
C340 C339 1.251 . S
C341 H308 0.930 . S
C341 C343 1.406 1_565 S
C341 C346 1.261 . S
C342 H309 0.930 . S
C342 N344 1.325 1_565 S
C342 C345 1.357 . S
C343 H311 0.928 . S
C343 C341 1.406 1_545 S
C343 N344 1.261 . S
N344 Co295 2.214 . S
N344 C342 1.325 1_545 S
N344 C343 1.261 . S
C345 H315 0.931 . S
C345 C342 1.357 . S
C345 C346 1.312 . S
C346 H317 0.930 . S
C346 C341 1.261 . S
C346 C345 1.312 . S
C347 O319 1.214 . S
C347 O327 1.234 . S
C348 H320 0.929 . S
C348 C351 1.391 . S
C348 C353 1.391 . S
C349 H321 0.929 . S
C349 C350 1.390 . S
C349 N352 1.391 . S
C350 H322 0.930 . S
C350 C349 1.390 . S
C350 C351 1.392 . S
C351 H323 0.929 . S
C351 C348 1.391 . S
C351 C350 1.392 . S
N352 Co296 2.257 . S
N352 C349 1.391 . S
N352 C353 1.388 . S
C353 H324 0.930 . S
C353 C348 1.391 . S
C353 N352 1.388 . S
Co354 O356 2.143 . S
Co354 O362 2.074 . S
Co354 O365 2.093 . S
Co354 O378 2.097 . S
Co354 N395 2.151 . S
Co354 N403 2.214 . S
Co355 O356 2.160 . S
Co355 O361 2.058 . S
Co355 O371 2.057 . S
Co355 O386 2.037 . S
Co355 N390 2.145 . S
Co355 N411 2.257 . S
O356 Co354 2.143 . S
O356 Co355 2.160 . S
C357 O358 1.278 . S
C357 O365 1.224 . S
O358 C357 1.278 . S
C359 O360 1.245 . S
C359 O371 1.232 . S
O360 C359 1.245 . S
O361 Co355 2.058 . S
O361 C387 1.269 . S
O362 Co354 2.074 . S
O362 C387 1.257 . S
H363 C388 0.930 . S
H364 C394 0.930 . S
O365 Co354 2.093 . S
O365 C357 1.224 . S
H366 C398 0.929 . S
H367 C400 0.930 . S
H368 C401 0.930 . S
H369 C399 0.929 . S
H370 C402 0.928 . S
O371 Co355 2.057 . S
O371 C359 1.232 . S
H372 C391 0.929 . S
H373 C392 0.929 . S
H374 C404 0.931 . S
H375 C396 0.929 . S
H376 C405 0.930 . S
H377 C397 0.931 . S
O378 Co354 2.097 . S
O378 C406 1.214 . S
H379 C407 0.929 . S
H380 C408 0.929 . S
H381 C409 0.930 . S
H382 C410 0.929 . S
H383 C412 0.930 . S
H384 C389 0.930 . S
H385 C393 0.930 . S
O386 Co355 2.037 . S
O386 C406 1.234 . S
C387 O361 1.269 . S
C387 O362 1.257 . S
C388 H363 0.930 . S
C388 C391 1.388 1_545 S
C388 C393 1.418 . S
C389 H384 0.930 . S
C389 C392 1.404 . S
C389 C393 1.353 1_565 S
N390 Co355 2.145 . S
N390 C391 1.397 . S
N390 C392 1.334 . S
C391 H372 0.929 . S
C391 C388 1.388 1_565 S
C391 N390 1.397 . S
C392 H373 0.929 . S
C392 C389 1.404 . S
C392 N390 1.334 . S
C393 H385 0.930 . S
C393 C388 1.418 . S
C393 C389 1.353 1_545 S
C394 H364 0.930 . S
C394 N395 1.330 . S
C394 C396 1.446 . S
N395 Co354 2.151 . S
N395 C394 1.330 . S
N395 C399 1.418 . S
C396 H375 0.929 . S
C396 C394 1.446 . S
C396 C397 1.332 . S
C397 H377 0.931 . S
C397 C396 1.332 . S
C397 C398 1.267 . S
C398 H366 0.929 . S
C398 C397 1.267 . S
C398 C399 1.251 . S
C399 H369 0.929 . S
C399 N395 1.418 . S
C399 C398 1.251 . S
C400 H367 0.930 . S
C400 C402 1.406 . S
C400 C405 1.261 . S
C401 H368 0.930 . S
C401 N403 1.325 . S
C401 C404 1.357 . S
C402 H370 0.928 . S
C402 C400 1.406 . S
C402 N403 1.261 . S
N403 Co354 2.214 . S
N403 C401 1.325 . S
N403 C402 1.261 . S
C404 H374 0.931 . S
C404 C401 1.357 . S
C404 C405 1.312 . S
C405 H376 0.930 . S
C405 C400 1.261 . S
C405 C404 1.312 . S
C406 O378 1.214 . S
C406 O386 1.234 . S
C407 H379 0.929 . S
C407 C410 1.391 1_565 S
C407 C412 1.391 . S
C408 H380 0.929 . S
C408 C409 1.390 . S
C408 N411 1.391 1_545 S
C409 H381 0.930 . S
C409 C408 1.390 . S
C409 C410 1.392 . S
C410 H382 0.929 . S
C410 C407 1.391 1_545 S
C410 C409 1.392 . S
N411 Co355 2.257 . S
N411 C408 1.391 1_565 S
N411 C412 1.388 . S
C412 H383 0.930 . S
C412 C407 1.391 . S
C412 N411 1.388 . S
Co413 O415 2.143 . S
Co413 O421 2.074 . S
Co413 O424 2.093 . S
Co413 O437 2.097 . S
Co413 N454 2.151 . S
Co413 N462 2.214 . S
Co414 O415 2.160 . S
Co414 O420 2.058 . S
Co414 O430 2.057 . S
Co414 O445 2.037 . S
Co414 N449 2.145 . S
Co414 N470 2.257 . S
O415 Co413 2.143 . S
O415 Co414 2.160 . S
C416 O417 1.278 . S
C416 O424 1.224 . S
O417 C416 1.278 . S
C418 O419 1.245 . S
C418 O430 1.232 . S
O419 C418 1.245 . S
O420 Co414 2.058 . S
O420 C446 1.269 . S
O421 Co413 2.074 . S
O421 C446 1.257 . S
H422 C447 0.930 . S
H423 C453 0.930 . S
O424 Co413 2.093 . S
O424 C416 1.224 . S
H425 C457 0.929 . S
H426 C459 0.930 . S
H427 C460 0.930 . S
H428 C458 0.929 . S
H429 C461 0.928 . S
O430 Co414 2.057 . S
O430 C418 1.232 . S
H431 C450 0.929 . S
H432 C451 0.929 . S
H433 C463 0.931 . S
H434 C455 0.929 . S
H435 C464 0.930 . S
H436 C456 0.931 1_455 S
O437 Co413 2.097 . S
O437 C465 1.214 . S
H438 C466 0.929 . S
H439 C467 0.929 . S
H440 C468 0.930 . S
H441 C469 0.929 . S
H442 C471 0.930 . S
H443 C448 0.930 . S
H444 C452 0.930 . S
O445 Co414 2.037 . S
O445 C465 1.234 . S
C446 O420 1.269 . S
C446 O421 1.257 . S
C447 H422 0.930 . S
C447 C450 1.388 . S
C447 C452 1.418 . S
C448 H443 0.930 . S
C448 C451 1.404 . S
C448 C452 1.353 . S
N449 Co414 2.145 . S
N449 C450 1.397 . S
N449 C451 1.334 . S
C450 H431 0.929 . S
C450 C447 1.388 . S
C450 N449 1.397 . S
C451 H432 0.929 . S
C451 C448 1.404 . S
C451 N449 1.334 . S
C452 H444 0.930 . S
C452 C447 1.418 . S
C452 C448 1.353 . S
C453 H423 0.930 . S
C453 N454 1.330 . S
C453 C455 1.446 . S
N454 Co413 2.151 . S
N454 C453 1.330 . S
N454 C458 1.418 . S
C455 H434 0.929 . S
C455 C453 1.446 . S
C455 C456 1.332 . S
C456 H436 0.931 1_655 S
C456 C455 1.332 . S
C456 C457 1.267 . S
C457 H425 0.929 . S
C457 C456 1.267 . S
C457 C458 1.251 . S
C458 H428 0.929 . S
C458 N454 1.418 . S
C458 C457 1.251 . S
C459 H426 0.930 . S
C459 C461 1.406 1_545 S
C459 C464 1.261 . S
C460 H427 0.930 . S
C460 N462 1.325 1_545 S
C460 C463 1.357 . S
C461 H429 0.928 . S
C461 C459 1.406 1_565 S
C461 N462 1.261 . S
N462 Co413 2.214 . S
N462 C460 1.325 1_565 S
N462 C461 1.261 . S
C463 H433 0.931 . S
C463 C460 1.357 . S
C463 C464 1.312 . S
C464 H435 0.930 . S
C464 C459 1.261 . S
C464 C463 1.312 . S
C465 O437 1.214 . S
C465 O445 1.234 . S
C466 H438 0.929 . S
C466 C469 1.391 . S
C466 C471 1.391 . S
C467 H439 0.929 . S
C467 C468 1.390 . S
C467 N470 1.391 . S
C468 H440 0.930 . S
C468 C467 1.390 . S
C468 C469 1.392 . S
C469 H441 0.929 . S
C469 C466 1.391 . S
C469 C468 1.392 . S
N470 Co414 2.257 . S
N470 C467 1.391 . S
N470 C471 1.388 . S
C471 H442 0.930 . S
C471 C466 1.391 . S
C471 N470 1.388 . S
C472 C473 1.369 . S
C472 C474 1.419 1_554 S
C472 H476 0.930 . S
C473 C472 1.369 . S
C473 C482 1.429 . S
C474 C472 1.419 1_556 S
C474 C475 1.363 . S
C474 H477 0.929 . S
C475 C474 1.363 . S
C475 C481 1.428 . S
H476 C472 0.930 . S
H477 C474 0.929 . S
S478 N479 1.613 . S
S478 N480 1.610 1_554 S
N479 S478 1.613 . S
N479 C482 1.350 . S
N480 S478 1.610 1_556 S
N480 C481 1.351 . S
C481 C475 1.428 . S
C481 N480 1.351 . S
C481 C482 1.434 1_556 S
C482 C473 1.429 . S
C482 N479 1.350 . S
C482 C481 1.434 1_554 S
C483 C484 1.369 . S
C483 C485 1.419 . S
C483 H487 0.930 . S
C484 C483 1.369 . S
C484 C493 1.429 . S
C485 C483 1.419 . S
C485 C486 1.363 . S
C485 H488 0.929 . S
C486 C485 1.363 . S
C486 C492 1.428 . S
H487 C483 0.930 . S
H488 C485 0.929 . S
S489 N490 1.613 . S
S489 N491 1.610 . S
N490 S489 1.613 . S
N490 C493 1.350 . S
N491 S489 1.610 . S
N491 C492 1.351 . S
C492 C486 1.428 . S
C492 N491 1.351 . S
C492 C493 1.434 . S
C493 C484 1.429 . S
C493 N490 1.350 . S
C493 C492 1.434 . S
C494 C495 1.369 . S
C494 C496 1.419 1_554 S
C494 H498 0.930 . S
C495 C494 1.369 . S
C495 C504 1.429 . S
C496 C494 1.419 1_556 S
C496 C497 1.363 . S
C496 H499 0.929 . S
C497 C496 1.363 . S
C497 C503 1.428 . S
H498 C494 0.930 . S
H499 C496 0.929 . S
S500 N501 1.613 . S
S500 N502 1.610 1_554 S
N501 S500 1.613 . S
N501 C504 1.350 . S
N502 S500 1.610 1_556 S
N502 C503 1.351 . S
C503 C497 1.428 . S
C503 N502 1.351 . S
C503 C504 1.434 1_556 S
C504 C495 1.429 . S
C504 N501 1.350 . S
C504 C503 1.434 1_554 S
C505 C506 1.369 . S
C505 C507 1.419 . S
C505 H509 0.930 . S
C506 C505 1.369 . S
C506 C515 1.429 . S
C507 C505 1.419 . S
C507 C508 1.363 . S
C507 H510 0.929 . S
C508 C507 1.363 . S
C508 C514 1.428 . S
H509 C505 0.930 . S
H510 C507 0.929 . S
S511 N512 1.613 . S
S511 N513 1.610 . S
N512 S511 1.613 . S
N512 C515 1.350 . S
N513 S511 1.610 . S
N513 C514 1.351 . S
C514 C508 1.428 . S
C514 N513 1.351 . S
C514 C515 1.434 . S
C515 C506 1.429 . S
C515 N512 1.350 . S
C515 C514 1.434 . S
C516 C517 1.369 . S
C516 C518 1.419 . S
C516 H520 0.930 . S
C517 C516 1.369 . S
C517 C526 1.429 . S
C518 C516 1.419 . S
C518 C519 1.363 . S
C518 H521 0.929 . S
C519 C518 1.363 . S
C519 C525 1.428 . S
H520 C516 0.930 . S
H521 C518 0.929 . S
S522 N523 1.613 . S
S522 N524 1.610 . S
N523 S522 1.613 . S
N523 C526 1.350 . S
N524 S522 1.610 . S
N524 C525 1.351 . S
C525 C519 1.428 . S
C525 N524 1.351 . S
C525 C526 1.434 . S
C526 C517 1.429 . S
C526 N523 1.350 . S
C526 C525 1.434 . S
C527 C528 1.369 . S
C527 C529 1.419 1_565 S
C527 H531 0.930 . S
C528 C527 1.369 . S
C528 C537 1.429 . S
C529 C527 1.419 1_545 S
C529 C530 1.363 . S
C529 H532 0.929 . S
C530 C529 1.363 . S
C530 C536 1.428 . S
H531 C527 0.930 . S
H532 C529 0.929 . S
S533 N534 1.613 . S
S533 N535 1.610 1_565 S
N534 S533 1.613 . S
N534 C537 1.350 . S
N535 S533 1.610 1_545 S
N535 C536 1.351 . S
C536 C530 1.428 . S
C536 N535 1.351 . S
C536 C537 1.434 1_545 S
C537 C528 1.429 . S
C537 N534 1.350 . S
C537 C536 1.434 1_565 S
C538 C539 1.369 . S
C538 C540 1.419 . S
C538 H542 0.930 . S
C539 C538 1.369 . S
C539 C548 1.429 . S
C540 C538 1.419 . S
C540 C541 1.363 . S
C540 H543 0.929 . S
C541 C540 1.363 . S
C541 C547 1.428 . S
H542 C538 0.930 . S
H543 C540 0.929 . S
S544 N545 1.613 . S
S544 N546 1.610 . S
N545 S544 1.613 . S
N545 C548 1.350 . S
N546 S544 1.610 . S
N546 C547 1.351 . S
C547 C541 1.428 . S
C547 N546 1.351 . S
C547 C548 1.434 . S
C548 C539 1.429 . S
C548 N545 1.350 . S
C548 C547 1.434 . S
C549 C550 1.369 . S
C549 C551 1.419 1_545 S
C549 H553 0.930 . S
C550 C549 1.369 . S
C550 C559 1.429 . S
C551 C549 1.419 1_565 S
C551 C552 1.363 . S
C551 H554 0.929 . S
C552 C551 1.363 . S
C552 C558 1.428 1_565 S
H553 C549 0.930 . S
H554 C551 0.929 . S
S555 N556 1.613 . S
S555 N557 1.610 . S
N556 S555 1.613 . S
N556 C559 1.350 . S
N557 S555 1.610 . S
N557 C558 1.351 . S
C558 C552 1.428 1_545 S
C558 N557 1.351 . S
C558 C559 1.434 . S
C559 C550 1.429 . S
C559 N556 1.350 . S
C559 C558 1.434 . S
C560 C561 1.369 . S
C560 C562 1.419 1_655 S
C560 H564 0.930 . S
C561 C560 1.369 . S
C561 C570 1.429 . S
C562 C560 1.419 1_455 S
C562 C563 1.363 . S
C562 H565 0.929 . S
C563 C562 1.363 . S
C563 C569 1.428 1_455 S
H564 C560 0.930 . S
H565 C562 0.929 . S
S566 N567 1.613 . S
S566 N568 1.610 . S
N567 S566 1.613 . S
N567 C570 1.350 . S
N568 S566 1.610 . S
N568 C569 1.351 . S
C569 C563 1.428 1_655 S
C569 N568 1.351 . S
C569 C570 1.434 . S
C570 C561 1.429 . S
C570 N567 1.350 . S
C570 C569 1.434 . S
C571 C572 1.369 . S
C571 C573 1.419 . S
C571 H575 0.930 . S
C572 C571 1.369 . S
C572 C581 1.429 . S
C573 C571 1.419 . S
C573 C574 1.363 . S
C573 H576 0.929 . S
C574 C573 1.363 . S
C574 C580 1.428 . S
H575 C571 0.930 . S
H576 C573 0.929 . S
S577 N578 1.613 . S
S577 N579 1.610 . S
N578 S577 1.613 . S
N578 C581 1.350 . S
N579 S577 1.610 . S
N579 C580 1.351 . S
C580 C574 1.428 . S
C580 N579 1.351 . S
C580 C581 1.434 . S
C581 C572 1.429 . S
C581 N578 1.350 . S
C581 C580 1.434 . S
C582 C583 1.369 . S
C582 C584 1.419 1_455 S
C582 H586 0.930 . S
C583 C582 1.369 . S
C583 C592 1.429 . S
C584 C582 1.419 1_655 S
C584 C585 1.363 . S
C584 H587 0.929 . S
C585 C584 1.363 . S
C585 C591 1.428 1_655 S
H586 C582 0.930 . S
H587 C584 0.929 . S
S588 N589 1.613 . S
S588 N590 1.610 . S
N589 S588 1.613 . S
N589 C592 1.350 . S
N590 S588 1.610 . S
N590 C591 1.351 . S
C591 C585 1.428 1_455 S
C591 N590 1.351 . S
C591 C592 1.434 . S
C592 C583 1.429 . S
C592 N589 1.350 . S
C592 C591 1.434 . S
C593 C594 1.369 . S
C593 C595 1.419 . S
C593 H597 0.930 . S
C594 C593 1.369 . S
C594 C603 1.429 . S
C595 C593 1.419 . S
C595 C596 1.363 . S
C595 H598 0.929 . S
C596 C595 1.363 . S
C596 C602 1.428 . S
H597 C593 0.930 . S
H598 C595 0.929 . S
S599 N600 1.613 . S
S599 N601 1.610 . S
N600 S599 1.613 . S
N600 C603 1.350 . S
N601 S599 1.610 . S
N601 C602 1.351 . S
C602 C596 1.428 . S
C602 N601 1.351 . S
C602 C603 1.434 . S
C603 C594 1.429 . S
C603 N600 1.350 . S
C603 C602 1.434 . S
C604 C605 1.369 . S
C604 C606 1.419 1_655 S
C604 H608 0.930 . S
C605 C604 1.369 . S
C605 C614 1.429 . S
C606 C604 1.419 1_455 S
C606 C607 1.363 . S
C606 H609 0.929 . S
C607 C606 1.363 . S
C607 C613 1.428 . S
H608 C604 0.930 . S
H609 C606 0.929 . S
S610 N611 1.613 . S
S610 N612 1.610 1_655 S
N611 S610 1.613 . S
N611 C614 1.350 . S
N612 S610 1.610 1_455 S
N612 C613 1.351 . S
C613 C607 1.428 . S
C613 N612 1.351 . S
C613 C614 1.434 1_455 S
C614 C605 1.429 . S
C614 N611 1.350 . S
C614 C613 1.434 1_655 S
C615 C616 1.369 . S
C615 C617 1.419 . S
C615 H619 0.930 . S
C616 C615 1.369 . S
C616 C625 1.429 1_655 S
C617 C615 1.419 . S
C617 C618 1.363 1_655 S
C617 H620 0.929 . S
C618 C617 1.363 1_455 S
C618 C624 1.428 . S
H619 C615 0.930 . S
H620 C617 0.929 . S
S621 N622 1.613 . S
S621 N623 1.610 . S
N622 S621 1.613 . S
N622 C625 1.350 . S
N623 S621 1.610 . S
N623 C624 1.351 . S
C624 C618 1.428 . S
C624 N623 1.351 . S
C624 C625 1.434 . S
C625 C616 1.429 1_455 S
C625 N622 1.350 . S
C625 C624 1.434 . S
C626 C627 1.369 1_565 S
C626 C628 1.419 . S
C626 H630 0.930 . S
C627 C626 1.369 1_545 S
C627 C636 1.429 . S
C628 C626 1.419 . S
C628 C629 1.363 . S
C628 H631 0.929 . S
C629 C628 1.363 . S
C629 C635 1.428 1_565 S
H630 C626 0.930 . S
H631 C628 0.929 . S
S632 N633 1.613 . S
S632 N634 1.610 . S
N633 S632 1.613 . S
N633 C636 1.350 . S
N634 S632 1.610 . S
N634 C635 1.351 . S
C635 C629 1.428 1_545 S
C635 N634 1.351 . S
C635 C636 1.434 . S
C636 C627 1.429 . S
C636 N633 1.350 . S
C636 C635 1.434 . S
C637 C638 1.369 . S
C637 C639 1.419 1_545 S
C637 H641 0.930 . S
C638 C637 1.369 . S
C638 C647 1.429 . S
C639 C637 1.419 1_565 S
C639 C640 1.363 . S
C639 H642 0.929 . S
C640 C639 1.363 . S
C640 C646 1.428 . S
H641 C637 0.930 . S
H642 C639 0.929 . S
S643 N644 1.613 . S
S643 N645 1.610 1_545 S
N644 S643 1.613 . S
N644 C647 1.350 . S
N645 S643 1.610 1_565 S
N645 C646 1.351 . S
C646 C640 1.428 . S
C646 N645 1.351 . S
C646 C647 1.434 1_565 S
C647 C638 1.429 . S
C647 N644 1.350 . S
C647 C646 1.434 1_545 S
C473 C3 1.481 . S
C475 C298 1.479 . S
C484 C62 1.480 . S
C486 C357 1.482 . S
C495 C121 1.483 . S
C497 C416 1.479 . S
C506 C239 1.483 . S
C508 C180 1.478 . S
C517 C5 1.621 . S
C519 C269 1.610 . S
C528 C64 1.620 . S
C530 C328 1.607 . S
C539 C387 1.606 . S
C541 C123 1.620 . S
C550 C182 1.619 . S
C552 C446 1.607 . S
C561 C241 1.619 . S
C563 C33 1.607 . S
C572 C92 1.610 . S
C574 C300 1.620 . S
C583 C359 1.619 . S
C585 C151 1.607 . S
C594 C210 1.608 . S
C596 C418 1.619 . S
C605 C170 1.061 . S
C607 C52 1.053 . S
C616 C229 1.062 . S
C618 C111 1.052 . S
C627 C288 1.051 . S
C629 C406 1.061 . S
C638 C347 1.063 . S
C640 C465 1.052 . S
