# Generated by pormake.
# Topology sml, (6)-cn, num edge types: 1
# Building blocks:
#     Node 0, Type 0, BuildingBlock: INOVEN_clean_sbu_0, # of connection points: 6
#     Node 1, Type 0, BuildingBlock: INOVEN_clean_sbu_0, # of connection points: 6
#     Node 2, Type 0, BuildingBlock: INOVEN_clean_sbu_0, # of connection points: 6
#     Node 3, Type 0, BuildingBlock: INOVEN_clean_sbu_0, # of connection points: 6
#     Node 4, Type 0, BuildingBlock: INOVEN_clean_sbu_0, # of connection points: 6
#     Node 5, Type 0, BuildingBlock: INOVEN_clean_sbu_0, # of connection points: 6
#     Edge 6, Type (0, 0), BuildingBlock: OJICUG_clean_linker_0, # of connection points: 2
#     Edge 7, Type (0, 0), BuildingBlock: OJICUG_clean_linker_0, # of connection points: 2
#     Edge 8, Type (0, 0), BuildingBlock: OJICUG_clean_linker_0, # of connection points: 2
#     Edge 9, Type (0, 0), BuildingBlock: OJICUG_clean_linker_0, # of connection points: 2
#     Edge 10, Type (0, 0), BuildingBlock: OJICUG_clean_linker_0, # of connection points: 2
#     Edge 11, Type (0, 0), BuildingBlock: OJICUG_clean_linker_0, # of connection points: 2
#     Edge 12, Type (0, 0), BuildingBlock: OJICUG_clean_linker_0, # of connection points: 2
#     Edge 13, Type (0, 0), BuildingBlock: OJICUG_clean_linker_0, # of connection points: 2
#     Edge 14, Type (0, 0), BuildingBlock: OJICUG_clean_linker_0, # of connection points: 2
#     Edge 15, Type (0, 0), BuildingBlock: OJICUG_clean_linker_0, # of connection points: 2
#     Edge 16, Type (0, 0), BuildingBlock: OJICUG_clean_linker_0, # of connection points: 2
#     Edge 17, Type (0, 0), BuildingBlock: OJICUG_clean_linker_0, # of connection points: 2
#     Edge 18, Type (0, 0), BuildingBlock: OJICUG_clean_linker_0, # of connection points: 2
#     Edge 19, Type (0, 0), BuildingBlock: OJICUG_clean_linker_0, # of connection points: 2
#     Edge 20, Type (0, 0), BuildingBlock: OJICUG_clean_linker_0, # of connection points: 2
#     Edge 21, Type (0, 0), BuildingBlock: OJICUG_clean_linker_0, # of connection points: 2
#     Edge 22, Type (0, 0), BuildingBlock: OJICUG_clean_linker_0, # of connection points: 2
#     Edge 23, Type (0, 0), BuildingBlock: OJICUG_clean_linker_0, # of connection points: 2
# Relax obj value: 0.274
# Max RMSD: 0.282
# Mean RMSD: 0.282
data_MOF--net-sml--node1-INOVEN_clean_sbu_0--edge1-OJICUG_clean_linker_0
_symmetry_space_group_name_H-M    P1
_symmetry_Int_Tables_number       1
_symmetry_cell_setting            triclinic
loop_
_symmetry_equiv_pos_as_xyz
'x, y, z'
_cell_length_a     22.140932
_cell_length_b     21.982779
_cell_length_c     20.299794
_cell_angle_alpha  90.031337
_cell_angle_beta   89.999537
_cell_angle_gamma 120.42679
loop_
_atom_site_label
_atom_site_type_symbol
_atom_site_fract_x
_atom_site_fract_y
_atom_site_fract_z
_atom_type_partial_charge
Gd0 Gd 0.15219 0.44364 0.98091 0.0
Gd1 Gd 0.21833 0.39064 0.08567 0.0
C2 C 0.20156 0.32871 0.94291 0.0
C3 C 0.12502 0.48353 0.8707 0.0
C4 C 0.13883 0.476 0.80053 0.0
C5 C 0.08322 0.44732 0.75523 0.0
C6 C 0.20613 0.49375 0.77864 0.0
C7 C 0.16132 0.45231 0.6678 0.0
C8 C 0.21726 0.48233 0.71297 0.0
C9 C 0.09422 0.43536 0.68969 0.0
C10 C 0.06247 0.35059 0.06906 0.0
C11 C 0.18526 0.51856 0.11901 0.0
C12 C 0.23871 0.3475 0.19733 0.0
C13 C 0.22704 0.35987 0.2671 0.0
C14 C 0.28427 0.3987 0.30939 0.0
C15 C 0.15912 0.33505 0.2917 0.0
C16 C 0.20594 0.38993 0.39861 0.0
C17 C 0.14872 0.35037 0.35622 0.0
C18 C 0.27392 0.41343 0.3743 0.0
C19 C 0.30779 0.48704 1.00017 0.0
O20 O 0.18674 0.37766 0.92515 0.0
O21 O 0.20805 0.31592 1.00546 0.0
O22 O 0.08007 0.42507 0.90071 0.0
O23 O 0.17927 0.52504 0.90754 0.0
O24 O 0.05571 0.40109 0.04382 0.0
O25 O 0.11351 0.349 0.04319 0.0
O26 O 0.19984 0.4701 0.1392 0.0
O27 O 0.16993 0.52414 0.05721 0.0
O28 O 0.28839 0.4018 0.16569 0.0
O29 O 0.18285 0.3099 0.16091 0.0
O30 O 0.31724 0.43755 1.02431 0.0
O31 O 0.25548 0.48562 1.02603 0.0
H32 H 0.03086 0.4331 0.77083 0.0
H33 H 0.25001 0.51524 0.81247 0.0
H34 H 0.26939 0.49522 0.69803 0.0
H35 H 0.05011 0.41282 0.65611 0.0
H36 H 0.33723 0.41802 0.29214 0.0
H37 H 0.11375 0.30411 0.26095 0.0
H38 H 0.09561 0.33194 0.37237 0.0
H39 H 0.31936 0.44279 0.40552 0.0
Gd40 Gd 0.72212 0.16847 0.32489 0.0
Gd41 Gd 0.83718 0.25037 0.4314 0.0
C42 C 0.88918 0.2294 0.29327 0.0
C43 C 0.65726 0.13805 0.21342 0.0
C44 C 0.68074 0.15376 0.14373 0.0
C45 C 0.70415 0.11355 0.11012 0.0
C46 C 0.68146 0.21031 0.1105 0.0
C47 C 0.72988 0.1869 1.01225 0.0
C48 C 0.70602 0.22688 0.04563 0.0
C49 C 0.72848 0.12999 0.04532 0.0
C50 C 0.73325 0.08743 0.41627 0.0
C51 C 0.6704 0.19181 0.46256 0.0
C52 C 0.90522 0.28817 0.54134 0.0
C53 C 0.88471 0.27782 0.61197 0.0
C54 C 0.86568 0.32243 0.64412 0.0
C55 C 0.88233 0.22186 0.64762 0.0
C56 C 0.8377 0.25222 0.74444 0.0
C57 C 0.85893 0.20909 0.71288 0.0
C58 C 0.84237 0.30973 0.70951 0.0
C59 C 0.82158 0.32878 0.33909 0.0
O60 O 0.82458 0.20542 0.27183 0.0
O61 O 0.90732 0.24473 0.35576 0.0
O62 O 0.67102 0.09443 0.24506 0.0
O63 O 0.66724 0.19175 0.24973 0.0
O64 O 0.67541 0.06962 0.38494 0.0
O65 O 0.78426 0.14255 0.39222 0.0
O66 O 0.73513 0.21627 0.48408 0.0
O67 O 0.65169 0.17423 0.40045 0.0
O68 O 0.89007 0.32931 0.50719 0.0
O69 O 0.89378 0.23189 0.50842 0.0
O70 O 0.88194 0.34596 0.36487 0.0
O71 O 0.77334 0.27467 0.36658 0.0
H72 H 0.70445 0.06965 0.13399 0.0
H73 H 0.66339 0.24209 0.13478 0.0
H74 H 0.70562 0.27056 1.0214 0.0
H75 H 0.7473 0.09865 1.02146 0.0
H76 H 0.86753 0.36654 0.61848 0.0
H77 H 0.89759 0.18711 0.62478 0.0
H78 H 0.8575 0.16525 0.73865 0.0
H79 H 0.82623 0.34391 0.73206 0.0
Gd80 Gd 0.54476 0.72898 0.65673 0.0
Gd81 Gd 0.5887 0.84481 0.76384 0.0
C82 C 0.6627 0.89536 0.62649 0.0
C83 C 0.50277 0.66539 0.54462 0.0
C84 C 0.50576 0.69083 0.47684 0.0
C85 C 0.49836 0.6476 0.42308 0.0
C86 C 0.51834 0.7593 0.46536 0.0
C87 C 0.51836 0.74187 0.34681 0.0
C88 C 0.52476 0.78466 0.40103 0.0
C89 C 0.50441 0.67277 0.35862 0.0
C90 C 0.63491 0.73058 0.74551 0.0
C91 C 0.47097 0.67813 0.79401 0.0
C92 C 0.61864 0.91187 0.87503 0.0
C93 C 0.60312 0.88893 0.94446 0.0
C94 C 0.60767 0.93616 0.99339 0.0
C95 C 0.58093 0.81896 0.96205 0.0
C96 C 0.5693 0.84382 0.07684 0.0
C97 C 0.56441 0.7967 1.02737 0.0
C98 C 0.59112 0.91393 0.05903 0.0
C99 C 0.49572 0.8357 0.67337 0.0
O100 O 0.61508 0.83194 0.60542 0.0
O101 O 0.66951 0.91305 0.68948 0.0
O102 O 0.56317 0.68167 0.57096 0.0
O103 O 0.46181 0.67406 0.58534 0.0
O104 O 0.59041 0.67465 0.71298 0.0
O105 O 0.63622 0.78525 0.72364 0.0
O106 O 0.51592 0.74228 0.81563 0.0
O107 O 0.46689 0.65946 0.73169 0.0
O108 O 0.56443 0.89921 0.83913 0.0
O109 O 0.66178 0.89731 0.84408 0.0
O110 O 0.54415 0.89556 0.69734 0.0
O111 O 0.49735 0.78533 0.70069 0.0
H112 H 0.48883 0.59469 0.43094 0.0
H113 H 0.52387 0.79346 0.50615 0.0
H114 H 0.53467 0.83776 0.39377 0.0
H115 H 0.49999 0.6387 0.31807 0.0
H116 H 0.62347 0.99005 0.98077 0.0
H117 H 0.57624 0.78118 0.92547 0.0
H118 H 0.54874 0.74264 0.03918 0.0
H119 H 0.59446 0.95135 0.09565 0.0
Gd120 Gd 0.82364 0.54869 0.98131 0.0
Gd121 Gd 0.75647 0.60027 0.08632 0.0
C122 C 0.77435 0.66372 0.94411 0.0
C123 C 0.85172 0.50977 0.871 0.0
C124 C 0.83752 0.51704 0.80094 0.0
C125 C 0.89284 0.54542 0.75537 0.0
C126 C 0.77013 0.49938 0.77945 0.0
C127 C 0.8142 0.54012 0.66838 0.0
C128 C 0.75856 0.51047 0.71384 0.0
C129 C 0.88141 0.55707 0.68989 0.0
C130 C 0.91258 0.64072 0.07062 0.0
C131 C 0.7897 0.47229 0.11859 0.0
C132 C 0.73496 0.64257 0.19799 0.0
C133 C 0.74677 0.63052 0.26778 0.0
C134 C 0.6896 0.59144 0.31003 0.0
C135 C 0.81476 0.65596 0.29244 0.0
C136 C 0.76821 0.60115 0.39935 0.0
C137 C 0.82534 0.64094 0.35697 0.0
C138 C 0.70013 0.57706 0.37498 0.0
C139 C 0.66783 0.50503 0.99947 0.0
O140 O 0.78933 0.615 0.92592 0.0
O141 O 0.76733 0.67578 1.00676 0.0
O142 O 0.89606 0.56848 0.9011 0.0
O143 O 0.79773 0.46763 0.90779 0.0
O144 O 0.91969 0.59063 0.04484 0.0
O145 O 0.86171 0.64257 0.04467 0.0
O146 O 0.77472 0.52035 0.13927 0.0
O147 O 0.80555 0.4675 0.05679 0.0
O148 O 0.68586 0.58788 0.16624 0.0
O149 O 0.79079 0.68077 0.16174 0.0
O150 O 0.65814 0.55417 1.02413 0.0
O151 O 0.71987 0.50607 1.02554 0.0
H152 H 0.94527 0.55961 0.77069 0.0
H153 H 0.7265 0.4782 0.81353 0.0
H154 H 0.70637 0.49763 0.69916 0.0
H155 H 0.92527 0.57934 0.65604 0.0
H156 H 0.63658 0.57167 0.29271 0.0
H157 H 0.86007 0.68715 0.26173 0.0
H158 H 0.87853 0.65979 0.37314 0.0
H159 H 0.65475 0.5475 0.40619 0.0
Gd160 Gd 0.25343 0.82046 0.32614 0.0
Gd161 Gd 0.13841 0.73986 0.43289 0.0
C162 C 0.08656 0.76061 0.29464 0.0
C163 C 0.31731 0.84853 0.2143 0.0
C164 C 0.29258 0.83059 0.14505 0.0
C165 C 0.27732 0.87519 0.10803 0.0
C166 C 0.2819 0.76778 0.11584 0.0
C167 C 0.23823 0.79318 1.01539 0.0
C168 C 0.25486 0.74919 0.05189 0.0
C169 C 0.25049 0.85673 0.04416 0.0
C170 C 0.24293 0.90287 0.41644 0.0
C171 C 0.30527 0.79905 0.46445 0.0
C172 C 0.06963 0.70129 0.54249 0.0
C173 C 0.08864 0.71024 0.61353 0.0
C174 C 0.09557 0.65835 0.64765 0.0
C175 C 0.10091 0.77106 0.64783 0.0
C176 C 0.13036 0.7298 0.74757 0.0
C177 C 0.12173 0.78081 0.71387 0.0
C178 C 0.11647 0.66814 0.71379 0.0
C179 C 0.15356 0.66065 0.34098 0.0
O180 O 0.15096 0.78359 0.27318 0.0
O181 O 0.06853 0.746 0.35722 0.0
O182 O 0.30332 0.89262 0.2448 0.0
O183 O 0.30856 0.79625 0.25203 0.0
O184 O 0.30056 0.92019 0.38493 0.0
O185 O 0.19167 0.84745 0.39299 0.0
O186 O 0.24053 0.7748 0.48584 0.0
O187 O 0.32397 0.81584 0.40224 0.0
O188 O 0.08539 0.6606 0.50834 0.0
O189 O 0.08154 0.75793 0.50997 0.0
O190 O 0.09322 0.64418 0.36627 0.0
O191 O 0.20189 0.71467 0.36851 0.0
H192 H 0.28537 0.9242 0.12864 0.0
H193 H 0.29355 0.73238 0.14268 0.0
H194 H 0.2457 0.69963 1.03162 0.0
H195 H 0.23965 0.89262 1.01717 0.0
H196 H 0.08543 0.61031 0.6231 0.0
H197 H 0.09544 0.81184 0.62346 0.0
H198 H 0.13261 0.82923 0.73812 0.0
H199 H 0.12148 0.62727 0.73855 0.0
Gd200 Gd 0.43148 0.26433 0.6547 0.0
Gd201 Gd 0.3878 0.14877 0.76177 0.0
C202 C 0.31369 0.09785 0.62452 0.0
C203 C 0.47337 0.32808 0.54272 0.0
C204 C 0.47085 0.30289 0.4749 0.0
C205 C 0.47809 0.34612 0.42123 0.0
C206 C 0.45888 0.23466 0.46326 0.0
C207 C 0.45906 0.25226 0.34473 0.0
C208 C 0.45288 0.20951 0.39887 0.0
C209 C 0.47242 0.32115 0.35671 0.0
C210 C 0.34144 0.26289 0.7436 0.0
C211 C 0.50533 0.31537 0.79203 0.0
C212 C 0.35839 0.08192 0.87293 0.0
C213 C 0.37404 0.10501 0.94233 0.0
C214 C 0.37032 0.05808 0.99111 0.0
C215 C 0.39566 0.17486 0.95999 0.0
C216 C 0.40843 0.15046 0.0746 0.0
C217 C 0.41246 0.19729 1.02527 0.0
C218 C 0.38724 0.0805 0.0567 0.0
C219 C 0.48046 0.1575 0.67112 0.0
O220 O 0.36136 0.16119 0.60335 0.0
O221 O 0.30679 0.08047 0.68757 0.0
O222 O 0.41275 0.31123 0.56886 0.0
O223 O 0.51448 0.31978 0.58353 0.0
O224 O 0.38591 0.31874 0.71105 0.0
O225 O 0.34011 0.20819 0.72171 0.0
O226 O 0.4603 0.2513 0.81362 0.0
O227 O 0.50948 0.33396 0.7297 0.0
O228 O 0.41259 0.09476 0.83695 0.0
O229 O 0.31496 0.0961 0.84206 0.0
O230 O 0.43206 0.09777 0.69523 0.0
O231 O 0.47905 0.20803 0.69843 0.0
H232 H 0.48715 0.39885 0.42921 0.0
H233 H 0.45347 0.2005 0.50398 0.0
H234 H 0.44343 0.15658 0.3915 0.0
H235 H 0.47664 0.35518 0.31625 0.0
H236 H 0.35486 0.00425 0.9784 0.0
H237 H 0.39969 0.21241 0.92349 0.0
H238 H 0.42764 0.25122 0.03718 0.0
H239 H 0.38466 0.04338 0.0932 0.0
C240 C 0.28189 0.23462 0.85369 0.0
C241 C 0.29158 0.26433 0.79067 0.0
H242 H 0.24594 0.23183 0.95258 0.0
C243 C 0.2625 0.30636 0.77611 0.0
H244 H 0.30447 0.20272 0.86604 0.0
C245 C 0.22783 0.32188 0.82458 0.0
C246 C 0.22327 0.29751 0.88961 0.0
H247 H 0.26931 0.32995 0.72778 0.0
H248 H 0.20864 0.35689 0.81166 0.0
C249 C 0.24852 0.25157 0.90317 0.0
C250 C 0.97822 0.24293 0.13143 0.0
C251 C 0.02789 0.31522 0.13074 0.0
H252 H 0.8936 0.15816 0.1848 0.0
C253 C 0.03746 0.35577 0.18734 0.0
H254 H 0.96918 0.21109 0.08775 0.0
C255 C -0.00283 0.32508 0.2435 0.0
C256 C 0.9441 0.25404 0.24281 0.0
H257 H 0.07402 0.41182 0.1876 0.0
H258 H 0.00362 0.3584 0.28542 0.0
C259 C 0.93547 0.21274 0.18681 0.0
C260 C 0.71416 0.97396 0.4575 0.0
C261 C 0.73678 0.04486 0.46998 0.0
H262 H 0.67647 0.87158 0.49775 0.0
C263 C 0.7471 0.06923 0.53531 0.0
H264 H 0.70524 0.95411 0.40741 0.0
C265 C 0.72908 0.02155 0.58777 0.0
C266 C 0.70064 0.94918 0.57503 0.0
H267 H 0.76318 0.12362 0.54588 0.0
H268 H 0.73211 0.04045 0.63764 0.0
C269 C 0.69726 0.92677 0.50945 0.0
C270 C 0.71451 0.68777 0.77745 0.0
C271 C 0.68489 0.72924 0.79246 0.0
H272 H 0.76865 0.63737 0.81252 0.0
C273 C 0.69397 0.75817 0.8558 0.0
H274 H 0.70815 0.66478 0.72887 0.0
C275 C 0.72723 0.74091 0.90513 0.0
C276 C 0.75294 0.69545 0.89109 0.0
H277 H 0.67096 0.78961 0.86847 0.0
H278 H 0.72929 0.75998 0.95476 0.0
C279 C 0.74907 0.67197 0.82579 0.0
C280 C 0.9771 0.66633 0.24536 0.0
C281 C 0.03168 0.73672 0.24418 0.0
H282 H 0.89857 0.58019 0.18998 0.0
C283 C 0.0416 0.77776 0.18771 0.0
H284 H 0.96966 0.63315 0.28764 0.0
C285 C -0.0013 0.7479 0.13236 0.0
C286 C 0.94737 0.67614 0.13222 0.0
H287 H 0.0846 0.83178 0.18532 0.0
H288 H 0.00883 0.77944 0.0883 0.0
C289 C 0.93646 0.6359 0.18928 0.0
C290 C 0.28013 0.06532 0.50737 0.0
C291 C 0.27599 0.04359 0.57328 0.0
H292 H 0.27258 0.03666 0.4057 0.0
C293 C 0.24689 0.9713 0.58678 0.0
H294 H 0.30147 0.12044 0.49508 0.0
C295 C 0.22885 0.92294 0.53488 0.0
C296 C 0.23976 0.94651 0.46933 0.0
H297 H 0.24329 0.95291 0.63692 0.0
H298 H 0.21228 0.86857 0.54608 0.0
C299 C 0.26316 0.01741 0.45598 0.0
C300 C 0.23157 0.48587 0.56251 0.0
C301 C 0.17253 0.43699 0.59865 0.0
H302 H 0.28758 0.51055 0.47127 0.0
C303 C 0.12461 0.3727 0.56851 0.0
H304 H 0.26907 0.53628 0.58391 0.0
C305 C 0.13563 0.35742 0.50417 0.0
C306 C 0.19458 0.40627 0.46769 0.0
H307 H 0.07911 0.3334 0.5952 0.0
H308 H 0.09829 0.30657 0.48353 0.0
C309 C 0.24229 0.47088 0.49786 0.0
C310 C 0.79973 0.27465 0.92319 0.0
C311 C 0.75626 0.20421 0.94326 0.0
H312 H 0.86055 0.34511 0.84542 0.0
C313 C 0.73896 0.15009 0.8971 0.0
H314 H 0.81472 0.3176 0.95766 0.0
C315 C 0.76505 0.16581 0.83284 0.0
C316 C 0.80938 0.23611 0.81291 0.0
H317 H 0.70458 0.09538 0.91041 0.0
H318 H 0.74974 0.12269 0.79849 0.0
C319 C 0.82604 0.29041 0.8588 0.0
C320 C 0.48504 0.72719 0.22683 0.0
C321 C 0.52834 0.76976 0.2783 0.0
H322 H 0.46277 0.71761 0.12349 0.0
C323 C 0.58277 0.83846 0.26346 0.0
H324 H 0.44178 0.67458 0.23671 0.0
C325 C 0.59496 0.86315 0.19846 0.0
C326 C 0.55301 0.81977 0.14667 0.0
H327 H 0.61751 0.87244 0.30181 0.0
H328 H 0.63881 0.91541 0.18857 0.0
C329 C 0.49714 0.75191 0.16189 0.0
C330 C 0.74348 0.50592 0.56338 0.0
C331 C 0.80256 0.55511 0.59931 0.0
H332 H 0.68714 0.48067 0.47227 0.0
C333 C 0.85014 0.61939 0.56907 0.0
H334 H 0.70622 0.45552 0.58491 0.0
C335 C 0.83876 0.63437 0.50478 0.0
C336 C 0.77981 0.58518 0.46845 0.0
H337 H 0.89566 0.6589 0.59564 0.0
H338 H 0.87584 0.68524 0.48406 0.0
C339 C 0.73242 0.52058 0.49874 0.0
C340 C 0.12987 0.7722 0.86254 0.0
C341 C 0.15507 0.74189 0.81724 0.0
H342 H 0.13493 0.81054 0.96042 0.0
C343 C 0.20575 0.7256 0.83848 0.0
H344 H 0.08981 0.78407 0.84828 0.0
C345 C 0.23204 0.74118 0.90289 0.0
C346 C 0.20813 0.77326 0.94769 0.0
H347 H 0.22675 0.70277 0.80473 0.0
H348 H 0.27256 0.7299 0.91693 0.0
C349 C 0.15592 0.78754 0.92688 0.0
C350 C 0.49224 0.26733 0.22469 0.0
C351 C 0.44928 0.22448 0.27617 0.0
H352 H 0.51428 0.27718 0.1213 0.0
C353 C 0.39529 0.15557 0.26125 0.0
H354 H 0.53517 0.32013 0.23461 0.0
C355 C 0.38317 0.13092 0.19622 0.0
C356 C 0.42476 0.17456 0.14444 0.0
H357 H 0.36077 0.12136 0.29958 0.0
H358 H 0.33963 0.07848 0.18629 0.0
C359 C 0.48021 0.24266 0.15971 0.0
C360 C 0.23416 0.59456 0.21772 0.0
C361 C 0.18121 0.56365 0.16996 0.0
H362 H 0.26716 0.65112 0.30905 0.0
C363 C 0.12 0.56707 0.17728 0.0
H364 H 0.28146 0.59174 0.21318 0.0
C365 C 0.11062 0.59833 0.23338 0.0
C366 C 0.16329 0.62845 0.28155 0.0
H367 H 0.07797 0.54219 0.14158 0.0
H368 H 0.06214 0.59855 0.23926 0.0
C369 C 0.2258 0.62791 0.27255 0.0
C370 C 0.55306 0.12182 0.51637 0.0
C371 C 0.61825 0.1843 0.51157 0.0
H372 H 0.45835 0.06333 0.57261 0.0
C373 C 0.63675 0.23791 0.55835 0.0
H374 H 0.53825 0.07954 0.48113 0.0
C375 C 0.59112 0.22922 0.6095 0.0
C376 C 0.52702 0.16597 0.61588 0.0
H377 H 0.68693 0.28644 0.55562 0.0
H378 H 0.60673 0.27141 0.64504 0.0
C379 C 0.50799 0.11229 0.56889 0.0
C380 C 0.37876 0.51315 0.89741 0.0
C381 C 0.34795 0.53432 0.94591 0.0
H382 H 0.44053 0.54211 0.80893 0.0
C383 C 0.3544 0.601 0.94177 0.0
H384 H 0.37348 0.46141 0.89939 0.0
C385 C 0.39352 0.64717 0.89132 0.0
C386 C 0.42477 0.62644 0.84298 0.0
H387 H 0.33059 0.61809 0.9785 0.0
H388 H 0.39965 0.69931 0.89019 0.0
C389 C 0.4162 0.55871 0.84553 0.0
C390 C 0.74819 0.35928 0.26961 0.0
C391 C 0.81179 0.36123 0.27987 0.0
H392 H 0.69156 0.39385 0.20961 0.0
C393 C 0.86571 0.39436 0.23325 0.0
H394 H 0.70588 0.33384 0.30494 0.0
C395 C 0.85647 0.4261 0.17751 0.0
C396 C 0.79404 0.42693 0.16897 0.0
H397 H 0.9151 0.39621 0.24012 0.0
H398 H 0.89942 0.45332 0.14309 0.0
C399 C 0.73982 0.393 0.2151 0.0
C400 C 0.33908 0.75422 0.56101 0.0
C401 C 0.35747 0.80727 0.51372 0.0
H402 H 0.36931 0.7217 0.64815 0.0
C403 C 0.42263 0.86986 0.51817 0.0
H404 H 0.28894 0.70562 0.55856 0.0
C405 C 0.46781 0.88002 0.57079 0.0
C406 C 0.44893 0.82684 0.61822 0.0
H407 H 0.43735 0.91174 0.48253 0.0
H408 H 0.51747 0.92901 0.57418 0.0
C409 C 0.38482 0.76352 0.61226 0.0
C410 C 0.59758 0.47989 0.89626 0.0
C411 C 0.62798 0.45826 0.94475 0.0
H412 H 0.53626 0.4516 0.80747 0.0
C413 C 0.6214 0.39155 0.94023 0.0
H414 H 0.60297 0.53166 0.89857 0.0
C415 C 0.5825 0.34577 0.88943 0.0
C416 C 0.55162 0.36691 0.84111 0.0
H417 H 0.64486 0.3741 0.97696 0.0
H418 H 0.57616 0.29356 0.88806 0.0
C419 C 0.56035 0.4347 0.84402 0.0
loop_
_geom_bond_atom_site_label_1
_geom_bond_atom_site_label_2
_geom_bond_distance
_geom_bond_site_symmetry_2
_ccdc_geom_bond_type
Gd0 C3 2.818 . S
Gd0 O20 2.377 . S
Gd0 O22 2.448 . S
Gd0 O23 2.506 . S
Gd0 O24 2.435 . S
Gd0 O25 2.717 1_556 S
Gd0 O27 2.395 1_556 S
Gd0 O31 2.327 . S
Gd1 C12 2.818 . S
Gd1 O21 2.395 1_554 S
Gd1 O25 2.327 . S
Gd1 O26 2.377 . S
Gd1 O28 2.448 . S
Gd1 O29 2.506 . S
Gd1 O30 2.435 . S
Gd1 O31 2.717 1_554 S
C2 O20 1.240 . S
C2 O21 1.240 . S
C3 Gd0 2.818 . S
C3 C4 1.510 . S
C3 O22 1.249 . S
C3 O23 1.252 . S
C4 C3 1.510 . S
C4 C5 1.404 . S
C4 C6 1.352 . S
C5 C4 1.404 . S
C5 C9 1.389 . S
C5 H32 0.930 1_455 S
C6 C4 1.352 . S
C6 C8 1.374 . S
C6 H33 0.931 . S
C7 C8 1.359 . S
C7 C9 1.364 . S
C8 C6 1.374 . S
C8 C7 1.359 . S
C8 H34 0.931 . S
C9 C5 1.389 . S
C9 C7 1.364 . S
C9 H35 0.931 1_455 S
C10 O24 1.256 1_554 S
C10 O25 1.257 . S
C11 O26 1.240 . S
C11 O27 1.240 . S
C12 Gd1 2.818 . S
C12 C13 1.510 . S
C12 O28 1.249 . S
C12 O29 1.252 . S
C13 C12 1.510 . S
C13 C14 1.404 . S
C13 C15 1.352 . S
C14 C13 1.404 . S
C14 C18 1.389 . S
C14 H36 0.930 . S
C15 C13 1.352 . S
C15 C17 1.374 . S
C15 H37 0.931 . S
C16 C17 1.359 . S
C16 C18 1.364 . S
C17 C15 1.374 . S
C17 C16 1.359 . S
C17 H38 0.931 . S
C18 C14 1.389 . S
C18 C16 1.364 . S
C18 H39 0.931 . S
C19 O30 1.256 1_556 S
C19 O31 1.257 . S
O20 Gd0 2.377 . S
O20 C2 1.240 . S
O21 Gd1 2.395 1_556 S
O21 C2 1.240 . S
O22 Gd0 2.448 . S
O22 C3 1.249 . S
O23 Gd0 2.506 . S
O23 C3 1.252 . S
O24 Gd0 2.435 . S
O24 C10 1.256 1_556 S
O25 Gd0 2.717 1_554 S
O25 Gd1 2.327 . S
O25 C10 1.257 . S
O26 Gd1 2.377 . S
O26 C11 1.240 . S
O27 Gd0 2.395 1_554 S
O27 C11 1.240 . S
O28 Gd1 2.448 . S
O28 C12 1.249 . S
O29 Gd1 2.506 . S
O29 C12 1.252 . S
O30 Gd1 2.435 . S
O30 C19 1.256 1_554 S
O31 Gd0 2.327 . S
O31 Gd1 2.717 1_556 S
O31 C19 1.257 . S
H32 C5 0.930 1_655 S
H33 C6 0.931 . S
H34 C8 0.931 . S
H35 C9 0.931 1_655 S
H36 C14 0.930 . S
H37 C15 0.931 . S
H38 C17 0.931 . S
H39 C18 0.931 . S
Gd40 C43 2.818 . S
Gd40 O60 2.377 . S
Gd40 O62 2.448 . S
Gd40 O63 2.506 . S
Gd40 O64 2.435 . S
Gd40 O65 2.717 . S
Gd40 O67 2.395 . S
Gd40 O71 2.327 . S
Gd41 C52 2.818 . S
Gd41 O61 2.395 . S
Gd41 O65 2.327 . S
Gd41 O66 2.377 . S
Gd41 O68 2.448 . S
Gd41 O69 2.506 . S
Gd41 O70 2.435 . S
Gd41 O71 2.717 . S
C42 O60 1.240 . S
C42 O61 1.240 . S
C43 Gd40 2.818 . S
C43 C44 1.510 . S
C43 O62 1.249 . S
C43 O63 1.252 . S
C44 C43 1.510 . S
C44 C45 1.404 . S
C44 C46 1.352 . S
C45 C44 1.404 . S
C45 C49 1.374 1_554 S
C45 H72 0.930 1_545 S
C46 C44 1.352 . S
C46 C48 1.374 1_554 S
C46 H73 0.931 . S
C47 C48 1.359 . S
C47 C49 1.374 . S
C48 C46 1.374 1_556 S
C48 C47 1.359 . S
C48 H74 0.931 . S
C49 C45 1.374 1_556 S
C49 C47 1.374 . S
C49 H75 0.936 1_545 S
C50 O64 1.256 . S
C50 O65 1.257 . S
C51 O66 1.240 . S
C51 O67 1.240 . S
C52 Gd41 2.818 . S
C52 C53 1.510 . S
C52 O68 1.249 . S
C52 O69 1.252 . S
C53 C52 1.510 . S
C53 C54 1.404 . S
C53 C55 1.352 . S
C54 C53 1.404 . S
C54 C58 1.389 . S
C54 H76 0.930 . S
C55 C53 1.352 . S
C55 C57 1.374 . S
C55 H77 0.931 . S
C56 C57 1.359 . S
C56 C58 1.364 . S
C57 C55 1.374 . S
C57 C56 1.359 . S
C57 H78 0.931 . S
C58 C54 1.389 . S
C58 C56 1.364 . S
C58 H79 0.931 . S
C59 O70 1.256 . S
C59 O71 1.257 . S
O60 Gd40 2.377 . S
O60 C42 1.240 . S
O61 Gd41 2.395 . S
O61 C42 1.240 . S
O62 Gd40 2.448 . S
O62 C43 1.249 . S
O63 Gd40 2.506 . S
O63 C43 1.252 . S
O64 Gd40 2.435 . S
O64 C50 1.256 . S
O65 Gd40 2.717 . S
O65 Gd41 2.327 . S
O65 C50 1.257 . S
O66 Gd41 2.377 . S
O66 C51 1.240 . S
O67 Gd40 2.395 . S
O67 C51 1.240 . S
O68 Gd41 2.448 . S
O68 C52 1.249 . S
O69 Gd41 2.506 . S
O69 C52 1.252 . S
O70 Gd41 2.435 . S
O70 C59 1.256 . S
O71 Gd40 2.327 . S
O71 Gd41 2.717 . S
O71 C59 1.257 . S
H72 C45 0.930 1_565 S
H73 C46 0.931 . S
H74 C48 0.931 . S
H75 C49 0.936 1_565 S
H76 C54 0.930 . S
H77 C55 0.931 . S
H78 C57 0.931 . S
H79 C58 0.931 . S
Gd80 C83 2.818 . S
Gd80 O100 2.377 . S
Gd80 O102 2.448 . S
Gd80 O103 2.506 . S
Gd80 O104 2.435 . S
Gd80 O105 2.717 . S
Gd80 O107 2.395 . S
Gd80 O111 2.327 . S
Gd81 C92 2.818 . S
Gd81 O101 2.395 . S
Gd81 O105 2.327 . S
Gd81 O106 2.377 . S
Gd81 O108 2.448 . S
Gd81 O109 2.506 . S
Gd81 O110 2.435 . S
Gd81 O111 2.717 . S
C82 O100 1.240 . S
C82 O101 1.240 . S
C83 Gd80 2.818 . S
C83 C84 1.510 . S
C83 O102 1.249 . S
C83 O103 1.252 . S
C84 C83 1.510 . S
C84 C85 1.404 . S
C84 C86 1.352 . S
C85 C84 1.404 . S
C85 C89 1.389 . S
C85 H112 0.930 . S
C86 C84 1.352 . S
C86 C88 1.374 . S
C86 H113 0.931 . S
C87 C88 1.359 . S
C87 C89 1.364 . S
C88 C86 1.374 . S
C88 C87 1.359 . S
C88 H114 0.931 . S
C89 C85 1.389 . S
C89 C87 1.364 . S
C89 H115 0.931 . S
C90 O104 1.256 . S
C90 O105 1.257 . S
C91 O106 1.240 . S
C91 O107 1.240 . S
C92 Gd81 2.818 . S
C92 C93 1.510 . S
C92 O108 1.249 . S
C92 O109 1.252 . S
C93 C92 1.510 . S
C93 C94 1.404 . S
C93 C95 1.352 . S
C94 C93 1.404 . S
C94 C98 1.389 1_556 S
C94 H116 0.930 . S
C95 C93 1.352 . S
C95 C97 1.374 1_556 S
C95 H117 0.931 . S
C96 C97 1.359 . S
C96 C98 1.364 . S
C97 C95 1.374 1_554 S
C97 C96 1.359 . S
C97 H118 0.931 . S
C98 C94 1.389 1_554 S
C98 C96 1.364 . S
C98 H119 0.931 . S
C99 O110 1.256 . S
C99 O111 1.257 . S
O100 Gd80 2.377 . S
O100 C82 1.240 . S
O101 Gd81 2.395 . S
O101 C82 1.240 . S
O102 Gd80 2.448 . S
O102 C83 1.249 . S
O103 Gd80 2.506 . S
O103 C83 1.252 . S
O104 Gd80 2.435 . S
O104 C90 1.256 . S
O105 Gd80 2.717 . S
O105 Gd81 2.327 . S
O105 C90 1.257 . S
O106 Gd81 2.377 . S
O106 C91 1.240 . S
O107 Gd80 2.395 . S
O107 C91 1.240 . S
O108 Gd81 2.448 . S
O108 C92 1.249 . S
O109 Gd81 2.506 . S
O109 C92 1.252 . S
O110 Gd81 2.435 . S
O110 C99 1.256 . S
O111 Gd80 2.327 . S
O111 Gd81 2.717 . S
O111 C99 1.257 . S
H112 C85 0.930 . S
H113 C86 0.931 . S
H114 C88 0.931 . S
H115 C89 0.931 . S
H116 C94 0.930 . S
H117 C95 0.931 . S
H118 C97 0.931 . S
H119 C98 0.931 . S
Gd120 C123 2.818 . S
Gd120 O140 2.377 . S
Gd120 O142 2.448 . S
Gd120 O143 2.506 . S
Gd120 O144 2.435 . S
Gd120 O145 2.717 1_556 S
Gd120 O147 2.395 1_556 S
Gd120 O151 2.327 . S
Gd121 C132 2.818 . S
Gd121 O141 2.395 1_554 S
Gd121 O145 2.327 . S
Gd121 O146 2.377 . S
Gd121 O148 2.448 . S
Gd121 O149 2.506 . S
Gd121 O150 2.435 . S
Gd121 O151 2.717 1_554 S
C122 O140 1.240 . S
C122 O141 1.240 . S
C123 Gd120 2.818 . S
C123 C124 1.510 . S
C123 O142 1.249 . S
C123 O143 1.252 . S
C124 C123 1.510 . S
C124 C125 1.404 . S
C124 C126 1.352 . S
C125 C124 1.404 . S
C125 C129 1.389 . S
C125 H152 0.930 1_655 S
C126 C124 1.352 . S
C126 C128 1.374 . S
C126 H153 0.931 . S
C127 C128 1.359 . S
C127 C129 1.364 . S
C128 C126 1.374 . S
C128 C127 1.359 . S
C128 H154 0.931 . S
C129 C125 1.389 . S
C129 C127 1.364 . S
C129 H155 0.931 1_655 S
C130 O144 1.256 1_554 S
C130 O145 1.257 . S
C131 O146 1.240 . S
C131 O147 1.240 . S
C132 Gd121 2.818 . S
C132 C133 1.510 . S
C132 O148 1.249 . S
C132 O149 1.252 . S
C133 C132 1.510 . S
C133 C134 1.404 . S
C133 C135 1.352 . S
C134 C133 1.404 . S
C134 C138 1.389 . S
C134 H156 0.930 . S
C135 C133 1.352 . S
C135 C137 1.374 . S
C135 H157 0.931 . S
C136 C137 1.359 . S
C136 C138 1.364 . S
C137 C135 1.374 . S
C137 C136 1.359 . S
C137 H158 0.931 . S
C138 C134 1.389 . S
C138 C136 1.364 . S
C138 H159 0.931 . S
C139 O150 1.256 1_556 S
C139 O151 1.257 . S
O140 Gd120 2.377 . S
O140 C122 1.240 . S
O141 Gd121 2.395 1_556 S
O141 C122 1.240 . S
O142 Gd120 2.448 . S
O142 C123 1.249 . S
O143 Gd120 2.506 . S
O143 C123 1.252 . S
O144 Gd120 2.435 . S
O144 C130 1.256 1_556 S
O145 Gd120 2.717 1_554 S
O145 Gd121 2.327 . S
O145 C130 1.257 . S
O146 Gd121 2.377 . S
O146 C131 1.240 . S
O147 Gd120 2.395 1_554 S
O147 C131 1.240 . S
O148 Gd121 2.448 . S
O148 C132 1.249 . S
O149 Gd121 2.506 . S
O149 C132 1.252 . S
O150 Gd121 2.435 . S
O150 C139 1.256 1_554 S
O151 Gd120 2.327 . S
O151 Gd121 2.717 1_556 S
O151 C139 1.257 . S
H152 C125 0.930 1_455 S
H153 C126 0.931 . S
H154 C128 0.931 . S
H155 C129 0.931 1_455 S
H156 C134 0.930 . S
H157 C135 0.931 . S
H158 C137 0.931 . S
H159 C138 0.931 . S
Gd160 C163 2.818 . S
Gd160 O180 2.377 . S
Gd160 O182 2.448 . S
Gd160 O183 2.506 . S
Gd160 O184 2.435 . S
Gd160 O185 2.717 . S
Gd160 O187 2.395 . S
Gd160 O191 2.327 . S
Gd161 C172 2.818 . S
Gd161 O181 2.395 . S
Gd161 O185 2.327 . S
Gd161 O186 2.377 . S
Gd161 O188 2.448 . S
Gd161 O189 2.506 . S
Gd161 O190 2.435 . S
Gd161 O191 2.717 . S
C162 O180 1.240 . S
C162 O181 1.240 . S
C163 Gd160 2.818 . S
C163 C164 1.510 . S
C163 O182 1.249 . S
C163 O183 1.252 . S
C164 C163 1.510 . S
C164 C165 1.404 . S
C164 C166 1.352 . S
C165 C164 1.404 . S
C165 C169 1.374 1_554 S
C165 H192 0.930 1_565 S
C166 C164 1.352 . S
C166 C168 1.374 1_554 S
C166 H193 0.931 . S
C167 C168 1.359 . S
C167 C169 1.374 . S
C168 C166 1.374 1_556 S
C168 C167 1.359 . S
C168 H194 0.931 . S
C169 C165 1.374 1_556 S
C169 C167 1.374 . S
C169 H195 0.936 1_565 S
C170 O184 1.256 . S
C170 O185 1.257 . S
C171 O186 1.240 . S
C171 O187 1.240 . S
C172 Gd161 2.818 . S
C172 C173 1.510 . S
C172 O188 1.249 . S
C172 O189 1.252 . S
C173 C172 1.510 . S
C173 C174 1.404 . S
C173 C175 1.352 . S
C174 C173 1.404 . S
C174 C178 1.389 . S
C174 H196 0.930 . S
C175 C173 1.352 . S
C175 C177 1.374 . S
C175 H197 0.931 . S
C176 C177 1.359 . S
C176 C178 1.364 . S
C177 C175 1.374 . S
C177 C176 1.359 . S
C177 H198 0.931 . S
C178 C174 1.389 . S
C178 C176 1.364 . S
C178 H199 0.931 . S
C179 O190 1.256 . S
C179 O191 1.257 . S
O180 Gd160 2.377 . S
O180 C162 1.240 . S
O181 Gd161 2.395 . S
O181 C162 1.240 . S
O182 Gd160 2.448 . S
O182 C163 1.249 . S
O183 Gd160 2.506 . S
O183 C163 1.252 . S
O184 Gd160 2.435 . S
O184 C170 1.256 . S
O185 Gd160 2.717 . S
O185 Gd161 2.327 . S
O185 C170 1.257 . S
O186 Gd161 2.377 . S
O186 C171 1.240 . S
O187 Gd160 2.395 . S
O187 C171 1.240 . S
O188 Gd161 2.448 . S
O188 C172 1.249 . S
O189 Gd161 2.506 . S
O189 C172 1.252 . S
O190 Gd161 2.435 . S
O190 C179 1.256 . S
O191 Gd160 2.327 . S
O191 Gd161 2.717 . S
O191 C179 1.257 . S
H192 C165 0.930 1_545 S
H193 C166 0.931 . S
H194 C168 0.931 . S
H195 C169 0.936 1_545 S
H196 C174 0.930 . S
H197 C175 0.931 . S
H198 C177 0.931 . S
H199 C178 0.931 . S
Gd200 C203 2.818 . S
Gd200 O220 2.377 . S
Gd200 O222 2.448 . S
Gd200 O223 2.506 . S
Gd200 O224 2.435 . S
Gd200 O225 2.717 . S
Gd200 O227 2.395 . S
Gd200 O231 2.327 . S
Gd201 C212 2.818 . S
Gd201 O221 2.395 . S
Gd201 O225 2.327 . S
Gd201 O226 2.377 . S
Gd201 O228 2.448 . S
Gd201 O229 2.506 . S
Gd201 O230 2.435 . S
Gd201 O231 2.717 . S
C202 O220 1.240 . S
C202 O221 1.240 . S
C203 Gd200 2.818 . S
C203 C204 1.510 . S
C203 O222 1.249 . S
C203 O223 1.252 . S
C204 C203 1.510 . S
C204 C205 1.404 . S
C204 C206 1.352 . S
C205 C204 1.404 . S
C205 C209 1.389 . S
C205 H232 0.930 . S
C206 C204 1.352 . S
C206 C208 1.374 . S
C206 H233 0.931 . S
C207 C208 1.359 . S
C207 C209 1.364 . S
C208 C206 1.374 . S
C208 C207 1.359 . S
C208 H234 0.931 . S
C209 C205 1.389 . S
C209 C207 1.364 . S
C209 H235 0.931 . S
C210 O224 1.256 . S
C210 O225 1.257 . S
C211 O226 1.240 . S
C211 O227 1.240 . S
C212 Gd201 2.818 . S
C212 C213 1.510 . S
C212 O228 1.249 . S
C212 O229 1.252 . S
C213 C212 1.510 . S
C213 C214 1.404 . S
C213 C215 1.352 . S
C214 C213 1.404 . S
C214 C218 1.389 1_556 S
C214 H236 0.930 . S
C215 C213 1.352 . S
C215 C217 1.374 1_556 S
C215 H237 0.931 . S
C216 C217 1.359 . S
C216 C218 1.364 . S
C217 C215 1.374 1_554 S
C217 C216 1.359 . S
C217 H238 0.931 . S
C218 C214 1.389 1_554 S
C218 C216 1.364 . S
C218 H239 0.931 . S
C219 O230 1.256 . S
C219 O231 1.257 . S
O220 Gd200 2.377 . S
O220 C202 1.240 . S
O221 Gd201 2.395 . S
O221 C202 1.240 . S
O222 Gd200 2.448 . S
O222 C203 1.249 . S
O223 Gd200 2.506 . S
O223 C203 1.252 . S
O224 Gd200 2.435 . S
O224 C210 1.256 . S
O225 Gd200 2.717 . S
O225 Gd201 2.327 . S
O225 C210 1.257 . S
O226 Gd201 2.377 . S
O226 C211 1.240 . S
O227 Gd200 2.395 . S
O227 C211 1.240 . S
O228 Gd201 2.448 . S
O228 C212 1.249 . S
O229 Gd201 2.506 . S
O229 C212 1.252 . S
O230 Gd201 2.435 . S
O230 C219 1.256 . S
O231 Gd200 2.327 . S
O231 Gd201 2.717 . S
O231 C219 1.257 . S
H232 C205 0.930 . S
H233 C206 0.931 . S
H234 C208 0.931 . S
H235 C209 0.931 . S
H236 C214 0.930 . S
H237 C215 0.931 . S
H238 C217 0.931 . S
H239 C218 0.931 . S
C240 C241 1.387 . S
C240 H244 0.950 . S
C240 C249 1.390 . S
C241 C240 1.387 . S
C241 C243 1.387 . S
H242 C249 0.950 . S
C243 C241 1.387 . S
C243 C245 1.390 . S
C243 H247 0.950 . S
H244 C240 0.950 . S
C245 C243 1.390 . S
C245 C246 1.387 . S
C245 H248 0.950 . S
C246 C245 1.387 . S
C246 C249 1.387 . S
H247 C243 0.950 . S
H248 C245 0.950 . S
C249 C240 1.390 . S
C249 H242 0.950 . S
C249 C246 1.387 . S
C250 C251 1.387 1_655 S
C250 H254 0.950 . S
C250 C259 1.390 . S
C251 C250 1.387 1_455 S
C251 C253 1.387 . S
H252 C259 0.950 . S
C253 C251 1.387 . S
C253 C255 1.390 . S
C253 H257 0.950 . S
H254 C250 0.950 . S
C255 C253 1.390 . S
C255 C256 1.387 1_455 S
C255 H258 0.950 . S
C256 C255 1.387 1_655 S
C256 C259 1.387 . S
H257 C253 0.950 . S
H258 C255 0.950 . S
C259 C250 1.390 . S
C259 H252 0.950 . S
C259 C256 1.387 . S
C260 C261 1.387 . S
C260 H264 0.950 . S
C260 C269 1.390 1_545 S
C261 C260 1.387 . S
C261 C263 1.387 . S
H262 C269 0.950 . S
C263 C261 1.387 . S
C263 C265 1.390 1_545 S
C263 H267 0.950 . S
H264 C260 0.950 . S
C265 C263 1.390 1_565 S
C265 C266 1.387 . S
C265 H268 0.950 . S
C266 C265 1.387 . S
C266 C269 1.387 . S
H267 C263 0.950 . S
H268 C265 0.950 . S
C269 C260 1.390 1_565 S
C269 H262 0.950 . S
C269 C266 1.387 . S
C270 C271 1.387 . S
C270 H274 0.950 . S
C270 C279 1.390 . S
C271 C270 1.387 . S
C271 C273 1.387 . S
H272 C279 0.950 . S
C273 C271 1.387 . S
C273 C275 1.390 . S
C273 H277 0.950 . S
H274 C270 0.950 . S
C275 C273 1.390 . S
C275 C276 1.387 . S
C275 H278 0.950 . S
C276 C275 1.387 . S
C276 C279 1.387 . S
H277 C273 0.950 . S
H278 C275 0.950 . S
C279 C270 1.390 . S
C279 H272 0.950 . S
C279 C276 1.387 . S
C280 C281 1.387 1_655 S
C280 H284 0.950 . S
C280 C289 1.390 . S
C281 C280 1.387 1_455 S
C281 C283 1.387 . S
H282 C289 0.950 . S
C283 C281 1.387 . S
C283 C285 1.390 . S
C283 H287 0.950 . S
H284 C280 0.950 . S
C285 C283 1.390 . S
C285 C286 1.387 1_455 S
C285 H288 0.950 . S
C286 C285 1.387 1_655 S
C286 C289 1.387 . S
H287 C283 0.950 . S
H288 C285 0.950 . S
C289 C280 1.390 . S
C289 H282 0.950 . S
C289 C286 1.387 . S
C290 C291 1.387 . S
C290 H294 0.950 . S
C290 C299 1.390 1_545 S
C291 C290 1.387 . S
C291 C293 1.387 . S
H292 C299 0.950 . S
C293 C291 1.387 . S
C293 C295 1.390 1_545 S
C293 H297 0.950 . S
H294 C290 0.950 . S
C295 C293 1.390 1_565 S
C295 C296 1.387 . S
C295 H298 0.950 . S
C296 C295 1.387 . S
C296 C299 1.387 . S
H297 C293 0.950 . S
H298 C295 0.950 . S
C299 C290 1.390 1_565 S
C299 H292 0.950 . S
C299 C296 1.387 . S
C300 C301 1.387 . S
C300 H304 0.950 . S
C300 C309 1.390 . S
C301 C300 1.387 . S
C301 C303 1.387 . S
H302 C309 0.950 . S
C303 C301 1.387 . S
C303 C305 1.390 . S
C303 H307 0.950 . S
H304 C300 0.950 . S
C305 C303 1.390 . S
C305 C306 1.387 . S
C305 H308 0.950 . S
C306 C305 1.387 . S
C306 C309 1.387 . S
H307 C303 0.950 . S
H308 C305 0.950 . S
C309 C300 1.390 . S
C309 H302 0.950 . S
C309 C306 1.387 . S
C310 C311 1.387 . S
C310 H314 0.950 . S
C310 C319 1.390 . S
C311 C310 1.387 . S
C311 C313 1.387 . S
H312 C319 0.950 . S
C313 C311 1.387 . S
C313 C315 1.390 . S
C313 H317 0.950 . S
H314 C310 0.950 . S
C315 C313 1.390 . S
C315 C316 1.387 . S
C315 H318 0.950 . S
C316 C315 1.387 . S
C316 C319 1.387 . S
H317 C313 0.950 . S
H318 C315 0.950 . S
C319 C310 1.390 . S
C319 H312 0.950 . S
C319 C316 1.387 . S
C320 C321 1.387 . S
C320 H324 0.950 . S
C320 C329 1.390 . S
C321 C320 1.387 . S
C321 C323 1.387 . S
H322 C329 0.950 . S
C323 C321 1.387 . S
C323 C325 1.390 . S
C323 H327 0.950 . S
H324 C320 0.950 . S
C325 C323 1.390 . S
C325 C326 1.387 . S
C325 H328 0.950 . S
C326 C325 1.387 . S
C326 C329 1.387 . S
H327 C323 0.950 . S
H328 C325 0.950 . S
C329 C320 1.390 . S
C329 H322 0.950 . S
C329 C326 1.387 . S
C330 C331 1.387 . S
C330 H334 0.950 . S
C330 C339 1.390 . S
C331 C330 1.387 . S
C331 C333 1.387 . S
H332 C339 0.950 . S
C333 C331 1.387 . S
C333 C335 1.390 . S
C333 H337 0.950 . S
H334 C330 0.950 . S
C335 C333 1.390 . S
C335 C336 1.387 . S
C335 H338 0.950 . S
C336 C335 1.387 . S
C336 C339 1.387 . S
H337 C333 0.950 . S
H338 C335 0.950 . S
C339 C330 1.390 . S
C339 H332 0.950 . S
C339 C336 1.387 . S
C340 C341 1.387 . S
C340 H344 0.950 . S
C340 C349 1.390 . S
C341 C340 1.387 . S
C341 C343 1.387 . S
H342 C349 0.950 . S
C343 C341 1.387 . S
C343 C345 1.390 . S
C343 H347 0.950 . S
H344 C340 0.950 . S
C345 C343 1.390 . S
C345 C346 1.387 . S
C345 H348 0.950 . S
C346 C345 1.387 . S
C346 C349 1.387 . S
H347 C343 0.950 . S
H348 C345 0.950 . S
C349 C340 1.390 . S
C349 H342 0.950 . S
C349 C346 1.387 . S
C350 C351 1.387 . S
C350 H354 0.950 . S
C350 C359 1.390 . S
C351 C350 1.387 . S
C351 C353 1.387 . S
H352 C359 0.950 . S
C353 C351 1.387 . S
C353 C355 1.390 . S
C353 H357 0.950 . S
H354 C350 0.950 . S
C355 C353 1.390 . S
C355 C356 1.387 . S
C355 H358 0.950 . S
C356 C355 1.387 . S
C356 C359 1.387 . S
H357 C353 0.950 . S
H358 C355 0.950 . S
C359 C350 1.390 . S
C359 H352 0.950 . S
C359 C356 1.387 . S
C360 C361 1.387 . S
C360 H364 0.950 . S
C360 C369 1.390 . S
C361 C360 1.387 . S
C361 C363 1.387 . S
H362 C369 0.950 . S
C363 C361 1.387 . S
C363 C365 1.390 . S
C363 H367 0.950 . S
H364 C360 0.950 . S
C365 C363 1.390 . S
C365 C366 1.387 . S
C365 H368 0.950 . S
C366 C365 1.387 . S
C366 C369 1.387 . S
H367 C363 0.950 . S
H368 C365 0.950 . S
C369 C360 1.390 . S
C369 H362 0.950 . S
C369 C366 1.387 . S
C370 C371 1.387 . S
C370 H374 0.950 . S
C370 C379 1.390 . S
C371 C370 1.387 . S
C371 C373 1.387 . S
H372 C379 0.950 . S
C373 C371 1.387 . S
C373 C375 1.390 . S
C373 H377 0.950 . S
H374 C370 0.950 . S
C375 C373 1.390 . S
C375 C376 1.387 . S
C375 H378 0.950 . S
C376 C375 1.387 . S
C376 C379 1.387 . S
H377 C373 0.950 . S
H378 C375 0.950 . S
C379 C370 1.390 . S
C379 H372 0.950 . S
C379 C376 1.387 . S
C380 C381 1.387 . S
C380 H384 0.950 . S
C380 C389 1.390 . S
C381 C380 1.387 . S
C381 C383 1.387 . S
H382 C389 0.950 . S
C383 C381 1.387 . S
C383 C385 1.390 . S
C383 H387 0.950 . S
H384 C380 0.950 . S
C385 C383 1.390 . S
C385 C386 1.387 . S
C385 H388 0.950 . S
C386 C385 1.387 . S
C386 C389 1.387 . S
H387 C383 0.950 . S
H388 C385 0.950 . S
C389 C380 1.390 . S
C389 H382 0.950 . S
C389 C386 1.387 . S
C390 C391 1.387 . S
C390 H394 0.950 . S
C390 C399 1.390 . S
C391 C390 1.387 . S
C391 C393 1.387 . S
H392 C399 0.950 . S
C393 C391 1.387 . S
C393 C395 1.390 . S
C393 H397 0.950 . S
H394 C390 0.950 . S
C395 C393 1.390 . S
C395 C396 1.387 . S
C395 H398 0.950 . S
C396 C395 1.387 . S
C396 C399 1.387 . S
H397 C393 0.950 . S
H398 C395 0.950 . S
C399 C390 1.390 . S
C399 H392 0.950 . S
C399 C396 1.387 . S
C400 C401 1.387 . S
C400 H404 0.950 . S
C400 C409 1.390 . S
C401 C400 1.387 . S
C401 C403 1.387 . S
H402 C409 0.950 . S
C403 C401 1.387 . S
C403 C405 1.390 . S
C403 H407 0.950 . S
H404 C400 0.950 . S
C405 C403 1.390 . S
C405 C406 1.387 . S
C405 H408 0.950 . S
C406 C405 1.387 . S
C406 C409 1.387 . S
H407 C403 0.950 . S
H408 C405 0.950 . S
C409 C400 1.390 . S
C409 H402 0.950 . S
C409 C406 1.387 . S
C410 C411 1.387 . S
C410 H414 0.950 . S
C410 C419 1.390 . S
C411 C410 1.387 . S
C411 C413 1.387 . S
H412 C419 0.950 . S
C413 C411 1.387 . S
C413 C415 1.390 . S
C413 H417 0.950 . S
H414 C410 0.950 . S
C415 C413 1.390 . S
C415 C416 1.387 . S
C415 H418 0.950 . S
C416 C415 1.387 . S
C416 C419 1.387 . S
H417 C413 0.950 . S
H418 C415 0.950 . S
C419 C410 1.390 . S
C419 H412 0.950 . S
C419 C416 1.387 . S
C241 C210 1.518 . S
C246 C2 1.549 . S
C251 C10 1.516 . S
C256 C42 1.550 . S
C261 C50 1.517 . S
C266 C82 1.550 . S
C271 C90 1.516 . S
C276 C122 1.548 . S
C281 C162 1.548 . S
C286 C130 1.517 . S
C291 C202 1.550 . S
C296 C170 1.517 . S
C301 C7 2.130 . S
C306 C16 2.130 . S
C311 C47 2.129 . S
C316 C56 2.129 . S
C321 C87 2.132 . S
C326 C96 2.132 . S
C331 C127 2.131 . S
C336 C136 2.131 . S
C341 C176 2.129 . S
C346 C167 2.129 . S
C351 C207 2.132 . S
C356 C216 2.132 . S
C361 C11 1.765 . S
C366 C179 1.769 . S
C371 C51 1.766 . S
C376 C219 1.770 . S
C381 C19 1.770 . S
C386 C91 1.766 . S
C391 C59 1.770 . S
C396 C131 1.766 . S
C401 C171 1.766 . S
C406 C99 1.770 . S
C411 C139 1.770 . S
C416 C211 1.766 . S
