# Generated by pormake.
# Topology uoq, (4)-cn, num edge types: 1
# Building blocks:
#     Node 0, Type 0, BuildingBlock: QUQFOY_clean_sbu_1, # of connection points: 4
#     Node 1, Type 0, BuildingBlock: QUQFOY_clean_sbu_1, # of connection points: 4
#     Node 2, Type 0, BuildingBlock: QUQFOY_clean_sbu_1, # of connection points: 4
#     Node 3, Type 0, BuildingBlock: QUQFOY_clean_sbu_1, # of connection points: 4
#     Node 4, Type 0, BuildingBlock: QUQFOY_clean_sbu_1, # of connection points: 4
#     Node 5, Type 0, BuildingBlock: QUQFOY_clean_sbu_1, # of connection points: 4
#     Node 6, Type 0, BuildingBlock: QUQFOY_clean_sbu_1, # of connection points: 4
#     Node 7, Type 0, BuildingBlock: QUQFOY_clean_sbu_1, # of connection points: 4
#     Node 8, Type 0, BuildingBlock: QUQFOY_clean_sbu_1, # of connection points: 4
#     Node 9, Type 0, BuildingBlock: QUQFOY_clean_sbu_1, # of connection points: 4
#     Node 10, Type 0, BuildingBlock: QUQFOY_clean_sbu_1, # of connection points: 4
#     Node 11, Type 0, BuildingBlock: QUQFOY_clean_sbu_1, # of connection points: 4
#     Edge 12, Type (0, 0), BuildingBlock: CIFDUS_clean_linker_0, # of connection points: 2
#     Edge 13, Type (0, 0), BuildingBlock: CIFDUS_clean_linker_0, # of connection points: 2
#     Edge 14, Type (0, 0), BuildingBlock: CIFDUS_clean_linker_0, # of connection points: 2
#     Edge 15, Type (0, 0), BuildingBlock: CIFDUS_clean_linker_0, # of connection points: 2
#     Edge 16, Type (0, 0), BuildingBlock: CIFDUS_clean_linker_0, # of connection points: 2
#     Edge 17, Type (0, 0), BuildingBlock: CIFDUS_clean_linker_0, # of connection points: 2
#     Edge 18, Type (0, 0), BuildingBlock: CIFDUS_clean_linker_0, # of connection points: 2
#     Edge 19, Type (0, 0), BuildingBlock: CIFDUS_clean_linker_0, # of connection points: 2
#     Edge 20, Type (0, 0), BuildingBlock: CIFDUS_clean_linker_0, # of connection points: 2
#     Edge 21, Type (0, 0), BuildingBlock: CIFDUS_clean_linker_0, # of connection points: 2
#     Edge 22, Type (0, 0), BuildingBlock: CIFDUS_clean_linker_0, # of connection points: 2
#     Edge 23, Type (0, 0), BuildingBlock: CIFDUS_clean_linker_0, # of connection points: 2
#     Edge 24, Type (0, 0), BuildingBlock: CIFDUS_clean_linker_0, # of connection points: 2
#     Edge 25, Type (0, 0), BuildingBlock: CIFDUS_clean_linker_0, # of connection points: 2
#     Edge 26, Type (0, 0), BuildingBlock: CIFDUS_clean_linker_0, # of connection points: 2
#     Edge 27, Type (0, 0), BuildingBlock: CIFDUS_clean_linker_0, # of connection points: 2
#     Edge 28, Type (0, 0), BuildingBlock: CIFDUS_clean_linker_0, # of connection points: 2
#     Edge 29, Type (0, 0), BuildingBlock: CIFDUS_clean_linker_0, # of connection points: 2
#     Edge 30, Type (0, 0), BuildingBlock: CIFDUS_clean_linker_0, # of connection points: 2
#     Edge 31, Type (0, 0), BuildingBlock: CIFDUS_clean_linker_0, # of connection points: 2
#     Edge 32, Type (0, 0), BuildingBlock: CIFDUS_clean_linker_0, # of connection points: 2
#     Edge 33, Type (0, 0), BuildingBlock: CIFDUS_clean_linker_0, # of connection points: 2
#     Edge 34, Type (0, 0), BuildingBlock: CIFDUS_clean_linker_0, # of connection points: 2
#     Edge 35, Type (0, 0), BuildingBlock: CIFDUS_clean_linker_0, # of connection points: 2
# Relax obj value: 0.142
# Max RMSD: 0.204
# Mean RMSD: 0.204
data_MOF--net-uoq--node1-QUQFOY_clean_sbu_1--edge1-CIFDUS_clean_linker_0
_symmetry_space_group_name_H-M    P1
_symmetry_Int_Tables_number       1
_symmetry_cell_setting            triclinic
loop_
_symmetry_equiv_pos_as_xyz
'x, y, z'
_cell_length_a     56.89742
_cell_length_b     57.112053
_cell_length_c     20.76709
_cell_angle_alpha  90.009726
_cell_angle_beta   90.109798
_cell_angle_gamma 119.99114
loop_
_atom_site_label
_atom_site_type_symbol
_atom_site_fract_x
_atom_site_fract_y
_atom_site_fract_z
_atom_type_partial_charge
O0 O 0.26286 0.44144 0.31457 0.0
Cd1 Cd 0.28671 0.44999 0.23313 0.0
Cd2 Cd 0.30846 0.42457 0.31786 0.0
O3 O 0.27543 0.41686 0.37163 0.0
O4 O 0.27159 0.46764 0.17696 0.0
O5 O 0.26892 0.42889 0.15155 0.0
C6 C 0.26347 0.44769 0.13757 0.0
C7 C 0.32285 0.39279 0.31751 0.0
C8 C 0.26041 0.42719 0.36386 0.0
C9 C 0.3447 0.48268 0.27978 0.0
O10 O 0.33998 0.46362 0.31838 0.0
O11 O 0.32716 0.48014 0.23813 0.0
O12 O 0.32416 0.40616 0.36853 0.0
O13 O 0.31227 0.39667 0.26643 0.0
O14 O 0.80609 0.26375 0.63712 0.0
Cd15 Cd 0.81118 0.28915 0.56148 0.0
Cd16 Cd 0.86342 0.31937 0.62268 0.0
O17 O 0.84424 0.2895 0.68975 0.0
O18 O 0.77955 0.26586 0.50502 0.0
O19 O 0.82221 0.28288 0.47384 0.0
C20 C 0.79662 0.26807 0.46143 0.0
C21 C 0.90969 0.33423 0.61476 0.0
C22 C 0.82142 0.26807 0.68547 0.0
C23 C 0.83003 0.34675 0.59997 0.0
O24 O 0.85247 0.3485 0.61554 0.0
O25 O 0.8103 0.32453 0.57972 0.0
O26 O 0.89957 0.33923 0.66462 0.0
O27 O 0.89357 0.32115 0.56768 0.0
O28 O 0.50518 0.79408 0.98572 0.0
Cd29 Cd 0.50165 0.81106 0.90106 0.0
Cd30 Cd 0.53488 0.85741 0.98072 0.0
O31 O 0.54303 0.82935 0.02002 0.0
O32 O 0.479 0.7784 0.84759 0.0
O33 O 0.52125 0.80831 0.82245 0.0
C34 C 0.49936 0.78588 0.80964 0.0
C35 C 0.56975 0.90236 0.98773 0.0
C36 C 0.5257 0.80438 0.02276 0.0
C37 C 0.47789 0.84354 0.94792 0.0
O38 O 0.49661 0.8529 0.99008 0.0
O39 O 0.47864 0.82973 0.90092 0.0
O40 O 0.55664 0.88902 0.03782 0.0
O41 O 0.56342 0.88995 0.93297 0.0
O42 O 0.73125 0.55385 0.28941 0.0
Cd43 Cd 0.70099 0.53655 0.22079 0.0
Cd44 Cd 0.67966 0.56112 0.32083 0.0
O45 O 0.71691 0.57293 0.35988 0.0
O46 O 0.71751 0.51918 0.16857 0.0
O47 O 0.709 0.55002 0.12873 0.0
C48 C 0.71871 0.53407 0.12091 0.0
C49 C 0.66265 0.59061 0.33321 0.0
C50 C 0.73478 0.56753 0.34037 0.0
C51 C 0.64669 0.50124 0.28838 0.0
O52 O 0.65075 0.52085 0.32457 0.0
O53 O 0.66318 0.50409 0.24369 0.0
O54 O 0.66482 0.57758 0.38123 0.0
O55 O 0.67067 0.58732 0.27754 0.0
O56 O 0.1835 0.72904 0.65616 0.0
Cd57 Cd 0.1717 0.69968 0.58719 0.0
Cd58 Cd 0.12361 0.67733 0.6705 0.0
O59 O 0.14761 0.71272 0.71972 0.0
O60 O 0.20505 0.7146 0.53371 0.0
O61 O 0.16652 0.71042 0.49779 0.0
C62 C 0.19178 0.71819 0.48841 0.0
C63 C 0.07789 0.66374 0.65676 0.0
C64 C 0.17142 0.73116 0.70516 0.0
C65 C 0.15099 0.64433 0.64868 0.0
O66 O 0.13235 0.64653 0.67667 0.0
O67 O 0.16767 0.66274 0.61128 0.0
O68 O 0.08745 0.6623 0.71197 0.0
O69 O 0.09455 0.67346 0.60894 0.0
O70 O 0.4689 0.18895 0.00635 0.0
Cd71 Cd 0.47785 0.17055 0.9326 0.0
Cd72 Cd 0.45177 0.1283 0.02295 0.0
O73 O 0.4439 0.15467 0.07085 0.0
O74 O 0.49619 0.20186 0.87318 0.0
O75 O 0.45713 0.16559 0.84952 0.0
C76 C 0.47591 0.18972 0.83454 0.0
C77 C 0.41702 0.08408 0.00787 0.0
C78 C 0.45429 0.17941 0.0562 0.0
C79 C 0.50978 0.147 0.99279 0.0
O80 O 0.4903 0.13441 0.03181 0.0
O81 O 0.50778 0.16026 0.94595 0.0
O82 O 0.42793 0.09275 0.06364 0.0
O83 O 0.42566 0.10085 0.96018 0.0
O84 O 0.49975 0.69412 0.34441 0.0
Cd85 Cd 0.50328 0.67476 0.42457 0.0
Cd86 Cd 0.53278 0.66459 0.33356 0.0
O87 O 0.53574 0.69872 0.2935 0.0
O88 O 0.4858 0.68576 0.49176 0.0
O89 O 0.52915 0.69773 0.49526 0.0
C90 C 0.50902 0.69908 0.51982 0.0
C91 C 0.56966 0.65759 0.32188 0.0
C92 C 0.5171 0.70457 0.29963 0.0
C93 C 0.47838 0.61937 0.37515 0.0
O94 O 0.49543 0.6296 0.32963 0.0
O95 O 0.4806 0.63317 0.42509 0.0
O96 O 0.55483 0.65621 0.27357 0.0
O97 O 0.56401 0.66371 0.37739 0.0
O98 O 0.81064 0.54283 0.66159 0.0
Cd99 Cd 0.82017 0.52221 0.72779 0.0
Cd100 Cd 0.87102 0.55248 0.65526 0.0
O101 O 0.84814 0.56481 0.60425 0.0
O102 O 0.78724 0.50737 0.78296 0.0
O103 O 0.82847 0.53619 0.81897 0.0
C104 C 0.80265 0.52225 0.82902 0.0
C105 C 0.91683 0.58423 0.67022 0.0
C106 C 0.82388 0.55874 0.616 0.0
C107 C 0.84371 0.4908 0.66592 0.0
O108 O 0.86303 0.51331 0.64637 0.0
O109 O 0.82427 0.48964 0.69866 0.0
O110 O 0.90738 0.5736 0.61473 0.0
O111 O 0.90004 0.57718 0.71776 0.0
O112 O 0.26667 0.82015 0.0308 0.0
Cd113 Cd 0.29472 0.83755 0.10402 0.0
Cd114 Cd 0.31362 0.87903 0.00819 0.0
O115 O 0.27778 0.85388 0.96324 0.0
O116 O 0.2811 0.80548 0.16104 0.0
O117 O 0.27968 0.84204 0.18859 0.0
C118 C 0.27384 0.81762 0.20164 0.0
C119 C 0.32746 0.92447 0.02097 0.0
C120 C 0.26199 0.82965 0.98025 0.0
C121 C 0.35016 0.85778 0.04445 0.0
O122 O 0.34412 0.86985 0.0019 0.0
O123 O 0.33452 0.84629 0.09199 0.0
O124 O 0.32814 0.91466 0.96553 0.0
O125 O 0.31805 0.9081 0.06936 0.0
O126 O 0.47612 0.28224 0.38385 0.0
Cd127 Cd 0.48544 0.30971 0.45759 0.0
Cd128 Cd 0.457 0.32554 0.36532 0.0
O129 O 0.45054 0.29125 0.32004 0.0
O130 O 0.50726 0.29955 0.51386 0.0
O131 O 0.4671 0.29316 0.5424 0.0
C132 C 0.4878 0.29037 0.55486 0.0
C133 C 0.42059 0.33332 0.37005 0.0
C134 C 0.46114 0.27701 0.33443 0.0
C135 C 0.51464 0.36588 0.39824 0.0
O136 O 0.49511 0.35877 0.35893 0.0
O137 O 0.51332 0.35041 0.44383 0.0
O138 O 0.43329 0.33572 0.317 0.0
O139 O 0.42859 0.32637 0.42117 0.0
O140 O 0.17762 0.45587 0.66015 0.0
Cd141 Cd 0.1672 0.46957 0.74066 0.0
Cd142 Cd 0.11392 0.44165 0.6699 0.0
O143 O 0.13876 0.43671 0.60638 0.0
O144 O 0.20125 0.48703 0.79269 0.0
O145 O 0.16405 0.45042 0.82505 0.0
C146 C 0.18905 0.46851 0.83538 0.0
C147 C 0.06836 0.40779 0.6686 0.0
C148 C 0.16358 0.44342 0.61102 0.0
C149 C 0.13829 0.50073 0.70757 0.0
O150 O 0.11884 0.47939 0.68347 0.0
O151 O 0.15906 0.50096 0.73101 0.0
O152 O 0.07932 0.42383 0.62066 0.0
O153 O 0.0835 0.41045 0.71761 0.0
O154 O 0.72836 0.16878 0.98253 0.0
Cd155 Cd 0.70068 0.15759 0.05692 0.0
Cd156 Cd 0.67596 0.10896 0.97033 0.0
O157 O 0.71149 0.13187 0.92271 0.0
O158 O 0.71947 0.19089 0.11128 0.0
O159 O 0.70925 0.15051 0.14718 0.0
C160 C 0.72001 0.17614 0.15736 0.0
C161 C 0.65805 0.0622 0.96277 0.0
C162 C 0.72972 0.15608 0.93369 0.0
C163 C 0.64536 0.13888 -0.00301 0.0
O164 O 0.64768 0.1212 0.96503 0.0
O165 O 0.6632 0.15395 0.03797 0.0
O166 O 0.65907 0.07645 0.91386 0.0
O167 O 0.66746 0.07455 0.01688 0.0
H168 H 0.33959 0.37584 0.42049 0.0
H169 H 0.33523 0.37195 0.21293 0.0
H170 H 0.36354 0.3509 0.21148 0.0
H171 H 0.39346 0.33835 0.26856 0.0
H172 H 0.39806 0.34259 0.47607 0.0
H173 H 0.36549 0.35865 0.47818 0.0
C174 C 0.3445 0.37004 0.37494 0.0
C175 C 0.33564 0.37577 0.31684 0.0
C176 C 0.36103 0.35829 0.37446 0.0
C177 C 0.34187 0.36782 0.25829 0.0
C178 C 0.35819 0.35594 0.25742 0.0
C179 C 0.38714 0.34255 0.31431 0.0
C180 C 0.39846 0.33971 0.37205 0.0
C181 C 0.36853 0.35186 0.3151 0.0
C182 C 0.38976 0.34477 0.43097 0.0
C183 C 0.3712 0.35402 0.43218 0.0
H184 H 0.94281 0.34293 0.71587 0.0
H185 H 0.942 0.34671 0.50851 0.0
H186 H 0.99155 0.36778 0.50667 0.0
H187 H 0.03504 0.38898 0.56501 0.0
H188 H 0.03559 0.38419 0.77235 0.0
H189 H 0.98597 0.35913 0.77327 0.0
C190 C 0.9535 0.34817 0.67024 0.0
C191 C 0.93897 0.34377 0.61243 0.0
C192 C 0.98181 0.36005 0.66967 0.0
C193 C 0.95287 0.35008 0.55357 0.0
C194 C 0.98114 0.36217 0.55257 0.0
C195 C 0.02428 0.38211 0.61034 0.0
C196 C 0.03887 0.38871 0.66863 0.0
C197 C -0.00418 0.36783 0.61044 0.0
C198 C 0.02476 0.37938 0.72692 0.0
C199 C -0.00358 0.36522 0.72747 0.0
H200 H 0.59308 0.93865 0.89061 0.0
H201 H 0.59167 0.93128 0.09758 0.0
H202 H 0.62094 0.98008 0.10817 0.0
H203 H 0.64375 0.02524 0.0591 0.0
H204 H 0.64352 0.03261 0.85228 0.0
H205 H 0.61834 0.98356 0.84129 0.0
C206 C 0.59949 0.94769 0.93796 0.0
C207 C 0.59006 0.93139 0.99315 0.0
C208 C 0.6159 0.97584 0.94384 0.0
C209 C 0.5985 0.94341 0.05424 0.0
C210 C 0.61522 0.97133 0.06042 0.0
C211 C 0.63847 0.01609 0.01164 0.0
C212 C 0.64529 0.03254 0.95672 0.0
C213 C 0.62354 0.98782 0.00562 0.0
C214 C 0.6383 0.0204 0.89547 0.0
C215 C 0.62389 0.99233 0.88906 0.0
H216 H 0.64616 0.61276 0.23998 0.0
H217 H 0.64986 0.60575 0.44621 0.0
H218 H 0.62374 0.62858 0.46129 0.0
H219 H 0.59617 0.64664 0.41581 0.0
H220 H 0.5908 0.6518 0.20949 0.0
H221 H 0.62142 0.63394 0.1947 0.0
C222 C 0.64158 0.61658 0.28821 0.0
C223 C 0.64974 0.60735 0.34179 0.0
C224 C 0.62608 0.62927 0.2966 0.0
C225 C 0.64363 0.61244 0.40403 0.0
C226 C 0.62866 0.62549 0.41278 0.0
C227 C 0.60205 0.64426 0.36767 0.0
C228 C 0.59106 0.65034 0.3139 0.0
C229 C 0.61922 0.63341 0.3594 0.0
C230 C 0.59881 0.64707 0.25177 0.0
C231 C 0.6163 0.63682 0.2432 0.0
H232 H 0.95481 0.60768 0.57687 0.0
H233 H 0.94502 0.60187 0.78335 0.0
H234 H -0.00572 0.6278 0.79727 0.0
H235 H 0.03997 0.64881 0.75062 0.0
H236 H 0.04969 0.65452 0.5441 0.0
H237 H 0.00048 0.63208 0.53037 0.0
C238 C 0.96343 0.61228 0.62497 0.0
C239 C 0.9463 0.6026 0.67902 0.0
C240 C 0.99171 0.62704 0.63256 0.0
C241 C 0.95776 0.60902 0.74097 0.0
C242 C 0.98592 0.62375 0.74895 0.0
C243 C 0.03135 0.64536 0.70258 0.0
C244 C 0.04845 0.65305 0.64842 0.0
C245 C 0.00307 0.63235 0.69507 0.0
C246 C 0.03698 0.64873 0.58656 0.0
C247 C 0.00884 0.63581 0.57868 0.0
H248 H 0.34412 0.96239 0.92697 0.0
H249 H 0.33736 0.9527 0.13348 0.0
H250 H 0.36265 0.00175 0.14724 0.0
H251 H 0.39038 0.04692 0.10094 0.0
H252 H 0.39764 0.05666 0.89453 0.0
H253 H 0.36816 0.00793 0.88039 0.0
C254 C 0.34789 0.971 0.97501 0.0
C255 C 0.33918 0.95393 0.02917 0.0
C256 C 0.36267 -0.00083 0.98256 0.0
C257 C 0.34395 0.96539 0.09102 0.0
C258 C 0.3585 0.99343 0.09893 0.0
C259 C 0.3853 0.03843 0.05281 0.0
C260 C 0.39647 0.05531 -0.00114 0.0
C261 C 0.36856 0.01044 0.0451 0.0
C262 C 0.3894 0.04407 0.93683 0.0
C263 C 0.37263 0.01621 0.92873 0.0
H264 H 0.18629 0.42509 0.89714 0.0
H265 H 0.22525 0.51205 0.90326 0.0
H266 H 0.25154 0.51321 -0.00245 0.0
H267 H 0.26387 0.48971 0.07729 0.0
H268 H 0.22814 0.4031 0.06749 0.0
H269 H 0.20041 0.4015 0.97516 0.0
C270 C 0.20039 0.44419 0.91967 0.0
C271 C 0.20367 0.46844 0.89402 0.0
C272 C 0.21618 0.44476 0.97263 0.0
C273 C 0.22237 0.49316 0.92249 0.0
C274 C 0.23742 0.49383 0.97625 0.0
C275 C 0.25004 0.47047 0.0549 0.0
C276 C 0.24794 0.44655 0.07929 0.0
C277 C 0.2346 0.4698 0.00149 0.0
C278 C 0.23018 0.42181 0.04935 0.0
C279 C 0.21424 0.42088 -0.00317 0.0
H280 H 0.75394 0.21793 0.44233 0.0
H281 H 0.81768 0.28621 0.34219 0.0
H282 H 0.79957 0.2636 0.23867 0.0
H283 H 0.76445 0.22505 0.17683 0.0
H284 H 0.70331 0.15499 0.2773 0.0
H285 H 0.7216 0.17748 0.38088 0.0
C286 C 0.76386 0.22776 0.39772 0.0
C287 C 0.78685 0.25378 0.39945 0.0
C288 C 0.75379 0.2143 0.33877 0.0
C289 C 0.79992 0.26618 0.34174 0.0
C290 C 0.78953 0.2533 0.2827 0.0
C291 C 0.75528 0.2147 0.22153 0.0
C292 C 0.73243 0.18857 0.21976 0.0
C293 C 0.76633 0.22748 0.28064 0.0
C294 C 0.72092 0.17512 0.27772 0.0
C295 C 0.7313 0.18801 0.33679 0.0
H296 H 0.5406 0.7848 0.74459 0.0
H297 H 0.45337 0.74769 0.75182 0.0
H298 H 0.44883 0.71724 0.66449 0.0
H299 H 0.46926 0.70099 0.58637 0.0
H300 H 0.55627 0.73653 0.579 0.0
H301 H 0.56126 0.76746 0.66661 0.0
C302 C 0.52065 0.77017 0.7266 0.0
C303 C 0.49736 0.76862 0.7544 0.0
C304 C 0.51812 0.75225 0.67686 0.0
C305 C 0.47162 0.74931 0.73128 0.0
C306 C 0.46897 0.73184 0.68138 0.0
C307 C 0.48936 0.7154 0.604 0.0
C308 C 0.51235 0.71645 0.57609 0.0
C309 C 0.49204 0.73306 0.65403 0.0
C310 C 0.53821 0.73521 0.59982 0.0
C311 C 0.54108 0.75301 0.64968 0.0
H312 H 0.76309 0.52904 0.10824 0.0
H313 H 0.70333 0.53737 -0.00164 0.0
H314 H 0.72364 0.53335 0.89785 0.0
H315 H 0.75806 0.52677 0.84181 0.0
H316 H 0.82073 0.52345 0.95134 0.0
H317 H 0.79969 0.5262 0.052 0.0
C318 C 0.75458 0.52999 0.06216 0.0
C319 C 0.73162 0.53317 0.06027 0.0
C320 C 0.76685 0.5285 0.00495 0.0
C321 C 0.721 0.53491 0.00064 0.0
C322 C 0.73254 0.53253 0.94338 0.0
C323 C 0.76701 0.52659 0.88787 0.0
C324 C 0.79059 0.52449 0.88971 0.0
C325 C 0.75537 0.52916 0.94503 0.0
C326 C 0.80248 0.52491 0.94919 0.0
C327 C 0.79046 0.52646 0.00651 0.0
H328 H 0.1937 0.7623 0.43512 0.0
H329 H 0.22301 0.70626 0.4134 0.0
H330 H 0.25138 0.73245 0.32273 0.0
H331 H 0.26873 0.77182 0.25222 0.0
H332 H 0.24239 0.83013 0.27789 0.0
H333 H 0.21237 0.80291 0.36556 0.0
C334 C 0.20599 0.75571 0.40955 0.0
C335 C 0.206 0.73222 0.42947 0.0
C336 C 0.22311 0.77153 0.35935 0.0
C337 C 0.22253 0.72413 0.39785 0.0
C338 C 0.23884 0.73918 0.3465 0.0
C339 C 0.25651 0.77866 0.27714 0.0
C340 C 0.25775 0.80292 0.25865 0.0
C341 C 0.23952 0.76305 0.32739 0.0
C342 C 0.24194 0.81161 0.29164 0.0
C343 C 0.22462 0.79595 0.34136 0.0
H344 H 0.51544 0.23637 0.78372 0.0
H345 H 0.43106 0.1761 0.75988 0.0
H346 H 0.42657 0.20316 0.67432 0.0
H347 H 0.44684 0.24441 0.60669 0.0
H348 H 0.53186 0.30289 0.62785 0.0
H349 H 0.53579 0.27639 0.7152 0.0
C350 C 0.49607 0.22903 0.75961 0.0
C351 C 0.47362 0.20426 0.77813 0.0
C352 C 0.49368 0.24463 0.71076 0.0
C353 C 0.44871 0.19501 0.74617 0.0
C354 C 0.44608 0.21058 0.69765 0.0
C355 C 0.46606 0.25145 0.63131 0.0
C356 C 0.48895 0.27571 0.61192 0.0
C357 C 0.46839 0.23556 0.67993 0.0
C358 C 0.51396 0.28438 0.64264 0.0
C359 C 0.51624 0.26918 0.69221 0.0
H360 H 0.20345 0.431 0.61902 0.0
H361 H 0.15274 0.44258 0.4832 0.0
H362 H 0.17733 0.43696 0.39351 0.0
H363 H 0.21541 0.43199 0.35436 0.0
H364 H 0.26443 0.41802 0.49072 0.0
H365 H 0.23807 0.42093 0.57964 0.0
C366 C 0.19773 0.43211 0.56972 0.0
C367 C 0.17668 0.43755 0.55742 0.0
C368 C 0.2116 0.42842 0.51866 0.0
C369 C 0.169 0.43846 0.49358 0.0
C370 C 0.18307 0.43533 0.44239 0.0
C371 C 0.22008 0.42929 0.40352 0.0
C372 C 0.24196 0.4251 0.41606 0.0
C373 C 0.20472 0.43077 0.45442 0.0
C374 C 0.24763 0.42125 0.47984 0.0
C375 C 0.2327 0.42307 0.53076 0.0
H376 H 0.78766 0.21404 0.67944 0.0
H377 H 0.83341 0.27943 0.81245 0.0
H378 H 0.81156 0.24907 0.9034 0.0
H379 H 0.77499 0.20565 0.94375 0.0
H380 H 0.72996 0.1401 0.81011 0.0
H381 H 0.75655 0.16865 0.72095 0.0
C382 C 0.79308 0.22148 0.72841 0.0
C383 C 0.8116 0.24891 0.7395 0.0
C384 C 0.78058 0.20395 0.78028 0.0
C385 C 0.819 0.25834 0.80294 0.0
C386 C 0.80647 0.24104 0.85489 0.0
C387 C 0.77138 0.19744 0.8953 0.0
C388 C 0.75013 0.17102 0.88348 0.0
C389 C 0.78656 0.21404 0.84401 0.0
C390 C 0.74603 0.16048 0.82059 0.0
C391 C 0.76109 0.17684 0.76938 0.0
H392 H 0.48587 0.76499 0.09303 0.0
H393 H 0.57241 0.80712 0.0633 0.0
H394 H 0.57752 0.77974 0.14691 0.0
H395 H 0.55717 0.74375 0.22811 0.0
H396 H 0.47103 0.70433 0.26374 0.0
H397 H 0.46591 0.73096 0.17859 0.0
C398 C 0.50578 0.76797 0.10474 0.0
C399 C 0.5287 0.78762 0.0719 0.0
C400 C 0.50862 0.75286 0.15411 0.0
C401 C 0.55452 0.79191 0.08809 0.0
C402 C 0.55743 0.77633 0.13578 0.0
C403 C 0.53732 0.74109 0.21725 0.0
C404 C 0.5145 0.72209 0.25169 0.0
C405 C 0.53461 0.75677 0.16912 0.0
C406 C 0.48891 0.71899 0.23793 0.0
C407 C 0.48594 0.73407 0.18908 0.0
H408 H 0.73924 0.57761 0.46823 0.0
H409 H 0.78266 0.57086 0.30574 0.0
H410 H 0.81729 0.57223 0.37801 0.0
H411 H 0.83114 0.56828 0.48787 0.0
H412 H 0.78455 0.56997 0.64956 0.0
H413 H 0.75543 0.57802 0.57729 0.0
C414 C 0.75662 0.5771 0.44847 0.0
C415 C 0.75829 0.57389 0.3819 0.0
C416 C 0.77571 0.57667 0.49035 0.0
C417 C 0.78083 0.57309 0.357 0.0
C418 C 0.80058 0.57378 0.39827 0.0
C419 C 0.815 0.57106 0.50719 0.0
C420 C 0.80978 0.56837 0.5736 0.0
C421 C 0.79763 0.57449 0.46514 0.0
C422 C 0.7887 0.57174 0.59835 0.0
C423 C 0.77205 0.57629 0.55712 0.0
H424 H 0.16628 0.73278 0.83424 0.0
H425 H 0.21054 0.7817 0.67124 0.0
H426 H 0.2404 0.81858 0.74315 0.0
H427 H 0.25732 0.83447 0.85205 0.0
H428 H 0.21587 0.78375 0.01506 0.0
H429 H 0.1813 0.75011 0.94365 0.0
C430 C 0.18211 0.75174 0.81459 0.0
C431 C 0.18639 0.75458 0.74786 0.0
C432 C 0.19985 0.77239 0.85624 0.0
C433 C 0.20709 0.77908 0.7227 0.0
C434 C 0.22416 0.80012 0.7637 0.0
C435 C 0.24042 0.81629 0.87198 0.0
C436 C 0.23918 0.81144 0.93846 0.0
C437 C 0.22127 0.79665 0.83055 0.0
C438 C 0.21733 0.78775 0.9638 0.0
C439 C 0.1976 0.76852 0.92306 0.0
H440 H 0.45264 0.17726 0.18565 0.0
H441 H 0.45002 0.22317 0.02374 0.0
H442 H 0.44932 0.25643 0.09682 0.0
H443 H 0.45283 0.27396 0.20619 0.0
H444 H 0.46044 0.23057 0.36745 0.0
H445 H 0.45578 0.19463 0.29525 0.0
C446 C 0.45148 0.19435 0.16662 0.0
C447 C 0.45121 0.19785 0.09984 0.0
C448 C 0.45225 0.21386 0.2087 0.0
C449 C 0.45025 0.22024 0.07524 0.0
C450 C 0.44989 0.2392 0.11688 0.0
C451 C 0.45315 0.25646 0.22548 0.0
C452 C 0.45691 0.25475 0.29173 0.0
C453 C 0.4514 0.23646 0.1836 0.0
C454 C 0.4577 0.23227 0.31636 0.0
C455 C 0.45499 0.21175 0.27522 0.0
H456 H 0.37442 0.50367 0.38782 0.0
H457 H 0.37241 0.51958 0.18542 0.0
H458 H 0.41495 0.56259 0.19652 0.0
H459 H 0.45186 0.59616 0.26463 0.0
H460 H 0.45137 0.58208 0.46878 0.0
H461 H 0.41063 0.53764 0.45627 0.0
C462 C 0.38342 0.51648 0.34606 0.0
C463 C 0.37048 0.50846 0.28578 0.0
C464 C 0.40735 0.54143 0.35324 0.0
C465 C 0.38204 0.52541 0.23228 0.0
C466 C 0.40634 0.54993 0.23861 0.0
C467 C 0.44295 0.58319 0.30621 0.0
C468 C 0.45463 0.59213 0.36744 0.0
C469 C 0.41907 0.55819 0.29893 0.0
C470 C 0.44267 0.5755 0.42121 0.0
C471 C 0.41943 0.55017 0.41405 0.0
H472 H 0.8015 0.43866 0.65696 0.0
H473 H 0.88866 0.48745 0.64195 0.0
H474 H 0.89183 0.44739 0.61851 0.0
H475 H 0.87034 0.39869 0.60419 0.0
H476 H 0.78323 0.34908 0.61418 0.0
H477 H 0.7795 0.38926 0.63676 0.0
C478 C 0.82114 0.44043 0.64866 0.0
C479 C 0.84481 0.46599 0.65157 0.0
C480 C 0.82283 0.41723 0.63395 0.0
C481 C 0.87011 0.46805 0.63987 0.0
C482 C 0.87198 0.44515 0.62651 0.0
C483 C 0.85049 0.39662 0.6111 0.0
C484 C 0.82712 0.37093 0.60798 0.0
C485 C 0.84853 0.41968 0.62361 0.0
C486 C 0.80154 0.36867 0.61618 0.0
C487 C 0.79942 0.39161 0.62945 0.0
H488 H 0.45594 0.84843 0.05908 0.0
H489 H 0.4472 0.84761 0.85262 0.0
H490 H 0.40769 0.85351 0.86439 0.0
H491 H 0.37495 0.85765 0.93351 0.0
H492 H 0.38122 0.85432 0.13994 0.0
H493 H 0.42242 0.8513 0.12825 0.0
C494 C 0.44547 0.84976 0.01674 0.0
C495 C 0.45451 0.8478 0.95509 0.0
C496 C 0.42232 0.8523 0.02394 0.0
C497 C 0.44055 0.84906 0.90056 0.0
C498 C 0.41801 0.85245 0.90727 0.0
C499 C 0.38547 0.85645 0.9759 0.0
C500 C 0.37524 0.85639 0.03749 0.0
C501 C 0.40862 0.85392 0.96872 0.0
C502 C 0.38874 0.85436 0.09203 0.0
C503 C 0.41229 0.85268 0.08537 0.0
H504 H 0.62211 0.47932 0.40163 0.0
H505 H 0.61628 0.46397 0.19724 0.0
H506 H 0.57409 0.42109 0.21314 0.0
H507 H 0.53869 0.38824 0.28528 0.0
H508 H 0.54682 0.40145 0.49046 0.0
H509 H 0.58833 0.44502 0.47442 0.0
C510 C 0.61156 0.46652 0.36066 0.0
C511 C 0.62206 0.47478 0.29833 0.0
C512 C 0.58777 0.44165 0.37039 0.0
C513 C 0.60854 0.45793 0.24565 0.0
C514 C 0.58441 0.43351 0.25471 0.0
C515 C 0.54955 0.40077 0.32635 0.0
C516 C 0.53968 0.39199 0.38887 0.0
C517 C 0.57379 0.42525 0.31682 0.0
C518 C 0.55411 0.40798 0.44193 0.0
C519 C 0.57777 0.43282 0.43274 0.0
H520 H 0.1113 0.59471 0.6862 0.0
H521 H 0.19624 0.63972 0.63685 0.0
H522 H 0.20039 0.59972 0.65631 0.0
H523 H 0.17946 0.55145 0.68405 0.0
H524 H 0.09371 0.5057 0.72392 0.0
H525 H 0.09029 0.5465 0.71226 0.0
C526 C 0.13074 0.59578 0.68001 0.0
C527 C 0.15342 0.62011 0.66026 0.0
C528 C 0.13283 0.57258 0.68982 0.0
C529 C 0.17843 0.62115 0.65169 0.0
C530 C 0.18085 0.59833 0.66304 0.0
C531 C 0.16015 0.55058 0.69095 0.0
C532 C 0.13692 0.52579 0.70535 0.0
C533 C 0.15815 0.5739 0.68179 0.0
C534 C 0.11185 0.52467 0.71292 0.0
C535 C 0.10988 0.54794 0.70614 0.0
H536 H 0.61453 0.14546 0.08617 0.0
H537 H 0.62263 0.13833 0.88189 0.0
H538 H 0.58213 0.14189 0.86173 0.0
H539 H 0.54358 0.1457 0.90274 0.0
H540 H 0.53279 0.14775 0.10768 0.0
H541 H 0.57504 0.14748 0.12734 0.0
C542 C 0.60745 0.1449 0.03734 0.0
C543 C 0.62148 0.14188 0.98552 0.0
C544 C 0.58361 0.1459 0.02636 0.0
C545 C 0.61201 0.14066 0.92243 0.0
C546 C 0.58891 0.1427 0.91091 0.0
C547 C 0.55062 0.1462 0.95157 0.0
C548 C 0.5353 0.14685 0.00368 0.0
C549 C 0.57443 0.14512 0.96254 0.0
C550 C 0.5443 0.14712 0.06686 0.0
C551 C 0.56845 0.14704 0.07813 0.0
loop_
_geom_bond_atom_site_label_1
_geom_bond_atom_site_label_2
_geom_bond_distance
_geom_bond_site_symmetry_2
_ccdc_geom_bond_type
O0 Cd1 2.223 . S
O0 C8 1.315 . S
Cd1 O0 2.223 . S
Cd1 O4 2.297 . S
Cd1 O5 2.439 . S
Cd1 O11 2.240 . S
Cd2 O3 2.240 . S
Cd2 O10 2.223 . S
Cd2 O12 2.297 . S
Cd2 O13 2.439 . S
O3 Cd2 2.240 . S
O3 C8 1.279 . S
O4 Cd1 2.297 . S
O4 C6 1.247 . S
O5 Cd1 2.439 . S
O5 C6 1.208 . S
C6 O4 1.247 . S
C6 O5 1.208 . S
C7 O12 1.247 . S
C7 O13 1.208 . S
C8 O0 1.315 . S
C8 O3 1.279 . S
C9 O10 1.315 . S
C9 O11 1.279 . S
O10 Cd2 2.223 . S
O10 C9 1.315 . S
O11 Cd1 2.240 . S
O11 C9 1.279 . S
O12 Cd2 2.297 . S
O12 C7 1.247 . S
O13 Cd2 2.439 . S
O13 C7 1.208 . S
O14 Cd15 2.223 . S
O14 C22 1.315 . S
Cd15 O14 2.223 . S
Cd15 O18 2.297 . S
Cd15 O19 2.439 . S
Cd15 O25 2.240 . S
Cd16 O17 2.240 . S
Cd16 O24 2.223 . S
Cd16 O26 2.297 . S
Cd16 O27 2.439 . S
O17 Cd16 2.240 . S
O17 C22 1.279 . S
O18 Cd15 2.297 . S
O18 C20 1.247 . S
O19 Cd15 2.439 . S
O19 C20 1.208 . S
C20 O18 1.247 . S
C20 O19 1.208 . S
C21 O26 1.247 . S
C21 O27 1.208 . S
C22 O14 1.315 . S
C22 O17 1.279 . S
C23 O24 1.315 . S
C23 O25 1.279 . S
O24 Cd16 2.223 . S
O24 C23 1.315 . S
O25 Cd15 2.240 . S
O25 C23 1.279 . S
O26 Cd16 2.297 . S
O26 C21 1.247 . S
O27 Cd16 2.439 . S
O27 C21 1.208 . S
O28 Cd29 2.223 . S
O28 C36 1.315 1_556 S
Cd29 O28 2.223 . S
Cd29 O32 2.297 . S
Cd29 O33 2.439 . S
Cd29 O39 2.240 . S
Cd30 O31 2.240 . S
Cd30 O38 2.223 . S
Cd30 O40 2.297 . S
Cd30 O41 2.439 1_554 S
O31 Cd30 2.240 . S
O31 C36 1.279 . S
O32 Cd29 2.297 . S
O32 C34 1.247 . S
O33 Cd29 2.439 . S
O33 C34 1.208 . S
C34 O32 1.247 . S
C34 O33 1.208 . S
C35 O40 1.247 1_556 S
C35 O41 1.208 . S
C36 O28 1.315 1_554 S
C36 O31 1.279 . S
C37 O38 1.315 . S
C37 O39 1.279 1_554 S
O38 Cd30 2.223 . S
O38 C37 1.315 . S
O39 Cd29 2.240 . S
O39 C37 1.279 1_556 S
O40 Cd30 2.297 . S
O40 C35 1.247 1_554 S
O41 Cd30 2.439 1_556 S
O41 C35 1.208 . S
O42 Cd43 2.223 . S
O42 C50 1.315 . S
Cd43 O42 2.223 . S
Cd43 O46 2.297 . S
Cd43 O47 2.439 . S
Cd43 O53 2.240 . S
Cd44 O45 2.240 . S
Cd44 O52 2.223 . S
Cd44 O54 2.297 . S
Cd44 O55 2.439 . S
O45 Cd44 2.240 . S
O45 C50 1.279 . S
O46 Cd43 2.297 . S
O46 C48 1.247 . S
O47 Cd43 2.439 . S
O47 C48 1.208 . S
C48 O46 1.247 . S
C48 O47 1.208 . S
C49 O54 1.247 . S
C49 O55 1.208 . S
C50 O42 1.315 . S
C50 O45 1.279 . S
C51 O52 1.315 . S
C51 O53 1.279 . S
O52 Cd44 2.223 . S
O52 C51 1.315 . S
O53 Cd43 2.240 . S
O53 C51 1.279 . S
O54 Cd44 2.297 . S
O54 C49 1.247 . S
O55 Cd44 2.439 . S
O55 C49 1.208 . S
O56 Cd57 2.223 . S
O56 C64 1.315 . S
Cd57 O56 2.223 . S
Cd57 O60 2.297 . S
Cd57 O61 2.439 . S
Cd57 O67 2.240 . S
Cd58 O59 2.240 . S
Cd58 O66 2.223 . S
Cd58 O68 2.297 . S
Cd58 O69 2.439 . S
O59 Cd58 2.240 . S
O59 C64 1.279 . S
O60 Cd57 2.297 . S
O60 C62 1.247 . S
O61 Cd57 2.439 . S
O61 C62 1.208 . S
C62 O60 1.247 . S
C62 O61 1.208 . S
C63 O68 1.247 . S
C63 O69 1.208 . S
C64 O56 1.315 . S
C64 O59 1.279 . S
C65 O66 1.315 . S
C65 O67 1.279 . S
O66 Cd58 2.223 . S
O66 C65 1.315 . S
O67 Cd57 2.240 . S
O67 C65 1.279 . S
O68 Cd58 2.297 . S
O68 C63 1.247 . S
O69 Cd58 2.439 . S
O69 C63 1.208 . S
O70 Cd71 2.223 . S
O70 C78 1.315 1_556 S
Cd71 O70 2.223 . S
Cd71 O74 2.297 . S
Cd71 O75 2.439 . S
Cd71 O81 2.240 . S
Cd72 O73 2.240 . S
Cd72 O80 2.223 . S
Cd72 O82 2.297 . S
Cd72 O83 2.439 1_554 S
O73 Cd72 2.240 . S
O73 C78 1.279 . S
O74 Cd71 2.297 . S
O74 C76 1.247 . S
O75 Cd71 2.439 . S
O75 C76 1.208 . S
C76 O74 1.247 . S
C76 O75 1.208 . S
C77 O82 1.247 1_556 S
C77 O83 1.208 . S
C78 O70 1.315 1_554 S
C78 O73 1.279 . S
C79 O80 1.315 . S
C79 O81 1.279 1_554 S
O80 Cd72 2.223 . S
O80 C79 1.315 . S
O81 Cd71 2.240 . S
O81 C79 1.279 1_556 S
O82 Cd72 2.297 . S
O82 C77 1.247 1_554 S
O83 Cd72 2.439 1_556 S
O83 C77 1.208 . S
O84 Cd85 2.223 . S
O84 C92 1.315 . S
Cd85 O84 2.223 . S
Cd85 O88 2.297 . S
Cd85 O89 2.439 . S
Cd85 O95 2.240 . S
Cd86 O87 2.240 . S
Cd86 O94 2.223 . S
Cd86 O96 2.297 . S
Cd86 O97 2.439 . S
O87 Cd86 2.240 . S
O87 C92 1.279 . S
O88 Cd85 2.297 . S
O88 C90 1.247 . S
O89 Cd85 2.439 . S
O89 C90 1.208 . S
C90 O88 1.247 . S
C90 O89 1.208 . S
C91 O96 1.247 . S
C91 O97 1.208 . S
C92 O84 1.315 . S
C92 O87 1.279 . S
C93 O94 1.315 . S
C93 O95 1.279 . S
O94 Cd86 2.223 . S
O94 C93 1.315 . S
O95 Cd85 2.240 . S
O95 C93 1.279 . S
O96 Cd86 2.297 . S
O96 C91 1.247 . S
O97 Cd86 2.439 . S
O97 C91 1.208 . S
O98 Cd99 2.223 . S
O98 C106 1.315 . S
Cd99 O98 2.223 . S
Cd99 O102 2.297 . S
Cd99 O103 2.439 . S
Cd99 O109 2.240 . S
Cd100 O101 2.240 . S
Cd100 O108 2.223 . S
Cd100 O110 2.297 . S
Cd100 O111 2.439 . S
O101 Cd100 2.240 . S
O101 C106 1.279 . S
O102 Cd99 2.297 . S
O102 C104 1.247 . S
O103 Cd99 2.439 . S
O103 C104 1.208 . S
C104 O102 1.247 . S
C104 O103 1.208 . S
C105 O110 1.247 . S
C105 O111 1.208 . S
C106 O98 1.315 . S
C106 O101 1.279 . S
C107 O108 1.315 . S
C107 O109 1.279 . S
O108 Cd100 2.223 . S
O108 C107 1.315 . S
O109 Cd99 2.240 . S
O109 C107 1.279 . S
O110 Cd100 2.297 . S
O110 C105 1.247 . S
O111 Cd100 2.439 . S
O111 C105 1.208 . S
O112 Cd113 2.223 . S
O112 C120 1.315 1_554 S
Cd113 O112 2.223 . S
Cd113 O116 2.297 . S
Cd113 O117 2.439 . S
Cd113 O123 2.240 . S
Cd114 O115 2.240 . S
Cd114 O122 2.223 . S
Cd114 O124 2.297 . S
Cd114 O125 2.439 1_556 S
O115 Cd114 2.240 . S
O115 C120 1.279 . S
O116 Cd113 2.297 . S
O116 C118 1.247 . S
O117 Cd113 2.439 . S
O117 C118 1.208 . S
C118 O116 1.247 . S
C118 O117 1.208 . S
C119 O124 1.247 1_554 S
C119 O125 1.208 . S
C120 O112 1.315 1_556 S
C120 O115 1.279 . S
C121 O122 1.315 . S
C121 O123 1.279 1_556 S
O122 Cd114 2.223 . S
O122 C121 1.315 . S
O123 Cd113 2.240 . S
O123 C121 1.279 1_554 S
O124 Cd114 2.297 . S
O124 C119 1.247 1_556 S
O125 Cd114 2.439 1_554 S
O125 C119 1.208 . S
O126 Cd127 2.223 . S
O126 C134 1.315 . S
Cd127 O126 2.223 . S
Cd127 O130 2.297 . S
Cd127 O131 2.439 . S
Cd127 O137 2.240 . S
Cd128 O129 2.240 . S
Cd128 O136 2.223 . S
Cd128 O138 2.297 . S
Cd128 O139 2.439 . S
O129 Cd128 2.240 . S
O129 C134 1.279 . S
O130 Cd127 2.297 . S
O130 C132 1.247 . S
O131 Cd127 2.439 . S
O131 C132 1.208 . S
C132 O130 1.247 . S
C132 O131 1.208 . S
C133 O138 1.247 . S
C133 O139 1.208 . S
C134 O126 1.315 . S
C134 O129 1.279 . S
C135 O136 1.315 . S
C135 O137 1.279 . S
O136 Cd128 2.223 . S
O136 C135 1.315 . S
O137 Cd127 2.240 . S
O137 C135 1.279 . S
O138 Cd128 2.297 . S
O138 C133 1.247 . S
O139 Cd128 2.439 . S
O139 C133 1.208 . S
O140 Cd141 2.223 . S
O140 C148 1.315 . S
Cd141 O140 2.223 . S
Cd141 O144 2.297 . S
Cd141 O145 2.439 . S
Cd141 O151 2.240 . S
Cd142 O143 2.240 . S
Cd142 O150 2.223 . S
Cd142 O152 2.297 . S
Cd142 O153 2.439 . S
O143 Cd142 2.240 . S
O143 C148 1.279 . S
O144 Cd141 2.297 . S
O144 C146 1.247 . S
O145 Cd141 2.439 . S
O145 C146 1.208 . S
C146 O144 1.247 . S
C146 O145 1.208 . S
C147 O152 1.247 . S
C147 O153 1.208 . S
C148 O140 1.315 . S
C148 O143 1.279 . S
C149 O150 1.315 . S
C149 O151 1.279 . S
O150 Cd142 2.223 . S
O150 C149 1.315 . S
O151 Cd141 2.240 . S
O151 C149 1.279 . S
O152 Cd142 2.297 . S
O152 C147 1.247 . S
O153 Cd142 2.439 . S
O153 C147 1.208 . S
O154 Cd155 2.223 . S
O154 C162 1.315 1_554 S
Cd155 O154 2.223 . S
Cd155 O158 2.297 . S
Cd155 O159 2.439 . S
Cd155 O165 2.240 . S
Cd156 O157 2.240 . S
Cd156 O164 2.223 . S
Cd156 O166 2.297 . S
Cd156 O167 2.439 1_556 S
O157 Cd156 2.240 . S
O157 C162 1.279 . S
O158 Cd155 2.297 . S
O158 C160 1.247 . S
O159 Cd155 2.439 . S
O159 C160 1.208 . S
C160 O158 1.247 . S
C160 O159 1.208 . S
C161 O166 1.247 1_554 S
C161 O167 1.208 . S
C162 O154 1.315 1_556 S
C162 O157 1.279 . S
C163 O164 1.315 . S
C163 O165 1.279 1_556 S
O164 Cd156 2.223 . S
O164 C163 1.315 . S
O165 Cd155 2.240 . S
O165 C163 1.279 1_554 S
O166 Cd156 2.297 . S
O166 C161 1.247 1_556 S
O167 Cd156 2.439 1_554 S
O167 C161 1.208 . S
H168 C174 0.930 . S
H169 C177 0.930 . S
H170 C178 0.930 . S
H171 C179 0.930 . S
H172 C182 0.930 . S
H173 C183 0.930 . S
C174 H168 0.930 . S
C174 C175 1.355 . S
C174 C176 1.415 . S
C175 C174 1.355 . S
C175 C177 1.419 . S
C176 C174 1.415 . S
C176 C181 1.425 . S
C176 C183 1.409 . S
C177 H169 0.930 . S
C177 C175 1.419 . S
C177 C178 1.362 . S
C178 H170 0.930 . S
C178 C177 1.362 . S
C178 C181 1.409 . S
C179 H171 0.930 . S
C179 C180 1.355 . S
C179 C181 1.415 . S
C180 C179 1.355 . S
C180 C182 1.419 . S
C181 C176 1.425 . S
C181 C178 1.409 . S
C181 C179 1.415 . S
C182 H172 0.930 . S
C182 C180 1.419 . S
C182 C183 1.362 . S
C183 H173 0.930 . S
C183 C176 1.409 . S
C183 C182 1.362 . S
H184 C190 0.930 . S
H185 C193 0.930 . S
H186 C194 0.930 . S
H187 C195 0.930 . S
H188 C198 0.930 . S
H189 C199 0.930 . S
C190 H184 0.930 . S
C190 C191 1.355 . S
C190 C192 1.415 . S
C191 C190 1.355 . S
C191 C193 1.419 . S
C192 C190 1.415 . S
C192 C197 1.425 1_655 S
C192 C199 1.409 1_655 S
C193 H185 0.930 . S
C193 C191 1.419 . S
C193 C194 1.362 . S
C194 H186 0.930 . S
C194 C193 1.362 . S
C194 C197 1.409 1_655 S
C195 H187 0.930 . S
C195 C196 1.355 . S
C195 C197 1.415 . S
C196 C195 1.355 . S
C196 C198 1.419 . S
C197 C192 1.425 1_455 S
C197 C194 1.409 1_455 S
C197 C195 1.415 . S
C198 H188 0.930 . S
C198 C196 1.419 . S
C198 C199 1.362 . S
C199 H189 0.930 . S
C199 C192 1.409 1_455 S
C199 C198 1.362 . S
H200 C206 0.930 . S
H201 C209 0.930 . S
H202 C210 0.930 . S
H203 C211 0.930 . S
H204 C214 0.930 . S
H205 C215 0.930 . S
C206 H200 0.930 . S
C206 C207 1.355 . S
C206 C208 1.434 . S
C207 C206 1.355 . S
C207 C209 1.419 1_556 S
C208 C206 1.434 . S
C208 C213 1.412 1_566 S
C208 C215 1.396 1_565 S
C209 H201 0.930 . S
C209 C207 1.419 1_554 S
C209 C210 1.362 . S
C210 H202 0.930 . S
C210 C209 1.362 . S
C210 C213 1.397 1_565 S
C211 H203 0.930 . S
C211 C212 1.355 . S
C211 C213 1.434 . S
C212 C211 1.355 . S
C212 C214 1.419 1_554 S
C213 C208 1.412 1_544 S
C213 C210 1.397 1_545 S
C213 C211 1.434 . S
C214 H204 0.930 . S
C214 C212 1.419 1_556 S
C214 C215 1.362 . S
C215 H205 0.930 . S
C215 C208 1.396 1_545 S
C215 C214 1.362 . S
H216 C222 0.930 . S
H217 C225 0.930 . S
H218 C226 0.930 . S
H219 C227 0.930 . S
H220 C230 0.930 . S
H221 C231 0.930 . S
C222 H216 0.930 . S
C222 C223 1.355 . S
C222 C224 1.415 . S
C223 C222 1.355 . S
C223 C225 1.419 . S
C224 C222 1.415 . S
C224 C229 1.425 . S
C224 C231 1.409 . S
C225 H217 0.930 . S
C225 C223 1.419 . S
C225 C226 1.362 . S
C226 H218 0.930 . S
C226 C225 1.362 . S
C226 C229 1.409 . S
C227 H219 0.930 . S
C227 C228 1.355 . S
C227 C229 1.415 . S
C228 C227 1.355 . S
C228 C230 1.419 . S
C229 C224 1.425 . S
C229 C226 1.409 . S
C229 C227 1.415 . S
C230 H220 0.930 . S
C230 C228 1.419 . S
C230 C231 1.362 . S
C231 H221 0.930 . S
C231 C224 1.409 . S
C231 C230 1.362 . S
H232 C238 0.930 . S
H233 C241 0.930 . S
H234 C242 0.932 1_455 S
H235 C243 0.930 . S
H236 C246 0.930 . S
H237 C247 0.932 1_655 S
C238 H232 0.930 . S
C238 C239 1.355 . S
C238 C240 1.415 . S
C239 C238 1.355 . S
C239 C241 1.419 . S
C240 C238 1.415 . S
C240 C245 1.425 1_655 S
C240 C247 1.409 1_655 S
C241 H233 0.930 . S
C241 C239 1.419 . S
C241 C242 1.362 . S
C242 H234 0.932 1_655 S
C242 C241 1.362 . S
C242 C245 1.409 1_655 S
C243 H235 0.930 . S
C243 C244 1.355 . S
C243 C245 1.415 . S
C244 C243 1.355 . S
C244 C246 1.419 . S
C245 C240 1.425 1_455 S
C245 C242 1.409 1_455 S
C245 C243 1.415 . S
C246 H236 0.930 . S
C246 C244 1.419 . S
C246 C247 1.362 . S
C247 H237 0.932 1_455 S
C247 C240 1.409 1_455 S
C247 C246 1.362 . S
H248 C254 0.930 . S
H249 C257 0.930 . S
H250 C258 0.930 1_545 S
H251 C259 0.930 . S
H252 C262 0.930 . S
H253 C263 0.930 1_565 S
C254 H248 0.930 . S
C254 C255 1.355 1_556 S
C254 C256 1.415 . S
C255 C254 1.355 1_554 S
C255 C257 1.419 . S
C256 C254 1.415 . S
C256 C261 1.425 1_566 S
C256 C263 1.409 1_565 S
C257 H249 0.930 . S
C257 C255 1.419 . S
C257 C258 1.362 . S
C258 H250 0.930 1_565 S
C258 C257 1.362 . S
C258 C261 1.409 1_565 S
C259 H251 0.930 . S
C259 C260 1.355 1_554 S
C259 C261 1.415 . S
C260 C259 1.355 1_556 S
C260 C262 1.419 . S
C261 C256 1.425 1_544 S
C261 C258 1.409 1_545 S
C261 C259 1.415 . S
C262 H252 0.930 . S
C262 C260 1.419 . S
C262 C263 1.362 . S
C263 H253 0.930 1_545 S
C263 C256 1.409 1_545 S
C263 C262 1.362 . S
H264 C270 0.930 . S
H265 C273 0.930 . S
H266 C274 0.930 . S
H267 C275 0.930 . S
H268 C278 0.930 . S
H269 C279 0.930 . S
C270 H264 0.930 . S
C270 C271 1.355 . S
C270 C272 1.415 . S
C271 C270 1.355 . S
C271 C273 1.419 . S
C272 C270 1.415 . S
C272 C277 1.425 1_556 S
C272 C279 1.409 1_556 S
C273 H265 0.930 . S
C273 C271 1.419 . S
C273 C274 1.362 . S
C274 H266 0.930 . S
C274 C273 1.362 . S
C274 C277 1.409 1_556 S
C275 H267 0.930 . S
C275 C276 1.355 . S
C275 C277 1.415 . S
C276 C275 1.355 . S
C276 C278 1.419 . S
C277 C272 1.425 1_554 S
C277 C274 1.409 1_554 S
C277 C275 1.415 . S
C278 H268 0.930 . S
C278 C276 1.419 . S
C278 C279 1.362 . S
C279 H269 0.930 . S
C279 C272 1.409 1_554 S
C279 C278 1.362 . S
H280 C286 0.930 . S
H281 C289 0.930 . S
H282 C290 0.930 . S
H283 C291 0.930 . S
H284 C294 0.930 . S
H285 C295 0.930 . S
C286 H280 0.930 . S
C286 C287 1.355 . S
C286 C288 1.415 . S
C287 C286 1.355 . S
C287 C289 1.419 . S
C288 C286 1.415 . S
C288 C293 1.425 . S
C288 C295 1.409 . S
C289 H281 0.930 . S
C289 C287 1.419 . S
C289 C290 1.362 . S
C290 H282 0.930 . S
C290 C289 1.362 . S
C290 C293 1.409 . S
C291 H283 0.930 . S
C291 C292 1.355 . S
C291 C293 1.415 . S
C292 C291 1.355 . S
C292 C294 1.419 . S
C293 C288 1.425 . S
C293 C290 1.409 . S
C293 C291 1.415 . S
C294 H284 0.930 . S
C294 C292 1.419 . S
C294 C295 1.362 . S
C295 H285 0.930 . S
C295 C288 1.409 . S
C295 C294 1.362 . S
H296 C302 0.930 . S
H297 C305 0.930 . S
H298 C306 0.930 . S
H299 C307 0.930 . S
H300 C310 0.930 . S
H301 C311 0.930 . S
C302 H296 0.930 . S
C302 C303 1.355 . S
C302 C304 1.415 . S
C303 C302 1.355 . S
C303 C305 1.419 . S
C304 C302 1.415 . S
C304 C309 1.425 . S
C304 C311 1.409 . S
C305 H297 0.930 . S
C305 C303 1.419 . S
C305 C306 1.362 . S
C306 H298 0.930 . S
C306 C305 1.362 . S
C306 C309 1.409 . S
C307 H299 0.930 . S
C307 C308 1.355 . S
C307 C309 1.415 . S
C308 C307 1.355 . S
C308 C310 1.419 . S
C309 C304 1.425 . S
C309 C306 1.409 . S
C309 C307 1.415 . S
C310 H300 0.930 . S
C310 C308 1.419 . S
C310 C311 1.362 . S
C311 H301 0.930 . S
C311 C304 1.409 . S
C311 C310 1.362 . S
H312 C318 0.930 . S
H313 C321 0.930 . S
H314 C322 0.930 . S
H315 C323 0.930 . S
H316 C326 0.930 . S
H317 C327 0.930 . S
C318 H312 0.930 . S
C318 C319 1.355 . S
C318 C320 1.415 . S
C319 C318 1.355 . S
C319 C321 1.419 . S
C320 C318 1.415 . S
C320 C325 1.425 1_554 S
C320 C327 1.409 . S
C321 H313 0.930 . S
C321 C319 1.419 . S
C321 C322 1.362 1_554 S
C322 H314 0.930 . S
C322 C321 1.362 1_556 S
C322 C325 1.409 . S
C323 H315 0.930 . S
C323 C324 1.355 . S
C323 C325 1.415 . S
C324 C323 1.355 . S
C324 C326 1.419 . S
C325 C320 1.425 1_556 S
C325 C322 1.409 . S
C325 C323 1.415 . S
C326 H316 0.930 . S
C326 C324 1.419 . S
C326 C327 1.362 1_556 S
C327 H317 0.930 . S
C327 C320 1.409 . S
C327 C326 1.362 1_554 S
H328 C334 0.930 . S
H329 C337 0.930 . S
H330 C338 0.930 . S
H331 C339 0.930 . S
H332 C342 0.930 . S
H333 C343 0.930 . S
C334 H328 0.930 . S
C334 C335 1.355 . S
C334 C336 1.415 . S
C335 C334 1.355 . S
C335 C337 1.419 . S
C336 C334 1.415 . S
C336 C341 1.425 . S
C336 C343 1.409 . S
C337 H329 0.930 . S
C337 C335 1.419 . S
C337 C338 1.362 . S
C338 H330 0.930 . S
C338 C337 1.362 . S
C338 C341 1.409 . S
C339 H331 0.930 . S
C339 C340 1.355 . S
C339 C341 1.415 . S
C340 C339 1.355 . S
C340 C342 1.419 . S
C341 C336 1.425 . S
C341 C338 1.409 . S
C341 C339 1.415 . S
C342 H332 0.930 . S
C342 C340 1.419 . S
C342 C343 1.362 . S
C343 H333 0.930 . S
C343 C336 1.409 . S
C343 C342 1.362 . S
H344 C350 0.930 . S
H345 C353 0.930 . S
H346 C354 0.930 . S
H347 C355 0.930 . S
H348 C358 0.930 . S
H349 C359 0.930 . S
C350 H344 0.930 . S
C350 C351 1.355 . S
C350 C352 1.415 . S
C351 C350 1.355 . S
C351 C353 1.419 . S
C352 C350 1.415 . S
C352 C357 1.425 . S
C352 C359 1.409 . S
C353 H345 0.930 . S
C353 C351 1.419 . S
C353 C354 1.362 . S
C354 H346 0.930 . S
C354 C353 1.362 . S
C354 C357 1.409 . S
C355 H347 0.930 . S
C355 C356 1.355 . S
C355 C357 1.415 . S
C356 C355 1.355 . S
C356 C358 1.419 . S
C357 C352 1.425 . S
C357 C354 1.409 . S
C357 C355 1.415 . S
C358 H348 0.930 . S
C358 C356 1.419 . S
C358 C359 1.362 . S
C359 H349 0.930 . S
C359 C352 1.409 . S
C359 C358 1.362 . S
H360 C366 0.930 . S
H361 C369 0.930 . S
H362 C370 0.930 . S
H363 C371 0.930 . S
H364 C374 0.930 . S
H365 C375 0.930 . S
C366 H360 0.930 . S
C366 C367 1.355 . S
C366 C368 1.415 . S
C367 C366 1.355 . S
C367 C369 1.419 . S
C368 C366 1.415 . S
C368 C373 1.425 . S
C368 C375 1.409 . S
C369 H361 0.930 . S
C369 C367 1.419 . S
C369 C370 1.362 . S
C370 H362 0.930 . S
C370 C369 1.362 . S
C370 C373 1.409 . S
C371 H363 0.930 . S
C371 C372 1.355 . S
C371 C373 1.415 . S
C372 C371 1.355 . S
C372 C374 1.419 . S
C373 C368 1.425 . S
C373 C370 1.409 . S
C373 C371 1.415 . S
C374 H364 0.930 . S
C374 C372 1.419 . S
C374 C375 1.362 . S
C375 H365 0.930 . S
C375 C368 1.409 . S
C375 C374 1.362 . S
H376 C382 0.930 . S
H377 C385 0.930 . S
H378 C386 0.930 . S
H379 C387 0.930 . S
H380 C390 0.930 . S
H381 C391 0.930 . S
C382 H376 0.930 . S
C382 C383 1.355 . S
C382 C384 1.415 . S
C383 C382 1.355 . S
C383 C385 1.419 . S
C384 C382 1.415 . S
C384 C389 1.425 . S
C384 C391 1.409 . S
C385 H377 0.930 . S
C385 C383 1.419 . S
C385 C386 1.362 . S
C386 H378 0.930 . S
C386 C385 1.362 . S
C386 C389 1.409 . S
C387 H379 0.930 . S
C387 C388 1.355 . S
C387 C389 1.415 . S
C388 C387 1.355 . S
C388 C390 1.419 . S
C389 C384 1.425 . S
C389 C386 1.409 . S
C389 C387 1.415 . S
C390 H380 0.930 . S
C390 C388 1.419 . S
C390 C391 1.362 . S
C391 H381 0.930 . S
C391 C384 1.409 . S
C391 C390 1.362 . S
H392 C398 0.930 . S
H393 C401 0.930 . S
H394 C402 0.930 . S
H395 C403 0.930 . S
H396 C406 0.930 . S
H397 C407 0.930 . S
C398 H392 0.930 . S
C398 C399 1.355 . S
C398 C400 1.415 . S
C399 C398 1.355 . S
C399 C401 1.419 . S
C400 C398 1.415 . S
C400 C405 1.425 . S
C400 C407 1.409 . S
C401 H393 0.930 . S
C401 C399 1.419 . S
C401 C402 1.362 . S
C402 H394 0.930 . S
C402 C401 1.362 . S
C402 C405 1.409 . S
C403 H395 0.930 . S
C403 C404 1.355 . S
C403 C405 1.415 . S
C404 C403 1.355 . S
C404 C406 1.419 . S
C405 C400 1.425 . S
C405 C402 1.409 . S
C405 C403 1.415 . S
C406 H396 0.930 . S
C406 C404 1.419 . S
C406 C407 1.362 . S
C407 H397 0.930 . S
C407 C400 1.409 . S
C407 C406 1.362 . S
H408 C414 0.930 . S
H409 C417 0.930 . S
H410 C418 0.930 . S
H411 C419 0.930 . S
H412 C422 0.930 . S
H413 C423 0.930 . S
C414 H408 0.930 . S
C414 C415 1.355 . S
C414 C416 1.415 . S
C415 C414 1.355 . S
C415 C417 1.419 . S
C416 C414 1.415 . S
C416 C421 1.425 . S
C416 C423 1.409 . S
C417 H409 0.930 . S
C417 C415 1.419 . S
C417 C418 1.362 . S
C418 H410 0.930 . S
C418 C417 1.362 . S
C418 C421 1.409 . S
C419 H411 0.930 . S
C419 C420 1.355 . S
C419 C421 1.415 . S
C420 C419 1.355 . S
C420 C422 1.419 . S
C421 C416 1.425 . S
C421 C418 1.409 . S
C421 C419 1.415 . S
C422 H412 0.930 . S
C422 C420 1.419 . S
C422 C423 1.362 . S
C423 H413 0.930 . S
C423 C416 1.409 . S
C423 C422 1.362 . S
H424 C430 0.930 . S
H425 C433 0.930 . S
H426 C434 0.930 . S
H427 C435 0.930 . S
H428 C438 0.930 . S
H429 C439 0.930 . S
C430 H424 0.930 . S
C430 C431 1.355 . S
C430 C432 1.415 . S
C431 C430 1.355 . S
C431 C433 1.419 . S
C432 C430 1.415 . S
C432 C437 1.425 . S
C432 C439 1.409 . S
C433 H425 0.930 . S
C433 C431 1.419 . S
C433 C434 1.362 . S
C434 H426 0.930 . S
C434 C433 1.362 . S
C434 C437 1.409 . S
C435 H427 0.930 . S
C435 C436 1.355 . S
C435 C437 1.415 . S
C436 C435 1.355 . S
C436 C438 1.419 . S
C437 C432 1.425 . S
C437 C434 1.409 . S
C437 C435 1.415 . S
C438 H428 0.930 . S
C438 C436 1.419 . S
C438 C439 1.362 . S
C439 H429 0.930 . S
C439 C432 1.409 . S
C439 C438 1.362 . S
H440 C446 0.930 . S
H441 C449 0.930 . S
H442 C450 0.930 . S
H443 C451 0.930 . S
H444 C454 0.930 . S
H445 C455 0.930 . S
C446 H440 0.930 . S
C446 C447 1.355 . S
C446 C448 1.415 . S
C447 C446 1.355 . S
C447 C449 1.419 . S
C448 C446 1.415 . S
C448 C453 1.425 . S
C448 C455 1.409 . S
C449 H441 0.930 . S
C449 C447 1.419 . S
C449 C450 1.362 . S
C450 H442 0.930 . S
C450 C449 1.362 . S
C450 C453 1.409 . S
C451 H443 0.930 . S
C451 C452 1.355 . S
C451 C453 1.415 . S
C452 C451 1.355 . S
C452 C454 1.419 . S
C453 C448 1.425 . S
C453 C450 1.409 . S
C453 C451 1.415 . S
C454 H444 0.930 . S
C454 C452 1.419 . S
C454 C455 1.362 . S
C455 H445 0.930 . S
C455 C448 1.409 . S
C455 C454 1.362 . S
H456 C462 0.930 . S
H457 C465 0.930 . S
H458 C466 0.930 . S
H459 C467 0.930 . S
H460 C470 0.930 . S
H461 C471 0.930 . S
C462 H456 0.930 . S
C462 C463 1.355 . S
C462 C464 1.415 . S
C463 C462 1.355 . S
C463 C465 1.419 . S
C464 C462 1.415 . S
C464 C469 1.425 . S
C464 C471 1.409 . S
C465 H457 0.930 . S
C465 C463 1.419 . S
C465 C466 1.362 . S
C466 H458 0.930 . S
C466 C465 1.362 . S
C466 C469 1.409 . S
C467 H459 0.930 . S
C467 C468 1.355 . S
C467 C469 1.415 . S
C468 C467 1.355 . S
C468 C470 1.419 . S
C469 C464 1.425 . S
C469 C466 1.409 . S
C469 C467 1.415 . S
C470 H460 0.930 . S
C470 C468 1.419 . S
C470 C471 1.362 . S
C471 H461 0.930 . S
C471 C464 1.409 . S
C471 C470 1.362 . S
H472 C478 0.930 . S
H473 C481 0.930 . S
H474 C482 0.930 . S
H475 C483 0.930 . S
H476 C486 0.930 . S
H477 C487 0.930 . S
C478 H472 0.930 . S
C478 C479 1.355 . S
C478 C480 1.415 . S
C479 C478 1.355 . S
C479 C481 1.419 . S
C480 C478 1.415 . S
C480 C485 1.425 . S
C480 C487 1.409 . S
C481 H473 0.930 . S
C481 C479 1.419 . S
C481 C482 1.362 . S
C482 H474 0.930 . S
C482 C481 1.362 . S
C482 C485 1.409 . S
C483 H475 0.930 . S
C483 C484 1.355 . S
C483 C485 1.415 . S
C484 C483 1.355 . S
C484 C486 1.419 . S
C485 C480 1.425 . S
C485 C482 1.409 . S
C485 C483 1.415 . S
C486 H476 0.930 . S
C486 C484 1.419 . S
C486 C487 1.362 . S
C487 H477 0.930 . S
C487 C480 1.409 . S
C487 C486 1.362 . S
H488 C494 0.930 . S
H489 C497 0.930 . S
H490 C498 0.930 . S
H491 C499 0.930 . S
H492 C502 0.930 . S
H493 C503 0.930 . S
C494 H488 0.930 . S
C494 C495 1.355 . S
C494 C496 1.415 . S
C495 C494 1.355 . S
C495 C497 1.419 1_554 S
C496 C494 1.415 . S
C496 C501 1.425 1_554 S
C496 C503 1.409 . S
C497 H489 0.930 . S
C497 C495 1.419 1_556 S
C497 C498 1.362 . S
C498 H490 0.930 . S
C498 C497 1.362 . S
C498 C501 1.409 . S
C499 H491 0.930 . S
C499 C500 1.355 . S
C499 C501 1.415 . S
C500 C499 1.355 . S
C500 C502 1.419 1_556 S
C501 C496 1.425 1_556 S
C501 C498 1.409 . S
C501 C499 1.415 . S
C502 H492 0.930 . S
C502 C500 1.419 1_554 S
C502 C503 1.362 . S
C503 H493 0.930 . S
C503 C496 1.409 . S
C503 C502 1.362 . S
H504 C510 0.930 . S
H505 C513 0.930 . S
H506 C514 0.930 . S
H507 C515 0.930 . S
H508 C518 0.930 . S
H509 C519 0.930 . S
C510 H504 0.930 . S
C510 C511 1.355 . S
C510 C512 1.415 . S
C511 C510 1.355 . S
C511 C513 1.419 . S
C512 C510 1.415 . S
C512 C517 1.425 . S
C512 C519 1.409 . S
C513 H505 0.930 . S
C513 C511 1.419 . S
C513 C514 1.362 . S
C514 H506 0.930 . S
C514 C513 1.362 . S
C514 C517 1.409 . S
C515 H507 0.930 . S
C515 C516 1.355 . S
C515 C517 1.415 . S
C516 C515 1.355 . S
C516 C518 1.419 . S
C517 C512 1.425 . S
C517 C514 1.409 . S
C517 C515 1.415 . S
C518 H508 0.930 . S
C518 C516 1.419 . S
C518 C519 1.362 . S
C519 H509 0.930 . S
C519 C512 1.409 . S
C519 C518 1.362 . S
H520 C526 0.930 . S
H521 C529 0.930 . S
H522 C530 0.930 . S
H523 C531 0.930 . S
H524 C534 0.930 . S
H525 C535 0.930 . S
C526 H520 0.930 . S
C526 C527 1.355 . S
C526 C528 1.415 . S
C527 C526 1.355 . S
C527 C529 1.419 . S
C528 C526 1.415 . S
C528 C533 1.425 . S
C528 C535 1.409 . S
C529 H521 0.930 . S
C529 C527 1.419 . S
C529 C530 1.362 . S
C530 H522 0.930 . S
C530 C529 1.362 . S
C530 C533 1.409 . S
C531 H523 0.930 . S
C531 C532 1.355 . S
C531 C533 1.415 . S
C532 C531 1.355 . S
C532 C534 1.419 . S
C533 C528 1.425 . S
C533 C530 1.409 . S
C533 C531 1.415 . S
C534 H524 0.930 . S
C534 C532 1.419 . S
C534 C535 1.362 . S
C535 H525 0.930 . S
C535 C528 1.409 . S
C535 C534 1.362 . S
H536 C542 0.930 . S
H537 C545 0.930 . S
H538 C546 0.930 . S
H539 C547 0.930 . S
H540 C550 0.930 . S
H541 C551 0.930 . S
C542 H536 0.930 . S
C542 C543 1.355 1_554 S
C542 C544 1.415 . S
C543 C542 1.355 1_556 S
C543 C545 1.419 . S
C544 C542 1.415 . S
C544 C549 1.425 1_554 S
C544 C551 1.409 . S
C545 H537 0.930 . S
C545 C543 1.419 . S
C545 C546 1.362 . S
C546 H538 0.930 . S
C546 C545 1.362 . S
C546 C549 1.409 . S
C547 H539 0.930 . S
C547 C548 1.355 1_556 S
C547 C549 1.415 . S
C548 C547 1.355 1_554 S
C548 C550 1.419 . S
C549 C544 1.425 1_556 S
C549 C546 1.409 . S
C549 C547 1.415 . S
C550 H540 0.930 . S
C550 C548 1.419 . S
C550 C551 1.362 . S
C551 H541 0.930 . S
C551 C544 1.409 . S
C551 C550 1.362 . S
C175 C7 1.489 . S
C180 C133 1.490 . S
C191 C21 1.452 . S
C196 C147 1.453 . S
C207 C35 1.414 . S
C212 C161 1.414 . S
C223 C49 1.415 . S
C228 C91 1.415 . S
C239 C105 1.497 . S
C244 C63 1.496 . S
C255 C119 1.510 . S
C260 C77 1.510 . S
C271 C146 1.464 . S
C276 C6 1.534 . S
C287 C20 1.476 . S
C292 C160 1.525 . S
C303 C34 1.462 . S
C308 C90 1.531 . S
C319 C48 1.521 . S
C324 C104 1.480 . S
C335 C62 1.463 . S
C340 C118 1.535 . S
C351 C76 1.530 . S
C356 C132 1.464 . S
C367 C148 1.515 . S
C372 C8 1.518 . S
C383 C22 1.515 . S
C388 C162 1.518 . S
C399 C36 1.514 . S
C404 C92 1.509 . S
C415 C50 1.490 . S
C420 C106 1.488 . S
C431 C64 1.488 . S
C436 C120 1.489 . S
C447 C78 1.488 . S
C452 C134 1.490 . S
C463 C9 1.665 . S
C468 C93 1.631 . S
C479 C107 1.631 . S
C484 C23 1.658 . S
C495 C37 1.667 . S
C500 C121 1.632 . S
C511 C51 1.657 . S
C516 C135 1.631 . S
C527 C65 1.668 . S
C532 C149 1.633 . S
C543 C163 1.657 . S
C548 C79 1.665 . S
