# Generated by pormake.
# Topology uns, (4)-cn, num edge types: 1
# Building blocks:
#     Node 0, Type 0, BuildingBlock: ESEHIV_clean_sbu_0, # of connection points: 4
#     Node 1, Type 0, BuildingBlock: ESEHIV_clean_sbu_0, # of connection points: 4
#     Node 2, Type 0, BuildingBlock: ESEHIV_clean_sbu_0, # of connection points: 4
#     Node 3, Type 0, BuildingBlock: ESEHIV_clean_sbu_0, # of connection points: 4
#     Node 4, Type 0, BuildingBlock: ESEHIV_clean_sbu_0, # of connection points: 4
#     Node 5, Type 0, BuildingBlock: ESEHIV_clean_sbu_0, # of connection points: 4
#     Node 6, Type 0, BuildingBlock: ESEHIV_clean_sbu_0, # of connection points: 4
#     Node 7, Type 0, BuildingBlock: ESEHIV_clean_sbu_0, # of connection points: 4
#     Node 8, Type 0, BuildingBlock: ESEHIV_clean_sbu_0, # of connection points: 4
#     Node 9, Type 0, BuildingBlock: ESEHIV_clean_sbu_0, # of connection points: 4
#     Node 10, Type 0, BuildingBlock: ESEHIV_clean_sbu_0, # of connection points: 4
#     Node 11, Type 0, BuildingBlock: ESEHIV_clean_sbu_0, # of connection points: 4
#     Node 12, Type 0, BuildingBlock: ESEHIV_clean_sbu_0, # of connection points: 4
#     Node 13, Type 0, BuildingBlock: ESEHIV_clean_sbu_0, # of connection points: 4
#     Node 14, Type 0, BuildingBlock: ESEHIV_clean_sbu_0, # of connection points: 4
#     Node 15, Type 0, BuildingBlock: ESEHIV_clean_sbu_0, # of connection points: 4
#     Node 16, Type 0, BuildingBlock: ESEHIV_clean_sbu_0, # of connection points: 4
#     Node 17, Type 0, BuildingBlock: ESEHIV_clean_sbu_0, # of connection points: 4
#     Node 18, Type 0, BuildingBlock: ESEHIV_clean_sbu_0, # of connection points: 4
#     Node 19, Type 0, BuildingBlock: ESEHIV_clean_sbu_0, # of connection points: 4
#     Node 20, Type 0, BuildingBlock: ESEHIV_clean_sbu_0, # of connection points: 4
#     Node 21, Type 0, BuildingBlock: ESEHIV_clean_sbu_0, # of connection points: 4
#     Node 22, Type 0, BuildingBlock: ESEHIV_clean_sbu_0, # of connection points: 4
#     Node 23, Type 0, BuildingBlock: ESEHIV_clean_sbu_0, # of connection points: 4
#     Node 24, Type 0, BuildingBlock: ESEHIV_clean_sbu_0, # of connection points: 4
#     Node 25, Type 0, BuildingBlock: ESEHIV_clean_sbu_0, # of connection points: 4
#     Node 26, Type 0, BuildingBlock: ESEHIV_clean_sbu_0, # of connection points: 4
#     Node 27, Type 0, BuildingBlock: ESEHIV_clean_sbu_0, # of connection points: 4
#     Node 28, Type 0, BuildingBlock: ESEHIV_clean_sbu_0, # of connection points: 4
#     Node 29, Type 0, BuildingBlock: ESEHIV_clean_sbu_0, # of connection points: 4
#     Node 30, Type 0, BuildingBlock: ESEHIV_clean_sbu_0, # of connection points: 4
#     Node 31, Type 0, BuildingBlock: ESEHIV_clean_sbu_0, # of connection points: 4
#     Node 32, Type 0, BuildingBlock: ESEHIV_clean_sbu_0, # of connection points: 4
#     Node 33, Type 0, BuildingBlock: ESEHIV_clean_sbu_0, # of connection points: 4
#     Node 34, Type 0, BuildingBlock: ESEHIV_clean_sbu_0, # of connection points: 4
#     Node 35, Type 0, BuildingBlock: ESEHIV_clean_sbu_0, # of connection points: 4
#     Edge 36, Type (0, 0), BuildingBlock: AJUNOK_clean_linker_0, # of connection points: 2
#     Edge 37, Type (0, 0), BuildingBlock: AJUNOK_clean_linker_0, # of connection points: 2
#     Edge 38, Type (0, 0), BuildingBlock: AJUNOK_clean_linker_0, # of connection points: 2
#     Edge 39, Type (0, 0), BuildingBlock: AJUNOK_clean_linker_0, # of connection points: 2
#     Edge 40, Type (0, 0), BuildingBlock: AJUNOK_clean_linker_0, # of connection points: 2
#     Edge 41, Type (0, 0), BuildingBlock: AJUNOK_clean_linker_0, # of connection points: 2
#     Edge 42, Type (0, 0), BuildingBlock: AJUNOK_clean_linker_0, # of connection points: 2
#     Edge 43, Type (0, 0), BuildingBlock: AJUNOK_clean_linker_0, # of connection points: 2
#     Edge 44, Type (0, 0), BuildingBlock: AJUNOK_clean_linker_0, # of connection points: 2
#     Edge 45, Type (0, 0), BuildingBlock: AJUNOK_clean_linker_0, # of connection points: 2
#     Edge 46, Type (0, 0), BuildingBlock: AJUNOK_clean_linker_0, # of connection points: 2
#     Edge 47, Type (0, 0), BuildingBlock: AJUNOK_clean_linker_0, # of connection points: 2
#     Edge 48, Type (0, 0), BuildingBlock: AJUNOK_clean_linker_0, # of connection points: 2
#     Edge 49, Type (0, 0), BuildingBlock: AJUNOK_clean_linker_0, # of connection points: 2
#     Edge 50, Type (0, 0), BuildingBlock: AJUNOK_clean_linker_0, # of connection points: 2
#     Edge 51, Type (0, 0), BuildingBlock: AJUNOK_clean_linker_0, # of connection points: 2
#     Edge 52, Type (0, 0), BuildingBlock: AJUNOK_clean_linker_0, # of connection points: 2
#     Edge 53, Type (0, 0), BuildingBlock: AJUNOK_clean_linker_0, # of connection points: 2
#     Edge 54, Type (0, 0), BuildingBlock: AJUNOK_clean_linker_0, # of connection points: 2
#     Edge 55, Type (0, 0), BuildingBlock: AJUNOK_clean_linker_0, # of connection points: 2
#     Edge 56, Type (0, 0), BuildingBlock: AJUNOK_clean_linker_0, # of connection points: 2
#     Edge 57, Type (0, 0), BuildingBlock: AJUNOK_clean_linker_0, # of connection points: 2
#     Edge 58, Type (0, 0), BuildingBlock: AJUNOK_clean_linker_0, # of connection points: 2
#     Edge 59, Type (0, 0), BuildingBlock: AJUNOK_clean_linker_0, # of connection points: 2
#     Edge 60, Type (0, 0), BuildingBlock: AJUNOK_clean_linker_0, # of connection points: 2
#     Edge 61, Type (0, 0), BuildingBlock: AJUNOK_clean_linker_0, # of connection points: 2
#     Edge 62, Type (0, 0), BuildingBlock: AJUNOK_clean_linker_0, # of connection points: 2
#     Edge 63, Type (0, 0), BuildingBlock: AJUNOK_clean_linker_0, # of connection points: 2
#     Edge 64, Type (0, 0), BuildingBlock: AJUNOK_clean_linker_0, # of connection points: 2
#     Edge 65, Type (0, 0), BuildingBlock: AJUNOK_clean_linker_0, # of connection points: 2
#     Edge 66, Type (0, 0), BuildingBlock: AJUNOK_clean_linker_0, # of connection points: 2
#     Edge 67, Type (0, 0), BuildingBlock: AJUNOK_clean_linker_0, # of connection points: 2
#     Edge 68, Type (0, 0), BuildingBlock: AJUNOK_clean_linker_0, # of connection points: 2
#     Edge 69, Type (0, 0), BuildingBlock: AJUNOK_clean_linker_0, # of connection points: 2
#     Edge 70, Type (0, 0), BuildingBlock: AJUNOK_clean_linker_0, # of connection points: 2
#     Edge 71, Type (0, 0), BuildingBlock: AJUNOK_clean_linker_0, # of connection points: 2
#     Edge 72, Type (0, 0), BuildingBlock: AJUNOK_clean_linker_0, # of connection points: 2
#     Edge 73, Type (0, 0), BuildingBlock: AJUNOK_clean_linker_0, # of connection points: 2
#     Edge 74, Type (0, 0), BuildingBlock: AJUNOK_clean_linker_0, # of connection points: 2
#     Edge 75, Type (0, 0), BuildingBlock: AJUNOK_clean_linker_0, # of connection points: 2
#     Edge 76, Type (0, 0), BuildingBlock: AJUNOK_clean_linker_0, # of connection points: 2
#     Edge 77, Type (0, 0), BuildingBlock: AJUNOK_clean_linker_0, # of connection points: 2
#     Edge 78, Type (0, 0), BuildingBlock: AJUNOK_clean_linker_0, # of connection points: 2
#     Edge 79, Type (0, 0), BuildingBlock: AJUNOK_clean_linker_0, # of connection points: 2
#     Edge 80, Type (0, 0), BuildingBlock: AJUNOK_clean_linker_0, # of connection points: 2
#     Edge 81, Type (0, 0), BuildingBlock: AJUNOK_clean_linker_0, # of connection points: 2
#     Edge 82, Type (0, 0), BuildingBlock: AJUNOK_clean_linker_0, # of connection points: 2
#     Edge 83, Type (0, 0), BuildingBlock: AJUNOK_clean_linker_0, # of connection points: 2
#     Edge 84, Type (0, 0), BuildingBlock: AJUNOK_clean_linker_0, # of connection points: 2
#     Edge 85, Type (0, 0), BuildingBlock: AJUNOK_clean_linker_0, # of connection points: 2
#     Edge 86, Type (0, 0), BuildingBlock: AJUNOK_clean_linker_0, # of connection points: 2
#     Edge 87, Type (0, 0), BuildingBlock: AJUNOK_clean_linker_0, # of connection points: 2
#     Edge 88, Type (0, 0), BuildingBlock: AJUNOK_clean_linker_0, # of connection points: 2
#     Edge 89, Type (0, 0), BuildingBlock: AJUNOK_clean_linker_0, # of connection points: 2
#     Edge 90, Type (0, 0), BuildingBlock: AJUNOK_clean_linker_0, # of connection points: 2
#     Edge 91, Type (0, 0), BuildingBlock: AJUNOK_clean_linker_0, # of connection points: 2
#     Edge 92, Type (0, 0), BuildingBlock: AJUNOK_clean_linker_0, # of connection points: 2
#     Edge 93, Type (0, 0), BuildingBlock: AJUNOK_clean_linker_0, # of connection points: 2
#     Edge 94, Type (0, 0), BuildingBlock: AJUNOK_clean_linker_0, # of connection points: 2
#     Edge 95, Type (0, 0), BuildingBlock: AJUNOK_clean_linker_0, # of connection points: 2
#     Edge 96, Type (0, 0), BuildingBlock: AJUNOK_clean_linker_0, # of connection points: 2
#     Edge 97, Type (0, 0), BuildingBlock: AJUNOK_clean_linker_0, # of connection points: 2
#     Edge 98, Type (0, 0), BuildingBlock: AJUNOK_clean_linker_0, # of connection points: 2
#     Edge 99, Type (0, 0), BuildingBlock: AJUNOK_clean_linker_0, # of connection points: 2
#     Edge 100, Type (0, 0), BuildingBlock: AJUNOK_clean_linker_0, # of connection points: 2
#     Edge 101, Type (0, 0), BuildingBlock: AJUNOK_clean_linker_0, # of connection points: 2
#     Edge 102, Type (0, 0), BuildingBlock: AJUNOK_clean_linker_0, # of connection points: 2
#     Edge 103, Type (0, 0), BuildingBlock: AJUNOK_clean_linker_0, # of connection points: 2
#     Edge 104, Type (0, 0), BuildingBlock: AJUNOK_clean_linker_0, # of connection points: 2
#     Edge 105, Type (0, 0), BuildingBlock: AJUNOK_clean_linker_0, # of connection points: 2
#     Edge 106, Type (0, 0), BuildingBlock: AJUNOK_clean_linker_0, # of connection points: 2
#     Edge 107, Type (0, 0), BuildingBlock: AJUNOK_clean_linker_0, # of connection points: 2
# Relax obj value: 0.010
# Max RMSD: 0.108
# Mean RMSD: 0.070
data_MOF--net-uns--node1-ESEHIV_clean_sbu_0--edge1-AJUNOK_clean_linker_0
_symmetry_space_group_name_H-M    P1
_symmetry_Int_Tables_number       1
_symmetry_cell_setting            triclinic
loop_
_symmetry_equiv_pos_as_xyz
'x, y, z'
_cell_length_a     49.717521
_cell_length_b     48.218459
_cell_length_c     36.559584
_cell_angle_alpha  94.975145
_cell_angle_beta   90.376641
_cell_angle_gamma 120.75239
loop_
_atom_site_label
_atom_site_type_symbol
_atom_site_fract_x
_atom_site_fract_y
_atom_site_fract_z
_atom_type_partial_charge
Cu0 Cu 0.2909 0.23477 0.04404 0.0
N1 N 0.29929 0.21849 0.08456 0.0
N2 N 0.32658 0.2046 0.11986 0.0
C3 C 0.32758 0.22254 0.09301 0.0
C4 C 0.29653 0.18917 0.12942 0.0
C5 C 0.27965 0.19759 0.10734 0.0
O6 O 0.28434 0.20408 0.0015 0.0
C7 C 0.33322 0.29748 0.07238 0.0
O8 O 0.31852 0.28503 0.10181 0.0
H9 H 0.34844 0.23793 0.0791 0.0
H10 H 0.25467 0.18812 0.10688 0.0
N11 N 0.25512 0.23842 0.04713 0.0
N12 N 0.22045 0.25214 0.02949 0.0
C13 C 0.24197 0.24431 0.01873 0.0
C14 C 0.24126 0.24227 0.07703 0.0
C15 C 0.21968 0.25042 0.0662 0.0
C16 C 0.30429 0.19583 0.99307 0.0
O17 O 0.33233 0.2122 0.00985 0.0
H18 H 0.24872 0.24347 0.99079 0.0
H19 H 0.24749 0.24086 0.10492 0.0
O20 O 0.32573 0.27895 0.04231 0.0
H21 H 0.28719 0.17194 0.14969 0.0
H22 H 0.20557 0.2561 0.0842 0.0
Cu23 Cu 0.84241 0.07237 0.04371 0.0
N24 N 0.80328 0.0687 0.04439 0.0
N25 N 0.75739 0.05573 0.06801 0.0
C26 C 0.78079 0.04931 0.06583 0.0
C27 C 0.76523 0.07979 0.04636 0.0
C28 C 0.7938 0.08803 0.03216 0.0
O29 O 0.83346 1.02817 0.04749 0.0
C30 C 0.87679 0.13454 0.08059 0.0
O31 O 0.87536 0.14212 0.0473 0.0
H32 H 0.78213 1.03137 0.08031 0.0
H33 H 0.80742 0.10777 0.01574 0.0
N34 N 0.86225 0.0873 6e-05 0.0
N35 N 0.90037 0.11425 0.96221 0.0
C36 C 0.89344 0.10465 0.9963 0.0
C37 C 0.84893 0.08523 0.96701 0.0
C38 C 0.87237 0.10172 0.94358 0.0
C39 C 0.84908 1.01607 0.03347 0.0
O40 O 0.87597 0.03525 0.01963 0.0
H41 H 0.91063 0.11045 0.01843 0.0
H42 H 0.82394 0.07331 0.9607 0.0
O43 O 0.8656 0.10477 0.08554 0.0
H44 H 0.75195 0.09152 0.04239 0.0
H45 H 0.86907 0.10522 0.91541 0.0
Cu46 Cu 1.00045 0.80069 0.04376 0.0
N47 N 0.97774 0.79634 0.08591 0.0
N48 N 0.93862 0.77077 0.12317 0.0
C49 C 0.95378 0.76759 0.09411 0.0
C50 C 0.95417 0.80285 0.13443 0.0
C51 C 0.97823 0.81863 0.11122 0.0
O52 O 0.97606 0.80339 0.00329 0.0
C53 C 1.0279 0.76132 0.02955 0.0
O54 O 0.04842 0.78443 0.01094 0.0
H55 H 0.94714 0.74471 0.07842 0.0
H56 H 0.99416 0.84453 0.11196 0.0
N57 N 1.04131 0.83754 0.04832 0.0
N58 N 0.08916 0.87459 0.03205 0.0
C59 C 0.05901 0.85261 0.02045 0.0
C60 C 0.06095 0.85042 0.07862 0.0
C61 C 0.09039 0.8732 0.06869 0.0
C62 C 0.94722 0.78199 0.99597 0.0
O63 O 0.93521 0.75496 0.01166 0.0
H64 H 0.05039 0.84595 0.9919 0.0
H65 H 0.05464 0.84269 0.10575 0.0
O66 O 1.00428 0.76243 0.04078 0.0
H67 H 0.94772 0.8142 0.15672 0.0
H68 H 0.11125 0.88715 0.08692 0.0
Cu69 Cu 0.23671 0.26408 0.4625 0.0
N70 N 0.21945 0.26704 0.41845 0.0
N71 N 0.20745 0.2915 0.37726 0.0
C72 C 0.22024 0.29429 0.41105 0.0
C73 C 0.19839 0.26105 0.36259 0.0
C74 C 0.20585 0.24601 0.38811 0.0
O75 O 0.20729 0.25878 0.50036 0.0
C76 C 0.30285 0.30541 0.47862 0.0
O77 O 0.30106 0.28155 0.49536 0.0
H78 H 0.23023 0.31596 0.43026 0.0
H79 H 0.20213 0.22177 0.38454 0.0
N80 N 0.24309 0.22878 0.46062 0.0
N81 N 0.25478 0.19417 0.48357 0.0
C82 C 0.24121 0.21231 0.48944 0.0
C83 C 0.2577 0.22027 0.43517 0.0
C84 C 0.26472 0.1988 0.44911 0.0
C85 C 0.19887 0.27907 0.51028 0.0
O86 O 0.21338 0.30771 0.49797 0.0
H87 H 0.23121 0.21487 0.51474 0.0
H88 H 0.26477 0.23074 0.40941 0.0
O89 O 0.27766 0.3039 0.46794 0.0
H90 H 0.18801 0.25062 0.3351 0.0
H91 H 0.27794 0.18905 0.43577 0.0
Cu92 Cu 0.8072 1.00326 0.43336 0.0
N93 N 0.80046 1.01742 0.38982 0.0
N94 N 0.77494 1.03294 0.35384 0.0
C95 C 0.77845 1.02566 0.38764 0.0
C96 C 0.79619 1.02982 0.33389 0.0
C97 C 0.81176 1.01989 0.35612 0.0
O98 O 0.82971 0.04161 0.46957 0.0
C99 C 0.7538 0.94685 0.4153 0.0
O100 O 0.77128 0.95014 0.38734 0.0
H101 H 0.76532 1.02638 0.41083 0.0
H102 H 0.82961 1.01449 0.34811 0.0
N103 N 0.83015 0.9822 0.43212 0.0
N104 N 0.84594 0.95031 0.45364 0.0
C105 C 0.82871 0.96448 0.45937 0.0
C106 C 0.84884 0.97903 0.40777 0.0
C107 C 0.8585 0.95917 0.42094 0.0
C108 C 0.8528 0.06692 0.45823 0.0
O109 O 0.85904 0.06592 0.42347 0.0
H110 H 0.81432 0.96131 0.48254 0.0
H111 H 0.85477 0.99 0.38222 0.0
O112 O 0.76495 0.96873 0.44271 0.0
H113 H 0.79979 1.03383 0.3052 0.0
H114 H 0.87367 0.95195 0.40761 0.0
Cu115 Cu 0.09027 0.83438 0.44309 0.0
N116 N 0.11527 0.84619 0.40259 0.0
N117 N 0.1551 0.85672 0.36694 0.0
C118 C 0.14389 0.84972 0.40053 0.0
C119 C 0.13247 0.85716 0.3469 0.0
C120 C 0.10794 0.85063 0.36893 0.0
O121 O 0.11348 0.86621 0.48533 0.0
C122 C 0.06433 0.76925 0.42088 0.0
O123 O 0.06226 0.78012 0.38989 0.0
H124 H 0.15617 0.84687 0.42303 0.0
H125 H 0.08588 0.84818 0.36052 0.0
N126 N 0.05381 0.83565 0.43451 0.0
N127 N 1.00574 0.8274 0.44231 0.0
C128 C 1.02609 0.81754 0.44939 0.0
C129 C 0.05094 0.85775 0.41755 0.0
C130 C 1.02135 0.85272 0.42231 0.0
C131 C 0.13866 0.87147 0.50156 0.0
O132 O 0.1494 0.85217 0.49225 0.0
H133 H 1.02183 0.79923 0.46746 0.0
H134 H 0.06967 0.8774 0.40462 0.0
O135 O 0.07698 0.78955 0.44945 0.0
H136 H 0.13306 0.86075 0.31804 0.0
H137 H 1.01258 0.86768 0.41354 0.0
Cu138 Cu 0.7928 0.83281 0.9295 0.0
N139 N 0.7805 0.84729 0.89047 0.0
N140 N 0.74958 0.85716 0.85596 0.0
C141 C 0.7508 0.83906 0.8814 0.0
C142 C 0.7797 0.87742 0.84865 0.0
C143 C 0.79871 0.87125 0.86992 0.0
O144 O 0.80173 0.86415 0.97241 0.0
C145 C 0.75905 0.76765 0.95246 0.0
O146 O 0.78192 0.77776 0.97775 0.0
H147 H 0.73072 0.82174 0.89511 0.0
H148 H 0.82405 0.88434 0.87154 0.0
N149 N 0.83139 0.83545 0.92181 0.0
N150 N 0.87074 0.82598 0.93038 0.0
C151 C 0.83922 0.81289 0.92624 0.0
C152 C 0.85882 0.86358 0.92202 0.0
C153 C 0.88296 0.85786 0.92708 0.0
C154 C 0.78723 0.87937 0.97859 0.0
O155 O 0.76026 0.86883 0.96055 0.0
H156 H 0.822 0.78769 0.92796 0.0
H157 H 0.86108 0.88711 0.92196 0.0
O158 O 0.75923 0.78778 0.93199 0.0
H159 H 0.78749 0.89604 0.83006 0.0
H160 H 0.90754 0.87636 0.93125 0.0
Cu161 Cu 0.25097 0.9801 0.91066 0.0
N162 N 0.2385 0.95137 0.86757 0.0
N163 N 0.22822 0.90774 0.82958 0.0
C164 C 0.23759 0.9228 0.86407 0.0
C165 C 0.22304 0.92751 0.81066 0.0
C166 C 0.22974 0.95457 0.83402 0.0
O167 O 0.2213 0.95727 0.94829 0.0
C168 C 0.31275 1.01045 0.94823 0.0
O169 O 0.30007 1.01592 0.97728 0.0
H170 H 0.24336 0.9131 0.88648 0.0
H171 H 0.22867 0.97522 0.82673 0.0
N172 N 0.2494 1.01765 0.90415 0.0
N173 N 0.25943 0.06878 0.91429 0.0
C174 C 0.2677 0.04726 0.92275 0.0
C175 C 0.22862 1.02052 0.88344 0.0
C176 C 0.23476 0.05192 0.88958 0.0
C177 C 0.19244 0.9461 0.93888 0.0
O178 O 0.18558 0.94961 0.9055 0.0
H179 H 0.28567 0.05246 0.94349 0.0
H180 H 0.20953 1.00095 0.86607 0.0
O181 O 0.29521 0.99411 0.91964 0.0
H182 H 0.21539 0.92289 0.78183 0.0
H183 H 0.22161 0.06139 0.87739 0.0
Cu184 Cu 0.09843 0.28537 0.90107 0.0
N185 N 0.12035 0.2982 0.85818 0.0
N186 N 0.15869 0.32608 0.82097 0.0
C187 C 0.15046 0.32198 0.85614 0.0
C188 C 0.13279 0.30378 0.80013 0.0
C189 C 0.10919 0.28674 0.82314 0.0
O190 O 0.12694 0.28842 0.9408 0.0
C191 C 0.08585 0.33771 0.90066 0.0
O192 O 0.114 0.35511 0.88874 0.0
H193 H 0.16586 0.33638 0.88 0.0
H194 H 0.08551 0.2674 0.81492 0.0
N195 N 0.06575 0.24205 0.89477 0.0
N196 N 1.02051 0.19769 0.90535 0.0
C197 C 1.03935 0.23011 0.91323 0.0
C198 C 0.06355 0.21639 0.87416 0.0
C199 C 1.03553 0.18899 0.88046 0.0
C200 C 0.14483 0.27733 0.93242 0.0
O201 O 0.14376 0.26564 0.89829 0.0
H202 H 1.03412 0.24514 0.93195 0.0
H203 H 0.08124 0.21745 0.85632 0.0
O204 O 0.07712 0.30974 0.91051 0.0
H205 H 0.13109 0.29969 0.77042 0.0
H206 H 1.02722 0.16448 0.86833 0.0
Cu207 Cu 0.84428 0.77643 0.56081 0.0
N208 N 0.8558 0.76445 0.60317 0.0
N209 N 0.86482 0.73399 0.63849 0.0
C210 C 0.85663 0.73698 0.60441 0.0
C211 C 0.869 0.76038 0.65965 0.0
C212 C 0.86324 0.77901 0.63789 0.0
O213 O 0.87083 0.77511 0.5224 0.0
C214 C 0.7819 0.74443 0.57733 0.0
O215 O 0.79529 0.7617 0.60891 0.0
H216 H 0.85121 0.71945 0.58076 0.0
H217 H 0.86348 0.801 0.64718 0.0
N218 N 0.85159 0.81906 0.56483 0.0
N219 N 0.85502 0.86392 0.54619 0.0
C220 C 0.84293 0.83159 0.53864 0.0
C221 C 0.87008 0.84448 0.58961 0.0
C222 C 0.87219 0.87203 0.57826 0.0
C223 C 0.89972 0.79671 0.52893 0.0
O224 O 0.90832 0.81582 0.5599 0.0
H225 H 0.82883 0.81739 0.5139 0.0
H226 H 0.88296 0.84368 0.61297 0.0
O227 O 0.79931 0.74681 0.55082 0.0
H228 H 0.87479 0.76531 0.68899 0.0
H229 H 0.88684 0.89643 0.59156 0.0
Cu230 Cu 0.28839 0.08027 0.62181 0.0
N231 N 0.2955 0.10577 0.66681 0.0
N232 N 0.31732 0.14971 0.70826 0.0
C233 C 0.31487 0.13821 0.67255 0.0
C234 C 0.29906 0.12332 0.72579 0.0
C235 C 0.28553 0.09629 0.70014 0.0
O236 O 0.28858 0.10557 0.58235 0.0
C237 C 0.32943 0.05841 0.59286 0.0
O238 O 0.31833 0.0582 0.56007 0.0
H239 H 0.32808 0.15285 0.65113 0.0
H240 H 0.2703 0.07137 0.7056 0.0
N241 N 0.24926 0.04164 0.61833 0.0
N242 N 0.21033 0.99165 0.59751 0.0
C243 C 0.24073 1.01475 0.59514 0.0
C244 C 0.22335 0.03543 0.63586 0.0
C245 C 0.1993 1.00469 0.62301 0.0
C246 C 0.27176 0.11851 0.58672 0.0
O247 O 0.2555 0.11354 0.61613 0.0
H248 H 0.2562 1.01274 0.57584 0.0
H249 H 0.22184 0.05237 0.65593 0.0
O250 O 0.32041 0.06814 0.62105 0.0
H251 H 0.29623 0.1235 0.75512 0.0
H252 H 0.17543 0.99297 0.63146 0.0
Cu253 Cu 0.99865 0.23231 0.59049 0.0
N254 N 0.97721 0.22173 0.63343 0.0
N255 N 0.93853 0.21287 0.67032 0.0
C256 C 0.95129 0.22341 0.63828 0.0
C257 C 0.95734 0.20416 0.68631 0.0
C258 C 0.98133 0.20984 0.66354 0.0
O259 O 0.96707 0.20351 0.55091 0.0
C260 C 1.02605 0.29894 0.56886 0.0
O261 O 1.02236 0.2882 0.53385 0.0
H262 H 0.94185 0.23199 0.6183 0.0
H263 H 0.9999 0.20492 0.66825 0.0
N264 N 1.03275 0.22573 0.59017 0.0
N265 N 0.08019 0.23331 0.57857 0.0
C266 C 0.06023 0.24431 0.57499 0.0
C267 C 1.03525 0.20198 0.60358 0.0
C268 C 0.0644 0.20656 0.59643 0.0
C269 C 0.95077 0.17364 0.55685 0.0
O270 O 0.95772 0.16486 0.58683 0.0
H271 H 0.06498 0.26486 0.56053 0.0
H272 H 1.01705 0.18243 0.61714 0.0
O273 O 1.01611 0.27899 0.59298 0.0
H274 H 0.95352 0.19334 0.71191 0.0
H275 H 0.07323 0.19125 0.60369 0.0
Cu276 Cu 0.95092 0.5655 0.39454 0.0
N277 N 0.96019 0.55005 0.43547 0.0
N278 N 0.98846 0.53715 0.47075 0.0
C279 C 0.98899 0.55561 0.44469 0.0
C280 C 0.95811 0.51981 0.47895 0.0
C281 C 0.94074 0.52767 0.45703 0.0
O282 O 0.94495 0.53491 0.35199 0.0
C283 C 0.99236 0.62895 0.42161 0.0
O284 O 0.97718 0.61725 0.45104 0.0
H285 H 1.00974 0.5715 0.43089 0.0
H286 H 0.91557 0.51666 0.45581 0.0
N287 N 0.91424 0.56784 0.39673 0.0
N288 N 0.87959 0.58176 0.37928 0.0
C289 C 0.90959 0.58849 0.37874 0.0
C290 C 0.88628 0.54753 0.40964 0.0
C291 C 0.865 0.55619 0.39918 0.0
C292 C 0.96438 0.52568 0.34468 0.0
O293 O 0.99166 0.54053 0.36325 0.0
H294 H 0.9278 0.60738 0.36441 0.0
H295 H 0.88109 0.52669 0.42367 0.0
O296 O 0.98518 0.60981 0.3921 0.0
H297 H 0.94893 0.50216 0.49875 0.0
H298 H 0.84019 0.54325 0.40373 0.0
Cu299 Cu 0.50329 0.40338 0.37904 0.0
N300 N 0.4636 0.39853 0.38279 0.0
N301 N 0.41695 0.38293 0.40596 0.0
C302 C 0.44042 0.37671 0.40181 0.0
C303 C 0.42539 0.40925 0.38796 0.0
C304 C 0.45431 0.41899 0.37398 0.0
O305 O 0.49719 0.35968 0.37834 0.0
C306 C 0.51968 0.4431 0.4476 0.0
O307 O 0.49199 0.42135 0.45755 0.0
H308 H 0.4414 0.35735 0.41347 0.0
H309 H 0.46828 0.4404 0.36005 0.0
N310 N 0.5215 0.42169 0.33601 0.0
N311 N 0.55842 0.45302 0.29904 0.0
C312 C 0.55217 0.44348 0.3332 0.0
C313 C 0.50773 0.41745 0.30257 0.0
C314 C 0.53043 0.43674 0.2797 0.0
C315 C 0.51447 0.35045 0.36243 0.0
O316 O 0.54065 0.37217 0.34925 0.0
H317 H 0.56964 0.45198 0.35579 0.0
H318 H 0.48291 0.40177 0.29547 0.0
O319 O 0.53019 0.43638 0.41859 0.0
H320 H 0.41229 0.42147 0.38649 0.0
H321 H 0.52644 0.43912 0.25131 0.0
Cu322 Cu 0.67262 0.12233 0.36831 0.0
N323 N 0.65152 0.11124 0.41182 0.0
N324 N 0.61358 0.08488 0.45003 0.0
C325 C 0.6211 0.0887 0.4146 0.0
C326 C 0.64028 0.10608 0.47026 0.0
C327 C 0.66364 0.12218 0.44664 0.0
O328 O 0.64493 0.12498 0.33214 0.0
C329 C 0.69763 0.08711 0.32703 0.0
O330 O 0.70225 0.10563 0.30061 0.0
H331 H 0.60498 0.0748 0.39109 0.0
H332 H 0.68786 0.14031 0.45432 0.0
N333 N 0.71049 0.16246 0.3767 0.0
N334 N 0.76079 0.20107 0.37268 0.0
C335 C 0.73777 0.17044 0.36128 0.0
C336 C 0.71651 0.18912 0.3987 0.0
C337 C 0.74742 0.21305 0.39607 0.0
C338 C 0.63489 0.14405 0.34155 0.0
O339 O 0.64432 0.16092 0.37402 0.0
H340 H 0.74059 0.15447 0.34131 0.0
H341 H 0.69958 0.19113 0.4154 0.0
O342 O 0.68353 0.08933 0.3551 0.0
H343 H 0.64275 0.10991 0.5 0.0
H344 H 0.75914 0.23734 0.41021 0.0
Cu345 Cu 0.89511 0.5918 0.77121 0.0
N346 N 0.87838 0.59822 0.72889 0.0
N347 N 0.86987 0.62736 0.6908 0.0
C348 C 0.88134 0.62704 0.72426 0.0
C349 C 0.85859 0.5971 0.67393 0.0
C350 C 0.86402 0.5792 0.69742 0.0
O351 O 0.86829 0.58984 0.81106 0.0
C352 C 0.96189 0.63026 0.78725 0.0
O353 O 0.95915 0.60673 0.80543 0.0
H354 H 0.89165 0.64733 0.74542 0.0
H355 H 0.85827 0.55432 0.69173 0.0
N356 N 0.89842 0.55444 0.76673 0.0
N357 N 0.91099 0.51853 0.78362 0.0
C358 C 0.90327 0.54093 0.79499 0.0
C359 C 0.90274 0.5397 0.7363 0.0
C360 C 0.91022 0.51741 0.74656 0.0
C361 C 0.83912 0.56889 0.80535 0.0
O362 O 0.82976 0.54962 0.77443 0.0
H363 H 0.90328 0.54907 0.82354 0.0
H364 H 0.90204 0.54582 0.70869 0.0
O365 O 0.93736 0.62953 0.77557 0.0
H366 H 0.84781 0.5887 0.6463 0.0
H367 H 0.91517 0.50203 0.72806 0.0
Cu368 Cu 0.47226 0.3326 0.77387 0.0
N369 N 0.46723 0.3463 0.72911 0.0
N370 N 0.44385 0.36254 0.69072 0.0
C371 C 0.4448 0.35367 0.72447 0.0
C372 C 0.46722 0.36128 0.67345 0.0
C373 C 0.4815 0.351 0.69716 0.0
O374 O 0.49349 0.37225 0.80834 0.0
C375 C 0.41993 0.27556 0.75448 0.0
O376 O 0.43877 0.27891 0.72802 0.0
H377 H 0.42989 0.35322 0.74612 0.0
H378 H 0.50088 0.34739 0.6915 0.0
N379 N 0.49569 0.31207 0.77589 0.0
N380 N 0.51128 0.28102 0.80022 0.0
C381 C 0.49447 0.2958 0.80461 0.0
C382 C 0.51378 0.30729 0.75202 0.0
C383 C 0.52335 0.28802 0.76695 0.0
C384 C 0.52109 0.39291 0.79964 0.0
O385 O 0.53197 0.38507 0.77038 0.0
H386 H 0.4803 0.29384 0.8277 0.0
H387 H 0.51911 0.31651 0.72546 0.0
O388 O 0.42961 0.2978 0.78147 0.0
H389 H 0.47346 0.36724 0.6457 0.0
H390 H 0.53795 0.27972 0.75425 0.0
Cu391 Cu 0.75649 0.16224 0.79136 0.0
N392 N 0.78141 0.18196 0.75284 0.0
N393 N 0.82286 0.19826 0.71867 0.0
C394 C 0.8056 0.17828 0.74352 0.0
C395 C 0.80867 0.21479 0.71118 0.0
C396 C 0.78303 0.20476 0.7326 0.0
O397 O 0.7797 0.19029 0.83636 0.0
C398 C 0.72725 0.09429 0.79891 0.0
O399 O 0.71189 0.09921 0.82528 0.0
H400 H 0.81118 0.16205 0.75579 0.0
H401 H 0.7676 0.21441 0.7345 0.0
N402 N 0.71718 0.15853 0.78664 0.0
N403 N 0.66995 0.14955 0.80175 0.0
C404 C 0.6986 0.15638 0.81426 0.0
C405 C 0.69963 0.15258 0.75552 0.0
C406 C 0.67048 0.14703 0.76475 0.0
C407 C 0.80851 0.19992 0.84343 0.0
O408 O 0.8212 0.1857 0.82432 0.0
H409 H 0.70551 0.15823 0.84291 0.0
H410 H 0.70716 0.15131 0.72806 0.0
O411 O 0.74916 0.11843 0.78497 0.0
H412 H 0.81718 0.23386 0.69311 0.0
H413 H 0.65112 0.14133 0.74577 0.0
Cu414 Cu 0.46865 0.1691 0.25373 0.0
N415 N 0.45778 0.18332 0.21326 0.0
N416 N 0.42879 0.19362 0.17591 0.0
C417 C 0.42899 0.17808 0.20482 0.0
C418 C 0.45869 0.2093 0.16581 0.0
C419 C 0.47652 0.20293 0.18893 0.0
O420 O 0.47994 0.20293 0.29486 0.0
C421 C 0.43504 0.10442 0.2748 0.0
O422 O 0.45981 0.11384 0.29683 0.0
H423 H 0.40869 0.16364 0.2201 0.0
H424 H 0.50154 0.21275 0.18881 0.0
N425 N 0.50367 0.16487 0.24514 0.0
N426 N 0.54355 0.1569 0.25608 0.0
C427 C 0.52346 0.16524 0.27088 0.0
C428 C 0.51173 0.15635 0.21288 0.0
C429 C 0.53639 0.15159 0.21948 0.0
C430 C 0.46318 0.21533 0.30335 0.0
O431 O 0.43445 0.20114 0.28863 0.0
H432 H 0.52218 0.17005 0.3001 0.0
H433 H 0.49987 0.1529 0.18649 0.0
O434 O 0.43324 0.12535 0.25761 0.0
H435 H 0.46737 0.22537 0.14433 0.0
H436 H 0.54802 0.14467 0.19891 0.0
Cu437 Cu 0.91678 0.31399 0.25694 0.0
N438 N 0.8979 0.28198 0.21703 0.0
N439 N 0.88553 0.23764 0.17917 0.0
C440 C 0.90817 0.26293 0.20135 0.0
C441 C 0.86018 0.24087 0.18091 0.0
C442 C 0.86788 0.26822 0.20425 0.0
O443 O 0.89075 0.29628 0.29821 0.0
C444 C 0.97858 0.33704 0.23925 0.0
O445 O 0.96699 0.33888 0.20774 0.0
H446 H 0.93099 0.2663 0.20787 0.0
H447 H 0.85219 0.27649 0.21301 0.0
N448 N 0.9169 0.35192 0.24896 0.0
N449 N 0.9251 0.40218 0.26005 0.0
C450 C 0.92941 0.37911 0.27265 0.0
C451 C 0.90443 0.35803 0.22017 0.0
C452 C 0.90946 0.38904 0.22692 0.0
C453 C 0.87915 0.26674 0.30412 0.0
O454 O 0.88868 0.24924 0.28526 0.0
H455 H 0.94098 0.38168 0.29898 0.0
H456 H 0.89248 0.34112 0.19602 0.0
O457 O 0.9602 0.32576 0.26524 0.0
H458 H 0.8375 0.22415 0.16698 0.0
H459 H 0.90253 0.40107 0.20864 0.0
Cu460 Cu 0.76432 0.62843 0.25728 0.0
N461 N 0.78756 0.63959 0.21493 0.0
N462 N 0.82573 0.66827 0.1776 0.0
C463 C 0.8135 0.66841 0.21059 0.0
C464 C 0.80675 0.63793 0.16091 0.0
C465 C 0.78317 0.62059 0.18363 0.0
O466 O 0.79224 0.62953 0.29697 0.0
C467 C 0.73286 0.66267 0.28734 0.0
O468 O 0.72683 0.64677 0.31651 0.0
H469 H 0.8232 0.68904 0.23134 0.0
H470 H 0.76454 0.59561 0.17787 0.0
N471 N 0.7294 0.58569 0.25001 0.0
N472 N 0.68169 0.54169 0.25346 0.0
C473 C 0.70007 0.57425 0.26151 0.0
C474 C 0.72949 0.55928 0.23481 0.0
C475 C 0.70026 0.53229 0.23677 0.0
C476 C 0.80851 0.61668 0.28741 0.0
O477 O 0.80525 0.60417 0.25319 0.0
H478 H 0.69241 0.58931 0.27592 0.0
H479 H 0.74971 0.55934 0.22407 0.0
O480 O 0.74925 0.65899 0.26292 0.0
H481 H 0.81004 0.62826 0.13466 0.0
H482 H 0.6936 0.50746 0.22804 0.0
Cu483 Cu 0.50924 0.11093 0.91725 0.0
N484 N 0.52079 0.10003 0.96064 0.0
N485 N 0.52909 0.06983 0.99746 0.0
C486 C 0.52092 0.0723 0.96305 0.0
C487 C 0.53462 0.09738 0.01736 0.0
C488 C 0.5292 0.11573 0.99477 0.0
O489 O 0.53695 0.10923 0.88017 0.0
C490 C 0.44915 0.0847 0.93769 0.0
O491 O 0.46578 0.108 0.96403 0.0
H492 H 0.51455 0.05399 0.94 0.0
H493 H 0.53092 0.13865 0.00298 0.0
N494 N 0.51699 0.15371 0.91903 0.0
N495 N 0.52033 0.19778 0.898 0.0
C496 C 0.50808 0.16532 0.89201 0.0
C497 C 0.53585 0.17989 0.94274 0.0
C498 C 0.53789 0.20695 0.92994 0.0
C499 C 0.56581 0.12878 0.89055 0.0
O500 O 0.57206 0.14491 0.92332 0.0
H501 H 0.49363 0.15031 0.8678 0.0
H502 H 0.54888 0.17985 0.96644 0.0
O503 O 0.46359 0.08131 0.9104 0.0
H504 H 0.54249 0.10424 0.04612 0.0
H505 H 0.55269 0.2317 0.94219 0.0
Cu506 Cu 0.96923 0.4181 0.91541 0.0
N507 N 0.98553 0.4477 0.95795 0.0
N508 N 1.01903 0.49114 0.99624 0.0
C509 C 1.01506 0.47338 0.96382 0.0
C510 C 0.99097 0.47608 0.01131 0.0
C511 C 0.97044 0.44916 0.98782 0.0
O512 O 0.96262 0.44006 0.87611 0.0
C513 C 0.99771 0.3825 0.88331 0.0
O514 O 0.97352 0.36743 0.85932 0.0
H515 H 1.03296 0.47951 0.94416 0.0
H516 H 0.94603 0.43228 0.99182 0.0
N517 N 0.92969 0.38142 0.92271 0.0
N518 N 0.88818 0.3302 0.91563 0.0
C519 C 0.9198 0.34954 0.91502 0.0
C520 C 0.90342 0.3821 0.92918 0.0
C521 C 0.87803 0.35094 0.92463 0.0
C522 C 0.94944 0.45646 0.88444 0.0
O523 O 0.94308 0.45952 0.91882 0.0
H524 H 0.9353 0.34075 0.9076 0.0
H525 H 0.90235 0.40389 0.93437 0.0
O526 O 1.00031 0.4052 0.90638 0.0
H527 H 0.98566 0.48415 0.03736 0.0
H528 H 0.85382 0.34467 0.92493 0.0
Cu529 Cu 0.66467 0.56271 0.91988 0.0
N530 N 0.64348 0.55094 0.96313 0.0
N531 N 0.60464 0.54129 0.00018 0.0
C532 C 0.62455 0.56122 0.97668 0.0
C533 C 0.61193 0.51806 0.00222 0.0
C534 C 0.63586 0.52406 0.97936 0.0
O535 O 0.6346 0.53272 0.87951 0.0
C536 C 0.67289 0.62789 0.91625 0.0
O537 O 0.64271 0.61486 0.90856 0.0
H538 H 0.62261 0.58036 0.96592 0.0
H539 H 0.64486 0.5082 0.97229 0.0
N540 N 0.69896 0.55648 0.92038 0.0
N541 N 0.74281 0.55843 0.90217 0.0
C542 C 0.71683 0.55879 0.89184 0.0
C543 C 0.71411 0.55444 0.94974 0.0
C544 C 0.74106 0.55545 0.93857 0.0
C545 C 0.60498 0.5206 0.88076 0.0
O546 O 0.59455 0.53395 0.90503 0.0
H547 H 0.71164 0.56222 0.86436 0.0
H548 H 0.7067 0.5535 0.97758 0.0
O549 O 0.6842 0.60967 0.91925 0.0
H550 H 0.59925 0.49687 0.01695 0.0
H551 H 0.75812 0.55435 0.95595 0.0
Cu552 Cu 0.61676 0.89833 0.72157 0.0
N553 N 0.61994 0.87776 0.76096 0.0
N554 N 0.64433 0.86244 0.79895 0.0
C555 C 0.64766 0.88338 0.77471 0.0
C556 C 0.61302 0.84307 0.80104 0.0
C557 C 0.59801 0.85253 0.77741 0.0
O558 O 0.61274 0.87061 0.677 0.0
C559 C 0.65749 0.96661 0.71787 0.0
O560 O 0.63683 0.96426 0.69332 0.0
H561 H 0.66996 0.90138 0.76536 0.0
H562 H 0.573 0.84107 0.7716 0.0
N563 N 0.58243 0.90462 0.72326 0.0
N564 N 0.54781 0.91778 0.70366 0.0
C565 C 0.56611 0.90529 0.69404 0.0
C566 C 0.5739 0.91661 0.75251 0.0
C567 C 0.55245 0.9245 0.7406 0.0
C568 C 0.63216 0.86113 0.67099 0.0
O569 O 0.6579 0.87422 0.6924 0.0
H570 H 0.56857 0.89768 0.66621 0.0
H571 H 0.58403 0.92118 0.78023 0.0
O572 O 0.65458 0.94099 0.72895 0.0
H573 H 0.60171 0.82321 0.81792 0.0
H574 H 0.54244 0.93602 0.75764 0.0
Cu575 Cu 0.16824 0.73219 0.70539 0.0
N576 N 0.12678 0.72165 0.69925 0.0
N577 N 0.07821 0.70428 0.71714 0.0
C578 C 0.10369 0.70122 0.71939 0.0
C579 C 0.08545 0.72711 0.69387 0.0
C580 C 0.11555 0.73802 0.68319 0.0
O581 O 0.16537 0.69095 0.71264 0.0
C582 C 0.21051 0.78641 0.76088 0.0
O583 O 0.23463 0.78376 0.75154 0.0
H584 H 0.10622 0.68535 0.73641 0.0
H585 H 0.12903 0.75795 0.66696 0.0
N586 N 0.18974 0.74906 0.66326 0.0
N587 N 0.22656 0.78002 0.62594 0.0
C588 C 0.21703 0.77711 0.66072 0.0
C589 C 0.18173 0.73377 0.62897 0.0
C590 C 0.20438 0.75262 0.60599 0.0
C591 C 0.18203 0.68083 0.69692 0.0
O592 O 0.20695 0.70133 0.68064 0.0
H593 H 0.22985 0.79489 0.6839 0.0
H594 H 0.16137 0.70997 0.62152 0.0
O595 O 0.1833 0.76586 0.74656 0.0
H596 H 0.07074 0.7366 0.68673 0.0
H597 H 0.20511 0.74583 0.57719 0.0
Cu598 Cu 0.34299 0.45416 0.69432 0.0
N599 N 0.32041 0.44274 0.73682 0.0
N600 N 0.28033 0.41657 0.77262 0.0
C601 C 0.2896 0.42068 0.73781 0.0
C602 C 0.30648 0.43668 0.79433 0.0
C603 C 0.33111 0.4528 0.7722 0.0
O604 O 0.31576 0.45711 0.65753 0.0
C605 C 0.36962 0.41879 0.6561 0.0
O606 O 0.37562 0.43721 0.62927 0.0
H607 H 0.2746 0.40715 0.7134 0.0
H608 H 0.35523 0.47021 0.78128 0.0
N609 N 0.38073 0.4945 0.70359 0.0
N610 N 0.43062 0.53427 0.69961 0.0
C611 C 0.40804 0.50357 0.68762 0.0
C612 C 0.38634 0.52052 0.72659 0.0
C613 C 0.41697 0.54513 0.72398 0.0
C614 C 0.30612 0.47653 0.66723 0.0
O615 O 0.316 0.49339 0.69966 0.0
H616 H 0.4112 0.48843 0.6668 0.0
H617 H 0.3693 0.52167 0.74386 0.0
O618 O 0.3542 0.42105 0.68273 0.0
H619 H 0.30773 0.43947 0.8241 0.0
H620 H 0.42831 0.56916 0.73877 0.0
Cu621 Cu 0.57779 0.93935 0.12681 0.0
N622 N 0.55959 0.94339 0.08402 0.0
N623 N 0.54438 0.96811 0.04693 0.0
C624 C 0.56017 0.97095 0.07846 0.0
C625 C 0.53393 0.93767 0.03133 0.0
C626 C 0.54322 0.92233 0.05446 0.0
O627 O 0.54949 0.93456 0.16561 0.0
C628 C 0.64408 0.98001 0.14179 0.0
O629 O 0.64247 0.95584 0.15766 0.0
H630 H 0.57211 0.99289 0.09724 0.0
H631 H 0.538 0.89754 0.05028 0.0
N632 N 0.58283 0.90305 0.12412 0.0
N633 N 0.59171 0.86546 0.14413 0.0
C634 C 0.58361 0.88795 0.1532 0.0
C635 C 0.59043 0.88945 0.09545 0.0
C636 C 0.59575 0.86617 0.10764 0.0
C637 C 0.54097 0.9548 0.17528 0.0
O638 O 0.55556 0.98344 0.16302 0.0
H639 H 0.57967 0.89442 0.18091 0.0
H640 H 0.59275 0.89654 0.06784 0.0
O641 O 0.61888 0.97869 0.13174 0.0
H642 H 0.51988 0.92702 0.00569 0.0
H643 H 0.60203 0.85098 0.09083 0.0
Cu644 Cu 0.13688 0.66505 0.12096 0.0
N645 N 0.10545 0.67529 0.12441 0.0
N646 N 0.07286 0.69064 0.10434 0.0
C647 C 0.10095 0.69287 0.10107 0.0
C648 C 0.05942 0.67115 0.13129 0.0
C649 C 0.07944 0.66148 0.14335 0.0
O650 O 0.17751 0.70541 0.11749 0.0
C651 C 0.12501 0.60941 0.06765 0.0
O652 O 0.1494 0.60938 0.08159 0.0
H653 H 0.11795 0.70653 0.08172 0.0
H654 H 0.07468 0.64426 0.16307 0.0
N655 N 0.14035 0.64713 0.16314 0.0
N656 N 0.14686 0.61535 0.19922 0.0
C657 C 0.13595 0.61735 0.16607 0.0
C658 C 0.15376 0.66424 0.19579 0.0
C659 C 0.15772 0.64481 0.21802 0.0
C660 C 0.18249 0.73152 0.13613 0.0
O661 O 0.15959 0.73078 0.15456 0.0
H662 H 0.12549 0.5978 0.14414 0.0
H663 H 0.16177 0.68968 0.20228 0.0
O664 O 0.12006 0.63213 0.07858 0.0
H665 H 1.03621 0.6633 0.14058 0.0
H666 H 0.16944 0.65248 0.2452 0.0
Cu667 Cu 0.42439 0.50023 0.11826 0.0
N668 N 0.4495 0.51914 0.07934 0.0
N669 N 0.49119 0.5346 0.04545 0.0
C670 C 0.47123 0.51244 0.06698 0.0
C671 C 0.48108 0.55565 0.04331 0.0
C672 C 0.45539 0.5461 0.06441 0.0
O673 O 0.44738 0.52761 0.16351 0.0
C674 C 0.40299 0.43838 0.0849 0.0
O675 O 0.40025 0.45244 0.05708 0.0
H676 H 0.4741 0.49338 0.07642 0.0
H677 H 0.4432 0.55905 0.07036 0.0
N678 N 0.38612 0.4988 0.11519 0.0
N679 N 0.33989 0.4909 0.13295 0.0
C680 C 0.3668 0.49229 0.14296 0.0
C681 C 0.37082 0.50123 0.08628 0.0
C682 C 0.34221 0.4963 0.09717 0.0
C683 C 0.47718 0.54224 0.16766 0.0
O684 O 0.49265 0.5349 0.14363 0.0
H685 H 0.37211 0.48771 0.16974 0.0
H686 H 0.37962 0.50579 0.05914 0.0
O687 O 0.41414 0.45534 0.11592 0.0
H688 H 0.49212 0.57708 0.02877 0.0
H689 H 0.32458 0.49683 0.08019 0.0
Cu690 Cu 0.13815 0.5024 0.58913 0.0
N691 N 0.12543 0.51715 0.55065 0.0
N692 N 0.09454 0.52849 0.51809 0.0
C693 C 0.09603 0.51093 0.54405 0.0
C694 C 0.12427 0.54654 0.50804 0.0
C695 C 0.14326 0.53946 0.52813 0.0
O696 O 0.15025 0.53552 0.63103 0.0
C697 C 0.10586 0.43827 0.61109 0.0
O698 O 0.13161 0.44813 0.63148 0.0
H699 H 0.07648 0.49526 0.55964 0.0
H700 H 0.16844 0.55076 0.5275 0.0
N701 N 0.17296 0.49834 0.57802 0.0
N702 N 0.21297 0.49 0.58639 0.0
C703 C 0.19366 0.49882 0.60254 0.0
C704 C 0.17964 0.48926 0.54512 0.0
C705 C 0.20436 0.48425 0.55015 0.0
C706 C 0.13216 0.5453 0.64298 0.0
O707 O 0.10256 0.52902 0.63095 0.0
H708 H 0.19352 0.50395 0.63194 0.0
H709 H 0.16673 0.48549 0.51943 0.0
O710 O 0.10319 0.45876 0.59409 0.0
H711 H 0.13186 0.56413 0.48819 0.0
H712 H 0.21498 0.47676 0.52877 0.0
Cu713 Cu 0.58387 0.65035 0.58035 0.0
N714 N 0.5697 0.61993 0.53842 0.0
N715 N 0.558 0.57487 0.50214 0.0
C716 C 0.56533 0.5898 0.53675 0.0
C717 C 0.55748 0.59627 0.48114 0.0
C718 C 0.56478 0.62405 0.50355 0.0
O719 O 0.55516 0.63027 0.61902 0.0
C720 C 0.64523 0.67494 0.56343 0.0
O721 O 0.63219 0.67492 0.53207 0.0
H722 H 0.56853 0.57933 0.56014 0.0
H723 H 0.5672 0.64602 0.49479 0.0
N724 N 0.58254 0.68767 0.57288 0.0
N725 N 0.59165 0.73833 0.58428 0.0
C726 C 0.6001 0.7169 0.59247 0.0
C727 C 0.56202 0.69055 0.55173 0.0
C728 C 0.5676 0.72173 0.55867 0.0
C729 C 0.55035 0.60552 0.63435 0.0
O730 O 0.56883 0.59385 0.6281 0.0
H731 H 0.61746 0.72164 0.61394 0.0
H732 H 0.5434 0.67099 0.53378 0.0
O733 O 0.62797 0.66472 0.59064 0.0
H734 H 0.55215 0.59213 0.45172 0.0
H735 H 0.55437 0.73117 0.54658 0.0
Cu736 Cu 0.42883 0.95766 0.57799 0.0
N737 N 0.452 0.96953 0.53583 0.0
N738 N 0.49201 0.9963 0.50007 0.0
C739 C 0.48311 0.99049 0.53485 0.0
C740 C 0.46533 0.97854 0.47849 0.0
C741 C 0.44077 0.96227 0.50055 0.0
O742 O 0.45548 0.95633 0.61696 0.0
C743 C 0.39951 0.99254 0.61153 0.0
O744 O 0.39406 0.97602 0.64009 0.0
H745 H 0.49853 1.00235 0.55934 0.0
H746 H 0.41627 0.9471 0.49155 0.0
N747 N 0.39275 0.91617 0.5689 0.0
N748 N 0.34502 0.87306 0.5739 0.0
C749 C 0.36743 0.90268 0.58935 0.0
C750 C 0.38624 0.89392 0.54002 0.0
C751 C 0.35678 0.86743 0.54292 0.0
C752 C 0.46911 0.94061 0.60756 0.0
O753 O 0.4639 0.92646 0.57379 0.0
H754 H 0.36518 0.91442 0.61473 0.0
H755 H 0.40184 0.89667 0.51835 0.0
O756 O 0.41519 0.98914 0.58598 0.0
H757 H 0.46357 0.97775 0.44885 0.0
H758 H 0.34502 0.84554 0.52398 0.0
Cu759 Cu 0.17706 0.44043 0.24985 0.0
N760 N 0.18703 0.42574 0.29102 0.0
N761 N 0.19565 0.39397 0.32444 0.0
C762 C 0.18826 0.39838 0.29066 0.0
C763 C 0.1992 0.41946 0.3469 0.0
C764 C 0.19359 0.43883 0.32634 0.0
O765 O 0.20736 0.44532 0.21321 0.0
C766 C 0.11451 0.40375 0.26135 0.0
O767 O 0.12643 0.41885 0.29424 0.0
H768 H 0.18409 0.38221 0.26604 0.0
H769 H 0.19367 0.46051 0.33674 0.0
N770 N 0.18039 0.48103 0.25997 0.0
N771 N 0.17363 0.52285 0.25301 0.0
C772 C 0.16542 0.49218 0.24039 0.0
C773 C 0.19887 0.50565 0.28563 0.0
C774 C 0.19451 0.53129 0.28163 0.0
C775 C 0.23595 0.46401 0.2249 0.0
O776 O 0.2416 0.47737 0.25906 0.0
H777 H 0.14895 0.47811 0.21721 0.0
H778 H 0.21521 0.50555 0.30514 0.0
O779 O 0.13304 0.40943 0.2353 0.0
H780 H 0.20482 0.4234 0.37625 0.0
H781 H 0.2066 0.55478 0.29767 0.0
Cu782 Cu 0.62265 0.75181 0.28718 0.0
N783 N 0.6287 0.7774 0.3316 0.0
N784 N 0.64998 0.82141 0.37279 0.0
C785 C 0.64771 0.80986 0.33716 0.0
C786 C 0.63194 0.79507 0.39046 0.0
C787 C 0.61868 0.76795 0.36493 0.0
O788 O 0.6237 0.77706 0.24691 0.0
C789 C 0.66378 0.72867 0.26136 0.0
O790 O 0.65307 0.72746 0.22796 0.0
H791 H 0.66099 0.82449 0.31575 0.0
H792 H 0.60376 0.74301 0.37048 0.0
N793 N 0.58334 0.71336 0.28364 0.0
N794 N 0.54478 0.66287 0.26334 0.0
C795 C 0.57584 0.68511 0.26399 0.0
C796 C 0.55621 0.70893 0.29619 0.0
C797 C 0.53242 0.67803 0.28356 0.0
C798 C 0.60466 0.78752 0.24847 0.0
O799 O 0.58656 0.78084 0.27634 0.0
H800 H 0.59283 0.68134 0.24963 0.0
H801 H 0.55365 0.72734 0.31209 0.0
O802 O 0.65459 0.73943 0.28852 0.0
H803 H 0.62922 0.79533 0.41982 0.0
H804 H 0.50777 0.66845 0.28731 0.0
Cu805 Cu 0.33482 0.89817 0.2418 0.0
N806 N 0.31089 0.88299 0.28229 0.0
N807 N 0.27103 0.87221 0.31786 0.0
C808 C 0.28167 0.87778 0.28387 0.0
C809 C 0.29429 0.87339 0.33842 0.0
C810 C 0.31908 0.88042 0.31645 0.0
O811 O 0.30597 0.87142 0.19916 0.0
C812 C 0.36117 0.96587 0.22539 0.0
O813 O 0.36128 0.95695 0.19043 0.0
H814 H 0.26893 0.87919 0.26068 0.0
H815 H 0.34194 0.88506 0.32528 0.0
N816 N 0.37046 0.89438 0.24422 0.0
N817 N 0.4195 0.90526 0.23685 0.0
C818 C 0.39771 0.913 0.22871 0.0
C819 C 0.37505 0.87403 0.26265 0.0
C820 C 0.40518 0.88057 0.25801 0.0
C821 C 0.30307 0.84414 0.18766 0.0
O822 O 0.32317 0.83696 0.2007 0.0
H823 H 0.40118 0.93143 0.21126 0.0
H824 H 0.35768 0.85566 0.27828 0.0
O825 O 0.34968 0.94453 0.24795 0.0
H826 H 0.29404 0.87113 0.36764 0.0
H827 H 0.41579 0.86822 0.26952 0.0
C828 C 0.35601 0.19945 0.17109 0.0
C829 C 0.35181 0.20088 0.13337 0.0
C830 C 0.38101 0.1968 0.18477 0.0
C831 C 0.4027 0.19537 0.16121 0.0
H832 H 0.34021 0.20107 0.19022 0.0
H833 H 0.38378 0.19655 0.21412 0.0
S834 S 0.3995 0.19369 0.05961 0.0
N835 N 0.36971 0.19762 0.07231 0.0
N836 N 0.41658 0.1927 0.09797 0.0
C837 C 0.39815 0.19577 0.12331 0.0
C838 C 0.37274 0.19848 0.10941 0.0
C839 C 0.86155 0.15344 0.13803 0.0
C840 C 0.88382 0.15949 0.1116 0.0
C841 C 0.86294 0.17905 0.16117 0.0
C842 C 0.887 0.2114 0.1592 0.0
H843 H 0.84165 0.12915 0.13897 0.0
H844 H 0.84448 0.17372 0.17986 0.0
S845 S 0.95246 0.23959 0.09708 0.0
N846 N 0.93154 0.19988 0.08626 0.0
N847 N 0.9347 0.24776 0.1307 0.0
C848 C 0.91052 0.21745 0.13468 0.0
C849 C 0.90875 0.19154 0.11059 0.0
C850 C 0.87844 0.71857 0.1878 0.0
C851 C 0.85359 0.69455 0.16359 0.0
C852 C 0.90596 0.74367 0.17455 0.0
C853 C 0.90993 0.74552 0.1366 0.0
H854 H 0.87692 0.71768 0.21722 0.0
H855 H 0.92458 0.76134 0.19409 0.0
S856 S 0.85108 0.69114 0.06159 0.0
N857 N 0.83411 0.67648 0.0996 0.0
N858 N 0.88596 0.72262 0.07509 0.0
C859 C 0.88513 0.72219 0.11217 0.0
C860 C 0.85699 0.697 0.12554 0.0
C861 C 0.2274 0.34957 0.37166 0.0
C862 C 0.20504 0.31663 0.36113 0.0
C863 C 0.2244 0.37457 0.35909 0.0
C864 C 0.1992 0.36781 0.33498 0.0
H865 H 0.2474 0.3562 0.39003 0.0
H866 H 0.24194 0.39949 0.36836 0.0
S867 S 0.13392 0.28615 0.29918 0.0
N868 N 0.15638 0.27885 0.3253 0.0
N869 N 0.15136 0.32604 0.30099 0.0
C870 C 0.17703 0.33516 0.32342 0.0
C871 C 0.17982 0.30955 0.3366 0.0
C872 C 0.68973 0.86052 0.42118 0.0
C873 C 0.67113 0.85429 0.38875 0.0
C874 C 0.71488 0.89199 0.43277 0.0
C875 C 0.7219 0.91812 0.41248 0.0
H876 H 0.68635 0.84061 0.43605 0.0
H877 H 0.73043 0.8953 0.45581 0.0
S878 S 0.6772 0.91562 0.32951 0.0
N879 N 0.65896 0.87773 0.33971 0.0
N880 N 0.70634 0.93645 0.36106 0.0
C881 C 0.70187 0.91261 0.38196 0.0
C882 C 0.67643 0.88079 0.3702 0.0
C883 C 0.19652 0.84269 0.36729 0.0
C884 C 0.18448 0.86124 0.35473 0.0
C885 C 0.2249 0.84652 0.35534 0.0
C886 C 0.2422 0.86895 0.33034 0.0
H887 H 0.18363 0.8247 0.38601 0.0
H888 H 0.23315 0.83147 0.36521 0.0
S889 S 0.22288 0.92619 0.2928 0.0
N890 N 0.1934 0.90469 0.31832 0.0
N891 N 0.24663 0.91189 0.2959 0.0
C892 C 0.23084 0.88822 0.31833 0.0
C893 C 0.20201 0.88434 0.33049 0.0
C894 C 0.69889 0.88878 0.82482 0.0
C895 C 0.66958 0.86035 0.81576 0.0
C896 C 0.72475 0.88753 0.83803 0.0
C897 C 0.72242 0.85779 0.84295 0.0
H898 H 0.70191 0.91229 0.82148 0.0
H899 H 0.74675 0.91009 0.84464 0.0
S900 S 0.6515 0.77615 0.82237 0.0
N901 N 0.64009 0.80138 0.81197 0.0
N902 N 0.68865 0.79915 0.83731 0.0
C903 C 0.69323 0.82916 0.83453 0.0
C904 C 0.66684 0.83039 0.82085 0.0
C905 C 0.19611 0.8543 0.79429 0.0
C906 C 0.22359 0.87664 0.81554 0.0
C907 C 0.19172 0.82471 0.77826 0.0
C908 C 0.21497 0.81644 0.7821 0.0
H909 H 0.17794 0.85992 0.78983 0.0
H910 H 0.17023 0.80871 0.76163 0.0
S911 S 0.29111 0.86668 0.83597 0.0
N912 N 0.27408 0.88847 0.84075 0.0
N913 N 0.2663 0.83306 0.80986 0.0
C914 C 0.24244 0.83845 0.8039 0.0
C915 C 0.24662 0.86845 0.82084 0.0
C916 C 0.21668 0.35666 0.82827 0.0
C917 C 0.18896 0.34913 0.80853 0.0
C918 C 0.24633 0.3787 0.81645 0.0
C919 C 0.24952 0.39419 0.78443 0.0
H920 H 0.21543 0.34499 0.85272 0.0
H921 H 0.26696 0.38325 0.8322 0.0
S922 S 0.18424 0.38553 0.72509 0.0
N923 N 0.16663 0.36067 0.75678 0.0
N924 N 0.22222 0.40207 0.7347 0.0
C925 C 0.22197 0.38737 0.76486 0.0
C926 C 0.19177 0.36488 0.77686 0.0
C927 C 0.84375 0.67507 0.63931 0.0
C928 C 0.86714 0.70745 0.65034 0.0
C929 C 0.84496 0.64903 0.65221 0.0
C930 C 0.86975 0.65438 0.67638 0.0
H931 H 0.82396 0.66991 0.62138 0.0
H932 H 0.82596 0.62455 0.64388 0.0
S933 S 0.93919 0.73478 0.70881 0.0
N934 N 0.91706 0.74343 0.68405 0.0
N935 N 0.92003 0.69483 0.70738 0.0
C936 C 0.89396 0.68674 0.68625 0.0
C937 C 0.89248 0.71315 0.67348 0.0
C938 C 0.38063 0.22018 0.7703 0.0
C939 C 0.38816 0.24656 0.75022 0.0
C940 C 0.35596 0.18869 0.75776 0.0
C941 C 0.33836 0.18259 0.72449 0.0
H942 H 0.39543 0.22339 0.7941 0.0
H943 H 0.35215 0.16869 0.77274 0.0
S944 S 0.34626 0.24453 0.66495 0.0
N945 N 0.37426 0.2652 0.6978 0.0
N946 N 0.32779 0.20646 0.67458 0.0
C947 C 0.34424 0.2093 0.7059 0.0
C948 C 0.36918 0.24116 0.71868 0.0
C949 C 0.8855 0.20397 0.65759 0.0
C950 C 0.90986 0.21004 0.68307 0.0
C951 C 0.85738 0.20098 0.6693 0.0
C952 C 0.85246 0.20351 0.70684 0.0
H953 H 0.8879 0.20088 0.62836 0.0
H954 H 0.83902 0.19581 0.64899 0.0
S955 S 0.90941 0.22251 0.78461 0.0
N956 N 0.92777 0.22116 0.74764 0.0
N957 N 0.87454 0.21444 0.76939 0.0
C958 C 0.87666 0.21018 0.73255 0.0
C959 C 0.90543 0.21365 0.72074 0.0
C960 C 1.04496 0.56209 0.48822 0.0
C961 C 1.01456 0.5345 0.48373 0.0
C962 C 0.07092 0.55996 0.49931 0.0
C963 C 0.06757 0.53013 0.50638 0.0
H964 H 0.04867 0.58559 0.48332 0.0
H965 H 0.09375 0.58193 0.50282 0.0
S966 S 0.99364 0.45015 0.49547 0.0
N967 N 0.98307 0.47603 0.48509 0.0
N968 N 1.03173 0.47213 0.50608 0.0
C969 C 1.0374 0.5023 0.50163 0.0
C970 C 1.01095 0.50445 0.4903 0.0
C971 C 0.52351 0.48453 0.49732 0.0
C972 C 0.53412 0.47744 0.46412 0.0
C973 C 0.53233 0.51652 0.5103 0.0
C974 C 0.55166 0.54264 0.49029 0.0
H975 H 0.50739 0.46509 0.51287 0.0
H976 H 0.52286 0.52073 0.53536 0.0
S977 S 0.58869 0.53823 0.40409 0.0
N978 N 0.56746 0.50015 0.41323 0.0
N979 N 0.5835 0.55995 0.43762 0.0
C980 C 0.56364 0.53624 0.45808 0.0
C981 C 0.55508 0.50376 0.44506 0.0
C982 C 0.55568 0.05671 0.44487 0.0
C983 C 0.58337 0.06264 0.46321 0.0
C984 C 0.52607 0.03521 0.45716 0.0
C985 C 0.52286 1.01855 0.48821 0.0
H986 H 0.55696 0.06917 0.42111 0.0
H987 H 0.50553 1.03194 0.44244 0.0
S988 S 0.58806 1.02336 0.54396 0.0
N989 N 0.60567 0.04878 0.51279 0.0
N990 N 0.55013 1.00821 0.53568 0.0
C991 C 0.55039 1.02393 0.50648 0.0
C992 C 0.58057 0.04596 0.49404 0.0
C993 C 0.54031 1.02521 0.98584 0.0
C994 C 0.53157 0.0434 0.00994 0.0
C995 C 0.5437 1.00007 0.99771 0.0
C996 C 0.5388 0.99237 0.03421 0.0
H997 H 0.54524 1.03089 0.95778 0.0
H998 H 0.55107 0.98717 0.97855 0.0
S999 S 0.51171 1.02926 0.10705 0.0
N1000 N 0.51503 0.04924 0.07124 0.0
N1001 N 0.52227 1.00283 0.09348 0.0
C1002 C 0.52919 1.00959 0.05825 0.0
C1003 C 0.52539 0.03488 0.04618 0.0
C1004 C 1.04347 0.54741 0.02522 0.0
C1005 C 0.04648 0.52123 0.01089 0.0
C1006 C 0.06934 0.57627 0.04169 0.0
C1007 C 0.09937 0.58004 0.04531 0.0
H1008 H 1.02077 0.54542 0.02391 0.0
H1009 H 0.06534 0.59533 0.05285 0.0
S1010 S 0.11966 0.51854 0.01127 0.0
N1011 N 0.08178 0.50097 0.0001 0.0
N1012 N 0.13047 0.5549 0.03186 0.0
C1013 C 0.10279 0.55414 0.03032 0.0
C1014 C 0.07639 0.52487 0.01291 0.0
C1015 C 0.54799 0.51039 0.01044 0.0
C1016 C 0.57653 0.5402 0.01209 0.0
C1017 C 0.52018 0.50892 0.02063 0.0
C1018 C 0.51973 0.53717 0.03274 0.0
H1019 H 0.54702 0.48804 0.00065 0.0
H1020 H 0.49876 0.48546 0.01892 0.0
S1021 S 0.58859 0.62105 0.0441 0.0
N1022 N 0.6029 0.59848 0.02787 0.0
N1023 N 0.5507 0.59577 0.04732 0.0
C1024 C 0.54814 0.56715 0.03463 0.0
C1025 C 0.57649 0.56863 0.02423 0.0
C1026 C 0.25172 0.11388 0.93762 0.0
C1027 C 0.27179 0.10162 0.93122 0.0
C1028 C 0.2627 0.14481 0.95627 0.0
C1029 C 0.29429 0.16493 0.96932 0.0
H1030 H 0.22703 0.09903 0.9293 0.0
H1031 H 0.24596 0.15253 0.96141 0.0
S1032 S 0.35726 0.14561 0.95603 0.0
N1033 N 0.32536 0.11312 0.93663 0.0
N1034 N 0.34602 0.17097 0.97197 0.0
C1035 C 0.31491 0.15345 0.96175 0.0
C1036 C 0.30367 0.1219 0.94274 0.0
C1037 C 0.96642 0.15013 0.89824 0.0
C1038 C 0.99073 0.17668 0.92043 0.0
C1039 C 0.93707 0.12987 0.91207 0.0
C1040 C 0.93095 0.13506 0.9488 0.0
H1041 H 0.96993 0.14532 0.86974 0.0
H1042 H 0.91905 0.10983 0.89393 0.0
S1043 S 0.98682 0.20088 0.01859 0.0
N1044 N 1.00688 0.20648 0.98137 0.0
N1045 N 0.95167 0.16905 0.00698 0.0
C1046 C 0.95513 0.16139 0.97137 0.0
C1047 C 0.98497 0.18204 0.95728 0.0
C1048 C 0.93895 0.81497 0.95227 0.0
C1049 C 0.92633 0.78983 0.97532 0.0
C1050 C 0.92025 0.82534 0.93618 0.0
C1051 C 0.88817 0.8115 0.94291 0.0
H1052 H 0.96366 0.82722 0.94715 0.0
H1053 H 0.93129 0.84501 0.919 0.0
S1054 S 0.84356 0.74446 0.0012 0.0
N1055 N 0.87933 0.75045 0.00296 0.0
N1056 N 0.84475 0.77078 0.97438 0.0
C1057 C 0.87508 0.78567 0.96516 0.0
C1058 C 0.89401 0.77471 0.98096 0.0
C1059 C 0.12075 0.22424 0.55085 0.0
C1060 C 0.11082 0.24571 0.5639 0.0
C1061 C 0.14965 0.2354 0.53484 0.0
C1062 C 0.16998 0.26858 0.53105 0.0
H1063 H 0.10563 0.1984 0.55201 0.0
H1064 H 0.1556 0.21761 0.52437 0.0
S1065 S 0.15677 0.33538 0.56478 0.0
N1066 N 0.12499 0.30214 0.57498 0.0
N1067 N 0.179 0.32313 0.54441 0.0
C1068 C 0.16086 0.2905 0.5452 0.0
C1069 C 0.1314 0.27909 0.56164 0.0
C1070 C 0.8516 0.88053 0.4846 0.0
C1071 C 0.85259 0.88573 0.52328 0.0
C1072 C 0.85005 0.90199 0.46203 0.0
C1073 C 0.84908 0.92931 0.47718 0.0
H1074 H 0.85243 0.85994 0.47167 0.0
H1075 H 0.84907 0.89685 0.43247 0.0
S1076 S 0.85133 0.95407 0.57675 0.0
N1077 N 0.85222 0.92025 0.57555 0.0
N1078 N 0.85018 0.9608 0.53343 0.0
C1079 C 0.85025 0.93486 0.51579 0.0
C1080 C 0.85182 0.91307 0.53871 0.0
C1081 C 0.16144 0.94945 0.56263 0.0
C1082 C 0.19252 0.96082 0.57518 0.0
C1083 C 0.14412 0.92032 0.53958 0.0
C1084 C 0.15698 0.90103 0.5283 0.0
H1085 H 0.15066 0.96365 0.56989 0.0
H1086 H 0.12052 0.91313 0.53015 0.0
S1087 S 0.23682 0.91887 0.55605 0.0
N1088 N 0.23494 0.94971 0.57641 0.0
N1089 N 0.20262 0.89503 0.53319 0.0
C1090 C 0.18783 0.91171 0.5416 0.0
C1091 C 0.20553 0.94157 0.5649 0.0
C1092 C 0.78622 0.92718 0.01025 0.0
C1093 C 0.8035 0.91242 -0.00064 0.0
C1094 C 0.80117 0.9602 0.02364 0.0
C1095 C 0.83411 0.98011 0.02611 0.0
H1096 H 0.76085 0.91342 0.00709 0.0
H1097 H 0.78668 0.97055 0.03011 0.0
S1098 S 0.89042 0.95281 0.0051 0.0
N1099 N 0.85563 0.91985 0.9954 0.0
N1100 N 0.88357 0.98187 0.01975 0.0
C1101 C 0.85171 0.96529 0.01732 0.0
C1102 C 0.83648 0.93151 0.00423 0.0
C1103 C 0.17056 0.91675 0.99562 0.0
C1104 C 0.1664 0.92925 0.96401 0.0
C1105 C 0.14542 0.89929 0.01799 0.0
C1106 C 0.1151 0.89359 0.00966 0.0
H1107 H 0.19319 0.91988 0.00274 0.0
H1108 H 0.14959 0.88954 0.04152 0.0
S1109 S 0.09249 0.9243 0.93277 0.0
N1110 N 0.12977 0.93665 0.92749 0.0
N1111 N 0.08322 0.90426 0.96944 0.0
C1112 C 0.11094 0.90682 0.97891 0.0
C1113 C 0.13636 0.92453 0.9562 0.0
C1114 C 0.15419 0.26109 0.99262 0.0
C1115 C 0.16576 0.27565 0.96011 0.0
C1116 C 0.1724 0.25409 0.01558 0.0
C1117 C 0.20291 0.2616 0.00697 0.0
H1118 H 0.13039 0.25358 -0.00061 0.0
H1119 H 0.16206 0.24163 0.0395 0.0
S1120 S 0.24558 0.30507 0.92797 0.0
N1121 N 0.21041 0.30025 0.9223 0.0
N1122 N 0.24507 0.28861 0.96592 0.0
C1123 C 0.21529 0.27806 0.97564 0.0
C1124 C 0.1966 0.28468 0.95213 0.0
C1125 C 0.94588 0.83509 0.49691 0.0
C1126 C 0.9237 0.80276 0.50205 0.0
C1127 C 0.97182 0.84276 0.476 0.0
C1128 C 0.977 0.81843 0.46005 0.0
H1129 H 0.94357 0.85478 0.50993 0.0
H1130 H 0.98873 0.86806 0.47375 0.0
S1131 S 0.92517 0.72987 0.46386 0.0
N1132 N 0.90768 0.74605 0.4881 0.0
N1133 N 0.95706 0.76054 0.44931 0.0
C1134 C 0.95456 0.78589 0.46409 0.0
C1135 C 0.92769 0.77801 0.48488 0.0
C1136 C 0.26276 0.14904 0.49717 0.0
C1137 C 0.26056 0.17637 0.50957 0.0
C1138 C 0.26775 0.13105 0.52199 0.0
C1139 C 0.27033 0.13947 0.56018 0.0
H1140 H 0.25991 0.14104 0.46808 0.0
H1141 H 0.26842 0.10977 0.51128 0.0
S1142 S 0.27071 0.21108 0.60702 0.0
N1143 N 0.26528 0.21285 0.56292 0.0
N1144 N 0.27293 0.17826 0.60914 0.0
C1145 C 0.26922 0.16721 0.57289 0.0
C1146 C 0.26475 0.18583 0.54775 0.0
C1147 C 0.87885 0.09255 0.52106 0.0
C1148 C 0.87506 0.09578 0.48388 0.0
C1149 C 0.9029 0.11818 0.54433 0.0
C1150 C 0.92408 0.14836 0.53163 0.0
H1151 H 0.86398 0.0696 0.53198 0.0
H1152 H 0.90519 0.11396 0.57249 0.0
S1153 S 0.92205 0.17056 0.43749 0.0
N1154 N 0.89304 0.13248 0.43602 0.0
N1155 N 0.93794 0.18059 0.47992 0.0
C1156 C 0.91953 0.15249 0.495 0.0
C1157 C 0.89517 0.12625 0.47113 0.0
C1158 C 0.97387 0.48165 0.31889 0.0
C1159 C 0.95481 0.49551 0.31971 0.0
C1160 C 0.96419 0.4515 0.29899 0.0
C1161 C 0.93521 0.43399 0.27861 0.0
H1162 H 0.99619 0.4937 0.33459 0.0
H1163 H 0.97948 0.44169 0.29969 0.0
S1164 S 0.87673 0.45953 0.27042 0.0
N1165 N 0.90566 0.48941 0.2973 0.0
N1166 N 0.88764 0.43285 0.25994 0.0
C1167 C 0.91623 0.44784 0.27825 0.0
C1168 C 0.92597 0.4785 0.29878 0.0
C1169 C 0.61066 0.50327 0.30992 0.0
C1170 C 0.58871 0.47594 0.2864 0.0
C1171 C 0.64057 0.52533 0.2986 0.0
C1172 C 0.64993 0.52061 0.26352 0.0
H1173 H 0.60464 0.5076 0.33734 0.0
H1174 H 0.65684 0.54567 0.31784 0.0
S1175 S 0.60133 0.45339 0.19114 0.0
N1176 N 0.57854 0.4458 0.2261 0.0
N1177 N 0.63451 0.48718 0.20488 0.0
C1178 C 0.6281 0.49367 0.23956 0.0
C1179 C 0.59759 0.47141 0.25094 0.0
C1180 C 0.60544 0.1717 0.3278 0.0
C1181 C 0.61228 0.14715 0.31765 0.0
C1182 C 0.5833 0.17479 0.30741 0.0
C1183 C 0.56696 0.1536 0.2758 0.0
H1184 H 0.61719 0.18876 0.35194 0.0
H1185 H 0.579 0.1941 0.31643 0.0
S1186 S 0.57503 0.08439 0.23775 0.0
N1187 N 0.60033 0.10084 0.27383 0.0
N1188 N 0.55848 0.1065 0.23572 0.0
C1189 C 0.57354 0.12897 0.26508 0.0
C1190 C 0.59621 0.12579 0.28592 0.0
C1191 C 0.75981 0.54526 0.84327 0.0
C1192 C 0.76743 0.56136 0.87902 0.0
C1193 C 0.78316 0.54768 0.82013 0.0
C1194 C 0.8153 0.56673 0.83147 0.0
H1195 H 0.7355 0.53033 0.83324 0.0
H1196 H 0.7758 0.53462 0.79289 0.0
S1197 S 0.84775 0.61502 0.92224 0.0
N1198 N 0.80939 0.59775 0.92456 0.0
N1199 N 0.85337 0.60253 0.88104 0.0
C1200 C 0.82328 0.58326 0.86715 0.0
C1201 C 0.79937 0.58049 0.89091 0.0
C1202 C 0.51485 0.23284 0.81144 0.0
C1203 C 0.51414 0.26069 0.82511 0.0
C1204 C 0.51642 0.21219 0.83528 0.0
C1205 C 0.51773 0.21872 0.87381 0.0
H1206 H 0.51368 0.22669 0.78206 0.0
H1207 H 0.51709 0.1912 0.82343 0.0
S1208 S 0.517 0.28872 0.92372 0.0
N1209 N 0.5156 0.29396 0.87988 0.0
N1210 N 0.51779 0.25496 0.92436 0.0
C1211 C 0.51713 0.24653 0.88779 0.0
C1212 C 0.51549 0.26749 0.86357 0.0
C1213 C 0.88043 0.2817 0.87625 0.0
C1214 C 0.86895 0.29601 0.90202 0.0
C1215 C 0.8611 0.25004 0.85914 0.0
C1216 C 0.82921 0.23125 0.86646 0.0
H1217 H 0.90419 0.29542 0.86781 0.0
H1218 H 0.87102 0.24089 0.83865 0.0
S1219 S 0.78852 0.25465 0.93604 0.0
N1220 N 0.82437 0.28659 0.93784 0.0
N1221 N 0.78783 0.22785 0.90411 0.0
C1222 C 0.81773 0.24442 0.89348 0.0
C1223 C 0.8376 0.27651 0.91159 0.0
C1224 C 0.45774 0.25988 0.33695 0.0
C1225 C 0.4773 0.24833 0.32416 0.0
C1226 C 0.47007 0.2924 0.35135 0.0
C1227 C 0.50253 0.31506 0.3531 0.0
H1228 H 0.43251 0.24392 0.33474 0.0
H1229 H 0.4538 0.30014 0.35944 0.0
S1230 S 0.56435 0.29682 0.32687 0.0
N1231 N 0.53122 0.26188 0.31728 0.0
N1232 N 0.55422 0.32288 0.34367 0.0
C1233 C 0.52249 0.30351 0.34217 0.0
C1234 C 0.50996 0.27025 0.32795 0.0
C1235 C 0.80624 0.25099 0.35369 0.0
C1236 C 0.79211 0.21812 0.35978 0.0
C1237 C 0.83515 0.267 0.33739 0.0
C1238 C 0.85118 0.25081 0.32652 0.0
H1239 H 0.79421 0.26406 0.36009 0.0
H1240 H 0.84431 0.29191 0.33192 0.0
S1241 S 0.8264 0.16596 0.34177 0.0
N1242 N 0.79804 0.17103 0.35771 0.0
N1243 N 0.85206 0.20078 0.32674 0.0
C1244 C 0.83811 0.21842 0.33444 0.0
C1245 C 0.80868 0.20217 0.35107 0.0
C1246 C 0.83894 0.59677 0.37147 0.0
C1247 C 0.86466 0.59492 0.35812 0.0
C1248 C 0.82195 0.60611 0.34963 0.0
C1249 C 0.82982 0.61357 0.31343 0.0
H1250 H 0.83145 0.59018 0.39873 0.0
H1251 H 0.80159 0.60581 0.36047 0.0
S1252 S 0.89596 0.61439 0.26583 0.0
N1253 N 0.89755 0.60269 0.30646 0.0
N1254 N 0.86628 0.62062 0.26613 0.0
C1255 C 0.85627 0.61321 0.30041 0.0
C1256 C 0.87351 0.60382 0.32252 0.0
C1257 C 0.58752 0.11574 0.83333 0.0
C1258 C 0.5924 0.13447 0.86719 0.0
C1259 C 0.61284 0.12094 0.81181 0.0
C1260 C 0.64399 0.14494 0.82342 0.0
H1261 H 0.56406 0.09677 0.82351 0.0
H1262 H 0.60809 0.10568 0.78623 0.0
S1263 S 0.66951 0.20249 0.90801 0.0
N1264 N 0.6312 0.17941 0.91003 0.0
N1265 N 0.678 0.18891 0.86953 0.0
C1266 C 0.64909 0.16421 0.85668 0.0
C1267 C 0.62354 0.15907 0.87852 0.0
C1268 C 0.91637 0.47866 0.86532 0.0
C1269 C 0.93947 0.47085 0.85659 0.0
C1270 C 0.90693 0.49353 0.84112 0.0
C1271 C 0.92016 0.5015 0.80695 0.0
H1272 H 0.90533 0.47328 0.89128 0.0
H1273 H 0.88903 0.49886 0.84931 0.0
S1274 S 0.98237 0.48724 0.77103 0.0
N1275 N 0.97554 0.47238 0.81123 0.0
N1276 N 0.95839 0.50104 0.76594 0.0
C1277 C 0.9432 0.49366 0.79759 0.0
C1278 C 0.95269 0.47819 0.82231 0.0
C1279 C 0.59292 0.47578 0.83084 0.0
C1280 C 0.58244 0.48888 0.8592 0.0
C1281 C 0.57284 0.44496 0.81203 0.0
C1282 C 0.5413 0.42549 0.82082 0.0
H1283 H 0.61699 0.48932 0.82319 0.0
H1284 H 0.58242 0.43627 0.79053 0.0
S1285 S 0.50185 0.44821 0.89294 0.0
N1286 N 0.53795 0.47973 0.8951 0.0
N1287 N 0.50053 0.42189 0.85984 0.0
C1288 C 0.53037 0.43827 0.849 0.0
C1289 C 0.55079 0.46987 0.86806 0.0
C1290 C 0.58212 0.78171 0.60986 0.0
C1291 C 0.60296 0.77052 0.60266 0.0
C1292 C 0.59206 0.81169 0.63046 0.0
C1293 C 0.6233 0.83182 0.64476 0.0
H1294 H 0.55761 0.76662 0.60074 0.0
H1295 H 0.57476 0.8185 0.63635 0.0
S1296 S 0.68813 0.81573 0.6292 0.0
N1297 N 0.65696 0.78347 0.60813 0.0
N1298 N 0.67568 0.83952 0.64705 0.0
C1299 C 0.64472 0.8216 0.63615 0.0
C1300 C 0.63455 0.79107 0.61514 0.0
C1301 C 0.2833 0.8211 0.63669 0.0
C1302 C 0.25573 0.80531 0.61336 0.0
C1303 C 0.31231 0.84395 0.62401 0.0
C1304 C 0.31485 0.85159 0.58748 0.0
H1305 H 0.28269 0.81503 0.66461 0.0
H1306 H 0.33308 0.85491 0.64248 0.0
S1307 S 0.24948 0.82118 0.51698 0.0
N1308 N 0.23264 0.80218 0.55313 0.0
N1309 N 0.28721 0.84424 0.52928 0.0
C1310 C 0.28744 0.83706 0.56435 0.0
C1311 C 0.25789 0.81415 0.57728 0.0
C1312 C 0.27741 0.50513 0.65447 0.0
C1313 C 0.28324 0.47988 0.64408 0.0
C1314 C 0.25479 0.50835 0.63531 0.0
C1315 C 0.23693 0.4866 0.60468 0.0
H1316 H 0.29029 0.52263 0.67794 0.0
H1317 H 0.25127 0.52816 0.64454 0.0
S1318 S 0.24192 0.41552 0.56649 0.0
N1319 N 0.26869 0.43234 0.60112 0.0
N1320 N 0.22601 0.43828 0.56521 0.0
C1321 C 0.24253 0.46131 0.59364 0.0
C1322 C 0.26568 0.45799 0.61328 0.0
C1323 C 0.4635 0.89899 0.21615 0.0
C1324 C 0.45082 0.91892 0.22404 0.0
C1325 C 0.49314 0.91115 0.20187 0.0
C1326 C 0.51149 0.94385 0.19483 0.0
H1327 H 0.44999 0.87345 0.21993 0.0
H1328 H 0.50125 0.8944 0.1953 0.0
S1329 S 0.4905 1.00716 0.21479 0.0
N1330 N 0.46006 0.9737 0.2269 0.0
N1331 N 0.51553 0.99658 0.19958 0.0
C1332 C 0.49959 0.96441 0.204 0.0
C1333 C 0.46934 0.95196 0.21861 0.0
C1334 C 0.1575 0.56348 0.26243 0.0
C1335 C 0.16383 0.5434 0.2384 0.0
C1336 C 0.15064 0.58578 0.24921 0.0
C1337 C 0.15022 0.58936 0.21138 0.0
H1338 H 0.15819 0.56211 0.2918 0.0
H1339 H 0.14614 0.60079 0.26894 0.0
S1340 S 0.16598 0.54276 0.13699 0.0
N1341 N 0.16914 0.52822 0.17501 0.0
N1342 N 0.1571 0.57062 0.15004 0.0
C1343 C 0.15597 0.5689 0.18692 0.0
C1344 C 0.1626 0.54586 0.20046 0.0
C1345 C 0.54095 0.62566 0.2096 0.0
C1346 C 0.52816 0.63146 0.24161 0.0
C1347 C 0.52474 0.59631 0.18686 0.0
C1348 C 0.49473 0.57146 0.19467 0.0
H1349 H 0.56332 0.64429 0.20119 0.0
H1350 H 0.53546 0.59366 0.16213 0.0
S1351 S 0.45171 0.57235 0.27677 0.0
N1352 N 0.48452 0.60805 0.28161 0.0
N1353 N 0.45355 0.55355 0.23777 0.0
C1354 C 0.48185 0.57636 0.22694 0.0
C1355 C 0.49863 0.60614 0.25061 0.0
C1356 C 0.18943 0.63452 0.67432 0.0
C1357 C 0.17016 0.64525 0.69028 0.0
C1358 C 0.17746 0.60175 0.66145 0.0
C1359 C 0.14555 0.57823 0.66354 0.0
H1360 H 0.21378 0.6518 0.67028 0.0
H1361 H 0.19305 0.59522 0.64787 0.0
S1362 S 0.08587 0.59252 0.70725 0.0
N1363 N 0.11807 0.62871 0.71093 0.0
N1364 N 0.09562 0.56743 0.68635 0.0
C1365 C 0.12646 0.58819 0.68155 0.0
C1366 C 0.13873 0.62153 0.69505 0.0
C1367 C 0.47472 0.58513 0.68053 0.0
C1368 C 0.46182 0.5524 0.6866 0.0
C1369 C 0.5038 0.60237 0.66484 0.0
C1370 C 0.52144 0.58774 0.65493 0.0
H1371 H 0.46169 0.59717 0.6867 0.0
H1372 H 0.51217 0.62721 0.65972 0.0
S1373 S 0.49924 0.50325 0.66857 0.0
N1374 N 0.46983 0.50665 0.68404 0.0
N1375 N 0.52434 0.53879 0.6546 0.0
C1376 C 0.50935 0.55535 0.66238 0.0
C1377 C 0.47959 0.53776 0.6781 0.0
C1378 C 0.50246 0.92518 0.69264 0.0
C1379 C 0.52919 0.92508 0.67985 0.0
C1380 C 0.48374 0.93164 0.66983 0.0
C1381 C 0.49081 0.93789 0.6332 0.0
H1382 H 0.49549 0.91947 0.72026 0.0
H1383 H 0.46298 0.93054 0.68053 0.0
S1384 S 0.56009 0.94491 0.58741 0.0
N1385 N 0.56338 0.93567 0.62897 0.0
N1386 N 0.52756 0.94618 0.58601 0.0
C1387 C 0.51789 0.9389 0.62042 0.0
C1388 C 0.5372 0.93289 0.64369 0.0
C1389 C 0.25758 0.45893 0.16385 0.0
C1390 C 0.26273 0.4711 0.2013 0.0
C1391 C 0.28281 0.46576 0.1415 0.0
C1392 C 0.31415 0.48477 0.1558 0.0
H1393 H 0.23391 0.44402 0.15164 0.0
H1394 H 0.27777 0.45565 0.11297 0.0
S1395 S 0.34074 0.52395 0.25134 0.0
N1396 N 0.30212 0.50408 0.25118 0.0
N1397 N 0.34892 0.51695 0.20913 0.0
C1398 C 0.31962 0.49739 0.19295 0.0
C1399 C 0.29412 0.49057 0.21566 0.0
C1400 C 0.57593 0.83467 0.19851 0.0
C1401 C 0.59533 0.84542 0.16884 0.0
C1402 C 0.57918 0.81592 0.22349 0.0
C1403 C 0.60211 0.80699 0.22028 0.0
H1404 H 0.5578 0.8406 0.20234 0.0
H1405 H 0.5634 0.80844 0.24567 0.0
S1406 S 0.65982 0.82987 0.14811 0.0
N1407 N 0.63904 0.84643 0.13812 0.0
N1408 N 0.64497 0.81093 0.18494 0.0
C1409 C 0.62176 0.81754 0.19068 0.0
C1410 C 0.6184 0.83673 0.16505 0.0
C1411 C 0.24589 0.81846 0.16862 0.0
C1412 C 0.2738 0.81776 0.16689 0.0
C1413 C 0.21678 0.79098 0.15645 0.0
C1414 C 0.21419 0.76161 0.14166 0.0
H1415 H 0.2462 0.83972 0.18154 0.0
H1416 H 0.19591 0.79243 0.16017 0.0
S1417 S 0.28069 0.74851 0.12592 0.0
N1418 N 0.29734 0.78623 0.14538 0.0
N1419 N 0.2427 0.73482 0.12242 0.0
C1420 C 0.24213 0.76136 0.13712 0.0
C1421 C 0.27184 0.78932 0.14979 0.0
C1422 C 0.3651 0.35166 0.10892 0.0
C1423 C 0.35518 0.33314 0.07428 0.0
C1424 C 0.38202 0.38568 0.11216 0.0
C1425 C 0.38956 0.40267 0.08087 0.0
H1426 H 0.3589 0.33982 0.13397 0.0
H1427 H 0.38798 0.39867 0.13945 0.0
S1428 S 0.37254 0.36589 0.98366 0.0
N1429 N 0.35673 0.3345 0.00798 0.0
N1430 N 0.38851 0.39838 0.01393 0.0
C1431 C 0.38141 0.38451 0.04601 0.0
C1432 C 0.36428 0.3498 0.04273 0.0
C1433 C 0.67357 1.01692 0.09401 0.0
C1434 C 0.67403 1.00388 0.12691 0.0
C1435 C 0.70104 0.03475 0.07558 0.0
C1436 C 0.73007 0.04037 0.08936 0.0
H1437 H 0.65159 1.01193 0.08128 0.0
H1438 H 0.6993 0.04294 0.0495 0.0
S1439 S 0.74486 1.01689 0.1781 0.0
N1440 N 0.70652 1.00122 0.17474 0.0
N1441 N 0.75826 0.03556 0.14079 0.0
C1442 C 0.7312 1.02946 0.12357 0.0
C1443 C 0.70317 1.01104 0.14216 0.0
C1444 C 1.02736 0.7304 0.08127 0.0
C1445 C 1.03637 0.73943 0.04574 0.0
C1446 C 1.03892 0.71401 0.09982 0.0
C1447 C 0.0597 0.70561 0.08353 0.0
H1448 H 1.0124 0.73738 0.09568 0.0
H1449 H 1.03234 0.70894 0.12769 0.0
S1450 S 0.08631 0.71905 0.98842 0.0
N1451 N 0.06491 0.7362 0.99358 0.0
N1452 N 0.08551 0.70403 0.02758 0.0
C1453 C 0.06741 0.71282 0.04708 0.0
C1454 C 0.05601 0.73003 0.02844 0.0
C1455 C 0.33304 0.34384 0.43218 0.0
C1456 C 0.33309 0.32914 0.46388 0.0
C1457 C 0.36059 0.36192 0.41394 0.0
C1458 C 0.38934 0.36609 0.4266 0.0
H1459 H 0.3113 0.3402 0.4203 0.0
H1460 H 0.35916 0.3717 0.38893 0.0
S1461 S 0.40325 0.33741 0.51182 0.0
N1462 N 0.36512 0.32309 0.50935 0.0
N1463 N 0.4169 0.35758 0.47553 0.0
C1464 C 0.3901 0.35319 0.45946 0.0
C1465 C 0.36202 0.33465 0.47797 0.0
C1466 C 0.74383 0.08094 0.31289 0.0
C1467 C 0.71459 0.06921 0.32859 0.0
C1468 C 0.76293 0.06801 0.31979 0.0
C1469 C 0.75345 0.04288 0.34259 0.0
H1470 H 0.75285 0.10144 0.29684 0.0
H1471 H 0.7859 0.07885 0.30878 0.0
S1472 S 0.67667 0.99981 0.38474 0.0
N1473 N 0.6756 1.02845 0.36424 0.0
N1474 N 0.71106 1.00387 0.37657 0.0
C1475 C 0.72335 1.02949 0.35624 0.0
C1476 C 0.70405 0.04272 0.34941 0.0
C1477 C 1.0385 0.71281 0.3891 0.0
C1478 C 0.04957 0.73365 0.42219 0.0
C1479 C 1.02136 0.67897 0.38905 0.0
C1480 C 1.01434 0.66448 0.42211 0.0
H1481 H 1.04237 0.72266 0.36283 0.0
H1482 H 1.01248 0.66415 0.36289 0.0
S1483 S 1.04069 0.70783 0.51624 0.0
N1484 N 0.05438 0.73708 0.48888 0.0
N1485 N 1.02216 0.67354 0.48889 0.0
C1486 C 1.02657 0.68493 0.45538 0.0
C1487 C 1.04419 0.71946 0.45541 0.0
C1488 C 0.72216 0.67591 0.94644 0.0
C1489 C 0.69385 0.66372 0.92519 0.0
C1490 C 0.74243 0.70933 0.95601 0.0
C1491 C 0.73563 0.73226 0.94434 0.0
H1492 H 0.72877 0.65947 0.95606 0.0
H1493 H 0.76399 0.71721 0.97204 0.0
S1494 S 0.66449 0.7134 0.88841 0.0
N1495 N 0.65989 0.6775 0.89327 0.0
N1496 N 0.69822 0.74031 0.91059 0.0
C1497 C 0.70735 0.7205 0.9232 0.0
C1498 C 0.68643 0.68632 0.91386 0.0
C1499 C 0.36144 1.02707 0.91292 0.0
C1500 C 0.34764 1.02677 0.9467 0.0
C1501 C 0.39423 0.04499 0.91013 0.0
C1502 C 0.4146 0.06347 0.94098 0.0
H1503 H 0.3468 1.01406 0.8881 0.0
H1504 H 0.40356 0.04509 0.88343 0.0
S1505 S 0.39084 0.06812 0.03663 0.0
N1506 N 0.35745 0.04472 0.01214 0.0
N1507 N 0.41852 0.07806 0.00712 0.0
C1508 C 0.40115 0.06228 0.97517 0.0
C1509 C 0.36789 0.04406 0.97798 0.0
C1510 C 0.07288 0.38184 0.90239 0.0
C1511 C 0.06286 0.34859 0.89751 0.0
C1512 C 0.05171 0.39265 0.89778 0.0
C1513 C 1.01994 0.37073 0.8868 0.0
H1514 H 0.09724 0.39963 0.91015 0.0
H1515 H 0.06038 0.41842 0.90241 0.0
S1516 S 0.98185 0.28117 0.86981 0.0
N1517 N 1.01884 0.2938 0.88123 0.0
N1518 N 0.97949 0.31418 0.87138 0.0
C1519 C 1.00969 0.33746 0.88144 0.0
C1520 C 1.03102 0.32639 0.88712 0.0
C1521 C 0.72921 0.71989 0.6043 0.0
C1522 C 0.74704 0.72394 0.57315 0.0
C1523 C 0.69628 0.7028 0.60129 0.0
C1524 C 0.67978 0.68929 0.56695 0.0
H1525 H 0.74074 0.73051 0.63134 0.0
H1526 H 0.68376 0.70122 0.6259 0.0
S1527 S 0.71488 0.69028 0.47723 0.0
N1528 N 0.74533 0.71094 0.50711 0.0
N1529 N 0.68363 0.67903 0.50136 0.0
C1530 C 0.69721 0.69206 0.53574 0.0
C1531 C 0.73074 0.70928 0.53885 0.0
C1532 C 0.35274 0.03441 0.63177 0.0
C1533 C 0.34976 0.0443 0.59753 0.0
C1534 C 0.36949 1.01852 0.63627 0.0
C1535 C 0.3844 1.01215 0.60689 0.0
H1536 H 0.34124 0.03806 0.65517 0.0
H1537 H 0.37028 1.01072 0.66296 0.0
S1538 S 0.38572 0.03516 0.51208 0.0
N1539 N 0.36452 0.04791 0.53411 0.0
N1540 N 0.39621 1.01856 0.54251 0.0
C1541 C 0.38257 1.02299 0.57279 0.0
C1542 C 0.36521 0.03886 0.56813 0.0
C1543 C 0.06558 0.39079 0.56848 0.0
C1544 C 0.08299 0.40289 0.60262 0.0
C1545 C 0.04701 0.35722 0.55779 0.0
C1546 C 1.04456 0.3344 0.58112 0.0
H1547 H 0.06721 0.40735 0.5492 0.0
H1548 H 1.03466 0.34911 0.53094 0.0
S1549 S 0.08442 0.35346 0.67411 0.0
N1550 N 0.09588 0.38928 0.66003 0.0
N1551 N 0.06073 0.32651 0.6405 0.0
C1552 C 0.06111 0.34623 0.61582 0.0
C1553 C 0.08036 0.38034 0.62641 0.0
C1554 C 0.99305 0.66437 0.73821 0.0
C1555 C 0.99244 0.65275 0.77244 0.0
C1556 C 1.02115 0.68153 0.7207 0.0
C1557 C 0.04987 0.68808 0.73679 0.0
H1558 H 0.97148 0.65895 0.72393 0.0
H1559 H 1.02019 0.6888 0.69377 0.0
S1560 S 0.06156 0.66756 0.82903 0.0
N1561 N 1.02329 0.65162 0.8234 0.0
N1562 N 0.07628 0.68504 0.79137 0.0
C1563 C 0.0498 0.67821 0.77204 0.0
C1564 C 1.02107 0.66031 0.78962 0.0
C1565 C 0.41642 0.41257 0.64688 0.0
C1566 C 0.38616 0.40064 0.65982 0.0
C1567 C 0.43472 0.39915 0.65567 0.0
C1568 C 0.42341 0.37322 0.67761 0.0
H1569 H 0.42674 0.43355 0.63152 0.0
H1570 H 0.45842 0.41018 0.64675 0.0
S1571 S 0.34365 0.32949 0.71264 0.0
N1572 N 0.34448 0.35904 0.69203 0.0
N1573 N 0.37836 0.33337 0.70766 0.0
C1574 C 0.3924 0.3597 0.68849 0.0
C1575 C 0.37394 0.37352 0.67984 0.0
C1576 C 0.69322 1.02683 0.72036 0.0
C1577 C 0.67938 0.99857 0.73851 0.0
C1578 C 0.71054 0.0577 0.74013 0.0
C1579 C 0.71377 0.06148 0.77887 0.0
H1580 H 0.69003 1.0251 0.69074 0.0
H1581 H 0.71997 0.07881 0.72503 0.0
S1582 S 0.68291 0.99525 0.83946 0.0
N1583 N 0.6714 0.97634 0.79746 0.0
N1584 N 0.70272 0.03442 0.8345 0.0
C1585 C 0.70071 1.03345 0.79728 0.0
C1586 C 0.68386 1.00198 0.77713 0.0
C1587 C 0.38208 1.02448 0.21595 0.0
C1588 C 0.37734 1.00098 0.23953 0.0
C1589 C 0.3992 0.05784 0.2282 0.0
C1590 C 0.41289 0.06912 0.26433 0.0
H1591 H 0.37284 1.01709 0.18761 0.0
H1592 H 0.40288 0.07495 0.20867 0.0
S1593 S 0.40662 1.01778 0.33752 0.0
N1594 N 0.38683 0.99159 0.30146 0.0
N1595 N 0.4195 0.05404 0.32392 0.0
C1596 C 0.40775 0.04591 0.28842 0.0
C1597 C 0.38986 1.01196 0.2762 0.0
C1598 C 1.0325 0.36284 0.21527 0.0
C1599 C 1.01296 0.35054 0.24477 0.0
C1600 C 0.06531 0.37863 0.22028 0.0
C1601 C 0.07991 0.383 0.25506 0.0
H1602 H 1.02249 0.36104 0.18814 0.0
H1603 H 0.07931 0.38865 0.19706 0.0
S1604 S 1.03963 0.35219 0.34046 0.0
N1605 N 1.01087 0.3415 0.30939 0.0
N1606 N 0.07229 0.37117 0.31881 0.0
C1607 C 0.06066 0.36947 0.28439 0.0
C1608 C 1.02728 0.35325 0.27926 0.0
C1609 C 0.70238 0.68914 0.30907 0.0
C1610 C 0.71782 0.68212 0.28082 0.0
C1611 C 0.68595 0.70512 0.30285 0.0
C1612 C 0.6838 0.71444 0.26793 0.0
H1613 H 0.70256 0.68184 0.33622 0.0
H1614 H 0.67405 0.7093 0.32546 0.0
S1615 S 0.72129 0.70341 0.18485 0.0
N1616 N 0.73095 0.68728 0.21671 0.0
N1617 N 0.69984 0.71672 0.20509 0.0
C1618 C 0.69972 0.70829 0.23964 0.0
C1619 C 0.71677 0.69235 0.24605 0.0
loop_
_geom_bond_atom_site_label_1
_geom_bond_atom_site_label_2
_geom_bond_distance
_geom_bond_site_symmetry_2
_ccdc_geom_bond_type
Cu0 N1 1.999 . S
Cu0 O6 1.974 . S
Cu0 N11 1.985 . S
Cu0 O20 1.959 . S
N1 Cu0 1.999 . S
N1 C3 1.263 . S
N1 C5 1.389 . S
N2 C3 1.358 . S
N2 C4 1.400 . S
C3 N1 1.263 . S
C3 N2 1.358 . S
C3 H9 0.930 . S
C4 N2 1.400 . S
C4 C5 1.351 . S
C4 H21 0.930 . S
C5 N1 1.389 . S
C5 C4 1.351 . S
C5 H10 0.930 . S
O6 Cu0 1.974 . S
O6 C16 1.282 . S
C7 O8 1.261 . S
C7 O20 1.251 . S
O8 C7 1.261 . S
H9 C3 0.930 . S
H10 C5 0.930 . S
N11 Cu0 1.985 . S
N11 C13 1.335 . S
N11 C14 1.390 1_554 S
N12 C13 1.345 1_556 S
N12 C15 1.336 . S
C13 N11 1.335 . S
C13 N12 1.345 1_554 S
C13 H18 0.930 . S
C14 N11 1.390 1_556 S
C14 C15 1.346 . S
C14 H19 0.930 . S
C15 N12 1.336 . S
C15 C14 1.346 . S
C15 H22 0.929 . S
C16 O6 1.282 . S
C16 O17 1.216 1_554 S
O17 C16 1.216 1_556 S
H18 C13 0.930 . S
H19 C14 0.930 . S
O20 Cu0 1.959 . S
O20 C7 1.251 . S
H21 C4 0.930 . S
H22 C15 0.929 . S
Cu23 N24 1.999 . S
Cu23 O29 1.974 1_545 S
Cu23 N34 1.985 . S
Cu23 O43 1.959 . S
N24 Cu23 1.999 . S
N24 C26 1.263 1_545 S
N24 C28 1.389 . S
N25 C26 1.358 . S
N25 C27 1.400 1_565 S
C26 N24 1.263 1_565 S
C26 N25 1.358 . S
C26 H32 0.930 . S
C27 N25 1.400 1_545 S
C27 C28 1.351 . S
C27 H44 0.930 . S
C28 N24 1.389 . S
C28 C27 1.351 . S
C28 H33 0.930 . S
O29 Cu23 1.974 1_565 S
O29 C39 1.282 . S
C30 O31 1.261 . S
C30 O43 1.251 . S
O31 C30 1.261 . S
H32 C26 0.930 . S
H33 C28 0.930 . S
N34 Cu23 1.985 . S
N34 C36 1.335 . S
N34 C37 1.390 . S
N35 C36 1.345 . S
N35 C38 1.336 . S
C36 N34 1.335 . S
C36 N35 1.345 . S
C36 H41 0.930 . S
C37 N34 1.390 . S
C37 C38 1.346 . S
C37 H42 0.930 . S
C38 N35 1.336 . S
C38 C37 1.346 . S
C38 H45 0.929 . S
C39 O29 1.282 . S
C39 O40 1.216 . S
O40 C39 1.216 . S
H41 C36 0.930 . S
H42 C37 0.930 . S
O43 Cu23 1.959 . S
O43 C30 1.251 . S
H44 C27 0.930 . S
H45 C38 0.929 . S
Cu46 N47 1.999 . S
Cu46 O52 1.974 . S
Cu46 N57 1.985 . S
Cu46 O66 1.959 . S
N47 Cu46 1.999 . S
N47 C49 1.263 . S
N47 C51 1.389 . S
N48 C49 1.358 . S
N48 C50 1.400 . S
C49 N47 1.263 . S
C49 N48 1.358 . S
C49 H55 0.930 . S
C50 N48 1.400 . S
C50 C51 1.351 . S
C50 H67 0.930 . S
C51 N47 1.389 . S
C51 C50 1.351 . S
C51 H56 0.930 . S
O52 Cu46 1.974 . S
O52 C62 1.282 . S
C53 O54 1.261 . S
C53 O66 1.251 . S
O54 C53 1.261 . S
H55 C49 0.930 . S
H56 C51 0.930 . S
N57 Cu46 1.985 . S
N57 C59 1.335 1_655 S
N57 C60 1.390 . S
N58 C59 1.345 . S
N58 C61 1.336 1_554 S
C59 N57 1.335 1_455 S
C59 N58 1.345 . S
C59 H64 0.930 . S
C60 N57 1.390 . S
C60 C61 1.346 1_654 S
C60 H65 0.930 1_554 S
C61 N58 1.336 1_556 S
C61 C60 1.346 1_456 S
C61 H68 0.929 . S
C62 O52 1.282 . S
C62 O63 1.216 . S
O63 C62 1.216 . S
H64 C59 0.930 . S
H65 C60 0.930 1_556 S
O66 Cu46 1.959 . S
O66 C53 1.251 . S
H67 C50 0.930 . S
H68 C61 0.929 . S
Cu69 N70 1.999 . S
Cu69 O75 1.974 . S
Cu69 N80 1.985 . S
Cu69 O89 1.959 . S
N70 Cu69 1.999 . S
N70 C72 1.263 . S
N70 C74 1.389 . S
N71 C72 1.358 . S
N71 C73 1.400 . S
C72 N70 1.263 . S
C72 N71 1.358 . S
C72 H78 0.930 . S
C73 N71 1.400 . S
C73 C74 1.351 . S
C73 H90 0.930 . S
C74 N70 1.389 . S
C74 C73 1.351 . S
C74 H79 0.930 . S
O75 Cu69 1.974 . S
O75 C85 1.282 . S
C76 O77 1.261 . S
C76 O89 1.251 . S
O77 C76 1.261 . S
H78 C72 0.930 . S
H79 C74 0.930 . S
N80 Cu69 1.985 . S
N80 C82 1.335 . S
N80 C83 1.390 . S
N81 C82 1.345 . S
N81 C84 1.336 . S
C82 N80 1.335 . S
C82 N81 1.345 . S
C82 H87 0.930 . S
C83 N80 1.390 . S
C83 C84 1.346 . S
C83 H88 0.930 . S
C84 N81 1.336 . S
C84 C83 1.346 . S
C84 H91 0.929 . S
C85 O75 1.282 . S
C85 O86 1.216 . S
O86 C85 1.216 . S
H87 C82 0.930 . S
H88 C83 0.930 . S
O89 Cu69 1.959 . S
O89 C76 1.251 . S
H90 C73 0.930 . S
H91 C84 0.929 . S
Cu92 N93 1.999 . S
Cu92 O98 1.974 1_565 S
Cu92 N103 1.985 . S
Cu92 O112 1.959 . S
N93 Cu92 1.999 . S
N93 C95 1.263 1_565 S
N93 C97 1.389 . S
N94 C95 1.358 . S
N94 C96 1.400 1_545 S
C95 N93 1.263 1_545 S
C95 N94 1.358 . S
C95 H101 0.930 . S
C96 N94 1.400 1_565 S
C96 C97 1.351 . S
C96 H113 0.930 . S
C97 N93 1.389 . S
C97 C96 1.351 . S
C97 H102 0.930 . S
O98 Cu92 1.974 1_545 S
O98 C108 1.282 . S
C99 O100 1.261 . S
C99 O112 1.251 . S
O100 C99 1.261 . S
H101 C95 0.930 . S
H102 C97 0.930 . S
N103 Cu92 1.985 . S
N103 C105 1.335 . S
N103 C106 1.390 . S
N104 C105 1.345 . S
N104 C107 1.336 . S
C105 N103 1.335 . S
C105 N104 1.345 . S
C105 H110 0.930 . S
C106 N103 1.390 . S
C106 C107 1.346 . S
C106 H111 0.930 . S
C107 N104 1.336 . S
C107 C106 1.346 . S
C107 H114 0.929 . S
C108 O98 1.282 . S
C108 O109 1.216 . S
O109 C108 1.216 . S
H110 C105 0.930 . S
H111 C106 0.930 . S
O112 Cu92 1.959 . S
O112 C99 1.251 . S
H113 C96 0.930 . S
H114 C107 0.929 . S
Cu115 N116 1.999 . S
Cu115 O121 1.974 . S
Cu115 N126 1.985 . S
Cu115 O135 1.959 . S
N116 Cu115 1.999 . S
N116 C118 1.263 . S
N116 C120 1.389 . S
N117 C118 1.358 . S
N117 C119 1.400 . S
C118 N116 1.263 . S
C118 N117 1.358 . S
C118 H124 0.930 . S
C119 N117 1.400 . S
C119 C120 1.351 . S
C119 H136 0.930 . S
C120 N116 1.389 . S
C120 C119 1.351 . S
C120 H125 0.930 . S
O121 Cu115 1.974 . S
O121 C131 1.282 . S
C122 O123 1.261 . S
C122 O135 1.251 . S
O123 C122 1.261 . S
H124 C118 0.930 . S
H125 C120 0.930 . S
N126 Cu115 1.985 . S
N126 C128 1.335 1_455 S
N126 C129 1.390 . S
N127 C128 1.345 . S
N127 C130 1.336 . S
C128 N126 1.335 1_655 S
C128 N127 1.345 . S
C128 H133 0.930 . S
C129 N126 1.390 . S
C129 C130 1.346 1_455 S
C129 H134 0.930 . S
C130 N127 1.336 . S
C130 C129 1.346 1_655 S
C130 H137 0.929 . S
C131 O121 1.282 . S
C131 O132 1.216 . S
O132 C131 1.216 . S
H133 C128 0.930 . S
H134 C129 0.930 . S
O135 Cu115 1.959 . S
O135 C122 1.251 . S
H136 C119 0.930 . S
H137 C130 0.929 . S
Cu138 N139 1.999 . S
Cu138 O144 1.974 . S
Cu138 N149 1.985 . S
Cu138 O158 1.959 . S
N139 Cu138 1.999 . S
N139 C141 1.263 . S
N139 C143 1.389 . S
N140 C141 1.358 . S
N140 C142 1.400 . S
C141 N139 1.263 . S
C141 N140 1.358 . S
C141 H147 0.930 . S
C142 N140 1.400 . S
C142 C143 1.351 . S
C142 H159 0.930 . S
C143 N139 1.389 . S
C143 C142 1.351 . S
C143 H148 0.930 . S
O144 Cu138 1.974 . S
O144 C154 1.282 . S
C145 O146 1.261 . S
C145 O158 1.251 . S
O146 C145 1.261 . S
H147 C141 0.930 . S
H148 C143 0.930 . S
N149 Cu138 1.985 . S
N149 C151 1.335 . S
N149 C152 1.390 . S
N150 C151 1.345 . S
N150 C153 1.336 1_556 S
C151 N149 1.335 . S
C151 N150 1.345 . S
C151 H156 0.930 . S
C152 N149 1.390 . S
C152 C153 1.346 1_556 S
C152 H157 0.932 . S
C153 N150 1.336 1_554 S
C153 C152 1.346 1_554 S
C153 H160 0.929 . S
C154 O144 1.282 . S
C154 O155 1.216 . S
O155 C154 1.216 . S
H156 C151 0.930 . S
H157 C152 0.932 . S
O158 Cu138 1.959 . S
O158 C145 1.251 . S
H159 C142 0.930 . S
H160 C153 0.929 . S
Cu161 N162 1.999 . S
Cu161 O167 1.974 . S
Cu161 N172 1.985 . S
Cu161 O181 1.959 . S
N162 Cu161 1.999 . S
N162 C164 1.263 . S
N162 C166 1.389 . S
N163 C164 1.358 . S
N163 C165 1.400 . S
C164 N162 1.263 . S
C164 N163 1.358 . S
C164 H170 0.930 . S
C165 N163 1.400 . S
C165 C166 1.351 . S
C165 H182 0.930 . S
C166 N162 1.389 . S
C166 C165 1.351 . S
C166 H171 0.930 . S
O167 Cu161 1.974 . S
O167 C177 1.282 . S
C168 O169 1.261 . S
C168 O181 1.251 . S
O169 C168 1.261 . S
H170 C164 0.930 . S
H171 C166 0.930 . S
N172 Cu161 1.985 . S
N172 C174 1.335 1_565 S
N172 C175 1.390 . S
N173 C174 1.345 . S
N173 C176 1.336 . S
C174 N172 1.335 1_545 S
C174 N173 1.345 . S
C174 H179 0.930 . S
C175 N172 1.390 . S
C175 C176 1.346 1_565 S
C175 H180 0.930 . S
C176 N173 1.336 . S
C176 C175 1.346 1_545 S
C176 H183 0.929 . S
C177 O167 1.282 . S
C177 O178 1.216 . S
O178 C177 1.216 . S
H179 C174 0.930 . S
H180 C175 0.930 . S
O181 Cu161 1.959 . S
O181 C168 1.251 . S
H182 C165 0.930 . S
H183 C176 0.929 . S
Cu184 N185 1.999 . S
Cu184 O190 1.974 . S
Cu184 N195 1.985 . S
Cu184 O204 1.959 . S
N185 Cu184 1.999 . S
N185 C187 1.263 . S
N185 C189 1.389 . S
N186 C187 1.358 . S
N186 C188 1.400 . S
C187 N185 1.263 . S
C187 N186 1.358 . S
C187 H193 0.930 . S
C188 N186 1.400 . S
C188 C189 1.351 . S
C188 H205 0.930 . S
C189 N185 1.389 . S
C189 C188 1.351 . S
C189 H194 0.930 . S
O190 Cu184 1.974 . S
O190 C200 1.282 . S
C191 O192 1.261 . S
C191 O204 1.251 . S
O192 C191 1.261 . S
H193 C187 0.930 . S
H194 C189 0.930 . S
N195 Cu184 1.985 . S
N195 C197 1.335 1_455 S
N195 C198 1.390 . S
N196 C197 1.345 . S
N196 C199 1.373 . S
C197 N195 1.335 1_655 S
C197 N196 1.345 . S
C197 H202 0.930 . S
C198 N195 1.390 . S
C198 C199 1.319 1_455 S
C198 H203 0.930 . S
C199 N196 1.373 . S
C199 C198 1.319 1_655 S
C199 H206 0.923 1_556 S
C200 O190 1.282 . S
C200 O201 1.216 . S
O201 C200 1.216 . S
H202 C197 0.930 . S
H203 C198 0.930 . S
O204 Cu184 1.959 . S
O204 C191 1.251 . S
H205 C188 0.930 . S
H206 C199 0.923 1_554 S
Cu207 N208 1.999 . S
Cu207 O213 1.974 . S
Cu207 N218 1.985 . S
Cu207 O227 1.959 . S
N208 Cu207 1.999 . S
N208 C210 1.263 . S
N208 C212 1.389 . S
N209 C210 1.358 . S
N209 C211 1.400 . S
C210 N208 1.263 . S
C210 N209 1.358 . S
C210 H216 0.930 . S
C211 N209 1.400 . S
C211 C212 1.351 . S
C211 H228 0.930 . S
C212 N208 1.389 . S
C212 C211 1.351 . S
C212 H217 0.930 . S
O213 Cu207 1.974 . S
O213 C223 1.282 . S
C214 O215 1.261 . S
C214 O227 1.251 . S
O215 C214 1.261 . S
H216 C210 0.930 . S
H217 C212 0.930 . S
N218 Cu207 1.985 . S
N218 C220 1.335 . S
N218 C221 1.390 . S
N219 C220 1.345 . S
N219 C222 1.336 . S
C220 N218 1.335 . S
C220 N219 1.345 . S
C220 H225 0.930 . S
C221 N218 1.390 . S
C221 C222 1.346 . S
C221 H226 0.930 . S
C222 N219 1.336 . S
C222 C221 1.346 . S
C222 H229 0.929 . S
C223 O213 1.282 . S
C223 O224 1.216 . S
O224 C223 1.216 . S
H225 C220 0.930 . S
H226 C221 0.930 . S
O227 Cu207 1.959 . S
O227 C214 1.251 . S
H228 C211 0.930 . S
H229 C222 0.929 . S
Cu230 N231 1.999 . S
Cu230 O236 1.974 . S
Cu230 N241 1.985 . S
Cu230 O250 1.959 . S
N231 Cu230 1.999 . S
N231 C233 1.263 . S
N231 C235 1.389 . S
N232 C233 1.358 . S
N232 C234 1.400 . S
C233 N231 1.263 . S
C233 N232 1.358 . S
C233 H239 0.930 . S
C234 N232 1.400 . S
C234 C235 1.351 . S
C234 H251 0.930 . S
C235 N231 1.389 . S
C235 C234 1.351 . S
C235 H240 0.930 . S
O236 Cu230 1.974 . S
O236 C246 1.282 . S
C237 O238 1.261 . S
C237 O250 1.251 . S
O238 C237 1.261 . S
H239 C233 0.930 . S
H240 C235 0.930 . S
N241 Cu230 1.985 . S
N241 C243 1.335 1_545 S
N241 C244 1.390 . S
N242 C243 1.345 . S
N242 C245 1.336 . S
C243 N241 1.335 1_565 S
C243 N242 1.345 . S
C243 H248 0.930 . S
C244 N241 1.390 . S
C244 C245 1.346 1_545 S
C244 H249 0.930 . S
C245 N242 1.336 . S
C245 C244 1.346 1_565 S
C245 H252 0.929 . S
C246 O236 1.282 . S
C246 O247 1.216 . S
O247 C246 1.216 . S
H248 C243 0.930 . S
H249 C244 0.930 . S
O250 Cu230 1.959 . S
O250 C237 1.251 . S
H251 C234 0.930 . S
H252 C245 0.929 . S
Cu253 N254 1.999 . S
Cu253 O259 1.974 . S
Cu253 N264 1.985 . S
Cu253 O273 1.959 . S
N254 Cu253 1.999 . S
N254 C256 1.263 . S
N254 C258 1.389 . S
N255 C256 1.358 . S
N255 C257 1.400 . S
C256 N254 1.263 . S
C256 N255 1.358 . S
C256 H262 0.930 . S
C257 N255 1.400 . S
C257 C258 1.351 . S
C257 H274 0.930 . S
C258 N254 1.389 . S
C258 C257 1.351 . S
C258 H263 0.930 . S
O259 Cu253 1.974 . S
O259 C269 1.282 . S
C260 O261 1.261 . S
C260 O273 1.251 . S
O261 C260 1.261 . S
H262 C256 0.930 . S
H263 C258 0.930 . S
N264 Cu253 1.985 . S
N264 C266 1.335 1_655 S
N264 C267 1.390 . S
N265 C266 1.345 . S
N265 C268 1.336 . S
C266 N264 1.335 1_455 S
C266 N265 1.345 . S
C266 H271 0.930 . S
C267 N264 1.390 . S
C267 C268 1.346 1_655 S
C267 H272 0.930 . S
C268 N265 1.336 . S
C268 C267 1.346 1_455 S
C268 H275 0.929 . S
C269 O259 1.282 . S
C269 O270 1.216 . S
O270 C269 1.216 . S
H271 C266 0.930 . S
H272 C267 0.930 . S
O273 Cu253 1.959 . S
O273 C260 1.251 . S
H274 C257 0.930 . S
H275 C268 0.929 . S
Cu276 N277 1.999 . S
Cu276 O282 1.974 . S
Cu276 N287 1.985 . S
Cu276 O296 1.959 . S
N277 Cu276 1.999 . S
N277 C279 1.263 . S
N277 C281 1.389 . S
N278 C279 1.358 . S
N278 C280 1.400 . S
C279 N277 1.263 . S
C279 N278 1.358 . S
C279 H285 0.930 . S
C280 N278 1.400 . S
C280 C281 1.351 . S
C280 H297 0.930 . S
C281 N277 1.389 . S
C281 C280 1.351 . S
C281 H286 0.930 . S
O282 Cu276 1.974 . S
O282 C292 1.282 . S
C283 O284 1.261 . S
C283 O296 1.251 . S
O284 C283 1.261 . S
H285 C279 0.930 . S
H286 C281 0.930 . S
N287 Cu276 1.985 . S
N287 C289 1.335 . S
N287 C290 1.390 . S
N288 C289 1.345 . S
N288 C291 1.336 . S
C289 N287 1.335 . S
C289 N288 1.345 . S
C289 H294 0.930 . S
C290 N287 1.390 . S
C290 C291 1.346 . S
C290 H295 0.930 . S
C291 N288 1.336 . S
C291 C290 1.346 . S
C291 H298 0.929 . S
C292 O282 1.282 . S
C292 O293 1.216 . S
O293 C292 1.216 . S
H294 C289 0.930 . S
H295 C290 0.930 . S
O296 Cu276 1.959 . S
O296 C283 1.251 . S
H297 C280 0.930 . S
H298 C291 0.929 . S
Cu299 N300 1.999 . S
Cu299 O305 1.974 . S
Cu299 N310 1.985 . S
Cu299 O319 1.959 . S
N300 Cu299 1.999 . S
N300 C302 1.263 . S
N300 C304 1.389 . S
N301 C302 1.358 . S
N301 C303 1.400 . S
C302 N300 1.263 . S
C302 N301 1.358 . S
C302 H308 0.930 . S
C303 N301 1.400 . S
C303 C304 1.351 . S
C303 H320 0.930 . S
C304 N300 1.389 . S
C304 C303 1.351 . S
C304 H309 0.930 . S
O305 Cu299 1.974 . S
O305 C315 1.282 . S
C306 O307 1.261 . S
C306 O319 1.251 . S
O307 C306 1.261 . S
H308 C302 0.930 . S
H309 C304 0.930 . S
N310 Cu299 1.985 . S
N310 C312 1.335 . S
N310 C313 1.390 . S
N311 C312 1.345 . S
N311 C314 1.336 . S
C312 N310 1.335 . S
C312 N311 1.345 . S
C312 H317 0.930 . S
C313 N310 1.390 . S
C313 C314 1.346 . S
C313 H318 0.930 . S
C314 N311 1.336 . S
C314 C313 1.346 . S
C314 H321 0.929 . S
C315 O305 1.282 . S
C315 O316 1.216 . S
O316 C315 1.216 . S
H317 C312 0.930 . S
H318 C313 0.930 . S
O319 Cu299 1.959 . S
O319 C306 1.251 . S
H320 C303 0.930 . S
H321 C314 0.929 . S
Cu322 N323 1.999 . S
Cu322 O328 1.974 . S
Cu322 N333 1.985 . S
Cu322 O342 1.959 . S
N323 Cu322 1.999 . S
N323 C325 1.263 . S
N323 C327 1.389 . S
N324 C325 1.358 . S
N324 C326 1.400 . S
C325 N323 1.263 . S
C325 N324 1.358 . S
C325 H331 0.930 . S
C326 N324 1.400 . S
C326 C327 1.351 . S
C326 H343 0.930 . S
C327 N323 1.389 . S
C327 C326 1.351 . S
C327 H332 0.930 . S
O328 Cu322 1.974 . S
O328 C338 1.282 . S
C329 O330 1.261 . S
C329 O342 1.251 . S
O330 C329 1.261 . S
H331 C325 0.930 . S
H332 C327 0.930 . S
N333 Cu322 1.985 . S
N333 C335 1.335 . S
N333 C336 1.390 . S
N334 C335 1.345 . S
N334 C337 1.336 . S
C335 N333 1.335 . S
C335 N334 1.345 . S
C335 H340 0.930 . S
C336 N333 1.390 . S
C336 C337 1.346 . S
C336 H341 0.930 . S
C337 N334 1.336 . S
C337 C336 1.346 . S
C337 H344 0.929 . S
C338 O328 1.282 . S
C338 O339 1.216 . S
O339 C338 1.216 . S
H340 C335 0.930 . S
H341 C336 0.930 . S
O342 Cu322 1.959 . S
O342 C329 1.251 . S
H343 C326 0.930 . S
H344 C337 0.929 . S
Cu345 N346 1.999 . S
Cu345 O351 1.974 . S
Cu345 N356 1.985 . S
Cu345 O365 1.959 . S
N346 Cu345 1.999 . S
N346 C348 1.263 . S
N346 C350 1.389 . S
N347 C348 1.358 . S
N347 C349 1.400 . S
C348 N346 1.263 . S
C348 N347 1.358 . S
C348 H354 0.930 . S
C349 N347 1.400 . S
C349 C350 1.351 . S
C349 H366 0.930 . S
C350 N346 1.389 . S
C350 C349 1.351 . S
C350 H355 0.930 . S
O351 Cu345 1.974 . S
O351 C361 1.282 . S
C352 O353 1.261 . S
C352 O365 1.251 . S
O353 C352 1.261 . S
H354 C348 0.930 . S
H355 C350 0.930 . S
N356 Cu345 1.985 . S
N356 C358 1.335 . S
N356 C359 1.390 . S
N357 C358 1.345 . S
N357 C360 1.336 . S
C358 N356 1.335 . S
C358 N357 1.345 . S
C358 H363 0.930 . S
C359 N356 1.390 . S
C359 C360 1.346 . S
C359 H364 0.930 . S
C360 N357 1.336 . S
C360 C359 1.346 . S
C360 H367 0.929 . S
C361 O351 1.282 . S
C361 O362 1.216 . S
O362 C361 1.216 . S
H363 C358 0.930 . S
H364 C359 0.930 . S
O365 Cu345 1.959 . S
O365 C352 1.251 . S
H366 C349 0.930 . S
H367 C360 0.929 . S
Cu368 N369 1.999 . S
Cu368 O374 1.974 . S
Cu368 N379 1.985 . S
Cu368 O388 1.959 . S
N369 Cu368 1.999 . S
N369 C371 1.263 . S
N369 C373 1.389 . S
N370 C371 1.358 . S
N370 C372 1.400 . S
C371 N369 1.263 . S
C371 N370 1.358 . S
C371 H377 0.930 . S
C372 N370 1.400 . S
C372 C373 1.351 . S
C372 H389 0.930 . S
C373 N369 1.389 . S
C373 C372 1.351 . S
C373 H378 0.930 . S
O374 Cu368 1.974 . S
O374 C384 1.282 . S
C375 O376 1.261 . S
C375 O388 1.251 . S
O376 C375 1.261 . S
H377 C371 0.930 . S
H378 C373 0.930 . S
N379 Cu368 1.985 . S
N379 C381 1.335 . S
N379 C382 1.390 . S
N380 C381 1.345 . S
N380 C383 1.336 . S
C381 N379 1.335 . S
C381 N380 1.345 . S
C381 H386 0.930 . S
C382 N379 1.390 . S
C382 C383 1.346 . S
C382 H387 0.930 . S
C383 N380 1.336 . S
C383 C382 1.346 . S
C383 H390 0.929 . S
C384 O374 1.282 . S
C384 O385 1.216 . S
O385 C384 1.216 . S
H386 C381 0.930 . S
H387 C382 0.930 . S
O388 Cu368 1.959 . S
O388 C375 1.251 . S
H389 C372 0.930 . S
H390 C383 0.929 . S
Cu391 N392 1.999 . S
Cu391 O397 1.974 . S
Cu391 N402 1.985 . S
Cu391 O411 1.959 . S
N392 Cu391 1.999 . S
N392 C394 1.263 . S
N392 C396 1.389 . S
N393 C394 1.358 . S
N393 C395 1.400 . S
C394 N392 1.263 . S
C394 N393 1.358 . S
C394 H400 0.930 . S
C395 N393 1.400 . S
C395 C396 1.351 . S
C395 H412 0.930 . S
C396 N392 1.389 . S
C396 C395 1.351 . S
C396 H401 0.930 . S
O397 Cu391 1.974 . S
O397 C407 1.282 . S
C398 O399 1.261 . S
C398 O411 1.251 . S
O399 C398 1.261 . S
H400 C394 0.930 . S
H401 C396 0.930 . S
N402 Cu391 1.985 . S
N402 C404 1.335 . S
N402 C405 1.390 . S
N403 C404 1.345 . S
N403 C406 1.336 . S
C404 N402 1.335 . S
C404 N403 1.345 . S
C404 H409 0.930 . S
C405 N402 1.390 . S
C405 C406 1.346 . S
C405 H410 0.930 . S
C406 N403 1.336 . S
C406 C405 1.346 . S
C406 H413 0.929 . S
C407 O397 1.282 . S
C407 O408 1.216 . S
O408 C407 1.216 . S
H409 C404 0.930 . S
H410 C405 0.930 . S
O411 Cu391 1.959 . S
O411 C398 1.251 . S
H412 C395 0.930 . S
H413 C406 0.929 . S
Cu414 N415 1.999 . S
Cu414 O420 1.974 . S
Cu414 N425 1.985 . S
Cu414 O434 1.959 . S
N415 Cu414 1.999 . S
N415 C417 1.263 . S
N415 C419 1.389 . S
N416 C417 1.358 . S
N416 C418 1.400 . S
C417 N415 1.263 . S
C417 N416 1.358 . S
C417 H423 0.930 . S
C418 N416 1.400 . S
C418 C419 1.351 . S
C418 H435 0.930 . S
C419 N415 1.389 . S
C419 C418 1.351 . S
C419 H424 0.930 . S
O420 Cu414 1.974 . S
O420 C430 1.282 . S
C421 O422 1.261 . S
C421 O434 1.251 . S
O422 C421 1.261 . S
H423 C417 0.930 . S
H424 C419 0.930 . S
N425 Cu414 1.985 . S
N425 C427 1.335 . S
N425 C428 1.390 . S
N426 C427 1.345 . S
N426 C429 1.336 . S
C427 N425 1.335 . S
C427 N426 1.345 . S
C427 H432 0.930 . S
C428 N425 1.390 . S
C428 C429 1.346 . S
C428 H433 0.930 . S
C429 N426 1.336 . S
C429 C428 1.346 . S
C429 H436 0.929 . S
C430 O420 1.282 . S
C430 O431 1.216 . S
O431 C430 1.216 . S
H432 C427 0.930 . S
H433 C428 0.930 . S
O434 Cu414 1.959 . S
O434 C421 1.251 . S
H435 C418 0.930 . S
H436 C429 0.929 . S
Cu437 N438 1.999 . S
Cu437 O443 1.974 . S
Cu437 N448 1.985 . S
Cu437 O457 1.959 . S
N438 Cu437 1.999 . S
N438 C440 1.263 . S
N438 C442 1.389 . S
N439 C440 1.358 . S
N439 C441 1.400 . S
C440 N438 1.263 . S
C440 N439 1.358 . S
C440 H446 0.930 . S
C441 N439 1.400 . S
C441 C442 1.351 . S
C441 H458 0.930 . S
C442 N438 1.389 . S
C442 C441 1.351 . S
C442 H447 0.930 . S
O443 Cu437 1.974 . S
O443 C453 1.282 . S
C444 O445 1.261 . S
C444 O457 1.251 . S
O445 C444 1.261 . S
H446 C440 0.930 . S
H447 C442 0.930 . S
N448 Cu437 1.985 . S
N448 C450 1.335 . S
N448 C451 1.390 . S
N449 C450 1.345 . S
N449 C452 1.336 . S
C450 N448 1.335 . S
C450 N449 1.345 . S
C450 H455 0.930 . S
C451 N448 1.390 . S
C451 C452 1.346 . S
C451 H456 0.930 . S
C452 N449 1.336 . S
C452 C451 1.346 . S
C452 H459 0.929 . S
C453 O443 1.282 . S
C453 O454 1.216 . S
O454 C453 1.216 . S
H455 C450 0.930 . S
H456 C451 0.930 . S
O457 Cu437 1.959 . S
O457 C444 1.251 . S
H458 C441 0.930 . S
H459 C452 0.929 . S
Cu460 N461 1.999 . S
Cu460 O466 1.974 . S
Cu460 N471 1.985 . S
Cu460 O480 1.959 . S
N461 Cu460 1.999 . S
N461 C463 1.263 . S
N461 C465 1.389 . S
N462 C463 1.358 . S
N462 C464 1.400 . S
C463 N461 1.263 . S
C463 N462 1.358 . S
C463 H469 0.930 . S
C464 N462 1.400 . S
C464 C465 1.351 . S
C464 H481 0.930 . S
C465 N461 1.389 . S
C465 C464 1.351 . S
C465 H470 0.930 . S
O466 Cu460 1.974 . S
O466 C476 1.282 . S
C467 O468 1.261 . S
C467 O480 1.251 . S
O468 C467 1.261 . S
H469 C463 0.930 . S
H470 C465 0.930 . S
N471 Cu460 1.985 . S
N471 C473 1.335 . S
N471 C474 1.390 . S
N472 C473 1.345 . S
N472 C475 1.336 . S
C473 N471 1.335 . S
C473 N472 1.345 . S
C473 H478 0.930 . S
C474 N471 1.390 . S
C474 C475 1.346 . S
C474 H479 0.930 . S
C475 N472 1.336 . S
C475 C474 1.346 . S
C475 H482 0.929 . S
C476 O466 1.282 . S
C476 O477 1.216 . S
O477 C476 1.216 . S
H478 C473 0.930 . S
H479 C474 0.930 . S
O480 Cu460 1.959 . S
O480 C467 1.251 . S
H481 C464 0.930 . S
H482 C475 0.929 . S
Cu483 N484 1.999 . S
Cu483 O489 1.974 . S
Cu483 N494 1.985 . S
Cu483 O503 1.959 . S
N484 Cu483 1.999 . S
N484 C486 1.263 . S
N484 C488 1.389 . S
N485 C486 1.358 . S
N485 C487 1.400 1_556 S
C486 N484 1.263 . S
C486 N485 1.358 . S
C486 H492 0.930 . S
C487 N485 1.400 1_554 S
C487 C488 1.351 1_554 S
C487 H504 0.930 . S
C488 N484 1.389 . S
C488 C487 1.351 1_556 S
C488 H493 0.930 . S
O489 Cu483 1.974 . S
O489 C499 1.282 . S
C490 O491 1.261 . S
C490 O503 1.251 . S
O491 C490 1.261 . S
H492 C486 0.930 . S
H493 C488 0.930 . S
N494 Cu483 1.985 . S
N494 C496 1.335 . S
N494 C497 1.390 . S
N495 C496 1.345 . S
N495 C498 1.336 . S
C496 N494 1.335 . S
C496 N495 1.345 . S
C496 H501 0.930 . S
C497 N494 1.390 . S
C497 C498 1.346 . S
C497 H502 0.930 . S
C498 N495 1.336 . S
C498 C497 1.346 . S
C498 H505 0.929 . S
C499 O489 1.282 . S
C499 O500 1.216 . S
O500 C499 1.216 . S
H501 C496 0.930 . S
H502 C497 0.930 . S
O503 Cu483 1.959 . S
O503 C490 1.251 . S
H504 C487 0.930 . S
H505 C498 0.929 . S
Cu506 N507 1.999 . S
Cu506 O512 1.974 . S
Cu506 N517 1.985 . S
Cu506 O526 1.959 . S
N507 Cu506 1.999 . S
N507 C509 1.263 . S
N507 C511 1.368 1_556 S
N508 C509 1.358 . S
N508 C510 1.400 1_556 S
C509 N507 1.263 . S
C509 N508 1.358 . S
C509 H515 0.930 . S
C510 N508 1.400 1_554 S
C510 C511 1.357 . S
C510 H527 0.930 . S
C511 N507 1.368 1_554 S
C511 C510 1.357 . S
C511 H516 0.943 . S
O512 Cu506 1.974 . S
O512 C522 1.282 . S
C513 O514 1.261 . S
C513 O526 1.251 . S
O514 C513 1.261 . S
H515 C509 0.930 . S
H516 C511 0.943 . S
N517 Cu506 1.985 . S
N517 C519 1.335 . S
N517 C520 1.390 . S
N518 C519 1.345 . S
N518 C521 1.336 . S
C519 N517 1.335 . S
C519 N518 1.345 . S
C519 H524 0.930 . S
C520 N517 1.390 . S
C520 C521 1.346 . S
C520 H525 0.930 . S
C521 N518 1.336 . S
C521 C520 1.346 . S
C521 H528 0.929 . S
C522 O512 1.282 . S
C522 O523 1.216 . S
O523 C522 1.216 . S
H524 C519 0.930 . S
H525 C520 0.930 . S
O526 Cu506 1.959 . S
O526 C513 1.251 . S
H527 C510 0.930 . S
H528 C521 0.929 . S
Cu529 N530 1.999 . S
Cu529 O535 1.974 . S
Cu529 N540 1.985 . S
Cu529 O549 1.959 . S
N530 Cu529 1.999 . S
N530 C532 1.263 . S
N530 C534 1.389 . S
N531 C532 1.358 . S
N531 C533 1.400 . S
C532 N530 1.263 . S
C532 N531 1.358 . S
C532 H538 0.930 . S
C533 N531 1.400 . S
C533 C534 1.351 . S
C533 H550 0.930 1_556 S
C534 N530 1.389 . S
C534 C533 1.351 . S
C534 H539 0.930 . S
O535 Cu529 1.974 . S
O535 C545 1.282 . S
C536 O537 1.261 . S
C536 O549 1.251 . S
O537 C536 1.261 . S
H538 C532 0.930 . S
H539 C534 0.930 . S
N540 Cu529 1.985 . S
N540 C542 1.335 . S
N540 C543 1.390 . S
N541 C542 1.345 . S
N541 C544 1.336 . S
C542 N540 1.335 . S
C542 N541 1.345 . S
C542 H547 0.930 . S
C543 N540 1.390 . S
C543 C544 1.346 . S
C543 H548 0.930 . S
C544 N541 1.336 . S
C544 C543 1.346 . S
C544 H551 0.929 . S
C545 O535 1.282 . S
C545 O546 1.216 . S
O546 C545 1.216 . S
H547 C542 0.930 . S
H548 C543 0.930 . S
O549 Cu529 1.959 . S
O549 C536 1.251 . S
H550 C533 0.930 1_554 S
H551 C544 0.929 . S
Cu552 N553 1.999 . S
Cu552 O558 1.974 . S
Cu552 N563 1.985 . S
Cu552 O572 1.959 . S
N553 Cu552 1.999 . S
N553 C555 1.263 . S
N553 C557 1.389 . S
N554 C555 1.358 . S
N554 C556 1.400 . S
C555 N553 1.263 . S
C555 N554 1.358 . S
C555 H561 0.930 . S
C556 N554 1.400 . S
C556 C557 1.351 . S
C556 H573 0.930 . S
C557 N553 1.389 . S
C557 C556 1.351 . S
C557 H562 0.930 . S
O558 Cu552 1.974 . S
O558 C568 1.282 . S
C559 O560 1.261 . S
C559 O572 1.251 . S
O560 C559 1.261 . S
H561 C555 0.930 . S
H562 C557 0.930 . S
N563 Cu552 1.985 . S
N563 C565 1.335 . S
N563 C566 1.390 . S
N564 C565 1.345 . S
N564 C567 1.336 . S
C565 N563 1.335 . S
C565 N564 1.345 . S
C565 H570 0.930 . S
C566 N563 1.390 . S
C566 C567 1.346 . S
C566 H571 0.930 . S
C567 N564 1.336 . S
C567 C566 1.346 . S
C567 H574 0.929 . S
C568 O558 1.282 . S
C568 O569 1.216 . S
O569 C568 1.216 . S
H570 C565 0.930 . S
H571 C566 0.930 . S
O572 Cu552 1.959 . S
O572 C559 1.251 . S
H573 C556 0.930 . S
H574 C567 0.929 . S
Cu575 N576 1.999 . S
Cu575 O581 1.974 . S
Cu575 N586 1.985 . S
Cu575 O595 1.959 . S
N576 Cu575 1.999 . S
N576 C578 1.263 . S
N576 C580 1.389 . S
N577 C578 1.358 . S
N577 C579 1.400 . S
C578 N576 1.263 . S
C578 N577 1.358 . S
C578 H584 0.930 . S
C579 N577 1.400 . S
C579 C580 1.351 . S
C579 H596 0.930 . S
C580 N576 1.389 . S
C580 C579 1.351 . S
C580 H585 0.930 . S
O581 Cu575 1.974 . S
O581 C591 1.282 . S
C582 O583 1.261 . S
C582 O595 1.251 . S
O583 C582 1.261 . S
H584 C578 0.930 . S
H585 C580 0.930 . S
N586 Cu575 1.985 . S
N586 C588 1.335 . S
N586 C589 1.390 . S
N587 C588 1.345 . S
N587 C590 1.336 . S
C588 N586 1.335 . S
C588 N587 1.345 . S
C588 H593 0.930 . S
C589 N586 1.390 . S
C589 C590 1.346 . S
C589 H594 0.930 . S
C590 N587 1.336 . S
C590 C589 1.346 . S
C590 H597 0.929 . S
C591 O581 1.282 . S
C591 O592 1.216 . S
O592 C591 1.216 . S
H593 C588 0.930 . S
H594 C589 0.930 . S
O595 Cu575 1.959 . S
O595 C582 1.251 . S
H596 C579 0.930 . S
H597 C590 0.929 . S
Cu598 N599 1.999 . S
Cu598 O604 1.974 . S
Cu598 N609 1.985 . S
Cu598 O618 1.959 . S
N599 Cu598 1.999 . S
N599 C601 1.263 . S
N599 C603 1.389 . S
N600 C601 1.358 . S
N600 C602 1.400 . S
C601 N599 1.263 . S
C601 N600 1.358 . S
C601 H607 0.930 . S
C602 N600 1.400 . S
C602 C603 1.351 . S
C602 H619 0.930 . S
C603 N599 1.389 . S
C603 C602 1.351 . S
C603 H608 0.930 . S
O604 Cu598 1.974 . S
O604 C614 1.282 . S
C605 O606 1.261 . S
C605 O618 1.251 . S
O606 C605 1.261 . S
H607 C601 0.930 . S
H608 C603 0.930 . S
N609 Cu598 1.985 . S
N609 C611 1.335 . S
N609 C612 1.390 . S
N610 C611 1.345 . S
N610 C613 1.336 . S
C611 N609 1.335 . S
C611 N610 1.345 . S
C611 H616 0.930 . S
C612 N609 1.390 . S
C612 C613 1.346 . S
C612 H617 0.930 . S
C613 N610 1.336 . S
C613 C612 1.346 . S
C613 H620 0.929 . S
C614 O604 1.282 . S
C614 O615 1.216 . S
O615 C614 1.216 . S
H616 C611 0.930 . S
H617 C612 0.930 . S
O618 Cu598 1.959 . S
O618 C605 1.251 . S
H619 C602 0.930 . S
H620 C613 0.929 . S
Cu621 N622 1.999 . S
Cu621 O627 1.974 . S
Cu621 N632 1.985 . S
Cu621 O641 1.959 . S
N622 Cu621 1.999 . S
N622 C624 1.263 . S
N622 C626 1.389 . S
N623 C624 1.358 . S
N623 C625 1.400 . S
C624 N622 1.263 . S
C624 N623 1.358 . S
C624 H630 0.930 . S
C625 N623 1.400 . S
C625 C626 1.351 . S
C625 H642 0.930 1_554 S
C626 N622 1.389 . S
C626 C625 1.351 . S
C626 H631 0.930 . S
O627 Cu621 1.974 . S
O627 C637 1.282 . S
C628 O629 1.261 . S
C628 O641 1.251 . S
O629 C628 1.261 . S
H630 C624 0.930 . S
H631 C626 0.930 . S
N632 Cu621 1.985 . S
N632 C634 1.335 . S
N632 C635 1.390 . S
N633 C634 1.345 . S
N633 C636 1.336 . S
C634 N632 1.335 . S
C634 N633 1.345 . S
C634 H639 0.930 . S
C635 N632 1.390 . S
C635 C636 1.346 . S
C635 H640 0.930 . S
C636 N633 1.336 . S
C636 C635 1.346 . S
C636 H643 0.929 . S
C637 O627 1.282 . S
C637 O638 1.216 . S
O638 C637 1.216 . S
H639 C634 0.930 . S
H640 C635 0.930 . S
O641 Cu621 1.959 . S
O641 C628 1.251 . S
H642 C625 0.930 1_556 S
H643 C636 0.929 . S
Cu644 N645 1.999 . S
Cu644 O650 1.974 . S
Cu644 N655 1.985 . S
Cu644 O664 1.959 . S
N645 Cu644 1.999 . S
N645 C647 1.263 . S
N645 C649 1.389 . S
N646 C647 1.358 . S
N646 C648 1.400 . S
C647 N645 1.263 . S
C647 N646 1.358 . S
C647 H653 0.930 . S
C648 N646 1.400 . S
C648 C649 1.351 . S
C648 H665 0.930 . S
C649 N645 1.389 . S
C649 C648 1.351 . S
C649 H654 0.930 . S
O650 Cu644 1.974 . S
O650 C660 1.282 . S
C651 O652 1.261 . S
C651 O664 1.251 . S
O652 C651 1.261 . S
H653 C647 0.930 . S
H654 C649 0.930 . S
N655 Cu644 1.985 . S
N655 C657 1.335 . S
N655 C658 1.390 . S
N656 C657 1.345 . S
N656 C659 1.336 . S
C657 N655 1.335 . S
C657 N656 1.345 . S
C657 H662 0.930 . S
C658 N655 1.390 . S
C658 C659 1.346 . S
C658 H663 0.930 . S
C659 N656 1.336 . S
C659 C658 1.346 . S
C659 H666 0.929 . S
C660 O650 1.282 . S
C660 O661 1.216 . S
O661 C660 1.216 . S
H662 C657 0.930 . S
H663 C658 0.930 . S
O664 Cu644 1.959 . S
O664 C651 1.251 . S
H665 C648 0.930 . S
H666 C659 0.929 . S
Cu667 N668 1.999 . S
Cu667 O673 1.974 . S
Cu667 N678 1.985 . S
Cu667 O687 1.959 . S
N668 Cu667 1.999 . S
N668 C670 1.263 . S
N668 C672 1.389 . S
N669 C670 1.358 . S
N669 C671 1.400 . S
C670 N668 1.263 . S
C670 N669 1.358 . S
C670 H676 0.930 . S
C671 N669 1.400 . S
C671 C672 1.351 . S
C671 H688 0.930 1_554 S
C672 N668 1.389 . S
C672 C671 1.351 . S
C672 H677 0.930 . S
O673 Cu667 1.974 . S
O673 C683 1.282 . S
C674 O675 1.261 . S
C674 O687 1.251 . S
O675 C674 1.261 . S
H676 C670 0.930 . S
H677 C672 0.930 . S
N678 Cu667 1.985 . S
N678 C680 1.335 . S
N678 C681 1.390 . S
N679 C680 1.345 . S
N679 C682 1.336 . S
C680 N678 1.335 . S
C680 N679 1.345 . S
C680 H685 0.930 . S
C681 N678 1.390 . S
C681 C682 1.346 . S
C681 H686 0.930 . S
C682 N679 1.336 . S
C682 C681 1.346 . S
C682 H689 0.929 . S
C683 O673 1.282 . S
C683 O684 1.216 . S
O684 C683 1.216 . S
H685 C680 0.930 . S
H686 C681 0.930 . S
O687 Cu667 1.959 . S
O687 C674 1.251 . S
H688 C671 0.930 1_556 S
H689 C682 0.929 . S
Cu690 N691 1.999 . S
Cu690 O696 1.974 . S
Cu690 N701 1.985 . S
Cu690 O710 1.959 . S
N691 Cu690 1.999 . S
N691 C693 1.263 . S
N691 C695 1.389 . S
N692 C693 1.358 . S
N692 C694 1.400 . S
C693 N691 1.263 . S
C693 N692 1.358 . S
C693 H699 0.930 . S
C694 N692 1.400 . S
C694 C695 1.351 . S
C694 H711 0.930 . S
C695 N691 1.389 . S
C695 C694 1.351 . S
C695 H700 0.930 . S
O696 Cu690 1.974 . S
O696 C706 1.282 . S
C697 O698 1.261 . S
C697 O710 1.251 . S
O698 C697 1.261 . S
H699 C693 0.930 . S
H700 C695 0.930 . S
N701 Cu690 1.985 . S
N701 C703 1.335 . S
N701 C704 1.390 . S
N702 C703 1.345 . S
N702 C705 1.336 . S
C703 N701 1.335 . S
C703 N702 1.345 . S
C703 H708 0.930 . S
C704 N701 1.390 . S
C704 C705 1.346 . S
C704 H709 0.930 . S
C705 N702 1.336 . S
C705 C704 1.346 . S
C705 H712 0.929 . S
C706 O696 1.282 . S
C706 O707 1.216 . S
O707 C706 1.216 . S
H708 C703 0.930 . S
H709 C704 0.930 . S
O710 Cu690 1.959 . S
O710 C697 1.251 . S
H711 C694 0.930 . S
H712 C705 0.929 . S
Cu713 N714 1.999 . S
Cu713 O719 1.974 . S
Cu713 N724 1.985 . S
Cu713 O733 1.959 . S
N714 Cu713 1.999 . S
N714 C716 1.263 . S
N714 C718 1.389 . S
N715 C716 1.358 . S
N715 C717 1.400 . S
C716 N714 1.263 . S
C716 N715 1.358 . S
C716 H722 0.930 . S
C717 N715 1.400 . S
C717 C718 1.351 . S
C717 H734 0.930 . S
C718 N714 1.389 . S
C718 C717 1.351 . S
C718 H723 0.930 . S
O719 Cu713 1.974 . S
O719 C729 1.282 . S
C720 O721 1.261 . S
C720 O733 1.251 . S
O721 C720 1.261 . S
H722 C716 0.930 . S
H723 C718 0.930 . S
N724 Cu713 1.985 . S
N724 C726 1.335 . S
N724 C727 1.390 . S
N725 C726 1.345 . S
N725 C728 1.336 . S
C726 N724 1.335 . S
C726 N725 1.345 . S
C726 H731 0.930 . S
C727 N724 1.390 . S
C727 C728 1.346 . S
C727 H732 0.930 . S
C728 N725 1.336 . S
C728 C727 1.346 . S
C728 H735 0.929 . S
C729 O719 1.282 . S
C729 O730 1.216 . S
O730 C729 1.216 . S
H731 C726 0.930 . S
H732 C727 0.930 . S
O733 Cu713 1.959 . S
O733 C720 1.251 . S
H734 C717 0.930 . S
H735 C728 0.929 . S
Cu736 N737 1.999 . S
Cu736 O742 1.974 . S
Cu736 N747 1.985 . S
Cu736 O756 1.959 . S
N737 Cu736 1.999 . S
N737 C739 1.263 . S
N737 C741 1.389 . S
N738 C739 1.358 . S
N738 C740 1.400 . S
C739 N737 1.263 . S
C739 N738 1.358 . S
C739 H745 0.930 . S
C740 N738 1.400 . S
C740 C741 1.351 . S
C740 H757 0.930 . S
C741 N737 1.389 . S
C741 C740 1.351 . S
C741 H746 0.930 . S
O742 Cu736 1.974 . S
O742 C752 1.282 . S
C743 O744 1.261 . S
C743 O756 1.251 . S
O744 C743 1.261 . S
H745 C739 0.930 . S
H746 C741 0.930 . S
N747 Cu736 1.985 . S
N747 C749 1.335 . S
N747 C750 1.390 . S
N748 C749 1.345 . S
N748 C751 1.336 . S
C749 N747 1.335 . S
C749 N748 1.345 . S
C749 H754 0.930 . S
C750 N747 1.390 . S
C750 C751 1.346 . S
C750 H755 0.930 . S
C751 N748 1.336 . S
C751 C750 1.346 . S
C751 H758 0.929 . S
C752 O742 1.282 . S
C752 O753 1.216 . S
O753 C752 1.216 . S
H754 C749 0.930 . S
H755 C750 0.930 . S
O756 Cu736 1.959 . S
O756 C743 1.251 . S
H757 C740 0.930 . S
H758 C751 0.929 . S
Cu759 N760 1.999 . S
Cu759 O765 1.974 . S
Cu759 N770 1.985 . S
Cu759 O779 1.959 . S
N760 Cu759 1.999 . S
N760 C762 1.263 . S
N760 C764 1.389 . S
N761 C762 1.358 . S
N761 C763 1.400 . S
C762 N760 1.263 . S
C762 N761 1.358 . S
C762 H768 0.930 . S
C763 N761 1.400 . S
C763 C764 1.351 . S
C763 H780 0.930 . S
C764 N760 1.389 . S
C764 C763 1.351 . S
C764 H769 0.930 . S
O765 Cu759 1.974 . S
O765 C775 1.282 . S
C766 O767 1.261 . S
C766 O779 1.251 . S
O767 C766 1.261 . S
H768 C762 0.930 . S
H769 C764 0.930 . S
N770 Cu759 1.985 . S
N770 C772 1.335 . S
N770 C773 1.390 . S
N771 C772 1.345 . S
N771 C774 1.336 . S
C772 N770 1.335 . S
C772 N771 1.345 . S
C772 H777 0.930 . S
C773 N770 1.390 . S
C773 C774 1.346 . S
C773 H778 0.930 . S
C774 N771 1.336 . S
C774 C773 1.346 . S
C774 H781 0.929 . S
C775 O765 1.282 . S
C775 O776 1.216 . S
O776 C775 1.216 . S
H777 C772 0.930 . S
H778 C773 0.930 . S
O779 Cu759 1.959 . S
O779 C766 1.251 . S
H780 C763 0.930 . S
H781 C774 0.929 . S
Cu782 N783 1.999 . S
Cu782 O788 1.974 . S
Cu782 N793 1.985 . S
Cu782 O802 1.959 . S
N783 Cu782 1.999 . S
N783 C785 1.263 . S
N783 C787 1.389 . S
N784 C785 1.358 . S
N784 C786 1.400 . S
C785 N783 1.263 . S
C785 N784 1.358 . S
C785 H791 0.930 . S
C786 N784 1.400 . S
C786 C787 1.351 . S
C786 H803 0.930 . S
C787 N783 1.389 . S
C787 C786 1.351 . S
C787 H792 0.930 . S
O788 Cu782 1.974 . S
O788 C798 1.282 . S
C789 O790 1.261 . S
C789 O802 1.251 . S
O790 C789 1.261 . S
H791 C785 0.930 . S
H792 C787 0.930 . S
N793 Cu782 1.985 . S
N793 C795 1.335 . S
N793 C796 1.390 . S
N794 C795 1.345 . S
N794 C797 1.336 . S
C795 N793 1.335 . S
C795 N794 1.345 . S
C795 H800 0.930 . S
C796 N793 1.390 . S
C796 C797 1.346 . S
C796 H801 0.930 . S
C797 N794 1.336 . S
C797 C796 1.346 . S
C797 H804 0.929 . S
C798 O788 1.282 . S
C798 O799 1.216 . S
O799 C798 1.216 . S
H800 C795 0.930 . S
H801 C796 0.930 . S
O802 Cu782 1.959 . S
O802 C789 1.251 . S
H803 C786 0.930 . S
H804 C797 0.929 . S
Cu805 N806 1.999 . S
Cu805 O811 1.974 . S
Cu805 N816 1.985 . S
Cu805 O825 1.959 . S
N806 Cu805 1.999 . S
N806 C808 1.263 . S
N806 C810 1.389 . S
N807 C808 1.358 . S
N807 C809 1.400 . S
C808 N806 1.263 . S
C808 N807 1.358 . S
C808 H814 0.930 . S
C809 N807 1.400 . S
C809 C810 1.351 . S
C809 H826 0.930 . S
C810 N806 1.389 . S
C810 C809 1.351 . S
C810 H815 0.930 . S
O811 Cu805 1.974 . S
O811 C821 1.282 . S
C812 O813 1.261 . S
C812 O825 1.251 . S
O813 C812 1.261 . S
H814 C808 0.930 . S
H815 C810 0.930 . S
N816 Cu805 1.985 . S
N816 C818 1.335 . S
N816 C819 1.390 . S
N817 C818 1.345 . S
N817 C820 1.336 . S
C818 N816 1.335 . S
C818 N817 1.345 . S
C818 H823 0.930 . S
C819 N816 1.390 . S
C819 C820 1.346 . S
C819 H824 0.930 . S
C820 N817 1.336 . S
C820 C819 1.346 . S
C820 H827 0.929 . S
C821 O811 1.282 . S
C821 O822 1.216 . S
O822 C821 1.216 . S
H823 C818 0.930 . S
H824 C819 0.930 . S
O825 Cu805 1.959 . S
O825 C812 1.251 . S
H826 C809 0.930 . S
H827 C820 0.929 . S
C828 C829 1.369 . S
C828 C830 1.419 . S
C828 H832 0.930 . S
C829 C828 1.369 . S
C829 C838 1.429 . S
C830 C828 1.419 . S
C830 C831 1.363 . S
C830 H833 0.929 . S
C831 C830 1.363 . S
C831 C837 1.428 . S
H832 C828 0.930 . S
H833 C830 0.929 . S
S834 N835 1.613 . S
S834 N836 1.610 . S
N835 S834 1.613 . S
N835 C838 1.350 . S
N836 S834 1.610 . S
N836 C837 1.351 . S
C837 C831 1.428 . S
C837 N836 1.351 . S
C837 C838 1.434 . S
C838 C829 1.429 . S
C838 N835 1.350 . S
C838 C837 1.434 . S
C839 C840 1.369 . S
C839 C841 1.419 . S
C839 H843 0.930 . S
C840 C839 1.369 . S
C840 C849 1.429 . S
C841 C839 1.419 . S
C841 C842 1.363 . S
C841 H844 0.929 . S
C842 C841 1.363 . S
C842 C848 1.428 . S
H843 C839 0.930 . S
H844 C841 0.929 . S
S845 N846 1.613 . S
S845 N847 1.610 . S
N846 S845 1.613 . S
N846 C849 1.350 . S
N847 S845 1.610 . S
N847 C848 1.351 . S
C848 C842 1.428 . S
C848 N847 1.351 . S
C848 C849 1.434 . S
C849 C840 1.429 . S
C849 N846 1.350 . S
C849 C848 1.434 . S
C850 C851 1.369 . S
C850 C852 1.419 . S
C850 H854 0.930 . S
C851 C850 1.369 . S
C851 C860 1.429 . S
C852 C850 1.419 . S
C852 C853 1.363 . S
C852 H855 0.929 . S
C853 C852 1.363 . S
C853 C859 1.428 . S
H854 C850 0.930 . S
H855 C852 0.929 . S
S856 N857 1.613 . S
S856 N858 1.610 . S
N857 S856 1.613 . S
N857 C860 1.350 . S
N858 S856 1.610 . S
N858 C859 1.351 . S
C859 C853 1.428 . S
C859 N858 1.351 . S
C859 C860 1.434 . S
C860 C851 1.429 . S
C860 N857 1.350 . S
C860 C859 1.434 . S
C861 C862 1.369 . S
C861 C863 1.419 . S
C861 H865 0.930 . S
C862 C861 1.369 . S
C862 C871 1.429 . S
C863 C861 1.419 . S
C863 C864 1.363 . S
C863 H866 0.929 . S
C864 C863 1.363 . S
C864 C870 1.428 . S
H865 C861 0.930 . S
H866 C863 0.929 . S
S867 N868 1.613 . S
S867 N869 1.610 . S
N868 S867 1.613 . S
N868 C871 1.350 . S
N869 S867 1.610 . S
N869 C870 1.351 . S
C870 C864 1.428 . S
C870 N869 1.351 . S
C870 C871 1.434 . S
C871 C862 1.429 . S
C871 N868 1.350 . S
C871 C870 1.434 . S
C872 C873 1.369 . S
C872 C874 1.419 . S
C872 H876 0.930 . S
C873 C872 1.369 . S
C873 C882 1.429 . S
C874 C872 1.419 . S
C874 C875 1.363 . S
C874 H877 0.929 . S
C875 C874 1.363 . S
C875 C881 1.428 . S
H876 C872 0.930 . S
H877 C874 0.929 . S
S878 N879 1.613 . S
S878 N880 1.610 . S
N879 S878 1.613 . S
N879 C882 1.350 . S
N880 S878 1.610 . S
N880 C881 1.351 . S
C881 C875 1.428 . S
C881 N880 1.351 . S
C881 C882 1.434 . S
C882 C873 1.429 . S
C882 N879 1.350 . S
C882 C881 1.434 . S
C883 C884 1.369 . S
C883 C885 1.419 . S
C883 H887 0.930 . S
C884 C883 1.369 . S
C884 C893 1.429 . S
C885 C883 1.419 . S
C885 C886 1.363 . S
C885 H888 0.929 . S
C886 C885 1.363 . S
C886 C892 1.428 . S
H887 C883 0.930 . S
H888 C885 0.929 . S
S889 N890 1.613 . S
S889 N891 1.610 . S
N890 S889 1.613 . S
N890 C893 1.350 . S
N891 S889 1.610 . S
N891 C892 1.351 . S
C892 C886 1.428 . S
C892 N891 1.351 . S
C892 C893 1.434 . S
C893 C884 1.429 . S
C893 N890 1.350 . S
C893 C892 1.434 . S
C894 C895 1.369 . S
C894 C896 1.419 . S
C894 H898 0.930 . S
C895 C894 1.369 . S
C895 C904 1.429 . S
C896 C894 1.419 . S
C896 C897 1.363 . S
C896 H899 0.929 . S
C897 C896 1.363 . S
C897 C903 1.428 . S
H898 C894 0.930 . S
H899 C896 0.929 . S
S900 N901 1.613 . S
S900 N902 1.610 . S
N901 S900 1.613 . S
N901 C904 1.350 . S
N902 S900 1.610 . S
N902 C903 1.351 . S
C903 C897 1.428 . S
C903 N902 1.351 . S
C903 C904 1.434 . S
C904 C895 1.429 . S
C904 N901 1.350 . S
C904 C903 1.434 . S
C905 C906 1.369 . S
C905 C907 1.419 . S
C905 H909 0.930 . S
C906 C905 1.369 . S
C906 C915 1.429 . S
C907 C905 1.419 . S
C907 C908 1.363 . S
C907 H910 0.929 . S
C908 C907 1.363 . S
C908 C914 1.428 . S
H909 C905 0.930 . S
H910 C907 0.929 . S
S911 N912 1.613 . S
S911 N913 1.610 . S
N912 S911 1.613 . S
N912 C915 1.350 . S
N913 S911 1.610 . S
N913 C914 1.351 . S
C914 C908 1.428 . S
C914 N913 1.351 . S
C914 C915 1.434 . S
C915 C906 1.429 . S
C915 N912 1.350 . S
C915 C914 1.434 . S
C916 C917 1.369 . S
C916 C918 1.419 . S
C916 H920 0.930 . S
C917 C916 1.369 . S
C917 C926 1.429 . S
C918 C916 1.419 . S
C918 C919 1.363 . S
C918 H921 0.929 . S
C919 C918 1.363 . S
C919 C925 1.428 . S
H920 C916 0.930 . S
H921 C918 0.929 . S
S922 N923 1.613 . S
S922 N924 1.610 . S
N923 S922 1.613 . S
N923 C926 1.350 . S
N924 S922 1.610 . S
N924 C925 1.351 . S
C925 C919 1.428 . S
C925 N924 1.351 . S
C925 C926 1.434 . S
C926 C917 1.429 . S
C926 N923 1.350 . S
C926 C925 1.434 . S
C927 C928 1.369 . S
C927 C929 1.419 . S
C927 H931 0.930 . S
C928 C927 1.369 . S
C928 C937 1.429 . S
C929 C927 1.419 . S
C929 C930 1.363 . S
C929 H932 0.929 . S
C930 C929 1.363 . S
C930 C936 1.428 . S
H931 C927 0.930 . S
H932 C929 0.929 . S
S933 N934 1.613 . S
S933 N935 1.610 . S
N934 S933 1.613 . S
N934 C937 1.350 . S
N935 S933 1.610 . S
N935 C936 1.351 . S
C936 C930 1.428 . S
C936 N935 1.351 . S
C936 C937 1.434 . S
C937 C928 1.429 . S
C937 N934 1.350 . S
C937 C936 1.434 . S
C938 C939 1.369 . S
C938 C940 1.419 . S
C938 H942 0.930 . S
C939 C938 1.369 . S
C939 C948 1.429 . S
C940 C938 1.419 . S
C940 C941 1.363 . S
C940 H943 0.929 . S
C941 C940 1.363 . S
C941 C947 1.428 . S
H942 C938 0.930 . S
H943 C940 0.929 . S
S944 N945 1.613 . S
S944 N946 1.610 . S
N945 S944 1.613 . S
N945 C948 1.350 . S
N946 S944 1.610 . S
N946 C947 1.351 . S
C947 C941 1.428 . S
C947 N946 1.351 . S
C947 C948 1.434 . S
C948 C939 1.429 . S
C948 N945 1.350 . S
C948 C947 1.434 . S
C949 C950 1.369 . S
C949 C951 1.419 . S
C949 H953 0.930 . S
C950 C949 1.369 . S
C950 C959 1.429 . S
C951 C949 1.419 . S
C951 C952 1.363 . S
C951 H954 0.929 . S
C952 C951 1.363 . S
C952 C958 1.428 . S
H953 C949 0.930 . S
H954 C951 0.929 . S
S955 N956 1.613 . S
S955 N957 1.610 . S
N956 S955 1.613 . S
N956 C959 1.350 . S
N957 S955 1.610 . S
N957 C958 1.351 . S
C958 C952 1.428 . S
C958 N957 1.351 . S
C958 C959 1.434 . S
C959 C950 1.429 . S
C959 N956 1.350 . S
C959 C958 1.434 . S
C960 C961 1.369 1_455 S
C960 C962 1.419 . S
C960 H964 0.930 . S
C961 C960 1.369 1_655 S
C961 C970 1.429 . S
C962 C960 1.419 . S
C962 C963 1.363 . S
C962 H965 0.929 . S
C963 C962 1.363 . S
C963 C969 1.428 1_455 S
H964 C960 0.930 . S
H965 C962 0.929 . S
S966 N967 1.613 . S
S966 N968 1.610 . S
N967 S966 1.613 . S
N967 C970 1.350 . S
N968 S966 1.610 . S
N968 C969 1.351 . S
C969 C963 1.428 1_655 S
C969 N968 1.351 . S
C969 C970 1.434 . S
C970 C961 1.429 . S
C970 N967 1.350 . S
C970 C969 1.434 . S
C971 C972 1.369 . S
C971 C973 1.419 . S
C971 H975 0.930 . S
C972 C971 1.369 . S
C972 C981 1.429 . S
C973 C971 1.419 . S
C973 C974 1.363 . S
C973 H976 0.929 . S
C974 C973 1.363 . S
C974 C980 1.428 . S
H975 C971 0.930 . S
H976 C973 0.929 . S
S977 N978 1.613 . S
S977 N979 1.610 . S
N978 S977 1.613 . S
N978 C981 1.350 . S
N979 S977 1.610 . S
N979 C980 1.351 . S
C980 C974 1.428 . S
C980 N979 1.351 . S
C980 C981 1.434 . S
C981 C972 1.429 . S
C981 N978 1.350 . S
C981 C980 1.434 . S
C982 C983 1.369 . S
C982 C984 1.419 . S
C982 H986 0.930 . S
C983 C982 1.369 . S
C983 C992 1.429 . S
C984 C982 1.419 . S
C984 C985 1.363 1_545 S
C984 H987 0.929 . S
C985 C984 1.363 1_565 S
C985 C991 1.428 . S
H986 C982 0.930 . S
H987 C984 0.929 . S
S988 N989 1.613 . S
S988 N990 1.610 . S
N989 S988 1.613 . S
N989 C992 1.350 1_565 S
N990 S988 1.610 . S
N990 C991 1.351 . S
C991 C985 1.428 . S
C991 N990 1.351 . S
C991 C992 1.434 1_565 S
C992 C983 1.429 . S
C992 N989 1.350 1_545 S
C992 C991 1.434 1_545 S
C993 C994 1.369 . S
C993 C995 1.419 1_546 S
C993 H997 0.930 . S
C994 C993 1.369 . S
C994 C1003 1.429 1_546 S
C995 C993 1.419 1_564 S
C995 C996 1.363 . S
C995 H998 0.929 . S
C996 C995 1.363 . S
C996 C1002 1.428 . S
H997 C993 0.930 . S
H998 C995 0.929 . S
S999 N1000 1.613 . S
S999 N1001 1.610 . S
N1000 S999 1.613 . S
N1000 C1003 1.350 . S
N1001 S999 1.610 . S
N1001 C1002 1.351 . S
C1002 C996 1.428 . S
C1002 N1001 1.351 . S
C1002 C1003 1.434 . S
C1003 C994 1.429 1_564 S
C1003 N1000 1.350 . S
C1003 C1002 1.434 . S
C1004 C1005 1.368 . S
C1004 C1006 1.410 1_656 S
C1004 H1008 0.941 . S
C1005 C1004 1.368 . S
C1005 C1014 1.429 1_656 S
C1006 C1004 1.410 1_454 S
C1006 C1007 1.363 . S
C1006 H1009 0.929 . S
C1007 C1006 1.363 . S
C1007 C1013 1.428 . S
H1008 C1004 0.941 . S
H1009 C1006 0.929 . S
S1010 N1011 1.613 . S
S1010 N1012 1.610 . S
N1011 S1010 1.613 . S
N1011 C1014 1.350 . S
N1012 S1010 1.610 . S
N1012 C1013 1.351 . S
C1013 C1007 1.428 . S
C1013 N1012 1.351 . S
C1013 C1014 1.434 . S
C1014 C1005 1.429 1_454 S
C1014 N1011 1.350 . S
C1014 C1013 1.434 . S
C1015 C1016 1.369 1_554 S
C1015 C1017 1.419 . S
C1015 H1019 0.930 . S
C1016 C1015 1.369 1_556 S
C1016 C1025 1.429 . S
C1017 C1015 1.419 . S
C1017 C1018 1.363 . S
C1017 H1020 0.929 . S
C1018 C1017 1.363 . S
C1018 C1024 1.428 . S
H1019 C1015 0.930 . S
H1020 C1017 0.929 . S
S1021 N1022 1.613 . S
S1021 N1023 1.610 . S
N1022 S1021 1.613 . S
N1022 C1025 1.350 . S
N1023 S1021 1.610 . S
N1023 C1024 1.351 1_556 S
C1024 C1018 1.428 . S
C1024 N1023 1.351 1_554 S
C1024 C1025 1.434 1_554 S
C1025 C1016 1.429 . S
C1025 N1022 1.350 . S
C1025 C1024 1.434 1_556 S
C1026 C1027 1.369 . S
C1026 C1028 1.419 . S
C1026 H1030 0.930 . S
C1027 C1026 1.369 . S
C1027 C1036 1.429 . S
C1028 C1026 1.419 . S
C1028 C1029 1.363 1_556 S
C1028 H1031 0.929 . S
C1029 C1028 1.363 1_554 S
C1029 C1035 1.428 1_554 S
H1030 C1026 0.930 . S
H1031 C1028 0.929 . S
S1032 N1033 1.613 . S
S1032 N1034 1.610 1_556 S
N1033 S1032 1.613 . S
N1033 C1036 1.350 . S
N1034 S1032 1.610 1_554 S
N1034 C1035 1.351 1_554 S
C1035 C1029 1.428 1_556 S
C1035 N1034 1.351 1_556 S
C1035 C1036 1.434 . S
C1036 C1027 1.429 . S
C1036 N1033 1.350 . S
C1036 C1035 1.434 . S
C1037 C1038 1.369 . S
C1037 C1039 1.419 1_556 S
C1037 H1041 0.930 . S
C1038 C1037 1.369 . S
C1038 C1047 1.423 1_556 S
C1039 C1037 1.419 1_554 S
C1039 C1040 1.363 . S
C1039 H1042 0.929 . S
C1040 C1039 1.363 . S
C1040 C1046 1.428 . S
H1041 C1037 0.930 . S
H1042 C1039 0.929 . S
S1043 N1044 1.605 1_554 S
S1043 N1045 1.610 . S
N1044 S1043 1.605 1_556 S
N1044 C1047 1.347 1_556 S
N1045 S1043 1.610 . S
N1045 C1046 1.351 . S
C1046 C1040 1.428 . S
C1046 N1045 1.351 . S
C1046 C1047 1.443 . S
C1047 C1038 1.423 1_554 S
C1047 N1044 1.347 1_554 S
C1047 C1046 1.443 . S
C1048 C1049 1.369 . S
C1048 C1050 1.419 1_554 S
C1048 H1052 0.930 . S
C1049 C1048 1.369 . S
C1049 C1058 1.429 . S
C1050 C1048 1.419 1_556 S
C1050 C1051 1.363 . S
C1050 H1053 0.929 . S
C1051 C1050 1.363 . S
C1051 C1057 1.428 1_556 S
H1052 C1048 0.930 . S
H1053 C1050 0.929 . S
S1054 N1055 1.613 . S
S1054 N1056 1.610 . S
N1055 S1054 1.613 . S
N1055 C1058 1.350 . S
N1056 S1054 1.610 . S
N1056 C1057 1.351 . S
C1057 C1051 1.428 1_554 S
C1057 N1056 1.351 . S
C1057 C1058 1.434 . S
C1058 C1049 1.429 . S
C1058 N1055 1.350 . S
C1058 C1057 1.434 . S
C1059 C1060 1.369 . S
C1059 C1061 1.419 . S
C1059 H1063 0.930 . S
C1060 C1059 1.369 . S
C1060 C1069 1.429 . S
C1061 C1059 1.419 . S
C1061 C1062 1.363 . S
C1061 H1064 0.929 . S
C1062 C1061 1.363 . S
C1062 C1068 1.428 . S
H1063 C1059 0.930 . S
H1064 C1061 0.929 . S
S1065 N1066 1.613 . S
S1065 N1067 1.610 . S
N1066 S1065 1.613 . S
N1066 C1069 1.350 . S
N1067 S1065 1.610 . S
N1067 C1068 1.351 . S
C1068 C1062 1.428 . S
C1068 N1067 1.351 . S
C1068 C1069 1.434 . S
C1069 C1060 1.429 . S
C1069 N1066 1.350 . S
C1069 C1068 1.434 . S
C1070 C1071 1.369 . S
C1070 C1072 1.419 . S
C1070 H1074 0.930 . S
C1071 C1070 1.369 . S
C1071 C1080 1.429 . S
C1072 C1070 1.419 . S
C1072 C1073 1.363 . S
C1072 H1075 0.929 . S
C1073 C1072 1.363 . S
C1073 C1079 1.428 . S
H1074 C1070 0.930 . S
H1075 C1072 0.929 . S
S1076 N1077 1.613 . S
S1076 N1078 1.610 . S
N1077 S1076 1.613 . S
N1077 C1080 1.350 . S
N1078 S1076 1.610 . S
N1078 C1079 1.351 . S
C1079 C1073 1.428 . S
C1079 N1078 1.351 . S
C1079 C1080 1.434 . S
C1080 C1071 1.429 . S
C1080 N1077 1.350 . S
C1080 C1079 1.434 . S
C1081 C1082 1.369 . S
C1081 C1083 1.419 . S
C1081 H1085 0.930 . S
C1082 C1081 1.369 . S
C1082 C1091 1.429 . S
C1083 C1081 1.419 . S
C1083 C1084 1.363 . S
C1083 H1086 0.929 . S
C1084 C1083 1.363 . S
C1084 C1090 1.428 . S
H1085 C1081 0.930 . S
H1086 C1083 0.929 . S
S1087 N1088 1.613 . S
S1087 N1089 1.610 . S
N1088 S1087 1.613 . S
N1088 C1091 1.350 . S
N1089 S1087 1.610 . S
N1089 C1090 1.351 . S
C1090 C1084 1.428 . S
C1090 N1089 1.351 . S
C1090 C1091 1.434 . S
C1091 C1082 1.429 . S
C1091 N1088 1.350 . S
C1091 C1090 1.434 . S
C1092 C1093 1.369 . S
C1092 C1094 1.419 . S
C1092 H1096 0.930 . S
C1093 C1092 1.369 . S
C1093 C1102 1.429 1_556 S
C1094 C1092 1.419 . S
C1094 C1095 1.363 1_556 S
C1094 H1097 0.929 . S
C1095 C1094 1.363 1_554 S
C1095 C1101 1.428 . S
H1096 C1092 0.930 . S
H1097 C1094 0.929 . S
S1098 N1099 1.613 . S
S1098 N1100 1.610 . S
N1099 S1098 1.613 . S
N1099 C1102 1.350 . S
N1100 S1098 1.610 . S
N1100 C1101 1.351 . S
C1101 C1095 1.428 . S
C1101 N1100 1.351 . S
C1101 C1102 1.434 . S
C1102 C1093 1.429 1_554 S
C1102 N1099 1.350 . S
C1102 C1101 1.434 . S
C1103 C1104 1.369 . S
C1103 C1105 1.419 1_556 S
C1103 H1107 0.938 . S
C1104 C1103 1.369 . S
C1104 C1113 1.429 . S
C1105 C1103 1.419 1_554 S
C1105 C1106 1.363 1_554 S
C1105 H1108 0.929 . S
C1106 C1105 1.363 1_556 S
C1106 C1112 1.428 . S
H1107 C1103 0.938 . S
H1108 C1105 0.929 . S
S1109 N1110 1.613 . S
S1109 N1111 1.610 . S
N1110 S1109 1.613 . S
N1110 C1113 1.350 . S
N1111 S1109 1.610 . S
N1111 C1112 1.351 . S
C1112 C1106 1.428 . S
C1112 N1111 1.351 . S
C1112 C1113 1.434 . S
C1113 C1104 1.429 . S
C1113 N1110 1.350 . S
C1113 C1112 1.434 . S
C1114 C1115 1.369 . S
C1114 C1116 1.419 1_556 S
C1114 H1118 0.930 1_556 S
C1115 C1114 1.369 . S
C1115 C1124 1.429 . S
C1116 C1114 1.419 1_554 S
C1116 C1117 1.363 1_554 S
C1116 H1119 0.929 . S
C1117 C1116 1.363 1_556 S
C1117 C1123 1.428 . S
H1118 C1114 0.930 1_554 S
H1119 C1116 0.929 . S
S1120 N1121 1.613 . S
S1120 N1122 1.610 . S
N1121 S1120 1.613 . S
N1121 C1124 1.350 . S
N1122 S1120 1.610 . S
N1122 C1123 1.351 . S
C1123 C1117 1.428 . S
C1123 N1122 1.351 . S
C1123 C1124 1.434 . S
C1124 C1115 1.429 . S
C1124 N1121 1.350 . S
C1124 C1123 1.434 . S
C1125 C1126 1.369 . S
C1125 C1127 1.419 . S
C1125 H1129 0.930 . S
C1126 C1125 1.369 . S
C1126 C1135 1.429 . S
C1127 C1125 1.419 . S
C1127 C1128 1.363 . S
C1127 H1130 0.929 . S
C1128 C1127 1.363 . S
C1128 C1134 1.428 . S
H1129 C1125 0.930 . S
H1130 C1127 0.929 . S
S1131 N1132 1.613 . S
S1131 N1133 1.610 . S
N1132 S1131 1.613 . S
N1132 C1135 1.350 . S
N1133 S1131 1.610 . S
N1133 C1134 1.351 . S
C1134 C1128 1.428 . S
C1134 N1133 1.351 . S
C1134 C1135 1.434 . S
C1135 C1126 1.429 . S
C1135 N1132 1.350 . S
C1135 C1134 1.434 . S
C1136 C1137 1.369 . S
C1136 C1138 1.419 . S
C1136 H1140 0.930 . S
C1137 C1136 1.369 . S
C1137 C1146 1.429 . S
C1138 C1136 1.419 . S
C1138 C1139 1.363 . S
C1138 H1141 0.929 . S
C1139 C1138 1.363 . S
C1139 C1145 1.428 . S
H1140 C1136 0.930 . S
H1141 C1138 0.929 . S
S1142 N1143 1.613 . S
S1142 N1144 1.610 . S
N1143 S1142 1.613 . S
N1143 C1146 1.350 . S
N1144 S1142 1.610 . S
N1144 C1145 1.351 . S
C1145 C1139 1.428 . S
C1145 N1144 1.351 . S
C1145 C1146 1.434 . S
C1146 C1137 1.429 . S
C1146 N1143 1.350 . S
C1146 C1145 1.434 . S
C1147 C1148 1.369 . S
C1147 C1149 1.419 . S
C1147 H1151 0.930 . S
C1148 C1147 1.369 . S
C1148 C1157 1.429 . S
C1149 C1147 1.419 . S
C1149 C1150 1.363 . S
C1149 H1152 0.929 . S
C1150 C1149 1.363 . S
C1150 C1156 1.428 . S
H1151 C1147 0.930 . S
H1152 C1149 0.929 . S
S1153 N1154 1.613 . S
S1153 N1155 1.610 . S
N1154 S1153 1.613 . S
N1154 C1157 1.350 . S
N1155 S1153 1.610 . S
N1155 C1156 1.351 . S
C1156 C1150 1.428 . S
C1156 N1155 1.351 . S
C1156 C1157 1.434 . S
C1157 C1148 1.429 . S
C1157 N1154 1.350 . S
C1157 C1156 1.434 . S
C1158 C1159 1.369 . S
C1158 C1160 1.419 . S
C1158 H1162 0.930 . S
C1159 C1158 1.369 . S
C1159 C1168 1.429 . S
C1160 C1158 1.419 . S
C1160 C1161 1.363 . S
C1160 H1163 0.929 . S
C1161 C1160 1.363 . S
C1161 C1167 1.428 . S
H1162 C1158 0.930 . S
H1163 C1160 0.929 . S
S1164 N1165 1.613 . S
S1164 N1166 1.610 . S
N1165 S1164 1.613 . S
N1165 C1168 1.350 . S
N1166 S1164 1.610 . S
N1166 C1167 1.351 . S
C1167 C1161 1.428 . S
C1167 N1166 1.351 . S
C1167 C1168 1.434 . S
C1168 C1159 1.429 . S
C1168 N1165 1.350 . S
C1168 C1167 1.434 . S
C1169 C1170 1.369 . S
C1169 C1171 1.419 . S
C1169 H1173 0.930 . S
C1170 C1169 1.369 . S
C1170 C1179 1.429 . S
C1171 C1169 1.419 . S
C1171 C1172 1.363 . S
C1171 H1174 0.929 . S
C1172 C1171 1.363 . S
C1172 C1178 1.428 . S
H1173 C1169 0.930 . S
H1174 C1171 0.929 . S
S1175 N1176 1.613 . S
S1175 N1177 1.610 . S
N1176 S1175 1.613 . S
N1176 C1179 1.350 . S
N1177 S1175 1.610 . S
N1177 C1178 1.351 . S
C1178 C1172 1.428 . S
C1178 N1177 1.351 . S
C1178 C1179 1.434 . S
C1179 C1170 1.429 . S
C1179 N1176 1.350 . S
C1179 C1178 1.434 . S
C1180 C1181 1.369 . S
C1180 C1182 1.419 . S
C1180 H1184 0.930 . S
C1181 C1180 1.369 . S
C1181 C1190 1.429 . S
C1182 C1180 1.419 . S
C1182 C1183 1.363 . S
C1182 H1185 0.929 . S
C1183 C1182 1.363 . S
C1183 C1189 1.428 . S
H1184 C1180 0.930 . S
H1185 C1182 0.929 . S
S1186 N1187 1.613 . S
S1186 N1188 1.610 . S
N1187 S1186 1.613 . S
N1187 C1190 1.350 . S
N1188 S1186 1.610 . S
N1188 C1189 1.351 . S
C1189 C1183 1.428 . S
C1189 N1188 1.351 . S
C1189 C1190 1.434 . S
C1190 C1181 1.429 . S
C1190 N1187 1.350 . S
C1190 C1189 1.434 . S
C1191 C1192 1.369 . S
C1191 C1193 1.419 . S
C1191 H1195 0.930 . S
C1192 C1191 1.369 . S
C1192 C1201 1.429 . S
C1193 C1191 1.419 . S
C1193 C1194 1.363 . S
C1193 H1196 0.929 . S
C1194 C1193 1.363 . S
C1194 C1200 1.428 . S
H1195 C1191 0.930 . S
H1196 C1193 0.929 . S
S1197 N1198 1.613 . S
S1197 N1199 1.610 . S
N1198 S1197 1.613 . S
N1198 C1201 1.350 . S
N1199 S1197 1.610 . S
N1199 C1200 1.351 . S
C1200 C1194 1.428 . S
C1200 N1199 1.351 . S
C1200 C1201 1.434 . S
C1201 C1192 1.429 . S
C1201 N1198 1.350 . S
C1201 C1200 1.434 . S
C1202 C1203 1.369 . S
C1202 C1204 1.419 . S
C1202 H1206 0.930 . S
C1203 C1202 1.369 . S
C1203 C1212 1.429 . S
C1204 C1202 1.419 . S
C1204 C1205 1.363 . S
C1204 H1207 0.929 . S
C1205 C1204 1.363 . S
C1205 C1211 1.428 . S
H1206 C1202 0.930 . S
H1207 C1204 0.929 . S
S1208 N1209 1.613 . S
S1208 N1210 1.610 . S
N1209 S1208 1.613 . S
N1209 C1212 1.350 . S
N1210 S1208 1.610 . S
N1210 C1211 1.351 . S
C1211 C1205 1.428 . S
C1211 N1210 1.351 . S
C1211 C1212 1.434 . S
C1212 C1203 1.429 . S
C1212 N1209 1.350 . S
C1212 C1211 1.434 . S
C1213 C1214 1.369 . S
C1213 C1215 1.419 . S
C1213 H1217 0.930 . S
C1214 C1213 1.369 . S
C1214 C1223 1.429 . S
C1215 C1213 1.419 . S
C1215 C1216 1.363 . S
C1215 H1218 0.929 . S
C1216 C1215 1.363 . S
C1216 C1222 1.428 . S
H1217 C1213 0.930 . S
H1218 C1215 0.929 . S
S1219 N1220 1.613 . S
S1219 N1221 1.610 . S
N1220 S1219 1.613 . S
N1220 C1223 1.350 . S
N1221 S1219 1.610 . S
N1221 C1222 1.351 . S
C1222 C1216 1.428 . S
C1222 N1221 1.351 . S
C1222 C1223 1.434 . S
C1223 C1214 1.429 . S
C1223 N1220 1.350 . S
C1223 C1222 1.434 . S
C1224 C1225 1.369 . S
C1224 C1226 1.419 . S
C1224 H1228 0.930 . S
C1225 C1224 1.369 . S
C1225 C1234 1.429 . S
C1226 C1224 1.419 . S
C1226 C1227 1.363 . S
C1226 H1229 0.929 . S
C1227 C1226 1.363 . S
C1227 C1233 1.428 . S
H1228 C1224 0.930 . S
H1229 C1226 0.929 . S
S1230 N1231 1.613 . S
S1230 N1232 1.610 . S
N1231 S1230 1.613 . S
N1231 C1234 1.350 . S
N1232 S1230 1.610 . S
N1232 C1233 1.351 . S
C1233 C1227 1.428 . S
C1233 N1232 1.351 . S
C1233 C1234 1.434 . S
C1234 C1225 1.429 . S
C1234 N1231 1.350 . S
C1234 C1233 1.434 . S
C1235 C1236 1.369 . S
C1235 C1237 1.419 . S
C1235 H1239 0.930 . S
C1236 C1235 1.369 . S
C1236 C1245 1.429 . S
C1237 C1235 1.419 . S
C1237 C1238 1.363 . S
C1237 H1240 0.929 . S
C1238 C1237 1.363 . S
C1238 C1244 1.428 . S
H1239 C1235 0.930 . S
H1240 C1237 0.929 . S
S1241 N1242 1.613 . S
S1241 N1243 1.610 . S
N1242 S1241 1.613 . S
N1242 C1245 1.350 . S
N1243 S1241 1.610 . S
N1243 C1244 1.351 . S
C1244 C1238 1.428 . S
C1244 N1243 1.351 . S
C1244 C1245 1.434 . S
C1245 C1236 1.429 . S
C1245 N1242 1.350 . S
C1245 C1244 1.434 . S
C1246 C1247 1.369 . S
C1246 C1248 1.419 . S
C1246 H1250 0.930 . S
C1247 C1246 1.369 . S
C1247 C1256 1.429 . S
C1248 C1246 1.419 . S
C1248 C1249 1.363 . S
C1248 H1251 0.929 . S
C1249 C1248 1.363 . S
C1249 C1255 1.428 . S
H1250 C1246 0.930 . S
H1251 C1248 0.929 . S
S1252 N1253 1.613 . S
S1252 N1254 1.610 . S
N1253 S1252 1.613 . S
N1253 C1256 1.350 . S
N1254 S1252 1.610 . S
N1254 C1255 1.351 . S
C1255 C1249 1.428 . S
C1255 N1254 1.351 . S
C1255 C1256 1.434 . S
C1256 C1247 1.429 . S
C1256 N1253 1.350 . S
C1256 C1255 1.434 . S
C1257 C1258 1.369 . S
C1257 C1259 1.419 . S
C1257 H1261 0.930 . S
C1258 C1257 1.369 . S
C1258 C1267 1.429 . S
C1259 C1257 1.419 . S
C1259 C1260 1.363 . S
C1259 H1262 0.929 . S
C1260 C1259 1.363 . S
C1260 C1266 1.428 . S
H1261 C1257 0.930 . S
H1262 C1259 0.929 . S
S1263 N1264 1.613 . S
S1263 N1265 1.610 . S
N1264 S1263 1.613 . S
N1264 C1267 1.350 . S
N1265 S1263 1.610 . S
N1265 C1266 1.351 . S
C1266 C1260 1.428 . S
C1266 N1265 1.351 . S
C1266 C1267 1.434 . S
C1267 C1258 1.429 . S
C1267 N1264 1.350 . S
C1267 C1266 1.434 . S
C1268 C1269 1.369 . S
C1268 C1270 1.419 . S
C1268 H1272 0.930 . S
C1269 C1268 1.369 . S
C1269 C1278 1.429 . S
C1270 C1268 1.419 . S
C1270 C1271 1.363 . S
C1270 H1273 0.929 . S
C1271 C1270 1.363 . S
C1271 C1277 1.428 . S
H1272 C1268 0.930 . S
H1273 C1270 0.929 . S
S1274 N1275 1.613 . S
S1274 N1276 1.610 . S
N1275 S1274 1.613 . S
N1275 C1278 1.350 . S
N1276 S1274 1.610 . S
N1276 C1277 1.351 . S
C1277 C1271 1.428 . S
C1277 N1276 1.351 . S
C1277 C1278 1.434 . S
C1278 C1269 1.429 . S
C1278 N1275 1.350 . S
C1278 C1277 1.434 . S
C1279 C1280 1.369 . S
C1279 C1281 1.419 . S
C1279 H1283 0.930 . S
C1280 C1279 1.369 . S
C1280 C1289 1.429 . S
C1281 C1279 1.419 . S
C1281 C1282 1.363 . S
C1281 H1284 0.929 . S
C1282 C1281 1.363 . S
C1282 C1288 1.428 . S
H1283 C1279 0.930 . S
H1284 C1281 0.929 . S
S1285 N1286 1.613 . S
S1285 N1287 1.610 . S
N1286 S1285 1.613 . S
N1286 C1289 1.350 . S
N1287 S1285 1.610 . S
N1287 C1288 1.351 . S
C1288 C1282 1.428 . S
C1288 N1287 1.351 . S
C1288 C1289 1.434 . S
C1289 C1280 1.429 . S
C1289 N1286 1.350 . S
C1289 C1288 1.434 . S
C1290 C1291 1.369 . S
C1290 C1292 1.419 . S
C1290 H1294 0.930 . S
C1291 C1290 1.369 . S
C1291 C1300 1.429 . S
C1292 C1290 1.419 . S
C1292 C1293 1.363 . S
C1292 H1295 0.929 . S
C1293 C1292 1.363 . S
C1293 C1299 1.428 . S
H1294 C1290 0.930 . S
H1295 C1292 0.929 . S
S1296 N1297 1.613 . S
S1296 N1298 1.610 . S
N1297 S1296 1.613 . S
N1297 C1300 1.350 . S
N1298 S1296 1.610 . S
N1298 C1299 1.351 . S
C1299 C1293 1.428 . S
C1299 N1298 1.351 . S
C1299 C1300 1.434 . S
C1300 C1291 1.429 . S
C1300 N1297 1.350 . S
C1300 C1299 1.434 . S
C1301 C1302 1.369 . S
C1301 C1303 1.419 . S
C1301 H1305 0.930 . S
C1302 C1301 1.369 . S
C1302 C1311 1.429 . S
C1303 C1301 1.419 . S
C1303 C1304 1.363 . S
C1303 H1306 0.929 . S
C1304 C1303 1.363 . S
C1304 C1310 1.428 . S
H1305 C1301 0.930 . S
H1306 C1303 0.929 . S
S1307 N1308 1.613 . S
S1307 N1309 1.610 . S
N1308 S1307 1.613 . S
N1308 C1311 1.350 . S
N1309 S1307 1.610 . S
N1309 C1310 1.351 . S
C1310 C1304 1.428 . S
C1310 N1309 1.351 . S
C1310 C1311 1.434 . S
C1311 C1302 1.429 . S
C1311 N1308 1.350 . S
C1311 C1310 1.434 . S
C1312 C1313 1.369 . S
C1312 C1314 1.419 . S
C1312 H1316 0.930 . S
C1313 C1312 1.369 . S
C1313 C1322 1.429 . S
C1314 C1312 1.419 . S
C1314 C1315 1.363 . S
C1314 H1317 0.929 . S
C1315 C1314 1.363 . S
C1315 C1321 1.428 . S
H1316 C1312 0.930 . S
H1317 C1314 0.929 . S
S1318 N1319 1.613 . S
S1318 N1320 1.610 . S
N1319 S1318 1.613 . S
N1319 C1322 1.350 . S
N1320 S1318 1.610 . S
N1320 C1321 1.351 . S
C1321 C1315 1.428 . S
C1321 N1320 1.351 . S
C1321 C1322 1.434 . S
C1322 C1313 1.429 . S
C1322 N1319 1.350 . S
C1322 C1321 1.434 . S
C1323 C1324 1.369 . S
C1323 C1325 1.419 . S
C1323 H1327 0.930 . S
C1324 C1323 1.369 . S
C1324 C1333 1.429 . S
C1325 C1323 1.419 . S
C1325 C1326 1.363 . S
C1325 H1328 0.929 . S
C1326 C1325 1.363 . S
C1326 C1332 1.428 . S
H1327 C1323 0.930 . S
H1328 C1325 0.929 . S
S1329 N1330 1.613 . S
S1329 N1331 1.610 . S
N1330 S1329 1.613 . S
N1330 C1333 1.350 . S
N1331 S1329 1.610 . S
N1331 C1332 1.351 . S
C1332 C1326 1.428 . S
C1332 N1331 1.351 . S
C1332 C1333 1.434 . S
C1333 C1324 1.429 . S
C1333 N1330 1.350 . S
C1333 C1332 1.434 . S
C1334 C1335 1.369 . S
C1334 C1336 1.419 . S
C1334 H1338 0.930 . S
C1335 C1334 1.369 . S
C1335 C1344 1.429 . S
C1336 C1334 1.419 . S
C1336 C1337 1.363 . S
C1336 H1339 0.929 . S
C1337 C1336 1.363 . S
C1337 C1343 1.428 . S
H1338 C1334 0.930 . S
H1339 C1336 0.929 . S
S1340 N1341 1.613 . S
S1340 N1342 1.610 . S
N1341 S1340 1.613 . S
N1341 C1344 1.350 . S
N1342 S1340 1.610 . S
N1342 C1343 1.351 . S
C1343 C1337 1.428 . S
C1343 N1342 1.351 . S
C1343 C1344 1.434 . S
C1344 C1335 1.429 . S
C1344 N1341 1.350 . S
C1344 C1343 1.434 . S
C1345 C1346 1.369 . S
C1345 C1347 1.419 . S
C1345 H1349 0.930 . S
C1346 C1345 1.369 . S
C1346 C1355 1.429 . S
C1347 C1345 1.419 . S
C1347 C1348 1.363 . S
C1347 H1350 0.929 . S
C1348 C1347 1.363 . S
C1348 C1354 1.428 . S
H1349 C1345 0.930 . S
H1350 C1347 0.929 . S
S1351 N1352 1.613 . S
S1351 N1353 1.610 . S
N1352 S1351 1.613 . S
N1352 C1355 1.350 . S
N1353 S1351 1.610 . S
N1353 C1354 1.351 . S
C1354 C1348 1.428 . S
C1354 N1353 1.351 . S
C1354 C1355 1.434 . S
C1355 C1346 1.429 . S
C1355 N1352 1.350 . S
C1355 C1354 1.434 . S
C1356 C1357 1.369 . S
C1356 C1358 1.419 . S
C1356 H1360 0.930 . S
C1357 C1356 1.369 . S
C1357 C1366 1.429 . S
C1358 C1356 1.419 . S
C1358 C1359 1.363 . S
C1358 H1361 0.929 . S
C1359 C1358 1.363 . S
C1359 C1365 1.428 . S
H1360 C1356 0.930 . S
H1361 C1358 0.929 . S
S1362 N1363 1.613 . S
S1362 N1364 1.610 . S
N1363 S1362 1.613 . S
N1363 C1366 1.350 . S
N1364 S1362 1.610 . S
N1364 C1365 1.351 . S
C1365 C1359 1.428 . S
C1365 N1364 1.351 . S
C1365 C1366 1.434 . S
C1366 C1357 1.429 . S
C1366 N1363 1.350 . S
C1366 C1365 1.434 . S
C1367 C1368 1.369 . S
C1367 C1369 1.419 . S
C1367 H1371 0.930 . S
C1368 C1367 1.369 . S
C1368 C1377 1.429 . S
C1369 C1367 1.419 . S
C1369 C1370 1.363 . S
C1369 H1372 0.929 . S
C1370 C1369 1.363 . S
C1370 C1376 1.428 . S
H1371 C1367 0.930 . S
H1372 C1369 0.929 . S
S1373 N1374 1.613 . S
S1373 N1375 1.610 . S
N1374 S1373 1.613 . S
N1374 C1377 1.350 . S
N1375 S1373 1.610 . S
N1375 C1376 1.351 . S
C1376 C1370 1.428 . S
C1376 N1375 1.351 . S
C1376 C1377 1.434 . S
C1377 C1368 1.429 . S
C1377 N1374 1.350 . S
C1377 C1376 1.434 . S
C1378 C1379 1.369 . S
C1378 C1380 1.419 . S
C1378 H1382 0.930 . S
C1379 C1378 1.369 . S
C1379 C1388 1.429 . S
C1380 C1378 1.419 . S
C1380 C1381 1.363 . S
C1380 H1383 0.929 . S
C1381 C1380 1.363 . S
C1381 C1387 1.428 . S
H1382 C1378 0.930 . S
H1383 C1380 0.929 . S
S1384 N1385 1.613 . S
S1384 N1386 1.610 . S
N1385 S1384 1.613 . S
N1385 C1388 1.350 . S
N1386 S1384 1.610 . S
N1386 C1387 1.351 . S
C1387 C1381 1.428 . S
C1387 N1386 1.351 . S
C1387 C1388 1.434 . S
C1388 C1379 1.429 . S
C1388 N1385 1.350 . S
C1388 C1387 1.434 . S
C1389 C1390 1.369 . S
C1389 C1391 1.419 . S
C1389 H1393 0.930 . S
C1390 C1389 1.369 . S
C1390 C1399 1.429 . S
C1391 C1389 1.419 . S
C1391 C1392 1.363 . S
C1391 H1394 0.929 . S
C1392 C1391 1.363 . S
C1392 C1398 1.428 . S
H1393 C1389 0.930 . S
H1394 C1391 0.929 . S
S1395 N1396 1.613 . S
S1395 N1397 1.610 . S
N1396 S1395 1.613 . S
N1396 C1399 1.350 . S
N1397 S1395 1.610 . S
N1397 C1398 1.351 . S
C1398 C1392 1.428 . S
C1398 N1397 1.351 . S
C1398 C1399 1.434 . S
C1399 C1390 1.429 . S
C1399 N1396 1.350 . S
C1399 C1398 1.434 . S
C1400 C1401 1.369 . S
C1400 C1402 1.419 . S
C1400 H1404 0.930 . S
C1401 C1400 1.369 . S
C1401 C1410 1.429 . S
C1402 C1400 1.419 . S
C1402 C1403 1.363 . S
C1402 H1405 0.929 . S
C1403 C1402 1.363 . S
C1403 C1409 1.428 . S
H1404 C1400 0.930 . S
H1405 C1402 0.929 . S
S1406 N1407 1.613 . S
S1406 N1408 1.610 . S
N1407 S1406 1.613 . S
N1407 C1410 1.350 . S
N1408 S1406 1.610 . S
N1408 C1409 1.351 . S
C1409 C1403 1.428 . S
C1409 N1408 1.351 . S
C1409 C1410 1.434 . S
C1410 C1401 1.429 . S
C1410 N1407 1.350 . S
C1410 C1409 1.434 . S
C1411 C1412 1.369 . S
C1411 C1413 1.419 . S
C1411 H1415 0.930 . S
C1412 C1411 1.369 . S
C1412 C1421 1.429 . S
C1413 C1411 1.419 . S
C1413 C1414 1.363 . S
C1413 H1416 0.929 . S
C1414 C1413 1.363 . S
C1414 C1420 1.428 . S
H1415 C1411 0.930 . S
H1416 C1413 0.929 . S
S1417 N1418 1.613 . S
S1417 N1419 1.610 . S
N1418 S1417 1.613 . S
N1418 C1421 1.350 . S
N1419 S1417 1.610 . S
N1419 C1420 1.351 . S
C1420 C1414 1.428 . S
C1420 N1419 1.351 . S
C1420 C1421 1.434 . S
C1421 C1412 1.429 . S
C1421 N1418 1.350 . S
C1421 C1420 1.434 . S
C1422 C1423 1.369 . S
C1422 C1424 1.419 . S
C1422 H1426 0.930 . S
C1423 C1422 1.369 . S
C1423 C1432 1.429 . S
C1424 C1422 1.419 . S
C1424 C1425 1.363 . S
C1424 H1427 0.929 . S
C1425 C1424 1.363 . S
C1425 C1431 1.428 . S
H1426 C1422 0.930 . S
H1427 C1424 0.929 . S
S1428 N1429 1.613 . S
S1428 N1430 1.610 . S
N1429 S1428 1.613 . S
N1429 C1432 1.350 . S
N1430 S1428 1.610 . S
N1430 C1431 1.351 . S
C1431 C1425 1.428 . S
C1431 N1430 1.351 . S
C1431 C1432 1.434 . S
C1432 C1423 1.429 . S
C1432 N1429 1.350 . S
C1432 C1431 1.434 . S
C1433 C1434 1.369 . S
C1433 C1435 1.419 . S
C1433 H1437 0.930 . S
C1434 C1433 1.369 . S
C1434 C1443 1.429 . S
C1435 C1433 1.419 . S
C1435 C1436 1.363 . S
C1435 H1438 0.929 . S
C1436 C1435 1.363 . S
C1436 C1442 1.428 . S
H1437 C1433 0.930 . S
H1438 C1435 0.929 . S
S1439 N1440 1.613 . S
S1439 N1441 1.610 . S
N1440 S1439 1.613 . S
N1440 C1443 1.350 . S
N1441 S1439 1.610 . S
N1441 C1442 1.351 . S
C1442 C1436 1.428 . S
C1442 N1441 1.351 . S
C1442 C1443 1.434 . S
C1443 C1434 1.429 . S
C1443 N1440 1.350 . S
C1443 C1442 1.434 . S
C1444 C1445 1.369 . S
C1444 C1446 1.419 . S
C1444 H1448 0.930 1_455 S
C1445 C1444 1.369 . S
C1445 C1454 1.429 . S
C1446 C1444 1.419 . S
C1446 C1447 1.363 . S
C1446 H1449 0.929 . S
C1447 C1446 1.363 . S
C1447 C1453 1.428 . S
H1448 C1444 0.930 1_655 S
H1449 C1446 0.929 . S
S1450 N1451 1.613 . S
S1450 N1452 1.610 . S
N1451 S1450 1.613 . S
N1451 C1454 1.350 . S
N1452 S1450 1.610 . S
N1452 C1453 1.351 . S
C1453 C1447 1.428 . S
C1453 N1452 1.351 . S
C1453 C1454 1.434 . S
C1454 C1445 1.429 . S
C1454 N1451 1.350 . S
C1454 C1453 1.434 . S
C1455 C1456 1.369 . S
C1455 C1457 1.419 . S
C1455 H1459 0.930 . S
C1456 C1455 1.369 . S
C1456 C1465 1.429 . S
C1457 C1455 1.419 . S
C1457 C1458 1.363 . S
C1457 H1460 0.929 . S
C1458 C1457 1.363 . S
C1458 C1464 1.428 . S
H1459 C1455 0.930 . S
H1460 C1457 0.929 . S
S1461 N1462 1.613 . S
S1461 N1463 1.610 . S
N1462 S1461 1.613 . S
N1462 C1465 1.350 . S
N1463 S1461 1.610 . S
N1463 C1464 1.351 . S
C1464 C1458 1.428 . S
C1464 N1463 1.351 . S
C1464 C1465 1.434 . S
C1465 C1456 1.429 . S
C1465 N1462 1.350 . S
C1465 C1464 1.434 . S
C1466 C1467 1.369 . S
C1466 C1468 1.419 . S
C1466 H1470 0.930 . S
C1467 C1466 1.369 . S
C1467 C1476 1.429 . S
C1468 C1466 1.419 . S
C1468 C1469 1.363 . S
C1468 H1471 0.929 . S
C1469 C1468 1.363 . S
C1469 C1475 1.428 . S
H1470 C1466 0.930 . S
H1471 C1468 0.929 . S
S1472 N1473 1.613 . S
S1472 N1474 1.610 . S
N1473 S1472 1.613 . S
N1473 C1476 1.350 . S
N1474 S1472 1.610 . S
N1474 C1475 1.351 . S
C1475 C1469 1.428 . S
C1475 N1474 1.351 . S
C1475 C1476 1.434 . S
C1476 C1467 1.429 . S
C1476 N1473 1.350 . S
C1476 C1475 1.434 . S
C1477 C1478 1.369 . S
C1477 C1479 1.419 . S
C1477 H1481 0.930 . S
C1478 C1477 1.369 . S
C1478 C1487 1.429 1_655 S
C1479 C1477 1.419 . S
C1479 C1480 1.363 . S
C1479 H1482 0.929 . S
C1480 C1479 1.363 . S
C1480 C1486 1.428 . S
H1481 C1477 0.930 . S
H1482 C1479 0.929 . S
S1483 N1484 1.613 . S
S1483 N1485 1.610 . S
N1484 S1483 1.613 . S
N1484 C1487 1.350 . S
N1485 S1483 1.610 . S
N1485 C1486 1.351 1_455 S
C1486 C1480 1.428 . S
C1486 N1485 1.351 1_655 S
C1486 C1487 1.434 1_655 S
C1487 C1478 1.429 1_455 S
C1487 N1484 1.350 . S
C1487 C1486 1.434 1_455 S
C1488 C1489 1.369 . S
C1488 C1490 1.419 . S
C1488 H1492 0.930 . S
C1489 C1488 1.369 . S
C1489 C1498 1.429 . S
C1490 C1488 1.419 . S
C1490 C1491 1.363 . S
C1490 H1493 0.929 . S
C1491 C1490 1.363 . S
C1491 C1497 1.428 . S
H1492 C1488 0.930 . S
H1493 C1490 0.929 . S
S1494 N1495 1.613 . S
S1494 N1496 1.610 . S
N1495 S1494 1.613 . S
N1495 C1498 1.350 . S
N1496 S1494 1.610 . S
N1496 C1497 1.351 . S
C1497 C1491 1.428 . S
C1497 N1496 1.351 . S
C1497 C1498 1.434 . S
C1498 C1489 1.429 . S
C1498 N1495 1.350 . S
C1498 C1497 1.434 . S
C1499 C1500 1.369 . S
C1499 C1501 1.419 . S
C1499 H1503 0.930 1_545 S
C1500 C1499 1.369 . S
C1500 C1509 1.429 . S
C1501 C1499 1.419 . S
C1501 C1502 1.363 . S
C1501 H1504 0.929 . S
C1502 C1501 1.363 . S
C1502 C1508 1.428 . S
H1503 C1499 0.930 1_565 S
H1504 C1501 0.929 . S
S1505 N1506 1.613 . S
S1505 N1507 1.610 . S
N1506 S1505 1.613 . S
N1506 C1509 1.350 . S
N1507 S1505 1.610 . S
N1507 C1508 1.351 . S
C1508 C1502 1.428 . S
C1508 N1507 1.351 . S
C1508 C1509 1.434 . S
C1509 C1500 1.429 . S
C1509 N1506 1.350 . S
C1509 C1508 1.434 . S
C1510 C1511 1.369 1_455 S
C1510 C1512 1.419 1_455 S
C1510 H1514 0.930 . S
C1511 C1510 1.369 1_655 S
C1511 C1520 1.429 . S
C1512 C1510 1.419 1_655 S
C1512 C1513 1.363 . S
C1512 H1515 0.929 . S
C1513 C1512 1.363 . S
C1513 C1519 1.428 . S
H1514 C1510 0.930 . S
H1515 C1512 0.929 . S
S1516 N1517 1.613 . S
S1516 N1518 1.610 . S
N1517 S1516 1.613 . S
N1517 C1520 1.350 . S
N1518 S1516 1.610 . S
N1518 C1519 1.351 . S
C1519 C1513 1.428 . S
C1519 N1518 1.351 . S
C1519 C1520 1.434 . S
C1520 C1511 1.429 . S
C1520 N1517 1.350 . S
C1520 C1519 1.434 . S
C1521 C1522 1.369 . S
C1521 C1523 1.419 . S
C1521 H1525 0.930 . S
C1522 C1521 1.369 . S
C1522 C1531 1.429 . S
C1523 C1521 1.419 . S
C1523 C1524 1.363 . S
C1523 H1526 0.929 . S
C1524 C1523 1.363 . S
C1524 C1530 1.428 . S
H1525 C1521 0.930 . S
H1526 C1523 0.929 . S
S1527 N1528 1.613 . S
S1527 N1529 1.610 . S
N1528 S1527 1.613 . S
N1528 C1531 1.350 . S
N1529 S1527 1.610 . S
N1529 C1530 1.351 . S
C1530 C1524 1.428 . S
C1530 N1529 1.351 . S
C1530 C1531 1.434 . S
C1531 C1522 1.429 . S
C1531 N1528 1.350 . S
C1531 C1530 1.434 . S
C1532 C1533 1.369 . S
C1532 C1534 1.419 . S
C1532 H1536 0.930 . S
C1533 C1532 1.369 . S
C1533 C1542 1.429 . S
C1534 C1532 1.419 . S
C1534 C1535 1.363 . S
C1534 H1537 0.929 . S
C1535 C1534 1.363 . S
C1535 C1541 1.428 . S
H1536 C1532 0.930 . S
H1537 C1534 0.929 . S
S1538 N1539 1.597 1_565 S
S1538 N1540 1.610 . S
N1539 S1538 1.597 1_545 S
N1539 C1542 1.333 1_545 S
N1540 S1538 1.610 . S
N1540 C1541 1.351 . S
C1541 C1535 1.428 . S
C1541 N1540 1.351 . S
C1541 C1542 1.434 . S
C1542 C1533 1.429 . S
C1542 N1539 1.333 1_565 S
C1542 C1541 1.434 . S
C1543 C1544 1.369 . S
C1543 C1545 1.419 . S
C1543 H1547 0.930 . S
C1544 C1543 1.369 . S
C1544 C1553 1.429 . S
C1545 C1543 1.419 . S
C1545 C1546 1.363 . S
C1545 H1548 0.929 . S
C1546 C1545 1.363 . S
C1546 C1552 1.428 . S
H1547 C1543 0.930 . S
H1548 C1545 0.929 . S
S1549 N1550 1.613 . S
S1549 N1551 1.610 . S
N1550 S1549 1.613 . S
N1550 C1553 1.350 . S
N1551 S1549 1.610 . S
N1551 C1552 1.351 . S
C1552 C1546 1.428 . S
C1552 N1551 1.351 . S
C1552 C1553 1.434 . S
C1553 C1544 1.429 . S
C1553 N1550 1.350 . S
C1553 C1552 1.434 . S
C1554 C1555 1.369 . S
C1554 C1556 1.419 . S
C1554 H1558 0.930 . S
C1555 C1554 1.369 . S
C1555 C1564 1.429 . S
C1556 C1554 1.419 . S
C1556 C1557 1.363 1_655 S
C1556 H1559 0.929 1_655 S
C1557 C1556 1.363 1_455 S
C1557 C1563 1.428 1_455 S
H1558 C1554 0.930 . S
H1559 C1556 0.929 1_455 S
S1560 N1561 1.613 . S
S1560 N1562 1.610 1_655 S
N1561 S1560 1.613 . S
N1561 C1564 1.350 . S
N1562 S1560 1.610 1_455 S
N1562 C1563 1.351 1_455 S
C1563 C1557 1.428 1_655 S
C1563 N1562 1.351 1_655 S
C1563 C1564 1.434 . S
C1564 C1555 1.429 . S
C1564 N1561 1.350 . S
C1564 C1563 1.434 . S
C1565 C1566 1.369 . S
C1565 C1567 1.419 . S
C1565 H1569 0.930 . S
C1566 C1565 1.369 . S
C1566 C1575 1.429 . S
C1567 C1565 1.419 . S
C1567 C1568 1.363 . S
C1567 H1570 0.929 . S
C1568 C1567 1.363 . S
C1568 C1574 1.428 . S
H1569 C1565 0.930 . S
H1570 C1567 0.929 . S
S1571 N1572 1.613 . S
S1571 N1573 1.610 . S
N1572 S1571 1.613 . S
N1572 C1575 1.350 . S
N1573 S1571 1.610 . S
N1573 C1574 1.351 . S
C1574 C1568 1.428 . S
C1574 N1573 1.351 . S
C1574 C1575 1.434 . S
C1575 C1566 1.429 . S
C1575 N1572 1.350 . S
C1575 C1574 1.434 . S
C1576 C1577 1.369 . S
C1576 C1578 1.419 1_565 S
C1576 H1580 0.930 . S
C1577 C1576 1.369 . S
C1577 C1586 1.429 . S
C1578 C1576 1.419 1_545 S
C1578 C1579 1.363 . S
C1578 H1581 0.929 . S
C1579 C1578 1.363 . S
C1579 C1585 1.428 . S
H1580 C1576 0.930 . S
H1581 C1578 0.929 . S
S1582 N1583 1.613 . S
S1582 N1584 1.610 1_565 S
N1583 S1582 1.613 . S
N1583 C1586 1.350 . S
N1584 S1582 1.610 1_545 S
N1584 C1585 1.351 . S
C1585 C1579 1.428 . S
C1585 N1584 1.351 . S
C1585 C1586 1.434 1_545 S
C1586 C1577 1.429 . S
C1586 N1583 1.350 . S
C1586 C1585 1.434 1_565 S
C1587 C1588 1.369 . S
C1587 C1589 1.419 1_565 S
C1587 H1591 0.930 . S
C1588 C1587 1.369 . S
C1588 C1597 1.429 . S
C1589 C1587 1.419 1_545 S
C1589 C1590 1.363 . S
C1589 H1592 0.929 . S
C1590 C1589 1.363 . S
C1590 C1596 1.428 . S
H1591 C1587 0.930 . S
H1592 C1589 0.929 . S
S1593 N1594 1.613 1_545 S
S1593 N1595 1.610 . S
N1594 S1593 1.613 1_565 S
N1594 C1597 1.350 . S
N1595 S1593 1.610 . S
N1595 C1596 1.351 . S
C1596 C1590 1.428 . S
C1596 N1595 1.351 . S
C1596 C1597 1.434 1_545 S
C1597 C1588 1.429 . S
C1597 N1594 1.350 . S
C1597 C1596 1.434 1_565 S
C1598 C1599 1.369 . S
C1598 C1600 1.419 1_655 S
C1598 H1602 0.930 . S
C1599 C1598 1.369 . S
C1599 C1608 1.429 . S
C1600 C1598 1.419 1_455 S
C1600 C1601 1.363 . S
C1600 H1603 0.929 . S
C1601 C1600 1.363 . S
C1601 C1607 1.428 . S
H1602 C1598 0.930 . S
H1603 C1600 0.929 . S
S1604 N1605 1.613 1_455 S
S1604 N1606 1.610 . S
N1605 S1604 1.613 1_655 S
N1605 C1608 1.350 . S
N1606 S1604 1.610 . S
N1606 C1607 1.351 . S
C1607 C1601 1.428 . S
C1607 N1606 1.351 . S
C1607 C1608 1.434 1_455 S
C1608 C1599 1.429 . S
C1608 N1605 1.350 . S
C1608 C1607 1.434 1_655 S
C1609 C1610 1.369 . S
C1609 C1611 1.419 . S
C1609 H1613 0.930 . S
C1610 C1609 1.369 . S
C1610 C1619 1.429 . S
C1611 C1609 1.419 . S
C1611 C1612 1.363 . S
C1611 H1614 0.929 . S
C1612 C1611 1.363 . S
C1612 C1618 1.428 . S
H1613 C1609 0.930 . S
H1614 C1611 0.929 . S
S1615 N1616 1.613 . S
S1615 N1617 1.610 . S
N1616 S1615 1.613 . S
N1616 C1619 1.350 . S
N1617 S1615 1.610 . S
N1617 C1618 1.351 . S
C1618 C1612 1.428 . S
C1618 N1617 1.351 . S
C1618 C1619 1.434 . S
C1619 C1610 1.429 . S
C1619 N1616 1.350 . S
C1619 C1618 1.434 . S
C829 N2 1.418 . S
C831 N416 1.412 . S
C840 C30 1.435 . S
C842 N439 1.403 . S
C851 N462 1.385 . S
C853 N48 1.393 . S
C862 N71 1.385 . S
C864 N761 1.393 . S
C873 N784 1.406 . S
C875 C99 1.434 . S
C884 N117 1.410 . S
C886 N807 1.418 . S
C895 N554 1.411 . S
C897 N140 1.418 . S
C906 N163 1.399 . S
C908 C582 1.434 . S
C917 N186 1.385 . S
C919 N600 1.393 . S
C928 N209 1.386 . S
C930 N347 1.393 . S
C939 C375 1.435 . S
C941 N232 1.405 . S
C950 N255 1.413 . S
C952 N393 1.416 . S
C961 N278 1.410 . S
C963 N692 1.418 . S
C972 C306 1.434 . S
C974 N715 1.399 . S
C983 N324 1.391 . S
C985 N738 1.389 . S
C994 N485 1.386 . S
C996 N623 1.393 . S
C1005 N508 1.399 . S
C1007 C651 1.434 . S
C1016 N531 1.416 . S
C1018 N669 1.413 . S
C1027 N173 1.451 . S
C1029 C16 1.474 . S
C1038 N196 1.502 . S
C1040 N35 1.570 . S
C1049 C62 1.582 . S
C1051 N150 1.559 . S
C1060 N265 1.558 . S
C1062 C85 1.585 . S
C1071 N219 1.497 . S
C1073 N104 1.567 . S
C1082 N242 1.452 . S
C1084 C131 1.472 . S
C1093 C154 1.634 . S
C1095 C39 1.678 . S
C1104 C177 1.597 . S
C1106 N58 1.603 1_556 S
C1115 C200 1.629 . S
C1117 N12 1.614 . S
C1126 C223 1.625 . S
C1128 N127 1.619 . S
C1137 N81 1.608 . S
C1139 C246 1.590 . S
C1148 C108 1.677 . S
C1150 C269 1.636 . S
C1159 C292 1.479 . S
C1161 N449 1.444 . S
C1170 N311 1.571 . S
C1172 N472 1.494 . S
C1181 C338 1.589 . S
C1183 N426 1.551 . S
C1192 N541 1.557 . S
C1194 C361 1.584 . S
C1203 N380 1.570 . S
C1205 N495 1.494 . S
C1214 N518 1.444 . S
C1216 C407 1.476 . S
C1225 C430 1.635 . S
C1227 C315 1.678 . S
C1236 N334 1.609 . S
C1238 C453 1.590 . S
C1247 N288 1.618 . S
C1249 C476 1.627 . S
C1258 C499 1.629 . S
C1260 N403 1.615 . S
C1269 C522 1.592 . S
C1271 N357 1.604 . S
C1280 C545 1.639 . S
C1282 C384 1.680 . S
C1291 N725 1.449 . S
C1293 C568 1.475 . S
C1302 N587 1.568 . S
C1304 N748 1.496 . S
C1313 C614 1.589 . S
C1315 N702 1.551 . S
C1324 N817 1.559 . S
C1326 C637 1.583 . S
C1335 N771 1.496 . S
C1337 N656 1.571 . S
C1346 N794 1.444 . S
C1348 C683 1.476 . S
C1357 C591 1.679 . S
C1359 C706 1.634 . S
C1368 N610 1.610 . S
C1370 C729 1.590 . S
C1379 N564 1.620 . S
C1381 C752 1.624 . S
C1390 C775 1.629 . S
C1392 N679 1.615 . S
C1401 N633 1.602 . S
C1403 C798 1.595 . S
C1412 C821 1.641 . S
C1414 C660 1.679 . S
C1423 C7 1.444 . S
C1425 C674 1.443 . S
C1434 C628 1.569 . S
C1436 N25 1.443 . S
C1445 C53 1.571 1_455 S
C1447 N646 1.450 . S
C1456 C76 1.569 . S
C1458 N301 1.445 . S
C1467 C329 1.572 . S
C1469 N94 1.440 . S
C1478 C122 1.443 1_655 S
C1480 C283 1.443 . S
C1489 C536 1.834 . S
C1491 C145 1.836 . S
C1500 C168 1.865 1_545 S
C1502 C490 1.879 . S
C1511 C191 1.879 1_655 S
C1513 C513 1.865 . S
C1522 C214 1.876 . S
C1524 C720 1.863 . S
C1533 C237 1.863 1_565 S
C1535 C743 1.879 . S
C1544 C697 1.835 . S
C1546 C260 1.837 1_455 S
C1555 C352 1.569 . S
C1557 N577 1.442 . S
C1566 C605 1.572 . S
C1568 N370 1.440 . S
C1577 C559 1.446 . S
C1579 C398 1.445 . S
C1588 C812 1.838 . S
C1590 C421 1.835 . S
C1599 C444 1.868 . S
C1601 C766 1.877 . S
C1610 C467 1.879 . S
C1612 C789 1.866 . S
