# Generated by pormake.
# Topology ume, (4)-cn, num edge types: 1
# Building blocks:
#     Node 0, Type 0, BuildingBlock: GALJAG_clean_sbu_0, # of connection points: 4
#     Node 1, Type 0, BuildingBlock: GALJAG_clean_sbu_0, # of connection points: 4
#     Node 2, Type 0, BuildingBlock: GALJAG_clean_sbu_0, # of connection points: 4
#     Node 3, Type 0, BuildingBlock: GALJAG_clean_sbu_0, # of connection points: 4
#     Node 4, Type 0, BuildingBlock: GALJAG_clean_sbu_0, # of connection points: 4
#     Node 5, Type 0, BuildingBlock: GALJAG_clean_sbu_0, # of connection points: 4
#     Node 6, Type 0, BuildingBlock: GALJAG_clean_sbu_0, # of connection points: 4
#     Node 7, Type 0, BuildingBlock: GALJAG_clean_sbu_0, # of connection points: 4
#     Node 8, Type 0, BuildingBlock: GALJAG_clean_sbu_0, # of connection points: 4
#     Node 9, Type 0, BuildingBlock: GALJAG_clean_sbu_0, # of connection points: 4
#     Node 10, Type 0, BuildingBlock: GALJAG_clean_sbu_0, # of connection points: 4
#     Node 11, Type 0, BuildingBlock: GALJAG_clean_sbu_0, # of connection points: 4
#     Node 12, Type 0, BuildingBlock: GALJAG_clean_sbu_0, # of connection points: 4
#     Node 13, Type 0, BuildingBlock: GALJAG_clean_sbu_0, # of connection points: 4
#     Node 14, Type 0, BuildingBlock: GALJAG_clean_sbu_0, # of connection points: 4
#     Node 15, Type 0, BuildingBlock: GALJAG_clean_sbu_0, # of connection points: 4
#     Edge 16, Type (0, 0), BuildingBlock: EZIPEK_clean_linker_0, # of connection points: 2
#     Edge 17, Type (0, 0), BuildingBlock: EZIPEK_clean_linker_0, # of connection points: 2
#     Edge 18, Type (0, 0), BuildingBlock: EZIPEK_clean_linker_0, # of connection points: 2
#     Edge 19, Type (0, 0), BuildingBlock: EZIPEK_clean_linker_0, # of connection points: 2
#     Edge 20, Type (0, 0), BuildingBlock: EZIPEK_clean_linker_0, # of connection points: 2
#     Edge 21, Type (0, 0), BuildingBlock: EZIPEK_clean_linker_0, # of connection points: 2
#     Edge 22, Type (0, 0), BuildingBlock: EZIPEK_clean_linker_0, # of connection points: 2
#     Edge 23, Type (0, 0), BuildingBlock: EZIPEK_clean_linker_0, # of connection points: 2
#     Edge 24, Type (0, 0), BuildingBlock: EZIPEK_clean_linker_0, # of connection points: 2
#     Edge 25, Type (0, 0), BuildingBlock: EZIPEK_clean_linker_0, # of connection points: 2
#     Edge 26, Type (0, 0), BuildingBlock: EZIPEK_clean_linker_0, # of connection points: 2
#     Edge 27, Type (0, 0), BuildingBlock: EZIPEK_clean_linker_0, # of connection points: 2
#     Edge 28, Type (0, 0), BuildingBlock: EZIPEK_clean_linker_0, # of connection points: 2
#     Edge 29, Type (0, 0), BuildingBlock: EZIPEK_clean_linker_0, # of connection points: 2
#     Edge 30, Type (0, 0), BuildingBlock: EZIPEK_clean_linker_0, # of connection points: 2
#     Edge 31, Type (0, 0), BuildingBlock: EZIPEK_clean_linker_0, # of connection points: 2
#     Edge 32, Type (0, 0), BuildingBlock: EZIPEK_clean_linker_0, # of connection points: 2
#     Edge 33, Type (0, 0), BuildingBlock: EZIPEK_clean_linker_0, # of connection points: 2
#     Edge 34, Type (0, 0), BuildingBlock: EZIPEK_clean_linker_0, # of connection points: 2
#     Edge 35, Type (0, 0), BuildingBlock: EZIPEK_clean_linker_0, # of connection points: 2
#     Edge 36, Type (0, 0), BuildingBlock: EZIPEK_clean_linker_0, # of connection points: 2
#     Edge 37, Type (0, 0), BuildingBlock: EZIPEK_clean_linker_0, # of connection points: 2
#     Edge 38, Type (0, 0), BuildingBlock: EZIPEK_clean_linker_0, # of connection points: 2
#     Edge 39, Type (0, 0), BuildingBlock: EZIPEK_clean_linker_0, # of connection points: 2
#     Edge 40, Type (0, 0), BuildingBlock: EZIPEK_clean_linker_0, # of connection points: 2
#     Edge 41, Type (0, 0), BuildingBlock: EZIPEK_clean_linker_0, # of connection points: 2
#     Edge 42, Type (0, 0), BuildingBlock: EZIPEK_clean_linker_0, # of connection points: 2
#     Edge 43, Type (0, 0), BuildingBlock: EZIPEK_clean_linker_0, # of connection points: 2
#     Edge 44, Type (0, 0), BuildingBlock: EZIPEK_clean_linker_0, # of connection points: 2
#     Edge 45, Type (0, 0), BuildingBlock: EZIPEK_clean_linker_0, # of connection points: 2
#     Edge 46, Type (0, 0), BuildingBlock: EZIPEK_clean_linker_0, # of connection points: 2
#     Edge 47, Type (0, 0), BuildingBlock: EZIPEK_clean_linker_0, # of connection points: 2
# Relax obj value: 0.060
# Max RMSD: 0.125
# Mean RMSD: 0.125
data_MOF--net-ume--node1-GALJAG_clean_sbu_0--edge1-EZIPEK_clean_linker_0
_symmetry_space_group_name_H-M    P1
_symmetry_Int_Tables_number       1
_symmetry_cell_setting            triclinic
loop_
_symmetry_equiv_pos_as_xyz
'x, y, z'
_cell_length_a     20.511617
_cell_length_b     20.519349
_cell_length_c     82.954806
_cell_angle_alpha  90.006081
_cell_angle_beta   90.012447
_cell_angle_gamma 89.962546
loop_
_atom_site_label
_atom_site_type_symbol
_atom_site_fract_x
_atom_site_fract_y
_atom_site_fract_z
_atom_type_partial_charge
In0 In 0.24764 0.11345 0.31152 0.0
O1 O 0.2385 0.1953 0.33035 0.0
O2 O 0.24546 0.09614 0.3382 0.0
C3 C 0.26403 0.16215 0.28182 0.0
C4 C 0.1253 0.06822 0.3094 0.0
C5 C 0.36708 0.05955 0.312 0.0
O6 O 0.27347 0.19686 0.29427 0.0
O7 O 0.24283 0.10552 0.2845 0.0
O8 O 0.31667 0.02631 0.30877 0.0
O9 O 0.35666 0.11856 0.31535 0.0
C10 C 0.24125 0.15546 0.34204 0.0
O11 O 0.17336 0.03121 0.31237 0.0
O12 O 0.13926 0.1277 0.30742 0.0
In13 In 0.8901 0.75883 0.55508 0.0
O14 O 0.816 0.76201 0.5759 0.0
O15 O 0.91681 0.75111 0.58138 0.0
C16 C 0.81802 0.75226 0.52823 0.0
C17 C 0.95476 0.64529 0.552 0.0
C18 C 0.93005 0.8846 0.55337 0.0
O19 O 0.79248 0.74623 0.54205 0.0
O20 O 0.87918 0.75924 0.52809 0.0
O21 O 0.96969 0.83761 0.55457 0.0
O22 O 0.87105 0.86796 0.55256 0.0
C23 C 0.85949 0.7565 0.58662 0.0
O24 O 0.98322 0.69976 0.55075 0.0
O25 O 0.8941 0.64813 0.55449 0.0
In26 In 0.25629 0.38992 0.80845 0.0
O27 O 0.3297 0.47388 0.80953 0.0
O28 O 0.36433 0.38025 0.80264 0.0
C29 C 0.13781 0.44673 0.80847 0.0
C30 C 0.26074 0.34837 0.83915 0.0
C31 C 0.24681 0.32793 0.78014 0.0
O32 O 0.18922 0.4784 0.80534 0.0
O33 O 0.14628 0.38712 0.81157 0.0
O34 O 0.25941 0.29749 0.79306 0.0
O35 O 0.23952 0.38872 0.78166 0.0
C36 C 0.37796 0.43893 0.80558 0.0
O37 O 0.25153 0.30887 0.82766 0.0
O38 O 0.26898 0.40688 0.83505 0.0
In39 In 0.60137 0.75286 0.05629 0.0
O40 O 0.67767 0.74148 0.07632 0.0
O41 O 0.57902 0.76186 0.08275 0.0
C42 C 0.66575 0.74908 0.02824 0.0
C43 C 0.55052 0.87314 0.05445 0.0
C44 C 0.55081 0.63113 0.05584 0.0
O45 O 0.69565 0.7549 0.04152 0.0
O46 O 0.60441 0.74708 0.0292 0.0
O47 O 0.51492 0.68136 0.05639 0.0
O48 O 0.61098 0.64282 0.05523 0.0
C49 C 0.63628 0.75012 0.08743 0.0
O50 O 0.51629 0.82265 0.05215 0.0
O51 O 0.61014 0.86297 0.05733 0.0
In52 In 0.24917 0.39644 0.93784 0.0
O53 O 0.25568 0.31459 0.91898 0.0
O54 O 0.24974 0.41351 0.91108 0.0
C55 C 0.24508 0.33864 0.96684 0.0
C56 C 0.13096 0.45338 0.93823 0.0
C57 C 0.37329 0.44044 0.93893 0.0
O58 O 0.23334 0.3074 0.95398 0.0
O59 O 0.25635 0.39864 0.96494 0.0
O60 O 0.32529 0.47791 0.9363 0.0
O61 O 0.35826 0.38161 0.94129 0.0
C62 C 0.25375 0.35419 0.90728 0.0
O63 O 0.18261 0.48541 0.9409 0.0
O64 O 0.13911 0.39342 0.93557 0.0
In65 In 0.60598 0.73918 0.18675 0.0
O66 O 0.68542 0.73581 0.16713 0.0
O67 O 0.58491 0.7364 0.16035 0.0
C68 C 0.66091 0.76123 0.21543 0.0
C69 C 0.5654 0.61497 0.18956 0.0
C70 C 0.54483 0.85469 0.18594 0.0
O71 O 0.69499 0.75886 0.20269 0.0
O72 O 0.60074 0.75062 0.2136 0.0
O73 O 0.51411 0.80192 0.18819 0.0
O74 O 0.60557 0.84874 0.18398 0.0
C75 C 0.64357 0.73581 0.15588 0.0
O76 O 0.52654 0.66169 0.18696 0.0
O77 O 0.62435 0.63124 0.19127 0.0
In78 In 0.26745 0.09873 0.43965 0.0
O79 O 0.26821 0.18399 0.42168 0.0
O80 O 0.25614 0.08689 0.41285 0.0
C81 C 0.25842 0.15384 0.46898 0.0
C82 C 0.39083 0.05498 0.43846 0.0
C83 C 0.15394 0.03243 0.44149 0.0
O84 O 0.23736 0.18204 0.45647 0.0
O85 O 0.28743 0.10074 0.46645 0.0
O86 O 0.2084 0.00492 0.44377 0.0
O87 O 0.15715 0.09237 0.43833 0.0
C88 C 0.25996 0.14686 0.40966 0.0
O89 O 0.34244 0.01674 0.4388 0.0
O90 O 0.37706 0.11502 0.43853 0.0
In91 In 0.89382 0.76042 0.68684 0.0
O92 O 0.81818 0.7583 0.6664 0.0
O93 O 0.91932 0.76397 0.66048 0.0
C94 C 0.83073 0.74521 0.71468 0.0
C95 C 0.93168 0.88538 0.69011 0.0
C96 C 0.95461 0.64478 0.68869 0.0
O97 O 0.80019 0.74824 0.7014 0.0
O98 O 0.89182 0.75154 0.71376 0.0
O99 O 0.98483 0.69797 0.6907 0.0
O100 O 0.89468 0.65014 0.68549 0.0
C101 C 0.86133 0.76106 0.65551 0.0
O102 O 0.972 0.83953 0.68789 0.0
O103 O 0.87284 0.86795 0.69096 0.0
In104 In 0.75634 0.60674 0.80732 0.0
O105 O 0.75742 0.69051 0.82563 0.0
O106 O 0.74983 0.59263 0.83421 0.0
C107 C 0.76214 0.66459 0.77831 0.0
C108 C 0.63725 0.5518 0.80527 0.0
C109 C 0.87695 0.55511 0.80824 0.0
O110 O 0.74824 0.69623 0.79094 0.0
O111 O 0.77187 0.60454 0.7804 0.0
O112 O 0.82641 0.51998 0.80731 0.0
O113 O 0.86672 0.61573 0.80884 0.0
C114 C 0.75294 0.65246 0.83758 0.0
O115 O 0.68913 0.51857 0.80456 0.0
O116 O 0.64551 0.61228 0.80696 0.0
In117 In 0.38513 0.25166 0.05765 0.0
O118 O 0.30728 0.24658 0.07749 0.0
O119 O 0.40761 0.25017 0.08431 0.0
C120 C 0.31565 0.26075 0.03027 0.0
C121 C 0.44069 0.13287 0.05554 0.0
C122 C 0.44028 0.37075 0.05639 0.0
O123 O 0.28818 0.25845 0.0439 0.0
O124 O 0.37688 0.25615 0.03055 0.0
O125 O 0.47081 0.31962 0.05249 0.0
O126 O 0.38236 0.36186 0.06098 0.0
C127 C 0.34889 0.24772 0.08874 0.0
O128 O 0.47398 0.18458 0.05611 0.0
O129 O 0.37972 0.14089 0.05585 0.0
In130 In 0.74859 0.90038 0.30817 0.0
O131 O 0.75879 0.81598 0.32619 0.0
O132 O 0.75308 0.91385 0.33493 0.0
C133 C 0.73734 0.84777 0.27876 0.0
C134 C 0.8669 0.95559 0.3065 0.0
C135 C 0.62856 0.95273 0.30998 0.0
O136 O 0.73686 0.81274 0.29132 0.0
O137 O 0.74559 0.90791 0.28113 0.0
O138 O 0.6794 0.98741 0.30922 0.0
O139 O 0.63833 0.89203 0.30988 0.0
C140 C 0.75831 0.85414 0.33818 0.0
O141 O 0.81496 0.98883 0.30655 0.0
O142 O 0.85917 0.89456 0.30693 0.0
In143 In 0.09995 0.25986 0.55758 0.0
O144 O 0.022 0.33944 0.55585 0.0
O145 O 0.12127 0.36768 0.55342 0.0
C146 C 0.03512 0.14604 0.55516 0.0
C147 C 0.12983 0.26071 0.58917 0.0
C148 C 0.17174 0.2406 0.53113 0.0
O149 O 0.00695 0.20026 0.55303 0.0
O150 O 0.09487 0.14939 0.5586 0.0
O151 O 0.1971 0.24017 0.54504 0.0
O152 O 0.11135 0.25218 0.53064 0.0
C153 C 0.06241 0.38531 0.55394 0.0
O154 O 0.17374 0.26064 0.57847 0.0
O155 O 0.07221 0.26077 0.58391 0.0
In156 In 0.76754 0.88653 0.43729 0.0
O157 O 0.70515 0.97838 0.44053 0.0
O158 O 0.65744 0.88836 0.43528 0.0
C159 C 0.89318 0.92488 0.43996 0.0
C160 C 0.77037 0.85153 0.40614 0.0
C161 C 0.75524 0.82154 0.46511 0.0
O162 O 0.84661 0.9652 0.4388 0.0
O163 O 0.87613 0.86583 0.44009 0.0
O164 O 0.74718 0.79356 0.45165 0.0
O165 O 0.76754 0.88173 0.46435 0.0
C166 C 0.65203 0.94858 0.43805 0.0
O167 O 0.77274 0.80946 0.41729 0.0
O168 O 0.76704 0.90995 0.41077 0.0
In169 In 0.10258 0.25861 0.68981 0.0
O170 O 0.17605 0.26322 0.66883 0.0
O171 O 0.07551 0.24868 0.66359 0.0
C172 C 0.17287 0.25553 0.71701 0.0
C173 C 0.03944 0.1447 0.69288 0.0
C174 C 0.06064 0.38347 0.69079 0.0
O175 O 0.19934 0.24776 0.70335 0.0
O176 O 0.11168 0.26217 0.71684 0.0
O177 O 0.02168 0.33577 0.69023 0.0
O178 O 0.12002 0.36798 0.69145 0.0
C179 C 0.13237 0.25605 0.65821 0.0
O180 O 0.01029 0.19887 0.69404 0.0
O181 O 0.10021 0.14799 0.69058 0.0
In182 In 0.74965 0.61245 0.93559 0.0
O183 O 0.75878 0.69528 0.91707 0.0
O184 O 0.73919 0.5986 0.90884 0.0
C185 C 0.74399 0.66945 0.96477 0.0
C186 C 0.87021 0.56156 0.93563 0.0
C187 C 0.63333 0.55162 0.93773 0.0
O188 O 0.72012 0.69639 0.95239 0.0
O189 O 0.77408 0.61708 0.96209 0.0
O190 O 0.68667 0.52066 0.93833 0.0
O191 O 0.63888 0.61236 0.93599 0.0
C192 C 0.74898 0.65743 0.90526 0.0
O193 O 0.81966 0.52626 0.93646 0.0
O194 O 0.85985 0.62218 0.93463 0.0
In195 In 0.39589 0.23969 0.18746 0.0
O196 O 0.3148 0.25469 0.16869 0.0
O197 O 0.41211 0.23482 0.16074 0.0
C198 C 0.34548 0.2332 0.21729 0.0
C199 C 0.45435 0.35609 0.18849 0.0
C200 C 0.44 0.11632 0.18706 0.0
O201 O 0.3106 0.22353 0.20491 0.0
O202 O 0.40345 0.24987 0.21447 0.0
O203 O 0.47801 0.16441 0.18885 0.0
O204 O 0.38062 0.13066 0.1854 0.0
C205 C 0.35356 0.24578 0.15698 0.0
O206 O 0.48642 0.3033 0.18846 0.0
O207 O 0.39302 0.35005 0.18785 0.0
C208 C 0.94798 0.03126 0.31906 0.0
C209 C 0.9323 0.98604 0.30674 0.0
C210 C 0.04359 0.99436 0.29608 0.0
C211 C 0.05774 0.04301 0.30778 0.0
N212 N 0.01744 0.11951 0.32766 0.0
N213 N 0.96042 0.93354 0.28169 0.0
C214 C 0.00804 0.06538 0.31836 0.0
C215 C 0.97888 0.96978 0.29475 0.0
N216 N 0.90726 0.039 0.33198 0.0
N217 N 0.0917 0.97224 0.28606 0.0
H218 H 0.91313 0.91598 0.28011 0.0
H219 H 0.99005 0.92568 0.27169 0.0
H220 H 0.13783 0.9934 0.28543 0.0
H221 H 0.08682 0.93105 0.27883 0.0
H222 H 0.91989 0.06569 0.3422 0.0
H223 H 0.86377 0.01328 0.33333 0.0
H224 H 0.98024 0.14142 0.33428 0.0
H225 H 0.06014 0.14673 0.32756 0.0
C226 C 0.97727 0.53857 0.53848 0.0
C227 C 0.9898 0.58216 0.55135 0.0
C228 C 0.06266 0.50172 0.56376 0.0
C229 C 0.0419 0.45455 0.55227 0.0
N230 N 0.97956 0.42751 0.5285 0.0
N231 N 0.03935 0.6042 0.57713 0.0
C232 C 0.99907 0.47283 0.53958 0.0
C233 C 0.03171 0.56378 0.56415 0.0
N234 N 0.94699 0.56109 0.5249 0.0
N235 N 0.11201 0.48773 0.57428 0.0
H236 H 0.0183 0.65039 0.57781 0.0
H237 H 0.06234 0.59013 0.58777 0.0
H238 H 0.13572 0.44296 0.57468 0.0
H239 H 0.13373 0.52253 0.58167 0.0
H240 H 0.9411 0.53373 0.51444 0.0
H241 H 0.93371 0.60985 0.52355 0.0
H242 H 0.94212 0.43546 0.52026 0.0
H243 H 0.99903 0.3806 0.52794 0.0
C244 C 0.52383 0.5443 0.79371 0.0
C245 C 0.57134 0.52194 0.8049 0.0
C246 C 0.4957 0.43788 0.81437 0.0
C247 C 0.44555 0.46492 0.80457 0.0
N248 N 0.41069 0.5455 0.78519 0.0
N249 N 0.59732 0.45738 0.82835 0.0
C250 C 0.45923 0.51891 0.79439 0.0
C251 C 0.55604 0.4712 0.81584 0.0
N252 N 0.5412 0.58757 0.78193 0.0
N253 N 0.48641 0.38019 0.82226 0.0
H254 H 0.64088 0.48229 0.83033 0.0
H255 H 0.58512 0.42617 0.83778 0.0
H256 H 0.44326 0.35383 0.82182 0.0
H257 H 0.5239 0.35507 0.82803 0.0
H258 H 0.51126 0.60008 0.77229 0.0
H259 H 0.58778 0.60731 0.781 0.0
H260 H 0.41495 0.59007 0.77929 0.0
H261 H 0.36476 0.52436 0.78393 0.0
C262 C 0.50033 0.04161 0.06914 0.0
C263 C 0.47071 0.06724 0.05504 0.0
C264 C 0.49714 0.967 0.04021 0.0
C265 C 0.52241 0.93964 0.05462 0.0
N266 N 0.53997 0.94607 0.08333 0.0
N267 N 0.43601 0.05431 0.02747 0.0
C268 C 0.52221 0.97578 0.06922 0.0
C269 C 0.46748 0.02975 0.04067 0.0
N270 N 0.50764 0.08026 0.08246 0.0
N271 N 0.50427 0.93417 0.02596 0.0
H272 H 0.4183 0.10189 0.02697 0.0
H273 H 0.4246 0.02689 0.0173 0.0
H274 H 0.5259 0.88826 0.02516 0.0
H275 H 0.49334 0.95406 0.01474 0.0
H276 H 0.53555 0.06729 0.09244 0.0
H277 H 0.4893 0.12758 0.0832 0.0
H278 H 0.5341 0.96711 0.09465 0.0
H279 H 0.55577 0.89783 0.08393 0.0
C280 C 0.04795 0.52668 0.92528 0.0
C281 C 0.06517 0.48336 0.93794 0.0
C282 C 0.95624 0.49593 0.94978 0.0
C283 C 0.93712 0.53425 0.93635 0.0
N284 N 0.96077 0.57712 0.90992 0.0
N285 N 0.03325 0.41874 0.96095 0.0
C286 C 0.98203 0.54765 0.92375 0.0
C287 C 0.01847 0.46541 0.94977 0.0
N288 N 0.09433 0.54719 0.91458 0.0
N289 N 0.91634 0.49135 0.96294 0.0
H290 H 0.07903 0.39705 0.96183 0.0
H291 H 0.99877 0.39802 0.9686 0.0
H292 H 0.87097 0.5141 0.96363 0.0
H293 H 0.93065 0.47025 0.9738 0.0
H294 H 0.08667 0.58457 0.90631 0.0
H295 H 0.14213 0.52989 0.91462 0.0
H296 H 0.98926 0.58224 0.89962 0.0
H297 H 0.91243 0.59111 0.90813 0.0
C298 C 0.53328 0.43883 0.17782 0.0
C299 C 0.48617 0.42074 0.18948 0.0
C300 C 0.49349 0.52921 0.20183 0.0
C301 C 0.54278 0.54631 0.19056 0.0
N302 N 0.62135 0.51115 0.17056 0.0
N303 N 0.43198 0.44272 0.2147 0.0
C304 C 0.56668 0.49908 0.17948 0.0
C305 C 0.46904 0.46432 0.20208 0.0
N306 N 0.54348 0.40032 0.16459 0.0
N307 N 0.47044 0.5748 0.21242 0.0
H308 H 0.41469 0.39506 0.21556 0.0
H309 H 0.42335 0.46992 0.22508 0.0
H310 H 0.49158 0.62065 0.21385 0.0
H311 H 0.42865 0.56819 0.21935 0.0
H312 H 0.57145 0.41481 0.15475 0.0
H313 H 0.51892 0.35655 0.16265 0.0
H314 H 0.64453 0.47564 0.16365 0.0
H315 H 0.64761 0.55438 0.17117 0.0
C316 C 0.4996 0.0396 0.45184 0.0
C317 C 0.45903 0.03111 0.43811 0.0
C318 C 0.54931 0.97895 0.4236 0.0
C319 C 0.58757 0.98133 0.43785 0.0
N320 N 0.59766 0.00699 0.46611 0.0
N321 N 0.44257 0.98947 0.41123 0.0
C322 C 0.56265 0.01046 0.4521 0.0
C323 C 0.48311 0.99969 0.42408 0.0
N324 N 0.47774 0.07526 0.46469 0.0
N325 N 0.57726 0.95936 0.40942 0.0
H326 H 0.39512 0.00766 0.41068 0.0
H327 H 0.45445 0.95986 0.40148 0.0
H328 H 0.62598 0.94516 0.40854 0.0
H329 H 0.55433 0.96263 0.39826 0.0
H330 H 0.5075 0.08995 0.47418 0.0
H331 H 0.43058 0.09398 0.46544 0.0
H332 H 0.57909 0.01999 0.47734 0.0
H333 H 0.64409 0.98647 0.4668 0.0
C334 C 0.01791 0.03695 0.70596 0.0
C335 C 0.00483 0.08144 0.69332 0.0
C336 C 0.93073 0.00244 0.6809 0.0
C337 C 0.95234 0.9543 0.69203 0.0
N338 N 0.01589 0.92524 0.71546 0.0
N339 N 0.95416 0.10516 0.66774 0.0
C340 C 0.99596 0.97141 0.70464 0.0
C341 C 0.96217 0.06412 0.68058 0.0
N342 N 0.04865 0.05847 0.71957 0.0
N343 N 0.87994 0.98985 0.6707 0.0
H344 H 0.9758 0.15104 0.66706 0.0
H345 H 0.93039 0.09169 0.65716 0.0
H346 H 0.8551 0.94574 0.67046 0.0
H347 H 0.85802 0.02542 0.66357 0.0
H348 H 0.05501 0.03034 0.72989 0.0
H349 H 0.06167 0.10716 0.72112 0.0
H350 H 0.05383 0.93246 0.72361 0.0
H351 H 0.99618 0.87844 0.71592 0.0
C352 C 0.51824 0.96081 0.32299 0.0
C353 C 0.56203 0.98087 0.31069 0.0
C354 C 0.4804 0.05775 0.30049 0.0
C355 C 0.43406 0.03231 0.31158 0.0
N356 N 0.40675 0.95567 0.33261 0.0
N357 N 0.58028 0.0387 0.28574 0.0
C358 C 0.45221 0.9822 0.3225 0.0
C359 C 0.54204 0.02689 0.29893 0.0
N360 N 0.54064 0.92443 0.33566 0.0
N361 N 0.46618 0.11175 0.29149 0.0
H362 H 0.6253 0.0164 0.28386 0.0
H363 H 0.56454 0.06566 0.27583 0.0
H364 H 0.42119 0.13521 0.29168 0.0
H365 H 0.50095 0.1366 0.28471 0.0
H366 H 0.5129 0.91398 0.34584 0.0
H367 H 0.58915 0.90993 0.33682 0.0
H368 H 0.41503 0.91369 0.33936 0.0
H369 H 0.35923 0.97327 0.3336 0.0
C370 C 0.99528 0.97504 0.54068 0.0
C371 C 0.95122 0.95403 0.55285 0.0
C372 C 0.95835 0.06146 0.56592 0.0
C373 C 0.00147 0.08246 0.55365 0.0
N374 N 0.04978 0.06587 0.52756 0.0
N375 N 0.87911 0.9822 0.57493 0.0
C376 C 0.01678 0.04106 0.5405 0.0
C377 C 0.92879 0.99888 0.56475 0.0
N378 N 0.01627 0.93201 0.5292 0.0
N379 N 0.94814 0.10006 0.57913 0.0
H380 H 0.85694 0.93665 0.57501 0.0
H381 H 0.85589 0.01538 0.5825 0.0
H382 H 0.96777 0.14671 0.58028 0.0
H383 H 0.92427 0.08422 0.58949 0.0
H384 H 0.05462 0.94152 0.52134 0.0
H385 H 0.99697 0.88532 0.52788 0.0
H386 H 0.05748 0.04053 0.51686 0.0
H387 H 0.0646 0.11444 0.52694 0.0
C388 C 0.04658 0.50491 0.79419 0.0
C389 C 0.07193 0.47668 0.80851 0.0
C390 C 0.96738 0.49521 0.82224 0.0
C391 C 0.94376 0.52757 0.8083 0.0
N392 N 0.96252 0.57096 0.78166 0.0
N393 N 0.06126 0.4544 0.83694 0.0
C394 C 0.98404 0.53505 0.7945 0.0
C395 C 0.03352 0.47413 0.82275 0.0
N396 N 0.08064 0.49971 0.78007 0.0
N397 N 0.92654 0.48457 0.835 0.0
H398 H 0.10986 0.4399 0.83787 0.0
H399 H 0.03815 0.45775 0.84808 0.0
H400 H 0.87891 0.50233 0.83545 0.0
H401 H 0.93823 0.45464 0.84471 0.0
H402 H 0.06164 0.51252 0.76888 0.0
H403 H 0.12616 0.4773 0.77926 0.0
H404 H 0.99235 0.58494 0.77212 0.0
H405 H 0.91568 0.59056 0.78097 0.0
C406 C 0.47527 0.54662 0.04428 0.0
C407 C 0.52473 0.56335 0.05553 0.0
C408 C 0.52424 0.45083 0.06591 0.0
C409 C 0.47025 0.43647 0.05583 0.0
N410 N 0.39087 0.4708 0.03609 0.0
N411 N 0.59452 0.53227 0.07782 0.0
C412 C 0.44451 0.48456 0.04529 0.0
C413 C 0.54931 0.5155 0.06643 0.0
N414 N 0.46082 0.58832 0.03191 0.0
N415 N 0.55167 0.40256 0.07507 0.0
H416 H 0.61769 0.57723 0.07825 0.0
H417 H 0.60676 0.50293 0.08759 0.0
H418 H 0.53152 0.35621 0.07629 0.0
H419 H 0.59655 0.40699 0.08083 0.0
H420 H 0.43035 0.5763 0.02233 0.0
H421 H 0.48448 0.63276 0.03023 0.0
H422 H 0.36454 0.5061 0.02985 0.0
H423 H 0.37025 0.42447 0.03534 0.0
C424 C 0.45811 0.51617 0.9504 0.0
C425 C 0.44189 0.46432 0.93975 0.0
C426 C 0.55145 0.46978 0.92783 0.0
C427 C 0.56851 0.51967 0.93886 0.0
N428 N 0.54299 0.58184 0.96272 0.0
N429 N 0.47959 0.38038 0.92138 0.0
C430 C 0.52311 0.54067 0.95071 0.0
C431 C 0.49059 0.43731 0.92949 0.0
N432 N 0.4116 0.5415 0.96042 0.0
N433 N 0.59153 0.45594 0.9151 0.0
H434 H 0.43618 0.35444 0.92197 0.0
H435 H 0.51605 0.35523 0.91523 0.0
H436 H 0.63585 0.47948 0.91314 0.0
H437 H 0.57793 0.42581 0.90556 0.0
H438 H 0.41736 0.58494 0.96674 0.0
H439 H 0.36591 0.52029 0.96205 0.0
H440 H 0.5148 0.59333 0.97275 0.0
H441 H 0.59012 0.60053 0.96344 0.0
C442 C 0.52495 0.96206 0.17248 0.0
C443 C 0.51291 0.91949 0.18564 0.0
C444 C 0.44354 0.00247 0.19822 0.0
C445 C 0.4633 0.04802 0.18628 0.0
N446 N 0.52453 0.0726 0.16218 0.0
N447 N 0.46877 0.90241 0.21232 0.0
C448 C 0.50483 0.02829 0.17349 0.0
C449 C 0.47392 0.94026 0.19881 0.0
N450 N 0.55267 0.93827 0.15867 0.0
N451 N 0.39546 0.01812 0.20895 0.0
H452 H 0.49061 0.8568 0.21346 0.0
H453 H 0.44788 0.91877 0.22303 0.0
H454 H 0.37225 0.06322 0.20918 0.0
H455 H 0.37435 0.98432 0.21673 0.0
H456 H 0.55687 0.96504 0.14807 0.0
H457 H 0.56566 0.88946 0.15723 0.0
H458 H 0.56127 0.06335 0.15382 0.0
H459 H 0.50658 0.12009 0.16161 0.0
C460 C 0.97957 0.99095 0.45379 0.0
C461 C 0.96253 0.94559 0.44159 0.0
C462 C 0.07581 0.94648 0.43168 0.0
C463 C 0.09021 0.99819 0.44249 0.0
N464 N 0.0565 0.07088 0.46382 0.0
N465 N 0.99389 0.87927 0.41878 0.0
C466 C 0.04225 0.0207 0.45355 0.0
C467 C 0.01079 0.92218 0.43068 0.0
N468 N 0.93691 0.00292 0.46612 0.0
N469 N 0.12408 0.92095 0.4222 0.0
H470 H 0.94868 0.85662 0.41813 0.0
H471 H 0.02349 0.86802 0.40898 0.0
H472 H 0.17079 0.94056 0.42145 0.0
H473 H 0.11937 0.87781 0.41571 0.0
H474 H 0.94856 0.03015 0.47631 0.0
H475 H 0.89162 0.98011 0.46703 0.0
H476 H 0.02152 0.09555 0.47057 0.0
H477 H 0.10317 0.09023 0.46513 0.0
C478 C 0.0612 0.49753 0.67929 0.0
C479 C 0.03811 0.45242 0.69104 0.0
C480 C 0.9663 0.53669 0.70244 0.0
C481 C 0.98648 0.58023 0.6901 0.0
N482 N 0.04622 0.60114 0.66565 0.0
N483 N 0.98116 0.43266 0.71597 0.0
C484 C 0.03283 0.56077 0.67837 0.0
C485 C 0.99364 0.47287 0.70317 0.0
N486 N 0.11094 0.48055 0.66914 0.0
N487 N 0.92012 0.5563 0.71333 0.0
H488 H 0.0025 0.38684 0.71729 0.0
H489 H 0.95419 0.44609 0.72605 0.0
H490 H 0.90299 0.60409 0.71404 0.0
H491 H 0.89653 0.52517 0.72132 0.0
H492 H 0.13567 0.51364 0.66187 0.0
H493 H 0.13143 0.43426 0.66864 0.0
H494 H 0.07246 0.58699 0.65551 0.0
H495 H 0.02686 0.64793 0.66454 0.0
C496 C 0.29436 0.20141 0.36675 0.0
C497 C 0.23834 0.17449 0.35924 0.0
C498 C 0.18869 0.15628 0.38569 0.0
C499 C 0.24929 0.17043 0.39303 0.0
N500 N 0.35992 0.20862 0.39112 0.0
N501 N 0.13146 0.12652 0.36129 0.0
C502 C 0.30181 0.19523 0.38378 0.0
C503 C 0.18477 0.15304 0.36865 0.0
N504 N 0.34099 0.23097 0.35755 0.0
N505 N 0.13506 0.14584 0.39513 0.0
H506 H 0.12627 0.12544 0.34881 0.0
H507 H 0.09428 0.10252 0.36742 0.0
H508 H 0.13681 0.14893 0.40768 0.0
H509 H 0.08805 0.14061 0.39058 0.0
H510 H 0.38045 0.2563 0.36233 0.0
H511 H 0.3373 0.23479 0.34505 0.0
H512 H 0.40263 0.21943 0.38491 0.0
H513 H 0.36621 0.20596 0.40358 0.0
C514 C 0.87645 0.81646 0.61243 0.0
C515 C 0.84687 0.76377 0.60409 0.0
C516 C 0.81621 0.71322 0.6298 0.0
C517 C 0.84669 0.76559 0.63807 0.0
N518 N 0.88997 0.87461 0.63759 0.0
N519 N 0.77705 0.66933 0.60436 0.0
C520 C 0.87169 0.81965 0.62944 0.0
C521 C 0.81228 0.71487 0.61264 0.0
N522 N 0.91103 0.86253 0.60412 0.0
N523 N 0.79517 0.66002 0.63824 0.0
H524 H 0.77545 0.6675 0.59181 0.0
H525 H 0.74553 0.63642 0.60987 0.0
H526 H 0.79691 0.65721 0.65078 0.0
H527 H 0.77971 0.61692 0.63285 0.0
H528 H 0.94099 0.89692 0.60961 0.0
H529 H 0.91291 0.86437 0.59159 0.0
H530 H 0.9019 0.91842 0.63199 0.0
H531 H 0.88738 0.87824 0.65009 0.0
C532 C 0.32146 0.34662 0.86491 0.0
C533 C 0.26446 0.32938 0.85633 0.0
C534 C 0.20911 0.30523 0.88186 0.0
C535 C 0.26163 0.33484 0.89023 0.0
N536 N 0.36749 0.3862 0.88986 0.0
N537 N 0.15294 0.29243 0.85627 0.0
C538 C 0.31816 0.35545 0.88181 0.0
C539 C 0.20831 0.30714 0.86467 0.0
N540 N 0.3788 0.35436 0.85678 0.0
N541 N 0.15943 0.27708 0.89032 0.0
H542 H 0.15097 0.29235 0.84371 0.0
H543 H 0.10801 0.28372 0.86168 0.0
H544 H 0.1579 0.27675 0.90288 0.0
H545 H 0.12267 0.24958 0.88498 0.0
H546 H 0.42362 0.36155 0.86241 0.0
H547 H 0.38213 0.3465 0.84441 0.0
H548 H 0.40619 0.40944 0.88412 0.0
H549 H 0.36758 0.39229 0.90231 0.0
C550 C 0.61743 0.68892 0.11302 0.0
C551 C 0.65061 0.73955 0.10471 0.0
C552 C 0.69259 0.78164 0.13039 0.0
C553 C 0.65925 0.73081 0.13853 0.0
N554 N 0.60798 0.62557 0.13747 0.0
N555 N 0.73032 0.82599 0.10488 0.0
C556 C 0.62789 0.68087 0.12973 0.0
C557 C 0.69243 0.78277 0.11319 0.0
N558 N 0.57351 0.65013 0.10516 0.0
N559 N 0.72027 0.83113 0.13903 0.0
H560 H 0.72894 0.83038 0.09237 0.0
H561 H 0.76646 0.85418 0.11027 0.0
H562 H 0.72209 0.83138 0.15158 0.0
H563 H 0.73815 0.87369 0.13383 0.0
H564 H 0.54218 0.61812 0.11106 0.0
H565 H 0.56442 0.65304 0.09284 0.0
H566 H 0.59082 0.58434 0.1315 0.0
H567 H 0.61502 0.61867 0.14979 0.0
C568 C 0.6883 0.66551 0.86277 0.0
C569 C 0.7479 0.67491 0.85444 0.0
C570 C 0.80526 0.69336 0.87994 0.0
C571 C 0.74667 0.67882 0.88827 0.0
N572 N 0.62995 0.66959 0.88825 0.0
N573 N 0.85873 0.71333 0.85423 0.0
C574 C 0.6872 0.67125 0.87982 0.0
C575 C 0.80488 0.69476 0.86277 0.0
N576 N 0.63351 0.64861 0.85435 0.0
N577 N 0.8618 0.70149 0.88843 0.0
H578 H 0.85999 0.71336 0.84166 0.0
H579 H 0.90027 0.73336 0.85945 0.0
H580 H 0.86302 0.70312 0.90099 0.0
H581 H 0.90776 0.70418 0.88317 0.0
H582 H 0.59037 0.63311 0.85971 0.0
H583 H 0.63191 0.64803 0.84177 0.0
H584 H 0.58407 0.66903 0.8829 0.0
H585 H 0.62833 0.67452 0.90078 0.0
C586 C 0.34183 0.18369 0.13147 0.0
C587 C 0.33297 0.24311 0.13991 0.0
C588 C 0.31154 0.29973 0.11442 0.0
C589 C 0.33176 0.24308 0.106 0.0
N590 N 0.36425 0.13027 0.10596 0.0
N591 N 0.30869 0.35793 0.13994 0.0
C592 C 0.34549 0.18446 0.11437 0.0
C593 C 0.31609 0.30103 0.13156 0.0
N594 N 0.34623 0.12661 0.13991 0.0
N595 N 0.28925 0.35242 0.10598 0.0
H596 H 0.31029 0.3601 0.15249 0.0
H597 H 0.30408 0.40343 0.13452 0.0
H598 H 0.28677 0.35307 0.09342 0.0
H599 H 0.26847 0.3933 0.11134 0.0
H600 H 0.34753 0.08076 0.13456 0.0
H601 H 0.34261 0.12481 0.15245 0.0
H602 H 0.38315 0.08848 0.11132 0.0
H603 H 0.36343 0.12807 0.09339 0.0
C604 C 0.71703 0.80563 0.36393 0.0
C605 C 0.76888 0.83306 0.35494 0.0
C606 C 0.82725 0.86084 0.37963 0.0
C607 C 0.77451 0.83549 0.38879 0.0
N608 N 0.67596 0.77144 0.39006 0.0
N609 N 0.88027 0.86856 0.35355 0.0
C610 C 0.72196 0.80296 0.38106 0.0
C611 C 0.8265 0.85429 0.36263 0.0
N612 N 0.66156 0.78628 0.35616 0.0
N613 N 0.87658 0.89389 0.3871 0.0
H614 H 0.88069 0.86367 0.34102 0.0
H615 H 0.92587 0.87897 0.35842 0.0
H616 H 0.87984 0.89846 0.39957 0.0
H617 H 0.91207 0.92033 0.38098 0.0
H618 H 0.61863 0.77346 0.36203 0.0
H619 H 0.65757 0.78592 0.34362 0.0
H620 H 0.63993 0.74182 0.38513 0.0
H621 H 0.6764 0.771 0.40262 0.0
C622 C 0.18086 0.21669 0.63208 0.0
C623 C 0.14387 0.2637 0.64068 0.0
C624 C 0.1152 0.31797 0.61533 0.0
C625 C 0.14317 0.26542 0.60668 0.0
N626 N 0.20036 0.16272 0.60645 0.0
N627 N 0.07405 0.35871 0.64069 0.0
C628 C 0.17662 0.21477 0.61492 0.0
C629 C 0.11102 0.31457 0.63236 0.0
N630 N 0.21876 0.17312 0.6403 0.0
N631 N 0.09369 0.37187 0.60721 0.0
H632 H 0.07246 0.36077 0.65322 0.0
H633 H 0.04189 0.39116 0.63522 0.0
H634 H 0.09562 0.37573 0.59471 0.0
H635 H 0.07956 0.41498 0.61284 0.0
H636 H 0.25199 0.14202 0.63475 0.0
H637 H 0.22069 0.17129 0.65285 0.0
H638 H 0.2183 0.12055 0.61183 0.0
H639 H 0.19834 0.15966 0.59392 0.0
C640 C 0.33354 0.1448 0.25741 0.0
C641 C 0.28479 0.18203 0.26542 0.0
C642 C 0.27233 0.25095 0.24133 0.0
C643 C 0.32402 0.21626 0.23383 0.0
N644 N 0.41115 0.13675 0.23568 0.0
N645 N 0.21075 0.27326 0.2658 0.0
C646 C 0.35676 0.16529 0.24216 0.0
C647 C 0.2552 0.23615 0.25762 0.0
N648 N 0.35712 0.08863 0.26417 0.0
N649 N 0.23961 0.29782 0.23285 0.0
H650 H 0.19422 0.26159 0.27733 0.0
H651 H 0.19245 0.31737 0.26159 0.0
H652 H 0.25327 0.3124 0.22129 0.0
H653 H 0.19704 0.3202 0.23683 0.0
H654 H 0.38436 0.05435 0.25781 0.0
H655 H 0.34683 0.07348 0.27585 0.0
H656 H 0.4428 0.10727 0.24226 0.0
H657 H 0.4277 0.14502 0.22401 0.0
C658 C 0.71892 0.82007 0.49365 0.0
C659 C 0.75219 0.78806 0.48093 0.0
C660 C 0.79887 0.71221 0.50049 0.0
C661 C 0.78043 0.75495 0.51304 0.0
N662 N 0.7203 0.84962 0.52189 0.0
N663 N 0.82479 0.7016 0.47223 0.0
C664 C 0.73823 0.80806 0.50982 0.0
C665 C 0.79115 0.73234 0.48424 0.0
N666 N 0.66918 0.8621 0.49019 0.0
N667 N 0.82401 0.65256 0.50426 0.0
H668 H 0.8211 0.71406 0.46012 0.0
H669 H 0.85993 0.66602 0.47444 0.0
H670 H 0.8271 0.63667 0.51619 0.0
H671 H 0.83415 0.61681 0.4957 0.0
H672 H 0.63966 0.88324 0.49897 0.0
H673 H 0.65317 0.87005 0.4784 0.0
H674 H 0.69649 0.89369 0.51982 0.0
H675 H 0.73222 0.84188 0.53395 0.0
C676 C 0.19082 0.22063 0.7453 0.0
C677 C 0.20957 0.26106 0.73231 0.0
C678 C 0.27434 0.32693 0.7509 0.0
C679 C 0.24232 0.2966 0.76408 0.0
N680 N 0.16657 0.21493 0.77375 0.0
N681 N 0.26912 0.35474 0.7226 0.0
C682 C 0.20056 0.24253 0.76135 0.0
C683 C 0.25251 0.31408 0.73497 0.0
N684 N 0.164 0.16114 0.74218 0.0
N685 N 0.32591 0.36759 0.75364 0.0
H686 H 0.25503 0.34687 0.7107 0.0
H687 H 0.29354 0.39869 0.72433 0.0
H688 H 0.34432 0.37623 0.76518 0.0
H689 H 0.35463 0.38677 0.74443 0.0
H690 H 0.15352 0.12702 0.75112 0.0
H691 H 0.16008 0.14343 0.73043 0.0
H692 H 0.13011 0.18032 0.77199 0.0
H693 H 0.17072 0.22993 0.78569 0.0
C694 C 0.73577 0.75827 0.98583 0.0
C695 C 0.7299 0.69153 0.98144 0.0
C696 C 0.70346 0.66409 0.00937 0.0
C697 C 0.69863 0.73106 0.01308 0.0
N698 N 0.70547 0.84323 0.00485 0.0
N699 N 0.6917 0.58326 0.9886 0.0
C700 C 0.71362 0.77873 0.00132 0.0
C701 C 0.70978 0.64482 0.9931 0.0
N702 N 0.76434 0.8015 0.9755 0.0
N703 N 0.70158 0.61867 0.02139 0.0
H704 H 0.69004 0.5674 0.97669 0.0
H705 H 0.6704 0.55019 0.99654 0.0
H706 H 0.69884 0.63142 0.03353 0.0
H707 H 0.71053 0.56928 0.01943 0.0
H708 H 0.77512 0.84944 0.97865 0.0
H709 H 0.78299 0.78781 0.96431 0.0
H710 H 0.70855 0.88004 0.99623 0.0
H711 H 0.69199 0.85943 0.0163 0.0
C712 C 0.24407 0.32872 0.01222 0.0
C713 C 0.28065 0.27109 0.01488 0.0
C714 C 0.28575 0.25081 0.98585 0.0
C715 C 0.24865 0.30838 0.98309 0.0
N716 N 0.17482 0.38895 0.9939 0.0
N717 N 0.31572 0.16675 0.005 0.0
C718 C 0.22183 0.34287 0.99639 0.0
C719 C 0.29431 0.22852 0.0019 0.0
N720 N 0.23424 0.37232 0.02443 0.0
N721 N 0.31735 0.22013 0.97348 0.0
H722 H 0.32025 0.14898 0.01673 0.0
H723 H 0.32144 0.13147 0.99607 0.0
H724 H 0.31547 0.23544 0.96155 0.0
H725 H 0.35072 0.18254 0.97532 0.0
H726 H 0.21516 0.41879 0.02257 0.0
H727 H 0.24946 0.36435 0.03625 0.0
H728 H 0.14932 0.41133 0.00325 0.0
H729 H 0.15647 0.39956 0.98248 0.0
C730 C 0.75556 0.77299 0.25499 0.0
C731 C 0.71907 0.82298 0.26266 0.0
C732 C 0.65599 0.8398 0.23809 0.0
C733 C 0.68629 0.78469 0.23105 0.0
N734 N 0.75993 0.69351 0.2333 0.0
N735 N 0.62344 0.89195 0.26282 0.0
C736 C 0.73503 0.74978 0.2396 0.0
C737 C 0.66613 0.85305 0.25458 0.0
N738 N 0.8107 0.74929 0.26213 0.0
N739 N 0.61919 0.88099 0.22887 0.0
H740 H 0.62661 0.89983 0.27521 0.0
H741 H 0.58062 0.91006 0.25775 0.0
H742 H 0.61343 0.87481 0.21648 0.0
H743 H 0.6009 0.92515 0.23313 0.0
H744 H 0.84293 0.71767 0.25639 0.0
H745 H 0.827 0.76529 0.27337 0.0
H746 H 0.7904 0.66227 0.23972 0.0
H747 H 0.74635 0.67562 0.22202 0.0
C748 C 0.21901 0.13135 0.49707 0.0
C749 C 0.24327 0.17659 0.48553 0.0
C750 C 0.22667 0.26556 0.50486 0.0
C751 C 0.20681 0.21939 0.51655 0.0
N752 N 0.20184 0.1075 0.52528 0.0
N753 N 0.28429 0.28439 0.47976 0.0
C754 C 0.2095 0.15198 0.51317 0.0
C755 C 0.25131 0.24318 0.4898 0.0
N756 N 0.19968 0.07025 0.49252 0.0
N757 N 0.22092 0.33063 0.50805 0.0
H758 H 0.30503 0.26911 0.46892 0.0
H759 H 0.29663 0.33195 0.48291 0.0
H760 H 0.20607 0.34833 0.51926 0.0
H761 H 0.22743 0.36664 0.49935 0.0
H762 H 0.17538 0.03841 0.50024 0.0
H763 H 0.2003 0.05375 0.48065 0.0
H764 H 0.20949 0.0577 0.52367 0.0
H765 H 0.19413 0.12088 0.53725 0.0
C766 C 0.81591 0.7737 0.74356 0.0
C767 C 0.79917 0.73304 0.73039 0.0
C768 C 0.73969 0.6614 0.74873 0.0
C769 C 0.76789 0.69433 0.76208 0.0
N770 N 0.84037 0.77854 0.77199 0.0
N771 N 0.75065 0.63311 0.72061 0.0
C772 C 0.80719 0.75038 0.75952 0.0
C773 C 0.76161 0.67598 0.73293 0.0
N774 N 0.84028 0.83464 0.74077 0.0
N775 N 0.69153 0.61649 0.75114 0.0
H776 H 0.76654 0.64076 0.70884 0.0
H777 H 0.73048 0.58707 0.72237 0.0
H778 H 0.67342 0.60537 0.76255 0.0
H779 H 0.66499 0.59563 0.74175 0.0
H780 H 0.84789 0.8687 0.7499 0.0
H781 H 0.84618 0.85343 0.72917 0.0
H782 H 0.87527 0.81479 0.77033 0.0
H783 H 0.83808 0.76201 0.78384 0.0
loop_
_geom_bond_atom_site_label_1
_geom_bond_atom_site_label_2
_geom_bond_distance
_geom_bond_site_symmetry_2
_ccdc_geom_bond_type
In0 O1 2.294 . S
In0 O2 2.326 . S
In0 O6 2.266 . S
In0 O7 2.326 . S
In0 O8 2.266 . S
In0 O9 2.326 . S
In0 O11 2.294 . S
In0 O12 2.326 . S
O1 In0 2.294 . S
O1 C10 1.240 . S
O2 In0 2.326 . S
O2 C10 1.252 . S
C3 O6 1.252 . S
C3 O7 1.260 . S
C4 O11 1.240 . S
C4 O12 1.252 . S
C5 O8 1.252 . S
C5 O9 1.260 . S
O6 In0 2.266 . S
O6 C3 1.252 . S
O7 In0 2.326 . S
O7 C3 1.260 . S
O8 In0 2.266 . S
O8 C5 1.252 . S
O9 In0 2.326 . S
O9 C5 1.260 . S
C10 O1 1.240 . S
C10 O2 1.252 . S
O11 In0 2.294 . S
O11 C4 1.240 . S
O12 In0 2.326 . S
O12 C4 1.252 . S
In13 O14 2.294 . S
In13 O15 2.326 . S
In13 O19 2.266 . S
In13 O20 2.326 . S
In13 O21 2.266 . S
In13 O22 2.326 . S
In13 O24 2.294 . S
In13 O25 2.326 . S
O14 In13 2.294 . S
O14 C23 1.240 . S
O15 In13 2.326 . S
O15 C23 1.252 . S
C16 O19 1.252 . S
C16 O20 1.260 . S
C17 O24 1.240 . S
C17 O25 1.252 . S
C18 O21 1.252 . S
C18 O22 1.260 . S
O19 In13 2.266 . S
O19 C16 1.252 . S
O20 In13 2.326 . S
O20 C16 1.260 . S
O21 In13 2.266 . S
O21 C18 1.252 . S
O22 In13 2.326 . S
O22 C18 1.260 . S
C23 O14 1.240 . S
C23 O15 1.252 . S
O24 In13 2.294 . S
O24 C17 1.240 . S
O25 In13 2.326 . S
O25 C17 1.252 . S
In26 O27 2.294 . S
In26 O28 2.326 . S
In26 O32 2.266 . S
In26 O33 2.326 . S
In26 O34 2.266 . S
In26 O35 2.326 . S
In26 O37 2.294 . S
In26 O38 2.326 . S
O27 In26 2.294 . S
O27 C36 1.240 . S
O28 In26 2.326 . S
O28 C36 1.252 . S
C29 O32 1.252 . S
C29 O33 1.260 . S
C30 O37 1.240 . S
C30 O38 1.252 . S
C31 O34 1.252 . S
C31 O35 1.260 . S
O32 In26 2.266 . S
O32 C29 1.252 . S
O33 In26 2.326 . S
O33 C29 1.260 . S
O34 In26 2.266 . S
O34 C31 1.252 . S
O35 In26 2.326 . S
O35 C31 1.260 . S
C36 O27 1.240 . S
C36 O28 1.252 . S
O37 In26 2.294 . S
O37 C30 1.240 . S
O38 In26 2.326 . S
O38 C30 1.252 . S
In39 O40 2.294 . S
In39 O41 2.326 . S
In39 O45 2.266 . S
In39 O46 2.326 . S
In39 O47 2.266 . S
In39 O48 2.326 . S
In39 O50 2.294 . S
In39 O51 2.326 . S
O40 In39 2.294 . S
O40 C49 1.240 . S
O41 In39 2.326 . S
O41 C49 1.252 . S
C42 O45 1.252 . S
C42 O46 1.260 . S
C43 O50 1.240 . S
C43 O51 1.252 . S
C44 O47 1.252 . S
C44 O48 1.260 . S
O45 In39 2.266 . S
O45 C42 1.252 . S
O46 In39 2.326 . S
O46 C42 1.260 . S
O47 In39 2.266 . S
O47 C44 1.252 . S
O48 In39 2.326 . S
O48 C44 1.260 . S
C49 O40 1.240 . S
C49 O41 1.252 . S
O50 In39 2.294 . S
O50 C43 1.240 . S
O51 In39 2.326 . S
O51 C43 1.252 . S
In52 O53 2.294 . S
In52 O54 2.326 . S
In52 O58 2.266 . S
In52 O59 2.326 . S
In52 O60 2.266 . S
In52 O61 2.326 . S
In52 O63 2.294 . S
In52 O64 2.326 . S
O53 In52 2.294 . S
O53 C62 1.240 . S
O54 In52 2.326 . S
O54 C62 1.252 . S
C55 O58 1.252 . S
C55 O59 1.260 . S
C56 O63 1.240 . S
C56 O64 1.252 . S
C57 O60 1.252 . S
C57 O61 1.260 . S
O58 In52 2.266 . S
O58 C55 1.252 . S
O59 In52 2.326 . S
O59 C55 1.260 . S
O60 In52 2.266 . S
O60 C57 1.252 . S
O61 In52 2.326 . S
O61 C57 1.260 . S
C62 O53 1.240 . S
C62 O54 1.252 . S
O63 In52 2.294 . S
O63 C56 1.240 . S
O64 In52 2.326 . S
O64 C56 1.252 . S
In65 O66 2.294 . S
In65 O67 2.326 . S
In65 O71 2.266 . S
In65 O72 2.326 . S
In65 O73 2.266 . S
In65 O74 2.326 . S
In65 O76 2.294 . S
In65 O77 2.326 . S
O66 In65 2.294 . S
O66 C75 1.240 . S
O67 In65 2.326 . S
O67 C75 1.252 . S
C68 O71 1.252 . S
C68 O72 1.260 . S
C69 O76 1.240 . S
C69 O77 1.252 . S
C70 O73 1.252 . S
C70 O74 1.260 . S
O71 In65 2.266 . S
O71 C68 1.252 . S
O72 In65 2.326 . S
O72 C68 1.260 . S
O73 In65 2.266 . S
O73 C70 1.252 . S
O74 In65 2.326 . S
O74 C70 1.260 . S
C75 O66 1.240 . S
C75 O67 1.252 . S
O76 In65 2.294 . S
O76 C69 1.240 . S
O77 In65 2.326 . S
O77 C69 1.252 . S
In78 O79 2.294 . S
In78 O80 2.326 . S
In78 O84 2.266 . S
In78 O85 2.326 . S
In78 O86 2.266 . S
In78 O87 2.326 . S
In78 O89 2.294 . S
In78 O90 2.326 . S
O79 In78 2.294 . S
O79 C88 1.240 . S
O80 In78 2.326 . S
O80 C88 1.252 . S
C81 O84 1.252 . S
C81 O85 1.260 . S
C82 O89 1.240 . S
C82 O90 1.252 . S
C83 O86 1.252 . S
C83 O87 1.260 . S
O84 In78 2.266 . S
O84 C81 1.252 . S
O85 In78 2.326 . S
O85 C81 1.260 . S
O86 In78 2.266 . S
O86 C83 1.252 . S
O87 In78 2.326 . S
O87 C83 1.260 . S
C88 O79 1.240 . S
C88 O80 1.252 . S
O89 In78 2.294 . S
O89 C82 1.240 . S
O90 In78 2.326 . S
O90 C82 1.252 . S
In91 O92 2.294 . S
In91 O93 2.326 . S
In91 O97 2.266 . S
In91 O98 2.326 . S
In91 O99 2.266 . S
In91 O100 2.326 . S
In91 O102 2.294 . S
In91 O103 2.326 . S
O92 In91 2.294 . S
O92 C101 1.240 . S
O93 In91 2.326 . S
O93 C101 1.252 . S
C94 O97 1.252 . S
C94 O98 1.260 . S
C95 O102 1.240 . S
C95 O103 1.252 . S
C96 O99 1.252 . S
C96 O100 1.260 . S
O97 In91 2.266 . S
O97 C94 1.252 . S
O98 In91 2.326 . S
O98 C94 1.260 . S
O99 In91 2.266 . S
O99 C96 1.252 . S
O100 In91 2.326 . S
O100 C96 1.260 . S
C101 O92 1.240 . S
C101 O93 1.252 . S
O102 In91 2.294 . S
O102 C95 1.240 . S
O103 In91 2.326 . S
O103 C95 1.252 . S
In104 O105 2.294 . S
In104 O106 2.326 . S
In104 O110 2.266 . S
In104 O111 2.326 . S
In104 O112 2.266 . S
In104 O113 2.326 . S
In104 O115 2.294 . S
In104 O116 2.326 . S
O105 In104 2.294 . S
O105 C114 1.240 . S
O106 In104 2.326 . S
O106 C114 1.252 . S
C107 O110 1.252 . S
C107 O111 1.260 . S
C108 O115 1.240 . S
C108 O116 1.252 . S
C109 O112 1.252 . S
C109 O113 1.260 . S
O110 In104 2.266 . S
O110 C107 1.252 . S
O111 In104 2.326 . S
O111 C107 1.260 . S
O112 In104 2.266 . S
O112 C109 1.252 . S
O113 In104 2.326 . S
O113 C109 1.260 . S
C114 O105 1.240 . S
C114 O106 1.252 . S
O115 In104 2.294 . S
O115 C108 1.240 . S
O116 In104 2.326 . S
O116 C108 1.252 . S
In117 O118 2.294 . S
In117 O119 2.326 . S
In117 O123 2.266 . S
In117 O124 2.326 . S
In117 O125 2.266 . S
In117 O126 2.326 . S
In117 O128 2.294 . S
In117 O129 2.326 . S
O118 In117 2.294 . S
O118 C127 1.240 . S
O119 In117 2.326 . S
O119 C127 1.252 . S
C120 O123 1.252 . S
C120 O124 1.260 . S
C121 O128 1.240 . S
C121 O129 1.252 . S
C122 O125 1.252 . S
C122 O126 1.260 . S
O123 In117 2.266 . S
O123 C120 1.252 . S
O124 In117 2.326 . S
O124 C120 1.260 . S
O125 In117 2.266 . S
O125 C122 1.252 . S
O126 In117 2.326 . S
O126 C122 1.260 . S
C127 O118 1.240 . S
C127 O119 1.252 . S
O128 In117 2.294 . S
O128 C121 1.240 . S
O129 In117 2.326 . S
O129 C121 1.252 . S
In130 O131 2.294 . S
In130 O132 2.326 . S
In130 O136 2.266 . S
In130 O137 2.326 . S
In130 O138 2.266 . S
In130 O139 2.326 . S
In130 O141 2.294 . S
In130 O142 2.326 . S
O131 In130 2.294 . S
O131 C140 1.240 . S
O132 In130 2.326 . S
O132 C140 1.252 . S
C133 O136 1.252 . S
C133 O137 1.260 . S
C134 O141 1.240 . S
C134 O142 1.252 . S
C135 O138 1.252 . S
C135 O139 1.260 . S
O136 In130 2.266 . S
O136 C133 1.252 . S
O137 In130 2.326 . S
O137 C133 1.260 . S
O138 In130 2.266 . S
O138 C135 1.252 . S
O139 In130 2.326 . S
O139 C135 1.260 . S
C140 O131 1.240 . S
C140 O132 1.252 . S
O141 In130 2.294 . S
O141 C134 1.240 . S
O142 In130 2.326 . S
O142 C134 1.252 . S
In143 O144 2.294 . S
In143 O145 2.326 . S
In143 O149 2.266 . S
In143 O150 2.326 . S
In143 O151 2.266 . S
In143 O152 2.326 . S
In143 O154 2.294 . S
In143 O155 2.326 . S
O144 In143 2.294 . S
O144 C153 1.240 . S
O145 In143 2.326 . S
O145 C153 1.252 . S
C146 O149 1.252 . S
C146 O150 1.260 . S
C147 O154 1.240 . S
C147 O155 1.252 . S
C148 O151 1.252 . S
C148 O152 1.260 . S
O149 In143 2.266 . S
O149 C146 1.252 . S
O150 In143 2.326 . S
O150 C146 1.260 . S
O151 In143 2.266 . S
O151 C148 1.252 . S
O152 In143 2.326 . S
O152 C148 1.260 . S
C153 O144 1.240 . S
C153 O145 1.252 . S
O154 In143 2.294 . S
O154 C147 1.240 . S
O155 In143 2.326 . S
O155 C147 1.252 . S
In156 O157 2.294 . S
In156 O158 2.326 . S
In156 O162 2.266 . S
In156 O163 2.326 . S
In156 O164 2.266 . S
In156 O165 2.326 . S
In156 O167 2.294 . S
In156 O168 2.326 . S
O157 In156 2.294 . S
O157 C166 1.240 . S
O158 In156 2.326 . S
O158 C166 1.252 . S
C159 O162 1.252 . S
C159 O163 1.260 . S
C160 O167 1.240 . S
C160 O168 1.252 . S
C161 O164 1.252 . S
C161 O165 1.260 . S
O162 In156 2.266 . S
O162 C159 1.252 . S
O163 In156 2.326 . S
O163 C159 1.260 . S
O164 In156 2.266 . S
O164 C161 1.252 . S
O165 In156 2.326 . S
O165 C161 1.260 . S
C166 O157 1.240 . S
C166 O158 1.252 . S
O167 In156 2.294 . S
O167 C160 1.240 . S
O168 In156 2.326 . S
O168 C160 1.252 . S
In169 O170 2.294 . S
In169 O171 2.326 . S
In169 O175 2.266 . S
In169 O176 2.326 . S
In169 O177 2.266 . S
In169 O178 2.326 . S
In169 O180 2.294 . S
In169 O181 2.326 . S
O170 In169 2.294 . S
O170 C179 1.240 . S
O171 In169 2.326 . S
O171 C179 1.252 . S
C172 O175 1.252 . S
C172 O176 1.260 . S
C173 O180 1.240 . S
C173 O181 1.252 . S
C174 O177 1.252 . S
C174 O178 1.260 . S
O175 In169 2.266 . S
O175 C172 1.252 . S
O176 In169 2.326 . S
O176 C172 1.260 . S
O177 In169 2.266 . S
O177 C174 1.252 . S
O178 In169 2.326 . S
O178 C174 1.260 . S
C179 O170 1.240 . S
C179 O171 1.252 . S
O180 In169 2.294 . S
O180 C173 1.240 . S
O181 In169 2.326 . S
O181 C173 1.252 . S
In182 O183 2.294 . S
In182 O184 2.326 . S
In182 O188 2.266 . S
In182 O189 2.326 . S
In182 O190 2.266 . S
In182 O191 2.326 . S
In182 O193 2.294 . S
In182 O194 2.326 . S
O183 In182 2.294 . S
O183 C192 1.240 . S
O184 In182 2.326 . S
O184 C192 1.252 . S
C185 O188 1.252 . S
C185 O189 1.260 . S
C186 O193 1.240 . S
C186 O194 1.252 . S
C187 O190 1.252 . S
C187 O191 1.260 . S
O188 In182 2.266 . S
O188 C185 1.252 . S
O189 In182 2.326 . S
O189 C185 1.260 . S
O190 In182 2.266 . S
O190 C187 1.252 . S
O191 In182 2.326 . S
O191 C187 1.260 . S
C192 O183 1.240 . S
C192 O184 1.252 . S
O193 In182 2.294 . S
O193 C186 1.240 . S
O194 In182 2.326 . S
O194 C186 1.252 . S
In195 O196 2.294 . S
In195 O197 2.326 . S
In195 O201 2.266 . S
In195 O202 2.326 . S
In195 O203 2.266 . S
In195 O204 2.326 . S
In195 O206 2.294 . S
In195 O207 2.326 . S
O196 In195 2.294 . S
O196 C205 1.240 . S
O197 In195 2.326 . S
O197 C205 1.252 . S
C198 O201 1.252 . S
C198 O202 1.260 . S
C199 O206 1.240 . S
C199 O207 1.252 . S
C200 O203 1.252 . S
C200 O204 1.260 . S
O201 In195 2.266 . S
O201 C198 1.252 . S
O202 In195 2.326 . S
O202 C198 1.260 . S
O203 In195 2.266 . S
O203 C200 1.252 . S
O204 In195 2.326 . S
O204 C200 1.260 . S
C205 O196 1.240 . S
C205 O197 1.252 . S
O206 In195 2.294 . S
O206 C199 1.240 . S
O207 In195 2.326 . S
O207 C199 1.252 . S
C208 C209 1.363 1_545 S
C208 C214 1.379 1_655 S
C208 N216 1.356 . S
C209 C208 1.363 1_565 S
C209 C215 1.363 . S
C210 C211 1.363 1_565 S
C210 C215 1.379 1_455 S
C210 N217 1.356 . S
C211 C210 1.363 1_545 S
C211 C214 1.363 . S
N212 C214 1.356 . S
N212 H224 0.984 . S
N212 H225 0.985 . S
N213 C215 1.356 . S
N213 H218 0.984 . S
N213 H219 0.985 . S
C214 C208 1.379 1_455 S
C214 C211 1.363 . S
C214 N212 1.356 . S
C215 C209 1.363 . S
C215 C210 1.379 1_655 S
C215 N213 1.356 . S
N216 C208 1.356 . S
N216 H222 0.984 . S
N216 H223 0.984 1_545 S
N217 C210 1.356 . S
N217 H220 0.984 1_565 S
N217 H221 0.985 . S
H218 N213 0.984 . S
H219 N213 0.985 . S
H220 N217 0.984 1_545 S
H221 N217 0.985 . S
H222 N216 0.984 . S
H223 N216 0.984 1_565 S
H224 N212 0.984 . S
H225 N212 0.985 . S
C226 C227 1.363 . S
C226 C232 1.379 . S
C226 N234 1.356 . S
C227 C226 1.363 . S
C227 C233 1.363 1_655 S
C228 C229 1.363 . S
C228 C233 1.379 . S
C228 N235 1.356 . S
C229 C228 1.363 . S
C229 C232 1.363 1_455 S
N230 C232 1.356 . S
N230 H242 0.984 . S
N230 H243 0.985 1_655 S
N231 C233 1.356 . S
N231 H236 0.984 1_455 S
N231 H237 0.985 . S
C232 C226 1.379 . S
C232 C229 1.363 1_655 S
C232 N230 1.356 . S
C233 C227 1.363 1_455 S
C233 C228 1.379 . S
C233 N231 1.356 . S
N234 C226 1.356 . S
N234 H240 0.984 . S
N234 H241 0.984 . S
N235 C228 1.356 . S
N235 H238 0.984 . S
N235 H239 0.985 . S
H236 N231 0.984 1_655 S
H237 N231 0.985 . S
H238 N235 0.984 . S
H239 N235 0.985 . S
H240 N234 0.984 . S
H241 N234 0.984 . S
H242 N230 0.984 . S
H243 N230 0.985 1_455 S
C244 C245 1.363 . S
C244 C250 1.379 . S
C244 N252 1.356 . S
C245 C244 1.363 . S
C245 C251 1.363 . S
C246 C247 1.363 . S
C246 C251 1.379 . S
C246 N253 1.356 . S
C247 C246 1.363 . S
C247 C250 1.363 . S
N248 C250 1.356 . S
N248 H260 0.984 . S
N248 H261 0.985 . S
N249 C251 1.356 . S
N249 H254 0.984 . S
N249 H255 0.985 . S
C250 C244 1.379 . S
C250 C247 1.363 . S
C250 N248 1.356 . S
C251 C245 1.363 . S
C251 C246 1.379 . S
C251 N249 1.356 . S
N252 C244 1.356 . S
N252 H258 0.984 . S
N252 H259 0.984 . S
N253 C246 1.356 . S
N253 H256 0.984 . S
N253 H257 0.985 . S
H254 N249 0.984 . S
H255 N249 0.985 . S
H256 N253 0.984 . S
H257 N253 0.985 . S
H258 N252 0.984 . S
H259 N252 0.984 . S
H260 N248 0.984 . S
H261 N248 0.985 . S
C262 C263 1.363 . S
C262 C268 1.379 1_545 S
C262 N270 1.356 . S
C263 C262 1.363 . S
C263 C269 1.363 . S
C264 C265 1.363 . S
C264 C269 1.379 1_565 S
C264 N271 1.356 . S
C265 C264 1.363 . S
C265 C268 1.363 . S
N266 C268 1.356 . S
N266 H278 0.984 . S
N266 H279 0.985 . S
N267 C269 1.356 . S
N267 H272 0.984 . S
N267 H273 0.985 . S
C268 C262 1.379 1_565 S
C268 C265 1.363 . S
C268 N266 1.356 . S
C269 C263 1.363 . S
C269 C264 1.379 1_545 S
C269 N267 1.356 . S
N270 C262 1.356 . S
N270 H276 0.984 . S
N270 H277 0.984 . S
N271 C264 1.356 . S
N271 H274 0.984 . S
N271 H275 0.985 . S
H272 N267 0.984 . S
H273 N267 0.985 . S
H274 N271 0.984 . S
H275 N271 0.985 . S
H276 N270 0.984 . S
H277 N270 0.984 . S
H278 N266 0.984 . S
H279 N266 0.985 . S
C280 C281 1.363 . S
C280 C286 1.379 1_455 S
C280 N288 1.356 . S
C281 C280 1.363 . S
C281 C287 1.363 . S
C282 C283 1.363 . S
C282 C287 1.379 1_655 S
C282 N289 1.356 . S
C283 C282 1.363 . S
C283 C286 1.363 . S
N284 C286 1.356 . S
N284 H296 0.984 . S
N284 H297 0.985 . S
N285 C287 1.356 . S
N285 H290 0.984 . S
N285 H291 0.985 . S
C286 C280 1.379 1_655 S
C286 C283 1.363 . S
C286 N284 1.356 . S
C287 C281 1.363 . S
C287 C282 1.379 1_455 S
C287 N285 1.356 . S
N288 C280 1.356 . S
N288 H294 0.984 . S
N288 H295 0.984 . S
N289 C282 1.356 . S
N289 H292 0.984 . S
N289 H293 0.985 . S
H290 N285 0.984 . S
H291 N285 0.985 . S
H292 N289 0.984 . S
H293 N289 0.985 . S
H294 N288 0.984 . S
H295 N288 0.984 . S
H296 N284 0.984 . S
H297 N284 0.985 . S
C298 C299 1.363 . S
C298 C304 1.379 . S
C298 N306 1.356 . S
C299 C298 1.363 . S
C299 C305 1.363 . S
C300 C301 1.363 . S
C300 C305 1.379 . S
C300 N307 1.356 . S
C301 C300 1.363 . S
C301 C304 1.363 . S
N302 C304 1.356 . S
N302 H314 0.984 . S
N302 H315 0.985 . S
N303 C305 1.356 . S
N303 H308 0.984 . S
N303 H309 0.985 . S
C304 C298 1.379 . S
C304 C301 1.363 . S
C304 N302 1.356 . S
C305 C299 1.363 . S
C305 C300 1.379 . S
C305 N303 1.356 . S
N306 C298 1.356 . S
N306 H312 0.984 . S
N306 H313 0.984 . S
N307 C300 1.356 . S
N307 H310 0.984 . S
N307 H311 0.985 . S
H308 N303 0.984 . S
H309 N303 0.985 . S
H310 N307 0.984 . S
H311 N307 0.985 . S
H312 N306 0.984 . S
H313 N306 0.984 . S
H314 N302 0.984 . S
H315 N302 0.985 . S
C316 C317 1.363 . S
C316 C322 1.379 . S
C316 N324 1.356 . S
C317 C316 1.363 . S
C317 C323 1.363 1_545 S
C318 C319 1.363 . S
C318 C323 1.379 . S
C318 N325 1.356 . S
C319 C318 1.363 . S
C319 C322 1.363 1_565 S
N320 C322 1.356 . S
N320 H332 0.984 . S
N320 H333 0.985 1_545 S
N321 C323 1.356 . S
N321 H326 0.984 1_565 S
N321 H327 0.985 . S
C322 C316 1.379 . S
C322 C319 1.363 1_545 S
C322 N320 1.356 . S
C323 C317 1.363 1_565 S
C323 C318 1.379 . S
C323 N321 1.356 . S
N324 C316 1.356 . S
N324 H330 0.984 . S
N324 H331 0.984 . S
N325 C318 1.356 . S
N325 H328 0.984 . S
N325 H329 0.985 . S
H326 N321 0.984 1_545 S
H327 N321 0.985 . S
H328 N325 0.984 . S
H329 N325 0.985 . S
H330 N324 0.984 . S
H331 N324 0.984 . S
H332 N320 0.984 . S
H333 N320 0.985 1_565 S
C334 C335 1.363 . S
C334 C340 1.379 1_545 S
C334 N342 1.356 . S
C335 C334 1.363 . S
C335 C341 1.363 1_455 S
C336 C337 1.363 . S
C336 C341 1.379 1_565 S
C336 N343 1.356 . S
C337 C336 1.363 . S
C337 C340 1.363 1_655 S
N338 C340 1.356 . S
N338 H350 0.984 . S
N338 H351 0.985 1_455 S
N339 C341 1.356 . S
N339 H344 0.984 1_655 S
N339 H345 0.985 . S
C340 C334 1.379 1_565 S
C340 C337 1.363 1_455 S
C340 N338 1.356 . S
C341 C335 1.363 1_655 S
C341 C336 1.379 1_545 S
C341 N339 1.356 . S
N342 C334 1.356 . S
N342 H348 0.984 . S
N342 H349 0.984 . S
N343 C336 1.356 . S
N343 H346 0.984 . S
N343 H347 0.985 . S
H344 N339 0.984 1_455 S
H345 N339 0.985 . S
H346 N343 0.984 . S
H347 N343 0.985 . S
H348 N342 0.984 . S
H349 N342 0.984 . S
H350 N338 0.984 . S
H351 N338 0.985 1_655 S
C352 C353 1.363 . S
C352 C358 1.379 . S
C352 N360 1.356 . S
C353 C352 1.363 . S
C353 C359 1.363 1_565 S
C354 C355 1.363 . S
C354 C359 1.379 . S
C354 N361 1.356 . S
C355 C354 1.363 . S
C355 C358 1.363 1_545 S
N356 C358 1.356 . S
N356 H368 0.984 . S
N356 H369 0.985 1_565 S
N357 C359 1.356 . S
N357 H362 0.984 1_545 S
N357 H363 0.985 . S
C358 C352 1.379 . S
C358 C355 1.363 1_565 S
C358 N356 1.356 . S
C359 C353 1.363 1_545 S
C359 C354 1.379 . S
C359 N357 1.356 . S
N360 C352 1.356 . S
N360 H366 0.984 . S
N360 H367 0.984 . S
N361 C354 1.356 . S
N361 H364 0.984 . S
N361 H365 0.985 . S
H362 N357 0.984 1_565 S
H363 N357 0.985 . S
H364 N361 0.984 . S
H365 N361 0.985 . S
H366 N360 0.984 . S
H367 N360 0.984 . S
H368 N356 0.984 . S
H369 N356 0.985 1_545 S
C370 C371 1.363 1_455 S
C370 C376 1.379 1_565 S
C370 N378 1.356 . S
C371 C370 1.363 1_655 S
C371 C377 1.363 . S
C372 C373 1.363 1_655 S
C372 C377 1.379 1_545 S
C372 N379 1.356 . S
C373 C372 1.363 1_455 S
C373 C376 1.363 . S
N374 C376 1.356 . S
N374 H386 0.984 . S
N374 H387 0.985 . S
N375 C377 1.356 . S
N375 H380 0.984 . S
N375 H381 0.985 . S
C376 C370 1.379 1_545 S
C376 C373 1.363 . S
C376 N374 1.356 . S
C377 C371 1.363 . S
C377 C372 1.379 1_565 S
C377 N375 1.356 . S
N378 C370 1.356 . S
N378 H384 0.984 . S
N378 H385 0.984 1_455 S
N379 C372 1.356 . S
N379 H382 0.984 1_655 S
N379 H383 0.985 . S
H380 N375 0.984 . S
H381 N375 0.985 . S
H382 N379 0.984 1_455 S
H383 N379 0.985 . S
H384 N378 0.984 . S
H385 N378 0.984 1_655 S
H386 N374 0.984 . S
H387 N374 0.985 . S
C388 C389 1.363 . S
C388 C394 1.379 1_455 S
C388 N396 1.356 . S
C389 C388 1.363 . S
C389 C395 1.363 . S
C390 C391 1.363 . S
C390 C395 1.379 1_655 S
C390 N397 1.356 . S
C391 C390 1.363 . S
C391 C394 1.363 . S
N392 C394 1.356 . S
N392 H404 0.984 . S
N392 H405 0.985 . S
N393 C395 1.356 . S
N393 H398 0.984 . S
N393 H399 0.985 . S
C394 C388 1.379 1_655 S
C394 C391 1.363 . S
C394 N392 1.356 . S
C395 C389 1.363 . S
C395 C390 1.379 1_455 S
C395 N393 1.356 . S
N396 C388 1.356 . S
N396 H402 0.984 . S
N396 H403 0.984 . S
N397 C390 1.356 . S
N397 H400 0.984 . S
N397 H401 0.985 . S
H398 N393 0.984 . S
H399 N393 0.985 . S
H400 N397 0.984 . S
H401 N397 0.985 . S
H402 N396 0.984 . S
H403 N396 0.984 . S
H404 N392 0.984 . S
H405 N392 0.985 . S
C406 C407 1.363 . S
C406 C412 1.379 . S
C406 N414 1.356 . S
C407 C406 1.363 . S
C407 C413 1.363 . S
C408 C409 1.363 . S
C408 C413 1.379 . S
C408 N415 1.356 . S
C409 C408 1.363 . S
C409 C412 1.363 . S
N410 C412 1.356 . S
N410 H422 0.984 . S
N410 H423 0.985 . S
N411 C413 1.356 . S
N411 H416 0.984 . S
N411 H417 0.985 . S
C412 C406 1.379 . S
C412 C409 1.363 . S
C412 N410 1.356 . S
C413 C407 1.363 . S
C413 C408 1.379 . S
C413 N411 1.356 . S
N414 C406 1.356 . S
N414 H420 0.984 . S
N414 H421 0.984 . S
N415 C408 1.356 . S
N415 H418 0.984 . S
N415 H419 0.985 . S
H416 N411 0.984 . S
H417 N411 0.985 . S
H418 N415 0.984 . S
H419 N415 0.985 . S
H420 N414 0.984 . S
H421 N414 0.984 . S
H422 N410 0.984 . S
H423 N410 0.985 . S
C424 C425 1.363 . S
C424 C430 1.379 . S
C424 N432 1.356 . S
C425 C424 1.363 . S
C425 C431 1.363 . S
C426 C427 1.363 . S
C426 C431 1.379 . S
C426 N433 1.356 . S
C427 C426 1.363 . S
C427 C430 1.363 . S
N428 C430 1.356 . S
N428 H440 0.984 . S
N428 H441 0.985 . S
N429 C431 1.356 . S
N429 H434 0.984 . S
N429 H435 0.985 . S
C430 C424 1.379 . S
C430 C427 1.363 . S
C430 N428 1.356 . S
C431 C425 1.363 . S
C431 C426 1.379 . S
C431 N429 1.356 . S
N432 C424 1.356 . S
N432 H438 0.984 . S
N432 H439 0.984 . S
N433 C426 1.356 . S
N433 H436 0.984 . S
N433 H437 0.985 . S
H434 N429 0.984 . S
H435 N429 0.985 . S
H436 N433 0.984 . S
H437 N433 0.985 . S
H438 N432 0.984 . S
H439 N432 0.984 . S
H440 N428 0.984 . S
H441 N428 0.985 . S
C442 C443 1.363 . S
C442 C448 1.379 1_565 S
C442 N450 1.356 . S
C443 C442 1.363 . S
C443 C449 1.363 . S
C444 C445 1.363 . S
C444 C449 1.379 1_545 S
C444 N451 1.356 . S
C445 C444 1.363 . S
C445 C448 1.363 . S
N446 C448 1.356 . S
N446 H458 0.984 . S
N446 H459 0.985 . S
N447 C449 1.356 . S
N447 H452 0.984 . S
N447 H453 0.985 . S
C448 C442 1.379 1_545 S
C448 C445 1.363 . S
C448 N446 1.356 . S
C449 C443 1.363 . S
C449 C444 1.379 1_565 S
C449 N447 1.356 . S
N450 C442 1.356 . S
N450 H456 0.984 . S
N450 H457 0.984 . S
N451 C444 1.356 . S
N451 H454 0.984 . S
N451 H455 0.985 . S
H452 N447 0.984 . S
H453 N447 0.985 . S
H454 N451 0.984 . S
H455 N451 0.985 . S
H456 N450 0.984 . S
H457 N450 0.984 . S
H458 N446 0.984 . S
H459 N446 0.985 . S
C460 C461 1.363 1_545 S
C460 C466 1.379 1_655 S
C460 N468 1.356 . S
C461 C460 1.363 1_565 S
C461 C467 1.363 . S
C462 C463 1.363 1_565 S
C462 C467 1.379 1_455 S
C462 N469 1.356 . S
C463 C462 1.363 1_545 S
C463 C466 1.363 . S
N464 C466 1.356 . S
N464 H476 0.984 . S
N464 H477 0.985 . S
N465 C467 1.356 . S
N465 H470 0.984 . S
N465 H471 0.985 . S
C466 C460 1.379 1_455 S
C466 C463 1.363 . S
C466 N464 1.356 . S
C467 C461 1.363 . S
C467 C462 1.379 1_655 S
C467 N465 1.356 . S
N468 C460 1.356 . S
N468 H474 0.984 . S
N468 H475 0.984 1_545 S
N469 C462 1.356 . S
N469 H472 0.984 1_565 S
N469 H473 0.985 . S
H470 N465 0.984 . S
H471 N465 0.985 . S
H472 N469 0.984 1_545 S
H473 N469 0.985 . S
H474 N468 0.984 . S
H475 N468 0.984 1_565 S
H476 N464 0.984 . S
H477 N464 0.985 . S
C478 C479 1.363 . S
C478 C484 1.379 . S
C478 N486 1.356 . S
C479 C478 1.363 . S
C479 C485 1.363 1_455 S
C480 C481 1.363 . S
C480 C485 1.379 . S
C480 N487 1.356 . S
C481 C480 1.363 . S
C481 C484 1.363 1_655 S
N482 C484 1.356 . S
N482 H494 0.984 . S
N482 H495 0.985 1_455 S
N483 C485 1.356 . S
N483 H488 0.984 1_655 S
N483 H489 0.985 . S
C484 C478 1.379 . S
C484 C481 1.363 1_455 S
C484 N482 1.356 . S
C485 C479 1.363 1_655 S
C485 C480 1.379 . S
C485 N483 1.356 . S
N486 C478 1.356 . S
N486 H492 0.984 . S
N486 H493 0.984 . S
N487 C480 1.356 . S
N487 H490 0.984 . S
N487 H491 0.985 . S
H488 N483 0.984 1_455 S
H489 N483 0.985 . S
H490 N487 0.984 . S
H491 N487 0.985 . S
H492 N486 0.984 . S
H493 N486 0.984 . S
H494 N482 0.984 . S
H495 N482 0.985 1_655 S
C496 C497 1.363 . S
C496 C502 1.379 . S
C496 N504 1.356 . S
C497 C496 1.363 . S
C497 C503 1.363 . S
C498 C499 1.363 . S
C498 C503 1.379 . S
C498 N505 1.356 . S
C499 C498 1.363 . S
C499 C502 1.363 . S
N500 C502 1.356 . S
N500 H512 0.984 . S
N500 H513 0.985 . S
N501 C503 1.356 . S
N501 H506 0.984 . S
N501 H507 0.985 . S
C502 C496 1.379 . S
C502 C499 1.363 . S
C502 N500 1.356 . S
C503 C497 1.363 . S
C503 C498 1.379 . S
C503 N501 1.356 . S
N504 C496 1.356 . S
N504 H510 0.984 . S
N504 H511 0.984 . S
N505 C498 1.356 . S
N505 H508 0.984 . S
N505 H509 0.985 . S
H506 N501 0.984 . S
H507 N501 0.985 . S
H508 N505 0.984 . S
H509 N505 0.985 . S
H510 N504 0.984 . S
H511 N504 0.984 . S
H512 N500 0.984 . S
H513 N500 0.985 . S
C514 C515 1.363 . S
C514 C520 1.379 . S
C514 N522 1.356 . S
C515 C514 1.363 . S
C515 C521 1.363 . S
C516 C517 1.363 . S
C516 C521 1.379 . S
C516 N523 1.356 . S
C517 C516 1.363 . S
C517 C520 1.363 . S
N518 C520 1.356 . S
N518 H530 0.984 . S
N518 H531 0.985 . S
N519 C521 1.356 . S
N519 H524 0.984 . S
N519 H525 0.985 . S
C520 C514 1.379 . S
C520 C517 1.363 . S
C520 N518 1.356 . S
C521 C515 1.363 . S
C521 C516 1.379 . S
C521 N519 1.356 . S
N522 C514 1.356 . S
N522 H528 0.984 . S
N522 H529 0.984 . S
N523 C516 1.356 . S
N523 H526 0.984 . S
N523 H527 0.985 . S
H524 N519 0.984 . S
H525 N519 0.985 . S
H526 N523 0.984 . S
H527 N523 0.985 . S
H528 N522 0.984 . S
H529 N522 0.984 . S
H530 N518 0.984 . S
H531 N518 0.985 . S
C532 C533 1.363 . S
C532 C538 1.379 . S
C532 N540 1.356 . S
C533 C532 1.363 . S
C533 C539 1.363 . S
C534 C535 1.363 . S
C534 C539 1.379 . S
C534 N541 1.356 . S
C535 C534 1.363 . S
C535 C538 1.363 . S
N536 C538 1.356 . S
N536 H548 0.984 . S
N536 H549 0.985 . S
N537 C539 1.356 . S
N537 H542 0.984 . S
N537 H543 0.985 . S
C538 C532 1.379 . S
C538 C535 1.363 . S
C538 N536 1.356 . S
C539 C533 1.363 . S
C539 C534 1.379 . S
C539 N537 1.356 . S
N540 C532 1.356 . S
N540 H546 0.984 . S
N540 H547 0.984 . S
N541 C534 1.356 . S
N541 H544 0.984 . S
N541 H545 0.985 . S
H542 N537 0.984 . S
H543 N537 0.985 . S
H544 N541 0.984 . S
H545 N541 0.985 . S
H546 N540 0.984 . S
H547 N540 0.984 . S
H548 N536 0.984 . S
H549 N536 0.985 . S
C550 C551 1.363 . S
C550 C556 1.379 . S
C550 N558 1.356 . S
C551 C550 1.363 . S
C551 C557 1.363 . S
C552 C553 1.363 . S
C552 C557 1.379 . S
C552 N559 1.356 . S
C553 C552 1.363 . S
C553 C556 1.363 . S
N554 C556 1.356 . S
N554 H566 0.984 . S
N554 H567 0.985 . S
N555 C557 1.356 . S
N555 H560 0.984 . S
N555 H561 0.985 . S
C556 C550 1.379 . S
C556 C553 1.363 . S
C556 N554 1.356 . S
C557 C551 1.363 . S
C557 C552 1.379 . S
C557 N555 1.356 . S
N558 C550 1.356 . S
N558 H564 0.984 . S
N558 H565 0.984 . S
N559 C552 1.356 . S
N559 H562 0.984 . S
N559 H563 0.985 . S
H560 N555 0.984 . S
H561 N555 0.985 . S
H562 N559 0.984 . S
H563 N559 0.985 . S
H564 N558 0.984 . S
H565 N558 0.984 . S
H566 N554 0.984 . S
H567 N554 0.985 . S
C568 C569 1.363 . S
C568 C574 1.379 . S
C568 N576 1.356 . S
C569 C568 1.363 . S
C569 C575 1.363 . S
C570 C571 1.363 . S
C570 C575 1.379 . S
C570 N577 1.356 . S
C571 C570 1.363 . S
C571 C574 1.363 . S
N572 C574 1.356 . S
N572 H584 0.984 . S
N572 H585 0.985 . S
N573 C575 1.356 . S
N573 H578 0.984 . S
N573 H579 0.985 . S
C574 C568 1.379 . S
C574 C571 1.363 . S
C574 N572 1.356 . S
C575 C569 1.363 . S
C575 C570 1.379 . S
C575 N573 1.356 . S
N576 C568 1.356 . S
N576 H582 0.984 . S
N576 H583 0.984 . S
N577 C570 1.356 . S
N577 H580 0.984 . S
N577 H581 0.985 . S
H578 N573 0.984 . S
H579 N573 0.985 . S
H580 N577 0.984 . S
H581 N577 0.985 . S
H582 N576 0.984 . S
H583 N576 0.984 . S
H584 N572 0.984 . S
H585 N572 0.985 . S
C586 C587 1.363 . S
C586 C592 1.379 . S
C586 N594 1.356 . S
C587 C586 1.363 . S
C587 C593 1.363 . S
C588 C589 1.363 . S
C588 C593 1.379 . S
C588 N595 1.356 . S
C589 C588 1.363 . S
C589 C592 1.363 . S
N590 C592 1.356 . S
N590 H602 0.984 . S
N590 H603 0.985 . S
N591 C593 1.356 . S
N591 H596 0.984 . S
N591 H597 0.985 . S
C592 C586 1.379 . S
C592 C589 1.363 . S
C592 N590 1.356 . S
C593 C587 1.363 . S
C593 C588 1.379 . S
C593 N591 1.356 . S
N594 C586 1.356 . S
N594 H600 0.984 . S
N594 H601 0.984 . S
N595 C588 1.356 . S
N595 H598 0.984 . S
N595 H599 0.985 . S
H596 N591 0.984 . S
H597 N591 0.985 . S
H598 N595 0.984 . S
H599 N595 0.985 . S
H600 N594 0.984 . S
H601 N594 0.984 . S
H602 N590 0.984 . S
H603 N590 0.985 . S
C604 C605 1.363 . S
C604 C610 1.379 . S
C604 N612 1.356 . S
C605 C604 1.363 . S
C605 C611 1.363 . S
C606 C607 1.363 . S
C606 C611 1.379 . S
C606 N613 1.356 . S
C607 C606 1.363 . S
C607 C610 1.363 . S
N608 C610 1.356 . S
N608 H620 0.984 . S
N608 H621 0.985 . S
N609 C611 1.356 . S
N609 H614 0.984 . S
N609 H615 0.985 . S
C610 C604 1.379 . S
C610 C607 1.363 . S
C610 N608 1.356 . S
C611 C605 1.363 . S
C611 C606 1.379 . S
C611 N609 1.356 . S
N612 C604 1.356 . S
N612 H618 0.984 . S
N612 H619 0.984 . S
N613 C606 1.356 . S
N613 H616 0.984 . S
N613 H617 0.985 . S
H614 N609 0.984 . S
H615 N609 0.985 . S
H616 N613 0.984 . S
H617 N613 0.985 . S
H618 N612 0.984 . S
H619 N612 0.984 . S
H620 N608 0.984 . S
H621 N608 0.985 . S
C622 C623 1.363 . S
C622 C628 1.379 . S
C622 N630 1.356 . S
C623 C622 1.363 . S
C623 C629 1.363 . S
C624 C625 1.363 . S
C624 C629 1.379 . S
C624 N631 1.356 . S
C625 C624 1.363 . S
C625 C628 1.363 . S
N626 C628 1.356 . S
N626 H638 0.984 . S
N626 H639 0.985 . S
N627 C629 1.356 . S
N627 H632 0.984 . S
N627 H633 0.985 . S
C628 C622 1.379 . S
C628 C625 1.363 . S
C628 N626 1.356 . S
C629 C623 1.363 . S
C629 C624 1.379 . S
C629 N627 1.356 . S
N630 C622 1.356 . S
N630 H636 0.984 . S
N630 H637 0.984 . S
N631 C624 1.356 . S
N631 H634 0.984 . S
N631 H635 0.985 . S
H632 N627 0.984 . S
H633 N627 0.985 . S
H634 N631 0.984 . S
H635 N631 0.985 . S
H636 N630 0.984 . S
H637 N630 0.984 . S
H638 N626 0.984 . S
H639 N626 0.985 . S
C640 C641 1.363 . S
C640 C646 1.379 . S
C640 N648 1.356 . S
C641 C640 1.363 . S
C641 C647 1.363 . S
C642 C643 1.363 . S
C642 C647 1.379 . S
C642 N649 1.356 . S
C643 C642 1.363 . S
C643 C646 1.363 . S
N644 C646 1.356 . S
N644 H656 0.984 . S
N644 H657 0.985 . S
N645 C647 1.356 . S
N645 H650 0.984 . S
N645 H651 0.985 . S
C646 C640 1.379 . S
C646 C643 1.363 . S
C646 N644 1.356 . S
C647 C641 1.363 . S
C647 C642 1.379 . S
C647 N645 1.356 . S
N648 C640 1.356 . S
N648 H654 0.984 . S
N648 H655 0.984 . S
N649 C642 1.356 . S
N649 H652 0.984 . S
N649 H653 0.985 . S
H650 N645 0.984 . S
H651 N645 0.985 . S
H652 N649 0.984 . S
H653 N649 0.985 . S
H654 N648 0.984 . S
H655 N648 0.984 . S
H656 N644 0.984 . S
H657 N644 0.985 . S
C658 C659 1.363 . S
C658 C664 1.379 . S
C658 N666 1.356 . S
C659 C658 1.363 . S
C659 C665 1.363 . S
C660 C661 1.363 . S
C660 C665 1.379 . S
C660 N667 1.356 . S
C661 C660 1.363 . S
C661 C664 1.363 . S
N662 C664 1.356 . S
N662 H674 0.984 . S
N662 H675 0.985 . S
N663 C665 1.356 . S
N663 H668 0.984 . S
N663 H669 0.985 . S
C664 C658 1.379 . S
C664 C661 1.363 . S
C664 N662 1.356 . S
C665 C659 1.363 . S
C665 C660 1.379 . S
C665 N663 1.356 . S
N666 C658 1.356 . S
N666 H672 0.984 . S
N666 H673 0.984 . S
N667 C660 1.356 . S
N667 H670 0.984 . S
N667 H671 0.985 . S
H668 N663 0.984 . S
H669 N663 0.985 . S
H670 N667 0.984 . S
H671 N667 0.985 . S
H672 N666 0.984 . S
H673 N666 0.984 . S
H674 N662 0.984 . S
H675 N662 0.985 . S
C676 C677 1.363 . S
C676 C682 1.379 . S
C676 N684 1.356 . S
C677 C676 1.363 . S
C677 C683 1.363 . S
C678 C679 1.363 . S
C678 C683 1.379 . S
C678 N685 1.356 . S
C679 C678 1.363 . S
C679 C682 1.363 . S
N680 C682 1.356 . S
N680 H692 0.984 . S
N680 H693 0.985 . S
N681 C683 1.356 . S
N681 H686 0.984 . S
N681 H687 0.985 . S
C682 C676 1.379 . S
C682 C679 1.363 . S
C682 N680 1.356 . S
C683 C677 1.363 . S
C683 C678 1.379 . S
C683 N681 1.356 . S
N684 C676 1.356 . S
N684 H690 0.984 . S
N684 H691 0.984 . S
N685 C678 1.356 . S
N685 H688 0.984 . S
N685 H689 0.985 . S
H686 N681 0.984 . S
H687 N681 0.985 . S
H688 N685 0.984 . S
H689 N685 0.985 . S
H690 N684 0.984 . S
H691 N684 0.984 . S
H692 N680 0.984 . S
H693 N680 0.985 . S
C694 C695 1.363 . S
C694 C700 1.379 1_556 S
C694 N702 1.356 . S
C695 C694 1.363 . S
C695 C701 1.363 . S
C696 C697 1.363 . S
C696 C701 1.379 1_554 S
C696 N703 1.356 . S
C697 C696 1.363 . S
C697 C700 1.363 . S
N698 C700 1.356 . S
N698 H710 0.984 . S
N698 H711 0.985 . S
N699 C701 1.356 . S
N699 H704 0.984 . S
N699 H705 0.985 . S
C700 C694 1.379 1_554 S
C700 C697 1.363 . S
C700 N698 1.356 . S
C701 C695 1.363 . S
C701 C696 1.379 1_556 S
C701 N699 1.356 . S
N702 C694 1.356 . S
N702 H708 0.984 . S
N702 H709 0.984 . S
N703 C696 1.356 . S
N703 H706 0.984 . S
N703 H707 0.985 . S
H704 N699 0.984 . S
H705 N699 0.985 . S
H706 N703 0.984 . S
H707 N703 0.985 . S
H708 N702 0.984 . S
H709 N702 0.984 . S
H710 N698 0.984 . S
H711 N698 0.985 . S
C712 C713 1.363 . S
C712 C718 1.379 1_554 S
C712 N720 1.356 . S
C713 C712 1.363 . S
C713 C719 1.363 . S
C714 C715 1.363 . S
C714 C719 1.379 1_556 S
C714 N721 1.356 . S
C715 C714 1.363 . S
C715 C718 1.363 . S
N716 C718 1.356 . S
N716 H728 0.984 . S
N716 H729 0.985 . S
N717 C719 1.356 . S
N717 H722 0.984 . S
N717 H723 0.985 . S
C718 C712 1.379 1_556 S
C718 C715 1.363 . S
C718 N716 1.356 . S
C719 C713 1.363 . S
C719 C714 1.379 1_554 S
C719 N717 1.356 . S
N720 C712 1.356 . S
N720 H726 0.984 . S
N720 H727 0.984 . S
N721 C714 1.356 . S
N721 H724 0.984 . S
N721 H725 0.985 . S
H722 N717 0.984 . S
H723 N717 0.985 . S
H724 N721 0.984 . S
H725 N721 0.985 . S
H726 N720 0.984 . S
H727 N720 0.984 . S
H728 N716 0.984 . S
H729 N716 0.985 . S
C730 C731 1.363 . S
C730 C736 1.379 . S
C730 N738 1.356 . S
C731 C730 1.363 . S
C731 C737 1.363 . S
C732 C733 1.363 . S
C732 C737 1.379 . S
C732 N739 1.356 . S
C733 C732 1.363 . S
C733 C736 1.363 . S
N734 C736 1.356 . S
N734 H746 0.984 . S
N734 H747 0.985 . S
N735 C737 1.356 . S
N735 H740 0.984 . S
N735 H741 0.985 . S
C736 C730 1.379 . S
C736 C733 1.363 . S
C736 N734 1.356 . S
C737 C731 1.363 . S
C737 C732 1.379 . S
C737 N735 1.356 . S
N738 C730 1.356 . S
N738 H744 0.984 . S
N738 H745 0.984 . S
N739 C732 1.356 . S
N739 H742 0.984 . S
N739 H743 0.985 . S
H740 N735 0.984 . S
H741 N735 0.985 . S
H742 N739 0.984 . S
H743 N739 0.985 . S
H744 N738 0.984 . S
H745 N738 0.984 . S
H746 N734 0.984 . S
H747 N734 0.985 . S
C748 C749 1.363 . S
C748 C754 1.379 . S
C748 N756 1.356 . S
C749 C748 1.363 . S
C749 C755 1.363 . S
C750 C751 1.363 . S
C750 C755 1.379 . S
C750 N757 1.356 . S
C751 C750 1.363 . S
C751 C754 1.363 . S
N752 C754 1.356 . S
N752 H764 0.984 . S
N752 H765 0.985 . S
N753 C755 1.356 . S
N753 H758 0.984 . S
N753 H759 0.985 . S
C754 C748 1.379 . S
C754 C751 1.363 . S
C754 N752 1.356 . S
C755 C749 1.363 . S
C755 C750 1.379 . S
C755 N753 1.356 . S
N756 C748 1.356 . S
N756 H762 0.984 . S
N756 H763 0.984 . S
N757 C750 1.356 . S
N757 H760 0.984 . S
N757 H761 0.985 . S
H758 N753 0.984 . S
H759 N753 0.985 . S
H760 N757 0.984 . S
H761 N757 0.985 . S
H762 N756 0.984 . S
H763 N756 0.984 . S
H764 N752 0.984 . S
H765 N752 0.985 . S
C766 C767 1.363 . S
C766 C772 1.379 . S
C766 N774 1.356 . S
C767 C766 1.363 . S
C767 C773 1.363 . S
C768 C769 1.363 . S
C768 C773 1.379 . S
C768 N775 1.356 . S
C769 C768 1.363 . S
C769 C772 1.363 . S
N770 C772 1.356 . S
N770 H782 0.984 . S
N770 H783 0.985 . S
N771 C773 1.356 . S
N771 H776 0.984 . S
N771 H777 0.985 . S
C772 C766 1.379 . S
C772 C769 1.363 . S
C772 N770 1.356 . S
C773 C767 1.363 . S
C773 C768 1.379 . S
C773 N771 1.356 . S
N774 C766 1.356 . S
N774 H780 0.984 . S
N774 H781 0.984 . S
N775 C768 1.356 . S
N775 H778 0.984 . S
N775 H779 0.985 . S
H776 N771 0.984 . S
H777 N771 0.985 . S
H778 N775 0.984 . S
H779 N775 0.985 . S
H780 N774 0.984 . S
H781 N774 0.984 . S
H782 N770 0.984 . S
H783 N770 0.985 . S
C209 C134 1.673 . S
C211 C4 1.673 . S
C227 C17 1.673 . S
C229 C153 1.673 . S
C245 C108 1.673 . S
C247 C36 1.673 . S
C263 C121 1.673 . S
C265 C43 1.673 . S
C281 C56 1.673 . S
C283 C186 1.673 . S
C299 C199 1.673 . S
C301 C69 1.673 . S
C317 C82 1.673 . S
C319 C166 1.673 . S
C335 C173 1.673 . S
C337 C95 1.673 . S
C353 C135 1.344 . S
C355 C5 1.344 . S
C371 C18 1.344 . S
C373 C146 1.344 . S
C389 C29 1.344 . S
C391 C109 1.344 . S
C407 C44 1.344 . S
C409 C122 1.344 . S
C425 C57 1.344 . S
C427 C187 1.344 . S
C443 C70 1.344 . S
C445 C200 1.344 . S
C461 C159 1.344 . S
C463 C83 1.344 . S
C479 C174 1.344 . S
C481 C96 1.344 . S
C497 C10 1.456 . S
C499 C88 1.456 . S
C515 C23 1.456 . S
C517 C101 1.456 . S
C533 C30 1.456 . S
C535 C62 1.456 . S
C551 C49 1.456 . S
C553 C75 1.456 . S
C569 C114 1.456 . S
C571 C192 1.456 . S
C587 C205 1.456 . S
C589 C127 1.456 . S
C605 C140 1.457 . S
C607 C160 1.457 . S
C623 C179 1.457 . S
C625 C147 1.457 . S
C641 C3 1.383 . S
C643 C198 1.383 . S
C659 C161 1.383 . S
C661 C16 1.383 . S
C677 C172 1.383 . S
C679 C31 1.383 . S
C695 C185 1.383 . S
C697 C42 1.383 . S
C713 C120 1.383 . S
C715 C55 1.382 . S
C731 C133 1.382 . S
C733 C68 1.383 . S
C749 C81 1.383 . S
C751 C148 1.383 . S
C767 C94 1.383 . S
C769 C107 1.383 . S
