# Generated by pormake.
# Topology mok, (4)-cn, num edge types: 1
# Building blocks:
#     Node 0, Type 0, BuildingBlock: AZAVOO_clean_sbu_0, # of connection points: 4
#     Node 1, Type 0, BuildingBlock: AZAVOO_clean_sbu_0, # of connection points: 4
#     Node 2, Type 0, BuildingBlock: AZAVOO_clean_sbu_0, # of connection points: 4
#     Node 3, Type 0, BuildingBlock: AZAVOO_clean_sbu_0, # of connection points: 4
#     Node 4, Type 0, BuildingBlock: AZAVOO_clean_sbu_0, # of connection points: 4
#     Node 5, Type 0, BuildingBlock: AZAVOO_clean_sbu_0, # of connection points: 4
#     Node 6, Type 0, BuildingBlock: AZAVOO_clean_sbu_0, # of connection points: 4
#     Node 7, Type 0, BuildingBlock: AZAVOO_clean_sbu_0, # of connection points: 4
#     Edge 8, Type (0, 0), BuildingBlock: KIFKEQ_clean_linker_1, # of connection points: 2
#     Edge 9, Type (0, 0), BuildingBlock: KIFKEQ_clean_linker_1, # of connection points: 2
#     Edge 10, Type (0, 0), BuildingBlock: KIFKEQ_clean_linker_1, # of connection points: 2
#     Edge 11, Type (0, 0), BuildingBlock: KIFKEQ_clean_linker_1, # of connection points: 2
#     Edge 12, Type (0, 0), BuildingBlock: KIFKEQ_clean_linker_1, # of connection points: 2
#     Edge 13, Type (0, 0), BuildingBlock: KIFKEQ_clean_linker_1, # of connection points: 2
#     Edge 14, Type (0, 0), BuildingBlock: KIFKEQ_clean_linker_1, # of connection points: 2
#     Edge 15, Type (0, 0), BuildingBlock: KIFKEQ_clean_linker_1, # of connection points: 2
#     Edge 16, Type (0, 0), BuildingBlock: KIFKEQ_clean_linker_1, # of connection points: 2
#     Edge 17, Type (0, 0), BuildingBlock: KIFKEQ_clean_linker_1, # of connection points: 2
#     Edge 18, Type (0, 0), BuildingBlock: KIFKEQ_clean_linker_1, # of connection points: 2
#     Edge 19, Type (0, 0), BuildingBlock: KIFKEQ_clean_linker_1, # of connection points: 2
#     Edge 20, Type (0, 0), BuildingBlock: KIFKEQ_clean_linker_1, # of connection points: 2
#     Edge 21, Type (0, 0), BuildingBlock: KIFKEQ_clean_linker_1, # of connection points: 2
#     Edge 22, Type (0, 0), BuildingBlock: KIFKEQ_clean_linker_1, # of connection points: 2
#     Edge 23, Type (0, 0), BuildingBlock: KIFKEQ_clean_linker_1, # of connection points: 2
# Relax obj value: 0.033
# Max RMSD: 0.042
# Mean RMSD: 0.042
data_MOF--net-mok--node1-AZAVOO_clean_sbu_0--edge1-KIFKEQ_clean_linker_1
_symmetry_space_group_name_H-M    P1
_symmetry_Int_Tables_number       1
_symmetry_cell_setting            triclinic
loop_
_symmetry_equiv_pos_as_xyz
'x, y, z'
_cell_length_a     43.941682
_cell_length_b     21.89484
_cell_length_c     27.427751
_cell_angle_alpha  89.911664
_cell_angle_beta   89.975325
_cell_angle_gamma 89.965838
loop_
_atom_site_label
_atom_site_type_symbol
_atom_site_fract_x
_atom_site_fract_y
_atom_site_fract_z
_atom_type_partial_charge
Mg0 Mg 0.57676 0.32415 0.02448 0.0
O1 O 0.62703 0.29351 0.02025 0.0
O2 O 0.63503 0.23271 0.08473 0.0
Mg3 Mg 0.59186 0.22677 0.13036 0.0
C4 C 0.64424 0.25891 0.04584 0.0
C5 C 0.5687 0.41422 0.94037 0.0
O6 O 0.56077 0.44643 0.9787 0.0
O7 O 0.56076 0.23016 0.00012 0.0
O8 O 0.56983 0.1744 0.06704 0.0
O9 O 0.59019 0.4043 0.06883 0.0
O10 O 0.57727 0.31495 0.10007 0.0
C11 C 0.56025 0.17956 0.02325 0.0
C12 C 0.58679 0.36991 0.10687 0.0
O13 O 0.57758 0.35943 0.94645 0.0
Mg14 Mg 0.43025 0.66112 0.01894 0.0
O15 O 0.37996 0.69076 0.02252 0.0
O16 O 0.37425 0.7474 0.08973 0.0
Mg17 Mg 0.41963 0.75139 0.12977 0.0
C18 C 0.3636 0.72316 0.05105 0.0
C19 C 0.4458 0.60162 0.92059 0.0
O20 O 0.47134 0.59395 0.94476 0.0
O21 O 0.44446 0.75693 -0.00408 0.0
O22 O 0.43826 0.8081 0.06585 0.0
O23 O 0.41963 0.57801 0.06182 0.0
O24 O 0.43375 0.66577 0.09451 0.0
C25 C 0.44576 0.80602 0.02086 0.0
C26 C 0.42482 0.61022 0.1005 0.0
O27 O 0.42407 0.63044 0.94072 0.0
Mg28 Mg 0.56392 0.64367 0.50416 0.0
O29 O 0.61425 0.67431 0.49504 0.0
O30 O 0.61743 0.71086 0.41902 0.0
Mg31 Mg 0.57158 0.70644 0.38094 0.0
C32 C 0.62957 0.698 0.46006 0.0
C33 C 0.55159 0.58699 0.60092 0.0
O34 O 0.53322 0.56068 0.56954 0.0
O35 O 0.54872 0.74328 0.51351 0.0
O36 O 0.55298 0.77479 0.43629 0.0
O37 O 0.57542 0.55202 0.47266 0.0
O38 O 0.55986 0.63108 0.42941 0.0
C39 C 0.54607 0.78463 0.48083 0.0
C40 C 0.56977 0.57583 0.43041 0.0
O41 O 0.56924 0.62894 0.58571 0.0
Mg42 Mg 0.43824 0.3335 0.501 0.0
O43 O 0.38645 0.3157 0.49284 0.0
O44 O 0.37972 0.2815 0.41665 0.0
Mg45 Mg 0.42556 0.26878 0.37958 0.0
C46 C 0.36927 0.29779 0.45805 0.0
C47 C 0.41766 0.39962 0.59352 0.0
O48 O 0.40283 0.42906 0.55918 0.0
O49 O 0.44646 0.23157 0.51325 0.0
O50 O 0.43872 0.19757 0.43743 0.0
O51 O 0.43305 0.42581 0.46675 0.0
O52 O 0.44317 0.34173 0.42566 0.0
C53 C 0.44533 0.18818 0.48221 0.0
C54 C 0.43699 0.39914 0.42519 0.0
O55 O 0.43321 0.35288 0.58197 0.0
Mg56 Mg 0.07164 0.83835 0.0195 0.0
O57 O 0.12189 0.80714 0.02017 0.0
O58 O 0.12872 0.75423 0.08926 0.0
Mg59 Mg 0.08461 0.7534 0.13273 0.0
C60 C 0.13863 0.77582 0.04903 0.0
C61 C 0.06602 0.91996 0.93064 0.0
O62 O 0.05611 0.95372 0.96689 0.0
O63 O 0.05592 0.74162 0.00112 0.0
O64 O 0.06405 0.69393 0.07222 0.0
O65 O 0.08459 0.92317 0.05853 0.0
O66 O 0.07078 0.8379 0.09552 0.0
C67 C 0.05519 0.69385 0.02786 0.0
C68 C 0.0806 0.89319 0.09871 0.0
O69 O 0.07477 0.86569 0.93954 0.0
Mg70 Mg 0.93673 0.15602 0.01947 0.0
O71 O 0.88614 0.18444 0.01969 0.0
O72 O 0.87801 0.23633 0.08874 0.0
Mg73 Mg 0.92184 0.23899 0.13289 0.0
C74 C 0.86873 0.21457 0.04825 0.0
C75 C 0.91601 0.08622 0.92809 0.0
O76 O 0.89853 0.06263 0.96211 0.0
O77 O 0.95098 0.25388 0.00171 0.0
O78 O 0.94199 0.3003 0.07296 0.0
O79 O 0.92513 0.06989 0.05806 0.0
O80 O 0.93717 0.15568 0.09559 0.0
C81 C 0.95101 0.30138 0.02866 0.0
C82 C 0.92817 0.09977 0.09841 0.0
O83 O 0.93393 0.12955 0.93932 0.0
Mg84 Mg 0.07788 0.16689 0.49939 0.0
O85 O 0.12799 0.19981 0.49205 0.0
O86 O 0.13087 0.24279 0.41801 0.0
Mg87 Mg 0.0844 0.24483 0.38185 0.0
C88 C 0.14315 0.22584 0.45797 0.0
C89 C 0.06819 0.0959 0.59073 0.0
O90 O 0.052 0.06921 0.55658 0.0
O91 O 0.06199 0.26362 0.51619 0.0
O92 O 0.06649 0.30768 0.44286 0.0
O93 O 0.08966 0.07995 0.46191 0.0
O94 O 0.0734 0.16274 0.4239 0.0
C95 C 0.05957 0.3099 0.4881 0.0
C96 C 0.08353 0.10761 0.42136 0.0
O97 O 0.08357 0.14308 0.57952 0.0
Mg98 Mg 0.92051 0.82879 0.50105 0.0
O99 O 0.87113 0.7927 0.49303 0.0
O100 O 0.8696 0.74458 0.42126 0.0
Mg101 Mg 0.916 0.74812 0.3846 0.0
C102 C 0.85673 0.76244 0.46048 0.0
C103 C 0.9354 0.8778 0.60157 0.0
O104 O 0.96108 0.88324 0.57737 0.0
O105 O 0.93798 0.73317 0.51938 0.0
O106 O 0.93507 0.68811 0.44628 0.0
O107 O 0.90807 0.91441 0.46184 0.0
O108 O 0.92577 0.83164 0.42569 0.0
C109 C 0.94164 0.68695 0.49165 0.0
C110 C 0.91525 0.88636 0.42194 0.0
O111 O 0.91281 0.85289 0.58058 0.0
H112 H 0.83216 0.14016 -0.00644 0.0
H113 H 0.83248 0.30983 0.07373 0.0
H114 H 0.7771 0.15061 0.98078 0.0
H115 H 0.77789 0.32073 0.06005 0.0
H116 H 0.6819 0.34058 0.00039 0.0
H117 H 0.73714 0.33115 0.98935 0.0
H118 H 0.73405 0.14856 0.04864 0.0
H119 H 0.67921 0.1583 0.06064 0.0
C120 C 0.8206 0.1802 0.00752 0.0
C121 C 0.83647 0.22388 0.03505 0.0
C122 C 0.78919 0.18611 0.00026 0.0
C123 C 0.77338 0.23655 0.01934 0.0
C124 C 0.7896 0.28176 0.04453 0.0
C125 C 0.82077 0.27522 0.0527 0.0
C126 C 0.69299 0.29805 0.01009 0.0
C127 C 0.6764 0.25038 0.03179 0.0
C128 C 0.72451 0.29275 0.00389 0.0
C129 C 0.73974 0.23914 0.01817 0.0
C130 C 0.72281 0.19013 0.03694 0.0
C131 C 0.6915 0.19591 0.04412 0.0
H132 H 0.17283 0.67645 0.07157 0.0
H133 H 0.17738 0.85213 0.00014 0.0
H134 H 0.22767 0.66379 0.06109 0.0
H135 H 0.23264 0.83995 0.99078 0.0
H136 H 0.32847 0.82078 0.0753 0.0
H137 H 0.27373 0.83304 0.06326 0.0
H138 H 0.27014 0.65843 0.99076 0.0
H139 H 0.32527 0.64659 0.00172 0.0
C140 C 0.18554 0.71198 0.05307 0.0
C141 C 0.17095 0.76544 0.03692 0.0
C142 C 0.21684 0.70453 0.04681 0.0
C143 C 0.23426 0.75093 0.02521 0.0
C144 C 0.2196 0.80356 0.00754 0.0
C145 C 0.18808 0.81042 0.01277 0.0
C146 C 0.31608 0.78537 0.05619 0.0
C147 C 0.33105 0.73252 0.03976 0.0
C148 C 0.28485 0.79266 0.04897 0.0
C149 C 0.26785 0.74671 0.02604 0.0
C150 C 0.28286 0.6945 0.00847 0.0
C151 C 0.3143 0.68781 0.0147 0.0
H152 H 0.82035 0.69664 0.39975 0.0
H153 H 0.81831 0.79726 0.53531 0.0
H154 H 0.76589 0.68078 0.40504 0.0
H155 H 0.76308 0.78104 0.54028 0.0
H156 H 0.66609 0.67958 0.54097 0.0
H157 H 0.72149 0.69384 0.54632 0.0
H158 H 0.72292 0.75669 0.39714 0.0
H159 H 0.66842 0.7428 0.3915 0.0
C160 C 0.80838 0.71522 0.43091 0.0
C161 C 0.8238 0.74904 0.46678 0.0
C162 C 0.77706 0.70612 0.43382 0.0
C163 C 0.7602 0.73037 0.4727 0.0
C164 C 0.77558 0.76184 0.50991 0.0
C165 C 0.80714 0.7713 0.5069 0.0
C166 C 0.67826 0.69676 0.50946 0.0
C167 C 0.66273 0.70944 0.46567 0.0
C168 C 0.7099 0.70511 0.51263 0.0
C169 C 0.7265 0.72561 0.47193 0.0
C170 C 0.71082 0.73981 0.42884 0.0
C171 C 0.67944 0.73199 0.42576 0.0
H172 H 0.18492 0.2212 0.38605 0.0
H173 H 0.17628 0.25062 0.54098 0.0
H174 H 0.23897 0.2408 0.39075 0.0
H175 H 0.23086 0.27398 0.54565 0.0
H176 H 0.33703 0.25474 0.5366 0.0
H177 H 0.28193 0.23715 0.54049 0.0
H178 H 0.27197 0.32219 0.39891 0.0
H179 H 0.3267 0.33568 0.39413 0.0
C180 C 0.19464 0.23257 0.42119 0.0
C181 C 0.17633 0.23505 0.46304 0.0
C182 C 0.2257 0.24444 0.42389 0.0
C183 C 0.23939 0.26072 0.46838 0.0
C184 C 0.22119 0.26161 0.51075 0.0
C185 C 0.18994 0.24839 0.50814 0.0
C186 C 0.32281 0.27007 0.50672 0.0
C187 C 0.33599 0.29572 0.46477 0.0
C188 C 0.29127 0.26016 0.5089 0.0
C189 C 0.27241 0.27679 0.46947 0.0
C190 C 0.28572 0.30648 0.42919 0.0
C191 C 0.3171 0.3149 0.42656 0.0
H192 H 0.575 0.31411 0.19429 0.0
H193 H 0.6096 0.48132 0.13131 0.0
H194 H 0.57523 0.36154 0.27485 0.0
H195 H 0.6101 0.52823 0.21175 0.0
H196 H 0.59696 0.46376 0.41879 0.0
H197 H 0.60677 0.41006 0.34192 0.0
H198 H 0.56581 0.55935 0.26245 0.0
H199 H 0.5558 0.61219 0.3383 0.0
C200 C 0.58331 0.36045 0.19777 0.0
C201 C 0.59186 0.3943 0.15637 0.0
C202 C 0.58353 0.3875 0.24393 0.0
C203 C 0.59224 0.44882 0.24937 0.0
C204 C 0.60273 0.48121 0.20843 0.0
C205 C 0.60254 0.45425 0.1624 0.0
C206 C 0.59019 0.48506 0.38482 0.0
C207 C 0.57599 0.54264 0.3846 0.0
C208 C 0.59578 0.45434 0.34094 0.0
C209 C 0.58748 0.481 0.29622 0.0
C210 C 0.57319 0.53835 0.29623 0.0
C211 C 0.56741 0.56865 0.33984 0.0
H212 H 0.40259 0.4978 0.12402 0.0
H213 H 0.44001 0.66163 0.18799 0.0
H214 H 0.40244 0.44893 0.20385 0.0
H215 H 0.44033 0.61226 0.26779 0.0
H216 H 0.41559 0.51545 0.41136 0.0
H217 H 0.40874 0.56909 0.3338 0.0
H218 H 0.44284 0.41111 0.25693 0.0
H219 H 0.44945 0.35772 0.33383 0.0
C220 C 0.41053 0.52358 0.15519 0.0
C221 C 0.42151 0.58341 0.14965 0.0
C222 C 0.4106 0.49546 0.20087 0.0
C223 C 0.42172 0.52649 0.24199 0.0
C224 C 0.43143 0.58731 0.23686 0.0
C225 C 0.43133 0.61551 0.1911 0.0
C226 C 0.42152 0.49223 0.37783 0.0
C227 C 0.43277 0.43213 0.37867 0.0
C228 C 0.41767 0.52297 0.33349 0.0
C229 C 0.42497 0.4941 0.28924 0.0
C230 C 0.43634 0.43413 0.29029 0.0
C231 C 0.44022 0.40356 0.33445 0.0
H232 H 0.48859 0.54417 0.86452 0.0
H233 H 0.3934 0.5939 0.86765 0.0
H234 H 0.48108 0.49403 0.78614 0.0
H235 H 0.38567 0.54221 0.79026 0.0
H236 H 0.3901 0.50269 0.62738 0.0
H237 H 0.3974 0.55203 0.70575 0.0
H238 H 0.45713 0.40544 0.75058 0.0
H239 H 0.45046 0.35673 0.67137 0.0
C240 C 0.46606 0.54434 0.84851 0.0
C241 C 0.44161 0.57317 0.87222 0.0
C242 C 0.46169 0.51514 0.80378 0.0
C243 C 0.43273 0.51388 0.78196 0.0
C244 C 0.40836 0.54301 0.80567 0.0
C245 C 0.41277 0.57251 0.85017 0.0
C246 C 0.40459 0.48062 0.65405 0.0
C247 C 0.41969 0.42575 0.6431 0.0
C248 C 0.40871 0.50887 0.69912 0.0
C249 C 0.42791 0.48281 0.73446 0.0
C250 C 0.44254 0.42721 0.7239 0.0
C251 C 0.43847 0.39896 0.67869 0.0
H252 H 0.55842 0.53354 0.91645 0.0
H253 H 0.57296 0.35541 0.85276 0.0
H254 H 0.55317 0.5776 0.83501 0.0
H255 H 0.56752 0.39968 0.77142 0.0
H256 H 0.52105 0.4904 0.6401 0.0
H257 H 0.52462 0.45025 0.72277 0.0
H258 H 0.5878 0.5936 0.76025 0.0
H259 H 0.5844 0.63406 0.67717 0.0
C260 C 0.56057 0.50381 0.88511 0.0
C261 C 0.56621 0.44098 0.89101 0.0
C262 C 0.55766 0.52914 0.83855 0.0
C263 C 0.55992 0.49201 0.79706 0.0
C264 C 0.56543 0.4292 0.8029 0.0
C265 C 0.56873 0.40398 0.84942 0.0
C266 C 0.53565 0.51361 0.66591 0.0
C267 C 0.55265 0.5652 0.65196 0.0
C268 C 0.53777 0.49037 0.71318 0.0
C269 C 0.55668 0.51854 0.74767 0.0
C270 C 0.57299 0.57117 0.7343 0.0
C271 C 0.57112 0.59414 0.68677 0.0
H272 H 0.07013 0.84574 0.18945 0.0
H273 H 0.10442 0.00617 0.11575 0.0
H274 H 0.07513 0.89765 0.26755 0.0
H275 H 0.1098 0.05776 0.19395 0.0
H276 H 0.06977 0.15174 0.33085 0.0
H277 H 0.07361 0.0987 0.25329 0.0
H278 H 0.11118 0.94098 0.32658 0.0
H279 H 0.10707 0.994 0.40456 0.0
C280 C 0.07924 0.89166 0.18997 0.0
C281 C 0.0867 0.92196 0.1464 0.0
C282 C 0.08222 0.92135 0.23477 0.0
C283 C 0.09268 0.98196 0.23688 0.0
C284 C 0.10124 0.01138 0.19343 0.0
C285 C 0.09828 0.9817 0.14866 0.0
C286 C 0.07927 0.10613 0.33044 0.0
C287 C 0.08811 0.07711 0.37389 0.0
C288 C 0.08157 0.07575 0.2859 0.0
C289 C 0.0927 0.01561 0.2838 0.0
C290 C 0.10222 0.98707 0.32711 0.0
C291 C 0.09998 0.01755 0.37172 0.0
H292 H 0.93141 0.84106 0.33294 0.0
H293 H 0.89251 8e-05 0.40234 0.0
H294 H 0.93057 0.89366 0.25486 0.0
H295 H 0.89137 0.05265 0.32376 0.0
H296 H 0.93663 0.14692 0.18973 0.0
H297 H 0.92938 0.09512 0.2676 0.0
H298 H 0.89701 0.93478 0.19212 0.0
H299 H 0.90466 0.98621 0.11422 0.0
C300 C 0.92217 0.88686 0.33143 0.0
C301 C 0.91203 0.91636 0.37389 0.0
C302 C 0.9216 0.917 0.28657 0.0
C303 C 0.91094 0.97739 0.28311 0.0
C304 C 0.90005 0.00638 0.32536 0.0
C305 C 0.90055 0.97613 0.3703 0.0
C306 C 0.9276 0.10092 0.18976 0.0
C307 C 0.92135 0.07059 0.14579 0.0
C308 C 0.92332 0.07131 0.23442 0.0
C309 C 0.91275 0.01073 0.23602 0.0
C310 C 0.9056 0.98114 0.19206 0.0
C311 C 0.90987 0.01073 0.14745 0.0
H312 H 0.98018 0.92736 0.658 0.0
H313 H 0.88345 0.8918 0.6554 0.0
H314 H 0.97472 0.97829 0.73633 0.0
H315 H 0.87782 0.94443 0.73307 0.0
H316 H 0.88444 0.98692 0.89595 0.0
H317 H 0.88921 0.93522 0.81794 0.0
H318 H 0.95449 0.07061 0.77077 0.0
H319 H 0.95036 0.12143 0.84954 0.0
C320 C 0.95773 0.93038 0.67415 0.0
C321 C 0.93224 0.90546 0.65048 0.0
C322 C 0.95456 0.96012 0.71889 0.0
C323 C 0.92578 0.96593 0.74088 0.0
C324 C 0.90036 0.94022 0.71746 0.0
C325 C 0.90357 0.91016 0.67284 0.0
C326 C 0.89967 0.00595 0.86886 0.0
C327 C 0.91708 0.05824 0.87904 0.0
C328 C 0.90232 0.97638 0.82398 0.0
C329 C 0.92233 -0.00146 0.78809 0.0
C330 C 0.93925 0.05167 0.7979 0.0
C331 C 0.93668 0.08115 0.8429 0.0
H332 H 0.05631 0.03803 0.9032 0.0
H333 H 0.0777 0.85962 0.84519 0.0
H334 H 0.05731 0.08066 0.82108 0.0
H335 H 0.0787 0.90262 0.76285 0.0
H336 H 0.04063 0.99175 0.62257 0.0
H337 H 0.04058 0.94925 0.70466 0.0
H338 H 0.0959 0.0997 0.75441 0.0
H339 H 0.09591 0.14273 0.67204 0.0
C340 C 0.06128 0.00788 0.87294 0.0
C341 C 0.06694 0.94539 0.88069 0.0
C342 C 0.06201 0.03246 0.82597 0.0
C343 C 0.06814 -0.00502 0.78568 0.0
C344 C 0.07371 0.93245 0.7933 0.0
C345 C 0.07327 0.90792 0.8404 0.0
C346 C 0.05286 0.01584 0.65091 0.0
C347 C 0.06836 0.07061 0.64076 0.0
C348 C 0.05294 0.99122 0.69787 0.0
C349 C 0.06836 0.02101 0.73579 0.0
C350 C 0.08369 0.07599 0.72584 0.0
C351 C 0.0838 0.10046 0.6787 0.0
H352 H 0.49367 0.81434 0.95799 0.0
H353 H 0.42773 0.92278 0.03619 0.0
H354 H 0.52257 0.9072 0.9388 0.0
H355 H 0.456 0.01526 0.01592 0.0
H356 H 0.50965 0.17614 0.96578 0.0
H357 H 0.47978 0.08499 0.94539 0.0
H358 H 0.54904 0.97102 0.01022 0.0
H359 H 0.57831 0.0617 0.03175 0.0
C360 C 0.48477 0.85821 0.96938 0.0
C361 C 0.45874 0.86164 -0.00101 0.0
C362 C 0.50128 0.91114 0.95847 0.0
C363 C 0.49146 0.96814 0.97595 0.0
C364 C 0.46387 0.97195 0.00158 0.0
C365 C 0.44783 0.91906 0.01348 0.0
C366 C 0.51885 0.13144 0.97422 0.0
C367 C 0.54603 0.12567 0.00077 0.0
C368 C 0.5018 0.0795 0.96261 0.0
C369 C 0.51218 0.02122 0.97625 0.0
C370 C 0.54071 0.01538 -0.00118 0.0
C371 C 0.55732 0.06721 0.01146 0.0
H372 H 0.51456 0.8197 0.56353 0.0
H373 H 0.54808 0.88694 0.42517 0.0
H374 H 0.48711 0.91673 0.57564 0.0
H375 H 0.52069 0.98186 0.43728 0.0
H376 H 0.43156 0.08272 0.43539 0.0
H377 H 0.45568 0.98364 0.44632 0.0
H378 H 0.50473 0.05175 0.571 0.0
H379 H 0.48055 0.1522 0.5602 0.0
C380 C 0.51653 0.85528 0.53625 0.0
C381 C 0.53311 0.84518 0.49302 0.0
C382 C 0.50085 0.91053 0.54322 0.0
C383 C 0.50161 0.95588 0.507 0.0
C384 C 0.51955 0.94707 0.46539 0.0
C385 C 0.53517 0.89257 0.45853 0.0
C386 C 0.44693 0.07649 0.46587 0.0
C387 C 0.45462 0.12565 0.49635 0.0
C388 C 0.4606 0.01969 0.47218 0.0
C389 C 0.48215 0.01067 0.50916 0.0
C390 C 0.48802 0.05788 0.54238 0.0
C391 C 0.47424 0.11519 0.53609 0.0
H392 H 0.07653 0.57921 0.04195 0.0
H393 H 0.00414 0.68009 0.97233 0.0
H394 H 0.0502 0.48349 0.02444 0.0
H395 H 0.97717 0.58393 0.95617 0.0
H396 H 0.93046 0.41566 0.04752 0.0
H397 H 0.95614 0.51197 0.0295 0.0
H398 H 0.02634 0.41421 0.95194 0.0
H399 H 1.00003 0.31747 0.96876 0.0
C400 C 0.05531 0.58063 0.02185 0.0
C401 C 0.04223 0.63676 0.00863 0.0
C402 C 0.04037 0.52595 0.01158 0.0
C403 C 0.01172 0.52655 0.98898 0.0
C404 C 0.99934 0.58248 0.97341 0.0
C405 C 0.01473 0.63726 0.98256 0.0
C406 C 0.9509 0.41494 0.02541 0.0
C407 C 0.96342 0.3593 0.00977 0.0
C408 C 0.96545 0.47 0.01482 0.0
C409 C 0.99315 0.47029 0.98936 0.0
C410 C 0.0049 0.41498 0.97144 0.0
C411 C 0.98987 0.35985 0.98099 0.0
H412 H 0.01265 0.3208 0.55261 0.0
H413 H 0.07443 0.42642 0.46375 0.0
H414 H 0.98295 0.41346 0.56942 0.0
H415 H 0.04544 0.51901 0.48206 0.0
H416 H 0.99245 0.67955 0.54815 0.0
H417 H 0.02332 0.58759 0.56256 0.0
H418 H 0.95491 0.47796 0.49163 0.0
H419 H 0.92476 0.56977 0.47551 0.0
C420 C 0.02047 0.36412 0.53816 0.0
C421 C 0.04568 0.36662 0.50667 0.0
C422 C 0.00349 0.41689 0.54773 0.0
C423 C 0.0121 0.47306 0.52718 0.0
C424 C 0.03861 0.47626 0.49875 0.0
C425 C 0.05505 0.42336 0.48809 0.0
C426 C 0.98366 0.63548 0.53705 0.0
C427 C 0.95635 0.63141 0.51068 0.0
C428 C 0.0013 0.58315 0.54516 0.0
C429 C 0.99131 0.52602 0.52834 0.0
C430 C 0.96286 0.52147 0.50542 0.0
C431 C 0.94571 0.57387 0.49607 0.0
loop_
_geom_bond_atom_site_label_1
_geom_bond_atom_site_label_2
_geom_bond_distance
_geom_bond_site_symmetry_2
_ccdc_geom_bond_type
Mg0 O1 2.028 . S
Mg0 O7 1.986 . S
Mg0 O9 2.114 . S
Mg0 O10 2.251 . S
Mg0 O13 2.010 1_554 S
O1 Mg0 2.028 . S
O1 C4 1.250 . S
O2 Mg3 2.028 . S
O2 C4 1.248 . S
Mg3 O2 2.028 . S
Mg3 O8 2.032 . S
Mg3 O10 2.079 . S
C4 O1 1.250 . S
C4 O2 1.248 . S
C5 O6 1.264 . S
C5 O13 1.249 . S
O6 C5 1.264 . S
O7 Mg0 1.986 . S
O7 C11 1.246 . S
O8 Mg3 2.032 . S
O8 C11 1.259 . S
O9 Mg0 2.114 . S
O9 C12 1.252 . S
O10 Mg0 2.251 . S
O10 Mg3 2.079 . S
O10 C12 1.273 . S
C11 O7 1.246 . S
C11 O8 1.259 . S
C12 O9 1.252 . S
C12 O10 1.273 . S
O13 Mg0 2.010 1_556 S
O13 C5 1.249 . S
Mg14 O15 2.028 . S
Mg14 O21 1.986 . S
Mg14 O23 2.114 . S
Mg14 O24 2.251 . S
Mg14 O27 2.010 1_554 S
O15 Mg14 2.028 . S
O15 C18 1.250 . S
O16 Mg17 2.028 . S
O16 C18 1.248 . S
Mg17 O16 2.028 . S
Mg17 O22 2.032 . S
Mg17 O24 2.079 . S
C18 O15 1.250 . S
C18 O16 1.248 . S
C19 O20 1.264 . S
C19 O27 1.249 . S
O20 C19 1.264 . S
O21 Mg14 1.986 . S
O21 C25 1.246 . S
O22 Mg17 2.032 . S
O22 C25 1.259 . S
O23 Mg14 2.114 . S
O23 C26 1.252 . S
O24 Mg14 2.251 . S
O24 Mg17 2.079 . S
O24 C26 1.273 . S
C25 O21 1.246 . S
C25 O22 1.259 . S
C26 O23 1.252 . S
C26 O24 1.273 . S
O27 Mg14 2.010 1_556 S
O27 C19 1.249 . S
Mg28 O29 2.028 . S
Mg28 O35 1.986 . S
Mg28 O37 2.114 . S
Mg28 O38 2.251 . S
Mg28 O41 2.010 . S
O29 Mg28 2.028 . S
O29 C32 1.250 . S
O30 Mg31 2.028 . S
O30 C32 1.248 . S
Mg31 O30 2.028 . S
Mg31 O36 2.032 . S
Mg31 O38 2.079 . S
C32 O29 1.250 . S
C32 O30 1.248 . S
C33 O34 1.264 . S
C33 O41 1.249 . S
O34 C33 1.264 . S
O35 Mg28 1.986 . S
O35 C39 1.246 . S
O36 Mg31 2.032 . S
O36 C39 1.259 . S
O37 Mg28 2.114 . S
O37 C40 1.252 . S
O38 Mg28 2.251 . S
O38 Mg31 2.079 . S
O38 C40 1.273 . S
C39 O35 1.246 . S
C39 O36 1.259 . S
C40 O37 1.252 . S
C40 O38 1.273 . S
O41 Mg28 2.010 . S
O41 C33 1.249 . S
Mg42 O43 2.028 . S
Mg42 O49 1.986 . S
Mg42 O51 2.114 . S
Mg42 O52 2.251 . S
Mg42 O55 2.010 . S
O43 Mg42 2.028 . S
O43 C46 1.250 . S
O44 Mg45 2.028 . S
O44 C46 1.248 . S
Mg45 O44 2.028 . S
Mg45 O50 2.032 . S
Mg45 O52 2.079 . S
C46 O43 1.250 . S
C46 O44 1.248 . S
C47 O48 1.264 . S
C47 O55 1.249 . S
O48 C47 1.264 . S
O49 Mg42 1.986 . S
O49 C53 1.246 . S
O50 Mg45 2.032 . S
O50 C53 1.259 . S
O51 Mg42 2.114 . S
O51 C54 1.252 . S
O52 Mg42 2.251 . S
O52 Mg45 2.079 . S
O52 C54 1.273 . S
C53 O49 1.246 . S
C53 O50 1.259 . S
C54 O51 1.252 . S
C54 O52 1.273 . S
O55 Mg42 2.010 . S
O55 C47 1.249 . S
Mg56 O57 2.028 . S
Mg56 O63 1.986 . S
Mg56 O65 2.114 . S
Mg56 O66 2.251 . S
Mg56 O69 2.010 1_554 S
O57 Mg56 2.028 . S
O57 C60 1.250 . S
O58 Mg59 2.028 . S
O58 C60 1.248 . S
Mg59 O58 2.028 . S
Mg59 O64 2.032 . S
Mg59 O66 2.079 . S
C60 O57 1.250 . S
C60 O58 1.248 . S
C61 O62 1.264 . S
C61 O69 1.249 . S
O62 C61 1.264 . S
O63 Mg56 1.986 . S
O63 C67 1.246 . S
O64 Mg59 2.032 . S
O64 C67 1.259 . S
O65 Mg56 2.114 . S
O65 C68 1.252 . S
O66 Mg56 2.251 . S
O66 Mg59 2.079 . S
O66 C68 1.273 . S
C67 O63 1.246 . S
C67 O64 1.259 . S
C68 O65 1.252 . S
C68 O66 1.273 . S
O69 Mg56 2.010 1_556 S
O69 C61 1.249 . S
Mg70 O71 2.028 . S
Mg70 O77 1.986 . S
Mg70 O79 2.114 . S
Mg70 O80 2.251 . S
Mg70 O83 2.010 1_554 S
O71 Mg70 2.028 . S
O71 C74 1.250 . S
O72 Mg73 2.028 . S
O72 C74 1.248 . S
Mg73 O72 2.028 . S
Mg73 O78 2.032 . S
Mg73 O80 2.079 . S
C74 O71 1.250 . S
C74 O72 1.248 . S
C75 O76 1.264 . S
C75 O83 1.249 . S
O76 C75 1.264 . S
O77 Mg70 1.986 . S
O77 C81 1.246 . S
O78 Mg73 2.032 . S
O78 C81 1.259 . S
O79 Mg70 2.114 . S
O79 C82 1.252 . S
O80 Mg70 2.251 . S
O80 Mg73 2.079 . S
O80 C82 1.273 . S
C81 O77 1.246 . S
C81 O78 1.259 . S
C82 O79 1.252 . S
C82 O80 1.273 . S
O83 Mg70 2.010 1_556 S
O83 C75 1.249 . S
Mg84 O85 2.028 . S
Mg84 O91 1.986 . S
Mg84 O93 2.114 . S
Mg84 O94 2.251 . S
Mg84 O97 2.010 . S
O85 Mg84 2.028 . S
O85 C88 1.250 . S
O86 Mg87 2.028 . S
O86 C88 1.248 . S
Mg87 O86 2.028 . S
Mg87 O92 2.032 . S
Mg87 O94 2.079 . S
C88 O85 1.250 . S
C88 O86 1.248 . S
C89 O90 1.264 . S
C89 O97 1.249 . S
O90 C89 1.264 . S
O91 Mg84 1.986 . S
O91 C95 1.246 . S
O92 Mg87 2.032 . S
O92 C95 1.259 . S
O93 Mg84 2.114 . S
O93 C96 1.252 . S
O94 Mg84 2.251 . S
O94 Mg87 2.079 . S
O94 C96 1.273 . S
C95 O91 1.246 . S
C95 O92 1.259 . S
C96 O93 1.252 . S
C96 O94 1.273 . S
O97 Mg84 2.010 . S
O97 C89 1.249 . S
Mg98 O99 2.028 . S
Mg98 O105 1.986 . S
Mg98 O107 2.114 . S
Mg98 O108 2.251 . S
Mg98 O111 2.010 . S
O99 Mg98 2.028 . S
O99 C102 1.250 . S
O100 Mg101 2.028 . S
O100 C102 1.248 . S
Mg101 O100 2.028 . S
Mg101 O106 2.032 . S
Mg101 O108 2.079 . S
C102 O99 1.250 . S
C102 O100 1.248 . S
C103 O104 1.264 . S
C103 O111 1.249 . S
O104 C103 1.264 . S
O105 Mg98 1.986 . S
O105 C109 1.246 . S
O106 Mg101 2.032 . S
O106 C109 1.259 . S
O107 Mg98 2.114 . S
O107 C110 1.252 . S
O108 Mg98 2.251 . S
O108 Mg101 2.079 . S
O108 C110 1.273 . S
C109 O105 1.246 . S
C109 O106 1.259 . S
C110 O107 1.252 . S
C110 O108 1.273 . S
O111 Mg98 2.010 . S
O111 C103 1.249 . S
H112 C120 0.950 . S
H113 C125 0.950 . S
H114 C122 0.950 . S
H115 C124 0.950 . S
H116 C126 0.950 . S
H117 C128 0.950 . S
H118 C130 0.950 . S
H119 C131 0.950 . S
C120 H112 0.950 . S
C120 C121 1.386 . S
C120 C122 1.391 . S
C121 C120 1.386 . S
C121 C125 1.393 . S
C122 H114 0.950 . S
C122 C120 1.391 . S
C122 C123 1.400 . S
C123 C122 1.400 . S
C123 C124 1.398 . S
C123 C129 1.491 . S
C124 H115 0.950 . S
C124 C123 1.398 . S
C124 C125 1.391 . S
C125 H113 0.950 . S
C125 C121 1.393 . S
C125 C124 1.391 . S
C126 H116 0.950 . S
C126 C127 1.386 . S
C126 C128 1.391 . S
C127 C126 1.386 . S
C127 C131 1.393 . S
C128 H117 0.950 . S
C128 C126 1.391 . S
C128 C129 1.400 . S
C129 C123 1.491 . S
C129 C128 1.400 . S
C129 C130 1.398 . S
C130 H118 0.950 . S
C130 C129 1.398 . S
C130 C131 1.391 . S
C131 H119 0.950 . S
C131 C127 1.393 . S
C131 C130 1.391 . S
H132 C140 0.950 . S
H133 C145 0.950 . S
H134 C142 0.950 . S
H135 C144 0.950 . S
H136 C146 0.950 . S
H137 C148 0.950 . S
H138 C150 0.950 . S
H139 C151 0.950 . S
C140 H132 0.950 . S
C140 C141 1.386 . S
C140 C142 1.391 . S
C141 C140 1.386 . S
C141 C145 1.393 . S
C142 H134 0.950 . S
C142 C140 1.391 . S
C142 C143 1.400 . S
C143 C142 1.400 . S
C143 C144 1.398 . S
C143 C149 1.491 . S
C144 H135 0.950 . S
C144 C143 1.398 . S
C144 C145 1.391 . S
C145 H133 0.950 . S
C145 C141 1.393 . S
C145 C144 1.391 . S
C146 H136 0.950 . S
C146 C147 1.386 . S
C146 C148 1.391 . S
C147 C146 1.386 . S
C147 C151 1.393 . S
C148 H137 0.950 . S
C148 C146 1.391 . S
C148 C149 1.400 . S
C149 C143 1.491 . S
C149 C148 1.400 . S
C149 C150 1.398 . S
C150 H138 0.950 . S
C150 C149 1.398 . S
C150 C151 1.391 . S
C151 H139 0.950 . S
C151 C147 1.393 . S
C151 C150 1.391 . S
H152 C160 0.950 . S
H153 C165 0.950 . S
H154 C162 0.950 . S
H155 C164 0.950 . S
H156 C166 0.950 . S
H157 C168 0.950 . S
H158 C170 0.950 . S
H159 C171 0.950 . S
C160 H152 0.950 . S
C160 C161 1.386 . S
C160 C162 1.391 . S
C161 C160 1.386 . S
C161 C165 1.393 . S
C162 H154 0.950 . S
C162 C160 1.391 . S
C162 C163 1.400 . S
C163 C162 1.400 . S
C163 C164 1.398 . S
C163 C169 1.491 . S
C164 H155 0.950 . S
C164 C163 1.398 . S
C164 C165 1.391 . S
C165 H153 0.950 . S
C165 C161 1.393 . S
C165 C164 1.391 . S
C166 H156 0.950 . S
C166 C167 1.386 . S
C166 C168 1.391 . S
C167 C166 1.386 . S
C167 C171 1.393 . S
C168 H157 0.950 . S
C168 C166 1.391 . S
C168 C169 1.400 . S
C169 C163 1.491 . S
C169 C168 1.400 . S
C169 C170 1.398 . S
C170 H158 0.950 . S
C170 C169 1.398 . S
C170 C171 1.391 . S
C171 H159 0.950 . S
C171 C167 1.393 . S
C171 C170 1.391 . S
H172 C180 0.950 . S
H173 C185 0.950 . S
H174 C182 0.950 . S
H175 C184 0.950 . S
H176 C186 0.950 . S
H177 C188 0.950 . S
H178 C190 0.950 . S
H179 C191 0.950 . S
C180 H172 0.950 . S
C180 C181 1.386 . S
C180 C182 1.391 . S
C181 C180 1.386 . S
C181 C185 1.393 . S
C182 H174 0.950 . S
C182 C180 1.391 . S
C182 C183 1.400 . S
C183 C182 1.400 . S
C183 C184 1.398 . S
C183 C189 1.491 . S
C184 H175 0.950 . S
C184 C183 1.398 . S
C184 C185 1.391 . S
C185 H173 0.950 . S
C185 C181 1.393 . S
C185 C184 1.391 . S
C186 H176 0.950 . S
C186 C187 1.386 . S
C186 C188 1.391 . S
C187 C186 1.386 . S
C187 C191 1.393 . S
C188 H177 0.950 . S
C188 C186 1.391 . S
C188 C189 1.400 . S
C189 C183 1.491 . S
C189 C188 1.400 . S
C189 C190 1.398 . S
C190 H178 0.950 . S
C190 C189 1.398 . S
C190 C191 1.391 . S
C191 H179 0.950 . S
C191 C187 1.393 . S
C191 C190 1.391 . S
H192 C200 0.950 . S
H193 C205 0.950 . S
H194 C202 0.950 . S
H195 C204 0.950 . S
H196 C206 0.950 . S
H197 C208 0.950 . S
H198 C210 0.950 . S
H199 C211 0.950 . S
C200 H192 0.950 . S
C200 C201 1.386 . S
C200 C202 1.391 . S
C201 C200 1.386 . S
C201 C205 1.393 . S
C202 H194 0.950 . S
C202 C200 1.391 . S
C202 C203 1.400 . S
C203 C202 1.400 . S
C203 C204 1.398 . S
C203 C209 1.491 . S
C204 H195 0.950 . S
C204 C203 1.398 . S
C204 C205 1.391 . S
C205 H193 0.950 . S
C205 C201 1.393 . S
C205 C204 1.391 . S
C206 H196 0.950 . S
C206 C207 1.386 . S
C206 C208 1.391 . S
C207 C206 1.386 . S
C207 C211 1.393 . S
C208 H197 0.950 . S
C208 C206 1.391 . S
C208 C209 1.400 . S
C209 C203 1.491 . S
C209 C208 1.400 . S
C209 C210 1.398 . S
C210 H198 0.950 . S
C210 C209 1.398 . S
C210 C211 1.391 . S
C211 H199 0.950 . S
C211 C207 1.393 . S
C211 C210 1.391 . S
H212 C220 0.950 . S
H213 C225 0.950 . S
H214 C222 0.950 . S
H215 C224 0.950 . S
H216 C226 0.950 . S
H217 C228 0.950 . S
H218 C230 0.950 . S
H219 C231 0.950 . S
C220 H212 0.950 . S
C220 C221 1.386 . S
C220 C222 1.391 . S
C221 C220 1.386 . S
C221 C225 1.393 . S
C222 H214 0.950 . S
C222 C220 1.391 . S
C222 C223 1.400 . S
C223 C222 1.400 . S
C223 C224 1.398 . S
C223 C229 1.491 . S
C224 H215 0.950 . S
C224 C223 1.398 . S
C224 C225 1.391 . S
C225 H213 0.950 . S
C225 C221 1.393 . S
C225 C224 1.391 . S
C226 H216 0.950 . S
C226 C227 1.386 . S
C226 C228 1.391 . S
C227 C226 1.386 . S
C227 C231 1.393 . S
C228 H217 0.950 . S
C228 C226 1.391 . S
C228 C229 1.400 . S
C229 C223 1.491 . S
C229 C228 1.400 . S
C229 C230 1.398 . S
C230 H218 0.950 . S
C230 C229 1.398 . S
C230 C231 1.391 . S
C231 H219 0.950 . S
C231 C227 1.393 . S
C231 C230 1.391 . S
H232 C240 0.950 . S
H233 C245 0.950 . S
H234 C242 0.950 . S
H235 C244 0.950 . S
H236 C246 0.950 . S
H237 C248 0.950 . S
H238 C250 0.950 . S
H239 C251 0.950 . S
C240 H232 0.950 . S
C240 C241 1.386 . S
C240 C242 1.391 . S
C241 C240 1.386 . S
C241 C245 1.393 . S
C242 H234 0.950 . S
C242 C240 1.391 . S
C242 C243 1.400 . S
C243 C242 1.400 . S
C243 C244 1.398 . S
C243 C249 1.491 . S
C244 H235 0.950 . S
C244 C243 1.398 . S
C244 C245 1.391 . S
C245 H233 0.950 . S
C245 C241 1.393 . S
C245 C244 1.391 . S
C246 H236 0.950 . S
C246 C247 1.386 . S
C246 C248 1.391 . S
C247 C246 1.386 . S
C247 C251 1.393 . S
C248 H237 0.950 . S
C248 C246 1.391 . S
C248 C249 1.400 . S
C249 C243 1.491 . S
C249 C248 1.400 . S
C249 C250 1.398 . S
C250 H238 0.950 . S
C250 C249 1.398 . S
C250 C251 1.391 . S
C251 H239 0.950 . S
C251 C247 1.393 . S
C251 C250 1.391 . S
H252 C260 0.950 . S
H253 C265 0.950 . S
H254 C262 0.950 . S
H255 C264 0.950 . S
H256 C266 0.950 . S
H257 C268 0.950 . S
H258 C270 0.950 . S
H259 C271 0.950 . S
C260 H252 0.950 . S
C260 C261 1.386 . S
C260 C262 1.391 . S
C261 C260 1.386 . S
C261 C265 1.393 . S
C262 H254 0.950 . S
C262 C260 1.391 . S
C262 C263 1.400 . S
C263 C262 1.400 . S
C263 C264 1.398 . S
C263 C269 1.491 . S
C264 H255 0.950 . S
C264 C263 1.398 . S
C264 C265 1.391 . S
C265 H253 0.950 . S
C265 C261 1.393 . S
C265 C264 1.391 . S
C266 H256 0.950 . S
C266 C267 1.386 . S
C266 C268 1.391 . S
C267 C266 1.386 . S
C267 C271 1.393 . S
C268 H257 0.950 . S
C268 C266 1.391 . S
C268 C269 1.400 . S
C269 C263 1.491 . S
C269 C268 1.400 . S
C269 C270 1.398 . S
C270 H258 0.950 . S
C270 C269 1.398 . S
C270 C271 1.391 . S
C271 H259 0.950 . S
C271 C267 1.393 . S
C271 C270 1.391 . S
H272 C280 0.950 . S
H273 C285 0.950 . S
H274 C282 0.950 . S
H275 C284 0.954 . S
H276 C286 0.950 . S
H277 C288 0.950 . S
H278 C290 0.954 . S
H279 C291 0.950 . S
C280 H272 0.950 . S
C280 C281 1.386 . S
C280 C282 1.391 . S
C281 C280 1.386 . S
C281 C285 1.393 . S
C282 H274 0.950 . S
C282 C280 1.391 . S
C282 C283 1.400 . S
C283 C282 1.400 . S
C283 C284 1.397 1_565 S
C283 C289 1.491 1_565 S
C284 H275 0.954 . S
C284 C283 1.397 1_545 S
C284 C285 1.388 1_545 S
C285 H273 0.950 . S
C285 C281 1.393 . S
C285 C284 1.388 1_565 S
C286 H276 0.950 . S
C286 C287 1.386 . S
C286 C288 1.391 . S
C287 C286 1.386 . S
C287 C291 1.393 . S
C288 H277 0.950 . S
C288 C286 1.391 . S
C288 C289 1.400 . S
C289 C283 1.491 1_545 S
C289 C288 1.400 . S
C289 C290 1.397 1_545 S
C290 H278 0.954 . S
C290 C289 1.397 1_565 S
C290 C291 1.388 1_565 S
C291 H279 0.950 . S
C291 C287 1.393 . S
C291 C290 1.388 1_545 S
H292 C300 0.950 . S
H293 C305 0.950 . S
H294 C302 0.950 . S
H295 C304 0.950 . S
H296 C306 0.950 . S
H297 C308 0.950 . S
H298 C310 0.950 . S
H299 C311 0.950 . S
C300 H292 0.950 . S
C300 C301 1.386 . S
C300 C302 1.391 . S
C301 C300 1.386 . S
C301 C305 1.393 . S
C302 H294 0.950 . S
C302 C300 1.391 . S
C302 C303 1.400 . S
C303 C302 1.400 . S
C303 C304 1.398 1_565 S
C303 C309 1.491 1_565 S
C304 H295 0.950 . S
C304 C303 1.398 1_545 S
C304 C305 1.391 1_545 S
C305 H293 0.950 . S
C305 C301 1.393 . S
C305 C304 1.391 1_565 S
C306 H296 0.950 . S
C306 C307 1.386 . S
C306 C308 1.391 . S
C307 C306 1.386 . S
C307 C311 1.393 . S
C308 H297 0.950 . S
C308 C306 1.391 . S
C308 C309 1.400 . S
C309 C303 1.491 1_545 S
C309 C308 1.400 . S
C309 C310 1.398 1_545 S
C310 H298 0.950 . S
C310 C309 1.398 1_565 S
C310 C311 1.391 1_565 S
C311 H299 0.950 . S
C311 C307 1.393 . S
C311 C310 1.391 1_545 S
H312 C320 0.950 . S
H313 C325 0.950 . S
H314 C322 0.950 1_545 S
H315 C324 0.950 . S
H316 C326 0.950 . S
H317 C328 0.950 1_565 S
H318 C330 0.950 . S
H319 C331 0.950 . S
C320 H312 0.950 . S
C320 C321 1.386 . S
C320 C322 1.391 . S
C321 C320 1.386 . S
C321 C325 1.393 . S
C322 H314 0.950 1_565 S
C322 C320 1.391 . S
C322 C323 1.400 . S
C323 C322 1.400 . S
C323 C324 1.398 . S
C323 C329 1.491 1_565 S
C324 H315 0.950 . S
C324 C323 1.398 . S
C324 C325 1.391 . S
C325 H313 0.950 . S
C325 C321 1.393 . S
C325 C324 1.391 . S
C326 H316 0.950 . S
C326 C327 1.386 . S
C326 C328 1.391 . S
C327 C326 1.386 . S
C327 C331 1.393 . S
C328 H317 0.950 1_545 S
C328 C326 1.391 . S
C328 C329 1.400 . S
C329 C323 1.491 1_545 S
C329 C328 1.400 . S
C329 C330 1.398 . S
C330 H318 0.950 . S
C330 C329 1.398 . S
C330 C331 1.391 . S
C331 H319 0.950 . S
C331 C327 1.393 . S
C331 C330 1.391 . S
H332 C340 0.950 1_545 S
H333 C345 0.950 . S
H334 C342 0.950 . S
H335 C344 0.950 . S
H336 C346 0.950 1_565 S
H337 C348 0.950 . S
H338 C350 0.950 . S
H339 C351 0.950 . S
C340 H332 0.950 1_565 S
C340 C341 1.386 . S
C340 C342 1.391 1_565 S
C341 C340 1.386 . S
C341 C345 1.393 . S
C342 H334 0.950 . S
C342 C340 1.391 1_545 S
C342 C343 1.400 1_545 S
C343 C342 1.400 1_565 S
C343 C344 1.398 . S
C343 C349 1.491 1_565 S
C344 H335 0.950 . S
C344 C343 1.398 . S
C344 C345 1.391 . S
C345 H333 0.950 . S
C345 C341 1.393 . S
C345 C344 1.391 . S
C346 H336 0.950 1_545 S
C346 C347 1.386 . S
C346 C348 1.391 1_545 S
C347 C346 1.386 . S
C347 C351 1.393 . S
C348 H337 0.950 . S
C348 C346 1.391 1_565 S
C348 C349 1.400 1_565 S
C349 C343 1.491 1_545 S
C349 C348 1.400 1_545 S
C349 C350 1.398 . S
C350 H338 0.950 . S
C350 C349 1.398 . S
C350 C351 1.391 . S
C351 H339 0.950 . S
C351 C347 1.393 . S
C351 C350 1.391 . S
H352 C360 0.950 . S
H353 C365 0.950 . S
H354 C362 0.950 . S
H355 C364 0.950 . S
H356 C366 0.950 . S
H357 C368 0.950 . S
H358 C370 0.950 . S
H359 C371 0.950 . S
C360 H352 0.950 . S
C360 C361 1.386 1_556 S
C360 C362 1.391 . S
C361 C360 1.386 1_554 S
C361 C365 1.393 . S
C362 H354 0.950 . S
C362 C360 1.391 . S
C362 C363 1.400 1_556 S
C363 C362 1.400 1_554 S
C363 C364 1.398 . S
C363 C369 1.491 1_565 S
C364 H355 0.950 . S
C364 C363 1.398 . S
C364 C365 1.391 . S
C365 H353 0.950 . S
C365 C361 1.393 . S
C365 C364 1.391 . S
C366 H356 0.950 . S
C366 C367 1.386 . S
C366 C368 1.391 . S
C367 C366 1.386 . S
C367 C371 1.393 1_554 S
C368 H357 0.950 . S
C368 C366 1.391 . S
C368 C369 1.400 . S
C369 C363 1.491 1_545 S
C369 C368 1.400 . S
C369 C370 1.398 1_554 S
C370 H358 0.950 . S
C370 C369 1.398 1_556 S
C370 C371 1.391 . S
C371 H359 0.950 . S
C371 C367 1.393 1_556 S
C371 C370 1.391 . S
H372 C380 0.950 . S
H373 C385 0.950 . S
H374 C382 0.950 . S
H375 C384 0.950 . S
H376 C386 0.950 . S
H377 C388 0.950 . S
H378 C390 0.950 . S
H379 C391 0.950 . S
C380 H372 0.950 . S
C380 C381 1.386 . S
C380 C382 1.391 . S
C381 C380 1.386 . S
C381 C385 1.393 . S
C382 H374 0.950 . S
C382 C380 1.391 . S
C382 C383 1.400 . S
C383 C382 1.400 . S
C383 C384 1.398 . S
C383 C389 1.491 1_565 S
C384 H375 0.950 . S
C384 C383 1.398 . S
C384 C385 1.391 . S
C385 H373 0.950 . S
C385 C381 1.393 . S
C385 C384 1.391 . S
C386 H376 0.950 . S
C386 C387 1.386 . S
C386 C388 1.391 . S
C387 C386 1.386 . S
C387 C391 1.393 . S
C388 H377 0.950 . S
C388 C386 1.391 . S
C388 C389 1.400 . S
C389 C383 1.491 1_545 S
C389 C388 1.400 . S
C389 C390 1.398 . S
C390 H378 0.950 . S
C390 C389 1.398 . S
C390 C391 1.391 . S
C391 H379 0.950 . S
C391 C387 1.393 . S
C391 C390 1.391 . S
H392 C400 0.950 . S
H393 C405 0.950 . S
H394 C402 0.950 . S
H395 C404 0.950 . S
H396 C406 0.950 . S
H397 C408 0.950 . S
H398 C410 0.950 . S
H399 C411 0.950 . S
C400 H392 0.950 . S
C400 C401 1.386 1_556 S
C400 C402 1.391 . S
C401 C400 1.386 1_554 S
C401 C405 1.393 . S
C402 H394 0.950 . S
C402 C400 1.391 . S
C402 C403 1.400 1_556 S
C403 C402 1.400 1_554 S
C403 C404 1.398 . S
C403 C409 1.491 1_455 S
C404 H395 0.950 . S
C404 C403 1.398 . S
C404 C405 1.391 . S
C405 H393 0.950 . S
C405 C401 1.393 . S
C405 C404 1.391 . S
C406 H396 0.950 . S
C406 C407 1.386 . S
C406 C408 1.391 . S
C407 C406 1.386 . S
C407 C411 1.393 1_554 S
C408 H397 0.950 . S
C408 C406 1.391 . S
C408 C409 1.400 . S
C409 C403 1.491 1_655 S
C409 C408 1.400 . S
C409 C410 1.398 1_554 S
C410 H398 0.950 . S
C410 C409 1.398 1_556 S
C410 C411 1.391 . S
C411 H399 0.950 . S
C411 C407 1.393 1_556 S
C411 C410 1.391 . S
H412 C420 0.950 . S
H413 C425 0.950 . S
H414 C422 0.950 . S
H415 C424 0.950 . S
H416 C426 0.950 . S
H417 C428 0.950 . S
H418 C430 0.950 . S
H419 C431 0.950 . S
C420 H412 0.950 . S
C420 C421 1.386 . S
C420 C422 1.391 . S
C421 C420 1.386 . S
C421 C425 1.393 . S
C422 H414 0.950 . S
C422 C420 1.391 . S
C422 C423 1.400 . S
C423 C422 1.400 . S
C423 C424 1.398 . S
C423 C429 1.491 1_455 S
C424 H415 0.950 . S
C424 C423 1.398 . S
C424 C425 1.391 . S
C425 H413 0.950 . S
C425 C421 1.393 . S
C425 C424 1.391 . S
C426 H416 0.950 . S
C426 C427 1.386 . S
C426 C428 1.391 . S
C427 C426 1.386 . S
C427 C431 1.393 . S
C428 H417 0.950 . S
C428 C426 1.391 . S
C428 C429 1.400 . S
C429 C423 1.491 1_655 S
C429 C428 1.400 . S
C429 C430 1.398 . S
C430 H418 0.950 . S
C430 C429 1.398 . S
C430 C431 1.391 . S
C431 H419 0.950 . S
C431 C427 1.393 . S
C431 C430 1.391 . S
C121 C74 1.473 . S
C127 C4 1.490 . S
C141 C60 1.492 . S
C147 C18 1.475 . S
C161 C102 1.475 . S
C167 C32 1.485 . S
C181 C88 1.483 . S
C187 C46 1.476 . S
C201 C12 1.398 . S
C207 C40 1.401 . S
C221 C26 1.402 . S
C227 C54 1.397 . S
C241 C19 1.249 . S
C247 C47 1.235 . S
C261 C5 1.271 . S
C267 C33 1.231 . S
C281 C68 1.398 . S
C287 C96 1.401 . S
C301 C110 1.397 . S
C307 C82 1.402 . S
C321 C103 1.252 . S
C327 C75 1.233 . S
C341 C61 1.272 . S
C347 C89 1.228 . S
C361 C25 1.498 . S
C367 C11 1.494 . S
C381 C39 1.503 . S
C387 C53 1.493 . S
C401 C67 1.495 . S
C407 C81 1.496 . S
C421 C95 1.496 . S
C427 C109 1.496 . S
