# Generated by pormake.
# Topology snz, (6)-cn, num edge types: 1
# Building blocks:
#     Node 0, Type 0, BuildingBlock: INOVEN_clean_sbu_0, # of connection points: 6
#     Node 1, Type 0, BuildingBlock: INOVEN_clean_sbu_0, # of connection points: 6
#     Node 2, Type 0, BuildingBlock: INOVEN_clean_sbu_0, # of connection points: 6
#     Node 3, Type 0, BuildingBlock: INOVEN_clean_sbu_0, # of connection points: 6
#     Node 4, Type 0, BuildingBlock: INOVEN_clean_sbu_0, # of connection points: 6
#     Node 5, Type 0, BuildingBlock: INOVEN_clean_sbu_0, # of connection points: 6
#     Node 6, Type 0, BuildingBlock: INOVEN_clean_sbu_0, # of connection points: 6
#     Node 7, Type 0, BuildingBlock: INOVEN_clean_sbu_0, # of connection points: 6
#     Node 8, Type 0, BuildingBlock: INOVEN_clean_sbu_0, # of connection points: 6
#     Edge 9, Type (0, 0), BuildingBlock: XIVTED_clean_linker_0, # of connection points: 2
#     Edge 10, Type (0, 0), BuildingBlock: XIVTED_clean_linker_0, # of connection points: 2
#     Edge 11, Type (0, 0), BuildingBlock: XIVTED_clean_linker_0, # of connection points: 2
#     Edge 12, Type (0, 0), BuildingBlock: XIVTED_clean_linker_0, # of connection points: 2
#     Edge 13, Type (0, 0), BuildingBlock: XIVTED_clean_linker_0, # of connection points: 2
#     Edge 14, Type (0, 0), BuildingBlock: XIVTED_clean_linker_0, # of connection points: 2
#     Edge 15, Type (0, 0), BuildingBlock: XIVTED_clean_linker_0, # of connection points: 2
#     Edge 16, Type (0, 0), BuildingBlock: XIVTED_clean_linker_0, # of connection points: 2
#     Edge 17, Type (0, 0), BuildingBlock: XIVTED_clean_linker_0, # of connection points: 2
#     Edge 18, Type (0, 0), BuildingBlock: XIVTED_clean_linker_0, # of connection points: 2
#     Edge 19, Type (0, 0), BuildingBlock: XIVTED_clean_linker_0, # of connection points: 2
#     Edge 20, Type (0, 0), BuildingBlock: XIVTED_clean_linker_0, # of connection points: 2
#     Edge 21, Type (0, 0), BuildingBlock: XIVTED_clean_linker_0, # of connection points: 2
#     Edge 22, Type (0, 0), BuildingBlock: XIVTED_clean_linker_0, # of connection points: 2
#     Edge 23, Type (0, 0), BuildingBlock: XIVTED_clean_linker_0, # of connection points: 2
#     Edge 24, Type (0, 0), BuildingBlock: XIVTED_clean_linker_0, # of connection points: 2
#     Edge 25, Type (0, 0), BuildingBlock: XIVTED_clean_linker_0, # of connection points: 2
#     Edge 26, Type (0, 0), BuildingBlock: XIVTED_clean_linker_0, # of connection points: 2
#     Edge 27, Type (0, 0), BuildingBlock: XIVTED_clean_linker_0, # of connection points: 2
#     Edge 28, Type (0, 0), BuildingBlock: XIVTED_clean_linker_0, # of connection points: 2
#     Edge 29, Type (0, 0), BuildingBlock: XIVTED_clean_linker_0, # of connection points: 2
#     Edge 30, Type (0, 0), BuildingBlock: XIVTED_clean_linker_0, # of connection points: 2
#     Edge 31, Type (0, 0), BuildingBlock: XIVTED_clean_linker_0, # of connection points: 2
#     Edge 32, Type (0, 0), BuildingBlock: XIVTED_clean_linker_0, # of connection points: 2
#     Edge 33, Type (0, 0), BuildingBlock: XIVTED_clean_linker_0, # of connection points: 2
#     Edge 34, Type (0, 0), BuildingBlock: XIVTED_clean_linker_0, # of connection points: 2
#     Edge 35, Type (0, 0), BuildingBlock: XIVTED_clean_linker_0, # of connection points: 2
# Relax obj value: 0.403
# Max RMSD: 0.267
# Mean RMSD: 0.173
data_MOF--net-snz--node1-INOVEN_clean_sbu_0--edge1-XIVTED_clean_linker_0
_symmetry_space_group_name_H-M    P1
_symmetry_Int_Tables_number       1
_symmetry_cell_setting            triclinic
loop_
_symmetry_equiv_pos_as_xyz
'x, y, z'
_cell_length_a     68.715522
_cell_length_b     55.351258
_cell_length_c     15.699901
_cell_angle_alpha  96.295005
_cell_angle_beta   97.690174
_cell_angle_gamma 121.43788
loop_
_atom_site_label
_atom_site_type_symbol
_atom_site_fract_x
_atom_site_fract_y
_atom_site_fract_z
_atom_type_partial_charge
Gd0 Gd 0.12169 0.49079 0.26122 0.0
Gd1 Gd 0.08501 0.49652 0.2542 0.0
C2 C 0.07037 0.43304 0.19186 0.0
C3 C 0.15273 0.47729 0.29534 0.0
C4 C 0.15811 0.45824 0.3393 0.0
C5 C 0.14658 0.42834 0.30438 0.0
C6 C 0.17678 0.47082 0.41335 0.0
C7 C 0.17327 0.42457 0.41397 0.0
C8 C 0.1842 0.45427 0.45029 0.0
C9 C 0.15402 0.41169 0.34151 0.0
C10 C 0.11238 0.50148 0.09592 0.0
C11 C 0.13507 0.55555 0.29068 0.0
C12 C 0.05356 0.50965 0.24217 0.0
C13 C 0.04203 0.52122 0.18998 0.0
C14 C 0.01831 0.51002 0.18711 0.0
C15 C 0.05443 0.54451 0.14939 0.0
C16 C 0.01952 0.54586 0.1066 0.0
C17 C 0.04327 0.55672 0.10803 0.0
C18 C 1.00718 0.52217 0.14606 0.0
C19 C 0.09557 0.48585 0.41895 0.0
O20 O 0.09117 0.44358 0.24282 0.0
O21 O 0.06465 0.45135 0.17319 0.0
O22 O 0.15277 0.49771 0.3454 0.0
O23 O 0.13649 0.46582 0.22311 0.0
O24 O 0.13287 0.51252 0.14626 0.0
O25 O 0.09707 0.48546 0.13682 0.0
O26 O 0.11293 0.5425 0.25065 0.0
O27 O 0.14316 0.53952 0.3115 0.0
O28 O 0.07539 0.52759 0.28289 0.0
O29 O 0.0489 0.48401 0.21022 0.0
O30 O 0.07508 0.47324 0.36788 0.0
O31 O 0.11009 0.50273 0.3776 0.0
H32 H 0.13222 0.41792 0.24696 0.0
H33 H 0.18614 0.4938 0.44155 0.0
H34 H 0.19878 0.46491 0.50693 0.0
H35 H 0.14524 0.38897 0.31127 0.0
H36 H 1.00849 0.49227 0.21885 0.0
H37 H 0.0728 0.55357 0.15093 0.0
H38 H 0.05325 0.57468 1.07738 0.0
H39 H 0.98904 0.51348 0.14772 0.0
Gd40 Gd 0.625 0.50597 1.05692 0.0
Gd41 Gd 0.58642 0.50832 1.02879 0.0
C42 C 0.63279 0.56953 1.0802 0.0
C43 C 0.66547 0.51193 1.06294 0.0
C44 C 0.68816 0.52971 1.03721 0.0
C45 C 0.69109 0.52183 0.9539 0.0
C46 C 0.70775 0.5532 0.09849 0.0
C47 C 0.73269 0.56019 0.99417 0.0
C48 C 0.7297 0.56828 1.0772 0.0
C49 C 0.71301 0.5369 0.93261 0.0
C50 C 0.60771 0.49954 0.20982 0.0
C51 C 0.57767 0.44495 1.00995 0.0
C52 C 0.54572 0.50107 1.02446 0.0
C53 C 0.52674 0.48504 1.06931 0.0
C54 C 0.50653 0.48572 1.05202 0.0
C55 C 0.52894 0.4697 0.13144 0.0
C56 C 0.49108 0.45661 0.16086 0.0
C57 C 0.51123 0.45552 0.17663 0.0
C58 C 0.48885 0.47165 0.09739 0.0
C59 C 0.6035 0.51434 0.87529 0.0
O60 O 0.64138 0.55408 1.05568 0.0
O61 O 0.61077 0.55593 1.0852 0.0
O62 O 0.66094 0.52424 0.12605 0.0
O63 O 0.64689 0.49424 1.00049 0.0
O64 O 0.61496 0.48443 0.17361 0.0
O65 O 0.60916 0.5172 0.16097 0.0
O66 O 0.57004 0.46111 1.03763 0.0
O67 O 0.59948 0.45793 1.00165 0.0
O68 O 0.56517 0.52299 1.07471 0.0
O69 O 0.54933 0.48542 0.96854 0.0
O70 O 0.59594 0.52918 0.91063 0.0
O71 O 0.60215 0.49689 0.92474 0.0
H72 H 0.67654 0.50355 0.9055 0.0
H73 H 0.70622 0.55966 0.16365 0.0
H74 H 0.74435 0.58628 0.12599 0.0
H75 H 0.71465 0.52968 0.86855 0.0
H76 H 0.50454 0.49741 1.00415 0.0
H77 H 0.54453 0.46912 0.14608 0.0
H78 H 0.51362 0.44444 0.22573 0.0
H79 H 0.47343 0.4726 1.08291 0.0
Gd80 Gd 0.58334 0.03979 0.85755 0.0
Gd81 Gd 0.62652 0.08917 0.90588 0.0
C82 C 0.58458 0.09805 0.89188 0.0
C83 C 0.53955 0.99836 0.83328 0.0
C84 C 0.52305 0.98554 0.89037 0.0
C85 C 0.49893 0.96966 0.8542 0.0
C86 C 0.53111 0.99002 0.98124 0.0
C87 C 0.49089 0.96291 0.99928 0.0
C88 C 0.51516 0.97867 1.0352 0.0
C89 C 0.48298 0.95846 0.90809 0.0
C90 C 0.601 0.05417 0.70679 0.0
C91 C 0.62259 0.02867 0.90786 0.0
C92 C 0.67063 0.128 0.91413 0.0
C93 C 0.69237 0.12858 0.90729 0.0
C94 C 0.71402 0.15067 0.96199 0.0
C95 C 0.69206 0.1082 0.84404 0.0
C96 C 0.73477 0.13281 0.88801 0.0
C97 C 0.71294 0.11034 0.8344 0.0
C98 C 0.7349 0.15272 0.95276 0.0
C99 C 0.60934 0.07661 1.05726 0.0
O100 O 0.57445 0.07181 0.90724 0.0
O101 O 0.60592 0.11025 0.87735 0.0
O102 O 0.55659 0.9941 0.84024 0.0
O103 O 0.54658 0.02496 0.82882 0.0
O104 O 0.59073 0.02881 0.72555 0.0
O105 O 0.60226 0.07141 0.7715 0.0
O106 O 0.63503 0.05433 0.88864 0.0
O107 O 0.60102 0.01904 0.91367 0.0
O108 O 0.66215 0.12075 0.98324 0.0
O109 O 0.65411 0.11676 0.84283 0.0
O110 O 0.62043 0.10211 1.03813 0.0
O111 O 0.60719 0.05828 0.99315 0.0
H112 H 0.49242 0.96611 0.78425 0.0
H113 H 0.54972 1.00255 1.0105 0.0
H114 H 0.52183 0.98277 0.10526 0.0
H115 H 0.46443 0.94615 0.87823 0.0
H116 H 0.71486 0.16675 1.01109 0.0
H117 H 0.67568 0.09076 0.80112 0.0
H118 H 0.71194 0.09428 0.78478 0.0
H119 H 0.75126 0.17048 0.99486 0.0
Gd120 Gd 0.78231 0.84903 0.28341 0.0
Gd121 Gd 0.74554 0.85466 0.27743 0.0
C122 C 0.73232 0.78998 0.24907 0.0
C123 C 0.81383 0.83602 0.29177 0.0
C124 C 0.82522 0.82368 0.34005 0.0
C125 C 0.84639 0.82884 0.32273 0.0
C126 C 0.81503 0.80588 0.39896 0.0
C127 C 0.84726 0.7984 0.42214 0.0
C128 C 0.82599 0.79334 0.43975 0.0
C129 C 0.85727 0.81634 0.36305 0.0
C130 C 0.77145 0.8596 0.11898 0.0
C131 C 0.79702 0.9126 0.34835 0.0
C132 C 0.71394 0.86722 0.24343 0.0
C133 C 0.70911 0.88838 0.21257 0.0
C134 C 0.69426 0.89413 0.25099 0.0
C135 C 0.71712 0.90083 0.14098 0.0
C136 C 0.69403 0.92272 0.14327 0.0
C137 C 0.70972 0.91792 0.1069 0.0
C138 C 0.68683 0.91106 0.21696 0.0
C139 C 0.7551 0.84373 0.44181 0.0
O140 O 0.75453 0.8031 0.28834 0.0
O141 O 0.72412 0.80592 0.2283 0.0
O142 O 0.79206 0.81832 0.25001 0.0
O143 O 0.81824 0.86114 0.3285 0.0
O144 O 0.79196 0.87255 0.17013 0.0
O145 O 0.75703 0.84267 0.16055 0.0
O146 O 0.77593 0.90219 0.30007 0.0
O147 O 0.80301 0.89429 0.36382 0.0
O148 O 0.71729 0.85159 0.18632 0.0
O149 O 0.72739 0.8748 0.32105 0.0
O150 O 0.73454 0.83227 0.3913 0.0
O151 O 0.77033 0.86007 0.40104 0.0
H152 H 0.85438 0.84228 0.2767 0.0
H153 H 0.79861 0.80155 0.41286 0.0
H154 H 0.8179 0.7799 0.48554 0.0
H155 H 0.87335 0.82033 0.34647 0.0
H156 H 0.68782 0.88479 0.30613 0.0
H157 H 0.72855 0.8967 0.10986 0.0
H158 H 0.71557 0.92642 1.05 0.0
H159 H 0.67515 0.9147 0.24788 0.0
Gd160 Gd 0.27968 0.83735 0.524 0.0
Gd161 Gd 0.24083 0.83891 0.49589 0.0
C162 C 0.28776 0.90037 0.54326 0.0
C163 C 0.32047 0.84493 0.52744 0.0
C164 C 0.33797 0.85759 0.47383 0.0
C165 C 0.36139 0.86764 0.50874 0.0
C166 C 0.33152 0.86 0.38802 0.0
C167 C 0.37182 0.88201 0.37186 0.0
C168 C 0.34825 0.87196 0.33741 0.0
C169 C 0.37817 0.87977 0.45837 0.0
C170 C 0.26284 0.83113 0.67826 0.0
C171 C 0.23363 0.77594 0.47015 0.0
C172 C 0.20017 0.83243 0.48971 0.0
C173 C 0.17803 0.81587 0.51996 0.0
C174 C 0.17285 0.83038 0.58313 0.0
C175 C 0.16113 0.78646 0.48204 0.0
C176 C 0.13427 0.78673 0.56914 0.0
C177 C 0.13951 0.77208 0.50634 0.0
C178 C 0.15134 0.81602 0.60763 0.0
C179 C 0.25819 0.84573 0.34299 0.0
O180 O 0.29562 0.88455 0.51458 0.0
O181 O 0.266 0.88693 0.55235 0.0
O182 O 0.30073 0.82101 0.48812 0.0
O183 O 0.3174 0.86296 0.57498 0.0
O184 O 0.27088 0.81688 0.6433 0.0
O185 O 0.26368 0.84826 0.62843 0.0
O186 O 0.22508 0.79103 0.49856 0.0
O187 O 0.25542 0.79002 0.46229 0.0
O188 O 0.20439 0.81869 0.42958 0.0
O189 O 0.21903 0.85155 0.5491 0.0
O190 O 0.25057 0.86043 0.37888 0.0
O191 O 0.25691 0.82816 0.39181 0.0
H192 H 0.36671 0.86618 0.57512 0.0
H193 H 0.31352 0.85248 0.35999 0.0
H194 H 0.3426 0.87295 0.27082 0.0
H195 H 0.39617 0.8877 0.48771 0.0
H196 H 0.18532 0.85314 0.61249 0.0
H197 H 0.16444 0.77461 0.43271 0.0
H198 H 0.1269 0.74946 0.47596 0.0
H199 H 0.14785 0.82818 0.65512 0.0
Gd200 Gd 0.23598 0.2497 0.62306 0.0
Gd201 Gd 0.27895 0.29883 0.67097 0.0
C202 C 0.23984 0.3104 0.62274 0.0
C203 C 0.19186 0.21093 0.61453 0.0
C204 C 0.17025 0.21086 0.61903 0.0
C205 C 0.14825 0.18723 0.57134 0.0
C206 C 0.17113 0.23351 0.6736 0.0
C207 C 0.12833 0.20817 0.63594 0.0
C208 C 0.15049 0.23216 0.68202 0.0
C209 C 0.12758 0.18592 0.57941 0.0
C210 C 0.25291 0.26178 0.47104 0.0
C211 C 0.2778 0.24081 0.63789 0.0
C212 C 0.32292 0.33971 0.69599 0.0
C213 C 0.3401 0.35009 0.6404 0.0
C214 C 0.36017 0.37819 0.66622 0.0
C215 C 0.33655 0.33232 0.56122 0.0
C216 C 0.37303 0.37091 0.53386 0.0
C217 C 0.35295 0.34259 0.5086 0.0
C218 C 0.37648 0.38854 0.61344 0.0
C219 C 0.26116 0.28492 0.82164 0.0
O220 O 0.22719 0.28425 0.63846 0.0
O221 O 0.26167 0.32066 0.6199 0.0
O222 O 0.20053 0.21748 0.54542 0.0
O223 O 0.20822 0.22274 0.68643 0.0
O224 O 0.242 0.23643 0.49124 0.0
O225 O 0.25522 0.28034 0.53483 0.0
O226 O 0.28762 0.2667 0.61989 0.0
O227 O 0.25666 0.22891 0.65398 0.0
O228 O 0.30596 0.34386 0.67815 0.0
O229 O 0.31559 0.31398 0.71118 0.0
O230 O 0.27121 0.31012 0.8017 0.0
O231 O 0.26006 0.26754 0.7578 0.0
H232 H 0.14701 0.16943 0.52896 0.0
H233 H 0.18779 0.25211 0.71096 0.0
H234 H 0.15193 0.24996 0.72504 0.0
H235 H 0.11095 0.16699 0.54335 0.0
H236 H 0.36319 0.39218 0.72715 0.0
H237 H 0.32104 0.31058 0.53984 0.0
H238 H 0.34966 0.32861 0.44726 0.0
H239 H 0.39189 0.41033 0.6352 0.0
Gd240 Gd 0.43518 0.17332 0.68493 0.0
Gd241 Gd 0.43141 0.17329 0.85554 0.0
C242 C 0.39707 0.18545 0.74541 0.0
C243 C 0.42735 0.17498 0.5227 0.0
C244 C 0.42144 0.19565 0.49783 0.0
C245 C 0.42746 0.21955 0.56274 0.0
C246 C 0.40789 0.19052 0.41513 0.0
C247 C 0.40728 0.23379 0.46187 0.0
C248 C 0.401 0.20955 0.39702 0.0
C249 C 0.42041 0.23831 0.54519 0.0
C250 C 0.46689 0.22674 0.79095 0.0
C251 C 0.46715 0.15664 0.78891 0.0
C252 C 0.43946 0.19021 1.02155 0.0
C253 C 0.4378 0.21443 1.06141 0.0
C254 C 0.4174 0.20836 0.08881 0.0
C255 C 0.45441 0.24324 1.0574 0.0
C256 C 0.42931 0.25874 0.10078 0.0
C257 C 0.45023 0.26518 1.07718 0.0
C258 C 0.41317 0.23019 0.10793 0.0
C259 C 0.39909 0.11921 0.75378 0.0
O260 O 0.40233 0.17453 0.68044 0.0
O261 O 0.40896 0.19126 0.82562 0.0
O262 O 0.44858 0.1868 0.56945 0.0
O263 O 0.41166 0.15462 0.55546 0.0
O264 O 0.4717 0.21326 0.73369 0.0
O265 O 0.44544 0.21089 0.79189 0.0
O266 O 0.46136 0.16588 0.85675 0.0
O267 O 0.45654 0.15365 0.70822 0.0
O268 O 0.45641 0.19725 0.98029 0.0
O269 O 0.41963 0.16696 0.9775 0.0
O270 O 0.39539 0.13224 0.81716 0.0
O271 O 0.42019 0.1351 0.7475 0.0
H272 H 0.43744 0.22357 0.62796 0.0
H273 H 0.40271 0.17195 0.36475 0.0
H274 H 0.39136 0.20572 0.33125 0.0
H275 H 0.42538 0.25645 0.59689 0.0
H276 H 0.40428 0.18648 0.09258 0.0
H277 H 0.47034 0.24877 1.03621 0.0
H278 H 0.4632 0.28707 1.07299 0.0
H279 H 0.3973 0.22469 0.12966 0.0
Gd280 Gd 0.93613 0.16059 0.83898 0.0
Gd281 Gd 0.93048 0.18495 0.70682 0.0
C282 C 0.88855 0.16082 0.79751 0.0
C283 C 0.94367 0.14516 0.98327 0.0
C284 C 0.96573 0.15362 1.0423 0.0
C285 C 0.98644 0.16459 1.01132 0.0
C286 C 0.96676 0.15369 0.13187 0.0
C287 C 1.00935 0.17972 0.16078 0.0
C288 C 0.98837 0.16645 0.19064 0.0
C289 C 1.0081 0.17776 1.07014 0.0
C290 C 0.91336 0.11953 0.68522 0.0
C291 C 0.97655 0.18289 0.73911 0.0
C292 C 0.9345 0.20967 0.5752 0.0
C293 C 0.95726 0.23326 0.565 0.0
C294 C 0.96158 0.23716 0.48148 0.0
C295 C 0.97608 0.24813 0.63914 0.0
C296 C 1.00363 0.26646 0.54504 0.0
C297 C 0.99908 0.26455 0.62925 0.0
C298 C 0.98463 0.25387 0.47158 0.0
C299 C 0.9537 0.22544 0.86177 0.0
O300 O 0.90425 0.16214 0.86021 0.0
O301 O 0.89328 0.16424 0.71958 0.0
O302 O 0.9397 0.16576 0.98053 0.0
O303 O 0.93902 0.12992 0.90537 0.0
O304 O 0.93129 0.12412 0.74014 0.0
O305 O 0.90881 0.13816 0.71091 0.0
O306 O 0.96001 0.17986 0.67747 0.0
O307 O 0.97288 0.18165 0.81875 0.0
O308 O 0.92724 0.21578 0.64194 0.0
O309 O 0.93249 0.18472 0.56985 0.0
O310 O 0.93534 0.22063 0.80955 0.0
O311 O 0.95809 0.20695 0.83324 0.0
H312 H 0.98602 0.16427 0.94218 0.0
H313 H 0.951 0.14533 0.157 0.0
H314 H 0.98873 0.16807 0.2603 0.0
H315 H 0.02394 0.18784 1.04535 0.0
H316 H 0.94735 0.22557 0.42357 0.0
H317 H 0.97317 0.24515 0.70434 0.0
H318 H 1.01332 0.27383 0.68676 0.0
H319 H 0.98757 0.2545 0.40555 0.0
Gd320 Gd 0.92086 0.65119 0.70305 0.0
Gd321 Gd 0.94517 0.69724 0.85622 0.0
C322 C 0.97706 0.69726 0.73136 0.0
C323 C 0.89928 0.6197 0.54657 0.0
C324 C 0.87762 0.61373 0.49092 0.0
C325 C 0.87577 0.61212 0.40038 0.0
C326 C 0.86098 0.61548 0.5297 0.0
C327 C 0.8443 0.62076 0.39207 0.0
C328 C 0.84444 0.61899 0.48067 0.0
C329 C 0.85911 0.61539 0.35107 0.0
C330 C 0.9379 0.63578 0.83875 0.0
C331 C 0.89003 0.65113 0.83414 0.0
C332 C 0.95911 0.73171 1.00647 0.0
C333 C 0.94569 0.74174 1.04627 0.0
C334 C 0.92881 0.74371 0.99163 0.0
C335 C 0.94642 0.74404 0.13642 0.0
C336 C 0.91091 0.74473 0.11409 0.0
C337 C 0.92922 0.74564 0.17024 0.0
C338 C 0.91167 0.74539 1.02539 0.0
C339 C 0.92744 0.71093 0.71753 0.0
O340 O 0.95692 0.67973 0.67309 0.0
O341 O 0.97712 0.70362 0.81485 0.0
O342 O 0.91682 0.64674 0.56197 0.0
O343 O 0.89712 0.60881 0.6171 0.0
O344 O 0.91782 0.61888 0.78435 0.0
O345 O 0.94849 0.66009 0.81775 0.0
O346 O 0.91027 0.66751 0.89148 0.0
O347 O 0.88982 0.6462 0.75011 0.0
O348 O 0.96541 0.7409 0.93565 0.0
O349 O 0.95039 0.70395 0.99834 0.0
O350 O 0.94817 0.72787 0.76706 0.0
O351 O 0.91711 0.68752 0.74313 0.0
H352 H 0.88848 0.61089 0.36934 0.0
H353 H 0.86193 0.6165 0.59936 0.0
H354 H 0.83319 0.6229 0.51391 0.0
H355 H 0.85969 0.61693 0.28315 0.0
H356 H 0.92775 0.74172 0.92147 0.0
H357 H 0.95915 0.74228 0.17936 0.0
H358 H 0.92904 0.74472 0.23871 0.0
H359 H 0.89794 0.74486 0.98065 0.0
H360 H 0.0716 0.46759 0.95999 0.0
H361 H 0.13626 0.52083 0.55495 0.0
H362 H 0.14553 0.53 0.99888 0.0
H363 H 0.06266 0.45675 0.51613 0.0
H364 H 0.14003 0.52472 0.71561 0.0
H365 H 0.06787 0.46381 0.79943 0.0
C366 C 0.08709 0.48066 0.93547 0.0
C367 C 0.10896 0.49923 0.99546 0.0
C368 C 0.12301 0.50973 0.67216 0.0
C369 C 0.10478 0.49484 0.80759 0.0
C370 C 0.12085 0.50745 0.57952 0.0
C371 C 0.09906 0.48835 0.51952 0.0
C372 C 0.10328 0.49289 0.70744 0.0
C373 C 0.0799 0.47182 0.558 0.0
C374 C 0.08496 0.47842 0.84286 0.0
C375 C 0.12823 0.51534 0.957 0.0
N376 N 0.08243 0.47448 0.64779 0.0
N377 N 0.12571 0.51279 0.86723 0.0
H378 H 0.60992 0.4762 0.76541 0.0
H379 H 0.60115 0.53745 0.3198 0.0
H380 H 0.59967 0.54632 0.75737 0.0
H381 H 0.61141 0.46732 0.32733 0.0
H382 H 0.60038 0.54088 0.47767 0.0
H383 H 0.6106 0.47262 0.60739 0.0
C384 C 0.60786 0.49095 0.73115 0.0
C385 C 0.60472 0.51165 0.77727 0.0
C386 C 0.60279 0.52468 0.44506 0.0
C387 C 0.60542 0.50755 0.59207 0.0
C388 C 0.6032 0.52267 0.35394 0.0
C389 C 0.60638 0.50203 0.30773 0.0
C390 C 0.60558 0.50596 0.49281 0.0
C391 C 0.60892 0.48367 0.35823 0.0
C392 C 0.60822 0.48885 0.63995 0.0
C393 C 0.60214 0.52994 0.72657 0.0
N394 N 0.6085 0.48608 0.44628 0.0
N395 N 0.60252 0.52746 0.6385 0.0
H396 H 0.61479 0.10412 0.63572 0.0
H397 H 0.59444 0.02666 0.12836 0.0
H398 H 0.59121 0.01448 0.55671 0.0
H399 H 0.61974 0.11688 0.20737 0.0
H400 H 0.59266 0.02169 0.28226 0.0
H401 H 0.61647 0.10925 0.4817 0.0
C402 C 0.60998 0.08544 0.58665 0.0
C403 C 0.60283 0.05875 0.61179 0.0
C404 C 0.5986 0.04264 0.26633 0.0
C405 C 0.60465 0.06454 0.43089 0.0
C406 C 0.5996 0.04551 0.17744 0.0
C407 C 0.6073 0.07232 0.15233 0.0
C408 C 0.60531 0.06669 0.33322 0.0
C409 C 0.61368 0.09569 0.2215 0.0
C410 C 0.61092 0.08839 0.49772 0.0
C411 C 0.59685 0.03559 0.54262 0.0
N412 N 0.61257 0.09236 0.30699 0.0
N413 N 0.59787 0.03899 0.45717 0.0
H414 H 0.79571 0.8783 0.57834 0.0
H415 H 0.73089 0.82403 0.98252 0.0
H416 H 0.72201 0.81457 0.53841 0.0
H417 H 0.80428 0.88913 1.02204 0.0
H418 H 0.72724 0.82006 0.82184 0.0
H419 H 0.79929 0.88212 0.73886 0.0
C420 C 0.78024 0.86494 0.60262 0.0
C421 C 0.75848 0.84599 0.54232 0.0
C422 C 0.74419 0.83529 0.86545 0.0
C423 C 0.76248 0.85043 0.73021 0.0
C424 C 0.74628 0.83762 0.95812 0.0
C425 C 0.76797 0.85703 1.01834 0.0
C426 C 0.76389 0.8524 0.83037 0.0
C427 C 0.78711 0.87382 0.98003 0.0
C428 C 0.78229 0.86721 0.69522 0.0
C429 C 0.73923 0.82953 0.58051 0.0
N430 N 0.78465 0.87111 0.89024 0.0
N431 N 0.74166 0.83212 0.67028 0.0
H432 H 0.25527 0.8683 0.78685 0.0
H433 H 0.26603 0.80889 0.23451 0.0
H434 H 0.26771 0.80001 0.79718 0.0
H435 H 0.25344 0.87707 0.22443 0.0
H436 H 0.26692 0.80549 1.07677 0.0
H437 H 0.25448 0.87185 0.94475 0.0
C438 C 0.25779 0.85395 0.82161 0.0
C439 C 0.26157 0.83378 0.77619 0.0
C440 C 0.26397 0.82126 0.10879 0.0
C441 C 0.26076 0.83784 0.96121 0.0
C442 C 0.26347 0.82324 0.19981 0.0
C443 C 0.2596 0.84331 0.24523 0.0
C444 C 0.26056 0.83943 1.06037 0.0
C445 C 0.25647 0.86116 0.19411 0.0
C446 C 0.25738 0.85603 0.91273 0.0
C447 C 0.26474 0.81598 0.82746 0.0
N448 N 0.25698 0.85879 0.10615 0.0
N449 N 0.26428 0.81843 0.91545 0.0
H450 H 0.27001 0.32496 0.96839 0.0
H451 H 0.24344 0.22116 0.32428 0.0
H452 H 0.24865 0.23589 0.89763 0.0
H453 H 0.26644 0.31083 0.39505 0.0
H454 H 0.2451 0.22597 0.17097 0.0
H455 H 0.2685 0.32002 0.12153 0.0
C456 C 0.26493 0.3042 0.98435 0.0
C457 C 0.25947 0.28088 0.9172 0.0
C458 C 0.24984 0.24472 0.21955 0.0
C459 C 0.25769 0.27496 0.09803 0.0
C460 C 0.24891 0.24201 0.30829 0.0
C461 C 0.25478 0.26555 0.37544 0.0
C462 C 0.25669 0.27131 0.19457 0.0
C463 C 0.26172 0.29187 0.34757 0.0
C464 C 0.2641 0.30143 1.07303 0.0
C465 C 0.25304 0.25469 0.9451 0.0
N466 N 0.26241 0.29392 0.26076 0.0
N467 N 0.25236 0.25254 1.03191 0.0
H468 H 0.43571 0.29334 0.51788 0.0
H469 H 0.46056 0.31266 0.20728 0.0
H470 H 0.36822 0.2262 0.35569 0.0
H471 H 0.38909 0.25922 1.06003 0.0
H472 H 0.44881 0.33496 0.31235 0.0
H473 H 0.43552 0.32758 0.4344 0.0
C474 C 0.42054 0.28575 0.46576 0.0
C475 C 0.40289 0.25611 0.43826 0.0
C476 C 0.4355 0.31867 0.25656 0.0
C477 C 0.40392 0.29468 0.33715 0.0
C478 C 0.44241 0.3061 0.19551 0.0
C479 C 0.42529 0.28186 0.13026 0.0
C480 C 0.41142 0.30458 0.25603 0.0
C481 C 0.40248 0.27597 0.11496 0.0
C482 C 0.42057 0.30543 0.41713 0.0
C483 C 0.38323 0.24832 0.37396 0.0
N484 N 0.39593 0.2867 0.17928 0.0
N485 N 0.38456 0.2673 0.3235 0.0
H486 H 0.02876 0.30136 0.43759 0.0
H487 H 0.02777 0.17259 0.31577 0.0
H488 H 0.03177 0.2497 0.61884 0.0
H489 H 0.04176 0.23543 0.15418 0.0
H490 H 0.05086 0.21191 0.44472 0.0
H491 H 0.05484 0.29393 0.36426 0.0
C492 C 0.03564 0.28935 0.464 0.0
C493 C 0.027 0.27466 0.53074 0.0
C494 C 0.04967 0.21733 0.38082 0.0
C495 C 0.05556 0.26451 0.4442 0.0
C496 C 0.03649 0.19473 0.307 0.0
C497 C 0.03165 0.20078 0.22527 0.0
C498 C 0.05674 0.2457 0.37258 0.0
C499 C 0.04415 0.22977 0.21687 0.0
C500 C 0.05055 0.28499 0.42203 0.0
C501 C 0.03717 0.26034 0.56475 0.0
N502 N 0.05537 0.25125 0.29028 0.0
N503 N 0.05018 0.25457 0.51883 0.0
H504 H 0.81996 0.60744 0.22112 0.0
H505 H 0.9052 0.76429 0.27247 0.0
H506 H 0.84639 0.66906 0.46622 0.0
H507 H 0.86608 0.70447 1.02264 0.0
H508 H 0.87203 0.73539 0.33686 0.0
H509 H 0.82201 0.6442 0.14329 0.0
C510 C 0.82536 0.62838 0.25882 0.0
C511 C 0.83426 0.63578 0.34994 0.0
C512 C 0.87031 0.72909 0.26712 0.0
C513 C 0.83782 0.67823 0.26121 0.0
C514 C 0.88934 0.74564 0.23041 0.0
C515 C 0.88888 0.736 0.14324 0.0
C516 C 0.85115 0.70232 0.21677 0.0
C517 C 0.86758 0.71234 0.09094 0.0
C518 C 0.82663 0.64948 0.21436 0.0
C519 C 0.84026 0.66286 0.39562 0.0
N520 N 0.84986 0.69573 0.12923 0.0
N521 N 0.84293 0.6836 0.35069 0.0
H522 H 0.19333 0.29294 0.59382 0.0
H523 H 0.21924 0.44255 0.47005 0.0
H524 H 0.26216 0.36619 0.59956 0.0
H525 H 0.14919 0.36796 0.43726 0.0
H526 H 0.23485 0.41536 0.52665 0.0
H527 H 0.17656 0.32039 0.54607 0.0
C528 C 0.20495 0.31485 0.58588 0.0
C529 C 0.22925 0.32721 0.60076 0.0
C530 C 0.21605 0.40486 0.50737 0.0
C531 C 0.21011 0.35873 0.54565 0.0
C532 C 0.20706 0.42051 0.47547 0.0
C533 C 0.18277 0.40772 0.4491 0.0
C534 C 0.20075 0.37599 0.51344 0.0
C535 C 0.16802 0.37874 0.45606 0.0
C536 C 0.19533 0.33047 0.5582 0.0
C537 C 0.24336 0.35566 0.58884 0.0
N538 N 0.17722 0.36391 0.48763 0.0
N539 N 0.23361 0.37033 0.56203 0.0
H540 H 0.68088 0.60585 0.10731 0.0
H541 H 0.68422 0.75436 0.18837 0.0
H542 H 0.61897 0.60793 0.10548 0.0
H543 H 0.74552 0.75091 0.25605 0.0
H544 H 0.66014 0.70116 0.14667 0.0
H545 H 0.70483 0.65903 0.14928 0.0
C546 C 0.67226 0.61741 0.11519 0.0
C547 C 0.64775 0.60211 0.10263 0.0
C548 C 0.67885 0.71204 0.17089 0.0
C549 C 0.67527 0.66346 0.15076 0.0
C550 C 0.69266 0.74251 0.1948 0.0
C551 C 0.71704 0.75742 0.22634 0.0
C552 C 0.68942 0.69608 0.17713 0.0
C553 C 0.72684 0.74058 0.23269 0.0
C554 C 0.686 0.64786 0.13961 0.0
C555 C 0.63774 0.61857 0.11445 0.0
N556 N 0.7131 0.71104 0.208 0.0
N557 N 0.65145 0.64814 0.13736 0.0
H558 H 0.4918 0.93601 0.13539 0.0
H559 H 0.37546 0.91695 0.25488 0.0
H560 H 0.45118 0.96368 0.99391 0.0
H561 H 0.40901 0.87612 0.36515 0.0
H562 H 0.40441 0.93675 0.16518 0.0
H563 H 0.46329 0.91693 0.22777 0.0
C564 C 0.47695 0.9382 0.12403 0.0
C565 C 0.47386 0.9514 1.05657 0.0
C566 C 0.40544 0.92345 0.20901 0.0
C567 C 0.44108 0.92949 0.16189 0.0
C568 C 0.3888 0.91197 0.26002 0.0
C569 C 0.38965 0.89468 0.31777 0.0
C570 C 0.42322 0.91781 0.21581 0.0
C571 C 0.40776 0.8896 0.32263 0.0
C572 C 0.4606 0.92715 0.17645 0.0
C573 C 0.45412 0.95334 1.04431 0.0
N574 N 0.42379 0.90109 0.27241 0.0
N575 N 0.43854 0.94258 0.09648 0.0
H576 H 0.55293 0.09311 0.98812 0.0
H577 H 0.49261 0.15132 0.67403 0.0
H578 H 0.58312 0.13263 0.77886 0.0
H579 H 0.48413 0.14602 0.93981 0.0
H580 H 0.52313 0.14056 0.70278 0.0
H581 H 0.5256 0.1088 0.96503 0.0
C582 C 0.55407 0.10552 0.93806 0.0
C583 C 0.57067 0.11184 0.88623 0.0
C584 C 0.51463 0.14183 0.75484 0.0
C585 C 0.53853 0.12913 0.85702 0.0
C586 C 0.49704 0.1478 0.73833 0.0
C587 C 0.48557 0.14956 0.80442 0.0
C588 C 0.52061 0.13695 0.83764 0.0
C589 C 0.49237 0.14495 0.88663 0.0
C590 C 0.53835 0.1144 0.92469 0.0
C591 C 0.57096 0.12768 0.8215 0.0
N592 N 0.50915 0.13863 0.90046 0.0
N593 N 0.55498 0.1354 0.80796 0.0
H594 H 0.9466 0.26834 0.91081 0.0
H595 H 0.07789 0.38811 0.18633 0.0
H596 H 1.0002 0.24941 0.94666 0.0
H597 H 0.02453 0.40524 0.10558 0.0
H598 H 0.04995 0.33675 0.11244 0.0
H599 H 0.97477 0.31739 0.99566 0.0
C600 C 0.96432 0.27442 0.93712 0.0
C601 C 0.97093 0.25453 0.92101 0.0
C602 C 0.04439 0.35178 0.11131 0.0
C603 C 1.0038 0.31153 1.01932 0.0
C604 C 0.06032 0.38113 0.15384 0.0
C605 C 0.05367 0.40128 0.15251 0.0
C606 C 0.02155 0.34237 1.06765 0.0
C607 C 0.03064 0.39078 0.10864 0.0
C608 C 0.98051 0.30264 0.98561 0.0
C609 C 0.99425 0.26393 0.95739 0.0
N610 N 1.01558 0.36233 1.06848 0.0
N611 N 1.00985 0.29173 1.00453 0.0
H612 H 0.88228 0.65198 1.00237 0.0
H613 H 0.74346 0.57453 0.83707 0.0
H614 H 0.84619 0.62411 0.72925 0.0
H615 H 0.77584 0.58074 0.10078 0.0
H616 H 0.78181 0.59771 0.80049 0.0
H617 H 0.8443 0.63121 1.04391 0.0
C618 C 0.86643 0.64154 0.95118 0.0
C619 C 0.86747 0.63955 0.86207 0.0
C620 C 0.78054 0.59401 0.86641 0.0
C621 C 0.82402 0.61598 0.90914 0.0
C622 C 0.75859 0.58064 0.88733 0.0
C623 C 0.75624 0.57547 0.97217 0.0
C624 C 0.80051 0.60246 0.93064 0.0
C625 C 0.77671 0.5845 1.03479 0.0
C626 C 0.84476 0.62965 0.97494 0.0
C627 C 0.84633 0.62594 0.79868 0.0
N628 N 0.79791 0.5974 1.01266 0.0
N629 N 0.82558 0.61475 0.82341 0.0
H630 H 0.98397 0.66459 0.92655 0.0
H631 H 0.9744 0.51889 1.01032 0.0
H632 H 0.91946 0.5804 0.8612 0.0
H633 H 0.03739 0.60378 0.11099 0.0
H634 H 0.95452 0.54136 0.95214 0.0
H635 H 1.00424 0.64328 0.99345 0.0
C636 C 0.97404 0.64169 0.92709 0.0
C637 C 0.95001 0.6242 0.88796 0.0
C638 C 0.97269 0.55513 0.98702 0.0
C639 C 0.9731 0.59962 0.96324 0.0
C640 C 0.98408 0.54229 1.02061 0.0
C641 C 1.00765 0.5594 1.06632 0.0
C642 C 0.98488 0.58542 0.99852 0.0
C643 C 0.01931 0.58963 1.07552 0.0
C644 C 0.98562 0.62952 0.96496 0.0
C645 C 0.93801 0.59467 0.89034 0.0
N646 N 1.00782 0.60166 1.04207 0.0
N647 N 0.94968 0.58331 0.9267 0.0
H648 H 0.53151 0.41116 1.02177 0.0
H649 H 0.51328 0.26108 0.79298 0.0
H650 H 0.58626 0.4041 0.94145 0.0
H651 H 0.45792 0.26524 0.87896 0.0
H652 H 0.54005 0.31318 0.85048 0.0
H653 H 0.5046 0.35836 0.97441 0.0
C654 C 0.53799 0.39858 0.99468 0.0
C655 C 0.56139 0.41244 0.9859 0.0
C656 C 0.52211 0.30285 0.85733 0.0
C657 C 0.53029 0.35142 0.93054 0.0
C658 C 0.50672 0.27294 0.82435 0.0
C659 C 0.48319 0.25851 0.8309 0.0
C660 C 0.51413 0.31901 0.89742 0.0
C661 C 0.47588 0.27529 0.87256 0.0
C662 C 0.52251 0.36831 0.96745 0.0
C663 C 0.56852 0.39466 0.94993 0.0
N664 N 0.49122 0.30455 0.90385 0.0
N665 N 0.55311 0.36534 0.92355 0.0
H666 H 0.87444 0.16036 0.9548 0.0
H667 H 0.74695 0.12405 0.73242 0.0
H668 H 0.8504 0.14945 0.67679 0.0
H669 H 0.77429 0.14888 1.01314 0.0
H670 H 0.78368 0.12984 0.71164 0.0
H671 H 0.83721 0.15308 0.97812 0.0
C672 C 0.86135 0.15632 0.89856 0.0
C673 C 0.86574 0.15558 0.81361 0.0
C674 C 0.78169 0.13401 0.77789 0.0
C675 C 0.82284 0.14711 0.83995 0.0
C676 C 0.76056 0.1305 0.78994 0.0
C677 C 0.75726 0.1359 0.87483 0.0
C678 C 0.7999 0.14285 0.85113 0.0
C679 C 0.77595 0.14472 0.94638 0.0
C680 C 0.84008 0.15225 0.912 0.0
C681 C 0.84799 0.15033 0.74353 0.0
N682 N 0.79632 0.14782 0.93296 0.0
N683 N 0.82746 0.14627 0.75821 0.0
H684 H 0.60078 0.97522 0.94833 0.0
H685 H 0.71656 0.97214 1.07533 0.0
H686 H 0.66855 0.04415 0.92457 0.0
H687 H 0.64891 0.90919 0.11736 0.0
H688 H 0.69958 0.99749 1.0111 0.0
H689 H 0.61827 0.94947 1.00023 0.0
C690 C 0.61936 0.98492 0.95338 0.0
C691 C 0.63317 0.01202 0.93206 0.0
C692 C 0.68849 0.97813 1.03444 0.0
C693 C 0.65354 0.98243 0.99272 0.0
C694 C 0.69815 0.96355 1.07082 0.0
C695 C 0.68424 0.93855 0.10276 0.0
C696 C 0.66468 0.9675 1.02911 0.0
C697 C 0.66051 0.92863 0.09541 0.0
C698 C 0.62939 0.97016 0.98344 0.0
C699 C 0.65719 0.02332 0.94012 0.0
N700 N 0.65156 0.94306 1.05958 0.0
N701 N 0.66663 1.00854 0.97012 0.0
H702 H 0.18566 0.73907 0.44552 0.0
H703 H 0.18317 0.59134 0.35216 0.0
H704 H 0.24777 0.73808 0.43888 0.0
H705 H 0.12168 0.59449 0.28637 0.0
H706 H 0.20707 0.64453 0.39637 0.0
H707 H 0.16199 0.68592 0.40094 0.0
C708 C 0.19438 0.72775 0.43525 0.0
C709 C 0.21886 0.74335 0.44619 0.0
C710 C 0.18835 0.63359 0.372 0.0
C711 C 0.19167 0.68203 0.39513 0.0
C712 C 0.17466 0.60313 0.34667 0.0
C713 C 0.15027 0.58813 0.31488 0.0
C714 C 0.17766 0.64943 0.3671 0.0
C715 C 0.14037 0.60488 0.30981 0.0
C716 C 0.1808 0.69732 0.40933 0.0
C717 C 0.22901 0.7272 0.43126 0.0
N718 N 0.15399 0.63439 0.33598 0.0
N719 N 0.21546 0.69763 0.40704 0.0
H720 H 0.46827 0.4791 0.2326 0.0
H721 H 0.39076 0.34376 0.44517 0.0
H722 H 0.47271 0.40378 0.20869 0.0
H723 H 0.39395 0.42419 0.49158 0.0
H724 H 0.41899 0.36371 0.35172 0.0
H725 H 0.43911 0.45757 0.3203 0.0
C726 C 0.46296 0.45789 0.24514 0.0
C727 C 0.47293 0.44321 0.21291 0.0
C728 C 0.4135 0.37696 0.38243 0.0
C729 C 0.43962 0.41847 0.31464 0.0
C730 C 0.39731 0.36555 0.43542 0.0
C731 C 0.39005 0.38239 0.47661 0.0
C732 C 0.42232 0.40531 0.36993 0.0
C733 C 0.39929 0.41057 0.46226 0.0
C734 C 0.4464 0.44568 0.29587 0.0
C735 C 0.46564 0.41599 0.23283 0.0
N736 N 0.41487 0.42108 0.41013 0.0
N737 N 0.4494 0.40447 0.2823 0.0
H738 H 0.88016 0.6856 0.66116 0.0
H739 H 0.89434 0.82294 0.48382 0.0
H740 H 0.94678 0.76138 0.65863 0.0
H741 H 0.82737 0.74361 0.45725 0.0
H742 H 0.91364 0.80073 0.54916 0.0
H743 H 0.86045 0.70684 0.59032 0.0
C744 C 0.89062 0.70646 0.64422 0.0
C745 C 0.91516 0.72182 0.66585 0.0
C746 C 0.89473 0.78813 0.52902 0.0
C747 C 0.89264 0.7458 0.58258 0.0
C748 C 0.88365 0.80077 0.49122 0.0
C749 C 0.85912 0.78516 0.46459 0.0
C750 C 0.88127 0.75963 0.54112 0.0
C751 C 0.84628 0.75667 0.47775 0.0
C752 C 0.87932 0.71851 0.60351 0.0
C753 C 0.92783 0.74885 0.64313 0.0
N754 N 0.85749 0.74484 0.51507 0.0
N755 N 0.91643 0.75997 0.60271 0.0
H756 H 0.40708 0.08206 0.65273 0.0
H757 H 0.27859 0.94002 0.61677 0.0
H758 H 0.3539 0.08309 0.76746 0.0
H759 H 0.33348 0.93559 0.52696 0.0
H760 H 0.30526 0.99276 0.663 0.0
H761 H 0.38008 0.02928 0.59744 0.0
C762 C 0.38973 0.07129 0.66597 0.0
C763 C 0.38289 0.08725 0.71527 0.0
C764 C 0.31152 0.98034 0.63292 0.0
C765 C 0.35168 0.02652 0.65176 0.0
C766 C 0.29619 0.95006 0.60612 0.0
C767 C 0.30361 0.93298 0.56756 0.0
C768 C 0.33465 0.9941 0.6212 0.0
C769 C 0.32682 0.94763 0.5562 0.0
C770 C 0.37429 0.04107 0.63453 0.0
C771 C 0.36009 0.07187 0.73019 0.0
N772 N 0.34141 0.97713 0.58276 0.0
N773 N 0.34545 0.04264 0.69884 0.0
H774 H 0.98819 0.17909 0.57829 0.0
H775 H 0.11871 0.22355 0.79006 0.0
H776 H 1.01642 0.19824 0.857 0.0
H777 H 0.08704 0.18735 0.51357 0.0
H778 H 0.0825 0.21879 0.81283 0.0
H779 H 0.025 0.18597 0.55076 0.0
C780 C 1.00209 0.18479 0.63375 0.0
C781 C 0.99901 0.18786 0.72021 0.0
C782 C 0.08342 0.21191 0.74706 0.0
C783 C 0.04142 0.19607 0.68905 0.0
C784 C 0.10425 0.21483 0.73378 0.0
C785 C 0.10618 0.20589 0.64962 0.0
C786 C 0.06411 0.20009 0.67576 0.0
C787 C 0.08645 0.19428 0.57985 0.0
C788 C 0.02312 0.18867 0.61792 0.0
C789 C 0.01779 0.1954 0.78924 0.0
N790 N 0.06636 0.19178 0.5944 0.0
N791 N 0.03806 0.19927 0.77219 0.0
H792 H 0.37749 0.18994 0.58805 0.0
H793 H 0.27904 0.20717 0.75419 0.0
H794 H 0.37314 0.19476 0.86016 0.0
H795 H 0.31005 0.24547 0.54461 0.0
H796 H 0.30734 0.19258 0.78091 0.0
H797 H 0.34732 0.201 0.5589 0.0
C798 C 0.37019 0.19324 0.64182 0.0
C799 C 0.37818 0.1916 0.72704 0.0
C800 C 0.30773 0.20388 0.72843 0.0
C801 C 0.34278 0.20349 0.69305 0.0
C802 C 0.29138 0.21191 0.71243 0.0
C803 C 0.29194 0.22738 0.64642 0.0
C804 C 0.32447 0.21074 0.67678 0.0
C805 C 0.3088 0.23346 0.59583 0.0
C806 C 0.35289 0.19954 0.62496 0.0
C807 C 0.36774 0.19594 0.79356 0.0
N808 N 0.32418 0.22503 0.61161 0.0
N809 N 0.35053 0.20144 0.7751 0.0
H810 H 0.78959 0.95762 0.35694 0.0
H811 H 0.92047 0.0764 0.63883 0.0
H812 H 0.84292 0.94014 0.43402 0.0
H813 H 0.86739 0.096 0.59545 0.0
H814 H 0.89247 0.02748 0.55231 0.0
H815 H 0.81759 1.00879 0.43226 0.0
C816 C 0.80717 0.96448 0.38895 0.0
C817 C 0.81377 0.94428 0.3888 0.0
C818 C 0.88682 0.04237 0.56105 0.0
C819 C 0.84599 1.00301 0.47542 0.0
C820 C 0.90291 0.07049 0.61052 0.0
C821 C 0.89638 0.09053 0.62502 0.0
C822 C 0.86371 0.03372 0.52486 0.0
C823 C 0.87327 0.08138 0.58606 0.0
C824 C 0.82314 0.99373 0.43227 0.0
C825 C 0.83684 0.95464 0.43208 0.0
N826 N 0.85777 0.05367 0.53816 0.0
N827 N 0.85193 0.983 0.47319 0.0
H828 H 0.98504 0.68918 0.5659 0.0
H829 H 0.12493 0.79143 0.73276 0.0
H830 H 0.02116 0.7324 0.83599 0.0
H831 H 0.09043 0.74824 0.46155 0.0
H832 H 0.08681 0.76909 0.77084 0.0
H833 H 0.02307 0.70962 0.52544 0.0
C834 C 1.00091 0.7029 0.61672 0.0
C835 C 0.9998 0.70906 0.70454 0.0
C836 C 0.08751 0.7644 0.70295 0.0
C837 C 0.04344 0.73255 0.65863 0.0
C838 C 0.10934 0.7773 0.68102 0.0
C839 C 0.11102 0.77191 0.59361 0.0
C840 C 0.06699 0.7459 0.63715 0.0
C841 C 0.09009 0.75288 0.52991 0.0
C842 C 0.02263 0.71456 0.59355 0.0
C843 C 0.02102 0.72701 0.76743 0.0
N844 N 0.06898 0.7407 0.55283 0.0
N845 N 0.04185 0.73808 0.74327 0.0
loop_
_geom_bond_atom_site_label_1
_geom_bond_atom_site_label_2
_geom_bond_distance
_geom_bond_site_symmetry_2
_ccdc_geom_bond_type
Gd0 C3 2.818 . S
Gd0 O20 2.377 . S
Gd0 O22 2.448 . S
Gd0 O23 2.506 . S
Gd0 O24 2.435 1_554 S
Gd0 O25 2.717 1_554 S
Gd0 O27 2.395 . S
Gd0 O31 2.327 . S
Gd1 C12 2.776 1_455 S
Gd1 O21 2.395 . S
Gd1 O25 2.327 1_554 S
Gd1 O26 2.377 . S
Gd1 O28 2.448 1_455 S
Gd1 O29 2.506 1_554 S
Gd1 O30 2.435 . S
Gd1 O31 2.717 . S
C2 O20 1.240 . S
C2 O21 1.240 . S
C3 Gd0 2.818 . S
C3 C4 1.510 . S
C3 O22 1.249 . S
C3 O23 1.252 . S
C4 C3 1.510 . S
C4 C5 1.404 . S
C4 C6 1.352 . S
C5 C4 1.404 . S
C5 C9 1.389 . S
C5 H32 0.930 . S
C6 C4 1.352 . S
C6 C8 1.374 . S
C6 H33 0.931 . S
C7 C8 1.359 . S
C7 C9 1.364 . S
C8 C6 1.374 . S
C8 C7 1.359 . S
C8 H34 0.931 . S
C9 C5 1.389 . S
C9 C7 1.364 . S
C9 H35 0.931 . S
C10 O24 1.256 . S
C10 O25 1.257 . S
C11 O26 1.240 . S
C11 O27 1.240 . S
C12 Gd1 2.776 1_655 S
C12 C13 1.553 . S
C12 O28 1.257 . S
C12 O29 1.205 1_654 S
C13 C12 1.553 . S
C13 C14 1.404 . S
C13 C15 1.352 1_654 S
C14 C13 1.404 . S
C14 C18 1.389 . S
C14 H36 0.930 . S
C15 C13 1.352 1_456 S
C15 C17 1.375 1_455 S
C15 H37 0.929 . S
C16 C17 1.359 . S
C16 C18 1.364 1_556 S
C17 C15 1.375 1_655 S
C17 C16 1.359 . S
C17 H38 0.939 . S
C18 C14 1.389 . S
C18 C16 1.364 1_554 S
C18 H39 0.931 . S
C19 O30 1.256 . S
C19 O31 1.257 . S
O20 Gd0 2.377 . S
O20 C2 1.240 . S
O21 Gd1 2.395 . S
O21 C2 1.240 . S
O22 Gd0 2.448 . S
O22 C3 1.249 . S
O23 Gd0 2.506 . S
O23 C3 1.252 . S
O24 Gd0 2.435 1_556 S
O24 C10 1.256 . S
O25 Gd0 2.717 1_556 S
O25 Gd1 2.327 1_556 S
O25 C10 1.257 . S
O26 Gd1 2.377 . S
O26 C11 1.240 . S
O27 Gd0 2.395 . S
O27 C11 1.240 . S
O28 Gd1 2.448 1_655 S
O28 C12 1.257 . S
O29 Gd1 2.506 1_556 S
O29 C12 1.205 1_456 S
O30 Gd1 2.435 . S
O30 C19 1.256 . S
O31 Gd0 2.327 . S
O31 Gd1 2.717 . S
O31 C19 1.257 . S
H32 C5 0.930 . S
H33 C6 0.931 . S
H34 C8 0.931 . S
H35 C9 0.931 . S
H36 C14 0.930 . S
H37 C15 0.929 . S
H38 C17 0.939 . S
H39 C18 0.931 . S
Gd40 C43 2.818 . S
Gd40 O60 2.377 . S
Gd40 O62 2.448 . S
Gd40 O63 2.506 . S
Gd40 O64 2.435 . S
Gd40 O65 2.717 . S
Gd40 O67 2.395 . S
Gd40 O71 2.327 . S
Gd41 C52 2.818 . S
Gd41 O61 2.395 . S
Gd41 O65 2.327 . S
Gd41 O66 2.377 . S
Gd41 O68 2.448 . S
Gd41 O69 2.506 . S
Gd41 O70 2.435 1_554 S
Gd41 O71 2.717 . S
C42 O60 1.240 . S
C42 O61 1.240 . S
C43 Gd40 2.818 . S
C43 C44 1.510 . S
C43 O62 1.249 . S
C43 O63 1.252 . S
C44 C43 1.510 . S
C44 C45 1.404 . S
C44 C46 1.352 . S
C45 C44 1.404 . S
C45 C49 1.389 . S
C45 H72 0.930 . S
C46 C44 1.352 . S
C46 C48 1.374 . S
C46 H73 0.931 . S
C47 C48 1.359 . S
C47 C49 1.364 . S
C48 C46 1.374 . S
C48 C47 1.359 . S
C48 H74 0.931 . S
C49 C45 1.389 . S
C49 C47 1.364 . S
C49 H75 0.931 . S
C50 O64 1.256 . S
C50 O65 1.257 . S
C51 O66 1.240 . S
C51 O67 1.240 . S
C52 Gd41 2.818 . S
C52 C53 1.510 . S
C52 O68 1.249 . S
C52 O69 1.252 . S
C53 C52 1.510 . S
C53 C54 1.404 . S
C53 C55 1.352 . S
C54 C53 1.404 . S
C54 C58 1.389 . S
C54 H76 0.930 . S
C55 C53 1.352 . S
C55 C57 1.374 . S
C55 H77 0.931 . S
C56 C57 1.359 . S
C56 C58 1.364 . S
C57 C55 1.374 . S
C57 C56 1.359 . S
C57 H78 0.931 . S
C58 C54 1.389 . S
C58 C56 1.364 . S
C58 H79 0.931 . S
C59 O70 1.256 . S
C59 O71 1.257 1_556 S
O60 Gd40 2.377 . S
O60 C42 1.240 . S
O61 Gd41 2.395 . S
O61 C42 1.240 . S
O62 Gd40 2.448 . S
O62 C43 1.249 . S
O63 Gd40 2.506 . S
O63 C43 1.252 . S
O64 Gd40 2.435 . S
O64 C50 1.256 . S
O65 Gd40 2.717 . S
O65 Gd41 2.327 . S
O65 C50 1.257 . S
O66 Gd41 2.377 . S
O66 C51 1.240 . S
O67 Gd40 2.395 . S
O67 C51 1.240 . S
O68 Gd41 2.448 . S
O68 C52 1.249 . S
O69 Gd41 2.506 . S
O69 C52 1.252 . S
O70 Gd41 2.435 1_556 S
O70 C59 1.256 . S
O71 Gd40 2.327 . S
O71 Gd41 2.717 . S
O71 C59 1.257 1_554 S
H72 C45 0.930 . S
H73 C46 0.931 . S
H74 C48 0.931 . S
H75 C49 0.931 . S
H76 C54 0.930 . S
H77 C55 0.931 . S
H78 C57 0.931 . S
H79 C58 0.931 . S
Gd80 C83 2.818 . S
Gd80 O100 2.377 . S
Gd80 O102 2.448 . S
Gd80 O103 2.506 . S
Gd80 O104 2.435 . S
Gd80 O105 2.717 . S
Gd80 O107 2.395 . S
Gd80 O111 2.327 . S
Gd81 C92 2.818 . S
Gd81 O101 2.395 . S
Gd81 O105 2.327 . S
Gd81 O106 2.377 . S
Gd81 O108 2.448 . S
Gd81 O109 2.506 . S
Gd81 O110 2.435 . S
Gd81 O111 2.717 . S
C82 O100 1.240 . S
C82 O101 1.240 . S
C83 Gd80 2.818 . S
C83 C84 1.510 . S
C83 O102 1.249 . S
C83 O103 1.252 . S
C84 C83 1.510 . S
C84 C85 1.404 . S
C84 C86 1.352 . S
C85 C84 1.404 . S
C85 C89 1.389 . S
C85 H112 0.930 . S
C86 C84 1.352 . S
C86 C88 1.374 . S
C86 H113 0.931 . S
C87 C88 1.359 . S
C87 C89 1.364 . S
C88 C86 1.374 . S
C88 C87 1.359 . S
C88 H114 0.931 . S
C89 C85 1.389 . S
C89 C87 1.364 . S
C89 H115 0.931 . S
C90 O104 1.256 . S
C90 O105 1.257 . S
C91 O106 1.240 . S
C91 O107 1.240 . S
C92 Gd81 2.818 . S
C92 C93 1.510 . S
C92 O108 1.249 . S
C92 O109 1.252 . S
C93 C92 1.510 . S
C93 C94 1.404 . S
C93 C95 1.352 . S
C94 C93 1.404 . S
C94 C98 1.389 . S
C94 H116 0.930 . S
C95 C93 1.352 . S
C95 C97 1.374 . S
C95 H117 0.931 . S
C96 C97 1.359 . S
C96 C98 1.364 . S
C97 C95 1.374 . S
C97 C96 1.359 . S
C97 H118 0.931 . S
C98 C94 1.389 . S
C98 C96 1.364 . S
C98 H119 0.931 . S
C99 O110 1.256 . S
C99 O111 1.257 . S
O100 Gd80 2.377 . S
O100 C82 1.240 . S
O101 Gd81 2.395 . S
O101 C82 1.240 . S
O102 Gd80 2.448 . S
O102 C83 1.249 . S
O103 Gd80 2.506 . S
O103 C83 1.252 . S
O104 Gd80 2.435 . S
O104 C90 1.256 . S
O105 Gd80 2.717 . S
O105 Gd81 2.327 . S
O105 C90 1.257 . S
O106 Gd81 2.377 . S
O106 C91 1.240 . S
O107 Gd80 2.395 . S
O107 C91 1.240 . S
O108 Gd81 2.448 . S
O108 C92 1.249 . S
O109 Gd81 2.506 . S
O109 C92 1.252 . S
O110 Gd81 2.435 . S
O110 C99 1.256 . S
O111 Gd80 2.327 . S
O111 Gd81 2.717 . S
O111 C99 1.257 . S
H112 C85 0.930 . S
H113 C86 0.931 . S
H114 C88 0.931 . S
H115 C89 0.931 . S
H116 C94 0.930 . S
H117 C95 0.931 . S
H118 C97 0.931 . S
H119 C98 0.931 . S
Gd120 C123 2.818 . S
Gd120 O140 2.377 . S
Gd120 O142 2.448 . S
Gd120 O143 2.506 . S
Gd120 O144 2.435 . S
Gd120 O145 2.717 . S
Gd120 O147 2.395 . S
Gd120 O151 2.327 . S
Gd121 C132 2.818 . S
Gd121 O141 2.395 . S
Gd121 O145 2.327 . S
Gd121 O146 2.377 . S
Gd121 O148 2.448 . S
Gd121 O149 2.506 . S
Gd121 O150 2.435 . S
Gd121 O151 2.717 . S
C122 O140 1.240 . S
C122 O141 1.240 . S
C123 Gd120 2.818 . S
C123 C124 1.510 . S
C123 O142 1.249 . S
C123 O143 1.252 . S
C124 C123 1.510 . S
C124 C125 1.404 . S
C124 C126 1.352 . S
C125 C124 1.404 . S
C125 C129 1.389 . S
C125 H152 0.930 . S
C126 C124 1.352 . S
C126 C128 1.374 . S
C126 H153 0.931 . S
C127 C128 1.359 . S
C127 C129 1.364 . S
C128 C126 1.374 . S
C128 C127 1.359 . S
C128 H154 0.931 . S
C129 C125 1.389 . S
C129 C127 1.364 . S
C129 H155 0.931 . S
C130 O144 1.256 . S
C130 O145 1.257 . S
C131 O146 1.240 . S
C131 O147 1.240 . S
C132 Gd121 2.818 . S
C132 C133 1.510 . S
C132 O148 1.249 . S
C132 O149 1.252 . S
C133 C132 1.510 . S
C133 C134 1.404 . S
C133 C135 1.352 . S
C134 C133 1.404 . S
C134 C138 1.389 . S
C134 H156 0.930 . S
C135 C133 1.352 . S
C135 C137 1.374 . S
C135 H157 0.931 . S
C136 C137 1.359 . S
C136 C138 1.364 . S
C137 C135 1.374 . S
C137 C136 1.359 . S
C137 H158 0.931 . S
C138 C134 1.389 . S
C138 C136 1.364 . S
C138 H159 0.931 . S
C139 O150 1.256 . S
C139 O151 1.257 . S
O140 Gd120 2.377 . S
O140 C122 1.240 . S
O141 Gd121 2.395 . S
O141 C122 1.240 . S
O142 Gd120 2.448 . S
O142 C123 1.249 . S
O143 Gd120 2.506 . S
O143 C123 1.252 . S
O144 Gd120 2.435 . S
O144 C130 1.256 . S
O145 Gd120 2.717 . S
O145 Gd121 2.327 . S
O145 C130 1.257 . S
O146 Gd121 2.377 . S
O146 C131 1.240 . S
O147 Gd120 2.395 . S
O147 C131 1.240 . S
O148 Gd121 2.448 . S
O148 C132 1.249 . S
O149 Gd121 2.506 . S
O149 C132 1.252 . S
O150 Gd121 2.435 . S
O150 C139 1.256 . S
O151 Gd120 2.327 . S
O151 Gd121 2.717 . S
O151 C139 1.257 . S
H152 C125 0.930 . S
H153 C126 0.931 . S
H154 C128 0.931 . S
H155 C129 0.931 . S
H156 C134 0.930 . S
H157 C135 0.931 . S
H158 C137 0.931 . S
H159 C138 0.931 . S
Gd160 C163 2.818 . S
Gd160 O180 2.377 . S
Gd160 O182 2.448 . S
Gd160 O183 2.506 . S
Gd160 O184 2.435 . S
Gd160 O185 2.717 . S
Gd160 O187 2.395 . S
Gd160 O191 2.327 . S
Gd161 C172 2.818 . S
Gd161 O181 2.395 . S
Gd161 O185 2.327 . S
Gd161 O186 2.377 . S
Gd161 O188 2.448 . S
Gd161 O189 2.506 . S
Gd161 O190 2.435 . S
Gd161 O191 2.717 . S
C162 O180 1.240 . S
C162 O181 1.240 . S
C163 Gd160 2.818 . S
C163 C164 1.510 . S
C163 O182 1.249 . S
C163 O183 1.252 . S
C164 C163 1.510 . S
C164 C165 1.404 . S
C164 C166 1.352 . S
C165 C164 1.404 . S
C165 C169 1.389 . S
C165 H192 0.930 . S
C166 C164 1.352 . S
C166 C168 1.374 . S
C166 H193 0.931 . S
C167 C168 1.359 . S
C167 C169 1.364 . S
C168 C166 1.374 . S
C168 C167 1.359 . S
C168 H194 0.931 . S
C169 C165 1.389 . S
C169 C167 1.364 . S
C169 H195 0.931 . S
C170 O184 1.256 . S
C170 O185 1.257 . S
C171 O186 1.240 . S
C171 O187 1.240 . S
C172 Gd161 2.818 . S
C172 C173 1.510 . S
C172 O188 1.249 . S
C172 O189 1.252 . S
C173 C172 1.510 . S
C173 C174 1.404 . S
C173 C175 1.352 . S
C174 C173 1.404 . S
C174 C178 1.389 . S
C174 H196 0.930 . S
C175 C173 1.352 . S
C175 C177 1.374 . S
C175 H197 0.931 . S
C176 C177 1.359 . S
C176 C178 1.364 . S
C177 C175 1.374 . S
C177 C176 1.359 . S
C177 H198 0.931 . S
C178 C174 1.389 . S
C178 C176 1.364 . S
C178 H199 0.931 . S
C179 O190 1.256 . S
C179 O191 1.257 . S
O180 Gd160 2.377 . S
O180 C162 1.240 . S
O181 Gd161 2.395 . S
O181 C162 1.240 . S
O182 Gd160 2.448 . S
O182 C163 1.249 . S
O183 Gd160 2.506 . S
O183 C163 1.252 . S
O184 Gd160 2.435 . S
O184 C170 1.256 . S
O185 Gd160 2.717 . S
O185 Gd161 2.327 . S
O185 C170 1.257 . S
O186 Gd161 2.377 . S
O186 C171 1.240 . S
O187 Gd160 2.395 . S
O187 C171 1.240 . S
O188 Gd161 2.448 . S
O188 C172 1.249 . S
O189 Gd161 2.506 . S
O189 C172 1.252 . S
O190 Gd161 2.435 . S
O190 C179 1.256 . S
O191 Gd160 2.327 . S
O191 Gd161 2.717 . S
O191 C179 1.257 . S
H192 C165 0.930 . S
H193 C166 0.931 . S
H194 C168 0.931 . S
H195 C169 0.931 . S
H196 C174 0.930 . S
H197 C175 0.931 . S
H198 C177 0.931 . S
H199 C178 0.931 . S
Gd200 C203 2.818 . S
Gd200 O220 2.377 . S
Gd200 O222 2.448 . S
Gd200 O223 2.506 . S
Gd200 O224 2.435 . S
Gd200 O225 2.717 . S
Gd200 O227 2.395 . S
Gd200 O231 2.327 . S
Gd201 C212 2.818 . S
Gd201 O221 2.395 . S
Gd201 O225 2.327 . S
Gd201 O226 2.377 . S
Gd201 O228 2.448 . S
Gd201 O229 2.506 . S
Gd201 O230 2.435 . S
Gd201 O231 2.717 . S
C202 O220 1.240 . S
C202 O221 1.240 . S
C203 Gd200 2.818 . S
C203 C204 1.510 . S
C203 O222 1.249 . S
C203 O223 1.252 . S
C204 C203 1.510 . S
C204 C205 1.404 . S
C204 C206 1.352 . S
C205 C204 1.404 . S
C205 C209 1.389 . S
C205 H232 0.930 . S
C206 C204 1.352 . S
C206 C208 1.374 . S
C206 H233 0.931 . S
C207 C208 1.359 . S
C207 C209 1.364 . S
C208 C206 1.374 . S
C208 C207 1.359 . S
C208 H234 0.931 . S
C209 C205 1.389 . S
C209 C207 1.364 . S
C209 H235 0.931 . S
C210 O224 1.256 . S
C210 O225 1.257 . S
C211 O226 1.240 . S
C211 O227 1.240 . S
C212 Gd201 2.818 . S
C212 C213 1.510 . S
C212 O228 1.249 . S
C212 O229 1.252 . S
C213 C212 1.510 . S
C213 C214 1.404 . S
C213 C215 1.352 . S
C214 C213 1.404 . S
C214 C218 1.389 . S
C214 H236 0.930 . S
C215 C213 1.352 . S
C215 C217 1.374 . S
C215 H237 0.931 . S
C216 C217 1.359 . S
C216 C218 1.364 . S
C217 C215 1.374 . S
C217 C216 1.359 . S
C217 H238 0.931 . S
C218 C214 1.389 . S
C218 C216 1.364 . S
C218 H239 0.931 . S
C219 O230 1.256 . S
C219 O231 1.257 . S
O220 Gd200 2.377 . S
O220 C202 1.240 . S
O221 Gd201 2.395 . S
O221 C202 1.240 . S
O222 Gd200 2.448 . S
O222 C203 1.249 . S
O223 Gd200 2.506 . S
O223 C203 1.252 . S
O224 Gd200 2.435 . S
O224 C210 1.256 . S
O225 Gd200 2.717 . S
O225 Gd201 2.327 . S
O225 C210 1.257 . S
O226 Gd201 2.377 . S
O226 C211 1.240 . S
O227 Gd200 2.395 . S
O227 C211 1.240 . S
O228 Gd201 2.448 . S
O228 C212 1.249 . S
O229 Gd201 2.506 . S
O229 C212 1.252 . S
O230 Gd201 2.435 . S
O230 C219 1.256 . S
O231 Gd200 2.327 . S
O231 Gd201 2.717 . S
O231 C219 1.257 . S
H232 C205 0.930 . S
H233 C206 0.931 . S
H234 C208 0.931 . S
H235 C209 0.931 . S
H236 C214 0.930 . S
H237 C215 0.931 . S
H238 C217 0.931 . S
H239 C218 0.931 . S
Gd240 C243 2.818 . S
Gd240 O260 2.377 . S
Gd240 O262 2.448 . S
Gd240 O263 2.506 . S
Gd240 O264 2.435 . S
Gd240 O265 2.717 . S
Gd240 O267 2.395 . S
Gd240 O271 2.327 . S
Gd241 C252 2.818 . S
Gd241 O261 2.395 . S
Gd241 O265 2.327 . S
Gd241 O266 2.377 . S
Gd241 O268 2.448 . S
Gd241 O269 2.506 . S
Gd241 O270 2.435 . S
Gd241 O271 2.717 . S
C242 O260 1.240 . S
C242 O261 1.240 . S
C243 Gd240 2.818 . S
C243 C244 1.510 . S
C243 O262 1.249 . S
C243 O263 1.252 . S
C244 C243 1.510 . S
C244 C245 1.404 . S
C244 C246 1.352 . S
C245 C244 1.404 . S
C245 C249 1.389 . S
C245 H272 0.930 . S
C246 C244 1.352 . S
C246 C248 1.374 . S
C246 H273 0.931 . S
C247 C248 1.359 . S
C247 C249 1.364 . S
C248 C246 1.374 . S
C248 C247 1.359 . S
C248 H274 0.931 . S
C249 C245 1.389 . S
C249 C247 1.364 . S
C249 H275 0.931 . S
C250 O264 1.256 . S
C250 O265 1.257 . S
C251 O266 1.240 . S
C251 O267 1.240 . S
C252 Gd241 2.818 . S
C252 C253 1.519 . S
C252 O268 1.249 . S
C252 O269 1.252 . S
C253 C252 1.519 . S
C253 C254 1.399 1_556 S
C253 C255 1.348 1_556 S
C254 C253 1.399 1_554 S
C254 C258 1.389 . S
C254 H276 0.930 1_554 S
C255 C253 1.348 1_554 S
C255 C257 1.374 . S
C255 H277 0.931 . S
C256 C257 1.359 . S
C256 C258 1.364 . S
C257 C255 1.374 . S
C257 C256 1.359 . S
C257 H278 0.931 . S
C258 C254 1.389 . S
C258 C256 1.364 . S
C258 H279 0.931 . S
C259 O270 1.256 . S
C259 O271 1.257 . S
O260 Gd240 2.377 . S
O260 C242 1.240 . S
O261 Gd241 2.395 . S
O261 C242 1.240 . S
O262 Gd240 2.448 . S
O262 C243 1.249 . S
O263 Gd240 2.506 . S
O263 C243 1.252 . S
O264 Gd240 2.435 . S
O264 C250 1.256 . S
O265 Gd240 2.717 . S
O265 Gd241 2.327 . S
O265 C250 1.257 . S
O266 Gd241 2.377 . S
O266 C251 1.240 . S
O267 Gd240 2.395 . S
O267 C251 1.240 . S
O268 Gd241 2.448 . S
O268 C252 1.249 . S
O269 Gd241 2.506 . S
O269 C252 1.252 . S
O270 Gd241 2.435 . S
O270 C259 1.256 . S
O271 Gd240 2.327 . S
O271 Gd241 2.717 . S
O271 C259 1.257 . S
H272 C245 0.930 . S
H273 C246 0.931 . S
H274 C248 0.931 . S
H275 C249 0.931 . S
H276 C254 0.930 1_556 S
H277 C255 0.931 . S
H278 C257 0.931 . S
H279 C258 0.931 . S
Gd280 C283 2.818 . S
Gd280 O300 2.377 . S
Gd280 O302 2.448 . S
Gd280 O303 2.506 . S
Gd280 O304 2.435 . S
Gd280 O305 2.717 . S
Gd280 O307 2.395 . S
Gd280 O311 2.327 . S
Gd281 C292 2.818 . S
Gd281 O301 2.395 . S
Gd281 O305 2.327 . S
Gd281 O306 2.377 . S
Gd281 O308 2.448 . S
Gd281 O309 2.506 . S
Gd281 O310 2.435 . S
Gd281 O311 2.717 . S
C282 O300 1.240 . S
C282 O301 1.240 . S
C283 Gd280 2.818 . S
C283 C284 1.510 . S
C283 O302 1.249 . S
C283 O303 1.252 . S
C284 C283 1.510 . S
C284 C285 1.404 1_556 S
C284 C286 1.352 1_556 S
C285 C284 1.404 1_554 S
C285 C289 1.389 . S
C285 H312 0.930 1_554 S
C286 C284 1.352 1_554 S
C286 C288 1.374 . S
C286 H313 0.931 . S
C287 C288 1.359 . S
C287 C289 1.364 . S
C288 C286 1.374 . S
C288 C287 1.359 . S
C288 H314 0.931 . S
C289 C285 1.389 . S
C289 C287 1.364 . S
C289 H315 0.931 . S
C290 O304 1.256 . S
C290 O305 1.257 . S
C291 O306 1.240 . S
C291 O307 1.240 . S
C292 Gd281 2.818 . S
C292 C293 1.510 . S
C292 O308 1.249 . S
C292 O309 1.252 . S
C293 C292 1.510 . S
C293 C294 1.404 . S
C293 C295 1.352 . S
C294 C293 1.404 . S
C294 C298 1.389 . S
C294 H316 0.930 . S
C295 C293 1.352 . S
C295 C297 1.374 . S
C295 H317 0.931 . S
C296 C297 1.359 . S
C296 C298 1.364 . S
C297 C295 1.374 . S
C297 C296 1.359 . S
C297 H318 0.931 . S
C298 C294 1.389 . S
C298 C296 1.364 . S
C298 H319 0.931 . S
C299 O310 1.256 . S
C299 O311 1.257 . S
O300 Gd280 2.377 . S
O300 C282 1.240 . S
O301 Gd281 2.395 . S
O301 C282 1.240 . S
O302 Gd280 2.448 . S
O302 C283 1.249 . S
O303 Gd280 2.506 . S
O303 C283 1.252 . S
O304 Gd280 2.435 . S
O304 C290 1.256 . S
O305 Gd280 2.717 . S
O305 Gd281 2.327 . S
O305 C290 1.257 . S
O306 Gd281 2.377 . S
O306 C291 1.240 . S
O307 Gd280 2.395 . S
O307 C291 1.240 . S
O308 Gd281 2.448 . S
O308 C292 1.249 . S
O309 Gd281 2.506 . S
O309 C292 1.252 . S
O310 Gd281 2.435 . S
O310 C299 1.256 . S
O311 Gd280 2.327 . S
O311 Gd281 2.717 . S
O311 C299 1.257 . S
H312 C285 0.930 1_556 S
H313 C286 0.931 . S
H314 C288 0.931 . S
H315 C289 0.931 . S
H316 C294 0.930 . S
H317 C295 0.931 . S
H318 C297 0.931 . S
H319 C298 0.931 . S
Gd320 C323 2.818 . S
Gd320 O340 2.377 . S
Gd320 O342 2.448 . S
Gd320 O343 2.506 . S
Gd320 O344 2.435 . S
Gd320 O345 2.717 . S
Gd320 O347 2.395 . S
Gd320 O351 2.327 . S
Gd321 C332 2.818 . S
Gd321 O341 2.395 . S
Gd321 O345 2.327 . S
Gd321 O346 2.377 . S
Gd321 O348 2.448 . S
Gd321 O349 2.506 . S
Gd321 O350 2.435 . S
Gd321 O351 2.717 . S
C322 O340 1.240 . S
C322 O341 1.240 . S
C323 Gd320 2.818 . S
C323 C324 1.510 . S
C323 O342 1.249 . S
C323 O343 1.252 . S
C324 C323 1.510 . S
C324 C325 1.404 . S
C324 C326 1.352 . S
C325 C324 1.404 . S
C325 C329 1.389 . S
C325 H352 0.930 . S
C326 C324 1.352 . S
C326 C328 1.374 . S
C326 H353 0.931 . S
C327 C328 1.359 . S
C327 C329 1.364 . S
C328 C326 1.374 . S
C328 C327 1.359 . S
C328 H354 0.931 . S
C329 C325 1.389 . S
C329 C327 1.364 . S
C329 H355 0.931 . S
C330 O344 1.256 . S
C330 O345 1.257 . S
C331 O346 1.240 . S
C331 O347 1.240 . S
C332 Gd321 2.818 . S
C332 C333 1.510 1_556 S
C332 O348 1.249 . S
C332 O349 1.252 . S
C333 C332 1.510 1_554 S
C333 C334 1.404 . S
C333 C335 1.352 . S
C334 C333 1.404 . S
C334 C338 1.389 . S
C334 H356 0.930 . S
C335 C333 1.352 . S
C335 C337 1.374 . S
C335 H357 0.931 . S
C336 C337 1.359 . S
C336 C338 1.364 . S
C337 C335 1.374 . S
C337 C336 1.359 . S
C337 H358 0.931 . S
C338 C334 1.389 . S
C338 C336 1.364 . S
C338 H359 0.931 . S
C339 O350 1.256 . S
C339 O351 1.257 . S
O340 Gd320 2.377 . S
O340 C322 1.240 . S
O341 Gd321 2.395 . S
O341 C322 1.240 . S
O342 Gd320 2.448 . S
O342 C323 1.249 . S
O343 Gd320 2.506 . S
O343 C323 1.252 . S
O344 Gd320 2.435 . S
O344 C330 1.256 . S
O345 Gd320 2.717 . S
O345 Gd321 2.327 . S
O345 C330 1.257 . S
O346 Gd321 2.377 . S
O346 C331 1.240 . S
O347 Gd320 2.395 . S
O347 C331 1.240 . S
O348 Gd321 2.448 . S
O348 C332 1.249 . S
O349 Gd321 2.506 . S
O349 C332 1.252 . S
O350 Gd321 2.435 . S
O350 C339 1.256 . S
O351 Gd320 2.327 . S
O351 Gd321 2.717 . S
O351 C339 1.257 . S
H352 C325 0.930 . S
H353 C326 0.931 . S
H354 C328 0.931 . S
H355 C329 0.931 . S
H356 C334 0.930 . S
H357 C335 0.931 . S
H358 C337 0.931 . S
H359 C338 0.931 . S
H360 C366 0.930 . S
H361 C370 0.930 . S
H362 C375 0.929 . S
H363 C373 0.929 . S
H364 C368 0.929 . S
H365 C374 0.929 . S
C366 H360 0.930 . S
C366 C367 1.367 . S
C366 C374 1.378 . S
C367 C366 1.367 . S
C367 C375 1.433 . S
C368 H364 0.929 . S
C368 C370 1.378 . S
C368 C372 1.350 . S
C369 C372 1.463 . S
C369 C374 1.350 . S
C369 N377 1.427 . S
C370 H361 0.930 . S
C370 C368 1.378 . S
C370 C371 1.367 . S
C371 C370 1.367 . S
C371 C373 1.433 . S
C372 C368 1.350 . S
C372 C369 1.463 . S
C372 N376 1.427 . S
C373 H363 0.929 . S
C373 C371 1.433 . S
C373 N376 1.384 . S
C374 H365 0.929 . S
C374 C366 1.378 . S
C374 C369 1.350 . S
C375 H362 0.929 . S
C375 C367 1.433 . S
C375 N377 1.384 . S
N376 C372 1.427 . S
N376 C373 1.384 . S
N377 C369 1.427 . S
N377 C375 1.384 . S
H378 C384 0.930 . S
H379 C388 0.930 . S
H380 C393 0.929 . S
H381 C391 0.929 . S
H382 C386 0.929 . S
H383 C392 0.929 . S
C384 H378 0.930 . S
C384 C385 1.367 . S
C384 C392 1.378 . S
C385 C384 1.367 . S
C385 C393 1.433 . S
C386 H382 0.929 . S
C386 C388 1.378 . S
C386 C390 1.350 . S
C387 C390 1.463 . S
C387 C392 1.350 . S
C387 N395 1.427 . S
C388 H379 0.930 . S
C388 C386 1.378 . S
C388 C389 1.367 . S
C389 C388 1.367 . S
C389 C391 1.433 . S
C390 C386 1.350 . S
C390 C387 1.463 . S
C390 N394 1.427 . S
C391 H381 0.929 . S
C391 C389 1.433 . S
C391 N394 1.384 . S
C392 H383 0.929 . S
C392 C384 1.378 . S
C392 C387 1.350 . S
C393 H380 0.929 . S
C393 C385 1.433 . S
C393 N395 1.384 . S
N394 C390 1.427 . S
N394 C391 1.384 . S
N395 C387 1.427 . S
N395 C393 1.384 . S
H396 C402 0.930 . S
H397 C406 0.930 . S
H398 C411 0.929 . S
H399 C409 0.929 . S
H400 C404 0.929 . S
H401 C410 0.929 . S
C402 H396 0.930 . S
C402 C403 1.367 . S
C402 C410 1.378 . S
C403 C402 1.367 . S
C403 C411 1.433 . S
C404 H400 0.929 . S
C404 C406 1.378 . S
C404 C408 1.350 . S
C405 C408 1.463 . S
C405 C410 1.350 . S
C405 N413 1.427 . S
C406 H397 0.930 . S
C406 C404 1.378 . S
C406 C407 1.367 . S
C407 C406 1.367 . S
C407 C409 1.433 . S
C408 C404 1.350 . S
C408 C405 1.463 . S
C408 N412 1.427 . S
C409 H399 0.929 . S
C409 C407 1.433 . S
C409 N412 1.384 . S
C410 H401 0.929 . S
C410 C402 1.378 . S
C410 C405 1.350 . S
C411 H398 0.929 . S
C411 C403 1.433 . S
C411 N413 1.384 . S
N412 C408 1.427 . S
N412 C409 1.384 . S
N413 C405 1.427 . S
N413 C411 1.384 . S
H414 C420 0.930 . S
H415 C424 0.930 . S
H416 C429 0.929 . S
H417 C427 0.929 . S
H418 C422 0.929 . S
H419 C428 0.929 . S
C420 H414 0.930 . S
C420 C421 1.367 . S
C420 C428 1.378 . S
C421 C420 1.367 . S
C421 C429 1.433 . S
C422 H418 0.929 . S
C422 C424 1.378 . S
C422 C426 1.350 . S
C423 C426 1.463 . S
C423 C428 1.350 . S
C423 N431 1.427 . S
C424 H415 0.930 . S
C424 C422 1.378 . S
C424 C425 1.367 . S
C425 C424 1.367 . S
C425 C427 1.433 . S
C426 C422 1.350 . S
C426 C423 1.463 . S
C426 N430 1.427 . S
C427 H417 0.929 . S
C427 C425 1.433 . S
C427 N430 1.384 . S
C428 H419 0.929 . S
C428 C420 1.378 . S
C428 C423 1.350 . S
C429 H416 0.929 . S
C429 C421 1.433 . S
C429 N431 1.384 . S
N430 C426 1.427 . S
N430 C427 1.384 . S
N431 C423 1.427 . S
N431 C429 1.384 . S
H432 C438 0.930 . S
H433 C442 0.930 . S
H434 C447 0.929 . S
H435 C445 0.929 . S
H436 C440 0.929 . S
H437 C446 0.929 . S
C438 H432 0.930 . S
C438 C439 1.367 . S
C438 C446 1.378 . S
C439 C438 1.367 . S
C439 C447 1.433 . S
C440 H436 0.929 . S
C440 C442 1.378 . S
C440 C444 1.350 . S
C441 C444 1.463 . S
C441 C446 1.350 . S
C441 N449 1.427 . S
C442 H433 0.930 . S
C442 C440 1.378 . S
C442 C443 1.367 . S
C443 C442 1.367 . S
C443 C445 1.433 . S
C444 C440 1.350 . S
C444 C441 1.463 . S
C444 N448 1.427 . S
C445 H435 0.929 . S
C445 C443 1.433 . S
C445 N448 1.384 . S
C446 H437 0.929 . S
C446 C438 1.378 . S
C446 C441 1.350 . S
C447 H434 0.929 . S
C447 C439 1.433 . S
C447 N449 1.384 . S
N448 C444 1.427 . S
N448 C445 1.384 . S
N449 C441 1.427 . S
N449 C447 1.384 . S
H450 C456 0.930 . S
H451 C460 0.930 . S
H452 C465 0.929 . S
H453 C463 0.929 . S
H454 C458 0.929 . S
H455 C464 0.929 . S
C456 H450 0.930 . S
C456 C457 1.367 . S
C456 C464 1.378 . S
C457 C456 1.367 . S
C457 C465 1.433 . S
C458 H454 0.929 . S
C458 C460 1.378 . S
C458 C462 1.350 . S
C459 C462 1.463 . S
C459 C464 1.350 . S
C459 N467 1.427 . S
C460 H451 0.930 . S
C460 C458 1.378 . S
C460 C461 1.367 . S
C461 C460 1.367 . S
C461 C463 1.433 . S
C462 C458 1.350 . S
C462 C459 1.463 . S
C462 N466 1.427 . S
C463 H453 0.929 . S
C463 C461 1.433 . S
C463 N466 1.384 . S
C464 H455 0.929 . S
C464 C456 1.378 . S
C464 C459 1.350 . S
C465 H452 0.929 . S
C465 C457 1.433 . S
C465 N467 1.384 . S
N466 C462 1.427 . S
N466 C463 1.384 . S
N467 C459 1.427 . S
N467 C465 1.384 . S
H468 C474 0.930 . S
H469 C478 0.930 . S
H470 C483 0.929 . S
H471 C481 0.929 . S
H472 C476 0.929 . S
H473 C482 0.929 . S
C474 H468 0.930 . S
C474 C475 1.367 . S
C474 C482 1.378 . S
C475 C474 1.367 . S
C475 C483 1.433 . S
C476 H472 0.929 . S
C476 C478 1.378 . S
C476 C480 1.350 . S
C477 C480 1.463 . S
C477 C482 1.350 . S
C477 N485 1.427 . S
C478 H469 0.930 . S
C478 C476 1.378 . S
C478 C479 1.367 . S
C479 C478 1.367 . S
C479 C481 1.433 . S
C480 C476 1.350 . S
C480 C477 1.463 . S
C480 N484 1.427 . S
C481 H471 0.929 . S
C481 C479 1.433 . S
C481 N484 1.384 . S
C482 H473 0.929 . S
C482 C474 1.378 . S
C482 C477 1.350 . S
C483 H470 0.929 . S
C483 C475 1.433 . S
C483 N485 1.384 . S
N484 C480 1.427 . S
N484 C481 1.384 . S
N485 C477 1.427 . S
N485 C483 1.384 . S
H486 C492 0.930 . S
H487 C496 0.930 . S
H488 C501 0.929 . S
H489 C499 0.929 . S
H490 C494 0.929 . S
H491 C500 0.929 . S
C492 H486 0.930 . S
C492 C493 1.367 . S
C492 C500 1.378 . S
C493 C492 1.367 . S
C493 C501 1.433 . S
C494 H490 0.929 . S
C494 C496 1.378 . S
C494 C498 1.350 . S
C495 C498 1.463 . S
C495 C500 1.350 . S
C495 N503 1.427 . S
C496 H487 0.930 . S
C496 C494 1.378 . S
C496 C497 1.367 . S
C497 C496 1.367 . S
C497 C499 1.433 . S
C498 C494 1.350 . S
C498 C495 1.463 . S
C498 N502 1.427 . S
C499 H489 0.929 . S
C499 C497 1.433 . S
C499 N502 1.384 . S
C500 H491 0.929 . S
C500 C492 1.378 . S
C500 C495 1.350 . S
C501 H488 0.929 . S
C501 C493 1.433 . S
C501 N503 1.384 . S
N502 C498 1.427 . S
N502 C499 1.384 . S
N503 C495 1.427 . S
N503 C501 1.384 . S
H504 C510 0.930 . S
H505 C514 0.930 . S
H506 C519 0.929 . S
H507 C517 0.929 . S
H508 C512 0.929 . S
H509 C518 0.929 . S
C510 H504 0.930 . S
C510 C511 1.367 . S
C510 C518 1.378 . S
C511 C510 1.367 . S
C511 C519 1.433 . S
C512 H508 0.929 . S
C512 C514 1.378 . S
C512 C516 1.350 . S
C513 C516 1.463 . S
C513 C518 1.350 . S
C513 N521 1.427 . S
C514 H505 0.930 . S
C514 C512 1.378 . S
C514 C515 1.367 . S
C515 C514 1.367 . S
C515 C517 1.433 . S
C516 C512 1.350 . S
C516 C513 1.463 . S
C516 N520 1.427 . S
C517 H507 0.929 . S
C517 C515 1.433 . S
C517 N520 1.384 . S
C518 H509 0.929 . S
C518 C510 1.378 . S
C518 C513 1.350 . S
C519 H506 0.929 . S
C519 C511 1.433 . S
C519 N521 1.384 . S
N520 C516 1.427 . S
N520 C517 1.384 . S
N521 C513 1.427 . S
N521 C519 1.384 . S
H522 C528 0.930 . S
H523 C532 0.930 . S
H524 C537 0.929 . S
H525 C535 0.929 . S
H526 C530 0.929 . S
H527 C536 0.929 . S
C528 H522 0.930 . S
C528 C529 1.367 . S
C528 C536 1.378 . S
C529 C528 1.367 . S
C529 C537 1.433 . S
C530 H526 0.929 . S
C530 C532 1.378 . S
C530 C534 1.350 . S
C531 C534 1.463 . S
C531 C536 1.350 . S
C531 N539 1.427 . S
C532 H523 0.930 . S
C532 C530 1.378 . S
C532 C533 1.367 . S
C533 C532 1.367 . S
C533 C535 1.433 . S
C534 C530 1.350 . S
C534 C531 1.463 . S
C534 N538 1.427 . S
C535 H525 0.929 . S
C535 C533 1.433 . S
C535 N538 1.384 . S
C536 H527 0.929 . S
C536 C528 1.378 . S
C536 C531 1.350 . S
C537 H524 0.929 . S
C537 C529 1.433 . S
C537 N539 1.384 . S
N538 C534 1.427 . S
N538 C535 1.384 . S
N539 C531 1.427 . S
N539 C537 1.384 . S
H540 C546 0.930 . S
H541 C550 0.930 . S
H542 C555 0.929 . S
H543 C553 0.929 . S
H544 C548 0.929 . S
H545 C554 0.929 . S
C546 H540 0.930 . S
C546 C547 1.367 . S
C546 C554 1.378 . S
C547 C546 1.367 . S
C547 C555 1.433 . S
C548 H544 0.929 . S
C548 C550 1.378 . S
C548 C552 1.350 . S
C549 C552 1.463 . S
C549 C554 1.350 . S
C549 N557 1.427 . S
C550 H541 0.930 . S
C550 C548 1.378 . S
C550 C551 1.367 . S
C551 C550 1.367 . S
C551 C553 1.433 . S
C552 C548 1.350 . S
C552 C549 1.463 . S
C552 N556 1.427 . S
C553 H543 0.929 . S
C553 C551 1.433 . S
C553 N556 1.384 . S
C554 H545 0.929 . S
C554 C546 1.378 . S
C554 C549 1.350 . S
C555 H542 0.929 . S
C555 C547 1.433 . S
C555 N557 1.384 . S
N556 C552 1.427 . S
N556 C553 1.384 . S
N557 C549 1.427 . S
N557 C555 1.384 . S
H558 C564 0.933 1_565 S
H559 C568 0.930 . S
H560 C573 0.929 . S
H561 C571 0.929 . S
H562 C566 0.929 . S
H563 C572 0.929 . S
C564 H558 0.933 1_545 S
C564 C565 1.367 . S
C564 C572 1.378 1_545 S
C565 C564 1.367 . S
C565 C573 1.433 . S
C566 H562 0.929 . S
C566 C568 1.378 . S
C566 C570 1.350 . S
C567 C570 1.463 . S
C567 C572 1.350 . S
C567 N575 1.427 1_565 S
C568 H559 0.930 . S
C568 C566 1.378 . S
C568 C569 1.367 . S
C569 C568 1.367 . S
C569 C571 1.433 . S
C570 C566 1.350 . S
C570 C567 1.463 . S
C570 N574 1.427 . S
C571 H561 0.929 . S
C571 C569 1.433 . S
C571 N574 1.384 . S
C572 H563 0.929 . S
C572 C564 1.378 1_565 S
C572 C567 1.350 . S
C573 H560 0.929 . S
C573 C565 1.433 . S
C573 N575 1.384 . S
N574 C570 1.427 . S
N574 C571 1.384 . S
N575 C567 1.427 1_545 S
N575 C573 1.384 . S
H576 C582 0.930 . S
H577 C586 0.930 . S
H578 C591 0.929 . S
H579 C589 0.929 . S
H580 C584 0.929 . S
H581 C590 0.929 1_556 S
C582 H576 0.930 . S
C582 C583 1.367 . S
C582 C590 1.378 . S
C583 C582 1.367 . S
C583 C591 1.433 . S
C584 H580 0.929 . S
C584 C586 1.378 . S
C584 C588 1.350 . S
C585 C588 1.463 . S
C585 C590 1.350 1_556 S
C585 N593 1.427 1_556 S
C586 H577 0.930 . S
C586 C584 1.378 . S
C586 C587 1.367 . S
C587 C586 1.367 . S
C587 C589 1.433 . S
C588 C584 1.350 . S
C588 C585 1.463 . S
C588 N592 1.427 . S
C589 H579 0.929 . S
C589 C587 1.433 . S
C589 N592 1.384 . S
C590 H581 0.929 1_554 S
C590 C582 1.378 . S
C590 C585 1.350 1_554 S
C591 H578 0.929 . S
C591 C583 1.433 . S
C591 N593 1.384 . S
N592 C588 1.427 . S
N592 C589 1.384 . S
N593 C585 1.427 1_554 S
N593 C591 1.384 . S
H594 C600 0.930 . S
H595 C604 0.930 1_554 S
H596 C609 0.929 . S
H597 C607 0.929 . S
H598 C602 0.929 . S
H599 C608 0.929 . S
C600 H594 0.930 . S
C600 C601 1.367 . S
C600 C608 1.378 . S
C601 C600 1.367 . S
C601 C609 1.433 . S
C602 H598 0.929 . S
C602 C604 1.378 . S
C602 C606 1.350 1_455 S
C603 C606 1.463 . S
C603 C608 1.350 . S
C603 N611 1.427 . S
C604 H595 0.930 1_556 S
C604 C602 1.378 . S
C604 C605 1.367 1_556 S
C605 C604 1.367 1_554 S
C605 C607 1.433 1_454 S
C606 C602 1.350 1_655 S
C606 C603 1.463 . S
C606 N610 1.427 . S
C607 H597 0.929 . S
C607 C605 1.433 1_656 S
C607 N610 1.384 . S
C608 H599 0.929 . S
C608 C600 1.378 . S
C608 C603 1.350 . S
C609 H596 0.929 . S
C609 C601 1.433 . S
C609 N611 1.384 . S
N610 C606 1.427 . S
N610 C607 1.384 . S
N611 C603 1.427 . S
N611 C609 1.384 . S
H612 C618 0.930 . S
H613 C622 0.930 . S
H614 C627 0.929 . S
H615 C625 0.929 . S
H616 C620 0.929 . S
H617 C626 0.929 . S
C618 H612 0.930 . S
C618 C619 1.367 . S
C618 C626 1.378 . S
C619 C618 1.367 . S
C619 C627 1.433 . S
C620 H616 0.929 . S
C620 C622 1.378 1_556 S
C620 C624 1.350 . S
C621 C624 1.463 . S
C621 C626 1.350 . S
C621 N629 1.427 . S
C622 H613 0.930 . S
C622 C620 1.378 1_554 S
C622 C623 1.367 . S
C623 C622 1.367 . S
C623 C625 1.433 . S
C624 C620 1.350 . S
C624 C621 1.463 . S
C624 N628 1.429 . S
C625 H615 0.929 . S
C625 C623 1.433 . S
C625 N628 1.379 1_554 S
C626 H617 0.929 . S
C626 C618 1.378 . S
C626 C621 1.350 . S
C627 H614 0.929 . S
C627 C619 1.433 . S
C627 N629 1.384 . S
N628 C624 1.429 . S
N628 C625 1.379 1_556 S
N629 C621 1.427 . S
N629 C627 1.384 . S
H630 C636 0.930 . S
H631 C640 0.930 . S
H632 C645 0.929 . S
H633 C643 0.929 1_455 S
H634 C638 0.929 . S
H635 C644 0.929 . S
C636 H630 0.930 . S
C636 C637 1.367 . S
C636 C644 1.378 . S
C637 C636 1.367 . S
C637 C645 1.433 . S
C638 H634 0.929 . S
C638 C640 1.378 . S
C638 C642 1.350 . S
C639 C642 1.463 . S
C639 C644 1.350 . S
C639 N647 1.427 . S
C640 H631 0.930 . S
C640 C638 1.378 . S
C640 C641 1.367 . S
C641 C640 1.367 . S
C641 C643 1.433 . S
C642 C638 1.350 . S
C642 C639 1.463 . S
C642 N646 1.427 . S
C643 H633 0.929 1_655 S
C643 C641 1.433 . S
C643 N646 1.384 . S
C644 H635 0.929 . S
C644 C636 1.378 . S
C644 C639 1.350 . S
C645 H632 0.929 . S
C645 C637 1.433 . S
C645 N647 1.384 . S
N646 C642 1.427 . S
N646 C643 1.384 . S
N647 C639 1.427 . S
N647 C645 1.384 . S
H648 C654 0.930 . S
H649 C658 0.930 . S
H650 C663 0.929 . S
H651 C661 0.929 . S
H652 C656 0.929 . S
H653 C662 0.929 . S
C654 H648 0.930 . S
C654 C655 1.367 . S
C654 C662 1.378 . S
C655 C654 1.367 . S
C655 C663 1.433 1_554 S
C656 H652 0.929 . S
C656 C658 1.378 . S
C656 C660 1.350 . S
C657 C660 1.463 . S
C657 C662 1.350 1_556 S
C657 N665 1.427 . S
C658 H649 0.930 . S
C658 C656 1.378 . S
C658 C659 1.367 . S
C659 C658 1.367 . S
C659 C661 1.433 . S
C660 C656 1.350 . S
C660 C657 1.463 . S
C660 N664 1.427 . S
C661 H651 0.929 . S
C661 C659 1.433 . S
C661 N664 1.384 . S
C662 H653 0.929 . S
C662 C654 1.378 . S
C662 C657 1.350 1_554 S
C663 H650 0.929 . S
C663 C655 1.433 1_556 S
C663 N665 1.384 . S
N664 C660 1.427 . S
N664 C661 1.384 . S
N665 C657 1.427 . S
N665 C663 1.384 . S
H666 C672 0.930 . S
H667 C676 0.930 . S
H668 C681 0.929 . S
H669 C679 0.929 . S
H670 C674 0.929 . S
H671 C680 0.926 1_554 S
C672 H666 0.930 . S
C672 C673 1.367 . S
C672 C680 1.378 . S
C673 C672 1.367 . S
C673 C681 1.433 . S
C674 H670 0.929 . S
C674 C676 1.378 1_556 S
C674 C678 1.350 . S
C675 C678 1.463 . S
C675 C680 1.350 . S
C675 N683 1.427 . S
C676 H667 0.930 . S
C676 C674 1.378 1_554 S
C676 C677 1.367 . S
C677 C676 1.367 . S
C677 C679 1.433 . S
C678 C674 1.350 . S
C678 C675 1.463 . S
C678 N682 1.427 1_556 S
C679 H669 0.929 . S
C679 C677 1.433 . S
C679 N682 1.384 . S
C680 H671 0.926 1_556 S
C680 C672 1.378 . S
C680 C675 1.350 . S
C681 H668 0.929 . S
C681 C673 1.433 . S
C681 N683 1.384 . S
N682 C678 1.427 1_554 S
N682 C679 1.384 . S
N683 C675 1.427 . S
N683 C681 1.384 . S
H684 C690 0.930 . S
H685 C694 0.930 . S
H686 C699 0.929 . S
H687 C697 0.929 . S
H688 C692 0.929 . S
H689 C698 0.929 . S
C690 H684 0.930 . S
C690 C691 1.367 . S
C690 C698 1.378 . S
C691 C690 1.367 . S
C691 C699 1.433 . S
C692 H688 0.929 . S
C692 C694 1.378 . S
C692 C696 1.350 . S
C693 C696 1.463 . S
C693 C698 1.350 . S
C693 N701 1.427 . S
C694 H685 0.930 . S
C694 C692 1.378 . S
C694 C695 1.367 1_545 S
C695 C694 1.367 1_565 S
C695 C697 1.433 . S
C696 C692 1.350 . S
C696 C693 1.463 . S
C696 N700 1.427 1_545 S
C697 H687 0.929 . S
C697 C695 1.433 . S
C697 N700 1.384 . S
C698 H689 0.929 . S
C698 C690 1.378 . S
C698 C693 1.350 . S
C699 H686 0.929 . S
C699 C691 1.433 . S
C699 N701 1.384 . S
N700 C696 1.427 1_565 S
N700 C697 1.384 . S
N701 C693 1.427 . S
N701 C699 1.384 . S
H702 C708 0.930 . S
H703 C712 0.930 . S
H704 C717 0.929 . S
H705 C715 0.929 . S
H706 C710 0.929 . S
H707 C716 0.929 . S
C708 H702 0.930 . S
C708 C709 1.367 . S
C708 C716 1.378 . S
C709 C708 1.367 . S
C709 C717 1.433 . S
C710 H706 0.929 . S
C710 C712 1.378 . S
C710 C714 1.350 . S
C711 C714 1.463 . S
C711 C716 1.350 . S
C711 N719 1.427 . S
C712 H703 0.930 . S
C712 C710 1.378 . S
C712 C713 1.367 . S
C713 C712 1.367 . S
C713 C715 1.433 . S
C714 C710 1.350 . S
C714 C711 1.463 . S
C714 N718 1.427 . S
C715 H705 0.929 . S
C715 C713 1.433 . S
C715 N718 1.384 . S
C716 H707 0.929 . S
C716 C708 1.378 . S
C716 C711 1.350 . S
C717 H704 0.929 . S
C717 C709 1.433 . S
C717 N719 1.384 . S
N718 C714 1.427 . S
N718 C715 1.384 . S
N719 C711 1.427 . S
N719 C717 1.384 . S
H720 C726 0.930 . S
H721 C730 0.930 . S
H722 C735 0.929 . S
H723 C733 0.929 . S
H724 C728 0.929 . S
H725 C734 0.929 . S
C726 H720 0.930 . S
C726 C727 1.367 . S
C726 C734 1.378 . S
C727 C726 1.367 . S
C727 C735 1.433 . S
C728 H724 0.929 . S
C728 C730 1.378 . S
C728 C732 1.350 . S
C729 C732 1.463 . S
C729 C734 1.350 . S
C729 N737 1.427 . S
C730 H721 0.930 . S
C730 C728 1.378 . S
C730 C731 1.367 . S
C731 C730 1.367 . S
C731 C733 1.433 . S
C732 C728 1.350 . S
C732 C729 1.463 . S
C732 N736 1.427 . S
C733 H723 0.929 . S
C733 C731 1.433 . S
C733 N736 1.384 . S
C734 H725 0.929 . S
C734 C726 1.378 . S
C734 C729 1.350 . S
C735 H722 0.929 . S
C735 C727 1.433 . S
C735 N737 1.384 . S
N736 C732 1.427 . S
N736 C733 1.384 . S
N737 C729 1.427 . S
N737 C735 1.384 . S
H738 C744 0.930 . S
H739 C748 0.930 . S
H740 C753 0.929 . S
H741 C751 0.929 . S
H742 C746 0.929 . S
H743 C752 0.929 . S
C744 H738 0.930 . S
C744 C745 1.367 . S
C744 C752 1.378 . S
C745 C744 1.367 . S
C745 C753 1.433 . S
C746 H742 0.929 . S
C746 C748 1.378 . S
C746 C750 1.350 . S
C747 C750 1.463 . S
C747 C752 1.350 . S
C747 N755 1.427 . S
C748 H739 0.930 . S
C748 C746 1.378 . S
C748 C749 1.367 . S
C749 C748 1.367 . S
C749 C751 1.433 . S
C750 C746 1.350 . S
C750 C747 1.463 . S
C750 N754 1.427 . S
C751 H741 0.929 . S
C751 C749 1.433 . S
C751 N754 1.384 . S
C752 H743 0.929 . S
C752 C744 1.378 . S
C752 C747 1.350 . S
C753 H740 0.929 . S
C753 C745 1.433 . S
C753 N755 1.384 . S
N754 C750 1.427 . S
N754 C751 1.384 . S
N755 C747 1.427 . S
N755 C753 1.384 . S
H756 C762 0.930 . S
H757 C766 0.930 . S
H758 C771 0.929 . S
H759 C769 0.929 . S
H760 C764 0.929 1_545 S
H761 C770 0.929 . S
C762 H756 0.930 . S
C762 C763 1.367 . S
C762 C770 1.378 . S
C763 C762 1.367 . S
C763 C771 1.433 . S
C764 H760 0.929 1_565 S
C764 C766 1.378 . S
C764 C768 1.350 . S
C765 C768 1.463 1_545 S
C765 C770 1.350 . S
C765 N773 1.427 . S
C766 H757 0.930 . S
C766 C764 1.378 . S
C766 C767 1.367 . S
C767 C766 1.367 . S
C767 C769 1.433 . S
C768 C764 1.350 . S
C768 C765 1.463 1_565 S
C768 N772 1.427 . S
C769 H759 0.929 . S
C769 C767 1.433 . S
C769 N772 1.384 . S
C770 H761 0.929 . S
C770 C762 1.378 . S
C770 C765 1.350 . S
C771 H758 0.929 . S
C771 C763 1.433 . S
C771 N773 1.384 . S
N772 C768 1.427 . S
N772 C769 1.384 . S
N773 C765 1.427 . S
N773 C771 1.384 . S
H774 C780 0.930 . S
H775 C784 0.930 . S
H776 C789 0.929 1_455 S
H777 C787 0.929 . S
H778 C782 0.929 . S
H779 C788 0.929 . S
C780 H774 0.930 . S
C780 C781 1.367 . S
C780 C788 1.378 . S
C781 C780 1.367 . S
C781 C789 1.433 . S
C782 H778 0.929 . S
C782 C784 1.378 . S
C782 C786 1.350 . S
C783 C786 1.463 1_655 S
C783 C788 1.350 . S
C783 N791 1.427 1_655 S
C784 H775 0.930 . S
C784 C782 1.378 . S
C784 C785 1.367 . S
C785 C784 1.367 . S
C785 C787 1.433 . S
C786 C782 1.350 . S
C786 C783 1.463 1_455 S
C786 N790 1.434 1_455 S
C787 H777 0.929 . S
C787 C785 1.433 . S
C787 N790 1.346 1_455 S
C788 H779 0.929 . S
C788 C780 1.378 . S
C788 C783 1.350 . S
C789 H776 0.929 1_655 S
C789 C781 1.433 . S
C789 N791 1.384 1_655 S
N790 C786 1.434 1_655 S
N790 C787 1.346 1_655 S
N791 C783 1.427 1_455 S
N791 C789 1.384 1_455 S
H792 C798 0.930 . S
H793 C802 0.930 . S
H794 C807 0.929 . S
H795 C805 0.929 . S
H796 C800 0.929 . S
H797 C806 0.929 . S
C798 H792 0.930 . S
C798 C799 1.367 . S
C798 C806 1.378 . S
C799 C798 1.367 . S
C799 C807 1.433 . S
C800 H796 0.929 . S
C800 C802 1.378 . S
C800 C804 1.350 . S
C801 C804 1.463 . S
C801 C806 1.350 . S
C801 N809 1.427 . S
C802 H793 0.930 . S
C802 C800 1.378 . S
C802 C803 1.367 . S
C803 C802 1.367 . S
C803 C805 1.433 . S
C804 C800 1.350 . S
C804 C801 1.463 . S
C804 N808 1.427 . S
C805 H795 0.929 . S
C805 C803 1.433 . S
C805 N808 1.384 . S
C806 H797 0.929 . S
C806 C798 1.378 . S
C806 C801 1.350 . S
C807 H794 0.929 . S
C807 C799 1.433 . S
C807 N809 1.384 . S
N808 C804 1.427 . S
N808 C805 1.384 . S
N809 C801 1.427 . S
N809 C807 1.384 . S
H810 C816 0.930 . S
H811 C820 0.930 . S
H812 C825 0.929 . S
H813 C823 0.929 . S
H814 C818 0.929 . S
H815 C824 0.929 1_545 S
C816 H810 0.930 . S
C816 C817 1.367 . S
C816 C824 1.378 . S
C817 C816 1.367 . S
C817 C825 1.433 . S
C818 H814 0.929 . S
C818 C820 1.378 . S
C818 C822 1.350 . S
C819 C822 1.463 . S
C819 C824 1.350 1_545 S
C819 N827 1.427 1_545 S
C820 H811 0.930 . S
C820 C818 1.378 . S
C820 C821 1.367 . S
C821 C820 1.367 . S
C821 C823 1.433 . S
C822 C818 1.350 . S
C822 C819 1.463 . S
C822 N826 1.427 . S
C823 H813 0.929 . S
C823 C821 1.433 . S
C823 N826 1.384 . S
C824 H815 0.929 1_565 S
C824 C816 1.378 . S
C824 C819 1.350 1_565 S
C825 H812 0.929 . S
C825 C817 1.433 . S
C825 N827 1.384 . S
N826 C822 1.427 . S
N826 C823 1.384 . S
N827 C819 1.427 1_565 S
N827 C825 1.384 . S
H828 C834 0.930 . S
H829 C838 0.930 . S
H830 C843 0.929 . S
H831 C841 0.929 . S
H832 C836 0.929 . S
H833 C842 0.929 . S
C834 H828 0.930 . S
C834 C835 1.367 . S
C834 C842 1.378 . S
C835 C834 1.367 . S
C835 C843 1.433 . S
C836 H832 0.929 . S
C836 C838 1.378 . S
C836 C840 1.350 . S
C837 C840 1.463 1_655 S
C837 C842 1.350 . S
C837 N845 1.427 1_655 S
C838 H829 0.930 . S
C838 C836 1.378 . S
C838 C839 1.367 . S
C839 C838 1.367 . S
C839 C841 1.433 . S
C840 C836 1.350 . S
C840 C837 1.463 1_455 S
C840 N844 1.427 . S
C841 H831 0.929 . S
C841 C839 1.433 . S
C841 N844 1.384 . S
C842 H833 0.929 . S
C842 C834 1.378 . S
C842 C837 1.350 . S
C843 H830 0.929 . S
C843 C835 1.433 . S
C843 N845 1.384 1_655 S
N844 C840 1.427 . S
N844 C841 1.384 . S
N845 C837 1.427 1_455 S
N845 C843 1.384 1_455 S
C367 C10 3.398 . S
C371 C19 3.398 . S
C385 C59 3.472 . S
C389 C50 3.472 . S
C403 C90 3.513 1_556 S
C407 C99 3.513 . S
C421 C139 3.401 . S
C425 C130 3.401 1_556 S
C439 C170 3.474 . S
C443 C179 3.474 1_556 S
C457 C219 3.511 . S
C461 C210 3.511 1_556 S
C475 C247 2.499 . S
C479 C256 2.499 . S
C493 C296 2.885 . S
C497 C287 2.885 . S
C511 C327 1.961 . S
C515 C336 1.961 . S
C529 C202 1.774 . S
C533 C7 1.790 . S
C547 C42 2.745 . S
C551 C122 2.768 . S
C565 C87 1.231 . S
C569 C167 1.242 . S
C583 C82 2.928 . S
C587 C251 3.061 . S
C601 C299 1.191 . S
C605 C2 1.155 . S
C619 C331 1.910 . S
C623 C47 1.782 . S
C637 C330 0.853 . S
C641 C16 0.837 . S
C655 C51 2.173 . S
C659 C250 2.218 . S
C673 C282 2.833 . S
C677 C96 2.648 . S
C691 C91 1.773 . S
C695 C136 1.792 . S
C709 C171 2.747 . S
C713 C11 2.769 . S
C727 C56 1.247 . S
C731 C216 1.241 . S
C745 C339 0.851 . S
C749 C127 0.821 . S
C763 C259 2.220 . S
C767 C162 2.176 . S
C781 C291 2.832 . S
C785 C207 2.646 . S
C799 C242 3.063 . S
C803 C211 2.929 . S
C817 C131 1.160 . S
C821 C290 1.190 . S
C835 C322 1.909 . S
C839 C176 1.775 . S
